# Generated by pormake.
# Topology wmi, (6)-cn, num edge types: 1
# Building blocks:
#     Node 0, Type 0, BuildingBlock: HISSIN_clean_sbu_0, # of connection points: 6
#     Node 1, Type 0, BuildingBlock: HISSIN_clean_sbu_0, # of connection points: 6
#     Node 2, Type 0, BuildingBlock: HISSIN_clean_sbu_0, # of connection points: 6
#     Node 3, Type 0, BuildingBlock: HISSIN_clean_sbu_0, # of connection points: 6
#     Node 4, Type 0, BuildingBlock: HISSIN_clean_sbu_0, # of connection points: 6
#     Node 5, Type 0, BuildingBlock: HISSIN_clean_sbu_0, # of connection points: 6
#     Node 6, Type 0, BuildingBlock: HISSIN_clean_sbu_0, # of connection points: 6
#     Node 7, Type 0, BuildingBlock: HISSIN_clean_sbu_0, # of connection points: 6
#     Node 8, Type 0, BuildingBlock: HISSIN_clean_sbu_0, # of connection points: 6
#     Node 9, Type 0, BuildingBlock: HISSIN_clean_sbu_0, # of connection points: 6
#     Node 10, Type 0, BuildingBlock: HISSIN_clean_sbu_0, # of connection points: 6
#     Node 11, Type 0, BuildingBlock: HISSIN_clean_sbu_0, # of connection points: 6
#     Node 12, Type 0, BuildingBlock: HISSIN_clean_sbu_0, # of connection points: 6
#     Node 13, Type 0, BuildingBlock: HISSIN_clean_sbu_0, # of connection points: 6
#     Node 14, Type 0, BuildingBlock: HISSIN_clean_sbu_0, # of connection points: 6
#     Node 15, Type 0, BuildingBlock: HISSIN_clean_sbu_0, # of connection points: 6
#     Node 16, Type 0, BuildingBlock: HISSIN_clean_sbu_0, # of connection points: 6
#     Node 17, Type 0, BuildingBlock: HISSIN_clean_sbu_0, # of connection points: 6
#     Edge 18, Type (0, 0), None
#     Edge 19, Type (0, 0), None
#     Edge 20, Type (0, 0), None
#     Edge 21, Type (0, 0), None
#     Edge 22, Type (0, 0), None
#     Edge 23, Type (0, 0), None
#     Edge 24, Type (0, 0), None
#     Edge 25, Type (0, 0), None
#     Edge 26, Type (0, 0), None
#     Edge 27, Type (0, 0), None
#     Edge 28, Type (0, 0), None
#     Edge 29, Type (0, 0), None
#     Edge 30, Type (0, 0), None
#     Edge 31, Type (0, 0), None
#     Edge 32, Type (0, 0), None
#     Edge 33, Type (0, 0), None
#     Edge 34, Type (0, 0), None
#     Edge 35, Type (0, 0), None
#     Edge 36, Type (0, 0), None
#     Edge 37, Type (0, 0), None
#     Edge 38, Type (0, 0), None
#     Edge 39, Type (0, 0), None
#     Edge 40, Type (0, 0), None
#     Edge 41, Type (0, 0), None
#     Edge 42, Type (0, 0), None
#     Edge 43, Type (0, 0), None
#     Edge 44, Type (0, 0), None
#     Edge 45, Type (0, 0), None
#     Edge 46, Type (0, 0), None
#     Edge 47, Type (0, 0), None
#     Edge 48, Type (0, 0), None
#     Edge 49, Type (0, 0), None
#     Edge 50, Type (0, 0), None
#     Edge 51, Type (0, 0), None
#     Edge 52, Type (0, 0), None
#     Edge 53, Type (0, 0), None
#     Edge 54, Type (0, 0), None
#     Edge 55, Type (0, 0), None
#     Edge 56, Type (0, 0), None
#     Edge 57, Type (0, 0), None
#     Edge 58, Type (0, 0), None
#     Edge 59, Type (0, 0), None
#     Edge 60, Type (0, 0), None
#     Edge 61, Type (0, 0), None
#     Edge 62, Type (0, 0), None
#     Edge 63, Type (0, 0), None
#     Edge 64, Type (0, 0), None
#     Edge 65, Type (0, 0), None
#     Edge 66, Type (0, 0), None
#     Edge 67, Type (0, 0), None
#     Edge 68, Type (0, 0), None
#     Edge 69, Type (0, 0), None
#     Edge 70, Type (0, 0), None
#     Edge 71, Type (0, 0), None
# Relax obj value: 0.116
# Max RMSD: 0.276
# Mean RMSD: 0.276
data_MOF--net-wmi--node1-HISSIN_clean_sbu_0--edge1-none
_symmetry_space_group_name_H-M    P1
_symmetry_Int_Tables_number       1
_symmetry_cell_setting            triclinic
loop_
_symmetry_equiv_pos_as_xyz
'x, y, z'
_cell_length_a     22.92119
_cell_length_b     22.924682
_cell_length_c     36.470418
_cell_angle_alpha  89.998792
_cell_angle_beta   89.988906
_cell_angle_gamma 119.9984
loop_
_atom_site_label
_atom_site_type_symbol
_atom_site_fract_x
_atom_site_fract_y
_atom_site_fract_z
_atom_type_partial_charge
Eu0 Eu 0.60178 0.11365 0.06228 0.0
Eu1 Eu 0.45268 1.01879 0.04353 0.0
C2 C 0.55363 0.06566 -0.02275 0.0
C3 C 0.79374 0.2292 0.07162 0.0
C4 C 0.80189 0.26536 0.03916 0.0
C5 C 0.91608 0.2794 0.07535 0.0
C6 C 0.86669 0.31016 0.02578 0.0
C7 C 0.85125 0.23548 0.08906 0.0
C8 C 0.92472 0.31871 0.04407 0.0
C9 C 0.72603 0.18039 0.08604 0.0
O10 O 0.51015 0.96187 0.03632 0.0
O11 O 0.57122 1.01309 0.0857 0.0
C12 C 0.55201 0.96519 0.06177 0.0
O13 O 0.50089 0.07495 0.09404 0.0
O14 O 0.34809 0.95896 0.02484 0.0
O15 O 0.37861 0.94194 0.07871 0.0
O16 O 0.50269 0.07666 0.09493 0.0
C17 C 0.47124 0.08154 0.1237 0.0
O18 O 0.5787 0.18955 0.03961 0.0
O19 O 0.46213 0.12459 0.04102 0.0
O20 O 0.49039 1.03519 -0.01262 0.0
O21 O 0.68209 0.20043 0.09177 0.0
O22 O 0.69883 0.1211 0.07071 0.0
O23 O 0.60472 0.09613 0.00048 0.0
C24 C 0.29487 0.84776 0.05 0.0
C25 C 0.32294 0.81474 0.03045 0.0
C26 C 0.21228 0.74155 0.07618 0.0
C27 C 0.29516 0.74471 0.03375 0.0
C28 C 0.23897 0.81052 0.07237 0.0
C29 C 0.24031 0.70771 0.05737 0.0
C30 C 0.33075 0.92098 0.0543 0.0
C31 C 0.51896 0.18408 0.0386 0.0
H32 H 0.75829 0.26029 0.02472 0.0
H33 H 0.95946 0.28649 0.09085 0.0
H34 H 0.87165 0.34101 0.00216 0.0
H35 H 0.84586 0.20762 0.11396 0.0
H36 H 0.36758 0.84334 0.01381 0.0
H37 H 0.16963 0.71493 0.09429 0.0
H38 H 0.31746 0.71997 0.01873 0.0
H39 H 0.21778 0.83532 0.08839 0.0
Eu40 Eu 1.06006 0.53519 0.06231 0.0
Eu41 Eu 0.15496 0.48098 0.04349 0.0
C42 C 0.10811 0.53516 -0.02274 0.0
C43 C 0.94449 0.61155 0.07169 0.0
C44 C 0.90837 0.58358 0.03922 0.0
C45 C 0.89429 0.68369 0.07543 0.0
C46 C 0.86358 0.60359 0.02583 0.0
C47 C 0.93819 0.66276 0.08913 0.0
C48 C 0.85502 0.65305 0.04413 0.0
C49 C 0.99329 0.59265 0.08611 0.0
O50 O 0.21193 0.59537 0.03634 0.0
O51 O 0.16062 0.60517 0.08572 0.0
C52 C 0.20854 0.63386 0.06179 0.0
O53 O 0.09875 0.47296 0.09402 0.0
O54 O 0.21477 0.43622 0.02474 0.0
O55 O 0.23173 0.4836 0.07865 0.0
O56 O 0.09704 0.47306 0.09491 0.0
C57 C 0.09213 0.43671 0.12367 0.0
O58 O 0.98417 0.43626 0.03959 0.0
O59 O 1.04914 0.38466 0.04094 0.0
O60 O 0.13862 0.50242 -0.01264 0.0
O61 O 0.97324 0.52866 0.09181 0.0
O62 O 1.05261 0.62477 0.07079 0.0
O63 O 1.07759 0.5557 0.00051 0.0
C64 C 0.32593 0.49408 0.04993 0.0
C65 C 0.35899 0.55514 0.03036 0.0
C66 C 0.43211 0.51779 0.0762 0.0
C67 C 0.42902 0.59741 0.03369 0.0
C68 C 0.36314 0.47547 0.07236 0.0
C69 C 0.46598 0.57961 0.05736 0.0
C70 C 0.25271 0.45676 0.05422 0.0
C71 C 0.98966 0.38202 0.03852 0.0
H72 H 0.91345 0.54506 0.02477 0.0
H73 H 0.88719 0.71997 0.09094 0.0
H74 H 0.83277 0.57772 0.00221 0.0
H75 H 0.96602 0.68522 0.11404 0.0
H76 H 0.33042 0.57114 0.01368 0.0
H77 H 0.4587 0.50179 0.09435 0.0
H78 H 0.45379 0.64442 0.01864 0.0
H79 H 0.33831 0.42951 0.0884 0.0
Eu80 Eu 0.63848 0.57189 0.06234 0.0
Eu81 Eu 0.69274 0.72101 0.04353 0.0
C82 C 0.63861 0.62001 -0.02271 0.0
C83 C 0.56206 0.37996 0.0717 0.0
C84 C 0.59008 0.37182 0.03923 0.0
C85 C 0.4899 0.25763 0.07543 0.0
C86 C 0.57008 0.30703 0.02585 0.0
C87 C 0.51081 0.32245 0.08914 0.0
C88 C 0.5206 0.24902 0.04415 0.0
C89 C 0.58096 0.44766 0.08612 0.0
O90 O 0.57835 0.66358 0.03635 0.0
O91 O 0.5685 0.6025 0.08574 0.0
C92 C 0.53983 0.62171 0.0618 0.0
O93 O 0.70069 0.6728 0.09405 0.0
O94 O 0.73752 0.82558 0.02479 0.0
O95 O 0.69 0.79511 0.07868 0.0
O96 O 0.70059 0.671 0.09495 0.0
C97 C 0.7369 0.70245 0.12371 0.0
O98 O 0.73745 0.59495 0.03963 0.0
O99 O 0.78908 0.71153 0.041 0.0
O100 O 0.67136 0.68324 -0.01261 0.0
O101 O 0.64495 0.49158 0.09183 0.0
O102 O 0.54886 0.47487 0.07079 0.0
O103 O 0.61802 0.56894 0.00053 0.0
C104 C 0.6796 0.87886 0.04994 0.0
C105 C 0.61849 0.85081 0.03041 0.0
C106 C 0.65597 0.96145 0.07612 0.0
C107 C 0.57625 0.87861 0.03371 0.0
C108 C 0.69826 0.93475 0.07231 0.0
C109 C 0.59411 0.93344 0.05732 0.0
C110 C 0.7169 0.84295 0.05425 0.0
C111 C 0.79171 0.65469 0.03858 0.0
H112 H 0.62862 0.41541 0.02479 0.0
H113 H 0.45359 0.21425 0.09094 0.0
H114 H 0.59598 0.30207 0.00223 0.0
H115 H 0.48833 0.32783 0.11404 0.0
H116 H 0.60245 0.80617 0.01378 0.0
H117 H 0.67202 1.00409 0.09423 0.0
H118 H 0.5292 0.85631 0.0187 0.0
H119 H 0.74425 0.95592 0.08832 0.0
Eu120 Eu 0.14018 0.57527 0.85355 0.0
Eu121 Eu 1.0453 0.42616 0.87235 0.0
C122 C 0.09203 0.52714 0.93858 0.0
C123 C 0.25569 0.76722 0.84418 0.0
C124 C 0.29181 0.77538 0.87665 0.0
C125 C 0.3059 0.88955 0.84042 0.0
C126 C 0.3366 0.84017 0.89003 0.0
C127 C 0.262 0.82472 0.82672 0.0
C128 C 0.34518 0.89819 0.87171 0.0
C129 C 0.20689 0.69951 0.82977 0.0
O130 O 0.98834 0.48359 0.8795 0.0
O131 O 1.03961 0.54464 0.83012 0.0
C132 C 0.99169 0.52544 0.85405 0.0
O133 O 0.10151 0.47437 0.82183 0.0
O134 O 0.9855 0.32158 0.89106 0.0
O135 O 0.96849 0.35208 0.83718 0.0
O136 O 0.10321 0.47617 0.82093 0.0
C137 C 0.10808 0.44473 0.79216 0.0
O138 O 0.21611 0.55221 0.8762 0.0
O139 O 0.15112 0.43564 0.87491 0.0
O140 O 1.06151 0.46391 0.92848 0.0
O141 O 0.22696 0.6556 0.82405 0.0
O142 O 0.14758 0.67229 0.84511 0.0
O143 O 0.12269 0.57822 0.91536 0.0
C144 C 0.87431 0.26831 0.86589 0.0
C145 C 0.84124 0.29634 0.88544 0.0
C146 C 0.76813 0.18576 0.83967 0.0
C147 C 0.7712 0.26855 0.88211 0.0
C148 C 0.83711 0.21245 0.8435 0.0
C149 C 0.73425 0.21375 0.85848 0.0
C150 C 0.94754 0.30423 0.86159 0.0
C151 C 0.21062 0.49247 0.87729 0.0
H152 H 0.28672 0.73179 0.89112 0.0
H153 H 0.31301 0.93292 0.82489 0.0
H154 H 0.36742 0.84513 0.91366 0.0
H155 H 0.23416 0.81933 0.80181 0.0
H156 H 0.86981 0.34094 0.90208 0.0
H157 H 0.74155 0.14314 0.82155 0.0
H158 H 0.74642 0.29082 0.89714 0.0
H159 H 0.86195 0.1913 0.82748 0.0
Eu160 Eu 0.59848 0.61193 0.85358 0.0
Eu161 Eu 0.7476 0.6662 0.87235 0.0
C162 C 0.64662 0.61194 0.93861 0.0
C163 C 0.40652 0.53547 0.84424 0.0
C164 C 0.39837 0.56355 0.87668 0.0
C165 C 0.28418 0.46331 0.84053 0.0
C166 C 0.33356 0.54358 0.89006 0.0
C167 C 0.34901 0.48419 0.82683 0.0
C168 C 0.27555 0.49407 0.87178 0.0
C169 C 0.47423 0.55437 0.82982 0.0
O170 O 0.69018 0.55181 0.8795 0.0
O171 O 0.62913 0.54203 0.83012 0.0
C172 C 0.64834 0.51331 0.85404 0.0
O173 O 0.69939 0.67418 0.82184 0.0
O174 O 0.85219 0.71102 0.89105 0.0
O175 O 0.82172 0.66351 0.83717 0.0
O176 O 0.69758 0.67408 0.82095 0.0
C177 C 0.72903 0.71039 0.79217 0.0
O178 O 0.62149 0.7109 0.87623 0.0
O179 O 0.73807 0.76251 0.87491 0.0
O180 O 0.70986 0.64469 0.92849 0.0
O181 O 0.51814 0.61834 0.82408 0.0
O182 O 0.50145 0.5223 0.84517 0.0
O183 O 0.59554 0.59149 0.91539 0.0
C184 C 0.90547 0.65311 0.86588 0.0
C185 C 0.87746 0.59206 0.88547 0.0
C186 C 0.98794 0.62937 0.83963 0.0
C187 C 0.90521 0.54979 0.88215 0.0
C188 C 0.96129 0.67169 0.84345 0.0
C189 C 0.95997 0.56756 0.85848 0.0
C190 C 0.86957 0.69042 0.86158 0.0
C191 C 0.68122 0.76515 0.8773 0.0
H192 H 0.44196 0.60212 0.8911 0.0
H193 H 0.2408 0.42698 0.82504 0.0
H194 H 0.3286 0.56952 0.91365 0.0
H195 H 0.35441 0.46167 0.80196 0.0
H196 H 0.83288 0.57608 0.90215 0.0
H197 H 1.03053 0.64535 0.82147 0.0
H198 H 0.88295 0.50279 0.89721 0.0
H199 H 0.98243 0.71763 0.8274 0.0
Eu200 Eu 0.56175 1.03353 0.85355 0.0
Eu201 Eu 0.50748 0.12842 0.87229 0.0
C202 C 0.56168 0.0817 0.93856 0.0
C203 C 0.63818 0.91799 0.84424 0.0
C204 C 0.61005 0.88173 0.87667 0.0
C205 C 0.7104 0.86787 0.84055 0.0
C206 C 0.63002 0.83692 0.89005 0.0
C207 C 0.68951 0.9118 0.82685 0.0
C208 C 0.67959 0.82847 0.87179 0.0
C209 C 0.61928 0.96679 0.82981 0.0
O210 O 0.62187 0.18537 0.87947 0.0
O211 O 0.63174 0.13407 0.83011 0.0
C212 C 0.6604 0.18198 0.85403 0.0
O213 O 0.49956 0.07222 0.82179 0.0
O214 O 0.46267 0.18822 0.89097 0.0
O215 O 0.51027 0.20525 0.83711 0.0
O216 O 0.49966 0.07052 0.8209 0.0
C217 C 0.46338 0.06565 0.79212 0.0
O218 O 0.46274 0.95764 0.87623 0.0
O219 O 0.41113 1.02261 0.87483 0.0
O220 O 0.52891 0.11215 0.92844 0.0
O221 O 0.5553 0.94674 0.82409 0.0
O222 O 0.65137 1.02609 0.84514 0.0
O223 O 0.58218 1.05108 0.91536 0.0
C224 C 0.52067 0.29942 0.86582 0.0
C225 C 0.58173 0.33243 0.8854 0.0
C226 C 0.5444 0.40564 0.83961 0.0
C227 C 0.624 0.40246 0.8821 0.0
C228 C 0.50208 0.33667 0.84341 0.0
C229 C 0.60622 0.43947 0.85846 0.0
C230 C 0.48334 0.2262 0.86151 0.0
C231 C 0.40849 0.96313 0.87727 0.0
H232 H 0.57144 0.88673 0.89108 0.0
H233 H 0.74677 0.86085 0.82507 0.0
H234 H 0.60405 0.806 0.91363 0.0
H235 H 0.71207 0.93974 0.80197 0.0
H236 H 0.59772 0.30382 0.90206 0.0
H237 H 0.52841 0.43226 0.82148 0.0
H238 H 0.67101 0.42719 0.89715 0.0
H239 H 0.45613 0.31188 0.82737 0.0
Eu240 Eu 0.26846 0.44703 0.39561 0.0
Eu241 Eu 0.11934 0.35217 0.37685 0.0
C242 C 0.2203 0.39904 0.31058 0.0
C243 C 0.46041 0.56259 0.40497 0.0
C244 C 0.46858 0.59868 0.37248 0.0
C245 C 0.58275 0.61285 0.40875 0.0
C246 C 0.53339 0.64348 0.3591 0.0
C247 C 0.51792 0.56894 0.42245 0.0
C248 C 0.59141 0.65209 0.37744 0.0
C249 C 0.39269 0.51377 0.41938 0.0
O250 O 0.1768 0.29524 0.36964 0.0
O251 O 0.23789 0.34646 0.41901 0.0
C252 C 0.21867 0.29857 0.39508 0.0
O253 O 0.16756 0.40833 0.42736 0.0
O254 O 1.01475 0.29235 0.35816 0.0
O255 O 1.04526 0.27533 0.41203 0.0
O256 O 0.16937 0.41003 0.42826 0.0
C257 C 0.13793 0.41493 0.45703 0.0
O258 O 0.24538 0.52293 0.37293 0.0
O259 O 0.1288 0.45797 0.37436 0.0
O260 O 0.15706 0.36859 0.3207 0.0
O261 O 0.34875 0.53381 0.4251 0.0
O262 O 0.36551 0.45448 0.40404 0.0
O263 O 0.27139 0.42951 0.3338 0.0
C264 C 0.96151 0.18116 0.38332 0.0
C265 C 0.98955 0.14813 0.36373 0.0
C266 C 0.879 0.07494 0.40953 0.0
C267 C 0.96177 0.0781 0.36703 0.0
C268 C 0.90567 0.14392 0.40573 0.0
C269 C 0.90698 1.0411 0.39068 0.0
C270 C 0.9974 0.25437 0.38762 0.0
C271 C 0.18564 0.51746 0.37193 0.0
H272 H 0.42499 0.59356 0.358 0.0
H273 H 0.62613 0.61999 0.42429 0.0
H274 H 0.53837 0.67428 0.33546 0.0
H275 H 0.51251 0.54114 0.44738 0.0
H276 H 1.03414 0.17673 0.34706 0.0
H277 H 0.83638 1.04833 0.42767 0.0
H278 H 0.98404 0.05336 0.35197 0.0
H279 H 0.88452 0.16872 0.42177 0.0
Eu280 Eu 0.72675 0.86859 0.39564 0.0
Eu281 Eu 0.82164 0.81438 0.37682 0.0
C282 C 0.77473 0.86847 0.31059 0.0
C283 C 0.61121 0.94499 0.40502 0.0
C284 C 0.5751 0.91701 0.37254 0.0
C285 C 0.561 1.01711 0.40874 0.0
C286 C 0.53032 0.93702 0.35915 0.0
C287 C 0.6049 0.9962 0.42245 0.0
C288 C 0.52174 0.98647 0.37745 0.0
C289 C 0.66002 0.92609 0.41944 0.0
O290 O 0.8786 0.92876 0.36965 0.0
O291 O 0.82732 0.93856 0.41905 0.0
C292 C 0.87522 0.96725 0.3951 0.0
O293 O 0.76545 0.80638 0.42736 0.0
O294 O 0.88145 0.76962 0.35807 0.0
O295 O 0.89843 0.81702 0.41198 0.0
O296 O 0.76375 0.80648 0.42825 0.0
C297 C 0.75887 0.77015 0.45702 0.0
O298 O 0.65084 0.76964 0.37296 0.0
O299 O 0.71583 0.71805 0.3743 0.0
O300 O 0.80523 0.83574 0.32069 0.0
O301 O 0.63996 0.86211 0.42515 0.0
O302 O 0.71933 0.95819 0.40411 0.0
O303 O 0.74424 0.88905 0.33384 0.0
C304 C 0.99262 0.82747 0.38325 0.0
C305 C 1.02569 0.88854 0.36368 0.0
C306 C 0.09881 0.85117 0.4095 0.0
C307 C 0.09572 0.9308 0.367 0.0
C308 C 1.02983 0.80886 0.40568 0.0
C309 C 0.13267 0.91299 0.39067 0.0
C310 C 0.9194 0.79017 0.38754 0.0
C311 C 0.65634 0.7154 0.37188 0.0
H312 H 0.5802 0.8785 0.35809 0.0
H313 H 0.55389 0.05339 0.42425 0.0
H314 H 0.4995 0.91116 0.33552 0.0
H315 H 0.63273 1.01865 0.44737 0.0
H316 H 0.99711 0.90454 0.347 0.0
H317 H 0.12539 0.83516 0.42765 0.0
H318 H 0.12048 0.97781 0.35196 0.0
H319 H 1.005 0.7629 0.42171 0.0
Eu320 Eu 0.3052 0.90529 0.39566 0.0
Eu321 Eu 0.35943 0.0544 0.37683 0.0
C322 C 0.30529 0.95335 0.31061 0.0
C323 C 0.2288 0.71336 0.40505 0.0
C324 C 0.25673 0.7052 0.37255 0.0
C325 C 0.15668 0.59103 0.40882 0.0
C326 C 0.2367 0.6404 0.35916 0.0
C327 C 0.17762 0.65585 0.42252 0.0
C328 C 0.18728 0.5824 0.3775 0.0
C329 C 0.24771 0.78107 0.41946 0.0
O330 O 0.24504 0.99696 0.36966 0.0
O331 O 0.23519 0.93588 0.41905 0.0
C332 C 0.20652 0.95509 0.39511 0.0
O333 O 0.3674 1.00621 0.42736 0.0
O334 O 0.40418 0.15895 0.35808 0.0
O335 O 0.3567 0.12851 0.41197 0.0
O336 O 0.3673 1.00441 0.42826 0.0
C337 C 0.40361 1.03587 0.45702 0.0
O338 O 0.40417 0.92836 0.37294 0.0
O339 O 0.45578 1.04493 0.37431 0.0
O340 O 0.33805 1.01659 0.3207 0.0
O341 O 0.3117 0.825 0.42515 0.0
O342 O 0.2156 0.80827 0.40415 0.0
O343 O 0.28471 0.9023 0.33386 0.0
C344 C 0.34626 0.21224 0.38323 0.0
C345 C 0.28515 0.18418 0.36371 0.0
C346 C 0.32265 0.29483 0.40942 0.0
C347 C 0.24291 0.21198 0.36702 0.0
C348 C 0.36494 0.26814 0.4056 0.0
C349 C 0.26077 0.26682 0.39063 0.0
C350 C 0.38358 0.17634 0.38754 0.0
C351 C 0.45843 0.9881 0.37189 0.0
H352 H 0.29521 0.74879 0.35807 0.0
H353 H 0.12043 0.54765 0.42435 0.0
H354 H 0.26253 0.63544 0.33552 0.0
H355 H 0.15521 0.66125 0.44745 0.0
H356 H 0.2691 0.13954 0.34708 0.0
H357 H 0.3387 0.33747 0.42753 0.0
H358 H 0.19585 0.18968 0.35201 0.0
H359 H 0.41093 0.28931 0.4216 0.0
Eu360 Eu 0.8068 0.9086 0.18688 0.0
Eu361 Eu 0.71191 0.75948 0.20567 0.0
C362 C 0.75863 0.86045 0.27191 0.0
C363 C 0.9223 0.10055 0.17753 0.0
C364 C 0.95849 0.10869 0.20998 0.0
C365 C 0.97246 0.22287 0.17381 0.0
C366 C 1.00328 0.17348 0.22336 0.0
C367 C 0.92854 0.15805 0.16011 0.0
C368 C 1.0118 0.2315 0.20508 0.0
C369 C 0.8735 1.03284 0.16312 0.0
O370 O 0.65495 0.81691 0.21281 0.0
O371 O 0.70624 0.87796 0.16343 0.0
C372 C 0.6583 0.85875 0.18735 0.0
O373 O 0.76813 0.8077 0.15516 0.0
O374 O 0.65211 0.6549 0.22439 0.0
O375 O 0.63512 0.68539 0.1705 0.0
O376 O 0.76984 0.8095 0.15426 0.0
C377 C 0.77468 0.77807 0.12548 0.0
O378 O 0.88272 0.88553 0.20954 0.0
O379 O 0.81773 0.76896 0.20824 0.0
O380 O 0.72813 0.79722 0.26181 0.0
O381 O 0.89358 0.98893 0.15739 0.0
O382 O 0.81419 1.00561 0.17845 0.0
O383 O 0.78927 0.91153 0.24869 0.0
C384 C 0.54093 0.60163 0.19921 0.0
C385 C 0.50786 0.62969 0.21873 0.0
C386 C 0.43475 0.51905 0.17301 0.0
C387 C 0.43782 0.60189 0.2154 0.0
C388 C 0.50373 0.54574 0.17684 0.0
C389 C 0.40087 0.54706 0.19179 0.0
C390 C 0.61416 0.63754 0.19492 0.0
C391 C 0.87723 0.82579 0.21062 0.0
H392 H 0.95345 0.06509 0.22441 0.0
H393 H 0.97952 0.26625 0.15832 0.0
H394 H 1.03415 0.17843 0.24696 0.0
H395 H 0.90065 0.15267 0.13523 0.0
H396 H 0.53643 0.67432 0.23536 0.0
H397 H 0.40817 0.4764 0.1549 0.0
H398 H 0.41305 0.62418 0.23041 0.0
H399 H 0.52857 0.52457 0.16084 0.0
Eu400 Eu 0.26509 0.94525 0.18691 0.0
Eu401 Eu 0.41422 0.99951 0.20565 0.0
C402 C 0.31328 0.94527 0.27192 0.0
C403 C 1.07313 0.8688 0.17758 0.0
C404 C 1.06498 0.89691 0.21001 0.0
C405 C 0.95079 0.79661 0.17388 0.0
C406 C 1.00018 0.87694 0.22339 0.0
C407 C 1.01562 0.81749 0.16019 0.0
C408 C 0.94217 0.8274 0.20512 0.0
C409 C 0.14084 0.88769 0.16316 0.0
O410 O 0.35681 0.88512 0.2128 0.0
O411 O 0.29573 0.87535 0.16344 0.0
C412 C 0.31495 0.84663 0.18735 0.0
O413 O 0.36598 1.00748 0.15516 0.0
O414 O 0.51882 1.04433 0.22434 0.0
O415 O 0.48833 0.99684 0.17046 0.0
O416 O 0.36418 1.00739 0.15426 0.0
C417 C 0.39561 1.04369 0.12548 0.0
O418 O 0.28812 1.04422 0.20956 0.0
O419 O 0.40471 0.09582 0.20822 0.0
O420 O 0.37652 0.978 0.2618 0.0
O421 O 0.18475 0.95167 0.15742 0.0
O422 O 0.16806 0.85563 0.17851 0.0
O423 O 0.26219 0.92482 0.24872 0.0
C424 C 0.57209 0.98642 0.19917 0.0
C425 C 0.54406 0.92537 0.21876 0.0
C426 C 0.65456 0.96267 0.17292 0.0
C427 C 0.57181 0.8831 0.21544 0.0
C428 C 0.62791 1.005 0.17674 0.0
C429 C 0.62658 0.90086 0.19178 0.0
C430 C 0.53619 1.02374 0.19487 0.0
C431 C 0.34786 0.09847 0.21062 0.0
H432 H 0.10858 0.9355 0.22442 0.0
H433 H 0.90741 0.76026 0.15841 0.0
H434 H 0.99521 0.9029 0.24697 0.0
H435 H 1.02102 0.79494 0.13532 0.0
H436 H 0.49948 0.9094 0.23543 0.0
H437 H 0.69716 0.97865 0.15477 0.0
H438 H 0.54954 0.83609 0.2305 0.0
H439 H 0.64906 1.05094 0.16069 0.0
Eu440 Eu 0.22836 0.36683 0.18689 0.0
Eu441 Eu 0.1741 0.46174 0.20562 0.0
C442 C 0.22834 0.41506 0.27188 0.0
C443 C 0.30477 0.25128 0.17756 0.0
C444 C 0.27673 0.21509 0.21002 0.0
C445 C 0.37695 0.20112 0.17383 0.0
C446 C 0.29673 0.17029 0.2234 0.0
C447 C 0.35604 0.24503 0.16013 0.0
C448 C 0.34624 0.16179 0.2051 0.0
C449 C 0.28587 0.30007 0.16314 0.0
O450 O 0.28849 0.5187 0.21278 0.0
O451 O 0.29836 0.46736 0.16344 0.0
C452 C 0.32702 0.51529 0.18735 0.0
O453 O 0.16618 0.40552 0.15512 0.0
O454 O 0.12929 0.52154 0.22429 0.0
O455 O 0.17686 0.53854 0.17042 0.0
O456 O 0.16627 0.40381 0.15423 0.0
C457 C 0.12998 0.39893 0.12545 0.0
O458 O 0.12937 0.29096 0.20959 0.0
O459 O 1.07776 0.35593 0.20817 0.0
O460 O 0.19557 0.44552 0.26176 0.0
O461 O 0.22188 0.28002 0.15743 0.0
O462 O 0.31796 0.35938 0.17846 0.0
O463 O 0.24882 0.38443 0.24868 0.0
C464 C 0.1873 0.63273 0.19912 0.0
C465 C 0.24838 0.66574 0.21868 0.0
C466 C 0.211 0.73896 0.17294 0.0
C467 C 0.29064 0.73577 0.21538 0.0
C468 C 0.16868 0.66998 0.17674 0.0
C469 C 0.27284 0.77278 0.19176 0.0
C470 C 0.14996 0.55951 0.19482 0.0
C471 C 1.07511 0.29645 0.21062 0.0
H472 H 0.23817 0.22013 0.22446 0.0
H473 H 0.41327 0.19405 0.15833 0.0
H474 H 0.27082 0.13942 0.247 0.0
H475 H 0.37854 0.27291 0.13523 0.0
H476 H 0.26438 0.63713 0.23533 0.0
H477 H 0.19498 0.76558 0.15482 0.0
H478 H 0.33767 0.7605 0.23042 0.0
H479 H 0.12271 0.64519 0.16071 0.0
Eu480 Eu 0.93519 0.78035 0.72895 0.0
Eu481 Eu 0.78608 0.68548 0.7102 0.0
C482 C 0.88702 0.73238 0.64392 0.0
C483 C 0.12714 0.89589 0.73828 0.0
C484 C 0.13527 0.93212 0.70584 0.0
C485 C 0.24948 0.94604 0.74196 0.0
C486 C 0.20006 0.97693 0.69245 0.0
C487 C 0.18466 0.90211 0.75567 0.0
C488 C 0.2581 0.98542 0.71071 0.0
C489 C 1.05944 0.84707 0.7527 0.0
O490 O 0.84355 0.62856 0.70299 0.0
O491 O 0.90463 0.67979 0.75237 0.0
C492 C 0.88541 0.63189 0.72844 0.0
O493 O 0.83429 0.74162 0.76071 0.0
O494 O 0.6815 0.62565 0.6915 0.0
O495 O 0.71199 0.60864 0.74538 0.0
O496 O 0.8361 0.74333 0.76161 0.0
C497 C 0.80466 0.74819 0.79039 0.0
O498 O 0.91209 0.85625 0.7063 0.0
O499 O 0.79552 0.79127 0.7077 0.0
O500 O 0.82379 0.70191 0.65405 0.0
O501 O 1.0155 0.86712 0.75843 0.0
O502 O 1.03224 0.78778 0.73737 0.0
O503 O 0.93811 0.76284 0.66714 0.0
C504 C 0.62827 0.51446 0.71665 0.0
C505 C 0.65634 0.48144 0.6971 0.0
C506 C 0.5457 0.40824 0.74283 0.0
C507 C 0.62855 0.41141 0.70039 0.0
C508 C 0.57237 0.47721 0.73903 0.0
C509 C 0.57372 0.37441 0.72401 0.0
C510 C 0.66414 0.58767 0.72096 0.0
C511 C 0.85235 0.85077 0.70529 0.0
H512 H 0.09166 0.9271 0.69143 0.0
H513 H 0.29287 0.95307 0.75743 0.0
H514 H 0.20501 1.00783 0.66886 0.0
H515 H 0.17928 0.87418 0.78054 0.0
H516 H 0.70097 0.51005 0.68046 0.0
H517 H 0.50305 0.38162 0.76095 0.0
H518 H 0.65085 0.38668 0.68536 0.0
H519 H 0.55119 0.50201 0.75506 0.0
Eu520 Eu 0.39346 0.2019 0.72895 0.0
Eu521 Eu 0.48835 0.14768 0.71012 0.0
C522 C 0.44146 0.20183 0.6439 0.0
C523 C 0.27789 0.27825 0.73835 0.0
C524 C 0.24174 0.25026 0.70589 0.0
C525 C 0.22769 0.35039 0.74208 0.0
C526 C 0.19696 0.27026 0.6925 0.0
C527 C 0.2716 0.32948 0.75579 0.0
C528 C 0.1884 0.31973 0.7108 0.0
C529 C 0.3267 0.25935 0.75276 0.0
O530 O 0.54533 0.26207 0.70298 0.0
O531 O 0.49403 0.27186 0.75236 0.0
C532 C 0.54194 0.30056 0.72843 0.0
O533 O 0.43217 0.13969 0.76066 0.0
O534 O 0.54816 0.10295 0.69135 0.0
O535 O 0.5651 0.15024 0.74528 0.0
O536 O 0.43046 0.13979 0.76155 0.0
C537 C 0.42559 0.10349 0.79034 0.0
O538 O 0.31757 0.10298 0.70623 0.0
O539 O 0.38253 1.05136 0.70759 0.0
O540 O 0.47193 0.16907 0.654 0.0
O541 O 0.30665 0.19537 0.75846 0.0
O542 O 0.38601 0.29148 0.73744 0.0
O543 O 0.41099 0.22243 0.66715 0.0
C544 C 0.65932 0.16077 0.71655 0.0
C545 C 0.69239 0.22183 0.69698 0.0
C546 C 0.76549 0.18448 0.74283 0.0
C547 C 0.76242 0.2641 0.70032 0.0
C548 C 0.69652 0.14216 0.73899 0.0
C549 C 0.79936 0.24631 0.724 0.0
C550 C 0.58609 0.12344 0.72083 0.0
C551 C 0.32305 1.04872 0.70517 0.0
H552 H 0.24682 0.21173 0.69144 0.0
H553 H 0.2206 0.38668 0.75759 0.0
H554 H 0.16612 0.24439 0.66888 0.0
H555 H 0.29945 0.35194 0.78069 0.0
H556 H 0.66382 0.23783 0.6803 0.0
H557 H 0.79207 0.16848 0.76099 0.0
H558 H 0.78719 0.31112 0.68527 0.0
H559 H 0.67169 0.0962 0.75502 0.0
Eu560 Eu 0.97186 0.23859 0.72899 0.0
Eu561 Eu 1.02613 0.38771 0.71019 0.0
C562 C 0.97201 0.28672 0.64395 0.0
C563 C 0.89545 1.04665 0.73837 0.0
C564 C 0.92339 1.03849 0.70588 0.0
C565 C 0.82335 0.92432 0.74215 0.0
C566 C 0.90339 0.9737 0.69251 0.0
C567 C 0.84427 0.98915 0.75585 0.0
C568 C 0.85397 0.9157 0.71084 0.0
C569 C 0.91435 0.11436 0.75278 0.0
O570 O 0.91174 0.3303 0.70301 0.0
O571 O 0.90187 0.26918 0.75239 0.0
C572 C 0.87321 0.28841 0.72845 0.0
O573 O 1.03405 0.33948 0.76072 0.0
O574 O 1.07093 0.49228 0.69146 0.0
O575 O 1.02342 0.46182 0.74535 0.0
O576 O 1.03395 0.33768 0.76161 0.0
C577 C 1.07023 0.36911 0.79039 0.0
O578 O 1.07084 0.26165 0.70629 0.0
O579 O 0.12247 0.37822 0.70768 0.0
O580 O 1.00478 0.34995 0.65406 0.0
O581 O 0.97834 0.15828 0.75849 0.0
O582 O 0.88225 0.14156 0.73745 0.0
O583 O 0.9514 0.23564 0.66719 0.0
C584 C 1.01301 0.54557 0.71662 0.0
C585 C 0.95192 0.51753 0.69707 0.0
C586 C 0.98937 0.62814 0.74281 0.0
C587 C 0.90967 0.54532 0.70038 0.0
C588 C 1.03166 0.60144 0.739 0.0
C589 C 0.92751 0.60014 0.724 0.0
C590 C 1.05032 0.50966 0.72092 0.0
C591 C 0.1251 0.32138 0.70524 0.0
H592 H 0.96188 0.08209 0.69141 0.0
H593 H 0.7871 0.88095 0.75769 0.0
H594 H 0.92923 0.96873 0.66886 0.0
H595 H 0.82186 0.99454 0.78078 0.0
H596 H 0.93589 0.47291 0.68043 0.0
H597 H 1.0054 0.67077 0.76092 0.0
H598 H 0.86263 0.52304 0.68535 0.0
H599 H 1.07764 0.6226 0.75501 0.0
Eu600 Eu 0.47351 0.24201 0.52019 0.0
Eu601 Eu 0.37863 0.0929 0.53897 0.0
C602 C 0.42536 0.19384 0.60522 0.0
C603 C 0.58899 0.43396 0.51087 0.0
C604 C 0.62525 0.44208 0.54329 0.0
C605 C 0.63912 0.55629 0.5072 0.0
C606 C 0.67006 0.50686 0.55667 0.0
C607 C 0.59518 0.49148 0.49349 0.0
C608 C 0.67853 0.5649 0.53843 0.0
C609 C 0.54019 0.36627 0.49644 0.0
O610 O 0.32167 0.15033 0.54613 0.0
O611 O 0.37295 0.21137 0.49674 0.0
C612 C 0.32502 0.19217 0.52067 0.0
O613 O 0.43484 0.14113 0.48846 0.0
O614 O 0.31884 0.98831 0.55767 0.0
O615 O 0.30183 1.01882 0.5038 0.0
O616 O 0.43655 0.14293 0.48756 0.0
C617 C 0.44139 0.1115 0.45878 0.0
O618 O 0.54944 0.21895 0.54283 0.0
O619 O 0.48445 0.10238 0.54154 0.0
O620 O 0.39485 0.13061 0.59511 0.0
O621 O 0.56027 0.32237 0.4907 0.0
O622 O 0.48089 0.33903 0.51179 0.0
O623 O 0.45601 0.24492 0.58201 0.0
C624 C 0.20765 0.93505 0.53251 0.0
C625 C 0.17459 0.9631 0.55204 0.0
C626 C 0.10146 0.85246 0.50632 0.0
C627 C 0.10455 0.9353 0.54873 0.0
C628 C 0.17045 0.87916 0.51014 0.0
C629 C 1.06759 0.88047 0.52511 0.0
C630 C 0.28088 0.97096 0.52821 0.0
C631 C 0.54395 0.15921 0.54392 0.0
H632 H 0.62026 0.39848 0.55769 0.0
H633 H 0.64613 0.59968 0.49173 0.0
H634 H 0.70097 0.5118 0.58025 0.0
H635 H 0.56724 0.48611 0.46863 0.0
H636 H 0.20317 1.00773 0.56867 0.0
H637 H 1.07488 0.80981 0.48821 0.0
H638 H 0.07978 0.95759 0.56374 0.0
H639 H 0.19528 0.85799 0.49413 0.0
Eu640 Eu 0.93181 0.27864 0.52026 0.0
Eu641 Eu 0.08095 0.33293 0.53899 0.0
C642 C 0.98001 0.27866 0.60527 0.0
C643 C 0.73985 0.2022 0.51091 0.0
C644 C 0.73169 0.2303 0.54333 0.0
C645 C 0.61752 0.13003 0.50719 0.0
C646 C 0.66689 0.21033 0.5567 0.0
C647 C 0.68235 0.15091 0.4935 0.0
C648 C 0.60888 0.16081 0.53842 0.0
C649 C 0.80757 0.22109 0.4965 0.0
O650 O 1.02355 0.21853 0.54614 0.0
O651 O 0.96245 0.20874 0.49679 0.0
C652 C 0.98168 0.18003 0.5207 0.0
O653 O 1.03269 0.34088 0.4885 0.0
O654 O 0.18555 0.37776 0.55768 0.0
O655 O 0.15506 0.33027 0.5038 0.0
O656 O 1.03088 0.34078 0.4876 0.0
C657 C 1.0623 0.37708 0.45882 0.0
O658 O 0.95483 0.37759 0.54293 0.0
O659 O 1.07141 0.42922 0.54156 0.0
O660 O 1.04324 0.31142 0.59514 0.0
O661 O 0.85149 0.28507 0.49076 0.0
O662 O 0.83478 0.18902 0.51185 0.0
O663 O 0.9289 0.25819 0.58206 0.0
C664 C 0.23882 0.31985 0.5325 0.0
C665 C 0.21081 0.25882 0.5521 0.0
C666 C 0.32127 0.29609 0.50623 0.0
C667 C 0.23856 0.21654 0.54878 0.0
C668 C 0.29462 0.33842 0.51005 0.0
C669 C 0.2933 0.23429 0.5251 0.0
C670 C 0.20292 0.35717 0.52821 0.0
C671 C 1.01456 0.43186 0.54397 0.0
H672 H 0.77528 0.26888 0.55776 0.0
H673 H 0.57414 0.09369 0.4917 0.0
H674 H 0.66191 0.23628 0.58028 0.0
H675 H 0.68776 0.12837 0.46863 0.0
H676 H 0.16624 0.24285 0.56879 0.0
H677 H 0.36385 0.31205 0.48807 0.0
H678 H 0.2163 0.16954 0.56385 0.0
H679 H 0.31575 0.38435 0.49399 0.0
Eu680 Eu 0.89508 0.70023 0.52022 0.0
Eu681 Eu 0.84082 0.79513 0.53897 0.0
C682 C 0.89507 0.74842 0.60523 0.0
C683 C 0.97148 0.58467 0.5109 0.0
C684 C 0.94333 0.54839 0.54332 0.0
C685 C 1.04373 0.53459 0.50722 0.0
C686 C 0.96331 0.50359 0.5567 0.0
C687 C 1.02284 0.57851 0.49352 0.0
C688 C 1.0129 0.49516 0.53845 0.0
C689 C 0.95258 0.63348 0.49647 0.0
O690 O 0.95522 0.85209 0.54612 0.0
O691 O 0.96507 0.80076 0.49677 0.0
C692 C 0.99374 0.84869 0.52068 0.0
O693 O 0.8329 0.73893 0.48847 0.0
O694 O 0.79605 0.85495 0.55767 0.0
O695 O 0.84357 0.87194 0.50379 0.0
O696 O 0.83299 0.73723 0.48758 0.0
C697 C 0.79671 0.73237 0.4588 0.0
O698 O 0.7961 0.62436 0.54293 0.0
O699 O 0.74448 0.68932 0.54152 0.0
O700 O 0.86228 0.77887 0.59511 0.0
O701 O 0.8886 0.61343 0.49076 0.0
O702 O 0.98469 0.69278 0.51179 0.0
O703 O 0.91556 0.71781 0.58202 0.0
C704 C 0.85403 0.96613 0.5325 0.0
C705 C 0.91513 0.99915 0.55205 0.0
C706 C 0.87772 0.07236 0.50631 0.0
C707 C 0.95739 0.06918 0.54874 0.0
C708 C 0.8354 1.00338 0.51012 0.0
C709 C 0.93957 0.10618 0.52513 0.0
C710 C 0.81668 0.89292 0.5282 0.0
C711 C 0.74184 0.62985 0.54397 0.0
H712 H 0.9047 0.55337 0.55772 0.0
H713 H 0.08013 0.52759 0.49176 0.0
H714 H 0.93732 0.47265 0.58028 0.0
H715 H 1.04542 0.60647 0.46866 0.0
H716 H 0.93114 0.97054 0.56869 0.0
H717 H 0.8617 0.09897 0.4882 0.0
H718 H 1.00443 0.09391 0.56377 0.0
H719 H 0.78942 0.97859 0.49411 0.0
loop_
_geom_bond_atom_site_label_1
_geom_bond_atom_site_label_2
_geom_bond_distance
_geom_bond_site_symmetry_2
_ccdc_geom_bond_type
Eu0 C9 2.828 . S
Eu0 O11 2.392 1_545 S
Eu0 O13 2.418 . S
Eu0 O18 2.373 . S
Eu0 O21 2.488 . S
Eu0 O22 2.471 . S
Eu0 O23 2.349 . S
Eu1 O10 2.373 . S
Eu1 O14 2.488 . S
Eu1 O15 2.471 . S
Eu1 O16 2.349 . S
Eu1 O19 2.392 1_565 S
Eu1 O20 2.418 . S
Eu1 C30 2.828 . S
C2 O20 1.244 1_545 S
C2 O23 1.265 . S
C3 C4 1.379 . S
C3 C7 1.373 . S
C3 C9 1.505 . S
C4 C3 1.379 . S
C4 C6 1.369 . S
C4 H32 0.930 . S
C5 C7 1.383 . S
C5 C8 1.382 . S
C5 H33 0.930 . S
C6 C4 1.369 . S
C6 C8 1.392 . S
C6 H34 0.930 . S
C7 C3 1.373 . S
C7 C5 1.383 . S
C7 H35 0.931 . S
C8 C5 1.382 . S
C8 C6 1.392 . S
C9 Eu0 2.828 . S
C9 C3 1.505 . S
C9 O21 1.249 . S
C9 O22 1.244 . S
O10 Eu1 2.373 . S
O10 C12 1.258 . S
O11 Eu0 2.392 1_565 S
O11 C12 1.242 . S
C12 O10 1.258 . S
C12 O11 1.242 . S
O13 Eu0 2.418 . S
O13 C17 1.244 . S
O14 Eu1 2.488 . S
O14 C30 1.249 . S
O15 Eu1 2.471 . S
O15 C30 1.244 . S
O16 Eu1 2.349 . S
O16 C17 1.265 1_565 S
C17 O13 1.244 . S
C17 O16 1.265 1_545 S
O18 Eu0 2.373 . S
O18 C31 1.258 . S
O19 Eu1 2.392 1_545 S
O19 C31 1.242 . S
O20 Eu1 2.418 . S
O20 C2 1.244 1_565 S
O21 Eu0 2.488 . S
O21 C9 1.249 . S
O22 Eu0 2.471 . S
O22 C9 1.244 . S
O23 Eu0 2.349 . S
O23 C2 1.265 . S
C24 C25 1.379 . S
C24 C28 1.373 . S
C24 C30 1.505 . S
C25 C24 1.379 . S
C25 C27 1.369 . S
C25 H36 0.930 . S
C26 C28 1.383 . S
C26 C29 1.382 . S
C26 H37 0.930 . S
C27 C25 1.369 . S
C27 C29 1.392 . S
C27 H38 0.930 . S
C28 C24 1.373 . S
C28 C26 1.383 . S
C28 H39 0.931 . S
C29 C26 1.382 . S
C29 C27 1.392 . S
C30 Eu1 2.828 . S
C30 O14 1.249 . S
C30 O15 1.244 . S
C30 C24 1.505 . S
C31 O18 1.258 . S
C31 O19 1.242 . S
H32 C4 0.930 . S
H33 C5 0.930 . S
H34 C6 0.930 . S
H35 C7 0.931 . S
H36 C25 0.930 . S
H37 C26 0.930 . S
H38 C27 0.930 . S
H39 C28 0.931 . S
Eu40 C49 2.828 . S
Eu40 O51 2.392 1_655 S
Eu40 O53 2.418 1_655 S
Eu40 O58 2.373 . S
Eu40 O61 2.488 . S
Eu40 O62 2.471 . S
Eu40 O63 2.349 1_655 S
Eu41 O50 2.373 . S
Eu41 O54 2.488 . S
Eu41 O55 2.471 . S
Eu41 O56 2.349 . S
Eu41 O59 2.392 1_455 S
Eu41 O60 2.418 . S
Eu41 C70 2.828 . S
C42 O60 1.244 . S
C42 O63 1.265 . S
C43 C44 1.379 . S
C43 C47 1.373 . S
C43 C49 1.505 . S
C44 C43 1.379 . S
C44 C46 1.369 . S
C44 H72 0.930 . S
C45 C47 1.383 . S
C45 C48 1.382 . S
C45 H73 0.930 . S
C46 C44 1.369 . S
C46 C48 1.392 . S
C46 H74 0.930 . S
C47 C43 1.373 . S
C47 C45 1.383 . S
C47 H75 0.931 . S
C48 C45 1.382 . S
C48 C46 1.392 . S
C49 Eu40 2.828 . S
C49 C43 1.505 . S
C49 O61 1.249 . S
C49 O62 1.244 . S
O50 Eu41 2.373 . S
O50 C52 1.258 . S
O51 Eu40 2.392 1_455 S
O51 C52 1.242 . S
C52 O50 1.258 . S
C52 O51 1.242 . S
O53 Eu40 2.418 1_455 S
O53 C57 1.244 . S
O54 Eu41 2.488 . S
O54 C70 1.249 . S
O55 Eu41 2.471 . S
O55 C70 1.244 . S
O56 Eu41 2.349 . S
O56 C57 1.265 . S
C57 O53 1.244 . S
C57 O56 1.265 . S
O58 Eu40 2.373 . S
O58 C71 1.258 . S
O59 Eu41 2.392 1_655 S
O59 C71 1.242 . S
O60 Eu41 2.418 . S
O60 C42 1.244 . S
O61 Eu40 2.488 . S
O61 C49 1.249 . S
O62 Eu40 2.471 . S
O62 C49 1.244 . S
O63 Eu40 2.349 1_455 S
O63 C42 1.265 . S
C64 C65 1.379 . S
C64 C68 1.373 . S
C64 C70 1.505 . S
C65 C64 1.379 . S
C65 C67 1.369 . S
C65 H76 0.930 . S
C66 C68 1.383 . S
C66 C69 1.382 . S
C66 H77 0.930 . S
C67 C65 1.369 . S
C67 C69 1.392 . S
C67 H78 0.930 . S
C68 C64 1.373 . S
C68 C66 1.383 . S
C68 H79 0.931 . S
C69 C66 1.382 . S
C69 C67 1.392 . S
C70 Eu41 2.828 . S
C70 O54 1.249 . S
C70 O55 1.244 . S
C70 C64 1.505 . S
C71 O58 1.258 . S
C71 O59 1.242 . S
H72 C44 0.930 . S
H73 C45 0.930 . S
H74 C46 0.930 . S
H75 C47 0.931 . S
H76 C65 0.930 . S
H77 C66 0.930 . S
H78 C67 0.930 . S
H79 C68 0.931 . S
Eu80 C89 2.828 . S
Eu80 O91 2.392 . S
Eu80 O93 2.418 . S
Eu80 O98 2.373 . S
Eu80 O101 2.488 . S
Eu80 O102 2.471 . S
Eu80 O103 2.349 . S
Eu81 O90 2.373 . S
Eu81 O94 2.488 . S
Eu81 O95 2.471 . S
Eu81 O96 2.349 . S
Eu81 O99 2.392 . S
Eu81 O100 2.418 . S
Eu81 C110 2.828 . S
C82 O100 1.244 . S
C82 O103 1.265 . S
C83 C84 1.379 . S
C83 C87 1.373 . S
C83 C89 1.505 . S
C84 C83 1.379 . S
C84 C86 1.369 . S
C84 H112 0.930 . S
C85 C87 1.383 . S
C85 C88 1.382 . S
C85 H113 0.930 . S
C86 C84 1.369 . S
C86 C88 1.392 . S
C86 H114 0.930 . S
C87 C83 1.373 . S
C87 C85 1.383 . S
C87 H115 0.931 . S
C88 C85 1.382 . S
C88 C86 1.392 . S
C89 Eu80 2.828 . S
C89 C83 1.505 . S
C89 O101 1.249 . S
C89 O102 1.244 . S
O90 Eu81 2.373 . S
O90 C92 1.258 . S
O91 Eu80 2.392 . S
O91 C92 1.242 . S
C92 O90 1.258 . S
C92 O91 1.242 . S
O93 Eu80 2.418 . S
O93 C97 1.244 . S
O94 Eu81 2.488 . S
O94 C110 1.249 . S
O95 Eu81 2.471 . S
O95 C110 1.244 . S
O96 Eu81 2.349 . S
O96 C97 1.265 . S
C97 O93 1.244 . S
C97 O96 1.265 . S
O98 Eu80 2.373 . S
O98 C111 1.258 . S
O99 Eu81 2.392 . S
O99 C111 1.242 . S
O100 Eu81 2.418 . S
O100 C82 1.244 . S
O101 Eu80 2.488 . S
O101 C89 1.249 . S
O102 Eu80 2.471 . S
O102 C89 1.244 . S
O103 Eu80 2.349 . S
O103 C82 1.265 . S
C104 C105 1.379 . S
C104 C108 1.373 . S
C104 C110 1.505 . S
C105 C104 1.379 . S
C105 C107 1.369 . S
C105 H116 0.930 . S
C106 C108 1.383 . S
C106 C109 1.382 . S
C106 H117 0.930 . S
C107 C105 1.369 . S
C107 C109 1.392 . S
C107 H118 0.930 . S
C108 C104 1.373 . S
C108 C106 1.383 . S
C108 H119 0.931 . S
C109 C106 1.382 . S
C109 C107 1.392 . S
C110 Eu81 2.828 . S
C110 O94 1.249 . S
C110 O95 1.244 . S
C110 C104 1.505 . S
C111 O98 1.258 . S
C111 O99 1.242 . S
H112 C84 0.930 . S
H113 C85 0.930 . S
H114 C86 0.930 . S
H115 C87 0.931 . S
H116 C105 0.930 . S
H117 C106 0.930 . S
H118 C107 0.930 . S
H119 C108 0.931 . S
Eu120 C129 2.828 . S
Eu120 O131 2.392 1_455 S
Eu120 O133 2.418 . S
Eu120 O138 2.373 . S
Eu120 O141 2.488 . S
Eu120 O142 2.471 . S
Eu120 O143 2.349 . S
Eu121 O130 2.373 . S
Eu121 O134 2.488 . S
Eu121 O135 2.471 . S
Eu121 O136 2.349 . S
Eu121 O139 2.392 1_655 S
Eu121 O140 2.418 . S
Eu121 C150 2.828 . S
C122 O140 1.244 1_455 S
C122 O143 1.265 . S
C123 C124 1.379 . S
C123 C127 1.373 . S
C123 C129 1.505 . S
C124 C123 1.379 . S
C124 C126 1.369 . S
C124 H152 0.930 . S
C125 C127 1.383 . S
C125 C128 1.382 . S
C125 H153 0.930 . S
C126 C124 1.369 . S
C126 C128 1.392 . S
C126 H154 0.930 . S
C127 C123 1.373 . S
C127 C125 1.383 . S
C127 H155 0.931 . S
C128 C125 1.382 . S
C128 C126 1.392 . S
C129 Eu120 2.828 . S
C129 C123 1.505 . S
C129 O141 1.249 . S
C129 O142 1.244 . S
O130 Eu121 2.373 . S
O130 C132 1.258 . S
O131 Eu120 2.392 1_655 S
O131 C132 1.242 . S
C132 O130 1.258 . S
C132 O131 1.242 . S
O133 Eu120 2.418 . S
O133 C137 1.244 . S
O134 Eu121 2.488 . S
O134 C150 1.249 . S
O135 Eu121 2.471 . S
O135 C150 1.244 . S
O136 Eu121 2.349 . S
O136 C137 1.265 1_655 S
C137 O133 1.244 . S
C137 O136 1.265 1_455 S
O138 Eu120 2.373 . S
O138 C151 1.258 . S
O139 Eu121 2.392 1_455 S
O139 C151 1.242 . S
O140 Eu121 2.418 . S
O140 C122 1.244 1_655 S
O141 Eu120 2.488 . S
O141 C129 1.249 . S
O142 Eu120 2.471 . S
O142 C129 1.244 . S
O143 Eu120 2.349 . S
O143 C122 1.265 . S
C144 C145 1.379 . S
C144 C148 1.373 . S
C144 C150 1.505 . S
C145 C144 1.379 . S
C145 C147 1.369 . S
C145 H156 0.930 . S
C146 C148 1.383 . S
C146 C149 1.382 . S
C146 H157 0.930 . S
C147 C145 1.369 . S
C147 C149 1.392 . S
C147 H158 0.930 . S
C148 C144 1.373 . S
C148 C146 1.383 . S
C148 H159 0.931 . S
C149 C146 1.382 . S
C149 C147 1.392 . S
C150 Eu121 2.828 . S
C150 O134 1.249 . S
C150 O135 1.244 . S
C150 C144 1.505 . S
C151 O138 1.258 . S
C151 O139 1.242 . S
H152 C124 0.930 . S
H153 C125 0.930 . S
H154 C126 0.930 . S
H155 C127 0.931 . S
H156 C145 0.930 . S
H157 C146 0.930 . S
H158 C147 0.930 . S
H159 C148 0.931 . S
Eu160 C169 2.828 . S
Eu160 O171 2.392 . S
Eu160 O173 2.418 . S
Eu160 O178 2.373 . S
Eu160 O181 2.488 . S
Eu160 O182 2.471 . S
Eu160 O183 2.349 . S
Eu161 O170 2.373 . S
Eu161 O174 2.488 . S
Eu161 O175 2.471 . S
Eu161 O176 2.349 . S
Eu161 O179 2.392 . S
Eu161 O180 2.418 . S
Eu161 C190 2.828 . S
C162 O180 1.244 . S
C162 O183 1.265 . S
C163 C164 1.379 . S
C163 C167 1.373 . S
C163 C169 1.505 . S
C164 C163 1.379 . S
C164 C166 1.369 . S
C164 H192 0.930 . S
C165 C167 1.383 . S
C165 C168 1.382 . S
C165 H193 0.930 . S
C166 C164 1.369 . S
C166 C168 1.392 . S
C166 H194 0.930 . S
C167 C163 1.373 . S
C167 C165 1.383 . S
C167 H195 0.931 . S
C168 C165 1.382 . S
C168 C166 1.392 . S
C169 Eu160 2.828 . S
C169 C163 1.505 . S
C169 O181 1.249 . S
C169 O182 1.244 . S
O170 Eu161 2.373 . S
O170 C172 1.258 . S
O171 Eu160 2.392 . S
O171 C172 1.242 . S
C172 O170 1.258 . S
C172 O171 1.242 . S
O173 Eu160 2.418 . S
O173 C177 1.244 . S
O174 Eu161 2.488 . S
O174 C190 1.249 . S
O175 Eu161 2.471 . S
O175 C190 1.244 . S
O176 Eu161 2.349 . S
O176 C177 1.265 . S
C177 O173 1.244 . S
C177 O176 1.265 . S
O178 Eu160 2.373 . S
O178 C191 1.258 . S
O179 Eu161 2.392 . S
O179 C191 1.242 . S
O180 Eu161 2.418 . S
O180 C162 1.244 . S
O181 Eu160 2.488 . S
O181 C169 1.249 . S
O182 Eu160 2.471 . S
O182 C169 1.244 . S
O183 Eu160 2.349 . S
O183 C162 1.265 . S
C184 C185 1.379 . S
C184 C188 1.373 . S
C184 C190 1.505 . S
C185 C184 1.379 . S
C185 C187 1.369 . S
C185 H196 0.930 . S
C186 C188 1.383 . S
C186 C189 1.382 . S
C186 H197 0.930 . S
C187 C185 1.369 . S
C187 C189 1.392 . S
C187 H198 0.930 . S
C188 C184 1.373 . S
C188 C186 1.383 . S
C188 H199 0.931 . S
C189 C186 1.382 . S
C189 C187 1.392 . S
C190 Eu161 2.828 . S
C190 O174 1.249 . S
C190 O175 1.244 . S
C190 C184 1.505 . S
C191 O178 1.258 . S
C191 O179 1.242 . S
H192 C164 0.930 . S
H193 C165 0.930 . S
H194 C166 0.930 . S
H195 C167 0.931 . S
H196 C185 0.930 . S
H197 C186 0.930 . S
H198 C187 0.930 . S
H199 C188 0.931 . S
Eu200 C209 2.828 . S
Eu200 O211 2.392 1_565 S
Eu200 O213 2.418 1_565 S
Eu200 O218 2.373 . S
Eu200 O221 2.488 . S
Eu200 O222 2.471 . S
Eu200 O223 2.349 1_565 S
Eu201 O210 2.373 . S
Eu201 O214 2.488 . S
Eu201 O215 2.471 . S
Eu201 O216 2.349 . S
Eu201 O219 2.392 1_545 S
Eu201 O220 2.418 . S
Eu201 C230 2.828 . S
C202 O220 1.244 . S
C202 O223 1.265 . S
C203 C204 1.379 . S
C203 C207 1.373 . S
C203 C209 1.505 . S
C204 C203 1.379 . S
C204 C206 1.369 . S
C204 H232 0.930 . S
C205 C207 1.383 . S
C205 C208 1.382 . S
C205 H233 0.930 . S
C206 C204 1.369 . S
C206 C208 1.392 . S
C206 H234 0.930 . S
C207 C203 1.373 . S
C207 C205 1.383 . S
C207 H235 0.931 . S
C208 C205 1.382 . S
C208 C206 1.392 . S
C209 Eu200 2.828 . S
C209 C203 1.505 . S
C209 O221 1.249 . S
C209 O222 1.244 . S
O210 Eu201 2.373 . S
O210 C212 1.258 . S
O211 Eu200 2.392 1_545 S
O211 C212 1.242 . S
C212 O210 1.258 . S
C212 O211 1.242 . S
O213 Eu200 2.418 1_545 S
O213 C217 1.244 . S
O214 Eu201 2.488 . S
O214 C230 1.249 . S
O215 Eu201 2.471 . S
O215 C230 1.244 . S
O216 Eu201 2.349 . S
O216 C217 1.265 . S
C217 O213 1.244 . S
C217 O216 1.265 . S
O218 Eu200 2.373 . S
O218 C231 1.258 . S
O219 Eu201 2.392 1_565 S
O219 C231 1.242 . S
O220 Eu201 2.418 . S
O220 C202 1.244 . S
O221 Eu200 2.488 . S
O221 C209 1.249 . S
O222 Eu200 2.471 . S
O222 C209 1.244 . S
O223 Eu200 2.349 1_545 S
O223 C202 1.265 . S
C224 C225 1.379 . S
C224 C228 1.373 . S
C224 C230 1.505 . S
C225 C224 1.379 . S
C225 C227 1.369 . S
C225 H236 0.930 . S
C226 C228 1.383 . S
C226 C229 1.382 . S
C226 H237 0.930 . S
C227 C225 1.369 . S
C227 C229 1.392 . S
C227 H238 0.930 . S
C228 C224 1.373 . S
C228 C226 1.383 . S
C228 H239 0.931 . S
C229 C226 1.382 . S
C229 C227 1.392 . S
C230 Eu201 2.828 . S
C230 O214 1.249 . S
C230 O215 1.244 . S
C230 C224 1.505 . S
C231 O218 1.258 . S
C231 O219 1.242 . S
H232 C204 0.930 . S
H233 C205 0.930 . S
H234 C206 0.930 . S
H235 C207 0.931 . S
H236 C225 0.930 . S
H237 C226 0.930 . S
H238 C227 0.930 . S
H239 C228 0.931 . S
Eu240 C249 2.828 . S
Eu240 O251 2.392 . S
Eu240 O253 2.418 . S
Eu240 O258 2.373 . S
Eu240 O261 2.488 . S
Eu240 O262 2.471 . S
Eu240 O263 2.349 . S
Eu241 O250 2.373 . S
Eu241 O254 2.488 1_455 S
Eu241 O255 2.471 1_455 S
Eu241 O256 2.349 . S
Eu241 O259 2.392 . S
Eu241 O260 2.418 . S
Eu241 C270 2.828 1_455 S
C242 O260 1.244 . S
C242 O263 1.265 . S
C243 C244 1.379 . S
C243 C247 1.373 . S
C243 C249 1.505 . S
C244 C243 1.379 . S
C244 C246 1.369 . S
C244 H272 0.930 . S
C245 C247 1.383 . S
C245 C248 1.382 . S
C245 H273 0.930 . S
C246 C244 1.369 . S
C246 C248 1.392 . S
C246 H274 0.930 . S
C247 C243 1.373 . S
C247 C245 1.383 . S
C247 H275 0.931 . S
C248 C245 1.382 . S
C248 C246 1.392 . S
C249 Eu240 2.828 . S
C249 C243 1.505 . S
C249 O261 1.249 . S
C249 O262 1.244 . S
O250 Eu241 2.373 . S
O250 C252 1.258 . S
O251 Eu240 2.392 . S
O251 C252 1.242 . S
C252 O250 1.258 . S
C252 O251 1.242 . S
O253 Eu240 2.418 . S
O253 C257 1.244 . S
O254 Eu241 2.488 1_655 S
O254 C270 1.249 . S
O255 Eu241 2.471 1_655 S
O255 C270 1.244 . S
O256 Eu241 2.349 . S
O256 C257 1.265 . S
C257 O253 1.244 . S
C257 O256 1.265 . S
O258 Eu240 2.373 . S
O258 C271 1.258 . S
O259 Eu241 2.392 . S
O259 C271 1.242 . S
O260 Eu241 2.418 . S
O260 C242 1.244 . S
O261 Eu240 2.488 . S
O261 C249 1.249 . S
O262 Eu240 2.471 . S
O262 C249 1.244 . S
O263 Eu240 2.349 . S
O263 C242 1.265 . S
C264 C265 1.379 . S
C264 C268 1.373 . S
C264 C270 1.505 . S
C265 C264 1.379 . S
C265 C267 1.369 . S
C265 H276 0.930 . S
C266 C268 1.383 . S
C266 C269 1.382 . S
C266 H277 0.930 . S
C267 C265 1.369 . S
C267 C269 1.392 . S
C267 H278 0.930 . S
C268 C264 1.373 . S
C268 C266 1.383 . S
C268 H279 0.931 . S
C269 C266 1.382 . S
C269 C267 1.392 . S
C270 Eu241 2.828 1_655 S
C270 O254 1.249 . S
C270 O255 1.244 . S
C270 C264 1.505 . S
C271 O258 1.258 . S
C271 O259 1.242 . S
H272 C244 0.930 . S
H273 C245 0.930 . S
H274 C246 0.930 . S
H275 C247 0.931 . S
H276 C265 0.930 . S
H277 C266 0.930 . S
H278 C267 0.930 . S
H279 C268 0.931 . S
Eu280 C289 2.828 . S
Eu280 O291 2.392 . S
Eu280 O293 2.418 . S
Eu280 O298 2.373 . S
Eu280 O301 2.488 . S
Eu280 O302 2.471 . S
Eu280 O303 2.349 . S
Eu281 O290 2.373 . S
Eu281 O294 2.488 . S
Eu281 O295 2.471 . S
Eu281 O296 2.349 . S
Eu281 O299 2.392 . S
Eu281 O300 2.418 . S
Eu281 C310 2.828 . S
C282 O300 1.244 . S
C282 O303 1.265 . S
C283 C284 1.379 . S
C283 C287 1.373 . S
C283 C289 1.505 . S
C284 C283 1.379 . S
C284 C286 1.369 . S
C284 H312 0.930 . S
C285 C287 1.383 . S
C285 C288 1.382 . S
C285 H313 0.930 . S
C286 C284 1.369 . S
C286 C288 1.392 . S
C286 H314 0.930 . S
C287 C283 1.373 . S
C287 C285 1.383 . S
C287 H315 0.931 . S
C288 C285 1.382 . S
C288 C286 1.392 . S
C289 Eu280 2.828 . S
C289 C283 1.505 . S
C289 O301 1.249 . S
C289 O302 1.244 . S
O290 Eu281 2.373 . S
O290 C292 1.258 . S
O291 Eu280 2.392 . S
O291 C292 1.242 . S
C292 O290 1.258 . S
C292 O291 1.242 . S
O293 Eu280 2.418 . S
O293 C297 1.244 . S
O294 Eu281 2.488 . S
O294 C310 1.249 . S
O295 Eu281 2.471 . S
O295 C310 1.244 . S
O296 Eu281 2.349 . S
O296 C297 1.265 . S
C297 O293 1.244 . S
C297 O296 1.265 . S
O298 Eu280 2.373 . S
O298 C311 1.258 . S
O299 Eu281 2.392 . S
O299 C311 1.242 . S
O300 Eu281 2.418 . S
O300 C282 1.244 . S
O301 Eu280 2.488 . S
O301 C289 1.249 . S
O302 Eu280 2.471 . S
O302 C289 1.244 . S
O303 Eu280 2.349 . S
O303 C282 1.265 . S
C304 C305 1.379 . S
C304 C308 1.373 . S
C304 C310 1.505 . S
C305 C304 1.379 . S
C305 C307 1.369 1_655 S
C305 H316 0.930 . S
C306 C308 1.383 1_455 S
C306 C309 1.382 . S
C306 H317 0.930 . S
C307 C305 1.369 1_455 S
C307 C309 1.392 . S
C307 H318 0.930 . S
C308 C304 1.373 . S
C308 C306 1.383 1_655 S
C308 H319 0.931 . S
C309 C306 1.382 . S
C309 C307 1.392 . S
C310 Eu281 2.828 . S
C310 O294 1.249 . S
C310 O295 1.244 . S
C310 C304 1.505 . S
C311 O298 1.258 . S
C311 O299 1.242 . S
H312 C284 0.930 . S
H313 C285 0.930 . S
H314 C286 0.930 . S
H315 C287 0.931 . S
H316 C305 0.930 . S
H317 C306 0.930 . S
H318 C307 0.930 . S
H319 C308 0.931 . S
Eu320 C329 2.828 . S
Eu320 O331 2.392 . S
Eu320 O333 2.418 . S
Eu320 O338 2.373 . S
Eu320 O341 2.488 . S
Eu320 O342 2.471 . S
Eu320 O343 2.349 . S
Eu321 O330 2.373 . S
Eu321 O334 2.488 1_565 S
Eu321 O335 2.471 1_565 S
Eu321 O336 2.349 . S
Eu321 O339 2.392 . S
Eu321 O340 2.418 . S
Eu321 C350 2.828 1_565 S
C322 O340 1.244 . S
C322 O343 1.265 . S
C323 C324 1.379 . S
C323 C327 1.373 . S
C323 C329 1.505 . S
C324 C323 1.379 . S
C324 C326 1.369 . S
C324 H352 0.930 . S
C325 C327 1.383 . S
C325 C328 1.382 . S
C325 H353 0.930 . S
C326 C324 1.369 . S
C326 C328 1.392 . S
C326 H354 0.930 . S
C327 C323 1.373 . S
C327 C325 1.383 . S
C327 H355 0.931 . S
C328 C325 1.382 . S
C328 C326 1.392 . S
C329 Eu320 2.828 . S
C329 C323 1.505 . S
C329 O341 1.249 . S
C329 O342 1.244 . S
O330 Eu321 2.373 . S
O330 C332 1.258 . S
O331 Eu320 2.392 . S
O331 C332 1.242 . S
C332 O330 1.258 . S
C332 O331 1.242 . S
O333 Eu320 2.418 . S
O333 C337 1.244 . S
O334 Eu321 2.488 1_545 S
O334 C350 1.249 . S
O335 Eu321 2.471 1_545 S
O335 C350 1.244 . S
O336 Eu321 2.349 . S
O336 C337 1.265 . S
C337 O333 1.244 . S
C337 O336 1.265 . S
O338 Eu320 2.373 . S
O338 C351 1.258 . S
O339 Eu321 2.392 . S
O339 C351 1.242 . S
O340 Eu321 2.418 . S
O340 C322 1.244 . S
O341 Eu320 2.488 . S
O341 C329 1.249 . S
O342 Eu320 2.471 . S
O342 C329 1.244 . S
O343 Eu320 2.349 . S
O343 C322 1.265 . S
C344 C345 1.379 . S
C344 C348 1.373 . S
C344 C350 1.505 . S
C345 C344 1.379 . S
C345 C347 1.369 . S
C345 H356 0.930 . S
C346 C348 1.383 . S
C346 C349 1.382 . S
C346 H357 0.930 . S
C347 C345 1.369 . S
C347 C349 1.392 . S
C347 H358 0.930 . S
C348 C344 1.373 . S
C348 C346 1.383 . S
C348 H359 0.931 . S
C349 C346 1.382 . S
C349 C347 1.392 . S
C350 Eu321 2.828 1_545 S
C350 O334 1.249 . S
C350 O335 1.244 . S
C350 C344 1.505 . S
C351 O338 1.258 . S
C351 O339 1.242 . S
H352 C324 0.930 . S
H353 C325 0.930 . S
H354 C326 0.930 . S
H355 C327 0.931 . S
H356 C345 0.930 . S
H357 C346 0.930 . S
H358 C347 0.930 . S
H359 C348 0.931 . S
Eu360 C369 2.828 1_565 S
Eu360 O371 2.392 . S
Eu360 O373 2.418 . S
Eu360 O378 2.373 . S
Eu360 O381 2.488 . S
Eu360 O382 2.471 . S
Eu360 O383 2.349 . S
Eu361 O370 2.373 . S
Eu361 O374 2.488 . S
Eu361 O375 2.471 . S
Eu361 O376 2.349 . S
Eu361 O379 2.392 . S
Eu361 O380 2.418 . S
Eu361 C390 2.828 . S
C362 O380 1.244 . S
C362 O383 1.265 . S
C363 C364 1.379 . S
C363 C367 1.373 . S
C363 C369 1.505 . S
C364 C363 1.379 . S
C364 C366 1.359 1_655 S
C364 H392 0.930 . S
C365 C367 1.383 . S
C365 C368 1.382 1_655 S
C365 H393 0.930 1_655 S
C366 C364 1.359 1_455 S
C366 C368 1.395 . S
C366 H394 0.938 . S
C367 C363 1.373 . S
C367 C365 1.383 . S
C367 H395 0.931 . S
C368 C365 1.382 1_455 S
C368 C366 1.395 . S
C369 Eu360 2.828 1_545 S
C369 C363 1.505 . S
C369 O381 1.249 1_545 S
C369 O382 1.244 1_545 S
O370 Eu361 2.373 . S
O370 C372 1.258 . S
O371 Eu360 2.392 . S
O371 C372 1.242 . S
C372 O370 1.258 . S
C372 O371 1.242 . S
O373 Eu360 2.418 . S
O373 C377 1.244 . S
O374 Eu361 2.488 . S
O374 C390 1.249 . S
O375 Eu361 2.471 . S
O375 C390 1.244 . S
O376 Eu361 2.349 . S
O376 C377 1.265 . S
C377 O373 1.244 . S
C377 O376 1.265 . S
O378 Eu360 2.373 . S
O378 C391 1.258 . S
O379 Eu361 2.392 . S
O379 C391 1.242 . S
O380 Eu361 2.418 . S
O380 C362 1.244 . S
O381 Eu360 2.488 . S
O381 C369 1.249 1_565 S
O382 Eu360 2.471 . S
O382 C369 1.244 1_565 S
O383 Eu360 2.349 . S
O383 C362 1.265 . S
C384 C385 1.379 . S
C384 C388 1.373 . S
C384 C390 1.505 . S
C385 C384 1.379 . S
C385 C387 1.369 . S
C385 H396 0.930 . S
C386 C388 1.383 . S
C386 C389 1.382 . S
C386 H397 0.930 . S
C387 C385 1.369 . S
C387 C389 1.392 . S
C387 H398 0.930 . S
C388 C384 1.373 . S
C388 C386 1.383 . S
C388 H399 0.931 . S
C389 C386 1.382 . S
C389 C387 1.392 . S
C390 Eu361 2.828 . S
C390 O374 1.249 . S
C390 O375 1.244 . S
C390 C384 1.505 . S
C391 O378 1.258 . S
C391 O379 1.242 . S
H392 C364 0.930 . S
H393 C365 0.930 1_455 S
H394 C366 0.938 . S
H395 C367 0.931 . S
H396 C385 0.930 . S
H397 C386 0.930 . S
H398 C387 0.930 . S
H399 C388 0.931 . S
Eu400 C409 2.828 . S
Eu400 O411 2.392 . S
Eu400 O413 2.418 . S
Eu400 O418 2.373 . S
Eu400 O421 2.488 . S
Eu400 O422 2.471 . S
Eu400 O423 2.349 . S
Eu401 O410 2.373 . S
Eu401 O414 2.488 . S
Eu401 O415 2.471 . S
Eu401 O416 2.349 . S
Eu401 O419 2.392 . S
Eu401 O420 2.418 . S
Eu401 C430 2.828 . S
C402 O420 1.244 . S
C402 O423 1.265 . S
C403 C404 1.379 . S
C403 C407 1.373 . S
C403 C409 1.505 1_655 S
C404 C403 1.379 . S
C404 C406 1.369 . S
C404 H432 0.930 . S
C405 C407 1.383 . S
C405 C408 1.382 . S
C405 H433 0.930 . S
C406 C404 1.369 . S
C406 C408 1.392 . S
C406 H434 0.930 . S
C407 C403 1.373 . S
C407 C405 1.383 . S
C407 H435 0.931 . S
C408 C405 1.382 . S
C408 C406 1.392 . S
C409 Eu400 2.828 . S
C409 C403 1.505 1_455 S
C409 O421 1.249 . S
C409 O422 1.244 . S
O410 Eu401 2.373 . S
O410 C412 1.258 . S
O411 Eu400 2.392 . S
O411 C412 1.242 . S
C412 O410 1.258 . S
C412 O411 1.242 . S
O413 Eu400 2.418 . S
O413 C417 1.244 . S
O414 Eu401 2.488 . S
O414 C430 1.249 . S
O415 Eu401 2.471 . S
O415 C430 1.244 . S
O416 Eu401 2.349 . S
O416 C417 1.265 . S
C417 O413 1.244 . S
C417 O416 1.265 . S
O418 Eu400 2.373 . S
O418 C431 1.258 . S
O419 Eu401 2.392 . S
O419 C431 1.242 . S
O420 Eu401 2.418 . S
O420 C402 1.244 . S
O421 Eu400 2.488 . S
O421 C409 1.249 . S
O422 Eu400 2.471 . S
O422 C409 1.244 . S
O423 Eu400 2.349 . S
O423 C402 1.265 . S
C424 C425 1.379 . S
C424 C428 1.373 . S
C424 C430 1.505 . S
C425 C424 1.379 . S
C425 C427 1.369 . S
C425 H436 0.930 . S
C426 C428 1.383 . S
C426 C429 1.382 . S
C426 H437 0.930 . S
C427 C425 1.369 . S
C427 C429 1.392 . S
C427 H438 0.930 . S
C428 C424 1.373 . S
C428 C426 1.383 . S
C428 H439 0.931 . S
C429 C426 1.382 . S
C429 C427 1.392 . S
C430 Eu401 2.828 . S
C430 O414 1.249 . S
C430 O415 1.244 . S
C430 C424 1.505 . S
C431 O418 1.258 . S
C431 O419 1.242 . S
H432 C404 0.930 . S
H433 C405 0.930 . S
H434 C406 0.930 . S
H435 C407 0.931 . S
H436 C425 0.930 . S
H437 C426 0.930 . S
H438 C427 0.930 . S
H439 C428 0.931 . S
Eu440 C449 2.828 . S
Eu440 O451 2.392 . S
Eu440 O453 2.418 . S
Eu440 O458 2.373 . S
Eu440 O461 2.488 . S
Eu440 O462 2.471 . S
Eu440 O463 2.349 . S
Eu441 O450 2.373 . S
Eu441 O454 2.488 . S
Eu441 O455 2.471 . S
Eu441 O456 2.349 . S
Eu441 O459 2.392 . S
Eu441 O460 2.418 . S
Eu441 C470 2.828 . S
C442 O460 1.244 . S
C442 O463 1.265 . S
C443 C444 1.379 . S
C443 C447 1.373 . S
C443 C449 1.505 . S
C444 C443 1.379 . S
C444 C446 1.369 . S
C444 H472 0.930 . S
C445 C447 1.383 . S
C445 C448 1.382 . S
C445 H473 0.930 . S
C446 C444 1.369 . S
C446 C448 1.392 . S
C446 H474 0.930 . S
C447 C443 1.373 . S
C447 C445 1.383 . S
C447 H475 0.931 . S
C448 C445 1.382 . S
C448 C446 1.392 . S
C449 Eu440 2.828 . S
C449 C443 1.505 . S
C449 O461 1.249 . S
C449 O462 1.244 . S
O450 Eu441 2.373 . S
O450 C452 1.258 . S
O451 Eu440 2.392 . S
O451 C452 1.242 . S
C452 O450 1.258 . S
C452 O451 1.242 . S
O453 Eu440 2.418 . S
O453 C457 1.244 . S
O454 Eu441 2.488 . S
O454 C470 1.249 . S
O455 Eu441 2.471 . S
O455 C470 1.244 . S
O456 Eu441 2.349 . S
O456 C457 1.265 . S
C457 O453 1.244 . S
C457 O456 1.265 . S
O458 Eu440 2.373 . S
O458 C471 1.258 . S
O459 Eu441 2.392 . S
O459 C471 1.242 . S
O460 Eu441 2.418 . S
O460 C442 1.244 . S
O461 Eu440 2.488 . S
O461 C449 1.249 . S
O462 Eu440 2.471 . S
O462 C449 1.244 . S
O463 Eu440 2.349 . S
O463 C442 1.265 . S
C464 C465 1.379 . S
C464 C468 1.373 . S
C464 C470 1.505 . S
C465 C464 1.379 . S
C465 C467 1.369 . S
C465 H476 0.930 . S
C466 C468 1.383 . S
C466 C469 1.382 . S
C466 H477 0.930 . S
C467 C465 1.369 . S
C467 C469 1.392 . S
C467 H478 0.930 . S
C468 C464 1.373 . S
C468 C466 1.383 . S
C468 H479 0.931 . S
C469 C466 1.382 . S
C469 C467 1.392 . S
C470 Eu441 2.828 . S
C470 O454 1.249 . S
C470 O455 1.244 . S
C470 C464 1.505 . S
C471 O458 1.258 . S
C471 O459 1.242 . S
H472 C444 0.930 . S
H473 C445 0.930 . S
H474 C446 0.930 . S
H475 C447 0.931 . S
H476 C465 0.930 . S
H477 C466 0.930 . S
H478 C467 0.930 . S
H479 C468 0.931 . S
Eu480 C489 2.828 1_655 S
Eu480 O491 2.392 . S
Eu480 O493 2.418 . S
Eu480 O498 2.373 . S
Eu480 O501 2.488 . S
Eu480 O502 2.471 . S
Eu480 O503 2.349 . S
Eu481 O490 2.373 . S
Eu481 O494 2.488 . S
Eu481 O495 2.471 . S
Eu481 O496 2.349 . S
Eu481 O499 2.392 . S
Eu481 O500 2.418 . S
Eu481 C510 2.828 . S
C482 O500 1.244 . S
C482 O503 1.265 . S
C483 C484 1.379 . S
C483 C487 1.373 . S
C483 C489 1.505 . S
C484 C483 1.379 . S
C484 C486 1.359 1_565 S
C484 H512 0.930 . S
C485 C487 1.383 . S
C485 C488 1.382 1_565 S
C485 H513 0.930 1_565 S
C486 C484 1.359 1_545 S
C486 C488 1.395 . S
C486 H514 0.938 . S
C487 C483 1.373 . S
C487 C485 1.383 . S
C487 H515 0.931 . S
C488 C485 1.382 1_545 S
C488 C486 1.395 . S
C489 Eu480 2.828 1_455 S
C489 C483 1.505 . S
C489 O501 1.249 1_455 S
C489 O502 1.244 1_455 S
O490 Eu481 2.373 . S
O490 C492 1.258 . S
O491 Eu480 2.392 . S
O491 C492 1.242 . S
C492 O490 1.258 . S
C492 O491 1.242 . S
O493 Eu480 2.418 . S
O493 C497 1.244 . S
O494 Eu481 2.488 . S
O494 C510 1.249 . S
O495 Eu481 2.471 . S
O495 C510 1.244 . S
O496 Eu481 2.349 . S
O496 C497 1.265 . S
C497 O493 1.244 . S
C497 O496 1.265 . S
O498 Eu480 2.373 . S
O498 C511 1.258 . S
O499 Eu481 2.392 . S
O499 C511 1.242 . S
O500 Eu481 2.418 . S
O500 C482 1.244 . S
O501 Eu480 2.488 . S
O501 C489 1.249 1_655 S
O502 Eu480 2.471 . S
O502 C489 1.244 1_655 S
O503 Eu480 2.349 . S
O503 C482 1.265 . S
C504 C505 1.379 . S
C504 C508 1.373 . S
C504 C510 1.505 . S
C505 C504 1.379 . S
C505 C507 1.369 . S
C505 H516 0.930 . S
C506 C508 1.383 . S
C506 C509 1.382 . S
C506 H517 0.930 . S
C507 C505 1.369 . S
C507 C509 1.392 . S
C507 H518 0.930 . S
C508 C504 1.373 . S
C508 C506 1.383 . S
C508 H519 0.931 . S
C509 C506 1.382 . S
C509 C507 1.392 . S
C510 Eu481 2.828 . S
C510 O494 1.249 . S
C510 O495 1.244 . S
C510 C504 1.505 . S
C511 O498 1.258 . S
C511 O499 1.242 . S
H512 C484 0.930 . S
H513 C485 0.930 1_545 S
H514 C486 0.938 . S
H515 C487 0.931 . S
H516 C505 0.930 . S
H517 C506 0.930 . S
H518 C507 0.930 . S
H519 C508 0.931 . S
Eu520 C529 2.828 . S
Eu520 O531 2.392 . S
Eu520 O533 2.418 . S
Eu520 O538 2.373 . S
Eu520 O541 2.488 . S
Eu520 O542 2.471 . S
Eu520 O543 2.349 . S
Eu521 O530 2.373 . S
Eu521 O534 2.488 . S
Eu521 O535 2.471 . S
Eu521 O536 2.349 . S
Eu521 O539 2.392 . S
Eu521 O540 2.418 . S
Eu521 C550 2.828 . S
C522 O540 1.244 . S
C522 O543 1.265 . S
C523 C524 1.379 . S
C523 C527 1.373 . S
C523 C529 1.505 . S
C524 C523 1.379 . S
C524 C526 1.369 . S
C524 H552 0.930 . S
C525 C527 1.383 . S
C525 C528 1.382 . S
C525 H553 0.930 . S
C526 C524 1.369 . S
C526 C528 1.392 . S
C526 H554 0.930 . S
C527 C523 1.373 . S
C527 C525 1.383 . S
C527 H555 0.931 . S
C528 C525 1.382 . S
C528 C526 1.392 . S
C529 Eu520 2.828 . S
C529 C523 1.505 . S
C529 O541 1.249 . S
C529 O542 1.244 . S
O530 Eu521 2.373 . S
O530 C532 1.258 . S
O531 Eu520 2.392 . S
O531 C532 1.242 . S
C532 O530 1.258 . S
C532 O531 1.242 . S
O533 Eu520 2.418 . S
O533 C537 1.244 . S
O534 Eu521 2.488 . S
O534 C550 1.249 . S
O535 Eu521 2.471 . S
O535 C550 1.244 . S
O536 Eu521 2.349 . S
O536 C537 1.265 . S
C537 O533 1.244 . S
C537 O536 1.265 . S
O538 Eu520 2.373 . S
O538 C551 1.258 . S
O539 Eu521 2.392 . S
O539 C551 1.242 . S
O540 Eu521 2.418 . S
O540 C522 1.244 . S
O541 Eu520 2.488 . S
O541 C529 1.249 . S
O542 Eu520 2.471 . S
O542 C529 1.244 . S
O543 Eu520 2.349 . S
O543 C522 1.265 . S
C544 C545 1.379 . S
C544 C548 1.373 . S
C544 C550 1.505 . S
C545 C544 1.379 . S
C545 C547 1.369 . S
C545 H556 0.930 . S
C546 C548 1.383 . S
C546 C549 1.382 . S
C546 H557 0.930 . S
C547 C545 1.369 . S
C547 C549 1.392 . S
C547 H558 0.930 . S
C548 C544 1.373 . S
C548 C546 1.383 . S
C548 H559 0.931 . S
C549 C546 1.382 . S
C549 C547 1.392 . S
C550 Eu521 2.828 . S
C550 O534 1.249 . S
C550 O535 1.244 . S
C550 C544 1.505 . S
C551 O538 1.258 . S
C551 O539 1.242 . S
H552 C524 0.930 . S
H553 C525 0.930 . S
H554 C526 0.930 . S
H555 C527 0.931 . S
H556 C545 0.930 . S
H557 C546 0.930 . S
H558 C547 0.930 . S
H559 C548 0.931 . S
Eu560 C569 2.828 . S
Eu560 O571 2.392 . S
Eu560 O573 2.418 . S
Eu560 O578 2.373 . S
Eu560 O581 2.488 . S
Eu560 O582 2.471 . S
Eu560 O583 2.349 . S
Eu561 O570 2.373 . S
Eu561 O574 2.488 . S
Eu561 O575 2.471 . S
Eu561 O576 2.349 . S
Eu561 O579 2.392 . S
Eu561 O580 2.418 . S
Eu561 C590 2.828 . S
C562 O580 1.244 . S
C562 O583 1.265 . S
C563 C564 1.379 . S
C563 C567 1.373 . S
C563 C569 1.505 1_565 S
C564 C563 1.379 . S
C564 C566 1.369 . S
C564 H592 0.930 . S
C565 C567 1.383 . S
C565 C568 1.382 . S
C565 H593 0.930 . S
C566 C564 1.369 . S
C566 C568 1.392 . S
C566 H594 0.930 . S
C567 C563 1.373 . S
C567 C565 1.383 . S
C567 H595 0.931 . S
C568 C565 1.382 . S
C568 C566 1.392 . S
C569 Eu560 2.828 . S
C569 C563 1.505 1_545 S
C569 O581 1.249 . S
C569 O582 1.244 . S
O570 Eu561 2.373 . S
O570 C572 1.258 . S
O571 Eu560 2.392 . S
O571 C572 1.242 . S
C572 O570 1.258 . S
C572 O571 1.242 . S
O573 Eu560 2.418 . S
O573 C577 1.244 . S
O574 Eu561 2.488 . S
O574 C590 1.249 . S
O575 Eu561 2.471 . S
O575 C590 1.244 . S
O576 Eu561 2.349 . S
O576 C577 1.265 . S
C577 O573 1.244 . S
C577 O576 1.265 . S
O578 Eu560 2.373 . S
O578 C591 1.258 . S
O579 Eu561 2.392 . S
O579 C591 1.242 . S
O580 Eu561 2.418 . S
O580 C562 1.244 . S
O581 Eu560 2.488 . S
O581 C569 1.249 . S
O582 Eu560 2.471 . S
O582 C569 1.244 . S
O583 Eu560 2.349 . S
O583 C562 1.265 . S
C584 C585 1.379 . S
C584 C588 1.373 . S
C584 C590 1.505 . S
C585 C584 1.379 . S
C585 C587 1.369 . S
C585 H596 0.930 . S
C586 C588 1.383 . S
C586 C589 1.382 . S
C586 H597 0.930 . S
C587 C585 1.369 . S
C587 C589 1.392 . S
C587 H598 0.930 . S
C588 C584 1.373 . S
C588 C586 1.383 . S
C588 H599 0.931 . S
C589 C586 1.382 . S
C589 C587 1.392 . S
C590 Eu561 2.828 . S
C590 O574 1.249 . S
C590 O575 1.244 . S
C590 C584 1.505 . S
C591 O578 1.258 . S
C591 O579 1.242 . S
H592 C564 0.930 . S
H593 C565 0.930 . S
H594 C566 0.930 . S
H595 C567 0.931 . S
H596 C585 0.930 . S
H597 C586 0.930 . S
H598 C587 0.930 . S
H599 C588 0.931 . S
Eu600 C609 2.828 . S
Eu600 O611 2.392 . S
Eu600 O613 2.418 . S
Eu600 O618 2.373 . S
Eu600 O621 2.488 . S
Eu600 O622 2.471 . S
Eu600 O623 2.349 . S
Eu601 O610 2.373 . S
Eu601 O614 2.488 1_545 S
Eu601 O615 2.471 1_545 S
Eu601 O616 2.349 . S
Eu601 O619 2.392 . S
Eu601 O620 2.418 . S
Eu601 C630 2.828 1_545 S
C602 O620 1.244 . S
C602 O623 1.265 . S
C603 C604 1.379 . S
C603 C607 1.373 . S
C603 C609 1.505 . S
C604 C603 1.379 . S
C604 C606 1.369 . S
C604 H632 0.930 . S
C605 C607 1.383 . S
C605 C608 1.382 . S
C605 H633 0.930 . S
C606 C604 1.369 . S
C606 C608 1.392 . S
C606 H634 0.930 . S
C607 C603 1.373 . S
C607 C605 1.383 . S
C607 H635 0.931 . S
C608 C605 1.382 . S
C608 C606 1.392 . S
C609 Eu600 2.828 . S
C609 C603 1.505 . S
C609 O621 1.249 . S
C609 O622 1.244 . S
O610 Eu601 2.373 . S
O610 C612 1.258 . S
O611 Eu600 2.392 . S
O611 C612 1.242 . S
C612 O610 1.258 . S
C612 O611 1.242 . S
O613 Eu600 2.418 . S
O613 C617 1.244 . S
O614 Eu601 2.488 1_565 S
O614 C630 1.249 . S
O615 Eu601 2.471 1_565 S
O615 C630 1.244 . S
O616 Eu601 2.349 . S
O616 C617 1.265 . S
C617 O613 1.244 . S
C617 O616 1.265 . S
O618 Eu600 2.373 . S
O618 C631 1.258 . S
O619 Eu601 2.392 . S
O619 C631 1.242 . S
O620 Eu601 2.418 . S
O620 C602 1.244 . S
O621 Eu600 2.488 . S
O621 C609 1.249 . S
O622 Eu600 2.471 . S
O622 C609 1.244 . S
O623 Eu600 2.349 . S
O623 C602 1.265 . S
C624 C625 1.379 . S
C624 C628 1.373 . S
C624 C630 1.505 . S
C625 C624 1.379 . S
C625 C627 1.369 . S
C625 H636 0.930 . S
C626 C628 1.383 . S
C626 C629 1.382 . S
C626 H637 0.930 . S
C627 C625 1.369 . S
C627 C629 1.392 . S
C627 H638 0.930 . S
C628 C624 1.373 . S
C628 C626 1.383 . S
C628 H639 0.931 . S
C629 C626 1.382 . S
C629 C627 1.392 . S
C630 Eu601 2.828 1_565 S
C630 O614 1.249 . S
C630 O615 1.244 . S
C630 C624 1.505 . S
C631 O618 1.258 . S
C631 O619 1.242 . S
H632 C604 0.930 . S
H633 C605 0.930 . S
H634 C606 0.930 . S
H635 C607 0.931 . S
H636 C625 0.930 . S
H637 C626 0.930 . S
H638 C627 0.930 . S
H639 C628 0.931 . S
Eu640 C649 2.828 . S
Eu640 O651 2.392 . S
Eu640 O653 2.418 . S
Eu640 O658 2.373 . S
Eu640 O661 2.488 . S
Eu640 O662 2.471 . S
Eu640 O663 2.349 . S
Eu641 O650 2.373 . S
Eu641 O654 2.488 1_655 S
Eu641 O655 2.471 1_655 S
Eu641 O656 2.349 . S
Eu641 O659 2.392 . S
Eu641 O660 2.418 . S
Eu641 C670 2.828 1_655 S
C642 O660 1.244 . S
C642 O663 1.265 . S
C643 C644 1.379 . S
C643 C647 1.373 . S
C643 C649 1.505 . S
C644 C643 1.379 . S
C644 C646 1.369 . S
C644 H672 0.930 . S
C645 C647 1.383 . S
C645 C648 1.382 . S
C645 H673 0.930 . S
C646 C644 1.369 . S
C646 C648 1.392 . S
C646 H674 0.930 . S
C647 C643 1.373 . S
C647 C645 1.383 . S
C647 H675 0.931 . S
C648 C645 1.382 . S
C648 C646 1.392 . S
C649 Eu640 2.828 . S
C649 C643 1.505 . S
C649 O661 1.249 . S
C649 O662 1.244 . S
O650 Eu641 2.373 . S
O650 C652 1.258 . S
O651 Eu640 2.392 . S
O651 C652 1.242 . S
C652 O650 1.258 . S
C652 O651 1.242 . S
O653 Eu640 2.418 . S
O653 C657 1.244 . S
O654 Eu641 2.488 1_455 S
O654 C670 1.249 . S
O655 Eu641 2.471 1_455 S
O655 C670 1.244 . S
O656 Eu641 2.349 . S
O656 C657 1.265 . S
C657 O653 1.244 . S
C657 O656 1.265 . S
O658 Eu640 2.373 . S
O658 C671 1.258 . S
O659 Eu641 2.392 . S
O659 C671 1.242 . S
O660 Eu641 2.418 . S
O660 C642 1.244 . S
O661 Eu640 2.488 . S
O661 C649 1.249 . S
O662 Eu640 2.471 . S
O662 C649 1.244 . S
O663 Eu640 2.349 . S
O663 C642 1.265 . S
C664 C665 1.379 . S
C664 C668 1.373 . S
C664 C670 1.505 . S
C665 C664 1.379 . S
C665 C667 1.369 . S
C665 H676 0.930 . S
C666 C668 1.383 . S
C666 C669 1.382 . S
C666 H677 0.930 . S
C667 C665 1.369 . S
C667 C669 1.392 . S
C667 H678 0.930 . S
C668 C664 1.373 . S
C668 C666 1.383 . S
C668 H679 0.931 . S
C669 C666 1.382 . S
C669 C667 1.392 . S
C670 Eu641 2.828 1_455 S
C670 O654 1.249 . S
C670 O655 1.244 . S
C670 C664 1.505 . S
C671 O658 1.258 . S
C671 O659 1.242 . S
H672 C644 0.930 . S
H673 C645 0.930 . S
H674 C646 0.930 . S
H675 C647 0.931 . S
H676 C665 0.930 . S
H677 C666 0.930 . S
H678 C667 0.930 . S
H679 C668 0.931 . S
Eu680 C689 2.828 . S
Eu680 O691 2.392 . S
Eu680 O693 2.418 . S
Eu680 O698 2.373 . S
Eu680 O701 2.488 . S
Eu680 O702 2.471 . S
Eu680 O703 2.349 . S
Eu681 O690 2.373 . S
Eu681 O694 2.488 . S
Eu681 O695 2.471 . S
Eu681 O696 2.349 . S
Eu681 O699 2.392 . S
Eu681 O700 2.418 . S
Eu681 C710 2.828 . S
C682 O700 1.244 . S
C682 O703 1.265 . S
C683 C684 1.379 . S
C683 C687 1.373 . S
C683 C689 1.505 . S
C684 C683 1.379 . S
C684 C686 1.369 . S
C684 H712 0.930 . S
C685 C687 1.383 . S
C685 C688 1.382 . S
C685 H713 0.930 . S
C686 C684 1.369 . S
C686 C688 1.392 . S
C686 H714 0.930 . S
C687 C683 1.373 . S
C687 C685 1.383 . S
C687 H715 0.931 . S
C688 C685 1.382 . S
C688 C686 1.392 . S
C689 Eu680 2.828 . S
C689 C683 1.505 . S
C689 O701 1.249 . S
C689 O702 1.244 . S
O690 Eu681 2.373 . S
O690 C692 1.258 . S
O691 Eu680 2.392 . S
O691 C692 1.242 . S
C692 O690 1.258 . S
C692 O691 1.242 . S
O693 Eu680 2.418 . S
O693 C697 1.244 . S
O694 Eu681 2.488 . S
O694 C710 1.249 . S
O695 Eu681 2.471 . S
O695 C710 1.244 . S
O696 Eu681 2.349 . S
O696 C697 1.265 . S
C697 O693 1.244 . S
C697 O696 1.265 . S
O698 Eu680 2.373 . S
O698 C711 1.258 . S
O699 Eu681 2.392 . S
O699 C711 1.242 . S
O700 Eu681 2.418 . S
O700 C682 1.244 . S
O701 Eu680 2.488 . S
O701 C689 1.249 . S
O702 Eu680 2.471 . S
O702 C689 1.244 . S
O703 Eu680 2.349 . S
O703 C682 1.265 . S
C704 C705 1.379 . S
C704 C708 1.373 . S
C704 C710 1.505 . S
C705 C704 1.379 . S
C705 C707 1.369 1_565 S
C705 H716 0.930 . S
C706 C708 1.383 1_545 S
C706 C709 1.382 . S
C706 H717 0.930 . S
C707 C705 1.369 1_545 S
C707 C709 1.392 . S
C707 H718 0.930 . S
C708 C704 1.373 . S
C708 C706 1.383 1_565 S
C708 H719 0.931 . S
C709 C706 1.382 . S
C709 C707 1.392 . S
C710 Eu681 2.828 . S
C710 O694 1.249 . S
C710 O695 1.244 . S
C710 C704 1.505 . S
C711 O698 1.258 . S
C711 O699 1.242 . S
H712 C684 0.930 . S
H713 C685 0.930 . S
H714 C686 0.930 . S
H715 C687 0.931 . S
H716 C705 0.930 . S
H717 C706 0.930 . S
H718 C707 0.930 . S
H719 C708 0.931 . S
C12 C109 1.856 . S
C29 C52 1.857 . S
C69 C92 1.857 . S
C132 C189 1.856 . S
C229 C172 1.857 . S
C212 C149 1.857 . S
C349 C252 1.856 . S
C269 C292 1.856 1_545 S
C332 C309 1.857 . S
C429 C372 1.857 . S
C412 C469 1.857 . S
C389 C452 1.857 . S
C492 C589 1.857 . S
C509 C532 1.857 . S
C549 C572 1.857 . S
C669 C612 1.857 . S
C709 C652 1.857 . S
C629 C692 1.856 1_455 S
C2 C202 1.759 1_554 S
C122 C42 1.759 1_556 S
C162 C82 1.760 1_556 S
C242 C442 1.760 . S
C282 C362 1.760 . S
C402 C322 1.760 . S
C482 C682 1.760 . S
C602 C522 1.760 . S
C642 C562 1.760 . S
C417 C17 4.793 1_565 S
C57 C457 4.794 . S
C377 C97 4.794 . S
C137 C577 4.793 1_455 S
C177 C497 4.794 . S
C537 C217 4.794 . S
C657 C257 4.794 1_655 S
C297 C697 4.794 . S
C337 C617 4.794 1_565 S
C88 C31 2.614 . S
C8 C71 2.614 . S
C111 C48 2.614 . S
C168 C151 2.614 . S
C208 C191 2.614 . S
C231 C128 2.614 . S
C328 C271 2.614 . S
C311 C248 2.614 . S
C288 C351 2.614 . S
C391 C408 2.614 . S
C431 C448 2.614 1_565 S
C368 C471 2.614 . S
C511 C568 2.613 . S
C551 C488 2.614 . S
C528 C591 2.614 1_455 S
C631 C648 2.614 . S
C671 C688 2.614 . S
C608 C711 2.614 . S
