# Generated by pormake.
# Topology uoj, (4)-cn, num edge types: 1
# Building blocks:
#     Node 0, Type 0, BuildingBlock: CEKHIL_clean_sbu_0, # of connection points: 4
#     Node 1, Type 0, BuildingBlock: CEKHIL_clean_sbu_0, # of connection points: 4
#     Node 2, Type 0, BuildingBlock: CEKHIL_clean_sbu_0, # of connection points: 4
#     Node 3, Type 0, BuildingBlock: CEKHIL_clean_sbu_0, # of connection points: 4
#     Node 4, Type 0, BuildingBlock: CEKHIL_clean_sbu_0, # of connection points: 4
#     Node 5, Type 0, BuildingBlock: CEKHIL_clean_sbu_0, # of connection points: 4
#     Node 6, Type 0, BuildingBlock: CEKHIL_clean_sbu_0, # of connection points: 4
#     Node 7, Type 0, BuildingBlock: CEKHIL_clean_sbu_0, # of connection points: 4
#     Edge 8, Type (0, 0), BuildingBlock: KIFKEQ_clean_linker_1, # of connection points: 2
#     Edge 9, Type (0, 0), BuildingBlock: KIFKEQ_clean_linker_1, # of connection points: 2
#     Edge 10, Type (0, 0), BuildingBlock: KIFKEQ_clean_linker_1, # of connection points: 2
#     Edge 11, Type (0, 0), BuildingBlock: KIFKEQ_clean_linker_1, # of connection points: 2
#     Edge 12, Type (0, 0), BuildingBlock: KIFKEQ_clean_linker_1, # of connection points: 2
#     Edge 13, Type (0, 0), BuildingBlock: KIFKEQ_clean_linker_1, # of connection points: 2
#     Edge 14, Type (0, 0), BuildingBlock: KIFKEQ_clean_linker_1, # of connection points: 2
#     Edge 15, Type (0, 0), BuildingBlock: KIFKEQ_clean_linker_1, # of connection points: 2
#     Edge 16, Type (0, 0), BuildingBlock: KIFKEQ_clean_linker_1, # of connection points: 2
#     Edge 17, Type (0, 0), BuildingBlock: KIFKEQ_clean_linker_1, # of connection points: 2
#     Edge 18, Type (0, 0), BuildingBlock: KIFKEQ_clean_linker_1, # of connection points: 2
#     Edge 19, Type (0, 0), BuildingBlock: KIFKEQ_clean_linker_1, # of connection points: 2
#     Edge 20, Type (0, 0), BuildingBlock: KIFKEQ_clean_linker_1, # of connection points: 2
#     Edge 21, Type (0, 0), BuildingBlock: KIFKEQ_clean_linker_1, # of connection points: 2
#     Edge 22, Type (0, 0), BuildingBlock: KIFKEQ_clean_linker_1, # of connection points: 2
#     Edge 23, Type (0, 0), BuildingBlock: KIFKEQ_clean_linker_1, # of connection points: 2
# Relax obj value: 0.110
# Max RMSD: 0.137
# Mean RMSD: 0.134
data_MOF--net-uoj--node1-CEKHIL_clean_sbu_0--edge1-KIFKEQ_clean_linker_1
_symmetry_space_group_name_H-M    P1
_symmetry_Int_Tables_number       1
_symmetry_cell_setting            triclinic
loop_
_symmetry_equiv_pos_as_xyz
'x, y, z'
_cell_length_a     33.587005
_cell_length_b     33.346338
_cell_length_c     35.786249
_cell_angle_alpha  89.998562
_cell_angle_beta   90.027337
_cell_angle_gamma 88.965431
loop_
_atom_site_label
_atom_site_type_symbol
_atom_site_fract_x
_atom_site_fract_y
_atom_site_fract_z
_atom_type_partial_charge
Co0 Co 0.07542 0.28808 0.42756 0.0
O1 O 0.1131 0.31572 0.3972 0.0
O2 O 0.05148 0.30167 0.37997 0.0
C3 C 0.11645 0.23861 0.44677 0.0
O4 O 0.02888 0.25896 0.45108 0.0
Co5 Co 0.08932 0.2821 0.51335 0.0
O6 O 0.0448 0.244 0.5106 0.0
C7 C 0.05885 0.35761 0.48122 0.0
C8 C 0.08547 0.31772 0.37189 0.0
C9 C 0.02168 0.24159 0.48244 0.0
O10 O 0.05634 0.34048 0.44916 0.0
O11 O 0.07362 0.34034 0.51015 0.0
O12 O 0.09929 0.2364 0.41429 0.0
O13 O 0.11182 0.27221 0.46433 0.0
Co14 Co 0.285 0.91943 0.57171 0.0
O15 O 0.23314 0.90019 0.58301 0.0
O16 O 0.2628 0.89354 0.52794 0.0
C17 C 0.31483 0.89671 0.62428 0.0
O18 O 0.33866 0.93571 0.55078 0.0
Co19 Co 0.32031 0.9841 0.62517 0.0
O20 O 0.36797 0.97579 0.59325 0.0
C21 C 0.25673 0.00644 0.57233 0.0
C22 C 0.23154 0.88791 0.54869 0.0
C23 C 0.36807 0.95645 0.56251 0.0
O24 O 0.26076 0.97234 0.55586 0.0
O25 O 0.27466 0.0153 0.60272 0.0
O26 O 0.31028 0.87268 0.59603 0.0
O27 O 0.29794 0.93148 0.62091 0.0
Co28 Co 0.9214 0.70274 0.43567 0.0
O29 O 0.88302 0.67695 0.40454 0.0
O30 O 0.9456 0.68813 0.38851 0.0
C31 C 0.88209 0.75379 0.45429 0.0
O32 O 0.96899 0.72966 0.45987 0.0
Co33 Co 0.90698 0.70965 0.52127 0.0
O34 O 0.95302 0.7458 0.51908 0.0
C35 C 0.93462 0.63296 0.48971 0.0
C36 C 0.9111 0.67361 0.37978 0.0
C37 C 0.97659 0.74691 0.49121 0.0
O38 O 0.93734 0.64941 0.45738 0.0
O39 O 0.92164 0.65114 0.51884 0.0
O40 O 0.90012 0.75541 0.42219 0.0
O41 O 0.88509 0.72011 0.47198 0.0
Co42 Co 0.71082 0.07649 0.56509 0.0
O43 O 0.76325 0.09476 0.57565 0.0
O44 O 0.7339 0.09899 0.52019 0.0
C45 C 0.68104 0.10315 0.61589 0.0
O46 O 0.65675 0.06056 0.54472 0.0
Co47 Co 0.67378 0.01576 0.62151 0.0
O48 O 0.6265 0.02353 0.58899 0.0
C49 C 0.73692 0.98892 0.57012 0.0
C50 C 0.76525 0.1049 0.54074 0.0
C51 C 0.62685 0.04118 0.5574 0.0
O52 O 0.73361 0.02215 0.55209 0.0
O53 O 0.71869 0.98211 0.60082 0.0
O54 O 0.68703 0.12539 0.58666 0.0
O55 O 0.69695 0.06773 0.61473 0.0
Co56 Co 0.42518 0.78616 0.93419 0.0
O57 O 0.38549 0.80847 0.90144 0.0
O58 O 0.44851 0.79681 0.88581 0.0
C59 C 0.38963 0.73534 0.95632 0.0
O60 O 0.47372 0.762 0.96036 0.0
Co61 Co 0.41033 0.78855 0.01936 0.0
O62 O 0.45734 0.75178 0.02049 0.0
C63 C 0.43709 0.86142 0.9821 0.0
C64 C 0.4131 0.80953 0.87615 0.0
C65 C 0.48128 0.74766 0.99306 0.0
O66 O 0.43948 0.8413 0.95156 0.0
O67 O 0.4236 0.84671 0.0125 0.0
O68 O 0.4074 0.73257 0.92421 0.0
O69 O 0.38923 0.77051 0.97178 0.0
Co70 Co 0.79158 0.56803 0.07402 0.0
O71 O 0.8196 0.60693 0.10296 0.0
O72 O 0.80898 0.54431 0.12064 0.0
C73 C 0.73935 0.60695 0.05808 0.0
O74 O 0.76286 0.52024 0.05217 0.0
Co75 Co 0.78051 0.58132 0.98901 0.0
O76 O 0.74059 0.53861 0.9953 0.0
C77 C 0.85749 0.55119 0.01662 0.0
C78 C 0.8239 0.57916 0.12813 0.0
C79 C 0.74146 0.51443 0.02292 0.0
O80 O 0.84244 0.55015 0.04957 0.0
O81 O 0.83865 0.56527 0.98826 0.0
O82 O 0.74085 0.58973 0.09061 0.0
O83 O 0.77154 0.60441 0.0382 0.0
Co84 Co 0.57477 0.20825 0.92689 0.0
O85 O 0.61401 0.18539 0.89393 0.0
O86 O 0.55069 0.19677 0.87907 0.0
C87 C 0.61195 0.25899 0.94731 0.0
O88 O 0.52656 0.23334 0.95283 0.0
Co89 Co 0.59001 0.20857 0.0121 0.0
O90 O 0.54254 0.24469 0.01287 0.0
C91 C 0.56232 0.13473 0.97677 0.0
C92 C 0.58611 0.18471 0.86887 0.0
C93 C 0.51869 0.24809 0.98529 0.0
O94 O 0.56011 0.15371 0.94558 0.0
O95 O 0.57608 0.15038 0.00668 0.0
O96 O 0.5934 0.26126 0.91555 0.0
O97 O 0.61118 0.22444 0.96391 0.0
Co98 Co 0.20609 0.42339 0.06606 0.0
O99 O 0.18011 0.3835 0.09548 0.0
O100 O 0.18932 0.44638 0.11315 0.0
C101 C 0.25906 0.38644 0.04852 0.0
O102 O 0.23277 0.47216 0.04379 0.0
Co103 Co 0.21371 0.41087 0.98083 0.0
O104 O 0.24997 0.45698 0.98471 0.0
C105 C 0.13724 0.43831 0.01107 0.0
C106 C 0.17547 0.41111 0.12076 0.0
C107 C 0.25071 0.4802 0.013 0.0
O108 O 0.15394 0.43986 0.04326 0.0
O109 O 0.1551 0.42484 0.98196 0.0
O110 O 0.25785 0.40331 0.08122 0.0
O111 O 0.22618 0.38778 0.0295 0.0
H112 H 0.13657 0.34319 0.13962 0.0
H113 H 0.17078 0.45845 0.18312 0.0
H114 H 0.10946 0.32539 0.20035 0.0
H115 H 0.14329 0.4406 0.24409 0.0
H116 H 0.14851 0.36349 0.35323 0.0
H117 H 0.16481 0.39062 0.29214 0.0
H118 H 0.05637 0.34255 0.24692 0.0
H119 H 0.04001 0.31506 0.30839 0.0
C120 C 0.1379 0.36492 0.16207 0.0
C121 C 0.15615 0.40208 0.15674 0.0
C122 C 0.12205 0.35483 0.19677 0.0
C123 C 0.12433 0.38157 0.22696 0.0
C124 C 0.14144 0.41928 0.22134 0.0
C125 C 0.15705 0.42953 0.18647 0.0
C126 C 0.12791 0.35898 0.33037 0.0
C127 C 0.09315 0.33682 0.33547 0.0
C128 C 0.13711 0.37485 0.29544 0.0
C129 C 0.1119 0.36866 0.26476 0.0
C130 C 0.07649 0.3475 0.27007 0.0
C131 C 0.06707 0.33189 0.3052 0.0
H132 H 0.35095 0.82444 0.64128 0.0
H133 H 0.32736 0.94327 0.6851 0.0
H134 H 0.38024 0.8045 0.70149 0.0
H135 H 0.3565 0.92344 0.74463 0.0
H136 H 0.34806 0.85276 0.85479 0.0
H137 H 0.32981 0.87453 0.7922 0.0
H138 H 0.43793 0.82056 0.74848 0.0
H139 H 0.45659 0.79868 0.81183 0.0
C140 C 0.35253 0.84638 0.66352 0.0
C141 C 0.33642 0.88523 0.65868 0.0
C142 C 0.36944 0.83506 0.69782 0.0
C143 C 0.37021 0.86237 0.72772 0.0
C144 C 0.35579 0.90167 0.72218 0.0
C145 C 0.33915 0.91299 0.68804 0.0
C146 C 0.36814 0.84568 0.83194 0.0
C147 C 0.40378 0.82408 0.83817 0.0
C148 C 0.35776 0.85833 0.79612 0.0
C149 C 0.38257 0.84937 0.76559 0.0
C150 C 0.4183 0.82774 0.77163 0.0
C151 C 0.42903 0.81548 0.80779 0.0
H152 H 0.95822 0.67378 0.31736 0.0
H153 H 0.84679 0.63006 0.36006 0.0
H154 H 0.9427 0.64571 0.25592 0.0
H155 H 0.83135 0.60229 0.29896 0.0
H156 H 0.82631 0.53245 0.19102 0.0
H157 H 0.85289 0.5505 0.25232 0.0
H158 H 0.89145 0.66369 0.20768 0.0
H159 H 0.86519 0.64571 0.14663 0.0
C160 C 0.93065 0.65788 0.31371 0.0
C161 C 0.90355 0.65444 0.34336 0.0
C162 C 0.92174 0.64192 0.27859 0.0
C163 C 0.8858 0.62185 0.27268 0.0
C164 C 0.85946 0.61719 0.30276 0.0
C165 C 0.86817 0.63344 0.33767 0.0
C166 C 0.84095 0.56092 0.19423 0.0
C167 C 0.84337 0.58781 0.16415 0.0
C168 C 0.85602 0.57129 0.2293 0.0
C169 C 0.8741 0.60855 0.23477 0.0
C170 C 0.87805 0.63461 0.20424 0.0
C171 C 0.86272 0.62441 0.16934 0.0
H172 H 0.65833 0.18627 0.83554 0.0
H173 H 0.53509 0.15882 0.81445 0.0
H174 H 0.67481 0.16988 0.77087 0.0
H175 H 0.55219 0.1411 0.74954 0.0
H176 H 0.63956 0.05845 0.6654 0.0
H177 H 0.61037 0.08075 0.72469 0.0
H178 H 0.64569 0.2019 0.70127 0.0
H179 H 0.67384 0.17992 0.64121 0.0
C180 C 0.6348 0.17652 0.81711 0.0
C181 C 0.59545 0.17362 0.82997 0.0
C182 C 0.64422 0.16752 0.78012 0.0
C183 C 0.61464 0.15467 0.75548 0.0
C184 C 0.57532 0.15125 0.76821 0.0
C185 C 0.56564 0.16125 0.80517 0.0
C186 C 0.64036 0.08997 0.67258 0.0
C187 C 0.65911 0.1175 0.64898 0.0
C188 C 0.62348 0.10268 0.70628 0.0
C189 C 0.62591 0.1429 0.71722 0.0
C190 C 0.6434 0.17074 0.69311 0.0
C191 C 0.6594 0.1582 0.6589 0.0
H192 H 0.2379 0.01302 0.49842 0.0
H193 H 0.22068 0.07116 0.60524 0.0
H194 H 0.20344 0.06867 0.46758 0.0
H195 H 0.1845 0.12588 0.57477 0.0
H196 H 0.16593 0.23878 0.50672 0.0
H197 H 0.19808 0.18134 0.53672 0.0
H198 H 0.14196 0.10221 0.45753 0.0
H199 H 0.11143 0.16012 0.42646 0.0
C200 C 0.22604 0.03735 0.51537 0.0
C201 C 0.23222 0.03795 0.55418 0.0
C202 C 0.20615 0.06921 0.49773 0.0
C203 C 0.19149 0.10201 0.51862 0.0
C204 C 0.1963 0.10165 0.55767 0.0
C205 C 0.21675 0.07015 0.57521 0.0
C206 C 0.16065 0.20908 0.49569 0.0
C207 C 0.13636 0.2038 0.46427 0.0
C208 C 0.17875 0.17609 0.51307 0.0
C209 C 0.17237 0.13702 0.49978 0.0
C210 C 0.14798 0.13186 0.46823 0.0
C211 C 0.13036 0.16499 0.45049 0.0
H212 H 0.15728 0.90314 0.57359 0.0
H213 H 0.22242 0.83334 0.4916 0.0
H214 H 0.09607 0.87112 0.55544 0.0
H215 H 0.16065 0.79945 0.4742 0.0
H216 H 0.03078 0.76907 0.43742 0.0
H217 H 0.09298 0.80511 0.44706 0.0
H218 H 0.07112 0.80598 0.56605 0.0
H219 H 0.00929 0.77161 0.55652 0.0
C220 C 0.15846 0.88072 0.55168 0.0
C221 C 0.19464 0.87015 0.53444 0.0
C222 C 0.12337 0.86221 0.54136 0.0
C223 C 0.12359 0.83195 0.51404 0.0
C224 C 0.15951 0.82263 0.49539 0.0
C225 C 0.19483 0.84183 0.50539 0.0
C226 C 0.03934 0.77712 0.46558 0.0
C227 C 0.01476 0.76789 0.49613 0.0
C228 C 0.07503 0.79757 0.4711 0.0
C229 C 0.08673 0.80899 0.50726 0.0
C230 C 0.06254 0.79872 0.5377 0.0
C231 C 0.02702 0.77875 0.53222 0.0
H232 H 0.76811 0.923 0.60544 0.0
H233 H 0.76078 0.98102 0.49758 0.0
H234 H 0.80547 0.86745 0.57767 0.0
H235 H 0.79649 0.92463 0.46942 0.0
H236 H 0.89048 0.83226 0.43516 0.0
H237 H 0.85836 0.89055 0.4642 0.0
H238 H 0.79461 0.8121 0.53859 0.0
H239 H 0.82832 0.75427 0.51078 0.0
C240 C 0.77437 0.9238 0.57576 0.0
C241 C 0.76137 0.95627 0.55368 0.0
C242 C 0.79555 0.89183 0.55976 0.0
C243 C 0.80366 0.89131 0.52121 0.0
C244 C 0.79126 0.92422 0.49927 0.0
C245 C 0.77059 0.95649 0.51539 0.0
C246 C 0.86959 0.82764 0.45774 0.0
C247 C 0.86184 0.78891 0.47083 0.0
C248 C 0.85105 0.86097 0.47429 0.0
C249 C 0.82396 0.85608 0.50385 0.0
C250 C 0.81597 0.81711 0.5165 0.0
C251 C 0.835 0.78391 0.50038 0.0
H252 H 0.83932 0.08424 0.56271 0.0
H253 H 0.77539 0.16039 0.48485 0.0
H254 H 0.90171 0.11355 0.54372 0.0
H255 H 0.83822 0.19174 0.4669 0.0
H256 H 0.96607 0.22225 0.42893 0.0
H257 H 0.90412 0.18587 0.43821 0.0
H258 H 0.9305 0.17603 0.55612 0.0
H259 H 0.99215 0.21063 0.54683 0.0
C260 C 0.83873 0.10743 0.54149 0.0
C261 C 0.80263 0.12059 0.52566 0.0
C262 C 0.87446 0.1244 0.53071 0.0
C263 C 0.87493 0.15577 0.5045 0.0
C264 C 0.83892 0.16762 0.48716 0.0
C265 C 0.80297 0.14988 0.49749 0.0
C266 C 0.95866 0.212 0.45675 0.0
C267 C 0.9843 0.21914 0.48706 0.0
C268 C 0.92308 0.19137 0.46208 0.0
C269 C 0.9125 0.17759 0.49782 0.0
C270 C 0.93808 0.18518 0.528 0.0
C271 C 0.9735 0.20537 0.52268 0.0
H272 H 0.25896 0.54022 0.06528 0.0
H273 H 0.29178 0.50655 0.95253 0.0
H274 H 0.29526 0.60289 0.05813 0.0
H275 H 0.32685 0.56869 0.9454 0.0
H276 H 0.4182 0.65996 0.94951 0.0
H277 H 0.38694 0.5984 0.96931 0.0
H278 H 0.29212 0.66744 0.02152 0.0
H279 H 0.32466 0.72972 0.00257 0.0
C280 C 0.27386 0.54608 0.03907 0.0
C281 C 0.2726 0.51819 0.00956 0.0
C282 C 0.29446 0.58202 0.03496 0.0
C283 C 0.31431 0.59047 0.0014 0.0
C284 C 0.31267 0.56269 0.97195 0.0
C285 C 0.29224 0.52706 0.97599 0.0
C286 C 0.39098 0.66202 0.96571 0.0
C287 C 0.37334 0.69939 0.97397 0.0
C288 C 0.37301 0.62679 0.97694 0.0
C289 C 0.33654 0.62807 0.99609 0.0
C290 C 0.3202 0.66556 0.00671 0.0
C291 C 0.33868 0.70112 0.99585 0.0
H292 H 0.72904 0.6624 0.00213 0.0
H293 H 0.66513 0.59128 0.08226 0.0
H294 H 0.66638 0.69572 0.98357 0.0
H295 H 0.60288 0.62292 0.06289 0.0
H296 H 0.51104 0.72218 0.05987 0.0
H297 H 0.57345 0.68746 0.07206 0.0
H298 H 0.60107 0.68853 0.95413 0.0
H299 H 0.53841 0.72476 0.94181 0.0
C300 C 0.70154 0.65359 0.01535 0.0
C301 C 0.70189 0.62494 0.0441 0.0
C302 C 0.6657 0.67243 0.00463 0.0
C303 C 0.62973 0.66246 0.02224 0.0
C304 C 0.63016 0.63219 0.04955 0.0
C305 C 0.66583 0.61394 0.06057 0.0
C306 C 0.53022 0.71506 0.03638 0.0
C307 C 0.51954 0.72616 -0.0002 0.0
C308 C 0.56603 0.69484 0.04339 0.0
C309 C 0.59207 0.68473 0.01402 0.0
C310 C 0.58172 0.69607 0.97738 0.0
C311 C 0.54576 0.71664 0.97033 0.0
H312 H 0.75746 0.44139 0.05538 0.0
H313 H 0.67419 0.50345 0.98268 0.0
H314 H 0.72548 0.37772 0.04099 0.0
H315 H 0.64159 0.44062 0.96942 0.0
H316 H 0.63387 0.32413 0.90864 0.0
H317 H 0.66345 0.38477 0.93195 0.0
H318 H 0.66501 0.3356 0.0437 0.0
H319 H 0.63597 0.27343 0.01971 0.0
C320 C 0.73179 0.44152 0.03704 0.0
C321 C 0.71874 0.47716 0.01954 0.0
C322 C 0.71345 0.40513 0.02888 0.0
C323 C 0.68161 0.40404 0.0034 0.0
C324 C 0.66684 0.44027 0.98828 0.0
C325 C 0.68539 0.47632 0.99599 0.0
C326 C 0.64049 0.32609 0.93822 0.0
C327 C 0.63222 0.29427 0.96246 0.0
C328 C 0.65721 0.36104 0.95165 0.0
C329 C 0.66567 0.36544 0.98985 0.0
C330 C 0.65865 0.3331 0.01413 0.0
C331 C 0.64207 0.29763 0.00048 0.0
H332 H 0.46253 0.27146 0.93323 0.0
H333 H 0.4869 0.27138 0.05191 0.0
H334 H 0.39918 0.30679 0.94483 0.0
H335 H 0.42384 0.30527 0.06335 0.0
H336 H 0.26981 0.33181 0.99169 0.0
H337 H 0.33275 0.29869 0.97338 0.0
H338 H 0.39543 0.37069 0.05394 0.0
H339 H 0.3331 0.40226 0.07287 0.0
C340 C 0.45437 0.27881 0.96172 0.0
C341 C 0.48001 0.26895 0.99159 0.0
C342 C 0.41803 0.29884 0.96835 0.0
C343 C 0.40671 0.30928 0.00495 0.0
C344 C 0.43206 0.29862 0.03472 0.0
C345 C 0.46825 0.27895 0.02814 0.0
C346 C 0.2972 0.34056 0.00517 0.0
C347 C 0.2966 0.36895 0.03415 0.0
C348 C 0.33318 0.3218 0.99463 0.0
C349 C 0.36896 0.33153 0.01275 0.0
C350 C 0.36829 0.36162 0.04021 0.0
C351 C 0.33255 0.37985 0.05096 0.0
H352 H 0.98313 0.60096 0.54319 0.0
H353 H 0.91779 0.57186 0.44328 0.0
H354 H 0.01403 0.53398 0.54303 0.0
H355 H 0.94638 0.50425 0.44419 0.0
H356 H 0.0402 0.40968 0.42512 0.0
H357 H 0.00876 0.47536 0.43019 0.0
H358 H 0.00626 0.46368 0.55054 0.0
H359 H 0.0394 0.39822 0.54547 0.0
C360 C 0.97467 0.57972 0.52182 0.0
C361 C 0.9485 0.59126 0.49308 0.0
C362 C 0.99223 0.5414 0.52171 0.0
C363 C 0.9832 0.51393 0.49322 0.0
C364 C 0.95503 0.52505 0.46584 0.0
C365 C 0.93832 0.56354 0.46546 0.0
C366 C 0.03316 0.42114 0.45271 0.0
C367 C 0.04209 0.39863 0.48488 0.0
C368 C 0.01474 0.45872 0.45563 0.0
C369 C 0.00425 0.47453 0.49075 0.0
C370 C 0.01405 0.45246 0.52306 0.0
C371 C 0.03297 0.41491 0.52015 0.0
H372 H 0.61446 0.97975 0.5104 0.0
H373 H 0.55995 0.08741 0.55509 0.0
H374 H 0.54899 0.95575 0.49164 0.0
H375 H 0.49455 0.06383 0.53645 0.0
H376 H 0.37936 0.01542 0.51254 0.0
H377 H 0.44418 0.03838 0.49077 0.0
H378 H 0.50044 0.93377 0.54056 0.0
H379 H 0.43569 0.9112 0.56213 0.0
C380 C 0.58857 -0.00084 0.51434 0.0
C381 C 0.59186 0.03543 0.53385 0.0
C382 C 0.55117 0.98534 0.50389 0.0
C383 C 0.51664 0.00766 0.51296 0.0
C384 C 0.52059 0.0461 0.5287 0.0
C385 C 0.55799 0.05973 0.53938 0.0
C386 C 0.40549 0.99651 0.51709 0.0
C387 C 0.40294 0.96154 0.53867 0.0
C388 C 0.44251 0.00972 0.50488 0.0
C389 C 0.47739 0.98811 0.51425 0.0
C390 C 0.4741 0.95087 0.53247 0.0
C391 C 0.4371 0.93785 0.54488 0.0
H392 H 0.52028 0.09724 0.9223 0.0
H393 H 0.56466 0.08035 0.03479 0.0
H394 H 0.48825 0.03298 0.92516 0.0
H395 H 0.53345 0.01469 0.03708 0.0
H396 H 0.43855 0.91627 0.03974 0.0
H397 H 0.46908 0.98232 0.03942 0.0
H398 H 0.505 0.96397 0.92466 0.0
H399 H 0.47363 0.89935 0.92444 0.0
C400 C 0.52376 0.07958 0.94754 0.0
C401 C 0.54535 0.09401 0.97826 0.0
C402 C 0.50538 0.04252 0.94912 0.0
C403 C 0.50841 0.01848 0.98127 0.0
C404 C 0.53013 0.03268 0.01204 0.0
C405 C 0.54835 0.07013 0.01059 0.0
C406 C 0.45262 0.92658 0.01436 0.0
C407 C 0.45336 0.90249 0.98208 0.0
C408 C 0.47046 0.96425 0.0143 0.0
C409 C 0.48947 0.97851 0.982 0.0
C410 C 0.49004 0.95437 0.94983 0.0
C411 C 0.47208 0.91706 0.94979 0.0
H412 H 0.09562 0.47774 0.0651 0.0
H413 H 0.08569 0.43687 0.95074 0.0
H414 H 0.02873 0.50495 0.06237 0.0
H415 H 0.01716 0.46387 0.94849 0.0
H416 H 0.90888 0.55801 0.95675 0.0
H417 H 0.97676 0.52973 0.95185 0.0
H418 H 0.96349 0.47465 0.06027 0.0
H419 H 0.89716 0.50314 0.06564 0.0
C420 C 0.0791 0.47421 0.03933 0.0
C421 C 0.09601 0.45454 0.00825 0.0
C422 C 0.04056 0.48984 0.03786 0.0
C423 C 0.01749 0.486 0.00543 0.0
C424 C 0.03438 0.46725 0.97385 0.0
C425 C 0.07343 0.45159 0.97525 0.0
C426 C 0.9206 0.53982 0.97943 0.0
C427 C 0.89789 0.53351 0.01188 0.0
C428 C 0.95925 0.52345 0.97651 0.0
C429 C 0.97556 0.50051 0.00593 0.0
C430 C 0.95213 0.493 0.03752 0.0
C431 C 0.91399 0.50942 0.04056 0.0
loop_
_geom_bond_atom_site_label_1
_geom_bond_atom_site_label_2
_geom_bond_distance
_geom_bond_site_symmetry_2
_ccdc_geom_bond_type
Co0 O1 2.216 . S
Co0 O2 2.091 . S
Co0 O4 2.004 . S
Co0 O10 2.021 . S
Co0 O12 2.137 . S
Co0 O13 2.244 . S
O1 Co0 2.216 . S
O1 C8 1.247 . S
O2 Co0 2.091 . S
O2 C8 1.261 . S
C3 O12 1.247 . S
C3 O13 1.272 . S
O4 Co0 2.004 . S
O4 C9 1.259 . S
Co5 O6 2.061 . S
Co5 O11 2.052 . S
Co5 O13 2.135 . S
O6 Co5 2.061 . S
O6 C9 1.235 . S
C7 O10 1.238 . S
C7 O11 1.241 . S
C8 O1 1.247 . S
C8 O2 1.261 . S
C9 O4 1.259 . S
C9 O6 1.235 . S
O10 Co0 2.021 . S
O10 C7 1.238 . S
O11 Co5 2.052 . S
O11 C7 1.241 . S
O12 Co0 2.137 . S
O12 C3 1.247 . S
O13 Co0 2.244 . S
O13 C3 1.272 . S
O13 Co5 2.135 . S
Co14 O15 2.216 . S
Co14 O16 2.091 . S
Co14 O18 2.004 . S
Co14 O24 2.021 . S
Co14 O26 2.137 . S
Co14 O27 2.244 . S
O15 Co14 2.216 . S
O15 C22 1.247 . S
O16 Co14 2.091 . S
O16 C22 1.261 . S
C17 O26 1.247 . S
C17 O27 1.272 . S
O18 Co14 2.004 . S
O18 C23 1.259 . S
Co19 O20 2.061 . S
Co19 O25 2.052 1_565 S
Co19 O27 2.135 . S
O20 Co19 2.061 . S
O20 C23 1.235 . S
C21 O24 1.238 . S
C21 O25 1.241 1_565 S
C22 O15 1.247 . S
C22 O16 1.261 . S
C23 O18 1.259 . S
C23 O20 1.235 . S
O24 Co14 2.021 . S
O24 C21 1.238 . S
O25 Co19 2.052 1_545 S
O25 C21 1.241 1_545 S
O26 Co14 2.137 . S
O26 C17 1.247 . S
O27 Co14 2.244 . S
O27 C17 1.272 . S
O27 Co19 2.135 . S
Co28 O29 2.216 . S
Co28 O30 2.091 . S
Co28 O32 2.004 . S
Co28 O38 2.021 . S
Co28 O40 2.137 . S
Co28 O41 2.244 . S
O29 Co28 2.216 . S
O29 C36 1.247 . S
O30 Co28 2.091 . S
O30 C36 1.261 . S
C31 O40 1.247 . S
C31 O41 1.272 . S
O32 Co28 2.004 . S
O32 C37 1.259 . S
Co33 O34 2.061 . S
Co33 O39 2.052 . S
Co33 O41 2.135 . S
O34 Co33 2.061 . S
O34 C37 1.235 . S
C35 O38 1.238 . S
C35 O39 1.241 . S
C36 O29 1.247 . S
C36 O30 1.261 . S
C37 O32 1.259 . S
C37 O34 1.235 . S
O38 Co28 2.021 . S
O38 C35 1.238 . S
O39 Co33 2.052 . S
O39 C35 1.241 . S
O40 Co28 2.137 . S
O40 C31 1.247 . S
O41 Co28 2.244 . S
O41 C31 1.272 . S
O41 Co33 2.135 . S
Co42 O43 2.216 . S
Co42 O44 2.091 . S
Co42 O46 2.004 . S
Co42 O52 2.021 . S
Co42 O54 2.137 . S
Co42 O55 2.244 . S
O43 Co42 2.216 . S
O43 C50 1.247 . S
O44 Co42 2.091 . S
O44 C50 1.261 . S
C45 O54 1.247 . S
C45 O55 1.272 . S
O46 Co42 2.004 . S
O46 C51 1.259 . S
Co47 O48 2.061 . S
Co47 O53 2.052 1_545 S
Co47 O55 2.135 . S
O48 Co47 2.061 . S
O48 C51 1.235 . S
C49 O52 1.238 . S
C49 O53 1.241 1_545 S
C50 O43 1.247 . S
C50 O44 1.261 . S
C51 O46 1.259 . S
C51 O48 1.235 . S
O52 Co42 2.021 . S
O52 C49 1.238 . S
O53 Co47 2.052 1_565 S
O53 C49 1.241 1_565 S
O54 Co42 2.137 . S
O54 C45 1.247 . S
O55 Co42 2.244 . S
O55 C45 1.272 . S
O55 Co47 2.135 . S
Co56 O57 2.216 . S
Co56 O58 2.091 . S
Co56 O60 2.004 . S
Co56 O66 2.021 . S
Co56 O68 2.137 . S
Co56 O69 2.244 . S
O57 Co56 2.216 . S
O57 C64 1.247 . S
O58 Co56 2.091 . S
O58 C64 1.261 . S
C59 O68 1.247 . S
C59 O69 1.272 . S
O60 Co56 2.004 . S
O60 C65 1.259 . S
Co61 O62 2.061 . S
Co61 O67 2.052 . S
Co61 O69 2.135 1_554 S
O62 Co61 2.061 . S
O62 C65 1.235 1_554 S
C63 O66 1.238 . S
C63 O67 1.241 1_556 S
C64 O57 1.247 . S
C64 O58 1.261 . S
C65 O60 1.259 . S
C65 O62 1.235 1_556 S
O66 Co56 2.021 . S
O66 C63 1.238 . S
O67 Co61 2.052 . S
O67 C63 1.241 1_554 S
O68 Co56 2.137 . S
O68 C59 1.247 . S
O69 Co56 2.244 . S
O69 C59 1.272 . S
O69 Co61 2.135 1_556 S
Co70 O71 2.216 . S
Co70 O72 2.091 . S
Co70 O74 2.004 . S
Co70 O80 2.021 . S
Co70 O82 2.137 . S
Co70 O83 2.244 . S
O71 Co70 2.216 . S
O71 C78 1.247 . S
O72 Co70 2.091 . S
O72 C78 1.261 . S
C73 O82 1.247 . S
C73 O83 1.272 . S
O74 Co70 2.004 . S
O74 C79 1.259 . S
Co75 O76 2.061 . S
Co75 O81 2.052 . S
Co75 O83 2.135 1_556 S
O76 Co75 2.061 . S
O76 C79 1.235 1_556 S
C77 O80 1.238 . S
C77 O81 1.241 1_554 S
C78 O71 1.247 . S
C78 O72 1.261 . S
C79 O74 1.259 . S
C79 O76 1.235 1_554 S
O80 Co70 2.021 . S
O80 C77 1.238 . S
O81 Co75 2.052 . S
O81 C77 1.241 1_556 S
O82 Co70 2.137 . S
O82 C73 1.247 . S
O83 Co70 2.244 . S
O83 C73 1.272 . S
O83 Co75 2.135 1_554 S
Co84 O85 2.216 . S
Co84 O86 2.091 . S
Co84 O88 2.004 . S
Co84 O94 2.021 . S
Co84 O96 2.137 . S
Co84 O97 2.244 . S
O85 Co84 2.216 . S
O85 C92 1.247 . S
O86 Co84 2.091 . S
O86 C92 1.261 . S
C87 O96 1.247 . S
C87 O97 1.272 . S
O88 Co84 2.004 . S
O88 C93 1.259 . S
Co89 O90 2.061 . S
Co89 O95 2.052 . S
Co89 O97 2.135 1_554 S
O90 Co89 2.061 . S
O90 C93 1.235 1_554 S
C91 O94 1.238 . S
C91 O95 1.241 1_556 S
C92 O85 1.247 . S
C92 O86 1.261 . S
C93 O88 1.259 . S
C93 O90 1.235 1_556 S
O94 Co84 2.021 . S
O94 C91 1.238 . S
O95 Co89 2.052 . S
O95 C91 1.241 1_554 S
O96 Co84 2.137 . S
O96 C87 1.247 . S
O97 Co84 2.244 . S
O97 C87 1.272 . S
O97 Co89 2.135 1_556 S
Co98 O99 2.216 . S
Co98 O100 2.091 . S
Co98 O102 2.004 . S
Co98 O108 2.021 . S
Co98 O110 2.137 . S
Co98 O111 2.244 . S
O99 Co98 2.216 . S
O99 C106 1.247 . S
O100 Co98 2.091 . S
O100 C106 1.261 . S
C101 O110 1.247 . S
C101 O111 1.272 . S
O102 Co98 2.004 . S
O102 C107 1.259 . S
Co103 O104 2.061 . S
Co103 O109 2.052 . S
Co103 O111 2.135 1_556 S
O104 Co103 2.061 . S
O104 C107 1.235 1_556 S
C105 O108 1.238 . S
C105 O109 1.241 1_554 S
C106 O99 1.247 . S
C106 O100 1.261 . S
C107 O102 1.259 . S
C107 O104 1.235 1_554 S
O108 Co98 2.021 . S
O108 C105 1.238 . S
O109 Co103 2.052 . S
O109 C105 1.241 1_556 S
O110 Co98 2.137 . S
O110 C101 1.247 . S
O111 Co98 2.244 . S
O111 C101 1.272 . S
O111 Co103 2.135 1_554 S
H112 C120 0.950 . S
H113 C125 0.950 . S
H114 C122 0.950 . S
H115 C124 0.950 . S
H116 C126 0.950 . S
H117 C128 0.950 . S
H118 C130 0.950 . S
H119 C131 0.950 . S
C120 H112 0.950 . S
C120 C121 1.386 . S
C120 C122 1.391 . S
C121 C120 1.386 . S
C121 C125 1.393 . S
C122 H114 0.950 . S
C122 C120 1.391 . S
C122 C123 1.400 . S
C123 C122 1.400 . S
C123 C124 1.398 . S
C123 C129 1.491 . S
C124 H115 0.950 . S
C124 C123 1.398 . S
C124 C125 1.391 . S
C125 H113 0.950 . S
C125 C121 1.393 . S
C125 C124 1.391 . S
C126 H116 0.950 . S
C126 C127 1.386 . S
C126 C128 1.391 . S
C127 C126 1.386 . S
C127 C131 1.393 . S
C128 H117 0.950 . S
C128 C126 1.391 . S
C128 C129 1.400 . S
C129 C123 1.491 . S
C129 C128 1.400 . S
C129 C130 1.398 . S
C130 H118 0.950 . S
C130 C129 1.398 . S
C130 C131 1.391 . S
C131 H119 0.950 . S
C131 C127 1.393 . S
C131 C130 1.391 . S
H132 C140 0.950 . S
H133 C145 0.950 . S
H134 C142 0.950 . S
H135 C144 0.950 . S
H136 C146 0.950 . S
H137 C148 0.950 . S
H138 C150 0.950 . S
H139 C151 0.950 . S
C140 H132 0.950 . S
C140 C141 1.386 . S
C140 C142 1.391 . S
C141 C140 1.386 . S
C141 C145 1.393 . S
C142 H134 0.950 . S
C142 C140 1.391 . S
C142 C143 1.400 . S
C143 C142 1.400 . S
C143 C144 1.398 . S
C143 C149 1.491 . S
C144 H135 0.950 . S
C144 C143 1.398 . S
C144 C145 1.391 . S
C145 H133 0.950 . S
C145 C141 1.393 . S
C145 C144 1.391 . S
C146 H136 0.950 . S
C146 C147 1.386 . S
C146 C148 1.391 . S
C147 C146 1.386 . S
C147 C151 1.393 . S
C148 H137 0.950 . S
C148 C146 1.391 . S
C148 C149 1.400 . S
C149 C143 1.491 . S
C149 C148 1.400 . S
C149 C150 1.398 . S
C150 H138 0.950 . S
C150 C149 1.398 . S
C150 C151 1.391 . S
C151 H139 0.950 . S
C151 C147 1.393 . S
C151 C150 1.391 . S
H152 C160 0.950 . S
H153 C165 0.950 . S
H154 C162 0.950 . S
H155 C164 0.950 . S
H156 C166 0.950 . S
H157 C168 0.950 . S
H158 C170 0.950 . S
H159 C171 0.950 . S
C160 H152 0.950 . S
C160 C161 1.386 . S
C160 C162 1.391 . S
C161 C160 1.386 . S
C161 C165 1.393 . S
C162 H154 0.950 . S
C162 C160 1.391 . S
C162 C163 1.400 . S
C163 C162 1.400 . S
C163 C164 1.398 . S
C163 C169 1.491 . S
C164 H155 0.950 . S
C164 C163 1.398 . S
C164 C165 1.391 . S
C165 H153 0.950 . S
C165 C161 1.393 . S
C165 C164 1.391 . S
C166 H156 0.950 . S
C166 C167 1.386 . S
C166 C168 1.391 . S
C167 C166 1.386 . S
C167 C171 1.393 . S
C168 H157 0.950 . S
C168 C166 1.391 . S
C168 C169 1.400 . S
C169 C163 1.491 . S
C169 C168 1.400 . S
C169 C170 1.398 . S
C170 H158 0.950 . S
C170 C169 1.398 . S
C170 C171 1.391 . S
C171 H159 0.950 . S
C171 C167 1.393 . S
C171 C170 1.391 . S
H172 C180 0.950 . S
H173 C185 0.950 . S
H174 C182 0.950 . S
H175 C184 0.950 . S
H176 C186 0.950 . S
H177 C188 0.950 . S
H178 C190 0.950 . S
H179 C191 0.950 . S
C180 H172 0.950 . S
C180 C181 1.386 . S
C180 C182 1.391 . S
C181 C180 1.386 . S
C181 C185 1.393 . S
C182 H174 0.950 . S
C182 C180 1.391 . S
C182 C183 1.400 . S
C183 C182 1.400 . S
C183 C184 1.398 . S
C183 C189 1.491 . S
C184 H175 0.950 . S
C184 C183 1.398 . S
C184 C185 1.391 . S
C185 H173 0.950 . S
C185 C181 1.393 . S
C185 C184 1.391 . S
C186 H176 0.950 . S
C186 C187 1.386 . S
C186 C188 1.391 . S
C187 C186 1.386 . S
C187 C191 1.393 . S
C188 H177 0.950 . S
C188 C186 1.391 . S
C188 C189 1.400 . S
C189 C183 1.491 . S
C189 C188 1.400 . S
C189 C190 1.398 . S
C190 H178 0.950 . S
C190 C189 1.398 . S
C190 C191 1.391 . S
C191 H179 0.950 . S
C191 C187 1.393 . S
C191 C190 1.391 . S
H192 C200 0.950 . S
H193 C205 0.950 . S
H194 C202 0.950 . S
H195 C204 0.950 . S
H196 C206 0.950 . S
H197 C208 0.950 . S
H198 C210 0.950 . S
H199 C211 0.950 . S
C200 H192 0.950 . S
C200 C201 1.386 . S
C200 C202 1.391 . S
C201 C200 1.386 . S
C201 C205 1.393 . S
C202 H194 0.950 . S
C202 C200 1.391 . S
C202 C203 1.400 . S
C203 C202 1.400 . S
C203 C204 1.398 . S
C203 C209 1.491 . S
C204 H195 0.950 . S
C204 C203 1.398 . S
C204 C205 1.391 . S
C205 H193 0.950 . S
C205 C201 1.393 . S
C205 C204 1.391 . S
C206 H196 0.950 . S
C206 C207 1.386 . S
C206 C208 1.391 . S
C207 C206 1.386 . S
C207 C211 1.393 . S
C208 H197 0.950 . S
C208 C206 1.391 . S
C208 C209 1.400 . S
C209 C203 1.491 . S
C209 C208 1.400 . S
C209 C210 1.398 . S
C210 H198 0.950 . S
C210 C209 1.398 . S
C210 C211 1.391 . S
C211 H199 0.950 . S
C211 C207 1.393 . S
C211 C210 1.391 . S
H212 C220 0.950 . S
H213 C225 0.950 . S
H214 C222 0.950 . S
H215 C224 0.950 . S
H216 C226 0.950 . S
H217 C228 0.950 . S
H218 C230 0.950 . S
H219 C231 0.950 . S
C220 H212 0.950 . S
C220 C221 1.386 . S
C220 C222 1.391 . S
C221 C220 1.386 . S
C221 C225 1.393 . S
C222 H214 0.950 . S
C222 C220 1.391 . S
C222 C223 1.400 . S
C223 C222 1.400 . S
C223 C224 1.398 . S
C223 C229 1.491 . S
C224 H215 0.950 . S
C224 C223 1.398 . S
C224 C225 1.391 . S
C225 H213 0.950 . S
C225 C221 1.393 . S
C225 C224 1.391 . S
C226 H216 0.950 . S
C226 C227 1.386 . S
C226 C228 1.391 . S
C227 C226 1.386 . S
C227 C231 1.393 . S
C228 H217 0.950 . S
C228 C226 1.391 . S
C228 C229 1.400 . S
C229 C223 1.491 . S
C229 C228 1.400 . S
C229 C230 1.398 . S
C230 H218 0.950 . S
C230 C229 1.398 . S
C230 C231 1.391 . S
C231 H219 0.950 . S
C231 C227 1.393 . S
C231 C230 1.391 . S
H232 C240 0.950 . S
H233 C245 0.950 . S
H234 C242 0.950 . S
H235 C244 0.950 . S
H236 C246 0.950 . S
H237 C248 0.950 . S
H238 C250 0.950 . S
H239 C251 0.950 . S
C240 H232 0.950 . S
C240 C241 1.386 . S
C240 C242 1.391 . S
C241 C240 1.386 . S
C241 C245 1.393 . S
C242 H234 0.950 . S
C242 C240 1.391 . S
C242 C243 1.400 . S
C243 C242 1.400 . S
C243 C244 1.398 . S
C243 C249 1.491 . S
C244 H235 0.950 . S
C244 C243 1.398 . S
C244 C245 1.391 . S
C245 H233 0.950 . S
C245 C241 1.393 . S
C245 C244 1.391 . S
C246 H236 0.950 . S
C246 C247 1.386 . S
C246 C248 1.391 . S
C247 C246 1.386 . S
C247 C251 1.393 . S
C248 H237 0.950 . S
C248 C246 1.391 . S
C248 C249 1.400 . S
C249 C243 1.491 . S
C249 C248 1.400 . S
C249 C250 1.398 . S
C250 H238 0.950 . S
C250 C249 1.398 . S
C250 C251 1.391 . S
C251 H239 0.950 . S
C251 C247 1.393 . S
C251 C250 1.391 . S
H252 C260 0.950 . S
H253 C265 0.950 . S
H254 C262 0.950 . S
H255 C264 0.950 . S
H256 C266 0.950 . S
H257 C268 0.950 . S
H258 C270 0.950 . S
H259 C271 0.950 . S
C260 H252 0.950 . S
C260 C261 1.386 . S
C260 C262 1.391 . S
C261 C260 1.386 . S
C261 C265 1.393 . S
C262 H254 0.950 . S
C262 C260 1.391 . S
C262 C263 1.400 . S
C263 C262 1.400 . S
C263 C264 1.398 . S
C263 C269 1.491 . S
C264 H255 0.950 . S
C264 C263 1.398 . S
C264 C265 1.391 . S
C265 H253 0.950 . S
C265 C261 1.393 . S
C265 C264 1.391 . S
C266 H256 0.950 . S
C266 C267 1.386 . S
C266 C268 1.391 . S
C267 C266 1.386 . S
C267 C271 1.393 . S
C268 H257 0.950 . S
C268 C266 1.391 . S
C268 C269 1.400 . S
C269 C263 1.491 . S
C269 C268 1.400 . S
C269 C270 1.398 . S
C270 H258 0.950 . S
C270 C269 1.398 . S
C270 C271 1.391 . S
C271 H259 0.950 . S
C271 C267 1.393 . S
C271 C270 1.391 . S
H272 C280 0.950 . S
H273 C285 0.950 . S
H274 C282 0.950 . S
H275 C284 0.950 . S
H276 C286 0.950 . S
H277 C288 0.950 . S
H278 C290 0.950 . S
H279 C291 0.950 . S
C280 H272 0.950 . S
C280 C281 1.386 . S
C280 C282 1.391 . S
C281 C280 1.386 . S
C281 C285 1.393 1_554 S
C282 H274 0.950 . S
C282 C280 1.391 . S
C282 C283 1.400 . S
C283 C282 1.400 . S
C283 C284 1.398 1_554 S
C283 C289 1.493 . S
C284 H275 0.950 . S
C284 C283 1.398 1_556 S
C284 C285 1.391 . S
C285 H273 0.950 . S
C285 C281 1.393 1_556 S
C285 C284 1.391 . S
C286 H276 0.950 . S
C286 C287 1.386 . S
C286 C288 1.391 . S
C287 C286 1.386 . S
C287 C291 1.393 1_556 S
C288 H277 0.950 . S
C288 C286 1.391 . S
C288 C289 1.391 1_556 S
C289 C283 1.493 . S
C289 C288 1.391 1_554 S
C289 C290 1.405 . S
C290 H278 0.950 . S
C290 C289 1.405 . S
C290 C291 1.391 . S
C291 H279 0.950 . S
C291 C287 1.393 1_554 S
C291 C290 1.391 . S
H292 C300 0.950 . S
H293 C305 0.950 . S
H294 C302 0.950 . S
H295 C304 0.950 . S
H296 C306 0.950 . S
H297 C308 0.950 . S
H298 C310 0.950 . S
H299 C311 0.950 . S
C300 H292 0.950 . S
C300 C301 1.386 1_556 S
C300 C302 1.391 . S
C301 C300 1.386 1_554 S
C301 C305 1.393 . S
C302 H294 0.950 . S
C302 C300 1.391 . S
C302 C303 1.400 1_556 S
C303 C302 1.400 1_554 S
C303 C304 1.398 . S
C303 C309 1.491 1_554 S
C304 H295 0.950 . S
C304 C303 1.398 . S
C304 C305 1.391 . S
C305 H293 0.950 . S
C305 C301 1.393 . S
C305 C304 1.391 . S
C306 H296 0.950 . S
C306 C307 1.386 1_554 S
C306 C308 1.391 . S
C307 C306 1.386 1_556 S
C307 C311 1.393 . S
C308 H297 0.950 . S
C308 C306 1.391 . S
C308 C309 1.400 1_554 S
C309 C303 1.491 1_556 S
C309 C308 1.400 1_556 S
C309 C310 1.398 . S
C310 H298 0.950 . S
C310 C309 1.398 . S
C310 C311 1.391 . S
C311 H299 0.950 . S
C311 C307 1.393 . S
C311 C310 1.391 . S
H312 C320 0.950 . S
H313 C325 0.950 . S
H314 C322 0.950 . S
H315 C324 0.950 . S
H316 C326 0.950 . S
H317 C328 0.950 . S
H318 C330 0.950 . S
H319 C331 0.950 . S
C320 H312 0.950 . S
C320 C321 1.386 . S
C320 C322 1.391 . S
C321 C320 1.386 . S
C321 C325 1.393 1_554 S
C322 H314 0.950 . S
C322 C320 1.391 . S
C322 C323 1.400 . S
C323 C322 1.400 . S
C323 C324 1.398 1_554 S
C323 C329 1.495 . S
C324 H315 0.950 . S
C324 C323 1.398 1_556 S
C324 C325 1.391 . S
C325 H313 0.950 . S
C325 C321 1.393 1_556 S
C325 C324 1.391 . S
C326 H316 0.950 . S
C326 C327 1.386 . S
C326 C328 1.391 . S
C327 C326 1.386 . S
C327 C331 1.393 1_556 S
C328 H317 0.950 . S
C328 C326 1.391 . S
C328 C329 1.378 1_556 S
C329 C323 1.495 . S
C329 C328 1.378 1_554 S
C329 C330 1.417 . S
C330 H318 0.950 . S
C330 C329 1.417 . S
C330 C331 1.391 . S
C331 H319 0.950 . S
C331 C327 1.393 1_554 S
C331 C330 1.391 . S
H332 C340 0.950 . S
H333 C345 0.950 . S
H334 C342 0.950 . S
H335 C344 0.949 1_554 S
H336 C346 0.950 . S
H337 C348 0.950 . S
H338 C350 0.948 1_556 S
H339 C351 0.950 . S
C340 H332 0.950 . S
C340 C341 1.386 . S
C340 C342 1.391 . S
C341 C340 1.386 . S
C341 C345 1.393 . S
C342 H334 0.950 . S
C342 C340 1.391 . S
C342 C343 1.400 . S
C343 C342 1.400 . S
C343 C344 1.399 . S
C343 C349 1.491 1_556 S
C344 H335 0.949 1_556 S
C344 C343 1.399 . S
C344 C345 1.391 . S
C345 H333 0.950 . S
C345 C341 1.393 . S
C345 C344 1.391 . S
C346 H336 0.950 . S
C346 C347 1.386 . S
C346 C348 1.391 . S
C347 C346 1.386 . S
C347 C351 1.393 . S
C348 H337 0.950 . S
C348 C346 1.391 . S
C348 C349 1.400 . S
C349 C343 1.491 1_554 S
C349 C348 1.400 . S
C349 C350 1.399 . S
C350 H338 0.948 1_554 S
C350 C349 1.399 . S
C350 C351 1.392 . S
C351 H339 0.950 . S
C351 C347 1.393 . S
C351 C350 1.392 . S
H352 C360 0.958 . S
H353 C365 0.950 . S
H354 C362 0.950 . S
H355 C364 0.950 . S
H356 C366 0.958 . S
H357 C368 0.950 . S
H358 C370 0.950 . S
H359 C371 0.950 . S
C360 H352 0.958 . S
C360 C361 1.386 . S
C360 C362 1.391 1_655 S
C361 C360 1.386 . S
C361 C365 1.393 . S
C362 H354 0.950 . S
C362 C360 1.391 1_455 S
C362 C363 1.400 1_455 S
C363 C362 1.400 1_655 S
C363 C364 1.398 . S
C363 C369 1.491 1_655 S
C364 H355 0.950 . S
C364 C363 1.398 . S
C364 C365 1.391 . S
C365 H353 0.950 . S
C365 C361 1.393 . S
C365 C364 1.391 . S
C366 H356 0.958 . S
C366 C367 1.386 . S
C366 C368 1.391 1_455 S
C367 C366 1.386 . S
C367 C371 1.393 . S
C368 H357 0.950 . S
C368 C366 1.391 1_655 S
C368 C369 1.400 1_655 S
C369 C363 1.491 1_455 S
C369 C368 1.400 1_455 S
C369 C370 1.398 . S
C370 H358 0.950 . S
C370 C369 1.398 . S
C370 C371 1.391 . S
C371 H359 0.950 . S
C371 C367 1.393 . S
C371 C370 1.391 . S
H372 C380 0.944 1_565 S
H373 C385 0.950 . S
H374 C382 0.950 . S
H375 C384 0.950 . S
H376 C386 0.944 1_545 S
H377 C388 0.950 . S
H378 C390 0.950 . S
H379 C391 0.950 . S
C380 H372 0.944 1_545 S
C380 C381 1.386 . S
C380 C382 1.391 1_545 S
C381 C380 1.386 . S
C381 C385 1.393 . S
C382 H374 0.950 . S
C382 C380 1.391 1_565 S
C382 C383 1.400 1_565 S
C383 C382 1.400 1_545 S
C383 C384 1.398 . S
C383 C389 1.491 1_545 S
C384 H375 0.950 . S
C384 C383 1.398 . S
C384 C385 1.391 . S
C385 H373 0.950 . S
C385 C381 1.393 . S
C385 C384 1.391 . S
C386 H376 0.944 1_565 S
C386 C387 1.386 . S
C386 C388 1.391 1_565 S
C387 C386 1.386 . S
C387 C391 1.393 . S
C388 H377 0.950 . S
C388 C386 1.391 1_545 S
C388 C389 1.400 1_545 S
C389 C383 1.491 1_565 S
C389 C388 1.400 1_565 S
C389 C390 1.398 . S
C390 H378 0.950 . S
C390 C389 1.398 . S
C390 C391 1.391 . S
C391 H379 0.950 . S
C391 C387 1.393 . S
C391 C390 1.391 . S
H392 C400 0.950 . S
H393 C405 0.950 . S
H394 C402 0.950 . S
H395 C404 0.950 . S
H396 C406 0.950 . S
H397 C408 0.950 . S
H398 C410 0.950 . S
H399 C411 0.950 . S
C400 H392 0.950 . S
C400 C401 1.386 . S
C400 C402 1.391 . S
C401 C400 1.386 . S
C401 C405 1.393 1_556 S
C402 H394 0.950 . S
C402 C400 1.391 . S
C402 C403 1.400 . S
C403 C402 1.400 . S
C403 C404 1.398 1_556 S
C403 C409 1.491 1_545 S
C404 H395 0.950 . S
C404 C403 1.398 1_554 S
C404 C405 1.391 . S
C405 H393 0.950 . S
C405 C401 1.393 1_554 S
C405 C404 1.391 . S
C406 H396 0.950 . S
C406 C407 1.386 1_554 S
C406 C408 1.391 . S
C407 C406 1.386 1_556 S
C407 C411 1.393 . S
C408 H397 0.950 . S
C408 C406 1.391 . S
C408 C409 1.400 1_554 S
C409 C403 1.491 1_565 S
C409 C408 1.400 1_556 S
C409 C410 1.398 . S
C410 H398 0.950 . S
C410 C409 1.398 . S
C410 C411 1.391 . S
C411 H399 0.950 . S
C411 C407 1.393 . S
C411 C410 1.391 . S
H412 C420 0.950 . S
H413 C425 0.950 . S
H414 C422 0.950 . S
H415 C424 0.950 . S
H416 C426 0.950 . S
H417 C428 0.950 . S
H418 C430 0.950 . S
H419 C431 0.950 . S
C420 H412 0.950 . S
C420 C421 1.386 . S
C420 C422 1.391 . S
C421 C420 1.386 . S
C421 C425 1.393 1_554 S
C422 H414 0.950 . S
C422 C420 1.391 . S
C422 C423 1.400 . S
C423 C422 1.400 . S
C423 C424 1.398 1_554 S
C423 C429 1.491 1_455 S
C424 H415 0.950 . S
C424 C423 1.398 1_556 S
C424 C425 1.391 . S
C425 H413 0.950 . S
C425 C421 1.393 1_556 S
C425 C424 1.391 . S
C426 H416 0.950 . S
C426 C427 1.386 1_556 S
C426 C428 1.391 . S
C427 C426 1.386 1_554 S
C427 C431 1.393 . S
C428 H417 0.950 . S
C428 C426 1.391 . S
C428 C429 1.400 1_556 S
C429 C423 1.491 1_655 S
C429 C428 1.400 1_554 S
C429 C430 1.398 . S
C430 H418 0.950 . S
C430 C429 1.398 . S
C430 C431 1.391 . S
C431 H419 0.950 . S
C431 C427 1.393 . S
C431 C430 1.391 . S
C121 C106 1.559 . S
C127 C8 1.554 . S
C141 C17 1.543 . S
C147 C64 1.540 . S
C161 C36 1.554 . S
C167 C78 1.559 . S
C181 C92 1.541 . S
C187 C45 1.544 . S
C201 C21 1.388 1_545 S
C207 C3 1.387 . S
C221 C22 1.432 . S
C227 C37 1.446 1_455 S
C241 C49 1.397 1_565 S
C247 C31 1.396 . S
C261 C50 1.437 . S
C267 C9 1.445 1_655 S
C281 C107 1.500 . S
C287 C59 1.449 . S
C301 C73 1.439 . S
C307 C65 1.475 . S
C321 C79 1.499 . S
C327 C87 1.456 . S
C341 C93 1.480 . S
C347 C101 1.425 . S
C361 C35 1.062 . S
C367 C7 1.066 . S
C381 C51 1.001 . S
C387 C23 1.027 . S
C401 C91 1.088 . S
C407 C63 1.086 . S
C421 C105 1.101 . S
C427 C77 1.099 . S
