# Generated by pormake.
# Topology umy, (4)-cn, num edge types: 1
# Building blocks:
#     Node 0, Type 0, BuildingBlock: CEKHIL_clean_sbu_0, # of connection points: 4
#     Node 1, Type 0, BuildingBlock: CEKHIL_clean_sbu_0, # of connection points: 4
#     Node 2, Type 0, BuildingBlock: CEKHIL_clean_sbu_0, # of connection points: 4
#     Node 3, Type 0, BuildingBlock: CEKHIL_clean_sbu_0, # of connection points: 4
#     Node 4, Type 0, BuildingBlock: CEKHIL_clean_sbu_0, # of connection points: 4
#     Node 5, Type 0, BuildingBlock: CEKHIL_clean_sbu_0, # of connection points: 4
#     Node 6, Type 0, BuildingBlock: CEKHIL_clean_sbu_0, # of connection points: 4
#     Node 7, Type 0, BuildingBlock: CEKHIL_clean_sbu_0, # of connection points: 4
#     Node 8, Type 0, BuildingBlock: CEKHIL_clean_sbu_0, # of connection points: 4
#     Node 9, Type 0, BuildingBlock: CEKHIL_clean_sbu_0, # of connection points: 4
#     Node 10, Type 0, BuildingBlock: CEKHIL_clean_sbu_0, # of connection points: 4
#     Node 11, Type 0, BuildingBlock: CEKHIL_clean_sbu_0, # of connection points: 4
#     Edge 12, Type (0, 0), BuildingBlock: UVAHIK_clean_linker_0, # of connection points: 2
#     Edge 13, Type (0, 0), BuildingBlock: UVAHIK_clean_linker_0, # of connection points: 2
#     Edge 14, Type (0, 0), BuildingBlock: UVAHIK_clean_linker_0, # of connection points: 2
#     Edge 15, Type (0, 0), BuildingBlock: UVAHIK_clean_linker_0, # of connection points: 2
#     Edge 16, Type (0, 0), BuildingBlock: UVAHIK_clean_linker_0, # of connection points: 2
#     Edge 17, Type (0, 0), BuildingBlock: UVAHIK_clean_linker_0, # of connection points: 2
#     Edge 18, Type (0, 0), BuildingBlock: UVAHIK_clean_linker_0, # of connection points: 2
#     Edge 19, Type (0, 0), BuildingBlock: UVAHIK_clean_linker_0, # of connection points: 2
#     Edge 20, Type (0, 0), BuildingBlock: UVAHIK_clean_linker_0, # of connection points: 2
#     Edge 21, Type (0, 0), BuildingBlock: UVAHIK_clean_linker_0, # of connection points: 2
#     Edge 22, Type (0, 0), BuildingBlock: UVAHIK_clean_linker_0, # of connection points: 2
#     Edge 23, Type (0, 0), BuildingBlock: UVAHIK_clean_linker_0, # of connection points: 2
#     Edge 24, Type (0, 0), BuildingBlock: UVAHIK_clean_linker_0, # of connection points: 2
#     Edge 25, Type (0, 0), BuildingBlock: UVAHIK_clean_linker_0, # of connection points: 2
#     Edge 26, Type (0, 0), BuildingBlock: UVAHIK_clean_linker_0, # of connection points: 2
#     Edge 27, Type (0, 0), BuildingBlock: UVAHIK_clean_linker_0, # of connection points: 2
#     Edge 28, Type (0, 0), BuildingBlock: UVAHIK_clean_linker_0, # of connection points: 2
#     Edge 29, Type (0, 0), BuildingBlock: UVAHIK_clean_linker_0, # of connection points: 2
#     Edge 30, Type (0, 0), BuildingBlock: UVAHIK_clean_linker_0, # of connection points: 2
#     Edge 31, Type (0, 0), BuildingBlock: UVAHIK_clean_linker_0, # of connection points: 2
#     Edge 32, Type (0, 0), BuildingBlock: UVAHIK_clean_linker_0, # of connection points: 2
#     Edge 33, Type (0, 0), BuildingBlock: UVAHIK_clean_linker_0, # of connection points: 2
#     Edge 34, Type (0, 0), BuildingBlock: UVAHIK_clean_linker_0, # of connection points: 2
#     Edge 35, Type (0, 0), BuildingBlock: UVAHIK_clean_linker_0, # of connection points: 2
# Relax obj value: 0.116
# Max RMSD: 0.081
# Mean RMSD: 0.081
data_MOF--net-umy--node1-CEKHIL_clean_sbu_0--edge1-UVAHIK_clean_linker_0
_symmetry_space_group_name_H-M    P1
_symmetry_Int_Tables_number       1
_symmetry_cell_setting            triclinic
loop_
_symmetry_equiv_pos_as_xyz
'x, y, z'
_cell_length_a     48.805825
_cell_length_b     48.779903
_cell_length_c     66.742343
_cell_angle_alpha  90.023973
_cell_angle_beta   89.97062
_cell_angle_gamma 120.00062
loop_
_atom_site_label
_atom_site_type_symbol
_atom_site_fract_x
_atom_site_fract_y
_atom_site_fract_z
_atom_type_partial_charge
Co0 Co 0.04793 0.34319 0.1313 0.0
O1 O 0.03473 0.36338 0.11181 0.0
O2 O 0.07641 0.38843 0.13167 0.0
C3 C 0.99984 0.31149 0.14497 0.0
O4 O 0.06819 0.33091 0.15363 0.0
Co5 Co 0.02297 0.2708 0.1295 0.0
O6 O 0.04398 0.27789 0.15598 0.0
C7 C 0.07138 0.31325 0.10065 0.0
C8 C 0.05855 0.39 0.11779 0.0
C9 C 0.06373 0.30548 0.1624 0.0
O10 O 0.07484 0.33752 0.11047 0.0
O11 O 0.04989 0.28485 0.10472 0.0
O12 O 0.01643 0.34097 0.15036 0.0
O13 O 0.01126 0.30324 0.1302 0.0
Co14 Co 0.70402 0.0493 0.29953 0.0
O15 O 0.67165 0.03638 0.27935 0.0
O16 O 0.68614 0.07682 0.30004 0.0
C17 C 0.68816 0.00068 0.3122 0.0
O18 O 0.7351 0.06897 0.3227 0.0
Co19 Co 0.7531 0.02643 0.29812 0.0
O20 O 0.76432 0.04525 0.32535 0.0
C21 C 0.75923 0.07589 0.27012 0.0
C22 C 0.66778 0.05944 0.2856 0.0
C23 C 0.75557 0.06424 0.3319 0.0
O24 O 0.73736 0.07796 0.27963 0.0
O25 O 0.76686 0.05486 0.27402 0.0
O26 O 0.67425 0.01629 0.31764 0.0
O27 O 0.7086 0.01341 0.29792 0.0
Co28 Co 0.656 0.704 0.46467 0.0
O29 O 0.63542 0.6707 0.44519 0.0
O30 O 0.61072 0.68701 0.46561 0.0
C31 C 0.68826 0.68769 0.47748 0.0
O32 O 0.66879 0.73639 0.48718 0.0
Co33 Co 0.72805 0.7517 0.46213 0.0
O34 O 0.72182 0.76491 0.48912 0.0
C35 C 0.68461 0.758 0.43433 0.0
C36 C 0.60892 0.66778 0.45149 0.0
C37 C 0.69442 0.75704 0.4959 0.0
O38 O 0.66076 0.73656 0.44413 0.0
O39 O 0.71324 0.76538 0.43806 0.0
O40 O 0.65906 0.67489 0.48343 0.0
O41 O 0.69594 0.70737 0.46275 0.0
Co42 Co 0.95334 0.65839 0.63101 0.0
O43 O 0.96647 0.63879 0.61098 0.0
O44 O 0.92518 0.61309 0.63105 0.0
C45 C 0.00169 0.69018 0.64439 0.0
O46 O 0.93322 0.66976 0.65399 0.0
Co47 Co 0.97781 0.73078 0.63078 0.0
O48 O 0.95848 0.7226 0.65782 0.0
C49 C 0.92791 0.68907 0.60223 0.0
C50 C 0.94294 0.61194 0.61693 0.0
C51 C 0.93847 0.69477 0.66369 0.0
O52 O 0.92592 0.66435 0.61067 0.0
O53 O 0.94867 0.71737 0.60714 0.0
O54 O 0.98544 0.66058 0.64959 0.0
O55 O 0.98973 0.69853 0.63002 0.0
Co56 Co 0.29718 0.9516 0.79975 0.0
O57 O 0.32932 0.96361 0.7795 0.0
O58 O 0.31359 0.92281 0.80004 0.0
C59 C 0.31472 0.00048 0.81255 0.0
O60 O 0.26592 0.93263 0.82289 0.0
Co61 Co 0.25016 0.97708 0.79855 0.0
O62 O 0.23793 0.95766 0.82557 0.0
C63 C 0.24207 0.927 0.77039 0.0
C64 C 0.33218 0.93987 0.78558 0.0
C65 C 0.24578 0.93794 0.83204 0.0
O66 O 0.26333 0.92384 0.77985 0.0
O67 O 0.23559 0.94883 0.77436 0.0
O68 O 0.32771 0.98398 0.81791 0.0
O69 O 0.29418 0.98838 0.79829 0.0
Co70 Co 0.34503 0.29613 0.96544 0.0
O71 O 0.36504 0.32918 0.94572 0.0
O72 O 0.39046 0.31456 0.96673 0.0
C73 C 0.31116 0.31088 0.97766 0.0
O74 O 0.33289 0.26432 0.98826 0.0
Co75 Co 0.27341 0.24635 0.96255 0.0
O76 O 0.2799 0.23423 0.98978 0.0
C77 C 0.3185 0.24195 0.93524 0.0
C78 C 0.39181 0.33318 0.95235 0.0
C79 C 0.30737 0.24318 0.99687 0.0
O80 O 0.34179 0.26362 0.94531 0.0
O81 O 0.28959 0.23386 0.9386 0.0
O82 O 0.34041 0.32501 0.98365 0.0
O83 O 0.30445 0.29099 0.96315 0.0
Co84 Co 0.65447 0.9513 0.6981 0.0
O85 O 0.63353 0.96371 0.71749 0.0
O86 O 0.60926 0.92248 0.69719 0.0
C87 C 0.68619 1.00001 0.68523 0.0
O88 O 0.66774 0.93189 0.67574 0.0
Co89 Co 0.72681 0.97699 0.70061 0.0
O90 O 0.72081 0.95678 0.6739 0.0
C91 C 0.68388 0.92741 0.72875 0.0
C92 C 0.60719 0.93985 0.71124 0.0
C93 C 0.6935 0.93692 0.66715 0.0
O94 O 0.65978 0.92401 0.71878 0.0
O95 O 0.71229 0.9492 0.72501 0.0
O96 O 0.65708 0.98318 0.6792 0.0
O97 O 0.69407 0.98826 0.69998 0.0
Co98 Co 0.70403 0.6566 0.86546 0.0
O99 O 0.67112 0.63674 0.88528 0.0
O100 O 0.68657 0.61123 0.8649 0.0
C101 C 0.68814 0.68917 0.85249 0.0
O102 O 0.73592 0.66855 0.84272 0.0
Co103 Co 0.75238 0.72882 0.86729 0.0
O104 O 0.76545 0.72155 0.84055 0.0
C105 C 0.75822 0.68557 0.89553 0.0
C106 C 0.66774 0.60996 0.87913 0.0
C107 C 0.75701 0.6939 0.83394 0.0
O108 O 0.73697 0.66152 0.88577 0.0
O109 O 0.76539 0.71412 0.89169 0.0
O110 O 0.67461 0.65973 0.84691 0.0
O111 O 0.70811 0.69682 0.86701 0.0
Co112 Co 0.04738 0.70348 0.03341 0.0
O113 O 0.03351 0.66982 0.05276 0.0
O114 O 0.07529 0.68605 0.03303 0.0
C115 C 0.99951 0.6881 0.01971 0.0
O116 O 0.06816 0.73616 0.01117 0.0
Co117 Co 0.02353 0.75181 0.03552 0.0
O118 O 0.04454 0.76554 0.00901 0.0
C119 C 0.07132 0.75645 0.06436 0.0
C120 C 0.05714 0.66667 0.04686 0.0
C121 C 0.06398 0.75737 0.00248 0.0
O122 O 0.07457 0.73566 0.05435 0.0
O123 O 0.0501 0.76377 0.0604 0.0
O124 O 0.01562 0.67474 0.01422 0.0
O125 O 0.01121 0.70752 0.03457 0.0
Co126 Co 0.34349 0.04785 0.1998 0.0
O127 O 0.36349 0.03449 0.21931 0.0
O128 O 0.38889 0.07517 0.19873 0.0
C129 C 0.31005 0.99943 0.18712 0.0
O130 O 0.33138 0.06799 0.17728 0.0
Co131 Co 0.2717 0.02531 0.20253 0.0
O132 O 0.27841 0.04507 0.17564 0.0
C133 C 0.31625 0.07447 0.23024 0.0
C134 C 0.39025 0.05757 0.21288 0.0
C135 C 0.30593 0.06393 0.16874 0.0
O136 O 0.33976 0.0764 0.22026 0.0
O137 O 0.28742 0.0536 0.22668 0.0
O138 O 0.33933 0.01495 0.18121 0.0
O139 O 0.30303 0.01212 0.20177 0.0
Co140 Co 0.29627 0.34518 0.36537 0.0
O141 O 0.32879 0.36544 0.38538 0.0
O142 O 0.31321 0.39047 0.36471 0.0
C143 C 0.31303 0.31315 0.35268 0.0
O144 O 0.26476 0.33276 0.34239 0.0
Co145 Co 0.24856 0.27286 0.36722 0.0
O146 O 0.2362 0.2797 0.34016 0.0
C147 C 0.24178 0.3158 0.39524 0.0
C148 C 0.33195 0.39205 0.37908 0.0
C149 C 0.24434 0.30722 0.33345 0.0
O150 O 0.26289 0.3399 0.38544 0.0
O151 O 0.23498 0.28733 0.3915 0.0
O152 O 0.32627 0.34258 0.34713 0.0
O153 O 0.29275 0.30518 0.36708 0.0
Co154 Co 0.95323 0.29695 0.53392 0.0
O155 O 0.96636 0.32994 0.55376 0.0
O156 O 0.92509 0.31409 0.53365 0.0
C157 C 0.00163 0.31339 0.5206 0.0
O158 O 0.93301 0.26506 0.51116 0.0
Co159 Co 0.97777 0.24909 0.53453 0.0
O160 O 0.95735 0.23652 0.50785 0.0
C161 C 0.92772 0.24111 0.56292 0.0
C162 C 0.94284 0.33317 0.54771 0.0
C163 C 0.93753 0.2445 0.50186 0.0
O164 O 0.92578 0.2638 0.55438 0.0
O165 O 0.94852 0.23358 0.55814 0.0
O166 O 0.98535 0.32661 0.51522 0.0
O167 O 0.98963 0.29324 0.53506 0.0
C168 C 0.08621 0.63632 0.0474 0.0
C169 C 0.06229 0.6414 0.05507 0.0
C170 C 0.08975 0.61125 0.05448 0.0
C171 C 0.06978 0.55563 0.09684 0.0
H172 H 0.07802 0.50139 0.05769 0.0
C173 C 0.04731 0.42131 0.09281 0.0
C174 C 0.06402 0.4206 0.10975 0.0
C175 C 0.05084 0.44993 0.08587 0.0
C176 C 0.0758 0.51638 0.06879 0.0
H177 H 0.02372 0.62453 0.07646 0.0
H178 H 0.02993 0.58093 0.08878 0.0
H179 H 0.07727 0.54874 0.04655 0.0
H180 H 0.0979 0.44939 0.13255 0.0
H181 H 0.10377 0.49946 0.12054 0.0
H182 H 0.06769 0.5229 0.11903 0.0
C183 C 0.04609 0.59642 0.0774 0.0
C184 C 0.07564 0.54362 0.06244 0.0
C185 C 0.04244 0.62132 0.07025 0.0
C186 C 0.08475 0.44919 0.11943 0.0
C187 C 0.08798 0.47781 0.11264 0.0
C188 C 0.07027 0.52857 0.10321 0.0
C189 C 0.06959 0.5909 0.06947 0.0
C190 C 0.07216 0.5633 0.07637 0.0
C191 C 0.07089 0.47844 0.09586 0.0
C192 C 0.07284 0.50842 0.08922 0.0
H193 H 0.10192 0.65142 0.03572 0.0
H194 H 0.10826 0.60777 0.04821 0.0
H195 H 0.06732 0.57046 0.10794 0.0
H196 H 0.03116 0.39968 0.08502 0.0
H197 H 0.03713 0.44963 0.07303 0.0
C198 C 0.62506 0.04709 0.26051 0.0
C199 C 0.64267 0.06462 0.27719 0.0
C200 C 0.60005 0.05044 0.25323 0.0
C201 C 0.55816 0.07375 0.23496 0.0
H202 H 0.49824 0.07194 0.27388 0.0
C203 C 0.44957 0.08483 0.21208 0.0
C204 C 0.42073 0.06272 0.22094 0.0
C205 C 0.47817 0.08831 0.21911 0.0
C206 C 0.51476 0.07248 0.26283 0.0
H207 H 0.64824 0.09989 0.29909 0.0
H208 H 0.60439 0.10565 0.28639 0.0
H209 H 0.54583 0.07215 0.28535 0.0
H210 H 0.39932 0.02741 0.24437 0.0
H211 H 0.44909 0.03352 0.25662 0.0
H212 H 0.52669 0.0733 0.21243 0.0
C213 C 0.60989 0.08921 0.27902 0.0
C214 C 0.54218 0.07291 0.2694 0.0
C215 C 0.63511 0.08604 0.28621 0.0
C216 C 0.42113 0.04467 0.23722 0.0
C217 C 0.44968 0.0483 0.24433 0.0
C218 C 0.53084 0.07354 0.22839 0.0
C219 C 0.59192 0.07124 0.26254 0.0
C220 C 0.56398 0.07312 0.25554 0.0
C221 C 0.47852 0.06994 0.23525 0.0
C222 C 0.50862 0.07247 0.24225 0.0
H223 H 0.63029 0.03039 0.25321 0.0
H224 H 0.58647 0.036 0.24065 0.0
H225 H 0.57464 0.07418 0.22392 0.0
H226 H 0.45004 0.0991 0.19951 0.0
H227 H 0.50003 0.10538 0.21193 0.0
C228 C 0.57755 0.62434 0.42705 0.0
C229 C 0.57825 0.64295 0.44333 0.0
C230 C 0.54883 0.59975 0.41988 0.0
C231 C 0.46755 0.54467 0.43584 0.0
H232 H 0.45274 0.52753 0.37892 0.0
C233 C 0.36386 0.4514 0.37816 0.0
C234 C 0.35668 0.42266 0.38738 0.0
C235 C 0.38879 0.48008 0.38527 0.0
C236 C 0.45633 0.53218 0.39486 0.0
H237 H 0.54929 0.6507 0.46466 0.0
H238 H 0.49897 0.60755 0.45215 0.0
H239 H 0.5003 0.57509 0.39029 0.0
H240 H 0.3694 0.40154 0.41161 0.0
H241 H 0.41269 0.45147 0.42403 0.0
H242 H 0.42376 0.50152 0.4404 0.0
C243 C 0.52074 0.61196 0.44501 0.0
C244 C 0.48372 0.55926 0.40137 0.0
C245 C 0.54952 0.63676 0.4521 0.0
C246 C 0.37434 0.42327 0.40417 0.0
C247 C 0.39905 0.45192 0.41136 0.0
C248 C 0.44025 0.51747 0.42933 0.0
C249 C 0.5201 0.59305 0.4289 0.0
C250 C 0.48984 0.56561 0.42194 0.0
C251 C 0.40682 0.48062 0.40186 0.0
C252 C 0.43453 0.51071 0.40877 0.0
H253 H 0.59926 0.62847 0.41996 0.0
H254 H 0.54921 0.5854 0.40761 0.0
H255 H 0.47168 0.54875 0.45178 0.0
H256 H 0.35068 0.45169 0.3652 0.0
H257 H 0.39404 0.50184 0.37774 0.0
C258 C 0.91555 0.5526 0.61748 0.0
C259 C 0.93782 0.5815 0.60875 0.0
C260 C 0.91249 0.52405 0.61067 0.0
C261 C 0.93003 0.48716 0.56784 0.0
H262 H 0.92791 0.42828 0.60769 0.0
C263 C 0.95529 0.37673 0.57223 0.0
C264 C 0.93767 0.35853 0.55574 0.0
C265 C 0.95205 0.40208 0.57904 0.0
C266 C 0.92847 0.44448 0.59639 0.0
H267 H 0.97374 0.60302 0.58568 0.0
H268 H 0.96828 0.55326 0.57377 0.0
H269 H 0.92824 0.47634 0.6184 0.0
H270 H 0.9024 0.3523 0.53369 0.0
H271 H 0.89687 0.39674 0.54555 0.0
H272 H 0.9309 0.4556 0.54585 0.0
C273 C 0.95311 0.55262 0.58582 0.0
C274 C 0.92837 0.47186 0.60251 0.0
C275 C 0.95634 0.58116 0.59272 0.0
C276 C 0.91629 0.36586 0.54644 0.0
C277 C 0.91327 0.39142 0.55315 0.0
C278 C 0.92986 0.45964 0.56172 0.0
C279 C 0.93144 0.52376 0.59488 0.0
C280 C 0.92952 0.4937 0.58831 0.0
C281 C 0.93131 0.40998 0.56942 0.0
C282 C 0.92945 0.43817 0.57593 0.0
H283 H 0.90092 0.55206 0.62985 0.0
H284 H 0.89535 0.50217 0.61782 0.0
H285 H 0.93068 0.50339 0.55653 0.0
H286 H 0.97198 0.37171 0.57972 0.0
H287 H 0.96651 0.41608 0.5915 0.0
C288 C 0.57555 0.95078 0.73611 0.0
C289 C 0.57641 0.93364 0.71943 0.0
C290 C 0.54678 0.94642 0.74333 0.0
C291 C 0.48146 0.92114 0.76162 0.0
H292 H 0.42281 0.92238 0.72296 0.0
C293 C 0.36277 0.91107 0.78554 0.0
C294 C 0.3564 0.93355 0.77689 0.0
C295 C 0.38722 0.90682 0.77808 0.0
C296 C 0.43893 0.92195 0.73393 0.0
H297 H 0.5477 0.89808 0.69742 0.0
H298 H 0.49726 0.89057 0.71001 0.0
H299 H 0.47044 0.92276 0.71128 0.0
H300 H 0.37004 0.96855 0.75328 0.0
H301 H 0.41253 0.96111 0.74029 0.0
H302 H 0.45046 0.92127 0.78428 0.0
C303 C 0.51895 0.90745 0.71744 0.0
C304 C 0.46605 0.92185 0.72724 0.0
C305 C 0.54779 0.91163 0.71031 0.0
C306 C 0.37435 0.95104 0.7603 0.0
C307 C 0.39859 0.94663 0.75276 0.0
C308 C 0.45424 0.92101 0.76831 0.0
C309 C 0.51817 0.92496 0.73397 0.0
C310 C 0.4879 0.92201 0.74102 0.0
C311 C 0.40559 0.92477 0.76171 0.0
C312 C 0.43294 0.92196 0.75455 0.0
H313 H 0.59718 0.96792 0.74348 0.0
H314 H 0.54704 0.96056 0.75593 0.0
H315 H 0.49771 0.92096 0.7726 0.0
H316 H 0.34933 0.8972 0.79834 0.0
H317 H 0.39185 0.88959 0.78519 0.0
C318 C 0.42272 0.37631 0.9276 0.0
C319 C 0.42229 0.35848 0.94425 0.0
C320 C 0.45125 0.40123 0.92043 0.0
C321 C 0.53181 0.45846 0.93661 0.0
H322 H 0.54764 0.47362 0.87961 0.0
C323 C 0.62466 0.57925 0.90395 0.0
C324 C 0.64281 0.57952 0.88752 0.0
C325 C 0.59993 0.55073 0.91128 0.0
C326 C 0.54376 0.46955 0.89557 0.0
H327 H 0.45154 0.35251 0.96627 0.0
H328 H 0.50148 0.39622 0.95377 0.0
H329 H 0.50037 0.42595 0.89119 0.0
H330 H 0.64964 0.55 0.86612 0.0
H331 H 0.60628 0.50008 0.87892 0.0
H332 H 0.57503 0.50224 0.94099 0.0
C333 C 0.47966 0.39095 0.94633 0.0
C334 C 0.51653 0.4424 0.90221 0.0
C335 C 0.45109 0.36582 0.95342 0.0
C336 C 0.63606 0.55058 0.87879 0.0
C337 C 0.61114 0.52201 0.88605 0.0
C338 C 0.55894 0.48572 0.92998 0.0
C339 C 0.48003 0.40905 0.92982 0.0
C340 C 0.51006 0.43672 0.9228 0.0
C341 C 0.59265 0.5218 0.90229 0.0
C342 C 0.56504 0.49176 0.90938 0.0
H343 H 0.40094 0.37127 0.9202 0.0
H344 H 0.45066 0.41494 0.90785 0.0
H345 H 0.5274 0.45491 0.95257 0.0
H346 H 0.62925 0.60114 0.91101 0.0
H347 H 0.58593 0.55142 0.92366 0.0
C348 C 0.08666 0.29438 0.07007 0.0
C349 C 0.09456 0.31769 0.08483 0.0
C350 C 0.10947 0.29628 0.05663 0.0
C351 C 0.19144 0.34938 0.03756 0.0
H352 H 0.18699 0.2693 0.02607 0.0
C353 C 0.29466 0.33737 0.00334 0.0
C354 C 0.28651 0.31457 0.98818 0.0
C355 C 0.27112 0.33977 0.01386 0.0
C356 C 0.18839 0.29183 0.02896 0.0
H357 H 0.13235 0.36198 0.09656 0.0
H358 H 0.17251 0.36486 0.07349 0.0
H359 H 0.14618 0.27012 0.04647 0.0
H360 H 0.24735 0.27687 0.97187 0.0
H361 H 0.20635 0.2808 0.9904 0.0
H362 H 0.23448 0.371 0.02046 0.0
C363 C 0.14852 0.34537 0.07201 0.0
C364 C 0.16488 0.29233 0.04059 0.0
C365 C 0.1255 0.3437 0.0853 0.0
C366 C 0.25441 0.2946 0.98352 0.0
C367 C 0.23091 0.29676 0.99417 0.0
C368 C 0.21522 0.34888 0.02606 0.0
C369 C 0.14096 0.32127 0.0578 0.0
C370 C 0.16596 0.32108 0.04501 0.0
C371 C 0.23898 0.31917 0.00956 0.0
C372 C 0.21385 0.32006 0.0216 0.0
H373 H 0.0629 0.27426 0.06913 0.0
H374 H 0.10247 0.27777 0.04553 0.0
H375 H 0.19293 0.37193 0.04044 0.0
H376 H 0.31921 0.35314 0.00723 0.0
H377 H 0.27802 0.35712 0.02574 0.0
C378 C 0.78075 0.13007 0.25515 0.0
C379 C 0.77796 0.09994 0.25472 0.0
C380 C 0.8013 0.1538 0.24194 0.0
C381 C 0.84438 0.16796 0.19433 0.0
H382 H 0.90677 0.24714 0.21849 0.0
C383 C 0.95827 0.25574 0.15266 0.0
C384 C 0.97151 0.28831 0.15619 0.0
C385 C 0.93228 0.2337 0.16378 0.0
C386 C 0.88921 0.22549 0.21135 0.0
H387 H 0.79337 0.07069 0.23948 0.0
H388 H 0.82864 0.11187 0.21626 0.0
H389 H 0.86439 0.207 0.23901 0.0
H390 H 0.96741 0.32342 0.1738 0.0
H391 H 0.92139 0.28505 0.19281 0.0
H392 H 0.86888 0.18628 0.16666 0.0
C393 C 0.81516 0.1172 0.22688 0.0
C394 C 0.86495 0.20245 0.22317 0.0
C395 C 0.79507 0.09368 0.24026 0.0
C396 C 0.95783 0.29844 0.17083 0.0
C397 C 0.93155 0.27639 0.18181 0.0
C398 C 0.86838 0.19114 0.18245 0.0
C399 C 0.81895 0.14766 0.22783 0.0
C400 C 0.84263 0.17325 0.21485 0.0
C401 C 0.91857 0.24368 0.17856 0.0
C402 C 0.89151 0.22 0.19087 0.0
H403 H 0.76798 0.13567 0.26615 0.0
H404 H 0.80366 0.17706 0.24291 0.0
H405 H 0.82726 0.14577 0.18749 0.0
H406 H 0.96835 0.24717 0.14154 0.0
H407 H 0.92343 0.20878 0.16107 0.0
C408 C 0.70275 0.79429 0.40465 0.0
C409 C 0.67922 0.77668 0.41893 0.0
C410 C 0.69926 0.8145 0.3914 0.0
C411 C 0.66257 0.86333 0.38812 0.0
H412 H 0.6849 0.87016 0.33186 0.0
C413 C 0.65881 0.95709 0.33705 0.0
C414 C 0.6832 0.972 0.32289 0.0
C415 C 0.65479 0.93052 0.34758 0.0
C416 C 0.6789 0.86883 0.34758 0.0
H417 H 0.63309 0.76584 0.43006 0.0
H418 H 0.62727 0.80162 0.40703 0.0
H419 H 0.68405 0.82813 0.35213 0.0
H420 H 0.7224 0.97069 0.30857 0.0
H421 H 0.71617 0.9252 0.32733 0.0
H422 H 0.65873 0.90472 0.38395 0.0
C423 C 0.64837 0.79963 0.40614 0.0
C424 C 0.67824 0.84461 0.35915 0.0
C425 C 0.65164 0.77901 0.41922 0.0
C426 C 0.7033 0.95966 0.31934 0.0
C427 C 0.69953 0.93335 0.33001 0.0
C428 C 0.6636 0.8878 0.37663 0.0
C429 C 0.67235 0.81788 0.39228 0.0
C430 C 0.6704 0.84181 0.37958 0.0
C431 C 0.67529 0.91845 0.34434 0.0
C432 C 0.67216 0.89113 0.35625 0.0
H433 H 0.72423 0.79296 0.40396 0.0
H434 H 0.71823 0.82843 0.38097 0.0
H435 H 0.65684 0.862 0.4039 0.0
H436 H 0.64281 0.96595 0.34001 0.0
H437 H 0.63554 0.91942 0.35822 0.0
C438 C 0.74129 0.6917 0.47909 0.0
C439 C 0.71192 0.68254 0.48803 0.0
C440 C 0.76432 0.68824 0.48936 0.0
C441 C 0.7774 0.65089 0.5347 0.0
H442 H 0.86395 0.7187 0.52799 0.0
C443 C 0.88159 0.6552 0.5796 0.0
C444 C 0.90431 0.68521 0.58679 0.0
C445 C 0.8586 0.65214 0.56575 0.0
C446 C 0.8399 0.69962 0.53017 0.0
H447 H 0.68341 0.66225 0.51464 0.0
H448 H 0.72395 0.65739 0.53295 0.0
H449 H 0.82249 0.71844 0.50795 0.0
H450 H 0.9205 0.73553 0.58489 0.0
H451 H 0.88046 0.73013 0.56146 0.0
H452 H 0.79481 0.63324 0.55786 0.0
C453 C 0.72904 0.66638 0.51777 0.0
C454 C 0.81606 0.69918 0.51839 0.0
C455 C 0.70581 0.66938 0.50734 0.0
C456 C 0.90364 0.712 0.57964 0.0
C457 C 0.88067 0.70893 0.566 0.0
C458 C 0.80127 0.65155 0.54668 0.0
C459 C 0.75877 0.67607 0.50901 0.0
C460 C 0.78437 0.67505 0.52065 0.0
C461 C 0.85777 0.67901 0.55886 0.0
C462 C 0.83276 0.67627 0.54482 0.0
H463 H 0.74653 0.70164 0.46413 0.0
H464 H 0.78657 0.6953 0.4819 0.0
H465 H 0.7534 0.63159 0.53664 0.0
H466 H 0.88142 0.63406 0.58474 0.0
H467 H 0.84152 0.62874 0.56043 0.0
C468 C 0.04262 0.74614 0.65187 0.0
C469 C 0.02951 0.71369 0.65587 0.0
C470 C 0.06754 0.76867 0.66345 0.0
C471 C 0.13273 0.78203 0.69671 0.0
H472 H 0.12224 0.85034 0.71769 0.0
C473 C 0.21757 0.87228 0.75577 0.0
C474 C 0.2225 0.90323 0.75507 0.0
C475 C 0.19583 0.8489 0.74282 0.0
C476 C 0.12594 0.83182 0.71169 0.0
H477 H 0.03298 0.67935 0.67471 0.0
H478 H 0.07708 0.71897 0.69484 0.0
H479 H 0.08122 0.81003 0.69669 0.0
H480 H 0.21014 0.93444 0.73937 0.0
H481 H 0.17342 0.89426 0.71635 0.0
H482 H 0.17777 0.80415 0.71142 0.0
C483 C 0.06783 0.72682 0.68277 0.0
C484 C 0.10228 0.8086 0.69973 0.0
C485 C 0.04255 0.7042 0.67131 0.0
C486 C 0.20653 0.9107 0.74049 0.0
C487 C 0.18524 0.88753 0.72738 0.0
C488 C 0.15669 0.80556 0.70851 0.0
C489 C 0.08021 0.7593 0.67914 0.0
C490 C 0.10543 0.78353 0.69206 0.0
C491 C 0.17888 0.85609 0.72873 0.0
C492 C 0.15366 0.83087 0.71609 0.0
H493 H 0.03327 0.75425 0.64002 0.0
H494 H 0.07687 0.79354 0.66017 0.0
H495 H 0.13581 0.76301 0.69088 0.0
H496 H 0.22942 0.86576 0.76691 0.0
H497 H 0.19146 0.82496 0.74443 0.0
C498 C 0.30174 0.04308 0.8195 0.0
C499 C 0.32065 0.02946 0.8233 0.0
C500 C 0.30632 0.06966 0.83021 0.0
C501 C 0.34143 0.11355 0.87738 0.0
H502 H 0.32445 0.17551 0.8527 0.0
C503 C 0.35234 0.22141 0.92081 0.0
C504 C 0.32489 0.22392 0.91988 0.0
C505 C 0.35636 0.20129 0.90768 0.0
C506 C 0.32933 0.15841 0.85976 0.0
H507 H 0.35978 0.0335 0.84093 0.0
H508 H 0.36843 0.08048 0.85927 0.0
H509 H 0.32353 0.13357 0.83227 0.0
H510 H 0.28098 0.20858 0.90377 0.0
H511 H 0.2883 0.17402 0.88071 0.0
H512 H 0.34723 0.13859 0.90488 0.0
C513 C 0.34951 0.0702 0.84835 0.0
C514 C 0.32862 0.13424 0.84811 0.0
C515 C 0.34469 0.04337 0.83776 0.0
C516 C 0.30231 0.20707 0.90495 0.0
C517 C 0.30658 0.1874 0.89166 0.0
C518 C 0.34252 0.13797 0.88898 0.0
C519 C 0.33018 0.08355 0.84485 0.0
C520 C 0.33396 0.11105 0.85684 0.0
C521 C 0.3333 0.18378 0.89315 0.0
C522 C 0.33584 0.16025 0.88037 0.0
H523 H 0.28294 0.03287 0.8085 0.0
H524 H 0.29054 0.0788 0.82732 0.0
H525 H 0.34525 0.09597 0.88473 0.0
H526 H 0.37013 0.23401 0.93218 0.0
H527 H 0.37728 0.19906 0.90907 0.0
C528 C 0.66142 0.70422 0.82609 0.0
C529 C 0.68385 0.71313 0.84154 0.0
C530 C 0.65861 0.72723 0.81519 0.0
C531 C 0.70544 0.81002 0.79989 0.0
H532 H 0.62501 0.80405 0.78752 0.0
C533 C 0.70214 0.91167 0.75936 0.0
C534 C 0.67928 0.90387 0.74433 0.0
C535 C 0.7002 0.88862 0.77259 0.0
C536 C 0.64765 0.80592 0.79065 0.0
H537 H 0.72039 0.75306 0.85799 0.0
H538 H 0.71576 0.79307 0.83884 0.0
H539 H 0.62624 0.76272 0.80761 0.0
H540 H 0.63573 0.86595 0.73187 0.0
H541 H 0.63281 0.82537 0.75459 0.0
H542 H 0.72699 0.85243 0.78258 0.0
C543 C 0.70043 0.76835 0.8351 0.0
C544 C 0.64832 0.78227 0.80219 0.0
C545 C 0.70299 0.7454 0.84611 0.0
C546 C 0.65365 0.87273 0.74336 0.0
C547 C 0.65196 0.84947 0.75644 0.0
C548 C 0.70478 0.83339 0.78822 0.0
C549 C 0.67844 0.75956 0.81941 0.0
C550 C 0.67727 0.78423 0.80703 0.0
C551 C 0.67566 0.85698 0.77093 0.0
C552 C 0.67592 0.83185 0.78353 0.0
H553 H 0.64629 0.67951 0.82226 0.0
H554 H 0.64158 0.71979 0.80309 0.0
H555 H 0.72807 0.81186 0.80307 0.0
H556 H 0.72194 0.93556 0.76068 0.0
H557 H 0.71836 0.89556 0.78392 0.0
C558 C 0.78252 0.65502 0.90984 0.0
C559 C 0.77719 0.68076 0.91096 0.0
C560 C 0.80423 0.65323 0.92273 0.0
C561 C 0.87364 0.70589 0.95423 0.0
H562 H 0.86535 0.6272 0.9737 0.0
C563 C 0.95868 0.70347 0.01275 0.0
C564 C 0.97175 0.68421 0.00837 0.0
C565 C 0.93355 0.70116 0.00145 0.0
C566 C 0.868 0.64932 0.96824 0.0
H567 H 0.78864 0.72351 0.9274 0.0
H568 H 0.82528 0.71975 0.95032 0.0
H569 H 0.82288 0.62614 0.95361 0.0
H570 H 0.96814 0.64679 0.98906 0.0
H571 H 0.92377 0.6425 0.9694 0.0
H572 H 0.91847 0.72906 0.96908 0.0
C573 C 0.81382 0.70159 0.939 0.0
C574 C 0.84374 0.64874 0.95671 0.0
C575 C 0.79257 0.70362 0.92596 0.0
C576 C 0.95859 0.66199 0.99276 0.0
C577 C 0.93314 0.65942 0.98157 0.0
C578 C 0.89762 0.70646 0.9659 0.0
C579 C 0.82073 0.67694 0.93717 0.0
C580 C 0.8462 0.67707 0.94961 0.0
C581 C 0.92067 0.67931 0.98565 0.0
C582 C 0.89505 0.67823 0.97309 0.0
H583 H 0.77113 0.63711 0.89836 0.0
H584 H 0.80902 0.63399 0.92077 0.0
H585 H 0.87691 0.72814 0.94858 0.0
H586 H 0.96817 0.72073 0.02473 0.0
H587 H 0.92418 0.71655 0.00507 0.0
C588 C 0.29414 0.95691 0.16117 0.0
C589 C 0.28569 0.97103 0.1765 0.0
C590 C 0.27083 0.93083 0.15062 0.0
C591 C 0.18778 0.89462 0.136 0.0
H592 H 0.19388 0.82009 0.12387 0.0
C593 C 0.08649 0.78961 0.09534 0.0
C594 C 0.09452 0.77482 0.08023 0.0
C595 C 0.10934 0.81051 0.10875 0.0
C596 C 0.19195 0.84086 0.12695 0.0
H597 H 0.24626 0.9685 0.1931 0.0
H598 H 0.20568 0.92333 0.17456 0.0
H599 H 0.23529 0.86296 0.14373 0.0
H600 H 0.13256 0.76933 0.06786 0.0
H601 H 0.1728 0.80664 0.09089 0.0
H602 H 0.14525 0.87346 0.11883 0.0
C603 C 0.23029 0.93245 0.17065 0.0
C604 C 0.21565 0.86536 0.13836 0.0
C605 C 0.25355 0.95826 0.1813 0.0
C606 C 0.12563 0.78028 0.0794 0.0
C607 C 0.14869 0.80165 0.09266 0.0
C608 C 0.16435 0.87039 0.12446 0.0
C609 C 0.23864 0.91862 0.15508 0.0
C610 C 0.2137 0.89242 0.14306 0.0
C611 C 0.14099 0.81767 0.10718 0.0
C612 C 0.16597 0.84308 0.11983 0.0
H613 H 0.31873 0.9662 0.15716 0.0
H614 H 0.27794 0.92077 0.13861 0.0
H615 H 0.18593 0.91545 0.13907 0.0
H616 H 0.06259 0.78553 0.09655 0.0
H617 H 0.10225 0.82159 0.1201 0.0
C618 C 0.29931 0.0928 0.26038 0.0
C619 C 0.32226 0.09868 0.24568 0.0
C620 C 0.3032 0.11663 0.27365 0.0
C621 C 0.33912 0.20205 0.27644 0.0
H622 H 0.31909 0.18734 0.33303 0.0
C623 C 0.34238 0.29944 0.32749 0.0
C624 C 0.31838 0.2897 0.34196 0.0
C625 C 0.34671 0.27711 0.31692 0.0
C626 C 0.32445 0.19179 0.31722 0.0
H627 H 0.36778 0.134 0.23379 0.0
H628 H 0.37429 0.17589 0.25687 0.0
H629 H 0.31999 0.14621 0.31271 0.0
H630 H 0.2802 0.24894 0.35677 0.0
H631 H 0.28694 0.21004 0.33796 0.0
H632 H 0.34221 0.24696 0.28059 0.0
C633 C 0.35336 0.15271 0.25808 0.0
C634 C 0.32515 0.16826 0.30563 0.0
C635 C 0.34971 0.12869 0.24498 0.0
C636 C 0.29899 0.25722 0.34577 0.0
C637 C 0.30306 0.23489 0.33506 0.0
C638 C 0.33805 0.22545 0.28797 0.0
C639 C 0.32992 0.14702 0.27237 0.0
C640 C 0.33212 0.17301 0.28508 0.0
C641 C 0.3269 0.24449 0.32042 0.0
C642 C 0.33028 0.22048 0.30847 0.0
H643 H 0.27795 0.06991 0.26138 0.0
H644 H 0.28464 0.11161 0.28441 0.0
H645 H 0.34416 0.2062 0.26057 0.0
H646 H 0.35784 0.32435 0.32432 0.0
H647 H 0.36564 0.28547 0.30602 0.0
C648 C 0.2075 0.29772 0.42573 0.0
C649 C 0.22275 0.32053 0.41069 0.0
C650 C 0.18651 0.29991 0.43894 0.0
C651 C 0.15726 0.35318 0.45703 0.0
H652 H 0.0826 0.2731 0.46993 0.0
C653 C 0.04263 0.34 0.49371 0.0
C654 C 0.02966 0.31779 0.50933 0.0
C655 C 0.06814 0.34273 0.48247 0.0
C656 C 0.10344 0.29564 0.4666 0.0
H657 H 0.22882 0.36422 0.39816 0.0
H658 H 0.19134 0.36758 0.42085 0.0
H659 H 0.12369 0.27369 0.44909 0.0
H660 H 0.03379 0.28166 0.52577 0.0
H661 H 0.07782 0.28613 0.50603 0.0
H662 H 0.13605 0.37498 0.4742 0.0
C663 C 0.19605 0.34827 0.42272 0.0
C664 C 0.12715 0.29602 0.45473 0.0
C665 C 0.21751 0.34633 0.40966 0.0
C666 C 0.04308 0.29886 0.51376 0.0
C667 C 0.06825 0.30134 0.50242 0.0
C668 C 0.13324 0.35279 0.46876 0.0
C669 C 0.17972 0.32466 0.43725 0.0
C670 C 0.15456 0.32474 0.44991 0.0
C671 C 0.08084 0.32303 0.48652 0.0
C672 C 0.10622 0.32396 0.47379 0.0
H673 H 0.2114 0.2778 0.4271 0.0
H674 H 0.1752 0.28181 0.45031 0.0
H675 H 0.1781 0.37572 0.45379 0.0
H676 H 0.03283 0.35497 0.48999 0.0
H677 H 0.07731 0.35955 0.47024 0.0
C678 C 0.88057 0.22807 0.58493 0.0
C679 C 0.90386 0.22126 0.57823 0.0
C680 C 0.85719 0.20785 0.59849 0.0
C681 C 0.83806 0.14174 0.63423 0.0
H682 H 0.75137 0.1217 0.62614 0.0
C683 C 0.70392 0.03602 0.6554 0.0
C684 C 0.70963 0.02914 0.67486 0.0
C685 C 0.72716 0.06254 0.64516 0.0
C686 C 0.77542 0.12684 0.62853 0.0
H687 H 0.92071 0.18772 0.58075 0.0
H688 H 0.88004 0.15259 0.60369 0.0
H689 H 0.79328 0.16203 0.60543 0.0
H690 H 0.74343 0.04531 0.69924 0.0
H691 H 0.78338 0.09216 0.68182 0.0
H692 H 0.82029 0.10542 0.65638 0.0
C693 C 0.88006 0.17384 0.59898 0.0
C694 C 0.79957 0.15037 0.61684 0.0
C695 C 0.9034 0.19402 0.58562 0.0
C696 C 0.73851 0.04985 0.68415 0.0
C697 C 0.76151 0.07662 0.67408 0.0
C698 C 0.81397 0.11803 0.64571 0.0
C699 C 0.85656 0.18034 0.60559 0.0
C700 C 0.83115 0.15773 0.6193 0.0
C701 C 0.75646 0.08304 0.65428 0.0
C702 C 0.78222 0.10991 0.64288 0.0
H703 H 0.88021 0.24885 0.57958 0.0
H704 H 0.83964 0.21378 0.60342 0.0
H705 H 0.86215 0.14715 0.63686 0.0
H706 H 0.68188 0.02037 0.64784 0.0
H707 H 0.72247 0.06633 0.62986 0.0
C708 C 0.23537 0.33919 0.30732 0.0
C709 C 0.22875 0.3096 0.31495 0.0
C710 C 0.21972 0.34105 0.29024 0.0
C711 C 0.17373 0.29418 0.24629 0.0
H712 H 0.14077 0.35189 0.2455 0.0
C713 C 0.0796 0.28066 0.18953 0.0
C714 C 0.08318 0.30811 0.18018 0.0
C715 C 0.09885 0.28283 0.20561 0.0
C716 C 0.15017 0.33593 0.2454 0.0
H717 H 0.20053 0.25878 0.31039 0.0
H718 H 0.17326 0.26209 0.28093 0.0
H719 H 0.17246 0.35229 0.27398 0.0
H720 H 0.10959 0.35949 0.18083 0.0
H721 H 0.14326 0.3632 0.20899 0.0
H722 H 0.15113 0.27748 0.2179 0.0
C723 C 0.19082 0.28389 0.28794 0.0
C724 C 0.16836 0.33619 0.26169 0.0
C725 C 0.20637 0.28201 0.30497 0.0
C726 C 0.10615 0.33785 0.18764 0.0
C727 C 0.12539 0.34 0.20382 0.0
C728 C 0.15554 0.29388 0.23007 0.0
C729 C 0.19722 0.31339 0.28038 0.0
C730 C 0.17993 0.31495 0.26246 0.0
C731 C 0.12218 0.31249 0.21282 0.0
C732 C 0.14313 0.31439 0.22957 0.0
H733 H 0.25248 0.36094 0.3146 0.0
H734 H 0.22541 0.36416 0.28468 0.0
H735 H 0.18285 0.27799 0.24619 0.0
H736 H 0.06208 0.25734 0.18432 0.0
H737 H 0.09536 0.26119 0.21245 0.0
C738 C 0.89561 0.23576 0.47652 0.0
C739 C 0.91775 0.22796 0.48412 0.0
C740 C 0.87584 0.2187 0.4605 0.0
C741 C 0.84201 0.14102 0.43568 0.0
H742 H 0.82856 0.18237 0.39023 0.0
C743 C 0.79171 0.07631 0.36132 0.0
C744 C 0.77057 0.08232 0.35048 0.0
C745 C 0.80693 0.09397 0.37836 0.0
C746 C 0.83166 0.17043 0.40296 0.0
H747 H 0.93685 0.19647 0.4804 0.0
H748 H 0.9026 0.16702 0.45263 0.0
H749 H 0.86075 0.21415 0.41845 0.0
H750 H 0.74861 0.11153 0.34932 0.0
H751 H 0.77515 0.14229 0.37924 0.0
H752 H 0.81324 0.0974 0.42027 0.0
C753 C 0.90022 0.18604 0.4592 0.0
C754 C 0.85014 0.18865 0.4191 0.0
C755 C 0.92004 0.20313 0.47506 0.0
C756 C 0.76475 0.10625 0.35729 0.0
C757 C 0.7801 0.12403 0.37436 0.0
C758 C 0.82352 0.12286 0.41963 0.0
C759 C 0.87765 0.19335 0.45188 0.0
C760 C 0.85603 0.17415 0.43544 0.0
C761 C 0.80144 0.11813 0.38506 0.0
C762 C 0.81863 0.13737 0.40289 0.0
H763 H 0.89322 0.25476 0.4831 0.0
H764 H 0.85862 0.22483 0.45519 0.0
H765 H 0.84554 0.1291 0.44826 0.0
H766 H 0.79685 0.05812 0.35657 0.0
H767 H 0.82358 0.0891 0.38603 0.0
C768 C 0.71935 0.92213 0.64005 0.0
C769 C 0.69156 0.918 0.64921 0.0
C770 C 0.7178 0.90336 0.6238 0.0
C771 C 0.66567 0.85229 0.58346 0.0
H772 H 0.72435 0.82052 0.58266 0.0
C773 C 0.66271 0.76664 0.52191 0.0
C774 C 0.69223 0.77313 0.51424 0.0
C775 C 0.66096 0.78263 0.53886 0.0
C776 C 0.70798 0.82941 0.58255 0.0
H777 H 0.64025 0.89114 0.64805 0.0
H778 H 0.63762 0.85832 0.61964 0.0
H779 H 0.72437 0.852 0.61098 0.0
H780 H 0.74304 0.80151 0.51858 0.0
H781 H 0.73993 0.82939 0.54785 0.0
H782 H 0.64953 0.82992 0.55486 0.0
C783 C 0.66061 0.87624 0.62506 0.0
C784 C 0.708 0.84747 0.59879 0.0
C785 C 0.66214 0.89499 0.6414 0.0
C786 C 0.71987 0.79577 0.52404 0.0
C787 C 0.7181 0.81167 0.54095 0.0
C788 C 0.66569 0.83422 0.56715 0.0
C789 C 0.68844 0.87998 0.61623 0.0
C790 C 0.68715 0.85948 0.59933 0.0
C791 C 0.68866 0.80538 0.54856 0.0
C792 C 0.68714 0.82291 0.56639 0.0
H793 H 0.74245 0.93969 0.64553 0.0
H794 H 0.73969 0.90726 0.61711 0.0
H795 H 0.64947 0.86138 0.58335 0.0
H796 H 0.64092 0.74933 0.51478 0.0
H797 H 0.63789 0.77699 0.54446 0.0
C798 C 0.92565 0.71853 0.69297 0.0
C799 C 0.91986 0.69147 0.68206 0.0
C800 C 0.90767 0.71595 0.70986 0.0
C801 C 0.83102 0.66396 0.73421 0.0
H802 H 0.87211 0.71886 0.7797 0.0
C803 C 0.7657 0.66134 0.80807 0.0
C804 C 0.77347 0.69112 0.816 0.0
C805 C 0.7827 0.65901 0.79187 0.0
C806 C 0.86025 0.70351 0.76706 0.0
H807 H 0.8906 0.64032 0.6806 0.0
H808 H 0.85929 0.63584 0.71032 0.0
H809 H 0.90391 0.71859 0.75168 0.0
H810 H 0.80473 0.74181 0.81261 0.0
H811 H 0.83405 0.73765 0.78451 0.0
H812 H 0.78727 0.64907 0.74972 0.0
C813 C 0.87764 0.65909 0.70559 0.0
C814 C 0.87847 0.70336 0.75099 0.0
C815 C 0.89572 0.66167 0.68863 0.0
C816 C 0.79814 0.71845 0.80705 0.0
C817 C 0.81515 0.71609 0.79099 0.0
C818 C 0.81275 0.66404 0.75038 0.0
C819 C 0.88341 0.68625 0.71638 0.0
C820 C 0.86406 0.68406 0.73419 0.0
C821 C 0.80792 0.68638 0.78336 0.0
C822 C 0.82715 0.6843 0.7668 0.0
H823 H 0.94394 0.74191 0.68839 0.0
H824 H 0.91243 0.73741 0.71759 0.0
H825 H 0.81916 0.64899 0.72144 0.0
H826 H 0.74682 0.63978 0.81455 0.0
H827 H 0.77664 0.63577 0.78633 0.0
C828 C 0.20711 0.92432 0.8602 0.0
C829 C 0.22967 0.91934 0.85026 0.0
C830 C 0.19022 0.90555 0.8765 0.0
C831 C 0.18995 0.85223 0.91563 0.0
H832 H 0.09998 0.82277 0.91677 0.0
C833 C 0.1055 0.76648 0.97671 0.0
C834 C 0.08303 0.77374 0.98446 0.0
C835 C 0.12374 0.78258 0.95994 0.0
C836 C 0.12511 0.831 0.91679 0.0
H837 H 0.25278 0.89115 0.85018 0.0
H838 H 0.22312 0.85828 0.87875 0.0
H839 H 0.13178 0.85452 0.88868 0.0
H840 H 0.06233 0.80378 0.98053 0.0
H841 H 0.09416 0.83182 0.95163 0.0
H842 H 0.18321 0.82895 0.94395 0.0
C843 C 0.21864 0.87685 0.87385 0.0
C844 C 0.14334 0.84921 0.90068 0.0
C845 C 0.23555 0.89563 0.85744 0.0
C846 C 0.07923 0.79737 0.97498 0.0
C847 C 0.0974 0.81339 0.95828 0.0
C848 C 0.17166 0.83402 0.93183 0.0
C849 C 0.19543 0.8813 0.88334 0.0
C850 C 0.17605 0.86045 0.90004 0.0
C851 C 0.11985 0.8062 0.95052 0.0
C852 C 0.13909 0.82361 0.93273 0.0
H853 H 0.20207 0.94249 0.85525 0.0
H854 H 0.17295 0.91 0.88374 0.0
H855 H 0.21512 0.86067 0.9156 0.0
H856 H 0.10907 0.74842 0.98361 0.0
H857 H 0.14065 0.7763 0.95423 0.0
C858 C 0.3382 0.10561 0.14305 0.0
C859 C 0.30851 0.08292 0.15071 0.0
C860 C 0.3403 0.12461 0.12672 0.0
C861 C 0.29413 0.15469 0.10042 0.0
H862 H 0.35248 0.1715 0.0565 0.0
C863 C 0.2822 0.20524 0.02538 0.0
C864 C 0.30977 0.22771 0.01543 0.0
C865 C 0.28409 0.18974 0.04244 0.0
C866 C 0.33638 0.16742 0.06879 0.0
H867 H 0.25776 0.06194 0.14671 0.0
H868 H 0.2615 0.09476 0.11833 0.0
H869 H 0.35209 0.13986 0.08502 0.0
H870 H 0.36109 0.25166 0.01587 0.0
H871 H 0.36433 0.22464 0.04583 0.0
H872 H 0.27823 0.18196 0.08425 0.0
C873 C 0.28317 0.09827 0.12514 0.0
C874 C 0.33613 0.14926 0.08511 0.0
C875 C 0.28105 0.07927 0.14137 0.0
C876 C 0.33935 0.23448 0.02313 0.0
C877 C 0.34123 0.21887 0.04023 0.0
C878 C 0.29441 0.17284 0.08417 0.0
C879 C 0.31278 0.12142 0.11777 0.0
C880 C 0.31462 0.14227 0.10095 0.0
C881 C 0.31359 0.19626 0.05006 0.0
C882 C 0.31516 0.179 0.068 0.0
H883 H 0.35986 0.10908 0.14984 0.0
H884 H 0.36347 0.14233 0.12143 0.0
H885 H 0.27776 0.15035 0.11259 0.0
H886 H 0.25898 0.1993 0.01992 0.0
H887 H 0.26231 0.17212 0.04944 0.0
loop_
_geom_bond_atom_site_label_1
_geom_bond_atom_site_label_2
_geom_bond_distance
_geom_bond_site_symmetry_2
_ccdc_geom_bond_type
Co0 O1 2.216 . S
Co0 O2 2.091 . S
Co0 O4 2.004 . S
Co0 O10 2.021 . S
Co0 O12 2.137 . S
Co0 O13 2.244 . S
O1 Co0 2.216 . S
O1 C8 1.247 . S
O2 Co0 2.091 . S
O2 C8 1.261 . S
C3 O12 1.247 . S
C3 O13 1.272 . S
O4 Co0 2.004 . S
O4 C9 1.259 . S
Co5 O6 2.061 . S
Co5 O11 2.052 . S
Co5 O13 2.135 . S
O6 Co5 2.061 . S
O6 C9 1.235 . S
C7 O10 1.238 . S
C7 O11 1.241 . S
C8 O1 1.247 . S
C8 O2 1.261 . S
C9 O4 1.259 . S
C9 O6 1.235 . S
O10 Co0 2.021 . S
O10 C7 1.238 . S
O11 Co5 2.052 . S
O11 C7 1.241 . S
O12 Co0 2.137 . S
O12 C3 1.247 . S
O13 Co0 2.244 . S
O13 C3 1.272 . S
O13 Co5 2.135 . S
Co14 O15 2.216 . S
Co14 O16 2.091 . S
Co14 O18 2.004 . S
Co14 O24 2.021 . S
Co14 O26 2.137 . S
Co14 O27 2.244 . S
O15 Co14 2.216 . S
O15 C22 1.247 . S
O16 Co14 2.091 . S
O16 C22 1.261 . S
C17 O26 1.247 . S
C17 O27 1.272 . S
O18 Co14 2.004 . S
O18 C23 1.259 . S
Co19 O20 2.061 . S
Co19 O25 2.052 . S
Co19 O27 2.135 . S
O20 Co19 2.061 . S
O20 C23 1.235 . S
C21 O24 1.238 . S
C21 O25 1.241 . S
C22 O15 1.247 . S
C22 O16 1.261 . S
C23 O18 1.259 . S
C23 O20 1.235 . S
O24 Co14 2.021 . S
O24 C21 1.238 . S
O25 Co19 2.052 . S
O25 C21 1.241 . S
O26 Co14 2.137 . S
O26 C17 1.247 . S
O27 Co14 2.244 . S
O27 C17 1.272 . S
O27 Co19 2.135 . S
Co28 O29 2.216 . S
Co28 O30 2.091 . S
Co28 O32 2.004 . S
Co28 O38 2.021 . S
Co28 O40 2.137 . S
Co28 O41 2.244 . S
O29 Co28 2.216 . S
O29 C36 1.247 . S
O30 Co28 2.091 . S
O30 C36 1.261 . S
C31 O40 1.247 . S
C31 O41 1.272 . S
O32 Co28 2.004 . S
O32 C37 1.259 . S
Co33 O34 2.061 . S
Co33 O39 2.052 . S
Co33 O41 2.135 . S
O34 Co33 2.061 . S
O34 C37 1.235 . S
C35 O38 1.238 . S
C35 O39 1.241 . S
C36 O29 1.247 . S
C36 O30 1.261 . S
C37 O32 1.259 . S
C37 O34 1.235 . S
O38 Co28 2.021 . S
O38 C35 1.238 . S
O39 Co33 2.052 . S
O39 C35 1.241 . S
O40 Co28 2.137 . S
O40 C31 1.247 . S
O41 Co28 2.244 . S
O41 C31 1.272 . S
O41 Co33 2.135 . S
Co42 O43 2.216 . S
Co42 O44 2.091 . S
Co42 O46 2.004 . S
Co42 O52 2.021 . S
Co42 O54 2.137 . S
Co42 O55 2.244 . S
O43 Co42 2.216 . S
O43 C50 1.247 . S
O44 Co42 2.091 . S
O44 C50 1.261 . S
C45 O54 1.247 . S
C45 O55 1.272 . S
O46 Co42 2.004 . S
O46 C51 1.259 . S
Co47 O48 2.061 . S
Co47 O53 2.052 . S
Co47 O55 2.135 . S
O48 Co47 2.061 . S
O48 C51 1.235 . S
C49 O52 1.238 . S
C49 O53 1.241 . S
C50 O43 1.247 . S
C50 O44 1.261 . S
C51 O46 1.259 . S
C51 O48 1.235 . S
O52 Co42 2.021 . S
O52 C49 1.238 . S
O53 Co47 2.052 . S
O53 C49 1.241 . S
O54 Co42 2.137 . S
O54 C45 1.247 . S
O55 Co42 2.244 . S
O55 C45 1.272 . S
O55 Co47 2.135 . S
Co56 O57 2.216 . S
Co56 O58 2.091 . S
Co56 O60 2.004 . S
Co56 O66 2.021 . S
Co56 O68 2.137 . S
Co56 O69 2.244 . S
O57 Co56 2.216 . S
O57 C64 1.247 . S
O58 Co56 2.091 . S
O58 C64 1.261 . S
C59 O68 1.247 . S
C59 O69 1.272 . S
O60 Co56 2.004 . S
O60 C65 1.259 . S
Co61 O62 2.061 . S
Co61 O67 2.052 . S
Co61 O69 2.135 . S
O62 Co61 2.061 . S
O62 C65 1.235 . S
C63 O66 1.238 . S
C63 O67 1.241 . S
C64 O57 1.247 . S
C64 O58 1.261 . S
C65 O60 1.259 . S
C65 O62 1.235 . S
O66 Co56 2.021 . S
O66 C63 1.238 . S
O67 Co61 2.052 . S
O67 C63 1.241 . S
O68 Co56 2.137 . S
O68 C59 1.247 . S
O69 Co56 2.244 . S
O69 C59 1.272 . S
O69 Co61 2.135 . S
Co70 O71 2.216 . S
Co70 O72 2.091 . S
Co70 O74 2.004 . S
Co70 O80 2.021 . S
Co70 O82 2.137 . S
Co70 O83 2.244 . S
O71 Co70 2.216 . S
O71 C78 1.247 . S
O72 Co70 2.091 . S
O72 C78 1.261 . S
C73 O82 1.247 . S
C73 O83 1.272 . S
O74 Co70 2.004 . S
O74 C79 1.261 . S
Co75 O76 2.061 . S
Co75 O81 2.052 . S
Co75 O83 2.135 . S
O76 Co75 2.061 . S
O76 C79 1.236 . S
C77 O80 1.238 . S
C77 O81 1.241 . S
C78 O71 1.247 . S
C78 O72 1.261 . S
C79 O74 1.261 . S
C79 O76 1.236 . S
O80 Co70 2.021 . S
O80 C77 1.238 . S
O81 Co75 2.052 . S
O81 C77 1.241 . S
O82 Co70 2.137 . S
O82 C73 1.247 . S
O83 Co70 2.244 . S
O83 C73 1.272 . S
O83 Co75 2.135 . S
Co84 O85 2.216 . S
Co84 O86 2.091 . S
Co84 O88 2.004 . S
Co84 O94 2.021 . S
Co84 O96 2.137 . S
Co84 O97 2.244 . S
O85 Co84 2.216 . S
O85 C92 1.247 . S
O86 Co84 2.091 . S
O86 C92 1.261 . S
C87 O96 1.247 . S
C87 O97 1.272 . S
O88 Co84 2.004 . S
O88 C93 1.259 . S
Co89 O90 2.061 . S
Co89 O95 2.052 . S
Co89 O97 2.135 . S
O90 Co89 2.061 . S
O90 C93 1.235 . S
C91 O94 1.238 . S
C91 O95 1.241 . S
C92 O85 1.247 . S
C92 O86 1.261 . S
C93 O88 1.259 . S
C93 O90 1.235 . S
O94 Co84 2.021 . S
O94 C91 1.238 . S
O95 Co89 2.052 . S
O95 C91 1.241 . S
O96 Co84 2.137 . S
O96 C87 1.247 . S
O97 Co84 2.244 . S
O97 C87 1.272 . S
O97 Co89 2.135 . S
Co98 O99 2.216 . S
Co98 O100 2.091 . S
Co98 O102 2.004 . S
Co98 O108 2.021 . S
Co98 O110 2.137 . S
Co98 O111 2.244 . S
O99 Co98 2.216 . S
O99 C106 1.247 . S
O100 Co98 2.091 . S
O100 C106 1.261 . S
C101 O110 1.247 . S
C101 O111 1.272 . S
O102 Co98 2.004 . S
O102 C107 1.259 . S
Co103 O104 2.061 . S
Co103 O109 2.052 . S
Co103 O111 2.135 . S
O104 Co103 2.061 . S
O104 C107 1.235 . S
C105 O108 1.238 . S
C105 O109 1.241 . S
C106 O99 1.247 . S
C106 O100 1.261 . S
C107 O102 1.259 . S
C107 O104 1.235 . S
O108 Co98 2.021 . S
O108 C105 1.238 . S
O109 Co103 2.052 . S
O109 C105 1.241 . S
O110 Co98 2.137 . S
O110 C101 1.247 . S
O111 Co98 2.244 . S
O111 C101 1.272 . S
O111 Co103 2.135 . S
Co112 O113 2.216 . S
Co112 O114 2.091 . S
Co112 O116 2.004 . S
Co112 O122 2.021 . S
Co112 O124 2.137 . S
Co112 O125 2.244 . S
O113 Co112 2.216 . S
O113 C120 1.247 . S
O114 Co112 2.091 . S
O114 C120 1.261 . S
C115 O124 1.247 . S
C115 O125 1.272 . S
O116 Co112 2.004 . S
O116 C121 1.261 . S
Co117 O118 2.061 . S
Co117 O123 2.052 . S
Co117 O125 2.135 . S
O118 Co117 2.061 . S
O118 C121 1.236 . S
C119 O122 1.238 . S
C119 O123 1.241 . S
C120 O113 1.247 . S
C120 O114 1.261 . S
C121 O116 1.261 . S
C121 O118 1.236 . S
O122 Co112 2.021 . S
O122 C119 1.238 . S
O123 Co117 2.052 . S
O123 C119 1.241 . S
O124 Co112 2.137 . S
O124 C115 1.247 . S
O125 Co112 2.244 . S
O125 C115 1.272 . S
O125 Co117 2.135 . S
Co126 O127 2.216 . S
Co126 O128 2.091 . S
Co126 O130 2.004 . S
Co126 O136 2.021 . S
Co126 O138 2.137 . S
Co126 O139 2.244 . S
O127 Co126 2.216 . S
O127 C134 1.247 . S
O128 Co126 2.091 . S
O128 C134 1.261 . S
C129 O138 1.247 . S
C129 O139 1.272 . S
O130 Co126 2.004 . S
O130 C135 1.259 . S
Co131 O132 2.061 . S
Co131 O137 2.052 . S
Co131 O139 2.135 . S
O132 Co131 2.061 . S
O132 C135 1.235 . S
C133 O136 1.238 . S
C133 O137 1.241 . S
C134 O127 1.247 . S
C134 O128 1.261 . S
C135 O130 1.259 . S
C135 O132 1.235 . S
O136 Co126 2.021 . S
O136 C133 1.238 . S
O137 Co131 2.052 . S
O137 C133 1.241 . S
O138 Co126 2.137 . S
O138 C129 1.247 . S
O139 Co126 2.244 . S
O139 C129 1.272 . S
O139 Co131 2.135 . S
Co140 O141 2.216 . S
Co140 O142 2.091 . S
Co140 O144 2.004 . S
Co140 O150 2.021 . S
Co140 O152 2.137 . S
Co140 O153 2.244 . S
O141 Co140 2.216 . S
O141 C148 1.247 . S
O142 Co140 2.091 . S
O142 C148 1.261 . S
C143 O152 1.247 . S
C143 O153 1.272 . S
O144 Co140 2.004 . S
O144 C149 1.259 . S
Co145 O146 2.061 . S
Co145 O151 2.052 . S
Co145 O153 2.135 . S
O146 Co145 2.061 . S
O146 C149 1.235 . S
C147 O150 1.238 . S
C147 O151 1.241 . S
C148 O141 1.247 . S
C148 O142 1.261 . S
C149 O144 1.259 . S
C149 O146 1.235 . S
O150 Co140 2.021 . S
O150 C147 1.238 . S
O151 Co145 2.052 . S
O151 C147 1.241 . S
O152 Co140 2.137 . S
O152 C143 1.247 . S
O153 Co140 2.244 . S
O153 C143 1.272 . S
O153 Co145 2.135 . S
Co154 O155 2.216 . S
Co154 O156 2.091 . S
Co154 O158 2.004 . S
Co154 O164 2.021 . S
Co154 O166 2.137 . S
Co154 O167 2.244 . S
O155 Co154 2.216 . S
O155 C162 1.247 . S
O156 Co154 2.091 . S
O156 C162 1.261 . S
C157 O166 1.247 . S
C157 O167 1.272 . S
O158 Co154 2.004 . S
O158 C163 1.259 . S
Co159 O160 2.061 . S
Co159 O165 2.052 . S
Co159 O167 2.135 . S
O160 Co159 2.061 . S
O160 C163 1.235 . S
C161 O164 1.238 . S
C161 O165 1.241 . S
C162 O155 1.247 . S
C162 O156 1.261 . S
C163 O158 1.259 . S
C163 O160 1.235 . S
O164 Co154 2.021 . S
O164 C161 1.238 . S
O165 Co159 2.052 . S
O165 C161 1.241 . S
O166 Co154 2.137 . S
O166 C157 1.247 . S
O167 Co154 2.244 . S
O167 C157 1.272 . S
O167 Co159 2.135 . S
C168 C169 1.349 . S
C168 C170 1.327 . S
C168 H193 0.950 . S
C169 C168 1.349 . S
C169 C185 1.349 . S
C170 C168 1.327 . S
C170 C189 1.429 . S
C170 H194 0.950 . S
C171 C188 1.574 . S
C171 C190 1.368 . S
C171 H195 0.949 . S
H172 C176 0.949 . S
C173 C174 1.349 . S
C173 C175 1.327 . S
C173 H196 0.950 . S
C174 C173 1.349 . S
C174 C186 1.349 . S
C175 C173 1.327 . S
C175 C191 1.429 . S
C175 H197 0.950 . S
C176 H172 0.949 . S
C176 C184 1.574 . S
C176 C192 1.368 . S
H177 C185 0.950 . S
H178 C183 0.950 . S
H179 C184 0.949 . S
H180 C186 0.950 . S
H181 C187 0.950 . S
H182 C188 0.949 . S
C183 H178 0.950 . S
C183 C185 1.327 . S
C183 C189 1.429 . S
C184 C176 1.574 . S
C184 H179 0.949 . S
C184 C190 1.368 . S
C185 C169 1.349 . S
C185 H177 0.950 . S
C185 C183 1.327 . S
C186 C174 1.349 . S
C186 H180 0.950 . S
C186 C187 1.327 . S
C187 H181 0.950 . S
C187 C186 1.327 . S
C187 C191 1.429 . S
C188 C171 1.574 . S
C188 H182 0.949 . S
C188 C192 1.368 . S
C189 C170 1.429 . S
C189 C183 1.429 . S
C189 C190 1.523 . S
C190 C171 1.368 . S
C190 C184 1.368 . S
C190 C189 1.523 . S
C191 C175 1.429 . S
C191 C187 1.429 . S
C191 C192 1.523 . S
C192 C176 1.368 . S
C192 C188 1.368 . S
C192 C191 1.523 . S
H193 C168 0.950 . S
H194 C170 0.950 . S
H195 C171 0.949 . S
H196 C173 0.950 . S
H197 C175 0.950 . S
C198 C199 1.349 . S
C198 C200 1.327 . S
C198 H223 0.950 . S
C199 C198 1.349 . S
C199 C215 1.349 . S
C200 C198 1.327 . S
C200 C219 1.429 . S
C200 H224 0.950 . S
C201 C218 1.574 . S
C201 C220 1.368 . S
C201 H225 0.949 . S
H202 C206 0.949 . S
C203 C204 1.349 . S
C203 C205 1.327 . S
C203 H226 0.950 . S
C204 C203 1.349 . S
C204 C216 1.349 . S
C205 C203 1.327 . S
C205 C221 1.429 . S
C205 H227 0.950 . S
C206 H202 0.949 . S
C206 C214 1.574 . S
C206 C222 1.368 . S
H207 C215 0.950 . S
H208 C213 0.950 . S
H209 C214 0.949 . S
H210 C216 0.950 . S
H211 C217 0.950 . S
H212 C218 0.949 . S
C213 H208 0.950 . S
C213 C215 1.327 . S
C213 C219 1.429 . S
C214 C206 1.574 . S
C214 H209 0.949 . S
C214 C220 1.368 . S
C215 C199 1.349 . S
C215 H207 0.950 . S
C215 C213 1.327 . S
C216 C204 1.349 . S
C216 H210 0.950 . S
C216 C217 1.327 . S
C217 H211 0.950 . S
C217 C216 1.327 . S
C217 C221 1.429 . S
C218 C201 1.574 . S
C218 H212 0.949 . S
C218 C222 1.368 . S
C219 C200 1.429 . S
C219 C213 1.429 . S
C219 C220 1.523 . S
C220 C201 1.368 . S
C220 C214 1.368 . S
C220 C219 1.523 . S
C221 C205 1.429 . S
C221 C217 1.429 . S
C221 C222 1.523 . S
C222 C206 1.368 . S
C222 C218 1.368 . S
C222 C221 1.523 . S
H223 C198 0.950 . S
H224 C200 0.950 . S
H225 C201 0.949 . S
H226 C203 0.950 . S
H227 C205 0.950 . S
C228 C229 1.349 . S
C228 C230 1.327 . S
C228 H253 0.950 . S
C229 C228 1.349 . S
C229 C245 1.349 . S
C230 C228 1.327 . S
C230 C249 1.429 . S
C230 H254 0.950 . S
C231 C248 1.574 . S
C231 C250 1.368 . S
C231 H255 0.949 . S
H232 C236 0.949 . S
C233 C234 1.349 . S
C233 C235 1.327 . S
C233 H256 0.950 . S
C234 C233 1.349 . S
C234 C246 1.349 . S
C235 C233 1.327 . S
C235 C251 1.429 . S
C235 H257 0.950 . S
C236 H232 0.949 . S
C236 C244 1.574 . S
C236 C252 1.368 . S
H237 C245 0.950 . S
H238 C243 0.950 . S
H239 C244 0.949 . S
H240 C246 0.950 . S
H241 C247 0.950 . S
H242 C248 0.949 . S
C243 H238 0.950 . S
C243 C245 1.327 . S
C243 C249 1.429 . S
C244 C236 1.574 . S
C244 H239 0.949 . S
C244 C250 1.368 . S
C245 C229 1.349 . S
C245 H237 0.950 . S
C245 C243 1.327 . S
C246 C234 1.349 . S
C246 H240 0.950 . S
C246 C247 1.327 . S
C247 H241 0.950 . S
C247 C246 1.327 . S
C247 C251 1.429 . S
C248 C231 1.574 . S
C248 H242 0.949 . S
C248 C252 1.368 . S
C249 C230 1.429 . S
C249 C243 1.429 . S
C249 C250 1.523 . S
C250 C231 1.368 . S
C250 C244 1.368 . S
C250 C249 1.523 . S
C251 C235 1.429 . S
C251 C247 1.429 . S
C251 C252 1.523 . S
C252 C236 1.368 . S
C252 C248 1.368 . S
C252 C251 1.523 . S
H253 C228 0.950 . S
H254 C230 0.950 . S
H255 C231 0.949 . S
H256 C233 0.950 . S
H257 C235 0.950 . S
C258 C259 1.349 . S
C258 C260 1.327 . S
C258 H283 0.950 . S
C259 C258 1.349 . S
C259 C275 1.349 . S
C260 C258 1.327 . S
C260 C279 1.429 . S
C260 H284 0.950 . S
C261 C278 1.574 . S
C261 C280 1.368 . S
C261 H285 0.949 . S
H262 C266 0.949 . S
C263 C264 1.349 . S
C263 C265 1.327 . S
C263 H286 0.950 . S
C264 C263 1.349 . S
C264 C276 1.349 . S
C265 C263 1.327 . S
C265 C281 1.429 . S
C265 H287 0.950 . S
C266 H262 0.949 . S
C266 C274 1.574 . S
C266 C282 1.368 . S
H267 C275 0.950 . S
H268 C273 0.950 . S
H269 C274 0.949 . S
H270 C276 0.950 . S
H271 C277 0.950 . S
H272 C278 0.949 . S
C273 H268 0.950 . S
C273 C275 1.327 . S
C273 C279 1.429 . S
C274 C266 1.574 . S
C274 H269 0.949 . S
C274 C280 1.368 . S
C275 C259 1.349 . S
C275 H267 0.950 . S
C275 C273 1.327 . S
C276 C264 1.349 . S
C276 H270 0.950 . S
C276 C277 1.327 . S
C277 H271 0.950 . S
C277 C276 1.327 . S
C277 C281 1.429 . S
C278 C261 1.574 . S
C278 H272 0.949 . S
C278 C282 1.368 . S
C279 C260 1.429 . S
C279 C273 1.429 . S
C279 C280 1.523 . S
C280 C261 1.368 . S
C280 C274 1.368 . S
C280 C279 1.523 . S
C281 C265 1.429 . S
C281 C277 1.429 . S
C281 C282 1.523 . S
C282 C266 1.368 . S
C282 C278 1.368 . S
C282 C281 1.523 . S
H283 C258 0.950 . S
H284 C260 0.950 . S
H285 C261 0.949 . S
H286 C263 0.950 . S
H287 C265 0.950 . S
C288 C289 1.349 . S
C288 C290 1.327 . S
C288 H313 0.950 . S
C289 C288 1.349 . S
C289 C305 1.349 . S
C290 C288 1.327 . S
C290 C309 1.429 . S
C290 H314 0.950 . S
C291 C308 1.574 . S
C291 C310 1.368 . S
C291 H315 0.949 . S
H292 C296 0.949 . S
C293 C294 1.349 . S
C293 C295 1.327 . S
C293 H316 0.950 . S
C294 C293 1.349 . S
C294 C306 1.349 . S
C295 C293 1.327 . S
C295 C311 1.429 . S
C295 H317 0.950 . S
C296 H292 0.949 . S
C296 C304 1.574 . S
C296 C312 1.368 . S
H297 C305 0.950 . S
H298 C303 0.950 . S
H299 C304 0.949 . S
H300 C306 0.950 . S
H301 C307 0.950 . S
H302 C308 0.949 . S
C303 H298 0.950 . S
C303 C305 1.327 . S
C303 C309 1.429 . S
C304 C296 1.574 . S
C304 H299 0.949 . S
C304 C310 1.368 . S
C305 C289 1.349 . S
C305 H297 0.950 . S
C305 C303 1.327 . S
C306 C294 1.349 . S
C306 H300 0.950 . S
C306 C307 1.327 . S
C307 H301 0.950 . S
C307 C306 1.327 . S
C307 C311 1.429 . S
C308 C291 1.574 . S
C308 H302 0.949 . S
C308 C312 1.368 . S
C309 C290 1.429 . S
C309 C303 1.429 . S
C309 C310 1.523 . S
C310 C291 1.368 . S
C310 C304 1.368 . S
C310 C309 1.523 . S
C311 C295 1.429 . S
C311 C307 1.429 . S
C311 C312 1.523 . S
C312 C296 1.368 . S
C312 C308 1.368 . S
C312 C311 1.523 . S
H313 C288 0.950 . S
H314 C290 0.950 . S
H315 C291 0.949 . S
H316 C293 0.950 . S
H317 C295 0.950 . S
C318 C319 1.349 . S
C318 C320 1.327 . S
C318 H343 0.950 . S
C319 C318 1.349 . S
C319 C335 1.349 . S
C320 C318 1.327 . S
C320 C339 1.429 . S
C320 H344 0.950 . S
C321 C338 1.574 . S
C321 C340 1.368 . S
C321 H345 0.949 . S
H322 C326 0.949 . S
C323 C324 1.349 . S
C323 C325 1.327 . S
C323 H346 0.950 . S
C324 C323 1.349 . S
C324 C336 1.349 . S
C325 C323 1.327 . S
C325 C341 1.429 . S
C325 H347 0.950 . S
C326 H322 0.949 . S
C326 C334 1.574 . S
C326 C342 1.368 . S
H327 C335 0.950 . S
H328 C333 0.950 . S
H329 C334 0.949 . S
H330 C336 0.950 . S
H331 C337 0.950 . S
H332 C338 0.949 . S
C333 H328 0.950 . S
C333 C335 1.327 . S
C333 C339 1.429 . S
C334 C326 1.574 . S
C334 H329 0.949 . S
C334 C340 1.368 . S
C335 C319 1.349 . S
C335 H327 0.950 . S
C335 C333 1.327 . S
C336 C324 1.349 . S
C336 H330 0.950 . S
C336 C337 1.327 . S
C337 H331 0.950 . S
C337 C336 1.327 . S
C337 C341 1.429 . S
C338 C321 1.574 . S
C338 H332 0.949 . S
C338 C342 1.368 . S
C339 C320 1.429 . S
C339 C333 1.429 . S
C339 C340 1.523 . S
C340 C321 1.368 . S
C340 C334 1.368 . S
C340 C339 1.523 . S
C341 C325 1.429 . S
C341 C337 1.429 . S
C341 C342 1.523 . S
C342 C326 1.368 . S
C342 C338 1.368 . S
C342 C341 1.523 . S
H343 C318 0.950 . S
H344 C320 0.950 . S
H345 C321 0.949 . S
H346 C323 0.950 . S
H347 C325 0.950 . S
C348 C349 1.349 . S
C348 C350 1.327 . S
C348 H373 0.950 . S
C349 C348 1.349 . S
C349 C365 1.349 . S
C350 C348 1.327 . S
C350 C369 1.429 . S
C350 H374 0.950 . S
C351 C368 1.574 . S
C351 C370 1.368 . S
C351 H375 0.949 . S
H352 C356 0.949 . S
C353 C354 1.349 1_554 S
C353 C355 1.327 . S
C353 H376 0.950 . S
C354 C353 1.349 1_556 S
C354 C366 1.349 . S
C355 C353 1.327 . S
C355 C371 1.429 . S
C355 H377 0.950 . S
C356 H352 0.949 . S
C356 C364 1.574 . S
C356 C372 1.368 . S
H357 C365 0.950 . S
H358 C363 0.950 . S
H359 C364 0.949 . S
H360 C366 0.950 . S
H361 C367 0.945 1_556 S
H362 C368 0.949 . S
C363 H358 0.950 . S
C363 C365 1.327 . S
C363 C369 1.429 . S
C364 C356 1.574 . S
C364 H359 0.949 . S
C364 C370 1.368 . S
C365 C349 1.349 . S
C365 H357 0.950 . S
C365 C363 1.327 . S
C366 C354 1.349 . S
C366 H360 0.950 . S
C366 C367 1.327 1_556 S
C367 H361 0.945 1_554 S
C367 C366 1.327 1_554 S
C367 C371 1.429 . S
C368 C351 1.574 . S
C368 H362 0.949 . S
C368 C372 1.368 . S
C369 C350 1.429 . S
C369 C363 1.429 . S
C369 C370 1.523 . S
C370 C351 1.368 . S
C370 C364 1.368 . S
C370 C369 1.523 . S
C371 C355 1.429 . S
C371 C367 1.429 . S
C371 C372 1.523 . S
C372 C356 1.368 . S
C372 C368 1.368 . S
C372 C371 1.523 . S
H373 C348 0.950 . S
H374 C350 0.950 . S
H375 C351 0.949 . S
H376 C353 0.950 . S
H377 C355 0.950 . S
C378 C379 1.349 . S
C378 C380 1.327 . S
C378 H403 0.950 . S
C379 C378 1.349 . S
C379 C395 1.349 . S
C380 C378 1.327 . S
C380 C399 1.429 . S
C380 H404 0.950 . S
C381 C398 1.574 . S
C381 C400 1.368 . S
C381 H405 0.949 . S
H382 C386 0.949 . S
C383 C384 1.349 . S
C383 C385 1.327 . S
C383 H406 0.950 . S
C384 C383 1.349 . S
C384 C396 1.349 . S
C385 C383 1.327 . S
C385 C401 1.429 . S
C385 H407 0.950 . S
C386 H382 0.949 . S
C386 C394 1.574 . S
C386 C402 1.368 . S
H387 C395 0.950 . S
H388 C393 0.950 . S
H389 C394 0.949 . S
H390 C396 0.976 . S
H391 C397 0.950 . S
H392 C398 0.949 . S
C393 H388 0.950 . S
C393 C395 1.327 . S
C393 C399 1.429 . S
C394 C386 1.574 . S
C394 H389 0.949 . S
C394 C400 1.368 . S
C395 C379 1.349 . S
C395 H387 0.950 . S
C395 C393 1.327 . S
C396 C384 1.349 . S
C396 H390 0.976 . S
C396 C397 1.327 . S
C397 H391 0.950 . S
C397 C396 1.327 . S
C397 C401 1.429 . S
C398 C381 1.574 . S
C398 H392 0.949 . S
C398 C402 1.368 . S
C399 C380 1.429 . S
C399 C393 1.429 . S
C399 C400 1.523 . S
C400 C381 1.368 . S
C400 C394 1.368 . S
C400 C399 1.523 . S
C401 C385 1.429 . S
C401 C397 1.429 . S
C401 C402 1.523 . S
C402 C386 1.368 . S
C402 C398 1.368 . S
C402 C401 1.523 . S
H403 C378 0.950 . S
H404 C380 0.950 . S
H405 C381 0.949 . S
H406 C383 0.950 . S
H407 C385 0.950 . S
C408 C409 1.349 . S
C408 C410 1.327 . S
C408 H433 0.950 . S
C409 C408 1.349 . S
C409 C425 1.349 . S
C410 C408 1.327 . S
C410 C429 1.429 . S
C410 H434 0.950 . S
C411 C428 1.574 . S
C411 C430 1.368 . S
C411 H435 0.949 . S
H412 C416 0.949 . S
C413 C414 1.349 . S
C413 C415 1.327 . S
C413 H436 0.950 . S
C414 C413 1.349 . S
C414 C426 1.349 . S
C415 C413 1.327 . S
C415 C431 1.429 . S
C415 H437 0.950 . S
C416 H412 0.949 . S
C416 C424 1.574 . S
C416 C432 1.368 . S
H417 C425 0.950 . S
H418 C423 0.950 . S
H419 C424 0.949 . S
H420 C426 0.950 . S
H421 C427 0.950 . S
H422 C428 0.949 . S
C423 H418 0.950 . S
C423 C425 1.327 . S
C423 C429 1.429 . S
C424 C416 1.574 . S
C424 H419 0.949 . S
C424 C430 1.368 . S
C425 C409 1.349 . S
C425 H417 0.950 . S
C425 C423 1.327 . S
C426 C414 1.349 . S
C426 H420 0.950 . S
C426 C427 1.327 . S
C427 H421 0.950 . S
C427 C426 1.327 . S
C427 C431 1.429 . S
C428 C411 1.574 . S
C428 H422 0.949 . S
C428 C432 1.368 . S
C429 C410 1.429 . S
C429 C423 1.429 . S
C429 C430 1.523 . S
C430 C411 1.368 . S
C430 C424 1.368 . S
C430 C429 1.523 . S
C431 C415 1.429 . S
C431 C427 1.429 . S
C431 C432 1.523 . S
C432 C416 1.368 . S
C432 C428 1.368 . S
C432 C431 1.523 . S
H433 C408 0.950 . S
H434 C410 0.950 . S
H435 C411 0.949 . S
H436 C413 0.950 . S
H437 C415 0.950 . S
C438 C439 1.349 . S
C438 C440 1.327 . S
C438 H463 0.950 . S
C439 C438 1.349 . S
C439 C455 1.349 . S
C440 C438 1.327 . S
C440 C459 1.429 . S
C440 H464 0.950 . S
C441 C458 1.574 . S
C441 C460 1.368 . S
C441 H465 0.949 . S
H442 C446 0.949 . S
C443 C444 1.349 . S
C443 C445 1.327 . S
C443 H466 0.950 . S
C444 C443 1.349 . S
C444 C456 1.349 . S
C445 C443 1.327 . S
C445 C461 1.429 . S
C445 H467 0.950 . S
C446 H442 0.949 . S
C446 C454 1.574 . S
C446 C462 1.368 . S
H447 C455 0.950 . S
H448 C453 0.950 . S
H449 C454 0.949 . S
H450 C456 0.950 . S
H451 C457 0.950 . S
H452 C458 0.949 . S
C453 H448 0.950 . S
C453 C455 1.327 . S
C453 C459 1.429 . S
C454 C446 1.574 . S
C454 H449 0.949 . S
C454 C460 1.368 . S
C455 C439 1.349 . S
C455 H447 0.950 . S
C455 C453 1.327 . S
C456 C444 1.349 . S
C456 H450 0.950 . S
C456 C457 1.327 . S
C457 H451 0.950 . S
C457 C456 1.327 . S
C457 C461 1.429 . S
C458 C441 1.574 . S
C458 H452 0.949 . S
C458 C462 1.368 . S
C459 C440 1.429 . S
C459 C453 1.429 . S
C459 C460 1.523 . S
C460 C441 1.368 . S
C460 C454 1.368 . S
C460 C459 1.523 . S
C461 C445 1.429 . S
C461 C457 1.429 . S
C461 C462 1.523 . S
C462 C446 1.368 . S
C462 C458 1.368 . S
C462 C461 1.523 . S
H463 C438 0.950 . S
H464 C440 0.950 . S
H465 C441 0.949 . S
H466 C443 0.950 . S
H467 C445 0.950 . S
C468 C469 1.349 . S
C468 C470 1.327 . S
C468 H493 0.950 . S
C469 C468 1.349 . S
C469 C485 1.349 . S
C470 C468 1.327 . S
C470 C489 1.429 . S
C470 H494 0.950 . S
C471 C488 1.574 . S
C471 C490 1.368 . S
C471 H495 0.949 . S
H472 C476 0.949 . S
C473 C474 1.349 . S
C473 C475 1.327 . S
C473 H496 0.950 . S
C474 C473 1.349 . S
C474 C486 1.349 . S
C475 C473 1.327 . S
C475 C491 1.429 . S
C475 H497 0.950 . S
C476 H472 0.949 . S
C476 C484 1.574 . S
C476 C492 1.368 . S
H477 C485 0.950 . S
H478 C483 0.950 . S
H479 C484 0.949 . S
H480 C486 0.950 . S
H481 C487 0.950 . S
H482 C488 0.949 . S
C483 H478 0.950 . S
C483 C485 1.327 . S
C483 C489 1.429 . S
C484 C476 1.574 . S
C484 H479 0.949 . S
C484 C490 1.368 . S
C485 C469 1.349 . S
C485 H477 0.950 . S
C485 C483 1.327 . S
C486 C474 1.349 . S
C486 H480 0.950 . S
C486 C487 1.327 . S
C487 H481 0.950 . S
C487 C486 1.327 . S
C487 C491 1.429 . S
C488 C471 1.574 . S
C488 H482 0.949 . S
C488 C492 1.368 . S
C489 C470 1.429 . S
C489 C483 1.429 . S
C489 C490 1.523 . S
C490 C471 1.368 . S
C490 C484 1.368 . S
C490 C489 1.523 . S
C491 C475 1.429 . S
C491 C487 1.429 . S
C491 C492 1.523 . S
C492 C476 1.368 . S
C492 C488 1.368 . S
C492 C491 1.523 . S
H493 C468 0.950 . S
H494 C470 0.950 . S
H495 C471 0.949 . S
H496 C473 0.950 . S
H497 C475 0.950 . S
C498 C499 1.349 . S
C498 C500 1.327 . S
C498 H523 0.950 . S
C499 C498 1.349 . S
C499 C515 1.349 . S
C500 C498 1.327 . S
C500 C519 1.429 . S
C500 H524 0.950 . S
C501 C518 1.574 . S
C501 C520 1.368 . S
C501 H525 0.949 . S
H502 C506 0.949 . S
C503 C504 1.349 . S
C503 C505 1.327 . S
C503 H526 0.950 . S
C504 C503 1.349 . S
C504 C516 1.349 . S
C505 C503 1.327 . S
C505 C521 1.429 . S
C505 H527 0.950 . S
C506 H502 0.949 . S
C506 C514 1.574 . S
C506 C522 1.368 . S
H507 C515 0.950 . S
H508 C513 0.950 . S
H509 C514 0.949 . S
H510 C516 0.950 . S
H511 C517 0.950 . S
H512 C518 0.949 . S
C513 H508 0.950 . S
C513 C515 1.327 . S
C513 C519 1.429 . S
C514 C506 1.574 . S
C514 H509 0.949 . S
C514 C520 1.368 . S
C515 C499 1.349 . S
C515 H507 0.950 . S
C515 C513 1.327 . S
C516 C504 1.349 . S
C516 H510 0.950 . S
C516 C517 1.327 . S
C517 H511 0.950 . S
C517 C516 1.327 . S
C517 C521 1.429 . S
C518 C501 1.574 . S
C518 H512 0.949 . S
C518 C522 1.368 . S
C519 C500 1.429 . S
C519 C513 1.429 . S
C519 C520 1.523 . S
C520 C501 1.368 . S
C520 C514 1.368 . S
C520 C519 1.523 . S
C521 C505 1.429 . S
C521 C517 1.429 . S
C521 C522 1.523 . S
C522 C506 1.368 . S
C522 C518 1.368 . S
C522 C521 1.523 . S
H523 C498 0.950 . S
H524 C500 0.950 . S
H525 C501 0.949 . S
H526 C503 0.950 . S
H527 C505 0.950 . S
C528 C529 1.349 . S
C528 C530 1.327 . S
C528 H553 0.950 . S
C529 C528 1.349 . S
C529 C545 1.349 . S
C530 C528 1.327 . S
C530 C549 1.429 . S
C530 H554 0.950 . S
C531 C548 1.574 . S
C531 C550 1.368 . S
C531 H555 0.949 . S
H532 C536 0.949 . S
C533 C534 1.349 . S
C533 C535 1.327 . S
C533 H556 0.950 . S
C534 C533 1.349 . S
C534 C546 1.349 . S
C535 C533 1.327 . S
C535 C551 1.429 . S
C535 H557 0.950 . S
C536 H532 0.949 . S
C536 C544 1.574 . S
C536 C552 1.368 . S
H537 C545 0.950 . S
H538 C543 0.950 . S
H539 C544 0.949 . S
H540 C546 0.950 . S
H541 C547 0.950 . S
H542 C548 0.949 . S
C543 H538 0.950 . S
C543 C545 1.327 . S
C543 C549 1.429 . S
C544 C536 1.574 . S
C544 H539 0.949 . S
C544 C550 1.368 . S
C545 C529 1.349 . S
C545 H537 0.950 . S
C545 C543 1.327 . S
C546 C534 1.349 . S
C546 H540 0.950 . S
C546 C547 1.327 . S
C547 H541 0.950 . S
C547 C546 1.327 . S
C547 C551 1.429 . S
C548 C531 1.574 . S
C548 H542 0.949 . S
C548 C552 1.368 . S
C549 C530 1.429 . S
C549 C543 1.429 . S
C549 C550 1.523 . S
C550 C531 1.368 . S
C550 C544 1.368 . S
C550 C549 1.523 . S
C551 C535 1.429 . S
C551 C547 1.429 . S
C551 C552 1.523 . S
C552 C536 1.368 . S
C552 C548 1.368 . S
C552 C551 1.523 . S
H553 C528 0.950 . S
H554 C530 0.950 . S
H555 C531 0.949 . S
H556 C533 0.950 . S
H557 C535 0.950 . S
C558 C559 1.349 . S
C558 C560 1.327 . S
C558 H583 0.950 . S
C559 C558 1.349 . S
C559 C575 1.349 . S
C560 C558 1.327 . S
C560 C579 1.429 . S
C560 H584 0.950 . S
C561 C578 1.574 . S
C561 C580 1.368 . S
C561 H585 0.949 . S
H562 C566 0.949 . S
C563 C564 1.349 1_556 S
C563 C565 1.327 . S
C563 H586 0.970 . S
C564 C563 1.349 1_554 S
C564 C576 1.349 . S
C565 C563 1.327 . S
C565 C581 1.429 . S
C565 H587 0.950 . S
C566 H562 0.949 . S
C566 C574 1.574 . S
C566 C582 1.368 . S
H567 C575 0.950 . S
H568 C573 0.950 . S
H569 C574 0.949 . S
H570 C576 0.950 . S
H571 C577 0.950 . S
H572 C578 0.949 . S
C573 H568 0.950 . S
C573 C575 1.327 . S
C573 C579 1.429 . S
C574 C566 1.574 . S
C574 H569 0.949 . S
C574 C580 1.368 . S
C575 C559 1.349 . S
C575 H567 0.950 . S
C575 C573 1.327 . S
C576 C564 1.349 . S
C576 H570 0.950 . S
C576 C577 1.327 1_554 S
C577 H571 0.950 . S
C577 C576 1.327 1_556 S
C577 C581 1.429 . S
C578 C561 1.574 . S
C578 H572 0.949 . S
C578 C582 1.368 . S
C579 C560 1.429 . S
C579 C573 1.429 . S
C579 C580 1.523 . S
C580 C561 1.368 . S
C580 C574 1.368 . S
C580 C579 1.523 . S
C581 C565 1.429 . S
C581 C577 1.429 . S
C581 C582 1.523 . S
C582 C566 1.368 . S
C582 C578 1.368 . S
C582 C581 1.523 . S
H583 C558 0.950 . S
H584 C560 0.950 . S
H585 C561 0.949 . S
H586 C563 0.970 . S
H587 C565 0.950 . S
C588 C589 1.349 . S
C588 C590 1.327 . S
C588 H613 0.950 . S
C589 C588 1.349 . S
C589 C605 1.349 . S
C590 C588 1.327 . S
C590 C609 1.429 . S
C590 H614 0.950 . S
C591 C608 1.574 . S
C591 C610 1.368 . S
C591 H615 0.949 . S
H592 C596 0.949 . S
C593 C594 1.349 . S
C593 C595 1.327 . S
C593 H616 0.950 . S
C594 C593 1.349 . S
C594 C606 1.349 . S
C595 C593 1.327 . S
C595 C611 1.429 . S
C595 H617 0.950 . S
C596 H592 0.949 . S
C596 C604 1.574 . S
C596 C612 1.368 . S
H597 C605 0.950 . S
H598 C603 0.950 . S
H599 C604 0.949 . S
H600 C606 0.950 . S
H601 C607 0.950 . S
H602 C608 0.949 . S
C603 H598 0.950 . S
C603 C605 1.327 . S
C603 C609 1.429 . S
C604 C596 1.574 . S
C604 H599 0.949 . S
C604 C610 1.368 . S
C605 C589 1.349 . S
C605 H597 0.950 . S
C605 C603 1.327 . S
C606 C594 1.349 . S
C606 H600 0.950 . S
C606 C607 1.327 . S
C607 H601 0.950 . S
C607 C606 1.327 . S
C607 C611 1.429 . S
C608 C591 1.574 . S
C608 H602 0.949 . S
C608 C612 1.368 . S
C609 C590 1.429 . S
C609 C603 1.429 . S
C609 C610 1.523 . S
C610 C591 1.368 . S
C610 C604 1.368 . S
C610 C609 1.523 . S
C611 C595 1.429 . S
C611 C607 1.429 . S
C611 C612 1.523 . S
C612 C596 1.368 . S
C612 C608 1.368 . S
C612 C611 1.523 . S
H613 C588 0.950 . S
H614 C590 0.950 . S
H615 C591 0.949 . S
H616 C593 0.950 . S
H617 C595 0.950 . S
C618 C619 1.349 . S
C618 C620 1.327 . S
C618 H643 0.950 . S
C619 C618 1.349 . S
C619 C635 1.349 . S
C620 C618 1.327 . S
C620 C639 1.429 . S
C620 H644 0.950 . S
C621 C638 1.574 . S
C621 C640 1.368 . S
C621 H645 0.949 . S
H622 C626 0.949 . S
C623 C624 1.349 . S
C623 C625 1.327 . S
C623 H646 0.950 . S
C624 C623 1.349 . S
C624 C636 1.349 . S
C625 C623 1.327 . S
C625 C641 1.429 . S
C625 H647 0.950 . S
C626 H622 0.949 . S
C626 C634 1.574 . S
C626 C642 1.368 . S
H627 C635 0.950 . S
H628 C633 0.950 . S
H629 C634 0.949 . S
H630 C636 0.950 . S
H631 C637 0.950 . S
H632 C638 0.949 . S
C633 H628 0.950 . S
C633 C635 1.327 . S
C633 C639 1.429 . S
C634 C626 1.574 . S
C634 H629 0.949 . S
C634 C640 1.368 . S
C635 C619 1.349 . S
C635 H627 0.950 . S
C635 C633 1.327 . S
C636 C624 1.349 . S
C636 H630 0.950 . S
C636 C637 1.327 . S
C637 H631 0.950 . S
C637 C636 1.327 . S
C637 C641 1.429 . S
C638 C621 1.574 . S
C638 H632 0.949 . S
C638 C642 1.368 . S
C639 C620 1.429 . S
C639 C633 1.429 . S
C639 C640 1.523 . S
C640 C621 1.368 . S
C640 C634 1.368 . S
C640 C639 1.523 . S
C641 C625 1.429 . S
C641 C637 1.429 . S
C641 C642 1.523 . S
C642 C626 1.368 . S
C642 C638 1.368 . S
C642 C641 1.523 . S
H643 C618 0.950 . S
H644 C620 0.950 . S
H645 C621 0.949 . S
H646 C623 0.950 . S
H647 C625 0.950 . S
C648 C649 1.349 . S
C648 C650 1.327 . S
C648 H673 0.950 . S
C649 C648 1.349 . S
C649 C665 1.349 . S
C650 C648 1.327 . S
C650 C669 1.429 . S
C650 H674 0.950 . S
C651 C668 1.574 . S
C651 C670 1.368 . S
C651 H675 0.949 . S
H652 C656 0.949 . S
C653 C654 1.349 . S
C653 C655 1.327 . S
C653 H676 0.950 . S
C654 C653 1.349 . S
C654 C666 1.349 . S
C655 C653 1.327 . S
C655 C671 1.429 . S
C655 H677 0.950 . S
C656 H652 0.949 . S
C656 C664 1.574 . S
C656 C672 1.368 . S
H657 C665 0.950 . S
H658 C663 0.950 . S
H659 C664 0.949 . S
H660 C666 0.950 . S
H661 C667 0.950 . S
H662 C668 0.949 . S
C663 H658 0.950 . S
C663 C665 1.327 . S
C663 C669 1.429 . S
C664 C656 1.574 . S
C664 H659 0.949 . S
C664 C670 1.368 . S
C665 C649 1.349 . S
C665 H657 0.950 . S
C665 C663 1.327 . S
C666 C654 1.349 . S
C666 H660 0.950 . S
C666 C667 1.327 . S
C667 H661 0.950 . S
C667 C666 1.327 . S
C667 C671 1.429 . S
C668 C651 1.574 . S
C668 H662 0.949 . S
C668 C672 1.368 . S
C669 C650 1.429 . S
C669 C663 1.429 . S
C669 C670 1.523 . S
C670 C651 1.368 . S
C670 C664 1.368 . S
C670 C669 1.523 . S
C671 C655 1.429 . S
C671 C667 1.429 . S
C671 C672 1.523 . S
C672 C656 1.368 . S
C672 C668 1.368 . S
C672 C671 1.523 . S
H673 C648 0.950 . S
H674 C650 0.950 . S
H675 C651 0.949 . S
H676 C653 0.950 . S
H677 C655 0.950 . S
C678 C679 1.349 . S
C678 C680 1.327 . S
C678 H703 0.950 . S
C679 C678 1.349 . S
C679 C695 1.349 . S
C680 C678 1.327 . S
C680 C699 1.429 . S
C680 H704 0.950 . S
C681 C698 1.574 . S
C681 C700 1.368 . S
C681 H705 0.949 . S
H682 C686 0.949 . S
C683 C684 1.349 . S
C683 C685 1.327 . S
C683 H706 0.950 1_545 S
C684 C683 1.349 . S
C684 C696 1.349 . S
C685 C683 1.327 . S
C685 C701 1.429 . S
C685 H707 0.950 . S
C686 H682 0.949 . S
C686 C694 1.574 . S
C686 C702 1.368 . S
H687 C695 0.950 . S
H688 C693 0.950 . S
H689 C694 0.949 . S
H690 C696 0.950 . S
H691 C697 0.950 . S
H692 C698 0.949 . S
C693 H688 0.950 . S
C693 C695 1.327 . S
C693 C699 1.429 . S
C694 C686 1.574 . S
C694 H689 0.949 . S
C694 C700 1.368 . S
C695 C679 1.349 . S
C695 H687 0.950 . S
C695 C693 1.327 . S
C696 C684 1.349 . S
C696 H690 0.950 . S
C696 C697 1.327 . S
C697 H691 0.950 . S
C697 C696 1.327 . S
C697 C701 1.429 . S
C698 C681 1.574 . S
C698 H692 0.949 . S
C698 C702 1.368 . S
C699 C680 1.429 . S
C699 C693 1.429 . S
C699 C700 1.523 . S
C700 C681 1.368 . S
C700 C694 1.368 . S
C700 C699 1.523 . S
C701 C685 1.429 . S
C701 C697 1.429 . S
C701 C702 1.523 . S
C702 C686 1.368 . S
C702 C698 1.368 . S
C702 C701 1.523 . S
H703 C678 0.950 . S
H704 C680 0.950 . S
H705 C681 0.949 . S
H706 C683 0.950 1_565 S
H707 C685 0.950 . S
C708 C709 1.349 . S
C708 C710 1.327 . S
C708 H733 0.950 . S
C709 C708 1.349 . S
C709 C725 1.349 . S
C710 C708 1.327 . S
C710 C729 1.429 . S
C710 H734 0.950 . S
C711 C728 1.574 . S
C711 C730 1.368 . S
C711 H735 0.949 . S
H712 C716 0.949 . S
C713 C714 1.349 . S
C713 C715 1.327 . S
C713 H736 0.950 . S
C714 C713 1.349 . S
C714 C726 1.349 . S
C715 C713 1.327 . S
C715 C731 1.429 . S
C715 H737 0.950 . S
C716 H712 0.949 . S
C716 C724 1.574 . S
C716 C732 1.368 . S
H717 C725 0.950 . S
H718 C723 0.950 . S
H719 C724 0.949 . S
H720 C726 0.950 . S
H721 C727 0.950 . S
H722 C728 0.949 . S
C723 H718 0.950 . S
C723 C725 1.327 . S
C723 C729 1.429 . S
C724 C716 1.574 . S
C724 H719 0.949 . S
C724 C730 1.368 . S
C725 C709 1.349 . S
C725 H717 0.950 . S
C725 C723 1.327 . S
C726 C714 1.349 . S
C726 H720 0.950 . S
C726 C727 1.327 . S
C727 H721 0.950 . S
C727 C726 1.327 . S
C727 C731 1.429 . S
C728 C711 1.574 . S
C728 H722 0.949 . S
C728 C732 1.368 . S
C729 C710 1.429 . S
C729 C723 1.429 . S
C729 C730 1.523 . S
C730 C711 1.368 . S
C730 C724 1.368 . S
C730 C729 1.523 . S
C731 C715 1.429 . S
C731 C727 1.429 . S
C731 C732 1.523 . S
C732 C716 1.368 . S
C732 C728 1.368 . S
C732 C731 1.523 . S
H733 C708 0.950 . S
H734 C710 0.950 . S
H735 C711 0.949 . S
H736 C713 0.950 . S
H737 C715 0.950 . S
C738 C739 1.349 . S
C738 C740 1.327 . S
C738 H763 0.950 . S
C739 C738 1.349 . S
C739 C755 1.349 . S
C740 C738 1.327 . S
C740 C759 1.429 . S
C740 H764 0.950 . S
C741 C758 1.574 . S
C741 C760 1.368 . S
C741 H765 0.949 . S
H742 C746 0.949 . S
C743 C744 1.349 . S
C743 C745 1.327 . S
C743 H766 0.950 . S
C744 C743 1.349 . S
C744 C756 1.349 . S
C745 C743 1.327 . S
C745 C761 1.429 . S
C745 H767 0.950 . S
C746 H742 0.949 . S
C746 C754 1.574 . S
C746 C762 1.368 . S
H747 C755 0.950 . S
H748 C753 0.950 . S
H749 C754 0.949 . S
H750 C756 0.950 . S
H751 C757 0.950 . S
H752 C758 0.949 . S
C753 H748 0.950 . S
C753 C755 1.327 . S
C753 C759 1.429 . S
C754 C746 1.574 . S
C754 H749 0.949 . S
C754 C760 1.368 . S
C755 C739 1.349 . S
C755 H747 0.950 . S
C755 C753 1.327 . S
C756 C744 1.349 . S
C756 H750 0.950 . S
C756 C757 1.327 . S
C757 H751 0.950 . S
C757 C756 1.327 . S
C757 C761 1.429 . S
C758 C741 1.574 . S
C758 H752 0.949 . S
C758 C762 1.368 . S
C759 C740 1.429 . S
C759 C753 1.429 . S
C759 C760 1.523 . S
C760 C741 1.368 . S
C760 C754 1.368 . S
C760 C759 1.523 . S
C761 C745 1.429 . S
C761 C757 1.429 . S
C761 C762 1.523 . S
C762 C746 1.368 . S
C762 C758 1.368 . S
C762 C761 1.523 . S
H763 C738 0.950 . S
H764 C740 0.950 . S
H765 C741 0.949 . S
H766 C743 0.950 . S
H767 C745 0.950 . S
C768 C769 1.349 . S
C768 C770 1.327 . S
C768 H793 0.950 . S
C769 C768 1.349 . S
C769 C785 1.349 . S
C770 C768 1.327 . S
C770 C789 1.429 . S
C770 H794 0.950 . S
C771 C788 1.574 . S
C771 C790 1.368 . S
C771 H795 0.949 . S
H772 C776 0.949 . S
C773 C774 1.349 . S
C773 C775 1.327 . S
C773 H796 0.950 . S
C774 C773 1.349 . S
C774 C786 1.349 . S
C775 C773 1.327 . S
C775 C791 1.429 . S
C775 H797 0.950 . S
C776 H772 0.949 . S
C776 C784 1.574 . S
C776 C792 1.368 . S
H777 C785 0.950 . S
H778 C783 0.950 . S
H779 C784 0.949 . S
H780 C786 0.950 . S
H781 C787 0.950 . S
H782 C788 0.949 . S
C783 H778 0.950 . S
C783 C785 1.327 . S
C783 C789 1.429 . S
C784 C776 1.574 . S
C784 H779 0.949 . S
C784 C790 1.368 . S
C785 C769 1.349 . S
C785 H777 0.950 . S
C785 C783 1.327 . S
C786 C774 1.349 . S
C786 H780 0.950 . S
C786 C787 1.327 . S
C787 H781 0.950 . S
C787 C786 1.327 . S
C787 C791 1.429 . S
C788 C771 1.574 . S
C788 H782 0.949 . S
C788 C792 1.368 . S
C789 C770 1.429 . S
C789 C783 1.429 . S
C789 C790 1.523 . S
C790 C771 1.368 . S
C790 C784 1.368 . S
C790 C789 1.523 . S
C791 C775 1.429 . S
C791 C787 1.429 . S
C791 C792 1.523 . S
C792 C776 1.368 . S
C792 C788 1.368 . S
C792 C791 1.523 . S
H793 C768 0.950 . S
H794 C770 0.950 . S
H795 C771 0.949 . S
H796 C773 0.950 . S
H797 C775 0.950 . S
C798 C799 1.349 . S
C798 C800 1.327 . S
C798 H823 0.950 . S
C799 C798 1.349 . S
C799 C815 1.349 . S
C800 C798 1.327 . S
C800 C819 1.429 . S
C800 H824 0.950 . S
C801 C818 1.574 . S
C801 C820 1.368 . S
C801 H825 0.949 . S
H802 C806 0.949 . S
C803 C804 1.349 . S
C803 C805 1.327 . S
C803 H826 0.950 . S
C804 C803 1.349 . S
C804 C816 1.349 . S
C805 C803 1.327 . S
C805 C821 1.429 . S
C805 H827 0.950 . S
C806 H802 0.949 . S
C806 C814 1.574 . S
C806 C822 1.368 . S
H807 C815 0.950 . S
H808 C813 0.950 . S
H809 C814 0.949 . S
H810 C816 0.950 . S
H811 C817 0.950 . S
H812 C818 0.949 . S
C813 H808 0.950 . S
C813 C815 1.327 . S
C813 C819 1.429 . S
C814 C806 1.574 . S
C814 H809 0.949 . S
C814 C820 1.368 . S
C815 C799 1.349 . S
C815 H807 0.950 . S
C815 C813 1.327 . S
C816 C804 1.349 . S
C816 H810 0.950 . S
C816 C817 1.327 . S
C817 H811 0.950 . S
C817 C816 1.327 . S
C817 C821 1.429 . S
C818 C801 1.574 . S
C818 H812 0.949 . S
C818 C822 1.368 . S
C819 C800 1.429 . S
C819 C813 1.429 . S
C819 C820 1.523 . S
C820 C801 1.368 . S
C820 C814 1.368 . S
C820 C819 1.523 . S
C821 C805 1.429 . S
C821 C817 1.429 . S
C821 C822 1.523 . S
C822 C806 1.368 . S
C822 C818 1.368 . S
C822 C821 1.523 . S
H823 C798 0.950 . S
H824 C800 0.950 . S
H825 C801 0.949 . S
H826 C803 0.950 . S
H827 C805 0.950 . S
C828 C829 1.349 . S
C828 C830 1.327 . S
C828 H853 0.950 . S
C829 C828 1.349 . S
C829 C845 1.349 . S
C830 C828 1.327 . S
C830 C849 1.429 . S
C830 H854 0.950 . S
C831 C848 1.574 . S
C831 C850 1.368 . S
C831 H855 0.949 . S
H832 C836 0.949 . S
C833 C834 1.349 . S
C833 C835 1.327 . S
C833 H856 0.950 . S
C834 C833 1.349 . S
C834 C846 1.349 . S
C835 C833 1.327 . S
C835 C851 1.429 . S
C835 H857 0.950 . S
C836 H832 0.949 . S
C836 C844 1.574 . S
C836 C852 1.368 . S
H837 C845 0.950 . S
H838 C843 0.950 . S
H839 C844 0.949 . S
H840 C846 0.950 . S
H841 C847 0.950 . S
H842 C848 0.949 . S
C843 H838 0.950 . S
C843 C845 1.327 . S
C843 C849 1.429 . S
C844 C836 1.574 . S
C844 H839 0.949 . S
C844 C850 1.368 . S
C845 C829 1.349 . S
C845 H837 0.950 . S
C845 C843 1.327 . S
C846 C834 1.349 . S
C846 H840 0.950 . S
C846 C847 1.327 . S
C847 H841 0.950 . S
C847 C846 1.327 . S
C847 C851 1.429 . S
C848 C831 1.574 . S
C848 H842 0.949 . S
C848 C852 1.368 . S
C849 C830 1.429 . S
C849 C843 1.429 . S
C849 C850 1.523 . S
C850 C831 1.368 . S
C850 C844 1.368 . S
C850 C849 1.523 . S
C851 C835 1.429 . S
C851 C847 1.429 . S
C851 C852 1.523 . S
C852 C836 1.368 . S
C852 C848 1.368 . S
C852 C851 1.523 . S
H853 C828 0.950 . S
H854 C830 0.950 . S
H855 C831 0.949 . S
H856 C833 0.950 . S
H857 C835 0.950 . S
C858 C859 1.349 . S
C858 C860 1.327 . S
C858 H883 0.950 . S
C859 C858 1.349 . S
C859 C875 1.349 . S
C860 C858 1.327 . S
C860 C879 1.429 . S
C860 H884 0.950 . S
C861 C878 1.574 . S
C861 C880 1.368 . S
C861 H885 0.949 . S
H862 C866 0.949 . S
C863 C864 1.349 . S
C863 C865 1.327 . S
C863 H886 0.950 . S
C864 C863 1.349 . S
C864 C876 1.349 . S
C865 C863 1.327 . S
C865 C881 1.429 . S
C865 H887 0.950 . S
C866 H862 0.949 . S
C866 C874 1.574 . S
C866 C882 1.368 . S
H867 C875 0.950 . S
H868 C873 0.950 . S
H869 C874 0.949 . S
H870 C876 0.950 . S
H871 C877 0.950 . S
H872 C878 0.949 . S
C873 H868 0.950 . S
C873 C875 1.327 . S
C873 C879 1.429 . S
C874 C866 1.574 . S
C874 H869 0.949 . S
C874 C880 1.368 . S
C875 C859 1.349 . S
C875 H867 0.950 . S
C875 C873 1.327 . S
C876 C864 1.349 . S
C876 H870 0.950 . S
C876 C877 1.327 . S
C877 H871 0.950 . S
C877 C876 1.327 . S
C877 C881 1.429 . S
C878 C861 1.574 . S
C878 H872 0.949 . S
C878 C882 1.368 . S
C879 C860 1.429 . S
C879 C873 1.429 . S
C879 C880 1.523 . S
C880 C861 1.368 . S
C880 C874 1.368 . S
C880 C879 1.523 . S
C881 C865 1.429 . S
C881 C877 1.429 . S
C881 C882 1.523 . S
C882 C866 1.368 . S
C882 C878 1.368 . S
C882 C881 1.523 . S
H883 C858 0.950 . S
H884 C860 0.950 . S
H885 C861 0.949 . S
H886 C863 0.950 . S
H887 C865 0.950 . S
C169 C120 1.349 . S
C174 C8 1.349 . S
C199 C22 1.349 . S
C204 C134 1.349 . S
C229 C36 1.349 . S
C234 C148 1.349 . S
C259 C50 1.349 . S
C264 C162 1.349 . S
C289 C92 1.349 . S
C294 C64 1.349 . S
C319 C78 1.349 . S
C324 C106 1.349 . S
C349 C7 1.485 . S
C354 C73 1.505 . S
C379 C21 1.485 . S
C384 C3 1.505 1_655 S
C409 C35 1.485 . S
C414 C17 1.505 1_565 S
C439 C31 1.505 . S
C444 C49 1.485 . S
C469 C45 1.505 1_455 S
C474 C63 1.485 . S
C499 C59 1.505 1_545 S
C504 C77 1.485 . S
C529 C101 1.505 . S
C534 C91 1.485 . S
C559 C105 1.485 . S
C564 C115 1.505 1_655 S
C589 C129 1.505 1_565 S
C594 C119 1.485 . S
C619 C133 1.485 . S
C624 C143 1.505 . S
C649 C147 1.485 . S
C654 C157 1.505 1_455 S
C679 C161 1.485 . S
C684 C87 1.505 1_545 S
C709 C149 1.203 . S
C714 C9 1.203 . S
C739 C163 1.203 . S
C744 C23 1.203 . S
C769 C93 1.203 . S
C774 C37 1.203 . S
C799 C51 1.203 . S
C804 C107 1.203 . S
C829 C65 1.203 . S
C834 C121 1.200 1_556 S
C859 C135 1.203 . S
C864 C79 1.200 1_554 S
