# Generated by pormake.
# Topology qzd, (4)-cn, num edge types: 1
# Building blocks:
#     Node 0, Type 0, BuildingBlock: MUDLON_clean_sbu_0, # of connection points: 4
#     Node 1, Type 0, BuildingBlock: MUDLON_clean_sbu_0, # of connection points: 4
#     Node 2, Type 0, BuildingBlock: MUDLON_clean_sbu_0, # of connection points: 4
#     Edge 3, Type (0, 0), BuildingBlock: MIFKUJ_clean_linker_0, # of connection points: 2
#     Edge 4, Type (0, 0), BuildingBlock: MIFKUJ_clean_linker_0, # of connection points: 2
#     Edge 5, Type (0, 0), BuildingBlock: MIFKUJ_clean_linker_0, # of connection points: 2
#     Edge 6, Type (0, 0), BuildingBlock: MIFKUJ_clean_linker_0, # of connection points: 2
#     Edge 7, Type (0, 0), BuildingBlock: MIFKUJ_clean_linker_0, # of connection points: 2
#     Edge 8, Type (0, 0), BuildingBlock: MIFKUJ_clean_linker_0, # of connection points: 2
# Relax obj value: 0.001
# Max RMSD: 0.021
# Mean RMSD: 0.017
data_MOF--net-qzd--node1-MUDLON_clean_sbu_0--edge1-MIFKUJ_clean_linker_0
_symmetry_space_group_name_H-M    P1
_symmetry_Int_Tables_number       1
_symmetry_cell_setting            triclinic
loop_
_symmetry_equiv_pos_as_xyz
'x, y, z'
_cell_length_a     20.226889
_cell_length_b     19.781431
_cell_length_c     59.245935
_cell_angle_alpha  91.65313
_cell_angle_beta   90.379043
_cell_angle_gamma 120.70891
loop_
_atom_site_label
_atom_site_type_symbol
_atom_site_fract_x
_atom_site_fract_y
_atom_site_fract_z
_atom_type_partial_charge
Mg0 Mg 0.00873 0.02276 0.01835 0.0
C1 C 0.12668 0.96898 1.00947 0.0
O2 O 0.06782 0.91583 0.99708 0.0
C3 C 0.83562 0.96606 0.02365 0.0
O4 O 0.83859 0.90713 0.03223 0.0
C5 C 0.96406 0.97764 0.96599 0.0
O6 O 0.9005 0.92017 0.97415 0.0
O7 O 0.01677 0.02696 0.97962 0.0
O8 O 0.12053 0.02158 0.02044 0.0
O9 O 1.00309 0.02281 0.05714 0.0
C10 C 1.00586 0.97196 0.06917 0.0
O11 O 0.01143 0.91498 0.05918 0.0
O12 O 0.89679 0.02367 0.01629 0.0
Mg13 Mg 0.95642 0.09404 0.35716 0.0
C14 C 0.09163 0.24827 0.35194 0.0
O15 O 0.11281 0.19615 0.34855 0.0
C16 C 0.80124 0.9594 0.34831 0.0
O17 O 0.84864 0.93724 0.34094 0.0
C18 C 0.97744 0.09213 0.30863 0.0
O19 O 0.95443 0.14244 0.31274 0.0
O20 O 0.98656 0.05804 0.32527 0.0
O21 O 0.02159 0.22334 0.35664 0.0
O22 O 0.99207 0.06871 0.38925 0.0
C23 C 0.96528 1.00131 0.39761 0.0
O24 O 0.91747 0.93807 0.38543 0.0
O25 O 0.82986 0.02933 0.35655 0.0
Mg26 Mg 0.15163 0.07547 0.68049 0.0
C27 C 0.16059 0.227 0.68156 0.0
O28 O 0.08786 0.17284 0.68368 0.0
C29 C 0.22047 0.97736 0.69505 0.0
O30 O 0.18957 0.98147 0.71407 0.0
C31 C 0.0717 0.9795 0.6371 0.0
O32 O 0.09767 0.93519 0.6445 0.0
O33 O 0.0801 0.03703 0.64957 0.0
O34 O 0.20932 0.20452 0.6797 0.0
O35 O 0.09105 0.04517 0.7126 0.0
C36 C 0.13095 0.08998 0.72931 0.0
O37 O 0.20041 0.14879 0.72554 0.0
O38 O 0.21972 0.01704 0.67857 0.0
H39 H 0.69489 0.85188 0.03775 0.0
H40 H 0.573 0.84942 0.03513 0.0
H41 H 0.68789 0.0758 1.00465 0.0
H42 H 0.8098 0.07829 1.0069 0.0
H43 H 0.52626 0.9435 0.0531 0.0
H44 H 0.56642 0.0815 0.96569 0.0
H45 H 0.63318 0.09066 0.9302 0.0
H46 H 0.62491 0.87417 0.94335 0.0
H47 H 0.55713 0.86314 0.97874 0.0
H48 H 0.25575 0.06458 0.03538 0.0
H49 H 0.37458 0.06093 0.03756 0.0
H50 H 0.28022 0.86639 0.98872 0.0
H51 H 0.16141 0.87011 0.98623 0.0
H52 H 0.42691 0.97372 0.97957 0.0
H53 H 0.28711 0.83345 0.04378 0.0
H54 H 0.21425 0.81397 0.07859 0.0
H55 H 0.41061 1.01345 0.11075 0.0
H56 H 0.48443 0.03476 0.07599 0.0
C57 C 0.69428 0.90116 0.03047 0.0
C58 C 0.76202 0.9651 0.02242 0.0
C59 C 0.62459 0.89976 0.02907 0.0
C60 C 0.62121 0.96204 0.01951 0.0
C61 C 0.68896 0.02655 0.01179 0.0
C62 C 0.75865 0.02797 0.01315 0.0
C63 C 0.54671 0.95926 0.01746 0.0
C64 C 0.50459 0.95018 0.03703 0.0
C65 C 0.51775 0.96661 0.99643 0.0
C66 C 0.55739 0.97198 0.97498 0.0
C67 C 0.57856 0.0357 0.96096 0.0
C68 C 0.61662 0.04123 0.94087 0.0
C69 C 0.6335 0.98317 0.93456 0.0
C70 C 0.61206 0.91926 0.9483 0.0
C71 C 0.57389 0.91339 0.96838 0.0
C72 C 0.26024 0.02105 0.02507 0.0
C73 C 0.19896 0.96739 1.0107 0.0
C74 C 0.32812 0.01889 0.0264 0.0
C75 C 0.33591 0.96288 0.01346 0.0
C76 C 0.27533 0.91003 0.99886 0.0
C77 C 0.20737 0.91206 0.99753 0.0
C78 C 0.40717 0.95924 0.01525 0.0
C79 C 0.44869 0.96718 0.99564 0.0
C80 C 0.43482 0.94934 0.03617 0.0
C81 C 0.39107 0.93609 0.05721 0.0
C82 C 0.31462 0.87346 0.05823 0.0
C83 C 0.27317 0.86205 0.07795 0.0
C84 C 0.30773 0.91255 0.09685 0.0
C85 C 0.38392 0.97442 0.09608 0.0
C86 C 0.42563 0.98614 0.07638 0.0
H87 H 0.27548 0.90361 0.11209 0.0
H88 H 0.66306 0.98763 0.91902 0.0
H89 H 0.72942 0.81386 0.32804 0.0
H90 H 0.59438 0.71329 0.32819 0.0
H91 H 0.54515 0.8695 0.36703 0.0
H92 H 0.6827 0.97178 0.36728 0.0
H93 H 0.4726 0.72065 0.38367 0.0
H94 H 0.48685 0.82753 0.31218 0.0
H95 H 0.54273 0.87992 0.27536 0.0
H96 H 0.51222 0.65593 0.25444 0.0
H97 H 0.45735 0.60247 0.29127 0.0
H98 H 0.08749 0.37857 0.36845 0.0
H99 H 0.19122 0.5175 0.36718 0.0
H100 H 0.33027 0.44692 0.3301 0.0
H101 H 0.22841 0.31001 0.33131 0.0
H102 H 0.3375 0.5761 0.31246 0.0
H103 H 0.35415 0.48424 0.38701 0.0
H104 H 0.30368 0.43266 0.4244 0.0
H105 H 0.27627 0.63067 0.43917 0.0
H106 H 0.32576 0.68289 0.40173 0.0
C107 C 0.69027 0.82764 0.33654 0.0
C108 C 0.71721 0.90129 0.34761 0.0
C109 C 0.61257 0.76984 0.33649 0.0
C110 C 0.55905 0.78395 0.3473 0.0
C111 C 0.5853 0.85742 0.35844 0.0
C112 C 0.66378 0.91588 0.35848 0.0
C113 C 0.47672 0.71978 0.34734 0.0
C114 C 0.44209 0.69036 0.36807 0.0
C115 C 0.43674 0.67978 0.32702 0.0
C116 C 0.46805 0.71102 0.30456 0.0
C117 C 0.49229 0.78948 0.29977 0.0
C118 C 0.52383 0.81939 0.27889 0.0
C119 C 0.53107 0.77131 0.26257 0.0
C120 C 0.50652 0.6931 0.26708 0.0
C121 C 0.47503 0.6629 0.28795 0.0
C122 C 0.13995 0.39306 0.35985 0.0
C123 C 0.14982 0.33314 0.35011 0.0
C124 C 0.19924 0.47233 0.3592 0.0
C125 C 0.26884 0.49274 0.34861 0.0
C126 C 0.27726 0.43296 0.3383 0.0
C127 C 0.21887 0.35438 0.33913 0.0
C128 C 0.33516 0.57518 0.34876 0.0
C129 C 0.36683 0.60795 0.32802 0.0
C130 C 0.37218 0.61824 0.36904 0.0
C131 C 0.3426 0.58686 0.39149 0.0
C132 C 0.33673 0.51639 0.39816 0.0
C133 C 0.30844 0.48712 0.41937 0.0
C134 C 0.28651 0.52821 0.43412 0.0
C135 C 0.29307 0.59879 0.42771 0.0
C136 C 0.32124 0.62826 0.40651 0.0
H137 H 0.26464 0.50547 0.45053 0.0
H138 H 0.55568 0.79464 0.24644 0.0
H139 H 0.25526 0.92578 0.65565 0.0
H140 H 0.26955 0.81051 0.65038 0.0
H141 H 0.24676 0.77427 0.72201 0.0
H142 H 0.23409 0.88968 0.72744 0.0
H143 H 0.3462 0.73536 0.70602 0.0
H144 H 0.09065 0.67985 0.68535 0.0
H145 H 0.99833 0.701 0.66382 0.0
H146 H 0.0759 0.65105 0.60169 0.0
H147 H 0.16949 0.63068 0.62287 0.0
H148 H 0.06774 0.28674 0.68914 0.0
H149 H 0.09921 0.4226 0.6886 0.0
H150 H 0.33365 0.49587 0.67258 0.0
H151 H 0.30249 0.35833 0.67352 0.0
H152 H 0.14271 0.52303 0.65668 0.0
H153 H 0.45019 0.68772 0.69439 0.0
H154 H 0.5342 0.66468 0.71943 0.0
H155 H 0.33638 0.48811 0.75318 0.0
H156 H 0.25137 0.5108 0.72852 0.0
C157 C 0.25512 0.89438 0.67034 0.0
C158 C 0.24268 0.91665 0.69195 0.0
C159 C 0.26291 0.82815 0.66729 0.0
C160 C 0.25794 0.78266 0.68575 0.0
C161 C 0.25068 0.80803 0.70747 0.0
C162 C 0.24305 0.87407 0.71054 0.0
C163 C 0.25265 0.70486 0.68248 0.0
C164 C 0.30232 0.68923 0.695 0.0
C165 C 0.1948 0.64396 0.66838 0.0
C166 C 0.13761 0.65466 0.65566 0.0
C167 C 0.08826 0.6738 0.66709 0.0
C168 C 0.03573 0.68564 0.65496 0.0
C169 C 0.03144 0.67766 0.63139 0.0
C170 C 0.07943 0.65742 0.61993 0.0
C171 C 0.13221 0.6457 0.63199 0.0
C172 C 0.12622 0.3314 0.68551 0.0
C173 C 0.1826 0.31126 0.68138 0.0
C174 C 0.14405 0.40943 0.68511 0.0
C175 C 0.21879 0.47 0.68055 0.0
C176 C 0.27563 0.45044 0.67635 0.0
C177 C 0.25778 0.37177 0.67686 0.0
C178 C 0.23562 0.55292 0.68046 0.0
C179 C 0.1879 0.56955 0.66729 0.0
C180 C 0.29408 0.61404 0.69437 0.0
C181 C 0.3445 0.60028 0.70942 0.0
C182 C 0.42471 0.64409 0.70718 0.0
C183 C 0.47248 0.6311 0.72131 0.0
C184 C 0.44063 0.57474 0.73782 0.0
C185 C 0.36096 0.53149 0.74031 0.0
C186 C 0.31296 0.54433 0.72625 0.0
H187 H 0.47769 0.56473 0.74873 0.0
H188 H 0.99083 0.68698 0.62203 0.0
H189 H 0.98847 0.17636 0.27208 0.0
H190 H 0.99441 0.14415 0.23252 0.0
H191 H 0.99587 0.93575 0.25113 0.0
H192 H 0.99092 0.96855 0.29128 0.0
H193 H 0.09504 1.01173 0.21619 0.0
H194 H 0.83152 0.9159 0.23155 0.0
H195 H 0.72072 0.92115 0.24655 0.0
H196 H 0.76751 0.10952 0.20295 0.0
H197 H 0.87916 0.10603 0.18787 0.0
H198 H 0.00928 0.8727 0.09998 0.0
H199 H 1.00506 0.88217 0.14118 0.0
H200 H 0.99409 0.09337 0.13628 0.0
H201 H 0.99701 0.08365 0.09515 0.0
H202 H 0.89156 0.99641 0.16529 0.0
H203 H 0.16163 0.09623 0.15203 0.0
H204 H 0.27145 0.08851 0.13728 0.0
H205 H 0.2095 0.88728 0.17699 0.0
H206 H 0.09864 0.89314 0.19174 0.0
C207 C 0.99046 0.12377 0.26789 0.0
C208 C 0.98832 0.07451 0.28487 0.0
C209 C 0.99368 0.10534 0.24519 0.0
C210 C 0.99391 0.03665 0.23878 0.0
C211 C 0.99521 0.98882 0.25568 0.0
C212 C 0.99238 1.00758 0.2786 0.0
C213 C 0.99026 1.01478 0.21434 0.0
C214 C 0.04981 1.00688 0.20509 0.0
C215 C 0.93159 1.00908 0.19979 0.0
C216 C 0.86403 1.01099 0.20868 0.0
C217 C 0.81847 0.95876 0.22525 0.0
C218 C 0.75546 0.96137 0.23376 0.0
C219 C 0.73717 0.01572 0.22574 0.0
C220 C 0.78174 0.06744 0.20915 0.0
C221 C 0.84482 0.06508 0.20059 0.0
C222 C 1.006 0.92122 0.10766 0.0
C223 C 1.00353 0.97746 0.09421 0.0
C224 C 1.00397 0.92674 0.13126 0.0
C225 C 1.00001 0.98893 0.14191 0.0
C226 C 0.99714 0.04483 0.12849 0.0
C227 C 0.99899 0.03928 0.10494 0.0
C228 C 0.99757 0.99568 0.16698 0.0
C229 C 0.93647 1.00044 0.17637 0.0
C230 C 0.05451 0.99785 0.18159 0.0
C231 C 0.12139 0.99464 0.17281 0.0
C232 C 0.17109 0.04997 0.15748 0.0
C233 C 0.23357 0.04599 0.14915 0.0
C234 C 0.24735 0.98735 0.15616 0.0
C235 C 0.19871 0.93262 0.17155 0.0
C236 C 0.13608 0.93627 0.17992 0.0
H237 H 0.29585 0.98448 0.14973 0.0
H238 H 0.68841 0.01769 0.23235 0.0
H239 H 0.05007 0.08281 0.61289 0.0
H240 H 0.02485 0.0772 0.57237 0.0
H241 H 0.0082 0.85105 0.56632 0.0
H242 H 0.03623 0.8577 0.60683 0.0
H243 H 0.09296 0.93609 0.53461 0.0
H244 H 0.84734 0.87573 0.56036 0.0
H245 H 0.75319 0.89059 0.58289 0.0
H246 H 0.8284 0.11505 0.55444 0.0
H247 H 0.9238 0.10206 0.53195 0.0
H248 H 0.93962 0.87047 0.41982 0.0
H249 H 0.95319 0.85928 0.46054 0.0
H250 H 0.03312 0.10599 0.47114 0.0
H251 H 0.02138 0.11817 0.43056 0.0
H252 H 0.90884 1.00028 0.49987 0.0
H253 H 0.15921 0.05728 0.47527 0.0
H254 H 0.24782 0.03478 0.45226 0.0
H255 H 0.15314 0.80372 0.47827 0.0
H256 H 0.06313 0.82446 0.5012 0.0
C257 C 0.03978 0.0312 0.60304 0.0
C258 C 0.0452 0.9707 0.61316 0.0
C259 C 0.02507 0.02792 0.57979 0.0
C260 C 0.01385 0.96334 0.56615 0.0
C261 C 0.01682 0.90165 0.57638 0.0
C262 C 0.03245 0.90533 0.5996 0.0
C263 C 1.00356 0.9625 0.54113 0.0
C264 C 0.05158 0.94869 0.52708 0.0
C265 C 0.95043 0.97999 0.53109 0.0
C266 C 0.89322 0.9882 0.54461 0.0
C267 C 0.84425 0.92855 0.55903 0.0
C268 C 0.79057 0.93659 0.57178 0.0
C269 C 0.78494 1.00381 0.57014 0.0
C270 C 0.83288 0.06306 0.55571 0.0
C271 C 0.88671 0.05534 0.54294 0.0
C272 C 0.96093 0.92252 0.43079 0.0
C273 C 0.97956 0.99523 0.4219 0.0
C274 C 0.96857 0.916 0.45404 0.0
C275 C 0.99388 0.98177 0.46885 0.0
C276 C 0.01326 0.05449 0.46001 0.0
C277 C 0.00696 0.06138 0.43677 0.0
C278 C 0.99862 0.97472 0.49364 0.0
C279 C 0.94957 0.98703 0.50755 0.0
C280 C 0.04979 0.95459 0.50351 0.0
C281 C 0.1038 0.94206 0.48973 0.0
C282 C 0.15673 1.00137 0.4759 0.0
C283 C 0.20734 0.98901 0.46292 0.0
C284 C 0.20593 0.91777 0.46375 0.0
C285 C 0.15405 0.85881 0.47761 0.0
C286 C 0.10326 0.87086 0.49061 0.0
H287 H 0.24519 0.90833 0.45369 0.0
H288 H 0.74333 1.0099 0.58001 0.0
H289 H 0.9941 0.96882 0.74482 0.0
H290 H 0.95593 0.94105 0.78434 0.0
H291 H 0.16929 0.14699 0.80646 0.0
H292 H 0.20761 0.17485 0.76742 0.0
H293 H 0.14135 0.0204 0.82992 0.0
H294 H 1.0008 0.14567 0.80714 0.0
H295 H 0.90844 0.16082 0.78363 0.0
H296 H 0.7271 0.93185 0.80144 0.0
H297 H 0.8187 0.91493 0.82483 0.0
H298 H 0.08876 0.08866 0.94361 0.0
H299 H 0.10726 0.09879 0.90291 0.0
H300 H 0.88308 0.89228 0.8913 0.0
H301 H 0.86352 0.88239 0.9321 0.0
H302 H 0.90722 1.00321 0.86174 0.0
H303 H 0.04429 0.88065 0.8865 0.0
H304 H 0.13545 0.86438 0.91024 0.0
H305 H 0.32188 0.08425 0.88848 0.0
H306 H 0.23164 0.10247 0.86486 0.0
C307 C 0.03252 1.00841 0.75812 0.0
C308 C 0.10399 0.07397 0.7529 0.0
C309 C 0.01062 0.99255 0.78069 0.0
C310 C 0.0598 0.04197 0.79841 0.0
C311 C 0.13054 0.10776 0.79314 0.0
C312 C 0.15224 0.12372 0.77072 0.0
C313 C 0.03944 0.02515 0.82254 0.0
C314 C 0.09044 0.01728 0.8369 0.0
C315 C 0.97181 0.01852 0.83156 0.0
C316 C 0.91678 0.02864 0.8175 0.0
C317 C 0.94138 0.09826 0.80587 0.0
C318 C 0.88914 0.10723 0.79261 0.0
C319 C 0.812 0.04723 0.79098 0.0
C320 C 0.7869 0.97821 0.80267 0.0
C321 C 0.83894 0.96891 0.81594 0.0
C322 C 0.04324 0.04535 0.93245 0.0
C323 C 0.9748 0.98441 0.94119 0.0
C324 C 0.05404 0.05106 0.90913 0.0
C325 C 0.99703 0.99562 0.89399 0.0
C326 C 0.928 0.9356 0.90262 0.0
C327 C 0.91706 0.92989 0.92598 0.0
C328 C 0.01015 1.00037 0.86921 0.0
C329 C 0.95777 1.00564 0.85473 0.0
C330 C 0.0764 1.00425 0.86001 0.0
C331 C 0.13105 0.99321 0.87404 0.0
C332 C 0.10465 0.92581 0.88689 0.0
C333 C 0.15616 0.9162 0.90032 0.0
C334 C 0.23438 0.97333 0.90091 0.0
C335 C 0.26126 0.04008 0.88802 0.0
C336 C 0.20996 0.05004 0.87459 0.0
H337 H 0.27417 0.9658 0.91132 0.0
H338 H 0.77164 0.0543 0.78071 0.0
loop_
_geom_bond_atom_site_label_1
_geom_bond_atom_site_label_2
_geom_bond_distance
_geom_bond_site_symmetry_2
_ccdc_geom_bond_type
Mg0 O7 2.141 1_554 S
Mg0 O8 2.048 . S
Mg0 O9 2.048 . S
Mg0 O12 2.141 1_455 S
C1 O2 1.313 1_545 S
C1 O8 1.195 . S
O2 C1 1.313 1_565 S
C3 O4 1.245 1_545 S
C3 O12 1.289 . S
O4 C3 1.245 1_565 S
C5 O6 1.245 1_445 S
C5 O7 1.289 . S
O6 C5 1.245 1_665 S
O7 Mg0 2.141 1_556 S
O7 C5 1.289 . S
O8 Mg0 2.048 . S
O8 C1 1.195 . S
O9 Mg0 2.048 . S
O9 C10 1.195 . S
C10 O9 1.195 . S
C10 O11 1.313 1_445 S
O11 C10 1.313 1_665 S
O12 Mg0 2.141 1_655 S
O12 C3 1.289 . S
Mg13 O20 2.141 . S
Mg13 O21 2.048 1_655 S
Mg13 O22 2.048 . S
Mg13 O25 2.141 1_545 S
C14 O15 1.313 . S
C14 O21 1.195 . S
O15 C14 1.313 . S
C16 O17 1.245 . S
C16 O25 1.289 . S
O17 C16 1.245 . S
C18 O19 1.245 1_545 S
C18 O20 1.289 1_455 S
O19 C18 1.245 1_565 S
O20 Mg13 2.141 . S
O20 C18 1.289 1_655 S
O21 Mg13 2.048 1_455 S
O21 C14 1.195 . S
O22 Mg13 2.048 . S
O22 C23 1.195 1_655 S
C23 O22 1.195 1_455 S
C23 O24 1.313 1_545 S
O24 C23 1.313 1_565 S
O25 Mg13 2.141 1_565 S
O25 C16 1.289 . S
Mg26 O33 2.141 1_445 S
Mg26 O34 2.048 . S
Mg26 O35 2.047 1_545 S
Mg26 O38 2.141 1_445 S
C27 O28 1.313 . S
C27 O34 1.195 . S
O28 C27 1.313 . S
C29 O30 1.245 . S
C29 O38 1.289 1_455 S
O30 C29 1.245 . S
C31 O32 1.245 . S
C31 O33 1.289 1_445 S
O32 C31 1.245 . S
O33 Mg26 2.141 1_665 S
O33 C31 1.289 1_665 S
O34 Mg26 2.048 . S
O34 C27 1.195 . S
O35 Mg26 2.047 1_565 S
O35 C36 1.194 1_565 S
C36 O35 1.194 1_545 S
C36 O37 1.313 . S
O37 C36 1.313 . S
O38 Mg26 2.141 1_665 S
O38 C29 1.289 1_655 S
H39 C57 0.951 . S
H40 C59 0.951 . S
H41 C61 0.950 . S
H42 C62 0.950 . S
H43 C64 0.950 . S
H44 C67 0.950 1_554 S
H45 C68 0.950 . S
H46 C70 0.950 . S
H47 C71 0.950 . S
H48 C72 0.951 . S
H49 C74 0.951 . S
H50 C76 0.950 . S
H51 C77 0.950 . S
H52 C79 0.950 . S
H53 C82 0.950 . S
H54 C83 0.950 . S
H55 C85 0.950 . S
H56 C86 0.950 . S
C57 H39 0.951 . S
C57 C58 1.366 1_556 S
C57 C59 1.388 . S
C58 C57 1.366 1_554 S
C58 C62 1.385 . S
C59 H40 0.951 . S
C59 C57 1.388 . S
C59 C60 1.366 1_556 S
C60 C59 1.366 1_554 S
C60 C61 1.414 . S
C60 C63 1.499 . S
C61 H41 0.950 . S
C61 C60 1.414 . S
C61 C62 1.374 . S
C62 H42 0.950 . S
C62 C58 1.385 . S
C62 C61 1.374 . S
C63 C60 1.499 . S
C63 C64 1.373 1_545 S
C63 C65 1.389 1_554 S
C64 H43 0.950 . S
C64 C63 1.373 1_565 S
C64 C80 1.377 . S
C65 C63 1.389 1_556 S
C65 C66 1.524 . S
C65 C79 1.377 . S
C66 C65 1.524 . S
C66 C67 1.397 . S
C66 C71 1.363 . S
C67 H44 0.950 1_556 S
C67 C66 1.397 . S
C67 C68 1.334 . S
C68 H45 0.950 . S
C68 C67 1.334 . S
C68 C69 1.287 . S
C69 C68 1.287 . S
C69 C70 1.524 . S
C69 H88 0.913 . S
C70 H46 0.950 . S
C70 C69 1.524 . S
C70 C71 1.415 . S
C71 H47 0.950 . S
C71 C66 1.363 . S
C71 C70 1.415 . S
C72 H48 0.951 . S
C72 C73 1.366 . S
C72 C74 1.388 . S
C73 C72 1.366 . S
C73 C77 1.385 1_554 S
C74 H49 0.951 . S
C74 C72 1.388 . S
C74 C75 1.366 . S
C75 C74 1.366 . S
C75 C76 1.414 1_554 S
C75 C78 1.499 . S
C76 H50 0.950 . S
C76 C75 1.414 1_556 S
C76 C77 1.374 . S
C77 H51 0.950 . S
C77 C73 1.385 1_556 S
C77 C76 1.374 . S
C78 C75 1.499 . S
C78 C79 1.373 1_554 S
C78 C80 1.389 1_545 S
C79 H52 0.950 . S
C79 C65 1.377 . S
C79 C78 1.373 1_556 S
C80 C64 1.377 . S
C80 C78 1.389 1_565 S
C80 C81 1.524 . S
C81 C80 1.524 . S
C81 C82 1.397 . S
C81 C86 1.363 . S
C82 H53 0.950 . S
C82 C81 1.397 . S
C82 C83 1.334 . S
C83 H54 0.950 . S
C83 C82 1.334 . S
C83 C84 1.287 . S
C84 C83 1.287 . S
C84 C85 1.524 . S
C84 H87 0.999 . S
C85 H55 0.950 . S
C85 C84 1.524 . S
C85 C86 1.415 . S
C86 H56 0.950 . S
C86 C81 1.363 . S
C86 C85 1.415 . S
H87 C84 0.999 . S
H88 C69 0.913 . S
H89 C107 0.951 . S
H90 C109 0.951 . S
H91 C111 0.950 . S
H92 C112 0.950 . S
H93 C114 0.950 . S
H94 C117 0.950 . S
H95 C118 0.950 . S
H96 C120 0.950 . S
H97 C121 0.950 . S
H98 C122 0.951 . S
H99 C124 0.951 . S
H100 C126 0.950 . S
H101 C127 0.950 . S
H102 C129 0.950 . S
H103 C132 0.950 . S
H104 C133 0.950 . S
H105 C135 0.950 . S
H106 C136 0.950 . S
C107 H89 0.951 . S
C107 C108 1.366 . S
C107 C109 1.388 . S
C108 C107 1.366 . S
C108 C112 1.385 . S
C109 H90 0.951 . S
C109 C107 1.388 . S
C109 C110 1.366 . S
C110 C109 1.366 . S
C110 C111 1.414 . S
C110 C113 1.499 . S
C111 H91 0.950 . S
C111 C110 1.414 . S
C111 C112 1.374 . S
C112 H92 0.950 . S
C112 C108 1.385 . S
C112 C111 1.374 . S
C113 C110 1.499 . S
C113 C114 1.373 . S
C113 C115 1.389 . S
C114 H93 0.950 . S
C114 C113 1.373 . S
C114 C130 1.377 . S
C115 C113 1.389 . S
C115 C116 1.524 . S
C115 C129 1.377 . S
C116 C115 1.524 . S
C116 C117 1.397 . S
C116 C121 1.363 . S
C117 H94 0.950 . S
C117 C116 1.397 . S
C117 C118 1.334 . S
C118 H95 0.950 . S
C118 C117 1.334 . S
C118 C119 1.287 . S
C119 C118 1.287 . S
C119 C120 1.524 . S
C119 H138 0.913 . S
C120 H96 0.950 . S
C120 C119 1.524 . S
C120 C121 1.415 . S
C121 H97 0.950 . S
C121 C116 1.363 . S
C121 C120 1.415 . S
C122 H98 0.951 . S
C122 C123 1.366 . S
C122 C124 1.388 . S
C123 C122 1.366 . S
C123 C127 1.385 . S
C124 H99 0.951 . S
C124 C122 1.388 . S
C124 C125 1.366 . S
C125 C124 1.366 . S
C125 C126 1.414 . S
C125 C128 1.499 . S
C126 H100 0.950 . S
C126 C125 1.414 . S
C126 C127 1.374 . S
C127 H101 0.950 . S
C127 C123 1.385 . S
C127 C126 1.374 . S
C128 C125 1.499 . S
C128 C129 1.373 . S
C128 C130 1.389 . S
C129 H102 0.950 . S
C129 C115 1.377 . S
C129 C128 1.373 . S
C130 C114 1.377 . S
C130 C128 1.389 . S
C130 C131 1.524 . S
C131 C130 1.524 . S
C131 C132 1.397 . S
C131 C136 1.363 . S
C132 H103 0.950 . S
C132 C131 1.397 . S
C132 C133 1.334 . S
C133 H104 0.950 . S
C133 C132 1.334 . S
C133 C134 1.287 . S
C134 C133 1.287 . S
C134 C135 1.524 . S
C134 H137 0.999 . S
C135 H105 0.950 . S
C135 C134 1.524 . S
C135 C136 1.415 . S
C136 H106 0.950 . S
C136 C131 1.363 . S
C136 C135 1.415 . S
H137 C134 0.999 . S
H138 C119 0.913 . S
H139 C157 0.951 . S
H140 C159 0.951 . S
H141 C161 0.950 . S
H142 C162 0.950 . S
H143 C164 0.950 . S
H144 C167 0.950 . S
H145 C168 0.950 . S
H146 C170 0.950 . S
H147 C171 0.950 . S
H148 C172 0.951 . S
H149 C174 0.951 . S
H150 C176 0.950 . S
H151 C177 0.950 . S
H152 C179 0.950 . S
H153 C182 0.950 . S
H154 C183 0.950 . S
H155 C185 0.950 . S
H156 C186 0.950 . S
C157 H139 0.951 . S
C157 C158 1.366 1_655 S
C157 C159 1.388 . S
C158 C157 1.366 1_455 S
C158 C162 1.385 . S
C159 H140 0.951 . S
C159 C157 1.388 . S
C159 C160 1.366 1_655 S
C160 C159 1.366 1_455 S
C160 C161 1.414 . S
C160 C163 1.499 . S
C161 H141 0.950 . S
C161 C160 1.414 . S
C161 C162 1.374 . S
C162 H142 0.950 . S
C162 C158 1.385 . S
C162 C161 1.374 . S
C163 C160 1.499 . S
C163 C164 1.373 . S
C163 C165 1.389 1_455 S
C164 H143 0.950 . S
C164 C163 1.373 . S
C164 C180 1.377 . S
C165 C163 1.389 1_655 S
C165 C166 1.524 . S
C165 C179 1.377 . S
C166 C165 1.524 . S
C166 C167 1.397 . S
C166 C171 1.363 . S
C167 H144 0.950 . S
C167 C166 1.397 . S
C167 C168 1.334 . S
C168 H145 0.950 . S
C168 C167 1.334 . S
C168 C169 1.287 . S
C169 C168 1.287 . S
C169 C170 1.524 . S
C169 H188 0.913 . S
C170 H146 0.950 . S
C170 C169 1.524 . S
C170 C171 1.415 . S
C171 H147 0.950 . S
C171 C166 1.363 . S
C171 C170 1.415 . S
C172 H148 0.951 . S
C172 C173 1.366 . S
C172 C174 1.388 . S
C173 C172 1.366 . S
C173 C177 1.385 1_455 S
C174 H149 0.951 . S
C174 C172 1.388 . S
C174 C175 1.366 . S
C175 C174 1.366 . S
C175 C176 1.414 1_455 S
C175 C178 1.499 . S
C176 H150 0.950 . S
C176 C175 1.414 1_655 S
C176 C177 1.374 . S
C177 H151 0.950 . S
C177 C173 1.385 1_655 S
C177 C176 1.374 . S
C178 C175 1.499 . S
C178 C179 1.373 1_455 S
C178 C180 1.389 . S
C179 H152 0.950 . S
C179 C165 1.377 . S
C179 C178 1.373 1_655 S
C180 C164 1.377 . S
C180 C178 1.389 . S
C180 C181 1.524 . S
C181 C180 1.524 . S
C181 C182 1.397 . S
C181 C186 1.363 . S
C182 H153 0.950 . S
C182 C181 1.397 . S
C182 C183 1.334 . S
C183 H154 0.950 . S
C183 C182 1.334 . S
C183 C184 1.287 . S
C184 C183 1.287 . S
C184 C185 1.524 . S
C184 H187 0.999 . S
C185 H155 0.950 . S
C185 C184 1.524 . S
C185 C186 1.415 . S
C186 H156 0.950 . S
C186 C181 1.363 . S
C186 C185 1.415 . S
H187 C184 0.999 . S
H188 C169 0.913 . S
H189 C207 0.951 . S
H190 C209 0.951 . S
H191 C211 0.950 . S
H192 C212 0.950 . S
H193 C214 0.950 . S
H194 C217 0.950 . S
H195 C218 0.950 . S
H196 C220 0.950 . S
H197 C221 0.950 . S
H198 C222 0.951 . S
H199 C224 0.951 . S
H200 C226 0.950 . S
H201 C227 0.950 . S
H202 C229 0.950 . S
H203 C232 0.950 . S
H204 C233 0.950 . S
H205 C235 0.950 . S
H206 C236 0.950 . S
C207 H189 0.951 . S
C207 C208 1.366 . S
C207 C209 1.388 . S
C208 C207 1.366 . S
C208 C212 1.385 1_445 S
C209 H190 0.951 . S
C209 C207 1.388 . S
C209 C210 1.366 . S
C210 C209 1.366 . S
C210 C211 1.414 1_445 S
C210 C213 1.499 . S
C211 H191 0.950 . S
C211 C210 1.414 1_665 S
C211 C212 1.374 . S
C212 H192 0.950 . S
C212 C208 1.385 1_665 S
C212 C211 1.374 . S
C213 C210 1.499 . S
C213 C214 1.376 1_445 S
C213 C215 1.388 . S
C214 H193 0.950 . S
C214 C213 1.376 1_665 S
C214 C230 1.377 . S
C215 C213 1.388 . S
C215 C216 1.524 . S
C215 C229 1.377 . S
C216 C215 1.524 . S
C216 C217 1.397 1_455 S
C216 C221 1.363 . S
C217 H194 0.950 . S
C217 C216 1.397 1_655 S
C217 C218 1.334 . S
C218 H195 0.950 . S
C218 C217 1.334 . S
C218 C219 1.287 1_655 S
C219 C218 1.287 1_455 S
C219 C220 1.524 . S
C219 H238 0.913 . S
C220 H196 0.950 . S
C220 C219 1.524 . S
C220 C221 1.415 . S
C221 H197 0.950 . S
C221 C216 1.363 . S
C221 C220 1.415 . S
C222 H198 0.951 . S
C222 C223 1.366 1_665 S
C222 C224 1.388 . S
C223 C222 1.366 1_445 S
C223 C227 1.385 . S
C224 H199 0.951 . S
C224 C222 1.388 . S
C224 C225 1.366 1_665 S
C225 C224 1.366 1_445 S
C225 C226 1.414 . S
C225 C228 1.499 . S
C226 H200 0.950 . S
C226 C225 1.414 . S
C226 C227 1.374 . S
C227 H201 0.950 . S
C227 C223 1.385 . S
C227 C226 1.374 . S
C228 C225 1.499 . S
C228 C229 1.373 . S
C228 C230 1.389 1_445 S
C229 H202 0.950 . S
C229 C215 1.377 . S
C229 C228 1.373 . S
C230 C214 1.377 . S
C230 C228 1.389 1_665 S
C230 C231 1.524 . S
C231 C230 1.524 . S
C231 C232 1.397 1_655 S
C231 C236 1.363 . S
C232 H203 0.950 . S
C232 C231 1.397 1_455 S
C232 C233 1.334 . S
C233 H204 0.950 . S
C233 C232 1.334 . S
C233 C234 1.287 1_455 S
C234 C233 1.287 1_655 S
C234 C235 1.524 . S
C234 H237 0.999 . S
C235 H205 0.950 . S
C235 C234 1.524 . S
C235 C236 1.415 . S
C236 H206 0.950 . S
C236 C231 1.363 . S
C236 C235 1.415 . S
H237 C234 0.999 . S
H238 C219 0.913 . S
H239 C257 0.948 1_655 S
H240 C259 0.951 1_655 S
H241 C261 0.950 . S
H242 C262 0.950 . S
H243 C264 0.950 . S
H244 C267 0.950 . S
H245 C268 0.950 . S
H246 C270 0.950 . S
H247 C271 0.950 . S
H248 C272 0.951 . S
H249 C274 0.951 . S
H250 C276 0.950 . S
H251 C277 0.950 . S
H252 C279 0.950 . S
H253 C282 0.950 . S
H254 C283 0.950 . S
H255 C285 0.950 . S
H256 C286 0.950 1_565 S
C257 H239 0.948 1_455 S
C257 C258 1.366 . S
C257 C259 1.388 . S
C258 C257 1.366 . S
C258 C262 1.385 1_545 S
C259 H240 0.951 1_455 S
C259 C257 1.388 . S
C259 C260 1.366 . S
C260 C259 1.366 . S
C260 C261 1.414 1_545 S
C260 C263 1.499 . S
C261 H241 0.950 . S
C261 C260 1.414 1_565 S
C261 C262 1.374 . S
C262 H242 0.950 . S
C262 C258 1.385 1_565 S
C262 C261 1.374 . S
C263 C260 1.499 . S
C263 C264 1.373 . S
C263 C265 1.389 1_455 S
C264 H243 0.950 . S
C264 C263 1.373 . S
C264 C280 1.377 . S
C265 C263 1.389 1_655 S
C265 C266 1.524 1_545 S
C265 C279 1.377 . S
C266 C265 1.524 1_565 S
C266 C267 1.397 . S
C266 C271 1.363 1_565 S
C267 H244 0.950 . S
C267 C266 1.397 . S
C267 C268 1.334 . S
C268 H245 0.950 . S
C268 C267 1.334 . S
C268 C269 1.287 . S
C269 C268 1.287 . S
C269 C270 1.524 1_565 S
C269 H288 0.913 . S
C270 H246 0.950 . S
C270 C269 1.524 1_545 S
C270 C271 1.415 . S
C271 H247 0.950 . S
C271 C266 1.363 1_545 S
C271 C270 1.415 . S
C272 H248 0.951 . S
C272 C273 1.366 1_565 S
C272 C274 1.388 . S
C273 C272 1.366 1_545 S
C273 C277 1.385 1_455 S
C274 H249 0.951 . S
C274 C272 1.388 . S
C274 C275 1.366 1_565 S
C275 C274 1.366 1_545 S
C275 C276 1.414 1_455 S
C275 C278 1.499 . S
C276 H250 0.950 . S
C276 C275 1.414 1_655 S
C276 C277 1.374 . S
C277 H251 0.950 . S
C277 C273 1.385 1_655 S
C277 C276 1.374 . S
C278 C275 1.499 . S
C278 C279 1.373 1_455 S
C278 C280 1.389 . S
C279 H252 0.950 . S
C279 C265 1.377 . S
C279 C278 1.373 1_655 S
C280 C264 1.377 . S
C280 C278 1.389 . S
C280 C281 1.524 . S
C281 C280 1.524 . S
C281 C282 1.397 . S
C281 C286 1.363 . S
C282 H253 0.950 . S
C282 C281 1.397 . S
C282 C283 1.334 . S
C283 H254 0.950 . S
C283 C282 1.334 . S
C283 C284 1.287 . S
C284 C283 1.287 . S
C284 C285 1.524 . S
C284 H287 0.999 . S
C285 H255 0.950 . S
C285 C284 1.524 . S
C285 C286 1.415 . S
C286 H256 0.950 1_545 S
C286 C281 1.363 . S
C286 C285 1.415 . S
H287 C284 0.999 . S
H288 C269 0.913 . S
H289 C307 0.951 . S
H290 C309 0.951 . S
H291 C311 0.950 . S
H292 C312 0.950 . S
H293 C314 0.950 1_565 S
H294 C317 0.950 1_455 S
H295 C318 0.950 . S
H296 C320 0.950 . S
H297 C321 0.950 . S
H298 C322 0.951 . S
H299 C324 0.951 . S
H300 C326 0.950 . S
H301 C327 0.950 . S
H302 C329 0.950 . S
H303 C332 0.950 . S
H304 C333 0.950 . S
H305 C335 0.950 . S
H306 C336 0.950 . S
C307 H289 0.951 . S
C307 C308 1.366 1_665 S
C307 C309 1.388 . S
C308 C307 1.366 1_445 S
C308 C312 1.385 . S
C309 H290 0.951 . S
C309 C307 1.388 . S
C309 C310 1.366 1_665 S
C310 C309 1.366 1_445 S
C310 C311 1.414 . S
C310 C313 1.499 . S
C311 H291 0.950 . S
C311 C310 1.414 . S
C311 C312 1.374 . S
C312 H292 0.950 . S
C312 C308 1.385 . S
C312 C311 1.374 . S
C313 C310 1.499 . S
C313 C314 1.373 . S
C313 C315 1.389 1_455 S
C314 H293 0.950 1_545 S
C314 C313 1.373 . S
C314 C330 1.377 . S
C315 C313 1.389 1_655 S
C315 C316 1.524 . S
C315 C329 1.377 . S
C316 C315 1.524 . S
C316 C317 1.397 . S
C316 C321 1.363 . S
C317 H294 0.950 1_655 S
C317 C316 1.397 . S
C317 C318 1.334 . S
C318 H295 0.950 . S
C318 C317 1.334 . S
C318 C319 1.287 . S
C319 C318 1.287 . S
C319 C320 1.524 . S
C319 H338 0.913 . S
C320 H296 0.950 . S
C320 C319 1.524 . S
C320 C321 1.415 . S
C321 H297 0.950 . S
C321 C316 1.363 . S
C321 C320 1.415 . S
C322 H298 0.951 . S
C322 C323 1.366 . S
C322 C324 1.388 . S
C323 C322 1.366 . S
C323 C327 1.385 1_445 S
C324 H299 0.951 . S
C324 C322 1.388 . S
C324 C325 1.366 . S
C325 C324 1.366 . S
C325 C326 1.414 1_445 S
C325 C328 1.499 . S
C326 H300 0.950 . S
C326 C325 1.414 1_665 S
C326 C327 1.374 . S
C327 H301 0.950 . S
C327 C323 1.385 1_665 S
C327 C326 1.374 . S
C328 C325 1.499 . S
C328 C329 1.373 1_455 S
C328 C330 1.389 . S
C329 H302 0.950 . S
C329 C315 1.377 . S
C329 C328 1.373 1_655 S
C330 C314 1.377 . S
C330 C328 1.389 . S
C330 C331 1.524 1_545 S
C331 C330 1.524 1_565 S
C331 C332 1.397 . S
C331 C336 1.363 1_565 S
C332 H303 0.950 . S
C332 C331 1.397 . S
C332 C333 1.334 . S
C333 H304 0.950 . S
C333 C332 1.334 . S
C333 C334 1.287 . S
C334 C333 1.287 . S
C334 C335 1.524 . S
C334 H337 0.999 . S
C335 H305 0.950 . S
C335 C334 1.524 . S
C335 C336 1.415 1_565 S
C336 H306 0.950 . S
C336 C331 1.363 1_545 S
C336 C335 1.415 1_545 S
H337 C334 0.999 . S
H338 C319 0.913 . S
C58 C3 1.488 . S
C73 C1 1.493 . S
C108 C16 1.488 . S
C123 C14 1.493 . S
C158 C29 1.488 . S
C173 C27 1.493 . S
C208 C18 1.488 . S
C223 C10 1.493 . S
C258 C31 1.496 . S
C273 C23 1.495 . S
C308 C36 1.499 . S
C323 C5 1.492 . S
