# Generated by pormake.
# Topology cha, (4)-cn, num edge types: 1
# Building blocks:
#     Node 0, Type 0, BuildingBlock: CEKHIL_clean_sbu_0, # of connection points: 4
#     Node 1, Type 0, BuildingBlock: CEKHIL_clean_sbu_0, # of connection points: 4
#     Node 2, Type 0, BuildingBlock: CEKHIL_clean_sbu_0, # of connection points: 4
#     Node 3, Type 0, BuildingBlock: CEKHIL_clean_sbu_0, # of connection points: 4
#     Node 4, Type 0, BuildingBlock: CEKHIL_clean_sbu_0, # of connection points: 4
#     Node 5, Type 0, BuildingBlock: CEKHIL_clean_sbu_0, # of connection points: 4
#     Node 6, Type 0, BuildingBlock: CEKHIL_clean_sbu_0, # of connection points: 4
#     Node 7, Type 0, BuildingBlock: CEKHIL_clean_sbu_0, # of connection points: 4
#     Node 8, Type 0, BuildingBlock: CEKHIL_clean_sbu_0, # of connection points: 4
#     Node 9, Type 0, BuildingBlock: CEKHIL_clean_sbu_0, # of connection points: 4
#     Node 10, Type 0, BuildingBlock: CEKHIL_clean_sbu_0, # of connection points: 4
#     Node 11, Type 0, BuildingBlock: CEKHIL_clean_sbu_0, # of connection points: 4
#     Node 12, Type 0, BuildingBlock: CEKHIL_clean_sbu_0, # of connection points: 4
#     Node 13, Type 0, BuildingBlock: CEKHIL_clean_sbu_0, # of connection points: 4
#     Node 14, Type 0, BuildingBlock: CEKHIL_clean_sbu_0, # of connection points: 4
#     Node 15, Type 0, BuildingBlock: CEKHIL_clean_sbu_0, # of connection points: 4
#     Node 16, Type 0, BuildingBlock: CEKHIL_clean_sbu_0, # of connection points: 4
#     Node 17, Type 0, BuildingBlock: CEKHIL_clean_sbu_0, # of connection points: 4
#     Node 18, Type 0, BuildingBlock: CEKHIL_clean_sbu_0, # of connection points: 4
#     Node 19, Type 0, BuildingBlock: CEKHIL_clean_sbu_0, # of connection points: 4
#     Node 20, Type 0, BuildingBlock: CEKHIL_clean_sbu_0, # of connection points: 4
#     Node 21, Type 0, BuildingBlock: CEKHIL_clean_sbu_0, # of connection points: 4
#     Node 22, Type 0, BuildingBlock: CEKHIL_clean_sbu_0, # of connection points: 4
#     Node 23, Type 0, BuildingBlock: CEKHIL_clean_sbu_0, # of connection points: 4
#     Node 24, Type 0, BuildingBlock: CEKHIL_clean_sbu_0, # of connection points: 4
#     Node 25, Type 0, BuildingBlock: CEKHIL_clean_sbu_0, # of connection points: 4
#     Node 26, Type 0, BuildingBlock: CEKHIL_clean_sbu_0, # of connection points: 4
#     Node 27, Type 0, BuildingBlock: CEKHIL_clean_sbu_0, # of connection points: 4
#     Node 28, Type 0, BuildingBlock: CEKHIL_clean_sbu_0, # of connection points: 4
#     Node 29, Type 0, BuildingBlock: CEKHIL_clean_sbu_0, # of connection points: 4
#     Node 30, Type 0, BuildingBlock: CEKHIL_clean_sbu_0, # of connection points: 4
#     Node 31, Type 0, BuildingBlock: CEKHIL_clean_sbu_0, # of connection points: 4
#     Node 32, Type 0, BuildingBlock: CEKHIL_clean_sbu_0, # of connection points: 4
#     Node 33, Type 0, BuildingBlock: CEKHIL_clean_sbu_0, # of connection points: 4
#     Node 34, Type 0, BuildingBlock: CEKHIL_clean_sbu_0, # of connection points: 4
#     Node 35, Type 0, BuildingBlock: CEKHIL_clean_sbu_0, # of connection points: 4
#     Edge 36, Type (0, 0), BuildingBlock: XUDNAN_clean_linker_2, # of connection points: 2
#     Edge 37, Type (0, 0), BuildingBlock: XUDNAN_clean_linker_2, # of connection points: 2
#     Edge 38, Type (0, 0), BuildingBlock: XUDNAN_clean_linker_2, # of connection points: 2
#     Edge 39, Type (0, 0), BuildingBlock: XUDNAN_clean_linker_2, # of connection points: 2
#     Edge 40, Type (0, 0), BuildingBlock: XUDNAN_clean_linker_2, # of connection points: 2
#     Edge 41, Type (0, 0), BuildingBlock: XUDNAN_clean_linker_2, # of connection points: 2
#     Edge 42, Type (0, 0), BuildingBlock: XUDNAN_clean_linker_2, # of connection points: 2
#     Edge 43, Type (0, 0), BuildingBlock: XUDNAN_clean_linker_2, # of connection points: 2
#     Edge 44, Type (0, 0), BuildingBlock: XUDNAN_clean_linker_2, # of connection points: 2
#     Edge 45, Type (0, 0), BuildingBlock: XUDNAN_clean_linker_2, # of connection points: 2
#     Edge 46, Type (0, 0), BuildingBlock: XUDNAN_clean_linker_2, # of connection points: 2
#     Edge 47, Type (0, 0), BuildingBlock: XUDNAN_clean_linker_2, # of connection points: 2
#     Edge 48, Type (0, 0), BuildingBlock: XUDNAN_clean_linker_2, # of connection points: 2
#     Edge 49, Type (0, 0), BuildingBlock: XUDNAN_clean_linker_2, # of connection points: 2
#     Edge 50, Type (0, 0), BuildingBlock: XUDNAN_clean_linker_2, # of connection points: 2
#     Edge 51, Type (0, 0), BuildingBlock: XUDNAN_clean_linker_2, # of connection points: 2
#     Edge 52, Type (0, 0), BuildingBlock: XUDNAN_clean_linker_2, # of connection points: 2
#     Edge 53, Type (0, 0), BuildingBlock: XUDNAN_clean_linker_2, # of connection points: 2
#     Edge 54, Type (0, 0), BuildingBlock: XUDNAN_clean_linker_2, # of connection points: 2
#     Edge 55, Type (0, 0), BuildingBlock: XUDNAN_clean_linker_2, # of connection points: 2
#     Edge 56, Type (0, 0), BuildingBlock: XUDNAN_clean_linker_2, # of connection points: 2
#     Edge 57, Type (0, 0), BuildingBlock: XUDNAN_clean_linker_2, # of connection points: 2
#     Edge 58, Type (0, 0), BuildingBlock: XUDNAN_clean_linker_2, # of connection points: 2
#     Edge 59, Type (0, 0), BuildingBlock: XUDNAN_clean_linker_2, # of connection points: 2
#     Edge 60, Type (0, 0), BuildingBlock: XUDNAN_clean_linker_2, # of connection points: 2
#     Edge 61, Type (0, 0), BuildingBlock: XUDNAN_clean_linker_2, # of connection points: 2
#     Edge 62, Type (0, 0), BuildingBlock: XUDNAN_clean_linker_2, # of connection points: 2
#     Edge 63, Type (0, 0), BuildingBlock: XUDNAN_clean_linker_2, # of connection points: 2
#     Edge 64, Type (0, 0), BuildingBlock: XUDNAN_clean_linker_2, # of connection points: 2
#     Edge 65, Type (0, 0), BuildingBlock: XUDNAN_clean_linker_2, # of connection points: 2
#     Edge 66, Type (0, 0), BuildingBlock: XUDNAN_clean_linker_2, # of connection points: 2
#     Edge 67, Type (0, 0), BuildingBlock: XUDNAN_clean_linker_2, # of connection points: 2
#     Edge 68, Type (0, 0), BuildingBlock: XUDNAN_clean_linker_2, # of connection points: 2
#     Edge 69, Type (0, 0), BuildingBlock: XUDNAN_clean_linker_2, # of connection points: 2
#     Edge 70, Type (0, 0), BuildingBlock: XUDNAN_clean_linker_2, # of connection points: 2
#     Edge 71, Type (0, 0), BuildingBlock: XUDNAN_clean_linker_2, # of connection points: 2
#     Edge 72, Type (0, 0), BuildingBlock: XUDNAN_clean_linker_2, # of connection points: 2
#     Edge 73, Type (0, 0), BuildingBlock: XUDNAN_clean_linker_2, # of connection points: 2
#     Edge 74, Type (0, 0), BuildingBlock: XUDNAN_clean_linker_2, # of connection points: 2
#     Edge 75, Type (0, 0), BuildingBlock: XUDNAN_clean_linker_2, # of connection points: 2
#     Edge 76, Type (0, 0), BuildingBlock: XUDNAN_clean_linker_2, # of connection points: 2
#     Edge 77, Type (0, 0), BuildingBlock: XUDNAN_clean_linker_2, # of connection points: 2
#     Edge 78, Type (0, 0), BuildingBlock: XUDNAN_clean_linker_2, # of connection points: 2
#     Edge 79, Type (0, 0), BuildingBlock: XUDNAN_clean_linker_2, # of connection points: 2
#     Edge 80, Type (0, 0), BuildingBlock: XUDNAN_clean_linker_2, # of connection points: 2
#     Edge 81, Type (0, 0), BuildingBlock: XUDNAN_clean_linker_2, # of connection points: 2
#     Edge 82, Type (0, 0), BuildingBlock: XUDNAN_clean_linker_2, # of connection points: 2
#     Edge 83, Type (0, 0), BuildingBlock: XUDNAN_clean_linker_2, # of connection points: 2
#     Edge 84, Type (0, 0), BuildingBlock: XUDNAN_clean_linker_2, # of connection points: 2
#     Edge 85, Type (0, 0), BuildingBlock: XUDNAN_clean_linker_2, # of connection points: 2
#     Edge 86, Type (0, 0), BuildingBlock: XUDNAN_clean_linker_2, # of connection points: 2
#     Edge 87, Type (0, 0), BuildingBlock: XUDNAN_clean_linker_2, # of connection points: 2
#     Edge 88, Type (0, 0), BuildingBlock: XUDNAN_clean_linker_2, # of connection points: 2
#     Edge 89, Type (0, 0), BuildingBlock: XUDNAN_clean_linker_2, # of connection points: 2
#     Edge 90, Type (0, 0), BuildingBlock: XUDNAN_clean_linker_2, # of connection points: 2
#     Edge 91, Type (0, 0), BuildingBlock: XUDNAN_clean_linker_2, # of connection points: 2
#     Edge 92, Type (0, 0), BuildingBlock: XUDNAN_clean_linker_2, # of connection points: 2
#     Edge 93, Type (0, 0), BuildingBlock: XUDNAN_clean_linker_2, # of connection points: 2
#     Edge 94, Type (0, 0), BuildingBlock: XUDNAN_clean_linker_2, # of connection points: 2
#     Edge 95, Type (0, 0), BuildingBlock: XUDNAN_clean_linker_2, # of connection points: 2
#     Edge 96, Type (0, 0), BuildingBlock: XUDNAN_clean_linker_2, # of connection points: 2
#     Edge 97, Type (0, 0), BuildingBlock: XUDNAN_clean_linker_2, # of connection points: 2
#     Edge 98, Type (0, 0), BuildingBlock: XUDNAN_clean_linker_2, # of connection points: 2
#     Edge 99, Type (0, 0), BuildingBlock: XUDNAN_clean_linker_2, # of connection points: 2
#     Edge 100, Type (0, 0), BuildingBlock: XUDNAN_clean_linker_2, # of connection points: 2
#     Edge 101, Type (0, 0), BuildingBlock: XUDNAN_clean_linker_2, # of connection points: 2
#     Edge 102, Type (0, 0), BuildingBlock: XUDNAN_clean_linker_2, # of connection points: 2
#     Edge 103, Type (0, 0), BuildingBlock: XUDNAN_clean_linker_2, # of connection points: 2
#     Edge 104, Type (0, 0), BuildingBlock: XUDNAN_clean_linker_2, # of connection points: 2
#     Edge 105, Type (0, 0), BuildingBlock: XUDNAN_clean_linker_2, # of connection points: 2
#     Edge 106, Type (0, 0), BuildingBlock: XUDNAN_clean_linker_2, # of connection points: 2
#     Edge 107, Type (0, 0), BuildingBlock: XUDNAN_clean_linker_2, # of connection points: 2
# Relax obj value: 0.071
# Max RMSD: 0.095
# Mean RMSD: 0.095
data_MOF--net-cha--node1-CEKHIL_clean_sbu_0--edge1-XUDNAN_clean_linker_2
_symmetry_space_group_name_H-M    P1
_symmetry_Int_Tables_number       1
_symmetry_cell_setting            triclinic
loop_
_symmetry_equiv_pos_as_xyz
'x, y, z'
_cell_length_a     53.834585
_cell_length_b     53.816285
_cell_length_c     84.954264
_cell_angle_alpha  90.000637
_cell_angle_beta   89.999728
_cell_angle_gamma 119.96075
loop_
_atom_site_label
_atom_site_type_symbol
_atom_site_fract_x
_atom_site_fract_y
_atom_site_fract_z
_atom_type_partial_charge
Co0 Co 0.03287 0.30109 0.09241 0.0
O1 O 0.03821 0.29565 0.11415 0.0
O2 O 0.01475 0.31705 0.10582 0.0
C3 C 0.07895 0.31708 0.08562 0.0
O4 O 0.02487 0.31131 0.0704 0.0
Co5 Co 0.04341 0.26451 0.0677 0.0
O6 O 0.04248 0.29244 0.05287 0.0
C7 C 0.99297 0.23747 0.08848 0.0
C8 C 0.02426 0.3087 0.11763 0.0
C9 C 0.03215 0.30852 0.0563 0.0
O10 O 0.99658 0.26227 0.09214 0.0
O11 O 0.01095 0.23398 0.08028 0.0
O12 O 0.07148 0.33466 0.09151 0.0
O13 O 0.05902 0.29054 0.08527 0.0
Co14 Co 0.73842 0.75469 0.09267 0.0
O15 O 0.74063 0.75569 0.11531 0.0
O16 O 0.71978 0.71605 0.10099 0.0
C17 C 0.7252 0.78828 0.09062 0.0
O18 O 0.73119 0.74547 0.06911 0.0
Co19 Co 0.77785 0.80886 0.07286 0.0
O20 O 0.75028 0.78716 0.05585 0.0
C21 C 0.80138 0.77446 0.08683 0.0
C22 C 0.72666 0.7279 0.11486 0.0
C23 C 0.73475 0.75994 0.05637 0.0
O24 O 0.7762 0.75531 0.09145 0.0
O25 O 0.80655 0.79794 0.08017 0.0
O26 O 0.70604 0.76177 0.0935 0.0
O27 O 0.75138 0.79371 0.09025 0.0
Co28 Co 0.29371 0.02048 0.09545 0.0
O29 O 0.28333 0.01457 0.11728 0.0
O30 O 0.32795 0.03527 0.10859 0.0
C31 C 0.26043 0.97608 0.08758 0.0
O32 O 0.31167 0.02886 0.07334 0.0
Co33 Co 0.2476 0.01624 0.07138 0.0
O34 O 0.27651 0.01985 0.0558 0.0
C35 C 0.27652 0.0661 0.09251 0.0
C36 C 0.31039 0.02657 0.12053 0.0
C37 C 0.30219 0.02651 0.05911 0.0
O38 O 0.29529 0.05889 0.0962 0.0
O39 O 0.25433 0.05025 0.08417 0.0
O40 O 0.28444 0.98022 0.09355 0.0
O41 O 0.25657 0.99779 0.08804 0.0
Co42 Co 0.31323 0.03701 0.91424 0.0
O43 O 0.31013 0.03487 0.89157 0.0
O44 O 0.33718 0.02298 0.90566 0.0
C45 C 0.31807 0.0811 0.91663 0.0
O46 O 0.32269 0.03739 0.93778 0.0
Co47 Co 0.26741 0.04179 0.93442 0.0
O48 O 0.29583 0.05128 0.95143 0.0
C49 C 0.25397 0.98584 0.92103 0.0
C50 C 0.32804 0.02538 0.89187 0.0
C51 C 0.31603 0.04551 0.95065 0.0
O52 O 0.27983 0.99631 0.91594 0.0
O53 O 0.24463 0.00092 0.92766 0.0
O54 O 0.34021 0.07863 0.91306 0.0
O55 O 0.29394 0.05741 0.9171 0.0
Co56 Co 0.01793 0.29949 0.91336 0.0
O57 O 0.01564 0.29006 0.8916 0.0
O58 O 0.03639 0.33449 0.90046 0.0
C59 C 0.97164 0.26757 0.91853 0.0
O60 O 0.02241 0.31521 0.9359 0.0
Co61 Co 0.00696 0.25002 0.93654 0.0
O62 O 0.00155 0.27557 0.95119 0.0
C63 C 0.06208 0.28098 0.91979 0.0
C64 C 0.02914 0.31711 0.88843 0.0
C65 C 0.01199 0.30249 0.94921 0.0
O66 O 0.05537 0.29951 0.91495 0.0
O67 O 0.04474 0.25835 0.92744 0.0
O68 O 0.97862 0.29266 0.91292 0.0
O69 O 0.99225 0.26195 0.91926 0.0
Co70 Co 0.76998 0.75799 0.91372 0.0
O71 O 0.78182 0.76646 0.89216 0.0
O72 O 0.73677 0.73991 0.89982 0.0
C73 C 0.80379 0.74687 0.92053 0.0
O74 O 0.75042 0.74437 0.93527 0.0
Co75 Co 0.81313 0.79486 0.94023 0.0
O76 O 0.78484 0.76395 0.95391 0.0
C77 C 0.78251 0.81823 0.922 0.0
C78 C 0.75507 0.75108 0.88829 0.0
C79 C 0.75914 0.7468 0.94965 0.0
O80 O 0.76692 0.79391 0.91513 0.0
O81 O 0.80318 0.82319 0.93132 0.0
O82 O 0.78032 0.72768 0.91379 0.0
O83 O 0.80684 0.77209 0.92164 0.0
Co84 Co 0.02354 0.7474 0.91534 0.0
O85 O 0.02465 0.75057 0.89265 0.0
O86 O 0.03731 0.72368 0.90637 0.0
C87 C 0.97956 0.74211 0.91872 0.0
O88 O 0.02439 0.73758 0.93859 0.0
Co89 Co 0.01926 0.79245 0.93658 0.0
O90 O 0.01357 0.76526 0.95374 0.0
C91 C 0.07463 0.80672 0.92194 0.0
C92 C 0.03417 0.73265 0.8927 0.0
C93 C 0.01862 0.74471 0.952 0.0
O94 O 0.06415 0.78096 0.91666 0.0
O95 O 0.05968 0.8157 0.92908 0.0
O96 O 0.98208 0.72019 0.91467 0.0
O97 O 0.00306 0.76644 0.91903 0.0
Co98 Co 0.30501 0.2949 0.91648 0.0
O99 O 0.30397 0.29525 0.89373 0.0
O100 O 0.32652 0.33372 0.90886 0.0
C101 C 0.31423 0.25846 0.91892 0.0
O102 O 0.31211 0.3034 0.94012 0.0
Co103 Co 0.26117 0.24159 0.93567 0.0
O104 O 0.28653 0.26235 0.95366 0.0
C105 C 0.24243 0.27828 0.91999 0.0
C106 C 0.31957 0.32297 0.89477 0.0
C107 C 0.30538 0.28885 0.95303 0.0
O108 O 0.26872 0.2975 0.91729 0.0
O109 O 0.23518 0.25365 0.9258 0.0
O110 O 0.33511 0.28419 0.91594 0.0
O111 O 0.28894 0.25542 0.91883 0.0
Co112 Co 0.76243 0.04359 0.91493 0.0
O113 O 0.77334 0.04819 0.89329 0.0
O114 O 0.7284 0.02567 0.90143 0.0
C115 C 0.79325 0.08967 0.92132 0.0
O116 O 0.74452 0.03609 0.93702 0.0
Co117 Co 0.80962 0.05413 0.93962 0.0
O118 O 0.78156 0.05535 0.95416 0.0
C119 C 0.78059 -0.0006 0.92207 0.0
C120 C 0.74645 0.03449 0.88969 0.0
C121 C 0.75497 0.04415 0.951 0.0
O122 O 0.76343 0.00663 0.91573 0.0
O123 O 0.80145 0.01606 0.93106 0.0
O124 O 0.76829 0.08254 0.91544 0.0
O125 O 0.79937 0.06938 0.92188 0.0
Co126 Co 0.75053 0.02019 0.09549 0.0
O127 O 0.75096 0.02021 0.11818 0.0
O128 O 0.7341 0.04248 0.10352 0.0
C129 C 0.73347 0.97266 0.09285 0.0
O130 O 0.74532 0.02372 0.07184 0.0
Co131 Co 0.78805 0.00167 0.07652 0.0
O132 O 0.76307 -0.0004 0.0588 0.0
C133 C 0.81494 0.05703 0.0934 0.0
C134 C 0.73879 0.03577 0.1175 0.0
C135 C 0.74869 0.01257 0.05914 0.0
O136 O 0.79032 0.05519 0.09526 0.0
O137 O 0.81808 0.03677 0.08766 0.0
O138 O 0.71587 0.98212 0.09548 0.0
O139 O 0.7603 0.99175 0.09316 0.0
Co140 Co 0.03498 0.76875 0.0949 0.0
O141 O 0.03716 0.779 0.11665 0.0
O142 O 0.01965 0.73456 0.10813 0.0
C143 C 0.08006 0.80337 0.08885 0.0
O144 O 0.03067 0.75096 0.07294 0.0
Co145 Co 0.04151 0.81366 0.06947 0.0
O146 O 0.04805 0.78779 0.05574 0.0
C147 C 0.98684 0.78095 0.08677 0.0
C148 C 0.0261 0.75206 0.12 0.0
C149 C 0.03938 0.76163 0.05907 0.0
O150 O 0.99573 0.76512 0.09323 0.0
O151 O 0.00269 0.80249 0.07799 0.0
O152 O 0.07574 0.77959 0.09521 0.0
O153 O 0.05779 0.80627 0.08779 0.0
Co154 Co 0.29049 0.30778 0.09747 0.0
O155 O 0.2797 0.30403 0.11911 0.0
O156 O 0.3246 0.32601 0.11087 0.0
C157 C 0.25911 0.32143 0.08945 0.0
O158 O 0.30827 0.31576 0.07538 0.0
Co159 Co 0.24295 0.26645 0.07412 0.0
O160 O 0.27159 0.29154 0.05835 0.0
C161 C 0.27212 0.24444 0.09433 0.0
C162 C 0.30663 0.31794 0.12263 0.0
C163 C 0.29789 0.30915 0.06131 0.0
O164 O 0.29035 0.27021 0.09854 0.0
O165 O 0.2501 0.23827 0.08585 0.0
O166 O 0.28387 0.34024 0.09513 0.0
O167 O 0.25343 0.29518 0.09021 0.0
Co168 Co 0.70494 0.63739 0.42441 0.0
O169 O 0.70986 0.63025 0.44594 0.0
O170 O 0.69293 0.65824 0.43838 0.0
C171 C 0.7481 0.64512 0.41639 0.0
O172 O 0.69841 0.65002 0.40267 0.0
Co173 Co 0.705 0.59539 0.39901 0.0
O174 O 0.71147 0.62742 0.38493 0.0
C175 C 0.65567 0.57673 0.42039 0.0
C176 C 0.70016 0.64705 0.44988 0.0
C177 C 0.70494 0.64646 0.38851 0.0
O178 O 0.66495 0.60286 0.42467 0.0
O179 O 0.66988 0.56917 0.41143 0.0
O180 O 0.74599 0.66583 0.4229 0.0
O181 O 0.725 0.6205 0.41635 0.0
Co182 Co 0.42029 0.09482 0.43064 0.0
O183 O 0.42141 0.09563 0.45338 0.0
O184 O 0.3996 0.05627 0.43888 0.0
C185 C 0.40978 0.13019 0.42717 0.0
O186 O 0.41377 0.08555 0.40705 0.0
Co187 Co 0.46455 0.14888 0.41166 0.0
O188 O 0.4437 0.1252 0.3932 0.0
C189 C 0.48271 0.11048 0.42575 0.0
C190 C 0.40654 0.06783 0.45281 0.0
C191 C 0.4238 0.09912 0.39398 0.0
O192 O 0.4568 0.09263 0.42999 0.0
O193 O 0.49028 0.13494 0.41959 0.0
O194 O 0.38944 0.10444 0.43062 0.0
O195 O 0.4354 0.13414 0.42773 0.0
Co196 Co 0.96618 0.34864 0.42854 0.0
O197 O 0.96654 0.34612 0.4512 0.0
O198 O 0.00518 0.36614 0.43608 0.0
C199 C 0.93129 0.30315 0.42389 0.0
O200 O 0.97404 0.35444 0.4048 0.0
Co201 Co 0.9109 0.34083 0.41196 0.0
O202 O 0.93394 0.34786 0.39257 0.0
C203 C 0.94737 0.39326 0.42989 0.0
C204 C 0.9943 0.35973 0.45018 0.0
C205 C 0.95991 0.35347 0.39233 0.0
O206 O 0.96733 0.38672 0.43039 0.0
O207 O 0.92214 0.37608 0.42473 0.0
O208 O 0.95734 0.30857 0.42643 0.0
O209 O 0.92692 0.32434 0.426 0.0
Co210 Co 0.97034 0.37249 0.2443 0.0
O211 O 0.97048 0.37192 0.22162 0.0
O212 O 0.99307 0.35617 0.23683 0.0
C213 C 0.97847 0.41777 0.24698 0.0
O214 O 0.97572 0.37065 0.26815 0.0
Co215 Co 0.92296 0.37951 0.2615 0.0
O216 O 0.94555 0.38196 0.28042 0.0
C217 C 0.90799 0.32501 0.24597 0.0
C218 C 0.98644 0.36024 0.22269 0.0
C219 C 0.96588 0.37631 0.2807 0.0
O220 O 0.93478 0.33306 0.24445 0.0
O221 O 0.89913 0.34169 0.25091 0.0
O222 O -0.00016 0.41352 0.24437 0.0
O223 O 0.95345 0.39524 0.24621 0.0
Co224 Co 0.68105 0.63271 0.24754 0.0
O225 O 0.67764 0.62078 0.22608 0.0
O226 O 0.6974 0.66603 0.23352 0.0
C227 C 0.63536 0.60012 0.25378 0.0
O228 O 0.6869 0.65186 0.26921 0.0
Co229 Co 0.67328 0.58862 0.27336 0.0
O230 O 0.66891 0.61595 0.28703 0.0
C231 C 0.72817 0.61924 0.2561 0.0
C232 C 0.68987 0.64748 0.22207 0.0
C233 C 0.67862 0.64212 0.28329 0.0
O234 O 0.71937 0.63458 0.24905 0.0
O235 O 0.71237 0.59869 0.26547 0.0
O236 O 0.64136 0.62445 0.24745 0.0
O237 O 0.65662 0.59548 0.25495 0.0
Co238 Co 0.43032 0.09098 0.24675 0.0
O239 O 0.42985 0.09014 0.22401 0.0
O240 O 0.39146 0.06808 0.2392 0.0
C241 C 0.46725 0.08268 0.25013 0.0
O242 O 0.42241 0.08588 0.27052 0.0
Co243 Co 0.48403 0.13797 0.26455 0.0
O244 O 0.46385 0.11441 0.2832 0.0
C245 C 0.44553 0.15351 0.24824 0.0
C246 C 0.40221 0.07401 0.22507 0.0
C247 C 0.43764 0.09468 0.28318 0.0
O248 O 0.42674 0.12678 0.24644 0.0
O249 O 0.47068 0.16209 0.2537 0.0
O250 O 0.44166 0.06137 0.24737 0.0
O251 O 0.46994 0.10779 0.24906 0.0
Co252 Co 0.68408 0.08097 0.24915 0.0
O253 O 0.68072 0.08887 0.22756 0.0
O254 O 0.69726 0.06072 0.23539 0.0
C255 C 0.64024 0.07306 0.25609 0.0
O256 O 0.68927 0.06795 0.27111 0.0
Co257 Co 0.68208 0.12244 0.27426 0.0
O258 O 0.67577 0.09068 0.28852 0.0
C259 C 0.73284 0.14158 0.25397 0.0
C260 C 0.69093 0.07246 0.22378 0.0
C261 C 0.68256 0.07173 0.28518 0.0
O262 O 0.72403 0.11552 0.24974 0.0
O263 O 0.71788 0.14897 0.26241 0.0
O264 O 0.6428 0.05247 0.24976 0.0
O265 O 0.66342 0.09757 0.25665 0.0
Co266 Co 0.97211 0.63495 0.2472 0.0
O267 O 0.96893 0.63426 0.22447 0.0
O268 O 0.99392 0.67327 0.2389 0.0
C269 C 0.98011 0.59765 0.24945 0.0
O270 O 0.98184 0.64466 0.27056 0.0
Co271 Co 0.92961 0.58334 0.26801 0.0
O272 O 0.95615 0.60514 0.28535 0.0
C273 C 0.91112 0.62179 0.25414 0.0
C274 C 0.9855 0.66193 0.22502 0.0
C275 C 0.97559 0.63124 0.28382 0.0
O276 O 0.93674 0.63911 0.24918 0.0
O277 O 0.90387 0.5977 0.26069 0.0
O278 O 0.00115 0.62291 0.24578 0.0
O279 O 0.95518 0.59542 0.25015 0.0
Co280 Co 0.41986 0.37497 0.25045 0.0
O281 O 0.41979 0.37516 0.2278 0.0
O282 O 0.38085 0.35624 0.2427 0.0
C283 C 0.45401 0.4213 0.2533 0.0
O284 O 0.41198 0.3719 0.27419 0.0
Co285 Co 0.47489 0.38667 0.26848 0.0
O286 O 0.45463 0.39193 0.28656 0.0
C287 C 0.43943 0.33104 0.25258 0.0
C288 C 0.39205 0.36181 0.22865 0.0
C289 C 0.42755 0.38168 0.28668 0.0
O290 O 0.41958 0.33732 0.2503 0.0
O291 O 0.46396 0.34878 0.25843 0.0
O292 O 0.42754 0.41456 0.25087 0.0
O293 O 0.45913 0.40033 0.25252 0.0
Co294 Co 0.4158 0.34918 0.43187 0.0
O295 O 0.4208 0.34369 0.45361 0.0
O296 O 0.39617 0.36378 0.44507 0.0
C297 C 0.40499 0.30472 0.42431 0.0
O298 O 0.40609 0.35706 0.40971 0.0
Co299 Co 0.45826 0.34495 0.4082 0.0
O300 O 0.43242 0.34752 0.39254 0.0
C301 C 0.47809 0.39601 0.42831 0.0
C302 C 0.40542 0.35529 0.45694 0.0
C303 C 0.41336 0.35428 0.3956 0.0
O304 O 0.45207 0.38794 0.4323 0.0
O305 O 0.48508 0.38036 0.42021 0.0
O306 O 0.3851 0.30883 0.43023 0.0
O307 O 0.43048 0.32656 0.42466 0.0
Co308 Co 0.70855 0.09225 0.42649 0.0
O309 O 0.71096 0.10425 0.44795 0.0
O310 O 0.69326 0.05916 0.44054 0.0
C311 C 0.75337 0.12655 0.41992 0.0
O312 O 0.70377 0.07281 0.40493 0.0
Co313 Co 0.71406 0.13506 0.4 0.0
O314 O 0.71848 0.10761 0.38649 0.0
C315 C 0.66013 0.10365 0.41806 0.0
C316 C 0.69939 0.07754 0.45195 0.0
C317 C 0.71058 0.08198 0.39063 0.0
O318 O 0.66931 0.08829 0.42473 0.0
O319 O 0.67553 0.12459 0.40882 0.0
O320 O 0.74934 0.1033 0.42685 0.0
O321 O 0.73096 0.12917 0.41857 0.0
Co322 Co 0.95751 0.63254 0.42784 0.0
O323 O 0.9465 0.62706 0.4495 0.0
O324 O 0.99112 0.65401 0.44126 0.0
C325 C 0.92224 0.64051 0.41976 0.0
O326 O 0.97531 0.64316 0.40574 0.0
Co327 Co 0.91321 0.58816 0.40401 0.0
O328 O 0.93845 0.6184 0.38894 0.0
C329 C 0.94574 0.57139 0.42506 0.0
C330 C 0.97318 0.6438 0.45302 0.0
C331 C 0.96421 0.63784 0.39179 0.0
O332 O 0.96268 0.59784 0.42867 0.0
O333 O 0.92317 0.56292 0.41666 0.0
O334 O 0.94546 0.66137 0.42584 0.0
O335 O 0.92018 0.61564 0.42035 0.0
Co336 Co 0.37372 0.96957 0.76027 0.0
O337 O 0.37769 0.96322 0.78203 0.0
O338 O 0.35653 0.9868 0.7736 0.0
C339 C 0.41974 0.98351 0.75436 0.0
O340 O 0.36727 0.98057 0.73805 0.0
Co341 Co 0.3833 0.93236 0.73573 0.0
O342 O 0.38755 0.96325 0.72138 0.0
C343 C 0.32922 0.90714 0.7538 0.0
C344 C 0.36494 0.97744 0.78547 0.0
C345 C 0.37658 0.979 0.72425 0.0
O346 O 0.33626 0.93204 0.75942 0.0
O347 O 0.34594 0.90254 0.7451 0.0
O348 O 0.41305 0.00188 0.75993 0.0
O349 O 0.39896 0.95736 0.75367 0.0
Co350 Co 0.08951 0.42904 0.75998 0.0
O351 O 0.09027 0.43037 0.7827 0.0
O352 O 0.07344 0.39078 0.76844 0.0
C353 C 0.07236 0.45926 0.75669 0.0
O354 O 0.08375 0.41909 0.73647 0.0
Co355 Co 0.12657 0.48397 0.74004 0.0
O356 O 0.10075 0.46029 0.72277 0.0
C357 C 0.15381 0.45708 0.7581 0.0
C358 C 0.07832 0.40264 0.7823 0.0
C359 C 0.08637 0.43303 0.72365 0.0
O360 O 0.12939 0.43405 0.75987 0.0
O361 O 0.15664 0.48007 0.75194 0.0
O362 O 0.05481 0.43238 0.7598 0.0
O363 O 0.0992 0.46705 0.75697 0.0
Co364 Co 0.63891 0.68691 0.76134 0.0
O365 O 0.63988 0.68649 0.78399 0.0
O366 O 0.67823 0.70635 0.76866 0.0
C367 C 0.60507 0.6404 0.75838 0.0
O368 O 0.64598 0.69062 0.73754 0.0
Co369 Co 0.58256 0.67476 0.74441 0.0
O370 O 0.60405 0.67685 0.72506 0.0
C371 C 0.61811 0.73007 0.76036 0.0
C372 C 0.6676 0.70062 0.78283 0.0
C373 C 0.63077 0.68524 0.72494 0.0
O374 O 0.63842 0.72421 0.76194 0.0
O375 O 0.59322 0.71199 0.7551 0.0
O376 O 0.6317 0.6474 0.76052 0.0
O377 O 0.59973 0.66115 0.75957 0.0
Co378 Co 0.64633 0.707 0.57734 0.0
O379 O 0.64656 0.70589 0.55476 0.0
O380 O 0.66697 0.68808 0.57018 0.0
C381 C 0.65797 0.75341 0.579 0.0
O382 O 0.65086 0.70542 0.60126 0.0
Co383 Co 0.60239 0.71971 0.59411 0.0
O384 O 0.62699 0.72515 0.61262 0.0
C385 C 0.583 0.66266 0.5801 0.0
C386 C 0.66122 0.69287 0.55597 0.0
C387 C 0.64402 0.71516 0.61341 0.0
O388 O 0.60918 0.66915 0.57773 0.0
O389 O 0.57596 0.68068 0.58524 0.0
O390 O 0.67797 0.74685 0.57712 0.0
O391 O 0.63209 0.73215 0.57846 0.0
Co392 Co 0.35133 0.96288 0.5831 0.0
O393 O 0.35227 0.95303 0.56155 0.0
O394 O 0.37252 0.99754 0.5703 0.0
C395 C 0.30388 0.93193 0.58587 0.0
O396 O 0.35351 0.98014 0.60504 0.0
Co397 Co 0.3331 0.91572 0.6088 0.0
O398 O 0.3263 0.94302 0.62109 0.0
C399 C 0.3927 0.94526 0.59652 0.0
C400 C 0.36649 0.98013 0.55839 0.0
C401 C 0.34025 0.9698 0.61819 0.0
O402 O 0.38746 0.96137 0.58754 0.0
O403 O 0.37384 0.92547 0.6053 0.0
O404 O 0.31281 0.9573 0.58004 0.0
O405 O 0.32357 0.9256 0.58882 0.0
Co406 Co 0.10207 0.42633 0.57977 0.0
O407 O 0.11176 0.43304 0.55793 0.0
O408 O 0.06754 0.40658 0.56679 0.0
C409 C 0.13682 0.41618 0.58595 0.0
O410 O 0.0853 0.41451 0.6021 0.0
Co411 Co 0.14842 0.46672 0.60411 0.0
O412 O 0.12309 0.43558 0.61864 0.0
C413 C 0.11507 0.48742 0.58634 0.0
C414 C 0.08482 0.41687 0.55477 0.0
C415 C 0.0968 0.41774 0.61587 0.0
O416 O 0.09854 0.46212 0.58072 0.0
O417 O 0.13722 0.49374 0.59472 0.0
O418 O 0.11282 0.3963 0.58004 0.0
O419 O 0.13976 0.44141 0.58646 0.0
Co420 Co 0.35615 0.41907 0.58481 0.0
O421 O 0.35534 0.41909 0.5621 0.0
O422 O 0.3719 0.39639 0.57665 0.0
C423 C 0.31114 0.41074 0.58849 0.0
O424 O 0.35928 0.41301 0.60844 0.0
Co425 Co 0.34948 0.46511 0.60373 0.0
O426 O 0.34569 0.44035 0.62186 0.0
C427 C 0.40289 0.48151 0.5864 0.0
C428 C 0.3667 0.40278 0.56272 0.0
C429 C 0.35241 0.42079 0.62132 0.0
O430 O 0.39537 0.4549 0.58449 0.0
O431 O 0.3863 0.48966 0.59237 0.0
O432 O 0.31531 0.38945 0.5854 0.0
O433 O 0.33351 0.43587 0.5877 0.0
Co434 Co 0.63224 0.96128 0.57838 0.0
O435 O 0.62836 0.96284 0.55596 0.0
O436 O 0.64995 0.00086 0.57143 0.0
C437 C 0.647 0.92873 0.5777 0.0
O438 O 0.64105 0.96746 0.60202 0.0
Co439 Co 0.59488 0.90364 0.59624 0.0
O440 O 0.62291 0.92398 0.6133 0.0
C441 C 0.57053 0.94078 0.58828 0.0
C442 C 0.64271 0.99051 0.55724 0.0
C443 C 0.63798 0.95126 0.61393 0.0
O444 O 0.59433 0.95977 0.58204 0.0
O445 O 0.56628 0.91687 0.59386 0.0
O446 O 0.66519 0.95569 0.57538 0.0
O447 O 0.62053 0.92219 0.57889 0.0
Co448 Co 0.08697 0.7087 0.58057 0.0
O449 O 0.08684 0.70701 0.55793 0.0
O450 O 0.04796 0.68851 0.57286 0.0
C451 C 0.12037 0.75552 0.58234 0.0
O452 O 0.07894 0.70729 0.60426 0.0
Co453 Co 0.14229 0.72395 0.59947 0.0
O454 O 0.12133 0.72996 0.61685 0.0
C455 C 0.10762 0.66598 0.58568 0.0
C456 C 0.05909 0.69325 0.55881 0.0
C457 C 0.09411 0.71848 0.61676 0.0
O458 O 0.08787 0.67163 0.58172 0.0
O459 O 0.13151 0.68461 0.59181 0.0
O460 O 0.09376 0.74803 0.57971 0.0
O461 O 0.12602 0.7349 0.58247 0.0
Co462 Co 0.08357 0.68212 0.76095 0.0
O463 O 0.08907 0.67686 0.78262 0.0
O464 O 0.06729 0.7 0.77435 0.0
C465 C 0.06807 0.63598 0.75433 0.0
O466 O 0.07373 0.69036 0.73893 0.0
Co467 Co 0.12051 0.67183 0.7364 0.0
O468 O 0.09314 0.67331 0.72141 0.0
C469 C 0.14667 0.72532 0.75501 0.0
C470 C 0.07577 0.69054 0.78614 0.0
C471 C 0.07724 0.68387 0.72478 0.0
O472 O 0.12186 0.71883 0.76053 0.0
O473 O 0.15084 0.70835 0.74627 0.0
O474 O 0.05028 0.64328 0.76008 0.0
O475 O 0.09451 0.65615 0.75393 0.0
Co476 Co 0.37407 0.43592 0.7663 0.0
O477 O 0.37846 0.44499 0.78823 0.0
O478 O 0.35441 0.40086 0.77886 0.0
C479 C 0.42076 0.46561 0.76036 0.0
O480 O 0.36653 0.41948 0.74393 0.0
Co481 Co 0.38737 0.48574 0.74283 0.0
O482 O 0.38427 0.4571 0.72715 0.0
C483 C 0.33511 0.46093 0.76224 0.0
C484 C 0.36357 0.41779 0.79107 0.0
C485 C 0.37338 0.43041 0.73 0.0
O486 O 0.33836 0.43948 0.76581 0.0
O487 O 0.35384 0.48296 0.7547 0.0
O488 O 0.4124 0.43999 0.76568 0.0
O489 O 0.4013 0.47286 0.76009 0.0
Co490 Co 0.63445 0.9732 0.7615 0.0
O491 O 0.63423 0.97452 0.78414 0.0
O492 O 0.67335 0.99357 0.76939 0.0
C493 C 0.60062 0.98556 0.7577 0.0
O494 O 0.64261 0.97677 0.73782 0.0
Co495 Co 0.57917 0.92845 0.74405 0.0
O496 O 0.60115 0.94857 0.72495 0.0
C497 C 0.61497 0.90948 0.76044 0.0
C498 C 0.66199 0.98862 0.78339 0.0
C499 C 0.62781 0.96707 0.72509 0.0
O500 O 0.63462 0.93579 0.76239 0.0
O501 O 0.59021 0.90215 0.75476 0.0
O502 O 0.62707 0.00524 0.76024 0.0
O503 O 0.59524 0.95947 0.75912 0.0
H504 H 0.09946 0.28248 0.07616 0.0
H505 H 0.12605 0.37108 0.08694 0.0
H506 H 0.17683 0.38372 0.08456 0.0
H507 H 0.14823 0.27824 0.09924 0.0
H508 H 0.15472 0.25525 0.08654 0.0
H509 H 0.12103 0.25447 0.08561 0.0
H510 H 0.12822 0.26573 0.05574 0.0
H511 H 0.16201 0.26638 0.05656 0.0
H512 H 0.16047 0.29683 0.04892 0.0
H513 H 0.22411 0.38487 0.08543 0.0
H514 H 0.26339 0.37437 0.08971 0.0
H515 H 0.20539 0.2849 0.07858 0.0
C516 C 0.11593 0.30473 0.07751 0.0
C517 C 0.1089 0.32585 0.08166 0.0
C518 C 0.13103 0.35462 0.08365 0.0
C519 C 0.15991 0.36199 0.08227 0.0
C520 C 0.16617 0.34037 0.07876 0.0
C521 C 0.14473 0.31235 0.07626 0.0
C522 C 0.1568 0.29243 0.07461 0.0
C523 C 0.14447 0.26873 0.08726 0.0
C524 C 0.15156 0.27959 0.05796 0.0
C525 C 0.18824 0.31332 0.07734 0.0
C526 C 0.19338 0.34099 0.07939 0.0
C527 C 0.22044 0.36342 0.08351 0.0
C528 C 0.2426 0.35725 0.08595 0.0
C529 C 0.23739 0.32885 0.08443 0.0
C530 C 0.21008 0.30688 0.07964 0.0
H531 H 0.76705 0.95064 0.08426 0.0
H532 H 0.67911 0.92586 0.09556 0.0
H533 H 0.66558 0.87462 0.0935 0.0
H534 H 0.75104 0.89167 0.05656 0.0
H535 H 0.78125 0.88882 0.06334 0.0
H536 H 0.78267 0.92299 0.06377 0.0
H537 H 0.79452 0.92756 0.09359 0.0
H538 H 0.79301 0.89345 0.09328 0.0
H539 H 0.77072 0.89946 0.10679 0.0
H540 H 0.66342 0.82594 0.09298 0.0
H541 H 0.67284 0.78528 0.09395 0.0
H542 H 0.76223 0.84364 0.08289 0.0
C543 C 0.7448 0.93451 0.08601 0.0
C544 C 0.7241 0.94216 0.09005 0.0
C545 C 0.69527 0.92039 0.09236 0.0
C546 C 0.68741 0.89128 0.0912 0.0
C547 C 0.70862 0.88448 0.08755 0.0
C548 C 0.73669 0.90561 0.08486 0.0
C549 C 0.75602 0.89316 0.08224 0.0
C550 C 0.76847 0.89954 0.06548 0.0
C551 C 0.77996 0.90405 0.09472 0.0
C552 C 0.73472 0.86169 0.08437 0.0
C553 C 0.70739 0.85689 0.08724 0.0
C554 C 0.68466 0.82946 0.09051 0.0
C555 C 0.69018 0.80652 0.09105 0.0
C556 C 0.71823 0.81133 0.08846 0.0
C557 C 0.74051 0.8392 0.08481 0.0
H558 H 0.13311 0.81939 0.10105 0.0
H559 H 0.09006 0.83892 0.06405 0.0
H560 H 0.13584 0.88036 0.05608 0.0
H561 H 0.17359 0.8881 0.11342 0.0
H562 H 0.2056 0.88692 0.11824 0.0
H563 H 0.17138 0.85453 0.11854 0.0
H564 H 0.19021 0.83095 0.09889 0.0
H565 H 0.22464 0.86341 0.09853 0.0
H566 H 0.2055 0.84841 0.08042 0.0
H567 H 0.18254 0.92366 0.05513 0.0
H568 H 0.22707 0.96772 0.06216 0.0
H569 H 0.24178 0.92275 0.10007 0.0
C570 C 0.13369 0.8318 0.09088 0.0
C571 C 0.1082 0.82564 0.08294 0.0
C572 C 0.10936 0.84298 0.07014 0.0
C573 C 0.13536 0.86652 0.06546 0.0
C574 C 0.16004 0.87268 0.07379 0.0
C575 C 0.15955 0.85592 0.08626 0.0
C576 C 0.18814 0.87003 0.09482 0.0
C577 C 0.18444 0.87521 0.11228 0.0
C578 C 0.203 0.85213 0.09305 0.0
C579 C 0.20407 0.89801 0.08576 0.0
C580 C 0.18763 0.89861 0.07341 0.0
C581 C 0.19597 0.92323 0.06448 0.0
C582 C 0.22125 0.94819 0.06858 0.0
C583 C 0.23794 0.94836 0.08145 0.0
C584 C 0.2298 0.92276 0.08983 0.0
H585 H 0.35351 0.13572 0.90504 0.0
H586 H 0.28574 0.08761 0.93883 0.0
H587 H 0.28531 0.13104 0.94632 0.0
H588 H 0.38905 0.20681 0.927 0.0
H589 H 0.39482 0.22714 0.90916 0.0
H590 H 0.39522 0.19383 0.90869 0.0
H591 H 0.35594 0.17458 0.88714 0.0
H592 H 0.35541 0.20772 0.88757 0.0
H593 H 0.32276 0.17421 0.89078 0.0
H594 H 0.28554 0.17545 0.94749 0.0
H595 H 0.28479 0.21927 0.94142 0.0
H596 H 0.35151 0.24223 0.90646 0.0
C597 C 0.33934 0.13474 0.91437 0.0
C598 C 0.32022 0.10833 0.92168 0.0
C599 C 0.30106 0.10748 0.93333 0.0
C600 C 0.30069 0.13221 0.93773 0.0
C601 C 0.31925 0.15774 0.93016 0.0
C602 C 0.33813 0.15938 0.91864 0.0
C603 C 0.35242 0.18877 0.91082 0.0
C604 C 0.3848 0.2051 0.91412 0.0
C605 C 0.34625 0.18615 0.89303 0.0
C606 C 0.33749 0.20261 0.91929 0.0
C607 C 0.319 0.18431 0.93063 0.0
C608 C 0.30045 0.19035 0.93895 0.0
C609 C 0.30016 0.21544 0.93538 0.0
C610 C 0.31849 0.23453 0.92372 0.0
C611 C 0.33793 0.2284 0.91579 0.0
H612 H 0.95263 0.21361 0.92958 0.0
H613 H 0.92373 0.27292 0.91649 0.0
H614 H 0.87341 0.23454 0.92022 0.0
H615 H 0.90275 0.15689 0.90879 0.0
H616 H 0.89778 0.12958 0.92277 0.0
H617 H 0.93116 0.16284 0.9222 0.0
H618 H 0.92599 0.1711 0.9518 0.0
H619 H 0.89249 0.13768 0.95248 0.0
H620 H 0.89398 0.17043 0.95867 0.0
H621 H 0.82665 0.18802 0.92111 0.0
H622 H 0.78776 0.13753 0.91891 0.0
H623 H 0.84767 0.10917 0.93162 0.0
C624 C 0.93576 0.21877 0.92794 0.0
C625 C 0.94198 0.24617 0.92279 0.0
C626 C 0.91936 0.25203 0.92052 0.0
C627 C 0.89075 0.23041 0.92267 0.0
C628 C 0.88527 0.20325 0.92727 0.0
C629 C 0.90722 0.19749 0.93003 0.0
C630 C 0.89581 0.16595 0.9331 0.0
C631 C 0.90756 0.15308 0.92099 0.0
C632 C 0.90246 0.16101 0.95002 0.0
C633 C 0.8641 0.1546 0.93085 0.0
C634 C 0.85831 0.17644 0.9278 0.0
C635 C 0.83083 0.17079 0.92383 0.0
C636 C 0.8089 0.14208 0.92258 0.0
C637 C 0.81475 0.11953 0.92515 0.0
C638 C 0.84249 0.12598 0.92979 0.0
H639 H 0.8202 0.71045 0.90773 0.0
H640 H 0.83956 0.77241 0.94508 0.0
H641 H 0.88341 0.77114 0.9514 0.0
H642 H 0.85395 0.67029 0.92745 0.0
H643 H 0.86767 0.66606 0.9089 0.0
H644 H 0.83438 0.66645 0.90955 0.0
H645 H 0.85457 0.70782 0.88922 0.0
H646 H 0.88795 0.70784 0.88864 0.0
H647 H 0.88769 0.74035 0.89342 0.0
H648 H 0.92873 0.77179 0.95008 0.0
H649 H 0.97257 0.77179 0.9424 0.0
H650 H 0.92562 0.70807 0.90649 0.0
C651 C 0.83311 0.72271 0.91767 0.0
C652 C 0.82645 0.7413 0.92605 0.0
C653 C 0.84425 0.75794 0.93858 0.0
C654 C 0.86916 0.75726 0.94231 0.0
C655 C 0.87595 0.73977 0.93341 0.0
C656 C 0.85837 0.72246 0.92146 0.0
C657 C 0.8727 0.70859 0.91248 0.0
C658 C 0.85619 0.6759 0.91474 0.0
C659 C 0.87592 0.71665 0.89491 0.0
C660 C 0.90159 0.72213 0.92069 0.0
C661 C 0.90268 0.7397 0.93287 0.0
C662 C 0.92793 0.75738 0.94095 0.0
C663 C 0.95284 0.75735 0.93643 0.0
C664 C 0.95235 0.73949 0.92409 0.0
C665 C 0.92628 0.72122 0.91631 0.0
H666 H 0.80253 0.6828 0.42634 0.0
H667 H 0.75415 0.61344 0.39351 0.0
H668 H 0.79781 0.61197 0.38682 0.0
H669 H 0.87435 0.71627 0.40409 0.0
H670 H 0.89389 0.72372 0.42234 0.0
H671 H 0.86099 0.72485 0.4215 0.0
H672 H 0.84049 0.68826 0.4444 0.0
H673 H 0.87306 0.68679 0.44522 0.0
H674 H 0.83923 0.65427 0.44248 0.0
H675 H 0.84199 0.60998 0.38811 0.0
H676 H 0.88492 0.60866 0.39672 0.0
H677 H 0.9067 0.67975 0.42843 0.0
C678 C 0.80156 0.66827 0.41723 0.0
C679 C 0.77516 0.64845 0.41029 0.0
C680 C 0.77424 0.62891 0.39887 0.0
C681 C 0.79898 0.62803 0.39493 0.0
C682 C 0.8245 0.64688 0.4025 0.0
C683 C 0.82614 0.6669 0.4133 0.0
C684 C 0.85507 0.68156 0.42147 0.0
C685 C 0.87208 0.7135 0.41708 0.0
C686 C 0.85174 0.67745 0.43945 0.0
C687 C 0.86856 0.66527 0.41434 0.0
C688 C 0.85075 0.64584 0.40316 0.0
C689 C 0.85659 0.62571 0.39644 0.0
C690 C 0.88094 0.625 0.40147 0.0
C691 C 0.89925 0.6444 0.41304 0.0
C692 C 0.89343 0.66529 0.41922 0.0
H693 H 0.36979 0.25183 0.43706 0.0
H694 H 0.43058 0.29552 0.39943 0.0
H695 H 0.43037 0.25091 0.39287 0.0
H696 H 0.40206 0.21693 0.45116 0.0
H697 H 0.37057 0.18358 0.45633 0.0
H698 H 0.36885 0.21603 0.45554 0.0
H699 H 0.32698 0.19275 0.43559 0.0
H700 H 0.32831 0.15994 0.43644 0.0
H701 H 0.33119 0.17706 0.41776 0.0
H702 H 0.43262 0.20713 0.39414 0.0
H703 H 0.4359 0.16532 0.40243 0.0
H704 H 0.37315 0.14719 0.43909 0.0
C705 C 0.3819 0.25145 0.42698 0.0
C706 C 0.39985 0.27682 0.41854 0.0
C707 C 0.41651 0.27616 0.40588 0.0
C708 C 0.4164 0.25087 0.40204 0.0
C709 C 0.39956 0.22645 0.411 0.0
C710 C 0.38235 0.22631 0.42313 0.0
C711 C 0.36985 0.19845 0.43238 0.0
C712 C 0.37836 0.20411 0.44988 0.0
C713 C 0.33713 0.18101 0.43042 0.0
C714 C 0.38423 0.18389 0.42418 0.0
C715 C 0.40076 0.20029 0.41168 0.0
C716 C 0.41904 0.19358 0.40354 0.0
C717 C 0.42089 0.1698 0.40841 0.0
C718 C 0.40437 0.15272 0.42118 0.0
C719 C 0.38527 0.15943 0.42895 0.0
H720 H 0.9125 0.24925 0.43568 0.0
H721 H 0.89753 0.29579 0.3988 0.0
H722 H 0.85445 0.25159 0.39048 0.0
H723 H 0.88006 0.17697 0.41448 0.0
H724 H 0.86393 0.15772 0.43241 0.0
H725 H 0.89751 0.19109 0.4331 0.0
H726 H 0.8755 0.21145 0.45283 0.0
H727 H 0.84195 0.17833 0.45215 0.0
H728 H 0.84313 0.21161 0.44758 0.0
H729 H 0.80945 0.20638 0.38919 0.0
H730 H 0.76411 0.16258 0.39538 0.0
H731 H 0.80577 0.1434 0.43331 0.0
C732 C 0.9007 0.24966 0.42545 0.0
C733 C 0.90855 0.27569 0.41762 0.0
C734 C 0.89207 0.27598 0.40477 0.0
C735 C 0.86761 0.25091 0.39991 0.0
C736 C 0.85975 0.22569 0.40814 0.0
C737 C 0.87573 0.22472 0.42063 0.0
C738 C 0.86002 0.19591 0.42893 0.0
C739 C 0.87636 0.17945 0.42712 0.0
C740 C 0.85484 0.19956 0.4464 0.0
C741 C 0.83218 0.18159 0.41968 0.0
C742 C 0.83288 0.19899 0.40751 0.0
C743 C 0.80882 0.19218 0.3984 0.0
C744 C 0.78311 0.16732 0.40204 0.0
C745 C 0.78164 0.14952 0.41466 0.0
C746 C 0.80665 0.15627 0.4233 0.0
H747 H 0.01448 0.47173 0.23492 0.0
H748 H 0.94861 0.42591 0.26997 0.0
H749 H 0.95003 0.47027 0.27759 0.0
H750 H 0.05302 0.54365 0.25613 0.0
H751 H 0.058 0.56339 0.23815 0.0
H752 H 0.05752 0.52964 0.23774 0.0
H753 H 0.01684 0.51036 0.21702 0.0
H754 H 0.01714 0.54393 0.21739 0.0
H755 H 0.98433 0.51095 0.22131 0.0
H756 H 0.95196 0.51563 0.27892 0.0
H757 H 0.95218 0.56002 0.27289 0.0
H758 H 0.01538 0.57959 0.23621 0.0
C759 C 0.00121 0.47147 0.24457 0.0
C760 C 0.98207 0.44548 0.25223 0.0
C761 C 0.96396 0.44551 0.26425 0.0
C762 C 0.96466 0.47075 0.2687 0.0
C763 C 0.98319 0.49589 0.26079 0.0
C764 C 0.00104 0.49664 0.24888 0.0
C765 C 0.01532 0.52571 0.24072 0.0
C766 C 0.04791 0.54153 0.24335 0.0
C767 C 0.00795 0.52253 0.22307 0.0
C768 C 0.00153 0.54042 0.24945 0.0
C769 C 0.98369 0.52286 0.26123 0.0
C770 C 0.96632 0.52992 0.26998 0.0
C771 C 0.96651 0.55526 0.2664 0.0
C772 C 0.98404 0.57349 0.25423 0.0
C773 C 0.00237 0.56637 0.24587 0.0
H774 H 0.61618 0.54391 0.26062 0.0
H775 H 0.58749 0.60558 0.25424 0.0
H776 H 0.53712 0.56658 0.2566 0.0
H777 H 0.56507 0.49165 0.23699 0.0
H778 H 0.56021 0.46156 0.24865 0.0
H779 H 0.59382 0.49466 0.24923 0.0
H780 H 0.58982 0.49683 0.27955 0.0
H781 H 0.55621 0.46352 0.27909 0.0
H782 H 0.55819 0.49482 0.28806 0.0
H783 H 0.48996 0.52014 0.25645 0.0
H784 H 0.4501 0.47019 0.25364 0.0
H785 H 0.51013 0.4393 0.25957 0.0
C786 C 0.59934 0.54934 0.26018 0.0
C787 C 0.60567 0.57774 0.25735 0.0
C788 C 0.58305 0.58393 0.25648 0.0
C789 C 0.5544 0.56194 0.25785 0.0
C790 C 0.54882 0.53396 0.26013 0.0
C791 C 0.5707 0.52765 0.26138 0.0
C792 C 0.5591 0.49564 0.26224 0.0
C793 C 0.57021 0.48529 0.24846 0.0
C794 C 0.56625 0.48721 0.27819 0.0
C795 C 0.52734 0.48487 0.26075 0.0
C796 C 0.52174 0.50725 0.2598 0.0
C797 C 0.49405 0.50245 0.25742 0.0
C798 C 0.47157 0.47405 0.2558 0.0
C799 C 0.47705 0.45094 0.25641 0.0
C800 C 0.50524 0.45652 0.25916 0.0
H801 H 0.4828 0.04343 0.24054 0.0
H802 H 0.50672 0.11513 0.27213 0.0
H803 H 0.54808 0.11201 0.28115 0.0
H804 H 0.51289 0.00487 0.26449 0.0
H805 H 0.52683 0.99661 0.24721 0.0
H806 H 0.49464 0.99899 0.24589 0.0
H807 H 0.51767 0.03691 0.22375 0.0
H808 H 0.54976 0.03455 0.22497 0.0
H809 H 0.55173 0.06879 0.22725 0.0
H810 H 0.5898 0.1068 0.28426 0.0
H811 H 0.63287 0.10348 0.27903 0.0
H812 H 0.58633 0.03735 0.24416 0.0
C813 C 0.49629 0.05771 0.24974 0.0
C814 C 0.4909 0.07887 0.25605 0.0
C815 C 0.50974 0.0982 0.26747 0.0
C816 C 0.5334 0.09655 0.27273 0.0
C817 C 0.53849 0.07586 0.26618 0.0
C818 C 0.52081 0.05699 0.25476 0.0
C819 C 0.5342 0.04043 0.24775 0.0
C820 C 0.51605 0.00831 0.25157 0.0
C821 C 0.53861 0.04549 0.22988 0.0
C822 C 0.56262 0.05401 0.2565 0.0
C823 C 0.56405 0.07372 0.26742 0.0
C824 C 0.58884 0.09108 0.27597 0.0
C825 C 0.61325 0.0891 0.27288 0.0
C826 C 0.61279 0.07002 0.26131 0.0
C827 C 0.58693 0.05156 0.25337 0.0
H828 H 0.43924 0.94675 0.74783 0.0
H829 H 0.46764 0.03699 0.75437 0.0
H830 H 0.51812 0.04831 0.75265 0.0
H831 H 0.48906 0.94516 0.77222 0.0
H832 H 0.49435 0.91999 0.76076 0.0
H833 H 0.46084 0.91963 0.75965 0.0
H834 H 0.46622 0.92615 0.72938 0.0
H835 H 0.49974 0.9263 0.73036 0.0
H836 H 0.49827 0.95577 0.72123 0.0
H837 H 0.56527 0.04884 0.75347 0.0
H838 H 0.60483 0.03847 0.75702 0.0
H839 H 0.54484 0.94773 0.7506 0.0
C840 C 0.45604 0.969 0.74845 0.0
C841 C 0.44961 0.99104 0.75113 0.0
C842 C 0.47217 0.01981 0.75221 0.0
C843 C 0.50087 0.02643 0.75122 0.0
C844 C 0.50652 0.00403 0.74907 0.0
C845 C 0.48468 0.97589 0.74761 0.0
C846 C 0.4962 0.9554 0.74703 0.0
C847 C 0.48442 0.93379 0.76073 0.0
C848 C 0.48973 0.94001 0.73105 0.0
C849 C 0.52788 0.97627 0.74893 0.0
C850 C 0.53353 0.00426 0.74983 0.0
C851 C 0.56114 0.02704 0.75255 0.0
C852 C 0.58345 0.02096 0.75458 0.0
C853 C 0.57786 0.99232 0.75406 0.0
C854 C 0.5498 0.96986 0.75095 0.0
H855 H 0.1054 0.51333 0.74567 0.0
H856 H 0.01852 0.45268 0.76018 0.0
H857 H 0.00542 0.49058 0.75726 0.0
H858 H 0.1125 0.57023 0.76669 0.0
H859 H 0.1336 0.59717 0.75227 0.0
H860 H 0.13441 0.56424 0.75289 0.0
H861 H 0.11916 0.55475 0.72355 0.0
H862 H 0.11838 0.58783 0.72282 0.0
H863 H 0.0871 0.55459 0.71726 0.0
H864 H 0.00431 0.5373 0.75649 0.0
H865 H 0.01524 0.58772 0.75802 0.0
H866 H 0.10273 0.61649 0.74358 0.0
C867 C 0.0834 0.50773 0.74787 0.0
C868 C 0.06293 0.48011 0.75313 0.0
C869 C 0.03446 0.47373 0.75603 0.0
C870 C 0.02686 0.49509 0.75437 0.0
C871 C 0.04789 0.52245 0.74957 0.0
C872 C 0.07552 0.52862 0.7462 0.0
C873 C 0.095 0.56009 0.7427 0.0
C874 C 0.12034 0.57371 0.75433 0.0
C875 C 0.10552 0.56457 0.72556 0.0
C876 C 0.07442 0.57104 0.74531 0.0
C877 C 0.04721 0.54907 0.74902 0.0
C878 C 0.02538 0.55457 0.75328 0.0
C879 C 0.03177 0.58325 0.75413 0.0
C880 C 0.05979 0.60595 0.75086 0.0
C881 C 0.08102 0.59959 0.74596 0.0
H882 H 0.44242 0.52099 0.7512 0.0
H883 H 0.46735 0.45766 0.76189 0.0
H884 H 0.51845 0.49503 0.75922 0.0
H885 H 0.50165 0.56495 0.72326 0.0
H886 H 0.5046 0.59777 0.73055 0.0
H887 H 0.47037 0.56512 0.7307 0.0
H888 H 0.46576 0.57125 0.76064 0.0
H889 H 0.49994 0.60371 0.76062 0.0
H890 H 0.49375 0.57481 0.77371 0.0
H891 H 0.56693 0.54095 0.75857 0.0
H892 H 0.60771 0.59075 0.76032 0.0
H893 H 0.54985 0.62303 0.75057 0.0
C894 C 0.45856 0.51475 0.75257 0.0
C895 C 0.45098 0.48644 0.75668 0.0
C896 C 0.47275 0.47924 0.75863 0.0
C897 C 0.5018 0.50031 0.75711 0.0
C898 C 0.50859 0.52832 0.75353 0.0
C899 C 0.48748 0.53545 0.75118 0.0
C900 C 0.50008 0.56738 0.74899 0.0
C901 C 0.4938 0.5742 0.73239 0.0
C902 C 0.48924 0.58001 0.76175 0.0
C903 C 0.53155 0.57733 0.75105 0.0
C904 C 0.53621 0.55456 0.75339 0.0
C905 C 0.56355 0.55888 0.75651 0.0
C906 C 0.58656 0.5872 0.7575 0.0
C907 C 0.5819 0.61068 0.75556 0.0
C908 C 0.55413 0.60552 0.75201 0.0
H909 H 0.61915 0.77029 0.58528 0.0
H910 H 0.70981 0.80341 0.5769 0.0
H911 H 0.718 0.853 0.57771 0.0
H912 H 0.6114 0.81753 0.56103 0.0
H913 H 0.58631 0.82112 0.57352 0.0
H914 H 0.58841 0.78882 0.57415 0.0
H915 H 0.59793 0.79513 0.60421 0.0
H916 H 0.59566 0.82742 0.60371 0.0
H917 H 0.62712 0.82827 0.61165 0.0
H918 H 0.71497 0.89874 0.57697 0.0
H919 H 0.70121 0.93625 0.57522 0.0
H920 H 0.61254 0.87196 0.58404 0.0
C921 C 0.64084 0.78795 0.58389 0.0
C922 C 0.66388 0.78309 0.58104 0.0
C923 C 0.6919 0.80675 0.57917 0.0
C924 C 0.69672 0.83494 0.57962 0.0
C925 C 0.67332 0.83894 0.5821 0.0
C926 C 0.64598 0.81602 0.58434 0.0
C927 C 0.62413 0.82567 0.58588 0.0
C928 C 0.60123 0.81251 0.57287 0.0
C929 C 0.61041 0.81871 0.60234 0.0
C930 C 0.64323 0.85758 0.58364 0.0
C931 C 0.67159 0.86497 0.58165 0.0
C932 C 0.69288 0.89321 0.5787 0.0
C933 C 0.68487 0.91433 0.57769 0.0
C934 C 0.65583 0.90697 0.57951 0.0
C935 C 0.63493 0.87828 0.58267 0.0
H936 H 0.17453 0.77375 0.59258 0.0
H937 H 0.11772 0.80476 0.57783 0.0
H938 H 0.15796 0.85482 0.57992 0.0
H939 H 0.21795 0.83261 0.6204 0.0
H940 H 0.25031 0.83244 0.61515 0.0
H941 H 0.21622 0.7997 0.61429 0.0
H942 H 0.22562 0.79305 0.58507 0.0
H943 H 0.25959 0.82573 0.58581 0.0
H944 H 0.23348 0.82136 0.57117 0.0
H945 H 0.20624 0.90106 0.58059 0.0
H946 H 0.25744 0.93891 0.58025 0.0
H947 H 0.28119 0.8765 0.59521 0.0
C948 C 0.17033 0.79103 0.59007 0.0
C949 C 0.14306 0.78546 0.58504 0.0
C950 C 0.13849 0.80866 0.58178 0.0
C951 C 0.16119 0.8371 0.58295 0.0
C952 C 0.18807 0.84182 0.58763 0.0
C953 C 0.19255 0.81934 0.5913 0.0
C954 C 0.22365 0.82968 0.59502 0.0
C955 C 0.22723 0.82322 0.61224 0.0
C956 C 0.23631 0.81669 0.58359 0.0
C957 C 0.23628 0.86146 0.59234 0.0
C958 C 0.2155 0.86821 0.58823 0.0
C959 C 0.2226 0.89607 0.58406 0.0
C960 C 0.2517 0.9174 0.58388 0.0
C961 C 0.27321 0.91063 0.58778 0.0
C962 C 0.26522 0.88243 0.59236 0.0
H963 H 0.25755 0.37481 0.57638 0.0
H964 H 0.30292 0.44034 0.61165 0.0
H965 H 0.25874 0.43976 0.61867 0.0
H966 H 0.22139 0.40606 0.56171 0.0
H967 H 0.18795 0.374 0.5574 0.0
H968 H 0.22064 0.3727 0.558 0.0
H969 H 0.19861 0.33229 0.57888 0.0
H970 H 0.16567 0.33337 0.57829 0.0
H971 H 0.18393 0.33776 0.59675 0.0
H972 H 0.2147 0.44057 0.61836 0.0
H973 H 0.1727 0.44355 0.61024 0.0
H974 H 0.15281 0.37835 0.57473 0.0
C975 C 0.25767 0.38802 0.58603 0.0
C976 C 0.28348 0.40696 0.59384 0.0
C977 C 0.28339 0.42511 0.60582 0.0
C978 C 0.25824 0.42489 0.60994 0.0
C979 C 0.23331 0.40676 0.60175 0.0
C980 C 0.23264 0.38864 0.59 0.0
C981 C 0.20424 0.3753 0.58123 0.0
C982 C 0.20885 0.38246 0.56355 0.0
C983 C 0.1871 0.34274 0.58396 0.0
C984 C 0.19003 0.39019 0.58929 0.0
C985 C 0.20702 0.4076 0.60136 0.0
C986 C 0.2007 0.42638 0.60928 0.0
C987 C 0.17678 0.428 0.60454 0.0
C988 C 0.15922 0.41077 0.59209 0.0
C989 C 0.16545 0.39104 0.58463 0.0
H990 H 0.99695 0.3365 0.1302 0.0
H991 H 0.04355 0.2929 0.14308 0.0
H992 H 0.03957 0.30202 0.17101 0.0
H993 H 0.028 0.3916 0.16003 0.0
H994 H 0.99523 0.39185 0.16399 0.0
H995 H 0.0015 0.38198 0.14475 0.0
H996 H 0.95376 0.33368 0.14658 0.0
H997 H 0.9473 0.34346 0.16579 0.0
H998 H 0.94755 0.31036 0.16315 0.0
H999 H 0.03129 0.31591 0.19757 0.0
H1000 H 0.01751 0.33267 0.22131 0.0
H1001 H 0.9759 0.36702 0.1918 0.0
C1002 C 0.00621 0.32884 0.13892 0.0
C1003 C 0.02057 0.31399 0.13438 0.0
C1004 C 0.03243 0.30432 0.14618 0.0
C1005 C 0.03035 0.30942 0.16213 0.0
C1006 C 0.01627 0.3242 0.16623 0.0
C1007 C 0.00428 0.3337 0.15502 0.0
C1008 C 0.99015 0.3489 0.16278 0.0
C1009 C 0.00459 0.38045 0.15758 0.0
C1010 C 0.95777 0.33315 0.15937 0.0
C1011 C 0.99611 0.34636 0.18 0.0
C1012 C 0.0113 0.33211 0.18169 0.0
C1013 C 0.01936 0.32709 0.19643 0.0
C1014 C 0.01148 0.33672 0.20985 0.0
C1015 C 0.99565 0.35114 0.20844 0.0
C1016 C 0.98802 0.35608 0.19328 0.0
H1017 H 0.73639 0.74781 0.14527 0.0
H1018 H 0.69984 0.66949 0.11765 0.0
H1019 H 0.68726 0.64107 0.14217 0.0
H1020 H 0.7667 0.72473 0.17597 0.0
H1021 H 0.75848 0.74229 0.19151 0.0
H1022 H 0.7649 0.75665 0.17183 0.0
H1023 H 0.71559 0.75417 0.17194 0.0
H1024 H 0.70902 0.73982 0.19162 0.0
H1025 H 0.68366 0.72055 0.17616 0.0
H1026 H 0.67875 0.6213 0.16926 0.0
H1027 H 0.67365 0.61053 0.19749 0.0
H1028 H 0.71523 0.70156 0.2082 0.0
C1029 C 0.72578 0.72467 0.14437 0.0
C1030 C 0.71911 0.71082 0.12953 0.0
C1031 C 0.70515 0.68053 0.12887 0.0
C1032 C 0.69795 0.66423 0.14273 0.0
C1033 C 0.70483 0.67855 0.15713 0.0
C1034 C 0.71837 0.70806 0.1581 0.0
C1035 C 0.72304 0.71801 0.17513 0.0
C1036 C 0.75519 0.73651 0.17882 0.0
C1037 C 0.70686 0.73408 0.17893 0.0
C1038 C 0.70993 0.68941 0.18361 0.0
C1039 C 0.69969 0.66704 0.17293 0.0
C1040 C 0.68667 0.63861 0.17773 0.0
C1041 C 0.68392 0.63277 0.19386 0.0
C1042 C 0.69404 0.65521 0.20514 0.0
C1043 C 0.7073 0.68397 0.1999 0.0
H1044 H 0.36565 0.05695 0.13266 0.0
H1045 H 0.2764 0.00358 0.14617 0.0
H1046 H 0.29041 0.00919 0.17402 0.0
H1047 H 0.39534 0.03118 0.16295 0.0
H1048 H 0.42633 0.06592 0.16638 0.0
H1049 H 0.40964 0.05716 0.14725 0.0
H1050 H 0.40364 0.10198 0.14836 0.0
H1051 H 0.42026 0.11084 0.1675 0.0
H1052 H 0.38514 0.1066 0.1648 0.0
H1053 H 0.31324 0.02111 0.20043 0.0
H1054 H 0.3441 0.03885 0.22398 0.0
H1055 H 0.41884 0.08477 0.19399 0.0
C1056 C 0.34914 0.04631 0.14149 0.0
C1057 C 0.31991 0.0298 0.13717 0.0
C1058 C 0.29893 0.01639 0.14911 0.0
C1059 C 0.30664 0.01939 0.16502 0.0
C1060 C 0.33548 0.03591 0.1689 0.0
C1061 C 0.35648 0.04917 0.15754 0.0
C1062 C 0.38586 0.06621 0.1651 0.0
C1063 C 0.40545 0.0544 0.16012 0.0
C1064 C 0.39952 0.09831 0.16121 0.0
C1065 C 0.37795 0.06051 0.18241 0.0
C1066 C 0.34877 0.04291 0.1843 0.0
C1067 C 0.33617 0.03484 0.19913 0.0
C1068 C 0.35387 0.04505 0.21244 0.0
C1069 C 0.38387 0.06316 0.21086 0.0
C1070 C 0.39599 0.07089 0.1956 0.0
H1071 H 0.31501 0.03151 0.86124 0.0
H1072 H 0.3612 0.00036 0.88935 0.0
H1073 H 0.37521 0.9852 0.86514 0.0
H1074 H 0.2881 0.97547 0.83223 0.0
H1075 H 0.29249 0.9987 0.81589 0.0
H1076 H 0.28619 0.00761 0.83537 0.0
H1077 H 0.33247 0.05713 0.83344 0.0
H1078 H 0.33888 0.04842 0.81394 0.0
H1079 H 0.36603 0.05889 0.82891 0.0
H1080 H 0.3832 0.97234 0.8385 0.0
H1081 H 0.38665 0.96364 0.81053 0.0
H1082 H 0.3362 0.00371 0.79863 0.0
C1083 C 0.32814 0.02157 0.86228 0.0
C1084 C 0.337 0.01708 0.87722 0.0
C1085 C 0.35419 0.00405 0.87808 0.0
C1086 C 0.36223 0.99533 0.86439 0.0
C1087 C 0.35303 -9e-05 0.8499 0.0
C1088 C 0.33652 0.01284 0.84868 0.0
C1089 C 0.32969 0.01522 0.83155 0.0
C1090 C 0.29718 0.99823 0.82859 0.0
C1091 C 0.34254 0.04679 0.82668 0.0
C1092 C 0.34482 0.00138 0.82335 0.0
C1093 C 0.35803 0.99273 0.83426 0.0
C1094 C 0.37306 0.9791 0.82983 0.0
C1095 C 0.3748 0.97421 0.81383 0.0
C1096 C 0.3617 0.98298 0.80228 0.0
C1097 C 0.34648 0.9968 0.80714 0.0
H1098 H 0.08654 0.42188 0.813 0.0
H1099 H 0.05105 0.34437 0.7847 0.0
H1100 H 0.03558 0.31516 0.80886 0.0
H1101 H 0.11256 0.39567 0.84494 0.0
H1102 H 0.10364 0.41328 0.86014 0.0
H1103 H 0.11262 0.42851 0.84066 0.0
H1104 H 0.0644 0.42816 0.83918 0.0
H1105 H 0.05523 0.41286 0.85863 0.0
H1106 H 0.03133 0.39504 0.84238 0.0
H1107 H 0.02306 0.29436 0.83534 0.0
H1108 H 0.01427 0.28198 0.86322 0.0
H1109 H 0.0577 0.37247 0.87557 0.0
C1110 C 0.07563 0.39876 0.81191 0.0
C1111 C 0.07001 0.38537 0.79693 0.0
C1112 C 0.05564 0.35509 0.796 0.0
C1113 C 0.04675 0.33832 0.80966 0.0
C1114 C 0.05245 0.35213 0.82419 0.0
C1115 C 0.06662 0.38161 0.82548 0.0
C1116 C 0.06975 0.39076 0.84266 0.0
C1117 C 0.10153 0.40808 0.84738 0.0
C1118 C 0.05425 0.4077 0.8459 0.0
C1119 C 0.05483 0.36172 0.85078 0.0
C1120 C 0.04516 0.3399 0.83978 0.0
C1121 C 0.03058 0.31121 0.84408 0.0
C1122 C 0.0257 0.30447 0.86004 0.0
C1123 C 0.03531 0.32624 0.87171 0.0
C1124 C 0.05013 0.35536 0.86698 0.0
H1125 H 0.65022 0.69077 0.81367 0.0
H1126 H 0.72622 0.73262 0.78426 0.0
H1127 H 0.75647 0.74998 0.80811 0.0
H1128 H 0.67411 0.74535 0.84332 0.0
H1129 H 0.65826 0.72047 0.85941 0.0
H1130 H 0.64254 0.71094 0.84007 0.0
H1131 H 0.64665 0.665 0.84061 0.0
H1132 H 0.6623 0.67433 0.85998 0.0
H1133 H 0.68101 0.66797 0.84431 0.0
H1134 H 0.77825 0.76341 0.83494 0.0
H1135 H 0.79074 0.77125 0.86303 0.0
H1136 H 0.70062 0.7204 0.87538 0.0
C1137 C 0.67324 0.7035 0.81223 0.0
C1138 C 0.6859 0.71034 0.79708 0.0
C1139 C 0.71608 0.72708 0.79572 0.0
C1140 C 0.73341 0.73706 0.8092 0.0
C1141 C 0.72023 0.73007 0.82394 0.0
C1142 C 0.69086 0.7136 0.82555 0.0
C1143 C 0.68213 0.7092 0.84277 0.0
C1144 C 0.66314 0.72227 0.84661 0.0
C1145 C 0.66714 0.67722 0.84717 0.0
C1146 C 0.71122 0.72583 0.85061 0.0
C1147 C 0.73285 0.73771 0.83949 0.0
C1148 C 0.76152 0.75417 0.84375 0.0
C1149 C 0.76836 0.75851 0.85978 0.0
C1150 C 0.74667 0.74643 0.87146 0.0
C1151 C 0.71768 0.7299 0.86676 0.0
H1152 H 0.02995 0.74774 0.86215 0.0
H1153 H 0.05468 0.69574 0.88988 0.0
H1154 H 0.06718 0.67955 0.86558 0.0
H1155 H 0.99856 0.69773 0.8297 0.0
H1156 H 0.0115 0.7252 0.81477 0.0
H1157 H 0.00416 0.73286 0.83432 0.0
H1158 H 0.05595 0.7758 0.83629 0.0
H1159 H 0.06346 0.76828 0.81675 0.0
H1160 H 0.08579 0.77005 0.83302 0.0
H1161 H 0.07767 0.66948 0.83898 0.0
H1162 H 0.08552 0.66518 0.81098 0.0
H1163 H 0.05387 0.72311 0.79938 0.0
C1164 C 0.03795 0.73291 0.86309 0.0
C1165 C 0.04134 0.72299 0.87794 0.0
C1166 C 0.05189 0.70363 0.87867 0.0
C1167 C 0.05905 0.69429 0.86493 0.0
C1168 C 0.05552 0.70447 0.85052 0.0
C1169 C 0.04521 0.72329 0.84942 0.0
C1170 C 0.0437 0.73088 0.83233 0.0
C1171 C 0.01263 0.72108 0.8275 0.0
C1172 C 0.0634 0.76317 0.82943 0.0
C1173 C 0.05487 0.71339 0.82404 0.0
C1174 C 0.06152 0.69842 0.83487 0.0
C1175 C 0.07252 0.68103 0.83037 0.0
C1176 C 0.07694 0.67882 0.81437 0.0
C1177 C 0.07035 0.69384 0.80291 0.0
C1178 C 0.05904 0.71132 0.80784 0.0
H1179 H 0.33494 0.36178 0.80254 0.0
H1180 H 0.38057 0.45109 0.81718 0.0
H1181 H 0.37415 0.43626 0.84483 0.0
H1182 H 0.28284 0.33651 0.83449 0.0
H1183 H 0.28245 0.30303 0.83686 0.0
H1184 H 0.29021 0.32031 0.81789 0.0
H1185 H 0.33806 0.31985 0.81686 0.0
H1186 H 0.33048 0.30265 0.83584 0.0
H1187 H 0.36348 0.33586 0.83271 0.0
H1188 H 0.36415 0.41287 0.87078 0.0
H1189 H 0.3496 0.38137 0.89404 0.0
H1190 H 0.30979 0.30663 0.86354 0.0
C1191 C 0.34344 0.37813 0.81158 0.0
C1192 C 0.35829 0.40762 0.80761 0.0
C1193 C 0.36914 0.42837 0.81982 0.0
C1194 C 0.36563 0.4202 0.83563 0.0
C1195 C 0.35114 0.39113 0.83917 0.0
C1196 C 0.34008 0.37032 0.82759 0.0
C1197 C 0.32544 0.34055 0.83487 0.0
C1198 C 0.29332 0.32414 0.83078 0.0
C1199 C 0.34026 0.32374 0.82976 0.0
C1200 C 0.33018 0.34809 0.85227 0.0
C1201 C 0.34511 0.37743 0.85441 0.0
C1202 C 0.35237 0.38982 0.8693 0.0
C1203 C 0.34404 0.37173 0.88245 0.0
C1204 C 0.32855 0.34156 0.88064 0.0
C1205 C 0.32158 0.32963 0.86531 0.0
H1206 H 0.69176 0.00513 0.87648 0.0
H1207 H 0.78234 0.05384 0.86466 0.0
H1208 H 0.77046 0.04749 0.83658 0.0
H1209 H 0.67176 0.95374 0.8447 0.0
H1210 H 0.63791 0.95184 0.84092 0.0
H1211 H 0.65313 0.96016 0.86041 0.0
H1212 H 0.6505 0.00694 0.86039 0.0
H1213 H 0.63526 0.99873 0.8409 0.0
H1214 H 0.66732 0.03249 0.84466 0.0
H1215 H 0.74973 0.03618 0.80977 0.0
H1216 H 0.72045 0.02017 0.78556 0.0
H1217 H 0.64316 0.97878 0.81403 0.0
C1218 C 0.70901 0.01443 0.86796 0.0
C1219 C 0.73798 0.02997 0.87286 0.0
C1220 C 0.75995 0.0418 0.86131 0.0
C1221 C 0.75349 0.03836 0.84525 0.0
C1222 C 0.72489 0.02299 0.8408 0.0
C1223 C 0.70293 0.01117 0.85174 0.0
C1224 C 0.67403 0.99555 0.84356 0.0
C1225 C 0.65829 0.96342 0.84764 0.0
C1226 C 0.6557 0.00925 0.84762 0.0
C1227 C 0.68335 0.00056 0.82642 0.0
C1228 C 0.7128 0.01643 0.82514 0.0
C1229 C 0.7266 0.02374 0.81058 0.0
C1230 C 0.70981 0.01455 0.7969 0.0
C1231 C 0.67957 0.99828 0.79788 0.0
C1232 C 0.66625 0.99126 0.81287 0.0
H1233 H 0.74655 0.02469 0.14814 0.0
H1234 H 0.7107 0.06622 0.11972 0.0
H1235 H 0.6943 0.07921 0.14388 0.0
H1236 H 0.6907 0.99529 0.17724 0.0
H1237 H 0.71457 0.00136 0.19351 0.0
H1238 H 0.72391 0.99551 0.17404 0.0
H1239 H 0.77195 0.04352 0.17564 0.0
H1240 H 0.76283 0.04947 0.19514 0.0
H1241 H 0.77161 0.07612 0.18004 0.0
H1242 H 0.68139 0.08718 0.17069 0.0
H1243 H 0.67363 0.09127 0.19879 0.0
H1244 H 0.71782 0.04471 0.2105 0.0
C1245 C 0.73533 0.03662 0.147 0.0
C1246 C 0.7299 0.04448 0.13201 0.0
C1247 C 0.71514 0.06003 0.13104 0.0
C1248 C 0.7057 0.06744 0.14469 0.0
C1249 C 0.71123 0.05919 0.15924 0.0
C1250 C 0.72578 0.04423 0.16052 0.0
C1251 C 0.72894 0.0381 0.17765 0.0
C1252 C 0.71361 0.00563 0.18079 0.0
C1253 C 0.76072 0.05268 0.18239 0.0
C1254 C 0.7138 0.05192 0.1858 0.0
C1255 C 0.70377 0.06388 0.17488 0.0
C1256 C 0.68917 0.07795 0.17935 0.0
C1257 C 0.6849 0.08013 0.1954 0.0
C1258 C 0.69514 0.06834 0.20692 0.0
C1259 C 0.70966 0.05386 0.20201 0.0
H1260 H 0.998 0.69671 0.13229 0.0
H1261 H 0.04582 0.78663 0.14559 0.0
H1262 H 0.04083 0.77305 0.17346 0.0
H1263 H 0.94766 0.67427 0.16476 0.0
H1264 H 0.94623 0.64036 0.16752 0.0
H1265 H 0.95373 0.65677 0.14832 0.0
H1266 H 0.00072 0.65468 0.14703 0.0
H1267 H 0.99336 0.63828 0.16623 0.0
H1268 H 0.0268 0.67076 0.16257 0.0
H1269 H 0.03148 0.75069 0.19978 0.0
H1270 H 0.01686 0.72022 0.22345 0.0
H1271 H 0.97403 0.64426 0.19401 0.0
C1272 C 0.0074 0.71346 0.14109 0.0
C1273 C 0.0223 0.74276 0.1367 0.0
C1274 C 0.03422 0.76405 0.14859 0.0
C1275 C 0.03158 0.75659 0.16451 0.0
C1276 C 0.01682 0.72768 0.16847 0.0
C1277 C 0.00479 0.70637 0.15718 0.0
C1278 C 0.98966 0.67694 0.16487 0.0
C1279 C 0.9574 0.66116 0.16114 0.0
C1280 C 0.00347 0.65912 0.15988 0.0
C1281 C 0.99521 0.6852 0.18216 0.0
C1282 C 0.01101 0.71461 0.18389 0.0
C1283 C 0.01904 0.7276 0.19862 0.0
C1284 C 0.01064 0.71009 0.212 0.0
C1285 C 0.99427 0.67987 0.21062 0.0
C1286 C 0.98649 0.66731 0.19546 0.0
H1287 H 0.36136 0.34347 0.13572 0.0
H1288 H 0.27107 0.30495 0.14764 0.0
H1289 H 0.28322 0.31232 0.17569 0.0
H1290 H 0.38037 0.31339 0.16828 0.0
H1291 H 0.41473 0.34493 0.17167 0.0
H1292 H 0.39936 0.3373 0.15221 0.0
H1293 H 0.40349 0.38734 0.15118 0.0
H1294 H 0.41893 0.39513 0.17062 0.0
H1295 H 0.38741 0.39769 0.16657 0.0
H1296 H 0.30418 0.32256 0.20247 0.0
H1297 H 0.33365 0.33626 0.22661 0.0
H1298 H 0.41051 0.36852 0.19801 0.0
C1299 C 0.34424 0.33674 0.14425 0.0
C1300 C 0.31527 0.3236 0.13941 0.0
C1301 C 0.29345 0.31501 0.15097 0.0
C1302 C 0.30008 0.3191 0.16699 0.0
C1303 C 0.32868 0.33187 0.1714 0.0
C1304 C 0.35049 0.34067 0.16044 0.0
C1305 C 0.37941 0.35366 0.16856 0.0
C1306 C 0.39434 0.33627 0.16497 0.0
C1307 C 0.39843 0.38534 0.16396 0.0
C1308 C 0.37028 0.35061 0.1857 0.0
C1309 C 0.3409 0.33797 0.18704 0.0
C1310 C 0.32726 0.33258 0.20162 0.0
C1311 C 0.34415 0.34039 0.21526 0.0
C1312 C 0.37433 0.35348 0.21422 0.0
C1313 C 0.38747 0.35861 0.19921 0.0
H1314 H 0.65276 0.70245 0.52535 0.0
H1315 H 0.69068 0.66347 0.55419 0.0
H1316 H 0.70552 0.64855 0.53005 0.0
H1317 H 0.62506 0.64899 0.49526 0.0
H1318 H 0.6327 0.67415 0.47946 0.0
H1319 H 0.62567 0.68228 0.49895 0.0
H1320 H 0.6742 0.72993 0.49871 0.0
H1321 H 0.6814 0.72197 0.4792 0.0
H1322 H 0.70678 0.72926 0.49484 0.0
H1323 H 0.71519 0.63711 0.50295 0.0
H1324 H 0.71946 0.62976 0.47475 0.0
H1325 H 0.67547 0.67656 0.46327 0.0
C1326 C 0.66425 0.69083 0.52662 0.0
C1327 C 0.67058 0.68408 0.54167 0.0
C1328 C 0.68564 0.66886 0.5428 0.0
C1329 C 0.69415 0.66033 0.52916 0.0
C1330 C 0.68749 0.66729 0.51452 0.0
C1331 C 0.67293 0.68223 0.51316 0.0
C1332 C 0.66818 0.68677 0.49604 0.0
C1333 C 0.63599 0.67217 0.49221 0.0
C1334 C 0.68356 0.71889 0.49196 0.0
C1335 C 0.68216 0.67181 0.48793 0.0
C1336 C 0.69318 0.6608 0.49885 0.0
C1337 C 0.70672 0.6457 0.49431 0.0
C1338 C 0.70898 0.64163 0.47822 0.0
C1339 C 0.6978 0.6526 0.46675 0.0
C1340 C 0.68433 0.66803 0.47172 0.0
H1341 H 0.41234 0.08588 0.48366 0.0
H1342 H 0.38371 0.00987 0.45471 0.0
H1343 H 0.37258 0.98028 0.47866 0.0
H1344 H 0.44488 0.06561 0.51456 0.0
H1345 H 0.43316 0.07987 0.53025 0.0
H1346 H 0.43944 0.09555 0.51089 0.0
H1347 H 0.38779 0.08738 0.51025 0.0
H1348 H 0.38141 0.07186 0.52965 0.0
H1349 H 0.3579 0.05189 0.51364 0.0
H1350 H 0.36519 0.95904 0.50524 0.0
H1351 H 0.35826 0.94606 0.53319 0.0
H1352 H 0.39016 0.03521 0.54579 0.0
C1353 C 0.40372 0.063 0.48238 0.0
C1354 C 0.39896 0.05017 0.46729 0.0
C1355 C 0.3875 0.02017 0.46611 0.0
C1356 C 0.38121 0.0032 0.47965 0.0
C1357 C 0.38634 0.0165 0.49431 0.0
C1358 C 0.39707 0.04564 0.49582 0.0
C1359 C 0.39975 0.05423 0.51306 0.0
C1360 C 0.43118 0.07505 0.51744 0.0
C1361 C 0.38056 0.0671 0.51687 0.0
C1362 C 0.3888 0.0253 0.52099 0.0
C1363 C 0.38146 0.00399 0.50986 0.0
C1364 C 0.37077 0.9755 0.51406 0.0
C1365 C 0.36695 0.96839 0.53004 0.0
C1366 C 0.37359 0.98958 0.54177 0.0
C1367 C 0.385 0.01854 0.53715 0.0
H1368 H 0.97709 0.35174 0.48119 0.0
H1369 H 0.05281 0.3889 0.45144 0.0
H1370 H 0.08347 0.40673 0.47504 0.0
H1371 H 0.00336 0.40847 0.50939 0.0
H1372 H 0.98729 0.38536 0.52615 0.0
H1373 H 0.97099 0.37438 0.50702 0.0
H1374 H 0.97328 0.32755 0.50913 0.0
H1375 H 0.98944 0.33831 0.52832 0.0
H1376 H 0.00715 0.32959 0.51308 0.0
H1377 H 0.10578 0.4221 0.50134 0.0
H1378 H 0.11928 0.43297 0.5291 0.0
H1379 H 0.02946 0.38568 0.54262 0.0
C1380 C 0.00014 0.3634 0.47965 0.0
C1381 C 0.01259 0.36889 0.46444 0.0
C1382 C 0.0428 0.38438 0.46294 0.0
C1383 C 0.06039 0.39462 0.47628 0.0
C1384 C 0.04745 0.38915 0.49106 0.0
C1385 C 0.01806 0.37379 0.49288 0.0
C1386 C 0.00979 0.37134 0.51016 0.0
C1387 C 0.99179 0.38575 0.51336 0.0
C1388 C 0.99398 0.33982 0.51548 0.0
C1389 C 0.03918 0.38791 0.51775 0.0
C1390 C 0.06049 0.39796 0.50643 0.0
C1391 C 0.08933 0.41424 0.51032 0.0
C1392 C 0.09673 0.42035 0.52618 0.0
C1393 C 0.07544 0.41018 0.53812 0.0
C1394 C 0.04622 0.39371 0.5338 0.0
H1395 H 0.36077 0.41517 0.53198 0.0
H1396 H 0.38755 0.36592 0.56067 0.0
H1397 H 0.39856 0.3476 0.53662 0.0
H1398 H 0.32773 0.36271 0.50073 0.0
H1399 H 0.33988 0.38913 0.48525 0.0
H1400 H 0.33341 0.39809 0.50468 0.0
H1401 H 0.38521 0.44126 0.50563 0.0
H1402 H 0.39182 0.43248 0.48619 0.0
H1403 H 0.41497 0.43541 0.50228 0.0
H1404 H 0.40742 0.33529 0.50999 0.0
H1405 H 0.41478 0.32998 0.48198 0.0
H1406 H 0.38245 0.38705 0.46976 0.0
C1407 C 0.36887 0.40045 0.53319 0.0
C1408 C 0.37327 0.39191 0.54822 0.0
C1409 C 0.38401 0.37275 0.54931 0.0
C1410 C 0.39027 0.36219 0.53572 0.0
C1411 C 0.38569 0.371 0.52111 0.0
C1412 C 0.3753 0.38972 0.51971 0.0
C1413 C 0.37295 0.39613 0.50252 0.0
C1414 C 0.34163 0.3859 0.49804 0.0
C1415 C 0.3924 0.42823 0.49895 0.0
C1416 C 0.3838 0.37817 0.4945 0.0
C1417 C 0.39091 0.36385 0.50553 0.0
C1418 C 0.4019 0.34634 0.50123 0.0
C1419 C 0.40603 0.34353 0.48524 0.0
C1420 C 0.39923 0.35812 0.47363 0.0
C1421 C 0.38769 0.3755 0.47834 0.0
H1422 H 0.63555 0.97308 0.52649 0.0
H1423 H 0.67141 0.04934 0.55578 0.0
H1424 H 0.6894 0.07959 0.53191 0.0
H1425 H 0.69312 0.99918 0.49899 0.0
H1426 H 0.67051 0.98222 0.48217 0.0
H1427 H 0.65927 0.96656 0.50142 0.0
H1428 H 0.61203 0.96785 0.4985 0.0
H1429 H 0.62302 0.98335 0.47918 0.0
H1430 H 0.61355 0.0013 0.49391 0.0
H1431 H 0.70436 0.1013 0.50506 0.0
H1432 H 0.71494 0.11356 0.47706 0.0
H1433 H 0.67 0.02305 0.46497 0.0
C1434 C 0.64691 0.99616 0.5279 0.0
C1435 C 0.65195 0.00889 0.54302 0.0
C1436 C 0.66719 0.03914 0.54434 0.0
C1437 C 0.67751 0.05647 0.53085 0.0
C1438 C 0.67247 0.04318 0.51616 0.0
C1439 C 0.65748 0.01372 0.51459 0.0
C1440 C 0.65555 0.00483 0.49747 0.0
C1441 C 0.67051 0.98716 0.49487 0.0
C1442 C 0.62417 0.98836 0.49194 0.0
C1443 C 0.67188 0.03393 0.48961 0.0
C1444 C 0.68138 0.05571 0.50064 0.0
C1445 C 0.69698 0.08444 0.49633 0.0
C1446 C 0.70289 0.09114 0.48035 0.0
C1447 C 0.69331 0.06927 0.46877 0.0
C1448 C 0.67768 0.04024 0.47352 0.0
H1449 H 0.02789 0.67259 0.466 0.0
H1450 H 0.93738 0.62929 0.47804 0.0
H1451 H 0.94959 0.63765 0.50608 0.0
H1452 H 0.04964 0.6451 0.49849 0.0
H1453 H 0.08304 0.67781 0.50179 0.0
H1454 H 0.06755 0.66936 0.48238 0.0
H1455 H 0.06852 0.71795 0.48132 0.0
H1456 H 0.0841 0.72659 0.50072 0.0
H1457 H 0.05141 0.72699 0.49675 0.0
H1458 H 0.97081 0.64939 0.53286 0.0
H1459 H 0.00053 0.66477 0.55692 0.0
H1460 H 0.0774 0.70045 0.52812 0.0
C1461 C 0.01072 0.66507 0.47455 0.0
C1462 C 0.98169 0.65026 0.46977 0.0
C1463 C 0.95981 0.64062 0.48135 0.0
C1464 C 0.96647 0.64527 0.49736 0.0
C1465 C 0.99517 0.65963 0.50172 0.0
C1466 C 0.017 0.66948 0.49072 0.0
C1467 C 0.04605 0.68394 0.49877 0.0
C1468 C 0.06253 0.6681 0.49514 0.0
C1469 C 0.06355 0.71576 0.49411 0.0
C1470 C 0.03697 0.68049 0.51592 0.0
C1471 C 0.00751 0.66643 0.51733 0.0
C1472 C 0.99394 0.66051 0.53194 0.0
C1473 C 0.01098 0.66928 0.54554 0.0
C1474 C 0.04124 0.68379 0.54442 0.0
C1475 C 0.05431 0.68941 0.52938 0.0
H1476 H 0.98502 0.28798 0.03812 0.0
H1477 H 0.07115 0.35922 0.04333 0.0
H1478 H 0.07028 0.37386 0.01584 0.0
H1479 H 0.99505 0.26642 1.00431 0.0
H1480 H 0.96061 0.25519 0.99545 0.0
H1481 H 0.96393 0.25634 0.01643 0.0
H1482 H 0.94283 0.29022 0.01816 0.0
H1483 H 0.93914 0.28897 0.99703 0.0
H1484 H 0.95883 0.32302 0.00693 0.0
H1485 H 0.06515 0.37246 0.98642 0.0
H1486 H 0.05625 0.3549 0.95889 0.0
H1487 H 0.97312 0.28501 0.97263 0.0
C1488 C 0.00281 0.30779 0.03373 0.0
C1489 C 0.02768 0.32319 0.04292 0.0
C1490 C 0.05149 0.3479 0.0366 0.0
C1491 C 0.05118 0.35625 0.02096 0.0
C1492 C 0.02684 0.33966 0.0118 0.0
C1493 C 0.00281 0.31617 0.01809 0.0
C1494 C 0.98155 0.29877 0.00533 0.0
C1495 C 0.97495 0.26737 0.00539 0.0
C1496 C 0.95395 0.30036 0.00696 0.0
C1497 C 0.99824 0.31471 0.99081 0.0
C1498 C 0.02397 0.33874 0.99471 0.0
C1499 C 0.04465 0.35428 0.98322 0.0
C1500 C 0.03942 0.34429 0.96756 0.0
C1501 C 0.0139 0.31879 0.96364 0.0
C1502 C 0.99261 0.30487 0.97529 0.0
H1503 H 0.73298 0.77021 0.96536 0.0
H1504 H 0.74404 0.69611 0.96429 0.0
H1505 H 0.72622 0.68437 0.99168 0.0
H1506 H 0.76383 0.79373 0.99914 0.0
H1507 H 0.74206 0.80785 0.00666 0.0
H1508 H 0.74478 0.80449 0.98585 0.0
H1509 H 0.6896 0.77321 0.9836 0.0
H1510 H 0.68654 0.77688 1.00451 0.0
H1511 H 0.67064 0.74172 0.99574 0.0
H1512 H 0.71917 0.6878 0.02066 0.0
H1513 H 0.72528 0.70665 0.0478 0.0
H1514 H 0.72156 0.78031 0.03027 0.0
C1515 C 0.72961 0.7504 0.97059 0.0
C1516 C 0.73859 0.73331 0.9626 0.0
C1517 C 0.73602 0.70867 0.97004 0.0
C1518 C 0.72609 0.70201 0.98564 0.0
C1519 C 0.71902 0.72036 0.99362 0.0
C1520 C 0.72035 0.74395 0.98622 0.0
C1521 C 0.71746 0.76355 0.99796 0.0
C1522 C 0.74359 0.79417 0.99737 0.0
C1523 C 0.68938 0.76384 0.99529 0.0
C1524 C 0.71645 0.74856 0.01322 0.0
C1525 C 0.71631 0.72314 0.01051 0.0
C1526 C 0.71852 0.70726 0.0229 0.0
C1527 C 0.72194 0.7181 0.03831 0.0
C1528 C 0.72381 0.7449 0.04114 0.0
C1529 C 0.71992 0.75962 0.02847 0.0
H1530 H 0.32782 0.08287 0.97451 0.0
H1531 H 0.33306 0.00797 0.96131 0.0
H1532 H 0.34256 0.00154 0.98914 0.0
H1533 H 0.38076 0.10683 0.00913 0.0
H1534 H 0.3588 0.11744 0.01999 0.0
H1535 H 0.36103 0.12076 0.99884 0.0
H1536 H 0.30567 0.09024 0.997 0.0
H1537 H 0.30328 0.08678 0.01799 0.0
H1538 H 0.28754 0.05507 0.00584 0.0
H1539 H 0.33894 0.99648 0.01889 0.0
H1540 H 0.32286 0.99364 0.04653 0.0
H1541 H 0.3204 0.072 0.04009 0.0
C1542 C 0.3323 0.06589 0.97739 0.0
C1543 C 0.32997 0.04606 0.96578 0.0
C1544 C 0.33533 0.02373 0.96997 0.0
C1545 C 0.34065 0.01991 0.98579 0.0
C1546 C 0.3411 0.03894 0.99716 0.0
C1547 C 0.3376 0.06188 0.99302 0.0
C1548 C 0.33453 0.07679 0.00738 0.0
C1549 C 0.36032 0.10726 0.00893 0.0
C1550 C 0.30607 0.07719 0.00702 0.0
C1551 C 0.3347 0.05749 0.02028 0.0
C1552 C 0.33931 0.0362 0.01428 0.0
C1553 C 0.33638 0.01365 0.02377 0.0
C1554 C 0.32745 0.01225 0.0395 0.0
C1555 C 0.32141 0.03317 0.04549 0.0
C1556 C 0.32613 0.0565 0.03592 0.0
H1557 H 0.06492 0.76459 0.97049 0.0
H1558 H 0.97639 0.6976 0.96685 0.0
H1559 H 0.97672 0.68536 0.99494 0.0
H1560 H 0.08799 0.72999 1.00323 0.0
H1561 H 0.10981 0.76476 0.01207 0.0
H1562 H 0.10553 0.7615 0.99098 0.0
H1563 H 0.08788 0.79833 0.99114 0.0
H1564 H 0.09197 0.8016 0.01207 0.0
H1565 H 0.05773 0.79166 1.00333 0.0
H1566 H 0.983 0.68889 0.02427 0.0
H1567 H 0.99358 0.70935 0.05117 0.0
H1568 H 0.07791 0.77452 0.03585 0.0
C1569 C 0.04626 0.74618 0.97545 0.0
C1570 C 0.02098 0.73127 0.96653 0.0
C1571 C 0.99623 0.70847 0.97345 0.0
C1572 C 0.99628 0.70148 0.9894 0.0
C1573 C 0.02127 0.71754 0.9982 0.0
C1574 C 0.04598 0.73928 0.99136 0.0
C1575 C 0.06813 0.75703 1.00366 0.0
C1576 C 0.09442 0.75307 1.00241 0.0
C1577 C 0.07688 0.789 1.00248 0.0
C1578 C 0.05135 0.74338 0.01854 0.0
C1579 C 0.02473 0.72 0.01524 0.0
C1580 C 0.0041 0.70657 0.02703 0.0
C1581 C 0.01031 0.71817 0.04233 0.0
C1582 C 0.03669 0.74322 0.04555 0.0
C1583 C 0.05785 0.75493 0.03371 0.0
H1584 H 0.3143 0.27864 0.04388 0.0
H1585 H 0.31896 0.36098 0.04663 0.0
H1586 H 0.33291 0.36977 0.01851 0.0
H1587 H 0.37123 0.29754 0.01114 0.0
H1588 H 0.34952 0.26238 1.00271 0.0
H1589 H 0.35003 0.26722 0.02374 0.0
H1590 H 0.2947 0.24347 0.02358 0.0
H1591 H 0.29395 0.23909 1.00266 0.0
H1592 H 0.27801 0.25839 0.01134 0.0
H1593 H 0.33438 0.36403 0.989 0.0
H1594 H 0.32298 0.34447 0.96188 0.0
H1595 H 0.31522 0.26485 0.97857 0.0
C1596 C 0.32023 0.29931 0.03876 0.0
C1597 C 0.3167 0.31962 0.04745 0.0
C1598 C 0.32275 0.34574 0.04028 0.0
C1599 C 0.33047 0.35075 0.02427 0.0
C1600 C 0.33205 0.3294 0.01568 0.0
C1601 C 0.32753 0.30432 0.02282 0.0
C1602 C 0.3251 0.28249 0.01078 0.0
C1603 C 0.35049 0.2771 0.01218 0.0
C1604 C 0.29623 0.25424 0.01218 0.0
C1605 C 0.32686 0.29825 0.99572 0.0
C1606 C 0.33179 0.32562 0.99868 0.0
C1607 C 0.33126 0.34292 0.98655 0.0
C1608 C 0.32478 0.33168 0.97117 0.0
C1609 C 0.31826 0.30318 0.96816 0.0
C1610 C 0.32031 0.28679 0.98053 0.0
H1611 H 0.73499 0.99583 0.96763 0.0
H1612 H 0.7382 0.07759 0.96652 0.0
H1613 H 0.72599 0.07291 0.99486 0.0
H1614 H 0.67981 0.96087 1.0015 0.0
H1615 H 0.69995 0.94493 0.00903 0.0
H1616 H 0.69835 0.94971 0.98811 0.0
H1617 H 0.75381 0.97772 0.98714 0.0
H1618 H 0.75572 0.9738 0.00798 0.0
H1619 H 0.77331 0.0091 0.99932 0.0
H1620 H 0.72534 0.06493 0.02413 0.0
H1621 H 0.73626 0.05468 0.05086 0.0
H1622 H 0.73664 0.97951 0.03285 0.0
C1623 C 0.73096 0.01162 0.97316 0.0
C1624 C 0.73619 0.03642 0.96484 0.0
C1625 C 0.73295 0.05786 0.97259 0.0
C1626 C 0.72628 0.05543 0.98873 0.0
C1627 C 0.72313 0.03151 0.99692 0.0
C1628 C 0.72498 0.00972 0.9893 0.0
C1629 C 0.72647 0.98921 1.00096 0.0
C1630 C 0.69953 0.95941 0.99984 0.0
C1631 C 0.75395 0.9874 0.99871 0.0
C1632 C 0.72708 0.00379 0.0163 0.0
C1633 C 0.72424 0.02763 0.01383 0.0
C1634 C 0.72689 0.04591 0.02621 0.0
C1635 C 0.73314 0.03996 0.04137 0.0
C1636 C 0.73734 0.01632 0.04394 0.0
C1637 C 0.73345 0.99769 0.03127 0.0
H1638 H 0.72738 0.66938 0.29972 0.0
H1639 H 0.64053 0.65349 0.298 0.0
H1640 H 0.64379 0.66756 0.32594 0.0
H1641 H 0.71945 0.63441 0.33168 0.0
H1642 H 0.75435 0.65636 0.34034 0.0
H1643 H 0.75001 0.65693 0.3195 0.0
H1644 H 0.77117 0.71195 0.32016 0.0
H1645 H 0.77601 0.71167 0.34116 0.0
H1646 H 0.75594 0.72732 0.33314 0.0
H1647 H 0.65122 0.66933 0.35507 0.0
H1648 H 0.66133 0.65711 0.38152 0.0
H1649 H 0.74267 0.66979 0.3647 0.0
C1650 C 0.70996 0.67107 0.30499 0.0
C1651 C 0.68419 0.66163 0.29662 0.0
C1652 C 0.66086 0.6619 0.30407 0.0
C1653 C 0.66253 0.66969 0.32 0.0
C1654 C 0.68765 0.677 0.32833 0.0
C1655 C 0.71118 0.67814 0.32096 0.0
C1656 C 0.7331 0.68028 0.33289 0.0
C1657 C 0.73954 0.65552 0.33099 0.0
C1658 C 0.76069 0.70956 0.33177 0.0
C1659 C 0.71728 0.67774 0.34808 0.0
C1660 C 0.69159 0.67699 0.34532 0.0
C1661 C 0.67168 0.67083 0.35742 0.0
C1662 C 0.6776 0.66404 0.37246 0.0
C1663 C 0.70292 0.6629 0.37512 0.0
C1664 C 0.72345 0.67116 0.36298 0.0
H1665 H 0.45614 0.08941 0.37386 0.0
H1666 H 0.37139 0.07826 0.37963 0.0
H1667 H 0.36156 0.06624 0.35123 0.0
H1668 H 0.47219 0.12661 0.34076 0.0
H1669 H 0.49233 0.11207 0.33152 0.0
H1670 H 0.48958 0.11186 0.35256 0.0
H1671 H 0.4688 0.05684 0.35306 0.0
H1672 H 0.47184 0.05686 0.33192 0.0
H1673 H 0.43781 0.03397 0.34127 0.0
H1674 H 0.3654 0.06537 0.32118 0.0
H1675 H 0.38236 0.07577 0.29349 0.0
H1676 H 0.46476 0.0879 0.30812 0.0
C1677 C 0.435 0.08297 0.36925 0.0
C1678 C 0.41423 0.08399 0.37885 0.0
C1679 C 0.38719 0.07669 0.37246 0.0
C1680 C 0.38155 0.06999 0.35634 0.0
C1681 C 0.40311 0.07043 0.34694 0.0
C1682 C 0.42917 0.07629 0.35331 0.0
C1683 C 0.45036 0.07952 0.34068 0.0
C1684 C 0.47769 0.10927 0.34143 0.0
C1685 C 0.45762 0.05535 0.3418 0.0
C1686 C 0.4329 0.07633 0.32613 0.0
C1687 C 0.40546 0.0704 0.32984 0.0
C1688 C 0.3866 0.06934 0.31817 0.0
C1689 C 0.39635 0.07521 0.30247 0.0
C1690 C 0.42483 0.0826 0.29871 0.0
C1691 C 0.44281 0.08217 0.31065 0.0
H1692 H 0.96246 0.3927 0.37191 0.0
H1693 H 0.98645 0.32755 0.37742 0.0
H1694 H -0.00116 0.33166 0.34897 0.0
H1695 H 0.92701 0.3691 0.33792 0.0
H1696 H 0.93795 0.40369 0.32932 0.0
H1697 H 0.93722 0.39992 0.35032 0.0
H1698 H 0.99073 0.43942 0.35197 0.0
H1699 H 0.9916 0.44355 0.33089 0.0
H1700 H 0.01701 0.43603 0.34045 0.0
H1701 H -0.00036 0.3371 0.31872 0.0
H1702 H 0.98978 0.34392 0.29094 0.0
H1703 H 0.96648 0.40635 0.30631 0.0
C1704 C 0.97144 0.38015 0.36722 0.0
C1705 C 0.97391 0.36012 0.37677 0.0
C1706 C 0.98503 0.34347 0.37028 0.0
C1707 C 0.99198 0.34562 0.35414 0.0
C1708 C 0.98819 0.36493 0.34483 0.0
C1709 C 0.97868 0.3823 0.35131 0.0
C1710 C 0.97341 0.39914 0.33884 0.0
C1711 C 0.94205 0.39254 0.33912 0.0
C1712 C 0.99445 0.43145 0.34065 0.0
C1713 C 0.97981 0.38744 0.3242 0.0
C1714 C 0.98881 0.3681 0.32774 0.0
C1715 C 0.99325 0.35271 0.31587 0.0
C1716 C 0.98767 0.35672 0.30011 0.0
C1717 C 0.97736 0.37565 0.29647 0.0
C1718 C 0.9744 0.39176 0.30869 0.0
H1719 H 0.66184 0.05311 0.37434 0.0
H1720 H 0.74946 0.07134 0.37619 0.0
H1721 H 0.7463 0.05627 0.34842 0.0
H1722 H 0.63409 0.99375 0.34188 0.0
H1723 H 0.61319 0.00819 0.3335 0.0
H1724 H 0.61848 0.00922 0.35451 0.0
H1725 H 0.63849 0.06409 0.35422 0.0
H1726 H 0.63368 0.06335 0.33335 0.0
H1727 H 0.66861 0.08641 0.34172 0.0
H1728 H 0.73828 0.05267 0.31923 0.0
H1729 H 0.72709 0.06271 0.29249 0.0
H1730 H 0.64529 0.04884 0.30927 0.0
C1731 C 0.67952 0.05177 0.36917 0.0
C1732 C 0.70543 0.06208 0.37753 0.0
C1733 C 0.72904 0.06223 0.37016 0.0
C1734 C 0.72742 0.05389 0.35433 0.0
C1735 C 0.70207 0.04561 0.34599 0.0
C1736 C 0.67833 0.04413 0.35329 0.0
C1737 C 0.65597 0.04075 0.34132 0.0
C1738 C 0.62883 0.01121 0.3429 0.0
C1739 C 0.64883 0.0651 0.34274 0.0
C1740 C 0.67165 0.04283 0.32614 0.0
C1741 C 0.69777 0.04455 0.32899 0.0
C1742 C 0.71751 0.05042 0.31684 0.0
C1743 C 0.71095 0.05593 0.30163 0.0
C1744 C 0.68515 0.05609 0.29883 0.0
C1745 C 0.66485 0.04814 0.31108 0.0
H1746 H 0.94844 0.66097 0.36864 0.0
H1747 H 0.01652 0.64534 0.38291 0.0
H1748 H 0.03502 0.65421 0.35556 0.0
H1749 H 0.93022 0.62214 0.33698 0.0
H1750 H 0.92164 0.64397 0.32455 0.0
H1751 H 0.91979 0.64627 0.3455 0.0
H1752 H 0.95519 0.70099 0.34452 0.0
H1753 H 0.95687 0.69899 0.32338 0.0
H1754 H 0.98936 0.71449 0.33486 0.0
H1755 H 0.03703 0.65069 0.32609 0.0
H1756 H 0.02375 0.63757 0.29813 0.0
H1757 H 0.95467 0.65597 0.30302 0.0
C1758 C 0.96825 0.66112 0.36613 0.0
C1759 C 0.98141 0.653 0.37783 0.0
C1760 C 0.00665 0.65231 0.37417 0.0
C1761 C 0.01715 0.65716 0.35862 0.0
C1762 C 0.0024 0.66315 0.34703 0.0
C1763 C 0.97881 0.66583 0.35074 0.0
C1764 C 0.96373 0.66756 0.33608 0.0
C1765 C 0.93201 0.64355 0.33577 0.0
C1766 C 0.96647 0.69728 0.33463 0.0
C1767 C 0.98108 0.6632 0.32351 0.0
C1768 C 0.00378 0.66143 0.32996 0.0
C1769 C 0.0201 0.65321 0.32085 0.0
C1770 C 0.01251 0.64587 0.30498 0.0
C1771 C 0.9889 0.64685 0.29843 0.0
C1772 C 0.97361 0.65639 0.30768 0.0
H1773 H 0.44155 0.40101 0.37773 0.0
H1774 H 0.36131 0.32132 0.38147 0.0
H1775 H 0.35093 0.32534 0.35345 0.0
H1776 H 0.41883 0.43655 0.34555 0.0
H1777 H 0.45376 0.45136 0.33662 0.0
H1778 H 0.44999 0.44705 0.35769 0.0
H1779 H 0.47594 0.4175 0.3569 0.0
H1780 H 0.47926 0.4211 0.33592 0.0
H1781 H 0.46173 0.38589 0.34469 0.0
H1782 H 0.35512 0.33239 0.32383 0.0
H1783 H 0.37324 0.34145 0.29641 0.0
H1784 H 0.45184 0.4156 0.31224 0.0
C1785 C 0.42095 0.38549 0.37286 0.0
C1786 C 0.4017 0.36146 0.38179 0.0
C1787 C 0.37571 0.34047 0.37493 0.0
C1788 C 0.36981 0.34254 0.35898 0.0
C1789 C 0.39015 0.36576 0.35015 0.0
C1790 C 0.41505 0.38716 0.35699 0.0
C1791 C 0.43585 0.40707 0.34471 0.0
C1792 C 0.43983 0.4373 0.34623 0.0
C1793 C 0.46487 0.40789 0.34562 0.0
C1794 C 0.41973 0.39252 0.32983 0.0
C1795 C 0.39306 0.36924 0.33311 0.0
C1796 C 0.37566 0.35099 0.32115 0.0
C1797 C 0.3861 0.35628 0.30559 0.0
C1798 C 0.41393 0.37924 0.30221 0.0
C1799 C 0.43041 0.39797 0.31446 0.0
H1800 H 0.41108 0.00057 0.69876 0.0
H1801 H 0.33044 0.98616 0.71791 0.0
H1802 H 0.31687 0.99552 0.69166 0.0
H1803 H 0.41936 0.05544 0.66692 0.0
H1804 H 0.43428 0.04034 0.65354 0.0
H1805 H 0.44092 0.04104 0.67439 0.0
H1806 H 0.42092 0.98614 0.67402 0.0
H1807 H 0.41423 0.98528 0.65332 0.0
H1808 H 0.38533 0.96288 0.66648 0.0
H1809 H 0.3067 0.99222 0.66271 0.0
H1810 H 0.30193 0.97854 0.63463 0.0
H1811 H 0.39001 0.99779 0.63396 0.0
C1812 C 0.39115 0.00076 0.69757 0.0
C1813 C 0.37189 0.99287 0.71037 0.0
C1814 C 0.34574 0.99271 0.70835 0.0
C1815 C 0.33786 0.99792 0.69343 0.0
C1816 C 0.35666 0.00392 0.68077 0.0
C1817 C 0.38314 0.00604 0.68282 0.0
C1818 C 0.39772 0.00845 0.66716 0.0
C1819 C 0.42467 0.03809 0.6654 0.0
C1820 C 0.40492 0.98424 0.66514 0.0
C1821 C 0.37445 0.00509 0.65588 0.0
C1822 C 0.35114 0.00314 0.66392 0.0
C1823 C 0.32524 0.995 0.65624 0.0
C1824 C 0.32272 0.98745 0.64024 0.0
C1825 C 0.34602 0.9884 0.63202 0.0
C1826 C 0.37249 0.99855 0.63979 0.0
H1827 H 0.10654 0.40587 0.70529 0.0
H1828 H 0.04019 0.42856 0.70828 0.0
H1829 H 0.02638 0.41324 0.68067 0.0
H1830 H 0.13153 0.43635 0.6707 0.0
H1831 H 0.14058 0.4107 0.66294 0.0
H1832 H 0.13902 0.41453 0.6838 0.0
H1833 H 0.10218 0.36027 0.68621 0.0
H1834 H 0.10358 0.35633 0.6652 0.0
H1835 H 0.06966 0.34491 0.67475 0.0
H1836 H 0.02715 0.4062 0.65162 0.0
H1837 H 0.0451 0.41215 0.62427 0.0
H1838 H 0.11141 0.39469 0.63977 0.0
C1839 C 0.0881 0.40602 0.70031 0.0
C1840 C 0.07372 0.41739 0.70893 0.0
C1841 C 0.0508 0.41904 0.70191 0.0
C1842 C 0.04282 0.41034 0.68625 0.0
C1843 C 0.0581 0.40015 0.67775 0.0
C1844 C 0.08023 0.39781 0.6846 0.0
C1845 C 0.09679 0.39154 0.67235 0.0
C1846 C 0.12884 0.41466 0.67246 0.0
C1847 C 0.0928 0.36146 0.67478 0.0
C1848 C 0.08194 0.39276 0.65746 0.0
C1849 C 0.05901 0.39672 0.66079 0.0
C1850 C 0.0445 0.40225 0.64886 0.0
C1851 C 0.05465 0.40538 0.6333 0.0
C1852 C 0.07934 0.40346 0.62994 0.0
C1853 C 0.09205 0.39555 0.64203 0.0
H1854 H 0.63655 0.72656 0.70509 0.0
H1855 H 0.65378 0.65653 0.70955 0.0
H1856 H 0.66715 0.66145 0.68123 0.0
H1857 H 0.60247 0.7074 0.67029 0.0
H1858 H 0.61644 0.74303 0.66241 0.0
H1859 H 0.61415 0.73767 0.68332 0.0
H1860 H 0.6685 0.77396 0.68608 0.0
H1861 H 0.67094 0.77965 0.66509 0.0
H1862 H 0.69392 0.7689 0.67473 0.0
H1863 H 0.67033 0.66919 0.65129 0.0
H1864 H 0.6634 0.67898 0.62358 0.0
H1865 H 0.64524 0.74477 0.63959 0.0
C1866 C 0.64426 0.71306 0.7002 0.0
C1867 C 0.6447 0.69155 0.7094 0.0
C1868 C 0.65399 0.67357 0.70266 0.0
C1869 C 0.66153 0.67621 0.68661 0.0
C1870 C 0.66002 0.69723 0.67764 0.0
C1871 C 0.65206 0.71566 0.68434 0.0
C1872 C 0.64924 0.73449 0.67212 0.0
C1873 C 0.61878 0.73037 0.67203 0.0
C1874 C 0.67201 0.76613 0.67466 0.0
C1875 C 0.65521 0.72277 0.65733 0.0
C1876 C 0.66193 0.70167 0.66065 0.0
C1877 C 0.6657 0.68613 0.64861 0.0
C1878 C 0.66179 0.69186 0.63289 0.0
C1879 C 0.6538 0.71266 0.62939 0.0
C1880 C 0.65146 0.72881 0.64182 0.0
H1881 H 0.32751 0.41301 0.71143 0.0
H1882 H 0.40621 0.41081 0.71646 0.0
H1883 H 0.40306 0.39619 0.68855 0.0
H1884 H 0.29262 0.35464 0.67905 0.0
H1885 H 0.27869 0.3752 0.66968 0.0
H1886 H 0.28193 0.37558 0.69083 0.0
H1887 H 0.31215 0.43103 0.69019 0.0
H1888 H 0.30949 0.43089 0.66918 0.0
H1889 H 0.3443 0.4481 0.67841 0.0
H1890 H 0.39764 0.39383 0.65897 0.0
H1891 H 0.39083 0.40448 0.6314 0.0
H1892 H 0.31645 0.40973 0.64581 0.0
C1893 C 0.34294 0.40752 0.70686 0.0
C1894 C 0.36646 0.41187 0.71611 0.0
C1895 C 0.38744 0.4064 0.70964 0.0
C1896 C 0.38585 0.39826 0.69377 0.0
C1897 C 0.36312 0.39568 0.6846 0.0
C1898 C 0.34173 0.39972 0.69104 0.0
C1899 C 0.32261 0.40101 0.6784 0.0
C1900 C 0.29216 0.37505 0.67956 0.0
C1901 C 0.32216 0.42944 0.67909 0.0
C1902 C 0.33774 0.39925 0.66381 0.0
C1903 C 0.3605 0.39525 0.66752 0.0
C1904 C 0.3794 0.39618 0.65592 0.0
C1905 C 0.3754 0.4022 0.64029 0.0
C1906 C 0.35309 0.40784 0.63655 0.0
C1907 C 0.33355 0.40526 0.64838 0.0
H1908 H 0.63668 0.93338 0.7053 0.0
H1909 H 0.64813 0.0185 0.70988 0.0
H1910 H 0.66109 0.02761 0.68155 0.0
H1911 H 0.69439 0.95185 0.67425 0.0
H1912 H 0.67266 0.91773 0.66473 0.0
H1913 H 0.67071 0.92079 0.68577 0.0
H1914 H 0.61574 0.89957 0.68369 0.0
H1915 H 0.61751 0.89667 0.66274 0.0
H1916 H 0.60185 0.91658 0.67095 0.0
H1917 H 0.66346 0.02328 0.65173 0.0
H1918 H 0.65545 0.00635 0.6241 0.0
H1919 H 0.64384 0.92446 0.63966 0.0
C1920 C 0.6432 0.95437 0.70044 0.0
C1921 C 0.64209 0.9755 0.70968 0.0
C1922 C 0.64965 0.00239 0.70297 0.0
C1923 C 0.65693 0.00765 0.68691 0.0
C1924 C 0.65692 0.98591 0.67789 0.0
C1925 C 0.65072 0.95995 0.68456 0.0
C1926 C 0.64886 0.93883 0.67223 0.0
C1927 C 0.67311 0.9319 0.67437 0.0
C1928 C 0.61924 0.91133 0.67242 0.0
C1929 C 0.65321 0.9562 0.65745 0.0
C1930 C 0.65841 0.98351 0.66087 0.0
C1931 C 0.66011 0.0022 0.64895 0.0
C1932 C 0.65559 0.99243 0.63326 0.0
C1933 C 0.64908 0.96408 0.62967 0.0
C1934 C 0.64898 0.94632 0.64195 0.0
H1935 H 0.10571 0.7321 0.70802 0.0
H1936 H 0.02594 0.65164 0.70999 0.0
H1937 H 0.01604 0.65784 0.68222 0.0
H1938 H 0.08329 0.76978 0.6769 0.0
H1939 H 0.11841 0.78547 0.66811 0.0
H1940 H 0.11425 0.77958 0.68908 0.0
H1941 H 0.14053 0.75041 0.68737 0.0
H1942 H 0.14431 0.75566 0.66649 0.0
H1943 H 0.12681 0.71981 0.67442 0.0
H1944 H 0.02071 0.66708 0.65298 0.0
H1945 H 0.03952 0.6778 0.62576 0.0
H1946 H 0.11736 0.75144 0.64284 0.0
C1947 C 0.08528 0.71687 0.70285 0.0
C1948 C 0.06598 0.69204 0.71121 0.0
C1949 C 0.04033 0.67138 0.70391 0.0
C1950 C 0.03469 0.6747 0.68811 0.0
C1951 C 0.05501 0.69877 0.67983 0.0
C1952 C 0.07968 0.71975 0.68707 0.0
C1953 C 0.10063 0.74065 0.67517 0.0
C1954 C 0.10435 0.77065 0.67745 0.0
C1955 C 0.12975 0.74164 0.67591 0.0
C1956 C 0.08487 0.72715 0.66002 0.0
C1957 C 0.05822 0.70353 0.66289 0.0
C1958 C 0.04121 0.68596 0.65062 0.0
C1959 C 0.05205 0.69221 0.63517 0.0
C1960 C 0.0799 0.71548 0.63217 0.0
C1961 C 0.09591 0.73362 0.64474 0.0
H1962 H 0.82977 0.11323 0.08769 0.0
H1963 H 0.86 0.0599 0.1089 0.0
H1964 H 0.90722 0.10258 0.11357 0.0
H1965 H 0.89113 0.15562 0.06656 0.0
H1966 H 0.89121 0.18897 0.06874 0.0
H1967 H 0.85798 0.15551 0.06983 0.0
H1968 H 0.84777 0.16938 0.09727 0.0
H1969 H 0.88098 0.20306 0.09624 0.0
H1970 H 0.87403 0.17936 0.11272 0.0
H1971 H 0.95238 0.1481 0.11208 0.0
H1972 H 0.99361 0.19498 0.1048 0.0
H1973 H 0.93592 0.22076 0.08473 0.0
C1974 C 0.8461 0.11085 0.09383 0.0
C1975 C 0.84128 0.08341 0.09812 0.0
C1976 C 0.86333 0.0808 0.10561 0.0
C1977 C 0.89015 0.10492 0.10838 0.0
C1978 C 0.89467 0.13158 0.10356 0.0
C1979 C 0.87331 0.13486 0.09651 0.0
C1980 C 0.88505 0.1655 0.09083 0.0
C1981 C 0.88111 0.16643 0.07293 0.0
C1982 C 0.87113 0.18019 0.0998 0.0
C1983 C 0.91649 0.17846 0.09519 0.0
C1984 C 0.92133 0.1585 0.10273 0.0
C1985 C 0.94883 0.16416 0.10654 0.0
C1986 C 0.9721 0.19075 0.10231 0.0
C1987 C 0.96776 0.21143 0.09447 0.0
C1988 C 0.9396 0.2055 0.09114 0.0
H1989 H 0.95973 0.80591 0.07219 0.0
H1990 H 0.94562 0.74044 0.10659 0.0
H1991 H 0.89563 0.73021 0.11016 0.0
H1992 H 0.92051 0.83343 0.09141 0.0
H1993 H 0.90676 0.83965 0.07339 0.0
H1994 H 0.94071 0.84073 0.0734 0.0
H1995 H 0.92253 0.80213 0.05142 0.0
H1996 H 0.88849 0.80092 0.05134 0.0
H1997 H 0.88989 0.7685 0.0544 0.0
H1998 H 0.84662 0.72811 0.1099 0.0
H1999 H 0.80474 0.735 0.10621 0.0
H2000 H 0.85326 0.80223 0.07216 0.0
C2001 C 0.9463 0.78937 0.08051 0.0
C2002 C 0.95674 0.77404 0.08915 0.0
C2003 C 0.93815 0.75248 0.09983 0.0
C2004 C 0.90972 0.74652 0.10192 0.0
C2005 C 0.90028 0.76222 0.0932 0.0
C2006 C 0.91815 0.78317 0.0827 0.0
C2007 C 0.90339 0.7974 0.07479 0.0
C2008 C 0.91875 0.82971 0.07848 0.0
C2009 C 0.90093 0.79189 0.05693 0.0
C2010 C 0.87445 0.78163 0.08266 0.0
C2011 C 0.87277 0.76121 0.09314 0.0
C2012 C 0.84779 0.74406 0.10171 0.0
C2013 C 0.82411 0.74809 0.09952 0.0
C2014 C 0.82575 0.76928 0.08897 0.0
C2015 C 0.85129 0.78603 0.08044 0.0
H2016 H 0.23709 0.08364 0.09168 0.0
H2017 H 0.32582 0.113 0.10382 0.0
H2018 H 0.33338 0.16173 0.1087 0.0
H2019 H 0.2493 0.1425 0.07012 0.0
H2020 H 0.21735 0.14257 0.07638 0.0
H2021 H 0.21813 0.10959 0.07621 0.0
H2022 H 0.20417 0.10173 0.10576 0.0
H2023 H 0.2032 0.13472 0.10601 0.0
H2024 H 0.22552 0.12935 0.11981 0.0
H2025 H 0.33202 0.2086 0.10931 0.0
H2026 H 0.32214 0.24843 0.10536 0.0
H2027 H 0.23439 0.18694 0.09253 0.0
C2028 C 0.25806 0.10011 0.09563 0.0
C2029 C 0.28089 0.09449 0.09732 0.0
C2030 C 0.30795 0.11675 0.10251 0.0
C2031 C 0.31242 0.14448 0.10532 0.0
C2032 C 0.28953 0.14939 0.10307 0.0
C2033 C 0.26282 0.12764 0.09847 0.0
C2034 C 0.2422 0.13852 0.09567 0.0
C2035 C 0.23112 0.13298 0.07858 0.0
C2036 C 0.2173 0.1253 0.10752 0.0
C2037 C 0.26171 0.17008 0.09878 0.0
C2038 C 0.2888 0.17602 0.1033 0.0
C2039 C 0.31076 0.20408 0.10597 0.0
C2040 C 0.30494 0.22657 0.1037 0.0
C2041 C 0.27748 0.22083 0.0986 0.0
C2042 C 0.25559 0.19213 0.09644 0.0
H2043 H 0.2117 0.95366 0.94146 0.0
H2044 H 0.2496 0.9483 0.89751 0.0
H2045 H 0.21001 0.89799 0.89416 0.0
H2046 H 0.18299 0.87784 0.95393 0.0
H2047 H 0.15157 0.87647 0.9623 0.0
H2048 H 0.1852 0.90977 0.96216 0.0
H2049 H 0.16087 0.93442 0.94766 0.0
H2050 H 0.12733 0.90131 0.94766 0.0
H2051 H 0.14244 0.91957 0.92935 0.0
H2052 H 0.16179 0.84998 0.89435 0.0
H2053 H 0.11148 0.81068 0.8981 0.0
H2054 H 0.10736 0.8498 0.94189 0.0
C2055 C 0.21205 0.94174 0.93127 0.0
C2056 C 0.23353 0.95478 0.91971 0.0
C2057 C 0.23334 0.93852 0.90656 0.0
C2058 C 0.21096 0.91 0.90457 0.0
C2059 C 0.18943 0.8981 0.91601 0.0
C2060 C 0.1902 0.91353 0.92921 0.0
C2061 C 0.16376 0.89735 0.93924 0.0
C2062 C 0.17134 0.88991 0.95536 0.0
C2063 C 0.14767 0.91416 0.94106 0.0
C2064 C 0.14713 0.87087 0.92931 0.0
C2065 C 0.16227 0.87118 0.91609 0.0
C2066 C 0.15001 0.84941 0.9048 0.0
C2067 C 0.12149 0.82719 0.907 0.0
C2068 C 0.10558 0.82738 0.92023 0.0
C2069 C 0.11895 0.84916 0.93161 0.0
H2070 H 0.18499 0.24121 0.92238 0.0
H2071 H 0.24665 0.32961 0.9107 0.0
H2072 H 0.20671 0.33965 0.90743 0.0
H2073 H 0.12839 0.23295 0.89563 0.0
H2074 H 0.10058 0.21089 0.90943 0.0
H2075 H 0.13387 0.21054 0.90933 0.0
H2076 H 0.14081 0.22378 0.93899 0.0
H2077 H 0.10766 0.22427 0.93917 0.0
H2078 H 0.14033 0.25542 0.94552 0.0
H2079 H 0.1592 0.34007 0.90714 0.0
H2080 H 0.10969 0.33119 0.9103 0.0
H2081 H 0.08099 0.24264 0.92266 0.0
C2082 C 0.19032 0.26269 0.91896 0.0
C2083 C 0.21907 0.28464 0.91683 0.0
C2084 C 0.22481 0.3124 0.91237 0.0
C2085 C 0.20226 0.31828 0.91047 0.0
C2086 C 0.17418 0.29613 0.91298 0.0
C2087 C 0.16828 0.26887 0.91706 0.0
C2088 C 0.13668 0.24899 0.91992 0.0
C2089 C 0.12415 0.22439 0.90785 0.0
C2090 C 0.13106 0.23746 0.9369 0.0
C2091 C 0.12559 0.26943 0.91722 0.0
C2092 C 0.14735 0.29644 0.91302 0.0
C2093 C 0.14203 0.31894 0.91033 0.0
C2094 C 0.11384 0.31368 0.91215 0.0
C2095 C 0.09144 0.28623 0.91681 0.0
C2096 C 0.09756 0.26389 0.91916 0.0
H2097 H 0.80281 0.86721 0.93921 0.0
H2098 H 0.74839 0.82294 0.89917 0.0
H2099 H 0.74037 0.86403 0.89497 0.0
H2100 H 0.7616 0.89896 0.95342 0.0
H2101 H 0.79317 0.93146 0.95953 0.0
H2102 H 0.79315 0.89798 0.95956 0.0
H2103 H 0.83818 0.92041 0.94162 0.0
H2104 H 0.83828 0.95388 0.94148 0.0
H2105 H 0.83727 0.93649 0.92317 0.0
H2106 H 0.74005 0.91175 0.89497 0.0
H2107 H 0.74739 0.96056 0.89916 0.0
H2108 H 0.80246 0.97179 0.93905 0.0
C2109 C 0.78913 0.86595 0.92953 0.0
C2110 C 0.77637 0.84188 0.91945 0.0
C2111 C 0.7584 0.84116 0.90706 0.0
C2112 C 0.75374 0.86439 0.90458 0.0
C2113 C 0.76703 0.88795 0.91469 0.0
C2114 C 0.78422 0.88868 0.92696 0.0
C2115 C 0.79653 0.91638 0.93609 0.0
C2116 C 0.78544 0.91086 0.95316 0.0
C2117 C 0.82951 0.93275 0.93555 0.0
C2118 C 0.78424 0.93164 0.92684 0.0
C2119 C 0.76701 0.91494 0.91463 0.0
C2120 C 0.75347 0.92492 0.90453 0.0
C2121 C 0.75776 0.95265 0.90699 0.0
C2122 C 0.77568 0.9701 0.91936 0.0
C2123 C 0.78888 0.9592 0.92938 0.0
H2124 H 0.53528 0.41517 0.42917 0.0
H2125 H 0.47327 0.4434 0.43557 0.0
H2126 H 0.51298 0.49368 0.43764 0.0
H2127 H 0.59235 0.47021 0.45508 0.0
H2128 H 0.6201 0.47301 0.44208 0.0
H2129 H 0.58705 0.43939 0.44398 0.0
H2130 H 0.57978 0.43818 0.41375 0.0
H2131 H 0.61252 0.4718 0.41177 0.0
H2132 H 0.57948 0.46799 0.40425 0.0
H2133 H 0.56004 0.54167 0.43537 0.0
H2134 H 0.60884 0.58155 0.42907 0.0
H2135 H 0.63827 0.52029 0.42374 0.0
C2136 C 0.52997 0.43181 0.43137 0.0
C2137 C 0.5012 0.42539 0.43218 0.0
C2138 C 0.4952 0.44781 0.43504 0.0
C2139 C 0.51763 0.47643 0.43622 0.0
C2140 C 0.54582 0.48208 0.43476 0.0
C2141 C 0.55193 0.46022 0.4326 0.0
C2142 C 0.58354 0.47166 0.42998 0.0
C2143 C 0.59652 0.46306 0.4436 0.0
C2144 C 0.58913 0.46183 0.41399 0.0
C2145 C 0.59422 0.50345 0.43015 0.0
C2146 C 0.57242 0.50926 0.43326 0.0
C2147 C 0.57729 0.53731 0.43315 0.0
C2148 C 0.60502 0.55981 0.42955 0.0
C2149 C 0.62723 0.55394 0.42582 0.0
C2150 C 0.6217 0.52545 0.42646 0.0
H2151 H 0.63014 0.12343 0.40163 0.0
H2152 H 0.62289 0.06959 0.44142 0.0
H2153 H 0.57443 0.06215 0.44707 0.0
H2154 H 0.59905 0.15932 0.41923 0.0
H2155 H 0.58095 0.16075 0.4017 0.0
H2156 H 0.61343 0.15917 0.40008 0.0
H2157 H 0.58725 0.11381 0.38253 0.0
H2158 H 0.55465 0.11531 0.38404 0.0
H2159 H 0.5549 0.08312 0.3896 0.0
H2160 H 0.5271 0.06342 0.449 0.0
H2161 H 0.48731 0.07422 0.44719 0.0
H2162 H 0.52821 0.12781 0.40644 0.0
C2163 C 0.61839 0.10984 0.41148 0.0
C2164 C 0.63039 0.09719 0.42111 0.0
C2165 C 0.61409 0.07945 0.43382 0.0
C2166 C 0.58655 0.07509 0.43712 0.0
C2167 C 0.57562 0.08839 0.42749 0.0
C2168 C 0.59111 0.10525 0.41487 0.0
C2169 C 0.57559 0.11835 0.40664 0.0
C2170 C 0.59331 0.15134 0.40695 0.0
C2171 C 0.56763 0.10696 0.3897 0.0
C2172 C 0.54933 0.10716 0.4169 0.0
C2173 C 0.54924 0.08949 0.42873 0.0
C2174 C 0.52698 0.07715 0.43973 0.0
C2175 C 0.50451 0.08336 0.43863 0.0
C2176 C 0.50495 0.10214 0.42682 0.0
C2177 C 0.52749 0.11373 0.41577 0.0
H2178 H 0.90909 0.41155 0.43456 0.0
H2179 H 0.00038 0.44159 0.43425 0.0
H2180 H 0.01036 0.49157 0.43698 0.0
H2181 H 0.91142 0.46244 0.4104 0.0
H2182 H 0.88363 0.46613 0.42008 0.0
H2183 H 0.88382 0.43294 0.42145 0.0
H2184 H 0.88409 0.43583 0.45193 0.0
H2185 H 0.88364 0.46905 0.45067 0.0
H2186 H 0.91142 0.46746 0.4617 0.0
H2187 H 0.00988 0.53881 0.43594 0.0
H2188 H -0.00104 0.57771 0.4307 0.0
H2189 H 0.90811 0.51532 0.43085 0.0
C2190 C 0.93124 0.42849 0.43546 0.0
C2191 C 0.95394 0.42262 0.43416 0.0
C2192 C 0.98259 0.44553 0.43532 0.0
C2193 C 0.98846 0.47399 0.43689 0.0
C2194 C 0.96544 0.47906 0.43748 0.0
C2195 C 0.93738 0.45678 0.43696 0.0
C2196 C 0.91639 0.4676 0.43606 0.0
C2197 C 0.89775 0.45664 0.42111 0.0
C2198 C 0.89779 0.45951 0.45098 0.0
C2199 C 0.93696 0.49947 0.43531 0.0
C2200 C 0.96516 0.50588 0.43655 0.0
C2201 C 0.98785 0.53401 0.4352 0.0
C2202 C 0.98148 0.55596 0.43223 0.0
C2203 C 0.95271 0.54942 0.43031 0.0
C2204 C 0.93031 0.52092 0.43223 0.0
H2205 H 0.74904 0.19719 0.24861 0.0
H2206 H 0.78131 0.13778 0.24841 0.0
H2207 H 0.83033 0.17819 0.24303 0.0
H2208 H 0.79756 0.24546 0.21742 0.0
H2209 H 0.80049 0.27664 0.22707 0.0
H2210 H 0.76797 0.24251 0.22883 0.0
H2211 H 0.77207 0.24643 0.25927 0.0
H2212 H 0.80452 0.28041 0.25761 0.0
H2213 H 0.80443 0.25176 0.26865 0.0
H2214 H 0.87691 0.22692 0.24115 0.0
H2215 H 0.91529 0.27793 0.24248 0.0
H2216 H 0.85055 0.3035 0.24306 0.0
C2217 C 0.76633 0.19256 0.24719 0.0
C2218 C 0.76153 0.16448 0.24902 0.0
C2219 C 0.78461 0.15922 0.24699 0.0
C2220 C 0.81246 0.18202 0.24393 0.0
C2221 C 0.81656 0.2097 0.24259 0.0
C2222 C 0.79391 0.21484 0.24394 0.0
C2223 C 0.80375 0.24641 0.24299 0.0
C2224 C 0.79173 0.25314 0.2282 0.0
C2225 C 0.79573 0.25685 0.25802 0.0
C2226 C 0.8357 0.25853 0.2417 0.0
C2227 C 0.84286 0.2372 0.24125 0.0
C2228 C 0.87145 0.24374 0.24122 0.0
C2229 C 0.89312 0.27277 0.24197 0.0
C2230 C 0.88597 0.29475 0.24292 0.0
C2231 C 0.85686 0.28732 0.24235 0.0
H2232 H 0.86397 0.60266 0.2725 0.0
H2233 H 0.9066 0.65786 0.23253 0.0
H2234 H 0.86514 0.66571 0.22916 0.0
H2235 H 0.79522 0.56759 0.2571 0.0
H2236 H 0.77762 0.56567 0.27548 0.0
H2237 H 0.81167 0.56701 0.27549 0.0
H2238 H 0.83303 0.61182 0.29357 0.0
H2239 H 0.79891 0.61047 0.29376 0.0
H2240 H 0.83072 0.64279 0.28769 0.0
H2241 H 0.81629 0.66391 0.22934 0.0
H2242 H 0.76657 0.65399 0.2334 0.0
H2243 H 0.75775 0.59957 0.2732 0.0
C2244 C 0.86483 0.61665 0.26309 0.0
C2245 C 0.88841 0.62951 0.25269 0.0
C2246 C 0.88876 0.64789 0.24066 0.0
C2247 C 0.86529 0.65238 0.23866 0.0
C2248 C 0.84199 0.63863 0.24893 0.0
C2249 C 0.8419 0.62141 0.26102 0.0
C2250 C 0.81421 0.60814 0.27021 0.0
C2251 C 0.79878 0.57516 0.26952 0.0
C2252 C 0.81955 0.61896 0.28732 0.0
C2253 C 0.79812 0.61974 0.26114 0.0
C2254 C 0.81444 0.63756 0.24901 0.0
C2255 C 0.80349 0.65017 0.23889 0.0
C2256 C 0.7752 0.64437 0.24128 0.0
C2257 C 0.75814 0.62589 0.25359 0.0
C2258 C 0.77003 0.61365 0.26362 0.0
H2259 H 0.47879 0.31367 0.24911 0.0
H2260 H 0.38727 0.28222 0.24747 0.0
H2261 H 0.37839 0.23291 0.24317 0.0
H2262 H 0.47953 0.26415 0.21933 0.0
H2263 H 0.50689 0.26085 0.22977 0.0
H2264 H 0.50573 0.29369 0.23094 0.0
H2265 H 0.50363 0.28998 0.26141 0.0
H2266 H 0.50478 0.25723 0.26033 0.0
H2267 H 0.47583 0.25789 0.27061 0.0
H2268 H 0.37988 0.18601 0.24187 0.0
H2269 H 0.3917 0.14707 0.24376 0.0
H2270 H 0.48218 0.21091 0.24565 0.0
C2271 C 0.45685 0.29654 0.24765 0.0
C2272 C 0.43373 0.30181 0.2487 0.0
C2273 C 0.40536 0.27872 0.24666 0.0
C2274 C 0.40011 0.25064 0.2442 0.0
C2275 C 0.42349 0.24616 0.24354 0.0
C2276 C 0.4513 0.26863 0.24506 0.0
C2277 C 0.47272 0.25832 0.24484 0.0
C2278 C 0.49237 0.26994 0.23035 0.0
C2279 C 0.49024 0.26632 0.26021 0.0
C2280 C 0.45264 0.22639 0.24359 0.0
C2281 C 0.42432 0.21961 0.24264 0.0
C2282 C 0.40203 0.19114 0.24238 0.0
C2283 C 0.40892 0.16916 0.24344 0.0
C2284 C 0.43785 0.17588 0.2449 0.0
C2285 C 0.45982 0.20491 0.24456 0.0
H2286 H 0.30768 0.85105 0.74522 0.0
H2287 H 0.28484 0.90752 0.76987 0.0
H2288 H 0.23601 0.86654 0.77427 0.0
H2289 H 0.24238 0.81055 0.72521 0.0
H2290 H 0.24238 0.77716 0.72683 0.0
H2291 H 0.2758 0.81054 0.72658 0.0
H2292 H 0.29017 0.79736 0.7531 0.0
H2293 H 0.25676 0.76388 0.75343 0.0
H2294 H 0.26656 0.78828 0.76982 0.0
H2295 H 0.18856 0.81915 0.77471 0.0
H2296 H 0.14727 0.77025 0.77102 0.0
H2297 H 0.20248 0.74603 0.74614 0.0
C2298 C 0.2926 0.85492 0.75165 0.0
C2299 C 0.30021 0.88261 0.75717 0.0
C2300 C 0.2796 0.88652 0.76553 0.0
C2301 C 0.2518 0.86337 0.7681 0.0
C2302 C 0.24501 0.83643 0.76234 0.0
C2303 C 0.26493 0.83217 0.75434 0.0
C2304 C 0.25224 0.80149 0.74886 0.0
C2305 C 0.25326 0.79986 0.7308 0.0
C2306 C 0.26733 0.7869 0.75678 0.0
C2307 C 0.22186 0.78916 0.75475 0.0
C2308 C 0.21804 0.80949 0.7626 0.0
C2309 C 0.1914 0.80304 0.76867 0.0
C2310 C 0.16807 0.77519 0.76651 0.0
C2311 C 0.17153 0.75418 0.75828 0.0
C2312 C 0.19896 0.76141 0.75251 0.0
H2313 H 0.27919 0.41935 0.75679 0.0
H2314 H 0.33227 0.50329 0.77752 0.0
H2315 H 0.28935 0.50746 0.78239 0.0
H2316 H 0.23629 0.43786 0.7357 0.0
H2317 H 0.20313 0.40445 0.73796 0.0
H2318 H 0.23676 0.40499 0.73896 0.0
H2319 H 0.22327 0.38098 0.76642 0.0
H2320 H 0.18943 0.38022 0.76548 0.0
H2321 H 0.21319 0.39713 0.7819 0.0
H2322 H 0.24347 0.50638 0.78137 0.0
H2323 H 0.19635 0.50028 0.77439 0.0
H2324 H 0.17114 0.41707 0.75407 0.0
C2325 C 0.28145 0.43805 0.76288 0.0
C2326 C 0.30882 0.46084 0.76707 0.0
C2327 C 0.31136 0.48556 0.77442 0.0
C2328 C 0.28712 0.48804 0.77728 0.0
C2329 C 0.26047 0.46566 0.77262 0.0
C2330 C 0.25734 0.44106 0.76561 0.0
C2331 C 0.2267 0.42196 0.75999 0.0
C2332 C 0.22568 0.41704 0.74209 0.0
C2333 C 0.2123 0.39337 0.76899 0.0
C2334 C 0.21352 0.44025 0.76438 0.0
C2335 C 0.23341 0.46513 0.77189 0.0
C2336 C 0.2275 0.48674 0.77581 0.0
C2337 C 0.20076 0.48315 0.77174 0.0
C2338 C 0.18015 0.45812 0.76386 0.0
C2339 C 0.18634 0.43607 0.76044 0.0
H2340 H 0.57891 0.74794 0.76304 0.0
H2341 H 0.67032 0.77882 0.76536 0.0
H2342 H 0.67953 0.82844 0.76847 0.0
H2343 H 0.58258 0.80212 0.73992 0.0
H2344 H 0.55384 0.80415 0.74959 0.0
H2345 H 0.55442 0.77105 0.7497 0.0
H2346 H 0.55218 0.76992 0.7802 0.0
H2347 H 0.55146 0.80305 0.78019 0.0
H2348 H 0.57854 0.80028 0.79126 0.0
H2349 H 0.67866 0.87528 0.76859 0.0
H2350 H 0.66784 0.91462 0.76555 0.0
H2351 H 0.57702 0.85204 0.76304 0.0
C2352 C 0.60089 0.76501 0.76446 0.0
C2353 C 0.62388 0.75945 0.76393 0.0
C2354 C 0.65231 0.7825 0.76581 0.0
C2355 C 0.65775 0.81076 0.7676 0.0
C2356 C 0.63453 0.81551 0.76769 0.0
C2357 C 0.60665 0.79316 0.76631 0.0
C2358 C 0.58551 0.80386 0.76571 0.0
C2359 C 0.56809 0.79476 0.75032 0.0
C2360 C 0.56576 0.79367 0.78021 0.0
C2361 C 0.60588 0.83583 0.76625 0.0
C2362 C 0.63404 0.84223 0.76768 0.0
C2363 C 0.65666 0.87049 0.76768 0.0
C2364 C 0.65029 0.89269 0.76595 0.0
C2365 C 0.62157 0.88644 0.76403 0.0
C2366 C 0.59919 0.85761 0.76448 0.0
H2367 H 0.52555 0.64311 0.57984 0.0
H2368 H 0.58749 0.61435 0.57493 0.0
H2369 H 0.54769 0.56405 0.57342 0.0
H2370 H 0.47952 0.58945 0.60502 0.0
H2371 H 0.44723 0.5864 0.59682 0.0
H2372 H 0.48039 0.61984 0.59553 0.0
H2373 H 0.47505 0.61973 0.56517 0.0
H2374 H 0.44172 0.58626 0.56637 0.0
H2375 H 0.47022 0.58919 0.55395 0.0
H2376 H 0.50015 0.51612 0.5751 0.0
H2377 H 0.45052 0.4764 0.57978 0.0
H2378 H 0.4217 0.53848 0.58346 0.0
C2379 C 0.53091 0.62638 0.5782 0.0
C2380 C 0.55968 0.63273 0.57754 0.0
C2381 C 0.56558 0.61004 0.57541 0.0
C2382 C 0.54312 0.58141 0.57454 0.0
C2383 C 0.51495 0.57592 0.57564 0.0
C2384 C 0.50892 0.59793 0.57729 0.0
C2385 C 0.47722 0.58673 0.57922 0.0
C2386 C 0.47073 0.59616 0.59508 0.0
C2387 C 0.46536 0.59603 0.56535 0.0
C2388 C 0.46626 0.5549 0.57886 0.0
C2389 C 0.48811 0.54885 0.57661 0.0
C2390 C 0.48287 0.52067 0.57669 0.0
C2391 C 0.45464 0.49825 0.57935 0.0
C2392 C 0.4322 0.50428 0.58206 0.0
C2393 C 0.43827 0.533 0.58148 0.0
H2394 H 0.43097 0.95358 0.57267 0.0
H2395 H 0.42051 0.94825 0.6234 0.0
H2396 H 0.46822 0.95308 0.62645 0.0
H2397 H 0.46205 0.9102 0.57049 0.0
H2398 H 0.48699 0.92962 0.55489 0.0
H2399 H 0.45411 0.93048 0.5565 0.0
H2400 H 0.48284 0.98597 0.55753 0.0
H2401 H 0.51589 0.98528 0.55589 0.0
H2402 H 0.51055 0.00368 0.57213 0.0
H2403 H 0.51322 0.95276 0.62432 0.0
H2404 H 0.5538 0.94609 0.61704 0.0
H2405 H 0.5368 0.95094 0.56759 0.0
C2406 C 0.4392 0.95419 0.58438 0.0
C2407 C 0.42231 0.95076 0.59783 0.0
C2408 C 0.43322 0.95085 0.61299 0.0
C2409 C 0.46033 0.95377 0.61483 0.0
C2410 C 0.47626 0.95643 0.60139 0.0
C2411 C 0.46624 0.95664 0.58643 0.0
C2412 C 0.48666 0.95678 0.57401 0.0
C2413 C 0.47154 0.93019 0.56335 0.0
C2414 C 0.49976 0.98459 0.56432 0.0
C2415 C 0.5091 0.95567 0.58437 0.0
C2416 C 0.50274 0.95597 0.60012 0.0
C2417 C 0.51877 0.95302 0.61205 0.0
C2418 C 0.54168 0.94917 0.60782 0.0
C2419 C 0.54843 0.94835 0.59183 0.0
C2420 C 0.53232 0.95215 0.57991 0.0
H2421 H 0.13986 0.64423 0.59748 0.0
H2422 H 0.06433 0.62091 0.56904 0.0
H2423 H 0.05745 0.57207 0.56561 0.0
H2424 H 0.1665 0.6062 0.57564 0.0
H2425 H 0.17876 0.59599 0.5929 0.0
H2426 H 0.1772 0.62863 0.59293 0.0
H2427 H 0.1449 0.61144 0.61779 0.0
H2428 H 0.14641 0.57878 0.61786 0.0
H2429 H 0.1122 0.57725 0.61749 0.0
H2430 H 0.05973 0.52508 0.56546 0.0
H2431 H 0.07046 0.48559 0.56903 0.0
H2432 H 0.1443 0.54206 0.5976 0.0
C2433 C 0.12186 0.62903 0.59045 0.0
C2434 C 0.10272 0.63653 0.58347 0.0
C2435 C 0.07931 0.61568 0.57452 0.0
C2436 C 0.07526 0.58791 0.57249 0.0
C2437 C 0.09472 0.58137 0.57955 0.0
C2438 C 0.11747 0.60145 0.58839 0.0
C2439 C 0.13533 0.58947 0.59499 0.0
C2440 C 0.16627 0.60606 0.58873 0.0
C2441 C 0.13465 0.58922 0.6131 0.0
C2442 C 0.11934 0.55949 0.58837 0.0
C2443 C 0.09593 0.55495 0.57952 0.0
C2444 C 0.07805 0.52849 0.57239 0.0
C2445 C 0.08431 0.5062 0.57446 0.0
C2446 C 0.10825 0.51061 0.58358 0.0
C2447 C 0.12586 0.53775 0.59052 0.0
loop_
_geom_bond_atom_site_label_1
_geom_bond_atom_site_label_2
_geom_bond_distance
_geom_bond_site_symmetry_2
_ccdc_geom_bond_type
Co0 O1 2.216 . S
Co0 O2 2.091 . S
Co0 O4 2.004 . S
Co0 O10 2.021 1_455 S
Co0 O12 2.137 . S
Co0 O13 2.244 . S
O1 Co0 2.216 . S
O1 C8 1.247 . S
O2 Co0 2.091 . S
O2 C8 1.261 . S
C3 O12 1.247 . S
C3 O13 1.272 . S
O4 Co0 2.004 . S
O4 C9 1.259 . S
Co5 O6 2.061 . S
Co5 O11 2.052 1_455 S
Co5 O13 2.135 . S
O6 Co5 2.061 . S
O6 C9 1.235 . S
C7 O10 1.238 . S
C7 O11 1.241 . S
C8 O1 1.247 . S
C8 O2 1.261 . S
C9 O4 1.259 . S
C9 O6 1.235 . S
O10 Co0 2.021 1_655 S
O10 C7 1.238 . S
O11 Co5 2.052 1_655 S
O11 C7 1.241 . S
O12 Co0 2.137 . S
O12 C3 1.247 . S
O13 Co0 2.244 . S
O13 C3 1.272 . S
O13 Co5 2.135 . S
Co14 O15 2.216 . S
Co14 O16 2.091 . S
Co14 O18 2.004 . S
Co14 O24 2.021 . S
Co14 O26 2.137 . S
Co14 O27 2.244 . S
O15 Co14 2.216 . S
O15 C22 1.247 . S
O16 Co14 2.091 . S
O16 C22 1.261 . S
C17 O26 1.247 . S
C17 O27 1.272 . S
O18 Co14 2.004 . S
O18 C23 1.259 . S
Co19 O20 2.061 . S
Co19 O25 2.052 . S
Co19 O27 2.135 . S
O20 Co19 2.061 . S
O20 C23 1.235 . S
C21 O24 1.238 . S
C21 O25 1.241 . S
C22 O15 1.247 . S
C22 O16 1.261 . S
C23 O18 1.259 . S
C23 O20 1.235 . S
O24 Co14 2.021 . S
O24 C21 1.238 . S
O25 Co19 2.052 . S
O25 C21 1.241 . S
O26 Co14 2.137 . S
O26 C17 1.247 . S
O27 Co14 2.244 . S
O27 C17 1.272 . S
O27 Co19 2.135 . S
Co28 O29 2.216 . S
Co28 O30 2.091 . S
Co28 O32 2.004 . S
Co28 O38 2.021 . S
Co28 O40 2.137 1_545 S
Co28 O41 2.244 . S
O29 Co28 2.216 . S
O29 C36 1.247 . S
O30 Co28 2.091 . S
O30 C36 1.261 . S
C31 O40 1.247 . S
C31 O41 1.272 1_565 S
O32 Co28 2.004 . S
O32 C37 1.259 . S
Co33 O34 2.061 . S
Co33 O39 2.052 . S
Co33 O41 2.135 . S
O34 Co33 2.061 . S
O34 C37 1.235 . S
C35 O38 1.238 . S
C35 O39 1.241 . S
C36 O29 1.247 . S
C36 O30 1.261 . S
C37 O32 1.259 . S
C37 O34 1.235 . S
O38 Co28 2.021 . S
O38 C35 1.238 . S
O39 Co33 2.052 . S
O39 C35 1.241 . S
O40 Co28 2.137 1_565 S
O40 C31 1.247 . S
O41 Co28 2.244 . S
O41 C31 1.272 1_545 S
O41 Co33 2.135 . S
Co42 O43 2.216 . S
Co42 O44 2.091 . S
Co42 O46 2.004 . S
Co42 O52 2.021 1_545 S
Co42 O54 2.137 . S
Co42 O55 2.244 . S
O43 Co42 2.216 . S
O43 C50 1.247 . S
O44 Co42 2.091 . S
O44 C50 1.261 . S
C45 O54 1.247 . S
C45 O55 1.272 . S
O46 Co42 2.004 . S
O46 C51 1.259 . S
Co47 O48 2.061 . S
Co47 O53 2.052 1_545 S
Co47 O55 2.135 . S
O48 Co47 2.061 . S
O48 C51 1.235 . S
C49 O52 1.238 . S
C49 O53 1.241 . S
C50 O43 1.247 . S
C50 O44 1.261 . S
C51 O46 1.259 . S
C51 O48 1.235 . S
O52 Co42 2.021 1_565 S
O52 C49 1.238 . S
O53 Co47 2.052 1_565 S
O53 C49 1.241 . S
O54 Co42 2.137 . S
O54 C45 1.247 . S
O55 Co42 2.244 . S
O55 C45 1.272 . S
O55 Co47 2.135 . S
Co56 O57 2.216 . S
Co56 O58 2.091 . S
Co56 O60 2.004 . S
Co56 O66 2.021 . S
Co56 O68 2.137 1_455 S
Co56 O69 2.244 . S
O57 Co56 2.216 . S
O57 C64 1.247 . S
O58 Co56 2.091 . S
O58 C64 1.261 . S
C59 O68 1.247 . S
C59 O69 1.272 1_655 S
O60 Co56 2.004 . S
O60 C65 1.259 . S
Co61 O62 2.061 . S
Co61 O67 2.052 . S
Co61 O69 2.135 . S
O62 Co61 2.061 . S
O62 C65 1.235 . S
C63 O66 1.238 . S
C63 O67 1.241 . S
C64 O57 1.247 . S
C64 O58 1.261 . S
C65 O60 1.259 . S
C65 O62 1.235 . S
O66 Co56 2.021 . S
O66 C63 1.238 . S
O67 Co61 2.052 . S
O67 C63 1.241 . S
O68 Co56 2.137 1_655 S
O68 C59 1.247 . S
O69 Co56 2.244 . S
O69 C59 1.272 1_455 S
O69 Co61 2.135 . S
Co70 O71 2.216 . S
Co70 O72 2.091 . S
Co70 O74 2.004 . S
Co70 O80 2.021 . S
Co70 O82 2.137 . S
Co70 O83 2.244 . S
O71 Co70 2.216 . S
O71 C78 1.247 . S
O72 Co70 2.091 . S
O72 C78 1.261 . S
C73 O82 1.247 . S
C73 O83 1.272 . S
O74 Co70 2.004 . S
O74 C79 1.259 . S
Co75 O76 2.061 . S
Co75 O81 2.052 . S
Co75 O83 2.135 . S
O76 Co75 2.061 . S
O76 C79 1.235 . S
C77 O80 1.238 . S
C77 O81 1.241 . S
C78 O71 1.247 . S
C78 O72 1.261 . S
C79 O74 1.259 . S
C79 O76 1.235 . S
O80 Co70 2.021 . S
O80 C77 1.238 . S
O81 Co75 2.052 . S
O81 C77 1.241 . S
O82 Co70 2.137 . S
O82 C73 1.247 . S
O83 Co70 2.244 . S
O83 C73 1.272 . S
O83 Co75 2.135 . S
Co84 O85 2.216 . S
Co84 O86 2.091 . S
Co84 O88 2.004 . S
Co84 O94 2.021 . S
Co84 O96 2.137 1_455 S
Co84 O97 2.244 . S
O85 Co84 2.216 . S
O85 C92 1.247 . S
O86 Co84 2.091 . S
O86 C92 1.261 . S
C87 O96 1.247 . S
C87 O97 1.272 1_655 S
O88 Co84 2.004 . S
O88 C93 1.259 . S
Co89 O90 2.061 . S
Co89 O95 2.052 . S
Co89 O97 2.135 . S
O90 Co89 2.061 . S
O90 C93 1.235 . S
C91 O94 1.238 . S
C91 O95 1.241 . S
C92 O85 1.247 . S
C92 O86 1.261 . S
C93 O88 1.259 . S
C93 O90 1.235 . S
O94 Co84 2.021 . S
O94 C91 1.238 . S
O95 Co89 2.052 . S
O95 C91 1.241 . S
O96 Co84 2.137 1_655 S
O96 C87 1.247 . S
O97 Co84 2.244 . S
O97 C87 1.272 1_455 S
O97 Co89 2.135 . S
Co98 O99 2.216 . S
Co98 O100 2.091 . S
Co98 O102 2.004 . S
Co98 O108 2.021 . S
Co98 O110 2.137 . S
Co98 O111 2.244 . S
O99 Co98 2.216 . S
O99 C106 1.247 . S
O100 Co98 2.091 . S
O100 C106 1.261 . S
C101 O110 1.247 . S
C101 O111 1.272 . S
O102 Co98 2.004 . S
O102 C107 1.259 . S
Co103 O104 2.061 . S
Co103 O109 2.052 . S
Co103 O111 2.135 . S
O104 Co103 2.061 . S
O104 C107 1.235 . S
C105 O108 1.238 . S
C105 O109 1.241 . S
C106 O99 1.247 . S
C106 O100 1.261 . S
C107 O102 1.259 . S
C107 O104 1.235 . S
O108 Co98 2.021 . S
O108 C105 1.238 . S
O109 Co103 2.052 . S
O109 C105 1.241 . S
O110 Co98 2.137 . S
O110 C101 1.247 . S
O111 Co98 2.244 . S
O111 C101 1.272 . S
O111 Co103 2.135 . S
Co112 O113 2.216 . S
Co112 O114 2.091 . S
Co112 O116 2.004 . S
Co112 O122 2.021 1_545 S
Co112 O124 2.137 . S
Co112 O125 2.244 . S
O113 Co112 2.216 . S
O113 C120 1.247 . S
O114 Co112 2.091 . S
O114 C120 1.261 . S
C115 O124 1.247 . S
C115 O125 1.272 . S
O116 Co112 2.004 . S
O116 C121 1.259 . S
Co117 O118 2.061 . S
Co117 O123 2.052 1_545 S
Co117 O125 2.135 . S
O118 Co117 2.061 . S
O118 C121 1.235 . S
C119 O122 1.238 . S
C119 O123 1.241 . S
C120 O113 1.247 . S
C120 O114 1.261 . S
C121 O116 1.259 . S
C121 O118 1.235 . S
O122 Co112 2.021 1_565 S
O122 C119 1.238 . S
O123 Co117 2.052 1_565 S
O123 C119 1.241 . S
O124 Co112 2.137 . S
O124 C115 1.247 . S
O125 Co112 2.244 . S
O125 C115 1.272 . S
O125 Co117 2.135 . S
Co126 O127 2.216 . S
Co126 O128 2.091 . S
Co126 O130 2.004 . S
Co126 O136 2.021 . S
Co126 O138 2.137 1_545 S
Co126 O139 2.244 . S
O127 Co126 2.216 . S
O127 C134 1.247 . S
O128 Co126 2.091 . S
O128 C134 1.261 . S
C129 O138 1.247 . S
C129 O139 1.272 1_565 S
O130 Co126 2.004 . S
O130 C135 1.259 . S
Co131 O132 2.061 . S
Co131 O137 2.052 . S
Co131 O139 2.135 . S
O132 Co131 2.061 . S
O132 C135 1.235 . S
C133 O136 1.238 . S
C133 O137 1.241 . S
C134 O127 1.247 . S
C134 O128 1.261 . S
C135 O130 1.259 . S
C135 O132 1.235 . S
O136 Co126 2.021 . S
O136 C133 1.238 . S
O137 Co131 2.052 . S
O137 C133 1.241 . S
O138 Co126 2.137 1_565 S
O138 C129 1.247 . S
O139 Co126 2.244 . S
O139 C129 1.272 1_545 S
O139 Co131 2.135 . S
Co140 O141 2.216 . S
Co140 O142 2.091 . S
Co140 O144 2.004 . S
Co140 O150 2.021 1_455 S
Co140 O152 2.137 . S
Co140 O153 2.244 . S
O141 Co140 2.216 . S
O141 C148 1.247 . S
O142 Co140 2.091 . S
O142 C148 1.261 . S
C143 O152 1.247 . S
C143 O153 1.272 . S
O144 Co140 2.004 . S
O144 C149 1.259 . S
Co145 O146 2.061 . S
Co145 O151 2.052 1_455 S
Co145 O153 2.135 . S
O146 Co145 2.061 . S
O146 C149 1.235 . S
C147 O150 1.238 . S
C147 O151 1.241 . S
C148 O141 1.247 . S
C148 O142 1.261 . S
C149 O144 1.259 . S
C149 O146 1.235 . S
O150 Co140 2.021 1_655 S
O150 C147 1.238 . S
O151 Co145 2.052 1_655 S
O151 C147 1.241 . S
O152 Co140 2.137 . S
O152 C143 1.247 . S
O153 Co140 2.244 . S
O153 C143 1.272 . S
O153 Co145 2.135 . S
Co154 O155 2.216 . S
Co154 O156 2.091 . S
Co154 O158 2.004 . S
Co154 O164 2.021 . S
Co154 O166 2.137 . S
Co154 O167 2.244 . S
O155 Co154 2.216 . S
O155 C162 1.247 . S
O156 Co154 2.091 . S
O156 C162 1.261 . S
C157 O166 1.247 . S
C157 O167 1.272 . S
O158 Co154 2.004 . S
O158 C163 1.259 . S
Co159 O160 2.061 . S
Co159 O165 2.052 . S
Co159 O167 2.135 . S
O160 Co159 2.061 . S
O160 C163 1.235 . S
C161 O164 1.238 . S
C161 O165 1.241 . S
C162 O155 1.247 . S
C162 O156 1.261 . S
C163 O158 1.259 . S
C163 O160 1.235 . S
O164 Co154 2.021 . S
O164 C161 1.238 . S
O165 Co159 2.052 . S
O165 C161 1.241 . S
O166 Co154 2.137 . S
O166 C157 1.247 . S
O167 Co154 2.244 . S
O167 C157 1.272 . S
O167 Co159 2.135 . S
Co168 O169 2.216 . S
Co168 O170 2.091 . S
Co168 O172 2.004 . S
Co168 O178 2.021 . S
Co168 O180 2.137 . S
Co168 O181 2.244 . S
O169 Co168 2.216 . S
O169 C176 1.247 . S
O170 Co168 2.091 . S
O170 C176 1.261 . S
C171 O180 1.247 . S
C171 O181 1.272 . S
O172 Co168 2.004 . S
O172 C177 1.259 . S
Co173 O174 2.061 . S
Co173 O179 2.052 . S
Co173 O181 2.135 . S
O174 Co173 2.061 . S
O174 C177 1.235 . S
C175 O178 1.238 . S
C175 O179 1.241 . S
C176 O169 1.247 . S
C176 O170 1.261 . S
C177 O172 1.259 . S
C177 O174 1.235 . S
O178 Co168 2.021 . S
O178 C175 1.238 . S
O179 Co173 2.052 . S
O179 C175 1.241 . S
O180 Co168 2.137 . S
O180 C171 1.247 . S
O181 Co168 2.244 . S
O181 C171 1.272 . S
O181 Co173 2.135 . S
Co182 O183 2.216 . S
Co182 O184 2.091 . S
Co182 O186 2.004 . S
Co182 O192 2.021 . S
Co182 O194 2.137 . S
Co182 O195 2.244 . S
O183 Co182 2.216 . S
O183 C190 1.247 . S
O184 Co182 2.091 . S
O184 C190 1.261 . S
C185 O194 1.247 . S
C185 O195 1.272 . S
O186 Co182 2.004 . S
O186 C191 1.259 . S
Co187 O188 2.061 . S
Co187 O193 2.052 . S
Co187 O195 2.135 . S
O188 Co187 2.061 . S
O188 C191 1.235 . S
C189 O192 1.238 . S
C189 O193 1.241 . S
C190 O183 1.247 . S
C190 O184 1.261 . S
C191 O186 1.259 . S
C191 O188 1.235 . S
O192 Co182 2.021 . S
O192 C189 1.238 . S
O193 Co187 2.052 . S
O193 C189 1.241 . S
O194 Co182 2.137 . S
O194 C185 1.247 . S
O195 Co182 2.244 . S
O195 C185 1.272 . S
O195 Co187 2.135 . S
Co196 O197 2.216 . S
Co196 O198 2.091 1_655 S
Co196 O200 2.004 . S
Co196 O206 2.021 . S
Co196 O208 2.137 . S
Co196 O209 2.244 . S
O197 Co196 2.216 . S
O197 C204 1.247 1_655 S
O198 Co196 2.091 1_455 S
O198 C204 1.261 . S
C199 O208 1.247 . S
C199 O209 1.272 . S
O200 Co196 2.004 . S
O200 C205 1.259 . S
Co201 O202 2.061 . S
Co201 O207 2.052 . S
Co201 O209 2.135 . S
O202 Co201 2.061 . S
O202 C205 1.235 . S
C203 O206 1.238 . S
C203 O207 1.241 . S
C204 O197 1.247 1_455 S
C204 O198 1.261 . S
C205 O200 1.259 . S
C205 O202 1.235 . S
O206 Co196 2.021 . S
O206 C203 1.238 . S
O207 Co201 2.052 . S
O207 C203 1.241 . S
O208 Co196 2.137 . S
O208 C199 1.247 . S
O209 Co196 2.244 . S
O209 C199 1.272 . S
O209 Co201 2.135 . S
Co210 O211 2.216 . S
Co210 O212 2.091 1_655 S
Co210 O214 2.004 1_655 S
Co210 O220 2.021 . S
Co210 O222 2.137 1_655 S
Co210 O223 2.244 . S
O211 Co210 2.216 . S
O211 C218 1.247 1_655 S
O212 Co210 2.091 1_455 S
O212 C218 1.261 . S
C213 O222 1.247 1_655 S
C213 O223 1.272 . S
O214 Co210 2.004 1_455 S
O214 C219 1.259 1_455 S
Co215 O216 2.061 . S
Co215 O221 2.052 . S
Co215 O223 2.135 . S
O216 Co215 2.061 . S
O216 C219 1.235 . S
C217 O220 1.238 . S
C217 O221 1.241 . S
C218 O211 1.247 1_455 S
C218 O212 1.261 . S
C219 O214 1.259 1_655 S
C219 O216 1.235 . S
O220 Co210 2.021 . S
O220 C217 1.238 . S
O221 Co215 2.052 . S
O221 C217 1.241 . S
O222 Co210 2.137 1_455 S
O222 C213 1.247 1_455 S
O223 Co210 2.244 . S
O223 C213 1.272 . S
O223 Co215 2.135 . S
Co224 O225 2.216 . S
Co224 O226 2.091 . S
Co224 O228 2.004 . S
Co224 O234 2.021 . S
Co224 O236 2.137 . S
Co224 O237 2.244 . S
O225 Co224 2.216 . S
O225 C232 1.247 . S
O226 Co224 2.091 . S
O226 C232 1.261 . S
C227 O236 1.247 . S
C227 O237 1.272 . S
O228 Co224 2.004 . S
O228 C233 1.259 . S
Co229 O230 2.061 . S
Co229 O235 2.052 . S
Co229 O237 2.135 . S
O230 Co229 2.061 . S
O230 C233 1.235 . S
C231 O234 1.238 . S
C231 O235 1.241 . S
C232 O225 1.247 . S
C232 O226 1.261 . S
C233 O228 1.259 . S
C233 O230 1.235 . S
O234 Co224 2.021 . S
O234 C231 1.238 . S
O235 Co229 2.052 . S
O235 C231 1.241 . S
O236 Co224 2.137 . S
O236 C227 1.247 . S
O237 Co224 2.244 . S
O237 C227 1.272 . S
O237 Co229 2.135 . S
Co238 O239 2.216 . S
Co238 O240 2.091 . S
Co238 O242 2.004 . S
Co238 O248 2.021 . S
Co238 O250 2.137 . S
Co238 O251 2.244 . S
O239 Co238 2.216 . S
O239 C246 1.247 . S
O240 Co238 2.091 . S
O240 C246 1.261 . S
C241 O250 1.247 . S
C241 O251 1.272 . S
O242 Co238 2.004 . S
O242 C247 1.259 . S
Co243 O244 2.061 . S
Co243 O249 2.052 . S
Co243 O251 2.135 . S
O244 Co243 2.061 . S
O244 C247 1.235 . S
C245 O248 1.238 . S
C245 O249 1.241 . S
C246 O239 1.247 . S
C246 O240 1.261 . S
C247 O242 1.259 . S
C247 O244 1.235 . S
O248 Co238 2.021 . S
O248 C245 1.238 . S
O249 Co243 2.052 . S
O249 C245 1.241 . S
O250 Co238 2.137 . S
O250 C241 1.247 . S
O251 Co238 2.244 . S
O251 C241 1.272 . S
O251 Co243 2.135 . S
Co252 O253 2.216 . S
Co252 O254 2.091 . S
Co252 O256 2.004 . S
Co252 O262 2.021 . S
Co252 O264 2.137 . S
Co252 O265 2.244 . S
O253 Co252 2.216 . S
O253 C260 1.247 . S
O254 Co252 2.091 . S
O254 C260 1.261 . S
C255 O264 1.247 . S
C255 O265 1.272 . S
O256 Co252 2.004 . S
O256 C261 1.259 . S
Co257 O258 2.061 . S
Co257 O263 2.052 . S
Co257 O265 2.135 . S
O258 Co257 2.061 . S
O258 C261 1.235 . S
C259 O262 1.238 . S
C259 O263 1.241 . S
C260 O253 1.247 . S
C260 O254 1.261 . S
C261 O256 1.259 . S
C261 O258 1.235 . S
O262 Co252 2.021 . S
O262 C259 1.238 . S
O263 Co257 2.052 . S
O263 C259 1.241 . S
O264 Co252 2.137 . S
O264 C255 1.247 . S
O265 Co252 2.244 . S
O265 C255 1.272 . S
O265 Co257 2.135 . S
Co266 O267 2.216 . S
Co266 O268 2.091 1_655 S
Co266 O270 2.004 1_655 S
Co266 O276 2.021 . S
Co266 O278 2.137 1_655 S
Co266 O279 2.244 . S
O267 Co266 2.216 . S
O267 C274 1.247 1_655 S
O268 Co266 2.091 1_455 S
O268 C274 1.261 . S
C269 O278 1.247 1_655 S
C269 O279 1.272 . S
O270 Co266 2.004 1_455 S
O270 C275 1.259 1_455 S
Co271 O272 2.061 . S
Co271 O277 2.052 . S
Co271 O279 2.135 . S
O272 Co271 2.061 . S
O272 C275 1.235 . S
C273 O276 1.238 . S
C273 O277 1.241 . S
C274 O267 1.247 1_455 S
C274 O268 1.261 . S
C275 O270 1.259 1_655 S
C275 O272 1.235 . S
O276 Co266 2.021 . S
O276 C273 1.238 . S
O277 Co271 2.052 . S
O277 C273 1.241 . S
O278 Co266 2.137 1_455 S
O278 C269 1.247 1_455 S
O279 Co266 2.244 . S
O279 C269 1.272 . S
O279 Co271 2.135 . S
Co280 O281 2.216 . S
Co280 O282 2.091 . S
Co280 O284 2.004 . S
Co280 O290 2.021 . S
Co280 O292 2.137 . S
Co280 O293 2.244 . S
O281 Co280 2.216 . S
O281 C288 1.247 . S
O282 Co280 2.091 . S
O282 C288 1.261 . S
C283 O292 1.247 . S
C283 O293 1.272 . S
O284 Co280 2.004 . S
O284 C289 1.259 . S
Co285 O286 2.061 . S
Co285 O291 2.052 . S
Co285 O293 2.135 . S
O286 Co285 2.061 . S
O286 C289 1.235 . S
C287 O290 1.238 . S
C287 O291 1.241 . S
C288 O281 1.247 . S
C288 O282 1.261 . S
C289 O284 1.259 . S
C289 O286 1.235 . S
O290 Co280 2.021 . S
O290 C287 1.238 . S
O291 Co285 2.052 . S
O291 C287 1.241 . S
O292 Co280 2.137 . S
O292 C283 1.247 . S
O293 Co280 2.244 . S
O293 C283 1.272 . S
O293 Co285 2.135 . S
Co294 O295 2.216 . S
Co294 O296 2.091 . S
Co294 O298 2.004 . S
Co294 O304 2.021 . S
Co294 O306 2.137 . S
Co294 O307 2.244 . S
O295 Co294 2.216 . S
O295 C302 1.247 . S
O296 Co294 2.091 . S
O296 C302 1.261 . S
C297 O306 1.247 . S
C297 O307 1.272 . S
O298 Co294 2.004 . S
O298 C303 1.259 . S
Co299 O300 2.061 . S
Co299 O305 2.052 . S
Co299 O307 2.135 . S
O300 Co299 2.061 . S
O300 C303 1.235 . S
C301 O304 1.238 . S
C301 O305 1.241 . S
C302 O295 1.247 . S
C302 O296 1.261 . S
C303 O298 1.259 . S
C303 O300 1.235 . S
O304 Co294 2.021 . S
O304 C301 1.238 . S
O305 Co299 2.052 . S
O305 C301 1.241 . S
O306 Co294 2.137 . S
O306 C297 1.247 . S
O307 Co294 2.244 . S
O307 C297 1.272 . S
O307 Co299 2.135 . S
Co308 O309 2.216 . S
Co308 O310 2.091 . S
Co308 O312 2.004 . S
Co308 O318 2.021 . S
Co308 O320 2.137 . S
Co308 O321 2.244 . S
O309 Co308 2.216 . S
O309 C316 1.247 . S
O310 Co308 2.091 . S
O310 C316 1.261 . S
C311 O320 1.247 . S
C311 O321 1.272 . S
O312 Co308 2.004 . S
O312 C317 1.259 . S
Co313 O314 2.061 . S
Co313 O319 2.052 . S
Co313 O321 2.135 . S
O314 Co313 2.061 . S
O314 C317 1.235 . S
C315 O318 1.238 . S
C315 O319 1.241 . S
C316 O309 1.247 . S
C316 O310 1.261 . S
C317 O312 1.259 . S
C317 O314 1.235 . S
O318 Co308 2.021 . S
O318 C315 1.238 . S
O319 Co313 2.052 . S
O319 C315 1.241 . S
O320 Co308 2.137 . S
O320 C311 1.247 . S
O321 Co308 2.244 . S
O321 C311 1.272 . S
O321 Co313 2.135 . S
Co322 O323 2.216 . S
Co322 O324 2.091 1_655 S
Co322 O326 2.004 . S
Co322 O332 2.021 . S
Co322 O334 2.137 . S
Co322 O335 2.244 . S
O323 Co322 2.216 . S
O323 C330 1.247 1_655 S
O324 Co322 2.091 1_455 S
O324 C330 1.261 . S
C325 O334 1.247 . S
C325 O335 1.272 . S
O326 Co322 2.004 . S
O326 C331 1.259 . S
Co327 O328 2.061 . S
Co327 O333 2.052 . S
Co327 O335 2.135 . S
O328 Co327 2.061 . S
O328 C331 1.235 . S
C329 O332 1.238 . S
C329 O333 1.241 . S
C330 O323 1.247 1_455 S
C330 O324 1.261 . S
C331 O326 1.259 . S
C331 O328 1.235 . S
O332 Co322 2.021 . S
O332 C329 1.238 . S
O333 Co327 2.052 . S
O333 C329 1.241 . S
O334 Co322 2.137 . S
O334 C325 1.247 . S
O335 Co322 2.244 . S
O335 C325 1.272 . S
O335 Co327 2.135 . S
Co336 O337 2.216 . S
Co336 O338 2.091 1_565 S
Co336 O340 2.004 1_565 S
Co336 O346 2.021 . S
Co336 O348 2.137 1_565 S
Co336 O349 2.244 . S
O337 Co336 2.216 . S
O337 C344 1.247 1_565 S
O338 Co336 2.091 1_545 S
O338 C344 1.261 . S
C339 O348 1.247 1_565 S
C339 O349 1.272 . S
O340 Co336 2.004 1_545 S
O340 C345 1.259 1_545 S
Co341 O342 2.061 . S
Co341 O347 2.052 . S
Co341 O349 2.135 . S
O342 Co341 2.061 . S
O342 C345 1.235 . S
C343 O346 1.238 . S
C343 O347 1.241 . S
C344 O337 1.247 1_545 S
C344 O338 1.261 . S
C345 O340 1.259 1_565 S
C345 O342 1.235 . S
O346 Co336 2.021 . S
O346 C343 1.238 . S
O347 Co341 2.052 . S
O347 C343 1.241 . S
O348 Co336 2.137 1_545 S
O348 C339 1.247 1_545 S
O349 Co336 2.244 . S
O349 C339 1.272 . S
O349 Co341 2.135 . S
Co350 O351 2.216 . S
Co350 O352 2.091 . S
Co350 O354 2.004 . S
Co350 O360 2.021 . S
Co350 O362 2.137 . S
Co350 O363 2.244 . S
O351 Co350 2.216 . S
O351 C358 1.247 . S
O352 Co350 2.091 . S
O352 C358 1.261 . S
C353 O362 1.247 . S
C353 O363 1.272 . S
O354 Co350 2.004 . S
O354 C359 1.259 . S
Co355 O356 2.061 . S
Co355 O361 2.052 . S
Co355 O363 2.135 . S
O356 Co355 2.061 . S
O356 C359 1.235 . S
C357 O360 1.238 . S
C357 O361 1.241 . S
C358 O351 1.247 . S
C358 O352 1.261 . S
C359 O354 1.259 . S
C359 O356 1.235 . S
O360 Co350 2.021 . S
O360 C357 1.238 . S
O361 Co355 2.052 . S
O361 C357 1.241 . S
O362 Co350 2.137 . S
O362 C353 1.247 . S
O363 Co350 2.244 . S
O363 C353 1.272 . S
O363 Co355 2.135 . S
Co364 O365 2.216 . S
Co364 O366 2.091 . S
Co364 O368 2.004 . S
Co364 O374 2.021 . S
Co364 O376 2.137 . S
Co364 O377 2.244 . S
O365 Co364 2.216 . S
O365 C372 1.247 . S
O366 Co364 2.091 . S
O366 C372 1.261 . S
C367 O376 1.247 . S
C367 O377 1.272 . S
O368 Co364 2.004 . S
O368 C373 1.259 . S
Co369 O370 2.061 . S
Co369 O375 2.052 . S
Co369 O377 2.135 . S
O370 Co369 2.061 . S
O370 C373 1.235 . S
C371 O374 1.238 . S
C371 O375 1.241 . S
C372 O365 1.247 . S
C372 O366 1.261 . S
C373 O368 1.259 . S
C373 O370 1.235 . S
O374 Co364 2.021 . S
O374 C371 1.238 . S
O375 Co369 2.052 . S
O375 C371 1.241 . S
O376 Co364 2.137 . S
O376 C367 1.247 . S
O377 Co364 2.244 . S
O377 C367 1.272 . S
O377 Co369 2.135 . S
Co378 O379 2.216 . S
Co378 O380 2.091 . S
Co378 O382 2.004 . S
Co378 O388 2.021 . S
Co378 O390 2.137 . S
Co378 O391 2.244 . S
O379 Co378 2.216 . S
O379 C386 1.247 . S
O380 Co378 2.091 . S
O380 C386 1.261 . S
C381 O390 1.247 . S
C381 O391 1.272 . S
O382 Co378 2.004 . S
O382 C387 1.259 . S
Co383 O384 2.061 . S
Co383 O389 2.052 . S
Co383 O391 2.135 . S
O384 Co383 2.061 . S
O384 C387 1.235 . S
C385 O388 1.238 . S
C385 O389 1.241 . S
C386 O379 1.247 . S
C386 O380 1.261 . S
C387 O382 1.259 . S
C387 O384 1.235 . S
O388 Co378 2.021 . S
O388 C385 1.238 . S
O389 Co383 2.052 . S
O389 C385 1.241 . S
O390 Co378 2.137 . S
O390 C381 1.247 . S
O391 Co378 2.244 . S
O391 C381 1.272 . S
O391 Co383 2.135 . S
Co392 O393 2.216 . S
Co392 O394 2.091 1_565 S
Co392 O396 2.004 . S
Co392 O402 2.021 . S
Co392 O404 2.137 . S
Co392 O405 2.244 . S
O393 Co392 2.216 . S
O393 C400 1.247 1_565 S
O394 Co392 2.091 1_545 S
O394 C400 1.261 . S
C395 O404 1.247 . S
C395 O405 1.272 . S
O396 Co392 2.004 . S
O396 C401 1.259 . S
Co397 O398 2.061 . S
Co397 O403 2.052 . S
Co397 O405 2.135 . S
O398 Co397 2.061 . S
O398 C401 1.235 . S
C399 O402 1.238 . S
C399 O403 1.241 . S
C400 O393 1.247 1_545 S
C400 O394 1.261 . S
C401 O396 1.259 . S
C401 O398 1.235 . S
O402 Co392 2.021 . S
O402 C399 1.238 . S
O403 Co397 2.052 . S
O403 C399 1.241 . S
O404 Co392 2.137 . S
O404 C395 1.247 . S
O405 Co392 2.244 . S
O405 C395 1.272 . S
O405 Co397 2.135 . S
Co406 O407 2.216 . S
Co406 O408 2.091 . S
Co406 O410 2.004 . S
Co406 O416 2.021 . S
Co406 O418 2.137 . S
Co406 O419 2.244 . S
O407 Co406 2.216 . S
O407 C414 1.247 . S
O408 Co406 2.091 . S
O408 C414 1.261 . S
C409 O418 1.247 . S
C409 O419 1.272 . S
O410 Co406 2.004 . S
O410 C415 1.259 . S
Co411 O412 2.061 . S
Co411 O417 2.052 . S
Co411 O419 2.135 . S
O412 Co411 2.061 . S
O412 C415 1.235 . S
C413 O416 1.238 . S
C413 O417 1.241 . S
C414 O407 1.247 . S
C414 O408 1.261 . S
C415 O410 1.259 . S
C415 O412 1.235 . S
O416 Co406 2.021 . S
O416 C413 1.238 . S
O417 Co411 2.052 . S
O417 C413 1.241 . S
O418 Co406 2.137 . S
O418 C409 1.247 . S
O419 Co406 2.244 . S
O419 C409 1.272 . S
O419 Co411 2.135 . S
Co420 O421 2.216 . S
Co420 O422 2.091 . S
Co420 O424 2.004 . S
Co420 O430 2.021 . S
Co420 O432 2.137 . S
Co420 O433 2.244 . S
O421 Co420 2.216 . S
O421 C428 1.247 . S
O422 Co420 2.091 . S
O422 C428 1.261 . S
C423 O432 1.247 . S
C423 O433 1.272 . S
O424 Co420 2.004 . S
O424 C429 1.259 . S
Co425 O426 2.061 . S
Co425 O431 2.052 . S
Co425 O433 2.135 . S
O426 Co425 2.061 . S
O426 C429 1.235 . S
C427 O430 1.238 . S
C427 O431 1.241 . S
C428 O421 1.247 . S
C428 O422 1.261 . S
C429 O424 1.259 . S
C429 O426 1.235 . S
O430 Co420 2.021 . S
O430 C427 1.238 . S
O431 Co425 2.052 . S
O431 C427 1.241 . S
O432 Co420 2.137 . S
O432 C423 1.247 . S
O433 Co420 2.244 . S
O433 C423 1.272 . S
O433 Co425 2.135 . S
Co434 O435 2.216 . S
Co434 O436 2.091 1_565 S
Co434 O438 2.004 . S
Co434 O444 2.021 . S
Co434 O446 2.137 . S
Co434 O447 2.244 . S
O435 Co434 2.216 . S
O435 C442 1.247 1_565 S
O436 Co434 2.091 1_545 S
O436 C442 1.261 . S
C437 O446 1.247 . S
C437 O447 1.272 . S
O438 Co434 2.004 . S
O438 C443 1.259 . S
Co439 O440 2.061 . S
Co439 O445 2.052 . S
Co439 O447 2.135 . S
O440 Co439 2.061 . S
O440 C443 1.235 . S
C441 O444 1.238 . S
C441 O445 1.241 . S
C442 O435 1.247 1_545 S
C442 O436 1.261 . S
C443 O438 1.259 . S
C443 O440 1.235 . S
O444 Co434 2.021 . S
O444 C441 1.238 . S
O445 Co439 2.052 . S
O445 C441 1.241 . S
O446 Co434 2.137 . S
O446 C437 1.247 . S
O447 Co434 2.244 . S
O447 C437 1.272 . S
O447 Co439 2.135 . S
Co448 O449 2.216 . S
Co448 O450 2.091 . S
Co448 O452 2.004 . S
Co448 O458 2.021 . S
Co448 O460 2.137 . S
Co448 O461 2.244 . S
O449 Co448 2.216 . S
O449 C456 1.247 . S
O450 Co448 2.091 . S
O450 C456 1.261 . S
C451 O460 1.247 . S
C451 O461 1.272 . S
O452 Co448 2.004 . S
O452 C457 1.259 . S
Co453 O454 2.061 . S
Co453 O459 2.052 . S
Co453 O461 2.135 . S
O454 Co453 2.061 . S
O454 C457 1.235 . S
C455 O458 1.238 . S
C455 O459 1.241 . S
C456 O449 1.247 . S
C456 O450 1.261 . S
C457 O452 1.259 . S
C457 O454 1.235 . S
O458 Co448 2.021 . S
O458 C455 1.238 . S
O459 Co453 2.052 . S
O459 C455 1.241 . S
O460 Co448 2.137 . S
O460 C451 1.247 . S
O461 Co448 2.244 . S
O461 C451 1.272 . S
O461 Co453 2.135 . S
Co462 O463 2.216 . S
Co462 O464 2.091 . S
Co462 O466 2.004 . S
Co462 O472 2.021 . S
Co462 O474 2.137 . S
Co462 O475 2.244 . S
O463 Co462 2.216 . S
O463 C470 1.247 . S
O464 Co462 2.091 . S
O464 C470 1.261 . S
C465 O474 1.247 . S
C465 O475 1.272 . S
O466 Co462 2.004 . S
O466 C471 1.259 . S
Co467 O468 2.061 . S
Co467 O473 2.052 . S
Co467 O475 2.135 . S
O468 Co467 2.061 . S
O468 C471 1.235 . S
C469 O472 1.238 . S
C469 O473 1.241 . S
C470 O463 1.247 . S
C470 O464 1.261 . S
C471 O466 1.259 . S
C471 O468 1.235 . S
O472 Co462 2.021 . S
O472 C469 1.238 . S
O473 Co467 2.052 . S
O473 C469 1.241 . S
O474 Co462 2.137 . S
O474 C465 1.247 . S
O475 Co462 2.244 . S
O475 C465 1.272 . S
O475 Co467 2.135 . S
Co476 O477 2.216 . S
Co476 O478 2.091 . S
Co476 O480 2.004 . S
Co476 O486 2.021 . S
Co476 O488 2.137 . S
Co476 O489 2.244 . S
O477 Co476 2.216 . S
O477 C484 1.247 . S
O478 Co476 2.091 . S
O478 C484 1.261 . S
C479 O488 1.247 . S
C479 O489 1.272 . S
O480 Co476 2.004 . S
O480 C485 1.259 . S
Co481 O482 2.061 . S
Co481 O487 2.052 . S
Co481 O489 2.135 . S
O482 Co481 2.061 . S
O482 C485 1.235 . S
C483 O486 1.238 . S
C483 O487 1.241 . S
C484 O477 1.247 . S
C484 O478 1.261 . S
C485 O480 1.259 . S
C485 O482 1.235 . S
O486 Co476 2.021 . S
O486 C483 1.238 . S
O487 Co481 2.052 . S
O487 C483 1.241 . S
O488 Co476 2.137 . S
O488 C479 1.247 . S
O489 Co476 2.244 . S
O489 C479 1.272 . S
O489 Co481 2.135 . S
Co490 O491 2.216 . S
Co490 O492 2.091 1_565 S
Co490 O494 2.004 1_565 S
Co490 O500 2.021 . S
Co490 O502 2.137 1_565 S
Co490 O503 2.244 . S
O491 Co490 2.216 . S
O491 C498 1.247 1_565 S
O492 Co490 2.091 1_545 S
O492 C498 1.261 . S
C493 O502 1.247 1_565 S
C493 O503 1.272 . S
O494 Co490 2.004 1_545 S
O494 C499 1.259 1_545 S
Co495 O496 2.061 . S
Co495 O501 2.052 . S
Co495 O503 2.135 . S
O496 Co495 2.061 . S
O496 C499 1.235 . S
C497 O500 1.238 . S
C497 O501 1.241 . S
C498 O491 1.247 1_545 S
C498 O492 1.261 . S
C499 O494 1.259 1_565 S
C499 O496 1.235 . S
O500 Co490 2.021 . S
O500 C497 1.238 . S
O501 Co495 2.052 . S
O501 C497 1.241 . S
O502 Co490 2.137 1_545 S
O502 C493 1.247 1_545 S
O503 Co490 2.244 . S
O503 C493 1.272 . S
O503 Co495 2.135 . S
H504 C516 0.930 . S
H505 C518 0.930 . S
H506 C519 0.930 . S
H507 C523 0.959 . S
H508 C523 0.959 . S
H509 C523 0.961 . S
H510 C524 0.960 . S
H511 C524 0.961 . S
H512 C524 0.959 . S
H513 C527 0.929 . S
H514 C528 0.931 . S
H515 C530 0.930 . S
C516 H504 0.930 . S
C516 C517 1.399 . S
C516 C521 1.399 . S
C517 C516 1.399 . S
C517 C518 1.376 . S
C518 H505 0.930 . S
C518 C517 1.376 . S
C518 C519 1.388 . S
C519 H506 0.930 . S
C519 C518 1.388 . S
C519 C520 1.390 . S
C520 C519 1.390 . S
C520 C521 1.394 . S
C520 C526 1.465 . S
C521 C516 1.399 . S
C521 C520 1.394 . S
C521 C522 1.516 . S
C522 C521 1.516 . S
C522 C523 1.502 . S
C522 C524 1.561 . S
C522 C525 1.526 . S
C523 H507 0.959 . S
C523 H508 0.959 . S
C523 H509 0.961 . S
C523 C522 1.502 . S
C524 H510 0.960 . S
C524 H511 0.961 . S
C524 H512 0.959 . S
C524 C522 1.561 . S
C525 C522 1.526 . S
C525 C526 1.396 . S
C525 C530 1.390 . S
C526 C520 1.465 . S
C526 C525 1.396 . S
C526 C527 1.399 . S
C527 H513 0.929 . S
C527 C526 1.399 . S
C527 C528 1.385 . S
C528 H514 0.931 . S
C528 C527 1.385 . S
C528 C529 1.389 . S
C529 C528 1.389 . S
C529 C530 1.387 . S
C530 H515 0.930 . S
C530 C525 1.390 . S
C530 C529 1.387 . S
H531 C543 0.930 . S
H532 C545 0.930 . S
H533 C546 0.930 . S
H534 C550 0.959 . S
H535 C550 0.959 . S
H536 C550 0.961 . S
H537 C551 0.960 . S
H538 C551 0.961 . S
H539 C551 0.959 . S
H540 C554 0.929 . S
H541 C555 0.931 . S
H542 C557 0.930 . S
C543 H531 0.930 . S
C543 C544 1.399 . S
C543 C548 1.399 . S
C544 C543 1.399 . S
C544 C545 1.376 . S
C545 H532 0.930 . S
C545 C544 1.376 . S
C545 C546 1.388 . S
C546 H533 0.930 . S
C546 C545 1.388 . S
C546 C547 1.390 . S
C547 C546 1.390 . S
C547 C548 1.394 . S
C547 C553 1.465 . S
C548 C543 1.399 . S
C548 C547 1.394 . S
C548 C549 1.516 . S
C549 C548 1.516 . S
C549 C550 1.502 . S
C549 C551 1.561 . S
C549 C552 1.526 . S
C550 H534 0.959 . S
C550 H535 0.959 . S
C550 H536 0.961 . S
C550 C549 1.502 . S
C551 H537 0.960 . S
C551 H538 0.961 . S
C551 H539 0.959 . S
C551 C549 1.561 . S
C552 C549 1.526 . S
C552 C553 1.396 . S
C552 C557 1.390 . S
C553 C547 1.465 . S
C553 C552 1.396 . S
C553 C554 1.399 . S
C554 H540 0.929 . S
C554 C553 1.399 . S
C554 C555 1.385 . S
C555 H541 0.931 . S
C555 C554 1.385 . S
C555 C556 1.389 . S
C556 C555 1.389 . S
C556 C557 1.387 . S
C557 H542 0.930 . S
C557 C552 1.390 . S
C557 C556 1.387 . S
H558 C570 0.930 . S
H559 C572 0.930 . S
H560 C573 0.930 . S
H561 C577 0.959 . S
H562 C577 0.959 . S
H563 C577 0.961 . S
H564 C578 0.960 . S
H565 C578 0.961 . S
H566 C578 0.959 . S
H567 C581 0.929 . S
H568 C582 0.931 . S
H569 C584 0.930 . S
C570 H558 0.930 . S
C570 C571 1.399 . S
C570 C575 1.399 . S
C571 C570 1.399 . S
C571 C572 1.376 . S
C572 H559 0.930 . S
C572 C571 1.376 . S
C572 C573 1.388 . S
C573 H560 0.930 . S
C573 C572 1.388 . S
C573 C574 1.390 . S
C574 C573 1.390 . S
C574 C575 1.394 . S
C574 C580 1.465 . S
C575 C570 1.399 . S
C575 C574 1.394 . S
C575 C576 1.516 . S
C576 C575 1.516 . S
C576 C577 1.502 . S
C576 C578 1.561 . S
C576 C579 1.526 . S
C577 H561 0.959 . S
C577 H562 0.959 . S
C577 H563 0.961 . S
C577 C576 1.502 . S
C578 H564 0.960 . S
C578 H565 0.961 . S
C578 H566 0.959 . S
C578 C576 1.561 . S
C579 C576 1.526 . S
C579 C580 1.396 . S
C579 C584 1.390 . S
C580 C574 1.465 . S
C580 C579 1.396 . S
C580 C581 1.399 . S
C581 H567 0.929 . S
C581 C580 1.399 . S
C581 C582 1.385 . S
C582 H568 0.931 . S
C582 C581 1.385 . S
C582 C583 1.389 . S
C583 C582 1.389 . S
C583 C584 1.387 . S
C584 H569 0.930 . S
C584 C579 1.390 . S
C584 C583 1.387 . S
H585 C597 0.930 . S
H586 C599 0.930 . S
H587 C600 0.930 . S
H588 C604 0.959 . S
H589 C604 0.959 . S
H590 C604 0.961 . S
H591 C605 0.960 . S
H592 C605 0.961 . S
H593 C605 0.959 . S
H594 C608 0.929 . S
H595 C609 0.931 . S
H596 C611 0.930 . S
C597 H585 0.930 . S
C597 C598 1.399 . S
C597 C602 1.399 . S
C598 C597 1.399 . S
C598 C599 1.376 . S
C599 H586 0.930 . S
C599 C598 1.376 . S
C599 C600 1.388 . S
C600 H587 0.930 . S
C600 C599 1.388 . S
C600 C601 1.390 . S
C601 C600 1.390 . S
C601 C602 1.394 . S
C601 C607 1.465 . S
C602 C597 1.399 . S
C602 C601 1.394 . S
C602 C603 1.516 . S
C603 C602 1.516 . S
C603 C604 1.502 . S
C603 C605 1.561 . S
C603 C606 1.526 . S
C604 H588 0.959 . S
C604 H589 0.959 . S
C604 H590 0.961 . S
C604 C603 1.502 . S
C605 H591 0.960 . S
C605 H592 0.961 . S
C605 H593 0.959 . S
C605 C603 1.561 . S
C606 C603 1.526 . S
C606 C607 1.396 . S
C606 C611 1.390 . S
C607 C601 1.465 . S
C607 C606 1.396 . S
C607 C608 1.399 . S
C608 H594 0.929 . S
C608 C607 1.399 . S
C608 C609 1.385 . S
C609 H595 0.931 . S
C609 C608 1.385 . S
C609 C610 1.389 . S
C610 C609 1.389 . S
C610 C611 1.387 . S
C611 H596 0.930 . S
C611 C606 1.390 . S
C611 C610 1.387 . S
H612 C624 0.930 . S
H613 C626 0.930 . S
H614 C627 0.930 . S
H615 C631 0.959 . S
H616 C631 0.959 . S
H617 C631 0.961 . S
H618 C632 0.960 . S
H619 C632 0.961 . S
H620 C632 0.959 . S
H621 C635 0.929 . S
H622 C636 0.931 . S
H623 C638 0.930 . S
C624 H612 0.930 . S
C624 C625 1.399 . S
C624 C629 1.399 . S
C625 C624 1.399 . S
C625 C626 1.376 . S
C626 H613 0.930 . S
C626 C625 1.376 . S
C626 C627 1.388 . S
C627 H614 0.930 . S
C627 C626 1.388 . S
C627 C628 1.390 . S
C628 C627 1.390 . S
C628 C629 1.394 . S
C628 C634 1.465 . S
C629 C624 1.399 . S
C629 C628 1.394 . S
C629 C630 1.516 . S
C630 C629 1.516 . S
C630 C631 1.502 . S
C630 C632 1.561 . S
C630 C633 1.526 . S
C631 H615 0.959 . S
C631 H616 0.959 . S
C631 H617 0.961 . S
C631 C630 1.502 . S
C632 H618 0.960 . S
C632 H619 0.961 . S
C632 H620 0.959 . S
C632 C630 1.561 . S
C633 C630 1.526 . S
C633 C634 1.396 . S
C633 C638 1.390 . S
C634 C628 1.465 . S
C634 C633 1.396 . S
C634 C635 1.399 . S
C635 H621 0.929 . S
C635 C634 1.399 . S
C635 C636 1.385 . S
C636 H622 0.931 . S
C636 C635 1.385 . S
C636 C637 1.389 . S
C637 C636 1.389 . S
C637 C638 1.387 . S
C638 H623 0.930 . S
C638 C633 1.390 . S
C638 C637 1.387 . S
H639 C651 0.930 . S
H640 C653 0.930 . S
H641 C654 0.930 . S
H642 C658 0.959 . S
H643 C658 0.959 . S
H644 C658 0.961 . S
H645 C659 0.960 . S
H646 C659 0.961 . S
H647 C659 0.959 . S
H648 C662 0.929 . S
H649 C663 0.931 . S
H650 C665 0.930 . S
C651 H639 0.930 . S
C651 C652 1.399 . S
C651 C656 1.399 . S
C652 C651 1.399 . S
C652 C653 1.376 . S
C653 H640 0.930 . S
C653 C652 1.376 . S
C653 C654 1.388 . S
C654 H641 0.930 . S
C654 C653 1.388 . S
C654 C655 1.390 . S
C655 C654 1.390 . S
C655 C656 1.394 . S
C655 C661 1.465 . S
C656 C651 1.399 . S
C656 C655 1.394 . S
C656 C657 1.516 . S
C657 C656 1.516 . S
C657 C658 1.502 . S
C657 C659 1.561 . S
C657 C660 1.526 . S
C658 H642 0.959 . S
C658 H643 0.959 . S
C658 H644 0.961 . S
C658 C657 1.502 . S
C659 H645 0.960 . S
C659 H646 0.961 . S
C659 H647 0.959 . S
C659 C657 1.561 . S
C660 C657 1.526 . S
C660 C661 1.396 . S
C660 C665 1.390 . S
C661 C655 1.465 . S
C661 C660 1.396 . S
C661 C662 1.399 . S
C662 H648 0.929 . S
C662 C661 1.399 . S
C662 C663 1.385 . S
C663 H649 0.931 . S
C663 C662 1.385 . S
C663 C664 1.389 . S
C664 C663 1.389 . S
C664 C665 1.387 . S
C665 H650 0.930 . S
C665 C660 1.390 . S
C665 C664 1.387 . S
H666 C678 0.930 . S
H667 C680 0.930 . S
H668 C681 0.930 . S
H669 C685 0.959 . S
H670 C685 0.959 . S
H671 C685 0.961 . S
H672 C686 0.960 . S
H673 C686 0.961 . S
H674 C686 0.959 . S
H675 C689 0.929 . S
H676 C690 0.931 . S
H677 C692 0.930 . S
C678 H666 0.930 . S
C678 C679 1.399 . S
C678 C683 1.399 . S
C679 C678 1.399 . S
C679 C680 1.376 . S
C680 H667 0.930 . S
C680 C679 1.376 . S
C680 C681 1.388 . S
C681 H668 0.930 . S
C681 C680 1.388 . S
C681 C682 1.390 . S
C682 C681 1.390 . S
C682 C683 1.394 . S
C682 C688 1.465 . S
C683 C678 1.399 . S
C683 C682 1.394 . S
C683 C684 1.516 . S
C684 C683 1.516 . S
C684 C685 1.502 . S
C684 C686 1.561 . S
C684 C687 1.526 . S
C685 H669 0.959 . S
C685 H670 0.959 . S
C685 H671 0.961 . S
C685 C684 1.502 . S
C686 H672 0.960 . S
C686 H673 0.961 . S
C686 H674 0.959 . S
C686 C684 1.561 . S
C687 C684 1.526 . S
C687 C688 1.396 . S
C687 C692 1.390 . S
C688 C682 1.465 . S
C688 C687 1.396 . S
C688 C689 1.399 . S
C689 H675 0.929 . S
C689 C688 1.399 . S
C689 C690 1.385 . S
C690 H676 0.931 . S
C690 C689 1.385 . S
C690 C691 1.389 . S
C691 C690 1.389 . S
C691 C692 1.387 . S
C692 H677 0.930 . S
C692 C687 1.390 . S
C692 C691 1.387 . S
H693 C705 0.930 . S
H694 C707 0.930 . S
H695 C708 0.930 . S
H696 C712 0.959 . S
H697 C712 0.959 . S
H698 C712 0.961 . S
H699 C713 0.960 . S
H700 C713 0.961 . S
H701 C713 0.959 . S
H702 C716 0.929 . S
H703 C717 0.931 . S
H704 C719 0.930 . S
C705 H693 0.930 . S
C705 C706 1.399 . S
C705 C710 1.399 . S
C706 C705 1.399 . S
C706 C707 1.376 . S
C707 H694 0.930 . S
C707 C706 1.376 . S
C707 C708 1.388 . S
C708 H695 0.930 . S
C708 C707 1.388 . S
C708 C709 1.390 . S
C709 C708 1.390 . S
C709 C710 1.394 . S
C709 C715 1.465 . S
C710 C705 1.399 . S
C710 C709 1.394 . S
C710 C711 1.516 . S
C711 C710 1.516 . S
C711 C712 1.502 . S
C711 C713 1.561 . S
C711 C714 1.526 . S
C712 H696 0.959 . S
C712 H697 0.959 . S
C712 H698 0.961 . S
C712 C711 1.502 . S
C713 H699 0.960 . S
C713 H700 0.961 . S
C713 H701 0.959 . S
C713 C711 1.561 . S
C714 C711 1.526 . S
C714 C715 1.396 . S
C714 C719 1.390 . S
C715 C709 1.465 . S
C715 C714 1.396 . S
C715 C716 1.399 . S
C716 H702 0.929 . S
C716 C715 1.399 . S
C716 C717 1.385 . S
C717 H703 0.931 . S
C717 C716 1.385 . S
C717 C718 1.389 . S
C718 C717 1.389 . S
C718 C719 1.387 . S
C719 H704 0.930 . S
C719 C714 1.390 . S
C719 C718 1.387 . S
H720 C732 0.930 . S
H721 C734 0.930 . S
H722 C735 0.930 . S
H723 C739 0.959 . S
H724 C739 0.959 . S
H725 C739 0.961 . S
H726 C740 0.960 . S
H727 C740 0.961 . S
H728 C740 0.959 . S
H729 C743 0.929 . S
H730 C744 0.931 . S
H731 C746 0.930 . S
C732 H720 0.930 . S
C732 C733 1.399 . S
C732 C737 1.399 . S
C733 C732 1.399 . S
C733 C734 1.376 . S
C734 H721 0.930 . S
C734 C733 1.376 . S
C734 C735 1.388 . S
C735 H722 0.930 . S
C735 C734 1.388 . S
C735 C736 1.390 . S
C736 C735 1.390 . S
C736 C737 1.394 . S
C736 C742 1.465 . S
C737 C732 1.399 . S
C737 C736 1.394 . S
C737 C738 1.516 . S
C738 C737 1.516 . S
C738 C739 1.502 . S
C738 C740 1.561 . S
C738 C741 1.526 . S
C739 H723 0.959 . S
C739 H724 0.959 . S
C739 H725 0.961 . S
C739 C738 1.502 . S
C740 H726 0.960 . S
C740 H727 0.961 . S
C740 H728 0.959 . S
C740 C738 1.561 . S
C741 C738 1.526 . S
C741 C742 1.396 . S
C741 C746 1.390 . S
C742 C736 1.465 . S
C742 C741 1.396 . S
C742 C743 1.399 . S
C743 H729 0.929 . S
C743 C742 1.399 . S
C743 C744 1.385 . S
C744 H730 0.931 . S
C744 C743 1.385 . S
C744 C745 1.389 . S
C745 C744 1.389 . S
C745 C746 1.387 . S
C746 H731 0.930 . S
C746 C741 1.390 . S
C746 C745 1.387 . S
H747 C759 0.930 1_455 S
H748 C761 0.930 . S
H749 C762 0.930 . S
H750 C766 0.959 . S
H751 C766 0.959 . S
H752 C766 0.961 . S
H753 C767 0.960 . S
H754 C767 0.961 . S
H755 C767 0.959 . S
H756 C770 0.929 . S
H757 C771 0.931 . S
H758 C773 0.930 1_455 S
C759 H747 0.930 1_655 S
C759 C760 1.399 . S
C759 C764 1.399 . S
C760 C759 1.399 . S
C760 C761 1.376 . S
C761 H748 0.930 . S
C761 C760 1.376 . S
C761 C762 1.388 . S
C762 H749 0.930 . S
C762 C761 1.388 . S
C762 C763 1.390 . S
C763 C762 1.390 . S
C763 C764 1.394 . S
C763 C769 1.465 . S
C764 C759 1.399 . S
C764 C763 1.394 . S
C764 C765 1.516 1_655 S
C765 C764 1.516 1_455 S
C765 C766 1.502 . S
C765 C767 1.561 1_455 S
C765 C768 1.526 1_455 S
C766 H750 0.959 . S
C766 H751 0.959 . S
C766 H752 0.961 . S
C766 C765 1.502 . S
C767 H753 0.960 . S
C767 H754 0.961 . S
C767 H755 0.959 . S
C767 C765 1.561 1_655 S
C768 C765 1.526 1_655 S
C768 C769 1.396 . S
C768 C773 1.390 . S
C769 C763 1.465 . S
C769 C768 1.396 . S
C769 C770 1.399 . S
C770 H756 0.929 . S
C770 C769 1.399 . S
C770 C771 1.385 . S
C771 H757 0.931 . S
C771 C770 1.385 . S
C771 C772 1.389 . S
C772 C771 1.389 . S
C772 C773 1.387 . S
C773 H758 0.930 1_655 S
C773 C768 1.390 . S
C773 C772 1.387 . S
H774 C786 0.930 . S
H775 C788 0.930 . S
H776 C789 0.930 . S
H777 C793 0.959 . S
H778 C793 0.959 . S
H779 C793 0.961 . S
H780 C794 0.960 . S
H781 C794 0.961 . S
H782 C794 0.959 . S
H783 C797 0.929 . S
H784 C798 0.931 . S
H785 C800 0.930 . S
C786 H774 0.930 . S
C786 C787 1.399 . S
C786 C791 1.399 . S
C787 C786 1.399 . S
C787 C788 1.376 . S
C788 H775 0.930 . S
C788 C787 1.376 . S
C788 C789 1.388 . S
C789 H776 0.930 . S
C789 C788 1.388 . S
C789 C790 1.390 . S
C790 C789 1.390 . S
C790 C791 1.394 . S
C790 C796 1.465 . S
C791 C786 1.399 . S
C791 C790 1.394 . S
C791 C792 1.516 . S
C792 C791 1.516 . S
C792 C793 1.502 . S
C792 C794 1.561 . S
C792 C795 1.526 . S
C793 H777 0.959 . S
C793 H778 0.959 . S
C793 H779 0.961 . S
C793 C792 1.502 . S
C794 H780 0.960 . S
C794 H781 0.961 . S
C794 H782 0.959 . S
C794 C792 1.561 . S
C795 C792 1.526 . S
C795 C796 1.396 . S
C795 C800 1.390 . S
C796 C790 1.465 . S
C796 C795 1.396 . S
C796 C797 1.399 . S
C797 H783 0.929 . S
C797 C796 1.399 . S
C797 C798 1.385 . S
C798 H784 0.931 . S
C798 C797 1.385 . S
C798 C799 1.389 . S
C799 C798 1.389 . S
C799 C800 1.387 . S
C800 H785 0.930 . S
C800 C795 1.390 . S
C800 C799 1.387 . S
H801 C813 0.930 . S
H802 C815 0.930 . S
H803 C816 0.930 . S
H804 C820 0.959 . S
H805 C820 0.959 . S
H806 C820 0.961 . S
H807 C821 0.960 . S
H808 C821 0.961 . S
H809 C821 0.959 . S
H810 C824 0.929 . S
H811 C825 0.931 . S
H812 C827 0.930 . S
C813 H801 0.930 . S
C813 C814 1.399 . S
C813 C818 1.399 . S
C814 C813 1.399 . S
C814 C815 1.376 . S
C815 H802 0.930 . S
C815 C814 1.376 . S
C815 C816 1.388 . S
C816 H803 0.930 . S
C816 C815 1.388 . S
C816 C817 1.390 . S
C817 C816 1.390 . S
C817 C818 1.394 . S
C817 C823 1.465 . S
C818 C813 1.399 . S
C818 C817 1.394 . S
C818 C819 1.516 . S
C819 C818 1.516 . S
C819 C820 1.502 . S
C819 C821 1.561 . S
C819 C822 1.526 . S
C820 H804 0.959 . S
C820 H805 0.959 . S
C820 H806 0.961 . S
C820 C819 1.502 . S
C821 H807 0.960 . S
C821 H808 0.961 . S
C821 H809 0.959 . S
C821 C819 1.561 . S
C822 C819 1.526 . S
C822 C823 1.396 . S
C822 C827 1.390 . S
C823 C817 1.465 . S
C823 C822 1.396 . S
C823 C824 1.399 . S
C824 H810 0.929 . S
C824 C823 1.399 . S
C824 C825 1.385 . S
C825 H811 0.931 . S
C825 C824 1.385 . S
C825 C826 1.389 . S
C826 C825 1.389 . S
C826 C827 1.387 . S
C827 H812 0.930 . S
C827 C822 1.390 . S
C827 C826 1.387 . S
H828 C840 0.930 . S
H829 C842 0.930 . S
H830 C843 0.930 . S
H831 C847 0.959 . S
H832 C847 0.959 . S
H833 C847 0.961 . S
H834 C848 0.960 . S
H835 C848 0.961 . S
H836 C848 0.959 . S
H837 C851 0.929 . S
H838 C852 0.931 . S
H839 C854 0.930 . S
C840 H828 0.930 . S
C840 C841 1.399 . S
C840 C845 1.399 . S
C841 C840 1.399 . S
C841 C842 1.376 1_565 S
C842 H829 0.930 . S
C842 C841 1.376 1_545 S
C842 C843 1.388 . S
C843 H830 0.930 . S
C843 C842 1.388 . S
C843 C844 1.390 1_545 S
C844 C843 1.390 1_565 S
C844 C845 1.394 . S
C844 C850 1.465 . S
C845 C840 1.399 . S
C845 C844 1.394 . S
C845 C846 1.516 . S
C846 C845 1.516 . S
C846 C847 1.502 . S
C846 C848 1.561 . S
C846 C849 1.526 . S
C847 H831 0.959 . S
C847 H832 0.959 . S
C847 H833 0.961 . S
C847 C846 1.502 . S
C848 H834 0.960 . S
C848 H835 0.961 . S
C848 H836 0.959 . S
C848 C846 1.561 . S
C849 C846 1.526 . S
C849 C850 1.396 . S
C849 C854 1.390 . S
C850 C844 1.465 . S
C850 C849 1.396 . S
C850 C851 1.399 1_565 S
C851 H837 0.929 . S
C851 C850 1.399 1_545 S
C851 C852 1.385 . S
C852 H838 0.931 . S
C852 C851 1.385 . S
C852 C853 1.389 1_545 S
C853 C852 1.389 1_565 S
C853 C854 1.387 . S
C854 H839 0.930 . S
C854 C849 1.390 . S
C854 C853 1.387 . S
H855 C867 0.930 . S
H856 C869 0.930 . S
H857 C870 0.930 . S
H858 C874 0.959 . S
H859 C874 0.959 . S
H860 C874 0.961 . S
H861 C875 0.960 . S
H862 C875 0.961 . S
H863 C875 0.959 . S
H864 C878 0.929 . S
H865 C879 0.931 . S
H866 C881 0.930 . S
C867 H855 0.930 . S
C867 C868 1.399 . S
C867 C872 1.399 . S
C868 C867 1.399 . S
C868 C869 1.376 . S
C869 H856 0.930 . S
C869 C868 1.376 . S
C869 C870 1.388 . S
C870 H857 0.930 . S
C870 C869 1.388 . S
C870 C871 1.390 . S
C871 C870 1.390 . S
C871 C872 1.394 . S
C871 C877 1.465 . S
C872 C867 1.399 . S
C872 C871 1.394 . S
C872 C873 1.516 . S
C873 C872 1.516 . S
C873 C874 1.502 . S
C873 C875 1.561 . S
C873 C876 1.526 . S
C874 H858 0.959 . S
C874 H859 0.959 . S
C874 H860 0.961 . S
C874 C873 1.502 . S
C875 H861 0.960 . S
C875 H862 0.961 . S
C875 H863 0.959 . S
C875 C873 1.561 . S
C876 C873 1.526 . S
C876 C877 1.396 . S
C876 C881 1.390 . S
C877 C871 1.465 . S
C877 C876 1.396 . S
C877 C878 1.399 . S
C878 H864 0.929 . S
C878 C877 1.399 . S
C878 C879 1.385 . S
C879 H865 0.931 . S
C879 C878 1.385 . S
C879 C880 1.389 . S
C880 C879 1.389 . S
C880 C881 1.387 . S
C881 H866 0.930 . S
C881 C876 1.390 . S
C881 C880 1.387 . S
H882 C894 0.930 . S
H883 C896 0.930 . S
H884 C897 0.930 . S
H885 C901 0.959 . S
H886 C901 0.959 . S
H887 C901 0.961 . S
H888 C902 0.960 . S
H889 C902 0.961 . S
H890 C902 0.959 . S
H891 C905 0.929 . S
H892 C906 0.931 . S
H893 C908 0.930 . S
C894 H882 0.930 . S
C894 C895 1.399 . S
C894 C899 1.399 . S
C895 C894 1.399 . S
C895 C896 1.376 . S
C896 H883 0.930 . S
C896 C895 1.376 . S
C896 C897 1.388 . S
C897 H884 0.930 . S
C897 C896 1.388 . S
C897 C898 1.390 . S
C898 C897 1.390 . S
C898 C899 1.394 . S
C898 C904 1.465 . S
C899 C894 1.399 . S
C899 C898 1.394 . S
C899 C900 1.516 . S
C900 C899 1.516 . S
C900 C901 1.502 . S
C900 C902 1.561 . S
C900 C903 1.526 . S
C901 H885 0.959 . S
C901 H886 0.959 . S
C901 H887 0.961 . S
C901 C900 1.502 . S
C902 H888 0.960 . S
C902 H889 0.961 . S
C902 H890 0.959 . S
C902 C900 1.561 . S
C903 C900 1.526 . S
C903 C904 1.396 . S
C903 C908 1.390 . S
C904 C898 1.465 . S
C904 C903 1.396 . S
C904 C905 1.399 . S
C905 H891 0.929 . S
C905 C904 1.399 . S
C905 C906 1.385 . S
C906 H892 0.931 . S
C906 C905 1.385 . S
C906 C907 1.389 . S
C907 C906 1.389 . S
C907 C908 1.387 . S
C908 H893 0.930 . S
C908 C903 1.390 . S
C908 C907 1.387 . S
H909 C921 0.930 . S
H910 C923 0.930 . S
H911 C924 0.930 . S
H912 C928 0.959 . S
H913 C928 0.959 . S
H914 C928 0.961 . S
H915 C929 0.960 . S
H916 C929 0.961 . S
H917 C929 0.959 . S
H918 C932 0.929 . S
H919 C933 0.931 . S
H920 C935 0.930 . S
C921 H909 0.930 . S
C921 C922 1.399 . S
C921 C926 1.399 . S
C922 C921 1.399 . S
C922 C923 1.376 . S
C923 H910 0.930 . S
C923 C922 1.376 . S
C923 C924 1.388 . S
C924 H911 0.930 . S
C924 C923 1.388 . S
C924 C925 1.390 . S
C925 C924 1.390 . S
C925 C926 1.394 . S
C925 C931 1.465 . S
C926 C921 1.399 . S
C926 C925 1.394 . S
C926 C927 1.516 . S
C927 C926 1.516 . S
C927 C928 1.502 . S
C927 C929 1.561 . S
C927 C930 1.526 . S
C928 H912 0.959 . S
C928 H913 0.959 . S
C928 H914 0.961 . S
C928 C927 1.502 . S
C929 H915 0.960 . S
C929 H916 0.961 . S
C929 H917 0.959 . S
C929 C927 1.561 . S
C930 C927 1.526 . S
C930 C931 1.396 . S
C930 C935 1.390 . S
C931 C925 1.465 . S
C931 C930 1.396 . S
C931 C932 1.399 . S
C932 H918 0.929 . S
C932 C931 1.399 . S
C932 C933 1.385 . S
C933 H919 0.931 . S
C933 C932 1.385 . S
C933 C934 1.389 . S
C934 C933 1.389 . S
C934 C935 1.387 . S
C935 H920 0.930 . S
C935 C930 1.390 . S
C935 C934 1.387 . S
H936 C948 0.930 . S
H937 C950 0.930 . S
H938 C951 0.930 . S
H939 C955 0.959 . S
H940 C955 0.959 . S
H941 C955 0.961 . S
H942 C956 0.960 . S
H943 C956 0.961 . S
H944 C956 0.959 . S
H945 C959 0.929 . S
H946 C960 0.931 . S
H947 C962 0.930 . S
C948 H936 0.930 . S
C948 C949 1.399 . S
C948 C953 1.399 . S
C949 C948 1.399 . S
C949 C950 1.376 . S
C950 H937 0.930 . S
C950 C949 1.376 . S
C950 C951 1.388 . S
C951 H938 0.930 . S
C951 C950 1.388 . S
C951 C952 1.390 . S
C952 C951 1.390 . S
C952 C953 1.394 . S
C952 C958 1.465 . S
C953 C948 1.399 . S
C953 C952 1.394 . S
C953 C954 1.516 . S
C954 C953 1.516 . S
C954 C955 1.502 . S
C954 C956 1.561 . S
C954 C957 1.526 . S
C955 H939 0.959 . S
C955 H940 0.959 . S
C955 H941 0.961 . S
C955 C954 1.502 . S
C956 H942 0.960 . S
C956 H943 0.961 . S
C956 H944 0.959 . S
C956 C954 1.561 . S
C957 C954 1.526 . S
C957 C958 1.396 . S
C957 C962 1.390 . S
C958 C952 1.465 . S
C958 C957 1.396 . S
C958 C959 1.399 . S
C959 H945 0.929 . S
C959 C958 1.399 . S
C959 C960 1.385 . S
C960 H946 0.931 . S
C960 C959 1.385 . S
C960 C961 1.389 . S
C961 C960 1.389 . S
C961 C962 1.387 . S
C962 H947 0.930 . S
C962 C957 1.390 . S
C962 C961 1.387 . S
H963 C975 0.930 . S
H964 C977 0.930 . S
H965 C978 0.930 . S
H966 C982 0.959 . S
H967 C982 0.959 . S
H968 C982 0.961 . S
H969 C983 0.960 . S
H970 C983 0.961 . S
H971 C983 0.959 . S
H972 C986 0.929 . S
H973 C987 0.931 . S
H974 C989 0.930 . S
C975 H963 0.930 . S
C975 C976 1.399 . S
C975 C980 1.399 . S
C976 C975 1.399 . S
C976 C977 1.376 . S
C977 H964 0.930 . S
C977 C976 1.376 . S
C977 C978 1.388 . S
C978 H965 0.930 . S
C978 C977 1.388 . S
C978 C979 1.390 . S
C979 C978 1.390 . S
C979 C980 1.394 . S
C979 C985 1.465 . S
C980 C975 1.399 . S
C980 C979 1.394 . S
C980 C981 1.516 . S
C981 C980 1.516 . S
C981 C982 1.502 . S
C981 C983 1.561 . S
C981 C984 1.526 . S
C982 H966 0.959 . S
C982 H967 0.959 . S
C982 H968 0.961 . S
C982 C981 1.502 . S
C983 H969 0.960 . S
C983 H970 0.961 . S
C983 H971 0.959 . S
C983 C981 1.561 . S
C984 C981 1.526 . S
C984 C985 1.396 . S
C984 C989 1.390 . S
C985 C979 1.465 . S
C985 C984 1.396 . S
C985 C986 1.399 . S
C986 H972 0.929 . S
C986 C985 1.399 . S
C986 C987 1.385 . S
C987 H973 0.931 . S
C987 C986 1.385 . S
C987 C988 1.389 . S
C988 C987 1.389 . S
C988 C989 1.387 . S
C989 H974 0.930 . S
C989 C984 1.390 . S
C989 C988 1.387 . S
H990 C1002 0.930 . S
H991 C1004 0.930 . S
H992 C1005 0.930 . S
H993 C1009 0.959 . S
H994 C1009 0.959 . S
H995 C1009 0.961 . S
H996 C1010 0.960 . S
H997 C1010 0.961 . S
H998 C1010 0.959 . S
H999 C1013 0.929 . S
H1000 C1014 0.931 . S
H1001 C1016 0.930 . S
C1002 H990 0.930 . S
C1002 C1003 1.399 . S
C1002 C1007 1.399 . S
C1003 C1002 1.399 . S
C1003 C1004 1.376 1_455 S
C1004 H991 0.930 . S
C1004 C1003 1.376 1_655 S
C1004 C1005 1.388 . S
C1005 H992 0.930 . S
C1005 C1004 1.388 . S
C1005 C1006 1.390 1_655 S
C1006 C1005 1.390 1_455 S
C1006 C1007 1.394 . S
C1006 C1012 1.465 . S
C1007 C1002 1.399 . S
C1007 C1006 1.394 . S
C1007 C1008 1.516 . S
C1008 C1007 1.516 . S
C1008 C1009 1.502 . S
C1008 C1010 1.561 . S
C1008 C1011 1.526 . S
C1009 H993 0.959 . S
C1009 H994 0.959 . S
C1009 H995 0.961 . S
C1009 C1008 1.502 . S
C1010 H996 0.960 . S
C1010 H997 0.961 . S
C1010 H998 0.959 . S
C1010 C1008 1.561 . S
C1011 C1008 1.526 . S
C1011 C1012 1.396 . S
C1011 C1016 1.390 . S
C1012 C1006 1.465 . S
C1012 C1011 1.396 . S
C1012 C1013 1.399 1_455 S
C1013 H999 0.929 . S
C1013 C1012 1.399 1_655 S
C1013 C1014 1.385 . S
C1014 H1000 0.931 . S
C1014 C1013 1.385 . S
C1014 C1015 1.389 1_655 S
C1015 C1014 1.389 1_455 S
C1015 C1016 1.387 . S
C1016 H1001 0.930 . S
C1016 C1011 1.390 . S
C1016 C1015 1.387 . S
H1017 C1029 0.930 . S
H1018 C1031 0.930 . S
H1019 C1032 0.930 . S
H1020 C1036 0.959 . S
H1021 C1036 0.959 . S
H1022 C1036 0.961 . S
H1023 C1037 0.960 . S
H1024 C1037 0.961 . S
H1025 C1037 0.959 . S
H1026 C1040 0.929 . S
H1027 C1041 0.931 . S
H1028 C1043 0.930 . S
C1029 H1017 0.930 . S
C1029 C1030 1.399 . S
C1029 C1034 1.399 . S
C1030 C1029 1.399 . S
C1030 C1031 1.376 . S
C1031 H1018 0.930 . S
C1031 C1030 1.376 . S
C1031 C1032 1.388 . S
C1032 H1019 0.930 . S
C1032 C1031 1.388 . S
C1032 C1033 1.390 . S
C1033 C1032 1.390 . S
C1033 C1034 1.394 . S
C1033 C1039 1.465 . S
C1034 C1029 1.399 . S
C1034 C1033 1.394 . S
C1034 C1035 1.516 . S
C1035 C1034 1.516 . S
C1035 C1036 1.502 . S
C1035 C1037 1.561 . S
C1035 C1038 1.526 . S
C1036 H1020 0.959 . S
C1036 H1021 0.959 . S
C1036 H1022 0.961 . S
C1036 C1035 1.502 . S
C1037 H1023 0.960 . S
C1037 H1024 0.961 . S
C1037 H1025 0.959 . S
C1037 C1035 1.561 . S
C1038 C1035 1.526 . S
C1038 C1039 1.396 . S
C1038 C1043 1.390 . S
C1039 C1033 1.465 . S
C1039 C1038 1.396 . S
C1039 C1040 1.399 . S
C1040 H1026 0.929 . S
C1040 C1039 1.399 . S
C1040 C1041 1.385 . S
C1041 H1027 0.931 . S
C1041 C1040 1.385 . S
C1041 C1042 1.389 . S
C1042 C1041 1.389 . S
C1042 C1043 1.387 . S
C1043 H1028 0.930 . S
C1043 C1038 1.390 . S
C1043 C1042 1.387 . S
H1044 C1056 0.930 . S
H1045 C1058 0.930 1_565 S
H1046 C1059 0.930 1_565 S
H1047 C1063 0.959 . S
H1048 C1063 0.959 . S
H1049 C1063 0.961 . S
H1050 C1064 0.960 . S
H1051 C1064 0.961 . S
H1052 C1064 0.959 . S
H1053 C1067 0.928 . S
H1054 C1068 0.931 . S
H1055 C1070 0.930 . S
C1056 H1044 0.930 . S
C1056 C1057 1.399 . S
C1056 C1061 1.399 . S
C1057 C1056 1.399 . S
C1057 C1058 1.376 . S
C1058 H1045 0.930 1_545 S
C1058 C1057 1.376 . S
C1058 C1059 1.388 . S
C1059 H1046 0.930 1_545 S
C1059 C1058 1.388 . S
C1059 C1060 1.390 . S
C1060 C1059 1.390 . S
C1060 C1061 1.394 . S
C1060 C1066 1.465 . S
C1061 C1056 1.399 . S
C1061 C1060 1.394 . S
C1061 C1062 1.516 . S
C1062 C1061 1.516 . S
C1062 C1063 1.502 . S
C1062 C1064 1.561 . S
C1062 C1065 1.526 . S
C1063 H1047 0.959 . S
C1063 H1048 0.959 . S
C1063 H1049 0.961 . S
C1063 C1062 1.502 . S
C1064 H1050 0.960 . S
C1064 H1051 0.961 . S
C1064 H1052 0.959 . S
C1064 C1062 1.561 . S
C1065 C1062 1.526 . S
C1065 C1066 1.396 . S
C1065 C1070 1.390 . S
C1066 C1060 1.465 . S
C1066 C1065 1.396 . S
C1066 C1067 1.399 . S
C1067 H1053 0.928 . S
C1067 C1066 1.399 . S
C1067 C1068 1.385 . S
C1068 H1054 0.931 . S
C1068 C1067 1.385 . S
C1068 C1069 1.389 . S
C1069 C1068 1.389 . S
C1069 C1070 1.387 . S
C1070 H1055 0.930 . S
C1070 C1065 1.390 . S
C1070 C1069 1.387 . S
H1071 C1083 0.930 . S
H1072 C1085 0.930 . S
H1073 C1086 0.930 . S
H1074 C1090 0.959 . S
H1075 C1090 0.959 . S
H1076 C1090 0.961 . S
H1077 C1091 0.960 . S
H1078 C1091 0.961 . S
H1079 C1091 0.959 . S
H1080 C1094 0.929 . S
H1081 C1095 0.931 . S
H1082 C1097 0.930 . S
C1083 H1071 0.930 . S
C1083 C1084 1.399 . S
C1083 C1088 1.399 . S
C1084 C1083 1.399 . S
C1084 C1085 1.376 1_545 S
C1085 H1072 0.930 . S
C1085 C1084 1.376 1_565 S
C1085 C1086 1.388 . S
C1086 H1073 0.930 . S
C1086 C1085 1.388 . S
C1086 C1087 1.390 1_565 S
C1087 C1086 1.390 1_545 S
C1087 C1088 1.394 . S
C1087 C1093 1.465 . S
C1088 C1083 1.399 . S
C1088 C1087 1.394 . S
C1088 C1089 1.516 . S
C1089 C1088 1.516 . S
C1089 C1090 1.502 . S
C1089 C1091 1.561 . S
C1089 C1092 1.526 . S
C1090 H1074 0.959 . S
C1090 H1075 0.959 . S
C1090 H1076 0.961 . S
C1090 C1089 1.502 . S
C1091 H1077 0.960 . S
C1091 H1078 0.961 . S
C1091 H1079 0.959 . S
C1091 C1089 1.561 . S
C1092 C1089 1.526 . S
C1092 C1093 1.396 . S
C1092 C1097 1.390 . S
C1093 C1087 1.465 . S
C1093 C1092 1.396 . S
C1093 C1094 1.399 1_545 S
C1094 H1080 0.929 . S
C1094 C1093 1.399 1_565 S
C1094 C1095 1.385 . S
C1095 H1081 0.931 . S
C1095 C1094 1.385 . S
C1095 C1096 1.389 1_565 S
C1096 C1095 1.389 1_545 S
C1096 C1097 1.387 . S
C1097 H1082 0.930 . S
C1097 C1092 1.390 . S
C1097 C1096 1.387 . S
H1098 C1110 0.930 . S
H1099 C1112 0.930 . S
H1100 C1113 0.930 1_655 S
H1101 C1117 0.959 . S
H1102 C1117 0.959 . S
H1103 C1117 0.961 . S
H1104 C1118 0.960 . S
H1105 C1118 0.961 . S
H1106 C1118 0.959 . S
H1107 C1121 0.929 1_655 S
H1108 C1122 0.931 1_655 S
H1109 C1124 0.930 . S
C1110 H1098 0.930 . S
C1110 C1111 1.399 . S
C1110 C1115 1.399 . S
C1111 C1110 1.399 . S
C1111 C1112 1.376 . S
C1112 H1099 0.930 . S
C1112 C1111 1.376 . S
C1112 C1113 1.388 . S
C1113 H1100 0.930 1_455 S
C1113 C1112 1.388 . S
C1113 C1114 1.390 . S
C1114 C1113 1.390 . S
C1114 C1115 1.394 . S
C1114 C1120 1.465 . S
C1115 C1110 1.399 . S
C1115 C1114 1.394 . S
C1115 C1116 1.516 . S
C1116 C1115 1.516 . S
C1116 C1117 1.502 . S
C1116 C1118 1.561 . S
C1116 C1119 1.526 . S
C1117 H1101 0.959 . S
C1117 H1102 0.959 . S
C1117 H1103 0.961 . S
C1117 C1116 1.502 . S
C1118 H1104 0.960 . S
C1118 H1105 0.961 . S
C1118 H1106 0.959 . S
C1118 C1116 1.561 . S
C1119 C1116 1.526 . S
C1119 C1120 1.396 . S
C1119 C1124 1.390 . S
C1120 C1114 1.465 . S
C1120 C1119 1.396 . S
C1120 C1121 1.399 . S
C1121 H1107 0.929 1_455 S
C1121 C1120 1.399 . S
C1121 C1122 1.385 . S
C1122 H1108 0.931 1_455 S
C1122 C1121 1.385 . S
C1122 C1123 1.389 . S
C1123 C1122 1.389 . S
C1123 C1124 1.387 . S
C1124 H1109 0.930 . S
C1124 C1119 1.390 . S
C1124 C1123 1.387 . S
H1125 C1137 0.930 . S
H1126 C1139 0.930 . S
H1127 C1140 0.930 . S
H1128 C1144 0.959 . S
H1129 C1144 0.959 . S
H1130 C1144 0.961 . S
H1131 C1145 0.960 . S
H1132 C1145 0.961 . S
H1133 C1145 0.959 . S
H1134 C1148 0.929 . S
H1135 C1149 0.931 . S
H1136 C1151 0.930 . S
C1137 H1125 0.930 . S
C1137 C1138 1.399 . S
C1137 C1142 1.399 . S
C1138 C1137 1.399 . S
C1138 C1139 1.376 . S
C1139 H1126 0.930 . S
C1139 C1138 1.376 . S
C1139 C1140 1.388 . S
C1140 H1127 0.930 . S
C1140 C1139 1.388 . S
C1140 C1141 1.390 . S
C1141 C1140 1.390 . S
C1141 C1142 1.394 . S
C1141 C1147 1.465 . S
C1142 C1137 1.399 . S
C1142 C1141 1.394 . S
C1142 C1143 1.516 . S
C1143 C1142 1.516 . S
C1143 C1144 1.502 . S
C1143 C1145 1.561 . S
C1143 C1146 1.526 . S
C1144 H1128 0.959 . S
C1144 H1129 0.959 . S
C1144 H1130 0.961 . S
C1144 C1143 1.502 . S
C1145 H1131 0.960 . S
C1145 H1132 0.961 . S
C1145 H1133 0.959 . S
C1145 C1143 1.561 . S
C1146 C1143 1.526 . S
C1146 C1147 1.396 . S
C1146 C1151 1.390 . S
C1147 C1141 1.465 . S
C1147 C1146 1.396 . S
C1147 C1148 1.399 . S
C1148 H1134 0.929 . S
C1148 C1147 1.399 . S
C1148 C1149 1.385 . S
C1149 H1135 0.931 . S
C1149 C1148 1.385 . S
C1149 C1150 1.389 . S
C1150 C1149 1.389 . S
C1150 C1151 1.387 . S
C1151 H1136 0.930 . S
C1151 C1146 1.390 . S
C1151 C1150 1.387 . S
H1152 C1164 0.930 . S
H1153 C1166 0.930 . S
H1154 C1167 0.930 . S
H1155 C1171 0.959 1_655 S
H1156 C1171 0.959 . S
H1157 C1171 0.961 . S
H1158 C1172 0.960 . S
H1159 C1172 0.961 . S
H1160 C1172 0.959 . S
H1161 C1175 0.929 . S
H1162 C1176 0.931 . S
H1163 C1178 0.930 . S
C1164 H1152 0.930 . S
C1164 C1165 1.399 . S
C1164 C1169 1.399 . S
C1165 C1164 1.399 . S
C1165 C1166 1.376 . S
C1166 H1153 0.930 . S
C1166 C1165 1.376 . S
C1166 C1167 1.388 . S
C1167 H1154 0.930 . S
C1167 C1166 1.388 . S
C1167 C1168 1.390 . S
C1168 C1167 1.390 . S
C1168 C1169 1.394 . S
C1168 C1174 1.465 . S
C1169 C1164 1.399 . S
C1169 C1168 1.394 . S
C1169 C1170 1.516 . S
C1170 C1169 1.516 . S
C1170 C1171 1.502 . S
C1170 C1172 1.561 . S
C1170 C1173 1.526 . S
C1171 H1155 0.959 1_455 S
C1171 H1156 0.959 . S
C1171 H1157 0.961 . S
C1171 C1170 1.502 . S
C1172 H1158 0.960 . S
C1172 H1159 0.961 . S
C1172 H1160 0.959 . S
C1172 C1170 1.561 . S
C1173 C1170 1.526 . S
C1173 C1174 1.396 . S
C1173 C1178 1.390 . S
C1174 C1168 1.465 . S
C1174 C1173 1.396 . S
C1174 C1175 1.399 . S
C1175 H1161 0.929 . S
C1175 C1174 1.399 . S
C1175 C1176 1.385 . S
C1176 H1162 0.931 . S
C1176 C1175 1.385 . S
C1176 C1177 1.389 . S
C1177 C1176 1.389 . S
C1177 C1178 1.387 . S
C1178 H1163 0.930 . S
C1178 C1173 1.390 . S
C1178 C1177 1.387 . S
H1179 C1191 0.930 . S
H1180 C1193 0.930 . S
H1181 C1194 0.930 . S
H1182 C1198 0.959 . S
H1183 C1198 0.959 . S
H1184 C1198 0.961 . S
H1185 C1199 0.960 . S
H1186 C1199 0.961 . S
H1187 C1199 0.959 . S
H1188 C1202 0.929 . S
H1189 C1203 0.931 . S
H1190 C1205 0.930 . S
C1191 H1179 0.930 . S
C1191 C1192 1.399 . S
C1191 C1196 1.399 . S
C1192 C1191 1.399 . S
C1192 C1193 1.376 . S
C1193 H1180 0.930 . S
C1193 C1192 1.376 . S
C1193 C1194 1.388 . S
C1194 H1181 0.930 . S
C1194 C1193 1.388 . S
C1194 C1195 1.390 . S
C1195 C1194 1.390 . S
C1195 C1196 1.394 . S
C1195 C1201 1.465 . S
C1196 C1191 1.399 . S
C1196 C1195 1.394 . S
C1196 C1197 1.516 . S
C1197 C1196 1.516 . S
C1197 C1198 1.502 . S
C1197 C1199 1.561 . S
C1197 C1200 1.526 . S
C1198 H1182 0.959 . S
C1198 H1183 0.959 . S
C1198 H1184 0.961 . S
C1198 C1197 1.502 . S
C1199 H1185 0.960 . S
C1199 H1186 0.961 . S
C1199 H1187 0.959 . S
C1199 C1197 1.561 . S
C1200 C1197 1.526 . S
C1200 C1201 1.396 . S
C1200 C1205 1.390 . S
C1201 C1195 1.465 . S
C1201 C1200 1.396 . S
C1201 C1202 1.399 . S
C1202 H1188 0.929 . S
C1202 C1201 1.399 . S
C1202 C1203 1.385 . S
C1203 H1189 0.931 . S
C1203 C1202 1.385 . S
C1203 C1204 1.389 . S
C1204 C1203 1.389 . S
C1204 C1205 1.387 . S
C1205 H1190 0.930 . S
C1205 C1200 1.390 . S
C1205 C1204 1.387 . S
H1206 C1218 0.930 1_565 S
H1207 C1220 0.930 . S
H1208 C1221 0.930 . S
H1209 C1225 0.959 . S
H1210 C1225 0.959 . S
H1211 C1225 0.961 . S
H1212 C1226 0.960 . S
H1213 C1226 0.961 . S
H1214 C1226 0.959 . S
H1215 C1229 0.929 . S
H1216 C1230 0.931 . S
H1217 C1232 0.930 . S
C1218 H1206 0.930 1_545 S
C1218 C1219 1.399 . S
C1218 C1223 1.399 . S
C1219 C1218 1.399 . S
C1219 C1220 1.376 . S
C1220 H1207 0.930 . S
C1220 C1219 1.376 . S
C1220 C1221 1.388 . S
C1221 H1208 0.930 . S
C1221 C1220 1.388 . S
C1221 C1222 1.390 . S
C1222 C1221 1.390 . S
C1222 C1223 1.394 . S
C1222 C1228 1.465 . S
C1223 C1218 1.399 . S
C1223 C1222 1.394 . S
C1223 C1224 1.516 1_545 S
C1224 C1223 1.516 1_565 S
C1224 C1225 1.502 . S
C1224 C1226 1.561 . S
C1224 C1227 1.524 1_565 S
C1225 H1209 0.959 . S
C1225 H1210 0.959 . S
C1225 H1211 0.961 . S
C1225 C1224 1.502 . S
C1226 H1212 0.960 . S
C1226 H1213 0.961 . S
C1226 H1214 0.959 . S
C1226 C1224 1.561 . S
C1227 C1224 1.524 1_545 S
C1227 C1228 1.399 . S
C1227 C1232 1.389 1_545 S
C1228 C1222 1.465 . S
C1228 C1227 1.399 . S
C1228 C1229 1.399 . S
C1229 H1215 0.929 . S
C1229 C1228 1.399 . S
C1229 C1230 1.385 . S
C1230 H1216 0.931 . S
C1230 C1229 1.385 . S
C1230 C1231 1.389 . S
C1231 C1230 1.389 . S
C1231 C1232 1.387 1_545 S
C1232 H1217 0.930 . S
C1232 C1227 1.389 1_565 S
C1232 C1231 1.387 1_565 S
H1233 C1245 0.930 . S
H1234 C1247 0.930 . S
H1235 C1248 0.930 . S
H1236 C1252 0.959 . S
H1237 C1252 0.959 . S
H1238 C1252 0.961 . S
H1239 C1253 0.960 . S
H1240 C1253 0.961 . S
H1241 C1253 0.959 . S
H1242 C1256 0.929 . S
H1243 C1257 0.931 . S
H1244 C1259 0.930 . S
C1245 H1233 0.930 . S
C1245 C1246 1.399 . S
C1245 C1250 1.399 . S
C1246 C1245 1.399 . S
C1246 C1247 1.376 . S
C1247 H1234 0.930 . S
C1247 C1246 1.376 . S
C1247 C1248 1.388 . S
C1248 H1235 0.930 . S
C1248 C1247 1.388 . S
C1248 C1249 1.390 . S
C1249 C1248 1.390 . S
C1249 C1250 1.394 . S
C1249 C1255 1.465 . S
C1250 C1245 1.399 . S
C1250 C1249 1.394 . S
C1250 C1251 1.516 . S
C1251 C1250 1.516 . S
C1251 C1252 1.502 . S
C1251 C1253 1.561 . S
C1251 C1254 1.526 . S
C1252 H1236 0.959 . S
C1252 H1237 0.959 . S
C1252 H1238 0.961 . S
C1252 C1251 1.502 . S
C1253 H1239 0.960 . S
C1253 H1240 0.961 . S
C1253 H1241 0.959 . S
C1253 C1251 1.561 . S
C1254 C1251 1.526 . S
C1254 C1255 1.396 . S
C1254 C1259 1.390 . S
C1255 C1249 1.465 . S
C1255 C1254 1.396 . S
C1255 C1256 1.399 . S
C1256 H1242 0.929 . S
C1256 C1255 1.399 . S
C1256 C1257 1.385 . S
C1257 H1243 0.931 . S
C1257 C1256 1.385 . S
C1257 C1258 1.389 . S
C1258 C1257 1.389 . S
C1258 C1259 1.387 . S
C1259 H1244 0.930 . S
C1259 C1254 1.390 . S
C1259 C1258 1.387 . S
H1260 C1272 0.930 1_655 S
H1261 C1274 0.930 . S
H1262 C1275 0.930 . S
H1263 C1279 0.959 . S
H1264 C1279 0.959 . S
H1265 C1279 0.961 . S
H1266 C1280 0.960 1_655 S
H1267 C1280 0.961 1_655 S
H1268 C1280 0.959 . S
H1269 C1283 0.929 . S
H1270 C1284 0.931 . S
H1271 C1286 0.930 . S
C1272 H1260 0.930 1_455 S
C1272 C1273 1.399 . S
C1272 C1277 1.399 . S
C1273 C1272 1.399 . S
C1273 C1274 1.376 . S
C1274 H1261 0.930 . S
C1274 C1273 1.376 . S
C1274 C1275 1.388 . S
C1275 H1262 0.930 . S
C1275 C1274 1.388 . S
C1275 C1276 1.390 . S
C1276 C1275 1.390 . S
C1276 C1277 1.394 . S
C1276 C1282 1.465 . S
C1277 C1272 1.399 . S
C1277 C1276 1.394 . S
C1277 C1278 1.516 1_455 S
C1278 C1277 1.516 1_655 S
C1278 C1279 1.502 . S
C1278 C1280 1.561 1_655 S
C1278 C1281 1.526 1_655 S
C1279 H1263 0.959 . S
C1279 H1264 0.959 . S
C1279 H1265 0.961 . S
C1279 C1278 1.502 . S
C1280 H1266 0.960 1_455 S
C1280 H1267 0.961 1_455 S
C1280 H1268 0.959 . S
C1280 C1278 1.561 1_455 S
C1281 C1278 1.526 1_455 S
C1281 C1282 1.396 . S
C1281 C1286 1.390 1_455 S
C1282 C1276 1.465 . S
C1282 C1281 1.396 . S
C1282 C1283 1.399 . S
C1283 H1269 0.929 . S
C1283 C1282 1.399 . S
C1283 C1284 1.385 . S
C1284 H1270 0.931 . S
C1284 C1283 1.385 . S
C1284 C1285 1.389 . S
C1285 C1284 1.389 . S
C1285 C1286 1.387 1_455 S
C1286 H1271 0.930 . S
C1286 C1281 1.390 1_655 S
C1286 C1285 1.387 1_655 S
H1287 C1299 0.930 . S
H1288 C1301 0.930 . S
H1289 C1302 0.930 . S
H1290 C1306 0.959 . S
H1291 C1306 0.959 . S
H1292 C1306 0.961 . S
H1293 C1307 0.960 . S
H1294 C1307 0.961 . S
H1295 C1307 0.959 . S
H1296 C1310 0.929 . S
H1297 C1311 0.931 . S
H1298 C1313 0.930 . S
C1299 H1287 0.930 . S
C1299 C1300 1.399 . S
C1299 C1304 1.399 . S
C1300 C1299 1.399 . S
C1300 C1301 1.376 . S
C1301 H1288 0.930 . S
C1301 C1300 1.376 . S
C1301 C1302 1.388 . S
C1302 H1289 0.930 . S
C1302 C1301 1.388 . S
C1302 C1303 1.390 . S
C1303 C1302 1.390 . S
C1303 C1304 1.394 . S
C1303 C1309 1.465 . S
C1304 C1299 1.399 . S
C1304 C1303 1.394 . S
C1304 C1305 1.516 . S
C1305 C1304 1.516 . S
C1305 C1306 1.502 . S
C1305 C1307 1.561 . S
C1305 C1308 1.526 . S
C1306 H1290 0.959 . S
C1306 H1291 0.959 . S
C1306 H1292 0.961 . S
C1306 C1305 1.502 . S
C1307 H1293 0.960 . S
C1307 H1294 0.961 . S
C1307 H1295 0.959 . S
C1307 C1305 1.561 . S
C1308 C1305 1.526 . S
C1308 C1309 1.396 . S
C1308 C1313 1.390 . S
C1309 C1303 1.465 . S
C1309 C1308 1.396 . S
C1309 C1310 1.399 . S
C1310 H1296 0.929 . S
C1310 C1309 1.399 . S
C1310 C1311 1.385 . S
C1311 H1297 0.931 . S
C1311 C1310 1.385 . S
C1311 C1312 1.389 . S
C1312 C1311 1.389 . S
C1312 C1313 1.387 . S
C1313 H1298 0.930 . S
C1313 C1308 1.390 . S
C1313 C1312 1.387 . S
H1314 C1326 0.930 . S
H1315 C1328 0.930 . S
H1316 C1329 0.930 . S
H1317 C1333 0.959 . S
H1318 C1333 0.959 . S
H1319 C1333 0.961 . S
H1320 C1334 0.960 . S
H1321 C1334 0.961 . S
H1322 C1334 0.959 . S
H1323 C1337 0.929 . S
H1324 C1338 0.931 . S
H1325 C1340 0.930 . S
C1326 H1314 0.930 . S
C1326 C1327 1.399 . S
C1326 C1331 1.399 . S
C1327 C1326 1.399 . S
C1327 C1328 1.376 . S
C1328 H1315 0.930 . S
C1328 C1327 1.376 . S
C1328 C1329 1.388 . S
C1329 H1316 0.930 . S
C1329 C1328 1.388 . S
C1329 C1330 1.390 . S
C1330 C1329 1.390 . S
C1330 C1331 1.394 . S
C1330 C1336 1.465 . S
C1331 C1326 1.399 . S
C1331 C1330 1.394 . S
C1331 C1332 1.516 . S
C1332 C1331 1.516 . S
C1332 C1333 1.502 . S
C1332 C1334 1.561 . S
C1332 C1335 1.526 . S
C1333 H1317 0.959 . S
C1333 H1318 0.959 . S
C1333 H1319 0.961 . S
C1333 C1332 1.502 . S
C1334 H1320 0.960 . S
C1334 H1321 0.961 . S
C1334 H1322 0.959 . S
C1334 C1332 1.561 . S
C1335 C1332 1.526 . S
C1335 C1336 1.396 . S
C1335 C1340 1.390 . S
C1336 C1330 1.465 . S
C1336 C1335 1.396 . S
C1336 C1337 1.399 . S
C1337 H1323 0.929 . S
C1337 C1336 1.399 . S
C1337 C1338 1.385 . S
C1338 H1324 0.931 . S
C1338 C1337 1.385 . S
C1338 C1339 1.389 . S
C1339 C1338 1.389 . S
C1339 C1340 1.387 . S
C1340 H1325 0.930 . S
C1340 C1335 1.390 . S
C1340 C1339 1.387 . S
H1341 C1353 0.930 . S
H1342 C1355 0.930 . S
H1343 C1356 0.930 1_565 S
H1344 C1360 0.959 . S
H1345 C1360 0.959 . S
H1346 C1360 0.961 . S
H1347 C1361 0.960 . S
H1348 C1361 0.961 . S
H1349 C1361 0.959 . S
H1350 C1364 0.929 . S
H1351 C1365 0.931 . S
H1352 C1367 0.930 . S
C1353 H1341 0.930 . S
C1353 C1354 1.399 . S
C1353 C1358 1.399 . S
C1354 C1353 1.399 . S
C1354 C1355 1.376 . S
C1355 H1342 0.930 . S
C1355 C1354 1.376 . S
C1355 C1356 1.388 . S
C1356 H1343 0.930 1_545 S
C1356 C1355 1.388 . S
C1356 C1357 1.390 . S
C1357 C1356 1.390 . S
C1357 C1358 1.394 . S
C1357 C1363 1.465 . S
C1358 C1353 1.399 . S
C1358 C1357 1.394 . S
C1358 C1359 1.516 . S
C1359 C1358 1.516 . S
C1359 C1360 1.502 . S
C1359 C1361 1.561 . S
C1359 C1362 1.526 . S
C1360 H1344 0.959 . S
C1360 H1345 0.959 . S
C1360 H1346 0.961 . S
C1360 C1359 1.502 . S
C1361 H1347 0.960 . S
C1361 H1348 0.961 . S
C1361 H1349 0.959 . S
C1361 C1359 1.561 . S
C1362 C1359 1.526 . S
C1362 C1363 1.396 . S
C1362 C1367 1.390 . S
C1363 C1357 1.465 . S
C1363 C1362 1.396 . S
C1363 C1364 1.399 1_545 S
C1364 H1350 0.929 . S
C1364 C1363 1.399 1_565 S
C1364 C1365 1.385 . S
C1365 H1351 0.931 . S
C1365 C1364 1.385 . S
C1365 C1366 1.389 1_565 S
C1366 C1365 1.389 1_545 S
C1366 C1367 1.387 . S
C1367 H1352 0.930 . S
C1367 C1362 1.390 . S
C1367 C1366 1.387 . S
H1368 C1380 0.930 1_655 S
H1369 C1382 0.930 . S
H1370 C1383 0.930 . S
H1371 C1387 0.959 . S
H1372 C1387 0.959 . S
H1373 C1387 0.961 . S
H1374 C1388 0.971 . S
H1375 C1388 0.967 . S
H1376 C1388 0.929 1_455 S
H1377 C1391 0.929 . S
H1378 C1392 0.931 . S
H1379 C1394 0.930 . S
C1380 H1368 0.930 1_455 S
C1380 C1381 1.399 . S
C1380 C1385 1.399 . S
C1381 C1380 1.399 . S
C1381 C1382 1.376 . S
C1382 H1369 0.930 . S
C1382 C1381 1.376 . S
C1382 C1383 1.388 . S
C1383 H1370 0.930 . S
C1383 C1382 1.388 . S
C1383 C1384 1.390 . S
C1384 C1383 1.390 . S
C1384 C1385 1.394 . S
C1384 C1390 1.465 . S
C1385 C1380 1.399 . S
C1385 C1384 1.394 . S
C1385 C1386 1.516 . S
C1386 C1385 1.516 . S
C1386 C1387 1.502 1_455 S
C1386 C1388 1.575 1_455 S
C1386 C1389 1.526 . S
C1387 H1371 0.959 . S
C1387 H1372 0.959 . S
C1387 H1373 0.961 . S
C1387 C1386 1.502 1_655 S
C1388 H1374 0.971 . S
C1388 H1375 0.967 . S
C1388 H1376 0.929 1_655 S
C1388 C1386 1.575 1_655 S
C1389 C1386 1.526 . S
C1389 C1390 1.396 . S
C1389 C1394 1.390 . S
C1390 C1384 1.465 . S
C1390 C1389 1.396 . S
C1390 C1391 1.399 . S
C1391 H1377 0.929 . S
C1391 C1390 1.399 . S
C1391 C1392 1.385 . S
C1392 H1378 0.931 . S
C1392 C1391 1.385 . S
C1392 C1393 1.389 . S
C1393 C1392 1.389 . S
C1393 C1394 1.387 . S
C1394 H1379 0.930 . S
C1394 C1389 1.390 . S
C1394 C1393 1.387 . S
H1395 C1407 0.930 . S
H1396 C1409 0.930 . S
H1397 C1410 0.930 . S
H1398 C1414 0.959 . S
H1399 C1414 0.959 . S
H1400 C1414 0.961 . S
H1401 C1415 0.960 . S
H1402 C1415 0.961 . S
H1403 C1415 0.959 . S
H1404 C1418 0.929 . S
H1405 C1419 0.931 . S
H1406 C1421 0.930 . S
C1407 H1395 0.930 . S
C1407 C1408 1.399 . S
C1407 C1412 1.399 . S
C1408 C1407 1.399 . S
C1408 C1409 1.376 . S
C1409 H1396 0.930 . S
C1409 C1408 1.376 . S
C1409 C1410 1.388 . S
C1410 H1397 0.930 . S
C1410 C1409 1.388 . S
C1410 C1411 1.390 . S
C1411 C1410 1.390 . S
C1411 C1412 1.394 . S
C1411 C1417 1.465 . S
C1412 C1407 1.399 . S
C1412 C1411 1.394 . S
C1412 C1413 1.516 . S
C1413 C1412 1.516 . S
C1413 C1414 1.502 . S
C1413 C1415 1.561 . S
C1413 C1416 1.526 . S
C1414 H1398 0.959 . S
C1414 H1399 0.959 . S
C1414 H1400 0.961 . S
C1414 C1413 1.502 . S
C1415 H1401 0.960 . S
C1415 H1402 0.961 . S
C1415 H1403 0.959 . S
C1415 C1413 1.561 . S
C1416 C1413 1.526 . S
C1416 C1417 1.396 . S
C1416 C1421 1.390 . S
C1417 C1411 1.465 . S
C1417 C1416 1.396 . S
C1417 C1418 1.399 . S
C1418 H1404 0.929 . S
C1418 C1417 1.399 . S
C1418 C1419 1.385 . S
C1419 H1405 0.931 . S
C1419 C1418 1.385 . S
C1419 C1420 1.389 . S
C1420 C1419 1.389 . S
C1420 C1421 1.387 . S
C1421 H1406 0.930 . S
C1421 C1416 1.390 . S
C1421 C1420 1.387 . S
H1422 C1434 0.920 1_565 S
H1423 C1436 0.930 . S
H1424 C1437 0.930 . S
H1425 C1441 0.964 . S
H1426 C1441 0.959 . S
H1427 C1441 0.961 . S
H1428 C1442 0.960 . S
H1429 C1442 0.961 . S
H1430 C1442 0.959 . S
H1431 C1445 0.929 . S
H1432 C1446 0.931 . S
H1433 C1448 0.930 . S
C1434 H1422 0.920 1_545 S
C1434 C1435 1.405 . S
C1434 C1439 1.403 . S
C1435 C1434 1.405 . S
C1435 C1436 1.376 . S
C1436 H1423 0.930 . S
C1436 C1435 1.376 . S
C1436 C1437 1.388 . S
C1437 H1424 0.930 . S
C1437 C1436 1.388 . S
C1437 C1438 1.390 . S
C1438 C1437 1.390 . S
C1438 C1439 1.394 . S
C1438 C1444 1.465 . S
C1439 C1434 1.403 . S
C1439 C1438 1.394 . S
C1439 C1440 1.516 1_545 S
C1440 C1439 1.516 1_565 S
C1440 C1441 1.502 . S
C1440 C1442 1.561 . S
C1440 C1443 1.526 1_565 S
C1441 H1425 0.964 . S
C1441 H1426 0.959 . S
C1441 H1427 0.961 . S
C1441 C1440 1.502 . S
C1442 H1428 0.960 . S
C1442 H1429 0.961 . S
C1442 H1430 0.959 . S
C1442 C1440 1.561 . S
C1443 C1440 1.526 1_545 S
C1443 C1444 1.396 . S
C1443 C1448 1.390 . S
C1444 C1438 1.465 . S
C1444 C1443 1.396 . S
C1444 C1445 1.399 . S
C1445 H1431 0.929 . S
C1445 C1444 1.399 . S
C1445 C1446 1.385 . S
C1446 H1432 0.931 . S
C1446 C1445 1.385 . S
C1446 C1447 1.389 . S
C1447 C1446 1.389 . S
C1447 C1448 1.387 . S
C1448 H1433 0.930 . S
C1448 C1443 1.390 . S
C1448 C1447 1.387 . S
H1449 C1461 0.930 . S
H1450 C1463 0.930 . S
H1451 C1464 0.931 . S
H1452 C1468 0.959 . S
H1453 C1468 0.959 . S
H1454 C1468 0.961 . S
H1455 C1469 0.960 . S
H1456 C1469 0.961 . S
H1457 C1469 0.959 . S
H1458 C1472 0.929 . S
H1459 C1473 0.931 . S
H1460 C1475 0.930 . S
C1461 H1449 0.930 . S
C1461 C1462 1.399 . S
C1461 C1466 1.399 . S
C1462 C1461 1.399 . S
C1462 C1463 1.376 1_455 S
C1463 H1450 0.930 . S
C1463 C1462 1.376 1_655 S
C1463 C1464 1.392 . S
C1464 H1451 0.931 . S
C1464 C1463 1.392 . S
C1464 C1465 1.386 1_655 S
C1465 C1464 1.386 1_455 S
C1465 C1466 1.394 . S
C1465 C1471 1.465 . S
C1466 C1461 1.399 . S
C1466 C1465 1.394 . S
C1466 C1467 1.516 . S
C1467 C1466 1.516 . S
C1467 C1468 1.502 . S
C1467 C1469 1.561 . S
C1467 C1470 1.526 . S
C1468 H1452 0.959 . S
C1468 H1453 0.959 . S
C1468 H1454 0.961 . S
C1468 C1467 1.502 . S
C1469 H1455 0.960 . S
C1469 H1456 0.961 . S
C1469 H1457 0.959 . S
C1469 C1467 1.561 . S
C1470 C1467 1.526 . S
C1470 C1471 1.396 . S
C1470 C1475 1.390 . S
C1471 C1465 1.465 . S
C1471 C1470 1.396 . S
C1471 C1472 1.399 . S
C1472 H1458 0.929 . S
C1472 C1471 1.399 . S
C1472 C1473 1.385 . S
C1473 H1459 0.931 . S
C1473 C1472 1.385 . S
C1473 C1474 1.389 . S
C1474 C1473 1.389 . S
C1474 C1475 1.387 . S
C1475 H1460 0.930 . S
C1475 C1470 1.390 . S
C1475 C1474 1.387 . S
H1476 C1488 0.930 . S
H1477 C1490 0.930 . S
H1478 C1491 0.930 . S
H1479 C1495 0.965 . S
H1480 C1495 0.992 . S
H1481 C1495 0.925 1_554 S
H1482 C1496 1.001 . S
H1483 C1496 0.925 1_556 S
H1484 C1496 0.957 1_556 S
H1485 C1499 0.929 . S
H1486 C1500 0.931 . S
H1487 C1502 0.930 . S
C1488 H1476 0.930 . S
C1488 C1489 1.399 . S
C1488 C1493 1.399 . S
C1489 C1488 1.399 . S
C1489 C1490 1.376 . S
C1490 H1477 0.930 . S
C1490 C1489 1.376 . S
C1490 C1491 1.388 . S
C1491 H1478 0.930 . S
C1491 C1490 1.388 . S
C1491 C1492 1.390 . S
C1492 C1491 1.390 . S
C1492 C1493 1.394 . S
C1492 C1498 1.465 1_554 S
C1493 C1488 1.399 . S
C1493 C1492 1.394 . S
C1493 C1494 1.516 . S
C1494 C1493 1.516 . S
C1494 C1495 1.501 1_554 S
C1494 C1496 1.560 1_455 S
C1494 C1497 1.526 1_554 S
C1495 H1479 0.965 . S
C1495 H1480 0.992 . S
C1495 H1481 0.925 1_556 S
C1495 C1494 1.501 1_556 S
C1496 H1482 1.001 . S
C1496 H1483 0.925 1_554 S
C1496 H1484 0.957 1_554 S
C1496 C1494 1.560 1_655 S
C1497 C1494 1.526 1_556 S
C1497 C1498 1.396 . S
C1497 C1502 1.390 . S
C1498 C1492 1.465 1_556 S
C1498 C1497 1.396 . S
C1498 C1499 1.399 . S
C1499 H1485 0.929 . S
C1499 C1498 1.399 . S
C1499 C1500 1.385 . S
C1500 H1486 0.931 . S
C1500 C1499 1.385 . S
C1500 C1501 1.389 . S
C1501 C1500 1.389 . S
C1501 C1502 1.387 . S
C1502 H1487 0.930 . S
C1502 C1497 1.390 . S
C1502 C1501 1.387 . S
H1503 C1515 0.930 . S
H1504 C1517 0.930 . S
H1505 C1518 0.930 . S
H1506 C1522 0.963 . S
H1507 C1522 0.980 . S
H1508 C1522 0.937 1_556 S
H1509 C1523 1.011 . S
H1510 C1523 0.917 1_554 S
H1511 C1523 0.957 . S
H1512 C1526 0.929 . S
H1513 C1527 0.931 . S
H1514 C1529 0.930 . S
C1515 H1503 0.930 . S
C1515 C1516 1.399 . S
C1515 C1520 1.399 . S
C1516 C1515 1.399 . S
C1516 C1517 1.376 . S
C1517 H1504 0.930 . S
C1517 C1516 1.376 . S
C1517 C1518 1.388 . S
C1518 H1505 0.930 . S
C1518 C1517 1.388 . S
C1518 C1519 1.390 . S
C1519 C1518 1.390 . S
C1519 C1520 1.394 . S
C1519 C1525 1.465 1_556 S
C1520 C1515 1.399 . S
C1520 C1519 1.394 . S
C1520 C1521 1.523 . S
C1521 C1520 1.523 . S
C1521 C1522 1.501 1_556 S
C1521 C1523 1.560 . S
C1521 C1524 1.519 1_556 S
C1522 H1506 0.963 . S
C1522 H1507 0.980 . S
C1522 H1508 0.937 1_554 S
C1522 C1521 1.501 1_554 S
C1523 H1509 1.011 . S
C1523 H1510 0.917 1_556 S
C1523 H1511 0.957 . S
C1523 C1521 1.560 . S
C1524 C1521 1.519 1_554 S
C1524 C1525 1.396 . S
C1524 C1529 1.390 . S
C1525 C1519 1.465 1_554 S
C1525 C1524 1.396 . S
C1525 C1526 1.399 . S
C1526 H1512 0.929 . S
C1526 C1525 1.399 . S
C1526 C1527 1.385 . S
C1527 H1513 0.931 . S
C1527 C1526 1.385 . S
C1527 C1528 1.389 . S
C1528 C1527 1.389 . S
C1528 C1529 1.387 . S
C1529 H1514 0.930 . S
C1529 C1524 1.390 . S
C1529 C1528 1.387 . S
H1530 C1542 0.930 . S
H1531 C1544 0.930 1_565 S
H1532 C1545 0.930 . S
H1533 C1549 0.959 . S
H1534 C1549 0.959 . S
H1535 C1549 0.961 1_556 S
H1536 C1550 0.960 1_556 S
H1537 C1550 0.961 . S
H1538 C1550 0.959 . S
H1539 C1553 0.929 . S
H1540 C1554 0.936 . S
H1541 C1556 0.930 . S
C1542 H1530 0.930 . S
C1542 C1543 1.399 . S
C1542 C1547 1.399 . S
C1543 C1542 1.399 . S
C1543 C1544 1.376 . S
C1544 H1531 0.930 1_545 S
C1544 C1543 1.376 . S
C1544 C1545 1.388 1_545 S
C1545 H1532 0.930 . S
C1545 C1544 1.388 1_565 S
C1545 C1546 1.390 1_565 S
C1546 C1545 1.390 1_545 S
C1546 C1547 1.394 . S
C1546 C1552 1.465 1_556 S
C1547 C1542 1.399 . S
C1547 C1546 1.394 . S
C1547 C1548 1.476 1_556 S
C1548 C1547 1.476 1_554 S
C1548 C1549 1.504 . S
C1548 C1550 1.564 . S
C1548 C1551 1.564 . S
C1549 H1533 0.959 . S
C1549 H1534 0.959 . S
C1549 H1535 0.961 1_554 S
C1549 C1548 1.504 . S
C1550 H1536 0.960 1_554 S
C1550 H1537 0.961 . S
C1550 H1538 0.959 . S
C1550 C1548 1.564 . S
C1551 C1548 1.564 . S
C1551 C1552 1.396 . S
C1551 C1556 1.390 . S
C1552 C1546 1.465 1_554 S
C1552 C1551 1.396 . S
C1552 C1553 1.399 1_545 S
C1553 H1539 0.929 . S
C1553 C1552 1.399 1_565 S
C1553 C1554 1.386 . S
C1554 H1540 0.936 . S
C1554 C1553 1.386 . S
C1554 C1555 1.384 1_565 S
C1555 C1554 1.384 1_545 S
C1555 C1556 1.387 . S
C1556 H1541 0.930 . S
C1556 C1551 1.390 . S
C1556 C1555 1.387 . S
H1557 C1569 0.930 . S
H1558 C1571 0.930 . S
H1559 C1572 0.930 . S
H1560 C1576 0.958 1_554 S
H1561 C1576 0.938 1_554 S
H1562 C1576 0.985 . S
H1563 C1577 0.946 1_556 S
H1564 C1577 0.974 . S
H1565 C1577 0.992 . S
H1566 C1580 0.929 . S
H1567 C1581 0.931 . S
H1568 C1583 0.930 . S
C1569 H1557 0.930 . S
C1569 C1570 1.399 . S
C1569 C1574 1.399 . S
C1570 C1569 1.399 . S
C1570 C1571 1.376 . S
C1571 H1558 0.930 . S
C1571 C1570 1.376 . S
C1571 C1572 1.388 . S
C1572 H1559 0.930 . S
C1572 C1571 1.388 . S
C1572 C1573 1.390 . S
C1573 C1572 1.390 . S
C1573 C1574 1.394 . S
C1573 C1579 1.465 1_556 S
C1574 C1569 1.399 . S
C1574 C1573 1.394 . S
C1574 C1575 1.519 . S
C1575 C1574 1.519 . S
C1575 C1576 1.502 . S
C1575 C1577 1.561 1_556 S
C1575 C1578 1.523 1_556 S
C1576 H1560 0.958 1_556 S
C1576 H1561 0.938 1_556 S
C1576 H1562 0.985 . S
C1576 C1575 1.502 . S
C1577 H1563 0.946 1_554 S
C1577 H1564 0.974 . S
C1577 H1565 0.992 . S
C1577 C1575 1.561 1_554 S
C1578 C1575 1.523 1_554 S
C1578 C1579 1.396 . S
C1578 C1583 1.390 . S
C1579 C1573 1.465 1_554 S
C1579 C1578 1.396 . S
C1579 C1580 1.399 . S
C1580 H1566 0.929 . S
C1580 C1579 1.399 . S
C1580 C1581 1.385 . S
C1581 H1567 0.931 . S
C1581 C1580 1.385 . S
C1581 C1582 1.389 . S
C1582 C1581 1.389 . S
C1582 C1583 1.387 . S
C1583 H1568 0.930 . S
C1583 C1578 1.390 . S
C1583 C1582 1.387 . S
H1584 C1596 0.930 . S
H1585 C1598 0.930 . S
H1586 C1599 0.930 . S
H1587 C1603 0.957 1_556 S
H1588 C1603 0.919 1_556 S
H1589 C1603 1.008 . S
H1590 C1604 0.971 . S
H1591 C1604 0.952 1_556 S
H1592 C1604 0.958 1_556 S
H1593 C1607 0.929 . S
H1594 C1608 0.931 . S
H1595 C1610 0.930 . S
C1596 H1584 0.930 . S
C1596 C1597 1.399 . S
C1596 C1601 1.399 . S
C1597 C1596 1.399 . S
C1597 C1598 1.376 . S
C1598 H1585 0.930 . S
C1598 C1597 1.376 . S
C1598 C1599 1.388 . S
C1599 H1586 0.930 . S
C1599 C1598 1.388 . S
C1599 C1600 1.390 . S
C1600 C1599 1.390 . S
C1600 C1601 1.394 . S
C1600 C1606 1.465 1_554 S
C1601 C1596 1.399 . S
C1601 C1600 1.394 . S
C1601 C1602 1.537 . S
C1602 C1601 1.537 . S
C1602 C1603 1.501 . S
C1602 C1604 1.561 . S
C1602 C1605 1.505 1_554 S
C1603 H1587 0.957 1_554 S
C1603 H1588 0.919 1_554 S
C1603 H1589 1.008 . S
C1603 C1602 1.501 . S
C1604 H1590 0.971 . S
C1604 H1591 0.952 1_554 S
C1604 H1592 0.958 1_554 S
C1604 C1602 1.561 . S
C1605 C1602 1.505 1_556 S
C1605 C1606 1.396 . S
C1605 C1610 1.390 . S
C1606 C1600 1.465 1_556 S
C1606 C1605 1.396 . S
C1606 C1607 1.399 . S
C1607 H1593 0.929 . S
C1607 C1606 1.399 . S
C1607 C1608 1.385 . S
C1608 H1594 0.931 . S
C1608 C1607 1.385 . S
C1608 C1609 1.389 . S
C1609 C1608 1.389 . S
C1609 C1610 1.387 . S
C1610 H1595 0.930 . S
C1610 C1605 1.390 . S
C1610 C1609 1.387 . S
H1611 C1623 0.930 1_565 S
H1612 C1625 0.930 . S
H1613 C1626 0.930 . S
H1614 C1630 0.946 1_544 S
H1615 C1630 0.932 1_554 S
H1616 C1630 0.993 . S
H1617 C1631 0.960 . S
H1618 C1631 0.961 1_554 S
H1619 C1631 0.959 1_554 S
H1620 C1634 0.929 . S
H1621 C1635 0.931 . S
H1622 C1637 0.930 1_565 S
C1623 H1611 0.930 1_545 S
C1623 C1624 1.399 . S
C1623 C1628 1.399 . S
C1624 C1623 1.399 . S
C1624 C1625 1.376 . S
C1625 H1612 0.930 . S
C1625 C1624 1.376 . S
C1625 C1626 1.388 . S
C1626 H1613 0.930 . S
C1626 C1625 1.388 . S
C1626 C1627 1.390 . S
C1627 C1626 1.390 . S
C1627 C1628 1.394 . S
C1627 C1633 1.465 1_556 S
C1628 C1623 1.399 . S
C1628 C1627 1.394 . S
C1628 C1629 1.548 1_545 S
C1629 C1628 1.548 1_565 S
C1629 C1630 1.502 . S
C1629 C1631 1.563 . S
C1629 C1632 1.492 1_566 S
C1630 H1614 0.946 1_566 S
C1630 H1615 0.932 1_556 S
C1630 H1616 0.993 . S
C1630 C1629 1.502 . S
C1631 H1617 0.960 . S
C1631 H1618 0.961 1_556 S
C1631 H1619 0.959 1_556 S
C1631 C1629 1.563 . S
C1632 C1629 1.492 1_544 S
C1632 C1633 1.396 . S
C1632 C1637 1.390 . S
C1633 C1627 1.465 1_554 S
C1633 C1632 1.396 . S
C1633 C1634 1.399 . S
C1634 H1620 0.929 . S
C1634 C1633 1.399 . S
C1634 C1635 1.385 . S
C1635 H1621 0.931 . S
C1635 C1634 1.385 . S
C1635 C1636 1.389 . S
C1636 C1635 1.389 . S
C1636 C1637 1.387 . S
C1637 H1622 0.930 1_545 S
C1637 C1632 1.390 . S
C1637 C1636 1.387 . S
H1638 C1650 0.930 . S
H1639 C1652 0.930 . S
H1640 C1653 0.930 . S
H1641 C1657 0.959 . S
H1642 C1657 0.959 . S
H1643 C1657 0.961 . S
H1644 C1658 0.960 . S
H1645 C1658 0.961 . S
H1646 C1658 0.959 . S
H1647 C1661 0.929 . S
H1648 C1662 0.931 . S
H1649 C1664 0.930 . S
C1650 H1638 0.930 . S
C1650 C1651 1.399 . S
C1650 C1655 1.399 . S
C1651 C1650 1.399 . S
C1651 C1652 1.376 . S
C1652 H1639 0.930 . S
C1652 C1651 1.376 . S
C1652 C1653 1.388 . S
C1653 H1640 0.930 . S
C1653 C1652 1.388 . S
C1653 C1654 1.390 . S
C1654 C1653 1.390 . S
C1654 C1655 1.394 . S
C1654 C1660 1.465 . S
C1655 C1650 1.399 . S
C1655 C1654 1.394 . S
C1655 C1656 1.516 . S
C1656 C1655 1.516 . S
C1656 C1657 1.502 . S
C1656 C1658 1.561 . S
C1656 C1659 1.526 . S
C1657 H1641 0.959 . S
C1657 H1642 0.959 . S
C1657 H1643 0.961 . S
C1657 C1656 1.502 . S
C1658 H1644 0.960 . S
C1658 H1645 0.961 . S
C1658 H1646 0.959 . S
C1658 C1656 1.561 . S
C1659 C1656 1.526 . S
C1659 C1660 1.396 . S
C1659 C1664 1.390 . S
C1660 C1654 1.465 . S
C1660 C1659 1.396 . S
C1660 C1661 1.399 . S
C1661 H1647 0.929 . S
C1661 C1660 1.399 . S
C1661 C1662 1.385 . S
C1662 H1648 0.931 . S
C1662 C1661 1.385 . S
C1662 C1663 1.389 . S
C1663 C1662 1.389 . S
C1663 C1664 1.387 . S
C1664 H1649 0.930 . S
C1664 C1659 1.390 . S
C1664 C1663 1.387 . S
H1665 C1677 0.930 . S
H1666 C1679 0.930 . S
H1667 C1680 0.930 . S
H1668 C1684 0.959 . S
H1669 C1684 0.959 . S
H1670 C1684 0.961 . S
H1671 C1685 0.960 1_565 S
H1672 C1685 0.961 1_565 S
H1673 C1685 0.959 . S
H1674 C1688 0.929 . S
H1675 C1689 0.931 . S
H1676 C1691 0.930 . S
C1677 H1665 0.930 . S
C1677 C1678 1.399 . S
C1677 C1682 1.399 . S
C1678 C1677 1.399 . S
C1678 C1679 1.376 . S
C1679 H1666 0.930 . S
C1679 C1678 1.376 . S
C1679 C1680 1.388 . S
C1680 H1667 0.930 . S
C1680 C1679 1.388 . S
C1680 C1681 1.390 . S
C1681 C1680 1.390 . S
C1681 C1682 1.394 . S
C1681 C1687 1.465 . S
C1682 C1677 1.399 . S
C1682 C1681 1.394 . S
C1682 C1683 1.516 . S
C1683 C1682 1.516 . S
C1683 C1684 1.502 . S
C1683 C1685 1.561 . S
C1683 C1686 1.526 . S
C1684 H1668 0.959 . S
C1684 H1669 0.959 . S
C1684 H1670 0.961 . S
C1684 C1683 1.502 . S
C1685 H1671 0.960 1_545 S
C1685 H1672 0.961 1_545 S
C1685 H1673 0.959 . S
C1685 C1683 1.561 . S
C1686 C1683 1.526 . S
C1686 C1687 1.396 . S
C1686 C1691 1.390 . S
C1687 C1681 1.465 . S
C1687 C1686 1.396 . S
C1687 C1688 1.399 . S
C1688 H1674 0.929 . S
C1688 C1687 1.399 . S
C1688 C1689 1.385 . S
C1689 H1675 0.931 . S
C1689 C1688 1.385 . S
C1689 C1690 1.389 . S
C1690 C1689 1.389 . S
C1690 C1691 1.387 . S
C1691 H1676 0.930 . S
C1691 C1686 1.390 . S
C1691 C1690 1.387 . S
H1692 C1704 0.930 . S
H1693 C1706 0.930 . S
H1694 C1707 0.930 . S
H1695 C1711 0.959 . S
H1696 C1711 0.959 . S
H1697 C1711 0.961 . S
H1698 C1712 0.960 . S
H1699 C1712 0.961 . S
H1700 C1712 0.959 . S
H1701 C1715 0.929 . S
H1702 C1716 0.931 . S
H1703 C1718 0.930 1_455 S
C1704 H1692 0.930 . S
C1704 C1705 1.399 . S
C1704 C1709 1.399 . S
C1705 C1704 1.399 . S
C1705 C1706 1.376 . S
C1706 H1693 0.930 . S
C1706 C1705 1.376 . S
C1706 C1707 1.388 . S
C1707 H1694 0.930 . S
C1707 C1706 1.388 . S
C1707 C1708 1.390 . S
C1708 C1707 1.390 . S
C1708 C1709 1.394 . S
C1708 C1714 1.465 . S
C1709 C1704 1.399 . S
C1709 C1708 1.394 . S
C1709 C1710 1.516 1_655 S
C1710 C1709 1.516 1_455 S
C1710 C1711 1.502 1_455 S
C1710 C1712 1.561 . S
C1710 C1713 1.526 1_455 S
C1711 H1695 0.959 . S
C1711 H1696 0.959 . S
C1711 H1697 0.961 . S
C1711 C1710 1.502 1_655 S
C1712 H1698 0.960 . S
C1712 H1699 0.961 . S
C1712 H1700 0.959 . S
C1712 C1710 1.561 . S
C1713 C1710 1.526 1_655 S
C1713 C1714 1.396 . S
C1713 C1718 1.390 . S
C1714 C1708 1.465 . S
C1714 C1713 1.396 . S
C1714 C1715 1.399 . S
C1715 H1701 0.929 . S
C1715 C1714 1.399 . S
C1715 C1716 1.385 . S
C1716 H1702 0.931 . S
C1716 C1715 1.385 . S
C1716 C1717 1.389 . S
C1717 C1716 1.389 . S
C1717 C1718 1.387 . S
C1718 H1703 0.930 1_655 S
C1718 C1713 1.390 . S
C1718 C1717 1.387 . S
H1719 C1731 0.930 . S
H1720 C1733 0.930 . S
H1721 C1734 0.930 . S
H1722 C1738 0.959 . S
H1723 C1738 0.959 1_565 S
H1724 C1738 0.961 1_565 S
H1725 C1739 0.960 . S
H1726 C1739 0.961 . S
H1727 C1739 0.959 . S
H1728 C1742 0.929 . S
H1729 C1743 0.931 . S
H1730 C1745 0.930 . S
C1731 H1719 0.930 . S
C1731 C1732 1.399 . S
C1731 C1736 1.399 . S
C1732 C1731 1.399 . S
C1732 C1733 1.376 . S
C1733 H1720 0.930 . S
C1733 C1732 1.376 . S
C1733 C1734 1.388 . S
C1734 H1721 0.930 . S
C1734 C1733 1.388 . S
C1734 C1735 1.390 . S
C1735 C1734 1.390 . S
C1735 C1736 1.394 . S
C1735 C1741 1.465 . S
C1736 C1731 1.399 . S
C1736 C1735 1.394 . S
C1736 C1737 1.516 . S
C1737 C1736 1.516 . S
C1737 C1738 1.502 . S
C1737 C1739 1.561 . S
C1737 C1740 1.526 . S
C1738 H1722 0.959 . S
C1738 H1723 0.959 1_545 S
C1738 H1724 0.961 1_545 S
C1738 C1737 1.502 . S
C1739 H1725 0.960 . S
C1739 H1726 0.961 . S
C1739 H1727 0.959 . S
C1739 C1737 1.561 . S
C1740 C1737 1.526 . S
C1740 C1741 1.396 . S
C1740 C1745 1.390 . S
C1741 C1735 1.465 . S
C1741 C1740 1.396 . S
C1741 C1742 1.399 . S
C1742 H1728 0.929 . S
C1742 C1741 1.399 . S
C1742 C1743 1.385 . S
C1743 H1729 0.931 . S
C1743 C1742 1.385 . S
C1743 C1744 1.389 . S
C1744 C1743 1.389 . S
C1744 C1745 1.387 . S
C1745 H1730 0.930 . S
C1745 C1740 1.390 . S
C1745 C1744 1.387 . S
H1746 C1758 0.930 . S
H1747 C1760 0.923 1_455 S
H1748 C1761 0.936 . S
H1749 C1765 0.959 . S
H1750 C1765 0.959 . S
H1751 C1765 0.961 . S
H1752 C1766 0.960 . S
H1753 C1766 0.961 . S
H1754 C1766 0.959 . S
H1755 C1769 0.945 . S
H1756 C1770 0.907 1_455 S
H1757 C1772 0.930 . S
C1758 H1746 0.930 . S
C1758 C1759 1.399 . S
C1758 C1763 1.399 . S
C1759 C1758 1.399 . S
C1759 C1760 1.376 . S
C1760 H1747 0.923 1_655 S
C1760 C1759 1.376 . S
C1760 C1761 1.386 1_655 S
C1761 H1748 0.936 . S
C1761 C1760 1.386 1_455 S
C1761 C1762 1.385 1_455 S
C1762 C1761 1.385 1_655 S
C1762 C1763 1.394 . S
C1762 C1768 1.465 . S
C1763 C1758 1.399 . S
C1763 C1762 1.394 . S
C1763 C1764 1.516 . S
C1764 C1763 1.516 . S
C1764 C1765 1.502 . S
C1764 C1766 1.561 1_655 S
C1764 C1767 1.526 . S
C1765 H1749 0.959 . S
C1765 H1750 0.959 . S
C1765 H1751 0.961 . S
C1765 C1764 1.502 . S
C1766 H1752 0.960 . S
C1766 H1753 0.961 . S
C1766 H1754 0.959 . S
C1766 C1764 1.561 1_455 S
C1767 C1764 1.526 . S
C1767 C1768 1.396 . S
C1767 C1772 1.390 . S
C1768 C1762 1.465 . S
C1768 C1767 1.396 . S
C1768 C1769 1.387 1_655 S
C1769 H1755 0.945 . S
C1769 C1768 1.387 1_455 S
C1769 C1770 1.377 1_455 S
C1770 H1756 0.907 1_655 S
C1770 C1769 1.377 1_655 S
C1770 C1771 1.416 . S
C1771 C1770 1.416 . S
C1771 C1772 1.387 . S
C1772 H1757 0.930 . S
C1772 C1767 1.390 . S
C1772 C1771 1.387 . S
H1773 C1785 0.930 . S
H1774 C1787 0.930 . S
H1775 C1788 0.930 . S
H1776 C1792 0.959 . S
H1777 C1792 0.959 . S
H1778 C1792 0.961 . S
H1779 C1793 0.960 . S
H1780 C1793 0.961 . S
H1781 C1793 0.959 . S
H1782 C1796 0.929 . S
H1783 C1797 0.931 . S
H1784 C1799 0.930 . S
C1785 H1773 0.930 . S
C1785 C1786 1.399 . S
C1785 C1790 1.399 . S
C1786 C1785 1.399 . S
C1786 C1787 1.376 . S
C1787 H1774 0.930 . S
C1787 C1786 1.376 . S
C1787 C1788 1.388 . S
C1788 H1775 0.930 . S
C1788 C1787 1.388 . S
C1788 C1789 1.390 . S
C1789 C1788 1.390 . S
C1789 C1790 1.394 . S
C1789 C1795 1.465 . S
C1790 C1785 1.399 . S
C1790 C1789 1.394 . S
C1790 C1791 1.516 . S
C1791 C1790 1.516 . S
C1791 C1792 1.502 . S
C1791 C1793 1.561 . S
C1791 C1794 1.526 . S
C1792 H1776 0.959 . S
C1792 H1777 0.959 . S
C1792 H1778 0.961 . S
C1792 C1791 1.502 . S
C1793 H1779 0.960 . S
C1793 H1780 0.961 . S
C1793 H1781 0.959 . S
C1793 C1791 1.561 . S
C1794 C1791 1.526 . S
C1794 C1795 1.396 . S
C1794 C1799 1.390 . S
C1795 C1789 1.465 . S
C1795 C1794 1.396 . S
C1795 C1796 1.399 . S
C1796 H1782 0.929 . S
C1796 C1795 1.399 . S
C1796 C1797 1.385 . S
C1797 H1783 0.931 . S
C1797 C1796 1.385 . S
C1797 C1798 1.389 . S
C1798 C1797 1.389 . S
C1798 C1799 1.387 . S
C1799 H1784 0.930 . S
C1799 C1794 1.390 . S
C1799 C1798 1.387 . S
H1800 C1812 0.930 . S
H1801 C1814 0.920 1_545 S
H1802 C1815 0.930 1_545 S
H1803 C1819 0.959 1_545 S
H1804 C1819 0.959 . S
H1805 C1819 0.961 . S
H1806 C1820 0.960 . S
H1807 C1820 0.961 . S
H1808 C1820 0.959 . S
H1809 C1823 0.924 1_545 S
H1810 C1824 0.908 1_545 S
H1811 C1826 0.930 . S
C1812 H1800 0.930 . S
C1812 C1813 1.399 . S
C1812 C1817 1.399 . S
C1813 C1812 1.399 . S
C1813 C1814 1.390 . S
C1814 H1801 0.920 1_565 S
C1814 C1813 1.390 . S
C1814 C1815 1.386 . S
C1815 H1802 0.930 1_565 S
C1815 C1814 1.386 . S
C1815 C1816 1.390 . S
C1816 C1815 1.390 . S
C1816 C1817 1.394 . S
C1816 C1822 1.465 . S
C1817 C1812 1.399 . S
C1817 C1816 1.394 . S
C1817 C1818 1.516 . S
C1818 C1817 1.516 . S
C1818 C1819 1.502 . S
C1818 C1820 1.561 . S
C1818 C1821 1.526 . S
C1819 H1803 0.959 1_565 S
C1819 H1804 0.959 . S
C1819 H1805 0.961 . S
C1819 C1818 1.502 . S
C1820 H1806 0.960 . S
C1820 H1807 0.961 . S
C1820 H1808 0.959 . S
C1820 C1818 1.561 . S
C1821 C1818 1.526 . S
C1821 C1822 1.396 . S
C1821 C1826 1.390 . S
C1822 C1816 1.465 . S
C1822 C1821 1.396 . S
C1822 C1823 1.404 . S
C1823 H1809 0.924 1_565 S
C1823 C1822 1.404 . S
C1823 C1824 1.382 . S
C1824 H1810 0.908 1_565 S
C1824 C1823 1.382 . S
C1824 C1825 1.418 . S
C1825 C1824 1.418 . S
C1825 C1826 1.387 . S
C1826 H1811 0.930 . S
C1826 C1821 1.390 . S
C1826 C1825 1.387 . S
H1827 C1839 0.930 . S
H1828 C1841 0.930 . S
H1829 C1842 0.930 . S
H1830 C1846 0.959 . S
H1831 C1846 0.959 . S
H1832 C1846 0.961 . S
H1833 C1847 0.960 . S
H1834 C1847 0.961 . S
H1835 C1847 0.959 . S
H1836 C1850 0.929 . S
H1837 C1851 0.931 . S
H1838 C1853 0.930 . S
C1839 H1827 0.930 . S
C1839 C1840 1.399 . S
C1839 C1844 1.399 . S
C1840 C1839 1.399 . S
C1840 C1841 1.376 . S
C1841 H1828 0.930 . S
C1841 C1840 1.376 . S
C1841 C1842 1.388 . S
C1842 H1829 0.930 . S
C1842 C1841 1.388 . S
C1842 C1843 1.390 . S
C1843 C1842 1.390 . S
C1843 C1844 1.394 . S
C1843 C1849 1.465 . S
C1844 C1839 1.399 . S
C1844 C1843 1.394 . S
C1844 C1845 1.516 . S
C1845 C1844 1.516 . S
C1845 C1846 1.502 . S
C1845 C1847 1.561 . S
C1845 C1848 1.526 . S
C1846 H1830 0.959 . S
C1846 H1831 0.959 . S
C1846 H1832 0.961 . S
C1846 C1845 1.502 . S
C1847 H1833 0.960 . S
C1847 H1834 0.961 . S
C1847 H1835 0.959 . S
C1847 C1845 1.561 . S
C1848 C1845 1.526 . S
C1848 C1849 1.396 . S
C1848 C1853 1.390 . S
C1849 C1843 1.465 . S
C1849 C1848 1.396 . S
C1849 C1850 1.399 . S
C1850 H1836 0.929 . S
C1850 C1849 1.399 . S
C1850 C1851 1.385 . S
C1851 H1837 0.931 . S
C1851 C1850 1.385 . S
C1851 C1852 1.389 . S
C1852 C1851 1.389 . S
C1852 C1853 1.387 . S
C1853 H1838 0.930 . S
C1853 C1848 1.390 . S
C1853 C1852 1.387 . S
H1854 C1866 0.930 . S
H1855 C1868 0.930 . S
H1856 C1869 0.930 . S
H1857 C1873 0.959 . S
H1858 C1873 0.959 . S
H1859 C1873 0.961 . S
H1860 C1874 0.960 . S
H1861 C1874 0.961 . S
H1862 C1874 0.959 . S
H1863 C1877 0.929 . S
H1864 C1878 0.931 . S
H1865 C1880 0.930 . S
C1866 H1854 0.930 . S
C1866 C1867 1.399 . S
C1866 C1871 1.399 . S
C1867 C1866 1.399 . S
C1867 C1868 1.376 . S
C1868 H1855 0.930 . S
C1868 C1867 1.376 . S
C1868 C1869 1.388 . S
C1869 H1856 0.930 . S
C1869 C1868 1.388 . S
C1869 C1870 1.390 . S
C1870 C1869 1.390 . S
C1870 C1871 1.394 . S
C1870 C1876 1.465 . S
C1871 C1866 1.399 . S
C1871 C1870 1.394 . S
C1871 C1872 1.516 . S
C1872 C1871 1.516 . S
C1872 C1873 1.502 . S
C1872 C1874 1.561 . S
C1872 C1875 1.526 . S
C1873 H1857 0.959 . S
C1873 H1858 0.959 . S
C1873 H1859 0.961 . S
C1873 C1872 1.502 . S
C1874 H1860 0.960 . S
C1874 H1861 0.961 . S
C1874 H1862 0.959 . S
C1874 C1872 1.561 . S
C1875 C1872 1.526 . S
C1875 C1876 1.396 . S
C1875 C1880 1.390 . S
C1876 C1870 1.465 . S
C1876 C1875 1.396 . S
C1876 C1877 1.399 . S
C1877 H1863 0.929 . S
C1877 C1876 1.399 . S
C1877 C1878 1.385 . S
C1878 H1864 0.931 . S
C1878 C1877 1.385 . S
C1878 C1879 1.389 . S
C1879 C1878 1.389 . S
C1879 C1880 1.387 . S
C1880 H1865 0.930 . S
C1880 C1875 1.390 . S
C1880 C1879 1.387 . S
H1881 C1893 0.930 . S
H1882 C1895 0.930 . S
H1883 C1896 0.930 . S
H1884 C1900 0.959 . S
H1885 C1900 0.959 . S
H1886 C1900 0.961 . S
H1887 C1901 0.960 . S
H1888 C1901 0.961 . S
H1889 C1901 0.959 . S
H1890 C1904 0.929 . S
H1891 C1905 0.931 . S
H1892 C1907 0.930 . S
C1893 H1881 0.930 . S
C1893 C1894 1.399 . S
C1893 C1898 1.399 . S
C1894 C1893 1.399 . S
C1894 C1895 1.376 . S
C1895 H1882 0.930 . S
C1895 C1894 1.376 . S
C1895 C1896 1.388 . S
C1896 H1883 0.930 . S
C1896 C1895 1.388 . S
C1896 C1897 1.390 . S
C1897 C1896 1.390 . S
C1897 C1898 1.394 . S
C1897 C1903 1.465 . S
C1898 C1893 1.399 . S
C1898 C1897 1.394 . S
C1898 C1899 1.516 . S
C1899 C1898 1.516 . S
C1899 C1900 1.502 . S
C1899 C1901 1.561 . S
C1899 C1902 1.526 . S
C1900 H1884 0.959 . S
C1900 H1885 0.959 . S
C1900 H1886 0.961 . S
C1900 C1899 1.502 . S
C1901 H1887 0.960 . S
C1901 H1888 0.961 . S
C1901 H1889 0.959 . S
C1901 C1899 1.561 . S
C1902 C1899 1.526 . S
C1902 C1903 1.396 . S
C1902 C1907 1.390 . S
C1903 C1897 1.465 . S
C1903 C1902 1.396 . S
C1903 C1904 1.399 . S
C1904 H1890 0.929 . S
C1904 C1903 1.399 . S
C1904 C1905 1.385 . S
C1905 H1891 0.931 . S
C1905 C1904 1.385 . S
C1905 C1906 1.389 . S
C1906 C1905 1.389 . S
C1906 C1907 1.387 . S
C1907 H1892 0.930 . S
C1907 C1902 1.390 . S
C1907 C1906 1.387 . S
H1908 C1920 0.930 . S
H1909 C1922 0.930 . S
H1910 C1923 0.930 . S
H1911 C1927 0.959 . S
H1912 C1927 0.959 . S
H1913 C1927 0.961 . S
H1914 C1928 0.960 . S
H1915 C1928 0.961 . S
H1916 C1928 0.959 . S
H1917 C1931 0.929 . S
H1918 C1932 0.931 . S
H1919 C1934 0.930 . S
C1920 H1908 0.930 . S
C1920 C1921 1.399 . S
C1920 C1925 1.399 . S
C1921 C1920 1.399 . S
C1921 C1922 1.376 1_565 S
C1922 H1909 0.930 . S
C1922 C1921 1.376 1_545 S
C1922 C1923 1.388 . S
C1923 H1910 0.930 . S
C1923 C1922 1.388 . S
C1923 C1924 1.390 . S
C1924 C1923 1.390 . S
C1924 C1925 1.394 1_545 S
C1924 C1930 1.465 . S
C1925 C1920 1.399 . S
C1925 C1924 1.394 1_565 S
C1925 C1926 1.516 . S
C1926 C1925 1.516 . S
C1926 C1927 1.502 . S
C1926 C1928 1.561 . S
C1926 C1929 1.526 . S
C1927 H1911 0.959 . S
C1927 H1912 0.959 . S
C1927 H1913 0.961 . S
C1927 C1926 1.502 . S
C1928 H1914 0.960 . S
C1928 H1915 0.961 . S
C1928 H1916 0.959 . S
C1928 C1926 1.561 . S
C1929 C1926 1.526 . S
C1929 C1930 1.396 1_565 S
C1929 C1934 1.390 . S
C1930 C1924 1.465 . S
C1930 C1929 1.396 1_545 S
C1930 C1931 1.399 . S
C1931 H1917 0.929 . S
C1931 C1930 1.399 . S
C1931 C1932 1.385 . S
C1932 H1918 0.931 . S
C1932 C1931 1.385 . S
C1932 C1933 1.389 1_545 S
C1933 C1932 1.389 1_565 S
C1933 C1934 1.387 . S
C1934 H1919 0.930 . S
C1934 C1929 1.390 . S
C1934 C1933 1.387 . S
H1935 C1947 0.930 . S
H1936 C1949 0.930 . S
H1937 C1950 0.930 . S
H1938 C1954 0.959 . S
H1939 C1954 0.959 . S
H1940 C1954 0.961 . S
H1941 C1955 0.960 . S
H1942 C1955 0.961 . S
H1943 C1955 0.959 . S
H1944 C1958 0.929 . S
H1945 C1959 0.931 . S
H1946 C1961 0.930 . S
C1947 H1935 0.930 . S
C1947 C1948 1.399 . S
C1947 C1952 1.399 . S
C1948 C1947 1.399 . S
C1948 C1949 1.376 . S
C1949 H1936 0.930 . S
C1949 C1948 1.376 . S
C1949 C1950 1.388 . S
C1950 H1937 0.930 . S
C1950 C1949 1.388 . S
C1950 C1951 1.390 . S
C1951 C1950 1.390 . S
C1951 C1952 1.394 . S
C1951 C1957 1.465 . S
C1952 C1947 1.399 . S
C1952 C1951 1.394 . S
C1952 C1953 1.516 . S
C1953 C1952 1.516 . S
C1953 C1954 1.502 . S
C1953 C1955 1.561 . S
C1953 C1956 1.526 . S
C1954 H1938 0.959 . S
C1954 H1939 0.959 . S
C1954 H1940 0.961 . S
C1954 C1953 1.502 . S
C1955 H1941 0.960 . S
C1955 H1942 0.961 . S
C1955 H1943 0.959 . S
C1955 C1953 1.561 . S
C1956 C1953 1.526 . S
C1956 C1957 1.396 . S
C1956 C1961 1.390 . S
C1957 C1951 1.465 . S
C1957 C1956 1.396 . S
C1957 C1958 1.399 . S
C1958 H1944 0.929 . S
C1958 C1957 1.399 . S
C1958 C1959 1.385 . S
C1959 H1945 0.931 . S
C1959 C1958 1.385 . S
C1959 C1960 1.389 . S
C1960 C1959 1.389 . S
C1960 C1961 1.387 . S
C1961 H1946 0.930 . S
C1961 C1956 1.390 . S
C1961 C1960 1.387 . S
H1962 C1974 0.930 . S
H1963 C1976 0.930 . S
H1964 C1977 0.930 . S
H1965 C1981 0.959 . S
H1966 C1981 0.959 . S
H1967 C1981 0.961 . S
H1968 C1982 0.960 . S
H1969 C1982 0.961 . S
H1970 C1982 0.959 . S
H1971 C1985 0.929 . S
H1972 C1986 0.931 . S
H1973 C1988 0.930 . S
C1974 H1962 0.930 . S
C1974 C1975 1.399 . S
C1974 C1979 1.399 . S
C1975 C1974 1.399 . S
C1975 C1976 1.376 . S
C1976 H1963 0.930 . S
C1976 C1975 1.376 . S
C1976 C1977 1.388 . S
C1977 H1964 0.930 . S
C1977 C1976 1.388 . S
C1977 C1978 1.390 . S
C1978 C1977 1.390 . S
C1978 C1979 1.394 . S
C1978 C1984 1.465 . S
C1979 C1974 1.399 . S
C1979 C1978 1.394 . S
C1979 C1980 1.516 . S
C1980 C1979 1.516 . S
C1980 C1981 1.502 . S
C1980 C1982 1.561 . S
C1980 C1983 1.526 . S
C1981 H1965 0.959 . S
C1981 H1966 0.959 . S
C1981 H1967 0.961 . S
C1981 C1980 1.502 . S
C1982 H1968 0.960 . S
C1982 H1969 0.961 . S
C1982 H1970 0.959 . S
C1982 C1980 1.561 . S
C1983 C1980 1.526 . S
C1983 C1984 1.396 . S
C1983 C1988 1.390 . S
C1984 C1978 1.465 . S
C1984 C1983 1.396 . S
C1984 C1985 1.399 . S
C1985 H1971 0.929 . S
C1985 C1984 1.399 . S
C1985 C1986 1.385 . S
C1986 H1972 0.931 . S
C1986 C1985 1.385 . S
C1986 C1987 1.389 . S
C1987 C1986 1.389 . S
C1987 C1988 1.387 . S
C1988 H1973 0.930 . S
C1988 C1983 1.390 . S
C1988 C1987 1.387 . S
H1989 C2001 0.930 . S
H1990 C2003 0.930 . S
H1991 C2004 0.930 . S
H1992 C2008 0.959 . S
H1993 C2008 0.959 . S
H1994 C2008 0.961 . S
H1995 C2009 0.960 . S
H1996 C2009 0.961 . S
H1997 C2009 0.959 . S
H1998 C2012 0.929 . S
H1999 C2013 0.931 . S
H2000 C2015 0.930 . S
C2001 H1989 0.930 . S
C2001 C2002 1.399 . S
C2001 C2006 1.399 . S
C2002 C2001 1.399 . S
C2002 C2003 1.376 . S
C2003 H1990 0.930 . S
C2003 C2002 1.376 . S
C2003 C2004 1.388 . S
C2004 H1991 0.930 . S
C2004 C2003 1.388 . S
C2004 C2005 1.390 . S
C2005 C2004 1.390 . S
C2005 C2006 1.394 . S
C2005 C2011 1.465 . S
C2006 C2001 1.399 . S
C2006 C2005 1.394 . S
C2006 C2007 1.516 . S
C2007 C2006 1.516 . S
C2007 C2008 1.502 . S
C2007 C2009 1.561 . S
C2007 C2010 1.526 . S
C2008 H1992 0.959 . S
C2008 H1993 0.959 . S
C2008 H1994 0.961 . S
C2008 C2007 1.502 . S
C2009 H1995 0.960 . S
C2009 H1996 0.961 . S
C2009 H1997 0.959 . S
C2009 C2007 1.561 . S
C2010 C2007 1.526 . S
C2010 C2011 1.396 . S
C2010 C2015 1.390 . S
C2011 C2005 1.465 . S
C2011 C2010 1.396 . S
C2011 C2012 1.399 . S
C2012 H1998 0.929 . S
C2012 C2011 1.399 . S
C2012 C2013 1.385 . S
C2013 H1999 0.931 . S
C2013 C2012 1.385 . S
C2013 C2014 1.389 . S
C2014 C2013 1.389 . S
C2014 C2015 1.387 . S
C2015 H2000 0.930 . S
C2015 C2010 1.390 . S
C2015 C2014 1.387 . S
H2016 C2028 0.930 . S
H2017 C2030 0.930 . S
H2018 C2031 0.930 . S
H2019 C2035 0.959 . S
H2020 C2035 0.959 . S
H2021 C2035 0.961 . S
H2022 C2036 0.960 . S
H2023 C2036 0.961 . S
H2024 C2036 0.959 . S
H2025 C2039 0.929 . S
H2026 C2040 0.931 . S
H2027 C2042 0.930 . S
C2028 H2016 0.930 . S
C2028 C2029 1.399 . S
C2028 C2033 1.399 . S
C2029 C2028 1.399 . S
C2029 C2030 1.376 . S
C2030 H2017 0.930 . S
C2030 C2029 1.376 . S
C2030 C2031 1.388 . S
C2031 H2018 0.930 . S
C2031 C2030 1.388 . S
C2031 C2032 1.390 . S
C2032 C2031 1.390 . S
C2032 C2033 1.394 . S
C2032 C2038 1.465 . S
C2033 C2028 1.399 . S
C2033 C2032 1.394 . S
C2033 C2034 1.516 . S
C2034 C2033 1.516 . S
C2034 C2035 1.502 . S
C2034 C2036 1.561 . S
C2034 C2037 1.526 . S
C2035 H2019 0.959 . S
C2035 H2020 0.959 . S
C2035 H2021 0.961 . S
C2035 C2034 1.502 . S
C2036 H2022 0.960 . S
C2036 H2023 0.961 . S
C2036 H2024 0.959 . S
C2036 C2034 1.561 . S
C2037 C2034 1.526 . S
C2037 C2038 1.396 . S
C2037 C2042 1.390 . S
C2038 C2032 1.465 . S
C2038 C2037 1.396 . S
C2038 C2039 1.399 . S
C2039 H2025 0.929 . S
C2039 C2038 1.399 . S
C2039 C2040 1.385 . S
C2040 H2026 0.931 . S
C2040 C2039 1.385 . S
C2040 C2041 1.389 . S
C2041 C2040 1.389 . S
C2041 C2042 1.387 . S
C2042 H2027 0.930 . S
C2042 C2037 1.390 . S
C2042 C2041 1.387 . S
H2043 C2055 0.930 . S
H2044 C2057 0.930 . S
H2045 C2058 0.930 . S
H2046 C2062 0.959 . S
H2047 C2062 0.959 . S
H2048 C2062 0.961 . S
H2049 C2063 0.960 . S
H2050 C2063 0.961 . S
H2051 C2063 0.959 . S
H2052 C2066 0.929 . S
H2053 C2067 0.931 . S
H2054 C2069 0.930 . S
C2055 H2043 0.930 . S
C2055 C2056 1.399 . S
C2055 C2060 1.399 . S
C2056 C2055 1.399 . S
C2056 C2057 1.376 . S
C2057 H2044 0.930 . S
C2057 C2056 1.376 . S
C2057 C2058 1.388 . S
C2058 H2045 0.930 . S
C2058 C2057 1.388 . S
C2058 C2059 1.390 . S
C2059 C2058 1.390 . S
C2059 C2060 1.394 . S
C2059 C2065 1.465 . S
C2060 C2055 1.399 . S
C2060 C2059 1.394 . S
C2060 C2061 1.516 . S
C2061 C2060 1.516 . S
C2061 C2062 1.502 . S
C2061 C2063 1.561 . S
C2061 C2064 1.526 . S
C2062 H2046 0.959 . S
C2062 H2047 0.959 . S
C2062 H2048 0.961 . S
C2062 C2061 1.502 . S
C2063 H2049 0.960 . S
C2063 H2050 0.961 . S
C2063 H2051 0.959 . S
C2063 C2061 1.561 . S
C2064 C2061 1.526 . S
C2064 C2065 1.396 . S
C2064 C2069 1.390 . S
C2065 C2059 1.465 . S
C2065 C2064 1.396 . S
C2065 C2066 1.399 . S
C2066 H2052 0.929 . S
C2066 C2065 1.399 . S
C2066 C2067 1.385 . S
C2067 H2053 0.931 . S
C2067 C2066 1.385 . S
C2067 C2068 1.389 . S
C2068 C2067 1.389 . S
C2068 C2069 1.387 . S
C2069 H2054 0.930 . S
C2069 C2064 1.390 . S
C2069 C2068 1.387 . S
H2070 C2082 0.930 . S
H2071 C2084 0.930 . S
H2072 C2085 0.930 . S
H2073 C2089 0.959 . S
H2074 C2089 0.959 . S
H2075 C2089 0.961 . S
H2076 C2090 0.960 . S
H2077 C2090 0.961 . S
H2078 C2090 0.959 . S
H2079 C2093 0.929 . S
H2080 C2094 0.931 . S
H2081 C2096 0.930 . S
C2082 H2070 0.930 . S
C2082 C2083 1.399 . S
C2082 C2087 1.399 . S
C2083 C2082 1.399 . S
C2083 C2084 1.376 . S
C2084 H2071 0.930 . S
C2084 C2083 1.376 . S
C2084 C2085 1.388 . S
C2085 H2072 0.930 . S
C2085 C2084 1.388 . S
C2085 C2086 1.390 . S
C2086 C2085 1.390 . S
C2086 C2087 1.394 . S
C2086 C2092 1.465 . S
C2087 C2082 1.399 . S
C2087 C2086 1.394 . S
C2087 C2088 1.516 . S
C2088 C2087 1.516 . S
C2088 C2089 1.502 . S
C2088 C2090 1.561 . S
C2088 C2091 1.526 . S
C2089 H2073 0.959 . S
C2089 H2074 0.959 . S
C2089 H2075 0.961 . S
C2089 C2088 1.502 . S
C2090 H2076 0.960 . S
C2090 H2077 0.961 . S
C2090 H2078 0.959 . S
C2090 C2088 1.561 . S
C2091 C2088 1.526 . S
C2091 C2092 1.396 . S
C2091 C2096 1.390 . S
C2092 C2086 1.465 . S
C2092 C2091 1.396 . S
C2092 C2093 1.399 . S
C2093 H2079 0.929 . S
C2093 C2092 1.399 . S
C2093 C2094 1.385 . S
C2094 H2080 0.931 . S
C2094 C2093 1.385 . S
C2094 C2095 1.389 . S
C2095 C2094 1.389 . S
C2095 C2096 1.387 . S
C2096 H2081 0.930 . S
C2096 C2091 1.390 . S
C2096 C2095 1.387 . S
H2097 C2109 0.930 . S
H2098 C2111 0.930 . S
H2099 C2112 0.930 . S
H2100 C2116 0.959 . S
H2101 C2116 0.959 . S
H2102 C2116 0.961 . S
H2103 C2117 0.960 . S
H2104 C2117 0.961 . S
H2105 C2117 0.959 . S
H2106 C2120 0.929 . S
H2107 C2121 0.931 . S
H2108 C2123 0.930 . S
C2109 H2097 0.930 . S
C2109 C2110 1.399 . S
C2109 C2114 1.399 . S
C2110 C2109 1.399 . S
C2110 C2111 1.376 . S
C2111 H2098 0.930 . S
C2111 C2110 1.376 . S
C2111 C2112 1.388 . S
C2112 H2099 0.930 . S
C2112 C2111 1.388 . S
C2112 C2113 1.390 . S
C2113 C2112 1.390 . S
C2113 C2114 1.394 . S
C2113 C2119 1.465 . S
C2114 C2109 1.399 . S
C2114 C2113 1.394 . S
C2114 C2115 1.516 . S
C2115 C2114 1.516 . S
C2115 C2116 1.502 . S
C2115 C2117 1.561 . S
C2115 C2118 1.526 . S
C2116 H2100 0.959 . S
C2116 H2101 0.959 . S
C2116 H2102 0.961 . S
C2116 C2115 1.502 . S
C2117 H2103 0.960 . S
C2117 H2104 0.961 . S
C2117 H2105 0.959 . S
C2117 C2115 1.561 . S
C2118 C2115 1.526 . S
C2118 C2119 1.396 . S
C2118 C2123 1.390 . S
C2119 C2113 1.465 . S
C2119 C2118 1.396 . S
C2119 C2120 1.399 . S
C2120 H2106 0.929 . S
C2120 C2119 1.399 . S
C2120 C2121 1.385 . S
C2121 H2107 0.931 . S
C2121 C2120 1.385 . S
C2121 C2122 1.389 . S
C2122 C2121 1.389 . S
C2122 C2123 1.387 . S
C2123 H2108 0.930 . S
C2123 C2118 1.390 . S
C2123 C2122 1.387 . S
H2124 C2136 0.930 . S
H2125 C2138 0.930 . S
H2126 C2139 0.930 . S
H2127 C2143 0.959 . S
H2128 C2143 0.959 . S
H2129 C2143 0.961 . S
H2130 C2144 0.960 . S
H2131 C2144 0.961 . S
H2132 C2144 0.959 . S
H2133 C2147 0.929 . S
H2134 C2148 0.931 . S
H2135 C2150 0.930 . S
C2136 H2124 0.930 . S
C2136 C2137 1.399 . S
C2136 C2141 1.399 . S
C2137 C2136 1.399 . S
C2137 C2138 1.376 . S
C2138 H2125 0.930 . S
C2138 C2137 1.376 . S
C2138 C2139 1.388 . S
C2139 H2126 0.930 . S
C2139 C2138 1.388 . S
C2139 C2140 1.390 . S
C2140 C2139 1.390 . S
C2140 C2141 1.394 . S
C2140 C2146 1.465 . S
C2141 C2136 1.399 . S
C2141 C2140 1.394 . S
C2141 C2142 1.516 . S
C2142 C2141 1.516 . S
C2142 C2143 1.502 . S
C2142 C2144 1.561 . S
C2142 C2145 1.526 . S
C2143 H2127 0.959 . S
C2143 H2128 0.959 . S
C2143 H2129 0.961 . S
C2143 C2142 1.502 . S
C2144 H2130 0.960 . S
C2144 H2131 0.961 . S
C2144 H2132 0.959 . S
C2144 C2142 1.561 . S
C2145 C2142 1.526 . S
C2145 C2146 1.396 . S
C2145 C2150 1.390 . S
C2146 C2140 1.465 . S
C2146 C2145 1.396 . S
C2146 C2147 1.399 . S
C2147 H2133 0.929 . S
C2147 C2146 1.399 . S
C2147 C2148 1.385 . S
C2148 H2134 0.931 . S
C2148 C2147 1.385 . S
C2148 C2149 1.389 . S
C2149 C2148 1.389 . S
C2149 C2150 1.387 . S
C2150 H2135 0.930 . S
C2150 C2145 1.390 . S
C2150 C2149 1.387 . S
H2151 C2163 0.930 . S
H2152 C2165 0.930 . S
H2153 C2166 0.930 . S
H2154 C2170 0.959 . S
H2155 C2170 0.959 . S
H2156 C2170 0.961 . S
H2157 C2171 0.960 . S
H2158 C2171 0.961 . S
H2159 C2171 0.959 . S
H2160 C2174 0.929 . S
H2161 C2175 0.931 . S
H2162 C2177 0.930 . S
C2163 H2151 0.930 . S
C2163 C2164 1.399 . S
C2163 C2168 1.399 . S
C2164 C2163 1.399 . S
C2164 C2165 1.376 . S
C2165 H2152 0.930 . S
C2165 C2164 1.376 . S
C2165 C2166 1.388 . S
C2166 H2153 0.930 . S
C2166 C2165 1.388 . S
C2166 C2167 1.390 . S
C2167 C2166 1.390 . S
C2167 C2168 1.394 . S
C2167 C2173 1.465 . S
C2168 C2163 1.399 . S
C2168 C2167 1.394 . S
C2168 C2169 1.516 . S
C2169 C2168 1.516 . S
C2169 C2170 1.502 . S
C2169 C2171 1.561 . S
C2169 C2172 1.526 . S
C2170 H2154 0.959 . S
C2170 H2155 0.959 . S
C2170 H2156 0.961 . S
C2170 C2169 1.502 . S
C2171 H2157 0.960 . S
C2171 H2158 0.961 . S
C2171 H2159 0.959 . S
C2171 C2169 1.561 . S
C2172 C2169 1.526 . S
C2172 C2173 1.396 . S
C2172 C2177 1.390 . S
C2173 C2167 1.465 . S
C2173 C2172 1.396 . S
C2173 C2174 1.399 . S
C2174 H2160 0.929 . S
C2174 C2173 1.399 . S
C2174 C2175 1.385 . S
C2175 H2161 0.931 . S
C2175 C2174 1.385 . S
C2175 C2176 1.389 . S
C2176 C2175 1.389 . S
C2176 C2177 1.387 . S
C2177 H2162 0.930 . S
C2177 C2172 1.390 . S
C2177 C2176 1.387 . S
H2178 C2190 0.930 . S
H2179 C2192 0.930 . S
H2180 C2193 0.930 . S
H2181 C2197 0.959 . S
H2182 C2197 0.959 . S
H2183 C2197 0.961 . S
H2184 C2198 0.960 . S
H2185 C2198 0.978 . S
H2186 C2198 0.959 . S
H2187 C2201 0.929 . S
H2188 C2202 0.931 . S
H2189 C2204 0.930 . S
C2190 H2178 0.930 . S
C2190 C2191 1.399 . S
C2190 C2195 1.399 . S
C2191 C2190 1.399 . S
C2191 C2192 1.376 . S
C2192 H2179 0.930 . S
C2192 C2191 1.376 . S
C2192 C2193 1.388 . S
C2193 H2180 0.930 . S
C2193 C2192 1.388 . S
C2193 C2194 1.390 . S
C2194 C2193 1.390 . S
C2194 C2195 1.394 . S
C2194 C2200 1.465 . S
C2195 C2190 1.399 . S
C2195 C2194 1.394 . S
C2195 C2196 1.516 . S
C2196 C2195 1.516 . S
C2196 C2197 1.502 . S
C2196 C2198 1.561 1_655 S
C2196 C2199 1.526 . S
C2197 H2181 0.959 . S
C2197 H2182 0.959 . S
C2197 H2183 0.961 . S
C2197 C2196 1.502 . S
C2198 H2184 0.960 . S
C2198 H2185 0.978 . S
C2198 H2186 0.959 . S
C2198 C2196 1.561 1_455 S
C2199 C2196 1.526 . S
C2199 C2200 1.396 . S
C2199 C2204 1.390 . S
C2200 C2194 1.465 . S
C2200 C2199 1.396 . S
C2200 C2201 1.399 . S
C2201 H2187 0.929 . S
C2201 C2200 1.399 . S
C2201 C2202 1.385 . S
C2202 H2188 0.931 . S
C2202 C2201 1.385 . S
C2202 C2203 1.389 . S
C2203 C2202 1.389 . S
C2203 C2204 1.387 . S
C2204 H2189 0.930 . S
C2204 C2199 1.390 . S
C2204 C2203 1.387 . S
H2205 C2217 0.930 . S
H2206 C2219 0.930 . S
H2207 C2220 0.930 . S
H2208 C2224 0.959 . S
H2209 C2224 0.959 . S
H2210 C2224 0.961 . S
H2211 C2225 0.960 . S
H2212 C2225 0.961 . S
H2213 C2225 0.959 . S
H2214 C2228 0.929 . S
H2215 C2229 0.931 . S
H2216 C2231 0.930 . S
C2217 H2205 0.930 . S
C2217 C2218 1.399 . S
C2217 C2222 1.399 . S
C2218 C2217 1.399 . S
C2218 C2219 1.376 . S
C2219 H2206 0.930 . S
C2219 C2218 1.376 . S
C2219 C2220 1.388 . S
C2220 H2207 0.930 . S
C2220 C2219 1.388 . S
C2220 C2221 1.390 . S
C2221 C2220 1.390 . S
C2221 C2222 1.394 . S
C2221 C2227 1.465 . S
C2222 C2217 1.399 . S
C2222 C2221 1.394 . S
C2222 C2223 1.516 . S
C2223 C2222 1.516 . S
C2223 C2224 1.502 . S
C2223 C2225 1.561 . S
C2223 C2226 1.526 . S
C2224 H2208 0.959 . S
C2224 H2209 0.959 . S
C2224 H2210 0.961 . S
C2224 C2223 1.502 . S
C2225 H2211 0.960 . S
C2225 H2212 0.961 . S
C2225 H2213 0.959 . S
C2225 C2223 1.561 . S
C2226 C2223 1.526 . S
C2226 C2227 1.396 . S
C2226 C2231 1.390 . S
C2227 C2221 1.465 . S
C2227 C2226 1.396 . S
C2227 C2228 1.399 . S
C2228 H2214 0.929 . S
C2228 C2227 1.399 . S
C2228 C2229 1.385 . S
C2229 H2215 0.931 . S
C2229 C2228 1.385 . S
C2229 C2230 1.389 . S
C2230 C2229 1.389 . S
C2230 C2231 1.387 . S
C2231 H2216 0.930 . S
C2231 C2226 1.390 . S
C2231 C2230 1.387 . S
H2232 C2244 0.930 . S
H2233 C2246 0.930 . S
H2234 C2247 0.930 . S
H2235 C2251 0.959 . S
H2236 C2251 0.959 . S
H2237 C2251 0.961 . S
H2238 C2252 0.960 . S
H2239 C2252 0.961 . S
H2240 C2252 0.959 . S
H2241 C2255 0.929 . S
H2242 C2256 0.931 . S
H2243 C2258 0.930 . S
C2244 H2232 0.930 . S
C2244 C2245 1.399 . S
C2244 C2249 1.399 . S
C2245 C2244 1.399 . S
C2245 C2246 1.376 . S
C2246 H2233 0.930 . S
C2246 C2245 1.376 . S
C2246 C2247 1.388 . S
C2247 H2234 0.930 . S
C2247 C2246 1.388 . S
C2247 C2248 1.390 . S
C2248 C2247 1.390 . S
C2248 C2249 1.394 . S
C2248 C2254 1.465 . S
C2249 C2244 1.399 . S
C2249 C2248 1.394 . S
C2249 C2250 1.516 . S
C2250 C2249 1.516 . S
C2250 C2251 1.502 . S
C2250 C2252 1.561 . S
C2250 C2253 1.526 . S
C2251 H2235 0.959 . S
C2251 H2236 0.959 . S
C2251 H2237 0.961 . S
C2251 C2250 1.502 . S
C2252 H2238 0.960 . S
C2252 H2239 0.961 . S
C2252 H2240 0.959 . S
C2252 C2250 1.561 . S
C2253 C2250 1.526 . S
C2253 C2254 1.396 . S
C2253 C2258 1.390 . S
C2254 C2248 1.465 . S
C2254 C2253 1.396 . S
C2254 C2255 1.399 . S
C2255 H2241 0.929 . S
C2255 C2254 1.399 . S
C2255 C2256 1.385 . S
C2256 H2242 0.931 . S
C2256 C2255 1.385 . S
C2256 C2257 1.389 . S
C2257 C2256 1.389 . S
C2257 C2258 1.387 . S
C2258 H2243 0.930 . S
C2258 C2253 1.390 . S
C2258 C2257 1.387 . S
H2259 C2271 0.930 . S
H2260 C2273 0.930 . S
H2261 C2274 0.930 . S
H2262 C2278 0.959 . S
H2263 C2278 0.959 . S
H2264 C2278 0.961 . S
H2265 C2279 0.960 . S
H2266 C2279 0.961 . S
H2267 C2279 0.959 . S
H2268 C2282 0.929 . S
H2269 C2283 0.931 . S
H2270 C2285 0.930 . S
C2271 H2259 0.930 . S
C2271 C2272 1.399 . S
C2271 C2276 1.399 . S
C2272 C2271 1.399 . S
C2272 C2273 1.376 . S
C2273 H2260 0.930 . S
C2273 C2272 1.376 . S
C2273 C2274 1.388 . S
C2274 H2261 0.930 . S
C2274 C2273 1.388 . S
C2274 C2275 1.390 . S
C2275 C2274 1.390 . S
C2275 C2276 1.394 . S
C2275 C2281 1.465 . S
C2276 C2271 1.399 . S
C2276 C2275 1.394 . S
C2276 C2277 1.516 . S
C2277 C2276 1.516 . S
C2277 C2278 1.502 . S
C2277 C2279 1.561 . S
C2277 C2280 1.526 . S
C2278 H2262 0.959 . S
C2278 H2263 0.959 . S
C2278 H2264 0.961 . S
C2278 C2277 1.502 . S
C2279 H2265 0.960 . S
C2279 H2266 0.961 . S
C2279 H2267 0.959 . S
C2279 C2277 1.561 . S
C2280 C2277 1.526 . S
C2280 C2281 1.396 . S
C2280 C2285 1.390 . S
C2281 C2275 1.465 . S
C2281 C2280 1.396 . S
C2281 C2282 1.399 . S
C2282 H2268 0.929 . S
C2282 C2281 1.399 . S
C2282 C2283 1.385 . S
C2283 H2269 0.931 . S
C2283 C2282 1.385 . S
C2283 C2284 1.389 . S
C2284 C2283 1.389 . S
C2284 C2285 1.387 . S
C2285 H2270 0.930 . S
C2285 C2280 1.390 . S
C2285 C2284 1.387 . S
H2286 C2298 0.930 . S
H2287 C2300 0.930 . S
H2288 C2301 0.930 . S
H2289 C2305 0.959 . S
H2290 C2305 0.959 . S
H2291 C2305 0.961 . S
H2292 C2306 0.960 . S
H2293 C2306 0.961 . S
H2294 C2306 0.959 . S
H2295 C2309 0.929 . S
H2296 C2310 0.931 . S
H2297 C2312 0.930 . S
C2298 H2286 0.930 . S
C2298 C2299 1.399 . S
C2298 C2303 1.399 . S
C2299 C2298 1.399 . S
C2299 C2300 1.376 . S
C2300 H2287 0.930 . S
C2300 C2299 1.376 . S
C2300 C2301 1.388 . S
C2301 H2288 0.930 . S
C2301 C2300 1.388 . S
C2301 C2302 1.390 . S
C2302 C2301 1.390 . S
C2302 C2303 1.394 . S
C2302 C2308 1.465 . S
C2303 C2298 1.399 . S
C2303 C2302 1.394 . S
C2303 C2304 1.516 . S
C2304 C2303 1.516 . S
C2304 C2305 1.502 . S
C2304 C2306 1.561 . S
C2304 C2307 1.526 . S
C2305 H2289 0.959 . S
C2305 H2290 0.959 . S
C2305 H2291 0.961 . S
C2305 C2304 1.502 . S
C2306 H2292 0.960 . S
C2306 H2293 0.961 . S
C2306 H2294 0.959 . S
C2306 C2304 1.561 . S
C2307 C2304 1.526 . S
C2307 C2308 1.396 . S
C2307 C2312 1.390 . S
C2308 C2302 1.465 . S
C2308 C2307 1.396 . S
C2308 C2309 1.399 . S
C2309 H2295 0.929 . S
C2309 C2308 1.399 . S
C2309 C2310 1.385 . S
C2310 H2296 0.931 . S
C2310 C2309 1.385 . S
C2310 C2311 1.389 . S
C2311 C2310 1.389 . S
C2311 C2312 1.387 . S
C2312 H2297 0.930 . S
C2312 C2307 1.390 . S
C2312 C2311 1.387 . S
H2313 C2325 0.930 . S
H2314 C2327 0.930 . S
H2315 C2328 0.930 . S
H2316 C2332 0.959 . S
H2317 C2332 0.959 . S
H2318 C2332 0.961 . S
H2319 C2333 0.960 . S
H2320 C2333 0.961 . S
H2321 C2333 0.959 . S
H2322 C2336 0.929 . S
H2323 C2337 0.931 . S
H2324 C2339 0.930 . S
C2325 H2313 0.930 . S
C2325 C2326 1.399 . S
C2325 C2330 1.399 . S
C2326 C2325 1.399 . S
C2326 C2327 1.376 . S
C2327 H2314 0.930 . S
C2327 C2326 1.376 . S
C2327 C2328 1.388 . S
C2328 H2315 0.930 . S
C2328 C2327 1.388 . S
C2328 C2329 1.390 . S
C2329 C2328 1.390 . S
C2329 C2330 1.394 . S
C2329 C2335 1.465 . S
C2330 C2325 1.399 . S
C2330 C2329 1.394 . S
C2330 C2331 1.516 . S
C2331 C2330 1.516 . S
C2331 C2332 1.502 . S
C2331 C2333 1.561 . S
C2331 C2334 1.526 . S
C2332 H2316 0.959 . S
C2332 H2317 0.959 . S
C2332 H2318 0.961 . S
C2332 C2331 1.502 . S
C2333 H2319 0.960 . S
C2333 H2320 0.961 . S
C2333 H2321 0.959 . S
C2333 C2331 1.561 . S
C2334 C2331 1.526 . S
C2334 C2335 1.396 . S
C2334 C2339 1.390 . S
C2335 C2329 1.465 . S
C2335 C2334 1.396 . S
C2335 C2336 1.399 . S
C2336 H2322 0.929 . S
C2336 C2335 1.399 . S
C2336 C2337 1.385 . S
C2337 H2323 0.931 . S
C2337 C2336 1.385 . S
C2337 C2338 1.389 . S
C2338 C2337 1.389 . S
C2338 C2339 1.387 . S
C2339 H2324 0.930 . S
C2339 C2334 1.390 . S
C2339 C2338 1.387 . S
H2340 C2352 0.930 . S
H2341 C2354 0.930 . S
H2342 C2355 0.930 . S
H2343 C2359 0.959 . S
H2344 C2359 0.959 . S
H2345 C2359 0.961 . S
H2346 C2360 0.960 . S
H2347 C2360 0.961 . S
H2348 C2360 0.959 . S
H2349 C2363 0.929 . S
H2350 C2364 0.931 . S
H2351 C2366 0.930 . S
C2352 H2340 0.930 . S
C2352 C2353 1.399 . S
C2352 C2357 1.399 . S
C2353 C2352 1.399 . S
C2353 C2354 1.376 . S
C2354 H2341 0.930 . S
C2354 C2353 1.376 . S
C2354 C2355 1.388 . S
C2355 H2342 0.930 . S
C2355 C2354 1.388 . S
C2355 C2356 1.390 . S
C2356 C2355 1.390 . S
C2356 C2357 1.394 . S
C2356 C2362 1.465 . S
C2357 C2352 1.399 . S
C2357 C2356 1.394 . S
C2357 C2358 1.516 . S
C2358 C2357 1.516 . S
C2358 C2359 1.502 . S
C2358 C2360 1.561 . S
C2358 C2361 1.526 . S
C2359 H2343 0.959 . S
C2359 H2344 0.959 . S
C2359 H2345 0.961 . S
C2359 C2358 1.502 . S
C2360 H2346 0.960 . S
C2360 H2347 0.961 . S
C2360 H2348 0.959 . S
C2360 C2358 1.561 . S
C2361 C2358 1.526 . S
C2361 C2362 1.396 . S
C2361 C2366 1.390 . S
C2362 C2356 1.465 . S
C2362 C2361 1.396 . S
C2362 C2363 1.399 . S
C2363 H2349 0.929 . S
C2363 C2362 1.399 . S
C2363 C2364 1.385 . S
C2364 H2350 0.931 . S
C2364 C2363 1.385 . S
C2364 C2365 1.389 . S
C2365 C2364 1.389 . S
C2365 C2366 1.387 . S
C2366 H2351 0.930 . S
C2366 C2361 1.390 . S
C2366 C2365 1.387 . S
H2367 C2379 0.930 . S
H2368 C2381 0.930 . S
H2369 C2382 0.930 . S
H2370 C2386 0.959 . S
H2371 C2386 0.959 . S
H2372 C2386 0.961 . S
H2373 C2387 0.960 . S
H2374 C2387 0.961 . S
H2375 C2387 0.959 . S
H2376 C2390 0.929 . S
H2377 C2391 0.931 . S
H2378 C2393 0.930 . S
C2379 H2367 0.930 . S
C2379 C2380 1.399 . S
C2379 C2384 1.399 . S
C2380 C2379 1.399 . S
C2380 C2381 1.376 . S
C2381 H2368 0.930 . S
C2381 C2380 1.376 . S
C2381 C2382 1.388 . S
C2382 H2369 0.930 . S
C2382 C2381 1.388 . S
C2382 C2383 1.390 . S
C2383 C2382 1.390 . S
C2383 C2384 1.394 . S
C2383 C2389 1.465 . S
C2384 C2379 1.399 . S
C2384 C2383 1.394 . S
C2384 C2385 1.516 . S
C2385 C2384 1.516 . S
C2385 C2386 1.502 . S
C2385 C2387 1.561 . S
C2385 C2388 1.526 . S
C2386 H2370 0.959 . S
C2386 H2371 0.959 . S
C2386 H2372 0.961 . S
C2386 C2385 1.502 . S
C2387 H2373 0.960 . S
C2387 H2374 0.961 . S
C2387 H2375 0.959 . S
C2387 C2385 1.561 . S
C2388 C2385 1.526 . S
C2388 C2389 1.396 . S
C2388 C2393 1.390 . S
C2389 C2383 1.465 . S
C2389 C2388 1.396 . S
C2389 C2390 1.399 . S
C2390 H2376 0.929 . S
C2390 C2389 1.399 . S
C2390 C2391 1.385 . S
C2391 H2377 0.931 . S
C2391 C2390 1.385 . S
C2391 C2392 1.389 . S
C2392 C2391 1.389 . S
C2392 C2393 1.387 . S
C2393 H2378 0.930 . S
C2393 C2388 1.390 . S
C2393 C2392 1.387 . S
H2394 C2406 0.930 1_545 S
H2395 C2408 0.930 . S
H2396 C2409 0.930 . S
H2397 C2413 0.959 . S
H2398 C2413 0.959 . S
H2399 C2413 0.961 . S
H2400 C2414 0.960 . S
H2401 C2414 0.961 . S
H2402 C2414 0.959 . S
H2403 C2417 0.929 . S
H2404 C2418 0.931 . S
H2405 C2420 0.930 1_545 S
C2406 H2394 0.930 1_565 S
C2406 C2407 1.399 . S
C2406 C2411 1.399 . S
C2407 C2406 1.399 . S
C2407 C2408 1.376 . S
C2408 H2395 0.930 . S
C2408 C2407 1.376 . S
C2408 C2409 1.388 . S
C2409 H2396 0.930 . S
C2409 C2408 1.388 . S
C2409 C2410 1.390 . S
C2410 C2409 1.390 . S
C2410 C2411 1.394 . S
C2410 C2416 1.465 . S
C2411 C2406 1.399 . S
C2411 C2410 1.394 . S
C2411 C2412 1.516 1_565 S
C2412 C2411 1.516 1_545 S
C2412 C2413 1.502 . S
C2412 C2414 1.561 . S
C2412 C2415 1.526 1_545 S
C2413 H2397 0.959 . S
C2413 H2398 0.959 . S
C2413 H2399 0.961 . S
C2413 C2412 1.502 . S
C2414 H2400 0.960 . S
C2414 H2401 0.961 . S
C2414 H2402 0.959 . S
C2414 C2412 1.561 . S
C2415 C2412 1.526 1_565 S
C2415 C2416 1.396 . S
C2415 C2420 1.390 . S
C2416 C2410 1.465 . S
C2416 C2415 1.396 . S
C2416 C2417 1.399 . S
C2417 H2403 0.929 . S
C2417 C2416 1.399 . S
C2417 C2418 1.385 . S
C2418 H2404 0.931 . S
C2418 C2417 1.385 . S
C2418 C2419 1.389 . S
C2419 C2418 1.389 . S
C2419 C2420 1.387 . S
C2420 H2405 0.930 1_565 S
C2420 C2415 1.390 . S
C2420 C2419 1.387 . S
H2421 C2433 0.930 . S
H2422 C2435 0.930 . S
H2423 C2436 0.930 . S
H2424 C2440 0.959 . S
H2425 C2440 0.959 . S
H2426 C2440 0.961 . S
H2427 C2441 0.960 . S
H2428 C2441 0.961 . S
H2429 C2441 0.959 . S
H2430 C2444 0.929 . S
H2431 C2445 0.931 . S
H2432 C2447 0.930 . S
C2433 H2421 0.930 . S
C2433 C2434 1.399 . S
C2433 C2438 1.399 . S
C2434 C2433 1.399 . S
C2434 C2435 1.376 . S
C2435 H2422 0.930 . S
C2435 C2434 1.376 . S
C2435 C2436 1.388 . S
C2436 H2423 0.930 . S
C2436 C2435 1.388 . S
C2436 C2437 1.390 . S
C2437 C2436 1.390 . S
C2437 C2438 1.394 . S
C2437 C2443 1.465 . S
C2438 C2433 1.399 . S
C2438 C2437 1.394 . S
C2438 C2439 1.516 . S
C2439 C2438 1.516 . S
C2439 C2440 1.502 . S
C2439 C2441 1.561 . S
C2439 C2442 1.526 . S
C2440 H2424 0.959 . S
C2440 H2425 0.959 . S
C2440 H2426 0.961 . S
C2440 C2439 1.502 . S
C2441 H2427 0.960 . S
C2441 H2428 0.961 . S
C2441 H2429 0.959 . S
C2441 C2439 1.561 . S
C2442 C2439 1.526 . S
C2442 C2443 1.396 . S
C2442 C2447 1.390 . S
C2443 C2437 1.465 . S
C2443 C2442 1.396 . S
C2443 C2444 1.399 . S
C2444 H2430 0.929 . S
C2444 C2443 1.399 . S
C2444 C2445 1.385 . S
C2445 H2431 0.931 . S
C2445 C2444 1.385 . S
C2445 C2446 1.389 . S
C2446 C2445 1.389 . S
C2446 C2447 1.387 . S
C2447 H2432 0.930 . S
C2447 C2442 1.390 . S
C2447 C2446 1.387 . S
C517 C3 1.587 . S
C529 C157 1.588 . S
C544 C129 1.588 . S
C556 C17 1.588 . S
C571 C143 1.591 . S
C583 C31 1.592 . S
C598 C45 1.588 . S
C610 C101 1.588 . S
C625 C59 1.593 . S
C637 C115 1.594 . S
C652 C73 1.594 . S
C664 C87 1.594 . S
C679 C171 1.593 . S
C691 C325 1.592 . S
C706 C297 1.588 . S
C718 C185 1.588 . S
C733 C199 1.589 . S
C745 C311 1.589 . S
C760 C213 1.590 . S
C772 C269 1.589 . S
C787 C227 1.589 . S
C799 C283 1.590 . S
C814 C241 1.593 . S
C826 C255 1.592 . S
C841 C339 1.588 . S
C853 C493 1.589 . S
C868 C353 1.591 . S
C880 C465 1.592 . S
C895 C479 1.593 . S
C907 C367 1.594 . S
C922 C381 1.592 . S
C934 C437 1.593 . S
C949 C451 1.588 . S
C961 C395 1.588 . S
C976 C423 1.588 . S
C988 C409 1.589 . S
C1003 C8 1.275 . S
C1015 C218 1.271 . S
C1030 C22 1.304 . S
C1042 C232 1.263 . S
C1057 C36 1.257 . S
C1069 C246 1.305 . S
C1084 C50 1.298 . S
C1096 C344 1.254 . S
C1111 C358 1.291 . S
C1123 C64 1.281 . S
C1138 C372 1.300 . S
C1150 C78 1.254 . S
C1165 C92 1.301 . S
C1177 C470 1.258 . S
C1192 C484 1.276 . S
C1204 C106 1.304 . S
C1219 C120 1.290 . S
C1231 C498 1.297 . S
C1246 C134 1.304 . S
C1258 C260 1.277 . S
C1273 C148 1.270 . S
C1285 C274 1.305 . S
C1300 C162 1.254 . S
C1312 C288 1.293 . S
C1327 C386 1.299 . S
C1339 C176 1.255 . S
C1354 C190 1.304 . S
C1366 C400 1.264 . S
C1381 C204 1.303 . S
C1393 C414 1.255 . S
C1408 C428 1.305 . S
C1420 C302 1.272 . S
C1435 C442 1.289 . S
C1447 C316 1.254 . S
C1462 C330 1.253 . S
C1474 C456 1.287 . S
C1489 C9 1.299 . S
C1501 C65 1.301 . S
C1516 C79 1.300 . S
C1528 C23 1.300 . S
C1543 C51 1.220 . S
C1555 C37 1.233 . S
C1570 C93 1.286 . S
C1582 C149 1.294 . S
C1597 C163 1.267 . S
C1609 C107 1.279 . S
C1624 C121 1.222 . S
C1636 C135 1.233 . S
C1651 C233 1.243 . S
C1663 C177 1.230 . S
C1678 C191 1.252 . S
C1690 C247 1.238 . S
C1705 C205 1.290 . S
C1717 C219 1.278 . S
C1732 C317 1.218 . S
C1744 C261 1.228 . S
C1759 C331 1.256 . S
C1771 C275 1.244 . S
C1786 C303 1.219 . S
C1798 C289 1.230 . S
C1813 C345 1.270 . S
C1825 C401 1.283 . S
C1840 C359 1.239 . S
C1852 C415 1.226 . S
C1867 C373 1.292 . S
C1879 C387 1.280 . S
C1894 C485 1.209 . S
C1906 C429 1.213 . S
C1921 C499 1.278 . S
C1933 C443 1.288 . S
C1948 C471 1.225 . S
C1960 C457 1.236 . S
C1975 C133 1.543 . S
C1987 C7 1.537 . S
C2002 C147 1.574 . S
C2014 C21 1.566 . S
C2029 C35 1.564 . S
C2041 C161 1.555 . S
C2056 C49 1.556 . S
C2068 C91 1.565 . S
C2083 C105 1.557 . S
C2095 C63 1.566 . S
C2110 C77 1.547 . S
C2122 C119 1.556 . S
C2137 C301 1.530 . S
C2149 C175 1.531 . S
C2164 C315 1.566 . S
C2176 C189 1.557 . S
C2191 C203 1.557 . S
C2203 C329 1.548 . S
C2218 C259 1.530 . S
C2230 C217 1.533 . S
C2245 C273 1.559 . S
C2257 C231 1.550 . S
C2272 C287 1.532 . S
C2284 C245 1.537 . S
C2299 C343 1.565 . S
C2311 C469 1.557 . S
C2326 C483 1.546 . S
C2338 C357 1.539 . S
C2353 C371 1.537 . S
C2365 C497 1.533 . S
C2380 C385 1.580 . S
C2392 C427 1.572 . S
C2407 C399 1.530 . S
C2419 C441 1.532 . S
C2434 C455 1.588 . S
C2446 C413 1.585 . S
