# Generated by pormake.
# Topology soi, (5)-cn, num edge types: 1
# Building blocks:
#     Node 0, Type 0, BuildingBlock: XOMCOT_clean_sbu_1, # of connection points: 5
#     Node 1, Type 0, BuildingBlock: XOMCOT_clean_sbu_1, # of connection points: 5
#     Node 2, Type 0, BuildingBlock: XOMCOT_clean_sbu_1, # of connection points: 5
#     Node 3, Type 0, BuildingBlock: XOMCOT_clean_sbu_1, # of connection points: 5
#     Node 4, Type 0, BuildingBlock: XOMCOT_clean_sbu_1, # of connection points: 5
#     Node 5, Type 0, BuildingBlock: XOMCOT_clean_sbu_1, # of connection points: 5
#     Node 6, Type 0, BuildingBlock: XOMCOT_clean_sbu_1, # of connection points: 5
#     Node 7, Type 0, BuildingBlock: XOMCOT_clean_sbu_1, # of connection points: 5
#     Node 8, Type 0, BuildingBlock: XOMCOT_clean_sbu_1, # of connection points: 5
#     Node 9, Type 0, BuildingBlock: XOMCOT_clean_sbu_1, # of connection points: 5
#     Node 10, Type 0, BuildingBlock: XOMCOT_clean_sbu_1, # of connection points: 5
#     Node 11, Type 0, BuildingBlock: XOMCOT_clean_sbu_1, # of connection points: 5
#     Node 12, Type 0, BuildingBlock: XOMCOT_clean_sbu_1, # of connection points: 5
#     Node 13, Type 0, BuildingBlock: XOMCOT_clean_sbu_1, # of connection points: 5
#     Node 14, Type 0, BuildingBlock: XOMCOT_clean_sbu_1, # of connection points: 5
#     Node 15, Type 0, BuildingBlock: XOMCOT_clean_sbu_1, # of connection points: 5
#     Edge 16, Type (0, 0), BuildingBlock: UVAHIK_clean_linker_0, # of connection points: 2
#     Edge 17, Type (0, 0), BuildingBlock: UVAHIK_clean_linker_0, # of connection points: 2
#     Edge 18, Type (0, 0), BuildingBlock: UVAHIK_clean_linker_0, # of connection points: 2
#     Edge 19, Type (0, 0), BuildingBlock: UVAHIK_clean_linker_0, # of connection points: 2
#     Edge 20, Type (0, 0), BuildingBlock: UVAHIK_clean_linker_0, # of connection points: 2
#     Edge 21, Type (0, 0), BuildingBlock: UVAHIK_clean_linker_0, # of connection points: 2
#     Edge 22, Type (0, 0), BuildingBlock: UVAHIK_clean_linker_0, # of connection points: 2
#     Edge 23, Type (0, 0), BuildingBlock: UVAHIK_clean_linker_0, # of connection points: 2
#     Edge 24, Type (0, 0), BuildingBlock: UVAHIK_clean_linker_0, # of connection points: 2
#     Edge 25, Type (0, 0), BuildingBlock: UVAHIK_clean_linker_0, # of connection points: 2
#     Edge 26, Type (0, 0), BuildingBlock: UVAHIK_clean_linker_0, # of connection points: 2
#     Edge 27, Type (0, 0), BuildingBlock: UVAHIK_clean_linker_0, # of connection points: 2
#     Edge 28, Type (0, 0), BuildingBlock: UVAHIK_clean_linker_0, # of connection points: 2
#     Edge 29, Type (0, 0), BuildingBlock: UVAHIK_clean_linker_0, # of connection points: 2
#     Edge 30, Type (0, 0), BuildingBlock: UVAHIK_clean_linker_0, # of connection points: 2
#     Edge 31, Type (0, 0), BuildingBlock: UVAHIK_clean_linker_0, # of connection points: 2
#     Edge 32, Type (0, 0), BuildingBlock: UVAHIK_clean_linker_0, # of connection points: 2
#     Edge 33, Type (0, 0), BuildingBlock: UVAHIK_clean_linker_0, # of connection points: 2
#     Edge 34, Type (0, 0), BuildingBlock: UVAHIK_clean_linker_0, # of connection points: 2
#     Edge 35, Type (0, 0), BuildingBlock: UVAHIK_clean_linker_0, # of connection points: 2
#     Edge 36, Type (0, 0), BuildingBlock: UVAHIK_clean_linker_0, # of connection points: 2
#     Edge 37, Type (0, 0), BuildingBlock: UVAHIK_clean_linker_0, # of connection points: 2
#     Edge 38, Type (0, 0), BuildingBlock: UVAHIK_clean_linker_0, # of connection points: 2
#     Edge 39, Type (0, 0), BuildingBlock: UVAHIK_clean_linker_0, # of connection points: 2
#     Edge 40, Type (0, 0), BuildingBlock: UVAHIK_clean_linker_0, # of connection points: 2
#     Edge 41, Type (0, 0), BuildingBlock: UVAHIK_clean_linker_0, # of connection points: 2
#     Edge 42, Type (0, 0), BuildingBlock: UVAHIK_clean_linker_0, # of connection points: 2
#     Edge 43, Type (0, 0), BuildingBlock: UVAHIK_clean_linker_0, # of connection points: 2
#     Edge 44, Type (0, 0), BuildingBlock: UVAHIK_clean_linker_0, # of connection points: 2
#     Edge 45, Type (0, 0), BuildingBlock: UVAHIK_clean_linker_0, # of connection points: 2
#     Edge 46, Type (0, 0), BuildingBlock: UVAHIK_clean_linker_0, # of connection points: 2
#     Edge 47, Type (0, 0), BuildingBlock: UVAHIK_clean_linker_0, # of connection points: 2
#     Edge 48, Type (0, 0), BuildingBlock: UVAHIK_clean_linker_0, # of connection points: 2
#     Edge 49, Type (0, 0), BuildingBlock: UVAHIK_clean_linker_0, # of connection points: 2
#     Edge 50, Type (0, 0), BuildingBlock: UVAHIK_clean_linker_0, # of connection points: 2
#     Edge 51, Type (0, 0), BuildingBlock: UVAHIK_clean_linker_0, # of connection points: 2
#     Edge 52, Type (0, 0), BuildingBlock: UVAHIK_clean_linker_0, # of connection points: 2
#     Edge 53, Type (0, 0), BuildingBlock: UVAHIK_clean_linker_0, # of connection points: 2
#     Edge 54, Type (0, 0), BuildingBlock: UVAHIK_clean_linker_0, # of connection points: 2
#     Edge 55, Type (0, 0), BuildingBlock: UVAHIK_clean_linker_0, # of connection points: 2
# Relax obj value: 0.127
# Max RMSD: 0.170
# Mean RMSD: 0.170
data_MOF--net-soi--node1-XOMCOT_clean_sbu_1--edge1-UVAHIK_clean_linker_0
_symmetry_space_group_name_H-M    P1
_symmetry_Int_Tables_number       1
_symmetry_cell_setting            triclinic
loop_
_symmetry_equiv_pos_as_xyz
'x, y, z'
_cell_length_a     58.874908
_cell_length_b     33.023625
_cell_length_c     82.992687
_cell_angle_alpha  89.939858
_cell_angle_beta   90.002108
_cell_angle_gamma 90.030779
loop_
_atom_site_label
_atom_site_type_symbol
_atom_site_fract_x
_atom_site_fract_y
_atom_site_fract_z
_atom_type_partial_charge
C0 C 0.3511 0.03365 0.10321 0.0
C1 C 0.34129 0.03991 0.0884 0.0
N2 N 0.31864 0.04277 0.0904 0.0
N3 N 0.3348 0.03324 0.11462 0.0
C4 C 0.31513 0.0385 0.10643 0.0
H5 H 0.36896 0.02851 0.10548 0.0
Co6 Co 0.33967 0.02112 0.13635 0.0
C7 C 0.31922 0.09339 0.15209 0.0
O8 O 0.33728 0.09753 0.16126 0.0
N9 N 0.34467 0.00577 0.15798 0.0
C10 C 0.35708 0.96393 0.17714 0.0
C11 C 0.35816 0.97366 0.1611 0.0
C12 C 0.33474 0.01389 0.1724 0.0
N13 N 0.34239 0.98935 0.18428 0.0
O14 O 0.31575 0.98214 0.13566 0.0
H15 H 0.36755 0.95711 0.15205 0.0
H16 H 0.32107 0.03521 0.17412 0.0
O17 O 0.31791 0.06351 0.14232 0.0
C18 C 0.32078 0.94843 0.12914 0.0
O19 O 0.34098 0.94416 0.12262 0.0
N20 N 0.3644 0.05847 0.1367 0.0
C21 C 0.40221 0.10975 0.13584 0.0
C22 C 0.38076 0.12394 0.13127 0.0
C23 C 0.3622 0.09753 0.13136 0.0
C24 C 0.38544 0.04388 0.14047 0.0
C25 C 0.40452 0.06903 0.14023 0.0
H26 H 0.34609 0.10845 0.12689 0.0
H27 H 0.38779 0.01233 0.14323 0.0
H28 H 0.29856 0.03818 0.11208 0.0
H29 H 0.35008 0.04039 0.07694 0.0
H30 H 0.36618 0.93964 0.18307 0.0
H31 H 0.37847 0.15488 0.12724 0.0
H32 H 0.42095 0.05669 0.14346 0.0
C33 C 0.64837 0.44953 0.10034 0.0
C34 C 0.65638 0.44204 0.08512 0.0
N35 N 0.67882 0.43418 0.08605 0.0
N36 N 0.66552 0.44601 0.11099 0.0
C37 C 0.68396 0.43695 0.10194 0.0
H38 H 0.63122 0.45826 0.10345 0.0
Co39 Co 0.66236 0.45848 0.13282 0.0
C40 C 0.68297 0.38584 0.14822 0.0
O41 O 0.6653 0.38245 0.15782 0.0
N42 N 0.65885 0.47449 0.15449 0.0
C43 C 0.64808 0.51848 0.17335 0.0
C44 C 0.64622 0.50776 0.15747 0.0
C45 C 0.669 0.46643 0.16886 0.0
N46 N 0.66237 0.49243 0.18055 0.0
O47 O 0.68664 0.49668 0.13122 0.0
H48 H 0.63684 0.52427 0.14839 0.0
H49 H 0.68212 0.44406 0.17064 0.0
O50 O 0.68408 0.41547 0.13829 0.0
C51 C 0.68178 0.53065 0.12482 0.0
O52 O 0.6614 0.53576 0.11868 0.0
N53 N 0.63733 0.4219 0.13409 0.0
C54 C 0.59901 0.37125 0.13425 0.0
C55 C 0.62016 0.35703 0.12887 0.0
C56 C 0.63887 0.38304 0.12849 0.0
C57 C 0.61671 0.43669 0.13873 0.0
C58 C 0.59746 0.41194 0.13902 0.0
H59 H 0.65464 0.37187 0.12353 0.0
H60 H 0.61477 0.46819 0.14173 0.0
H61 H 0.70085 0.43349 0.10688 0.0
H62 H 0.64657 0.44416 0.07412 0.0
H63 H 0.6398 0.54385 0.17914 0.0
H64 H 0.6224 0.32605 0.12495 0.0
H65 H 0.58137 0.42509 0.14255 0.0
C66 C 0.34737 0.95463 0.43692 0.0
C67 C 0.33767 0.94871 0.45177 0.0
N68 N 0.3151 0.94384 0.44982 0.0
N69 N 0.33113 0.953 0.4255 0.0
C70 C 0.31158 0.94665 0.43372 0.0
H71 H 0.36506 0.96135 0.43462 0.0
Co72 Co 0.33605 0.96559 0.40383 0.0
C73 C 0.3168 0.89316 0.38742 0.0
O74 O 0.33524 0.89008 0.37856 0.0
N75 N 0.34112 0.98153 0.38223 0.0
C76 C 0.35373 0.02305 0.363 0.0
C77 C 0.35455 0.01376 0.3791 0.0
C78 C 0.33138 0.97314 0.36778 0.0
N79 N 0.33921 -0.00266 0.35584 0.0
O80 O 0.3117 0.00366 0.40447 0.0
H81 H 0.36378 0.0306 0.38814 0.0
H82 H 0.31778 0.95168 0.36603 0.0
O83 O 0.31487 0.92224 0.39752 0.0
C84 C 0.31652 0.03734 0.41111 0.0
O85 O 0.33662 0.04177 0.41777 0.0
N86 N 0.36126 0.92941 0.40357 0.0
C87 C 0.40009 0.88027 0.40483 0.0
C88 C 0.37866 0.86488 0.40906 0.0
C89 C 0.35962 0.89015 0.40874 0.0
C90 C 0.38211 0.94533 0.40022 0.0
C91 C 0.40162 0.92135 0.40062 0.0
H92 H 0.34354 0.87814 0.41283 0.0
H93 H 0.384 0.97714 0.39779 0.0
H94 H 0.29506 0.94548 0.42802 0.0
H95 H 0.34648 0.95012 0.4632 0.0
H96 H 0.36302 0.04708 0.35704 0.0
H97 H 0.37648 0.83357 0.41261 0.0
H98 H 0.41786 0.93534 0.39805 0.0
C99 C 0.6491 0.54502 0.43236 0.0
C100 C 0.65847 0.5493 0.44739 0.0
N101 N 0.68118 0.55291 0.44582 0.0
N102 N 0.66567 0.54638 0.42119 0.0
C103 C 0.68511 0.55094 0.42973 0.0
H104 H 0.63137 0.53947 0.42977 0.0
Co105 Co 0.6607 0.53513 0.39942 0.0
C106 C 0.68219 0.6052 0.38304 0.0
O107 O 0.66415 0.60887 0.37381 0.0
N108 N 0.65541 0.52041 0.37767 0.0
C109 C 0.6416 0.48116 0.35812 0.0
C110 C 0.64022 0.49107 0.37413 0.0
C111 C 0.66671 0.52621 0.36356 0.0
N112 N 0.65823 0.50338 0.35143 0.0
O113 O 0.68375 0.49465 0.4001 0.0
H114 H 0.62959 0.47591 0.38286 0.0
H115 H 0.68179 0.54457 0.36229 0.0
O116 O 0.68321 0.57653 0.39342 0.0
C117 C 0.67659 0.46118 0.40579 0.0
O118 O 0.65559 0.45933 0.41111 0.0
N119 N 0.63667 0.57386 0.39924 0.0
C120 C 0.59938 0.62598 0.40178 0.0
C121 C 0.62134 0.6398 0.4052 0.0
C122 C 0.63966 0.61297 0.40431 0.0
C123 C 0.61522 0.55977 0.39648 0.0
C124 C 0.59641 0.58532 0.39753 0.0
H125 H 0.65617 0.62348 0.40817 0.0
H126 H 0.61232 0.52819 0.39417 0.0
H127 H 0.70179 0.55136 0.42427 0.0
H128 H 0.64927 0.54757 0.45865 0.0
H129 H 0.63138 0.45876 0.35195 0.0
H130 H 0.6242 0.67067 0.40911 0.0
H131 H 0.57962 0.57324 0.39519 0.0
C132 C 0.66077 0.00015 0.92676 0.0
C133 C 0.66871 -0.00232 0.94225 0.0
N134 N 0.68345 0.96657 0.94316 0.0
N135 N 0.67039 0.97085 0.91782 0.0
C136 C 0.68431 0.95082 0.92809 0.0
H137 H 0.6485 0.02172 0.92225 0.0
Co138 Co 0.66183 0.96493 0.89649 0.0
C139 C 0.68294 0.8902 0.8839 0.0
O140 O 0.66434 0.8844 0.87548 0.0
N141 N 0.65243 0.96127 0.87447 0.0
C142 C 0.63227 0.95222 0.852 0.0
C143 C 0.63159 0.95242 0.86849 0.0
C144 C 0.66532 0.96741 0.86108 0.0
N145 N 0.65342 0.96168 0.84735 0.0
O146 O 0.68394 0.00488 0.89065 0.0
H147 H 0.61656 0.94582 0.87534 0.0
H148 H 0.68324 0.97474 0.86138 0.0
O149 O 0.68447 0.9213 0.8931 0.0
C150 C 0.67607 0.04038 0.88841 0.0
O151 O 0.65396 0.0457 0.88893 0.0
N152 N 0.63924 0.92805 0.9034 0.0
C153 C 0.60272 0.87991 0.9131 0.0
C154 C 0.62489 0.86443 0.91304 0.0
C155 C 0.643 0.88933 0.9086 0.0
C156 C 0.61829 0.94493 0.90536 0.0
C157 C 0.59963 0.92121 0.9098 0.0
H158 H 0.65993 0.87726 0.9096 0.0
H159 H 0.61584 0.97667 0.9026 0.0
H160 H 0.69436 0.92473 0.92474 0.0
H161 H 0.66409 0.01758 0.95207 0.0
H162 H 0.61823 0.94572 0.84398 0.0
H163 H 0.62823 0.83334 0.91648 0.0
H164 H 0.5829 0.93479 0.91007 0.0
C165 C 0.34816 0.51168 0.92905 0.0
C166 C 0.33971 0.51343 0.94442 0.0
N167 N 0.32276 0.54085 0.94478 0.0
N168 N 0.33674 0.53782 0.91962 0.0
C169 C 0.3212 0.55514 0.92949 0.0
H170 H 0.36173 0.49226 0.92489 0.0
Co171 Co 0.34414 0.5422 0.89795 0.0
C172 C 0.32303 0.61689 0.88541 0.0
O173 O 0.34115 0.62204 0.87639 0.0
N174 N 0.3522 0.54423 0.87566 0.0
C175 C 0.37154 0.54718 0.85261 0.0
C176 C 0.37314 0.54765 0.86907 0.0
C177 C 0.33822 0.5405 0.8627 0.0
N178 N 0.34959 0.5428 0.84855 0.0
O179 O 0.32147 0.50269 0.89317 0.0
H180 H 0.38892 0.54996 0.87551 0.0
H181 H 0.31998 0.53705 0.86362 0.0
O182 O 0.32186 0.5862 0.89486 0.0
C183 C 0.32978 0.46746 0.8912 0.0
O184 O 0.35198 0.46329 0.89136 0.0
N185 N 0.36756 0.57858 0.90376 0.0
C186 C 0.40568 0.62402 0.91255 0.0
C187 C 0.38395 0.64153 0.91244 0.0
C188 C 0.36503 0.61797 0.90849 0.0
C189 C 0.38811 0.56012 0.90552 0.0
C190 C 0.40745 0.58232 0.90957 0.0
H191 H 0.3485 0.63162 0.90954 0.0
H192 H 0.38957 0.52796 0.90326 0.0
H193 H 0.30913 0.57782 0.92558 0.0
H194 H 0.34532 0.49508 0.95447 0.0
H195 H 0.38559 0.54918 0.84423 0.0
H196 H 0.38151 0.67328 0.91517 0.0
H197 H 0.42364 0.56688 0.91032 0.0
C198 C 0.64857 0.05082 0.59679 0.0
C199 C 0.65855 0.057 0.58207 0.0
N200 N 0.68121 0.05969 0.58417 0.0
N201 N 0.66471 0.05022 0.6083 0.0
C202 C 0.6845 0.05535 0.60025 0.0
H203 H 0.6307 0.0454 0.59891 0.0
Co204 Co 0.6589 0.03624 0.62974 0.0
C205 C 0.67831 0.10535 0.64758 0.0
O206 O 0.65949 0.10717 0.65608 0.0
N207 N 0.65286 0.01879 0.65102 0.0
C208 C 0.63871 0.97627 0.6693 0.0
C209 C 0.63812 0.9881 0.65349 0.0
C210 C 0.66318 0.0235 0.66556 0.0
N211 N 0.6545 -0.00148 0.67696 0.0
O212 O 0.68222 0.9964 0.62881 0.0
H213 H 0.6283 0.9736 0.64412 0.0
H214 H 0.67776 0.04267 0.66764 0.0
O215 O 0.68074 0.07737 0.63704 0.0
C216 C 0.67567 0.96402 0.62191 0.0
O217 O 0.65511 0.96295 0.61574 0.0
N218 N 0.6346 0.07447 0.6301 0.0
C219 C 0.59736 0.12678 0.62766 0.0
C220 C 0.6193 0.14038 0.62402 0.0
C221 C 0.63759 0.11357 0.62499 0.0
C222 C 0.61318 0.06057 0.63312 0.0
C223 C 0.59442 0.08626 0.63219 0.0
H224 H 0.65413 0.12407 0.62118 0.0
H225 H 0.6102 0.02911 0.63561 0.0
H226 H 0.70099 0.05444 0.606 0.0
H227 H 0.64985 0.05712 0.57058 0.0
H228 H 0.62854 0.95249 0.67465 0.0
H229 H 0.62223 0.17109 0.61992 0.0
H230 H 0.5777 0.07428 0.63486 0.0
C231 C 0.33857 0.48484 0.60206 0.0
C232 C 0.33087 0.47958 0.58662 0.0
N233 N 0.31448 0.45119 0.58681 0.0
N234 N 0.32731 0.45972 0.61206 0.0
C235 C 0.31256 0.43953 0.60242 0.0
H236 H 0.35153 0.50598 0.60586 0.0
Co237 Co 0.33474 0.46006 0.63389 0.0
C238 C 0.3117 0.39039 0.64988 0.0
O239 O 0.32801 0.38891 0.66065 0.0
N240 N 0.34321 0.4635 0.65597 0.0
C241 C 0.36399 0.47142 0.6782 0.0
C242 C 0.36452 0.46275 0.66207 0.0
C243 C 0.33001 0.47309 0.66887 0.0
N244 N 0.34232 0.47791 0.6825 0.0
O245 O 0.31205 0.50063 0.63773 0.0
H246 H 0.37989 0.45765 0.65537 0.0
H247 H 0.31182 0.4776 0.66821 0.0
O248 O 0.3126 0.41653 0.63846 0.0
C249 C 0.29108 0.50383 0.63421 0.0
O250 O 0.28052 0.47401 0.6269 0.0
N251 N 0.35822 0.42286 0.62941 0.0
C252 C 0.39735 0.37751 0.62342 0.0
C253 C 0.3763 0.35836 0.62576 0.0
C254 C 0.35682 0.38162 0.62839 0.0
C255 C 0.37806 0.44191 0.62563 0.0
C256 C 0.39787 0.41994 0.62281 0.0
H257 H 0.34087 0.36602 0.6295 0.0
H258 H 0.3787 0.47465 0.62555 0.0
H259 H 0.3007 0.41691 0.60667 0.0
H260 H 0.33647 0.49617 0.57608 0.0
H261 H 0.37852 0.47346 0.68617 0.0
H262 H 0.3749 0.32568 0.62594 0.0
H263 H 0.4135 0.43613 0.6204 0.0
C264 C 0.85031 0.50744 0.60396 0.0
C265 C 0.84375 0.50452 0.58807 0.0
N266 N 0.82288 0.52099 0.58647 0.0
N267 N 0.83372 0.52564 0.61243 0.0
C268 C 0.81724 0.53339 0.6015 0.0
H269 H 0.86616 0.49689 0.60905 0.0
Co270 Co 0.83423 0.53697 0.63449 0.0
C271 C 0.79242 0.5839 0.63848 0.0
O272 O 0.78549 0.55813 0.64952 0.0
N273 N 0.83464 0.54897 0.65668 0.0
C274 C 0.83334 0.58547 0.67916 0.0
C275 C 0.83543 0.58691 0.66273 0.0
C276 C 0.8324 0.52482 0.66981 0.0
N277 N 0.83132 0.54647 0.68364 0.0
O278 O 0.81151 0.49645 0.63786 0.0
H279 H 0.83666 0.61424 0.6556 0.0
H280 H 0.83069 0.49223 0.66922 0.0
O281 O 0.81141 0.57836 0.63145 0.0
C282 C 0.81952 0.46064 0.63761 0.0
O283 O 0.8415 0.45589 0.63564 0.0
N284 N 0.85776 0.57397 0.63106 0.0
C285 C 0.89642 0.6224 0.62774 0.0
C286 C 0.87497 0.63642 0.62275 0.0
C287 C 0.85589 0.61148 0.62427 0.0
C288 C 0.87836 0.55946 0.63569 0.0
C289 C 0.89791 0.58297 0.63405 0.0
H290 H 0.8397 0.62265 0.62013 0.0
H291 H 0.87957 0.52926 0.64069 0.0
H292 H 0.80146 0.54822 0.60453 0.0
H293 H 0.85362 0.49082 0.57853 0.0
H294 H 0.83311 0.61123 0.68722 0.0
H295 H 0.87277 0.6666 0.6179 0.0
H296 H 0.91403 0.57004 0.63762 0.0
C297 C 0.14662 0.99387 0.60717 0.0
C298 C 0.1536 -0.00307 0.59138 0.0
N299 N 0.1726 0.97457 0.58947 0.0
N300 N 0.16109 0.96976 0.61526 0.0
C301 C 0.17675 0.95854 0.6042 0.0
H302 H 0.13192 0.00833 0.61245 0.0
Co303 Co 0.15864 0.95646 0.63702 0.0
C304 C 0.19931 0.90687 0.64227 0.0
O305 O 0.20597 0.93205 0.65358 0.0
N306 N 0.15607 0.94254 0.65901 0.0
C307 C 0.15254 0.90428 0.68094 0.0
C308 C 0.15388 0.90418 0.66446 0.0
C309 C 0.15601 0.96551 0.67253 0.0
N310 N 0.15386 0.94285 0.68608 0.0
O311 O 0.18165 0.99561 0.64174 0.0
H312 H 0.1536 0.87752 0.65691 0.0
H313 H 0.15738 -0.00185 0.6725 0.0
O314 O 0.18103 0.91394 0.63452 0.0
C315 C 0.17355 0.03107 0.64356 0.0
O316 O 0.15139 0.03575 0.64298 0.0
N317 N 0.13492 0.92096 0.63212 0.0
C318 C 0.0967 0.87308 0.62704 0.0
C319 C 0.1181 0.86024 0.62171 0.0
C320 C 0.13703 0.88507 0.6241 0.0
C321 C 0.11415 0.93437 0.63698 0.0
C322 C 0.09474 0.91093 0.63451 0.0
H323 H 0.15326 0.87529 0.61956 0.0
H324 H 0.11277 0.9633 0.64301 0.0
H325 H 0.19079 0.93858 0.60687 0.0
H326 H 0.14538 0.01473 0.58212 0.0
H327 H 0.15126 0.87777 0.68856 0.0
H328 H 0.12011 0.83142 0.61565 0.0
H329 H 0.07845 0.9218 0.63876 0.0
C330 C 0.84673 0.49158 0.93177 0.0
C331 C 0.83796 0.48832 0.94701 0.0
N332 N 0.82065 0.46162 0.94672 0.0
N333 N 0.8351 0.4672 0.92174 0.0
C334 C 0.81917 0.44934 0.93115 0.0
H335 H 0.8608 0.51059 0.92818 0.0
Co336 Co 0.84307 0.46406 0.90008 0.0
C337 C 0.82157 0.39053 0.88646 0.0
O338 O 0.83966 0.38529 0.87744 0.0
N339 N 0.85177 0.46306 0.87789 0.0
C340 C 0.87162 0.45888 0.85507 0.0
C341 C 0.87281 0.45856 0.87154 0.0
C342 C 0.83818 0.46744 0.86475 0.0
N343 N 0.84987 0.46426 0.85076 0.0
O344 O 0.82055 0.50398 0.89515 0.0
H345 H 0.88842 0.45528 0.87811 0.0
H346 H 0.81998 0.47164 0.86542 0.0
O347 O 0.82077 0.42021 0.8964 0.0
C348 C 0.82843 0.53987 0.89598 0.0
O349 O 0.85016 0.54463 0.89907 0.0
N350 N 0.86627 0.42751 0.90589 0.0
C351 C 0.90468 0.38202 0.91325 0.0
C352 C 0.88312 0.36403 0.91343 0.0
C353 C 0.86396 0.38759 0.90998 0.0
C354 C 0.88671 0.44626 0.90786 0.0
C355 C 0.90629 0.42392 0.91101 0.0
H356 H 0.84749 0.37348 0.91066 0.0
H357 H 0.88799 0.4786 0.90597 0.0
H358 H 0.80697 0.42751 0.92676 0.0
H359 H 0.84374 0.50499 0.95746 0.0
H360 H 0.88581 0.45596 0.84686 0.0
H361 H 0.88115 0.33192 0.91572 0.0
H362 H 0.92259 0.43913 0.91137 0.0
C363 C 0.14756 0.02155 0.93298 0.0
C364 C 0.15395 0.018 0.94889 0.0
N365 N 0.17603 0.02856 0.95021 0.0
N366 N 0.16546 0.03444 0.92427 0.0
C367 C 0.18257 0.03814 0.93504 0.0
H368 H 0.13084 0.01584 0.92809 0.0
Co369 Co 0.16561 0.0458 0.90224 0.0
C370 C 0.20854 0.08998 0.89913 0.0
O371 O 0.21616 0.06127 0.88962 0.0
N372 N 0.16599 0.05773 0.88006 0.0
C373 C 0.16742 0.09391 0.85749 0.0
C374 C 0.16687 0.09564 0.87398 0.0
C375 C 0.16577 0.03335 0.86694 0.0
N376 N 0.16681 0.05476 0.85301 0.0
O377 O 0.18768 0.00403 0.89918 0.0
H378 H 0.1671 0.12302 0.88112 0.0
H379 H 0.16524 0.00064 0.86759 0.0
O380 O 0.18886 0.08674 0.90543 0.0
C381 C 0.1795 0.96835 0.89984 0.0
O382 O 0.15753 0.96397 0.90202 0.0
N383 N 0.14274 0.08425 0.90535 0.0
C384 C 0.10598 0.13626 0.90907 0.0
C385 C 0.12596 0.1424 0.91793 0.0
C386 C 0.14431 0.11601 0.91583 0.0
C387 C 0.12313 0.0771 0.89712 0.0
C388 C 0.10466 0.10318 0.89858 0.0
H389 H 0.15959 0.12063 0.92281 0.0
H390 H 0.12189 0.05102 0.88929 0.0
H391 H 0.19953 0.04759 0.93175 0.0
H392 H 0.14294 0.00931 0.95874 0.0
H393 H 0.16789 0.11965 0.84942 0.0
H394 H 0.12742 0.1675 0.92625 0.0
H395 H 0.08932 0.09719 0.89176 0.0
C396 C 0.1524 0.4931 0.43044 0.0
C397 C 0.1608 0.48936 0.4458 0.0
N398 N 0.17834 0.46317 0.44551 0.0
N399 N 0.16442 0.46931 0.42042 0.0
C400 C 0.18028 0.45156 0.42991 0.0
H401 H 0.13833 0.51199 0.42674 0.0
Co402 Co 0.1571 0.46605 0.39867 0.0
C403 C 0.18036 0.3935 0.38538 0.0
O404 O 0.16345 0.38859 0.37524 0.0
N405 N 0.14907 0.46483 0.37635 0.0
C406 C 0.12997 0.45855 0.35327 0.0
C407 C 0.12844 0.45755 0.36973 0.0
C408 C 0.16275 0.47143 0.36338 0.0
N409 N 0.15148 0.46733 0.34928 0.0
O410 O 0.17958 0.50635 0.39416 0.0
H411 H 0.11297 0.45127 0.37614 0.0
H412 H 0.18077 0.47757 0.36423 0.0
O413 O 0.17991 0.42302 0.3954 0.0
C414 C 0.17201 0.54207 0.39202 0.0
O415 O 0.14993 0.54788 0.39227 0.0
N416 N 0.13403 0.4284 0.40411 0.0
C417 C 0.09658 0.37959 0.41111 0.0
C418 C 0.11852 0.36322 0.41074 0.0
C419 C 0.13711 0.38836 0.40769 0.0
C420 C 0.11315 0.44552 0.40623 0.0
C421 C 0.09408 0.42159 0.40944 0.0
H422 H 0.1538 0.37527 0.40847 0.0
H423 H 0.11113 0.47782 0.40456 0.0
H424 H 0.19277 0.43021 0.42557 0.0
H425 H 0.15469 0.50528 0.45633 0.0
H426 H 0.11633 0.45296 0.3448 0.0
H427 H 0.12131 0.33123 0.41285 0.0
H428 H 0.07748 0.43564 0.41 0.0
C429 C 0.84951 -0.00172 0.4272 0.0
C430 C 0.84235 0.99585 0.44297 0.0
N431 N 0.82362 0.01903 0.44472 0.0
N432 N 0.83542 0.02279 0.41897 0.0
C433 C 0.81984 0.03492 0.42991 0.0
H434 H 0.86404 0.98306 0.42202 0.0
Co435 Co 0.83804 0.03549 0.39716 0.0
C436 C 0.79726 0.0836 0.391 0.0
O437 O 0.7917 0.05839 0.37942 0.0
N438 N 0.84071 0.0488 0.37507 0.0
C439 C 0.84372 0.08711 0.35313 0.0
C440 C 0.84399 0.0869 0.36961 0.0
C441 C 0.83853 0.02626 0.36148 0.0
N442 N 0.84006 0.04905 0.34793 0.0
O443 O 0.81539 0.99558 0.39251 0.0
H444 H 0.84589 0.11336 0.37714 0.0
H445 H 0.83511 0.99411 0.36149 0.0
O446 O 0.81518 0.07734 0.39926 0.0
C447 C 0.82342 0.96009 0.39064 0.0
O448 O 0.84557 0.95523 0.39111 0.0
N449 N 0.86137 0.07189 0.40211 0.0
C450 C 0.89927 0.12125 0.40716 0.0
C451 C 0.87757 0.13343 0.41231 0.0
C452 C 0.85885 0.10803 0.40988 0.0
C453 C 0.88231 0.05883 0.39755 0.0
C454 C 0.90147 0.08291 0.39998 0.0
H455 H 0.8424 0.11778 0.41407 0.0
H456 H 0.88405 0.02957 0.39183 0.0
H457 H 0.80609 0.05537 0.4271 0.0
H458 H 0.85024 0.97785 0.45231 0.0
H459 H 0.84596 0.11354 0.34558 0.0
H460 H 0.87489 0.16265 0.41789 0.0
H461 H 0.91786 0.07139 0.39626 0.0
C462 C 0.1503 0.52686 0.09793 0.0
C463 C 0.15866 0.53555 0.0829 0.0
N464 N 0.18075 0.54567 0.08431 0.0
N465 N 0.16687 0.53184 0.10894 0.0
C466 C 0.18537 0.54293 0.10029 0.0
H467 H 0.13327 0.51667 0.10068 0.0
Co468 Co 0.16237 0.5198 0.1307 0.0
C469 C 0.18195 0.59189 0.14684 0.0
O470 O 0.16368 0.59471 0.15589 0.0
N471 N 0.15745 0.50429 0.15234 0.0
C472 C 0.14437 0.46233 0.1712 0.0
C473 C 0.14365 0.47248 0.15522 0.0
C474 C 0.16733 0.51163 0.16687 0.0
N475 N 0.15927 0.48694 0.1786 0.0
O476 O 0.18662 0.48158 0.13005 0.0
H477 H 0.13427 0.45637 0.14604 0.0
H478 H 0.18116 0.53259 0.16875 0.0
O479 O 0.18376 0.56273 0.13678 0.0
C480 C 0.18196 0.44723 0.12393 0.0
O481 O 0.16185 0.44181 0.1174 0.0
N482 N 0.13739 0.55657 0.13099 0.0
C483 C 0.09942 0.60782 0.1299 0.0
C484 C 0.12099 0.62182 0.12532 0.0
C485 C 0.13955 0.59551 0.12553 0.0
C486 C 0.11635 0.54193 0.13467 0.0
C487 C 0.09726 0.56698 0.13435 0.0
H488 H 0.1557 0.60654 0.12117 0.0
H489 H 0.11396 0.51036 0.13735 0.0
H490 H 0.2019 0.54829 0.10557 0.0
H491 H 0.14934 0.53301 0.0717 0.0
H492 H 0.13482 0.43821 0.17689 0.0
H493 H 0.12367 0.65288 0.1216 0.0
H494 H 0.08085 0.55399 0.13719 0.0
C495 C 0.85258 0.95005 0.09706 0.0
C496 C 0.8436 0.94241 0.08211 0.0
N497 N 0.82127 0.93439 0.0838 0.0
N498 N 0.83614 0.94643 0.10826 0.0
C499 C 0.81716 0.93721 0.09983 0.0
H500 H 0.86991 0.95883 0.0996 0.0
Co501 Co 0.84082 0.95841 0.12996 0.0
C502 C 0.82124 0.88544 0.1458 0.0
O503 O 0.83962 0.88165 0.15468 0.0
N504 N 0.8459 0.97382 0.15152 0.0
C505 C 0.85843 0.01705 0.1701 0.0
C506 C 0.85872 0.00708 0.15409 0.0
C507 C 0.8372 0.96501 0.16629 0.0
N508 N 0.84495 0.99051 0.17779 0.0
O509 O 0.81648 -0.00325 0.12937 0.0
H510 H 0.86722 0.024 0.14469 0.0
H511 H 0.82431 0.94247 0.16857 0.0
O512 O 0.81944 0.91535 0.13606 0.0
C513 C 0.82084 0.03082 0.12285 0.0
O514 O 0.84073 0.03606 0.11596 0.0
N515 N 0.86582 0.92178 0.13023 0.0
C516 C 0.90376 0.87101 0.12928 0.0
C517 C 0.88243 0.85681 0.12444 0.0
C518 C 0.86381 0.88298 0.12458 0.0
C519 C 0.88675 0.93645 0.13425 0.0
C520 C 0.9059 0.91152 0.13397 0.0
H521 H 0.84776 0.87205 0.12001 0.0
H522 H 0.88896 0.96786 0.1373 0.0
H523 H 0.80061 0.93358 0.10532 0.0
H524 H 0.85267 0.94452 0.0708 0.0
H525 H 0.86719 0.04228 0.17564 0.0
H526 H 0.88028 0.82603 0.1202 0.0
H527 H 0.92225 0.92384 0.13744 0.0
C528 C 0.31006 0.87801 0.12124 0.0
C529 C 0.30523 0.91327 0.13005 0.0
C530 C 0.29666 0.84338 0.123 0.0
C531 C 0.24102 0.80688 0.13822 0.0
H532 H 0.2718 0.70304 0.13925 0.0
C533 C 0.19473 0.66008 0.15633 0.0
C534 C 0.19821 0.62613 0.14641 0.0
C535 C 0.20832 0.69451 0.15473 0.0
C536 C 0.26294 0.73177 0.13885 0.0
H537 H 0.28224 0.94013 0.14741 0.0
H538 H 0.25899 0.87942 0.1507 0.0
H539 H 0.29378 0.76488 0.13539 0.0
H540 H 0.21933 0.60129 0.12742 0.0
H541 H 0.24319 0.66146 0.12471 0.0
H542 H 0.21021 0.77366 0.14185 0.0
C543 C 0.27298 0.87869 0.14223 0.0
C544 C 0.27552 0.76726 0.13659 0.0
C545 C 0.28633 0.91349 0.14039 0.0
C546 C 0.21621 0.62687 0.13527 0.0
C547 C 0.2299 0.66132 0.13373 0.0
C548 C 0.22847 0.77141 0.14057 0.0
C549 C 0.27817 0.84301 0.13372 0.0
C550 C 0.26472 0.80528 0.13619 0.0
C551 C 0.22583 0.6958 0.14324 0.0
C552 C 0.23929 0.73345 0.1409 0.0
H553 H 0.32439 0.87693 0.11307 0.0
H554 H 0.30087 0.81681 0.11597 0.0
H555 H 0.23209 0.83551 0.13773 0.0
H556 H 0.1811 0.66054 0.16509 0.0
H557 H 0.20501 0.72031 0.16243 0.0
C558 C 0.69282 0.60123 0.11724 0.0
C559 C 0.69758 0.56548 0.1258 0.0
C560 C 0.7063 0.63569 0.11925 0.0
C561 C 0.76195 0.67126 0.13489 0.0
H562 H 0.7312 0.77504 0.1368 0.0
C563 C 0.80829 0.81668 0.15458 0.0
C564 C 0.80486 0.85137 0.14504 0.0
C565 C 0.79465 0.78242 0.1526 0.0
C566 C 0.74006 0.74634 0.13616 0.0
H567 H 0.72055 0.5376 0.14294 0.0
H568 H 0.74394 0.59796 0.14664 0.0
H569 H 0.70923 0.7135 0.13225 0.0
H570 H 0.78378 0.87766 0.12632 0.0
H571 H 0.75986 0.81779 0.12293 0.0
H572 H 0.79274 0.70419 0.13897 0.0
C573 C 0.72995 0.59923 0.13818 0.0
C574 C 0.72749 0.71102 0.1335 0.0
C575 C 0.71653 0.5646 0.13609 0.0
C576 C 0.78686 0.85151 0.1339 0.0
C577 C 0.77313 0.81721 0.13197 0.0
C578 C 0.77449 0.70656 0.13763 0.0
C579 C 0.7248 0.63541 0.12996 0.0
C580 C 0.73827 0.673 0.13279 0.0
C581 C 0.77717 0.782 0.14109 0.0
C582 C 0.7637 0.74452 0.13829 0.0
H583 H 0.67845 0.60285 0.10912 0.0
H584 H 0.70211 0.66266 0.11244 0.0
H585 H 0.77088 0.64266 0.13418 0.0
H586 H 0.82191 0.81551 0.16334 0.0
H587 H 0.79794 0.75605 0.16002 0.0
C588 C 0.30531 0.10732 0.41927 0.0
C589 C 0.30099 0.07247 0.41006 0.0
C590 C 0.29216 0.14215 0.41728 0.0
C591 C 0.23798 0.17991 0.3999 0.0
H592 H 0.26925 0.28339 0.40034 0.0
C593 C 0.19512 0.32546 0.37749 0.0
C594 C 0.19686 0.35993 0.38736 0.0
C595 C 0.20846 0.29136 0.38042 0.0
C596 C 0.26026 0.25476 0.40033 0.0
H597 H 0.27915 0.04653 0.39176 0.0
H598 H 0.25639 0.10757 0.38804 0.0
H599 H 0.29049 0.22127 0.40546 0.0
H600 H 0.21498 0.38623 0.40755 0.0
H601 H 0.23848 0.32642 0.41263 0.0
H602 H 0.20783 0.21347 0.39449 0.0
C603 C 0.26973 0.10784 0.39702 0.0
C604 C 0.27239 0.21911 0.40331 0.0
C605 C 0.2828 0.07282 0.39911 0.0
C606 C 0.21311 0.36014 0.39978 0.0
C607 C 0.2266 0.32593 0.40267 0.0
C608 C 0.2259 0.21551 0.39682 0.0
C609 C 0.27446 0.14316 0.40592 0.0
C610 C 0.26142 0.18119 0.40309 0.0
C611 C 0.22402 0.29085 0.39323 0.0
C612 C 0.23692 0.2533 0.39691 0.0
H613 H 0.3191 0.10793 0.42791 0.0
H614 H 0.29599 0.1684 0.4246 0.0
H615 H 0.22887 0.15142 0.39992 0.0
H616 H 0.18297 0.32425 0.3677 0.0
H617 H 0.20642 0.26512 0.37273 0.0
C618 C 0.76712 0.13253 0.38232 0.0
C619 C 0.78426 0.12156 0.39327 0.0
C620 C 0.75588 0.16961 0.38382 0.0
C621 C 0.76195 0.27156 0.4017 0.0
H622 H 0.69699 0.27747 0.39448 0.0
C623 C 0.71196 0.42332 0.39783 0.0
C624 C 0.69059 0.42398 0.40538 0.0
C625 C 0.72413 0.387 0.39654 0.0
C626 C 0.71512 0.27632 0.39663 0.0
H627 H 0.80257 0.14052 0.41467 0.0
H628 H 0.78282 0.20501 0.41734 0.0
H629 H 0.7163 0.21256 0.39221 0.0
H630 H 0.66562 0.38729 0.41795 0.0
H631 H 0.68683 0.32452 0.41584 0.0
H632 H 0.76061 0.33534 0.4064 0.0
C633 C 0.77838 0.18527 0.40742 0.0
C634 C 0.72623 0.23916 0.39516 0.0
C635 C 0.78961 0.14818 0.40593 0.0
C636 C 0.68195 0.38788 0.41195 0.0
C637 C 0.69405 0.35175 0.41065 0.0
C638 C 0.75082 0.30881 0.40314 0.0
C639 C 0.76149 0.19656 0.39631 0.0
C640 C 0.74976 0.23627 0.39775 0.0
C641 C 0.71512 0.35069 0.40273 0.0
C642 C 0.72724 0.31154 0.40074 0.0
H643 H 0.76265 0.11285 0.37238 0.0
H644 H 0.74311 0.17753 0.37497 0.0
H645 H 0.78014 0.27045 0.40357 0.0
H646 H 0.71905 0.45062 0.39261 0.0
H647 H 0.74029 0.38712 0.3903 0.0
C648 C 0.68229 0.11308 0.88132 0.0
C649 C 0.69122 0.07593 0.88664 0.0
C650 C 0.69583 0.14782 0.88091 0.0
C651 C 0.74616 0.19346 0.89955 0.0
H652 H 0.74444 0.26628 0.86287 0.0
C653 C 0.78999 0.35125 0.89972 0.0
C654 C 0.80378 0.35883 0.88623 0.0
C655 C 0.7751 0.31806 0.89983 0.0
C656 C 0.74507 0.24627 0.87321 0.0
H657 H 0.72151 0.04595 0.89548 0.0
H658 H 0.74524 0.10693 0.89483 0.0
H659 H 0.72185 0.20422 0.8625 0.0
H660 H 0.81213 0.3387 0.86208 0.0
H661 H 0.78601 0.28155 0.8622 0.0
H662 H 0.76951 0.23551 0.91021 0.0
C663 C 0.72768 0.10905 0.89102 0.0
C664 C 0.73207 0.21083 0.87303 0.0
C665 C 0.71416 0.0741 0.89126 0.0
C666 C 0.80177 0.3336 0.87268 0.0
C667 C 0.78672 0.30093 0.87271 0.0
C668 C 0.75899 0.22917 0.89981 0.0
C669 C 0.71859 0.14636 0.88596 0.0
C670 C 0.73257 0.18388 0.88615 0.0
C671 C 0.77348 0.29235 0.88636 0.0
C672 C 0.75871 0.25581 0.88659 0.0
H673 H 0.66467 0.11553 0.87768 0.0
H674 H 0.68828 0.17612 0.87704 0.0
H675 H 0.74669 0.17351 0.90991 0.0
H676 H 0.79125 0.37003 0.91037 0.0
H677 H 0.76496 0.31234 0.91049 0.0
C678 C 0.29267 0.43163 0.89591 0.0
C679 C 0.31525 0.43097 0.89045 0.0
C680 C 0.2802 0.39558 0.89714 0.0
C681 C 0.28948 0.28498 0.90088 0.0
H682 H 0.2254 0.27684 0.89068 0.0
C683 C 0.24325 0.13201 0.89417 0.0
C684 C 0.22118 0.12861 0.90047 0.0
C685 C 0.2544 0.16937 0.894 0.0
C686 C 0.24324 0.27879 0.89376 0.0
H687 H 0.342 0.39253 0.88106 0.0
H688 H 0.3202 0.33022 0.88277 0.0
H689 H 0.24492 0.34169 0.88746 0.0
H690 H 0.1937 0.16175 0.91187 0.0
H691 H 0.21325 0.22696 0.91158 0.0
H692 H 0.28791 0.22204 0.90695 0.0
C693 C 0.31227 0.35817 0.88661 0.0
C694 C 0.25443 0.31594 0.89191 0.0
C695 C 0.32472 0.39399 0.8855 0.0
C696 C 0.21072 0.16326 0.90696 0.0
C697 C 0.22183 0.20071 0.90667 0.0
C698 C 0.27835 0.2479 0.90265 0.0
C699 C 0.29007 0.35828 0.89284 0.0
C700 C 0.27776 0.31935 0.89527 0.0
C701 C 0.2437 0.20425 0.90003 0.0
C702 C 0.25516 0.24426 0.89897 0.0
H703 H 0.28496 0.45968 0.89988 0.0
H704 H 0.26316 0.39675 0.90203 0.0
H705 H 0.30733 0.2867 0.90397 0.0
H706 H 0.25177 0.10596 0.88907 0.0
H707 H 0.27117 0.17115 0.88868 0.0
C708 C 0.68202 0.89236 0.6137 0.0
C709 C 0.68971 0.92691 0.62193 0.0
C710 C 0.69382 0.85588 0.6148 0.0
C711 C 0.74882 0.81002 0.62543 0.0
H712 H 0.71217 0.71385 0.63234 0.0
C713 C 0.78654 0.64872 0.62335 0.0
C714 C 0.77965 0.62178 0.63554 0.0
C715 C 0.77567 0.68598 0.62137 0.0
C716 C 0.72265 0.74042 0.63051 0.0
H717 H 0.71629 0.95065 0.63735 0.0
H718 H 0.737 0.88653 0.63931 0.0
H719 H 0.69377 0.77956 0.62961 0.0
H720 H 0.75552 0.61246 0.65494 0.0
H721 H 0.73649 0.67745 0.65145 0.0
H722 H 0.77774 0.77079 0.62656 0.0
C723 C 0.72183 0.88788 0.63194 0.0
C724 C 0.71211 0.77802 0.62878 0.0
C725 C 0.70996 0.92455 0.63085 0.0
C726 C 0.76122 0.63245 0.64541 0.0
C727 C 0.75029 0.66968 0.6434 0.0
C728 C 0.75938 0.77231 0.6271 0.0
C729 C 0.71361 0.85298 0.62417 0.0
C730 C 0.72505 0.81323 0.62617 0.0
C731 C 0.75757 0.69705 0.63147 0.0
C732 C 0.7464 0.7371 0.62965 0.0
H733 H 0.6666 0.89319 0.60659 0.0
H734 H 0.68731 0.82976 0.60839 0.0
H735 H 0.75924 0.83657 0.62336 0.0
H736 H 0.80046 0.64123 0.61538 0.0
H737 H 0.78139 0.70609 0.61188 0.0
C738 C 0.20327 0.83964 0.62858 0.0
C739 C 0.21086 0.86734 0.64025 0.0
C740 C 0.21223 0.80053 0.62789 0.0
C741 C 0.24263 0.72561 0.65322 0.0
H742 H 0.24986 0.66889 0.61265 0.0
C743 C 0.28944 0.57247 0.64682 0.0
C744 C 0.2797 0.54328 0.63661 0.0
C745 C 0.28025 0.61136 0.64782 0.0
C746 C 0.24768 0.68421 0.62408 0.0
H747 H 0.23481 0.87625 0.65979 0.0
H748 H 0.25097 0.80843 0.65827 0.0
H749 H 0.23709 0.7391 0.61265 0.0
H750 H 0.25226 0.53164 0.61981 0.0
H751 H 0.23625 0.59983 0.62151 0.0
H752 H 0.25369 0.67076 0.66459 0.0
C753 C 0.23754 0.81654 0.64995 0.0
C754 C 0.24036 0.72448 0.62409 0.0
C755 C 0.22844 0.85561 0.65072 0.0
C756 C 0.26013 0.55342 0.62781 0.0
C757 C 0.25107 0.59253 0.62867 0.0
C758 C 0.25014 0.68546 0.65319 0.0
C759 C 0.22923 0.78822 0.63874 0.0
C760 C 0.23769 0.7457 0.63867 0.0
C761 C 0.26124 0.62205 0.63852 0.0
C762 C 0.25269 0.66431 0.63862 0.0
H763 H 0.18997 0.84773 0.62018 0.0
H764 H 0.20526 0.77958 0.61916 0.0
H765 H 0.24034 0.74065 0.66469 0.0
H766 H 0.3045 0.56553 0.6538 0.0
H767 H 0.28852 0.63351 0.65545 0.0
C768 C 0.78272 0.42736 0.64547 0.0
C769 C 0.80475 0.4246 0.63911 0.0
C770 C 0.7693 0.39254 0.64717 0.0
C771 C 0.77356 0.27952 0.64776 0.0
H772 H 0.70853 0.28515 0.64086 0.0
C773 C 0.71496 0.13902 0.63956 0.0
C774 C 0.69459 0.1395 0.6484 0.0
C775 C 0.72908 0.17318 0.63926 0.0
C776 C 0.72667 0.28322 0.64293 0.0
H777 H 0.82979 0.38353 0.62911 0.0
H778 H 0.80628 0.32352 0.63146 0.0
H779 H 0.73138 0.34643 0.63847 0.0
H780 H 0.67339 0.17596 0.66415 0.0
H781 H 0.69784 0.23534 0.66341 0.0
H782 H 0.76874 0.21589 0.65171 0.0
C783 C 0.79949 0.35203 0.63571 0.0
C784 C 0.73978 0.31838 0.64164 0.0
C785 C 0.81296 0.3866 0.63424 0.0
C786 C 0.68894 0.17445 0.65721 0.0
C787 C 0.70286 0.20865 0.65672 0.0
C788 C 0.76047 0.24427 0.6488 0.0
C789 C 0.77755 0.35436 0.64232 0.0
C790 C 0.76343 0.31705 0.64403 0.0
C791 C 0.72291 0.20856 0.64759 0.0
C792 C 0.7369 0.2458 0.64643 0.0
H793 H 0.776 0.45625 0.64939 0.0
H794 H 0.75261 0.39553 0.6525 0.0
H795 H 0.79162 0.27731 0.65002 0.0
H796 H 0.71977 0.11261 0.63263 0.0
H797 H 0.74445 0.1724 0.63209 0.0
C798 C 0.28306 0.34689 0.63546 0.0
C799 C 0.29485 0.35708 0.64962 0.0
C800 C 0.26931 0.31224 0.63497 0.0
C801 C 0.23863 0.23941 0.66086 0.0
H802 H 0.24524 0.16592 0.62473 0.0
C803 C 0.17868 0.10398 0.65044 0.0
C804 C 0.1883 0.06702 0.64556 0.0
C805 C 0.19188 0.139 0.65134 0.0
C806 C 0.24335 0.18602 0.63495 0.0
H807 H 0.3007 0.33994 0.67452 0.0
H808 H 0.27664 0.28008 0.67368 0.0
H809 H 0.2668 0.22929 0.62519 0.0
H810 H 0.21944 0.03769 0.63799 0.0
H811 H 0.24265 0.0993 0.63952 0.0
H812 H 0.21532 0.19616 0.67067 0.0
C813 C 0.27803 0.29862 0.66295 0.0
C814 C 0.25546 0.22252 0.63511 0.0
C815 C 0.2919 0.33288 0.6634 0.0
C816 C 0.21158 0.06571 0.64184 0.0
C817 C 0.22479 0.101 0.64258 0.0
C818 C 0.22642 0.20313 0.66063 0.0
C819 C 0.26686 0.2875 0.64867 0.0
C820 C 0.25328 0.24956 0.6481 0.0
C821 C 0.21503 0.13807 0.64727 0.0
C822 C 0.22864 0.17599 0.64769 0.0
H823 H 0.28503 0.36482 0.62463 0.0
H824 H 0.26071 0.30466 0.62383 0.0
H825 H 0.2365 0.25968 0.67099 0.0
H826 H 0.16081 0.10605 0.65341 0.0
H827 H 0.1838 0.1671 0.65484 0.0
C828 C 0.82167 0.61384 0.89974 0.0
C829 C 0.81364 0.57597 0.89451 0.0
C830 C 0.808 0.64827 0.89874 0.0
C831 C 0.74786 0.68066 0.89366 0.0
H832 H 0.77545 0.78489 0.88441 0.0
C833 C 0.69539 0.82056 0.87632 0.0
C834 C 0.69978 0.85681 0.88467 0.0
C835 C 0.70985 0.78738 0.8778 0.0
C836 C 0.76757 0.75605 0.88716 0.0
H837 H 0.78498 0.54461 0.88394 0.0
H838 H 0.76124 0.60507 0.88164 0.0
H839 H 0.79917 0.7244 0.88576 0.0
H840 H 0.72335 0.88684 0.9008 0.0
H841 H 0.74913 0.82856 0.9031 0.0
H842 H 0.71616 0.7124 0.89452 0.0
C843 C 0.77796 0.60802 0.88693 0.0
C844 C 0.78114 0.72129 0.88798 0.0
C845 C 0.7916 0.57334 0.88814 0.0
C846 C 0.71949 0.85941 0.8942 0.0
C847 C 0.73422 0.82611 0.89551 0.0
C848 C 0.73429 0.71531 0.89263 0.0
C849 C 0.78597 0.64599 0.89226 0.0
C850 C 0.77147 0.68305 0.89123 0.0
C851 C 0.72928 0.78957 0.88752 0.0
C852 C 0.74399 0.75333 0.88933 0.0
H853 H 0.8385 0.61691 0.90487 0.0
H854 H 0.81465 0.67658 0.90331 0.0
H855 H 0.7398 0.65208 0.89653 0.0
H856 H 0.68045 0.81734 0.86881 0.0
H857 H 0.7058 0.75985 0.87131 0.0
C858 C 0.21638 0.93458 0.89268 0.0
C859 C 0.19418 0.93211 0.89876 0.0
C860 C 0.22984 0.89975 0.89149 0.0
C861 C 0.22586 0.78677 0.89162 0.0
H862 H 0.29088 0.79403 0.89836 0.0
C863 C 0.28687 0.64756 0.89624 0.0
C864 C 0.30645 0.65052 0.8866 0.0
C865 C 0.27233 0.68092 0.89798 0.0
C866 C 0.27273 0.79161 0.89642 0.0
H867 H 0.16886 0.89146 0.90874 0.0
H868 H 0.19245 0.83134 0.90724 0.0
H869 H 0.26754 0.85454 0.90111 0.0
H870 H 0.3258 0.69069 0.871 0.0
H871 H 0.30074 0.74842 0.87425 0.0
H872 H 0.23124 0.72343 0.88727 0.0
C873 C 0.19935 0.85969 0.90287 0.0
C874 C 0.25934 0.82634 0.89787 0.0
C875 C 0.18583 0.89432 0.90383 0.0
C876 C 0.31093 0.68721 0.87856 0.0
C877 C 0.29665 0.72049 0.88048 0.0
C878 C 0.23925 0.7519 0.8904 0.0
C879 C 0.2215 0.86179 0.89658 0.0
C880 C 0.23574 0.82453 0.89535 0.0
C881 C 0.27734 0.71788 0.89031 0.0
C882 C 0.26283 0.7541 0.8926 0.0
H883 H 0.22322 0.96327 0.8886 0.0
H884 H 0.24667 0.90256 0.88635 0.0
H885 H 0.20782 0.78417 0.88932 0.0
H886 H 0.28295 0.61975 0.90258 0.0
H887 H 0.25751 0.67819 0.90564 0.0
C888 C 0.17899 0.61396 0.38402 0.0
C889 C 0.18747 0.57709 0.38998 0.0
C890 C 0.19296 0.64807 0.38299 0.0
C891 C 0.24317 0.69424 0.40119 0.0
H892 H 0.24325 0.76261 0.36315 0.0
C893 C 0.28515 0.85305 0.39998 0.0
C894 C 0.29978 0.86018 0.38689 0.0
C895 C 0.27086 0.81912 0.40008 0.0
C896 C 0.24341 0.7438 0.37384 0.0
H897 H 0.21737 0.54694 0.39937 0.0
H898 H 0.24181 0.60694 0.39777 0.0
H899 H 0.22043 0.7007 0.36349 0.0
H900 H 0.31029 0.83824 0.36343 0.0
H901 H 0.28508 0.77959 0.36351 0.0
H902 H 0.26607 0.73747 0.41157 0.0
C903 C 0.2243 0.60927 0.39387 0.0
C904 C 0.23028 0.70848 0.37407 0.0
C905 C 0.21037 0.57489 0.39468 0.0
C906 C 0.29924 0.83354 0.3737 0.0
C907 C 0.28474 0.80002 0.37371 0.0
C908 C 0.25606 0.72986 0.40105 0.0
C909 C 0.21568 0.64627 0.38809 0.0
C910 C 0.23007 0.68326 0.38772 0.0
C911 C 0.27067 0.79205 0.38701 0.0
C912 C 0.25637 0.75496 0.38736 0.0
H913 H 0.16143 0.61663 0.38026 0.0
H914 H 0.1858 0.67619 0.37859 0.0
H915 H 0.24316 0.67559 0.41194 0.0
H916 H 0.28527 0.87291 0.41036 0.0
H917 H 0.26003 0.81391 0.41043 0.0
C918 C 0.81783 0.88772 0.38296 0.0
C919 C 0.80853 0.9244 0.38844 0.0
C920 C 0.80441 0.85301 0.38175 0.0
C921 C 0.7536 0.80523 0.3985 0.0
H922 H 0.75724 0.73591 0.36087 0.0
C923 C 0.71303 0.64541 0.39647 0.0
C924 C 0.69944 0.63778 0.38288 0.0
C925 C 0.72719 0.67948 0.39695 0.0
C926 C 0.75605 0.75498 0.37145 0.0
H927 H 0.77774 0.95356 0.3968 0.0
H928 H 0.7542 0.89246 0.39483 0.0
H929 H 0.77919 0.79874 0.36173 0.0
H930 H 0.69074 0.65883 0.35891 0.0
H931 H 0.71574 0.71772 0.35963 0.0
H932 H 0.73048 0.76138 0.40822 0.0
C933 C 0.77195 0.89077 0.39148 0.0
C934 C 0.76867 0.79083 0.37197 0.0
C935 C 0.78536 0.92576 0.39249 0.0
C936 C 0.70099 0.66393 0.36956 0.0
C937 C 0.71536 0.69759 0.36994 0.0
C938 C 0.74118 0.7691 0.39806 0.0
C939 C 0.78139 0.85398 0.38616 0.0
C940 C 0.76754 0.81641 0.38548 0.0
C941 C 0.72829 0.70618 0.38375 0.0
C942 C 0.74221 0.74366 0.3845 0.0
H943 H 0.83562 0.88567 0.37972 0.0
H944 H 0.81221 0.82507 0.37774 0.0
H945 H 0.75257 0.82414 0.40913 0.0
H946 H 0.71209 0.62594 0.40697 0.0
H947 H 0.73714 0.68517 0.40769 0.0
C948 C 0.28523 0.12661 0.1394 0.0
C949 C 0.30279 0.12727 0.15088 0.0
C950 C 0.27163 0.16082 0.13691 0.0
C951 C 0.27318 0.27162 0.14147 0.0
H952 H 0.20819 0.26494 0.13454 0.0
C953 C 0.21597 0.41392 0.13651 0.0
C954 C 0.19756 0.41238 0.12575 0.0
C955 C 0.22912 0.37936 0.13942 0.0
C956 C 0.22638 0.26732 0.13622 0.0
H957 H 0.31914 0.16389 0.16924 0.0
H958 H 0.29537 0.22324 0.16496 0.0
H959 H 0.22965 0.20355 0.14044 0.0
H960 H 0.17914 0.37389 0.10909 0.0
H961 H 0.20236 0.31415 0.11384 0.0
H962 H 0.27003 0.33524 0.13707 0.0
C963 C 0.29234 0.19652 0.15771 0.0
C964 C 0.23865 0.2321 0.13966 0.0
C965 C 0.30585 0.16233 0.16024 0.0
C966 C 0.1931 0.37602 0.11755 0.0
C967 C 0.20631 0.34162 0.12038 0.0
C968 C 0.26093 0.30681 0.13795 0.0
C969 C 0.27536 0.19644 0.14582 0.0
C970 C 0.26218 0.23385 0.14234 0.0
C971 C 0.22423 0.34259 0.13157 0.0
C972 C 0.23737 0.30514 0.13527 0.0
H973 H 0.28244 0.10016 0.13195 0.0
H974 H 0.25875 0.15985 0.12761 0.0
H975 H 0.29136 0.27389 0.14321 0.0
H976 H 0.21976 0.44141 0.14309 0.0
H977 H 0.24267 0.38117 0.14822 0.0
C978 C 0.69636 0.31707 0.15669 0.0
C979 C 0.69919 0.35161 0.14696 0.0
C980 C 0.70981 0.28272 0.15433 0.0
C981 C 0.76324 0.24641 0.13611 0.0
H982 H 0.73243 0.14255 0.13557 0.0
C983 C 0.80917 0.10135 0.1157 0.0
C984 C 0.8051 0.0656 0.12443 0.0
C985 C 0.79583 0.13575 0.11819 0.0
C986 C 0.74138 0.1712 0.13587 0.0
H987 H 0.71899 0.37751 0.12745 0.0
H988 H 0.74257 0.31753 0.1234 0.0
H989 H 0.71088 0.20407 0.14099 0.0
H990 H 0.78347 0.03767 0.14242 0.0
H991 H 0.76032 0.09794 0.14697 0.0
H992 H 0.79377 0.21365 0.13115 0.0
C993 C 0.72993 0.31712 0.13289 0.0
C994 C 0.72901 0.20651 0.13897 0.0
C995 C 0.71639 0.3515 0.1352 0.0
C996 C 0.78695 0.06467 0.13542 0.0
C997 C 0.77366 0.09925 0.138 0.0
C998 C 0.77564 0.2111 0.13309 0.0
C999 C 0.7265 0.28207 0.14223 0.0
C1000 C 0.73978 0.24454 0.13911 0.0
C1001 C 0.77815 0.13544 0.12958 0.0
C1002 C 0.76487 0.173 0.13287 0.0
H1003 H 0.68335 0.31609 0.1659 0.0
H1004 H 0.707 0.25649 0.16192 0.0
H1005 H 0.7721 0.27516 0.13633 0.0
H1006 H 0.82291 0.10301 0.10704 0.0
H1007 H 0.79948 0.1627 0.11121 0.0
C1008 C 0.3073 0.06615 0.06329 0.0
C1009 C 0.30198 0.04575 0.07768 0.0
C1010 C 0.29211 0.06629 0.05034 0.0
C1011 C 0.2454 0.00716 0.03274 0.0
H1012 H 0.23646 0.10284 1.00638 0.0
C1013 C 0.18293 0.0091 0.97872 0.0
C1014 C 0.18946 0.03064 0.96482 0.0
C1015 C 0.19562 0.01176 0.99295 0.0
C1016 C 0.23896 0.07568 1.01348 0.0
H1017 H 0.27627 0.01011 0.08984 0.0
H1018 H 0.24959 0.01041 0.06719 0.0
H1019 H 0.25984 0.10696 0.03057 0.0
H1020 H 0.21469 0.07213 0.95523 0.0
H1021 H 0.2371 0.07574 0.97977 0.0
H1022 H 0.22493 0.97563 1.01551 0.0
C1023 C 0.26564 0.02616 0.06594 0.0
C1024 C 0.25231 0.07811 0.0274 0.0
C1025 C 0.2808 0.02634 0.07897 0.0
C1026 C 0.20917 0.05472 0.96556 0.0
C1027 C 0.2219 0.05727 0.97977 0.0
C1028 C 0.23213 0.00467 0.01876 0.0
C1029 C 0.27122 0.0458 0.0514 0.0
C1030 C 0.25585 0.04382 0.03714 0.0
C1031 C 0.21528 0.03594 0.99369 0.0
C1032 C 0.22887 0.03882 1.00886 0.0
H1033 H 0.32338 0.0817 0.06197 0.0
H1034 H 0.29706 0.08146 0.03931 0.0
H1035 H 0.24803 0.98003 0.03984 0.0
H1036 H 0.16804 0.9899 0.97865 0.0
H1037 H 0.18983 0.9952 1.00344 0.0
C1038 C 0.78427 0.43669 0.95833 0.0
C1039 C 0.80679 0.44996 0.96036 0.0
C1040 C 0.77047 0.42877 0.97177 0.0
C1041 C 0.77257 0.41244 1.01645 0.0
H1042 H 0.71039 0.4506 1.01488 0.0
C1043 C 0.71709 0.4386 0.07347 0.0
C1044 C 0.69396 0.42813 0.07252 0.0
C1045 C 0.73106 0.43629 0.05981 0.0
C1046 C 0.72764 0.4393 1.01547 0.0
H1047 H 0.83272 0.46296 0.97821 0.0
H1048 H 0.80873 0.45054 1.00137 0.0
H1049 H 0.734 0.45475 0.99084 0.0
H1050 H 0.66788 0.40454 0.05661 0.0
H1051 H 0.69209 0.40096 0.0329 0.0
H1052 H 0.76628 0.39809 0.04127 0.0
C1053 C 0.80162 0.44585 0.98949 0.0
C1054 C 0.74118 0.44154 1.00164 0.0
C1055 C 0.81536 0.45362 0.97612 0.0
C1056 C 0.68544 0.41382 0.05774 0.0
C1057 C 0.69933 0.41171 0.04411 0.0
C1058 C 0.75906 0.41048 0.03032 0.0
C1059 C 0.77888 0.43384 0.98755 0.0
C1060 C 0.76393 0.42852 1.00196 0.0
C1061 C 0.72222 0.42357 0.04489 0.0
C1062 C 0.73647 0.42416 0.03004 0.0
H1063 H 0.77709 0.43356 0.9464 0.0
H1064 H 0.75314 0.41898 0.96978 0.0
H1065 H 0.78986 0.40139 0.01713 0.0
H1066 H 0.72423 0.45001 0.08459 0.0
H1067 H 0.7486 0.44589 0.06081 0.0
C1068 C 0.27616 0.95517 0.46051 0.0
C1069 C 0.29848 0.94089 0.46261 0.0
C1070 C 0.26086 0.95565 0.47347 0.0
C1071 C 0.25181 0.91457 0.515 0.0
H1072 H 0.21396 0.00967 0.52023 0.0
C1073 C 0.20814 0.95464 0.57535 0.0
C1074 C 0.18561 0.96891 0.57481 0.0
C1075 C 0.22067 0.94922 0.56118 0.0
C1076 C 0.22422 0.98268 0.51886 0.0
H1077 H 0.3217 0.91401 0.47985 0.0
H1078 H 0.29546 0.9158 0.50236 0.0
H1079 H 0.23753 0.00283 0.49622 0.0
H1080 H 0.1587 0.988 0.55858 0.0
H1081 H 0.18068 0.97916 0.53401 0.0
H1082 H 0.23887 0.89497 0.53785 0.0
C1083 C 0.28958 0.92637 0.49074 0.0
C1084 C 0.23771 0.97866 0.50505 0.0
C1085 C 0.3048 0.92581 0.47782 0.0
C1086 C 0.17605 0.97761 0.55963 0.0
C1087 C 0.18866 0.97246 0.54547 0.0
C1088 C 0.23845 0.91873 0.52885 0.0
C1089 C 0.26748 0.94179 0.48883 0.0
C1090 C 0.25188 0.94473 0.50299 0.0
C1091 C 0.21112 0.95816 0.54607 0.0
C1092 C 0.22465 0.95301 0.53102 0.0
H1093 H 0.2707 0.9672 0.44902 0.0
H1094 H 0.24388 0.9672 0.47147 0.0
H1095 H 0.26213 0.88762 0.51373 0.0
H1096 H 0.21634 0.94817 0.58672 0.0
H1097 H 0.23805 0.93872 0.5621 0.0
C1098 C 0.78618 0.53395 0.57252 0.0
C1099 C 0.80951 0.52471 0.57184 0.0
C1100 C 0.7733 0.53764 0.55842 0.0
C1101 C 0.77829 0.55192 0.5139 0.0
H1102 H 0.71571 0.51541 0.51459 0.0
C1103 C 0.71981 0.5399 0.45695 0.0
C1104 C 0.69742 0.55404 0.45893 0.0
C1105 C 0.73461 0.53743 0.4702 0.0
C1106 C 0.73312 0.52601 0.51423 0.0
H1107 H 0.83738 0.51259 0.55537 0.0
H1108 H 0.81481 0.51753 0.53098 0.0
H1109 H 0.73907 0.50779 0.53857 0.0
H1110 H 0.67374 0.5792 0.47628 0.0
H1111 H 0.69923 0.57412 0.4992 0.0
H1112 H 0.7722 0.56937 0.48933 0.0
C1113 C 0.80654 0.52266 0.54245 0.0
C1114 C 0.74654 0.52182 0.52802 0.0
C1115 C 0.81949 0.51927 0.55656 0.0
C1116 C 0.69058 0.56712 0.47432 0.0
C1117 C 0.70523 0.56429 0.4875 0.0
C1118 C 0.76488 0.55572 0.50001 0.0
C1119 C 0.78323 0.53184 0.54317 0.0
C1120 C 0.76925 0.53515 0.52816 0.0
C1121 C 0.72727 0.54874 0.48568 0.0
C1122 C 0.74205 0.54327 0.50009 0.0
H1123 H 0.77763 0.53809 0.58392 0.0
H1124 H 0.75551 0.54543 0.55953 0.0
H1125 H 0.79559 0.56298 0.51355 0.0
H1126 H 0.72568 0.52938 0.44534 0.0
H1127 H 0.75151 0.52527 0.46842 0.0
C1128 C 0.68575 0.96033 0.97274 0.0
C1129 C 0.69545 0.95389 0.95748 0.0
C1130 C 0.69803 0.95241 0.98678 0.0
C1131 C 0.74854 0.89999 1.00334 0.0
H1132 H 0.74505 0.98396 0.03589 0.0
C1133 C 0.81274 0.91327 0.05586 0.0
C1134 C 0.80528 0.92834 0.0708 0.0
C1135 C 0.79808 0.91156 0.04264 0.0
C1136 C 0.74594 0.95979 0.0271 0.0
H1137 H 0.72536 0.93219 0.94502 0.0
H1138 H 0.74703 0.91832 0.96965 0.0
H1139 H 0.72227 0.98957 1.01158 0.0
H1140 H 0.77607 0.95167 0.08367 0.0
H1141 H 0.75026 0.94782 0.0607 0.0
H1142 H 0.77241 0.8704 0.01887 0.0
C1143 C 0.72979 0.92945 0.97071 0.0
C1144 C 0.7329 0.96308 1.01309 0.0
C1145 C 0.71741 0.93737 0.95659 0.0
C1146 C 0.78241 0.93985 0.07238 0.0
C1147 C 0.76768 0.93808 0.05913 0.0
C1148 C 0.76157 0.89662 0.01741 0.0
C1149 C 0.7204 0.9378 0.98597 0.0
C1150 C 0.73407 0.93334 1.00099 0.0
C1151 C 0.77546 0.9247 0.04399 0.0
C1152 C 0.76055 0.92664 0.02944 0.0
H1153 H 0.66865 0.97203 0.97387 0.0
H1154 H 0.69004 0.9582 0.9983 0.0
H1155 H 0.74965 0.87633 0.99435 0.0
H1156 H 0.83013 0.90345 0.05426 0.0
H1157 H 0.80477 0.90132 0.03119 0.0
C1158 C 0.21929 0.54512 0.07206 0.0
C1159 C 0.19601 0.55436 0.07109 0.0
C1160 C 0.23339 0.54967 0.05853 0.0
C1161 C 0.23018 0.55168 1.01409 0.0
H1162 H 0.29209 0.59104 1.01653 0.0
C1163 C 0.28648 0.56405 0.95703 0.0
C1164 C 0.30905 0.55078 0.95869 0.0
C1165 C 0.27275 0.56984 0.97066 0.0
C1166 C 0.27489 0.57965 1.01564 0.0
H1167 H 0.16975 0.57831 0.05543 0.0
H1168 H 0.19417 0.58602 0.032 0.0
H1169 H 0.26847 0.59048 0.04071 0.0
H1170 H 0.33517 0.53563 0.97613 0.0
H1171 H 0.3113 0.54453 0.99964 0.0
H1172 H 0.23665 0.53984 0.98917 0.0
C1173 C 0.20147 0.57436 0.04305 0.0
C1174 C 0.26135 0.57936 0.02953 0.0
C1175 C 0.18745 0.56993 0.05652 0.0
C1176 C 0.31776 0.54509 0.97432 0.0
C1177 C 0.3041 0.55078 0.98789 0.0
C1178 C 0.24373 0.55175 1.00023 0.0
C1179 C 0.22451 0.56354 0.04376 0.0
C1180 C 0.23886 0.56514 0.02895 0.0
C1181 C 0.28128 0.56263 0.98628 0.0
C1182 C 0.26635 0.56541 1.00082 0.0
H1183 H 0.22643 0.53286 0.08304 0.0
H1184 H 0.25106 0.54084 0.05948 0.0
H1185 H 0.21304 0.53995 1.01323 0.0
H1186 H 0.27919 0.56869 0.9452 0.0
H1187 H 0.25536 0.57958 0.96895 0.0
C1188 C 0.71948 0.04382 0.57319 0.0
C1189 C 0.69791 0.06163 0.57142 0.0
C1190 C 0.73444 0.04156 0.56005 0.0
C1191 C 0.73306 0.03865 0.51578 0.0
H1192 H 0.7977 0.06006 0.51806 0.0
C1193 C 0.78824 0.04125 0.45847 0.0
C1194 C 0.81038 0.02524 0.45925 0.0
C1195 C 0.77538 0.04688 0.47246 0.0
C1196 C 0.77973 0.05344 0.51725 0.0
H1197 H 0.67594 0.09363 0.55476 0.0
H1198 H 0.70178 0.08938 0.53196 0.0
H1199 H 0.7742 0.06815 0.54215 0.0
H1200 H 0.83625 0.00333 0.47576 0.0
H1201 H 0.81357 0.01177 0.49996 0.0
H1202 H 0.7384 0.02314 0.49109 0.0
C1203 C 0.70698 0.07639 0.54337 0.0
C1204 C 0.76627 0.0582 0.53106 0.0
C1205 C 0.69215 0.07882 0.55646 0.0
C1206 C 0.81924 0.01525 0.47451 0.0
C1207 C 0.80629 0.02062 0.48851 0.0
C1208 C 0.74649 0.03357 0.50205 0.0
C1209 C 0.72808 0.05693 0.54488 0.0
C1210 C 0.74273 0.0512 0.53043 0.0
C1211 C 0.78412 0.03635 0.48768 0.0
C1212 C 0.76999 0.0412 0.50252 0.0
H1213 H 0.72444 0.03007 0.58449 0.0
H1214 H 0.75058 0.0263 0.56158 0.0
H1215 H 0.71505 0.03221 0.51496 0.0
H1216 H 0.78058 0.0491 0.44705 0.0
H1217 H 0.75854 0.05972 0.4713 0.0
C1218 C 0.2775 0.43539 0.57403 0.0
C1219 C 0.30122 0.43905 0.57304 0.0
C1220 C 0.26444 0.43056 0.55999 0.0
C1221 C 0.26845 0.45054 0.51593 0.0
H1222 H 0.21118 0.39282 0.51426 0.0
C1223 C 0.21531 0.44262 0.45733 0.0
C1224 C 0.1921 0.45145 0.45915 0.0
C1225 C 0.22897 0.43517 0.47087 0.0
C1226 C 0.22713 0.40916 0.51455 0.0
H1227 H 0.33 0.43744 0.55687 0.0
H1228 H 0.30754 0.4275 0.53254 0.0
H1229 H 0.23428 0.38985 0.53869 0.0
H1230 H 0.16483 0.45699 0.47655 0.0
H1231 H 0.18854 0.44423 0.50005 0.0
H1232 H 0.26124 0.47008 0.49187 0.0
C1233 C 0.29877 0.42991 0.54397 0.0
C1234 C 0.24036 0.40757 0.52859 0.0
C1235 C 0.3117 0.43525 0.55792 0.0
C1236 C 0.18271 0.4509 0.47474 0.0
C1237 C 0.19627 0.44313 0.48822 0.0
C1238 C 0.25532 0.45189 0.50189 0.0
C1239 C 0.2749 0.42885 0.54471 0.0
C1240 C 0.26114 0.42854 0.52954 0.0
C1241 C 0.21967 0.43591 0.48651 0.0
C1242 C 0.23438 0.43159 0.50106 0.0
H1243 H 0.26901 0.4386 0.58553 0.0
H1244 H 0.24612 0.43012 0.56109 0.0
H1245 H 0.28405 0.46787 0.51624 0.0
H1246 H 0.22307 0.44291 0.44551 0.0
H1247 H 0.2469 0.42928 0.46911 0.0
C1248 C 0.3352 0.95281 0.20973 0.0
C1249 C 0.33626 0.98937 0.2011 0.0
C1250 C 0.33163 0.95274 0.22638 0.0
C1251 C 0.31483 0.01808 0.26124 0.0
H1252 H 0.34985 0.93927 0.28541 0.0
C1253 C 0.33425 0.03146 0.32952 0.0
C1254 C 0.33374 0.99595 0.33889 0.0
C1255 C 0.33121 0.02978 0.31282 0.0
C1256 C 0.33969 0.9611 0.27885 0.0
H1257 H 0.33376 0.0545 0.20305 0.0
H1258 H 0.32816 0.05474 0.23226 0.0
H1259 H 0.35098 0.93845 0.25615 0.0
H1260 H 0.32899 0.93097 0.33811 0.0
H1261 H 0.32379 0.92791 0.30885 0.0
H1262 H 0.30431 0.04156 0.28416 0.0
C1263 C 0.3296 0.02591 0.22615 0.0
C1264 C 0.34027 0.96062 0.26201 0.0
C1265 C 0.33286 0.02589 0.2094 0.0
C1266 C 0.32936 0.95883 0.33123 0.0
C1267 C 0.32658 0.95707 0.31447 0.0
C1268 C 0.31444 0.01879 0.27813 0.0
C1269 C 0.32938 0.98931 0.23492 0.0
C1270 C 0.32793 0.98918 0.25293 0.0
C1271 C 0.32781 0.99248 0.30505 0.0
C1272 C 0.32696 0.99041 0.28713 0.0
H1273 H 0.33735 0.92416 0.20359 0.0
H1274 H 0.33091 0.92388 0.23256 0.0
H1275 H 0.30481 0.04016 0.25473 0.0
H1276 H 0.33733 0.06057 0.3351 0.0
H1277 H 0.33238 0.05757 0.30593 0.0
C1278 C 0.67041 0.45758 0.20633 0.0
C1279 C 0.669 0.49339 0.19726 0.0
C1280 C 0.67357 0.45918 0.22308 0.0
C1281 C 0.66578 0.53082 0.25733 0.0
H1282 H 0.69569 0.4463 0.28183 0.0
C1283 C 0.67236 0.53765 0.32683 0.0
C1284 C 0.66525 0.50225 0.33477 0.0
C1285 C 0.67651 0.53735 0.31018 0.0
C1286 C 0.68728 0.47014 0.27514 0.0
H1287 H 0.67149 0.55868 0.19833 0.0
H1288 H 0.67791 0.56165 0.22729 0.0
H1289 H 0.69656 0.44428 0.25241 0.0
H1290 H 0.65831 0.43828 0.33168 0.0
H1291 H 0.66563 0.43767 0.30276 0.0
H1292 H 0.65649 0.55658 0.28006 0.0
C1293 C 0.67564 0.53228 0.22173 0.0
C1294 C 0.68767 0.4689 0.25825 0.0
C1295 C 0.67213 0.53065 0.20509 0.0
C1296 C 0.66348 0.46616 0.32587 0.0
C1297 C 0.66789 0.46573 0.30932 0.0
C1298 C 0.66561 0.53225 0.27417 0.0
C1299 C 0.67571 0.49668 0.23108 0.0
C1300 C 0.67668 0.49899 0.24909 0.0
C1301 C 0.67397 0.50148 0.30119 0.0
C1302 C 0.67608 0.50168 0.28329 0.0
H1303 H 0.66788 0.4285 0.20058 0.0
H1304 H 0.67332 0.43108 0.2298 0.0
H1305 H 0.65668 0.55412 0.25081 0.0
H1306 H 0.67378 0.56591 0.33336 0.0
H1307 H 0.68136 0.56533 0.3043 0.0
C1308 C 0.6555 0.93192 0.82037 0.0
C1309 C 0.66101 0.96357 0.8309 0.0
C1310 C 0.65889 0.936 0.80382 0.0
C1311 C 0.68519 -0.00083 0.77152 0.0
H1312 H 0.6351 0.95513 0.74674 0.0
C1313 C 0.66806 0.02888 0.70261 0.0
C1314 C 0.6607 0.99501 0.69375 0.0
C1315 C 0.67119 0.02615 0.71937 0.0
C1316 C 0.64935 0.96728 0.75344 0.0
H1317 H 0.67534 0.02365 0.83263 0.0
H1318 H 0.68088 0.03156 0.8034 0.0
H1319 H 0.63513 0.94822 0.77581 0.0
H1320 H 0.6528 0.931 0.69535 0.0
H1321 H 0.65808 0.92634 0.72433 0.0
H1322 H 0.699 0.01898 0.74882 0.0
C1323 C 0.67427 0.00319 0.80797 0.0
C1324 C 0.64944 0.96317 0.77016 0.0
C1325 C 0.67115 -0.00125 0.82468 0.0
C1326 C 0.65785 0.95794 0.70184 0.0
C1327 C 0.66092 0.95524 0.71847 0.0
C1328 C 0.685 0.00356 0.75466 0.0
C1329 C 0.66744 0.9723 0.7973 0.0
C1330 C 0.66752 0.97838 0.77945 0.0
C1331 C 0.66698 0.98951 0.72752 0.0
C1332 C 0.66722 0.98703 0.74544 0.0
H1333 H 0.64783 0.90442 0.82497 0.0
H1334 H 0.65412 0.91104 0.79608 0.0
H1335 H 0.69937 0.01129 0.77827 0.0
H1336 H 0.67037 0.05786 0.69673 0.0
H1337 H 0.67587 0.05308 0.72602 0.0
C1338 C 0.31645 0.47072 0.70589 0.0
C1339 C 0.33484 0.49 0.69829 0.0
C1340 C 0.31142 0.47893 0.72212 0.0
C1341 C 0.32179 0.55341 0.7548 0.0
H1342 H 0.32002 0.46128 0.78377 0.0
C1343 C 0.35136 0.56435 0.82018 0.0
C1344 C 0.34087 0.54132 0.83231 0.0
C1345 C 0.34482 0.56037 0.8041 0.0
C1346 C 0.31997 0.4874 0.77587 0.0
H1347 H 0.36159 0.53422 0.7013 0.0
H1348 H 0.35268 0.54921 0.72933 0.0
H1349 H 0.31854 0.4504 0.75463 0.0
H1350 H 0.31474 0.49684 0.83716 0.0
H1351 H 0.30316 0.48964 0.80881 0.0
H1352 H 0.32393 0.59039 0.77589 0.0
C1353 C 0.34216 0.52763 0.72294 0.0
C1354 C 0.31913 0.48114 0.75916 0.0
C1355 C 0.34738 0.51892 0.70692 0.0
C1356 C 0.32304 0.51509 0.82805 0.0
C1357 C 0.31658 0.51076 0.81183 0.0
C1358 C 0.32252 0.55967 0.77145 0.0
C1359 C 0.32442 0.50723 0.73086 0.0
C1360 C 0.32086 0.51402 0.74843 0.0
C1361 C 0.3276 0.53309 0.79963 0.0
C1362 C 0.32249 0.52669 0.7822 0.0
H1363 H 0.30668 0.44808 0.69949 0.0
H1364 H 0.29762 0.46281 0.7279 0.0
H1365 H 0.32274 0.57942 0.74686 0.0
H1366 H 0.36499 0.5851 0.82311 0.0
H1367 H 0.35393 0.57768 0.79509 0.0
C1368 C 0.85178 0.44185 0.8225 0.0
C1369 C 0.84163 0.46605 0.83441 0.0
C1370 C 0.84618 0.44675 0.80627 0.0
C1371 C 0.82645 0.52471 0.77833 0.0
H1372 H 0.82303 0.43578 0.74792 0.0
C1373 C 0.8148 0.55548 0.71068 0.0
C1374 C 0.82776 0.53228 0.69988 0.0
C1375 C 0.81305 0.54448 0.72688 0.0
C1376 C 0.82414 0.46099 0.75621 0.0
H1377 H 0.81692 0.51321 0.83875 0.0
H1378 H 0.80704 0.52212 0.81019 0.0
H1379 H 0.82528 0.42164 0.77678 0.0
H1380 H 0.84837 0.47848 0.69746 0.0
H1381 H 0.84585 0.45945 0.72596 0.0
H1382 H 0.82615 0.5641 0.75791 0.0
C1383 C 0.81946 0.49939 0.81348 0.0
C1384 C 0.82532 0.45287 0.77277 0.0
C1385 C 0.82493 0.49411 0.82981 0.0
C1386 C 0.83821 0.49679 0.70552 0.0
C1387 C 0.83669 0.48594 0.72184 0.0
C1388 C 0.82542 0.53282 0.7618 0.0
C1389 C 0.83036 0.47625 0.80149 0.0
C1390 C 0.82674 0.48465 0.78402 0.0
C1391 C 0.82445 0.51016 0.73282 0.0
C1392 C 0.82445 0.5011 0.75048 0.0
H1393 H 0.86453 0.41967 0.82573 0.0
H1394 H 0.85503 0.42863 0.79739 0.0
H1395 H 0.82796 0.54989 0.78661 0.0
H1396 H 0.80614 0.58253 0.7066 0.0
H1397 H 0.80294 0.56327 0.7348 0.0
C1398 C 0.17805 0.06277 0.82452 0.0
C1399 C 0.16715 0.0401 0.83662 0.0
C1400 C 0.177 0.05084 0.80841 0.0
C1401 C 0.14223 0.99099 0.78019 0.0
H1402 H 0.19412 0.00419 0.75188 0.0
C1403 C 0.14283 0.93253 0.71454 0.0
C1404 C 0.15381 0.95594 0.70269 0.0
C1405 C 0.14411 0.94308 0.73081 0.0
C1406 C 0.17937 0.00083 0.75956 0.0
H1407 H 0.14711 0.98636 0.84127 0.0
H1408 H 0.14545 0.96505 0.813 0.0
H1409 H 0.1979 0.01937 0.78049 0.0
H1410 H 0.17433 0.0095 0.69872 0.0
H1411 H 0.17629 0.02843 0.72719 0.0
H1412 H 0.12368 0.97256 0.75925 0.0
C1413 C 0.15459 0.99247 0.81603 0.0
C1414 C 0.18156 0.00939 0.776 0.0
C1415 C 0.15573 0.00438 0.83224 0.0
C1416 C 0.1656 0.99092 0.70751 0.0
C1417 C 0.16693 0.00147 0.72385 0.0
C1418 C 0.14004 0.98242 0.76374 0.0
C1419 C 0.16503 0.01583 0.80389 0.0
C1420 C 0.16299 0.00474 0.78653 0.0
C1421 C 0.15639 0.97741 0.73573 0.0
C1422 C 0.15857 0.98732 0.7532 0.0
H1423 H 0.18729 0.09009 0.82749 0.0
H1424 H 0.18509 0.06978 0.79942 0.0
H1425 H 0.12747 0.98771 0.78788 0.0
H1426 H 0.13333 0.90573 0.71125 0.0
H1427 H 0.13592 0.92365 0.73958 0.0
C1428 C 0.15681 0.43473 0.32308 0.0
C1429 C 0.16011 0.46835 0.3331 0.0
C1430 C 0.16089 0.43742 0.30656 0.0
C1431 C 0.18551 0.50119 0.27369 0.0
H1432 H 0.13936 0.44617 0.24856 0.0
C1433 C 0.17051 0.52144 0.204 0.0
C1434 C 0.16511 0.48584 0.19551 0.0
C1435 C 0.173 0.52066 0.22085 0.0
C1436 C 0.15255 0.46139 0.25536 0.0
H1437 H 0.17105 0.53072 0.33397 0.0
H1438 H 0.17783 0.5361 0.30478 0.0
H1439 H 0.13829 0.44214 0.27769 0.0
H1440 H 0.16012 0.42108 0.1979 0.0
H1441 H 0.16437 0.41974 0.22702 0.0
H1442 H 0.19934 0.5211 0.25102 0.0
C1443 C 0.17248 0.50729 0.30974 0.0
C1444 C 0.15201 0.45896 0.27213 0.0
C1445 C 0.16867 0.50432 0.32643 0.0
C1446 C 0.16365 0.44921 0.20409 0.0
C1447 C 0.16611 0.44844 0.22081 0.0
C1448 C 0.18596 0.50386 0.25678 0.0
C1449 C 0.1679 0.47418 0.29952 0.0
C1450 C 0.16865 0.47822 0.28158 0.0
C1451 C 0.17013 0.48427 0.22947 0.0
C1452 C 0.16964 0.48343 0.24743 0.0
H1453 H 0.15025 0.40672 0.32804 0.0
H1454 H 0.15782 0.4109 0.2992 0.0
H1455 H 0.1986 0.51644 0.28056 0.0
H1456 H 0.1717 0.55011 0.19772 0.0
H1457 H 0.1761 0.54879 0.22718 0.0
C1458 C 0.84263 -0.00288 0.32622 0.0
C1459 C 0.83752 0.03678 0.33129 0.0
C1460 C 0.84188 0.98692 0.30978 0.0
C1461 C 0.84921 0.0351 0.27058 0.0
H1462 H 0.81722 0.94415 0.25168 0.0
C1463 C 0.83681 0.02825 0.20264 0.0
C1464 C 0.83979 0.99109 0.19475 0.0
C1465 C 0.83502 0.02994 0.21938 0.0
C1466 C 0.82648 0.96939 0.25679 0.0
H1467 H 0.82585 0.09566 0.32307 0.0
H1468 H 0.82514 0.07821 0.29472 0.0
H1469 H 0.81747 0.95295 0.28108 0.0
H1470 H 0.84221 0.92629 0.19808 0.0
H1471 H 0.83958 0.9291 0.22762 0.0
H1472 H 0.8586 0.05159 0.24665 0.0
C1473 C 0.8301 0.05521 0.30336 0.0
C1474 C 0.8266 0.97439 0.27361 0.0
C1475 C 0.83065 0.06525 0.31965 0.0
C1476 C 0.83983 0.95529 0.20392 0.0
C1477 C 0.83833 0.95698 0.22081 0.0
C1478 C 0.84928 0.02996 0.25392 0.0
C1479 C 0.83616 0.01627 0.29817 0.0
C1480 C 0.83756 0.00787 0.28061 0.0
C1481 C 0.83657 0.99453 0.22877 0.0
C1482 C 0.83747 -0.00234 0.24671 0.0
H1483 H 0.84795 0.97445 0.33485 0.0
H1484 H 0.84661 0.95662 0.30609 0.0
H1485 H 0.8582 0.06073 0.27566 0.0
H1486 H 0.83631 0.05621 0.19582 0.0
H1487 H 0.83288 0.05929 0.22499 0.0
C1488 C 0.56162 0.34909 0.1463 0.0
C1489 C 0.57861 0.34427 0.1345 0.0
C1490 C 0.54241 0.32417 0.14641 0.0
C1491 C 0.5222 0.2244 0.13495 0.0
H1492 H 0.46201 0.27194 0.13518 0.0
C1493 C 0.44212 0.12546 0.12747 0.0
C1494 C 0.42223 0.13696 0.13557 0.0
C1495 C 0.46103 0.15107 0.12723 0.0
C1496 C 0.47864 0.258 0.13541 0.0
H1497 H 0.58819 0.30925 0.11339 0.0
H1498 H 0.55517 0.2648 0.11412 0.0
H1499 H 0.49536 0.31575 0.13546 0.0
H1500 H 0.40649 0.18382 0.14994 0.0
H1501 H 0.43975 0.22789 0.15018 0.0
H1502 H 0.50581 0.16673 0.13551 0.0
C1503 C 0.55685 0.28811 0.12322 0.0
C1504 C 0.49774 0.28322 0.13547 0.0
C1505 C 0.57586 0.31349 0.1229 0.0
C1506 C 0.4216 0.17446 0.14349 0.0
C1507 C 0.44065 0.19978 0.14352 0.0
C1508 C 0.50313 0.19915 0.1352 0.0
C1509 C 0.53991 0.29334 0.13493 0.0
C1510 C 0.51967 0.26664 0.13514 0.0
C1511 C 0.46066 0.18852 0.13535 0.0
C1512 C 0.48104 0.21555 0.13533 0.0
H1513 H 0.56324 0.37179 0.15563 0.0
H1514 H 0.52966 0.32853 0.15566 0.0
H1515 H 0.53896 0.2109 0.13487 0.0
H1516 H 0.44292 0.09687 0.12111 0.0
H1517 H 0.47583 0.14159 0.12049 0.0
C1518 C 0.4232 0.82309 0.41667 0.0
C1519 C 0.42079 0.85417 0.40516 0.0
C1520 C 0.44264 0.79875 0.41691 0.0
C1521 C 0.50262 0.79709 0.40563 0.0
H1522 H 0.49615 0.68029 0.40582 0.0
C1523 C 0.57939 0.69107 0.39546 0.0
C1524 C 0.57952 0.65328 0.40321 0.0
C1525 C 0.56024 0.71606 0.39629 0.0
C1526 C 0.49837 0.71282 0.40608 0.0
H1527 H 0.43711 0.8833 0.38472 0.0
H1528 H 0.47126 0.84173 0.38557 0.0
H1529 H 0.46241 0.72288 0.40652 0.0
H1530 H 0.56021 0.61259 0.41842 0.0
H1531 H 0.52716 0.65666 0.42044 0.0
H1532 H 0.53851 0.78739 0.40561 0.0
C1533 C 0.45803 0.83639 0.39439 0.0
C1534 C 0.47897 0.73719 0.40639 0.0
C1535 C 0.43846 0.86031 0.39398 0.0
C1536 C 0.5604 0.64136 0.41213 0.0
C1537 C 0.54141 0.66659 0.4132 0.0
C1538 C 0.52206 0.77275 0.40558 0.0
C1539 C 0.46028 0.8053 0.40582 0.0
C1540 C 0.4809 0.77954 0.40603 0.0
C1541 C 0.54092 0.70411 0.40512 0.0
C1542 C 0.52022 0.73023 0.40567 0.0
H1543 H 0.41025 0.81784 0.42569 0.0
H1544 H 0.44406 0.77519 0.42595 0.0
H1545 H 0.50457 0.82971 0.40553 0.0
H1546 H 0.59389 0.70081 0.38841 0.0
H1547 H 0.56046 0.74433 0.38968 0.0
C1548 C 0.58232 0.81432 0.90876 0.0
C1549 C 0.583 0.85276 0.91599 0.0
C1550 C 0.56342 0.78923 0.91067 0.0
C1551 C 0.5023 0.7923 0.92064 0.0
H1552 H 0.50963 0.67573 0.92293 0.0
C1553 C 0.42606 0.68182 0.92625 0.0
C1554 C 0.42636 0.64904 0.91542 0.0
C1555 C 0.44527 0.7063 0.92824 0.0
C1556 C 0.50733 0.70823 0.92226 0.0
H1557 H 0.56455 0.89459 0.93126 0.0
H1558 H 0.53155 0.85051 0.93477 0.0
H1559 H 0.54308 0.71926 0.9233 0.0
H1560 H 0.44727 0.6166 0.89817 0.0
H1561 H 0.48075 0.65867 0.90191 0.0
H1562 H 0.46648 0.78104 0.91954 0.0
C1563 C 0.54552 0.84008 0.92738 0.0
C1564 C 0.52648 0.7332 0.92242 0.0
C1565 C 0.56443 0.86532 0.92539 0.0
C1566 C 0.44649 0.641 0.90686 0.0
C1567 C 0.46571 0.6652 0.90896 0.0
C1568 C 0.48311 0.76729 0.9206 0.0
C1569 C 0.54472 0.80181 0.91994 0.0
C1570 C 0.52425 0.77553 0.92129 0.0
C1571 C 0.46527 0.69829 0.91957 0.0
C1572 C 0.48546 0.72496 0.9211 0.0
H1573 H 0.59615 0.80402 0.9012 0.0
H1574 H 0.56325 0.76039 0.90449 0.0
H1575 H 0.49992 0.8247 0.91955 0.0
H1576 H 0.41102 0.68857 0.93325 0.0
H1577 H 0.44453 0.73137 0.93663 0.0
C1578 C 0.41924 0.31617 0.61422 0.0
C1579 C 0.41871 0.35363 0.62225 0.0
C1580 C 0.43911 0.29298 0.61395 0.0
C1581 C 0.49311 0.27927 0.6361 0.0
H1582 H 0.51066 0.21765 0.59836 0.0
C1583 C 0.57851 0.19397 0.63215 0.0
C1584 C 0.57752 0.15421 0.62618 0.0
C1585 C 0.55962 0.21945 0.63106 0.0
C1586 C 0.50588 0.23451 0.60903 0.0
H1587 H 0.43882 0.39608 0.63622 0.0
H1588 H 0.47353 0.35644 0.63527 0.0
H1589 H 0.47681 0.26026 0.5974 0.0
H1590 H 0.55618 0.11037 0.61396 0.0
H1591 H 0.52315 0.15474 0.61217 0.0
H1592 H 0.52221 0.2536 0.6477 0.0
C1593 C 0.4585 0.34459 0.62941 0.0
C1594 C 0.48647 0.25884 0.60849 0.0
C1595 C 0.43864 0.36764 0.62974 0.0
C1596 C 0.55736 0.14069 0.61886 0.0
C1597 C 0.53854 0.16623 0.61767 0.0
C1598 C 0.51257 0.25513 0.6366 0.0
C1599 C 0.45893 0.30676 0.62167 0.0
C1600 C 0.4798 0.28142 0.62205 0.0
C1601 C 0.53941 0.20579 0.62385 0.0
C1602 C 0.51911 0.23235 0.6231 0.0
H1603 H 0.40429 0.30465 0.60816 0.0
H1604 H 0.43877 0.26383 0.60799 0.0
H1605 H 0.48827 0.29562 0.64687 0.0
H1606 H 0.59378 0.20516 0.63792 0.0
H1607 H 0.56085 0.24991 0.6358 0.0
C1608 C 0.91937 0.67725 0.61401 0.0
C1609 C 0.91706 0.64858 0.6265 0.0
C1610 C 0.9387 0.7018 0.613 0.0
C1611 C 0.99844 0.70526 0.62215 0.0
H1612 H 0.99269 0.822 0.6247 0.0
C1613 C 0.07672 0.80734 0.63155 0.0
C1614 C 0.07655 0.84673 0.62524 0.0
C1615 C 0.0573 0.7831 0.63071 0.0
C1616 C 0.99469 0.78954 0.62362 0.0
H1617 H 0.93348 0.62432 0.64792 0.0
H1618 H 0.96755 0.66566 0.64555 0.0
H1619 H 0.95866 0.77986 0.6246 0.0
H1620 H 0.05639 0.89145 0.61265 0.0
H1621 H 0.02278 0.84857 0.61036 0.0
H1622 H 0.03426 0.71439 0.62061 0.0
C1623 C 0.95424 0.66901 0.63663 0.0
C1624 C 0.97514 0.76547 0.62367 0.0
C1625 C 0.93474 0.64512 0.63788 0.0
C1626 C 0.05682 0.8612 0.61772 0.0
C1627 C 0.03753 0.83667 0.61654 0.0
C1628 C 0.01797 0.72929 0.62173 0.0
C1629 C 0.95634 0.69761 0.62423 0.0
C1630 C 0.9769 0.72316 0.62317 0.0
C1631 C 0.03737 0.79739 0.62321 0.0
C1632 C 0.01644 0.77181 0.6227 0.0
H1633 H 0.90643 0.68045 0.60484 0.0
H1634 H 0.94006 0.72359 0.60328 0.0
H1635 H 0.00014 0.67262 0.62161 0.0
H1636 H 0.09169 0.79573 0.63758 0.0
H1637 H 0.05783 0.75351 0.63631 0.0
C1638 C 0.07713 0.18237 0.89699 0.0
C1639 C 0.08637 0.16384 0.91071 0.0
C1640 C 0.05774 0.20644 0.89822 0.0
C1641 C 0.02019 0.25931 0.92781 0.0
H1642 H 0.97837 0.25763 0.8917 0.0
C1643 C 0.92863 0.32913 0.92692 0.0
C1644 C 0.92551 0.35715 0.91436 0.0
C1645 C 0.9483 0.30532 0.92752 0.0
C1646 C 0.98993 0.25832 0.90186 0.0
H1647 H 0.08289 0.1559 0.93646 0.0
H1648 H 0.04837 0.19666 0.93863 0.0
H1649 H 0.01248 0.21615 0.89084 0.0
H1650 H 0.94015 0.382 0.89253 0.0
H1651 H 0.97417 0.33961 0.89335 0.0
H1652 H 0.99684 0.30074 0.93893 0.0
C1653 C 0.05639 0.1937 0.92695 0.0
C1654 C 0.00962 0.23489 0.90134 0.0
C1655 C 0.07611 0.17022 0.92574 0.0
C1656 C 0.94227 0.36085 0.90241 0.0
C1657 C 0.96162 0.33654 0.90282 0.0
C1658 C 0.00019 0.28219 0.92844 0.0
C1659 C 0.04679 0.21181 0.91316 0.0
C1660 C 0.02527 0.23556 0.91417 0.0
C1661 C 0.96479 0.30857 0.91536 0.0
C1662 C 0.98511 0.28231 0.91535 0.0
H1663 H 0.08494 0.17816 0.88529 0.0
H1664 H 0.05135 0.22077 0.8874 0.0
H1665 H 0.03187 0.26105 0.93785 0.0
H1666 H 0.91592 0.32584 0.93627 0.0
H1667 H 0.95042 0.28379 0.93726 0.0
C1668 C 0.05848 0.36215 0.42305 0.0
C1669 C 0.07647 0.3527 0.41259 0.0
C1670 C 0.03941 0.33689 0.42402 0.0
C1671 C 0.01935 0.23315 0.41288 0.0
H1672 H 0.95951 0.2805 0.41791 0.0
C1673 C 0.93683 0.14818 0.39733 0.0
C1674 C 0.91944 0.14832 0.40899 0.0
C1675 C 0.95591 0.17292 0.39905 0.0
C1676 C 0.97615 0.26689 0.41665 0.0
H1677 H 0.08838 0.31001 0.39469 0.0
H1678 H 0.05504 0.26677 0.39597 0.0
H1679 H 0.99304 0.32409 0.41848 0.0
H1680 H 0.90875 0.17525 0.43164 0.0
H1681 H 0.94179 0.2196 0.43424 0.0
H1682 H 0.00227 0.17621 0.41039 0.0
C1683 C 0.05583 0.29277 0.40388 0.0
C1684 C 0.99541 0.29178 0.41705 0.0
C1685 C 0.07496 0.31767 0.40308 0.0
C1686 C 0.92156 0.1746 0.42228 0.0
C1687 C 0.94053 0.19989 0.42385 0.0
C1688 C 0.00012 0.20845 0.41224 0.0
C1689 C 0.03778 0.3019 0.41439 0.0
C1690 C 0.01728 0.2753 0.41498 0.0
C1691 C 0.95796 0.199 0.41231 0.0
C1692 C 0.97833 0.2251 0.41396 0.0
H1693 H 0.05928 0.38885 0.4306 0.0
H1694 H 0.02604 0.34466 0.43242 0.0
H1695 H 0.03588 0.21911 0.41167 0.0
H1696 H 0.93564 0.12931 0.38671 0.0
H1697 H 0.96895 0.17213 0.38985 0.0
C1698 C 0.92292 0.80605 0.13674 0.0
C1699 C 0.92378 0.84391 0.12908 0.0
C1700 C 0.94192 0.78067 0.1368 0.0
C1701 C 0.00451 0.78131 0.1293 0.0
H1702 H 0.99629 0.6648 0.12853 0.0
C1703 C 0.07733 0.66641 0.11818 0.0
C1704 C 0.07923 0.63518 0.12968 0.0
C1705 C 0.05847 0.6921 0.11809 0.0
C1706 C 0.99878 0.6973 0.12882 0.0
H1707 H 0.94484 0.88468 0.11514 0.0
H1708 H 0.97772 0.83987 0.11458 0.0
H1709 H 0.96313 0.70897 0.12792 0.0
H1710 H 0.06257 0.60721 0.15025 0.0
H1711 H 0.02928 0.65104 0.14957 0.0
H1712 H 0.0403 0.76919 0.12961 0.0
C1713 C 0.96274 0.83012 0.12108 0.0
C1714 C 0.9798 0.7227 0.12858 0.0
C1715 C 0.94386 0.85578 0.1213 0.0
C1716 C 0.06159 0.63025 0.14099 0.0
C1717 C 0.04255 0.65549 0.14069 0.0
C1718 C 0.02348 0.75587 0.12923 0.0
C1719 C 0.9621 0.79226 0.12891 0.0
C1720 C 0.98237 0.76511 0.12891 0.0
C1721 C 0.04087 0.68673 0.12929 0.0
C1722 C 0.02078 0.71366 0.12909 0.0
H1723 H 0.90767 0.79641 0.14297 0.0
H1724 H 0.94082 0.75224 0.14325 0.0
H1725 H 0.00727 0.81368 0.1299 0.0
H1726 H 0.09022 0.67076 0.10904 0.0
H1727 H 0.05743 0.71577 0.10907 0.0
loop_
_geom_bond_atom_site_label_1
_geom_bond_atom_site_label_2
_geom_bond_distance
_geom_bond_site_symmetry_2
_ccdc_geom_bond_type
C0 C1 1.351 . S
C0 N3 1.368 . S
C0 H5 0.931 . S
C1 C0 1.351 . S
C1 N2 1.373 . S
C1 H29 0.930 . S
N2 C1 1.373 . S
N2 C4 1.340 . S
N3 C0 1.368 . S
N3 C4 1.321 . S
N3 Co6 2.135 . S
C4 N2 1.340 . S
C4 N3 1.321 . S
C4 H28 0.930 . S
H5 C0 0.931 . S
Co6 N3 2.135 . S
Co6 N9 2.121 . S
Co6 O14 2.055 . S
Co6 O17 2.039 . S
Co6 N20 2.140 . S
C7 O8 1.227 . S
C7 O17 1.265 . S
O8 C7 1.227 . S
N9 Co6 2.121 . S
N9 C11 1.375 . S
N9 C12 1.313 . S
C10 C11 1.338 . S
C10 N13 1.377 . S
C10 H30 0.930 . S
C11 N9 1.375 . S
C11 C10 1.338 . S
C11 H15 0.931 . S
C12 N9 1.313 . S
C12 N13 1.344 . S
C12 H16 0.930 . S
N13 C10 1.377 . S
N13 C12 1.344 . S
O14 Co6 2.055 . S
O14 C18 1.253 . S
H15 C11 0.931 . S
H16 C12 0.930 . S
O17 Co6 2.039 . S
O17 C7 1.265 . S
C18 O14 1.253 . S
C18 O19 1.227 . S
O19 C18 1.227 . S
N20 Co6 2.140 . S
N20 C23 1.346 . S
N20 C24 1.345 . S
C21 C22 1.387 . S
C21 C25 1.391 . S
C22 C21 1.387 . S
C22 C23 1.369 . S
C22 H31 0.929 . S
C23 N20 1.346 . S
C23 C22 1.369 . S
C23 H26 0.928 . S
C24 N20 1.345 . S
C24 C25 1.371 . S
C24 H27 0.931 . S
C25 C21 1.391 . S
C25 C24 1.371 . S
C25 H32 0.930 . S
H26 C23 0.928 . S
H27 C24 0.931 . S
H28 C4 0.930 . S
H29 C1 0.930 . S
H30 C10 0.930 . S
H31 C22 0.929 . S
H32 C25 0.930 . S
C33 C34 1.351 . S
C33 N36 1.368 . S
C33 H38 0.931 . S
C34 C33 1.351 . S
C34 N35 1.373 . S
C34 H62 0.930 . S
N35 C34 1.373 . S
N35 C37 1.340 . S
N36 C33 1.368 . S
N36 C37 1.321 . S
N36 Co39 2.135 . S
C37 N35 1.340 . S
C37 N36 1.321 . S
C37 H61 0.930 . S
H38 C33 0.931 . S
Co39 N36 2.135 . S
Co39 N42 2.121 . S
Co39 O47 2.055 . S
Co39 O50 2.039 . S
Co39 N53 2.140 . S
C40 O41 1.227 . S
C40 O50 1.265 . S
O41 C40 1.227 . S
N42 Co39 2.121 . S
N42 C44 1.375 . S
N42 C45 1.313 . S
C43 C44 1.338 . S
C43 N46 1.377 . S
C43 H63 0.930 . S
C44 N42 1.375 . S
C44 C43 1.338 . S
C44 H48 0.931 . S
C45 N42 1.313 . S
C45 N46 1.344 . S
C45 H49 0.930 . S
N46 C43 1.377 . S
N46 C45 1.344 . S
O47 Co39 2.055 . S
O47 C51 1.253 . S
H48 C44 0.931 . S
H49 C45 0.930 . S
O50 Co39 2.039 . S
O50 C40 1.265 . S
C51 O47 1.253 . S
C51 O52 1.227 . S
O52 C51 1.227 . S
N53 Co39 2.140 . S
N53 C56 1.346 . S
N53 C57 1.345 . S
C54 C55 1.387 . S
C54 C58 1.391 . S
C55 C54 1.387 . S
C55 C56 1.369 . S
C55 H64 0.929 . S
C56 N53 1.346 . S
C56 C55 1.369 . S
C56 H59 0.928 . S
C57 N53 1.345 . S
C57 C58 1.371 . S
C57 H60 0.931 . S
C58 C54 1.391 . S
C58 C57 1.371 . S
C58 H65 0.930 . S
H59 C56 0.928 . S
H60 C57 0.931 . S
H61 C37 0.930 . S
H62 C34 0.930 . S
H63 C43 0.930 . S
H64 C55 0.929 . S
H65 C58 0.930 . S
C66 C67 1.351 . S
C66 N69 1.368 . S
C66 H71 0.931 . S
C67 C66 1.351 . S
C67 N68 1.373 . S
C67 H95 0.930 . S
N68 C67 1.373 . S
N68 C70 1.340 . S
N69 C66 1.368 . S
N69 C70 1.321 . S
N69 Co72 2.135 . S
C70 N68 1.340 . S
C70 N69 1.321 . S
C70 H94 0.930 . S
H71 C66 0.931 . S
Co72 N69 2.135 . S
Co72 N75 2.121 . S
Co72 O80 2.055 . S
Co72 O83 2.039 . S
Co72 N86 2.140 . S
C73 O74 1.227 . S
C73 O83 1.265 . S
O74 C73 1.227 . S
N75 Co72 2.121 . S
N75 C77 1.375 . S
N75 C78 1.313 . S
C76 C77 1.338 . S
C76 N79 1.377 . S
C76 H96 0.930 . S
C77 N75 1.375 . S
C77 C76 1.338 . S
C77 H81 0.931 . S
C78 N75 1.313 . S
C78 N79 1.344 . S
C78 H82 0.930 . S
N79 C76 1.377 . S
N79 C78 1.344 . S
O80 Co72 2.055 . S
O80 C84 1.253 . S
H81 C77 0.931 . S
H82 C78 0.930 . S
O83 Co72 2.039 . S
O83 C73 1.265 . S
C84 O80 1.253 . S
C84 O85 1.227 . S
O85 C84 1.227 . S
N86 Co72 2.140 . S
N86 C89 1.346 . S
N86 C90 1.345 . S
C87 C88 1.387 . S
C87 C91 1.391 . S
C88 C87 1.387 . S
C88 C89 1.369 . S
C88 H97 0.929 . S
C89 N86 1.346 . S
C89 C88 1.369 . S
C89 H92 0.928 . S
C90 N86 1.345 . S
C90 C91 1.371 . S
C90 H93 0.931 . S
C91 C87 1.391 . S
C91 C90 1.371 . S
C91 H98 0.930 . S
H92 C89 0.928 . S
H93 C90 0.931 . S
H94 C70 0.930 . S
H95 C67 0.930 . S
H96 C76 0.930 . S
H97 C88 0.929 . S
H98 C91 0.930 . S
C99 C100 1.351 . S
C99 N102 1.368 . S
C99 H104 0.931 . S
C100 C99 1.351 . S
C100 N101 1.373 . S
C100 H128 0.930 . S
N101 C100 1.373 . S
N101 C103 1.340 . S
N102 C99 1.368 . S
N102 C103 1.321 . S
N102 Co105 2.135 . S
C103 N101 1.340 . S
C103 N102 1.321 . S
C103 H127 0.930 . S
H104 C99 0.931 . S
Co105 N102 2.135 . S
Co105 N108 2.121 . S
Co105 O113 2.055 . S
Co105 O116 2.039 . S
Co105 N119 2.140 . S
C106 O107 1.227 . S
C106 O116 1.265 . S
O107 C106 1.227 . S
N108 Co105 2.121 . S
N108 C110 1.375 . S
N108 C111 1.313 . S
C109 C110 1.338 . S
C109 N112 1.377 . S
C109 H129 0.930 . S
C110 N108 1.375 . S
C110 C109 1.338 . S
C110 H114 0.931 . S
C111 N108 1.313 . S
C111 N112 1.344 . S
C111 H115 0.930 . S
N112 C109 1.377 . S
N112 C111 1.344 . S
O113 Co105 2.055 . S
O113 C117 1.253 . S
H114 C110 0.931 . S
H115 C111 0.930 . S
O116 Co105 2.039 . S
O116 C106 1.265 . S
C117 O113 1.253 . S
C117 O118 1.227 . S
O118 C117 1.227 . S
N119 Co105 2.140 . S
N119 C122 1.346 . S
N119 C123 1.345 . S
C120 C121 1.387 . S
C120 C124 1.391 . S
C121 C120 1.387 . S
C121 C122 1.369 . S
C121 H130 0.929 . S
C122 N119 1.346 . S
C122 C121 1.369 . S
C122 H125 0.928 . S
C123 N119 1.345 . S
C123 C124 1.371 . S
C123 H126 0.931 . S
C124 C120 1.391 . S
C124 C123 1.371 . S
C124 H131 0.930 . S
H125 C122 0.928 . S
H126 C123 0.931 . S
H127 C103 0.930 . S
H128 C100 0.930 . S
H129 C109 0.930 . S
H130 C121 0.929 . S
H131 C124 0.930 . S
C132 C133 1.351 . S
C132 N135 1.368 . S
C132 H137 0.931 . S
C133 C132 1.351 . S
C133 N134 1.373 . S
C133 H161 0.930 . S
N134 C133 1.373 . S
N134 C136 1.340 . S
N135 C132 1.368 . S
N135 C136 1.321 . S
N135 Co138 2.135 . S
C136 N134 1.340 . S
C136 N135 1.321 . S
C136 H160 0.930 . S
H137 C132 0.931 . S
Co138 N135 2.135 . S
Co138 N141 2.121 . S
Co138 O146 2.055 . S
Co138 O149 2.039 . S
Co138 N152 2.140 . S
C139 O140 1.227 . S
C139 O149 1.265 . S
O140 C139 1.227 . S
N141 Co138 2.121 . S
N141 C143 1.375 . S
N141 C144 1.313 . S
C142 C143 1.338 . S
C142 N145 1.377 . S
C142 H162 0.930 . S
C143 N141 1.375 . S
C143 C142 1.338 . S
C143 H147 0.931 . S
C144 N141 1.313 . S
C144 N145 1.344 . S
C144 H148 0.930 . S
N145 C142 1.377 . S
N145 C144 1.344 . S
O146 Co138 2.055 . S
O146 C150 1.253 . S
H147 C143 0.931 . S
H148 C144 0.930 . S
O149 Co138 2.039 . S
O149 C139 1.265 . S
C150 O146 1.253 . S
C150 O151 1.227 . S
O151 C150 1.227 . S
N152 Co138 2.140 . S
N152 C155 1.346 . S
N152 C156 1.345 . S
C153 C154 1.387 . S
C153 C157 1.391 . S
C154 C153 1.387 . S
C154 C155 1.369 . S
C154 H163 0.929 . S
C155 N152 1.346 . S
C155 C154 1.369 . S
C155 H158 0.928 . S
C156 N152 1.345 . S
C156 C157 1.371 . S
C156 H159 0.931 . S
C157 C153 1.391 . S
C157 C156 1.371 . S
C157 H164 0.930 . S
H158 C155 0.928 . S
H159 C156 0.931 . S
H160 C136 0.930 . S
H161 C133 0.930 . S
H162 C142 0.930 . S
H163 C154 0.929 . S
H164 C157 0.930 . S
C165 C166 1.351 . S
C165 N168 1.368 . S
C165 H170 0.931 . S
C166 C165 1.351 . S
C166 N167 1.373 . S
C166 H194 0.930 . S
N167 C166 1.373 . S
N167 C169 1.340 . S
N168 C165 1.368 . S
N168 C169 1.321 . S
N168 Co171 2.135 . S
C169 N167 1.340 . S
C169 N168 1.321 . S
C169 H193 0.930 . S
H170 C165 0.931 . S
Co171 N168 2.135 . S
Co171 N174 2.121 . S
Co171 O179 2.055 . S
Co171 O182 2.039 . S
Co171 N185 2.140 . S
C172 O173 1.227 . S
C172 O182 1.265 . S
O173 C172 1.227 . S
N174 Co171 2.121 . S
N174 C176 1.375 . S
N174 C177 1.313 . S
C175 C176 1.338 . S
C175 N178 1.377 . S
C175 H195 0.930 . S
C176 N174 1.375 . S
C176 C175 1.338 . S
C176 H180 0.931 . S
C177 N174 1.313 . S
C177 N178 1.344 . S
C177 H181 0.930 . S
N178 C175 1.377 . S
N178 C177 1.344 . S
O179 Co171 2.055 . S
O179 C183 1.253 . S
H180 C176 0.931 . S
H181 C177 0.930 . S
O182 Co171 2.039 . S
O182 C172 1.265 . S
C183 O179 1.253 . S
C183 O184 1.227 . S
O184 C183 1.227 . S
N185 Co171 2.140 . S
N185 C188 1.346 . S
N185 C189 1.345 . S
C186 C187 1.387 . S
C186 C190 1.391 . S
C187 C186 1.387 . S
C187 C188 1.369 . S
C187 H196 0.929 . S
C188 N185 1.346 . S
C188 C187 1.369 . S
C188 H191 0.928 . S
C189 N185 1.345 . S
C189 C190 1.371 . S
C189 H192 0.931 . S
C190 C186 1.391 . S
C190 C189 1.371 . S
C190 H197 0.930 . S
H191 C188 0.928 . S
H192 C189 0.931 . S
H193 C169 0.930 . S
H194 C166 0.930 . S
H195 C175 0.930 . S
H196 C187 0.929 . S
H197 C190 0.930 . S
C198 C199 1.351 . S
C198 N201 1.368 . S
C198 H203 0.931 . S
C199 C198 1.351 . S
C199 N200 1.373 . S
C199 H227 0.930 . S
N200 C199 1.373 . S
N200 C202 1.340 . S
N201 C198 1.368 . S
N201 C202 1.321 . S
N201 Co204 2.135 . S
C202 N200 1.340 . S
C202 N201 1.321 . S
C202 H226 0.930 . S
H203 C198 0.931 . S
Co204 N201 2.135 . S
Co204 N207 2.121 . S
Co204 O212 2.055 . S
Co204 O215 2.039 . S
Co204 N218 2.140 . S
C205 O206 1.227 . S
C205 O215 1.265 . S
O206 C205 1.227 . S
N207 Co204 2.121 . S
N207 C209 1.375 . S
N207 C210 1.313 . S
C208 C209 1.338 . S
C208 N211 1.377 . S
C208 H228 0.930 . S
C209 N207 1.375 . S
C209 C208 1.338 . S
C209 H213 0.931 . S
C210 N207 1.313 . S
C210 N211 1.344 . S
C210 H214 0.930 . S
N211 C208 1.377 . S
N211 C210 1.344 . S
O212 Co204 2.055 . S
O212 C216 1.253 . S
H213 C209 0.931 . S
H214 C210 0.930 . S
O215 Co204 2.039 . S
O215 C205 1.265 . S
C216 O212 1.253 . S
C216 O217 1.227 . S
O217 C216 1.227 . S
N218 Co204 2.140 . S
N218 C221 1.346 . S
N218 C222 1.345 . S
C219 C220 1.387 . S
C219 C223 1.391 . S
C220 C219 1.387 . S
C220 C221 1.369 . S
C220 H229 0.929 . S
C221 N218 1.346 . S
C221 C220 1.369 . S
C221 H224 0.928 . S
C222 N218 1.345 . S
C222 C223 1.371 . S
C222 H225 0.931 . S
C223 C219 1.391 . S
C223 C222 1.371 . S
C223 H230 0.930 . S
H224 C221 0.928 . S
H225 C222 0.931 . S
H226 C202 0.930 . S
H227 C199 0.930 . S
H228 C208 0.930 . S
H229 C220 0.929 . S
H230 C223 0.930 . S
C231 C232 1.351 . S
C231 N234 1.368 . S
C231 H236 0.931 . S
C232 C231 1.351 . S
C232 N233 1.373 . S
C232 H260 0.930 . S
N233 C232 1.373 . S
N233 C235 1.340 . S
N234 C231 1.368 . S
N234 C235 1.321 . S
N234 Co237 2.135 . S
C235 N233 1.340 . S
C235 N234 1.321 . S
C235 H259 0.930 . S
H236 C231 0.931 . S
Co237 N234 2.135 . S
Co237 N240 2.121 . S
Co237 O245 2.055 . S
Co237 O248 2.039 . S
Co237 N251 2.140 . S
C238 O239 1.227 . S
C238 O248 1.265 . S
O239 C238 1.227 . S
N240 Co237 2.121 . S
N240 C242 1.375 . S
N240 C243 1.313 . S
C241 C242 1.338 . S
C241 N244 1.377 . S
C241 H261 0.930 . S
C242 N240 1.375 . S
C242 C241 1.338 . S
C242 H246 0.931 . S
C243 N240 1.313 . S
C243 N244 1.344 . S
C243 H247 0.930 . S
N244 C241 1.377 . S
N244 C243 1.344 . S
O245 Co237 2.055 . S
O245 C249 1.253 . S
H246 C242 0.931 . S
H247 C243 0.930 . S
O248 Co237 2.039 . S
O248 C238 1.265 . S
C249 O245 1.253 . S
C249 O250 1.227 . S
O250 C249 1.227 . S
N251 Co237 2.140 . S
N251 C254 1.346 . S
N251 C255 1.345 . S
C252 C253 1.387 . S
C252 C256 1.391 . S
C253 C252 1.387 . S
C253 C254 1.369 . S
C253 H262 0.929 . S
C254 N251 1.346 . S
C254 C253 1.369 . S
C254 H257 0.928 . S
C255 N251 1.345 . S
C255 C256 1.371 . S
C255 H258 0.931 . S
C256 C252 1.391 . S
C256 C255 1.371 . S
C256 H263 0.930 . S
H257 C254 0.928 . S
H258 C255 0.931 . S
H259 C235 0.930 . S
H260 C232 0.930 . S
H261 C241 0.930 . S
H262 C253 0.929 . S
H263 C256 0.930 . S
C264 C265 1.351 . S
C264 N267 1.368 . S
C264 H269 0.931 . S
C265 C264 1.351 . S
C265 N266 1.373 . S
C265 H293 0.930 . S
N266 C265 1.373 . S
N266 C268 1.340 . S
N267 C264 1.368 . S
N267 C268 1.321 . S
N267 Co270 2.135 . S
C268 N266 1.340 . S
C268 N267 1.321 . S
C268 H292 0.930 . S
H269 C264 0.931 . S
Co270 N267 2.135 . S
Co270 N273 2.121 . S
Co270 O278 2.055 . S
Co270 O281 2.039 . S
Co270 N284 2.140 . S
C271 O272 1.227 . S
C271 O281 1.265 . S
O272 C271 1.227 . S
N273 Co270 2.121 . S
N273 C275 1.375 . S
N273 C276 1.313 . S
C274 C275 1.338 . S
C274 N277 1.377 . S
C274 H294 0.930 . S
C275 N273 1.375 . S
C275 C274 1.338 . S
C275 H279 0.931 . S
C276 N273 1.313 . S
C276 N277 1.344 . S
C276 H280 0.930 . S
N277 C274 1.377 . S
N277 C276 1.344 . S
O278 Co270 2.055 . S
O278 C282 1.253 . S
H279 C275 0.931 . S
H280 C276 0.930 . S
O281 Co270 2.039 . S
O281 C271 1.265 . S
C282 O278 1.253 . S
C282 O283 1.227 . S
O283 C282 1.227 . S
N284 Co270 2.140 . S
N284 C287 1.346 . S
N284 C288 1.345 . S
C285 C286 1.387 . S
C285 C289 1.391 . S
C286 C285 1.387 . S
C286 C287 1.369 . S
C286 H295 0.929 . S
C287 N284 1.346 . S
C287 C286 1.369 . S
C287 H290 0.928 . S
C288 N284 1.345 . S
C288 C289 1.371 . S
C288 H291 0.931 . S
C289 C285 1.391 . S
C289 C288 1.371 . S
C289 H296 0.930 . S
H290 C287 0.928 . S
H291 C288 0.931 . S
H292 C268 0.930 . S
H293 C265 0.930 . S
H294 C274 0.930 . S
H295 C286 0.929 . S
H296 C289 0.930 . S
C297 C298 1.351 . S
C297 N300 1.368 . S
C297 H302 0.931 . S
C298 C297 1.351 . S
C298 N299 1.373 . S
C298 H326 0.930 . S
N299 C298 1.373 . S
N299 C301 1.340 . S
N300 C297 1.368 . S
N300 C301 1.321 . S
N300 Co303 2.135 . S
C301 N299 1.340 . S
C301 N300 1.321 . S
C301 H325 0.930 . S
H302 C297 0.931 . S
Co303 N300 2.135 . S
Co303 N306 2.121 . S
Co303 O311 2.055 . S
Co303 O314 2.039 . S
Co303 N317 2.140 . S
C304 O305 1.227 . S
C304 O314 1.265 . S
O305 C304 1.227 . S
N306 Co303 2.121 . S
N306 C308 1.375 . S
N306 C309 1.313 . S
C307 C308 1.338 . S
C307 N310 1.377 . S
C307 H327 0.930 . S
C308 N306 1.375 . S
C308 C307 1.338 . S
C308 H312 0.931 . S
C309 N306 1.313 . S
C309 N310 1.344 . S
C309 H313 0.930 . S
N310 C307 1.377 . S
N310 C309 1.344 . S
O311 Co303 2.055 . S
O311 C315 1.253 . S
H312 C308 0.931 . S
H313 C309 0.930 . S
O314 Co303 2.039 . S
O314 C304 1.265 . S
C315 O311 1.253 . S
C315 O316 1.227 . S
O316 C315 1.227 . S
N317 Co303 2.140 . S
N317 C320 1.346 . S
N317 C321 1.345 . S
C318 C319 1.387 . S
C318 C322 1.391 . S
C319 C318 1.387 . S
C319 C320 1.369 . S
C319 H328 0.929 . S
C320 N317 1.346 . S
C320 C319 1.369 . S
C320 H323 0.928 . S
C321 N317 1.345 . S
C321 C322 1.371 . S
C321 H324 0.931 . S
C322 C318 1.391 . S
C322 C321 1.371 . S
C322 H329 0.930 . S
H323 C320 0.928 . S
H324 C321 0.931 . S
H325 C301 0.930 . S
H326 C298 0.930 . S
H327 C307 0.930 . S
H328 C319 0.929 . S
H329 C322 0.930 . S
C330 C331 1.351 . S
C330 N333 1.368 . S
C330 H335 0.931 . S
C331 C330 1.351 . S
C331 N332 1.373 . S
C331 H359 0.930 . S
N332 C331 1.373 . S
N332 C334 1.340 . S
N333 C330 1.368 . S
N333 C334 1.321 . S
N333 Co336 2.135 . S
C334 N332 1.340 . S
C334 N333 1.321 . S
C334 H358 0.930 . S
H335 C330 0.931 . S
Co336 N333 2.135 . S
Co336 N339 2.121 . S
Co336 O344 2.055 . S
Co336 O347 2.039 . S
Co336 N350 2.140 . S
C337 O338 1.227 . S
C337 O347 1.265 . S
O338 C337 1.227 . S
N339 Co336 2.121 . S
N339 C341 1.375 . S
N339 C342 1.313 . S
C340 C341 1.338 . S
C340 N343 1.377 . S
C340 H360 0.930 . S
C341 N339 1.375 . S
C341 C340 1.338 . S
C341 H345 0.931 . S
C342 N339 1.313 . S
C342 N343 1.344 . S
C342 H346 0.930 . S
N343 C340 1.377 . S
N343 C342 1.344 . S
O344 Co336 2.055 . S
O344 C348 1.253 . S
H345 C341 0.931 . S
H346 C342 0.930 . S
O347 Co336 2.039 . S
O347 C337 1.265 . S
C348 O344 1.253 . S
C348 O349 1.227 . S
O349 C348 1.227 . S
N350 Co336 2.140 . S
N350 C353 1.346 . S
N350 C354 1.345 . S
C351 C352 1.387 . S
C351 C355 1.391 . S
C352 C351 1.387 . S
C352 C353 1.369 . S
C352 H361 0.929 . S
C353 N350 1.346 . S
C353 C352 1.369 . S
C353 H356 0.928 . S
C354 N350 1.345 . S
C354 C355 1.371 . S
C354 H357 0.931 . S
C355 C351 1.391 . S
C355 C354 1.371 . S
C355 H362 0.930 . S
H356 C353 0.928 . S
H357 C354 0.931 . S
H358 C334 0.930 . S
H359 C331 0.930 . S
H360 C340 0.930 . S
H361 C352 0.929 . S
H362 C355 0.930 . S
C363 C364 1.351 . S
C363 N366 1.368 . S
C363 H368 0.931 . S
C364 C363 1.351 . S
C364 N365 1.373 . S
C364 H392 0.930 . S
N365 C364 1.373 . S
N365 C367 1.340 . S
N366 C363 1.368 . S
N366 C367 1.321 . S
N366 Co369 2.135 . S
C367 N365 1.340 . S
C367 N366 1.321 . S
C367 H391 0.930 . S
H368 C363 0.931 . S
Co369 N366 2.135 . S
Co369 N372 2.121 . S
Co369 O377 2.055 . S
Co369 O380 2.039 . S
Co369 N383 2.140 . S
C370 O371 1.227 . S
C370 O380 1.265 . S
O371 C370 1.227 . S
N372 Co369 2.121 . S
N372 C374 1.375 . S
N372 C375 1.313 . S
C373 C374 1.338 . S
C373 N376 1.377 . S
C373 H393 0.930 . S
C374 N372 1.375 . S
C374 C373 1.338 . S
C374 H378 0.931 . S
C375 N372 1.313 . S
C375 N376 1.344 . S
C375 H379 0.930 . S
N376 C373 1.377 . S
N376 C375 1.344 . S
O377 Co369 2.055 . S
O377 C381 1.253 . S
H378 C374 0.931 . S
H379 C375 0.930 . S
O380 Co369 2.039 . S
O380 C370 1.265 . S
C381 O377 1.253 . S
C381 O382 1.227 . S
O382 C381 1.227 . S
N383 Co369 2.140 . S
N383 C386 1.346 . S
N383 C387 1.345 . S
C384 C385 1.387 . S
C384 C388 1.391 . S
C385 C384 1.387 . S
C385 C386 1.369 . S
C385 H394 0.929 . S
C386 N383 1.346 . S
C386 C385 1.369 . S
C386 H389 0.928 . S
C387 N383 1.345 . S
C387 C388 1.371 . S
C387 H390 0.931 . S
C388 C384 1.391 . S
C388 C387 1.371 . S
C388 H395 0.930 . S
H389 C386 0.928 . S
H390 C387 0.931 . S
H391 C367 0.930 . S
H392 C364 0.930 . S
H393 C373 0.930 . S
H394 C385 0.929 . S
H395 C388 0.930 . S
C396 C397 1.351 . S
C396 N399 1.368 . S
C396 H401 0.931 . S
C397 C396 1.351 . S
C397 N398 1.373 . S
C397 H425 0.930 . S
N398 C397 1.373 . S
N398 C400 1.340 . S
N399 C396 1.368 . S
N399 C400 1.321 . S
N399 Co402 2.135 . S
C400 N398 1.340 . S
C400 N399 1.321 . S
C400 H424 0.930 . S
H401 C396 0.931 . S
Co402 N399 2.135 . S
Co402 N405 2.121 . S
Co402 O410 2.055 . S
Co402 O413 2.039 . S
Co402 N416 2.140 . S
C403 O404 1.227 . S
C403 O413 1.265 . S
O404 C403 1.227 . S
N405 Co402 2.121 . S
N405 C407 1.375 . S
N405 C408 1.313 . S
C406 C407 1.338 . S
C406 N409 1.377 . S
C406 H426 0.930 . S
C407 N405 1.375 . S
C407 C406 1.338 . S
C407 H411 0.931 . S
C408 N405 1.313 . S
C408 N409 1.344 . S
C408 H412 0.930 . S
N409 C406 1.377 . S
N409 C408 1.344 . S
O410 Co402 2.055 . S
O410 C414 1.253 . S
H411 C407 0.931 . S
H412 C408 0.930 . S
O413 Co402 2.039 . S
O413 C403 1.265 . S
C414 O410 1.253 . S
C414 O415 1.227 . S
O415 C414 1.227 . S
N416 Co402 2.140 . S
N416 C419 1.346 . S
N416 C420 1.345 . S
C417 C418 1.387 . S
C417 C421 1.391 . S
C418 C417 1.387 . S
C418 C419 1.369 . S
C418 H427 0.929 . S
C419 N416 1.346 . S
C419 C418 1.369 . S
C419 H422 0.928 . S
C420 N416 1.345 . S
C420 C421 1.371 . S
C420 H423 0.931 . S
C421 C417 1.391 . S
C421 C420 1.371 . S
C421 H428 0.930 . S
H422 C419 0.928 . S
H423 C420 0.931 . S
H424 C400 0.930 . S
H425 C397 0.930 . S
H426 C406 0.930 . S
H427 C418 0.929 . S
H428 C421 0.930 . S
C429 C430 1.351 . S
C429 N432 1.368 . S
C429 H434 0.931 . S
C430 C429 1.351 . S
C430 N431 1.373 . S
C430 H458 0.930 . S
N431 C430 1.373 . S
N431 C433 1.340 . S
N432 C429 1.368 . S
N432 C433 1.321 . S
N432 Co435 2.135 . S
C433 N431 1.340 . S
C433 N432 1.321 . S
C433 H457 0.930 . S
H434 C429 0.931 . S
Co435 N432 2.135 . S
Co435 N438 2.121 . S
Co435 O443 2.055 . S
Co435 O446 2.039 . S
Co435 N449 2.140 . S
C436 O437 1.227 . S
C436 O446 1.265 . S
O437 C436 1.227 . S
N438 Co435 2.121 . S
N438 C440 1.375 . S
N438 C441 1.313 . S
C439 C440 1.338 . S
C439 N442 1.377 . S
C439 H459 0.930 . S
C440 N438 1.375 . S
C440 C439 1.338 . S
C440 H444 0.931 . S
C441 N438 1.313 . S
C441 N442 1.344 . S
C441 H445 0.930 . S
N442 C439 1.377 . S
N442 C441 1.344 . S
O443 Co435 2.055 . S
O443 C447 1.253 . S
H444 C440 0.931 . S
H445 C441 0.930 . S
O446 Co435 2.039 . S
O446 C436 1.265 . S
C447 O443 1.253 . S
C447 O448 1.227 . S
O448 C447 1.227 . S
N449 Co435 2.140 . S
N449 C452 1.346 . S
N449 C453 1.345 . S
C450 C451 1.387 . S
C450 C454 1.391 . S
C451 C450 1.387 . S
C451 C452 1.369 . S
C451 H460 0.929 . S
C452 N449 1.346 . S
C452 C451 1.369 . S
C452 H455 0.928 . S
C453 N449 1.345 . S
C453 C454 1.371 . S
C453 H456 0.931 . S
C454 C450 1.391 . S
C454 C453 1.371 . S
C454 H461 0.930 . S
H455 C452 0.928 . S
H456 C453 0.931 . S
H457 C433 0.930 . S
H458 C430 0.930 . S
H459 C439 0.930 . S
H460 C451 0.929 . S
H461 C454 0.930 . S
C462 C463 1.351 . S
C462 N465 1.368 . S
C462 H467 0.931 . S
C463 C462 1.351 . S
C463 N464 1.373 . S
C463 H491 0.930 . S
N464 C463 1.373 . S
N464 C466 1.340 . S
N465 C462 1.368 . S
N465 C466 1.321 . S
N465 Co468 2.135 . S
C466 N464 1.340 . S
C466 N465 1.321 . S
C466 H490 0.930 . S
H467 C462 0.931 . S
Co468 N465 2.135 . S
Co468 N471 2.121 . S
Co468 O476 2.055 . S
Co468 O479 2.039 . S
Co468 N482 2.140 . S
C469 O470 1.227 . S
C469 O479 1.265 . S
O470 C469 1.227 . S
N471 Co468 2.121 . S
N471 C473 1.375 . S
N471 C474 1.313 . S
C472 C473 1.338 . S
C472 N475 1.377 . S
C472 H492 0.930 . S
C473 N471 1.375 . S
C473 C472 1.338 . S
C473 H477 0.931 . S
C474 N471 1.313 . S
C474 N475 1.344 . S
C474 H478 0.930 . S
N475 C472 1.377 . S
N475 C474 1.344 . S
O476 Co468 2.055 . S
O476 C480 1.253 . S
H477 C473 0.931 . S
H478 C474 0.930 . S
O479 Co468 2.039 . S
O479 C469 1.265 . S
C480 O476 1.253 . S
C480 O481 1.227 . S
O481 C480 1.227 . S
N482 Co468 2.140 . S
N482 C485 1.346 . S
N482 C486 1.345 . S
C483 C484 1.387 . S
C483 C487 1.391 . S
C484 C483 1.387 . S
C484 C485 1.369 . S
C484 H493 0.929 . S
C485 N482 1.346 . S
C485 C484 1.369 . S
C485 H488 0.928 . S
C486 N482 1.345 . S
C486 C487 1.371 . S
C486 H489 0.931 . S
C487 C483 1.391 . S
C487 C486 1.371 . S
C487 H494 0.930 . S
H488 C485 0.928 . S
H489 C486 0.931 . S
H490 C466 0.930 . S
H491 C463 0.930 . S
H492 C472 0.930 . S
H493 C484 0.929 . S
H494 C487 0.930 . S
C495 C496 1.351 . S
C495 N498 1.368 . S
C495 H500 0.931 . S
C496 C495 1.351 . S
C496 N497 1.373 . S
C496 H524 0.930 . S
N497 C496 1.373 . S
N497 C499 1.340 . S
N498 C495 1.368 . S
N498 C499 1.321 . S
N498 Co501 2.135 . S
C499 N497 1.340 . S
C499 N498 1.321 . S
C499 H523 0.930 . S
H500 C495 0.931 . S
Co501 N498 2.135 . S
Co501 N504 2.121 . S
Co501 O509 2.055 . S
Co501 O512 2.039 . S
Co501 N515 2.140 . S
C502 O503 1.227 . S
C502 O512 1.265 . S
O503 C502 1.227 . S
N504 Co501 2.121 . S
N504 C506 1.375 . S
N504 C507 1.313 . S
C505 C506 1.338 . S
C505 N508 1.377 . S
C505 H525 0.930 . S
C506 N504 1.375 . S
C506 C505 1.338 . S
C506 H510 0.931 . S
C507 N504 1.313 . S
C507 N508 1.344 . S
C507 H511 0.930 . S
N508 C505 1.377 . S
N508 C507 1.344 . S
O509 Co501 2.055 . S
O509 C513 1.253 . S
H510 C506 0.931 . S
H511 C507 0.930 . S
O512 Co501 2.039 . S
O512 C502 1.265 . S
C513 O509 1.253 . S
C513 O514 1.227 . S
O514 C513 1.227 . S
N515 Co501 2.140 . S
N515 C518 1.346 . S
N515 C519 1.345 . S
C516 C517 1.387 . S
C516 C520 1.391 . S
C517 C516 1.387 . S
C517 C518 1.369 . S
C517 H526 0.929 . S
C518 N515 1.346 . S
C518 C517 1.369 . S
C518 H521 0.928 . S
C519 N515 1.345 . S
C519 C520 1.371 . S
C519 H522 0.931 . S
C520 C516 1.391 . S
C520 C519 1.371 . S
C520 H527 0.930 . S
H521 C518 0.928 . S
H522 C519 0.931 . S
H523 C499 0.930 . S
H524 C496 0.930 . S
H525 C505 0.930 . S
H526 C517 0.929 . S
H527 C520 0.930 . S
C528 C529 1.349 . S
C528 C530 1.327 1_545 S
C528 H553 0.950 . S
C529 C528 1.349 . S
C529 C545 1.349 . S
C530 C528 1.327 1_565 S
C530 C549 1.429 . S
C530 H554 0.950 . S
C531 C548 1.574 . S
C531 C550 1.368 . S
C531 H555 0.949 . S
H532 C536 0.949 . S
C533 C534 1.349 . S
C533 C535 1.327 . S
C533 H556 0.950 . S
C534 C533 1.349 . S
C534 C546 1.349 . S
C535 C533 1.327 . S
C535 C551 1.429 . S
C535 H557 0.950 . S
C536 H532 0.949 . S
C536 C544 1.574 . S
C536 C552 1.368 . S
H537 C545 0.950 . S
H538 C543 0.950 . S
H539 C544 0.949 . S
H540 C546 0.950 . S
H541 C547 0.950 . S
H542 C548 0.949 . S
C543 H538 0.950 . S
C543 C545 1.327 1_565 S
C543 C549 1.429 . S
C544 C536 1.574 . S
C544 H539 0.949 . S
C544 C550 1.368 . S
C545 C529 1.349 . S
C545 H537 0.950 . S
C545 C543 1.327 1_545 S
C546 C534 1.349 . S
C546 H540 0.950 . S
C546 C547 1.327 . S
C547 H541 0.950 . S
C547 C546 1.327 . S
C547 C551 1.429 . S
C548 C531 1.574 . S
C548 H542 0.949 . S
C548 C552 1.368 . S
C549 C530 1.429 . S
C549 C543 1.429 . S
C549 C550 1.523 . S
C550 C531 1.368 . S
C550 C544 1.368 . S
C550 C549 1.523 . S
C551 C535 1.429 . S
C551 C547 1.429 . S
C551 C552 1.523 . S
C552 C536 1.368 . S
C552 C548 1.368 . S
C552 C551 1.523 . S
H553 C528 0.950 . S
H554 C530 0.950 . S
H555 C531 0.949 . S
H556 C533 0.950 . S
H557 C535 0.950 . S
C558 C559 1.349 . S
C558 C560 1.327 . S
C558 H583 0.950 . S
C559 C558 1.349 . S
C559 C575 1.349 . S
C560 C558 1.327 . S
C560 C579 1.429 . S
C560 H584 0.950 . S
C561 C578 1.574 . S
C561 C580 1.368 . S
C561 H585 0.949 . S
H562 C566 0.949 . S
C563 C564 1.349 . S
C563 C565 1.327 . S
C563 H586 0.950 . S
C564 C563 1.349 . S
C564 C576 1.349 . S
C565 C563 1.327 . S
C565 C581 1.429 . S
C565 H587 0.950 . S
C566 H562 0.949 . S
C566 C574 1.574 . S
C566 C582 1.368 . S
H567 C575 0.950 . S
H568 C573 0.950 . S
H569 C574 0.949 . S
H570 C576 0.950 . S
H571 C577 0.950 . S
H572 C578 0.949 . S
C573 H568 0.950 . S
C573 C575 1.327 . S
C573 C579 1.429 . S
C574 C566 1.574 . S
C574 H569 0.949 . S
C574 C580 1.368 . S
C575 C559 1.349 . S
C575 H567 0.950 . S
C575 C573 1.327 . S
C576 C564 1.349 . S
C576 H570 0.950 . S
C576 C577 1.327 . S
C577 H571 0.950 . S
C577 C576 1.327 . S
C577 C581 1.429 . S
C578 C561 1.574 . S
C578 H572 0.949 . S
C578 C582 1.368 . S
C579 C560 1.429 . S
C579 C573 1.429 . S
C579 C580 1.523 . S
C580 C561 1.368 . S
C580 C574 1.368 . S
C580 C579 1.523 . S
C581 C565 1.429 . S
C581 C577 1.429 . S
C581 C582 1.523 . S
C582 C566 1.368 . S
C582 C578 1.368 . S
C582 C581 1.523 . S
H583 C558 0.950 . S
H584 C560 0.950 . S
H585 C561 0.949 . S
H586 C563 0.950 . S
H587 C565 0.950 . S
C588 C589 1.349 . S
C588 C590 1.327 1_565 S
C588 H613 0.950 . S
C589 C588 1.349 . S
C589 C605 1.349 . S
C590 C588 1.327 1_545 S
C590 C609 1.429 . S
C590 H614 0.950 . S
C591 C608 1.574 . S
C591 C610 1.368 . S
C591 H615 0.949 . S
H592 C596 0.949 . S
C593 C594 1.349 . S
C593 C595 1.327 . S
C593 H616 0.950 . S
C594 C593 1.349 . S
C594 C606 1.349 . S
C595 C593 1.327 . S
C595 C611 1.429 . S
C595 H617 0.950 . S
C596 H592 0.949 . S
C596 C604 1.574 . S
C596 C612 1.368 . S
H597 C605 0.950 . S
H598 C603 0.950 . S
H599 C604 0.949 . S
H600 C606 0.950 . S
H601 C607 0.950 . S
H602 C608 0.949 . S
C603 H598 0.950 . S
C603 C605 1.327 1_545 S
C603 C609 1.429 . S
C604 C596 1.574 . S
C604 H599 0.949 . S
C604 C610 1.368 . S
C605 C589 1.349 . S
C605 H597 0.950 . S
C605 C603 1.327 1_565 S
C606 C594 1.349 . S
C606 H600 0.950 . S
C606 C607 1.327 . S
C607 H601 0.950 . S
C607 C606 1.327 . S
C607 C611 1.429 . S
C608 C591 1.574 . S
C608 H602 0.949 . S
C608 C612 1.368 . S
C609 C590 1.429 . S
C609 C603 1.429 . S
C609 C610 1.523 . S
C610 C591 1.368 . S
C610 C604 1.368 . S
C610 C609 1.523 . S
C611 C595 1.429 . S
C611 C607 1.429 . S
C611 C612 1.523 . S
C612 C596 1.368 . S
C612 C608 1.368 . S
C612 C611 1.523 . S
H613 C588 0.950 . S
H614 C590 0.950 . S
H615 C591 0.949 . S
H616 C593 0.950 . S
H617 C595 0.950 . S
C618 C619 1.349 . S
C618 C620 1.327 . S
C618 H643 0.950 . S
C619 C618 1.349 . S
C619 C635 1.349 . S
C620 C618 1.327 . S
C620 C639 1.429 . S
C620 H644 0.950 . S
C621 C638 1.574 . S
C621 C640 1.368 . S
C621 H645 0.949 . S
H622 C626 0.949 . S
C623 C624 1.349 . S
C623 C625 1.327 . S
C623 H646 0.950 . S
C624 C623 1.349 . S
C624 C636 1.349 . S
C625 C623 1.327 . S
C625 C641 1.429 . S
C625 H647 0.950 . S
C626 H622 0.949 . S
C626 C634 1.574 . S
C626 C642 1.368 . S
H627 C635 0.950 . S
H628 C633 0.950 . S
H629 C634 0.949 . S
H630 C636 0.950 . S
H631 C637 0.950 . S
H632 C638 0.949 . S
C633 H628 0.950 . S
C633 C635 1.327 . S
C633 C639 1.429 . S
C634 C626 1.574 . S
C634 H629 0.949 . S
C634 C640 1.368 . S
C635 C619 1.349 . S
C635 H627 0.950 . S
C635 C633 1.327 . S
C636 C624 1.349 . S
C636 H630 0.950 . S
C636 C637 1.327 . S
C637 H631 0.950 . S
C637 C636 1.327 . S
C637 C641 1.429 . S
C638 C621 1.574 . S
C638 H632 0.949 . S
C638 C642 1.368 . S
C639 C620 1.429 . S
C639 C633 1.429 . S
C639 C640 1.523 . S
C640 C621 1.368 . S
C640 C634 1.368 . S
C640 C639 1.523 . S
C641 C625 1.429 . S
C641 C637 1.429 . S
C641 C642 1.523 . S
C642 C626 1.368 . S
C642 C638 1.368 . S
C642 C641 1.523 . S
H643 C618 0.950 . S
H644 C620 0.950 . S
H645 C621 0.949 . S
H646 C623 0.950 . S
H647 C625 0.950 . S
C648 C649 1.349 . S
C648 C650 1.327 1_565 S
C648 H673 0.950 . S
C649 C648 1.349 . S
C649 C665 1.349 . S
C650 C648 1.327 1_545 S
C650 C669 1.429 . S
C650 H674 0.950 . S
C651 C668 1.574 . S
C651 C670 1.368 . S
C651 H675 0.949 . S
H652 C656 0.949 . S
C653 C654 1.349 . S
C653 C655 1.327 . S
C653 H676 0.950 . S
C654 C653 1.349 . S
C654 C666 1.349 . S
C655 C653 1.327 . S
C655 C671 1.429 . S
C655 H677 0.950 . S
C656 H652 0.949 . S
C656 C664 1.574 . S
C656 C672 1.368 . S
H657 C665 0.950 . S
H658 C663 0.950 . S
H659 C664 0.949 . S
H660 C666 0.950 . S
H661 C667 0.950 . S
H662 C668 0.949 . S
C663 H658 0.950 . S
C663 C665 1.327 1_545 S
C663 C669 1.429 . S
C664 C656 1.574 . S
C664 H659 0.949 . S
C664 C670 1.368 . S
C665 C649 1.349 . S
C665 H657 0.950 . S
C665 C663 1.327 1_565 S
C666 C654 1.349 . S
C666 H660 0.950 . S
C666 C667 1.327 . S
C667 H661 0.950 . S
C667 C666 1.327 . S
C667 C671 1.429 . S
C668 C651 1.574 . S
C668 H662 0.949 . S
C668 C672 1.368 . S
C669 C650 1.429 . S
C669 C663 1.429 . S
C669 C670 1.523 . S
C670 C651 1.368 . S
C670 C664 1.368 . S
C670 C669 1.523 . S
C671 C655 1.429 . S
C671 C667 1.429 . S
C671 C672 1.523 . S
C672 C656 1.368 . S
C672 C668 1.368 . S
C672 C671 1.523 . S
H673 C648 0.950 . S
H674 C650 0.950 . S
H675 C651 0.949 . S
H676 C653 0.950 . S
H677 C655 0.950 . S
C678 C679 1.349 . S
C678 C680 1.327 . S
C678 H703 0.950 . S
C679 C678 1.349 . S
C679 C695 1.349 . S
C680 C678 1.327 . S
C680 C699 1.429 . S
C680 H704 0.950 . S
C681 C698 1.574 . S
C681 C700 1.368 . S
C681 H705 0.949 . S
H682 C686 0.949 . S
C683 C684 1.349 . S
C683 C685 1.327 . S
C683 H706 0.950 . S
C684 C683 1.349 . S
C684 C696 1.349 . S
C685 C683 1.327 . S
C685 C701 1.429 . S
C685 H707 0.950 . S
C686 H682 0.949 . S
C686 C694 1.574 . S
C686 C702 1.368 . S
H687 C695 0.950 . S
H688 C693 0.950 . S
H689 C694 0.949 . S
H690 C696 0.950 . S
H691 C697 0.950 . S
H692 C698 0.949 . S
C693 H688 0.950 . S
C693 C695 1.327 . S
C693 C699 1.429 . S
C694 C686 1.574 . S
C694 H689 0.949 . S
C694 C700 1.368 . S
C695 C679 1.349 . S
C695 H687 0.950 . S
C695 C693 1.327 . S
C696 C684 1.349 . S
C696 H690 0.950 . S
C696 C697 1.327 . S
C697 H691 0.950 . S
C697 C696 1.327 . S
C697 C701 1.429 . S
C698 C681 1.574 . S
C698 H692 0.949 . S
C698 C702 1.368 . S
C699 C680 1.429 . S
C699 C693 1.429 . S
C699 C700 1.523 . S
C700 C681 1.368 . S
C700 C694 1.368 . S
C700 C699 1.523 . S
C701 C685 1.429 . S
C701 C697 1.429 . S
C701 C702 1.523 . S
C702 C686 1.368 . S
C702 C698 1.368 . S
C702 C701 1.523 . S
H703 C678 0.950 . S
H704 C680 0.950 . S
H705 C681 0.949 . S
H706 C683 0.950 . S
H707 C685 0.950 . S
C708 C709 1.349 . S
C708 C710 1.327 1_545 S
C708 H733 0.950 . S
C709 C708 1.349 . S
C709 C725 1.349 . S
C710 C708 1.327 1_565 S
C710 C729 1.429 . S
C710 H734 0.950 . S
C711 C728 1.574 . S
C711 C730 1.368 . S
C711 H735 0.949 . S
H712 C716 0.949 . S
C713 C714 1.349 . S
C713 C715 1.327 . S
C713 H736 0.950 . S
C714 C713 1.349 . S
C714 C726 1.349 . S
C715 C713 1.327 . S
C715 C731 1.429 . S
C715 H737 0.950 . S
C716 H712 0.949 . S
C716 C724 1.574 . S
C716 C732 1.368 . S
H717 C725 0.950 . S
H718 C723 0.950 . S
H719 C724 0.949 . S
H720 C726 0.950 . S
H721 C727 0.950 . S
H722 C728 0.949 . S
C723 H718 0.950 . S
C723 C725 1.327 1_565 S
C723 C729 1.429 . S
C724 C716 1.574 . S
C724 H719 0.949 . S
C724 C730 1.368 . S
C725 C709 1.349 . S
C725 H717 0.950 . S
C725 C723 1.327 1_545 S
C726 C714 1.349 . S
C726 H720 0.950 . S
C726 C727 1.327 . S
C727 H721 0.950 . S
C727 C726 1.327 . S
C727 C731 1.429 . S
C728 C711 1.574 . S
C728 H722 0.949 . S
C728 C732 1.368 . S
C729 C710 1.429 . S
C729 C723 1.429 . S
C729 C730 1.523 . S
C730 C711 1.368 . S
C730 C724 1.368 . S
C730 C729 1.523 . S
C731 C715 1.429 . S
C731 C727 1.429 . S
C731 C732 1.523 . S
C732 C716 1.368 . S
C732 C728 1.368 . S
C732 C731 1.523 . S
H733 C708 0.950 . S
H734 C710 0.950 . S
H735 C711 0.949 . S
H736 C713 0.950 . S
H737 C715 0.950 . S
C738 C739 1.349 . S
C738 C740 1.327 . S
C738 H763 0.950 . S
C739 C738 1.349 . S
C739 C755 1.349 . S
C740 C738 1.327 . S
C740 C759 1.429 . S
C740 H764 0.950 . S
C741 C758 1.574 . S
C741 C760 1.368 . S
C741 H765 0.949 . S
H742 C746 0.949 . S
C743 C744 1.349 . S
C743 C745 1.327 . S
C743 H766 0.950 . S
C744 C743 1.349 . S
C744 C756 1.349 . S
C745 C743 1.327 . S
C745 C761 1.429 . S
C745 H767 0.950 . S
C746 H742 0.949 . S
C746 C754 1.574 . S
C746 C762 1.368 . S
H747 C755 0.950 . S
H748 C753 0.950 . S
H749 C754 0.949 . S
H750 C756 0.950 . S
H751 C757 0.950 . S
H752 C758 0.949 . S
C753 H748 0.950 . S
C753 C755 1.327 . S
C753 C759 1.429 . S
C754 C746 1.574 . S
C754 H749 0.949 . S
C754 C760 1.368 . S
C755 C739 1.349 . S
C755 H747 0.950 . S
C755 C753 1.327 . S
C756 C744 1.349 . S
C756 H750 0.950 . S
C756 C757 1.327 . S
C757 H751 0.950 . S
C757 C756 1.327 . S
C757 C761 1.429 . S
C758 C741 1.574 . S
C758 H752 0.949 . S
C758 C762 1.368 . S
C759 C740 1.429 . S
C759 C753 1.429 . S
C759 C760 1.523 . S
C760 C741 1.368 . S
C760 C754 1.368 . S
C760 C759 1.523 . S
C761 C745 1.429 . S
C761 C757 1.429 . S
C761 C762 1.523 . S
C762 C746 1.368 . S
C762 C758 1.368 . S
C762 C761 1.523 . S
H763 C738 0.950 . S
H764 C740 0.950 . S
H765 C741 0.949 . S
H766 C743 0.950 . S
H767 C745 0.950 . S
C768 C769 1.349 . S
C768 C770 1.327 . S
C768 H793 0.950 . S
C769 C768 1.349 . S
C769 C785 1.349 . S
C770 C768 1.327 . S
C770 C789 1.429 . S
C770 H794 0.950 . S
C771 C788 1.574 . S
C771 C790 1.368 . S
C771 H795 0.949 . S
H772 C776 0.949 . S
C773 C774 1.349 . S
C773 C775 1.327 . S
C773 H796 0.950 . S
C774 C773 1.349 . S
C774 C786 1.349 . S
C775 C773 1.327 . S
C775 C791 1.429 . S
C775 H797 0.950 . S
C776 H772 0.949 . S
C776 C784 1.574 . S
C776 C792 1.368 . S
H777 C785 0.950 . S
H778 C783 0.950 . S
H779 C784 0.949 . S
H780 C786 0.950 . S
H781 C787 0.950 . S
H782 C788 0.949 . S
C783 H778 0.950 . S
C783 C785 1.327 . S
C783 C789 1.429 . S
C784 C776 1.574 . S
C784 H779 0.949 . S
C784 C790 1.368 . S
C785 C769 1.349 . S
C785 H777 0.950 . S
C785 C783 1.327 . S
C786 C774 1.349 . S
C786 H780 0.950 . S
C786 C787 1.327 . S
C787 H781 0.950 . S
C787 C786 1.327 . S
C787 C791 1.429 . S
C788 C771 1.574 . S
C788 H782 0.949 . S
C788 C792 1.368 . S
C789 C770 1.429 . S
C789 C783 1.429 . S
C789 C790 1.523 . S
C790 C771 1.368 . S
C790 C784 1.368 . S
C790 C789 1.523 . S
C791 C775 1.429 . S
C791 C787 1.429 . S
C791 C792 1.523 . S
C792 C776 1.368 . S
C792 C788 1.368 . S
C792 C791 1.523 . S
H793 C768 0.950 . S
H794 C770 0.950 . S
H795 C771 0.949 . S
H796 C773 0.950 . S
H797 C775 0.950 . S
C798 C799 1.349 . S
C798 C800 1.327 . S
C798 H823 0.950 . S
C799 C798 1.349 . S
C799 C815 1.349 . S
C800 C798 1.327 . S
C800 C819 1.429 . S
C800 H824 0.950 . S
C801 C818 1.574 . S
C801 C820 1.368 . S
C801 H825 0.949 . S
H802 C806 0.949 . S
C803 C804 1.349 . S
C803 C805 1.327 1_565 S
C803 H826 0.950 . S
C804 C803 1.349 . S
C804 C816 1.349 . S
C805 C803 1.327 1_545 S
C805 C821 1.429 . S
C805 H827 0.950 . S
C806 H802 0.949 . S
C806 C814 1.574 . S
C806 C822 1.368 . S
H807 C815 0.950 . S
H808 C813 0.950 . S
H809 C814 0.949 . S
H810 C816 0.950 . S
H811 C817 0.950 . S
H812 C818 0.949 . S
C813 H808 0.950 . S
C813 C815 1.327 . S
C813 C819 1.429 . S
C814 C806 1.574 . S
C814 H809 0.949 . S
C814 C820 1.368 . S
C815 C799 1.349 . S
C815 H807 0.950 . S
C815 C813 1.327 . S
C816 C804 1.349 . S
C816 H810 0.950 . S
C816 C817 1.327 1_565 S
C817 H811 0.950 . S
C817 C816 1.327 1_545 S
C817 C821 1.429 . S
C818 C801 1.574 . S
C818 H812 0.949 . S
C818 C822 1.368 . S
C819 C800 1.429 . S
C819 C813 1.429 . S
C819 C820 1.523 . S
C820 C801 1.368 . S
C820 C814 1.368 . S
C820 C819 1.523 . S
C821 C805 1.429 . S
C821 C817 1.429 . S
C821 C822 1.523 . S
C822 C806 1.368 . S
C822 C818 1.368 . S
C822 C821 1.523 . S
H823 C798 0.950 . S
H824 C800 0.950 . S
H825 C801 0.949 . S
H826 C803 0.950 . S
H827 C805 0.950 . S
C828 C829 1.349 . S
C828 C830 1.327 . S
C828 H853 0.950 . S
C829 C828 1.349 . S
C829 C845 1.349 . S
C830 C828 1.327 . S
C830 C849 1.429 . S
C830 H854 0.950 . S
C831 C848 1.574 . S
C831 C850 1.368 . S
C831 H855 0.949 . S
H832 C836 0.949 . S
C833 C834 1.349 . S
C833 C835 1.327 . S
C833 H856 0.950 . S
C834 C833 1.349 . S
C834 C846 1.349 . S
C835 C833 1.327 . S
C835 C851 1.429 . S
C835 H857 0.950 . S
C836 H832 0.949 . S
C836 C844 1.574 . S
C836 C852 1.368 . S
H837 C845 0.950 . S
H838 C843 0.950 . S
H839 C844 0.949 . S
H840 C846 0.950 . S
H841 C847 0.950 . S
H842 C848 0.949 . S
C843 H838 0.950 . S
C843 C845 1.327 . S
C843 C849 1.429 . S
C844 C836 1.574 . S
C844 H839 0.949 . S
C844 C850 1.368 . S
C845 C829 1.349 . S
C845 H837 0.950 . S
C845 C843 1.327 . S
C846 C834 1.349 . S
C846 H840 0.950 . S
C846 C847 1.327 . S
C847 H841 0.950 . S
C847 C846 1.327 . S
C847 C851 1.429 . S
C848 C831 1.574 . S
C848 H842 0.949 . S
C848 C852 1.368 . S
C849 C830 1.429 . S
C849 C843 1.429 . S
C849 C850 1.523 . S
C850 C831 1.368 . S
C850 C844 1.368 . S
C850 C849 1.523 . S
C851 C835 1.429 . S
C851 C847 1.429 . S
C851 C852 1.523 . S
C852 C836 1.368 . S
C852 C848 1.368 . S
C852 C851 1.523 . S
H853 C828 0.950 . S
H854 C830 0.950 . S
H855 C831 0.949 . S
H856 C833 0.950 . S
H857 C835 0.950 . S
C858 C859 1.349 . S
C858 C860 1.318 1_545 S
C858 H883 0.950 . S
C859 C858 1.349 . S
C859 C875 1.349 . S
C860 C858 1.318 1_565 S
C860 C879 1.436 . S
C860 H884 0.951 . S
C861 C878 1.574 . S
C861 C880 1.368 . S
C861 H885 0.949 . S
H862 C866 0.949 . S
C863 C864 1.349 . S
C863 C865 1.327 . S
C863 H886 0.950 . S
C864 C863 1.349 . S
C864 C876 1.349 . S
C865 C863 1.327 . S
C865 C881 1.429 . S
C865 H887 0.950 . S
C866 H862 0.949 . S
C866 C874 1.574 . S
C866 C882 1.368 . S
H867 C875 0.950 . S
H868 C873 0.950 . S
H869 C874 0.949 . S
H870 C876 0.950 . S
H871 C877 0.950 . S
H872 C878 0.949 . S
C873 H868 0.950 . S
C873 C875 1.327 1_565 S
C873 C879 1.429 . S
C874 C866 1.574 . S
C874 H869 0.949 . S
C874 C880 1.368 . S
C875 C859 1.349 . S
C875 H867 0.950 . S
C875 C873 1.327 1_545 S
C876 C864 1.349 . S
C876 H870 0.950 . S
C876 C877 1.327 . S
C877 H871 0.950 . S
C877 C876 1.327 . S
C877 C881 1.429 . S
C878 C861 1.574 . S
C878 H872 0.949 . S
C878 C882 1.368 . S
C879 C860 1.436 . S
C879 C873 1.429 . S
C879 C880 1.523 . S
C880 C861 1.368 . S
C880 C874 1.368 . S
C880 C879 1.523 . S
C881 C865 1.429 . S
C881 C877 1.429 . S
C881 C882 1.523 . S
C882 C866 1.368 . S
C882 C878 1.368 . S
C882 C881 1.523 . S
H883 C858 0.950 . S
H884 C860 0.951 . S
H885 C861 0.949 . S
H886 C863 0.950 . S
H887 C865 0.950 . S
C888 C889 1.349 . S
C888 C890 1.327 . S
C888 H913 0.950 . S
C889 C888 1.349 . S
C889 C905 1.349 . S
C890 C888 1.327 . S
C890 C909 1.429 . S
C890 H914 0.950 . S
C891 C908 1.574 . S
C891 C910 1.368 . S
C891 H915 0.949 . S
H892 C896 0.949 . S
C893 C894 1.349 . S
C893 C895 1.327 . S
C893 H916 0.950 . S
C894 C893 1.349 . S
C894 C906 1.349 . S
C895 C893 1.327 . S
C895 C911 1.429 . S
C895 H917 0.950 . S
C896 H892 0.949 . S
C896 C904 1.574 . S
C896 C912 1.368 . S
H897 C905 0.950 . S
H898 C903 0.950 . S
H899 C904 0.949 . S
H900 C906 0.950 . S
H901 C907 0.950 . S
H902 C908 0.949 . S
C903 H898 0.950 . S
C903 C905 1.327 . S
C903 C909 1.429 . S
C904 C896 1.574 . S
C904 H899 0.949 . S
C904 C910 1.368 . S
C905 C889 1.349 . S
C905 H897 0.950 . S
C905 C903 1.327 . S
C906 C894 1.349 . S
C906 H900 0.950 . S
C906 C907 1.327 . S
C907 H901 0.950 . S
C907 C906 1.327 . S
C907 C911 1.429 . S
C908 C891 1.574 . S
C908 H902 0.949 . S
C908 C912 1.368 . S
C909 C890 1.429 . S
C909 C903 1.429 . S
C909 C910 1.523 . S
C910 C891 1.368 . S
C910 C904 1.368 . S
C910 C909 1.523 . S
C911 C895 1.429 . S
C911 C907 1.429 . S
C911 C912 1.523 . S
C912 C896 1.368 . S
C912 C908 1.368 . S
C912 C911 1.523 . S
H913 C888 0.950 . S
H914 C890 0.950 . S
H915 C891 0.949 . S
H916 C893 0.950 . S
H917 C895 0.950 . S
C918 C919 1.349 . S
C918 C920 1.327 1_545 S
C918 H943 0.950 . S
C919 C918 1.349 . S
C919 C935 1.349 . S
C920 C918 1.327 1_565 S
C920 C939 1.429 . S
C920 H944 0.950 . S
C921 C938 1.574 . S
C921 C940 1.368 . S
C921 H945 0.949 . S
H922 C926 0.949 . S
C923 C924 1.349 . S
C923 C925 1.327 . S
C923 H946 0.950 . S
C924 C923 1.349 . S
C924 C936 1.349 . S
C925 C923 1.327 . S
C925 C941 1.429 . S
C925 H947 0.950 . S
C926 H922 0.949 . S
C926 C934 1.574 . S
C926 C942 1.368 . S
H927 C935 0.950 . S
H928 C933 0.950 . S
H929 C934 0.949 . S
H930 C936 0.950 . S
H931 C937 0.950 . S
H932 C938 0.949 . S
C933 H928 0.950 . S
C933 C935 1.327 1_565 S
C933 C939 1.429 . S
C934 C926 1.574 . S
C934 H929 0.949 . S
C934 C940 1.368 . S
C935 C919 1.349 . S
C935 H927 0.950 . S
C935 C933 1.327 1_545 S
C936 C924 1.349 . S
C936 H930 0.950 . S
C936 C937 1.327 . S
C937 H931 0.950 . S
C937 C936 1.327 . S
C937 C941 1.429 . S
C938 C921 1.574 . S
C938 H932 0.949 . S
C938 C942 1.368 . S
C939 C920 1.429 . S
C939 C933 1.429 . S
C939 C940 1.523 . S
C940 C921 1.368 . S
C940 C934 1.368 . S
C940 C939 1.523 . S
C941 C925 1.429 . S
C941 C937 1.429 . S
C941 C942 1.523 . S
C942 C926 1.368 . S
C942 C938 1.368 . S
C942 C941 1.523 . S
H943 C918 0.950 . S
H944 C920 0.950 . S
H945 C921 0.949 . S
H946 C923 0.950 . S
H947 C925 0.950 . S
C948 C949 1.349 . S
C948 C950 1.327 . S
C948 H973 0.950 . S
C949 C948 1.349 . S
C949 C965 1.349 . S
C950 C948 1.327 . S
C950 C969 1.429 . S
C950 H974 0.950 . S
C951 C968 1.574 . S
C951 C970 1.368 . S
C951 H975 0.949 . S
H952 C956 0.949 . S
C953 C954 1.349 . S
C953 C955 1.327 . S
C953 H976 0.950 . S
C954 C953 1.349 . S
C954 C966 1.349 . S
C955 C953 1.327 . S
C955 C971 1.429 . S
C955 H977 0.950 . S
C956 H952 0.949 . S
C956 C964 1.574 . S
C956 C972 1.368 . S
H957 C965 0.950 . S
H958 C963 0.950 . S
H959 C964 0.949 . S
H960 C966 0.950 . S
H961 C967 0.950 . S
H962 C968 0.949 . S
C963 H958 0.950 . S
C963 C965 1.327 . S
C963 C969 1.429 . S
C964 C956 1.574 . S
C964 H959 0.949 . S
C964 C970 1.368 . S
C965 C949 1.349 . S
C965 H957 0.950 . S
C965 C963 1.327 . S
C966 C954 1.349 . S
C966 H960 0.950 . S
C966 C967 1.327 . S
C967 H961 0.950 . S
C967 C966 1.327 . S
C967 C971 1.429 . S
C968 C951 1.574 . S
C968 H962 0.949 . S
C968 C972 1.368 . S
C969 C950 1.429 . S
C969 C963 1.429 . S
C969 C970 1.523 . S
C970 C951 1.368 . S
C970 C964 1.368 . S
C970 C969 1.523 . S
C971 C955 1.429 . S
C971 C967 1.429 . S
C971 C972 1.523 . S
C972 C956 1.368 . S
C972 C968 1.368 . S
C972 C971 1.523 . S
H973 C948 0.950 . S
H974 C950 0.950 . S
H975 C951 0.949 . S
H976 C953 0.950 . S
H977 C955 0.950 . S
C978 C979 1.349 . S
C978 C980 1.327 . S
C978 H1003 0.950 . S
C979 C978 1.349 . S
C979 C995 1.349 . S
C980 C978 1.327 . S
C980 C999 1.429 . S
C980 H1004 0.950 . S
C981 C998 1.574 . S
C981 C1000 1.368 . S
C981 H1005 0.949 . S
H982 C986 0.949 . S
C983 C984 1.349 . S
C983 C985 1.327 1_565 S
C983 H1006 0.950 . S
C984 C983 1.349 . S
C984 C996 1.349 . S
C985 C983 1.327 1_545 S
C985 C1001 1.429 . S
C985 H1007 0.950 . S
C986 H982 0.949 . S
C986 C994 1.574 . S
C986 C1002 1.368 . S
H987 C995 0.950 . S
H988 C993 0.950 . S
H989 C994 0.949 . S
H990 C996 0.950 . S
H991 C997 0.950 . S
H992 C998 0.949 . S
C993 H988 0.950 . S
C993 C995 1.327 . S
C993 C999 1.429 . S
C994 C986 1.574 . S
C994 H989 0.949 . S
C994 C1000 1.368 . S
C995 C979 1.349 . S
C995 H987 0.950 . S
C995 C993 1.327 . S
C996 C984 1.349 . S
C996 H990 0.950 . S
C996 C997 1.327 1_565 S
C997 H991 0.950 . S
C997 C996 1.327 1_545 S
C997 C1001 1.429 . S
C998 C981 1.574 . S
C998 H992 0.949 . S
C998 C1002 1.368 . S
C999 C980 1.429 . S
C999 C993 1.429 . S
C999 C1000 1.523 . S
C1000 C981 1.368 . S
C1000 C994 1.368 . S
C1000 C999 1.523 . S
C1001 C985 1.429 . S
C1001 C997 1.429 . S
C1001 C1002 1.523 . S
C1002 C986 1.368 . S
C1002 C998 1.368 . S
C1002 C1001 1.523 . S
H1003 C978 0.950 . S
H1004 C980 0.950 . S
H1005 C981 0.949 . S
H1006 C983 0.950 . S
H1007 C985 0.950 . S
C1008 C1009 1.349 . S
C1008 C1010 1.327 . S
C1008 H1033 0.950 . S
C1009 C1008 1.349 . S
C1009 C1025 1.349 . S
C1010 C1008 1.327 . S
C1010 C1029 1.429 . S
C1010 H1034 0.950 . S
C1011 C1028 1.574 1_554 S
C1011 C1030 1.368 . S
C1011 H1035 0.949 . S
H1012 C1016 0.949 . S
C1013 C1014 1.349 . S
C1013 C1015 1.327 . S
C1013 H1036 0.950 . S
C1014 C1013 1.349 . S
C1014 C1026 1.349 . S
C1015 C1013 1.327 . S
C1015 C1031 1.429 . S
C1015 H1037 0.950 . S
C1016 H1012 0.949 . S
C1016 C1024 1.574 1_556 S
C1016 C1032 1.368 . S
H1017 C1025 0.950 . S
H1018 C1023 0.950 . S
H1019 C1024 0.949 . S
H1020 C1026 0.950 . S
H1021 C1027 0.950 . S
H1022 C1028 0.949 . S
C1023 H1018 0.950 . S
C1023 C1025 1.327 . S
C1023 C1029 1.429 . S
C1024 C1016 1.574 1_554 S
C1024 H1019 0.949 . S
C1024 C1030 1.368 . S
C1025 C1009 1.349 . S
C1025 H1017 0.950 . S
C1025 C1023 1.327 . S
C1026 C1014 1.349 . S
C1026 H1020 0.950 . S
C1026 C1027 1.327 . S
C1027 H1021 0.950 . S
C1027 C1026 1.327 . S
C1027 C1031 1.429 . S
C1028 C1011 1.574 1_556 S
C1028 H1022 0.949 . S
C1028 C1032 1.368 . S
C1029 C1010 1.429 . S
C1029 C1023 1.429 . S
C1029 C1030 1.523 . S
C1030 C1011 1.368 . S
C1030 C1024 1.368 . S
C1030 C1029 1.523 . S
C1031 C1015 1.429 . S
C1031 C1027 1.429 . S
C1031 C1032 1.523 . S
C1032 C1016 1.368 . S
C1032 C1028 1.368 . S
C1032 C1031 1.523 . S
H1033 C1008 0.950 . S
H1034 C1010 0.950 . S
H1035 C1011 0.949 . S
H1036 C1013 0.950 . S
H1037 C1015 0.950 . S
C1038 C1039 1.349 . S
C1038 C1040 1.327 . S
C1038 H1063 0.950 . S
C1039 C1038 1.349 . S
C1039 C1055 1.349 . S
C1040 C1038 1.327 . S
C1040 C1059 1.429 . S
C1040 H1064 0.950 . S
C1041 C1058 1.574 1_556 S
C1041 C1060 1.368 . S
C1041 H1065 0.949 . S
H1042 C1046 0.949 . S
C1043 C1044 1.349 . S
C1043 C1045 1.327 . S
C1043 H1066 0.950 . S
C1044 C1043 1.349 . S
C1044 C1056 1.349 . S
C1045 C1043 1.327 . S
C1045 C1061 1.429 . S
C1045 H1067 0.950 . S
C1046 H1042 0.949 . S
C1046 C1054 1.574 1_554 S
C1046 C1062 1.368 . S
H1047 C1055 0.950 . S
H1048 C1053 0.950 . S
H1049 C1054 0.949 . S
H1050 C1056 0.950 . S
H1051 C1057 0.950 . S
H1052 C1058 0.949 . S
C1053 H1048 0.950 . S
C1053 C1055 1.327 . S
C1053 C1059 1.429 . S
C1054 C1046 1.574 1_556 S
C1054 H1049 0.949 . S
C1054 C1060 1.368 . S
C1055 C1039 1.349 . S
C1055 H1047 0.950 . S
C1055 C1053 1.327 . S
C1056 C1044 1.349 . S
C1056 H1050 0.950 . S
C1056 C1057 1.327 . S
C1057 H1051 0.950 . S
C1057 C1056 1.327 . S
C1057 C1061 1.429 . S
C1058 C1041 1.574 1_554 S
C1058 H1052 0.949 . S
C1058 C1062 1.368 . S
C1059 C1040 1.429 . S
C1059 C1053 1.429 . S
C1059 C1060 1.523 . S
C1060 C1041 1.368 . S
C1060 C1054 1.368 . S
C1060 C1059 1.523 . S
C1061 C1045 1.429 . S
C1061 C1057 1.429 . S
C1061 C1062 1.523 . S
C1062 C1046 1.368 . S
C1062 C1058 1.368 . S
C1062 C1061 1.523 . S
H1063 C1038 0.950 . S
H1064 C1040 0.950 . S
H1065 C1041 0.949 . S
H1066 C1043 0.950 . S
H1067 C1045 0.950 . S
C1068 C1069 1.349 . S
C1068 C1070 1.327 . S
C1068 H1093 0.950 . S
C1069 C1068 1.349 . S
C1069 C1085 1.349 . S
C1070 C1068 1.327 . S
C1070 C1089 1.429 . S
C1070 H1094 0.950 . S
C1071 C1088 1.574 . S
C1071 C1090 1.368 . S
C1071 H1095 0.949 . S
H1072 C1076 0.949 . S
C1073 C1074 1.349 . S
C1073 C1075 1.327 . S
C1073 H1096 0.950 . S
C1074 C1073 1.349 . S
C1074 C1086 1.349 . S
C1075 C1073 1.327 . S
C1075 C1091 1.429 . S
C1075 H1097 0.950 . S
C1076 H1072 0.949 . S
C1076 C1084 1.574 . S
C1076 C1092 1.368 . S
H1077 C1085 0.950 . S
H1078 C1083 0.950 . S
H1079 C1084 0.949 . S
H1080 C1086 0.950 . S
H1081 C1087 0.950 . S
H1082 C1088 0.949 . S
C1083 H1078 0.950 . S
C1083 C1085 1.327 . S
C1083 C1089 1.429 . S
C1084 C1076 1.574 . S
C1084 H1079 0.949 . S
C1084 C1090 1.368 . S
C1085 C1069 1.349 . S
C1085 H1077 0.950 . S
C1085 C1083 1.327 . S
C1086 C1074 1.349 . S
C1086 H1080 0.950 . S
C1086 C1087 1.327 . S
C1087 H1081 0.950 . S
C1087 C1086 1.327 . S
C1087 C1091 1.429 . S
C1088 C1071 1.574 . S
C1088 H1082 0.949 . S
C1088 C1092 1.368 . S
C1089 C1070 1.429 . S
C1089 C1083 1.429 . S
C1089 C1090 1.523 . S
C1090 C1071 1.368 . S
C1090 C1084 1.368 . S
C1090 C1089 1.523 . S
C1091 C1075 1.429 . S
C1091 C1087 1.429 . S
C1091 C1092 1.523 . S
C1092 C1076 1.368 . S
C1092 C1088 1.368 . S
C1092 C1091 1.523 . S
H1093 C1068 0.950 . S
H1094 C1070 0.950 . S
H1095 C1071 0.949 . S
H1096 C1073 0.950 . S
H1097 C1075 0.950 . S
C1098 C1099 1.349 . S
C1098 C1100 1.327 . S
C1098 H1123 0.950 . S
C1099 C1098 1.349 . S
C1099 C1115 1.349 . S
C1100 C1098 1.327 . S
C1100 C1119 1.429 . S
C1100 H1124 0.950 . S
C1101 C1118 1.574 . S
C1101 C1120 1.368 . S
C1101 H1125 0.949 . S
H1102 C1106 0.949 . S
C1103 C1104 1.349 . S
C1103 C1105 1.327 . S
C1103 H1126 0.950 . S
C1104 C1103 1.349 . S
C1104 C1116 1.349 . S
C1105 C1103 1.327 . S
C1105 C1121 1.429 . S
C1105 H1127 0.950 . S
C1106 H1102 0.949 . S
C1106 C1114 1.574 . S
C1106 C1122 1.368 . S
H1107 C1115 0.950 . S
H1108 C1113 0.950 . S
H1109 C1114 0.949 . S
H1110 C1116 0.950 . S
H1111 C1117 0.950 . S
H1112 C1118 0.949 . S
C1113 H1108 0.950 . S
C1113 C1115 1.327 . S
C1113 C1119 1.429 . S
C1114 C1106 1.574 . S
C1114 H1109 0.949 . S
C1114 C1120 1.368 . S
C1115 C1099 1.349 . S
C1115 H1107 0.950 . S
C1115 C1113 1.327 . S
C1116 C1104 1.349 . S
C1116 H1110 0.950 . S
C1116 C1117 1.327 . S
C1117 H1111 0.950 . S
C1117 C1116 1.327 . S
C1117 C1121 1.429 . S
C1118 C1101 1.574 . S
C1118 H1112 0.949 . S
C1118 C1122 1.368 . S
C1119 C1100 1.429 . S
C1119 C1113 1.429 . S
C1119 C1120 1.523 . S
C1120 C1101 1.368 . S
C1120 C1114 1.368 . S
C1120 C1119 1.523 . S
C1121 C1105 1.429 . S
C1121 C1117 1.429 . S
C1121 C1122 1.523 . S
C1122 C1106 1.368 . S
C1122 C1118 1.368 . S
C1122 C1121 1.523 . S
H1123 C1098 0.950 . S
H1124 C1100 0.950 . S
H1125 C1101 0.949 . S
H1126 C1103 0.950 . S
H1127 C1105 0.950 . S
C1128 C1129 1.349 . S
C1128 C1130 1.327 . S
C1128 H1153 0.950 . S
C1129 C1128 1.349 . S
C1129 C1145 1.349 . S
C1130 C1128 1.327 . S
C1130 C1149 1.429 . S
C1130 H1154 0.950 . S
C1131 C1148 1.574 1_556 S
C1131 C1150 1.368 . S
C1131 H1155 0.949 . S
H1132 C1136 0.949 . S
C1133 C1134 1.349 . S
C1133 C1135 1.327 . S
C1133 H1156 0.950 . S
C1134 C1133 1.349 . S
C1134 C1146 1.349 . S
C1135 C1133 1.327 . S
C1135 C1151 1.429 . S
C1135 H1157 0.950 . S
C1136 H1132 0.949 . S
C1136 C1144 1.574 1_554 S
C1136 C1152 1.368 . S
H1137 C1145 0.950 . S
H1138 C1143 0.950 . S
H1139 C1144 0.949 . S
H1140 C1146 0.950 . S
H1141 C1147 0.950 . S
H1142 C1148 0.949 . S
C1143 H1138 0.950 . S
C1143 C1145 1.327 . S
C1143 C1149 1.429 . S
C1144 C1136 1.574 1_556 S
C1144 H1139 0.949 . S
C1144 C1150 1.368 . S
C1145 C1129 1.349 . S
C1145 H1137 0.950 . S
C1145 C1143 1.327 . S
C1146 C1134 1.349 . S
C1146 H1140 0.950 . S
C1146 C1147 1.327 . S
C1147 H1141 0.950 . S
C1147 C1146 1.327 . S
C1147 C1151 1.429 . S
C1148 C1131 1.574 1_554 S
C1148 H1142 0.949 . S
C1148 C1152 1.368 . S
C1149 C1130 1.429 . S
C1149 C1143 1.429 . S
C1149 C1150 1.523 . S
C1150 C1131 1.368 . S
C1150 C1144 1.368 . S
C1150 C1149 1.523 . S
C1151 C1135 1.429 . S
C1151 C1147 1.429 . S
C1151 C1152 1.523 . S
C1152 C1136 1.368 . S
C1152 C1148 1.368 . S
C1152 C1151 1.523 . S
H1153 C1128 0.950 . S
H1154 C1130 0.950 . S
H1155 C1131 0.949 . S
H1156 C1133 0.950 . S
H1157 C1135 0.950 . S
C1158 C1159 1.349 . S
C1158 C1160 1.327 . S
C1158 H1183 0.950 . S
C1159 C1158 1.349 . S
C1159 C1175 1.349 . S
C1160 C1158 1.327 . S
C1160 C1179 1.429 . S
C1160 H1184 0.950 . S
C1161 C1178 1.574 1_554 S
C1161 C1180 1.368 . S
C1161 H1185 0.949 . S
H1162 C1166 0.949 . S
C1163 C1164 1.349 . S
C1163 C1165 1.327 . S
C1163 H1186 0.950 . S
C1164 C1163 1.349 . S
C1164 C1176 1.349 . S
C1165 C1163 1.327 . S
C1165 C1181 1.429 . S
C1165 H1187 0.950 . S
C1166 H1162 0.949 . S
C1166 C1174 1.574 1_556 S
C1166 C1182 1.368 . S
H1167 C1175 0.950 . S
H1168 C1173 0.950 . S
H1169 C1174 0.949 . S
H1170 C1176 0.950 . S
H1171 C1177 0.950 . S
H1172 C1178 0.949 . S
C1173 H1168 0.950 . S
C1173 C1175 1.327 . S
C1173 C1179 1.429 . S
C1174 C1166 1.574 1_554 S
C1174 H1169 0.949 . S
C1174 C1180 1.368 . S
C1175 C1159 1.349 . S
C1175 H1167 0.950 . S
C1175 C1173 1.327 . S
C1176 C1164 1.349 . S
C1176 H1170 0.950 . S
C1176 C1177 1.327 . S
C1177 H1171 0.950 . S
C1177 C1176 1.327 . S
C1177 C1181 1.429 . S
C1178 C1161 1.574 1_556 S
C1178 H1172 0.949 . S
C1178 C1182 1.368 . S
C1179 C1160 1.429 . S
C1179 C1173 1.429 . S
C1179 C1180 1.523 . S
C1180 C1161 1.368 . S
C1180 C1174 1.368 . S
C1180 C1179 1.523 . S
C1181 C1165 1.429 . S
C1181 C1177 1.429 . S
C1181 C1182 1.523 . S
C1182 C1166 1.368 . S
C1182 C1178 1.368 . S
C1182 C1181 1.523 . S
H1183 C1158 0.950 . S
H1184 C1160 0.950 . S
H1185 C1161 0.949 . S
H1186 C1163 0.950 . S
H1187 C1165 0.950 . S
C1188 C1189 1.349 . S
C1188 C1190 1.327 . S
C1188 H1213 0.950 . S
C1189 C1188 1.349 . S
C1189 C1205 1.349 . S
C1190 C1188 1.327 . S
C1190 C1209 1.429 . S
C1190 H1214 0.950 . S
C1191 C1208 1.574 . S
C1191 C1210 1.368 . S
C1191 H1215 0.949 . S
H1192 C1196 0.949 . S
C1193 C1194 1.349 . S
C1193 C1195 1.327 . S
C1193 H1216 0.950 . S
C1194 C1193 1.349 . S
C1194 C1206 1.349 . S
C1195 C1193 1.327 . S
C1195 C1211 1.429 . S
C1195 H1217 0.950 . S
C1196 H1192 0.949 . S
C1196 C1204 1.574 . S
C1196 C1212 1.368 . S
H1197 C1205 0.950 . S
H1198 C1203 0.950 . S
H1199 C1204 0.949 . S
H1200 C1206 0.950 . S
H1201 C1207 0.950 . S
H1202 C1208 0.949 . S
C1203 H1198 0.950 . S
C1203 C1205 1.327 . S
C1203 C1209 1.429 . S
C1204 C1196 1.574 . S
C1204 H1199 0.949 . S
C1204 C1210 1.368 . S
C1205 C1189 1.349 . S
C1205 H1197 0.950 . S
C1205 C1203 1.327 . S
C1206 C1194 1.349 . S
C1206 H1200 0.950 . S
C1206 C1207 1.327 . S
C1207 H1201 0.950 . S
C1207 C1206 1.327 . S
C1207 C1211 1.429 . S
C1208 C1191 1.574 . S
C1208 H1202 0.949 . S
C1208 C1212 1.368 . S
C1209 C1190 1.429 . S
C1209 C1203 1.429 . S
C1209 C1210 1.523 . S
C1210 C1191 1.368 . S
C1210 C1204 1.368 . S
C1210 C1209 1.523 . S
C1211 C1195 1.429 . S
C1211 C1207 1.429 . S
C1211 C1212 1.523 . S
C1212 C1196 1.368 . S
C1212 C1208 1.368 . S
C1212 C1211 1.523 . S
H1213 C1188 0.950 . S
H1214 C1190 0.950 . S
H1215 C1191 0.949 . S
H1216 C1193 0.950 . S
H1217 C1195 0.950 . S
C1218 C1219 1.349 . S
C1218 C1220 1.327 . S
C1218 H1243 0.950 . S
C1219 C1218 1.349 . S
C1219 C1235 1.349 . S
C1220 C1218 1.327 . S
C1220 C1239 1.429 . S
C1220 H1244 0.950 . S
C1221 C1238 1.574 . S
C1221 C1240 1.368 . S
C1221 H1245 0.949 . S
H1222 C1226 0.949 . S
C1223 C1224 1.349 . S
C1223 C1225 1.327 . S
C1223 H1246 0.950 . S
C1224 C1223 1.349 . S
C1224 C1236 1.349 . S
C1225 C1223 1.327 . S
C1225 C1241 1.429 . S
C1225 H1247 0.950 . S
C1226 H1222 0.949 . S
C1226 C1234 1.574 . S
C1226 C1242 1.368 . S
H1227 C1235 0.950 . S
H1228 C1233 0.950 . S
H1229 C1234 0.949 . S
H1230 C1236 0.950 . S
H1231 C1237 0.950 . S
H1232 C1238 0.949 . S
C1233 H1228 0.950 . S
C1233 C1235 1.327 . S
C1233 C1239 1.429 . S
C1234 C1226 1.574 . S
C1234 H1229 0.949 . S
C1234 C1240 1.368 . S
C1235 C1219 1.349 . S
C1235 H1227 0.950 . S
C1235 C1233 1.327 . S
C1236 C1224 1.349 . S
C1236 H1230 0.950 . S
C1236 C1237 1.327 . S
C1237 H1231 0.950 . S
C1237 C1236 1.327 . S
C1237 C1241 1.429 . S
C1238 C1221 1.574 . S
C1238 H1232 0.949 . S
C1238 C1242 1.368 . S
C1239 C1220 1.429 . S
C1239 C1233 1.429 . S
C1239 C1240 1.523 . S
C1240 C1221 1.368 . S
C1240 C1234 1.368 . S
C1240 C1239 1.523 . S
C1241 C1225 1.429 . S
C1241 C1237 1.429 . S
C1241 C1242 1.523 . S
C1242 C1226 1.368 . S
C1242 C1238 1.368 . S
C1242 C1241 1.523 . S
H1243 C1218 0.950 . S
H1244 C1220 0.950 . S
H1245 C1221 0.949 . S
H1246 C1223 0.950 . S
H1247 C1225 0.950 . S
C1248 C1249 1.349 . S
C1248 C1250 1.327 . S
C1248 H1273 0.950 . S
C1249 C1248 1.349 . S
C1249 C1265 1.349 . S
C1250 C1248 1.327 . S
C1250 C1269 1.429 . S
C1250 H1274 0.950 . S
C1251 C1268 1.574 . S
C1251 C1270 1.368 . S
C1251 H1275 0.949 . S
H1252 C1256 0.949 . S
C1253 C1254 1.349 . S
C1253 C1255 1.327 . S
C1253 H1276 0.950 . S
C1254 C1253 1.349 . S
C1254 C1266 1.349 . S
C1255 C1253 1.327 . S
C1255 C1271 1.429 . S
C1255 H1277 0.950 . S
C1256 H1252 0.949 . S
C1256 C1264 1.574 . S
C1256 C1272 1.368 . S
H1257 C1265 0.950 . S
H1258 C1263 0.950 . S
H1259 C1264 0.949 . S
H1260 C1266 0.950 . S
H1261 C1267 0.950 . S
H1262 C1268 0.949 . S
C1263 H1258 0.950 . S
C1263 C1265 1.327 . S
C1263 C1269 1.429 . S
C1264 C1256 1.574 . S
C1264 H1259 0.949 . S
C1264 C1270 1.368 1_565 S
C1265 C1249 1.349 . S
C1265 H1257 0.950 . S
C1265 C1263 1.327 . S
C1266 C1254 1.349 . S
C1266 H1260 0.950 . S
C1266 C1267 1.327 . S
C1267 H1261 0.950 . S
C1267 C1266 1.327 . S
C1267 C1271 1.429 . S
C1268 C1251 1.574 . S
C1268 H1262 0.949 . S
C1268 C1272 1.368 1_545 S
C1269 C1250 1.429 . S
C1269 C1263 1.429 . S
C1269 C1270 1.523 . S
C1270 C1251 1.368 . S
C1270 C1264 1.368 1_545 S
C1270 C1269 1.523 . S
C1271 C1255 1.429 . S
C1271 C1267 1.429 . S
C1271 C1272 1.523 . S
C1272 C1256 1.368 . S
C1272 C1268 1.368 1_565 S
C1272 C1271 1.523 . S
H1273 C1248 0.950 . S
H1274 C1250 0.950 . S
H1275 C1251 0.949 . S
H1276 C1253 0.950 . S
H1277 C1255 0.950 . S
C1278 C1279 1.349 . S
C1278 C1280 1.327 . S
C1278 H1303 0.950 . S
C1279 C1278 1.349 . S
C1279 C1295 1.349 . S
C1280 C1278 1.327 . S
C1280 C1299 1.429 . S
C1280 H1304 0.950 . S
C1281 C1298 1.574 . S
C1281 C1300 1.368 . S
C1281 H1305 0.949 . S
H1282 C1286 0.949 . S
C1283 C1284 1.349 . S
C1283 C1285 1.327 . S
C1283 H1306 0.950 . S
C1284 C1283 1.349 . S
C1284 C1296 1.349 . S
C1285 C1283 1.327 . S
C1285 C1301 1.429 . S
C1285 H1307 0.950 . S
C1286 H1282 0.949 . S
C1286 C1294 1.574 . S
C1286 C1302 1.368 . S
H1287 C1295 0.950 . S
H1288 C1293 0.950 . S
H1289 C1294 0.949 . S
H1290 C1296 0.950 . S
H1291 C1297 0.950 . S
H1292 C1298 0.949 . S
C1293 H1288 0.950 . S
C1293 C1295 1.327 . S
C1293 C1299 1.429 . S
C1294 C1286 1.574 . S
C1294 H1289 0.949 . S
C1294 C1300 1.368 . S
C1295 C1279 1.349 . S
C1295 H1287 0.950 . S
C1295 C1293 1.327 . S
C1296 C1284 1.349 . S
C1296 H1290 0.950 . S
C1296 C1297 1.327 . S
C1297 H1291 0.950 . S
C1297 C1296 1.327 . S
C1297 C1301 1.429 . S
C1298 C1281 1.574 . S
C1298 H1292 0.949 . S
C1298 C1302 1.368 . S
C1299 C1280 1.429 . S
C1299 C1293 1.429 . S
C1299 C1300 1.523 . S
C1300 C1281 1.368 . S
C1300 C1294 1.368 . S
C1300 C1299 1.523 . S
C1301 C1285 1.429 . S
C1301 C1297 1.429 . S
C1301 C1302 1.523 . S
C1302 C1286 1.368 . S
C1302 C1298 1.368 . S
C1302 C1301 1.523 . S
H1303 C1278 0.950 . S
H1304 C1280 0.950 . S
H1305 C1281 0.949 . S
H1306 C1283 0.950 . S
H1307 C1285 0.950 . S
C1308 C1309 1.349 . S
C1308 C1310 1.327 . S
C1308 H1333 0.950 . S
C1309 C1308 1.349 . S
C1309 C1325 1.349 . S
C1310 C1308 1.327 . S
C1310 C1329 1.429 . S
C1310 H1334 0.950 . S
C1311 C1328 1.585 . S
C1311 C1330 1.358 1_545 S
C1311 H1335 0.949 . S
H1312 C1316 0.949 . S
C1313 C1314 1.349 . S
C1313 C1315 1.327 . S
C1313 H1336 0.950 . S
C1314 C1313 1.349 . S
C1314 C1326 1.349 . S
C1315 C1313 1.327 . S
C1315 C1331 1.429 . S
C1315 H1337 0.950 . S
C1316 H1312 0.949 . S
C1316 C1324 1.585 . S
C1316 C1332 1.358 1_565 S
H1317 C1325 0.950 . S
H1318 C1323 0.950 . S
H1319 C1324 0.949 . S
H1320 C1326 0.950 . S
H1321 C1327 0.950 . S
H1322 C1328 0.949 . S
C1323 H1318 0.950 . S
C1323 C1325 1.327 . S
C1323 C1329 1.429 . S
C1324 C1316 1.585 . S
C1324 H1319 0.949 . S
C1324 C1330 1.368 . S
C1325 C1309 1.349 . S
C1325 H1317 0.950 . S
C1325 C1323 1.327 . S
C1326 C1314 1.349 . S
C1326 H1320 0.950 . S
C1326 C1327 1.327 . S
C1327 H1321 0.950 . S
C1327 C1326 1.327 . S
C1327 C1331 1.429 . S
C1328 C1311 1.585 . S
C1328 H1322 0.949 . S
C1328 C1332 1.368 . S
C1329 C1310 1.429 . S
C1329 C1323 1.429 . S
C1329 C1330 1.523 . S
C1330 C1311 1.358 1_565 S
C1330 C1324 1.368 . S
C1330 C1329 1.523 . S
C1331 C1315 1.429 . S
C1331 C1327 1.429 . S
C1331 C1332 1.523 . S
C1332 C1316 1.358 1_545 S
C1332 C1328 1.368 . S
C1332 C1331 1.523 . S
H1333 C1308 0.950 . S
H1334 C1310 0.950 . S
H1335 C1311 0.949 . S
H1336 C1313 0.950 . S
H1337 C1315 0.950 . S
C1338 C1339 1.349 . S
C1338 C1340 1.327 . S
C1338 H1363 0.950 . S
C1339 C1338 1.349 . S
C1339 C1355 1.349 . S
C1340 C1338 1.327 . S
C1340 C1359 1.429 . S
C1340 H1364 0.950 . S
C1341 C1358 1.574 . S
C1341 C1360 1.368 . S
C1341 H1365 0.949 . S
H1342 C1346 0.949 . S
C1343 C1344 1.349 . S
C1343 C1345 1.327 . S
C1343 H1366 0.950 . S
C1344 C1343 1.349 . S
C1344 C1356 1.349 . S
C1345 C1343 1.327 . S
C1345 C1361 1.429 . S
C1345 H1367 0.950 . S
C1346 H1342 0.949 . S
C1346 C1354 1.574 . S
C1346 C1362 1.368 . S
H1347 C1355 0.950 . S
H1348 C1353 0.950 . S
H1349 C1354 0.949 . S
H1350 C1356 0.950 . S
H1351 C1357 0.950 . S
H1352 C1358 0.949 . S
C1353 H1348 0.950 . S
C1353 C1355 1.327 . S
C1353 C1359 1.429 . S
C1354 C1346 1.574 . S
C1354 H1349 0.949 . S
C1354 C1360 1.368 . S
C1355 C1339 1.349 . S
C1355 H1347 0.950 . S
C1355 C1353 1.327 . S
C1356 C1344 1.349 . S
C1356 H1350 0.950 . S
C1356 C1357 1.327 . S
C1357 H1351 0.950 . S
C1357 C1356 1.327 . S
C1357 C1361 1.429 . S
C1358 C1341 1.574 . S
C1358 H1352 0.949 . S
C1358 C1362 1.368 . S
C1359 C1340 1.429 . S
C1359 C1353 1.429 . S
C1359 C1360 1.523 . S
C1360 C1341 1.368 . S
C1360 C1354 1.368 . S
C1360 C1359 1.523 . S
C1361 C1345 1.429 . S
C1361 C1357 1.429 . S
C1361 C1362 1.523 . S
C1362 C1346 1.368 . S
C1362 C1358 1.368 . S
C1362 C1361 1.523 . S
H1363 C1338 0.950 . S
H1364 C1340 0.950 . S
H1365 C1341 0.949 . S
H1366 C1343 0.950 . S
H1367 C1345 0.950 . S
C1368 C1369 1.349 . S
C1368 C1370 1.327 . S
C1368 H1393 0.950 . S
C1369 C1368 1.349 . S
C1369 C1385 1.349 . S
C1370 C1368 1.327 . S
C1370 C1389 1.429 . S
C1370 H1394 0.950 . S
C1371 C1388 1.574 . S
C1371 C1390 1.368 . S
C1371 H1395 0.949 . S
H1372 C1376 0.949 . S
C1373 C1374 1.349 . S
C1373 C1375 1.327 . S
C1373 H1396 0.950 . S
C1374 C1373 1.349 . S
C1374 C1386 1.349 . S
C1375 C1373 1.327 . S
C1375 C1391 1.429 . S
C1375 H1397 0.950 . S
C1376 H1372 0.949 . S
C1376 C1384 1.574 . S
C1376 C1392 1.368 . S
H1377 C1385 0.950 . S
H1378 C1383 0.950 . S
H1379 C1384 0.949 . S
H1380 C1386 0.950 . S
H1381 C1387 0.950 . S
H1382 C1388 0.949 . S
C1383 H1378 0.950 . S
C1383 C1385 1.327 . S
C1383 C1389 1.429 . S
C1384 C1376 1.574 . S
C1384 H1379 0.949 . S
C1384 C1390 1.368 . S
C1385 C1369 1.349 . S
C1385 H1377 0.950 . S
C1385 C1383 1.327 . S
C1386 C1374 1.349 . S
C1386 H1380 0.950 . S
C1386 C1387 1.327 . S
C1387 H1381 0.950 . S
C1387 C1386 1.327 . S
C1387 C1391 1.429 . S
C1388 C1371 1.574 . S
C1388 H1382 0.949 . S
C1388 C1392 1.368 . S
C1389 C1370 1.429 . S
C1389 C1383 1.429 . S
C1389 C1390 1.523 . S
C1390 C1371 1.368 . S
C1390 C1384 1.368 . S
C1390 C1389 1.523 . S
C1391 C1375 1.429 . S
C1391 C1387 1.429 . S
C1391 C1392 1.523 . S
C1392 C1376 1.368 . S
C1392 C1388 1.368 . S
C1392 C1391 1.523 . S
H1393 C1368 0.950 . S
H1394 C1370 0.950 . S
H1395 C1371 0.949 . S
H1396 C1373 0.950 . S
H1397 C1375 0.950 . S
C1398 C1399 1.349 . S
C1398 C1400 1.327 . S
C1398 H1423 0.950 . S
C1399 C1398 1.349 . S
C1399 C1415 1.349 . S
C1400 C1398 1.327 . S
C1400 C1419 1.429 . S
C1400 H1424 0.950 . S
C1401 C1418 1.574 . S
C1401 C1420 1.368 1_565 S
C1401 H1425 0.949 . S
H1402 C1406 0.949 . S
C1403 C1404 1.349 . S
C1403 C1405 1.327 . S
C1403 H1426 0.950 . S
C1404 C1403 1.349 . S
C1404 C1416 1.349 . S
C1405 C1403 1.327 . S
C1405 C1421 1.429 . S
C1405 H1427 0.950 . S
C1406 H1402 0.949 . S
C1406 C1414 1.574 . S
C1406 C1422 1.368 1_545 S
H1407 C1415 0.950 . S
H1408 C1413 0.949 . S
H1409 C1414 0.949 . S
H1410 C1416 0.950 . S
H1411 C1417 0.949 . S
H1412 C1418 0.949 . S
C1413 H1408 0.949 . S
C1413 C1415 1.327 . S
C1413 C1419 1.429 . S
C1414 C1406 1.574 . S
C1414 H1409 0.949 . S
C1414 C1420 1.368 . S
C1415 C1399 1.349 . S
C1415 H1407 0.950 . S
C1415 C1413 1.327 . S
C1416 C1404 1.349 . S
C1416 H1410 0.950 . S
C1416 C1417 1.327 . S
C1417 H1411 0.949 . S
C1417 C1416 1.327 . S
C1417 C1421 1.429 . S
C1418 C1401 1.574 . S
C1418 H1412 0.949 . S
C1418 C1422 1.368 . S
C1419 C1400 1.429 . S
C1419 C1413 1.429 . S
C1419 C1420 1.523 . S
C1420 C1401 1.368 1_545 S
C1420 C1414 1.368 . S
C1420 C1419 1.523 . S
C1421 C1405 1.429 . S
C1421 C1417 1.429 . S
C1421 C1422 1.523 . S
C1422 C1406 1.368 1_565 S
C1422 C1418 1.368 . S
C1422 C1421 1.523 . S
H1423 C1398 0.950 . S
H1424 C1400 0.950 . S
H1425 C1401 0.949 . S
H1426 C1403 0.950 . S
H1427 C1405 0.950 . S
C1428 C1429 1.349 . S
C1428 C1430 1.327 . S
C1428 H1453 0.950 . S
C1429 C1428 1.349 . S
C1429 C1445 1.349 . S
C1430 C1428 1.327 . S
C1430 C1449 1.429 . S
C1430 H1454 0.950 . S
C1431 C1448 1.574 . S
C1431 C1450 1.368 . S
C1431 H1455 0.949 . S
H1432 C1436 0.949 . S
C1433 C1434 1.349 . S
C1433 C1435 1.327 . S
C1433 H1456 0.950 . S
C1434 C1433 1.349 . S
C1434 C1446 1.349 . S
C1435 C1433 1.327 . S
C1435 C1451 1.429 . S
C1435 H1457 0.950 . S
C1436 H1432 0.949 . S
C1436 C1444 1.574 . S
C1436 C1452 1.368 . S
H1437 C1445 0.950 . S
H1438 C1443 0.950 . S
H1439 C1444 0.949 . S
H1440 C1446 0.950 . S
H1441 C1447 0.950 . S
H1442 C1448 0.949 . S
C1443 H1438 0.950 . S
C1443 C1445 1.327 . S
C1443 C1449 1.429 . S
C1444 C1436 1.574 . S
C1444 H1439 0.949 . S
C1444 C1450 1.368 . S
C1445 C1429 1.349 . S
C1445 H1437 0.950 . S
C1445 C1443 1.327 . S
C1446 C1434 1.349 . S
C1446 H1440 0.950 . S
C1446 C1447 1.327 . S
C1447 H1441 0.950 . S
C1447 C1446 1.327 . S
C1447 C1451 1.429 . S
C1448 C1431 1.574 . S
C1448 H1442 0.949 . S
C1448 C1452 1.368 . S
C1449 C1430 1.429 . S
C1449 C1443 1.429 . S
C1449 C1450 1.523 . S
C1450 C1431 1.368 . S
C1450 C1444 1.368 . S
C1450 C1449 1.523 . S
C1451 C1435 1.429 . S
C1451 C1447 1.429 . S
C1451 C1452 1.523 . S
C1452 C1436 1.368 . S
C1452 C1448 1.368 . S
C1452 C1451 1.523 . S
H1453 C1428 0.950 . S
H1454 C1430 0.950 . S
H1455 C1431 0.949 . S
H1456 C1433 0.950 . S
H1457 C1435 0.950 . S
C1458 C1459 1.349 . S
C1458 C1460 1.327 . S
C1458 H1483 0.950 . S
C1459 C1458 1.349 . S
C1459 C1475 1.349 . S
C1460 C1458 1.327 . S
C1460 C1479 1.429 . S
C1460 H1484 0.950 . S
C1461 C1478 1.574 . S
C1461 C1480 1.368 . S
C1461 H1485 0.949 . S
H1462 C1466 0.949 . S
C1463 C1464 1.349 . S
C1463 C1465 1.327 . S
C1463 H1486 0.950 . S
C1464 C1463 1.349 . S
C1464 C1476 1.349 . S
C1465 C1463 1.327 . S
C1465 C1481 1.429 . S
C1465 H1487 0.950 . S
C1466 H1462 0.949 . S
C1466 C1474 1.574 . S
C1466 C1482 1.368 . S
H1467 C1475 0.950 . S
H1468 C1473 0.950 . S
H1469 C1474 0.949 . S
H1470 C1476 0.950 . S
H1471 C1477 0.950 . S
H1472 C1478 0.949 . S
C1473 H1468 0.950 . S
C1473 C1475 1.327 . S
C1473 C1479 1.429 . S
C1474 C1466 1.574 . S
C1474 H1469 0.949 . S
C1474 C1480 1.368 1_565 S
C1475 C1459 1.349 . S
C1475 H1467 0.950 . S
C1475 C1473 1.327 . S
C1476 C1464 1.349 . S
C1476 H1470 0.950 . S
C1476 C1477 1.327 . S
C1477 H1471 0.950 . S
C1477 C1476 1.327 . S
C1477 C1481 1.429 . S
C1478 C1461 1.574 . S
C1478 H1472 0.949 . S
C1478 C1482 1.368 1_545 S
C1479 C1460 1.429 . S
C1479 C1473 1.429 . S
C1479 C1480 1.523 . S
C1480 C1461 1.368 . S
C1480 C1474 1.368 1_545 S
C1480 C1479 1.523 . S
C1481 C1465 1.429 . S
C1481 C1477 1.429 . S
C1481 C1482 1.523 . S
C1482 C1466 1.368 . S
C1482 C1478 1.368 1_565 S
C1482 C1481 1.523 . S
H1483 C1458 0.950 . S
H1484 C1460 0.950 . S
H1485 C1461 0.949 . S
H1486 C1463 0.950 . S
H1487 C1465 0.950 . S
C1488 C1489 1.349 . S
C1488 C1490 1.327 . S
C1488 H1513 0.950 . S
C1489 C1488 1.349 . S
C1489 C1505 1.349 . S
C1490 C1488 1.327 . S
C1490 C1509 1.429 . S
C1490 H1514 0.950 . S
C1491 C1508 1.574 . S
C1491 C1510 1.368 . S
C1491 H1515 0.949 . S
H1492 C1496 0.949 . S
C1493 C1494 1.349 . S
C1493 C1495 1.327 . S
C1493 H1516 0.950 . S
C1494 C1493 1.349 . S
C1494 C1506 1.349 . S
C1495 C1493 1.327 . S
C1495 C1511 1.429 . S
C1495 H1517 0.950 . S
C1496 H1492 0.949 . S
C1496 C1504 1.574 . S
C1496 C1512 1.368 . S
H1497 C1505 0.950 . S
H1498 C1503 0.950 . S
H1499 C1504 0.949 . S
H1500 C1506 0.950 . S
H1501 C1507 0.950 . S
H1502 C1508 0.949 . S
C1503 H1498 0.950 . S
C1503 C1505 1.327 . S
C1503 C1509 1.429 . S
C1504 C1496 1.574 . S
C1504 H1499 0.949 . S
C1504 C1510 1.368 . S
C1505 C1489 1.349 . S
C1505 H1497 0.950 . S
C1505 C1503 1.327 . S
C1506 C1494 1.349 . S
C1506 H1500 0.950 . S
C1506 C1507 1.327 . S
C1507 H1501 0.950 . S
C1507 C1506 1.327 . S
C1507 C1511 1.429 . S
C1508 C1491 1.574 . S
C1508 H1502 0.949 . S
C1508 C1512 1.368 . S
C1509 C1490 1.429 . S
C1509 C1503 1.429 . S
C1509 C1510 1.523 . S
C1510 C1491 1.368 . S
C1510 C1504 1.368 . S
C1510 C1509 1.523 . S
C1511 C1495 1.429 . S
C1511 C1507 1.429 . S
C1511 C1512 1.523 . S
C1512 C1496 1.368 . S
C1512 C1508 1.368 . S
C1512 C1511 1.523 . S
H1513 C1488 0.950 . S
H1514 C1490 0.950 . S
H1515 C1491 0.949 . S
H1516 C1493 0.950 . S
H1517 C1495 0.950 . S
C1518 C1519 1.349 . S
C1518 C1520 1.327 . S
C1518 H1543 0.950 . S
C1519 C1518 1.349 . S
C1519 C1535 1.349 . S
C1520 C1518 1.327 . S
C1520 C1539 1.429 . S
C1520 H1544 0.950 . S
C1521 C1538 1.574 . S
C1521 C1540 1.368 . S
C1521 H1545 0.949 . S
H1522 C1526 0.949 . S
C1523 C1524 1.349 . S
C1523 C1525 1.327 . S
C1523 H1546 0.950 . S
C1524 C1523 1.349 . S
C1524 C1536 1.349 . S
C1525 C1523 1.327 . S
C1525 C1541 1.429 . S
C1525 H1547 0.950 . S
C1526 H1522 0.949 . S
C1526 C1534 1.574 . S
C1526 C1542 1.368 . S
H1527 C1535 0.950 . S
H1528 C1533 0.950 . S
H1529 C1534 0.949 . S
H1530 C1536 0.950 . S
H1531 C1537 0.950 . S
H1532 C1538 0.949 . S
C1533 H1528 0.950 . S
C1533 C1535 1.327 . S
C1533 C1539 1.429 . S
C1534 C1526 1.574 . S
C1534 H1529 0.949 . S
C1534 C1540 1.368 . S
C1535 C1519 1.349 . S
C1535 H1527 0.950 . S
C1535 C1533 1.327 . S
C1536 C1524 1.349 . S
C1536 H1530 0.950 . S
C1536 C1537 1.327 . S
C1537 H1531 0.950 . S
C1537 C1536 1.327 . S
C1537 C1541 1.429 . S
C1538 C1521 1.574 . S
C1538 H1532 0.949 . S
C1538 C1542 1.368 . S
C1539 C1520 1.429 . S
C1539 C1533 1.429 . S
C1539 C1540 1.523 . S
C1540 C1521 1.368 . S
C1540 C1534 1.368 . S
C1540 C1539 1.523 . S
C1541 C1525 1.429 . S
C1541 C1537 1.429 . S
C1541 C1542 1.523 . S
C1542 C1526 1.368 . S
C1542 C1538 1.368 . S
C1542 C1541 1.523 . S
H1543 C1518 0.950 . S
H1544 C1520 0.950 . S
H1545 C1521 0.949 . S
H1546 C1523 0.950 . S
H1547 C1525 0.950 . S
C1548 C1549 1.349 . S
C1548 C1550 1.327 . S
C1548 H1573 0.950 . S
C1549 C1548 1.349 . S
C1549 C1565 1.349 . S
C1550 C1548 1.327 . S
C1550 C1569 1.429 . S
C1550 H1574 0.950 . S
C1551 C1568 1.574 . S
C1551 C1570 1.368 . S
C1551 H1575 0.949 . S
H1552 C1556 0.949 . S
C1553 C1554 1.349 . S
C1553 C1555 1.327 . S
C1553 H1576 0.950 . S
C1554 C1553 1.349 . S
C1554 C1566 1.349 . S
C1555 C1553 1.327 . S
C1555 C1571 1.429 . S
C1555 H1577 0.950 . S
C1556 H1552 0.949 . S
C1556 C1564 1.574 . S
C1556 C1572 1.368 . S
H1557 C1565 0.950 . S
H1558 C1563 0.950 . S
H1559 C1564 0.949 . S
H1560 C1566 0.950 . S
H1561 C1567 0.950 . S
H1562 C1568 0.949 . S
C1563 H1558 0.950 . S
C1563 C1565 1.327 . S
C1563 C1569 1.429 . S
C1564 C1556 1.574 . S
C1564 H1559 0.949 . S
C1564 C1570 1.368 . S
C1565 C1549 1.349 . S
C1565 H1557 0.950 . S
C1565 C1563 1.327 . S
C1566 C1554 1.349 . S
C1566 H1560 0.950 . S
C1566 C1567 1.327 . S
C1567 H1561 0.950 . S
C1567 C1566 1.327 . S
C1567 C1571 1.429 . S
C1568 C1551 1.574 . S
C1568 H1562 0.949 . S
C1568 C1572 1.368 . S
C1569 C1550 1.429 . S
C1569 C1563 1.429 . S
C1569 C1570 1.523 . S
C1570 C1551 1.368 . S
C1570 C1564 1.368 . S
C1570 C1569 1.523 . S
C1571 C1555 1.429 . S
C1571 C1567 1.429 . S
C1571 C1572 1.523 . S
C1572 C1556 1.368 . S
C1572 C1568 1.368 . S
C1572 C1571 1.523 . S
H1573 C1548 0.950 . S
H1574 C1550 0.950 . S
H1575 C1551 0.949 . S
H1576 C1553 0.950 . S
H1577 C1555 0.950 . S
C1578 C1579 1.349 . S
C1578 C1580 1.327 . S
C1578 H1603 0.950 . S
C1579 C1578 1.349 . S
C1579 C1595 1.349 . S
C1580 C1578 1.327 . S
C1580 C1599 1.429 . S
C1580 H1604 0.950 . S
C1581 C1598 1.574 . S
C1581 C1600 1.368 . S
C1581 H1605 0.949 . S
H1582 C1586 0.949 . S
C1583 C1584 1.349 . S
C1583 C1585 1.327 . S
C1583 H1606 0.950 . S
C1584 C1583 1.349 . S
C1584 C1596 1.349 . S
C1585 C1583 1.327 . S
C1585 C1601 1.429 . S
C1585 H1607 0.950 . S
C1586 H1582 0.949 . S
C1586 C1594 1.574 . S
C1586 C1602 1.368 . S
H1587 C1595 0.950 . S
H1588 C1593 0.950 . S
H1589 C1594 0.949 . S
H1590 C1596 0.950 . S
H1591 C1597 0.950 . S
H1592 C1598 0.949 . S
C1593 H1588 0.950 . S
C1593 C1595 1.327 . S
C1593 C1599 1.429 . S
C1594 C1586 1.574 . S
C1594 H1589 0.949 . S
C1594 C1600 1.368 . S
C1595 C1579 1.349 . S
C1595 H1587 0.950 . S
C1595 C1593 1.327 . S
C1596 C1584 1.349 . S
C1596 H1590 0.950 . S
C1596 C1597 1.327 . S
C1597 H1591 0.950 . S
C1597 C1596 1.327 . S
C1597 C1601 1.429 . S
C1598 C1581 1.574 . S
C1598 H1592 0.949 . S
C1598 C1602 1.368 . S
C1599 C1580 1.429 . S
C1599 C1593 1.429 . S
C1599 C1600 1.523 . S
C1600 C1581 1.368 . S
C1600 C1594 1.368 . S
C1600 C1599 1.523 . S
C1601 C1585 1.429 . S
C1601 C1597 1.429 . S
C1601 C1602 1.523 . S
C1602 C1586 1.368 . S
C1602 C1598 1.368 . S
C1602 C1601 1.523 . S
H1603 C1578 0.950 . S
H1604 C1580 0.950 . S
H1605 C1581 0.949 . S
H1606 C1583 0.950 . S
H1607 C1585 0.950 . S
C1608 C1609 1.349 . S
C1608 C1610 1.327 . S
C1608 H1633 0.950 . S
C1609 C1608 1.349 . S
C1609 C1625 1.349 . S
C1610 C1608 1.327 . S
C1610 C1629 1.429 . S
C1610 H1634 0.950 . S
C1611 C1628 1.574 1_655 S
C1611 C1630 1.368 . S
C1611 H1635 0.949 . S
H1612 C1616 0.949 . S
C1613 C1614 1.349 . S
C1613 C1615 1.327 . S
C1613 H1636 0.950 . S
C1614 C1613 1.349 . S
C1614 C1626 1.349 . S
C1615 C1613 1.327 . S
C1615 C1631 1.429 . S
C1615 H1637 0.950 . S
C1616 H1612 0.949 . S
C1616 C1624 1.574 1_455 S
C1616 C1632 1.368 . S
H1617 C1625 0.950 . S
H1618 C1623 0.950 . S
H1619 C1624 0.949 . S
H1620 C1626 0.950 . S
H1621 C1627 0.950 . S
H1622 C1628 0.949 . S
C1623 H1618 0.950 . S
C1623 C1625 1.327 . S
C1623 C1629 1.429 . S
C1624 C1616 1.574 1_655 S
C1624 H1619 0.949 . S
C1624 C1630 1.368 . S
C1625 C1609 1.349 . S
C1625 H1617 0.950 . S
C1625 C1623 1.327 . S
C1626 C1614 1.349 . S
C1626 H1620 0.950 . S
C1626 C1627 1.327 . S
C1627 H1621 0.950 . S
C1627 C1626 1.327 . S
C1627 C1631 1.429 . S
C1628 C1611 1.574 1_455 S
C1628 H1622 0.949 . S
C1628 C1632 1.368 . S
C1629 C1610 1.429 . S
C1629 C1623 1.429 . S
C1629 C1630 1.523 . S
C1630 C1611 1.368 . S
C1630 C1624 1.368 . S
C1630 C1629 1.523 . S
C1631 C1615 1.429 . S
C1631 C1627 1.429 . S
C1631 C1632 1.523 . S
C1632 C1616 1.368 . S
C1632 C1628 1.368 . S
C1632 C1631 1.523 . S
H1633 C1608 0.950 . S
H1634 C1610 0.950 . S
H1635 C1611 0.949 . S
H1636 C1613 0.950 . S
H1637 C1615 0.950 . S
C1638 C1639 1.349 . S
C1638 C1640 1.327 . S
C1638 H1663 0.950 . S
C1639 C1638 1.349 . S
C1639 C1655 1.349 . S
C1640 C1638 1.327 . S
C1640 C1659 1.429 . S
C1640 H1664 0.950 . S
C1641 C1658 1.574 1_455 S
C1641 C1660 1.368 . S
C1641 H1665 0.949 . S
H1642 C1646 0.949 . S
C1643 C1644 1.349 . S
C1643 C1645 1.327 . S
C1643 H1666 0.950 . S
C1644 C1643 1.349 . S
C1644 C1656 1.349 . S
C1645 C1643 1.327 . S
C1645 C1661 1.429 . S
C1645 H1667 0.950 . S
C1646 H1642 0.949 . S
C1646 C1654 1.574 1_655 S
C1646 C1662 1.368 . S
H1647 C1655 0.950 . S
H1648 C1653 0.950 . S
H1649 C1654 0.949 . S
H1650 C1656 0.950 . S
H1651 C1657 0.950 . S
H1652 C1658 0.949 . S
C1653 H1648 0.950 . S
C1653 C1655 1.327 . S
C1653 C1659 1.429 . S
C1654 C1646 1.574 1_455 S
C1654 H1649 0.949 . S
C1654 C1660 1.368 . S
C1655 C1639 1.349 . S
C1655 H1647 0.950 . S
C1655 C1653 1.327 . S
C1656 C1644 1.349 . S
C1656 H1650 0.950 . S
C1656 C1657 1.327 . S
C1657 H1651 0.950 . S
C1657 C1656 1.327 . S
C1657 C1661 1.429 . S
C1658 C1641 1.574 1_655 S
C1658 H1652 0.949 . S
C1658 C1662 1.368 . S
C1659 C1640 1.429 . S
C1659 C1653 1.429 . S
C1659 C1660 1.523 . S
C1660 C1641 1.368 . S
C1660 C1654 1.368 . S
C1660 C1659 1.523 . S
C1661 C1645 1.429 . S
C1661 C1657 1.429 . S
C1661 C1662 1.523 . S
C1662 C1646 1.368 . S
C1662 C1658 1.368 . S
C1662 C1661 1.523 . S
H1663 C1638 0.950 . S
H1664 C1640 0.950 . S
H1665 C1641 0.949 . S
H1666 C1643 0.950 . S
H1667 C1645 0.950 . S
C1668 C1669 1.349 . S
C1668 C1670 1.327 . S
C1668 H1693 0.950 . S
C1669 C1668 1.349 . S
C1669 C1685 1.349 . S
C1670 C1668 1.327 . S
C1670 C1689 1.429 . S
C1670 H1694 0.950 . S
C1671 C1688 1.574 1_455 S
C1671 C1690 1.368 . S
C1671 H1695 0.949 . S
H1672 C1676 0.949 . S
C1673 C1674 1.349 . S
C1673 C1675 1.327 . S
C1673 H1696 0.950 . S
C1674 C1673 1.349 . S
C1674 C1686 1.349 . S
C1675 C1673 1.327 . S
C1675 C1691 1.429 . S
C1675 H1697 0.950 . S
C1676 H1672 0.949 . S
C1676 C1684 1.574 1_655 S
C1676 C1692 1.368 . S
H1677 C1685 0.950 . S
H1678 C1683 0.950 . S
H1679 C1684 0.949 . S
H1680 C1686 0.950 . S
H1681 C1687 0.950 . S
H1682 C1688 0.949 . S
C1683 H1678 0.950 . S
C1683 C1685 1.327 . S
C1683 C1689 1.429 . S
C1684 C1676 1.574 1_455 S
C1684 H1679 0.949 . S
C1684 C1690 1.368 . S
C1685 C1669 1.349 . S
C1685 H1677 0.950 . S
C1685 C1683 1.327 . S
C1686 C1674 1.349 . S
C1686 H1680 0.950 . S
C1686 C1687 1.327 . S
C1687 H1681 0.950 . S
C1687 C1686 1.327 . S
C1687 C1691 1.429 . S
C1688 C1671 1.574 1_655 S
C1688 H1682 0.949 . S
C1688 C1692 1.368 . S
C1689 C1670 1.429 . S
C1689 C1683 1.429 . S
C1689 C1690 1.523 . S
C1690 C1671 1.368 . S
C1690 C1684 1.368 . S
C1690 C1689 1.523 . S
C1691 C1675 1.429 . S
C1691 C1687 1.429 . S
C1691 C1692 1.523 . S
C1692 C1676 1.368 . S
C1692 C1688 1.368 . S
C1692 C1691 1.523 . S
H1693 C1668 0.950 . S
H1694 C1670 0.950 . S
H1695 C1671 0.949 . S
H1696 C1673 0.950 . S
H1697 C1675 0.950 . S
C1698 C1699 1.349 . S
C1698 C1700 1.327 . S
C1698 H1723 0.950 . S
C1699 C1698 1.349 . S
C1699 C1715 1.349 . S
C1700 C1698 1.327 . S
C1700 C1719 1.429 . S
C1700 H1724 0.950 . S
C1701 C1718 1.574 1_655 S
C1701 C1720 1.368 . S
C1701 H1725 0.949 . S
H1702 C1706 0.949 . S
C1703 C1704 1.349 . S
C1703 C1705 1.327 . S
C1703 H1726 0.950 . S
C1704 C1703 1.349 . S
C1704 C1716 1.349 . S
C1705 C1703 1.327 . S
C1705 C1721 1.429 . S
C1705 H1727 0.950 . S
C1706 H1702 0.949 . S
C1706 C1714 1.574 1_455 S
C1706 C1722 1.368 . S
H1707 C1715 0.950 . S
H1708 C1713 0.950 . S
H1709 C1714 0.949 . S
H1710 C1716 0.950 . S
H1711 C1717 0.950 . S
H1712 C1718 0.949 . S
C1713 H1708 0.950 . S
C1713 C1715 1.327 . S
C1713 C1719 1.429 . S
C1714 C1706 1.574 1_655 S
C1714 H1709 0.949 . S
C1714 C1720 1.368 . S
C1715 C1699 1.349 . S
C1715 H1707 0.950 . S
C1715 C1713 1.327 . S
C1716 C1704 1.349 . S
C1716 H1710 0.950 . S
C1716 C1717 1.327 . S
C1717 H1711 0.950 . S
C1717 C1716 1.327 . S
C1717 C1721 1.429 . S
C1718 C1701 1.574 1_455 S
C1718 H1712 0.949 . S
C1718 C1722 1.368 . S
C1719 C1700 1.429 . S
C1719 C1713 1.429 . S
C1719 C1720 1.523 . S
C1720 C1701 1.368 . S
C1720 C1714 1.368 . S
C1720 C1719 1.523 . S
C1721 C1705 1.429 . S
C1721 C1717 1.429 . S
C1721 C1722 1.523 . S
C1722 C1706 1.368 . S
C1722 C1718 1.368 . S
C1722 C1721 1.523 . S
H1723 C1698 0.950 . S
H1724 C1700 0.950 . S
H1725 C1701 0.949 . S
H1726 C1703 0.950 . S
H1727 C1705 0.950 . S
C529 C18 0.541 . S
C534 C469 0.560 . S
C559 C51 0.541 . S
C564 C502 0.560 . S
C589 C84 0.541 . S
C594 C403 0.560 . S
C619 C436 0.560 . S
C624 C117 0.541 . S
C649 C150 0.541 . S
C654 C337 0.560 . S
C679 C183 0.541 . S
C684 C370 0.560 . S
C709 C216 0.541 . S
C714 C271 0.560 . S
C739 C304 0.560 . S
C744 C249 0.541 . S
C769 C282 0.541 . S
C774 C205 0.560 . S
C799 C238 0.560 . S
C804 C315 0.541 . S
C829 C348 0.541 . S
C834 C139 0.560 . S
C859 C381 0.541 . S
C864 C172 0.560 . S
C889 C414 0.541 . S
C894 C73 0.560 . S
C919 C447 0.541 . S
C924 C106 0.560 . S
C949 C7 0.560 . S
C954 C480 0.541 . S
C979 C40 0.560 . S
C984 C513 0.541 . S
C1009 N2 1.726 . S
C1014 N365 1.726 . S
C1039 N332 1.726 . S
C1044 N35 1.726 . S
C1069 N68 1.726 . S
C1074 N299 1.726 . S
C1099 N266 1.726 . S
C1104 N101 1.726 . S
C1129 N134 1.726 . S
C1134 N497 1.726 . S
C1159 N464 1.726 . S
C1164 N167 1.726 . S
C1189 N200 1.726 . S
C1194 N431 1.726 . S
C1219 N233 1.726 . S
C1224 N398 1.726 . S
C1249 N13 1.867 . S
C1254 N79 1.867 . S
C1279 N46 1.867 . S
C1284 N112 1.867 . S
C1309 N145 1.867 . S
C1314 N211 1.867 . S
C1339 N244 1.867 . S
C1344 N178 1.867 . S
C1369 N343 1.867 . S
C1374 N277 1.867 . S
C1399 N376 1.867 . S
C1404 N310 1.867 . S
C1429 N409 1.867 . S
C1434 N475 1.867 . S
C1459 N442 1.867 . S
C1464 N508 1.867 . S
C1489 C54 1.560 . S
C1494 C21 1.560 . S
C1519 C87 1.560 . S
C1524 C120 1.560 . S
C1549 C153 1.560 . S
C1554 C186 1.560 . S
C1579 C252 1.560 . S
C1584 C219 1.560 . S
C1609 C285 1.560 . S
C1614 C318 1.560 . S
C1639 C384 1.560 . S
C1644 C351 1.560 . S
C1669 C417 1.560 . S
C1674 C450 1.560 . S
C1699 C516 1.560 . S
C1704 C483 1.560 . S
