# Generated by pormake.
# Topology umm, (4)-cn, num edge types: 1
# Building blocks:
#     Node 0, Type 0, BuildingBlock: QUQFOY_clean_sbu_1, # of connection points: 4
#     Node 1, Type 0, BuildingBlock: QUQFOY_clean_sbu_1, # of connection points: 4
#     Node 2, Type 0, BuildingBlock: QUQFOY_clean_sbu_1, # of connection points: 4
#     Node 3, Type 0, BuildingBlock: QUQFOY_clean_sbu_1, # of connection points: 4
#     Node 4, Type 0, BuildingBlock: QUQFOY_clean_sbu_1, # of connection points: 4
#     Node 5, Type 0, BuildingBlock: QUQFOY_clean_sbu_1, # of connection points: 4
#     Node 6, Type 0, BuildingBlock: QUQFOY_clean_sbu_1, # of connection points: 4
#     Node 7, Type 0, BuildingBlock: QUQFOY_clean_sbu_1, # of connection points: 4
#     Node 8, Type 0, BuildingBlock: QUQFOY_clean_sbu_1, # of connection points: 4
#     Node 9, Type 0, BuildingBlock: QUQFOY_clean_sbu_1, # of connection points: 4
#     Node 10, Type 0, BuildingBlock: QUQFOY_clean_sbu_1, # of connection points: 4
#     Node 11, Type 0, BuildingBlock: QUQFOY_clean_sbu_1, # of connection points: 4
#     Edge 12, Type (0, 0), BuildingBlock: MIFKUJ_clean_linker_0, # of connection points: 2
#     Edge 13, Type (0, 0), BuildingBlock: MIFKUJ_clean_linker_0, # of connection points: 2
#     Edge 14, Type (0, 0), BuildingBlock: MIFKUJ_clean_linker_0, # of connection points: 2
#     Edge 15, Type (0, 0), BuildingBlock: MIFKUJ_clean_linker_0, # of connection points: 2
#     Edge 16, Type (0, 0), BuildingBlock: MIFKUJ_clean_linker_0, # of connection points: 2
#     Edge 17, Type (0, 0), BuildingBlock: MIFKUJ_clean_linker_0, # of connection points: 2
#     Edge 18, Type (0, 0), BuildingBlock: MIFKUJ_clean_linker_0, # of connection points: 2
#     Edge 19, Type (0, 0), BuildingBlock: MIFKUJ_clean_linker_0, # of connection points: 2
#     Edge 20, Type (0, 0), BuildingBlock: MIFKUJ_clean_linker_0, # of connection points: 2
#     Edge 21, Type (0, 0), BuildingBlock: MIFKUJ_clean_linker_0, # of connection points: 2
#     Edge 22, Type (0, 0), BuildingBlock: MIFKUJ_clean_linker_0, # of connection points: 2
#     Edge 23, Type (0, 0), BuildingBlock: MIFKUJ_clean_linker_0, # of connection points: 2
#     Edge 24, Type (0, 0), BuildingBlock: MIFKUJ_clean_linker_0, # of connection points: 2
#     Edge 25, Type (0, 0), BuildingBlock: MIFKUJ_clean_linker_0, # of connection points: 2
#     Edge 26, Type (0, 0), BuildingBlock: MIFKUJ_clean_linker_0, # of connection points: 2
#     Edge 27, Type (0, 0), BuildingBlock: MIFKUJ_clean_linker_0, # of connection points: 2
#     Edge 28, Type (0, 0), BuildingBlock: MIFKUJ_clean_linker_0, # of connection points: 2
#     Edge 29, Type (0, 0), BuildingBlock: MIFKUJ_clean_linker_0, # of connection points: 2
#     Edge 30, Type (0, 0), BuildingBlock: MIFKUJ_clean_linker_0, # of connection points: 2
#     Edge 31, Type (0, 0), BuildingBlock: MIFKUJ_clean_linker_0, # of connection points: 2
#     Edge 32, Type (0, 0), BuildingBlock: MIFKUJ_clean_linker_0, # of connection points: 2
#     Edge 33, Type (0, 0), BuildingBlock: MIFKUJ_clean_linker_0, # of connection points: 2
#     Edge 34, Type (0, 0), BuildingBlock: MIFKUJ_clean_linker_0, # of connection points: 2
#     Edge 35, Type (0, 0), BuildingBlock: MIFKUJ_clean_linker_0, # of connection points: 2
# Relax obj value: 0.043
# Max RMSD: 0.170
# Mean RMSD: 0.170
data_MOF--net-umm--node1-QUQFOY_clean_sbu_1--edge1-MIFKUJ_clean_linker_0
_symmetry_space_group_name_H-M    P1
_symmetry_Int_Tables_number       1
_symmetry_cell_setting            triclinic
loop_
_symmetry_equiv_pos_as_xyz
'x, y, z'
_cell_length_a     74.912138
_cell_length_b     74.774669
_cell_length_c     37.512755
_cell_angle_alpha  89.84722
_cell_angle_beta   90.078267
_cell_angle_gamma 119.91637
loop_
_atom_site_label
_atom_site_type_symbol
_atom_site_fract_x
_atom_site_fract_y
_atom_site_fract_z
_atom_type_partial_charge
O0 O 0.43829 0.55213 0.09111 0.0
Cd1 Cd 0.41962 0.56515 0.09288 0.0
Cd2 Cd 0.39438 0.52943 0.06205 0.0
O3 O 0.41449 0.51981 0.08131 0.0
O4 O 0.43275 0.58751 0.1292 0.0
O5 O 0.40224 0.55969 0.1369 0.0
C6 C 0.41715 0.57665 0.14962 0.0
C7 C 0.35857 0.51425 0.06409 0.0
C8 C 0.43312 0.53319 0.08854 0.0
C9 C 0.41064 0.56718 0.01714 0.0
O10 O 0.40437 0.54798 0.01797 0.0
O11 O 0.41584 0.57761 0.04584 0.0
O12 O 0.3673 0.50618 0.0456 0.0
O13 O 0.37009 0.5293 0.08525 0.0
O14 O 0.89409 0.43288 0.42952 0.0
Cd15 Cd 0.86236 0.41417 0.42818 0.0
Cd16 Cd 0.87367 0.38937 0.39905 0.0
O17 O 0.90276 0.40908 0.42018 0.0
O18 O 0.8518 0.42697 0.46297 0.0
O19 O 0.84954 0.39667 0.47185 0.0
C20 C 0.84691 0.4114 0.48372 0.0
C21 C 0.85034 0.3542 0.40436 0.0
C22 C 0.90781 0.42761 0.42791 0.0
C23 C 0.85421 0.40579 0.35099 0.0
O24 O 0.86748 0.40002 0.35342 0.0
O25 O 0.84754 0.41006 0.37909 0.0
O26 O 0.86752 0.36068 0.38743 0.0
O27 O 0.84779 0.36757 0.42213 0.0
O28 O 0.47397 0.89233 0.74546 0.0
Cd29 Cd 0.45999 0.8606 0.74679 0.0
Cd30 Cd 0.49706 0.87015 0.72394 0.0
O31 O 0.50637 0.89983 0.74327 0.0
O32 O 0.43679 0.85218 0.78115 0.0
O33 O 0.46313 0.84718 0.79111 0.0
C34 C 0.44639 0.84623 0.8024 0.0
C35 C 0.51048 0.84818 0.73129 0.0
C36 C 0.49305 0.90562 0.74656 0.0
C37 C 0.46217 0.85042 0.6722 0.0
O38 O 0.48135 0.86242 0.67663 0.0
O39 O 0.44982 0.84548 0.69843 0.0
O40 O 0.52039 0.86517 0.71344 0.0
O41 O 0.49447 0.84523 0.74917 0.0
O42 O 0.59271 0.46618 0.08607 0.0
Cd43 Cd 0.61152 0.45336 0.08838 0.0
Cd44 Cd 0.63728 0.48965 0.06103 0.0
O45 O 0.61688 0.49878 0.08071 0.0
O46 O 0.59838 0.43051 0.12407 0.0
O47 O 0.62846 0.45869 0.1329 0.0
C48 C 0.61368 0.44143 0.14503 0.0
C49 C 0.67293 0.50405 0.06578 0.0
C50 C 0.598 0.4852 0.08551 0.0
C51 C 0.62174 0.45329 0.01305 0.0
O52 O 0.62802 0.47245 0.01538 0.0
O53 O 0.61617 0.44206 0.04092 0.0
O54 O 0.66501 0.51297 0.04725 0.0
O55 O 0.66063 0.48851 0.08548 0.0
O56 O 0.12879 0.5913 0.43632 0.0
Cd57 Cd 0.16044 0.60523 0.43367 0.0
Cd58 Cd 0.15414 0.63389 0.39857 0.0
O59 O 0.12353 0.6159 0.41524 0.0
O60 O 0.1663 0.5893 0.4701 0.0
O61 O 0.17731 0.62265 0.47529 0.0
C62 C 0.17545 0.60591 0.48887 0.0
C63 C 0.17647 0.66954 0.40101 0.0
C64 C 0.11661 0.59796 0.4287 0.0
C65 C 0.17083 0.61129 0.35631 0.0
O66 O 0.16235 0.62234 0.35644 0.0
O67 O 0.17298 0.60351 0.38513 0.0
O68 O 0.16027 0.66171 0.38105 0.0
O69 O 0.17861 0.65731 0.42284 0.0
O70 O 0.56286 0.13293 0.76186 0.0
Cd71 Cd 0.57625 0.16456 0.76422 0.0
Cd72 Cd 0.54059 0.15551 0.73244 0.0
O73 O 0.53106 0.12521 0.74895 0.0
O74 O 0.59751 0.17353 0.80256 0.0
O75 O 0.56958 0.17638 0.80691 0.0
C76 C 0.58613 0.17834 0.82142 0.0
C77 C 0.52434 0.17519 0.73611 0.0
C78 C 0.54402 0.1195 0.75724 0.0
C79 C 0.57938 0.17754 0.68927 0.0
O80 O 0.55993 0.1661 0.68943 0.0
O81 O 0.58973 0.1808 0.7178 0.0
O82 O 0.51701 0.15899 0.7162 0.0
O83 O 0.53924 0.17856 0.75755 0.0
O84 O 0.46636 0.58328 0.58828 0.0
Cd85 Cd 0.45335 0.60182 0.58441 0.0
Cd86 Cd 0.48957 0.62878 0.61259 0.0
O87 O 0.49866 0.60781 0.59542 0.0
O88 O 0.43178 0.58939 0.54659 0.0
O89 O 0.46029 0.61961 0.54067 0.0
C90 C 0.44345 0.60512 0.52685 0.0
C91 C 0.50544 0.6646 0.60757 0.0
C92 C 0.48538 0.58885 0.59024 0.0
C93 C 0.45204 0.61348 0.65844 0.0
O94 O 0.47137 0.62072 0.65712 0.0
O95 O 0.44103 0.60629 0.63064 0.0
O96 O 0.51336 0.65605 0.62705 0.0
O97 O 0.49019 0.65276 0.58705 0.0
O98 O 0.8933 0.46359 0.91568 0.0
Cd99 Cd 0.86171 0.452 0.9155 0.0
Cd100 Cd 0.87461 0.48817 0.94338 0.0
O101 O 0.90306 0.49658 0.92041 0.0
O102 O 0.85053 0.4293 0.87945 0.0
O103 O 0.8501 0.45846 0.87215 0.0
C104 C 0.84663 0.44098 0.85932 0.0
C105 C 0.85363 0.50305 0.94238 0.0
C106 C 0.90753 0.48241 0.91509 0.0
C107 C 0.85423 0.45227 0.99169 0.0
O108 O 0.86853 0.47088 0.98864 0.0
O109 O 0.8462 0.44148 0.96388 0.0
O110 O 0.87099 0.51171 0.95927 0.0
O111 O 0.84954 0.48742 0.92229 0.0
O112 O 0.43661 0.89253 0.23841 0.0
Cd113 Cd 0.42042 0.86072 0.237 0.0
Cd114 Cd 0.39358 0.86904 0.27229 0.0
O115 O 0.41257 0.89952 0.2553 0.0
O116 O 0.43585 0.85494 0.19979 0.0
O117 O 0.40316 0.84634 0.19364 0.0
C118 C 0.41958 0.84753 0.18017 0.0
C119 C 0.35762 0.84886 0.27298 0.0
C120 C 0.43089 0.90562 0.24462 0.0
C121 C 0.41367 0.84883 0.31284 0.0
O122 O 0.40477 0.8595 0.31348 0.0
O123 O 0.4201 0.84555 0.28357 0.0
O124 O 0.36717 0.86501 0.29284 0.0
O125 O 0.36834 0.84567 0.24944 0.0
O126 O 0.55793 0.43352 0.57992 0.0
Cd127 Cd 0.57185 0.41571 0.57797 0.0
Cd128 Cd 0.53597 0.3886 0.60862 0.0
O129 O 0.52611 0.40897 0.59134 0.0
O130 O 0.59344 0.42839 0.5402 0.0
O131 O 0.56582 0.39745 0.53508 0.0
C132 C 0.58241 0.41224 0.52103 0.0
C133 C 0.51995 0.35264 0.60624 0.0
C134 C 0.53893 0.42775 0.58363 0.0
C135 C 0.57431 0.40569 0.65307 0.0
O136 O 0.55488 0.39767 0.65219 0.0
O137 O 0.58496 0.41284 0.62485 0.0
O138 O 0.51255 0.36168 0.62558 0.0
O139 O 0.53473 0.36397 0.58447 0.0
O140 O 0.13205 0.5472 0.91504 0.0
Cd141 Cd 0.16373 0.56206 0.91721 0.0
Cd142 Cd 0.15419 0.52507 0.9411 0.0
O143 O 0.1249 0.51491 0.91927 0.0
O144 O 0.17211 0.58571 0.88361 0.0
O145 O 0.17904 0.56059 0.87413 0.0
C146 C 0.17929 0.57706 0.86285 0.0
C147 C 0.17741 0.51292 0.93624 0.0
C148 C 0.11898 0.52803 0.91404 0.0
C149 C 0.17082 0.55974 0.99358 0.0
O150 O 0.15959 0.54048 0.98837 0.0
O151 O 0.17672 0.57224 0.96732 0.0
O152 O 0.16006 0.50233 0.95273 0.0
O153 O 0.18028 0.52903 0.91856 0.0
O154 O 0.59128 0.1318 0.25695 0.0
Cd155 Cd 0.61113 0.16321 0.25441 0.0
Cd156 Cd 0.63582 0.15131 0.28008 0.0
O157 O 0.61494 0.12251 0.2583 0.0
O158 O 0.59874 0.17408 0.21927 0.0
O159 O 0.6278 0.17396 0.20953 0.0
C160 C 0.61363 0.17753 0.1979 0.0
C161 C 0.67099 0.17391 0.27391 0.0
C162 C 0.59609 0.11774 0.25534 0.0
C163 C 0.62228 0.17251 0.32974 0.0
O164 O 0.62684 0.15834 0.32689 0.0
O165 O 0.61765 0.17927 0.30211 0.0
O166 O 0.66427 0.15648 0.29033 0.0
O167 O 0.65777 0.17698 0.25669 0.0
H168 H 0.38807 0.55588 0.2013 0.0
H169 H 0.39089 0.56361 0.26513 0.0
H170 H 0.44967 0.61836 0.24741 0.0
H171 H 0.44704 0.61068 0.18377 0.0
H172 H 0.45191 0.59519 0.30008 0.0
H173 H 0.40721 0.62165 0.26964 0.0
H174 H 0.37639 0.62048 0.24364 0.0
H175 H 0.3376 0.57024 0.31316 0.0
H176 H 0.36819 0.57093 0.33926 0.0
H177 H 0.46723 0.63328 0.47592 0.0
H178 H 0.46105 0.63112 0.41159 0.0
H179 H 0.40269 0.57547 0.42672 0.0
H180 H 0.40868 0.57757 0.49105 0.0
H181 H 0.40017 0.60019 0.37534 0.0
H182 H 0.44367 0.572 0.4032 0.0
H183 H 0.47384 0.57181 0.42914 0.0
H184 H 0.51416 0.62377 0.3641 0.0
H185 H 0.48422 0.62445 0.33812 0.0
C186 C 0.40143 0.56975 0.2109 0.0
C187 C 0.41735 0.58263 0.18739 0.0
C188 C 0.40301 0.57418 0.24742 0.0
C189 C 0.42049 0.59161 0.26112 0.0
C190 C 0.43607 0.60481 0.23751 0.0
C191 C 0.43449 0.60042 0.20106 0.0
C192 C 0.42324 0.59536 0.30022 0.0
C193 C 0.44076 0.59666 0.31639 0.0
C194 C 0.4084 0.59665 0.32176 0.0
C195 C 0.38999 0.59622 0.30617 0.0
C196 C 0.3921 0.61024 0.27918 0.0
C197 C 0.37467 0.60969 0.26447 0.0
C198 C 0.35505 0.59526 0.27668 0.0
C199 C 0.35281 0.58139 0.3037 0.0
C200 C 0.37019 0.58187 0.31849 0.0
C201 C 0.45292 0.62076 0.46565 0.0
C202 C 0.43852 0.60551 0.48863 0.0
C203 C 0.44945 0.6195 0.42883 0.0
C204 C 0.43154 0.60296 0.41427 0.0
C205 C 0.41664 0.58834 0.43732 0.0
C206 C 0.42013 0.58955 0.47412 0.0
C207 C 0.42891 0.60019 0.37499 0.0
C208 C 0.41139 0.59893 0.35888 0.0
C209 C 0.44366 0.59878 0.35345 0.0
C210 C 0.46171 0.59842 0.36902 0.0
C211 C 0.45898 0.5835 0.39466 0.0
C212 C 0.47603 0.58328 0.40933 0.0
C213 C 0.49591 0.59781 0.39836 0.0
C214 C 0.49876 0.61255 0.37262 0.0
C215 C 0.48175 0.61286 0.3579 0.0
H216 H 0.50909 0.5976 0.40973 0.0
H217 H 0.34158 0.59486 0.26525 0.0
H218 H 0.83994 0.38326 0.53659 0.0
H219 H 0.8346 0.3864 0.60005 0.0
H220 H 0.83446 0.44309 0.57926 0.0
H221 H 0.8401 0.44022 0.51591 0.0
H222 H 0.86028 0.44814 0.63174 0.0
H223 H 0.79019 0.39818 0.60435 0.0
H224 H 0.7621 0.3656 0.58016 0.0
H225 H 0.77862 0.3311 0.65126 0.0
H226 H 0.80699 0.36349 0.67555 0.0
H227 H 0.83945 0.46319 0.80877 0.0
H228 H 0.83418 0.45619 0.7448 0.0
H229 H 0.83523 0.39954 0.76011 0.0
H230 H 0.84016 0.40625 0.82411 0.0
H231 H 0.80719 0.39455 0.7102 0.0
H232 H 0.87832 0.44312 0.73381 0.0
H233 H 0.90742 0.47505 0.75788 0.0
H234 H 0.88995 0.51137 0.6934 0.0
H235 H 0.86057 0.47962 0.66928 0.0
C236 C 0.83838 0.39619 0.5454 0.0
C237 C 0.8405 0.41151 0.52113 0.0
C238 C 0.83527 0.39795 0.58175 0.0
C239 C 0.83405 0.41497 0.59454 0.0
C240 C 0.83539 0.42985 0.57011 0.0
C241 C 0.83854 0.42814 0.53382 0.0
C242 C 0.83302 0.41811 0.63354 0.0
C243 C 0.8484 0.43657 0.64872 0.0
C244 C 0.81794 0.40277 0.65602 0.0
C245 C 0.80083 0.38327 0.64156 0.0
C246 C 0.78793 0.38365 0.61464 0.0
C247 C 0.77194 0.36521 0.60095 0.0
C248 C 0.7686 0.34629 0.61411 0.0
C249 C 0.78123 0.34577 0.64107 0.0
C250 C 0.79725 0.36416 0.65484 0.0
C251 C 0.8382 0.44906 0.79865 0.0
C252 C 0.8404 0.43537 0.82157 0.0
C253 C 0.83529 0.44512 0.76201 0.0
C254 C 0.83468 0.42751 0.7475 0.0
C255 C 0.83571 0.41325 0.7706 0.0
C256 C 0.83858 0.41715 0.80724 0.0
C257 C 0.83436 0.42461 0.70818 0.0
C258 C 0.81887 0.4062 0.69304 0.0
C259 C 0.84944 0.4399 0.68566 0.0
C260 C 0.86712 0.45901 0.70005 0.0
C261 C 0.88059 0.45792 0.72498 0.0
C262 C 0.89715 0.47598 0.73859 0.0
C263 C 0.90049 0.49523 0.72726 0.0
C264 C 0.88731 0.49645 0.70221 0.0
C265 C 0.87071 0.47843 0.68854 0.0
H266 H 0.91332 0.50919 0.73783 0.0
H267 H 0.75622 0.33203 0.60347 0.0
H268 H 0.42629 0.86061 0.84272 0.0
H269 H 0.41957 0.8561 0.90653 0.0
H270 H 0.44334 0.81404 0.91041 0.0
H271 H 0.4517 0.82002 0.84678 0.0
H272 H 0.39831 0.83015 0.95047 0.0
H273 H 0.46414 0.81441 0.98938 0.0
H274 H 0.49846 0.82235 0.96788 0.0
H275 H 0.50577 0.87658 0.91487 0.0
H276 H 0.47161 0.86908 0.93639 0.0
H277 H 0.38923 0.81754 0.13854 0.0
H278 H 0.3913 0.81139 0.07484 0.0
H279 H 0.45382 0.86241 0.07241 0.0
H280 H 0.45228 0.8672 0.13618 0.0
H281 H 0.45382 0.83755 0.03169 0.0
H282 H 0.40692 0.86348 0.04243 0.0
H283 H 0.37611 0.86421 0.06355 0.0
H284 H 0.33717 0.80481 0.01662 0.0
H285 H 0.36778 0.80365 0.99556 0.0
C286 C 0.42993 0.85026 0.85714 0.0
C287 C 0.43966 0.84079 0.83986 0.0
C288 C 0.42603 0.84763 0.89374 0.0
C289 C 0.43129 0.83503 0.91387 0.0
C290 C 0.43974 0.82441 0.896 0.0
C291 C 0.44433 0.82764 0.85952 0.0
C292 C 0.42875 0.83395 0.95353 0.0
C293 C 0.41049 0.83176 0.96816 0.0
C294 C 0.44464 0.83635 0.97704 0.0
C295 C 0.46522 0.84101 0.96409 0.0
C296 C 0.4731 0.82803 0.97317 0.0
C297 C 0.49251 0.83246 0.96099 0.0
C298 C 0.50425 0.84991 0.9399 0.0
C299 C 0.49663 0.86302 0.93108 0.0
C300 C 0.47724 0.85868 0.94323 0.0
C301 C 0.40345 0.82719 0.12431 0.0
C302 C 0.42061 0.84279 0.14224 0.0
C303 C 0.4046 0.82384 0.08779 0.0
C304 C 0.4226 0.83669 0.0682 0.0
C305 C 0.43976 0.85211 0.08653 0.0
C306 C 0.43887 0.85491 0.12311 0.0
C307 C 0.42373 0.83464 0.02867 0.0
C308 C 0.44161 0.83592 0.01405 0.0
C309 C 0.40804 0.83275 0.00513 0.0
C310 C 0.38962 0.83337 0.01783 0.0
C311 C 0.39178 0.85052 0.03684 0.0
C312 C 0.37436 0.85102 0.04876 0.0
C313 C 0.3547 0.83453 0.04153 0.0
C314 C 0.35241 0.81754 0.02227 0.0
C315 C 0.36978 0.81696 0.01033 0.0
H316 H 0.34123 0.83495 0.05078 0.0
H317 H 0.51927 0.85329 0.93047 0.0
H318 H 0.58509 0.40572 0.17734 0.0
H319 H 0.58155 0.39756 0.24092 0.0
H320 H 0.63709 0.45506 0.26221 0.0
H321 H 0.64093 0.46322 0.19843 0.0
H322 H 0.63464 0.42447 0.30466 0.0
H323 H 0.59036 0.45117 0.27213 0.0
H324 H 0.56323 0.45286 0.23749 0.0
H325 H 0.51923 0.39134 0.27077 0.0
H326 H 0.54619 0.38918 0.30522 0.0
H327 H 0.61667 0.4406 0.48506 0.0
H328 H 0.62346 0.44193 0.42121 0.0
H329 H 0.56709 0.38412 0.40694 0.0
H330 H 0.56006 0.38278 0.47094 0.0
H331 H 0.56965 0.41268 0.36059 0.0
H332 H 0.61421 0.38742 0.39742 0.0
H333 H 0.6417 0.38683 0.43271 0.0
H334 H 0.68556 0.44674 0.39248 0.0
H335 H 0.65826 0.44782 0.3573 0.0
C336 C 0.59675 0.41651 0.19543 0.0
C337 C 0.61321 0.43522 0.18278 0.0
C338 C 0.59465 0.41185 0.23185 0.0
C339 C 0.60883 0.42587 0.25647 0.0
C340 C 0.6259 0.44404 0.24375 0.0
C341 C 0.62807 0.44869 0.20726 0.0
C342 C 0.60519 0.42216 0.2955 0.0
C343 C 0.62051 0.42206 0.31696 0.0
C344 C 0.58659 0.41864 0.31152 0.0
C345 C 0.57034 0.41992 0.29092 0.0
C346 C 0.57493 0.43794 0.27182 0.0
C347 C 0.55959 0.43899 0.25227 0.0
C348 C 0.53954 0.42219 0.25184 0.0
C349 C 0.53478 0.40432 0.27106 0.0
C350 C 0.55008 0.40318 0.29062 0.0
C351 C 0.60586 0.42798 0.46848 0.0
C352 C 0.5878 0.41158 0.48316 0.0
C353 C 0.60981 0.42873 0.43192 0.0
C354 C 0.59586 0.41307 0.4092 0.0
C355 C 0.5781 0.39638 0.42393 0.0
C356 C 0.57415 0.39558 0.46056 0.0
C357 C 0.59908 0.41493 0.36988 0.0
C358 C 0.5837 0.41483 0.34832 0.0
C359 C 0.61767 0.41838 0.3539 0.0
C360 C 0.63414 0.41776 0.37494 0.0
C361 C 0.62968 0.40054 0.3963 0.0
C362 C 0.64523 0.40011 0.41625 0.0
C363 C 0.66535 0.41676 0.4149 0.0
C364 C 0.66996 0.43386 0.39352 0.0
C365 C 0.65446 0.43438 0.37354 0.0
H366 H 0.67737 0.41639 0.43037 0.0
H367 H 0.52767 0.42304 0.23669 0.0
H368 H 0.20527 0.63732 0.5291 0.0
H369 H 0.21374 0.63576 0.59185 0.0
H370 H 0.16633 0.57159 0.5959 0.0
H371 H 0.15908 0.57279 0.53307 0.0
H372 H 0.19598 0.63147 0.64852 0.0
H373 H 0.17177 0.54389 0.65722 0.0
H374 H 0.17443 0.51802 0.62048 0.0
H375 H 0.22566 0.56629 0.56386 0.0
H376 H 0.22351 0.59245 0.60056 0.0
H377 H 0.16383 0.5958 0.82137 0.0
H378 H 0.16974 0.6039 0.75821 0.0
H379 H 0.21481 0.58392 0.75717 0.0
H380 H 0.20744 0.57407 0.82016 0.0
H381 H 0.19556 0.57067 0.70248 0.0
H382 H 0.22653 0.63812 0.74799 0.0
H383 H 0.23076 0.66741 0.78436 0.0
H384 H 0.17885 0.66558 0.73212 0.0
H385 H 0.17411 0.6361 0.69576 0.0
C386 C 0.19702 0.62281 0.54334 0.0
C387 C 0.18173 0.60512 0.52606 0.0
C388 C 0.20176 0.62192 0.57928 0.0
C389 C 0.19099 0.60343 0.59887 0.0
C390 C 0.17553 0.58587 0.58146 0.0
C391 C 0.17125 0.5866 0.54541 0.0
C392 C 0.19486 0.60262 0.63786 0.0
C393 C 0.1961 0.61826 0.66022 0.0
C394 C 0.19587 0.58585 0.65348 0.0
C395 C 0.19738 0.57015 0.63153 0.0
C396 C 0.18369 0.54899 0.63708 0.0
C397 C 0.18508 0.53427 0.61622 0.0
C398 C 0.20018 0.54051 0.58981 0.0
C399 C 0.21394 0.56148 0.58426 0.0
C400 C 0.21262 0.57626 0.60506 0.0
C401 C 0.17524 0.59343 0.80782 0.0
C402 C 0.1853 0.58445 0.82577 0.0
C403 C 0.17877 0.59824 0.77157 0.0
C404 C 0.19313 0.59506 0.75258 0.0
C405 C 0.20364 0.58659 0.7709 0.0
C406 C 0.19956 0.58108 0.807 0.0
C407 C 0.19591 0.59915 0.71327 0.0
C408 C 0.19587 0.58411 0.69083 0.0
C409 C 0.19712 0.61702 0.69754 0.0
C410 C 0.19991 0.63481 0.71926 0.0
C411 C 0.21594 0.64389 0.74439 0.0
C412 C 0.21844 0.66053 0.765 0.0
C413 C 0.20507 0.66833 0.76059 0.0
C414 C 0.1892 0.65953 0.73551 0.0
C415 C 0.18662 0.64287 0.71484 0.0
H416 H 0.20702 0.68122 0.77658 0.0
H417 H 0.20122 0.52908 0.57367 0.0
H418 H 0.58515 0.18474 0.16524 0.0
H419 H 0.58209 0.18983 0.10163 0.0
H420 H 0.63792 0.18822 0.08129 0.0
H421 H 0.64123 0.18337 0.14501 0.0
H422 H 0.63571 0.21691 0.03959 0.0
H423 H 0.59183 0.14554 0.06964 0.0
H424 H 0.56454 0.11608 0.10286 0.0
H425 H 0.52029 0.13314 0.06897 0.0
H426 H 0.54738 0.1629 0.03595 0.0
H427 H 0.62013 0.18434 0.85841 0.0
H428 H 0.62616 0.18935 0.92249 0.0
H429 H 0.56932 0.19012 0.93504 0.0
H430 H 0.56305 0.18488 0.87081 0.0
H431 H 0.57165 0.16381 0.98112 0.0
H432 H 0.6161 0.23408 0.94642 0.0
H433 H 0.64386 0.26255 0.9122 0.0
H434 H 0.6876 0.24662 0.95357 0.0
H435 H 0.66005 0.21786 0.98766 0.0
C436 C 0.59697 0.18579 0.14735 0.0
C437 C 0.61336 0.18348 0.16022 0.0
C438 C 0.59514 0.18861 0.11094 0.0
C439 C 0.60958 0.18905 0.08658 0.0
C440 C 0.62656 0.18787 0.09955 0.0
C441 C 0.62841 0.18506 0.13601 0.0
C442 C 0.60632 0.1895 0.04752 0.0
C443 C 0.62178 0.20523 0.02673 0.0
C444 C 0.58799 0.17444 0.03079 0.0
C445 C 0.57168 0.15658 0.05067 0.0
C446 C 0.57631 0.14312 0.06953 0.0
C447 C 0.56088 0.12635 0.08828 0.0
C448 C 0.54072 0.12279 0.08809 0.0
C449 C 0.53593 0.13596 0.06913 0.0
C450 C 0.55131 0.15277 0.05039 0.0
C451 C 0.60905 0.18591 0.87466 0.0
C452 C 0.59107 0.18417 0.85944 0.0
C453 C 0.61257 0.18886 0.91136 0.0
C454 C 0.59826 0.19023 0.93365 0.0
C455 C 0.58059 0.18912 0.91838 0.0
C456 C 0.57707 0.18621 0.88162 0.0
C457 C 0.60101 0.19127 0.97305 0.0
C458 C 0.58548 0.17569 0.99394 0.0
C459 C 0.61934 0.20637 0.98975 0.0
C460 C 0.63597 0.22371 0.96938 0.0
C461 C 0.63161 0.23655 0.94802 0.0
C462 C 0.64731 0.25275 0.92868 0.0
C463 C 0.66747 0.25636 0.93065 0.0
C464 C 0.67198 0.2438 0.95204 0.0
C465 C 0.65633 0.22756 0.97142 0.0
H466 H 0.67961 0.26892 0.91565 0.0
H467 H 0.52879 0.10979 0.10255 0.0
H468 H 0.33722 0.53236 0.09046 0.0
H469 H 0.3046 0.52816 0.06842 0.0
H470 H 0.2985 0.48027 0.99714 0.0
H471 H 0.3312 0.48456 0.01872 0.0
H472 H 0.29259 0.50746 0.96167 0.0
H473 H 0.26663 0.4696 0.0705 0.0
H474 H 0.26535 0.46373 0.1354 0.0
H475 H 0.25565 0.51497 0.15308 0.0
H476 H 0.25715 0.52132 0.08829 0.0
H477 H 0.17587 0.47962 0.96999 0.0
H478 H 0.2049 0.47585 0.99 0.0
H479 H 0.2471 0.53364 0.93946 0.0
H480 H 0.21813 0.53719 0.91855 0.0
H481 H 0.2336 0.49823 0.03512 0.0
H482 H 0.2925 0.53634 0.92079 0.0
H483 H 0.29302 0.54024 0.8554 0.0
H484 H 0.235 0.48399 0.84758 0.0
H485 H 0.23424 0.47966 0.91287 0.0
C486 C 0.32871 0.52057 0.07074 0.0
C487 C 0.3369 0.50879 0.05646 0.0
C488 C 0.31002 0.51821 0.05805 0.0
C489 C 0.299 0.5039 0.03097 0.0
C490 C 0.3067 0.4915 0.01786 0.0
C491 C 0.32537 0.49385 0.03049 0.0
C492 C 0.28017 0.50274 0.01482 0.0
C493 C 0.27967 0.50536 0.97777 0.0
C494 C 0.26314 0.49984 0.03558 0.0
C495 C 0.26218 0.49604 0.07455 0.0
C496 C 0.26438 0.47971 0.08824 0.0
C497 C 0.26358 0.47628 0.12501 0.0
C498 C 0.26046 0.489 0.14835 0.0
C499 C 0.25808 0.50515 0.13497 0.0
C500 C 0.25888 0.50865 0.09822 0.0
C501 C 0.1913 0.49128 0.96233 0.0
C502 C 0.19459 0.50866 0.94245 0.0
C503 C 0.20794 0.48919 0.97409 0.0
C504 C 0.22832 0.50443 0.96634 0.0
C505 C 0.2316 0.52145 0.94541 0.0
C506 C 0.21495 0.52346 0.93339 0.0
C507 C 0.24606 0.50311 0.98194 0.0
C508 C 0.24644 0.50017 0.01895 0.0
C509 C 0.26288 0.50549 0.96107 0.0
C510 C 0.26325 0.50779 0.92174 0.0
C511 C 0.27991 0.52477 0.90508 0.0
C512 C 0.28023 0.52706 0.86805 0.0
C513 C 0.26403 0.51239 0.84736 0.0
C514 C 0.2475 0.49537 0.86365 0.0
C515 C 0.2471 0.49301 0.90068 0.0
H516 H 0.26431 0.5142 0.81869 0.0
H517 H 0.25985 0.48632 0.17681 0.0
H518 H 0.85156 0.31988 0.38185 0.0
H519 H 0.82253 0.28713 0.3616 0.0
H520 H 0.78065 0.30888 0.38879 0.0
H521 H 0.80939 0.3409 0.41118 0.0
H522 H 0.76137 0.27145 0.39998 0.0
H523 H 0.80075 0.31011 0.29939 0.0
H524 H 0.83156 0.32932 0.26169 0.0
H525 H 0.83744 0.27525 0.25246 0.0
H526 H 0.80678 0.25578 0.29049 0.0
H527 H 0.68568 0.21506 0.26325 0.0
H528 H 0.71771 0.24377 0.28642 0.0
H529 H 0.73642 0.20106 0.32362 0.0
H530 H 0.70404 0.17207 0.30147 0.0
H531 H 0.76728 0.24708 0.28002 0.0
H532 H 0.72384 0.20972 0.38497 0.0
H533 H 0.69065 0.19407 0.41697 0.0
H534 H 0.69024 0.25119 0.40989 0.0
H535 H 0.72324 0.26703 0.37721 0.0
C536 C 0.83609 0.31743 0.38431 0.0
C537 C 0.83282 0.33302 0.39818 0.0
C538 C 0.81947 0.29878 0.37222 0.0
C539 C 0.79927 0.29558 0.37246 0.0
C540 C 0.79596 0.31079 0.38803 0.0
C541 C 0.81248 0.32917 0.40098 0.0
C542 C 0.78172 0.27692 0.35547 0.0
C543 C 0.76283 0.26627 0.37373 0.0
C544 C 0.78319 0.26993 0.32095 0.0
C545 C 0.80162 0.28157 0.29812 0.0
C546 C 0.8087 0.30237 0.28952 0.0
C547 C 0.82612 0.31329 0.26807 0.0
C548 C 0.83649 0.30353 0.25478 0.0
C549 C 0.82942 0.2828 0.26283 0.0
C550 C 0.81201 0.27181 0.28432 0.0
C551 C 0.69679 0.21173 0.27554 0.0
C552 C 0.69225 0.1912 0.28044 0.0
C553 C 0.71505 0.22819 0.28898 0.0
C554 C 0.72932 0.22451 0.30702 0.0
C555 C 0.72555 0.20419 0.30988 0.0
C556 C 0.70707 0.18766 0.29706 0.0
C557 C 0.74743 0.24181 0.32485 0.0
C558 C 0.7662 0.25223 0.30653 0.0
C559 C 0.74568 0.24906 0.35869 0.0
C560 C 0.72586 0.23947 0.37829 0.0
C561 C 0.71654 0.21885 0.38983 0.0
C562 C 0.69779 0.20997 0.40817 0.0
C563 C 0.68834 0.22163 0.4154 0.0
C564 C 0.69758 0.24217 0.40424 0.0
C565 C 0.71629 0.2511 0.38581 0.0
H566 H 0.67393 0.2148 0.42983 0.0
H567 H 0.84997 0.31201 0.23816 0.0
H568 H 0.54196 0.84904 0.69277 0.0
H569 H 0.54471 0.81946 0.6726 0.0
H570 H 0.49126 0.77877 0.73493 0.0
H571 H 0.48861 0.80832 0.75571 0.0
H572 H 0.51719 0.76477 0.73583 0.0
H573 H 0.48641 0.78534 0.64557 0.0
H574 H 0.48307 0.80913 0.60414 0.0
H575 H 0.53919 0.8218 0.55199 0.0
H576 H 0.54286 0.79803 0.59322 0.0
H577 H 0.48591 0.68488 0.58278 0.0
H578 H 0.4902 0.71763 0.60424 0.0
H579 H 0.54179 0.72661 0.66857 0.0
H580 H 0.53721 0.69359 0.64795 0.0
H581 H 0.51681 0.75654 0.60453 0.0
H582 H 0.54191 0.74803 0.74716 0.0
H583 H 0.53714 0.72047 0.7891 0.0
H584 H 0.48039 0.67825 0.7374 0.0
H585 H 0.48478 0.7055 0.69526 0.0
C586 C 0.53108 0.83387 0.70294 0.0
C587 C 0.51499 0.83111 0.72577 0.0
C588 C 0.53256 0.8169 0.69108 0.0
C589 C 0.51791 0.79676 0.70152 0.0
C590 C 0.5027 0.7941 0.72628 0.0
C591 C 0.50124 0.81108 0.73826 0.0
C592 C 0.51766 0.77844 0.68502 0.0
C593 C 0.51731 0.7631 0.70713 0.0
C594 C 0.51708 0.77576 0.64753 0.0
C595 C 0.51503 0.7901 0.62271 0.0
C596 C 0.49812 0.79332 0.62543 0.0
C597 C 0.49615 0.80678 0.60195 0.0
C598 C 0.51098 0.81709 0.57558 0.0
C599 C 0.52775 0.81385 0.5725 0.0
C600 C 0.52976 0.80034 0.59586 0.0
C601 C 0.49847 0.69402 0.60087 0.0
C602 C 0.51112 0.68648 0.61377 0.0
C603 C 0.50088 0.71278 0.61326 0.0
C604 C 0.51602 0.72447 0.63876 0.0
C605 C 0.52965 0.7177 0.64962 0.0
C606 C 0.52715 0.69886 0.63747 0.0
C607 C 0.51677 0.74302 0.65534 0.0
C608 C 0.51709 0.75838 0.63324 0.0
C609 C 0.51645 0.74529 0.69285 0.0
C610 C 0.51382 0.72875 0.71783 0.0
C611 C 0.52843 0.73285 0.74475 0.0
C612 C 0.5258 0.71727 0.76851 0.0
C613 C 0.50852 0.69758 0.76578 0.0
C614 C 0.49383 0.69343 0.7393 0.0
C615 C 0.49641 0.70893 0.71543 0.0
H616 H 0.50646 0.68557 0.78426 0.0
H617 H 0.50942 0.82753 0.55745 0.0
H618 H 0.69423 0.48756 0.09877 0.0
H619 H 0.72729 0.49126 0.08067 0.0
H620 H 0.73306 0.53447 0.99884 0.0
H621 H 0.70048 0.53136 0.01754 0.0
H622 H 0.73682 0.48032 0.02265 0.0
H623 H 0.78242 0.56581 0.97465 0.0
H624 H 0.78702 0.5997 0.99171 0.0
H625 H 0.76932 0.57837 0.09922 0.0
H626 H 0.76488 0.54446 0.08293 0.0
H627 H 0.81564 0.48832 0.91123 0.0
H628 H 0.78703 0.49231 0.93291 0.0
H629 H 0.82602 0.53309 0.01564 0.0
H630 H 0.85482 0.52974 0.99336 0.0
H631 H 0.80111 0.54567 0.99577 0.0
H632 H 0.79254 0.48042 0.03054 0.0
H633 H 0.79001 0.44655 0.02162 0.0
H634 H 0.73666 0.42738 0.95558 0.0
H635 H 0.73906 0.46126 0.96369 0.0
C636 C 0.70281 0.49829 0.07757 0.0
C637 C 0.69466 0.50921 0.05977 0.0
C638 C 0.72167 0.50025 0.06698 0.0
C639 C 0.73284 0.51316 0.03829 0.0
C640 C 0.72507 0.52467 0.0214 0.0
C641 C 0.70632 0.52285 0.03217 0.0
C642 C 0.75178 0.51351 0.02447 0.0
C643 C 0.75085 0.49466 0.01688 0.0
C644 C 0.77036 0.53212 0.01736 0.0
C645 C 0.77312 0.55252 0.02745 0.0
C646 C 0.77958 0.56838 1.00195 0.0
C647 C 0.78214 0.58758 0.01149 0.0
C648 C 0.77839 0.59116 0.0465 0.0
C649 C 0.77213 0.57555 0.07208 0.0
C650 C 0.76956 0.55633 0.06269 0.0
C651 C 0.81828 0.49853 0.9335 0.0
C652 C 0.83756 0.50861 0.95062 0.0
C653 C 0.80182 0.50065 0.94614 0.0
C654 C 0.80412 0.51258 0.9766 0.0
C655 C 0.82371 0.5237 0.99227 0.0
C656 C 0.84024 0.52178 0.97941 0.0
C657 C 0.78595 0.51252 0.99337 0.0
C658 C 0.78703 0.53138 1.0015 0.0
C659 C 0.76773 0.4939 1.00212 0.0
C660 C 0.7661 0.47344 0.99745 0.0
C661 C 0.78034 0.46902 0.01394 0.0
C662 C 0.77893 0.44982 0.00905 0.0
C663 C 0.76321 0.43484 0.98798 0.0
C664 C 0.74884 0.43901 0.97185 0.0
C665 C 0.75021 0.4582 0.9766 0.0
H666 H 0.76213 0.41999 0.98422 0.0
H667 H 0.78038 0.60604 0.05382 0.0
H668 H 0.21699 0.6865 0.4199 0.0
H669 H 0.24588 0.719 0.39896 0.0
H670 H 0.20358 0.73376 0.34627 0.0
H671 H 0.17468 0.70076 0.36585 0.0
H672 H 0.23217 0.74111 0.30254 0.0
H673 H 0.23318 0.75968 0.42498 0.0
H674 H 0.234 0.75599 0.49022 0.0
H675 H 0.29201 0.7577 0.48199 0.0
H676 H 0.2914 0.76113 0.41666 0.0
H677 H 0.3313 0.85143 0.32051 0.0
H678 H 0.29845 0.82336 0.34223 0.0
H679 H 0.30251 0.78168 0.26778 0.0
H680 H 0.3352 0.8098 0.24547 0.0
H681 H 0.2916 0.79003 0.37602 0.0
H682 H 0.25497 0.74187 0.24828 0.0
H683 H 0.25299 0.74745 0.18389 0.0
H684 H 0.26372 0.80849 0.20456 0.0
H685 H 0.26549 0.80319 0.26908 0.0
C686 C 0.21378 0.69687 0.40458 0.0
C687 C 0.19346 0.69102 0.39472 0.0
C688 C 0.23039 0.71555 0.39256 0.0
C689 C 0.22708 0.7291 0.37109 0.0
C690 C 0.20669 0.72364 0.36259 0.0
C691 C 0.19011 0.70481 0.37409 0.0
C692 C 0.24482 0.74824 0.35567 0.0
C693 C 0.24509 0.75182 0.31876 0.0
C694 C 0.26173 0.76251 0.37657 0.0
C695 C 0.26215 0.7605 0.41588 0.0
C696 C 0.24604 0.75913 0.43706 0.0
C697 C 0.24648 0.75711 0.47406 0.0
C698 C 0.26302 0.75657 0.49023 0.0
C699 C 0.27919 0.7581 0.46944 0.0
C700 C 0.27882 0.76011 0.43242 0.0
C701 C 0.32499 0.83641 0.30811 0.0
C702 C 0.33594 0.83294 0.28111 0.0
C703 C 0.30623 0.8203 0.3208 0.0
C704 C 0.29789 0.80029 0.30681 0.0
C705 C 0.30838 0.79697 0.27881 0.0
C706 C 0.32713 0.81312 0.26599 0.0
C707 C 0.27898 0.78273 0.32296 0.0
C708 C 0.27857 0.77939 0.35992 0.0
C709 C 0.26178 0.76891 0.30224 0.0
C710 C 0.26056 0.77218 0.2635 0.0
C711 C 0.25683 0.75646 0.23909 0.0
C712 C 0.25576 0.75957 0.20257 0.0
C713 C 0.25829 0.77833 0.19013 0.0
C714 C 0.26184 0.79399 0.21421 0.0
C715 C 0.26291 0.79095 0.25076 0.0
H716 H 0.25746 0.78072 0.16185 0.0
H717 H 0.26333 0.755 0.51889 0.0
H718 H 0.54492 0.21569 0.75646 0.0
H719 H 0.53935 0.24334 0.73498 0.0
H720 H 0.48482 0.1988 0.67907 0.0
H721 H 0.49088 0.17115 0.69933 0.0
H722 H 0.50575 0.22831 0.63625 0.0
H723 H 0.48413 0.22682 0.75648 0.0
H724 H 0.48666 0.22699 0.82205 0.0
H725 H 0.54098 0.28683 0.81842 0.0
H726 H 0.53894 0.28692 0.75279 0.0
H727 H 0.48977 0.32514 0.65092 0.0
H728 H 0.48517 0.29226 0.67265 0.0
H729 H 0.53352 0.29843 0.60252 0.0
H730 H 0.53791 0.33111 0.58018 0.0
H731 H 0.51101 0.28596 0.70914 0.0
H732 H 0.52821 0.25185 0.58338 0.0
H733 H 0.52226 0.25006 0.51847 0.0
H734 H 0.47004 0.25824 0.53449 0.0
H735 H 0.4755 0.2598 0.5995 0.0
C736 C 0.53144 0.21168 0.74035 0.0
C737 C 0.51831 0.19113 0.72978 0.0
C738 C 0.52824 0.22758 0.728 0.0
C739 C 0.51156 0.2233 0.70541 0.0
C740 C 0.49787 0.20263 0.69626 0.0
C741 C 0.50124 0.18677 0.70816 0.0
C742 C 0.5092 0.24043 0.68948 0.0
C743 C 0.5068 0.24084 0.65232 0.0
C744 C 0.51024 0.25675 0.7102 0.0
C745 C 0.51146 0.2568 0.74969 0.0
C746 C 0.49669 0.23996 0.76965 0.0
C747 C 0.49802 0.24002 0.80684 0.0
C748 C 0.51399 0.25689 0.82438 0.0
C749 C 0.52863 0.27377 0.80479 0.0
C750 C 0.52737 0.27378 0.7676 0.0
C751 C 0.49907 0.31926 0.63939 0.0
C752 C 0.51419 0.33082 0.61367 0.0
C753 C 0.49654 0.30049 0.65211 0.0
C754 C 0.509 0.29275 0.63941 0.0
C755 C 0.52348 0.30382 0.61253 0.0
C756 C 0.52596 0.32256 0.59968 0.0
C757 C 0.50787 0.27396 0.65594 0.0
C758 C 0.50975 0.27331 0.69316 0.0
C759 C 0.5059 0.25721 0.63538 0.0
C760 C 0.5024 0.25613 0.59631 0.0
C761 C 0.51541 0.25318 0.57306 0.0
C762 C 0.51213 0.25222 0.53625 0.0
C763 C 0.49582 0.2541 0.52236 0.0
C764 C 0.48271 0.25687 0.54527 0.0
C765 C 0.48591 0.25782 0.5821 0.0
H766 H 0.49331 0.25336 0.49385 0.0
H767 H 0.515 0.2569 0.85317 0.0
H768 H 0.42982 0.49489 0.08035 0.0
H769 H 0.45776 0.48672 0.08245 0.0
H770 H 0.50125 0.55028 0.10653 0.0
H771 H 0.4737 0.55856 0.10437 0.0
H772 H 0.51568 0.53628 0.05452 0.0
H773 H 0.48525 0.51282 0.17059 0.0
H774 H 0.45694 0.49255 0.21272 0.0
H775 H 0.44714 0.43634 0.16449 0.0
H776 H 0.47523 0.4563 0.12176 0.0
H777 H 0.60215 0.52384 0.09419 0.0
H778 H 0.57449 0.53232 0.0979 0.0
H779 H 0.52921 0.4679 0.08606 0.0
H780 H 0.55648 0.45933 0.08375 0.0
H781 H 0.51575 0.48282 0.13287 0.0
H782 H 0.5445 0.50508 0.01573 0.0
H783 H 0.57192 0.52447 0.97162 0.0
H784 H 0.5838 0.58162 0.01888 0.0
H785 H 0.55661 0.56255 0.06355 0.0
C786 C 0.44529 0.50707 0.08642 0.0
C787 C 0.44942 0.52738 0.09215 0.0
C788 C 0.46127 0.50239 0.08765 0.0
C789 C 0.48168 0.51789 0.09472 0.0
C790 C 0.48572 0.53806 0.10087 0.0
C791 C 0.46984 0.54273 0.09975 0.0
C792 C 0.49901 0.51342 0.09489 0.0
C793 C 0.51581 0.52475 0.07198 0.0
C794 C 0.49904 0.49807 0.11701 0.0
C795 C 0.48221 0.48606 0.14276 0.0
C796 C 0.47695 0.49614 0.1688 0.0
C797 C 0.46097 0.48471 0.19281 0.0
C798 C 0.45021 0.46317 0.19122 0.0
C799 C 0.45546 0.45302 0.16567 0.0
C800 C 0.47143 0.46439 0.14156 0.0
C801 C 0.5863 0.51151 0.09255 0.0
C802 C 0.58163 0.49091 0.08865 0.0
C803 C 0.57045 0.51637 0.09445 0.0
C804 C 0.54962 0.50079 0.09177 0.0
C805 C 0.54504 0.48025 0.0883 0.0
C806 C 0.56076 0.47538 0.08688 0.0
C807 C 0.53248 0.50562 0.09233 0.0
C808 C 0.51569 0.49437 0.11539 0.0
C809 C 0.53235 0.52089 0.07004 0.0
C810 C 0.54868 0.53238 0.0432 0.0
C811 C 0.55307 0.52178 0.01687 0.0
C812 C 0.56855 0.53271 0.99174 0.0
C813 C 0.57963 0.55426 0.99251 0.0
C814 C 0.57522 0.56493 0.01835 0.0
C815 C 0.55977 0.55407 0.04356 0.0
H816 H 0.59161 0.5627 0.97304 0.0
H817 H 0.43784 0.45435 0.20984 0.0
H818 H 0.92308 0.46223 0.4687 0.0
H819 H 0.95831 0.49118 0.47048 0.0
H820 H 0.97713 0.45956 0.39657 0.0
H821 H 0.94198 0.42999 0.39639 0.0
H822 H 1.00667 0.47891 0.43862 0.0
H823 H 0.96669 0.49994 0.3712 0.0
H824 H 0.93779 0.50582 0.35771 0.0
H825 H 0.95501 0.54797 0.44553 0.0
H826 H 0.98387 0.54213 0.45985 0.0
H827 H 0.08513 0.59352 0.38532 0.0
H828 H 0.04947 0.56479 0.38561 0.0
H829 H 0.06184 0.54122 0.48201 0.0
H830 H 0.09759 0.56916 0.48058 0.0
H831 H 0.0169 0.54933 0.42284 0.0
H832 H 0.03688 0.49003 0.48545 0.0
H833 H 0.06616 0.48365 0.48758 0.0
H834 H 0.08954 0.51707 0.38955 0.0
H835 H 0.06027 0.5234 0.38658 0.0
C836 C 0.9348 0.46132 0.45323 0.0
C837 C 0.92972 0.44383 0.43232 0.0
C838 C 0.95495 0.47801 0.45394 0.0
C839 C 0.97043 0.478 0.4328 0.0
C840 C 0.96555 0.46014 0.413 0.0
C841 C 0.94544 0.44318 0.41295 0.0
C842 C 0.9915 0.49667 0.43098 0.0
C843 C 1.00883 0.49428 0.4352 0.0
C844 C 0.99462 0.51683 0.42534 0.0
C845 C 0.97733 0.52045 0.41679 0.0
C846 C 0.96424 0.51036 0.38778 0.0
C847 C 0.94787 0.5137 0.37997 0.0
C848 C 0.94454 0.52722 0.40081 0.0
C849 C 0.9576 0.53748 0.42944 0.0
C850 C 0.97397 0.53418 0.4374 0.0
C851 C 0.08008 0.58239 0.40689 0.0
C852 C 0.09418 0.58352 0.4328 0.0
C853 C 0.0597 0.56589 0.407 0.0
C854 C 0.05297 0.55036 0.43326 0.0
C855 C 0.0667 0.55249 0.4607 0.0
C856 C 0.08712 0.56864 0.46012 0.0
C857 C 0.03199 0.53158 0.43138 0.0
C858 C 0.0147 0.53396 0.42635 0.0
C859 C 0.02895 0.51132 0.43467 0.0
C860 C 0.04648 0.50736 0.43602 0.0
C861 C 0.04822 0.49594 0.46428 0.0
C862 C 0.06483 0.49235 0.46564 0.0
C863 C 0.07974 0.50001 0.43878 0.0
C864 C 0.07803 0.51121 0.41041 0.0
C865 C 0.06144 0.51482 0.40889 0.0
H866 H 0.09259 0.49723 0.4399 0.0
H867 H 0.93186 0.52978 0.39472 0.0
H868 H 0.50593 0.08513 0.74472 0.0
H869 H 0.4973 0.04883 0.74529 0.0
H870 H 0.55966 0.06731 0.77573 0.0
H871 H 0.56839 0.10332 0.7751 0.0
H872 H 0.54716 0.04001 0.72198 0.0
H873 H 0.52018 0.04505 0.83577 0.0
H874 H 0.49884 0.05267 0.87605 0.0
H875 H 0.44418 1.00803 0.82174 0.0
H876 H 0.46523 1.00034 0.78082 0.0
H877 H 0.53167 0.93933 0.75909 0.0
H878 H 0.5407 0.97565 0.76388 0.0
H879 H 0.47724 0.95828 0.7452 0.0
H880 H 0.46808 0.92229 0.74174 0.0
H881 H 0.49087 0.98543 0.79419 0.0
H882 H 0.51669 0.98093 0.67922 0.0
H883 H 0.53719 0.97332 0.63693 0.0
H884 H 0.59281 0.01674 0.69039 0.0
H885 H 0.5726 0.02442 0.73328 0.0
C886 C 0.51774 0.08145 0.75185 0.0
C887 C 0.53786 0.09724 0.75983 0.0
C888 C 0.51279 0.06067 0.7522 0.0
C889 C 0.52783 0.05528 0.76062 0.0
C890 C 0.5478 0.07102 0.76899 0.0
C891 C 0.55273 0.09167 0.76874 0.0
C892 C 0.5231 0.03338 0.75999 0.0
C893 C 0.535 0.02812 0.73811 0.0
C894 C 0.50697 0.01771 0.78037 0.0
C895 C 0.4943 0.02227 0.80502 0.0
C896 C 0.50363 0.03698 0.83224 0.0
C897 C 0.49158 0.04129 0.85522 0.0
C898 C 0.47018 0.03088 0.8514 0.0
C899 C 0.46077 0.0161 0.82464 0.0
C900 C 0.47274 0.01175 0.80157 0.0
C901 C 0.51967 0.94329 0.75613 0.0
C902 C 0.49916 0.92781 0.75004 0.0
C903 C 0.52485 0.96409 0.75867 0.0
C904 C 0.5097 0.96988 0.75449 0.0
C905 C 0.48925 0.95437 0.74868 0.0
C906 C 0.48405 0.93368 0.7466 0.0
C907 C 0.51486 0.99195 0.75597 0.0
C908 C 0.50306 0.99728 0.77804 0.0
C909 C 0.53094 1.00765 0.73545 0.0
C910 C 0.54312 1.00308 0.70968 0.0
C911 C 0.53328 0.98874 0.68211 0.0
C912 C 0.54485 0.98443 0.65801 0.0
C913 C 0.56629 0.99449 0.66104 0.0
C914 C 0.5762 1.00893 0.68811 0.0
C915 C 0.5647 0.01328 0.71231 0.0
H916 H 0.57522 0.99114 0.64235 0.0
H917 H 0.46088 0.03424 0.86921 0.0
H918 H 0.52435 0.59372 0.58345 0.0
H919 H 0.53342 0.56635 0.5803 0.0
H920 H 0.46923 0.52021 0.58902 0.0
H921 H 0.46006 0.54716 0.5919 0.0
H922 H 0.49364 0.51232 0.63395 0.0
H923 H 0.49214 0.52924 0.51052 0.0
H924 H 0.50205 0.55258 0.45862 0.0
H925 H 0.56516 0.56824 0.47175 0.0
H926 H 0.55567 0.54522 0.52411 0.0
H927 H 0.50009 0.42286 0.59226 0.0
H928 H 0.49059 0.44988 0.59101 0.0
H929 H 0.55367 0.49551 0.56841 0.0
H930 H 0.56311 0.46875 0.56867 0.0
H931 H 0.52977 0.50389 0.53026 0.0
H932 H 0.53218 0.48817 0.65376 0.0
H933 H 0.5232 0.46592 0.70703 0.0
H934 H 0.4597 0.44918 0.69544 0.0
H935 H 0.46827 0.47114 0.6418 0.0
C936 C 0.51218 0.57775 0.58461 0.0
C937 C 0.49147 0.57271 0.58781 0.0
C938 C 0.51737 0.56212 0.58273 0.0
C939 C 0.50197 0.54119 0.58433 0.0
C940 C 0.48138 0.5362 0.58779 0.0
C941 C 0.47618 0.55171 0.58927 0.0
C942 C 0.50711 0.52434 0.58256 0.0
C943 C 0.50134 0.51034 0.6111 0.0
C944 C 0.51752 0.52196 0.55311 0.0
C945 C 0.52323 0.53568 0.52147 0.0
C946 C 0.50816 0.53779 0.50253 0.0
C947 C 0.51369 0.55094 0.47299 0.0
C948 C 0.53423 0.56193 0.46196 0.0
C949 C 0.54926 0.55974 0.48037 0.0
C950 C 0.54381 0.54664 0.50996 0.0
C951 C 0.51189 0.43862 0.58672 0.0
C952 C 0.53239 0.44356 0.58075 0.0
C953 C 0.50647 0.45411 0.58623 0.0
C954 C 0.52147 0.47488 0.58015 0.0
C955 C 0.54178 0.47968 0.57319 0.0
C956 C 0.54717 0.46427 0.57349 0.0
C957 C 0.51631 0.49178 0.58173 0.0
C958 C 0.52207 0.50582 0.55315 0.0
C959 C 0.50603 0.49431 0.61131 0.0
C960 C 0.50083 0.48111 0.64355 0.0
C961 C 0.51627 0.47962 0.66242 0.0
C962 C 0.51126 0.46708 0.6927 0.0
C963 C 0.49088 0.4561 0.70455 0.0
C964 C 0.47548 0.45767 0.68619 0.0
C965 C 0.4804 0.47016 0.65586 0.0
H966 H 0.48703 0.44641 0.72801 0.0
H967 H 0.53848 0.5721 0.43909 0.0
H968 H 0.10279 0.55317 0.90402 0.0
H969 H 0.0668 0.54398 0.90169 0.0
H970 H 0.04836 0.47958 0.91077 0.0
H971 H 0.0848 0.48869 0.91349 0.0
H972 H 0.02523 0.48895 0.85883 0.0
H973 H 0.04521 0.50156 0.98177 0.0
H974 H 0.06753 0.52119 0.03215 0.0
H975 H 0.0578 0.57189 0.00839 0.0
H976 H 0.03567 0.55268 0.95749 0.0
H977 H 0.92139 0.45525 0.9049 0.0
H978 H 0.95677 0.46237 0.90181 0.0
H979 H 0.97874 0.52754 0.91162 0.0
H980 H 0.94309 0.52046 0.91562 0.0
H981 H 1.0001 0.51683 0.95412 0.0
H982 H 0.9806 0.50505 0.83132 0.0
H983 H 0.95882 0.48626 0.77987 0.0
H984 H 0.96806 0.43505 0.80176 0.0
H985 H 0.98964 0.45341 0.8537 0.0
C986 C 0.0912 0.53697 0.9053 0.0
C987 C 0.09682 0.52167 0.90921 0.0
C988 C 0.07055 0.53178 0.90401 0.0
C989 C 0.05485 0.51114 0.90649 0.0
C990 C 0.06025 0.49565 0.90893 0.0
C991 C 0.08107 0.50086 0.9105 0.0
C992 C 0.03296 0.50615 0.90776 0.0
C993 C 0.0196 0.49472 0.87996 0.0
C994 C 0.02579 0.51422 0.93477 0.0
C995 C 0.03893 0.52574 0.9656 0.0
C996 C 0.04796 0.51696 0.9871 0.0
C997 C 0.06056 0.528 0.01579 0.0
C998 C 0.06412 0.54779 0.02342 0.0
C999 C 0.05504 0.55656 1.00243 0.0
C1000 C 0.04246 0.5456 0.97367 0.0
C1001 C 0.93367 0.47116 0.90612 0.0
C1002 C 0.92928 0.48729 0.91044 0.0
C1003 C 0.95399 0.47521 0.90417 0.0
C1004 C 0.97055 0.49552 0.90603 0.0
C1005 C 0.96627 0.51172 0.91004 0.0
C1006 C 0.94585 0.50767 0.91215 0.0
C1007 C 0.99224 0.49965 0.90504 0.0
C1008 C 1.00563 0.51097 0.93296 0.0
C1009 C 0.99944 0.49156 0.878 0.0
C1010 C 0.98659 0.48053 0.84662 0.0
C1011 C 0.97786 0.48972 0.82533 0.0
C1012 C 0.96557 0.47916 0.79605 0.0
C1013 C 0.96202 0.45946 0.7876 0.0
C1014 C 0.9708 0.4503 0.80836 0.0
C1015 C 0.98308 0.46079 0.83771 0.0
H1016 H 0.9525 0.4513 0.76492 0.0
H1017 H 0.07388 0.55632 0.04563 0.0
H1018 H 0.47006 0.92242 0.21911 0.0
H1019 H 0.49714 0.9584 0.21913 0.0
H1020 H 0.45497 0.97597 0.26301 0.0
H1021 H 0.42744 0.93959 0.26315 0.0
H1022 H 0.48045 1.00295 0.2093 0.0
H1023 H 0.48837 0.9729 0.31703 0.0
H1024 H 0.49169 0.94703 0.35292 0.0
H1025 H 0.54693 0.9608 0.29644 0.0
H1026 H 0.54378 0.98655 0.25983 0.0
H1027 H 0.55504 0.10268 0.2651 0.0
H1028 H 0.52709 0.06724 0.26117 0.0
H1029 H 0.57038 0.04747 0.23308 0.0
H1030 H 0.59883 0.0832 0.23846 0.0
H1031 H 0.54391 0.02135 0.27816 0.0
H1032 H 0.53644 0.05177 0.17055 0.0
H1033 H 0.53292 0.07731 0.13397 0.0
H1034 H 0.47695 0.0627 0.18873 0.0
H1035 H 0.48028 0.0373 0.22601 0.0
C1036 C 0.46636 0.93385 0.2286 0.0
C1037 C 0.44649 0.92797 0.24143 0.0
C1038 C 0.48197 0.95449 0.22867 0.0
C1039 C 0.47824 0.96989 0.24162 0.0
C1040 C 0.45824 0.96432 0.25305 0.0
C1041 C 0.44251 0.94352 0.2531 0.0
C1042 C 0.49549 0.99163 0.24398 0.0
C1043 C 0.49421 1.00706 0.22474 0.0
C1044 C 0.51372 0.99691 0.26333 0.0
C1045 C 0.51573 0.98152 0.28546 0.0
C1046 C 0.50114 0.9703 0.31207 0.0
C1047 C 0.503 0.95567 0.33258 0.0
C1048 C 0.51948 0.95224 0.3269 0.0
C1049 C 0.53416 0.96346 0.30077 0.0
C1050 C 0.53235 0.97809 0.28016 0.0
C1051 C 0.55873 0.09088 0.25785 0.0
C1052 C 0.57927 0.0959 0.25181 0.0
C1053 C 0.5426 0.07053 0.2554 0.0
C1054 C 0.54642 0.05458 0.24598 0.0
C1055 C 0.56695 0.05947 0.24017 0.0
C1056 C 0.58322 0.07991 0.24316 0.0
C1057 C 0.529 0.03284 0.24332 0.0
C1058 C 0.53022 0.01734 0.26256 0.0
C1059 C 0.51075 0.02751 0.22381 0.0
C1060 C 0.5087 0.04274 0.20127 0.0
C1061 C 0.52345 0.0541 0.17496 0.0
C1062 C 0.52148 0.06855 0.15408 0.0
C1063 C 0.50474 0.07164 0.15907 0.0
C1064 C 0.48992 0.06029 0.18491 0.0
C1065 C 0.49183 0.04586 0.2059 0.0
H1066 H 0.5032 0.08279 0.14289 0.0
H1067 H 0.52089 0.94091 0.34281 0.0
H1068 H 0.46655 0.64496 0.70512 0.0
H1069 H 0.4555 0.6439 0.76679 0.0
H1070 H 0.407 0.5809 0.75193 0.0
H1071 H 0.41735 0.58245 0.68939 0.0
H1072 H 0.39496 0.59937 0.79826 0.0
H1073 H 0.4562 0.59376 0.783 0.0
H1074 H 0.49158 0.60544 0.76225 0.0
H1075 H 0.51409 0.6606 0.82466 0.0
H1076 H 0.47876 0.6494 0.84528 0.0
H1077 H 0.39074 0.54784 0.95651 0.0
H1078 H 0.39426 0.56265 0.89746 0.0
H1079 H 0.43598 0.62319 0.9391 0.0
H1080 H 0.43255 0.60831 0.99896 0.0
H1081 H 0.45166 0.61306 0.88214 0.0
H1082 H 0.38962 0.61319 0.90732 0.0
H1083 H 0.35398 0.59919 0.92858 0.0
H1084 H 0.33247 0.55175 0.84901 0.0
H1085 H 0.36801 0.56529 0.82751 0.0
C1086 C 0.45318 0.6311 0.71488 0.0
C1087 C 0.44289 0.6137 0.69292 0.0
C1088 C 0.44694 0.63047 0.75006 0.0
C1089 C 0.43084 0.61213 0.76429 0.0
C1090 C 0.41956 0.59519 0.74158 0.0
C1091 C 0.42547 0.59603 0.70594 0.0
C1092 C 0.42732 0.60982 0.80338 0.0
C1093 C 0.40731 0.60231 0.81664 0.0
C1094 C 0.44358 0.61418 0.82752 0.0
C1095 C 0.46483 0.62085 0.81535 0.0
C1096 C 0.46869 0.60844 0.7921 0.0
C1097 C 0.48872 0.61498 0.78036 0.0
C1098 C 0.50506 0.63379 0.79202 0.0
C1099 C 0.50141 0.64607 0.81556 0.0
C1100 C 0.48138 0.63964 0.82727 0.0
C1101 C 0.40052 0.56436 0.95332 0.0
C1102 C 0.41156 0.5769 0.98233 0.0
C1103 C 0.40231 0.57284 0.91955 0.0
C1104 C 0.41518 0.59405 0.91394 0.0
C1105 C 0.42582 0.60679 0.94299 0.0
C1106 C 0.42388 0.59829 0.97709 0.0
C1107 C 0.4192 0.60214 0.87699 0.0
C1108 C 0.43935 0.61065 0.86401 0.0
C1109 C 0.40302 0.5984 0.85319 0.0
C1110 C 0.38154 0.59024 0.86587 0.0
C1111 C 0.37732 0.59969 0.89447 0.0
C1112 C 0.35712 0.59186 0.90654 0.0
C1113 C 0.34097 0.5746 0.89016 0.0
C1114 C 0.34498 0.56514 0.86164 0.0
C1115 C 0.36516 0.57292 0.84945 0.0
H1116 H 0.32534 0.56858 0.89953 0.0
H1117 H 0.52056 0.63883 0.78291 0.0
H1118 H 0.868 0.40017 0.28753 0.0
H1119 H 0.85697 0.40301 0.22817 0.0
H1120 H 0.8119 0.41655 0.27254 0.0
H1121 H 0.82335 0.41419 0.33296 0.0
H1122 H 0.82295 0.38355 0.19128 0.0
H1123 H 0.80784 0.45005 0.21376 0.0
H1124 H 0.8161 0.47835 0.25618 0.0
H1125 H 0.87366 0.48167 0.28105 0.0
H1126 H 0.86579 0.45355 0.23853 0.0
H1127 H 0.81814 0.41756 0.01218 0.0
H1128 H 0.80703 0.40529 0.07354 0.0
H1129 H 0.86393 0.45579 0.11355 0.0
H1130 H 0.87472 0.46819 0.05335 0.0
H1131 H 0.83357 0.45173 0.15323 0.0
H1132 H 0.85545 0.40535 0.1019 0.0
H1133 H 0.85275 0.37911 0.05908 0.0
H1134 H 0.79018 0.33862 0.09136 0.0
H1135 H 0.79249 0.36475 0.13412 0.0
C1136 C 0.85568 0.4037 0.28494 0.0
C1137 C 0.8467 0.40716 0.31511 0.0
C1138 C 0.84923 0.40512 0.25081 0.0
C1139 C 0.83359 0.40997 0.24578 0.0
C1140 C 0.82411 0.41292 0.27579 0.0
C1141 C 0.83069 0.41162 0.31025 0.0
C1142 C 0.82878 0.41343 0.20886 0.0
C1143 C 0.82487 0.39833 0.183 0.0
C1144 C 0.83115 0.43261 0.19796 0.0
C1145 C 0.83608 0.44954 0.22344 0.0
C1146 C 0.82224 0.45684 0.22832 0.0
C1147 C 0.82686 0.47284 0.25234 0.0
C1148 C 0.84535 0.48174 0.27142 0.0
C1149 C 0.85931 0.47471 0.26638 0.0
C1150 C 0.85477 0.45874 0.24236 0.0
C1151 C 0.82822 0.42594 0.03418 0.0
C1152 C 0.84731 0.44382 0.02793 0.0
C1153 C 0.82184 0.41899 0.06916 0.0
C1154 C 0.83461 0.42969 0.0982 0.0
C1155 C 0.85365 0.44743 0.09173 0.0
C1156 C 0.85988 0.45444 0.05714 0.0
C1157 C 0.82916 0.42237 0.13556 0.0
C1158 C 0.83083 0.43665 0.16153 0.0
C1159 C 0.82543 0.40269 0.14649 0.0
C1160 C 0.82404 0.38707 0.12076 0.0
C1161 C 0.84108 0.39091 0.09963 0.0
C1162 C 0.83963 0.37605 0.07543 0.0
C1163 C 0.82128 0.35724 0.0724 0.0
C1164 C 0.80436 0.35322 0.09365 0.0
C1165 C 0.80573 0.36804 0.11786 0.0
H1166 H 0.82018 0.34575 0.05366 0.0
H1167 H 0.8489 0.49411 0.29001 0.0
H1168 H 0.48269 0.84226 0.62148 0.0
H1169 H 0.4728 0.83291 0.55942 0.0
H1170 H 0.41561 0.83211 0.57866 0.0
H1171 H 0.42507 0.84045 0.64163 0.0
H1172 H 0.40983 0.8034 0.53101 0.0
H1173 H 0.45912 0.87586 0.54612 0.0
H1174 H 0.4919 0.90551 0.56624 0.0
H1175 H 0.52559 0.88504 0.50181 0.0
H1176 H 0.49298 0.85513 0.48163 0.0
H1177 H 0.39119 0.84168 0.37304 0.0
H1178 H 0.39814 0.83284 0.43184 0.0
H1179 H 0.44956 0.82884 0.38947 0.0
H1180 H 0.44264 0.83784 0.3299 0.0
H1181 H 0.45999 0.85495 0.44613 0.0
H1182 H 0.40829 0.78579 0.42195 0.0
H1183 H 0.37457 0.75792 0.4013 0.0
H1184 H 0.34416 0.77376 0.48178 0.0
H1185 H 0.37768 0.80191 0.50265 0.0
C1186 C 0.46785 0.83976 0.6126 0.0
C1187 C 0.45475 0.84238 0.63612 0.0
C1188 C 0.46224 0.83445 0.57712 0.0
C1189 C 0.44373 0.83237 0.56414 0.0
C1190 C 0.43003 0.83376 0.58807 0.0
C1191 C 0.43545 0.83859 0.62395 0.0
C1192 C 0.43958 0.83066 0.52523 0.0
C1193 C 0.42074 0.81469 0.51242 0.0
C1194 C 0.45406 0.84511 0.50083 0.0
C1195 C 0.47365 0.86317 0.51267 0.0
C1196 C 0.47353 0.87764 0.53641 0.0
C1197 C 0.49207 0.89448 0.54781 0.0
C1198 C 0.51081 0.89713 0.53538 0.0
C1199 C 0.51106 0.88296 0.51145 0.0
C1200 C 0.49256 0.86606 0.50001 0.0
C1201 C 0.4038 0.83861 0.37602 0.0
C1202 C 0.41653 0.84067 0.34695 0.0
C1203 C 0.40762 0.83334 0.40964 0.0
C1204 C 0.42425 0.83 0.415 0.0
C1205 C 0.43655 0.83123 0.38577 0.0
C1206 C 0.43259 0.83634 0.35183 0.0
C1207 C 0.43007 0.82791 0.45188 0.0
C1208 C 0.44925 0.8433 0.46447 0.0
C1209 C 0.41577 0.81312 0.47599 0.0
C1210 C 0.39554 0.79605 0.46378 0.0
C1211 C 0.39442 0.78342 0.43513 0.0
C1212 C 0.37533 0.76755 0.4234 0.0
C1213 C 0.35724 0.76409 0.44019 0.0
C1214 C 0.3582 0.77645 0.46881 0.0
C1215 C 0.37725 0.79235 0.48066 0.0
H1216 H 0.34247 0.75181 0.43105 0.0
H1217 H 0.52515 0.91018 0.54424 0.0
H1218 H 0.61041 0.43684 0.68032 0.0
H1219 H 0.62229 0.43996 0.74217 0.0
H1220 H 0.57189 0.37881 0.7648 0.0
H1221 H 0.55954 0.37615 0.70379 0.0
H1222 H 0.57145 0.40356 0.81032 0.0
H1223 H 0.62441 0.39178 0.76648 0.0
H1224 H 0.65314 0.39681 0.72778 0.0
H1225 H 0.68925 0.45931 0.76413 0.0
H1226 H 0.66064 0.45477 0.8027 0.0
H1227 H 0.59985 0.41264 0.99244 0.0
H1228 H 0.59555 0.39927 0.93141 0.0
H1229 H 0.6371 0.46068 0.89263 0.0
H1230 H 0.64151 0.47406 0.95305 0.0
H1231 H 0.64226 0.43103 0.85732 0.0
H1232 H 0.58704 0.44376 0.89228 0.0
H1233 H 0.55825 0.43909 0.93053 0.0
H1234 H 0.52641 0.37397 0.90963 0.0
H1235 H 0.55517 0.37825 0.87161 0.0
C1236 C 0.60222 0.42394 0.69839 0.0
C1237 C 0.58399 0.40637 0.68759 0.0
C1238 C 0.60904 0.42566 0.73368 0.0
C1239 C 0.59798 0.40959 0.75826 0.0
C1240 C 0.58059 0.39147 0.74651 0.0
C1241 C 0.57356 0.38996 0.71165 0.0
C1242 C 0.60285 0.41254 0.79695 0.0
C1243 C 0.58687 0.40905 0.82056 0.0
C1244 C 0.62303 0.42017 0.81044 0.0
C1245 C 0.6403 0.42297 0.78731 0.0
C1246 C 0.63842 0.40665 0.76604 0.0
C1247 C 0.6547 0.4094 0.74415 0.0
C1248 C 0.67299 0.42838 0.74344 0.0
C1249 C 0.67506 0.44463 0.76469 0.0
C1250 C 0.65883 0.44196 0.78661 0.0
C1251 C 0.60831 0.42319 0.97095 0.0
C1252 C 0.62074 0.44443 0.97743 0.0
C1253 C 0.60586 0.41555 0.93617 0.0
C1254 C 0.61589 0.42905 0.90753 0.0
C1255 C 0.62926 0.45001 0.91433 0.0
C1256 C 0.63159 0.45765 0.94888 0.0
C1257 C 0.61087 0.42203 0.87013 0.0
C1258 C 0.6268 0.42497 0.84688 0.0
C1259 C 0.59064 0.41383 0.8568 0.0
C1260 C 0.57334 0.41128 0.87952 0.0
C1261 C 0.57397 0.42843 0.89609 0.0
C1262 C 0.55765 0.42586 0.91768 0.0
C1263 C 0.54054 0.40624 0.9226 0.0
C1264 C 0.53969 0.38915 0.90586 0.0
C1265 C 0.55599 0.39164 0.8843 0.0
H1266 H 0.52792 0.40428 0.93931 0.0
H1267 H 0.68557 0.43048 0.72648 0.0
H1268 H 0.1698 0.53709 0.05087 0.0
H1269 H 0.17539 0.54741 0.11314 0.0
H1270 H 0.19004 0.60901 0.08336 0.0
H1271 H 0.18474 0.59881 0.02023 0.0
H1272 H 0.21462 0.60883 0.13872 0.0
H1273 H 0.14294 0.57649 0.11118 0.0
H1274 H 0.10972 0.54951 0.08701 0.0
H1275 H 0.11017 0.50526 0.15967 0.0
H1276 H 0.14356 0.53194 0.18393 0.0
H1277 H 0.18372 0.63663 0.2989 0.0
H1278 H 0.18995 0.62875 0.23875 0.0
H1279 H 0.17889 0.5692 0.27455 0.0
H1280 H 0.17279 0.57715 0.3354 0.0
H1281 H 0.15417 0.56795 0.21697 0.0
H1282 H 0.22568 0.60316 0.248 0.0
H1283 H 0.25799 0.63176 0.27187 0.0
H1284 H 0.25668 0.67268 0.19273 0.0
H1285 H 0.22418 0.64439 0.16868 0.0
C1286 C 0.17437 0.55292 0.0574 0.0
C1287 C 0.17649 0.56708 0.03066 0.0
C1288 C 0.17758 0.55877 0.09306 0.0
C1289 C 0.18272 0.57884 0.10291 0.0
C1290 C 0.18598 0.59341 0.07625 0.0
C1291 C 0.18291 0.58756 0.04027 0.0
C1292 C 0.18323 0.58395 0.14117 0.0
C1293 C 0.20137 0.60006 0.15582 0.0
C1294 C 0.166 0.57225 0.16351 0.0
C1295 C 0.14586 0.55616 0.14911 0.0
C1296 C 0.13604 0.56097 0.1218 0.0
C1297 C 0.11716 0.54574 0.10812 0.0
C1298 C 0.10787 0.52567 0.12173 0.0
C1299 C 0.11741 0.52081 0.14911 0.0
C1300 C 0.1363 0.53598 0.16286 0.0
C1301 C 0.18299 0.622 0.29415 0.0
C1302 C 0.17763 0.60742 0.32172 0.0
C1303 C 0.18668 0.61758 0.2598 0.0
C1304 C 0.18495 0.59844 0.25224 0.0
C1305 C 0.18039 0.58411 0.27998 0.0
C1306 C 0.17698 0.58867 0.31466 0.0
C1307 C 0.18562 0.59273 0.21471 0.0
C1308 C 0.16755 0.57656 0.20005 0.0
C1309 C 0.20279 0.60462 0.19239 0.0
C1310 C 0.22239 0.62167 0.2067 0.0
C1311 C 0.23218 0.6183 0.23586 0.0
C1312 C 0.25056 0.63445 0.24939 0.0
C1313 C 0.25936 0.65404 0.23387 0.0
C1314 C 0.24984 0.6575 0.20473 0.0
C1315 C 0.23145 0.6414 0.19111 0.0
H1316 H 0.27359 0.66652 0.24439 0.0
H1317 H 0.09325 0.5139 0.1111 0.0
H1318 H 0.61483 0.18094 0.66223 0.0
H1319 H 0.62686 0.18942 0.60044 0.0
H1320 H 0.57871 0.20367 0.5783 0.0
H1321 H 0.56612 0.19417 0.63926 0.0
H1322 H 0.57627 0.17753 0.5333 0.0
H1323 H 0.63214 0.24081 0.57521 0.0
H1324 H 0.66184 0.26379 0.61274 0.0
H1325 H 0.69472 0.23396 0.57608 0.0
H1326 H 0.6651 0.21058 0.5387 0.0
H1327 H 0.60405 0.19477 0.3508 0.0
H1328 H 0.60146 0.205 0.41186 0.0
H1329 H 0.63809 0.1791 0.45001 0.0
H1330 H 0.64082 0.16896 0.38948 0.0
H1331 H 0.64716 0.21641 0.48454 0.0
H1332 H 0.58861 0.14988 0.45216 0.0
H1333 H 0.55892 0.12683 0.4146 0.0
H1334 H 0.53129 0.16424 0.43432 0.0
H1335 H 0.561 0.18768 0.47163 0.0
C1336 C 0.60722 0.1864 0.6443 0.0
C1337 C 0.58948 0.18673 0.65516 0.0
C1338 C 0.61413 0.19134 0.60905 0.0
C1339 C 0.60369 0.1972 0.58459 0.0
C1340 C 0.58693 0.19905 0.5965 0.0
C1341 C 0.57976 0.19365 0.63131 0.0
C1342 C 0.60822 0.19852 0.54581 0.0
C1343 C 0.59176 0.18654 0.5227 0.0
C1344 C 0.62845 0.20981 0.53183 0.0
C1345 C 0.6463 0.22381 0.55435 0.0
C1346 C 0.64563 0.23902 0.57537 0.0
C1347 C 0.66247 0.25215 0.59658 0.0
C1348 C 0.68014 0.25031 0.59685 0.0
C1349 C 0.68102 0.23536 0.57586 0.0
C1350 C 0.66421 0.22218 0.55462 0.0
C1351 C 0.61181 0.19157 0.37215 0.0
C1352 C 0.62231 0.18075 0.36549 0.0
C1353 C 0.61036 0.19745 0.40693 0.0
C1354 C 0.61951 0.19268 0.43536 0.0
C1355 C 0.63097 0.18295 0.42841 0.0
C1356 C 0.63232 0.17698 0.39384 0.0
C1357 C 0.61524 0.19551 0.47273 0.0
C1358 C 0.6317 0.20799 0.49542 0.0
C1359 C 0.59501 0.18479 0.48651 0.0
C1360 C 0.57712 0.17065 0.46427 0.0
C1361 C 0.57628 0.15327 0.44823 0.0
C1362 C 0.55944 0.14013 0.42703 0.0
C1363 C 0.54326 0.14411 0.42197 0.0
C1364 C 0.54386 0.16121 0.43819 0.0
C1365 C 0.56069 0.17442 0.45936 0.0
H1366 H 0.53023 0.13391 0.40556 0.0
H1367 H 0.69316 0.26049 0.61328 0.0
loop_
_geom_bond_atom_site_label_1
_geom_bond_atom_site_label_2
_geom_bond_distance
_geom_bond_site_symmetry_2
_ccdc_geom_bond_type
O0 Cd1 2.223 . S
O0 C8 1.315 . S
Cd1 O0 2.223 . S
Cd1 O4 2.297 . S
Cd1 O5 2.439 . S
Cd1 O11 2.240 . S
Cd2 O3 2.240 . S
Cd2 O10 2.223 1_554 S
Cd2 O12 2.297 . S
Cd2 O13 2.439 . S
O3 Cd2 2.240 . S
O3 C8 1.279 . S
O4 Cd1 2.297 . S
O4 C6 1.247 . S
O5 Cd1 2.439 . S
O5 C6 1.208 . S
C6 O4 1.247 . S
C6 O5 1.208 . S
C7 O12 1.247 . S
C7 O13 1.208 . S
C8 O0 1.315 . S
C8 O3 1.279 . S
C9 O10 1.315 1_554 S
C9 O11 1.279 . S
O10 Cd2 2.223 1_556 S
O10 C9 1.315 1_556 S
O11 Cd1 2.240 . S
O11 C9 1.279 . S
O12 Cd2 2.297 . S
O12 C7 1.247 . S
O13 Cd2 2.439 . S
O13 C7 1.208 . S
O14 Cd15 2.223 . S
O14 C22 1.315 . S
Cd15 O14 2.223 . S
Cd15 O18 2.297 . S
Cd15 O19 2.439 . S
Cd15 O25 2.240 . S
Cd16 O17 2.240 . S
Cd16 O24 2.223 . S
Cd16 O26 2.297 . S
Cd16 O27 2.439 . S
O17 Cd16 2.240 . S
O17 C22 1.279 . S
O18 Cd15 2.297 . S
O18 C20 1.247 . S
O19 Cd15 2.439 . S
O19 C20 1.208 . S
C20 O18 1.247 . S
C20 O19 1.208 . S
C21 O26 1.247 . S
C21 O27 1.208 . S
C22 O14 1.315 . S
C22 O17 1.279 . S
C23 O24 1.315 . S
C23 O25 1.279 . S
O24 Cd16 2.223 . S
O24 C23 1.315 . S
O25 Cd15 2.240 . S
O25 C23 1.279 . S
O26 Cd16 2.297 . S
O26 C21 1.247 . S
O27 Cd16 2.439 . S
O27 C21 1.208 . S
O28 Cd29 2.223 . S
O28 C36 1.315 . S
Cd29 O28 2.223 . S
Cd29 O32 2.297 . S
Cd29 O33 2.439 . S
Cd29 O39 2.240 . S
Cd30 O31 2.240 . S
Cd30 O38 2.223 . S
Cd30 O40 2.297 . S
Cd30 O41 2.439 . S
O31 Cd30 2.240 . S
O31 C36 1.279 . S
O32 Cd29 2.297 . S
O32 C34 1.247 . S
O33 Cd29 2.439 . S
O33 C34 1.208 . S
C34 O32 1.247 . S
C34 O33 1.208 . S
C35 O40 1.247 . S
C35 O41 1.208 . S
C36 O28 1.315 . S
C36 O31 1.279 . S
C37 O38 1.315 . S
C37 O39 1.279 . S
O38 Cd30 2.223 . S
O38 C37 1.315 . S
O39 Cd29 2.240 . S
O39 C37 1.279 . S
O40 Cd30 2.297 . S
O40 C35 1.247 . S
O41 Cd30 2.439 . S
O41 C35 1.208 . S
O42 Cd43 2.223 . S
O42 C50 1.315 . S
Cd43 O42 2.223 . S
Cd43 O46 2.297 . S
Cd43 O47 2.439 . S
Cd43 O53 2.240 . S
Cd44 O45 2.240 . S
Cd44 O52 2.223 1_554 S
Cd44 O54 2.297 . S
Cd44 O55 2.439 . S
O45 Cd44 2.240 . S
O45 C50 1.279 . S
O46 Cd43 2.297 . S
O46 C48 1.247 . S
O47 Cd43 2.439 . S
O47 C48 1.208 . S
C48 O46 1.247 . S
C48 O47 1.208 . S
C49 O54 1.247 . S
C49 O55 1.208 . S
C50 O42 1.315 . S
C50 O45 1.279 . S
C51 O52 1.315 1_554 S
C51 O53 1.279 . S
O52 Cd44 2.223 1_556 S
O52 C51 1.315 1_556 S
O53 Cd43 2.240 . S
O53 C51 1.279 . S
O54 Cd44 2.297 . S
O54 C49 1.247 . S
O55 Cd44 2.439 . S
O55 C49 1.208 . S
O56 Cd57 2.223 . S
O56 C64 1.315 . S
Cd57 O56 2.223 . S
Cd57 O60 2.297 . S
Cd57 O61 2.439 . S
Cd57 O67 2.240 . S
Cd58 O59 2.240 . S
Cd58 O66 2.223 . S
Cd58 O68 2.297 . S
Cd58 O69 2.439 . S
O59 Cd58 2.240 . S
O59 C64 1.279 . S
O60 Cd57 2.297 . S
O60 C62 1.247 . S
O61 Cd57 2.439 . S
O61 C62 1.208 . S
C62 O60 1.247 . S
C62 O61 1.208 . S
C63 O68 1.247 . S
C63 O69 1.208 . S
C64 O56 1.315 . S
C64 O59 1.279 . S
C65 O66 1.315 . S
C65 O67 1.279 . S
O66 Cd58 2.223 . S
O66 C65 1.315 . S
O67 Cd57 2.240 . S
O67 C65 1.279 . S
O68 Cd58 2.297 . S
O68 C63 1.247 . S
O69 Cd58 2.439 . S
O69 C63 1.208 . S
O70 Cd71 2.223 . S
O70 C78 1.315 . S
Cd71 O70 2.223 . S
Cd71 O74 2.297 . S
Cd71 O75 2.439 . S
Cd71 O81 2.240 . S
Cd72 O73 2.240 . S
Cd72 O80 2.223 . S
Cd72 O82 2.297 . S
Cd72 O83 2.439 . S
O73 Cd72 2.240 . S
O73 C78 1.279 . S
O74 Cd71 2.297 . S
O74 C76 1.247 . S
O75 Cd71 2.439 . S
O75 C76 1.208 . S
C76 O74 1.247 . S
C76 O75 1.208 . S
C77 O82 1.247 . S
C77 O83 1.208 . S
C78 O70 1.315 . S
C78 O73 1.279 . S
C79 O80 1.315 . S
C79 O81 1.279 . S
O80 Cd72 2.223 . S
O80 C79 1.315 . S
O81 Cd71 2.240 . S
O81 C79 1.279 . S
O82 Cd72 2.297 . S
O82 C77 1.247 . S
O83 Cd72 2.439 . S
O83 C77 1.208 . S
O84 Cd85 2.223 . S
O84 C92 1.315 . S
Cd85 O84 2.223 . S
Cd85 O88 2.297 . S
Cd85 O89 2.439 . S
Cd85 O95 2.240 . S
Cd86 O87 2.240 . S
Cd86 O94 2.223 . S
Cd86 O96 2.297 . S
Cd86 O97 2.439 . S
O87 Cd86 2.240 . S
O87 C92 1.279 . S
O88 Cd85 2.297 . S
O88 C90 1.247 . S
O89 Cd85 2.439 . S
O89 C90 1.208 . S
C90 O88 1.247 . S
C90 O89 1.208 . S
C91 O96 1.247 . S
C91 O97 1.208 . S
C92 O84 1.315 . S
C92 O87 1.279 . S
C93 O94 1.315 . S
C93 O95 1.279 . S
O94 Cd86 2.223 . S
O94 C93 1.315 . S
O95 Cd85 2.240 . S
O95 C93 1.279 . S
O96 Cd86 2.297 . S
O96 C91 1.247 . S
O97 Cd86 2.439 . S
O97 C91 1.208 . S
O98 Cd99 2.223 . S
O98 C106 1.315 . S
Cd99 O98 2.223 . S
Cd99 O102 2.297 . S
Cd99 O103 2.439 . S
Cd99 O109 2.240 . S
Cd100 O101 2.240 . S
Cd100 O108 2.223 1_556 S
Cd100 O110 2.297 . S
Cd100 O111 2.439 . S
O101 Cd100 2.240 . S
O101 C106 1.279 . S
O102 Cd99 2.297 . S
O102 C104 1.247 . S
O103 Cd99 2.439 . S
O103 C104 1.208 . S
C104 O102 1.247 . S
C104 O103 1.208 . S
C105 O110 1.247 . S
C105 O111 1.208 . S
C106 O98 1.315 . S
C106 O101 1.279 . S
C107 O108 1.315 1_556 S
C107 O109 1.279 . S
O108 Cd100 2.223 1_554 S
O108 C107 1.315 1_554 S
O109 Cd99 2.240 . S
O109 C107 1.279 . S
O110 Cd100 2.297 . S
O110 C105 1.247 . S
O111 Cd100 2.439 . S
O111 C105 1.208 . S
O112 Cd113 2.223 . S
O112 C120 1.315 . S
Cd113 O112 2.223 . S
Cd113 O116 2.297 . S
Cd113 O117 2.439 . S
Cd113 O123 2.240 . S
Cd114 O115 2.240 . S
Cd114 O122 2.223 . S
Cd114 O124 2.297 . S
Cd114 O125 2.439 . S
O115 Cd114 2.240 . S
O115 C120 1.279 . S
O116 Cd113 2.297 . S
O116 C118 1.247 . S
O117 Cd113 2.439 . S
O117 C118 1.208 . S
C118 O116 1.247 . S
C118 O117 1.208 . S
C119 O124 1.247 . S
C119 O125 1.208 . S
C120 O112 1.315 . S
C120 O115 1.279 . S
C121 O122 1.315 . S
C121 O123 1.279 . S
O122 Cd114 2.223 . S
O122 C121 1.315 . S
O123 Cd113 2.240 . S
O123 C121 1.279 . S
O124 Cd114 2.297 . S
O124 C119 1.247 . S
O125 Cd114 2.439 . S
O125 C119 1.208 . S
O126 Cd127 2.223 . S
O126 C134 1.315 . S
Cd127 O126 2.223 . S
Cd127 O130 2.297 . S
Cd127 O131 2.439 . S
Cd127 O137 2.240 . S
Cd128 O129 2.240 . S
Cd128 O136 2.223 . S
Cd128 O138 2.297 . S
Cd128 O139 2.439 . S
O129 Cd128 2.240 . S
O129 C134 1.279 . S
O130 Cd127 2.297 . S
O130 C132 1.247 . S
O131 Cd127 2.439 . S
O131 C132 1.208 . S
C132 O130 1.247 . S
C132 O131 1.208 . S
C133 O138 1.247 . S
C133 O139 1.208 . S
C134 O126 1.315 . S
C134 O129 1.279 . S
C135 O136 1.315 . S
C135 O137 1.279 . S
O136 Cd128 2.223 . S
O136 C135 1.315 . S
O137 Cd127 2.240 . S
O137 C135 1.279 . S
O138 Cd128 2.297 . S
O138 C133 1.247 . S
O139 Cd128 2.439 . S
O139 C133 1.208 . S
O140 Cd141 2.223 . S
O140 C148 1.315 . S
Cd141 O140 2.223 . S
Cd141 O144 2.297 . S
Cd141 O145 2.439 . S
Cd141 O151 2.240 . S
Cd142 O143 2.240 . S
Cd142 O150 2.223 1_556 S
Cd142 O152 2.297 . S
Cd142 O153 2.439 . S
O143 Cd142 2.240 . S
O143 C148 1.279 . S
O144 Cd141 2.297 . S
O144 C146 1.247 . S
O145 Cd141 2.439 . S
O145 C146 1.208 . S
C146 O144 1.247 . S
C146 O145 1.208 . S
C147 O152 1.247 . S
C147 O153 1.208 . S
C148 O140 1.315 . S
C148 O143 1.279 . S
C149 O150 1.315 1_556 S
C149 O151 1.279 . S
O150 Cd142 2.223 1_554 S
O150 C149 1.315 1_554 S
O151 Cd141 2.240 . S
O151 C149 1.279 . S
O152 Cd142 2.297 . S
O152 C147 1.247 . S
O153 Cd142 2.439 . S
O153 C147 1.208 . S
O154 Cd155 2.223 . S
O154 C162 1.315 . S
Cd155 O154 2.223 . S
Cd155 O158 2.297 . S
Cd155 O159 2.439 . S
Cd155 O165 2.240 . S
Cd156 O157 2.240 . S
Cd156 O164 2.223 . S
Cd156 O166 2.297 . S
Cd156 O167 2.439 . S
O157 Cd156 2.240 . S
O157 C162 1.279 . S
O158 Cd155 2.297 . S
O158 C160 1.247 . S
O159 Cd155 2.439 . S
O159 C160 1.208 . S
C160 O158 1.247 . S
C160 O159 1.208 . S
C161 O166 1.247 . S
C161 O167 1.208 . S
C162 O154 1.315 . S
C162 O157 1.279 . S
C163 O164 1.315 . S
C163 O165 1.279 . S
O164 Cd156 2.223 . S
O164 C163 1.315 . S
O165 Cd155 2.240 . S
O165 C163 1.279 . S
O166 Cd156 2.297 . S
O166 C161 1.247 . S
O167 Cd156 2.439 . S
O167 C161 1.208 . S
H168 C186 0.951 . S
H169 C188 0.951 . S
H170 C190 0.950 . S
H171 C191 0.950 . S
H172 C193 0.950 . S
H173 C196 0.950 . S
H174 C197 0.950 . S
H175 C199 0.950 . S
H176 C200 0.950 . S
H177 C201 0.951 . S
H178 C203 0.951 . S
H179 C205 0.950 . S
H180 C206 0.950 . S
H181 C208 0.950 . S
H182 C211 0.950 . S
H183 C212 0.950 . S
H184 C214 0.950 . S
H185 C215 0.950 . S
C186 H168 0.951 . S
C186 C187 1.366 . S
C186 C188 1.388 . S
C187 C186 1.366 . S
C187 C191 1.385 . S
C188 H169 0.951 . S
C188 C186 1.388 . S
C188 C189 1.366 . S
C189 C188 1.366 . S
C189 C190 1.414 . S
C189 C192 1.499 . S
C190 H170 0.950 . S
C190 C189 1.414 . S
C190 C191 1.374 . S
C191 H171 0.950 . S
C191 C187 1.385 . S
C191 C190 1.374 . S
C192 C189 1.499 . S
C192 C193 1.373 . S
C192 C194 1.389 . S
C193 H172 0.950 . S
C193 C192 1.373 . S
C193 C209 1.377 . S
C194 C192 1.389 . S
C194 C195 1.524 . S
C194 C208 1.377 . S
C195 C194 1.524 . S
C195 C196 1.397 . S
C195 C200 1.363 . S
C196 H173 0.950 . S
C196 C195 1.397 . S
C196 C197 1.334 . S
C197 H174 0.950 . S
C197 C196 1.334 . S
C197 C198 1.287 . S
C198 C197 1.287 . S
C198 C199 1.524 . S
C198 H217 0.913 . S
C199 H175 0.950 . S
C199 C198 1.524 . S
C199 C200 1.415 . S
C200 H176 0.950 . S
C200 C195 1.363 . S
C200 C199 1.415 . S
C201 H177 0.951 . S
C201 C202 1.366 . S
C201 C203 1.388 . S
C202 C201 1.366 . S
C202 C206 1.385 . S
C203 H178 0.951 . S
C203 C201 1.388 . S
C203 C204 1.366 . S
C204 C203 1.366 . S
C204 C205 1.414 . S
C204 C207 1.499 . S
C205 H179 0.950 . S
C205 C204 1.414 . S
C205 C206 1.374 . S
C206 H180 0.950 . S
C206 C202 1.385 . S
C206 C205 1.374 . S
C207 C204 1.499 . S
C207 C208 1.373 . S
C207 C209 1.389 . S
C208 H181 0.950 . S
C208 C194 1.377 . S
C208 C207 1.373 . S
C209 C193 1.377 . S
C209 C207 1.389 . S
C209 C210 1.524 . S
C210 C209 1.524 . S
C210 C211 1.397 . S
C210 C215 1.363 . S
C211 H182 0.950 . S
C211 C210 1.397 . S
C211 C212 1.334 . S
C212 H183 0.950 . S
C212 C211 1.334 . S
C212 C213 1.287 . S
C213 C212 1.287 . S
C213 C214 1.524 . S
C213 H216 0.999 . S
C214 H184 0.950 . S
C214 C213 1.524 . S
C214 C215 1.415 . S
C215 H185 0.950 . S
C215 C210 1.363 . S
C215 C214 1.415 . S
H216 C213 0.999 . S
H217 C198 0.913 . S
H218 C236 0.951 . S
H219 C238 0.951 . S
H220 C240 0.950 . S
H221 C241 0.950 . S
H222 C243 0.950 . S
H223 C246 0.950 . S
H224 C247 0.950 . S
H225 C249 0.950 . S
H226 C250 0.950 . S
H227 C251 0.951 . S
H228 C253 0.951 . S
H229 C255 0.950 . S
H230 C256 0.950 . S
H231 C258 0.950 . S
H232 C261 0.950 . S
H233 C262 0.950 . S
H234 C264 0.950 . S
H235 C265 0.950 . S
C236 H218 0.951 . S
C236 C237 1.366 . S
C236 C238 1.388 . S
C237 C236 1.366 . S
C237 C241 1.385 . S
C238 H219 0.951 . S
C238 C236 1.388 . S
C238 C239 1.366 . S
C239 C238 1.366 . S
C239 C240 1.414 . S
C239 C242 1.499 . S
C240 H220 0.950 . S
C240 C239 1.414 . S
C240 C241 1.374 . S
C241 H221 0.950 . S
C241 C237 1.385 . S
C241 C240 1.374 . S
C242 C239 1.499 . S
C242 C243 1.373 . S
C242 C244 1.389 . S
C243 H222 0.950 . S
C243 C242 1.373 . S
C243 C259 1.377 . S
C244 C242 1.389 . S
C244 C245 1.524 . S
C244 C258 1.377 . S
C245 C244 1.524 . S
C245 C246 1.397 . S
C245 C250 1.363 . S
C246 H223 0.950 . S
C246 C245 1.397 . S
C246 C247 1.334 . S
C247 H224 0.950 . S
C247 C246 1.334 . S
C247 C248 1.287 . S
C248 C247 1.287 . S
C248 C249 1.524 . S
C248 H267 0.913 . S
C249 H225 0.950 . S
C249 C248 1.524 . S
C249 C250 1.415 . S
C250 H226 0.950 . S
C250 C245 1.363 . S
C250 C249 1.415 . S
C251 H227 0.951 . S
C251 C252 1.366 . S
C251 C253 1.388 . S
C252 C251 1.366 . S
C252 C256 1.385 . S
C253 H228 0.951 . S
C253 C251 1.388 . S
C253 C254 1.366 . S
C254 C253 1.366 . S
C254 C255 1.414 . S
C254 C257 1.499 . S
C255 H229 0.950 . S
C255 C254 1.414 . S
C255 C256 1.374 . S
C256 H230 0.950 . S
C256 C252 1.385 . S
C256 C255 1.374 . S
C257 C254 1.499 . S
C257 C258 1.373 . S
C257 C259 1.389 . S
C258 H231 0.950 . S
C258 C244 1.377 . S
C258 C257 1.373 . S
C259 C243 1.377 . S
C259 C257 1.389 . S
C259 C260 1.524 . S
C260 C259 1.524 . S
C260 C261 1.397 . S
C260 C265 1.363 . S
C261 H232 0.950 . S
C261 C260 1.397 . S
C261 C262 1.334 . S
C262 H233 0.950 . S
C262 C261 1.334 . S
C262 C263 1.287 . S
C263 C262 1.287 . S
C263 C264 1.524 . S
C263 H266 0.999 . S
C264 H234 0.950 . S
C264 C263 1.524 . S
C264 C265 1.415 . S
C265 H235 0.950 . S
C265 C260 1.363 . S
C265 C264 1.415 . S
H266 C263 0.999 . S
H267 C248 0.913 . S
H268 C286 0.951 . S
H269 C288 0.951 . S
H270 C290 0.950 . S
H271 C291 0.950 . S
H272 C293 0.950 . S
H273 C296 0.950 . S
H274 C297 0.950 . S
H275 C299 0.950 . S
H276 C300 0.950 1_554 S
H277 C301 0.951 . S
H278 C303 0.951 . S
H279 C305 0.950 . S
H280 C306 0.950 . S
H281 C308 0.950 . S
H282 C311 0.950 . S
H283 C312 0.950 . S
H284 C314 0.950 . S
H285 C315 0.950 1_556 S
C286 H268 0.951 . S
C286 C287 1.366 . S
C286 C288 1.388 . S
C287 C286 1.366 . S
C287 C291 1.385 . S
C288 H269 0.951 . S
C288 C286 1.388 . S
C288 C289 1.366 . S
C289 C288 1.366 . S
C289 C290 1.414 . S
C289 C292 1.499 . S
C290 H270 0.950 . S
C290 C289 1.414 . S
C290 C291 1.374 . S
C291 H271 0.950 . S
C291 C287 1.385 . S
C291 C290 1.374 . S
C292 C289 1.499 . S
C292 C293 1.373 . S
C292 C294 1.389 . S
C293 H272 0.950 . S
C293 C292 1.373 . S
C293 C309 1.377 1_556 S
C294 C292 1.389 . S
C294 C295 1.524 . S
C294 C308 1.377 1_556 S
C295 C294 1.524 . S
C295 C296 1.397 . S
C295 C300 1.363 . S
C296 H273 0.950 . S
C296 C295 1.397 . S
C296 C297 1.334 . S
C297 H274 0.950 . S
C297 C296 1.334 . S
C297 C298 1.287 . S
C298 C297 1.287 . S
C298 C299 1.524 . S
C298 H317 0.913 . S
C299 H275 0.950 . S
C299 C298 1.524 . S
C299 C300 1.415 . S
C300 H276 0.950 1_556 S
C300 C295 1.363 . S
C300 C299 1.415 . S
C301 H277 0.951 . S
C301 C302 1.366 . S
C301 C303 1.388 . S
C302 C301 1.366 . S
C302 C306 1.385 . S
C303 H278 0.951 . S
C303 C301 1.388 . S
C303 C304 1.366 . S
C304 C303 1.366 . S
C304 C305 1.414 . S
C304 C307 1.499 . S
C305 H279 0.950 . S
C305 C304 1.414 . S
C305 C306 1.374 . S
C306 H280 0.950 . S
C306 C302 1.385 . S
C306 C305 1.374 . S
C307 C304 1.499 . S
C307 C308 1.373 . S
C307 C309 1.389 . S
C308 H281 0.950 . S
C308 C294 1.377 1_554 S
C308 C307 1.373 . S
C309 C293 1.377 1_554 S
C309 C307 1.389 . S
C309 C310 1.524 . S
C310 C309 1.524 . S
C310 C311 1.397 . S
C310 C315 1.363 . S
C311 H282 0.950 . S
C311 C310 1.397 . S
C311 C312 1.334 . S
C312 H283 0.950 . S
C312 C311 1.334 . S
C312 C313 1.287 . S
C313 C312 1.287 . S
C313 C314 1.524 . S
C313 H316 0.999 . S
C314 H284 0.950 . S
C314 C313 1.524 . S
C314 C315 1.415 . S
C315 H285 0.950 1_554 S
C315 C310 1.363 . S
C315 C314 1.415 . S
H316 C313 0.999 . S
H317 C298 0.913 . S
H318 C336 0.951 . S
H319 C338 0.951 . S
H320 C340 0.950 . S
H321 C341 0.950 . S
H322 C343 0.950 . S
H323 C346 0.950 . S
H324 C347 0.950 . S
H325 C349 0.950 . S
H326 C350 0.950 . S
H327 C351 0.951 . S
H328 C353 0.951 . S
H329 C355 0.950 . S
H330 C356 0.950 . S
H331 C358 0.950 . S
H332 C361 0.950 . S
H333 C362 0.950 . S
H334 C364 0.950 . S
H335 C365 0.950 . S
C336 H318 0.951 . S
C336 C337 1.366 . S
C336 C338 1.388 . S
C337 C336 1.366 . S
C337 C341 1.385 . S
C338 H319 0.951 . S
C338 C336 1.388 . S
C338 C339 1.366 . S
C339 C338 1.366 . S
C339 C340 1.414 . S
C339 C342 1.499 . S
C340 H320 0.950 . S
C340 C339 1.414 . S
C340 C341 1.374 . S
C341 H321 0.950 . S
C341 C337 1.385 . S
C341 C340 1.374 . S
C342 C339 1.499 . S
C342 C343 1.373 . S
C342 C344 1.389 . S
C343 H322 0.950 . S
C343 C342 1.373 . S
C343 C359 1.377 . S
C344 C342 1.389 . S
C344 C345 1.524 . S
C344 C358 1.377 . S
C345 C344 1.524 . S
C345 C346 1.397 . S
C345 C350 1.363 . S
C346 H323 0.950 . S
C346 C345 1.397 . S
C346 C347 1.334 . S
C347 H324 0.950 . S
C347 C346 1.334 . S
C347 C348 1.287 . S
C348 C347 1.287 . S
C348 C349 1.524 . S
C348 H367 0.913 . S
C349 H325 0.950 . S
C349 C348 1.524 . S
C349 C350 1.415 . S
C350 H326 0.950 . S
C350 C345 1.363 . S
C350 C349 1.415 . S
C351 H327 0.951 . S
C351 C352 1.366 . S
C351 C353 1.388 . S
C352 C351 1.366 . S
C352 C356 1.385 . S
C353 H328 0.951 . S
C353 C351 1.388 . S
C353 C354 1.366 . S
C354 C353 1.366 . S
C354 C355 1.414 . S
C354 C357 1.499 . S
C355 H329 0.950 . S
C355 C354 1.414 . S
C355 C356 1.374 . S
C356 H330 0.950 . S
C356 C352 1.385 . S
C356 C355 1.374 . S
C357 C354 1.499 . S
C357 C358 1.373 . S
C357 C359 1.389 . S
C358 H331 0.950 . S
C358 C344 1.377 . S
C358 C357 1.373 . S
C359 C343 1.377 . S
C359 C357 1.389 . S
C359 C360 1.524 . S
C360 C359 1.524 . S
C360 C361 1.397 . S
C360 C365 1.363 . S
C361 H332 0.950 . S
C361 C360 1.397 . S
C361 C362 1.334 . S
C362 H333 0.950 . S
C362 C361 1.334 . S
C362 C363 1.287 . S
C363 C362 1.287 . S
C363 C364 1.524 . S
C363 H366 0.999 . S
C364 H334 0.950 . S
C364 C363 1.524 . S
C364 C365 1.415 . S
C365 H335 0.950 . S
C365 C360 1.363 . S
C365 C364 1.415 . S
H366 C363 0.999 . S
H367 C348 0.913 . S
H368 C386 0.951 . S
H369 C388 0.951 . S
H370 C390 0.950 . S
H371 C391 0.950 . S
H372 C393 0.950 . S
H373 C396 0.950 . S
H374 C397 0.950 . S
H375 C399 0.950 . S
H376 C400 0.950 . S
H377 C401 0.951 . S
H378 C403 0.951 . S
H379 C405 0.950 . S
H380 C406 0.950 . S
H381 C408 0.950 . S
H382 C411 0.950 . S
H383 C412 0.950 . S
H384 C414 0.950 . S
H385 C415 0.950 . S
C386 H368 0.951 . S
C386 C387 1.366 . S
C386 C388 1.388 . S
C387 C386 1.366 . S
C387 C391 1.385 . S
C388 H369 0.951 . S
C388 C386 1.388 . S
C388 C389 1.366 . S
C389 C388 1.366 . S
C389 C390 1.414 . S
C389 C392 1.499 . S
C390 H370 0.950 . S
C390 C389 1.414 . S
C390 C391 1.374 . S
C391 H371 0.950 . S
C391 C387 1.385 . S
C391 C390 1.374 . S
C392 C389 1.499 . S
C392 C393 1.373 . S
C392 C394 1.389 . S
C393 H372 0.950 . S
C393 C392 1.373 . S
C393 C409 1.377 . S
C394 C392 1.389 . S
C394 C395 1.524 . S
C394 C408 1.377 . S
C395 C394 1.524 . S
C395 C396 1.397 . S
C395 C400 1.363 . S
C396 H373 0.950 . S
C396 C395 1.397 . S
C396 C397 1.334 . S
C397 H374 0.950 . S
C397 C396 1.334 . S
C397 C398 1.287 . S
C398 C397 1.287 . S
C398 C399 1.524 . S
C398 H417 0.913 . S
C399 H375 0.950 . S
C399 C398 1.524 . S
C399 C400 1.415 . S
C400 H376 0.950 . S
C400 C395 1.363 . S
C400 C399 1.415 . S
C401 H377 0.951 . S
C401 C402 1.366 . S
C401 C403 1.388 . S
C402 C401 1.366 . S
C402 C406 1.385 . S
C403 H378 0.951 . S
C403 C401 1.388 . S
C403 C404 1.366 . S
C404 C403 1.366 . S
C404 C405 1.414 . S
C404 C407 1.499 . S
C405 H379 0.950 . S
C405 C404 1.414 . S
C405 C406 1.374 . S
C406 H380 0.950 . S
C406 C402 1.385 . S
C406 C405 1.374 . S
C407 C404 1.499 . S
C407 C408 1.373 . S
C407 C409 1.389 . S
C408 H381 0.950 . S
C408 C394 1.377 . S
C408 C407 1.373 . S
C409 C393 1.377 . S
C409 C407 1.389 . S
C409 C410 1.524 . S
C410 C409 1.524 . S
C410 C411 1.397 . S
C410 C415 1.363 . S
C411 H382 0.950 . S
C411 C410 1.397 . S
C411 C412 1.334 . S
C412 H383 0.950 . S
C412 C411 1.334 . S
C412 C413 1.287 . S
C413 C412 1.287 . S
C413 C414 1.524 . S
C413 H416 0.999 . S
C414 H384 0.950 . S
C414 C413 1.524 . S
C414 C415 1.415 . S
C415 H385 0.950 . S
C415 C410 1.363 . S
C415 C414 1.415 . S
H416 C413 0.999 . S
H417 C398 0.913 . S
H418 C436 0.951 . S
H419 C438 0.951 . S
H420 C440 0.950 . S
H421 C441 0.950 . S
H422 C443 0.950 . S
H423 C446 0.950 . S
H424 C447 0.950 . S
H425 C449 0.950 . S
H426 C450 0.950 . S
H427 C451 0.951 . S
H428 C453 0.951 . S
H429 C455 0.950 . S
H430 C456 0.950 . S
H431 C458 0.950 . S
H432 C461 0.950 . S
H433 C462 0.950 . S
H434 C464 0.950 . S
H435 C465 0.950 . S
C436 H418 0.951 . S
C436 C437 1.366 . S
C436 C438 1.388 . S
C437 C436 1.366 . S
C437 C441 1.385 . S
C438 H419 0.951 . S
C438 C436 1.388 . S
C438 C439 1.366 . S
C439 C438 1.366 . S
C439 C440 1.414 . S
C439 C442 1.499 . S
C440 H420 0.950 . S
C440 C439 1.414 . S
C440 C441 1.374 . S
C441 H421 0.950 . S
C441 C437 1.385 . S
C441 C440 1.374 . S
C442 C439 1.499 . S
C442 C443 1.373 . S
C442 C444 1.389 . S
C443 H422 0.950 . S
C443 C442 1.373 . S
C443 C459 1.377 1_554 S
C444 C442 1.389 . S
C444 C445 1.524 . S
C444 C458 1.377 1_554 S
C445 C444 1.524 . S
C445 C446 1.397 . S
C445 C450 1.363 . S
C446 H423 0.950 . S
C446 C445 1.397 . S
C446 C447 1.334 . S
C447 H424 0.950 . S
C447 C446 1.334 . S
C447 C448 1.287 . S
C448 C447 1.287 . S
C448 C449 1.524 . S
C448 H467 0.913 . S
C449 H425 0.950 . S
C449 C448 1.524 . S
C449 C450 1.415 . S
C450 H426 0.950 . S
C450 C445 1.363 . S
C450 C449 1.415 . S
C451 H427 0.951 . S
C451 C452 1.366 . S
C451 C453 1.388 . S
C452 C451 1.366 . S
C452 C456 1.385 . S
C453 H428 0.951 . S
C453 C451 1.388 . S
C453 C454 1.366 . S
C454 C453 1.366 . S
C454 C455 1.414 . S
C454 C457 1.499 . S
C455 H429 0.950 . S
C455 C454 1.414 . S
C455 C456 1.374 . S
C456 H430 0.950 . S
C456 C452 1.385 . S
C456 C455 1.374 . S
C457 C454 1.499 . S
C457 C458 1.373 . S
C457 C459 1.389 . S
C458 H431 0.950 . S
C458 C444 1.377 1_556 S
C458 C457 1.373 . S
C459 C443 1.377 1_556 S
C459 C457 1.389 . S
C459 C460 1.524 . S
C460 C459 1.524 . S
C460 C461 1.397 . S
C460 C465 1.363 . S
C461 H432 0.950 . S
C461 C460 1.397 . S
C461 C462 1.334 . S
C462 H433 0.950 . S
C462 C461 1.334 . S
C462 C463 1.287 . S
C463 C462 1.287 . S
C463 C464 1.524 . S
C463 H466 0.999 . S
C464 H434 0.950 . S
C464 C463 1.524 . S
C464 C465 1.415 . S
C465 H435 0.950 . S
C465 C460 1.363 . S
C465 C464 1.415 . S
H466 C463 0.999 . S
H467 C448 0.913 . S
H468 C486 0.951 . S
H469 C488 0.951 . S
H470 C490 0.950 1_556 S
H471 C491 0.950 . S
H472 C493 0.950 . S
H473 C496 0.950 . S
H474 C497 0.950 . S
H475 C499 0.950 . S
H476 C500 0.950 . S
H477 C501 0.951 . S
H478 C503 0.951 . S
H479 C505 0.950 1_554 S
H480 C506 0.950 . S
H481 C508 0.950 . S
H482 C511 0.950 . S
H483 C512 0.950 . S
H484 C514 0.950 . S
H485 C515 0.950 . S
C486 H468 0.951 . S
C486 C487 1.366 . S
C486 C488 1.388 . S
C487 C486 1.366 . S
C487 C491 1.385 . S
C488 H469 0.951 . S
C488 C486 1.388 . S
C488 C489 1.366 . S
C489 C488 1.366 . S
C489 C490 1.414 . S
C489 C492 1.499 . S
C490 H470 0.950 1_554 S
C490 C489 1.414 . S
C490 C491 1.374 . S
C491 H471 0.950 . S
C491 C487 1.385 . S
C491 C490 1.374 . S
C492 C489 1.499 . S
C492 C493 1.373 1_554 S
C492 C494 1.389 . S
C493 H472 0.950 . S
C493 C492 1.373 1_556 S
C493 C509 1.377 . S
C494 C492 1.389 . S
C494 C495 1.524 . S
C494 C508 1.377 . S
C495 C494 1.524 . S
C495 C496 1.397 . S
C495 C500 1.363 . S
C496 H473 0.950 . S
C496 C495 1.397 . S
C496 C497 1.334 . S
C497 H474 0.950 . S
C497 C496 1.334 . S
C497 C498 1.287 . S
C498 C497 1.287 . S
C498 C499 1.524 . S
C498 H517 0.913 . S
C499 H475 0.950 . S
C499 C498 1.524 . S
C499 C500 1.415 . S
C500 H476 0.950 . S
C500 C495 1.363 . S
C500 C499 1.415 . S
C501 H477 0.951 . S
C501 C502 1.366 . S
C501 C503 1.388 . S
C502 C501 1.366 . S
C502 C506 1.385 . S
C503 H478 0.951 . S
C503 C501 1.388 . S
C503 C504 1.366 . S
C504 C503 1.366 . S
C504 C505 1.414 . S
C504 C507 1.499 . S
C505 H479 0.950 1_556 S
C505 C504 1.414 . S
C505 C506 1.374 . S
C506 H480 0.950 . S
C506 C502 1.385 . S
C506 C505 1.374 . S
C507 C504 1.499 . S
C507 C508 1.373 1_556 S
C507 C509 1.389 . S
C508 H481 0.950 . S
C508 C494 1.377 . S
C508 C507 1.373 1_554 S
C509 C493 1.377 . S
C509 C507 1.389 . S
C509 C510 1.524 . S
C510 C509 1.524 . S
C510 C511 1.397 . S
C510 C515 1.363 . S
C511 H482 0.950 . S
C511 C510 1.397 . S
C511 C512 1.334 . S
C512 H483 0.950 . S
C512 C511 1.334 . S
C512 C513 1.287 . S
C513 C512 1.287 . S
C513 C514 1.524 . S
C513 H516 0.999 . S
C514 H484 0.950 . S
C514 C513 1.524 . S
C514 C515 1.415 . S
C515 H485 0.950 . S
C515 C510 1.363 . S
C515 C514 1.415 . S
H516 C513 0.999 . S
H517 C498 0.913 . S
H518 C536 0.951 . S
H519 C538 0.951 . S
H520 C540 0.950 . S
H521 C541 0.950 . S
H522 C543 0.950 . S
H523 C546 0.950 . S
H524 C547 0.950 . S
H525 C549 0.950 . S
H526 C550 0.950 . S
H527 C551 0.951 . S
H528 C553 0.951 . S
H529 C555 0.950 . S
H530 C556 0.950 . S
H531 C558 0.950 . S
H532 C561 0.950 . S
H533 C562 0.950 . S
H534 C564 0.950 . S
H535 C565 0.950 . S
C536 H518 0.951 . S
C536 C537 1.366 . S
C536 C538 1.388 . S
C537 C536 1.366 . S
C537 C541 1.385 . S
C538 H519 0.951 . S
C538 C536 1.388 . S
C538 C539 1.366 . S
C539 C538 1.366 . S
C539 C540 1.414 . S
C539 C542 1.499 . S
C540 H520 0.950 . S
C540 C539 1.414 . S
C540 C541 1.374 . S
C541 H521 0.950 . S
C541 C537 1.385 . S
C541 C540 1.374 . S
C542 C539 1.499 . S
C542 C543 1.373 . S
C542 C544 1.389 . S
C543 H522 0.950 . S
C543 C542 1.373 . S
C543 C559 1.377 . S
C544 C542 1.389 . S
C544 C545 1.524 . S
C544 C558 1.377 . S
C545 C544 1.524 . S
C545 C546 1.397 . S
C545 C550 1.363 . S
C546 H523 0.950 . S
C546 C545 1.397 . S
C546 C547 1.334 . S
C547 H524 0.950 . S
C547 C546 1.334 . S
C547 C548 1.287 . S
C548 C547 1.287 . S
C548 C549 1.524 . S
C548 H567 0.913 . S
C549 H525 0.950 . S
C549 C548 1.524 . S
C549 C550 1.415 . S
C550 H526 0.950 . S
C550 C545 1.363 . S
C550 C549 1.415 . S
C551 H527 0.951 . S
C551 C552 1.366 . S
C551 C553 1.388 . S
C552 C551 1.366 . S
C552 C556 1.385 . S
C553 H528 0.951 . S
C553 C551 1.388 . S
C553 C554 1.366 . S
C554 C553 1.366 . S
C554 C555 1.414 . S
C554 C557 1.499 . S
C555 H529 0.950 . S
C555 C554 1.414 . S
C555 C556 1.374 . S
C556 H530 0.950 . S
C556 C552 1.385 . S
C556 C555 1.374 . S
C557 C554 1.499 . S
C557 C558 1.373 . S
C557 C559 1.389 . S
C558 H531 0.950 . S
C558 C544 1.377 . S
C558 C557 1.373 . S
C559 C543 1.377 . S
C559 C557 1.389 . S
C559 C560 1.524 . S
C560 C559 1.524 . S
C560 C561 1.397 . S
C560 C565 1.363 . S
C561 H532 0.950 . S
C561 C560 1.397 . S
C561 C562 1.334 . S
C562 H533 0.950 . S
C562 C561 1.334 . S
C562 C563 1.287 . S
C563 C562 1.287 . S
C563 C564 1.524 . S
C563 H566 0.999 . S
C564 H534 0.950 . S
C564 C563 1.524 . S
C564 C565 1.415 . S
C565 H535 0.950 . S
C565 C560 1.363 . S
C565 C564 1.415 . S
H566 C563 0.999 . S
H567 C548 0.913 . S
H568 C586 0.951 . S
H569 C588 0.951 . S
H570 C590 0.950 . S
H571 C591 0.950 . S
H572 C593 0.950 . S
H573 C596 0.950 . S
H574 C597 0.950 . S
H575 C599 0.950 . S
H576 C600 0.950 . S
H577 C601 0.951 . S
H578 C603 0.951 . S
H579 C605 0.950 . S
H580 C606 0.950 . S
H581 C608 0.950 . S
H582 C611 0.950 . S
H583 C612 0.950 . S
H584 C614 0.950 . S
H585 C615 0.950 . S
C586 H568 0.951 . S
C586 C587 1.366 . S
C586 C588 1.388 . S
C587 C586 1.366 . S
C587 C591 1.385 . S
C588 H569 0.951 . S
C588 C586 1.388 . S
C588 C589 1.366 . S
C589 C588 1.366 . S
C589 C590 1.414 . S
C589 C592 1.499 . S
C590 H570 0.950 . S
C590 C589 1.414 . S
C590 C591 1.374 . S
C591 H571 0.950 . S
C591 C587 1.385 . S
C591 C590 1.374 . S
C592 C589 1.499 . S
C592 C593 1.373 . S
C592 C594 1.389 . S
C593 H572 0.950 . S
C593 C592 1.373 . S
C593 C609 1.377 . S
C594 C592 1.389 . S
C594 C595 1.524 . S
C594 C608 1.377 . S
C595 C594 1.524 . S
C595 C596 1.397 . S
C595 C600 1.363 . S
C596 H573 0.950 . S
C596 C595 1.397 . S
C596 C597 1.334 . S
C597 H574 0.950 . S
C597 C596 1.334 . S
C597 C598 1.287 . S
C598 C597 1.287 . S
C598 C599 1.524 . S
C598 H617 0.913 . S
C599 H575 0.950 . S
C599 C598 1.524 . S
C599 C600 1.415 . S
C600 H576 0.950 . S
C600 C595 1.363 . S
C600 C599 1.415 . S
C601 H577 0.951 . S
C601 C602 1.366 . S
C601 C603 1.388 . S
C602 C601 1.366 . S
C602 C606 1.385 . S
C603 H578 0.951 . S
C603 C601 1.388 . S
C603 C604 1.366 . S
C604 C603 1.366 . S
C604 C605 1.414 . S
C604 C607 1.499 . S
C605 H579 0.950 . S
C605 C604 1.414 . S
C605 C606 1.374 . S
C606 H580 0.950 . S
C606 C602 1.385 . S
C606 C605 1.374 . S
C607 C604 1.499 . S
C607 C608 1.373 . S
C607 C609 1.389 . S
C608 H581 0.950 . S
C608 C594 1.377 . S
C608 C607 1.373 . S
C609 C593 1.377 . S
C609 C607 1.389 . S
C609 C610 1.524 . S
C610 C609 1.524 . S
C610 C611 1.397 . S
C610 C615 1.363 . S
C611 H582 0.950 . S
C611 C610 1.397 . S
C611 C612 1.334 . S
C612 H583 0.950 . S
C612 C611 1.334 . S
C612 C613 1.287 . S
C613 C612 1.287 . S
C613 C614 1.524 . S
C613 H616 0.999 . S
C614 H584 0.950 . S
C614 C613 1.524 . S
C614 C615 1.415 . S
C615 H585 0.950 . S
C615 C610 1.363 . S
C615 C614 1.415 . S
H616 C613 0.999 . S
H617 C598 0.913 . S
H618 C636 0.951 . S
H619 C638 0.951 . S
H620 C640 0.950 . S
H621 C641 0.950 1_556 S
H622 C643 0.950 . S
H623 C646 0.950 . S
H624 C647 0.950 . S
H625 C649 0.950 . S
H626 C650 0.950 . S
H627 C651 0.951 . S
H628 C653 0.951 . S
H629 C655 0.950 . S
H630 C656 0.950 1_554 S
H631 C658 0.950 . S
H632 C661 0.950 . S
H633 C662 0.950 . S
H634 C664 0.950 . S
H635 C665 0.950 . S
C636 H618 0.951 . S
C636 C637 1.366 . S
C636 C638 1.388 . S
C637 C636 1.366 . S
C637 C641 1.385 . S
C638 H619 0.951 . S
C638 C636 1.388 . S
C638 C639 1.366 . S
C639 C638 1.366 . S
C639 C640 1.414 1_554 S
C639 C642 1.499 . S
C640 H620 0.950 . S
C640 C639 1.414 1_556 S
C640 C641 1.374 1_556 S
C641 H621 0.950 1_554 S
C641 C637 1.385 . S
C641 C640 1.374 1_554 S
C642 C639 1.499 . S
C642 C643 1.373 1_554 S
C642 C644 1.389 . S
C643 H622 0.950 . S
C643 C642 1.373 1_556 S
C643 C659 1.377 . S
C644 C642 1.389 . S
C644 C645 1.524 . S
C644 C658 1.377 . S
C645 C644 1.524 . S
C645 C646 1.397 . S
C645 C650 1.363 . S
C646 H623 0.950 . S
C646 C645 1.397 . S
C646 C647 1.334 . S
C647 H624 0.950 . S
C647 C646 1.334 . S
C647 C648 1.287 . S
C648 C647 1.287 . S
C648 C649 1.524 . S
C648 H667 0.913 . S
C649 H625 0.950 . S
C649 C648 1.524 . S
C649 C650 1.415 . S
C650 H626 0.950 . S
C650 C645 1.363 . S
C650 C649 1.415 . S
C651 H627 0.951 . S
C651 C652 1.366 . S
C651 C653 1.388 . S
C652 C651 1.366 . S
C652 C656 1.385 . S
C653 H628 0.951 . S
C653 C651 1.388 . S
C653 C654 1.366 . S
C654 C653 1.366 . S
C654 C655 1.414 1_556 S
C654 C657 1.499 . S
C655 H629 0.950 . S
C655 C654 1.414 1_554 S
C655 C656 1.374 1_554 S
C656 H630 0.950 1_556 S
C656 C652 1.385 . S
C656 C655 1.374 1_556 S
C657 C654 1.499 . S
C657 C658 1.373 1_556 S
C657 C659 1.389 . S
C658 H631 0.950 . S
C658 C644 1.377 . S
C658 C657 1.373 1_554 S
C659 C643 1.377 . S
C659 C657 1.389 . S
C659 C660 1.524 . S
C660 C659 1.524 . S
C660 C661 1.397 . S
C660 C665 1.363 . S
C661 H632 0.950 . S
C661 C660 1.397 . S
C661 C662 1.334 . S
C662 H633 0.950 . S
C662 C661 1.334 . S
C662 C663 1.287 . S
C663 C662 1.287 . S
C663 C664 1.524 . S
C663 H666 0.999 . S
C664 H634 0.950 . S
C664 C663 1.524 . S
C664 C665 1.415 . S
C665 H635 0.950 . S
C665 C660 1.363 . S
C665 C664 1.415 . S
H666 C663 0.999 . S
H667 C648 0.913 . S
H668 C686 0.951 . S
H669 C688 0.951 . S
H670 C690 0.950 . S
H671 C691 0.950 . S
H672 C693 0.950 . S
H673 C696 0.950 . S
H674 C697 0.950 . S
H675 C699 0.950 . S
H676 C700 0.950 . S
H677 C701 0.951 . S
H678 C703 0.951 . S
H679 C705 0.950 . S
H680 C706 0.950 . S
H681 C708 0.950 . S
H682 C711 0.950 . S
H683 C712 0.950 . S
H684 C714 0.950 . S
H685 C715 0.950 . S
C686 H668 0.951 . S
C686 C687 1.366 . S
C686 C688 1.388 . S
C687 C686 1.366 . S
C687 C691 1.385 . S
C688 H669 0.951 . S
C688 C686 1.388 . S
C688 C689 1.366 . S
C689 C688 1.366 . S
C689 C690 1.414 . S
C689 C692 1.499 . S
C690 H670 0.950 . S
C690 C689 1.414 . S
C690 C691 1.374 . S
C691 H671 0.950 . S
C691 C687 1.385 . S
C691 C690 1.374 . S
C692 C689 1.499 . S
C692 C693 1.373 . S
C692 C694 1.389 . S
C693 H672 0.950 . S
C693 C692 1.373 . S
C693 C709 1.377 . S
C694 C692 1.389 . S
C694 C695 1.524 . S
C694 C708 1.377 . S
C695 C694 1.524 . S
C695 C696 1.397 . S
C695 C700 1.363 . S
C696 H673 0.950 . S
C696 C695 1.397 . S
C696 C697 1.334 . S
C697 H674 0.950 . S
C697 C696 1.334 . S
C697 C698 1.287 . S
C698 C697 1.287 . S
C698 C699 1.524 . S
C698 H717 0.913 . S
C699 H675 0.950 . S
C699 C698 1.524 . S
C699 C700 1.415 . S
C700 H676 0.950 . S
C700 C695 1.363 . S
C700 C699 1.415 . S
C701 H677 0.951 . S
C701 C702 1.366 . S
C701 C703 1.388 . S
C702 C701 1.366 . S
C702 C706 1.385 . S
C703 H678 0.951 . S
C703 C701 1.388 . S
C703 C704 1.366 . S
C704 C703 1.366 . S
C704 C705 1.414 . S
C704 C707 1.499 . S
C705 H679 0.950 . S
C705 C704 1.414 . S
C705 C706 1.374 . S
C706 H680 0.950 . S
C706 C702 1.385 . S
C706 C705 1.374 . S
C707 C704 1.499 . S
C707 C708 1.373 . S
C707 C709 1.389 . S
C708 H681 0.950 . S
C708 C694 1.377 . S
C708 C707 1.373 . S
C709 C693 1.377 . S
C709 C707 1.389 . S
C709 C710 1.524 . S
C710 C709 1.524 . S
C710 C711 1.397 . S
C710 C715 1.363 . S
C711 H682 0.950 . S
C711 C710 1.397 . S
C711 C712 1.334 . S
C712 H683 0.950 . S
C712 C711 1.334 . S
C712 C713 1.287 . S
C713 C712 1.287 . S
C713 C714 1.524 . S
C713 H716 0.999 . S
C714 H684 0.950 . S
C714 C713 1.524 . S
C714 C715 1.415 . S
C715 H685 0.950 . S
C715 C710 1.363 . S
C715 C714 1.415 . S
H716 C713 0.999 . S
H717 C698 0.913 . S
H718 C736 0.951 . S
H719 C738 0.951 . S
H720 C740 0.950 . S
H721 C741 0.950 . S
H722 C743 0.950 . S
H723 C746 0.950 . S
H724 C747 0.950 . S
H725 C749 0.950 . S
H726 C750 0.950 . S
H727 C751 0.951 . S
H728 C753 0.951 . S
H729 C755 0.950 . S
H730 C756 0.950 . S
H731 C758 0.950 . S
H732 C761 0.950 . S
H733 C762 0.950 . S
H734 C764 0.950 . S
H735 C765 0.950 . S
C736 H718 0.951 . S
C736 C737 1.366 . S
C736 C738 1.388 . S
C737 C736 1.366 . S
C737 C741 1.385 . S
C738 H719 0.951 . S
C738 C736 1.388 . S
C738 C739 1.366 . S
C739 C738 1.366 . S
C739 C740 1.414 . S
C739 C742 1.499 . S
C740 H720 0.950 . S
C740 C739 1.414 . S
C740 C741 1.374 . S
C741 H721 0.950 . S
C741 C737 1.385 . S
C741 C740 1.374 . S
C742 C739 1.499 . S
C742 C743 1.373 . S
C742 C744 1.389 . S
C743 H722 0.950 . S
C743 C742 1.373 . S
C743 C759 1.377 . S
C744 C742 1.389 . S
C744 C745 1.524 . S
C744 C758 1.377 . S
C745 C744 1.524 . S
C745 C746 1.397 . S
C745 C750 1.363 . S
C746 H723 0.950 . S
C746 C745 1.397 . S
C746 C747 1.334 . S
C747 H724 0.950 . S
C747 C746 1.334 . S
C747 C748 1.287 . S
C748 C747 1.287 . S
C748 C749 1.524 . S
C748 H767 0.913 . S
C749 H725 0.950 . S
C749 C748 1.524 . S
C749 C750 1.415 . S
C750 H726 0.950 . S
C750 C745 1.363 . S
C750 C749 1.415 . S
C751 H727 0.951 . S
C751 C752 1.366 . S
C751 C753 1.388 . S
C752 C751 1.366 . S
C752 C756 1.385 . S
C753 H728 0.951 . S
C753 C751 1.388 . S
C753 C754 1.366 . S
C754 C753 1.366 . S
C754 C755 1.414 . S
C754 C757 1.499 . S
C755 H729 0.950 . S
C755 C754 1.414 . S
C755 C756 1.374 . S
C756 H730 0.950 . S
C756 C752 1.385 . S
C756 C755 1.374 . S
C757 C754 1.499 . S
C757 C758 1.373 . S
C757 C759 1.389 . S
C758 H731 0.950 . S
C758 C744 1.377 . S
C758 C757 1.373 . S
C759 C743 1.377 . S
C759 C757 1.389 . S
C759 C760 1.524 . S
C760 C759 1.524 . S
C760 C761 1.397 . S
C760 C765 1.363 . S
C761 H732 0.950 . S
C761 C760 1.397 . S
C761 C762 1.334 . S
C762 H733 0.950 . S
C762 C761 1.334 . S
C762 C763 1.287 . S
C763 C762 1.287 . S
C763 C764 1.524 . S
C763 H766 0.999 . S
C764 H734 0.950 . S
C764 C763 1.524 . S
C764 C765 1.415 . S
C765 H735 0.950 . S
C765 C760 1.363 . S
C765 C764 1.415 . S
H766 C763 0.999 . S
H767 C748 0.913 . S
H768 C786 0.951 . S
H769 C788 0.951 . S
H770 C790 0.950 . S
H771 C791 0.950 . S
H772 C793 0.950 . S
H773 C796 0.950 . S
H774 C797 0.950 . S
H775 C799 0.950 . S
H776 C800 0.950 . S
H777 C801 0.951 . S
H778 C803 0.951 . S
H779 C805 0.950 . S
H780 C806 0.950 . S
H781 C808 0.950 . S
H782 C811 0.950 1_556 S
H783 C812 0.950 . S
H784 C814 0.950 . S
H785 C815 0.950 . S
C786 H768 0.951 . S
C786 C787 1.366 . S
C786 C788 1.388 . S
C787 C786 1.366 . S
C787 C791 1.385 . S
C788 H769 0.951 . S
C788 C786 1.388 . S
C788 C789 1.366 . S
C789 C788 1.366 . S
C789 C790 1.414 . S
C789 C792 1.499 . S
C790 H770 0.950 . S
C790 C789 1.414 . S
C790 C791 1.374 . S
C791 H771 0.950 . S
C791 C787 1.385 . S
C791 C790 1.374 . S
C792 C789 1.499 . S
C792 C793 1.373 . S
C792 C794 1.389 . S
C793 H772 0.950 . S
C793 C792 1.373 . S
C793 C809 1.377 . S
C794 C792 1.389 . S
C794 C795 1.524 . S
C794 C808 1.377 . S
C795 C794 1.524 . S
C795 C796 1.397 . S
C795 C800 1.363 . S
C796 H773 0.950 . S
C796 C795 1.397 . S
C796 C797 1.334 . S
C797 H774 0.950 . S
C797 C796 1.334 . S
C797 C798 1.287 . S
C798 C797 1.287 . S
C798 C799 1.524 . S
C798 H817 0.913 . S
C799 H775 0.950 . S
C799 C798 1.524 . S
C799 C800 1.415 . S
C800 H776 0.950 . S
C800 C795 1.363 . S
C800 C799 1.415 . S
C801 H777 0.951 . S
C801 C802 1.366 . S
C801 C803 1.388 . S
C802 C801 1.366 . S
C802 C806 1.385 . S
C803 H778 0.951 . S
C803 C801 1.388 . S
C803 C804 1.366 . S
C804 C803 1.366 . S
C804 C805 1.414 . S
C804 C807 1.499 . S
C805 H779 0.950 . S
C805 C804 1.414 . S
C805 C806 1.374 . S
C806 H780 0.950 . S
C806 C802 1.385 . S
C806 C805 1.374 . S
C807 C804 1.499 . S
C807 C808 1.373 . S
C807 C809 1.389 . S
C808 H781 0.950 . S
C808 C794 1.377 . S
C808 C807 1.373 . S
C809 C793 1.377 . S
C809 C807 1.389 . S
C809 C810 1.524 . S
C810 C809 1.524 . S
C810 C811 1.397 . S
C810 C815 1.363 . S
C811 H782 0.950 1_554 S
C811 C810 1.397 . S
C811 C812 1.334 1_554 S
C812 H783 0.950 . S
C812 C811 1.334 1_556 S
C812 C813 1.287 1_556 S
C813 C812 1.287 1_554 S
C813 C814 1.524 . S
C813 H816 0.999 1_554 S
C814 H784 0.950 . S
C814 C813 1.524 . S
C814 C815 1.415 . S
C815 H785 0.950 . S
C815 C810 1.363 . S
C815 C814 1.415 . S
H816 C813 0.999 1_556 S
H817 C798 0.913 . S
H818 C836 0.951 . S
H819 C838 0.951 . S
H820 C840 0.950 . S
H821 C841 0.950 . S
H822 C843 0.950 . S
H823 C846 0.950 . S
H824 C847 0.950 . S
H825 C849 0.950 . S
H826 C850 0.950 . S
H827 C851 0.951 . S
H828 C853 0.951 . S
H829 C855 0.950 . S
H830 C856 0.950 . S
H831 C858 0.950 . S
H832 C861 0.950 . S
H833 C862 0.950 . S
H834 C864 0.950 . S
H835 C865 0.950 . S
C836 H818 0.951 . S
C836 C837 1.366 . S
C836 C838 1.388 . S
C837 C836 1.366 . S
C837 C841 1.385 . S
C838 H819 0.951 . S
C838 C836 1.388 . S
C838 C839 1.366 . S
C839 C838 1.366 . S
C839 C840 1.414 . S
C839 C842 1.499 . S
C840 H820 0.950 . S
C840 C839 1.414 . S
C840 C841 1.374 . S
C841 H821 0.950 . S
C841 C837 1.385 . S
C841 C840 1.374 . S
C842 C839 1.499 . S
C842 C843 1.373 . S
C842 C844 1.389 . S
C843 H822 0.950 . S
C843 C842 1.373 . S
C843 C859 1.377 1_655 S
C844 C842 1.389 . S
C844 C845 1.524 . S
C844 C858 1.377 1_655 S
C845 C844 1.524 . S
C845 C846 1.397 . S
C845 C850 1.363 . S
C846 H823 0.950 . S
C846 C845 1.397 . S
C846 C847 1.334 . S
C847 H824 0.950 . S
C847 C846 1.334 . S
C847 C848 1.287 . S
C848 C847 1.287 . S
C848 C849 1.524 . S
C848 H867 0.913 . S
C849 H825 0.950 . S
C849 C848 1.524 . S
C849 C850 1.415 . S
C850 H826 0.950 . S
C850 C845 1.363 . S
C850 C849 1.415 . S
C851 H827 0.951 . S
C851 C852 1.366 . S
C851 C853 1.388 . S
C852 C851 1.366 . S
C852 C856 1.385 . S
C853 H828 0.951 . S
C853 C851 1.388 . S
C853 C854 1.366 . S
C854 C853 1.366 . S
C854 C855 1.414 . S
C854 C857 1.499 . S
C855 H829 0.950 . S
C855 C854 1.414 . S
C855 C856 1.374 . S
C856 H830 0.950 . S
C856 C852 1.385 . S
C856 C855 1.374 . S
C857 C854 1.499 . S
C857 C858 1.373 . S
C857 C859 1.389 . S
C858 H831 0.950 . S
C858 C844 1.377 1_455 S
C858 C857 1.373 . S
C859 C843 1.377 1_455 S
C859 C857 1.389 . S
C859 C860 1.524 . S
C860 C859 1.524 . S
C860 C861 1.397 . S
C860 C865 1.363 . S
C861 H832 0.950 . S
C861 C860 1.397 . S
C861 C862 1.334 . S
C862 H833 0.950 . S
C862 C861 1.334 . S
C862 C863 1.287 . S
C863 C862 1.287 . S
C863 C864 1.524 . S
C863 H866 0.999 . S
C864 H834 0.950 . S
C864 C863 1.524 . S
C864 C865 1.415 . S
C865 H835 0.950 . S
C865 C860 1.363 . S
C865 C864 1.415 . S
H866 C863 0.999 . S
H867 C848 0.913 . S
H868 C886 0.951 . S
H869 C888 0.951 . S
H870 C890 0.950 . S
H871 C891 0.950 . S
H872 C893 0.950 . S
H873 C896 0.950 . S
H874 C897 0.950 . S
H875 C899 0.950 . S
H876 C900 0.950 . S
H877 C901 0.951 . S
H878 C903 0.951 . S
H879 C905 0.950 . S
H880 C906 0.950 . S
H881 C908 0.950 . S
H882 C911 0.950 . S
H883 C912 0.950 . S
H884 C914 0.950 . S
H885 C915 0.950 . S
C886 H868 0.951 . S
C886 C887 1.366 . S
C886 C888 1.388 . S
C887 C886 1.366 . S
C887 C891 1.385 . S
C888 H869 0.951 . S
C888 C886 1.388 . S
C888 C889 1.366 . S
C889 C888 1.366 . S
C889 C890 1.414 . S
C889 C892 1.499 . S
C890 H870 0.950 . S
C890 C889 1.414 . S
C890 C891 1.374 . S
C891 H871 0.950 . S
C891 C887 1.385 . S
C891 C890 1.374 . S
C892 C889 1.499 . S
C892 C893 1.373 . S
C892 C894 1.413 . S
C893 H872 0.950 . S
C893 C892 1.373 . S
C893 C909 1.331 1_545 S
C894 C892 1.413 . S
C894 C895 1.546 . S
C894 C908 1.331 1_545 S
C895 C894 1.546 . S
C895 C896 1.396 . S
C895 C900 1.363 1_545 S
C896 H873 0.950 . S
C896 C895 1.396 . S
C896 C897 1.334 . S
C897 H874 0.950 . S
C897 C896 1.334 . S
C897 C898 1.282 1_545 S
C898 C897 1.282 1_565 S
C898 C899 1.537 . S
C898 H917 0.905 1_565 S
C899 H875 0.950 . S
C899 C898 1.537 . S
C899 C900 1.415 . S
C900 H876 0.950 . S
C900 C895 1.363 1_565 S
C900 C899 1.415 . S
C901 H877 0.951 . S
C901 C902 1.366 . S
C901 C903 1.388 . S
C902 C901 1.366 . S
C902 C906 1.385 . S
C903 H878 0.951 . S
C903 C901 1.388 . S
C903 C904 1.366 . S
C904 C903 1.366 . S
C904 C905 1.414 . S
C904 C907 1.499 . S
C905 H879 0.950 . S
C905 C904 1.414 . S
C905 C906 1.374 . S
C906 H880 0.950 . S
C906 C902 1.385 . S
C906 C905 1.374 . S
C907 C904 1.499 . S
C907 C908 1.373 . S
C907 C909 1.413 . S
C908 H881 0.950 . S
C908 C894 1.331 1_565 S
C908 C907 1.373 . S
C909 C893 1.331 1_565 S
C909 C907 1.413 . S
C909 C910 1.546 . S
C910 C909 1.546 . S
C910 C911 1.396 . S
C910 C915 1.363 1_565 S
C911 H882 0.950 . S
C911 C910 1.396 . S
C911 C912 1.334 . S
C912 H883 0.950 . S
C912 C911 1.334 . S
C912 C913 1.282 1_565 S
C913 C912 1.282 1_545 S
C913 C914 1.537 . S
C913 H916 1.016 . S
C914 H884 0.950 . S
C914 C913 1.537 . S
C914 C915 1.415 . S
C915 H885 0.950 . S
C915 C910 1.363 1_545 S
C915 C914 1.415 . S
H916 C913 1.016 . S
H917 C898 0.905 1_545 S
H918 C936 0.951 . S
H919 C938 0.951 . S
H920 C940 0.950 . S
H921 C941 0.950 . S
H922 C943 0.950 . S
H923 C946 0.950 . S
H924 C947 0.950 . S
H925 C949 0.950 . S
H926 C950 0.950 . S
H927 C951 0.951 . S
H928 C953 0.951 . S
H929 C955 0.950 . S
H930 C956 0.950 . S
H931 C958 0.950 . S
H932 C961 0.950 . S
H933 C962 0.950 . S
H934 C964 0.950 . S
H935 C965 0.950 . S
C936 H918 0.951 . S
C936 C937 1.366 . S
C936 C938 1.388 . S
C937 C936 1.366 . S
C937 C941 1.385 . S
C938 H919 0.951 . S
C938 C936 1.388 . S
C938 C939 1.366 . S
C939 C938 1.366 . S
C939 C940 1.414 . S
C939 C942 1.499 . S
C940 H920 0.950 . S
C940 C939 1.414 . S
C940 C941 1.374 . S
C941 H921 0.950 . S
C941 C937 1.385 . S
C941 C940 1.374 . S
C942 C939 1.499 . S
C942 C943 1.373 . S
C942 C944 1.389 . S
C943 H922 0.950 . S
C943 C942 1.373 . S
C943 C959 1.377 . S
C944 C942 1.389 . S
C944 C945 1.524 . S
C944 C958 1.377 . S
C945 C944 1.524 . S
C945 C946 1.397 . S
C945 C950 1.363 . S
C946 H923 0.950 . S
C946 C945 1.397 . S
C946 C947 1.334 . S
C947 H924 0.950 . S
C947 C946 1.334 . S
C947 C948 1.287 . S
C948 C947 1.287 . S
C948 C949 1.524 . S
C948 H967 0.913 . S
C949 H925 0.950 . S
C949 C948 1.524 . S
C949 C950 1.415 . S
C950 H926 0.950 . S
C950 C945 1.363 . S
C950 C949 1.415 . S
C951 H927 0.951 . S
C951 C952 1.366 . S
C951 C953 1.388 . S
C952 C951 1.366 . S
C952 C956 1.385 . S
C953 H928 0.951 . S
C953 C951 1.388 . S
C953 C954 1.366 . S
C954 C953 1.366 . S
C954 C955 1.414 . S
C954 C957 1.499 . S
C955 H929 0.950 . S
C955 C954 1.414 . S
C955 C956 1.374 . S
C956 H930 0.950 . S
C956 C952 1.385 . S
C956 C955 1.374 . S
C957 C954 1.499 . S
C957 C958 1.373 . S
C957 C959 1.389 . S
C958 H931 0.950 . S
C958 C944 1.377 . S
C958 C957 1.373 . S
C959 C943 1.377 . S
C959 C957 1.389 . S
C959 C960 1.524 . S
C960 C959 1.524 . S
C960 C961 1.397 . S
C960 C965 1.363 . S
C961 H932 0.950 . S
C961 C960 1.397 . S
C961 C962 1.334 . S
C962 H933 0.950 . S
C962 C961 1.334 . S
C962 C963 1.287 . S
C963 C962 1.287 . S
C963 C964 1.524 . S
C963 H966 0.999 . S
C964 H934 0.950 . S
C964 C963 1.524 . S
C964 C965 1.415 . S
C965 H935 0.950 . S
C965 C960 1.363 . S
C965 C964 1.415 . S
H966 C963 0.999 . S
H967 C948 0.913 . S
H968 C986 0.951 . S
H969 C988 0.951 . S
H970 C990 0.950 . S
H971 C991 0.950 . S
H972 C993 0.950 . S
H973 C996 0.950 . S
H974 C997 0.950 . S
H975 C999 0.950 . S
H976 C1000 0.950 . S
H977 C1001 0.951 . S
H978 C1003 0.951 . S
H979 C1005 0.950 . S
H980 C1006 0.950 . S
H981 C1008 0.950 . S
H982 C1011 0.950 . S
H983 C1012 0.950 . S
H984 C1014 0.950 . S
H985 C1015 0.950 . S
C986 H968 0.951 . S
C986 C987 1.366 . S
C986 C988 1.388 . S
C987 C986 1.366 . S
C987 C991 1.385 . S
C988 H969 0.951 . S
C988 C986 1.388 . S
C988 C989 1.366 . S
C989 C988 1.366 . S
C989 C990 1.414 . S
C989 C992 1.499 . S
C990 H970 0.950 . S
C990 C989 1.414 . S
C990 C991 1.374 . S
C991 H971 0.950 . S
C991 C987 1.385 . S
C991 C990 1.374 . S
C992 C989 1.499 . S
C992 C993 1.373 . S
C992 C994 1.389 . S
C993 H972 0.950 . S
C993 C992 1.373 . S
C993 C1009 1.377 1_455 S
C994 C992 1.389 . S
C994 C995 1.524 . S
C994 C1008 1.377 1_455 S
C995 C994 1.524 . S
C995 C996 1.397 1_556 S
C995 C1000 1.363 . S
C996 H973 0.950 . S
C996 C995 1.397 1_554 S
C996 C997 1.334 . S
C997 H974 0.950 . S
C997 C996 1.334 . S
C997 C998 1.287 . S
C998 C997 1.287 . S
C998 C999 1.524 . S
C998 H1017 0.913 . S
C999 H975 0.950 . S
C999 C998 1.524 . S
C999 C1000 1.415 1_554 S
C1000 H976 0.950 . S
C1000 C995 1.363 . S
C1000 C999 1.415 1_556 S
C1001 H977 0.951 . S
C1001 C1002 1.366 . S
C1001 C1003 1.388 . S
C1002 C1001 1.366 . S
C1002 C1006 1.385 . S
C1003 H978 0.951 . S
C1003 C1001 1.388 . S
C1003 C1004 1.366 . S
C1004 C1003 1.366 . S
C1004 C1005 1.414 . S
C1004 C1007 1.499 . S
C1005 H979 0.950 . S
C1005 C1004 1.414 . S
C1005 C1006 1.374 . S
C1006 H980 0.950 . S
C1006 C1002 1.385 . S
C1006 C1005 1.374 . S
C1007 C1004 1.499 . S
C1007 C1008 1.373 . S
C1007 C1009 1.389 . S
C1008 H981 0.950 . S
C1008 C994 1.377 1_655 S
C1008 C1007 1.373 . S
C1009 C993 1.377 1_655 S
C1009 C1007 1.389 . S
C1009 C1010 1.524 . S
C1010 C1009 1.524 . S
C1010 C1011 1.397 . S
C1010 C1015 1.363 . S
C1011 H982 0.950 . S
C1011 C1010 1.397 . S
C1011 C1012 1.334 . S
C1012 H983 0.950 . S
C1012 C1011 1.334 . S
C1012 C1013 1.287 . S
C1013 C1012 1.287 . S
C1013 C1014 1.524 . S
C1013 H1016 0.999 . S
C1014 H984 0.950 . S
C1014 C1013 1.524 . S
C1014 C1015 1.415 . S
C1015 H985 0.950 . S
C1015 C1010 1.363 . S
C1015 C1014 1.415 . S
H1016 C1013 0.999 . S
H1017 C998 0.913 . S
H1018 C1036 0.951 . S
H1019 C1038 0.951 . S
H1020 C1040 0.950 . S
H1021 C1041 0.950 . S
H1022 C1043 0.950 . S
H1023 C1046 0.950 . S
H1024 C1047 0.950 . S
H1025 C1049 0.950 . S
H1026 C1050 0.950 . S
H1027 C1051 0.951 . S
H1028 C1053 0.951 . S
H1029 C1055 0.950 . S
H1030 C1056 0.950 . S
H1031 C1058 0.950 . S
H1032 C1061 0.950 . S
H1033 C1062 0.950 . S
H1034 C1064 0.950 . S
H1035 C1065 0.950 . S
C1036 H1018 0.951 . S
C1036 C1037 1.366 . S
C1036 C1038 1.388 . S
C1037 C1036 1.366 . S
C1037 C1041 1.385 . S
C1038 H1019 0.951 . S
C1038 C1036 1.388 . S
C1038 C1039 1.366 . S
C1039 C1038 1.366 . S
C1039 C1040 1.414 . S
C1039 C1042 1.499 . S
C1040 H1020 0.950 . S
C1040 C1039 1.414 . S
C1040 C1041 1.374 . S
C1041 H1021 0.950 . S
C1041 C1037 1.385 . S
C1041 C1040 1.374 . S
C1042 C1039 1.499 . S
C1042 C1043 1.373 . S
C1042 C1044 1.389 . S
C1043 H1022 0.950 . S
C1043 C1042 1.373 . S
C1043 C1059 1.377 1_565 S
C1044 C1042 1.389 . S
C1044 C1045 1.524 . S
C1044 C1058 1.377 1_565 S
C1045 C1044 1.524 . S
C1045 C1046 1.397 . S
C1045 C1050 1.363 . S
C1046 H1023 0.950 . S
C1046 C1045 1.397 . S
C1046 C1047 1.334 . S
C1047 H1024 0.950 . S
C1047 C1046 1.334 . S
C1047 C1048 1.287 . S
C1048 C1047 1.287 . S
C1048 C1049 1.524 . S
C1048 H1067 0.913 . S
C1049 H1025 0.950 . S
C1049 C1048 1.524 . S
C1049 C1050 1.415 . S
C1050 H1026 0.950 . S
C1050 C1045 1.363 . S
C1050 C1049 1.415 . S
C1051 H1027 0.951 . S
C1051 C1052 1.366 . S
C1051 C1053 1.388 . S
C1052 C1051 1.366 . S
C1052 C1056 1.385 . S
C1053 H1028 0.951 . S
C1053 C1051 1.388 . S
C1053 C1054 1.366 . S
C1054 C1053 1.366 . S
C1054 C1055 1.414 . S
C1054 C1057 1.499 . S
C1055 H1029 0.950 . S
C1055 C1054 1.414 . S
C1055 C1056 1.374 . S
C1056 H1030 0.950 . S
C1056 C1052 1.385 . S
C1056 C1055 1.374 . S
C1057 C1054 1.499 . S
C1057 C1058 1.373 . S
C1057 C1059 1.389 . S
C1058 H1031 0.950 . S
C1058 C1044 1.377 1_545 S
C1058 C1057 1.373 . S
C1059 C1043 1.377 1_545 S
C1059 C1057 1.389 . S
C1059 C1060 1.524 . S
C1060 C1059 1.524 . S
C1060 C1061 1.397 . S
C1060 C1065 1.363 . S
C1061 H1032 0.950 . S
C1061 C1060 1.397 . S
C1061 C1062 1.334 . S
C1062 H1033 0.950 . S
C1062 C1061 1.334 . S
C1062 C1063 1.287 . S
C1063 C1062 1.287 . S
C1063 C1064 1.524 . S
C1063 H1066 0.999 . S
C1064 H1034 0.950 . S
C1064 C1063 1.524 . S
C1064 C1065 1.415 . S
C1065 H1035 0.950 . S
C1065 C1060 1.363 . S
C1065 C1064 1.415 . S
H1066 C1063 0.999 . S
H1067 C1048 0.913 . S
H1068 C1086 0.951 . S
H1069 C1088 0.951 . S
H1070 C1090 0.950 . S
H1071 C1091 0.950 . S
H1072 C1093 0.950 . S
H1073 C1096 0.950 . S
H1074 C1097 0.950 . S
H1075 C1099 0.950 . S
H1076 C1100 0.950 . S
H1077 C1101 0.951 . S
H1078 C1103 0.951 . S
H1079 C1105 0.950 . S
H1080 C1106 0.950 . S
H1081 C1108 0.950 . S
H1082 C1111 0.950 . S
H1083 C1112 0.950 . S
H1084 C1114 0.950 . S
H1085 C1115 0.950 . S
C1086 H1068 0.951 . S
C1086 C1087 1.366 . S
C1086 C1088 1.388 . S
C1087 C1086 1.366 . S
C1087 C1091 1.385 . S
C1088 H1069 0.951 . S
C1088 C1086 1.388 . S
C1088 C1089 1.366 . S
C1089 C1088 1.366 . S
C1089 C1090 1.414 . S
C1089 C1092 1.499 . S
C1090 H1070 0.950 . S
C1090 C1089 1.414 . S
C1090 C1091 1.374 . S
C1091 H1071 0.950 . S
C1091 C1087 1.385 . S
C1091 C1090 1.374 . S
C1092 C1089 1.499 . S
C1092 C1093 1.373 . S
C1092 C1094 1.389 . S
C1093 H1072 0.950 . S
C1093 C1092 1.373 . S
C1093 C1109 1.377 . S
C1094 C1092 1.389 . S
C1094 C1095 1.524 . S
C1094 C1108 1.377 . S
C1095 C1094 1.524 . S
C1095 C1096 1.397 . S
C1095 C1100 1.363 . S
C1096 H1073 0.950 . S
C1096 C1095 1.397 . S
C1096 C1097 1.334 . S
C1097 H1074 0.950 . S
C1097 C1096 1.334 . S
C1097 C1098 1.287 . S
C1098 C1097 1.287 . S
C1098 C1099 1.524 . S
C1098 H1117 0.913 . S
C1099 H1075 0.950 . S
C1099 C1098 1.524 . S
C1099 C1100 1.415 . S
C1100 H1076 0.950 . S
C1100 C1095 1.363 . S
C1100 C1099 1.415 . S
C1101 H1077 0.951 . S
C1101 C1102 1.366 . S
C1101 C1103 1.388 . S
C1102 C1101 1.366 . S
C1102 C1106 1.385 . S
C1103 H1078 0.951 . S
C1103 C1101 1.388 . S
C1103 C1104 1.366 . S
C1104 C1103 1.366 . S
C1104 C1105 1.414 . S
C1104 C1107 1.499 . S
C1105 H1079 0.950 . S
C1105 C1104 1.414 . S
C1105 C1106 1.374 . S
C1106 H1080 0.950 . S
C1106 C1102 1.385 . S
C1106 C1105 1.374 . S
C1107 C1104 1.499 . S
C1107 C1108 1.373 . S
C1107 C1109 1.389 . S
C1108 H1081 0.950 . S
C1108 C1094 1.377 . S
C1108 C1107 1.373 . S
C1109 C1093 1.377 . S
C1109 C1107 1.389 . S
C1109 C1110 1.524 . S
C1110 C1109 1.524 . S
C1110 C1111 1.397 . S
C1110 C1115 1.363 . S
C1111 H1082 0.950 . S
C1111 C1110 1.397 . S
C1111 C1112 1.334 . S
C1112 H1083 0.950 . S
C1112 C1111 1.334 . S
C1112 C1113 1.287 . S
C1113 C1112 1.287 . S
C1113 C1114 1.524 . S
C1113 H1116 0.999 . S
C1114 H1084 0.950 . S
C1114 C1113 1.524 . S
C1114 C1115 1.415 . S
C1115 H1085 0.950 . S
C1115 C1110 1.363 . S
C1115 C1114 1.415 . S
H1116 C1113 0.999 . S
H1117 C1098 0.913 . S
H1118 C1136 0.951 . S
H1119 C1138 0.951 . S
H1120 C1140 0.950 . S
H1121 C1141 0.950 . S
H1122 C1143 0.950 . S
H1123 C1146 0.950 . S
H1124 C1147 0.950 . S
H1125 C1149 0.950 . S
H1126 C1150 0.950 . S
H1127 C1151 0.951 . S
H1128 C1153 0.951 . S
H1129 C1155 0.950 . S
H1130 C1156 0.950 . S
H1131 C1158 0.950 . S
H1132 C1161 0.950 . S
H1133 C1162 0.950 . S
H1134 C1164 0.950 . S
H1135 C1165 0.950 . S
C1136 H1118 0.951 . S
C1136 C1137 1.366 . S
C1136 C1138 1.388 . S
C1137 C1136 1.366 . S
C1137 C1141 1.385 . S
C1138 H1119 0.951 . S
C1138 C1136 1.388 . S
C1138 C1139 1.366 . S
C1139 C1138 1.366 . S
C1139 C1140 1.414 . S
C1139 C1142 1.499 . S
C1140 H1120 0.950 . S
C1140 C1139 1.414 . S
C1140 C1141 1.374 . S
C1141 H1121 0.950 . S
C1141 C1137 1.385 . S
C1141 C1140 1.374 . S
C1142 C1139 1.499 . S
C1142 C1143 1.373 . S
C1142 C1144 1.389 . S
C1143 H1122 0.950 . S
C1143 C1142 1.373 . S
C1143 C1159 1.377 . S
C1144 C1142 1.389 . S
C1144 C1145 1.524 . S
C1144 C1158 1.377 . S
C1145 C1144 1.524 . S
C1145 C1146 1.397 . S
C1145 C1150 1.363 . S
C1146 H1123 0.950 . S
C1146 C1145 1.397 . S
C1146 C1147 1.334 . S
C1147 H1124 0.950 . S
C1147 C1146 1.334 . S
C1147 C1148 1.287 . S
C1148 C1147 1.287 . S
C1148 C1149 1.524 . S
C1148 H1167 0.913 . S
C1149 H1125 0.950 . S
C1149 C1148 1.524 . S
C1149 C1150 1.415 . S
C1150 H1126 0.950 . S
C1150 C1145 1.363 . S
C1150 C1149 1.415 . S
C1151 H1127 0.951 . S
C1151 C1152 1.366 . S
C1151 C1153 1.388 . S
C1152 C1151 1.366 . S
C1152 C1156 1.385 . S
C1153 H1128 0.951 . S
C1153 C1151 1.388 . S
C1153 C1154 1.366 . S
C1154 C1153 1.366 . S
C1154 C1155 1.414 . S
C1154 C1157 1.499 . S
C1155 H1129 0.950 . S
C1155 C1154 1.414 . S
C1155 C1156 1.374 . S
C1156 H1130 0.950 . S
C1156 C1152 1.385 . S
C1156 C1155 1.374 . S
C1157 C1154 1.499 . S
C1157 C1158 1.373 . S
C1157 C1159 1.389 . S
C1158 H1131 0.950 . S
C1158 C1144 1.377 . S
C1158 C1157 1.373 . S
C1159 C1143 1.377 . S
C1159 C1157 1.389 . S
C1159 C1160 1.524 . S
C1160 C1159 1.524 . S
C1160 C1161 1.397 . S
C1160 C1165 1.363 . S
C1161 H1132 0.950 . S
C1161 C1160 1.397 . S
C1161 C1162 1.334 . S
C1162 H1133 0.950 . S
C1162 C1161 1.334 . S
C1162 C1163 1.287 . S
C1163 C1162 1.287 . S
C1163 C1164 1.524 . S
C1163 H1166 0.999 . S
C1164 H1134 0.950 . S
C1164 C1163 1.524 . S
C1164 C1165 1.415 . S
C1165 H1135 0.950 . S
C1165 C1160 1.363 . S
C1165 C1164 1.415 . S
H1166 C1163 0.999 . S
H1167 C1148 0.913 . S
H1168 C1186 0.951 . S
H1169 C1188 0.951 . S
H1170 C1190 0.950 . S
H1171 C1191 0.950 . S
H1172 C1193 0.950 . S
H1173 C1196 0.950 . S
H1174 C1197 0.950 . S
H1175 C1199 0.950 . S
H1176 C1200 0.950 . S
H1177 C1201 0.951 . S
H1178 C1203 0.951 . S
H1179 C1205 0.950 . S
H1180 C1206 0.950 . S
H1181 C1208 0.950 . S
H1182 C1211 0.950 . S
H1183 C1212 0.950 . S
H1184 C1214 0.950 . S
H1185 C1215 0.950 . S
C1186 H1168 0.951 . S
C1186 C1187 1.366 . S
C1186 C1188 1.388 . S
C1187 C1186 1.366 . S
C1187 C1191 1.385 . S
C1188 H1169 0.951 . S
C1188 C1186 1.388 . S
C1188 C1189 1.366 . S
C1189 C1188 1.366 . S
C1189 C1190 1.414 . S
C1189 C1192 1.499 . S
C1190 H1170 0.950 . S
C1190 C1189 1.414 . S
C1190 C1191 1.374 . S
C1191 H1171 0.950 . S
C1191 C1187 1.385 . S
C1191 C1190 1.374 . S
C1192 C1189 1.499 . S
C1192 C1193 1.373 . S
C1192 C1194 1.389 . S
C1193 H1172 0.950 . S
C1193 C1192 1.373 . S
C1193 C1209 1.377 . S
C1194 C1192 1.389 . S
C1194 C1195 1.524 . S
C1194 C1208 1.377 . S
C1195 C1194 1.524 . S
C1195 C1196 1.397 . S
C1195 C1200 1.363 . S
C1196 H1173 0.950 . S
C1196 C1195 1.397 . S
C1196 C1197 1.334 . S
C1197 H1174 0.950 . S
C1197 C1196 1.334 . S
C1197 C1198 1.287 . S
C1198 C1197 1.287 . S
C1198 C1199 1.524 . S
C1198 H1217 0.913 . S
C1199 H1175 0.950 . S
C1199 C1198 1.524 . S
C1199 C1200 1.415 . S
C1200 H1176 0.950 . S
C1200 C1195 1.363 . S
C1200 C1199 1.415 . S
C1201 H1177 0.951 . S
C1201 C1202 1.366 . S
C1201 C1203 1.388 . S
C1202 C1201 1.366 . S
C1202 C1206 1.385 . S
C1203 H1178 0.951 . S
C1203 C1201 1.388 . S
C1203 C1204 1.366 . S
C1204 C1203 1.366 . S
C1204 C1205 1.414 . S
C1204 C1207 1.499 . S
C1205 H1179 0.950 . S
C1205 C1204 1.414 . S
C1205 C1206 1.374 . S
C1206 H1180 0.950 . S
C1206 C1202 1.385 . S
C1206 C1205 1.374 . S
C1207 C1204 1.499 . S
C1207 C1208 1.373 . S
C1207 C1209 1.389 . S
C1208 H1181 0.950 . S
C1208 C1194 1.377 . S
C1208 C1207 1.373 . S
C1209 C1193 1.377 . S
C1209 C1207 1.389 . S
C1209 C1210 1.524 . S
C1210 C1209 1.524 . S
C1210 C1211 1.397 . S
C1210 C1215 1.363 . S
C1211 H1182 0.950 . S
C1211 C1210 1.397 . S
C1211 C1212 1.334 . S
C1212 H1183 0.950 . S
C1212 C1211 1.334 . S
C1212 C1213 1.287 . S
C1213 C1212 1.287 . S
C1213 C1214 1.524 . S
C1213 H1216 0.999 . S
C1214 H1184 0.950 . S
C1214 C1213 1.524 . S
C1214 C1215 1.415 . S
C1215 H1185 0.950 . S
C1215 C1210 1.363 . S
C1215 C1214 1.415 . S
H1216 C1213 0.999 . S
H1217 C1198 0.913 . S
H1218 C1236 0.951 . S
H1219 C1238 0.951 . S
H1220 C1240 0.950 . S
H1221 C1241 0.950 . S
H1222 C1243 0.950 . S
H1223 C1246 0.950 . S
H1224 C1247 0.950 . S
H1225 C1249 0.950 . S
H1226 C1250 0.950 . S
H1227 C1251 0.951 . S
H1228 C1253 0.951 . S
H1229 C1255 0.950 . S
H1230 C1256 0.950 . S
H1231 C1258 0.950 . S
H1232 C1261 0.950 . S
H1233 C1262 0.950 . S
H1234 C1264 0.950 . S
H1235 C1265 0.950 . S
C1236 H1218 0.951 . S
C1236 C1237 1.366 . S
C1236 C1238 1.388 . S
C1237 C1236 1.366 . S
C1237 C1241 1.385 . S
C1238 H1219 0.951 . S
C1238 C1236 1.388 . S
C1238 C1239 1.366 . S
C1239 C1238 1.366 . S
C1239 C1240 1.414 . S
C1239 C1242 1.499 . S
C1240 H1220 0.950 . S
C1240 C1239 1.414 . S
C1240 C1241 1.374 . S
C1241 H1221 0.950 . S
C1241 C1237 1.385 . S
C1241 C1240 1.374 . S
C1242 C1239 1.499 . S
C1242 C1243 1.373 . S
C1242 C1244 1.389 . S
C1243 H1222 0.950 . S
C1243 C1242 1.373 . S
C1243 C1259 1.377 . S
C1244 C1242 1.389 . S
C1244 C1245 1.524 . S
C1244 C1258 1.377 . S
C1245 C1244 1.524 . S
C1245 C1246 1.397 . S
C1245 C1250 1.363 . S
C1246 H1223 0.950 . S
C1246 C1245 1.397 . S
C1246 C1247 1.334 . S
C1247 H1224 0.950 . S
C1247 C1246 1.334 . S
C1247 C1248 1.287 . S
C1248 C1247 1.287 . S
C1248 C1249 1.524 . S
C1248 H1267 0.913 . S
C1249 H1225 0.950 . S
C1249 C1248 1.524 . S
C1249 C1250 1.415 . S
C1250 H1226 0.950 . S
C1250 C1245 1.363 . S
C1250 C1249 1.415 . S
C1251 H1227 0.951 . S
C1251 C1252 1.366 . S
C1251 C1253 1.388 . S
C1252 C1251 1.366 . S
C1252 C1256 1.385 . S
C1253 H1228 0.951 . S
C1253 C1251 1.388 . S
C1253 C1254 1.366 . S
C1254 C1253 1.366 . S
C1254 C1255 1.414 . S
C1254 C1257 1.499 . S
C1255 H1229 0.950 . S
C1255 C1254 1.414 . S
C1255 C1256 1.374 . S
C1256 H1230 0.950 . S
C1256 C1252 1.385 . S
C1256 C1255 1.374 . S
C1257 C1254 1.499 . S
C1257 C1258 1.373 . S
C1257 C1259 1.389 . S
C1258 H1231 0.950 . S
C1258 C1244 1.377 . S
C1258 C1257 1.373 . S
C1259 C1243 1.377 . S
C1259 C1257 1.389 . S
C1259 C1260 1.524 . S
C1260 C1259 1.524 . S
C1260 C1261 1.397 . S
C1260 C1265 1.363 . S
C1261 H1232 0.950 . S
C1261 C1260 1.397 . S
C1261 C1262 1.334 . S
C1262 H1233 0.950 . S
C1262 C1261 1.334 . S
C1262 C1263 1.287 . S
C1263 C1262 1.287 . S
C1263 C1264 1.524 . S
C1263 H1266 0.999 . S
C1264 H1234 0.950 . S
C1264 C1263 1.524 . S
C1264 C1265 1.415 . S
C1265 H1235 0.950 . S
C1265 C1260 1.363 . S
C1265 C1264 1.415 . S
H1266 C1263 0.999 . S
H1267 C1248 0.913 . S
H1268 C1286 0.951 . S
H1269 C1288 0.951 . S
H1270 C1290 0.950 . S
H1271 C1291 0.950 . S
H1272 C1293 0.950 . S
H1273 C1296 0.950 . S
H1274 C1297 0.950 . S
H1275 C1299 0.950 . S
H1276 C1300 0.950 . S
H1277 C1301 0.951 . S
H1278 C1303 0.951 . S
H1279 C1305 0.950 . S
H1280 C1306 0.950 . S
H1281 C1308 0.950 . S
H1282 C1311 0.950 . S
H1283 C1312 0.950 . S
H1284 C1314 0.950 . S
H1285 C1315 0.950 . S
C1286 H1268 0.951 . S
C1286 C1287 1.366 . S
C1286 C1288 1.388 . S
C1287 C1286 1.366 . S
C1287 C1291 1.385 . S
C1288 H1269 0.951 . S
C1288 C1286 1.388 . S
C1288 C1289 1.366 . S
C1289 C1288 1.366 . S
C1289 C1290 1.414 . S
C1289 C1292 1.499 . S
C1290 H1270 0.950 . S
C1290 C1289 1.414 . S
C1290 C1291 1.374 . S
C1291 H1271 0.950 . S
C1291 C1287 1.385 . S
C1291 C1290 1.374 . S
C1292 C1289 1.499 . S
C1292 C1293 1.373 . S
C1292 C1294 1.389 . S
C1293 H1272 0.950 . S
C1293 C1292 1.373 . S
C1293 C1309 1.377 . S
C1294 C1292 1.389 . S
C1294 C1295 1.524 . S
C1294 C1308 1.377 . S
C1295 C1294 1.524 . S
C1295 C1296 1.397 . S
C1295 C1300 1.363 . S
C1296 H1273 0.950 . S
C1296 C1295 1.397 . S
C1296 C1297 1.334 . S
C1297 H1274 0.950 . S
C1297 C1296 1.334 . S
C1297 C1298 1.287 . S
C1298 C1297 1.287 . S
C1298 C1299 1.524 . S
C1298 H1317 0.913 . S
C1299 H1275 0.950 . S
C1299 C1298 1.524 . S
C1299 C1300 1.415 . S
C1300 H1276 0.950 . S
C1300 C1295 1.363 . S
C1300 C1299 1.415 . S
C1301 H1277 0.951 . S
C1301 C1302 1.366 . S
C1301 C1303 1.388 . S
C1302 C1301 1.366 . S
C1302 C1306 1.385 . S
C1303 H1278 0.951 . S
C1303 C1301 1.388 . S
C1303 C1304 1.366 . S
C1304 C1303 1.366 . S
C1304 C1305 1.414 . S
C1304 C1307 1.499 . S
C1305 H1279 0.950 . S
C1305 C1304 1.414 . S
C1305 C1306 1.374 . S
C1306 H1280 0.950 . S
C1306 C1302 1.385 . S
C1306 C1305 1.374 . S
C1307 C1304 1.499 . S
C1307 C1308 1.373 . S
C1307 C1309 1.389 . S
C1308 H1281 0.950 . S
C1308 C1294 1.377 . S
C1308 C1307 1.373 . S
C1309 C1293 1.377 . S
C1309 C1307 1.389 . S
C1309 C1310 1.524 . S
C1310 C1309 1.524 . S
C1310 C1311 1.397 . S
C1310 C1315 1.363 . S
C1311 H1282 0.950 . S
C1311 C1310 1.397 . S
C1311 C1312 1.334 . S
C1312 H1283 0.950 . S
C1312 C1311 1.334 . S
C1312 C1313 1.287 . S
C1313 C1312 1.287 . S
C1313 C1314 1.524 . S
C1313 H1316 0.999 . S
C1314 H1284 0.950 . S
C1314 C1313 1.524 . S
C1314 C1315 1.415 . S
C1315 H1285 0.950 . S
C1315 C1310 1.363 . S
C1315 C1314 1.415 . S
H1316 C1313 0.999 . S
H1317 C1298 0.913 . S
H1318 C1336 0.951 . S
H1319 C1338 0.951 . S
H1320 C1340 0.950 . S
H1321 C1341 0.950 . S
H1322 C1343 0.950 . S
H1323 C1346 0.950 . S
H1324 C1347 0.950 . S
H1325 C1349 0.950 . S
H1326 C1350 0.950 . S
H1327 C1351 0.951 . S
H1328 C1353 0.951 . S
H1329 C1355 0.950 . S
H1330 C1356 0.950 . S
H1331 C1358 0.950 . S
H1332 C1361 0.950 . S
H1333 C1362 0.950 . S
H1334 C1364 0.950 . S
H1335 C1365 0.950 . S
C1336 H1318 0.951 . S
C1336 C1337 1.366 . S
C1336 C1338 1.388 . S
C1337 C1336 1.366 . S
C1337 C1341 1.385 . S
C1338 H1319 0.951 . S
C1338 C1336 1.388 . S
C1338 C1339 1.366 . S
C1339 C1338 1.366 . S
C1339 C1340 1.414 . S
C1339 C1342 1.499 . S
C1340 H1320 0.950 . S
C1340 C1339 1.414 . S
C1340 C1341 1.374 . S
C1341 H1321 0.950 . S
C1341 C1337 1.385 . S
C1341 C1340 1.374 . S
C1342 C1339 1.499 . S
C1342 C1343 1.373 . S
C1342 C1344 1.389 . S
C1343 H1322 0.950 . S
C1343 C1342 1.373 . S
C1343 C1359 1.377 . S
C1344 C1342 1.389 . S
C1344 C1345 1.524 . S
C1344 C1358 1.377 . S
C1345 C1344 1.524 . S
C1345 C1346 1.397 . S
C1345 C1350 1.363 . S
C1346 H1323 0.950 . S
C1346 C1345 1.397 . S
C1346 C1347 1.334 . S
C1347 H1324 0.950 . S
C1347 C1346 1.334 . S
C1347 C1348 1.287 . S
C1348 C1347 1.287 . S
C1348 C1349 1.524 . S
C1348 H1367 0.913 . S
C1349 H1325 0.950 . S
C1349 C1348 1.524 . S
C1349 C1350 1.415 . S
C1350 H1326 0.950 . S
C1350 C1345 1.363 . S
C1350 C1349 1.415 . S
C1351 H1327 0.951 . S
C1351 C1352 1.366 . S
C1351 C1353 1.388 . S
C1352 C1351 1.366 . S
C1352 C1356 1.385 . S
C1353 H1328 0.951 . S
C1353 C1351 1.388 . S
C1353 C1354 1.366 . S
C1354 C1353 1.366 . S
C1354 C1355 1.414 . S
C1354 C1357 1.499 . S
C1355 H1329 0.950 . S
C1355 C1354 1.414 . S
C1355 C1356 1.374 . S
C1356 H1330 0.950 . S
C1356 C1352 1.385 . S
C1356 C1355 1.374 . S
C1357 C1354 1.499 . S
C1357 C1358 1.373 . S
C1357 C1359 1.389 . S
C1358 H1331 0.950 . S
C1358 C1344 1.377 . S
C1358 C1357 1.373 . S
C1359 C1343 1.377 . S
C1359 C1357 1.389 . S
C1359 C1360 1.524 . S
C1360 C1359 1.524 . S
C1360 C1361 1.397 . S
C1360 C1365 1.363 . S
C1361 H1332 0.950 . S
C1361 C1360 1.397 . S
C1361 C1362 1.334 . S
C1362 H1333 0.950 . S
C1362 C1361 1.334 . S
C1362 C1363 1.287 . S
C1363 C1362 1.287 . S
C1363 C1364 1.524 . S
C1363 H1366 0.999 . S
C1364 H1334 0.950 . S
C1364 C1363 1.524 . S
C1364 C1365 1.415 . S
C1365 H1335 0.950 . S
C1365 C1360 1.363 . S
C1365 C1364 1.415 . S
H1366 C1363 0.999 . S
H1367 C1348 0.913 . S
C187 C6 1.466 . S
C202 C90 1.467 . S
C237 C20 1.466 . S
C252 C104 1.466 . S
C287 C34 1.466 . S
C302 C118 1.466 . S
C337 C48 1.467 . S
C352 C132 1.466 . S
C387 C62 1.467 . S
C402 C146 1.467 . S
C437 C160 1.467 . S
C452 C76 1.466 . S
C487 C7 1.327 . S
C502 C147 1.326 . S
C537 C21 1.327 . S
C552 C161 1.327 . S
C587 C35 1.327 . S
C602 C91 1.327 . S
C637 C49 1.327 . S
C652 C105 1.327 . S
C687 C63 1.326 . S
C702 C119 1.326 . S
C737 C77 1.327 . S
C752 C133 1.327 . S
C787 C8 1.168 . S
C802 C50 1.168 . S
C837 C22 1.171 . S
C852 C64 1.171 . S
C887 C78 1.170 . S
C902 C36 1.170 . S
C937 C92 1.172 . S
C952 C134 1.171 . S
C987 C148 1.170 . S
C1002 C106 1.170 . S
C1037 C120 1.170 . S
C1052 C162 1.171 . S
C1087 C93 1.110 . S
C1102 C9 1.110 1_556 S
C1137 C23 1.109 . S
C1152 C107 1.109 1_554 S
C1187 C37 1.109 . S
C1202 C121 1.109 . S
C1237 C135 1.109 . S
C1252 C51 1.109 1_556 S
C1287 C149 1.109 1_554 S
C1302 C65 1.109 . S
C1337 C79 1.109 . S
C1352 C163 1.109 . S
