# Generated by pormake.
# Topology why, (6)-cn, num edge types: 1
# Building blocks:
#     Node 0, Type 0, BuildingBlock: BETGAK_clean_sbu_0, # of connection points: 6
#     Node 1, Type 0, BuildingBlock: BETGAK_clean_sbu_0, # of connection points: 6
#     Node 2, Type 0, BuildingBlock: BETGAK_clean_sbu_0, # of connection points: 6
#     Node 3, Type 0, BuildingBlock: BETGAK_clean_sbu_0, # of connection points: 6
#     Node 4, Type 0, BuildingBlock: BETGAK_clean_sbu_0, # of connection points: 6
#     Node 5, Type 0, BuildingBlock: BETGAK_clean_sbu_0, # of connection points: 6
#     Node 6, Type 0, BuildingBlock: BETGAK_clean_sbu_0, # of connection points: 6
#     Node 7, Type 0, BuildingBlock: BETGAK_clean_sbu_0, # of connection points: 6
#     Node 8, Type 0, BuildingBlock: BETGAK_clean_sbu_0, # of connection points: 6
#     Node 9, Type 0, BuildingBlock: BETGAK_clean_sbu_0, # of connection points: 6
#     Node 10, Type 0, BuildingBlock: BETGAK_clean_sbu_0, # of connection points: 6
#     Node 11, Type 0, BuildingBlock: BETGAK_clean_sbu_0, # of connection points: 6
#     Node 12, Type 0, BuildingBlock: BETGAK_clean_sbu_0, # of connection points: 6
#     Node 13, Type 0, BuildingBlock: BETGAK_clean_sbu_0, # of connection points: 6
#     Node 14, Type 0, BuildingBlock: BETGAK_clean_sbu_0, # of connection points: 6
#     Node 15, Type 0, BuildingBlock: BETGAK_clean_sbu_0, # of connection points: 6
#     Edge 16, Type (0, 0), BuildingBlock: ZUJKAS_clean_linker_0, # of connection points: 2
#     Edge 17, Type (0, 0), BuildingBlock: ZUJKAS_clean_linker_0, # of connection points: 2
#     Edge 18, Type (0, 0), BuildingBlock: ZUJKAS_clean_linker_0, # of connection points: 2
#     Edge 19, Type (0, 0), BuildingBlock: ZUJKAS_clean_linker_0, # of connection points: 2
#     Edge 20, Type (0, 0), BuildingBlock: ZUJKAS_clean_linker_0, # of connection points: 2
#     Edge 21, Type (0, 0), BuildingBlock: ZUJKAS_clean_linker_0, # of connection points: 2
#     Edge 22, Type (0, 0), BuildingBlock: ZUJKAS_clean_linker_0, # of connection points: 2
#     Edge 23, Type (0, 0), BuildingBlock: ZUJKAS_clean_linker_0, # of connection points: 2
#     Edge 24, Type (0, 0), BuildingBlock: ZUJKAS_clean_linker_0, # of connection points: 2
#     Edge 25, Type (0, 0), BuildingBlock: ZUJKAS_clean_linker_0, # of connection points: 2
#     Edge 26, Type (0, 0), BuildingBlock: ZUJKAS_clean_linker_0, # of connection points: 2
#     Edge 27, Type (0, 0), BuildingBlock: ZUJKAS_clean_linker_0, # of connection points: 2
#     Edge 28, Type (0, 0), BuildingBlock: ZUJKAS_clean_linker_0, # of connection points: 2
#     Edge 29, Type (0, 0), BuildingBlock: ZUJKAS_clean_linker_0, # of connection points: 2
#     Edge 30, Type (0, 0), BuildingBlock: ZUJKAS_clean_linker_0, # of connection points: 2
#     Edge 31, Type (0, 0), BuildingBlock: ZUJKAS_clean_linker_0, # of connection points: 2
#     Edge 32, Type (0, 0), BuildingBlock: ZUJKAS_clean_linker_0, # of connection points: 2
#     Edge 33, Type (0, 0), BuildingBlock: ZUJKAS_clean_linker_0, # of connection points: 2
#     Edge 34, Type (0, 0), BuildingBlock: ZUJKAS_clean_linker_0, # of connection points: 2
#     Edge 35, Type (0, 0), BuildingBlock: ZUJKAS_clean_linker_0, # of connection points: 2
#     Edge 36, Type (0, 0), BuildingBlock: ZUJKAS_clean_linker_0, # of connection points: 2
#     Edge 37, Type (0, 0), BuildingBlock: ZUJKAS_clean_linker_0, # of connection points: 2
#     Edge 38, Type (0, 0), BuildingBlock: ZUJKAS_clean_linker_0, # of connection points: 2
#     Edge 39, Type (0, 0), BuildingBlock: ZUJKAS_clean_linker_0, # of connection points: 2
#     Edge 40, Type (0, 0), BuildingBlock: ZUJKAS_clean_linker_0, # of connection points: 2
#     Edge 41, Type (0, 0), BuildingBlock: ZUJKAS_clean_linker_0, # of connection points: 2
#     Edge 42, Type (0, 0), BuildingBlock: ZUJKAS_clean_linker_0, # of connection points: 2
#     Edge 43, Type (0, 0), BuildingBlock: ZUJKAS_clean_linker_0, # of connection points: 2
#     Edge 44, Type (0, 0), BuildingBlock: ZUJKAS_clean_linker_0, # of connection points: 2
#     Edge 45, Type (0, 0), BuildingBlock: ZUJKAS_clean_linker_0, # of connection points: 2
#     Edge 46, Type (0, 0), BuildingBlock: ZUJKAS_clean_linker_0, # of connection points: 2
#     Edge 47, Type (0, 0), BuildingBlock: ZUJKAS_clean_linker_0, # of connection points: 2
#     Edge 48, Type (0, 0), BuildingBlock: ZUJKAS_clean_linker_0, # of connection points: 2
#     Edge 49, Type (0, 0), BuildingBlock: ZUJKAS_clean_linker_0, # of connection points: 2
#     Edge 50, Type (0, 0), BuildingBlock: ZUJKAS_clean_linker_0, # of connection points: 2
#     Edge 51, Type (0, 0), BuildingBlock: ZUJKAS_clean_linker_0, # of connection points: 2
#     Edge 52, Type (0, 0), BuildingBlock: ZUJKAS_clean_linker_0, # of connection points: 2
#     Edge 53, Type (0, 0), BuildingBlock: ZUJKAS_clean_linker_0, # of connection points: 2
#     Edge 54, Type (0, 0), BuildingBlock: ZUJKAS_clean_linker_0, # of connection points: 2
#     Edge 55, Type (0, 0), BuildingBlock: ZUJKAS_clean_linker_0, # of connection points: 2
#     Edge 56, Type (0, 0), BuildingBlock: ZUJKAS_clean_linker_0, # of connection points: 2
#     Edge 57, Type (0, 0), BuildingBlock: ZUJKAS_clean_linker_0, # of connection points: 2
#     Edge 58, Type (0, 0), BuildingBlock: ZUJKAS_clean_linker_0, # of connection points: 2
#     Edge 59, Type (0, 0), BuildingBlock: ZUJKAS_clean_linker_0, # of connection points: 2
#     Edge 60, Type (0, 0), BuildingBlock: ZUJKAS_clean_linker_0, # of connection points: 2
#     Edge 61, Type (0, 0), BuildingBlock: ZUJKAS_clean_linker_0, # of connection points: 2
#     Edge 62, Type (0, 0), BuildingBlock: ZUJKAS_clean_linker_0, # of connection points: 2
#     Edge 63, Type (0, 0), BuildingBlock: ZUJKAS_clean_linker_0, # of connection points: 2
# Relax obj value: 0.347
# Max RMSD: 0.213
# Mean RMSD: 0.213
data_MOF--net-why--node1-BETGAK_clean_sbu_0--edge1-ZUJKAS_clean_linker_0
_symmetry_space_group_name_H-M    P1
_symmetry_Int_Tables_number       1
_symmetry_cell_setting            triclinic
loop_
_symmetry_equiv_pos_as_xyz
'x, y, z'
_cell_length_a     70.476473
_cell_length_b     70.417397
_cell_length_c     46.274757
_cell_angle_alpha  89.914876
_cell_angle_beta   90.020996
_cell_angle_gamma 90.12092
loop_
_atom_site_label
_atom_site_type_symbol
_atom_site_fract_x
_atom_site_fract_y
_atom_site_fract_z
_atom_type_partial_charge
La0 La 0.40951 0.17853 0.02608 0.0
La1 La 0.39599 0.19763 0.06792 0.0
C2 C 0.42599 0.16483 0.99302 0.0
C3 C 0.44542 0.16712 0.98379 0.0
C4 C 0.45669 0.15089 0.98167 0.0
C5 C 0.47519 0.15247 0.97206 0.0
C6 C 0.48222 0.17027 0.96403 0.0
C7 C 0.47163 0.18675 0.9687 0.0
C8 C 0.45315 0.1852 0.97847 0.0
C9 C 0.40635 0.15413 0.07354 0.0
C10 C 0.43867 0.21236 0.05285 0.0
C11 C 0.3768 0.20365 0.11238 0.0
C12 C 0.3578 0.2114 0.11683 0.0
C13 C 0.35348 0.23034 0.10976 0.0
C14 C 0.33646 0.23826 0.11902 0.0
C15 C 0.32376 0.22729 0.13537 0.0
C16 C 0.32695 0.20778 0.13881 0.0
C17 C 0.34401 0.19991 0.12986 0.0
C18 C 0.39832 0.22046 0.02522 0.0
C19 C 0.36416 0.18284 0.01726 0.0
O20 O 0.4246 0.15622 0.00745 0.0
O21 O 0.41539 0.17991 0.9918 0.0
O22 O 0.40017 0.15151 0.04743 0.0
O23 O 0.41306 0.17137 0.07271 0.0
O24 O 0.43523 0.19952 0.03178 0.0
O25 O 0.42513 0.21238 0.07335 0.0
O26 O 0.38964 0.21538 0.10274 0.0
O27 O 0.37755 0.18711 0.09972 0.0
O28 O 0.40096 0.22599 0.0515 0.0
O29 O 0.393 0.20346 0.0238 0.0
O30 O 0.36724 0.19271 0.0421 0.0
O31 O 0.37992 0.175 0.00683 0.0
H32 H 0.4509 0.13693 0.98626 0.0
H33 H 0.4832 0.13966 0.96776 0.0
H34 H 0.47692 0.20049 0.96176 0.0
H35 H 0.44475 0.19798 0.98047 0.0
H36 H 0.3637 0.23939 0.09892 0.0
H37 H 0.33426 0.25338 0.1162 0.0
H38 H 0.3172 0.19912 0.15126 0.0
H39 H 0.34695 0.18517 0.13488 0.0
La40 La 0.63209 0.64864 0.27792 0.0
La41 La 0.61142 0.63389 0.32228 0.0
C42 C 0.6395 0.66174 0.22931 0.0
C43 C 0.64097 0.6815 0.22075 0.0
C44 C 0.65776 0.69175 0.2254 0.0
C45 C 0.65852 0.71086 0.2183 0.0
C46 C 0.64251 0.7197 0.2065 0.0
C47 C 0.62535 0.70985 0.20396 0.0
C48 C 0.62467 0.69076 0.21048 0.0
C49 C 0.65763 0.65182 0.32423 0.0
C50 C 0.59943 0.67796 0.30693 0.0
C51 C 0.60358 0.61487 0.36633 0.0
C52 C 0.59651 0.59551 0.36985 0.0
C53 C 0.57749 0.59101 0.36387 0.0
C54 C 0.57028 0.57342 0.37186 0.0
C55 C 0.58201 0.56022 0.38596 0.0
C56 C 0.60157 0.56375 0.38793 0.0
C57 C 0.60872 0.58146 0.3804 0.0
C58 C 0.59056 0.63807 0.27809 0.0
C59 C 0.62702 0.60249 0.27183 0.0
O60 O 0.65266 0.65518 0.24659 0.0
O61 O 0.62249 0.65694 0.23758 0.0
O62 O 0.66008 0.65656 0.29746 0.0
O63 O 0.64046 0.64496 0.32453 0.0
O64 O 0.61248 0.67493 0.28599 0.0
O65 O 0.59877 0.66408 0.32708 0.0
O66 O 0.59197 0.62704 0.35476 0.0
O67 O 0.62074 0.61646 0.35609 0.0
O68 O 0.58403 0.64063 0.30385 0.0
O69 O 0.6073 0.63194 0.27832 0.0
O70 O 0.61546 0.60576 0.29496 0.0
O71 O 0.63655 0.6179 0.26288 0.0
H72 H 0.67041 0.68493 0.23371 0.0
H73 H 0.67196 0.71832 0.21961 0.0
H74 H 0.61302 0.71638 0.19408 0.0
H75 H 0.61146 0.6832 0.20693 0.0
H76 H 0.56785 0.60143 0.35489 0.0
H77 H 0.55513 0.57111 0.36993 0.0
H78 H 0.61093 0.55359 0.3982 0.0
H79 H 0.62356 0.58451 0.38446 0.0
La80 La 0.16116 0.87203 0.53016 0.0
La81 La 0.17617 0.85144 0.57504 0.0
C82 C 0.14775 0.88035 0.48211 0.0
C83 C 0.12779 0.88065 0.4743 0.0
C84 C 0.11757 0.89766 0.47557 0.0
C85 C 0.09848 0.89776 0.46838 0.0
C86 C 0.08966 0.88087 0.45974 0.0
C87 C 0.09929 0.86361 0.46124 0.0
C88 C 0.11839 0.86352 0.46786 0.0
C89 C 0.15783 0.89743 0.57649 0.0
C90 C 0.13234 0.83871 0.55902 0.0
C91 C 0.19529 0.84365 0.61899 0.0
C92 C 0.21433 0.83578 0.6227 0.0
C93 C 0.21792 0.81644 0.61783 0.0
C94 C 0.23513 0.80861 0.62634 0.0
C95 C 0.2489 0.82007 0.63978 0.0
C96 C 0.24629 0.83982 0.64059 0.0
C97 C 0.22896 0.84758 0.6326 0.0
C98 C 0.17266 0.83078 0.53054 0.0
C99 C 0.20741 0.86745 0.52425 0.0
O100 O 0.15337 0.89324 0.50052 0.0
O101 O 0.15419 0.86356 0.4885 0.0
O102 O 0.1526 0.89961 0.54993 0.0
O103 O 0.16484 0.88034 0.57691 0.0
O104 O 0.1357 0.85115 0.53731 0.0
O105 O 0.14569 0.83907 0.58004 0.0
O106 O 0.18246 0.83232 0.6083 0.0
O107 O 0.19445 0.86065 0.60787 0.0
O108 O 0.17071 0.82378 0.55617 0.0
O109 O 0.17817 0.84769 0.53116 0.0
O110 O 0.20421 0.85592 0.54753 0.0
O111 O 0.19194 0.87682 0.51522 0.0
H112 H 0.12448 0.91095 0.48097 0.0
H113 H 0.09116 0.91123 0.46651 0.0
H114 H 0.09271 0.85057 0.45376 0.0
H115 H 0.12585 0.85012 0.46684 0.0
H116 H 0.20706 0.80708 0.60933 0.0
H117 H 0.2367 0.79334 0.62518 0.0
H118 H 0.25692 0.84902 0.65012 0.0
H119 H 0.22664 0.86264 0.63579 0.0
La120 La 0.89051 0.40012 0.78157 0.0
La121 La 0.91112 0.41558 0.82694 0.0
C122 C 0.88291 0.38714 0.73288 0.0
C123 C 0.88125 0.36748 0.72396 0.0
C124 C 0.86575 0.35635 0.73269 0.0
C125 C 0.86521 0.33722 0.72572 0.0
C126 C 0.88015 0.32917 0.71005 0.0
C127 C 0.89616 0.34001 0.70293 0.0
C128 C 0.89658 0.35913 0.70946 0.0
C129 C 0.865 0.39737 0.82817 0.0
C130 C 0.92363 0.37162 0.8111 0.0
C131 C 0.91859 0.43487 0.87086 0.0
C132 C 0.92684 0.45382 0.87455 0.0
C133 C 0.94633 0.457 0.87039 0.0
C134 C 0.95436 0.47426 0.87839 0.0
C135 C 0.94298 0.48854 0.89056 0.0
C136 C 0.9232 0.48618 0.89098 0.0
C137 C 0.91521 0.4688 0.8835 0.0
C138 C 0.93184 0.41169 0.78239 0.0
C139 C 0.89558 0.44635 0.77526 0.0
O140 O 0.86986 0.3938 0.75021 0.0
O141 O 0.89997 0.39151 0.74133 0.0
O142 O 0.86265 0.39204 0.80164 0.0
O143 O 0.88217 0.40422 0.82801 0.0
O144 O 0.91113 0.37472 0.78944 0.0
O145 O 0.92331 0.38506 0.83201 0.0
O146 O 0.92978 0.42173 0.86084 0.0
O147 O 0.90179 0.43428 0.85906 0.0
O148 O 0.93891 0.41046 0.80808 0.0
O149 O 0.91492 0.41709 0.78306 0.0
O150 O 0.90672 0.4435 0.79904 0.0
O151 O 0.88635 0.43077 0.76626 0.0
H152 H 0.85395 0.36243 0.74444 0.0
H153 H 0.85264 0.329 0.73083 0.0
H154 H 0.90763 0.33409 0.69022 0.0
H155 H 0.90885 0.36744 0.70298 0.0
H156 H 0.95559 0.44584 0.86272 0.0
H157 H 0.96966 0.47559 0.87766 0.0
H158 H 0.91406 0.49714 0.8996 0.0
H159 H 0.90007 0.46679 0.8862 0.0
La160 La 0.65271 0.85148 0.92344 0.0
La161 La 0.63596 0.87215 0.96532 0.0
C162 C 0.67244 0.84419 0.87995 0.0
C163 C 0.69108 0.83559 0.87599 0.0
C164 C 0.6939 0.81604 0.88016 0.0
C165 C 0.71081 0.80773 0.87133 0.0
C166 C 0.725 0.81892 0.85838 0.0
C167 C 0.72308 0.83875 0.85805 0.0
C168 C 0.70608 0.84699 0.86633 0.0
C169 C 0.64914 0.83079 0.96863 0.0
C170 C 0.68248 0.86731 0.97529 0.0
C171 C 0.62172 0.87797 0.00339 0.0
C172 C 0.60407 0.8829 0.01641 0.0
C173 C 0.59263 0.89732 0.00514 0.0
C174 C 0.57364 0.89808 0.01313 0.0
C175 C 0.56618 0.88395 0.03125 0.0
C176 C 0.57764 0.86926 0.04164 0.0
C177 C 0.59661 0.86907 0.03494 0.0
C178 C 0.63344 0.8974 0.91915 0.0
C179 C 0.60892 0.83759 0.93689 0.0
O180 O 0.65884 0.83317 0.88912 0.0
O181 O 0.6724 0.86069 0.89268 0.0
O182 O 0.64902 0.82358 0.94297 0.0
O183 O 0.65334 0.84811 0.96769 0.0
O184 O 0.68026 0.85637 0.95131 0.0
O185 O 0.66636 0.87595 0.98382 0.0
O186 O 0.63263 0.89096 -0.00853 0.0
O187 O 0.61871 0.86248 0.99697 0.0
O188 O 0.62685 0.8994 0.94505 0.0
O189 O 0.64094 0.88048 0.91909 0.0
O190 O 0.61067 0.85169 0.95631 0.0
O191 O 0.62353 0.83659 0.91814 0.0
H192 H 0.68269 0.80698 0.88837 0.0
H193 H 0.71187 0.7924 0.87197 0.0
H194 H 0.73402 0.8477 0.84874 0.0
H195 H 0.70428 0.86217 0.86356 0.0
H196 H 0.59773 0.90709 0.99975 0.0
H197 H 0.56492 0.9098 0.0059 0.0
H198 H 0.57218 0.85858 0.05638 0.0
H199 H 0.60529 0.85745 0.04286 0.0
La200 La 0.43492 0.41598 0.67043 0.0
La201 La 0.41473 0.40013 0.71521 0.0
C202 C 0.44129 0.43548 0.6264 0.0
C203 C 0.44948 0.45435 0.62267 0.0
C204 C 0.46881 0.45776 0.62798 0.0
C205 C 0.47693 0.47482 0.61929 0.0
C206 C 0.46576 0.48852 0.60525 0.0
C207 C 0.446 0.48624 0.60432 0.0
C208 C 0.43794 0.46906 0.61248 0.0
C209 C 0.45613 0.41265 0.71453 0.0
C210 C 0.41977 0.44658 0.72221 0.0
C211 C 0.40881 0.38734 0.76464 0.0
C212 C 0.40533 0.36871 0.77636 0.0
C213 C 0.3916 0.35662 0.76443 0.0
C214 C 0.39153 0.33749 0.77195 0.0
C215 C 0.40552 0.33047 0.79063 0.0
C216 C 0.41928 0.34266 0.80223 0.0
C217 C 0.41898 0.36171 0.79551 0.0
C218 C 0.38899 0.39696 0.66918 0.0
C219 C 0.44826 0.37214 0.68596 0.0
O220 O 0.45266 0.42215 0.63542 0.0
O221 O 0.42484 0.43497 0.63924 0.0
O222 O 0.46295 0.41134 0.68865 0.0
O223 O 0.43897 0.41743 0.71409 0.0
O224 O 0.43107 0.44374 0.69865 0.0
O225 O 0.4104 0.43092 0.73086 0.0
O226 O 0.39548 0.39566 0.74946 0.0
O227 O 0.42535 0.38797 0.75211 0.0
O228 O 0.38717 0.39094 0.69553 0.0
O229 O 0.40602 0.4042 0.66889 0.0
O230 O 0.43491 0.37455 0.70656 0.0
O231 O 0.44864 0.38615 0.6659 0.0
H232 H 0.47793 0.44684 0.63685 0.0
H233 H 0.49222 0.47624 0.62054 0.0
H234 H 0.43708 0.49685 0.59418 0.0
H235 H 0.42288 0.46685 0.60906 0.0
H236 H 0.38127 0.36182 0.74902 0.0
H237 H 0.38053 0.32825 0.76356 0.0
H238 H 0.42982 0.33762 0.81747 0.0
H239 H 0.42996 0.37088 0.80428 0.0
La240 La 0.87109 0.1981 0.41792 0.0
La241 La 0.88667 0.17745 0.46278 0.0
C242 C 0.85193 0.20456 0.37371 0.0
C243 C 0.83253 0.21111 0.37007 0.0
C244 C 0.82588 0.22732 0.38452 0.0
C245 C 0.80888 0.23553 0.3759 0.0
C246 C 0.7988 0.22768 0.35262 0.0
C247 C 0.80383 0.20976 0.34196 0.0
C248 C 0.82082 0.20158 0.35052 0.0
C249 C 0.87595 0.21938 0.46149 0.0
C250 C 0.84034 0.18285 0.46851 0.0
C251 C 0.89798 0.16878 0.51205 0.0
C252 C 0.91714 0.16713 0.52281 0.0
C253 C 0.92973 0.15372 0.51132 0.0
C254 C 0.94878 0.15441 0.51881 0.0
C255 C 0.95527 0.16858 0.5376 0.0
C256 C 0.94271 0.18234 0.54821 0.0
C257 C 0.92374 0.18144 0.54119 0.0
C258 C 0.88952 0.15221 0.41616 0.0
C259 C 0.91515 0.21054 0.43388 0.0
O260 O 0.86393 0.21675 0.38451 0.0
O261 O 0.85366 0.18766 0.38489 0.0
O262 O 0.87669 0.226 0.43543 0.0
O263 O 0.87028 0.2024 0.46198 0.0
O264 O 0.84321 0.19408 0.44502 0.0
O265 O 0.85579 0.17337 0.47734 0.0
O266 O 0.89212 0.15608 0.49346 0.0
O267 O 0.89408 0.18604 0.50395 0.0
O268 O 0.89589 0.1501 0.4422 0.0
O269 O 0.88256 0.1693 0.41643 0.0
O270 O 0.91242 0.19755 0.45503 0.0
O271 O 0.90141 0.21073 0.41337 0.0
H272 H 0.83443 0.23447 0.40066 0.0
H273 H 0.80496 0.24923 0.38469 0.0
H274 H 0.79613 0.20336 0.32419 0.0
H275 H 0.82556 0.18867 0.34007 0.0
H276 H 0.92494 0.14282 0.49651 0.0
H277 H 0.9583 0.14357 0.5108 0.0
H278 H 0.94726 0.19316 0.56334 0.0
H279 H 0.91425 0.19218 0.5497 0.0
La280 La 0.13707 0.6318 0.16599 0.0
La281 La 0.15721 0.64961 0.20965 0.0
C282 C 0.12684 0.61823 0.11894 0.0
C283 C 0.11854 0.59948 0.11334 0.0
C284 C 0.09914 0.59617 0.11796 0.0
C285 C 0.09122 0.57868 0.11101 0.0
C286 C 0.10261 0.5642 0.09938 0.0
C287 C 0.12235 0.56683 0.09816 0.0
C288 C 0.13021 0.58445 0.10453 0.0
C289 C 0.11862 0.63001 0.21347 0.0
C290 C 0.15228 0.60279 0.21727 0.0
C291 C 0.1666 0.66267 0.25789 0.0
C292 C 0.16789 0.68204 0.26789 0.0
C293 C 0.18217 0.69426 0.25786 0.0
C294 C 0.18191 0.71324 0.26572 0.0
C295 C 0.16725 0.72 0.28327 0.0
C296 C 0.15248 0.70796 0.292 0.0
C297 C 0.153 0.68901 0.28487 0.0
C298 C 0.1832 0.65054 0.16426 0.0
C299 C 0.12315 0.67674 0.18092 0.0
O300 O 0.11637 0.63007 0.13367 0.0
O301 O 0.14452 0.61812 0.12763 0.0
O302 O 0.11739 0.61668 0.19425 0.0
O303 O 0.12839 0.64363 0.2042 0.0
O304 O 0.14441 0.60401 0.19071 0.0
O305 O 0.15885 0.61924 0.22785 0.0
O306 O 0.17898 0.65696 0.2389 0.0
O307 O 0.1495 0.6581 0.25051 0.0
O308 O 0.18408 0.65916 0.18887 0.0
O309 O 0.16616 0.64326 0.16393 0.0
O310 O 0.13757 0.67549 0.20027 0.0
O311 O 0.12152 0.66133 0.16328 0.0
H312 H 0.08986 0.60731 0.1257 0.0
H313 H 0.07595 0.57723 0.11239 0.0
H314 H 0.13156 0.55573 0.09011 0.0
H315 H 0.14534 0.58644 0.10166 0.0
H316 H 0.19361 0.68915 0.24433 0.0
H317 H 0.19361 0.72239 0.25956 0.0
H318 H 0.14133 0.71281 0.30634 0.0
H319 H 0.14172 0.67979 0.29255 0.0
La320 La 0.88599 0.65196 0.52967 0.0
La321 La 0.86859 0.67312 0.57395 0.0
C322 C 0.90079 0.64129 0.48368 0.0
C323 C 0.92051 0.64311 0.47507 0.0
C324 C 0.93232 0.62722 0.47786 0.0
C325 C 0.95116 0.6284 0.46985 0.0
C326 C 0.95806 0.64527 0.4579 0.0
C327 C 0.94696 0.66174 0.45794 0.0
C328 C 0.92811 0.66066 0.46637 0.0
C329 C 0.88533 0.62656 0.57617 0.0
C330 C 0.91334 0.68677 0.55791 0.0
C331 C 0.85552 0.68364 0.6211 0.0
C332 C 0.83675 0.69163 0.62702 0.0
C333 C 0.83319 0.71099 0.62228 0.0
C334 C 0.81562 0.71861 0.62919 0.0
C335 C 0.80139 0.70698 0.64105 0.0
C336 C 0.80427 0.6873 0.64266 0.0
C337 C 0.82193 0.67972 0.63617 0.0
C338 C 0.86711 0.69025 0.52564 0.0
C339 C 0.83931 0.65739 0.52285 0.0
O340 O 0.89822 0.63021 0.50583 0.0
O341 O 0.89094 0.65691 0.48552 0.0
O342 O 0.89225 0.62411 0.5507 0.0
O343 O 0.8791 0.64393 0.57531 0.0
O344 O 0.912 0.67195 0.5391 0.0
O345 O 0.89798 0.68876 0.57546 0.0
O346 O 0.86694 0.6942 0.60563 0.0
O347 O 0.85561 0.66583 0.61301 0.0
O348 O 0.85372 0.69208 0.54472 0.0
O349 O 0.88068 0.68077 0.53541 0.0
O350 O 0.84075 0.66566 0.5492 0.0
O351 O 0.85553 0.65038 0.51209 0.0
H352 H 0.92682 0.61365 0.48515 0.0
H353 H 0.9596 0.61556 0.46942 0.0
H354 H 0.95217 0.67477 0.44823 0.0
H355 H 0.91938 0.67327 0.46482 0.0
H356 H 0.84418 0.72046 0.61441 0.0
H357 H 0.81389 0.73386 0.62772 0.0
H358 H 0.79337 0.67801 0.65127 0.0
H359 H 0.82414 0.66463 0.63924 0.0
La360 La 0.15638 0.17243 0.78289 0.0
La361 La 0.13587 0.15735 0.82799 0.0
C362 C 0.16345 0.18513 0.73382 0.0
C363 C 0.1654 0.20454 0.72389 0.0
C364 C 0.18125 0.21556 0.73138 0.0
C365 C 0.18188 0.23458 0.72361 0.0
C366 C 0.1666 0.24262 0.70863 0.0
C367 C 0.15043 0.23181 0.7024 0.0
C368 C 0.14996 0.21281 0.70953 0.0
C369 C 0.18192 0.17567 0.82924 0.0
C370 C 0.12348 0.20125 0.812 0.0
C371 C 0.12748 0.13831 0.87172 0.0
C372 C 0.1213 0.11861 0.87503 0.0
C373 C 0.10269 0.11308 0.8679 0.0
C374 C 0.09593 0.09547 0.87678 0.0
C375 C 0.10767 0.08345 0.89303 0.0
C376 C 0.12703 0.0877 0.89579 0.0
C377 C 0.13375 0.10537 0.88723 0.0
C378 C 0.1154 0.16096 0.78318 0.0
C379 C 0.15186 0.12614 0.77732 0.0
O380 O 0.17667 0.17838 0.75084 0.0
O381 O 0.1464 0.18139 0.74317 0.0
O382 O 0.18427 0.18065 0.80253 0.0
O383 O 0.16481 0.16871 0.82949 0.0
O384 O 0.13618 0.19818 0.79063 0.0
O385 O 0.1235 0.18769 0.83275 0.0
O386 O 0.11567 0.14974 0.85894 0.0
O387 O 0.14492 0.14084 0.86307 0.0
O388 O 0.10862 0.16412 0.80863 0.0
O389 O 0.13215 0.15512 0.78423 0.0
O390 O 0.14103 0.12902 0.80139 0.0
O391 O 0.1605 0.14184 0.76751 0.0
H392 H 0.19318 0.20949 0.74287 0.0
H393 H 0.1946 0.24278 0.7279 0.0
H394 H 0.13872 0.23765 0.69007 0.0
H395 H 0.1375 0.20456 0.70381 0.0
H396 H 0.09291 0.12283 0.85761 0.0
H397 H 0.08093 0.09243 0.87427 0.0
H398 H 0.13631 0.07844 0.90803 0.0
H399 H 0.14829 0.10919 0.89221 0.0
La400 La 0.63835 0.3968 0.02444 0.0
La401 La 0.6539 0.37694 0.06952 0.0
C402 C 0.62415 0.40274 0.98582 0.0
C403 C 0.60415 0.40361 0.97841 0.0
C404 C 0.59434 0.42085 0.98006 0.0
C405 C 0.57519 0.42139 0.9733 0.0
C406 C 0.56593 0.40474 0.9647 0.0
C407 C 0.57517 0.38724 0.96591 0.0
C408 C 0.59431 0.38671 0.97211 0.0
C409 C 0.63464 0.42253 0.07041 0.0
C410 C 0.61008 0.36352 0.05387 0.0
C411 C 0.67336 0.37089 0.11364 0.0
C412 C 0.6925 0.36371 0.11725 0.0
C413 C 0.69893 0.34802 0.10135 0.0
C414 C 0.71565 0.33906 0.10946 0.0
C415 C 0.72571 0.34565 0.13365 0.0
C416 C 0.72084 0.3631 0.14618 0.0
C417 C 0.70413 0.37204 0.1381 0.0
C418 C 0.65008 0.35557 0.02582 0.0
C419 C 0.68458 0.39241 0.01784 0.0
O420 O 0.63131 0.41685 -0.00745 0.0
O421 O 0.62958 0.38596 0.99424 0.0
O422 O 0.62871 0.42425 0.04405 0.0
O423 O 0.64197 0.40559 0.07083 0.0
O424 O 0.61284 0.37639 0.03263 0.0
O425 O 0.62383 0.36357 0.07435 0.0
O426 O 0.66088 0.35886 0.10374 0.0
O427 O 0.67215 0.38751 0.10143 0.0
O428 O 0.64802 0.349 0.05177 0.0
O429 O 0.65557 0.37254 0.02597 0.0
O430 O 0.68168 0.38108 0.04139 0.0
O431 O 0.66901 0.4018 0.00919 0.0
H432 H 0.60157 0.43397 0.98542 0.0
H433 H 0.56816 0.43503 0.97168 0.0
H434 H 0.56821 0.37437 0.95854 0.0
H435 H 0.60146 0.37311 0.97103 0.0
H436 H 0.69039 0.34185 0.08429 0.0
H437 H 0.71945 0.32577 0.09919 0.0
H438 H 0.72848 0.36858 0.16471 0.0
H439 H 0.69955 0.38456 0.14974 0.0
La440 La 0.4134 0.87657 0.27707 0.0
La441 La 0.43411 0.89234 0.32114 0.0
C442 C 0.40457 0.86464 0.22824 0.0
C443 C 0.40422 0.84524 0.21805 0.0
C444 C 0.39055 0.83231 0.22809 0.0
C445 C 0.39177 0.81334 0.22031 0.0
C446 C 0.4067 0.8073 0.20267 0.0
C447 C 0.42091 0.82004 0.19404 0.0
C448 C 0.41949 0.83895 0.20126 0.0
C449 C 0.38804 0.87388 0.32362 0.0
C450 C 0.44715 0.84839 0.30554 0.0
C451 C 0.44036 0.91182 0.36505 0.0
C452 C 0.44719 0.93111 0.36863 0.0
C453 C 0.46291 0.9379 0.35308 0.0
C454 C 0.47162 0.95469 0.36165 0.0
C455 C 0.46477 0.96435 0.38602 0.0
C456 C 0.44714 0.95927 0.39785 0.0
C457 C 0.43847 0.94251 0.38931 0.0
C458 C 0.45506 0.88765 0.27753 0.0
C459 C 0.41882 0.92294 0.26998 0.0
O460 O 0.3919 0.8695 0.24746 0.0
O461 O 0.42154 0.8703 0.23519 0.0
O462 O 0.38612 0.86742 0.29763 0.0
O463 O 0.40515 0.88094 0.32353 0.0
O464 O 0.43384 0.85091 0.28476 0.0
O465 O 0.44738 0.86227 0.32582 0.0
O466 O 0.45249 0.8996 0.35481 0.0
O467 O 0.42364 0.91033 0.35329 0.0
O468 O 0.46196 0.887 0.30343 0.0
O469 O 0.43811 0.89321 0.27728 0.0
O470 O 0.43061 0.91995 0.29282 0.0
O471 O 0.4088 0.90752 0.26218 0.0
H472 H 0.37887 0.83682 0.24162 0.0
H473 H 0.38057 0.80363 0.22663 0.0
H474 H 0.43231 0.81573 0.17979 0.0
H475 H 0.43039 0.84867 0.19374 0.0
H476 H 0.46935 0.92955 0.33606 0.0
H477 H 0.485 0.95871 0.35182 0.0
H478 H 0.4414 0.96663 0.41642 0.0
H479 H 0.42589 0.93766 0.40062 0.0
La480 La 0.17731 0.37505 0.41757 0.0
La481 La 0.16212 0.39599 0.4628 0.0
C482 C 0.19621 0.36701 0.37368 0.0
C483 C 0.21565 0.36023 0.37017 0.0
C484 C 0.22069 0.34155 0.37767 0.0
C485 C 0.23798 0.33423 0.36855 0.0
C486 C 0.25016 0.34552 0.35177 0.0
C487 C 0.24646 0.36497 0.34864 0.0
C488 C 0.2291 0.37223 0.3574 0.0
C489 C 0.17406 0.35495 0.46305 0.0
C490 C 0.20861 0.39121 0.46809 0.0
C491 C 0.14966 0.40444 0.51147 0.0
C492 C 0.13013 0.40527 0.52103 0.0
C493 C 0.11785 0.41939 0.51075 0.0
C494 C 0.09881 0.41883 0.51818 0.0
C495 C 0.09201 0.40415 0.53581 0.0
C496 C 0.10405 0.38942 0.54454 0.0
C497 C 0.12306 0.39013 0.53756 0.0
C498 C 0.15908 0.42121 0.4159 0.0
C499 C 0.13354 0.36241 0.43388 0.0
O500 O 0.18422 0.35529 0.38562 0.0
O501 O 0.19442 0.38431 0.38333 0.0
O502 O 0.1721 0.34752 0.43772 0.0
O503 O 0.17927 0.3719 0.46152 0.0
O504 O 0.20567 0.38041 0.44398 0.0
O505 O 0.19292 0.39979 0.47804 0.0
O506 O 0.15534 0.41726 0.4929 0.0
O507 O 0.15476 0.38741 0.5041 0.0
O508 O 0.15409 0.42371 0.44252 0.0
O509 O 0.16597 0.40404 0.41608 0.0
O510 O 0.13673 0.37504 0.45542 0.0
O511 O 0.14687 0.36273 0.41284 0.0
H512 H 0.21078 0.33214 0.38846 0.0
H513 H 0.24062 0.31919 0.37138 0.0
H514 H 0.25587 0.37392 0.33601 0.0
H515 H 0.22565 0.38682 0.35216 0.0
H516 H 0.12294 0.43096 0.49737 0.0
H517 H 0.08964 0.43042 0.51171 0.0
H518 H 0.09912 0.37817 0.55871 0.0
H519 H 0.13228 0.37886 0.54518 0.0
La520 La 0.91125 0.89216 0.16468 0.0
La521 La 0.89093 0.87631 0.20931 0.0
C522 C 0.91793 0.91188 0.12094 0.0
C523 C 0.92496 0.93123 0.11725 0.0
C524 C 0.94385 0.93601 0.12377 0.0
C525 C 0.95109 0.95347 0.11502 0.0
C526 C 0.93949 0.96614 0.09968 0.0
C527 C 0.92002 0.96244 0.09708 0.0
C528 C 0.91284 0.94492 0.10547 0.0
C529 C 0.93225 0.88881 0.20908 0.0
C530 C 0.89551 0.92251 0.21706 0.0
C531 C 0.8853 0.86034 0.25638 0.0
C532 C 0.88295 0.84027 0.26276 0.0
C533 C 0.86489 0.83196 0.26316 0.0
C534 C 0.86291 0.81318 0.27176 0.0
C535 C 0.87897 0.80286 0.28001 0.0
C536 C 0.89714 0.81027 0.2757 0.0
C537 C 0.89914 0.82909 0.26794 0.0
C538 C 0.86543 0.87301 0.16288 0.0
C539 C 0.92439 0.8484 0.17945 0.0
O540 O 0.92984 0.89948 0.13126 0.0
O541 O 0.9011 0.91034 0.13241 0.0
O542 O 0.93909 0.8871 0.18328 0.0
O543 O 0.91512 0.89371 0.20845 0.0
O544 O 0.90671 0.91979 0.19327 0.0
O545 O 0.88637 0.90676 0.22592 0.0
O546 O 0.87166 0.86899 0.2423 0.0
O547 O 0.90203 0.86433 0.24617 0.0
O548 O 0.86309 0.86788 0.18953 0.0
O549 O 0.88245 0.88026 0.16297 0.0
O550 O 0.91149 0.85109 0.20054 0.0
O551 O 0.9244 0.8622 0.1591 0.0
H552 H 0.95339 0.92585 0.13366 0.0
H553 H 0.96619 0.95604 0.11726 0.0
H554 H 0.91086 0.97217 0.08549 0.0
H555 H 0.89812 0.94161 0.10091 0.0
H556 H 0.8523 0.84023 0.25864 0.0
H557 H 0.84881 0.80755 0.27557 0.0
H558 H 0.9096 0.80249 0.28269 0.0
H559 H 0.91333 0.83506 0.26757 0.0
La560 La 0.3939 0.67351 0.92301 0.0
La561 La 0.40975 0.65282 0.96757 0.0
C562 C 0.37442 0.68079 0.87916 0.0
C563 C 0.35557 0.68904 0.87523 0.0
C564 C 0.35238 0.70849 0.87974 0.0
C565 C 0.33521 0.71654 0.87155 0.0
C566 C 0.32103 0.70523 0.85884 0.0
C567 C 0.3234 0.68545 0.85794 0.0
C568 C 0.34069 0.67745 0.86563 0.0
C569 C 0.39873 0.69434 0.9669 0.0
C570 C 0.36341 0.6578 0.97429 0.0
C571 C 0.42239 0.64625 0.00725 0.0
C572 C 0.44157 0.6447 0.01808 0.0
C573 C 0.45431 0.63147 0.00652 0.0
C574 C 0.47336 0.63235 0.01403 0.0
C575 C 0.47975 0.64659 0.0328 0.0
C576 C 0.46701 0.66006 0.04374 0.0
C577 C 0.44801 0.65897 0.03671 0.0
C578 C 0.4129 0.62773 0.92094 0.0
C579 C 0.43803 0.68616 0.9381 0.0
O580 O 0.38763 0.69203 0.88896 0.0
O581 O 0.37488 0.66408 0.89133 0.0
O582 O 0.40019 0.70119 0.94107 0.0
O583 O 0.39295 0.67744 0.96684 0.0
O584 O 0.36644 0.66984 0.95168 0.0
O585 O 0.37881 0.64777 0.98204 0.0
O586 O 0.41568 0.63244 0.99957 0.0
O587 O 0.41873 0.66329 -0.00219 0.0
O588 O 0.41926 0.62562 0.94702 0.0
O589 O 0.40569 0.64474 0.92108 0.0
O590 O 0.4356 0.67284 0.95889 0.0
O591 O 0.42392 0.68673 0.91825 0.0
H592 H 0.36348 0.71772 0.88786 0.0
H593 H 0.33388 0.73185 0.87259 0.0
H594 H 0.31252 0.67636 0.84886 0.0
H595 H 0.34274 0.66234 0.86261 0.0
H596 H 0.44963 0.62059 -0.00842 0.0
H597 H 0.48301 0.62166 0.0059 0.0
H598 H 0.47151 0.67086 0.05895 0.0
H599 H 0.43838 0.66953 0.04534 0.0
La600 La 0.6134 0.15721 0.67086 0.0
La601 La 0.63548 0.1743 0.7119 0.0
C602 C 0.60272 0.14288 0.62467 0.0
C603 C 0.59581 0.12364 0.61977 0.0
C604 C 0.58059 0.11623 0.63588 0.0
C605 C 0.57323 0.09849 0.62903 0.0
C606 C 0.58085 0.08829 0.60576 0.0
C607 C 0.59777 0.09445 0.59281 0.0
C608 C 0.60512 0.11219 0.59964 0.0
C609 C 0.59685 0.1559 0.71956 0.0
C610 C 0.62992 0.12794 0.7212 0.0
C611 C 0.64933 0.1892 0.75584 0.0
C612 C 0.64463 0.20631 0.77093 0.0
C613 C 0.65975 0.21796 0.77893 0.0
C614 C 0.65632 0.23634 0.78773 0.0
C615 C 0.63765 0.24303 0.78917 0.0
C616 C 0.62249 0.23162 0.77993 0.0
C617 C 0.62598 0.21321 0.77077 0.0
C618 C 0.66053 0.17268 0.66568 0.0
C619 C 0.59961 0.20153 0.68559 0.0
O620 O 0.59186 0.154 0.64007 0.0
O621 O 0.62058 0.14383 0.63214 0.0
O622 O 0.59519 0.14231 0.7008 0.0
O623 O 0.60621 0.16972 0.70991 0.0
O624 O 0.62038 0.12943 0.69595 0.0
O625 O 0.63797 0.14408 0.7305 0.0
O626 O 0.65482 0.19298 0.72961 0.0
O627 O 0.63737 0.17497 0.75727 0.0
O628 O 0.66329 0.17912 0.69119 0.0
O629 O 0.64306 0.16661 0.66617 0.0
O630 O 0.61442 0.19988 0.70439 0.0
O631 O 0.5975 0.18624 0.66812 0.0
H632 H 0.57373 0.12447 0.6526 0.0
H633 H 0.56034 0.09375 0.63959 0.0
H634 H 0.60404 0.08672 0.57499 0.0
H635 H 0.61744 0.11739 0.58804 0.0
H636 H 0.67426 0.21293 0.77781 0.0
H637 H 0.66816 0.24486 0.79526 0.0
H638 H 0.60799 0.23664 0.78128 0.0
H639 H 0.61425 0.20448 0.76342 0.0
H640 H 0.44399 0.24922 0.02444 0.0
H641 H 0.4704 0.27205 0.02293 0.0
H642 H 0.50235 0.23624 0.07976 0.0
H643 H 0.47606 0.21314 0.08061 0.0
H644 H 0.49093 0.29813 0.0512 0.0
H645 H 0.54818 0.24699 0.03384 0.0
H646 H 0.52357 0.24053 0.02959 0.0
H647 H 0.53432 0.24063 0.06492 0.0
C648 C 0.4566 0.24551 0.03639 0.0
C649 C 0.45657 0.22774 0.05211 0.0
C650 C 0.47236 0.25934 0.03576 0.0
C651 C 0.49021 0.25717 0.05068 0.0
C652 C 0.49007 0.23951 0.06672 0.0
H653 H 0.60119 0.32958 0.088 0.0
H654 H 0.575 0.30622 0.086 0.0
C655 C 0.47425 0.22572 0.06745 0.0
C656 C 0.50799 0.27283 0.04999 0.0
H657 H 0.55799 0.2778 0.04826 0.0
C658 C 0.50545 0.29316 0.05051 0.0
C659 C 0.5281 0.26836 0.04834 0.0
C660 C 0.53387 0.24802 0.04377 0.0
C661 C 0.52082 0.30757 0.05071 0.0
C662 C 0.54092 0.30305 0.05035 0.0
C663 C 0.54346 0.28275 0.04926 0.0
C664 C 0.55871 0.31865 0.05111 0.0
C665 C 0.51514 0.32813 0.05213 0.0
C666 C 0.56069 0.33495 0.03231 0.0
C667 C 0.57649 0.34875 0.03321 0.0
C668 C 0.5921 0.34826 0.05342 0.0
C669 C 0.59021 0.33189 0.07203 0.0
C670 C 0.57461 0.31788 0.07075 0.0
H671 H 0.50008 0.32986 0.05868 0.0
H672 H 0.52429 0.33598 0.06761 0.0
H673 H 0.51697 0.33467 0.03049 0.0
H674 H 0.54997 0.33706 0.01589 0.0
H675 H 0.57633 0.36012 0.01744 0.0
H676 H 0.60235 0.71908 0.31881 0.0
H677 H 0.57882 0.74509 0.31741 0.0
H678 H 0.53643 0.70558 0.28895 0.0
H679 H 0.55941 0.67971 0.29234 0.0
H680 H 0.55704 0.76891 0.28983 0.0
H681 H 0.4971 0.72774 0.33307 0.0
H682 H 0.52077 0.71825 0.33346 0.0
H683 H 0.50661 0.71733 0.30091 0.0
C684 C 0.58801 0.71547 0.31248 0.0
C685 C 0.58404 0.69579 0.30605 0.0
C686 C 0.57392 0.73104 0.31154 0.0
C687 C 0.5541 0.72897 0.30383 0.0
C688 C 0.55043 0.70932 0.29655 0.0
H689 H 0.44915 0.81253 0.27318 0.0
H690 H 0.47261 0.78645 0.27222 0.0
C691 C 0.56436 0.69377 0.29804 0.0
C692 C 0.53811 0.74652 0.30326 0.0
H693 H 0.48972 0.75799 0.31483 0.0
C694 C 0.54246 0.76599 0.29579 0.0
C695 C 0.51799 0.74487 0.31022 0.0
C696 C 0.51025 0.72603 0.32012 0.0
C697 C 0.52877 0.78199 0.29493 0.0
C698 C 0.50879 0.78028 0.30225 0.0
C699 C 0.50436 0.76086 0.30924 0.0
C700 C 0.49296 0.79784 0.30279 0.0
C701 C 0.53586 0.80098 0.28456 0.0
C702 C 0.49443 0.81481 0.32015 0.0
C703 C 0.48015 0.83011 0.32139 0.0
C704 C 0.4627 0.83064 0.30499 0.0
C705 C 0.46143 0.81387 0.28708 0.0
C706 C 0.47549 0.79831 0.28642 0.0
H707 H 0.55047 0.80017 0.27565 0.0
H708 H 0.52625 0.80664 0.26758 0.0
H709 H 0.53583 0.8112 0.30277 0.0
H710 H 0.50686 0.81631 0.33369 0.0
H711 H 0.4831 0.84199 0.33551 0.0
H712 H 0.10007 0.8314 0.59802 0.0
H713 H 0.07344 0.80843 0.59637 0.0
H714 H 0.09537 0.7855 0.51757 0.0
H715 H 0.12134 0.80858 0.51873 0.0
H716 H 0.99216 0.79765 0.5606 0.0
H717 H 0.08532 0.7339 0.55499 0.0
H718 H 0.09489 0.75667 0.56557 0.0
H719 H 0.09038 0.75167 0.52813 0.0
C720 C 0.09958 0.82168 0.57995 0.0
C721 C 0.11434 0.82335 0.55845 0.0
C722 C 0.08366 0.80796 0.57895 0.0
C723 C 0.08089 0.79367 0.55692 0.0
C724 C 0.09575 0.79522 0.53563 0.0
H725 H 0.94745 0.69081 0.52194 0.0
H726 H 0.97343 0.71445 0.52106 0.0
C727 C 0.11129 0.80927 0.5362 0.0
C728 C 0.06329 0.77785 0.55619 0.0
H729 H 0.05247 0.72889 0.55011 0.0
C730 C 0.99536 0.78267 0.55862 0.0
C731 C 0.06536 0.75743 0.55284 0.0
C732 C 0.08505 0.74939 0.55043 0.0
C733 C 0.97924 0.76912 0.55761 0.0
C734 C 0.98135 0.74863 0.55536 0.0
C735 C 0.04927 0.74385 0.55241 0.0
C736 C 0.96383 0.73268 0.55582 0.0
C737 C 0.95956 0.77737 0.55735 0.0
C738 C 0.94785 0.73291 0.57536 0.0
C739 C 0.93248 0.71867 0.57614 0.0
C740 C 0.93106 0.70234 0.55746 0.0
C741 C 0.94691 0.70216 0.53765 0.0
C742 C 0.96241 0.71633 0.53708 0.0
H743 H 0.95964 0.79247 0.55034 0.0
H744 H 0.95012 0.76923 0.54264 0.0
H745 H 0.95355 0.77673 0.57946 0.0
H746 H 0.9472 0.74422 0.59108 0.0
H747 H 0.92139 0.72064 0.59202 0.0
H748 H 0.94053 0.34787 0.85664 0.0
H749 H 0.96346 0.32131 0.85546 0.0
H750 H 0.96748 0.32662 0.76349 0.0
H751 H 0.94359 0.35202 0.76441 0.0
H752 H 0.96655 0.28147 0.82705 0.0
H753 H 0.07438 0.32348 0.78351 0.0
H754 H 0.0544 0.33476 0.80091 0.0
H755 H 0.05202 0.32566 0.76492 0.0
C756 C 0.94594 0.34363 0.83575 0.0
C757 C 0.93889 0.35363 0.81071 0.0
C758 C 0.95967 0.32779 0.83504 0.0
C759 C 0.96876 0.32054 0.80937 0.0
C760 C 0.96193 0.33071 0.78437 0.0
H761 H 0.11565 0.23155 0.77008 0.0
H762 H 0.09213 0.25754 0.76888 0.0
C763 C 0.94762 0.34598 0.78496 0.0
C764 C 0.98456 0.30301 0.80876 0.0
H765 H 0.07979 0.29084 0.78983 0.0
C766 C 0.98076 0.28407 0.81903 0.0
C767 C 0.05199 0.30425 0.79789 0.0
C768 C 0.05873 0.32306 0.78627 0.0
C769 C 0.99422 0.26794 0.81857 0.0
C770 C 0.06196 0.26935 0.80891 0.0
C771 C 0.06565 0.28825 0.79812 0.0
C772 C 0.07799 0.25194 0.80967 0.0
C773 C 0.98652 0.24882 0.82723 0.0
C774 C 0.0801 0.23821 0.8327 0.0
C775 C 0.09423 0.22281 0.83353 0.0
C776 C 0.10821 0.21915 0.81152 0.0
C777 C 0.10618 0.23283 0.78839 0.0
C778 C 0.09208 0.24834 0.78764 0.0
H779 H 0.97089 0.24808 0.82433 0.0
H780 H 0.99307 0.23728 0.8143 0.0
H781 H 0.98964 0.24628 0.8504 0.0
H782 H 0.07078 0.23941 0.85113 0.0
H783 H 0.09408 0.21352 0.85217 0.0
H784 H 0.56753 0.84202 0.93729 0.0
H785 H 0.54111 0.81882 0.93838 0.0
H786 H 0.58115 0.77322 0.94216 0.0
H787 H 0.60752 0.79633 0.93946 0.0
H788 H 0.52704 0.78593 0.90122 0.0
H789 H 0.54369 0.75475 -0.00238 0.0
H790 H 0.55026 0.77814 0.99822 0.0
H791 H 0.56315 0.75838 0.98389 0.0
C792 C 0.57117 0.8271 0.938 0.0
C793 C 0.59106 0.82226 0.93752 0.0
C794 C 0.55541 0.81326 0.93874 0.0
C795 C 0.55758 0.7929 0.94049 0.0
C796 C 0.57747 0.78811 0.9409 0.0
H797 H 0.4772 0.68479 0.9602 0.0
H798 H 0.5032 0.70843 0.96091 0.0
C799 C 0.59321 0.8019 0.93908 0.0
C800 C 0.53983 0.77732 0.94118 0.0
H801 H 0.51902 0.73952 0.98054 0.0
C802 C 0.52566 0.77597 0.91895 0.0
C803 C 0.53622 0.76328 0.96355 0.0
C804 C 0.54878 0.76343 0.98986 0.0
C805 C 0.50997 0.76199 0.91784 0.0
C806 C 0.5063 0.7478 0.94008 0.0
C807 C 0.52043 0.74932 0.96261 0.0
C808 C 0.48868 0.73188 0.94001 0.0
C809 C 0.49772 0.76236 0.89122 0.0
C810 C 0.4698 0.73504 0.92875 0.0
C811 C 0.45447 0.7208 0.92771 0.0
C812 C 0.45579 0.70163 0.93843 0.0
C813 C 0.47435 0.69859 0.95086 0.0
C814 C 0.48986 0.71278 0.95142 0.0
H815 H 0.50519 0.76905 0.87267 0.0
H816 H 0.49337 0.74782 0.88478 0.0
H817 H 0.48485 0.77092 0.89568 0.0
H818 H 0.46635 0.74905 0.92088 0.0
H819 H 0.44099 0.72525 0.91878 0.0
H820 H 0.44908 0.33587 0.71724 0.0
H821 H 0.47206 0.30938 0.7184 0.0
H822 H 0.50765 0.33939 0.65875 0.0
H823 H 0.48444 0.36551 0.65685 0.0
H824 H 0.48907 0.28031 0.68161 0.0
H825 H 0.55077 0.32324 0.71363 0.0
H826 H 0.52671 0.33115 0.71922 0.0
H827 H 0.53748 0.33337 0.68421 0.0
C828 C 0.4616 0.33717 0.70381 0.0
C829 C 0.46346 0.35414 0.68642 0.0
C830 C 0.47536 0.32135 0.70458 0.0
C831 C 0.49305 0.3208 0.68884 0.0
C832 C 0.49505 0.33794 0.6719 0.0
H833 H 0.5973 0.23858 0.65679 0.0
H834 H 0.57371 0.2645 0.65861 0.0
C835 C 0.48108 0.35351 0.67056 0.0
C836 C 0.50871 0.3031 0.68976 0.0
H837 H 0.55737 0.29206 0.69833 0.0
C838 C 0.50392 0.28339 0.68539 0.0
C839 C 0.52893 0.305 0.69513 0.0
C840 C 0.53647 0.3242 0.70365 0.0
C841 C 0.5175 0.26731 0.68503 0.0
C842 C 0.53784 0.26933 0.68932 0.0
C843 C 0.54255 0.28899 0.69425 0.0
C844 C 0.55377 0.25186 0.68864 0.0
C845 C 0.50967 0.24783 0.67898 0.0
C846 C 0.55259 0.23426 0.70471 0.0
C847 C 0.56681 0.21889 0.70391 0.0
C848 C 0.58394 0.21907 0.68677 0.0
C849 C 0.58513 0.23661 0.67074 0.0
C850 C 0.57103 0.25209 0.67183 0.0
H851 H 0.49497 0.24839 0.67034 0.0
H852 H 0.51881 0.24023 0.66327 0.0
H853 H 0.50945 0.23948 0.69933 0.0
H854 H 0.54051 0.23228 0.71881 0.0
H855 H 0.56419 0.20652 0.71725 0.0
H856 H 0.94917 0.21393 0.46996 0.0
H857 H 0.97545 0.23726 0.4711 0.0
H858 H 0.94957 0.26776 0.40131 0.0
H859 H 0.92363 0.2443 0.3998 0.0
H860 H 0.05478 0.2519 0.4403 0.0
H861 H 0.96162 0.31511 0.44632 0.0
H862 H 0.9525 0.29159 0.45324 0.0
H863 H 0.95487 0.30007 0.41671 0.0
C864 C 0.9488 0.22538 0.45433 0.0
C865 C 0.93305 0.22581 0.43434 0.0
C866 C 0.96445 0.23934 0.45507 0.0
C867 C 0.966 0.25578 0.43649 0.0
C868 C 0.9501 0.25628 0.41683 0.0
H869 H 0.10405 0.35187 0.39179 0.0
H870 H 0.07761 0.32868 0.39331 0.0
C871 C 0.93468 0.24214 0.41571 0.0
C872 C 0.98348 0.27167 0.43729 0.0
H873 H 0.99388 0.32083 0.4347 0.0
C874 C 0.05147 0.26689 0.43906 0.0
C875 C 0.9812 0.29217 0.43653 0.0
C876 C 0.96148 0.30021 0.43845 0.0
C877 C 0.06746 0.2806 0.43881 0.0
C878 C 0.06516 0.30103 0.43665 0.0
C879 C 0.99718 0.30583 0.43557 0.0
C880 C 0.08261 0.31692 0.43591 0.0
C881 C 0.08729 0.27282 0.44029 0.0
C882 C 0.09599 0.32014 0.45893 0.0
C883 C 0.11131 0.33442 0.45843 0.0
C884 C 0.11566 0.34695 0.4345 0.0
C885 C 0.10245 0.34347 0.41124 0.0
C886 C 0.08667 0.32961 0.41214 0.0
H887 H 0.0876 0.25712 0.43794 0.0
H888 H 0.09621 0.27929 0.4231 0.0
H889 H 0.0937 0.27661 0.46142 0.0
H890 H 0.09457 0.31156 0.47824 0.0
H891 H 0.12012 0.33519 0.4774 0.0
H892 H 0.10408 0.6988 0.13533 0.0
H893 H 0.08116 0.72521 0.13683 0.0
H894 H 0.08051 0.72178 0.22936 0.0
H895 H 0.10429 0.69657 0.22773 0.0
H896 H 0.04984 0.73992 0.14228 0.0
H897 H 0.07283 0.77332 0.24381 0.0
H898 H 0.08705 0.75539 0.22677 0.0
H899 H 0.06679 0.74881 0.24862 0.0
C900 C 0.09951 0.70363 0.15639 0.0
C901 C 0.10767 0.69444 0.18134 0.0
C902 C 0.08571 0.71941 0.15733 0.0
C903 C 0.07796 0.7278 0.18331 0.0
C904 C 0.08567 0.71798 0.20822 0.0
H905 H 0.93352 0.81964 0.22287 0.0
H906 H 0.95675 0.79341 0.22434 0.0
C907 C 0.09981 0.70258 0.20729 0.0
C908 C 0.06229 0.74565 0.18387 0.0
H909 H 0.99622 0.7846 0.22405 0.0
C910 C 0.04926 0.74951 0.16052 0.0
C911 C 0.05956 0.75966 0.20676 0.0
C912 C 0.07234 0.75931 0.23283 0.0
C913 C 0.98691 0.76498 0.15951 0.0
C914 C 0.98429 0.77893 0.18221 0.0
C915 C 0.99706 0.77503 0.20579 0.0
C916 C 0.96887 0.79684 0.18158 0.0
C917 C 0.97395 0.76571 0.13371 0.0
C918 C 0.96619 0.80978 0.15766 0.0
C919 C 0.95252 0.82562 0.15693 0.0
C920 C 0.9395 0.83035 0.17983 0.0
C921 C 0.94224 0.81752 0.2039 0.0
C922 C 0.95618 0.80189 0.20484 0.0
H923 H 0.97354 0.75194 0.12205 0.0
H924 H 0.95928 0.76948 0.14028 0.0
H925 H 0.97915 0.77674 0.11849 0.0
H926 H 0.97516 0.80798 0.13892 0.0
H927 H 0.95226 0.83437 0.1377 0.0
H928 H 0.18546 0.18729 0.88963 0.0
H929 H 0.21379 0.18898 0.92124 0.0
H930 H 0.24724 0.16372 0.85401 0.0
H931 H 0.21951 0.16319 0.82235 0.0
H932 H 0.23923 0.17247 0.95174 0.0
H933 H 0.28795 0.19801 0.86793 0.0
H934 H 0.26286 0.19633 0.86138 0.0
H935 H 0.27789 0.17573 0.85736 0.0
C936 C 0.19876 0.18194 0.88128 0.0
C937 C 0.19912 0.17491 0.85224 0.0
C938 C 0.21556 0.18302 0.89988 0.0
C939 C 0.2343 0.17716 0.89128 0.0
C940 C 0.23424 0.16951 0.86257 0.0
H941 H 0.35486 0.16573 0.97222 0.0
H942 H 0.32594 0.16521 0.94244 0.0
C943 C 0.21767 0.16881 0.84393 0.0
C944 C 0.25324 0.1787 0.91156 0.0
H945 H 0.30253 0.18673 0.91092 0.0
C946 C 0.25288 0.17575 0.94221 0.0
C947 C 0.2722 0.18315 0.90146 0.0
C948 C 0.27531 0.18869 0.87035 0.0
C949 C 0.26953 0.17641 0.96127 0.0
C950 C 0.28853 0.18039 0.95107 0.0
C951 C 0.28886 0.18346 0.92045 0.0
C952 C 0.30767 0.18114 0.97107 0.0
C953 C 0.26643 0.17205 0.99276 0.0
C954 C 0.30925 0.19051 0.99863 0.0
C955 C 0.32702 0.19148 0.00655 0.0
C956 C 0.34452 0.18247 -0.00139 0.0
C957 C 0.34245 0.17284 0.98068 0.0
C958 C 0.32531 0.17258 0.96293 0.0
H959 H 0.25304 0.16404 0.99633 0.0
H960 H 0.2789 0.16419 -0.00805 0.0
H961 H 0.26597 0.18612 -0.00486 0.0
H962 H 0.29754 0.19861 -0.00307 0.0
H963 H 0.32655 0.19914 0.02679 0.0
H964 H 0.61013 0.45404 0.07358 0.0
H965 H 0.60861 0.48163 0.10603 0.0
H966 H 0.65616 0.45997 0.15361 0.0
H967 H 0.65728 0.43191 0.12148 0.0
H968 H 0.60196 0.49095 0.16466 0.0
H969 H 0.67536 0.51464 0.14525 0.0
H970 H 0.66362 0.49762 0.12219 0.0
H971 H 0.67345 0.49018 0.15618 0.0
C972 C 0.62033 0.45474 0.09105 0.0
C973 C 0.63373 0.43955 0.09377 0.0
C974 C 0.61944 0.4711 0.11019 0.0
C975 C 0.63234 0.47438 0.13354 0.0
C976 C 0.64584 0.45916 0.13635 0.0
H977 H 0.65117 0.56919 0.27244 0.0
H978 H 0.65218 0.54073 0.24125 0.0
C979 C 0.64641 0.44245 0.11756 0.0
C980 C 0.63157 0.49316 0.15408 0.0
H981 H 0.65866 0.53085 0.18206 0.0
C982 C 0.61457 0.49948 0.16805 0.0
C983 C 0.64738 0.50563 0.15992 0.0
C984 C 0.66598 0.50194 0.145 0.0
C985 C 0.6132 0.51618 0.18688 0.0
C986 C 0.62908 0.52858 0.19306 0.0
C987 C 0.64605 0.5223 0.17887 0.0
C988 C 0.6283 0.54746 0.21367 0.0
C989 C 0.59441 0.52002 0.20114 0.0
C990 C 0.61478 0.5626 0.21067 0.0
C991 C 0.61427 0.57951 0.22904 0.0
C992 C 0.62702 0.58303 0.2527 0.0
C993 C 0.64062 0.56798 0.25556 0.0
C994 C 0.64127 0.55115 0.23697 0.0
H995 H 0.58482 0.50749 0.20019 0.0
H996 H 0.59648 0.52406 0.22412 0.0
H997 H 0.58732 0.53199 0.18993 0.0
H998 H 0.60455 0.5617 0.1933 0.0
H999 H 0.60369 0.59017 0.22421 0.0
H1000 H 0.3785 0.89734 0.37406 0.0
H1001 H 0.35023 0.8965 0.40605 0.0
H1002 H 0.32888 0.84831 0.35957 0.0
H1003 H 0.35655 0.84948 0.32749 0.0
H1004 H 0.30842 0.89996 0.40027 0.0
H1005 H 0.31984 0.82725 0.441 0.0
H1006 H 0.33871 0.84104 0.42487 0.0
H1007 H 0.32134 0.82964 0.40237 0.0
C1008 C 0.36804 0.8863 0.37052 0.0
C1009 C 0.37107 0.87329 0.34717 0.0
C1010 C 0.35126 0.88587 0.38927 0.0
C1011 C 0.33617 0.87211 0.38697 0.0
C1012 C 0.33945 0.85911 0.36376 0.0
H1013 H 0.22046 0.84342 0.47779 0.0
H1014 H 0.24916 0.84445 0.44706 0.0
C1015 C 0.35586 0.85984 0.34473 0.0
C1016 C 0.31746 0.87126 0.40771 0.0
H1017 H 0.29039 0.8413 0.45258 0.0
C1018 C 0.30491 0.887 0.41173 0.0
C1019 C 0.31126 0.85472 0.42365 0.0
C1020 C 0.32345 0.83719 0.42315 0.0
C1021 C 0.28758 0.8866 0.42936 0.0
C1022 C 0.28139 0.87011 0.44551 0.0
C1023 C 0.29393 0.85432 0.44131 0.0
C1024 C 0.26251 0.86916 0.46615 0.0
C1025 C 0.27529 0.90405 0.4294 0.0
C1026 C 0.25853 0.88228 0.48913 0.0
C1027 C 0.24166 0.88154 0.50758 0.0
C1028 C 0.22689 0.86757 0.50512 0.0
C1029 C 0.23081 0.85444 0.48209 0.0
C1030 C 0.2478 0.85508 0.4638 0.0
H1031 H 0.2794 0.91423 0.41213 0.0
H1032 H 0.26017 0.90006 0.42639 0.0
H1033 H 0.27664 0.91134 0.45052 0.0
H1034 H 0.2688 0.89337 0.49339 0.0
H1035 H 0.24022 0.89228 0.52412 0.0
H1036 H 0.87192 0.58916 0.57134 0.0
H1037 H 0.87407 0.56152 0.60353 0.0
H1038 H 0.90288 0.59595 0.66642 0.0
H1039 H 0.89965 0.62379 0.63466 0.0
H1040 H 0.8945 0.53687 0.62492 0.0
H1041 H 0.87786 0.57106 0.72861 0.0
H1042 H 0.87461 0.58335 0.69487 0.0
H1043 H 0.89783 0.58193 0.71127 0.0
C1044 C 0.87824 0.59125 0.59243 0.0
C1045 C 0.88471 0.6099 0.59977 0.0
C1046 C 0.87975 0.57485 0.61134 0.0
C1047 C 0.88828 0.57527 0.6394 0.0
C1048 C 0.89525 0.59396 0.64643 0.0
H1049 H 0.91338 0.48367 0.78166 0.0
H1050 H 0.91232 0.51229 0.75061 0.0
C1051 C 0.89341 0.61052 0.62763 0.0
C1052 C 0.89016 0.55651 0.65985 0.0
H1053 H 0.88933 0.53968 0.73136 0.0
C1054 C 0.89313 0.53792 0.64817 0.0
C1055 C 0.88875 0.55612 0.69103 0.0
C1056 C 0.88441 0.5741 0.70727 0.0
C1057 C 0.89487 0.52047 0.66523 0.0
C1058 C 0.89332 0.52006 0.69642 0.0
C1059 C 0.89059 0.53867 0.7081 0.0
C1060 C 0.89428 0.50111 0.71671 0.0
C1061 C 0.8992 0.50246 0.64903 0.0
C1062 C 0.88466 0.48364 0.71035 0.0
C1063 C 0.88509 0.46686 0.72884 0.0
C1064 C 0.89518 0.46561 0.75575 0.0
C1065 C 0.90502 0.483 0.76207 0.0
C1066 C 0.90442 0.49993 0.74364 0.0
H1067 H 0.90606 0.50547 0.62789 0.0
H1068 H 0.90867 0.49304 0.66174 0.0
H1069 H 0.88574 0.49478 0.64464 0.0
H1070 H 0.8762 0.48287 0.6909 0.0
H1071 H 0.87722 0.45452 0.72167 0.0
H1072 H 0.69222 0.8872 0.01871 0.0
H1073 H 0.72098 0.88759 0.04905 0.0
H1074 H 0.74718 0.84806 1.00057 0.0
H1075 H 0.71863 0.84799 0.97005 0.0
H1076 H 0.74326 0.86964 0.08446 0.0
H1077 H 0.79443 0.87702 -0.00442 0.0
H1078 H 0.76878 0.87843 0.99912 0.0
H1079 H 0.78038 0.85593 -0.00819 0.0
C1080 C 0.70418 0.87878 0.01163 0.0
C1081 C 0.70172 0.86768 0.99498 0.0
C1082 C 0.72123 0.87895 0.02974 0.0
C1083 C 0.73832 0.86868 0.02335 0.0
C1084 C 0.73613 0.85767 -0.00266 0.0
H1085 H 0.85785 0.85251 0.10988 0.0
H1086 H 0.82919 0.85136 0.07903 0.0
C1087 C 0.71856 0.85694 0.98903 0.0
C1088 C 0.75756 0.86939 0.04334 0.0
H1089 H 0.8075 0.87051 0.04149 0.0
C1090 C 0.75713 0.86996 0.07437 0.0
C1091 C 0.77687 0.86978 0.03261 0.0
C1092 C 0.7804 0.87058 0.00057 0.0
C1093 C 0.7739 0.87046 0.09324 0.0
C1094 C 0.79315 0.87094 0.0824 0.0
C1095 C 0.79361 0.87023 0.05149 0.0
C1096 C 0.81234 0.87211 0.10215 0.0
C1097 C 0.77058 0.86969 0.12538 0.0
C1098 C 0.81457 0.88431 0.12675 0.0
C1099 C 0.83149 0.88502 0.14482 0.0
C1100 C 0.84823 0.87401 0.13984 0.0
C1101 C 0.84625 0.86196 0.11508 0.0
C1102 C 0.82922 0.86118 0.09701 0.0
H1103 H 0.75653 0.86339 0.13063 0.0
H1104 H 0.78172 0.86123 0.13642 0.0
H1105 H 0.77085 0.88432 0.13421 0.0
H1106 H 0.80304 0.89371 0.13235 0.0
H1107 H 0.83134 0.89442 0.1633 0.0
H1108 H 0.44376 0.6073 0.89661 0.0
H1109 H 0.445 0.57939 0.86466 0.0
H1110 H 0.38411 0.57882 0.86104 0.0
H1111 H 0.38307 0.60727 0.8917 0.0
H1112 H 0.43946 0.54395 0.85955 0.0
H1113 H 0.38541 0.5656 0.78077 0.0
H1114 H 0.39453 0.58198 0.80719 0.0
H1115 H 0.37587 0.56548 0.81663 0.0
C1116 C 0.43046 0.60172 0.88853 0.0
C1117 C 0.41332 0.61111 0.89699 0.0
C1118 C 0.43116 0.58506 0.86988 0.0
C1119 C 0.41475 0.57576 0.85816 0.0
C1120 C 0.39754 0.58499 0.86728 0.0
H1121 H 0.39243 0.46112 0.76256 0.0
H1122 H 0.39176 0.4899 0.79288 0.0
C1123 C 0.39686 0.60187 0.88556 0.0
C1124 C 0.41573 0.55682 0.83779 0.0
H1125 H 0.39461 0.53328 0.77895 0.0
C1126 C 0.42953 0.54209 0.8419 0.0
C1127 C 0.40339 0.55276 0.81355 0.0
C1128 C 0.3891 0.56732 0.80396 0.0
C1129 C 0.43091 0.52474 0.82445 0.0
C1130 C 0.4183 0.52054 0.80067 0.0
C1131 C 0.40456 0.53524 0.79653 0.0
C1132 C 0.41901 0.50151 0.78056 0.0
C1133 C 0.44584 0.51041 0.83241 0.0
C1134 C 0.43434 0.49659 0.76151 0.0
C1135 C 0.43449 0.47981 0.74276 0.0
C1136 C 0.41949 0.46594 0.74161 0.0
C1137 C 0.40443 0.47069 0.76121 0.0
C1138 C 0.40405 0.48771 0.77928 0.0
H1139 H 0.45347 0.51427 0.85259 0.0
H1140 H 0.43922 0.4962 0.83527 0.0
H1141 H 0.45632 0.50929 0.81461 0.0
H1142 H 0.44648 0.50602 0.76065 0.0
H1143 H 0.44682 0.47759 0.72928 0.0
H1144 H 0.66189 0.17644 0.60256 0.0
H1145 H 0.68993 0.17921 0.57024 0.0
H1146 H 0.72683 0.17246 0.64335 0.0
H1147 H 0.69924 0.17013 0.67517 0.0
H1148 H 0.72375 0.20447 0.56422 0.0
H1149 H 0.75208 0.13366 0.59092 0.0
H1150 H 0.7278 0.1401 0.59842 0.0
H1151 H 0.74656 0.14808 0.62178 0.0
C1152 C 0.67588 0.17515 0.61198 0.0
C1153 C 0.67737 0.17242 0.64252 0.0
C1154 C 0.6924 0.17698 0.59307 0.0
C1155 C 0.71171 0.1758 0.603 0.0
C1156 C 0.71293 0.17311 0.63348 0.0
H1157 H 0.83304 0.16986 0.52605 0.0
H1158 H 0.8042 0.16931 0.55592 0.0
C1159 C 0.69661 0.17172 0.65224 0.0
C1160 C 0.73025 0.17723 0.58258 0.0
H1161 H 0.77222 0.15374 0.56388 0.0
C1162 C 0.73409 0.1931 0.56421 0.0
C1163 C 0.74498 0.16312 0.58151 0.0
C1164 C 0.74274 0.14518 0.59894 0.0
C1165 C 0.75117 0.19526 0.54648 0.0
C1166 C 0.76583 0.1809 0.54486 0.0
C1167 C 0.76192 0.16512 0.56353 0.0
C1168 C 0.7849 0.1819 0.52495 0.0
C1169 C 0.7536 0.21377 0.5306 0.0
C1170 C 0.78574 0.18916 0.4959 0.0
C1171 C 0.80291 0.18961 0.47819 0.0
C1172 C 0.82097 0.18253 0.48751 0.0
C1173 C 0.82012 0.17531 0.51651 0.0
C1174 C 0.80302 0.17499 0.53425 0.0
H1175 H 0.74531 0.22534 0.5409 0.0
H1176 H 0.76873 0.21814 0.52987 0.0
H1177 H 0.74831 0.21213 0.50816 0.0
H1178 H 0.77281 0.19432 0.48612 0.0
H1179 H 0.80184 0.19543 0.45659 0.0
H1180 H 0.14835 0.42424 0.35493 0.0
H1181 H 0.14642 0.45252 0.32299 0.0
H1182 H 0.16834 0.4873 0.39137 0.0
H1183 H 0.16959 0.45944 0.42325 0.0
H1184 H 0.12664 0.49023 0.32284 0.0
H1185 H 0.20311 0.50671 0.32613 0.0
H1186 H 0.19396 0.4835 0.33528 0.0
H1187 H 0.19249 0.50256 0.36091 0.0
C1188 C 0.15313 0.43774 0.36341 0.0
C1189 C 0.15969 0.43839 0.39272 0.0
C1190 C 0.15182 0.45449 0.34467 0.0
C1191 C 0.15741 0.47335 0.35319 0.0
C1192 C 0.16405 0.47378 0.38241 0.0
H1193 H 0.16758 0.59492 0.27377 0.0
H1194 H 0.16818 0.566 0.30384 0.0
C1195 C 0.16482 0.45726 0.40125 0.0
C1196 C 0.1564 0.49212 0.33262 0.0
H1197 H 0.18343 0.52998 0.30504 0.0
C1198 C 0.13932 0.49859 0.31903 0.0
C1199 C 0.17228 0.5044 0.32636 0.0
C1200 C 0.19158 0.49902 0.3376 0.0
C1201 C 0.13776 0.51584 0.30128 0.0
C1202 C 0.15372 0.52813 0.29485 0.0
C1203 C 0.17074 0.52161 0.30862 0.0
C1204 C 0.15307 0.54727 0.27475 0.0
C1205 C 0.11835 0.52121 0.29049 0.0
C1206 C 0.14452 0.54845 0.24656 0.0
C1207 C 0.14442 0.56555 0.22846 0.0
C1208 C 0.15277 0.58338 0.23664 0.0
C1209 C 0.16109 0.58224 0.26499 0.0
C1210 C 0.16141 0.56509 0.28289 0.0
H1211 H 0.10693 0.51387 0.30278 0.0
H1212 H 0.11613 0.53678 0.29214 0.0
H1213 H 0.11701 0.51709 0.26746 0.0
H1214 H 0.138 0.53579 0.23781 0.0
H1215 H 0.13756 0.56467 0.20757 0.0
H1216 H 0.66201 0.66629 0.38294 0.0
H1217 H 0.69039 0.66784 0.41444 0.0
H1218 H 0.72216 0.63707 0.35076 0.0
H1219 H 0.69439 0.63655 0.3191 0.0
H1220 H 0.71472 0.65118 0.44704 0.0
H1221 H 0.76489 0.66965 0.36101 0.0
H1222 H 0.73973 0.66915 0.35452 0.0
H1223 H 0.75349 0.64755 0.35292 0.0
C1224 C 0.67492 0.65964 0.37539 0.0
C1225 C 0.67478 0.65102 0.34735 0.0
C1226 C 0.69177 0.66064 0.39391 0.0
C1227 C 0.7101 0.65318 0.38621 0.0
C1228 C 0.70953 0.64406 0.35851 0.0
H1229 H 0.83057 0.64032 0.46795 0.0
H1230 H 0.80168 0.64 0.43798 0.0
C1231 C 0.69292 0.64338 0.33992 0.0
C1232 C 0.7291 0.65459 0.40641 0.0
H1233 H 0.77876 0.65973 0.4053 0.0
C1234 C 0.72856 0.65316 0.43729 0.0
C1235 C 0.74829 0.65743 0.39602 0.0
C1236 C 0.75171 0.66125 0.3644 0.0
C1237 C 0.7452 0.65371 0.45638 0.0
C1238 C 0.76444 0.65608 0.44596 0.0
C1239 C 0.76494 0.6577 0.41507 0.0
C1240 C 0.78362 0.65665 0.46601 0.0
C1241 C 0.74173 0.651 0.48821 0.0
C1242 C 0.78538 0.66635 0.49327 0.0
C1243 C 0.80253 0.66647 0.51117 0.0
C1244 C 0.81985 0.65697 0.50372 0.0
C1245 C 0.81826 0.64772 0.47614 0.0
C1246 C 0.80114 0.64761 0.45826 0.0
H1247 H 0.728 0.64372 0.49237 0.0
H1248 H 0.75324 0.64257 0.49834 0.0
H1249 H 0.74116 0.66512 0.49879 0.0
H1250 H 0.77339 0.67444 0.50098 0.0
H1251 H 0.80215 0.67443 0.53115 0.0
H1252 H 0.14638 0.0858 0.79102 0.0
H1253 H 0.1478 0.05724 0.76007 0.0
H1254 H 0.15711 0.09285 0.68603 0.0
H1255 H 0.15714 0.12082 0.71697 0.0
H1256 H 0.13377 0.98658 0.72332 0.0
H1257 H 0.19168 0.05996 0.65092 0.0
H1258 H 0.18569 0.07311 0.68285 0.0
H1259 H 0.17207 0.07601 0.64992 0.0
C1260 C 0.14909 0.08782 0.7682 0.0
C1261 C 0.15209 0.10684 0.75795 0.0
C1262 C 0.14988 0.07089 0.74976 0.0
C1263 C 0.15347 0.07119 0.7191 0.0
C1264 C 0.15554 0.09038 0.70892 0.0
H1265 H 0.15112 0.93619 0.56765 0.0
H1266 H 0.14996 0.96366 0.60009 0.0
C1267 C 0.15523 0.10716 0.72733 0.0
C1268 C 0.1546 0.05223 0.69855 0.0
H1269 H 0.17383 0.98412 0.63573 0.0
C1270 C 0.14287 0.98646 0.70448 0.0
C1271 C 0.16615 0.05017 0.67275 0.0
C1272 C 0.17968 0.06567 0.66381 0.0
C1273 C 0.14321 0.96917 0.68676 0.0
C1274 C 0.15455 0.96738 0.66097 0.0
C1275 C 0.16495 0.98433 0.65484 0.0
C1276 C 0.15547 0.94883 0.64014 0.0
C1277 C 0.1306 0.95287 0.69552 0.0
C1278 C 0.15928 0.9297 0.64953 0.0
C1279 C 0.1604 0.91333 0.63012 0.0
C1280 C 0.15747 0.91458 0.59956 0.0
C1281 C 0.15359 0.93364 0.59042 0.0
C1282 C 0.15289 0.94992 0.60957 0.0
H1283 H 0.11955 0.95732 0.71119 0.0
H1284 H 0.12354 0.94656 0.67632 0.0
H1285 H 0.13936 0.94167 0.70581 0.0
H1286 H 0.1618 0.92724 0.67228 0.0
H1287 H 0.16346 0.89955 0.63937 0.0
H1288 H 0.69397 0.41266 0.97629 0.0
H1289 H 0.72265 0.41326 0.94589 0.0
H1290 H 0.74918 0.3726 -0.00832 0.0
H1291 H 0.7205 0.37206 0.0222 0.0
H1292 H 0.75932 0.42369 0.94503 0.0
H1293 H 0.76709 0.34664 0.93028 0.0
H1294 H 0.74578 0.35686 0.94514 0.0
H1295 H 0.76624 0.3531 0.96776 0.0
C1296 C 0.70568 0.40366 0.98268 0.0
C1297 C 0.70396 0.39277 -0.00154 0.0
C1298 C 0.72269 0.404 0.96457 0.0
C1299 C 0.73925 0.39264 0.96961 0.0
C1300 C 0.73697 0.38104 0.99504 0.0
H1301 H 0.86137 0.38551 0.88835 0.0
H1302 H 0.83311 0.38409 0.9202 0.0
C1303 C 0.72053 0.3814 0.00361 0.0
C1304 C 0.75824 0.39327 0.94921 0.0
H1305 H 0.79306 0.36545 0.91493 0.0
C1306 C 0.76635 0.41068 0.93872 0.0
C1307 C 0.76879 0.37693 0.93916 0.0
C1308 C 0.76152 0.35729 0.94579 0.0
C1309 C 0.78348 0.41213 0.9208 0.0
C1310 C 0.79412 0.39584 0.91124 0.0
C1311 C 0.78603 0.37842 0.92147 0.0
C1312 C 0.81285 0.39678 0.8907 0.0
C1313 C 0.7906 0.43161 0.91283 0.0
C1314 C 0.81273 0.40425 0.86192 0.0
C1315 C 0.82924 0.4047 0.84305 0.0
C1316 C 0.84781 0.39841 0.85123 0.0
C1317 C 0.84814 0.39113 0.88017 0.0
C1318 C 0.83139 0.39014 0.89886 0.0
H1319 H 0.78309 0.44299 0.92482 0.0
H1320 H 0.80605 0.43273 0.91733 0.0
H1321 H 0.78851 0.43399 0.88934 0.0
H1322 H 0.79944 0.40949 0.85333 0.0
H1323 H 0.82731 0.41014 0.82135 0.0
H1324 H 0.44357 0.93622 0.22425 0.0
H1325 H 0.44263 0.96477 0.19304 0.0
H1326 H 0.39252 0.9835 0.23704 0.0
H1327 H 0.39336 0.95498 0.26784 0.0
H1328 H 0.42177 0.98326 0.15052 0.0
H1329 H 0.41821 0.0831 0.23961 0.0
H1330 H 0.42407 0.05852 0.24577 0.0
H1331 H 0.39968 0.06564 0.24159 0.0
C1332 C 0.43229 0.94635 0.22789 0.0
C1333 C 0.41877 0.94224 0.25038 0.0
C1334 C 0.43168 0.96323 0.20928 0.0
C1335 C 0.41768 0.978 0.2115 0.0
C1336 C 0.40412 0.97371 0.23381 0.0
H1337 H 0.3872 0.14216 0.12505 0.0
H1338 H 0.39066 0.11347 0.15528 0.0
C1339 C 0.40456 0.95673 0.25206 0.0
C1340 C 0.41706 0.99715 0.1913 0.0
H1341 H 0.41163 0.09535 0.19304 0.0
C1342 C 0.41936 0.99697 0.16045 0.0
C1343 C 0.41531 0.06493 0.20192 0.0
C1344 C 0.41438 0.06825 0.234 0.0
C1345 C 0.41931 0.06246 0.14154 0.0
C1346 C 0.41598 0.08148 0.15227 0.0
C1347 C 0.41396 0.08164 0.18307 0.0
C1348 C 0.41433 0.10075 0.13265 0.0
C1349 C 0.42091 0.05926 0.10945 0.0
C1350 C 0.42636 0.10538 0.10851 0.0
C1351 C 0.42434 0.12241 0.09075 0.0
C1352 C 0.4104 0.13684 0.09564 0.0
C1353 C 0.39858 0.13244 0.11991 0.0
C1354 C 0.40056 0.11539 0.13765 0.0
H1355 H 0.41645 0.99562 0.10356 0.0
H1356 H 0.41117 0.06874 0.09731 0.0
H1357 H 0.43567 0.0623 0.10248 0.0
H1358 H 0.43774 0.09577 0.10307 0.0
H1359 H 0.4339 0.12418 0.07262 0.0
H1360 H 0.24871 0.39548 0.45338 0.0
H1361 H 0.27745 0.39681 0.48417 0.0
H1362 H 0.24313 0.38753 0.55938 0.0
H1363 H 0.21446 0.38711 0.52891 0.0
H1364 H 0.29241 0.42045 0.53188 0.0
H1365 H 0.28531 0.34855 0.57801 0.0
H1366 H 0.27284 0.35557 0.54563 0.0
H1367 H 0.26421 0.36278 0.58044 0.0
C1368 C 0.24692 0.39369 0.47645 0.0
C1369 C 0.228 0.39121 0.48733 0.0
C1370 C 0.26392 0.39452 0.4947 0.0
C1371 C 0.26388 0.3922 0.52559 0.0
C1372 C 0.24499 0.38932 0.53632 0.0
H1373 H 0.35115 0.38497 0.67587 0.0
H1374 H 0.32365 0.38428 0.64342 0.0
C1375 C 0.22798 0.38915 0.51824 0.0
C1376 C 0.28282 0.39297 0.54597 0.0
H1377 H 0.30881 0.36807 0.5986 0.0
C1378 C 0.29575 0.40871 0.54614 0.0
C1379 C 0.28862 0.37829 0.56596 0.0
C1380 C 0.27723 0.36022 0.56757 0.0
C1381 C 0.31262 0.41029 0.56465 0.0
C1382 C 0.3185 0.39553 0.58448 0.0
C1383 C 0.30554 0.3798 0.5843 0.0
C1384 C 0.33712 0.39625 0.60553 0.0
C1385 C 0.32365 0.42861 0.56347 0.0
C1386 C 0.35571 0.40307 0.59746 0.0
C1387 C 0.37217 0.40347 0.61682 0.0
C1388 C 0.37167 0.39698 0.64617 0.0
C1389 C 0.35319 0.39014 0.65405 0.0
C1390 C 0.33687 0.3897 0.63482 0.0
H1391 H 0.31492 0.44042 0.55476 0.0
H1392 H 0.32885 0.4327 0.58525 0.0
H1393 H 0.33606 0.4268 0.54901 0.0
H1394 H 0.35785 0.40793 0.57554 0.0
H1395 H 0.38548 0.40885 0.60844 0.0
H1396 H 0.92034 0.13238 0.39064 0.0
H1397 H 0.92158 0.10445 0.35871 0.0
H1398 H 0.86068 0.10275 0.35734 0.0
H1399 H 0.8596 0.13118 0.38808 0.0
H1400 H 0.91636 0.06873 0.35421 0.0
H1401 H 0.86133 0.08981 0.27666 0.0
H1402 H 0.87058 0.10628 0.30286 0.0
H1403 H 0.85219 0.08962 0.31278 0.0
C1404 C 0.90702 0.12655 0.38306 0.0
C1405 C 0.88985 0.13563 0.39215 0.0
C1406 C 0.90773 0.10988 0.36443 0.0
C1407 C 0.89131 0.10027 0.35335 0.0
C1408 C 0.87408 0.10918 0.36309 0.0
H1409 H 0.8683 0.93671 0.25793 0.0
H1410 H 0.86753 0.96544 0.28834 0.0
C1411 C 0.87338 0.12605 0.3814 0.0
C1412 C 0.8923 0.08134 0.33296 0.0
H1413 H 0.87092 0.05761 0.27452 0.0
C1414 C 0.9063 0.06676 0.33677 0.0
C1415 C 0.87979 0.07715 0.30899 0.0
C1416 C 0.86526 0.09157 0.29976 0.0
C1417 C 0.90772 0.04943 0.31927 0.0
C1418 C 0.89377 0.9964 0.29574 0.0
C1419 C 0.88101 0.05966 0.29191 0.0
C1420 C 0.89454 0.9774 0.27555 0.0
C1421 C 0.92168 0.98654 0.32692 0.0
C1422 C 0.90977 0.97268 0.2562 0.0
C1423 C 0.90997 0.95592 0.23741 0.0
C1424 C 0.89514 0.94187 0.23649 0.0
C1425 C 0.88018 0.94642 0.25639 0.0
C1426 C 0.87973 0.96342 0.27451 0.0
H1427 H 0.92944 0.99047 0.34696 0.0
H1428 H 0.91524 0.97227 0.32987 0.0
H1429 H 0.93203 0.98556 0.30892 0.0
H1430 H 0.92179 0.98225 0.25515 0.0
H1431 H 0.92223 0.95386 0.22369 0.0
H1432 H 0.21568 0.67373 0.16298 0.0
H1433 H 0.24335 0.67524 0.13101 0.0
H1434 H 0.22009 0.62963 0.08054 0.0
H1435 H 0.19196 0.62872 0.11211 0.0
H1436 H 0.27359 0.66101 0.11483 0.0
H1437 H 0.23745 0.65282 0.01064 0.0
H1438 H 0.22437 0.65661 0.04349 0.0
H1439 H 0.23223 0.63307 0.03376 0.0
C1440 C 0.21603 0.66401 0.14487 0.0
C1441 C 0.20034 0.65125 0.14116 0.0
C1442 C 0.23251 0.66484 0.12602 0.0
C1443 C 0.23517 0.65291 0.10134 0.0
C1444 C 0.21947 0.63992 0.09778 0.0
H1445 H 0.33564 0.6284 0.98544 0.0
H1446 H 0.30742 0.62816 0.00626 0.0
C1447 C 0.20281 0.63921 0.11661 0.0
C1448 C 0.254 0.65396 0.08076 0.0
H1449 H 0.27089 0.64907 0.00965 0.0
C1450 C 0.27251 0.65843 0.09182 0.0
C1451 C 0.25438 0.65108 0.0498 0.0
C1452 C 0.23607 0.64835 0.03357 0.0
C1453 C 0.28994 0.65944 0.07452 0.0
C1454 C 0.29036 0.65593 0.04376 0.0
C1455 C 0.27189 0.65162 0.03267 0.0
C1456 C 0.30925 0.65668 0.02334 0.0
C1457 C 0.30822 0.66385 0.08995 0.0
C1458 C 0.32147 0.6729 0.02032 0.0
C1459 C 0.33809 0.67358 0.00139 0.0
C1460 C 0.34409 0.65744 0.99377 0.0
C1461 C 0.33204 0.64113 0.99726 0.0
C1462 C 0.31557 0.64119 0.00569 0.0
H1463 H 0.30677 0.66259 0.11379 0.0
H1464 H 0.31966 0.65417 0.08259 0.0
H1465 H 0.31262 0.67861 0.08479 0.0
H1466 H 0.31805 0.68555 0.03247 0.0
H1467 H 0.34609 0.68663 0.00087 0.0
H1468 H 0.65887 0.11145 0.75771 0.0
H1469 H 0.65937 0.08251 0.78775 0.0
H1470 H 0.6015 0.07134 0.76424 0.0
H1471 H 0.60158 0.09932 0.73274 0.0
H1472 H 0.65037 0.06435 0.83154 0.0
H1473 H 0.60745 0.96978 0.75934 0.0
H1474 H 0.61547 0.99277 0.74761 0.0
H1475 H 0.59424 0.99042 0.76933 0.0
C1476 C 0.64619 0.10276 0.75812 0.0
C1477 C 0.6304 0.10862 0.74064 0.0
C1478 C 0.64642 0.08563 0.77611 0.0
C1479 C 0.63076 0.07266 0.7791 0.0
C1480 C 0.61467 0.07911 0.76258 0.0
H1481 H 0.60394 0.92223 0.90261 0.0
H1482 H 0.60318 0.95037 0.87091 0.0
C1483 C 0.6146 0.09594 0.74401 0.0
C1484 C 0.63127 0.05338 0.79914 0.0
H1485 H 0.61275 0.95792 0.80623 0.0
C1486 C 0.64237 0.05191 0.82515 0.0
C1487 C 0.62007 0.98707 0.79318 0.0
C1488 C 0.60879 0.98492 0.76576 0.0
C1489 C 0.64221 0.98632 0.8438 0.0
C1490 C 0.63203 0.96901 0.83782 0.0
C1491 C 0.62086 0.97041 0.81217 0.0
C1492 C 0.6326 0.94999 0.85769 0.0
C1493 C 0.65402 0.98732 0.87087 0.0
C1494 C 0.64914 0.93845 0.86226 0.0
C1495 C 0.64941 0.92132 0.88016 0.0
C1496 C 0.63325 0.91436 0.8957 0.0
C1497 C 0.61687 0.92604 0.89135 0.0
C1498 C 0.61644 0.94273 0.8728 0.0
H1499 H 0.66023 0.05068 0.87544 0.0
H1500 H 0.64569 0.98211 0.88967 0.0
H1501 H 0.66654 0.97792 0.86854 0.0
H1502 H 0.66221 0.94266 0.85176 0.0
H1503 H 0.66272 0.91383 0.88254 0.0
H1504 H 0.52079 0.16852 0.96735 0.0
H1505 H 0.54246 0.16785 0.92536 0.0
H1506 H 0.4943 0.17078 0.86773 0.0
H1507 H 0.47294 0.17163 0.90906 0.0
H1508 H 0.53662 0.13901 0.87561 0.0
H1509 H 0.53224 0.21559 0.8457 0.0
H1510 H 0.52741 0.20703 0.88183 0.0
H1511 H 0.5102 0.20378 0.85367 0.0
C1512 C 0.51513 0.1693 0.94562 0.0
C1513 C 0.49563 0.17065 0.94076 0.0
C1514 C 0.52728 0.16888 0.922 0.0
C1515 C 0.51967 0.16978 0.89407 0.0
C1516 C 0.50016 0.17062 0.8894 0.0
H1517 H 0.5594 0.16271 0.71932 0.0
H1518 H 0.53949 0.16764 0.76239 0.0
C1519 C 0.48814 0.17112 0.91276 0.0
C1520 C 0.5318 0.16892 0.86915 0.0
H1521 H 0.54596 0.19468 0.81095 0.0
C1522 C 0.539 0.15117 0.8616 0.0
C1523 C 0.53396 0.18483 0.85095 0.0
C1524 C 0.52564 0.20394 0.85845 0.0
C1525 C 0.5485 0.14884 0.83562 0.0
C1526 C 0.55118 0.16485 0.81779 0.0
C1527 C 0.54382 0.1826 0.82518 0.0
C1528 C 0.56278 0.16348 0.79228 0.0
C1529 C 0.55538 0.12931 0.82718 0.0
C1530 C 0.58213 0.15979 0.79565 0.0
C1531 C 0.59322 0.15675 0.77155 0.0
C1532 C 0.58492 0.15762 0.74425 0.0
C1533 C 0.56565 0.16168 0.74067 0.0
C1534 C 0.55449 0.1647 0.76489 0.0
H1535 H 0.54769 0.11795 0.83908 0.0
H1536 H 0.55361 0.12688 0.80362 0.0
H1537 H 0.5707 0.12808 0.83241 0.0
H1538 H 0.58851 0.15896 0.81693 0.0
H1539 H 0.60816 0.15365 0.77418 0.0
H1540 H 0.62334 0.75322 0.20638 0.0
H1541 H 0.6204 0.7739 0.16357 0.0
H1542 H 0.66242 0.74014 0.11939 0.0
H1543 H 0.66574 0.72004 0.16162 0.0
H1544 H 0.65419 0.79216 0.13551 0.0
H1545 H 0.61397 0.74303 0.06472 0.0
H1546 H 0.61381 0.74121 0.10373 0.0
H1547 H 0.63329 0.73171 0.08323 0.0
C1548 C 0.63239 0.75086 0.18781 0.0
C1549 C 0.64508 0.73556 0.18715 0.0
C1550 C 0.63035 0.76219 0.16342 0.0
C1551 C 0.64071 0.7578 0.13855 0.0
C1552 C 0.65403 0.74319 0.13846 0.0
H1553 H 0.6639 0.79534 0.97628 0.0
H1554 H 0.66479 0.77786 0.01224 0.0
C1555 C 0.65634 0.73219 0.16278 0.0
C1556 C 0.63968 0.76962 0.11322 0.0
H1557 H 0.6333 0.76653 0.04073 0.0
C1558 C 0.64931 0.78689 0.11475 0.0
C1559 C 0.63359 0.7621 0.08658 0.0
C1560 C 0.62293 0.74354 0.08448 0.0
C1561 C 0.65411 0.79658 0.0897 0.0
C1562 C 0.64829 0.78899 0.06285 0.0
C1563 C 0.63804 0.77197 0.06145 0.0
C1564 C 0.6503 0.79984 0.0364 0.0
C1565 C 0.66577 0.81453 0.09234 0.0
C1566 C 0.64238 0.81792 0.03555 0.0
C1567 C 0.64341 0.8284 0.01059 0.0
C1568 C 0.64997 0.81981 0.99506 0.0
C1569 C 0.65781 0.80154 0.99556 0.0
C1570 C 0.65857 0.79191 0.01164 0.0
H1571 H 0.67478 0.81426 0.11204 0.0
H1572 H 0.67503 0.81671 0.07322 0.0
H1573 H 0.6561 0.82688 0.09436 0.0
H1574 H 0.63536 0.82398 0.05421 0.0
H1575 H 0.63853 0.84272 0.01144 0.0
H1576 H 0.91916 0.89376 0.26315 0.0
H1577 H 0.93609 0.88748 0.30787 0.0
H1578 H 0.98704 0.87537 0.25964 0.0
H1579 H 0.96958 0.87992 0.21415 0.0
H1580 H 0.97398 0.84932 0.31306 0.0
H1581 H 0.97945 0.92782 0.32826 0.0
H1582 H 0.95741 0.91849 0.31464 0.0
H1583 H 0.97844 0.91696 0.29296 0.0
C1584 C 0.93379 0.88917 0.26199 0.0
C1585 C 0.94301 0.88667 0.23547 0.0
C1586 C 0.94337 0.88566 0.28742 0.0
C1587 C 0.9625 0.88072 0.2865 0.0
C1588 C 0.97205 0.87874 0.2602 0.0
H1589 H 0.09544 0.89336 0.40703 0.0
H1590 H 0.07424 0.89024 0.36599 0.0
C1591 C 0.96222 0.88158 0.23454 0.0
C1592 C 0.97281 0.8799 0.31338 0.0
H1593 H 0.98936 0.90848 0.36655 0.0
C1594 C 0.97744 0.86214 0.32495 0.0
C1595 C 0.97704 0.89682 0.32819 0.0
C1596 C 0.97297 0.91616 0.31543 0.0
C1597 C 0.98666 0.86094 0.35156 0.0
C1598 C 0.99067 0.87791 0.36645 0.0
C1599 C 0.98568 0.89558 0.35499 0.0
C1600 C 0.05125 0.87822 0.3912 0.0
C1601 C 0.99279 0.84185 0.36304 0.0
C1602 C 0.99683 0.8725 0.41857 0.0
C1603 C 0.05715 0.87417 0.4421 0.0
C1604 C 0.07517 0.88206 0.43794 0.0
C1605 C 0.0812 0.88794 0.41054 0.0
C1606 C 0.06934 0.88586 0.38721 0.0
H1607 H 0.98877 0.83004 0.34836 0.0
H1608 H 0.05657 0.84172 0.36605 0.0
H1609 H 0.98622 0.83931 0.38449 0.0
H1610 H 0.98269 0.86677 0.42157 0.0
H1611 H 0.05277 0.86908 0.46317 0.0
H1612 H 0.8492 0.24324 0.48081 0.0
H1613 H 0.85079 0.26244 0.52502 0.0
H1614 H 0.90702 0.24079 0.54215 0.0
H1615 H 0.90564 0.22217 0.49767 0.0
H1616 H 0.85489 0.24553 0.57815 0.0
H1617 H 0.91239 0.29776 0.55709 0.0
H1618 H 0.90087 0.28452 0.52865 0.0
H1619 H 0.91927 0.27369 0.54992 0.0
C1620 C 0.86192 0.24292 0.49398 0.0
C1621 C 0.87718 0.23125 0.48669 0.0
C1622 C 0.86286 0.25382 0.5189 0.0
C1623 C 0.8791 0.25304 0.53634 0.0
C1624 C 0.89457 0.24174 0.52849 0.0
H1625 H 0.9027 0.2979 0.70651 0.0
H1626 H 0.90252 0.27586 0.66534 0.0
C1627 C 0.89365 0.23094 0.50351 0.0
C1628 C 0.87899 0.26221 0.56446 0.0
H1629 H 0.90239 0.29428 0.60621 0.0
C1630 C 0.86524 0.25621 0.58434 0.0
C1631 C 0.8926 0.27605 0.57206 0.0
C1632 C 0.907 0.28353 0.55071 0.0
C1633 C 0.86473 0.26377 0.61205 0.0
C1634 C 0.87841 0.27739 0.61977 0.0
C1635 C 0.89228 0.28336 0.60004 0.0
C1636 C 0.87687 0.28756 0.64683 0.0
C1637 C 0.8494 0.25748 0.63277 0.0
C1638 C 0.8621 0.30057 0.64994 0.0
C1639 C 0.86194 0.31266 0.67335 0.0
C1640 C 0.87681 0.31207 0.69344 0.0
C1641 C 0.89096 0.29817 0.69138 0.0
C1642 C 0.891 0.28588 0.66792 0.0
H1643 H 0.84272 0.24392 0.62593 0.0
H1644 H 0.85521 0.25575 0.65494 0.0
H1645 H 0.83818 0.2685 0.63359 0.0
H1646 H 0.85141 0.30221 0.63327 0.0
H1647 H 0.85131 0.32376 0.67404 0.0
H1648 H 0.56007 0.91292 0.06598 0.0
H1649 H 0.53999 0.91115 0.10855 0.0
H1650 H 0.51485 0.85922 0.07691 0.0
H1651 H 0.53551 0.86066 0.03413 0.0
H1652 H 0.49758 0.90639 0.10748 0.0
H1653 H 0.53973 0.84948 0.16193 0.0
H1654 H 0.5505 0.86554 0.13625 0.0
H1655 H 0.53442 0.84756 0.12391 0.0
C1656 C 0.54949 0.90174 0.0673 0.0
C1657 C 0.54882 0.88714 0.04686 0.0
C1658 C 0.53851 0.90047 0.09184 0.0
C1659 C 0.52649 0.88488 0.09554 0.0
C1660 C 0.52443 0.87112 0.07405 0.0
H1661 H 0.45771 0.85838 0.24104 0.0
H1662 H 0.47534 0.85792 0.19559 0.0
C1663 C 0.53568 0.87225 0.04952 0.0
C1664 C 0.51569 0.88371 0.12186 0.0
H1665 H 0.51498 0.86344 0.1884 0.0
C1666 C 0.5011 0.89688 0.12516 0.0
C1667 C 0.521 0.87144 0.14452 0.0
C1668 C 0.5373 0.85769 0.14173 0.0
C1669 C 0.49135 0.89818 0.15108 0.0
C1670 C 0.49662 0.88598 0.17385 0.0
C1671 C 0.51118 0.87267 0.17051 0.0
C1672 C 0.48666 0.88631 0.20111 0.0
C1673 C 0.47558 0.91253 0.15381 0.0
C1674 C 0.48766 0.90238 0.21881 0.0
C1675 C 0.47747 0.90272 0.2444 0.0
C1676 C 0.46655 0.88694 0.25212 0.0
C1677 C 0.46601 0.8707 0.23489 0.0
C1678 C 0.47604 0.87039 0.20925 0.0
H1679 H 0.47093 0.91797 0.1324 0.0
H1680 H 0.46314 0.90625 0.16506 0.0
H1681 H 0.48067 0.92479 0.16672 0.0
H1682 H 0.49613 0.9146 0.21267 0.0
H1683 H 0.47784 0.9153 0.25788 0.0
H1684 H 0.43267 0.30335 0.79528 0.0
H1685 H 0.43431 0.28183 0.83694 0.0
H1686 H 0.37646 0.29569 0.85875 0.0
H1687 H 0.37478 0.31723 0.81768 0.0
H1688 H 0.41958 0.30303 0.8986 0.0
H1689 H 0.38994 0.23353 0.86219 0.0
H1690 H 0.40314 0.24903 0.8383 0.0
H1691 H 0.3794 0.25508 0.84857 0.0
C1692 C 0.42004 0.30091 0.80813 0.0
C1693 C 0.40365 0.31185 0.80373 0.0
C1694 C 0.42112 0.28901 0.832 0.0
C1695 C 0.40562 0.28778 0.85068 0.0
C1696 C 0.38849 0.29679 0.84425 0.0
H1697 H 0.37079 0.24115 -0.00022 0.0
H1698 H 0.3739 0.25991 0.96542 0.0
C1699 C 0.38742 0.30869 0.82053 0.0
C1700 C 0.40743 0.27827 0.8782 0.0
H1701 H 0.39352 0.23812 0.9126 0.0
C1702 C 0.41423 0.28873 0.90183 0.0
C1703 C 0.40019 0.25985 0.8817 0.0
C1704 C 0.39279 0.24858 0.85639 0.0
C1705 C 0.41337 0.28108 0.92963 0.0
C1706 C 0.40552 0.26284 0.93309 0.0
C1707 C 0.3993 0.25226 0.90937 0.0
C1708 C 0.40392 0.25403 0.96118 0.0
C1709 C 0.42027 0.29249 0.95517 0.0
C1710 C 0.41958 0.24441 0.97231 0.0
C1711 C 0.4174 0.23322 0.99665 0.0
C1712 C 0.40026 0.23258 0.00044 0.0
C1713 C 0.38406 0.24182 0.99934 0.0
C1714 C 0.38614 0.25282 0.97458 0.0
H1715 H 0.42458 0.30712 0.94897 0.0
H1716 H 0.40896 0.29332 0.97183 0.0
H1717 H 0.43261 0.28522 0.96518 0.0
H1718 H 0.43321 0.24494 0.96148 0.0
H1719 H 0.42994 0.22579 -0.00531 0.0
H1720 H 0.11212 0.13451 0.74198 0.0
H1721 H 0.09436 0.13762 0.69661 0.0
H1722 H 0.07858 0.19483 0.7198 0.0
H1723 H 0.09572 0.19149 0.76575 0.0
H1724 H 0.04971 0.15639 0.69931 0.0
H1725 H 0.1079 0.18676 0.63149 0.0
H1726 H 0.11323 0.17102 0.66126 0.0
H1727 H 0.10449 0.19442 0.66835 0.0
C1728 C 0.10476 0.14765 0.73725 0.0
C1729 C 0.10483 0.16273 0.75686 0.0
C1730 C 0.09479 0.14942 0.71162 0.0
C1731 C 0.08542 0.16642 0.70549 0.0
C1732 C 0.08579 0.18164 0.72478 0.0
H1733 H 0.98094 0.19647 0.54846 0.0
H1734 H 0.04919 0.19631 0.59131 0.0
C1735 C 0.09539 0.17971 0.75075 0.0
C1736 C 0.07471 0.16791 0.67908 0.0
H1737 H 0.07951 0.1787 0.60813 0.0
C1738 C 0.05599 0.1614 0.67928 0.0
C1739 C 0.08329 0.17464 0.65366 0.0
C1740 C 0.10335 0.18215 0.6534 0.0
C1741 C 0.9973 0.16117 0.65388 0.0
C1742 C 0.05436 0.16706 0.62796 0.0
C1743 C 0.07297 0.17401 0.62814 0.0
C1744 C 0.99652 0.16643 0.6003 0.0
C1745 C 0.97681 0.15482 0.65525 0.0
C1746 C 0.98882 0.14935 0.59032 0.0
C1747 C 0.97721 0.14946 0.56621 0.0
C1748 C 0.97349 0.16667 0.552 0.0
C1749 C 0.98357 0.18313 0.55946 0.0
C1750 C 0.99478 0.1831 0.58402 0.0
H1751 H 0.97092 0.15631 0.67741 0.0
H1752 H 0.96784 0.1631 0.64008 0.0
H1753 H 0.97588 0.13959 0.64929 0.0
H1754 H 0.99077 0.13623 0.6022 0.0
H1755 H 0.96953 0.1366 0.56084 0.0
H1756 H 0.20132 0.81126 0.50651 0.0
H1757 H 0.19949 0.79273 0.46146 0.0
H1758 H 0.14043 0.80798 0.45248 0.0
H1759 H 0.14259 0.82701 0.49642 0.0
H1760 H 0.16896 0.76178 0.45094 0.0
H1761 H 0.16953 0.82397 0.37594 0.0
H1762 H 0.17944 0.82513 0.4119 0.0
H1763 H 0.15419 0.82507 0.40697 0.0
C1764 C 0.18803 0.81042 0.49477 0.0
C1765 C 0.17185 0.81981 0.50464 0.0
C1766 C 0.18699 0.79998 0.46943 0.0
C1767 C 0.16979 0.79911 0.4544 0.0
C1768 C 0.15371 0.80862 0.46426 0.0
H1769 H 0.14239 0.74893 0.29018 0.0
H1770 H 0.14057 0.76721 0.33508 0.0
C1771 C 0.15486 0.81919 0.48927 0.0
C1772 C 0.16856 0.78843 0.42799 0.0
H1773 H 0.1656 0.79387 0.35543 0.0
C1774 C 0.16822 0.76863 0.42994 0.0
C1775 C 0.16728 0.79781 0.40121 0.0
C1776 C 0.16772 0.81918 0.39867 0.0
C1777 C 0.16691 0.7577 0.40502 0.0
C1778 C 0.16628 0.76716 0.3781 0.0
C1779 C 0.16606 0.78694 0.37638 0.0
C1780 C 0.16758 0.75703 0.35111 0.0
C1781 C 0.16628 0.73633 0.40767 0.0
C1782 C 0.18405 0.74683 0.34501 0.0
C1783 C 0.18531 0.73691 0.31939 0.0
C1784 C 0.16996 0.73703 0.30012 0.0
C1785 C 0.15439 0.74896 0.30484 0.0
C1786 C 0.15312 0.75885 0.33059 0.0
H1787 H 0.16128 0.73179 0.42941 0.0
H1788 H 0.15685 0.73 0.39102 0.0
H1789 H 0.18077 0.73055 0.40455 0.0
H1790 H 0.19556 0.74599 0.36049 0.0
H1791 H 0.19729 0.72751 0.31626 0.0
H1792 H 0.95193 0.62688 0.40921 0.0
H1793 H 0.97098 0.62844 0.36548 0.0
H1794 H 0.06114 0.66207 0.41025 0.0
H1795 H 0.99348 0.66091 0.4546 0.0
H1796 H 0.98642 0.66897 0.3413 0.0
H1797 H 0.08336 0.60913 0.36883 0.0
H1798 H 0.05968 0.61023 0.38358 0.0
H1799 H 0.07746 0.62656 0.39587 0.0
C1800 C 0.96547 0.63421 0.40987 0.0
C1801 C 0.97169 0.64353 0.43491 0.0
C1802 C 0.97605 0.63534 0.38496 0.0
C1803 C 0.99293 0.64563 0.38512 0.0
C1804 C 0.04782 0.65436 0.41028 0.0
H1805 H 0.12734 0.63708 0.26824 0.0
H1806 H 0.10667 0.65079 0.30406 0.0
C1807 C 0.98885 0.65348 0.43535 0.0
C1808 C 0.0518 0.64642 0.35874 0.0
H1809 H 0.08554 0.62217 0.32279 0.0
C1810 C 0.99793 0.65914 0.3371 0.0
C1811 C 0.06605 0.63297 0.35381 0.0
C1812 C 0.07208 0.61886 0.37663 0.0
C1813 C 0.05504 0.65912 0.31022 0.0
C1814 C 0.06954 0.64576 0.30549 0.0
C1815 C 0.07456 0.63261 0.32696 0.0
C1816 C 0.08105 0.64536 0.27953 0.0
C1817 C 0.04919 0.67327 0.28743 0.0
C1818 C 0.07346 0.63879 0.25337 0.0
C1819 C 0.08571 0.63292 0.23149 0.0
C1820 C 0.10531 0.63281 0.23663 0.0
C1821 C 0.11256 0.63879 0.26304 0.0
C1822 C 0.10068 0.64626 0.2836 0.0
H1823 H 0.99129 0.68423 0.29615 0.0
H1824 H 0.06187 0.6804 0.27815 0.0
H1825 H 0.99369 0.66573 0.26962 0.0
H1826 H 0.05827 0.63746 0.25039 0.0
H1827 H 0.07999 0.62843 0.21085 0.0
H1828 H 0.14325 0.27321 0.70665 0.0
H1829 H 0.1412 0.29462 0.66488 0.0
H1830 H 0.19291 0.27073 0.6307 0.0
H1831 H 0.19491 0.24935 0.67183 0.0
H1832 H 0.16792 0.32075 0.64213 0.0
H1833 H 0.15241 0.26133 0.56716 0.0
H1834 H 0.1506 0.25896 0.60596 0.0
H1835 H 0.1733 0.25719 0.58838 0.0
C1836 C 0.15453 0.27323 0.69075 0.0
C1837 C 0.16927 0.25992 0.6922 0.0
C1838 C 0.15317 0.28507 0.66687 0.0
C1839 C 0.16657 0.28352 0.64474 0.0
C1840 C 0.18226 0.27158 0.64755 0.0
H1841 H 0.20201 0.33602 0.49021 0.0
H1842 H 0.19935 0.31981 0.53728 0.0
C1843 C 0.18366 0.25982 0.67133 0.0
C1844 C 0.16457 0.29459 0.61861 0.0
H1845 H 0.16369 0.29035 0.54554 0.0
C1846 C 0.16666 0.31426 0.62096 0.0
C1847 C 0.16278 0.28572 0.59139 0.0
C1848 C 0.15945 0.26464 0.58807 0.0
C1849 C 0.16821 0.3254 0.59627 0.0
C1850 C 0.16758 0.3164 0.56919 0.0
C1851 C 0.16453 0.29687 0.56675 0.0
C1852 C 0.16972 0.32706 0.54281 0.0
C1853 C 0.17114 0.34653 0.5991 0.0
C1854 C 0.1539 0.33616 0.53128 0.0
C1855 C 0.15541 0.34512 0.50483 0.0
C1856 C 0.17258 0.34476 0.48982 0.0
C1857 C 0.18856 0.33591 0.50155 0.0
C1858 C 0.1871 0.32694 0.52819 0.0
H1859 H 0.17225 0.35109 0.62202 0.0
H1860 H 0.18427 0.35083 0.58752 0.0
H1861 H 0.15908 0.35412 0.58887 0.0
H1862 H 0.14045 0.33621 0.54265 0.0
H1863 H 0.14326 0.35257 0.49643 0.0
H1864 H 0.44312 0.41688 0.76879 0.0
H1865 H 0.4603 0.41062 0.81327 0.0
H1866 H 0.51134 0.39987 0.76451 0.0
H1867 H 0.49363 0.40433 0.71921 0.0
H1868 H 0.49837 0.3733 0.81849 0.0
H1869 H 0.50344 0.45191 0.83294 0.0
H1870 H 0.48166 0.44229 0.8188 0.0
H1871 H 0.50295 0.44093 0.7977 0.0
C1872 C 0.45781 0.41253 0.76744 0.0
C1873 C 0.467 0.41042 0.74082 0.0
C1874 C 0.46754 0.40905 0.79275 0.0
C1875 C 0.48677 0.40453 0.79162 0.0
C1876 C 0.49628 0.40291 0.76523 0.0
H1877 H 0.57158 0.41782 0.91227 0.0
H1878 H 0.55037 0.41485 0.87123 0.0
C1879 C 0.4863 0.4057 0.73967 0.0
C1880 C 0.49719 0.40387 0.81841 0.0
H1881 H 0.5137 0.43277 0.87122 0.0
C1882 C 0.50183 0.38618 0.8302 0.0
C1883 C 0.50139 0.42088 0.83301 0.0
C1884 C 0.49723 0.44014 0.82004 0.0
C1885 C 0.51105 0.38514 0.85682 0.0
C1886 C 0.51505 0.4022 0.8715 0.0
C1887 C 0.51004 0.4198 0.85981 0.0
C1888 C 0.52742 0.40265 0.89632 0.0
C1889 C 0.5172 0.36612 0.86854 0.0
C1890 C 0.52115 0.39682 0.92365 0.0
C1891 C 0.53334 0.3984 0.94718 0.0
C1892 C 0.55135 0.40633 0.94309 0.0
C1893 C 0.55734 0.4124 0.91576 0.0
C1894 C 0.54548 0.4104 0.89241 0.0
H1895 H 0.5133 0.35424 0.8539 0.0
H1896 H 0.53282 0.36605 0.87174 0.0
H1897 H 0.51052 0.36362 0.88992 0.0
H1898 H 0.50704 0.39101 0.92659 0.0
H1899 H 0.529 0.39315 0.96818 0.0
H1900 H 0.4312 0.70873 0.98818 0.0
H1901 H 0.43531 0.72642 0.02417 0.0
H1902 H 0.37482 0.72249 0.03821 0.0
H1903 H 0.37139 0.70523 -0.00745 0.0
H1904 H 0.41552 0.76113 0.03851 0.0
H1905 H 0.39954 0.70096 0.11278 0.0
H1906 H 0.40635 0.69744 0.07552 0.0
H1907 H 0.38251 0.70437 0.08438 0.0
C1908 C 0.4193 0.71216 -0.00863 0.0
C1909 C 0.40078 0.70542 0.99263 0.0
C1910 C 0.42135 0.72178 0.01729 0.0
C1911 C 0.40534 0.72521 0.03431 0.0
C1912 C 0.38729 0.7194 0.02536 0.0
H1913 H 0.37637 0.79713 0.1717 0.0
H1914 H 0.37775 0.7772 0.12881 0.0
C1915 C 0.38531 0.70965 -0.00038 0.0
C1916 C 0.40725 0.73559 0.06104 0.0
H1917 H 0.39929 0.73191 0.13311 0.0
C1918 C 0.41229 0.75479 0.05933 0.0
C1919 C 0.40285 0.72697 0.08771 0.0
C1920 C 0.39765 0.70625 0.09032 0.0
C1921 C 0.41246 0.76595 0.08412 0.0
C1922 C 0.40765 0.75732 0.1106 0.0
C1923 C 0.40304 0.73811 0.11239 0.0
C1924 C 0.40655 0.76808 0.13691 0.0
C1925 C 0.41729 0.78679 0.08191 0.0
C1926 C 0.4219 0.76807 0.15597 0.0
C1927 C 0.42102 0.77898 0.1808 0.0
C1928 C 0.40484 0.78999 0.18609 0.0
C1929 C 0.38883 0.78844 0.16823 0.0
C1930 C 0.38976 0.77757 0.14346 0.0
H1931 H 0.42143 0.791 0.05962 0.0
H1932 H 0.40485 0.79539 0.08853 0.0
H1933 H 0.42911 0.79025 0.09688 0.0
H1934 H 0.43476 0.76033 0.15096 0.0
H1935 H 0.43351 0.78027 0.19432 0.0
H1936 H 0.08353 0.43492 0.56661 0.0
H1937 H 0.06221 0.43542 0.60783 0.0
H1938 H 0.99374 0.37942 0.58588 0.0
H1939 H 0.06339 0.37875 0.54411 0.0
H1940 H 0.9708 0.4253 0.60755 0.0
H1941 H 0.06879 0.38053 0.67221 0.0
H1942 H 0.07721 0.39593 0.64372 0.0
H1943 H 0.06434 0.37477 0.63483 0.0
C1944 C 0.07381 0.42313 0.56964 0.0
C1945 C 0.07475 0.40687 0.55224 0.0
C1946 C 0.062 0.42331 0.5934 0.0
C1947 C 0.05098 0.40735 0.59958 0.0
C1948 C 0.05062 0.3917 0.58106 0.0
H1949 H 0.93667 0.38174 0.74816 0.0
H1950 H 0.95364 0.38103 0.70215 0.0
C1951 C 0.06254 0.39147 0.55721 0.0
C1952 C 0.99208 0.40712 0.62605 0.0
H1953 H 0.99345 0.392 0.69568 0.0
C1954 C 0.97552 0.41792 0.62685 0.0
C1955 C 0.99889 0.39766 0.65081 0.0
C1956 C 0.06535 0.38657 0.65063 0.0
C1957 C 0.96518 0.41942 0.65229 0.0
C1958 C 0.97193 0.40998 0.67709 0.0
C1959 C 0.98853 0.39913 0.67627 0.0
C1960 C 0.96167 0.4107 0.70411 0.0
C1961 C 0.94713 0.43088 0.65245 0.0
C1962 C 0.96095 0.4276 0.71994 0.0
C1963 C 0.95142 0.42792 0.74618 0.0
C1964 C 0.94286 0.41129 0.75637 0.0
C1965 C 0.94365 0.39446 0.74058 0.0
C1966 C 0.95311 0.39412 0.71443 0.0
H1967 H 0.94235 0.43453 0.63024 0.0
H1968 H 0.93561 0.42295 0.66358 0.0
H1969 H 0.94956 0.44431 0.66443 0.0
H1970 H 0.96776 0.44041 0.71203 0.0
H1971 H 0.95056 0.44104 0.75832 0.0
H1972 H 0.87845 0.81478 0.33371 0.0
H1973 H 0.87991 0.79552 0.37723 0.0
H1974 H 0.87676 0.74455 0.32545 0.0
H1975 H 0.87618 0.76415 0.28111 0.0
H1976 H 0.85322 0.76969 0.39525 0.0
H1977 H 0.92456 0.73787 0.37691 0.0
H1978 H 0.91627 0.75853 0.3575 0.0
H1979 H 0.90771 0.73535 0.34795 0.0
C1980 C 0.87785 0.79944 0.33177 0.0
C1981 C 0.87705 0.79061 0.3047 0.0
C1982 C 0.8788 0.78857 0.35639 0.0
C1983 C 0.87868 0.76883 0.35407 0.0
C1984 C 0.87721 0.75988 0.3271 0.0
H1985 H 0.86129 0.6827 0.47008 0.0
H1986 H 0.86939 0.70352 0.42945 0.0
C1987 C 0.87662 0.77088 0.30213 0.0
C1988 C 0.87972 0.75794 0.38047 0.0
H1989 H 0.90748 0.72742 0.41835 0.0
C1990 C 0.86511 0.76054 0.4005 0.0
C1991 C 0.89558 0.74655 0.38695 0.0
C1992 C 0.91204 0.74447 0.36635 0.0
C1993 C 0.86563 0.75138 0.42699 0.0
C1994 C 0.881 0.73926 0.43291 0.0
C1995 C 0.89591 0.73701 0.41331 0.0
C1996 C 0.87967 0.72626 0.4568 0.0
C1997 C 0.84941 0.75395 0.44796 0.0
C1998 C 0.88286 0.73263 0.48497 0.0
C1999 C 0.87795 0.72096 0.50792 0.0
C2000 C 0.86988 0.70318 0.50235 0.0
C2001 C 0.86716 0.69667 0.47425 0.0
C2002 C 0.87209 0.70826 0.45135 0.0
H2003 H 0.83843 0.76384 0.43961 0.0
H2004 H 0.84261 0.74003 0.45253 0.0
H2005 H 0.85489 0.75962 0.46872 0.0
H2006 H 0.88855 0.74668 0.48905 0.0
H2007 H 0.88055 0.72567 0.52987 0.0
H2008 H 0.50548 0.67484 0.04168 0.0
H2009 H 0.5271 0.67521 0.0832 0.0
H2010 H 0.51601 0.61569 0.09783 0.0
H2011 H 0.49427 0.61523 0.05704 0.0
H2012 H 0.50599 0.65406 0.143 0.0
H2013 H 0.57815 0.63491 0.10287 0.0
H2014 H 0.56176 0.64859 0.08117 0.0
H2015 H 0.55746 0.62382 0.08717 0.0
C2016 C 0.50844 0.66168 0.05298 0.0
C2017 C 0.4982 0.64507 0.04666 0.0
C2018 C 0.52048 0.66198 0.0767 0.0
C2019 C 0.52255 0.64556 0.09334 0.0
C2020 C 0.51426 0.62843 0.08492 0.0
H2021 H 0.57666 0.60916 0.24676 0.0
H2022 H 0.55746 0.61194 0.20255 0.0
C2023 C 0.50218 0.62813 0.06138 0.0
C2024 C 0.53191 0.64647 0.12107 0.0
H2025 H 0.57389 0.63673 0.15342 0.0
C2026 C 0.52089 0.65055 0.1455 0.0
C2027 C 0.55112 0.64161 0.12356 0.0
C2028 C 0.56296 0.637 0.09737 0.0
C2029 C 0.52886 0.64951 0.17304 0.0
C2030 C 0.54808 0.64435 0.17545 0.0
C2031 C 0.55909 0.6406 0.15098 0.0
C2032 C 0.55728 0.64269 0.20325 0.0
C2033 C 0.51682 0.65339 0.19935 0.0
C2034 C 0.5634 0.65913 0.21734 0.0
C2035 C 0.57438 0.65753 0.24203 0.0
C2036 C 0.57913 0.63954 0.25254 0.0
C2037 C 0.57295 0.62309 0.23858 0.0
C2038 C 0.56197 0.62467 0.21381 0.0
H2039 H 0.50161 0.65538 0.19377 0.0
H2040 H 0.51807 0.64149 0.215 0.0
H2041 H 0.52203 0.66642 0.21027 0.0
H2042 H 0.56018 0.67308 0.20871 0.0
H2043 H 0.57962 0.67027 0.25234 0.0
H2044 H 0.62732 0.32493 0.01903 0.0
H2045 H 0.6223 0.30623 0.98392 0.0
H2046 H 0.66123 0.34378 0.93982 0.0
H2047 H 0.6657 0.36194 0.98418 0.0
H2048 H 0.61297 0.32471 0.92261 0.0
H2049 H 0.68064 0.28491 0.93667 0.0
H2050 H 0.66756 0.29487 0.9666 0.0
H2051 H 0.68148 0.31004 0.94374 0.0
C2052 C 0.63493 0.32912 -0.00031 0.0
C2053 C 0.64731 0.34472 -0.00021 0.0
C2054 C 0.63174 0.31841 0.98409 0.0
C2055 C 0.64166 0.3238 0.95924 0.0
C2056 C 0.65366 0.33959 0.9592 0.0
H2057 H 0.65355 0.27833 0.78675 0.0
H2058 H 0.65528 0.30024 0.82809 0.0
C2059 C 0.6562 0.34982 0.98434 0.0
C2060 C 0.64019 0.31269 0.93318 0.0
H2061 H 0.66546 0.28259 0.89086 0.0
C2062 C 0.62434 0.31544 0.91556 0.0
C2063 C 0.65523 0.3008 0.92465 0.0
C2064 C 0.67217 0.2973 0.94393 0.0
C2065 C 0.62326 0.30658 0.8888 0.0
C2066 C 0.63836 0.29491 0.88008 0.0
C2067 C 0.65421 0.29206 0.89776 0.0
C2068 C 0.63646 0.28329 0.85463 0.0
C2069 C 0.60595 0.30937 0.87007 0.0
C2070 C 0.62487 0.26727 0.8564 0.0
C2071 C 0.62351 0.25523 0.83308 0.0
C2072 C 0.63406 0.25898 0.80807 0.0
C2073 C 0.64503 0.27557 0.8058 0.0
C2074 C 0.64627 0.28778 0.82928 0.0
H2075 H 0.59715 0.32148 0.87747 0.0
H2076 H 0.61017 0.3118 0.84723 0.0
H2077 H 0.59711 0.2963 0.87074 0.0
H2078 H 0.61747 0.26373 0.87624 0.0
H2079 H 0.61556 0.24214 0.83561 0.0
H2080 H 0.29667 0.25436 0.12457 0.0
H2081 H 0.28232 0.27526 0.16123 0.0
H2082 H 0.3105 0.24367 0.22861 0.0
H2083 H 0.32463 0.22296 0.19272 0.0
H2084 H 0.26138 0.2644 0.22032 0.0
H2085 H 0.3309 0.30187 0.22582 0.0
H2086 H 0.32391 0.28756 0.19523 0.0
H2087 H 0.33193 0.27638 0.22792 0.0
C2088 C 0.29919 0.2516 0.14729 0.0
C2089 C 0.31141 0.23697 0.15601 0.0
C2090 C 0.29113 0.26348 0.16802 0.0
C2091 C 0.29561 0.26086 0.19725 0.0
C2092 C 0.30693 0.24568 0.20602 0.0
H2093 H 0.27692 0.31775 0.35941 0.0
H2094 H 0.28902 0.29681 0.32102 0.0
C2095 C 0.31479 0.23379 0.18553 0.0
C2096 C 0.29007 0.27483 0.21877 0.0
H2097 H 0.30854 0.30901 0.26255 0.0
C2098 C 0.27154 0.27431 0.22944 0.0
C2099 C 0.30363 0.28747 0.23047 0.0
C2100 C 0.32369 0.28852 0.21917 0.0
C2101 C 0.26622 0.28611 0.25224 0.0
C2102 C 0.27986 0.29858 0.26413 0.0
C2103 C 0.29833 0.29919 0.25331 0.0
C2104 C 0.27478 0.31202 0.28664 0.0
C2105 C 0.24618 0.28512 0.26365 0.0
C2106 C 0.26372 0.32768 0.27927 0.0
C2107 C 0.25722 0.33967 0.30071 0.0
C2108 C 0.26167 0.33606 0.32982 0.0
C2109 C 0.27362 0.32088 0.33704 0.0
C2110 C 0.28032 0.30892 0.31535 0.0
H2111 H 0.23857 0.27226 0.25592 0.0
H2112 H 0.24615 0.28515 0.28765 0.0
H2113 H 0.23823 0.29782 0.25622 0.0
H2114 H 0.25946 0.33014 0.25707 0.0
H2115 H 0.24753 0.35092 0.29464 0.0
H2116 H 0.5514 0.53701 0.376 0.0
H2117 H 0.53067 0.52435 0.41394 0.0
H2118 H 0.57172 0.54052 0.47861 0.0
H2119 H 0.59197 0.55383 0.44152 0.0
H2120 H 0.53463 0.49851 0.45985 0.0
H2121 H 0.5249 0.57259 0.49798 0.0
H2122 H 0.5365 0.56702 0.46429 0.0
H2123 H 0.54922 0.56513 0.49791 0.0
C2124 C 0.5562 0.53732 0.39823 0.0
C2125 C 0.57317 0.54654 0.40581 0.0
C2126 C 0.54437 0.53021 0.41978 0.0
C2127 C 0.54959 0.53219 0.44883 0.0
C2128 C 0.56742 0.53935 0.45619 0.0
H2129 H 0.4978 0.51012 0.6127 0.0
H2130 H 0.51795 0.52187 0.57335 0.0
C2131 C 0.57914 0.54658 0.43483 0.0
C2132 C 0.53594 0.52802 0.47165 0.0
H2133 H 0.51214 0.5482 0.52775 0.0
C2134 C 0.52958 0.50932 0.47465 0.0
C2135 C 0.52947 0.54237 0.49059 0.0
C2136 C 0.53523 0.56293 0.48739 0.0
C2137 C 0.51719 0.50436 0.49691 0.0
C2138 C 0.51096 0.51866 0.5161 0.0
C2139 C 0.51715 0.5374 0.5129 0.0
C2140 C 0.49794 0.51442 0.5397 0.0
C2141 C 0.51122 0.48385 0.49998 0.0
C2142 C 0.47979 0.50762 0.53346 0.0
C2143 C 0.46839 0.50096 0.55562 0.0
C2144 C 0.47497 0.50121 0.58434 0.0
C2145 C 0.49248 0.50976 0.59075 0.0
C2146 C 0.50397 0.51633 0.56841 0.0
H2147 H 0.52103 0.47414 0.48841 0.0
H2148 H 0.51062 0.47955 0.52306 0.0
H2149 H 0.49687 0.482 0.49053 0.0
H2150 H 0.4749 0.50646 0.51133 0.0
H2151 H 0.45514 0.49413 0.54983 0.0
H2152 H 0.2576 0.83163 0.694 0.0
H2153 H 0.27126 0.81232 0.73183 0.0
H2154 H 0.28247 0.76779 0.67025 0.0
H2155 H 0.26978 0.78762 0.63144 0.0
H2156 H 0.25338 0.77953 0.7452 0.0
H2157 H 0.32928 0.76647 0.72056 0.0
H2158 H 0.31584 0.78507 0.70321 0.0
H2159 H 0.31374 0.76091 0.69103 0.0
C2160 C 0.26396 0.81822 0.68796 0.0
C2161 C 0.26257 0.81111 0.65963 0.0
C2162 C 0.2715 0.80708 0.70982 0.0
C2163 C 0.27771 0.78869 0.70376 0.0
C2164 C 0.2779 0.7821 0.67518 0.0
H2165 H 0.31048 0.69387 0.80526 0.0
H2166 H 0.29599 0.71351 0.76856 0.0
C2167 C 0.27057 0.79337 0.65311 0.0
C2168 C 0.28153 0.77569 0.72778 0.0
H2169 H 0.31502 0.74656 0.75627 0.0
C2170 C 0.26689 0.77238 0.74779 0.0
C2171 C 0.29912 0.76644 0.73081 0.0
C2172 C 0.31545 0.77002 0.71041 0.0
C2173 C 0.26933 0.75972 0.77075 0.0
C2174 C 0.28685 0.75035 0.77361 0.0
C2175 C 0.30152 0.75374 0.75369 0.0
C2176 C 0.29063 0.73708 0.79728 0.0
C2177 C 0.25312 0.75626 0.79142 0.0
C2178 C 0.29125 0.74353 0.8259 0.0
C2179 C 0.29912 0.73208 0.84734 0.0
C2180 C 0.3068 0.71432 0.84008 0.0
C2181 C 0.30444 0.70731 0.81185 0.0
C2182 C 0.29639 0.71862 0.79064 0.0
H2183 H 0.23927 0.76038 0.78181 0.0
H2184 H 0.2524 0.74111 0.79801 0.0
H2185 H 0.25533 0.76494 0.81113 0.0
H2186 H 0.28699 0.75787 0.83126 0.0
H2187 H 0.30061 0.73773 0.86898 0.0
H2188 H 0.06948 0.54464 0.11033 0.0
H2189 H 0.0494 0.5306 0.07273 0.0
H2190 H 0.09507 0.53595 0.01134 0.0
H2191 H 0.11479 0.55071 0.04764 0.0
H2192 H 0.04964 0.55826 0.01319 0.0
H2193 H 0.0632 0.4804 0.00544 0.0
H2194 H 0.06432 0.49293 0.03949 0.0
H2195 H 0.08268 0.49628 0.01322 0.0
C2196 C 0.07542 0.54231 0.08905 0.0
C2197 C 0.09357 0.54921 0.08187 0.0
C2198 C 0.06397 0.5343 0.06774 0.0
C2199 C 0.07089 0.53261 0.03954 0.0
C2200 C 0.08968 0.53723 0.03319 0.0
H2201 H 0.97577 0.5089 0.88114 0.0
H2202 H 0.99533 0.52303 0.91938 0.0
C2203 C 0.101 0.54546 0.05422 0.0
C2204 C 0.05798 0.52885 0.01565 0.0
H2205 H 0.99523 0.49374 0.97899 0.0
C2206 C 0.0482 0.54428 0.0036 0.0
C2207 C 0.05663 0.51068 0.00332 0.0
C2208 C 0.06718 0.49401 0.01594 0.0
C2209 C 0.98822 0.54132 0.98886 0.0
C2210 C 0.98686 0.52314 0.97656 0.0
C2211 C 0.99664 0.50771 0.98861 0.0
C2212 C 0.97405 0.51933 0.95256 0.0
C2213 C 0.9777 0.55799 0.97618 0.0
C2214 C 0.95555 0.51356 0.95881 0.0
C2215 C 0.94452 0.50539 0.93737 0.0
C2216 C 0.95192 0.50286 0.90939 0.0
C2217 C 0.96982 0.5105 0.90257 0.0
C2218 C 0.98096 0.51855 0.92425 0.0
H2219 H 0.98138 0.57156 0.98708 0.0
H2220 H 0.98096 0.55928 0.95277 0.0
H2221 H 0.96219 0.55555 0.97822 0.0
H2222 H 0.95022 0.51401 0.98076 0.0
H2223 H 0.93098 0.49938 0.94364 0.0
H2224 H 0.73394 0.83052 0.80433 0.0
H2225 H 0.74796 0.81129 0.7667 0.0
H2226 H 0.75902 0.76671 0.82834 0.0
H2227 H 0.74542 0.78623 0.86699 0.0
H2228 H 0.78688 0.78524 0.76712 0.0
H2229 H 0.71466 0.75265 0.76087 0.0
H2230 H 0.718 0.77678 0.77305 0.0
H2231 H 0.72523 0.75742 0.79564 0.0
C2232 C 0.74024 0.81709 0.81043 0.0
C2233 C 0.73858 0.80985 0.83869 0.0
C2234 C 0.74805 0.80607 0.78875 0.0
C2235 C 0.75421 0.78772 0.79503 0.0
C2236 C 0.75419 0.78095 0.82347 0.0
H2237 H 0.79074 0.69622 0.69469 0.0
H2238 H 0.7761 0.71649 0.73039 0.0
C2239 C 0.74647 0.79206 0.84537 0.0
C2240 C 0.75824 0.77499 0.77113 0.0
H2241 H 0.73732 0.74234 0.72718 0.0
C2242 C 0.77615 0.77582 0.75829 0.0
C2243 C 0.7439 0.76309 0.75984 0.0
C2244 C 0.7243 0.76234 0.77289 0.0
C2245 C 0.78027 0.76458 0.73431 0.0
C2246 C 0.76595 0.75258 0.72315 0.0
C2247 C 0.74801 0.75186 0.73586 0.0
C2248 C 0.77019 0.73916 0.70023 0.0
C2249 C 0.79993 0.76517 0.72144 0.0
C2250 C 0.77042 0.74499 0.67133 0.0
C2251 C 0.77849 0.73325 0.65052 0.0
C2252 C 0.7866 0.71585 0.65882 0.0
C2253 C 0.78439 0.70937 0.68739 0.0
C2254 C 0.77625 0.72101 0.70799 0.0
H2255 H 0.80934 0.77548 0.73267 0.0
H2256 H 0.80646 0.75086 0.72274 0.0
H2257 H 0.79909 0.76914 0.69825 0.0
H2258 H 0.76557 0.75904 0.6653 0.0
H2259 H 0.77988 0.73844 0.62857 0.0
H2260 H 0.71442 0.31032 0.14747 0.0
H2261 H 0.72687 0.29053 0.18591 0.0
H2262 H 0.77178 0.33103 0.20111 0.0
H2263 H 0.75935 0.35122 0.16207 0.0
H2264 H 0.76567 0.27597 0.19009 0.0
H2265 H 0.74276 0.32278 0.28083 0.0
H2266 H 0.73197 0.32407 0.24546 0.0
H2267 H 0.75534 0.3335 0.25109 0.0
C2268 C 0.7274 0.31473 0.15811 0.0
C2269 C 0.73626 0.33208 0.15141 0.0
C2270 C 0.73423 0.30357 0.18038 0.0
C2271 C 0.75 0.30957 0.19616 0.0
C2272 C 0.75942 0.32646 0.18904 0.0
H2273 H 0.81138 0.26123 0.33306 0.0
H2274 H 0.7986 0.27957 0.29318 0.0
C2275 C 0.75253 0.33775 0.16666 0.0
C2276 C 0.75659 0.29766 0.21975 0.0
H2277 H 0.75812 0.29432 0.29295 0.0
C2278 C 0.76408 0.27988 0.21263 0.0
C2279 C 0.75412 0.30303 0.24883 0.0
C2280 C 0.74552 0.32184 0.25722 0.0
C2281 C 0.76953 0.26721 0.23422 0.0
C2282 C 0.76718 0.27264 0.26327 0.0
C2283 C 0.75959 0.29036 0.2704 0.0
C2284 C 0.77443 0.26111 0.28679 0.0
C2285 C 0.77821 0.24842 0.22597 0.0
C2286 C 0.76465 0.24494 0.2963 0.0
C2287 C 0.77176 0.23449 0.31946 0.0
C2288 C 0.78854 0.24037 0.33316 0.0
C2289 C 0.79798 0.25683 0.32368 0.0
C2290 C 0.79097 0.26711 0.30061 0.0
H2291 H 0.77955 0.24677 0.20217 0.0
H2292 H 0.7925 0.24709 0.23587 0.0
H2293 H 0.7693 0.23665 0.23444 0.0
H2294 H 0.75173 0.24038 0.28564 0.0
H2295 H 0.7646 0.22158 0.32609 0.0
H2296 H 0.11342 0.08596 0.95004 0.0
H2297 H 0.09277 0.07388 0.98775 0.0
H2298 H 0.05847 0.99508 0.92409 0.0
H2299 H 0.08048 0.05601 0.88561 0.0
H2300 H 0.05111 0.08267 0.98177 0.0
H2301 H 0.06948 0.95778 0.9961 0.0
H2302 H 0.08593 0.9752 0.98202 0.0
H2303 H 0.06689 0.96676 0.9598 0.0
C2304 C 0.10234 0.07601 0.9441 0.0
C2305 C 0.0987 0.07152 0.91502 0.0
C2306 C 0.09043 0.06939 0.96563 0.0
C2307 C 0.0749 0.05807 0.9584 0.0
C2308 C 0.0718 0.05249 0.92972 0.0
H2309 H 0.933 0.96685 0.04265 0.0
H2310 H 0.95352 0.98048 0.00599 0.0
C2311 C 0.08367 0.05929 0.90796 0.0
C2312 C 0.06101 0.05371 0.9807 0.0
H2313 H 0.99605 0.96986 0.0138 0.0
C2314 C 0.04967 0.06857 0.99103 0.0
C2315 C 0.05836 0.98664 0.99248 0.0
C2316 C 0.07085 0.97062 0.98226 0.0
C2317 C 0.98886 0.0659 0.00321 0.0
C2318 C 0.98614 0.99881 0.01484 0.0
C2319 C 0.99754 0.98397 0.00461 0.0
C2320 C 0.97205 0.99428 0.03672 0.0
C2321 C 0.97639 0.08188 0.01359 0.0
C2322 C 0.97558 0.99826 0.06587 0.0
C2323 C 0.9638 0.99054 0.08705 0.0
C2324 C 0.94848 0.97897 0.07891 0.0
C2325 C 0.94436 0.97622 0.04949 0.0
C2326 C 0.95614 0.98378 0.02852 0.0
H2327 H 0.9786 0.09514 0.00098 0.0
H2328 H 0.96124 0.07765 0.01201 0.0
H2329 H 0.97946 0.08481 0.03669 0.0
H2330 H 0.9892 0.05501 0.07222 0.0
H2331 H 0.96732 0.99255 0.10963 0.0
H2332 H 0.58919 0.0542 0.58022 0.0
H2333 H 0.56989 0.99125 0.54024 0.0
H2334 H 0.52724 0.08197 0.55159 0.0
H2335 H 0.54498 0.09623 0.59075 0.0
H2336 H 0.52983 0.97848 0.54075 0.0
H2337 H 0.54531 0.08715 0.46569 0.0
H2338 H 0.55962 0.08264 0.49737 0.0
H2339 H 0.53711 0.09444 0.50068 0.0
C2340 C 0.57542 0.05994 0.57462 0.0
C2341 C 0.56834 0.07609 0.58871 0.0
C2342 C 0.56529 0.05202 0.55175 0.0
C2343 C 0.54823 0.06037 0.54294 0.0
C2344 C 0.54061 0.07567 0.55807 0.0
H2345 H 0.4591 0.99693 0.4169 0.0
H2346 H 0.47968 0.05618 0.45798 0.0
C2347 C 0.55056 0.08348 0.58085 0.0
C2348 C 0.53781 0.05309 0.51826 0.0
H2349 H 0.51972 0.0666 0.45334 0.0
C2350 C 0.52752 0.98686 0.52137 0.0
C2351 C 0.53486 0.06441 0.49346 0.0
C2352 C 0.54488 0.08315 0.48893 0.0
C2353 C 0.51482 0.98052 0.5004 0.0
C2354 C 0.51163 0.99202 0.47587 0.0
C2355 C 0.52217 0.05809 0.47256 0.0
C2356 C 0.4998 0.98571 0.45207 0.0
C2357 C 0.5046 0.9619 0.50493 0.0
C2358 C 0.50604 0.97066 0.43503 0.0
C2359 C 0.49533 0.9649 0.41159 0.0
C2360 C 0.4782 0.97416 0.40494 0.0
C2361 C 0.47239 0.9898 0.42144 0.0
C2362 C 0.48321 0.99559 0.44498 0.0
H2363 H 0.50536 0.9571 0.5278 0.0
H2364 H 0.48947 0.9631 0.49852 0.0
H2365 H 0.51127 0.95084 0.49125 0.0
H2366 H 0.51908 0.96323 0.44012 0.0
H2367 H 0.4999 0.95242 0.39985 0.0
loop_
_geom_bond_atom_site_label_1
_geom_bond_atom_site_label_2
_geom_bond_distance
_geom_bond_site_symmetry_2
_ccdc_geom_bond_type
La0 C2 2.928 1_554 S
La0 O20 2.521 1_554 S
La0 O21 2.628 1_554 S
La0 O22 2.554 . S
La0 O23 2.757 . S
La0 O24 2.470 . S
La0 O29 2.482 . S
La0 O31 2.503 . S
La1 C11 2.928 . S
La1 O23 2.482 . S
La1 O25 2.503 . S
La1 O26 2.521 . S
La1 O27 2.628 . S
La1 O28 2.554 . S
La1 O29 2.757 . S
La1 O30 2.470 . S
C2 La0 2.928 1_556 S
C2 C3 1.503 . S
C2 O20 1.261 . S
C2 O21 1.243 . S
C3 C2 1.503 . S
C3 C4 1.394 . S
C3 C8 1.373 . S
C4 C3 1.394 . S
C4 C5 1.380 . S
C4 H32 0.930 . S
C5 C4 1.380 . S
C5 C6 1.376 . S
C5 H33 0.930 . S
C6 C5 1.376 . S
C6 C7 1.370 . S
C7 C6 1.370 . S
C7 C8 1.396 . S
C7 H34 0.929 . S
C8 C3 1.373 . S
C8 C7 1.396 . S
C8 H35 0.929 . S
C9 O22 1.240 . S
C9 O23 1.289 . S
C10 O24 1.258 . S
C10 O25 1.256 . S
C11 La1 2.928 . S
C11 C12 1.503 . S
C11 O26 1.261 . S
C11 O27 1.243 . S
C12 C11 1.503 . S
C12 C13 1.394 . S
C12 C17 1.373 . S
C13 C12 1.394 . S
C13 C14 1.380 . S
C13 H36 0.930 . S
C14 C13 1.380 . S
C14 C15 1.376 . S
C14 H37 0.930 . S
C15 C14 1.376 . S
C15 C16 1.370 . S
C16 C15 1.370 . S
C16 C17 1.396 . S
C16 H38 0.929 . S
C17 C12 1.373 . S
C17 C16 1.396 . S
C17 H39 0.929 . S
C18 O28 1.240 . S
C18 O29 1.289 . S
C19 O30 1.258 . S
C19 O31 1.256 . S
O20 La0 2.521 1_556 S
O20 C2 1.261 . S
O21 La0 2.628 1_556 S
O21 C2 1.243 . S
O22 La0 2.554 . S
O22 C9 1.240 . S
O23 La0 2.757 . S
O23 La1 2.482 . S
O23 C9 1.289 . S
O24 La0 2.470 . S
O24 C10 1.258 . S
O25 La1 2.503 . S
O25 C10 1.256 . S
O26 La1 2.521 . S
O26 C11 1.261 . S
O27 La1 2.628 . S
O27 C11 1.243 . S
O28 La1 2.554 . S
O28 C18 1.240 . S
O29 La0 2.482 . S
O29 La1 2.757 . S
O29 C18 1.289 . S
O30 La1 2.470 . S
O30 C19 1.258 . S
O31 La0 2.503 . S
O31 C19 1.256 . S
H32 C4 0.930 . S
H33 C5 0.930 . S
H34 C7 0.929 . S
H35 C8 0.929 . S
H36 C13 0.930 . S
H37 C14 0.930 . S
H38 C16 0.929 . S
H39 C17 0.929 . S
La40 C42 2.928 . S
La40 O60 2.521 . S
La40 O61 2.628 . S
La40 O62 2.554 . S
La40 O63 2.757 . S
La40 O64 2.470 . S
La40 O69 2.482 . S
La40 O71 2.503 . S
La41 C51 2.928 . S
La41 O63 2.482 . S
La41 O65 2.503 . S
La41 O66 2.521 . S
La41 O67 2.628 . S
La41 O68 2.554 . S
La41 O69 2.757 . S
La41 O70 2.470 . S
C42 La40 2.928 . S
C42 C43 1.503 . S
C42 O60 1.261 . S
C42 O61 1.243 . S
C43 C42 1.503 . S
C43 C44 1.394 . S
C43 C48 1.373 . S
C44 C43 1.394 . S
C44 C45 1.380 . S
C44 H72 0.930 . S
C45 C44 1.380 . S
C45 C46 1.376 . S
C45 H73 0.930 . S
C46 C45 1.376 . S
C46 C47 1.370 . S
C47 C46 1.370 . S
C47 C48 1.396 . S
C47 H74 0.929 . S
C48 C43 1.373 . S
C48 C47 1.396 . S
C48 H75 0.929 . S
C49 O62 1.240 . S
C49 O63 1.289 . S
C50 O64 1.258 . S
C50 O65 1.256 . S
C51 La41 2.928 . S
C51 C52 1.503 . S
C51 O66 1.261 . S
C51 O67 1.243 . S
C52 C51 1.503 . S
C52 C53 1.394 . S
C52 C57 1.373 . S
C53 C52 1.394 . S
C53 C54 1.380 . S
C53 H76 0.930 . S
C54 C53 1.380 . S
C54 C55 1.376 . S
C54 H77 0.930 . S
C55 C54 1.376 . S
C55 C56 1.370 . S
C56 C55 1.370 . S
C56 C57 1.396 . S
C56 H78 0.929 . S
C57 C52 1.373 . S
C57 C56 1.396 . S
C57 H79 0.929 . S
C58 O68 1.240 . S
C58 O69 1.289 . S
C59 O70 1.258 . S
C59 O71 1.256 . S
O60 La40 2.521 . S
O60 C42 1.261 . S
O61 La40 2.628 . S
O61 C42 1.243 . S
O62 La40 2.554 . S
O62 C49 1.240 . S
O63 La40 2.757 . S
O63 La41 2.482 . S
O63 C49 1.289 . S
O64 La40 2.470 . S
O64 C50 1.258 . S
O65 La41 2.503 . S
O65 C50 1.256 . S
O66 La41 2.521 . S
O66 C51 1.261 . S
O67 La41 2.628 . S
O67 C51 1.243 . S
O68 La41 2.554 . S
O68 C58 1.240 . S
O69 La40 2.482 . S
O69 La41 2.757 . S
O69 C58 1.289 . S
O70 La41 2.470 . S
O70 C59 1.258 . S
O71 La40 2.503 . S
O71 C59 1.256 . S
H72 C44 0.930 . S
H73 C45 0.930 . S
H74 C47 0.929 . S
H75 C48 0.929 . S
H76 C53 0.930 . S
H77 C54 0.930 . S
H78 C56 0.929 . S
H79 C57 0.929 . S
La80 C82 2.928 . S
La80 O100 2.521 . S
La80 O101 2.628 . S
La80 O102 2.554 . S
La80 O103 2.757 . S
La80 O104 2.470 . S
La80 O109 2.482 . S
La80 O111 2.503 . S
La81 C91 2.928 . S
La81 O103 2.482 . S
La81 O105 2.503 . S
La81 O106 2.521 . S
La81 O107 2.628 . S
La81 O108 2.554 . S
La81 O109 2.757 . S
La81 O110 2.470 . S
C82 La80 2.928 . S
C82 C83 1.503 . S
C82 O100 1.261 . S
C82 O101 1.243 . S
C83 C82 1.503 . S
C83 C84 1.394 . S
C83 C88 1.373 . S
C84 C83 1.394 . S
C84 C85 1.380 . S
C84 H112 0.930 . S
C85 C84 1.380 . S
C85 C86 1.376 . S
C85 H113 0.930 . S
C86 C85 1.376 . S
C86 C87 1.370 . S
C87 C86 1.370 . S
C87 C88 1.396 . S
C87 H114 0.929 . S
C88 C83 1.373 . S
C88 C87 1.396 . S
C88 H115 0.929 . S
C89 O102 1.240 . S
C89 O103 1.289 . S
C90 O104 1.258 . S
C90 O105 1.256 . S
C91 La81 2.928 . S
C91 C92 1.503 . S
C91 O106 1.261 . S
C91 O107 1.243 . S
C92 C91 1.503 . S
C92 C93 1.394 . S
C92 C97 1.373 . S
C93 C92 1.394 . S
C93 C94 1.380 . S
C93 H116 0.930 . S
C94 C93 1.380 . S
C94 C95 1.376 . S
C94 H117 0.930 . S
C95 C94 1.376 . S
C95 C96 1.370 . S
C96 C95 1.370 . S
C96 C97 1.396 . S
C96 H118 0.929 . S
C97 C92 1.373 . S
C97 C96 1.396 . S
C97 H119 0.929 . S
C98 O108 1.240 . S
C98 O109 1.289 . S
C99 O110 1.258 . S
C99 O111 1.256 . S
O100 La80 2.521 . S
O100 C82 1.261 . S
O101 La80 2.628 . S
O101 C82 1.243 . S
O102 La80 2.554 . S
O102 C89 1.240 . S
O103 La80 2.757 . S
O103 La81 2.482 . S
O103 C89 1.289 . S
O104 La80 2.470 . S
O104 C90 1.258 . S
O105 La81 2.503 . S
O105 C90 1.256 . S
O106 La81 2.521 . S
O106 C91 1.261 . S
O107 La81 2.628 . S
O107 C91 1.243 . S
O108 La81 2.554 . S
O108 C98 1.240 . S
O109 La80 2.482 . S
O109 La81 2.757 . S
O109 C98 1.289 . S
O110 La81 2.470 . S
O110 C99 1.258 . S
O111 La80 2.503 . S
O111 C99 1.256 . S
H112 C84 0.930 . S
H113 C85 0.930 . S
H114 C87 0.929 . S
H115 C88 0.929 . S
H116 C93 0.930 . S
H117 C94 0.930 . S
H118 C96 0.929 . S
H119 C97 0.929 . S
La120 C122 2.928 . S
La120 O140 2.521 . S
La120 O141 2.628 . S
La120 O142 2.554 . S
La120 O143 2.757 . S
La120 O144 2.470 . S
La120 O149 2.482 . S
La120 O151 2.503 . S
La121 C131 2.928 . S
La121 O143 2.482 . S
La121 O145 2.503 . S
La121 O146 2.521 . S
La121 O147 2.628 . S
La121 O148 2.554 . S
La121 O149 2.757 . S
La121 O150 2.470 . S
C122 La120 2.928 . S
C122 C123 1.503 . S
C122 O140 1.261 . S
C122 O141 1.243 . S
C123 C122 1.503 . S
C123 C124 1.394 . S
C123 C128 1.373 . S
C124 C123 1.394 . S
C124 C125 1.380 . S
C124 H152 0.930 . S
C125 C124 1.380 . S
C125 C126 1.376 . S
C125 H153 0.930 . S
C126 C125 1.376 . S
C126 C127 1.370 . S
C127 C126 1.370 . S
C127 C128 1.396 . S
C127 H154 0.929 . S
C128 C123 1.373 . S
C128 C127 1.396 . S
C128 H155 0.929 . S
C129 O142 1.240 . S
C129 O143 1.289 . S
C130 O144 1.258 . S
C130 O145 1.256 . S
C131 La121 2.928 . S
C131 C132 1.503 . S
C131 O146 1.261 . S
C131 O147 1.243 . S
C132 C131 1.503 . S
C132 C133 1.394 . S
C132 C137 1.373 . S
C133 C132 1.394 . S
C133 C134 1.380 . S
C133 H156 0.930 . S
C134 C133 1.380 . S
C134 C135 1.376 . S
C134 H157 0.930 . S
C135 C134 1.376 . S
C135 C136 1.370 . S
C136 C135 1.370 . S
C136 C137 1.396 . S
C136 H158 0.929 . S
C137 C132 1.373 . S
C137 C136 1.396 . S
C137 H159 0.929 . S
C138 O148 1.240 . S
C138 O149 1.289 . S
C139 O150 1.258 . S
C139 O151 1.256 . S
O140 La120 2.521 . S
O140 C122 1.261 . S
O141 La120 2.628 . S
O141 C122 1.243 . S
O142 La120 2.554 . S
O142 C129 1.240 . S
O143 La120 2.757 . S
O143 La121 2.482 . S
O143 C129 1.289 . S
O144 La120 2.470 . S
O144 C130 1.258 . S
O145 La121 2.503 . S
O145 C130 1.256 . S
O146 La121 2.521 . S
O146 C131 1.261 . S
O147 La121 2.628 . S
O147 C131 1.243 . S
O148 La121 2.554 . S
O148 C138 1.240 . S
O149 La120 2.482 . S
O149 La121 2.757 . S
O149 C138 1.289 . S
O150 La121 2.470 . S
O150 C139 1.258 . S
O151 La120 2.503 . S
O151 C139 1.256 . S
H152 C124 0.930 . S
H153 C125 0.930 . S
H154 C127 0.929 . S
H155 C128 0.929 . S
H156 C133 0.930 . S
H157 C134 0.930 . S
H158 C136 0.929 . S
H159 C137 0.929 . S
La160 C162 2.928 . S
La160 O180 2.521 . S
La160 O181 2.628 . S
La160 O182 2.554 . S
La160 O183 2.757 . S
La160 O184 2.470 . S
La160 O189 2.482 . S
La160 O191 2.503 . S
La161 C171 2.928 1_556 S
La161 O183 2.482 . S
La161 O185 2.503 . S
La161 O186 2.521 1_556 S
La161 O187 2.628 1_556 S
La161 O188 2.554 . S
La161 O189 2.757 . S
La161 O190 2.470 . S
C162 La160 2.928 . S
C162 C163 1.503 . S
C162 O180 1.261 . S
C162 O181 1.243 . S
C163 C162 1.503 . S
C163 C164 1.394 . S
C163 C168 1.373 . S
C164 C163 1.394 . S
C164 C165 1.380 . S
C164 H192 0.930 . S
C165 C164 1.380 . S
C165 C166 1.376 . S
C165 H193 0.930 . S
C166 C165 1.376 . S
C166 C167 1.370 . S
C167 C166 1.370 . S
C167 C168 1.396 . S
C167 H194 0.929 . S
C168 C163 1.373 . S
C168 C167 1.396 . S
C168 H195 0.929 . S
C169 O182 1.240 . S
C169 O183 1.289 . S
C170 O184 1.258 . S
C170 O185 1.256 . S
C171 La161 2.928 1_554 S
C171 C172 1.503 . S
C171 O186 1.261 . S
C171 O187 1.243 . S
C172 C171 1.503 . S
C172 C173 1.394 . S
C172 C177 1.373 . S
C173 C172 1.394 . S
C173 C174 1.380 . S
C173 H196 0.930 . S
C174 C173 1.380 . S
C174 C175 1.376 . S
C174 H197 0.930 . S
C175 C174 1.376 . S
C175 C176 1.370 . S
C176 C175 1.370 . S
C176 C177 1.396 . S
C176 H198 0.929 . S
C177 C172 1.373 . S
C177 C176 1.396 . S
C177 H199 0.929 . S
C178 O188 1.240 . S
C178 O189 1.289 . S
C179 O190 1.258 . S
C179 O191 1.256 . S
O180 La160 2.521 . S
O180 C162 1.261 . S
O181 La160 2.628 . S
O181 C162 1.243 . S
O182 La160 2.554 . S
O182 C169 1.240 . S
O183 La160 2.757 . S
O183 La161 2.482 . S
O183 C169 1.289 . S
O184 La160 2.470 . S
O184 C170 1.258 . S
O185 La161 2.503 . S
O185 C170 1.256 . S
O186 La161 2.521 1_554 S
O186 C171 1.261 . S
O187 La161 2.628 1_554 S
O187 C171 1.243 . S
O188 La161 2.554 . S
O188 C178 1.240 . S
O189 La160 2.482 . S
O189 La161 2.757 . S
O189 C178 1.289 . S
O190 La161 2.470 . S
O190 C179 1.258 . S
O191 La160 2.503 . S
O191 C179 1.256 . S
H192 C164 0.930 . S
H193 C165 0.930 . S
H194 C167 0.929 . S
H195 C168 0.929 . S
H196 C173 0.930 . S
H197 C174 0.930 . S
H198 C176 0.929 . S
H199 C177 0.929 . S
La200 C202 2.928 . S
La200 O220 2.521 . S
La200 O221 2.628 . S
La200 O222 2.554 . S
La200 O223 2.757 . S
La200 O224 2.470 . S
La200 O229 2.482 . S
La200 O231 2.503 . S
La201 C211 2.928 . S
La201 O223 2.482 . S
La201 O225 2.503 . S
La201 O226 2.521 . S
La201 O227 2.628 . S
La201 O228 2.554 . S
La201 O229 2.757 . S
La201 O230 2.470 . S
C202 La200 2.928 . S
C202 C203 1.503 . S
C202 O220 1.261 . S
C202 O221 1.243 . S
C203 C202 1.503 . S
C203 C204 1.394 . S
C203 C208 1.373 . S
C204 C203 1.394 . S
C204 C205 1.380 . S
C204 H232 0.930 . S
C205 C204 1.380 . S
C205 C206 1.376 . S
C205 H233 0.930 . S
C206 C205 1.376 . S
C206 C207 1.370 . S
C207 C206 1.370 . S
C207 C208 1.396 . S
C207 H234 0.929 . S
C208 C203 1.373 . S
C208 C207 1.396 . S
C208 H235 0.929 . S
C209 O222 1.240 . S
C209 O223 1.289 . S
C210 O224 1.258 . S
C210 O225 1.256 . S
C211 La201 2.928 . S
C211 C212 1.503 . S
C211 O226 1.261 . S
C211 O227 1.243 . S
C212 C211 1.503 . S
C212 C213 1.394 . S
C212 C217 1.373 . S
C213 C212 1.394 . S
C213 C214 1.380 . S
C213 H236 0.930 . S
C214 C213 1.380 . S
C214 C215 1.376 . S
C214 H237 0.930 . S
C215 C214 1.376 . S
C215 C216 1.370 . S
C216 C215 1.370 . S
C216 C217 1.396 . S
C216 H238 0.929 . S
C217 C212 1.373 . S
C217 C216 1.396 . S
C217 H239 0.929 . S
C218 O228 1.240 . S
C218 O229 1.289 . S
C219 O230 1.258 . S
C219 O231 1.256 . S
O220 La200 2.521 . S
O220 C202 1.261 . S
O221 La200 2.628 . S
O221 C202 1.243 . S
O222 La200 2.554 . S
O222 C209 1.240 . S
O223 La200 2.757 . S
O223 La201 2.482 . S
O223 C209 1.289 . S
O224 La200 2.470 . S
O224 C210 1.258 . S
O225 La201 2.503 . S
O225 C210 1.256 . S
O226 La201 2.521 . S
O226 C211 1.261 . S
O227 La201 2.628 . S
O227 C211 1.243 . S
O228 La201 2.554 . S
O228 C218 1.240 . S
O229 La200 2.482 . S
O229 La201 2.757 . S
O229 C218 1.289 . S
O230 La201 2.470 . S
O230 C219 1.258 . S
O231 La200 2.503 . S
O231 C219 1.256 . S
H232 C204 0.930 . S
H233 C205 0.930 . S
H234 C207 0.929 . S
H235 C208 0.929 . S
H236 C213 0.930 . S
H237 C214 0.930 . S
H238 C216 0.929 . S
H239 C217 0.929 . S
La240 C242 2.928 . S
La240 O260 2.521 . S
La240 O261 2.628 . S
La240 O262 2.554 . S
La240 O263 2.757 . S
La240 O264 2.470 . S
La240 O269 2.482 . S
La240 O271 2.503 . S
La241 C251 2.928 . S
La241 O263 2.482 . S
La241 O265 2.503 . S
La241 O266 2.521 . S
La241 O267 2.628 . S
La241 O268 2.554 . S
La241 O269 2.757 . S
La241 O270 2.470 . S
C242 La240 2.928 . S
C242 C243 1.503 . S
C242 O260 1.261 . S
C242 O261 1.243 . S
C243 C242 1.503 . S
C243 C244 1.394 . S
C243 C248 1.373 . S
C244 C243 1.394 . S
C244 C245 1.380 . S
C244 H272 0.930 . S
C245 C244 1.380 . S
C245 C246 1.376 . S
C245 H273 0.930 . S
C246 C245 1.376 . S
C246 C247 1.370 . S
C247 C246 1.370 . S
C247 C248 1.396 . S
C247 H274 0.929 . S
C248 C243 1.373 . S
C248 C247 1.396 . S
C248 H275 0.929 . S
C249 O262 1.240 . S
C249 O263 1.289 . S
C250 O264 1.258 . S
C250 O265 1.256 . S
C251 La241 2.928 . S
C251 C252 1.503 . S
C251 O266 1.261 . S
C251 O267 1.243 . S
C252 C251 1.503 . S
C252 C253 1.394 . S
C252 C257 1.373 . S
C253 C252 1.394 . S
C253 C254 1.380 . S
C253 H276 0.930 . S
C254 C253 1.380 . S
C254 C255 1.376 . S
C254 H277 0.930 . S
C255 C254 1.376 . S
C255 C256 1.370 . S
C256 C255 1.370 . S
C256 C257 1.396 . S
C256 H278 0.929 . S
C257 C252 1.373 . S
C257 C256 1.396 . S
C257 H279 0.929 . S
C258 O268 1.240 . S
C258 O269 1.289 . S
C259 O270 1.258 . S
C259 O271 1.256 . S
O260 La240 2.521 . S
O260 C242 1.261 . S
O261 La240 2.628 . S
O261 C242 1.243 . S
O262 La240 2.554 . S
O262 C249 1.240 . S
O263 La240 2.757 . S
O263 La241 2.482 . S
O263 C249 1.289 . S
O264 La240 2.470 . S
O264 C250 1.258 . S
O265 La241 2.503 . S
O265 C250 1.256 . S
O266 La241 2.521 . S
O266 C251 1.261 . S
O267 La241 2.628 . S
O267 C251 1.243 . S
O268 La241 2.554 . S
O268 C258 1.240 . S
O269 La240 2.482 . S
O269 La241 2.757 . S
O269 C258 1.289 . S
O270 La241 2.470 . S
O270 C259 1.258 . S
O271 La240 2.503 . S
O271 C259 1.256 . S
H272 C244 0.930 . S
H273 C245 0.930 . S
H274 C247 0.929 . S
H275 C248 0.929 . S
H276 C253 0.930 . S
H277 C254 0.930 . S
H278 C256 0.929 . S
H279 C257 0.929 . S
La280 C282 2.928 . S
La280 O300 2.521 . S
La280 O301 2.628 . S
La280 O302 2.554 . S
La280 O303 2.757 . S
La280 O304 2.470 . S
La280 O309 2.482 . S
La280 O311 2.503 . S
La281 C291 2.928 . S
La281 O303 2.482 . S
La281 O305 2.503 . S
La281 O306 2.521 . S
La281 O307 2.628 . S
La281 O308 2.554 . S
La281 O309 2.757 . S
La281 O310 2.470 . S
C282 La280 2.928 . S
C282 C283 1.503 . S
C282 O300 1.261 . S
C282 O301 1.243 . S
C283 C282 1.503 . S
C283 C284 1.394 . S
C283 C288 1.373 . S
C284 C283 1.394 . S
C284 C285 1.380 . S
C284 H312 0.930 . S
C285 C284 1.380 . S
C285 C286 1.376 . S
C285 H313 0.930 . S
C286 C285 1.376 . S
C286 C287 1.370 . S
C287 C286 1.370 . S
C287 C288 1.396 . S
C287 H314 0.929 . S
C288 C283 1.373 . S
C288 C287 1.396 . S
C288 H315 0.929 . S
C289 O302 1.240 . S
C289 O303 1.289 . S
C290 O304 1.258 . S
C290 O305 1.256 . S
C291 La281 2.928 . S
C291 C292 1.503 . S
C291 O306 1.261 . S
C291 O307 1.243 . S
C292 C291 1.503 . S
C292 C293 1.394 . S
C292 C297 1.373 . S
C293 C292 1.394 . S
C293 C294 1.380 . S
C293 H316 0.930 . S
C294 C293 1.380 . S
C294 C295 1.376 . S
C294 H317 0.930 . S
C295 C294 1.376 . S
C295 C296 1.370 . S
C296 C295 1.370 . S
C296 C297 1.396 . S
C296 H318 0.929 . S
C297 C292 1.373 . S
C297 C296 1.396 . S
C297 H319 0.929 . S
C298 O308 1.240 . S
C298 O309 1.289 . S
C299 O310 1.258 . S
C299 O311 1.256 . S
O300 La280 2.521 . S
O300 C282 1.261 . S
O301 La280 2.628 . S
O301 C282 1.243 . S
O302 La280 2.554 . S
O302 C289 1.240 . S
O303 La280 2.757 . S
O303 La281 2.482 . S
O303 C289 1.289 . S
O304 La280 2.470 . S
O304 C290 1.258 . S
O305 La281 2.503 . S
O305 C290 1.256 . S
O306 La281 2.521 . S
O306 C291 1.261 . S
O307 La281 2.628 . S
O307 C291 1.243 . S
O308 La281 2.554 . S
O308 C298 1.240 . S
O309 La280 2.482 . S
O309 La281 2.757 . S
O309 C298 1.289 . S
O310 La281 2.470 . S
O310 C299 1.258 . S
O311 La280 2.503 . S
O311 C299 1.256 . S
H312 C284 0.930 . S
H313 C285 0.930 . S
H314 C287 0.929 . S
H315 C288 0.929 . S
H316 C293 0.930 . S
H317 C294 0.930 . S
H318 C296 0.929 . S
H319 C297 0.929 . S
La320 C322 2.928 . S
La320 O340 2.521 . S
La320 O341 2.628 . S
La320 O342 2.554 . S
La320 O343 2.757 . S
La320 O344 2.470 . S
La320 O349 2.482 . S
La320 O351 2.503 . S
La321 C331 2.928 . S
La321 O343 2.482 . S
La321 O345 2.503 . S
La321 O346 2.521 . S
La321 O347 2.628 . S
La321 O348 2.554 . S
La321 O349 2.757 . S
La321 O350 2.470 . S
C322 La320 2.928 . S
C322 C323 1.503 . S
C322 O340 1.261 . S
C322 O341 1.243 . S
C323 C322 1.503 . S
C323 C324 1.394 . S
C323 C328 1.373 . S
C324 C323 1.394 . S
C324 C325 1.380 . S
C324 H352 0.930 . S
C325 C324 1.380 . S
C325 C326 1.376 . S
C325 H353 0.930 . S
C326 C325 1.376 . S
C326 C327 1.370 . S
C327 C326 1.370 . S
C327 C328 1.396 . S
C327 H354 0.929 . S
C328 C323 1.373 . S
C328 C327 1.396 . S
C328 H355 0.929 . S
C329 O342 1.240 . S
C329 O343 1.289 . S
C330 O344 1.258 . S
C330 O345 1.256 . S
C331 La321 2.928 . S
C331 C332 1.503 . S
C331 O346 1.261 . S
C331 O347 1.243 . S
C332 C331 1.503 . S
C332 C333 1.394 . S
C332 C337 1.373 . S
C333 C332 1.394 . S
C333 C334 1.380 . S
C333 H356 0.930 . S
C334 C333 1.380 . S
C334 C335 1.376 . S
C334 H357 0.930 . S
C335 C334 1.376 . S
C335 C336 1.370 . S
C336 C335 1.370 . S
C336 C337 1.396 . S
C336 H358 0.929 . S
C337 C332 1.373 . S
C337 C336 1.396 . S
C337 H359 0.929 . S
C338 O348 1.240 . S
C338 O349 1.289 . S
C339 O350 1.258 . S
C339 O351 1.256 . S
O340 La320 2.521 . S
O340 C322 1.261 . S
O341 La320 2.628 . S
O341 C322 1.243 . S
O342 La320 2.554 . S
O342 C329 1.240 . S
O343 La320 2.757 . S
O343 La321 2.482 . S
O343 C329 1.289 . S
O344 La320 2.470 . S
O344 C330 1.258 . S
O345 La321 2.503 . S
O345 C330 1.256 . S
O346 La321 2.521 . S
O346 C331 1.261 . S
O347 La321 2.628 . S
O347 C331 1.243 . S
O348 La321 2.554 . S
O348 C338 1.240 . S
O349 La320 2.482 . S
O349 La321 2.757 . S
O349 C338 1.289 . S
O350 La321 2.470 . S
O350 C339 1.258 . S
O351 La320 2.503 . S
O351 C339 1.256 . S
H352 C324 0.930 . S
H353 C325 0.930 . S
H354 C327 0.929 . S
H355 C328 0.929 . S
H356 C333 0.930 . S
H357 C334 0.930 . S
H358 C336 0.929 . S
H359 C337 0.929 . S
La360 C362 2.928 . S
La360 O380 2.521 . S
La360 O381 2.628 . S
La360 O382 2.554 . S
La360 O383 2.757 . S
La360 O384 2.470 . S
La360 O389 2.482 . S
La360 O391 2.503 . S
La361 C371 2.928 . S
La361 O383 2.482 . S
La361 O385 2.503 . S
La361 O386 2.521 . S
La361 O387 2.628 . S
La361 O388 2.554 . S
La361 O389 2.757 . S
La361 O390 2.470 . S
C362 La360 2.928 . S
C362 C363 1.503 . S
C362 O380 1.261 . S
C362 O381 1.243 . S
C363 C362 1.503 . S
C363 C364 1.394 . S
C363 C368 1.373 . S
C364 C363 1.394 . S
C364 C365 1.380 . S
C364 H392 0.930 . S
C365 C364 1.380 . S
C365 C366 1.376 . S
C365 H393 0.930 . S
C366 C365 1.376 . S
C366 C367 1.370 . S
C367 C366 1.370 . S
C367 C368 1.396 . S
C367 H394 0.929 . S
C368 C363 1.373 . S
C368 C367 1.396 . S
C368 H395 0.929 . S
C369 O382 1.240 . S
C369 O383 1.289 . S
C370 O384 1.258 . S
C370 O385 1.256 . S
C371 La361 2.928 . S
C371 C372 1.503 . S
C371 O386 1.261 . S
C371 O387 1.243 . S
C372 C371 1.503 . S
C372 C373 1.394 . S
C372 C377 1.373 . S
C373 C372 1.394 . S
C373 C374 1.380 . S
C373 H396 0.930 . S
C374 C373 1.380 . S
C374 C375 1.376 . S
C374 H397 0.930 . S
C375 C374 1.376 . S
C375 C376 1.370 . S
C376 C375 1.370 . S
C376 C377 1.396 . S
C376 H398 0.929 . S
C377 C372 1.373 . S
C377 C376 1.396 . S
C377 H399 0.929 . S
C378 O388 1.240 . S
C378 O389 1.289 . S
C379 O390 1.258 . S
C379 O391 1.256 . S
O380 La360 2.521 . S
O380 C362 1.261 . S
O381 La360 2.628 . S
O381 C362 1.243 . S
O382 La360 2.554 . S
O382 C369 1.240 . S
O383 La360 2.757 . S
O383 La361 2.482 . S
O383 C369 1.289 . S
O384 La360 2.470 . S
O384 C370 1.258 . S
O385 La361 2.503 . S
O385 C370 1.256 . S
O386 La361 2.521 . S
O386 C371 1.261 . S
O387 La361 2.628 . S
O387 C371 1.243 . S
O388 La361 2.554 . S
O388 C378 1.240 . S
O389 La360 2.482 . S
O389 La361 2.757 . S
O389 C378 1.289 . S
O390 La361 2.470 . S
O390 C379 1.258 . S
O391 La360 2.503 . S
O391 C379 1.256 . S
H392 C364 0.930 . S
H393 C365 0.930 . S
H394 C367 0.929 . S
H395 C368 0.929 . S
H396 C373 0.930 . S
H397 C374 0.930 . S
H398 C376 0.929 . S
H399 C377 0.929 . S
La400 C402 2.928 1_554 S
La400 O420 2.521 1_554 S
La400 O421 2.628 1_554 S
La400 O422 2.554 . S
La400 O423 2.757 . S
La400 O424 2.470 . S
La400 O429 2.482 . S
La400 O431 2.503 . S
La401 C411 2.928 . S
La401 O423 2.482 . S
La401 O425 2.503 . S
La401 O426 2.521 . S
La401 O427 2.628 . S
La401 O428 2.554 . S
La401 O429 2.757 . S
La401 O430 2.470 . S
C402 La400 2.928 1_556 S
C402 C403 1.503 . S
C402 O420 1.261 . S
C402 O421 1.243 . S
C403 C402 1.503 . S
C403 C404 1.394 . S
C403 C408 1.373 . S
C404 C403 1.394 . S
C404 C405 1.380 . S
C404 H432 0.930 . S
C405 C404 1.380 . S
C405 C406 1.376 . S
C405 H433 0.930 . S
C406 C405 1.376 . S
C406 C407 1.370 . S
C407 C406 1.370 . S
C407 C408 1.396 . S
C407 H434 0.929 . S
C408 C403 1.373 . S
C408 C407 1.396 . S
C408 H435 0.929 . S
C409 O422 1.240 . S
C409 O423 1.289 . S
C410 O424 1.258 . S
C410 O425 1.256 . S
C411 La401 2.928 . S
C411 C412 1.503 . S
C411 O426 1.261 . S
C411 O427 1.243 . S
C412 C411 1.503 . S
C412 C413 1.394 . S
C412 C417 1.373 . S
C413 C412 1.394 . S
C413 C414 1.380 . S
C413 H436 0.930 . S
C414 C413 1.380 . S
C414 C415 1.376 . S
C414 H437 0.930 . S
C415 C414 1.376 . S
C415 C416 1.370 . S
C416 C415 1.370 . S
C416 C417 1.396 . S
C416 H438 0.929 . S
C417 C412 1.373 . S
C417 C416 1.396 . S
C417 H439 0.929 . S
C418 O428 1.240 . S
C418 O429 1.289 . S
C419 O430 1.258 . S
C419 O431 1.256 . S
O420 La400 2.521 1_556 S
O420 C402 1.261 . S
O421 La400 2.628 1_556 S
O421 C402 1.243 . S
O422 La400 2.554 . S
O422 C409 1.240 . S
O423 La400 2.757 . S
O423 La401 2.482 . S
O423 C409 1.289 . S
O424 La400 2.470 . S
O424 C410 1.258 . S
O425 La401 2.503 . S
O425 C410 1.256 . S
O426 La401 2.521 . S
O426 C411 1.261 . S
O427 La401 2.628 . S
O427 C411 1.243 . S
O428 La401 2.554 . S
O428 C418 1.240 . S
O429 La400 2.482 . S
O429 La401 2.757 . S
O429 C418 1.289 . S
O430 La401 2.470 . S
O430 C419 1.258 . S
O431 La400 2.503 . S
O431 C419 1.256 . S
H432 C404 0.930 . S
H433 C405 0.930 . S
H434 C407 0.929 . S
H435 C408 0.929 . S
H436 C413 0.930 . S
H437 C414 0.930 . S
H438 C416 0.929 . S
H439 C417 0.929 . S
La440 C442 2.928 . S
La440 O460 2.521 . S
La440 O461 2.628 . S
La440 O462 2.554 . S
La440 O463 2.757 . S
La440 O464 2.470 . S
La440 O469 2.482 . S
La440 O471 2.503 . S
La441 C451 2.928 . S
La441 O463 2.482 . S
La441 O465 2.503 . S
La441 O466 2.521 . S
La441 O467 2.628 . S
La441 O468 2.554 . S
La441 O469 2.757 . S
La441 O470 2.470 . S
C442 La440 2.928 . S
C442 C443 1.503 . S
C442 O460 1.261 . S
C442 O461 1.243 . S
C443 C442 1.503 . S
C443 C444 1.394 . S
C443 C448 1.373 . S
C444 C443 1.394 . S
C444 C445 1.380 . S
C444 H472 0.930 . S
C445 C444 1.380 . S
C445 C446 1.376 . S
C445 H473 0.930 . S
C446 C445 1.376 . S
C446 C447 1.370 . S
C447 C446 1.370 . S
C447 C448 1.396 . S
C447 H474 0.929 . S
C448 C443 1.373 . S
C448 C447 1.396 . S
C448 H475 0.929 . S
C449 O462 1.240 . S
C449 O463 1.289 . S
C450 O464 1.258 . S
C450 O465 1.256 . S
C451 La441 2.928 . S
C451 C452 1.503 . S
C451 O466 1.261 . S
C451 O467 1.243 . S
C452 C451 1.503 . S
C452 C453 1.394 . S
C452 C457 1.373 . S
C453 C452 1.394 . S
C453 C454 1.380 . S
C453 H476 0.930 . S
C454 C453 1.380 . S
C454 C455 1.376 . S
C454 H477 0.930 . S
C455 C454 1.376 . S
C455 C456 1.370 . S
C456 C455 1.370 . S
C456 C457 1.396 . S
C456 H478 0.929 . S
C457 C452 1.373 . S
C457 C456 1.396 . S
C457 H479 0.929 . S
C458 O468 1.240 . S
C458 O469 1.289 . S
C459 O470 1.258 . S
C459 O471 1.256 . S
O460 La440 2.521 . S
O460 C442 1.261 . S
O461 La440 2.628 . S
O461 C442 1.243 . S
O462 La440 2.554 . S
O462 C449 1.240 . S
O463 La440 2.757 . S
O463 La441 2.482 . S
O463 C449 1.289 . S
O464 La440 2.470 . S
O464 C450 1.258 . S
O465 La441 2.503 . S
O465 C450 1.256 . S
O466 La441 2.521 . S
O466 C451 1.261 . S
O467 La441 2.628 . S
O467 C451 1.243 . S
O468 La441 2.554 . S
O468 C458 1.240 . S
O469 La440 2.482 . S
O469 La441 2.757 . S
O469 C458 1.289 . S
O470 La441 2.470 . S
O470 C459 1.258 . S
O471 La440 2.503 . S
O471 C459 1.256 . S
H472 C444 0.930 . S
H473 C445 0.930 . S
H474 C447 0.929 . S
H475 C448 0.929 . S
H476 C453 0.930 . S
H477 C454 0.930 . S
H478 C456 0.929 . S
H479 C457 0.929 . S
La480 C482 2.928 . S
La480 O500 2.521 . S
La480 O501 2.628 . S
La480 O502 2.554 . S
La480 O503 2.757 . S
La480 O504 2.470 . S
La480 O509 2.482 . S
La480 O511 2.503 . S
La481 C491 2.928 . S
La481 O503 2.482 . S
La481 O505 2.503 . S
La481 O506 2.521 . S
La481 O507 2.628 . S
La481 O508 2.554 . S
La481 O509 2.757 . S
La481 O510 2.470 . S
C482 La480 2.928 . S
C482 C483 1.503 . S
C482 O500 1.261 . S
C482 O501 1.243 . S
C483 C482 1.503 . S
C483 C484 1.394 . S
C483 C488 1.373 . S
C484 C483 1.394 . S
C484 C485 1.380 . S
C484 H512 0.930 . S
C485 C484 1.380 . S
C485 C486 1.376 . S
C485 H513 0.930 . S
C486 C485 1.376 . S
C486 C487 1.370 . S
C487 C486 1.370 . S
C487 C488 1.396 . S
C487 H514 0.929 . S
C488 C483 1.373 . S
C488 C487 1.396 . S
C488 H515 0.929 . S
C489 O502 1.240 . S
C489 O503 1.289 . S
C490 O504 1.258 . S
C490 O505 1.256 . S
C491 La481 2.928 . S
C491 C492 1.503 . S
C491 O506 1.261 . S
C491 O507 1.243 . S
C492 C491 1.503 . S
C492 C493 1.394 . S
C492 C497 1.373 . S
C493 C492 1.394 . S
C493 C494 1.380 . S
C493 H516 0.930 . S
C494 C493 1.380 . S
C494 C495 1.376 . S
C494 H517 0.930 . S
C495 C494 1.376 . S
C495 C496 1.370 . S
C496 C495 1.370 . S
C496 C497 1.396 . S
C496 H518 0.929 . S
C497 C492 1.373 . S
C497 C496 1.396 . S
C497 H519 0.929 . S
C498 O508 1.240 . S
C498 O509 1.289 . S
C499 O510 1.258 . S
C499 O511 1.256 . S
O500 La480 2.521 . S
O500 C482 1.261 . S
O501 La480 2.628 . S
O501 C482 1.243 . S
O502 La480 2.554 . S
O502 C489 1.240 . S
O503 La480 2.757 . S
O503 La481 2.482 . S
O503 C489 1.289 . S
O504 La480 2.470 . S
O504 C490 1.258 . S
O505 La481 2.503 . S
O505 C490 1.256 . S
O506 La481 2.521 . S
O506 C491 1.261 . S
O507 La481 2.628 . S
O507 C491 1.243 . S
O508 La481 2.554 . S
O508 C498 1.240 . S
O509 La480 2.482 . S
O509 La481 2.757 . S
O509 C498 1.289 . S
O510 La481 2.470 . S
O510 C499 1.258 . S
O511 La480 2.503 . S
O511 C499 1.256 . S
H512 C484 0.930 . S
H513 C485 0.930 . S
H514 C487 0.929 . S
H515 C488 0.929 . S
H516 C493 0.930 . S
H517 C494 0.930 . S
H518 C496 0.929 . S
H519 C497 0.929 . S
La520 C522 2.928 . S
La520 O540 2.521 . S
La520 O541 2.628 . S
La520 O542 2.554 . S
La520 O543 2.757 . S
La520 O544 2.470 . S
La520 O549 2.482 . S
La520 O551 2.503 . S
La521 C531 2.928 . S
La521 O543 2.482 . S
La521 O545 2.503 . S
La521 O546 2.521 . S
La521 O547 2.628 . S
La521 O548 2.554 . S
La521 O549 2.757 . S
La521 O550 2.470 . S
C522 La520 2.928 . S
C522 C523 1.503 . S
C522 O540 1.261 . S
C522 O541 1.243 . S
C523 C522 1.503 . S
C523 C524 1.394 . S
C523 C528 1.373 . S
C524 C523 1.394 . S
C524 C525 1.380 . S
C524 H552 0.930 . S
C525 C524 1.380 . S
C525 C526 1.376 . S
C525 H553 0.930 . S
C526 C525 1.376 . S
C526 C527 1.370 . S
C527 C526 1.370 . S
C527 C528 1.396 . S
C527 H554 0.929 . S
C528 C523 1.373 . S
C528 C527 1.396 . S
C528 H555 0.929 . S
C529 O542 1.240 . S
C529 O543 1.289 . S
C530 O544 1.258 . S
C530 O545 1.256 . S
C531 La521 2.928 . S
C531 C532 1.503 . S
C531 O546 1.261 . S
C531 O547 1.243 . S
C532 C531 1.503 . S
C532 C533 1.394 . S
C532 C537 1.373 . S
C533 C532 1.394 . S
C533 C534 1.380 . S
C533 H556 0.930 . S
C534 C533 1.380 . S
C534 C535 1.376 . S
C534 H557 0.930 . S
C535 C534 1.376 . S
C535 C536 1.370 . S
C536 C535 1.370 . S
C536 C537 1.396 . S
C536 H558 0.929 . S
C537 C532 1.373 . S
C537 C536 1.396 . S
C537 H559 0.929 . S
C538 O548 1.240 . S
C538 O549 1.289 . S
C539 O550 1.258 . S
C539 O551 1.256 . S
O540 La520 2.521 . S
O540 C522 1.261 . S
O541 La520 2.628 . S
O541 C522 1.243 . S
O542 La520 2.554 . S
O542 C529 1.240 . S
O543 La520 2.757 . S
O543 La521 2.482 . S
O543 C529 1.289 . S
O544 La520 2.470 . S
O544 C530 1.258 . S
O545 La521 2.503 . S
O545 C530 1.256 . S
O546 La521 2.521 . S
O546 C531 1.261 . S
O547 La521 2.628 . S
O547 C531 1.243 . S
O548 La521 2.554 . S
O548 C538 1.240 . S
O549 La520 2.482 . S
O549 La521 2.757 . S
O549 C538 1.289 . S
O550 La521 2.470 . S
O550 C539 1.258 . S
O551 La520 2.503 . S
O551 C539 1.256 . S
H552 C524 0.930 . S
H553 C525 0.930 . S
H554 C527 0.929 . S
H555 C528 0.929 . S
H556 C533 0.930 . S
H557 C534 0.930 . S
H558 C536 0.929 . S
H559 C537 0.929 . S
La560 C562 2.928 . S
La560 O580 2.521 . S
La560 O581 2.628 . S
La560 O582 2.554 . S
La560 O583 2.757 . S
La560 O584 2.470 . S
La560 O589 2.482 . S
La560 O591 2.503 . S
La561 C571 2.928 1_556 S
La561 O583 2.482 . S
La561 O585 2.503 . S
La561 O586 2.521 1_556 S
La561 O587 2.628 1_556 S
La561 O588 2.554 . S
La561 O589 2.757 . S
La561 O590 2.470 . S
C562 La560 2.928 . S
C562 C563 1.503 . S
C562 O580 1.261 . S
C562 O581 1.243 . S
C563 C562 1.503 . S
C563 C564 1.394 . S
C563 C568 1.373 . S
C564 C563 1.394 . S
C564 C565 1.380 . S
C564 H592 0.930 . S
C565 C564 1.380 . S
C565 C566 1.376 . S
C565 H593 0.930 . S
C566 C565 1.376 . S
C566 C567 1.370 . S
C567 C566 1.370 . S
C567 C568 1.396 . S
C567 H594 0.929 . S
C568 C563 1.373 . S
C568 C567 1.396 . S
C568 H595 0.929 . S
C569 O582 1.240 . S
C569 O583 1.289 . S
C570 O584 1.258 . S
C570 O585 1.256 . S
C571 La561 2.928 1_554 S
C571 C572 1.503 . S
C571 O586 1.261 . S
C571 O587 1.243 . S
C572 C571 1.503 . S
C572 C573 1.394 . S
C572 C577 1.373 . S
C573 C572 1.394 . S
C573 C574 1.380 . S
C573 H596 0.930 . S
C574 C573 1.380 . S
C574 C575 1.376 . S
C574 H597 0.930 . S
C575 C574 1.376 . S
C575 C576 1.370 . S
C576 C575 1.370 . S
C576 C577 1.396 . S
C576 H598 0.929 . S
C577 C572 1.373 . S
C577 C576 1.396 . S
C577 H599 0.929 . S
C578 O588 1.240 . S
C578 O589 1.289 . S
C579 O590 1.258 . S
C579 O591 1.256 . S
O580 La560 2.521 . S
O580 C562 1.261 . S
O581 La560 2.628 . S
O581 C562 1.243 . S
O582 La560 2.554 . S
O582 C569 1.240 . S
O583 La560 2.757 . S
O583 La561 2.482 . S
O583 C569 1.289 . S
O584 La560 2.470 . S
O584 C570 1.258 . S
O585 La561 2.503 . S
O585 C570 1.256 . S
O586 La561 2.521 1_554 S
O586 C571 1.261 . S
O587 La561 2.628 1_554 S
O587 C571 1.243 . S
O588 La561 2.554 . S
O588 C578 1.240 . S
O589 La560 2.482 . S
O589 La561 2.757 . S
O589 C578 1.289 . S
O590 La561 2.470 . S
O590 C579 1.258 . S
O591 La560 2.503 . S
O591 C579 1.256 . S
H592 C564 0.930 . S
H593 C565 0.930 . S
H594 C567 0.929 . S
H595 C568 0.929 . S
H596 C573 0.930 . S
H597 C574 0.930 . S
H598 C576 0.929 . S
H599 C577 0.929 . S
La600 C602 2.928 . S
La600 O620 2.521 . S
La600 O621 2.628 . S
La600 O622 2.554 . S
La600 O623 2.757 . S
La600 O624 2.470 . S
La600 O629 2.482 . S
La600 O631 2.503 . S
La601 C611 2.928 . S
La601 O623 2.482 . S
La601 O625 2.503 . S
La601 O626 2.521 . S
La601 O627 2.628 . S
La601 O628 2.554 . S
La601 O629 2.757 . S
La601 O630 2.470 . S
C602 La600 2.928 . S
C602 C603 1.503 . S
C602 O620 1.261 . S
C602 O621 1.243 . S
C603 C602 1.503 . S
C603 C604 1.394 . S
C603 C608 1.373 . S
C604 C603 1.394 . S
C604 C605 1.380 . S
C604 H632 0.930 . S
C605 C604 1.380 . S
C605 C606 1.376 . S
C605 H633 0.930 . S
C606 C605 1.376 . S
C606 C607 1.370 . S
C607 C606 1.370 . S
C607 C608 1.396 . S
C607 H634 0.929 . S
C608 C603 1.373 . S
C608 C607 1.396 . S
C608 H635 0.929 . S
C609 O622 1.240 . S
C609 O623 1.289 . S
C610 O624 1.258 . S
C610 O625 1.256 . S
C611 La601 2.928 . S
C611 C612 1.503 . S
C611 O626 1.261 . S
C611 O627 1.243 . S
C612 C611 1.503 . S
C612 C613 1.394 . S
C612 C617 1.373 . S
C613 C612 1.394 . S
C613 C614 1.380 . S
C613 H636 0.930 . S
C614 C613 1.380 . S
C614 C615 1.376 . S
C614 H637 0.930 . S
C615 C614 1.376 . S
C615 C616 1.370 . S
C616 C615 1.370 . S
C616 C617 1.396 . S
C616 H638 0.929 . S
C617 C612 1.373 . S
C617 C616 1.396 . S
C617 H639 0.929 . S
C618 O628 1.240 . S
C618 O629 1.289 . S
C619 O630 1.258 . S
C619 O631 1.256 . S
O620 La600 2.521 . S
O620 C602 1.261 . S
O621 La600 2.628 . S
O621 C602 1.243 . S
O622 La600 2.554 . S
O622 C609 1.240 . S
O623 La600 2.757 . S
O623 La601 2.482 . S
O623 C609 1.289 . S
O624 La600 2.470 . S
O624 C610 1.258 . S
O625 La601 2.503 . S
O625 C610 1.256 . S
O626 La601 2.521 . S
O626 C611 1.261 . S
O627 La601 2.628 . S
O627 C611 1.243 . S
O628 La601 2.554 . S
O628 C618 1.240 . S
O629 La600 2.482 . S
O629 La601 2.757 . S
O629 C618 1.289 . S
O630 La601 2.470 . S
O630 C619 1.258 . S
O631 La600 2.503 . S
O631 C619 1.256 . S
H632 C604 0.930 . S
H633 C605 0.930 . S
H634 C607 0.929 . S
H635 C608 0.929 . S
H636 C613 0.930 . S
H637 C614 0.930 . S
H638 C616 0.929 . S
H639 C617 0.929 . S
H640 C648 0.929 . S
H641 C650 0.930 . S
H642 C652 0.930 . S
H643 C655 0.929 . S
H644 C658 0.930 . S
H645 C660 0.960 . S
H646 C660 0.960 . S
H647 C660 0.960 . S
C648 H640 0.929 . S
C648 C649 1.377 . S
C648 C650 1.384 . S
C649 C648 1.377 . S
C649 C655 1.390 . S
C650 H641 0.930 . S
C650 C648 1.384 . S
C650 C651 1.372 . S
C651 C650 1.372 . S
C651 C652 1.400 . S
C651 C656 1.490 . S
C652 H642 0.930 . S
C652 C651 1.400 . S
C652 C655 1.386 . S
H653 C669 0.930 . S
H654 C670 0.931 . S
C655 H643 0.929 . S
C655 C649 1.390 . S
C655 C652 1.386 . S
C656 C651 1.490 . S
C656 C658 1.395 . S
C656 C659 1.403 . S
H657 C663 0.930 . S
C658 H644 0.930 . S
C658 C656 1.395 . S
C658 C661 1.403 . S
C659 C656 1.403 . S
C659 C660 1.524 . S
C659 C663 1.400 . S
C660 H645 0.960 . S
C660 H646 0.960 . S
C660 H647 0.960 . S
C660 C659 1.524 . S
C661 C658 1.403 . S
C661 C662 1.392 . S
C661 C665 1.495 . S
C662 C661 1.392 . S
C662 C663 1.385 . S
C662 C664 1.478 . S
C663 H657 0.930 . S
C663 C659 1.400 . S
C663 C662 1.385 . S
C664 C662 1.478 . S
C664 C666 1.381 . S
C664 C670 1.383 . S
C665 C661 1.495 . S
C665 H671 0.959 . S
C665 H672 0.961 . S
C665 H673 0.960 . S
C666 C664 1.381 . S
C666 C667 1.394 . S
C666 H674 0.930 . S
C667 C666 1.394 . S
C667 C668 1.383 . S
C667 H675 0.929 . S
C668 C667 1.383 . S
C668 C669 1.377 . S
C669 H653 0.930 . S
C669 C668 1.377 . S
C669 C670 1.379 . S
C670 H654 0.931 . S
C670 C664 1.383 . S
C670 C669 1.379 . S
H671 C665 0.959 . S
H672 C665 0.961 . S
H673 C665 0.960 . S
H674 C666 0.930 . S
H675 C667 0.929 . S
H676 C684 0.929 . S
H677 C686 0.930 . S
H678 C688 0.930 . S
H679 C691 0.929 . S
H680 C694 0.930 . S
H681 C696 0.960 . S
H682 C696 0.960 . S
H683 C696 0.960 . S
C684 H676 0.929 . S
C684 C685 1.377 . S
C684 C686 1.384 . S
C685 C684 1.377 . S
C685 C691 1.390 . S
C686 H677 0.930 . S
C686 C684 1.384 . S
C686 C687 1.372 . S
C687 C686 1.372 . S
C687 C688 1.400 . S
C687 C692 1.490 . S
C688 H678 0.930 . S
C688 C687 1.400 . S
C688 C691 1.386 . S
H689 C705 0.930 . S
H690 C706 0.931 . S
C691 H679 0.929 . S
C691 C685 1.390 . S
C691 C688 1.386 . S
C692 C687 1.490 . S
C692 C694 1.395 . S
C692 C695 1.403 . S
H693 C699 0.930 . S
C694 H680 0.930 . S
C694 C692 1.395 . S
C694 C697 1.403 . S
C695 C692 1.403 . S
C695 C696 1.524 . S
C695 C699 1.400 . S
C696 H681 0.960 . S
C696 H682 0.960 . S
C696 H683 0.960 . S
C696 C695 1.524 . S
C697 C694 1.403 . S
C697 C698 1.392 . S
C697 C701 1.495 . S
C698 C697 1.392 . S
C698 C699 1.385 . S
C698 C700 1.478 . S
C699 H693 0.930 . S
C699 C695 1.400 . S
C699 C698 1.385 . S
C700 C698 1.478 . S
C700 C702 1.381 . S
C700 C706 1.383 . S
C701 C697 1.495 . S
C701 H707 0.959 . S
C701 H708 0.961 . S
C701 H709 0.960 . S
C702 C700 1.381 . S
C702 C703 1.394 . S
C702 H710 0.930 . S
C703 C702 1.394 . S
C703 C704 1.383 . S
C703 H711 0.929 . S
C704 C703 1.383 . S
C704 C705 1.377 . S
C705 H689 0.930 . S
C705 C704 1.377 . S
C705 C706 1.379 . S
C706 H690 0.931 . S
C706 C700 1.383 . S
C706 C705 1.379 . S
H707 C701 0.959 . S
H708 C701 0.961 . S
H709 C701 0.960 . S
H710 C702 0.930 . S
H711 C703 0.929 . S
H712 C720 0.929 . S
H713 C722 0.930 . S
H714 C724 0.930 . S
H715 C727 0.929 . S
H716 C730 0.930 . S
H717 C732 0.960 . S
H718 C732 0.960 . S
H719 C732 0.960 . S
C720 H712 0.929 . S
C720 C721 1.377 . S
C720 C722 1.384 . S
C721 C720 1.377 . S
C721 C727 1.390 . S
C722 H713 0.930 . S
C722 C720 1.384 . S
C722 C723 1.372 . S
C723 C722 1.372 . S
C723 C724 1.400 . S
C723 C728 1.490 . S
C724 H714 0.930 . S
C724 C723 1.400 . S
C724 C727 1.386 . S
H725 C741 0.930 . S
H726 C742 0.931 . S
C727 H715 0.929 . S
C727 C721 1.390 . S
C727 C724 1.386 . S
C728 C723 1.490 . S
C728 C730 1.395 1_455 S
C728 C731 1.403 . S
H729 C735 0.930 . S
C730 H716 0.930 . S
C730 C728 1.395 1_655 S
C730 C733 1.403 . S
C731 C728 1.403 . S
C731 C732 1.524 . S
C731 C735 1.400 . S
C732 H717 0.960 . S
C732 H718 0.960 . S
C732 H719 0.960 . S
C732 C731 1.524 . S
C733 C730 1.403 . S
C733 C734 1.392 . S
C733 C737 1.495 . S
C734 C733 1.392 . S
C734 C735 1.385 1_655 S
C734 C736 1.478 . S
C735 H729 0.930 . S
C735 C731 1.400 . S
C735 C734 1.385 1_455 S
C736 C734 1.478 . S
C736 C738 1.381 . S
C736 C742 1.383 . S
C737 C733 1.495 . S
C737 H743 0.959 . S
C737 H744 0.961 . S
C737 H745 0.960 . S
C738 C736 1.381 . S
C738 C739 1.394 . S
C738 H746 0.930 . S
C739 C738 1.394 . S
C739 C740 1.383 . S
C739 H747 0.929 . S
C740 C739 1.383 . S
C740 C741 1.377 . S
C741 H725 0.930 . S
C741 C740 1.377 . S
C741 C742 1.379 . S
C742 H726 0.931 . S
C742 C736 1.383 . S
C742 C741 1.379 . S
H743 C737 0.959 . S
H744 C737 0.961 . S
H745 C737 0.960 . S
H746 C738 0.930 . S
H747 C739 0.929 . S
H748 C756 0.929 . S
H749 C758 0.930 . S
H750 C760 0.930 . S
H751 C763 0.929 . S
H752 C766 0.930 . S
H753 C768 0.960 . S
H754 C768 0.960 . S
H755 C768 0.960 . S
C756 H748 0.929 . S
C756 C757 1.377 . S
C756 C758 1.384 . S
C757 C756 1.377 . S
C757 C763 1.390 . S
C758 H749 0.930 . S
C758 C756 1.384 . S
C758 C759 1.372 . S
C759 C758 1.372 . S
C759 C760 1.400 . S
C759 C764 1.490 . S
C760 H750 0.930 . S
C760 C759 1.400 . S
C760 C763 1.386 . S
H761 C777 0.930 . S
H762 C778 0.931 . S
C763 H751 0.929 . S
C763 C757 1.390 . S
C763 C760 1.386 . S
C764 C759 1.490 . S
C764 C766 1.395 . S
C764 C767 1.403 1_655 S
H765 C771 0.930 . S
C766 H752 0.930 . S
C766 C764 1.395 . S
C766 C769 1.403 . S
C767 C764 1.403 1_455 S
C767 C768 1.524 . S
C767 C771 1.400 . S
C768 H753 0.960 . S
C768 H754 0.960 . S
C768 H755 0.960 . S
C768 C767 1.524 . S
C769 C766 1.403 . S
C769 C770 1.392 1_655 S
C769 C773 1.495 . S
C770 C769 1.392 1_455 S
C770 C771 1.385 . S
C770 C772 1.478 . S
C771 H765 0.930 . S
C771 C767 1.400 . S
C771 C770 1.385 . S
C772 C770 1.478 . S
C772 C774 1.381 . S
C772 C778 1.383 . S
C773 C769 1.495 . S
C773 H779 0.959 . S
C773 H780 0.961 . S
C773 H781 0.960 . S
C774 C772 1.381 . S
C774 C775 1.394 . S
C774 H782 0.930 . S
C775 C774 1.394 . S
C775 C776 1.383 . S
C775 H783 0.929 . S
C776 C775 1.383 . S
C776 C777 1.377 . S
C777 H761 0.930 . S
C777 C776 1.377 . S
C777 C778 1.379 . S
C778 H762 0.931 . S
C778 C772 1.383 . S
C778 C777 1.379 . S
H779 C773 0.959 . S
H780 C773 0.961 . S
H781 C773 0.960 . S
H782 C774 0.930 . S
H783 C775 0.929 . S
H784 C792 0.929 . S
H785 C794 0.930 . S
H786 C796 0.930 . S
H787 C799 0.929 . S
H788 C802 0.930 . S
H789 C804 0.973 . S
H790 C804 0.969 . S
H791 C804 0.956 1_556 S
C792 H784 0.929 . S
C792 C793 1.377 . S
C792 C794 1.384 . S
C793 C792 1.377 . S
C793 C799 1.390 . S
C794 H785 0.930 . S
C794 C792 1.384 . S
C794 C795 1.372 . S
C795 C794 1.372 . S
C795 C796 1.400 . S
C795 C800 1.490 . S
C796 H786 0.930 . S
C796 C795 1.400 . S
C796 C799 1.386 . S
H797 C813 0.930 . S
H798 C814 0.931 . S
C799 H787 0.929 . S
C799 C793 1.390 . S
C799 C796 1.386 . S
C800 C795 1.490 . S
C800 C802 1.395 . S
C800 C803 1.403 . S
H801 C807 0.930 . S
C802 H788 0.930 . S
C802 C800 1.395 . S
C802 C805 1.403 . S
C803 C800 1.403 . S
C803 C804 1.506 1_556 S
C803 C807 1.400 . S
C804 H789 0.973 . S
C804 H790 0.969 . S
C804 H791 0.956 1_554 S
C804 C803 1.506 1_554 S
C805 C802 1.403 . S
C805 C806 1.392 . S
C805 C809 1.495 . S
C806 C805 1.392 . S
C806 C807 1.385 . S
C806 C808 1.478 . S
C807 H801 0.930 . S
C807 C803 1.400 . S
C807 C806 1.385 . S
C808 C806 1.478 . S
C808 C810 1.381 . S
C808 C814 1.383 . S
C809 C805 1.495 . S
C809 H815 0.959 . S
C809 H816 0.961 . S
C809 H817 0.960 . S
C810 C808 1.381 . S
C810 C811 1.394 . S
C810 H818 0.930 . S
C811 C810 1.394 . S
C811 C812 1.383 . S
C811 H819 0.929 . S
C812 C811 1.383 . S
C812 C813 1.377 . S
C813 H797 0.930 . S
C813 C812 1.377 . S
C813 C814 1.379 . S
C814 H798 0.931 . S
C814 C808 1.383 . S
C814 C813 1.379 . S
H815 C809 0.959 . S
H816 C809 0.961 . S
H817 C809 0.960 . S
H818 C810 0.930 . S
H819 C811 0.929 . S
H820 C828 0.929 . S
H821 C830 0.930 . S
H822 C832 0.930 . S
H823 C835 0.929 . S
H824 C838 0.930 . S
H825 C840 0.960 . S
H826 C840 0.960 . S
H827 C840 0.960 . S
C828 H820 0.929 . S
C828 C829 1.377 . S
C828 C830 1.384 . S
C829 C828 1.377 . S
C829 C835 1.390 . S
C830 H821 0.930 . S
C830 C828 1.384 . S
C830 C831 1.372 . S
C831 C830 1.372 . S
C831 C832 1.400 . S
C831 C836 1.490 . S
C832 H822 0.930 . S
C832 C831 1.400 . S
C832 C835 1.386 . S
H833 C849 0.930 . S
H834 C850 0.931 . S
C835 H823 0.929 . S
C835 C829 1.390 . S
C835 C832 1.386 . S
C836 C831 1.490 . S
C836 C838 1.395 . S
C836 C839 1.403 . S
H837 C843 0.930 . S
C838 H824 0.930 . S
C838 C836 1.395 . S
C838 C841 1.403 . S
C839 C836 1.403 . S
C839 C840 1.524 . S
C839 C843 1.400 . S
C840 H825 0.960 . S
C840 H826 0.960 . S
C840 H827 0.960 . S
C840 C839 1.524 . S
C841 C838 1.403 . S
C841 C842 1.392 . S
C841 C845 1.495 . S
C842 C841 1.392 . S
C842 C843 1.385 . S
C842 C844 1.478 . S
C843 H837 0.930 . S
C843 C839 1.400 . S
C843 C842 1.385 . S
C844 C842 1.478 . S
C844 C846 1.381 . S
C844 C850 1.383 . S
C845 C841 1.495 . S
C845 H851 0.959 . S
C845 H852 0.961 . S
C845 H853 0.960 . S
C846 C844 1.381 . S
C846 C847 1.394 . S
C846 H854 0.930 . S
C847 C846 1.394 . S
C847 C848 1.383 . S
C847 H855 0.929 . S
C848 C847 1.383 . S
C848 C849 1.377 . S
C849 H833 0.930 . S
C849 C848 1.377 . S
C849 C850 1.379 . S
C850 H834 0.931 . S
C850 C844 1.383 . S
C850 C849 1.379 . S
H851 C845 0.959 . S
H852 C845 0.961 . S
H853 C845 0.960 . S
H854 C846 0.930 . S
H855 C847 0.929 . S
H856 C864 0.929 . S
H857 C866 0.930 . S
H858 C868 0.930 . S
H859 C871 0.929 . S
H860 C874 0.930 . S
H861 C876 0.960 . S
H862 C876 0.960 . S
H863 C876 0.960 . S
C864 H856 0.929 . S
C864 C865 1.377 . S
C864 C866 1.384 . S
C865 C864 1.377 . S
C865 C871 1.390 . S
C866 H857 0.930 . S
C866 C864 1.384 . S
C866 C867 1.372 . S
C867 C866 1.372 . S
C867 C868 1.400 . S
C867 C872 1.490 . S
C868 H858 0.930 . S
C868 C867 1.400 . S
C868 C871 1.386 . S
H869 C885 0.930 . S
H870 C886 0.931 . S
C871 H859 0.929 . S
C871 C865 1.390 . S
C871 C868 1.386 . S
C872 C867 1.490 . S
C872 C874 1.395 1_655 S
C872 C875 1.403 . S
H873 C879 0.930 . S
C874 H860 0.930 . S
C874 C872 1.395 1_455 S
C874 C877 1.403 . S
C875 C872 1.403 . S
C875 C876 1.524 . S
C875 C879 1.400 . S
C876 H861 0.960 . S
C876 H862 0.960 . S
C876 H863 0.960 . S
C876 C875 1.524 . S
C877 C874 1.403 . S
C877 C878 1.392 . S
C877 C881 1.495 . S
C878 C877 1.392 . S
C878 C879 1.385 1_455 S
C878 C880 1.478 . S
C879 H873 0.930 . S
C879 C875 1.400 . S
C879 C878 1.385 1_655 S
C880 C878 1.478 . S
C880 C882 1.381 . S
C880 C886 1.383 . S
C881 C877 1.495 . S
C881 H887 0.959 . S
C881 H888 0.961 . S
C881 H889 0.960 . S
C882 C880 1.381 . S
C882 C883 1.394 . S
C882 H890 0.930 . S
C883 C882 1.394 . S
C883 C884 1.383 . S
C883 H891 0.929 . S
C884 C883 1.383 . S
C884 C885 1.377 . S
C885 H869 0.930 . S
C885 C884 1.377 . S
C885 C886 1.379 . S
C886 H870 0.931 . S
C886 C880 1.383 . S
C886 C885 1.379 . S
H887 C881 0.959 . S
H888 C881 0.961 . S
H889 C881 0.960 . S
H890 C882 0.930 . S
H891 C883 0.929 . S
H892 C900 0.929 . S
H893 C902 0.930 . S
H894 C904 0.930 . S
H895 C907 0.929 . S
H896 C910 0.934 . S
H897 C912 0.960 . S
H898 C912 0.960 . S
H899 C912 0.960 . S
C900 H892 0.929 . S
C900 C901 1.377 . S
C900 C902 1.384 . S
C901 C900 1.377 . S
C901 C907 1.390 . S
C902 H893 0.930 . S
C902 C900 1.384 . S
C902 C903 1.372 . S
C903 C902 1.372 . S
C903 C904 1.400 . S
C903 C908 1.490 . S
C904 H894 0.930 . S
C904 C903 1.400 . S
C904 C907 1.386 . S
H905 C921 0.930 . S
H906 C922 0.931 . S
C907 H895 0.929 . S
C907 C901 1.390 . S
C907 C904 1.386 . S
C908 C903 1.490 . S
C908 C910 1.423 . S
C908 C911 1.403 . S
H909 C915 0.930 . S
C910 H896 0.934 . S
C910 C908 1.423 . S
C910 C913 1.373 1_455 S
C911 C908 1.403 . S
C911 C912 1.524 . S
C911 C915 1.400 1_455 S
C912 H897 0.960 . S
C912 H898 0.960 . S
C912 H899 0.960 . S
C912 C911 1.524 . S
C913 C910 1.373 1_655 S
C913 C914 1.392 . S
C913 C917 1.495 . S
C914 C913 1.392 . S
C914 C915 1.385 . S
C914 C916 1.478 . S
C915 H909 0.930 . S
C915 C911 1.400 1_655 S
C915 C914 1.385 . S
C916 C914 1.478 . S
C916 C918 1.381 . S
C916 C922 1.383 . S
C917 C913 1.495 . S
C917 H923 0.959 . S
C917 H924 0.961 . S
C917 H925 0.960 . S
C918 C916 1.381 . S
C918 C919 1.394 . S
C918 H926 0.930 . S
C919 C918 1.394 . S
C919 C920 1.383 . S
C919 H927 0.929 . S
C920 C919 1.383 . S
C920 C921 1.377 . S
C921 H905 0.930 . S
C921 C920 1.377 . S
C921 C922 1.379 . S
C922 H906 0.931 . S
C922 C916 1.383 . S
C922 C921 1.379 . S
H923 C917 0.959 . S
H924 C917 0.961 . S
H925 C917 0.960 . S
H926 C918 0.930 . S
H927 C919 0.929 . S
H928 C936 0.929 . S
H929 C938 0.930 . S
H930 C940 0.930 . S
H931 C943 0.929 . S
H932 C946 0.930 . S
H933 C948 0.960 . S
H934 C948 0.960 . S
H935 C948 0.960 . S
C936 H928 0.929 . S
C936 C937 1.377 . S
C936 C938 1.384 . S
C937 C936 1.377 . S
C937 C943 1.390 . S
C938 H929 0.930 . S
C938 C936 1.384 . S
C938 C939 1.372 . S
C939 C938 1.372 . S
C939 C940 1.400 . S
C939 C944 1.490 . S
C940 H930 0.930 . S
C940 C939 1.400 . S
C940 C943 1.386 . S
H941 C957 0.930 . S
H942 C958 0.931 . S
C943 H931 0.929 . S
C943 C937 1.390 . S
C943 C940 1.386 . S
C944 C939 1.490 . S
C944 C946 1.395 . S
C944 C947 1.403 . S
H945 C951 0.930 . S
C946 H932 0.930 . S
C946 C944 1.395 . S
C946 C949 1.403 . S
C947 C944 1.403 . S
C947 C948 1.524 . S
C947 C951 1.400 . S
C948 H933 0.960 . S
C948 H934 0.960 . S
C948 H935 0.960 . S
C948 C947 1.524 . S
C949 C946 1.403 . S
C949 C950 1.392 . S
C949 C953 1.495 . S
C950 C949 1.392 . S
C950 C951 1.385 . S
C950 C952 1.478 . S
C951 H945 0.930 . S
C951 C947 1.400 . S
C951 C950 1.385 . S
C952 C950 1.478 . S
C952 C954 1.381 . S
C952 C958 1.383 . S
C953 C949 1.495 . S
C953 H959 0.959 . S
C953 H960 0.961 . S
C953 H961 0.960 1_556 S
C954 C952 1.381 . S
C954 C955 1.402 . S
C954 H962 0.930 . S
C955 C954 1.402 . S
C955 C956 1.388 . S
C955 H963 0.918 1_556 S
C956 C955 1.388 . S
C956 C957 1.377 . S
C957 H941 0.930 . S
C957 C956 1.377 . S
C957 C958 1.379 . S
C958 H942 0.931 . S
C958 C952 1.383 . S
C958 C957 1.379 . S
H959 C953 0.959 . S
H960 C953 0.961 . S
H961 C953 0.960 1_554 S
H962 C954 0.930 . S
H963 C955 0.918 1_554 S
H964 C972 0.929 . S
H965 C974 0.930 . S
H966 C976 0.930 . S
H967 C979 0.929 . S
H968 C982 0.930 . S
H969 C984 0.960 . S
H970 C984 0.960 . S
H971 C984 0.960 . S
C972 H964 0.929 . S
C972 C973 1.377 . S
C972 C974 1.384 . S
C973 C972 1.377 . S
C973 C979 1.390 . S
C974 H965 0.930 . S
C974 C972 1.384 . S
C974 C975 1.372 . S
C975 C974 1.372 . S
C975 C976 1.400 . S
C975 C980 1.490 . S
C976 H966 0.930 . S
C976 C975 1.400 . S
C976 C979 1.386 . S
H977 C993 0.930 . S
H978 C994 0.931 . S
C979 H967 0.929 . S
C979 C973 1.390 . S
C979 C976 1.386 . S
C980 C975 1.490 . S
C980 C982 1.395 . S
C980 C983 1.403 . S
H981 C987 0.930 . S
C982 H968 0.930 . S
C982 C980 1.395 . S
C982 C985 1.403 . S
C983 C980 1.403 . S
C983 C984 1.524 . S
C983 C987 1.400 . S
C984 H969 0.960 . S
C984 H970 0.960 . S
C984 H971 0.960 . S
C984 C983 1.524 . S
C985 C982 1.403 . S
C985 C986 1.392 . S
C985 C989 1.495 . S
C986 C985 1.392 . S
C986 C987 1.385 . S
C986 C988 1.478 . S
C987 H981 0.930 . S
C987 C983 1.400 . S
C987 C986 1.385 . S
C988 C986 1.478 . S
C988 C990 1.381 . S
C988 C994 1.383 . S
C989 C985 1.495 . S
C989 H995 0.959 . S
C989 H996 0.961 . S
C989 H997 0.960 . S
C990 C988 1.381 . S
C990 C991 1.394 . S
C990 H998 0.930 . S
C991 C990 1.394 . S
C991 C992 1.383 . S
C991 H999 0.929 . S
C992 C991 1.383 . S
C992 C993 1.377 . S
C993 H977 0.930 . S
C993 C992 1.377 . S
C993 C994 1.379 . S
C994 H978 0.931 . S
C994 C988 1.383 . S
C994 C993 1.379 . S
H995 C989 0.959 . S
H996 C989 0.961 . S
H997 C989 0.960 . S
H998 C990 0.930 . S
H999 C991 0.929 . S
H1000 C1008 0.929 . S
H1001 C1010 0.930 . S
H1002 C1012 0.930 . S
H1003 C1015 0.929 . S
H1004 C1018 0.930 . S
H1005 C1020 0.960 . S
H1006 C1020 0.960 . S
H1007 C1020 0.960 . S
C1008 H1000 0.929 . S
C1008 C1009 1.377 . S
C1008 C1010 1.384 . S
C1009 C1008 1.377 . S
C1009 C1015 1.390 . S
C1010 H1001 0.930 . S
C1010 C1008 1.384 . S
C1010 C1011 1.372 . S
C1011 C1010 1.372 . S
C1011 C1012 1.400 . S
C1011 C1016 1.490 . S
C1012 H1002 0.930 . S
C1012 C1011 1.400 . S
C1012 C1015 1.386 . S
H1013 C1029 0.930 . S
H1014 C1030 0.931 . S
C1015 H1003 0.929 . S
C1015 C1009 1.390 . S
C1015 C1012 1.386 . S
C1016 C1011 1.490 . S
C1016 C1018 1.395 . S
C1016 C1019 1.403 . S
H1017 C1023 0.930 . S
C1018 H1004 0.930 . S
C1018 C1016 1.395 . S
C1018 C1021 1.403 . S
C1019 C1016 1.403 . S
C1019 C1020 1.524 . S
C1019 C1023 1.400 . S
C1020 H1005 0.960 . S
C1020 H1006 0.960 . S
C1020 H1007 0.960 . S
C1020 C1019 1.524 . S
C1021 C1018 1.403 . S
C1021 C1022 1.392 . S
C1021 C1025 1.495 . S
C1022 C1021 1.392 . S
C1022 C1023 1.385 . S
C1022 C1024 1.478 . S
C1023 H1017 0.930 . S
C1023 C1019 1.400 . S
C1023 C1022 1.385 . S
C1024 C1022 1.478 . S
C1024 C1026 1.381 . S
C1024 C1030 1.383 . S
C1025 C1021 1.495 . S
C1025 H1031 0.959 . S
C1025 H1032 0.961 . S
C1025 H1033 0.960 . S
C1026 C1024 1.381 . S
C1026 C1027 1.394 . S
C1026 H1034 0.930 . S
C1027 C1026 1.394 . S
C1027 C1028 1.383 . S
C1027 H1035 0.929 . S
C1028 C1027 1.383 . S
C1028 C1029 1.377 . S
C1029 H1013 0.930 . S
C1029 C1028 1.377 . S
C1029 C1030 1.379 . S
C1030 H1014 0.931 . S
C1030 C1024 1.383 . S
C1030 C1029 1.379 . S
H1031 C1025 0.959 . S
H1032 C1025 0.961 . S
H1033 C1025 0.960 . S
H1034 C1026 0.930 . S
H1035 C1027 0.929 . S
H1036 C1044 0.929 . S
H1037 C1046 0.930 . S
H1038 C1048 0.930 . S
H1039 C1051 0.929 . S
H1040 C1054 0.930 . S
H1041 C1056 0.960 . S
H1042 C1056 0.960 . S
H1043 C1056 0.960 . S
C1044 H1036 0.929 . S
C1044 C1045 1.377 . S
C1044 C1046 1.384 . S
C1045 C1044 1.377 . S
C1045 C1051 1.390 . S
C1046 H1037 0.930 . S
C1046 C1044 1.384 . S
C1046 C1047 1.372 . S
C1047 C1046 1.372 . S
C1047 C1048 1.400 . S
C1047 C1052 1.490 . S
C1048 H1038 0.930 . S
C1048 C1047 1.400 . S
C1048 C1051 1.386 . S
H1049 C1065 0.930 . S
H1050 C1066 0.931 . S
C1051 H1039 0.929 . S
C1051 C1045 1.390 . S
C1051 C1048 1.386 . S
C1052 C1047 1.490 . S
C1052 C1054 1.395 . S
C1052 C1055 1.403 . S
H1053 C1059 0.930 . S
C1054 H1040 0.930 . S
C1054 C1052 1.395 . S
C1054 C1057 1.403 . S
C1055 C1052 1.403 . S
C1055 C1056 1.524 . S
C1055 C1059 1.400 . S
C1056 H1041 0.960 . S
C1056 H1042 0.960 . S
C1056 H1043 0.960 . S
C1056 C1055 1.524 . S
C1057 C1054 1.403 . S
C1057 C1058 1.392 . S
C1057 C1061 1.495 . S
C1058 C1057 1.392 . S
C1058 C1059 1.385 . S
C1058 C1060 1.478 . S
C1059 H1053 0.930 . S
C1059 C1055 1.400 . S
C1059 C1058 1.385 . S
C1060 C1058 1.478 . S
C1060 C1062 1.381 . S
C1060 C1066 1.383 . S
C1061 C1057 1.495 . S
C1061 H1067 0.959 . S
C1061 H1068 0.961 . S
C1061 H1069 0.960 . S
C1062 C1060 1.381 . S
C1062 C1063 1.394 . S
C1062 H1070 0.930 . S
C1063 C1062 1.394 . S
C1063 C1064 1.383 . S
C1063 H1071 0.929 . S
C1064 C1063 1.383 . S
C1064 C1065 1.377 . S
C1065 H1049 0.930 . S
C1065 C1064 1.377 . S
C1065 C1066 1.379 . S
C1066 H1050 0.931 . S
C1066 C1060 1.383 . S
C1066 C1065 1.379 . S
H1067 C1061 0.959 . S
H1068 C1061 0.961 . S
H1069 C1061 0.960 . S
H1070 C1062 0.930 . S
H1071 C1063 0.929 . S
H1072 C1080 0.929 . S
H1073 C1082 0.930 . S
H1074 C1084 0.930 . S
H1075 C1087 0.929 1_556 S
H1076 C1090 0.930 . S
H1077 C1092 0.960 . S
H1078 C1092 0.960 . S
H1079 C1092 0.960 . S
C1080 H1072 0.929 . S
C1080 C1081 1.377 . S
C1080 C1082 1.384 . S
C1081 C1080 1.377 . S
C1081 C1087 1.390 . S
C1082 H1073 0.930 . S
C1082 C1080 1.384 . S
C1082 C1083 1.372 . S
C1083 C1082 1.372 . S
C1083 C1084 1.400 . S
C1083 C1088 1.490 . S
C1084 H1074 0.930 . S
C1084 C1083 1.400 . S
C1084 C1087 1.386 . S
H1085 C1101 0.930 . S
H1086 C1102 0.931 . S
C1087 H1075 0.929 1_554 S
C1087 C1081 1.390 . S
C1087 C1084 1.386 . S
C1088 C1083 1.490 . S
C1088 C1090 1.395 . S
C1088 C1091 1.403 . S
H1089 C1095 0.930 . S
C1090 H1076 0.930 . S
C1090 C1088 1.395 . S
C1090 C1093 1.403 . S
C1091 C1088 1.403 . S
C1091 C1092 1.524 . S
C1091 C1095 1.400 . S
C1092 H1077 0.960 . S
C1092 H1078 0.960 . S
C1092 H1079 0.960 . S
C1092 C1091 1.524 . S
C1093 C1090 1.403 . S
C1093 C1094 1.392 . S
C1093 C1097 1.495 . S
C1094 C1093 1.392 . S
C1094 C1095 1.385 . S
C1094 C1096 1.478 . S
C1095 H1089 0.930 . S
C1095 C1091 1.400 . S
C1095 C1094 1.385 . S
C1096 C1094 1.478 . S
C1096 C1098 1.381 . S
C1096 C1102 1.383 . S
C1097 C1093 1.495 . S
C1097 H1103 0.959 . S
C1097 H1104 0.961 . S
C1097 H1105 0.960 . S
C1098 C1096 1.381 . S
C1098 C1099 1.394 . S
C1098 H1106 0.930 . S
C1099 C1098 1.394 . S
C1099 C1100 1.383 . S
C1099 H1107 0.929 . S
C1100 C1099 1.383 . S
C1100 C1101 1.377 . S
C1101 H1085 0.930 . S
C1101 C1100 1.377 . S
C1101 C1102 1.379 . S
C1102 H1086 0.931 . S
C1102 C1096 1.383 . S
C1102 C1101 1.379 . S
H1103 C1097 0.959 . S
H1104 C1097 0.961 . S
H1105 C1097 0.960 . S
H1106 C1098 0.930 . S
H1107 C1099 0.929 . S
H1108 C1116 0.929 . S
H1109 C1118 0.930 . S
H1110 C1120 0.930 . S
H1111 C1123 0.929 . S
H1112 C1126 0.930 . S
H1113 C1128 0.960 . S
H1114 C1128 0.960 . S
H1115 C1128 0.960 . S
C1116 H1108 0.929 . S
C1116 C1117 1.377 . S
C1116 C1118 1.384 . S
C1117 C1116 1.377 . S
C1117 C1123 1.390 . S
C1118 H1109 0.930 . S
C1118 C1116 1.384 . S
C1118 C1119 1.372 . S
C1119 C1118 1.372 . S
C1119 C1120 1.400 . S
C1119 C1124 1.490 . S
C1120 H1110 0.930 . S
C1120 C1119 1.400 . S
C1120 C1123 1.386 . S
H1121 C1137 0.930 . S
H1122 C1138 0.931 . S
C1123 H1111 0.929 . S
C1123 C1117 1.390 . S
C1123 C1120 1.386 . S
C1124 C1119 1.490 . S
C1124 C1126 1.395 . S
C1124 C1127 1.403 . S
H1125 C1131 0.930 . S
C1126 H1112 0.930 . S
C1126 C1124 1.395 . S
C1126 C1129 1.403 . S
C1127 C1124 1.403 . S
C1127 C1128 1.524 . S
C1127 C1131 1.400 . S
C1128 H1113 0.960 . S
C1128 H1114 0.960 . S
C1128 H1115 0.960 . S
C1128 C1127 1.524 . S
C1129 C1126 1.403 . S
C1129 C1130 1.392 . S
C1129 C1133 1.495 . S
C1130 C1129 1.392 . S
C1130 C1131 1.385 . S
C1130 C1132 1.478 . S
C1131 H1125 0.930 . S
C1131 C1127 1.400 . S
C1131 C1130 1.385 . S
C1132 C1130 1.478 . S
C1132 C1134 1.381 . S
C1132 C1138 1.383 . S
C1133 C1129 1.495 . S
C1133 H1139 0.959 . S
C1133 H1140 0.961 . S
C1133 H1141 0.960 . S
C1134 C1132 1.381 . S
C1134 C1135 1.394 . S
C1134 H1142 0.930 . S
C1135 C1134 1.394 . S
C1135 C1136 1.383 . S
C1135 H1143 0.929 . S
C1136 C1135 1.383 . S
C1136 C1137 1.377 . S
C1137 H1121 0.930 . S
C1137 C1136 1.377 . S
C1137 C1138 1.379 . S
C1138 H1122 0.931 . S
C1138 C1132 1.383 . S
C1138 C1137 1.379 . S
H1139 C1133 0.959 . S
H1140 C1133 0.961 . S
H1141 C1133 0.960 . S
H1142 C1134 0.930 . S
H1143 C1135 0.929 . S
H1144 C1152 0.929 . S
H1145 C1154 0.930 . S
H1146 C1156 0.930 . S
H1147 C1159 0.929 . S
H1148 C1162 0.930 . S
H1149 C1164 0.960 . S
H1150 C1164 0.960 . S
H1151 C1164 0.960 . S
C1152 H1144 0.929 . S
C1152 C1153 1.377 . S
C1152 C1154 1.384 . S
C1153 C1152 1.377 . S
C1153 C1159 1.390 . S
C1154 H1145 0.930 . S
C1154 C1152 1.384 . S
C1154 C1155 1.372 . S
C1155 C1154 1.372 . S
C1155 C1156 1.400 . S
C1155 C1160 1.490 . S
C1156 H1146 0.930 . S
C1156 C1155 1.400 . S
C1156 C1159 1.386 . S
H1157 C1173 0.930 . S
H1158 C1174 0.931 . S
C1159 H1147 0.929 . S
C1159 C1153 1.390 . S
C1159 C1156 1.386 . S
C1160 C1155 1.490 . S
C1160 C1162 1.395 . S
C1160 C1163 1.403 . S
H1161 C1167 0.930 . S
C1162 H1148 0.930 . S
C1162 C1160 1.395 . S
C1162 C1165 1.403 . S
C1163 C1160 1.403 . S
C1163 C1164 1.524 . S
C1163 C1167 1.400 . S
C1164 H1149 0.960 . S
C1164 H1150 0.960 . S
C1164 H1151 0.960 . S
C1164 C1163 1.524 . S
C1165 C1162 1.403 . S
C1165 C1166 1.392 . S
C1165 C1169 1.495 . S
C1166 C1165 1.392 . S
C1166 C1167 1.385 . S
C1166 C1168 1.478 . S
C1167 H1161 0.930 . S
C1167 C1163 1.400 . S
C1167 C1166 1.385 . S
C1168 C1166 1.478 . S
C1168 C1170 1.381 . S
C1168 C1174 1.383 . S
C1169 C1165 1.495 . S
C1169 H1175 0.959 . S
C1169 H1176 0.961 . S
C1169 H1177 0.960 . S
C1170 C1168 1.381 . S
C1170 C1171 1.394 . S
C1170 H1178 0.930 . S
C1171 C1170 1.394 . S
C1171 C1172 1.383 . S
C1171 H1179 0.929 . S
C1172 C1171 1.383 . S
C1172 C1173 1.377 . S
C1173 H1157 0.930 . S
C1173 C1172 1.377 . S
C1173 C1174 1.379 . S
C1174 H1158 0.931 . S
C1174 C1168 1.383 . S
C1174 C1173 1.379 . S
H1175 C1169 0.959 . S
H1176 C1169 0.961 . S
H1177 C1169 0.960 . S
H1178 C1170 0.930 . S
H1179 C1171 0.929 . S
H1180 C1188 0.929 . S
H1181 C1190 0.930 . S
H1182 C1192 0.930 . S
H1183 C1195 0.929 . S
H1184 C1198 0.930 . S
H1185 C1200 0.960 . S
H1186 C1200 0.960 . S
H1187 C1200 0.960 . S
C1188 H1180 0.929 . S
C1188 C1189 1.377 . S
C1188 C1190 1.384 . S
C1189 C1188 1.377 . S
C1189 C1195 1.390 . S
C1190 H1181 0.930 . S
C1190 C1188 1.384 . S
C1190 C1191 1.372 . S
C1191 C1190 1.372 . S
C1191 C1192 1.400 . S
C1191 C1196 1.490 . S
C1192 H1182 0.930 . S
C1192 C1191 1.400 . S
C1192 C1195 1.386 . S
H1193 C1209 0.930 . S
H1194 C1210 0.931 . S
C1195 H1183 0.929 . S
C1195 C1189 1.390 . S
C1195 C1192 1.386 . S
C1196 C1191 1.490 . S
C1196 C1198 1.395 . S
C1196 C1199 1.403 . S
H1197 C1203 0.930 . S
C1198 H1184 0.930 . S
C1198 C1196 1.395 . S
C1198 C1201 1.403 . S
C1199 C1196 1.403 . S
C1199 C1200 1.524 . S
C1199 C1203 1.400 . S
C1200 H1185 0.960 . S
C1200 H1186 0.960 . S
C1200 H1187 0.960 . S
C1200 C1199 1.524 . S
C1201 C1198 1.403 . S
C1201 C1202 1.392 . S
C1201 C1205 1.495 . S
C1202 C1201 1.392 . S
C1202 C1203 1.385 . S
C1202 C1204 1.478 . S
C1203 H1197 0.930 . S
C1203 C1199 1.400 . S
C1203 C1202 1.385 . S
C1204 C1202 1.478 . S
C1204 C1206 1.381 . S
C1204 C1210 1.383 . S
C1205 C1201 1.495 . S
C1205 H1211 0.959 . S
C1205 H1212 0.961 . S
C1205 H1213 0.960 . S
C1206 C1204 1.381 . S
C1206 C1207 1.394 . S
C1206 H1214 0.930 . S
C1207 C1206 1.394 . S
C1207 C1208 1.383 . S
C1207 H1215 0.929 . S
C1208 C1207 1.383 . S
C1208 C1209 1.377 . S
C1209 H1193 0.930 . S
C1209 C1208 1.377 . S
C1209 C1210 1.379 . S
C1210 H1194 0.931 . S
C1210 C1204 1.383 . S
C1210 C1209 1.379 . S
H1211 C1205 0.959 . S
H1212 C1205 0.961 . S
H1213 C1205 0.960 . S
H1214 C1206 0.930 . S
H1215 C1207 0.929 . S
H1216 C1224 0.929 . S
H1217 C1226 0.930 . S
H1218 C1228 0.930 . S
H1219 C1231 0.929 . S
H1220 C1234 0.930 . S
H1221 C1236 0.960 . S
H1222 C1236 0.960 . S
H1223 C1236 0.960 . S
C1224 H1216 0.929 . S
C1224 C1225 1.377 . S
C1224 C1226 1.384 . S
C1225 C1224 1.377 . S
C1225 C1231 1.390 . S
C1226 H1217 0.930 . S
C1226 C1224 1.384 . S
C1226 C1227 1.372 . S
C1227 C1226 1.372 . S
C1227 C1228 1.400 . S
C1227 C1232 1.490 . S
C1228 H1218 0.930 . S
C1228 C1227 1.400 . S
C1228 C1231 1.386 . S
H1229 C1245 0.930 . S
H1230 C1246 0.931 . S
C1231 H1219 0.929 . S
C1231 C1225 1.390 . S
C1231 C1228 1.386 . S
C1232 C1227 1.490 . S
C1232 C1234 1.395 . S
C1232 C1235 1.403 . S
H1233 C1239 0.930 . S
C1234 H1220 0.930 . S
C1234 C1232 1.395 . S
C1234 C1237 1.403 . S
C1235 C1232 1.403 . S
C1235 C1236 1.524 . S
C1235 C1239 1.400 . S
C1236 H1221 0.960 . S
C1236 H1222 0.960 . S
C1236 H1223 0.960 . S
C1236 C1235 1.524 . S
C1237 C1234 1.403 . S
C1237 C1238 1.392 . S
C1237 C1241 1.495 . S
C1238 C1237 1.392 . S
C1238 C1239 1.385 . S
C1238 C1240 1.478 . S
C1239 H1233 0.930 . S
C1239 C1235 1.400 . S
C1239 C1238 1.385 . S
C1240 C1238 1.478 . S
C1240 C1242 1.381 . S
C1240 C1246 1.383 . S
C1241 C1237 1.495 . S
C1241 H1247 0.959 . S
C1241 H1248 0.961 . S
C1241 H1249 0.960 . S
C1242 C1240 1.381 . S
C1242 C1243 1.394 . S
C1242 H1250 0.930 . S
C1243 C1242 1.394 . S
C1243 C1244 1.383 . S
C1243 H1251 0.929 . S
C1244 C1243 1.383 . S
C1244 C1245 1.377 . S
C1245 H1229 0.930 . S
C1245 C1244 1.377 . S
C1245 C1246 1.379 . S
C1246 H1230 0.931 . S
C1246 C1240 1.383 . S
C1246 C1245 1.379 . S
H1247 C1241 0.959 . S
H1248 C1241 0.961 . S
H1249 C1241 0.960 . S
H1250 C1242 0.930 . S
H1251 C1243 0.929 . S
H1252 C1260 0.929 . S
H1253 C1262 0.930 . S
H1254 C1264 0.930 . S
H1255 C1267 0.929 . S
H1256 C1270 0.930 . S
H1257 C1272 0.965 . S
H1258 C1272 0.960 . S
H1259 C1272 0.960 . S
C1260 H1252 0.929 . S
C1260 C1261 1.377 . S
C1260 C1262 1.384 . S
C1261 C1260 1.377 . S
C1261 C1267 1.390 . S
C1262 H1253 0.930 . S
C1262 C1260 1.384 . S
C1262 C1263 1.372 . S
C1263 C1262 1.372 . S
C1263 C1264 1.400 . S
C1263 C1268 1.490 1_545 S
C1264 H1254 0.930 . S
C1264 C1263 1.400 . S
C1264 C1267 1.386 . S
H1265 C1281 0.930 . S
H1266 C1282 0.931 . S
C1267 H1255 0.929 . S
C1267 C1261 1.390 . S
C1267 C1264 1.386 . S
C1268 C1263 1.490 1_565 S
C1268 C1270 1.395 . S
C1268 C1271 1.403 . S
H1269 C1275 0.930 . S
C1270 H1256 0.930 . S
C1270 C1268 1.395 . S
C1270 C1273 1.403 . S
C1271 C1268 1.403 . S
C1271 C1272 1.524 1_565 S
C1271 C1275 1.400 . S
C1272 H1257 0.965 . S
C1272 H1258 0.960 . S
C1272 H1259 0.960 . S
C1272 C1271 1.524 1_545 S
C1273 C1270 1.403 . S
C1273 C1274 1.392 . S
C1273 C1277 1.495 . S
C1274 C1273 1.392 . S
C1274 C1275 1.385 . S
C1274 C1276 1.478 . S
C1275 H1269 0.930 . S
C1275 C1271 1.400 . S
C1275 C1274 1.385 . S
C1276 C1274 1.478 . S
C1276 C1278 1.381 . S
C1276 C1282 1.383 . S
C1277 C1273 1.495 . S
C1277 H1283 0.959 . S
C1277 H1284 0.961 . S
C1277 H1285 0.960 . S
C1278 C1276 1.381 . S
C1278 C1279 1.394 . S
C1278 H1286 0.930 . S
C1279 C1278 1.394 . S
C1279 C1280 1.383 . S
C1279 H1287 0.929 . S
C1280 C1279 1.383 . S
C1280 C1281 1.377 . S
C1281 H1265 0.930 . S
C1281 C1280 1.377 . S
C1281 C1282 1.379 . S
C1282 H1266 0.931 . S
C1282 C1276 1.383 . S
C1282 C1281 1.379 . S
H1283 C1277 0.959 . S
H1284 C1277 0.961 . S
H1285 C1277 0.960 . S
H1286 C1278 0.930 . S
H1287 C1279 0.929 . S
H1288 C1296 0.929 . S
H1289 C1298 0.930 . S
H1290 C1300 0.930 . S
H1291 C1303 0.914 1_554 S
H1292 C1306 0.930 . S
H1293 C1308 0.960 . S
H1294 C1308 0.960 . S
H1295 C1308 0.960 . S
C1296 H1288 0.929 . S
C1296 C1297 1.377 . S
C1296 C1298 1.384 . S
C1297 C1296 1.377 . S
C1297 C1303 1.396 . S
C1298 H1289 0.930 . S
C1298 C1296 1.384 . S
C1298 C1299 1.372 . S
C1299 C1298 1.372 . S
C1299 C1300 1.400 . S
C1299 C1304 1.490 . S
C1300 H1290 0.930 . S
C1300 C1299 1.400 . S
C1300 C1303 1.395 . S
H1301 C1317 0.930 . S
H1302 C1318 0.931 . S
C1303 H1291 0.914 1_556 S
C1303 C1297 1.396 . S
C1303 C1300 1.395 . S
C1304 C1299 1.490 . S
C1304 C1306 1.395 . S
C1304 C1307 1.403 . S
H1305 C1311 0.930 . S
C1306 H1292 0.930 . S
C1306 C1304 1.395 . S
C1306 C1309 1.403 . S
C1307 C1304 1.403 . S
C1307 C1308 1.524 . S
C1307 C1311 1.400 . S
C1308 H1293 0.960 . S
C1308 H1294 0.960 . S
C1308 H1295 0.960 . S
C1308 C1307 1.524 . S
C1309 C1306 1.403 . S
C1309 C1310 1.392 . S
C1309 C1313 1.495 . S
C1310 C1309 1.392 . S
C1310 C1311 1.385 . S
C1310 C1312 1.478 . S
C1311 H1305 0.930 . S
C1311 C1307 1.400 . S
C1311 C1310 1.385 . S
C1312 C1310 1.478 . S
C1312 C1314 1.381 . S
C1312 C1318 1.383 . S
C1313 C1309 1.495 . S
C1313 H1319 0.959 . S
C1313 H1320 0.961 . S
C1313 H1321 0.960 . S
C1314 C1312 1.381 . S
C1314 C1315 1.394 . S
C1314 H1322 0.930 . S
C1315 C1314 1.394 . S
C1315 C1316 1.383 . S
C1315 H1323 0.929 . S
C1316 C1315 1.383 . S
C1316 C1317 1.377 . S
C1317 H1301 0.930 . S
C1317 C1316 1.377 . S
C1317 C1318 1.379 . S
C1318 H1302 0.931 . S
C1318 C1312 1.383 . S
C1318 C1317 1.379 . S
H1319 C1313 0.959 . S
H1320 C1313 0.961 . S
H1321 C1313 0.960 . S
H1322 C1314 0.930 . S
H1323 C1315 0.929 . S
H1324 C1332 0.929 . S
H1325 C1334 0.930 . S
H1326 C1336 0.930 . S
H1327 C1339 0.929 . S
H1328 C1342 0.930 1_565 S
H1329 C1344 0.960 . S
H1330 C1344 0.960 . S
H1331 C1344 0.960 . S
C1332 H1324 0.929 . S
C1332 C1333 1.377 . S
C1332 C1334 1.384 . S
C1333 C1332 1.377 . S
C1333 C1339 1.390 . S
C1334 H1325 0.930 . S
C1334 C1332 1.384 . S
C1334 C1335 1.372 . S
C1335 C1334 1.372 . S
C1335 C1336 1.400 . S
C1335 C1340 1.490 1_565 S
C1336 H1326 0.930 . S
C1336 C1335 1.400 . S
C1336 C1339 1.386 . S
H1337 C1353 0.930 . S
H1338 C1354 0.931 . S
C1339 H1327 0.929 . S
C1339 C1333 1.390 . S
C1339 C1336 1.386 . S
C1340 C1335 1.490 1_545 S
C1340 C1342 1.395 . S
C1340 C1343 1.403 . S
H1341 C1347 0.930 . S
C1342 H1328 0.930 1_545 S
C1342 C1340 1.395 . S
C1342 C1345 1.403 . S
C1343 C1340 1.403 . S
C1343 C1344 1.524 . S
C1343 C1347 1.400 . S
C1344 H1329 0.960 . S
C1344 H1330 0.960 . S
C1344 H1331 0.960 . S
C1344 C1343 1.524 . S
C1345 C1342 1.403 . S
C1345 C1346 1.392 . S
C1345 C1349 1.495 . S
C1346 C1345 1.392 . S
C1346 C1347 1.385 . S
C1346 C1348 1.478 . S
C1347 H1341 0.930 . S
C1347 C1343 1.400 . S
C1347 C1346 1.385 . S
C1348 C1346 1.478 . S
C1348 C1350 1.381 . S
C1348 C1354 1.383 . S
C1349 C1345 1.495 . S
C1349 H1355 0.959 . S
C1349 H1356 0.961 . S
C1349 H1357 0.960 . S
C1350 C1348 1.381 . S
C1350 C1351 1.394 . S
C1350 H1358 0.930 . S
C1351 C1350 1.394 . S
C1351 C1352 1.383 . S
C1351 H1359 0.929 . S
C1352 C1351 1.383 . S
C1352 C1353 1.377 . S
C1353 H1337 0.930 . S
C1353 C1352 1.377 . S
C1353 C1354 1.379 . S
C1354 H1338 0.931 . S
C1354 C1348 1.383 . S
C1354 C1353 1.379 . S
H1355 C1349 0.959 . S
H1356 C1349 0.961 . S
H1357 C1349 0.960 . S
H1358 C1350 0.930 . S
H1359 C1351 0.929 . S
H1360 C1368 0.929 . S
H1361 C1370 0.930 . S
H1362 C1372 0.930 . S
H1363 C1375 0.929 . S
H1364 C1378 0.930 . S
H1365 C1380 0.960 . S
H1366 C1380 0.960 . S
H1367 C1380 0.960 . S
C1368 H1360 0.929 . S
C1368 C1369 1.377 . S
C1368 C1370 1.384 . S
C1369 C1368 1.377 . S
C1369 C1375 1.390 . S
C1370 H1361 0.930 . S
C1370 C1368 1.384 . S
C1370 C1371 1.372 . S
C1371 C1370 1.372 . S
C1371 C1372 1.400 . S
C1371 C1376 1.490 . S
C1372 H1362 0.930 . S
C1372 C1371 1.400 . S
C1372 C1375 1.386 . S
H1373 C1389 0.930 . S
H1374 C1390 0.931 . S
C1375 H1363 0.929 . S
C1375 C1369 1.390 . S
C1375 C1372 1.386 . S
C1376 C1371 1.490 . S
C1376 C1378 1.395 . S
C1376 C1379 1.403 . S
H1377 C1383 0.930 . S
C1378 H1364 0.930 . S
C1378 C1376 1.395 . S
C1378 C1381 1.403 . S
C1379 C1376 1.403 . S
C1379 C1380 1.524 . S
C1379 C1383 1.400 . S
C1380 H1365 0.960 . S
C1380 H1366 0.960 . S
C1380 H1367 0.960 . S
C1380 C1379 1.524 . S
C1381 C1378 1.403 . S
C1381 C1382 1.392 . S
C1381 C1385 1.495 . S
C1382 C1381 1.392 . S
C1382 C1383 1.385 . S
C1382 C1384 1.478 . S
C1383 H1377 0.930 . S
C1383 C1379 1.400 . S
C1383 C1382 1.385 . S
C1384 C1382 1.478 . S
C1384 C1386 1.381 . S
C1384 C1390 1.383 . S
C1385 C1381 1.495 . S
C1385 H1391 0.959 . S
C1385 H1392 0.961 . S
C1385 H1393 0.960 . S
C1386 C1384 1.381 . S
C1386 C1387 1.394 . S
C1386 H1394 0.930 . S
C1387 C1386 1.394 . S
C1387 C1388 1.383 . S
C1387 H1395 0.929 . S
C1388 C1387 1.383 . S
C1388 C1389 1.377 . S
C1389 H1373 0.930 . S
C1389 C1388 1.377 . S
C1389 C1390 1.379 . S
C1390 H1374 0.931 . S
C1390 C1384 1.383 . S
C1390 C1389 1.379 . S
H1391 C1385 0.959 . S
H1392 C1385 0.961 . S
H1393 C1385 0.960 . S
H1394 C1386 0.930 . S
H1395 C1387 0.929 . S
H1396 C1404 0.929 . S
H1397 C1406 0.930 . S
H1398 C1408 0.930 . S
H1399 C1411 0.929 . S
H1400 C1414 0.930 . S
H1401 C1416 0.960 . S
H1402 C1416 0.960 . S
H1403 C1416 0.960 . S
C1404 H1396 0.929 . S
C1404 C1405 1.377 . S
C1404 C1406 1.384 . S
C1405 C1404 1.377 . S
C1405 C1411 1.390 . S
C1406 H1397 0.930 . S
C1406 C1404 1.384 . S
C1406 C1407 1.372 . S
C1407 C1406 1.372 . S
C1407 C1408 1.400 . S
C1407 C1412 1.490 . S
C1408 H1398 0.930 . S
C1408 C1407 1.400 . S
C1408 C1411 1.386 . S
H1409 C1425 0.930 . S
H1410 C1426 0.931 . S
C1411 H1399 0.929 . S
C1411 C1405 1.390 . S
C1411 C1408 1.386 . S
C1412 C1407 1.490 . S
C1412 C1414 1.395 . S
C1412 C1415 1.403 . S
H1413 C1419 0.930 . S
C1414 H1400 0.930 . S
C1414 C1412 1.395 . S
C1414 C1417 1.403 . S
C1415 C1412 1.403 . S
C1415 C1416 1.524 . S
C1415 C1419 1.400 . S
C1416 H1401 0.960 . S
C1416 H1402 0.960 . S
C1416 H1403 0.960 . S
C1416 C1415 1.524 . S
C1417 C1414 1.403 . S
C1417 C1418 1.392 . S
C1417 C1421 1.495 1_545 S
C1418 C1417 1.392 . S
C1418 C1419 1.385 . S
C1418 C1420 1.478 1_545 S
C1419 H1413 0.930 . S
C1419 C1415 1.400 . S
C1419 C1418 1.385 . S
C1420 C1418 1.478 1_565 S
C1420 C1422 1.381 . S
C1420 C1426 1.383 . S
C1421 C1417 1.495 1_565 S
C1421 H1427 0.939 1_565 S
C1421 H1428 0.961 . S
C1421 H1429 0.960 . S
C1422 C1420 1.381 . S
C1422 C1423 1.394 . S
C1422 H1430 0.930 . S
C1423 C1422 1.394 . S
C1423 C1424 1.383 . S
C1423 H1431 0.929 . S
C1424 C1423 1.383 . S
C1424 C1425 1.377 . S
C1425 H1409 0.930 . S
C1425 C1424 1.377 . S
C1425 C1426 1.379 . S
C1426 H1410 0.931 . S
C1426 C1420 1.383 . S
C1426 C1425 1.379 . S
H1427 C1421 0.939 1_545 S
H1428 C1421 0.961 . S
H1429 C1421 0.960 . S
H1430 C1422 0.930 . S
H1431 C1423 0.929 . S
H1432 C1440 0.929 . S
H1433 C1442 0.930 . S
H1434 C1444 0.930 . S
H1435 C1447 0.929 . S
H1436 C1450 0.930 . S
H1437 C1452 0.960 . S
H1438 C1452 0.960 . S
H1439 C1452 0.960 . S
C1440 H1432 0.929 . S
C1440 C1441 1.377 . S
C1440 C1442 1.384 . S
C1441 C1440 1.377 . S
C1441 C1447 1.390 . S
C1442 H1433 0.930 . S
C1442 C1440 1.384 . S
C1442 C1443 1.372 . S
C1443 C1442 1.372 . S
C1443 C1444 1.400 . S
C1443 C1448 1.490 . S
C1444 H1434 0.930 . S
C1444 C1443 1.400 . S
C1444 C1447 1.386 . S
H1445 C1461 0.930 . S
H1446 C1462 0.931 . S
C1447 H1435 0.929 . S
C1447 C1441 1.390 . S
C1447 C1444 1.386 . S
C1448 C1443 1.490 . S
C1448 C1450 1.395 . S
C1448 C1451 1.403 . S
H1449 C1455 0.930 . S
C1450 H1436 0.930 . S
C1450 C1448 1.395 . S
C1450 C1453 1.403 . S
C1451 C1448 1.403 . S
C1451 C1452 1.524 . S
C1451 C1455 1.400 . S
C1452 H1437 0.960 . S
C1452 H1438 0.960 . S
C1452 H1439 0.960 . S
C1452 C1451 1.524 . S
C1453 C1450 1.403 . S
C1453 C1454 1.392 . S
C1453 C1457 1.495 . S
C1454 C1453 1.392 . S
C1454 C1455 1.385 . S
C1454 C1456 1.478 . S
C1455 H1449 0.930 . S
C1455 C1451 1.400 . S
C1455 C1454 1.385 . S
C1456 C1454 1.478 . S
C1456 C1458 1.381 . S
C1456 C1462 1.383 . S
C1457 C1453 1.495 . S
C1457 H1463 0.959 . S
C1457 H1464 0.961 . S
C1457 H1465 0.960 . S
C1458 C1456 1.381 . S
C1458 C1459 1.394 . S
C1458 H1466 0.930 . S
C1459 C1458 1.394 . S
C1459 C1460 1.383 . S
C1459 H1467 0.929 . S
C1460 C1459 1.383 . S
C1460 C1461 1.377 . S
C1461 H1445 0.930 . S
C1461 C1460 1.377 . S
C1461 C1462 1.379 . S
C1462 H1446 0.931 . S
C1462 C1456 1.383 . S
C1462 C1461 1.379 . S
H1463 C1457 0.959 . S
H1464 C1457 0.961 . S
H1465 C1457 0.960 . S
H1466 C1458 0.930 . S
H1467 C1459 0.929 . S
H1468 C1476 0.929 . S
H1469 C1478 0.930 . S
H1470 C1480 0.930 . S
H1471 C1483 0.929 . S
H1472 C1486 0.930 1_545 S
H1473 C1488 0.960 . S
H1474 C1488 0.960 . S
H1475 C1488 0.960 . S
C1476 H1468 0.929 . S
C1476 C1477 1.377 . S
C1476 C1478 1.384 . S
C1477 C1476 1.377 . S
C1477 C1483 1.390 . S
C1478 H1469 0.930 . S
C1478 C1476 1.384 . S
C1478 C1479 1.372 . S
C1479 C1478 1.372 . S
C1479 C1480 1.400 . S
C1479 C1484 1.490 1_545 S
C1480 H1470 0.930 . S
C1480 C1479 1.400 . S
C1480 C1483 1.386 . S
H1481 C1497 0.930 . S
H1482 C1498 0.931 . S
C1483 H1471 0.929 . S
C1483 C1477 1.390 . S
C1483 C1480 1.386 . S
C1484 C1479 1.490 1_565 S
C1484 C1486 1.395 . S
C1484 C1487 1.403 . S
H1485 C1491 0.930 . S
C1486 H1472 0.930 1_565 S
C1486 C1484 1.395 . S
C1486 C1489 1.403 . S
C1487 C1484 1.403 . S
C1487 C1488 1.524 . S
C1487 C1491 1.400 . S
C1488 H1473 0.960 . S
C1488 H1474 0.960 . S
C1488 H1475 0.960 . S
C1488 C1487 1.524 . S
C1489 C1486 1.403 . S
C1489 C1490 1.392 . S
C1489 C1493 1.495 . S
C1490 C1489 1.392 . S
C1490 C1491 1.385 . S
C1490 C1492 1.478 . S
C1491 H1485 0.930 . S
C1491 C1487 1.400 . S
C1491 C1490 1.385 . S
C1492 C1490 1.478 . S
C1492 C1494 1.381 . S
C1492 C1498 1.383 . S
C1493 C1489 1.495 . S
C1493 H1499 0.959 . S
C1493 H1500 0.961 . S
C1493 H1501 0.960 . S
C1494 C1492 1.381 . S
C1494 C1495 1.394 . S
C1494 H1502 0.930 . S
C1495 C1494 1.394 . S
C1495 C1496 1.383 . S
C1495 H1503 0.929 . S
C1496 C1495 1.383 . S
C1496 C1497 1.377 . S
C1497 H1481 0.930 . S
C1497 C1496 1.377 . S
C1497 C1498 1.379 . S
C1498 H1482 0.931 . S
C1498 C1492 1.383 . S
C1498 C1497 1.379 . S
H1499 C1493 0.959 . S
H1500 C1493 0.961 . S
H1501 C1493 0.960 . S
H1502 C1494 0.930 . S
H1503 C1495 0.929 . S
H1504 C1512 0.929 . S
H1505 C1514 0.930 . S
H1506 C1516 0.930 . S
H1507 C1519 0.929 . S
H1508 C1522 0.930 . S
H1509 C1524 0.960 . S
H1510 C1524 0.960 . S
H1511 C1524 0.960 . S
C1512 H1504 0.929 . S
C1512 C1513 1.377 . S
C1512 C1514 1.384 . S
C1513 C1512 1.377 . S
C1513 C1519 1.390 . S
C1514 H1505 0.930 . S
C1514 C1512 1.384 . S
C1514 C1515 1.372 . S
C1515 C1514 1.372 . S
C1515 C1516 1.400 . S
C1515 C1520 1.490 . S
C1516 H1506 0.930 . S
C1516 C1515 1.400 . S
C1516 C1519 1.386 . S
H1517 C1533 0.930 . S
H1518 C1534 0.931 . S
C1519 H1507 0.929 . S
C1519 C1513 1.390 . S
C1519 C1516 1.386 . S
C1520 C1515 1.490 . S
C1520 C1522 1.395 . S
C1520 C1523 1.403 . S
H1521 C1527 0.930 . S
C1522 H1508 0.930 . S
C1522 C1520 1.395 . S
C1522 C1525 1.403 . S
C1523 C1520 1.403 . S
C1523 C1524 1.524 . S
C1523 C1527 1.400 . S
C1524 H1509 0.960 . S
C1524 H1510 0.960 . S
C1524 H1511 0.960 . S
C1524 C1523 1.524 . S
C1525 C1522 1.403 . S
C1525 C1526 1.392 . S
C1525 C1529 1.495 . S
C1526 C1525 1.392 . S
C1526 C1527 1.385 . S
C1526 C1528 1.478 . S
C1527 H1521 0.930 . S
C1527 C1523 1.400 . S
C1527 C1526 1.385 . S
C1528 C1526 1.478 . S
C1528 C1530 1.381 . S
C1528 C1534 1.383 . S
C1529 C1525 1.495 . S
C1529 H1535 0.959 . S
C1529 H1536 0.961 . S
C1529 H1537 0.960 . S
C1530 C1528 1.381 . S
C1530 C1531 1.394 . S
C1530 H1538 0.930 . S
C1531 C1530 1.394 . S
C1531 C1532 1.383 . S
C1531 H1539 0.929 . S
C1532 C1531 1.383 . S
C1532 C1533 1.377 . S
C1533 H1517 0.930 . S
C1533 C1532 1.377 . S
C1533 C1534 1.379 . S
C1534 H1518 0.931 . S
C1534 C1528 1.383 . S
C1534 C1533 1.379 . S
H1535 C1529 0.959 . S
H1536 C1529 0.961 . S
H1537 C1529 0.960 . S
H1538 C1530 0.930 . S
H1539 C1531 0.929 . S
H1540 C1548 0.929 . S
H1541 C1550 0.930 . S
H1542 C1552 0.930 . S
H1543 C1555 0.929 . S
H1544 C1558 0.930 . S
H1545 C1560 0.960 . S
H1546 C1560 0.960 . S
H1547 C1560 0.960 . S
C1548 H1540 0.929 . S
C1548 C1549 1.377 . S
C1548 C1550 1.384 . S
C1549 C1548 1.377 . S
C1549 C1555 1.390 . S
C1550 H1541 0.930 . S
C1550 C1548 1.384 . S
C1550 C1551 1.372 . S
C1551 C1550 1.372 . S
C1551 C1552 1.400 . S
C1551 C1556 1.490 . S
C1552 H1542 0.930 . S
C1552 C1551 1.400 . S
C1552 C1555 1.386 . S
H1553 C1569 0.930 . S
H1554 C1570 0.931 . S
C1555 H1543 0.929 . S
C1555 C1549 1.390 . S
C1555 C1552 1.386 . S
C1556 C1551 1.490 . S
C1556 C1558 1.395 . S
C1556 C1559 1.403 . S
H1557 C1563 0.930 . S
C1558 H1544 0.930 . S
C1558 C1556 1.395 . S
C1558 C1561 1.403 . S
C1559 C1556 1.403 . S
C1559 C1560 1.524 . S
C1559 C1563 1.400 . S
C1560 H1545 0.960 . S
C1560 H1546 0.960 . S
C1560 H1547 0.960 . S
C1560 C1559 1.524 . S
C1561 C1558 1.403 . S
C1561 C1562 1.392 . S
C1561 C1565 1.495 . S
C1562 C1561 1.392 . S
C1562 C1563 1.385 . S
C1562 C1564 1.478 . S
C1563 H1557 0.930 . S
C1563 C1559 1.400 . S
C1563 C1562 1.385 . S
C1564 C1562 1.478 . S
C1564 C1566 1.381 . S
C1564 C1570 1.383 . S
C1565 C1561 1.495 . S
C1565 H1571 0.959 . S
C1565 H1572 0.961 . S
C1565 H1573 0.960 . S
C1566 C1564 1.381 . S
C1566 C1567 1.394 . S
C1566 H1574 0.930 . S
C1567 C1566 1.394 . S
C1567 C1568 1.383 1_554 S
C1567 H1575 0.929 . S
C1568 C1567 1.383 1_556 S
C1568 C1569 1.377 . S
C1569 H1553 0.930 . S
C1569 C1568 1.377 . S
C1569 C1570 1.379 1_556 S
C1570 H1554 0.931 . S
C1570 C1564 1.383 . S
C1570 C1569 1.379 1_554 S
H1571 C1565 0.959 . S
H1572 C1565 0.961 . S
H1573 C1565 0.960 . S
H1574 C1566 0.930 . S
H1575 C1567 0.929 . S
H1576 C1584 0.929 . S
H1577 C1586 0.930 . S
H1578 C1588 0.930 . S
H1579 C1591 0.929 . S
H1580 C1594 0.930 . S
H1581 C1596 0.960 . S
H1582 C1596 0.960 . S
H1583 C1596 0.960 . S
C1584 H1576 0.929 . S
C1584 C1585 1.377 . S
C1584 C1586 1.384 . S
C1585 C1584 1.377 . S
C1585 C1591 1.390 . S
C1586 H1577 0.930 . S
C1586 C1584 1.384 . S
C1586 C1587 1.372 . S
C1587 C1586 1.372 . S
C1587 C1588 1.400 . S
C1587 C1592 1.490 . S
C1588 H1578 0.930 . S
C1588 C1587 1.400 . S
C1588 C1591 1.386 . S
H1589 C1605 0.930 . S
H1590 C1606 0.931 . S
C1591 H1579 0.929 . S
C1591 C1585 1.390 . S
C1591 C1588 1.386 . S
C1592 C1587 1.490 . S
C1592 C1594 1.395 . S
C1592 C1595 1.403 . S
H1593 C1599 0.930 . S
C1594 H1580 0.930 . S
C1594 C1592 1.395 . S
C1594 C1597 1.403 . S
C1595 C1592 1.403 . S
C1595 C1596 1.524 . S
C1595 C1599 1.400 . S
C1596 H1581 0.960 . S
C1596 H1582 0.960 . S
C1596 H1583 0.960 . S
C1596 C1595 1.524 . S
C1597 C1594 1.403 . S
C1597 C1598 1.392 . S
C1597 C1601 1.495 . S
C1598 C1597 1.392 . S
C1598 C1599 1.385 . S
C1598 C1600 1.478 1_655 S
C1599 H1593 0.930 . S
C1599 C1595 1.400 . S
C1599 C1598 1.385 . S
C1600 C1598 1.478 1_455 S
C1600 C1602 1.381 . S
C1600 C1606 1.383 . S
C1601 C1597 1.495 . S
C1601 H1607 0.959 . S
C1601 H1608 0.961 1_655 S
C1601 H1609 0.960 . S
C1602 C1600 1.381 . S
C1602 C1603 1.394 . S
C1602 H1610 0.930 1_455 S
C1603 C1602 1.394 . S
C1603 C1604 1.383 . S
C1603 H1611 0.929 . S
C1604 C1603 1.383 . S
C1604 C1605 1.377 . S
C1605 H1589 0.930 . S
C1605 C1604 1.377 . S
C1605 C1606 1.379 . S
C1606 H1590 0.931 . S
C1606 C1600 1.383 . S
C1606 C1605 1.379 . S
H1607 C1601 0.959 . S
H1608 C1601 0.961 1_455 S
H1609 C1601 0.960 . S
H1610 C1602 0.930 1_655 S
H1611 C1603 0.929 . S
H1612 C1620 0.929 . S
H1613 C1622 0.930 . S
H1614 C1624 0.930 . S
H1615 C1627 0.929 . S
H1616 C1630 0.930 . S
H1617 C1632 0.960 . S
H1618 C1632 0.960 . S
H1619 C1632 0.960 . S
C1620 H1612 0.929 . S
C1620 C1621 1.377 . S
C1620 C1622 1.384 . S
C1621 C1620 1.377 . S
C1621 C1627 1.390 . S
C1622 H1613 0.930 . S
C1622 C1620 1.384 . S
C1622 C1623 1.372 . S
C1623 C1622 1.372 . S
C1623 C1624 1.400 . S
C1623 C1628 1.490 . S
C1624 H1614 0.930 . S
C1624 C1623 1.400 . S
C1624 C1627 1.386 . S
H1625 C1641 0.930 . S
H1626 C1642 0.931 . S
C1627 H1615 0.929 . S
C1627 C1621 1.390 . S
C1627 C1624 1.386 . S
C1628 C1623 1.490 . S
C1628 C1630 1.395 . S
C1628 C1631 1.403 . S
H1629 C1635 0.930 . S
C1630 H1616 0.930 . S
C1630 C1628 1.395 . S
C1630 C1633 1.403 . S
C1631 C1628 1.403 . S
C1631 C1632 1.524 . S
C1631 C1635 1.400 . S
C1632 H1617 0.960 . S
C1632 H1618 0.960 . S
C1632 H1619 0.960 . S
C1632 C1631 1.524 . S
C1633 C1630 1.403 . S
C1633 C1634 1.392 . S
C1633 C1637 1.495 . S
C1634 C1633 1.392 . S
C1634 C1635 1.385 . S
C1634 C1636 1.478 . S
C1635 H1629 0.930 . S
C1635 C1631 1.400 . S
C1635 C1634 1.385 . S
C1636 C1634 1.478 . S
C1636 C1638 1.381 . S
C1636 C1642 1.383 . S
C1637 C1633 1.495 . S
C1637 H1643 0.959 . S
C1637 H1644 0.961 . S
C1637 H1645 0.960 . S
C1638 C1636 1.381 . S
C1638 C1639 1.394 . S
C1638 H1646 0.930 . S
C1639 C1638 1.394 . S
C1639 C1640 1.383 . S
C1639 H1647 0.929 . S
C1640 C1639 1.383 . S
C1640 C1641 1.377 . S
C1641 H1625 0.930 . S
C1641 C1640 1.377 . S
C1641 C1642 1.379 . S
C1642 H1626 0.931 . S
C1642 C1636 1.383 . S
C1642 C1641 1.379 . S
H1643 C1637 0.959 . S
H1644 C1637 0.961 . S
H1645 C1637 0.960 . S
H1646 C1638 0.930 . S
H1647 C1639 0.929 . S
H1648 C1656 0.929 . S
H1649 C1658 0.930 . S
H1650 C1660 0.930 . S
H1651 C1663 0.929 . S
H1652 C1666 0.930 . S
H1653 C1668 0.960 . S
H1654 C1668 0.960 . S
H1655 C1668 0.960 . S
C1656 H1648 0.929 . S
C1656 C1657 1.377 . S
C1656 C1658 1.384 . S
C1657 C1656 1.377 . S
C1657 C1663 1.390 . S
C1658 H1649 0.930 . S
C1658 C1656 1.384 . S
C1658 C1659 1.372 . S
C1659 C1658 1.372 . S
C1659 C1660 1.400 . S
C1659 C1664 1.490 . S
C1660 H1650 0.930 . S
C1660 C1659 1.400 . S
C1660 C1663 1.386 . S
H1661 C1677 0.930 . S
H1662 C1678 0.931 . S
C1663 H1651 0.929 . S
C1663 C1657 1.390 . S
C1663 C1660 1.386 . S
C1664 C1659 1.490 . S
C1664 C1666 1.395 . S
C1664 C1667 1.403 . S
H1665 C1671 0.930 . S
C1666 H1652 0.930 . S
C1666 C1664 1.395 . S
C1666 C1669 1.403 . S
C1667 C1664 1.403 . S
C1667 C1668 1.524 . S
C1667 C1671 1.400 . S
C1668 H1653 0.960 . S
C1668 H1654 0.960 . S
C1668 H1655 0.960 . S
C1668 C1667 1.524 . S
C1669 C1666 1.403 . S
C1669 C1670 1.392 . S
C1669 C1673 1.495 . S
C1670 C1669 1.392 . S
C1670 C1671 1.385 . S
C1670 C1672 1.478 . S
C1671 H1665 0.930 . S
C1671 C1667 1.400 . S
C1671 C1670 1.385 . S
C1672 C1670 1.478 . S
C1672 C1674 1.381 . S
C1672 C1678 1.383 . S
C1673 C1669 1.495 . S
C1673 H1679 0.959 . S
C1673 H1680 0.961 . S
C1673 H1681 0.960 . S
C1674 C1672 1.381 . S
C1674 C1675 1.394 . S
C1674 H1682 0.930 . S
C1675 C1674 1.394 . S
C1675 C1676 1.383 . S
C1675 H1683 0.929 . S
C1676 C1675 1.383 . S
C1676 C1677 1.377 . S
C1677 H1661 0.930 . S
C1677 C1676 1.377 . S
C1677 C1678 1.379 . S
C1678 H1662 0.931 . S
C1678 C1672 1.383 . S
C1678 C1677 1.379 . S
H1679 C1673 0.959 . S
H1680 C1673 0.961 . S
H1681 C1673 0.960 . S
H1682 C1674 0.930 . S
H1683 C1675 0.929 . S
H1684 C1692 0.929 . S
H1685 C1694 0.930 . S
H1686 C1696 0.930 . S
H1687 C1699 0.929 . S
H1688 C1702 0.930 . S
H1689 C1704 0.960 . S
H1690 C1704 0.960 . S
H1691 C1704 0.960 . S
C1692 H1684 0.929 . S
C1692 C1693 1.377 . S
C1692 C1694 1.384 . S
C1693 C1692 1.377 . S
C1693 C1699 1.390 . S
C1694 H1685 0.930 . S
C1694 C1692 1.384 . S
C1694 C1695 1.372 . S
C1695 C1694 1.372 . S
C1695 C1696 1.400 . S
C1695 C1700 1.490 . S
C1696 H1686 0.930 . S
C1696 C1695 1.400 . S
C1696 C1699 1.386 . S
H1697 C1713 0.936 . S
H1698 C1714 0.931 . S
C1699 H1687 0.929 . S
C1699 C1693 1.390 . S
C1699 C1696 1.386 . S
C1700 C1695 1.490 . S
C1700 C1702 1.395 . S
C1700 C1703 1.403 . S
H1701 C1707 0.930 . S
C1702 H1688 0.930 . S
C1702 C1700 1.395 . S
C1702 C1705 1.403 . S
C1703 C1700 1.403 . S
C1703 C1704 1.524 . S
C1703 C1707 1.400 . S
C1704 H1689 0.960 . S
C1704 H1690 0.960 . S
C1704 H1691 0.960 . S
C1704 C1703 1.524 . S
C1705 C1702 1.403 . S
C1705 C1706 1.392 . S
C1705 C1709 1.495 . S
C1706 C1705 1.392 . S
C1706 C1707 1.385 . S
C1706 C1708 1.478 . S
C1707 H1701 0.930 . S
C1707 C1703 1.400 . S
C1707 C1706 1.385 . S
C1708 C1706 1.478 . S
C1708 C1710 1.381 . S
C1708 C1714 1.383 . S
C1709 C1705 1.495 . S
C1709 H1715 0.959 . S
C1709 H1716 0.961 . S
C1709 H1717 0.960 . S
C1710 C1708 1.381 . S
C1710 C1711 1.368 1_556 S
C1710 H1718 0.930 . S
C1711 C1710 1.368 1_554 S
C1711 C1712 1.397 . S
C1711 H1719 0.943 . S
C1712 C1711 1.397 . S
C1712 C1713 1.384 . S
C1713 H1697 0.936 . S
C1713 C1712 1.384 . S
C1713 C1714 1.366 1_554 S
C1714 H1698 0.931 . S
C1714 C1708 1.383 . S
C1714 C1713 1.366 1_556 S
H1715 C1709 0.959 . S
H1716 C1709 0.961 . S
H1717 C1709 0.960 . S
H1718 C1710 0.930 . S
H1719 C1711 0.943 . S
H1720 C1728 0.929 . S
H1721 C1730 0.930 . S
H1722 C1732 0.930 . S
H1723 C1735 0.929 . S
H1724 C1738 0.930 . S
H1725 C1740 0.960 . S
H1726 C1740 0.960 . S
H1727 C1740 0.960 . S
C1728 H1720 0.929 . S
C1728 C1729 1.377 . S
C1728 C1730 1.384 . S
C1729 C1728 1.377 . S
C1729 C1735 1.390 . S
C1730 H1721 0.930 . S
C1730 C1728 1.384 . S
C1730 C1731 1.372 . S
C1731 C1730 1.372 . S
C1731 C1732 1.400 . S
C1731 C1736 1.490 . S
C1732 H1722 0.930 . S
C1732 C1731 1.400 . S
C1732 C1735 1.386 . S
H1733 C1749 0.930 . S
H1734 C1750 0.931 . S
C1735 H1723 0.929 . S
C1735 C1729 1.390 . S
C1735 C1732 1.386 . S
C1736 C1731 1.490 . S
C1736 C1738 1.395 . S
C1736 C1739 1.403 . S
H1737 C1743 0.930 . S
C1738 H1724 0.930 . S
C1738 C1736 1.395 . S
C1738 C1741 1.403 1_455 S
C1739 C1736 1.403 . S
C1739 C1740 1.524 . S
C1739 C1743 1.400 . S
C1740 H1725 0.960 . S
C1740 H1726 0.960 . S
C1740 H1727 0.960 . S
C1740 C1739 1.524 . S
C1741 C1738 1.403 1_655 S
C1741 C1742 1.392 1_655 S
C1741 C1745 1.495 . S
C1742 C1741 1.392 1_455 S
C1742 C1743 1.385 . S
C1742 C1744 1.478 1_455 S
C1743 H1737 0.930 . S
C1743 C1739 1.400 . S
C1743 C1742 1.385 . S
C1744 C1742 1.478 1_655 S
C1744 C1746 1.381 . S
C1744 C1750 1.383 . S
C1745 C1741 1.495 . S
C1745 H1751 0.959 . S
C1745 H1752 0.961 . S
C1745 H1753 0.960 . S
C1746 C1744 1.381 . S
C1746 C1747 1.394 . S
C1746 H1754 0.930 . S
C1747 C1746 1.394 . S
C1747 C1748 1.383 . S
C1747 H1755 0.929 . S
C1748 C1747 1.383 . S
C1748 C1749 1.377 . S
C1749 H1733 0.930 . S
C1749 C1748 1.377 . S
C1749 C1750 1.379 . S
C1750 H1734 0.931 . S
C1750 C1744 1.383 . S
C1750 C1749 1.379 . S
H1751 C1745 0.959 . S
H1752 C1745 0.961 . S
H1753 C1745 0.960 . S
H1754 C1746 0.930 . S
H1755 C1747 0.929 . S
H1756 C1764 0.929 . S
H1757 C1766 0.930 . S
H1758 C1768 0.930 . S
H1759 C1771 0.929 . S
H1760 C1774 0.930 . S
H1761 C1776 0.960 . S
H1762 C1776 0.960 . S
H1763 C1776 0.960 . S
C1764 H1756 0.929 . S
C1764 C1765 1.377 . S
C1764 C1766 1.384 . S
C1765 C1764 1.377 . S
C1765 C1771 1.390 . S
C1766 H1757 0.930 . S
C1766 C1764 1.384 . S
C1766 C1767 1.372 . S
C1767 C1766 1.372 . S
C1767 C1768 1.400 . S
C1767 C1772 1.490 . S
C1768 H1758 0.930 . S
C1768 C1767 1.400 . S
C1768 C1771 1.386 . S
H1769 C1785 0.930 . S
H1770 C1786 0.931 . S
C1771 H1759 0.929 . S
C1771 C1765 1.390 . S
C1771 C1768 1.386 . S
C1772 C1767 1.490 . S
C1772 C1774 1.395 . S
C1772 C1775 1.403 . S
H1773 C1779 0.930 . S
C1774 H1760 0.930 . S
C1774 C1772 1.395 . S
C1774 C1777 1.403 . S
C1775 C1772 1.403 . S
C1775 C1776 1.524 . S
C1775 C1779 1.400 . S
C1776 H1761 0.960 . S
C1776 H1762 0.960 . S
C1776 H1763 0.960 . S
C1776 C1775 1.524 . S
C1777 C1774 1.403 . S
C1777 C1778 1.392 . S
C1777 C1781 1.495 . S
C1778 C1777 1.392 . S
C1778 C1779 1.385 . S
C1778 C1780 1.478 . S
C1779 H1773 0.930 . S
C1779 C1775 1.400 . S
C1779 C1778 1.385 . S
C1780 C1778 1.478 . S
C1780 C1782 1.381 . S
C1780 C1786 1.383 . S
C1781 C1777 1.495 . S
C1781 H1787 0.959 . S
C1781 H1788 0.961 . S
C1781 H1789 0.960 . S
C1782 C1780 1.381 . S
C1782 C1783 1.394 . S
C1782 H1790 0.930 . S
C1783 C1782 1.394 . S
C1783 C1784 1.383 . S
C1783 H1791 0.929 . S
C1784 C1783 1.383 . S
C1784 C1785 1.377 . S
C1785 H1769 0.930 . S
C1785 C1784 1.377 . S
C1785 C1786 1.379 . S
C1786 H1770 0.931 . S
C1786 C1780 1.383 . S
C1786 C1785 1.379 . S
H1787 C1781 0.959 . S
H1788 C1781 0.961 . S
H1789 C1781 0.960 . S
H1790 C1782 0.930 . S
H1791 C1783 0.929 . S
H1792 C1800 0.929 . S
H1793 C1802 0.930 . S
H1794 C1804 0.930 1_455 S
H1795 C1807 0.929 . S
H1796 C1810 0.930 . S
H1797 C1812 0.960 . S
H1798 C1812 0.960 . S
H1799 C1812 0.960 . S
C1800 H1792 0.929 . S
C1800 C1801 1.377 . S
C1800 C1802 1.384 . S
C1801 C1800 1.377 . S
C1801 C1807 1.390 . S
C1802 H1793 0.930 . S
C1802 C1800 1.384 . S
C1802 C1803 1.372 . S
C1803 C1802 1.372 . S
C1803 C1804 1.400 . S
C1803 C1808 1.490 1_655 S
C1804 H1794 0.930 1_655 S
C1804 C1803 1.400 . S
C1804 C1807 1.386 . S
H1805 C1821 0.930 . S
H1806 C1822 0.931 . S
C1807 H1795 0.929 . S
C1807 C1801 1.390 . S
C1807 C1804 1.386 . S
C1808 C1803 1.490 1_455 S
C1808 C1810 1.395 1_455 S
C1808 C1811 1.403 . S
H1809 C1815 0.930 . S
C1810 H1796 0.930 . S
C1810 C1808 1.395 1_655 S
C1810 C1813 1.403 1_655 S
C1811 C1808 1.403 . S
C1811 C1812 1.524 . S
C1811 C1815 1.400 . S
C1812 H1797 0.960 . S
C1812 H1798 0.960 . S
C1812 H1799 0.960 . S
C1812 C1811 1.524 . S
C1813 C1810 1.403 1_455 S
C1813 C1814 1.392 . S
C1813 C1817 1.495 . S
C1814 C1813 1.392 . S
C1814 C1815 1.385 . S
C1814 C1816 1.478 . S
C1815 H1809 0.930 . S
C1815 C1811 1.400 . S
C1815 C1814 1.385 . S
C1816 C1814 1.478 . S
C1816 C1818 1.381 . S
C1816 C1822 1.383 . S
C1817 C1813 1.495 . S
C1817 H1823 0.959 1_455 S
C1817 H1824 0.961 . S
C1817 H1825 0.960 . S
C1818 C1816 1.381 . S
C1818 C1819 1.394 . S
C1818 H1826 0.930 . S
C1819 C1818 1.394 . S
C1819 C1820 1.383 . S
C1819 H1827 0.929 . S
C1820 C1819 1.383 . S
C1820 C1821 1.377 . S
C1821 H1805 0.930 . S
C1821 C1820 1.377 . S
C1821 C1822 1.379 . S
C1822 H1806 0.931 . S
C1822 C1816 1.383 . S
C1822 C1821 1.379 . S
H1823 C1817 0.959 1_655 S
H1824 C1817 0.961 . S
H1825 C1817 0.960 . S
H1826 C1818 0.930 . S
H1827 C1819 0.929 . S
H1828 C1836 0.929 . S
H1829 C1838 0.930 . S
H1830 C1840 0.930 . S
H1831 C1843 0.929 . S
H1832 C1846 0.930 . S
H1833 C1848 0.960 . S
H1834 C1848 0.960 . S
H1835 C1848 0.960 . S
C1836 H1828 0.929 . S
C1836 C1837 1.377 . S
C1836 C1838 1.384 . S
C1837 C1836 1.377 . S
C1837 C1843 1.390 . S
C1838 H1829 0.930 . S
C1838 C1836 1.384 . S
C1838 C1839 1.372 . S
C1839 C1838 1.372 . S
C1839 C1840 1.400 . S
C1839 C1844 1.490 . S
C1840 H1830 0.930 . S
C1840 C1839 1.400 . S
C1840 C1843 1.386 . S
H1841 C1857 0.930 . S
H1842 C1858 0.931 . S
C1843 H1831 0.929 . S
C1843 C1837 1.390 . S
C1843 C1840 1.386 . S
C1844 C1839 1.490 . S
C1844 C1846 1.395 . S
C1844 C1847 1.403 . S
H1845 C1851 0.930 . S
C1846 H1832 0.930 . S
C1846 C1844 1.395 . S
C1846 C1849 1.403 . S
C1847 C1844 1.403 . S
C1847 C1848 1.524 . S
C1847 C1851 1.400 . S
C1848 H1833 0.960 . S
C1848 H1834 0.960 . S
C1848 H1835 0.960 . S
C1848 C1847 1.524 . S
C1849 C1846 1.403 . S
C1849 C1850 1.392 . S
C1849 C1853 1.495 . S
C1850 C1849 1.392 . S
C1850 C1851 1.385 . S
C1850 C1852 1.478 . S
C1851 H1845 0.930 . S
C1851 C1847 1.400 . S
C1851 C1850 1.385 . S
C1852 C1850 1.478 . S
C1852 C1854 1.381 . S
C1852 C1858 1.383 . S
C1853 C1849 1.495 . S
C1853 H1859 0.959 . S
C1853 H1860 0.961 . S
C1853 H1861 0.960 . S
C1854 C1852 1.381 . S
C1854 C1855 1.394 . S
C1854 H1862 0.930 . S
C1855 C1854 1.394 . S
C1855 C1856 1.383 . S
C1855 H1863 0.929 . S
C1856 C1855 1.383 . S
C1856 C1857 1.377 . S
C1857 H1841 0.930 . S
C1857 C1856 1.377 . S
C1857 C1858 1.379 . S
C1858 H1842 0.931 . S
C1858 C1852 1.383 . S
C1858 C1857 1.379 . S
H1859 C1853 0.959 . S
H1860 C1853 0.961 . S
H1861 C1853 0.960 . S
H1862 C1854 0.930 . S
H1863 C1855 0.929 . S
H1864 C1872 0.929 . S
H1865 C1874 0.930 . S
H1866 C1876 0.930 . S
H1867 C1879 0.929 . S
H1868 C1882 0.930 . S
H1869 C1884 0.960 . S
H1870 C1884 0.960 . S
H1871 C1884 0.960 . S
C1872 H1864 0.929 . S
C1872 C1873 1.377 . S
C1872 C1874 1.384 . S
C1873 C1872 1.377 . S
C1873 C1879 1.390 . S
C1874 H1865 0.930 . S
C1874 C1872 1.384 . S
C1874 C1875 1.372 . S
C1875 C1874 1.372 . S
C1875 C1876 1.400 . S
C1875 C1880 1.490 . S
C1876 H1866 0.930 . S
C1876 C1875 1.400 . S
C1876 C1879 1.386 . S
H1877 C1893 0.930 . S
H1878 C1894 0.931 . S
C1879 H1867 0.929 . S
C1879 C1873 1.390 . S
C1879 C1876 1.386 . S
C1880 C1875 1.490 . S
C1880 C1882 1.395 . S
C1880 C1883 1.403 . S
H1881 C1887 0.930 . S
C1882 H1868 0.930 . S
C1882 C1880 1.395 . S
C1882 C1885 1.403 . S
C1883 C1880 1.403 . S
C1883 C1884 1.524 . S
C1883 C1887 1.400 . S
C1884 H1869 0.960 . S
C1884 H1870 0.960 . S
C1884 H1871 0.960 . S
C1884 C1883 1.524 . S
C1885 C1882 1.403 . S
C1885 C1886 1.392 . S
C1885 C1889 1.495 . S
C1886 C1885 1.392 . S
C1886 C1887 1.385 . S
C1886 C1888 1.478 . S
C1887 H1881 0.930 . S
C1887 C1883 1.400 . S
C1887 C1886 1.385 . S
C1888 C1886 1.478 . S
C1888 C1890 1.381 . S
C1888 C1894 1.383 . S
C1889 C1885 1.495 . S
C1889 H1895 0.959 . S
C1889 H1896 0.961 . S
C1889 H1897 0.960 . S
C1890 C1888 1.381 . S
C1890 C1891 1.394 . S
C1890 H1898 0.930 . S
C1891 C1890 1.394 . S
C1891 C1892 1.383 . S
C1891 H1899 0.929 . S
C1892 C1891 1.383 . S
C1892 C1893 1.377 . S
C1893 H1877 0.930 . S
C1893 C1892 1.377 . S
C1893 C1894 1.379 . S
C1894 H1878 0.931 . S
C1894 C1888 1.383 . S
C1894 C1893 1.379 . S
H1895 C1889 0.959 . S
H1896 C1889 0.961 . S
H1897 C1889 0.960 . S
H1898 C1890 0.930 . S
H1899 C1891 0.929 . S
H1900 C1908 0.929 . S
H1901 C1910 0.930 . S
H1902 C1912 0.930 . S
H1903 C1915 0.929 1_556 S
H1904 C1918 0.930 . S
H1905 C1920 0.960 . S
H1906 C1920 0.960 . S
H1907 C1920 0.960 . S
C1908 H1900 0.929 . S
C1908 C1909 1.377 . S
C1908 C1910 1.384 1_556 S
C1909 C1908 1.377 . S
C1909 C1915 1.390 1_556 S
C1910 H1901 0.930 . S
C1910 C1908 1.384 1_554 S
C1910 C1911 1.372 . S
C1911 C1910 1.372 . S
C1911 C1912 1.400 . S
C1911 C1916 1.490 . S
C1912 H1902 0.930 . S
C1912 C1911 1.400 . S
C1912 C1915 1.386 . S
H1913 C1929 0.930 . S
H1914 C1930 0.931 . S
C1915 H1903 0.929 1_554 S
C1915 C1909 1.390 1_554 S
C1915 C1912 1.386 . S
C1916 C1911 1.490 . S
C1916 C1918 1.395 . S
C1916 C1919 1.403 . S
H1917 C1923 0.930 . S
C1918 H1904 0.930 . S
C1918 C1916 1.395 . S
C1918 C1921 1.403 . S
C1919 C1916 1.403 . S
C1919 C1920 1.524 . S
C1919 C1923 1.400 . S
C1920 H1905 0.960 . S
C1920 H1906 0.960 . S
C1920 H1907 0.960 . S
C1920 C1919 1.524 . S
C1921 C1918 1.403 . S
C1921 C1922 1.392 . S
C1921 C1925 1.495 . S
C1922 C1921 1.392 . S
C1922 C1923 1.385 . S
C1922 C1924 1.478 . S
C1923 H1917 0.930 . S
C1923 C1919 1.400 . S
C1923 C1922 1.385 . S
C1924 C1922 1.478 . S
C1924 C1926 1.381 . S
C1924 C1930 1.383 . S
C1925 C1921 1.495 . S
C1925 H1931 0.959 . S
C1925 H1932 0.961 . S
C1925 H1933 0.960 . S
C1926 C1924 1.381 . S
C1926 C1927 1.394 . S
C1926 H1934 0.930 . S
C1927 C1926 1.394 . S
C1927 C1928 1.383 . S
C1927 H1935 0.929 . S
C1928 C1927 1.383 . S
C1928 C1929 1.377 . S
C1929 H1913 0.930 . S
C1929 C1928 1.377 . S
C1929 C1930 1.379 . S
C1930 H1914 0.931 . S
C1930 C1924 1.383 . S
C1930 C1929 1.379 . S
H1931 C1925 0.959 . S
H1932 C1925 0.961 . S
H1933 C1925 0.960 . S
H1934 C1926 0.930 . S
H1935 C1927 0.929 . S
H1936 C1944 0.929 . S
H1937 C1946 0.930 . S
H1938 C1948 0.930 . S
H1939 C1951 0.929 . S
H1940 C1954 0.930 . S
H1941 C1956 0.960 . S
H1942 C1956 0.960 . S
H1943 C1956 0.960 . S
C1944 H1936 0.929 . S
C1944 C1945 1.377 . S
C1944 C1946 1.384 . S
C1945 C1944 1.377 . S
C1945 C1951 1.390 . S
C1946 H1937 0.930 . S
C1946 C1944 1.384 . S
C1946 C1947 1.372 . S
C1947 C1946 1.372 . S
C1947 C1948 1.400 . S
C1947 C1952 1.490 1_455 S
C1948 H1938 0.930 . S
C1948 C1947 1.400 . S
C1948 C1951 1.386 . S
H1949 C1965 0.930 . S
H1950 C1966 0.931 . S
C1951 H1939 0.929 . S
C1951 C1945 1.390 . S
C1951 C1948 1.386 . S
C1952 C1947 1.490 1_655 S
C1952 C1954 1.395 . S
C1952 C1955 1.403 . S
H1953 C1959 0.930 . S
C1954 H1940 0.930 . S
C1954 C1952 1.395 . S
C1954 C1957 1.403 . S
C1955 C1952 1.403 . S
C1955 C1956 1.524 1_655 S
C1955 C1959 1.400 . S
C1956 H1941 0.960 . S
C1956 H1942 0.960 . S
C1956 H1943 0.960 . S
C1956 C1955 1.524 1_455 S
C1957 C1954 1.403 . S
C1957 C1958 1.392 . S
C1957 C1961 1.495 . S
C1958 C1957 1.392 . S
C1958 C1959 1.385 . S
C1958 C1960 1.478 . S
C1959 H1953 0.930 . S
C1959 C1955 1.400 . S
C1959 C1958 1.385 . S
C1960 C1958 1.478 . S
C1960 C1962 1.381 . S
C1960 C1966 1.383 . S
C1961 C1957 1.495 . S
C1961 H1967 0.959 . S
C1961 H1968 0.961 . S
C1961 H1969 0.960 . S
C1962 C1960 1.381 . S
C1962 C1963 1.394 . S
C1962 H1970 0.930 . S
C1963 C1962 1.394 . S
C1963 C1964 1.383 . S
C1963 H1971 0.929 . S
C1964 C1963 1.383 . S
C1964 C1965 1.377 . S
C1965 H1949 0.930 . S
C1965 C1964 1.377 . S
C1965 C1966 1.379 . S
C1966 H1950 0.931 . S
C1966 C1960 1.383 . S
C1966 C1965 1.379 . S
H1967 C1961 0.959 . S
H1968 C1961 0.961 . S
H1969 C1961 0.960 . S
H1970 C1962 0.930 . S
H1971 C1963 0.929 . S
H1972 C1980 0.929 . S
H1973 C1982 0.930 . S
H1974 C1984 0.930 . S
H1975 C1987 0.929 . S
H1976 C1990 0.930 . S
H1977 C1992 0.960 . S
H1978 C1992 0.960 . S
H1979 C1992 0.960 . S
C1980 H1972 0.929 . S
C1980 C1981 1.377 . S
C1980 C1982 1.384 . S
C1981 C1980 1.377 . S
C1981 C1987 1.390 . S
C1982 H1973 0.930 . S
C1982 C1980 1.384 . S
C1982 C1983 1.372 . S
C1983 C1982 1.372 . S
C1983 C1984 1.400 . S
C1983 C1988 1.490 . S
C1984 H1974 0.930 . S
C1984 C1983 1.400 . S
C1984 C1987 1.386 . S
H1985 C2001 0.930 . S
H1986 C2002 0.931 . S
C1987 H1975 0.929 . S
C1987 C1981 1.390 . S
C1987 C1984 1.386 . S
C1988 C1983 1.490 . S
C1988 C1990 1.395 . S
C1988 C1991 1.403 . S
H1989 C1995 0.930 . S
C1990 H1976 0.930 . S
C1990 C1988 1.395 . S
C1990 C1993 1.403 . S
C1991 C1988 1.403 . S
C1991 C1992 1.524 . S
C1991 C1995 1.400 . S
C1992 H1977 0.960 . S
C1992 H1978 0.960 . S
C1992 H1979 0.960 . S
C1992 C1991 1.524 . S
C1993 C1990 1.403 . S
C1993 C1994 1.392 . S
C1993 C1997 1.495 . S
C1994 C1993 1.392 . S
C1994 C1995 1.385 . S
C1994 C1996 1.478 . S
C1995 H1989 0.930 . S
C1995 C1991 1.400 . S
C1995 C1994 1.385 . S
C1996 C1994 1.478 . S
C1996 C1998 1.381 . S
C1996 C2002 1.383 . S
C1997 C1993 1.495 . S
C1997 H2003 0.959 . S
C1997 H2004 0.961 . S
C1997 H2005 0.960 . S
C1998 C1996 1.381 . S
C1998 C1999 1.394 . S
C1998 H2006 0.930 . S
C1999 C1998 1.394 . S
C1999 C2000 1.383 . S
C1999 H2007 0.929 . S
C2000 C1999 1.383 . S
C2000 C2001 1.377 . S
C2001 H1985 0.930 . S
C2001 C2000 1.377 . S
C2001 C2002 1.379 . S
C2002 H1986 0.931 . S
C2002 C1996 1.383 . S
C2002 C2001 1.379 . S
H2003 C1997 0.959 . S
H2004 C1997 0.961 . S
H2005 C1997 0.960 . S
H2006 C1998 0.930 . S
H2007 C1999 0.929 . S
H2008 C2016 0.929 . S
H2009 C2018 0.930 . S
H2010 C2020 0.930 . S
H2011 C2023 0.929 . S
H2012 C2026 0.930 . S
H2013 C2028 0.960 . S
H2014 C2028 0.960 . S
H2015 C2028 0.960 . S
C2016 H2008 0.929 . S
C2016 C2017 1.377 . S
C2016 C2018 1.384 . S
C2017 C2016 1.377 . S
C2017 C2023 1.390 . S
C2018 H2009 0.930 . S
C2018 C2016 1.384 . S
C2018 C2019 1.372 . S
C2019 C2018 1.372 . S
C2019 C2020 1.400 . S
C2019 C2024 1.490 . S
C2020 H2010 0.930 . S
C2020 C2019 1.400 . S
C2020 C2023 1.386 . S
H2021 C2037 0.930 . S
H2022 C2038 0.931 . S
C2023 H2011 0.929 . S
C2023 C2017 1.390 . S
C2023 C2020 1.386 . S
C2024 C2019 1.490 . S
C2024 C2026 1.395 . S
C2024 C2027 1.403 . S
H2025 C2031 0.930 . S
C2026 H2012 0.930 . S
C2026 C2024 1.395 . S
C2026 C2029 1.403 . S
C2027 C2024 1.403 . S
C2027 C2028 1.524 . S
C2027 C2031 1.400 . S
C2028 H2013 0.960 . S
C2028 H2014 0.960 . S
C2028 H2015 0.960 . S
C2028 C2027 1.524 . S
C2029 C2026 1.403 . S
C2029 C2030 1.392 . S
C2029 C2033 1.495 . S
C2030 C2029 1.392 . S
C2030 C2031 1.385 . S
C2030 C2032 1.478 . S
C2031 H2025 0.930 . S
C2031 C2027 1.400 . S
C2031 C2030 1.385 . S
C2032 C2030 1.478 . S
C2032 C2034 1.381 . S
C2032 C2038 1.383 . S
C2033 C2029 1.495 . S
C2033 H2039 0.959 . S
C2033 H2040 0.961 . S
C2033 H2041 0.960 . S
C2034 C2032 1.381 . S
C2034 C2035 1.394 . S
C2034 H2042 0.930 . S
C2035 C2034 1.394 . S
C2035 C2036 1.383 . S
C2035 H2043 0.929 . S
C2036 C2035 1.383 . S
C2036 C2037 1.377 . S
C2037 H2021 0.930 . S
C2037 C2036 1.377 . S
C2037 C2038 1.379 . S
C2038 H2022 0.931 . S
C2038 C2032 1.383 . S
C2038 C2037 1.379 . S
H2039 C2033 0.959 . S
H2040 C2033 0.961 . S
H2041 C2033 0.960 . S
H2042 C2034 0.930 . S
H2043 C2035 0.929 . S
H2044 C2052 0.929 . S
H2045 C2054 0.930 . S
H2046 C2056 0.930 . S
H2047 C2059 0.929 . S
H2048 C2062 0.930 . S
H2049 C2064 0.960 . S
H2050 C2064 0.960 . S
H2051 C2064 0.960 . S
C2052 H2044 0.929 . S
C2052 C2053 1.377 . S
C2052 C2054 1.384 1_554 S
C2053 C2052 1.377 . S
C2053 C2059 1.390 1_554 S
C2054 H2045 0.930 . S
C2054 C2052 1.384 1_556 S
C2054 C2055 1.372 . S
C2055 C2054 1.372 . S
C2055 C2056 1.400 . S
C2055 C2060 1.490 . S
C2056 H2046 0.930 . S
C2056 C2055 1.400 . S
C2056 C2059 1.386 . S
H2057 C2073 0.930 . S
H2058 C2074 0.931 . S
C2059 H2047 0.929 . S
C2059 C2053 1.390 1_556 S
C2059 C2056 1.386 . S
C2060 C2055 1.490 . S
C2060 C2062 1.395 . S
C2060 C2063 1.403 . S
H2061 C2067 0.930 . S
C2062 H2048 0.930 . S
C2062 C2060 1.395 . S
C2062 C2065 1.403 . S
C2063 C2060 1.403 . S
C2063 C2064 1.524 . S
C2063 C2067 1.400 . S
C2064 H2049 0.960 . S
C2064 H2050 0.960 . S
C2064 H2051 0.960 . S
C2064 C2063 1.524 . S
C2065 C2062 1.403 . S
C2065 C2066 1.392 . S
C2065 C2069 1.495 . S
C2066 C2065 1.392 . S
C2066 C2067 1.385 . S
C2066 C2068 1.478 . S
C2067 H2061 0.930 . S
C2067 C2063 1.400 . S
C2067 C2066 1.385 . S
C2068 C2066 1.478 . S
C2068 C2070 1.381 . S
C2068 C2074 1.383 . S
C2069 C2065 1.495 . S
C2069 H2075 0.959 . S
C2069 H2076 0.961 . S
C2069 H2077 0.960 . S
C2070 C2068 1.381 . S
C2070 C2071 1.394 . S
C2070 H2078 0.930 . S
C2071 C2070 1.394 . S
C2071 C2072 1.383 . S
C2071 H2079 0.929 . S
C2072 C2071 1.383 . S
C2072 C2073 1.377 . S
C2073 H2057 0.930 . S
C2073 C2072 1.377 . S
C2073 C2074 1.379 . S
C2074 H2058 0.931 . S
C2074 C2068 1.383 . S
C2074 C2073 1.379 . S
H2075 C2069 0.959 . S
H2076 C2069 0.961 . S
H2077 C2069 0.960 . S
H2078 C2070 0.930 . S
H2079 C2071 0.929 . S
H2080 C2088 0.929 . S
H2081 C2090 0.930 . S
H2082 C2092 0.930 . S
H2083 C2095 0.929 . S
H2084 C2098 0.930 . S
H2085 C2100 0.960 . S
H2086 C2100 0.960 . S
H2087 C2100 0.960 . S
C2088 H2080 0.929 . S
C2088 C2089 1.377 . S
C2088 C2090 1.384 . S
C2089 C2088 1.377 . S
C2089 C2095 1.390 . S
C2090 H2081 0.930 . S
C2090 C2088 1.384 . S
C2090 C2091 1.372 . S
C2091 C2090 1.372 . S
C2091 C2092 1.400 . S
C2091 C2096 1.490 . S
C2092 H2082 0.930 . S
C2092 C2091 1.400 . S
C2092 C2095 1.386 . S
H2093 C2109 0.930 . S
H2094 C2110 0.931 . S
C2095 H2083 0.929 . S
C2095 C2089 1.390 . S
C2095 C2092 1.386 . S
C2096 C2091 1.490 . S
C2096 C2098 1.395 . S
C2096 C2099 1.403 . S
H2097 C2103 0.930 . S
C2098 H2084 0.930 . S
C2098 C2096 1.395 . S
C2098 C2101 1.403 . S
C2099 C2096 1.403 . S
C2099 C2100 1.524 . S
C2099 C2103 1.400 . S
C2100 H2085 0.960 . S
C2100 H2086 0.960 . S
C2100 H2087 0.960 . S
C2100 C2099 1.524 . S
C2101 C2098 1.403 . S
C2101 C2102 1.392 . S
C2101 C2105 1.495 . S
C2102 C2101 1.392 . S
C2102 C2103 1.385 . S
C2102 C2104 1.478 . S
C2103 H2097 0.930 . S
C2103 C2099 1.400 . S
C2103 C2102 1.385 . S
C2104 C2102 1.478 . S
C2104 C2106 1.381 . S
C2104 C2110 1.383 . S
C2105 C2101 1.495 . S
C2105 H2111 0.959 . S
C2105 H2112 0.961 . S
C2105 H2113 0.960 . S
C2106 C2104 1.381 . S
C2106 C2107 1.394 . S
C2106 H2114 0.930 . S
C2107 C2106 1.394 . S
C2107 C2108 1.383 . S
C2107 H2115 0.929 . S
C2108 C2107 1.383 . S
C2108 C2109 1.377 . S
C2109 H2093 0.930 . S
C2109 C2108 1.377 . S
C2109 C2110 1.379 . S
C2110 H2094 0.931 . S
C2110 C2104 1.383 . S
C2110 C2109 1.379 . S
H2111 C2105 0.959 . S
H2112 C2105 0.961 . S
H2113 C2105 0.960 . S
H2114 C2106 0.930 . S
H2115 C2107 0.929 . S
H2116 C2124 0.929 . S
H2117 C2126 0.930 . S
H2118 C2128 0.930 . S
H2119 C2131 0.929 . S
H2120 C2134 0.930 . S
H2121 C2136 0.960 . S
H2122 C2136 0.960 . S
H2123 C2136 0.960 . S
C2124 H2116 0.929 . S
C2124 C2125 1.377 . S
C2124 C2126 1.384 . S
C2125 C2124 1.377 . S
C2125 C2131 1.390 . S
C2126 H2117 0.930 . S
C2126 C2124 1.384 . S
C2126 C2127 1.372 . S
C2127 C2126 1.372 . S
C2127 C2128 1.400 . S
C2127 C2132 1.490 . S
C2128 H2118 0.930 . S
C2128 C2127 1.400 . S
C2128 C2131 1.386 . S
H2129 C2145 0.930 . S
H2130 C2146 0.931 . S
C2131 H2119 0.929 . S
C2131 C2125 1.390 . S
C2131 C2128 1.386 . S
C2132 C2127 1.490 . S
C2132 C2134 1.395 . S
C2132 C2135 1.403 . S
H2133 C2139 0.930 . S
C2134 H2120 0.930 . S
C2134 C2132 1.395 . S
C2134 C2137 1.403 . S
C2135 C2132 1.403 . S
C2135 C2136 1.524 . S
C2135 C2139 1.400 . S
C2136 H2121 0.960 . S
C2136 H2122 0.960 . S
C2136 H2123 0.960 . S
C2136 C2135 1.524 . S
C2137 C2134 1.403 . S
C2137 C2138 1.392 . S
C2137 C2141 1.495 . S
C2138 C2137 1.392 . S
C2138 C2139 1.385 . S
C2138 C2140 1.478 . S
C2139 H2133 0.930 . S
C2139 C2135 1.400 . S
C2139 C2138 1.385 . S
C2140 C2138 1.478 . S
C2140 C2142 1.381 . S
C2140 C2146 1.383 . S
C2141 C2137 1.495 . S
C2141 H2147 0.959 . S
C2141 H2148 0.961 . S
C2141 H2149 0.960 . S
C2142 C2140 1.381 . S
C2142 C2143 1.394 . S
C2142 H2150 0.930 . S
C2143 C2142 1.394 . S
C2143 C2144 1.383 . S
C2143 H2151 0.929 . S
C2144 C2143 1.383 . S
C2144 C2145 1.377 . S
C2145 H2129 0.930 . S
C2145 C2144 1.377 . S
C2145 C2146 1.379 . S
C2146 H2130 0.931 . S
C2146 C2140 1.383 . S
C2146 C2145 1.379 . S
H2147 C2141 0.959 . S
H2148 C2141 0.961 . S
H2149 C2141 0.960 . S
H2150 C2142 0.930 . S
H2151 C2143 0.929 . S
H2152 C2160 0.929 . S
H2153 C2162 0.930 . S
H2154 C2164 0.930 . S
H2155 C2167 0.929 . S
H2156 C2170 0.930 . S
H2157 C2172 0.960 . S
H2158 C2172 0.960 . S
H2159 C2172 0.960 . S
C2160 H2152 0.929 . S
C2160 C2161 1.377 . S
C2160 C2162 1.384 . S
C2161 C2160 1.377 . S
C2161 C2167 1.390 . S
C2162 H2153 0.930 . S
C2162 C2160 1.384 . S
C2162 C2163 1.372 . S
C2163 C2162 1.372 . S
C2163 C2164 1.400 . S
C2163 C2168 1.490 . S
C2164 H2154 0.930 . S
C2164 C2163 1.400 . S
C2164 C2167 1.386 . S
H2165 C2181 0.930 . S
H2166 C2182 0.931 . S
C2167 H2155 0.929 . S
C2167 C2161 1.390 . S
C2167 C2164 1.386 . S
C2168 C2163 1.490 . S
C2168 C2170 1.395 . S
C2168 C2171 1.403 . S
H2169 C2175 0.930 . S
C2170 H2156 0.930 . S
C2170 C2168 1.395 . S
C2170 C2173 1.403 . S
C2171 C2168 1.403 . S
C2171 C2172 1.524 . S
C2171 C2175 1.400 . S
C2172 H2157 0.960 . S
C2172 H2158 0.960 . S
C2172 H2159 0.960 . S
C2172 C2171 1.524 . S
C2173 C2170 1.403 . S
C2173 C2174 1.392 . S
C2173 C2177 1.495 . S
C2174 C2173 1.392 . S
C2174 C2175 1.385 . S
C2174 C2176 1.478 . S
C2175 H2169 0.930 . S
C2175 C2171 1.400 . S
C2175 C2174 1.385 . S
C2176 C2174 1.478 . S
C2176 C2178 1.381 . S
C2176 C2182 1.383 . S
C2177 C2173 1.495 . S
C2177 H2183 0.959 . S
C2177 H2184 0.961 . S
C2177 H2185 0.960 . S
C2178 C2176 1.381 . S
C2178 C2179 1.394 . S
C2178 H2186 0.930 . S
C2179 C2178 1.394 . S
C2179 C2180 1.383 . S
C2179 H2187 0.929 . S
C2180 C2179 1.383 . S
C2180 C2181 1.377 . S
C2181 H2165 0.930 . S
C2181 C2180 1.377 . S
C2181 C2182 1.379 . S
C2182 H2166 0.931 . S
C2182 C2176 1.383 . S
C2182 C2181 1.379 . S
H2183 C2177 0.959 . S
H2184 C2177 0.961 . S
H2185 C2177 0.960 . S
H2186 C2178 0.930 . S
H2187 C2179 0.929 . S
H2188 C2196 0.929 . S
H2189 C2198 0.930 . S
H2190 C2200 0.930 . S
H2191 C2203 0.929 . S
H2192 C2206 0.935 . S
H2193 C2208 0.960 . S
H2194 C2208 0.960 . S
H2195 C2208 0.960 . S
C2196 H2188 0.929 . S
C2196 C2197 1.377 . S
C2196 C2198 1.384 . S
C2197 C2196 1.377 . S
C2197 C2203 1.390 . S
C2198 H2189 0.930 . S
C2198 C2196 1.384 . S
C2198 C2199 1.372 . S
C2199 C2198 1.372 . S
C2199 C2200 1.400 . S
C2199 C2204 1.490 . S
C2200 H2190 0.930 . S
C2200 C2199 1.400 . S
C2200 C2203 1.386 . S
H2201 C2217 0.930 . S
H2202 C2218 0.931 . S
C2203 H2191 0.929 . S
C2203 C2197 1.390 . S
C2203 C2200 1.386 . S
C2204 C2199 1.490 . S
C2204 C2206 1.417 . S
C2204 C2207 1.403 . S
H2205 C2211 0.930 . S
C2206 H2192 0.935 . S
C2206 C2204 1.417 . S
C2206 C2209 1.378 1_454 S
C2207 C2204 1.403 . S
C2207 C2208 1.524 . S
C2207 C2211 1.400 1_454 S
C2208 H2193 0.960 . S
C2208 H2194 0.960 . S
C2208 H2195 0.960 . S
C2208 C2207 1.524 . S
C2209 C2206 1.378 1_656 S
C2209 C2210 1.392 . S
C2209 C2213 1.495 . S
C2210 C2209 1.392 . S
C2210 C2211 1.385 . S
C2210 C2212 1.478 . S
C2211 H2205 0.930 . S
C2211 C2207 1.400 1_656 S
C2211 C2210 1.385 . S
C2212 C2210 1.478 . S
C2212 C2214 1.381 . S
C2212 C2218 1.383 . S
C2213 C2209 1.495 . S
C2213 H2219 0.959 . S
C2213 H2220 0.961 . S
C2213 H2221 0.960 . S
C2214 C2212 1.381 . S
C2214 C2215 1.394 . S
C2214 H2222 0.930 . S
C2215 C2214 1.394 . S
C2215 C2216 1.383 . S
C2215 H2223 0.929 . S
C2216 C2215 1.383 . S
C2216 C2217 1.377 . S
C2217 H2201 0.930 . S
C2217 C2216 1.377 . S
C2217 C2218 1.379 . S
C2218 H2202 0.931 . S
C2218 C2212 1.383 . S
C2218 C2217 1.379 . S
H2219 C2213 0.959 . S
H2220 C2213 0.961 . S
H2221 C2213 0.960 . S
H2222 C2214 0.930 . S
H2223 C2215 0.929 . S
H2224 C2232 0.929 . S
H2225 C2234 0.930 . S
H2226 C2236 0.930 . S
H2227 C2239 0.929 . S
H2228 C2242 0.930 . S
H2229 C2244 0.960 . S
H2230 C2244 0.960 . S
H2231 C2244 0.960 . S
C2232 H2224 0.929 . S
C2232 C2233 1.377 . S
C2232 C2234 1.384 . S
C2233 C2232 1.377 . S
C2233 C2239 1.390 . S
C2234 H2225 0.930 . S
C2234 C2232 1.384 . S
C2234 C2235 1.372 . S
C2235 C2234 1.372 . S
C2235 C2236 1.400 . S
C2235 C2240 1.490 . S
C2236 H2226 0.930 . S
C2236 C2235 1.400 . S
C2236 C2239 1.386 . S
H2237 C2253 0.930 . S
H2238 C2254 0.931 . S
C2239 H2227 0.929 . S
C2239 C2233 1.390 . S
C2239 C2236 1.386 . S
C2240 C2235 1.490 . S
C2240 C2242 1.395 . S
C2240 C2243 1.403 . S
H2241 C2247 0.930 . S
C2242 H2228 0.930 . S
C2242 C2240 1.395 . S
C2242 C2245 1.403 . S
C2243 C2240 1.403 . S
C2243 C2244 1.524 . S
C2243 C2247 1.400 . S
C2244 H2229 0.960 . S
C2244 H2230 0.960 . S
C2244 H2231 0.960 . S
C2244 C2243 1.524 . S
C2245 C2242 1.403 . S
C2245 C2246 1.392 . S
C2245 C2249 1.495 . S
C2246 C2245 1.392 . S
C2246 C2247 1.385 . S
C2246 C2248 1.478 . S
C2247 H2241 0.930 . S
C2247 C2243 1.400 . S
C2247 C2246 1.385 . S
C2248 C2246 1.478 . S
C2248 C2250 1.381 . S
C2248 C2254 1.383 . S
C2249 C2245 1.495 . S
C2249 H2255 0.959 . S
C2249 H2256 0.961 . S
C2249 H2257 0.960 . S
C2250 C2248 1.381 . S
C2250 C2251 1.394 . S
C2250 H2258 0.930 . S
C2251 C2250 1.394 . S
C2251 C2252 1.383 . S
C2251 H2259 0.929 . S
C2252 C2251 1.383 . S
C2252 C2253 1.377 . S
C2253 H2237 0.930 . S
C2253 C2252 1.377 . S
C2253 C2254 1.379 . S
C2254 H2238 0.931 . S
C2254 C2248 1.383 . S
C2254 C2253 1.379 . S
H2255 C2249 0.959 . S
H2256 C2249 0.961 . S
H2257 C2249 0.960 . S
H2258 C2250 0.930 . S
H2259 C2251 0.929 . S
H2260 C2268 0.929 . S
H2261 C2270 0.930 . S
H2262 C2272 0.930 . S
H2263 C2275 0.929 . S
H2264 C2278 0.930 . S
H2265 C2280 0.960 . S
H2266 C2280 0.960 . S
H2267 C2280 0.960 . S
C2268 H2260 0.929 . S
C2268 C2269 1.377 . S
C2268 C2270 1.384 . S
C2269 C2268 1.377 . S
C2269 C2275 1.390 . S
C2270 H2261 0.930 . S
C2270 C2268 1.384 . S
C2270 C2271 1.372 . S
C2271 C2270 1.372 . S
C2271 C2272 1.400 . S
C2271 C2276 1.490 . S
C2272 H2262 0.930 . S
C2272 C2271 1.400 . S
C2272 C2275 1.386 . S
H2273 C2289 0.930 . S
H2274 C2290 0.931 . S
C2275 H2263 0.929 . S
C2275 C2269 1.390 . S
C2275 C2272 1.386 . S
C2276 C2271 1.490 . S
C2276 C2278 1.395 . S
C2276 C2279 1.403 . S
H2277 C2283 0.930 . S
C2278 H2264 0.930 . S
C2278 C2276 1.395 . S
C2278 C2281 1.403 . S
C2279 C2276 1.403 . S
C2279 C2280 1.524 . S
C2279 C2283 1.400 . S
C2280 H2265 0.960 . S
C2280 H2266 0.960 . S
C2280 H2267 0.960 . S
C2280 C2279 1.524 . S
C2281 C2278 1.403 . S
C2281 C2282 1.392 . S
C2281 C2285 1.495 . S
C2282 C2281 1.392 . S
C2282 C2283 1.385 . S
C2282 C2284 1.478 . S
C2283 H2277 0.930 . S
C2283 C2279 1.400 . S
C2283 C2282 1.385 . S
C2284 C2282 1.478 . S
C2284 C2286 1.381 . S
C2284 C2290 1.383 . S
C2285 C2281 1.495 . S
C2285 H2291 0.959 . S
C2285 H2292 0.961 . S
C2285 H2293 0.960 . S
C2286 C2284 1.381 . S
C2286 C2287 1.394 . S
C2286 H2294 0.930 . S
C2287 C2286 1.394 . S
C2287 C2288 1.383 . S
C2287 H2295 0.929 . S
C2288 C2287 1.383 . S
C2288 C2289 1.377 . S
C2289 H2273 0.930 . S
C2289 C2288 1.377 . S
C2289 C2290 1.379 . S
C2290 H2274 0.931 . S
C2290 C2284 1.383 . S
C2290 C2289 1.379 . S
H2291 C2285 0.959 . S
H2292 C2285 0.961 . S
H2293 C2285 0.960 . S
H2294 C2286 0.930 . S
H2295 C2287 0.929 . S
H2296 C2304 0.929 . S
H2297 C2306 0.930 . S
H2298 C2308 0.930 1_565 S
H2299 C2311 0.929 . S
H2300 C2314 0.930 . S
H2301 C2316 0.960 . S
H2302 C2316 0.960 . S
H2303 C2316 0.960 . S
C2304 H2296 0.929 . S
C2304 C2305 1.377 . S
C2304 C2306 1.384 . S
C2305 C2304 1.377 . S
C2305 C2311 1.390 . S
C2306 H2297 0.930 . S
C2306 C2304 1.384 . S
C2306 C2307 1.372 . S
C2307 C2306 1.372 . S
C2307 C2308 1.400 . S
C2307 C2312 1.490 . S
C2308 H2298 0.930 1_545 S
C2308 C2307 1.400 . S
C2308 C2311 1.386 . S
H2309 C2325 0.930 . S
H2310 C2326 0.931 . S
C2311 H2299 0.929 . S
C2311 C2305 1.390 . S
C2311 C2308 1.386 . S
C2312 C2307 1.490 . S
C2312 C2314 1.395 . S
C2312 C2315 1.403 1_545 S
H2313 C2319 0.930 . S
C2314 H2300 0.930 . S
C2314 C2312 1.395 . S
C2314 C2317 1.403 1_456 S
C2315 C2312 1.403 1_565 S
C2315 C2316 1.524 . S
C2315 C2319 1.400 1_456 S
C2316 H2301 0.960 . S
C2316 H2302 0.960 . S
C2316 H2303 0.960 . S
C2316 C2315 1.524 . S
C2317 C2314 1.403 1_654 S
C2317 C2318 1.392 1_545 S
C2317 C2321 1.495 . S
C2318 C2317 1.392 1_565 S
C2318 C2319 1.385 . S
C2318 C2320 1.478 . S
C2319 H2313 0.930 . S
C2319 C2315 1.400 1_654 S
C2319 C2318 1.385 . S
C2320 C2318 1.478 . S
C2320 C2322 1.381 . S
C2320 C2326 1.383 . S
C2321 C2317 1.495 . S
C2321 H2327 0.959 . S
C2321 H2328 0.961 . S
C2321 H2329 0.960 . S
C2322 C2320 1.381 . S
C2322 C2323 1.394 . S
C2322 H2330 0.930 1_565 S
C2323 C2322 1.394 . S
C2323 C2324 1.383 . S
C2323 H2331 0.929 . S
C2324 C2323 1.383 . S
C2324 C2325 1.377 . S
C2325 H2309 0.930 . S
C2325 C2324 1.377 . S
C2325 C2326 1.379 . S
C2326 H2310 0.931 . S
C2326 C2320 1.383 . S
C2326 C2325 1.379 . S
H2327 C2321 0.959 . S
H2328 C2321 0.961 . S
H2329 C2321 0.960 . S
H2330 C2322 0.930 1_545 S
H2331 C2323 0.929 . S
H2332 C2340 0.929 . S
H2333 C2342 0.930 1_565 S
H2334 C2344 0.930 . S
H2335 C2347 0.929 . S
H2336 C2350 0.930 . S
H2337 C2352 0.960 . S
H2338 C2352 0.960 . S
H2339 C2352 0.960 . S
C2340 H2332 0.929 . S
C2340 C2341 1.377 . S
C2340 C2342 1.384 . S
C2341 C2340 1.377 . S
C2341 C2347 1.390 . S
C2342 H2333 0.930 1_545 S
C2342 C2340 1.384 . S
C2342 C2343 1.372 . S
C2343 C2342 1.372 . S
C2343 C2344 1.400 . S
C2343 C2348 1.490 . S
C2344 H2334 0.930 . S
C2344 C2343 1.400 . S
C2344 C2347 1.386 . S
H2345 C2361 0.930 . S
H2346 C2362 0.931 1_545 S
C2347 H2335 0.929 . S
C2347 C2341 1.390 . S
C2347 C2344 1.386 . S
C2348 C2343 1.490 . S
C2348 C2350 1.395 1_545 S
C2348 C2351 1.403 . S
H2349 C2355 0.930 . S
C2350 H2336 0.930 . S
C2350 C2348 1.395 1_565 S
C2350 C2353 1.403 . S
C2351 C2348 1.403 . S
C2351 C2352 1.524 . S
C2351 C2355 1.400 . S
C2352 H2337 0.960 . S
C2352 H2338 0.960 . S
C2352 H2339 0.960 . S
C2352 C2351 1.524 . S
C2353 C2350 1.403 . S
C2353 C2354 1.392 . S
C2353 C2357 1.495 . S
C2354 C2353 1.392 . S
C2354 C2355 1.385 1_565 S
C2354 C2356 1.478 . S
C2355 H2349 0.930 . S
C2355 C2351 1.400 . S
C2355 C2354 1.385 1_545 S
C2356 C2354 1.478 . S
C2356 C2358 1.381 . S
C2356 C2362 1.383 . S
C2357 C2353 1.495 . S
C2357 H2363 0.959 . S
C2357 H2364 0.961 . S
C2357 H2365 0.960 . S
C2358 C2356 1.381 . S
C2358 C2359 1.394 . S
C2358 H2366 0.930 . S
C2359 C2358 1.394 . S
C2359 C2360 1.383 . S
C2359 H2367 0.929 . S
C2360 C2359 1.383 . S
C2360 C2361 1.377 . S
C2361 H2345 0.930 . S
C2361 C2360 1.377 . S
C2361 C2362 1.379 . S
C2362 H2346 0.931 1_565 S
C2362 C2356 1.383 . S
C2362 C2361 1.379 . S
H2363 C2357 0.959 . S
H2364 C2357 0.961 . S
H2365 C2357 0.960 . S
H2366 C2358 0.930 . S
H2367 C2359 0.929 . S
C649 C10 3.203 . S
C668 C410 3.205 . S
C685 C50 3.201 . S
C704 C450 3.190 . S
C721 C90 3.201 . S
C740 C330 3.189 . S
C757 C130 3.201 . S
C776 C370 3.188 . S
C793 C179 3.203 . S
C812 C579 3.192 . S
C829 C219 3.202 . S
C848 C619 3.188 . S
C865 C259 3.202 . S
C884 C499 3.188 . S
C901 C299 3.204 . S
C920 C539 3.201 . S
C937 C369 3.764 . S
C956 C19 3.750 1_556 S
C973 C409 3.763 . S
C992 C59 3.737 . S
C1009 C449 3.767 . S
C1028 C99 3.739 . S
C1045 C329 3.766 . S
C1064 C139 3.725 . S
C1081 C170 3.745 1_554 S
C1100 C538 3.748 . S
C1117 C578 3.767 . S
C1136 C210 3.725 . S
C1153 C618 3.767 . S
C1172 C250 3.734 . S
C1189 C498 3.767 . S
C1208 C290 3.731 . S
C1225 C49 3.764 . S
C1244 C339 3.750 . S
C1261 C379 3.745 . S
C1280 C89 3.764 . S
C1297 C419 3.740 1_556 S
C1316 C129 3.765 . S
C1333 C459 3.743 . S
C1352 C9 3.749 . S
C1369 C490 3.744 . S
C1388 C218 3.765 . S
C1405 C258 3.767 . S
C1424 C530 3.725 . S
C1441 C298 3.765 . S
C1460 C570 3.727 1_554 S
C1477 C610 3.746 . S
C1496 C178 3.751 . S
C1513 C6 0.390 . S
C1532 C609 0.298 . S
C1549 C46 0.378 . S
C1568 C169 0.341 . S
C1585 C529 0.297 . S
C1604 C86 0.359 . S
C1621 C249 0.276 . S
C1640 C126 0.465 . S
C1657 C175 0.374 . S
C1676 C458 0.328 . S
C1693 C215 0.389 . S
C1712 C18 0.265 . S
C1729 C378 0.295 . S
C1748 C255 0.362 . S
C1765 C98 0.290 . S
C1784 C295 0.337 . S
C1801 C326 0.389 . S
C1820 C289 0.290 . S
C1837 C366 0.373 . S
C1856 C489 0.355 . S
C1873 C209 0.297 . S
C1892 C406 0.360 . S
C1909 C569 0.300 . S
C1928 C446 0.328 . S
C1945 C495 0.377 . S
C1964 C138 0.339 . S
C1981 C535 0.371 . S
C2000 C338 0.262 . S
C2017 C575 0.387 . S
C2036 C58 0.258 . S
C2053 C418 0.277 . S
C2072 C615 0.397 . S
C2089 C15 1.312 . S
C2108 C486 1.276 . S
C2125 C55 1.309 . S
C2144 C206 1.280 . S
C2161 C95 1.323 . S
C2180 C566 1.343 . S
C2197 C286 1.318 . S
C2216 C135 1.349 . S
C2233 C166 1.313 . S
C2252 C335 1.276 . S
C2269 C415 1.309 . S
C2288 C246 1.314 . S
C2305 C375 1.320 . S
C2324 C526 1.351 . S
C2341 C606 1.319 . S
C2360 C455 1.290 . S
