# Generated by pormake.
# Topology ukm, (4)-cn, num edge types: 1
# Building blocks:
#     Node 0, Type 0, BuildingBlock: QUQFOY_clean_sbu_3, # of connection points: 4
#     Node 1, Type 0, BuildingBlock: QUQFOY_clean_sbu_3, # of connection points: 4
#     Node 2, Type 0, BuildingBlock: QUQFOY_clean_sbu_3, # of connection points: 4
#     Node 3, Type 0, BuildingBlock: QUQFOY_clean_sbu_3, # of connection points: 4
#     Node 4, Type 0, BuildingBlock: QUQFOY_clean_sbu_3, # of connection points: 4
#     Node 5, Type 0, BuildingBlock: QUQFOY_clean_sbu_3, # of connection points: 4
#     Node 6, Type 0, BuildingBlock: QUQFOY_clean_sbu_3, # of connection points: 4
#     Node 7, Type 0, BuildingBlock: QUQFOY_clean_sbu_3, # of connection points: 4
#     Node 8, Type 0, BuildingBlock: QUQFOY_clean_sbu_3, # of connection points: 4
#     Node 9, Type 0, BuildingBlock: QUQFOY_clean_sbu_3, # of connection points: 4
#     Node 10, Type 0, BuildingBlock: QUQFOY_clean_sbu_3, # of connection points: 4
#     Node 11, Type 0, BuildingBlock: QUQFOY_clean_sbu_3, # of connection points: 4
#     Node 12, Type 0, BuildingBlock: QUQFOY_clean_sbu_3, # of connection points: 4
#     Node 13, Type 0, BuildingBlock: QUQFOY_clean_sbu_3, # of connection points: 4
#     Node 14, Type 0, BuildingBlock: QUQFOY_clean_sbu_3, # of connection points: 4
#     Node 15, Type 0, BuildingBlock: QUQFOY_clean_sbu_3, # of connection points: 4
#     Node 16, Type 0, BuildingBlock: QUQFOY_clean_sbu_3, # of connection points: 4
#     Node 17, Type 0, BuildingBlock: QUQFOY_clean_sbu_3, # of connection points: 4
#     Node 18, Type 0, BuildingBlock: QUQFOY_clean_sbu_3, # of connection points: 4
#     Node 19, Type 0, BuildingBlock: QUQFOY_clean_sbu_3, # of connection points: 4
#     Node 20, Type 0, BuildingBlock: QUQFOY_clean_sbu_3, # of connection points: 4
#     Node 21, Type 0, BuildingBlock: QUQFOY_clean_sbu_3, # of connection points: 4
#     Node 22, Type 0, BuildingBlock: QUQFOY_clean_sbu_3, # of connection points: 4
#     Node 23, Type 0, BuildingBlock: QUQFOY_clean_sbu_3, # of connection points: 4
#     Node 24, Type 0, BuildingBlock: QUQFOY_clean_sbu_3, # of connection points: 4
#     Node 25, Type 0, BuildingBlock: QUQFOY_clean_sbu_3, # of connection points: 4
#     Node 26, Type 0, BuildingBlock: QUQFOY_clean_sbu_3, # of connection points: 4
#     Node 27, Type 0, BuildingBlock: QUQFOY_clean_sbu_3, # of connection points: 4
#     Node 28, Type 0, BuildingBlock: QUQFOY_clean_sbu_3, # of connection points: 4
#     Node 29, Type 0, BuildingBlock: QUQFOY_clean_sbu_3, # of connection points: 4
#     Node 30, Type 0, BuildingBlock: QUQFOY_clean_sbu_3, # of connection points: 4
#     Node 31, Type 0, BuildingBlock: QUQFOY_clean_sbu_3, # of connection points: 4
#     Edge 32, Type (0, 0), BuildingBlock: OJICUG_clean_linker_0, # of connection points: 2
#     Edge 33, Type (0, 0), BuildingBlock: OJICUG_clean_linker_0, # of connection points: 2
#     Edge 34, Type (0, 0), BuildingBlock: OJICUG_clean_linker_0, # of connection points: 2
#     Edge 35, Type (0, 0), BuildingBlock: OJICUG_clean_linker_0, # of connection points: 2
#     Edge 36, Type (0, 0), BuildingBlock: OJICUG_clean_linker_0, # of connection points: 2
#     Edge 37, Type (0, 0), BuildingBlock: OJICUG_clean_linker_0, # of connection points: 2
#     Edge 38, Type (0, 0), BuildingBlock: OJICUG_clean_linker_0, # of connection points: 2
#     Edge 39, Type (0, 0), BuildingBlock: OJICUG_clean_linker_0, # of connection points: 2
#     Edge 40, Type (0, 0), BuildingBlock: OJICUG_clean_linker_0, # of connection points: 2
#     Edge 41, Type (0, 0), BuildingBlock: OJICUG_clean_linker_0, # of connection points: 2
#     Edge 42, Type (0, 0), BuildingBlock: OJICUG_clean_linker_0, # of connection points: 2
#     Edge 43, Type (0, 0), BuildingBlock: OJICUG_clean_linker_0, # of connection points: 2
#     Edge 44, Type (0, 0), BuildingBlock: OJICUG_clean_linker_0, # of connection points: 2
#     Edge 45, Type (0, 0), BuildingBlock: OJICUG_clean_linker_0, # of connection points: 2
#     Edge 46, Type (0, 0), BuildingBlock: OJICUG_clean_linker_0, # of connection points: 2
#     Edge 47, Type (0, 0), BuildingBlock: OJICUG_clean_linker_0, # of connection points: 2
#     Edge 48, Type (0, 0), BuildingBlock: OJICUG_clean_linker_0, # of connection points: 2
#     Edge 49, Type (0, 0), BuildingBlock: OJICUG_clean_linker_0, # of connection points: 2
#     Edge 50, Type (0, 0), BuildingBlock: OJICUG_clean_linker_0, # of connection points: 2
#     Edge 51, Type (0, 0), BuildingBlock: OJICUG_clean_linker_0, # of connection points: 2
#     Edge 52, Type (0, 0), BuildingBlock: OJICUG_clean_linker_0, # of connection points: 2
#     Edge 53, Type (0, 0), BuildingBlock: OJICUG_clean_linker_0, # of connection points: 2
#     Edge 54, Type (0, 0), BuildingBlock: OJICUG_clean_linker_0, # of connection points: 2
#     Edge 55, Type (0, 0), BuildingBlock: OJICUG_clean_linker_0, # of connection points: 2
#     Edge 56, Type (0, 0), BuildingBlock: OJICUG_clean_linker_0, # of connection points: 2
#     Edge 57, Type (0, 0), BuildingBlock: OJICUG_clean_linker_0, # of connection points: 2
#     Edge 58, Type (0, 0), BuildingBlock: OJICUG_clean_linker_0, # of connection points: 2
#     Edge 59, Type (0, 0), BuildingBlock: OJICUG_clean_linker_0, # of connection points: 2
#     Edge 60, Type (0, 0), BuildingBlock: OJICUG_clean_linker_0, # of connection points: 2
#     Edge 61, Type (0, 0), BuildingBlock: OJICUG_clean_linker_0, # of connection points: 2
#     Edge 62, Type (0, 0), BuildingBlock: OJICUG_clean_linker_0, # of connection points: 2
#     Edge 63, Type (0, 0), BuildingBlock: OJICUG_clean_linker_0, # of connection points: 2
#     Edge 64, Type (0, 0), BuildingBlock: OJICUG_clean_linker_0, # of connection points: 2
#     Edge 65, Type (0, 0), BuildingBlock: OJICUG_clean_linker_0, # of connection points: 2
#     Edge 66, Type (0, 0), BuildingBlock: OJICUG_clean_linker_0, # of connection points: 2
#     Edge 67, Type (0, 0), BuildingBlock: OJICUG_clean_linker_0, # of connection points: 2
#     Edge 68, Type (0, 0), BuildingBlock: OJICUG_clean_linker_0, # of connection points: 2
#     Edge 69, Type (0, 0), BuildingBlock: OJICUG_clean_linker_0, # of connection points: 2
#     Edge 70, Type (0, 0), BuildingBlock: OJICUG_clean_linker_0, # of connection points: 2
#     Edge 71, Type (0, 0), BuildingBlock: OJICUG_clean_linker_0, # of connection points: 2
#     Edge 72, Type (0, 0), BuildingBlock: OJICUG_clean_linker_0, # of connection points: 2
#     Edge 73, Type (0, 0), BuildingBlock: OJICUG_clean_linker_0, # of connection points: 2
#     Edge 74, Type (0, 0), BuildingBlock: OJICUG_clean_linker_0, # of connection points: 2
#     Edge 75, Type (0, 0), BuildingBlock: OJICUG_clean_linker_0, # of connection points: 2
#     Edge 76, Type (0, 0), BuildingBlock: OJICUG_clean_linker_0, # of connection points: 2
#     Edge 77, Type (0, 0), BuildingBlock: OJICUG_clean_linker_0, # of connection points: 2
#     Edge 78, Type (0, 0), BuildingBlock: OJICUG_clean_linker_0, # of connection points: 2
#     Edge 79, Type (0, 0), BuildingBlock: OJICUG_clean_linker_0, # of connection points: 2
#     Edge 80, Type (0, 0), BuildingBlock: OJICUG_clean_linker_0, # of connection points: 2
#     Edge 81, Type (0, 0), BuildingBlock: OJICUG_clean_linker_0, # of connection points: 2
#     Edge 82, Type (0, 0), BuildingBlock: OJICUG_clean_linker_0, # of connection points: 2
#     Edge 83, Type (0, 0), BuildingBlock: OJICUG_clean_linker_0, # of connection points: 2
#     Edge 84, Type (0, 0), BuildingBlock: OJICUG_clean_linker_0, # of connection points: 2
#     Edge 85, Type (0, 0), BuildingBlock: OJICUG_clean_linker_0, # of connection points: 2
#     Edge 86, Type (0, 0), BuildingBlock: OJICUG_clean_linker_0, # of connection points: 2
#     Edge 87, Type (0, 0), BuildingBlock: OJICUG_clean_linker_0, # of connection points: 2
#     Edge 88, Type (0, 0), BuildingBlock: OJICUG_clean_linker_0, # of connection points: 2
#     Edge 89, Type (0, 0), BuildingBlock: OJICUG_clean_linker_0, # of connection points: 2
#     Edge 90, Type (0, 0), BuildingBlock: OJICUG_clean_linker_0, # of connection points: 2
#     Edge 91, Type (0, 0), BuildingBlock: OJICUG_clean_linker_0, # of connection points: 2
#     Edge 92, Type (0, 0), BuildingBlock: OJICUG_clean_linker_0, # of connection points: 2
#     Edge 93, Type (0, 0), BuildingBlock: OJICUG_clean_linker_0, # of connection points: 2
#     Edge 94, Type (0, 0), BuildingBlock: OJICUG_clean_linker_0, # of connection points: 2
#     Edge 95, Type (0, 0), BuildingBlock: OJICUG_clean_linker_0, # of connection points: 2
# Relax obj value: 0.277
# Max RMSD: 0.198
# Mean RMSD: 0.198
data_MOF--net-ukm--node1-QUQFOY_clean_sbu_3--edge1-OJICUG_clean_linker_0
_symmetry_space_group_name_H-M    P1
_symmetry_Int_Tables_number       1
_symmetry_cell_setting            triclinic
loop_
_symmetry_equiv_pos_as_xyz
'x, y, z'
_cell_length_a     19.09573
_cell_length_b     75.759347
_cell_length_c     31.415645
_cell_angle_alpha  89.916534
_cell_angle_beta   89.808289
_cell_angle_gamma 90.166233
loop_
_atom_site_label
_atom_site_type_symbol
_atom_site_fract_x
_atom_site_fract_y
_atom_site_fract_z
_atom_type_partial_charge
C0 C 0.10985 0.29373 0.18082 0.0
O1 O 0.06269 0.30405 0.16722 0.0
Cd2 Cd 0.07116 0.33541 0.16885 0.0
O3 O 0.16403 0.29987 0.19934 0.0
Cd4 Cd 0.20972 0.32982 0.21734 0.0
C5 C 0.22436 0.3367 0.1128 0.0
O6 O 0.1025 0.34457 0.2385 0.0
O7 O 0.1861 0.36169 0.21712 0.0
O8 O 0.24757 0.32179 0.28919 0.0
C9 C 0.12714 0.36005 0.23547 0.0
O10 O 0.16004 0.34104 0.11486 0.0
C11 C 0.31041 0.32695 0.2842 0.0
O12 O 0.25591 0.33099 0.14559 0.0
O13 O 0.32711 0.33273 0.24756 0.0
C14 C 0.14504 0.91114 0.18577 0.0
O15 O 0.16933 0.89903 0.1621 0.0
Cd16 Cd 0.11192 0.87133 0.15173 0.0
O17 O 0.08895 0.90871 0.20718 0.0
Cd18 Cd 1.00142 0.88496 0.21677 0.0
C19 C 0.96364 0.8892 0.11214 0.0
O20 O 0.08362 0.86052 0.22117 0.0
O21 O 0.97572 0.8534 0.2102 0.0
O22 O 0.98282 0.89075 0.29346 0.0
C23 C 0.0369 0.84865 0.22083 0.0
O24 O 0.01449 0.87882 0.10481 0.0
C25 C 0.91666 0.89208 0.29057 0.0
O26 O 0.95045 0.8945 0.14968 0.0
O27 O 0.89093 0.89092 0.25345 0.0
C28 C 0.88065 0.97598 0.88822 0.0
O29 O 0.84027 0.96504 0.90635 0.0
Cd30 Cd 0.81989 0.93664 0.87152 0.0
O31 O 0.91325 0.97076 0.85567 0.0
Cd32 Cd 0.95627 0.94173 0.87341 0.0
C33 C 0.88014 0.92382 0.95933 0.0
O34 O 0.8994 0.92414 0.81803 0.0
O35 O 0.95347 0.91038 0.86891 0.0
O36 O 0.05844 0.94619 0.82845 0.0
C37 C 0.92599 0.90993 0.8323 0.0
O38 O 0.83646 0.9179 0.93245 0.0
C39 C 0.10173 0.94821 0.8585 0.0
O40 O 0.92286 0.93605 0.94869 0.0
O41 O 0.07772 0.94699 0.89614 0.0
C42 C 0.24007 0.24068 0.93428 0.0
O43 O 0.29327 0.24767 0.91669 0.0
Cd44 Cd 0.294 0.27552 0.87985 0.0
O45 O 0.18128 0.24841 0.93326 0.0
Cd46 Cd 0.14618 0.27716 0.90536 0.0
C47 C 0.25909 0.3026 0.96038 0.0
O48 O 0.19484 0.28055 0.83306 0.0
O49 O 0.16806 0.30403 0.86915 0.0
O50 O 0.0341 0.26934 0.8752 0.0
C51 C 0.18122 0.29697 0.83355 0.0
O52 O 0.30646 0.29858 0.93363 0.0
C53 C 0.99725 0.27731 0.90274 0.0
O54 O 0.19869 0.29549 0.9591 0.0
O55 O 0.02951 0.28458 0.93338 0.0
C56 C 0.01731 0.70201 0.71885 0.0
O57 O 0.07305 0.69317 0.72374 0.0
Cd58 Cd 0.06268 0.66326 0.74869 0.0
O59 O 0.95808 0.69431 0.7197 0.0
Cd60 Cd 0.90393 0.66505 0.72522 0.0
C61 C 0.94005 0.672 0.82716 0.0
O62 O 0.99493 0.64389 0.70472 0.0
O63 O 0.9126 0.63484 0.74729 0.0
O64 O 0.85202 0.66759 0.65492 0.0
C65 C 0.96514 0.63115 0.72415 0.0
O66 O 1.00252 0.66843 0.8158 0.0
C67 C 0.78896 0.66558 0.66697 0.0
O68 O 0.89034 0.67225 0.8002 0.0
O69 O 0.7786 0.66369 0.70677 0.0
C70 C 0.74645 0.03923 0.72057 0.0
O71 O 0.69851 0.05063 0.71588 0.0
Cd72 Cd 0.72358 0.08126 0.70694 0.0
O73 O 0.81046 0.04343 0.71503 0.0
Cd74 Cd 0.87995 0.06953 0.69331 0.0
C75 C 0.83866 0.08572 0.7897 0.0
O76 O 0.79994 0.08528 0.64655 0.0
O77 O 0.8812 0.10076 0.6768 0.0
O78 O 0.95221 0.05469 0.63958 0.0
C79 C 0.83233 0.09984 0.64969 0.0
O80 O 0.77701 0.08854 0.77595 0.0
C81 C 0.00965 0.05703 0.65913 0.0
O82 O 0.88501 0.07862 0.76626 0.0
O83 O 0.00655 0.0651 0.69447 0.0
C84 C 0.02079 0.02777 -0.00795 0.0
O85 O 0.0452 0.04168 0.97505 0.0
Cd86 Cd 0.06371 0.06851 0.01741 0.0
O87 O 0.00545 0.02813 0.03121 0.0
Cd88 Cd 0.92023 0.05026 0.04721 0.0
C89 C 0.92966 0.07908 0.96016 0.0
O90 O 0.00687 0.06715 0.08651 0.0
O91 O 0.89799 0.07498 0.09228 0.0
O92 O 0.85782 0.0295 0.09368 0.0
C93 C 0.96181 0.07798 0.10074 0.0
O94 O 0.9879 0.08539 0.97269 0.0
C95 C 0.80304 0.02902 0.0708 0.0
O96 O 0.90139 0.06591 0.97904 0.0
O97 O 0.80287 0.03861 0.0376 0.0
C98 C 0.79842 0.74515 0.07365 0.0
O99 O 0.76238 0.7311 0.07725 0.0
Cd100 Cd 0.80487 0.7018 0.08983 0.0
O101 O 0.86496 0.7448 0.07592 0.0
Cd102 Cd 0.95327 0.72151 0.08218 0.0
C103 C 0.89387 0.69699 -0.00209 0.0
O104 O 0.89982 0.70392 0.13962 0.0
O105 O 0.9927 0.69365 0.10878 0.0
O106 O 0.04218 0.73778 0.12224 0.0
C107 C 0.94767 0.69235 0.13825 0.0
O108 O 0.84219 0.69165 0.02011 0.0
C109 C 0.08831 0.73684 0.09306 0.0
O110 O 0.93743 0.70815 0.01262 0.0
O111 O 0.06913 0.73026 0.05783 0.0
C112 C 0.01843 0.77802 0.73128 0.0
O113 O 0.96133 0.78633 0.72653 0.0
Cd114 Cd 0.95774 0.81751 0.71692 0.0
O115 O 0.07558 0.78636 0.73734 0.0
Cd116 Cd 0.11827 0.81706 0.74653 0.0
C117 C 0.09205 0.81825 0.64191 0.0
O118 O 0.01505 0.8319 0.77372 0.0
O119 O 0.09018 0.84835 0.7404 0.0
O120 O 0.1638 0.80951 0.81606 0.0
C121 C 0.03464 0.84723 0.76255 0.0
O122 O 0.02795 0.81985 0.65261 0.0
C123 C 0.22572 0.8151 0.80988 0.0
O124 O 0.13953 0.81626 0.66996 0.0
O125 O 0.23945 0.82125 0.77303 0.0
C126 C 0.18395 0.41838 0.70516 0.0
O127 O 0.21692 0.40579 0.68757 0.0
Cd128 Cd 0.17429 0.37657 0.67854 0.0
O129 O 0.12414 0.41584 0.72243 0.0
Cd130 Cd 0.04185 0.39074 0.73417 0.0
C131 C 0.02653 0.38978 0.6266 0.0
O132 O 0.13088 0.36916 0.74672 0.0
O133 O 0.02941 0.35799 0.73392 0.0
O134 O 0.01259 0.40008 0.80729 0.0
C135 C 0.09274 0.35557 0.74452 0.0
O136 O 0.08343 0.38107 0.62519 0.0
C137 C 0.94683 0.40055 0.80126 0.0
O138 O 1.0023 0.39557 0.66168 0.0
O139 O 0.92562 0.39674 0.76407 0.0
C140 C 0.97644 0.47601 0.42212 0.0
O141 O 0.93362 0.46381 0.43133 0.0
Cd142 Cd 0.91669 0.43896 0.38292 0.0
O143 O 0.01229 0.47427 0.38858 0.0
Cd144 Cd 0.05881 0.44474 0.38937 0.0
C145 C 0.97464 0.42127 0.46582 0.0
O146 O 1.00185 0.4322 0.32679 0.0
O147 O 0.05826 0.41449 0.36907 0.0
O148 O 0.16177 0.45308 0.34822 0.0
C149 C 0.02967 0.41719 0.33331 0.0
O150 O 0.93243 0.41667 0.43668 0.0
C151 C 0.20408 0.45301 0.37918 0.0
O152 O 0.01931 0.43357 0.45947 0.0
O153 O 0.17934 0.44881 0.41541 0.0
C154 C 0.21119 0.73814 0.41863 0.0
O155 O 0.25418 0.7504 0.4098 0.0
Cd156 Cd 0.22156 0.7795 0.38577 0.0
O157 O 0.14576 0.74069 0.41512 0.0
Cd158 Cd 0.0729 0.76603 0.39729 0.0
C159 C 0.13978 0.79368 0.47286 0.0
O160 O 0.12857 0.77884 0.33285 0.0
O161 O 0.04441 0.79306 0.36446 0.0
O162 O 0.97984 0.74995 0.36063 0.0
C163 C 0.08354 0.7912 0.33221 0.0
O164 O 0.19438 0.79588 0.45024 0.0
C165 C 0.9341 0.75293 0.38914 0.0
O166 O 0.09163 0.78308 0.46141 0.0
O167 O 0.95445 0.76091 0.42239 0.0
C168 C 0.07263 0.21864 0.15909 0.0
O169 O 0.11796 0.20795 0.17321 0.0
Cd170 Cd 0.09123 0.17751 0.18888 0.0
O171 O 0.01145 0.21319 0.15004 0.0
Cd172 Cd 0.9492 0.18495 0.15623 0.0
C173 C 0.96394 0.18458 0.26134 0.0
O174 O 0.02855 0.16052 0.13586 0.0
O175 O 0.94532 0.1551 0.18087 0.0
O176 O 0.87343 0.18412 0.09291 0.0
C177 C 0.99085 0.14918 0.15526 0.0
O178 O 0.0252 0.17841 0.25564 0.0
C179 C 0.81741 0.18606 0.1144 0.0
O180 O 0.92727 0.1896 0.23004 0.0
O181 O 0.82407 0.18845 0.15408 0.0
C182 C 0.84184 0.5669 0.2737 0.0
O183 O 0.80646 0.57989 0.28737 0.0
Cd184 Cd 0.8559 0.60895 0.29505 0.0
O185 O 0.90424 0.56913 0.26038 0.0
Cd186 Cd 0.99063 0.59283 0.25293 0.0
C187 C 0.98333 0.59457 0.36054 0.0
O188 O 0.9161 0.61717 0.23074 0.0
O189 O 0.01925 0.62394 0.25424 0.0
O190 O 0.03369 0.58187 0.18426 0.0
C191 C 0.96368 0.62871 0.23551 0.0
O192 O 0.93044 0.60467 0.35739 0.0
C193 C 0.09717 0.58075 0.19605 0.0
O194 O 0.0119 0.5879 0.32771 0.0
O195 O 0.11028 0.58474 0.23448 0.0
C196 C 0.1057 0.51415 0.56039 0.0
O197 O 0.13548 0.52867 0.55147 0.0
Cd198 Cd 0.13549 0.55344 0.60171 0.0
O199 O 0.07821 0.51262 0.59688 0.0
Cd200 Cd 0.99034 0.53484 0.60259 0.0
C201 C 0.03713 0.56558 0.52577 0.0
O202 O 0.05099 0.55103 0.65927 0.0
O203 O 0.94803 0.5599 0.63943 0.0
O204 O 0.90944 0.51474 0.63856 0.0
C205 C 1.00049 0.5618 0.66352 0.0
O206 O 0.07995 0.57273 0.5515 0.0
C207 C 0.86304 0.51534 0.6097 0.0
O208 O 0.0072 0.55089 0.53449 0.0
O209 O 0.87694 0.52461 0.57701 0.0
C210 C 0.75869 0.23204 0.52166 0.0
O211 O 0.7087 0.22209 0.51021 0.0
Cd212 Cd 0.71936 0.19081 0.50398 0.0
O213 O 0.81728 0.22543 0.53215 0.0
Cd214 Cd 0.86216 0.19499 0.533 0.0
C215 C 0.84537 0.18938 0.4292 0.0
O216 O 0.77073 0.17726 0.56648 0.0
O217 O 0.83982 0.16351 0.52332 0.0
O218 O 0.93669 0.19559 0.59643 0.0
C219 C 0.79657 0.16276 0.55395 0.0
O220 O 0.78145 0.18568 0.43666 0.0
C221 C 0.99314 0.19363 0.57549 0.0
O222 O 0.88509 0.19458 0.45884 0.0
O223 O 0.98832 0.19321 0.53531 0.0
C224 C 0.46699 0.25838 0.82041 0.0
O225 O 0.40949 0.26663 0.82349 0.0
Cd226 Cd 0.40734 0.29768 0.84206 0.0
O227 O 0.52395 0.26612 0.8293 0.0
Cd228 Cd 0.56172 0.29524 0.85129 0.0
C229 C 0.50283 0.31442 0.76173 0.0
O230 O 0.47713 0.30666 0.90385 0.0
O231 O 0.54107 0.32532 0.86812 0.0
O232 O 0.65591 0.28655 0.90054 0.0
C233 C 0.49976 0.32236 0.89894 0.0
O234 O 0.44091 0.31364 0.77673 0.0
C235 C 0.70425 0.28998 0.87386 0.0
O236 O 0.55382 0.30762 0.78164 0.0
O237 O 0.68592 0.29626 0.83819 0.0
C238 C 0.67245 0.97323 0.80087 0.0
O239 O 0.71908 0.96355 0.81754 0.0
Cd240 Cd 0.69211 0.9354 0.8496 0.0
O241 O 0.60853 0.96853 0.80186 0.0
Cd242 Cd 0.54171 0.9432 0.82807 0.0
C243 C 0.62839 0.91317 0.7667 0.0
O244 O 0.5935 0.93697 0.89863 0.0
O245 O 0.52051 0.91819 0.87074 0.0
O246 O 0.44068 0.95938 0.85502 0.0
C247 C 0.55368 0.92359 0.90302 0.0
O248 O 0.68108 0.9145 0.79107 0.0
C249 C 0.39802 0.95279 0.82846 0.0
O250 O 0.57416 0.92258 0.77257 0.0
O251 O 0.42346 0.94288 0.79978 0.0
C252 C 0.51459 0.92103 0.52197 0.0
O253 O 0.45873 0.91201 0.52539 0.0
Cd254 Cd 0.46541 0.88051 0.53138 0.0
O255 O 0.57279 0.91346 0.5144 0.0
Cd256 Cd 0.62403 0.88412 0.49973 0.0
C257 C 0.6014 0.88164 0.60471 0.0
O258 O 0.52461 0.86747 0.47283 0.0
O259 O 0.60662 0.85224 0.50281 0.0
O260 O 0.66397 0.89437 0.4305 0.0
C261 C 0.54977 0.85245 0.48197 0.0
O262 O 0.53766 0.87884 0.59478 0.0
C263 C 0.72795 0.89029 0.43507 0.0
O264 O 0.64739 0.8847 0.57606 0.0
O265 O 0.74513 0.88359 0.47075 0.0
C266 C 0.72307 0.30759 0.51203 0.0
O267 O 0.7701 0.31804 0.52542 0.0
Cd268 Cd 0.74095 0.3483 0.53941 0.0
O269 O 0.66349 0.31347 0.50109 0.0
Cd270 Cd 0.59732 0.3409 0.49341 0.0
C271 C 0.59121 0.34019 0.59909 0.0
O272 O 0.68951 0.3627 0.47955 0.0
O273 O 0.59204 0.37226 0.50622 0.0
O274 O 0.5682 0.33483 0.41929 0.0
C275 C 0.65179 0.37573 0.49045 0.0
O276 O 0.65473 0.3453 0.59635 0.0
C277 C 0.50233 0.33449 0.42487 0.0
O278 O 0.55615 0.33658 0.56581 0.0
O279 O 0.48024 0.33716 0.46253 0.0
C280 C 0.61829 0.71579 0.18341 0.0
O281 O 0.67036 0.70587 0.19033 0.0
Cd282 Cd 0.65462 0.67972 0.14385 0.0
O283 O 0.59539 0.71585 0.1457 0.0
Cd284 Cd 0.48897 0.69995 0.13696 0.0
C285 C 0.52888 0.66902 0.21644 0.0
O286 O 0.56311 0.6836 0.09016 0.0
O287 O 0.45268 0.67712 0.08843 0.0
O288 O 0.42085 0.72256 0.09976 0.0
C289 C 0.51476 0.67342 0.07707 0.0
O290 O 0.58787 0.66525 0.19961 0.0
C291 C 0.37166 0.72266 0.12719 0.0
O292 O 0.48917 0.68103 0.20122 0.0
O293 O 0.37859 0.71265 0.15939 0.0
C294 C 0.26461 0.98098 0.17469 0.0
O295 O 0.22515 -0.00591 0.18191 0.0
Cd296 Cd 0.25863 0.02434 0.18785 0.0
O297 O 0.32989 0.98316 0.16813 0.0
Cd298 Cd 0.40755 0.00924 0.16895 0.0
C299 C 0.37221 0.0194 0.27008 0.0
O300 O 0.34105 0.03341 0.13506 0.0
O301 O 0.42461 0.04016 0.17847 0.0
O302 O 0.48613 0.00408 0.1086 0.0
C303 C 0.381 0.04515 0.15073 0.0
O304 O 0.31586 0.02627 0.25635 0.0
C305 C 0.54085 0.00282 0.13133 0.0
O306 O 0.41271 0.01082 0.2455 0.0
O307 O 0.53201 0.00282 0.17138 0.0
C308 C 0.51109 -0.00357 0.54961 0.0
O309 O 0.56739 0.0051 0.54437 0.0
Cd310 Cd 0.56501 0.03571 0.52571 0.0
O311 O 0.45263 0.00443 0.55113 0.0
Cd312 Cd 0.41189 0.03531 0.54644 0.0
C313 C 0.45046 0.03186 0.44386 0.0
O314 O 0.50364 0.05457 0.57531 0.0
O315 O 0.43777 0.06546 0.52604 0.0
O316 O 0.33195 0.03607 0.60798 0.0
C317 C 0.48137 0.06812 0.55572 0.0
O318 O 0.51385 0.03472 0.45432 0.0
C319 C 0.27731 0.0386 0.5858 0.0
O320 O 0.40272 0.03072 0.4719 0.0
O321 O 0.28537 0.03908 0.54572 0.0
C322 C 0.31302 0.66972 0.4685 0.0
O323 O 0.27317 0.65657 0.46202 0.0
Cd324 Cd 0.32097 0.62798 0.45033 0.0
O325 O 0.37795 0.66751 0.47593 0.0
Cd326 Cd 0.46268 0.64328 0.48599 0.0
C327 C 0.44907 0.64109 0.37956 0.0
O328 O 0.38692 0.61953 0.51175 0.0
O329 O 0.48738 0.612 0.48538 0.0
O330 O 0.50343 0.65437 0.55499 0.0
C331 C 0.43254 0.60764 0.50577 0.0
O332 O 0.38943 0.63399 0.38596 0.0
C333 C 0.56755 0.65531 0.54428 0.0
O334 O 0.4876 0.64579 0.41053 0.0
O335 O 0.58239 0.65129 0.50603 0.0
C336 C 0.41854 0.72954 0.31826 0.0
O337 O 0.37041 0.74029 0.30903 0.0
Cd338 Cd 0.34964 0.76465 0.35877 0.0
O339 O 0.44587 0.73144 0.35444 0.0
Cd340 Cd 0.49327 0.76071 0.34952 0.0
C341 C 0.4047 0.7833 0.27479 0.0
O342 O 0.43679 0.7747 0.41123 0.0
O343 O 0.49254 0.79122 0.36552 0.0
O344 O 0.59492 0.75232 0.39028 0.0
C345 C 0.46342 0.78964 0.40158 0.0
O346 O 0.36173 0.78683 0.30458 0.0
C347 C 0.63833 0.75326 0.35977 0.0
O348 O 0.45129 0.77141 0.27964 0.0
O349 O 0.61433 0.75772 0.32364 0.0
C350 C 0.76236 0.49647 0.32295 0.0
O351 O 0.80988 0.48471 0.32251 0.0
Cd352 Cd 0.8152 0.45379 0.34301 0.0
O353 O 0.70061 0.49292 0.33581 0.0
Cd354 Cd 0.64717 0.46485 0.3559 0.0
C355 C 0.71043 0.43767 0.27124 0.0
O356 O 0.73188 0.44813 0.39794 0.0
O357 O 0.63218 0.45315 0.4273 0.0
O358 O 0.53463 0.47661 0.37958 0.0
C359 C 0.68904 0.44466 0.42762 0.0
O360 O 0.77429 0.43796 0.28231 0.0
C361 C 0.49876 0.4663 0.35623 0.0
O362 O 0.66414 0.446 0.29253 0.0
O363 O 0.53214 0.45619 0.33113 0.0
C364 C 0.546 0.4546 0.0147 0.0
O365 O 0.48969 0.44648 0.02382 0.0
Cd366 Cd 0.48575 0.41542 0.03612 0.0
O367 O 0.60164 0.446 0.00634 0.0
Cd368 Cd 0.63763 0.41453 0.00031 0.0
C369 C 0.62334 0.41448 0.10632 0.0
O370 O 0.53142 0.39926 0.97724 0.0
O371 O 0.60707 0.38358 0.01154 0.0
O372 O 0.68453 0.41834 0.92848 0.0
C373 C 0.55207 0.38412 0.98903 0.0
O374 O 0.5579 0.41295 0.09947 0.0
C375 C 0.74616 0.41312 0.93665 0.0
O376 O 0.66648 0.41603 0.07551 0.0
O377 O 0.75877 0.40903 0.97516 0.0
C378 C 0.65138 0.81069 0.05374 0.0
O379 O 0.67063 0.82334 0.0775 0.0
Cd380 Cd 0.60177 0.8489 0.09103 0.0
O381 O 0.59391 0.81141 0.03326 0.0
Cd382 Cd 0.49649 0.83245 0.0249 0.0
C383 C 0.46294 0.82586 0.12949 0.0
O384 O 0.56883 0.85876 0.02194 0.0
O385 O 0.45847 0.86327 0.03144 0.0
O386 O 0.47991 0.82582 0.94852 0.0
C387 C 0.5184 0.86952 0.02224 0.0
O388 O 0.5096 0.83737 0.13772 0.0
C389 C 0.41483 0.82254 0.95219 0.0
O390 O 0.45092 0.82111 0.09145 0.0
O391 O 0.38909 0.82334 0.98945 0.0
C392 C 0.48141 0.19128 0.73383 0.0
O393 O 0.5389 0.18308 0.72939 0.0
Cd394 Cd 0.54169 0.15308 0.70188 0.0
O395 O 0.42492 0.18455 0.72023 0.0
Cd396 Cd 0.38012 0.15875 0.68398 0.0
C397 C 0.42187 0.13551 0.77132 0.0
O398 O 0.47595 0.14888 0.63742 0.0
O399 O 0.39226 0.13039 0.6531 0.0
O400 O 0.31242 0.17601 0.63376 0.0
C401 C 0.44794 0.13375 0.63255 0.0
O402 O 0.48528 0.13629 0.75867 0.0
C403 C 0.25338 0.17155 0.64922 0.0
O404 O 0.3735 0.14341 0.75113 0.0
O405 O 0.25347 0.16075 0.68019 0.0
C406 C 0.2931 0.48848 0.67717 0.0
O407 O 0.25209 0.50164 0.67674 0.0
Cd408 Cd 0.28802 0.53172 0.66387 0.0
O409 O 0.35849 0.49054 0.67096 0.0
Cd410 Cd 0.43802 0.51557 0.66061 0.0
C411 C 0.38944 0.53855 0.74925 0.0
O412 O 0.37337 0.53285 0.60675 0.0
O413 O 0.46633 0.54432 0.63514 0.0
O414 O 0.52793 0.50208 0.61513 0.0
C415 C 0.41914 0.54505 0.60704 0.0
O416 O 0.33256 0.54292 0.73121 0.0
C417 C 0.57519 0.50269 0.64349 0.0
O418 O 0.43241 0.52821 0.73108 0.0
O419 O 0.55672 0.50795 0.68016 0.0
C420 C 0.54924 0.53089 0.02214 0.0
O421 O 0.60454 0.53963 0.01431 0.0
Cd422 Cd 0.59158 0.56981 -0.00856 0.0
O423 O 0.49062 0.53874 0.02438 0.0
Cd424 Cd 0.44099 0.56857 0.02026 0.0
C425 C 0.46355 0.56266 0.91678 0.0
O426 O 0.5337 0.58996 0.03948 0.0
O427 O 0.4519 0.59852 -0.0034 0.0
O428 O 0.38679 0.56689 0.09055 0.0
C429 C 0.50301 0.60258 0.02037 0.0
O430 O 0.52741 0.5661 0.92504 0.0
C431 C 0.32443 0.56906 0.07767 0.0
O432 O 0.41797 0.56198 0.94637 0.0
O433 O 0.31592 0.5707 0.03775 0.0
C434 C 0.27913 0.17349 0.01625 0.0
O435 O 0.23038 0.16212 0.01997 0.0
Cd436 Cd 0.25928 0.13108 0.03161 0.0
O437 O 0.34245 0.16899 0.02134 0.0
Cd438 Cd 0.42113 0.14525 0.03725 0.0
C439 C 0.36612 0.12587 0.94557 0.0
O440 O 0.34832 0.12788 0.08589 0.0
O441 O 0.44792 0.11706 0.0646 0.0
O442 O 0.49379 0.16447 0.08067 0.0
C443 C 0.39232 0.11529 0.08628 0.0
O444 O 0.3065 0.12262 0.96216 0.0
C445 C 0.54792 0.16289 0.05727 0.0
O446 O 0.41329 0.13413 0.966 0.0
O447 O 0.54271 0.15302 0.02478 0.0
C448 C 0.08352 0.40684 0.26642 0.0
C449 C 0.037 0.40383 0.30026 0.0
H450 H 0.14978 0.39506 0.21924 0.0
C451 C 0.0129 0.38669 0.30858 0.0
H452 H 0.10376 0.41998 0.26026 0.0
C453 C 0.03847 0.37251 0.28506 0.0
C454 C 0.09009 0.37527 0.25379 0.0
H455 H 0.97791 0.38414 0.33515 0.0
H456 H 0.02168 0.35929 0.29358 0.0
C457 C 0.11044 0.3926 0.24346 0.0
C458 C 0.11886 0.82587 0.24939 0.0
C459 C 0.05001 0.83129 0.2403 0.0
H460 H 0.18388 0.80828 0.28554 0.0
C461 C 0.99349 0.82131 0.25584 0.0
H462 H 0.16338 0.83329 0.23749 0.0
C463 C 0.00532 0.80734 0.28367 0.0
C464 C 0.07377 0.80286 0.29554 0.0
H465 H 0.93995 0.82511 0.24925 0.0
H466 H 0.96071 0.80061 0.29776 0.0
C467 C 0.13071 0.81157 0.27666 0.0
C468 C 0.91872 0.87765 0.82539 0.0
C469 C 0.93472 0.89401 0.80677 0.0
H470 H 0.93719 0.84985 0.82531 0.0
C471 C 0.97587 0.89467 0.7698 0.0
H472 H 0.88784 0.87698 0.85436 0.0
C473 C 0.00612 0.87923 0.75394 0.0
C474 C 0.99433 0.86299 0.77452 0.0
H475 H 0.98986 0.90724 0.75558 0.0
H476 H 0.04138 0.88013 0.72694 0.0
C477 C 0.94754 0.86221 0.80902 0.0
C478 C 0.07699 0.32331 0.75909 0.0
C479 C 0.12122 0.33806 0.75516 0.0
H480 H 0.0641 0.29757 0.78641 0.0
C481 C 0.19211 0.3365 0.76661 0.0
H482 H 0.02238 0.32409 0.7501 0.0
C483 C 0.21591 0.32131 0.78692 0.0
C484 C 0.16944 0.30744 0.79541 0.0
H485 H 0.22782 0.34756 0.76327 0.0
H486 H 0.26838 0.3212 0.80001 0.0
C487 C 0.10114 0.30803 0.77916 0.0
C488 C 0.0541 0.59091 0.6783 0.0
C489 C 0.00532 0.57778 0.68925 0.0
H490 H 0.07922 0.61851 0.68064 0.0
C491 C 0.94988 0.5818 0.71677 0.0
H492 H 0.09644 0.58806 0.65633 0.0
C493 C 0.9402 0.59904 0.73085 0.0
C494 C 0.98483 0.61261 0.71662 0.0
H495 H 0.91125 0.57184 0.725 0.0
H496 H 0.89473 0.60189 0.75034 0.0
C497 C 0.04368 0.60831 0.69174 0.0
C498 C 0.79947 0.11455 0.58193 0.0
C499 C 0.81053 0.11552 0.62594 0.0
H500 H 0.78701 0.12921 0.52397 0.0
C501 C 0.80664 0.13187 0.64664 0.0
H502 H 0.8024 0.10201 0.5655 0.0
C503 C 0.79511 0.14725 0.62329 0.0
C504 C 0.78986 0.14648 0.57882 0.0
H505 H 0.81468 0.13281 0.6807 0.0
H506 H 0.79563 0.15984 0.63964 0.0
C507 C 0.79052 0.13002 0.55833 0.0
C508 C 0.94424 0.11889 0.16586 0.0
C509 C 0.99417 0.13005 0.14668 0.0
H510 H 0.89545 0.09348 0.16618 0.0
C511 C 0.0414 0.12295 0.1169 0.0
H512 H 0.90745 0.12386 0.18923 0.0
C513 C 0.03531 0.10525 0.10443 0.0
C514 C 0.98129 0.09466 0.12118 0.0
H515 H 0.0806 0.13123 0.10181 0.0
H516 H 0.06927 0.10026 0.07953 0.0
C517 C 0.93741 0.10144 0.15289 0.0
C518 C 0.89268 0.65329 0.20484 0.0
C519 C 0.95824 0.64624 0.21574 0.0
H520 H 0.8378 0.67398 0.17229 0.0
C521 C 0.01947 0.65539 0.20438 0.0
H522 H 0.84474 0.64646 0.21344 0.0
C523 C 0.01548 0.67076 0.1802 0.0
C524 C 0.95021 0.67747 0.168 0.0
H525 H 0.07065 0.65023 0.21231 0.0
H526 H 0.06357 0.6772 0.17022 0.0
C527 C 0.88866 0.66899 0.18155 0.0
C528 C 0.47818 0.36832 0.93611 0.0
C529 C 0.51931 0.36779 0.97304 0.0
H530 H 0.4383 0.35362 0.88329 0.0
C531 C 0.537 0.35134 0.99074 0.0
H532 H 0.46336 0.3808 0.92193 0.0
C533 C 0.52063 0.33575 0.96918 0.0
C534 C 0.48748 0.33653 0.92952 0.0
H535 H 0.56797 0.35058 0.0195 0.0
H536 H 0.54079 0.32334 0.98111 0.0
C537 C 0.46316 0.35278 0.9142 0.0
C538 C 0.46825 0.89559 0.98558 0.0
C539 C 0.52675 0.88706 0.00279 0.0
H540 H 0.43189 0.91423 0.9396 0.0
C541 C 0.59425 0.89371 -0.00599 0.0
H542 H 0.41568 0.89085 -0.00799 0.0
C543 C 0.60338 0.90733 0.96447 0.0
C544 C 0.54511 0.91418 0.9433 0.0
H545 H 0.64021 0.88745 0.00731 0.0
H546 H 0.65593 0.91123 0.95522 0.0
C547 C 0.47748 0.90894 0.95559 0.0
C548 C 0.44077 0.82089 0.41739 0.0
C549 C 0.46697 0.80456 0.43093 0.0
H550 H 0.44574 0.84895 0.42359 0.0
C551 C 0.51313 0.80388 0.46545 0.0
H552 H 0.40612 0.82164 0.39019 0.0
C553 C 0.53757 0.81952 0.48381 0.0
C554 C 0.5154 0.83598 0.46808 0.0
H555 H 0.53514 0.7914 0.47561 0.0
H556 H 0.57657 0.81875 0.5087 0.0
C557 C 0.46411 0.83649 0.43618 0.0
C558 C 0.73148 0.39804 0.45672 0.0
C559 C 0.67408 0.39412 0.48322 0.0
H560 H 0.78282 0.41771 0.41876 0.0
C561 C 0.63328 0.40799 0.49932 0.0
H562 H 0.76459 0.38762 0.44447 0.0
C563 C 0.64427 0.4252 0.48511 0.0
C564 C 0.69585 0.42878 0.45432 0.0
H565 H 0.58979 0.40542 0.5207 0.0
H566 H 0.60827 0.43538 0.49538 0.0
C567 C 0.74236 0.41531 0.44233 0.0
C568 C 0.47956 0.63444 0.00834 0.0
C569 C 0.51943 0.62134 0.02861 0.0
H570 H 0.44788 0.66147 0.00795 0.0
C571 C 0.56849 0.62639 0.05965 0.0
H572 H 0.44195 0.63106 0.98391 0.0
C573 C 0.57292 0.64405 0.07272 0.0
C574 C 0.52785 0.6567 0.05511 0.0
H575 H 0.60019 0.61659 0.07562 0.0
H576 H 0.60703 0.6475 0.09894 0.0
C577 C 0.48323 0.6519 0.0218 0.0
C578 C 0.43516 0.09234 0.13462 0.0
C579 C 0.38066 0.09886 0.10953 0.0
H580 H 0.47728 0.07028 0.16769 0.0
C581 C 0.32251 0.08814 0.10065 0.0
H582 H 0.48077 0.10042 0.14131 0.0
C583 C 0.32117 0.0706 0.11479 0.0
C584 C 0.37746 0.06386 0.13845 0.0
H585 H 0.2806 0.09294 0.0806 0.0
H586 H 0.27735 0.06222 0.10626 0.0
C587 C 0.43324 0.07507 0.14938 0.0
C588 C 0.51941 0.08906 0.61245 0.0
C589 C 0.49465 0.08622 0.57098 0.0
H590 H 0.52454 0.10714 0.66478 0.0
C591 C 0.47101 0.1007 0.54695 0.0
H592 H 0.53813 0.07817 0.63164 0.0
C593 C 0.46422 0.11728 0.56579 0.0
C594 C 0.4813 0.11954 0.6087 0.0
H595 H 0.45229 0.09892 0.51472 0.0
H596 H 0.43933 0.12782 0.54812 0.0
C597 C 0.51212 0.10563 0.63134 0.0
C598 C 0.36152 0.58382 0.54072 0.0
C599 C 0.42663 0.59026 0.52638 0.0
H600 H 0.30775 0.56384 0.57702 0.0
C601 C 0.48759 0.58065 0.53514 0.0
H602 H 0.31375 0.59099 0.53415 0.0
C603 C 0.48424 0.56553 0.56022 0.0
C604 C 0.41972 0.55948 0.57598 0.0
H605 H 0.53844 0.58531 0.52453 0.0
H606 H 0.53243 0.55879 0.56823 0.0
C607 C 0.35798 0.56833 0.56497 0.0
C608 C 0.47821 0.33252 0.34673 0.0
C609 C 0.45381 0.3315 0.38894 0.0
H610 H 0.45197 0.33191 0.28051 0.0
C611 C 0.38253 0.32797 0.39636 0.0
H612 H 0.53288 0.3352 0.33997 0.0
C613 C 0.33637 0.32582 0.36226 0.0
C614 C 0.36039 0.32741 0.32007 0.0
H615 H 0.36226 0.32701 0.42853 0.0
H616 H 0.28149 0.32342 0.369 0.0
C617 C 0.43189 0.33063 0.31266 0.0
C618 C 0.89593 0.88943 0.36951 0.0
C619 C 0.87079 0.89353 0.32862 0.0
H620 H 0.87051 0.88505 0.43536 0.0
C621 C 0.79962 0.89767 0.32382 0.0
H622 H 0.95049 0.88611 0.37422 0.0
C623 C 0.75413 0.89721 0.35874 0.0
C624 C 0.77843 0.89238 0.39933 0.0
H625 H 0.77859 0.90093 0.29281 0.0
H626 H 0.69932 0.90013 0.35356 0.0
C627 C 0.8501 0.88876 0.4045 0.0
C628 C 0.27609 0.94931 0.80142 0.0
C629 C 0.32164 0.95438 0.8342 0.0
H630 H 0.1706 0.94354 0.7834 0.0
C631 C 0.29369 0.95872 0.87429 0.0
H632 H 0.29622 0.94587 0.77024 0.0
C633 C 0.22189 0.95703 0.88211 0.0
C634 C 0.17674 0.95128 0.84977 0.0
H635 H 0.32766 0.96255 0.90026 0.0
H636 H 0.20196 0.95988 0.91368 0.0
C637 C 0.20423 0.94792 0.80903 0.0
C638 C 0.82323 0.28226 0.84833 0.0
C639 C 0.77836 0.28614 0.8825 0.0
H640 H 0.92714 0.276 0.8283 0.0
C641 C 0.80517 0.28636 0.92408 0.0
H642 H 0.80375 0.28188 0.81599 0.0
C643 C 0.87655 0.28331 0.9311 0.0
C644 C 0.9213 0.27947 0.89674 0.0
H645 H 0.77143 0.28932 0.9509 0.0
H646 H 0.89674 0.28398 0.96324 0.0
C647 C 0.89374 0.27875 0.85543 0.0
C648 C 0.74613 0.66433 0.5918 0.0
C649 C 0.73118 0.66456 0.63566 0.0
H650 H 0.7063 0.66128 0.52862 0.0
C651 C 0.66116 0.66291 0.64907 0.0
H652 H 0.79948 0.6656 0.58036 0.0
C653 C 0.60754 0.66057 0.61927 0.0
C654 C 0.62294 0.65968 0.5755 0.0
H655 H 0.6479 0.66308 0.68261 0.0
H656 H 0.55432 0.65892 0.63064 0.0
C657 C 0.69269 0.66185 0.56209 0.0
C658 C 0.13791 0.0509 0.66639 0.0
C659 C 0.07728 0.05111 0.64112 0.0
H660 H 0.24861 0.04648 0.66888 0.0
C661 C 0.08239 0.04618 0.59815 0.0
H662 H 0.13554 0.05456 0.69969 0.0
C663 C 0.14722 0.04173 0.58043 0.0
C664 C 0.20809 0.04187 0.60548 0.0
H665 H 0.03661 0.0462 0.57787 0.0
H666 H 0.14977 0.0384 0.54694 0.0
C667 C 0.2026 0.0462 0.64882 0.0
C668 C 0.67077 0.00494 0.13931 0.0
C669 C 0.6116 0.00501 0.11277 0.0
H670 H 0.77825 0.01243 0.14671 0.0
C671 C 0.61924 0.0105 0.07027 0.0
H672 H 0.66666 0.00068 0.17216 0.0
C673 C 0.68294 0.01743 0.05588 0.0
C674 C 0.74028 0.01884 0.0836 0.0
H675 H 0.57478 0.01066 0.04895 0.0
H676 H 0.68612 0.0225 0.02366 0.0
C677 C 0.73465 0.01174 0.12479 0.0
C678 C 0.18712 0.73823 0.14455 0.0
C679 C 0.1635 0.73935 0.10232 0.0
H680 H 0.27283 0.73198 0.18566 0.0
C681 C 0.21284 0.73888 0.06903 0.0
H682 H 0.15047 0.73862 0.17092 0.0
C683 C 0.28318 0.73528 0.07755 0.0
C684 C 0.30482 0.73182 0.11941 0.0
H685 H 0.1962 0.73985 0.03617 0.0
H686 H 0.31895 0.73357 0.05105 0.0
C687 C 0.25718 0.73432 0.15301 0.0
C688 C 0.39239 0.82292 0.87326 0.0
C689 C 0.3697 0.81896 0.91486 0.0
H690 H 0.36458 0.82491 0.80723 0.0
C691 C 0.30123 0.81261 0.92096 0.0
H692 H 0.44484 0.82789 0.86756 0.0
C693 C 0.25572 0.81077 0.88655 0.0
C694 C 0.27719 0.81541 0.84515 0.0
H695 H 0.28219 0.80936 0.95255 0.0
H696 H 0.20285 0.80619 0.89271 0.0
C697 C 0.34641 0.82126 0.83873 0.0
C698 C 0.77845 0.41178 0.8594 0.0
C699 C 0.79905 0.41101 0.9023 0.0
H700 H 0.80863 0.40897 0.79406 0.0
C701 C 0.86956 0.40745 0.91171 0.0
H702 H 0.72453 0.41444 0.851 0.0
C703 C 0.91812 0.40451 0.8789 0.0
C704 C 0.89691 0.4048 0.83605 0.0
H705 H 0.88711 0.40677 0.94443 0.0
H706 H 0.9719 0.40159 0.88714 0.0
C707 C 0.82664 0.40859 0.82671 0.0
C708 C 0.39003 0.46793 0.40043 0.0
C709 C 0.42216 0.46472 0.36089 0.0
H710 H 0.2957 0.46629 0.43757 0.0
C711 C 0.38154 0.45827 0.32713 0.0
H712 H 0.4204 0.47273 0.42711 0.0
C713 C 0.31021 0.45489 0.33291 0.0
C714 C 0.27866 0.45742 0.37289 0.0
H715 H 0.40515 0.45563 0.29639 0.0
H716 H 0.28021 0.44978 0.30641 0.0
C717 C 0.319 0.46409 0.40655 0.0
C718 C 0.7399 0.75022 0.4088 0.0
C719 C 0.71377 0.75047 0.36703 0.0
H720 H 0.83063 0.75069 0.44854 0.0
C721 C 0.76078 0.74915 0.33272 0.0
H722 H 0.70491 0.7511 0.43592 0.0
C723 C 0.83293 0.74858 0.34006 0.0
C724 C 0.85906 0.7496 0.38177 0.0
H725 H 0.74197 0.74914 0.30022 0.0
H726 H 0.86822 0.74839 0.31299 0.0
C727 C 0.81188 0.74994 0.41608 0.0
C728 C 0.68732 0.18633 0.12078 0.0
C729 C 0.74736 0.18328 0.09586 0.0
H730 H 0.57703 0.18235 0.12799 0.0
C731 C 0.73994 0.17528 0.05584 0.0
H732 H 0.69134 0.19256 0.15169 0.0
C733 C 0.67434 0.16929 0.04239 0.0
C734 C 0.61512 0.1713 0.06865 0.0
H735 H 0.78526 0.17275 0.03596 0.0
H736 H 0.67061 0.16247 0.0122 0.0
C737 C 0.62181 0.18043 0.10727 0.0
C738 C 0.19611 0.57227 0.09329 0.0
C739 C 0.2652 0.57051 0.10799 0.0
H740 H 0.08855 0.57668 0.10966 0.0
C741 C 0.27772 0.571 0.15203 0.0
H742 H 0.18474 0.57189 0.05955 0.0
C743 C 0.22276 0.57382 0.18067 0.0
C744 C 0.15397 0.5761 0.16594 0.0
H745 H 0.33031 0.56965 0.16441 0.0
H746 H 0.23448 0.57457 0.21434 0.0
C747 C 0.14099 0.57497 0.12201 0.0
C748 C 0.77056 0.50278 0.65734 0.0
C749 C 0.79271 0.5076 0.61623 0.0
H750 H 0.68336 0.49722 0.69823 0.0
C751 C 0.74409 0.50721 0.58275 0.0
H752 H 0.8069 0.50282 0.68374 0.0
C753 C 0.6734 0.5037 0.59096 0.0
C754 C 0.65015 0.5008 0.63288 0.0
H755 H 0.75987 0.51067 0.55064 0.0
H756 H 0.63635 0.50475 0.56505 0.0
C757 C 0.69979 0.49954 0.66565 0.0
C758 C 0.06204 0.18319 0.63791 0.0
C759 C 0.06048 0.19011 0.59645 0.0
H760 H 0.12458 0.17158 0.68692 0.0
C761 C 0.12332 0.1918 0.57343 0.0
H762 H 0.01423 0.18163 0.65621 0.0
C763 C 0.18643 0.18621 0.59109 0.0
C764 C 0.18753 0.17852 0.63175 0.0
H765 H 0.12351 0.19709 0.54137 0.0
H766 H 0.23393 0.18739 0.57234 0.0
C767 C 0.12501 0.1773 0.65529 0.0
C768 C 0.03542 0.24975 0.14565 0.0
C769 C 0.0868 0.23786 0.15966 0.0
H770 H 1.002 0.27656 0.14171 0.0
C771 C 0.14756 0.24457 0.17909 0.0
H772 H 0.98795 0.24505 0.13059 0.0
C773 C 0.15537 0.26271 0.18589 0.0
C774 C 0.10268 0.27451 0.17328 0.0
H775 H 0.18805 0.23577 0.19044 0.0
H776 H 0.20222 0.26743 0.20158 0.0
C777 C 0.04325 0.26784 0.15237 0.0
C778 C 0.141 0.94345 0.20033 0.0
C779 C 0.17805 0.92877 0.18507 0.0
H780 H 0.1387 0.97139 0.20825 0.0
C781 C 0.24433 0.93135 0.16637 0.0
H782 H 0.08961 0.94194 0.21461 0.0
C783 C 0.27274 0.94832 0.16281 0.0
C784 C 0.23489 0.96301 0.17733 0.0
H785 H 0.27407 0.92028 0.15423 0.0
H786 H 0.32392 0.94993 0.14833 0.0
C787 C 0.16888 0.96037 0.19625 0.0
C788 C 0.93291 0.0037 0.98231 0.0
C789 C 0.98596 0.01446 0.96491 0.0
H790 H 0.8558 0.98381 0.97146 0.0
C791 C 0.99934 0.01363 0.92095 0.0
H792 H 0.91997 0.00425 0.01588 0.0
C793 C 0.96195 0.00186 0.89525 0.0
C794 C 0.90992 -0.00915 0.91295 0.0
H795 H 0.039 0.02197 0.9065 0.0
H796 H 0.97509 0.00104 0.86174 0.0
C797 C 0.89499 -0.00782 0.95662 0.0
C798 C 0.32236 0.20307 -0.00596 0.0
C799 C 0.26541 0.19151 0.00033 0.0
H800 H 0.35901 0.22737 0.9677 0.0
C801 C 0.19849 0.19675 0.98687 0.0
H802 H 0.37466 0.1996 0.00427 0.0
C803 C 0.18955 0.21295 0.96601 0.0
C804 C 0.24755 0.22396 0.95779 0.0
H805 H 0.15365 0.18814 -0.00878 0.0
H806 H 0.13777 0.21659 0.95515 0.0
C807 C 0.31364 0.21899 0.97272 0.0
C808 C 0.0822 0.7307 0.72587 0.0
C809 C 0.01957 0.72151 0.71787 0.0
H810 H 0.13093 0.75575 0.737 0.0
C811 C 0.95711 0.73112 0.71347 0.0
H812 H 0.13113 0.72369 0.72971 0.0
C813 C 0.95684 0.74941 0.71809 0.0
C814 C 0.01905 0.75858 0.72714 0.0
H815 H 0.90785 0.72447 0.70737 0.0
H816 H 0.90759 0.75633 0.71481 0.0
C817 C 0.08193 0.74906 0.73048 0.0
C818 C 0.63994 0.00074 0.76179 0.0
C819 C 0.6921 -0.01021 0.77892 0.0
H820 H 0.61623 0.02478 0.72937 0.0
C821 C 0.76272 -0.00532 0.77415 0.0
H822 H 0.58502 -0.0027 0.7646 0.0
C823 C 0.78065 0.01041 0.75347 0.0
C824 C 0.72828 0.02159 0.73744 0.0
H825 H 0.80417 0.98647 0.7867 0.0
H826 H 0.83546 0.01402 0.75119 0.0
C827 C 0.65782 0.01647 0.74137 0.0
C828 C 0.76132 0.79406 0.06868 0.0
C829 C 0.69182 0.79418 0.05417 0.0
H830 H 0.84986 0.7784 0.086 0.0
C831 C 0.65887 0.77812 0.04422 0.0
H832 H 0.78796 0.80627 0.07658 0.0
C833 C 0.69373 0.76219 0.05041 0.0
C834 C 0.7626 0.76204 0.06595 0.0
H835 H 0.60514 0.77779 0.03326 0.0
H836 H 0.66648 0.74998 0.04333 0.0
C837 C 0.79664 0.77813 0.07417 0.0
C838 C 0.19577 0.46817 0.69956 0.0
C839 C 0.26536 0.47062 0.68599 0.0
H840 H 0.11564 0.44969 0.71711 0.0
C841 C 0.30887 0.45583 0.68141 0.0
H842 H 0.1611 0.47934 0.70375 0.0
C843 C 0.2829 0.43891 0.68906 0.0
C844 C 0.21297 0.4364 0.70178 0.0
H845 H 0.36286 0.45725 0.67126 0.0
H846 H 0.31746 0.42776 0.68436 0.0
C847 C 0.1699 0.45122 0.7076 0.0
C848 C 0.05972 0.49909 0.44879 0.0
C849 C 0.00437 0.48723 0.45674 0.0
H850 H 0.13655 0.51653 0.47521 0.0
C851 C 0.98414 0.48401 0.49912 0.0
H852 H 0.07716 0.50172 0.41654 0.0
C853 C 0.01935 0.4921 0.53272 0.0
C854 C 0.07514 0.50385 0.52487 0.0
H855 H 0.94242 0.47477 0.50656 0.0
H856 H 1.00197 0.48931 0.5649 0.0
C857 C 0.0946 0.50734 0.48246 0.0
C858 C 0.21422 0.69048 0.45452 0.0
C859 C 0.28608 0.68771 0.46106 0.0
H860 H 0.13426 0.70853 0.43586 0.0
C861 C 0.33284 0.7019 0.45543 0.0
H862 H 0.17687 0.67981 0.45855 0.0
C863 C 0.30854 0.71832 0.44186 0.0
C864 C 0.23692 0.72092 0.43401 0.0
H865 H 0.38862 0.70018 0.45993 0.0
H866 H 0.34606 0.72889 0.43694 0.0
C867 C 0.18987 0.70692 0.44126 0.0
C868 C 0.84213 0.5174 0.28507 0.0
C869 C 0.77913 0.51436 0.3071 0.0
H870 H 0.91021 0.53626 0.256 0.0
C871 C 0.73287 0.52851 0.31365 0.0
H872 H 0.87839 0.50674 0.27881 0.0
C873 C 0.75115 0.54555 0.30046 0.0
C874 C 0.8158 0.5487 0.28022 0.0
H875 H 0.68355 0.52653 0.33013 0.0
H876 H 0.71587 0.55632 0.30761 0.0
C877 C 0.86008 0.53435 0.27159 0.0
C878 C 0.68766 0.25865 0.50415 0.0
C879 C 0.7501 0.2514 0.51979 0.0
H880 H 0.63078 0.28195 0.4887 0.0
C881 C 0.805 0.2628 0.53151 0.0
H882 H 0.64453 0.25026 0.49448 0.0
C883 C 0.7972 0.28109 0.52802 0.0
C884 C 0.73443 0.2883 0.51265 0.0
H885 H 0.85399 0.25761 0.54339 0.0
H886 H 0.83999 0.28956 0.53783 0.0
C887 C 0.67998 0.27686 0.50054 0.0
C888 C 0.53442 0.23191 0.79626 0.0
C889 C 0.46967 0.24051 0.8016 0.0
H890 H 0.58924 0.20974 0.77034 0.0
C891 C 0.409 0.23261 0.7852 0.0
H892 H 0.58231 0.23766 0.80845 0.0
C893 C 0.41319 0.21669 0.76305 0.0
C894 C 0.47813 0.20828 0.75687 0.0
H895 H 0.35842 0.2389 0.78858 0.0
H896 H 0.36532 0.21105 0.75053 0.0
C897 C 0.5386 0.21596 0.77413 0.0
C898 C 0.57579 0.96807 0.53919 0.0
C899 C 0.51245 0.97691 0.54706 0.0
H900 H 0.62601 0.94367 0.52442 0.0
C901 C 0.44971 0.96713 0.54734 0.0
H902 H 0.62507 0.97519 0.5385 0.0
C903 C 0.45018 0.94902 0.5389 0.0
C904 C 0.51338 0.94029 0.52991 0.0
H905 H 0.39991 0.97353 0.55304 0.0
H906 H 0.4009 0.9419 0.53907 0.0
C907 C 0.57623 0.95 0.53064 0.0
C908 C 0.45437 0.73027 0.24149 0.0
C909 C 0.46482 0.72368 0.28287 0.0
H910 H 0.49621 0.73381 0.17892 0.0
C911 C 0.52645 0.71414 0.29129 0.0
H912 H 0.40824 0.7379 0.23371 0.0
C913 C 0.57701 0.71166 0.25939 0.0
C914 C 0.5671 0.71871 0.21838 0.0
H915 H 0.53656 0.70904 0.3229 0.0
H916 H 0.62384 0.70427 0.26694 0.0
C917 C 0.50523 0.72805 0.20999 0.0
C918 C 0.48711 0.48352 0.02803 0.0
C919 C 0.54777 0.47413 0.01681 0.0
H920 H 0.44042 0.50864 0.0394 0.0
C921 C 0.61036 0.48355 0.00971 0.0
H922 H 0.43814 0.47671 0.03416 0.0
C923 C 0.61181 0.50198 0.01305 0.0
C924 C 0.55069 0.51135 0.02353 0.0
H925 H 0.65822 0.47671 0.00143 0.0
H926 H 0.66043 0.50888 0.00651 0.0
C927 C 0.48856 0.50187 0.03137 0.0
C928 C 0.21727 0.33915 0.03421 0.0
C929 C 0.25504 0.33374 0.07022 0.0
H930 H 0.18933 0.33302 0.97005 0.0
C931 C 0.3097 0.32146 0.06512 0.0
H932 H 0.1759 0.34885 0.03684 0.0
C933 C 0.31783 0.31254 0.02648 0.0
C934 C 0.2716 0.31596 -0.00701 0.0
H935 H 0.34039 0.31718 0.09215 0.0
H936 H 0.35445 0.30166 0.02451 0.0
C937 C 0.22484 0.33011 -0.00404 0.0
C938 C 0.89002 0.89639 0.00239 0.0
C939 C 0.88867 0.91492 0.00057 0.0
H940 H 0.91636 0.87357 0.03958 0.0
C941 C 0.90363 0.92471 0.03727 0.0
H942 H 0.87926 0.8886 0.97426 0.0
C943 C 0.92222 0.91611 0.07491 0.0
C944 C 0.92865 0.89764 0.07584 0.0
H945 H 0.90305 0.93901 0.03644 0.0
H946 H 0.93635 0.92397 0.10239 0.0
C947 C 0.91122 0.88781 0.03958 0.0
C948 C 0.85972 0.67726 0.88924 0.0
C949 C 0.92737 0.67744 0.87154 0.0
H950 H 0.79604 0.68312 0.94378 0.0
C951 C 0.98361 0.68368 0.89608 0.0
H952 H 0.81549 0.67251 0.871 0.0
C953 C 0.97236 0.69001 0.93706 0.0
C954 C 0.90486 0.68994 0.95477 0.0
H955 H 0.03633 0.6841 0.88326 0.0
H956 H 0.01673 0.69493 0.95494 0.0
C957 C 0.84866 0.68329 0.9308 0.0
C958 C 0.80811 0.08312 0.86643 0.0
C959 C 0.85537 0.08858 0.83472 0.0
H960 H 0.79507 0.07568 0.93182 0.0
C961 C 0.92325 0.0938 0.84615 0.0
H962 H 0.75559 0.07892 0.8582 0.0
C963 C 0.94539 0.0923 0.88822 0.0
C964 C 0.90052 0.08508 0.91926 0.0
H965 H 0.96044 0.09808 0.8221 0.0
H966 H 0.9994 0.09543 0.89558 0.0
C967 C 0.83082 0.08118 0.90842 0.0
C968 C 0.17662 0.81175 0.58242 0.0
C969 C 0.10831 0.81571 0.59629 0.0
H970 H 0.24055 0.8018 0.53146 0.0
C971 C 0.05291 0.81473 0.56697 0.0
H972 H 0.22042 0.81246 0.60417 0.0
C973 C 0.06424 0.80832 0.52611 0.0
C974 C 0.1314 0.80316 0.51326 0.0
H975 H 0.9997 0.81786 0.57626 0.0
H976 H 0.01986 0.80678 0.505 0.0
C977 C 0.18818 0.80565 0.54092 0.0
C978 C 0.97473 0.41394 0.58384 0.0
C979 C 0.99732 0.39633 0.58632 0.0
H980 H 0.95151 0.4358 0.54287 0.0
C981 C 0.00349 0.38637 0.54882 0.0
H982 H 0.97047 0.42198 0.61222 0.0
C983 C 0.99078 0.39419 0.50927 0.0
C984 C 0.97402 0.41217 0.50689 0.0
H985 H 0.02125 0.37281 0.55 0.0
H986 H 0.99869 0.38656 0.48053 0.0
C987 C 0.96439 0.42189 0.54431 0.0
C988 C 0.86065 0.18679 0.3097 0.0
C989 C 0.93364 0.18549 0.30431 0.0
H990 H 0.77516 0.18879 0.3537 0.0
C991 C 0.97691 0.185 0.34021 0.0
H992 H 0.82597 0.18704 0.28248 0.0
C993 C 0.94784 0.18618 0.3808 0.0
C994 C 0.87492 0.18758 0.38621 0.0
H995 H 0.03325 0.18397 0.33693 0.0
H996 H 0.98258 0.18595 0.408 0.0
C997 C 0.83146 0.18769 0.35037 0.0
C998 C 0.01339 0.59163 0.47923 0.0
C999 C 0.02651 0.5735 0.48374 0.0
H1000 H 0.98783 0.61264 0.43598 0.0
C1001 C 0.02982 0.56275 0.44756 0.0
H1002 H 0.01087 0.60011 0.50693 0.0
C1003 C 0.01956 0.56997 0.40731 0.0
C1004 C 0.00361 0.58795 0.40268 0.0
H1005 H 0.04054 0.54876 0.45044 0.0
H1006 H 0.02121 0.5613 0.37991 0.0
C1007 C 1.00055 0.59877 0.43889 0.0
C1008 C 0.60413 0.33869 0.67771 0.0
C1009 C 0.56171 0.33643 0.64169 0.0
H1010 H 0.61814 0.33346 0.74383 0.0
C1011 C 0.49472 0.32885 0.64669 0.0
H1012 H 0.65559 0.34467 0.67525 0.0
C1013 C 0.47282 0.32257 0.68657 0.0
C1014 C 0.51812 0.3236 0.72154 0.0
H1015 H 0.46063 0.32703 0.61956 0.0
H1016 H 0.42254 0.316 0.68946 0.0
C1017 C 0.58279 0.33223 0.71706 0.0
C1018 C 0.68106 0.89281 0.66228 0.0
C1019 C 0.61724 0.88501 0.65005 0.0
H1020 H 0.73507 0.90782 0.71005 0.0
C1021 C 0.56287 0.88363 0.68023 0.0
H1022 H 0.72408 0.89399 0.6399 0.0
C1023 C 0.56869 0.89187 0.7196 0.0
C1024 C 0.62967 0.90117 0.7301 0.0
H1025 H 0.51339 0.87746 0.67227 0.0
H1026 H 0.52397 0.89181 0.74094 0.0
C1027 C 0.68738 0.90076 0.70234 0.0
C1028 C 0.41836 0.65058 0.30599 0.0
C1029 C 0.46981 0.64602 0.33592 0.0
H1030 H 0.39686 0.6618 0.24476 0.0
C1031 C 0.54077 0.64799 0.32512 0.0
H1032 H 0.36321 0.64937 0.31371 0.0
C1033 C 0.55993 0.65476 0.28538 0.0
C1034 C 0.50841 0.66012 0.25628 0.0
H1035 H 0.58137 0.64462 0.3477 0.0
H1036 H 0.61503 0.65652 0.27817 0.0
C1037 C 0.4375 0.6578 0.26672 0.0
C1038 C 0.48212 0.02394 0.36914 0.0
C1039 C 0.43159 0.02917 0.39906 0.0
H1040 H 0.50252 0.01638 0.30471 0.0
C1041 C 0.36154 0.03102 0.38636 0.0
H1042 H 0.53639 0.02231 0.37823 0.0
C1043 C 0.34226 0.02772 0.34446 0.0
C1044 C 0.39249 0.02228 0.31461 0.0
H1045 H 0.3215 0.03506 0.40881 0.0
H1046 H 0.28789 0.02934 0.33555 0.0
C1047 C 0.4626 0.02039 0.32726 0.0
C1048 C 0.4195 0.82326 0.20429 0.0
C1049 C 0.43336 0.81543 0.16472 0.0
H1050 H 0.39684 0.81896 0.27041 0.0
C1051 C 0.42935 0.79697 0.16072 0.0
H1052 H 0.42274 0.83745 0.20809 0.0
C1053 C 0.41716 0.78643 0.19644 0.0
C1054 C 0.40628 0.79424 0.2363 0.0
H1055 H 0.44069 0.79061 0.13061 0.0
H1056 H 0.41853 0.7722 0.19322 0.0
C1057 C 0.40472 0.81272 0.23976 0.0
C1058 C 0.5981 0.41933 0.18336 0.0
C1059 C 0.64747 0.41706 0.15051 0.0
H1060 H 0.57942 0.42769 0.24731 0.0
C1061 C 0.71891 0.41944 0.15952 0.0
H1062 H 0.54265 0.41749 0.17767 0.0
C1063 C 0.74002 0.42517 0.19976 0.0
C1064 C 0.68995 0.4288 0.23144 0.0
H1065 H 0.75826 0.41767 0.13499 0.0
H1066 H 0.79513 0.42768 0.20524 0.0
C1067 C 0.61909 0.42526 0.2233 0.0
C1068 C 0.46085 0.12391 0.8415 0.0
C1069 C 0.40602 0.12775 0.8133 0.0
H1070 H 0.49063 0.12008 0.90634 0.0
C1071 C 0.33647 0.12678 0.82802 0.0
H1072 H 0.51495 0.12427 0.83104 0.0
C1073 C 0.32257 0.12412 0.8712 0.0
C1074 C 0.37812 0.12263 0.90008 0.0
H1075 H 0.29304 0.12937 0.80684 0.0
H1076 H 0.26892 0.12494 0.88234 0.0
C1077 C 0.447 0.1215 0.88464 0.0
C1078 C 0.37333 0.55739 0.86034 0.0
C1079 C 0.4439 0.55789 0.87294 0.0
H1080 H 0.30055 0.55105 0.81074 0.0
C1081 C 0.49601 0.55273 0.84393 0.0
H1082 H 0.33211 0.56134 0.88206 0.0
C1083 C 0.47795 0.54659 0.80371 0.0
C1084 C 0.40747 0.54576 0.79131 0.0
H1085 H 0.55083 0.5529 0.85269 0.0
H1086 H 0.51934 0.5424 0.78235 0.0
C1087 C 0.35529 0.55153 0.81961 0.0
loop_
_geom_bond_atom_site_label_1
_geom_bond_atom_site_label_2
_geom_bond_distance
_geom_bond_site_symmetry_2
_ccdc_geom_bond_type
C0 O1 1.306 1_455 S
C0 O3 1.160 . S
O1 C0 1.306 1_655 S
O1 Cd2 2.228 . S
Cd2 O1 2.228 . S
Cd2 O6 2.273 1_655 S
Cd2 O10 2.277 1_655 S
O3 C0 1.160 . S
O3 Cd4 2.203 . S
Cd4 O3 2.203 . S
Cd4 O6 2.411 . S
Cd4 O7 2.333 . S
Cd4 O8 2.352 . S
Cd4 O12 2.277 . S
Cd4 O13 2.356 . S
C5 O10 1.209 . S
C5 O12 1.226 . S
O6 Cd2 2.273 1_455 S
O6 Cd4 2.411 . S
O6 C9 1.320 . S
O7 Cd4 2.333 . S
O7 C9 1.214 . S
O8 Cd4 2.352 . S
O8 C11 1.258 . S
C9 O6 1.320 . S
C9 O7 1.214 . S
O10 Cd2 2.277 1_455 S
O10 C5 1.209 . S
C11 O8 1.258 . S
C11 O13 1.282 . S
O12 Cd4 2.277 . S
O12 C5 1.226 . S
O13 Cd4 2.356 . S
O13 C11 1.282 . S
C14 O15 1.306 . S
C14 O17 1.160 . S
O15 C14 1.306 . S
O15 Cd16 2.228 . S
Cd16 O15 2.228 . S
Cd16 O20 2.273 . S
Cd16 O24 2.277 . S
O17 C14 1.160 . S
O17 Cd18 2.203 . S
Cd18 O17 2.203 . S
Cd18 O20 2.411 . S
Cd18 O21 2.333 . S
Cd18 O22 2.352 . S
Cd18 O26 2.277 . S
Cd18 O27 2.356 1_455 S
C19 O24 1.209 . S
C19 O26 1.226 . S
O20 Cd16 2.273 . S
O20 Cd18 2.411 . S
O20 C23 1.320 . S
O21 Cd18 2.333 . S
O21 C23 1.214 . S
O22 Cd18 2.352 . S
O22 C25 1.258 . S
C23 O20 1.320 . S
C23 O21 1.214 . S
O24 Cd16 2.277 . S
O24 C19 1.209 . S
C25 O22 1.258 . S
C25 O27 1.282 1_455 S
O26 Cd18 2.277 . S
O26 C19 1.226 . S
O27 Cd18 2.356 1_655 S
O27 C25 1.282 1_655 S
C28 O29 1.306 1_455 S
C28 O31 1.160 . S
O29 C28 1.306 1_655 S
O29 Cd30 2.228 . S
Cd30 O29 2.228 . S
Cd30 O34 2.273 1_655 S
Cd30 O38 2.277 1_656 S
O31 C28 1.160 . S
O31 Cd32 2.203 . S
Cd32 O31 2.203 . S
Cd32 O34 2.411 . S
Cd32 O35 2.333 . S
Cd32 O36 2.352 . S
Cd32 O40 2.277 1_556 S
Cd32 O41 2.356 . S
C33 O38 1.209 . S
C33 O40 1.226 . S
O34 Cd30 2.273 1_455 S
O34 Cd32 2.411 . S
O34 C37 1.320 . S
O35 Cd32 2.333 . S
O35 C37 1.214 . S
O36 Cd32 2.352 . S
O36 C39 1.258 . S
C37 O34 1.320 . S
C37 O35 1.214 . S
O38 Cd30 2.277 1_454 S
O38 C33 1.209 . S
C39 O36 1.258 . S
C39 O41 1.282 . S
O40 Cd32 2.277 1_554 S
O40 C33 1.226 . S
O41 Cd32 2.356 . S
O41 C39 1.282 . S
C42 O43 1.306 . S
C42 O45 1.160 . S
O43 C42 1.306 . S
O43 Cd44 2.228 . S
Cd44 O43 2.228 . S
Cd44 O48 2.273 . S
Cd44 O52 2.277 1_556 S
O45 C42 1.160 . S
O45 Cd46 2.203 . S
Cd46 O45 2.203 . S
Cd46 O48 2.411 . S
Cd46 O49 2.333 . S
Cd46 O50 2.352 . S
Cd46 O54 2.277 1_556 S
Cd46 O55 2.356 1_455 S
C47 O52 1.209 . S
C47 O54 1.226 . S
O48 Cd44 2.273 . S
O48 Cd46 2.411 . S
O48 C51 1.320 . S
O49 Cd46 2.333 . S
O49 C51 1.214 . S
O50 Cd46 2.352 . S
O50 C53 1.258 . S
C51 O48 1.320 . S
C51 O49 1.214 . S
O52 Cd44 2.277 1_554 S
O52 C47 1.209 . S
C53 O50 1.258 . S
C53 O55 1.282 1_455 S
O54 Cd46 2.277 1_554 S
O54 C47 1.226 . S
O55 Cd46 2.356 1_655 S
O55 C53 1.282 1_655 S
C56 O57 1.306 1_655 S
C56 O59 1.160 . S
O57 C56 1.306 1_455 S
O57 Cd58 2.228 . S
Cd58 O57 2.228 . S
Cd58 O62 2.273 1_455 S
Cd58 O66 2.277 1_455 S
O59 C56 1.160 . S
O59 Cd60 2.203 . S
Cd60 O59 2.203 . S
Cd60 O62 2.411 . S
Cd60 O63 2.333 . S
Cd60 O64 2.352 . S
Cd60 O68 2.277 . S
Cd60 O69 2.356 . S
C61 O66 1.209 . S
C61 O68 1.226 . S
O62 Cd58 2.273 1_655 S
O62 Cd60 2.411 . S
O62 C65 1.320 . S
O63 Cd60 2.333 . S
O63 C65 1.214 . S
O64 Cd60 2.352 . S
O64 C67 1.258 . S
C65 O62 1.320 . S
C65 O63 1.214 . S
O66 Cd58 2.277 1_655 S
O66 C61 1.209 . S
C67 O64 1.258 . S
C67 O69 1.282 . S
O68 Cd60 2.277 . S
O68 C61 1.226 . S
O69 Cd60 2.356 . S
O69 C67 1.282 . S
C70 O71 1.306 . S
C70 O73 1.160 . S
O71 C70 1.306 . S
O71 Cd72 2.228 . S
Cd72 O71 2.228 . S
Cd72 O76 2.273 . S
Cd72 O80 2.277 . S
O73 C70 1.160 . S
O73 Cd74 2.203 . S
Cd74 O73 2.203 . S
Cd74 O76 2.411 . S
Cd74 O77 2.333 . S
Cd74 O78 2.352 . S
Cd74 O82 2.277 . S
Cd74 O83 2.356 1_655 S
C75 O80 1.209 . S
C75 O82 1.226 . S
O76 Cd72 2.273 . S
O76 Cd74 2.411 . S
O76 C79 1.320 . S
O77 Cd74 2.333 . S
O77 C79 1.214 . S
O78 Cd74 2.352 . S
O78 C81 1.258 . S
C79 O76 1.320 . S
C79 O77 1.214 . S
O80 Cd72 2.277 . S
O80 C75 1.209 . S
C81 O78 1.258 . S
C81 O83 1.282 1_655 S
O82 Cd74 2.277 . S
O82 C75 1.226 . S
O83 Cd74 2.356 1_455 S
O83 C81 1.282 1_455 S
C84 O85 1.306 1_655 S
C84 O87 1.160 . S
O85 C84 1.306 1_455 S
O85 Cd86 2.228 . S
Cd86 O85 2.228 . S
Cd86 O90 2.273 1_455 S
Cd86 O94 2.277 1_454 S
O87 C84 1.160 . S
O87 Cd88 2.203 . S
Cd88 O87 2.203 . S
Cd88 O90 2.411 . S
Cd88 O91 2.333 . S
Cd88 O92 2.352 . S
Cd88 O96 2.277 1_554 S
Cd88 O97 2.356 . S
C89 O94 1.209 . S
C89 O96 1.226 . S
O90 Cd86 2.273 1_655 S
O90 Cd88 2.411 . S
O90 C93 1.320 . S
O91 Cd88 2.333 . S
O91 C93 1.214 . S
O92 Cd88 2.352 . S
O92 C95 1.258 . S
C93 O90 1.320 . S
C93 O91 1.214 . S
O94 Cd86 2.277 1_656 S
O94 C89 1.209 . S
C95 O92 1.258 . S
C95 O97 1.282 . S
O96 Cd88 2.277 1_556 S
O96 C89 1.226 . S
O97 Cd88 2.356 . S
O97 C95 1.282 . S
C98 O99 1.306 . S
C98 O101 1.160 . S
O99 C98 1.306 . S
O99 Cd100 2.228 . S
Cd100 O99 2.228 . S
Cd100 O104 2.273 . S
Cd100 O108 2.277 1_554 S
O101 C98 1.160 . S
O101 Cd102 2.203 . S
Cd102 O101 2.203 . S
Cd102 O104 2.411 . S
Cd102 O105 2.333 . S
Cd102 O106 2.352 . S
Cd102 O110 2.277 1_554 S
Cd102 O111 2.356 1_655 S
C103 O108 1.209 . S
C103 O110 1.226 . S
O104 Cd100 2.273 . S
O104 Cd102 2.411 . S
O104 C107 1.320 . S
O105 Cd102 2.333 . S
O105 C107 1.214 . S
O106 Cd102 2.352 . S
O106 C109 1.258 . S
C107 O104 1.320 . S
C107 O105 1.214 . S
O108 Cd100 2.277 1_556 S
O108 C103 1.209 . S
C109 O106 1.258 . S
C109 O111 1.282 1_655 S
O110 Cd102 2.277 1_556 S
O110 C103 1.226 . S
O111 Cd102 2.356 1_455 S
O111 C109 1.282 1_455 S
C112 O113 1.306 1_455 S
C112 O115 1.160 . S
O113 C112 1.306 1_655 S
O113 Cd114 2.228 . S
Cd114 O113 2.228 . S
Cd114 O118 2.273 1_655 S
Cd114 O122 2.277 1_655 S
O115 C112 1.160 . S
O115 Cd116 2.203 . S
Cd116 O115 2.203 . S
Cd116 O118 2.411 . S
Cd116 O119 2.333 . S
Cd116 O120 2.352 . S
Cd116 O124 2.277 . S
Cd116 O125 2.356 . S
C117 O122 1.209 . S
C117 O124 1.226 . S
O118 Cd114 2.273 1_455 S
O118 Cd116 2.411 . S
O118 C121 1.320 . S
O119 Cd116 2.333 . S
O119 C121 1.214 . S
O120 Cd116 2.352 . S
O120 C123 1.258 . S
C121 O118 1.320 . S
C121 O119 1.214 . S
O122 Cd114 2.277 1_455 S
O122 C117 1.209 . S
C123 O120 1.258 . S
C123 O125 1.282 . S
O124 Cd116 2.277 . S
O124 C117 1.226 . S
O125 Cd116 2.356 . S
O125 C123 1.282 . S
C126 O127 1.306 . S
C126 O129 1.160 . S
O127 C126 1.306 . S
O127 Cd128 2.228 . S
Cd128 O127 2.228 . S
Cd128 O132 2.273 . S
Cd128 O136 2.277 . S
O129 C126 1.160 . S
O129 Cd130 2.203 . S
Cd130 O129 2.203 . S
Cd130 O132 2.411 . S
Cd130 O133 2.333 . S
Cd130 O134 2.352 . S
Cd130 O138 2.277 . S
Cd130 O139 2.356 1_455 S
C131 O136 1.209 . S
C131 O138 1.226 . S
O132 Cd128 2.273 . S
O132 Cd130 2.411 . S
O132 C135 1.320 . S
O133 Cd130 2.333 . S
O133 C135 1.214 . S
O134 Cd130 2.352 . S
O134 C137 1.258 . S
C135 O132 1.320 . S
C135 O133 1.214 . S
O136 Cd128 2.277 . S
O136 C131 1.209 . S
C137 O134 1.258 . S
C137 O139 1.282 1_455 S
O138 Cd130 2.277 . S
O138 C131 1.226 . S
O139 Cd130 2.356 1_655 S
O139 C137 1.282 1_655 S
C140 O141 1.306 1_455 S
C140 O143 1.160 . S
O141 C140 1.306 1_655 S
O141 Cd142 2.228 . S
Cd142 O141 2.228 . S
Cd142 O146 2.273 1_655 S
Cd142 O150 2.277 1_655 S
O143 C140 1.160 . S
O143 Cd144 2.203 . S
Cd144 O143 2.203 . S
Cd144 O146 2.411 . S
Cd144 O147 2.333 . S
Cd144 O148 2.352 . S
Cd144 O152 2.277 . S
Cd144 O153 2.356 . S
C145 O150 1.209 . S
C145 O152 1.226 . S
O146 Cd142 2.273 1_455 S
O146 Cd144 2.411 . S
O146 C149 1.320 . S
O147 Cd144 2.333 . S
O147 C149 1.214 . S
O148 Cd144 2.352 . S
O148 C151 1.258 . S
C149 O146 1.320 . S
C149 O147 1.214 . S
O150 Cd142 2.277 1_455 S
O150 C145 1.209 . S
C151 O148 1.258 . S
C151 O153 1.282 . S
O152 Cd144 2.277 . S
O152 C145 1.226 . S
O153 Cd144 2.356 . S
O153 C151 1.282 . S
C154 O155 1.306 . S
C154 O157 1.160 . S
O155 C154 1.306 . S
O155 Cd156 2.228 . S
Cd156 O155 2.228 . S
Cd156 O160 2.273 . S
Cd156 O164 2.277 . S
O157 C154 1.160 . S
O157 Cd158 2.203 . S
Cd158 O157 2.203 . S
Cd158 O160 2.411 . S
Cd158 O161 2.333 . S
Cd158 O162 2.352 . S
Cd158 O166 2.277 . S
Cd158 O167 2.356 1_455 S
C159 O164 1.209 . S
C159 O166 1.226 . S
O160 Cd156 2.273 . S
O160 Cd158 2.411 . S
O160 C163 1.320 . S
O161 Cd158 2.333 . S
O161 C163 1.214 . S
O162 Cd158 2.352 . S
O162 C165 1.258 . S
C163 O160 1.320 . S
C163 O161 1.214 . S
O164 Cd156 2.277 . S
O164 C159 1.209 . S
C165 O162 1.258 . S
C165 O167 1.282 1_455 S
O166 Cd158 2.277 . S
O166 C159 1.226 . S
O167 Cd158 2.356 1_655 S
O167 C165 1.282 1_655 S
C168 O169 1.306 1_655 S
C168 O171 1.160 . S
O169 C168 1.306 1_455 S
O169 Cd170 2.228 . S
Cd170 O169 2.228 . S
Cd170 O174 2.273 1_455 S
Cd170 O178 2.277 1_455 S
O171 C168 1.160 . S
O171 Cd172 2.203 . S
Cd172 O171 2.203 . S
Cd172 O174 2.411 . S
Cd172 O175 2.333 . S
Cd172 O176 2.352 . S
Cd172 O180 2.277 . S
Cd172 O181 2.356 . S
C173 O178 1.209 . S
C173 O180 1.226 . S
O174 Cd170 2.273 1_655 S
O174 Cd172 2.411 . S
O174 C177 1.320 . S
O175 Cd172 2.333 . S
O175 C177 1.214 . S
O176 Cd172 2.352 . S
O176 C179 1.258 . S
C177 O174 1.320 . S
C177 O175 1.214 . S
O178 Cd170 2.277 1_655 S
O178 C173 1.209 . S
C179 O176 1.258 . S
C179 O181 1.282 . S
O180 Cd172 2.277 . S
O180 C173 1.226 . S
O181 Cd172 2.356 . S
O181 C179 1.282 . S
C182 O183 1.306 . S
C182 O185 1.160 . S
O183 C182 1.306 . S
O183 Cd184 2.228 . S
Cd184 O183 2.228 . S
Cd184 O188 2.273 . S
Cd184 O192 2.277 . S
O185 C182 1.160 . S
O185 Cd186 2.203 . S
Cd186 O185 2.203 . S
Cd186 O188 2.411 . S
Cd186 O189 2.333 . S
Cd186 O190 2.352 . S
Cd186 O194 2.277 . S
Cd186 O195 2.356 1_655 S
C187 O192 1.209 . S
C187 O194 1.226 . S
O188 Cd184 2.273 . S
O188 Cd186 2.411 . S
O188 C191 1.320 . S
O189 Cd186 2.333 . S
O189 C191 1.214 . S
O190 Cd186 2.352 . S
O190 C193 1.258 . S
C191 O188 1.320 . S
C191 O189 1.214 . S
O192 Cd184 2.277 . S
O192 C187 1.209 . S
C193 O190 1.258 . S
C193 O195 1.282 1_655 S
O194 Cd186 2.277 . S
O194 C187 1.226 . S
O195 Cd186 2.356 1_455 S
O195 C193 1.282 1_455 S
C196 O197 1.306 1_655 S
C196 O199 1.160 . S
O197 C196 1.306 1_455 S
O197 Cd198 2.228 . S
Cd198 O197 2.228 . S
Cd198 O202 2.273 1_455 S
Cd198 O206 2.277 1_455 S
O199 C196 1.160 . S
O199 Cd200 2.203 . S
Cd200 O199 2.203 . S
Cd200 O202 2.411 . S
Cd200 O203 2.333 . S
Cd200 O204 2.352 . S
Cd200 O208 2.277 . S
Cd200 O209 2.356 . S
C201 O206 1.209 . S
C201 O208 1.226 . S
O202 Cd198 2.273 1_655 S
O202 Cd200 2.411 . S
O202 C205 1.320 . S
O203 Cd200 2.333 . S
O203 C205 1.214 . S
O204 Cd200 2.352 . S
O204 C207 1.258 . S
C205 O202 1.320 . S
C205 O203 1.214 . S
O206 Cd198 2.277 1_655 S
O206 C201 1.209 . S
C207 O204 1.258 . S
C207 O209 1.282 . S
O208 Cd200 2.277 . S
O208 C201 1.226 . S
O209 Cd200 2.356 . S
O209 C207 1.282 . S
C210 O211 1.306 . S
C210 O213 1.160 . S
O211 C210 1.306 . S
O211 Cd212 2.228 . S
Cd212 O211 2.228 . S
Cd212 O216 2.273 . S
Cd212 O220 2.277 . S
O213 C210 1.160 . S
O213 Cd214 2.203 . S
Cd214 O213 2.203 . S
Cd214 O216 2.411 . S
Cd214 O217 2.333 . S
Cd214 O218 2.352 . S
Cd214 O222 2.277 . S
Cd214 O223 2.356 1_655 S
C215 O220 1.209 . S
C215 O222 1.226 . S
O216 Cd212 2.273 . S
O216 Cd214 2.411 . S
O216 C219 1.320 . S
O217 Cd214 2.333 . S
O217 C219 1.214 . S
O218 Cd214 2.352 . S
O218 C221 1.258 . S
C219 O216 1.320 . S
C219 O217 1.214 . S
O220 Cd212 2.277 . S
O220 C215 1.209 . S
C221 O218 1.258 . S
C221 O223 1.282 1_655 S
O222 Cd214 2.277 . S
O222 C215 1.226 . S
O223 Cd214 2.356 1_455 S
O223 C221 1.282 1_455 S
C224 O225 1.306 . S
C224 O227 1.160 . S
O225 C224 1.306 . S
O225 Cd226 2.228 . S
Cd226 O225 2.228 . S
Cd226 O230 2.273 . S
Cd226 O234 2.277 . S
O227 C224 1.160 . S
O227 Cd228 2.203 . S
Cd228 O227 2.203 . S
Cd228 O230 2.411 . S
Cd228 O231 2.333 . S
Cd228 O232 2.352 . S
Cd228 O236 2.277 . S
Cd228 O237 2.356 . S
C229 O234 1.209 . S
C229 O236 1.226 . S
O230 Cd226 2.273 . S
O230 Cd228 2.411 . S
O230 C233 1.320 . S
O231 Cd228 2.333 . S
O231 C233 1.214 . S
O232 Cd228 2.352 . S
O232 C235 1.258 . S
C233 O230 1.320 . S
C233 O231 1.214 . S
O234 Cd226 2.277 . S
O234 C229 1.209 . S
C235 O232 1.258 . S
C235 O237 1.282 . S
O236 Cd228 2.277 . S
O236 C229 1.226 . S
O237 Cd228 2.356 . S
O237 C235 1.282 . S
C238 O239 1.306 . S
C238 O241 1.160 . S
O239 C238 1.306 . S
O239 Cd240 2.228 . S
Cd240 O239 2.228 . S
Cd240 O244 2.273 . S
Cd240 O248 2.277 . S
O241 C238 1.160 . S
O241 Cd242 2.203 . S
Cd242 O241 2.203 . S
Cd242 O244 2.411 . S
Cd242 O245 2.333 . S
Cd242 O246 2.352 . S
Cd242 O250 2.277 . S
Cd242 O251 2.356 . S
C243 O248 1.209 . S
C243 O250 1.226 . S
O244 Cd240 2.273 . S
O244 Cd242 2.411 . S
O244 C247 1.320 . S
O245 Cd242 2.333 . S
O245 C247 1.214 . S
O246 Cd242 2.352 . S
O246 C249 1.258 . S
C247 O244 1.320 . S
C247 O245 1.214 . S
O248 Cd240 2.277 . S
O248 C243 1.209 . S
C249 O246 1.258 . S
C249 O251 1.282 . S
O250 Cd242 2.277 . S
O250 C243 1.226 . S
O251 Cd242 2.356 . S
O251 C249 1.282 . S
C252 O253 1.306 . S
C252 O255 1.160 . S
O253 C252 1.306 . S
O253 Cd254 2.228 . S
Cd254 O253 2.228 . S
Cd254 O258 2.273 . S
Cd254 O262 2.277 . S
O255 C252 1.160 . S
O255 Cd256 2.203 . S
Cd256 O255 2.203 . S
Cd256 O258 2.411 . S
Cd256 O259 2.333 . S
Cd256 O260 2.352 . S
Cd256 O264 2.277 . S
Cd256 O265 2.356 . S
C257 O262 1.209 . S
C257 O264 1.226 . S
O258 Cd254 2.273 . S
O258 Cd256 2.411 . S
O258 C261 1.320 . S
O259 Cd256 2.333 . S
O259 C261 1.214 . S
O260 Cd256 2.352 . S
O260 C263 1.258 . S
C261 O258 1.320 . S
C261 O259 1.214 . S
O262 Cd254 2.277 . S
O262 C257 1.209 . S
C263 O260 1.258 . S
C263 O265 1.282 . S
O264 Cd256 2.277 . S
O264 C257 1.226 . S
O265 Cd256 2.356 . S
O265 C263 1.282 . S
C266 O267 1.306 . S
C266 O269 1.160 . S
O267 C266 1.306 . S
O267 Cd268 2.228 . S
Cd268 O267 2.228 . S
Cd268 O272 2.273 . S
Cd268 O276 2.277 . S
O269 C266 1.160 . S
O269 Cd270 2.203 . S
Cd270 O269 2.203 . S
Cd270 O272 2.411 . S
Cd270 O273 2.333 . S
Cd270 O274 2.352 . S
Cd270 O278 2.277 . S
Cd270 O279 2.356 . S
C271 O276 1.209 . S
C271 O278 1.226 . S
O272 Cd268 2.273 . S
O272 Cd270 2.411 . S
O272 C275 1.320 . S
O273 Cd270 2.333 . S
O273 C275 1.214 . S
O274 Cd270 2.352 . S
O274 C277 1.258 . S
C275 O272 1.320 . S
C275 O273 1.214 . S
O276 Cd268 2.277 . S
O276 C271 1.209 . S
C277 O274 1.258 . S
C277 O279 1.282 . S
O278 Cd270 2.277 . S
O278 C271 1.226 . S
O279 Cd270 2.356 . S
O279 C277 1.282 . S
C280 O281 1.306 . S
C280 O283 1.160 . S
O281 C280 1.306 . S
O281 Cd282 2.228 . S
Cd282 O281 2.228 . S
Cd282 O286 2.273 . S
Cd282 O290 2.277 . S
O283 C280 1.160 . S
O283 Cd284 2.203 . S
Cd284 O283 2.203 . S
Cd284 O286 2.411 . S
Cd284 O287 2.333 . S
Cd284 O288 2.352 . S
Cd284 O292 2.277 . S
Cd284 O293 2.356 . S
C285 O290 1.209 . S
C285 O292 1.226 . S
O286 Cd282 2.273 . S
O286 Cd284 2.411 . S
O286 C289 1.320 . S
O287 Cd284 2.333 . S
O287 C289 1.214 . S
O288 Cd284 2.352 . S
O288 C291 1.258 . S
C289 O286 1.320 . S
C289 O287 1.214 . S
O290 Cd282 2.277 . S
O290 C285 1.209 . S
C291 O288 1.258 . S
C291 O293 1.282 . S
O292 Cd284 2.277 . S
O292 C285 1.226 . S
O293 Cd284 2.356 . S
O293 C291 1.282 . S
C294 O295 1.306 . S
C294 O297 1.160 . S
O295 C294 1.306 . S
O295 Cd296 2.228 . S
Cd296 O295 2.228 . S
Cd296 O300 2.273 . S
Cd296 O304 2.277 . S
O297 C294 1.160 . S
O297 Cd298 2.203 . S
Cd298 O297 2.203 . S
Cd298 O300 2.411 . S
Cd298 O301 2.333 . S
Cd298 O302 2.352 . S
Cd298 O306 2.277 . S
Cd298 O307 2.356 . S
C299 O304 1.209 . S
C299 O306 1.226 . S
O300 Cd296 2.273 . S
O300 Cd298 2.411 . S
O300 C303 1.320 . S
O301 Cd298 2.333 . S
O301 C303 1.214 . S
O302 Cd298 2.352 . S
O302 C305 1.258 . S
C303 O300 1.320 . S
C303 O301 1.214 . S
O304 Cd296 2.277 . S
O304 C299 1.209 . S
C305 O302 1.258 . S
C305 O307 1.282 . S
O306 Cd298 2.277 . S
O306 C299 1.226 . S
O307 Cd298 2.356 . S
O307 C305 1.282 . S
C308 O309 1.306 . S
C308 O311 1.160 . S
O309 C308 1.306 . S
O309 Cd310 2.228 . S
Cd310 O309 2.228 . S
Cd310 O314 2.273 . S
Cd310 O318 2.277 . S
O311 C308 1.160 . S
O311 Cd312 2.203 . S
Cd312 O311 2.203 . S
Cd312 O314 2.411 . S
Cd312 O315 2.333 . S
Cd312 O316 2.352 . S
Cd312 O320 2.277 . S
Cd312 O321 2.356 . S
C313 O318 1.209 . S
C313 O320 1.226 . S
O314 Cd310 2.273 . S
O314 Cd312 2.411 . S
O314 C317 1.320 . S
O315 Cd312 2.333 . S
O315 C317 1.214 . S
O316 Cd312 2.352 . S
O316 C319 1.258 . S
C317 O314 1.320 . S
C317 O315 1.214 . S
O318 Cd310 2.277 . S
O318 C313 1.209 . S
C319 O316 1.258 . S
C319 O321 1.282 . S
O320 Cd312 2.277 . S
O320 C313 1.226 . S
O321 Cd312 2.356 . S
O321 C319 1.282 . S
C322 O323 1.306 . S
C322 O325 1.160 . S
O323 C322 1.306 . S
O323 Cd324 2.228 . S
Cd324 O323 2.228 . S
Cd324 O328 2.273 . S
Cd324 O332 2.277 . S
O325 C322 1.160 . S
O325 Cd326 2.203 . S
Cd326 O325 2.203 . S
Cd326 O328 2.411 . S
Cd326 O329 2.333 . S
Cd326 O330 2.352 . S
Cd326 O334 2.277 . S
Cd326 O335 2.356 . S
C327 O332 1.209 . S
C327 O334 1.226 . S
O328 Cd324 2.273 . S
O328 Cd326 2.411 . S
O328 C331 1.320 . S
O329 Cd326 2.333 . S
O329 C331 1.214 . S
O330 Cd326 2.352 . S
O330 C333 1.258 . S
C331 O328 1.320 . S
C331 O329 1.214 . S
O332 Cd324 2.277 . S
O332 C327 1.209 . S
C333 O330 1.258 . S
C333 O335 1.282 . S
O334 Cd326 2.277 . S
O334 C327 1.226 . S
O335 Cd326 2.356 . S
O335 C333 1.282 . S
C336 O337 1.306 . S
C336 O339 1.160 . S
O337 C336 1.306 . S
O337 Cd338 2.228 . S
Cd338 O337 2.228 . S
Cd338 O342 2.273 . S
Cd338 O346 2.277 . S
O339 C336 1.160 . S
O339 Cd340 2.203 . S
Cd340 O339 2.203 . S
Cd340 O342 2.411 . S
Cd340 O343 2.333 . S
Cd340 O344 2.352 . S
Cd340 O348 2.277 . S
Cd340 O349 2.356 . S
C341 O346 1.209 . S
C341 O348 1.226 . S
O342 Cd338 2.273 . S
O342 Cd340 2.411 . S
O342 C345 1.320 . S
O343 Cd340 2.333 . S
O343 C345 1.214 . S
O344 Cd340 2.352 . S
O344 C347 1.258 . S
C345 O342 1.320 . S
C345 O343 1.214 . S
O346 Cd338 2.277 . S
O346 C341 1.209 . S
C347 O344 1.258 . S
C347 O349 1.282 . S
O348 Cd340 2.277 . S
O348 C341 1.226 . S
O349 Cd340 2.356 . S
O349 C347 1.282 . S
C350 O351 1.306 . S
C350 O353 1.160 . S
O351 C350 1.306 . S
O351 Cd352 2.228 . S
Cd352 O351 2.228 . S
Cd352 O356 2.273 . S
Cd352 O360 2.277 . S
O353 C350 1.160 . S
O353 Cd354 2.203 . S
Cd354 O353 2.203 . S
Cd354 O356 2.411 . S
Cd354 O357 2.333 . S
Cd354 O358 2.352 . S
Cd354 O362 2.277 . S
Cd354 O363 2.356 . S
C355 O360 1.209 . S
C355 O362 1.226 . S
O356 Cd352 2.273 . S
O356 Cd354 2.411 . S
O356 C359 1.320 . S
O357 Cd354 2.333 . S
O357 C359 1.214 . S
O358 Cd354 2.352 . S
O358 C361 1.258 . S
C359 O356 1.320 . S
C359 O357 1.214 . S
O360 Cd352 2.277 . S
O360 C355 1.209 . S
C361 O358 1.258 . S
C361 O363 1.282 . S
O362 Cd354 2.277 . S
O362 C355 1.226 . S
O363 Cd354 2.356 . S
O363 C361 1.282 . S
C364 O365 1.306 . S
C364 O367 1.160 . S
O365 C364 1.306 . S
O365 Cd366 2.228 . S
Cd366 O365 2.228 . S
Cd366 O370 2.273 . S
Cd366 O374 2.277 1_556 S
O367 C364 1.160 . S
O367 Cd368 2.203 . S
Cd368 O367 2.203 . S
Cd368 O370 2.411 . S
Cd368 O371 2.333 . S
Cd368 O372 2.352 . S
Cd368 O376 2.277 1_556 S
Cd368 O377 2.356 . S
C369 O374 1.209 . S
C369 O376 1.226 . S
O370 Cd366 2.273 . S
O370 Cd368 2.411 . S
O370 C373 1.320 . S
O371 Cd368 2.333 . S
O371 C373 1.214 . S
O372 Cd368 2.352 . S
O372 C375 1.258 . S
C373 O370 1.320 . S
C373 O371 1.214 . S
O374 Cd366 2.277 1_554 S
O374 C369 1.209 . S
C375 O372 1.258 . S
C375 O377 1.282 . S
O376 Cd368 2.277 1_554 S
O376 C369 1.226 . S
O377 Cd368 2.356 . S
O377 C375 1.282 . S
C378 O379 1.306 . S
C378 O381 1.160 . S
O379 C378 1.306 . S
O379 Cd380 2.228 . S
Cd380 O379 2.228 . S
Cd380 O384 2.273 . S
Cd380 O388 2.277 1_556 S
O381 C378 1.160 . S
O381 Cd382 2.203 . S
Cd382 O381 2.203 . S
Cd382 O384 2.411 . S
Cd382 O385 2.333 . S
Cd382 O386 2.352 . S
Cd382 O390 2.277 1_556 S
Cd382 O391 2.356 . S
C383 O388 1.209 . S
C383 O390 1.226 . S
O384 Cd380 2.273 . S
O384 Cd382 2.411 . S
O384 C387 1.320 . S
O385 Cd382 2.333 . S
O385 C387 1.214 . S
O386 Cd382 2.352 . S
O386 C389 1.258 . S
C387 O384 1.320 . S
C387 O385 1.214 . S
O388 Cd380 2.277 1_554 S
O388 C383 1.209 . S
C389 O386 1.258 . S
C389 O391 1.282 . S
O390 Cd382 2.277 1_554 S
O390 C383 1.226 . S
O391 Cd382 2.356 . S
O391 C389 1.282 . S
C392 O393 1.306 . S
C392 O395 1.160 . S
O393 C392 1.306 . S
O393 Cd394 2.228 . S
Cd394 O393 2.228 . S
Cd394 O398 2.273 . S
Cd394 O402 2.277 . S
O395 C392 1.160 . S
O395 Cd396 2.203 . S
Cd396 O395 2.203 . S
Cd396 O398 2.411 . S
Cd396 O399 2.333 . S
Cd396 O400 2.352 . S
Cd396 O404 2.277 . S
Cd396 O405 2.356 . S
C397 O402 1.209 . S
C397 O404 1.226 . S
O398 Cd394 2.273 . S
O398 Cd396 2.411 . S
O398 C401 1.320 . S
O399 Cd396 2.333 . S
O399 C401 1.214 . S
O400 Cd396 2.352 . S
O400 C403 1.258 . S
C401 O398 1.320 . S
C401 O399 1.214 . S
O402 Cd394 2.277 . S
O402 C397 1.209 . S
C403 O400 1.258 . S
C403 O405 1.282 . S
O404 Cd396 2.277 . S
O404 C397 1.226 . S
O405 Cd396 2.356 . S
O405 C403 1.282 . S
C406 O407 1.306 . S
C406 O409 1.160 . S
O407 C406 1.306 . S
O407 Cd408 2.228 . S
Cd408 O407 2.228 . S
Cd408 O412 2.273 . S
Cd408 O416 2.277 . S
O409 C406 1.160 . S
O409 Cd410 2.203 . S
Cd410 O409 2.203 . S
Cd410 O412 2.411 . S
Cd410 O413 2.333 . S
Cd410 O414 2.352 . S
Cd410 O418 2.277 . S
Cd410 O419 2.356 . S
C411 O416 1.209 . S
C411 O418 1.226 . S
O412 Cd408 2.273 . S
O412 Cd410 2.411 . S
O412 C415 1.320 . S
O413 Cd410 2.333 . S
O413 C415 1.214 . S
O414 Cd410 2.352 . S
O414 C417 1.258 . S
C415 O412 1.320 . S
C415 O413 1.214 . S
O416 Cd408 2.277 . S
O416 C411 1.209 . S
C417 O414 1.258 . S
C417 O419 1.282 . S
O418 Cd410 2.277 . S
O418 C411 1.226 . S
O419 Cd410 2.356 . S
O419 C417 1.282 . S
C420 O421 1.306 . S
C420 O423 1.160 . S
O421 C420 1.306 . S
O421 Cd422 2.228 . S
Cd422 O421 2.228 . S
Cd422 O426 2.273 . S
Cd422 O430 2.277 1_554 S
O423 C420 1.160 . S
O423 Cd424 2.203 . S
Cd424 O423 2.203 . S
Cd424 O426 2.411 . S
Cd424 O427 2.333 . S
Cd424 O428 2.352 . S
Cd424 O432 2.277 1_554 S
Cd424 O433 2.356 . S
C425 O430 1.209 . S
C425 O432 1.226 . S
O426 Cd422 2.273 . S
O426 Cd424 2.411 . S
O426 C429 1.320 . S
O427 Cd424 2.333 . S
O427 C429 1.214 . S
O428 Cd424 2.352 . S
O428 C431 1.258 . S
C429 O426 1.320 . S
C429 O427 1.214 . S
O430 Cd422 2.277 1_556 S
O430 C425 1.209 . S
C431 O428 1.258 . S
C431 O433 1.282 . S
O432 Cd424 2.277 1_556 S
O432 C425 1.226 . S
O433 Cd424 2.356 . S
O433 C431 1.282 . S
C434 O435 1.306 . S
C434 O437 1.160 . S
O435 C434 1.306 . S
O435 Cd436 2.228 . S
Cd436 O435 2.228 . S
Cd436 O440 2.273 . S
Cd436 O444 2.277 1_554 S
O437 C434 1.160 . S
O437 Cd438 2.203 . S
Cd438 O437 2.203 . S
Cd438 O440 2.411 . S
Cd438 O441 2.333 . S
Cd438 O442 2.352 . S
Cd438 O446 2.277 1_554 S
Cd438 O447 2.356 . S
C439 O444 1.209 . S
C439 O446 1.226 . S
O440 Cd436 2.273 . S
O440 Cd438 2.411 . S
O440 C443 1.320 . S
O441 Cd438 2.333 . S
O441 C443 1.214 . S
O442 Cd438 2.352 . S
O442 C445 1.258 . S
C443 O440 1.320 . S
C443 O441 1.214 . S
O444 Cd436 2.277 1_556 S
O444 C439 1.209 . S
C445 O442 1.258 . S
C445 O447 1.282 . S
O446 Cd438 2.277 1_556 S
O446 C439 1.226 . S
O447 Cd438 2.356 . S
O447 C445 1.282 . S
C448 C449 1.387 . S
C448 H452 0.950 . S
C448 C457 1.390 . S
C449 C448 1.387 . S
C449 C451 1.387 1_455 S
H450 C457 0.950 . S
C451 C449 1.387 1_655 S
C451 C453 1.390 . S
C451 H455 0.950 . S
H452 C448 0.950 . S
C453 C451 1.390 . S
C453 C454 1.387 1_655 S
C453 H456 0.950 . S
C454 C453 1.387 1_455 S
C454 C457 1.387 . S
H455 C451 0.950 . S
H456 C453 0.950 . S
C457 C448 1.390 . S
C457 H450 0.950 . S
C457 C454 1.387 . S
C458 C459 1.387 . S
C458 H462 0.950 . S
C458 C467 1.390 . S
C459 C458 1.387 . S
C459 C461 1.387 . S
H460 C467 0.950 . S
C461 C459 1.387 . S
C461 C463 1.390 . S
C461 H465 0.950 . S
H462 C458 0.950 . S
C463 C461 1.390 . S
C463 C464 1.387 . S
C463 H466 0.950 . S
C464 C463 1.387 . S
C464 C467 1.387 . S
H465 C461 0.950 . S
H466 C463 0.950 . S
C467 C458 1.390 . S
C467 H460 0.950 . S
C467 C464 1.387 . S
C468 C469 1.387 1_655 S
C468 H472 0.950 . S
C468 C477 1.390 . S
C469 C468 1.387 1_455 S
C469 C471 1.387 . S
H470 C477 0.950 . S
C471 C469 1.387 . S
C471 C473 1.390 . S
C471 H475 0.950 . S
H472 C468 0.950 . S
C473 C471 1.390 . S
C473 C474 1.387 . S
C473 H476 0.950 . S
C474 C473 1.387 . S
C474 C477 1.387 1_455 S
H475 C471 0.950 . S
H476 C473 0.950 . S
C477 C468 1.390 . S
C477 H470 0.950 . S
C477 C474 1.387 1_655 S
C478 C479 1.387 . S
C478 H482 0.950 . S
C478 C487 1.390 . S
C479 C478 1.387 . S
C479 C481 1.387 . S
H480 C487 0.950 . S
C481 C479 1.387 . S
C481 C483 1.390 . S
C481 H485 0.950 . S
H482 C478 0.950 . S
C483 C481 1.390 . S
C483 C484 1.387 . S
C483 H486 0.950 . S
C484 C483 1.387 . S
C484 C487 1.387 . S
H485 C481 0.950 . S
H486 C483 0.950 . S
C487 C478 1.390 . S
C487 H480 0.950 . S
C487 C484 1.387 . S
C488 C489 1.387 1_455 S
C488 H492 0.950 . S
C488 C497 1.390 . S
C489 C488 1.387 1_655 S
C489 C491 1.387 . S
H490 C497 0.950 . S
C491 C489 1.387 . S
C491 C493 1.390 . S
C491 H495 0.950 . S
H492 C488 0.950 . S
C493 C491 1.390 . S
C493 C494 1.387 . S
C493 H496 0.950 . S
C494 C493 1.387 . S
C494 C497 1.387 1_655 S
H495 C491 0.950 . S
H496 C493 0.950 . S
C497 C488 1.390 . S
C497 H490 0.950 . S
C497 C494 1.387 1_455 S
C498 C499 1.387 . S
C498 H502 0.950 . S
C498 C507 1.390 . S
C499 C498 1.387 . S
C499 C501 1.387 . S
H500 C507 0.950 . S
C501 C499 1.387 . S
C501 C503 1.390 . S
C501 H505 0.950 . S
H502 C498 0.950 . S
C503 C501 1.390 . S
C503 C504 1.387 . S
C503 H506 0.950 . S
C504 C503 1.387 . S
C504 C507 1.387 . S
H505 C501 0.950 . S
H506 C503 0.950 . S
C507 C498 1.390 . S
C507 H500 0.950 . S
C507 C504 1.387 . S
C508 C509 1.387 . S
C508 H512 0.950 . S
C508 C517 1.390 . S
C509 C508 1.387 . S
C509 C511 1.387 1_655 S
H510 C517 0.950 . S
C511 C509 1.387 1_455 S
C511 C513 1.390 . S
C511 H515 0.950 . S
H512 C508 0.950 . S
C513 C511 1.390 . S
C513 C514 1.387 1_455 S
C513 H516 0.950 . S
C514 C513 1.387 1_655 S
C514 C517 1.387 . S
H515 C511 0.950 . S
H516 C513 0.950 . S
C517 C508 1.390 . S
C517 H510 0.950 . S
C517 C514 1.387 . S
C518 C519 1.387 . S
C518 H522 0.950 . S
C518 C527 1.390 . S
C519 C518 1.387 . S
C519 C521 1.387 . S
H520 C527 0.950 . S
C521 C519 1.387 . S
C521 C523 1.390 . S
C521 H525 0.950 . S
H522 C518 0.950 . S
C523 C521 1.390 . S
C523 C524 1.387 . S
C523 H526 0.950 . S
C524 C523 1.387 . S
C524 C527 1.387 . S
H525 C521 0.950 . S
H526 C523 0.950 . S
C527 C518 1.390 . S
C527 H520 0.950 . S
C527 C524 1.387 . S
C528 C529 1.387 . S
C528 H532 0.950 . S
C528 C537 1.390 . S
C529 C528 1.387 . S
C529 C531 1.387 . S
H530 C537 0.950 . S
C531 C529 1.387 . S
C531 C533 1.390 . S
C531 H535 0.950 . S
H532 C528 0.950 . S
C533 C531 1.390 . S
C533 C534 1.387 . S
C533 H536 0.950 . S
C534 C533 1.387 . S
C534 C537 1.387 . S
H535 C531 0.950 . S
H536 C533 0.950 . S
C537 C528 1.390 . S
C537 H530 0.950 . S
C537 C534 1.387 . S
C538 C539 1.387 . S
C538 H542 0.950 . S
C538 C547 1.390 . S
C539 C538 1.387 . S
C539 C541 1.387 . S
H540 C547 0.950 . S
C541 C539 1.387 . S
C541 C543 1.390 . S
C541 H545 0.950 . S
H542 C538 0.950 . S
C543 C541 1.390 . S
C543 C544 1.387 . S
C543 H546 0.950 . S
C544 C543 1.387 . S
C544 C547 1.387 . S
H545 C541 0.950 . S
H546 C543 0.950 . S
C547 C538 1.390 . S
C547 H540 0.950 . S
C547 C544 1.387 . S
C548 C549 1.387 . S
C548 H552 0.950 . S
C548 C557 1.390 . S
C549 C548 1.387 . S
C549 C551 1.387 . S
H550 C557 0.950 . S
C551 C549 1.387 . S
C551 C553 1.390 . S
C551 H555 0.950 . S
H552 C548 0.950 . S
C553 C551 1.390 . S
C553 C554 1.387 . S
C553 H556 0.950 . S
C554 C553 1.387 . S
C554 C557 1.387 . S
H555 C551 0.950 . S
H556 C553 0.950 . S
C557 C548 1.390 . S
C557 H550 0.950 . S
C557 C554 1.387 . S
C558 C559 1.387 . S
C558 H562 0.950 . S
C558 C567 1.390 . S
C559 C558 1.387 . S
C559 C561 1.387 . S
H560 C567 0.950 . S
C561 C559 1.387 . S
C561 C563 1.390 . S
C561 H565 0.950 . S
H562 C558 0.950 . S
C563 C561 1.390 . S
C563 C564 1.387 . S
C563 H566 0.950 . S
C564 C563 1.387 . S
C564 C567 1.387 . S
H565 C561 0.950 . S
H566 C563 0.950 . S
C567 C558 1.390 . S
C567 H560 0.950 . S
C567 C564 1.387 . S
C568 C569 1.387 . S
C568 H572 0.950 . S
C568 C577 1.390 . S
C569 C568 1.387 . S
C569 C571 1.387 . S
H570 C577 0.950 . S
C571 C569 1.387 . S
C571 C573 1.390 . S
C571 H575 0.950 . S
H572 C568 0.950 . S
C573 C571 1.390 . S
C573 C574 1.387 . S
C573 H576 0.950 . S
C574 C573 1.387 . S
C574 C577 1.387 . S
H575 C571 0.950 . S
H576 C573 0.950 . S
C577 C568 1.390 . S
C577 H570 0.950 . S
C577 C574 1.387 . S
C578 C579 1.387 . S
C578 H582 0.950 . S
C578 C587 1.390 . S
C579 C578 1.387 . S
C579 C581 1.387 . S
H580 C587 0.950 . S
C581 C579 1.387 . S
C581 C583 1.390 . S
C581 H585 0.950 . S
H582 C578 0.950 . S
C583 C581 1.390 . S
C583 C584 1.387 . S
C583 H586 0.950 . S
C584 C583 1.387 . S
C584 C587 1.387 . S
H585 C581 0.950 . S
H586 C583 0.950 . S
C587 C578 1.390 . S
C587 H580 0.950 . S
C587 C584 1.387 . S
C588 C589 1.387 . S
C588 H592 0.950 . S
C588 C597 1.390 . S
C589 C588 1.387 . S
C589 C591 1.387 . S
H590 C597 0.950 . S
C591 C589 1.387 . S
C591 C593 1.390 . S
C591 H595 0.950 . S
H592 C588 0.950 . S
C593 C591 1.390 . S
C593 C594 1.387 . S
C593 H596 0.950 . S
C594 C593 1.387 . S
C594 C597 1.387 . S
H595 C591 0.950 . S
H596 C593 0.950 . S
C597 C588 1.390 . S
C597 H590 0.950 . S
C597 C594 1.387 . S
C598 C599 1.387 . S
C598 H602 0.950 . S
C598 C607 1.390 . S
C599 C598 1.387 . S
C599 C601 1.387 . S
H600 C607 0.950 . S
C601 C599 1.387 . S
C601 C603 1.390 . S
C601 H605 0.950 . S
H602 C598 0.950 . S
C603 C601 1.390 . S
C603 C604 1.387 . S
C603 H606 0.950 . S
C604 C603 1.387 . S
C604 C607 1.387 . S
H605 C601 0.950 . S
H606 C603 0.950 . S
C607 C598 1.390 . S
C607 H600 0.950 . S
C607 C604 1.387 . S
C608 C609 1.387 . S
C608 H612 0.950 . S
C608 C617 1.390 . S
C609 C608 1.387 . S
C609 C611 1.387 . S
H610 C617 0.950 . S
C611 C609 1.387 . S
C611 C613 1.390 . S
C611 H615 0.950 . S
H612 C608 0.950 . S
C613 C611 1.390 . S
C613 C614 1.387 . S
C613 H616 0.950 . S
C614 C613 1.387 . S
C614 C617 1.387 . S
H615 C611 0.950 . S
H616 C613 0.950 . S
C617 C608 1.390 . S
C617 H610 0.950 . S
C617 C614 1.387 . S
C618 C619 1.387 . S
C618 H622 0.950 . S
C618 C627 1.390 . S
C619 C618 1.387 . S
C619 C621 1.387 . S
H620 C627 0.950 . S
C621 C619 1.387 . S
C621 C623 1.390 . S
C621 H625 0.950 . S
H622 C618 0.950 . S
C623 C621 1.390 . S
C623 C624 1.387 . S
C623 H626 0.950 . S
C624 C623 1.387 . S
C624 C627 1.387 . S
H625 C621 0.950 . S
H626 C623 0.950 . S
C627 C618 1.390 . S
C627 H620 0.950 . S
C627 C624 1.387 . S
C628 C629 1.387 . S
C628 H632 0.950 . S
C628 C637 1.390 . S
C629 C628 1.387 . S
C629 C631 1.387 . S
H630 C637 0.950 . S
C631 C629 1.387 . S
C631 C633 1.390 . S
C631 H635 0.950 . S
H632 C628 0.950 . S
C633 C631 1.390 . S
C633 C634 1.387 . S
C633 H636 0.950 . S
C634 C633 1.387 . S
C634 C637 1.387 . S
H635 C631 0.950 . S
H636 C633 0.950 . S
C637 C628 1.390 . S
C637 H630 0.950 . S
C637 C634 1.387 . S
C638 C639 1.387 . S
C638 H642 0.950 . S
C638 C647 1.390 . S
C639 C638 1.387 . S
C639 C641 1.387 . S
H640 C647 0.950 . S
C641 C639 1.387 . S
C641 C643 1.390 . S
C641 H645 0.950 . S
H642 C638 0.950 . S
C643 C641 1.390 . S
C643 C644 1.387 . S
C643 H646 0.950 . S
C644 C643 1.387 . S
C644 C647 1.387 . S
H645 C641 0.950 . S
H646 C643 0.950 . S
C647 C638 1.390 . S
C647 H640 0.950 . S
C647 C644 1.387 . S
C648 C649 1.387 . S
C648 H652 0.950 . S
C648 C657 1.390 . S
C649 C648 1.387 . S
C649 C651 1.387 . S
H650 C657 0.950 . S
C651 C649 1.387 . S
C651 C653 1.390 . S
C651 H655 0.950 . S
H652 C648 0.950 . S
C653 C651 1.390 . S
C653 C654 1.387 . S
C653 H656 0.950 . S
C654 C653 1.387 . S
C654 C657 1.387 . S
H655 C651 0.950 . S
H656 C653 0.950 . S
C657 C648 1.390 . S
C657 H650 0.950 . S
C657 C654 1.387 . S
C658 C659 1.387 . S
C658 H662 0.950 . S
C658 C667 1.390 . S
C659 C658 1.387 . S
C659 C661 1.387 . S
H660 C667 0.950 . S
C661 C659 1.387 . S
C661 C663 1.390 . S
C661 H665 0.950 . S
H662 C658 0.950 . S
C663 C661 1.390 . S
C663 C664 1.387 . S
C663 H666 0.950 . S
C664 C663 1.387 . S
C664 C667 1.387 . S
H665 C661 0.950 . S
H666 C663 0.950 . S
C667 C658 1.390 . S
C667 H660 0.950 . S
C667 C664 1.387 . S
C668 C669 1.387 . S
C668 H672 0.950 . S
C668 C677 1.390 . S
C669 C668 1.387 . S
C669 C671 1.387 . S
H670 C677 0.950 . S
C671 C669 1.387 . S
C671 C673 1.390 . S
C671 H675 0.950 . S
H672 C668 0.950 . S
C673 C671 1.390 . S
C673 C674 1.387 . S
C673 H676 0.950 . S
C674 C673 1.387 . S
C674 C677 1.387 . S
H675 C671 0.950 . S
H676 C673 0.950 . S
C677 C668 1.390 . S
C677 H670 0.950 . S
C677 C674 1.387 . S
C678 C679 1.387 . S
C678 H682 0.950 . S
C678 C687 1.390 . S
C679 C678 1.387 . S
C679 C681 1.387 . S
H680 C687 0.950 . S
C681 C679 1.387 . S
C681 C683 1.390 . S
C681 H685 0.950 . S
H682 C678 0.950 . S
C683 C681 1.390 . S
C683 C684 1.387 . S
C683 H686 0.950 . S
C684 C683 1.387 . S
C684 C687 1.387 . S
H685 C681 0.950 . S
H686 C683 0.950 . S
C687 C678 1.390 . S
C687 H680 0.950 . S
C687 C684 1.387 . S
C688 C689 1.387 . S
C688 H692 0.950 . S
C688 C697 1.390 . S
C689 C688 1.387 . S
C689 C691 1.387 . S
H690 C697 0.950 . S
C691 C689 1.387 . S
C691 C693 1.390 . S
C691 H695 0.950 . S
H692 C688 0.950 . S
C693 C691 1.390 . S
C693 C694 1.387 . S
C693 H696 0.950 . S
C694 C693 1.387 . S
C694 C697 1.387 . S
H695 C691 0.950 . S
H696 C693 0.950 . S
C697 C688 1.390 . S
C697 H690 0.950 . S
C697 C694 1.387 . S
C698 C699 1.387 . S
C698 H702 0.950 . S
C698 C707 1.390 . S
C699 C698 1.387 . S
C699 C701 1.387 . S
H700 C707 0.950 . S
C701 C699 1.387 . S
C701 C703 1.390 . S
C701 H705 0.950 . S
H702 C698 0.950 . S
C703 C701 1.390 . S
C703 C704 1.387 . S
C703 H706 0.950 . S
C704 C703 1.387 . S
C704 C707 1.387 . S
H705 C701 0.950 . S
H706 C703 0.950 . S
C707 C698 1.390 . S
C707 H700 0.950 . S
C707 C704 1.387 . S
C708 C709 1.387 . S
C708 H712 0.950 . S
C708 C717 1.390 . S
C709 C708 1.387 . S
C709 C711 1.387 . S
H710 C717 0.950 . S
C711 C709 1.387 . S
C711 C713 1.390 . S
C711 H715 0.950 . S
H712 C708 0.950 . S
C713 C711 1.390 . S
C713 C714 1.387 . S
C713 H716 0.950 . S
C714 C713 1.387 . S
C714 C717 1.387 . S
H715 C711 0.950 . S
H716 C713 0.950 . S
C717 C708 1.390 . S
C717 H710 0.950 . S
C717 C714 1.387 . S
C718 C719 1.387 . S
C718 H722 0.950 . S
C718 C727 1.390 . S
C719 C718 1.387 . S
C719 C721 1.387 . S
H720 C727 0.950 . S
C721 C719 1.387 . S
C721 C723 1.390 . S
C721 H725 0.950 . S
H722 C718 0.950 . S
C723 C721 1.390 . S
C723 C724 1.387 . S
C723 H726 0.950 . S
C724 C723 1.387 . S
C724 C727 1.387 . S
H725 C721 0.950 . S
H726 C723 0.950 . S
C727 C718 1.390 . S
C727 H720 0.950 . S
C727 C724 1.387 . S
C728 C729 1.387 . S
C728 H732 0.950 . S
C728 C737 1.390 . S
C729 C728 1.387 . S
C729 C731 1.387 . S
H730 C737 0.950 . S
C731 C729 1.387 . S
C731 C733 1.390 . S
C731 H735 0.950 . S
H732 C728 0.950 . S
C733 C731 1.390 . S
C733 C734 1.387 . S
C733 H736 0.950 . S
C734 C733 1.387 . S
C734 C737 1.387 . S
H735 C731 0.950 . S
H736 C733 0.950 . S
C737 C728 1.390 . S
C737 H730 0.950 . S
C737 C734 1.387 . S
C738 C739 1.387 . S
C738 H742 0.950 . S
C738 C747 1.390 . S
C739 C738 1.387 . S
C739 C741 1.387 . S
H740 C747 0.950 . S
C741 C739 1.387 . S
C741 C743 1.390 . S
C741 H745 0.950 . S
H742 C738 0.950 . S
C743 C741 1.390 . S
C743 C744 1.387 . S
C743 H746 0.950 . S
C744 C743 1.387 . S
C744 C747 1.387 . S
H745 C741 0.950 . S
H746 C743 0.950 . S
C747 C738 1.390 . S
C747 H740 0.950 . S
C747 C744 1.387 . S
C748 C749 1.387 . S
C748 H752 0.950 . S
C748 C757 1.390 . S
C749 C748 1.387 . S
C749 C751 1.387 . S
H750 C757 0.950 . S
C751 C749 1.387 . S
C751 C753 1.390 . S
C751 H755 0.950 . S
H752 C748 0.950 . S
C753 C751 1.390 . S
C753 C754 1.387 . S
C753 H756 0.950 . S
C754 C753 1.387 . S
C754 C757 1.387 . S
H755 C751 0.950 . S
H756 C753 0.950 . S
C757 C748 1.390 . S
C757 H750 0.950 . S
C757 C754 1.387 . S
C758 C759 1.387 . S
C758 H762 0.950 . S
C758 C767 1.390 . S
C759 C758 1.387 . S
C759 C761 1.387 . S
H760 C767 0.950 . S
C761 C759 1.387 . S
C761 C763 1.390 . S
C761 H765 0.950 . S
H762 C758 0.950 . S
C763 C761 1.390 . S
C763 C764 1.387 . S
C763 H766 0.950 . S
C764 C763 1.387 . S
C764 C767 1.387 . S
H765 C761 0.950 . S
H766 C763 0.950 . S
C767 C758 1.390 . S
C767 H760 0.950 . S
C767 C764 1.387 . S
C768 C769 1.387 . S
C768 H772 0.950 . S
C768 C777 1.390 . S
C769 C768 1.387 . S
C769 C771 1.387 1_655 S
H770 C777 0.950 . S
C771 C769 1.387 1_455 S
C771 C773 1.390 . S
C771 H775 0.950 . S
H772 C768 0.950 . S
C773 C771 1.390 . S
C773 C774 1.387 . S
C773 H776 0.950 . S
C774 C773 1.387 . S
C774 C777 1.387 1_455 S
H775 C771 0.950 . S
H776 C773 0.950 . S
C777 C768 1.390 . S
C777 H770 0.950 . S
C777 C774 1.387 1_655 S
C778 C779 1.387 . S
C778 H782 0.950 . S
C778 C787 1.390 1_565 S
C779 C778 1.387 . S
C779 C781 1.387 . S
H780 C787 0.950 . S
C781 C779 1.387 . S
C781 C783 1.390 1_565 S
C781 H785 0.950 . S
H782 C778 0.950 . S
C783 C781 1.390 1_545 S
C783 C784 1.387 . S
C783 H786 0.950 . S
C784 C783 1.387 . S
C784 C787 1.387 . S
H785 C781 0.950 . S
H786 C783 0.950 . S
C787 C778 1.390 1_545 S
C787 H780 0.950 . S
C787 C784 1.387 . S
C788 C789 1.387 1_565 S
C788 H792 0.950 . S
C788 C797 1.390 . S
C789 C788 1.387 1_545 S
C789 C791 1.387 1_654 S
H790 C797 0.950 . S
C791 C789 1.387 1_456 S
C791 C793 1.390 . S
C791 H795 0.950 . S
H792 C788 0.950 . S
C793 C791 1.390 . S
C793 C794 1.387 1_545 S
C793 H796 0.950 . S
C794 C793 1.387 1_565 S
C794 C797 1.387 1_456 S
H795 C791 0.950 . S
H796 C793 0.950 . S
C797 C788 1.390 . S
C797 H790 0.950 . S
C797 C794 1.387 1_654 S
C798 C799 1.387 . S
C798 H802 0.950 . S
C798 C807 1.390 . S
C799 C798 1.387 . S
C799 C801 1.387 1_554 S
H800 C807 0.950 . S
C801 C799 1.387 1_556 S
C801 C803 1.390 . S
C801 H805 0.950 . S
H802 C798 0.950 . S
C803 C801 1.390 . S
C803 C804 1.387 . S
C803 H806 0.950 . S
C804 C803 1.387 . S
C804 C807 1.387 1_556 S
H805 C801 0.950 . S
H806 C803 0.950 . S
C807 C798 1.390 . S
C807 H800 0.950 . S
C807 C804 1.387 1_554 S
C808 C809 1.387 1_455 S
C808 H812 0.950 . S
C808 C817 1.390 . S
C809 C808 1.387 1_655 S
C809 C811 1.387 . S
H810 C817 0.950 . S
C811 C809 1.387 . S
C811 C813 1.390 . S
C811 H815 0.950 . S
H812 C808 0.950 . S
C813 C811 1.390 . S
C813 C814 1.387 1_655 S
C813 H816 0.950 . S
C814 C813 1.387 1_455 S
C814 C817 1.387 . S
H815 C811 0.950 . S
H816 C813 0.950 . S
C817 C808 1.390 . S
C817 H810 0.950 . S
C817 C814 1.387 . S
C818 C819 1.387 . S
C818 H822 0.950 . S
C818 C827 1.390 1_565 S
C819 C818 1.387 . S
C819 C821 1.387 . S
H820 C827 0.950 . S
C821 C819 1.387 . S
C821 C823 1.390 1_565 S
C821 H825 0.950 . S
H822 C818 0.950 . S
C823 C821 1.390 1_545 S
C823 C824 1.387 . S
C823 H826 0.950 . S
C824 C823 1.387 . S
C824 C827 1.387 . S
H825 C821 0.950 . S
H826 C823 0.950 . S
C827 C818 1.390 1_545 S
C827 H820 0.950 . S
C827 C824 1.387 . S
C828 C829 1.387 . S
C828 H832 0.950 . S
C828 C837 1.390 . S
C829 C828 1.387 . S
C829 C831 1.387 1_556 S
H830 C837 0.950 . S
C831 C829 1.387 1_554 S
C831 C833 1.390 . S
C831 H835 0.950 . S
H832 C828 0.950 . S
C833 C831 1.390 . S
C833 C834 1.387 . S
C833 H836 0.950 . S
C834 C833 1.387 . S
C834 C837 1.387 1_554 S
H835 C831 0.950 . S
H836 C833 0.950 . S
C837 C828 1.390 . S
C837 H830 0.950 . S
C837 C834 1.387 1_556 S
C838 C839 1.387 . S
C838 H842 0.950 . S
C838 C847 1.390 . S
C839 C838 1.387 . S
C839 C841 1.387 . S
H840 C847 0.950 . S
C841 C839 1.387 . S
C841 C843 1.390 . S
C841 H845 0.950 . S
H842 C838 0.950 . S
C843 C841 1.390 . S
C843 C844 1.387 . S
C843 H846 0.950 . S
C844 C843 1.387 . S
C844 C847 1.387 . S
H845 C841 0.950 . S
H846 C843 0.950 . S
C847 C838 1.390 . S
C847 H840 0.950 . S
C847 C844 1.387 . S
C848 C849 1.387 . S
C848 H852 0.950 . S
C848 C857 1.390 . S
C849 C848 1.387 . S
C849 C851 1.387 1_455 S
H850 C857 0.950 . S
C851 C849 1.387 1_655 S
C851 C853 1.390 . S
C851 H855 0.950 . S
H852 C848 0.950 . S
C853 C851 1.390 . S
C853 C854 1.387 . S
C853 H856 0.950 . S
C854 C853 1.387 . S
C854 C857 1.387 1_655 S
H855 C851 0.950 . S
H856 C853 0.950 . S
C857 C848 1.390 . S
C857 H850 0.950 . S
C857 C854 1.387 1_455 S
C858 C859 1.387 . S
C858 H862 0.950 . S
C858 C867 1.390 . S
C859 C858 1.387 . S
C859 C861 1.387 . S
H860 C867 0.950 . S
C861 C859 1.387 . S
C861 C863 1.390 . S
C861 H865 0.950 . S
H862 C858 0.950 . S
C863 C861 1.390 . S
C863 C864 1.387 . S
C863 H866 0.950 . S
C864 C863 1.387 . S
C864 C867 1.387 . S
H865 C861 0.950 . S
H866 C863 0.950 . S
C867 C858 1.390 . S
C867 H860 0.950 . S
C867 C864 1.387 . S
C868 C869 1.387 . S
C868 H872 0.950 . S
C868 C877 1.390 . S
C869 C868 1.387 . S
C869 C871 1.387 . S
H870 C877 0.950 . S
C871 C869 1.387 . S
C871 C873 1.390 . S
C871 H875 0.950 . S
H872 C868 0.950 . S
C873 C871 1.390 . S
C873 C874 1.387 . S
C873 H876 0.950 . S
C874 C873 1.387 . S
C874 C877 1.387 . S
H875 C871 0.950 . S
H876 C873 0.950 . S
C877 C868 1.390 . S
C877 H870 0.950 . S
C877 C874 1.387 . S
C878 C879 1.387 . S
C878 H882 0.950 . S
C878 C887 1.390 . S
C879 C878 1.387 . S
C879 C881 1.387 . S
H880 C887 0.950 . S
C881 C879 1.387 . S
C881 C883 1.390 . S
C881 H885 0.950 . S
H882 C878 0.950 . S
C883 C881 1.390 . S
C883 C884 1.387 . S
C883 H886 0.950 . S
C884 C883 1.387 . S
C884 C887 1.387 . S
H885 C881 0.950 . S
H886 C883 0.950 . S
C887 C878 1.390 . S
C887 H880 0.950 . S
C887 C884 1.387 . S
C888 C889 1.387 . S
C888 H892 0.950 . S
C888 C897 1.390 . S
C889 C888 1.387 . S
C889 C891 1.387 . S
H890 C897 0.950 . S
C891 C889 1.387 . S
C891 C893 1.390 . S
C891 H895 0.950 . S
H892 C888 0.950 . S
C893 C891 1.390 . S
C893 C894 1.387 . S
C893 H896 0.950 . S
C894 C893 1.387 . S
C894 C897 1.387 . S
H895 C891 0.950 . S
H896 C893 0.950 . S
C897 C888 1.390 . S
C897 H890 0.950 . S
C897 C894 1.387 . S
C898 C899 1.387 . S
C898 H902 0.950 . S
C898 C907 1.353 1_545 S
C899 C898 1.387 . S
C899 C901 1.423 . S
H900 C907 0.953 . S
C901 C899 1.423 . S
C901 C903 1.353 1_545 S
C901 H905 0.953 . S
H902 C898 0.950 . S
C903 C901 1.353 1_565 S
C903 C904 1.387 . S
C903 H906 0.950 . S
C904 C903 1.387 . S
C904 C907 1.423 . S
H905 C901 0.953 . S
H906 C903 0.950 . S
C907 C898 1.353 1_565 S
C907 H900 0.953 . S
C907 C904 1.423 . S
C908 C909 1.387 . S
C908 H912 0.950 . S
C908 C917 1.390 . S
C909 C908 1.387 . S
C909 C911 1.387 . S
H910 C917 0.950 . S
C911 C909 1.387 . S
C911 C913 1.390 . S
C911 H915 0.950 . S
H912 C908 0.950 . S
C913 C911 1.390 . S
C913 C914 1.387 . S
C913 H916 0.950 . S
C914 C913 1.387 . S
C914 C917 1.387 . S
H915 C911 0.950 . S
H916 C913 0.950 . S
C917 C908 1.390 . S
C917 H910 0.950 . S
C917 C914 1.387 . S
C918 C919 1.387 1_554 S
C918 H922 0.950 . S
C918 C927 1.390 . S
C919 C918 1.387 1_556 S
C919 C921 1.387 . S
H920 C927 0.950 . S
C921 C919 1.387 . S
C921 C923 1.390 . S
C921 H925 0.950 . S
H922 C918 0.950 . S
C923 C921 1.390 . S
C923 C924 1.387 1_556 S
C923 H926 0.950 . S
C924 C923 1.387 1_554 S
C924 C927 1.387 . S
H925 C921 0.950 . S
H926 C923 0.950 . S
C927 C918 1.390 . S
C927 H920 0.950 . S
C927 C924 1.387 . S
C928 C929 1.387 . S
C928 H932 0.950 . S
C928 C937 1.390 . S
C929 C928 1.387 . S
C929 C931 1.387 . S
H930 C937 0.950 . S
C931 C929 1.387 . S
C931 C933 1.390 . S
C931 H935 0.950 . S
H932 C928 0.950 . S
C933 C931 1.390 . S
C933 C934 1.387 . S
C933 H936 0.950 . S
C934 C933 1.387 . S
C934 C937 1.387 . S
H935 C931 0.950 . S
H936 C933 0.950 . S
C937 C928 1.390 . S
C937 H930 0.950 . S
C937 C934 1.387 . S
C938 C939 1.387 . S
C938 H942 0.950 . S
C938 C947 1.390 . S
C939 C938 1.387 . S
C939 C941 1.387 . S
H940 C947 0.950 . S
C941 C939 1.387 . S
C941 C943 1.390 . S
C941 H945 0.950 . S
H942 C938 0.950 . S
C943 C941 1.390 . S
C943 C944 1.387 . S
C943 H946 0.950 . S
C944 C943 1.387 . S
C944 C947 1.387 . S
H945 C941 0.950 . S
H946 C943 0.950 . S
C947 C938 1.390 . S
C947 H940 0.950 . S
C947 C944 1.387 . S
C948 C949 1.387 . S
C948 H952 0.950 . S
C948 C957 1.390 . S
C949 C948 1.387 . S
C949 C951 1.387 . S
H950 C957 0.950 . S
C951 C949 1.387 . S
C951 C953 1.390 . S
C951 H955 0.950 . S
H952 C948 0.950 . S
C953 C951 1.390 . S
C953 C954 1.387 . S
C953 H956 0.950 . S
C954 C953 1.387 . S
C954 C957 1.387 . S
H955 C951 0.950 . S
H956 C953 0.950 . S
C957 C948 1.390 . S
C957 H950 0.950 . S
C957 C954 1.387 . S
C958 C959 1.387 . S
C958 H962 0.950 . S
C958 C967 1.390 . S
C959 C958 1.387 . S
C959 C961 1.387 . S
H960 C967 0.950 . S
C961 C959 1.387 . S
C961 C963 1.390 . S
C961 H965 0.950 . S
H962 C958 0.950 . S
C963 C961 1.390 . S
C963 C964 1.387 . S
C963 H966 0.950 . S
C964 C963 1.387 . S
C964 C967 1.387 . S
H965 C961 0.950 . S
H966 C963 0.950 . S
C967 C958 1.390 . S
C967 H960 0.950 . S
C967 C964 1.387 . S
C968 C969 1.387 . S
C968 H972 0.950 . S
C968 C977 1.390 . S
C969 C968 1.387 . S
C969 C971 1.387 . S
H970 C977 0.950 . S
C971 C969 1.387 . S
C971 C973 1.390 . S
C971 H975 0.950 . S
H972 C968 0.950 . S
C973 C971 1.390 . S
C973 C974 1.387 . S
C973 H976 0.950 . S
C974 C973 1.387 . S
C974 C977 1.387 . S
H975 C971 0.950 . S
H976 C973 0.950 . S
C977 C968 1.390 . S
C977 H970 0.950 . S
C977 C974 1.387 . S
C978 C979 1.387 . S
C978 H982 0.950 . S
C978 C987 1.390 . S
C979 C978 1.387 . S
C979 C981 1.387 . S
H980 C987 0.950 . S
C981 C979 1.387 . S
C981 C983 1.390 . S
C981 H985 0.950 . S
H982 C978 0.950 . S
C983 C981 1.390 . S
C983 C984 1.387 . S
C983 H986 0.950 . S
C984 C983 1.387 . S
C984 C987 1.387 . S
H985 C981 0.950 . S
H986 C983 0.950 . S
C987 C978 1.390 . S
C987 H980 0.950 . S
C987 C984 1.387 . S
C988 C989 1.387 . S
C988 H992 0.950 . S
C988 C997 1.390 . S
C989 C988 1.387 . S
C989 C991 1.387 . S
H990 C997 0.950 . S
C991 C989 1.387 . S
C991 C993 1.390 . S
C991 H995 0.950 . S
H992 C988 0.950 . S
C993 C991 1.390 . S
C993 C994 1.387 . S
C993 H996 0.950 . S
C994 C993 1.387 . S
C994 C997 1.387 . S
H995 C991 0.950 . S
H996 C993 0.950 . S
C997 C988 1.390 . S
C997 H990 0.950 . S
C997 C994 1.387 . S
C998 C999 1.387 . S
C998 H1002 0.950 . S
C998 C1007 1.390 . S
C999 C998 1.387 . S
C999 C1001 1.387 . S
H1000 C1007 0.950 . S
C1001 C999 1.387 . S
C1001 C1003 1.390 . S
C1001 H1005 0.950 . S
H1002 C998 0.950 . S
C1003 C1001 1.390 . S
C1003 C1004 1.387 . S
C1003 H1006 0.950 . S
C1004 C1003 1.387 . S
C1004 C1007 1.387 . S
H1005 C1001 0.950 . S
H1006 C1003 0.950 . S
C1007 C998 1.390 . S
C1007 H1000 0.950 . S
C1007 C1004 1.387 . S
C1008 C1009 1.387 . S
C1008 H1012 0.950 . S
C1008 C1017 1.390 . S
C1009 C1008 1.387 . S
C1009 C1011 1.387 . S
H1010 C1017 0.950 . S
C1011 C1009 1.387 . S
C1011 C1013 1.390 . S
C1011 H1015 0.950 . S
H1012 C1008 0.950 . S
C1013 C1011 1.390 . S
C1013 C1014 1.387 . S
C1013 H1016 0.950 . S
C1014 C1013 1.387 . S
C1014 C1017 1.387 . S
H1015 C1011 0.950 . S
H1016 C1013 0.950 . S
C1017 C1008 1.390 . S
C1017 H1010 0.950 . S
C1017 C1014 1.387 . S
C1018 C1019 1.387 . S
C1018 H1022 0.950 . S
C1018 C1027 1.390 . S
C1019 C1018 1.387 . S
C1019 C1021 1.387 . S
H1020 C1027 0.950 . S
C1021 C1019 1.387 . S
C1021 C1023 1.390 . S
C1021 H1025 0.950 . S
H1022 C1018 0.950 . S
C1023 C1021 1.390 . S
C1023 C1024 1.387 . S
C1023 H1026 0.950 . S
C1024 C1023 1.387 . S
C1024 C1027 1.387 . S
H1025 C1021 0.950 . S
H1026 C1023 0.950 . S
C1027 C1018 1.390 . S
C1027 H1020 0.950 . S
C1027 C1024 1.387 . S
C1028 C1029 1.387 . S
C1028 H1032 0.950 . S
C1028 C1037 1.390 . S
C1029 C1028 1.387 . S
C1029 C1031 1.387 . S
H1030 C1037 0.950 . S
C1031 C1029 1.387 . S
C1031 C1033 1.390 . S
C1031 H1035 0.950 . S
H1032 C1028 0.950 . S
C1033 C1031 1.390 . S
C1033 C1034 1.387 . S
C1033 H1036 0.950 . S
C1034 C1033 1.387 . S
C1034 C1037 1.387 . S
H1035 C1031 0.950 . S
H1036 C1033 0.950 . S
C1037 C1028 1.390 . S
C1037 H1030 0.950 . S
C1037 C1034 1.387 . S
C1038 C1039 1.387 . S
C1038 H1042 0.950 . S
C1038 C1047 1.390 . S
C1039 C1038 1.387 . S
C1039 C1041 1.387 . S
H1040 C1047 0.950 . S
C1041 C1039 1.387 . S
C1041 C1043 1.390 . S
C1041 H1045 0.950 . S
H1042 C1038 0.950 . S
C1043 C1041 1.390 . S
C1043 C1044 1.387 . S
C1043 H1046 0.950 . S
C1044 C1043 1.387 . S
C1044 C1047 1.387 . S
H1045 C1041 0.950 . S
H1046 C1043 0.950 . S
C1047 C1038 1.390 . S
C1047 H1040 0.950 . S
C1047 C1044 1.387 . S
C1048 C1049 1.387 . S
C1048 H1052 0.950 . S
C1048 C1057 1.390 . S
C1049 C1048 1.387 . S
C1049 C1051 1.387 . S
H1050 C1057 0.950 . S
C1051 C1049 1.387 . S
C1051 C1053 1.390 . S
C1051 H1055 0.950 . S
H1052 C1048 0.950 . S
C1053 C1051 1.390 . S
C1053 C1054 1.387 . S
C1053 H1056 0.950 . S
C1054 C1053 1.387 . S
C1054 C1057 1.387 . S
H1055 C1051 0.950 . S
H1056 C1053 0.950 . S
C1057 C1048 1.390 . S
C1057 H1050 0.950 . S
C1057 C1054 1.387 . S
C1058 C1059 1.387 . S
C1058 H1062 0.950 . S
C1058 C1067 1.390 . S
C1059 C1058 1.387 . S
C1059 C1061 1.387 . S
H1060 C1067 0.950 . S
C1061 C1059 1.387 . S
C1061 C1063 1.390 . S
C1061 H1065 0.950 . S
H1062 C1058 0.950 . S
C1063 C1061 1.390 . S
C1063 C1064 1.387 . S
C1063 H1066 0.950 . S
C1064 C1063 1.387 . S
C1064 C1067 1.387 . S
H1065 C1061 0.950 . S
H1066 C1063 0.950 . S
C1067 C1058 1.390 . S
C1067 H1060 0.950 . S
C1067 C1064 1.387 . S
C1068 C1069 1.387 . S
C1068 H1072 0.950 . S
C1068 C1077 1.390 . S
C1069 C1068 1.387 . S
C1069 C1071 1.387 . S
H1070 C1077 0.950 . S
C1071 C1069 1.387 . S
C1071 C1073 1.390 . S
C1071 H1075 0.950 . S
H1072 C1068 0.950 . S
C1073 C1071 1.390 . S
C1073 C1074 1.387 . S
C1073 H1076 0.950 . S
C1074 C1073 1.387 . S
C1074 C1077 1.387 . S
H1075 C1071 0.950 . S
H1076 C1073 0.950 . S
C1077 C1068 1.390 . S
C1077 H1070 0.950 . S
C1077 C1074 1.387 . S
C1078 C1079 1.387 . S
C1078 H1082 0.950 . S
C1078 C1087 1.390 . S
C1079 C1078 1.387 . S
C1079 C1081 1.387 . S
H1080 C1087 0.950 . S
C1081 C1079 1.387 . S
C1081 C1083 1.390 . S
C1081 H1085 0.950 . S
H1082 C1078 0.950 . S
C1083 C1081 1.390 . S
C1083 C1084 1.387 . S
C1083 H1086 0.950 . S
C1084 C1083 1.387 . S
C1084 C1087 1.387 . S
H1085 C1081 0.950 . S
H1086 C1083 0.950 . S
C1087 C1078 1.390 . S
C1087 H1080 0.950 . S
C1087 C1084 1.387 . S
C449 C149 1.361 . S
C454 C9 1.361 . S
C459 C23 1.363 . S
C464 C163 1.363 . S
C469 C37 1.363 . S
C474 C121 1.363 . S
C479 C135 1.362 . S
C484 C51 1.362 . S
C489 C205 1.361 . S
C494 C65 1.361 . S
C499 C79 1.362 . S
C504 C219 1.362 . S
C509 C177 1.363 . S
C514 C93 1.363 . S
C519 C191 1.362 . S
C524 C107 1.362 . S
C529 C373 1.361 . S
C534 C233 1.361 . S
C539 C387 1.362 . S
C544 C247 1.362 . S
C549 C345 1.363 . S
C554 C261 1.363 . S
C559 C275 1.363 . S
C564 C359 1.363 . S
C569 C429 1.363 . S
C574 C289 1.363 . S
C579 C443 1.363 . S
C584 C303 1.363 . S
C589 C317 1.361 . S
C594 C401 1.361 . S
C599 C331 1.362 . S
C604 C415 1.362 . S
C609 C277 1.382 . S
C614 C11 1.382 . S
C619 C25 1.382 1_655 S
C624 C263 1.382 . S
C629 C249 1.382 . S
C634 C39 1.382 . S
C639 C235 1.384 . S
C644 C53 1.384 1_655 S
C649 C67 1.382 . S
C654 C333 1.382 . S
C659 C81 1.382 1_455 S
C664 C319 1.382 . S
C669 C305 1.384 . S
C674 C95 1.384 . S
C679 C109 1.382 1_455 S
C684 C291 1.382 . S
C689 C389 1.382 . S
C694 C123 1.382 . S
C699 C375 1.382 . S
C704 C137 1.382 1_655 S
C709 C361 1.384 . S
C714 C151 1.384 . S
C719 C347 1.384 . S
C724 C165 1.384 1_655 S
C729 C179 1.384 . S
C734 C445 1.384 . S
C739 C431 1.382 . S
C744 C193 1.382 1_455 S
C749 C207 1.382 . S
C754 C417 1.382 . S
C759 C221 1.384 1_455 S
C764 C403 1.384 . S
C769 C168 1.468 . S
C774 C0 1.468 . S
C779 C14 1.464 . S
C784 C294 1.464 . S
C789 C84 1.468 . S
C794 C28 1.468 . S
C799 C434 1.468 . S
C804 C42 1.468 . S
C809 C56 1.464 . S
C814 C112 1.464 . S
C819 C238 1.465 . S
C824 C70 1.465 . S
C829 C378 1.468 . S
C834 C98 1.468 . S
C839 C406 1.466 . S
C844 C126 1.466 . S
C849 C140 1.465 . S
C854 C196 1.465 . S
C859 C322 1.467 . S
C864 C154 1.467 . S
C869 C350 1.468 . S
C874 C182 1.468 . S
C879 C210 1.465 . S
C884 C266 1.465 . S
C889 C224 1.467 . S
C894 C392 1.467 . S
C899 C308 1.464 . S
C904 C252 1.464 . S
C909 C336 1.468 . S
C914 C280 1.468 . S
C919 C364 1.465 . S
C924 C420 1.465 . S
C929 C5 1.254 . S
C934 C47 1.254 . S
C939 C33 1.254 . S
C944 C19 1.254 . S
C949 C61 1.254 . S
C954 C103 1.254 . S
C959 C75 1.254 . S
C964 C89 1.254 . S
C969 C117 1.251 . S
C974 C159 1.251 . S
C979 C131 1.251 . S
C984 C145 1.251 . S
C989 C173 1.254 . S
C994 C215 1.254 . S
C999 C201 1.251 . S
C1004 C187 1.251 . S
C1009 C271 1.254 . S
C1014 C229 1.254 . S
C1019 C257 1.254 . S
C1024 C243 1.254 . S
C1029 C327 1.251 . S
C1034 C285 1.251 . S
C1039 C313 1.254 . S
C1044 C299 1.254 . S
C1049 C383 1.254 . S
C1054 C341 1.254 . S
C1059 C369 1.251 . S
C1064 C355 1.251 . S
C1069 C397 1.251 . S
C1074 C439 1.251 . S
C1079 C425 1.251 . S
C1084 C411 1.251 . S
