# Generated by pormake.
# Topology smu, (6)-cn, num edge types: 1
# Building blocks:
#     Node 0, Type 0, BuildingBlock: HISSIN_clean_sbu_0, # of connection points: 6
#     Node 1, Type 0, BuildingBlock: HISSIN_clean_sbu_0, # of connection points: 6
#     Node 2, Type 0, BuildingBlock: HISSIN_clean_sbu_0, # of connection points: 6
#     Node 3, Type 0, BuildingBlock: HISSIN_clean_sbu_0, # of connection points: 6
#     Node 4, Type 0, BuildingBlock: HISSIN_clean_sbu_0, # of connection points: 6
#     Node 5, Type 0, BuildingBlock: HISSIN_clean_sbu_0, # of connection points: 6
#     Edge 6, Type (0, 0), BuildingBlock: UVAHIK_clean_linker_0, # of connection points: 2
#     Edge 7, Type (0, 0), BuildingBlock: UVAHIK_clean_linker_0, # of connection points: 2
#     Edge 8, Type (0, 0), BuildingBlock: UVAHIK_clean_linker_0, # of connection points: 2
#     Edge 9, Type (0, 0), BuildingBlock: UVAHIK_clean_linker_0, # of connection points: 2
#     Edge 10, Type (0, 0), BuildingBlock: UVAHIK_clean_linker_0, # of connection points: 2
#     Edge 11, Type (0, 0), BuildingBlock: UVAHIK_clean_linker_0, # of connection points: 2
#     Edge 12, Type (0, 0), BuildingBlock: UVAHIK_clean_linker_0, # of connection points: 2
#     Edge 13, Type (0, 0), BuildingBlock: UVAHIK_clean_linker_0, # of connection points: 2
#     Edge 14, Type (0, 0), BuildingBlock: UVAHIK_clean_linker_0, # of connection points: 2
#     Edge 15, Type (0, 0), BuildingBlock: UVAHIK_clean_linker_0, # of connection points: 2
#     Edge 16, Type (0, 0), BuildingBlock: UVAHIK_clean_linker_0, # of connection points: 2
#     Edge 17, Type (0, 0), BuildingBlock: UVAHIK_clean_linker_0, # of connection points: 2
#     Edge 18, Type (0, 0), BuildingBlock: UVAHIK_clean_linker_0, # of connection points: 2
#     Edge 19, Type (0, 0), BuildingBlock: UVAHIK_clean_linker_0, # of connection points: 2
#     Edge 20, Type (0, 0), BuildingBlock: UVAHIK_clean_linker_0, # of connection points: 2
#     Edge 21, Type (0, 0), BuildingBlock: UVAHIK_clean_linker_0, # of connection points: 2
#     Edge 22, Type (0, 0), BuildingBlock: UVAHIK_clean_linker_0, # of connection points: 2
#     Edge 23, Type (0, 0), BuildingBlock: UVAHIK_clean_linker_0, # of connection points: 2
# Relax obj value: 0.213
# Max RMSD: 0.299
# Mean RMSD: 0.299
data_MOF--net-smu--node1-HISSIN_clean_sbu_0--edge1-UVAHIK_clean_linker_0
_symmetry_space_group_name_H-M    P1
_symmetry_Int_Tables_number       1
_symmetry_cell_setting            triclinic
loop_
_symmetry_equiv_pos_as_xyz
'x, y, z'
_cell_length_a     48.343584
_cell_length_b     48.342351
_cell_length_c     36.382954
_cell_angle_alpha  89.810297
_cell_angle_beta   90.269054
_cell_angle_gamma 120.0869
loop_
_atom_site_label
_atom_site_type_symbol
_atom_site_fract_x
_atom_site_fract_y
_atom_site_fract_z
_atom_type_partial_charge
Eu0 Eu 0.31811 0.10769 0.25861 0.0
Eu1 Eu 0.37165 0.08433 0.25974 0.0
C2 C 0.33649 0.08422 0.18403 0.0
C3 C 0.25546 0.14028 0.25855 0.0
C4 C 0.24239 0.14328 0.22538 0.0
C5 C 0.22588 0.16063 0.29142 0.0
C6 C 0.22088 0.15458 0.22521 0.0
C7 C 0.24686 0.14868 0.2916 0.0
C8 C 0.2126 0.16377 0.2582 0.0
C9 C 0.2781 0.12851 0.25864 0.0
O10 O 0.39787 0.13729 0.24709 0.0
O11 O 0.36446 0.14883 0.27873 0.0
C12 C 0.39226 0.15802 0.26368 0.0
O13 O 0.31353 0.08418 0.31353 0.0
O14 O 0.40471 0.07412 0.23024 0.0
O15 O 0.40174 0.0698 0.28944 0.0
O16 O 0.36479 0.09395 0.31857 0.0
C17 C 0.33682 0.0852 0.33324 0.0
O18 O 0.29067 0.05629 0.24247 0.0
O19 O 0.32343 0.03895 0.26734 0.0
O20 O 0.34966 0.0711 0.2037 0.0
O21 O 0.27632 0.10728 0.28217 0.0
O22 O 0.30161 0.13869 0.23527 0.0
O23 O 0.32769 0.10354 0.19849 0.0
C24 C 0.45192 0.08584 0.26163 0.0
C25 C 0.46984 0.11497 0.28027 0.0
C26 C 0.50118 0.08806 0.24307 0.0
C27 C 0.5033 0.13044 0.2805 0.0
C28 C 0.46783 0.07259 0.24299 0.0
C29 C 0.51937 0.11716 0.26184 0.0
C30 C 0.41679 0.06937 0.25999 0.0
C31 C 0.29574 0.03339 0.2537 0.0
H32 H 0.24856 0.13655 0.19963 0.0
H33 H 0.22063 0.16799 0.31729 0.0
H34 H 0.21065 0.15593 0.19921 0.0
H35 H 0.2569 0.14664 0.31747 0.0
H36 H 0.45801 0.12583 0.29442 0.0
H37 H 0.51272 0.07695 0.22882 0.0
H38 H 0.51658 0.153 0.29484 0.0
H39 H 0.45439 0.05023 0.22826 0.0
Eu40 Eu 0.80613 0.69981 0.26389 0.0
Eu41 Eu 0.72876 0.6473 0.26093 0.0
C42 C 0.76676 0.68366 0.18676 0.0
C43 C 0.89946 0.76356 0.26127 0.0
C44 C 0.91732 0.76178 0.23193 0.0
C45 C 0.94664 0.81196 0.28238 0.0
C46 C 0.94981 0.78449 0.22845 0.0
C47 C 0.91423 0.7894 0.28577 0.0
C48 C 0.96502 0.80912 0.25447 0.0
C49 C 0.86792 0.73616 0.27095 0.0
O50 O 0.7551 0.6209 0.2486 0.0
O51 O 0.79718 0.65237 0.28516 0.0
C52 C 0.78015 0.62554 0.26748 0.0
O53 O 0.78579 0.70453 0.3174 0.0
O54 O 0.68586 0.61462 0.23017 0.0
O55 O 0.68341 0.61715 0.28919 0.0
O56 O 0.74331 0.65367 0.32072 0.0
C57 C 0.76261 0.68137 0.33611 0.0
O58 O 0.78429 0.72891 0.24629 0.0
O59 O 0.73245 0.69601 0.26673 0.0
O60 O 0.73971 0.66933 0.20492 0.0
O61 O 0.84729 0.74147 0.28786 0.0
O62 O 0.85451 0.711 0.24968 0.0
O63 O 0.79472 0.6933 0.2027 0.0
C64 C 0.65024 0.56626 0.26097 0.0
C65 C 0.64066 0.55002 0.29478 0.0
C66 C 0.62256 0.5149 0.22942 0.0
C67 C 0.62217 0.51662 0.29587 0.0
C68 C 0.64096 0.54827 0.22833 0.0
C69 C 0.61273 0.49865 0.26319 0.0
C70 C 0.66867 0.60175 0.25943 0.0
C71 C 0.75574 0.72385 0.25481 0.0
H72 H 0.90672 0.74195 0.21283 0.0
H73 H 0.95761 0.83096 0.30251 0.0
H74 H 0.96341 0.78161 0.20673 0.0
H75 H 0.90119 0.79122 0.30889 0.0
H76 H 0.6472 0.56311 0.32045 0.0
H77 H 0.61533 0.50189 0.20372 0.0
H78 H 0.61529 0.50485 0.32236 0.0
H79 H 0.64756 0.55999 0.20179 0.0
Eu80 Eu 0.90766 0.21257 0.26555 0.0
Eu81 Eu 0.93274 0.2899 0.26569 0.0
C82 C 0.93692 0.25519 0.19193 0.0
C83 C 0.87798 0.11924 0.25962 0.0
C84 C 0.85871 0.10118 0.22996 0.0
C85 C 0.87968 0.07247 0.2813 0.0
C86 C 0.84934 0.06881 0.22657 0.0
C87 C 0.88915 0.10478 0.28457 0.0
C88 C 0.85878 0.05388 0.25304 0.0
C89 C 0.88124 0.15045 0.26904 0.0
O90 O 0.88038 0.26377 0.25051 0.0
O91 O 0.86863 0.22075 0.28578 0.0
C92 C 0.85938 0.23825 0.26815 0.0
O93 O 0.93053 0.23071 0.32082 0.0
O94 O 0.94318 0.33297 0.23538 0.0
O95 O 0.94757 0.33489 0.29457 0.0
O96 O 0.92403 0.27432 0.32507 0.0
C97 C 0.93126 0.25397 0.34004 0.0
O98 O 0.95994 0.23445 0.25493 0.0
O99 O 0.97767 0.28656 0.27404 0.0
O100 O 0.94932 0.28111 0.21213 0.0
O101 O 0.90508 0.17014 0.28978 0.0
O102 O 0.87215 0.165 0.24575 0.0
O103 O 0.91554 0.22701 0.20514 0.0
C104 C 0.9304 0.36841 0.2661 0.0
C105 C 0.92552 0.37958 0.29969 0.0
C106 C 0.90548 0.39483 0.23433 0.0
C107 C 0.91082 0.39821 0.30057 0.0
C108 C 0.92019 0.37626 0.23344 0.0
C109 C 0.9008 0.40624 0.26787 0.0
C110 C 0.9473 0.3499 0.26482 0.0
C111 C 0.98277 0.26315 0.26446 0.0
H112 H 0.84937 0.11152 0.21055 0.0
H113 H 0.8877 0.0617 0.30179 0.0
H114 H 0.8331 0.05504 0.20459 0.0
H115 H 0.90373 0.11792 0.30797 0.0
H116 H 0.93329 0.37418 0.32533 0.0
H117 H 0.89854 0.40097 0.20858 0.0
H118 H 0.90729 0.40632 0.32692 0.0
H119 H 0.92393 0.36842 0.20702 0.0
Eu120 Eu 0.08814 0.36723 0.76157 0.0
Eu121 Eu 0.11456 0.31623 0.76766 0.0
C122 C 0.0835 0.33133 0.83606 0.0
C123 C 0.09027 0.44763 0.75697 0.0
C124 C 0.11071 0.46635 0.7856 0.0
C125 C 0.09973 0.49635 0.72614 0.0
C126 C 0.12515 0.49967 0.78472 0.0
C127 C 0.08512 0.463 0.72715 0.0
C128 C 0.11964 0.51512 0.75513 0.0
C129 C 0.07325 0.41226 0.75848 0.0
O130 O 0.06176 0.28377 0.76263 0.0
O131 O 0.0429 0.31918 0.75333 0.0
C132 C 0.0386 0.29001 0.75628 0.0
O133 O 0.10058 0.35933 0.70435 0.0
O134 O 0.11984 0.28038 0.79902 0.0
O135 O 0.1479 0.30128 0.74949 0.0
O136 O 0.09355 0.309 0.71063 0.0
C137 C 0.09331 0.33144 0.69031 0.0
O138 O 0.13975 0.39506 0.78054 0.0
O139 O 0.1554 0.36376 0.75153 0.0
O140 O 0.1092 0.33087 0.82532 0.0
O141 O 0.07476 0.39723 0.72948 0.0
O142 O 0.07567 0.39936 0.78897 0.0
O143 O 0.06787 0.33934 0.81309 0.0
C144 C 0.14333 0.25232 0.77098 0.0
C145 C 0.1433 0.24053 0.73573 0.0
C146 C 0.15714 0.21456 0.79711 0.0
C147 C 0.15065 0.21614 0.73122 0.0
C148 C 0.14965 0.23867 0.80156 0.0
C149 C 0.15833 0.20334 0.76186 0.0
C150 C 0.14147 0.28145 0.77682 0.0
C151 C 0.16241 0.39077 0.76706 0.0
H152 H 0.11524 0.4553 0.80905 0.0
H153 H 0.09539 0.5074 0.70258 0.0
H154 H 0.13998 0.51323 0.80775 0.0
H155 H 0.06953 0.44916 0.70472 0.0
H156 H 0.13861 0.25079 0.71165 0.0
H157 H 0.16346 0.20581 0.82132 0.0
H158 H 0.1509 0.20774 0.70374 0.0
H159 H 0.15027 0.24774 0.82895 0.0
Eu160 Eu 0.29175 0.92901 0.76078 0.0
Eu161 Eu 0.21427 0.90339 0.75836 0.0
C162 C 0.25397 0.92712 0.83506 0.0
C163 C 0.37053 0.92756 0.76058 0.0
C164 C 0.36931 0.90768 0.78962 0.0
C165 C 0.40921 0.91751 0.72973 0.0
C166 C 0.3881 0.89316 0.78887 0.0
C167 C 0.39055 0.93216 0.73058 0.0
C168 C 0.40852 0.8981 0.75906 0.0
C169 C 0.35201 0.94442 0.76168 0.0
O170 O 0.23612 0.95438 0.77538 0.0
O171 O 0.28751 0.97368 0.75352 0.0
C172 C 0.26429 0.97807 0.76581 0.0
O173 O 0.27648 0.91952 0.70133 0.0
O174 O 0.16599 0.86608 0.773 0.0
O175 O 0.173 0.90361 0.73442 0.0
O176 O 0.23421 0.92804 0.70445 0.0
C177 C 0.25714 0.92776 0.68573 0.0
O178 O 0.26607 0.87621 0.77381 0.0
O179 O 0.22322 0.86483 0.73812 0.0
O180 O 0.22599 0.90842 0.81939 0.0
O181 O 0.33677 0.94399 0.73185 0.0
O182 O 0.33527 0.94079 0.7911 0.0
O183 O 0.28093 0.9401 0.81674 0.0
C184 C 0.1214 0.87429 0.76243 0.0
C185 C 0.10746 0.88766 0.73987 0.0
C186 C 0.07089 0.84421 0.79477 0.0
C187 C 0.07534 0.8787 0.74399 0.0
C188 C 0.10305 0.85314 0.7906 0.0
C189 C 0.05644 0.85605 0.77065 0.0
C190 C 0.15244 0.87778 0.7518 0.0
C191 C 0.24058 0.85541 0.75582 0.0
H192 H 0.35418 0.90362 0.81324 0.0
H193 H 0.42419 0.92142 0.70601 0.0
H194 H 0.38718 0.8787 0.81214 0.0
H195 H 0.39194 0.94732 0.70782 0.0
H196 H 0.12087 0.90376 0.71766 0.0
H197 H 0.0569 0.82657 0.81545 0.0
H198 H 0.06499 0.88862 0.72538 0.0
H199 H 0.11297 0.8421 0.80813 0.0
Eu200 Eu 0.64926 0.72539 0.76231 0.0
Eu201 Eu 0.70185 0.80261 0.7609 0.0
C202 C 0.68632 0.76217 0.83717 0.0
C203 C 0.5685 0.6476 0.76228 0.0
C204 C 0.55166 0.65318 0.78994 0.0
C205 C 0.51787 0.60698 0.7362 0.0
C206 C 0.51826 0.63548 0.791 0.0
C207 C 0.55129 0.62452 0.73532 0.0
C208 C 0.50099 0.61204 0.76426 0.0
C209 C 0.60382 0.66533 0.76121 0.0
O210 O 0.73112 0.78047 0.77661 0.0
O211 O 0.69771 0.72883 0.75559 0.0
C212 C 0.7257 0.7519 0.76748 0.0
O213 O 0.65633 0.74115 0.70295 0.0
O214 O 0.71517 0.85081 0.77896 0.0
O215 O 0.74127 0.84408 0.73435 0.0
O216 O 0.70735 0.78296 0.7073 0.0
C217 C 0.68424 0.76022 0.68804 0.0
O218 O 0.62264 0.75115 0.77663 0.0
O219 O 0.65412 0.7941 0.74132 0.0
O220 O 0.69651 0.79041 0.82178 0.0
O221 O 0.617 0.68198 0.73166 0.0
O222 O 0.61883 0.68051 0.79091 0.0
O223 O 0.67089 0.73531 0.81869 0.0
C224 C 0.76568 0.89614 0.76145 0.0
C225 C 0.78302 0.91425 0.73101 0.0
C226 C 0.7962 0.94256 0.8005 0.0
C227 C 0.80611 0.94635 0.73497 0.0
C228 C 0.77277 0.9103 0.79642 0.0
C229 C 0.81263 0.96117 0.76962 0.0
C230 C 0.73776 0.86441 0.75441 0.0
C231 C 0.62742 0.77682 0.75907 0.0
H232 H 0.56425 0.67109 0.81091 0.0
H233 H 0.50528 0.58891 0.7154 0.0
H234 H 0.50592 0.64022 0.81268 0.0
H235 H 0.56375 0.61984 0.71371 0.0
H236 H 0.77759 0.90396 0.70368 0.0
H237 H 0.80092 0.95308 0.82766 0.0
H238 H 0.81765 0.95988 0.71041 0.0
H239 H 0.75957 0.89681 0.82033 0.0
C240 C 0.28399 0.94609 0.89388 0.0
C241 C 0.25589 0.9372 0.87377 0.0
C242 C 0.28868 0.96026 0.92837 0.0
C243 C 0.26731 0.00935 0.98409 0.0
H244 H 0.30603 0.98542 0.06226 0.0
C245 C 0.2996 0.06936 0.12954 0.0
C246 C 0.32774 0.07305 0.14569 0.0
C247 C 0.2884 0.05294 0.09611 0.0
C248 C 0.29554 0.99268 0.04063 0.0
H249 H 0.21052 0.93606 0.87413 0.0
H250 H 0.2188 0.96111 0.93499 0.0
H251 H 0.28923 0.95435 1.00587 0.0
H252 H 0.36722 0.0644 0.13853 0.0
H253 H 0.3485 0.03701 0.08003 0.0
H254 H 0.27442 0.04826 0.01876 0.0
C255 C 0.23708 0.95684 0.92386 0.0
C256 C 0.28573 0.97471 1.00838 0.0
C257 C 0.23216 0.94216 0.88932 0.0
C258 C 0.34534 0.06172 0.12687 0.0
C259 C 0.33439 0.04569 0.09351 0.0
C260 C 0.27731 0.02753 0.01648 0.0
C261 C 0.26555 0.96624 0.94359 0.0
C262 C 0.27212 0.98318 0.97942 0.0
C263 C 0.30525 0.04012 0.07826 0.0
C264 C 0.29225 0.01982 0.04478 0.0
H265 H 0.30282 0.94281 0.88249 0.0
H266 H 0.31105 0.96758 0.94259 0.0
H267 H 0.25707 0.01657 0.96214 0.0
H268 H 0.28533 0.0775 0.14369 0.0
H269 H 0.26584 0.04903 0.08518 0.0
C270 C 0.72089 0.77414 0.63395 0.0
C271 C 0.69095 0.75402 0.65013 0.0
C272 C 0.72858 0.76659 0.59983 0.0
C273 C 0.70747 0.69797 0.53907 0.0
H274 H 0.75305 0.76292 0.46508 0.0
C275 C 0.72759 0.66667 0.39189 0.0
C276 C 0.75632 0.68784 0.37409 0.0
C277 C 0.72015 0.67452 0.42601 0.0
C278 C 0.74074 0.74453 0.48562 0.0
H279 H 0.64538 0.71048 0.64258 0.0
H280 H 0.65875 0.6975 0.58292 0.0
H281 H 0.7385 0.77759 0.52285 0.0
H282 H 0.80027 0.73347 0.37888 0.0
H283 H 0.78773 0.74671 0.43869 0.0
H284 H 0.70998 0.66495 0.50214 0.0
C285 C 0.67638 0.71895 0.59687 0.0
C286 C 0.73229 0.75295 0.51871 0.0
C287 C 0.66861 0.72657 0.63093 0.0
C288 C 0.77787 0.71661 0.39173 0.0
C289 C 0.77053 0.72436 0.42594 0.0
C290 C 0.71607 0.68956 0.50607 0.0
C291 C 0.7066 0.73867 0.58112 0.0
C292 C 0.71545 0.72975 0.54579 0.0
C293 C 0.74135 0.70365 0.44331 0.0
C294 C 0.73275 0.7127 0.47883 0.0
H295 H 0.73875 0.7954 0.64801 0.0
H296 H 0.75216 0.78215 0.58864 0.0
H297 H 0.69502 0.67961 0.55963 0.0
H298 H 0.71029 0.64446 0.37895 0.0
H299 H 0.69729 0.65814 0.43826 0.0
C300 C 0.93877 0.23241 0.12993 0.0
C301 C 0.95045 0.25828 0.15453 0.0
C302 C 0.95331 0.23604 0.09551 0.0
C303 C 0.02933 0.28791 0.04616 0.0
H304 H 0.97754 0.25879 0.95779 0.0
C305 C 0.08444 0.31027 0.89949 0.0
C306 C 0.07016 0.32083 0.8735 0.0
C307 C 0.07017 0.29891 0.93395 0.0
C308 C 0.99236 0.26703 0.98224 0.0
H309 H 0.98674 0.30826 0.16192 0.0
H310 H 0.01148 0.31434 0.10271 0.0
H311 H 0.95165 0.24548 0.01785 0.0
H312 H 0.02968 0.32784 0.86362 0.0
H313 H 1.00539 0.30856 0.92314 0.0
H314 H 0.06996 0.31055 1.0106 0.0
C315 C 0.99141 0.29119 0.1099 0.0
C316 C 0.9775 0.25909 0.01664 0.0
C317 C 0.97685 0.2877 0.14386 0.0
C318 C 0.04149 0.31993 0.88282 0.0
C319 C 0.02726 0.30851 0.91694 0.0
C320 C 0.04418 0.29576 1.01178 0.0
C321 C 0.98002 0.26545 0.08534 0.0
C322 C 0.99578 0.27013 0.04899 0.0
C323 C 0.04124 0.29766 0.94289 0.0
C324 C 0.02583 0.28608 0.97939 0.0
H325 H 0.9186 0.20941 0.13731 0.0
H326 H 0.94399 0.21574 0.07711 0.0
H327 H 0.04412 0.29642 0.07061 0.0
H328 H 0.1064 0.31047 0.89312 0.0
H329 H 0.08151 0.29065 0.95336 0.0
C330 C 0.30059 0.06376 0.3879 0.0
C331 C 0.33013 0.07257 0.37135 0.0
C332 C 0.29273 0.04847 0.4221 0.0
C333 C 0.31154 0.99859 0.48199 0.0
H334 H 0.2693 0.02045 0.55728 0.0
C335 C 0.29145 0.94672 0.62931 0.0
C336 C 0.26328 0.94027 0.64759 0.0
C337 C 0.29896 0.96197 0.59506 0.0
C338 C 0.28066 0.01369 0.53637 0.0
H339 H 0.37485 0.07279 0.37834 0.0
H340 H 0.36114 0.04628 0.43808 0.0
H341 H 0.28425 0.04998 0.49947 0.0
H342 H 0.22035 0.9438 0.64353 0.0
H343 H 0.23303 0.96958 0.58354 0.0
H344 H 0.30768 0.96209 0.5186 0.0
C345 C 0.34398 0.05098 0.42439 0.0
C346 C 0.28933 0.03073 0.50328 0.0
C347 C 0.35194 0.06647 0.39029 0.0
C348 C 0.24231 0.94848 0.63029 0.0
C349 C 0.24973 0.96356 0.596 0.0
C350 C 0.30271 0.98142 0.51499 0.0
C351 C 0.31412 0.04144 0.44046 0.0
C352 C 0.30498 0.02346 0.47576 0.0
C353 C 0.2784 0.97099 0.57819 0.0
C354 C 0.28722 0.9888 0.54267 0.0
H355 H 0.28315 0.06797 0.37404 0.0
H356 H 0.26944 0.04122 0.43361 0.0
H357 H 0.32306 0.99202 0.46108 0.0
H358 H 0.30828 0.94098 0.64196 0.0
H359 H 0.32142 0.96761 0.58241 0.0
C360 C 0.72306 0.78425 0.89204 0.0
C361 C 0.69502 0.75979 0.87571 0.0
C362 C 0.73327 0.77947 0.92649 0.0
C363 C 0.70405 0.72834 1.00949 0.0
H364 H 0.7917 0.74776 0.0222 0.0
C365 C 0.73691 0.6727 0.12784 0.0
C366 C 0.76481 0.69218 0.1481 0.0
C367 C 0.7312 0.68307 0.09435 0.0
C368 C 0.76725 0.74255 0.01925 0.0
H369 H 0.65534 0.71157 0.88315 0.0
H370 H 0.67276 0.70349 0.94288 0.0
H371 H 0.77581 0.76372 0.96547 0.0
H372 H 0.80929 0.7374 0.14845 0.0
H373 H 0.79926 0.75579 0.08953 0.0
H374 H 0.6952 0.70705 0.0628 0.0
C375 C 0.68691 0.72636 0.92937 0.0
C376 C 0.75816 0.75176 0.9868 0.0
C377 C 0.67695 0.73098 0.89501 0.0
C378 C 0.78778 0.72169 0.13315 0.0
C379 C 0.78193 0.73227 0.09952 0.0
C380 C 0.71309 0.71926 0.04178 0.0
C381 C 0.71537 0.75034 0.94541 0.0
C382 C 0.72626 0.74411 0.98127 0.0
C383 C 0.75306 0.71344 0.08032 0.0
C384 C 0.7446 0.72553 0.04678 0.0
H385 H 0.73773 0.80653 0.87761 0.0
H386 H 0.75524 0.79845 0.93822 0.0
H387 H 0.67945 0.72265 1.00644 0.0
H388 H 0.71883 0.64976 0.13856 0.0
H389 H 0.70916 0.66752 0.07985 0.0
C390 C 0.95224 0.28796 0.39669 0.0
C391 C 0.9443 0.2595 0.37801 0.0
C392 C 0.96841 0.29502 0.43041 0.0
C393 C 0.98796 0.25926 0.50907 0.0
H394 H 0.05997 0.34496 0.52164 0.0
C395 C 0.07095 0.2939 0.63649 0.0
C396 C 0.08093 0.32408 0.65204 0.0
C397 C 0.05562 0.28576 0.60219 0.0
C398 C 0.03972 0.32101 0.51885 0.0
H399 H 0.94635 0.21568 0.38083 0.0
H400 H 0.97425 0.22792 0.4397 0.0
H401 H 0.02888 0.33094 0.46497 0.0
H402 H 0.08294 0.36949 0.64326 0.0
H403 H 0.05595 0.3552 0.58419 0.0
H404 H 0.99839 0.24942 0.56317 0.0
C405 C 0.96791 0.24474 0.4283 0.0
C406 C 0.02189 0.31299 0.4863 0.0
C407 C 0.95193 0.23777 0.39449 0.0
C408 C 0.07592 0.34615 0.63205 0.0
C409 C 0.06045 0.33795 0.59796 0.0
C410 C 1.00565 0.26735 0.54179 0.0
C411 C 0.97683 0.2737 0.44635 0.0
C412 C 0.9957 0.28207 0.48108 0.0
C413 C 0.04975 0.30753 0.5827 0.0
C414 C 0.03171 0.2984 0.54721 0.0
H415 H 0.94689 0.30532 0.38477 0.0
H416 H 0.97459 0.31734 0.44388 0.0
H417 H 0.96777 0.23529 0.50599 0.0
H418 H 0.07429 0.27625 0.65115 0.0
H419 H 0.04818 0.26229 0.59108 0.0
C420 C 0.5717 0.13403 0.23039 0.0
C421 C 0.5549 0.13323 0.26222 0.0
C422 C 0.60494 0.14771 0.23116 0.0
C423 C 0.67185 0.16882 0.29584 0.0
H424 H 0.72404 0.21574 0.2123 0.0
C425 C 0.80249 0.19875 0.28298 0.0
C426 C 0.82502 0.22845 0.26799 0.0
C427 C 0.76996 0.18878 0.28245 0.0
C428 C 0.7099 0.20302 0.23604 0.0
H429 H 0.56007 0.14663 0.31973 0.0
H430 H 0.61809 0.17115 0.32089 0.0
H431 H 0.66679 0.19651 0.21122 0.0
H432 H 0.83095 0.27104 0.24079 0.0
H433 H 0.77399 0.25387 0.24051 0.0
H434 H 0.71493 0.17583 0.32101 0.0
C435 C 0.60551 0.16076 0.29542 0.0
C436 C 0.67697 0.19162 0.23523 0.0
C437 C 0.57225 0.14705 0.29465 0.0
C438 C 0.8142 0.24802 0.25251 0.0
C439 C 0.78154 0.23807 0.25216 0.0
C440 C 0.70474 0.18032 0.29671 0.0
C441 C 0.62226 0.161 0.26377 0.0
C442 C 0.65749 0.17419 0.26503 0.0
C443 C 0.759 0.2083 0.26715 0.0
C444 C 0.72418 0.19733 0.26671 0.0
H445 H 0.55913 0.12398 0.20481 0.0
H446 H 0.61695 0.14717 0.20636 0.0
H447 H 0.6576 0.15517 0.3191 0.0
H448 H 0.8099 0.18289 0.29482 0.0
H449 H 0.75333 0.16544 0.29356 0.0
C450 C 0.56592 0.44882 0.28866 0.0
C451 C 0.5918 0.46322 0.26416 0.0
C452 C 0.54541 0.4157 0.28862 0.0
C453 C 0.53911 0.33932 0.26047 0.0
H454 H 0.44802 0.30733 0.26732 0.0
C455 C 0.44443 0.20479 0.24273 0.0
C456 C 0.41695 0.19242 0.26478 0.0
C457 C 0.46657 0.23767 0.24246 0.0
C458 C 0.47339 0.31575 0.2659 0.0
H459 H 0.61677 0.45383 0.22097 0.0
H460 H 0.58073 0.396 0.22066 0.0
H461 H 0.48505 0.36467 0.26763 0.0
H462 H 0.39181 0.20483 0.3048 0.0
H463 H 0.43058 0.26162 0.30509 0.0
H464 H 0.52744 0.29034 0.2591 0.0
C465 C 0.57643 0.41039 0.24003 0.0
C466 C 0.49464 0.34871 0.26601 0.0
C467 C 0.5969 0.44357 0.23997 0.0
C468 C 0.41253 0.21353 0.28718 0.0
C469 C 0.43471 0.24623 0.28714 0.0
C470 C 0.51783 0.30628 0.26056 0.0
C471 C 0.55027 0.39608 0.26415 0.0
C472 C 0.52777 0.36093 0.26349 0.0
C473 C 0.46183 0.25887 0.26444 0.0
C474 C 0.48467 0.29404 0.2635 0.0
H475 H 0.56107 0.46322 0.30741 0.0
H476 H 0.52571 0.40543 0.30786 0.0
H477 H 0.56451 0.34795 0.25881 0.0
H478 H 0.44849 0.18921 0.22505 0.0
H479 H 0.48699 0.24653 0.22436 0.0
C480 C 0.8992 0.45414 0.29174 0.0
C481 C 0.88653 0.4273 0.26854 0.0
C482 C 0.88667 0.47465 0.29144 0.0
C483 C 0.81532 0.47968 0.26514 0.0
H484 H 0.87451 0.571 0.26883 0.0
C485 C 0.77501 0.57368 0.24618 0.0
C486 C 0.79011 0.60112 0.26839 0.0
C487 C 0.7859 0.55173 0.24584 0.0
C488 C 0.85759 0.54557 0.26822 0.0
H489 H 0.85022 0.40066 0.22737 0.0
H490 H 0.82864 0.43676 0.22648 0.0
H491 H 0.89502 0.53419 0.26919 0.0
H492 H 0.82805 0.62656 0.30835 0.0
H493 H 0.8465 0.58819 0.30827 0.0
H494 H 0.77787 0.49114 0.26437 0.0
C495 C 0.84816 0.4418 0.24509 0.0
C496 C 0.86938 0.52445 0.26841 0.0
C497 C 0.86075 0.42129 0.24533 0.0
C498 C 0.81592 0.60579 0.29072 0.0
C499 C 0.8267 0.58387 0.29048 0.0
C500 C 0.8035 0.50085 0.26504 0.0
C501 C 0.86113 0.46886 0.26796 0.0
C502 C 0.84841 0.49124 0.2671 0.0
C503 C 0.81209 0.55673 0.26776 0.0
C504 C 0.82449 0.53406 0.26684 0.0
H505 H 0.91927 0.4597 0.30966 0.0
H506 H 0.89697 0.49506 0.30974 0.0
H507 H 0.7985 0.45423 0.26446 0.0
H508 H 0.75515 0.56944 0.22854 0.0
H509 H 0.77426 0.53124 0.22776 0.0
C510 C 0.11627 0.56442 0.74157 0.0
C511 C 0.13389 0.55055 0.75497 0.0
C512 C 0.12938 0.59757 0.74161 0.0
C513 C 0.19109 0.67169 0.78559 0.0
H514 H 0.17898 0.71216 0.69968 0.0
C515 C 0.24955 0.80968 0.77161 0.0
C516 C 0.23059 0.82097 0.75552 0.0
C517 C 0.23929 0.77691 0.77149 0.0
C518 C 0.18232 0.70125 0.72408 0.0
H519 H 0.1794 0.56104 0.77874 0.0
H520 H 0.20208 0.61894 0.77922 0.0
H521 H 0.15787 0.65467 0.69988 0.0
H522 H 0.18573 0.80657 0.72722 0.0
H523 H 0.16781 0.74994 0.72759 0.0
H524 H 0.2151 0.71827 0.81002 0.0
C525 C 0.17799 0.604 0.76891 0.0
C526 C 0.17022 0.66826 0.72415 0.0
C527 C 0.16494 0.57079 0.76865 0.0
C528 C 0.20117 0.79883 0.73952 0.0
C529 C 0.19091 0.76624 0.73955 0.0
C530 C 0.20307 0.70475 0.78561 0.0
C531 C 0.1604 0.61776 0.75524 0.0
C532 C 0.17424 0.65304 0.75498 0.0
C533 C 0.20985 0.7548 0.75536 0.0
C534 C 0.19858 0.7199 0.75495 0.0
H535 H 0.09205 0.54964 0.73158 0.0
H536 H 0.115 0.6074 0.73146 0.0
H537 H 0.19431 0.6606 0.8099 0.0
H538 H 0.27232 0.82611 0.7842 0.0
H539 H 0.25461 0.76896 0.78365 0.0
C540 C 0.46093 0.90116 0.74517 0.0
C541 C 0.4296 0.88376 0.75894 0.0
C542 C 0.48086 0.88796 0.74515 0.0
C543 C 0.49345 0.82632 0.78926 0.0
H544 H 0.54546 0.83836 0.70333 0.0
C545 C 0.57282 0.7679 0.775 0.0
C546 C 0.60304 0.78687 0.75896 0.0
C547 C 0.55033 0.77814 0.77496 0.0
C548 C 0.53138 0.83503 0.72773 0.0
H549 H 0.39476 0.83856 0.78334 0.0
H550 H 0.42977 0.81569 0.78363 0.0
H551 H 0.50909 0.85941 0.70358 0.0
H552 H 0.63342 0.83176 0.73084 0.0
H553 H 0.59471 0.84965 0.73131 0.0
H554 H 0.51616 0.80234 0.81361 0.0
C555 C 0.4389 0.83969 0.77309 0.0
C556 C 0.51048 0.8471 0.72784 0.0
C557 C 0.41885 0.85284 0.77294 0.0
C558 C 0.61028 0.81631 0.74311 0.0
C559 C 0.58795 0.82655 0.74319 0.0
C560 C 0.51452 0.81435 0.78923 0.0
C561 C 0.4701 0.85706 0.75904 0.0
C562 C 0.49146 0.84314 0.75869 0.0
C563 C 0.55762 0.80759 0.75893 0.0
C564 C 0.53398 0.81883 0.75857 0.0
H565 H 0.47032 0.92528 0.73492 0.0
H566 H 0.50496 0.90222 0.73472 0.0
H567 H 0.47934 0.82313 0.8136 0.0
H568 H 0.5665 0.7451 0.78746 0.0
H569 H 0.5271 0.7628 0.78706 0.0
C570 C 0.20602 0.44807 0.77598 0.0
C571 C 0.19652 0.41587 0.76946 0.0
C572 C 0.2386 0.47133 0.77703 0.0
C573 C 0.31806 0.48043 0.79293 0.0
H574 H 0.35073 0.5588 0.73656 0.0
C575 C 0.45047 0.57948 0.80003 0.0
C576 C 0.46556 0.59229 0.76626 0.0
C577 C 0.41728 0.5598 0.80184 0.0
C578 C 0.34193 0.537 0.7524 0.0
H579 H 0.21373 0.38279 0.75954 0.0
H580 H 0.26999 0.42302 0.76175 0.0
H581 H 0.29311 0.52086 0.73774 0.0
H582 H 0.45755 0.59513 0.70804 0.0
H583 H 0.3995 0.56058 0.71117 0.0
H584 H 0.3667 0.49607 0.80708 0.0
C585 C 0.25248 0.43042 0.76601 0.0
C586 C 0.30896 0.51547 0.75338 0.0
C587 C 0.22015 0.40739 0.7645 0.0
C588 C 0.44664 0.58541 0.73442 0.0
C589 C 0.41338 0.5659 0.73627 0.0
C590 C 0.3509 0.50201 0.79222 0.0
C591 C 0.26213 0.46264 0.77221 0.0
C592 C 0.29674 0.48678 0.77331 0.0
C593 C 0.39837 0.55262 0.76996 0.0
C594 C 0.36327 0.53041 0.7717 0.0
H595 H 0.18835 0.45532 0.77977 0.0
H596 H 0.24541 0.49603 0.78199 0.0
H597 H 0.30933 0.45859 0.80872 0.0
H598 H 0.46438 0.58408 0.825 0.0
H599 H 0.40641 0.55015 0.82825 0.0
C600 C 0.16963 0.17128 0.28724 0.0
C601 C 0.1908 0.17719 0.25791 0.0
C602 C 0.15022 0.18503 0.28766 0.0
C603 C 0.11146 0.21635 0.22889 0.0
H604 H 0.11113 0.26269 0.31557 0.0
C605 C 0.03217 0.27296 0.23331 0.0
C606 C 0.01498 0.2678 0.26591 0.0
C607 C 0.05826 0.26801 0.23236 0.0
C608 C 0.11074 0.24965 0.29125 0.0
H609 H 0.20776 0.20223 0.20587 0.0
H610 H 0.17282 0.22501 0.20606 0.0
H611 H 0.14555 0.23919 0.31375 0.0
H612 H 0.01132 0.25435 0.32313 0.0
H613 H 0.05642 0.24512 0.32166 0.0
H614 H 0.07568 0.22529 0.20688 0.0
C615 C 0.1716 0.20989 0.22878 0.0
C616 C 0.13047 0.23625 0.29025 0.0
C617 C 0.19144 0.19662 0.22862 0.0
C618 C 0.02496 0.25924 0.29799 0.0
C619 C 0.05076 0.25391 0.297 0.0
C620 C 0.09137 0.22931 0.23007 0.0
C621 C 0.15113 0.20452 0.25849 0.0
C622 C 0.13083 0.21934 0.25916 0.0
C623 C 0.06702 0.25711 0.26384 0.0
C624 C 0.09058 0.24596 0.26138 0.0
H625 H 0.16787 0.15588 0.30986 0.0
H626 H 0.13422 0.18017 0.31062 0.0
H627 H 0.11115 0.20316 0.20473 0.0
H628 H 0.02428 0.27896 0.20813 0.0
H629 H 0.07061 0.27132 0.20654 0.0
C630 C 0.01724 0.84302 0.22193 0.0
C631 C 1.00032 0.8299 0.25464 0.0
C632 C 0.05063 0.86152 0.22235 0.0
C633 C 0.11931 0.90795 0.28504 0.0
H634 H 0.16817 0.90123 0.20483 0.0
C635 C 0.25639 0.98276 0.28441 0.0
C636 C 0.2681 1.00092 0.25221 0.0
C637 C 0.22513 0.95671 0.28529 0.0
C638 C 0.15482 0.90326 0.22748 0.0
H639 H 1.00515 0.82528 0.31331 0.0
H640 H 0.06319 0.85718 0.31403 0.0
H641 H 0.11006 0.86744 0.20512 0.0
H642 H 0.25786 1.00526 0.1952 0.0
H643 H 0.2038 0.95948 0.19635 0.0
H644 H 0.16405 0.94406 0.30711 0.0
C645 C 0.05077 0.8539 0.28814 0.0
C646 C 0.12153 0.88411 0.22752 0.0
C647 C 0.01746 0.83562 0.28774 0.0
C648 C 0.24931 0.99126 0.22021 0.0
C649 C 0.21837 0.96508 0.22092 0.0
C650 C 0.1526 0.92695 0.28509 0.0
C651 C 0.06781 0.86705 0.25547 0.0
C652 C 0.10332 0.88652 0.25605 0.0
C653 C 0.20546 0.94836 0.25385 0.0
C654 C 0.17069 0.92513 0.25607 0.0
H655 H 1.00465 0.83918 0.19606 0.0
H656 H 0.06295 0.87176 0.19677 0.0
H657 H 0.10607 0.9108 0.30719 0.0
H658 H 0.27035 0.99022 0.30954 0.0
H659 H 0.21584 0.94406 0.31097 0.0
C660 C 0.83264 1.00148 0.28621 0.0
C661 C 0.84453 0.01864 0.25328 0.0
C662 C 0.81782 0.96819 0.28662 0.0
C663 C 0.77929 0.89728 0.22547 0.0
H664 H 0.79551 0.85546 0.30704 0.0
C665 C 0.76181 0.77067 0.22046 0.0
C666 C 0.75128 0.75164 0.25218 0.0
C667 C 0.76607 0.8014 0.22056 0.0
C668 C 0.79021 0.86672 0.28443 0.0
H669 H 0.85055 0.01439 0.19501 0.0
H670 H 0.82532 0.95615 0.19576 0.0
H671 H 0.81942 0.91334 0.30712 0.0
H672 H 0.73551 0.74875 0.30832 0.0
H673 H 0.74322 0.80299 0.30874 0.0
H674 H 0.75109 0.85054 0.2022 0.0
C675 C 0.82681 0.96841 0.22118 0.0
C676 C 0.804 0.89995 0.28439 0.0
C677 C 0.84143 1.00177 0.22074 0.0
C678 C 0.74314 0.76292 0.28338 0.0
C679 C 0.74792 0.794 0.28371 0.0
C680 C 0.76569 0.86405 0.2254 0.0
C681 C 0.81468 0.95119 0.25413 0.0
C682 C 0.79901 0.9157 0.25472 0.0
C683 C 0.76044 0.81387 0.25265 0.0
C684 C 0.77129 0.84847 0.2547 0.0
H685 H 0.83407 0.01377 0.31162 0.0
H686 H 0.80829 0.95576 0.31235 0.0
H687 H 0.77441 0.90854 0.20253 0.0
H688 H 0.76852 0.76242 0.19624 0.0
H689 H 0.77598 0.81618 0.19633 0.0
C690 C 0.16123 0.15556 0.78371 0.0
C691 C 0.16939 0.17981 0.75747 0.0
C692 C 0.17435 0.13565 0.78215 0.0
C693 C 0.2425 0.13061 0.74305 0.0
H694 H 0.19261 0.0431 0.77724 0.0
C695 C 0.27599 0.02919 0.7356 0.0
C696 C 0.26797 0.01007 0.76728 0.0
C697 C 0.26892 0.05399 0.73349 0.0
C698 C 0.20691 0.06758 0.76784 0.0
H699 H 0.19716 0.2014 0.70819 0.0
H700 H 0.2189 0.16556 0.70446 0.0
H701 H 0.16765 0.07578 0.77233 0.0
H702 H 0.24945 1.00342 0.82264 0.0
H703 H 0.23778 0.04691 0.81927 0.0
H704 H 0.28159 0.12158 0.73782 0.0
C705 C 0.20298 0.16257 0.72689 0.0
C706 C 0.19264 0.08638 0.76511 0.0
C707 C 0.19008 0.18279 0.72869 0.0
C708 C 0.25582 0.01792 0.79794 0.0
C709 C 0.2489 0.04258 0.7959 0.0
C710 C 0.25671 0.11151 0.74532 0.0
C711 C 0.19561 0.13902 0.75391 0.0
C712 C 0.21037 0.11837 0.75346 0.0
C713 C 0.2538 0.0597 0.76305 0.0
C714 C 0.23917 0.08006 0.75854 0.0
H715 H 0.14502 0.15221 0.80595 0.0
H716 H 0.16838 0.11814 0.80378 0.0
H717 H 0.25697 0.1552 0.73421 0.0
H718 H 0.2849 0.02316 0.71145 0.0
H719 H 0.27289 0.0669 0.70787 0.0
C720 C 1.00487 0.83704 0.80464 0.0
C721 C 0.02133 0.84281 0.77123 0.0
C722 C 0.97161 0.82307 0.80496 0.0
C723 C 0.89942 0.7737 0.74901 0.0
H724 H 0.86084 0.80854 0.81334 0.0
C725 C 0.7682 0.74595 0.7371 0.0
C726 C 0.75324 0.74713 0.76948 0.0
C727 C 0.79971 0.75202 0.73823 0.0
C728 C 0.87109 0.79802 0.79573 0.0
H729 H 0.01575 0.83812 0.71196 0.0
H730 H 0.9578 0.81428 0.71253 0.0
H731 H 0.91851 0.83179 0.81329 0.0
H732 H 0.75782 0.75305 0.82848 0.0
H733 H 0.81214 0.76195 0.83089 0.0
H734 H 0.85184 0.7401 0.73116 0.0
C735 C 0.97058 0.82034 0.73848 0.0
C736 C 0.90422 0.8115 0.79562 0.0
C737 C 1.00382 0.83442 0.73815 0.0
C738 C 0.76897 0.75176 0.80325 0.0
C739 C 0.80018 0.75733 0.80449 0.0
C740 C 0.86615 0.76009 0.7492 0.0
C741 C 0.9541 0.81441 0.77188 0.0
C742 C 0.91878 0.79957 0.77223 0.0
C743 C 0.81649 0.75919 0.77183 0.0
C744 C 0.85161 0.77212 0.77259 0.0
H745 H 0.01772 0.84335 0.83054 0.0
H746 H 0.95955 0.8186 0.83116 0.0
H747 H 0.90996 0.76378 0.73091 0.0
H748 H 0.75658 0.74312 0.71071 0.0
H749 H 0.81159 0.75344 0.71256 0.0
C750 C 0.98314 0.25428 0.77838 0.0
C751 C 1.00672 0.26208 0.75164 0.0
C752 C 0.95652 0.22336 0.77969 0.0
C753 C 0.91419 0.14625 0.72807 0.0
H754 H 0.89866 0.10798 0.82517 0.0
C755 C 0.86151 0.01175 0.74944 0.0
C756 C 0.83467 0.99631 0.77251 0.0
C757 C 0.87959 0.04504 0.74815 0.0
C758 C 0.9025 0.11846 0.79798 0.0
H759 H 0.0207 0.24508 0.70433 0.0
H760 H 0.97446 0.19152 0.70614 0.0
H761 H 0.93295 0.1658 0.81837 0.0
H762 H 0.80688 1.0041 0.81367 0.0
H763 H 0.83946 0.06239 0.81236 0.0
H764 H 0.88502 0.09866 0.70762 0.0
C765 C 0.9759 0.20888 0.72594 0.0
C766 C 0.92191 0.15158 0.79405 0.0
C767 C 1.00243 0.23955 0.72483 0.0
C768 C 0.82754 0.01508 0.79585 0.0
C769 C 0.84601 0.04847 0.79494 0.0
C770 C 0.89515 0.11319 0.73198 0.0
C771 C 0.95321 0.2 0.75419 0.0
C772 C 0.92856 0.16577 0.75893 0.0
C773 C 0.87165 0.0637 0.77035 0.0
C774 C 0.88969 0.09894 0.76687 0.0
H775 H 0.98644 0.27125 0.79973 0.0
H776 H 0.93931 0.21735 0.80156 0.0
H777 H 0.91832 0.15644 0.70071 0.0
H778 H 0.86824 0.99813 0.73176 0.0
H779 H 0.89969 0.05625 0.7295 0.0
loop_
_geom_bond_atom_site_label_1
_geom_bond_atom_site_label_2
_geom_bond_distance
_geom_bond_site_symmetry_2
_ccdc_geom_bond_type
Eu0 C9 2.828 . S
Eu0 O11 2.392 . S
Eu0 O13 2.418 . S
Eu0 O18 2.373 . S
Eu0 O21 2.488 . S
Eu0 O22 2.471 . S
Eu0 O23 2.349 . S
Eu1 O10 2.373 . S
Eu1 O14 2.488 . S
Eu1 O15 2.471 . S
Eu1 O16 2.349 . S
Eu1 O19 2.392 . S
Eu1 O20 2.418 . S
Eu1 C30 2.828 . S
C2 O20 1.244 . S
C2 O23 1.265 . S
C3 C4 1.379 . S
C3 C7 1.373 . S
C3 C9 1.505 . S
C4 C3 1.379 . S
C4 C6 1.369 . S
C4 H32 0.930 . S
C5 C7 1.383 . S
C5 C8 1.382 . S
C5 H33 0.930 . S
C6 C4 1.369 . S
C6 C8 1.392 . S
C6 H34 0.930 . S
C7 C3 1.373 . S
C7 C5 1.383 . S
C7 H35 0.931 . S
C8 C5 1.382 . S
C8 C6 1.392 . S
C9 Eu0 2.828 . S
C9 C3 1.505 . S
C9 O21 1.249 . S
C9 O22 1.244 . S
O10 Eu1 2.373 . S
O10 C12 1.258 . S
O11 Eu0 2.392 . S
O11 C12 1.242 . S
C12 O10 1.258 . S
C12 O11 1.242 . S
O13 Eu0 2.418 . S
O13 C17 1.244 . S
O14 Eu1 2.488 . S
O14 C30 1.249 . S
O15 Eu1 2.471 . S
O15 C30 1.244 . S
O16 Eu1 2.349 . S
O16 C17 1.265 . S
C17 O13 1.244 . S
C17 O16 1.265 . S
O18 Eu0 2.373 . S
O18 C31 1.258 . S
O19 Eu1 2.392 . S
O19 C31 1.242 . S
O20 Eu1 2.418 . S
O20 C2 1.244 . S
O21 Eu0 2.488 . S
O21 C9 1.249 . S
O22 Eu0 2.471 . S
O22 C9 1.244 . S
O23 Eu0 2.349 . S
O23 C2 1.265 . S
C24 C25 1.379 . S
C24 C28 1.373 . S
C24 C30 1.505 . S
C25 C24 1.379 . S
C25 C27 1.369 . S
C25 H36 0.930 . S
C26 C28 1.383 . S
C26 C29 1.382 . S
C26 H37 0.930 . S
C27 C25 1.369 . S
C27 C29 1.392 . S
C27 H38 0.930 . S
C28 C24 1.373 . S
C28 C26 1.383 . S
C28 H39 0.931 . S
C29 C26 1.382 . S
C29 C27 1.392 . S
C30 Eu1 2.828 . S
C30 O14 1.249 . S
C30 O15 1.244 . S
C30 C24 1.505 . S
C31 O18 1.258 . S
C31 O19 1.242 . S
H32 C4 0.930 . S
H33 C5 0.930 . S
H34 C6 0.930 . S
H35 C7 0.931 . S
H36 C25 0.930 . S
H37 C26 0.930 . S
H38 C27 0.930 . S
H39 C28 0.931 . S
Eu40 C49 2.828 . S
Eu40 O51 2.392 . S
Eu40 O53 2.418 . S
Eu40 O58 2.373 . S
Eu40 O61 2.488 . S
Eu40 O62 2.471 . S
Eu40 O63 2.349 . S
Eu41 O50 2.373 . S
Eu41 O54 2.488 . S
Eu41 O55 2.471 . S
Eu41 O56 2.349 . S
Eu41 O59 2.392 . S
Eu41 O60 2.418 . S
Eu41 C70 2.828 . S
C42 O60 1.244 . S
C42 O63 1.265 . S
C43 C44 1.379 . S
C43 C47 1.373 . S
C43 C49 1.505 . S
C44 C43 1.379 . S
C44 C46 1.369 . S
C44 H72 0.930 . S
C45 C47 1.383 . S
C45 C48 1.382 . S
C45 H73 0.930 . S
C46 C44 1.369 . S
C46 C48 1.392 . S
C46 H74 0.930 . S
C47 C43 1.373 . S
C47 C45 1.383 . S
C47 H75 0.931 . S
C48 C45 1.382 . S
C48 C46 1.392 . S
C49 Eu40 2.828 . S
C49 C43 1.505 . S
C49 O61 1.249 . S
C49 O62 1.244 . S
O50 Eu41 2.373 . S
O50 C52 1.258 . S
O51 Eu40 2.392 . S
O51 C52 1.242 . S
C52 O50 1.258 . S
C52 O51 1.242 . S
O53 Eu40 2.418 . S
O53 C57 1.244 . S
O54 Eu41 2.488 . S
O54 C70 1.249 . S
O55 Eu41 2.471 . S
O55 C70 1.244 . S
O56 Eu41 2.349 . S
O56 C57 1.265 . S
C57 O53 1.244 . S
C57 O56 1.265 . S
O58 Eu40 2.373 . S
O58 C71 1.258 . S
O59 Eu41 2.392 . S
O59 C71 1.242 . S
O60 Eu41 2.418 . S
O60 C42 1.244 . S
O61 Eu40 2.488 . S
O61 C49 1.249 . S
O62 Eu40 2.471 . S
O62 C49 1.244 . S
O63 Eu40 2.349 . S
O63 C42 1.265 . S
C64 C65 1.379 . S
C64 C68 1.373 . S
C64 C70 1.505 . S
C65 C64 1.379 . S
C65 C67 1.369 . S
C65 H76 0.930 . S
C66 C68 1.383 . S
C66 C69 1.382 . S
C66 H77 0.930 . S
C67 C65 1.369 . S
C67 C69 1.392 . S
C67 H78 0.930 . S
C68 C64 1.373 . S
C68 C66 1.383 . S
C68 H79 0.931 . S
C69 C66 1.382 . S
C69 C67 1.392 . S
C70 Eu41 2.828 . S
C70 O54 1.249 . S
C70 O55 1.244 . S
C70 C64 1.505 . S
C71 O58 1.258 . S
C71 O59 1.242 . S
H72 C44 0.930 . S
H73 C45 0.930 . S
H74 C46 0.930 . S
H75 C47 0.931 . S
H76 C65 0.930 . S
H77 C66 0.930 . S
H78 C67 0.930 . S
H79 C68 0.931 . S
Eu80 C89 2.828 . S
Eu80 O91 2.392 . S
Eu80 O93 2.418 . S
Eu80 O98 2.373 . S
Eu80 O101 2.488 . S
Eu80 O102 2.471 . S
Eu80 O103 2.349 . S
Eu81 O90 2.373 . S
Eu81 O94 2.488 . S
Eu81 O95 2.471 . S
Eu81 O96 2.349 . S
Eu81 O99 2.392 . S
Eu81 O100 2.418 . S
Eu81 C110 2.828 . S
C82 O100 1.244 . S
C82 O103 1.265 . S
C83 C84 1.379 . S
C83 C87 1.373 . S
C83 C89 1.505 . S
C84 C83 1.379 . S
C84 C86 1.369 . S
C84 H112 0.930 . S
C85 C87 1.383 . S
C85 C88 1.382 . S
C85 H113 0.930 . S
C86 C84 1.369 . S
C86 C88 1.392 . S
C86 H114 0.930 . S
C87 C83 1.373 . S
C87 C85 1.383 . S
C87 H115 0.931 . S
C88 C85 1.382 . S
C88 C86 1.392 . S
C89 Eu80 2.828 . S
C89 C83 1.505 . S
C89 O101 1.249 . S
C89 O102 1.244 . S
O90 Eu81 2.373 . S
O90 C92 1.258 . S
O91 Eu80 2.392 . S
O91 C92 1.242 . S
C92 O90 1.258 . S
C92 O91 1.242 . S
O93 Eu80 2.418 . S
O93 C97 1.244 . S
O94 Eu81 2.488 . S
O94 C110 1.249 . S
O95 Eu81 2.471 . S
O95 C110 1.244 . S
O96 Eu81 2.349 . S
O96 C97 1.265 . S
C97 O93 1.244 . S
C97 O96 1.265 . S
O98 Eu80 2.373 . S
O98 C111 1.258 . S
O99 Eu81 2.392 . S
O99 C111 1.242 . S
O100 Eu81 2.418 . S
O100 C82 1.244 . S
O101 Eu80 2.488 . S
O101 C89 1.249 . S
O102 Eu80 2.471 . S
O102 C89 1.244 . S
O103 Eu80 2.349 . S
O103 C82 1.265 . S
C104 C105 1.379 . S
C104 C108 1.373 . S
C104 C110 1.505 . S
C105 C104 1.379 . S
C105 C107 1.369 . S
C105 H116 0.930 . S
C106 C108 1.383 . S
C106 C109 1.382 . S
C106 H117 0.930 . S
C107 C105 1.369 . S
C107 C109 1.392 . S
C107 H118 0.930 . S
C108 C104 1.373 . S
C108 C106 1.383 . S
C108 H119 0.931 . S
C109 C106 1.382 . S
C109 C107 1.392 . S
C110 Eu81 2.828 . S
C110 O94 1.249 . S
C110 O95 1.244 . S
C110 C104 1.505 . S
C111 O98 1.258 . S
C111 O99 1.242 . S
H112 C84 0.930 . S
H113 C85 0.930 . S
H114 C86 0.930 . S
H115 C87 0.931 . S
H116 C105 0.930 . S
H117 C106 0.930 . S
H118 C107 0.930 . S
H119 C108 0.931 . S
Eu120 C129 2.828 . S
Eu120 O131 2.392 . S
Eu120 O133 2.418 . S
Eu120 O138 2.373 . S
Eu120 O141 2.488 . S
Eu120 O142 2.471 . S
Eu120 O143 2.349 . S
Eu121 O130 2.373 . S
Eu121 O134 2.488 . S
Eu121 O135 2.471 . S
Eu121 O136 2.349 . S
Eu121 O139 2.392 . S
Eu121 O140 2.418 . S
Eu121 C150 2.828 . S
C122 O140 1.244 . S
C122 O143 1.265 . S
C123 C124 1.379 . S
C123 C127 1.373 . S
C123 C129 1.505 . S
C124 C123 1.379 . S
C124 C126 1.369 . S
C124 H152 0.930 . S
C125 C127 1.383 . S
C125 C128 1.382 . S
C125 H153 0.930 . S
C126 C124 1.369 . S
C126 C128 1.392 . S
C126 H154 0.930 . S
C127 C123 1.373 . S
C127 C125 1.383 . S
C127 H155 0.931 . S
C128 C125 1.382 . S
C128 C126 1.392 . S
C129 Eu120 2.828 . S
C129 C123 1.505 . S
C129 O141 1.249 . S
C129 O142 1.244 . S
O130 Eu121 2.373 . S
O130 C132 1.258 . S
O131 Eu120 2.392 . S
O131 C132 1.242 . S
C132 O130 1.258 . S
C132 O131 1.242 . S
O133 Eu120 2.418 . S
O133 C137 1.244 . S
O134 Eu121 2.488 . S
O134 C150 1.249 . S
O135 Eu121 2.471 . S
O135 C150 1.244 . S
O136 Eu121 2.349 . S
O136 C137 1.265 . S
C137 O133 1.244 . S
C137 O136 1.265 . S
O138 Eu120 2.373 . S
O138 C151 1.258 . S
O139 Eu121 2.392 . S
O139 C151 1.242 . S
O140 Eu121 2.418 . S
O140 C122 1.244 . S
O141 Eu120 2.488 . S
O141 C129 1.249 . S
O142 Eu120 2.471 . S
O142 C129 1.244 . S
O143 Eu120 2.349 . S
O143 C122 1.265 . S
C144 C145 1.379 . S
C144 C148 1.373 . S
C144 C150 1.505 . S
C145 C144 1.379 . S
C145 C147 1.369 . S
C145 H156 0.930 . S
C146 C148 1.383 . S
C146 C149 1.382 . S
C146 H157 0.930 . S
C147 C145 1.369 . S
C147 C149 1.392 . S
C147 H158 0.930 . S
C148 C144 1.373 . S
C148 C146 1.383 . S
C148 H159 0.931 . S
C149 C146 1.382 . S
C149 C147 1.392 . S
C150 Eu121 2.828 . S
C150 O134 1.249 . S
C150 O135 1.244 . S
C150 C144 1.505 . S
C151 O138 1.258 . S
C151 O139 1.242 . S
H152 C124 0.930 . S
H153 C125 0.930 . S
H154 C126 0.930 . S
H155 C127 0.931 . S
H156 C145 0.930 . S
H157 C146 0.930 . S
H158 C147 0.930 . S
H159 C148 0.931 . S
Eu160 C169 2.828 . S
Eu160 O171 2.392 . S
Eu160 O173 2.418 . S
Eu160 O178 2.373 . S
Eu160 O181 2.488 . S
Eu160 O182 2.471 . S
Eu160 O183 2.349 . S
Eu161 O170 2.373 . S
Eu161 O174 2.488 . S
Eu161 O175 2.471 . S
Eu161 O176 2.349 . S
Eu161 O179 2.392 . S
Eu161 O180 2.418 . S
Eu161 C190 2.828 . S
C162 O180 1.244 . S
C162 O183 1.265 . S
C163 C164 1.379 . S
C163 C167 1.373 . S
C163 C169 1.505 . S
C164 C163 1.379 . S
C164 C166 1.369 . S
C164 H192 0.930 . S
C165 C167 1.383 . S
C165 C168 1.382 . S
C165 H193 0.930 . S
C166 C164 1.369 . S
C166 C168 1.392 . S
C166 H194 0.930 . S
C167 C163 1.373 . S
C167 C165 1.383 . S
C167 H195 0.931 . S
C168 C165 1.382 . S
C168 C166 1.392 . S
C169 Eu160 2.828 . S
C169 C163 1.505 . S
C169 O181 1.249 . S
C169 O182 1.244 . S
O170 Eu161 2.373 . S
O170 C172 1.258 . S
O171 Eu160 2.392 . S
O171 C172 1.242 . S
C172 O170 1.258 . S
C172 O171 1.242 . S
O173 Eu160 2.418 . S
O173 C177 1.244 . S
O174 Eu161 2.488 . S
O174 C190 1.249 . S
O175 Eu161 2.471 . S
O175 C190 1.244 . S
O176 Eu161 2.349 . S
O176 C177 1.265 . S
C177 O173 1.244 . S
C177 O176 1.265 . S
O178 Eu160 2.373 . S
O178 C191 1.258 . S
O179 Eu161 2.392 . S
O179 C191 1.242 . S
O180 Eu161 2.418 . S
O180 C162 1.244 . S
O181 Eu160 2.488 . S
O181 C169 1.249 . S
O182 Eu160 2.471 . S
O182 C169 1.244 . S
O183 Eu160 2.349 . S
O183 C162 1.265 . S
C184 C185 1.379 . S
C184 C188 1.373 . S
C184 C190 1.505 . S
C185 C184 1.379 . S
C185 C187 1.369 . S
C185 H196 0.930 . S
C186 C188 1.383 . S
C186 C189 1.382 . S
C186 H197 0.930 . S
C187 C185 1.369 . S
C187 C189 1.392 . S
C187 H198 0.930 . S
C188 C184 1.373 . S
C188 C186 1.383 . S
C188 H199 0.931 . S
C189 C186 1.382 . S
C189 C187 1.392 . S
C190 Eu161 2.828 . S
C190 O174 1.249 . S
C190 O175 1.244 . S
C190 C184 1.505 . S
C191 O178 1.258 . S
C191 O179 1.242 . S
H192 C164 0.930 . S
H193 C165 0.930 . S
H194 C166 0.930 . S
H195 C167 0.931 . S
H196 C185 0.930 . S
H197 C186 0.930 . S
H198 C187 0.930 . S
H199 C188 0.931 . S
Eu200 C209 2.828 . S
Eu200 O211 2.392 . S
Eu200 O213 2.418 . S
Eu200 O218 2.373 . S
Eu200 O221 2.488 . S
Eu200 O222 2.471 . S
Eu200 O223 2.349 . S
Eu201 O210 2.373 . S
Eu201 O214 2.488 . S
Eu201 O215 2.471 . S
Eu201 O216 2.349 . S
Eu201 O219 2.392 . S
Eu201 O220 2.418 . S
Eu201 C230 2.828 . S
C202 O220 1.244 . S
C202 O223 1.265 . S
C203 C204 1.379 . S
C203 C207 1.373 . S
C203 C209 1.505 . S
C204 C203 1.379 . S
C204 C206 1.369 . S
C204 H232 0.930 . S
C205 C207 1.383 . S
C205 C208 1.382 . S
C205 H233 0.930 . S
C206 C204 1.369 . S
C206 C208 1.392 . S
C206 H234 0.930 . S
C207 C203 1.373 . S
C207 C205 1.383 . S
C207 H235 0.931 . S
C208 C205 1.382 . S
C208 C206 1.392 . S
C209 Eu200 2.828 . S
C209 C203 1.505 . S
C209 O221 1.249 . S
C209 O222 1.244 . S
O210 Eu201 2.373 . S
O210 C212 1.258 . S
O211 Eu200 2.392 . S
O211 C212 1.242 . S
C212 O210 1.258 . S
C212 O211 1.242 . S
O213 Eu200 2.418 . S
O213 C217 1.244 . S
O214 Eu201 2.488 . S
O214 C230 1.249 . S
O215 Eu201 2.471 . S
O215 C230 1.244 . S
O216 Eu201 2.349 . S
O216 C217 1.265 . S
C217 O213 1.244 . S
C217 O216 1.265 . S
O218 Eu200 2.373 . S
O218 C231 1.258 . S
O219 Eu201 2.392 . S
O219 C231 1.242 . S
O220 Eu201 2.418 . S
O220 C202 1.244 . S
O221 Eu200 2.488 . S
O221 C209 1.249 . S
O222 Eu200 2.471 . S
O222 C209 1.244 . S
O223 Eu200 2.349 . S
O223 C202 1.265 . S
C224 C225 1.379 . S
C224 C228 1.373 . S
C224 C230 1.505 . S
C225 C224 1.379 . S
C225 C227 1.369 . S
C225 H236 0.930 . S
C226 C228 1.383 . S
C226 C229 1.382 . S
C226 H237 0.930 . S
C227 C225 1.369 . S
C227 C229 1.392 . S
C227 H238 0.930 . S
C228 C224 1.373 . S
C228 C226 1.383 . S
C228 H239 0.931 . S
C229 C226 1.382 . S
C229 C227 1.392 . S
C230 Eu201 2.828 . S
C230 O214 1.249 . S
C230 O215 1.244 . S
C230 C224 1.505 . S
C231 O218 1.258 . S
C231 O219 1.242 . S
H232 C204 0.930 . S
H233 C205 0.930 . S
H234 C206 0.930 . S
H235 C207 0.931 . S
H236 C225 0.930 . S
H237 C226 0.930 . S
H238 C227 0.930 . S
H239 C228 0.931 . S
C240 C241 1.349 . S
C240 C242 1.327 . S
C240 H265 0.950 . S
C241 C240 1.349 . S
C241 C257 1.349 . S
C242 C240 1.327 . S
C242 C261 1.429 . S
C242 H266 0.950 . S
C243 C260 1.572 1_556 S
C243 C262 1.368 1_545 S
C243 H267 0.949 . S
H244 C248 0.949 . S
C245 C246 1.349 . S
C245 C247 1.327 . S
C245 H268 0.950 . S
C246 C245 1.349 . S
C246 C258 1.349 . S
C247 C245 1.327 . S
C247 C263 1.429 . S
C247 H269 0.950 . S
C248 H244 0.949 . S
C248 C256 1.572 1_554 S
C248 C264 1.368 1_565 S
H249 C257 0.950 . S
H250 C255 0.950 . S
H251 C256 0.949 . S
H252 C258 0.950 . S
H253 C259 0.950 . S
H254 C260 0.949 . S
C255 H250 0.950 . S
C255 C257 1.327 . S
C255 C261 1.429 . S
C256 C248 1.572 1_556 S
C256 H251 0.949 . S
C256 C262 1.370 . S
C257 C241 1.349 . S
C257 H249 0.950 . S
C257 C255 1.327 . S
C258 C246 1.349 . S
C258 H252 0.950 . S
C258 C259 1.327 . S
C259 H253 0.950 . S
C259 C258 1.327 . S
C259 C263 1.429 . S
C260 C243 1.572 1_554 S
C260 H254 0.949 . S
C260 C264 1.370 . S
C261 C242 1.429 . S
C261 C255 1.429 . S
C261 C262 1.523 . S
C262 C243 1.368 1_565 S
C262 C256 1.370 . S
C262 C261 1.523 . S
C263 C247 1.429 . S
C263 C259 1.429 . S
C263 C264 1.523 . S
C264 C248 1.368 1_545 S
C264 C260 1.370 . S
C264 C263 1.523 . S
H265 C240 0.950 . S
H266 C242 0.950 . S
H267 C243 0.949 . S
H268 C245 0.950 . S
H269 C247 0.950 . S
C270 C271 1.349 . S
C270 C272 1.327 . S
C270 H295 0.950 . S
C271 C270 1.349 . S
C271 C287 1.349 . S
C272 C270 1.327 . S
C272 C291 1.429 . S
C272 H296 0.950 . S
C273 C290 1.574 . S
C273 C292 1.368 . S
C273 H297 0.949 . S
H274 C278 0.949 . S
C275 C276 1.349 . S
C275 C277 1.327 . S
C275 H298 0.950 . S
C276 C275 1.349 . S
C276 C288 1.349 . S
C277 C275 1.327 . S
C277 C293 1.429 . S
C277 H299 0.950 . S
C278 H274 0.949 . S
C278 C286 1.574 . S
C278 C294 1.368 . S
H279 C287 0.950 . S
H280 C285 0.950 . S
H281 C286 0.949 . S
H282 C288 0.950 . S
H283 C289 0.950 . S
H284 C290 0.949 . S
C285 H280 0.950 . S
C285 C287 1.327 . S
C285 C291 1.429 . S
C286 C278 1.574 . S
C286 H281 0.949 . S
C286 C292 1.368 . S
C287 C271 1.349 . S
C287 H279 0.950 . S
C287 C285 1.327 . S
C288 C276 1.349 . S
C288 H282 0.950 . S
C288 C289 1.327 . S
C289 H283 0.950 . S
C289 C288 1.327 . S
C289 C293 1.429 . S
C290 C273 1.574 . S
C290 H284 0.949 . S
C290 C294 1.368 . S
C291 C272 1.429 . S
C291 C285 1.429 . S
C291 C292 1.523 . S
C292 C273 1.368 . S
C292 C286 1.368 . S
C292 C291 1.523 . S
C293 C277 1.429 . S
C293 C289 1.429 . S
C293 C294 1.523 . S
C294 C278 1.368 . S
C294 C290 1.368 . S
C294 C293 1.523 . S
H295 C270 0.950 . S
H296 C272 0.950 . S
H297 C273 0.949 . S
H298 C275 0.950 . S
H299 C277 0.950 . S
C300 C301 1.349 . S
C300 C302 1.327 . S
C300 H325 0.950 . S
C301 C300 1.349 . S
C301 C317 1.349 . S
C302 C300 1.327 . S
C302 C321 1.429 . S
C302 H326 0.950 . S
C303 C320 1.574 . S
C303 C322 1.368 1_455 S
C303 H327 0.949 . S
H304 C308 0.949 . S
C305 C306 1.349 . S
C305 C307 1.327 . S
C305 H328 0.950 . S
C306 C305 1.349 . S
C306 C318 1.349 . S
C307 C305 1.327 . S
C307 C323 1.429 . S
C307 H329 0.950 . S
C308 H304 0.949 . S
C308 C316 1.574 . S
C308 C324 1.368 1_655 S
H309 C317 0.950 . S
H310 C315 0.950 . S
H311 C316 0.949 . S
H312 C318 0.950 . S
H313 C319 0.950 . S
H314 C320 0.949 . S
C315 H310 0.950 . S
C315 C317 1.327 . S
C315 C321 1.429 . S
C316 C308 1.574 . S
C316 H311 0.949 . S
C316 C322 1.368 1_556 S
C317 C301 1.349 . S
C317 H309 0.950 . S
C317 C315 1.327 . S
C318 C306 1.349 . S
C318 H312 0.950 . S
C318 C319 1.327 . S
C319 H313 0.950 . S
C319 C318 1.327 . S
C319 C323 1.429 . S
C320 C303 1.574 . S
C320 H314 0.949 . S
C320 C324 1.368 1_554 S
C321 C302 1.429 . S
C321 C315 1.429 . S
C321 C322 1.523 . S
C322 C303 1.368 1_655 S
C322 C316 1.368 1_554 S
C322 C321 1.523 . S
C323 C307 1.429 . S
C323 C319 1.429 . S
C323 C324 1.523 . S
C324 C308 1.368 1_455 S
C324 C320 1.368 1_556 S
C324 C323 1.523 . S
H325 C300 0.950 . S
H326 C302 0.950 . S
H327 C303 0.949 . S
H328 C305 0.950 . S
H329 C307 0.950 . S
C330 C331 1.349 . S
C330 C332 1.327 . S
C330 H355 0.950 . S
C331 C330 1.349 . S
C331 C347 1.349 . S
C332 C330 1.327 . S
C332 C351 1.429 . S
C332 H356 0.950 . S
C333 C350 1.574 . S
C333 C352 1.368 1_565 S
C333 H357 0.949 . S
H334 C338 0.949 . S
C335 C336 1.349 . S
C335 C337 1.327 . S
C335 H358 0.950 . S
C336 C335 1.349 . S
C336 C348 1.349 . S
C337 C335 1.327 . S
C337 C353 1.429 . S
C337 H359 0.950 . S
C338 H334 0.949 . S
C338 C346 1.574 . S
C338 C354 1.368 1_545 S
H339 C347 0.950 . S
H340 C345 0.950 . S
H341 C346 0.949 . S
H342 C348 0.950 . S
H343 C349 0.950 . S
H344 C350 0.949 . S
C345 H340 0.950 . S
C345 C347 1.327 . S
C345 C351 1.429 . S
C346 C338 1.574 . S
C346 H341 0.949 . S
C346 C352 1.368 . S
C347 C331 1.349 . S
C347 H339 0.950 . S
C347 C345 1.327 . S
C348 C336 1.349 . S
C348 H342 0.950 . S
C348 C349 1.327 . S
C349 H343 0.950 . S
C349 C348 1.327 . S
C349 C353 1.429 . S
C350 C333 1.574 . S
C350 H344 0.949 . S
C350 C354 1.368 . S
C351 C332 1.429 . S
C351 C345 1.429 . S
C351 C352 1.523 . S
C352 C333 1.368 1_545 S
C352 C346 1.368 . S
C352 C351 1.523 . S
C353 C337 1.429 . S
C353 C349 1.429 . S
C353 C354 1.523 . S
C354 C338 1.368 1_565 S
C354 C350 1.368 . S
C354 C353 1.523 . S
H355 C330 0.950 . S
H356 C332 0.950 . S
H357 C333 0.949 . S
H358 C335 0.950 . S
H359 C337 0.950 . S
C360 C361 1.349 . S
C360 C362 1.327 . S
C360 H385 0.950 . S
C361 C360 1.349 . S
C361 C377 1.349 . S
C362 C360 1.327 . S
C362 C381 1.429 . S
C362 H386 0.950 . S
C363 C380 1.574 1_556 S
C363 C382 1.368 . S
C363 H387 0.949 . S
H364 C368 0.949 . S
C365 C366 1.349 . S
C365 C367 1.327 . S
C365 H388 0.950 . S
C366 C365 1.349 . S
C366 C378 1.349 . S
C367 C365 1.327 . S
C367 C383 1.429 . S
C367 H389 0.950 . S
C368 H364 0.949 . S
C368 C376 1.574 1_554 S
C368 C384 1.368 . S
H369 C377 0.950 . S
H370 C375 0.950 . S
H371 C376 0.949 . S
H372 C378 0.950 . S
H373 C379 0.950 . S
H374 C380 0.949 . S
C375 H370 0.950 . S
C375 C377 1.327 . S
C375 C381 1.429 . S
C376 C368 1.574 1_556 S
C376 H371 0.949 . S
C376 C382 1.368 . S
C377 C361 1.349 . S
C377 H369 0.950 . S
C377 C375 1.327 . S
C378 C366 1.349 . S
C378 H372 0.950 . S
C378 C379 1.327 . S
C379 H373 0.950 . S
C379 C378 1.327 . S
C379 C383 1.429 . S
C380 C363 1.574 1_554 S
C380 H374 0.949 . S
C380 C384 1.368 . S
C381 C362 1.429 . S
C381 C375 1.429 . S
C381 C382 1.523 . S
C382 C363 1.368 . S
C382 C376 1.368 . S
C382 C381 1.523 . S
C383 C367 1.429 . S
C383 C379 1.429 . S
C383 C384 1.523 . S
C384 C368 1.368 . S
C384 C380 1.368 . S
C384 C383 1.523 . S
H385 C360 0.950 . S
H386 C362 0.950 . S
H387 C363 0.949 . S
H388 C365 0.950 . S
H389 C367 0.950 . S
C390 C391 1.349 . S
C390 C392 1.327 . S
C390 H415 0.950 . S
C391 C390 1.349 . S
C391 C407 1.349 . S
C392 C390 1.327 . S
C392 C411 1.429 . S
C392 H416 0.950 . S
C393 C410 1.574 . S
C393 C412 1.368 . S
C393 H417 0.949 . S
H394 C398 0.949 . S
C395 C396 1.349 . S
C395 C397 1.327 . S
C395 H418 0.950 . S
C396 C395 1.349 . S
C396 C408 1.349 . S
C397 C395 1.327 . S
C397 C413 1.429 . S
C397 H419 0.950 . S
C398 H394 0.949 . S
C398 C406 1.574 . S
C398 C414 1.368 . S
H399 C407 0.950 . S
H400 C405 0.950 . S
H401 C406 0.949 . S
H402 C408 0.950 . S
H403 C409 0.950 . S
H404 C410 0.949 . S
C405 H400 0.950 . S
C405 C407 1.327 . S
C405 C411 1.429 . S
C406 C398 1.574 . S
C406 H401 0.949 . S
C406 C412 1.368 1_455 S
C407 C391 1.349 . S
C407 H399 0.950 . S
C407 C405 1.327 . S
C408 C396 1.349 . S
C408 H402 0.950 . S
C408 C409 1.327 . S
C409 H403 0.950 . S
C409 C408 1.327 . S
C409 C413 1.429 . S
C410 C393 1.574 . S
C410 H404 0.949 . S
C410 C414 1.368 1_655 S
C411 C392 1.429 . S
C411 C405 1.429 . S
C411 C412 1.523 . S
C412 C393 1.368 . S
C412 C406 1.368 1_655 S
C412 C411 1.523 . S
C413 C397 1.429 . S
C413 C409 1.429 . S
C413 C414 1.523 . S
C414 C398 1.368 . S
C414 C410 1.368 1_455 S
C414 C413 1.523 . S
H415 C390 0.950 . S
H416 C392 0.950 . S
H417 C393 0.949 . S
H418 C395 0.950 . S
H419 C397 0.950 . S
C420 C421 1.349 . S
C420 C422 1.327 . S
C420 H445 0.950 . S
C421 C420 1.349 . S
C421 C437 1.349 . S
C422 C420 1.327 . S
C422 C441 1.429 . S
C422 H446 0.950 . S
C423 C440 1.574 . S
C423 C442 1.368 . S
C423 H447 0.949 . S
H424 C428 0.949 . S
C425 C426 1.349 . S
C425 C427 1.327 . S
C425 H448 0.950 . S
C426 C425 1.349 . S
C426 C438 1.349 . S
C427 C425 1.327 . S
C427 C443 1.429 . S
C427 H449 0.950 . S
C428 H424 0.949 . S
C428 C436 1.574 . S
C428 C444 1.368 . S
H429 C437 0.950 . S
H430 C435 0.950 . S
H431 C436 0.949 . S
H432 C438 0.950 . S
H433 C439 0.950 . S
H434 C440 0.949 . S
C435 H430 0.950 . S
C435 C437 1.327 . S
C435 C441 1.429 . S
C436 C428 1.574 . S
C436 H431 0.949 . S
C436 C442 1.368 . S
C437 C421 1.349 . S
C437 H429 0.950 . S
C437 C435 1.327 . S
C438 C426 1.349 . S
C438 H432 0.950 . S
C438 C439 1.327 . S
C439 H433 0.950 . S
C439 C438 1.327 . S
C439 C443 1.429 . S
C440 C423 1.574 . S
C440 H434 0.949 . S
C440 C444 1.368 . S
C441 C422 1.429 . S
C441 C435 1.429 . S
C441 C442 1.523 . S
C442 C423 1.368 . S
C442 C436 1.368 . S
C442 C441 1.523 . S
C443 C427 1.429 . S
C443 C439 1.429 . S
C443 C444 1.523 . S
C444 C428 1.368 . S
C444 C440 1.368 . S
C444 C443 1.523 . S
H445 C420 0.950 . S
H446 C422 0.950 . S
H447 C423 0.949 . S
H448 C425 0.950 . S
H449 C427 0.950 . S
C450 C451 1.349 . S
C450 C452 1.327 . S
C450 H475 0.950 . S
C451 C450 1.349 . S
C451 C467 1.349 . S
C452 C450 1.327 . S
C452 C471 1.429 . S
C452 H476 0.950 . S
C453 C470 1.574 . S
C453 C472 1.368 . S
C453 H477 0.949 . S
H454 C458 0.949 . S
C455 C456 1.349 . S
C455 C457 1.327 . S
C455 H478 0.950 . S
C456 C455 1.349 . S
C456 C468 1.349 . S
C457 C455 1.327 . S
C457 C473 1.429 . S
C457 H479 0.950 . S
C458 H454 0.949 . S
C458 C466 1.574 . S
C458 C474 1.368 . S
H459 C467 0.950 . S
H460 C465 0.950 . S
H461 C466 0.949 . S
H462 C468 0.950 . S
H463 C469 0.950 . S
H464 C470 0.949 . S
C465 H460 0.950 . S
C465 C467 1.327 . S
C465 C471 1.429 . S
C466 C458 1.574 . S
C466 H461 0.949 . S
C466 C472 1.368 . S
C467 C451 1.349 . S
C467 H459 0.950 . S
C467 C465 1.327 . S
C468 C456 1.349 . S
C468 H462 0.950 . S
C468 C469 1.327 . S
C469 H463 0.950 . S
C469 C468 1.327 . S
C469 C473 1.429 . S
C470 C453 1.574 . S
C470 H464 0.949 . S
C470 C474 1.368 . S
C471 C452 1.429 . S
C471 C465 1.429 . S
C471 C472 1.523 . S
C472 C453 1.368 . S
C472 C466 1.368 . S
C472 C471 1.523 . S
C473 C457 1.429 . S
C473 C469 1.429 . S
C473 C474 1.523 . S
C474 C458 1.368 . S
C474 C470 1.368 . S
C474 C473 1.523 . S
H475 C450 0.950 . S
H476 C452 0.950 . S
H477 C453 0.949 . S
H478 C455 0.950 . S
H479 C457 0.950 . S
C480 C481 1.349 . S
C480 C482 1.327 . S
C480 H505 0.950 . S
C481 C480 1.349 . S
C481 C497 1.349 . S
C482 C480 1.327 . S
C482 C501 1.429 . S
C482 H506 0.950 . S
C483 C500 1.574 . S
C483 C502 1.368 . S
C483 H507 0.949 . S
H484 C488 0.949 . S
C485 C486 1.349 . S
C485 C487 1.327 . S
C485 H508 0.950 . S
C486 C485 1.349 . S
C486 C498 1.349 . S
C487 C485 1.327 . S
C487 C503 1.429 . S
C487 H509 0.950 . S
C488 H484 0.949 . S
C488 C496 1.574 . S
C488 C504 1.368 . S
H489 C497 0.950 . S
H490 C495 0.950 . S
H491 C496 0.949 . S
H492 C498 0.950 . S
H493 C499 0.950 . S
H494 C500 0.949 . S
C495 H490 0.950 . S
C495 C497 1.327 . S
C495 C501 1.429 . S
C496 C488 1.574 . S
C496 H491 0.949 . S
C496 C502 1.368 . S
C497 C481 1.349 . S
C497 H489 0.950 . S
C497 C495 1.327 . S
C498 C486 1.349 . S
C498 H492 0.950 . S
C498 C499 1.327 . S
C499 H493 0.950 . S
C499 C498 1.327 . S
C499 C503 1.429 . S
C500 C483 1.574 . S
C500 H494 0.949 . S
C500 C504 1.368 . S
C501 C482 1.429 . S
C501 C495 1.429 . S
C501 C502 1.523 . S
C502 C483 1.368 . S
C502 C496 1.368 . S
C502 C501 1.523 . S
C503 C487 1.429 . S
C503 C499 1.429 . S
C503 C504 1.523 . S
C504 C488 1.368 . S
C504 C500 1.368 . S
C504 C503 1.523 . S
H505 C480 0.950 . S
H506 C482 0.950 . S
H507 C483 0.949 . S
H508 C485 0.950 . S
H509 C487 0.950 . S
C510 C511 1.349 . S
C510 C512 1.327 . S
C510 H535 0.950 . S
C511 C510 1.349 . S
C511 C527 1.349 . S
C512 C510 1.327 . S
C512 C531 1.429 . S
C512 H536 0.950 . S
C513 C530 1.574 . S
C513 C532 1.368 . S
C513 H537 0.949 . S
H514 C518 0.949 . S
C515 C516 1.349 . S
C515 C517 1.327 . S
C515 H538 0.950 . S
C516 C515 1.349 . S
C516 C528 1.349 . S
C517 C515 1.327 . S
C517 C533 1.429 . S
C517 H539 0.950 . S
C518 H514 0.949 . S
C518 C526 1.574 . S
C518 C534 1.368 . S
H519 C527 0.950 . S
H520 C525 0.950 . S
H521 C526 0.949 . S
H522 C528 0.950 . S
H523 C529 0.950 . S
H524 C530 0.949 . S
C525 H520 0.950 . S
C525 C527 1.327 . S
C525 C531 1.429 . S
C526 C518 1.574 . S
C526 H521 0.949 . S
C526 C532 1.368 . S
C527 C511 1.349 . S
C527 H519 0.950 . S
C527 C525 1.327 . S
C528 C516 1.349 . S
C528 H522 0.950 . S
C528 C529 1.327 . S
C529 H523 0.950 . S
C529 C528 1.327 . S
C529 C533 1.429 . S
C530 C513 1.574 . S
C530 H524 0.949 . S
C530 C534 1.368 . S
C531 C512 1.429 . S
C531 C525 1.429 . S
C531 C532 1.523 . S
C532 C513 1.368 . S
C532 C526 1.368 . S
C532 C531 1.523 . S
C533 C517 1.429 . S
C533 C529 1.429 . S
C533 C534 1.523 . S
C534 C518 1.368 . S
C534 C530 1.368 . S
C534 C533 1.523 . S
H535 C510 0.950 . S
H536 C512 0.950 . S
H537 C513 0.949 . S
H538 C515 0.950 . S
H539 C517 0.950 . S
C540 C541 1.349 . S
C540 C542 1.327 . S
C540 H565 0.950 . S
C541 C540 1.349 . S
C541 C557 1.349 . S
C542 C540 1.327 . S
C542 C561 1.429 . S
C542 H566 0.950 . S
C543 C560 1.574 . S
C543 C562 1.368 . S
C543 H567 0.949 . S
H544 C548 0.949 . S
C545 C546 1.349 . S
C545 C547 1.327 . S
C545 H568 0.950 . S
C546 C545 1.349 . S
C546 C558 1.349 . S
C547 C545 1.327 . S
C547 C563 1.429 . S
C547 H569 0.950 . S
C548 H544 0.949 . S
C548 C556 1.574 . S
C548 C564 1.368 . S
H549 C557 0.950 . S
H550 C555 0.950 . S
H551 C556 0.949 . S
H552 C558 0.950 . S
H553 C559 0.950 . S
H554 C560 0.949 . S
C555 H550 0.950 . S
C555 C557 1.327 . S
C555 C561 1.429 . S
C556 C548 1.574 . S
C556 H551 0.949 . S
C556 C562 1.368 . S
C557 C541 1.349 . S
C557 H549 0.950 . S
C557 C555 1.327 . S
C558 C546 1.349 . S
C558 H552 0.950 . S
C558 C559 1.327 . S
C559 H553 0.950 . S
C559 C558 1.327 . S
C559 C563 1.429 . S
C560 C543 1.574 . S
C560 H554 0.949 . S
C560 C564 1.368 . S
C561 C542 1.429 . S
C561 C555 1.429 . S
C561 C562 1.523 . S
C562 C543 1.368 . S
C562 C556 1.368 . S
C562 C561 1.523 . S
C563 C547 1.429 . S
C563 C559 1.429 . S
C563 C564 1.523 . S
C564 C548 1.368 . S
C564 C560 1.368 . S
C564 C563 1.523 . S
H565 C540 0.950 . S
H566 C542 0.950 . S
H567 C543 0.949 . S
H568 C545 0.950 . S
H569 C547 0.950 . S
C570 C571 1.349 . S
C570 C572 1.327 . S
C570 H595 0.950 . S
C571 C570 1.349 . S
C571 C587 1.349 . S
C572 C570 1.327 . S
C572 C591 1.429 . S
C572 H596 0.950 . S
C573 C590 1.574 . S
C573 C592 1.368 . S
C573 H597 0.949 . S
H574 C578 0.949 . S
C575 C576 1.349 . S
C575 C577 1.327 . S
C575 H598 0.950 . S
C576 C575 1.349 . S
C576 C588 1.349 . S
C577 C575 1.327 . S
C577 C593 1.429 . S
C577 H599 0.950 . S
C578 H574 0.949 . S
C578 C586 1.574 . S
C578 C594 1.368 . S
H579 C587 0.950 . S
H580 C585 0.950 . S
H581 C586 0.949 . S
H582 C588 0.950 . S
H583 C589 0.950 . S
H584 C590 0.949 . S
C585 H580 0.950 . S
C585 C587 1.327 . S
C585 C591 1.429 . S
C586 C578 1.574 . S
C586 H581 0.949 . S
C586 C592 1.368 . S
C587 C571 1.349 . S
C587 H579 0.950 . S
C587 C585 1.327 . S
C588 C576 1.349 . S
C588 H582 0.950 . S
C588 C589 1.327 . S
C589 H583 0.950 . S
C589 C588 1.327 . S
C589 C593 1.429 . S
C590 C573 1.574 . S
C590 H584 0.949 . S
C590 C594 1.368 . S
C591 C572 1.429 . S
C591 C585 1.429 . S
C591 C592 1.523 . S
C592 C573 1.368 . S
C592 C586 1.368 . S
C592 C591 1.523 . S
C593 C577 1.429 . S
C593 C589 1.429 . S
C593 C594 1.523 . S
C594 C578 1.368 . S
C594 C590 1.368 . S
C594 C593 1.523 . S
H595 C570 0.950 . S
H596 C572 0.950 . S
H597 C573 0.949 . S
H598 C575 0.950 . S
H599 C577 0.950 . S
C600 C601 1.349 . S
C600 C602 1.327 . S
C600 H625 0.950 . S
C601 C600 1.349 . S
C601 C617 1.349 . S
C602 C600 1.327 . S
C602 C621 1.429 . S
C602 H626 0.950 . S
C603 C620 1.574 . S
C603 C622 1.368 . S
C603 H627 0.949 . S
H604 C608 0.949 . S
C605 C606 1.349 . S
C605 C607 1.327 . S
C605 H628 0.950 . S
C606 C605 1.349 . S
C606 C618 1.349 . S
C607 C605 1.327 . S
C607 C623 1.429 1_655 S
C607 H629 0.950 . S
C608 H604 0.949 . S
C608 C616 1.574 . S
C608 C624 1.368 . S
H609 C617 0.950 . S
H610 C615 0.950 . S
H611 C616 0.949 . S
H612 C618 0.950 . S
H613 C619 0.950 . S
H614 C620 0.949 . S
C615 H610 0.950 . S
C615 C617 1.327 . S
C615 C621 1.429 . S
C616 C608 1.574 . S
C616 H611 0.949 . S
C616 C622 1.368 . S
C617 C601 1.349 . S
C617 H609 0.950 . S
C617 C615 1.327 . S
C618 C606 1.349 . S
C618 H612 0.950 . S
C618 C619 1.327 1_655 S
C619 H613 0.950 . S
C619 C618 1.327 1_455 S
C619 C623 1.429 . S
C620 C603 1.574 . S
C620 H614 0.949 . S
C620 C624 1.368 . S
C621 C602 1.429 . S
C621 C615 1.429 . S
C621 C622 1.523 . S
C622 C603 1.368 . S
C622 C616 1.368 . S
C622 C621 1.523 . S
C623 C607 1.429 1_455 S
C623 C619 1.429 . S
C623 C624 1.523 . S
C624 C608 1.368 . S
C624 C620 1.368 . S
C624 C623 1.523 . S
H625 C600 0.950 . S
H626 C602 0.950 . S
H627 C603 0.949 . S
H628 C605 0.950 . S
H629 C607 0.950 . S
C630 C631 1.349 . S
C630 C632 1.327 1_655 S
C630 H655 0.950 . S
C631 C630 1.349 . S
C631 C647 1.349 . S
C632 C630 1.327 1_455 S
C632 C651 1.429 . S
C632 H656 0.950 . S
C633 C650 1.574 . S
C633 C652 1.368 . S
C633 H657 0.949 . S
H634 C638 0.976 . S
C635 C636 1.349 . S
C635 C637 1.327 1_545 S
C635 H658 0.947 1_545 S
C636 C635 1.349 . S
C636 C648 1.349 . S
C637 C635 1.327 1_565 S
C637 C653 1.429 . S
C637 H659 0.950 . S
C638 H634 0.976 . S
C638 C646 1.574 . S
C638 C654 1.368 . S
H639 C647 0.950 . S
H640 C645 0.950 . S
H641 C646 0.949 . S
H642 C648 0.950 . S
H643 C649 0.950 . S
H644 C650 0.949 . S
C645 H640 0.950 . S
C645 C647 1.327 1_455 S
C645 C651 1.429 . S
C646 C638 1.574 . S
C646 H641 0.949 . S
C646 C652 1.368 . S
C647 C631 1.349 . S
C647 H639 0.950 . S
C647 C645 1.327 1_655 S
C648 C636 1.349 . S
C648 H642 0.950 . S
C648 C649 1.327 . S
C649 H643 0.950 . S
C649 C648 1.327 . S
C649 C653 1.429 1_545 S
C650 C633 1.574 . S
C650 H644 0.949 . S
C650 C654 1.368 . S
C651 C632 1.429 . S
C651 C645 1.429 . S
C651 C652 1.523 . S
C652 C633 1.368 . S
C652 C646 1.368 . S
C652 C651 1.523 . S
C653 C637 1.429 . S
C653 C649 1.429 1_565 S
C653 C654 1.523 . S
C654 C638 1.368 . S
C654 C650 1.368 . S
C654 C653 1.523 . S
H655 C630 0.950 . S
H656 C632 0.950 . S
H657 C633 0.949 . S
H658 C635 0.947 1_565 S
H659 C637 0.950 . S
C660 C661 1.349 . S
C660 C662 1.327 1_545 S
C660 H685 0.950 . S
C661 C660 1.349 . S
C661 C677 1.349 . S
C662 C660 1.327 1_565 S
C662 C681 1.429 . S
C662 H686 0.950 . S
C663 C680 1.574 . S
C663 C682 1.368 . S
C663 H687 0.949 . S
H664 C668 0.949 . S
C665 C666 1.349 . S
C665 C667 1.327 . S
C665 H688 0.950 . S
C666 C665 1.349 . S
C666 C678 1.349 . S
C667 C665 1.327 . S
C667 C683 1.429 . S
C667 H689 0.950 . S
C668 H664 0.949 . S
C668 C676 1.574 . S
C668 C684 1.368 . S
H669 C677 0.950 . S
H670 C675 0.950 . S
H671 C676 0.949 . S
H672 C678 0.950 . S
H673 C679 0.950 . S
H674 C680 0.949 . S
C675 H670 0.950 . S
C675 C677 1.327 1_565 S
C675 C681 1.429 . S
C676 C668 1.574 . S
C676 H671 0.949 . S
C676 C682 1.368 . S
C677 C661 1.349 . S
C677 H669 0.950 . S
C677 C675 1.327 1_545 S
C678 C666 1.349 . S
C678 H672 0.950 . S
C678 C679 1.327 . S
C679 H673 0.950 . S
C679 C678 1.327 . S
C679 C683 1.429 . S
C680 C663 1.574 . S
C680 H674 0.949 . S
C680 C684 1.368 . S
C681 C662 1.429 . S
C681 C675 1.429 . S
C681 C682 1.523 . S
C682 C663 1.368 . S
C682 C676 1.368 . S
C682 C681 1.523 . S
C683 C667 1.429 . S
C683 C679 1.429 . S
C683 C684 1.523 . S
C684 C668 1.368 . S
C684 C680 1.368 . S
C684 C683 1.523 . S
H685 C660 0.950 . S
H686 C662 0.950 . S
H687 C663 0.949 . S
H688 C665 0.950 . S
H689 C667 0.950 . S
C690 C691 1.349 . S
C690 C692 1.327 . S
C690 H715 0.950 . S
C691 C690 1.349 . S
C691 C707 1.349 . S
C692 C690 1.327 . S
C692 C711 1.429 . S
C692 H716 0.950 . S
C693 C710 1.574 . S
C693 C712 1.368 . S
C693 H717 0.949 . S
H694 C698 0.949 . S
C695 C696 1.349 . S
C695 C697 1.327 1_565 S
C695 H718 0.950 . S
C696 C695 1.349 . S
C696 C708 1.349 . S
C697 C695 1.327 1_545 S
C697 C713 1.429 . S
C697 H719 0.950 . S
C698 H694 0.949 . S
C698 C706 1.574 . S
C698 C714 1.368 . S
H699 C707 0.950 . S
H700 C705 0.950 . S
H701 C706 0.949 . S
H702 C708 0.950 . S
H703 C709 0.950 . S
H704 C710 0.949 . S
C705 H700 0.950 . S
C705 C707 1.327 . S
C705 C711 1.429 . S
C706 C698 1.574 . S
C706 H701 0.949 . S
C706 C712 1.368 . S
C707 C691 1.349 . S
C707 H699 0.950 . S
C707 C705 1.327 . S
C708 C696 1.349 . S
C708 H702 0.950 . S
C708 C709 1.327 . S
C709 H703 0.950 . S
C709 C708 1.327 . S
C709 C713 1.429 1_565 S
C710 C693 1.574 . S
C710 H704 0.949 . S
C710 C714 1.368 . S
C711 C692 1.429 . S
C711 C705 1.429 . S
C711 C712 1.523 . S
C712 C693 1.368 . S
C712 C706 1.368 . S
C712 C711 1.523 . S
C713 C697 1.429 . S
C713 C709 1.429 1_545 S
C713 C714 1.523 . S
C714 C698 1.368 . S
C714 C710 1.368 . S
C714 C713 1.523 . S
H715 C690 0.950 . S
H716 C692 0.950 . S
H717 C693 0.949 . S
H718 C695 0.950 . S
H719 C697 0.950 . S
C720 C721 1.349 . S
C720 C722 1.327 1_455 S
C720 H745 0.950 . S
C721 C720 1.349 . S
C721 C737 1.349 . S
C722 C720 1.327 1_655 S
C722 C741 1.429 . S
C722 H746 0.950 . S
C723 C740 1.574 . S
C723 C742 1.368 . S
C723 H747 0.949 . S
H724 C728 0.949 . S
C725 C726 1.349 . S
C725 C727 1.327 . S
C725 H748 0.950 . S
C726 C725 1.349 . S
C726 C738 1.349 . S
C727 C725 1.327 . S
C727 C743 1.429 . S
C727 H749 0.950 . S
C728 H724 0.949 . S
C728 C736 1.574 . S
C728 C744 1.368 . S
H729 C737 0.950 . S
H730 C735 0.950 . S
H731 C736 0.949 . S
H732 C738 0.950 . S
H733 C739 0.950 . S
H734 C740 0.949 . S
C735 H730 0.950 . S
C735 C737 1.327 1_655 S
C735 C741 1.429 . S
C736 C728 1.574 . S
C736 H731 0.949 . S
C736 C742 1.368 . S
C737 C721 1.349 . S
C737 H729 0.950 . S
C737 C735 1.327 1_455 S
C738 C726 1.349 . S
C738 H732 0.950 . S
C738 C739 1.327 . S
C739 H733 0.950 . S
C739 C738 1.327 . S
C739 C743 1.429 . S
C740 C723 1.574 . S
C740 H734 0.949 . S
C740 C744 1.368 . S
C741 C722 1.429 . S
C741 C735 1.429 . S
C741 C742 1.523 . S
C742 C723 1.368 . S
C742 C736 1.368 . S
C742 C741 1.523 . S
C743 C727 1.429 . S
C743 C739 1.429 . S
C743 C744 1.523 . S
C744 C728 1.368 . S
C744 C740 1.368 . S
C744 C743 1.523 . S
H745 C720 0.950 . S
H746 C722 0.950 . S
H747 C723 0.949 . S
H748 C725 0.950 . S
H749 C727 0.950 . S
C750 C751 1.349 . S
C750 C752 1.327 1_455 S
C750 H775 0.950 1_455 S
C751 C750 1.349 . S
C751 C767 1.349 . S
C752 C750 1.327 1_655 S
C752 C771 1.429 . S
C752 H776 0.950 . S
C753 C770 1.574 . S
C753 C772 1.368 . S
C753 H777 0.943 1_655 S
H754 C758 0.949 . S
C755 C756 1.349 . S
C755 C757 1.327 1_565 S
C755 H778 0.950 . S
C756 C755 1.349 . S
C756 C768 1.349 . S
C757 C755 1.327 1_545 S
C757 C773 1.429 . S
C757 H779 0.950 . S
C758 H754 0.949 . S
C758 C766 1.574 . S
C758 C774 1.368 . S
H759 C767 0.950 . S
H760 C765 0.950 . S
H761 C766 0.949 . S
H762 C768 0.950 . S
H763 C769 0.950 . S
H764 C770 0.949 . S
C765 H760 0.950 . S
C765 C767 1.327 . S
C765 C771 1.429 1_455 S
C766 C758 1.574 . S
C766 H761 0.949 . S
C766 C772 1.368 . S
C767 C751 1.349 . S
C767 H759 0.950 . S
C767 C765 1.327 . S
C768 C756 1.349 . S
C768 H762 0.950 . S
C768 C769 1.327 1_565 S
C769 H763 0.950 . S
C769 C768 1.327 1_545 S
C769 C773 1.429 . S
C770 C753 1.574 . S
C770 H764 0.949 . S
C770 C774 1.368 . S
C771 C752 1.429 . S
C771 C765 1.429 1_655 S
C771 C772 1.523 . S
C772 C753 1.368 . S
C772 C766 1.368 . S
C772 C771 1.523 . S
C773 C757 1.429 . S
C773 C769 1.429 . S
C773 C774 1.523 . S
C774 C758 1.368 . S
C774 C770 1.368 . S
C774 C773 1.523 . S
H775 C750 0.950 1_655 S
H776 C752 0.950 . S
H777 C753 0.943 1_455 S
H778 C755 0.950 . S
H779 C757 0.950 . S
C241 C162 2.484 . S
C246 C2 2.333 . S
C271 C217 2.333 . S
C276 C57 2.484 . S
C301 C82 2.333 . S
C306 C122 2.484 . S
C331 C17 2.484 . S
C336 C177 2.333 . S
C361 C202 2.484 . S
C366 C42 2.333 . S
C391 C97 2.484 . S
C396 C137 2.333 . S
C421 C29 1.903 . S
C426 C92 1.867 . S
C451 C69 1.903 . S
C456 C12 1.867 . S
C481 C109 1.903 . S
C486 C52 1.867 . S
C511 C128 1.903 . S
C516 C191 1.867 . S
C541 C168 1.903 . S
C546 C231 1.867 . S
C571 C151 1.867 . S
C576 C208 1.903 . S
C601 C8 0.994 . S
C606 C111 1.030 . S
C631 C48 0.994 . S
C636 C31 1.030 . S
C661 C88 0.994 . S
C666 C71 1.030 . S
C691 C149 0.994 . S
C696 C172 1.030 . S
C721 C189 0.994 . S
C726 C212 1.030 . S
C751 C132 1.030 . S
C756 C229 0.994 . S
