# Generated by pormake.
# Topology mok, (4)-cn, num edge types: 1
# Building blocks:
#     Node 0, Type 0, BuildingBlock: UXUYUI_clean_sbu_0, # of connection points: 4
#     Node 1, Type 0, BuildingBlock: UXUYUI_clean_sbu_0, # of connection points: 4
#     Node 2, Type 0, BuildingBlock: UXUYUI_clean_sbu_0, # of connection points: 4
#     Node 3, Type 0, BuildingBlock: UXUYUI_clean_sbu_0, # of connection points: 4
#     Node 4, Type 0, BuildingBlock: UXUYUI_clean_sbu_0, # of connection points: 4
#     Node 5, Type 0, BuildingBlock: UXUYUI_clean_sbu_0, # of connection points: 4
#     Node 6, Type 0, BuildingBlock: UXUYUI_clean_sbu_0, # of connection points: 4
#     Node 7, Type 0, BuildingBlock: UXUYUI_clean_sbu_0, # of connection points: 4
#     Edge 8, Type (0, 0), None
#     Edge 9, Type (0, 0), None
#     Edge 10, Type (0, 0), None
#     Edge 11, Type (0, 0), None
#     Edge 12, Type (0, 0), None
#     Edge 13, Type (0, 0), None
#     Edge 14, Type (0, 0), None
#     Edge 15, Type (0, 0), None
#     Edge 16, Type (0, 0), None
#     Edge 17, Type (0, 0), None
#     Edge 18, Type (0, 0), None
#     Edge 19, Type (0, 0), None
#     Edge 20, Type (0, 0), None
#     Edge 21, Type (0, 0), None
#     Edge 22, Type (0, 0), None
#     Edge 23, Type (0, 0), None
# Relax obj value: 0.076
# Max RMSD: 0.067
# Mean RMSD: 0.067
data_MOF--net-mok--node1-UXUYUI_clean_sbu_0--edge1-none
_symmetry_space_group_name_H-M    P1
_symmetry_Int_Tables_number       1
_symmetry_cell_setting            triclinic
loop_
_symmetry_equiv_pos_as_xyz
'x, y, z'
_cell_length_a     42.542111
_cell_length_b     19.18526
_cell_length_c     23.543212
_cell_angle_alpha  90.000211
_cell_angle_beta   90.000797
_cell_angle_gamma 90.004992
loop_
_atom_site_label
_atom_site_type_symbol
_atom_site_fract_x
_atom_site_fract_y
_atom_site_fract_z
_atom_type_partial_charge
Li0 Li 0.57833 0.36779 0.05265 0.0
Li1 Li 0.62384 0.30123 1.00044 0.0
Li2 Li 0.58254 0.35953 0.94603 0.0
Li3 Li 0.56742 0.26072 0.99882 0.0
C4 C 0.62157 0.4638 0.97731 0.0
N5 N 0.63824 0.5886 0.92696 0.0
C6 C 0.6528 0.47635 0.962 0.0
C7 C 0.59888 0.51514 0.96765 0.0
C8 C 0.66074 0.53961 0.93636 0.0
C9 C 0.60777 0.57783 0.94204 0.0
C10 C 0.59537 0.20587 0.08766 0.0
C11 C 0.60917 0.08426 0.07998 0.0
N12 N 0.5916 0.07035 0.12688 0.0
C13 C 0.57747 0.19037 0.13581 0.0
C14 C 0.61137 0.15242 0.0595 0.0
C15 C 0.57586 0.12153 0.15498 0.0
C16 C 0.55738 0.39733 0.16711 0.0
N17 N 0.57123 0.42461 0.11991 0.0
C18 C 0.58174 0.53102 0.16976 0.0
C19 C 0.58295 0.49056 0.12042 0.0
C20 C 0.56861 0.50346 0.21976 0.0
C21 C 0.55565 0.43607 0.21755 0.0
H22 H 0.54828 0.34484 0.16614 0.0
H23 H 0.5942 0.51133 0.08308 0.0
C24 C 0.68637 0.29942 0.95937 0.0
N25 N 0.66816 0.28179 1.0046 0.0
C26 C 0.71898 0.29087 0.96147 0.0
C27 C 0.71374 0.24603 0.05682 0.0
C28 C 0.68116 0.25561 0.05289 0.0
C29 C 0.73321 0.26403 0.01074 0.0
H30 H 0.67566 0.32237 0.9222 0.0
H31 H 0.6663 0.243 0.08871 0.0
C32 C 0.51315 0.34071 1.00008 0.0
N33 N 0.449 0.32041 0.00972 0.0
C34 C 0.49543 0.32113 0.95267 0.0
C35 C 0.49806 0.35117 0.05211 0.0
C36 C 0.46308 0.31079 0.95846 0.0
C37 C 0.46569 0.34027 0.05623 0.0
C38 C 0.59695 0.25108 0.87961 0.0
C39 C 0.56756 0.24587 0.8535 0.0
C40 C 0.62417 0.24455 0.8468 0.0
C41 C 0.56583 0.2364 0.79475 0.0
C42 C 0.6215 0.23498 0.78816 0.0
N43 N 0.59263 0.23132 0.76353 0.0
C44 C 0.60501 0.41945 0.84416 0.0
C45 C 0.55025 0.43499 0.85645 0.0
C46 C 0.60414 0.45525 0.79255 0.0
N47 N 0.57835 0.41005 0.87509 0.0
C48 C 0.54829 0.47149 0.80498 0.0
C49 C 0.5755 0.48187 0.77202 0.0
H50 H 0.62711 0.3993 0.85984 0.0
H51 H 0.52932 0.42665 0.88146 0.0
C52 C 0.51853 0.16802 0.03937 0.0
N53 N 0.54189 0.17625 1.00042 0.0
C54 C 0.50126 0.10585 0.04181 0.0
C55 C 0.53248 0.06107 0.96448 0.0
C56 C 0.54916 0.12398 0.9636 0.0
C57 C 0.50808 0.05106 1.00398 0.0
H58 H 0.51358 0.20929 0.06928 0.0
H59 H 0.56837 0.13046 0.93408 0.0
O60 O 0.61326 0.40168 1.00173 0.0
O61 O 0.59642 0.27241 0.06677 0.0
O62 O 0.54474 0.35327 0.99509 0.0
O63 O 0.59901 0.26215 0.93698 0.0
H64 H 0.67081 0.43799 0.97016 0.0
H65 H 0.57465 0.50625 0.97955 0.0
H66 H 0.68481 0.54986 0.92413 0.0
H67 H 0.59051 0.61799 0.93418 0.0
H68 H 0.6213 0.04237 0.05842 0.0
H69 H 0.56472 0.23076 0.15791 0.0
H70 H 0.62498 0.16331 0.02168 0.0
H71 H 0.562 0.10876 0.19207 0.0
H72 H 0.59159 0.58305 0.16893 0.0
H73 H 0.54546 0.4123 0.25499 0.0
H74 H 0.73294 0.30692 0.92532 0.0
H75 H 0.72352 0.22456 0.0955 0.0
H76 H 0.50635 0.3148 0.91163 0.0
H77 H 0.51114 0.36778 0.08891 0.0
H78 H 0.44914 0.29551 0.9221 0.0
H79 H 0.45384 0.34784 0.09641 0.0
H80 H 0.54634 0.24905 0.87841 0.0
H81 H 0.64712 0.2466 0.86627 0.0
H82 H 0.5432 0.23293 0.774 0.0
H83 H 0.6424 0.23032 0.76224 0.0
H84 H 0.62588 0.46297 0.7695 0.0
H85 H 0.52567 0.49069 0.79098 0.0
H86 H 0.48262 0.10101 0.07288 0.0
H87 H 0.53915 0.0201 0.93525 0.0
Li88 Li 0.37776 0.72282 0.02067 0.0
Li89 Li 0.42122 0.6638 0.0718 0.0
Li90 Li 0.43234 0.7723 0.01348 0.0
Li91 Li 0.42111 0.65846 0.96827 0.0
C92 C 0.39242 0.81749 0.10975 0.0
N93 N 0.36747 0.93223 0.16464 0.0
C94 C 0.3854 0.8143 0.16771 0.0
C95 C 0.38712 0.87936 0.07996 0.0
C96 C 0.37269 0.87275 0.19463 0.0
C97 C 0.37441 0.93672 0.10838 0.0
C98 C 0.37844 0.56592 0.05186 0.0
C99 C 0.38568 0.44857 0.08626 0.0
N100 N 0.35841 0.45382 0.11608 0.0
C101 C 0.35037 0.56995 0.08252 0.0
C102 C 0.39618 0.50459 0.05344 0.0
C103 C 0.34068 0.51279 0.11485 0.0
C104 C 0.31801 0.72594 0.97036 0.0
N105 N 0.33323 0.74021 0.01978 0.0
C106 C 0.2845 0.76994 0.06464 0.0
C107 C 0.31719 0.76165 0.06662 0.0
C108 C 0.26808 0.75572 0.01406 0.0
C109 C 0.28539 0.73354 0.96647 0.0
H110 H 0.33126 0.70788 0.934 0.0
H111 H 0.32959 0.77129 0.10584 0.0
C112 C 0.45565 0.57856 0.15374 0.0
N113 N 0.42887 0.61481 0.14223 0.0
C114 C 0.45875 0.54198 0.20512 0.0
C115 C 0.40691 0.5814 0.23178 0.0
C116 C 0.40484 0.61696 0.18022 0.0
C117 C 0.43411 0.54308 0.24508 0.0
H118 H 0.47455 0.5777 0.12307 0.0
H119 H 0.38368 0.64547 0.16991 0.0
C120 C 0.39539 0.80199 0.91287 0.0
N121 N 0.38187 0.90433 0.83378 0.0
C122 C 0.411 0.80314 0.86063 0.0
C123 C 0.37242 0.85221 0.92432 0.0
C124 C 0.40399 0.8555 0.82138 0.0
C125 C 0.36605 0.90369 0.88396 0.0
C126 C 0.4807 0.65081 0.99042 0.0
C127 C 0.50062 0.6891 0.95502 0.0
C128 C 0.48407 0.57853 0.99412 0.0
C129 C 0.52319 0.65399 0.92275 0.0
C130 C 0.50697 0.54544 0.96138 0.0
N131 N 0.52579 0.58347 0.92645 0.0
C132 C 0.46416 0.89144 0.05894 0.0
C133 C 0.46585 0.88476 0.95869 0.0
C134 C 0.48081 0.95449 0.0581 0.0
N135 N 0.45659 0.85832 1.00965 0.0
C136 C 0.48259 0.94758 0.95586 0.0
C137 C 0.4902 0.9838 1.006 0.0
H138 H 0.4572 0.86898 0.09915 0.0
H139 H 0.46039 0.85705 0.92007 0.0
C140 C 0.40995 0.54198 0.89727 0.0
N141 N 0.42773 0.60065 0.9016 0.0
C142 C 0.41093 0.50114 0.84812 0.0
C143 C 0.44904 0.58065 0.80861 0.0
C144 C 0.44735 0.61998 0.85869 0.0
C145 C 0.43015 0.52096 0.80228 0.0
H146 H 0.39425 0.52776 0.93139 0.0
H147 H 0.46108 0.66707 0.86246 0.0
O148 O 0.40486 0.76062 0.08272 0.0
O149 O 0.3886 0.62192 0.02085 0.0
O150 O 0.40172 0.75049 0.95156 0.0
O151 O 0.45751 0.68373 0.02028 0.0
H152 H 0.38973 0.76727 0.19175 0.0
H153 H 0.39325 0.8835 0.03563 0.0
H154 H 0.36703 0.87088 0.2394 0.0
H155 H 0.37023 0.98491 0.08576 0.0
H156 H 0.39919 0.4009 0.08801 0.0
H157 H 0.33634 0.61691 0.08187 0.0
H158 H 0.41786 0.50033 0.02975 0.0
H159 H 0.31911 0.51538 0.13908 0.0
H160 H 0.27229 0.78777 0.10228 0.0
H161 H 0.27383 0.72085 0.92683 0.0
H162 H 0.48026 0.51361 0.21358 0.0
H163 H 0.387 0.58274 0.2604 0.0
H164 H 0.42859 0.76453 0.85064 0.0
H165 H 0.35938 0.85129 0.96367 0.0
H166 H 0.41613 0.85727 0.78103 0.0
H167 H 0.34841 0.94295 0.89245 0.0
H168 H 0.49829 0.74511 0.95171 0.0
H169 H 0.46893 0.54819 0.02144 0.0
H170 H 0.53852 0.68274 0.89455 0.0
H171 H 0.50972 0.48953 0.96372 0.0
H172 H 0.48664 0.97942 0.09798 0.0
H173 H 0.48915 0.96791 0.91463 0.0
H174 H 0.39635 0.45496 0.84584 0.0
H175 H 0.46405 0.59848 0.77441 0.0
Li176 Li 0.57227 0.77236 0.5059 0.0
Li177 Li 0.58349 0.65853 0.55114 0.0
Li178 Li 0.62684 0.72285 0.49868 0.0
Li179 Li 0.58336 0.66385 0.4476 0.0
C180 C 0.60925 0.80196 0.60657 0.0
N181 N 0.62282 0.90408 0.68582 0.0
C182 C 0.59362 0.80304 0.65879 0.0
C183 C 0.63226 0.85214 0.59522 0.0
C184 C 0.60065 0.85529 0.69813 0.0
C185 C 0.63866 0.90349 0.63566 0.0
C186 C 0.5239 0.65086 0.529 0.0
C187 C 0.49765 0.54546 0.55808 0.0
N188 N 0.47881 0.5835 0.59298 0.0
C189 C 0.50395 0.68914 0.56436 0.0
C190 C 0.52055 0.57856 0.52535 0.0
C191 C 0.48139 0.65402 0.59663 0.0
C192 C 0.54042 0.89146 0.46043 0.0
N193 N 0.54803 0.85838 0.50972 0.0
C194 C 0.52208 0.9477 0.56353 0.0
C195 C 0.53881 0.88488 0.56069 0.0
C196 C 0.51443 0.98386 0.51338 0.0
C197 C 0.52378 0.9545 0.46128 0.0
H198 H 0.54736 0.86895 0.42023 0.0
H199 H 0.5443 0.85721 0.59932 0.0
C200 C 0.5947 0.54217 0.62222 0.0
N201 N 0.57688 0.60076 0.61783 0.0
C202 C 0.59373 0.50135 0.67137 0.0
C203 C 0.55554 0.58073 0.7108 0.0
C204 C 0.55722 0.62004 0.6607 0.0
C205 C 0.57447 0.52112 0.71718 0.0
H206 H 0.61043 0.52799 0.58812 0.0
H207 H 0.54347 0.66707 0.65689 0.0
C208 C 0.61216 0.8176 0.40969 0.0
N209 N 0.63708 0.9325 0.35497 0.0
C210 C 0.61915 0.81457 0.35172 0.0
C211 C 0.61749 0.87938 0.43959 0.0
C212 C 0.63185 0.87311 0.32488 0.0
C213 C 0.63018 0.93682 0.41126 0.0
C214 C 0.62612 0.56597 0.46751 0.0
C215 C 0.65416 0.57006 0.43672 0.0
C216 C 0.60842 0.50459 0.46604 0.0
C217 C 0.66382 0.51291 0.40437 0.0
C218 C 0.6189 0.44857 0.4332 0.0
N219 N 0.64613 0.45388 0.40325 0.0
C220 C 0.68659 0.72584 0.54895 0.0
C221 C 0.68741 0.76172 0.45273 0.0
C222 C 0.71921 0.73342 0.55284 0.0
N223 N 0.67136 0.74021 0.49955 0.0
C224 C 0.7201 0.76999 0.45471 0.0
C225 C 0.73652 0.75567 0.50528 0.0
H226 H 0.67334 0.70773 0.5853 0.0
H227 H 0.675 0.77144 0.41353 0.0
C228 C 0.54894 0.57843 0.36575 0.0
N229 N 0.5757 0.61483 0.37719 0.0
C230 C 0.54584 0.54184 0.31437 0.0
C231 C 0.59762 0.58155 0.28758 0.0
C232 C 0.59969 0.61712 0.33914 0.0
C233 C 0.57046 0.54307 0.27436 0.0
H234 H 0.53006 0.57747 0.39646 0.0
H235 H 0.62082 0.64575 0.3494 0.0
O236 O 0.60289 0.75056 0.5678 0.0
O237 O 0.54708 0.6838 0.49914 0.0
O238 O 0.59974 0.76065 0.43664 0.0
O239 O 0.61598 0.62196 0.49854 0.0
H240 H 0.57599 0.76448 0.66869 0.0
H241 H 0.64531 0.85126 0.55587 0.0
H242 H 0.5885 0.85702 0.73846 0.0
H243 H 0.65632 0.94272 0.62725 0.0
H244 H 0.49493 0.48955 0.55579 0.0
H245 H 0.50627 0.74516 0.56763 0.0
H246 H 0.53572 0.54823 0.49807 0.0
H247 H 0.46604 0.68277 0.62479 0.0
H248 H 0.51556 0.96807 0.60476 0.0
H249 H 0.51792 0.97939 0.42139 0.0
H250 H 0.60834 0.45523 0.6737 0.0
H251 H 0.5405 0.59853 0.74496 0.0
H252 H 0.6148 0.76761 0.3276 0.0
H253 H 0.61138 0.88339 0.48394 0.0
H254 H 0.63748 0.87137 0.28009 0.0
H255 H 0.63438 0.98495 0.43396 0.0
H256 H 0.66815 0.61706 0.43728 0.0
H257 H 0.58677 0.50028 0.48983 0.0
H258 H 0.68536 0.51554 0.38005 0.0
H259 H 0.60541 0.40086 0.43153 0.0
H260 H 0.73077 0.72066 0.59246 0.0
H261 H 0.7323 0.78787 0.41709 0.0
H262 H 0.52436 0.51335 0.30597 0.0
H263 H 0.61751 0.583 0.25893 0.0
Li264 Li 0.42206 0.35942 0.5734 0.0
Li265 Li 0.43719 0.26071 0.52056 0.0
Li266 Li 0.42627 0.3678 0.46679 0.0
Li267 Li 0.38076 0.30116 0.51894 0.0
C268 C 0.49144 0.34062 0.51934 0.0
N269 N 0.55558 0.32007 0.50967 0.0
C270 C 0.50914 0.32082 0.56671 0.0
C271 C 0.50654 0.35118 0.46734 0.0
C272 C 0.54148 0.31035 0.56091 0.0
C273 C 0.53891 0.34016 0.46319 0.0
C274 C 0.40749 0.25086 0.63974 0.0
C275 C 0.38267 0.23405 0.73089 0.0
N276 N 0.41147 0.23074 0.75582 0.0
C277 C 0.4368 0.24598 0.66617 0.0
C278 C 0.38018 0.2438 0.67224 0.0
C279 C 0.43836 0.23633 0.72491 0.0
C280 C 0.3996 0.41917 0.67536 0.0
N281 N 0.42625 0.40988 0.64437 0.0
C282 C 0.45631 0.47139 0.71444 0.0
C283 C 0.45435 0.43489 0.66297 0.0
C284 C 0.42912 0.48168 0.74745 0.0
C285 C 0.40049 0.45496 0.72697 0.0
H286 H 0.37751 0.39895 0.65972 0.0
H287 H 0.47527 0.42661 0.63792 0.0
C288 C 0.48605 0.16801 0.47993 0.0
N289 N 0.46273 0.17627 0.51896 0.0
C290 C 0.50332 0.10585 0.47748 0.0
C291 C 0.4722 0.06117 0.55499 0.0
C292 C 0.45551 0.12406 0.55586 0.0
C293 C 0.49655 0.05112 0.5154 0.0
H294 H 0.49095 0.20925 0.44996 0.0
H295 H 0.43634 0.13058 0.58546 0.0
C296 C 0.38304 0.46372 0.5422 0.0
N297 N 0.3664 0.58847 0.59267 0.0
C298 C 0.35182 0.47623 0.5576 0.0
C299 C 0.40573 0.51507 0.55183 0.0
C300 C 0.3439 0.53946 0.5833 0.0
C301 C 0.39686 0.57773 0.5775 0.0
C302 C 0.40925 0.20591 0.43167 0.0
C303 C 0.42712 0.19049 0.38347 0.0
C304 C 0.39326 0.15241 0.45982 0.0
C305 C 0.42873 0.12168 0.36425 0.0
C306 C 0.39547 0.08428 0.43928 0.0
N307 N 0.41302 0.07044 0.39233 0.0
C308 C 0.44726 0.39744 0.35237 0.0
C309 C 0.42157 0.49054 0.399 0.0
C310 C 0.44898 0.43617 0.30193 0.0
N311 N 0.43336 0.42465 0.39955 0.0
C312 C 0.42277 0.53099 0.34966 0.0
C313 C 0.43596 0.50349 0.29969 0.0
H314 H 0.45641 0.34499 0.35336 0.0
H315 H 0.41028 0.51126 0.43632 0.0
C316 C 0.31823 0.29933 0.55998 0.0
N317 N 0.33644 0.28172 0.51475 0.0
C318 C 0.28562 0.29078 0.55788 0.0
C319 C 0.29086 0.246 0.46251 0.0
C320 C 0.32344 0.25556 0.46645 0.0
C321 C 0.27139 0.26398 0.50859 0.0
H322 H 0.32894 0.32227 0.59716 0.0
H323 H 0.3383 0.24296 0.43063 0.0
O324 O 0.45987 0.35327 0.52435 0.0
O325 O 0.40559 0.26204 0.58237 0.0
O326 O 0.39134 0.40163 0.51773 0.0
O327 O 0.40819 0.27242 0.45261 0.0
H328 H 0.49821 0.31441 0.60773 0.0
H329 H 0.49348 0.36798 0.43057 0.0
H330 H 0.55541 0.2949 0.59723 0.0
H331 H 0.55077 0.34781 0.42303 0.0
H332 H 0.36171 0.22896 0.75656 0.0
H333 H 0.4581 0.24957 0.6415 0.0
H334 H 0.35729 0.24551 0.65251 0.0
H335 H 0.46094 0.23313 0.7459 0.0
H336 H 0.47893 0.49066 0.7284 0.0
H337 H 0.37875 0.46261 0.75007 0.0
H338 H 0.52192 0.10098 0.44635 0.0
H339 H 0.46556 0.02024 0.58429 0.0
H340 H 0.33381 0.43787 0.54946 0.0
H341 H 0.42996 0.50621 0.53987 0.0
H342 H 0.31984 0.54968 0.5956 0.0
H343 H 0.41412 0.6179 0.58534 0.0
H344 H 0.43984 0.23093 0.36138 0.0
H345 H 0.37968 0.16324 0.49767 0.0
H346 H 0.44256 0.10897 0.32712 0.0
H347 H 0.38336 0.04235 0.46083 0.0
H348 H 0.45922 0.41244 0.26452 0.0
H349 H 0.41286 0.58297 0.35046 0.0
H350 H 0.27165 0.30682 0.59403 0.0
H351 H 0.28108 0.22455 0.42382 0.0
Li352 Li 0.07833 0.86779 0.05265 0.0
Li353 Li 0.12384 0.80123 1.00044 0.0
Li354 Li 0.08254 0.85953 0.94603 0.0
Li355 Li 0.06742 0.76072 0.99882 0.0
C356 C 0.12157 0.9638 0.97731 0.0
N357 N 0.13824 0.0886 0.92696 0.0
C358 C 0.1528 0.97635 0.96199 0.0
C359 C 0.09888 0.01514 0.96765 0.0
C360 C 0.16074 0.03961 0.93636 0.0
C361 C 0.10777 0.07783 0.94204 0.0
C362 C 0.09537 0.70587 0.08766 0.0
C363 C 0.10917 0.58426 0.07998 0.0
N364 N 0.0916 0.57035 0.12688 0.0
C365 C 0.07747 0.69037 0.13581 0.0
C366 C 0.11137 0.65242 0.0595 0.0
C367 C 0.07586 0.62153 0.15497 0.0
C368 C 0.05738 0.89733 0.16711 0.0
N369 N 0.07123 0.92461 0.11991 0.0
C370 C 0.08174 0.03102 0.16976 0.0
C371 C 0.08295 0.99056 0.12042 0.0
C372 C 0.06861 1.00346 0.21976 0.0
C373 C 0.05565 0.93607 0.21755 0.0
H374 H 0.04828 0.84484 0.16614 0.0
H375 H 0.0942 1.01133 0.08308 0.0
C376 C 0.18637 0.79942 0.95937 0.0
N377 N 0.16816 0.78179 1.0046 0.0
C378 C 0.21898 0.79087 0.96147 0.0
C379 C 0.21374 0.74603 0.05682 0.0
C380 C 0.18116 0.75561 0.05289 0.0
C381 C 0.23321 0.76403 0.01075 0.0
H382 H 0.17566 0.82237 0.9222 0.0
H383 H 0.1663 0.743 0.08871 0.0
C384 C 0.01315 0.84071 1.00008 0.0
N385 N 0.949 0.82041 0.00971 0.0
C386 C 0.99543 0.82113 0.95267 0.0
C387 C 0.99806 0.85117 0.05211 0.0
C388 C 0.96308 0.81079 0.95846 0.0
C389 C 0.96569 0.84027 0.05623 0.0
C390 C 0.09695 0.75108 0.87961 0.0
C391 C 0.06756 0.74587 0.85349 0.0
C392 C 0.12417 0.74455 0.8468 0.0
C393 C 0.06583 0.7364 0.79475 0.0
C394 C 0.1215 0.73497 0.78816 0.0
N395 N 0.09263 0.73132 0.76353 0.0
C396 C 0.10501 0.91945 0.84416 0.0
C397 C 0.05025 0.93499 0.85645 0.0
C398 C 0.10414 0.95525 0.79255 0.0
N399 N 0.07835 0.91005 0.87509 0.0
C400 C 0.04829 0.97149 0.80498 0.0
C401 C 0.0755 0.98187 0.77202 0.0
H402 H 0.12711 0.8993 0.85984 0.0
H403 H 0.02932 0.92665 0.88146 0.0
C404 C 0.01853 0.66802 0.03937 0.0
N405 N 0.04189 0.67625 1.00042 0.0
C406 C 1.00126 0.60585 0.04181 0.0
C407 C 0.03248 0.56107 0.96448 0.0
C408 C 0.04916 0.62397 0.9636 0.0
C409 C 0.00808 0.55106 1.00398 0.0
H410 H 0.01358 0.70929 0.06928 0.0
H411 H 0.06837 0.63046 0.93408 0.0
O412 O 0.11326 0.90168 1.00173 0.0
O413 O 0.09642 0.77241 0.06677 0.0
O414 O 0.04474 0.85327 0.99509 0.0
O415 O 0.09901 0.76215 0.93698 0.0
H416 H 0.17081 0.93799 0.97016 0.0
H417 H 0.07465 1.00625 0.97955 0.0
H418 H 0.18481 0.04986 0.92413 0.0
H419 H 0.09051 0.11799 0.93418 0.0
H420 H 0.1213 0.54237 0.05842 0.0
H421 H 0.06472 0.73076 0.15791 0.0
H422 H 0.12498 0.66331 0.02168 0.0
H423 H 0.062 0.60876 0.19207 0.0
H424 H 0.09159 0.08305 0.16893 0.0
H425 H 0.04546 0.9123 0.25499 0.0
H426 H 0.23294 0.80692 0.92532 0.0
H427 H 0.22352 0.72457 0.0955 0.0
H428 H 0.00635 0.8148 0.91163 0.0
H429 H 0.01114 0.86778 0.08891 0.0
H430 H 0.94914 0.79551 0.9221 0.0
H431 H 0.95384 0.84784 0.09641 0.0
H432 H 0.04634 0.74905 0.87841 0.0
H433 H 0.14712 0.7466 0.86627 0.0
H434 H 0.0432 0.73293 0.774 0.0
H435 H 0.1424 0.73032 0.76224 0.0
H436 H 0.12588 0.96297 0.76949 0.0
H437 H 0.02567 0.99069 0.79098 0.0
H438 H 0.98262 0.60101 0.07288 0.0
H439 H 0.03915 0.5201 0.93525 0.0
Li440 Li 0.87776 0.22282 0.02067 0.0
Li441 Li 0.92122 0.1638 0.0718 0.0
Li442 Li 0.93234 0.2723 0.01348 0.0
Li443 Li 0.92111 0.15846 0.96827 0.0
C444 C 0.89242 0.31749 0.10975 0.0
N445 N 0.86747 0.43223 0.16464 0.0
C446 C 0.8854 0.31429 0.16771 0.0
C447 C 0.88712 0.37936 0.07996 0.0
C448 C 0.87269 0.37275 0.19463 0.0
C449 C 0.87441 0.43672 0.10838 0.0
C450 C 0.87844 0.06592 0.05186 0.0
C451 C 0.88568 0.94857 0.08626 0.0
N452 N 0.85841 0.95382 0.11608 0.0
C453 C 0.85037 0.06995 0.08252 0.0
C454 C 0.89618 1.00459 0.05344 0.0
C455 C 0.84068 0.01279 0.11485 0.0
C456 C 0.81801 0.22594 0.97036 0.0
N457 N 0.83323 0.24021 0.01978 0.0
C458 C 0.7845 0.26994 0.06464 0.0
C459 C 0.81719 0.26165 0.06662 0.0
C460 C 0.76808 0.25572 0.01405 0.0
C461 C 0.78539 0.23354 0.96647 0.0
H462 H 0.83126 0.20788 0.934 0.0
H463 H 0.82959 0.27129 0.10584 0.0
C464 C 0.95565 0.07856 0.15374 0.0
N465 N 0.92887 0.11481 0.14223 0.0
C466 C 0.95875 0.04198 0.20512 0.0
C467 C 0.90691 0.0814 0.23178 0.0
C468 C 0.90484 0.11696 0.18022 0.0
C469 C 0.93411 0.04308 0.24508 0.0
H470 H 0.97455 0.0777 0.12307 0.0
H471 H 0.88368 0.14547 0.16991 0.0
C472 C 0.89539 0.30199 0.91287 0.0
N473 N 0.88187 0.40433 0.83378 0.0
C474 C 0.911 0.30314 0.86062 0.0
C475 C 0.87242 0.35222 0.92432 0.0
C476 C 0.90399 0.3555 0.82138 0.0
C477 C 0.86605 0.40369 0.88396 0.0
C478 C 0.9807 0.15081 0.99042 0.0
C479 C 1.00062 0.1891 0.95502 0.0
C480 C 0.98407 0.07853 0.99412 0.0
C481 C 0.02319 0.15399 0.92275 0.0
C482 C 0.00697 0.04544 0.96138 0.0
N483 N 0.02579 0.08347 0.92645 0.0
C484 C 0.96416 0.39144 0.05894 0.0
C485 C 0.96585 0.38476 0.95869 0.0
C486 C 0.98081 0.45449 0.05809 0.0
N487 N 0.95659 0.35832 1.00965 0.0
C488 C 0.98259 0.44758 0.95586 0.0
C489 C 0.9902 0.4838 1.006 0.0
H490 H 0.9572 0.36898 0.09914 0.0
H491 H 0.96039 0.35705 0.92007 0.0
C492 C 0.90995 0.04198 0.89726 0.0
N493 N 0.92773 0.10065 0.9016 0.0
C494 C 0.91093 1.00114 0.84812 0.0
C495 C 0.94904 0.08065 0.80861 0.0
C496 C 0.94735 0.11998 0.85869 0.0
C497 C 0.93015 0.02096 0.80227 0.0
H498 H 0.89425 0.02776 0.93138 0.0
H499 H 0.96108 0.16707 0.86246 0.0
O500 O 0.90486 0.26062 0.08271 0.0
O501 O 0.8886 0.12192 0.02085 0.0
O502 O 0.90172 0.25049 0.95156 0.0
O503 O 0.95751 0.18373 0.02028 0.0
H504 H 0.88973 0.26727 0.19175 0.0
H505 H 0.89325 0.3835 0.03563 0.0
H506 H 0.86703 0.37088 0.2394 0.0
H507 H 0.87023 0.48491 0.08576 0.0
H508 H 0.89919 0.90089 0.08801 0.0
H509 H 0.83634 0.11691 0.08187 0.0
H510 H 0.91786 1.00033 0.02975 0.0
H511 H 0.81911 0.01538 0.13907 0.0
H512 H 0.77229 0.28777 0.10228 0.0
H513 H 0.77383 0.22085 0.92683 0.0
H514 H 0.98026 0.01361 0.21358 0.0
H515 H 0.887 0.08274 0.26039 0.0
H516 H 0.92859 0.26453 0.85064 0.0
H517 H 0.85938 0.35129 0.96367 0.0
H518 H 0.91613 0.35727 0.78103 0.0
H519 H 0.84841 0.44295 0.89245 0.0
H520 H 0.99829 0.24511 0.95171 0.0
H521 H 0.96893 0.04819 0.02144 0.0
H522 H 0.03852 0.18273 0.89455 0.0
H523 H 0.00972 0.98953 0.96372 0.0
H524 H 0.98664 0.47942 0.09798 0.0
H525 H 0.98915 0.46791 0.91463 0.0
H526 H 0.89635 0.95495 0.84583 0.0
H527 H 0.96405 0.09848 0.77441 0.0
Li528 Li 0.07227 0.27236 0.5059 0.0
Li529 Li 0.08349 0.15853 0.55114 0.0
Li530 Li 0.12684 0.22285 0.49868 0.0
Li531 Li 0.08336 0.16385 0.4476 0.0
C532 C 0.10925 0.30196 0.60657 0.0
N533 N 0.12282 0.40407 0.68582 0.0
C534 C 0.09362 0.30304 0.65879 0.0
C535 C 0.13226 0.35214 0.59521 0.0
C536 C 0.10065 0.35529 0.69812 0.0
C537 C 0.13866 0.40349 0.63565 0.0
C538 C 0.0239 0.15086 0.529 0.0
C539 C 0.99765 0.04546 0.55808 0.0
N540 N 0.97882 0.0835 0.59298 0.0
C541 C 0.00395 0.18914 0.56436 0.0
C542 C 0.02055 0.07856 0.52535 0.0
C543 C 0.98139 0.15402 0.59663 0.0
C544 C 0.04042 0.39146 0.46043 0.0
N545 N 0.04803 0.35838 0.50972 0.0
C546 C 0.02208 0.4477 0.56352 0.0
C547 C 0.03881 0.38488 0.56069 0.0
C548 C 0.01443 0.48386 0.51338 0.0
C549 C 0.02378 0.4545 0.46128 0.0
H550 H 0.04736 0.36895 0.42023 0.0
H551 H 0.0443 0.35721 0.59932 0.0
C552 C 0.0947 0.04217 0.62222 0.0
N553 N 0.07688 0.10076 0.61783 0.0
C554 C 0.09373 1.00135 0.67137 0.0
C555 C 0.05554 0.08073 0.7108 0.0
C556 C 0.05722 0.12004 0.6607 0.0
C557 C 0.07447 0.02112 0.71718 0.0
H558 H 0.11043 0.02799 0.58812 0.0
H559 H 0.04347 0.16707 0.65689 0.0
C560 C 0.11216 0.3176 0.40969 0.0
N561 N 0.13708 0.4325 0.35497 0.0
C562 C 0.11915 0.31457 0.35171 0.0
C563 C 0.11749 0.37938 0.43959 0.0
C564 C 0.13185 0.37311 0.32488 0.0
C565 C 0.13018 0.43682 0.41126 0.0
C566 C 0.12612 0.06597 0.46751 0.0
C567 C 0.15416 0.07006 0.43672 0.0
C568 C 0.10842 1.00459 0.46604 0.0
C569 C 0.16382 0.01291 0.40437 0.0
C570 C 0.1189 0.94857 0.4332 0.0
N571 N 0.14613 0.95388 0.40325 0.0
C572 C 0.18659 0.22584 0.54895 0.0
C573 C 0.18741 0.26172 0.45274 0.0
C574 C 0.21921 0.23342 0.55284 0.0
N575 N 0.17136 0.24021 0.49955 0.0
C576 C 0.2201 0.26999 0.45471 0.0
C577 C 0.23652 0.25567 0.50528 0.0
H578 H 0.17334 0.20773 0.5853 0.0
H579 H 0.175 0.27144 0.41353 0.0
C580 C 0.04894 0.07843 0.36575 0.0
N581 N 0.0757 0.11483 0.37719 0.0
C582 C 0.04584 0.04184 0.31437 0.0
C583 C 0.09762 0.08155 0.28758 0.0
C584 C 0.09969 0.11712 0.33914 0.0
C585 C 0.07046 0.04307 0.27436 0.0
H586 H 0.03006 0.07747 0.39646 0.0
H587 H 0.12082 0.14575 0.3494 0.0
O588 O 0.10289 0.25056 0.5678 0.0
O589 O 0.04708 0.1838 0.49914 0.0
O590 O 0.09974 0.26065 0.43664 0.0
O591 O 0.11598 0.12196 0.49854 0.0
H592 H 0.07599 0.26448 0.66869 0.0
H593 H 0.14531 0.35126 0.55587 0.0
H594 H 0.0885 0.35701 0.73846 0.0
H595 H 0.15632 0.44272 0.62725 0.0
H596 H 0.99493 0.98955 0.55579 0.0
H597 H 0.00627 0.24516 0.56763 0.0
H598 H 0.03572 0.04823 0.49807 0.0
H599 H 0.96604 0.18276 0.62479 0.0
H600 H 0.01556 0.46807 0.60476 0.0
H601 H 0.01792 0.47939 0.42139 0.0
H602 H 0.10834 0.95523 0.6737 0.0
H603 H 0.0405 0.09853 0.74496 0.0
H604 H 0.1148 0.26761 0.3276 0.0
H605 H 0.11138 0.38339 0.48394 0.0
H606 H 0.13748 0.37137 0.28009 0.0
H607 H 0.13438 0.48495 0.43396 0.0
H608 H 0.16815 0.11706 0.43728 0.0
H609 H 0.08677 1.00028 0.48983 0.0
H610 H 0.18536 0.01554 0.38005 0.0
H611 H 0.10541 0.90086 0.43153 0.0
H612 H 0.23077 0.22066 0.59246 0.0
H613 H 0.23231 0.28787 0.41709 0.0
H614 H 0.02436 0.01335 0.30597 0.0
H615 H 0.11751 0.083 0.25892 0.0
Li616 Li 0.92206 0.85942 0.5734 0.0
Li617 Li 0.93719 0.76071 0.52056 0.0
Li618 Li 0.92627 0.8678 0.46679 0.0
Li619 Li 0.88076 0.80116 0.51894 0.0
C620 C 0.99144 0.84062 0.51934 0.0
N621 N 0.05558 0.82007 0.50967 0.0
C622 C 0.00914 0.82082 0.56671 0.0
C623 C 0.00654 0.85118 0.46734 0.0
C624 C 0.04148 0.81035 0.5609 0.0
C625 C 0.03891 0.84016 0.46319 0.0
C626 C 0.90749 0.75086 0.63974 0.0
C627 C 0.88267 0.73404 0.73088 0.0
N628 N 0.91147 0.73074 0.75582 0.0
C629 C 0.9368 0.74598 0.66617 0.0
C630 C 0.88018 0.74379 0.67224 0.0
C631 C 0.93836 0.73633 0.72491 0.0
C632 C 0.8996 0.91917 0.67535 0.0
N633 N 0.92625 0.90988 0.64437 0.0
C634 C 0.95631 0.97139 0.71444 0.0
C635 C 0.95435 0.93489 0.66297 0.0
C636 C 0.92912 0.98168 0.74745 0.0
C637 C 0.90049 0.95496 0.72697 0.0
H638 H 0.87751 0.89895 0.65972 0.0
H639 H 0.97527 0.9266 0.63792 0.0
C640 C 0.98605 0.66801 0.47993 0.0
N641 N 0.96273 0.67627 0.51895 0.0
C642 C 0.00332 0.60585 0.47748 0.0
C643 C 0.9722 0.56117 0.55499 0.0
C644 C 0.95551 0.62406 0.55586 0.0
C645 C 0.99655 0.55112 0.5154 0.0
H646 H 0.99095 0.70925 0.44996 0.0
H647 H 0.93634 0.63058 0.58546 0.0
C648 C 0.88304 0.96372 0.5422 0.0
N649 N 0.8664 0.08847 0.59267 0.0
C650 C 0.85182 0.97623 0.5576 0.0
C651 C 0.90573 0.01507 0.55183 0.0
C652 C 0.8439 0.03946 0.5833 0.0
C653 C 0.89686 0.07773 0.5775 0.0
C654 C 0.90925 0.70591 0.43167 0.0
C655 C 0.92712 0.69049 0.38347 0.0
C656 C 0.89326 0.65241 0.45982 0.0
C657 C 0.92873 0.62168 0.36425 0.0
C658 C 0.89547 0.58428 0.43927 0.0
N659 N 0.91302 0.57044 0.39233 0.0
C660 C 0.94726 0.89744 0.35237 0.0
C661 C 0.92157 0.99054 0.399 0.0
C662 C 0.94898 0.93617 0.30193 0.0
N663 N 0.93336 0.92465 0.39955 0.0
C664 C 0.92277 0.03099 0.34966 0.0
C665 C 0.93596 1.00349 0.29969 0.0
H666 H 0.95641 0.84499 0.35336 0.0
H667 H 0.91028 1.01126 0.43632 0.0
C668 C 0.81823 0.79933 0.55998 0.0
N669 N 0.83644 0.78172 0.51475 0.0
C670 C 0.78562 0.79079 0.55788 0.0
C671 C 0.79086 0.746 0.46251 0.0
C672 C 0.82344 0.75556 0.46645 0.0
C673 C 0.77139 0.76398 0.50859 0.0
H674 H 0.82894 0.82227 0.59716 0.0
H675 H 0.8383 0.74296 0.43063 0.0
O676 O 0.95987 0.85327 0.52435 0.0
O677 O 0.90559 0.76204 0.58237 0.0
O678 O 0.89134 0.90163 0.51773 0.0
O679 O 0.90819 0.77242 0.45261 0.0
H680 H 0.99821 0.81441 0.60773 0.0
H681 H 0.99348 0.86798 0.43057 0.0
H682 H 0.05541 0.79489 0.59723 0.0
H683 H 0.05077 0.84781 0.42303 0.0
H684 H 0.86171 0.72896 0.75655 0.0
H685 H 0.9581 0.74957 0.6415 0.0
H686 H 0.85729 0.74551 0.65251 0.0
H687 H 0.96093 0.73314 0.7459 0.0
H688 H 0.97893 0.99066 0.7284 0.0
H689 H 0.87875 0.96261 0.75007 0.0
H690 H 0.02192 0.60098 0.44635 0.0
H691 H 0.96556 0.52025 0.58429 0.0
H692 H 0.83381 0.93787 0.54946 0.0
H693 H 0.92996 1.00621 0.53986 0.0
H694 H 0.81984 0.04968 0.5956 0.0
H695 H 0.91412 0.1179 0.58534 0.0
H696 H 0.93984 0.73093 0.36138 0.0
H697 H 0.87968 0.66324 0.49766 0.0
H698 H 0.94256 0.60897 0.32711 0.0
H699 H 0.88336 0.54235 0.46083 0.0
H700 H 0.95922 0.91244 0.26452 0.0
H701 H 0.91286 0.08297 0.35046 0.0
H702 H 0.77165 0.80682 0.59403 0.0
H703 H 0.78108 0.72455 0.42382 0.0
loop_
_geom_bond_atom_site_label_1
_geom_bond_atom_site_label_2
_geom_bond_distance
_geom_bond_site_symmetry_2
_ccdc_geom_bond_type
Li0 N17 1.990 . S
Li0 O60 1.956 1_554 S
Li0 O61 1.970 . S
Li0 O62 1.961 . S
Li1 N25 1.990 . S
Li1 O60 1.970 1_554 S
Li1 O61 1.956 . S
Li1 O63 1.961 1_554 S
Li2 N47 1.990 . S
Li2 O60 1.961 . S
Li2 O62 1.956 1_556 S
Li2 O63 1.970 . S
Li3 N53 1.990 . S
Li3 O61 1.961 1_556 S
Li3 O62 1.970 1_556 S
Li3 O63 1.956 . S
C4 C6 1.348 1_556 S
C4 C7 1.356 . S
C4 O60 1.325 . S
N5 C8 1.314 . S
N5 C9 1.279 1_554 S
C6 C4 1.348 1_554 S
C6 C8 1.353 . S
C6 H64 0.929 . S
C7 C4 1.356 . S
C7 C9 1.358 . S
C7 H65 0.930 . S
C8 N5 1.314 . S
C8 C6 1.353 . S
C8 H66 0.930 . S
C9 N5 1.279 1_556 S
C9 C7 1.358 . S
C9 H67 0.930 . S
C10 C13 1.348 . S
C10 C14 1.356 . S
C10 O61 1.325 . S
C11 N12 1.279 . S
C11 C14 1.358 . S
C11 H68 0.930 . S
N12 C11 1.279 . S
N12 C15 1.314 . S
C13 C10 1.348 . S
C13 C15 1.353 . S
C13 H69 0.929 . S
C14 C10 1.356 . S
C14 C11 1.358 . S
C14 H70 0.930 . S
C15 N12 1.314 . S
C15 C13 1.353 . S
C15 H71 0.930 . S
C16 N17 1.314 . S
C16 C21 1.353 . S
C16 H22 0.930 . S
N17 Li0 1.990 . S
N17 C16 1.314 . S
N17 C19 1.279 . S
C18 C19 1.358 . S
C18 C20 1.356 . S
C18 H72 0.930 . S
C19 N17 1.279 . S
C19 C18 1.358 . S
C19 H23 0.930 . S
C20 C18 1.356 . S
C20 C21 1.348 . S
C21 C16 1.353 . S
C21 C20 1.348 . S
C21 H73 0.929 . S
H22 C16 0.930 . S
H23 C19 0.930 . S
C24 N25 1.314 1_556 S
C24 C26 1.353 . S
C24 H30 0.930 . S
N25 Li1 1.990 . S
N25 C24 1.314 1_554 S
N25 C28 1.279 . S
C26 C24 1.353 . S
C26 C29 1.345 1_556 S
C26 H74 0.929 . S
C27 C28 1.358 . S
C27 C29 1.359 . S
C27 H75 0.930 . S
C28 N25 1.279 . S
C28 C27 1.358 . S
C28 H31 0.930 . S
C29 C26 1.345 1_554 S
C29 C27 1.359 . S
H30 C24 0.930 . S
H31 C28 0.930 . S
C32 C34 1.346 1_554 S
C32 C35 1.357 . S
C32 O62 1.325 . S
N33 C36 1.314 . S
N33 C37 1.279 1_556 S
C34 C32 1.346 1_556 S
C34 C36 1.353 . S
C34 H76 0.929 . S
C35 C32 1.357 . S
C35 C37 1.358 . S
C35 H77 0.930 . S
C36 N33 1.314 . S
C36 C34 1.353 . S
C36 H78 0.930 . S
C37 N33 1.279 1_554 S
C37 C35 1.358 . S
C37 H79 0.930 . S
C38 C39 1.348 . S
C38 C40 1.356 . S
C38 O63 1.325 . S
C39 C38 1.348 . S
C39 C41 1.353 . S
C39 H80 0.929 . S
C40 C38 1.356 . S
C40 C42 1.358 . S
C40 H81 0.930 . S
C41 C39 1.353 . S
C41 N43 1.314 . S
C41 H82 0.930 . S
C42 C40 1.358 . S
C42 N43 1.279 . S
C42 H83 0.930 . S
N43 C41 1.314 . S
N43 C42 1.279 . S
C44 C46 1.353 . S
C44 N47 1.314 . S
C44 H50 0.930 . S
C45 N47 1.279 . S
C45 C48 1.358 . S
C45 H51 0.930 . S
C46 C44 1.353 . S
C46 C49 1.348 . S
C46 H84 0.929 . S
N47 Li2 1.990 . S
N47 C44 1.314 . S
N47 C45 1.279 . S
C48 C45 1.358 . S
C48 C49 1.356 . S
C48 H85 0.930 . S
C49 C46 1.348 . S
C49 C48 1.356 . S
H50 C44 0.930 . S
H51 C45 0.930 . S
C52 N53 1.314 1_554 S
C52 C54 1.353 . S
C52 H58 0.930 . S
N53 Li3 1.990 . S
N53 C52 1.314 1_556 S
N53 C56 1.279 . S
C54 C52 1.353 . S
C54 C57 1.349 1_554 S
C54 H86 0.929 . S
C55 C56 1.358 . S
C55 C57 1.355 . S
C55 H87 0.930 . S
C56 N53 1.279 . S
C56 C55 1.358 . S
C56 H59 0.930 . S
C57 C54 1.349 1_556 S
C57 C55 1.355 . S
H58 C52 0.930 . S
H59 C56 0.930 . S
O60 Li0 1.956 1_556 S
O60 Li1 1.970 1_556 S
O60 Li2 1.961 . S
O60 C4 1.325 . S
O61 Li0 1.970 . S
O61 Li1 1.956 . S
O61 Li3 1.961 1_554 S
O61 C10 1.325 . S
O62 Li0 1.961 . S
O62 Li2 1.956 1_554 S
O62 Li3 1.970 1_554 S
O62 C32 1.325 . S
O63 Li1 1.961 1_556 S
O63 Li2 1.970 . S
O63 Li3 1.956 . S
O63 C38 1.325 . S
H64 C6 0.929 . S
H65 C7 0.930 . S
H66 C8 0.930 . S
H67 C9 0.930 . S
H68 C11 0.930 . S
H69 C13 0.929 . S
H70 C14 0.930 . S
H71 C15 0.930 . S
H72 C18 0.930 . S
H73 C21 0.929 . S
H74 C26 0.929 . S
H75 C27 0.930 . S
H76 C34 0.929 . S
H77 C35 0.930 . S
H78 C36 0.930 . S
H79 C37 0.930 . S
H80 C39 0.929 . S
H81 C40 0.930 . S
H82 C41 0.930 . S
H83 C42 0.930 . S
H84 C46 0.929 . S
H85 C48 0.930 . S
H86 C54 0.929 . S
H87 C55 0.930 . S
Li88 N105 1.990 . S
Li88 O148 1.956 . S
Li88 O149 1.970 1_554 S
Li88 O150 1.961 1_554 S
Li89 N113 1.990 . S
Li89 O148 1.970 . S
Li89 O149 1.956 1_554 S
Li89 O151 1.961 . S
Li90 N135 1.990 . S
Li90 O148 1.961 1_556 S
Li90 O150 1.956 . S
Li90 O151 1.970 1_556 S
Li91 N141 1.990 . S
Li91 O149 1.961 . S
Li91 O150 1.970 . S
Li91 O151 1.956 1_556 S
C92 C94 1.348 . S
C92 C95 1.356 . S
C92 O148 1.325 . S
N93 C96 1.314 . S
N93 C97 1.279 . S
C94 C92 1.348 . S
C94 C96 1.353 . S
C94 H152 0.929 . S
C95 C92 1.356 . S
C95 C97 1.358 . S
C95 H153 0.930 . S
C96 N93 1.314 . S
C96 C94 1.353 . S
C96 H154 0.930 . S
C97 N93 1.279 . S
C97 C95 1.358 . S
C97 H155 0.930 . S
C98 C101 1.348 1_556 S
C98 C102 1.356 . S
C98 O149 1.325 . S
C99 N100 1.279 1_556 S
C99 C102 1.358 . S
C99 H156 0.930 . S
N100 C99 1.279 1_554 S
N100 C103 1.314 . S
C101 C98 1.348 1_554 S
C101 C103 1.353 . S
C101 H157 0.929 . S
C102 C98 1.356 . S
C102 C99 1.358 . S
C102 H158 0.930 . S
C103 N100 1.314 . S
C103 C101 1.353 . S
C103 H159 0.930 . S
C104 N105 1.314 1_556 S
C104 C109 1.353 . S
C104 H110 0.930 . S
N105 Li88 1.990 . S
N105 C104 1.314 1_554 S
N105 C107 1.279 . S
C106 C107 1.358 . S
C106 C108 1.359 . S
C106 H160 0.930 . S
C107 N105 1.279 . S
C107 C106 1.358 . S
C107 H111 0.930 . S
C108 C106 1.359 . S
C108 C109 1.345 1_554 S
C109 C104 1.353 . S
C109 C108 1.345 1_556 S
C109 H161 0.929 . S
H110 C104 0.930 . S
H111 C107 0.930 . S
C112 N113 1.314 . S
C112 C114 1.353 . S
C112 H118 0.930 . S
N113 Li89 1.990 . S
N113 C112 1.314 . S
N113 C116 1.279 . S
C114 C112 1.353 . S
C114 C117 1.348 . S
C114 H162 0.929 . S
C115 C116 1.358 . S
C115 C117 1.356 . S
C115 H163 0.930 . S
C116 N113 1.279 . S
C116 C115 1.358 . S
C116 H119 0.930 . S
C117 C114 1.348 . S
C117 C115 1.356 . S
H118 C112 0.930 . S
H119 C116 0.930 . S
C120 C122 1.348 . S
C120 C123 1.356 . S
C120 O150 1.325 . S
N121 C124 1.314 . S
N121 C125 1.279 . S
C122 C120 1.348 . S
C122 C124 1.353 . S
C122 H164 0.929 . S
C123 C120 1.356 . S
C123 C125 1.358 . S
C123 H165 0.930 . S
C124 N121 1.314 . S
C124 C122 1.353 . S
C124 H166 0.930 . S
C125 N121 1.279 . S
C125 C123 1.358 . S
C125 H167 0.930 . S
C126 C127 1.346 1_554 S
C126 C128 1.357 . S
C126 O151 1.325 . S
C127 C126 1.346 1_556 S
C127 C129 1.353 . S
C127 H168 0.929 . S
C128 C126 1.357 . S
C128 C130 1.358 . S
C128 H169 0.930 . S
C129 C127 1.353 . S
C129 N131 1.314 . S
C129 H170 0.930 . S
C130 C128 1.358 . S
C130 N131 1.279 1_554 S
C130 H171 0.930 . S
N131 C129 1.314 . S
N131 C130 1.279 1_556 S
C132 C134 1.353 . S
C132 N135 1.314 1_554 S
C132 H138 0.930 . S
C133 N135 1.279 . S
C133 C136 1.358 . S
C133 H139 0.930 . S
C134 C132 1.353 . S
C134 C137 1.349 1_554 S
C134 H172 0.929 . S
N135 Li90 1.990 . S
N135 C132 1.314 1_556 S
N135 C133 1.279 . S
C136 C133 1.358 . S
C136 C137 1.355 . S
C136 H173 0.930 . S
C137 C134 1.349 1_556 S
C137 C136 1.355 . S
H138 C132 0.930 . S
H139 C133 0.930 . S
C140 N141 1.314 . S
C140 C142 1.353 . S
C140 H146 0.930 . S
N141 Li91 1.990 . S
N141 C140 1.314 . S
N141 C144 1.279 . S
C142 C140 1.353 . S
C142 C145 1.348 . S
C142 H174 0.929 . S
C143 C144 1.358 . S
C143 C145 1.356 . S
C143 H175 0.930 . S
C144 N141 1.279 . S
C144 C143 1.358 . S
C144 H147 0.930 . S
C145 C142 1.348 . S
C145 C143 1.356 . S
H146 C140 0.930 . S
H147 C144 0.930 . S
O148 Li88 1.956 . S
O148 Li89 1.970 . S
O148 Li90 1.961 1_554 S
O148 C92 1.325 . S
O149 Li88 1.970 1_556 S
O149 Li89 1.956 1_556 S
O149 Li91 1.961 . S
O149 C98 1.325 . S
O150 Li88 1.961 1_556 S
O150 Li90 1.956 . S
O150 Li91 1.970 . S
O150 C120 1.325 . S
O151 Li89 1.961 . S
O151 Li90 1.970 1_554 S
O151 Li91 1.956 1_554 S
O151 C126 1.325 . S
H152 C94 0.929 . S
H153 C95 0.930 . S
H154 C96 0.930 . S
H155 C97 0.930 . S
H156 C99 0.930 . S
H157 C101 0.929 . S
H158 C102 0.930 . S
H159 C103 0.930 . S
H160 C106 0.930 . S
H161 C109 0.929 . S
H162 C114 0.929 . S
H163 C115 0.930 . S
H164 C122 0.929 . S
H165 C123 0.930 . S
H166 C124 0.930 . S
H167 C125 0.930 . S
H168 C127 0.929 . S
H169 C128 0.930 . S
H170 C129 0.930 . S
H171 C130 0.930 . S
H172 C134 0.929 . S
H173 C136 0.930 . S
H174 C142 0.929 . S
H175 C143 0.930 . S
Li176 N193 1.990 . S
Li176 O236 1.956 . S
Li176 O237 1.970 . S
Li176 O238 1.961 . S
Li177 N201 1.990 . S
Li177 O236 1.970 . S
Li177 O237 1.956 . S
Li177 O239 1.961 . S
Li178 N223 1.990 . S
Li178 O236 1.961 . S
Li178 O238 1.956 . S
Li178 O239 1.970 . S
Li179 N229 1.990 . S
Li179 O237 1.961 . S
Li179 O238 1.970 . S
Li179 O239 1.956 . S
C180 C182 1.348 . S
C180 C183 1.356 . S
C180 O236 1.325 . S
N181 C184 1.314 . S
N181 C185 1.279 . S
C182 C180 1.348 . S
C182 C184 1.353 . S
C182 H240 0.929 . S
C183 C180 1.356 . S
C183 C185 1.358 . S
C183 H241 0.930 . S
C184 N181 1.314 . S
C184 C182 1.353 . S
C184 H242 0.930 . S
C185 N181 1.279 . S
C185 C183 1.358 . S
C185 H243 0.930 . S
C186 C189 1.348 . S
C186 C190 1.356 . S
C186 O237 1.325 . S
C187 N188 1.279 . S
C187 C190 1.358 . S
C187 H244 0.930 . S
N188 C187 1.279 . S
N188 C191 1.314 . S
C189 C186 1.348 . S
C189 C191 1.353 . S
C189 H245 0.929 . S
C190 C186 1.356 . S
C190 C187 1.358 . S
C190 H246 0.930 . S
C191 N188 1.314 . S
C191 C189 1.353 . S
C191 H247 0.930 . S
C192 N193 1.314 . S
C192 C197 1.353 . S
C192 H198 0.930 . S
N193 Li176 1.990 . S
N193 C192 1.314 . S
N193 C195 1.279 . S
C194 C195 1.358 . S
C194 C196 1.356 . S
C194 H248 0.930 . S
C195 N193 1.279 . S
C195 C194 1.358 . S
C195 H199 0.930 . S
C196 C194 1.356 . S
C196 C197 1.348 . S
C197 C192 1.353 . S
C197 C196 1.348 . S
C197 H249 0.929 . S
H198 C192 0.930 . S
H199 C195 0.930 . S
C200 N201 1.314 . S
C200 C202 1.353 . S
C200 H206 0.930 . S
N201 Li177 1.990 . S
N201 C200 1.314 . S
N201 C204 1.279 . S
C202 C200 1.353 . S
C202 C205 1.348 . S
C202 H250 0.929 . S
C203 C204 1.358 . S
C203 C205 1.356 . S
C203 H251 0.930 . S
C204 N201 1.279 . S
C204 C203 1.358 . S
C204 H207 0.930 . S
C205 C202 1.348 . S
C205 C203 1.356 . S
H206 C200 0.930 . S
H207 C204 0.930 . S
C208 C210 1.348 . S
C208 C211 1.356 . S
C208 O238 1.325 . S
N209 C212 1.314 . S
N209 C213 1.279 . S
C210 C208 1.348 . S
C210 C212 1.353 . S
C210 H252 0.929 . S
C211 C208 1.356 . S
C211 C213 1.358 . S
C211 H253 0.930 . S
C212 N209 1.314 . S
C212 C210 1.353 . S
C212 H254 0.930 . S
C213 N209 1.279 . S
C213 C211 1.358 . S
C213 H255 0.930 . S
C214 C215 1.348 . S
C214 C216 1.356 . S
C214 O239 1.325 . S
C215 C214 1.348 . S
C215 C217 1.353 . S
C215 H256 0.929 . S
C216 C214 1.356 . S
C216 C218 1.358 . S
C216 H257 0.930 . S
C217 C215 1.353 . S
C217 N219 1.314 . S
C217 H258 0.930 . S
C218 C216 1.358 . S
C218 N219 1.279 . S
C218 H259 0.930 . S
N219 C217 1.314 . S
N219 C218 1.279 . S
C220 C222 1.353 . S
C220 N223 1.314 . S
C220 H226 0.930 . S
C221 N223 1.279 . S
C221 C224 1.358 . S
C221 H227 0.930 . S
C222 C220 1.353 . S
C222 C225 1.348 . S
C222 H260 0.929 . S
N223 Li178 1.990 . S
N223 C220 1.314 . S
N223 C221 1.279 . S
C224 C221 1.358 . S
C224 C225 1.356 . S
C224 H261 0.930 . S
C225 C222 1.348 . S
C225 C224 1.356 . S
H226 C220 0.930 . S
H227 C221 0.930 . S
C228 N229 1.314 . S
C228 C230 1.353 . S
C228 H234 0.930 . S
N229 Li179 1.990 . S
N229 C228 1.314 . S
N229 C232 1.279 . S
C230 C228 1.353 . S
C230 C233 1.348 . S
C230 H262 0.929 . S
C231 C232 1.358 . S
C231 C233 1.356 . S
C231 H263 0.930 . S
C232 N229 1.279 . S
C232 C231 1.358 . S
C232 H235 0.930 . S
C233 C230 1.348 . S
C233 C231 1.356 . S
H234 C228 0.930 . S
H235 C232 0.930 . S
O236 Li176 1.956 . S
O236 Li177 1.970 . S
O236 Li178 1.961 . S
O236 C180 1.325 . S
O237 Li176 1.970 . S
O237 Li177 1.956 . S
O237 Li179 1.961 . S
O237 C186 1.325 . S
O238 Li176 1.961 . S
O238 Li178 1.956 . S
O238 Li179 1.970 . S
O238 C208 1.325 . S
O239 Li177 1.961 . S
O239 Li178 1.970 . S
O239 Li179 1.956 . S
O239 C214 1.325 . S
H240 C182 0.929 . S
H241 C183 0.930 . S
H242 C184 0.930 . S
H243 C185 0.930 . S
H244 C187 0.930 . S
H245 C189 0.929 . S
H246 C190 0.930 . S
H247 C191 0.930 . S
H248 C194 0.930 . S
H249 C197 0.929 . S
H250 C202 0.929 . S
H251 C203 0.930 . S
H252 C210 0.929 . S
H253 C211 0.930 . S
H254 C212 0.930 . S
H255 C213 0.930 . S
H256 C215 0.929 . S
H257 C216 0.930 . S
H258 C217 0.930 . S
H259 C218 0.930 . S
H260 C222 0.929 . S
H261 C224 0.930 . S
H262 C230 0.929 . S
H263 C231 0.930 . S
Li264 N281 1.990 . S
Li264 O324 1.956 . S
Li264 O325 1.970 . S
Li264 O326 1.961 . S
Li265 N289 1.990 . S
Li265 O324 1.970 . S
Li265 O325 1.956 . S
Li265 O327 1.961 . S
Li266 N311 1.990 . S
Li266 O324 1.961 . S
Li266 O326 1.956 . S
Li266 O327 1.970 . S
Li267 N317 1.990 . S
Li267 O325 1.961 . S
Li267 O326 1.970 . S
Li267 O327 1.956 . S
C268 C270 1.348 . S
C268 C271 1.356 . S
C268 O324 1.325 . S
N269 C272 1.314 . S
N269 C273 1.279 . S
C270 C268 1.348 . S
C270 C272 1.353 . S
C270 H328 0.929 . S
C271 C268 1.356 . S
C271 C273 1.358 . S
C271 H329 0.930 . S
C272 N269 1.314 . S
C272 C270 1.353 . S
C272 H330 0.930 . S
C273 N269 1.279 . S
C273 C271 1.358 . S
C273 H331 0.930 . S
C274 C277 1.348 . S
C274 C278 1.356 . S
C274 O325 1.325 . S
C275 N276 1.279 . S
C275 C278 1.358 . S
C275 H332 0.930 . S
N276 C275 1.279 . S
N276 C279 1.314 . S
C277 C274 1.348 . S
C277 C279 1.353 . S
C277 H333 0.929 . S
C278 C274 1.356 . S
C278 C275 1.358 . S
C278 H334 0.930 . S
C279 N276 1.314 . S
C279 C277 1.353 . S
C279 H335 0.930 . S
C280 N281 1.314 . S
C280 C285 1.353 . S
C280 H286 0.930 . S
N281 Li264 1.990 . S
N281 C280 1.314 . S
N281 C283 1.279 . S
C282 C283 1.358 . S
C282 C284 1.356 . S
C282 H336 0.930 . S
C283 N281 1.279 . S
C283 C282 1.358 . S
C283 H287 0.930 . S
C284 C282 1.356 . S
C284 C285 1.348 . S
C285 C280 1.353 . S
C285 C284 1.348 . S
C285 H337 0.929 . S
H286 C280 0.930 . S
H287 C283 0.930 . S
C288 N289 1.314 . S
C288 C290 1.353 . S
C288 H294 0.930 . S
N289 Li265 1.990 . S
N289 C288 1.314 . S
N289 C292 1.279 . S
C290 C288 1.353 . S
C290 C293 1.348 . S
C290 H338 0.929 . S
C291 C292 1.358 . S
C291 C293 1.356 . S
C291 H339 0.930 . S
C292 N289 1.279 . S
C292 C291 1.358 . S
C292 H295 0.930 . S
C293 C290 1.348 . S
C293 C291 1.356 . S
H294 C288 0.930 . S
H295 C292 0.930 . S
C296 C298 1.348 . S
C296 C299 1.356 . S
C296 O326 1.325 . S
N297 C300 1.314 . S
N297 C301 1.279 . S
C298 C296 1.348 . S
C298 C300 1.353 . S
C298 H340 0.929 . S
C299 C296 1.356 . S
C299 C301 1.358 . S
C299 H341 0.930 . S
C300 N297 1.314 . S
C300 C298 1.353 . S
C300 H342 0.930 . S
C301 N297 1.279 . S
C301 C299 1.358 . S
C301 H343 0.930 . S
C302 C303 1.348 . S
C302 C304 1.356 . S
C302 O327 1.325 . S
C303 C302 1.348 . S
C303 C305 1.353 . S
C303 H344 0.929 . S
C304 C302 1.356 . S
C304 C306 1.358 . S
C304 H345 0.930 . S
C305 C303 1.353 . S
C305 N307 1.314 . S
C305 H346 0.930 . S
C306 C304 1.358 . S
C306 N307 1.279 . S
C306 H347 0.930 . S
N307 C305 1.314 . S
N307 C306 1.279 . S
C308 C310 1.353 . S
C308 N311 1.314 . S
C308 H314 0.930 . S
C309 N311 1.279 . S
C309 C312 1.358 . S
C309 H315 0.930 . S
C310 C308 1.353 . S
C310 C313 1.348 . S
C310 H348 0.929 . S
N311 Li266 1.990 . S
N311 C308 1.314 . S
N311 C309 1.279 . S
C312 C309 1.358 . S
C312 C313 1.356 . S
C312 H349 0.930 . S
C313 C310 1.348 . S
C313 C312 1.356 . S
H314 C308 0.930 . S
H315 C309 0.930 . S
C316 N317 1.314 . S
C316 C318 1.353 . S
C316 H322 0.930 . S
N317 Li267 1.990 . S
N317 C316 1.314 . S
N317 C320 1.279 . S
C318 C316 1.353 . S
C318 C321 1.348 . S
C318 H350 0.929 . S
C319 C320 1.358 . S
C319 C321 1.356 . S
C319 H351 0.930 . S
C320 N317 1.279 . S
C320 C319 1.358 . S
C320 H323 0.930 . S
C321 C318 1.348 . S
C321 C319 1.356 . S
H322 C316 0.930 . S
H323 C320 0.930 . S
O324 Li264 1.956 . S
O324 Li265 1.970 . S
O324 Li266 1.961 . S
O324 C268 1.325 . S
O325 Li264 1.970 . S
O325 Li265 1.956 . S
O325 Li267 1.961 . S
O325 C274 1.325 . S
O326 Li264 1.961 . S
O326 Li266 1.956 . S
O326 Li267 1.970 . S
O326 C296 1.325 . S
O327 Li265 1.961 . S
O327 Li266 1.970 . S
O327 Li267 1.956 . S
O327 C302 1.325 . S
H328 C270 0.929 . S
H329 C271 0.930 . S
H330 C272 0.930 . S
H331 C273 0.930 . S
H332 C275 0.930 . S
H333 C277 0.929 . S
H334 C278 0.930 . S
H335 C279 0.930 . S
H336 C282 0.930 . S
H337 C285 0.929 . S
H338 C290 0.929 . S
H339 C291 0.930 . S
H340 C298 0.929 . S
H341 C299 0.930 . S
H342 C300 0.930 . S
H343 C301 0.930 . S
H344 C303 0.929 . S
H345 C304 0.930 . S
H346 C305 0.930 . S
H347 C306 0.930 . S
H348 C310 0.929 . S
H349 C312 0.930 . S
H350 C318 0.929 . S
H351 C319 0.930 . S
Li352 N369 1.990 . S
Li352 O412 1.956 1_554 S
Li352 O413 1.970 . S
Li352 O414 1.961 . S
Li353 N377 1.990 . S
Li353 O412 1.970 1_554 S
Li353 O413 1.956 . S
Li353 O415 1.961 1_554 S
Li354 N399 1.990 . S
Li354 O412 1.961 . S
Li354 O414 1.956 1_556 S
Li354 O415 1.970 . S
Li355 N405 1.990 . S
Li355 O413 1.961 1_556 S
Li355 O414 1.970 1_556 S
Li355 O415 1.956 . S
C356 C358 1.348 1_556 S
C356 C359 1.356 1_565 S
C356 O412 1.325 . S
N357 C360 1.314 . S
N357 C361 1.279 1_554 S
C358 C356 1.348 1_554 S
C358 C360 1.353 1_565 S
C358 H416 0.929 . S
C359 C356 1.356 1_545 S
C359 C361 1.358 . S
C359 H417 0.930 . S
C360 N357 1.314 . S
C360 C358 1.353 1_545 S
C360 H418 0.930 . S
C361 N357 1.279 1_556 S
C361 C359 1.358 . S
C361 H419 0.930 . S
C362 C365 1.348 . S
C362 C366 1.356 . S
C362 O413 1.325 . S
C363 N364 1.279 . S
C363 C366 1.358 . S
C363 H420 0.930 . S
N364 C363 1.279 . S
N364 C367 1.314 . S
C365 C362 1.348 . S
C365 C367 1.353 . S
C365 H421 0.929 . S
C366 C362 1.356 . S
C366 C363 1.358 . S
C366 H422 0.930 . S
C367 N364 1.314 . S
C367 C365 1.353 . S
C367 H423 0.930 . S
C368 N369 1.314 . S
C368 C373 1.353 . S
C368 H374 0.930 . S
N369 Li352 1.990 . S
N369 C368 1.314 . S
N369 C371 1.279 . S
C370 C371 1.358 1_545 S
C370 C372 1.356 1_545 S
C370 H424 0.930 . S
C371 N369 1.279 . S
C371 C370 1.358 1_565 S
C371 H375 0.930 . S
C372 C370 1.356 1_565 S
C372 C373 1.348 . S
C373 C368 1.353 . S
C373 C372 1.348 . S
C373 H425 0.929 . S
H374 C368 0.930 . S
H375 C371 0.930 . S
C376 N377 1.314 1_556 S
C376 C378 1.353 . S
C376 H382 0.930 . S
N377 Li353 1.990 . S
N377 C376 1.314 1_554 S
N377 C380 1.279 . S
C378 C376 1.353 . S
C378 C381 1.345 1_556 S
C378 H426 0.929 . S
C379 C380 1.358 . S
C379 C381 1.359 . S
C379 H427 0.930 . S
C380 N377 1.279 . S
C380 C379 1.358 . S
C380 H383 0.930 . S
C381 C378 1.345 1_554 S
C381 C379 1.359 . S
H382 C376 0.930 . S
H383 C380 0.930 . S
C384 C386 1.346 1_454 S
C384 C387 1.357 . S
C384 O414 1.325 . S
N385 C388 1.314 . S
N385 C389 1.279 1_556 S
C386 C384 1.346 1_656 S
C386 C388 1.353 . S
C386 H428 0.929 . S
C387 C384 1.357 . S
C387 C389 1.358 1_455 S
C387 H429 0.930 . S
C388 N385 1.314 . S
C388 C386 1.353 . S
C388 H430 0.930 . S
C389 N385 1.279 1_554 S
C389 C387 1.358 1_655 S
C389 H431 0.930 . S
C390 C391 1.348 . S
C390 C392 1.356 . S
C390 O415 1.325 . S
C391 C390 1.348 . S
C391 C393 1.353 . S
C391 H432 0.929 . S
C392 C390 1.356 . S
C392 C394 1.358 . S
C392 H433 0.930 . S
C393 C391 1.353 . S
C393 N395 1.314 . S
C393 H434 0.930 . S
C394 C392 1.358 . S
C394 N395 1.279 . S
C394 H435 0.930 . S
N395 C393 1.314 . S
N395 C394 1.279 . S
C396 C398 1.353 . S
C396 N399 1.314 . S
C396 H402 0.930 . S
C397 N399 1.279 . S
C397 C400 1.358 . S
C397 H403 0.930 . S
C398 C396 1.353 . S
C398 C401 1.348 . S
C398 H436 0.929 1_565 S
N399 Li354 1.990 . S
N399 C396 1.314 . S
N399 C397 1.279 . S
C400 C397 1.358 . S
C400 C401 1.356 . S
C400 H437 0.930 . S
C401 C398 1.348 . S
C401 C400 1.356 . S
H402 C396 0.930 . S
H403 C397 0.930 . S
C404 N405 1.314 1_554 S
C404 C406 1.353 . S
C404 H410 0.930 . S
N405 Li355 1.990 . S
N405 C404 1.314 1_556 S
N405 C408 1.279 . S
C406 C404 1.353 . S
C406 C409 1.349 1_454 S
C406 H438 0.929 1_455 S
C407 C408 1.358 . S
C407 C409 1.355 1_455 S
C407 H439 0.930 . S
C408 N405 1.279 . S
C408 C407 1.358 . S
C408 H411 0.930 . S
C409 C406 1.349 1_656 S
C409 C407 1.355 1_655 S
H410 C404 0.930 . S
H411 C408 0.930 . S
O412 Li352 1.956 1_556 S
O412 Li353 1.970 1_556 S
O412 Li354 1.961 . S
O412 C356 1.325 . S
O413 Li352 1.970 . S
O413 Li353 1.956 . S
O413 Li355 1.961 1_554 S
O413 C362 1.325 . S
O414 Li352 1.961 . S
O414 Li354 1.956 1_554 S
O414 Li355 1.970 1_554 S
O414 C384 1.325 . S
O415 Li353 1.961 1_556 S
O415 Li354 1.970 . S
O415 Li355 1.956 . S
O415 C390 1.325 . S
H416 C358 0.929 . S
H417 C359 0.930 . S
H418 C360 0.930 . S
H419 C361 0.930 . S
H420 C363 0.930 . S
H421 C365 0.929 . S
H422 C366 0.930 . S
H423 C367 0.930 . S
H424 C370 0.930 . S
H425 C373 0.929 . S
H426 C378 0.929 . S
H427 C379 0.930 . S
H428 C386 0.929 . S
H429 C387 0.930 . S
H430 C388 0.930 . S
H431 C389 0.930 . S
H432 C391 0.929 . S
H433 C392 0.930 . S
H434 C393 0.930 . S
H435 C394 0.930 . S
H436 C398 0.929 1_545 S
H437 C400 0.930 . S
H438 C406 0.929 1_655 S
H439 C407 0.930 . S
Li440 N457 1.990 . S
Li440 O500 1.956 . S
Li440 O501 1.970 1_554 S
Li440 O502 1.961 1_554 S
Li441 N465 1.990 . S
Li441 O500 1.970 . S
Li441 O501 1.956 1_554 S
Li441 O503 1.961 . S
Li442 N487 1.990 . S
Li442 O500 1.961 1_556 S
Li442 O502 1.956 . S
Li442 O503 1.970 1_556 S
Li443 N493 1.990 . S
Li443 O501 1.961 . S
Li443 O502 1.970 . S
Li443 O503 1.956 1_556 S
C444 C446 1.348 . S
C444 C447 1.356 . S
C444 O500 1.325 . S
N445 C448 1.314 . S
N445 C449 1.279 . S
C446 C444 1.348 . S
C446 C448 1.353 . S
C446 H504 0.929 . S
C447 C444 1.356 . S
C447 C449 1.358 . S
C447 H505 0.930 . S
C448 N445 1.314 . S
C448 C446 1.353 . S
C448 H506 0.930 . S
C449 N445 1.279 . S
C449 C447 1.358 . S
C449 H507 0.930 . S
C450 C453 1.348 1_556 S
C450 C454 1.356 1_545 S
C450 O501 1.325 . S
C451 N452 1.279 1_556 S
C451 C454 1.358 . S
C451 H508 0.930 . S
N452 C451 1.279 1_554 S
N452 C455 1.314 . S
C453 C450 1.348 1_554 S
C453 C455 1.353 1_545 S
C453 H509 0.929 . S
C454 C450 1.356 1_565 S
C454 C451 1.358 . S
C454 H510 0.930 . S
C455 N452 1.314 . S
C455 C453 1.353 1_565 S
C455 H511 0.930 . S
C456 N457 1.314 1_556 S
C456 C461 1.353 . S
C456 H462 0.930 . S
N457 Li440 1.990 . S
N457 C456 1.314 1_554 S
N457 C459 1.279 . S
C458 C459 1.358 . S
C458 C460 1.359 . S
C458 H512 0.930 . S
C459 N457 1.279 . S
C459 C458 1.358 . S
C459 H463 0.930 . S
C460 C458 1.359 . S
C460 C461 1.345 1_554 S
C461 C456 1.353 . S
C461 C460 1.345 1_556 S
C461 H513 0.929 . S
H462 C456 0.930 . S
H463 C459 0.930 . S
C464 N465 1.314 . S
C464 C466 1.353 . S
C464 H470 0.930 . S
N465 Li441 1.990 . S
N465 C464 1.314 . S
N465 C468 1.279 . S
C466 C464 1.353 . S
C466 C469 1.348 . S
C466 H514 0.929 . S
C467 C468 1.358 1_565 S
C467 C469 1.356 1_565 S
C467 H515 0.930 . S
C468 N465 1.279 . S
C468 C467 1.358 1_545 S
C468 H471 0.930 . S
C469 C466 1.348 . S
C469 C467 1.356 1_545 S
H470 C464 0.930 . S
H471 C468 0.930 . S
C472 C474 1.348 . S
C472 C475 1.356 . S
C472 O502 1.325 . S
N473 C476 1.314 . S
N473 C477 1.279 . S
C474 C472 1.348 . S
C474 C476 1.353 . S
C474 H516 0.929 . S
C475 C472 1.356 . S
C475 C477 1.358 . S
C475 H517 0.930 . S
C476 N473 1.314 . S
C476 C474 1.353 . S
C476 H518 0.930 . S
C477 N473 1.279 . S
C477 C475 1.358 . S
C477 H519 0.930 . S
C478 C479 1.346 1_654 S
C478 C480 1.357 . S
C478 O503 1.325 . S
C479 C478 1.346 1_456 S
C479 C481 1.353 . S
C479 H520 0.929 . S
C480 C478 1.357 . S
C480 C482 1.358 1_655 S
C480 H521 0.930 . S
C481 C479 1.353 . S
C481 N483 1.314 . S
C481 H522 0.930 . S
C482 C480 1.358 1_455 S
C482 N483 1.279 1_554 S
C482 H523 0.930 . S
N483 C481 1.314 . S
N483 C482 1.279 1_556 S
C484 C486 1.353 . S
C484 N487 1.314 1_554 S
C484 H490 0.930 . S
C485 N487 1.279 . S
C485 C488 1.358 . S
C485 H491 0.930 . S
C486 C484 1.353 . S
C486 C489 1.349 1_654 S
C486 H524 0.929 1_655 S
N487 Li442 1.990 . S
N487 C484 1.314 1_556 S
N487 C485 1.279 . S
C488 C485 1.358 . S
C488 C489 1.355 1_655 S
C488 H525 0.930 . S
C489 C486 1.349 1_456 S
C489 C488 1.355 1_455 S
H490 C484 0.930 . S
H491 C485 0.930 . S
C492 N493 1.314 . S
C492 C494 1.353 . S
C492 H498 0.930 . S
N493 Li443 1.990 . S
N493 C492 1.314 . S
N493 C496 1.279 . S
C494 C492 1.353 . S
C494 C497 1.348 . S
C494 H526 0.929 1_545 S
C495 C496 1.358 . S
C495 C497 1.356 . S
C495 H527 0.930 . S
C496 N493 1.279 . S
C496 C495 1.358 . S
C496 H499 0.930 . S
C497 C494 1.348 . S
C497 C495 1.356 . S
H498 C492 0.930 . S
H499 C496 0.930 . S
O500 Li440 1.956 . S
O500 Li441 1.970 . S
O500 Li442 1.961 1_554 S
O500 C444 1.325 . S
O501 Li440 1.970 1_556 S
O501 Li441 1.956 1_556 S
O501 Li443 1.961 . S
O501 C450 1.325 . S
O502 Li440 1.961 1_556 S
O502 Li442 1.956 . S
O502 Li443 1.970 . S
O502 C472 1.325 . S
O503 Li441 1.961 . S
O503 Li442 1.970 1_554 S
O503 Li443 1.956 1_554 S
O503 C478 1.325 . S
H504 C446 0.929 . S
H505 C447 0.930 . S
H506 C448 0.930 . S
H507 C449 0.930 . S
H508 C451 0.930 . S
H509 C453 0.929 . S
H510 C454 0.930 . S
H511 C455 0.930 . S
H512 C458 0.930 . S
H513 C461 0.929 . S
H514 C466 0.929 . S
H515 C467 0.930 . S
H516 C474 0.929 . S
H517 C475 0.930 . S
H518 C476 0.930 . S
H519 C477 0.930 . S
H520 C479 0.929 . S
H521 C480 0.930 . S
H522 C481 0.930 . S
H523 C482 0.930 . S
H524 C486 0.929 1_455 S
H525 C488 0.930 . S
H526 C494 0.929 1_565 S
H527 C495 0.930 . S
Li528 N545 1.990 . S
Li528 O588 1.956 . S
Li528 O589 1.970 . S
Li528 O590 1.961 . S
Li529 N553 1.990 . S
Li529 O588 1.970 . S
Li529 O589 1.956 . S
Li529 O591 1.961 . S
Li530 N575 1.990 . S
Li530 O588 1.961 . S
Li530 O590 1.956 . S
Li530 O591 1.970 . S
Li531 N581 1.990 . S
Li531 O589 1.961 . S
Li531 O590 1.970 . S
Li531 O591 1.956 . S
C532 C534 1.348 . S
C532 C535 1.356 . S
C532 O588 1.325 . S
N533 C536 1.314 . S
N533 C537 1.279 . S
C534 C532 1.348 . S
C534 C536 1.353 . S
C534 H592 0.929 . S
C535 C532 1.356 . S
C535 C537 1.358 . S
C535 H593 0.930 . S
C536 N533 1.314 . S
C536 C534 1.353 . S
C536 H594 0.930 . S
C537 N533 1.279 . S
C537 C535 1.358 . S
C537 H595 0.930 . S
C538 C541 1.348 1_455 S
C538 C542 1.356 . S
C538 O589 1.325 . S
C539 N540 1.279 . S
C539 C542 1.358 1_655 S
C539 H596 0.930 . S
N540 C539 1.279 . S
N540 C543 1.314 . S
C541 C538 1.348 1_655 S
C541 C543 1.353 . S
C541 H597 0.929 . S
C542 C538 1.356 . S
C542 C539 1.358 1_455 S
C542 H598 0.930 . S
C543 N540 1.314 . S
C543 C541 1.353 . S
C543 H599 0.930 . S
C544 N545 1.314 . S
C544 C549 1.353 . S
C544 H550 0.930 . S
N545 Li528 1.990 . S
N545 C544 1.314 . S
N545 C547 1.279 . S
C546 C547 1.358 . S
C546 C548 1.356 1_455 S
C546 H600 0.930 . S
C547 N545 1.279 . S
C547 C546 1.358 . S
C547 H551 0.930 . S
C548 C546 1.356 1_655 S
C548 C549 1.348 1_655 S
C549 C544 1.353 . S
C549 C548 1.348 1_455 S
C549 H601 0.929 1_455 S
H550 C544 0.930 . S
H551 C547 0.930 . S
C552 N553 1.314 . S
C552 C554 1.353 . S
C552 H558 0.930 . S
N553 Li529 1.990 . S
N553 C552 1.314 . S
N553 C556 1.279 . S
C554 C552 1.353 . S
C554 C557 1.348 . S
C554 H602 0.929 1_545 S
C555 C556 1.358 . S
C555 C557 1.356 . S
C555 H603 0.930 . S
C556 N553 1.279 . S
C556 C555 1.358 . S
C556 H559 0.930 . S
C557 C554 1.348 . S
C557 C555 1.356 . S
H558 C552 0.930 . S
H559 C556 0.930 . S
C560 C562 1.348 . S
C560 C563 1.356 . S
C560 O590 1.325 . S
N561 C564 1.314 . S
N561 C565 1.279 . S
C562 C560 1.348 . S
C562 C564 1.353 . S
C562 H604 0.929 . S
C563 C560 1.356 . S
C563 C565 1.358 . S
C563 H605 0.930 . S
C564 N561 1.314 . S
C564 C562 1.353 . S
C564 H606 0.930 . S
C565 N561 1.279 . S
C565 C563 1.358 . S
C565 H607 0.930 . S
C566 C567 1.348 . S
C566 C568 1.356 1_545 S
C566 O591 1.325 . S
C567 C566 1.348 . S
C567 C569 1.353 1_545 S
C567 H608 0.929 . S
C568 C566 1.356 1_565 S
C568 C570 1.358 . S
C568 H609 0.930 . S
C569 C567 1.353 1_565 S
C569 N571 1.314 . S
C569 H610 0.930 . S
C570 C568 1.358 . S
C570 N571 1.279 . S
C570 H611 0.930 . S
N571 C569 1.314 . S
N571 C570 1.279 . S
C572 C574 1.353 . S
C572 N575 1.314 . S
C572 H578 0.930 . S
C573 N575 1.279 . S
C573 C576 1.358 . S
C573 H579 0.930 . S
C574 C572 1.353 . S
C574 C577 1.348 . S
C574 H612 0.929 . S
N575 Li530 1.990 . S
N575 C572 1.314 . S
N575 C573 1.279 . S
C576 C573 1.358 . S
C576 C577 1.356 . S
C576 H613 0.930 . S
C577 C574 1.348 . S
C577 C576 1.356 . S
H578 C572 0.930 . S
H579 C573 0.930 . S
C580 N581 1.314 . S
C580 C582 1.353 . S
C580 H586 0.930 . S
N581 Li531 1.990 . S
N581 C580 1.314 . S
N581 C584 1.279 . S
C582 C580 1.353 . S
C582 C585 1.348 . S
C582 H614 0.929 . S
C583 C584 1.358 1_565 S
C583 C585 1.356 1_565 S
C583 H615 0.930 . S
C584 N581 1.279 . S
C584 C583 1.358 1_545 S
C584 H587 0.930 . S
C585 C582 1.348 . S
C585 C583 1.356 1_545 S
H586 C580 0.930 . S
H587 C584 0.930 . S
O588 Li528 1.956 . S
O588 Li529 1.970 . S
O588 Li530 1.961 . S
O588 C532 1.325 . S
O589 Li528 1.970 . S
O589 Li529 1.956 . S
O589 Li531 1.961 . S
O589 C538 1.325 . S
O590 Li528 1.961 . S
O590 Li530 1.956 . S
O590 Li531 1.970 . S
O590 C560 1.325 . S
O591 Li529 1.961 . S
O591 Li530 1.970 . S
O591 Li531 1.956 . S
O591 C566 1.325 . S
H592 C534 0.929 . S
H593 C535 0.930 . S
H594 C536 0.930 . S
H595 C537 0.930 . S
H596 C539 0.930 . S
H597 C541 0.929 . S
H598 C542 0.930 . S
H599 C543 0.930 . S
H600 C546 0.930 . S
H601 C549 0.929 1_655 S
H602 C554 0.929 1_565 S
H603 C555 0.930 . S
H604 C562 0.929 . S
H605 C563 0.930 . S
H606 C564 0.930 . S
H607 C565 0.930 . S
H608 C567 0.929 . S
H609 C568 0.930 . S
H610 C569 0.930 . S
H611 C570 0.930 . S
H612 C574 0.929 . S
H613 C576 0.930 . S
H614 C582 0.929 . S
H615 C583 0.930 . S
Li616 N633 1.990 . S
Li616 O676 1.956 . S
Li616 O677 1.970 . S
Li616 O678 1.961 . S
Li617 N641 1.990 . S
Li617 O676 1.970 . S
Li617 O677 1.956 . S
Li617 O679 1.961 . S
Li618 N663 1.990 . S
Li618 O676 1.961 . S
Li618 O678 1.956 . S
Li618 O679 1.970 . S
Li619 N669 1.990 . S
Li619 O677 1.961 . S
Li619 O678 1.970 . S
Li619 O679 1.956 . S
C620 C622 1.348 1_655 S
C620 C623 1.356 . S
C620 O676 1.325 . S
N621 C624 1.314 . S
N621 C625 1.279 . S
C622 C620 1.348 1_455 S
C622 C624 1.353 . S
C622 H680 0.929 . S
C623 C620 1.356 . S
C623 C625 1.358 1_655 S
C623 H681 0.930 . S
C624 N621 1.314 . S
C624 C622 1.353 . S
C624 H682 0.930 . S
C625 N621 1.279 . S
C625 C623 1.358 1_455 S
C625 H683 0.930 . S
C626 C629 1.348 . S
C626 C630 1.356 . S
C626 O677 1.325 . S
C627 N628 1.279 . S
C627 C630 1.358 . S
C627 H684 0.930 . S
N628 C627 1.279 . S
N628 C631 1.314 . S
C629 C626 1.348 . S
C629 C631 1.353 . S
C629 H685 0.929 . S
C630 C626 1.356 . S
C630 C627 1.358 . S
C630 H686 0.930 . S
C631 N628 1.314 . S
C631 C629 1.353 . S
C631 H687 0.930 . S
C632 N633 1.314 . S
C632 C637 1.353 . S
C632 H638 0.930 . S
N633 Li616 1.990 . S
N633 C632 1.314 . S
N633 C635 1.279 . S
C634 C635 1.358 . S
C634 C636 1.356 . S
C634 H688 0.930 . S
C635 N633 1.279 . S
C635 C634 1.358 . S
C635 H639 0.930 . S
C636 C634 1.356 . S
C636 C637 1.348 . S
C637 C632 1.353 . S
C637 C636 1.348 . S
C637 H689 0.929 1_565 S
H638 C632 0.930 . S
H639 C635 0.930 . S
C640 N641 1.314 . S
C640 C642 1.353 . S
C640 H646 0.930 . S
N641 Li617 1.990 . S
N641 C640 1.314 . S
N641 C644 1.279 . S
C642 C640 1.353 . S
C642 C645 1.348 1_655 S
C642 H690 0.929 1_655 S
C643 C644 1.358 . S
C643 C645 1.356 1_655 S
C643 H691 0.930 . S
C644 N641 1.279 . S
C644 C643 1.358 . S
C644 H647 0.930 . S
C645 C642 1.348 1_455 S
C645 C643 1.356 1_455 S
H646 C640 0.930 . S
H647 C644 0.930 . S
C648 C650 1.348 . S
C648 C651 1.356 1_565 S
C648 O678 1.325 . S
N649 C652 1.314 . S
N649 C653 1.279 . S
C650 C648 1.348 . S
C650 C652 1.353 1_565 S
C650 H692 0.929 . S
C651 C648 1.356 1_545 S
C651 C653 1.358 . S
C651 H693 0.930 . S
C652 N649 1.314 . S
C652 C650 1.353 1_545 S
C652 H694 0.930 . S
C653 N649 1.279 . S
C653 C651 1.358 . S
C653 H695 0.930 . S
C654 C655 1.348 . S
C654 C656 1.356 . S
C654 O679 1.325 . S
C655 C654 1.348 . S
C655 C657 1.353 . S
C655 H696 0.929 . S
C656 C654 1.356 . S
C656 C658 1.358 . S
C656 H697 0.930 . S
C657 C655 1.353 . S
C657 N659 1.314 . S
C657 H698 0.930 . S
C658 C656 1.358 . S
C658 N659 1.279 . S
C658 H699 0.930 . S
N659 C657 1.314 . S
N659 C658 1.279 . S
C660 C662 1.353 . S
C660 N663 1.314 . S
C660 H666 0.930 . S
C661 N663 1.279 . S
C661 C664 1.358 1_565 S
C661 H667 0.930 . S
C662 C660 1.353 . S
C662 C665 1.348 . S
C662 H700 0.929 . S
N663 Li618 1.990 . S
N663 C660 1.314 . S
N663 C661 1.279 . S
C664 C661 1.358 1_545 S
C664 C665 1.356 1_545 S
C664 H701 0.930 . S
C665 C662 1.348 . S
C665 C664 1.356 1_565 S
H666 C660 0.930 . S
H667 C661 0.930 . S
C668 N669 1.314 . S
C668 C670 1.353 . S
C668 H674 0.930 . S
N669 Li619 1.990 . S
N669 C668 1.314 . S
N669 C672 1.279 . S
C670 C668 1.353 . S
C670 C673 1.348 . S
C670 H702 0.929 . S
C671 C672 1.358 . S
C671 C673 1.356 . S
C671 H703 0.930 . S
C672 N669 1.279 . S
C672 C671 1.358 . S
C672 H675 0.930 . S
C673 C670 1.348 . S
C673 C671 1.356 . S
H674 C668 0.930 . S
H675 C672 0.930 . S
O676 Li616 1.956 . S
O676 Li617 1.970 . S
O676 Li618 1.961 . S
O676 C620 1.325 . S
O677 Li616 1.970 . S
O677 Li617 1.956 . S
O677 Li619 1.961 . S
O677 C626 1.325 . S
O678 Li616 1.961 . S
O678 Li618 1.956 . S
O678 Li619 1.970 . S
O678 C648 1.325 . S
O679 Li617 1.961 . S
O679 Li618 1.970 . S
O679 Li619 1.956 . S
O679 C654 1.325 . S
H680 C622 0.929 . S
H681 C623 0.930 . S
H682 C624 0.930 . S
H683 C625 0.930 . S
H684 C627 0.930 . S
H685 C629 0.929 . S
H686 C630 0.930 . S
H687 C631 0.930 . S
H688 C634 0.930 . S
H689 C637 0.929 1_545 S
H690 C642 0.929 1_455 S
H691 C643 0.930 . S
H692 C650 0.929 . S
H693 C651 0.930 . S
H694 C652 0.930 . S
H695 C653 0.930 . S
H696 C655 0.929 . S
H697 C656 0.930 . S
H698 C657 0.930 . S
H699 C658 0.930 . S
H700 C662 0.929 . S
H701 C664 0.930 . S
H702 C670 0.929 . S
H703 C671 0.930 . S
C460 C29 1.954 . S
C381 C108 1.954 . S
C673 C225 1.954 . S
C577 C321 1.954 . S
C20 C233 1.494 . S
C117 C313 1.494 . S
C145 C284 1.500 . S
C49 C205 1.500 . S
C372 C585 1.494 1_565 S
C665 C469 1.494 1_565 S
C636 C497 1.500 1_565 S
C401 C557 1.500 1_565 S
C137 C57 1.976 1_565 S
C196 C293 1.976 1_565 S
C409 C489 1.976 1_655 S
C548 C645 1.976 1_655 S
