# Generated by pormake.
# Topology sxg, (6)-cn, num edge types: 1
# Building blocks:
#     Node 0, Type 0, BuildingBlock: OJICUG_clean_sbu_0, # of connection points: 6
#     Node 1, Type 0, BuildingBlock: OJICUG_clean_sbu_0, # of connection points: 6
#     Node 2, Type 0, BuildingBlock: OJICUG_clean_sbu_0, # of connection points: 6
#     Node 3, Type 0, BuildingBlock: OJICUG_clean_sbu_0, # of connection points: 6
#     Node 4, Type 0, BuildingBlock: OJICUG_clean_sbu_0, # of connection points: 6
#     Node 5, Type 0, BuildingBlock: OJICUG_clean_sbu_0, # of connection points: 6
#     Node 6, Type 0, BuildingBlock: OJICUG_clean_sbu_0, # of connection points: 6
#     Node 7, Type 0, BuildingBlock: OJICUG_clean_sbu_0, # of connection points: 6
#     Node 8, Type 0, BuildingBlock: OJICUG_clean_sbu_0, # of connection points: 6
#     Node 9, Type 0, BuildingBlock: OJICUG_clean_sbu_0, # of connection points: 6
#     Node 10, Type 0, BuildingBlock: OJICUG_clean_sbu_0, # of connection points: 6
#     Node 11, Type 0, BuildingBlock: OJICUG_clean_sbu_0, # of connection points: 6
#     Node 12, Type 0, BuildingBlock: OJICUG_clean_sbu_0, # of connection points: 6
#     Node 13, Type 0, BuildingBlock: OJICUG_clean_sbu_0, # of connection points: 6
#     Node 14, Type 0, BuildingBlock: OJICUG_clean_sbu_0, # of connection points: 6
#     Node 15, Type 0, BuildingBlock: OJICUG_clean_sbu_0, # of connection points: 6
#     Node 16, Type 0, BuildingBlock: OJICUG_clean_sbu_0, # of connection points: 6
#     Node 17, Type 0, BuildingBlock: OJICUG_clean_sbu_0, # of connection points: 6
#     Node 18, Type 0, BuildingBlock: OJICUG_clean_sbu_0, # of connection points: 6
#     Node 19, Type 0, BuildingBlock: OJICUG_clean_sbu_0, # of connection points: 6
#     Node 20, Type 0, BuildingBlock: OJICUG_clean_sbu_0, # of connection points: 6
#     Node 21, Type 0, BuildingBlock: OJICUG_clean_sbu_0, # of connection points: 6
#     Node 22, Type 0, BuildingBlock: OJICUG_clean_sbu_0, # of connection points: 6
#     Node 23, Type 0, BuildingBlock: OJICUG_clean_sbu_0, # of connection points: 6
#     Edge 24, Type (0, 0), BuildingBlock: XIVTED_clean_linker_0, # of connection points: 2
#     Edge 25, Type (0, 0), BuildingBlock: XIVTED_clean_linker_0, # of connection points: 2
#     Edge 26, Type (0, 0), BuildingBlock: XIVTED_clean_linker_0, # of connection points: 2
#     Edge 27, Type (0, 0), BuildingBlock: XIVTED_clean_linker_0, # of connection points: 2
#     Edge 28, Type (0, 0), BuildingBlock: XIVTED_clean_linker_0, # of connection points: 2
#     Edge 29, Type (0, 0), BuildingBlock: XIVTED_clean_linker_0, # of connection points: 2
#     Edge 30, Type (0, 0), BuildingBlock: XIVTED_clean_linker_0, # of connection points: 2
#     Edge 31, Type (0, 0), BuildingBlock: XIVTED_clean_linker_0, # of connection points: 2
#     Edge 32, Type (0, 0), BuildingBlock: XIVTED_clean_linker_0, # of connection points: 2
#     Edge 33, Type (0, 0), BuildingBlock: XIVTED_clean_linker_0, # of connection points: 2
#     Edge 34, Type (0, 0), BuildingBlock: XIVTED_clean_linker_0, # of connection points: 2
#     Edge 35, Type (0, 0), BuildingBlock: XIVTED_clean_linker_0, # of connection points: 2
#     Edge 36, Type (0, 0), BuildingBlock: XIVTED_clean_linker_0, # of connection points: 2
#     Edge 37, Type (0, 0), BuildingBlock: XIVTED_clean_linker_0, # of connection points: 2
#     Edge 38, Type (0, 0), BuildingBlock: XIVTED_clean_linker_0, # of connection points: 2
#     Edge 39, Type (0, 0), BuildingBlock: XIVTED_clean_linker_0, # of connection points: 2
#     Edge 40, Type (0, 0), BuildingBlock: XIVTED_clean_linker_0, # of connection points: 2
#     Edge 41, Type (0, 0), BuildingBlock: XIVTED_clean_linker_0, # of connection points: 2
#     Edge 42, Type (0, 0), BuildingBlock: XIVTED_clean_linker_0, # of connection points: 2
#     Edge 43, Type (0, 0), BuildingBlock: XIVTED_clean_linker_0, # of connection points: 2
#     Edge 44, Type (0, 0), BuildingBlock: XIVTED_clean_linker_0, # of connection points: 2
#     Edge 45, Type (0, 0), BuildingBlock: XIVTED_clean_linker_0, # of connection points: 2
#     Edge 46, Type (0, 0), BuildingBlock: XIVTED_clean_linker_0, # of connection points: 2
#     Edge 47, Type (0, 0), BuildingBlock: XIVTED_clean_linker_0, # of connection points: 2
#     Edge 48, Type (0, 0), BuildingBlock: XIVTED_clean_linker_0, # of connection points: 2
#     Edge 49, Type (0, 0), BuildingBlock: XIVTED_clean_linker_0, # of connection points: 2
#     Edge 50, Type (0, 0), BuildingBlock: XIVTED_clean_linker_0, # of connection points: 2
#     Edge 51, Type (0, 0), BuildingBlock: XIVTED_clean_linker_0, # of connection points: 2
#     Edge 52, Type (0, 0), BuildingBlock: XIVTED_clean_linker_0, # of connection points: 2
#     Edge 53, Type (0, 0), BuildingBlock: XIVTED_clean_linker_0, # of connection points: 2
#     Edge 54, Type (0, 0), BuildingBlock: XIVTED_clean_linker_0, # of connection points: 2
#     Edge 55, Type (0, 0), BuildingBlock: XIVTED_clean_linker_0, # of connection points: 2
#     Edge 56, Type (0, 0), BuildingBlock: XIVTED_clean_linker_0, # of connection points: 2
#     Edge 57, Type (0, 0), BuildingBlock: XIVTED_clean_linker_0, # of connection points: 2
#     Edge 58, Type (0, 0), BuildingBlock: XIVTED_clean_linker_0, # of connection points: 2
#     Edge 59, Type (0, 0), BuildingBlock: XIVTED_clean_linker_0, # of connection points: 2
#     Edge 60, Type (0, 0), BuildingBlock: XIVTED_clean_linker_0, # of connection points: 2
#     Edge 61, Type (0, 0), BuildingBlock: XIVTED_clean_linker_0, # of connection points: 2
#     Edge 62, Type (0, 0), BuildingBlock: XIVTED_clean_linker_0, # of connection points: 2
#     Edge 63, Type (0, 0), BuildingBlock: XIVTED_clean_linker_0, # of connection points: 2
#     Edge 64, Type (0, 0), BuildingBlock: XIVTED_clean_linker_0, # of connection points: 2
#     Edge 65, Type (0, 0), BuildingBlock: XIVTED_clean_linker_0, # of connection points: 2
#     Edge 66, Type (0, 0), BuildingBlock: XIVTED_clean_linker_0, # of connection points: 2
#     Edge 67, Type (0, 0), BuildingBlock: XIVTED_clean_linker_0, # of connection points: 2
#     Edge 68, Type (0, 0), BuildingBlock: XIVTED_clean_linker_0, # of connection points: 2
#     Edge 69, Type (0, 0), BuildingBlock: XIVTED_clean_linker_0, # of connection points: 2
#     Edge 70, Type (0, 0), BuildingBlock: XIVTED_clean_linker_0, # of connection points: 2
#     Edge 71, Type (0, 0), BuildingBlock: XIVTED_clean_linker_0, # of connection points: 2
#     Edge 72, Type (0, 0), BuildingBlock: XIVTED_clean_linker_0, # of connection points: 2
#     Edge 73, Type (0, 0), BuildingBlock: XIVTED_clean_linker_0, # of connection points: 2
#     Edge 74, Type (0, 0), BuildingBlock: XIVTED_clean_linker_0, # of connection points: 2
#     Edge 75, Type (0, 0), BuildingBlock: XIVTED_clean_linker_0, # of connection points: 2
#     Edge 76, Type (0, 0), BuildingBlock: XIVTED_clean_linker_0, # of connection points: 2
#     Edge 77, Type (0, 0), BuildingBlock: XIVTED_clean_linker_0, # of connection points: 2
#     Edge 78, Type (0, 0), BuildingBlock: XIVTED_clean_linker_0, # of connection points: 2
#     Edge 79, Type (0, 0), BuildingBlock: XIVTED_clean_linker_0, # of connection points: 2
#     Edge 80, Type (0, 0), BuildingBlock: XIVTED_clean_linker_0, # of connection points: 2
#     Edge 81, Type (0, 0), BuildingBlock: XIVTED_clean_linker_0, # of connection points: 2
#     Edge 82, Type (0, 0), BuildingBlock: XIVTED_clean_linker_0, # of connection points: 2
#     Edge 83, Type (0, 0), BuildingBlock: XIVTED_clean_linker_0, # of connection points: 2
#     Edge 84, Type (0, 0), BuildingBlock: XIVTED_clean_linker_0, # of connection points: 2
#     Edge 85, Type (0, 0), BuildingBlock: XIVTED_clean_linker_0, # of connection points: 2
#     Edge 86, Type (0, 0), BuildingBlock: XIVTED_clean_linker_0, # of connection points: 2
#     Edge 87, Type (0, 0), BuildingBlock: XIVTED_clean_linker_0, # of connection points: 2
#     Edge 88, Type (0, 0), BuildingBlock: XIVTED_clean_linker_0, # of connection points: 2
#     Edge 89, Type (0, 0), BuildingBlock: XIVTED_clean_linker_0, # of connection points: 2
#     Edge 90, Type (0, 0), BuildingBlock: XIVTED_clean_linker_0, # of connection points: 2
#     Edge 91, Type (0, 0), BuildingBlock: XIVTED_clean_linker_0, # of connection points: 2
#     Edge 92, Type (0, 0), BuildingBlock: XIVTED_clean_linker_0, # of connection points: 2
#     Edge 93, Type (0, 0), BuildingBlock: XIVTED_clean_linker_0, # of connection points: 2
#     Edge 94, Type (0, 0), BuildingBlock: XIVTED_clean_linker_0, # of connection points: 2
#     Edge 95, Type (0, 0), BuildingBlock: XIVTED_clean_linker_0, # of connection points: 2
# Relax obj value: 0.142
# Max RMSD: 0.235
# Mean RMSD: 0.235
data_MOF--net-sxg--node1-OJICUG_clean_sbu_0--edge1-XIVTED_clean_linker_0
_symmetry_space_group_name_H-M    P1
_symmetry_Int_Tables_number       1
_symmetry_cell_setting            triclinic
loop_
_symmetry_equiv_pos_as_xyz
'x, y, z'
_cell_length_a     46.889892
_cell_length_b     46.890799
_cell_length_c     46.857245
_cell_angle_alpha  90.062516
_cell_angle_beta   89.961042
_cell_angle_gamma 90.005484
loop_
_atom_site_label
_atom_site_type_symbol
_atom_site_fract_x
_atom_site_fract_y
_atom_site_fract_z
_atom_type_partial_charge
Sc0 Sc 0.0827 0.37948 0.16685 0.0
Sc1 Sc 0.05798 0.36591 0.23688 0.0
Sc2 Sc 0.06907 0.30937 0.1893 0.0
O3 O 0.06969 0.35168 0.19763 0.0
C4 C 0.04349 0.33468 0.1323 0.0
C5 C 0.03103 0.41312 0.19515 0.0
C6 C 0.01418 0.31561 0.22999 0.0
C7 C 0.11274 0.40393 0.22325 0.0
C8 C 0.12595 0.32891 0.15698 0.0
C9 C 0.09449 0.31006 0.25138 0.0
O10 O 0.05717 0.35818 0.13425 0.0
O11 O 0.03311 0.40074 0.21926 0.0
O12 O 0.03036 0.30156 0.2133 0.0
O13 O 0.10992 0.40295 0.19621 0.0
O14 O 0.10864 0.3102 0.16609 0.0
O15 O 0.08085 0.33219 0.25937 0.0
O16 O 0.12004 0.35526 0.15647 0.0
O17 O 0.09567 0.39149 0.24023 0.0
O18 O 0.0939 0.30051 0.22607 0.0
O19 O 0.04712 0.40719 0.17417 0.0
O20 O 0.04445 0.31547 0.1514 0.0
O21 O 0.01971 0.34096 0.2378 0.0
Sc22 Sc 0.41062 0.61321 0.66483 0.0
Sc23 Sc 0.4345 0.62811 0.73486 0.0
Sc24 Sc 0.42488 0.68363 0.68598 0.0
O25 O 0.42356 0.64155 0.69518 0.0
C26 C 0.45087 0.6568 0.62985 0.0
C27 C 0.46189 0.58 0.69425 0.0
C28 C 0.47881 0.67795 0.72804 0.0
C29 C 0.37979 0.58998 0.72133 0.0
C30 C 0.36806 0.66403 0.65349 0.0
C31 C 0.39832 0.68463 0.74759 0.0
O32 O 0.4365 0.63373 0.63197 0.0
O33 O 0.45933 0.59275 0.71816 0.0
O34 O 0.46309 0.69178 0.71078 0.0
O35 O 0.38307 0.59027 0.69432 0.0
O36 O 0.3858 0.68269 0.6619 0.0
O37 O 0.41163 0.66256 0.75622 0.0
O38 O 0.37341 0.63755 0.65397 0.0
O39 O 0.39656 0.60289 0.73825 0.0
O40 O 0.39934 0.69355 0.72207 0.0
O41 O 0.44617 0.58558 0.6729 0.0
O42 O 0.45029 0.67629 0.64874 0.0
O43 O 0.47303 0.6527 0.73596 0.0
Sc44 Sc 0.5696 0.18653 0.80954 0.0
Sc45 Sc 0.55975 0.13081 0.76071 0.0
Sc46 Sc 0.58338 0.11613 0.83079 0.0
O47 O 0.57069 0.1444 0.80038 0.0
C48 C 0.62626 0.16664 0.84206 0.0
C49 C 0.59629 0.18709 0.74798 0.0
C50 C 0.61406 0.09238 0.7744 0.0
C51 C 0.51552 0.18074 0.76774 0.0
C52 C 0.5437 0.16013 0.86579 0.0
C53 C 0.53209 0.08299 0.8014 0.0
O54 O 0.60873 0.18544 0.83352 0.0
O55 O 0.58288 0.16506 0.73932 0.0
O56 O 0.61063 0.09289 0.80137 0.0
O57 O 0.53132 0.19468 0.78487 0.0
O58 O 0.55785 0.13695 0.86362 0.0
O59 O 0.53476 0.09555 0.77743 0.0
O60 O 0.54427 0.17954 0.84687 0.0
O61 O 0.52133 0.15553 0.75969 0.0
O62 O 0.5477 0.08874 0.82279 0.0
O63 O 0.59513 0.19617 0.77344 0.0
O64 O 0.62069 0.14021 0.84162 0.0
O65 O 0.59756 0.10536 0.7573 0.0
Sc66 Sc 0.92429 0.80845 0.30872 0.0
Sc67 Sc 0.93612 0.86413 0.26051 0.0
Sc68 Sc 0.91189 0.87911 0.33039 0.0
O69 O 0.92433 0.85065 0.29994 0.0
C70 C 0.86793 0.82937 0.34124 0.0
C71 C 0.89869 0.80865 0.24685 0.0
C72 C 0.88196 0.90308 0.27373 0.0
C73 C 0.97915 0.81336 0.26764 0.0
C74 C 0.95062 0.83415 0.36526 0.0
C75 C 0.96379 0.91172 0.30144 0.0
O76 O 0.8849 0.81023 0.33233 0.0
O77 O 0.91293 0.83027 0.23856 0.0
O78 O 0.88495 0.90261 0.30078 0.0
O79 O 0.96267 0.79961 0.28428 0.0
O80 O 0.93719 0.85779 0.36313 0.0
O81 O 0.96131 0.89908 0.27748 0.0
O82 O 0.94938 0.81473 0.34634 0.0
O83 O 0.97417 0.83886 0.26001 0.0
O84 O 0.94789 0.90618 0.32266 0.0
O85 O 0.8989 0.79958 0.27231 0.0
O86 O 0.87423 0.85563 0.34123 0.0
O87 O 0.8987 0.89 0.25688 0.0
Sc88 Sc 0.16435 0.08295 0.3806 0.0
Sc89 Sc 0.23374 0.0581 0.36467 0.0
Sc90 Sc 0.18483 0.07007 0.30966 0.0
O91 O 0.19425 0.07017 0.35174 0.0
C92 C 0.12861 0.04419 0.33633 0.0
C93 C 0.19321 0.03081 0.4128 0.0
C94 C 0.22556 0.01502 0.31409 0.0
C95 C 0.22157 0.11244 0.40374 0.0
C96 C 0.15321 0.1268 0.33089 0.0
C97 C 0.24686 0.09517 0.30877 0.0
O98 O 0.1311 0.05787 0.35981 0.0
O99 O 0.21704 0.03315 0.39991 0.0
O100 O 0.20894 0.03161 0.30049 0.0
O101 O 0.19453 0.10962 0.40367 0.0
O102 O 0.16147 0.10954 0.31168 0.0
O103 O 0.25535 0.08093 0.33032 0.0
O104 O 0.15366 0.12071 0.35721 0.0
O105 O 0.23811 0.0956 0.3904 0.0
O106 O 0.22123 0.09523 0.30019 0.0
O107 O 0.17209 0.04689 0.40754 0.0
O108 O 0.14726 0.04515 0.31663 0.0
O109 O 0.23346 0.01994 0.33954 0.0
Sc110 Sc 0.31057 0.92548 0.80952 0.0
Sc111 Sc 0.26165 0.9357 0.86495 0.0
Sc112 Sc 0.33139 0.91149 0.88006 0.0
O113 O 0.30125 0.92444 0.85161 0.0
C114 C 0.34265 0.86866 0.82946 0.0
C115 C 0.24898 0.89928 0.80847 0.0
C116 C 0.27464 0.88108 0.90322 0.0
C117 C 0.26902 0.97979 0.81516 0.0
C118 C 0.36664 0.95129 0.83628 0.0
C119 C 0.30219 0.96294 0.91315 0.0
O120 O 0.33458 0.88639 0.81066 0.0
O121 O 0.24031 0.91298 0.83033 0.0
O122 O 0.30164 0.88432 0.90314 0.0
O123 O 0.28589 0.96371 0.80121 0.0
O124 O 0.36445 0.93697 0.85938 0.0
O125 O 0.27828 0.96036 0.90047 0.0
O126 O 0.34775 0.95082 0.81682 0.0
O127 O 0.26117 0.97426 0.84049 0.0
O128 O 0.32353 0.94724 0.9075 0.0
O129 O 0.27454 0.89991 0.79969 0.0
O130 O 0.34196 0.8741 0.85593 0.0
O131 O 0.25787 0.89778 0.89007 0.0
Sc132 Sc 0.68715 0.42753 0.68562 0.0
Sc133 Sc 0.73503 0.438 0.62943 0.0
Sc134 Sc 0.6657 0.41247 0.6154 0.0
O135 O 0.69588 0.42617 0.64342 0.0
C136 C 0.65597 0.36984 0.66654 0.0
C137 C 0.74996 0.40574 0.68788 0.0
C138 C 0.72288 0.3819 0.5933 0.0
C139 C 0.72658 0.48329 0.67764 0.0
C140 C 0.62994 0.45166 0.65911 0.0
C141 C 0.69405 0.46267 0.58033 0.0
O142 O 0.66451 0.38755 0.68521 0.0
O143 O 0.75734 0.41916 0.66547 0.0
O144 O 0.69595 0.38569 0.59259 0.0
O145 O 0.71081 0.46674 0.69234 0.0
O146 O 0.63234 0.43751 0.63592 0.0
O147 O 0.71825 0.45994 0.59233 0.0
O148 O 0.64891 0.45149 0.67849 0.0
O149 O 0.73364 0.47783 0.652 0.0
O150 O 0.67251 0.44789 0.58739 0.0
O151 O 0.72433 0.40369 0.6962 0.0
O152 O 0.65583 0.37534 0.64008 0.0
O153 O 0.73971 0.39853 0.60661 0.0
Sc154 Sc 0.83071 0.58245 0.11431 0.0
Sc155 Sc 0.76061 0.55834 0.12826 0.0
Sc156 Sc 0.80811 0.57009 0.18471 0.0
O157 O 0.79986 0.57007 0.14235 0.0
C158 C 0.86499 0.54377 0.15961 0.0
C159 C 0.80224 0.53058 0.08121 0.0
C160 C 0.76726 0.5152 0.17912 0.0
C161 C 0.77454 0.61253 0.08959 0.0
C162 C 0.84073 0.62649 0.16425 0.0
C163 C 0.74611 0.59556 0.18384 0.0
O164 O 0.86309 0.55701 0.13587 0.0
O165 O 0.77813 0.53294 0.09358 0.0
O166 O 0.78393 0.53153 0.19303 0.0
O167 O 0.80154 0.6095 0.09057 0.0
O168 O 0.83137 0.60966 0.18329 0.0
O169 O 0.73817 0.58164 0.16185 0.0
O170 O 0.84135 0.62001 0.13802 0.0
O171 O 0.75742 0.59577 0.10226 0.0
O172 O 0.77141 0.59516 0.19333 0.0
O173 O 0.82327 0.54661 0.087 0.0
O174 O 0.84596 0.54525 0.1789 0.0
O175 O 0.75962 0.52037 0.15365 0.0
Sc176 Sc 0.38008 0.16533 0.08328 0.0
Sc177 Sc 0.36495 0.23526 0.05946 0.0
Sc178 Sc 0.30958 0.18605 0.06878 0.0
O179 O 0.35163 0.1955 0.07028 0.0
C180 C 0.33685 0.13002 0.04302 0.0
C181 C 0.41343 0.1951 0.0323 0.0
C182 C 0.31555 0.22779 0.01469 0.0
C183 C 0.40277 0.22186 0.11435 0.0
C184 C 0.32915 0.15369 0.12566 0.0
C185 C 0.3083 0.24763 0.0955 0.0
O186 O 0.35998 0.13243 0.05722 0.0
O187 O 0.40045 0.21886 0.0347 0.0
O188 O 0.30167 0.21042 0.03027 0.0
O189 O 0.40257 0.19487 0.1111 0.0
O190 O 0.31047 0.16232 0.10806 0.0
O191 O 0.33046 0.2564 0.08244 0.0
O192 O 0.35561 0.15408 0.12023 0.0
O193 O 0.38999 0.23872 0.09746 0.0
O194 O 0.29929 0.22218 0.09408 0.0
O195 O 0.40792 0.17374 0.048 0.0
O196 O 0.31718 0.14868 0.04368 0.0
O197 O 0.34052 0.23622 0.02087 0.0
Sc198 Sc 0.81185 0.30859 0.92355 0.0
Sc199 Sc 0.86593 0.25993 0.93749 0.0
Sc200 Sc 0.88251 0.32845 0.91239 0.0
O201 O 0.85366 0.2991 0.92476 0.0
C202 C 0.83421 0.34167 0.86861 0.0
C203 C 0.81097 0.24775 0.89839 0.0
C204 C 0.90552 0.2707 0.88365 0.0
C205 C 0.81489 0.26694 0.97813 0.0
C206 C 0.83723 0.36348 0.95127 0.0
C207 C 0.91421 0.30038 0.96479 0.0
O208 O 0.81469 0.33628 0.88662 0.0
O209 O 0.83024 0.23909 0.9156 0.0
O210 O 0.90672 0.29767 0.88728 0.0
O211 O 0.80112 0.28124 0.95961 0.0
O212 O 0.86007 0.36203 0.93625 0.0
O213 O 0.90219 0.27617 0.96161 0.0
O214 O 0.81842 0.34391 0.95143 0.0
O215 O 0.84149 0.2625 0.97595 0.0
O216 O 0.90811 0.32182 0.94948 0.0
O217 O 0.80473 0.2739 0.89526 0.0
O218 O 0.8603 0.33718 0.87362 0.0
O219 O 0.89084 0.25441 0.89959 0.0
Sc220 Sc 0.68498 0.68424 0.42318 0.0
Sc221 Sc 0.62996 0.73285 0.43633 0.0
Sc222 Sc 0.61399 0.6637 0.41091 0.0
O223 O 0.64289 0.69352 0.42369 0.0
C224 C 0.66332 0.65295 0.36635 0.0
C225 C 0.68548 0.74649 0.3988 0.0
C226 C 0.59062 0.72115 0.38215 0.0
C227 C 0.68081 0.72441 0.47885 0.0
C228 C 0.65872 0.62766 0.44871 0.0
C229 C 0.58207 0.69204 0.46365 0.0
O230 O 0.68267 0.66119 0.38343 0.0
O231 O 0.66413 0.75477 0.4135 0.0
O232 O 0.59068 0.69409 0.38477 0.0
O233 O 0.69441 0.70813 0.46184 0.0
O234 O 0.6351 0.6303 0.43537 0.0
O235 O 0.59486 0.71591 0.46135 0.0
O236 O 0.67836 0.64636 0.44779 0.0
O237 O 0.65526 0.73212 0.47434 0.0
O238 O 0.58731 0.67101 0.44738 0.0
O239 O 0.69408 0.72087 0.39823 0.0
O240 O 0.63708 0.65332 0.37278 0.0
O241 O 0.60407 0.73757 0.39902 0.0
Sc242 Sc 0.11353 0.83025 0.5837 0.0
Sc243 Sc 0.12787 0.75994 0.56035 0.0
Sc244 Sc 0.18384 0.80859 0.56958 0.0
O245 O 0.14167 0.79962 0.57099 0.0
C246 C 0.1573 0.8648 0.54347 0.0
C247 C 0.07987 0.80054 0.53289 0.0
C248 C 0.17743 0.7667 0.51553 0.0
C249 C 0.09008 0.77429 0.61515 0.0
C250 C 0.16438 0.84153 0.62628 0.0
C251 C 0.18466 0.74696 0.59612 0.0
O252 O 0.13402 0.8627 0.55749 0.0
O253 O 0.09249 0.77659 0.53543 0.0
O254 O 0.19145 0.78405 0.53104 0.0
O255 O 0.09063 0.80122 0.6116 0.0
O256 O 0.18309 0.83237 0.60894 0.0
O257 O 0.16227 0.73844 0.58324 0.0
O258 O 0.13798 0.84158 0.62059 0.0
O259 O 0.10273 0.75704 0.59848 0.0
O260 O 0.19381 0.77236 0.59479 0.0
O261 O 0.08571 0.82191 0.54848 0.0
O262 O 0.17682 0.84602 0.54444 0.0
O263 O 0.15237 0.7585 0.52175 0.0
Sc264 Sc 0.92403 0.68552 0.81005 0.0
Sc265 Sc 0.93579 0.6304 0.76103 0.0
Sc266 Sc 0.91148 0.61464 0.83066 0.0
O267 O 0.92398 0.64343 0.80065 0.0
C268 C 0.9503 0.65892 0.86622 0.0
C269 C 0.97916 0.68064 0.76932 0.0
C270 C 0.96307 0.58205 0.80117 0.0
C271 C 0.89895 0.68641 0.748 0.0
C272 C 0.86756 0.66431 0.84218 0.0
C273 C 0.88129 0.59184 0.77359 0.0
O274 O 0.94893 0.67869 0.8477 0.0
O275 O 0.97409 0.65526 0.76131 0.0
O276 O 0.9473 0.58751 0.8225 0.0
O277 O 0.89888 0.695 0.77365 0.0
O278 O 0.87395 0.63808 0.84195 0.0
O279 O 0.89805 0.60501 0.75685 0.0
O280 O 0.88446 0.68357 0.83341 0.0
O281 O 0.91316 0.66485 0.73949 0.0
O282 O 0.88443 0.59185 0.80063 0.0
O283 O 0.96259 0.6944 0.78591 0.0
O284 O 0.93693 0.63531 0.86367 0.0
O285 O 0.96057 0.59492 0.77737 0.0
Sc286 Sc 0.5696 0.30981 0.30901 0.0
Sc287 Sc 0.55847 0.36504 0.26006 0.0
Sc288 Sc 0.58293 0.38059 0.32974 0.0
O289 O 0.57012 0.3519 0.29966 0.0
C290 C 0.54396 0.33655 0.36542 0.0
C291 C 0.51473 0.31483 0.26821 0.0
C292 C 0.53112 0.41316 0.30061 0.0
C293 C 0.59521 0.30896 0.24697 0.0
C294 C 0.62642 0.33049 0.34076 0.0
C295 C 0.61291 0.40376 0.27278 0.0
O296 O 0.54496 0.31686 0.34677 0.0
O297 O 0.52029 0.33995 0.25977 0.0
O298 O 0.54715 0.40787 0.32178 0.0
O299 O 0.5945 0.29999 0.27246 0.0
O300 O 0.6204 0.35682 0.34067 0.0
O301 O 0.59601 0.39071 0.25609 0.0
O302 O 0.60919 0.31147 0.33211 0.0
O303 O 0.58157 0.33087 0.23846 0.0
O304 O 0.61002 0.40348 0.29983 0.0
O305 O 0.53089 0.30119 0.28522 0.0
O306 O 0.55755 0.36003 0.36288 0.0
O307 O 0.53342 0.4002 0.2768 0.0
Sc308 Sc 0.42503 0.81045 0.18696 0.0
Sc309 Sc 0.43563 0.86636 0.23537 0.0
Sc310 Sc 0.41186 0.8809 0.16524 0.0
O311 O 0.4244 0.85266 0.1958 0.0
C312 C 0.45148 0.83652 0.13058 0.0
C313 C 0.47944 0.81611 0.2284 0.0
C314 C 0.46314 0.91413 0.19462 0.0
C315 C 0.39893 0.81033 0.24878 0.0
C316 C 0.36861 0.83055 0.15417 0.0
C317 C 0.38105 0.90453 0.22159 0.0
O318 O 0.45012 0.81704 0.14939 0.0
O319 O 0.47387 0.8414 0.23638 0.0
O320 O 0.44729 0.90849 0.1734 0.0
O321 O 0.39975 0.80113 0.22335 0.0
O322 O 0.3747 0.85686 0.15399 0.0
O323 O 0.39791 0.89189 0.2386 0.0
O324 O 0.38567 0.81165 0.16336 0.0
O325 O 0.4125 0.83235 0.25715 0.0
O326 O 0.38422 0.90394 0.19457 0.0
O327 O 0.46346 0.80226 0.21136 0.0
O328 O 0.43788 0.86006 0.13268 0.0
O329 O 0.46078 0.90142 0.21853 0.0
Sc330 Sc 0.06965 0.18312 0.68595 0.0
Sc331 Sc 0.05964 0.12692 0.73402 0.0
Sc332 Sc 0.08388 0.113 0.6639 0.0
O333 O 0.07084 0.14092 0.69459 0.0
C334 C 0.04378 0.15701 0.62949 0.0
C335 C 0.01554 0.17693 0.72777 0.0
C336 C 0.03242 0.07941 0.69258 0.0
C337 C 0.09599 0.18323 0.74759 0.0
C338 C 0.1265 0.16388 0.65332 0.0
C339 C 0.1144 0.08901 0.72013 0.0
O340 O 0.04433 0.17628 0.6486 0.0
O341 O 0.02117 0.15154 0.7353 0.0
O342 O 0.04837 0.08526 0.67147 0.0
O343 O 0.09511 0.1925 0.7222 0.0
O344 O 0.12109 0.13741 0.65345 0.0
O345 O 0.09752 0.10159 0.73721 0.0
O346 O 0.10879 0.18248 0.66193 0.0
O347 O 0.08255 0.1611 0.75592 0.0
O348 O 0.11128 0.08975 0.69313 0.0
O349 O 0.0314 0.19098 0.71079 0.0
O350 O 0.05813 0.13392 0.63132 0.0
O351 O 0.03474 0.09184 0.71669 0.0
Sc352 Sc 0.82951 0.91117 0.61362 0.0
Sc353 Sc 0.7587 0.9338 0.62736 0.0
Sc354 Sc 0.80725 0.92584 0.68375 0.0
O355 O 0.7985 0.92383 0.64151 0.0
C356 C 0.84014 0.86894 0.665 0.0
C357 C 0.77412 0.87923 0.58947 0.0
C358 C 0.74565 0.89834 0.68413 0.0
C359 C 0.79948 0.9618 0.57982 0.0
C360 C 0.86388 0.9516 0.65737 0.0
C361 C 0.76501 0.97928 0.67698 0.0
O362 O 0.84108 0.87465 0.63859 0.0
O363 O 0.75665 0.89606 0.60155 0.0
O364 O 0.77062 0.9013 0.69405 0.0
O365 O 0.82078 0.94603 0.58541 0.0
O366 O 0.84509 0.95034 0.67688 0.0
O367 O 0.75577 0.97193 0.65256 0.0
O368 O 0.86175 0.93789 0.63391 0.0
O369 O 0.77559 0.95944 0.59264 0.0
O370 O 0.78349 0.96481 0.69058 0.0
O371 O 0.80104 0.88265 0.59077 0.0
O372 O 0.83031 0.88621 0.68344 0.0
O373 O 0.73727 0.90989 0.66101 0.0
Sc374 Sc 0.68681 0.07035 0.1855 0.0
Sc375 Sc 0.73472 0.05888 0.12928 0.0
Sc376 Sc 0.66454 0.08239 0.11501 0.0
O377 O 0.69532 0.07032 0.14318 0.0
C378 C 0.63023 0.04374 0.16042 0.0
C379 C 0.72828 0.01588 0.1803 0.0
C380 C 0.69339 0.03048 0.08231 0.0
C381 C 0.74849 0.0965 0.18481 0.0
C382 C 0.65401 0.12653 0.16471 0.0
C383 C 0.72058 0.11252 0.08997 0.0
O384 O 0.64933 0.045 0.17964 0.0
O385 O 0.73589 0.02099 0.15478 0.0
O386 O 0.67217 0.04626 0.08814 0.0
O387 O 0.72312 0.09594 0.19413 0.0
O388 O 0.65391 0.12017 0.13843 0.0
O389 O 0.7378 0.09624 0.10309 0.0
O390 O 0.663 0.10961 0.18384 0.0
O391 O 0.75674 0.0825 0.16296 0.0
O392 O 0.69363 0.10917 0.09083 0.0
O393 O 0.71146 0.03215 0.19412 0.0
O394 O 0.6321 0.0572 0.1368 0.0
O395 O 0.71753 0.03323 0.09455 0.0
Sc396 Sc 0.30902 0.57004 0.30972 0.0
Sc397 Sc 0.26054 0.5592 0.36552 0.0
Sc398 Sc 0.33027 0.58382 0.38024 0.0
O399 O 0.29998 0.57081 0.35191 0.0
C400 C 0.36551 0.54451 0.33604 0.0
C401 C 0.26795 0.51536 0.31526 0.0
C402 C 0.30161 0.532 0.41324 0.0
C403 C 0.24712 0.59574 0.30935 0.0
C404 C 0.34089 0.62703 0.32983 0.0
C405 C 0.27356 0.61374 0.40407 0.0
O406 O 0.34665 0.54519 0.31656 0.0
O407 O 0.25997 0.52091 0.34056 0.0
O408 O 0.32267 0.54808 0.40765 0.0
O409 O 0.27256 0.59508 0.30022 0.0
O410 O 0.34075 0.62127 0.35623 0.0
O411 O 0.25674 0.59685 0.39119 0.0
O412 O 0.33241 0.60953 0.31095 0.0
O413 O 0.23874 0.58214 0.33137 0.0
O414 O 0.30058 0.61083 0.40348 0.0
O415 O 0.28485 0.53146 0.30138 0.0
O416 O 0.36325 0.55848 0.35936 0.0
O417 O 0.27764 0.53424 0.40061 0.0
Sc418 Sc 0.16283 0.4104 0.8798 0.0
Sc419 Sc 0.23255 0.43471 0.86461 0.0
Sc420 Sc 0.18401 0.42314 0.80906 0.0
O421 O 0.19308 0.42297 0.85124 0.0
C422 C 0.15182 0.36658 0.82989 0.0
C423 C 0.21951 0.38047 0.9035 0.0
C424 C 0.24588 0.39752 0.80877 0.0
C425 C 0.19178 0.46235 0.9124 0.0
C426 C 0.1277 0.44934 0.83535 0.0
C427 C 0.22517 0.4779 0.81396 0.0
O428 O 0.152 0.37278 0.8562 0.0
O429 O 0.23635 0.39722 0.89045 0.0
O430 O 0.22039 0.39785 0.79979 0.0
O431 O 0.17064 0.44634 0.90696 0.0
O432 O 0.14643 0.44822 0.81574 0.0
O433 O 0.233 0.47278 0.83938 0.0
O434 O 0.13 0.43572 0.85885 0.0
O435 O 0.21568 0.45995 0.89967 0.0
O436 O 0.20836 0.46155 0.80024 0.0
O437 O 0.1925 0.38347 0.90304 0.0
O438 O 0.16048 0.38369 0.81075 0.0
O439 O 0.25426 0.41154 0.83053 0.0
Sc440 Sc 0.61496 0.82964 0.91141 0.0
Sc441 Sc 0.6291 0.76005 0.93668 0.0
Sc442 Sc 0.68525 0.8076 0.92465 0.0
O443 O 0.643 0.79916 0.92446 0.0
C444 C 0.6652 0.83957 0.86777 0.0
C445 C 0.59059 0.77276 0.88208 0.0
C446 C 0.68466 0.74562 0.89948 0.0
C447 C 0.5818 0.80183 0.96363 0.0
C448 C 0.65986 0.86441 0.9505 0.0
C449 C 0.67972 0.76704 0.97975 0.0
O450 O 0.63884 0.83956 0.87366 0.0
O451 O 0.6034 0.75609 0.89915 0.0
O452 O 0.69384 0.77104 0.89936 0.0
O453 O 0.58758 0.8227 0.94739 0.0
O454 O 0.67905 0.84526 0.94968 0.0
O455 O 0.65407 0.75984 0.97494 0.0
O456 O 0.63646 0.86251 0.9366 0.0
O457 O 0.5942 0.77773 0.96153 0.0
O458 O 0.69373 0.78323 0.96306 0.0
O459 O 0.59133 0.79984 0.88466 0.0
O460 O 0.68406 0.83112 0.88525 0.0
O461 O 0.66301 0.7376 0.91388 0.0
Sc462 Sc 0.18613 0.68552 0.06992 0.0
Sc463 Sc 0.13067 0.73424 0.05895 0.0
Sc464 Sc 0.11541 0.66432 0.08262 0.0
O465 O 0.14398 0.69464 0.07027 0.0
C466 C 0.15981 0.62943 0.0432 0.0
C467 C 0.1812 0.72707 0.01548 0.0
C468 C 0.08274 0.69385 0.03111 0.0
C469 C 0.1865 0.74718 0.09615 0.0
C470 C 0.16532 0.65284 0.12622 0.0
C471 C 0.0919 0.72082 0.11326 0.0
O472 O 0.17942 0.64813 0.04455 0.0
O473 O 0.15584 0.73497 0.02078 0.0
O474 O 0.0882 0.67255 0.04688 0.0
O475 O 0.19547 0.72169 0.09551 0.0
O476 O 0.13904 0.65304 0.12004 0.0
O477 O 0.10493 0.73773 0.09657 0.0
O478 O 0.18444 0.66172 0.1092 0.0
O479 O 0.16475 0.75571 0.08226 0.0
O480 O 0.09226 0.69382 0.11002 0.0
O481 O 0.19489 0.71009 0.03164 0.0
O482 O 0.13629 0.63165 0.05682 0.0
O483 O 0.09555 0.71769 0.03367 0.0
Sc484 Sc 0.30964 0.30849 0.56954 0.0
Sc485 Sc 0.36571 0.2602 0.55947 0.0
Sc486 Sc 0.37999 0.33054 0.58274 0.0
O487 O 0.35186 0.29979 0.57036 0.0
C488 C 0.33553 0.36485 0.54305 0.0
C489 C 0.31561 0.2667 0.51536 0.0
C490 C 0.4133 0.30098 0.53159 0.0
C491 C 0.30951 0.24688 0.596 0.0
C492 C 0.32959 0.34148 0.626 0.0
C493 C 0.40398 0.27457 0.61384 0.0
O494 O 0.31615 0.34592 0.54428 0.0
O495 O 0.34086 0.25877 0.52114 0.0
O496 O 0.40748 0.32238 0.54715 0.0
O497 O 0.30025 0.27224 0.59495 0.0
O498 O 0.35592 0.34166 0.61998 0.0
O499 O 0.39119 0.25734 0.59728 0.0
O500 O 0.31072 0.33229 0.60886 0.0
O501 O 0.33167 0.23849 0.58263 0.0
O502 O 0.40334 0.30152 0.61035 0.0
O503 O 0.30167 0.28386 0.53115 0.0
O504 O 0.35898 0.36291 0.55678 0.0
O505 O 0.40081 0.27699 0.53431 0.0
Sc506 Sc 0.87832 0.16461 0.41282 0.0
Sc507 Sc 0.86357 0.23411 0.43806 0.0
Sc508 Sc 0.80768 0.18643 0.42506 0.0
O509 O 0.84994 0.19496 0.42554 0.0
C510 C 0.82882 0.15464 0.36825 0.0
C511 C 0.90243 0.22159 0.38372 0.0
C512 C 0.80831 0.24878 0.40078 0.0
C513 C 0.91095 0.19273 0.46517 0.0
C514 C 0.83296 0.12939 0.45071 0.0
C515 C 0.81278 0.22632 0.48089 0.0
O516 O 0.85499 0.15426 0.3749 0.0
O517 O 0.88939 0.23825 0.40067 0.0
O518 O 0.79918 0.22335 0.40034 0.0
O519 O 0.90533 0.17171 0.44903 0.0
O520 O 0.81355 0.1483 0.44946 0.0
O521 O 0.83835 0.23384 0.47613 0.0
O522 O 0.85677 0.13169 0.43761 0.0
O523 O 0.89845 0.21672 0.46291 0.0
O524 O 0.79888 0.21021 0.46397 0.0
O525 O 0.90194 0.19453 0.38635 0.0
O526 O 0.80956 0.16361 0.3851 0.0
O527 O 0.82984 0.25667 0.41536 0.0
H528 H 0.12848 0.40525 0.27933 0.0
H529 H 0.26243 0.50764 0.25734 0.0
H530 H 0.15492 0.43518 0.19625 0.0
H531 H 0.23703 0.47154 0.33819 0.0
H532 H 0.22684 0.47779 0.23348 0.0
H533 H 0.17037 0.42718 0.30018 0.0
C534 C 0.143 0.41657 0.26538 0.0
C535 C 0.13787 0.41852 0.2359 0.0
C536 C 0.22942 0.47607 0.25638 0.0
C537 C 0.18649 0.44374 0.25994 0.0
C538 C 0.24996 0.4929 0.27003 0.0
C539 C 0.25252 0.49239 0.29992 0.0
C540 C 0.21136 0.45866 0.27276 0.0
C541 C 0.23561 0.47296 0.31517 0.0
C542 C 0.16715 0.42898 0.27737 0.0
C543 C 0.15784 0.43328 0.21908 0.0
N544 N 0.21556 0.4572 0.30148 0.0
N545 N 0.1812 0.44547 0.23136 0.0
H546 H 0.23117 0.48471 0.75597 0.0
H547 H 0.36307 0.5901 0.77716 0.0
H548 H 0.25564 0.52229 0.83646 0.0
H549 H 0.33848 0.55733 0.69456 0.0
H550 H 0.32136 0.56783 0.79805 0.0
H551 H 0.26654 0.51467 0.73189 0.0
C552 C 0.2434 0.49978 0.76852 0.0
C553 C 0.2406 0.50071 0.79839 0.0
C554 C 0.32495 0.56548 0.77533 0.0
C555 C 0.28152 0.5346 0.77098 0.0
C556 C 0.34899 0.5781 0.76333 0.0
C557 C 0.35461 0.57544 0.73398 0.0
C558 C 0.3062 0.54978 0.75806 0.0
C559 C 0.33518 0.55981 0.71729 0.0
C560 C 0.26381 0.51667 0.75475 0.0
C561 C 0.25722 0.52055 0.81347 0.0
N562 N 0.31192 0.54742 0.7296 0.0
N563 N 0.27714 0.53639 0.79966 0.0
H564 H 0.65543 0.06122 0.80226 0.0
H565 H 0.7698 0.99555 0.73324 0.0
H566 H 0.63019 0.08959 0.71834 0.0
H567 H 0.7244 0.01549 0.65563 0.0
H568 H 0.73668 0.02546 0.75977 0.0
H569 H 0.69666 0.03767 0.78118 0.0
C570 C 0.65861 0.06261 0.77941 0.0
C571 C 0.63909 0.07732 0.76212 0.0
C572 C 0.73376 0.02331 0.737 0.0
C573 C 0.68702 0.05101 0.73764 0.0
C574 C 0.7531 0.00653 0.72168 0.0
C575 C 0.74967 0.00248 0.69215 0.0
C576 C 0.71064 0.03601 0.72271 0.0
C577 C 0.72774 0.01754 0.6784 0.0
C578 C 0.6825 0.04938 0.76731 0.0
C579 C 0.64444 0.0784 0.73262 0.0
N580 N 0.70894 0.03329 0.69383 0.0
N581 N 0.66774 0.06538 0.72141 0.0
H582 H 0.86635 0.904 0.21762 0.0
H583 H 0.73374 0.0086 0.23828 0.0
H584 H 0.84029 0.93547 0.30031 0.0
H585 H 0.75956 0.97209 0.15768 0.0
H586 H 0.76898 0.97864 0.26246 0.0
H587 H 0.82503 0.92659 0.19641 0.0
C588 C 0.85202 0.91579 0.23141 0.0
C589 C 0.85711 0.91797 0.26089 0.0
C590 C 0.76659 0.97688 0.23954 0.0
C591 C 0.80915 0.94398 0.23641 0.0
C592 C 0.74626 0.99378 0.22571 0.0
C593 C 0.74386 0.99314 0.1958 0.0
C594 C 0.78462 0.95924 0.22334 0.0
C595 C 0.76083 0.9736 0.1807 0.0
C596 C 0.82821 0.92859 0.21921 0.0
C597 C 0.83741 0.93337 0.27749 0.0
N598 N 0.78066 0.95775 0.19458 0.0
N599 N 0.81436 0.94592 0.265 0.0
H600 H 0.25779 0.26238 0.50657 0.0
H601 H 0.27798 0.12696 0.40531 0.0
H602 H 0.33866 0.23405 0.47274 0.0
H603 H 0.19539 0.15509 0.43508 0.0
H604 H 0.2996 0.16841 0.42743 0.0
H605 H 0.23365 0.2269 0.47683 0.0
C606 C 0.27046 0.24926 0.49237 0.0
C607 C 0.3004 0.25102 0.49246 0.0
C608 C 0.27673 0.16564 0.42914 0.0
C609 C 0.27287 0.20998 0.45883 0.0
C610 C 0.2643 0.14177 0.41662 0.0
C611 C 0.23472 0.13725 0.41845 0.0
C612 C 0.25966 0.18533 0.44388 0.0
C613 C 0.21828 0.15753 0.43326 0.0
C614 C 0.25664 0.22879 0.4756 0.0
C615 C 0.3156 0.23329 0.47369 0.0
N616 N 0.23099 0.18063 0.44552 0.0
N617 N 0.30171 0.21333 0.45795 0.0
H618 H 0.21871 0.86484 0.90326 0.0
H619 H 0.23916 0.7325 0.00817 0.0
H620 H 0.3011 0.83959 0.93582 0.0
H621 H 0.15869 0.75813 0.97154 0.0
H622 H 0.26337 0.76773 0.97819 0.0
H623 H 0.19754 0.82333 0.92558 0.0
C624 C 0.23244 0.85065 0.91522 0.0
C625 C 0.26181 0.85602 0.91781 0.0
C626 C 0.24048 0.76529 0.9764 0.0
C627 C 0.2374 0.80785 0.94352 0.0
C628 C 0.22663 0.74496 0.99331 0.0
C629 C 0.19674 0.74252 0.99265 0.0
C630 C 0.22432 0.78328 0.95873 0.0
C631 C 0.1817 0.75943 0.97307 0.0
C632 C 0.22027 0.82673 0.92787 0.0
C633 C 0.27835 0.83648 0.9334 0.0
N634 N 0.19559 0.77926 0.9572 0.0
N635 N 0.26588 0.81333 0.94581 0.0
H636 H 0.75496 0.23346 0.48749 0.0
H637 H 0.77818 0.36336 0.59516 0.0
H638 H 0.83561 0.25502 0.52631 0.0
H639 H 0.6959 0.34156 0.55991 0.0
H640 H 0.79833 0.32102 0.57307 0.0
H641 H 0.73156 0.26884 0.51796 0.0
C642 C 0.76766 0.24503 0.50294 0.0
C643 C 0.79741 0.24147 0.50405 0.0
C644 C 0.77584 0.32538 0.57018 0.0
C645 C 0.77081 0.28244 0.53853 0.0
C646 C 0.76429 0.34975 0.58268 0.0
C647 C 0.73527 0.35634 0.57921 0.0
C648 C 0.75841 0.30732 0.55384 0.0
C649 C 0.71841 0.33752 0.56302 0.0
C650 C 0.7543 0.26547 0.52014 0.0
C651 C 0.81271 0.25725 0.52442 0.0
N652 N 0.73026 0.31397 0.55079 0.0
N653 N 0.79931 0.27726 0.54053 0.0
H654 H 0.80214 0.65426 0.05838 0.0
H655 H 0.65693 0.73753 0.02465 0.0
H656 H 0.71857 0.62863 0.08761 0.0
H657 H 0.73752 0.7598 0.98602 0.0
H658 H 0.68131 0.70231 0.05398 0.0
H659 H 0.78057 0.69644 0.03617 0.0
C660 C 0.77931 0.65738 0.06007 0.0
C661 C 0.76218 0.63762 0.07473 0.0
C662 C 0.69378 0.71512 0.03936 0.0
C663 C 0.7375 0.68607 0.0498 0.0
C664 C 0.67987 0.73544 0.02273 0.0
C665 C 0.6951 0.75145 0.00254 0.0
C666 C 0.72317 0.71053 0.0357 0.0
C667 C 0.72486 0.7479 0.00123 0.0
C668 C 0.76705 0.68155 0.04752 0.0
C669 C 0.73273 0.64301 0.07639 0.0
N670 N 0.73787 0.72749 0.01724 0.0
N671 N 0.72141 0.66661 0.06411 0.0
H672 H 0.40185 0.27756 0.13129 0.0
H673 H 0.5071 0.25693 0.26324 0.0
H674 H 0.43534 0.19531 0.15578 0.0
H675 H 0.47035 0.33742 0.2379 0.0
H676 H 0.47676 0.23272 0.22831 0.0
H677 H 0.42369 0.29856 0.17319 0.0
C678 C 0.41393 0.26383 0.1454 0.0
C679 C 0.41696 0.23456 0.13968 0.0
C680 C 0.47501 0.25562 0.23076 0.0
C681 C 0.44209 0.25877 0.18827 0.0
C682 C 0.49212 0.26946 0.25093 0.0
C683 C 0.49157 0.29936 0.25328 0.0
C684 C 0.45725 0.27179 0.21289 0.0
C685 C 0.4718 0.31441 0.23661 0.0
C686 C 0.42629 0.2759 0.16954 0.0
C687 C 0.43261 0.21799 0.15914 0.0
N688 N 0.45575 0.30052 0.21692 0.0
N689 N 0.44476 0.23036 0.1825 0.0
H690 H 0.90643 0.21438 0.86861 0.0
H691 H 0.00722 0.23476 0.73278 0.0
H692 H 0.93765 0.29673 0.84156 0.0
H693 H 0.9731 0.15389 0.76062 0.0
H694 H 0.97811 0.25879 0.76887 0.0
H695 H 0.92826 0.19284 0.8269 0.0
C696 C 0.918 0.22802 0.85399 0.0
C697 C 0.9203 0.25751 0.85887 0.0
C698 C 0.97668 0.23583 0.76675 0.0
C699 C 0.94538 0.23269 0.8105 0.0
C700 C 0.99308 0.22208 0.74593 0.0
C701 C 0.9929 0.19216 0.74382 0.0
C702 C 0.96 0.21956 0.78558 0.0
C703 C 0.97423 0.17694 0.76162 0.0
C704 C 0.93037 0.21564 0.82998 0.0
C705 C 0.93547 0.27391 0.83886 0.0
N706 N 0.95884 0.19076 0.78192 0.0
N707 N 0.94752 0.26126 0.81559 0.0
H708 H 0.4879 0.75824 0.23253 0.0
H709 H 0.58891 0.77765 0.36809 0.0
H710 H 0.52224 0.83885 0.26095 0.0
H711 H 0.55931 0.69522 0.33936 0.0
H712 H 0.56689 0.79949 0.32675 0.0
H713 H 0.51748 0.73387 0.26793 0.0
C714 C 0.50218 0.7708 0.24566 0.0
C715 C 0.50227 0.80074 0.24395 0.0
C716 C 0.56519 0.77661 0.32936 0.0
C717 C 0.53571 0.77296 0.2849 0.0
C718 C 0.57765 0.76405 0.35317 0.0
C719 C 0.57585 0.73445 0.35748 0.0
C720 C 0.55055 0.75963 0.30953 0.0
C721 C 0.56111 0.71811 0.33709 0.0
C722 C 0.51886 0.75685 0.26608 0.0
C723 C 0.52115 0.8158 0.26167 0.0
N724 N 0.54891 0.73094 0.31405 0.0
N725 N 0.53678 0.8018 0.28159 0.0
H726 H 0.05792 0.80216 0.65602 0.0
H727 H 0.0251 0.65804 0.74137 0.0
H728 H 0.08981 0.71882 0.63296 0.0
H729 H 0.98503 0.73841 0.76171 0.0
H730 H 0.05511 0.68232 0.70659 0.0
H731 H 0.03565 0.78112 0.69847 0.0
C732 C 0.06022 0.77949 0.65979 0.0
C733 C 0.07557 0.76224 0.64062 0.0
C734 C 0.04003 0.69478 0.7189 0.0
C735 C 0.05054 0.73817 0.68938 0.0
C736 C 0.02302 0.68093 0.73896 0.0
C737 C 0.00225 0.69612 0.75427 0.0
C738 C 0.03614 0.72405 0.71383 0.0
C739 C 0.00071 0.72581 0.75036 0.0
C740 C 0.04762 0.76753 0.68411 0.0
C741 C 0.078 0.73302 0.64683 0.0
N742 N 0.01708 0.73875 0.73016 0.0
N743 N 0.06562 0.72199 0.67055 0.0
H744 H 0.83831 0.56182 0.80053 0.0
H745 H 0.75818 0.52638 0.65393 0.0
H746 H 0.86626 0.58982 0.71726 0.0
H747 H 0.73183 0.49221 0.73533 0.0
H748 H 0.7935 0.55568 0.67833 0.0
H749 H 0.7961 0.5404 0.77829 0.0
C750 C 0.8357 0.5634 0.77762 0.0
C751 C 0.85611 0.57748 0.76078 0.0
C752 C 0.77974 0.54206 0.69094 0.0
C753 C 0.80763 0.55341 0.73529 0.0
C754 C 0.75936 0.52547 0.677 0.0
C755 C 0.74219 0.50647 0.6925 0.0
C756 C 0.7832 0.53956 0.72062 0.0
C757 C 0.74464 0.50643 0.72243 0.0
C758 C 0.8115 0.55131 0.76497 0.0
C759 C 0.85134 0.57904 0.7312 0.0
N760 N 0.76511 0.52234 0.73547 0.0
N761 N 0.82771 0.56716 0.71948 0.0
H762 H 0.62833 0.40452 0.21657 0.0
H763 H 0.76217 0.50748 0.23707 0.0
H764 H 0.65504 0.43557 0.29918 0.0
H765 H 0.73581 0.47158 0.15639 0.0
H766 H 0.72678 0.47768 0.26124 0.0
H767 H 0.66994 0.42655 0.19522 0.0
C768 C 0.64286 0.41609 0.23031 0.0
C769 C 0.63788 0.41833 0.2598 0.0
C770 C 0.72909 0.47601 0.2383 0.0
C771 C 0.68615 0.44366 0.23519 0.0
C772 C 0.74951 0.49282 0.22447 0.0
C773 C 0.75177 0.49234 0.19455 0.0
C774 C 0.71084 0.45864 0.22209 0.0
C775 C 0.73464 0.47298 0.17943 0.0
C776 C 0.66683 0.42856 0.21803 0.0
C777 C 0.65783 0.43343 0.27635 0.0
N778 N 0.71471 0.45722 0.19331 0.0
N779 N 0.68103 0.44566 0.26379 0.0
H780 H 0.36414 0.90427 0.27734 0.0
H781 H 0.23189 0.00885 0.25608 0.0
H782 H 0.3396 0.93682 0.1947 0.0
H783 H 0.25531 0.97004 0.33622 0.0
H784 H 0.26744 0.97916 0.23192 0.0
H785 H 0.32203 0.92594 0.29805 0.0
C786 C 0.34999 0.91612 0.26346 0.0
C787 C 0.35573 0.91889 0.23416 0.0
C788 C 0.26442 0.9768 0.25471 0.0
C789 C 0.30686 0.94382 0.25803 0.0
C790 C 0.2439 0.99354 0.26852 0.0
C791 C 0.24082 0.99222 0.29834 0.0
C792 C 0.28194 0.95866 0.27085 0.0
C793 C 0.25715 0.97209 0.31328 0.0
C794 C 0.32571 0.92837 0.27536 0.0
C795 C 0.33621 0.93428 0.21741 0.0
N796 N 0.2772 0.95643 0.29945 0.0
N797 N 0.31272 0.94633 0.22961 0.0
H798 H 0.23895 0.02417 0.83821 0.0
H799 H 0.1565 0.05817 0.6926 0.0
H800 H 0.26253 0.98678 0.75733 0.0
H801 H 0.13053 0.08744 0.77612 0.0
H802 H 0.1988 0.03629 0.71427 0.0
H803 H 0.20382 0.05358 0.81379 0.0
C804 C 0.23717 0.02256 0.81521 0.0
C805 C 0.25351 0.00269 0.79989 0.0
C806 C 0.18381 0.04759 0.72776 0.0
C807 C 0.21269 0.0359 0.77176 0.0
C808 C 0.15958 0.05995 0.71543 0.0
C809 C 0.13967 0.0745 0.73253 0.0
C810 C 0.18824 0.04994 0.75734 0.0
C811 C 0.14501 0.07629 0.762 0.0
C812 C 0.2169 0.03922 0.80127 0.0
C813 C 0.25036 0.00174 0.77005 0.0
N814 N 0.16867 0.06418 0.77338 0.0
N815 N 0.22998 0.01776 0.757 0.0
H816 H 0.80232 0.83854 0.55729 0.0
H817 H 0.65877 0.75157 0.52555 0.0
H818 H 0.71876 0.86109 0.58897 0.0
H819 H 0.73859 0.73301 0.48353 0.0
H820 H 0.68308 0.78655 0.55532 0.0
H821 H 0.78154 0.79597 0.53491 0.0
C822 C 0.77967 0.83464 0.55953 0.0
C823 C 0.76228 0.8537 0.57485 0.0
C824 C 0.69542 0.77459 0.53986 0.0
C825 C 0.73851 0.8048 0.54973 0.0
C826 C 0.68156 0.7544 0.52299 0.0
C827 C 0.69655 0.73952 0.50175 0.0
C828 C 0.72452 0.78022 0.53539 0.0
C829 C 0.72614 0.74401 0.49959 0.0
C830 C 0.76785 0.81026 0.54686 0.0
C831 C 0.73308 0.84732 0.57717 0.0
N832 N 0.73909 0.7643 0.51587 0.0
N833 N 0.7222 0.82354 0.56478 0.0
H834 H 0.83635 0.23947 0.02491 0.0
H835 H 0.69293 0.1519 0.05595 0.0
H836 H 0.75735 0.25577 0.98052 0.0
H837 H 0.77607 0.13033 0.08923 0.0
H838 H 0.71408 0.19354 0.0323 0.0
H839 H 0.81202 0.20411 0.05414 0.0
C840 C 0.81375 0.23599 0.02161 0.0
C841 C 0.79899 0.25046 -3e-05 0.0
C842 C 0.72759 0.17965 0.04484 0.0
C843 C 0.77101 0.20942 0.03314 0.0
C844 C 0.71558 0.15581 0.05825 0.0
C845 C 0.73273 0.13735 0.07447 0.0
C846 C 0.75691 0.18516 0.04785 0.0
C847 C 0.76193 0.14369 0.07681 0.0
C848 C 0.79988 0.21561 0.03821 0.0
C849 C 0.76963 0.24511 0.9969 0.0
N850 N 0.77301 0.16697 0.0637 0.0
N851 N 0.75667 0.22475 0.01304 0.0
H852 H 0.15391 0.73531 0.47228 0.0
H853 H 0.30057 0.65627 0.43473 0.0
H854 H 0.23514 0.7615 0.50682 0.0
H855 H 0.21727 0.62868 0.40663 0.0
H856 H 0.27834 0.69799 0.45723 0.0
H857 H 0.17837 0.70048 0.44245 0.0
C858 C 0.17697 0.73416 0.47318 0.0
C859 C 0.19242 0.75118 0.49237 0.0
C860 C 0.26502 0.68279 0.44605 0.0
C861 C 0.22063 0.71071 0.45865 0.0
C862 C 0.27767 0.65888 0.43333 0.0
C863 C 0.26081 0.63869 0.41892 0.0
C864 C 0.23533 0.6866 0.44423 0.0
C865 C 0.23123 0.64342 0.41764 0.0
C866 C 0.19095 0.71407 0.45627 0.0
C867 C 0.22232 0.7488 0.49241 0.0
N868 N 0.21953 0.66676 0.43012 0.0
N869 N 0.23543 0.7286 0.47616 0.0
H870 H 0.33889 0.25855 0.97096 0.0
H871 H 0.19244 0.33824 0.93446 0.0
H872 H 0.2578 0.23311 0.00643 0.0
H873 H 0.27572 0.36521 0.90563 0.0
H874 H 0.21457 0.29646 0.95683 0.0
H875 H 0.31438 0.29325 0.94112 0.0
C876 C 0.31585 0.25983 0.97206 0.0
C877 C 0.30046 0.24308 0.99152 0.0
C878 C 0.22791 0.31154 0.94552 0.0
C879 C 0.27221 0.28341 0.9578 0.0
C880 C 0.21532 0.33549 0.93288 0.0
C881 C 0.23221 0.35552 0.9183 0.0
C882 C 0.25755 0.30754 0.94345 0.0
C883 C 0.26175 0.35061 0.91678 0.0
C884 C 0.30185 0.27984 0.95514 0.0
C885 C 0.27057 0.2456 0.9918 0.0
N886 N 0.27339 0.32723 0.92919 0.0
N887 N 0.25745 0.26575 0.97556 0.0
H888 H 0.48746 0.73583 0.73229 0.0
H889 H 0.58802 0.71626 0.86815 0.0
H890 H 0.52121 0.65516 0.76102 0.0
H891 H 0.55981 0.79896 0.839 0.0
H892 H 0.5657 0.69448 0.82693 0.0
H893 H 0.51704 0.7602 0.76778 0.0
C894 C 0.50161 0.72325 0.7455 0.0
C895 C 0.50156 0.6933 0.74382 0.0
C896 C 0.56435 0.7174 0.82941 0.0
C897 C 0.53501 0.7211 0.78488 0.0
C898 C 0.57701 0.72995 0.85316 0.0
C899 C 0.5757 0.75961 0.85733 0.0
C900 C 0.54999 0.73445 0.80947 0.0
C901 C 0.56124 0.77602 0.83683 0.0
C902 C 0.51828 0.73721 0.76598 0.0
C903 C 0.52024 0.67822 0.76169 0.0
N904 N 0.54883 0.7632 0.81384 0.0
N905 N 0.53589 0.69224 0.78163 0.0
H906 H 0.98603 0.75542 0.26159 0.0
H907 H 0.09173 0.77666 0.12986 0.0
H908 H 0.0236 0.83588 0.23728 0.0
H909 H 0.05915 0.69408 0.15449 0.0
H910 H 0.06928 0.79754 0.17153 0.0
H911 H 0.01613 0.73138 0.22627 0.0
C912 C 0.00112 0.76797 0.24941 0.0
C913 C 0.00201 0.79782 0.25222 0.0
C914 C 0.06701 0.77483 0.16796 0.0
C915 C 0.03606 0.77045 0.21137 0.0
C916 C 0.07973 0.76283 0.14394 0.0
C917 C 0.07718 0.73349 0.13835 0.0
C918 C 0.05133 0.75756 0.1867 0.0
C919 C 0.06154 0.71681 0.15777 0.0
C920 C 0.0181 0.75423 0.22902 0.0
C921 C 0.02189 0.8129 0.23567 0.0
N922 N 0.04906 0.72911 0.18101 0.0
N923 N 0.03781 0.79912 0.21577 0.0
H924 H 0.47097 0.15746 0.73817 0.0
H925 H 0.43565 0.30238 0.65516 0.0
H926 H 0.50837 0.23847 0.76091 0.0
H927 H 0.40539 0.21884 0.6307 0.0
H928 H 0.45824 0.28105 0.69728 0.0
H929 H 0.44103 0.18162 0.7033 0.0
C930 C 0.47248 0.18044 0.73625 0.0
C931 C 0.49247 0.19588 0.75231 0.0
C932 C 0.44656 0.26748 0.68267 0.0
C933 C 0.45865 0.22371 0.71176 0.0
C934 C 0.43378 0.27962 0.65854 0.0
C935 C 0.41877 0.26241 0.63909 0.0
C936 C 0.44416 0.23798 0.68746 0.0
C937 C 0.4169 0.23304 0.64481 0.0
C938 C 0.45551 0.19423 0.71614 0.0
C939 C 0.4933 0.22567 0.74898 0.0
N940 N 0.42943 0.22185 0.66834 0.0
N941 N 0.47698 0.23858 0.72874 0.0
H942 H 0.90441 0.27799 0.36947 0.0
H943 H 0.00535 0.25779 0.23402 0.0
H944 H 0.93336 0.19529 0.34082 0.0
H945 H 0.97123 0.3386 0.2622 0.0
H946 H 0.97545 0.2336 0.26928 0.0
H947 H 0.92638 0.29958 0.32798 0.0
C948 C 0.91552 0.26428 0.35454 0.0
C949 C 0.91717 0.23468 0.35892 0.0
C950 C 0.97419 0.25658 0.2674 0.0
C951 C 0.94242 0.25958 0.31078 0.0
C952 C 0.99105 0.27044 0.24706 0.0
C953 C 0.99113 0.30038 0.24536 0.0
C954 C 0.95732 0.27279 0.28614 0.0
C955 C 0.9722 0.31554 0.26294 0.0
C956 C 0.92795 0.2767 0.33063 0.0
C957 C 0.9317 0.21819 0.33849 0.0
N958 N 0.95639 0.30163 0.28279 0.0
N959 N 0.9439 0.23089 0.31536 0.0
H960 H 0.16832 0.15384 0.28191 0.0
H961 H 0.07487 0.29116 0.30304 0.0
H962 H 0.12226 0.167 0.36068 0.0
H963 H 0.14649 0.28626 0.24554 0.0
H964 H 0.09204 0.24785 0.32712 0.0
H965 H 0.15909 0.20302 0.26881 0.0
C966 C 0.15598 0.16702 0.29637 0.0
C967 C 0.14576 0.15617 0.32229 0.0
C968 C 0.10444 0.25682 0.30981 0.0
C969 C 0.13536 0.21292 0.3075 0.0
C970 C 0.09485 0.28168 0.29633 0.0
C971 C 0.10925 0.29199 0.27222 0.0
C972 C 0.12828 0.24238 0.29872 0.0
C973 C 0.13472 0.27874 0.26396 0.0
C974 C 0.15105 0.19528 0.28905 0.0
C975 C 0.13037 0.17451 0.34039 0.0
N976 N 0.14313 0.25432 0.27683 0.0
N977 N 0.12533 0.202 0.33251 0.0
H978 H 0.32927 0.84358 0.7789 0.0
H979 H 0.41662 0.70213 0.80027 0.0
H980 H 0.37156 0.82687 0.85903 0.0
H981 H 0.34796 0.71134 0.73983 0.0
H982 H 0.40039 0.74578 0.82448 0.0
H983 H 0.33772 0.79458 0.76462 0.0
C984 C 0.34064 0.82967 0.79342 0.0
C985 C 0.34997 0.83947 0.8201 0.0
C986 C 0.38842 0.73772 0.80643 0.0
C987 C 0.35942 0.78289 0.80394 0.0
C988 C 0.39745 0.71268 0.79286 0.0
C989 C 0.38369 0.70345 0.76794 0.0
C990 C 0.36576 0.75341 0.79466 0.0
C991 C 0.35927 0.71802 0.75885 0.0
C992 C 0.34511 0.80151 0.7854 0.0
C993 C 0.36414 0.8202 0.83819 0.0
N994 N 0.3514 0.74257 0.77188 0.0
N995 N 0.3687 0.7928 0.82966 0.0
H996 H 0.67025 0.3442 0.71661 0.0
H997 H 0.57874 0.205 0.69523 0.0
H998 H 0.62574 0.32877 0.63741 0.0
H999 H 0.64716 0.21263 0.75617 0.0
H1000 H 0.5962 0.24822 0.6712 0.0
H1001 H 0.66088 0.29532 0.73084 0.0
C1002 C 0.65825 0.33059 0.70228 0.0
C1003 C 0.64853 0.34069 0.67588 0.0
C1004 C 0.60784 0.23991 0.68933 0.0
C1005 C 0.63796 0.28433 0.69197 0.0
C1006 C 0.5981 0.2151 0.70279 0.0
C1007 C 0.61146 0.20556 0.72777 0.0
C1008 C 0.6308 0.25506 0.70127 0.0
C1009 C 0.63616 0.21957 0.73707 0.0
C1010 C 0.65322 0.3025 0.71026 0.0
C1011 C 0.6335 0.32184 0.65802 0.0
N1012 N 0.64472 0.24391 0.72414 0.0
N1013 N 0.62841 0.29456 0.66651 0.0
H1014 H 0.87321 0.66559 0.13487 0.0
H1015 H 0.84641 0.78543 0.25294 0.0
H1016 H 0.82459 0.65465 0.2124 0.0
H1017 H 0.91793 0.78927 0.19522 0.0
H1018 H 0.82908 0.74319 0.22803 0.0
H1019 H 0.88276 0.71527 0.14876 0.0
C1020 C 0.86464 0.67358 0.1548 0.0
C1021 C 0.84841 0.65584 0.17272 0.0
C1022 C 0.84825 0.75357 0.22038 0.0
C1023 C 0.85847 0.71255 0.1881 0.0
C1024 C 0.85793 0.77785 0.23436 0.0
C1025 C 0.88368 0.79056 0.22617 0.0
C1026 C 0.86467 0.74171 0.19832 0.0
C1027 C 0.8979 0.78 0.20203 0.0
C1028 C 0.86997 0.70189 0.16258 0.0
C1029 C 0.83761 0.66734 0.19815 0.0
N1030 N 0.8885 0.75568 0.18921 0.0
N1031 N 0.84277 0.69493 0.20501 0.0
H1032 H 0.29886 0.07591 0.29028 0.0
H1033 H 0.27903 0.16761 0.1513 0.0
H1034 H 0.24018 0.14635 0.28336 0.0
H1035 H 0.35817 0.12306 0.16657 0.0
H1036 H 0.2647 0.15811 0.20013 0.0
H1037 H 0.32316 0.09267 0.24688 0.0
C1038 C 0.29187 0.09553 0.28029 0.0
C1039 C 0.26739 0.10969 0.29009 0.0
C1040 C 0.28528 0.15046 0.19292 0.0
C1041 C 0.29421 0.12826 0.24041 0.0
C1042 C 0.29332 0.15555 0.16485 0.0
C1043 C 0.31974 0.14588 0.15471 0.0
C1044 C 0.30353 0.1352 0.21107 0.0
C1045 C 0.33754 0.13078 0.17352 0.0
C1046 C 0.30549 0.10488 0.2554 0.0
C1047 C 0.25883 0.13471 0.27623 0.0
N1048 N 0.329 0.12563 0.20082 0.0
N1049 N 0.27189 0.1429 0.2518 0.0
H1050 H 0.25642 0.84804 0.78332 0.0
H1051 H 0.13518 0.87296 0.66649 0.0
H1052 H 0.19679 0.91772 0.78986 0.0
H1053 H 0.21401 0.82729 0.65275 0.0
H1054 H 0.15016 0.88268 0.71583 0.0
H1055 H 0.2316 0.83115 0.74086 0.0
C1056 C 0.23749 0.85925 0.77625 0.0
C1057 C 0.22869 0.88438 0.78983 0.0
C1058 C 0.16404 0.87053 0.7019 0.0
C1059 C 0.20086 0.86585 0.74076 0.0
C1060 C 0.15564 0.8651 0.67377 0.0
C1061 C 0.17354 0.84958 0.65536 0.0
C1062 C 0.19021 0.85984 0.7117 0.0
C1063 C 0.19969 0.83971 0.66597 0.0
C1064 C 0.22355 0.84983 0.75185 0.0
C1065 C 0.20409 0.89818 0.77992 0.0
N1066 N 0.20714 0.84492 0.69341 0.0
N1067 N 0.19125 0.88904 0.75551 0.0
H1068 H 0.76853 0.44046 0.72901 0.0
H1069 H 0.85745 0.32744 0.81726 0.0
H1070 H 0.7777 0.35494 0.69654 0.0
H1071 H 0.79291 0.38054 0.85583 0.0
H1072 H 0.84247 0.34446 0.76989 0.0
H1073 H 0.79341 0.4262 0.77271 0.0
C1074 C 0.77678 0.41893 0.73075 0.0
C1075 C 0.77152 0.39882 0.70929 0.0
C1076 C 0.83186 0.35246 0.78882 0.0
C1077 C 0.79945 0.38247 0.75893 0.0
C1078 C 0.84037 0.34292 0.81572 0.0
C1079 C 0.82626 0.35264 0.84032 0.0
C1080 C 0.80981 0.37247 0.78679 0.0
C1081 C 0.80415 0.37247 0.83731 0.0
C1082 C 0.79062 0.4108 0.75569 0.0
C1083 C 0.78185 0.37102 0.71261 0.0
N1084 N 0.79673 0.38195 0.81097 0.0
N1085 N 0.79537 0.36352 0.7372 0.0
H1086 H 0.75169 0.6479 0.20709 0.0
H1087 H 0.63343 0.6213 0.32681 0.0
H1088 H 0.6946 0.57596 0.20314 0.0
H1089 H 0.71164 0.66854 0.33832 0.0
H1090 H 0.64736 0.61173 0.27705 0.0
H1091 H 0.7267 0.665 0.24942 0.0
C1092 C 0.7332 0.63625 0.21465 0.0
C1093 C 0.72522 0.61045 0.20185 0.0
C1094 C 0.66131 0.62423 0.29058 0.0
C1095 C 0.69727 0.62922 0.25084 0.0
C1096 C 0.6535 0.62958 0.31892 0.0
C1097 C 0.67161 0.6454 0.33685 0.0
C1098 C 0.68704 0.63536 0.28007 0.0
C1099 C 0.69724 0.65584 0.32549 0.0
C1100 C 0.71919 0.64579 0.23899 0.0
C1101 C 0.70124 0.59604 0.21244 0.0
N1102 N 0.7041 0.6507 0.29787 0.0
N1103 N 0.68835 0.60533 0.23681 0.0
H1104 H 0.29028 0.30046 0.07837 0.0
H1105 H 0.15224 0.27952 0.17209 0.0
H1106 H 0.28287 0.23908 0.14639 0.0
H1107 H 0.16649 0.35782 0.12575 0.0
H1108 H 0.20103 0.26539 0.16235 0.0
H1109 H 0.24732 0.32461 0.0964 0.0
C1110 C 0.28026 0.29281 0.09774 0.0
C1111 C 0.28978 0.26769 0.11084 0.0
C1112 C 0.19363 0.28575 0.15435 0.0
C1113 C 0.24062 0.29436 0.13087 0.0
C1114 C 0.16557 0.29367 0.1596 0.0
C1115 C 0.15513 0.31976 0.14943 0.0
C1116 C 0.21146 0.30377 0.13842 0.0
C1117 C 0.17367 0.33743 0.13383 0.0
C1118 C 0.25561 0.30634 0.10782 0.0
C1119 C 0.27593 0.25827 0.13558 0.0
N1120 N 0.20094 0.32898 0.12852 0.0
N1121 N 0.25176 0.27132 0.1445 0.0
H1122 H 0.79079 0.1972 0.91985 0.0
H1123 H 0.65231 0.21635 0.82759 0.0
H1124 H 0.78538 0.253 0.84693 0.0
H1125 H 0.66684 0.13764 0.87312 0.0
H1126 H 0.70125 0.23034 0.83701 0.0
H1127 H 0.74697 0.17321 0.90392 0.0
C1128 C 0.781 0.20366 0.89994 0.0
C1129 C 0.79139 0.22731 0.88483 0.0
C1130 C 0.69384 0.20994 0.8449 0.0
C1131 C 0.74123 0.20078 0.86715 0.0
C1132 C 0.66572 0.20209 0.83986 0.0
C1133 C 0.65536 0.17588 0.84981 0.0
C1134 C 0.7118 0.19171 0.8604 0.0
C1135 C 0.67398 0.1581 0.86518 0.0
C1136 C 0.75588 0.19019 0.89105 0.0
C1137 C 0.77777 0.23509 0.85939 0.0
N1138 N 0.70132 0.16646 0.87027 0.0
N1139 N 0.75311 0.22223 0.85164 0.0
H1140 H 0.70885 0.74106 0.34645 0.0
H1141 H 0.82876 0.8588 0.37374 0.0
H1142 H 0.70531 0.7976 0.41898 0.0
H1143 H 0.83995 0.78108 0.32549 0.0
H1144 H 0.77915 0.84476 0.38355 0.0
H1145 H 0.75123 0.76597 0.32951 0.0
C1146 C 0.71655 0.75938 0.3583 0.0
C1147 C 0.70385 0.76722 0.38421 0.0
C1148 C 0.79257 0.83093 0.37079 0.0
C1149 C 0.75284 0.7951 0.36559 0.0
C1150 C 0.82084 0.8388 0.3653 0.0
C1151 C 0.83862 0.82088 0.34909 0.0
C1152 C 0.78201 0.80533 0.35942 0.0
C1153 C 0.82722 0.79534 0.33848 0.0
C1154 C 0.7409 0.77336 0.34884 0.0
C1155 C 0.71455 0.79104 0.39883 0.0
N1156 N 0.79967 0.78842 0.34375 0.0
N1157 N 0.73892 0.80389 0.38961 0.0
H1158 H 0.34327 0.71485 0.66643 0.0
H1159 H 0.20206 0.69413 0.57799 0.0
H1160 H 0.3262 0.63472 0.62421 0.0
H1161 H 0.21153 0.75496 0.64638 0.0
H1162 H 0.24558 0.66984 0.59441 0.0
H1163 H 0.29456 0.72957 0.6573 0.0
C1164 C 0.32935 0.7004 0.65495 0.0
C1165 C 0.33898 0.67358 0.64585 0.0
C1166 C 0.23761 0.68801 0.60627 0.0
C1167 C 0.28268 0.6903 0.63557 0.0
C1168 C 0.21263 0.70163 0.59713 0.0
C1169 C 0.20347 0.72664 0.61079 0.0
C1170 C 0.25332 0.69983 0.62893 0.0
C1171 C 0.21812 0.73584 0.63516 0.0
C1172 C 0.30134 0.7087 0.65007 0.0
C1173 C 0.31968 0.65565 0.63148 0.0
N1174 N 0.24258 0.72276 0.64313 0.0
N1175 N 0.29243 0.66443 0.62652 0.0
H1176 H 0.82445 0.84292 0.71438 0.0
H1177 H 0.91829 0.70479 0.696 0.0
H1178 H 0.87225 0.82845 0.63687 0.0
H1179 H 0.84774 0.71181 0.75464 0.0
H1180 H 0.90139 0.74794 0.67148 0.0
H1181 H 0.83399 0.79422 0.72884 0.0
C1182 C 0.83723 0.82957 0.70048 0.0
C1183 C 0.84783 0.83992 0.6745 0.0
C1184 C 0.88919 0.73952 0.6892 0.0
C1185 C 0.85858 0.78367 0.69085 0.0
C1186 C 0.89862 0.71476 0.70295 0.0
C1187 C 0.88446 0.70506 0.72745 0.0
C1188 C 0.8657 0.75446 0.70037 0.0
C1189 C 0.85937 0.71888 0.73595 0.0
C1190 C 0.84236 0.80156 0.70859 0.0
C1191 C 0.86382 0.82135 0.65717 0.0
N1192 N 0.85108 0.74316 0.72275 0.0
N1193 N 0.86897 0.79411 0.66579 0.0
H1194 H 0.62204 0.16579 0.13498 0.0
H1195 H 0.64712 0.28524 0.25384 0.0
H1196 H 0.66918 0.15444 0.2133 0.0
H1197 H 0.57648 0.28946 0.19517 0.0
H1198 H 0.66456 0.24288 0.2292 0.0
H1199 H 0.61218 0.21538 0.149 0.0
C1200 C 0.63022 0.17367 0.15511 0.0
C1201 C 0.64613 0.15584 0.17319 0.0
C1202 C 0.64555 0.25335 0.22129 0.0
C1203 C 0.63572 0.21245 0.18876 0.0
C1204 C 0.63582 0.2777 0.23512 0.0
C1205 C 0.61029 0.29058 0.22656 0.0
C1206 C 0.62941 0.2416 0.19899 0.0
C1207 C 0.59634 0.28006 0.20227 0.0
C1208 C 0.62471 0.20193 0.16297 0.0
C1209 C 0.65642 0.16719 0.1989 0.0
N1210 N 0.60579 0.25569 0.18957 0.0
N1211 N 0.65111 0.19474 0.20583 0.0
H1212 H 0.41758 0.7922 0.30108 0.0
H1213 H 0.32607 0.65315 0.28026 0.0
H1214 H 0.34773 0.78508 0.24173 0.0
H1215 H 0.37136 0.66793 0.35913 0.0
H1216 H 0.33509 0.70217 0.26642 0.0
H1217 H 0.40061 0.74886 0.32526 0.0
C1218 C 0.39802 0.7822 0.29393 0.0
C1219 C 0.3841 0.79191 0.26931 0.0
C1220 C 0.34301 0.69482 0.28684 0.0
C1221 C 0.3653 0.74227 0.29597 0.0
C1222 C 0.33819 0.66664 0.29459 0.0
C1223 C 0.34825 0.65629 0.32077 0.0
C1224 C 0.3584 0.71288 0.30512 0.0
C1225 C 0.36338 0.67503 0.33867 0.0
C1226 C 0.38855 0.75732 0.30747 0.0
C1227 C 0.35915 0.77802 0.26053 0.0
N1228 N 0.36827 0.70243 0.33038 0.0
N1229 N 0.35086 0.75361 0.27351 0.0
H1230 H 0.14764 0.20763 0.74095 0.0
H1231 H 0.12067 0.32673 0.8598 0.0
H1232 H 0.07682 0.2023 0.79939 0.0
H1233 H 0.16673 0.33911 0.78093 0.0
H1234 H 0.11152 0.277 0.84576 0.0
H1235 H 0.16418 0.2504 0.76551 0.0
C1236 C 0.13614 0.215 0.75963 0.0
C1237 C 0.1108 0.20167 0.76813 0.0
C1238 C 0.12365 0.29071 0.83167 0.0
C1239 C 0.12889 0.25113 0.7956 0.0
C1240 C 0.12874 0.31906 0.83954 0.0
C1241 C 0.14417 0.33721 0.82133 0.0
C1242 C 0.13461 0.28043 0.80575 0.0
C1243 C 0.15435 0.3261 0.79545 0.0
C1244 C 0.14534 0.23959 0.7734 0.0
C1245 C 0.09655 0.21202 0.79235 0.0
N1246 N 0.14947 0.29847 0.78853 0.0
N1247 N 0.10549 0.23661 0.805 0.0
H1248 H 0.7151 0.8253 0.84182 0.0
H1249 H 0.69245 0.91502 0.70155 0.0
H1250 H 0.63563 0.86925 0.82651 0.0
H1251 H 0.75472 0.848 0.71028 0.0
H1252 H 0.66859 0.89773 0.745 0.0
H1253 H 0.72906 0.83424 0.7928 0.0
C1254 C 0.70065 0.83711 0.82821 0.0
C1255 C 0.67427 0.84682 0.83843 0.0
C1256 C 0.68697 0.88633 0.73688 0.0
C1257 C 0.69008 0.85689 0.7818 0.0
C1258 C 0.70033 0.89596 0.71193 0.0
C1259 C 0.72559 0.88294 0.7026 0.0
C1260 C 0.6993 0.86382 0.75239 0.0
C1261 C 0.73535 0.85868 0.717 0.0
C1262 C 0.70849 0.84189 0.80002 0.0
C1263 C 0.65625 0.86154 0.81952 0.0
N1264 N 0.72249 0.85021 0.74144 0.0
N1265 N 0.66461 0.8664 0.79211 0.0
H1266 H 0.74234 0.14889 0.20784 0.0
H1267 H 0.85868 0.1223 0.32929 0.0
H1268 H 0.7998 0.07721 0.20482 0.0
H1269 H 0.78091 0.17056 0.33958 0.0
H1270 H 0.84533 0.11259 0.27947 0.0
H1271 H 0.7665 0.16609 0.25059 0.0
C1272 C 0.76076 0.13733 0.21569 0.0
C1273 C 0.76907 0.11157 0.20301 0.0
C1274 C 0.83132 0.12533 0.29273 0.0
C1275 C 0.79606 0.13045 0.25248 0.0
C1276 C 0.8388 0.13077 0.32113 0.0
C1277 C 0.82068 0.14695 0.33874 0.0
C1278 C 0.80588 0.13668 0.28183 0.0
C1279 C 0.79532 0.1576 0.32701 0.0
C1280 C 0.77428 0.14692 0.24028 0.0
C1281 C 0.79292 0.09727 0.21399 0.0
N1282 N 0.78876 0.15234 0.29932 0.0
N1283 N 0.80532 0.10661 0.23858 0.0
H1284 H 0.13549 0.62111 0.16566 0.0
H1285 H 0.25358 0.64759 0.2854 0.0
H1286 H 0.21412 0.66763 0.15391 0.0
H1287 H 0.1956 0.5764 0.28985 0.0
H1288 H 0.22917 0.66434 0.24267 0.0
H1289 H 0.1494 0.61153 0.21535 0.0
C1290 C 0.15567 0.62919 0.17346 0.0
C1291 C 0.17385 0.64489 0.1555 0.0
C1292 C 0.22135 0.64537 0.25329 0.0
C1293 C 0.18927 0.63483 0.21222 0.0
C1294 C 0.23503 0.63604 0.27785 0.0
C1295 C 0.22662 0.61055 0.29092 0.0
C1296 C 0.19932 0.62889 0.24151 0.0
C1297 C 0.20256 0.59625 0.28034 0.0
C1298 C 0.16347 0.62385 0.20178 0.0
C1299 C 0.19962 0.65506 0.16676 0.0
N1300 N 0.19 0.60533 0.25578 0.0
N1301 N 0.20647 0.64993 0.19437 0.0
H1302 H 0.23946 0.34585 0.78422 0.0
H1303 H 0.3589 0.37311 0.66593 0.0
H1304 H 0.29768 0.41678 0.78996 0.0
H1305 H 0.28058 0.32634 0.65313 0.0
H1306 H 0.34447 0.3823 0.71557 0.0
H1307 H 0.26436 0.32927 0.74164 0.0
C1308 C 0.25814 0.35739 0.77697 0.0
C1309 C 0.26647 0.38278 0.79034 0.0
C1310 C 0.33059 0.37002 0.70178 0.0
C1311 C 0.29435 0.36462 0.74113 0.0
C1312 C 0.33867 0.3649 0.67349 0.0
C1313 C 0.32074 0.34924 0.65525 0.0
C1314 C 0.30473 0.35887 0.71191 0.0
C1315 C 0.2949 0.33889 0.6662 0.0
C1316 C 0.27211 0.34815 0.7525 0.0
C1317 C 0.29074 0.39702 0.78019 0.0
N1318 N 0.28776 0.34381 0.69379 0.0
N1319 N 0.30359 0.38806 0.7557 0.0
H1320 H 0.82861 0.63445 0.87444 0.0
H1321 H 0.70746 0.7507 0.84689 0.0
H1322 H 0.8392 0.71246 0.82669 0.0
H1323 H 0.7046 0.69465 0.91969 0.0
H1324 H 0.75006 0.72609 0.82999 0.0
H1325 H 0.7788 0.6479 0.88407 0.0
C1326 C 0.82052 0.6544 0.86609 0.0
C1327 C 0.83818 0.67257 0.85006 0.0
C1328 C 0.7398 0.71872 0.84934 0.0
C1329 C 0.78134 0.68742 0.86016 0.0
C1330 C 0.71531 0.73249 0.85876 0.0
C1331 C 0.70276 0.72473 0.88475 0.0
C1332 C 0.75201 0.69726 0.86621 0.0
C1333 C 0.71371 0.70111 0.89946 0.0
C1334 C 0.79214 0.66192 0.87146 0.0
C1335 C 0.82657 0.69802 0.83954 0.0
N1336 N 0.73821 0.68847 0.89027 0.0
N1337 N 0.7989 0.7046 0.84469 0.0
H1338 H 0.21074 0.74015 0.14785 0.0
H1339 H 0.32891 0.86002 0.1225 0.0
H1340 H 0.20539 0.7992 0.07761 0.0
H1341 H 0.34137 0.78153 0.16901 0.0
H1342 H 0.2794 0.84561 0.11288 0.0
H1343 H 0.25308 0.76495 0.16503 0.0
C1344 C 0.21803 0.75897 0.13659 0.0
C1345 C 0.20484 0.76759 0.11122 0.0
C1346 C 0.29308 0.83169 0.12521 0.0
C1347 C 0.25378 0.79536 0.13005 0.0
C1348 C 0.3213 0.83976 0.13057 0.0
C1349 C 0.33941 0.82177 0.14627 0.0
C1350 C 0.2829 0.80577 0.13614 0.0
C1351 C 0.3284 0.7959 0.15643 0.0
C1352 C 0.24236 0.7729 0.14617 0.0
C1353 C 0.21503 0.79204 0.09733 0.0
N1354 N 0.30088 0.78876 0.15127 0.0
N1355 N 0.23939 0.80484 0.10663 0.0
H1356 H 0.29215 0.19416 0.57769 0.0
H1357 H 0.15167 0.21416 0.6675 0.0
H1358 H 0.28328 0.25437 0.64671 0.0
H1359 H 0.16806 0.13493 0.62334 0.0
H1360 H 0.20051 0.22871 0.65861 0.0
H1361 H 0.24883 0.16969 0.59434 0.0
C1362 C 0.28176 0.20146 0.59701 0.0
C1363 C 0.29099 0.22638 0.61077 0.0
C1364 C 0.19355 0.20806 0.6509 0.0
C1365 C 0.24137 0.19937 0.6292 0.0
C1366 C 0.16547 0.19989 0.65564 0.0
C1367 C 0.15563 0.17339 0.64589 0.0
C1368 C 0.21203 0.18987 0.6359 0.0
C1369 C 0.17476 0.15562 0.63109 0.0
C1370 C 0.25689 0.18775 0.60629 0.0
C1371 C 0.27661 0.23534 0.6354 0.0
N1372 N 0.20207 0.1643 0.62627 0.0
N1373 N 0.25223 0.22217 0.64352 0.0
H1374 H 0.65359 0.282 0.32448 0.0
H1375 H 0.78924 0.30016 0.42098 0.0
H1376 H 0.66624 0.35932 0.37302 0.0
H1377 H 0.78509 0.24377 0.34838 0.0
H1378 H 0.74647 0.3249 0.40344 0.0
H1379 H 0.70255 0.2684 0.33414 0.0
C1380 C 0.66661 0.29603 0.33744 0.0
C1381 C 0.65568 0.32167 0.34827 0.0
C1382 C 0.75548 0.30768 0.39093 0.0
C1383 C 0.71217 0.30632 0.35918 0.0
C1384 C 0.78003 0.29382 0.40075 0.0
C1385 C 0.79036 0.26982 0.38616 0.0
C1386 C 0.74139 0.29711 0.36665 0.0
C1387 C 0.7775 0.26206 0.36033 0.0
C1388 C 0.69476 0.28844 0.34263 0.0
C1389 C 0.67382 0.33925 0.36445 0.0
N1390 N 0.75338 0.27532 0.35168 0.0
N1391 N 0.70118 0.33109 0.36972 0.0
H1392 H 0.01351 0.28617 0.11965 0.0
H1393 H 0.94716 0.34747 0.97519 0.0
H1394 H 0.0326 0.36999 0.08654 0.0
H1395 H 0.92969 0.26294 0.00737 0.0
H1396 H 0.97966 0.35542 0.01488 0.0
H1397 H 0.98382 0.27696 0.0781 0.0
C1398 C 0.01152 0.30271 0.10366 0.0
C1399 C 0.02562 0.329 0.10676 0.0
C1400 C 0.96883 0.33508 0.01323 0.0
C1401 C 0.99144 0.3184 0.05886 0.0
C1402 C 0.95021 0.33046 0.99051 0.0
C1403 C 0.93546 0.30447 0.9879 0.0
C1404 C 0.9728 0.31364 0.03368 0.0
C1405 C 0.94052 0.2833 0.00845 0.0
C1406 C 0.99453 0.29735 0.07986 0.0
C1407 C 0.02217 0.34944 0.08516 0.0
N1408 N 0.95865 0.28841 0.03053 0.0
N1409 N 0.00538 0.34372 0.06217 0.0
H1410 H 0.56635 0.72999 0.50562 0.0
H1411 H 0.46152 0.62033 0.58481 0.0
H1412 H 0.54974 0.6446 0.47517 0.0
H1413 H 0.48185 0.70445 0.61653 0.0
H1414 H 0.4921 0.62932 0.54339 0.0
H1415 H 0.53351 0.72163 0.54519 0.0
C1416 C 0.55572 0.70954 0.50711 0.0
C1417 C 0.56097 0.68798 0.48697 0.0
C1418 C 0.4898 0.64579 0.55943 0.0
C1419 C 0.52332 0.67818 0.53245 0.0
C1420 C 0.47233 0.64067 0.5831 0.0
C1421 C 0.46907 0.6616 0.60433 0.0
C1422 C 0.50409 0.67204 0.55691 0.0
C1423 C 0.48368 0.68758 0.60086 0.0
C1424 C 0.53698 0.70474 0.52979 0.0
C1425 C 0.54648 0.66189 0.49015 0.0
N1426 N 0.50049 0.69201 0.57769 0.0
N1427 N 0.52842 0.65771 0.51246 0.0
H1428 H 0.42919 0.23346 0.99082 0.0
H1429 H 0.53381 0.12404 0.9111 0.0
H1430 H 0.44661 0.14824 0.02114 0.0
H1431 H 0.51294 0.20792 0.87925 0.0
H1432 H 0.50394 0.1333 0.95293 0.0
H1433 H 0.46222 0.22542 0.95131 0.0
C1434 C 0.44007 0.21314 0.98933 0.0
C1435 C 0.43493 0.19148 0.00934 0.0
C1436 C 0.50597 0.14967 0.93677 0.0
C1437 C 0.47271 0.18206 0.96397 0.0
C1438 C 0.52302 0.14439 0.91286 0.0
C1439 C 0.52588 0.16515 0.89148 0.0
C1440 C 0.4917 0.17592 0.93937 0.0
C1441 C 0.51136 0.19116 0.89504 0.0
C1442 C 0.45889 0.20853 0.96669 0.0
C1443 C 0.44973 0.16557 0.00621 0.0
N1444 N 0.49492 0.19576 0.91845 0.0
N1445 N 0.46783 0.16156 0.98392 0.0
H1446 H 0.04632 0.84733 0.5229 0.0
H1447 H 0.98052 0.78567 0.37812 0.0
H1448 H 0.06451 0.76307 0.49025 0.0
H1449 H 0.9615 0.86968 0.41094 0.0
H1450 H 0.01003 0.7766 0.4198 0.0
H1451 H 0.01374 0.85511 0.4832 0.0
C1452 C 0.04339 0.83034 0.50749 0.0
C1453 C 0.05839 0.80448 0.50996 0.0
C1454 C -0.00062 0.79701 0.41796 0.0
C1455 C 0.021 0.81347 0.46417 0.0
C1456 C 0.98249 0.80228 0.39407 0.0
C1457 C 0.96846 0.82859 0.39084 0.0
C1458 C 0.00244 0.81815 0.43892 0.0
C1459 C 0.97189 0.84913 0.41241 0.0
C1460 C 0.02474 0.83487 0.48477 0.0
C1461 C 0.05349 0.78333 0.4893 0.0
N1462 N 0.98858 0.84349 0.43548 0.0
N1463 N 0.03534 0.78835 0.46722 0.0
H1464 H 0.08428 0.03252 0.37323 0.0
H1465 H 0.0048 0.92852 0.26295 0.0
H1466 H 0.1145 0.01468 0.28793 0.0
H1467 H 0.97548 0.94371 0.34907 0.0
H1468 H 0.04385 0.96201 0.27107 0.0
H1469 H 0.04303 0.0018 0.36422 0.0
C1470 C 0.08226 0.02225 0.35261 0.0
C1471 C 0.10304 0.02619 0.33138 0.0
C1472 C 0.02881 0.95808 0.28816 0.0
C1473 C 0.05584 0.991 0.32092 0.0
C1474 C 0.00644 0.93897 0.28351 0.0
C1475 C 0.98679 0.93312 0.30535 0.0
C1476 C 0.03163 0.9715 0.31486 0.0
C1477 C 0.99011 0.9474 0.33157 0.0
C1478 C 0.05869 0.0047 0.34748 0.0
C1479 C 0.09918 0.01228 0.30505 0.0
N1480 N 0.01211 0.96581 0.3356 0.0
N1481 N 0.07614 0.99533 0.30062 0.0
H1482 H 0.4908 0.06666 0.76302 0.0
H1483 H 0.41156 0.96198 0.87276 0.0
H1484 H 0.52065 0.05053 0.84871 0.0
H1485 H 0.38019 0.98182 0.78841 0.0
H1486 H 0.453 0.99245 0.86369 0.0
H1487 H 0.45153 0.03342 0.77116 0.0
C1488 C 0.48925 0.05604 0.78348 0.0
C1489 C 0.50909 0.06157 0.80521 0.0
C1490 C 0.43703 0.99005 0.84718 0.0
C1491 C 0.46399 0.0235 0.81475 0.0
C1492 C 0.41335 0.97265 0.85235 0.0
C1493 C 0.39221 0.96933 0.8314 0.0
C1494 C 0.43963 0.0042 0.82086 0.0
C1495 C 0.39579 0.98374 0.80532 0.0
C1496 C 0.46675 0.03708 0.78815 0.0
C1497 C 0.50587 0.04709 0.83131 0.0
N1498 N 0.41895 0.00051 0.80084 0.0
N1499 N 0.48374 0.02883 0.83536 0.0
H1500 H 0.5849 0.46156 0.62262 0.0
H1501 H 0.50304 0.56389 0.73281 0.0
H1502 H 0.61558 0.48161 0.70722 0.0
H1503 H 0.47395 0.54777 0.64682 0.0
H1504 H 0.54289 0.53136 0.72465 0.0
H1505 H 0.54276 0.49099 0.63179 0.0
C1506 C 0.58281 0.47206 0.64312 0.0
C1507 C 0.60397 0.4691 0.66411 0.0
C1508 C 0.52771 0.53486 0.7076 0.0
C1509 C 0.5557 0.5028 0.67476 0.0
C1510 C 0.50486 0.5534 0.71228 0.0
C1511 C 0.48507 0.55875 0.69047 0.0
C1512 C 0.53088 0.52152 0.68091 0.0
C1513 C 0.48867 0.54445 0.66429 0.0
C1514 C 0.55872 0.48887 0.64834 0.0
C1515 C 0.59998 0.48327 0.69028 0.0
N1516 N 0.51115 0.52661 0.66023 0.0
N1517 N 0.57641 0.49947 0.69482 0.0
H1518 H 0.02107 0.44549 0.14748 0.0
H1519 H 0.87764 0.51457 0.20857 0.0
H1520 H 0.98855 0.42956 0.23227 0.0
H1521 H 0.91038 0.53177 0.12411 0.0
H1522 H 0.91886 0.48455 0.21793 0.0
H1523 H 0.98175 0.47839 0.13914 0.0
C1524 C 0.00577 0.44897 0.16445 0.0
C1525 C 0.00817 0.43454 0.19064 0.0
C1526 C 0.91711 0.49492 0.19736 0.0
C1527 C 0.96285 0.47229 0.18105 0.0
C1528 C 0.89349 0.5121 0.19193 0.0
C1529 C 0.89037 0.52576 0.16541 0.0
C1530 C 0.93791 0.49118 0.17616 0.0
C1531 C 0.91179 0.52169 0.14483 0.0
C1532 C 0.98327 0.4678 0.15961 0.0
C1533 C 0.98764 0.44011 0.21175 0.0
N1534 N 0.9346 0.50471 0.15063 0.0
N1535 N 0.9658 0.45844 0.20644 0.0
H1536 H 0.37352 0.0852 0.0326 0.0
H1537 H 0.26377 0.00426 0.92923 0.0
H1538 H 0.28913 0.11614 0.01241 0.0
H1539 H 0.34953 0.97477 0.94546 0.0
H1540 H 0.27195 0.044 0.96192 0.0
H1541 H 0.36456 0.04336 0.00261 0.0
C1542 C 0.35313 0.08324 0.02193 0.0
C1543 C 0.33212 0.10436 0.02505 0.0
C1544 C 0.28894 0.02876 0.95841 0.0
C1545 C 0.32169 0.05646 0.99075 0.0
C1546 C 0.28425 0.00598 0.93978 0.0
C1547 C 0.306 0.9861 0.93443 0.0
C1548 C 0.31558 0.03178 0.97184 0.0
C1549 C 0.33212 0.98956 0.94879 0.0
C1550 C 0.34802 0.05933 0.00481 0.0
C1551 C 0.30607 0.10056 0.01066 0.0
N1552 N 0.33619 0.01198 0.96672 0.0
N1553 N 0.30164 0.07716 0.99418 0.0
H1554 H 0.78931 0.37557 0.9823 0.0
H1555 H 0.84957 0.52073 0.04823 0.0
H1556 H 0.87227 0.40979 0.96134 0.0
H1557 H 0.76538 0.48758 0.06566 0.0
H1558 H 0.8579 0.48114 0.01552 0.0
H1559 H 0.78016 0.41696 0.01211 0.0
C1560 C 0.8057 0.39178 0.98391 0.0
C1561 C 0.83173 0.38901 0.96923 0.0
C1562 C 0.83756 0.48258 0.02639 0.0
C1563 C 0.82117 0.43682 0.00363 0.0
C1564 C 0.83272 0.50523 0.04512 0.0
C1565 C 0.8067 0.50753 0.05991 0.0
C1566 C 0.81631 0.46192 0.02239 0.0
C1567 C 0.78576 0.48675 0.05481 0.0
C1568 C 0.80036 0.41551 0.00098 0.0
C1569 C 0.85193 0.41092 0.97222 0.0
N1570 N 0.79108 0.46478 0.0366 0.0
N1571 N 0.84626 0.43386 0.98915 0.0
H1572 H 0.62185 0.58336 0.46031 0.0
H1573 H 0.73315 0.50204 0.56139 0.0
H1574 H 0.70755 0.61279 0.47704 0.0
H1575 H 0.64609 0.47454 0.54898 0.0
H1576 H 0.72505 0.54082 0.52764 0.0
H1577 H 0.63113 0.54159 0.49018 0.0
C1578 C 0.64261 0.58106 0.47016 0.0
C1579 C 0.66387 0.60179 0.4662 0.0
C1580 C 0.70775 0.52621 0.5322 0.0
C1581 C 0.67464 0.55397 0.50039 0.0
C1582 C 0.71239 0.50398 0.55145 0.0
C1583 C 0.69025 0.485 0.55824 0.0
C1584 C 0.68077 0.52957 0.5196 0.0
C1585 C 0.6638 0.48868 0.54457 0.0
C1586 C 0.6479 0.55719 0.48722 0.0
C1587 C 0.6904 0.59754 0.47952 0.0
N1588 N 0.65978 0.51058 0.52604 0.0
N1589 N 0.69497 0.57421 0.49601 0.0
H1590 H 0.12112 0.90991 0.53287 0.0
H1591 H 0.23111 0.98876 0.42818 0.0
H1592 H 0.2051 0.87785 0.51253 0.0
H1593 H 0.14603 0.01963 0.44555 0.0
H1594 H 0.22267 0.94917 0.46095 0.0
H1595 H 0.13041 0.95132 0.50252 0.0
C1596 C 0.14149 0.91153 0.5221 0.0
C1597 C 0.16229 0.89023 0.52529 0.0
C1598 C 0.20588 0.96468 0.45766 0.0
C1599 C 0.17309 0.93766 0.49054 0.0
C1600 C 0.21073 0.98737 0.43898 0.0
C1601 C 0.18925 0.0076 0.43395 0.0
C1602 C 0.17937 0.96213 0.47146 0.0
C1603 C 0.16324 0.00456 0.44862 0.0
C1604 C 0.14679 0.93521 0.50477 0.0
C1605 C 0.18833 0.8936 0.51074 0.0
N1606 N 0.15902 0.98224 0.4666 0.0
N1607 N 0.19294 0.91679 0.49404 0.0
H1608 H 0.96195 0.62227 0.91067 0.0
H1609 H 0.06641 0.73228 0.98986 0.0
H1610 H 0.98002 0.70727 0.88008 0.0
H1611 H 0.0502 0.64664 0.01967 0.0
H1612 H 0.03294 0.72422 0.95071 0.0
H1613 H 0.99261 0.63141 0.95191 0.0
C1614 C 0.97227 0.64284 0.9126 0.0
C1615 C 0.96839 0.66395 0.89173 0.0
C1616 C 0.03665 0.70723 0.9659 0.0
C1617 C 0.00353 0.67457 0.93894 0.0
C1618 C 0.05573 0.71185 0.98832 0.0
C1619 C 0.0613 0.69011 0.00812 0.0
C1620 C 0.02299 0.68067 0.96319 0.0
C1621 C 0.04675 0.66405 0.00493 0.0
C1622 C 0.98979 0.64806 0.93617 0.0
C1623 C 0.98236 0.69024 0.89548 0.0
N1624 N 0.02838 0.66005 0.98288 0.0
N1625 N -0.00071 0.69475 0.91854 0.0
H1626 H 0.5328 0.37316 0.41016 0.0
H1627 H 0.42992 0.26251 0.49042 0.0
H1628 H 0.51444 0.2882 0.37946 0.0
H1629 H 0.44544 0.34843 0.51998 0.0
H1630 H 0.46303 0.27077 0.45101 0.0
H1631 H 0.50271 0.36386 0.45184 0.0
C1632 C 0.52253 0.35256 0.41215 0.0
C1633 C 0.52615 0.33151 0.39113 0.0
C1634 C 0.45926 0.28778 0.4662 0.0
C1635 C 0.49171 0.3207 0.43883 0.0
C1636 C 0.44039 0.28304 0.48878 0.0
C1637 C 0.43471 0.30481 0.50857 0.0
C1638 C 0.4726 0.31448 0.46332 0.0
C1639 C 0.44899 0.331 0.50524 0.0
C1640 C 0.50535 0.34726 0.43597 0.0
C1641 C 0.51227 0.30519 0.39497 0.0
N1642 N 0.46715 0.33511 0.48303 0.0
N1643 N 0.49569 0.30058 0.41826 0.0
H1644 H 0.54969 0.84964 0.97411 0.0
H1645 H 0.48142 0.78807 0.11776 0.0
H1646 H 0.56557 0.76475 0.00613 0.0
H1647 H 0.46321 0.87235 0.08535 0.0
H1648 H 0.5115 0.77912 0.07646 0.0
H1649 H 0.51706 0.85798 0.01379 0.0
C1650 C 0.54625 0.83265 0.98937 0.0
C1651 C 0.56057 0.80642 0.98671 0.0
C1652 C 0.50091 0.79957 0.0783 0.0
C1653 C 0.52316 0.81602 0.03243 0.0
C1654 C 0.48369 0.80478 0.10197 0.0
C1655 C 0.46969 0.83111 0.1052 0.0
C1656 C 0.50436 0.8208 0.05752 0.0
C1657 C 0.47354 0.85176 0.08385 0.0
C1658 C 0.52759 0.83749 0.01207 0.0
C1659 C 0.55509 0.7853 0.00722 0.0
N1660 N 0.49056 0.84618 0.06096 0.0
N1661 N 0.53694 0.79061 0.02923 0.0
H1662 H 0.92755 0.23074 0.50666 0.0
H1663 H 0.0326 0.12064 0.58458 0.0
H1664 H 0.94295 0.14504 0.47641 0.0
H1665 H 0.0132 0.20495 0.61642 0.0
H1666 H 0.00166 0.12977 0.54352 0.0
H1667 H 0.96095 0.22234 0.54568 0.0
C1668 C 0.93803 0.21021 0.50809 0.0
C1669 C 0.93228 0.18857 0.48818 0.0
C1670 C 0.00425 0.14626 0.55951 0.0
C1671 C 0.97057 0.17874 0.533 0.0
C1672 C 0.02193 0.14106 0.58296 0.0
C1673 C 0.02552 0.16199 0.60412 0.0
C1674 C 0.9901 0.17258 0.55715 0.0
C1675 C 0.01109 0.18807 0.60079 0.0
C1676 C 0.95709 0.2054 0.53045 0.0
C1677 C 0.94658 0.16238 0.49124 0.0
N1678 N 0.99405 0.19257 0.57783 0.0
N1679 N 0.96497 0.15819 0.51324 0.0
H1680 H 0.8764 0.98216 0.70556 0.0
H1681 H 0.02216 0.0467 0.64512 0.0
H1682 H 0.90971 0.96221 0.62189 0.0
H1683 H 0.98948 0.06404 0.72959 0.0
H1684 H 0.98205 0.01473 0.63666 0.0
H1685 H 0.91814 0.01146 0.71476 0.0
C1686 C 0.89247 0.9839 0.68903 0.0
C1687 C 0.88937 0.96961 0.66281 0.0
C1688 C 0.98371 0.02542 0.65709 0.0
C1689 C 0.93758 0.00338 0.67342 0.0
C1690 C 0.00668 0.0437 0.66201 0.0
C1691 C 0.00926 0.05827 0.68814 0.0
C1692 C 0.96301 0.02164 0.67838 0.0
C1693 C 0.98846 0.05335 0.70913 0.0
C1694 C 0.9164 0.00067 0.6944 0.0
C1695 C 0.91108 0.97279 0.64239 0.0
N1696 N 0.96617 0.03557 0.70373 0.0
N1697 N 0.93423 0.98937 0.64811 0.0
H1698 H 0.61782 0.0136 0.20892 0.0
H1699 H 0.47289 0.94784 0.14789 0.0
H1700 H 0.5844 0.03296 0.12524 0.0
H1701 H 0.506 0.92923 0.23185 0.0
H1702 H 0.51248 0.9805 0.14002 0.0
H1703 H 0.57627 0.98392 0.21816 0.0
C1704 C 0.60176 0.01167 0.19242 0.0
C1705 C 0.60477 0.02583 0.16616 0.0
C1706 C 0.51104 0.96938 0.16022 0.0
C1707 C 0.55688 0.99168 0.17678 0.0
C1708 C 0.48838 0.95069 0.16479 0.0
C1709 C 0.48608 0.93555 0.19058 0.0
C1710 C 0.53173 0.97304 0.18152 0.0
C1711 C 0.50684 0.94034 0.21163 0.0
C1712 C 0.57796 0.99469 0.19779 0.0
C1713 C 0.58309 0.02246 0.14576 0.0
N1714 N 0.52885 0.95855 0.20657 0.0
N1715 N 0.56012 0.00568 0.15149 0.0
H1716 H 0.48956 0.42912 0.26242 0.0
H1717 H 0.41045 0.53378 0.37241 0.0
H1718 H 0.51986 0.44587 0.34787 0.0
H1719 H 0.37913 0.51425 0.28792 0.0
H1720 H 0.4519 0.50342 0.36319 0.0
H1721 H 0.45026 0.46231 0.27064 0.0
C1722 C 0.4881 0.43986 0.28284 0.0
C1723 C 0.50808 0.43453 0.30448 0.0
C1724 C 0.43595 0.50586 0.34668 0.0
C1725 C 0.46295 0.47253 0.31411 0.0
C1726 C 0.41226 0.52321 0.35193 0.0
C1727 C 0.39112 0.52658 0.33099 0.0
C1728 C 0.43857 0.4918 0.32028 0.0
C1729 C 0.39473 0.51229 0.30482 0.0
C1730 C 0.46558 0.45879 0.28756 0.0
C1731 C 0.50497 0.44916 0.33053 0.0
N1732 N 0.41791 0.49555 0.30027 0.0
N1733 N 0.48282 0.46738 0.33463 0.0
H1734 H 0.08309 0.46065 0.87196 0.0
H1735 H 0.00429 0.56582 0.7626 0.0
H1736 H 0.11407 0.47942 0.78718 0.0
H1737 H 0.97439 0.54928 0.84824 0.0
H1738 H 0.04337 0.53228 0.77044 0.0
H1739 H 0.0419 0.49136 0.86299 0.0
C1740 C 0.08125 0.47113 0.85146 0.0
C1741 C 0.10222 0.46744 0.83036 0.0
C1742 C 0.02818 0.53592 0.78748 0.0
C1743 C 0.05506 0.50265 0.81994 0.0
C1744 C 0.0058 0.55505 0.78298 0.0
C1745 C 0.98599 0.56054 0.80479 0.0
C1746 C 0.03085 0.52215 0.81398 0.0
C1747 C 0.98914 0.54587 0.83078 0.0
C1748 C 0.05771 0.48868 0.84635 0.0
C1749 C 0.09859 0.48163 0.80418 0.0
N1750 N 0.01116 0.52747 0.83466 0.0
N1751 N 0.07555 0.49859 0.79976 0.0
H1752 H 0.70846 0.87733 0.98017 0.0
H1753 H 0.64591 0.01985 0.0499 0.0
H1754 H 0.62407 0.90966 0.96233 0.0
H1755 H 0.73091 0.98822 0.06603 0.0
H1756 H 0.63807 0.98057 0.0168 0.0
H1757 H 0.7173 0.91841 0.01063 0.0
C1758 C 0.69172 0.89306 0.98258 0.0
C1759 C 0.66537 0.88985 0.96861 0.0
C1760 C 0.65847 0.98225 0.02747 0.0
C1761 C 0.67554 0.93724 0.00374 0.0
C1762 C 0.66304 0.00474 0.04644 0.0
C1763 C 0.68915 0.00741 0.06096 0.0
C1764 C 0.68011 0.9621 0.02291 0.0
C1765 C 0.71045 0.9871 0.0554 0.0
C1766 C 0.69686 0.9166 3e-05 0.0
C1767 C 0.64467 0.91114 0.97263 0.0
N1768 N 0.70541 0.96526 0.03692 0.0
N1769 N 0.65017 0.93387 0.98988 0.0
H1770 H 0.14461 0.47314 0.94533 0.0
H1771 H 0.20802 0.61633 0.01288 0.0
H1772 H 0.22943 0.50466 0.92794 0.0
H1773 H 0.12364 0.58445 0.03175 0.0
H1774 H 0.21644 0.57498 0.98265 0.0
H1775 H 0.13705 0.51283 0.97807 0.0
C1776 C 0.16175 0.4883 0.94845 0.0
C1777 C 0.18773 0.48549 0.93368 0.0
C1778 C 0.19609 0.57696 0.99342 0.0
C1779 C 0.17903 0.53125 0.97125 0.0
C1780 C 0.19119 0.60065 0.01073 0.0
C1781 C 0.16499 0.60404 0.02495 0.0
C1782 C 0.17466 0.55635 0.99013 0.0
C1783 C 0.14415 0.58283 0.02125 0.0
C1784 C 0.15736 0.51102 0.96719 0.0
C1785 C 0.20907 0.50588 0.93878 0.0
N1786 N 0.14942 0.55994 0.00416 0.0
N1787 N 0.20419 0.52792 0.95703 0.0
H1788 H 0.28736 0.37728 0.51249 0.0
H1789 H 0.34879 0.52182 0.44625 0.0
H1790 H 0.37107 0.41044 0.53205 0.0
H1791 H 0.26445 0.48921 0.42861 0.0
H1792 H 0.35683 0.48209 0.47873 0.0
H1793 H 0.27843 0.41866 0.48258 0.0
C1794 C 0.30394 0.39324 0.51055 0.0
C1795 C 0.3301 0.39021 0.52488 0.0
C1796 C 0.33652 0.48367 0.46786 0.0
C1797 C 0.31983 0.43796 0.49042 0.0
C1798 C 0.33185 0.50642 0.44928 0.0
C1799 C 0.30587 0.50892 0.43449 0.0
C1800 C 0.31514 0.46312 0.47175 0.0
C1801 C 0.2848 0.48824 0.43946 0.0
C1802 C 0.29875 0.41696 0.49343 0.0
C1803 C 0.35061 0.41178 0.52145 0.0
N1804 N 0.28995 0.46617 0.45756 0.0
N1805 N 0.34506 0.4347 0.50454 0.0
H1806 H 0.78414 0.11605 0.47994 0.0
H1807 H 0.84626 0.97188 0.54621 0.0
H1808 H 0.86857 0.08393 0.46169 0.0
H1809 H 0.76193 0.00426 0.56446 0.0
H1810 H 0.85391 0.01147 0.51349 0.0
H1811 H 0.77506 0.07429 0.50936 0.0
C1812 C 0.80083 0.10023 0.48205 0.0
C1813 C 0.82727 0.10369 0.4683 0.0
C1814 C 0.83368 0.00987 0.52454 0.0
C1815 C 0.81684 0.05556 0.50216 0.0
C1816 C 0.82923 0.98721 0.54327 0.0
C1817 C 0.8034 0.98471 0.55833 0.0
C1818 C 0.81222 0.03036 0.52078 0.0
C1819 C 0.78219 0.00527 0.55342 0.0
C1820 C 0.79556 0.07631 0.49889 0.0
C1821 C 0.84791 0.08229 0.47188 0.0
N1822 N 0.78713 0.02728 0.53518 0.0
N1823 N 0.84228 0.05919 0.48851 0.0
loop_
_geom_bond_atom_site_label_1
_geom_bond_atom_site_label_2
_geom_bond_distance
_geom_bond_site_symmetry_2
_ccdc_geom_bond_type
Sc0 O3 2.025 . S
Sc0 O10 2.105 . S
Sc0 O13 2.105 . S
Sc0 O16 2.105 . S
Sc0 O19 2.105 . S
Sc1 O3 2.025 . S
Sc1 O11 2.105 . S
Sc1 O15 2.105 . S
Sc1 O17 2.105 . S
Sc1 O21 2.105 . S
Sc2 O3 2.025 . S
Sc2 O12 2.087 1_455 S
Sc2 O14 2.105 . S
Sc2 O18 2.105 . S
Sc2 O20 2.105 . S
O3 Sc0 2.025 . S
O3 Sc1 2.025 . S
O3 Sc2 2.025 . S
C4 O10 1.268 1_655 S
C4 O20 1.268 1_655 S
C5 O11 1.268 . S
C5 O19 1.268 . S
C6 O12 1.277 . S
C6 O21 1.268 1_655 S
C7 O13 1.268 . S
C7 O17 1.268 . S
C8 O14 1.268 . S
C8 O16 1.268 . S
C9 O15 1.268 . S
C9 O18 1.268 . S
O10 Sc0 2.105 . S
O10 C4 1.268 1_455 S
O11 Sc1 2.105 . S
O11 C5 1.268 . S
O12 Sc2 2.087 1_655 S
O12 C6 1.277 . S
O13 Sc0 2.105 . S
O13 C7 1.268 . S
O14 Sc2 2.105 . S
O14 C8 1.268 . S
O15 Sc1 2.105 . S
O15 C9 1.268 . S
O16 Sc0 2.105 . S
O16 C8 1.268 . S
O17 Sc1 2.105 . S
O17 C7 1.268 . S
O18 Sc2 2.105 . S
O18 C9 1.268 . S
O19 Sc0 2.105 . S
O19 C5 1.268 . S
O20 Sc2 2.105 . S
O20 C4 1.268 1_455 S
O21 Sc1 2.105 . S
O21 C6 1.268 1_455 S
Sc22 O25 2.025 . S
Sc22 O32 2.105 . S
Sc22 O35 2.105 . S
Sc22 O38 2.105 . S
Sc22 O41 2.105 . S
Sc23 O25 2.025 . S
Sc23 O33 2.105 . S
Sc23 O37 2.105 . S
Sc23 O39 2.105 . S
Sc23 O43 2.105 . S
Sc24 O25 2.025 . S
Sc24 O34 2.105 . S
Sc24 O36 2.105 . S
Sc24 O40 2.105 . S
Sc24 O42 2.105 . S
O25 Sc22 2.025 . S
O25 Sc23 2.025 . S
O25 Sc24 2.025 . S
C26 O32 1.268 . S
C26 O42 1.268 . S
C27 O33 1.268 . S
C27 O41 1.268 . S
C28 O34 1.268 . S
C28 O43 1.268 . S
C29 O35 1.268 . S
C29 O39 1.268 . S
C30 O36 1.268 . S
C30 O38 1.268 . S
C31 O37 1.268 . S
C31 O40 1.268 . S
O32 Sc22 2.105 . S
O32 C26 1.268 . S
O33 Sc23 2.105 . S
O33 C27 1.268 . S
O34 Sc24 2.105 . S
O34 C28 1.268 . S
O35 Sc22 2.105 . S
O35 C29 1.268 . S
O36 Sc24 2.105 . S
O36 C30 1.268 . S
O37 Sc23 2.105 . S
O37 C31 1.268 . S
O38 Sc22 2.105 . S
O38 C30 1.268 . S
O39 Sc23 2.105 . S
O39 C29 1.268 . S
O40 Sc24 2.105 . S
O40 C31 1.268 . S
O41 Sc22 2.105 . S
O41 C27 1.268 . S
O42 Sc24 2.105 . S
O42 C26 1.268 . S
O43 Sc23 2.105 . S
O43 C28 1.268 . S
Sc44 O47 2.025 . S
Sc44 O54 2.105 . S
Sc44 O57 2.105 . S
Sc44 O60 2.105 . S
Sc44 O63 2.105 . S
Sc45 O47 2.025 . S
Sc45 O55 2.105 . S
Sc45 O59 2.105 . S
Sc45 O61 2.105 . S
Sc45 O65 2.105 . S
Sc46 O47 2.025 . S
Sc46 O56 2.105 . S
Sc46 O58 2.105 . S
Sc46 O62 2.105 . S
Sc46 O64 2.105 . S
O47 Sc44 2.025 . S
O47 Sc45 2.025 . S
O47 Sc46 2.025 . S
C48 O54 1.268 . S
C48 O64 1.268 . S
C49 O55 1.268 . S
C49 O63 1.268 . S
C50 O56 1.268 . S
C50 O65 1.268 . S
C51 O57 1.268 . S
C51 O61 1.268 . S
C52 O58 1.268 . S
C52 O60 1.268 . S
C53 O59 1.268 . S
C53 O62 1.268 . S
O54 Sc44 2.105 . S
O54 C48 1.268 . S
O55 Sc45 2.105 . S
O55 C49 1.268 . S
O56 Sc46 2.105 . S
O56 C50 1.268 . S
O57 Sc44 2.105 . S
O57 C51 1.268 . S
O58 Sc46 2.105 . S
O58 C52 1.268 . S
O59 Sc45 2.105 . S
O59 C53 1.268 . S
O60 Sc44 2.105 . S
O60 C52 1.268 . S
O61 Sc45 2.105 . S
O61 C51 1.268 . S
O62 Sc46 2.105 . S
O62 C53 1.268 . S
O63 Sc44 2.105 . S
O63 C49 1.268 . S
O64 Sc46 2.105 . S
O64 C48 1.268 . S
O65 Sc45 2.105 . S
O65 C50 1.268 . S
Sc66 O69 2.025 . S
Sc66 O76 2.105 . S
Sc66 O79 2.087 1_655 S
Sc66 O82 2.105 . S
Sc66 O85 2.105 . S
Sc67 O69 2.025 . S
Sc67 O77 2.105 . S
Sc67 O81 2.105 . S
Sc67 O83 2.105 . S
Sc67 O87 2.105 . S
Sc68 O69 2.025 . S
Sc68 O78 2.105 . S
Sc68 O80 2.105 . S
Sc68 O84 2.105 . S
Sc68 O86 2.105 . S
O69 Sc66 2.025 . S
O69 Sc67 2.025 . S
O69 Sc68 2.025 . S
C70 O76 1.268 . S
C70 O86 1.268 . S
C71 O77 1.268 . S
C71 O85 1.268 . S
C72 O78 1.268 . S
C72 O87 1.268 . S
C73 O79 1.277 . S
C73 O83 1.268 1_455 S
C74 O80 1.268 1_455 S
C74 O82 1.268 1_455 S
C75 O81 1.268 . S
C75 O84 1.268 . S
O76 Sc66 2.105 . S
O76 C70 1.268 . S
O77 Sc67 2.105 . S
O77 C71 1.268 . S
O78 Sc68 2.105 . S
O78 C72 1.268 . S
O79 Sc66 2.087 1_455 S
O79 C73 1.277 . S
O80 Sc68 2.105 . S
O80 C74 1.268 1_655 S
O81 Sc67 2.105 . S
O81 C75 1.268 . S
O82 Sc66 2.105 . S
O82 C74 1.268 1_655 S
O83 Sc67 2.105 . S
O83 C73 1.268 1_655 S
O84 Sc68 2.105 . S
O84 C75 1.268 . S
O85 Sc66 2.105 . S
O85 C71 1.268 . S
O86 Sc68 2.105 . S
O86 C70 1.268 . S
O87 Sc67 2.105 . S
O87 C72 1.268 . S
Sc88 O91 2.025 . S
Sc88 O98 2.105 . S
Sc88 O101 2.105 . S
Sc88 O104 2.105 . S
Sc88 O107 2.105 . S
Sc89 O91 2.025 . S
Sc89 O99 2.105 . S
Sc89 O103 2.105 . S
Sc89 O105 2.105 . S
Sc89 O109 2.105 . S
Sc90 O91 2.025 . S
Sc90 O100 2.087 1_545 S
Sc90 O102 2.105 . S
Sc90 O106 2.105 . S
Sc90 O108 2.105 . S
O91 Sc88 2.025 . S
O91 Sc89 2.025 . S
O91 Sc90 2.025 . S
C92 O98 1.268 1_565 S
C92 O108 1.268 1_565 S
C93 O99 1.268 . S
C93 O107 1.268 . S
C94 O100 1.277 . S
C94 O109 1.268 1_565 S
C95 O101 1.268 . S
C95 O105 1.268 . S
C96 O102 1.268 . S
C96 O104 1.268 . S
C97 O103 1.268 . S
C97 O106 1.268 . S
O98 Sc88 2.105 . S
O98 C92 1.268 1_545 S
O99 Sc89 2.105 . S
O99 C93 1.268 . S
O100 Sc90 2.087 1_565 S
O100 C94 1.277 . S
O101 Sc88 2.105 . S
O101 C95 1.268 . S
O102 Sc90 2.105 . S
O102 C96 1.268 . S
O103 Sc89 2.105 . S
O103 C97 1.268 . S
O104 Sc88 2.105 . S
O104 C96 1.268 . S
O105 Sc89 2.105 . S
O105 C95 1.268 . S
O106 Sc90 2.105 . S
O106 C97 1.268 . S
O107 Sc88 2.105 . S
O107 C93 1.268 . S
O108 Sc90 2.105 . S
O108 C92 1.268 1_545 S
O109 Sc89 2.105 . S
O109 C94 1.268 1_545 S
Sc110 O113 2.025 . S
Sc110 O120 2.105 . S
Sc110 O123 2.087 1_565 S
Sc110 O126 2.105 . S
Sc110 O129 2.105 . S
Sc111 O113 2.025 . S
Sc111 O121 2.105 . S
Sc111 O125 2.105 . S
Sc111 O127 2.105 . S
Sc111 O131 2.105 . S
Sc112 O113 2.025 . S
Sc112 O122 2.105 . S
Sc112 O124 2.105 . S
Sc112 O128 2.105 . S
Sc112 O130 2.105 . S
O113 Sc110 2.025 . S
O113 Sc111 2.025 . S
O113 Sc112 2.025 . S
C114 O120 1.268 . S
C114 O130 1.268 . S
C115 O121 1.268 . S
C115 O129 1.268 . S
C116 O122 1.268 . S
C116 O131 1.268 . S
C117 O123 1.277 . S
C117 O127 1.268 1_545 S
C118 O124 1.268 1_545 S
C118 O126 1.268 1_545 S
C119 O125 1.268 . S
C119 O128 1.268 . S
O120 Sc110 2.105 . S
O120 C114 1.268 . S
O121 Sc111 2.105 . S
O121 C115 1.268 . S
O122 Sc112 2.105 . S
O122 C116 1.268 . S
O123 Sc110 2.087 1_545 S
O123 C117 1.277 . S
O124 Sc112 2.105 . S
O124 C118 1.268 1_565 S
O125 Sc111 2.105 . S
O125 C119 1.268 . S
O126 Sc110 2.105 . S
O126 C118 1.268 1_565 S
O127 Sc111 2.105 . S
O127 C117 1.268 1_565 S
O128 Sc112 2.105 . S
O128 C119 1.268 . S
O129 Sc110 2.105 . S
O129 C115 1.268 . S
O130 Sc112 2.105 . S
O130 C114 1.268 . S
O131 Sc111 2.105 . S
O131 C116 1.268 . S
Sc132 O135 2.025 . S
Sc132 O142 2.105 . S
Sc132 O145 2.105 . S
Sc132 O148 2.105 . S
Sc132 O151 2.105 . S
Sc133 O135 2.025 . S
Sc133 O143 2.105 . S
Sc133 O147 2.105 . S
Sc133 O149 2.105 . S
Sc133 O153 2.105 . S
Sc134 O135 2.025 . S
Sc134 O144 2.105 . S
Sc134 O146 2.105 . S
Sc134 O150 2.105 . S
Sc134 O152 2.105 . S
O135 Sc132 2.025 . S
O135 Sc133 2.025 . S
O135 Sc134 2.025 . S
C136 O142 1.268 . S
C136 O152 1.268 . S
C137 O143 1.268 . S
C137 O151 1.268 . S
C138 O144 1.268 . S
C138 O153 1.268 . S
C139 O145 1.268 . S
C139 O149 1.268 . S
C140 O146 1.268 . S
C140 O148 1.268 . S
C141 O147 1.268 . S
C141 O150 1.268 . S
O142 Sc132 2.105 . S
O142 C136 1.268 . S
O143 Sc133 2.105 . S
O143 C137 1.268 . S
O144 Sc134 2.105 . S
O144 C138 1.268 . S
O145 Sc132 2.105 . S
O145 C139 1.268 . S
O146 Sc134 2.105 . S
O146 C140 1.268 . S
O147 Sc133 2.105 . S
O147 C141 1.268 . S
O148 Sc132 2.105 . S
O148 C140 1.268 . S
O149 Sc133 2.105 . S
O149 C139 1.268 . S
O150 Sc134 2.105 . S
O150 C141 1.268 . S
O151 Sc132 2.105 . S
O151 C137 1.268 . S
O152 Sc134 2.105 . S
O152 C136 1.268 . S
O153 Sc133 2.105 . S
O153 C138 1.268 . S
Sc154 O157 2.025 . S
Sc154 O164 2.105 . S
Sc154 O167 2.105 . S
Sc154 O170 2.105 . S
Sc154 O173 2.105 . S
Sc155 O157 2.025 . S
Sc155 O165 2.105 . S
Sc155 O169 2.105 . S
Sc155 O171 2.105 . S
Sc155 O175 2.105 . S
Sc156 O157 2.025 . S
Sc156 O166 2.105 . S
Sc156 O168 2.105 . S
Sc156 O172 2.105 . S
Sc156 O174 2.105 . S
O157 Sc154 2.025 . S
O157 Sc155 2.025 . S
O157 Sc156 2.025 . S
C158 O164 1.268 . S
C158 O174 1.268 . S
C159 O165 1.268 . S
C159 O173 1.268 . S
C160 O166 1.268 . S
C160 O175 1.268 . S
C161 O167 1.268 . S
C161 O171 1.268 . S
C162 O168 1.268 . S
C162 O170 1.268 . S
C163 O169 1.268 . S
C163 O172 1.268 . S
O164 Sc154 2.105 . S
O164 C158 1.268 . S
O165 Sc155 2.105 . S
O165 C159 1.268 . S
O166 Sc156 2.105 . S
O166 C160 1.268 . S
O167 Sc154 2.105 . S
O167 C161 1.268 . S
O168 Sc156 2.105 . S
O168 C162 1.268 . S
O169 Sc155 2.105 . S
O169 C163 1.268 . S
O170 Sc154 2.105 . S
O170 C162 1.268 . S
O171 Sc155 2.105 . S
O171 C161 1.268 . S
O172 Sc156 2.105 . S
O172 C163 1.268 . S
O173 Sc154 2.105 . S
O173 C159 1.268 . S
O174 Sc156 2.105 . S
O174 C158 1.268 . S
O175 Sc155 2.105 . S
O175 C160 1.268 . S
Sc176 O179 2.025 . S
Sc176 O186 2.105 . S
Sc176 O189 2.105 . S
Sc176 O192 2.105 . S
Sc176 O195 2.105 . S
Sc177 O179 2.025 . S
Sc177 O187 2.105 . S
Sc177 O191 2.105 . S
Sc177 O193 2.105 . S
Sc177 O197 2.105 . S
Sc178 O179 2.025 . S
Sc178 O188 2.087 1_554 S
Sc178 O190 2.105 . S
Sc178 O194 2.105 . S
Sc178 O196 2.105 . S
O179 Sc176 2.025 . S
O179 Sc177 2.025 . S
O179 Sc178 2.025 . S
C180 O186 1.268 1_556 S
C180 O196 1.268 1_556 S
C181 O187 1.268 . S
C181 O195 1.268 . S
C182 O188 1.277 . S
C182 O197 1.268 1_556 S
C183 O189 1.268 . S
C183 O193 1.268 . S
C184 O190 1.268 . S
C184 O192 1.268 . S
C185 O191 1.268 . S
C185 O194 1.268 . S
O186 Sc176 2.105 . S
O186 C180 1.268 1_554 S
O187 Sc177 2.105 . S
O187 C181 1.268 . S
O188 Sc178 2.087 1_556 S
O188 C182 1.277 . S
O189 Sc176 2.105 . S
O189 C183 1.268 . S
O190 Sc178 2.105 . S
O190 C184 1.268 . S
O191 Sc177 2.105 . S
O191 C185 1.268 . S
O192 Sc176 2.105 . S
O192 C184 1.268 . S
O193 Sc177 2.105 . S
O193 C183 1.268 . S
O194 Sc178 2.105 . S
O194 C185 1.268 . S
O195 Sc176 2.105 . S
O195 C181 1.268 . S
O196 Sc178 2.105 . S
O196 C180 1.268 1_554 S
O197 Sc177 2.105 . S
O197 C182 1.268 1_554 S
Sc198 O201 2.025 . S
Sc198 O208 2.105 . S
Sc198 O211 2.087 1_556 S
Sc198 O214 2.105 . S
Sc198 O217 2.105 . S
Sc199 O201 2.025 . S
Sc199 O209 2.105 . S
Sc199 O213 2.105 . S
Sc199 O215 2.105 . S
Sc199 O219 2.105 . S
Sc200 O201 2.025 . S
Sc200 O210 2.105 . S
Sc200 O212 2.105 . S
Sc200 O216 2.105 . S
Sc200 O218 2.105 . S
O201 Sc198 2.025 . S
O201 Sc199 2.025 . S
O201 Sc200 2.025 . S
C202 O208 1.268 . S
C202 O218 1.268 . S
C203 O209 1.268 . S
C203 O217 1.268 . S
C204 O210 1.268 . S
C204 O219 1.268 . S
C205 O211 1.277 . S
C205 O215 1.268 1_554 S
C206 O212 1.268 1_554 S
C206 O214 1.268 1_554 S
C207 O213 1.268 . S
C207 O216 1.268 . S
O208 Sc198 2.105 . S
O208 C202 1.268 . S
O209 Sc199 2.105 . S
O209 C203 1.268 . S
O210 Sc200 2.105 . S
O210 C204 1.268 . S
O211 Sc198 2.087 1_554 S
O211 C205 1.277 . S
O212 Sc200 2.105 . S
O212 C206 1.268 1_556 S
O213 Sc199 2.105 . S
O213 C207 1.268 . S
O214 Sc198 2.105 . S
O214 C206 1.268 1_556 S
O215 Sc199 2.105 . S
O215 C205 1.268 1_556 S
O216 Sc200 2.105 . S
O216 C207 1.268 . S
O217 Sc198 2.105 . S
O217 C203 1.268 . S
O218 Sc200 2.105 . S
O218 C202 1.268 . S
O219 Sc199 2.105 . S
O219 C204 1.268 . S
Sc220 O223 2.025 . S
Sc220 O230 2.105 . S
Sc220 O233 2.105 . S
Sc220 O236 2.105 . S
Sc220 O239 2.105 . S
Sc221 O223 2.025 . S
Sc221 O231 2.105 . S
Sc221 O235 2.105 . S
Sc221 O237 2.105 . S
Sc221 O241 2.105 . S
Sc222 O223 2.025 . S
Sc222 O232 2.105 . S
Sc222 O234 2.105 . S
Sc222 O238 2.105 . S
Sc222 O240 2.105 . S
O223 Sc220 2.025 . S
O223 Sc221 2.025 . S
O223 Sc222 2.025 . S
C224 O230 1.268 . S
C224 O240 1.268 . S
C225 O231 1.268 . S
C225 O239 1.268 . S
C226 O232 1.268 . S
C226 O241 1.268 . S
C227 O233 1.268 . S
C227 O237 1.268 . S
C228 O234 1.268 . S
C228 O236 1.268 . S
C229 O235 1.268 . S
C229 O238 1.268 . S
O230 Sc220 2.105 . S
O230 C224 1.268 . S
O231 Sc221 2.105 . S
O231 C225 1.268 . S
O232 Sc222 2.105 . S
O232 C226 1.268 . S
O233 Sc220 2.105 . S
O233 C227 1.268 . S
O234 Sc222 2.105 . S
O234 C228 1.268 . S
O235 Sc221 2.105 . S
O235 C229 1.268 . S
O236 Sc220 2.105 . S
O236 C228 1.268 . S
O237 Sc221 2.105 . S
O237 C227 1.268 . S
O238 Sc222 2.105 . S
O238 C229 1.268 . S
O239 Sc220 2.105 . S
O239 C225 1.268 . S
O240 Sc222 2.105 . S
O240 C224 1.268 . S
O241 Sc221 2.105 . S
O241 C226 1.268 . S
Sc242 O245 2.025 . S
Sc242 O252 2.105 . S
Sc242 O255 2.105 . S
Sc242 O258 2.105 . S
Sc242 O261 2.105 . S
Sc243 O245 2.025 . S
Sc243 O253 2.105 . S
Sc243 O257 2.105 . S
Sc243 O259 2.105 . S
Sc243 O263 2.105 . S
Sc244 O245 2.025 . S
Sc244 O254 2.105 . S
Sc244 O256 2.105 . S
Sc244 O260 2.105 . S
Sc244 O262 2.105 . S
O245 Sc242 2.025 . S
O245 Sc243 2.025 . S
O245 Sc244 2.025 . S
C246 O252 1.268 . S
C246 O262 1.268 . S
C247 O253 1.268 . S
C247 O261 1.268 . S
C248 O254 1.268 . S
C248 O263 1.268 . S
C249 O255 1.268 . S
C249 O259 1.268 . S
C250 O256 1.268 . S
C250 O258 1.268 . S
C251 O257 1.268 . S
C251 O260 1.268 . S
O252 Sc242 2.105 . S
O252 C246 1.268 . S
O253 Sc243 2.105 . S
O253 C247 1.268 . S
O254 Sc244 2.105 . S
O254 C248 1.268 . S
O255 Sc242 2.105 . S
O255 C249 1.268 . S
O256 Sc244 2.105 . S
O256 C250 1.268 . S
O257 Sc243 2.105 . S
O257 C251 1.268 . S
O258 Sc242 2.105 . S
O258 C250 1.268 . S
O259 Sc243 2.105 . S
O259 C249 1.268 . S
O260 Sc244 2.105 . S
O260 C251 1.268 . S
O261 Sc242 2.105 . S
O261 C247 1.268 . S
O262 Sc244 2.105 . S
O262 C246 1.268 . S
O263 Sc243 2.105 . S
O263 C248 1.268 . S
Sc264 O267 2.025 . S
Sc264 O274 2.105 . S
Sc264 O277 2.105 . S
Sc264 O280 2.105 . S
Sc264 O283 2.087 1_655 S
Sc265 O267 2.025 . S
Sc265 O275 2.105 . S
Sc265 O279 2.105 . S
Sc265 O281 2.105 . S
Sc265 O285 2.105 . S
Sc266 O267 2.025 . S
Sc266 O276 2.105 . S
Sc266 O278 2.105 . S
Sc266 O282 2.105 . S
Sc266 O284 2.105 . S
O267 Sc264 2.025 . S
O267 Sc265 2.025 . S
O267 Sc266 2.025 . S
C268 O274 1.268 1_455 S
C268 O284 1.268 1_455 S
C269 O275 1.268 1_455 S
C269 O283 1.277 . S
C270 O276 1.268 . S
C270 O285 1.268 . S
C271 O277 1.268 . S
C271 O281 1.268 . S
C272 O278 1.268 . S
C272 O280 1.268 . S
C273 O279 1.268 . S
C273 O282 1.268 . S
O274 Sc264 2.105 . S
O274 C268 1.268 1_655 S
O275 Sc265 2.105 . S
O275 C269 1.268 1_655 S
O276 Sc266 2.105 . S
O276 C270 1.268 . S
O277 Sc264 2.105 . S
O277 C271 1.268 . S
O278 Sc266 2.105 . S
O278 C272 1.268 . S
O279 Sc265 2.105 . S
O279 C273 1.268 . S
O280 Sc264 2.105 . S
O280 C272 1.268 . S
O281 Sc265 2.105 . S
O281 C271 1.268 . S
O282 Sc266 2.105 . S
O282 C273 1.268 . S
O283 Sc264 2.087 1_455 S
O283 C269 1.277 . S
O284 Sc266 2.105 . S
O284 C268 1.268 1_655 S
O285 Sc265 2.105 . S
O285 C270 1.268 . S
Sc286 O289 2.025 . S
Sc286 O296 2.105 . S
Sc286 O299 2.105 . S
Sc286 O302 2.105 . S
Sc286 O305 2.105 . S
Sc287 O289 2.025 . S
Sc287 O297 2.105 . S
Sc287 O301 2.105 . S
Sc287 O303 2.105 . S
Sc287 O307 2.105 . S
Sc288 O289 2.025 . S
Sc288 O298 2.105 . S
Sc288 O300 2.105 . S
Sc288 O304 2.105 . S
Sc288 O306 2.105 . S
O289 Sc286 2.025 . S
O289 Sc287 2.025 . S
O289 Sc288 2.025 . S
C290 O296 1.268 . S
C290 O306 1.268 . S
C291 O297 1.268 . S
C291 O305 1.268 . S
C292 O298 1.268 . S
C292 O307 1.268 . S
C293 O299 1.268 . S
C293 O303 1.268 . S
C294 O300 1.268 . S
C294 O302 1.268 . S
C295 O301 1.268 . S
C295 O304 1.268 . S
O296 Sc286 2.105 . S
O296 C290 1.268 . S
O297 Sc287 2.105 . S
O297 C291 1.268 . S
O298 Sc288 2.105 . S
O298 C292 1.268 . S
O299 Sc286 2.105 . S
O299 C293 1.268 . S
O300 Sc288 2.105 . S
O300 C294 1.268 . S
O301 Sc287 2.105 . S
O301 C295 1.268 . S
O302 Sc286 2.105 . S
O302 C294 1.268 . S
O303 Sc287 2.105 . S
O303 C293 1.268 . S
O304 Sc288 2.105 . S
O304 C295 1.268 . S
O305 Sc286 2.105 . S
O305 C291 1.268 . S
O306 Sc288 2.105 . S
O306 C290 1.268 . S
O307 Sc287 2.105 . S
O307 C292 1.268 . S
Sc308 O311 2.025 . S
Sc308 O318 2.105 . S
Sc308 O321 2.105 . S
Sc308 O324 2.105 . S
Sc308 O327 2.105 . S
Sc309 O311 2.025 . S
Sc309 O319 2.105 . S
Sc309 O323 2.105 . S
Sc309 O325 2.105 . S
Sc309 O329 2.105 . S
Sc310 O311 2.025 . S
Sc310 O320 2.105 . S
Sc310 O322 2.105 . S
Sc310 O326 2.105 . S
Sc310 O328 2.105 . S
O311 Sc308 2.025 . S
O311 Sc309 2.025 . S
O311 Sc310 2.025 . S
C312 O318 1.268 . S
C312 O328 1.268 . S
C313 O319 1.268 . S
C313 O327 1.268 . S
C314 O320 1.268 . S
C314 O329 1.268 . S
C315 O321 1.268 . S
C315 O325 1.268 . S
C316 O322 1.268 . S
C316 O324 1.268 . S
C317 O323 1.268 . S
C317 O326 1.268 . S
O318 Sc308 2.105 . S
O318 C312 1.268 . S
O319 Sc309 2.105 . S
O319 C313 1.268 . S
O320 Sc310 2.105 . S
O320 C314 1.268 . S
O321 Sc308 2.105 . S
O321 C315 1.268 . S
O322 Sc310 2.105 . S
O322 C316 1.268 . S
O323 Sc309 2.105 . S
O323 C317 1.268 . S
O324 Sc308 2.105 . S
O324 C316 1.268 . S
O325 Sc309 2.105 . S
O325 C315 1.268 . S
O326 Sc310 2.105 . S
O326 C317 1.268 . S
O327 Sc308 2.105 . S
O327 C313 1.268 . S
O328 Sc310 2.105 . S
O328 C312 1.268 . S
O329 Sc309 2.105 . S
O329 C314 1.268 . S
Sc330 O333 2.025 . S
Sc330 O340 2.105 . S
Sc330 O343 2.105 . S
Sc330 O346 2.105 . S
Sc330 O349 2.087 1_455 S
Sc331 O333 2.025 . S
Sc331 O341 2.105 . S
Sc331 O345 2.105 . S
Sc331 O347 2.105 . S
Sc331 O351 2.105 . S
Sc332 O333 2.025 . S
Sc332 O342 2.105 . S
Sc332 O344 2.105 . S
Sc332 O348 2.105 . S
Sc332 O350 2.105 . S
O333 Sc330 2.025 . S
O333 Sc331 2.025 . S
O333 Sc332 2.025 . S
C334 O340 1.268 1_655 S
C334 O350 1.268 1_655 S
C335 O341 1.268 1_655 S
C335 O349 1.277 . S
C336 O342 1.268 . S
C336 O351 1.268 . S
C337 O343 1.268 . S
C337 O347 1.268 . S
C338 O344 1.268 . S
C338 O346 1.268 . S
C339 O345 1.268 . S
C339 O348 1.268 . S
O340 Sc330 2.105 . S
O340 C334 1.268 1_455 S
O341 Sc331 2.105 . S
O341 C335 1.268 1_455 S
O342 Sc332 2.105 . S
O342 C336 1.268 . S
O343 Sc330 2.105 . S
O343 C337 1.268 . S
O344 Sc332 2.105 . S
O344 C338 1.268 . S
O345 Sc331 2.105 . S
O345 C339 1.268 . S
O346 Sc330 2.105 . S
O346 C338 1.268 . S
O347 Sc331 2.105 . S
O347 C337 1.268 . S
O348 Sc332 2.105 . S
O348 C339 1.268 . S
O349 Sc330 2.087 1_655 S
O349 C335 1.277 . S
O350 Sc332 2.105 . S
O350 C334 1.268 1_455 S
O351 Sc331 2.105 . S
O351 C336 1.268 . S
Sc352 O355 2.025 . S
Sc352 O362 2.105 . S
Sc352 O365 2.105 . S
Sc352 O368 2.105 . S
Sc352 O371 2.105 . S
Sc353 O355 2.025 . S
Sc353 O363 2.105 . S
Sc353 O367 2.105 . S
Sc353 O369 2.105 . S
Sc353 O373 2.105 . S
Sc354 O355 2.025 . S
Sc354 O364 2.105 . S
Sc354 O366 2.105 . S
Sc354 O370 2.087 1_565 S
Sc354 O372 2.105 . S
O355 Sc352 2.025 . S
O355 Sc353 2.025 . S
O355 Sc354 2.025 . S
C356 O362 1.268 . S
C356 O372 1.268 . S
C357 O363 1.268 . S
C357 O371 1.268 . S
C358 O364 1.268 . S
C358 O373 1.268 . S
C359 O365 1.268 . S
C359 O369 1.268 . S
C360 O366 1.268 1_545 S
C360 O368 1.268 1_545 S
C361 O367 1.268 1_545 S
C361 O370 1.277 . S
O362 Sc352 2.105 . S
O362 C356 1.268 . S
O363 Sc353 2.105 . S
O363 C357 1.268 . S
O364 Sc354 2.105 . S
O364 C358 1.268 . S
O365 Sc352 2.105 . S
O365 C359 1.268 . S
O366 Sc354 2.105 . S
O366 C360 1.268 1_565 S
O367 Sc353 2.105 . S
O367 C361 1.268 1_565 S
O368 Sc352 2.105 . S
O368 C360 1.268 1_565 S
O369 Sc353 2.105 . S
O369 C359 1.268 . S
O370 Sc354 2.087 1_545 S
O370 C361 1.277 . S
O371 Sc352 2.105 . S
O371 C357 1.268 . S
O372 Sc354 2.105 . S
O372 C356 1.268 . S
O373 Sc353 2.105 . S
O373 C358 1.268 . S
Sc374 O377 2.025 . S
Sc374 O384 2.105 . S
Sc374 O387 2.105 . S
Sc374 O390 2.105 . S
Sc374 O393 2.087 1_545 S
Sc375 O377 2.025 . S
Sc375 O385 2.105 . S
Sc375 O389 2.105 . S
Sc375 O391 2.105 . S
Sc375 O395 2.105 . S
Sc376 O377 2.025 . S
Sc376 O386 2.105 . S
Sc376 O388 2.105 . S
Sc376 O392 2.105 . S
Sc376 O394 2.105 . S
O377 Sc374 2.025 . S
O377 Sc375 2.025 . S
O377 Sc376 2.025 . S
C378 O384 1.268 1_565 S
C378 O394 1.268 1_565 S
C379 O385 1.268 1_565 S
C379 O393 1.277 . S
C380 O386 1.268 . S
C380 O395 1.268 . S
C381 O387 1.268 . S
C381 O391 1.268 . S
C382 O388 1.268 . S
C382 O390 1.268 . S
C383 O389 1.268 . S
C383 O392 1.268 . S
O384 Sc374 2.105 . S
O384 C378 1.268 1_545 S
O385 Sc375 2.105 . S
O385 C379 1.268 1_545 S
O386 Sc376 2.105 . S
O386 C380 1.268 . S
O387 Sc374 2.105 . S
O387 C381 1.268 . S
O388 Sc376 2.105 . S
O388 C382 1.268 . S
O389 Sc375 2.105 . S
O389 C383 1.268 . S
O390 Sc374 2.105 . S
O390 C382 1.268 . S
O391 Sc375 2.105 . S
O391 C381 1.268 . S
O392 Sc376 2.105 . S
O392 C383 1.268 . S
O393 Sc374 2.087 1_565 S
O393 C379 1.277 . S
O394 Sc376 2.105 . S
O394 C378 1.268 1_545 S
O395 Sc375 2.105 . S
O395 C380 1.268 . S
Sc396 O399 2.025 . S
Sc396 O406 2.105 . S
Sc396 O409 2.105 . S
Sc396 O412 2.105 . S
Sc396 O415 2.105 . S
Sc397 O399 2.025 . S
Sc397 O407 2.105 . S
Sc397 O411 2.105 . S
Sc397 O413 2.105 . S
Sc397 O417 2.105 . S
Sc398 O399 2.025 . S
Sc398 O408 2.105 . S
Sc398 O410 2.105 . S
Sc398 O414 2.105 . S
Sc398 O416 2.105 . S
O399 Sc396 2.025 . S
O399 Sc397 2.025 . S
O399 Sc398 2.025 . S
C400 O406 1.268 . S
C400 O416 1.268 . S
C401 O407 1.268 . S
C401 O415 1.268 . S
C402 O408 1.268 . S
C402 O417 1.268 . S
C403 O409 1.268 . S
C403 O413 1.268 . S
C404 O410 1.268 . S
C404 O412 1.268 . S
C405 O411 1.268 . S
C405 O414 1.268 . S
O406 Sc396 2.105 . S
O406 C400 1.268 . S
O407 Sc397 2.105 . S
O407 C401 1.268 . S
O408 Sc398 2.105 . S
O408 C402 1.268 . S
O409 Sc396 2.105 . S
O409 C403 1.268 . S
O410 Sc398 2.105 . S
O410 C404 1.268 . S
O411 Sc397 2.105 . S
O411 C405 1.268 . S
O412 Sc396 2.105 . S
O412 C404 1.268 . S
O413 Sc397 2.105 . S
O413 C403 1.268 . S
O414 Sc398 2.105 . S
O414 C405 1.268 . S
O415 Sc396 2.105 . S
O415 C401 1.268 . S
O416 Sc398 2.105 . S
O416 C400 1.268 . S
O417 Sc397 2.105 . S
O417 C402 1.268 . S
Sc418 O421 2.025 . S
Sc418 O428 2.105 . S
Sc418 O431 2.105 . S
Sc418 O434 2.105 . S
Sc418 O437 2.105 . S
Sc419 O421 2.025 . S
Sc419 O429 2.105 . S
Sc419 O433 2.105 . S
Sc419 O435 2.105 . S
Sc419 O439 2.105 . S
Sc420 O421 2.025 . S
Sc420 O430 2.105 . S
Sc420 O432 2.105 . S
Sc420 O436 2.105 . S
Sc420 O438 2.105 . S
O421 Sc418 2.025 . S
O421 Sc419 2.025 . S
O421 Sc420 2.025 . S
C422 O428 1.268 . S
C422 O438 1.268 . S
C423 O429 1.268 . S
C423 O437 1.268 . S
C424 O430 1.268 . S
C424 O439 1.268 . S
C425 O431 1.268 . S
C425 O435 1.268 . S
C426 O432 1.268 . S
C426 O434 1.268 . S
C427 O433 1.268 . S
C427 O436 1.268 . S
O428 Sc418 2.105 . S
O428 C422 1.268 . S
O429 Sc419 2.105 . S
O429 C423 1.268 . S
O430 Sc420 2.105 . S
O430 C424 1.268 . S
O431 Sc418 2.105 . S
O431 C425 1.268 . S
O432 Sc420 2.105 . S
O432 C426 1.268 . S
O433 Sc419 2.105 . S
O433 C427 1.268 . S
O434 Sc418 2.105 . S
O434 C426 1.268 . S
O435 Sc419 2.105 . S
O435 C425 1.268 . S
O436 Sc420 2.105 . S
O436 C427 1.268 . S
O437 Sc418 2.105 . S
O437 C423 1.268 . S
O438 Sc420 2.105 . S
O438 C422 1.268 . S
O439 Sc419 2.105 . S
O439 C424 1.268 . S
Sc440 O443 2.025 . S
Sc440 O450 2.105 . S
Sc440 O453 2.105 . S
Sc440 O456 2.105 . S
Sc440 O459 2.105 . S
Sc441 O443 2.025 . S
Sc441 O451 2.105 . S
Sc441 O455 2.105 . S
Sc441 O457 2.105 . S
Sc441 O461 2.105 . S
Sc442 O443 2.025 . S
Sc442 O452 2.105 . S
Sc442 O454 2.105 . S
Sc442 O458 2.087 1_556 S
Sc442 O460 2.105 . S
O443 Sc440 2.025 . S
O443 Sc441 2.025 . S
O443 Sc442 2.025 . S
C444 O450 1.268 . S
C444 O460 1.268 . S
C445 O451 1.268 . S
C445 O459 1.268 . S
C446 O452 1.268 . S
C446 O461 1.268 . S
C447 O453 1.268 . S
C447 O457 1.268 . S
C448 O454 1.268 1_554 S
C448 O456 1.268 1_554 S
C449 O455 1.268 1_554 S
C449 O458 1.277 . S
O450 Sc440 2.105 . S
O450 C444 1.268 . S
O451 Sc441 2.105 . S
O451 C445 1.268 . S
O452 Sc442 2.105 . S
O452 C446 1.268 . S
O453 Sc440 2.105 . S
O453 C447 1.268 . S
O454 Sc442 2.105 . S
O454 C448 1.268 1_556 S
O455 Sc441 2.105 . S
O455 C449 1.268 1_556 S
O456 Sc440 2.105 . S
O456 C448 1.268 1_556 S
O457 Sc441 2.105 . S
O457 C447 1.268 . S
O458 Sc442 2.087 1_554 S
O458 C449 1.277 . S
O459 Sc440 2.105 . S
O459 C445 1.268 . S
O460 Sc442 2.105 . S
O460 C444 1.268 . S
O461 Sc441 2.105 . S
O461 C446 1.268 . S
Sc462 O465 2.025 . S
Sc462 O472 2.105 . S
Sc462 O475 2.105 . S
Sc462 O478 2.105 . S
Sc462 O481 2.087 1_554 S
Sc463 O465 2.025 . S
Sc463 O473 2.105 . S
Sc463 O477 2.105 . S
Sc463 O479 2.105 . S
Sc463 O483 2.105 . S
Sc464 O465 2.025 . S
Sc464 O474 2.105 . S
Sc464 O476 2.105 . S
Sc464 O480 2.105 . S
Sc464 O482 2.105 . S
O465 Sc462 2.025 . S
O465 Sc463 2.025 . S
O465 Sc464 2.025 . S
C466 O472 1.268 1_556 S
C466 O482 1.268 1_556 S
C467 O473 1.268 1_556 S
C467 O481 1.277 . S
C468 O474 1.268 . S
C468 O483 1.268 . S
C469 O475 1.268 . S
C469 O479 1.268 . S
C470 O476 1.268 . S
C470 O478 1.268 . S
C471 O477 1.268 . S
C471 O480 1.268 . S
O472 Sc462 2.105 . S
O472 C466 1.268 1_554 S
O473 Sc463 2.105 . S
O473 C467 1.268 1_554 S
O474 Sc464 2.105 . S
O474 C468 1.268 . S
O475 Sc462 2.105 . S
O475 C469 1.268 . S
O476 Sc464 2.105 . S
O476 C470 1.268 . S
O477 Sc463 2.105 . S
O477 C471 1.268 . S
O478 Sc462 2.105 . S
O478 C470 1.268 . S
O479 Sc463 2.105 . S
O479 C469 1.268 . S
O480 Sc464 2.105 . S
O480 C471 1.268 . S
O481 Sc462 2.087 1_556 S
O481 C467 1.277 . S
O482 Sc464 2.105 . S
O482 C466 1.268 1_554 S
O483 Sc463 2.105 . S
O483 C468 1.268 . S
Sc484 O487 2.025 . S
Sc484 O494 2.105 . S
Sc484 O497 2.105 . S
Sc484 O500 2.105 . S
Sc484 O503 2.105 . S
Sc485 O487 2.025 . S
Sc485 O495 2.105 . S
Sc485 O499 2.105 . S
Sc485 O501 2.105 . S
Sc485 O505 2.105 . S
Sc486 O487 2.025 . S
Sc486 O496 2.105 . S
Sc486 O498 2.105 . S
Sc486 O502 2.105 . S
Sc486 O504 2.105 . S
O487 Sc484 2.025 . S
O487 Sc485 2.025 . S
O487 Sc486 2.025 . S
C488 O494 1.268 . S
C488 O504 1.268 . S
C489 O495 1.268 . S
C489 O503 1.268 . S
C490 O496 1.268 . S
C490 O505 1.268 . S
C491 O497 1.268 . S
C491 O501 1.268 . S
C492 O498 1.268 . S
C492 O500 1.268 . S
C493 O499 1.268 . S
C493 O502 1.268 . S
O494 Sc484 2.105 . S
O494 C488 1.268 . S
O495 Sc485 2.105 . S
O495 C489 1.268 . S
O496 Sc486 2.105 . S
O496 C490 1.268 . S
O497 Sc484 2.105 . S
O497 C491 1.268 . S
O498 Sc486 2.105 . S
O498 C492 1.268 . S
O499 Sc485 2.105 . S
O499 C493 1.268 . S
O500 Sc484 2.105 . S
O500 C492 1.268 . S
O501 Sc485 2.105 . S
O501 C491 1.268 . S
O502 Sc486 2.105 . S
O502 C493 1.268 . S
O503 Sc484 2.105 . S
O503 C489 1.268 . S
O504 Sc486 2.105 . S
O504 C488 1.268 . S
O505 Sc485 2.105 . S
O505 C490 1.268 . S
Sc506 O509 2.025 . S
Sc506 O516 2.105 . S
Sc506 O519 2.105 . S
Sc506 O522 2.105 . S
Sc506 O525 2.105 . S
Sc507 O509 2.025 . S
Sc507 O517 2.105 . S
Sc507 O521 2.105 . S
Sc507 O523 2.105 . S
Sc507 O527 2.105 . S
Sc508 O509 2.025 . S
Sc508 O518 2.105 . S
Sc508 O520 2.105 . S
Sc508 O524 2.105 . S
Sc508 O526 2.105 . S
O509 Sc506 2.025 . S
O509 Sc507 2.025 . S
O509 Sc508 2.025 . S
C510 O516 1.268 . S
C510 O526 1.268 . S
C511 O517 1.268 . S
C511 O525 1.268 . S
C512 O518 1.268 . S
C512 O527 1.268 . S
C513 O519 1.268 . S
C513 O523 1.268 . S
C514 O520 1.268 . S
C514 O522 1.268 . S
C515 O521 1.268 . S
C515 O524 1.268 . S
O516 Sc506 2.105 . S
O516 C510 1.268 . S
O517 Sc507 2.105 . S
O517 C511 1.268 . S
O518 Sc508 2.105 . S
O518 C512 1.268 . S
O519 Sc506 2.105 . S
O519 C513 1.268 . S
O520 Sc508 2.105 . S
O520 C514 1.268 . S
O521 Sc507 2.105 . S
O521 C515 1.268 . S
O522 Sc506 2.105 . S
O522 C514 1.268 . S
O523 Sc507 2.105 . S
O523 C513 1.268 . S
O524 Sc508 2.105 . S
O524 C515 1.268 . S
O525 Sc506 2.105 . S
O525 C511 1.268 . S
O526 Sc508 2.105 . S
O526 C510 1.268 . S
O527 Sc507 2.105 . S
O527 C512 1.268 . S
H528 C534 0.930 . S
H529 C538 0.930 . S
H530 C543 0.929 . S
H531 C541 0.929 . S
H532 C536 0.929 . S
H533 C542 0.929 . S
C534 H528 0.930 . S
C534 C535 1.367 . S
C534 C542 1.378 . S
C535 C534 1.367 . S
C535 C543 1.433 . S
C536 H532 0.929 . S
C536 C538 1.378 . S
C536 C540 1.350 . S
C537 C540 1.463 . S
C537 C542 1.350 . S
C537 N545 1.427 . S
C538 H529 0.930 . S
C538 C536 1.378 . S
C538 C539 1.367 . S
C539 C538 1.367 . S
C539 C541 1.433 . S
C540 C536 1.350 . S
C540 C537 1.463 . S
C540 N544 1.427 . S
C541 H531 0.929 . S
C541 C539 1.433 . S
C541 N544 1.384 . S
C542 H533 0.929 . S
C542 C534 1.378 . S
C542 C537 1.350 . S
C543 H530 0.929 . S
C543 C535 1.433 . S
C543 N545 1.384 . S
N544 C540 1.427 . S
N544 C541 1.384 . S
N545 C537 1.427 . S
N545 C543 1.384 . S
H546 C552 0.930 . S
H547 C556 0.930 . S
H548 C561 0.929 . S
H549 C559 0.929 . S
H550 C554 0.929 . S
H551 C560 0.929 . S
C552 H546 0.930 . S
C552 C553 1.367 . S
C552 C560 1.378 . S
C553 C552 1.367 . S
C553 C561 1.433 . S
C554 H550 0.929 . S
C554 C556 1.378 . S
C554 C558 1.350 . S
C555 C558 1.463 . S
C555 C560 1.350 . S
C555 N563 1.427 . S
C556 H547 0.930 . S
C556 C554 1.378 . S
C556 C557 1.367 . S
C557 C556 1.367 . S
C557 C559 1.433 . S
C558 C554 1.350 . S
C558 C555 1.463 . S
C558 N562 1.427 . S
C559 H549 0.929 . S
C559 C557 1.433 . S
C559 N562 1.384 . S
C560 H551 0.929 . S
C560 C552 1.378 . S
C560 C555 1.350 . S
C561 H548 0.929 . S
C561 C553 1.433 . S
C561 N563 1.384 . S
N562 C558 1.427 . S
N562 C559 1.384 . S
N563 C555 1.427 . S
N563 C561 1.384 . S
H564 C570 0.930 . S
H565 C574 0.930 . S
H566 C579 0.929 . S
H567 C577 0.929 . S
H568 C572 0.929 . S
H569 C578 0.929 . S
C570 H564 0.930 . S
C570 C571 1.367 . S
C570 C578 1.378 . S
C571 C570 1.367 . S
C571 C579 1.433 . S
C572 H568 0.929 . S
C572 C574 1.378 . S
C572 C576 1.350 . S
C573 C576 1.463 . S
C573 C578 1.350 . S
C573 N581 1.427 . S
C574 H565 0.930 . S
C574 C572 1.378 . S
C574 C575 1.367 . S
C575 C574 1.367 . S
C575 C577 1.433 . S
C576 C572 1.350 . S
C576 C573 1.463 . S
C576 N580 1.427 . S
C577 H567 0.929 . S
C577 C575 1.433 . S
C577 N580 1.384 . S
C578 H569 0.929 . S
C578 C570 1.378 . S
C578 C573 1.350 . S
C579 H566 0.929 . S
C579 C571 1.433 . S
C579 N581 1.384 . S
N580 C576 1.427 . S
N580 C577 1.384 . S
N581 C573 1.427 . S
N581 C579 1.384 . S
H582 C588 0.930 . S
H583 C592 0.930 . S
H584 C597 0.929 . S
H585 C595 0.929 . S
H586 C590 0.929 . S
H587 C596 0.929 . S
C588 H582 0.930 . S
C588 C589 1.367 . S
C588 C596 1.378 . S
C589 C588 1.367 . S
C589 C597 1.433 . S
C590 H586 0.929 . S
C590 C592 1.378 . S
C590 C594 1.350 . S
C591 C594 1.463 . S
C591 C596 1.350 . S
C591 N599 1.427 . S
C592 H583 0.930 . S
C592 C590 1.378 . S
C592 C593 1.367 . S
C593 C592 1.367 . S
C593 C595 1.433 . S
C594 C590 1.350 . S
C594 C591 1.463 . S
C594 N598 1.427 . S
C595 H585 0.929 . S
C595 C593 1.433 . S
C595 N598 1.384 . S
C596 H587 0.929 . S
C596 C588 1.378 . S
C596 C591 1.350 . S
C597 H584 0.929 . S
C597 C589 1.433 . S
C597 N599 1.384 . S
N598 C594 1.427 . S
N598 C595 1.384 . S
N599 C591 1.427 . S
N599 C597 1.384 . S
H600 C606 0.930 . S
H601 C610 0.930 . S
H602 C615 0.929 . S
H603 C613 0.929 . S
H604 C608 0.929 . S
H605 C614 0.929 . S
C606 H600 0.930 . S
C606 C607 1.367 . S
C606 C614 1.378 . S
C607 C606 1.367 . S
C607 C615 1.433 . S
C608 H604 0.929 . S
C608 C610 1.378 . S
C608 C612 1.350 . S
C609 C612 1.463 . S
C609 C614 1.350 . S
C609 N617 1.427 . S
C610 H601 0.930 . S
C610 C608 1.378 . S
C610 C611 1.367 . S
C611 C610 1.367 . S
C611 C613 1.433 . S
C612 C608 1.350 . S
C612 C609 1.463 . S
C612 N616 1.427 . S
C613 H603 0.929 . S
C613 C611 1.433 . S
C613 N616 1.384 . S
C614 H605 0.929 . S
C614 C606 1.378 . S
C614 C609 1.350 . S
C615 H602 0.929 . S
C615 C607 1.433 . S
C615 N617 1.384 . S
N616 C612 1.427 . S
N616 C613 1.384 . S
N617 C609 1.427 . S
N617 C615 1.384 . S
H618 C624 0.930 . S
H619 C628 0.930 . S
H620 C633 0.929 . S
H621 C631 0.929 . S
H622 C626 0.929 . S
H623 C632 0.929 . S
C624 H618 0.930 . S
C624 C625 1.367 . S
C624 C632 1.378 . S
C625 C624 1.367 . S
C625 C633 1.433 . S
C626 H622 0.929 . S
C626 C628 1.378 . S
C626 C630 1.350 . S
C627 C630 1.463 . S
C627 C632 1.350 . S
C627 N635 1.427 . S
C628 H619 0.930 . S
C628 C626 1.378 . S
C628 C629 1.367 . S
C629 C628 1.367 . S
C629 C631 1.433 . S
C630 C626 1.350 . S
C630 C627 1.463 . S
C630 N634 1.427 . S
C631 H621 0.929 . S
C631 C629 1.433 . S
C631 N634 1.384 . S
C632 H623 0.929 . S
C632 C624 1.378 . S
C632 C627 1.350 . S
C633 H620 0.929 . S
C633 C625 1.433 . S
C633 N635 1.384 . S
N634 C630 1.427 . S
N634 C631 1.384 . S
N635 C627 1.427 . S
N635 C633 1.384 . S
H636 C642 0.930 . S
H637 C646 0.930 . S
H638 C651 0.929 . S
H639 C649 0.929 . S
H640 C644 0.929 . S
H641 C650 0.929 . S
C642 H636 0.930 . S
C642 C643 1.367 . S
C642 C650 1.378 . S
C643 C642 1.367 . S
C643 C651 1.433 . S
C644 H640 0.929 . S
C644 C646 1.378 . S
C644 C648 1.350 . S
C645 C648 1.463 . S
C645 C650 1.350 . S
C645 N653 1.427 . S
C646 H637 0.930 . S
C646 C644 1.378 . S
C646 C647 1.367 . S
C647 C646 1.367 . S
C647 C649 1.433 . S
C648 C644 1.350 . S
C648 C645 1.463 . S
C648 N652 1.427 . S
C649 H639 0.929 . S
C649 C647 1.433 . S
C649 N652 1.384 . S
C650 H641 0.929 . S
C650 C642 1.378 . S
C650 C645 1.350 . S
C651 H638 0.929 . S
C651 C643 1.433 . S
C651 N653 1.384 . S
N652 C648 1.427 . S
N652 C649 1.384 . S
N653 C645 1.427 . S
N653 C651 1.384 . S
H654 C660 0.930 . S
H655 C664 0.930 . S
H656 C669 0.929 . S
H657 C667 0.929 . S
H658 C662 0.929 . S
H659 C668 0.929 . S
C660 H654 0.930 . S
C660 C661 1.367 . S
C660 C668 1.378 . S
C661 C660 1.367 . S
C661 C669 1.433 . S
C662 H658 0.929 . S
C662 C664 1.378 . S
C662 C666 1.350 . S
C663 C666 1.463 . S
C663 C668 1.350 . S
C663 N671 1.427 . S
C664 H655 0.930 . S
C664 C662 1.378 . S
C664 C665 1.367 . S
C665 C664 1.367 . S
C665 C667 1.433 . S
C666 C662 1.350 . S
C666 C663 1.463 . S
C666 N670 1.427 . S
C667 H657 0.929 . S
C667 C665 1.433 . S
C667 N670 1.384 . S
C668 H659 0.929 . S
C668 C660 1.378 . S
C668 C663 1.350 . S
C669 H656 0.929 . S
C669 C661 1.433 . S
C669 N671 1.384 . S
N670 C666 1.427 . S
N670 C667 1.384 . S
N671 C663 1.427 . S
N671 C669 1.384 . S
H672 C678 0.930 . S
H673 C682 0.930 . S
H674 C687 0.929 . S
H675 C685 0.929 . S
H676 C680 0.929 . S
H677 C686 0.929 . S
C678 H672 0.930 . S
C678 C679 1.367 . S
C678 C686 1.378 . S
C679 C678 1.367 . S
C679 C687 1.433 . S
C680 H676 0.929 . S
C680 C682 1.378 . S
C680 C684 1.350 . S
C681 C684 1.463 . S
C681 C686 1.350 . S
C681 N689 1.427 . S
C682 H673 0.930 . S
C682 C680 1.378 . S
C682 C683 1.367 . S
C683 C682 1.367 . S
C683 C685 1.433 . S
C684 C680 1.350 . S
C684 C681 1.463 . S
C684 N688 1.427 . S
C685 H675 0.929 . S
C685 C683 1.433 . S
C685 N688 1.384 . S
C686 H677 0.929 . S
C686 C678 1.378 . S
C686 C681 1.350 . S
C687 H674 0.929 . S
C687 C679 1.433 . S
C687 N689 1.384 . S
N688 C684 1.427 . S
N688 C685 1.384 . S
N689 C681 1.427 . S
N689 C687 1.384 . S
H690 C696 0.930 . S
H691 C700 0.930 . S
H692 C705 0.929 . S
H693 C703 0.929 . S
H694 C698 0.929 . S
H695 C704 0.929 . S
C696 H690 0.930 . S
C696 C697 1.367 . S
C696 C704 1.378 . S
C697 C696 1.367 . S
C697 C705 1.433 . S
C698 H694 0.929 . S
C698 C700 1.378 . S
C698 C702 1.350 . S
C699 C702 1.463 . S
C699 C704 1.350 . S
C699 N707 1.427 . S
C700 H691 0.930 . S
C700 C698 1.378 . S
C700 C701 1.367 . S
C701 C700 1.367 . S
C701 C703 1.433 . S
C702 C698 1.350 . S
C702 C699 1.463 . S
C702 N706 1.427 . S
C703 H693 0.929 . S
C703 C701 1.433 . S
C703 N706 1.384 . S
C704 H695 0.929 . S
C704 C696 1.378 . S
C704 C699 1.350 . S
C705 H692 0.929 . S
C705 C697 1.433 . S
C705 N707 1.384 . S
N706 C702 1.427 . S
N706 C703 1.384 . S
N707 C699 1.427 . S
N707 C705 1.384 . S
H708 C714 0.930 . S
H709 C718 0.930 . S
H710 C723 0.929 . S
H711 C721 0.929 . S
H712 C716 0.929 . S
H713 C722 0.929 . S
C714 H708 0.930 . S
C714 C715 1.367 . S
C714 C722 1.378 . S
C715 C714 1.367 . S
C715 C723 1.433 . S
C716 H712 0.929 . S
C716 C718 1.378 . S
C716 C720 1.350 . S
C717 C720 1.463 . S
C717 C722 1.350 . S
C717 N725 1.427 . S
C718 H709 0.930 . S
C718 C716 1.378 . S
C718 C719 1.367 . S
C719 C718 1.367 . S
C719 C721 1.433 . S
C720 C716 1.350 . S
C720 C717 1.463 . S
C720 N724 1.427 . S
C721 H711 0.929 . S
C721 C719 1.433 . S
C721 N724 1.384 . S
C722 H713 0.929 . S
C722 C714 1.378 . S
C722 C717 1.350 . S
C723 H710 0.929 . S
C723 C715 1.433 . S
C723 N725 1.384 . S
N724 C720 1.427 . S
N724 C721 1.384 . S
N725 C717 1.427 . S
N725 C723 1.384 . S
H726 C732 0.930 . S
H727 C736 0.930 . S
H728 C741 0.929 . S
H729 C739 0.929 . S
H730 C734 0.929 . S
H731 C740 0.929 . S
C732 H726 0.930 . S
C732 C733 1.367 . S
C732 C740 1.378 . S
C733 C732 1.367 . S
C733 C741 1.433 . S
C734 H730 0.929 . S
C734 C736 1.378 . S
C734 C738 1.350 . S
C735 C738 1.463 . S
C735 C740 1.350 . S
C735 N743 1.427 . S
C736 H727 0.930 . S
C736 C734 1.378 . S
C736 C737 1.367 . S
C737 C736 1.367 . S
C737 C739 1.433 . S
C738 C734 1.350 . S
C738 C735 1.463 . S
C738 N742 1.427 . S
C739 H729 0.929 . S
C739 C737 1.433 . S
C739 N742 1.384 . S
C740 H731 0.929 . S
C740 C732 1.378 . S
C740 C735 1.350 . S
C741 H728 0.929 . S
C741 C733 1.433 . S
C741 N743 1.384 . S
N742 C738 1.427 . S
N742 C739 1.384 . S
N743 C735 1.427 . S
N743 C741 1.384 . S
H744 C750 0.930 . S
H745 C754 0.930 . S
H746 C759 0.929 . S
H747 C757 0.929 . S
H748 C752 0.929 . S
H749 C758 0.929 . S
C750 H744 0.930 . S
C750 C751 1.367 . S
C750 C758 1.378 . S
C751 C750 1.367 . S
C751 C759 1.433 . S
C752 H748 0.929 . S
C752 C754 1.378 . S
C752 C756 1.350 . S
C753 C756 1.463 . S
C753 C758 1.350 . S
C753 N761 1.427 . S
C754 H745 0.930 . S
C754 C752 1.378 . S
C754 C755 1.367 . S
C755 C754 1.367 . S
C755 C757 1.433 . S
C756 C752 1.350 . S
C756 C753 1.463 . S
C756 N760 1.427 . S
C757 H747 0.929 . S
C757 C755 1.433 . S
C757 N760 1.384 . S
C758 H749 0.929 . S
C758 C750 1.378 . S
C758 C753 1.350 . S
C759 H746 0.929 . S
C759 C751 1.433 . S
C759 N761 1.384 . S
N760 C756 1.427 . S
N760 C757 1.384 . S
N761 C753 1.427 . S
N761 C759 1.384 . S
H762 C768 0.930 . S
H763 C772 0.930 . S
H764 C777 0.929 . S
H765 C775 0.929 . S
H766 C770 0.929 . S
H767 C776 0.929 . S
C768 H762 0.930 . S
C768 C769 1.367 . S
C768 C776 1.378 . S
C769 C768 1.367 . S
C769 C777 1.433 . S
C770 H766 0.929 . S
C770 C772 1.378 . S
C770 C774 1.350 . S
C771 C774 1.463 . S
C771 C776 1.350 . S
C771 N779 1.427 . S
C772 H763 0.930 . S
C772 C770 1.378 . S
C772 C773 1.367 . S
C773 C772 1.367 . S
C773 C775 1.433 . S
C774 C770 1.350 . S
C774 C771 1.463 . S
C774 N778 1.427 . S
C775 H765 0.929 . S
C775 C773 1.433 . S
C775 N778 1.384 . S
C776 H767 0.929 . S
C776 C768 1.378 . S
C776 C771 1.350 . S
C777 H764 0.929 . S
C777 C769 1.433 . S
C777 N779 1.384 . S
N778 C774 1.427 . S
N778 C775 1.384 . S
N779 C771 1.427 . S
N779 C777 1.384 . S
H780 C786 0.930 . S
H781 C790 0.930 . S
H782 C795 0.929 . S
H783 C793 0.929 . S
H784 C788 0.929 . S
H785 C794 0.929 . S
C786 H780 0.930 . S
C786 C787 1.367 . S
C786 C794 1.378 . S
C787 C786 1.367 . S
C787 C795 1.433 . S
C788 H784 0.929 . S
C788 C790 1.378 . S
C788 C792 1.350 . S
C789 C792 1.463 . S
C789 C794 1.350 . S
C789 N797 1.427 . S
C790 H781 0.930 . S
C790 C788 1.378 . S
C790 C791 1.367 . S
C791 C790 1.367 . S
C791 C793 1.433 . S
C792 C788 1.350 . S
C792 C789 1.463 . S
C792 N796 1.427 . S
C793 H783 0.929 . S
C793 C791 1.433 . S
C793 N796 1.384 . S
C794 H785 0.929 . S
C794 C786 1.378 . S
C794 C789 1.350 . S
C795 H782 0.929 . S
C795 C787 1.433 . S
C795 N797 1.384 . S
N796 C792 1.427 . S
N796 C793 1.384 . S
N797 C789 1.427 . S
N797 C795 1.384 . S
H798 C804 0.930 . S
H799 C808 0.930 . S
H800 C813 0.929 . S
H801 C811 0.929 . S
H802 C806 0.929 . S
H803 C812 0.929 . S
C804 H798 0.930 . S
C804 C805 1.367 . S
C804 C812 1.378 . S
C805 C804 1.367 . S
C805 C813 1.433 . S
C806 H802 0.929 . S
C806 C808 1.378 . S
C806 C810 1.350 . S
C807 C810 1.463 . S
C807 C812 1.350 . S
C807 N815 1.427 . S
C808 H799 0.930 . S
C808 C806 1.378 . S
C808 C809 1.367 . S
C809 C808 1.367 . S
C809 C811 1.433 . S
C810 C806 1.350 . S
C810 C807 1.463 . S
C810 N814 1.427 . S
C811 H801 0.929 . S
C811 C809 1.433 . S
C811 N814 1.384 . S
C812 H803 0.929 . S
C812 C804 1.378 . S
C812 C807 1.350 . S
C813 H800 0.929 . S
C813 C805 1.433 . S
C813 N815 1.384 . S
N814 C810 1.427 . S
N814 C811 1.384 . S
N815 C807 1.427 . S
N815 C813 1.384 . S
H816 C822 0.930 . S
H817 C826 0.930 . S
H818 C831 0.929 . S
H819 C829 0.929 . S
H820 C824 0.929 . S
H821 C830 0.929 . S
C822 H816 0.930 . S
C822 C823 1.367 . S
C822 C830 1.378 . S
C823 C822 1.367 . S
C823 C831 1.433 . S
C824 H820 0.929 . S
C824 C826 1.378 . S
C824 C828 1.350 . S
C825 C828 1.463 . S
C825 C830 1.350 . S
C825 N833 1.427 . S
C826 H817 0.930 . S
C826 C824 1.378 . S
C826 C827 1.367 . S
C827 C826 1.367 . S
C827 C829 1.433 . S
C828 C824 1.350 . S
C828 C825 1.463 . S
C828 N832 1.427 . S
C829 H819 0.929 . S
C829 C827 1.433 . S
C829 N832 1.384 . S
C830 H821 0.929 . S
C830 C822 1.378 . S
C830 C825 1.350 . S
C831 H818 0.929 . S
C831 C823 1.433 . S
C831 N833 1.384 . S
N832 C828 1.427 . S
N832 C829 1.384 . S
N833 C825 1.427 . S
N833 C831 1.384 . S
H834 C840 0.930 . S
H835 C844 0.930 . S
H836 C849 0.929 . S
H837 C847 0.929 . S
H838 C842 0.929 . S
H839 C848 0.929 . S
C840 H834 0.930 . S
C840 C841 1.367 . S
C840 C848 1.378 . S
C841 C840 1.367 . S
C841 C849 1.433 . S
C842 H838 0.929 . S
C842 C844 1.378 . S
C842 C846 1.350 . S
C843 C846 1.463 . S
C843 C848 1.350 . S
C843 N851 1.427 . S
C844 H835 0.930 . S
C844 C842 1.378 . S
C844 C845 1.367 . S
C845 C844 1.367 . S
C845 C847 1.433 . S
C846 C842 1.350 . S
C846 C843 1.463 . S
C846 N850 1.427 . S
C847 H837 0.929 . S
C847 C845 1.433 . S
C847 N850 1.384 . S
C848 H839 0.929 . S
C848 C840 1.378 . S
C848 C843 1.350 . S
C849 H836 0.929 . S
C849 C841 1.433 . S
C849 N851 1.384 . S
N850 C846 1.427 . S
N850 C847 1.384 . S
N851 C843 1.427 . S
N851 C849 1.384 . S
H852 C858 0.930 . S
H853 C862 0.930 . S
H854 C867 0.929 . S
H855 C865 0.929 . S
H856 C860 0.929 . S
H857 C866 0.929 . S
C858 H852 0.930 . S
C858 C859 1.367 . S
C858 C866 1.378 . S
C859 C858 1.367 . S
C859 C867 1.433 . S
C860 H856 0.929 . S
C860 C862 1.378 . S
C860 C864 1.350 . S
C861 C864 1.463 . S
C861 C866 1.350 . S
C861 N869 1.427 . S
C862 H853 0.930 . S
C862 C860 1.378 . S
C862 C863 1.367 . S
C863 C862 1.367 . S
C863 C865 1.433 . S
C864 C860 1.350 . S
C864 C861 1.463 . S
C864 N868 1.427 . S
C865 H855 0.929 . S
C865 C863 1.433 . S
C865 N868 1.384 . S
C866 H857 0.929 . S
C866 C858 1.378 . S
C866 C861 1.350 . S
C867 H854 0.929 . S
C867 C859 1.433 . S
C867 N869 1.384 . S
N868 C864 1.427 . S
N868 C865 1.384 . S
N869 C861 1.427 . S
N869 C867 1.384 . S
H870 C876 0.930 . S
H871 C880 0.930 . S
H872 C885 0.929 . S
H873 C883 0.929 . S
H874 C878 0.929 . S
H875 C884 0.929 . S
C876 H870 0.930 . S
C876 C877 1.367 . S
C876 C884 1.378 . S
C877 C876 1.367 . S
C877 C885 1.433 . S
C878 H874 0.929 . S
C878 C880 1.378 . S
C878 C882 1.350 . S
C879 C882 1.463 . S
C879 C884 1.350 . S
C879 N887 1.427 . S
C880 H871 0.930 . S
C880 C878 1.378 . S
C880 C881 1.367 . S
C881 C880 1.367 . S
C881 C883 1.433 . S
C882 C878 1.350 . S
C882 C879 1.463 . S
C882 N886 1.427 . S
C883 H873 0.929 . S
C883 C881 1.433 . S
C883 N886 1.384 . S
C884 H875 0.929 . S
C884 C876 1.378 . S
C884 C879 1.350 . S
C885 H872 0.929 . S
C885 C877 1.433 . S
C885 N887 1.384 . S
N886 C882 1.427 . S
N886 C883 1.384 . S
N887 C879 1.427 . S
N887 C885 1.384 . S
H888 C894 0.930 . S
H889 C898 0.930 . S
H890 C903 0.929 . S
H891 C901 0.929 . S
H892 C896 0.929 . S
H893 C902 0.929 . S
C894 H888 0.930 . S
C894 C895 1.367 . S
C894 C902 1.378 . S
C895 C894 1.367 . S
C895 C903 1.433 . S
C896 H892 0.929 . S
C896 C898 1.378 . S
C896 C900 1.350 . S
C897 C900 1.463 . S
C897 C902 1.350 . S
C897 N905 1.427 . S
C898 H889 0.930 . S
C898 C896 1.378 . S
C898 C899 1.367 . S
C899 C898 1.367 . S
C899 C901 1.433 . S
C900 C896 1.350 . S
C900 C897 1.463 . S
C900 N904 1.427 . S
C901 H891 0.929 . S
C901 C899 1.433 . S
C901 N904 1.384 . S
C902 H893 0.929 . S
C902 C894 1.378 . S
C902 C897 1.350 . S
C903 H890 0.929 . S
C903 C895 1.433 . S
C903 N905 1.384 . S
N904 C900 1.427 . S
N904 C901 1.384 . S
N905 C897 1.427 . S
N905 C903 1.384 . S
H906 C912 0.930 . S
H907 C916 0.930 . S
H908 C921 0.929 . S
H909 C919 0.929 . S
H910 C914 0.929 . S
H911 C920 0.929 . S
C912 H906 0.930 . S
C912 C913 1.367 . S
C912 C920 1.378 . S
C913 C912 1.367 . S
C913 C921 1.433 . S
C914 H910 0.929 . S
C914 C916 1.378 . S
C914 C918 1.350 . S
C915 C918 1.463 . S
C915 C920 1.350 . S
C915 N923 1.427 . S
C916 H907 0.930 . S
C916 C914 1.378 . S
C916 C917 1.367 . S
C917 C916 1.367 . S
C917 C919 1.433 . S
C918 C914 1.350 . S
C918 C915 1.463 . S
C918 N922 1.427 . S
C919 H909 0.929 . S
C919 C917 1.433 . S
C919 N922 1.384 . S
C920 H911 0.929 . S
C920 C912 1.378 . S
C920 C915 1.350 . S
C921 H908 0.929 . S
C921 C913 1.433 . S
C921 N923 1.384 . S
N922 C918 1.427 . S
N922 C919 1.384 . S
N923 C915 1.427 . S
N923 C921 1.384 . S
H924 C930 0.930 . S
H925 C934 0.930 . S
H926 C939 0.929 . S
H927 C937 0.929 . S
H928 C932 0.929 . S
H929 C938 0.929 . S
C930 H924 0.930 . S
C930 C931 1.367 . S
C930 C938 1.378 . S
C931 C930 1.367 . S
C931 C939 1.433 . S
C932 H928 0.929 . S
C932 C934 1.378 . S
C932 C936 1.350 . S
C933 C936 1.463 . S
C933 C938 1.350 . S
C933 N941 1.427 . S
C934 H925 0.930 . S
C934 C932 1.378 . S
C934 C935 1.367 . S
C935 C934 1.367 . S
C935 C937 1.433 . S
C936 C932 1.350 . S
C936 C933 1.463 . S
C936 N940 1.427 . S
C937 H927 0.929 . S
C937 C935 1.433 . S
C937 N940 1.384 . S
C938 H929 0.929 . S
C938 C930 1.378 . S
C938 C933 1.350 . S
C939 H926 0.929 . S
C939 C931 1.433 . S
C939 N941 1.384 . S
N940 C936 1.427 . S
N940 C937 1.384 . S
N941 C933 1.427 . S
N941 C939 1.384 . S
H942 C948 0.930 . S
H943 C952 0.930 . S
H944 C957 0.929 . S
H945 C955 0.929 . S
H946 C950 0.929 . S
H947 C956 0.929 . S
C948 H942 0.930 . S
C948 C949 1.367 . S
C948 C956 1.378 . S
C949 C948 1.367 . S
C949 C957 1.433 . S
C950 H946 0.929 . S
C950 C952 1.378 . S
C950 C954 1.350 . S
C951 C954 1.463 . S
C951 C956 1.350 . S
C951 N959 1.427 . S
C952 H943 0.930 . S
C952 C950 1.378 . S
C952 C953 1.367 . S
C953 C952 1.367 . S
C953 C955 1.433 . S
C954 C950 1.350 . S
C954 C951 1.463 . S
C954 N958 1.427 . S
C955 H945 0.929 . S
C955 C953 1.433 . S
C955 N958 1.384 . S
C956 H947 0.929 . S
C956 C948 1.378 . S
C956 C951 1.350 . S
C957 H944 0.929 . S
C957 C949 1.433 . S
C957 N959 1.384 . S
N958 C954 1.427 . S
N958 C955 1.384 . S
N959 C951 1.427 . S
N959 C957 1.384 . S
H960 C966 0.930 . S
H961 C970 0.930 . S
H962 C975 0.929 . S
H963 C973 0.929 . S
H964 C968 0.929 . S
H965 C974 0.929 . S
C966 H960 0.930 . S
C966 C967 1.367 . S
C966 C974 1.378 . S
C967 C966 1.367 . S
C967 C975 1.433 . S
C968 H964 0.929 . S
C968 C970 1.378 . S
C968 C972 1.350 . S
C969 C972 1.463 . S
C969 C974 1.350 . S
C969 N977 1.427 . S
C970 H961 0.930 . S
C970 C968 1.378 . S
C970 C971 1.367 . S
C971 C970 1.367 . S
C971 C973 1.433 . S
C972 C968 1.350 . S
C972 C969 1.463 . S
C972 N976 1.427 . S
C973 H963 0.929 . S
C973 C971 1.433 . S
C973 N976 1.384 . S
C974 H965 0.929 . S
C974 C966 1.378 . S
C974 C969 1.350 . S
C975 H962 0.929 . S
C975 C967 1.433 . S
C975 N977 1.384 . S
N976 C972 1.427 . S
N976 C973 1.384 . S
N977 C969 1.427 . S
N977 C975 1.384 . S
H978 C984 0.930 . S
H979 C988 0.930 . S
H980 C993 0.929 . S
H981 C991 0.929 . S
H982 C986 0.929 . S
H983 C992 0.929 . S
C984 H978 0.930 . S
C984 C985 1.367 . S
C984 C992 1.378 . S
C985 C984 1.367 . S
C985 C993 1.433 . S
C986 H982 0.929 . S
C986 C988 1.378 . S
C986 C990 1.350 . S
C987 C990 1.463 . S
C987 C992 1.350 . S
C987 N995 1.427 . S
C988 H979 0.930 . S
C988 C986 1.378 . S
C988 C989 1.367 . S
C989 C988 1.367 . S
C989 C991 1.433 . S
C990 C986 1.350 . S
C990 C987 1.463 . S
C990 N994 1.427 . S
C991 H981 0.929 . S
C991 C989 1.433 . S
C991 N994 1.384 . S
C992 H983 0.929 . S
C992 C984 1.378 . S
C992 C987 1.350 . S
C993 H980 0.929 . S
C993 C985 1.433 . S
C993 N995 1.384 . S
N994 C990 1.427 . S
N994 C991 1.384 . S
N995 C987 1.427 . S
N995 C993 1.384 . S
H996 C1002 0.930 . S
H997 C1006 0.930 . S
H998 C1011 0.929 . S
H999 C1009 0.929 . S
H1000 C1004 0.929 . S
H1001 C1010 0.929 . S
C1002 H996 0.930 . S
C1002 C1003 1.367 . S
C1002 C1010 1.378 . S
C1003 C1002 1.367 . S
C1003 C1011 1.433 . S
C1004 H1000 0.929 . S
C1004 C1006 1.378 . S
C1004 C1008 1.350 . S
C1005 C1008 1.463 . S
C1005 C1010 1.350 . S
C1005 N1013 1.427 . S
C1006 H997 0.930 . S
C1006 C1004 1.378 . S
C1006 C1007 1.367 . S
C1007 C1006 1.367 . S
C1007 C1009 1.433 . S
C1008 C1004 1.350 . S
C1008 C1005 1.463 . S
C1008 N1012 1.427 . S
C1009 H999 0.929 . S
C1009 C1007 1.433 . S
C1009 N1012 1.384 . S
C1010 H1001 0.929 . S
C1010 C1002 1.378 . S
C1010 C1005 1.350 . S
C1011 H998 0.929 . S
C1011 C1003 1.433 . S
C1011 N1013 1.384 . S
N1012 C1008 1.427 . S
N1012 C1009 1.384 . S
N1013 C1005 1.427 . S
N1013 C1011 1.384 . S
H1014 C1020 0.930 . S
H1015 C1024 0.930 . S
H1016 C1029 0.929 . S
H1017 C1027 0.929 . S
H1018 C1022 0.929 . S
H1019 C1028 0.929 . S
C1020 H1014 0.930 . S
C1020 C1021 1.367 . S
C1020 C1028 1.378 . S
C1021 C1020 1.367 . S
C1021 C1029 1.433 . S
C1022 H1018 0.929 . S
C1022 C1024 1.378 . S
C1022 C1026 1.350 . S
C1023 C1026 1.463 . S
C1023 C1028 1.350 . S
C1023 N1031 1.427 . S
C1024 H1015 0.930 . S
C1024 C1022 1.378 . S
C1024 C1025 1.367 . S
C1025 C1024 1.367 . S
C1025 C1027 1.433 . S
C1026 C1022 1.350 . S
C1026 C1023 1.463 . S
C1026 N1030 1.427 . S
C1027 H1017 0.929 . S
C1027 C1025 1.433 . S
C1027 N1030 1.384 . S
C1028 H1019 0.929 . S
C1028 C1020 1.378 . S
C1028 C1023 1.350 . S
C1029 H1016 0.929 . S
C1029 C1021 1.433 . S
C1029 N1031 1.384 . S
N1030 C1026 1.427 . S
N1030 C1027 1.384 . S
N1031 C1023 1.427 . S
N1031 C1029 1.384 . S
H1032 C1038 0.930 . S
H1033 C1042 0.930 . S
H1034 C1047 0.929 . S
H1035 C1045 0.929 . S
H1036 C1040 0.929 . S
H1037 C1046 0.929 . S
C1038 H1032 0.930 . S
C1038 C1039 1.367 . S
C1038 C1046 1.378 . S
C1039 C1038 1.367 . S
C1039 C1047 1.433 . S
C1040 H1036 0.929 . S
C1040 C1042 1.378 . S
C1040 C1044 1.350 . S
C1041 C1044 1.463 . S
C1041 C1046 1.350 . S
C1041 N1049 1.427 . S
C1042 H1033 0.930 . S
C1042 C1040 1.378 . S
C1042 C1043 1.367 . S
C1043 C1042 1.367 . S
C1043 C1045 1.433 . S
C1044 C1040 1.350 . S
C1044 C1041 1.463 . S
C1044 N1048 1.427 . S
C1045 H1035 0.929 . S
C1045 C1043 1.433 . S
C1045 N1048 1.384 . S
C1046 H1037 0.929 . S
C1046 C1038 1.378 . S
C1046 C1041 1.350 . S
C1047 H1034 0.929 . S
C1047 C1039 1.433 . S
C1047 N1049 1.384 . S
N1048 C1044 1.427 . S
N1048 C1045 1.384 . S
N1049 C1041 1.427 . S
N1049 C1047 1.384 . S
H1050 C1056 0.930 . S
H1051 C1060 0.930 . S
H1052 C1065 0.929 . S
H1053 C1063 0.929 . S
H1054 C1058 0.929 . S
H1055 C1064 0.929 . S
C1056 H1050 0.930 . S
C1056 C1057 1.367 . S
C1056 C1064 1.378 . S
C1057 C1056 1.367 . S
C1057 C1065 1.433 . S
C1058 H1054 0.929 . S
C1058 C1060 1.378 . S
C1058 C1062 1.350 . S
C1059 C1062 1.463 . S
C1059 C1064 1.350 . S
C1059 N1067 1.427 . S
C1060 H1051 0.930 . S
C1060 C1058 1.378 . S
C1060 C1061 1.367 . S
C1061 C1060 1.367 . S
C1061 C1063 1.433 . S
C1062 C1058 1.350 . S
C1062 C1059 1.463 . S
C1062 N1066 1.427 . S
C1063 H1053 0.929 . S
C1063 C1061 1.433 . S
C1063 N1066 1.384 . S
C1064 H1055 0.929 . S
C1064 C1056 1.378 . S
C1064 C1059 1.350 . S
C1065 H1052 0.929 . S
C1065 C1057 1.433 . S
C1065 N1067 1.384 . S
N1066 C1062 1.427 . S
N1066 C1063 1.384 . S
N1067 C1059 1.427 . S
N1067 C1065 1.384 . S
H1068 C1074 0.930 . S
H1069 C1078 0.930 . S
H1070 C1083 0.929 . S
H1071 C1081 0.929 . S
H1072 C1076 0.929 . S
H1073 C1082 0.929 . S
C1074 H1068 0.930 . S
C1074 C1075 1.367 . S
C1074 C1082 1.378 . S
C1075 C1074 1.367 . S
C1075 C1083 1.433 . S
C1076 H1072 0.929 . S
C1076 C1078 1.378 . S
C1076 C1080 1.350 . S
C1077 C1080 1.463 . S
C1077 C1082 1.350 . S
C1077 N1085 1.427 . S
C1078 H1069 0.930 . S
C1078 C1076 1.378 . S
C1078 C1079 1.367 . S
C1079 C1078 1.367 . S
C1079 C1081 1.433 . S
C1080 C1076 1.350 . S
C1080 C1077 1.463 . S
C1080 N1084 1.427 . S
C1081 H1071 0.929 . S
C1081 C1079 1.433 . S
C1081 N1084 1.384 . S
C1082 H1073 0.929 . S
C1082 C1074 1.378 . S
C1082 C1077 1.350 . S
C1083 H1070 0.929 . S
C1083 C1075 1.433 . S
C1083 N1085 1.384 . S
N1084 C1080 1.427 . S
N1084 C1081 1.384 . S
N1085 C1077 1.427 . S
N1085 C1083 1.384 . S
H1086 C1092 0.930 . S
H1087 C1096 0.930 . S
H1088 C1101 0.929 . S
H1089 C1099 0.929 . S
H1090 C1094 0.929 . S
H1091 C1100 0.929 . S
C1092 H1086 0.930 . S
C1092 C1093 1.367 . S
C1092 C1100 1.378 . S
C1093 C1092 1.367 . S
C1093 C1101 1.433 . S
C1094 H1090 0.929 . S
C1094 C1096 1.378 . S
C1094 C1098 1.350 . S
C1095 C1098 1.463 . S
C1095 C1100 1.350 . S
C1095 N1103 1.427 . S
C1096 H1087 0.930 . S
C1096 C1094 1.378 . S
C1096 C1097 1.367 . S
C1097 C1096 1.367 . S
C1097 C1099 1.433 . S
C1098 C1094 1.350 . S
C1098 C1095 1.463 . S
C1098 N1102 1.427 . S
C1099 H1089 0.929 . S
C1099 C1097 1.433 . S
C1099 N1102 1.384 . S
C1100 H1091 0.929 . S
C1100 C1092 1.378 . S
C1100 C1095 1.350 . S
C1101 H1088 0.929 . S
C1101 C1093 1.433 . S
C1101 N1103 1.384 . S
N1102 C1098 1.427 . S
N1102 C1099 1.384 . S
N1103 C1095 1.427 . S
N1103 C1101 1.384 . S
H1104 C1110 0.930 . S
H1105 C1114 0.930 . S
H1106 C1119 0.929 . S
H1107 C1117 0.929 . S
H1108 C1112 0.929 . S
H1109 C1118 0.929 . S
C1110 H1104 0.930 . S
C1110 C1111 1.367 . S
C1110 C1118 1.378 . S
C1111 C1110 1.367 . S
C1111 C1119 1.433 . S
C1112 H1108 0.929 . S
C1112 C1114 1.378 . S
C1112 C1116 1.350 . S
C1113 C1116 1.463 . S
C1113 C1118 1.350 . S
C1113 N1121 1.427 . S
C1114 H1105 0.930 . S
C1114 C1112 1.378 . S
C1114 C1115 1.367 . S
C1115 C1114 1.367 . S
C1115 C1117 1.433 . S
C1116 C1112 1.350 . S
C1116 C1113 1.463 . S
C1116 N1120 1.427 . S
C1117 H1107 0.929 . S
C1117 C1115 1.433 . S
C1117 N1120 1.384 . S
C1118 H1109 0.929 . S
C1118 C1110 1.378 . S
C1118 C1113 1.350 . S
C1119 H1106 0.929 . S
C1119 C1111 1.433 . S
C1119 N1121 1.384 . S
N1120 C1116 1.427 . S
N1120 C1117 1.384 . S
N1121 C1113 1.427 . S
N1121 C1119 1.384 . S
H1122 C1128 0.930 . S
H1123 C1132 0.930 . S
H1124 C1137 0.929 . S
H1125 C1135 0.929 . S
H1126 C1130 0.929 . S
H1127 C1136 0.929 . S
C1128 H1122 0.930 . S
C1128 C1129 1.367 . S
C1128 C1136 1.378 . S
C1129 C1128 1.367 . S
C1129 C1137 1.433 . S
C1130 H1126 0.929 . S
C1130 C1132 1.378 . S
C1130 C1134 1.350 . S
C1131 C1134 1.463 . S
C1131 C1136 1.350 . S
C1131 N1139 1.427 . S
C1132 H1123 0.930 . S
C1132 C1130 1.378 . S
C1132 C1133 1.367 . S
C1133 C1132 1.367 . S
C1133 C1135 1.433 . S
C1134 C1130 1.350 . S
C1134 C1131 1.463 . S
C1134 N1138 1.427 . S
C1135 H1125 0.929 . S
C1135 C1133 1.433 . S
C1135 N1138 1.384 . S
C1136 H1127 0.929 . S
C1136 C1128 1.378 . S
C1136 C1131 1.350 . S
C1137 H1124 0.929 . S
C1137 C1129 1.433 . S
C1137 N1139 1.384 . S
N1138 C1134 1.427 . S
N1138 C1135 1.384 . S
N1139 C1131 1.427 . S
N1139 C1137 1.384 . S
H1140 C1146 0.930 . S
H1141 C1150 0.930 . S
H1142 C1155 0.929 . S
H1143 C1153 0.929 . S
H1144 C1148 0.929 . S
H1145 C1154 0.929 . S
C1146 H1140 0.930 . S
C1146 C1147 1.367 . S
C1146 C1154 1.378 . S
C1147 C1146 1.367 . S
C1147 C1155 1.433 . S
C1148 H1144 0.929 . S
C1148 C1150 1.378 . S
C1148 C1152 1.350 . S
C1149 C1152 1.463 . S
C1149 C1154 1.350 . S
C1149 N1157 1.427 . S
C1150 H1141 0.930 . S
C1150 C1148 1.378 . S
C1150 C1151 1.367 . S
C1151 C1150 1.367 . S
C1151 C1153 1.433 . S
C1152 C1148 1.350 . S
C1152 C1149 1.463 . S
C1152 N1156 1.427 . S
C1153 H1143 0.929 . S
C1153 C1151 1.433 . S
C1153 N1156 1.384 . S
C1154 H1145 0.929 . S
C1154 C1146 1.378 . S
C1154 C1149 1.350 . S
C1155 H1142 0.929 . S
C1155 C1147 1.433 . S
C1155 N1157 1.384 . S
N1156 C1152 1.427 . S
N1156 C1153 1.384 . S
N1157 C1149 1.427 . S
N1157 C1155 1.384 . S
H1158 C1164 0.930 . S
H1159 C1168 0.930 . S
H1160 C1173 0.929 . S
H1161 C1171 0.929 . S
H1162 C1166 0.929 . S
H1163 C1172 0.929 . S
C1164 H1158 0.930 . S
C1164 C1165 1.367 . S
C1164 C1172 1.378 . S
C1165 C1164 1.367 . S
C1165 C1173 1.433 . S
C1166 H1162 0.929 . S
C1166 C1168 1.378 . S
C1166 C1170 1.350 . S
C1167 C1170 1.463 . S
C1167 C1172 1.350 . S
C1167 N1175 1.427 . S
C1168 H1159 0.930 . S
C1168 C1166 1.378 . S
C1168 C1169 1.367 . S
C1169 C1168 1.367 . S
C1169 C1171 1.433 . S
C1170 C1166 1.350 . S
C1170 C1167 1.463 . S
C1170 N1174 1.427 . S
C1171 H1161 0.929 . S
C1171 C1169 1.433 . S
C1171 N1174 1.384 . S
C1172 H1163 0.929 . S
C1172 C1164 1.378 . S
C1172 C1167 1.350 . S
C1173 H1160 0.929 . S
C1173 C1165 1.433 . S
C1173 N1175 1.384 . S
N1174 C1170 1.427 . S
N1174 C1171 1.384 . S
N1175 C1167 1.427 . S
N1175 C1173 1.384 . S
H1176 C1182 0.930 . S
H1177 C1186 0.930 . S
H1178 C1191 0.929 . S
H1179 C1189 0.929 . S
H1180 C1184 0.929 . S
H1181 C1190 0.929 . S
C1182 H1176 0.930 . S
C1182 C1183 1.367 . S
C1182 C1190 1.378 . S
C1183 C1182 1.367 . S
C1183 C1191 1.433 . S
C1184 H1180 0.929 . S
C1184 C1186 1.378 . S
C1184 C1188 1.350 . S
C1185 C1188 1.463 . S
C1185 C1190 1.350 . S
C1185 N1193 1.427 . S
C1186 H1177 0.930 . S
C1186 C1184 1.378 . S
C1186 C1187 1.367 . S
C1187 C1186 1.367 . S
C1187 C1189 1.433 . S
C1188 C1184 1.350 . S
C1188 C1185 1.463 . S
C1188 N1192 1.427 . S
C1189 H1179 0.929 . S
C1189 C1187 1.433 . S
C1189 N1192 1.384 . S
C1190 H1181 0.929 . S
C1190 C1182 1.378 . S
C1190 C1185 1.350 . S
C1191 H1178 0.929 . S
C1191 C1183 1.433 . S
C1191 N1193 1.384 . S
N1192 C1188 1.427 . S
N1192 C1189 1.384 . S
N1193 C1185 1.427 . S
N1193 C1191 1.384 . S
H1194 C1200 0.930 . S
H1195 C1204 0.930 . S
H1196 C1209 0.929 . S
H1197 C1207 0.929 . S
H1198 C1202 0.929 . S
H1199 C1208 0.929 . S
C1200 H1194 0.930 . S
C1200 C1201 1.367 . S
C1200 C1208 1.378 . S
C1201 C1200 1.367 . S
C1201 C1209 1.433 . S
C1202 H1198 0.929 . S
C1202 C1204 1.378 . S
C1202 C1206 1.350 . S
C1203 C1206 1.463 . S
C1203 C1208 1.350 . S
C1203 N1211 1.427 . S
C1204 H1195 0.930 . S
C1204 C1202 1.378 . S
C1204 C1205 1.367 . S
C1205 C1204 1.367 . S
C1205 C1207 1.433 . S
C1206 C1202 1.350 . S
C1206 C1203 1.463 . S
C1206 N1210 1.427 . S
C1207 H1197 0.929 . S
C1207 C1205 1.433 . S
C1207 N1210 1.384 . S
C1208 H1199 0.929 . S
C1208 C1200 1.378 . S
C1208 C1203 1.350 . S
C1209 H1196 0.929 . S
C1209 C1201 1.433 . S
C1209 N1211 1.384 . S
N1210 C1206 1.427 . S
N1210 C1207 1.384 . S
N1211 C1203 1.427 . S
N1211 C1209 1.384 . S
H1212 C1218 0.930 . S
H1213 C1222 0.930 . S
H1214 C1227 0.929 . S
H1215 C1225 0.929 . S
H1216 C1220 0.929 . S
H1217 C1226 0.929 . S
C1218 H1212 0.930 . S
C1218 C1219 1.367 . S
C1218 C1226 1.378 . S
C1219 C1218 1.367 . S
C1219 C1227 1.433 . S
C1220 H1216 0.929 . S
C1220 C1222 1.378 . S
C1220 C1224 1.350 . S
C1221 C1224 1.463 . S
C1221 C1226 1.350 . S
C1221 N1229 1.427 . S
C1222 H1213 0.930 . S
C1222 C1220 1.378 . S
C1222 C1223 1.367 . S
C1223 C1222 1.367 . S
C1223 C1225 1.433 . S
C1224 C1220 1.350 . S
C1224 C1221 1.463 . S
C1224 N1228 1.427 . S
C1225 H1215 0.929 . S
C1225 C1223 1.433 . S
C1225 N1228 1.384 . S
C1226 H1217 0.929 . S
C1226 C1218 1.378 . S
C1226 C1221 1.350 . S
C1227 H1214 0.929 . S
C1227 C1219 1.433 . S
C1227 N1229 1.384 . S
N1228 C1224 1.427 . S
N1228 C1225 1.384 . S
N1229 C1221 1.427 . S
N1229 C1227 1.384 . S
H1230 C1236 0.930 . S
H1231 C1240 0.930 . S
H1232 C1245 0.929 . S
H1233 C1243 0.929 . S
H1234 C1238 0.929 . S
H1235 C1244 0.929 . S
C1236 H1230 0.930 . S
C1236 C1237 1.367 . S
C1236 C1244 1.378 . S
C1237 C1236 1.367 . S
C1237 C1245 1.433 . S
C1238 H1234 0.929 . S
C1238 C1240 1.378 . S
C1238 C1242 1.350 . S
C1239 C1242 1.463 . S
C1239 C1244 1.350 . S
C1239 N1247 1.427 . S
C1240 H1231 0.930 . S
C1240 C1238 1.378 . S
C1240 C1241 1.367 . S
C1241 C1240 1.367 . S
C1241 C1243 1.433 . S
C1242 C1238 1.350 . S
C1242 C1239 1.463 . S
C1242 N1246 1.427 . S
C1243 H1233 0.929 . S
C1243 C1241 1.433 . S
C1243 N1246 1.384 . S
C1244 H1235 0.929 . S
C1244 C1236 1.378 . S
C1244 C1239 1.350 . S
C1245 H1232 0.929 . S
C1245 C1237 1.433 . S
C1245 N1247 1.384 . S
N1246 C1242 1.427 . S
N1246 C1243 1.384 . S
N1247 C1239 1.427 . S
N1247 C1245 1.384 . S
H1248 C1254 0.930 . S
H1249 C1258 0.930 . S
H1250 C1263 0.929 . S
H1251 C1261 0.929 . S
H1252 C1256 0.929 . S
H1253 C1262 0.929 . S
C1254 H1248 0.930 . S
C1254 C1255 1.367 . S
C1254 C1262 1.378 . S
C1255 C1254 1.367 . S
C1255 C1263 1.433 . S
C1256 H1252 0.929 . S
C1256 C1258 1.378 . S
C1256 C1260 1.350 . S
C1257 C1260 1.463 . S
C1257 C1262 1.350 . S
C1257 N1265 1.427 . S
C1258 H1249 0.930 . S
C1258 C1256 1.378 . S
C1258 C1259 1.367 . S
C1259 C1258 1.367 . S
C1259 C1261 1.433 . S
C1260 C1256 1.350 . S
C1260 C1257 1.463 . S
C1260 N1264 1.427 . S
C1261 H1251 0.929 . S
C1261 C1259 1.433 . S
C1261 N1264 1.384 . S
C1262 H1253 0.929 . S
C1262 C1254 1.378 . S
C1262 C1257 1.350 . S
C1263 H1250 0.929 . S
C1263 C1255 1.433 . S
C1263 N1265 1.384 . S
N1264 C1260 1.427 . S
N1264 C1261 1.384 . S
N1265 C1257 1.427 . S
N1265 C1263 1.384 . S
H1266 C1272 0.930 . S
H1267 C1276 0.930 . S
H1268 C1281 0.929 . S
H1269 C1279 0.929 . S
H1270 C1274 0.929 . S
H1271 C1280 0.929 . S
C1272 H1266 0.930 . S
C1272 C1273 1.367 . S
C1272 C1280 1.378 . S
C1273 C1272 1.367 . S
C1273 C1281 1.433 . S
C1274 H1270 0.929 . S
C1274 C1276 1.378 . S
C1274 C1278 1.350 . S
C1275 C1278 1.463 . S
C1275 C1280 1.350 . S
C1275 N1283 1.427 . S
C1276 H1267 0.930 . S
C1276 C1274 1.378 . S
C1276 C1277 1.367 . S
C1277 C1276 1.367 . S
C1277 C1279 1.433 . S
C1278 C1274 1.350 . S
C1278 C1275 1.463 . S
C1278 N1282 1.427 . S
C1279 H1269 0.929 . S
C1279 C1277 1.433 . S
C1279 N1282 1.384 . S
C1280 H1271 0.929 . S
C1280 C1272 1.378 . S
C1280 C1275 1.350 . S
C1281 H1268 0.929 . S
C1281 C1273 1.433 . S
C1281 N1283 1.384 . S
N1282 C1278 1.427 . S
N1282 C1279 1.384 . S
N1283 C1275 1.427 . S
N1283 C1281 1.384 . S
H1284 C1290 0.930 . S
H1285 C1294 0.930 . S
H1286 C1299 0.929 . S
H1287 C1297 0.929 . S
H1288 C1292 0.929 . S
H1289 C1298 0.929 . S
C1290 H1284 0.930 . S
C1290 C1291 1.367 . S
C1290 C1298 1.378 . S
C1291 C1290 1.367 . S
C1291 C1299 1.433 . S
C1292 H1288 0.929 . S
C1292 C1294 1.378 . S
C1292 C1296 1.350 . S
C1293 C1296 1.463 . S
C1293 C1298 1.350 . S
C1293 N1301 1.427 . S
C1294 H1285 0.930 . S
C1294 C1292 1.378 . S
C1294 C1295 1.367 . S
C1295 C1294 1.367 . S
C1295 C1297 1.433 . S
C1296 C1292 1.350 . S
C1296 C1293 1.463 . S
C1296 N1300 1.427 . S
C1297 H1287 0.929 . S
C1297 C1295 1.433 . S
C1297 N1300 1.384 . S
C1298 H1289 0.929 . S
C1298 C1290 1.378 . S
C1298 C1293 1.350 . S
C1299 H1286 0.929 . S
C1299 C1291 1.433 . S
C1299 N1301 1.384 . S
N1300 C1296 1.427 . S
N1300 C1297 1.384 . S
N1301 C1293 1.427 . S
N1301 C1299 1.384 . S
H1302 C1308 0.930 . S
H1303 C1312 0.930 . S
H1304 C1317 0.929 . S
H1305 C1315 0.929 . S
H1306 C1310 0.929 . S
H1307 C1316 0.929 . S
C1308 H1302 0.930 . S
C1308 C1309 1.367 . S
C1308 C1316 1.378 . S
C1309 C1308 1.367 . S
C1309 C1317 1.433 . S
C1310 H1306 0.929 . S
C1310 C1312 1.378 . S
C1310 C1314 1.350 . S
C1311 C1314 1.463 . S
C1311 C1316 1.350 . S
C1311 N1319 1.427 . S
C1312 H1303 0.930 . S
C1312 C1310 1.378 . S
C1312 C1313 1.367 . S
C1313 C1312 1.367 . S
C1313 C1315 1.433 . S
C1314 C1310 1.350 . S
C1314 C1311 1.463 . S
C1314 N1318 1.427 . S
C1315 H1305 0.929 . S
C1315 C1313 1.433 . S
C1315 N1318 1.384 . S
C1316 H1307 0.929 . S
C1316 C1308 1.378 . S
C1316 C1311 1.350 . S
C1317 H1304 0.929 . S
C1317 C1309 1.433 . S
C1317 N1319 1.384 . S
N1318 C1314 1.427 . S
N1318 C1315 1.384 . S
N1319 C1311 1.427 . S
N1319 C1317 1.384 . S
H1320 C1326 0.930 . S
H1321 C1330 0.930 . S
H1322 C1335 0.929 . S
H1323 C1333 0.929 . S
H1324 C1328 0.929 . S
H1325 C1334 0.929 . S
C1326 H1320 0.930 . S
C1326 C1327 1.367 . S
C1326 C1334 1.378 . S
C1327 C1326 1.367 . S
C1327 C1335 1.433 . S
C1328 H1324 0.929 . S
C1328 C1330 1.378 . S
C1328 C1332 1.350 . S
C1329 C1332 1.463 . S
C1329 C1334 1.350 . S
C1329 N1337 1.427 . S
C1330 H1321 0.930 . S
C1330 C1328 1.378 . S
C1330 C1331 1.367 . S
C1331 C1330 1.367 . S
C1331 C1333 1.433 . S
C1332 C1328 1.350 . S
C1332 C1329 1.463 . S
C1332 N1336 1.427 . S
C1333 H1323 0.929 . S
C1333 C1331 1.433 . S
C1333 N1336 1.384 . S
C1334 H1325 0.929 . S
C1334 C1326 1.378 . S
C1334 C1329 1.350 . S
C1335 H1322 0.929 . S
C1335 C1327 1.433 . S
C1335 N1337 1.384 . S
N1336 C1332 1.427 . S
N1336 C1333 1.384 . S
N1337 C1329 1.427 . S
N1337 C1335 1.384 . S
H1338 C1344 0.930 . S
H1339 C1348 0.930 . S
H1340 C1353 0.929 . S
H1341 C1351 0.929 . S
H1342 C1346 0.929 . S
H1343 C1352 0.929 . S
C1344 H1338 0.930 . S
C1344 C1345 1.367 . S
C1344 C1352 1.378 . S
C1345 C1344 1.367 . S
C1345 C1353 1.433 . S
C1346 H1342 0.929 . S
C1346 C1348 1.378 . S
C1346 C1350 1.350 . S
C1347 C1350 1.463 . S
C1347 C1352 1.350 . S
C1347 N1355 1.427 . S
C1348 H1339 0.930 . S
C1348 C1346 1.378 . S
C1348 C1349 1.367 . S
C1349 C1348 1.367 . S
C1349 C1351 1.433 . S
C1350 C1346 1.350 . S
C1350 C1347 1.463 . S
C1350 N1354 1.427 . S
C1351 H1341 0.929 . S
C1351 C1349 1.433 . S
C1351 N1354 1.384 . S
C1352 H1343 0.929 . S
C1352 C1344 1.378 . S
C1352 C1347 1.350 . S
C1353 H1340 0.929 . S
C1353 C1345 1.433 . S
C1353 N1355 1.384 . S
N1354 C1350 1.427 . S
N1354 C1351 1.384 . S
N1355 C1347 1.427 . S
N1355 C1353 1.384 . S
H1356 C1362 0.930 . S
H1357 C1366 0.930 . S
H1358 C1371 0.929 . S
H1359 C1369 0.929 . S
H1360 C1364 0.929 . S
H1361 C1370 0.929 . S
C1362 H1356 0.930 . S
C1362 C1363 1.367 . S
C1362 C1370 1.378 . S
C1363 C1362 1.367 . S
C1363 C1371 1.433 . S
C1364 H1360 0.929 . S
C1364 C1366 1.378 . S
C1364 C1368 1.350 . S
C1365 C1368 1.463 . S
C1365 C1370 1.350 . S
C1365 N1373 1.427 . S
C1366 H1357 0.930 . S
C1366 C1364 1.378 . S
C1366 C1367 1.367 . S
C1367 C1366 1.367 . S
C1367 C1369 1.433 . S
C1368 C1364 1.350 . S
C1368 C1365 1.463 . S
C1368 N1372 1.427 . S
C1369 H1359 0.929 . S
C1369 C1367 1.433 . S
C1369 N1372 1.384 . S
C1370 H1361 0.929 . S
C1370 C1362 1.378 . S
C1370 C1365 1.350 . S
C1371 H1358 0.929 . S
C1371 C1363 1.433 . S
C1371 N1373 1.384 . S
N1372 C1368 1.427 . S
N1372 C1369 1.384 . S
N1373 C1365 1.427 . S
N1373 C1371 1.384 . S
H1374 C1380 0.930 . S
H1375 C1384 0.930 . S
H1376 C1389 0.929 . S
H1377 C1387 0.929 . S
H1378 C1382 0.929 . S
H1379 C1388 0.929 . S
C1380 H1374 0.930 . S
C1380 C1381 1.367 . S
C1380 C1388 1.378 . S
C1381 C1380 1.367 . S
C1381 C1389 1.433 . S
C1382 H1378 0.929 . S
C1382 C1384 1.378 . S
C1382 C1386 1.350 . S
C1383 C1386 1.463 . S
C1383 C1388 1.350 . S
C1383 N1391 1.427 . S
C1384 H1375 0.930 . S
C1384 C1382 1.378 . S
C1384 C1385 1.367 . S
C1385 C1384 1.367 . S
C1385 C1387 1.433 . S
C1386 C1382 1.350 . S
C1386 C1383 1.463 . S
C1386 N1390 1.427 . S
C1387 H1377 0.929 . S
C1387 C1385 1.433 . S
C1387 N1390 1.384 . S
C1388 H1379 0.929 . S
C1388 C1380 1.378 . S
C1388 C1383 1.350 . S
C1389 H1376 0.929 . S
C1389 C1381 1.433 . S
C1389 N1391 1.384 . S
N1390 C1386 1.427 . S
N1390 C1387 1.384 . S
N1391 C1383 1.427 . S
N1391 C1389 1.384 . S
H1392 C1398 0.930 . S
H1393 C1402 0.930 1_556 S
H1394 C1407 0.929 1_455 S
H1395 C1405 0.929 . S
H1396 C1400 0.929 . S
H1397 C1406 0.929 . S
C1398 H1392 0.930 . S
C1398 C1399 1.367 . S
C1398 C1406 1.378 . S
C1399 C1398 1.367 . S
C1399 C1407 1.433 . S
C1400 H1396 0.929 . S
C1400 C1402 1.378 . S
C1400 C1404 1.350 . S
C1401 C1404 1.463 . S
C1401 C1406 1.350 . S
C1401 N1409 1.427 . S
C1402 H1393 0.930 1_554 S
C1402 C1400 1.378 . S
C1402 C1403 1.367 . S
C1403 C1402 1.367 . S
C1403 C1405 1.433 . S
C1404 C1400 1.350 . S
C1404 C1401 1.463 . S
C1404 N1408 1.427 . S
C1405 H1395 0.929 . S
C1405 C1403 1.433 . S
C1405 N1408 1.384 . S
C1406 H1397 0.929 . S
C1406 C1398 1.378 . S
C1406 C1401 1.350 . S
C1407 H1394 0.929 1_655 S
C1407 C1399 1.433 . S
C1407 N1409 1.384 . S
N1408 C1404 1.427 . S
N1408 C1405 1.384 . S
N1409 C1401 1.427 . S
N1409 C1407 1.384 . S
H1410 C1416 0.930 . S
H1411 C1420 0.930 . S
H1412 C1425 0.929 . S
H1413 C1423 0.929 . S
H1414 C1418 0.929 . S
H1415 C1424 0.929 . S
C1416 H1410 0.930 . S
C1416 C1417 1.367 . S
C1416 C1424 1.378 . S
C1417 C1416 1.367 . S
C1417 C1425 1.433 . S
C1418 H1414 0.929 . S
C1418 C1420 1.378 . S
C1418 C1422 1.350 . S
C1419 C1422 1.463 . S
C1419 C1424 1.350 . S
C1419 N1427 1.427 . S
C1420 H1411 0.930 . S
C1420 C1418 1.378 . S
C1420 C1421 1.367 . S
C1421 C1420 1.367 . S
C1421 C1423 1.433 . S
C1422 C1418 1.350 . S
C1422 C1419 1.463 . S
C1422 N1426 1.427 . S
C1423 H1413 0.929 . S
C1423 C1421 1.433 . S
C1423 N1426 1.384 . S
C1424 H1415 0.929 . S
C1424 C1416 1.378 . S
C1424 C1419 1.350 . S
C1425 H1412 0.929 . S
C1425 C1417 1.433 . S
C1425 N1427 1.384 . S
N1426 C1422 1.427 . S
N1426 C1423 1.384 . S
N1427 C1419 1.427 . S
N1427 C1425 1.384 . S
H1428 C1434 0.930 . S
H1429 C1438 0.930 . S
H1430 C1443 0.929 1_554 S
H1431 C1441 0.929 . S
H1432 C1436 0.929 . S
H1433 C1442 0.929 . S
C1434 H1428 0.930 . S
C1434 C1435 1.367 . S
C1434 C1442 1.378 . S
C1435 C1434 1.367 . S
C1435 C1443 1.433 . S
C1436 H1432 0.929 . S
C1436 C1438 1.378 . S
C1436 C1440 1.350 . S
C1437 C1440 1.463 . S
C1437 C1442 1.350 . S
C1437 N1445 1.427 . S
C1438 H1429 0.930 . S
C1438 C1436 1.378 . S
C1438 C1439 1.367 . S
C1439 C1438 1.367 . S
C1439 C1441 1.433 . S
C1440 C1436 1.350 . S
C1440 C1437 1.463 . S
C1440 N1444 1.427 . S
C1441 H1431 0.929 . S
C1441 C1439 1.433 . S
C1441 N1444 1.384 . S
C1442 H1433 0.929 . S
C1442 C1434 1.378 . S
C1442 C1437 1.350 . S
C1443 H1430 0.929 1_556 S
C1443 C1435 1.433 . S
C1443 N1445 1.384 . S
N1444 C1440 1.427 . S
N1444 C1441 1.384 . S
N1445 C1437 1.427 . S
N1445 C1443 1.384 . S
H1446 C1452 0.930 . S
H1447 C1456 0.930 . S
H1448 C1461 0.929 . S
H1449 C1459 0.929 . S
H1450 C1454 0.929 . S
H1451 C1460 0.929 . S
C1452 H1446 0.930 . S
C1452 C1453 1.367 . S
C1452 C1460 1.378 . S
C1453 C1452 1.367 . S
C1453 C1461 1.433 . S
C1454 H1450 0.929 . S
C1454 C1456 1.378 . S
C1454 C1458 1.350 . S
C1455 C1458 1.463 . S
C1455 C1460 1.350 . S
C1455 N1463 1.427 . S
C1456 H1447 0.930 . S
C1456 C1454 1.378 . S
C1456 C1457 1.367 . S
C1457 C1456 1.367 . S
C1457 C1459 1.433 . S
C1458 C1454 1.350 . S
C1458 C1455 1.463 . S
C1458 N1462 1.427 . S
C1459 H1449 0.929 . S
C1459 C1457 1.433 . S
C1459 N1462 1.384 . S
C1460 H1451 0.929 . S
C1460 C1452 1.378 . S
C1460 C1455 1.350 . S
C1461 H1448 0.929 . S
C1461 C1453 1.433 . S
C1461 N1463 1.384 . S
N1462 C1458 1.427 . S
N1462 C1459 1.384 . S
N1463 C1455 1.427 . S
N1463 C1461 1.384 . S
H1464 C1470 0.930 . S
H1465 C1474 0.930 . S
H1466 C1479 0.929 . S
H1467 C1477 0.929 . S
H1468 C1472 0.929 . S
H1469 C1478 0.929 . S
C1470 H1464 0.930 . S
C1470 C1471 1.367 . S
C1470 C1478 1.378 . S
C1471 C1470 1.367 . S
C1471 C1479 1.433 . S
C1472 H1468 0.929 . S
C1472 C1474 1.378 . S
C1472 C1476 1.350 . S
C1473 C1476 1.463 . S
C1473 C1478 1.350 . S
C1473 N1481 1.427 . S
C1474 H1465 0.930 . S
C1474 C1472 1.378 . S
C1474 C1475 1.367 . S
C1475 C1474 1.367 . S
C1475 C1477 1.433 . S
C1476 C1472 1.350 . S
C1476 C1473 1.463 . S
C1476 N1480 1.427 . S
C1477 H1467 0.929 . S
C1477 C1475 1.433 . S
C1477 N1480 1.384 . S
C1478 H1469 0.929 . S
C1478 C1470 1.378 . S
C1478 C1473 1.350 . S
C1479 H1466 0.929 . S
C1479 C1471 1.433 . S
C1479 N1481 1.384 . S
N1480 C1476 1.427 . S
N1480 C1477 1.384 . S
N1481 C1473 1.427 . S
N1481 C1479 1.384 . S
H1482 C1488 0.930 . S
H1483 C1492 0.930 . S
H1484 C1497 0.929 . S
H1485 C1495 0.929 1_565 S
H1486 C1490 0.929 . S
H1487 C1496 0.929 . S
C1488 H1482 0.930 . S
C1488 C1489 1.367 . S
C1488 C1496 1.378 . S
C1489 C1488 1.367 . S
C1489 C1497 1.433 . S
C1490 H1486 0.929 . S
C1490 C1492 1.378 . S
C1490 C1494 1.350 . S
C1491 C1494 1.463 . S
C1491 C1496 1.350 . S
C1491 N1499 1.427 . S
C1492 H1483 0.930 . S
C1492 C1490 1.378 . S
C1492 C1493 1.367 . S
C1493 C1492 1.367 . S
C1493 C1495 1.433 . S
C1494 C1490 1.350 . S
C1494 C1491 1.463 . S
C1494 N1498 1.427 . S
C1495 H1485 0.929 1_545 S
C1495 C1493 1.433 . S
C1495 N1498 1.384 . S
C1496 H1487 0.929 . S
C1496 C1488 1.378 . S
C1496 C1491 1.350 . S
C1497 H1484 0.929 . S
C1497 C1489 1.433 . S
C1497 N1499 1.384 . S
N1498 C1494 1.427 . S
N1498 C1495 1.384 . S
N1499 C1491 1.427 . S
N1499 C1497 1.384 . S
H1500 C1506 0.930 . S
H1501 C1510 0.930 . S
H1502 C1515 0.929 . S
H1503 C1513 0.929 . S
H1504 C1508 0.929 . S
H1505 C1514 0.929 . S
C1506 H1500 0.930 . S
C1506 C1507 1.367 . S
C1506 C1514 1.378 . S
C1507 C1506 1.367 . S
C1507 C1515 1.433 . S
C1508 H1504 0.929 . S
C1508 C1510 1.378 . S
C1508 C1512 1.350 . S
C1509 C1512 1.463 . S
C1509 C1514 1.350 . S
C1509 N1517 1.427 . S
C1510 H1501 0.930 . S
C1510 C1508 1.378 . S
C1510 C1511 1.367 . S
C1511 C1510 1.367 . S
C1511 C1513 1.433 . S
C1512 C1508 1.350 . S
C1512 C1509 1.463 . S
C1512 N1516 1.427 . S
C1513 H1503 0.929 . S
C1513 C1511 1.433 . S
C1513 N1516 1.384 . S
C1514 H1505 0.929 . S
C1514 C1506 1.378 . S
C1514 C1509 1.350 . S
C1515 H1502 0.929 . S
C1515 C1507 1.433 . S
C1515 N1517 1.384 . S
N1516 C1512 1.427 . S
N1516 C1513 1.384 . S
N1517 C1509 1.427 . S
N1517 C1515 1.384 . S
H1518 C1524 0.930 1_455 S
H1519 C1528 0.930 . S
H1520 C1533 0.929 . S
H1521 C1531 0.929 . S
H1522 C1526 0.929 . S
H1523 C1532 0.929 . S
C1524 H1518 0.930 1_655 S
C1524 C1525 1.367 . S
C1524 C1532 1.378 . S
C1525 C1524 1.367 . S
C1525 C1533 1.433 . S
C1526 H1522 0.929 . S
C1526 C1528 1.378 . S
C1526 C1530 1.350 . S
C1527 C1530 1.463 . S
C1527 C1532 1.350 . S
C1527 N1535 1.427 . S
C1528 H1519 0.930 . S
C1528 C1526 1.378 . S
C1528 C1529 1.367 . S
C1529 C1528 1.367 . S
C1529 C1531 1.433 . S
C1530 C1526 1.350 . S
C1530 C1527 1.463 . S
C1530 N1534 1.427 . S
C1531 H1521 0.929 . S
C1531 C1529 1.433 . S
C1531 N1534 1.384 . S
C1532 H1523 0.929 . S
C1532 C1524 1.378 . S
C1532 C1527 1.350 . S
C1533 H1520 0.929 . S
C1533 C1525 1.433 . S
C1533 N1535 1.384 . S
N1534 C1530 1.427 . S
N1534 C1531 1.384 . S
N1535 C1527 1.427 . S
N1535 C1533 1.384 . S
H1536 C1542 0.930 . S
H1537 C1546 0.930 . S
H1538 C1551 0.929 . S
H1539 C1549 0.929 . S
H1540 C1544 0.929 . S
H1541 C1550 0.929 . S
C1542 H1536 0.930 . S
C1542 C1543 1.367 . S
C1542 C1550 1.378 . S
C1543 C1542 1.367 . S
C1543 C1551 1.433 . S
C1544 H1540 0.929 . S
C1544 C1546 1.378 . S
C1544 C1548 1.350 . S
C1545 C1548 1.463 . S
C1545 C1550 1.350 . S
C1545 N1553 1.427 . S
C1546 H1537 0.930 . S
C1546 C1544 1.378 . S
C1546 C1547 1.367 . S
C1547 C1546 1.367 . S
C1547 C1549 1.433 . S
C1548 C1544 1.350 . S
C1548 C1545 1.463 . S
C1548 N1552 1.427 . S
C1549 H1539 0.929 . S
C1549 C1547 1.433 . S
C1549 N1552 1.384 . S
C1550 H1541 0.929 . S
C1550 C1542 1.378 . S
C1550 C1545 1.350 . S
C1551 H1538 0.929 . S
C1551 C1543 1.433 . S
C1551 N1553 1.384 . S
N1552 C1548 1.427 . S
N1552 C1549 1.384 . S
N1553 C1545 1.427 . S
N1553 C1551 1.384 . S
H1554 C1560 0.930 . S
H1555 C1564 0.930 . S
H1556 C1569 0.929 1_556 S
H1557 C1567 0.929 . S
H1558 C1562 0.929 . S
H1559 C1568 0.929 . S
C1560 H1554 0.930 . S
C1560 C1561 1.367 . S
C1560 C1568 1.378 . S
C1561 C1560 1.367 . S
C1561 C1569 1.433 . S
C1562 H1558 0.929 . S
C1562 C1564 1.378 . S
C1562 C1566 1.350 . S
C1563 C1566 1.463 . S
C1563 C1568 1.350 . S
C1563 N1571 1.427 . S
C1564 H1555 0.930 . S
C1564 C1562 1.378 . S
C1564 C1565 1.367 . S
C1565 C1564 1.367 . S
C1565 C1567 1.433 . S
C1566 C1562 1.350 . S
C1566 C1563 1.463 . S
C1566 N1570 1.427 . S
C1567 H1557 0.929 . S
C1567 C1565 1.433 . S
C1567 N1570 1.384 . S
C1568 H1559 0.929 . S
C1568 C1560 1.378 . S
C1568 C1563 1.350 . S
C1569 H1556 0.929 1_554 S
C1569 C1561 1.433 . S
C1569 N1571 1.384 . S
N1570 C1566 1.427 . S
N1570 C1567 1.384 . S
N1571 C1563 1.427 . S
N1571 C1569 1.384 . S
H1572 C1578 0.930 . S
H1573 C1582 0.930 . S
H1574 C1587 0.929 . S
H1575 C1585 0.929 . S
H1576 C1580 0.929 . S
H1577 C1586 0.929 . S
C1578 H1572 0.930 . S
C1578 C1579 1.367 . S
C1578 C1586 1.378 . S
C1579 C1578 1.367 . S
C1579 C1587 1.433 . S
C1580 H1576 0.929 . S
C1580 C1582 1.378 . S
C1580 C1584 1.350 . S
C1581 C1584 1.463 . S
C1581 C1586 1.350 . S
C1581 N1589 1.427 . S
C1582 H1573 0.930 . S
C1582 C1580 1.378 . S
C1582 C1583 1.367 . S
C1583 C1582 1.367 . S
C1583 C1585 1.433 . S
C1584 C1580 1.350 . S
C1584 C1581 1.463 . S
C1584 N1588 1.427 . S
C1585 H1575 0.929 . S
C1585 C1583 1.433 . S
C1585 N1588 1.384 . S
C1586 H1577 0.929 . S
C1586 C1578 1.378 . S
C1586 C1581 1.350 . S
C1587 H1574 0.929 . S
C1587 C1579 1.433 . S
C1587 N1589 1.384 . S
N1588 C1584 1.427 . S
N1588 C1585 1.384 . S
N1589 C1581 1.427 . S
N1589 C1587 1.384 . S
H1590 C1596 0.930 . S
H1591 C1600 0.930 1_545 S
H1592 C1605 0.929 . S
H1593 C1603 0.929 . S
H1594 C1598 0.929 . S
H1595 C1604 0.929 . S
C1596 H1590 0.930 . S
C1596 C1597 1.367 . S
C1596 C1604 1.378 . S
C1597 C1596 1.367 . S
C1597 C1605 1.433 . S
C1598 H1594 0.929 . S
C1598 C1600 1.378 . S
C1598 C1602 1.350 . S
C1599 C1602 1.463 . S
C1599 C1604 1.350 . S
C1599 N1607 1.427 . S
C1600 H1591 0.930 1_565 S
C1600 C1598 1.378 . S
C1600 C1601 1.367 . S
C1601 C1600 1.367 . S
C1601 C1603 1.433 . S
C1602 C1598 1.350 . S
C1602 C1599 1.463 . S
C1602 N1606 1.427 . S
C1603 H1593 0.929 . S
C1603 C1601 1.433 . S
C1603 N1606 1.384 . S
C1604 H1595 0.929 . S
C1604 C1596 1.378 . S
C1604 C1599 1.350 . S
C1605 H1592 0.929 . S
C1605 C1597 1.433 . S
C1605 N1607 1.384 . S
N1606 C1602 1.427 . S
N1606 C1603 1.384 . S
N1607 C1599 1.427 . S
N1607 C1605 1.384 . S
H1608 C1614 0.930 . S
H1609 C1618 0.930 . S
H1610 C1623 0.929 . S
H1611 C1621 0.929 . S
H1612 C1616 0.929 . S
H1613 C1622 0.929 . S
C1614 H1608 0.930 . S
C1614 C1615 1.367 . S
C1614 C1622 1.378 . S
C1615 C1614 1.367 . S
C1615 C1623 1.433 . S
C1616 H1612 0.929 . S
C1616 C1618 1.378 . S
C1616 C1620 1.350 . S
C1617 C1620 1.463 . S
C1617 C1622 1.350 . S
C1617 N1625 1.427 . S
C1618 H1609 0.930 . S
C1618 C1616 1.378 . S
C1618 C1619 1.367 . S
C1619 C1618 1.367 . S
C1619 C1621 1.433 . S
C1620 C1616 1.350 . S
C1620 C1617 1.463 . S
C1620 N1624 1.427 . S
C1621 H1611 0.929 . S
C1621 C1619 1.433 . S
C1621 N1624 1.384 . S
C1622 H1613 0.929 . S
C1622 C1614 1.378 . S
C1622 C1617 1.350 . S
C1623 H1610 0.929 . S
C1623 C1615 1.433 . S
C1623 N1625 1.384 . S
N1624 C1620 1.427 . S
N1624 C1621 1.384 . S
N1625 C1617 1.427 . S
N1625 C1623 1.384 . S
H1626 C1632 0.930 . S
H1627 C1636 0.930 . S
H1628 C1641 0.929 . S
H1629 C1639 0.929 . S
H1630 C1634 0.929 . S
H1631 C1640 0.929 . S
C1632 H1626 0.930 . S
C1632 C1633 1.367 . S
C1632 C1640 1.378 . S
C1633 C1632 1.367 . S
C1633 C1641 1.433 . S
C1634 H1630 0.929 . S
C1634 C1636 1.378 . S
C1634 C1638 1.350 . S
C1635 C1638 1.463 . S
C1635 C1640 1.350 . S
C1635 N1643 1.427 . S
C1636 H1627 0.930 . S
C1636 C1634 1.378 . S
C1636 C1637 1.367 . S
C1637 C1636 1.367 . S
C1637 C1639 1.433 . S
C1638 C1634 1.350 . S
C1638 C1635 1.463 . S
C1638 N1642 1.427 . S
C1639 H1629 0.929 . S
C1639 C1637 1.433 . S
C1639 N1642 1.384 . S
C1640 H1631 0.929 . S
C1640 C1632 1.378 . S
C1640 C1635 1.350 . S
C1641 H1628 0.929 . S
C1641 C1633 1.433 . S
C1641 N1643 1.384 . S
N1642 C1638 1.427 . S
N1642 C1639 1.384 . S
N1643 C1635 1.427 . S
N1643 C1641 1.384 . S
H1644 C1650 0.930 . S
H1645 C1654 0.930 . S
H1646 C1659 0.929 . S
H1647 C1657 0.929 . S
H1648 C1652 0.929 . S
H1649 C1658 0.929 . S
C1650 H1644 0.930 . S
C1650 C1651 1.367 . S
C1650 C1658 1.378 . S
C1651 C1650 1.367 . S
C1651 C1659 1.433 . S
C1652 H1648 0.929 . S
C1652 C1654 1.378 . S
C1652 C1656 1.350 . S
C1653 C1656 1.463 . S
C1653 C1658 1.350 . S
C1653 N1661 1.427 . S
C1654 H1645 0.930 . S
C1654 C1652 1.378 . S
C1654 C1655 1.367 . S
C1655 C1654 1.367 . S
C1655 C1657 1.433 . S
C1656 C1652 1.350 . S
C1656 C1653 1.463 . S
C1656 N1660 1.427 . S
C1657 H1647 0.929 . S
C1657 C1655 1.433 . S
C1657 N1660 1.384 . S
C1658 H1649 0.929 . S
C1658 C1650 1.378 . S
C1658 C1653 1.350 . S
C1659 H1646 0.929 . S
C1659 C1651 1.433 . S
C1659 N1661 1.384 . S
N1660 C1656 1.427 . S
N1660 C1657 1.384 . S
N1661 C1653 1.427 . S
N1661 C1659 1.384 . S
H1662 C1668 0.930 . S
H1663 C1672 0.930 1_455 S
H1664 C1677 0.929 . S
H1665 C1675 0.929 . S
H1666 C1670 0.929 . S
H1667 C1676 0.929 . S
C1668 H1662 0.930 . S
C1668 C1669 1.367 . S
C1668 C1676 1.378 . S
C1669 C1668 1.367 . S
C1669 C1677 1.433 . S
C1670 H1666 0.929 . S
C1670 C1672 1.378 . S
C1670 C1674 1.350 . S
C1671 C1674 1.463 . S
C1671 C1676 1.350 . S
C1671 N1679 1.427 . S
C1672 H1663 0.930 1_655 S
C1672 C1670 1.378 . S
C1672 C1673 1.367 . S
C1673 C1672 1.367 . S
C1673 C1675 1.433 . S
C1674 C1670 1.350 . S
C1674 C1671 1.463 . S
C1674 N1678 1.427 . S
C1675 H1665 0.929 . S
C1675 C1673 1.433 . S
C1675 N1678 1.384 . S
C1676 H1667 0.929 . S
C1676 C1668 1.378 . S
C1676 C1671 1.350 . S
C1677 H1664 0.929 . S
C1677 C1669 1.433 . S
C1677 N1679 1.384 . S
N1678 C1674 1.427 . S
N1678 C1675 1.384 . S
N1679 C1671 1.427 . S
N1679 C1677 1.384 . S
H1680 C1686 0.930 . S
H1681 C1690 0.930 . S
H1682 C1695 0.929 . S
H1683 C1693 0.929 . S
H1684 C1688 0.929 . S
H1685 C1694 0.929 . S
C1686 H1680 0.930 . S
C1686 C1687 1.367 . S
C1686 C1694 1.378 . S
C1687 C1686 1.367 . S
C1687 C1695 1.433 . S
C1688 H1684 0.929 . S
C1688 C1690 1.378 . S
C1688 C1692 1.350 . S
C1689 C1692 1.463 . S
C1689 C1694 1.350 . S
C1689 N1697 1.427 . S
C1690 H1681 0.930 . S
C1690 C1688 1.378 . S
C1690 C1691 1.367 . S
C1691 C1690 1.367 . S
C1691 C1693 1.433 . S
C1692 C1688 1.350 . S
C1692 C1689 1.463 . S
C1692 N1696 1.427 . S
C1693 H1683 0.929 . S
C1693 C1691 1.433 . S
C1693 N1696 1.384 . S
C1694 H1685 0.929 . S
C1694 C1686 1.378 . S
C1694 C1689 1.350 . S
C1695 H1682 0.929 . S
C1695 C1687 1.433 . S
C1695 N1697 1.384 . S
N1696 C1692 1.427 . S
N1696 C1693 1.384 . S
N1697 C1689 1.427 . S
N1697 C1695 1.384 . S
H1698 C1704 0.930 . S
H1699 C1708 0.930 . S
H1700 C1713 0.929 1_545 S
H1701 C1711 0.929 . S
H1702 C1706 0.929 . S
H1703 C1712 0.929 . S
C1704 H1698 0.930 . S
C1704 C1705 1.367 . S
C1704 C1712 1.378 . S
C1705 C1704 1.367 . S
C1705 C1713 1.433 . S
C1706 H1702 0.929 . S
C1706 C1708 1.378 . S
C1706 C1710 1.350 . S
C1707 C1710 1.463 . S
C1707 C1712 1.350 . S
C1707 N1715 1.427 . S
C1708 H1699 0.930 . S
C1708 C1706 1.378 . S
C1708 C1709 1.367 . S
C1709 C1708 1.367 . S
C1709 C1711 1.433 . S
C1710 C1706 1.350 . S
C1710 C1707 1.463 . S
C1710 N1714 1.427 . S
C1711 H1701 0.929 . S
C1711 C1709 1.433 . S
C1711 N1714 1.384 . S
C1712 H1703 0.929 . S
C1712 C1704 1.378 . S
C1712 C1707 1.350 . S
C1713 H1700 0.929 1_565 S
C1713 C1705 1.433 . S
C1713 N1715 1.384 . S
N1714 C1710 1.427 . S
N1714 C1711 1.384 . S
N1715 C1707 1.427 . S
N1715 C1713 1.384 . S
H1716 C1722 0.930 . S
H1717 C1726 0.930 . S
H1718 C1731 0.929 . S
H1719 C1729 0.929 . S
H1720 C1724 0.929 . S
H1721 C1730 0.929 . S
C1722 H1716 0.930 . S
C1722 C1723 1.367 . S
C1722 C1730 1.378 . S
C1723 C1722 1.367 . S
C1723 C1731 1.433 . S
C1724 H1720 0.929 . S
C1724 C1726 1.378 . S
C1724 C1728 1.350 . S
C1725 C1728 1.463 . S
C1725 C1730 1.350 . S
C1725 N1733 1.427 . S
C1726 H1717 0.930 . S
C1726 C1724 1.378 . S
C1726 C1727 1.367 . S
C1727 C1726 1.367 . S
C1727 C1729 1.433 . S
C1728 C1724 1.350 . S
C1728 C1725 1.463 . S
C1728 N1732 1.427 . S
C1729 H1719 0.929 . S
C1729 C1727 1.433 . S
C1729 N1732 1.384 . S
C1730 H1721 0.929 . S
C1730 C1722 1.378 . S
C1730 C1725 1.350 . S
C1731 H1718 0.929 . S
C1731 C1723 1.433 . S
C1731 N1733 1.384 . S
N1732 C1728 1.427 . S
N1732 C1729 1.384 . S
N1733 C1725 1.427 . S
N1733 C1731 1.384 . S
H1734 C1740 0.930 . S
H1735 C1744 0.930 . S
H1736 C1749 0.929 . S
H1737 C1747 0.929 . S
H1738 C1742 0.929 . S
H1739 C1748 0.929 . S
C1740 H1734 0.930 . S
C1740 C1741 1.367 . S
C1740 C1748 1.378 . S
C1741 C1740 1.367 . S
C1741 C1749 1.433 . S
C1742 H1738 0.929 . S
C1742 C1744 1.378 . S
C1742 C1746 1.350 . S
C1743 C1746 1.463 . S
C1743 C1748 1.350 . S
C1743 N1751 1.427 . S
C1744 H1735 0.930 . S
C1744 C1742 1.378 . S
C1744 C1745 1.367 . S
C1745 C1744 1.367 . S
C1745 C1747 1.433 . S
C1746 C1742 1.350 . S
C1746 C1743 1.463 . S
C1746 N1750 1.427 . S
C1747 H1737 0.929 . S
C1747 C1745 1.433 . S
C1747 N1750 1.384 . S
C1748 H1739 0.929 . S
C1748 C1740 1.378 . S
C1748 C1743 1.350 . S
C1749 H1736 0.929 . S
C1749 C1741 1.433 . S
C1749 N1751 1.384 . S
N1750 C1746 1.427 . S
N1750 C1747 1.384 . S
N1751 C1743 1.427 . S
N1751 C1749 1.384 . S
H1752 C1758 0.930 . S
H1753 C1762 0.930 . S
H1754 C1767 0.929 . S
H1755 C1765 0.929 . S
H1756 C1760 0.929 . S
H1757 C1766 0.929 . S
C1758 H1752 0.930 . S
C1758 C1759 1.367 . S
C1758 C1766 1.378 . S
C1759 C1758 1.367 . S
C1759 C1767 1.433 . S
C1760 H1756 0.929 . S
C1760 C1762 1.378 . S
C1760 C1764 1.350 . S
C1761 C1764 1.463 . S
C1761 C1766 1.350 . S
C1761 N1769 1.427 . S
C1762 H1753 0.930 . S
C1762 C1760 1.378 . S
C1762 C1763 1.367 . S
C1763 C1762 1.367 . S
C1763 C1765 1.433 . S
C1764 C1760 1.350 . S
C1764 C1761 1.463 . S
C1764 N1768 1.427 . S
C1765 H1755 0.929 . S
C1765 C1763 1.433 . S
C1765 N1768 1.384 . S
C1766 H1757 0.929 . S
C1766 C1758 1.378 . S
C1766 C1761 1.350 . S
C1767 H1754 0.929 . S
C1767 C1759 1.433 . S
C1767 N1769 1.384 . S
N1768 C1764 1.427 . S
N1768 C1765 1.384 . S
N1769 C1761 1.427 . S
N1769 C1767 1.384 . S
H1770 C1776 0.930 . S
H1771 C1780 0.930 . S
H1772 C1785 0.929 . S
H1773 C1783 0.929 . S
H1774 C1778 0.929 . S
H1775 C1784 0.929 . S
C1776 H1770 0.930 . S
C1776 C1777 1.367 . S
C1776 C1784 1.378 . S
C1777 C1776 1.367 . S
C1777 C1785 1.433 . S
C1778 H1774 0.929 . S
C1778 C1780 1.378 . S
C1778 C1782 1.350 . S
C1779 C1782 1.463 . S
C1779 C1784 1.350 . S
C1779 N1787 1.427 . S
C1780 H1771 0.930 . S
C1780 C1778 1.378 . S
C1780 C1781 1.367 . S
C1781 C1780 1.367 . S
C1781 C1783 1.433 . S
C1782 C1778 1.350 . S
C1782 C1779 1.463 . S
C1782 N1786 1.427 . S
C1783 H1773 0.929 . S
C1783 C1781 1.433 . S
C1783 N1786 1.384 . S
C1784 H1775 0.929 . S
C1784 C1776 1.378 . S
C1784 C1779 1.350 . S
C1785 H1772 0.929 . S
C1785 C1777 1.433 . S
C1785 N1787 1.384 . S
N1786 C1782 1.427 . S
N1786 C1783 1.384 . S
N1787 C1779 1.427 . S
N1787 C1785 1.384 . S
H1788 C1794 0.930 . S
H1789 C1798 0.930 . S
H1790 C1803 0.929 . S
H1791 C1801 0.929 . S
H1792 C1796 0.929 . S
H1793 C1802 0.929 . S
C1794 H1788 0.930 . S
C1794 C1795 1.367 . S
C1794 C1802 1.378 . S
C1795 C1794 1.367 . S
C1795 C1803 1.433 . S
C1796 H1792 0.929 . S
C1796 C1798 1.378 . S
C1796 C1800 1.350 . S
C1797 C1800 1.463 . S
C1797 C1802 1.350 . S
C1797 N1805 1.427 . S
C1798 H1789 0.930 . S
C1798 C1796 1.378 . S
C1798 C1799 1.367 . S
C1799 C1798 1.367 . S
C1799 C1801 1.433 . S
C1800 C1796 1.350 . S
C1800 C1797 1.463 . S
C1800 N1804 1.427 . S
C1801 H1791 0.929 . S
C1801 C1799 1.433 . S
C1801 N1804 1.384 . S
C1802 H1793 0.929 . S
C1802 C1794 1.378 . S
C1802 C1797 1.350 . S
C1803 H1790 0.929 . S
C1803 C1795 1.433 . S
C1803 N1805 1.384 . S
N1804 C1800 1.427 . S
N1804 C1801 1.384 . S
N1805 C1797 1.427 . S
N1805 C1803 1.384 . S
H1806 C1812 0.930 . S
H1807 C1816 0.930 . S
H1808 C1821 0.929 . S
H1809 C1819 0.929 . S
H1810 C1814 0.929 . S
H1811 C1820 0.929 . S
C1812 H1806 0.930 . S
C1812 C1813 1.367 . S
C1812 C1820 1.378 . S
C1813 C1812 1.367 . S
C1813 C1821 1.433 . S
C1814 H1810 0.929 . S
C1814 C1816 1.378 . S
C1814 C1818 1.350 . S
C1815 C1818 1.463 . S
C1815 C1820 1.350 . S
C1815 N1823 1.427 . S
C1816 H1807 0.930 . S
C1816 C1814 1.378 . S
C1816 C1817 1.367 . S
C1817 C1816 1.367 . S
C1817 C1819 1.433 . S
C1818 C1814 1.350 . S
C1818 C1815 1.463 . S
C1818 N1822 1.427 . S
C1819 H1809 0.929 . S
C1819 C1817 1.433 . S
C1819 N1822 1.384 . S
C1820 H1811 0.929 . S
C1820 C1812 1.378 . S
C1820 C1815 1.350 . S
C1821 H1808 0.929 . S
C1821 C1813 1.433 . S
C1821 N1823 1.384 . S
N1822 C1818 1.427 . S
N1822 C1819 1.384 . S
N1823 C1815 1.427 . S
N1823 C1821 1.384 . S
C535 C7 1.780 . S
C539 C401 1.726 . S
C553 C427 1.733 . S
C557 C29 1.777 . S
C571 C50 1.777 . S
C575 C361 1.734 . S
C589 C72 1.782 . S
C593 C379 1.723 . S
C607 C489 1.733 . S
C611 C95 1.777 . S
C625 C116 1.776 . S
C629 C467 1.735 . S
C643 C515 1.732 . S
C647 C138 1.777 . S
C661 C161 1.779 . S
C665 C449 1.730 . S
C679 C183 1.779 . S
C683 C291 1.729 . S
C697 C204 1.781 . S
C701 C335 1.724 . S
C715 C313 1.730 . S
C719 C226 1.778 . S
C733 C249 1.778 . S
C737 C269 1.731 . S
C751 C273 1.778 . S
C755 C139 1.731 . S
C769 C295 1.783 . S
C773 C160 1.722 . S
C787 C317 1.780 . S
C791 C94 1.726 . S
C805 C117 1.724 . S
C809 C339 1.782 . S
C823 C357 1.777 . S
C827 C227 1.732 . S
C841 C205 1.731 . S
C845 C383 1.778 . S
C859 C248 1.723 . S
C863 C405 1.782 . S
C877 C182 1.722 . S
C881 C423 1.783 . S
C895 C28 1.735 . S
C899 C445 1.776 . S
C913 C73 1.733 . S
C917 C471 1.777 . S
C931 C51 1.728 . S
C935 C493 1.780 . S
C949 C511 1.776 . S
C953 C6 1.734 . S
C967 C96 1.209 . S
C971 C9 1.150 . S
C985 C114 1.209 . S
C989 C31 1.150 . S
C1003 C136 1.208 . S
C1007 C49 1.146 . S
C1021 C162 1.204 . S
C1025 C71 1.132 . S
C1039 C97 1.128 . S
C1043 C184 1.204 . S
C1057 C115 1.151 . S
C1061 C250 1.208 . S
C1075 C137 1.129 . S
C1079 C202 1.204 . S
C1093 C163 1.129 . S
C1097 C224 1.204 . S
C1111 C185 1.141 . S
C1115 C8 1.207 . S
C1129 C203 1.136 . S
C1133 C48 1.206 . S
C1147 C225 1.144 . S
C1151 C70 1.206 . S
C1165 C30 1.209 . S
C1169 C251 1.150 . S
C1183 C356 1.207 . S
C1187 C271 1.138 . S
C1201 C382 1.206 . S
C1205 C293 1.144 . S
C1219 C315 1.151 . S
C1223 C404 1.209 . S
C1237 C337 1.131 . S
C1241 C422 1.204 . S
C1255 C444 1.205 . S
C1259 C358 1.131 . S
C1273 C381 1.146 . S
C1277 C510 1.207 . S
C1291 C470 1.208 . S
C1295 C403 1.150 . S
C1309 C424 1.149 . S
C1313 C492 1.207 . S
C1327 C272 1.206 . S
C1331 C446 1.146 . S
C1345 C469 1.143 . S
C1349 C316 1.206 . S
C1363 C491 1.128 . S
C1367 C338 1.204 . S
C1381 C294 1.204 . S
C1385 C512 1.128 . S
C1399 C4 1.297 . S
C1403 C207 1.303 1_554 S
C1417 C229 1.304 . S
C1421 C26 1.286 . S
C1435 C181 1.306 1_556 S
C1439 C52 1.287 . S
C1453 C247 1.302 . S
C1457 C74 1.289 . S
C1471 C92 1.291 . S
C1475 C75 1.307 1_455 S
C1489 C53 1.305 . S
C1493 C118 1.296 . S
C1507 C140 1.294 . S
C1511 C27 1.306 . S
C1525 C5 1.302 1_655 S
C1529 C158 1.296 . S
C1543 C180 1.294 . S
C1547 C119 1.306 1_545 S
C1561 C206 1.295 . S
C1565 C159 1.302 . S
C1579 C228 1.293 . S
C1583 C141 1.307 . S
C1597 C246 1.297 . S
C1601 C93 1.304 1_565 S
C1615 C268 1.291 . S
C1619 C468 1.307 1_556 S
C1633 C290 1.297 . S
C1637 C490 1.304 . S
C1651 C447 1.301 1_554 S
C1655 C312 1.292 . S
C1669 C513 1.304 . S
C1673 C334 1.286 . S
C1687 C360 1.289 . S
C1691 C336 1.302 1_655 S
C1705 C378 1.296 . S
C1709 C314 1.304 . S
C1723 C292 1.306 . S
C1727 C400 1.294 . S
C1741 C426 1.294 . S
C1745 C270 1.306 1_455 S
C1759 C448 1.289 . S
C1763 C380 1.302 1_565 S
C1777 C425 1.303 . S
C1781 C466 1.287 . S
C1795 C488 1.293 . S
C1799 C402 1.301 . S
C1813 C514 1.293 . S
C1817 C359 1.301 1_545 S
