# Generated by pormake.
# Topology snz, (6)-cn, num edge types: 1
# Building blocks:
#     Node 0, Type 0, BuildingBlock: HISSIN_clean_sbu_0, # of connection points: 6
#     Node 1, Type 0, BuildingBlock: HISSIN_clean_sbu_0, # of connection points: 6
#     Node 2, Type 0, BuildingBlock: HISSIN_clean_sbu_0, # of connection points: 6
#     Node 3, Type 0, BuildingBlock: HISSIN_clean_sbu_0, # of connection points: 6
#     Node 4, Type 0, BuildingBlock: HISSIN_clean_sbu_0, # of connection points: 6
#     Node 5, Type 0, BuildingBlock: HISSIN_clean_sbu_0, # of connection points: 6
#     Node 6, Type 0, BuildingBlock: HISSIN_clean_sbu_0, # of connection points: 6
#     Node 7, Type 0, BuildingBlock: HISSIN_clean_sbu_0, # of connection points: 6
#     Node 8, Type 0, BuildingBlock: HISSIN_clean_sbu_0, # of connection points: 6
#     Edge 9, Type (0, 0), BuildingBlock: XIVTED_clean_linker_0, # of connection points: 2
#     Edge 10, Type (0, 0), BuildingBlock: XIVTED_clean_linker_0, # of connection points: 2
#     Edge 11, Type (0, 0), BuildingBlock: XIVTED_clean_linker_0, # of connection points: 2
#     Edge 12, Type (0, 0), BuildingBlock: XIVTED_clean_linker_0, # of connection points: 2
#     Edge 13, Type (0, 0), BuildingBlock: XIVTED_clean_linker_0, # of connection points: 2
#     Edge 14, Type (0, 0), BuildingBlock: XIVTED_clean_linker_0, # of connection points: 2
#     Edge 15, Type (0, 0), BuildingBlock: XIVTED_clean_linker_0, # of connection points: 2
#     Edge 16, Type (0, 0), BuildingBlock: XIVTED_clean_linker_0, # of connection points: 2
#     Edge 17, Type (0, 0), BuildingBlock: XIVTED_clean_linker_0, # of connection points: 2
#     Edge 18, Type (0, 0), BuildingBlock: XIVTED_clean_linker_0, # of connection points: 2
#     Edge 19, Type (0, 0), BuildingBlock: XIVTED_clean_linker_0, # of connection points: 2
#     Edge 20, Type (0, 0), BuildingBlock: XIVTED_clean_linker_0, # of connection points: 2
#     Edge 21, Type (0, 0), BuildingBlock: XIVTED_clean_linker_0, # of connection points: 2
#     Edge 22, Type (0, 0), BuildingBlock: XIVTED_clean_linker_0, # of connection points: 2
#     Edge 23, Type (0, 0), BuildingBlock: XIVTED_clean_linker_0, # of connection points: 2
#     Edge 24, Type (0, 0), BuildingBlock: XIVTED_clean_linker_0, # of connection points: 2
#     Edge 25, Type (0, 0), BuildingBlock: XIVTED_clean_linker_0, # of connection points: 2
#     Edge 26, Type (0, 0), BuildingBlock: XIVTED_clean_linker_0, # of connection points: 2
#     Edge 27, Type (0, 0), BuildingBlock: XIVTED_clean_linker_0, # of connection points: 2
#     Edge 28, Type (0, 0), BuildingBlock: XIVTED_clean_linker_0, # of connection points: 2
#     Edge 29, Type (0, 0), BuildingBlock: XIVTED_clean_linker_0, # of connection points: 2
#     Edge 30, Type (0, 0), BuildingBlock: XIVTED_clean_linker_0, # of connection points: 2
#     Edge 31, Type (0, 0), BuildingBlock: XIVTED_clean_linker_0, # of connection points: 2
#     Edge 32, Type (0, 0), BuildingBlock: XIVTED_clean_linker_0, # of connection points: 2
#     Edge 33, Type (0, 0), BuildingBlock: XIVTED_clean_linker_0, # of connection points: 2
#     Edge 34, Type (0, 0), BuildingBlock: XIVTED_clean_linker_0, # of connection points: 2
#     Edge 35, Type (0, 0), BuildingBlock: XIVTED_clean_linker_0, # of connection points: 2
# Relax obj value: 0.395
# Max RMSD: 0.228
# Mean RMSD: 0.150
data_MOF--net-snz--node1-HISSIN_clean_sbu_0--edge1-XIVTED_clean_linker_0
_symmetry_space_group_name_H-M    P1
_symmetry_Int_Tables_number       1
_symmetry_cell_setting            triclinic
loop_
_symmetry_equiv_pos_as_xyz
'x, y, z'
_cell_length_a     69.620714
_cell_length_b     54.925522
_cell_length_c     16.134102
_cell_angle_alpha  95.463566
_cell_angle_beta   96.839033
_cell_angle_gamma 121.4685
loop_
_atom_site_label
_atom_site_type_symbol
_atom_site_fract_x
_atom_site_fract_y
_atom_site_fract_z
_atom_type_partial_charge
Eu0 Eu 0.12656 0.50639 0.27261 0.0
Eu1 Eu 0.08229 0.51375 0.24906 0.0
C2 C 0.10262 0.50667 0.43687 0.0
C3 C 0.16768 0.4809 0.34052 0.0
C4 C 0.17824 0.4889 0.42703 0.0
C5 C 0.1711 0.43874 0.33117 0.0
C6 C 0.18509 0.472 0.4651 0.0
C7 C 0.16432 0.45567 0.29307 0.0
C8 C 0.18161 0.44666 0.41771 0.0
C9 C 0.16133 0.4995 0.29876 0.0
O10 O 0.11207 0.55904 0.25148 0.0
O11 O 0.14206 0.55538 0.3087 0.0
C12 C 0.13364 0.5712 0.28862 0.0
O13 O 0.12376 0.51472 0.13524 0.0
O14 O 0.06553 0.53527 0.29353 0.0
O15 O 0.0475 0.49945 0.18661 0.0
O16 O 0.0892 0.51171 0.11337 0.0
C17 C 0.10673 0.5134 0.08381 0.0
O18 O 0.09599 0.46045 0.21796 0.0
O19 O 0.06568 0.46525 0.23323 0.0
O20 O 0.0911 0.51581 0.39295 0.0
O21 O 0.14533 0.48721 0.23028 0.0
O22 O 0.15961 0.51833 0.34737 0.0
O23 O 0.11432 0.49782 0.39912 0.0
C24 C 0.03811 0.53505 0.19119 0.0
C25 C 0.05268 0.56121 0.1649 0.0
C26 C 1.00537 0.53792 0.13843 0.0
C27 C 0.0436 0.57577 0.12604 0.0
C28 C 1.01445 0.52349 0.17742 0.0
C29 C 0.01982 0.56428 0.11247 0.0
C30 C 0.04709 0.51961 0.23434 0.0
C31 C 0.07379 0.44925 0.21121 0.0
H32 H 0.18135 0.50835 0.46545 0.0
H33 H 0.16849 0.41969 0.29218 0.0
H34 H 0.19294 0.47867 0.53198 0.0
H35 H 0.15663 0.4491 0.22602 0.0
H36 H 0.07102 0.5704 0.17472 0.0
H37 H 0.98705 0.52869 0.13005 0.0
H38 H 0.05514 0.59587 0.10596 0.0
H39 H 1.00299 0.50335 0.19758 0.0
Eu40 Eu 0.62833 0.52935 1.05638 0.0
Eu41 Eu 0.58137 0.53013 1.03596 0.0
C42 C 0.60585 0.53254 0.86899 0.0
C43 C 0.68894 0.54471 1.04289 0.0
C44 C 0.70519 0.5746 1.07175 0.0
C45 C 0.71613 0.54212 0.96612 0.0
C46 C 0.72672 0.58804 1.04828 0.0
C47 C 0.6947 0.52868 0.98992 0.0
C48 C 0.73249 0.57196 0.99519 0.0
C49 C 0.66642 0.52954 1.06981 0.0
O50 O 0.57006 0.4842 1.05086 0.0
O51 O 0.59897 0.48228 1.00437 0.0
C52 C 0.57793 0.46907 1.01893 0.0
O53 O 0.61776 0.52138 0.18671 0.0
O54 O 0.5451 0.50901 0.97784 0.0
O55 O 0.5618 0.54894 1.06971 0.0
O56 O 0.59173 0.53514 0.17992 0.0
C57 C 0.60478 0.52815 0.22425 0.0
O58 O 0.64116 0.57729 0.09056 0.0
O59 O 0.60878 0.57766 1.045 0.0
O60 O 0.58702 0.52618 0.89808 0.0
O61 O 0.66258 0.5442 0.12648 0.0
O62 O 0.64825 0.51236 1.01067 0.0
O63 O 0.62452 0.53864 0.92161 0.0
C64 C 0.52423 0.51282 1.07702 0.0
C65 C 0.52671 0.49811 0.13981 0.0
C66 C 0.48813 0.50217 0.11391 0.0
C67 C 0.51011 0.48566 0.18963 0.0
C68 C 0.50482 0.5147 1.06406 0.0
C69 C 0.49066 0.48767 0.17773 0.0
C70 C 0.54226 0.52666 1.02713 0.0
C71 C 0.63094 0.59146 1.07633 0.0
H72 H 0.70135 0.58763 0.11276 0.0
H73 H 0.72006 0.52894 0.9262 0.0
H74 H 0.73877 0.6111 1.07113 0.0
H75 H 0.68264 0.50557 0.96748 0.0
H76 H 0.54158 0.49639 0.15061 0.0
H77 H 0.47349 0.50437 0.10364 0.0
H78 H 0.51245 0.47428 0.23716 0.0
H79 H 0.5027 0.52608 1.01604 0.0
Eu80 Eu 0.57589 0.06088 0.86272 0.0
Eu81 Eu 0.62806 0.11912 0.90484 0.0
C82 C 0.6025 0.09568 1.06489 0.0
C83 C 0.51715 1.00354 0.89659 0.0
C84 C 0.52101 0.01999 0.97586 0.0
C85 C 0.48049 0.96527 0.92131 0.0
C86 C 0.5048 1.00903 1.02794 0.0
C87 C 0.49677 0.97623 0.8694 0.0
C88 C 0.4844 0.98144 1.00154 0.0
C89 C 0.53483 1.01413 0.84431 0.0
O90 O 0.62583 0.08085 0.95462 0.0
O91 O 0.59973 0.04534 0.84747 0.0
C92 C 0.61758 0.05546 0.90812 0.0
O93 O 0.58126 0.06878 0.72773 0.0
O94 O 0.66298 0.16015 0.94933 0.0
O95 O 0.65788 0.12118 0.87208 0.0
O96 O 0.61766 0.10985 0.75901 0.0
C97 C 0.59924 0.08957 0.70276 0.0
O98 O 0.57117 0.09823 0.89022 0.0
O99 O 0.60615 0.13938 0.88593 0.0
O100 O 0.61969 0.11767 1.03902 0.0
O101 O 0.53891 0.03695 0.81241 0.0
O102 O 0.55369 1.01586 0.87624 0.0
O103 O 0.58585 0.07242 1.00942 0.0
C104 C 0.69719 0.16161 0.90592 0.0
C105 C 0.70254 0.15738 0.82643 0.0
C106 C 0.73673 0.17833 0.97193 0.0
C107 C 0.72453 0.16335 0.81971 0.0
C108 C 0.71478 0.17285 0.97844 0.0
C109 C 0.74185 0.17313 0.8925 0.0
C110 C 0.67254 0.1475 0.91432 0.0
C111 C 0.58383 0.12613 0.88804 0.0
H112 H 0.5367 0.04117 0.99785 0.0
H113 H 0.46511 0.94382 0.89947 0.0
H114 H 0.50821 0.0222 0.08878 0.0
H115 H 0.4936 0.96318 0.80863 0.0
H116 H 0.68931 0.14809 0.76939 0.0
H117 H 0.74956 0.18608 1.02952 0.0
H118 H 0.72753 0.15879 0.75745 0.0
H119 H 0.71115 0.17562 1.04087 0.0
Eu120 Eu 0.77555 0.86914 0.29467 0.0
Eu121 Eu 0.73149 0.87674 0.27231 0.0
C122 C 0.75135 0.8698 0.46051 0.0
C123 C 0.8185 0.8457 0.3518 0.0
C124 C 0.82896 0.8542 0.43834 0.0
C125 C 0.82609 0.8071 0.34075 0.0
C126 C 0.83796 0.83934 0.47556 0.0
C127 C 0.81714 0.82197 0.30353 0.0
C128 C 0.83677 0.81574 0.42707 0.0
C129 C 0.81027 0.86234 0.30994 0.0
O130 O 0.76237 0.92235 0.32912 0.0
O131 O 0.79211 0.91751 0.3049 0.0
C132 C 0.78443 0.93362 0.33108 0.0
O133 O 0.76651 0.86686 0.15084 0.0
O134 O 0.71345 0.89703 0.31356 0.0
O135 O 0.69784 0.86395 0.20049 0.0
O136 O 0.74354 0.88523 0.14532 0.0
C137 C 0.75511 0.8762 0.10722 0.0
O138 O 0.7457 0.82379 0.29149 0.0
O139 O 0.71578 0.82776 0.23579 0.0
O140 O 0.73408 0.86786 0.40891 0.0
O141 O 0.79228 0.84774 0.24848 0.0
O142 O 0.81003 0.88266 0.35782 0.0
O143 O 0.76907 0.87206 0.43096 0.0
C144 C 0.6891 0.90031 0.20512 0.0
C145 C 0.7051 0.92709 0.18522 0.0
C146 C 0.65819 0.90597 0.14486 0.0
C147 C 0.69768 0.94332 0.14609 0.0
C148 C 0.66562 0.88984 0.18415 0.0
C149 C 0.67411 0.93304 0.12572 0.0
C150 C 0.69641 0.88312 0.24858 0.0
C151 C 0.72411 0.81178 0.25501 0.0
H152 H 0.83056 0.8726 0.47719 0.0
H153 H 0.82462 0.78879 0.30181 0.0
H154 H 0.84636 0.84685 0.5419 0.0
H155 H 0.80937 0.81508 0.23652 0.0
H156 H 0.72331 0.93551 0.20034 0.0
H157 H 0.63996 0.8975 0.1313 0.0
H158 H 0.71043 0.96386 0.13138 0.0
H159 H 0.65299 0.86924 0.19902 0.0
Eu160 Eu 0.2774 0.85249 0.51604 0.0
Eu161 Eu 0.23043 0.85324 0.49464 0.0
C162 C 0.25409 0.85463 0.32741 0.0
C163 C 0.33436 0.86956 0.47493 0.0
C164 C 0.33191 0.8846 0.41314 0.0
C165 C 0.37026 0.88002 0.43661 0.0
C166 C 0.34842 0.8971 0.36305 0.0
C167 C 0.35365 0.86743 0.48674 0.0
C168 C 0.36773 0.89481 0.37368 0.0
C169 C 0.31635 0.85559 0.52472 0.0
O170 O 0.21791 0.80541 0.4583 0.0
O171 O 0.25002 0.80514 0.50899 0.0
C172 C 0.22803 0.79127 0.47488 0.0
O173 O 0.27183 0.85664 0.65381 0.0
O174 O 0.19587 0.83745 0.42467 0.0
O175 O 0.21034 0.87004 0.53878 0.0
O176 O 0.23441 0.84448 0.63013 0.0
C177 C 0.25304 0.85048 0.68282 0.0
O178 O 0.2891 0.89857 0.50248 0.0
O179 O 0.25961 0.90069 0.54289 0.0
O180 O 0.24106 0.86135 0.36466 0.0
O181 O 0.31358 0.87318 0.57463 0.0
O182 O 0.29679 0.83346 0.48175 0.0
O183 O 0.2671 0.8476 0.37193 0.0
C184 C 0.16955 0.83679 0.50778 0.0
C185 C 0.16793 0.8398 0.59383 0.0
C186 C 0.12773 0.80603 0.46971 0.0
C187 C 0.14642 0.82627 0.61736 0.0
C188 C 0.14922 0.81969 0.44616 0.0
C189 C 0.12602 0.80932 0.55558 0.0
C190 C 0.19204 0.8523 0.48066 0.0
C191 C 0.2809 0.91377 0.53075 0.0
H192 H 0.31712 0.88651 0.40325 0.0
H193 H 0.38482 0.87763 0.44586 0.0
H194 H 0.34609 0.9087 0.31622 0.0
H195 H 0.35574 0.8558 0.53398 0.0
H196 H 0.18323 0.8528 0.64309 0.0
H197 H 0.11242 0.79346 0.42031 0.0
H198 H 0.14579 0.829 0.68415 0.0
H199 H 0.14992 0.81719 0.37936 0.0
Eu200 Eu 0.22845 0.26003 0.63545 0.0
Eu201 Eu 0.28042 0.31914 0.67715 0.0
C202 C 0.25485 0.29201 0.83476 0.0
C203 C 0.16296 0.21779 0.62671 0.0
C204 C 0.16175 0.23059 0.70427 0.0
C205 C 0.12298 0.20236 0.57308 0.0
C206 C 0.14143 0.22912 0.71618 0.0
C207 C 0.14327 0.20375 0.56135 0.0
C208 C 0.12157 0.2149 0.6509 0.0
C209 C 0.18439 0.21884 0.61274 0.0
O210 O 0.28504 0.283 0.62915 0.0
O211 O 0.2531 0.24378 0.65899 0.0
C212 C 0.27438 0.2565 0.64475 0.0
O213 O 0.23876 0.26325 0.50341 0.0
O214 O 0.3173 0.34151 0.72769 0.0
O215 O 0.30348 0.36489 0.67244 0.0
O216 O 0.26943 0.31078 0.53185 0.0
C217 C 0.25407 0.28677 0.47653 0.0
O218 O 0.22474 0.29716 0.60962 0.0
O219 O 0.2574 0.33596 0.69309 0.0
O220 O 0.27455 0.30672 0.80883 0.0
O221 O 0.1997 0.22451 0.67921 0.0
O222 O 0.19416 0.2321 0.55301 0.0
O223 O 0.2353 0.27761 0.77839 0.0
C224 C 0.33969 0.37663 0.64892 0.0
C225 C 0.33573 0.36102 0.56802 0.0
C226 C 0.37661 0.41511 0.62667 0.0
C227 C 0.35205 0.37247 0.51649 0.0
C228 C 0.36024 0.40365 0.67807 0.0
C229 C 0.37266 0.39975 0.54497 0.0
C230 C 0.322 0.36539 0.7012 0.0
C231 C 0.23695 0.32458 0.64614 0.0
H232 H 0.17655 0.24185 0.75603 0.0
H233 H 0.10821 0.19091 0.52127 0.0
H234 H 0.14143 0.23951 0.77665 0.0
H235 H 0.14353 0.19363 0.50083 0.0
H236 H 0.3199 0.34009 0.54447 0.0
H237 H 0.39214 0.43632 0.6502 0.0
H238 H 0.34856 0.35988 0.45449 0.0
H239 H 0.36349 0.41607 0.74013 0.0
Eu240 Eu 0.43339 0.19373 0.68048 0.0
Eu241 Eu 0.42408 0.18718 0.86518 0.0
C242 C 0.39649 0.13144 0.71745 0.0
C243 C 0.41398 0.15825 0.46636 0.0
C244 C 0.39233 0.14328 0.48936 0.0
C245 C 0.40353 0.11387 0.37419 0.0
C246 C 0.37661 0.11386 0.4564 0.0
C247 C 0.41935 0.14335 0.40778 0.0
C248 C 0.38213 0.09859 0.39949 0.0
C249 C 0.43231 0.18618 0.51975 0.0
O250 O 0.44851 0.1717 0.84583 0.0
O251 O 0.46605 0.19874 0.74891 0.0
C252 C 0.46596 0.18328 0.80627 0.0
O253 O 0.45633 0.24091 0.748 0.0
O254 O 0.40227 0.18053 0.95826 0.0
O255 O 0.43205 0.1777 0.98861 0.0
O256 O 0.45292 0.23498 0.88664 0.0
C257 C 0.46211 0.25162 0.83038 0.0
O258 O 0.40031 0.1936 0.68175 0.0
O259 O 0.40542 0.20891 0.82314 0.0
O260 O 0.39414 0.14596 0.78002 0.0
O261 O 0.42577 0.20237 0.55496 0.0
O262 O 0.44637 0.18379 0.57408 0.0
O263 O 0.41437 0.14527 0.68238 0.0
C264 C 0.3965 0.13969 1.01057 0.0
C265 C 0.39607 0.11776 0.95585 0.0
C266 C 0.36333 0.10268 1.05781 0.0
C267 C 0.37963 0.08848 0.95325 0.0
C268 C 0.37986 0.13194 1.06072 0.0
C269 C 0.36309 0.0806 1.00433 0.0
C270 C 0.41198 0.17034 1.00496 0.0
C271 C 0.39473 0.20411 0.74496 0.0
H272 H 0.38792 0.15391 0.53656 0.0
H273 H 0.40812 0.10309 0.32827 0.0
H274 H 0.36043 0.10292 0.47761 0.0
H275 H 0.4361 0.15419 0.39072 0.0
H276 H 0.40835 0.12326 0.91442 0.0
H277 H 0.35122 0.09735 0.09989 0.0
H278 H 0.37999 0.072 0.9121 0.0
H279 H 0.37955 0.1485 0.10171 0.0
Eu280 Eu 0.93081 0.17412 0.84465 0.0
Eu281 Eu 0.92883 0.20678 0.69006 0.0
C282 C 0.96236 0.24574 0.87261 0.0
C283 C 0.90544 0.11689 0.97473 0.0
C284 C 0.88416 0.11085 0.93366 0.0
C285 C 0.88593 0.08036 1.05981 0.0
C286 C 0.86411 0.09147 0.95988 0.0
C287 C 0.90618 0.10053 1.03487 0.0
C288 C 0.86476 0.07718 1.02746 0.0
C289 C 0.92652 0.14165 0.95803 0.0
O290 O 0.95912 0.20129 0.68026 0.0
O291 O 0.96575 0.19092 0.81141 0.0
C292 C 0.972 0.19772 0.73889 0.0
O293 O 0.91549 0.1406 0.72301 0.0
O294 O 0.92743 0.20705 0.55436 0.0
O295 O 0.92428 0.23845 0.63313 0.0
O296 O 0.89828 0.16005 0.65319 0.0
C297 C 0.89942 0.13746 0.66361 0.0
O298 O 0.89652 0.17137 0.83558 0.0
O299 O 0.90404 0.20856 0.76529 0.0
O300 O 0.95619 0.24472 0.79125 0.0
O301 O 0.93153 0.13767 0.88476 0.0
O302 O 0.92842 0.16665 0.97441 0.0
O303 O 0.95416 0.22209 0.90658 0.0
C304 C 0.89779 0.21322 0.50339 0.0
C305 C 0.89509 0.21012 0.41495 0.0
C306 C 0.85665 0.17901 0.48834 0.0
C307 C 0.87349 0.19041 0.36344 0.0
C308 C 0.87822 0.19872 0.53967 0.0
C309 C 0.85432 0.17326 0.39984 0.0
C310 C 0.92066 0.22519 0.55602 0.0
C311 C 0.89115 0.18944 0.80921 0.0
H312 H 0.88317 0.1226 0.88488 0.0
H313 H 0.88733 0.06878 0.10832 0.0
H314 H 0.84863 0.09002 0.93129 0.0
H315 H 0.92246 0.10426 1.0653 0.0
H316 H 0.90997 0.22083 0.38572 0.0
H317 H 0.84225 0.16633 0.51827 0.0
H318 H 0.87243 0.18637 0.29553 0.0
H319 H 0.87987 0.20053 0.60785 0.0
Eu320 Eu 0.91671 0.66514 0.68772 0.0
Eu321 Eu 0.94045 0.71732 0.85523 0.0
C322 C 0.91076 0.71867 0.69178 0.0
C323 C 0.87252 0.61929 0.49776 0.0
C324 C 0.857 0.62416 0.53295 0.0
C325 C 0.85667 0.62201 0.35939 0.0
C326 C 0.84246 0.6297 0.48275 0.0
C327 C 0.87127 0.61654 0.40981 0.0
C328 C 0.84327 0.63056 0.39656 0.0
C329 C 0.89318 0.62462 0.55365 0.0
O330 O 0.9072 0.68174 0.88513 0.0
O331 O 0.88782 0.66104 0.74813 0.0
C332 C 0.88784 0.66509 0.82955 0.0
O333 O 0.92909 0.64846 0.79008 0.0
O334 O 0.9565 0.76361 0.90322 0.0
O335 O 0.95093 0.73428 0.99166 0.0
O336 O 0.95651 0.69152 0.87943 0.0
C337 C 0.94709 0.66357 0.85265 0.0
O338 O 0.95464 0.68821 0.68771 0.0
O339 O 0.96599 0.73213 0.76758 0.0
O340 O 0.91409 0.72146 0.77449 0.0
O341 O 0.91189 0.64938 0.55284 0.0
O342 O 0.89112 0.61972 0.63074 0.0
O343 O 0.91616 0.70291 0.64624 0.0
C344 C 0.94094 0.76827 1.02153 0.0
C345 C 0.94287 0.77152 0.10981 0.0
C346 C 0.90422 0.76441 1.00749 0.0
C347 C 0.92497 0.7695 0.14621 0.0
C348 C 0.92213 0.76648 0.97121 0.0
C349 C 0.9048 0.76398 0.09457 0.0
C350 C 0.95502 0.75978 0.98143 0.0
C351 C 0.97001 0.71603 0.71567 0.0
H352 H 0.85759 0.62644 0.60065 0.0
H353 H 0.85785 0.62268 0.29322 0.0
H354 H 0.83218 0.63593 0.51294 0.0
H355 H 0.88317 0.61302 0.38144 0.0
H356 H 0.95715 0.77279 0.14971 0.0
H357 H 0.88905 0.76053 0.96629 0.0
H358 H 0.92596 0.76908 0.2135 0.0
H359 H 0.9202 0.76405 0.90282 0.0
H360 H 0.13628 0.50916 0.98862 0.0
H361 H 0.07703 0.51784 0.53659 0.0
H362 H 0.07737 0.51665 0.95791 0.0
H363 H 0.12882 0.4969 0.55865 0.0
H364 H 0.07818 0.51966 0.69008 0.0
H365 H 0.13525 0.50712 0.83483 0.0
C366 C 0.12316 0.51054 0.9502 0.0
C367 C 0.10693 0.51316 0.98856 0.0
C368 C 0.08931 0.51461 0.66167 0.0
C369 C 0.10565 0.51081 0.80868 0.0
C370 C 0.08866 0.51353 0.57314 0.0
C371 C 0.10277 0.50706 0.53232 0.0
C372 C 0.10437 0.50949 0.71233 0.0
C373 C 0.11745 0.50184 0.5855 0.0
C374 C 0.12254 0.50926 0.86151 0.0
C375 C 0.09035 0.51465 0.93303 0.0
N376 N 0.1179 0.50327 0.67152 0.0
N377 N 0.09022 0.51355 0.84734 0.0
H378 H 0.63909 0.53693 0.7796 0.0
H379 H 0.5749 0.53143 0.31787 0.0
H380 H 0.57298 0.5272 0.73743 0.0
H381 H 0.63433 0.52504 0.35121 0.0
H382 H 0.57505 0.53241 0.47049 0.0
H383 H 0.63882 0.53535 0.62656 0.0
C384 C 0.62448 0.53458 0.73874 0.0
C385 C 0.60603 0.53227 0.77373 0.0
C386 C 0.5881 0.53077 0.44482 0.0
C387 C 0.60569 0.53051 0.59451 0.0
C388 C 0.58807 0.53025 0.35681 0.0
C389 C 0.60464 0.52813 0.31939 0.0
C390 C 0.60499 0.52953 0.49849 0.0
C391 C 0.62109 0.5266 0.37543 0.0
C392 C 0.62434 0.53358 0.65046 0.0
C393 C 0.58768 0.52911 0.71517 0.0
N394 N 0.6209 0.52748 0.46101 0.0
N395 N 0.58805 0.52846 0.6298 0.0
H396 H 0.56553 0.0511 0.56107 0.0
H397 H 0.63493 0.13642 0.20641 0.0
H398 H 0.63276 0.12994 0.62481 0.0
H399 H 0.56918 0.05534 0.14322 0.0
H400 H 0.63405 0.13515 0.3582 0.0
H401 H 0.56617 0.0529 0.40948 0.0
C402 C 0.58046 0.06887 0.54382 0.0
C403 C 0.5991 0.09038 0.60791 0.0
C404 C 0.61976 0.11762 0.31128 0.0
C405 C 0.59995 0.09262 0.4309 0.0
C406 C 0.62022 0.11836 0.22381 0.0
C407 C 0.60211 0.09599 0.15983 0.0
C408 C 0.601 0.09436 0.33696 0.0
C409 C 0.58365 0.07321 0.18868 0.0
C410 C 0.58081 0.06987 0.45645 0.0
C411 C 0.61787 0.11274 0.57923 0.0
N412 N 0.58361 0.07303 0.27384 0.0
N413 N 0.61778 0.11324 0.4941 0.0
H414 H 0.72145 0.87332 0.55517 0.0
H415 H 0.78079 0.86519 1.00774 0.0
H416 H 0.78108 0.86734 0.58697 0.0
H417 H 0.72893 0.886 0.9853 0.0
H418 H 0.77978 0.86352 0.85438 0.0
H419 H 0.72241 0.87532 0.7089 0.0
C420 C 0.73473 0.87226 0.59383 0.0
C421 C 0.75118 0.87007 0.55579 0.0
C422 C 0.7686 0.86851 0.88267 0.0
C423 C 0.75235 0.87235 0.7356 0.0
C424 C 0.76916 0.86949 0.97112 0.0
C425 C 0.755 0.87588 1.01181 0.0
C426 C 0.75355 0.87361 0.83191 0.0
C427 C 0.74033 0.88112 0.95855 0.0
C428 C 0.7353 0.87352 0.68248 0.0
C429 C 0.76793 0.869 0.6116 0.0
N430 N 0.73995 0.87975 0.87256 0.0
N431 N 0.768 0.87004 0.69726 0.0
H432 H 0.21991 0.84641 0.77241 0.0
H433 H 0.28394 0.85124 0.23368 0.0
H434 H 0.28581 0.85554 0.81414 0.0
H435 H 0.22466 0.85795 0.20069 0.0
H436 H 0.28379 0.85036 0.08104 0.0
H437 H 0.2202 0.84795 0.92547 0.0
C438 C 0.23447 0.84862 0.81318 0.0
C439 C 0.25286 0.85078 0.77807 0.0
C440 C 0.27078 0.85204 0.10681 0.0
C441 C 0.25322 0.85248 0.95727 0.0
C442 C 0.2708 0.85251 0.19481 0.0
C443 C 0.25427 0.85469 0.2323 0.0
C444 C 0.25393 0.8534 1.05326 0.0
C445 C 0.23787 0.85634 0.17639 0.0
C446 C 0.23463 0.84959 0.90146 0.0
C447 C 0.27116 0.85376 0.8365 0.0
N448 N 0.23806 0.85552 0.09084 0.0
N449 N 0.2708 0.85439 0.92185 0.0
H450 H 0.21836 0.25741 0.91192 0.0
H451 H 0.28785 0.32682 0.3995 0.0
H452 H 0.29039 0.32446 0.97777 0.0
H453 H 0.22099 0.24749 0.33272 0.0
H454 H 0.28814 0.32804 0.24787 0.0
H455 H 0.21805 0.25542 1.06357 0.0
C456 C 0.23418 0.27189 0.9578 0.0
C457 C 0.25445 0.2912 0.92972 0.0
C458 C 0.27336 0.31029 0.26591 0.0
C459 C 0.25412 0.28905 0.10758 0.0
C460 C 0.27313 0.30953 0.35342 0.0
C461 C 0.25436 0.28693 0.38129 0.0
C462 C 0.25453 0.28851 0.20314 0.0
C463 C 0.23597 0.26536 0.31612 0.0
C464 C 0.23397 0.27063 1.04521 0.0
C465 C 0.27426 0.30915 0.99448 0.0
N466 N 0.23649 0.2668 0.23139 0.0
N467 N 0.27354 0.30772 1.07903 0.0
H468 H 0.33493 0.07052 0.35532 0.0
H469 H 0.31684 0.04944 1.00973 0.0
H470 H 0.38924 0.05431 0.35755 0.0
H471 H 0.3748 0.04036 1.02064 0.0
H472 H 0.3021 1.01541 0.10648 0.0
H473 H 0.31062 0.02816 0.2455 0.0
C474 C 0.34174 0.0578 0.33386 0.0
C475 C 0.365 0.06767 0.35985 0.0
C476 C 0.31797 0.02049 0.08739 0.0
C477 C 0.33782 0.02062 0.22739 0.0
C478 C 0.32621 0.03971 1.03092 0.0
C479 C 0.34829 0.05005 1.01473 0.0
C480 C 0.33313 1.01442 0.13263 0.0
C481 C 0.35862 0.03492 1.03767 0.0
C482 C 0.32776 0.03342 0.26978 0.0
C483 C 0.37207 0.04904 0.33326 0.0
N484 N 0.35131 0.01837 0.09818 0.0
N485 N 0.35878 0.02683 0.26634 0.0
H486 H 0.83079 0.16245 0.2369 0.0
H487 H 0.81822 0.05737 0.97305 0.0
H488 H 0.83348 0.11977 0.44469 0.0
H489 H 0.86528 0.06786 0.19467 0.0
H490 H 0.79672 0.06645 1.06663 0.0
H491 H 0.81388 0.11669 0.13875 0.0
C492 C 0.82689 0.14315 0.26232 0.0
C493 C 0.83471 0.14529 0.34852 0.0
C494 C 0.8114 0.06584 0.09414 0.0
C495 C 0.81579 0.09296 0.23671 0.0
C496 C 0.82404 0.06115 1.0409 0.0
C497 C 0.84544 0.06546 1.0754 0.0
C498 C 0.81985 0.07367 0.18202 0.0
C499 C 0.85011 0.06662 0.16355 0.0
C500 C 0.81702 0.11681 0.20621 0.0
C501 C 0.82857 0.11943 0.37827 0.0
N502 N 0.83786 0.0717 0.21391 0.0
N503 N 0.82045 0.09457 0.32207 0.0
H504 H 0.82102 0.61755 0.23046 0.0
H505 H 0.89747 0.78041 0.24841 0.0
H506 H 0.84842 0.68198 0.45961 0.0
H507 H 0.86287 0.7164 1.01702 0.0
H508 H 0.86782 0.74728 0.3197 0.0
H509 H 0.82315 0.65371 0.14865 0.0
C510 C 0.82672 0.639 0.26377 0.0
C511 C 0.8354 0.64707 0.35154 0.0
C512 C 0.86621 0.74088 0.25264 0.0
C513 C 0.83851 0.68867 0.25794 0.0
C514 C 0.8832 0.75984 0.21185 0.0
C515 C 0.88318 0.75073 0.12763 0.0
C516 C 0.8495 0.7125 0.20941 0.0
C517 C 0.86393 0.72417 0.08266 0.0
C518 C 0.82794 0.65967 0.21697 0.0
C519 C 0.84203 0.67493 0.39171 0.0
N520 N 0.84826 0.70559 0.12482 0.0
N521 N 0.8442 0.69504 0.34433 0.0
H522 H 0.25909 0.38433 0.68708 0.0
H523 H 0.15905 0.38715 0.39293 0.0
H524 H 0.19474 0.30766 0.55584 0.0
H525 H 0.22104 0.46486 0.53436 0.0
H526 H 0.17182 0.35797 0.45532 0.0
H527 H 0.24525 0.4144 0.63736 0.0
C528 C 0.24197 0.37377 0.64878 0.0
C529 C 0.22814 0.34333 0.62553 0.0
C530 C 0.18264 0.38141 0.47309 0.0
C531 C 0.21228 0.3777 0.56748 0.0
C532 C 0.1754 0.39814 0.43693 0.0
C533 C 0.189 0.42862 0.45786 0.0
C534 C 0.20375 0.39509 0.5307 0.0
C535 C 0.20986 0.44147 0.51671 0.0
C536 C 0.23412 0.39098 0.62006 0.0
C537 C 0.20613 0.33098 0.57527 0.0
N538 N 0.21663 0.42469 0.55063 0.0
N539 N 0.199 0.34815 0.5477 0.0
H540 H 0.67699 0.62824 0.14831 0.0
H541 H 0.67813 0.77639 0.17545 0.0
H542 H 0.61671 0.62971 1.05967 0.0
H543 H 0.73621 0.77218 0.27839 0.0
H544 H 0.65538 0.72324 0.13077 0.0
H545 H 0.69889 0.68106 0.19248 0.0
C546 C 0.6683 0.63957 0.13762 0.0
C547 C 0.64481 0.62411 0.09981 0.0
C548 C 0.67308 0.73396 0.1634 0.0
C549 C 0.67009 0.68535 0.15125 0.0
C550 C 0.68612 0.76441 0.18923 0.0
C551 C 0.70926 0.77915 0.23122 0.0
C552 C 0.68318 0.71788 0.17908 0.0
C553 C 0.71851 0.7621 0.24659 0.0
C554 C 0.68088 0.6699 0.16325 0.0
C555 C 0.63471 0.64044 0.08827 0.0
N556 N 0.70555 0.73266 0.2205 0.0
N557 N 0.64734 0.66998 0.11378 0.0
H558 H 0.49285 0.98429 0.17396 0.0
H559 H 0.35971 0.89387 0.20259 0.0
H560 H 0.43731 0.95083 0.95792 0.0
H561 H 0.41484 0.92453 0.41822 0.0
H562 H 0.388 0.91545 0.11281 0.0
H563 H 0.4647 0.96362 0.26515 0.0
C564 C 0.47474 0.97278 0.14573 0.0
C565 C 0.46746 0.96932 1.058 0.0
C566 C 0.39395 0.91747 0.17974 0.0
C567 C 0.43509 0.94528 0.16211 0.0
C568 C 0.37778 0.90529 0.23123 0.0
C569 C 0.38488 0.90746 0.3183 0.0
C570 C 0.41747 0.93204 0.21531 0.0
C571 C 0.40856 0.92206 0.35136 0.0
C572 C 0.45867 0.9608 0.19781 0.0
C573 C 0.44374 0.95375 1.02492 0.0
N574 N 0.42399 0.93385 0.2999 0.0
N575 N 0.42844 0.94236 1.07695 0.0
H576 H 0.58738 0.16956 0.7995 0.0
H577 H 0.47101 0.15089 0.91774 0.0
H578 H 0.54936 0.11591 0.97151 0.0
H579 H 0.50488 0.20256 0.73493 0.0
H580 H 0.50137 0.14089 0.94334 0.0
H581 H 0.56001 0.18552 0.78194 0.0
C582 C 0.57372 0.16168 0.83519 0.0
C583 C 0.57095 0.14139 0.88758 0.0
C584 C 0.50231 0.15451 0.89769 0.0
C585 C 0.53905 0.15915 0.86634 0.0
C586 C 0.48483 0.16027 0.88293 0.0
C587 C 0.48507 0.17763 0.82376 0.0
C588 C 0.52054 0.1661 0.85325 0.0
C589 C 0.50374 0.18903 0.78109 0.0
C590 C 0.55786 0.17053 0.82435 0.0
C591 C 0.5524 0.13154 0.93044 0.0
N592 N 0.52055 0.18306 0.79642 0.0
N593 N 0.53735 0.14032 0.91871 0.0
H594 H 0.9944 0.26026 1.01823 0.0
H595 H 0.02913 0.42436 0.13119 0.0
H596 H 0.96828 0.29802 0.85264 0.0
H597 H 0.07989 0.40296 0.19384 0.0
H598 H 1.00241 0.37483 1.05229 0.0
H599 H 0.02186 0.3091 0.10494 0.0
C600 C 0.99433 0.27872 1.00031 0.0
C601 C 0.97897 0.27492 0.92769 0.0
C602 C 0.01933 0.38088 0.08381 0.0
C603 C 1.01004 0.33074 1.02769 0.0
C604 C 0.03462 0.40917 0.12961 0.0
C605 C 0.05693 0.41807 0.16984 0.0
C606 C 0.02599 0.36076 1.07916 0.0
C607 C 0.06293 0.3972 0.16402 0.0
C608 C 1.01008 0.30658 1.04959 0.0
C609 C 0.97982 0.29979 0.90756 0.0
N610 N 0.04754 0.36951 0.12009 0.0
N611 N 0.99483 0.32642 0.95752 0.0
H612 H 0.87917 0.67324 0.98932 0.0
H613 H 0.74251 0.5633 0.83961 0.0
H614 H 0.84505 0.62618 0.7331 0.0
H615 H 0.77498 0.61285 0.09415 0.0
H616 H 0.78023 0.58569 0.80096 0.0
H617 H 0.84159 0.65093 1.03069 0.0
C618 C 0.86384 0.65818 0.9418 0.0
C619 C 0.86539 0.65158 0.85748 0.0
C620 C 0.77915 0.59173 0.86531 0.0
C621 C 0.82223 0.62611 0.90439 0.0
C622 C 0.75757 0.5788 0.8876 0.0
C623 C 0.75545 0.58608 0.97043 0.0
C624 C 0.79895 0.61212 0.92623 0.0
C625 C 0.77566 0.60674 1.02929 0.0
C626 C 0.84235 0.64553 0.96543 0.0
C627 C 0.84484 0.63204 0.79872 0.0
N628 N 0.7965 0.61891 1.00609 0.0
N629 N 0.82424 0.62006 0.82324 0.0
H630 H 0.93178 0.60578 0.81916 0.0
H631 H 0.03686 0.62276 0.14063 0.0
H632 H 0.98631 0.68747 0.9749 0.0
H633 H 0.9803 0.54091 0.99313 0.0
H634 H 0.01942 0.64726 1.07756 0.0
H635 H 0.94982 0.58196 0.88069 0.0
C636 C 0.94752 0.61874 0.86647 0.0
C637 C 0.9575 0.64872 0.89185 0.0
C638 C 1.01084 0.62394 1.05897 0.0
C639 C 0.97837 0.62148 0.96248 0.0
C640 C 0.02087 0.60997 0.09449 0.0
C641 C 1.00999 0.57971 1.07237 0.0
C642 C 0.98981 0.60756 1.00063 0.0
C643 C 0.98914 0.56421 1.01303 0.0
C644 C 0.95784 0.60509 0.90157 0.0
C645 C 0.97794 0.66431 0.95346 0.0
N646 N 0.97974 0.57829 0.97934 0.0
N647 N 0.98771 0.65052 0.98654 0.0
H648 H 0.58104 0.43064 0.90633 0.0
H649 H 0.46959 0.28608 0.98194 0.0
H650 H 0.53838 0.43301 1.07585 0.0
H651 H 0.49491 0.29041 0.74909 0.0
H652 H 0.49808 0.33832 1.02987 0.0
H653 H 0.55339 0.37798 0.86127 0.0
C654 C 0.56603 0.42012 0.93488 0.0
C655 C 0.56218 0.43654 0.99526 0.0
C656 C 0.49742 0.32784 0.96831 0.0
C657 C 0.53034 0.37585 0.94394 0.0
C658 C 0.48116 0.29791 0.94088 0.0
C659 C 0.47963 0.28356 0.86094 0.0
C660 C 0.51277 0.34375 0.91653 0.0
C661 C 0.49522 0.30037 0.81086 0.0
C662 C 0.55014 0.39002 0.9086 0.0
C663 C 0.54217 0.42146 1.02912 0.0
N664 N 0.51114 0.32935 0.83958 0.0
N665 N 0.52718 0.39213 1.00349 0.0
H666 H 0.87138 0.21728 0.74183 0.0
H667 H 0.76722 0.15763 0.99462 0.0
H668 H 0.86113 0.15757 0.91259 0.0
H669 H 0.76868 0.19613 0.77291 0.0
H670 H 0.80329 0.16149 0.97729 0.0
H671 H 0.83594 0.21367 0.76366 0.0
C672 C 0.86178 0.20342 0.78426 0.0
C673 C 0.86954 0.18768 0.82517 0.0
C674 C 0.79574 0.16913 0.93251 0.0
C675 C 0.8284 0.18367 0.85135 0.0
C676 C 0.77516 0.16716 0.94273 0.0
C677 C 0.76463 0.17658 0.88525 0.0
C678 C 0.80632 0.18105 0.86495 0.0
C679 C 0.77584 0.18833 0.81861 0.0
C680 C 0.84138 0.20134 0.79657 0.0
C681 C 0.85601 0.17014 0.87942 0.0
N682 N 0.79594 0.19033 0.8107 0.0
N683 N 0.83628 0.16873 0.89115 0.0
H684 H 0.65639 0.07283 1.02286 0.0
H685 H 0.63601 0.9144 1.00125 0.0
H686 H 0.59965 0.99706 0.85141 0.0
H687 H 0.69386 0.99216 0.16182 0.0
H688 H 0.62256 0.94377 0.94347 0.0
H689 H 0.67053 0.04333 1.0711 0.0
C690 C 0.64689 0.04994 0.99501 0.0
C691 C 0.6267 0.03744 0.93307 0.0
C692 C 0.63825 0.95441 0.99107 0.0
C693 C 0.64291 1.00323 0.98876 0.0
C694 C 0.6459 0.93763 1.02453 0.0
C695 C 0.66614 0.95073 0.08688 0.0
C696 C 0.65083 0.98459 1.02023 0.0
C697 C 0.67835 0.98103 0.1133 0.0
C698 C 0.65503 0.03306 1.0227 0.0
C699 C 0.61528 1.00765 0.89922 0.0
N700 N 0.67047 0.99681 0.08022 0.0
N701 N 0.62347 0.99153 0.92782 0.0
H702 H 0.24224 0.75339 0.49851 0.0
H703 H 0.12159 0.6104 0.25841 0.0
H704 H 0.18259 0.75417 0.39446 0.0
H705 H 0.17908 0.60706 0.37457 0.0
H706 H 0.1443 0.66304 0.30435 0.0
H707 H 0.2201 0.70045 0.45238 0.0
C708 C 0.22448 0.74253 0.46638 0.0
C709 C 0.2144 0.75863 0.45081 0.0
C710 C 0.15205 0.65091 0.31974 0.0
C711 C 0.1888 0.69748 0.39676 0.0
C712 C 0.13905 0.62065 0.29316 0.0
C713 C 0.14829 0.60385 0.31224 0.0
C714 C 0.17467 0.66502 0.36617 0.0
C715 C 0.17112 0.61885 0.35791 0.0
C716 C 0.21183 0.71218 0.43981 0.0
C717 C 0.19124 0.74298 0.40839 0.0
N718 N 0.18345 0.64842 0.38326 0.0
N719 N 0.17936 0.71352 0.38292 0.0
H720 H 0.49823 0.48857 0.3491 0.0
H721 H 0.36473 0.3985 0.37318 0.0
H722 H 0.44354 0.4578 0.13167 0.0
H723 H 0.41974 0.42974 0.58976 0.0
H724 H 0.39319 0.41959 0.28338 0.0
H725 H 0.46964 0.46687 0.43775 0.0
C726 C 0.4802 0.47711 0.3198 0.0
C727 C 0.47332 0.47495 0.23253 0.0
C728 C 0.39904 0.42183 0.35054 0.0
C729 C 0.44038 0.45023 0.33429 0.0
C730 C 0.38278 0.40962 0.40185 0.0
C731 C 0.38981 0.4123 0.48935 0.0
C732 C 0.42256 0.43684 0.38676 0.0
C733 C 0.41349 0.42742 0.52296 0.0
C734 C 0.46386 0.46485 0.37066 0.0
C735 C 0.44968 0.46029 0.19869 0.0
N736 N 0.42897 0.43906 0.47168 0.0
N737 N 0.43408 0.44845 0.24955 0.0
H738 H 0.90543 0.72406 0.52419 0.0
H739 H 0.83592 0.80133 0.58556 0.0
H740 H 0.89053 0.74413 0.7644 0.0
H741 H 0.8612 0.79568 0.35737 0.0
H742 H 0.85371 0.77742 0.64912 0.0
H743 H 0.88715 0.74727 0.45858 0.0
C744 C 0.89834 0.73334 0.56311 0.0
C745 C 0.8997 0.73236 0.65008 0.0
C746 C 0.85537 0.78142 0.58513 0.0
C747 C 0.8785 0.75858 0.57524 0.0
C748 C 0.84529 0.79519 0.5489 0.0
C749 C 0.84706 0.80059 0.46594 0.0
C750 C 0.86733 0.77292 0.53819 0.0
C751 C 0.8591 0.79166 0.42107 0.0
C752 C 0.8879 0.74659 0.52563 0.0
C753 C 0.8901 0.74461 0.69733 0.0
N754 N 0.86881 0.77835 0.45787 0.0
N755 N 0.87989 0.75713 0.65929 0.0
H756 H 0.39736 0.09343 0.59536 0.0
H757 H 0.2749 0.95369 0.6231 0.0
H758 H 0.35573 0.09607 0.76932 0.0
H759 H 0.3233 0.94863 0.49039 0.0
H760 H 0.30236 1.00641 0.6665 0.0
H761 H 0.36879 0.04141 0.54615 0.0
C762 C 0.38224 0.08315 0.62341 0.0
C763 C 0.37911 0.09947 0.68686 0.0
C764 C 0.30693 0.99378 0.62756 0.0
C765 C 0.34603 0.03929 0.63036 0.0
C766 C 0.29116 0.96359 0.60228 0.0
C767 C 0.29662 0.94636 0.55279 0.0
C768 C 0.32839 1.00718 0.6027 0.0
C769 C 0.31818 0.96075 0.52859 0.0
C770 C 0.36588 0.0533 0.59521 0.0
C771 C 0.35901 0.08461 0.72033 0.0
N772 N 0.33312 0.99008 0.55354 0.0
N773 N 0.34333 0.05556 0.69177 0.0
H774 H 0.99098 0.20793 0.59378 0.0
H775 H 0.1032 0.20876 0.79666 0.0
H776 H 1.00415 0.1951 0.84882 0.0
H777 H 0.0891 0.21629 0.53588 0.0
H778 H 0.0677 0.2054 0.81703 0.0
H779 H 0.02699 0.21242 0.57162 0.0
C780 C 1.00136 0.2061 0.64529 0.0
C781 C 0.9942 0.20106 0.72344 0.0
C782 C 0.07232 0.2078 0.75524 0.0
C783 C 0.03587 0.20627 0.69821 0.0
C784 C 0.09283 0.20994 0.74355 0.0
C785 C 0.09957 0.2129 0.66423 0.0
C786 C 0.05809 0.20869 0.68742 0.0
C787 C 0.08477 0.21369 0.598 0.0
C788 C 0.022 0.20864 0.63246 0.0
C789 C 1.00866 0.19891 0.78736 0.0
N790 N 0.06494 0.21167 0.61109 0.0
N791 N 0.02859 0.20152 0.77338 0.0
H792 H 0.37006 0.21068 0.8578 0.0
H793 H 0.30321 0.25802 0.54122 0.0
H794 H 0.37512 0.20996 0.59409 0.0
H795 H 0.27864 0.22515 0.76362 0.0
H796 H 0.33102 0.24346 0.56284 0.0
H797 H 0.33883 0.21937 0.82984 0.0
C798 C 0.36472 0.21241 0.79396 0.0
C799 C 0.37554 0.20959 0.7284 0.0
C800 C 0.31937 0.239 0.6064 0.0
C801 C 0.33949 0.21992 0.69593 0.0
C802 C 0.30332 0.24718 0.59382 0.0
C803 C 0.28809 0.2424 0.64966 0.0
C804 C 0.32099 0.22659 0.67718 0.0
C805 C 0.28957 0.22876 0.7177 0.0
C806 C 0.34671 0.21724 0.77797 0.0
C807 C 0.36749 0.21192 0.64693 0.0
N808 N 0.30585 0.22175 0.73013 0.0
N809 N 0.35027 0.2172 0.6334 0.0
H810 H 0.83126 0.96121 0.37795 0.0
H811 H 0.85723 0.11849 0.56552 0.0
H812 H 0.77711 0.97778 0.37708 0.0
H813 H 0.90244 0.08941 0.6385 0.0
H814 H 0.8292 0.06991 0.47938 0.0
H815 H 0.85893 1.01077 0.45443 0.0
C816 C 0.82513 0.9753 0.39278 0.0
C817 C 0.80161 0.96497 0.37054 0.0
C818 C 0.84528 0.07422 0.51408 0.0
C819 C 0.83365 0.0224 0.4593 0.0
C820 C 0.86136 0.102 0.56296 0.0
C821 C 0.88233 0.10822 0.60942 0.0
C822 C 0.85029 0.05246 0.51024 0.0
C823 C 0.88656 0.08577 0.60418 0.0
C824 C 0.84102 1.00367 0.43719 0.0
C825 C 0.79497 0.98457 0.39268 0.0
N826 N 0.87082 0.05911 0.55541 0.0
N827 N 0.81085 1.01226 0.43554 0.0
H828 H 0.98456 0.69106 0.60394 0.0
H829 H 0.1121 0.83261 0.67497 0.0
H830 H 1.00747 0.77187 0.76833 0.0
H831 H 0.08744 0.75483 0.49239 0.0
H832 H 0.0743 0.81007 0.71342 0.0
H833 H 0.02231 0.71349 0.56493 0.0
C834 C 0.99747 0.71353 0.63179 0.0
C835 C 0.99271 0.72955 0.6896 0.0
C836 C 0.07713 0.79791 0.66493 0.0
C837 C 0.03617 0.75539 0.64527 0.0
C838 C 0.0988 0.81071 0.64332 0.0
C839 C 0.10307 0.79563 0.58033 0.0
C840 C 0.05948 0.76968 0.6237 0.0
C841 C 0.08495 0.76744 0.54063 0.0
C842 C 0.01906 0.72634 0.60941 0.0
C843 C 1.01024 0.75861 0.72345 0.0
N844 N 0.06403 0.7554 0.56307 0.0
N845 N 0.03114 0.77053 0.70097 0.0
loop_
_geom_bond_atom_site_label_1
_geom_bond_atom_site_label_2
_geom_bond_distance
_geom_bond_site_symmetry_2
_ccdc_geom_bond_type
Eu0 C9 2.828 . S
Eu0 O11 2.392 . S
Eu0 O13 2.418 1_554 S
Eu0 O18 2.373 . S
Eu0 O21 2.488 . S
Eu0 O22 2.471 . S
Eu0 O23 2.349 . S
Eu1 O10 2.373 . S
Eu1 O14 2.488 1_455 S
Eu1 O15 2.471 1_554 S
Eu1 O16 2.349 1_554 S
Eu1 O19 2.392 . S
Eu1 O20 2.418 . S
Eu1 C30 2.828 1_455 S
C2 O20 1.244 . S
C2 O23 1.265 . S
C3 C4 1.379 . S
C3 C7 1.373 . S
C3 C9 1.505 . S
C4 C3 1.379 . S
C4 C6 1.369 . S
C4 H32 0.930 . S
C5 C7 1.383 . S
C5 C8 1.382 . S
C5 H33 0.930 . S
C6 C4 1.369 . S
C6 C8 1.392 . S
C6 H34 0.930 . S
C7 C3 1.373 . S
C7 C5 1.383 . S
C7 H35 0.931 . S
C8 C5 1.382 . S
C8 C6 1.392 . S
C9 Eu0 2.828 . S
C9 C3 1.505 . S
C9 O21 1.249 . S
C9 O22 1.244 . S
O10 Eu1 2.373 . S
O10 C12 1.258 . S
O11 Eu0 2.392 . S
O11 C12 1.242 . S
C12 O10 1.258 . S
C12 O11 1.242 . S
O13 Eu0 2.418 1_556 S
O13 C17 1.244 . S
O14 Eu1 2.488 1_655 S
O14 C30 1.249 . S
O15 Eu1 2.471 1_556 S
O15 C30 1.244 1_456 S
O16 Eu1 2.349 1_556 S
O16 C17 1.265 . S
C17 O13 1.244 . S
C17 O16 1.265 . S
O18 Eu0 2.373 . S
O18 C31 1.258 . S
O19 Eu1 2.392 . S
O19 C31 1.242 . S
O20 Eu1 2.418 . S
O20 C2 1.244 . S
O21 Eu0 2.488 . S
O21 C9 1.249 . S
O22 Eu0 2.471 . S
O22 C9 1.244 . S
O23 Eu0 2.349 . S
O23 C2 1.265 . S
C24 C25 1.379 1_554 S
C24 C28 1.373 . S
C24 C30 1.505 . S
C25 C24 1.379 1_556 S
C25 C27 1.369 . S
C25 H36 0.930 1_655 S
C26 C28 1.383 . S
C26 C29 1.382 1_554 S
C26 H37 0.930 . S
C27 C25 1.369 . S
C27 C29 1.392 . S
C27 H38 0.930 . S
C28 C24 1.373 . S
C28 C26 1.383 . S
C28 H39 0.931 . S
C29 C26 1.382 1_556 S
C29 C27 1.392 . S
C30 Eu1 2.828 1_655 S
C30 O14 1.249 . S
C30 O15 1.244 1_654 S
C30 C24 1.505 . S
C31 O18 1.258 . S
C31 O19 1.242 . S
H32 C4 0.930 . S
H33 C5 0.930 . S
H34 C6 0.930 . S
H35 C7 0.931 . S
H36 C25 0.930 1_455 S
H37 C26 0.930 . S
H38 C27 0.930 . S
H39 C28 0.931 . S
Eu40 C49 2.828 . S
Eu40 O51 2.392 . S
Eu40 O53 2.418 . S
Eu40 O58 2.373 . S
Eu40 O61 2.488 . S
Eu40 O62 2.471 . S
Eu40 O63 2.349 . S
Eu41 O50 2.373 . S
Eu41 O54 2.488 . S
Eu41 O55 2.471 . S
Eu41 O56 2.349 . S
Eu41 O59 2.392 . S
Eu41 O60 2.418 1_554 S
Eu41 C70 2.828 . S
C42 O60 1.244 . S
C42 O63 1.265 1_556 S
C43 C44 1.379 . S
C43 C47 1.373 . S
C43 C49 1.505 . S
C44 C43 1.379 . S
C44 C46 1.369 . S
C44 H72 0.930 . S
C45 C47 1.383 . S
C45 C48 1.382 . S
C45 H73 0.930 . S
C46 C44 1.369 . S
C46 C48 1.392 . S
C46 H74 0.930 . S
C47 C43 1.373 . S
C47 C45 1.383 . S
C47 H75 0.931 . S
C48 C45 1.382 . S
C48 C46 1.392 . S
C49 Eu40 2.828 . S
C49 C43 1.505 . S
C49 O61 1.249 . S
C49 O62 1.244 . S
O50 Eu41 2.373 . S
O50 C52 1.258 . S
O51 Eu40 2.392 . S
O51 C52 1.242 . S
C52 O50 1.258 . S
C52 O51 1.242 . S
O53 Eu40 2.418 . S
O53 C57 1.244 . S
O54 Eu41 2.488 . S
O54 C70 1.249 . S
O55 Eu41 2.471 . S
O55 C70 1.244 . S
O56 Eu41 2.349 . S
O56 C57 1.265 . S
C57 O53 1.244 . S
C57 O56 1.265 . S
O58 Eu40 2.373 . S
O58 C71 1.258 . S
O59 Eu41 2.392 . S
O59 C71 1.242 . S
O60 Eu41 2.418 1_556 S
O60 C42 1.244 . S
O61 Eu40 2.488 . S
O61 C49 1.249 . S
O62 Eu40 2.471 . S
O62 C49 1.244 . S
O63 Eu40 2.349 . S
O63 C42 1.265 1_554 S
C64 C65 1.379 . S
C64 C68 1.373 . S
C64 C70 1.505 . S
C65 C64 1.379 . S
C65 C67 1.369 . S
C65 H76 0.930 . S
C66 C68 1.383 . S
C66 C69 1.382 . S
C66 H77 0.930 . S
C67 C65 1.369 . S
C67 C69 1.392 . S
C67 H78 0.930 . S
C68 C64 1.373 . S
C68 C66 1.383 . S
C68 H79 0.931 . S
C69 C66 1.382 . S
C69 C67 1.392 . S
C70 Eu41 2.828 . S
C70 O54 1.249 . S
C70 O55 1.244 . S
C70 C64 1.505 . S
C71 O58 1.258 . S
C71 O59 1.242 . S
H72 C44 0.930 . S
H73 C45 0.930 . S
H74 C46 0.930 . S
H75 C47 0.931 . S
H76 C65 0.930 . S
H77 C66 0.930 . S
H78 C67 0.930 . S
H79 C68 0.931 . S
Eu80 C89 2.828 . S
Eu80 O91 2.392 . S
Eu80 O93 2.418 1_554 S
Eu80 O98 2.373 . S
Eu80 O101 2.488 . S
Eu80 O102 2.471 . S
Eu80 O103 2.349 . S
Eu81 O90 2.373 . S
Eu81 O94 2.488 . S
Eu81 O95 2.471 . S
Eu81 O96 2.349 . S
Eu81 O99 2.392 . S
Eu81 O100 2.418 . S
Eu81 C110 2.828 . S
C82 O100 1.244 . S
C82 O103 1.265 . S
C83 C84 1.379 . S
C83 C87 1.373 . S
C83 C89 1.505 . S
C84 C83 1.379 . S
C84 C86 1.369 . S
C84 H112 0.930 . S
C85 C87 1.383 . S
C85 C88 1.382 . S
C85 H113 0.930 1_545 S
C86 C84 1.369 . S
C86 C88 1.392 . S
C86 H114 0.930 . S
C87 C83 1.373 . S
C87 C85 1.383 . S
C87 H115 0.931 . S
C88 C85 1.382 . S
C88 C86 1.392 . S
C89 Eu80 2.828 . S
C89 C83 1.505 . S
C89 O101 1.249 . S
C89 O102 1.244 . S
O90 Eu81 2.373 . S
O90 C92 1.258 . S
O91 Eu80 2.392 . S
O91 C92 1.242 . S
C92 O90 1.258 . S
C92 O91 1.242 . S
O93 Eu80 2.418 1_556 S
O93 C97 1.244 . S
O94 Eu81 2.488 . S
O94 C110 1.249 . S
O95 Eu81 2.471 . S
O95 C110 1.244 . S
O96 Eu81 2.349 . S
O96 C97 1.265 1_554 S
C97 O93 1.244 . S
C97 O96 1.265 1_556 S
O98 Eu80 2.373 . S
O98 C111 1.258 . S
O99 Eu81 2.392 . S
O99 C111 1.242 . S
O100 Eu81 2.418 . S
O100 C82 1.244 . S
O101 Eu80 2.488 . S
O101 C89 1.249 . S
O102 Eu80 2.471 . S
O102 C89 1.244 . S
O103 Eu80 2.349 . S
O103 C82 1.265 . S
C104 C105 1.379 . S
C104 C108 1.373 . S
C104 C110 1.505 . S
C105 C104 1.379 . S
C105 C107 1.369 . S
C105 H116 0.930 . S
C106 C108 1.383 . S
C106 C109 1.382 . S
C106 H117 0.930 . S
C107 C105 1.369 . S
C107 C109 1.392 . S
C107 H118 0.930 . S
C108 C104 1.373 . S
C108 C106 1.383 . S
C108 H119 0.931 . S
C109 C106 1.382 . S
C109 C107 1.392 . S
C110 Eu81 2.828 . S
C110 O94 1.249 . S
C110 O95 1.244 . S
C110 C104 1.505 . S
C111 O98 1.258 . S
C111 O99 1.242 . S
H112 C84 0.930 . S
H113 C85 0.930 1_565 S
H114 C86 0.930 . S
H115 C87 0.931 . S
H116 C105 0.930 . S
H117 C106 0.930 . S
H118 C107 0.930 . S
H119 C108 0.931 . S
Eu120 C129 2.828 . S
Eu120 O131 2.392 . S
Eu120 O133 2.418 . S
Eu120 O138 2.373 . S
Eu120 O141 2.488 . S
Eu120 O142 2.471 . S
Eu120 O143 2.349 . S
Eu121 O130 2.373 . S
Eu121 O134 2.488 . S
Eu121 O135 2.471 . S
Eu121 O136 2.349 . S
Eu121 O139 2.392 . S
Eu121 O140 2.418 . S
Eu121 C150 2.828 . S
C122 O140 1.244 . S
C122 O143 1.265 . S
C123 C124 1.379 . S
C123 C127 1.373 . S
C123 C129 1.505 . S
C124 C123 1.379 . S
C124 C126 1.369 . S
C124 H152 0.930 . S
C125 C127 1.383 . S
C125 C128 1.382 . S
C125 H153 0.930 . S
C126 C124 1.369 . S
C126 C128 1.392 . S
C126 H154 0.930 . S
C127 C123 1.373 . S
C127 C125 1.383 . S
C127 H155 0.931 . S
C128 C125 1.382 . S
C128 C126 1.392 . S
C129 Eu120 2.828 . S
C129 C123 1.505 . S
C129 O141 1.249 . S
C129 O142 1.244 . S
O130 Eu121 2.373 . S
O130 C132 1.258 . S
O131 Eu120 2.392 . S
O131 C132 1.242 . S
C132 O130 1.258 . S
C132 O131 1.242 . S
O133 Eu120 2.418 . S
O133 C137 1.244 . S
O134 Eu121 2.488 . S
O134 C150 1.249 . S
O135 Eu121 2.471 . S
O135 C150 1.244 . S
O136 Eu121 2.349 . S
O136 C137 1.265 . S
C137 O133 1.244 . S
C137 O136 1.265 . S
O138 Eu120 2.373 . S
O138 C151 1.258 . S
O139 Eu121 2.392 . S
O139 C151 1.242 . S
O140 Eu121 2.418 . S
O140 C122 1.244 . S
O141 Eu120 2.488 . S
O141 C129 1.249 . S
O142 Eu120 2.471 . S
O142 C129 1.244 . S
O143 Eu120 2.349 . S
O143 C122 1.265 . S
C144 C145 1.379 . S
C144 C148 1.373 . S
C144 C150 1.505 . S
C145 C144 1.379 . S
C145 C147 1.369 . S
C145 H156 0.930 . S
C146 C148 1.383 . S
C146 C149 1.382 . S
C146 H157 0.930 . S
C147 C145 1.369 . S
C147 C149 1.392 . S
C147 H158 0.930 . S
C148 C144 1.373 . S
C148 C146 1.383 . S
C148 H159 0.931 . S
C149 C146 1.382 . S
C149 C147 1.392 . S
C150 Eu121 2.828 . S
C150 O134 1.249 . S
C150 O135 1.244 . S
C150 C144 1.505 . S
C151 O138 1.258 . S
C151 O139 1.242 . S
H152 C124 0.930 . S
H153 C125 0.930 . S
H154 C126 0.930 . S
H155 C127 0.931 . S
H156 C145 0.930 . S
H157 C146 0.930 . S
H158 C147 0.930 . S
H159 C148 0.931 . S
Eu160 C169 2.828 . S
Eu160 O171 2.392 . S
Eu160 O173 2.418 . S
Eu160 O178 2.373 . S
Eu160 O181 2.488 . S
Eu160 O182 2.471 . S
Eu160 O183 2.349 . S
Eu161 O170 2.373 . S
Eu161 O174 2.488 . S
Eu161 O175 2.471 . S
Eu161 O176 2.349 . S
Eu161 O179 2.392 . S
Eu161 O180 2.418 . S
Eu161 C190 2.828 . S
C162 O180 1.244 . S
C162 O183 1.265 . S
C163 C164 1.379 . S
C163 C167 1.373 . S
C163 C169 1.505 . S
C164 C163 1.379 . S
C164 C166 1.369 . S
C164 H192 0.930 . S
C165 C167 1.383 . S
C165 C168 1.382 . S
C165 H193 0.930 . S
C166 C164 1.369 . S
C166 C168 1.392 . S
C166 H194 0.930 . S
C167 C163 1.373 . S
C167 C165 1.383 . S
C167 H195 0.931 . S
C168 C165 1.382 . S
C168 C166 1.392 . S
C169 Eu160 2.828 . S
C169 C163 1.505 . S
C169 O181 1.249 . S
C169 O182 1.244 . S
O170 Eu161 2.373 . S
O170 C172 1.258 . S
O171 Eu160 2.392 . S
O171 C172 1.242 . S
C172 O170 1.258 . S
C172 O171 1.242 . S
O173 Eu160 2.418 . S
O173 C177 1.244 . S
O174 Eu161 2.488 . S
O174 C190 1.249 . S
O175 Eu161 2.471 . S
O175 C190 1.244 . S
O176 Eu161 2.349 . S
O176 C177 1.265 . S
C177 O173 1.244 . S
C177 O176 1.265 . S
O178 Eu160 2.373 . S
O178 C191 1.258 . S
O179 Eu161 2.392 . S
O179 C191 1.242 . S
O180 Eu161 2.418 . S
O180 C162 1.244 . S
O181 Eu160 2.488 . S
O181 C169 1.249 . S
O182 Eu160 2.471 . S
O182 C169 1.244 . S
O183 Eu160 2.349 . S
O183 C162 1.265 . S
C184 C185 1.379 . S
C184 C188 1.373 . S
C184 C190 1.505 . S
C185 C184 1.379 . S
C185 C187 1.369 . S
C185 H196 0.930 . S
C186 C188 1.383 . S
C186 C189 1.382 . S
C186 H197 0.930 . S
C187 C185 1.369 . S
C187 C189 1.392 . S
C187 H198 0.930 . S
C188 C184 1.373 . S
C188 C186 1.383 . S
C188 H199 0.931 . S
C189 C186 1.382 . S
C189 C187 1.392 . S
C190 Eu161 2.828 . S
C190 O174 1.249 . S
C190 O175 1.244 . S
C190 C184 1.505 . S
C191 O178 1.258 . S
C191 O179 1.242 . S
H192 C164 0.930 . S
H193 C165 0.930 . S
H194 C166 0.930 . S
H195 C167 0.931 . S
H196 C185 0.930 . S
H197 C186 0.930 . S
H198 C187 0.930 . S
H199 C188 0.931 . S
Eu200 C209 2.828 . S
Eu200 O211 2.392 . S
Eu200 O213 2.418 . S
Eu200 O218 2.373 . S
Eu200 O221 2.488 . S
Eu200 O222 2.471 . S
Eu200 O223 2.349 . S
Eu201 O210 2.373 . S
Eu201 O214 2.488 . S
Eu201 O215 2.471 . S
Eu201 O216 2.349 . S
Eu201 O219 2.392 . S
Eu201 O220 2.418 . S
Eu201 C230 2.828 . S
C202 O220 1.244 . S
C202 O223 1.265 . S
C203 C204 1.379 . S
C203 C207 1.373 . S
C203 C209 1.505 . S
C204 C203 1.379 . S
C204 C206 1.369 . S
C204 H232 0.930 . S
C205 C207 1.383 . S
C205 C208 1.382 . S
C205 H233 0.930 . S
C206 C204 1.369 . S
C206 C208 1.392 . S
C206 H234 0.930 . S
C207 C203 1.373 . S
C207 C205 1.383 . S
C207 H235 0.931 . S
C208 C205 1.382 . S
C208 C206 1.392 . S
C209 Eu200 2.828 . S
C209 C203 1.505 . S
C209 O221 1.249 . S
C209 O222 1.244 . S
O210 Eu201 2.373 . S
O210 C212 1.258 . S
O211 Eu200 2.392 . S
O211 C212 1.242 . S
C212 O210 1.258 . S
C212 O211 1.242 . S
O213 Eu200 2.418 . S
O213 C217 1.244 . S
O214 Eu201 2.488 . S
O214 C230 1.249 . S
O215 Eu201 2.471 . S
O215 C230 1.244 . S
O216 Eu201 2.349 . S
O216 C217 1.265 . S
C217 O213 1.244 . S
C217 O216 1.265 . S
O218 Eu200 2.373 . S
O218 C231 1.258 . S
O219 Eu201 2.392 . S
O219 C231 1.242 . S
O220 Eu201 2.418 . S
O220 C202 1.244 . S
O221 Eu200 2.488 . S
O221 C209 1.249 . S
O222 Eu200 2.471 . S
O222 C209 1.244 . S
O223 Eu200 2.349 . S
O223 C202 1.265 . S
C224 C225 1.379 . S
C224 C228 1.373 . S
C224 C230 1.505 . S
C225 C224 1.379 . S
C225 C227 1.369 . S
C225 H236 0.930 . S
C226 C228 1.383 . S
C226 C229 1.382 . S
C226 H237 0.930 . S
C227 C225 1.369 . S
C227 C229 1.392 . S
C227 H238 0.930 . S
C228 C224 1.373 . S
C228 C226 1.383 . S
C228 H239 0.931 . S
C229 C226 1.382 . S
C229 C227 1.392 . S
C230 Eu201 2.828 . S
C230 O214 1.249 . S
C230 O215 1.244 . S
C230 C224 1.505 . S
C231 O218 1.258 . S
C231 O219 1.242 . S
H232 C204 0.930 . S
H233 C205 0.930 . S
H234 C206 0.930 . S
H235 C207 0.931 . S
H236 C225 0.930 . S
H237 C226 0.930 . S
H238 C227 0.930 . S
H239 C228 0.931 . S
Eu240 C249 2.828 . S
Eu240 O251 2.392 . S
Eu240 O253 2.418 . S
Eu240 O258 2.373 . S
Eu240 O261 2.488 . S
Eu240 O262 2.471 . S
Eu240 O263 2.349 . S
Eu241 O250 2.373 . S
Eu241 O254 2.488 . S
Eu241 O255 2.471 . S
Eu241 O256 2.349 . S
Eu241 O259 2.392 . S
Eu241 O260 2.418 . S
Eu241 C270 2.828 . S
C242 O260 1.244 . S
C242 O263 1.265 . S
C243 C244 1.379 . S
C243 C247 1.373 . S
C243 C249 1.505 . S
C244 C243 1.379 . S
C244 C246 1.369 . S
C244 H272 0.930 . S
C245 C247 1.383 . S
C245 C248 1.382 . S
C245 H273 0.930 . S
C246 C244 1.369 . S
C246 C248 1.392 . S
C246 H274 0.930 . S
C247 C243 1.373 . S
C247 C245 1.383 . S
C247 H275 0.931 . S
C248 C245 1.382 . S
C248 C246 1.392 . S
C249 Eu240 2.828 . S
C249 C243 1.505 . S
C249 O261 1.249 . S
C249 O262 1.244 . S
O250 Eu241 2.373 . S
O250 C252 1.258 . S
O251 Eu240 2.392 . S
O251 C252 1.242 . S
C252 O250 1.258 . S
C252 O251 1.242 . S
O253 Eu240 2.418 . S
O253 C257 1.244 . S
O254 Eu241 2.488 . S
O254 C270 1.249 . S
O255 Eu241 2.471 . S
O255 C270 1.244 . S
O256 Eu241 2.349 . S
O256 C257 1.265 . S
C257 O253 1.244 . S
C257 O256 1.265 . S
O258 Eu240 2.373 . S
O258 C271 1.258 . S
O259 Eu241 2.392 . S
O259 C271 1.242 . S
O260 Eu241 2.418 . S
O260 C242 1.244 . S
O261 Eu240 2.488 . S
O261 C249 1.249 . S
O262 Eu240 2.471 . S
O262 C249 1.244 . S
O263 Eu240 2.349 . S
O263 C242 1.265 . S
C264 C265 1.379 1_556 S
C264 C268 1.373 1_556 S
C264 C270 1.505 . S
C265 C264 1.379 1_554 S
C265 C267 1.369 . S
C265 H276 0.930 . S
C266 C268 1.383 . S
C266 C269 1.382 . S
C266 H277 0.930 . S
C267 C265 1.369 . S
C267 C269 1.392 . S
C267 H278 0.930 . S
C268 C264 1.373 1_554 S
C268 C266 1.383 . S
C268 H279 0.931 1_554 S
C269 C266 1.382 . S
C269 C267 1.392 . S
C270 Eu241 2.828 . S
C270 O254 1.249 . S
C270 O255 1.244 . S
C270 C264 1.505 . S
C271 O258 1.258 . S
C271 O259 1.242 . S
H272 C244 0.930 . S
H273 C245 0.930 . S
H274 C246 0.930 . S
H275 C247 0.931 . S
H276 C265 0.930 . S
H277 C266 0.930 . S
H278 C267 0.930 . S
H279 C268 0.931 1_556 S
Eu280 C289 2.828 . S
Eu280 O291 2.392 . S
Eu280 O293 2.418 . S
Eu280 O298 2.373 . S
Eu280 O301 2.488 . S
Eu280 O302 2.471 . S
Eu280 O303 2.349 . S
Eu281 O290 2.373 . S
Eu281 O294 2.488 . S
Eu281 O295 2.471 . S
Eu281 O296 2.349 . S
Eu281 O299 2.392 . S
Eu281 O300 2.418 . S
Eu281 C310 2.828 . S
C282 O300 1.244 . S
C282 O303 1.265 . S
C283 C284 1.379 1_556 S
C283 C287 1.373 1_556 S
C283 C289 1.505 . S
C284 C283 1.379 1_554 S
C284 C286 1.369 . S
C284 H312 0.930 . S
C285 C287 1.383 . S
C285 C288 1.382 . S
C285 H313 0.930 . S
C286 C284 1.369 . S
C286 C288 1.392 . S
C286 H314 0.930 . S
C287 C283 1.373 1_554 S
C287 C285 1.383 . S
C287 H315 0.931 1_554 S
C288 C285 1.382 . S
C288 C286 1.392 . S
C289 Eu280 2.828 . S
C289 C283 1.505 . S
C289 O301 1.249 . S
C289 O302 1.244 . S
O290 Eu281 2.373 . S
O290 C292 1.258 . S
O291 Eu280 2.392 . S
O291 C292 1.242 . S
C292 O290 1.258 . S
C292 O291 1.242 . S
O293 Eu280 2.418 . S
O293 C297 1.244 . S
O294 Eu281 2.488 . S
O294 C310 1.249 . S
O295 Eu281 2.471 . S
O295 C310 1.244 . S
O296 Eu281 2.349 . S
O296 C297 1.265 . S
C297 O293 1.244 . S
C297 O296 1.265 . S
O298 Eu280 2.373 . S
O298 C311 1.258 . S
O299 Eu281 2.392 . S
O299 C311 1.242 . S
O300 Eu281 2.418 . S
O300 C282 1.244 . S
O301 Eu280 2.488 . S
O301 C289 1.249 . S
O302 Eu280 2.471 . S
O302 C289 1.244 . S
O303 Eu280 2.349 . S
O303 C282 1.265 . S
C304 C305 1.379 . S
C304 C308 1.373 . S
C304 C310 1.505 . S
C305 C304 1.379 . S
C305 C307 1.369 . S
C305 H316 0.930 . S
C306 C308 1.383 . S
C306 C309 1.382 . S
C306 H317 0.930 . S
C307 C305 1.369 . S
C307 C309 1.392 . S
C307 H318 0.930 . S
C308 C304 1.373 . S
C308 C306 1.383 . S
C308 H319 0.931 . S
C309 C306 1.382 . S
C309 C307 1.392 . S
C310 Eu281 2.828 . S
C310 O294 1.249 . S
C310 O295 1.244 . S
C310 C304 1.505 . S
C311 O298 1.258 . S
C311 O299 1.242 . S
H312 C284 0.930 . S
H313 C285 0.930 . S
H314 C286 0.930 . S
H315 C287 0.931 1_556 S
H316 C305 0.930 . S
H317 C306 0.930 . S
H318 C307 0.930 . S
H319 C308 0.931 . S
Eu320 C329 2.828 . S
Eu320 O331 2.392 . S
Eu320 O333 2.418 . S
Eu320 O338 2.373 . S
Eu320 O341 2.488 . S
Eu320 O342 2.471 . S
Eu320 O343 2.349 . S
Eu321 O330 2.373 . S
Eu321 O334 2.488 . S
Eu321 O335 2.471 . S
Eu321 O336 2.349 . S
Eu321 O339 2.392 . S
Eu321 O340 2.418 . S
Eu321 C350 2.828 . S
C322 O340 1.244 . S
C322 O343 1.265 . S
C323 C324 1.379 . S
C323 C327 1.373 . S
C323 C329 1.505 . S
C324 C323 1.379 . S
C324 C326 1.369 . S
C324 H352 0.930 . S
C325 C327 1.383 . S
C325 C328 1.382 . S
C325 H353 0.930 . S
C326 C324 1.369 . S
C326 C328 1.392 . S
C326 H354 0.930 . S
C327 C323 1.373 . S
C327 C325 1.383 . S
C327 H355 0.931 . S
C328 C325 1.382 . S
C328 C326 1.392 . S
C329 Eu320 2.828 . S
C329 C323 1.505 . S
C329 O341 1.249 . S
C329 O342 1.244 . S
O330 Eu321 2.373 . S
O330 C332 1.258 . S
O331 Eu320 2.392 . S
O331 C332 1.242 . S
C332 O330 1.258 . S
C332 O331 1.242 . S
O333 Eu320 2.418 . S
O333 C337 1.244 . S
O334 Eu321 2.488 . S
O334 C350 1.249 . S
O335 Eu321 2.471 . S
O335 C350 1.244 . S
O336 Eu321 2.349 . S
O336 C337 1.265 . S
C337 O333 1.244 . S
C337 O336 1.265 . S
O338 Eu320 2.373 . S
O338 C351 1.258 . S
O339 Eu321 2.392 . S
O339 C351 1.242 . S
O340 Eu321 2.418 . S
O340 C322 1.244 . S
O341 Eu320 2.488 . S
O341 C329 1.249 . S
O342 Eu320 2.471 . S
O342 C329 1.244 . S
O343 Eu320 2.349 . S
O343 C322 1.265 . S
C344 C345 1.379 . S
C344 C348 1.373 . S
C344 C350 1.505 1_554 S
C345 C344 1.379 . S
C345 C347 1.369 . S
C345 H356 0.930 . S
C346 C348 1.383 . S
C346 C349 1.382 . S
C346 H357 0.930 . S
C347 C345 1.369 . S
C347 C349 1.392 . S
C347 H358 0.930 . S
C348 C344 1.373 . S
C348 C346 1.383 . S
C348 H359 0.931 . S
C349 C346 1.382 . S
C349 C347 1.392 . S
C350 Eu321 2.828 . S
C350 O334 1.249 . S
C350 O335 1.244 . S
C350 C344 1.505 1_556 S
C351 O338 1.258 . S
C351 O339 1.242 . S
H352 C324 0.930 . S
H353 C325 0.930 . S
H354 C326 0.930 . S
H355 C327 0.931 . S
H356 C345 0.930 . S
H357 C346 0.930 . S
H358 C347 0.930 . S
H359 C348 0.931 . S
H360 C366 0.930 . S
H361 C370 0.930 . S
H362 C375 0.929 . S
H363 C373 0.929 . S
H364 C368 0.929 . S
H365 C374 0.929 . S
C366 H360 0.930 . S
C366 C367 1.367 . S
C366 C374 1.378 . S
C367 C366 1.367 . S
C367 C375 1.433 . S
C368 H364 0.929 . S
C368 C370 1.378 . S
C368 C372 1.350 . S
C369 C372 1.463 . S
C369 C374 1.350 . S
C369 N377 1.427 . S
C370 H361 0.930 . S
C370 C368 1.378 . S
C370 C371 1.367 . S
C371 C370 1.367 . S
C371 C373 1.433 . S
C372 C368 1.350 . S
C372 C369 1.463 . S
C372 N376 1.427 . S
C373 H363 0.929 . S
C373 C371 1.433 . S
C373 N376 1.384 . S
C374 H365 0.929 . S
C374 C366 1.378 . S
C374 C369 1.350 . S
C375 H362 0.929 . S
C375 C367 1.433 . S
C375 N377 1.384 . S
N376 C372 1.427 . S
N376 C373 1.384 . S
N377 C369 1.427 . S
N377 C375 1.384 . S
H378 C384 0.930 . S
H379 C388 0.930 . S
H380 C393 0.929 . S
H381 C391 0.929 . S
H382 C386 0.929 . S
H383 C392 0.929 . S
C384 H378 0.930 . S
C384 C385 1.367 . S
C384 C392 1.378 . S
C385 C384 1.367 . S
C385 C393 1.433 . S
C386 H382 0.929 . S
C386 C388 1.378 . S
C386 C390 1.350 . S
C387 C390 1.463 . S
C387 C392 1.350 . S
C387 N395 1.427 . S
C388 H379 0.930 . S
C388 C386 1.378 . S
C388 C389 1.367 . S
C389 C388 1.367 . S
C389 C391 1.433 . S
C390 C386 1.350 . S
C390 C387 1.463 . S
C390 N394 1.427 . S
C391 H381 0.929 . S
C391 C389 1.433 . S
C391 N394 1.384 . S
C392 H383 0.929 . S
C392 C384 1.378 . S
C392 C387 1.350 . S
C393 H380 0.929 . S
C393 C385 1.433 . S
C393 N395 1.384 . S
N394 C390 1.427 . S
N394 C391 1.384 . S
N395 C387 1.427 . S
N395 C393 1.384 . S
H396 C402 0.930 . S
H397 C406 0.930 . S
H398 C411 0.929 . S
H399 C409 0.929 . S
H400 C404 0.929 . S
H401 C410 0.929 . S
C402 H396 0.930 . S
C402 C403 1.367 . S
C402 C410 1.378 . S
C403 C402 1.367 . S
C403 C411 1.433 . S
C404 H400 0.929 . S
C404 C406 1.378 . S
C404 C408 1.350 . S
C405 C408 1.463 . S
C405 C410 1.350 . S
C405 N413 1.427 . S
C406 H397 0.930 . S
C406 C404 1.378 . S
C406 C407 1.367 . S
C407 C406 1.367 . S
C407 C409 1.433 . S
C408 C404 1.350 . S
C408 C405 1.463 . S
C408 N412 1.427 . S
C409 H399 0.929 . S
C409 C407 1.433 . S
C409 N412 1.384 . S
C410 H401 0.929 . S
C410 C402 1.378 . S
C410 C405 1.350 . S
C411 H398 0.929 . S
C411 C403 1.433 . S
C411 N413 1.384 . S
N412 C408 1.427 . S
N412 C409 1.384 . S
N413 C405 1.427 . S
N413 C411 1.384 . S
H414 C420 0.930 . S
H415 C424 0.930 . S
H416 C429 0.929 . S
H417 C427 0.929 1_554 S
H418 C422 0.929 . S
H419 C428 0.929 . S
C420 H414 0.930 . S
C420 C421 1.367 . S
C420 C428 1.378 . S
C421 C420 1.367 . S
C421 C429 1.433 . S
C422 H418 0.929 . S
C422 C424 1.378 . S
C422 C426 1.350 . S
C423 C426 1.463 . S
C423 C428 1.350 . S
C423 N431 1.427 . S
C424 H415 0.930 . S
C424 C422 1.378 . S
C424 C425 1.367 1_556 S
C425 C424 1.367 1_554 S
C425 C427 1.433 1_554 S
C426 C422 1.350 . S
C426 C423 1.463 . S
C426 N430 1.427 . S
C427 H417 0.929 1_556 S
C427 C425 1.433 1_556 S
C427 N430 1.384 . S
C428 H419 0.929 . S
C428 C420 1.378 . S
C428 C423 1.350 . S
C429 H416 0.929 . S
C429 C421 1.433 . S
C429 N431 1.384 . S
N430 C426 1.427 . S
N430 C427 1.384 . S
N431 C423 1.427 . S
N431 C429 1.384 . S
H432 C438 0.930 . S
H433 C442 0.930 . S
H434 C447 0.929 . S
H435 C445 0.929 . S
H436 C440 0.929 . S
H437 C446 0.929 . S
C438 H432 0.930 . S
C438 C439 1.367 . S
C438 C446 1.378 . S
C439 C438 1.367 . S
C439 C447 1.433 . S
C440 H436 0.929 . S
C440 C442 1.378 . S
C440 C444 1.350 . S
C441 C444 1.463 . S
C441 C446 1.350 . S
C441 N449 1.427 . S
C442 H433 0.930 . S
C442 C440 1.378 . S
C442 C443 1.367 . S
C443 C442 1.367 . S
C443 C445 1.433 . S
C444 C440 1.350 . S
C444 C441 1.463 . S
C444 N448 1.427 . S
C445 H435 0.929 . S
C445 C443 1.433 . S
C445 N448 1.384 . S
C446 H437 0.929 . S
C446 C438 1.378 . S
C446 C441 1.350 . S
C447 H434 0.929 . S
C447 C439 1.433 . S
C447 N449 1.384 . S
N448 C444 1.427 . S
N448 C445 1.384 . S
N449 C441 1.427 . S
N449 C447 1.384 . S
H450 C456 0.930 . S
H451 C460 0.930 . S
H452 C465 0.929 . S
H453 C463 0.929 . S
H454 C458 0.929 . S
H455 C464 0.929 . S
C456 H450 0.930 . S
C456 C457 1.367 . S
C456 C464 1.378 . S
C457 C456 1.367 . S
C457 C465 1.433 . S
C458 H454 0.929 . S
C458 C460 1.378 . S
C458 C462 1.350 . S
C459 C462 1.463 . S
C459 C464 1.350 . S
C459 N467 1.427 . S
C460 H451 0.930 . S
C460 C458 1.378 . S
C460 C461 1.367 . S
C461 C460 1.367 . S
C461 C463 1.433 . S
C462 C458 1.350 . S
C462 C459 1.463 . S
C462 N466 1.427 . S
C463 H453 0.929 . S
C463 C461 1.433 . S
C463 N466 1.384 . S
C464 H455 0.929 . S
C464 C456 1.378 . S
C464 C459 1.350 . S
C465 H452 0.929 . S
C465 C457 1.433 . S
C465 N467 1.384 . S
N466 C462 1.427 . S
N466 C463 1.384 . S
N467 C459 1.427 . S
N467 C465 1.384 . S
H468 C474 0.930 . S
H469 C478 0.930 . S
H470 C483 0.929 . S
H471 C481 0.929 . S
H472 C476 0.929 . S
H473 C482 0.929 . S
C474 H468 0.930 . S
C474 C475 1.367 . S
C474 C482 1.378 . S
C475 C474 1.367 . S
C475 C483 1.433 . S
C476 H472 0.929 . S
C476 C478 1.378 . S
C476 C480 1.350 . S
C477 C480 1.463 . S
C477 C482 1.350 . S
C477 N485 1.427 . S
C478 H469 0.930 . S
C478 C476 1.378 . S
C478 C479 1.367 . S
C479 C478 1.367 . S
C479 C481 1.433 . S
C480 C476 1.350 . S
C480 C477 1.463 . S
C480 N484 1.427 . S
C481 H471 0.929 . S
C481 C479 1.433 . S
C481 N484 1.384 . S
C482 H473 0.929 . S
C482 C474 1.378 . S
C482 C477 1.350 . S
C483 H470 0.929 . S
C483 C475 1.433 . S
C483 N485 1.384 . S
N484 C480 1.427 . S
N484 C481 1.384 . S
N485 C477 1.427 . S
N485 C483 1.384 . S
H486 C492 0.930 . S
H487 C496 0.930 . S
H488 C501 0.929 . S
H489 C499 0.929 . S
H490 C494 0.929 . S
H491 C500 0.929 . S
C492 H486 0.930 . S
C492 C493 1.367 . S
C492 C500 1.378 . S
C493 C492 1.367 . S
C493 C501 1.433 . S
C494 H490 0.929 . S
C494 C496 1.378 . S
C494 C498 1.350 . S
C495 C498 1.463 . S
C495 C500 1.350 . S
C495 N503 1.427 . S
C496 H487 0.930 . S
C496 C494 1.378 . S
C496 C497 1.367 . S
C497 C496 1.367 . S
C497 C499 1.433 . S
C498 C494 1.350 . S
C498 C495 1.463 . S
C498 N502 1.427 . S
C499 H489 0.929 . S
C499 C497 1.433 . S
C499 N502 1.384 . S
C500 H491 0.929 . S
C500 C492 1.378 . S
C500 C495 1.350 . S
C501 H488 0.929 . S
C501 C493 1.433 . S
C501 N503 1.384 . S
N502 C498 1.427 . S
N502 C499 1.384 . S
N503 C495 1.427 . S
N503 C501 1.384 . S
H504 C510 0.930 . S
H505 C514 0.930 . S
H506 C519 0.929 . S
H507 C517 0.929 . S
H508 C512 0.929 . S
H509 C518 0.929 . S
C510 H504 0.930 . S
C510 C511 1.367 . S
C510 C518 1.378 . S
C511 C510 1.367 . S
C511 C519 1.433 . S
C512 H508 0.929 . S
C512 C514 1.378 . S
C512 C516 1.350 . S
C513 C516 1.463 . S
C513 C518 1.350 . S
C513 N521 1.427 . S
C514 H505 0.930 . S
C514 C512 1.378 . S
C514 C515 1.367 . S
C515 C514 1.367 . S
C515 C517 1.433 . S
C516 C512 1.350 . S
C516 C513 1.463 . S
C516 N520 1.427 . S
C517 H507 0.929 . S
C517 C515 1.433 . S
C517 N520 1.384 . S
C518 H509 0.929 . S
C518 C510 1.378 . S
C518 C513 1.350 . S
C519 H506 0.929 . S
C519 C511 1.433 . S
C519 N521 1.384 . S
N520 C516 1.427 . S
N520 C517 1.384 . S
N521 C513 1.427 . S
N521 C519 1.384 . S
H522 C528 0.930 . S
H523 C532 0.930 . S
H524 C537 0.929 . S
H525 C535 0.929 . S
H526 C530 0.929 . S
H527 C536 0.929 . S
C528 H522 0.930 . S
C528 C529 1.367 . S
C528 C536 1.378 . S
C529 C528 1.367 . S
C529 C537 1.433 . S
C530 H526 0.929 . S
C530 C532 1.378 . S
C530 C534 1.350 . S
C531 C534 1.463 . S
C531 C536 1.350 . S
C531 N539 1.427 . S
C532 H523 0.930 . S
C532 C530 1.378 . S
C532 C533 1.367 . S
C533 C532 1.367 . S
C533 C535 1.433 . S
C534 C530 1.350 . S
C534 C531 1.463 . S
C534 N538 1.427 . S
C535 H525 0.929 . S
C535 C533 1.433 . S
C535 N538 1.384 . S
C536 H527 0.929 . S
C536 C528 1.378 . S
C536 C531 1.350 . S
C537 H524 0.929 . S
C537 C529 1.433 . S
C537 N539 1.384 . S
N538 C534 1.427 . S
N538 C535 1.384 . S
N539 C531 1.427 . S
N539 C537 1.384 . S
H540 C546 0.930 . S
H541 C550 0.930 . S
H542 C555 0.929 . S
H543 C553 0.929 . S
H544 C548 0.929 . S
H545 C554 0.929 . S
C546 H540 0.930 . S
C546 C547 1.367 . S
C546 C554 1.378 . S
C547 C546 1.367 . S
C547 C555 1.433 . S
C548 H544 0.929 . S
C548 C550 1.378 . S
C548 C552 1.350 . S
C549 C552 1.463 . S
C549 C554 1.350 . S
C549 N557 1.427 . S
C550 H541 0.930 . S
C550 C548 1.378 . S
C550 C551 1.367 . S
C551 C550 1.367 . S
C551 C553 1.433 . S
C552 C548 1.350 . S
C552 C549 1.463 . S
C552 N556 1.427 . S
C553 H543 0.929 . S
C553 C551 1.433 . S
C553 N556 1.384 . S
C554 H545 0.929 . S
C554 C546 1.378 . S
C554 C549 1.350 . S
C555 H542 0.929 . S
C555 C547 1.433 . S
C555 N557 1.384 . S
N556 C552 1.427 . S
N556 C553 1.384 . S
N557 C549 1.427 . S
N557 C555 1.384 . S
H558 C564 0.930 . S
H559 C568 0.930 . S
H560 C573 0.929 . S
H561 C571 0.929 . S
H562 C566 0.929 . S
H563 C572 0.929 . S
C564 H558 0.930 . S
C564 C565 1.367 . S
C564 C572 1.378 . S
C565 C564 1.367 . S
C565 C573 1.433 1_545 S
C566 H562 0.929 . S
C566 C568 1.378 . S
C566 C570 1.350 . S
C567 C570 1.463 . S
C567 C572 1.350 1_565 S
C567 N575 1.427 . S
C568 H559 0.930 . S
C568 C566 1.378 . S
C568 C569 1.367 . S
C569 C568 1.367 . S
C569 C571 1.433 . S
C570 C566 1.350 . S
C570 C567 1.463 . S
C570 N574 1.427 . S
C571 H561 0.929 . S
C571 C569 1.433 . S
C571 N574 1.384 . S
C572 H563 0.929 . S
C572 C564 1.378 . S
C572 C567 1.350 1_545 S
C573 H560 0.929 . S
C573 C565 1.433 1_565 S
C573 N575 1.384 . S
N574 C570 1.427 . S
N574 C571 1.384 . S
N575 C567 1.427 . S
N575 C573 1.384 . S
H576 C582 0.930 . S
H577 C586 0.930 . S
H578 C591 0.929 . S
H579 C589 0.929 . S
H580 C584 0.929 . S
H581 C590 0.929 . S
C582 H576 0.930 . S
C582 C583 1.367 1_556 S
C582 C590 1.378 . S
C583 C582 1.367 1_554 S
C583 C591 1.433 . S
C584 H580 0.929 . S
C584 C586 1.378 . S
C584 C588 1.350 . S
C585 C588 1.463 . S
C585 C590 1.350 . S
C585 N593 1.427 1_556 S
C586 H577 0.930 . S
C586 C584 1.378 . S
C586 C587 1.367 . S
C587 C586 1.367 . S
C587 C589 1.433 . S
C588 C584 1.350 . S
C588 C585 1.463 . S
C588 N592 1.427 . S
C589 H579 0.929 . S
C589 C587 1.433 . S
C589 N592 1.384 . S
C590 H581 0.929 . S
C590 C582 1.378 . S
C590 C585 1.350 . S
C591 H578 0.929 . S
C591 C583 1.433 . S
C591 N593 1.384 . S
N592 C588 1.427 . S
N592 C589 1.384 . S
N593 C585 1.427 1_554 S
N593 C591 1.384 . S
H594 C600 0.930 . S
H595 C604 0.930 1_554 S
H596 C609 0.929 . S
H597 C607 0.929 . S
H598 C602 0.929 . S
H599 C608 0.929 . S
C600 H594 0.930 . S
C600 C601 1.367 . S
C600 C608 1.378 . S
C601 C600 1.367 . S
C601 C609 1.433 . S
C602 H598 0.929 . S
C602 C604 1.378 . S
C602 C606 1.350 . S
C603 C606 1.463 . S
C603 C608 1.350 . S
C603 N611 1.427 . S
C604 H595 0.930 1_556 S
C604 C602 1.378 . S
C604 C605 1.367 1_655 S
C605 C604 1.367 1_455 S
C605 C607 1.433 . S
C606 C602 1.350 . S
C606 C603 1.463 . S
C606 N610 1.431 . S
C607 H597 0.929 . S
C607 C605 1.433 . S
C607 N610 1.383 1_455 S
C608 H599 0.929 . S
C608 C600 1.378 . S
C608 C603 1.350 . S
C609 H596 0.929 . S
C609 C601 1.433 . S
C609 N611 1.384 . S
N610 C606 1.431 . S
N610 C607 1.383 1_655 S
N611 C603 1.427 . S
N611 C609 1.384 . S
H612 C618 0.930 . S
H613 C622 0.930 . S
H614 C627 0.929 . S
H615 C625 0.929 . S
H616 C620 0.929 . S
H617 C626 0.929 . S
C618 H612 0.930 . S
C618 C619 1.367 . S
C618 C626 1.378 . S
C619 C618 1.367 . S
C619 C627 1.433 . S
C620 H616 0.929 . S
C620 C622 1.378 . S
C620 C624 1.350 . S
C621 C624 1.463 . S
C621 C626 1.350 . S
C621 N629 1.427 . S
C622 H613 0.930 . S
C622 C620 1.378 . S
C622 C623 1.367 1_556 S
C623 C622 1.367 1_554 S
C623 C625 1.433 . S
C624 C620 1.350 . S
C624 C621 1.463 . S
C624 N628 1.427 1_556 S
C625 H615 0.929 . S
C625 C623 1.433 . S
C625 N628 1.384 . S
C626 H617 0.929 . S
C626 C618 1.378 . S
C626 C621 1.350 . S
C627 H614 0.929 . S
C627 C619 1.433 . S
C627 N629 1.384 . S
N628 C624 1.427 1_554 S
N628 C625 1.384 . S
N629 C621 1.427 . S
N629 C627 1.384 . S
H630 C636 0.930 . S
H631 C640 0.930 1_554 S
H632 C645 0.929 . S
H633 C643 0.929 . S
H634 C638 0.929 . S
H635 C644 0.929 . S
C636 H630 0.930 . S
C636 C637 1.367 . S
C636 C644 1.378 . S
C637 C636 1.367 . S
C637 C645 1.433 . S
C638 H634 0.929 . S
C638 C640 1.378 . S
C638 C642 1.350 . S
C639 C642 1.463 . S
C639 C644 1.350 . S
C639 N647 1.427 . S
C640 H631 0.930 1_556 S
C640 C638 1.378 . S
C640 C641 1.367 . S
C641 C640 1.367 . S
C641 C643 1.433 . S
C642 C638 1.350 . S
C642 C639 1.463 . S
C642 N646 1.427 . S
C643 H633 0.929 . S
C643 C641 1.433 . S
C643 N646 1.384 . S
C644 H635 0.929 . S
C644 C636 1.378 . S
C644 C639 1.350 . S
C645 H632 0.929 . S
C645 C637 1.433 . S
C645 N647 1.384 . S
N646 C642 1.427 . S
N646 C643 1.384 . S
N647 C639 1.427 . S
N647 C645 1.384 . S
H648 C654 0.930 . S
H649 C658 0.930 . S
H650 C663 0.929 . S
H651 C661 0.929 . S
H652 C656 0.929 . S
H653 C662 0.929 . S
C654 H648 0.930 . S
C654 C655 1.367 1_556 S
C654 C662 1.378 . S
C655 C654 1.367 1_554 S
C655 C663 1.433 . S
C656 H652 0.929 . S
C656 C658 1.378 . S
C656 C660 1.350 . S
C657 C660 1.463 . S
C657 C662 1.350 . S
C657 N665 1.427 . S
C658 H649 0.930 . S
C658 C656 1.378 . S
C658 C659 1.367 . S
C659 C658 1.367 . S
C659 C661 1.433 . S
C660 C656 1.350 . S
C660 C657 1.463 . S
C660 N664 1.427 . S
C661 H651 0.929 . S
C661 C659 1.433 . S
C661 N664 1.384 . S
C662 H653 0.929 . S
C662 C654 1.378 . S
C662 C657 1.350 . S
C663 H650 0.929 . S
C663 C655 1.433 . S
C663 N665 1.384 1_554 S
N664 C660 1.427 . S
N664 C661 1.384 . S
N665 C657 1.427 . S
N665 C663 1.384 1_556 S
H666 C672 0.930 . S
H667 C676 0.930 . S
H668 C681 0.929 . S
H669 C679 0.931 . S
H670 C674 0.929 . S
H671 C680 0.929 . S
C672 H666 0.930 . S
C672 C673 1.367 . S
C672 C680 1.378 . S
C673 C672 1.367 . S
C673 C681 1.433 . S
C674 H670 0.929 . S
C674 C676 1.378 . S
C674 C678 1.350 1_554 S
C675 C678 1.463 . S
C675 C680 1.350 . S
C675 N683 1.427 . S
C676 H667 0.930 . S
C676 C674 1.378 . S
C676 C677 1.367 . S
C677 C676 1.367 . S
C677 C679 1.433 . S
C678 C674 1.350 1_556 S
C678 C675 1.463 . S
C678 N682 1.427 . S
C679 H669 0.931 . S
C679 C677 1.433 . S
C679 N682 1.384 1_554 S
C680 H671 0.929 . S
C680 C672 1.378 . S
C680 C675 1.350 . S
C681 H668 0.929 . S
C681 C673 1.433 . S
C681 N683 1.384 . S
N682 C678 1.427 . S
N682 C679 1.384 1_556 S
N683 C675 1.427 . S
N683 C681 1.384 . S
H684 C690 0.930 . S
H685 C694 0.930 . S
H686 C699 0.929 . S
H687 C697 0.929 . S
H688 C692 0.929 . S
H689 C698 0.929 . S
C690 H684 0.930 . S
C690 C691 1.367 . S
C690 C698 1.378 . S
C691 C690 1.367 . S
C691 C699 1.433 . S
C692 H688 0.929 . S
C692 C694 1.378 . S
C692 C696 1.350 1_565 S
C693 C696 1.463 . S
C693 C698 1.350 . S
C693 N701 1.427 . S
C694 H685 0.930 . S
C694 C692 1.378 . S
C694 C695 1.367 . S
C695 C694 1.367 . S
C695 C697 1.433 1_565 S
C696 C692 1.350 1_545 S
C696 C693 1.463 . S
C696 N700 1.427 . S
C697 H687 0.929 . S
C697 C695 1.433 1_545 S
C697 N700 1.384 . S
C698 H689 0.929 . S
C698 C690 1.378 . S
C698 C693 1.350 . S
C699 H686 0.929 . S
C699 C691 1.433 . S
C699 N701 1.384 . S
N700 C696 1.427 . S
N700 C697 1.384 . S
N701 C693 1.427 . S
N701 C699 1.384 . S
H702 C708 0.930 . S
H703 C712 0.930 . S
H704 C717 0.929 . S
H705 C715 0.929 . S
H706 C710 0.929 . S
H707 C716 0.929 . S
C708 H702 0.930 . S
C708 C709 1.367 . S
C708 C716 1.378 . S
C709 C708 1.367 . S
C709 C717 1.433 . S
C710 H706 0.929 . S
C710 C712 1.378 . S
C710 C714 1.350 . S
C711 C714 1.463 . S
C711 C716 1.350 . S
C711 N719 1.427 . S
C712 H703 0.930 . S
C712 C710 1.378 . S
C712 C713 1.367 . S
C713 C712 1.367 . S
C713 C715 1.433 . S
C714 C710 1.350 . S
C714 C711 1.463 . S
C714 N718 1.427 . S
C715 H705 0.929 . S
C715 C713 1.433 . S
C715 N718 1.384 . S
C716 H707 0.929 . S
C716 C708 1.378 . S
C716 C711 1.350 . S
C717 H704 0.929 . S
C717 C709 1.433 . S
C717 N719 1.384 . S
N718 C714 1.427 . S
N718 C715 1.384 . S
N719 C711 1.427 . S
N719 C717 1.384 . S
H720 C726 0.930 . S
H721 C730 0.930 . S
H722 C735 0.929 . S
H723 C733 0.929 . S
H724 C728 0.929 . S
H725 C734 0.929 . S
C726 H720 0.930 . S
C726 C727 1.367 . S
C726 C734 1.378 . S
C727 C726 1.367 . S
C727 C735 1.433 . S
C728 H724 0.929 . S
C728 C730 1.378 . S
C728 C732 1.350 . S
C729 C732 1.463 . S
C729 C734 1.350 . S
C729 N737 1.427 . S
C730 H721 0.930 . S
C730 C728 1.378 . S
C730 C731 1.367 . S
C731 C730 1.367 . S
C731 C733 1.433 . S
C732 C728 1.350 . S
C732 C729 1.463 . S
C732 N736 1.427 . S
C733 H723 0.929 . S
C733 C731 1.433 . S
C733 N736 1.384 . S
C734 H725 0.929 . S
C734 C726 1.378 . S
C734 C729 1.350 . S
C735 H722 0.929 . S
C735 C727 1.433 . S
C735 N737 1.384 . S
N736 C732 1.427 . S
N736 C733 1.384 . S
N737 C729 1.427 . S
N737 C735 1.384 . S
H738 C744 0.930 . S
H739 C748 0.930 . S
H740 C753 0.929 . S
H741 C751 0.929 . S
H742 C746 0.929 . S
H743 C752 0.929 . S
C744 H738 0.930 . S
C744 C745 1.367 . S
C744 C752 1.378 . S
C745 C744 1.367 . S
C745 C753 1.433 . S
C746 H742 0.929 . S
C746 C748 1.378 . S
C746 C750 1.350 . S
C747 C750 1.463 . S
C747 C752 1.350 . S
C747 N755 1.427 . S
C748 H739 0.930 . S
C748 C746 1.378 . S
C748 C749 1.367 . S
C749 C748 1.367 . S
C749 C751 1.433 . S
C750 C746 1.350 . S
C750 C747 1.463 . S
C750 N754 1.427 . S
C751 H741 0.929 . S
C751 C749 1.433 . S
C751 N754 1.384 . S
C752 H743 0.929 . S
C752 C744 1.378 . S
C752 C747 1.350 . S
C753 H740 0.929 . S
C753 C745 1.433 . S
C753 N755 1.384 . S
N754 C750 1.427 . S
N754 C751 1.384 . S
N755 C747 1.427 . S
N755 C753 1.384 . S
H756 C762 0.930 . S
H757 C766 0.930 . S
H758 C771 0.929 . S
H759 C769 0.929 . S
H760 C764 0.929 1_545 S
H761 C770 0.929 . S
C762 H756 0.930 . S
C762 C763 1.367 . S
C762 C770 1.378 . S
C763 C762 1.367 . S
C763 C771 1.433 . S
C764 H760 0.929 1_565 S
C764 C766 1.378 . S
C764 C768 1.350 . S
C765 C768 1.463 1_545 S
C765 C770 1.350 . S
C765 N773 1.427 . S
C766 H757 0.930 . S
C766 C764 1.378 . S
C766 C767 1.367 . S
C767 C766 1.367 . S
C767 C769 1.433 . S
C768 C764 1.350 . S
C768 C765 1.463 1_565 S
C768 N772 1.427 . S
C769 H759 0.929 . S
C769 C767 1.433 . S
C769 N772 1.384 . S
C770 H761 0.929 . S
C770 C762 1.378 . S
C770 C765 1.350 . S
C771 H758 0.929 . S
C771 C763 1.433 . S
C771 N773 1.384 . S
N772 C768 1.427 . S
N772 C769 1.384 . S
N773 C765 1.427 . S
N773 C771 1.384 . S
H774 C780 0.930 . S
H775 C784 0.930 . S
H776 C789 0.929 . S
H777 C787 0.929 1_655 S
H778 C782 0.929 . S
H779 C788 0.929 . S
C780 H774 0.930 . S
C780 C781 1.367 . S
C780 C788 1.378 . S
C781 C780 1.367 . S
C781 C789 1.433 . S
C782 H778 0.929 . S
C782 C784 1.378 . S
C782 C786 1.350 . S
C783 C786 1.463 1_655 S
C783 C788 1.350 . S
C783 N791 1.427 . S
C784 H775 0.930 . S
C784 C782 1.378 . S
C784 C785 1.367 . S
C785 C784 1.367 . S
C785 C787 1.433 . S
C786 C782 1.350 . S
C786 C783 1.463 1_455 S
C786 N790 1.427 1_455 S
C787 H777 0.929 1_455 S
C787 C785 1.433 . S
C787 N790 1.384 1_455 S
C788 H779 0.929 . S
C788 C780 1.378 . S
C788 C783 1.350 . S
C789 H776 0.929 . S
C789 C781 1.433 . S
C789 N791 1.384 . S
N790 C786 1.427 1_655 S
N790 C787 1.384 1_655 S
N791 C783 1.427 . S
N791 C789 1.384 . S
H792 C798 0.930 . S
H793 C802 0.930 . S
H794 C807 0.929 . S
H795 C805 0.929 . S
H796 C800 0.929 . S
H797 C806 0.929 . S
C798 H792 0.930 . S
C798 C799 1.367 . S
C798 C806 1.378 . S
C799 C798 1.367 . S
C799 C807 1.433 . S
C800 H796 0.929 . S
C800 C802 1.378 . S
C800 C804 1.350 . S
C801 C804 1.463 . S
C801 C806 1.350 . S
C801 N809 1.427 . S
C802 H793 0.930 . S
C802 C800 1.378 . S
C802 C803 1.367 . S
C803 C802 1.367 . S
C803 C805 1.433 . S
C804 C800 1.350 . S
C804 C801 1.463 . S
C804 N808 1.427 . S
C805 H795 0.929 . S
C805 C803 1.433 . S
C805 N808 1.384 . S
C806 H797 0.929 . S
C806 C798 1.378 . S
C806 C801 1.350 . S
C807 H794 0.929 . S
C807 C799 1.433 . S
C807 N809 1.384 . S
N808 C804 1.427 . S
N808 C805 1.384 . S
N809 C801 1.427 . S
N809 C807 1.384 . S
H810 C816 0.930 . S
H811 C820 0.930 . S
H812 C825 0.929 . S
H813 C823 0.929 . S
H814 C818 0.929 . S
H815 C824 0.929 . S
C816 H810 0.930 . S
C816 C817 1.367 . S
C816 C824 1.378 . S
C817 C816 1.367 . S
C817 C825 1.433 . S
C818 H814 0.929 . S
C818 C820 1.378 . S
C818 C822 1.350 . S
C819 C822 1.463 . S
C819 C824 1.350 1_545 S
C819 N827 1.436 1_545 S
C820 H811 0.930 . S
C820 C818 1.378 . S
C820 C821 1.367 . S
C821 C820 1.367 . S
C821 C823 1.433 . S
C822 C818 1.350 . S
C822 C819 1.463 . S
C822 N826 1.427 . S
C823 H813 0.929 . S
C823 C821 1.433 . S
C823 N826 1.384 . S
C824 H815 0.929 . S
C824 C816 1.378 . S
C824 C819 1.350 1_565 S
C825 H812 0.929 . S
C825 C817 1.433 . S
C825 N827 1.404 . S
N826 C822 1.427 . S
N826 C823 1.384 . S
N827 C819 1.436 1_565 S
N827 C825 1.404 . S
H828 C834 0.930 . S
H829 C838 0.930 . S
H830 C843 0.929 . S
H831 C841 0.929 1_655 S
H832 C836 0.929 . S
H833 C842 0.929 . S
C834 H828 0.930 . S
C834 C835 1.367 . S
C834 C842 1.378 . S
C835 C834 1.367 . S
C835 C843 1.433 . S
C836 H832 0.929 . S
C836 C838 1.378 . S
C836 C840 1.350 . S
C837 C840 1.463 1_655 S
C837 C842 1.350 . S
C837 N845 1.427 . S
C838 H829 0.930 . S
C838 C836 1.378 . S
C838 C839 1.367 . S
C839 C838 1.367 . S
C839 C841 1.433 . S
C840 C836 1.350 . S
C840 C837 1.463 1_455 S
C840 N844 1.427 1_455 S
C841 H831 0.929 1_455 S
C841 C839 1.433 . S
C841 N844 1.384 1_455 S
C842 H833 0.929 . S
C842 C834 1.378 . S
C842 C837 1.350 . S
C843 H830 0.929 . S
C843 C835 1.433 . S
C843 N845 1.384 . S
N844 C840 1.427 1_655 S
N844 C841 1.384 1_655 S
N845 C837 1.427 . S
N845 C843 1.384 . S
C367 C17 3.428 . S
C371 C2 3.428 . S
C385 C42 3.494 . S
C389 C57 3.494 . S
C403 C97 3.521 . S
C407 C82 3.521 . S
C421 C122 3.428 . S
C425 C137 3.428 . S
C439 C177 3.493 . S
C443 C162 3.493 1_556 S
C457 C202 3.522 . S
C461 C217 3.522 1_556 S
C475 C248 2.564 . S
C479 C269 2.564 . S
C493 C309 2.852 . S
C497 C288 2.852 . S
C511 C328 2.065 . S
C515 C349 2.065 . S
C529 C231 1.697 . S
C533 C8 1.687 . S
C547 C71 2.646 . S
C551 C151 2.663 . S
C565 C88 1.116 . S
C569 C168 1.127 . S
C583 C111 2.982 . S
C587 C252 3.042 . S
C601 C282 1.269 . S
C605 C31 1.257 1_556 S
C619 C332 1.792 . S
C623 C48 1.708 . S
C637 C337 0.859 . S
C641 C29 0.858 . S
C655 C52 2.249 . S
C659 C257 2.248 . S
C673 C311 2.692 . S
C677 C109 2.607 . S
C691 C92 1.698 . S
C695 C149 1.685 . S
C709 C172 2.644 . S
C713 C12 2.663 . S
C727 C69 1.127 . S
C731 C229 1.115 . S
C745 C322 0.859 . S
C749 C128 0.840 . S
C763 C242 2.247 . S
C767 C191 2.251 . S
C781 C292 2.690 . S
C785 C208 2.601 . S
C799 C271 3.042 . S
C803 C212 2.987 . S
C817 C132 1.252 . S
C821 C297 1.272 . S
C835 C351 1.792 . S
C839 C189 1.707 . S
