# Generated by pormake.
# Topology pbp, (3)-cn, num edge types: 1
# Building blocks:
#     Node 0, Type 0, BuildingBlock: OLANEW_clean_sbu_2, # of connection points: 3
#     Node 1, Type 0, BuildingBlock: OLANEW_clean_sbu_2, # of connection points: 3
#     Node 2, Type 0, BuildingBlock: OLANEW_clean_sbu_2, # of connection points: 3
#     Node 3, Type 0, BuildingBlock: OLANEW_clean_sbu_2, # of connection points: 3
#     Node 4, Type 0, BuildingBlock: OLANEW_clean_sbu_2, # of connection points: 3
#     Node 5, Type 0, BuildingBlock: OLANEW_clean_sbu_2, # of connection points: 3
#     Node 6, Type 0, BuildingBlock: OLANEW_clean_sbu_2, # of connection points: 3
#     Node 7, Type 0, BuildingBlock: OLANEW_clean_sbu_2, # of connection points: 3
#     Node 8, Type 0, BuildingBlock: OLANEW_clean_sbu_2, # of connection points: 3
#     Node 9, Type 0, BuildingBlock: OLANEW_clean_sbu_2, # of connection points: 3
#     Node 10, Type 0, BuildingBlock: OLANEW_clean_sbu_2, # of connection points: 3
#     Node 11, Type 0, BuildingBlock: OLANEW_clean_sbu_2, # of connection points: 3
#     Node 12, Type 0, BuildingBlock: OLANEW_clean_sbu_2, # of connection points: 3
#     Node 13, Type 0, BuildingBlock: OLANEW_clean_sbu_2, # of connection points: 3
#     Node 14, Type 0, BuildingBlock: OLANEW_clean_sbu_2, # of connection points: 3
#     Node 15, Type 0, BuildingBlock: OLANEW_clean_sbu_2, # of connection points: 3
#     Node 16, Type 0, BuildingBlock: OLANEW_clean_sbu_2, # of connection points: 3
#     Node 17, Type 0, BuildingBlock: OLANEW_clean_sbu_2, # of connection points: 3
#     Node 18, Type 0, BuildingBlock: OLANEW_clean_sbu_2, # of connection points: 3
#     Node 19, Type 0, BuildingBlock: OLANEW_clean_sbu_2, # of connection points: 3
#     Node 20, Type 0, BuildingBlock: OLANEW_clean_sbu_2, # of connection points: 3
#     Node 21, Type 0, BuildingBlock: OLANEW_clean_sbu_2, # of connection points: 3
#     Node 22, Type 0, BuildingBlock: OLANEW_clean_sbu_2, # of connection points: 3
#     Node 23, Type 0, BuildingBlock: OLANEW_clean_sbu_2, # of connection points: 3
#     Node 24, Type 0, BuildingBlock: OLANEW_clean_sbu_2, # of connection points: 3
#     Node 25, Type 0, BuildingBlock: OLANEW_clean_sbu_2, # of connection points: 3
#     Node 26, Type 0, BuildingBlock: OLANEW_clean_sbu_2, # of connection points: 3
#     Node 27, Type 0, BuildingBlock: OLANEW_clean_sbu_2, # of connection points: 3
#     Node 28, Type 0, BuildingBlock: OLANEW_clean_sbu_2, # of connection points: 3
#     Node 29, Type 0, BuildingBlock: OLANEW_clean_sbu_2, # of connection points: 3
#     Node 30, Type 0, BuildingBlock: OLANEW_clean_sbu_2, # of connection points: 3
#     Node 31, Type 0, BuildingBlock: OLANEW_clean_sbu_2, # of connection points: 3
#     Node 32, Type 0, BuildingBlock: OLANEW_clean_sbu_2, # of connection points: 3
#     Node 33, Type 0, BuildingBlock: OLANEW_clean_sbu_2, # of connection points: 3
#     Node 34, Type 0, BuildingBlock: OLANEW_clean_sbu_2, # of connection points: 3
#     Node 35, Type 0, BuildingBlock: OLANEW_clean_sbu_2, # of connection points: 3
#     Node 36, Type 0, BuildingBlock: OLANEW_clean_sbu_2, # of connection points: 3
#     Node 37, Type 0, BuildingBlock: OLANEW_clean_sbu_2, # of connection points: 3
#     Node 38, Type 0, BuildingBlock: OLANEW_clean_sbu_2, # of connection points: 3
#     Node 39, Type 0, BuildingBlock: OLANEW_clean_sbu_2, # of connection points: 3
#     Node 40, Type 0, BuildingBlock: OLANEW_clean_sbu_2, # of connection points: 3
#     Node 41, Type 0, BuildingBlock: OLANEW_clean_sbu_2, # of connection points: 3
#     Node 42, Type 0, BuildingBlock: OLANEW_clean_sbu_2, # of connection points: 3
#     Node 43, Type 0, BuildingBlock: OLANEW_clean_sbu_2, # of connection points: 3
#     Node 44, Type 0, BuildingBlock: OLANEW_clean_sbu_2, # of connection points: 3
#     Node 45, Type 0, BuildingBlock: OLANEW_clean_sbu_2, # of connection points: 3
#     Node 46, Type 0, BuildingBlock: OLANEW_clean_sbu_2, # of connection points: 3
#     Node 47, Type 0, BuildingBlock: OLANEW_clean_sbu_2, # of connection points: 3
#     Edge 48, Type (0, 0), BuildingBlock: MIFKUJ_clean_linker_0, # of connection points: 2
#     Edge 49, Type (0, 0), BuildingBlock: MIFKUJ_clean_linker_0, # of connection points: 2
#     Edge 50, Type (0, 0), BuildingBlock: MIFKUJ_clean_linker_0, # of connection points: 2
#     Edge 51, Type (0, 0), BuildingBlock: MIFKUJ_clean_linker_0, # of connection points: 2
#     Edge 52, Type (0, 0), BuildingBlock: MIFKUJ_clean_linker_0, # of connection points: 2
#     Edge 53, Type (0, 0), BuildingBlock: MIFKUJ_clean_linker_0, # of connection points: 2
#     Edge 54, Type (0, 0), BuildingBlock: MIFKUJ_clean_linker_0, # of connection points: 2
#     Edge 55, Type (0, 0), BuildingBlock: MIFKUJ_clean_linker_0, # of connection points: 2
#     Edge 56, Type (0, 0), BuildingBlock: MIFKUJ_clean_linker_0, # of connection points: 2
#     Edge 57, Type (0, 0), BuildingBlock: MIFKUJ_clean_linker_0, # of connection points: 2
#     Edge 58, Type (0, 0), BuildingBlock: MIFKUJ_clean_linker_0, # of connection points: 2
#     Edge 59, Type (0, 0), BuildingBlock: MIFKUJ_clean_linker_0, # of connection points: 2
#     Edge 60, Type (0, 0), BuildingBlock: MIFKUJ_clean_linker_0, # of connection points: 2
#     Edge 61, Type (0, 0), BuildingBlock: MIFKUJ_clean_linker_0, # of connection points: 2
#     Edge 62, Type (0, 0), BuildingBlock: MIFKUJ_clean_linker_0, # of connection points: 2
#     Edge 63, Type (0, 0), BuildingBlock: MIFKUJ_clean_linker_0, # of connection points: 2
#     Edge 64, Type (0, 0), BuildingBlock: MIFKUJ_clean_linker_0, # of connection points: 2
#     Edge 65, Type (0, 0), BuildingBlock: MIFKUJ_clean_linker_0, # of connection points: 2
#     Edge 66, Type (0, 0), BuildingBlock: MIFKUJ_clean_linker_0, # of connection points: 2
#     Edge 67, Type (0, 0), BuildingBlock: MIFKUJ_clean_linker_0, # of connection points: 2
#     Edge 68, Type (0, 0), BuildingBlock: MIFKUJ_clean_linker_0, # of connection points: 2
#     Edge 69, Type (0, 0), BuildingBlock: MIFKUJ_clean_linker_0, # of connection points: 2
#     Edge 70, Type (0, 0), BuildingBlock: MIFKUJ_clean_linker_0, # of connection points: 2
#     Edge 71, Type (0, 0), BuildingBlock: MIFKUJ_clean_linker_0, # of connection points: 2
#     Edge 72, Type (0, 0), BuildingBlock: MIFKUJ_clean_linker_0, # of connection points: 2
#     Edge 73, Type (0, 0), BuildingBlock: MIFKUJ_clean_linker_0, # of connection points: 2
#     Edge 74, Type (0, 0), BuildingBlock: MIFKUJ_clean_linker_0, # of connection points: 2
#     Edge 75, Type (0, 0), BuildingBlock: MIFKUJ_clean_linker_0, # of connection points: 2
#     Edge 76, Type (0, 0), BuildingBlock: MIFKUJ_clean_linker_0, # of connection points: 2
#     Edge 77, Type (0, 0), BuildingBlock: MIFKUJ_clean_linker_0, # of connection points: 2
#     Edge 78, Type (0, 0), BuildingBlock: MIFKUJ_clean_linker_0, # of connection points: 2
#     Edge 79, Type (0, 0), BuildingBlock: MIFKUJ_clean_linker_0, # of connection points: 2
#     Edge 80, Type (0, 0), BuildingBlock: MIFKUJ_clean_linker_0, # of connection points: 2
#     Edge 81, Type (0, 0), BuildingBlock: MIFKUJ_clean_linker_0, # of connection points: 2
#     Edge 82, Type (0, 0), BuildingBlock: MIFKUJ_clean_linker_0, # of connection points: 2
#     Edge 83, Type (0, 0), BuildingBlock: MIFKUJ_clean_linker_0, # of connection points: 2
#     Edge 84, Type (0, 0), BuildingBlock: MIFKUJ_clean_linker_0, # of connection points: 2
#     Edge 85, Type (0, 0), BuildingBlock: MIFKUJ_clean_linker_0, # of connection points: 2
#     Edge 86, Type (0, 0), BuildingBlock: MIFKUJ_clean_linker_0, # of connection points: 2
#     Edge 87, Type (0, 0), BuildingBlock: MIFKUJ_clean_linker_0, # of connection points: 2
#     Edge 88, Type (0, 0), BuildingBlock: MIFKUJ_clean_linker_0, # of connection points: 2
#     Edge 89, Type (0, 0), BuildingBlock: MIFKUJ_clean_linker_0, # of connection points: 2
#     Edge 90, Type (0, 0), BuildingBlock: MIFKUJ_clean_linker_0, # of connection points: 2
#     Edge 91, Type (0, 0), BuildingBlock: MIFKUJ_clean_linker_0, # of connection points: 2
#     Edge 92, Type (0, 0), BuildingBlock: MIFKUJ_clean_linker_0, # of connection points: 2
#     Edge 93, Type (0, 0), BuildingBlock: MIFKUJ_clean_linker_0, # of connection points: 2
#     Edge 94, Type (0, 0), BuildingBlock: MIFKUJ_clean_linker_0, # of connection points: 2
#     Edge 95, Type (0, 0), BuildingBlock: MIFKUJ_clean_linker_0, # of connection points: 2
#     Edge 96, Type (0, 0), BuildingBlock: MIFKUJ_clean_linker_0, # of connection points: 2
#     Edge 97, Type (0, 0), BuildingBlock: MIFKUJ_clean_linker_0, # of connection points: 2
#     Edge 98, Type (0, 0), BuildingBlock: MIFKUJ_clean_linker_0, # of connection points: 2
#     Edge 99, Type (0, 0), BuildingBlock: MIFKUJ_clean_linker_0, # of connection points: 2
#     Edge 100, Type (0, 0), BuildingBlock: MIFKUJ_clean_linker_0, # of connection points: 2
#     Edge 101, Type (0, 0), BuildingBlock: MIFKUJ_clean_linker_0, # of connection points: 2
#     Edge 102, Type (0, 0), BuildingBlock: MIFKUJ_clean_linker_0, # of connection points: 2
#     Edge 103, Type (0, 0), BuildingBlock: MIFKUJ_clean_linker_0, # of connection points: 2
#     Edge 104, Type (0, 0), BuildingBlock: MIFKUJ_clean_linker_0, # of connection points: 2
#     Edge 105, Type (0, 0), BuildingBlock: MIFKUJ_clean_linker_0, # of connection points: 2
#     Edge 106, Type (0, 0), BuildingBlock: MIFKUJ_clean_linker_0, # of connection points: 2
#     Edge 107, Type (0, 0), BuildingBlock: MIFKUJ_clean_linker_0, # of connection points: 2
#     Edge 108, Type (0, 0), BuildingBlock: MIFKUJ_clean_linker_0, # of connection points: 2
#     Edge 109, Type (0, 0), BuildingBlock: MIFKUJ_clean_linker_0, # of connection points: 2
#     Edge 110, Type (0, 0), BuildingBlock: MIFKUJ_clean_linker_0, # of connection points: 2
#     Edge 111, Type (0, 0), BuildingBlock: MIFKUJ_clean_linker_0, # of connection points: 2
#     Edge 112, Type (0, 0), BuildingBlock: MIFKUJ_clean_linker_0, # of connection points: 2
#     Edge 113, Type (0, 0), BuildingBlock: MIFKUJ_clean_linker_0, # of connection points: 2
#     Edge 114, Type (0, 0), BuildingBlock: MIFKUJ_clean_linker_0, # of connection points: 2
#     Edge 115, Type (0, 0), BuildingBlock: MIFKUJ_clean_linker_0, # of connection points: 2
#     Edge 116, Type (0, 0), BuildingBlock: MIFKUJ_clean_linker_0, # of connection points: 2
#     Edge 117, Type (0, 0), BuildingBlock: MIFKUJ_clean_linker_0, # of connection points: 2
#     Edge 118, Type (0, 0), BuildingBlock: MIFKUJ_clean_linker_0, # of connection points: 2
#     Edge 119, Type (0, 0), BuildingBlock: MIFKUJ_clean_linker_0, # of connection points: 2
# Relax obj value: 0.010
# Max RMSD: 0.095
# Mean RMSD: 0.077
data_MOF--net-pbp--node1-OLANEW_clean_sbu_2--edge1-MIFKUJ_clean_linker_0
_symmetry_space_group_name_H-M    P1
_symmetry_Int_Tables_number       1
_symmetry_cell_setting            triclinic
loop_
_symmetry_equiv_pos_as_xyz
'x, y, z'
_cell_length_a     112.71085
_cell_length_b     113.31582
_cell_length_c     112.86185
_cell_angle_alpha  90.033484
_cell_angle_beta   89.953514
_cell_angle_gamma 95.763299
loop_
_atom_site_label
_atom_site_type_symbol
_atom_site_fract_x
_atom_site_fract_y
_atom_site_fract_z
_atom_type_partial_charge
O0 O 0.08156 0.31828 0.28877 0.0
Cd1 Cd 0.07219 0.30657 0.30506 0.0
O2 O 0.08834 0.30263 0.28065 0.0
Cd3 Cd 0.08407 0.29051 0.29545 0.0
O4 O 0.08996 0.27668 0.30692 0.0
C5 C 0.0965 0.26971 0.3018 0.0
O6 O 0.09857 0.27108 0.2904 0.0
C7 C 0.08694 0.31362 0.28033 0.0
C8 C 0.04773 0.30865 0.30593 0.0
O9 O 0.05511 0.31562 0.31192 0.0
O10 O 0.05191 0.30064 0.29958 0.0
O11 O 0.71205 0.08366 0.30134 0.0
Cd12 Cd 0.69834 0.07543 0.28597 0.0
O13 O 0.6996 0.09596 0.30784 0.0
Cd14 Cd 0.68697 0.09291 0.29323 0.0
O15 O 0.67615 0.09938 0.27902 0.0
C16 C 0.68118 0.10766 0.27263 0.0
O17 O 0.69246 0.11125 0.27456 0.0
C18 C 0.70945 0.09145 0.30876 0.0
C19 C 0.69463 0.05077 0.28797 0.0
O20 O 0.70286 0.05572 0.28126 0.0
O21 O 0.68808 0.05749 0.29364 0.0
O22 O 0.88441 0.66118 0.29963 0.0
Cd23 Cd 0.89486 0.67332 0.31505 0.0
O24 O 0.87142 0.67416 0.29681 0.0
Cd25 Cd 0.87745 0.68628 0.31114 0.0
O26 O 0.87574 0.70015 0.32433 0.0
C27 C 0.86777 0.69822 0.33226 0.0
O28 O 0.86144 0.68783 0.33254 0.0
C29 C 0.8755 0.66445 0.29407 0.0
C30 C 0.91951 0.67253 0.31377 0.0
O31 O 0.91301 0.66527 0.32033 0.0
O32 O 0.91435 0.68018 0.30781 0.0
O33 O 0.31639 0.89266 0.28201 0.0
Cd34 Cd 0.3015 0.8981 0.29627 0.0
O35 O 0.32241 0.87841 0.29304 0.0
Cd36 Cd 0.30949 0.88047 0.30715 0.0
O37 O 0.2955 0.8769 0.32047 0.0
C38 C 0.2974 0.87014 0.3291 0.0
O39 O 0.30783 0.86597 0.32993 0.0
C40 C 0.32318 0.88448 0.28354 0.0
C41 C 0.30051 0.92259 0.29708 0.0
O42 O 0.30689 0.91743 0.30448 0.0
O43 O 0.29458 0.91617 0.28933 0.0
O44 O 0.06927 0.72317 0.68909 0.0
Cd45 Cd 0.05408 0.7246 0.70436 0.0
O46 O 0.07608 0.70836 0.69851 0.0
Cd47 Cd 0.08751 0.69421 0.70198 0.0
O48 O 0.09822 0.68061 0.70868 0.0
C49 C 0.10954 0.68223 0.70847 0.0
O50 O 0.11474 0.69209 0.70389 0.0
C51 C 0.07687 0.71566 0.6899 0.0
C52 C 0.03078 0.71858 0.69662 0.0
O53 O 0.03597 0.72905 0.69505 0.0
O54 O 0.03667 0.7109 0.7017 0.0
O55 O 0.30073 0.09212 0.69864 0.0
Cd56 Cd 0.28787 0.08402 0.68253 0.0
O57 O 0.28669 0.10151 0.7069 0.0
Cd58 Cd 0.27417 0.09873 0.69216 0.0
O59 O 0.2628 0.10504 0.67831 0.0
C60 C 0.26525 0.10401 0.66739 0.0
O61 O 0.27444 0.0984 0.66435 0.0
C62 C 0.29721 0.09838 0.70705 0.0
C63 C 0.28869 0.05952 0.6808 0.0
O64 O 0.29595 0.06674 0.67494 0.0
O65 O 0.28095 0.06389 0.68739 0.0
O66 O 0.90042 0.29792 0.65745 0.0
Cd67 Cd 0.90858 0.31194 0.67254 0.0
O68 O 0.88485 0.3075 0.65348 0.0
Cd69 Cd 0.88841 0.32061 0.66758 0.0
O70 O 0.8852 0.33186 0.68276 0.0
C71 C 0.88209 0.32681 0.69249 0.0
O72 O 0.88151 0.31518 0.69311 0.0
C73 C 0.89102 0.29892 0.65145 0.0
C74 C 0.93218 0.3082 0.67748 0.0
O75 O 0.92355 0.30297 0.6835 0.0
O76 O 0.92966 0.31529 0.66922 0.0
O77 O 0.71222 0.91146 0.68935 0.0
Cd78 Cd 0.70308 0.92329 0.7043 0.0
O79 O 0.69601 0.89933 0.69107 0.0
Cd80 Cd 0.68368 0.88323 0.68958 0.0
O81 O 0.66918 0.86965 0.69381 0.0
C82 C 0.66986 0.85869 0.69194 0.0
O83 O 0.67948 0.85533 0.6869 0.0
C84 C 0.70622 0.90182 0.68638 0.0
C85 C 0.70213 0.94698 0.69815 0.0
O86 O 0.71094 0.94372 0.70407 0.0
O87 O 0.69388 0.93899 0.69499 0.0
O88 O 0.31313 0.08217 0.28326 0.0
Cd89 Cd 0.3021 0.07409 0.3006 0.0
O90 O 0.32746 0.09146 0.29397 0.0
Cd91 Cd 0.31706 0.08879 0.31024 0.0
O92 O 0.30295 0.09356 0.32208 0.0
C93 C 0.29416 0.09759 0.31694 0.0
O94 O 0.2941 0.09808 0.30531 0.0
C95 C 0.32319 0.08834 0.28388 0.0
C96 C 0.3008 0.04938 0.30076 0.0
O97 O 0.29231 0.05476 0.29643 0.0
O98 O 0.30985 0.05569 0.30508 0.0
O99 O 0.88824 0.30755 0.32443 0.0
Cd100 Cd 0.89761 0.3236 0.31206 0.0
O101 O 0.88408 0.29587 0.30911 0.0
Cd102 Cd 0.88906 0.30972 0.29607 0.0
O103 O 0.88762 0.32278 0.28203 0.0
C104 C 0.88194 0.3317 0.28413 0.0
O105 O 0.87765 0.33304 0.29482 0.0
C106 C 0.88414 0.29754 0.32026 0.0
C107 C 0.92205 0.32185 0.31003 0.0
O108 O 0.9179 0.32812 0.31822 0.0
O109 O 0.91464 0.31649 0.30273 0.0
O110 O 0.69599 0.89429 0.32199 0.0
Cd111 Cd 0.67913 0.90001 0.31042 0.0
O112 O 0.70616 0.89037 0.30606 0.0
Cd113 Cd 0.69123 0.89206 0.29407 0.0
O114 O 0.6762 0.88621 0.28256 0.0
C115 C 0.667 0.88062 0.28717 0.0
O116 O 0.66664 0.87913 0.29872 0.0
C117 C 0.70548 0.89123 0.31728 0.0
C118 C 0.68105 0.92437 0.30607 0.0
O119 O 0.67537 0.91992 0.31513 0.0
O120 O 0.68581 0.91729 0.29906 0.0
O121 O 0.08035 0.68845 0.32066 0.0
Cd122 Cd 0.07179 0.67092 0.30984 0.0
O123 O 0.0826 0.69918 0.30443 0.0
Cd124 Cd 0.07939 0.6838 0.29276 0.0
O125 O 0.08518 0.66993 0.28128 0.0
C126 C 0.09566 0.66715 0.2832 0.0
O127 O 0.10183 0.67241 0.29193 0.0
C128 C 0.08316 0.69839 0.31566 0.0
C129 C 0.04696 0.67021 0.30951 0.0
O130 O 0.05233 0.66491 0.31764 0.0
O131 O 0.05333 0.67573 0.30146 0.0
O132 O 0.3148 0.90415 0.6939 0.0
Cd133 Cd 0.30136 0.90956 0.67822 0.0
O134 O 0.3213 0.88966 0.68353 0.0
Cd135 Cd 0.30874 0.8905 0.6689 0.0
O136 O 0.29538 0.88185 0.65686 0.0
C137 C 0.29393 0.87062 0.65781 0.0
O138 O 0.30042 0.86548 0.66557 0.0
C139 C 0.32163 0.89592 0.6929 0.0
C140 C 0.29891 0.93385 0.6782 0.0
O141 O 0.29191 0.92662 0.68433 0.0
O142 O 0.30706 0.92959 0.67207 0.0
O143 O 0.08731 0.29796 0.71321 0.0
Cd144 Cd 0.07744 0.28111 0.70229 0.0
O145 O 0.09821 0.30433 0.6979 0.0
Cd146 Cd 0.09386 0.28827 0.68742 0.0
O147 O 0.09918 0.27261 0.6783 0.0
C148 C 0.10705 0.26717 0.68346 0.0
O149 O 0.11088 0.27091 0.69393 0.0
C150 C 0.0948 0.30571 0.70851 0.0
C151 C 0.05364 0.28453 0.69793 0.0
O152 O 0.05663 0.27906 0.70723 0.0
O153 O 0.0619 0.28828 0.69064 0.0
O154 O 0.69973 0.10237 0.65958 0.0
Cd155 Cd 0.68373 0.09333 0.67224 0.0
O156 O 0.69832 0.12024 0.66675 0.0
Cd157 Cd 0.68315 0.11528 0.67842 0.0
O158 O 0.66872 0.11668 0.69113 0.0
C159 C 0.67097 0.11654 0.70216 0.0
O160 O 0.68182 0.11495 0.70562 0.0
C161 C 0.70335 0.11336 0.65988 0.0
C162 C 0.68677 0.06961 0.67664 0.0
O163 O 0.68025 0.07255 0.66804 0.0
O164 O 0.69177 0.07789 0.68321 0.0
O165 O 0.87653 0.66687 0.68079 0.0
Cd166 Cd 0.88196 0.68349 0.6674 0.0
O167 O 0.86791 0.65482 0.66737 0.0
Cd168 Cd 0.86907 0.66886 0.65405 0.0
O169 O 0.86291 0.68358 0.64406 0.0
C170 C 0.85623 0.69001 0.64971 0.0
O171 O 0.85397 0.68763 0.66094 0.0
C172 C 0.87135 0.65677 0.67798 0.0
C173 C 0.9061 0.69105 0.67029 0.0
O174 O 0.89817 0.69499 0.67696 0.0
O175 O 0.90259 0.6837 0.66208 0.0
O176 O 0.31059 0.29413 0.08724 0.0
Cd177 Cd 0.30234 0.31151 0.07895 0.0
O178 O 0.29686 0.29212 0.10117 0.0
Cd179 Cd 0.28805 0.30783 0.09663 0.0
O180 O 0.27704 0.32242 0.09928 0.0
C181 C 0.27974 0.3295 0.10782 0.0
O182 O 0.28926 0.32805 0.11416 0.0
C183 C 0.30595 0.28854 0.09614 0.0
C184 C 0.30149 0.31097 0.05424 0.0
O185 O 0.3106 0.31601 0.05971 0.0
O186 O 0.29279 0.30616 0.06047 0.0
O187 O 0.33706 0.69186 0.89245 0.0
Cd188 Cd 0.32936 0.67277 0.90104 0.0
O189 O 0.31951 0.69858 0.89058 0.0
Cd190 Cd 0.30959 0.68156 0.89479 0.0
O191 O 0.2969 0.6663 0.89053 0.0
C192 C 0.30043 0.65737 0.88527 0.0
O193 O 0.31188 0.65713 0.88322 0.0
C194 C 0.3308 0.70018 0.88968 0.0
C195 C 0.32548 0.67459 0.92538 0.0
O196 O 0.33591 0.67354 0.92124 0.0
O197 O 0.31684 0.67475 0.91802 0.0
O198 O 0.30928 0.29414 0.89443 0.0
Cd199 Cd 0.29722 0.30929 0.90199 0.0
O200 O 0.31973 0.30646 0.88244 0.0
Cd201 Cd 0.30864 0.32092 0.88546 0.0
O202 O 0.29605 0.33386 0.8815 0.0
C203 C 0.29665 0.33833 0.87116 0.0
O204 O 0.30487 0.33522 0.86385 0.0
C205 C 0.31767 0.29617 0.88694 0.0
C206 C 0.29742 0.30982 0.92671 0.0
O207 O 0.28935 0.30333 0.92105 0.0
O208 O 0.30535 0.31612 0.92067 0.0
O209 O 0.69434 0.30734 0.90361 0.0
Cd210 Cd 0.67817 0.29335 0.91121 0.0
O211 O 0.68323 0.31453 0.88989 0.0
Cd212 Cd 0.66755 0.30206 0.89335 0.0
O213 O 0.65279 0.28875 0.88904 0.0
C214 C 0.64766 0.29001 0.87916 0.0
O215 O 0.65121 0.29926 0.87259 0.0
C216 C 0.69321 0.31455 0.89515 0.0
C217 C 0.68003 0.29014 0.93564 0.0
O218 O 0.68531 0.28375 0.92834 0.0
O219 O 0.67384 0.29804 0.93139 0.0
O220 O 0.70508 0.66073 0.88493 0.0
Cd221 Cd 0.69056 0.67241 0.8943 0.0
O222 O 0.70485 0.67117 0.86852 0.0
Cd223 Cd 0.69082 0.68199 0.87396 0.0
O224 O 0.67581 0.69259 0.87195 0.0
C225 C 0.66545 0.68737 0.87015 0.0
O226 O 0.66398 0.67572 0.87028 0.0
C227 C 0.70891 0.66294 0.87449 0.0
C228 C 0.69555 0.67657 0.91821 0.0
O229 O 0.68826 0.66777 0.91492 0.0
O230 O 0.70048 0.6834 0.91017 0.0
O231 O 0.72598 0.68907 0.07805 0.0
Cd232 Cd 0.72017 0.7054 0.06592 0.0
O233 O 0.7098 0.69106 0.08815 0.0
Cd234 Cd 0.69539 0.68868 0.10122 0.0
O235 O 0.68038 0.69322 0.11197 0.0
C236 C 0.68013 0.69205 0.12316 0.0
O237 O 0.68896 0.68747 0.12848 0.0
C238 C 0.71918 0.68582 0.08668 0.0
C239 C 0.71735 0.69963 0.04202 0.0
O240 O 0.7273 0.70458 0.04597 0.0
O241 O 0.70879 0.69731 0.04941 0.0
O242 O 0.31753 0.70095 0.08414 0.0
Cd243 Cd 0.30243 0.68651 0.07545 0.0
O244 O 0.32643 0.68805 0.09462 0.0
Cd245 Cd 0.31303 0.67335 0.09043 0.0
O246 O 0.29855 0.65953 0.09411 0.0
C247 C 0.28796 0.66238 0.09499 0.0
O248 O 0.28598 0.67343 0.09297 0.0
C249 C 0.32582 0.69865 0.09116 0.0
C250 C 0.30584 0.6844 0.05108 0.0
O251 O 0.30035 0.6928 0.05537 0.0
O252 O 0.30968 0.67692 0.0583 0.0
O253 O 0.70828 0.29343 0.09369 0.0
Cd254 Cd 0.69463 0.27684 0.0865 0.0
O255 O 0.69657 0.29685 0.10866 0.0
Cd256 Cd 0.6835 0.28145 0.10626 0.0
O257 O 0.66978 0.26886 0.11419 0.0
C258 C 0.66429 0.27309 0.1228 0.0
O259 O 0.66701 0.28427 0.12569 0.0
C260 C 0.706 0.29961 0.10267 0.0
C261 C 0.69175 0.27805 0.06197 0.0
O262 O 0.685 0.28321 0.06903 0.0
O263 O 0.69982 0.27226 0.06652 0.0
O264 O 0.58063 0.78586 0.7653 0.0
Cd265 Cd 0.56946 0.77549 0.78144 0.0
O266 O 0.59066 0.77063 0.76141 0.0
Cd267 Cd 0.58394 0.76022 0.7767 0.0
O268 O 0.58656 0.75014 0.79282 0.0
C269 C 0.59372 0.75506 0.80046 0.0
O270 O 0.59843 0.76598 0.79856 0.0
C271 C 0.58824 0.78109 0.75903 0.0
C272 C 0.54607 0.78146 0.78305 0.0
O273 O 0.55454 0.78725 0.78884 0.0
O274 O 0.54868 0.77287 0.77645 0.0
O275 O 0.21506 0.58703 0.80435 0.0
Cd276 Cd 0.2007 0.57975 0.78914 0.0
O277 O 0.20345 0.59983 0.81145 0.0
Cd278 Cd 0.19023 0.59741 0.79727 0.0
O279 O 0.17842 0.60304 0.78347 0.0
C280 C 0.18264 0.61143 0.77674 0.0
O281 O 0.19381 0.61577 0.77813 0.0
C282 C 0.21305 0.59483 0.81199 0.0
C283 C 0.19648 0.55506 0.79009 0.0
O284 O 0.2046 0.56013 0.78334 0.0
O285 O 0.19029 0.56167 0.79631 0.0
O286 O 0.38179 0.1642 0.79288 0.0
Cd287 Cd 0.39323 0.17864 0.80563 0.0
O288 O 0.36463 0.16814 0.80047 0.0
Cd289 Cd 0.37175 0.18213 0.8126 0.0
O290 O 0.37123 0.19762 0.82406 0.0
C291 C 0.36463 0.19661 0.83322 0.0
O292 O 0.35897 0.1862 0.83571 0.0
C293 C 0.37048 0.1623 0.79328 0.0
C294 C 0.4177 0.17663 0.80452 0.0
O295 O 0.41107 0.17074 0.81215 0.0
O296 O 0.41275 0.18345 0.7974 0.0
O297 O 0.8194 0.39111 0.78699 0.0
Cd298 Cd 0.80622 0.3986 0.80185 0.0
O299 O 0.81783 0.37323 0.7948 0.0
Cd300 Cd 0.80521 0.37692 0.80872 0.0
O301 O 0.79102 0.37454 0.82198 0.0
C302 C 0.7932 0.37011 0.83199 0.0
O303 O 0.8041 0.36762 0.8343 0.0
C304 C 0.82215 0.38049 0.78696 0.0
C305 C 0.80578 0.42316 0.80055 0.0
O306 O 0.8134 0.41855 0.80708 0.0
O307 O 0.79839 0.41614 0.79461 0.0
O308 O 0.5667 0.2241 0.20078 0.0
Cd309 Cd 0.5508 0.21989 0.21534 0.0
O310 O 0.57361 0.20698 0.20388 0.0
Cd311 Cd 0.58674 0.19401 0.20329 0.0
O312 O 0.5985 0.18053 0.20793 0.0
C313 C 0.60976 0.18288 0.20781 0.0
O314 O 0.61432 0.19346 0.20441 0.0
C315 C 0.57444 0.21696 0.19865 0.0
C316 C 0.52832 0.21385 0.20557 0.0
O317 O 0.53257 0.22472 0.20658 0.0
O318 O 0.53478 0.20581 0.20901 0.0
O319 O 0.80446 0.58936 0.20289 0.0
Cd320 Cd 0.79076 0.57951 0.18832 0.0
O321 O 0.796 0.60603 0.20206 0.0
Cd322 Cd 0.78262 0.60096 0.18851 0.0
O323 O 0.76952 0.60615 0.17574 0.0
C324 C 0.77205 0.607 0.16478 0.0
O325 O 0.78234 0.60389 0.16108 0.0
C326 C 0.80388 0.59997 0.20634 0.0
C327 C 0.79303 0.55521 0.187 0.0
O328 O 0.79936 0.56263 0.18044 0.0
O329 O 0.78561 0.55928 0.19417 0.0
O330 O 0.39677 0.78738 0.16771 0.0
Cd331 Cd 0.40575 0.80104 0.18273 0.0
O332 O 0.38616 0.80057 0.15973 0.0
Cd333 Cd 0.39042 0.81373 0.17366 0.0
O334 O 0.38759 0.82534 0.18867 0.0
C335 C 0.38326 0.83512 0.18683 0.0
O336 O 0.38121 0.83826 0.17588 0.0
C337 C 0.38961 0.79023 0.15975 0.0
C338 C 0.42981 0.79798 0.18585 0.0
O339 O 0.42174 0.79222 0.19218 0.0
O340 O 0.42651 0.80524 0.17811 0.0
O341 O 0.19769 0.39795 0.17583 0.0
Cd342 Cd 0.18376 0.40444 0.19053 0.0
O343 O 0.18379 0.39306 0.16255 0.0
Cd344 Cd 0.16943 0.39545 0.17506 0.0
O345 O 0.15633 0.38928 0.18855 0.0
C346 C 0.15333 0.37817 0.18851 0.0
O347 O 0.15797 0.37164 0.18044 0.0
C348 C 0.19473 0.3942 0.16552 0.0
C349 C 0.18351 0.42904 0.19036 0.0
O350 O 0.19073 0.42406 0.19704 0.0
O351 O 0.17638 0.42238 0.18379 0.0
O352 O 0.81581 0.58207 0.77588 0.0
Cd353 Cd 0.80346 0.57439 0.79254 0.0
O354 O 0.82728 0.59458 0.78682 0.0
Cd355 Cd 0.81607 0.59151 0.80251 0.0
O356 O 0.80231 0.59624 0.81478 0.0
C357 C 0.79613 0.60422 0.81096 0.0
O358 O 0.79836 0.60854 0.8003 0.0
C359 C 0.82472 0.58984 0.7768 0.0
C360 C 0.80336 0.54982 0.79434 0.0
O361 O 0.79559 0.55446 0.78804 0.0
O362 O 0.81114 0.55682 0.79985 0.0
O363 O 0.3923 0.79895 0.81699 0.0
Cd364 Cd 0.40131 0.8129 0.80223 0.0
O365 O 0.37525 0.80686 0.8176 0.0
Cd366 Cd 0.37997 0.82019 0.80394 0.0
O367 O 0.37815 0.83242 0.78923 0.0
C368 C 0.37441 0.84246 0.79122 0.0
O369 O 0.3723 0.84547 0.80221 0.0
C370 C 0.38184 0.79912 0.82119 0.0
C371 C 0.42489 0.80868 0.79777 0.0
O372 O 0.42236 0.81604 0.80579 0.0
O373 O 0.41627 0.80339 0.79178 0.0
O374 O 0.19519 0.39792 0.81954 0.0
Cd375 Cd 0.17823 0.40382 0.80823 0.0
O376 O 0.20533 0.3946 0.80343 0.0
Cd377 Cd 0.19039 0.39653 0.79152 0.0
O378 O 0.1758 0.39112 0.77934 0.0
C379 C 0.16658 0.38503 0.78334 0.0
O380 O 0.16588 0.38278 0.79475 0.0
C381 C 0.20469 0.39511 0.81467 0.0
C382 C 0.18043 0.42823 0.80407 0.0
O383 O 0.1748 0.42378 0.81315 0.0
O384 O 0.18498 0.42113 0.79692 0.0
O385 O 0.5772 0.18675 0.82057 0.0
Cd386 Cd 0.56926 0.17023 0.80799 0.0
O387 O 0.58011 0.19899 0.80549 0.0
Cd388 Cd 0.5775 0.18477 0.7924 0.0
O389 O 0.58433 0.17212 0.78016 0.0
C390 C 0.59291 0.16669 0.78395 0.0
O391 O 0.59654 0.16855 0.79492 0.0
C392 C 0.58018 0.19713 0.8166 0.0
C393 C 0.54456 0.17005 0.8059 0.0
O394 O 0.5492 0.16421 0.81412 0.0
O395 O 0.5516 0.17587 0.79857 0.0
O396 O 0.82188 0.3992 0.19224 0.0
Cd397 Cd 0.80808 0.40594 0.17756 0.0
O398 O 0.83081 0.38851 0.17933 0.0
Cd399 Cd 0.81815 0.39074 0.16506 0.0
O400 O 0.80416 0.38417 0.15262 0.0
C401 C 0.7933 0.38375 0.15577 0.0
O402 O 0.79072 0.38802 0.16619 0.0
C403 C 0.82997 0.39251 0.1898 0.0
C404 C 0.80573 0.43018 0.17939 0.0
O405 O 0.79894 0.42256 0.18529 0.0
O406 O 0.81365 0.42633 0.17264 0.0
O407 O 0.58702 0.79428 0.21603 0.0
Cd408 Cd 0.57783 0.77784 0.20405 0.0
O409 O 0.59828 0.80172 0.20139 0.0
Cd410 Cd 0.59421 0.78631 0.18994 0.0
O411 O 0.59906 0.77073 0.18037 0.0
C412 C 0.60374 0.76288 0.18632 0.0
O413 O 0.60471 0.76419 0.19786 0.0
C414 C 0.59454 0.8024 0.21197 0.0
C415 C 0.55369 0.78024 0.20048 0.0
O416 O 0.55716 0.77433 0.20929 0.0
O417 O 0.56163 0.78491 0.1933 0.0
O418 O 0.19782 0.58883 0.16871 0.0
Cd419 Cd 0.18368 0.58062 0.18374 0.0
O420 O 0.18709 0.60333 0.16403 0.0
Cd421 Cd 0.17344 0.5992 0.17757 0.0
O422 O 0.16035 0.602 0.19134 0.0
C423 C 0.16409 0.60571 0.20142 0.0
O424 O 0.17564 0.60713 0.20337 0.0
C425 C 0.19628 0.59786 0.16243 0.0
C426 C 0.18347 0.55601 0.18538 0.0
O427 O 0.17643 0.56074 0.1783 0.0
O428 O 0.19059 0.56293 0.19172 0.0
O429 O 0.37596 0.15996 0.18246 0.0
Cd430 Cd 0.38175 0.1762 0.16874 0.0
O431 O 0.35977 0.15285 0.17295 0.0
Cd432 Cd 0.36168 0.1669 0.15964 0.0
O433 O 0.35828 0.1824 0.14911 0.0
C434 C 0.34891 0.18719 0.15179 0.0
O435 O 0.34215 0.18258 0.16046 0.0
C436 C 0.36692 0.15233 0.1816 0.0
C437 C 0.40561 0.18428 0.17262 0.0
O438 O 0.3973 0.18805 0.1789 0.0
O439 O 0.40264 0.17685 0.16432 0.0
O440 O 0.79055 0.7834 0.58938 0.0
Cd441 Cd 0.77897 0.79876 0.58151 0.0
O442 O 0.78269 0.78396 0.60721 0.0
Cd443 Cd 0.77149 0.79829 0.604 0.0
O444 O 0.76065 0.81231 0.60944 0.0
C445 C 0.76577 0.82086 0.61544 0.0
O446 O 0.77728 0.82111 0.61746 0.0
C447 C 0.78972 0.77959 0.59997 0.0
C448 C 0.78056 0.79988 0.55682 0.0
O449 O 0.78799 0.8062 0.56338 0.0
O450 O 0.77233 0.79308 0.56194 0.0
O451 O 0.82993 0.19209 0.38883 0.0
Cd452 Cd 0.81968 0.17373 0.39679 0.0
O453 O 0.81328 0.20054 0.38712 0.0
Cd454 Cd 0.8019 0.18415 0.39056 0.0
O455 O 0.78962 0.16859 0.38622 0.0
C456 C 0.79356 0.15988 0.38092 0.0
O457 O 0.80506 0.1602 0.37883 0.0
C458 C 0.82458 0.20114 0.38634 0.0
C459 C 0.81756 0.17488 0.4214 0.0
O460 O 0.82651 0.17064 0.41655 0.0
O461 O 0.80959 0.17852 0.4146 0.0
O462 O 0.80699 0.78914 0.39797 0.0
Cd463 Cd 0.79372 0.80347 0.40501 0.0
O464 O 0.81869 0.80252 0.38825 0.0
Cd465 Cd 0.80711 0.81661 0.39109 0.0
O466 O 0.79463 0.82952 0.38667 0.0
C467 C 0.7956 0.83399 0.37634 0.0
O468 O 0.80407 0.83087 0.36933 0.0
C469 C 0.81623 0.79186 0.39168 0.0
C470 C 0.79142 0.80308 0.42965 0.0
O471 O 0.78431 0.79641 0.42308 0.0
O472 O 0.79962 0.80994 0.42456 0.0
O473 O 0.1973 0.80642 0.39861 0.0
Cd474 Cd 0.18032 0.7932 0.40579 0.0
O475 O 0.18622 0.81717 0.3878 0.0
Cd476 Cd 0.1699 0.80545 0.39077 0.0
O477 O 0.15518 0.7923 0.38592 0.0
C478 C 0.14966 0.79421 0.37641 0.0
O479 O 0.15271 0.80406 0.37053 0.0
C480 C 0.1964 0.81519 0.39174 0.0
C481 C 0.18011 0.7915 0.43047 0.0
O482 O 0.18559 0.78439 0.42412 0.0
O483 O 0.17472 0.79941 0.42514 0.0
O484 O 0.20235 0.15901 0.38496 0.0
Cd485 Cd 0.18734 0.17039 0.39387 0.0
O486 O 0.19528 0.16065 0.36693 0.0
Cd487 Cd 0.18121 0.17182 0.37143 0.0
O488 O 0.16829 0.18436 0.36719 0.0
C489 C 0.16764 0.18683 0.35624 0.0
O490 O 0.17448 0.18174 0.34876 0.0
C491 C 0.2028 0.15674 0.37394 0.0
C492 C 0.1928 0.1756 0.41753 0.0
O493 O 0.1865 0.16598 0.41463 0.0
O494 O 0.19644 0.1828 0.40923 0.0
O495 O 0.22809 0.1872 0.5762 0.0
Cd496 Cd 0.22513 0.20447 0.56398 0.0
O497 O 0.21258 0.19102 0.58661 0.0
Cd498 Cd 0.19847 0.18947 0.60005 0.0
O499 O 0.18338 0.1941 0.61066 0.0
C500 C 0.18455 0.1965 0.62162 0.0
O501 O 0.1949 0.19563 0.62672 0.0
C502 C 0.22113 0.18468 0.5849 0.0
C503 C 0.22042 0.19899 0.54025 0.0
O504 O 0.23116 0.20118 0.54399 0.0
O505 O 0.21192 0.19927 0.54777 0.0
O506 O 0.82316 0.20528 0.5797 0.0
Cd507 Cd 0.80869 0.18927 0.57266 0.0
O508 O 0.83682 0.19345 0.58417 0.0
Cd509 Cd 0.82425 0.17774 0.58148 0.0
O510 O 0.8088 0.16611 0.5875 0.0
C511 C 0.80242 0.1708 0.59513 0.0
O512 O 0.80547 0.18185 0.59831 0.0
C513 C 0.8336 0.20386 0.58336 0.0
C514 C 0.80978 0.1865 0.54813 0.0
O515 O 0.80263 0.19326 0.55284 0.0
O516 O 0.81641 0.18103 0.55504 0.0
O517 O 0.197 0.79676 0.59068 0.0
Cd518 Cd 0.18038 0.78365 0.58261 0.0
O519 O 0.20313 0.78281 0.60204 0.0
Cd520 Cd 0.18768 0.76997 0.59888 0.0
O521 O 0.1723 0.75841 0.60523 0.0
C522 C 0.17419 0.75101 0.61331 0.0
O523 O 0.18521 0.75026 0.61679 0.0
C524 C 0.2045 0.79335 0.59802 0.0
C525 C 0.18008 0.78445 0.55789 0.0
O526 O 0.17444 0.79155 0.56409 0.0
O527 O 0.18583 0.77693 0.56338 0.0
H528 H 0.15204 0.19898 0.36907 0.0
H529 H 0.13905 0.21341 0.36157 0.0
H530 H 0.15195 0.20836 0.32612 0.0
H531 H 0.16496 0.19409 0.33349 0.0
H532 H 0.15196 0.23151 0.33133 0.0
H533 H 0.12457 0.19601 0.33499 0.0
H534 H 0.11403 0.1791 0.34568 0.0
H535 H 0.09892 0.2031 0.36952 0.0
H536 H 0.10951 0.22015 0.35905 0.0
H537 H 0.11129 0.25416 0.29321 0.0
H538 H 0.12242 0.24053 0.30436 0.0
H539 H 0.10662 0.25143 0.33688 0.0
H540 H 0.09531 0.26515 0.32573 0.0
H541 H 0.10792 0.22692 0.33565 0.0
H542 H 0.13399 0.26246 0.33088 0.0
H543 H 0.14438 0.27933 0.32001 0.0
H544 H 0.16205 0.25528 0.29836 0.0
H545 H 0.15164 0.23825 0.30899 0.0
C546 C 0.15208 0.20093 0.35967 0.0
C547 C 0.15954 0.19539 0.35188 0.0
C548 C 0.14462 0.20915 0.3554 0.0
C549 C 0.1445 0.21192 0.34328 0.0
C550 C 0.15193 0.20638 0.33551 0.0
C551 C 0.15934 0.19819 0.33975 0.0
C552 C 0.13685 0.22075 0.33856 0.0
C553 C 0.14233 0.23045 0.33221 0.0
C554 C 0.12431 0.21959 0.34004 0.0
C555 C 0.11794 0.20935 0.34633 0.0
C556 C 0.11908 0.19768 0.34258 0.0
C557 C 0.11308 0.18807 0.34858 0.0
C558 C 0.10584 0.19002 0.3583 0.0
C559 C 0.10455 0.2016 0.36201 0.0
C560 C 0.11055 0.21123 0.35604 0.0
C561 C 0.11009 0.25364 0.30272 0.0
C562 C 0.10248 0.26082 0.30859 0.0
C563 C 0.1165 0.24585 0.30909 0.0
C564 C 0.11549 0.24511 0.32146 0.0
C565 C 0.10756 0.25192 0.32734 0.0
C566 C 0.10114 0.25976 0.32095 0.0
C567 C 0.12304 0.23745 0.32815 0.0
C568 C 0.11757 0.22803 0.3349 0.0
C569 C 0.13562 0.23885 0.32706 0.0
C570 C 0.14196 0.24908 0.32068 0.0
C571 C 0.14002 0.26076 0.32374 0.0
C572 C 0.14593 0.27036 0.31763 0.0
C573 C 0.15385 0.26838 0.30848 0.0
C574 C 0.15591 0.2568 0.30544 0.0
C575 C 0.15002 0.24718 0.31152 0.0
H576 H 0.15842 0.27581 0.30377 0.0
H577 H 0.1012 0.18257 0.36294 0.0
H578 H 0.76917 0.1577 0.38163 0.0
H579 H 0.75549 0.14305 0.37139 0.0
H580 H 0.78529 0.12549 0.35873 0.0
H581 H 0.79906 0.14025 0.36879 0.0
H582 H 0.77095 0.12952 0.34108 0.0
H583 H 0.76568 0.11238 0.37948 0.0
H584 H 0.76184 0.11192 0.40099 0.0
H585 H 0.72702 0.12307 0.39515 0.0
H586 H 0.7307 0.12376 0.37361 0.0
H587 H 0.73218 0.08546 0.31216 0.0
H588 H 0.74695 0.09415 0.32638 0.0
H589 H 0.72113 0.11606 0.34047 0.0
H590 H 0.7063 0.10737 0.3264 0.0
H591 H 0.73459 0.1075 0.35803 0.0
H592 H 0.74107 0.12704 0.32013 0.0
H593 H 0.74491 0.12782 0.29861 0.0
H594 H 0.77768 0.11219 0.30381 0.0
H595 H 0.77394 0.11118 0.32535 0.0
C596 C 0.77282 0.15063 0.37682 0.0
C597 C 0.78522 0.1502 0.37597 0.0
C598 C 0.76497 0.1422 0.37101 0.0
C599 C 0.76936 0.13311 0.36434 0.0
C600 C 0.78171 0.13242 0.36382 0.0
C601 C 0.78957 0.14087 0.3696 0.0
C602 C 0.76111 0.12499 0.35711 0.0
C603 C 0.76315 0.12449 0.34485 0.0
C604 C 0.75078 0.11863 0.36196 0.0
C605 C 0.74851 0.11821 0.37492 0.0
C606 C 0.75724 0.11483 0.38278 0.0
C607 C 0.75508 0.11451 0.39498 0.0
C608 C 0.7442 0.11749 0.39943 0.0
C609 C 0.73544 0.12077 0.39169 0.0
C610 C 0.73756 0.12111 0.37948 0.0
C611 C 0.72959 0.09202 0.31838 0.0
C612 C 0.71808 0.09581 0.31806 0.0
C613 C 0.73805 0.097 0.32648 0.0
C614 C 0.73517 0.10585 0.33438 0.0
C615 C 0.72354 0.10925 0.33444 0.0
C616 C 0.71509 0.1043 0.32635 0.0
C617 C 0.74441 0.11217 0.34206 0.0
C618 C 0.74253 0.11237 0.35435 0.0
C619 C 0.75489 0.11827 0.33726 0.0
C620 C 0.75716 0.1189 0.32432 0.0
C621 C 0.74905 0.12368 0.31667 0.0
C622 C 0.75121 0.12418 0.30447 0.0
C623 C 0.76151 0.12002 0.29984 0.0
C624 C 0.76969 0.11538 0.3074 0.0
C625 C 0.76756 0.11485 0.31961 0.0
H626 H 0.76318 0.12042 0.29039 0.0
H627 H 0.74255 0.11723 0.40888 0.0
H628 H 0.81224 0.76787 0.39518 0.0
H629 H 0.82345 0.75247 0.38689 0.0
H630 H 0.84833 0.77927 0.37095 0.0
H631 H 0.83704 0.79474 0.37901 0.0
H632 H 0.84103 0.76302 0.35522 0.0
H633 H 0.8563 0.7623 0.39465 0.0
H634 H 0.85531 0.76122 0.41645 0.0
H635 H 0.83607 0.72661 0.41431 0.0
H636 H 0.83679 0.72755 0.39249 0.0
H637 H 0.87804 0.72119 0.33311 0.0
H638 H 0.87169 0.73747 0.34502 0.0
H639 H 0.8443 0.71345 0.36125 0.0
H640 H 0.85069 0.6971 0.34953 0.0
H641 H 0.85468 0.72905 0.37732 0.0
H642 H 0.83775 0.73069 0.33814 0.0
H643 H 0.83838 0.73174 0.31632 0.0
H644 H 0.86059 0.76477 0.31816 0.0
H645 H 0.86022 0.76383 0.34001 0.0
C646 C 0.82019 0.77051 0.39004 0.0
C647 C 0.82371 0.78255 0.38772 0.0
C648 C 0.82663 0.76168 0.38535 0.0
C649 C 0.8368 0.7647 0.37836 0.0
C650 C 0.84052 0.77672 0.37631 0.0
C651 C 0.83405 0.78556 0.38095 0.0
C652 C 0.84302 0.75533 0.37247 0.0
C653 C 0.84423 0.75573 0.3601 0.0
C654 C 0.84694 0.74565 0.37879 0.0
C655 C 0.84652 0.74504 0.39192 0.0
C656 C 0.85177 0.7545 0.39882 0.0
C657 C 0.85128 0.75391 0.41119 0.0
C658 C 0.84561 0.74387 0.41676 0.0
C659 C 0.84045 0.73439 0.40998 0.0
C660 C 0.84091 0.73494 0.39761 0.0
C661 C 0.87076 0.71934 0.33931 0.0
C662 C 0.86479 0.70786 0.34028 0.0
C663 C 0.86712 0.72866 0.34609 0.0
C664 C 0.85741 0.72671 0.35389 0.0
C665 C 0.8518 0.71517 0.35527 0.0
C666 C 0.85544 0.70584 0.34852 0.0
C667 C 0.85261 0.73676 0.36011 0.0
C668 C 0.85162 0.73645 0.3725 0.0
C669 C 0.84886 0.74653 0.35383 0.0
C670 C 0.84907 0.74712 0.3407 0.0
C671 C 0.84284 0.73813 0.33389 0.0
C672 C 0.84314 0.73871 0.32152 0.0
C673 C 0.84955 0.74829 0.31586 0.0
C674 C 0.85565 0.75734 0.32256 0.0
C675 C 0.85539 0.75679 0.33494 0.0
H676 H 0.84977 0.74873 0.30628 0.0
H677 H 0.84523 0.74343 0.42634 0.0
H678 H 0.27448 0.87624 0.32938 0.0
H679 H 0.25816 0.86838 0.3423 0.0
H680 H 0.28203 0.84733 0.36082 0.0
H681 H 0.29838 0.85503 0.34786 0.0
H682 H 0.26208 0.8342 0.35442 0.0
H683 H 0.27158 0.87135 0.37404 0.0
H684 H 0.27554 0.89308 0.37563 0.0
H685 H 0.24027 0.89712 0.36296 0.0
H686 H 0.23614 0.8754 0.36113 0.0
H687 H 0.21968 0.8127 0.39728 0.0
H688 H 0.23755 0.82354 0.38882 0.0
H689 H 0.2156 0.845 0.36834 0.0
H690 H 0.19769 0.83432 0.37684 0.0
H691 H 0.23529 0.85816 0.37702 0.0
H692 H 0.22644 0.82141 0.35586 0.0
H693 H 0.22236 0.79971 0.35385 0.0
H694 H 0.25648 0.79509 0.36909 0.0
H695 H 0.2607 0.81678 0.37134 0.0
C696 C 0.2763 0.87004 0.33628 0.0
C697 C 0.28773 0.86623 0.33755 0.0
C698 C 0.26696 0.8656 0.3437 0.0
C699 C 0.26889 0.85732 0.35258 0.0
C700 C 0.28035 0.85371 0.35403 0.0
C701 C 0.28968 0.85814 0.34662 0.0
C702 C 0.25879 0.85183 0.3598 0.0
C703 C 0.25637 0.83944 0.35955 0.0
C704 C 0.25115 0.85867 0.36624 0.0
C705 C 0.25359 0.87174 0.36735 0.0
C706 C 0.2647 0.87687 0.3715 0.0
C707 C 0.26697 0.88919 0.37246 0.0
C708 C 0.25817 0.89648 0.36937 0.0
C709 C 0.24708 0.89146 0.36534 0.0
C710 C 0.24476 0.87915 0.36435 0.0
C711 C 0.21864 0.81982 0.39109 0.0
C712 C 0.20724 0.82256 0.38765 0.0
C713 C 0.22887 0.82599 0.38624 0.0
C714 C 0.2279 0.83495 0.37782 0.0
C715 C 0.21656 0.83809 0.3748 0.0
C716 C 0.20633 0.83194 0.37965 0.0
C717 C 0.23862 0.84057 0.37161 0.0
C718 C 0.24111 0.85295 0.372 0.0
C719 C 0.24633 0.83373 0.36525 0.0
C720 C 0.24382 0.8207 0.36389 0.0
C721 C 0.23303 0.81576 0.35887 0.0
C722 C 0.2307 0.80347 0.35768 0.0
C723 C 0.23914 0.79602 0.36138 0.0
C724 C 0.24994 0.80087 0.36625 0.0
C725 C 0.25231 0.81316 0.36748 0.0
H726 H 0.23732 0.78651 0.36044 0.0
H727 H 0.25995 0.90602 0.37013 0.0
H728 H 0.07641 0.72289 0.66697 0.0
H729 H 0.09309 0.72567 0.6531 0.0
H730 H 0.11619 0.71208 0.67915 0.0
H731 H 0.09969 0.7099 0.69325 0.0
H732 H 0.12611 0.73197 0.67045 0.0
H733 H 0.10759 0.69627 0.65347 0.0
H734 H 0.09117 0.68266 0.6453 0.0
H735 H 0.08643 0.70725 0.61718 0.0
H736 H 0.10271 0.72109 0.62527 0.0
H737 H 0.17536 0.73549 0.63168 0.0
H738 H 0.15889 0.72639 0.64369 0.0
H739 H 0.1338 0.74245 0.62155 0.0
H740 H 0.15024 0.75155 0.6094 0.0
H741 H 0.12558 0.71944 0.6283 0.0
H742 H 0.14277 0.75574 0.64664 0.0
H743 H 0.15916 0.76933 0.6549 0.0
H744 H 0.16632 0.74311 0.68068 0.0
H745 H 0.15006 0.7293 0.67247 0.0
C746 C 0.08501 0.72032 0.66968 0.0
C747 C 0.08665 0.7159 0.68113 0.0
C748 C 0.09452 0.72183 0.6617 0.0
C749 C 0.10587 0.71889 0.66499 0.0
C750 C 0.10748 0.71427 0.67636 0.0
C751 C 0.09798 0.71282 0.68436 0.0
C752 C 0.11624 0.72168 0.65698 0.0
C753 C 0.12608 0.72899 0.66131 0.0
C754 C 0.11611 0.71807 0.64496 0.0
C755 C 0.10632 0.70976 0.64004 0.0
C756 C 0.10299 0.69882 0.64559 0.0
C757 C 0.09372 0.69105 0.64097 0.0
C758 C 0.08774 0.6941 0.63074 0.0
C759 C 0.09105 0.70491 0.62511 0.0
C760 C 0.10032 0.71271 0.6297 0.0
C761 C 0.16634 0.73698 0.62925 0.0
C762 C 0.16413 0.74437 0.61966 0.0
C763 C 0.15693 0.73177 0.63614 0.0
C764 C 0.14515 0.73389 0.63361 0.0
C765 C 0.14284 0.74073 0.62366 0.0
C766 C 0.15226 0.74595 0.61676 0.0
C767 C 0.13533 0.72971 0.64181 0.0
C768 C 0.12562 0.72223 0.6375 0.0
C769 C 0.13556 0.73312 0.65388 0.0
C770 C 0.1453 0.74144 0.65886 0.0
C771 C 0.14791 0.75284 0.65401 0.0
C772 C 0.15716 0.76059 0.65869 0.0
C773 C 0.1638 0.75707 0.66828 0.0
C774 C 0.16118 0.74581 0.67324 0.0
C775 C 0.15194 0.73802 0.66858 0.0
H776 H 0.17096 0.76309 0.6719 0.0
H777 H 0.08057 0.68808 0.62718 0.0
H778 H 0.2475 0.11844 0.67095 0.0
H779 H 0.23818 0.13028 0.65622 0.0
H780 H 0.25859 0.11542 0.62859 0.0
H781 H 0.26816 0.10372 0.64332 0.0
H782 H 0.26035 0.13866 0.62686 0.0
H783 H 0.22803 0.1083 0.63139 0.0
H784 H 0.21305 0.09505 0.64219 0.0
H785 H 0.19724 0.12522 0.6558 0.0
H786 H 0.21223 0.13866 0.64521 0.0
H787 H 0.23249 0.16534 0.57947 0.0
H788 H 0.23813 0.14996 0.59292 0.0
H789 H 0.22087 0.16636 0.62184 0.0
H790 H 0.21537 0.18188 0.60848 0.0
H791 H 0.21696 0.14164 0.62235 0.0
H792 H 0.24999 0.17183 0.61875 0.0
H793 H 0.26498 0.18509 0.60798 0.0
H794 H 0.27946 0.15494 0.59264 0.0
H795 H 0.26443 0.14149 0.60319 0.0
C796 C 0.2499 0.11756 0.66172 0.0
C797 C 0.25863 0.11017 0.65832 0.0
C798 C 0.24451 0.1243 0.65329 0.0
C799 C 0.24762 0.12369 0.64127 0.0
C800 C 0.25606 0.11604 0.63781 0.0
C801 C 0.2615 0.10934 0.64625 0.0
C802 C 0.24275 0.13167 0.63246 0.0
C803 C 0.25085 0.13913 0.62572 0.0
C804 C 0.23036 0.13255 0.63121 0.0
C805 C 0.22133 0.12449 0.63759 0.0
C806 C 0.22142 0.11211 0.63677 0.0
C807 C 0.21291 0.10457 0.64284 0.0
C808 C 0.20422 0.10929 0.6497 0.0
C809 C 0.20399 0.12158 0.65049 0.0
C810 C 0.21248 0.12916 0.64444 0.0
C811 C 0.22977 0.16561 0.58867 0.0
C812 C 0.22334 0.17477 0.59287 0.0
C813 C 0.233 0.15681 0.59634 0.0
C814 C 0.22999 0.15707 0.60839 0.0
C815 C 0.22321 0.16595 0.61255 0.0
C816 C 0.21997 0.17477 0.60487 0.0
C817 C 0.23457 0.14852 0.61677 0.0
C818 C 0.22644 0.14104 0.62344 0.0
C819 C 0.24694 0.14759 0.61798 0.0
C820 C 0.25601 0.15566 0.61166 0.0
C821 C 0.25631 0.16803 0.613 0.0
C822 C 0.26482 0.17558 0.60695 0.0
C823 C 0.27314 0.17086 0.5996 0.0
C824 C 0.27299 0.15858 0.59832 0.0
C825 C 0.26448 0.15099 0.60434 0.0
H826 H 0.27973 0.17673 0.59492 0.0
H827 H 0.19764 0.10344 0.6544 0.0
H828 H 0.8288 0.22701 0.58474 0.0
H829 H 0.84094 0.2435 0.59401 0.0
H830 H 0.8686 0.22071 0.6009 0.0
H831 H 0.85639 0.20407 0.59183 0.0
H832 H 0.86346 0.23211 0.62031 0.0
H833 H 0.87242 0.24341 0.58035 0.0
H834 H 0.86815 0.2479 0.5595 0.0
H835 H 0.84846 0.27651 0.57058 0.0
H836 H 0.85247 0.27209 0.5915 0.0
H837 H 0.90165 0.2791 0.64522 0.0
H838 H 0.89413 0.26342 0.63148 0.0
H839 H 0.86369 0.28234 0.62378 0.0
H840 H 0.8712 0.29813 0.63737 0.0
H841 H 0.87224 0.27263 0.60384 0.0
H842 H 0.86148 0.25988 0.64358 0.0
H843 H 0.86541 0.2553 0.66449 0.0
H844 H 0.88837 0.22925 0.65361 0.0
H845 H 0.88469 0.23379 0.63262 0.0
C846 C 0.83754 0.22553 0.58805 0.0
C847 C 0.84159 0.21419 0.58759 0.0
C848 C 0.84451 0.235 0.59331 0.0
C849 C 0.85573 0.23338 0.59809 0.0
C850 C 0.85997 0.22217 0.59727 0.0
C851 C 0.85299 0.21267 0.59206 0.0
C852 C 0.86254 0.24309 0.60482 0.0
C853 C 0.86561 0.2409 0.6166 0.0
C854 C 0.86509 0.25464 0.60009 0.0
C855 C 0.86268 0.25736 0.58751 0.0
C856 C 0.8671 0.2506 0.57835 0.0
C857 C 0.86474 0.25315 0.56651 0.0
C858 C 0.85801 0.26247 0.56372 0.0
C859 C 0.85366 0.26929 0.57275 0.0
C860 C 0.85599 0.26678 0.5846 0.0
C861 C 0.89341 0.27999 0.64053 0.0
C862 C 0.88698 0.28983 0.64249 0.0
C863 C 0.88911 0.271 0.6327 0.0
C864 C 0.87827 0.27164 0.62672 0.0
C865 C 0.87207 0.28166 0.62831 0.0
C866 C 0.87636 0.29066 0.63613 0.0
C867 C 0.87306 0.26163 0.6193 0.0
C868 C 0.87024 0.26378 0.60744 0.0
C869 C 0.87072 0.25002 0.62393 0.0
C870 C 0.87292 0.24727 0.63654 0.0
C871 C 0.86744 0.25324 0.64565 0.0
C872 C 0.86961 0.25064 0.65751 0.0
C873 C 0.87716 0.24202 0.66038 0.0
C874 C 0.88254 0.23595 0.65138 0.0
C875 C 0.88041 0.23852 0.6395 0.0
H876 H 0.87883 0.24002 0.66956 0.0
H877 H 0.8562 0.26443 0.55455 0.0
H878 H 0.69451 0.88513 0.67166 0.0
H879 H 0.7034 0.87137 0.6584 0.0
H880 H 0.73853 0.88657 0.66861 0.0
H881 H 0.72971 0.9002 0.68201 0.0
H882 H 0.73691 0.88382 0.64505 0.0
H883 H 0.72673 0.85985 0.67957 0.0
H884 H 0.71347 0.85036 0.69496 0.0
H885 H 0.69181 0.83199 0.66815 0.0
H886 H 0.70487 0.84149 0.65258 0.0
H887 H 0.77423 0.84026 0.62836 0.0
H888 H 0.76274 0.85426 0.63863 0.0
H889 H 0.73008 0.83589 0.62534 0.0
H890 H 0.74153 0.8217 0.61508 0.0
H891 H 0.72873 0.84015 0.64886 0.0
H892 H 0.74015 0.86288 0.61439 0.0
H893 H 0.7539 0.87199 0.59922 0.0
H894 H 0.77347 0.89259 0.62603 0.0
H895 H 0.75993 0.88348 0.64139 0.0
C896 C 0.70412 0.88536 0.6713 0.0
C897 C 0.7114 0.89356 0.67812 0.0
C898 C 0.70919 0.87756 0.66363 0.0
C899 C 0.72164 0.87784 0.66263 0.0
C900 C 0.72891 0.88618 0.66925 0.0
C901 C 0.72385 0.89396 0.67691 0.0
C902 C 0.72716 0.86953 0.65464 0.0
C903 C 0.7352 0.87427 0.64595 0.0
C904 C 0.72465 0.85708 0.65557 0.0
C905 C 0.7167 0.85148 0.66491 0.0
C906 C 0.71908 0.85387 0.67695 0.0
C907 C 0.71162 0.84847 0.68571 0.0
C908 C 0.70181 0.84058 0.68254 0.0
C909 C 0.69942 0.8381 0.6706 0.0
C910 C 0.70685 0.84348 0.6618 0.0
C911 C 0.76461 0.83924 0.62751 0.0
C912 C 0.7588 0.82985 0.6209 0.0
C913 C 0.75805 0.84729 0.63336 0.0
C914 C 0.74555 0.84619 0.63267 0.0
C915 C 0.73972 0.83691 0.62597 0.0
C916 C 0.74628 0.82884 0.62008 0.0
C917 C 0.73863 0.85443 0.63941 0.0
C918 C 0.73033 0.8497 0.64786 0.0
C919 C 0.74091 0.86689 0.63828 0.0
C920 C 0.74907 0.87242 0.62906 0.0
C921 C 0.74743 0.86929 0.61706 0.0
C922 C 0.75519 0.87446 0.60843 0.0
C923 C 0.76457 0.88285 0.61166 0.0
C924 C 0.7662 0.88609 0.62354 0.0
C925 C 0.75848 0.88093 0.63221 0.0
H926 H 0.77056 0.88684 0.60496 0.0
H927 H 0.69605 0.83639 0.68933 0.0
H928 H 0.31536 0.08571 0.26099 0.0
H929 H 0.32487 0.09449 0.2432 0.0
H930 H 0.35485 0.10916 0.26407 0.0
H931 H 0.34528 0.10063 0.28197 0.0
H932 H 0.34718 0.12559 0.25057 0.0
H933 H 0.35712 0.08613 0.24414 0.0
H934 H 0.35345 0.06438 0.24234 0.0
H935 H 0.32984 0.06823 0.21306 0.0
H936 H 0.33324 0.09001 0.21479 0.0
H937 H 0.38008 0.14911 0.20149 0.0
H938 H 0.37458 0.13611 0.21827 0.0
H939 H 0.34227 0.12262 0.20031 0.0
H940 H 0.34775 0.13551 0.18339 0.0
H941 H 0.35255 0.10503 0.2124 0.0
H942 H 0.3414 0.14434 0.22012 0.0
H943 H 0.34498 0.16609 0.222 0.0
H944 H 0.37102 0.16227 0.24912 0.0
H945 H 0.3677 0.14048 0.24729 0.0
C946 C 0.32405 0.09067 0.26179 0.0
C947 C 0.32952 0.09252 0.27292 0.0
C948 C 0.32951 0.09563 0.25158 0.0
C949 C 0.34062 0.10242 0.25227 0.0
C950 C 0.34628 0.10396 0.26332 0.0
C951 C 0.34079 0.09906 0.27354 0.0
C952 C 0.34587 0.10869 0.24165 0.0
C953 C 0.34858 0.12104 0.2423 0.0
C954 C 0.34742 0.10281 0.23076 0.0
C955 C 0.34536 0.08971 0.22967 0.0
C956 C 0.35107 0.08234 0.23738 0.0
C957 C 0.34905 0.07001 0.23636 0.0
C958 C 0.34139 0.06493 0.22761 0.0
C959 C 0.33576 0.07218 0.21984 0.0
C960 C 0.33775 0.08452 0.22083 0.0
C961 C 0.37188 0.14327 0.20102 0.0
C962 C 0.36429 0.14346 0.19114 0.0
C963 C 0.36874 0.13586 0.21064 0.0
C964 C 0.35793 0.12854 0.2106 0.0
C965 C 0.35064 0.12823 0.20052 0.0
C966 C 0.35377 0.13564 0.19087 0.0
C967 C 0.35383 0.12186 0.2214 0.0
C968 C 0.35128 0.1095 0.22074 0.0
C969 C 0.35243 0.1277 0.23232 0.0
C970 C 0.3544 0.14079 0.23347 0.0
C971 C 0.34796 0.14814 0.22642 0.0
C972 C 0.34993 0.16048 0.22748 0.0
C973 C 0.35825 0.16556 0.23565 0.0
C974 C 0.36459 0.15832 0.24279 0.0
C975 C 0.36266 0.14598 0.24174 0.0
H976 H 0.35976 0.17511 0.23646 0.0
H977 H 0.33984 0.05538 0.22684 0.0
H978 H 0.84861 0.37898 0.18746 0.0
H979 H 0.85986 0.37051 0.20325 0.0
H980 H 0.84017 0.38835 0.2294 0.0
H981 H 0.82896 0.39703 0.21363 0.0
H982 H 0.86356 0.38839 0.23563 0.0
H983 H 0.83181 0.3598 0.22249 0.0
H984 H 0.82004 0.34749 0.2078 0.0
H985 H 0.85102 0.33032 0.19846 0.0
H986 H 0.86301 0.34265 0.21299 0.0
H987 H 0.86892 0.35075 0.28543 0.0
H988 H 0.86268 0.36282 0.2691 0.0
H989 H 0.88242 0.3431 0.24454 0.0
H990 H 0.88856 0.33085 0.26081 0.0
H991 H 0.86026 0.34441 0.23698 0.0
H992 H 0.89168 0.37211 0.25155 0.0
H993 H 0.9031 0.38432 0.26654 0.0
H994 H 0.87258 0.40306 0.27361 0.0
H995 H 0.86092 0.39084 0.25877 0.0
C996 C 0.84676 0.38124 0.19656 0.0
C997 C 0.83777 0.38858 0.19928 0.0
C998 C 0.85319 0.37636 0.20558 0.0
C999 C 0.8507 0.37863 0.2175 0.0
C1000 C 0.8422 0.38645 0.22025 0.0
C1001 C 0.83578 0.39138 0.21122 0.0
C1002 C 0.85639 0.37223 0.2271 0.0
C1003 C 0.86277 0.37878 0.236 0.0
C1004 C 0.85554 0.35968 0.22744 0.0
C1005 C 0.84834 0.35223 0.21873 0.0
C1006 C 0.83613 0.35346 0.21723 0.0
C1007 C 0.82942 0.34647 0.20895 0.0
C1008 C 0.83479 0.33815 0.20217 0.0
C1009 C 0.84688 0.33678 0.2037 0.0
C1010 C 0.85363 0.34376 0.21196 0.0
C1011 C 0.87207 0.34907 0.27658 0.0
C1012 C 0.87919 0.33979 0.27442 0.0
C1013 C 0.86854 0.35603 0.26725 0.0
C1014 C 0.87215 0.35393 0.2556 0.0
C1015 C 0.87953 0.34489 0.25346 0.0
C1016 C 0.88305 0.3379 0.26278 0.0
C1017 C 0.86748 0.36055 0.24555 0.0
C1018 C 0.8612 0.35403 0.23657 0.0
C1019 C 0.8684 0.3731 0.24519 0.0
C1020 C 0.87539 0.38048 0.25411 0.0
C1021 C 0.88737 0.37877 0.25636 0.0
C1022 C 0.8939 0.3857 0.26482 0.0
C1023 C 0.88856 0.39444 0.27104 0.0
C1024 C 0.8767 0.39628 0.26879 0.0
C1025 C 0.87013 0.38936 0.26035 0.0
H1026 H 0.89363 0.3998 0.27759 0.0
H1027 H 0.82957 0.33275 0.19576 0.0
H1028 H 0.64646 0.86767 0.29428 0.0
H1029 H 0.63179 0.85619 0.28184 0.0
H1030 H 0.65124 0.86852 0.25057 0.0
H1031 H 0.66589 0.88019 0.26292 0.0
H1032 H 0.62718 0.86746 0.2471 0.0
H1033 H 0.65536 0.84194 0.26226 0.0
H1034 H 0.66665 0.83266 0.27781 0.0
H1035 H 0.6339 0.81753 0.29355 0.0
H1036 H 0.62241 0.82686 0.27817 0.0
H1037 H 0.61068 0.82114 0.20611 0.0
H1038 H 0.62039 0.83616 0.21934 0.0
H1039 H 0.59951 0.821 0.24864 0.0
H1040 H 0.58983 0.80582 0.23548 0.0
H1041 H 0.62271 0.824 0.254 0.0
H1042 H 0.59455 0.84803 0.23737 0.0
H1043 H 0.58355 0.85709 0.22146 0.0
H1044 H 0.6163 0.8748 0.2081 0.0
H1045 H 0.62753 0.86571 0.22384 0.0
C1046 C 0.64756 0.86807 0.28475 0.0
C1047 C 0.65743 0.87474 0.2796 0.0
C1048 C 0.63917 0.86148 0.27766 0.0
C1049 C 0.64054 0.86135 0.26529 0.0
C1050 C 0.65004 0.86847 0.26009 0.0
C1051 C 0.65843 0.8751 0.26718 0.0
C1052 C 0.63252 0.85323 0.25785 0.0
C1053 C 0.62625 0.85795 0.24854 0.0
C1054 C 0.63113 0.84084 0.2599 0.0
C1055 C 0.63802 0.83521 0.26915 0.0
C1056 C 0.65056 0.83672 0.26909 0.0
C1057 C 0.657 0.83144 0.27787 0.0
C1058 C 0.65099 0.82455 0.28669 0.0
C1059 C 0.63854 0.82289 0.28673 0.0
C1060 C 0.63206 0.82817 0.27798 0.0
C1061 C 0.60802 0.82107 0.21533 0.0
C1062 C 0.59951 0.81223 0.21974 0.0
C1063 C 0.61355 0.82972 0.22288 0.0
C1064 C 0.61062 0.82976 0.23497 0.0
C1065 C 0.60189 0.82114 0.23934 0.0
C1066 C 0.59635 0.81249 0.23179 0.0
C1067 C 0.61736 0.83819 0.24318 0.0
C1068 C 0.62347 0.83352 0.25263 0.0
C1069 C 0.61862 0.85059 0.24121 0.0
C1070 C 0.61189 0.8561 0.23174 0.0
C1071 C 0.59942 0.85378 0.23098 0.0
C1072 C 0.59314 0.85893 0.222 0.0
C1073 C 0.59922 0.86649 0.21376 0.0
C1074 C 0.6116 0.86893 0.21449 0.0
C1075 C 0.61793 0.86379 0.22345 0.0
H1076 H 0.59434 0.87048 0.20681 0.0
H1077 H 0.65599 0.82046 0.29347 0.0
H1078 H 0.16936 0.61463 0.2235 0.0
H1079 H 0.15579 0.62243 0.23769 0.0
H1080 H 0.12622 0.61309 0.21411 0.0
H1081 H 0.13979 0.6054 0.19975 0.0
H1082 H 0.12629 0.63541 0.22177 0.0
H1083 H 0.12911 0.59778 0.23995 0.0
H1084 H 0.13923 0.58125 0.24805 0.0
H1085 H 0.15652 0.60451 0.27422 0.0
H1086 H 0.14663 0.62123 0.26617 0.0
H1087 H 0.08561 0.6547 0.26422 0.0
H1088 H 0.09532 0.64174 0.25071 0.0
H1089 H 0.12791 0.64787 0.27079 0.0
H1090 H 0.11824 0.66058 0.28442 0.0
H1091 H 0.12416 0.62519 0.26451 0.0
H1092 H 0.12351 0.66305 0.24493 0.0
H1093 H 0.114 0.67993 0.23671 0.0
H1094 H 0.09317 0.65642 0.21313 0.0
H1095 H 0.10246 0.63936 0.22132 0.0
C1096 C 0.15995 0.6141 0.22137 0.0
C1097 C 0.15567 0.60942 0.21047 0.0
C1098 C 0.15218 0.61851 0.22953 0.0
C1099 C 0.13996 0.61825 0.22702 0.0
C1100 C 0.13562 0.61336 0.21625 0.0
C1101 C 0.14338 0.60894 0.20806 0.0
C1102 C 0.13192 0.6238 0.23531 0.0
C1103 C 0.12562 0.633 0.23107 0.0
C1104 C 0.13125 0.62083 0.24749 0.0
C1105 C 0.13718 0.61078 0.25239 0.0
C1106 C 0.13514 0.59939 0.24737 0.0
C1107 C 0.14082 0.58999 0.25197 0.0
C1108 C 0.14853 0.59184 0.26163 0.0
C1109 C 0.15055 0.60309 0.26673 0.0
C1110 C 0.14489 0.61254 0.26217 0.0
C1111 C 0.09481 0.65321 0.26581 0.0
C1112 C 0.10117 0.65874 0.27536 0.0
C1113 C 0.10037 0.64584 0.25805 0.0
C1114 C 0.1124 0.64396 0.25964 0.0
C1115 C 0.11863 0.64919 0.26938 0.0
C1116 C 0.11309 0.6565 0.27715 0.0
C1117 C 0.11871 0.63692 0.25099 0.0
C1118 C 0.12469 0.62746 0.25517 0.0
C1119 C 0.11914 0.63968 0.23876 0.0
C1120 C 0.11356 0.64992 0.23383 0.0
C1121 C 0.11683 0.66147 0.23806 0.0
C1122 C 0.11149 0.67107 0.2334 0.0
C1123 C 0.10295 0.66924 0.22443 0.0
C1124 C 0.09976 0.65781 0.22009 0.0
C1125 C 0.10506 0.64818 0.22474 0.0
H1126 H 0.09884 0.67669 0.22083 0.0
H1127 H 0.15293 0.58454 0.26517 0.0
H1128 H 0.3657 0.86411 0.79243 0.0
H1129 H 0.35895 0.87583 0.77604 0.0
H1130 H 0.36927 0.84984 0.75113 0.0
H1131 H 0.37622 0.83814 0.76745 0.0
H1132 H 0.37466 0.87222 0.74283 0.0
H1133 H 0.34056 0.84939 0.76025 0.0
H1134 H 0.32699 0.84252 0.77654 0.0
H1135 H 0.31907 0.87829 0.78278 0.0
H1136 H 0.33272 0.88538 0.76661 0.0
H1137 H 0.33711 0.87886 0.69363 0.0
H1138 H 0.34825 0.87268 0.71064 0.0
H1139 H 0.3349 0.90014 0.73187 0.0
H1140 H 0.32354 0.9063 0.71488 0.0
H1141 H 0.33193 0.87931 0.7429 0.0
H1142 H 0.36439 0.9018 0.72369 0.0
H1143 H 0.37771 0.90836 0.70712 0.0
H1144 H 0.3886 0.87326 0.70393 0.0
H1145 H 0.37522 0.86644 0.72038 0.0
C1146 C 0.36666 0.86094 0.78346 0.0
C1147 C 0.37139 0.85012 0.78126 0.0
C1148 C 0.36276 0.86764 0.7741 0.0
C1149 C 0.36344 0.86361 0.76238 0.0
C1150 C 0.36865 0.8531 0.76011 0.0
C1151 C 0.37257 0.8464 0.76946 0.0
C1152 C 0.35813 0.86997 0.75252 0.0
C1153 C 0.3653 0.87372 0.74279 0.0
C1154 C 0.34599 0.87218 0.75262 0.0
C1155 C 0.33776 0.86793 0.76232 0.0
C1156 C 0.33599 0.8558 0.76516 0.0
C1157 C 0.32828 0.85186 0.77436 0.0
C1158 C 0.3222 0.85997 0.78072 0.0
C1159 C 0.3238 0.87203 0.77786 0.0
C1160 C 0.33152 0.87601 0.76868 0.0
C1161 C 0.33665 0.88371 0.70186 0.0
C1162 C 0.32938 0.89306 0.70289 0.0
C1163 C 0.34309 0.8802 0.71158 0.0
C1164 C 0.3425 0.886 0.72252 0.0
C1165 C 0.33551 0.89554 0.72351 0.0
C1166 C 0.32904 0.89907 0.71377 0.0
C1167 C 0.34842 0.88148 0.7331 0.0
C1168 C 0.34134 0.87802 0.74298 0.0
C1169 C 0.36063 0.87951 0.73311 0.0
C1170 C 0.36872 0.88359 0.72322 0.0
C1171 C 0.36955 0.89545 0.7194 0.0
C1172 C 0.37713 0.89923 0.71004 0.0
C1173 C 0.38398 0.89123 0.70446 0.0
C1174 C 0.38329 0.87945 0.70826 0.0
C1175 C 0.37572 0.87562 0.71761 0.0
H1176 H 0.38984 0.89417 0.69721 0.0
H1177 H 0.31623 0.85691 0.78784 0.0
H1178 H 0.10988 0.32455 0.70078 0.0
H1179 H 0.12034 0.34026 0.71274 0.0
H1180 H 0.10263 0.32565 0.74412 0.0
H1181 H 0.09193 0.31 0.73219 0.0
H1182 H 0.10465 0.34972 0.74454 0.0
H1183 H 0.13049 0.31913 0.7373 0.0
H1184 H 0.14112 0.30562 0.72496 0.0
H1185 H 0.15984 0.33544 0.70725 0.0
H1186 H 0.14919 0.34913 0.71938 0.0
H1187 H 0.1464 0.37068 0.78896 0.0
H1188 H 0.13257 0.35964 0.77537 0.0
H1189 H 0.15213 0.37556 0.74558 0.0
H1190 H 0.16612 0.38653 0.75913 0.0
H1191 H 0.14883 0.35202 0.74346 0.0
H1192 H 0.12407 0.38275 0.75225 0.0
H1193 H 0.11353 0.39597 0.76499 0.0
H1194 H 0.09294 0.36583 0.78027 0.0
H1195 H 0.10348 0.3524 0.76773 0.0
C1196 C 0.10809 0.32474 0.71021 0.0
C1197 C 0.10017 0.31593 0.71555 0.0
C1198 C 0.1141 0.33372 0.71703 0.0
C1199 C 0.11242 0.334 0.72935 0.0
C1200 C 0.10408 0.32558 0.73463 0.0
C1201 C 0.09801 0.31661 0.7278 0.0
C1202 C 0.11989 0.34261 0.7368 0.0
C1203 C 0.11431 0.35018 0.74439 0.0
C1204 C 0.1325 0.34336 0.73642 0.0
C1205 C 0.13895 0.33514 0.72916 0.0
C1206 C 0.13681 0.3228 0.73071 0.0
C1207 C 0.14285 0.31511 0.72376 0.0
C1208 C 0.15113 0.31967 0.7153 0.0
C1209 C 0.15341 0.33193 0.71379 0.0
C1210 C 0.14738 0.33965 0.7207 0.0
C1211 C 0.14768 0.37197 0.77952 0.0
C1212 C 0.15741 0.37944 0.77514 0.0
C1213 C 0.13971 0.36569 0.77176 0.0
C1214 C 0.14127 0.36682 0.75945 0.0
C1215 C 0.15076 0.37456 0.75505 0.0
C1216 C 0.15873 0.38084 0.76281 0.0
C1217 C 0.13362 0.35918 0.75123 0.0
C1218 C 0.13918 0.35171 0.74353 0.0
C1219 C 0.12102 0.35851 0.75157 0.0
C1220 C 0.11464 0.36656 0.75911 0.0
C1221 C 0.11736 0.37893 0.75839 0.0
C1222 C 0.11137 0.38646 0.76556 0.0
C1223 C 0.10259 0.38174 0.77345 0.0
C1224 C 0.09975 0.36947 0.77416 0.0
C1225 C 0.10572 0.3619 0.76701 0.0
H1226 H 0.09796 0.38759 0.77899 0.0
H1227 H 0.15579 0.3137 0.70993 0.0
H1228 H 0.61239 0.15518 0.78916 0.0
H1229 H 0.6245 0.14474 0.77552 0.0
H1230 H 0.60072 0.15118 0.74685 0.0
H1231 H 0.58846 0.16163 0.76049 0.0
H1232 H 0.60822 0.12844 0.74616 0.0
H1233 H 0.62563 0.16877 0.74964 0.0
H1234 H 0.63375 0.18681 0.76028 0.0
H1235 H 0.66107 0.16779 0.77554 0.0
H1236 H 0.653 0.14959 0.76511 0.0
H1237 H 0.64812 0.12168 0.69792 0.0
H1238 H 0.63383 0.12808 0.71228 0.0
H1239 H 0.65882 0.12401 0.74056 0.0
H1240 H 0.67322 0.11776 0.72625 0.0
H1241 H 0.6504 0.1451 0.74162 0.0
H1242 H 0.6335 0.10486 0.73749 0.0
H1243 H 0.6254 0.08686 0.72679 0.0
H1244 H 0.59726 0.10552 0.71265 0.0
H1245 H 0.6053 0.1237 0.72314 0.0
C1246 C 0.60964 0.15429 0.77999 0.0
C1247 C 0.59951 0.15935 0.77589 0.0
C1248 C 0.61659 0.14833 0.7722 0.0
C1249 C 0.6136 0.14733 0.76015 0.0
C1250 C 0.6032 0.15188 0.75612 0.0
C1251 C 0.59623 0.15788 0.76391 0.0
C1252 C 0.6217 0.14213 0.75169 0.0
C1253 C 0.61741 0.13214 0.74505 0.0
C1254 C 0.63374 0.14685 0.75044 0.0
C1255 C 0.63863 0.15779 0.7567 0.0
C1256 C 0.6333 0.16841 0.75534 0.0
C1257 C 0.63791 0.17867 0.76132 0.0
C1258 C 0.6479 0.17844 0.76861 0.0
C1259 C 0.65332 0.16795 0.76991 0.0
C1260 C 0.64874 0.15767 0.76396 0.0
C1261 C 0.65053 0.12201 0.70721 0.0
C1262 C 0.66184 0.11926 0.71093 0.0
C1263 C 0.64232 0.12562 0.71542 0.0
C1264 C 0.64523 0.12647 0.72751 0.0
C1265 C 0.65639 0.12343 0.73127 0.0
C1266 C 0.6646 0.11983 0.72308 0.0
C1267 C 0.63699 0.13131 0.7361 0.0
C1268 C 0.64124 0.14132 0.74275 0.0
C1269 C 0.62493 0.12659 0.73733 0.0
C1270 C 0.62007 0.11568 0.73101 0.0
C1271 C 0.62564 0.10516 0.73202 0.0
C1272 C 0.62105 0.09491 0.72601 0.0
C1273 C 0.61084 0.09505 0.71902 0.0
C1274 C 0.60518 0.10543 0.71805 0.0
C1275 C 0.60974 0.1157 0.72404 0.0
H1276 H 0.60729 0.08711 0.71438 0.0
H1277 H 0.65145 0.18639 0.77323 0.0
H1278 H 0.85909 0.63474 0.67556 0.0
H1279 H 0.85303 0.62057 0.69131 0.0
H1280 H 0.87129 0.64394 0.71706 0.0
H1281 H 0.87752 0.65807 0.7014 0.0
H1282 H 0.87418 0.62082 0.72171 0.0
H1283 H 0.8417 0.64417 0.71268 0.0
H1284 H 0.827 0.65231 0.69961 0.0
H1285 H 0.81204 0.61703 0.69087 0.0
H1286 H 0.82677 0.60868 0.70378 0.0
H1287 H 0.84331 0.60726 0.7754 0.0
H1288 H 0.85301 0.61564 0.75755 0.0
H1289 H 0.8314 0.59032 0.73612 0.0
H1290 H 0.82148 0.58199 0.75396 0.0
H1291 H 0.8306 0.61206 0.7279 0.0
H1292 H 0.86164 0.58878 0.73923 0.0
H1293 H 0.87621 0.58092 0.75264 0.0
H1294 H 0.89383 0.61599 0.7574 0.0
H1295 H 0.87926 0.62409 0.74415 0.0
C1296 C 0.86195 0.6368 0.68455 0.0
C1297 C 0.86869 0.6476 0.68723 0.0
C1298 C 0.85845 0.6287 0.69354 0.0
C1299 C 0.86157 0.63128 0.70537 0.0
C1300 C 0.86877 0.64178 0.70799 0.0
C1301 C 0.87228 0.64987 0.69902 0.0
C1302 C 0.85672 0.62348 0.71514 0.0
C1303 C 0.86465 0.61893 0.72312 0.0
C1304 C 0.84429 0.62079 0.7168 0.0
C1305 C 0.83542 0.6258 0.70907 0.0
C1306 C 0.83533 0.63815 0.70789 0.0
C1307 C 0.82699 0.6428 0.70053 0.0
C1308 C 0.81861 0.63519 0.69438 0.0
C1309 C 0.81855 0.62291 0.69562 0.0
C1310 C 0.82689 0.61821 0.70296 0.0
C1311 C 0.84073 0.60334 0.76692 0.0
C1312 C 0.83157 0.59398 0.76612 0.0
C1313 C 0.84634 0.60811 0.75671 0.0
C1314 C 0.843 0.60356 0.74549 0.0
C1315 C 0.83413 0.59397 0.74469 0.0
C1316 C 0.82848 0.5892 0.7549 0.0
C1317 C 0.84805 0.60947 0.73461 0.0
C1318 C 0.84013 0.61373 0.72642 0.0
C1319 C 0.86049 0.61189 0.7328 0.0
C1320 C 0.8693 0.60705 0.74075 0.0
C1321 C 0.86857 0.59483 0.7432 0.0
C1322 C 0.87683 0.59033 0.75077 0.0
C1323 C 0.88592 0.59795 0.75588 0.0
C1324 C 0.88678 0.61009 0.75343 0.0
C1325 C 0.87853 0.61464 0.74588 0.0
H1326 H 0.89232 0.59445 0.76174 0.0
H1327 H 0.81216 0.6388 0.68869 0.0
H1328 H 0.21867 0.3941 0.16951 0.0
H1329 H 0.23324 0.38555 0.15698 0.0
H1330 H 0.20619 0.37693 0.13048 0.0
H1331 H 0.19148 0.3853 0.14305 0.0
H1332 H 0.21756 0.35821 0.13546 0.0
H1333 H 0.22936 0.39862 0.12561 0.0
H1334 H 0.23534 0.41981 0.1294 0.0
H1335 H 0.26649 0.41089 0.14791 0.0
H1336 H 0.26061 0.38963 0.14438 0.0
H1337 H 0.25884 0.33427 0.09727 0.0
H1338 H 0.24466 0.34765 0.10442 0.0
H1339 H 0.26808 0.35811 0.13361 0.0
H1340 H 0.28238 0.34495 0.12644 0.0
H1341 H 0.25791 0.37689 0.125 0.0
H1342 H 0.24484 0.33677 0.13708 0.0
H1343 H 0.23885 0.31547 0.13386 0.0
H1344 H 0.21003 0.32398 0.11159 0.0
H1345 H 0.21595 0.34534 0.11456 0.0
C1346 C 0.21584 0.39055 0.16094 0.0
C1347 C 0.20388 0.39033 0.15732 0.0
C1348 C 0.22421 0.38571 0.15375 0.0
C1349 C 0.22083 0.38066 0.14274 0.0
C1350 C 0.20899 0.38078 0.13893 0.0
C1351 C 0.2006 0.3856 0.14613 0.0
C1352 C 0.2294 0.37437 0.13571 0.0
C1353 C 0.22629 0.36239 0.13294 0.0
C1354 C 0.24089 0.37972 0.13268 0.0
C1355 C 0.24449 0.39251 0.1348 0.0
C1356 C 0.23744 0.40117 0.13056 0.0
C1357 C 0.24082 0.4132 0.13265 0.0
C1358 C 0.25128 0.41669 0.13891 0.0
C1359 C 0.25839 0.40817 0.14307 0.0
C1360 C 0.25504 0.39613 0.14101 0.0
C1361 C 0.26104 0.33953 0.10513 0.0
C1362 C 0.27169 0.33844 0.11136 0.0
C1363 C 0.25291 0.34715 0.10922 0.0
C1364 C 0.25523 0.35374 0.11965 0.0
C1365 C 0.2661 0.3531 0.12556 0.0
C1366 C 0.27424 0.34552 0.12146 0.0
C1367 C 0.24608 0.36074 0.12487 0.0
C1368 C 0.2491 0.37281 0.12735 0.0
C1369 C 0.2345 0.35548 0.12769 0.0
C1370 C 0.23092 0.34264 0.12592 0.0
C1371 C 0.23728 0.33409 0.13142 0.0
C1372 C 0.23389 0.32201 0.12966 0.0
C1373 C 0.22409 0.31837 0.1225 0.0
C1374 C 0.21764 0.32681 0.11712 0.0
C1375 C 0.221 0.3389 0.11884 0.0
H1376 H 0.22148 0.30902 0.12115 0.0
H1377 H 0.25388 0.42601 0.14051 0.0
H1378 H 0.30489 0.63743 0.87301 0.0
H1379 H 0.29049 0.62368 0.86243 0.0
H1380 H 0.2618 0.64289 0.87501 0.0
H1381 H 0.27609 0.65652 0.88578 0.0
H1382 H 0.25515 0.61939 0.87473 0.0
H1383 H 0.27422 0.6485 0.84772 0.0
H1384 H 0.29136 0.6595 0.83768 0.0
H1385 H 0.30186 0.62692 0.82355 0.0
H1386 H 0.28486 0.61571 0.83365 0.0
H1387 H 0.21097 0.61027 0.83031 0.0
H1388 H 0.22628 0.61762 0.8445 0.0
H1389 H 0.25082 0.59528 0.82877 0.0
H1390 H 0.23555 0.58792 0.81442 0.0
H1391 H 0.26066 0.61782 0.83115 0.0
H1392 H 0.23958 0.58906 0.8562 0.0
H1393 H 0.22202 0.57851 0.86595 0.0
H1394 H 0.21483 0.61065 0.88353 0.0
H1395 H 0.23225 0.62144 0.87375 0.0
C1396 C 0.2955 0.63863 0.87367 0.0
C1397 C 0.29166 0.64816 0.88013 0.0
C1398 C 0.28729 0.63078 0.86758 0.0
C1399 C 0.27509 0.63239 0.86775 0.0
C1400 C 0.27117 0.6415 0.87472 0.0
C1401 C 0.27937 0.64931 0.88085 0.0
C1402 C 0.26651 0.62516 0.86006 0.0
C1403 C 0.25631 0.61908 0.86519 0.0
C1404 C 0.26816 0.62453 0.84764 0.0
C1405 C 0.27836 0.63126 0.84155 0.0
C1406 C 0.28024 0.64368 0.84255 0.0
C1407 C 0.28992 0.64995 0.83684 0.0
C1408 C 0.29772 0.64391 0.83002 0.0
C1409 C 0.29583 0.63159 0.82886 0.0
C1410 C 0.28617 0.62527 0.83457 0.0
C1411 C 0.21958 0.60681 0.82993 0.0
C1412 C 0.22204 0.59853 0.82119 0.0
C1413 C 0.2283 0.61097 0.8381 0.0
C1414 C 0.23966 0.60692 0.83776 0.0
C1415 C 0.2421 0.59849 0.82921 0.0
C1416 C 0.23335 0.59428 0.82103 0.0
C1417 C 0.2492 0.61216 0.84579 0.0
C1418 C 0.25957 0.61792 0.8407 0.0
C1419 C 0.24766 0.61254 0.85823 0.0
C1420 C 0.23718 0.60608 0.86416 0.0
C1421 C 0.2342 0.5939 0.86207 0.0
C1422 C 0.22429 0.58788 0.86762 0.0
C1423 C 0.2173 0.59391 0.87534 0.0
C1424 C 0.22024 0.60599 0.87754 0.0
C1425 C 0.23015 0.61206 0.87201 0.0
H1426 H 0.20963 0.58923 0.87962 0.0
H1427 H 0.3052 0.64879 0.8256 0.0
H1428 H 0.33663 0.29759 0.87167 0.0
H1429 H 0.34699 0.28131 0.86391 0.0
H1430 H 0.32472 0.25646 0.88524 0.0
H1431 H 0.31444 0.27272 0.89322 0.0
H1432 H 0.3475 0.25094 0.88497 0.0
H1433 H 0.31843 0.26048 0.85615 0.0
H1434 H 0.30855 0.27361 0.84274 0.0
H1435 H 0.34136 0.28171 0.82369 0.0
H1436 H 0.35147 0.26873 0.8371 0.0
H1437 H 0.35042 0.19746 0.85276 0.0
H1438 H 0.34506 0.21505 0.86316 0.0
H1439 H 0.36824 0.23729 0.84013 0.0
H1440 H 0.37354 0.21972 0.82954 0.0
H1441 H 0.34665 0.24494 0.84142 0.0
H1442 H 0.37527 0.23374 0.86937 0.0
H1443 H 0.38478 0.22027 0.88271 0.0
H1444 H 0.35265 0.21491 0.90332 0.0
H1445 H 0.34289 0.22822 0.89 0.0
C1446 C 0.334 0.28868 0.8748 0.0
C1447 C 0.32462 0.28645 0.88299 0.0
C1448 C 0.33992 0.27938 0.87033 0.0
C1449 C 0.3365 0.26764 0.87385 0.0
C1450 C 0.32748 0.26544 0.88238 0.0
C1451 C 0.32159 0.27475 0.8869 0.0
C1452 C 0.34191 0.25761 0.86823 0.0
C1453 C 0.34724 0.24956 0.87546 0.0
C1454 C 0.34181 0.25597 0.8558 0.0
C1455 C 0.33573 0.26374 0.84771 0.0
C1456 C 0.32356 0.26513 0.84916 0.0
C1457 C 0.31791 0.27253 0.84155 0.0
C1458 C 0.32433 0.27852 0.83239 0.0
C1459 C 0.3364 0.27708 0.8308 0.0
C1460 C 0.34209 0.2697 0.8384 0.0
C1461 C 0.35451 0.20608 0.84999 0.0
C1462 C 0.36237 0.20718 0.84028 0.0
C1463 C 0.35148 0.21613 0.856 0.0
C1464 C 0.35631 0.22749 0.85248 0.0
C1465 C 0.36441 0.22861 0.843 0.0
C1466 C 0.36745 0.21855 0.83697 0.0
C1467 C 0.35222 0.2382 0.85815 0.0
C1468 C 0.34707 0.24638 0.85092 0.0
C1469 C 0.35246 0.23991 0.87058 0.0
C1470 C 0.35832 0.23191 0.87863 0.0
C1471 C 0.3702 0.22962 0.87669 0.0
C1472 C 0.37564 0.22202 0.88426 0.0
C1473 C 0.36932 0.21672 0.89384 0.0
C1474 C 0.35754 0.21902 0.89589 0.0
C1475 C 0.35205 0.2266 0.88834 0.0
H1476 H 0.37355 0.21084 0.89969 0.0
H1477 H 0.31995 0.28424 0.82651 0.0
H1478 H 0.76946 0.37281 0.82945 0.0
H1479 H 0.75314 0.36548 0.84259 0.0
H1480 H 0.77835 0.35249 0.86687 0.0
H1481 H 0.79473 0.35966 0.8537 0.0
H1482 H 0.76076 0.33577 0.862 0.0
H1483 H 0.7633 0.37635 0.874 0.0
H1484 H 0.76417 0.39801 0.87132 0.0
H1485 H 0.72954 0.39411 0.85511 0.0
H1486 H 0.72853 0.3724 0.85754 0.0
H1487 H 0.71611 0.31633 0.90361 0.0
H1488 H 0.73363 0.32784 0.89521 0.0
H1489 H 0.71154 0.34186 0.86853 0.0
H1490 H 0.69397 0.33054 0.87696 0.0
H1491 H 0.72841 0.35875 0.87642 0.0
H1492 H 0.72686 0.31837 0.86246 0.0
H1493 H 0.72591 0.29664 0.86465 0.0
H1494 H 0.75877 0.30029 0.88416 0.0
H1495 H 0.75983 0.32207 0.88221 0.0
C1496 C 0.77156 0.36853 0.83765 0.0
C1497 C 0.7834 0.36677 0.84049 0.0
C1498 C 0.76221 0.3644 0.84519 0.0
C1499 C 0.76452 0.3585 0.85576 0.0
C1500 C 0.77636 0.35702 0.85876 0.0
C1501 C 0.78572 0.36114 0.85123 0.0
C1502 C 0.75454 0.3531 0.86319 0.0
C1503 C 0.75382 0.34086 0.86536 0.0
C1504 C 0.74533 0.35967 0.86733 0.0
C1505 C 0.74589 0.37273 0.86586 0.0
C1506 C 0.75591 0.3801 0.86977 0.0
C1507 C 0.75642 0.39239 0.86832 0.0
C1508 C 0.74693 0.39743 0.86302 0.0
C1509 C 0.73689 0.39019 0.8592 0.0
C1510 C 0.73634 0.3779 0.86063 0.0
C1511 C 0.71495 0.32197 0.89605 0.0
C1512 C 0.70364 0.32241 0.89089 0.0
C1513 C 0.72498 0.32852 0.89124 0.0
C1514 C 0.72391 0.33557 0.88114 0.0
C1515 C 0.71257 0.33646 0.87631 0.0
C1516 C 0.70254 0.32994 0.88112 0.0
C1517 C 0.73465 0.34144 0.87514 0.0
C1518 C 0.73546 0.35373 0.87319 0.0
C1519 C 0.74396 0.33493 0.87115 0.0
C1520 C 0.74335 0.32184 0.87231 0.0
C1521 C 0.73383 0.31454 0.8673 0.0
C1522 C 0.73328 0.30222 0.86848 0.0
C1523 C 0.74225 0.29709 0.87457 0.0
C1524 C 0.75181 0.30428 0.87946 0.0
C1525 C 0.75239 0.31661 0.87832 0.0
H1526 H 0.74181 0.28755 0.87548 0.0
H1527 H 0.74734 0.40695 0.86191 0.0
H1528 H 0.64277 0.6788 0.86388 0.0
H1529 H 0.62744 0.68986 0.85513 0.0
H1530 H 0.65044 0.72241 0.859 0.0
H1531 H 0.66579 0.71146 0.86786 0.0
H1532 H 0.62676 0.7255 0.86344 0.0
H1533 H 0.65003 0.70778 0.83337 0.0
H1534 H 0.65858 0.69116 0.82346 0.0
H1535 H 0.6234 0.67385 0.81763 0.0
H1536 H 0.61466 0.69031 0.82765 0.0
H1537 H 0.61066 0.76236 0.81688 0.0
H1538 H 0.61947 0.7503 0.83171 0.0
H1539 H 0.59509 0.72012 0.82178 0.0
H1540 H 0.58638 0.73209 0.80667 0.0
H1541 H 0.61697 0.71438 0.8218 0.0
H1542 H 0.59352 0.73377 0.84932 0.0
H1543 H 0.58512 0.75057 0.85903 0.0
H1544 H 0.62022 0.76491 0.86962 0.0
H1545 H 0.62886 0.74828 0.85983 0.0
C1546 C 0.64451 0.68834 0.86305 0.0
C1547 C 0.65558 0.69422 0.86642 0.0
C1548 C 0.63573 0.69464 0.85804 0.0
C1549 C 0.63788 0.70693 0.85626 0.0
C1550 C 0.64861 0.71293 0.86028 0.0
C1551 C 0.6574 0.70664 0.86529 0.0
C1552 C 0.62946 0.71336 0.84925 0.0
C1553 C 0.62463 0.72313 0.85432 0.0
C1554 C 0.62646 0.71006 0.83745 0.0
C1555 C 0.63171 0.70019 0.83138 0.0
C1556 C 0.64413 0.70038 0.83006 0.0
C1557 C 0.64901 0.691 0.82441 0.0
C1558 C 0.64154 0.68144 0.81995 0.0
C1559 C 0.62918 0.68125 0.82111 0.0
C1560 C 0.62425 0.6906 0.82677 0.0
C1561 C 0.60702 0.75321 0.81796 0.0
C1562 C 0.59787 0.74816 0.81052 0.0
C1563 C 0.61202 0.74633 0.82653 0.0
C1564 C 0.60789 0.73431 0.82794 0.0
C1565 C 0.59842 0.72937 0.82085 0.0
C1566 C 0.59344 0.73624 0.81223 0.0
C1567 C 0.61429 0.72666 0.83591 0.0
C1568 C 0.61884 0.71667 0.83099 0.0
C1569 C 0.61699 0.72978 0.84784 0.0
C1570 C 0.61184 0.7398 0.85376 0.0
C1571 C 0.59946 0.74055 0.85364 0.0
C1572 C 0.59465 0.75003 0.85917 0.0
C1573 C 0.60213 0.75881 0.86492 0.0
C1574 C 0.61444 0.7581 0.86516 0.0
C1575 C 0.61929 0.74864 0.85964 0.0
H1576 H 0.5984 0.76615 0.8692 0.0
H1577 H 0.64533 0.67418 0.81558 0.0
H1578 H 0.71181 0.6812 0.10967 0.0
H1579 H 0.71798 0.66595 0.12289 0.0
H1580 H 0.74098 0.65437 0.09558 0.0
H1581 H 0.73432 0.66917 0.08208 0.0
H1582 H 0.73063 0.63575 0.10694 0.0
H1583 H 0.75157 0.67326 0.1183 0.0
H1584 H 0.75331 0.69421 0.1246 0.0
H1585 H 0.73295 0.68464 0.15593 0.0
H1586 H 0.73096 0.66364 0.14973 0.0
H1587 H 0.7747 0.61015 0.14086 0.0
H1588 H 0.76304 0.62173 0.1278 0.0
H1589 H 0.74006 0.62873 0.15701 0.0
H1590 H 0.7517 0.61721 0.17016 0.0
H1591 H 0.74843 0.64887 0.14553 0.0
H1592 H 0.72958 0.6107 0.13478 0.0
H1593 H 0.72865 0.58984 0.12831 0.0
H1594 H 0.74598 0.60068 0.09563 0.0
H1595 H 0.74717 0.6216 0.10198 0.0
C1596 C 0.71786 0.67519 0.10632 0.0
C1597 C 0.72239 0.67631 0.09472 0.0
C1598 C 0.72155 0.66658 0.11398 0.0
C1599 C 0.73005 0.65909 0.11029 0.0
C1600 C 0.7344 0.66003 0.09864 0.0
C1601 C 0.73064 0.66855 0.09095 0.0
C1602 C 0.73483 0.65061 0.11865 0.0
C1603 C 0.7346 0.63863 0.11534 0.0
C1604 C 0.73979 0.6543 0.12973 0.0
C1605 C 0.741 0.66691 0.13349 0.0
C1606 C 0.74739 0.67564 0.12649 0.0
C1607 C 0.74843 0.68752 0.13005 0.0
C1608 C 0.74321 0.69076 0.14064 0.0
C1609 C 0.73697 0.68212 0.14772 0.0
C1610 C 0.73588 0.67023 0.14419 0.0
C1611 C 0.76706 0.614 0.14448 0.0
C1612 C 0.76417 0.6128 0.15657 0.0
C1613 C 0.76037 0.62058 0.13698 0.0
C1614 C 0.75065 0.62606 0.14142 0.0
C1615 C 0.74753 0.62458 0.1534 0.0
C1616 C 0.75418 0.61796 0.1609 0.0
C1617 C 0.74434 0.63404 0.13377 0.0
C1618 C 0.74432 0.64594 0.1372 0.0
C1619 C 0.73926 0.63029 0.12276 0.0
C1620 C 0.73855 0.61772 0.11891 0.0
C1621 C 0.73328 0.60863 0.12626 0.0
C1622 C 0.73269 0.5968 0.1226 0.0
C1623 C 0.73728 0.59394 0.11158 0.0
C1624 C 0.74244 0.60291 0.10418 0.0
C1625 C 0.74306 0.61476 0.10779 0.0
H1626 H 0.73681 0.58477 0.10876 0.0
H1627 H 0.74403 0.69996 0.14338 0.0
H1628 H 0.37507 0.79362 0.14091 0.0
H1629 H 0.36585 0.77865 0.1273 0.0
H1630 H 0.38376 0.75175 0.14499 0.0
H1631 H 0.39322 0.76671 0.15851 0.0
H1632 H 0.38355 0.74833 0.12135 0.0
H1633 H 0.35489 0.7555 0.15144 0.0
H1634 H 0.34264 0.76768 0.16363 0.0
H1635 H 0.32557 0.77925 0.13231 0.0
H1636 H 0.33784 0.76726 0.11991 0.0
H1637 H 0.34457 0.69697 0.10628 0.0
H1638 H 0.357 0.7132 0.11575 0.0
H1639 H 0.33849 0.73862 0.09648 0.0
H1640 H 0.32594 0.72246 0.08703 0.0
H1641 H 0.33933 0.7434 0.11985 0.0
H1642 H 0.3672 0.73475 0.08986 0.0
H1643 H 0.37932 0.72213 0.07803 0.0
H1644 H 0.3977 0.71279 0.10944 0.0
H1645 H 0.38557 0.72522 0.12149 0.0
C1646 C 0.37714 0.78454 0.14185 0.0
C1647 C 0.3848 0.78135 0.15088 0.0
C1648 C 0.37183 0.77598 0.13407 0.0
C1649 C 0.37396 0.76404 0.13525 0.0
C1650 C 0.38197 0.7609 0.14394 0.0
C1651 C 0.38734 0.76947 0.15169 0.0
C1652 C 0.3674 0.75475 0.12781 0.0
C1653 C 0.37388 0.74717 0.12109 0.0
C1654 C 0.35478 0.75339 0.12731 0.0
C1655 C 0.34737 0.76059 0.13474 0.0
C1656 C 0.34859 0.76071 0.14715 0.0
C1657 C 0.34163 0.76757 0.15409 0.0
C1658 C 0.33335 0.77426 0.14875 0.0
C1659 C 0.332 0.77408 0.13644 0.0
C1660 C 0.33895 0.76725 0.12945 0.0
C1661 C 0.34324 0.70601 0.10393 0.0
C1662 C 0.33421 0.70841 0.09594 0.0
C1663 C 0.3504 0.71528 0.10932 0.0
C1664 C 0.34871 0.72712 0.10678 0.0
C1665 C 0.33994 0.72954 0.09856 0.0
C1666 C 0.3328 0.72028 0.09315 0.0
C1667 C 0.35547 0.73695 0.11336 0.0
C1668 C 0.34901 0.74462 0.11999 0.0
C1669 C 0.36808 0.73832 0.11382 0.0
C1670 C 0.3754 0.73084 0.1066 0.0
C1671 C 0.37376 0.72993 0.09426 0.0
C1672 C 0.38064 0.72282 0.08751 0.0
C1673 C 0.38926 0.71664 0.09298 0.0
C1674 C 0.39102 0.71757 0.10522 0.0
C1675 C 0.38415 0.72466 0.11201 0.0
H1676 H 0.39458 0.71115 0.08774 0.0
H1677 H 0.32797 0.77956 0.15414 0.0
H1678 H 0.651 0.27998 0.14122 0.0
H1679 H 0.63706 0.26769 0.1536 0.0
H1680 H 0.64357 0.23682 0.13313 0.0
H1681 H 0.65753 0.24918 0.1205 0.0
H1682 H 0.61995 0.23723 0.13799 0.0
H1683 H 0.65585 0.24047 0.16012 0.0
H1684 H 0.67402 0.25038 0.16934 0.0
H1685 H 0.65268 0.27072 0.19147 0.0
H1686 H 0.63438 0.26106 0.18227 0.0
H1687 H 0.58662 0.2033 0.18366 0.0
H1688 H 0.60323 0.21013 0.17042 0.0
H1689 H 0.60139 0.24604 0.18244 0.0
H1690 H 0.58494 0.2393 0.19566 0.0
H1691 H 0.62469 0.23933 0.18168 0.0
H1692 H 0.58912 0.23771 0.15702 0.0
H1693 H 0.57112 0.22754 0.14771 0.0
H1694 H 0.59245 0.20331 0.13043 0.0
H1695 H 0.61057 0.21325 0.13978 0.0
C1696 C 0.64949 0.27059 0.1393 0.0
C1697 C 0.65545 0.26556 0.12991 0.0
C1698 C 0.64154 0.26355 0.14644 0.0
C1699 C 0.63945 0.2513 0.14444 0.0
C1700 C 0.64513 0.24625 0.13488 0.0
C1701 C 0.6531 0.25332 0.12768 0.0
C1702 C 0.63124 0.24392 0.15238 0.0
C1703 C 0.62112 0.23747 0.14753 0.0
C1704 C 0.63275 0.24425 0.16484 0.0
C1705 C 0.64373 0.25008 0.17045 0.0
C1706 C 0.65503 0.24712 0.1669 0.0
C1707 C 0.66535 0.25268 0.17213 0.0
C1708 C 0.66451 0.26119 0.18097 0.0
C1709 C 0.65333 0.26413 0.18462 0.0
C1710 C 0.64297 0.2586 0.17941 0.0
C1711 C 0.58991 0.2126 0.18361 0.0
C1712 C 0.58459 0.22075 0.19079 0.0
C1713 C 0.59931 0.2165 0.17598 0.0
C1714 C 0.60353 0.22858 0.17548 0.0
C1715 C 0.5983 0.23667 0.18274 0.0
C1716 C 0.58886 0.23282 0.19023 0.0
C1717 C 0.61324 0.23302 0.16729 0.0
C1718 C 0.62366 0.2389 0.17212 0.0
C1719 C 0.61205 0.23207 0.15484 0.0
C1720 C 0.60117 0.22612 0.14922 0.0
C1721 C 0.58995 0.23015 0.15133 0.0
C1722 C 0.57973 0.22444 0.14602 0.0
C1723 C 0.58063 0.21476 0.13852 0.0
C1724 C 0.59176 0.21079 0.13627 0.0
C1725 C 0.60201 0.21646 0.14156 0.0
H1726 H 0.57271 0.21035 0.13441 0.0
H1727 H 0.67251 0.26549 0.18501 0.0
H1728 H 0.84076 0.70438 0.6593 0.0
H1729 H 0.83017 0.7192 0.64924 0.0
H1730 H 0.84771 0.71199 0.61643 0.0
H1731 H 0.85847 0.69711 0.62648 0.0
H1732 H 0.84662 0.73606 0.62023 0.0
H1733 H 0.81982 0.70062 0.62028 0.0
H1734 H 0.80858 0.68293 0.62898 0.0
H1735 H 0.79009 0.70508 0.65201 0.0
H1736 H 0.80135 0.72291 0.64356 0.0
H1737 H 0.80583 0.76809 0.58716 0.0
H1738 H 0.81774 0.75254 0.59411 0.0
H1739 H 0.80201 0.7543 0.62885 0.0
H1740 H 0.79001 0.76966 0.62198 0.0
H1741 H 0.8024 0.73182 0.62188 0.0
H1742 H 0.83027 0.76709 0.62295 0.0
H1743 H 0.84166 0.78483 0.6145 0.0
H1744 H 0.85811 0.76304 0.58944 0.0
H1745 H 0.8467 0.74517 0.59765 0.0
C1746 C 0.84244 0.70596 0.64996 0.0
C1747 C 0.8504 0.69949 0.64368 0.0
C1748 C 0.83633 0.71442 0.64421 0.0
C1749 C 0.83802 0.71656 0.63205 0.0
C1750 C 0.84625 0.71042 0.62581 0.0
C1751 C 0.85236 0.70191 0.63156 0.0
C1752 C 0.83096 0.72507 0.62592 0.0
C1753 C 0.83695 0.73505 0.6204 0.0
C1754 C 0.81835 0.7238 0.62628 0.0
C1755 C 0.8115 0.7131 0.63135 0.0
C1756 C 0.81342 0.70172 0.62726 0.0
C1757 C 0.80704 0.69166 0.63213 0.0
C1758 C 0.79865 0.69288 0.64106 0.0
C1759 C 0.7966 0.70415 0.6451 0.0
C1760 C 0.80297 0.71424 0.64026 0.0
C1761 C 0.80491 0.76516 0.59628 0.0
C1762 C 0.79697 0.77014 0.60401 0.0
C1763 C 0.81176 0.7563 0.60025 0.0
C1764 C 0.81083 0.75232 0.61203 0.0
C1765 C 0.80286 0.75722 0.61972 0.0
C1766 C 0.79602 0.76604 0.61577 0.0
C1767 C 0.81805 0.74298 0.61644 0.0
C1768 C 0.81207 0.7328 0.6216 0.0
C1769 C 0.83066 0.74409 0.61575 0.0
C1770 C 0.83753 0.75482 0.61082 0.0
C1771 C 0.83624 0.76609 0.61557 0.0
C1772 C 0.84272 0.77617 0.61084 0.0
C1773 C 0.85058 0.77507 0.60141 0.0
C1774 C 0.852 0.76388 0.59672 0.0
C1775 C 0.84554 0.75378 0.60141 0.0
H1776 H 0.85559 0.78288 0.59776 0.0
H1777 H 0.79371 0.68508 0.64482 0.0
H1778 H 0.22226 0.78871 0.61325 0.0
H1779 H 0.23746 0.80283 0.62209 0.0
H1780 H 0.22435 0.83122 0.60208 0.0
H1781 H 0.20913 0.81708 0.59303 0.0
H1782 H 0.24884 0.83329 0.60302 0.0
H1783 H 0.21638 0.82767 0.63038 0.0
H1784 H 0.20115 0.81622 0.64259 0.0
H1785 H 0.2286 0.80107 0.66207 0.0
H1786 H 0.244 0.8123 0.64985 0.0
H1787 H 0.27905 0.87811 0.64069 0.0
H1788 H 0.2639 0.86589 0.6293 0.0
H1789 H 0.27345 0.83459 0.64722 0.0
H1790 H 0.28846 0.84667 0.65865 0.0
H1791 H 0.24965 0.83547 0.64694 0.0
H1792 H 0.28206 0.84051 0.61883 0.0
H1793 H 0.2972 0.85198 0.60653 0.0
H1794 H 0.26968 0.86853 0.58854 0.0
H1795 H 0.25439 0.85726 0.60085 0.0
C1796 C 0.22264 0.79793 0.61063 0.0
C1797 C 0.21439 0.80177 0.60251 0.0
C1798 C 0.23133 0.806 0.61573 0.0
C1799 C 0.23189 0.81811 0.6129 0.0
C1800 C 0.22402 0.82192 0.60442 0.0
C1801 C 0.21532 0.81383 0.59928 0.0
C1802 C 0.24042 0.82676 0.6192 0.0
C1803 C 0.24892 0.83391 0.61262 0.0
C1804 C 0.24058 0.82748 0.63172 0.0
C1805 C 0.23134 0.82076 0.63913 0.0
C1806 C 0.21917 0.82183 0.63721 0.0
C1807 C 0.2105 0.81539 0.64414 0.0
C1808 C 0.2139 0.8079 0.65308 0.0
C1809 C 0.22598 0.80686 0.65513 0.0
C1810 C 0.23468 0.81327 0.64821 0.0
C1811 C 0.27794 0.86862 0.64217 0.0
C1812 C 0.28496 0.86337 0.65059 0.0
C1813 C 0.26932 0.86165 0.63562 0.0
C1814 C 0.26759 0.84932 0.63738 0.0
C1815 C 0.27461 0.84409 0.64574 0.0
C1816 C 0.28322 0.85102 0.65225 0.0
C1817 C 0.25826 0.84182 0.63079 0.0
C1818 C 0.24955 0.83491 0.63734 0.0
C1819 C 0.25791 0.84138 0.61826 0.0
C1820 C 0.26709 0.84815 0.61086 0.0
C1821 C 0.27925 0.84668 0.61233 0.0
C1822 C 0.28785 0.85312 0.60534 0.0
C1823 C 0.28441 0.86101 0.59678 0.0
C1824 C 0.27234 0.86244 0.59518 0.0
C1825 C 0.2637 0.85602 0.60216 0.0
H1826 H 0.29108 0.86599 0.59138 0.0
H1827 H 0.20718 0.80292 0.65844 0.0
H1828 H 0.16259 0.20082 0.61329 0.0
H1829 H 0.14718 0.21044 0.62374 0.0
H1830 H 0.16886 0.21281 0.65529 0.0
H1831 H 0.18429 0.20309 0.64494 0.0
H1832 H 0.14517 0.2068 0.66036 0.0
H1833 H 0.16888 0.23628 0.63715 0.0
H1834 H 0.17802 0.24477 0.61879 0.0
H1835 H 0.14336 0.24499 0.60308 0.0
H1836 H 0.13402 0.23635 0.62131 0.0
H1837 H 0.12501 0.25495 0.69168 0.0
H1838 H 0.13566 0.24056 0.68103 0.0
H1839 H 0.11256 0.24309 0.65087 0.0
H1840 H 0.10197 0.25776 0.66142 0.0
H1841 H 0.13505 0.24522 0.64413 0.0
H1842 H 0.11109 0.21777 0.66822 0.0
H1843 H 0.10196 0.20942 0.68663 0.0
H1844 H 0.13666 0.20528 0.70074 0.0
H1845 H 0.14602 0.21377 0.68248 0.0
C1846 C 0.16404 0.20327 0.62249 0.0
C1847 C 0.17473 0.20129 0.62825 0.0
C1848 C 0.15523 0.20879 0.62844 0.0
C1849 C 0.15695 0.21248 0.64024 0.0
C1850 C 0.16737 0.21005 0.64617 0.0
C1851 C 0.1762 0.20453 0.64023 0.0
C1852 C 0.14823 0.21947 0.64621 0.0
C1853 C 0.14299 0.21524 0.65688 0.0
C1854 C 0.14517 0.23032 0.64148 0.0
C1855 C 0.15077 0.23554 0.63054 0.0
C1856 C 0.16322 0.23805 0.62974 0.0
C1857 C 0.16843 0.2429 0.61937 0.0
C1858 C 0.16128 0.24538 0.60976 0.0
C1859 C 0.14889 0.24304 0.61052 0.0
C1860 C 0.14363 0.23817 0.62087 0.0
C1861 C 0.12208 0.25236 0.68283 0.0
C1862 C 0.11266 0.25755 0.67738 0.0
C1863 C 0.12814 0.24405 0.67677 0.0
C1864 C 0.12485 0.24064 0.66518 0.0
C1865 C 0.11525 0.24558 0.65982 0.0
C1866 C 0.10919 0.25394 0.66587 0.0
C1867 C 0.13203 0.23264 0.6584 0.0
C1868 C 0.13703 0.23669 0.64757 0.0
C1869 C 0.13485 0.22163 0.66299 0.0
C1870 C 0.12926 0.2165 0.674 0.0
C1871 C 0.11678 0.21517 0.67528 0.0
C1872 C 0.11156 0.21039 0.68569 0.0
C1873 C 0.11872 0.20684 0.69486 0.0
C1874 C 0.13112 0.20804 0.69363 0.0
C1875 C 0.13639 0.21282 0.68325 0.0
H1876 H 0.11467 0.20314 0.70291 0.0
H1877 H 0.16533 0.24915 0.60173 0.0
H1878 H 0.79401 0.14747 0.59146 0.0
H1879 H 0.77739 0.13611 0.60167 0.0
H1880 H 0.77089 0.16723 0.62173 0.0
H1881 H 0.78747 0.17857 0.61172 0.0
H1882 H 0.77129 0.14817 0.63583 0.0
H1883 H 0.75292 0.15742 0.59871 0.0
H1884 H 0.75094 0.15759 0.57695 0.0
H1885 H 0.74791 0.11951 0.57637 0.0
H1886 H 0.75002 0.11913 0.59813 0.0
H1887 H 0.71395 0.1361 0.6594 0.0
H1888 H 0.73108 0.14403 0.64767 0.0
H1889 H 0.73316 0.10966 0.63183 0.0
H1890 H 0.71588 0.10159 0.64353 0.0
H1891 H 0.73599 0.12785 0.6154 0.0
H1892 H 0.75267 0.11855 0.65263 0.0
H1893 H 0.75452 0.11833 0.6744 0.0
H1894 H 0.76088 0.15633 0.67477 0.0
H1895 H 0.7589 0.15679 0.65302 0.0
C1896 C 0.789 0.1519 0.598 0.0
C1897 C 0.79208 0.16392 0.60079 0.0
C1898 C 0.77948 0.1454 0.6038 0.0
C1899 C 0.77288 0.15084 0.61244 0.0
C1900 C 0.77589 0.16285 0.61513 0.0
C1901 C 0.78536 0.16933 0.60936 0.0
C1902 C 0.76299 0.14406 0.61894 0.0
C1903 C 0.76353 0.14381 0.63136 0.0
C1904 C 0.75305 0.13802 0.61309 0.0
C1905 C 0.75177 0.13825 0.60003 0.0
C1906 C 0.75194 0.14909 0.59393 0.0
C1907 C 0.75077 0.14922 0.5816 0.0
C1908 C 0.74934 0.13857 0.57528 0.0
C1909 C 0.74904 0.12776 0.58128 0.0
C1910 C 0.75022 0.12758 0.59361 0.0
C1911 C 0.718 0.1302 0.65342 0.0
C1912 C 0.71357 0.11818 0.65246 0.0
C1913 C 0.72783 0.13475 0.64675 0.0
C1914 C 0.73348 0.12739 0.639 0.0
C1915 C 0.72895 0.11546 0.63779 0.0
C1916 C 0.7191 0.11087 0.64451 0.0
C1917 C 0.74417 0.13227 0.63228 0.0
C1918 C 0.74381 0.13211 0.61985 0.0
C1919 C 0.7543 0.13793 0.6381 0.0
C1920 C 0.75554 0.1377 0.65119 0.0
C1921 C 0.75437 0.12686 0.65736 0.0
C1922 C 0.75546 0.1267 0.6697 0.0
C1923 C 0.75779 0.13731 0.67597 0.0
C1924 C 0.75907 0.14812 0.66991 0.0
C1925 C 0.75797 0.14833 0.65757 0.0
H1926 H 0.75863 0.13716 0.68552 0.0
H1927 H 0.74844 0.13869 0.56574 0.0
H1928 H 0.8481 0.20437 0.37984 0.0
H1929 H 0.85863 0.22185 0.37051 0.0
H1930 H 0.82701 0.24021 0.37338 0.0
H1931 H 0.81634 0.22267 0.38243 0.0
H1932 H 0.83541 0.24258 0.35209 0.0
H1933 H 0.85212 0.24777 0.39072 0.0
H1934 H 0.86211 0.2421 0.40898 0.0
H1935 H 0.89331 0.23596 0.38894 0.0
H1936 H 0.88344 0.24145 0.37053 0.0
H1937 H 0.88059 0.29866 0.34426 0.0
H1938 H 0.87084 0.2832 0.3571 0.0
H1939 H 0.86662 0.2593 0.32729 0.0
H1940 H 0.87612 0.27473 0.31438 0.0
H1941 H 0.87543 0.26138 0.3635 0.0
H1942 H 0.84018 0.2428 0.32905 0.0
H1943 H 0.82927 0.24986 0.31194 0.0
H1944 H 0.83335 0.28528 0.32593 0.0
H1945 H 0.84414 0.2784 0.3432 0.0
C1946 C 0.84343 0.21218 0.37862 0.0
C1947 C 0.83136 0.2121 0.38183 0.0
C1948 C 0.84948 0.2222 0.37333 0.0
C1949 C 0.84364 0.23239 0.37129 0.0
C1950 C 0.83169 0.23244 0.37482 0.0
C1951 C 0.82561 0.22241 0.38002 0.0
C1952 C 0.8497 0.24268 0.36478 0.0
C1953 C 0.84414 0.2467 0.35463 0.0
C1954 C 0.86102 0.24822 0.36817 0.0
C1955 C 0.86699 0.24493 0.37923 0.0
C1956 C 0.86107 0.24513 0.39019 0.0
C1957 C 0.86672 0.24196 0.40057 0.0
C1958 C 0.87832 0.23865 0.40012 0.0
C1959 C 0.88431 0.23852 0.38928 0.0
C1960 C 0.8787 0.24167 0.37887 0.0
C1961 C 0.87764 0.2901 0.34044 0.0
C1962 C 0.87903 0.28797 0.32826 0.0
C1963 C 0.8721 0.28126 0.34781 0.0
C1964 C 0.86784 0.27016 0.34312 0.0
C1965 C 0.86963 0.26788 0.33106 0.0
C1966 C 0.8751 0.27671 0.32369 0.0
C1967 C 0.86122 0.26105 0.35072 0.0
C1968 C 0.86667 0.25726 0.36103 0.0
C1969 C 0.84967 0.25589 0.34765 0.0
C1970 C 0.84307 0.26009 0.33736 0.0
C1971 C 0.83871 0.25208 0.3285 0.0
C1972 C 0.83255 0.25605 0.31876 0.0
C1973 C 0.83065 0.26801 0.31783 0.0
C1974 C 0.83487 0.27602 0.32664 0.0
C1975 C 0.84101 0.27209 0.3364 0.0
H1976 H 0.82589 0.27107 0.31028 0.0
H1977 H 0.88268 0.2362 0.40817 0.0
H1978 H 0.79496 0.84413 0.35448 0.0
H1979 H 0.7801 0.85627 0.3467 0.0
H1980 H 0.76184 0.85426 0.38036 0.0
H1981 H 0.77662 0.84186 0.38818 0.0
H1982 H 0.74652 0.8497 0.36275 0.0
H1983 H 0.7775 0.88027 0.37101 0.0
H1984 H 0.79792 0.89037 0.37088 0.0
H1985 H 0.79719 0.8921 0.33288 0.0
H1986 H 0.77682 0.88185 0.33277 0.0
H1987 H 0.70598 0.88906 0.34146 0.0
H1988 H 0.72173 0.88177 0.35354 0.0
H1989 H 0.74308 0.87852 0.3222 0.0
H1990 H 0.72746 0.88585 0.31008 0.0
H1991 H 0.75652 0.88749 0.34108 0.0
H1992 H 0.72665 0.85471 0.33303 0.0
H1993 H 0.70629 0.84444 0.33312 0.0
H1994 H 0.70511 0.84703 0.37105 0.0
H1995 H 0.72542 0.85745 0.37117 0.0
C1996 C 0.78785 0.84634 0.36028 0.0
C1997 C 0.78698 0.84201 0.37196 0.0
C1998 C 0.77939 0.85336 0.35583 0.0
C1999 C 0.76993 0.85632 0.36298 0.0
C2000 C 0.7691 0.85213 0.37469 0.0
C2001 C 0.77756 0.84506 0.37916 0.0
C2002 C 0.76057 0.86316 0.35793 0.0
C2003 C 0.74868 0.8581 0.35825 0.0
C2004 C 0.7634 0.87402 0.35186 0.0
C2005 C 0.77565 0.88022 0.35188 0.0
C2006 C 0.78172 0.88273 0.36262 0.0
C2007 C 0.79328 0.88849 0.36259 0.0
C2008 C 0.79885 0.89185 0.35188 0.0
C2009 C 0.79286 0.88948 0.34117 0.0
C2010 C 0.7813 0.88371 0.34115 0.0
C2011 C 0.71408 0.88693 0.33715 0.0
C2012 C 0.71541 0.88795 0.32478 0.0
C2013 C 0.72306 0.88273 0.34407 0.0
C2014 C 0.73351 0.87948 0.33874 0.0
C2015 C 0.73508 0.88097 0.32648 0.0
C2016 C 0.72611 0.88512 0.31956 0.0
C2017 C 0.74257 0.87391 0.34577 0.0
C2018 C 0.75437 0.8792 0.34578 0.0
C2019 C 0.73967 0.86327 0.35216 0.0
C2020 C 0.72748 0.85698 0.3521 0.0
C2021 C 0.722 0.85317 0.34138 0.0
C2022 C 0.71048 0.84731 0.34139 0.0
C2023 C 0.70439 0.84512 0.35208 0.0
C2024 C 0.70983 0.84875 0.36278 0.0
C2025 C 0.72134 0.85463 0.36281 0.0
H2026 H 0.69547 0.84057 0.35207 0.0
H2027 H 0.80781 0.89632 0.35187 0.0
H2028 H 0.0887 0.69926 0.3393 0.0
H2029 H 0.09805 0.71619 0.35045 0.0
H2030 H 0.09725 0.73818 0.31932 0.0
H2031 H 0.08816 0.72125 0.30805 0.0
H2032 H 0.11855 0.74064 0.32882 0.0
H2033 H 0.07879 0.74135 0.34356 0.0
H2034 H 0.05984 0.73316 0.35267 0.0
H2035 H 0.07839 0.72516 0.38443 0.0
H2036 H 0.09749 0.73316 0.37545 0.0
H2037 H 0.13735 0.79526 0.35568 0.0
H2038 H 0.1242 0.7795 0.34639 0.0
H2039 H 0.12867 0.75666 0.37626 0.0
H2040 H 0.14184 0.77244 0.38571 0.0
H2041 H 0.10517 0.75484 0.36774 0.0
H2042 H 0.14493 0.75355 0.35253 0.0
H2043 H 0.1638 0.76188 0.34336 0.0
H2044 H 0.14486 0.77109 0.31225 0.0
H2045 H 0.12584 0.76296 0.32131 0.0
C2046 C 0.09038 0.70773 0.33486 0.0
C2047 C 0.08773 0.70888 0.32276 0.0
C2048 C 0.09568 0.71742 0.34127 0.0
C2049 C 0.0983 0.72849 0.33575 0.0
C2050 C 0.09534 0.72973 0.32377 0.0
C2051 C 0.09012 0.72003 0.31733 0.0
C2052 C 0.10485 0.73855 0.3422 0.0
C2053 C 0.11549 0.74386 0.33723 0.0
C2054 C 0.10106 0.74255 0.35335 0.0
C2055 C 0.08959 0.73775 0.35878 0.0
C2056 C 0.07884 0.73775 0.35245 0.0
C2057 C 0.06807 0.73317 0.3576 0.0
C2058 C 0.06791 0.72862 0.36911 0.0
C2059 C 0.07853 0.72868 0.37551 0.0
C2060 C 0.08933 0.73325 0.3704 0.0
C2061 C 0.13546 0.78694 0.36036 0.0
C2062 C 0.14075 0.78506 0.37139 0.0
C2063 C 0.12794 0.77793 0.35502 0.0
C2064 C 0.1256 0.76687 0.36057 0.0
C2065 C 0.1304 0.76514 0.37183 0.0
C2066 C 0.13795 0.77414 0.37718 0.0
C2067 C 0.11874 0.75693 0.35427 0.0
C2068 C 0.10813 0.75162 0.35929 0.0
C2069 C 0.12252 0.75292 0.34314 0.0
C2070 C 0.13395 0.75776 0.33765 0.0
C2071 C 0.14478 0.75744 0.34377 0.0
C2072 C 0.1555 0.76211 0.33859 0.0
C2073 C 0.15552 0.76704 0.32724 0.0
C2074 C 0.14482 0.76728 0.32105 0.0
C2075 C 0.13407 0.76264 0.3262 0.0
H2076 H 0.16384 0.77065 0.32324 0.0
H2077 H 0.05957 0.72507 0.37308 0.0
H2078 H 0.29213 0.09944 0.34112 0.0
H2079 H 0.27685 0.10877 0.35219 0.0
H2080 H 0.25929 0.11599 0.31942 0.0
H2081 H 0.27451 0.10682 0.30832 0.0
H2082 H 0.26232 0.13537 0.33324 0.0
H2083 H 0.24781 0.09411 0.33812 0.0
H2084 H 0.24922 0.07334 0.34401 0.0
H2085 H 0.25628 0.08438 0.37994 0.0
H2086 H 0.25507 0.10524 0.37422 0.0
H2087 H 0.20643 0.15085 0.35086 0.0
H2088 H 0.22236 0.14023 0.34275 0.0
H2089 H 0.23655 0.13638 0.37786 0.0
H2090 H 0.2205 0.14696 0.38613 0.0
H2091 H 0.23653 0.11584 0.36465 0.0
H2092 H 0.24995 0.15689 0.36012 0.0
H2093 H 0.24855 0.17769 0.35436 0.0
H2094 H 0.24387 0.16718 0.31797 0.0
H2095 H 0.24506 0.14628 0.32353 0.0
C2096 C 0.28495 0.10293 0.33629 0.0
C2097 C 0.28456 0.10242 0.32383 0.0
C2098 C 0.27622 0.10823 0.34263 0.0
C2099 C 0.26692 0.11306 0.33663 0.0
C2100 C 0.26641 0.11236 0.32423 0.0
C2101 C 0.27511 0.10708 0.3179 0.0
C2102 C 0.25793 0.11927 0.34313 0.0
C2103 C 0.2566 0.13105 0.34002 0.0
C2104 C 0.25076 0.11378 0.35227 0.0
C2105 C 0.25149 0.10124 0.35572 0.0
C2106 C 0.24977 0.09212 0.34725 0.0
C2107 C 0.25051 0.08033 0.35057 0.0
C2108 C 0.25287 0.07755 0.36234 0.0
C2109 C 0.25447 0.08655 0.37082 0.0
C2110 C 0.25375 0.09835 0.36755 0.0
C2111 C 0.21289 0.14772 0.3569 0.0
C2112 C 0.21222 0.14984 0.36915 0.0
C2113 C 0.22202 0.14168 0.35223 0.0
C2114 C 0.23073 0.13767 0.35968 0.0
C2115 C 0.22993 0.13945 0.37195 0.0
C2116 C 0.22078 0.14552 0.37665 0.0
C2117 C 0.24074 0.13182 0.35453 0.0
C2118 C 0.24231 0.12017 0.35792 0.0
C2119 C 0.24818 0.13743 0.34565 0.0
C2120 C 0.2475 0.15 0.34226 0.0
C2121 C 0.24853 0.159 0.3509 0.0
C2122 C 0.24779 0.17081 0.34767 0.0
C2123 C 0.2461 0.17375 0.33581 0.0
C2124 C 0.24517 0.16489 0.32715 0.0
C2125 C 0.24589 0.15306 0.33034 0.0
H2126 H 0.24553 0.1829 0.33333 0.0
H2127 H 0.25344 0.06841 0.36488 0.0
H2128 H 0.58678 0.80423 0.75259 0.0
H2129 H 0.59944 0.81599 0.73848 0.0
H2130 H 0.6175 0.78528 0.7299 0.0
H2131 H 0.605 0.77349 0.74409 0.0
H2132 H 0.63307 0.80376 0.73494 0.0
H2133 H 0.59901 0.7968 0.70987 0.0
H2134 H 0.57781 0.79621 0.70432 0.0
H2135 H 0.57911 0.83392 0.70908 0.0
H2136 H 0.60028 0.83471 0.71483 0.0
H2137 H 0.66922 0.83446 0.69118 0.0
H2138 H 0.65418 0.81995 0.69993 0.0
H2139 H 0.63403 0.84829 0.71143 0.0
H2140 H 0.6489 0.86282 0.7026 0.0
H2141 H 0.61943 0.82958 0.70329 0.0
H2142 H 0.65263 0.83612 0.73034 0.0
H2143 H 0.67377 0.83686 0.7362 0.0
H2144 H 0.67384 0.79987 0.72793 0.0
H2145 H 0.65273 0.79896 0.72186 0.0
C2146 C 0.59332 0.79992 0.74758 0.0
C2147 C 0.59491 0.78792 0.74953 0.0
C2148 C 0.60053 0.80666 0.73947 0.0
C2149 C 0.60939 0.8015 0.73308 0.0
C2150 C 0.61073 0.78944 0.73474 0.0
C2151 C 0.60355 0.78271 0.74285 0.0
C2152 C 0.61785 0.8089 0.7254 0.0
C2153 C 0.63009 0.80922 0.72786 0.0
C2154 C 0.61396 0.81623 0.71633 0.0
C2155 C 0.60122 0.8158 0.71287 0.0
C2156 C 0.59476 0.80495 0.70983 0.0
C2157 C 0.58275 0.80459 0.70663 0.0
C2158 C 0.57711 0.81502 0.70637 0.0
C2159 C 0.58348 0.82584 0.70929 0.0
C2160 C 0.5955 0.82626 0.71251 0.0
C2161 C 0.66152 0.8376 0.69546 0.0
C2162 C 0.66032 0.8498 0.69629 0.0
C2163 C 0.65295 0.8293 0.70048 0.0
C2164 C 0.64306 0.83306 0.70646 0.0
C2165 C 0.64159 0.8452 0.70686 0.0
C2166 C 0.65014 0.85349 0.70185 0.0
C2167 C 0.63459 0.82447 0.71291 0.0
C2168 C 0.62238 0.82398 0.71026 0.0
C2169 C 0.63848 0.81698 0.72183 0.0
C2170 C 0.65116 0.81751 0.72551 0.0
C2171 C 0.65719 0.82817 0.72968 0.0
C2172 C 0.66915 0.82862 0.73306 0.0
C2173 C 0.67516 0.81843 0.7324 0.0
C2174 C 0.66919 0.80776 0.7284 0.0
C2175 C 0.65722 0.80728 0.725 0.0
H2176 H 0.68442 0.81879 0.73502 0.0
H2177 H 0.56781 0.81471 0.70389 0.0
H2178 H 0.13383 0.68348 0.71043 0.0
H2179 H 0.14561 0.66957 0.72049 0.0
H2180 H 0.11348 0.64718 0.7289 0.0
H2181 H 0.10159 0.66115 0.719 0.0
H2182 H 0.12732 0.65072 0.74793 0.0
H2183 H 0.13298 0.63896 0.70782 0.0
H2184 H 0.13805 0.6418 0.68669 0.0
H2185 H 0.17371 0.65554 0.69604 0.0
H2186 H 0.1688 0.65294 0.71725 0.0
H2187 H 0.15892 0.60532 0.77217 0.0
H2188 H 0.14597 0.61547 0.75903 0.0
H2189 H 0.17588 0.64019 0.74894 0.0
H2190 H 0.18889 0.63001 0.76185 0.0
H2191 H 0.16217 0.6339 0.73007 0.0
H2192 H 0.156 0.64737 0.76997 0.0
H2193 H 0.15103 0.64493 0.79116 0.0
H2194 H 0.11632 0.62824 0.78212 0.0
H2195 H 0.12116 0.63045 0.76085 0.0
C2196 C 0.12926 0.67555 0.71433 0.0
C2197 C 0.11676 0.67344 0.71393 0.0
C2198 C 0.13602 0.66757 0.72003 0.0
C2199 C 0.13044 0.65727 0.72536 0.0
C2200 C 0.11797 0.65506 0.72484 0.0
C2201 C 0.1112 0.66305 0.71915 0.0
C2202 C 0.13757 0.64913 0.73199 0.0
C2203 C 0.1348 0.64686 0.74395 0.0
C2204 C 0.14749 0.6443 0.72688 0.0
C2205 C 0.15049 0.64584 0.71413 0.0
C2206 C 0.14188 0.64267 0.70538 0.0
C2207 C 0.14473 0.64422 0.69338 0.0
C2208 C 0.15619 0.64887 0.69003 0.0
C2209 C 0.16483 0.65195 0.69866 0.0
C2210 C 0.16202 0.65042 0.71066 0.0
C2211 C 0.16276 0.61285 0.76707 0.0
C2212 C 0.17492 0.61691 0.76814 0.0
C2213 C 0.15534 0.61866 0.7596 0.0
C2214 C 0.15992 0.6287 0.75313 0.0
C2215 C 0.17214 0.63249 0.75385 0.0
C2216 C 0.17956 0.62667 0.76128 0.0
C2217 C 0.15196 0.63559 0.74601 0.0
C2218 C 0.15459 0.63765 0.73398 0.0
C2219 C 0.14192 0.64026 0.75105 0.0
C2220 C 0.13899 0.63895 0.76383 0.0
C2221 C 0.14735 0.6431 0.7725 0.0
C2222 C 0.14455 0.64177 0.78453 0.0
C2223 C 0.13338 0.6364 0.78799 0.0
C2224 C 0.12498 0.63238 0.77942 0.0
C2225 C 0.12774 0.63367 0.76739 0.0
H2226 H 0.13123 0.63538 0.7973 0.0
H2227 H 0.15838 0.65006 0.68074 0.0
H2228 H 0.34641 0.15675 0.79156 0.0
H2229 H 0.33559 0.1433 0.7776 0.0
H2230 H 0.36884 0.13453 0.76267 0.0
H2231 H 0.37982 0.14822 0.77654 0.0
H2232 H 0.35367 0.13904 0.74565 0.0
H2233 H 0.35162 0.1144 0.7798 0.0
H2234 H 0.34808 0.10907 0.80078 0.0
H2235 H 0.31119 0.11484 0.79714 0.0
H2236 H 0.31454 0.12037 0.77619 0.0
H2237 H 0.32111 0.09593 0.70886 0.0
H2238 H 0.33494 0.1042 0.72415 0.0
H2239 H 0.30594 0.1186 0.74229 0.0
H2240 H 0.29206 0.11034 0.72714 0.0
H2241 H 0.321 0.10879 0.75771 0.0
H2242 H 0.32402 0.1359 0.72438 0.0
H2243 H 0.32763 0.14138 0.70344 0.0
H2244 H 0.36305 0.1307 0.70573 0.0
H2245 H 0.35958 0.125 0.72666 0.0
C2246 C 0.35147 0.15191 0.78539 0.0
C2247 C 0.364 0.15358 0.78519 0.0
C2248 C 0.34525 0.14414 0.77744 0.0
C2249 C 0.35139 0.13776 0.76919 0.0
C2250 C 0.36391 0.13932 0.769 0.0
C2251 C 0.37017 0.14714 0.77695 0.0
C2252 C 0.34465 0.12999 0.76039 0.0
C2253 C 0.34672 0.13224 0.74829 0.0
C2254 C 0.33543 0.12124 0.76383 0.0
C2255 C 0.33336 0.11787 0.77643 0.0
C2256 C 0.34277 0.11461 0.78349 0.0
C2257 C 0.3408 0.11154 0.79538 0.0
C2258 C 0.32942 0.11163 0.80029 0.0
C2259 C 0.32 0.11477 0.79332 0.0
C2260 C 0.32192 0.11786 0.78144 0.0
C2261 C 0.31765 0.10076 0.71616 0.0
C2262 C 0.30549 0.10254 0.71673 0.0
C2263 C 0.32558 0.1055 0.72487 0.0
C2264 C 0.32148 0.11211 0.73428 0.0
C2265 C 0.30929 0.11353 0.7351 0.0
C2266 C 0.30137 0.10884 0.72639 0.0
C2267 C 0.3299 0.11804 0.74304 0.0
C2268 C 0.32812 0.11545 0.7551 0.0
C2269 C 0.3394 0.12645 0.73958 0.0
C2270 C 0.34149 0.12989 0.72703 0.0
C2271 C 0.33254 0.13462 0.72038 0.0
C2272 C 0.33457 0.13778 0.70853 0.0
C2273 C 0.34555 0.13635 0.70325 0.0
C2274 C 0.35454 0.13178 0.70983 0.0
C2275 C 0.35255 0.12859 0.72168 0.0
H2276 H 0.3471 0.1388 0.69407 0.0
H2277 H 0.32791 0.10926 0.8095 0.0
H2278 H 0.8329 0.39334 0.76856 0.0
H2279 H 0.84527 0.38616 0.75278 0.0
H2280 H 0.84153 0.35124 0.76839 0.0
H2281 H 0.82937 0.35835 0.78424 0.0
H2282 H 0.864 0.3571 0.76124 0.0
H2283 H 0.82457 0.35817 0.74461 0.0
H2284 H 0.80665 0.36768 0.73898 0.0
H2285 H 0.82796 0.39228 0.71684 0.0
H2286 H 0.84604 0.383 0.72246 0.0
H2287 H 0.87447 0.31851 0.71418 0.0
H2288 H 0.86663 0.32964 0.7304 0.0
H2289 H 0.87305 0.36195 0.7102 0.0
H2290 H 0.88078 0.35082 0.69379 0.0
H2291 H 0.85108 0.35978 0.7194 0.0
H2292 H 0.89026 0.35703 0.73431 0.0
H2293 H 0.908 0.34717 0.73979 0.0
H2294 H 0.88725 0.32558 0.76506 0.0
H2295 H 0.86934 0.33519 0.75961 0.0
C2296 C 0.83477 0.38415 0.76867 0.0
C2297 C 0.83008 0.3764 0.77764 0.0
C2298 C 0.84181 0.38005 0.75963 0.0
C2299 C 0.84421 0.36813 0.75934 0.0
C2300 C 0.83979 0.36048 0.76843 0.0
C2301 C 0.83279 0.36455 0.77748 0.0
C2302 C 0.85105 0.36344 0.74943 0.0
C2303 C 0.86114 0.35762 0.75209 0.0
C2304 C 0.84752 0.36442 0.73746 0.0
C2305 C 0.83666 0.36998 0.73407 0.0
C2306 C 0.82544 0.36567 0.73862 0.0
C2307 C 0.81526 0.37101 0.73541 0.0
C2308 C 0.81617 0.38061 0.72758 0.0
C2309 C 0.82727 0.38486 0.72292 0.0
C2310 C 0.83749 0.37957 0.72611 0.0
C2311 C 0.87434 0.328 0.71321 0.0
C2312 C 0.87824 0.33376 0.70267 0.0
C2313 C 0.8699 0.33437 0.72253 0.0
C2314 C 0.86936 0.34666 0.72157 0.0
C2315 C 0.87342 0.35248 0.71114 0.0
C2316 C 0.87786 0.34611 0.70178 0.0
C2317 C 0.86392 0.35323 0.73122 0.0
C2318 C 0.85407 0.35941 0.72851 0.0
C2319 C 0.86767 0.35256 0.74315 0.0
C2320 C 0.87843 0.34678 0.74649 0.0
C2321 C 0.88946 0.35012 0.74097 0.0
C2322 C 0.89955 0.34458 0.74409 0.0
C2323 C 0.89875 0.33574 0.75275 0.0
C2324 C 0.88785 0.33243 0.75834 0.0
C2325 C 0.87773 0.33793 0.75526 0.0
H2326 H 0.90657 0.33146 0.75515 0.0
H2327 H 0.80828 0.38473 0.72511 0.0
H2328 H 0.68922 0.12636 0.25856 0.0
H2329 H 0.67748 0.13806 0.24574 0.0
H2330 H 0.64572 0.11521 0.25432 0.0
H2331 H 0.65742 0.10335 0.26715 0.0
H2332 H 0.64676 0.12154 0.23053 0.0
H2333 H 0.65101 0.14075 0.26851 0.0
H2334 H 0.66207 0.14956 0.28573 0.0
H2335 H 0.68116 0.17537 0.26311 0.0
H2336 H 0.67032 0.16661 0.24572 0.0
H2337 H 0.60309 0.16063 0.21645 0.0
H2338 H 0.61583 0.14692 0.22546 0.0
H2339 H 0.64679 0.17152 0.21851 0.0
H2340 H 0.63409 0.18538 0.20963 0.0
H2341 H 0.64659 0.1641 0.24086 0.0
H2342 H 0.64158 0.14553 0.2029 0.0
H2343 H 0.63046 0.13673 0.18571 0.0
H2344 H 0.61275 0.10982 0.20808 0.0
H2345 H 0.62364 0.11856 0.22545 0.0
C2346 C 0.67976 0.12372 0.25764 0.0
C2347 C 0.67423 0.11399 0.26398 0.0
C2348 C 0.67306 0.13045 0.25032 0.0
C2349 C 0.66071 0.1276 0.24922 0.0
C2350 C 0.65524 0.11757 0.25508 0.0
C2351 C 0.66194 0.11083 0.26243 0.0
C2352 C 0.65343 0.13548 0.24246 0.0
C2353 C 0.64661 0.13082 0.23284 0.0
C2354 C 0.65345 0.14763 0.24535 0.0
C2355 C 0.65995 0.15295 0.2558 0.0
C2356 C 0.65764 0.14825 0.2672 0.0
C2357 C 0.66385 0.15324 0.27699 0.0
C2358 C 0.67234 0.163 0.27551 0.0
C2359 C 0.6746 0.1678 0.26424 0.0
C2360 C 0.66842 0.16283 0.25441 0.0
C2361 C 0.61262 0.16308 0.21672 0.0
C2362 C 0.61757 0.17413 0.21235 0.0
C2363 C 0.61991 0.1552 0.22182 0.0
C2364 C 0.63228 0.15815 0.22259 0.0
C2365 C 0.63726 0.16906 0.21801 0.0
C2366 C 0.62999 0.17696 0.21291 0.0
C2367 C 0.63991 0.15021 0.22885 0.0
C2368 C 0.64678 0.15485 0.23845 0.0
C2369 C 0.63992 0.13805 0.22592 0.0
C2370 C 0.63335 0.13277 0.2155 0.0
C2371 C 0.63524 0.13779 0.20417 0.0
C2372 C 0.62899 0.1328 0.19439 0.0
C2373 C 0.62088 0.12274 0.19581 0.0
C2374 C 0.61902 0.11762 0.207 0.0
C2375 C 0.62524 0.12259 0.21682 0.0
H2376 H 0.61606 0.11889 0.18822 0.0
H2377 H 0.67714 0.16685 0.28311 0.0
H2378 H 0.80489 0.62238 0.21536 0.0
H2379 H 0.81911 0.63176 0.22954 0.0
H2380 H 0.83664 0.59969 0.23158 0.0
H2381 H 0.82227 0.5901 0.21738 0.0
H2382 H 0.83364 0.60933 0.25346 0.0
H2383 H 0.84966 0.62287 0.21631 0.0
H2384 H 0.8494 0.63136 0.19621 0.0
H2385 H 0.83911 0.66395 0.21049 0.0
H2386 H 0.83913 0.6556 0.23067 0.0
H2387 H 0.88022 0.64216 0.28703 0.0
H2388 H 0.87006 0.62982 0.27152 0.0
H2389 H 0.84747 0.65746 0.26411 0.0
H2390 H 0.85755 0.66983 0.27945 0.0
H2391 H 0.85585 0.64822 0.24392 0.0
H2392 H 0.83745 0.63357 0.28063 0.0
H2393 H 0.83746 0.625 0.30071 0.0
H2394 H 0.85247 0.59438 0.28707 0.0
H2395 H 0.85268 0.60285 0.26692 0.0
C2396 C 0.81175 0.61728 0.21879 0.0
C2397 C 0.81246 0.60549 0.21517 0.0
C2398 C 0.81992 0.62269 0.22688 0.0
C2399 C 0.82906 0.61649 0.23147 0.0
C2400 C 0.82969 0.60465 0.22808 0.0
C2401 C 0.82149 0.5992 0.21996 0.0
C2402 C 0.83778 0.62248 0.23991 0.0
C2403 C 0.8387 0.61771 0.2513 0.0
C2404 C 0.84428 0.63348 0.23713 0.0
C2405 C 0.84432 0.63857 0.225 0.0
C2406 C 0.84726 0.63182 0.21516 0.0
C2407 C 0.84717 0.63661 0.20375 0.0
C2408 C 0.84422 0.64818 0.20208 0.0
C2409 C 0.84138 0.65499 0.21181 0.0
C2410 C 0.84145 0.65024 0.22323 0.0
C2411 C 0.87312 0.64562 0.28207 0.0
C2412 C 0.86968 0.65698 0.28452 0.0
C2413 C 0.8673 0.63854 0.27324 0.0
C2414 C 0.85796 0.6427 0.26672 0.0
C2415 C 0.85467 0.65409 0.26902 0.0
C2416 C 0.86042 0.66113 0.27784 0.0
C2417 C 0.85143 0.63524 0.25756 0.0
C2418 C 0.85095 0.63974 0.24602 0.0
C2419 C 0.84536 0.62399 0.2602 0.0
C2420 C 0.84522 0.6189 0.2723 0.0
C2421 C 0.84085 0.62505 0.28193 0.0
C2422 C 0.8408 0.62021 0.29332 0.0
C2423 C 0.845 0.60917 0.29517 0.0
C2424 C 0.84924 0.60294 0.28563 0.0
C2425 C 0.84932 0.60775 0.27422 0.0
H2426 H 0.84495 0.60543 0.304 0.0
H2427 H 0.84416 0.65187 0.19324 0.0
H2428 H 0.32666 0.8951 0.26184 0.0
H2429 H 0.3389 0.88897 0.2455 0.0
H2430 H 0.35048 0.86096 0.26717 0.0
H2431 H 0.3384 0.86711 0.28361 0.0
H2432 H 0.36872 0.87145 0.25388 0.0
H2433 H 0.32798 0.85519 0.24757 0.0
H2434 H 0.30634 0.85609 0.24523 0.0
H2435 H 0.31268 0.87898 0.2151 0.0
H2436 H 0.33439 0.87834 0.21736 0.0
H2437 H 0.38454 0.83024 0.21054 0.0
H2438 H 0.37642 0.84101 0.22692 0.0
H2439 H 0.36531 0.86691 0.20238 0.0
H2440 H 0.37325 0.8561 0.18591 0.0
H2441 H 0.34755 0.8592 0.21665 0.0
H2442 H 0.38839 0.87391 0.22187 0.0
H2443 H 0.40999 0.87272 0.22419 0.0
H2444 H 0.4036 0.85262 0.2562 0.0
H2445 H 0.38195 0.85354 0.25399 0.0
C2446 C 0.3319 0.88772 0.26319 0.0
C2447 C 0.33145 0.88153 0.27401 0.0
C2448 C 0.33888 0.88421 0.25382 0.0
C2449 C 0.34547 0.8744 0.25506 0.0
C2450 C 0.34545 0.86854 0.26601 0.0
C2451 C 0.33849 0.87205 0.27539 0.0
C2452 C 0.35184 0.86982 0.24479 0.0
C2453 C 0.36409 0.86869 0.24576 0.0
C2454 C 0.34585 0.86646 0.23411 0.0
C2455 C 0.3328 0.86683 0.23272 0.0
C2456 C 0.32476 0.86049 0.2405 0.0
C2457 C 0.31248 0.86094 0.23918 0.0
C2458 C 0.30814 0.86762 0.23004 0.0
C2459 C 0.31606 0.87384 0.22219 0.0
C2460 C 0.32835 0.87343 0.22348 0.0
C2461 C 0.38051 0.83831 0.20863 0.0
C2462 C 0.37949 0.84228 0.1969 0.0
C2463 C 0.37592 0.8445 0.21802 0.0
C2464 C 0.37032 0.85482 0.2159 0.0
C2465 C 0.36959 0.85897 0.20423 0.0
C2466 C 0.37416 0.85278 0.19482 0.0
C2467 C 0.36445 0.86076 0.22572 0.0
C2468 C 0.35225 0.8621 0.22469 0.0
C2469 C 0.3705 0.86428 0.23633 0.0
C2470 C 0.38353 0.86371 0.2377 0.0
C2471 C 0.39158 0.86915 0.22935 0.0
C2472 C 0.40384 0.86854 0.23066 0.0
C2473 C 0.40816 0.86258 0.24032 0.0
C2474 C 0.40024 0.85723 0.24872 0.0
C2475 C 0.38797 0.85781 0.24745 0.0
H2476 H 0.41766 0.86211 0.24132 0.0
H2477 H 0.29863 0.86796 0.22903 0.0
H2478 H 0.08838 0.33784 0.27794 0.0
H2479 H 0.09854 0.34991 0.26227 0.0
H2480 H 0.10733 0.31815 0.24461 0.0
H2481 H 0.09741 0.30607 0.26027 0.0
H2482 H 0.12642 0.33363 0.24662 0.0
H2483 H 0.08583 0.33496 0.23387 0.0
H2484 H 0.06478 0.33878 0.23603 0.0
H2485 H 0.07554 0.37552 0.24317 0.0
H2486 H 0.09668 0.37189 0.24121 0.0
H2487 H 0.14611 0.35462 0.19099 0.0
H2488 H 0.13384 0.34498 0.20668 0.0
H2489 H 0.13002 0.379 0.2226 0.0
H2490 H 0.14232 0.38881 0.20682 0.0
H2491 H 0.10871 0.36392 0.22243 0.0
H2492 H 0.14931 0.36259 0.23437 0.0
H2493 H 0.17031 0.35868 0.23196 0.0
H2494 H 0.15938 0.32171 0.22628 0.0
H2495 H 0.1383 0.32543 0.22848 0.0
C2496 C 0.09237 0.33343 0.27066 0.0
C2497 C 0.09213 0.32099 0.2704 0.0
C2498 C 0.09814 0.34034 0.26169 0.0
C2499 C 0.10367 0.33493 0.25225 0.0
C2500 C 0.10317 0.32252 0.25183 0.0
C2501 C 0.09746 0.31562 0.26079 0.0
C2502 C 0.11054 0.34213 0.24309 0.0
C2503 C 0.12249 0.34015 0.24125 0.0
C2504 C 0.10553 0.35093 0.23634 0.0
C2505 C 0.09284 0.35312 0.23753 0.0
C2506 C 0.08371 0.34383 0.23601 0.0
C2507 C 0.07176 0.34597 0.23717 0.0
C2508 C 0.06883 0.35738 0.23977 0.0
C2509 C 0.07783 0.36668 0.24118 0.0
C2510 C 0.0898 0.36459 0.24003 0.0
C2511 C 0.14263 0.3601 0.19777 0.0
C2512 C 0.14528 0.37249 0.1977 0.0
C2513 C 0.13563 0.35455 0.20676 0.0
C2514 C 0.13116 0.36126 0.21588 0.0
C2515 C 0.13343 0.37367 0.21565 0.0
C2516 C 0.14048 0.37925 0.20665 0.0
C2517 C 0.12447 0.35518 0.22583 0.0
C2518 C 0.11262 0.35743 0.22786 0.0
C2519 C 0.12953 0.34659 0.23277 0.0
C2520 C 0.14222 0.34431 0.23149 0.0
C2521 C 0.15138 0.35364 0.23251 0.0
C2522 C 0.1633 0.35145 0.2312 0.0
C2523 C 0.16617 0.33996 0.22894 0.0
C2524 C 0.15714 0.33061 0.22802 0.0
C2525 C 0.1452 0.33275 0.22931 0.0
H2526 H 0.17541 0.33828 0.22793 0.0
H2527 H 0.05957 0.35901 0.24067 0.0
H2528 H 0.71854 0.66538 0.85234 0.0
H2529 H 0.73287 0.65354 0.84309 0.0
H2530 H 0.73403 0.63263 0.87491 0.0
H2531 H 0.71968 0.64457 0.88436 0.0
H2532 H 0.75639 0.63871 0.86548 0.0
H2533 H 0.71869 0.62105 0.85173 0.0
H2534 H 0.69858 0.62072 0.84308 0.0
H2535 H 0.71362 0.63544 0.8107 0.0
H2536 H 0.73381 0.63602 0.81922 0.0
H2537 H 0.78935 0.59773 0.83363 0.0
H2538 H 0.77409 0.60589 0.8458 0.0
H2539 H 0.76676 0.62941 0.81728 0.0
H2540 H 0.78178 0.62125 0.80506 0.0
H2541 H 0.74654 0.61935 0.82679 0.0
H2542 H 0.7838 0.63908 0.84126 0.0
H2543 H 0.80397 0.63996 0.8499 0.0
H2544 H 0.78974 0.62157 0.88085 0.0
H2545 H 0.76951 0.62045 0.87231 0.0
C2546 C 0.72182 0.65828 0.85742 0.0
C2547 C 0.71789 0.65589 0.86908 0.0
C2548 C 0.72999 0.65149 0.85209 0.0
C2549 C 0.73436 0.64209 0.85825 0.0
C2550 C 0.7307 0.63981 0.86999 0.0
C2551 C 0.72249 0.64663 0.87535 0.0
C2552 C 0.74276 0.63472 0.85231 0.0
C2553 C 0.75417 0.63427 0.85714 0.0
C2554 C 0.7399 0.62906 0.84135 0.0
C2555 C 0.72777 0.62865 0.83615 0.0
C2556 C 0.7177 0.62429 0.84279 0.0
C2557 C 0.70629 0.62405 0.83791 0.0
C2558 C 0.70482 0.62808 0.82635 0.0
C2559 C 0.71477 0.63233 0.81965 0.0
C2560 C 0.7262 0.6326 0.8245 0.0
C2561 C 0.78446 0.60462 0.82995 0.0
C2562 C 0.7868 0.60886 0.81838 0.0
C2563 C 0.77578 0.6093 0.83693 0.0
C2564 C 0.76935 0.61833 0.83248 0.0
C2565 C 0.77159 0.62244 0.82089 0.0
C2566 C 0.78022 0.61778 0.81393 0.0
C2567 C 0.76029 0.62361 0.83979 0.0
C2568 C 0.74872 0.62364 0.83522 0.0
C2569 C 0.76302 0.62888 0.85096 0.0
C2570 C 0.77517 0.62955 0.85609 0.0
C2571 C 0.78499 0.63513 0.84986 0.0
C2572 C 0.79643 0.6357 0.85475 0.0
C2573 C 0.79814 0.63079 0.8659 0.0
C2574 C 0.78841 0.62534 0.8722 0.0
C2575 C 0.77696 0.62474 0.86734 0.0
H2576 H 0.807 0.63124 0.86967 0.0
H2577 H 0.69597 0.62789 0.82259 0.0
H2578 H 0.76933 0.38096 0.16013 0.0
H2579 H 0.75409 0.36825 0.14951 0.0
H2580 H 0.78057 0.35884 0.12455 0.0
H2581 H 0.79587 0.37169 0.13502 0.0
H2582 H 0.75932 0.36152 0.11362 0.0
H2583 H 0.77287 0.34076 0.14735 0.0
H2584 H 0.77747 0.33797 0.16846 0.0
H2585 H 0.74081 0.34053 0.17755 0.0
H2586 H 0.73603 0.34351 0.15649 0.0
H2587 H 0.72829 0.30667 0.09382 0.0
H2588 H 0.74268 0.32252 0.10135 0.0
H2589 H 0.71719 0.33137 0.12762 0.0
H2590 H 0.70288 0.31548 0.12032 0.0
H2591 H 0.7381 0.32922 0.13749 0.0
H2592 H 0.72441 0.34934 0.10346 0.0
H2593 H 0.71995 0.35195 0.08229 0.0
H2594 H 0.75684 0.35029 0.07361 0.0
H2595 H 0.7615 0.34751 0.09472 0.0
C2596 C 0.7719 0.37632 0.1523 0.0
C2597 C 0.78385 0.37723 0.14851 0.0
C2598 C 0.76318 0.36903 0.14625 0.0
C2599 C 0.76625 0.36244 0.13637 0.0
C2600 C 0.77803 0.36382 0.13218 0.0
C2601 C 0.78676 0.37114 0.1382 0.0
C2602 C 0.75734 0.35354 0.13091 0.0
C2603 C 0.75475 0.35438 0.11879 0.0
C2604 C 0.75127 0.34432 0.13771 0.0
C2605 C 0.75412 0.34248 0.15036 0.0
C2606 C 0.76581 0.34082 0.15386 0.0
C2607 C 0.76845 0.33919 0.16582 0.0
C2608 C 0.75944 0.3391 0.17434 0.0
C2609 C 0.74778 0.34062 0.17093 0.0
C2610 C 0.7451 0.34227 0.15899 0.0
C2611 C 0.72571 0.31207 0.10112 0.0
C2612 C 0.71445 0.30976 0.1065 0.0
C2613 C 0.73393 0.32116 0.10538 0.0
C2614 C 0.731 0.32818 0.11501 0.0
C2615 C 0.71967 0.32606 0.1202 0.0
C2616 C 0.71148 0.31696 0.11599 0.0
C2617 C 0.73992 0.33725 0.1202 0.0
C2618 C 0.74259 0.33639 0.13229 0.0
C2619 C 0.74605 0.34641 0.11336 0.0
C2620 C 0.74328 0.3481 0.10066 0.0
C2621 C 0.73155 0.34944 0.09703 0.0
C2622 C 0.72899 0.35097 0.08504 0.0
C2623 C 0.7381 0.35126 0.07661 0.0
C2624 C 0.74979 0.35005 0.08015 0.0
C2625 C 0.7524 0.34851 0.09212 0.0
H2626 H 0.7361 0.35244 0.06733 0.0
H2627 H 0.7615 0.33784 0.18359 0.0
H2628 H 0.61559 0.74558 0.19645 0.0
H2629 H 0.62671 0.73108 0.18641 0.0
H2630 H 0.61576 0.74379 0.15252 0.0
H2631 H 0.60451 0.75829 0.16249 0.0
H2632 H 0.61571 0.71934 0.15299 0.0
H2633 H 0.64231 0.75387 0.16335 0.0
H2634 H 0.65185 0.76899 0.17696 0.0
H2635 H 0.66577 0.74173 0.19765 0.0
H2636 H 0.65617 0.72643 0.18424 0.0
H2637 H 0.66157 0.7035 0.11492 0.0
H2638 H 0.64685 0.7129 0.12651 0.0
H2639 H 0.66206 0.70067 0.15878 0.0
H2640 H 0.67701 0.69142 0.14723 0.0
H2641 H 0.65934 0.72344 0.16029 0.0
H2642 H 0.63432 0.68891 0.14879 0.0
H2643 H 0.62487 0.67384 0.13508 0.0
H2644 H 0.60805 0.70073 0.11654 0.0
H2645 H 0.61754 0.716 0.13003 0.0
C2646 C 0.61541 0.74521 0.18687 0.0
C2647 C 0.60927 0.7532 0.18027 0.0
C2648 C 0.62179 0.73692 0.18114 0.0
C2649 C 0.6222 0.73648 0.16873 0.0
C2650 C 0.61558 0.74401 0.16212 0.0
C2651 C 0.60919 0.75232 0.16783 0.0
C2652 C 0.63017 0.72877 0.16263 0.0
C2653 C 0.62527 0.72027 0.1545 0.0
C2654 C 0.64259 0.72982 0.16483 0.0
C2655 C 0.64841 0.739 0.17287 0.0
C2656 C 0.64732 0.7511 0.17086 0.0
C2657 C 0.65276 0.7597 0.17853 0.0
C2658 C 0.65938 0.75632 0.18819 0.0
C2659 C 0.66062 0.74433 0.19018 0.0
C2660 C 0.65519 0.7357 0.18255 0.0
C2661 C 0.66171 0.70268 0.12448 0.0
C2662 C 0.67051 0.69675 0.13015 0.0
C2663 C 0.65323 0.708 0.1311 0.0
C2664 C 0.65327 0.70741 0.14352 0.0
C2665 C 0.66185 0.70124 0.1492 0.0
C2666 C 0.67038 0.69594 0.14259 0.0
C2667 C 0.64493 0.71398 0.15056 0.0
C2668 C 0.64978 0.72234 0.15886 0.0
C2669 C 0.63247 0.71278 0.1485 0.0
C2670 C 0.62672 0.70362 0.14037 0.0
C2671 C 0.62868 0.69163 0.14173 0.0
C2672 C 0.6233 0.68304 0.13401 0.0
C2673 C 0.61588 0.68633 0.12493 0.0
C2674 C 0.61381 0.6982 0.12357 0.0
C2675 C 0.61917 0.70682 0.13126 0.0
H2676 H 0.61172 0.67967 0.11896 0.0
H2677 H 0.66358 0.76299 0.19412 0.0
H2678 H 0.19592 0.61719 0.14801 0.0
H2679 H 0.21145 0.62547 0.13451 0.0
H2680 H 0.2328 0.59715 0.1432 0.0
H2681 H 0.21733 0.58887 0.15694 0.0
H2682 H 0.24576 0.61801 0.14429 0.0
H2683 H 0.2195 0.59842 0.1159 0.0
H2684 H 0.20036 0.59266 0.1059 0.0
H2685 H 0.19759 0.62899 0.09651 0.0
H2686 H 0.21665 0.635 0.1066 0.0
H2687 H 0.28945 0.63946 0.10213 0.0
H2688 H 0.27382 0.62603 0.11146 0.0
H2689 H 0.249 0.65236 0.10751 0.0
H2690 H 0.2645 0.66578 0.09808 0.0
H2691 H 0.2385 0.63004 0.10287 0.0
H2692 H 0.26342 0.64962 0.1334 0.0
H2693 H 0.28246 0.65544 0.14359 0.0
H2694 H 0.28759 0.61878 0.14893 0.0
H2695 H 0.26863 0.61275 0.13862 0.0
C2696 C 0.20385 0.61263 0.14699 0.0
C2697 C 0.20538 0.60236 0.15359 0.0
C2698 C 0.21271 0.61735 0.13919 0.0
C2699 C 0.22325 0.61187 0.13773 0.0
C2700 C 0.22473 0.60151 0.14416 0.0
C2701 C 0.21587 0.59678 0.152 0.0
C2702 C 0.23297 0.61741 0.13006 0.0
C2703 C 0.24423 0.6204 0.13515 0.0
C2704 C 0.23094 0.62074 0.1182 0.0
C2705 C 0.21948 0.61717 0.11209 0.0
C2706 C 0.21477 0.60519 0.11178 0.0
C2707 C 0.20394 0.60188 0.10608 0.0
C2708 C 0.19775 0.61046 0.10059 0.0
C2709 C 0.2024 0.62236 0.10077 0.0
C2710 C 0.21322 0.62572 0.10646 0.0
C2711 C 0.28063 0.64234 0.10311 0.0
C2712 C 0.27826 0.65375 0.09947 0.0
C2713 C 0.27172 0.63467 0.10847 0.0
C2714 C 0.2603 0.63826 0.11032 0.0
C2715 C 0.25776 0.64941 0.10619 0.0
C2716 C 0.26665 0.65709 0.10084 0.0
C2717 C 0.25118 0.63076 0.11717 0.0
C2718 C 0.24004 0.62745 0.11194 0.0
C2719 C 0.25332 0.62711 0.1289 0.0
C2720 C 0.26469 0.63074 0.13512 0.0
C2721 C 0.26866 0.64281 0.13666 0.0
C2722 C 0.27942 0.64614 0.14247 0.0
C2723 C 0.28625 0.63749 0.14687 0.0
C2724 C 0.2823 0.62548 0.14549 0.0
C2725 C 0.27155 0.62209 0.13968 0.0
H2726 H 0.29458 0.64009 0.15136 0.0
H2727 H 0.18937 0.60787 0.09619 0.0
H2728 H 0.32607 0.27887 0.08862 0.0
H2729 H 0.33492 0.26192 0.09718 0.0
H2730 H 0.30648 0.25749 0.12289 0.0
H2731 H 0.2977 0.27442 0.11455 0.0
H2732 H 0.32765 0.25663 0.13325 0.0
H2733 H 0.30742 0.23901 0.09882 0.0
H2734 H 0.3029 0.23706 0.07749 0.0
H2735 H 0.33946 0.23207 0.07022 0.0
H2736 H 0.34423 0.23414 0.0915 0.0
H2737 H 0.32957 0.19928 0.15573 0.0
H2738 H 0.32404 0.21679 0.1454 0.0
H2739 H 0.35511 0.21674 0.12307 0.0
H2740 H 0.36068 0.19903 0.13333 0.0
H2741 H 0.33522 0.22073 0.11039 0.0
H2742 H 0.35506 0.23665 0.14506 0.0
H2743 H 0.35949 0.23839 0.16641 0.0
H2744 H 0.32377 0.24664 0.17325 0.0
H2745 H 0.31906 0.24478 0.15195 0.0
C2746 C 0.32168 0.27425 0.09607 0.0
C2747 C 0.31118 0.27803 0.10091 0.0
C2748 C 0.32673 0.26455 0.10093 0.0
C2749 C 0.32133 0.2584 0.11065 0.0
C2750 C 0.31082 0.26211 0.11542 0.0
C2751 C 0.30579 0.27179 0.1106 0.0
C2752 C 0.32665 0.24825 0.1161 0.0
C2753 C 0.32921 0.24874 0.12827 0.0
C2754 C 0.32907 0.23812 0.10952 0.0
C2755 C 0.32621 0.23687 0.09673 0.0
C2756 C 0.31451 0.2376 0.09266 0.0
C2757 C 0.3119 0.23645 0.08058 0.0
C2758 C 0.32089 0.23448 0.0725 0.0
C2759 C 0.33251 0.23362 0.07648 0.0
C2760 C 0.33517 0.23477 0.08855 0.0
C2761 C 0.33525 0.20297 0.14863 0.0
C2762 C 0.3456 0.19778 0.14539 0.0
C2763 C 0.33209 0.21302 0.14276 0.0
C2764 C 0.33925 0.21817 0.13358 0.0
C2765 C 0.34949 0.21293 0.13017 0.0
C2766 C 0.35267 0.20284 0.13606 0.0
C2767 C 0.33591 0.22901 0.12759 0.0
C2768 C 0.33377 0.22867 0.11534 0.0
C2769 C 0.33387 0.2393 0.13408 0.0
C2770 C 0.33668 0.24049 0.14691 0.0
C2771 C 0.34812 0.23875 0.15112 0.0
C2772 C 0.35069 0.23977 0.16322 0.0
C2773 C 0.34191 0.2426 0.17119 0.0
C2774 C 0.33056 0.24444 0.16707 0.0
C2775 C 0.32794 0.24342 0.15498 0.0
H2776 H 0.34392 0.24339 0.18055 0.0
H2777 H 0.31885 0.2336 0.06315 0.0
H2778 H 0.29529 0.34855 0.8494 0.0
H2779 H 0.2801 0.36059 0.84216 0.0
H2780 H 0.26287 0.35833 0.87634 0.0
H2781 H 0.27798 0.34604 0.88363 0.0
H2782 H 0.24704 0.35369 0.85913 0.0
H2783 H 0.27799 0.38447 0.86675 0.0
H2784 H 0.29833 0.39473 0.86613 0.0
H2785 H 0.29657 0.3966 0.82819 0.0
H2786 H 0.27627 0.3862 0.82856 0.0
H2787 H 0.20552 0.3926 0.83882 0.0
H2788 H 0.22155 0.38538 0.85057 0.0
H2789 H 0.2425 0.38267 0.81886 0.0
H2790 H 0.22662 0.38995 0.80708 0.0
H2791 H 0.25613 0.3916 0.83744 0.0
H2792 H 0.22638 0.35855 0.82996 0.0
H2793 H 0.20611 0.34808 0.8305 0.0
H2794 H 0.20583 0.35061 0.86847 0.0
H2795 H 0.22605 0.36123 0.86813 0.0
C2796 C 0.28834 0.35069 0.85544 0.0
C2797 C 0.28785 0.34631 0.8671 0.0
C2798 C 0.27969 0.35765 0.85129 0.0
C2799 C 0.27042 0.3605 0.85874 0.0
C2800 C 0.26997 0.35628 0.87045 0.0
C2801 C 0.27863 0.34927 0.87461 0.0
C2802 C 0.26085 0.36729 0.85402 0.0
C2803 C 0.24901 0.36212 0.85462 0.0
C2804 C 0.26342 0.37818 0.84796 0.0
C2805 C 0.27562 0.38448 0.84768 0.0
C2806 C 0.28196 0.38699 0.85827 0.0
C2807 C 0.29348 0.39285 0.85796 0.0
C2808 C 0.29874 0.3963 0.84713 0.0
C2809 C 0.29248 0.39392 0.83658 0.0
C2810 C 0.28096 0.38806 0.83683 0.0
C2811 C 0.21359 0.39059 0.83436 0.0
C2812 C 0.21474 0.39177 0.82199 0.0
C2813 C 0.22273 0.38643 0.84109 0.0
C2814 C 0.23315 0.38336 0.83556 0.0
C2815 C 0.23452 0.38498 0.8233 0.0
C2816 C 0.2254 0.3891 0.81657 0.0
C2817 C 0.24242 0.37789 0.84238 0.0
C2818 C 0.25418 0.38329 0.84214 0.0
C2819 C 0.23979 0.36722 0.8488 0.0
C2820 C 0.22765 0.36081 0.84901 0.0
C2821 C 0.22195 0.35696 0.83841 0.0
C2822 C 0.21048 0.35098 0.83869 0.0
C2823 C 0.20467 0.34872 0.84951 0.0
C2824 C 0.21033 0.35239 0.86009 0.0
C2825 C 0.2218 0.35839 0.85986 0.0
H2826 H 0.19579 0.34409 0.8497 0.0
H2827 H 0.30766 0.40083 0.84691 0.0
H2828 H 0.6385 0.26948 0.89016 0.0
H2829 H 0.62447 0.25371 0.88191 0.0
H2830 H 0.62232 0.27385 0.84969 0.0
H2831 H 0.63609 0.28971 0.85793 0.0
H2832 H 0.60083 0.26345 0.85564 0.0
H2833 H 0.64069 0.25151 0.852 0.0
H2834 H 0.66028 0.24692 0.85943 0.0
H2835 H 0.64315 0.21971 0.88185 0.0
H2836 H 0.62344 0.22426 0.87465 0.0
H2837 H 0.58613 0.22049 0.81119 0.0
H2838 H 0.59489 0.23615 0.82427 0.0
H2839 H 0.59273 0.21163 0.85359 0.0
H2840 H 0.58403 0.19583 0.84052 0.0
H2841 H 0.61467 0.22344 0.85164 0.0
H2842 H 0.57474 0.23379 0.85282 0.0
H2843 H 0.55543 0.23832 0.84467 0.0
H2844 H 0.57276 0.26843 0.82626 0.0
H2845 H 0.59221 0.26399 0.83416 0.0
C2846 C 0.63494 0.2706 0.88136 0.0
C2847 C 0.6385 0.28081 0.87466 0.0
C2848 C 0.62696 0.26156 0.87665 0.0
C2849 C 0.62247 0.26253 0.86512 0.0
C2850 C 0.62566 0.2729 0.8586 0.0
C2851 C 0.63359 0.28195 0.86332 0.0
C2852 C 0.61493 0.25255 0.85953 0.0
C2853 C 0.60387 0.25471 0.85471 0.0
C2854 C 0.61876 0.24107 0.85858 0.0
C2855 C 0.63059 0.23832 0.8629 0.0
C2856 C 0.6411 0.24462 0.85858 0.0
C2857 C 0.65222 0.24201 0.86274 0.0
C2858 C 0.65295 0.23305 0.87113 0.0
C2859 C 0.64256 0.22666 0.87537 0.0
C2860 C 0.63142 0.22925 0.87125 0.0
C2861 C 0.58737 0.21844 0.82045 0.0
C2862 C 0.58441 0.20689 0.82479 0.0
C2863 C 0.59233 0.22743 0.82793 0.0
C2864 C 0.59438 0.22508 0.83993 0.0
C2865 C 0.5912 0.21364 0.84437 0.0
C2866 C 0.58619 0.20463 0.83689 0.0
C2867 C 0.60066 0.23438 0.84756 0.0
C2868 C 0.6115 0.2321 0.85274 0.0
C2869 C 0.59666 0.24577 0.84877 0.0
C2870 C 0.58496 0.2485 0.84403 0.0
C2871 C 0.57445 0.24133 0.84696 0.0
C2872 C 0.56347 0.24389 0.8424 0.0
C2873 C 0.56287 0.25364 0.83493 0.0
C2874 C 0.57324 0.26087 0.83204 0.0
C2875 C 0.58425 0.25835 0.83657 0.0
H2876 H 0.55436 0.25561 0.83141 0.0
H2877 H 0.66157 0.23104 0.87434 0.0
H2878 H 0.32032 0.72021 0.88412 0.0
H2879 H 0.32943 0.73801 0.8742 0.0
H2880 H 0.36331 0.72338 0.87372 0.0
H2881 H 0.35432 0.70562 0.88387 0.0
H2882 H 0.36626 0.74675 0.87848 0.0
H2883 H 0.34541 0.72165 0.84936 0.0
H2884 H 0.32812 0.70959 0.84072 0.0
H2885 H 0.30857 0.7402 0.83962 0.0
H2886 H 0.3257 0.75241 0.84842 0.0
H2887 H 0.39328 0.78109 0.83071 0.0
H2888 H 0.38496 0.76538 0.84404 0.0
H2889 H 0.35149 0.78079 0.8447 0.0
H2890 H 0.35967 0.79646 0.8313 0.0
H2891 H 0.34829 0.75739 0.84031 0.0
H2892 H 0.36986 0.78272 0.86869 0.0
H2893 H 0.38744 0.79456 0.87703 0.0
H2894 H 0.40604 0.76336 0.8791 0.0
H2895 H 0.38862 0.75136 0.87061 0.0
C2896 C 0.32974 0.72081 0.88202 0.0
C2897 C 0.33656 0.71143 0.88469 0.0
C2898 C 0.33492 0.73099 0.87631 0.0
C2899 C 0.347 0.73193 0.87302 0.0
C2900 C 0.35396 0.72282 0.87614 0.0
C2901 C 0.3488 0.71266 0.88191 0.0
C2902 C 0.35222 0.74216 0.86587 0.0
C2903 C 0.36241 0.74902 0.87007 0.0
C2904 C 0.34708 0.74523 0.85499 0.0
C2905 C 0.33679 0.73791 0.84966 0.0
C2906 C 0.33739 0.72579 0.84736 0.0
C2907 C 0.32763 0.71893 0.84242 0.0
C2908 C 0.31724 0.72412 0.83965 0.0
C2909 C 0.31661 0.73619 0.84179 0.0
C2910 C 0.32635 0.74308 0.84674 0.0
C2911 C 0.38418 0.78121 0.83377 0.0
C2912 C 0.37713 0.79003 0.8299 0.0
C2913 C 0.37945 0.77224 0.84144 0.0
C2914 C 0.36762 0.77196 0.84543 0.0
C2915 C 0.36064 0.78085 0.84173 0.0
C2916 C 0.36535 0.78981 0.83408 0.0
C2917 C 0.36231 0.76205 0.85293 0.0
C2918 C 0.35211 0.75519 0.84875 0.0
C2919 C 0.3675 0.75897 0.86378 0.0
C2920 C 0.37798 0.76616 0.8689 0.0
C2921 C 0.37774 0.7784 0.87083 0.0
C2922 C 0.38767 0.78514 0.8756 0.0
C2923 C 0.39786 0.77972 0.87857 0.0
C2924 C 0.39814 0.76754 0.87679 0.0
C2925 C 0.38824 0.76077 0.872 0.0
H2926 H 0.40554 0.78495 0.88226 0.0
H2927 H 0.3097 0.7188 0.83583 0.0
H2928 H 0.94004 0.33312 0.32333 0.0
H2929 H 0.96135 0.33088 0.32211 0.0
H2930 H 0.9547 0.30573 0.2936 0.0
H2931 H 0.93334 0.30787 0.29479 0.0
H2932 H 0.96968 0.29803 0.31029 0.0
H2933 H 0.9666 0.33341 0.28769 0.0
H2934 H 0.96084 0.3535 0.28393 0.0
H2935 H 0.98247 0.36707 0.31315 0.0
H2936 H 0.98823 0.34702 0.31719 0.0
H2937 H 0.03009 0.29646 0.29286 0.0
H2938 H 0.00875 0.29871 0.29325 0.0
H2939 H 0.01467 0.32567 0.3202 0.0
H2940 H 0.03605 0.32366 0.31968 0.0
H2941 H -8e-05 0.33236 0.30387 0.0
H2942 H 0.00274 0.2971 0.32682 0.0
H2943 H 0.00838 0.27703 0.33089 0.0
H2944 H 0.98722 0.26325 0.30143 0.0
H2945 H 0.98156 0.28327 0.29709 0.0
C2946 C 0.9431 0.32714 0.31677 0.0
C2947 C 0.93499 0.32069 0.30914 0.0
C2948 C 0.95529 0.3259 0.31606 0.0
C2949 C 0.95962 0.31821 0.3077 0.0
C2950 C 0.95155 0.31172 0.3001 0.0
C2951 C 0.93935 0.31299 0.30078 0.0
C2952 C 0.97255 0.31682 0.30701 0.0
C2953 C 0.9763 0.3055 0.30871 0.0
C2954 C 0.98117 0.32662 0.30523 0.0
C2955 C 0.97775 0.33869 0.30281 0.0
C2956 C 0.97005 0.34066 0.29337 0.0
C2957 C 0.9668 0.35204 0.29118 0.0
C2958 C 0.97126 0.36155 0.29831 0.0
C2959 C 0.97901 0.3597 0.30764 0.0
C2960 C 0.98228 0.34833 0.30987 0.0
C2961 C 0.02685 0.30285 0.2989 0.0
C2962 C 0.03477 0.30986 0.30627 0.0
C2963 C 0.01463 0.30409 0.29914 0.0
C2964 C 0.01007 0.31226 0.30686 0.0
C2965 C 0.01798 0.31931 0.31418 0.0
C2966 C 0.0302 0.31812 0.3139 0.0
C2967 C -0.00291 0.31357 0.30721 0.0
C2968 C -0.00667 0.32488 0.30543 0.0
C2969 C 0.98845 0.30376 0.30896 0.0
C2970 C -0.00817 0.29171 0.31156 0.0
C2971 C -0.00064 0.2898 0.32115 0.0
C2972 C 0.00255 0.27843 0.32352 0.0
C2973 C -0.00181 0.26887 0.3164 0.0
C2974 C 0.9906 0.27066 0.30693 0.0
C2975 C 0.9874 0.28202 0.30452 0.0
H2976 H 0.00066 0.26008 0.31825 0.0
H2977 H 0.96874 0.37036 0.2966 0.0
H2978 H 0.67925 0.03786 0.3029 0.0
H2979 H 0.67679 0.01634 0.30553 0.0
H2980 H 0.70352 0.0126 0.27879 0.0
H2981 H 0.70601 0.03413 0.27606 0.0
H2982 H 0.6839 -0.00381 0.27624 0.0
H2983 H 0.71077 0.01056 0.30723 0.0
H2984 H 0.7174 0.02303 0.32436 0.0
H2985 H 0.68704 0.0083 0.34436 0.0
H2986 H 0.68014 -0.00415 0.32728 0.0
H2987 H 0.69434 0.93671 0.28901 0.0
H2988 H 0.69636 0.9581 0.28556 0.0
H2989 H 0.67212 0.96268 0.31443 0.0
H2990 H 0.67028 0.94132 0.31811 0.0
H2991 H 0.69056 0.97877 0.31571 0.0
H2992 H 0.66354 0.9644 0.28494 0.0
H2993 H 0.65661 0.95203 0.26784 0.0
H2994 H 0.6867 0.96676 0.24745 0.0
H2995 H 0.6939 0.97911 0.2645 0.0
C2996 C 0.68458 0.03247 0.29754 0.0
C2997 C 0.69286 0.03771 0.2893 0.0
C2998 C 0.68319 0.02017 0.29909 0.0
C2999 C 0.69006 0.01289 0.29244 0.0
C3000 C 0.69815 0.01807 0.28402 0.0
C3001 C 0.69958 0.03037 0.28251 0.0
C3002 C 0.6889 -0.00012 0.29437 0.0
C3003 C 0.6855 -0.00765 0.28483 0.0
C3004 C 0.69073 -0.00509 0.30564 0.0
C3005 C 0.69488 0.00236 0.31594 0.0
C3006 C 0.70546 0.01005 0.31525 0.0
C3007 C 0.70927 0.0171 0.32496 0.0
C3008 C 0.70263 0.01648 0.33543 0.0
C3009 C 0.69217 0.00878 0.33623 0.0
C3010 C 0.68831 0.00172 0.32655 0.0
C3011 C 0.68941 0.94226 0.2946 0.0
C3012 C 0.68213 0.93731 0.30382 0.0
C3013 C 0.69053 0.95449 0.29259 0.0
C3014 C 0.68427 0.962 0.29964 0.0
C3015 C 0.67702 0.95707 0.30886 0.0
C3016 C 0.67596 0.94485 0.31094 0.0
C3017 C 0.68548 0.97502 0.29759 0.0
C3018 C 0.68893 0.98257 0.30711 0.0
C3019 C 0.68363 0.98 0.28631 0.0
C3020 C 0.67932 0.97259 0.27604 0.0
C3021 C 0.66873 0.96493 0.27684 0.0
C3022 C 0.66474 0.95794 0.26715 0.0
C3023 C 0.67122 0.95859 0.25658 0.0
C3024 C 0.68169 0.96626 0.25566 0.0
C3025 C 0.68572 0.97327 0.26533 0.0
H3026 H 0.66812 0.95316 0.24909 0.0
H3027 H 0.7056 0.02195 0.34294 0.0
H3028 H 0.93541 0.68545 0.2993 0.0
H3029 H 0.95701 0.68479 0.2983 0.0
H3030 H 0.95483 0.6581 0.32566 0.0
H3031 H 0.93322 0.65872 0.32676 0.0
H3032 H 0.9729 0.67578 0.3296 0.0
H3033 H 0.95871 0.65029 0.29743 0.0
H3034 H 0.94753 0.64509 0.27907 0.0
H3035 H 0.96808 0.6733 0.26061 0.0
H3036 H 0.97928 0.67878 0.27891 0.0
H3037 H 0.03098 0.65793 0.32435 0.0
H3038 H 0.00934 0.65819 0.32472 0.0
H3039 H 0.01154 0.68272 0.29539 0.0
H3040 H 0.03318 0.68229 0.29478 0.0
H3041 H -0.00662 0.6663 0.29236 0.0
H3042 H 0.00747 0.69208 0.32404 0.0
H3043 H 0.01863 0.6979 0.34225 0.0
H3044 H -0.0017 0.6701 0.36149 0.0
H3045 H 0.98712 0.66401 0.34334 0.0
C3046 C 0.93951 0.67943 0.3051 0.0
C3047 C 0.93259 0.67212 0.3131 0.0
C3048 C 0.95186 0.67903 0.30448 0.0
C3049 C 0.95751 0.67132 0.31184 0.0
C3050 C 0.95064 0.6641 0.3199 0.0
C3051 C 0.93829 0.66444 0.32048 0.0
C3052 C 0.9706 0.6709 0.31124 0.0
C3053 C 0.97738 0.67355 0.3215 0.0
C3054 C 0.97645 0.66832 0.30059 0.0
C3055 C 0.96975 0.66502 0.28957 0.0
C3056 C 0.96078 0.65545 0.28948 0.0
C3057 C 0.95445 0.65244 0.27908 0.0
C3058 C 0.95707 0.65888 0.26869 0.0
C3059 C 0.96605 0.66833 0.26867 0.0
C3060 C 0.97239 0.67138 0.27905 0.0
C3061 C 0.02687 0.66337 0.31795 0.0
C3062 C 0.03381 0.67013 0.30956 0.0
C3063 C 0.01449 0.66355 0.31822 0.0
C3064 C 0.00882 0.67062 0.3102 0.0
C3065 C 0.01571 0.67722 0.30168 0.0
C3066 C 0.02809 0.67698 0.30136 0.0
C3067 C -0.00429 0.67115 0.31073 0.0
C3068 C 0.98893 0.66853 0.30046 0.0
C3069 C 0.98986 0.67386 0.32136 0.0
C3070 C -0.00346 0.67751 0.3323 0.0
C3071 C 0.00544 0.68715 0.33213 0.0
C3072 C 0.01176 0.69051 0.34245 0.0
C3073 C 0.00919 0.68435 0.35302 0.0
C3074 C 0.00028 0.67485 0.35329 0.0
C3075 C -0.00605 0.67144 0.343 0.0
H3076 H 0.01409 0.68697 0.361 0.0
H3077 H 0.95216 0.65653 0.26065 0.0
H3078 H 0.31902 0.03567 0.30458 0.0
H3079 H 0.31824 0.01402 0.30372 0.0
H3080 H 0.28065 0.01182 0.29586 0.0
H3081 H 0.28137 0.03349 0.29654 0.0
H3082 H 0.28703 -0.00448 0.31362 0.0
H3083 H 0.29789 0.00836 0.27405 0.0
H3084 H 0.30995 0.0201 0.25915 0.0
H3085 H 0.34121 0.00446 0.27042 0.0
H3086 H 0.32936 -0.00725 0.28552 0.0
H3087 H 0.29193 0.9366 0.28006 0.0
H3088 H 0.29128 0.95813 0.28057 0.0
H3089 H 0.30719 0.95947 0.31534 0.0
H3090 H 0.30802 0.93796 0.31485 0.0
H3091 H 0.31052 0.97614 0.28335 0.0
H3092 H 0.29278 0.9807 0.33091 0.0
H3093 H 0.28024 0.96897 0.34548 0.0
H3094 H 0.26155 0.94968 0.31726 0.0
H3095 H 0.27385 0.9614 0.30253 0.0
C3096 C 0.31058 0.03058 0.30271 0.0
C3097 C 0.30026 0.03628 0.3006 0.0
C3098 C 0.31016 0.01823 0.3022 0.0
C3099 C 0.2994 0.01136 0.29968 0.0
C3100 C 0.28903 0.01699 0.29782 0.0
C3101 C 0.28948 0.02936 0.29816 0.0
C3102 C 0.29902 -0.00171 0.2988 0.0
C3103 C 0.29216 0.99127 0.30702 0.0
C3104 C 0.30564 -0.00722 0.2901 0.0
C3105 C 0.31276 -0.00024 0.28099 0.0
C3106 C 0.30736 0.0075 0.27342 0.0
C3107 C 0.31415 0.01413 0.26492 0.0
C3108 C 0.32634 0.01305 0.26386 0.0
C3109 C 0.33177 0.0053 0.27127 0.0
C3110 C 0.32502 -0.00134 0.27978 0.0
C3111 C 0.29528 0.94147 0.28782 0.0
C3112 C 0.30002 0.93559 0.29742 0.0
C3113 C 0.29494 0.95377 0.28807 0.0
C3114 C 0.29914 0.96036 0.29801 0.0
C3115 C 0.30384 0.95452 0.30762 0.0
C3116 C 0.30433 0.94224 0.30731 0.0
C3117 C 0.29866 0.97336 0.29829 0.0
C3118 C 0.30539 0.98038 0.28997 0.0
C3119 C 0.29188 0.97886 0.30686 0.0
C3120 C 0.28433 0.97184 0.31563 0.0
C3121 C 0.28596 0.97398 0.32782 0.0
C3122 C 0.2789 0.96733 0.33611 0.0
C3123 C 0.27013 0.95856 0.3323 0.0
C3124 C 0.26838 0.95644 0.3202 0.0
C3125 C 0.27541 0.96307 0.31188 0.0
H3126 H 0.26467 0.95341 0.33873 0.0
H3127 H 0.33159 0.0182 0.25728 0.0
H3128 H 0.01745 0.73096 0.68175 0.0
H3129 H -0.00353 0.72632 0.67648 0.0
H3130 H -0.00536 0.69507 0.69851 0.0
H3131 H 0.01573 0.6994 0.70341 0.0
H3132 H 0.9827 0.6899 0.67966 0.0
H3133 H 0.98369 0.72173 0.70759 0.0
H3134 H 0.99006 0.74151 0.71586 0.0
H3135 H 0.97663 0.75796 0.68505 0.0
H3136 H 0.97031 0.73827 0.67653 0.0
H3137 H 0.91648 0.70215 0.68968 0.0
H3138 H 0.93773 0.7068 0.69359 0.0
H3139 H 0.94598 0.69301 0.65922 0.0
H3140 H 0.92472 0.6879 0.65546 0.0
H3141 H 0.95466 0.72062 0.68453 0.0
H3142 H 0.97204 0.68083 0.65989 0.0
H3143 H 0.96514 0.66014 0.65459 0.0
H3144 H 0.94087 0.65798 0.68404 0.0
H3145 H 0.94773 0.67859 0.6896 0.0
C3146 C 0.01258 0.72306 0.68542 0.0
C3147 C 0.01822 0.71557 0.69304 0.0
C3148 C 0.00057 0.72046 0.68245 0.0
C3149 C -0.00612 0.71046 0.68726 0.0
C3150 C -0.00041 0.70284 0.69468 0.0
C3151 C 0.01165 0.70533 0.6975 0.0
C3152 C 0.98093 0.70798 0.6847 0.0
C3153 C 0.97658 0.69663 0.68071 0.0
C3154 C 0.97286 0.71667 0.68628 0.0
C3155 C 0.97664 0.72853 0.69137 0.0
C3156 C 0.98217 0.72957 0.70254 0.0
C3157 C 0.98576 0.74076 0.70728 0.0
C3158 C 0.98378 0.75098 0.70097 0.0
C3159 C 0.97817 0.75003 0.68992 0.0
C3160 C 0.97458 0.73886 0.68513 0.0
C3161 C 0.92282 0.70013 0.68293 0.0
C3162 C 0.91893 0.69457 0.67229 0.0
C3163 C 0.93498 0.70282 0.68517 0.0
C3164 C 0.9435 0.7001 0.67678 0.0
C3165 C 0.93961 0.69494 0.66595 0.0
C3166 C 0.92745 0.69208 0.66379 0.0
C3167 C 0.95643 0.70254 0.67946 0.0
C3168 C 0.96078 0.7139 0.68344 0.0
C3169 C 0.96443 0.69373 0.67828 0.0
C3170 C 0.96031 0.68129 0.67507 0.0
C3171 C 0.96525 0.67592 0.66525 0.0
C3172 C 0.96135 0.66421 0.6622 0.0
C3173 C 0.95254 0.65777 0.66895 0.0
C3174 C 0.94765 0.663 0.67879 0.0
C3175 C 0.95154 0.6747 0.68189 0.0
H3176 H 0.94952 0.64871 0.66657 0.0
H3177 H 0.98656 0.75964 0.70465 0.0
H3178 H 0.2827 0.94555 0.69044 0.0
H3179 H 0.28073 0.96684 0.69054 0.0
H3180 H 0.31014 0.97259 0.66605 0.0
H3181 H 0.31228 0.95133 0.66602 0.0
H3182 H 0.31225 0.98853 0.68366 0.0
H3183 H 0.28136 0.97347 0.6568 0.0
H3184 H 0.2636 0.96055 0.65042 0.0
H3185 H 0.24313 0.97409 0.67853 0.0
H3186 H 0.26081 0.98698 0.68518 0.0
H3187 H 0.30415 0.04766 0.66775 0.0
H3188 H 0.30558 0.02629 0.66709 0.0
H3189 H 0.27634 0.02065 0.69179 0.0
H3190 H 0.27474 0.04201 0.69238 0.0
H3191 H 0.27407 0.00466 0.67405 0.0
H3192 H 0.30491 0.01958 0.70099 0.0
H3193 H 0.32264 0.0325 0.70746 0.0
H3194 H 0.34318 0.01916 0.67929 0.0
H3195 H 0.32552 0.00627 0.67255 0.0
C3196 C 0.28874 0.95134 0.68505 0.0
C3197 C 0.29763 0.94673 0.6782 0.0
C3198 C 0.28757 0.9635 0.68509 0.0
C3199 C 0.2952 0.9713 0.6782 0.0
C3200 C 0.30414 0.96674 0.67141 0.0
C3201 C 0.30533 0.95458 0.67139 0.0
C3202 C 0.29401 0.98424 0.67822 0.0
C3203 C 0.30395 -0.00794 0.68139 0.0
C3204 C 0.2831 0.98884 0.67555 0.0
C3205 C 0.27244 0.98111 0.67155 0.0
C3206 C 0.27309 0.97362 0.66168 0.0
C3207 C 0.26304 0.96632 0.658 0.0
C3208 C 0.25225 0.96647 0.66408 0.0
C3209 C 0.25149 0.97396 0.67383 0.0
C3210 C 0.26153 0.98128 0.67755 0.0
C3211 C 0.298 0.04188 0.67302 0.0
C3212 C 0.28936 0.04655 0.68015 0.0
C3213 C 0.29886 0.02966 0.67267 0.0
C3214 C 0.29117 0.02188 0.67951 0.0
C3215 C 0.28239 0.02649 0.68646 0.0
C3216 C 0.28151 0.03871 0.68681 0.0
C3217 C 0.29232 0.00894 0.67946 0.0
C3218 C 0.28237 0.00111 0.6763 0.0
C3219 C 0.30322 0.00433 0.68215 0.0
C3220 C 0.31386 0.01205 0.6862 0.0
C3221 C 0.31318 0.01947 0.69612 0.0
C3222 C 0.32322 0.02677 0.69985 0.0
C3223 C 0.33402 0.02667 0.69377 0.0
C3224 C 0.33481 0.01924 0.68398 0.0
C3225 C 0.32479 0.01193 0.68021 0.0
H3226 H 0.34178 0.03233 0.69667 0.0
H3227 H 0.24448 0.96081 0.66122 0.0
H3228 H 0.94047 0.29456 0.69505 0.0
H3229 H 0.96107 0.29051 0.69863 0.0
H3230 H 0.97276 0.31261 0.6689 0.0
H3231 H 0.95217 0.31665 0.66521 0.0
H3232 H 0.98258 0.29155 0.66872 0.0
H3233 H 0.97748 0.32264 0.69673 0.0
H3234 H 0.96765 0.33232 0.71309 0.0
H3235 H 0.9733 0.30327 0.73614 0.0
H3236 H 0.98302 0.29334 0.71986 0.0
H3237 H 0.04477 0.29705 0.67983 0.0
H3238 H 0.02407 0.30081 0.67651 0.0
H3239 H 0.01331 0.28036 0.70763 0.0
H3240 H 0.03405 0.27676 0.71116 0.0
H3241 H 0.00284 0.30029 0.70721 0.0
H3242 H 0.00796 0.26916 0.67957 0.0
H3243 H 0.01758 0.25911 0.66331 0.0
H3244 H 0.01164 0.28764 0.63971 0.0
H3245 H 0.00212 0.29794 0.65588 0.0
C3246 C 0.94742 0.29859 0.68929 0.0
C3247 C 0.94468 0.30595 0.67986 0.0
C3248 C 0.9592 0.2963 0.69138 0.0
C3249 C 0.96846 0.30133 0.68409 0.0
C3250 C 0.96574 0.30864 0.67464 0.0
C3251 C 0.95398 0.31097 0.67257 0.0
C3252 C 0.98095 0.29884 0.6862 0.0
C3253 C 0.98708 0.2936 0.67708 0.0
C3254 C 0.98668 0.30122 0.69722 0.0
C3255 C 0.98087 0.30719 0.70704 0.0
C3256 C 0.97654 0.31827 0.70526 0.0
C3257 C 0.971 0.32381 0.71453 0.0
C3258 C 0.96982 0.3184 0.72564 0.0
C3259 C 0.9742 0.30745 0.72752 0.0
C3260 C 0.97974 0.30186 0.71828 0.0
C3261 C 0.038 0.29331 0.68595 0.0
C3262 C 0.04106 0.28658 0.69575 0.0
C3263 C 0.02615 0.29543 0.68401 0.0
C3264 C 0.0171 0.29075 0.69174 0.0
C3265 C 0.02014 0.28406 0.70154 0.0
C3266 C 0.032 0.28198 0.70353 0.0
C3267 C 0.00451 0.29302 0.68971 0.0
C3268 C -0.00164 0.29822 0.69885 0.0
C3269 C -0.00127 0.29054 0.67872 0.0
C3270 C 0.00444 0.28437 0.66897 0.0
C3271 C 0.00879 0.27334 0.67094 0.0
C3272 C 0.01421 0.26759 0.66173 0.0
C3273 C 0.01525 0.27275 0.65049 0.0
C3274 C 0.01084 0.28366 0.64843 0.0
C3275 C 0.00543 0.28945 0.65761 0.0
H3276 H 0.01944 0.26829 0.64337 0.0
H3277 H 0.96554 0.3227 0.73281 0.0
H3278 H 0.68594 0.95635 0.68383 0.0
H3279 H 0.68412 0.97731 0.67988 0.0
H3280 H 0.71451 0.98717 0.70225 0.0
H3281 H 0.71642 0.96622 0.70625 0.0
H3282 H 0.69529 -0.00014 0.70713 0.0
H3283 H 0.71775 0.98946 0.6732 0.0
H3284 H 0.72202 0.97757 0.65568 0.0
H3285 H 0.68934 0.9857 0.63953 0.0
H3286 H 0.68479 -0.0025 0.65703 0.0
H3287 H 0.70248 0.06086 0.69197 0.0
H3288 H 0.70563 0.04012 0.69536 0.0
H3289 H 0.67815 0.02918 0.66991 0.0
H3290 H 0.67519 0.04994 0.66622 0.0
H3291 H 0.69643 0.017 0.66665 0.0
H3292 H 0.67344 0.02677 0.70041 0.0
H3293 H 0.66854 0.0383 0.71798 0.0
H3294 H 0.70131 0.03099 0.73452 0.0
H3295 H 0.70648 0.01955 0.71698 0.0
C3296 C 0.69228 0.96297 0.68786 0.0
C3297 C 0.70133 0.95963 0.69534 0.0
C3298 C 0.69125 0.97494 0.68556 0.0
C3299 C 0.69922 0.98378 0.69073 0.0
C3300 C 0.70828 0.98047 0.69818 0.0
C3301 C 0.70938 0.9685 0.70041 0.0
C3302 C 0.6979 -0.00352 0.68859 0.0
C3303 C 0.69572 0.00367 0.6983 0.0
C3304 C 0.69814 0.00133 0.67704 0.0
C3305 C 0.70088 -0.00573 0.66648 0.0
C3306 C 0.71143 0.98863 0.66596 0.0
C3307 C 0.71391 0.98192 0.65602 0.0
C3308 C 0.70594 0.98086 0.64651 0.0
C3309 C 0.69549 0.98652 0.6469 0.0
C3310 C 0.69296 -0.00677 0.65683 0.0
C3311 C 0.69708 0.05404 0.68711 0.0
C3312 C 0.68855 0.05704 0.67885 0.0
C3313 C 0.69886 0.04218 0.6891 0.0
C3314 C 0.69201 0.03306 0.68302 0.0
C3315 C 0.68353 0.03605 0.67472 0.0
C3316 C 0.68183 0.04792 0.67264 0.0
C3317 C 0.69376 0.02043 0.6852 0.0
C3318 C 0.69602 0.01322 0.67549 0.0
C3319 C 0.69349 0.01554 0.69676 0.0
C3320 C 0.6904 0.02241 0.70733 0.0
C3321 C 0.67964 0.0277 0.70776 0.0
C3322 C 0.67681 0.0342 0.71772 0.0
C3323 C 0.68462 0.0354 0.72735 0.0
C3324 C 0.69527 0.03007 0.72705 0.0
C3325 C 0.69816 0.02357 0.7171 0.0
H3326 H 0.68241 0.04044 0.73505 0.0
H3327 H 0.70788 0.97566 0.63882 0.0
H3328 H 0.31407 0.32167 0.94116 0.0
H3329 H 0.31456 0.32168 0.96281 0.0
H3330 H 0.2819 0.29834 0.96363 0.0
H3331 H 0.28128 0.29834 0.94195 0.0
H3332 H 0.28164 0.31643 0.97958 0.0
H3333 H 0.30803 0.28747 0.96883 0.0
H3334 H 0.32497 0.27995 0.9584 0.0
H3335 H 0.34913 0.30648 0.97527 0.0
H3336 H 0.3323 0.31428 0.98568 0.0
H3337 H 0.28404 0.29992 0.04013 0.0
H3338 H 0.28325 0.29967 0.01849 0.0
H3339 H 0.3169 0.32143 0.01704 0.0
H3340 H 0.31787 0.32152 0.03868 0.0
H3341 H 0.31652 0.30395 0.00133 0.0
H3342 H 0.29028 0.33309 0.01195 0.0
H3343 H 0.27341 0.34084 0.0223 0.0
H3344 H 0.24907 0.31431 0.00566 0.0
H3345 H 0.26582 0.3063 -0.00467 0.0
C3346 C 0.30698 0.31655 0.94593 0.0
C3347 C 0.29765 0.30997 0.93983 0.0
C3348 C 0.3073 0.31653 0.95831 0.0
C3349 C 0.29833 0.30991 0.96482 0.0
C3350 C 0.28892 0.30349 0.95877 0.0
C3351 C 0.2886 0.30347 0.94638 0.0
C3352 C 0.29877 0.30972 0.97796 0.0
C3353 C 0.28919 0.31355 0.98435 0.0
C3354 C 0.30875 0.30622 0.98416 0.0
C3355 C 0.31889 0.30153 0.97794 0.0
C3356 C 0.31694 0.29177 0.97024 0.0
C3357 C 0.32653 0.28744 0.96435 0.0
C3358 C 0.33812 0.29276 0.96615 0.0
C3359 C 0.34015 0.30239 0.97387 0.0
C3360 C 0.33059 0.30676 0.97978 0.0
C3361 C 0.29127 0.30466 0.03521 0.0
C3362 C 0.301 0.31078 0.04113 0.0
C3363 C 0.29078 0.30455 0.02283 0.0
C3364 C 0.29994 0.31066 0.01613 0.0
C3365 C 0.30972 0.31667 0.02202 0.0
C3366 C 0.31025 0.31674 0.0344 0.0
C3367 C 0.29939 0.31071 0.00298 0.0
C3368 C 0.30896 0.30684 -0.00342 0.0
C3369 C 0.28941 0.31421 -0.00323 0.0
C3370 C 0.27932 0.31902 0.00296 0.0
C3371 C 0.28134 0.32885 0.01057 0.0
C3372 C 0.2718 0.3333 0.01642 0.0
C3373 C 0.26018 0.32805 0.01466 0.0
C3374 C 0.25807 0.31836 0.00703 0.0
C3375 C 0.26759 0.31386 0.00116 0.0
H3376 H 0.2528 0.33151 0.0192 0.0
H3377 H 0.34552 0.28939 0.96158 0.0
H3378 H 0.30466 0.6696 0.93758 0.0
H3379 H 0.30148 0.67123 0.95892 0.0
H3380 H 0.33854 0.68423 0.96349 0.0
H3381 H 0.34187 0.68195 0.94225 0.0
H3382 H 0.33305 0.67038 0.98032 0.0
H3383 H 0.31454 0.70277 0.96415 0.0
H3384 H 0.30115 0.71285 0.95116 0.0
H3385 H 0.27076 0.69236 0.96628 0.0
H3386 H 0.28398 0.68204 0.97926 0.0
H3387 H 0.30577 0.70193 0.03456 0.0
H3388 H 0.3096 0.70056 0.01332 0.0
H3389 H 0.31341 0.66321 0.01712 0.0
H3390 H 0.31025 0.66472 0.03848 0.0
H3391 H 0.29908 0.69019 -0.00388 0.0
H3392 H 0.3317 0.65355 -0.00319 0.0
H3393 H 0.34709 0.64654 0.00985 0.0
H3394 H 0.35294 0.68105 0.02578 0.0
H3395 H 0.3377 0.6883 0.01274 0.0
C3396 C 0.31212 0.6728 0.94315 0.0
C3397 C 0.32351 0.67568 0.93826 0.0
C3398 C 0.31029 0.6738 0.95535 0.0
C3399 C 0.31972 0.67807 0.96285 0.0
C3400 C 0.33111 0.6809 0.95794 0.0
C3401 C 0.333 0.67963 0.94579 0.0
C3402 C 0.31777 0.67947 0.97581 0.0
C3403 C 0.32563 0.67473 0.98376 0.0
C3404 C 0.30825 0.68537 0.98038 0.0
C3405 C 0.30026 0.69156 0.9726 0.0
C3406 C 0.305 0.70035 0.96465 0.0
C3407 C 0.29745 0.70612 0.95729 0.0
C3408 C 0.28511 0.70322 0.95787 0.0
C3409 C 0.28031 0.69458 0.96583 0.0
C3410 C 0.28783 0.68878 0.9732 0.0
C3411 C 0.30747 0.69343 0.03086 0.0
C3412 C 0.3078 0.68345 0.03818 0.0
C3413 C 0.30963 0.69265 0.01871 0.0
C3414 C 0.31198 0.68182 0.01358 0.0
C3415 C 0.31196 0.67175 0.02086 0.0
C3416 C 0.31008 0.6726 0.03307 0.0
C3417 C 0.31435 0.68107 0.00063 0.0
C3418 C 0.30653 0.68587 -0.00731 0.0
C3419 C 0.32421 0.67568 -0.00393 0.0
C3420 C 0.33347 0.67142 0.00388 0.0
C3421 C 0.3363 0.65965 0.00307 0.0
C3422 C 0.34499 0.65563 0.01047 0.0
C3423 C 0.35096 0.66333 0.01867 0.0
C3424 C 0.34828 0.67508 0.01946 0.0
C3425 C 0.3396 0.67915 0.01208 0.0
H3426 H 0.35768 0.6602 0.02439 0.0
H3427 H 0.27928 0.7077 0.95218 0.0
H3428 H 0.70383 0.26712 0.04478 0.0
H3429 H 0.70167 0.26872 0.02331 0.0
H3430 H 0.67453 0.29255 0.02823 0.0
H3431 H 0.67646 0.29081 0.04971 0.0
H3432 H 0.66809 0.27681 0.01139 0.0
H3433 H 0.70323 0.3028 0.02031 0.0
H3434 H 0.7232 0.30833 0.02872 0.0
H3435 H 0.73769 0.28219 0.00694 0.0
H3436 H 0.71776 0.2764 -0.00149 0.0
H3437 H 0.66849 0.30102 0.95326 0.0
H3438 H 0.67034 0.29835 0.97465 0.0
H3439 H 0.69573 0.2729 0.96878 0.0
H3440 H 0.69397 0.27554 0.94735 0.0
H3441 H 0.70311 0.28906 0.98597 0.0
H3442 H 0.66782 0.26345 0.97675 0.0
H3443 H 0.64781 0.25825 0.96829 0.0
H3444 H 0.63357 0.28411 0.9906 0.0
H3445 H 0.65354 0.28959 -0.00092 0.0
C3446 C 0.69739 0.27269 0.0413 0.0
C3447 C 0.69035 0.27887 0.04896 0.0
C3448 C 0.6962 0.27364 0.02902 0.0
C3449 C 0.68805 0.28088 0.02415 0.0
C3450 C 0.68089 0.28692 0.03178 0.0
C3451 C 0.68203 0.28594 0.04406 0.0
C3452 C 0.68697 0.28217 0.01111 0.0
C3453 C 0.67572 0.27964 0.00585 0.0
C3454 C 0.69698 0.2856 0.00384 0.0
C3455 C 0.70898 0.28909 0.00887 0.0
C3456 C 0.71065 0.29817 0.01739 0.0
C3457 C 0.72197 0.30136 0.02214 0.0
C3458 C 0.7317 0.29559 0.01839 0.0
C3459 C 0.73014 0.28664 0.00985 0.0
C3460 C 0.71884 0.28341 0.00507 0.0
C3461 C 0.67446 0.29484 0.95651 0.0
C3462 C 0.68107 0.28847 0.9486 0.0
C3463 C 0.67547 0.29329 0.96874 0.0
C3464 C 0.6831 0.28535 0.9733 0.0
C3465 C 0.68978 0.27905 0.96544 0.0
C3466 C 0.68873 0.28055 0.9532 0.0
C3467 C 0.68422 0.28374 0.98628 0.0
C3468 C 0.69548 0.28621 0.99151 0.0
C3469 C 0.67422 0.2803 -0.00647 0.0
C3470 C 0.6622 0.27701 0.98846 0.0
C3471 C 0.66044 0.2681 0.97978 0.0
C3472 C 0.6491 0.26509 0.975 0.0
C3473 C 0.63943 0.27087 0.97889 0.0
C3474 C 0.64107 0.27965 0.98759 0.0
C3475 C 0.6524 0.28271 -0.00761 0.0
H3476 H 0.63066 0.26852 0.97517 0.0
H3477 H 0.74046 0.29808 0.02208 0.0
H3478 H 0.69878 0.68618 0.03155 0.0
H3479 H 0.69586 0.68201 0.01043 0.0
H3480 H 0.72913 0.70273 0.00255 0.0
H3481 H 0.73218 0.70689 0.02369 0.0
H3482 H 0.71 0.70816 0.98819 0.0
H3483 H 0.72844 0.67395 0.00109 0.0
H3484 H 0.73073 0.65661 0.01376 0.0
H3485 H 0.69596 0.64104 0.00344 0.0
H3486 H 0.69339 0.65838 0.99082 0.0
H3487 H 0.7133 0.69184 0.92777 0.0
H3488 H 0.7176 0.69552 0.94874 0.0
H3489 H 0.68783 0.67035 0.95829 0.0
H3490 H 0.68375 0.66633 0.93733 0.0
H3491 H 0.7058 0.66727 0.97193 0.0
H3492 H 0.68666 0.70118 0.95973 0.0
H3493 H 0.6835 0.7186 0.94747 0.0
H3494 H 0.71829 0.73484 0.95685 0.0
H3495 H 0.72172 0.71745 0.96904 0.0
C3496 C 0.7055 0.68981 0.02533 0.0
C3497 C 0.71572 0.69685 0.02929 0.0
C3498 C 0.70384 0.68739 0.01328 0.0
C3499 C 0.71232 0.69202 0.00496 0.0
C3500 C 0.7225 0.69908 0.00885 0.0
C3501 C 0.72424 0.70141 0.02093 0.0
C3502 C 0.71043 0.68964 -0.00784 0.0
C3503 C 0.70925 0.69924 0.98457 0.0
C3504 C 0.70913 0.67797 0.98756 0.0
C3505 C 0.71068 0.66751 -0.0049 0.0
C3506 C 0.72124 0.66687 0.0016 0.0
C3507 C 0.72259 0.65703 0.00875 0.0
C3508 C 0.71348 0.64774 0.00943 0.0
C3509 C 0.70301 0.64825 0.00292 0.0
C3510 C 0.7016 0.65808 -0.00425 0.0
C3511 C 0.70767 0.68709 0.93434 0.0
C3512 C 0.69816 0.67883 0.9309 0.0
C3513 C 0.7101 0.68925 0.94633 0.0
C3514 C 0.70293 0.68336 0.95511 0.0
C3515 C 0.69349 0.67502 0.95168 0.0
C3516 C 0.69115 0.67275 0.9397 0.0
C3517 C 0.70529 0.6858 0.96788 0.0
C3518 C 0.70656 0.67621 0.97549 0.0
C3519 C 0.70654 0.69748 0.97253 0.0
C3520 C 0.7045 0.70795 0.9652 0.0
C3521 C 0.69368 0.70843 0.9591 0.0
C3522 C 0.69183 0.7183 0.95218 0.0
C3523 C 0.7007 0.72781 0.95135 0.0
C3524 C 0.71143 0.72747 0.95748 0.0
C3525 C 0.71333 0.71761 0.9644 0.0
H3526 H 0.69925 0.73544 0.94599 0.0
H3527 H 0.71455 0.64013 0.01497 0.0
H3528 H 0.44508 0.8189 0.80858 0.0
H3529 H 0.46562 0.81451 0.80531 0.0
H3530 H 0.45355 0.7886 0.77881 0.0
H3531 H 0.43295 0.79287 0.7821 0.0
H3532 H 0.46918 0.78006 0.79396 0.0
H3533 H 0.46749 0.81522 0.7707 0.0
H3534 H 0.46357 0.83589 0.76683 0.0
H3535 H 0.48919 0.84818 0.79335 0.0
H3536 H 0.49315 0.82756 0.79749 0.0
H3537 H 0.52639 0.77141 0.77126 0.0
H3538 H 0.50583 0.77628 0.77316 0.0
H3539 H 0.517 0.80313 0.79906 0.0
H3540 H 0.53762 0.79846 0.79705 0.0
H3541 H 0.50171 0.81117 0.78368 0.0
H3542 H 0.50304 0.7761 0.80736 0.0
H3543 H 0.50691 0.75546 0.81144 0.0
H3544 H 0.48192 0.74302 0.78441 0.0
H3545 H 0.47801 0.76362 0.78005 0.0
C3546 C 0.44679 0.8123 0.80202 0.0
C3547 C 0.43738 0.80625 0.79559 0.0
C3548 C 0.45855 0.80983 0.80013 0.0
C3549 C 0.46113 0.80131 0.79173 0.0
C3550 C 0.45176 0.79523 0.78532 0.0
C3551 C 0.44 0.7977 0.78719 0.0
C3552 C 0.47359 0.79854 0.78985 0.0
C3553 C 0.47626 0.78682 0.79154 0.0
C3554 C 0.48288 0.80742 0.78697 0.0
C3555 C 0.48053 0.81983 0.78448 0.0
C3556 C 0.47222 0.82232 0.77577 0.0
C3557 C 0.47 0.83403 0.77352 0.0
C3558 C 0.4761 0.84334 0.77986 0.0
C3559 C 0.48446 0.84096 0.78845 0.0
C3560 C 0.4867 0.82926 0.79075 0.0
C3561 C 0.52448 0.77836 0.77735 0.0
C3562 C 0.53364 0.78451 0.78404 0.0
C3563 C 0.51271 0.78111 0.77846 0.0
C3564 C 0.50985 0.78997 0.78636 0.0
C3565 C 0.519 0.79625 0.79292 0.0
C3566 C 0.53078 0.79354 0.79178 0.0
C3567 C 0.49731 0.79269 0.78783 0.0
C3568 C 0.49462 0.80439 0.78608 0.0
C3569 C 0.48801 0.7838 0.79068 0.0
C3570 C 0.49033 0.77141 0.7933 0.0
C3571 C 0.49844 0.76897 0.80222 0.0
C3572 C 0.50063 0.75728 0.80459 0.0
C3573 C 0.49469 0.74794 0.79817 0.0
C3574 C 0.48653 0.75027 0.78937 0.0
C3575 C 0.48431 0.76195 0.78695 0.0
H3576 H 0.49639 0.73889 0.80002 0.0
H3577 H 0.47437 0.8524 0.7781 0.0
H3578 H 0.17018 0.4453 0.81647 0.0
H3579 H 0.1726 0.46673 0.81316 0.0
H3580 H 0.19601 0.46196 0.78367 0.0
H3581 H 0.19367 0.4405 0.78693 0.0
H3582 H 0.20498 0.47978 0.7986 0.0
H3583 H 0.16818 0.46825 0.7785 0.0
H3584 H 0.1477 0.45856 0.77643 0.0
H3585 H 0.1359 0.48028 0.80441 0.0
H3586 H 0.15636 0.48998 0.80676 0.0
H3587 H 0.20708 0.53871 0.77699 0.0
H3588 H 0.20403 0.51711 0.7786 0.0
H3589 H 0.17845 0.52017 0.80661 0.0
H3590 H 0.18125 0.54177 0.80488 0.0
H3591 H 0.17059 0.50303 0.79173 0.0
H3592 H 0.20725 0.51405 0.81244 0.0
H3593 H 0.22771 0.52366 0.81494 0.0
H3594 H 0.23977 0.50285 0.78636 0.0
H3595 H 0.21933 0.49323 0.78359 0.0
C3596 C 0.17582 0.4488 0.80926 0.0
C3597 C 0.18172 0.44119 0.80196 0.0
C3598 C 0.17715 0.46104 0.80735 0.0
C3599 C 0.1844 0.46592 0.79811 0.0
C3600 C 0.19035 0.45837 0.79084 0.0
C3601 C 0.18898 0.44611 0.7927 0.0
C3602 C 0.18597 0.47894 0.79619 0.0
C3603 C 0.19749 0.48485 0.79691 0.0
C3604 C 0.17615 0.48557 0.79428 0.0
C3605 C 0.16383 0.47976 0.79288 0.0
C3606 C 0.16124 0.47089 0.78428 0.0
C3607 C 0.14963 0.46541 0.78305 0.0
C3608 C 0.14051 0.46878 0.79031 0.0
C3609 C 0.14298 0.47767 0.7988 0.0
C3610 C 0.15458 0.48317 0.80008 0.0
C3611 C 0.20078 0.53479 0.78348 0.0
C3612 C 0.19445 0.54196 0.79085 0.0
C3613 C 0.19909 0.52243 0.78442 0.0
C3614 C 0.19113 0.51701 0.79284 0.0
C3615 C 0.18464 0.52415 0.80006 0.0
C3616 C 0.18628 0.53651 0.79908 0.0
C3617 C 0.18962 0.50391 0.79419 0.0
C3618 C 0.1781 0.49796 0.79337 0.0
C3619 C 0.19944 0.49725 0.79607 0.0
C3620 C 0.21174 0.50301 0.79773 0.0
C3621 C 0.21424 0.51159 0.80663 0.0
C3622 C 0.22584 0.51703 0.8081 0.0
C3623 C 0.23503 0.51389 0.80079 0.0
C3624 C 0.23264 0.50528 0.792 0.0
C3625 C 0.22105 0.49983 0.79048 0.0
H3626 H 0.244 0.5181 0.80194 0.0
H3627 H 0.13153 0.46453 0.78934 0.0
H3628 H 0.53211 0.1822 0.78997 0.0
H3629 H 0.51053 0.183 0.789 0.0
H3630 H 0.50582 0.15933 0.81892 0.0
H3631 H 0.52737 0.15837 0.81988 0.0
H3632 H 0.48955 0.1533 0.80172 0.0
H3633 H 0.5045 0.18883 0.82245 0.0
H3634 H 0.51726 0.20761 0.82525 0.0
H3635 H 0.50255 0.22186 0.7939 0.0
H3636 H 0.48981 0.2031 0.79082 0.0
H3637 H 0.43078 0.1632 0.81862 0.0
H3638 H 0.45226 0.16181 0.81797 0.0
H3639 H 0.45554 0.18631 0.78863 0.0
H3640 H 0.43406 0.18789 0.78933 0.0
H3641 H 0.47256 0.19193 0.80476 0.0
H3642 H 0.45715 0.15671 0.78427 0.0
H3643 H 0.4444 0.13794 0.78136 0.0
H3644 H 0.45992 0.1231 0.81198 0.0
H3645 H 0.47265 0.14184 0.81517 0.0
C3646 C 0.52648 0.17713 0.79633 0.0
C3647 C 0.53147 0.17026 0.80504 0.0
C3648 C 0.51415 0.17763 0.79578 0.0
C3649 C 0.50658 0.17133 0.80398 0.0
C3650 C 0.5115 0.16427 0.81253 0.0
C3651 C 0.52383 0.16377 0.81308 0.0
C3652 C 0.49352 0.17218 0.80373 0.0
C3653 C 0.48582 0.16173 0.80252 0.0
C3654 C 0.48868 0.18321 0.80448 0.0
C3655 C 0.4963 0.19451 0.80634 0.0
C3656 C 0.50406 0.19593 0.8161 0.0
C3657 C 0.51127 0.20658 0.81775 0.0
C3658 C 0.51074 0.21591 0.80974 0.0
C3659 C 0.50296 0.21462 0.80008 0.0
C3660 C 0.49574 0.20399 0.79839 0.0
C3661 C 0.43605 0.16827 0.812 0.0
C3662 C 0.4307 0.17564 0.80401 0.0
C3663 C 0.44833 0.16743 0.81161 0.0
C3664 C 0.45549 0.17385 0.80316 0.0
C3665 C 0.45018 0.18126 0.79521 0.0
C3666 C 0.4379 0.18212 0.79561 0.0
C3667 C 0.46856 0.17303 0.80279 0.0
C3668 C 0.47627 0.1835 0.8039 0.0
C3669 C 0.47341 0.16201 0.80193 0.0
C3670 C 0.46578 0.15072 0.80002 0.0
C3671 C 0.45777 0.14947 0.79044 0.0
C3672 C 0.45056 0.13884 0.78873 0.0
C3673 C 0.45132 0.12935 0.7965 0.0
C3674 C 0.45933 0.13046 0.80598 0.0
C3675 C 0.46655 0.14109 0.80774 0.0
H3676 H 0.44573 0.12112 0.79516 0.0
H3677 H 0.51633 0.22415 0.81103 0.0
H3678 H 0.81853 0.53738 0.80713 0.0
H3679 H 0.81879 0.51587 0.80819 0.0
H3680 H 0.7888 0.51124 0.78434 0.0
H3681 H 0.78835 0.53275 0.78337 0.0
H3682 H 0.78601 0.4959 0.80247 0.0
H3683 H 0.81694 0.50816 0.77458 0.0
H3684 H 0.83518 0.51984 0.76743 0.0
H3685 H 0.85534 0.50601 0.79557 0.0
H3686 H 0.83718 0.49436 0.80299 0.0
H3687 H 0.79053 0.43552 0.78779 0.0
H3688 H 0.79006 0.45702 0.78687 0.0
H3689 H 0.81979 0.46176 0.81103 0.0
H3690 H 0.82043 0.44027 0.81189 0.0
H3691 H 0.82267 0.47704 0.7927 0.0
H3692 H 0.79163 0.46473 0.82053 0.0
H3693 H 0.77334 0.45305 0.82758 0.0
H3694 H 0.75334 0.46696 0.79936 0.0
H3695 H 0.77155 0.4786 0.79204 0.0
C3696 C 0.81197 0.5318 0.80212 0.0
C3697 C 0.80344 0.53679 0.79513 0.0
C3698 C 0.81217 0.5195 0.80269 0.0
C3699 C 0.80391 0.51195 0.79622 0.0
C3700 C 0.79527 0.5169 0.78938 0.0
C3701 C 0.79505 0.5292 0.78882 0.0
C3702 C 0.80426 0.4989 0.79662 0.0
C3703 C 0.79398 0.49176 0.80018 0.0
C3704 C 0.81473 0.49352 0.79387 0.0
C3705 C 0.82567 0.50048 0.78941 0.0
C3706 C 0.82524 0.50768 0.7793 0.0
C3707 C 0.83557 0.51428 0.77519 0.0
C3708 C 0.8464 0.51369 0.78106 0.0
C3709 C 0.84694 0.50647 0.79104 0.0
C3710 C 0.83663 0.49986 0.7952 0.0
C3711 C 0.79697 0.44113 0.79291 0.0
C3712 C 0.8055 0.43618 0.79994 0.0
C3713 C 0.79666 0.45342 0.79241 0.0
C3714 C 0.8048 0.46099 0.79898 0.0
C3715 C 0.81341 0.45608 0.8059 0.0
C3716 C 0.81373 0.44379 0.80641 0.0
C3717 C 0.80443 0.47404 0.79856 0.0
C3718 C 0.81471 0.48118 0.79499 0.0
C3719 C 0.79395 0.47942 0.80127 0.0
C3720 C 0.78298 0.47244 0.80567 0.0
C3721 C 0.78335 0.46522 0.81577 0.0
C3722 C 0.773 0.45862 0.81982 0.0
C3723 C 0.7622 0.45924 0.8139 0.0
C3724 C 0.76172 0.46648 0.80393 0.0
C3725 C 0.77205 0.47308 0.79983 0.0
H3726 H 0.75419 0.45413 0.81705 0.0
H3727 H 0.85439 0.51881 0.77786 0.0
H3728 H 0.42482 0.18298 0.15805 0.0
H3729 H 0.44584 0.18856 0.16268 0.0
H3730 H 0.43601 0.19903 0.19785 0.0
H3731 H 0.415 0.19404 0.19304 0.0
H3732 H 0.45259 0.21396 0.19079 0.0
H3733 H 0.44751 0.17156 0.19137 0.0
H3734 H 0.4418 0.15143 0.18363 0.0
H3735 H 0.46688 0.15773 0.15512 0.0
H3736 H 0.47263 0.17796 0.16261 0.0
H3737 H 0.51411 0.19321 0.20898 0.0
H3738 H 0.49342 0.18858 0.20276 0.0
H3739 H 0.49452 0.22247 0.18511 0.0
H3740 H 0.51502 0.22738 0.19188 0.0
H3741 H 0.4823 0.18533 0.18344 0.0
H3742 H 0.4678 0.233 0.18531 0.0
H3743 H 0.47284 0.25172 0.19621 0.0
H3744 H 0.48575 0.23239 0.22542 0.0
H3745 H 0.48066 0.21356 0.21475 0.0
C3746 C 0.42716 0.18654 0.16674 0.0
C3747 C 0.41828 0.18804 0.1752 0.0
C3748 C 0.43918 0.18966 0.16941 0.0
C3749 C 0.44257 0.19402 0.18071 0.0
C3750 C 0.43366 0.1957 0.18908 0.0
C3751 C 0.42164 0.19282 0.18632 0.0
C3752 C 0.45536 0.1967 0.1839 0.0
C3753 C 0.45908 0.20769 0.18916 0.0
C3754 C 0.46384 0.18847 0.18202 0.0
C3755 C 0.4604 0.17631 0.17748 0.0
C3756 C 0.45174 0.16868 0.1834 0.0
C3757 C 0.44851 0.15725 0.17907 0.0
C3758 C 0.45395 0.15332 0.16887 0.0
C3759 C 0.46266 0.1608 0.163 0.0
C3760 C 0.46591 0.17224 0.16729 0.0
C3761 C 0.50994 0.19966 0.20375 0.0
C3762 C 0.51613 0.2107 0.20101 0.0
C3763 C 0.49811 0.19699 0.20017 0.0
C3764 C 0.49229 0.20524 0.19363 0.0
C3765 C 0.49867 0.21608 0.19043 0.0
C3766 C 0.51042 0.21885 0.19424 0.0
C3767 C 0.47952 0.20256 0.19036 0.0
C3768 C 0.47582 0.1916 0.18504 0.0
C3769 C 0.47096 0.21062 0.19264 0.0
C3770 C 0.47397 0.22189 0.19917 0.0
C3771 C 0.47168 0.23275 0.19407 0.0
C3772 C 0.47455 0.24338 0.2002 0.0
C3773 C 0.47965 0.24325 0.21148 0.0
C3774 C 0.48185 0.23248 0.21666 0.0
C3775 C 0.47898 0.22183 0.21057 0.0
H3776 H 0.48188 0.25148 0.21621 0.0
H3777 H 0.45144 0.14447 0.16553 0.0
H3778 H 0.79022 0.44107 0.19334 0.0
H3779 H 0.78805 0.46227 0.19474 0.0
H3780 H 0.81595 0.46956 0.1688 0.0
H3781 H 0.81832 0.44839 0.1675 0.0
H3782 H 0.81879 0.48487 0.18683 0.0
H3783 H 0.78651 0.47013 0.16141 0.0
H3784 H 0.7686 0.45709 0.15565 0.0
H3785 H 0.74964 0.46916 0.1856 0.0
H3786 H 0.76749 0.48215 0.19164 0.0
H3787 H 0.80823 0.54399 0.17299 0.0
H3788 H 0.81031 0.52275 0.17194 0.0
H3789 H 0.78287 0.51605 0.19845 0.0
H3790 H 0.78063 0.53728 0.19946 0.0
H3791 H 0.77972 0.50045 0.18034 0.0
H3792 H 0.81199 0.51532 0.20565 0.0
H3793 H 0.82989 0.5284 0.21134 0.0
H3794 H 0.84888 0.51612 0.1815 0.0
H3795 H 0.83103 0.50308 0.17554 0.0
C3796 C 0.7959 0.44718 0.18793 0.0
C3797 C 0.80442 0.44303 0.18028 0.0
C3798 C 0.79461 0.4593 0.1887 0.0
C3799 C 0.80174 0.4675 0.18176 0.0
C3800 C 0.81034 0.46339 0.17422 0.0
C3801 C 0.81166 0.45128 0.17347 0.0
C3802 C 0.8003 0.48037 0.18243 0.0
C3803 C 0.81028 0.48829 0.18525 0.0
C3804 C 0.78913 0.48482 0.18066 0.0
C3805 C 0.77838 0.47703 0.17704 0.0
C3806 C 0.77855 0.46993 0.16682 0.0
C3807 C 0.76841 0.46256 0.16349 0.0
C3808 C 0.758 0.46227 0.17027 0.0
C3809 C 0.75771 0.46938 0.18037 0.0
C3810 C 0.76784 0.47675 0.18374 0.0
C3811 C 0.80264 0.53801 0.1786 0.0
C3812 C 0.79429 0.54234 0.18633 0.0
C3813 C 0.80387 0.52587 0.17803 0.0
C3814 C 0.79684 0.51782 0.18521 0.0
C3815 C 0.7884 0.5221 0.19284 0.0
C3816 C 0.78716 0.53424 0.19343 0.0
C3817 C 0.79822 0.50494 0.18471 0.0
C3818 C 0.78823 0.49702 0.18192 0.0
C3819 C 0.80938 0.5005 0.1865 0.0
C3820 C 0.82014 0.50831 0.19008 0.0
C3821 C 0.81995 0.51548 0.20025 0.0
C3822 C 0.8301 0.52287 0.20353 0.0
C3823 C 0.84051 0.52311 0.19677 0.0
C3824 C 0.8408 0.51594 0.18672 0.0
C3825 C 0.83068 0.50853 0.18339 0.0
H3826 H 0.84835 0.52884 0.19933 0.0
H3827 H 0.75015 0.45656 0.16768 0.0
H3828 H 0.54372 0.79318 0.18337 0.0
H3829 H 0.52266 0.79606 0.18085 0.0
H3830 H 0.51369 0.77375 0.21116 0.0
H3831 H 0.53473 0.77074 0.21369 0.0
H3832 H 0.49837 0.76859 0.19277 0.0
H3833 H 0.51472 0.80343 0.2137 0.0
H3834 H 0.52881 0.82119 0.21713 0.0
H3835 H 0.51831 0.8361 0.18426 0.0
H3836 H 0.50427 0.81835 0.18055 0.0
H3837 H 0.43967 0.78401 0.20215 0.0
H3838 H 0.46069 0.78094 0.20448 0.0
H3839 H 0.46981 0.80463 0.17523 0.0
H3840 H 0.44882 0.80793 0.17299 0.0
H3841 H 0.48511 0.80905 0.19299 0.0
H3842 H 0.46879 0.7744 0.17195 0.0
H3843 H 0.45478 0.75662 0.16829 0.0
H3844 H 0.46529 0.74134 0.20097 0.0
H3845 H 0.47925 0.7591 0.20491 0.0
C3846 C 0.53727 0.78886 0.18949 0.0
C3847 C 0.54091 0.78177 0.19876 0.0
C3848 C 0.52524 0.79056 0.18806 0.0
C3849 C 0.51663 0.78523 0.1959 0.0
C3850 C 0.5202 0.77797 0.20503 0.0
C3851 C 0.53223 0.77628 0.20648 0.0
C3852 C 0.50389 0.78725 0.19459 0.0
C3853 C 0.49544 0.77742 0.19297 0.0
C3854 C 0.50012 0.7988 0.19457 0.0
C3855 C 0.50853 0.8095 0.1968 0.0
C3856 C 0.51548 0.81045 0.20716 0.0
C3857 C 0.52345 0.82053 0.20916 0.0
C3858 C 0.52447 0.82976 0.2009 0.0
C3859 C 0.51751 0.82894 0.19064 0.0
C3860 C 0.50954 0.81888 0.18859 0.0
C3861 C 0.44614 0.78858 0.19621 0.0
C3862 C 0.44256 0.79619 0.18736 0.0
C3863 C 0.45815 0.78676 0.19752 0.0
C3864 C 0.46681 0.79243 0.18993 0.0
C3865 C 0.46328 0.80015 0.18118 0.0
C3866 C 0.45127 0.802 0.17989 0.0
C3867 C 0.47956 0.79038 0.19116 0.0
C3868 C 0.48803 0.80021 0.19277 0.0
C3869 C 0.48335 0.77883 0.19114 0.0
C3870 C 0.47498 0.76813 0.18878 0.0
C3871 C 0.46804 0.76728 0.1784 0.0
C3872 C 0.46012 0.75721 0.17627 0.0
C3873 C 0.45912 0.74787 0.18441 0.0
C3874 C 0.46606 0.74858 0.19468 0.0
C3875 C 0.47399 0.75865 0.19687 0.0
H3876 H 0.45299 0.74008 0.18274 0.0
H3877 H 0.53064 0.83755 0.20247 0.0
H3878 H 0.19747 0.54338 0.19937 0.0
H3879 H 0.19745 0.52183 0.20053 0.0
H3880 H 0.16949 0.51757 0.17434 0.0
H3881 H 0.16935 0.5391 0.17322 0.0
H3882 H 0.16505 0.5023 0.1925 0.0
H3883 H 0.19823 0.51424 0.16693 0.0
H3884 H 0.21716 0.52564 0.16125 0.0
H3885 H 0.2347 0.51121 0.19089 0.0
H3886 H 0.21582 0.49984 0.19684 0.0
H3887 H 0.16929 0.44216 0.17718 0.0
H3888 H 0.1693 0.46373 0.17683 0.0
H3889 H 0.19745 0.46705 0.20286 0.0
H3890 H 0.19761 0.44548 0.20315 0.0
H3891 H 0.20189 0.48282 0.18524 0.0
H3892 H 0.1689 0.47065 0.21069 0.0
H3893 H 0.15002 0.45922 0.21647 0.0
H3894 H 0.13216 0.47406 0.18727 0.0
H3895 H 0.15099 0.48547 0.18121 0.0
C3896 C 0.19131 0.53786 0.19385 0.0
C3897 C 0.18343 0.54296 0.18617 0.0
C3898 C 0.19134 0.52555 0.1945 0.0
C3899 C 0.18356 0.51809 0.18742 0.0
C3900 C 0.17559 0.52315 0.17986 0.0
C3901 C 0.17554 0.53546 0.17921 0.0
C3902 C 0.18368 0.50502 0.18794 0.0
C3903 C 0.17307 0.49803 0.19076 0.0
C3904 C 0.19422 0.49946 0.18597 0.0
C3905 C 0.20558 0.50628 0.1824 0.0
C3906 C 0.2061 0.51357 0.17229 0.0
C3907 C 0.21683 0.52002 0.16901 0.0
C3908 C 0.22712 0.51918 0.17572 0.0
C3909 C 0.22672 0.51187 0.18571 0.0
C3910 C 0.21601 0.50541 0.18903 0.0
C3911 C 0.17547 0.44747 0.18285 0.0
C3912 C 0.18343 0.4421 0.19022 0.0
C3913 C 0.17543 0.4598 0.18268 0.0
C3914 C 0.18328 0.467 0.18992 0.0
C3915 C 0.1913 0.46167 0.19721 0.0
C3916 C 0.19135 0.44934 0.19739 0.0
C3917 C 0.18324 0.48009 0.18975 0.0
C3918 C 0.19387 0.48709 0.187 0.0
C3919 C 0.17273 0.48565 0.1918 0.0
C3920 C 0.16138 0.47883 0.19543 0.0
C3921 C 0.16097 0.47141 0.20544 0.0
C3922 C 0.15027 0.46495 0.20878 0.0
C3923 C 0.1399 0.46589 0.20222 0.0
C3924 C 0.1402 0.47333 0.19233 0.0
C3925 C 0.15088 0.4798 0.18895 0.0
H3926 H 0.13162 0.46089 0.20482 0.0
H3927 H 0.23542 0.52418 0.17317 0.0
H3928 H 0.77495 0.78956 0.44298 0.0
H3929 H 0.77301 0.78919 0.46455 0.0
H3930 H 0.80308 0.81577 0.46748 0.0
H3931 H 0.80517 0.81608 0.44591 0.0
H3932 H 0.80463 0.79817 0.48322 0.0
H3933 H 0.77469 0.82301 0.47124 0.0
H3934 H 0.75719 0.82822 0.46003 0.0
H3935 H 0.73576 0.79874 0.47553 0.0
H3936 H 0.75318 0.79325 0.48672 0.0
H3937 H 0.79683 0.81357 0.54343 0.0
H3938 H 0.79851 0.81415 0.52184 0.0
H3939 H 0.76827 0.78777 0.51899 0.0
H3940 H 0.76641 0.78727 0.54058 0.0
H3941 H 0.76676 0.80524 0.5032 0.0
H3942 H 0.7966 0.78034 0.51511 0.0
H3943 H 0.81407 0.77499 0.5263 0.0
H3944 H 0.83564 0.80443 0.51089 0.0
H3945 H 0.81826 0.81005 0.49973 0.0
C3946 C 0.78115 0.79534 0.44821 0.0
C3947 C 0.7902 0.80287 0.44272 0.0
C3948 C 0.77999 0.79515 0.46054 0.0
C3949 C 0.78782 0.80255 0.46763 0.0
C3950 C 0.79693 0.81 0.46218 0.0
C3951 C 0.79809 0.81019 0.44985 0.0
C3952 C 0.7866 0.80241 0.48073 0.0
C3953 C 0.7964 0.79988 0.4876 0.0
C3954 C 0.77577 0.80435 0.48643 0.0
C3955 C 0.76527 0.80765 0.47973 0.0
C3956 C 0.76627 0.81758 0.47219 0.0
C3957 C 0.75636 0.82059 0.46585 0.0
C3958 C 0.74538 0.81379 0.46704 0.0
C3959 C 0.74428 0.80398 0.4746 0.0
C3960 C 0.75416 0.80092 0.48095 0.0
C3961 C 0.79053 0.80789 0.53822 0.0
C3962 C 0.78151 0.80034 0.54373 0.0
C3963 C 0.79153 0.8082 0.52587 0.0
C3964 C 0.78361 0.80089 0.5188 0.0
C3965 C 0.7745 0.79347 0.52428 0.0
C3966 C 0.77347 0.79317 0.53662 0.0
C3967 C 0.7848 0.80102 0.5057 0.0
C3968 C 0.77499 0.80354 0.49883 0.0
C3969 C 0.79562 0.79905 0.49999 0.0
C3970 C 0.8061 0.79568 0.50668 0.0
C3971 C 0.80505 0.78573 0.51418 0.0
C3972 C 0.81494 0.78264 0.52051 0.0
C3973 C 0.82595 0.78939 0.51933 0.0
C3974 C 0.8271 0.79922 0.51181 0.0
C3975 C 0.81724 0.80236 0.50547 0.0
H3976 H 0.8336 0.78698 0.52424 0.0
H3977 H 0.73772 0.81614 0.46213 0.0
H3978 H 0.82523 0.17423 0.53548 0.0
H3979 H 0.82636 0.17207 0.51396 0.0
H3980 H 0.79697 0.19333 0.5098 0.0
H3981 H 0.79574 0.19551 0.53132 0.0
H3982 H 0.79462 0.17339 0.49577 0.0
H3983 H 0.82471 0.20534 0.50445 0.0
H3984 H 0.84246 0.21502 0.51462 0.0
H3985 H 0.86356 0.18851 0.50109 0.0
H3986 H 0.8459 0.17857 0.49097 0.0
H3987 H 0.80073 0.18513 0.43421 0.0
H3988 H 0.79928 0.18675 0.45574 0.0
H3989 H 0.83046 0.1679 0.45966 0.0
H3990 H 0.83212 0.16649 0.43811 0.0
H3991 H 0.83186 0.18645 0.47393 0.0
H3992 H 0.80205 0.15447 0.46517 0.0
H3993 H 0.78438 0.14448 0.45512 0.0
H3994 H 0.76283 0.17051 0.46888 0.0
H3995 H 0.78041 0.18075 0.47888 0.0
C3996 C 0.81899 0.17845 0.53 0.0
C3997 C 0.81041 0.18508 0.53511 0.0
C3998 C 0.81968 0.17723 0.5177 0.0
C3999 C 0.81181 0.18263 0.51028 0.0
C4000 C 0.80313 0.1891 0.51537 0.0
C4001 C 0.80247 0.19037 0.52766 0.0
C4002 C 0.81266 0.18153 0.49722 0.0
C4003 C 0.80271 0.17638 0.49096 0.0
C4004 C 0.82331 0.18516 0.49101 0.0
C4005 C 0.83396 0.19115 0.49705 0.0
C4006 C 0.83312 0.20152 0.50372 0.0
C4007 C 0.84316 0.20706 0.50946 0.0
C4008 C 0.85412 0.20236 0.50853 0.0
C4009 C 0.85507 0.19213 0.50182 0.0
C4010 C 0.84504 0.18654 0.49608 0.0
C4011 C 0.80726 0.1813 0.43965 0.0
C4012 C 0.81653 0.17566 0.43445 0.0
C4013 C 0.80639 0.18218 0.45196 0.0
C4014 C 0.81467 0.17731 0.45933 0.0
C4015 C 0.82395 0.17171 0.45415 0.0
C4016 C 0.82487 0.17088 0.44184 0.0
C4017 C 0.81381 0.17828 0.47243 0.0
C4018 C 0.82377 0.18343 0.47871 0.0
C4019 C 0.80317 0.17459 0.47866 0.0
C4020 C 0.79258 0.16844 0.47267 0.0
C4021 C 0.79356 0.15812 0.46597 0.0
C4022 C 0.78356 0.1524 0.4603 0.0
C4023 C 0.7725 0.15687 0.46134 0.0
C4024 C 0.77141 0.16706 0.46807 0.0
C4025 C 0.78139 0.17282 0.47375 0.0
H4026 H 0.76476 0.15244 0.45694 0.0
H4027 H 0.86189 0.20667 0.51298 0.0
H4028 H 0.191 0.77596 0.4443 0.0
H4029 H 0.19091 0.77461 0.46592 0.0
H4030 H 0.16886 0.80354 0.46789 0.0
H4031 H 0.16905 0.80507 0.44628 0.0
H4032 H 0.18662 0.80632 0.48371 0.0
H4033 H 0.15711 0.77486 0.47228 0.0
H4034 H 0.14928 0.75681 0.46149 0.0
H4035 H 0.17563 0.73733 0.47785 0.0
H4036 H 0.18373 0.75531 0.48862 0.0
H4037 H 0.16885 0.79947 0.54377 0.0
H4038 H 0.16892 0.80045 0.52214 0.0
H4039 H 0.19127 0.77173 0.52067 0.0
H4040 H 0.19113 0.77059 0.54232 0.0
H4041 H 0.17352 0.76874 0.50461 0.0
H4042 H 0.20299 0.80013 0.51608 0.0
H4043 H 0.21086 0.81816 0.52688 0.0
H4044 H 0.18464 0.83775 0.51044 0.0
H4045 H 0.1765 0.81979 0.49966 0.0
C4046 C 0.18612 0.78203 0.44933 0.0
C4047 C 0.18001 0.79061 0.44356 0.0
C4048 C 0.18603 0.78121 0.46169 0.0
C4049 C 0.17977 0.78889 0.46852 0.0
C4050 C 0.17374 0.79752 0.46279 0.0
C4051 C 0.17384 0.79836 0.45044 0.0
C4052 C 0.17962 0.78803 0.48165 0.0
C4053 C 0.1836 0.79814 0.48828 0.0
C4054 C 0.17596 0.77729 0.48761 0.0
C4055 C 0.17109 0.76646 0.48116 0.0
C4056 C 0.16129 0.76675 0.4735 0.0
C4057 C 0.1568 0.75652 0.4674 0.0
C4058 C 0.16197 0.74593 0.46896 0.0
C4059 C 0.17164 0.74554 0.47664 0.0
C4060 C 0.17618 0.75574 0.48275 0.0
C4061 C 0.17378 0.79335 0.53885 0.0
C4062 C 0.18002 0.78498 0.54477 0.0
C4063 C 0.17385 0.79396 0.52649 0.0
C4064 C 0.18022 0.78626 0.51979 0.0
C4065 C 0.18631 0.77777 0.52567 0.0
C4066 C 0.18625 0.77716 0.53804 0.0
C4067 C 0.18048 0.78703 0.50666 0.0
C4068 C 0.17654 0.77691 0.50003 0.0
C4069 C 0.18418 0.79776 0.5007 0.0
C4070 C 0.18907 0.80859 0.50715 0.0
C4071 C 0.19884 0.80826 0.51484 0.0
C4072 C 0.20336 0.81847 0.52094 0.0
C4073 C 0.19824 0.82909 0.51937 0.0
C4074 C 0.18859 0.82952 0.51166 0.0
C4075 C 0.18403 0.81933 0.50554 0.0
H4076 H 0.20175 0.83698 0.5241 0.0
H4077 H 0.15848 0.73803 0.46423 0.0
H4078 H 0.2365 0.1966 0.52246 0.0
H4079 H 0.23234 0.193 0.50143 0.0
H4080 H 0.19461 0.19195 0.50834 0.0
H4081 H 0.19868 0.19562 0.52937 0.0
H4082 H 0.21991 0.17467 0.48998 0.0
H4083 H 0.18162 0.20473 0.4848 0.0
H4084 H 0.17509 0.22296 0.49356 0.0
H4085 H 0.21121 0.23452 0.50335 0.0
H4086 H 0.21797 0.21644 0.49451 0.0
H4087 H 0.18767 0.16145 0.43685 0.0
H4088 H 0.193 0.16575 0.45751 0.0
H4089 H 0.21021 0.19994 0.44727 0.0
H4090 H 0.20486 0.19575 0.42658 0.0
H4091 H 0.19654 0.20152 0.46687 0.0
H4092 H 0.22682 0.1779 0.4535 0.0
H4093 H 0.23475 0.16057 0.44431 0.0
H4094 H 0.21732 0.13781 0.47082 0.0
H4095 H 0.20914 0.15499 0.48007 0.0
C4096 C 0.22731 0.19559 0.51951 0.0
C4097 C 0.21792 0.19644 0.52758 0.0
C4098 C 0.22496 0.1935 0.5075 0.0
C4099 C 0.21318 0.19232 0.50331 0.0
C4100 C 0.20377 0.19299 0.51136 0.0
C4101 C 0.20612 0.19504 0.52339 0.0
C4102 C 0.21073 0.19043 0.49051 0.0
C4103 C 0.21479 0.18053 0.48493 0.0
C4104 C 0.20423 0.1982 0.48387 0.0
C4105 C 0.20027 0.20917 0.4891 0.0
C4106 C 0.18817 0.21118 0.48879 0.0
C4107 C 0.18443 0.22149 0.49377 0.0
C4108 C 0.19272 0.22987 0.49904 0.0
C4109 C 0.20478 0.22799 0.49931 0.0
C4110 C 0.20857 0.21771 0.49433 0.0
C4111 C 0.19258 0.16989 0.43899 0.0
C4112 C 0.19587 0.17825 0.43007 0.0
C4113 C 0.19565 0.17231 0.45079 0.0
C4114 C 0.20209 0.18312 0.4539 0.0
C4115 C 0.20524 0.19154 0.44505 0.0
C4116 C 0.20221 0.18912 0.43323 0.0
C4117 C 0.20553 0.18562 0.4664 0.0
C4118 C 0.20164 0.19564 0.47193 0.0
C4119 C 0.21236 0.17807 0.47294 0.0
C4120 C 0.21728 0.16772 0.46741 0.0
C4121 C 0.2246 0.16918 0.45731 0.0
C4122 C 0.22915 0.15939 0.4521 0.0
C4123 C 0.22652 0.14809 0.45696 0.0
C4124 C 0.21934 0.14657 0.46706 0.0
C4125 C 0.21476 0.15633 0.47229 0.0
H4126 H 0.23006 0.14052 0.45292 0.0
H4127 H 0.18981 0.23784 0.5029 0.0
loop_
_geom_bond_atom_site_label_1
_geom_bond_atom_site_label_2
_geom_bond_distance
_geom_bond_site_symmetry_2
_ccdc_geom_bond_type
O0 Cd1 2.300 . S
O0 C7 1.275 . S
Cd1 O0 2.300 . S
Cd1 O9 2.381 . S
Cd1 O10 2.378 . S
O2 Cd3 2.385 . S
O2 C7 1.255 . S
Cd3 O2 2.385 . S
Cd3 O4 2.317 . S
O4 Cd3 2.317 . S
O4 C5 1.232 . S
C5 O4 1.232 . S
C5 O6 1.218 . S
O6 C5 1.218 . S
C7 O0 1.275 . S
C7 O2 1.255 . S
C8 O9 1.258 . S
C8 O10 1.256 . S
O9 Cd1 2.381 . S
O9 C8 1.258 . S
O10 Cd1 2.378 . S
O10 C8 1.256 . S
O11 Cd12 2.300 . S
O11 C18 1.275 . S
Cd12 O11 2.300 . S
Cd12 O20 2.381 . S
Cd12 O21 2.378 . S
O13 Cd14 2.385 . S
O13 C18 1.255 . S
Cd14 O13 2.385 . S
Cd14 O15 2.317 . S
O15 Cd14 2.317 . S
O15 C16 1.232 . S
C16 O15 1.232 . S
C16 O17 1.218 . S
O17 C16 1.218 . S
C18 O11 1.275 . S
C18 O13 1.255 . S
C19 O20 1.258 . S
C19 O21 1.256 . S
O20 Cd12 2.381 . S
O20 C19 1.258 . S
O21 Cd12 2.378 . S
O21 C19 1.256 . S
O22 Cd23 2.300 . S
O22 C29 1.275 . S
Cd23 O22 2.300 . S
Cd23 O31 2.381 . S
Cd23 O32 2.378 . S
O24 Cd25 2.385 . S
O24 C29 1.255 . S
Cd25 O24 2.385 . S
Cd25 O26 2.317 . S
O26 Cd25 2.317 . S
O26 C27 1.232 . S
C27 O26 1.232 . S
C27 O28 1.218 . S
O28 C27 1.218 . S
C29 O22 1.275 . S
C29 O24 1.255 . S
C30 O31 1.258 . S
C30 O32 1.256 . S
O31 Cd23 2.381 . S
O31 C30 1.258 . S
O32 Cd23 2.378 . S
O32 C30 1.256 . S
O33 Cd34 2.300 . S
O33 C40 1.275 . S
Cd34 O33 2.300 . S
Cd34 O42 2.381 . S
Cd34 O43 2.378 . S
O35 Cd36 2.385 . S
O35 C40 1.255 . S
Cd36 O35 2.385 . S
Cd36 O37 2.317 . S
O37 Cd36 2.317 . S
O37 C38 1.232 . S
C38 O37 1.232 . S
C38 O39 1.218 . S
O39 C38 1.218 . S
C40 O33 1.275 . S
C40 O35 1.255 . S
C41 O42 1.258 . S
C41 O43 1.256 . S
O42 Cd34 2.381 . S
O42 C41 1.258 . S
O43 Cd34 2.378 . S
O43 C41 1.256 . S
O44 Cd45 2.300 . S
O44 C51 1.275 . S
Cd45 O44 2.300 . S
Cd45 O53 2.381 . S
Cd45 O54 2.378 . S
O46 Cd47 2.385 . S
O46 C51 1.255 . S
Cd47 O46 2.385 . S
Cd47 O48 2.317 . S
O48 Cd47 2.317 . S
O48 C49 1.232 . S
C49 O48 1.232 . S
C49 O50 1.218 . S
O50 C49 1.218 . S
C51 O44 1.275 . S
C51 O46 1.255 . S
C52 O53 1.258 . S
C52 O54 1.256 . S
O53 Cd45 2.381 . S
O53 C52 1.258 . S
O54 Cd45 2.378 . S
O54 C52 1.256 . S
O55 Cd56 2.300 . S
O55 C62 1.275 . S
Cd56 O55 2.300 . S
Cd56 O64 2.381 . S
Cd56 O65 2.378 . S
O57 Cd58 2.385 . S
O57 C62 1.255 . S
Cd58 O57 2.385 . S
Cd58 O59 2.317 . S
O59 Cd58 2.317 . S
O59 C60 1.232 . S
C60 O59 1.232 . S
C60 O61 1.218 . S
O61 C60 1.218 . S
C62 O55 1.275 . S
C62 O57 1.255 . S
C63 O64 1.258 . S
C63 O65 1.256 . S
O64 Cd56 2.381 . S
O64 C63 1.258 . S
O65 Cd56 2.378 . S
O65 C63 1.256 . S
O66 Cd67 2.300 . S
O66 C73 1.275 . S
Cd67 O66 2.300 . S
Cd67 O75 2.381 . S
Cd67 O76 2.378 . S
O68 Cd69 2.385 . S
O68 C73 1.255 . S
Cd69 O68 2.385 . S
Cd69 O70 2.317 . S
O70 Cd69 2.317 . S
O70 C71 1.232 . S
C71 O70 1.232 . S
C71 O72 1.218 . S
O72 C71 1.218 . S
C73 O66 1.275 . S
C73 O68 1.255 . S
C74 O75 1.258 . S
C74 O76 1.256 . S
O75 Cd67 2.381 . S
O75 C74 1.258 . S
O76 Cd67 2.378 . S
O76 C74 1.256 . S
O77 Cd78 2.300 . S
O77 C84 1.275 . S
Cd78 O77 2.300 . S
Cd78 O86 2.381 . S
Cd78 O87 2.378 . S
O79 Cd80 2.385 . S
O79 C84 1.255 . S
Cd80 O79 2.385 . S
Cd80 O81 2.317 . S
O81 Cd80 2.317 . S
O81 C82 1.232 . S
C82 O81 1.232 . S
C82 O83 1.218 . S
O83 C82 1.218 . S
C84 O77 1.275 . S
C84 O79 1.255 . S
C85 O86 1.258 . S
C85 O87 1.256 . S
O86 Cd78 2.381 . S
O86 C85 1.258 . S
O87 Cd78 2.378 . S
O87 C85 1.256 . S
O88 Cd89 2.300 . S
O88 C95 1.275 . S
Cd89 O88 2.300 . S
Cd89 O97 2.381 . S
Cd89 O98 2.378 . S
O90 Cd91 2.385 . S
O90 C95 1.255 . S
Cd91 O90 2.385 . S
Cd91 O92 2.317 . S
O92 Cd91 2.317 . S
O92 C93 1.232 . S
C93 O92 1.232 . S
C93 O94 1.218 . S
O94 C93 1.218 . S
C95 O88 1.275 . S
C95 O90 1.255 . S
C96 O97 1.258 . S
C96 O98 1.256 . S
O97 Cd89 2.381 . S
O97 C96 1.258 . S
O98 Cd89 2.378 . S
O98 C96 1.256 . S
O99 Cd100 2.300 . S
O99 C106 1.275 . S
Cd100 O99 2.300 . S
Cd100 O108 2.381 . S
Cd100 O109 2.378 . S
O101 Cd102 2.385 . S
O101 C106 1.255 . S
Cd102 O101 2.385 . S
Cd102 O103 2.317 . S
O103 Cd102 2.317 . S
O103 C104 1.232 . S
C104 O103 1.232 . S
C104 O105 1.218 . S
O105 C104 1.218 . S
C106 O99 1.275 . S
C106 O101 1.255 . S
C107 O108 1.258 . S
C107 O109 1.256 . S
O108 Cd100 2.381 . S
O108 C107 1.258 . S
O109 Cd100 2.378 . S
O109 C107 1.256 . S
O110 Cd111 2.300 . S
O110 C117 1.275 . S
Cd111 O110 2.300 . S
Cd111 O119 2.381 . S
Cd111 O120 2.378 . S
O112 Cd113 2.385 . S
O112 C117 1.255 . S
Cd113 O112 2.385 . S
Cd113 O114 2.317 . S
O114 Cd113 2.317 . S
O114 C115 1.232 . S
C115 O114 1.232 . S
C115 O116 1.218 . S
O116 C115 1.218 . S
C117 O110 1.275 . S
C117 O112 1.255 . S
C118 O119 1.258 . S
C118 O120 1.256 . S
O119 Cd111 2.381 . S
O119 C118 1.258 . S
O120 Cd111 2.378 . S
O120 C118 1.256 . S
O121 Cd122 2.300 . S
O121 C128 1.275 . S
Cd122 O121 2.300 . S
Cd122 O130 2.381 . S
Cd122 O131 2.378 . S
O123 Cd124 2.385 . S
O123 C128 1.255 . S
Cd124 O123 2.385 . S
Cd124 O125 2.317 . S
O125 Cd124 2.317 . S
O125 C126 1.232 . S
C126 O125 1.232 . S
C126 O127 1.218 . S
O127 C126 1.218 . S
C128 O121 1.275 . S
C128 O123 1.255 . S
C129 O130 1.258 . S
C129 O131 1.256 . S
O130 Cd122 2.381 . S
O130 C129 1.258 . S
O131 Cd122 2.378 . S
O131 C129 1.256 . S
O132 Cd133 2.300 . S
O132 C139 1.275 . S
Cd133 O132 2.300 . S
Cd133 O141 2.381 . S
Cd133 O142 2.378 . S
O134 Cd135 2.385 . S
O134 C139 1.255 . S
Cd135 O134 2.385 . S
Cd135 O136 2.317 . S
O136 Cd135 2.317 . S
O136 C137 1.232 . S
C137 O136 1.232 . S
C137 O138 1.218 . S
O138 C137 1.218 . S
C139 O132 1.275 . S
C139 O134 1.255 . S
C140 O141 1.258 . S
C140 O142 1.256 . S
O141 Cd133 2.381 . S
O141 C140 1.258 . S
O142 Cd133 2.378 . S
O142 C140 1.256 . S
O143 Cd144 2.300 . S
O143 C150 1.275 . S
Cd144 O143 2.300 . S
Cd144 O152 2.381 . S
Cd144 O153 2.378 . S
O145 Cd146 2.385 . S
O145 C150 1.255 . S
Cd146 O145 2.385 . S
Cd146 O147 2.317 . S
O147 Cd146 2.317 . S
O147 C148 1.232 . S
C148 O147 1.232 . S
C148 O149 1.218 . S
O149 C148 1.218 . S
C150 O143 1.275 . S
C150 O145 1.255 . S
C151 O152 1.258 . S
C151 O153 1.256 . S
O152 Cd144 2.381 . S
O152 C151 1.258 . S
O153 Cd144 2.378 . S
O153 C151 1.256 . S
O154 Cd155 2.300 . S
O154 C161 1.275 . S
Cd155 O154 2.300 . S
Cd155 O163 2.381 . S
Cd155 O164 2.378 . S
O156 Cd157 2.385 . S
O156 C161 1.255 . S
Cd157 O156 2.385 . S
Cd157 O158 2.317 . S
O158 Cd157 2.317 . S
O158 C159 1.232 . S
C159 O158 1.232 . S
C159 O160 1.218 . S
O160 C159 1.218 . S
C161 O154 1.275 . S
C161 O156 1.255 . S
C162 O163 1.258 . S
C162 O164 1.256 . S
O163 Cd155 2.381 . S
O163 C162 1.258 . S
O164 Cd155 2.378 . S
O164 C162 1.256 . S
O165 Cd166 2.300 . S
O165 C172 1.275 . S
Cd166 O165 2.300 . S
Cd166 O174 2.381 . S
Cd166 O175 2.378 . S
O167 Cd168 2.385 . S
O167 C172 1.255 . S
Cd168 O167 2.385 . S
Cd168 O169 2.317 . S
O169 Cd168 2.317 . S
O169 C170 1.232 . S
C170 O169 1.232 . S
C170 O171 1.218 . S
O171 C170 1.218 . S
C172 O165 1.275 . S
C172 O167 1.255 . S
C173 O174 1.258 . S
C173 O175 1.256 . S
O174 Cd166 2.381 . S
O174 C173 1.258 . S
O175 Cd166 2.378 . S
O175 C173 1.256 . S
O176 Cd177 2.300 . S
O176 C183 1.275 . S
Cd177 O176 2.300 . S
Cd177 O185 2.381 . S
Cd177 O186 2.378 . S
O178 Cd179 2.385 . S
O178 C183 1.255 . S
Cd179 O178 2.385 . S
Cd179 O180 2.317 . S
O180 Cd179 2.317 . S
O180 C181 1.232 . S
C181 O180 1.232 . S
C181 O182 1.218 . S
O182 C181 1.218 . S
C183 O176 1.275 . S
C183 O178 1.255 . S
C184 O185 1.258 . S
C184 O186 1.256 . S
O185 Cd177 2.381 . S
O185 C184 1.258 . S
O186 Cd177 2.378 . S
O186 C184 1.256 . S
O187 Cd188 2.300 . S
O187 C194 1.275 . S
Cd188 O187 2.300 . S
Cd188 O196 2.381 . S
Cd188 O197 2.378 . S
O189 Cd190 2.385 . S
O189 C194 1.255 . S
Cd190 O189 2.385 . S
Cd190 O191 2.317 . S
O191 Cd190 2.317 . S
O191 C192 1.232 . S
C192 O191 1.232 . S
C192 O193 1.218 . S
O193 C192 1.218 . S
C194 O187 1.275 . S
C194 O189 1.255 . S
C195 O196 1.258 . S
C195 O197 1.256 . S
O196 Cd188 2.381 . S
O196 C195 1.258 . S
O197 Cd188 2.378 . S
O197 C195 1.256 . S
O198 Cd199 2.300 . S
O198 C205 1.275 . S
Cd199 O198 2.300 . S
Cd199 O207 2.381 . S
Cd199 O208 2.378 . S
O200 Cd201 2.385 . S
O200 C205 1.255 . S
Cd201 O200 2.385 . S
Cd201 O202 2.317 . S
O202 Cd201 2.317 . S
O202 C203 1.232 . S
C203 O202 1.232 . S
C203 O204 1.218 . S
O204 C203 1.218 . S
C205 O198 1.275 . S
C205 O200 1.255 . S
C206 O207 1.258 . S
C206 O208 1.256 . S
O207 Cd199 2.381 . S
O207 C206 1.258 . S
O208 Cd199 2.378 . S
O208 C206 1.256 . S
O209 Cd210 2.300 . S
O209 C216 1.275 . S
Cd210 O209 2.300 . S
Cd210 O218 2.381 . S
Cd210 O219 2.378 . S
O211 Cd212 2.385 . S
O211 C216 1.255 . S
Cd212 O211 2.385 . S
Cd212 O213 2.317 . S
O213 Cd212 2.317 . S
O213 C214 1.232 . S
C214 O213 1.232 . S
C214 O215 1.218 . S
O215 C214 1.218 . S
C216 O209 1.275 . S
C216 O211 1.255 . S
C217 O218 1.258 . S
C217 O219 1.256 . S
O218 Cd210 2.381 . S
O218 C217 1.258 . S
O219 Cd210 2.378 . S
O219 C217 1.256 . S
O220 Cd221 2.300 . S
O220 C227 1.275 . S
Cd221 O220 2.300 . S
Cd221 O229 2.381 . S
Cd221 O230 2.378 . S
O222 Cd223 2.385 . S
O222 C227 1.255 . S
Cd223 O222 2.385 . S
Cd223 O224 2.317 . S
O224 Cd223 2.317 . S
O224 C225 1.232 . S
C225 O224 1.232 . S
C225 O226 1.218 . S
O226 C225 1.218 . S
C227 O220 1.275 . S
C227 O222 1.255 . S
C228 O229 1.258 . S
C228 O230 1.256 . S
O229 Cd221 2.381 . S
O229 C228 1.258 . S
O230 Cd221 2.378 . S
O230 C228 1.256 . S
O231 Cd232 2.300 . S
O231 C238 1.275 . S
Cd232 O231 2.300 . S
Cd232 O240 2.381 . S
Cd232 O241 2.378 . S
O233 Cd234 2.385 . S
O233 C238 1.255 . S
Cd234 O233 2.385 . S
Cd234 O235 2.317 . S
O235 Cd234 2.317 . S
O235 C236 1.232 . S
C236 O235 1.232 . S
C236 O237 1.218 . S
O237 C236 1.218 . S
C238 O231 1.275 . S
C238 O233 1.255 . S
C239 O240 1.258 . S
C239 O241 1.256 . S
O240 Cd232 2.381 . S
O240 C239 1.258 . S
O241 Cd232 2.378 . S
O241 C239 1.256 . S
O242 Cd243 2.300 . S
O242 C249 1.275 . S
Cd243 O242 2.300 . S
Cd243 O251 2.381 . S
Cd243 O252 2.378 . S
O244 Cd245 2.385 . S
O244 C249 1.255 . S
Cd245 O244 2.385 . S
Cd245 O246 2.317 . S
O246 Cd245 2.317 . S
O246 C247 1.232 . S
C247 O246 1.232 . S
C247 O248 1.218 . S
O248 C247 1.218 . S
C249 O242 1.275 . S
C249 O244 1.255 . S
C250 O251 1.258 . S
C250 O252 1.256 . S
O251 Cd243 2.381 . S
O251 C250 1.258 . S
O252 Cd243 2.378 . S
O252 C250 1.256 . S
O253 Cd254 2.300 . S
O253 C260 1.275 . S
Cd254 O253 2.300 . S
Cd254 O262 2.381 . S
Cd254 O263 2.378 . S
O255 Cd256 2.385 . S
O255 C260 1.255 . S
Cd256 O255 2.385 . S
Cd256 O257 2.317 . S
O257 Cd256 2.317 . S
O257 C258 1.232 . S
C258 O257 1.232 . S
C258 O259 1.218 . S
O259 C258 1.218 . S
C260 O253 1.275 . S
C260 O255 1.255 . S
C261 O262 1.258 . S
C261 O263 1.256 . S
O262 Cd254 2.381 . S
O262 C261 1.258 . S
O263 Cd254 2.378 . S
O263 C261 1.256 . S
O264 Cd265 2.300 . S
O264 C271 1.275 . S
Cd265 O264 2.300 . S
Cd265 O273 2.381 . S
Cd265 O274 2.378 . S
O266 Cd267 2.385 . S
O266 C271 1.255 . S
Cd267 O266 2.385 . S
Cd267 O268 2.317 . S
O268 Cd267 2.317 . S
O268 C269 1.232 . S
C269 O268 1.232 . S
C269 O270 1.218 . S
O270 C269 1.218 . S
C271 O264 1.275 . S
C271 O266 1.255 . S
C272 O273 1.258 . S
C272 O274 1.256 . S
O273 Cd265 2.381 . S
O273 C272 1.258 . S
O274 Cd265 2.378 . S
O274 C272 1.256 . S
O275 Cd276 2.300 . S
O275 C282 1.275 . S
Cd276 O275 2.300 . S
Cd276 O284 2.381 . S
Cd276 O285 2.378 . S
O277 Cd278 2.385 . S
O277 C282 1.255 . S
Cd278 O277 2.385 . S
Cd278 O279 2.317 . S
O279 Cd278 2.317 . S
O279 C280 1.232 . S
C280 O279 1.232 . S
C280 O281 1.218 . S
O281 C280 1.218 . S
C282 O275 1.275 . S
C282 O277 1.255 . S
C283 O284 1.258 . S
C283 O285 1.256 . S
O284 Cd276 2.381 . S
O284 C283 1.258 . S
O285 Cd276 2.378 . S
O285 C283 1.256 . S
O286 Cd287 2.300 . S
O286 C293 1.275 . S
Cd287 O286 2.300 . S
Cd287 O295 2.381 . S
Cd287 O296 2.378 . S
O288 Cd289 2.385 . S
O288 C293 1.255 . S
Cd289 O288 2.385 . S
Cd289 O290 2.317 . S
O290 Cd289 2.317 . S
O290 C291 1.232 . S
C291 O290 1.232 . S
C291 O292 1.218 . S
O292 C291 1.218 . S
C293 O286 1.275 . S
C293 O288 1.255 . S
C294 O295 1.258 . S
C294 O296 1.256 . S
O295 Cd287 2.381 . S
O295 C294 1.258 . S
O296 Cd287 2.378 . S
O296 C294 1.256 . S
O297 Cd298 2.300 . S
O297 C304 1.275 . S
Cd298 O297 2.300 . S
Cd298 O306 2.381 . S
Cd298 O307 2.378 . S
O299 Cd300 2.385 . S
O299 C304 1.255 . S
Cd300 O299 2.385 . S
Cd300 O301 2.317 . S
O301 Cd300 2.317 . S
O301 C302 1.232 . S
C302 O301 1.232 . S
C302 O303 1.218 . S
O303 C302 1.218 . S
C304 O297 1.275 . S
C304 O299 1.255 . S
C305 O306 1.258 . S
C305 O307 1.256 . S
O306 Cd298 2.381 . S
O306 C305 1.258 . S
O307 Cd298 2.378 . S
O307 C305 1.256 . S
O308 Cd309 2.300 . S
O308 C315 1.275 . S
Cd309 O308 2.300 . S
Cd309 O317 2.381 . S
Cd309 O318 2.378 . S
O310 Cd311 2.385 . S
O310 C315 1.255 . S
Cd311 O310 2.385 . S
Cd311 O312 2.317 . S
O312 Cd311 2.317 . S
O312 C313 1.232 . S
C313 O312 1.232 . S
C313 O314 1.218 . S
O314 C313 1.218 . S
C315 O308 1.275 . S
C315 O310 1.255 . S
C316 O317 1.258 . S
C316 O318 1.256 . S
O317 Cd309 2.381 . S
O317 C316 1.258 . S
O318 Cd309 2.378 . S
O318 C316 1.256 . S
O319 Cd320 2.300 . S
O319 C326 1.275 . S
Cd320 O319 2.300 . S
Cd320 O328 2.381 . S
Cd320 O329 2.378 . S
O321 Cd322 2.385 . S
O321 C326 1.255 . S
Cd322 O321 2.385 . S
Cd322 O323 2.317 . S
O323 Cd322 2.317 . S
O323 C324 1.232 . S
C324 O323 1.232 . S
C324 O325 1.218 . S
O325 C324 1.218 . S
C326 O319 1.275 . S
C326 O321 1.255 . S
C327 O328 1.258 . S
C327 O329 1.256 . S
O328 Cd320 2.381 . S
O328 C327 1.258 . S
O329 Cd320 2.378 . S
O329 C327 1.256 . S
O330 Cd331 2.300 . S
O330 C337 1.275 . S
Cd331 O330 2.300 . S
Cd331 O339 2.381 . S
Cd331 O340 2.378 . S
O332 Cd333 2.385 . S
O332 C337 1.255 . S
Cd333 O332 2.385 . S
Cd333 O334 2.317 . S
O334 Cd333 2.317 . S
O334 C335 1.232 . S
C335 O334 1.232 . S
C335 O336 1.218 . S
O336 C335 1.218 . S
C337 O330 1.275 . S
C337 O332 1.255 . S
C338 O339 1.258 . S
C338 O340 1.256 . S
O339 Cd331 2.381 . S
O339 C338 1.258 . S
O340 Cd331 2.378 . S
O340 C338 1.256 . S
O341 Cd342 2.300 . S
O341 C348 1.275 . S
Cd342 O341 2.300 . S
Cd342 O350 2.381 . S
Cd342 O351 2.378 . S
O343 Cd344 2.385 . S
O343 C348 1.255 . S
Cd344 O343 2.385 . S
Cd344 O345 2.317 . S
O345 Cd344 2.317 . S
O345 C346 1.232 . S
C346 O345 1.232 . S
C346 O347 1.218 . S
O347 C346 1.218 . S
C348 O341 1.275 . S
C348 O343 1.255 . S
C349 O350 1.258 . S
C349 O351 1.256 . S
O350 Cd342 2.381 . S
O350 C349 1.258 . S
O351 Cd342 2.378 . S
O351 C349 1.256 . S
O352 Cd353 2.300 . S
O352 C359 1.275 . S
Cd353 O352 2.300 . S
Cd353 O361 2.381 . S
Cd353 O362 2.378 . S
O354 Cd355 2.385 . S
O354 C359 1.255 . S
Cd355 O354 2.385 . S
Cd355 O356 2.317 . S
O356 Cd355 2.317 . S
O356 C357 1.232 . S
C357 O356 1.232 . S
C357 O358 1.218 . S
O358 C357 1.218 . S
C359 O352 1.275 . S
C359 O354 1.255 . S
C360 O361 1.258 . S
C360 O362 1.256 . S
O361 Cd353 2.381 . S
O361 C360 1.258 . S
O362 Cd353 2.378 . S
O362 C360 1.256 . S
O363 Cd364 2.300 . S
O363 C370 1.275 . S
Cd364 O363 2.300 . S
Cd364 O372 2.381 . S
Cd364 O373 2.378 . S
O365 Cd366 2.385 . S
O365 C370 1.255 . S
Cd366 O365 2.385 . S
Cd366 O367 2.317 . S
O367 Cd366 2.317 . S
O367 C368 1.232 . S
C368 O367 1.232 . S
C368 O369 1.218 . S
O369 C368 1.218 . S
C370 O363 1.275 . S
C370 O365 1.255 . S
C371 O372 1.258 . S
C371 O373 1.256 . S
O372 Cd364 2.381 . S
O372 C371 1.258 . S
O373 Cd364 2.378 . S
O373 C371 1.256 . S
O374 Cd375 2.300 . S
O374 C381 1.275 . S
Cd375 O374 2.300 . S
Cd375 O383 2.381 . S
Cd375 O384 2.378 . S
O376 Cd377 2.385 . S
O376 C381 1.255 . S
Cd377 O376 2.385 . S
Cd377 O378 2.317 . S
O378 Cd377 2.317 . S
O378 C379 1.232 . S
C379 O378 1.232 . S
C379 O380 1.218 . S
O380 C379 1.218 . S
C381 O374 1.275 . S
C381 O376 1.255 . S
C382 O383 1.258 . S
C382 O384 1.256 . S
O383 Cd375 2.381 . S
O383 C382 1.258 . S
O384 Cd375 2.378 . S
O384 C382 1.256 . S
O385 Cd386 2.300 . S
O385 C392 1.275 . S
Cd386 O385 2.300 . S
Cd386 O394 2.381 . S
Cd386 O395 2.378 . S
O387 Cd388 2.385 . S
O387 C392 1.255 . S
Cd388 O387 2.385 . S
Cd388 O389 2.317 . S
O389 Cd388 2.317 . S
O389 C390 1.232 . S
C390 O389 1.232 . S
C390 O391 1.218 . S
O391 C390 1.218 . S
C392 O385 1.275 . S
C392 O387 1.255 . S
C393 O394 1.258 . S
C393 O395 1.256 . S
O394 Cd386 2.381 . S
O394 C393 1.258 . S
O395 Cd386 2.378 . S
O395 C393 1.256 . S
O396 Cd397 2.300 . S
O396 C403 1.275 . S
Cd397 O396 2.300 . S
Cd397 O405 2.381 . S
Cd397 O406 2.378 . S
O398 Cd399 2.385 . S
O398 C403 1.255 . S
Cd399 O398 2.385 . S
Cd399 O400 2.317 . S
O400 Cd399 2.317 . S
O400 C401 1.232 . S
C401 O400 1.232 . S
C401 O402 1.218 . S
O402 C401 1.218 . S
C403 O396 1.275 . S
C403 O398 1.255 . S
C404 O405 1.258 . S
C404 O406 1.256 . S
O405 Cd397 2.381 . S
O405 C404 1.258 . S
O406 Cd397 2.378 . S
O406 C404 1.256 . S
O407 Cd408 2.300 . S
O407 C414 1.275 . S
Cd408 O407 2.300 . S
Cd408 O416 2.381 . S
Cd408 O417 2.378 . S
O409 Cd410 2.385 . S
O409 C414 1.255 . S
Cd410 O409 2.385 . S
Cd410 O411 2.317 . S
O411 Cd410 2.317 . S
O411 C412 1.232 . S
C412 O411 1.232 . S
C412 O413 1.218 . S
O413 C412 1.218 . S
C414 O407 1.275 . S
C414 O409 1.255 . S
C415 O416 1.258 . S
C415 O417 1.256 . S
O416 Cd408 2.381 . S
O416 C415 1.258 . S
O417 Cd408 2.378 . S
O417 C415 1.256 . S
O418 Cd419 2.300 . S
O418 C425 1.275 . S
Cd419 O418 2.300 . S
Cd419 O427 2.381 . S
Cd419 O428 2.378 . S
O420 Cd421 2.385 . S
O420 C425 1.255 . S
Cd421 O420 2.385 . S
Cd421 O422 2.317 . S
O422 Cd421 2.317 . S
O422 C423 1.232 . S
C423 O422 1.232 . S
C423 O424 1.218 . S
O424 C423 1.218 . S
C425 O418 1.275 . S
C425 O420 1.255 . S
C426 O427 1.258 . S
C426 O428 1.256 . S
O427 Cd419 2.381 . S
O427 C426 1.258 . S
O428 Cd419 2.378 . S
O428 C426 1.256 . S
O429 Cd430 2.300 . S
O429 C436 1.275 . S
Cd430 O429 2.300 . S
Cd430 O438 2.381 . S
Cd430 O439 2.378 . S
O431 Cd432 2.385 . S
O431 C436 1.255 . S
Cd432 O431 2.385 . S
Cd432 O433 2.317 . S
O433 Cd432 2.317 . S
O433 C434 1.232 . S
C434 O433 1.232 . S
C434 O435 1.218 . S
O435 C434 1.218 . S
C436 O429 1.275 . S
C436 O431 1.255 . S
C437 O438 1.258 . S
C437 O439 1.256 . S
O438 Cd430 2.381 . S
O438 C437 1.258 . S
O439 Cd430 2.378 . S
O439 C437 1.256 . S
O440 Cd441 2.300 . S
O440 C447 1.275 . S
Cd441 O440 2.300 . S
Cd441 O449 2.381 . S
Cd441 O450 2.378 . S
O442 Cd443 2.385 . S
O442 C447 1.255 . S
Cd443 O442 2.385 . S
Cd443 O444 2.317 . S
O444 Cd443 2.317 . S
O444 C445 1.232 . S
C445 O444 1.232 . S
C445 O446 1.218 . S
O446 C445 1.218 . S
C447 O440 1.275 . S
C447 O442 1.255 . S
C448 O449 1.258 . S
C448 O450 1.256 . S
O449 Cd441 2.381 . S
O449 C448 1.258 . S
O450 Cd441 2.378 . S
O450 C448 1.256 . S
O451 Cd452 2.300 . S
O451 C458 1.275 . S
Cd452 O451 2.300 . S
Cd452 O460 2.381 . S
Cd452 O461 2.378 . S
O453 Cd454 2.385 . S
O453 C458 1.255 . S
Cd454 O453 2.385 . S
Cd454 O455 2.317 . S
O455 Cd454 2.317 . S
O455 C456 1.232 . S
C456 O455 1.232 . S
C456 O457 1.218 . S
O457 C456 1.218 . S
C458 O451 1.275 . S
C458 O453 1.255 . S
C459 O460 1.258 . S
C459 O461 1.256 . S
O460 Cd452 2.381 . S
O460 C459 1.258 . S
O461 Cd452 2.378 . S
O461 C459 1.256 . S
O462 Cd463 2.300 . S
O462 C469 1.275 . S
Cd463 O462 2.300 . S
Cd463 O471 2.381 . S
Cd463 O472 2.378 . S
O464 Cd465 2.385 . S
O464 C469 1.255 . S
Cd465 O464 2.385 . S
Cd465 O466 2.317 . S
O466 Cd465 2.317 . S
O466 C467 1.232 . S
C467 O466 1.232 . S
C467 O468 1.218 . S
O468 C467 1.218 . S
C469 O462 1.275 . S
C469 O464 1.255 . S
C470 O471 1.258 . S
C470 O472 1.256 . S
O471 Cd463 2.381 . S
O471 C470 1.258 . S
O472 Cd463 2.378 . S
O472 C470 1.256 . S
O473 Cd474 2.300 . S
O473 C480 1.275 . S
Cd474 O473 2.300 . S
Cd474 O482 2.381 . S
Cd474 O483 2.378 . S
O475 Cd476 2.385 . S
O475 C480 1.255 . S
Cd476 O475 2.385 . S
Cd476 O477 2.317 . S
O477 Cd476 2.317 . S
O477 C478 1.232 . S
C478 O477 1.232 . S
C478 O479 1.218 . S
O479 C478 1.218 . S
C480 O473 1.275 . S
C480 O475 1.255 . S
C481 O482 1.258 . S
C481 O483 1.256 . S
O482 Cd474 2.381 . S
O482 C481 1.258 . S
O483 Cd474 2.378 . S
O483 C481 1.256 . S
O484 Cd485 2.300 . S
O484 C491 1.275 . S
Cd485 O484 2.300 . S
Cd485 O493 2.381 . S
Cd485 O494 2.378 . S
O486 Cd487 2.385 . S
O486 C491 1.255 . S
Cd487 O486 2.385 . S
Cd487 O488 2.317 . S
O488 Cd487 2.317 . S
O488 C489 1.232 . S
C489 O488 1.232 . S
C489 O490 1.218 . S
O490 C489 1.218 . S
C491 O484 1.275 . S
C491 O486 1.255 . S
C492 O493 1.258 . S
C492 O494 1.256 . S
O493 Cd485 2.381 . S
O493 C492 1.258 . S
O494 Cd485 2.378 . S
O494 C492 1.256 . S
O495 Cd496 2.300 . S
O495 C502 1.275 . S
Cd496 O495 2.300 . S
Cd496 O504 2.381 . S
Cd496 O505 2.378 . S
O497 Cd498 2.385 . S
O497 C502 1.255 . S
Cd498 O497 2.385 . S
Cd498 O499 2.317 . S
O499 Cd498 2.317 . S
O499 C500 1.232 . S
C500 O499 1.232 . S
C500 O501 1.218 . S
O501 C500 1.218 . S
C502 O495 1.275 . S
C502 O497 1.255 . S
C503 O504 1.258 . S
C503 O505 1.256 . S
O504 Cd496 2.381 . S
O504 C503 1.258 . S
O505 Cd496 2.378 . S
O505 C503 1.256 . S
O506 Cd507 2.300 . S
O506 C513 1.275 . S
Cd507 O506 2.300 . S
Cd507 O515 2.381 . S
Cd507 O516 2.378 . S
O508 Cd509 2.385 . S
O508 C513 1.255 . S
Cd509 O508 2.385 . S
Cd509 O510 2.317 . S
O510 Cd509 2.317 . S
O510 C511 1.232 . S
C511 O510 1.232 . S
C511 O512 1.218 . S
O512 C511 1.218 . S
C513 O506 1.275 . S
C513 O508 1.255 . S
C514 O515 1.258 . S
C514 O516 1.256 . S
O515 Cd507 2.381 . S
O515 C514 1.258 . S
O516 Cd507 2.378 . S
O516 C514 1.256 . S
O517 Cd518 2.300 . S
O517 C524 1.275 . S
Cd518 O517 2.300 . S
Cd518 O526 2.381 . S
Cd518 O527 2.378 . S
O519 Cd520 2.385 . S
O519 C524 1.255 . S
Cd520 O519 2.385 . S
Cd520 O521 2.317 . S
O521 Cd520 2.317 . S
O521 C522 1.232 . S
C522 O521 1.232 . S
C522 O523 1.218 . S
O523 C522 1.218 . S
C524 O517 1.275 . S
C524 O519 1.255 . S
C525 O526 1.258 . S
C525 O527 1.256 . S
O526 Cd518 2.381 . S
O526 C525 1.258 . S
O527 Cd518 2.378 . S
O527 C525 1.256 . S
H528 C546 0.951 . S
H529 C548 0.951 . S
H530 C550 0.950 . S
H531 C551 0.950 . S
H532 C553 0.950 . S
H533 C556 0.950 . S
H534 C557 0.950 . S
H535 C559 0.950 . S
H536 C560 0.950 . S
H537 C561 0.951 . S
H538 C563 0.951 . S
H539 C565 0.950 . S
H540 C566 0.950 . S
H541 C568 0.950 . S
H542 C571 0.950 . S
H543 C572 0.950 . S
H544 C574 0.950 . S
H545 C575 0.950 . S
C546 H528 0.951 . S
C546 C547 1.366 . S
C546 C548 1.388 . S
C547 C546 1.366 . S
C547 C551 1.385 . S
C548 H529 0.951 . S
C548 C546 1.388 . S
C548 C549 1.366 . S
C549 C548 1.366 . S
C549 C550 1.414 . S
C549 C552 1.499 . S
C550 H530 0.950 . S
C550 C549 1.414 . S
C550 C551 1.374 . S
C551 H531 0.950 . S
C551 C547 1.385 . S
C551 C550 1.374 . S
C552 C549 1.499 . S
C552 C553 1.373 . S
C552 C554 1.389 . S
C553 H532 0.950 . S
C553 C552 1.373 . S
C553 C569 1.377 . S
C554 C552 1.389 . S
C554 C555 1.524 . S
C554 C568 1.377 . S
C555 C554 1.524 . S
C555 C556 1.397 . S
C555 C560 1.363 . S
C556 H533 0.950 . S
C556 C555 1.397 . S
C556 C557 1.334 . S
C557 H534 0.950 . S
C557 C556 1.334 . S
C557 C558 1.287 . S
C558 C557 1.287 . S
C558 C559 1.524 . S
C558 H577 0.913 . S
C559 H535 0.950 . S
C559 C558 1.524 . S
C559 C560 1.415 . S
C560 H536 0.950 . S
C560 C555 1.363 . S
C560 C559 1.415 . S
C561 H537 0.951 . S
C561 C562 1.366 . S
C561 C563 1.388 . S
C562 C561 1.366 . S
C562 C566 1.385 . S
C563 H538 0.951 . S
C563 C561 1.388 . S
C563 C564 1.366 . S
C564 C563 1.366 . S
C564 C565 1.414 . S
C564 C567 1.499 . S
C565 H539 0.950 . S
C565 C564 1.414 . S
C565 C566 1.374 . S
C566 H540 0.950 . S
C566 C562 1.385 . S
C566 C565 1.374 . S
C567 C564 1.499 . S
C567 C568 1.373 . S
C567 C569 1.389 . S
C568 H541 0.950 . S
C568 C554 1.377 . S
C568 C567 1.373 . S
C569 C553 1.377 . S
C569 C567 1.389 . S
C569 C570 1.524 . S
C570 C569 1.524 . S
C570 C571 1.397 . S
C570 C575 1.363 . S
C571 H542 0.950 . S
C571 C570 1.397 . S
C571 C572 1.334 . S
C572 H543 0.950 . S
C572 C571 1.334 . S
C572 C573 1.287 . S
C573 C572 1.287 . S
C573 C574 1.524 . S
C573 H576 0.999 . S
C574 H544 0.950 . S
C574 C573 1.524 . S
C574 C575 1.415 . S
C575 H545 0.950 . S
C575 C570 1.363 . S
C575 C574 1.415 . S
H576 C573 0.999 . S
H577 C558 0.913 . S
H578 C596 0.951 . S
H579 C598 0.951 . S
H580 C600 0.950 . S
H581 C601 0.950 . S
H582 C603 0.950 . S
H583 C606 0.950 . S
H584 C607 0.950 . S
H585 C609 0.950 . S
H586 C610 0.950 . S
H587 C611 0.951 . S
H588 C613 0.951 . S
H589 C615 0.950 . S
H590 C616 0.950 . S
H591 C618 0.950 . S
H592 C621 0.950 . S
H593 C622 0.950 . S
H594 C624 0.950 . S
H595 C625 0.950 . S
C596 H578 0.951 . S
C596 C597 1.366 . S
C596 C598 1.388 . S
C597 C596 1.366 . S
C597 C601 1.385 . S
C598 H579 0.951 . S
C598 C596 1.388 . S
C598 C599 1.366 . S
C599 C598 1.366 . S
C599 C600 1.414 . S
C599 C602 1.499 . S
C600 H580 0.950 . S
C600 C599 1.414 . S
C600 C601 1.374 . S
C601 H581 0.950 . S
C601 C597 1.385 . S
C601 C600 1.374 . S
C602 C599 1.499 . S
C602 C603 1.373 . S
C602 C604 1.389 . S
C603 H582 0.950 . S
C603 C602 1.373 . S
C603 C619 1.377 . S
C604 C602 1.389 . S
C604 C605 1.524 . S
C604 C618 1.377 . S
C605 C604 1.524 . S
C605 C606 1.397 . S
C605 C610 1.363 . S
C606 H583 0.950 . S
C606 C605 1.397 . S
C606 C607 1.334 . S
C607 H584 0.950 . S
C607 C606 1.334 . S
C607 C608 1.287 . S
C608 C607 1.287 . S
C608 C609 1.524 . S
C608 H627 0.913 . S
C609 H585 0.950 . S
C609 C608 1.524 . S
C609 C610 1.415 . S
C610 H586 0.950 . S
C610 C605 1.363 . S
C610 C609 1.415 . S
C611 H587 0.951 . S
C611 C612 1.366 . S
C611 C613 1.388 . S
C612 C611 1.366 . S
C612 C616 1.385 . S
C613 H588 0.951 . S
C613 C611 1.388 . S
C613 C614 1.366 . S
C614 C613 1.366 . S
C614 C615 1.414 . S
C614 C617 1.499 . S
C615 H589 0.950 . S
C615 C614 1.414 . S
C615 C616 1.374 . S
C616 H590 0.950 . S
C616 C612 1.385 . S
C616 C615 1.374 . S
C617 C614 1.499 . S
C617 C618 1.373 . S
C617 C619 1.389 . S
C618 H591 0.950 . S
C618 C604 1.377 . S
C618 C617 1.373 . S
C619 C603 1.377 . S
C619 C617 1.389 . S
C619 C620 1.524 . S
C620 C619 1.524 . S
C620 C621 1.397 . S
C620 C625 1.363 . S
C621 H592 0.950 . S
C621 C620 1.397 . S
C621 C622 1.334 . S
C622 H593 0.950 . S
C622 C621 1.334 . S
C622 C623 1.287 . S
C623 C622 1.287 . S
C623 C624 1.524 . S
C623 H626 0.999 . S
C624 H594 0.950 . S
C624 C623 1.524 . S
C624 C625 1.415 . S
C625 H595 0.950 . S
C625 C620 1.363 . S
C625 C624 1.415 . S
H626 C623 0.999 . S
H627 C608 0.913 . S
H628 C646 0.951 . S
H629 C648 0.951 . S
H630 C650 0.950 . S
H631 C651 0.950 . S
H632 C653 0.950 . S
H633 C656 0.950 . S
H634 C657 0.950 . S
H635 C659 0.950 . S
H636 C660 0.950 . S
H637 C661 0.951 . S
H638 C663 0.951 . S
H639 C665 0.950 . S
H640 C666 0.950 . S
H641 C668 0.950 . S
H642 C671 0.950 . S
H643 C672 0.950 . S
H644 C674 0.950 . S
H645 C675 0.950 . S
C646 H628 0.951 . S
C646 C647 1.366 . S
C646 C648 1.388 . S
C647 C646 1.366 . S
C647 C651 1.385 . S
C648 H629 0.951 . S
C648 C646 1.388 . S
C648 C649 1.366 . S
C649 C648 1.366 . S
C649 C650 1.414 . S
C649 C652 1.499 . S
C650 H630 0.950 . S
C650 C649 1.414 . S
C650 C651 1.374 . S
C651 H631 0.950 . S
C651 C647 1.385 . S
C651 C650 1.374 . S
C652 C649 1.499 . S
C652 C653 1.373 . S
C652 C654 1.389 . S
C653 H632 0.950 . S
C653 C652 1.373 . S
C653 C669 1.377 . S
C654 C652 1.389 . S
C654 C655 1.524 . S
C654 C668 1.377 . S
C655 C654 1.524 . S
C655 C656 1.397 . S
C655 C660 1.363 . S
C656 H633 0.950 . S
C656 C655 1.397 . S
C656 C657 1.334 . S
C657 H634 0.950 . S
C657 C656 1.334 . S
C657 C658 1.287 . S
C658 C657 1.287 . S
C658 C659 1.524 . S
C658 H677 0.913 . S
C659 H635 0.950 . S
C659 C658 1.524 . S
C659 C660 1.415 . S
C660 H636 0.950 . S
C660 C655 1.363 . S
C660 C659 1.415 . S
C661 H637 0.951 . S
C661 C662 1.366 . S
C661 C663 1.388 . S
C662 C661 1.366 . S
C662 C666 1.385 . S
C663 H638 0.951 . S
C663 C661 1.388 . S
C663 C664 1.366 . S
C664 C663 1.366 . S
C664 C665 1.414 . S
C664 C667 1.499 . S
C665 H639 0.950 . S
C665 C664 1.414 . S
C665 C666 1.374 . S
C666 H640 0.950 . S
C666 C662 1.385 . S
C666 C665 1.374 . S
C667 C664 1.499 . S
C667 C668 1.373 . S
C667 C669 1.389 . S
C668 H641 0.950 . S
C668 C654 1.377 . S
C668 C667 1.373 . S
C669 C653 1.377 . S
C669 C667 1.389 . S
C669 C670 1.524 . S
C670 C669 1.524 . S
C670 C671 1.397 . S
C670 C675 1.363 . S
C671 H642 0.950 . S
C671 C670 1.397 . S
C671 C672 1.334 . S
C672 H643 0.950 . S
C672 C671 1.334 . S
C672 C673 1.287 . S
C673 C672 1.287 . S
C673 C674 1.524 . S
C673 H676 0.999 . S
C674 H644 0.950 . S
C674 C673 1.524 . S
C674 C675 1.415 . S
C675 H645 0.950 . S
C675 C670 1.363 . S
C675 C674 1.415 . S
H676 C673 0.999 . S
H677 C658 0.913 . S
H678 C696 0.951 . S
H679 C698 0.951 . S
H680 C700 0.950 . S
H681 C701 0.950 . S
H682 C703 0.950 . S
H683 C706 0.950 . S
H684 C707 0.950 . S
H685 C709 0.950 . S
H686 C710 0.950 . S
H687 C711 0.951 . S
H688 C713 0.951 . S
H689 C715 0.950 . S
H690 C716 0.950 . S
H691 C718 0.950 . S
H692 C721 0.950 . S
H693 C722 0.950 . S
H694 C724 0.950 . S
H695 C725 0.950 . S
C696 H678 0.951 . S
C696 C697 1.366 . S
C696 C698 1.388 . S
C697 C696 1.366 . S
C697 C701 1.385 . S
C698 H679 0.951 . S
C698 C696 1.388 . S
C698 C699 1.366 . S
C699 C698 1.366 . S
C699 C700 1.414 . S
C699 C702 1.499 . S
C700 H680 0.950 . S
C700 C699 1.414 . S
C700 C701 1.374 . S
C701 H681 0.950 . S
C701 C697 1.385 . S
C701 C700 1.374 . S
C702 C699 1.499 . S
C702 C703 1.373 . S
C702 C704 1.389 . S
C703 H682 0.950 . S
C703 C702 1.373 . S
C703 C719 1.377 . S
C704 C702 1.389 . S
C704 C705 1.524 . S
C704 C718 1.377 . S
C705 C704 1.524 . S
C705 C706 1.397 . S
C705 C710 1.363 . S
C706 H683 0.950 . S
C706 C705 1.397 . S
C706 C707 1.334 . S
C707 H684 0.950 . S
C707 C706 1.334 . S
C707 C708 1.287 . S
C708 C707 1.287 . S
C708 C709 1.524 . S
C708 H727 0.913 . S
C709 H685 0.950 . S
C709 C708 1.524 . S
C709 C710 1.415 . S
C710 H686 0.950 . S
C710 C705 1.363 . S
C710 C709 1.415 . S
C711 H687 0.951 . S
C711 C712 1.366 . S
C711 C713 1.388 . S
C712 C711 1.366 . S
C712 C716 1.385 . S
C713 H688 0.951 . S
C713 C711 1.388 . S
C713 C714 1.366 . S
C714 C713 1.366 . S
C714 C715 1.414 . S
C714 C717 1.499 . S
C715 H689 0.950 . S
C715 C714 1.414 . S
C715 C716 1.374 . S
C716 H690 0.950 . S
C716 C712 1.385 . S
C716 C715 1.374 . S
C717 C714 1.499 . S
C717 C718 1.373 . S
C717 C719 1.389 . S
C718 H691 0.950 . S
C718 C704 1.377 . S
C718 C717 1.373 . S
C719 C703 1.377 . S
C719 C717 1.389 . S
C719 C720 1.524 . S
C720 C719 1.524 . S
C720 C721 1.397 . S
C720 C725 1.363 . S
C721 H692 0.950 . S
C721 C720 1.397 . S
C721 C722 1.334 . S
C722 H693 0.950 . S
C722 C721 1.334 . S
C722 C723 1.287 . S
C723 C722 1.287 . S
C723 C724 1.524 . S
C723 H726 0.999 . S
C724 H694 0.950 . S
C724 C723 1.524 . S
C724 C725 1.415 . S
C725 H695 0.950 . S
C725 C720 1.363 . S
C725 C724 1.415 . S
H726 C723 0.999 . S
H727 C708 0.913 . S
H728 C746 0.951 . S
H729 C748 0.951 . S
H730 C750 0.950 . S
H731 C751 0.950 . S
H732 C753 0.950 . S
H733 C756 0.950 . S
H734 C757 0.950 . S
H735 C759 0.950 . S
H736 C760 0.950 . S
H737 C761 0.951 . S
H738 C763 0.951 . S
H739 C765 0.950 . S
H740 C766 0.950 . S
H741 C768 0.950 . S
H742 C771 0.950 . S
H743 C772 0.950 . S
H744 C774 0.950 . S
H745 C775 0.950 . S
C746 H728 0.951 . S
C746 C747 1.366 . S
C746 C748 1.388 . S
C747 C746 1.366 . S
C747 C751 1.385 . S
C748 H729 0.951 . S
C748 C746 1.388 . S
C748 C749 1.366 . S
C749 C748 1.366 . S
C749 C750 1.414 . S
C749 C752 1.499 . S
C750 H730 0.950 . S
C750 C749 1.414 . S
C750 C751 1.374 . S
C751 H731 0.950 . S
C751 C747 1.385 . S
C751 C750 1.374 . S
C752 C749 1.499 . S
C752 C753 1.373 . S
C752 C754 1.389 . S
C753 H732 0.950 . S
C753 C752 1.373 . S
C753 C769 1.377 . S
C754 C752 1.389 . S
C754 C755 1.524 . S
C754 C768 1.377 . S
C755 C754 1.524 . S
C755 C756 1.397 . S
C755 C760 1.363 . S
C756 H733 0.950 . S
C756 C755 1.397 . S
C756 C757 1.334 . S
C757 H734 0.950 . S
C757 C756 1.334 . S
C757 C758 1.287 . S
C758 C757 1.287 . S
C758 C759 1.524 . S
C758 H777 0.913 . S
C759 H735 0.950 . S
C759 C758 1.524 . S
C759 C760 1.415 . S
C760 H736 0.950 . S
C760 C755 1.363 . S
C760 C759 1.415 . S
C761 H737 0.951 . S
C761 C762 1.366 . S
C761 C763 1.388 . S
C762 C761 1.366 . S
C762 C766 1.385 . S
C763 H738 0.951 . S
C763 C761 1.388 . S
C763 C764 1.366 . S
C764 C763 1.366 . S
C764 C765 1.414 . S
C764 C767 1.499 . S
C765 H739 0.950 . S
C765 C764 1.414 . S
C765 C766 1.374 . S
C766 H740 0.950 . S
C766 C762 1.385 . S
C766 C765 1.374 . S
C767 C764 1.499 . S
C767 C768 1.373 . S
C767 C769 1.389 . S
C768 H741 0.950 . S
C768 C754 1.377 . S
C768 C767 1.373 . S
C769 C753 1.377 . S
C769 C767 1.389 . S
C769 C770 1.524 . S
C770 C769 1.524 . S
C770 C771 1.397 . S
C770 C775 1.363 . S
C771 H742 0.950 . S
C771 C770 1.397 . S
C771 C772 1.334 . S
C772 H743 0.950 . S
C772 C771 1.334 . S
C772 C773 1.287 . S
C773 C772 1.287 . S
C773 C774 1.524 . S
C773 H776 0.999 . S
C774 H744 0.950 . S
C774 C773 1.524 . S
C774 C775 1.415 . S
C775 H745 0.950 . S
C775 C770 1.363 . S
C775 C774 1.415 . S
H776 C773 0.999 . S
H777 C758 0.913 . S
H778 C796 0.951 . S
H779 C798 0.951 . S
H780 C800 0.950 . S
H781 C801 0.950 . S
H782 C803 0.950 . S
H783 C806 0.950 . S
H784 C807 0.950 . S
H785 C809 0.950 . S
H786 C810 0.950 . S
H787 C811 0.951 . S
H788 C813 0.951 . S
H789 C815 0.950 . S
H790 C816 0.950 . S
H791 C818 0.950 . S
H792 C821 0.950 . S
H793 C822 0.950 . S
H794 C824 0.950 . S
H795 C825 0.950 . S
C796 H778 0.951 . S
C796 C797 1.366 . S
C796 C798 1.388 . S
C797 C796 1.366 . S
C797 C801 1.385 . S
C798 H779 0.951 . S
C798 C796 1.388 . S
C798 C799 1.366 . S
C799 C798 1.366 . S
C799 C800 1.414 . S
C799 C802 1.499 . S
C800 H780 0.950 . S
C800 C799 1.414 . S
C800 C801 1.374 . S
C801 H781 0.950 . S
C801 C797 1.385 . S
C801 C800 1.374 . S
C802 C799 1.499 . S
C802 C803 1.373 . S
C802 C804 1.389 . S
C803 H782 0.950 . S
C803 C802 1.373 . S
C803 C819 1.377 . S
C804 C802 1.389 . S
C804 C805 1.524 . S
C804 C818 1.377 . S
C805 C804 1.524 . S
C805 C806 1.397 . S
C805 C810 1.363 . S
C806 H783 0.950 . S
C806 C805 1.397 . S
C806 C807 1.334 . S
C807 H784 0.950 . S
C807 C806 1.334 . S
C807 C808 1.287 . S
C808 C807 1.287 . S
C808 C809 1.524 . S
C808 H827 0.913 . S
C809 H785 0.950 . S
C809 C808 1.524 . S
C809 C810 1.415 . S
C810 H786 0.950 . S
C810 C805 1.363 . S
C810 C809 1.415 . S
C811 H787 0.951 . S
C811 C812 1.366 . S
C811 C813 1.388 . S
C812 C811 1.366 . S
C812 C816 1.385 . S
C813 H788 0.951 . S
C813 C811 1.388 . S
C813 C814 1.366 . S
C814 C813 1.366 . S
C814 C815 1.414 . S
C814 C817 1.499 . S
C815 H789 0.950 . S
C815 C814 1.414 . S
C815 C816 1.374 . S
C816 H790 0.950 . S
C816 C812 1.385 . S
C816 C815 1.374 . S
C817 C814 1.499 . S
C817 C818 1.373 . S
C817 C819 1.389 . S
C818 H791 0.950 . S
C818 C804 1.377 . S
C818 C817 1.373 . S
C819 C803 1.377 . S
C819 C817 1.389 . S
C819 C820 1.524 . S
C820 C819 1.524 . S
C820 C821 1.397 . S
C820 C825 1.363 . S
C821 H792 0.950 . S
C821 C820 1.397 . S
C821 C822 1.334 . S
C822 H793 0.950 . S
C822 C821 1.334 . S
C822 C823 1.287 . S
C823 C822 1.287 . S
C823 C824 1.524 . S
C823 H826 0.999 . S
C824 H794 0.950 . S
C824 C823 1.524 . S
C824 C825 1.415 . S
C825 H795 0.950 . S
C825 C820 1.363 . S
C825 C824 1.415 . S
H826 C823 0.999 . S
H827 C808 0.913 . S
H828 C846 0.951 . S
H829 C848 0.951 . S
H830 C850 0.950 . S
H831 C851 0.950 . S
H832 C853 0.950 . S
H833 C856 0.950 . S
H834 C857 0.950 . S
H835 C859 0.950 . S
H836 C860 0.950 . S
H837 C861 0.951 . S
H838 C863 0.951 . S
H839 C865 0.950 . S
H840 C866 0.950 . S
H841 C868 0.950 . S
H842 C871 0.950 . S
H843 C872 0.950 . S
H844 C874 0.950 . S
H845 C875 0.950 . S
C846 H828 0.951 . S
C846 C847 1.366 . S
C846 C848 1.388 . S
C847 C846 1.366 . S
C847 C851 1.385 . S
C848 H829 0.951 . S
C848 C846 1.388 . S
C848 C849 1.366 . S
C849 C848 1.366 . S
C849 C850 1.414 . S
C849 C852 1.499 . S
C850 H830 0.950 . S
C850 C849 1.414 . S
C850 C851 1.374 . S
C851 H831 0.950 . S
C851 C847 1.385 . S
C851 C850 1.374 . S
C852 C849 1.499 . S
C852 C853 1.373 . S
C852 C854 1.389 . S
C853 H832 0.950 . S
C853 C852 1.373 . S
C853 C869 1.377 . S
C854 C852 1.389 . S
C854 C855 1.524 . S
C854 C868 1.377 . S
C855 C854 1.524 . S
C855 C856 1.397 . S
C855 C860 1.363 . S
C856 H833 0.950 . S
C856 C855 1.397 . S
C856 C857 1.334 . S
C857 H834 0.950 . S
C857 C856 1.334 . S
C857 C858 1.287 . S
C858 C857 1.287 . S
C858 C859 1.524 . S
C858 H877 0.913 . S
C859 H835 0.950 . S
C859 C858 1.524 . S
C859 C860 1.415 . S
C860 H836 0.950 . S
C860 C855 1.363 . S
C860 C859 1.415 . S
C861 H837 0.951 . S
C861 C862 1.366 . S
C861 C863 1.388 . S
C862 C861 1.366 . S
C862 C866 1.385 . S
C863 H838 0.951 . S
C863 C861 1.388 . S
C863 C864 1.366 . S
C864 C863 1.366 . S
C864 C865 1.414 . S
C864 C867 1.499 . S
C865 H839 0.950 . S
C865 C864 1.414 . S
C865 C866 1.374 . S
C866 H840 0.950 . S
C866 C862 1.385 . S
C866 C865 1.374 . S
C867 C864 1.499 . S
C867 C868 1.373 . S
C867 C869 1.389 . S
C868 H841 0.950 . S
C868 C854 1.377 . S
C868 C867 1.373 . S
C869 C853 1.377 . S
C869 C867 1.389 . S
C869 C870 1.524 . S
C870 C869 1.524 . S
C870 C871 1.397 . S
C870 C875 1.363 . S
C871 H842 0.950 . S
C871 C870 1.397 . S
C871 C872 1.334 . S
C872 H843 0.950 . S
C872 C871 1.334 . S
C872 C873 1.287 . S
C873 C872 1.287 . S
C873 C874 1.524 . S
C873 H876 0.999 . S
C874 H844 0.950 . S
C874 C873 1.524 . S
C874 C875 1.415 . S
C875 H845 0.950 . S
C875 C870 1.363 . S
C875 C874 1.415 . S
H876 C873 0.999 . S
H877 C858 0.913 . S
H878 C896 0.951 . S
H879 C898 0.951 . S
H880 C900 0.950 . S
H881 C901 0.950 . S
H882 C903 0.950 . S
H883 C906 0.950 . S
H884 C907 0.950 . S
H885 C909 0.950 . S
H886 C910 0.950 . S
H887 C911 0.951 . S
H888 C913 0.951 . S
H889 C915 0.950 . S
H890 C916 0.950 . S
H891 C918 0.950 . S
H892 C921 0.950 . S
H893 C922 0.950 . S
H894 C924 0.950 . S
H895 C925 0.950 . S
C896 H878 0.951 . S
C896 C897 1.366 . S
C896 C898 1.388 . S
C897 C896 1.366 . S
C897 C901 1.385 . S
C898 H879 0.951 . S
C898 C896 1.388 . S
C898 C899 1.366 . S
C899 C898 1.366 . S
C899 C900 1.414 . S
C899 C902 1.499 . S
C900 H880 0.950 . S
C900 C899 1.414 . S
C900 C901 1.374 . S
C901 H881 0.950 . S
C901 C897 1.385 . S
C901 C900 1.374 . S
C902 C899 1.499 . S
C902 C903 1.373 . S
C902 C904 1.389 . S
C903 H882 0.950 . S
C903 C902 1.373 . S
C903 C919 1.377 . S
C904 C902 1.389 . S
C904 C905 1.524 . S
C904 C918 1.377 . S
C905 C904 1.524 . S
C905 C906 1.397 . S
C905 C910 1.363 . S
C906 H883 0.950 . S
C906 C905 1.397 . S
C906 C907 1.334 . S
C907 H884 0.950 . S
C907 C906 1.334 . S
C907 C908 1.287 . S
C908 C907 1.287 . S
C908 C909 1.524 . S
C908 H927 0.913 . S
C909 H885 0.950 . S
C909 C908 1.524 . S
C909 C910 1.415 . S
C910 H886 0.950 . S
C910 C905 1.363 . S
C910 C909 1.415 . S
C911 H887 0.951 . S
C911 C912 1.366 . S
C911 C913 1.388 . S
C912 C911 1.366 . S
C912 C916 1.385 . S
C913 H888 0.951 . S
C913 C911 1.388 . S
C913 C914 1.366 . S
C914 C913 1.366 . S
C914 C915 1.414 . S
C914 C917 1.499 . S
C915 H889 0.950 . S
C915 C914 1.414 . S
C915 C916 1.374 . S
C916 H890 0.950 . S
C916 C912 1.385 . S
C916 C915 1.374 . S
C917 C914 1.499 . S
C917 C918 1.373 . S
C917 C919 1.389 . S
C918 H891 0.950 . S
C918 C904 1.377 . S
C918 C917 1.373 . S
C919 C903 1.377 . S
C919 C917 1.389 . S
C919 C920 1.524 . S
C920 C919 1.524 . S
C920 C921 1.397 . S
C920 C925 1.363 . S
C921 H892 0.950 . S
C921 C920 1.397 . S
C921 C922 1.334 . S
C922 H893 0.950 . S
C922 C921 1.334 . S
C922 C923 1.287 . S
C923 C922 1.287 . S
C923 C924 1.524 . S
C923 H926 0.999 . S
C924 H894 0.950 . S
C924 C923 1.524 . S
C924 C925 1.415 . S
C925 H895 0.950 . S
C925 C920 1.363 . S
C925 C924 1.415 . S
H926 C923 0.999 . S
H927 C908 0.913 . S
H928 C946 0.951 . S
H929 C948 0.951 . S
H930 C950 0.950 . S
H931 C951 0.950 . S
H932 C953 0.950 . S
H933 C956 0.950 . S
H934 C957 0.950 . S
H935 C959 0.950 . S
H936 C960 0.950 . S
H937 C961 0.951 . S
H938 C963 0.951 . S
H939 C965 0.950 . S
H940 C966 0.950 . S
H941 C968 0.950 . S
H942 C971 0.950 . S
H943 C972 0.950 . S
H944 C974 0.950 . S
H945 C975 0.950 . S
C946 H928 0.951 . S
C946 C947 1.366 . S
C946 C948 1.388 . S
C947 C946 1.366 . S
C947 C951 1.385 . S
C948 H929 0.951 . S
C948 C946 1.388 . S
C948 C949 1.366 . S
C949 C948 1.366 . S
C949 C950 1.414 . S
C949 C952 1.499 . S
C950 H930 0.950 . S
C950 C949 1.414 . S
C950 C951 1.374 . S
C951 H931 0.950 . S
C951 C947 1.385 . S
C951 C950 1.374 . S
C952 C949 1.499 . S
C952 C953 1.373 . S
C952 C954 1.389 . S
C953 H932 0.950 . S
C953 C952 1.373 . S
C953 C969 1.377 . S
C954 C952 1.389 . S
C954 C955 1.524 . S
C954 C968 1.377 . S
C955 C954 1.524 . S
C955 C956 1.397 . S
C955 C960 1.363 . S
C956 H933 0.950 . S
C956 C955 1.397 . S
C956 C957 1.334 . S
C957 H934 0.950 . S
C957 C956 1.334 . S
C957 C958 1.287 . S
C958 C957 1.287 . S
C958 C959 1.524 . S
C958 H977 0.913 . S
C959 H935 0.950 . S
C959 C958 1.524 . S
C959 C960 1.415 . S
C960 H936 0.950 . S
C960 C955 1.363 . S
C960 C959 1.415 . S
C961 H937 0.951 . S
C961 C962 1.366 . S
C961 C963 1.388 . S
C962 C961 1.366 . S
C962 C966 1.385 . S
C963 H938 0.951 . S
C963 C961 1.388 . S
C963 C964 1.366 . S
C964 C963 1.366 . S
C964 C965 1.414 . S
C964 C967 1.499 . S
C965 H939 0.950 . S
C965 C964 1.414 . S
C965 C966 1.374 . S
C966 H940 0.950 . S
C966 C962 1.385 . S
C966 C965 1.374 . S
C967 C964 1.499 . S
C967 C968 1.373 . S
C967 C969 1.389 . S
C968 H941 0.950 . S
C968 C954 1.377 . S
C968 C967 1.373 . S
C969 C953 1.377 . S
C969 C967 1.389 . S
C969 C970 1.524 . S
C970 C969 1.524 . S
C970 C971 1.397 . S
C970 C975 1.363 . S
C971 H942 0.950 . S
C971 C970 1.397 . S
C971 C972 1.334 . S
C972 H943 0.950 . S
C972 C971 1.334 . S
C972 C973 1.287 . S
C973 C972 1.287 . S
C973 C974 1.524 . S
C973 H976 0.999 . S
C974 H944 0.950 . S
C974 C973 1.524 . S
C974 C975 1.415 . S
C975 H945 0.950 . S
C975 C970 1.363 . S
C975 C974 1.415 . S
H976 C973 0.999 . S
H977 C958 0.913 . S
H978 C996 0.951 . S
H979 C998 0.951 . S
H980 C1000 0.950 . S
H981 C1001 0.950 . S
H982 C1003 0.950 . S
H983 C1006 0.950 . S
H984 C1007 0.950 . S
H985 C1009 0.950 . S
H986 C1010 0.950 . S
H987 C1011 0.951 . S
H988 C1013 0.951 . S
H989 C1015 0.950 . S
H990 C1016 0.950 . S
H991 C1018 0.950 . S
H992 C1021 0.950 . S
H993 C1022 0.950 . S
H994 C1024 0.950 . S
H995 C1025 0.950 . S
C996 H978 0.951 . S
C996 C997 1.366 . S
C996 C998 1.388 . S
C997 C996 1.366 . S
C997 C1001 1.385 . S
C998 H979 0.951 . S
C998 C996 1.388 . S
C998 C999 1.366 . S
C999 C998 1.366 . S
C999 C1000 1.414 . S
C999 C1002 1.499 . S
C1000 H980 0.950 . S
C1000 C999 1.414 . S
C1000 C1001 1.374 . S
C1001 H981 0.950 . S
C1001 C997 1.385 . S
C1001 C1000 1.374 . S
C1002 C999 1.499 . S
C1002 C1003 1.373 . S
C1002 C1004 1.389 . S
C1003 H982 0.950 . S
C1003 C1002 1.373 . S
C1003 C1019 1.377 . S
C1004 C1002 1.389 . S
C1004 C1005 1.524 . S
C1004 C1018 1.377 . S
C1005 C1004 1.524 . S
C1005 C1006 1.397 . S
C1005 C1010 1.363 . S
C1006 H983 0.950 . S
C1006 C1005 1.397 . S
C1006 C1007 1.334 . S
C1007 H984 0.950 . S
C1007 C1006 1.334 . S
C1007 C1008 1.287 . S
C1008 C1007 1.287 . S
C1008 C1009 1.524 . S
C1008 H1027 0.913 . S
C1009 H985 0.950 . S
C1009 C1008 1.524 . S
C1009 C1010 1.415 . S
C1010 H986 0.950 . S
C1010 C1005 1.363 . S
C1010 C1009 1.415 . S
C1011 H987 0.951 . S
C1011 C1012 1.366 . S
C1011 C1013 1.388 . S
C1012 C1011 1.366 . S
C1012 C1016 1.385 . S
C1013 H988 0.951 . S
C1013 C1011 1.388 . S
C1013 C1014 1.366 . S
C1014 C1013 1.366 . S
C1014 C1015 1.414 . S
C1014 C1017 1.499 . S
C1015 H989 0.950 . S
C1015 C1014 1.414 . S
C1015 C1016 1.374 . S
C1016 H990 0.950 . S
C1016 C1012 1.385 . S
C1016 C1015 1.374 . S
C1017 C1014 1.499 . S
C1017 C1018 1.373 . S
C1017 C1019 1.389 . S
C1018 H991 0.950 . S
C1018 C1004 1.377 . S
C1018 C1017 1.373 . S
C1019 C1003 1.377 . S
C1019 C1017 1.389 . S
C1019 C1020 1.524 . S
C1020 C1019 1.524 . S
C1020 C1021 1.397 . S
C1020 C1025 1.363 . S
C1021 H992 0.950 . S
C1021 C1020 1.397 . S
C1021 C1022 1.334 . S
C1022 H993 0.950 . S
C1022 C1021 1.334 . S
C1022 C1023 1.287 . S
C1023 C1022 1.287 . S
C1023 C1024 1.524 . S
C1023 H1026 0.999 . S
C1024 H994 0.950 . S
C1024 C1023 1.524 . S
C1024 C1025 1.415 . S
C1025 H995 0.950 . S
C1025 C1020 1.363 . S
C1025 C1024 1.415 . S
H1026 C1023 0.999 . S
H1027 C1008 0.913 . S
H1028 C1046 0.951 . S
H1029 C1048 0.951 . S
H1030 C1050 0.950 . S
H1031 C1051 0.950 . S
H1032 C1053 0.950 . S
H1033 C1056 0.950 . S
H1034 C1057 0.950 . S
H1035 C1059 0.950 . S
H1036 C1060 0.950 . S
H1037 C1061 0.951 . S
H1038 C1063 0.951 . S
H1039 C1065 0.950 . S
H1040 C1066 0.950 . S
H1041 C1068 0.950 . S
H1042 C1071 0.950 . S
H1043 C1072 0.950 . S
H1044 C1074 0.950 . S
H1045 C1075 0.950 . S
C1046 H1028 0.951 . S
C1046 C1047 1.366 . S
C1046 C1048 1.388 . S
C1047 C1046 1.366 . S
C1047 C1051 1.385 . S
C1048 H1029 0.951 . S
C1048 C1046 1.388 . S
C1048 C1049 1.366 . S
C1049 C1048 1.366 . S
C1049 C1050 1.414 . S
C1049 C1052 1.499 . S
C1050 H1030 0.950 . S
C1050 C1049 1.414 . S
C1050 C1051 1.374 . S
C1051 H1031 0.950 . S
C1051 C1047 1.385 . S
C1051 C1050 1.374 . S
C1052 C1049 1.499 . S
C1052 C1053 1.373 . S
C1052 C1054 1.389 . S
C1053 H1032 0.950 . S
C1053 C1052 1.373 . S
C1053 C1069 1.377 . S
C1054 C1052 1.389 . S
C1054 C1055 1.524 . S
C1054 C1068 1.377 . S
C1055 C1054 1.524 . S
C1055 C1056 1.397 . S
C1055 C1060 1.363 . S
C1056 H1033 0.950 . S
C1056 C1055 1.397 . S
C1056 C1057 1.334 . S
C1057 H1034 0.950 . S
C1057 C1056 1.334 . S
C1057 C1058 1.287 . S
C1058 C1057 1.287 . S
C1058 C1059 1.524 . S
C1058 H1077 0.913 . S
C1059 H1035 0.950 . S
C1059 C1058 1.524 . S
C1059 C1060 1.415 . S
C1060 H1036 0.950 . S
C1060 C1055 1.363 . S
C1060 C1059 1.415 . S
C1061 H1037 0.951 . S
C1061 C1062 1.366 . S
C1061 C1063 1.388 . S
C1062 C1061 1.366 . S
C1062 C1066 1.385 . S
C1063 H1038 0.951 . S
C1063 C1061 1.388 . S
C1063 C1064 1.366 . S
C1064 C1063 1.366 . S
C1064 C1065 1.414 . S
C1064 C1067 1.499 . S
C1065 H1039 0.950 . S
C1065 C1064 1.414 . S
C1065 C1066 1.374 . S
C1066 H1040 0.950 . S
C1066 C1062 1.385 . S
C1066 C1065 1.374 . S
C1067 C1064 1.499 . S
C1067 C1068 1.373 . S
C1067 C1069 1.389 . S
C1068 H1041 0.950 . S
C1068 C1054 1.377 . S
C1068 C1067 1.373 . S
C1069 C1053 1.377 . S
C1069 C1067 1.389 . S
C1069 C1070 1.524 . S
C1070 C1069 1.524 . S
C1070 C1071 1.397 . S
C1070 C1075 1.363 . S
C1071 H1042 0.950 . S
C1071 C1070 1.397 . S
C1071 C1072 1.334 . S
C1072 H1043 0.950 . S
C1072 C1071 1.334 . S
C1072 C1073 1.287 . S
C1073 C1072 1.287 . S
C1073 C1074 1.524 . S
C1073 H1076 0.999 . S
C1074 H1044 0.950 . S
C1074 C1073 1.524 . S
C1074 C1075 1.415 . S
C1075 H1045 0.950 . S
C1075 C1070 1.363 . S
C1075 C1074 1.415 . S
H1076 C1073 0.999 . S
H1077 C1058 0.913 . S
H1078 C1096 0.951 . S
H1079 C1098 0.951 . S
H1080 C1100 0.950 . S
H1081 C1101 0.950 . S
H1082 C1103 0.950 . S
H1083 C1106 0.950 . S
H1084 C1107 0.950 . S
H1085 C1109 0.950 . S
H1086 C1110 0.950 . S
H1087 C1111 0.951 . S
H1088 C1113 0.951 . S
H1089 C1115 0.950 . S
H1090 C1116 0.950 . S
H1091 C1118 0.950 . S
H1092 C1121 0.950 . S
H1093 C1122 0.950 . S
H1094 C1124 0.950 . S
H1095 C1125 0.950 . S
C1096 H1078 0.951 . S
C1096 C1097 1.366 . S
C1096 C1098 1.388 . S
C1097 C1096 1.366 . S
C1097 C1101 1.385 . S
C1098 H1079 0.951 . S
C1098 C1096 1.388 . S
C1098 C1099 1.366 . S
C1099 C1098 1.366 . S
C1099 C1100 1.414 . S
C1099 C1102 1.499 . S
C1100 H1080 0.950 . S
C1100 C1099 1.414 . S
C1100 C1101 1.374 . S
C1101 H1081 0.950 . S
C1101 C1097 1.385 . S
C1101 C1100 1.374 . S
C1102 C1099 1.499 . S
C1102 C1103 1.373 . S
C1102 C1104 1.389 . S
C1103 H1082 0.950 . S
C1103 C1102 1.373 . S
C1103 C1119 1.377 . S
C1104 C1102 1.389 . S
C1104 C1105 1.524 . S
C1104 C1118 1.377 . S
C1105 C1104 1.524 . S
C1105 C1106 1.397 . S
C1105 C1110 1.363 . S
C1106 H1083 0.950 . S
C1106 C1105 1.397 . S
C1106 C1107 1.334 . S
C1107 H1084 0.950 . S
C1107 C1106 1.334 . S
C1107 C1108 1.287 . S
C1108 C1107 1.287 . S
C1108 C1109 1.524 . S
C1108 H1127 0.913 . S
C1109 H1085 0.950 . S
C1109 C1108 1.524 . S
C1109 C1110 1.415 . S
C1110 H1086 0.950 . S
C1110 C1105 1.363 . S
C1110 C1109 1.415 . S
C1111 H1087 0.951 . S
C1111 C1112 1.366 . S
C1111 C1113 1.388 . S
C1112 C1111 1.366 . S
C1112 C1116 1.385 . S
C1113 H1088 0.951 . S
C1113 C1111 1.388 . S
C1113 C1114 1.366 . S
C1114 C1113 1.366 . S
C1114 C1115 1.414 . S
C1114 C1117 1.499 . S
C1115 H1089 0.950 . S
C1115 C1114 1.414 . S
C1115 C1116 1.374 . S
C1116 H1090 0.950 . S
C1116 C1112 1.385 . S
C1116 C1115 1.374 . S
C1117 C1114 1.499 . S
C1117 C1118 1.373 . S
C1117 C1119 1.389 . S
C1118 H1091 0.950 . S
C1118 C1104 1.377 . S
C1118 C1117 1.373 . S
C1119 C1103 1.377 . S
C1119 C1117 1.389 . S
C1119 C1120 1.524 . S
C1120 C1119 1.524 . S
C1120 C1121 1.397 . S
C1120 C1125 1.363 . S
C1121 H1092 0.950 . S
C1121 C1120 1.397 . S
C1121 C1122 1.334 . S
C1122 H1093 0.950 . S
C1122 C1121 1.334 . S
C1122 C1123 1.287 . S
C1123 C1122 1.287 . S
C1123 C1124 1.524 . S
C1123 H1126 0.999 . S
C1124 H1094 0.950 . S
C1124 C1123 1.524 . S
C1124 C1125 1.415 . S
C1125 H1095 0.950 . S
C1125 C1120 1.363 . S
C1125 C1124 1.415 . S
H1126 C1123 0.999 . S
H1127 C1108 0.913 . S
H1128 C1146 0.951 . S
H1129 C1148 0.951 . S
H1130 C1150 0.950 . S
H1131 C1151 0.950 . S
H1132 C1153 0.950 . S
H1133 C1156 0.950 . S
H1134 C1157 0.950 . S
H1135 C1159 0.950 . S
H1136 C1160 0.950 . S
H1137 C1161 0.951 . S
H1138 C1163 0.951 . S
H1139 C1165 0.950 . S
H1140 C1166 0.950 . S
H1141 C1168 0.950 . S
H1142 C1171 0.950 . S
H1143 C1172 0.950 . S
H1144 C1174 0.950 . S
H1145 C1175 0.950 . S
C1146 H1128 0.951 . S
C1146 C1147 1.366 . S
C1146 C1148 1.388 . S
C1147 C1146 1.366 . S
C1147 C1151 1.385 . S
C1148 H1129 0.951 . S
C1148 C1146 1.388 . S
C1148 C1149 1.366 . S
C1149 C1148 1.366 . S
C1149 C1150 1.414 . S
C1149 C1152 1.499 . S
C1150 H1130 0.950 . S
C1150 C1149 1.414 . S
C1150 C1151 1.374 . S
C1151 H1131 0.950 . S
C1151 C1147 1.385 . S
C1151 C1150 1.374 . S
C1152 C1149 1.499 . S
C1152 C1153 1.373 . S
C1152 C1154 1.389 . S
C1153 H1132 0.950 . S
C1153 C1152 1.373 . S
C1153 C1169 1.377 . S
C1154 C1152 1.389 . S
C1154 C1155 1.524 . S
C1154 C1168 1.377 . S
C1155 C1154 1.524 . S
C1155 C1156 1.397 . S
C1155 C1160 1.363 . S
C1156 H1133 0.950 . S
C1156 C1155 1.397 . S
C1156 C1157 1.334 . S
C1157 H1134 0.950 . S
C1157 C1156 1.334 . S
C1157 C1158 1.287 . S
C1158 C1157 1.287 . S
C1158 C1159 1.524 . S
C1158 H1177 0.913 . S
C1159 H1135 0.950 . S
C1159 C1158 1.524 . S
C1159 C1160 1.415 . S
C1160 H1136 0.950 . S
C1160 C1155 1.363 . S
C1160 C1159 1.415 . S
C1161 H1137 0.951 . S
C1161 C1162 1.366 . S
C1161 C1163 1.388 . S
C1162 C1161 1.366 . S
C1162 C1166 1.385 . S
C1163 H1138 0.951 . S
C1163 C1161 1.388 . S
C1163 C1164 1.366 . S
C1164 C1163 1.366 . S
C1164 C1165 1.414 . S
C1164 C1167 1.499 . S
C1165 H1139 0.950 . S
C1165 C1164 1.414 . S
C1165 C1166 1.374 . S
C1166 H1140 0.950 . S
C1166 C1162 1.385 . S
C1166 C1165 1.374 . S
C1167 C1164 1.499 . S
C1167 C1168 1.373 . S
C1167 C1169 1.389 . S
C1168 H1141 0.950 . S
C1168 C1154 1.377 . S
C1168 C1167 1.373 . S
C1169 C1153 1.377 . S
C1169 C1167 1.389 . S
C1169 C1170 1.524 . S
C1170 C1169 1.524 . S
C1170 C1171 1.397 . S
C1170 C1175 1.363 . S
C1171 H1142 0.950 . S
C1171 C1170 1.397 . S
C1171 C1172 1.334 . S
C1172 H1143 0.950 . S
C1172 C1171 1.334 . S
C1172 C1173 1.287 . S
C1173 C1172 1.287 . S
C1173 C1174 1.524 . S
C1173 H1176 0.999 . S
C1174 H1144 0.950 . S
C1174 C1173 1.524 . S
C1174 C1175 1.415 . S
C1175 H1145 0.950 . S
C1175 C1170 1.363 . S
C1175 C1174 1.415 . S
H1176 C1173 0.999 . S
H1177 C1158 0.913 . S
H1178 C1196 0.951 . S
H1179 C1198 0.951 . S
H1180 C1200 0.950 . S
H1181 C1201 0.950 . S
H1182 C1203 0.950 . S
H1183 C1206 0.950 . S
H1184 C1207 0.950 . S
H1185 C1209 0.950 . S
H1186 C1210 0.950 . S
H1187 C1211 0.951 . S
H1188 C1213 0.951 . S
H1189 C1215 0.950 . S
H1190 C1216 0.950 . S
H1191 C1218 0.950 . S
H1192 C1221 0.950 . S
H1193 C1222 0.950 . S
H1194 C1224 0.950 . S
H1195 C1225 0.950 . S
C1196 H1178 0.951 . S
C1196 C1197 1.366 . S
C1196 C1198 1.388 . S
C1197 C1196 1.366 . S
C1197 C1201 1.385 . S
C1198 H1179 0.951 . S
C1198 C1196 1.388 . S
C1198 C1199 1.366 . S
C1199 C1198 1.366 . S
C1199 C1200 1.414 . S
C1199 C1202 1.499 . S
C1200 H1180 0.950 . S
C1200 C1199 1.414 . S
C1200 C1201 1.374 . S
C1201 H1181 0.950 . S
C1201 C1197 1.385 . S
C1201 C1200 1.374 . S
C1202 C1199 1.499 . S
C1202 C1203 1.373 . S
C1202 C1204 1.389 . S
C1203 H1182 0.950 . S
C1203 C1202 1.373 . S
C1203 C1219 1.377 . S
C1204 C1202 1.389 . S
C1204 C1205 1.524 . S
C1204 C1218 1.377 . S
C1205 C1204 1.524 . S
C1205 C1206 1.397 . S
C1205 C1210 1.363 . S
C1206 H1183 0.950 . S
C1206 C1205 1.397 . S
C1206 C1207 1.334 . S
C1207 H1184 0.950 . S
C1207 C1206 1.334 . S
C1207 C1208 1.287 . S
C1208 C1207 1.287 . S
C1208 C1209 1.524 . S
C1208 H1227 0.913 . S
C1209 H1185 0.950 . S
C1209 C1208 1.524 . S
C1209 C1210 1.415 . S
C1210 H1186 0.950 . S
C1210 C1205 1.363 . S
C1210 C1209 1.415 . S
C1211 H1187 0.951 . S
C1211 C1212 1.366 . S
C1211 C1213 1.388 . S
C1212 C1211 1.366 . S
C1212 C1216 1.385 . S
C1213 H1188 0.951 . S
C1213 C1211 1.388 . S
C1213 C1214 1.366 . S
C1214 C1213 1.366 . S
C1214 C1215 1.414 . S
C1214 C1217 1.499 . S
C1215 H1189 0.950 . S
C1215 C1214 1.414 . S
C1215 C1216 1.374 . S
C1216 H1190 0.950 . S
C1216 C1212 1.385 . S
C1216 C1215 1.374 . S
C1217 C1214 1.499 . S
C1217 C1218 1.373 . S
C1217 C1219 1.389 . S
C1218 H1191 0.950 . S
C1218 C1204 1.377 . S
C1218 C1217 1.373 . S
C1219 C1203 1.377 . S
C1219 C1217 1.389 . S
C1219 C1220 1.524 . S
C1220 C1219 1.524 . S
C1220 C1221 1.397 . S
C1220 C1225 1.363 . S
C1221 H1192 0.950 . S
C1221 C1220 1.397 . S
C1221 C1222 1.334 . S
C1222 H1193 0.950 . S
C1222 C1221 1.334 . S
C1222 C1223 1.287 . S
C1223 C1222 1.287 . S
C1223 C1224 1.524 . S
C1223 H1226 0.999 . S
C1224 H1194 0.950 . S
C1224 C1223 1.524 . S
C1224 C1225 1.415 . S
C1225 H1195 0.950 . S
C1225 C1220 1.363 . S
C1225 C1224 1.415 . S
H1226 C1223 0.999 . S
H1227 C1208 0.913 . S
H1228 C1246 0.951 . S
H1229 C1248 0.951 . S
H1230 C1250 0.950 . S
H1231 C1251 0.950 . S
H1232 C1253 0.950 . S
H1233 C1256 0.950 . S
H1234 C1257 0.950 . S
H1235 C1259 0.950 . S
H1236 C1260 0.950 . S
H1237 C1261 0.951 . S
H1238 C1263 0.951 . S
H1239 C1265 0.950 . S
H1240 C1266 0.950 . S
H1241 C1268 0.950 . S
H1242 C1271 0.950 . S
H1243 C1272 0.950 . S
H1244 C1274 0.950 . S
H1245 C1275 0.950 . S
C1246 H1228 0.951 . S
C1246 C1247 1.366 . S
C1246 C1248 1.388 . S
C1247 C1246 1.366 . S
C1247 C1251 1.385 . S
C1248 H1229 0.951 . S
C1248 C1246 1.388 . S
C1248 C1249 1.366 . S
C1249 C1248 1.366 . S
C1249 C1250 1.414 . S
C1249 C1252 1.499 . S
C1250 H1230 0.950 . S
C1250 C1249 1.414 . S
C1250 C1251 1.374 . S
C1251 H1231 0.950 . S
C1251 C1247 1.385 . S
C1251 C1250 1.374 . S
C1252 C1249 1.499 . S
C1252 C1253 1.373 . S
C1252 C1254 1.389 . S
C1253 H1232 0.950 . S
C1253 C1252 1.373 . S
C1253 C1269 1.377 . S
C1254 C1252 1.389 . S
C1254 C1255 1.524 . S
C1254 C1268 1.377 . S
C1255 C1254 1.524 . S
C1255 C1256 1.397 . S
C1255 C1260 1.363 . S
C1256 H1233 0.950 . S
C1256 C1255 1.397 . S
C1256 C1257 1.334 . S
C1257 H1234 0.950 . S
C1257 C1256 1.334 . S
C1257 C1258 1.287 . S
C1258 C1257 1.287 . S
C1258 C1259 1.524 . S
C1258 H1277 0.913 . S
C1259 H1235 0.950 . S
C1259 C1258 1.524 . S
C1259 C1260 1.415 . S
C1260 H1236 0.950 . S
C1260 C1255 1.363 . S
C1260 C1259 1.415 . S
C1261 H1237 0.951 . S
C1261 C1262 1.366 . S
C1261 C1263 1.388 . S
C1262 C1261 1.366 . S
C1262 C1266 1.385 . S
C1263 H1238 0.951 . S
C1263 C1261 1.388 . S
C1263 C1264 1.366 . S
C1264 C1263 1.366 . S
C1264 C1265 1.414 . S
C1264 C1267 1.499 . S
C1265 H1239 0.950 . S
C1265 C1264 1.414 . S
C1265 C1266 1.374 . S
C1266 H1240 0.950 . S
C1266 C1262 1.385 . S
C1266 C1265 1.374 . S
C1267 C1264 1.499 . S
C1267 C1268 1.373 . S
C1267 C1269 1.389 . S
C1268 H1241 0.950 . S
C1268 C1254 1.377 . S
C1268 C1267 1.373 . S
C1269 C1253 1.377 . S
C1269 C1267 1.389 . S
C1269 C1270 1.524 . S
C1270 C1269 1.524 . S
C1270 C1271 1.397 . S
C1270 C1275 1.363 . S
C1271 H1242 0.950 . S
C1271 C1270 1.397 . S
C1271 C1272 1.334 . S
C1272 H1243 0.950 . S
C1272 C1271 1.334 . S
C1272 C1273 1.287 . S
C1273 C1272 1.287 . S
C1273 C1274 1.524 . S
C1273 H1276 0.999 . S
C1274 H1244 0.950 . S
C1274 C1273 1.524 . S
C1274 C1275 1.415 . S
C1275 H1245 0.950 . S
C1275 C1270 1.363 . S
C1275 C1274 1.415 . S
H1276 C1273 0.999 . S
H1277 C1258 0.913 . S
H1278 C1296 0.951 . S
H1279 C1298 0.951 . S
H1280 C1300 0.950 . S
H1281 C1301 0.950 . S
H1282 C1303 0.950 . S
H1283 C1306 0.950 . S
H1284 C1307 0.950 . S
H1285 C1309 0.950 . S
H1286 C1310 0.950 . S
H1287 C1311 0.951 . S
H1288 C1313 0.951 . S
H1289 C1315 0.950 . S
H1290 C1316 0.950 . S
H1291 C1318 0.950 . S
H1292 C1321 0.950 . S
H1293 C1322 0.950 . S
H1294 C1324 0.950 . S
H1295 C1325 0.950 . S
C1296 H1278 0.951 . S
C1296 C1297 1.366 . S
C1296 C1298 1.388 . S
C1297 C1296 1.366 . S
C1297 C1301 1.385 . S
C1298 H1279 0.951 . S
C1298 C1296 1.388 . S
C1298 C1299 1.366 . S
C1299 C1298 1.366 . S
C1299 C1300 1.414 . S
C1299 C1302 1.499 . S
C1300 H1280 0.950 . S
C1300 C1299 1.414 . S
C1300 C1301 1.374 . S
C1301 H1281 0.950 . S
C1301 C1297 1.385 . S
C1301 C1300 1.374 . S
C1302 C1299 1.499 . S
C1302 C1303 1.373 . S
C1302 C1304 1.389 . S
C1303 H1282 0.950 . S
C1303 C1302 1.373 . S
C1303 C1319 1.377 . S
C1304 C1302 1.389 . S
C1304 C1305 1.524 . S
C1304 C1318 1.377 . S
C1305 C1304 1.524 . S
C1305 C1306 1.397 . S
C1305 C1310 1.363 . S
C1306 H1283 0.950 . S
C1306 C1305 1.397 . S
C1306 C1307 1.334 . S
C1307 H1284 0.950 . S
C1307 C1306 1.334 . S
C1307 C1308 1.287 . S
C1308 C1307 1.287 . S
C1308 C1309 1.524 . S
C1308 H1327 0.913 . S
C1309 H1285 0.950 . S
C1309 C1308 1.524 . S
C1309 C1310 1.415 . S
C1310 H1286 0.950 . S
C1310 C1305 1.363 . S
C1310 C1309 1.415 . S
C1311 H1287 0.951 . S
C1311 C1312 1.366 . S
C1311 C1313 1.388 . S
C1312 C1311 1.366 . S
C1312 C1316 1.385 . S
C1313 H1288 0.951 . S
C1313 C1311 1.388 . S
C1313 C1314 1.366 . S
C1314 C1313 1.366 . S
C1314 C1315 1.414 . S
C1314 C1317 1.499 . S
C1315 H1289 0.950 . S
C1315 C1314 1.414 . S
C1315 C1316 1.374 . S
C1316 H1290 0.950 . S
C1316 C1312 1.385 . S
C1316 C1315 1.374 . S
C1317 C1314 1.499 . S
C1317 C1318 1.373 . S
C1317 C1319 1.389 . S
C1318 H1291 0.950 . S
C1318 C1304 1.377 . S
C1318 C1317 1.373 . S
C1319 C1303 1.377 . S
C1319 C1317 1.389 . S
C1319 C1320 1.524 . S
C1320 C1319 1.524 . S
C1320 C1321 1.397 . S
C1320 C1325 1.363 . S
C1321 H1292 0.950 . S
C1321 C1320 1.397 . S
C1321 C1322 1.334 . S
C1322 H1293 0.950 . S
C1322 C1321 1.334 . S
C1322 C1323 1.287 . S
C1323 C1322 1.287 . S
C1323 C1324 1.524 . S
C1323 H1326 0.999 . S
C1324 H1294 0.950 . S
C1324 C1323 1.524 . S
C1324 C1325 1.415 . S
C1325 H1295 0.950 . S
C1325 C1320 1.363 . S
C1325 C1324 1.415 . S
H1326 C1323 0.999 . S
H1327 C1308 0.913 . S
H1328 C1346 0.951 . S
H1329 C1348 0.951 . S
H1330 C1350 0.950 . S
H1331 C1351 0.950 . S
H1332 C1353 0.950 . S
H1333 C1356 0.950 . S
H1334 C1357 0.950 . S
H1335 C1359 0.950 . S
H1336 C1360 0.950 . S
H1337 C1361 0.951 . S
H1338 C1363 0.951 . S
H1339 C1365 0.950 . S
H1340 C1366 0.950 . S
H1341 C1368 0.950 . S
H1342 C1371 0.950 . S
H1343 C1372 0.950 . S
H1344 C1374 0.950 . S
H1345 C1375 0.950 . S
C1346 H1328 0.951 . S
C1346 C1347 1.366 . S
C1346 C1348 1.388 . S
C1347 C1346 1.366 . S
C1347 C1351 1.385 . S
C1348 H1329 0.951 . S
C1348 C1346 1.388 . S
C1348 C1349 1.366 . S
C1349 C1348 1.366 . S
C1349 C1350 1.414 . S
C1349 C1352 1.499 . S
C1350 H1330 0.950 . S
C1350 C1349 1.414 . S
C1350 C1351 1.374 . S
C1351 H1331 0.950 . S
C1351 C1347 1.385 . S
C1351 C1350 1.374 . S
C1352 C1349 1.499 . S
C1352 C1353 1.373 . S
C1352 C1354 1.389 . S
C1353 H1332 0.950 . S
C1353 C1352 1.373 . S
C1353 C1369 1.377 . S
C1354 C1352 1.389 . S
C1354 C1355 1.524 . S
C1354 C1368 1.377 . S
C1355 C1354 1.524 . S
C1355 C1356 1.397 . S
C1355 C1360 1.363 . S
C1356 H1333 0.950 . S
C1356 C1355 1.397 . S
C1356 C1357 1.334 . S
C1357 H1334 0.950 . S
C1357 C1356 1.334 . S
C1357 C1358 1.287 . S
C1358 C1357 1.287 . S
C1358 C1359 1.524 . S
C1358 H1377 0.913 . S
C1359 H1335 0.950 . S
C1359 C1358 1.524 . S
C1359 C1360 1.415 . S
C1360 H1336 0.950 . S
C1360 C1355 1.363 . S
C1360 C1359 1.415 . S
C1361 H1337 0.951 . S
C1361 C1362 1.366 . S
C1361 C1363 1.388 . S
C1362 C1361 1.366 . S
C1362 C1366 1.385 . S
C1363 H1338 0.951 . S
C1363 C1361 1.388 . S
C1363 C1364 1.366 . S
C1364 C1363 1.366 . S
C1364 C1365 1.414 . S
C1364 C1367 1.499 . S
C1365 H1339 0.950 . S
C1365 C1364 1.414 . S
C1365 C1366 1.374 . S
C1366 H1340 0.950 . S
C1366 C1362 1.385 . S
C1366 C1365 1.374 . S
C1367 C1364 1.499 . S
C1367 C1368 1.373 . S
C1367 C1369 1.389 . S
C1368 H1341 0.950 . S
C1368 C1354 1.377 . S
C1368 C1367 1.373 . S
C1369 C1353 1.377 . S
C1369 C1367 1.389 . S
C1369 C1370 1.524 . S
C1370 C1369 1.524 . S
C1370 C1371 1.397 . S
C1370 C1375 1.363 . S
C1371 H1342 0.950 . S
C1371 C1370 1.397 . S
C1371 C1372 1.334 . S
C1372 H1343 0.950 . S
C1372 C1371 1.334 . S
C1372 C1373 1.287 . S
C1373 C1372 1.287 . S
C1373 C1374 1.524 . S
C1373 H1376 0.999 . S
C1374 H1344 0.950 . S
C1374 C1373 1.524 . S
C1374 C1375 1.415 . S
C1375 H1345 0.950 . S
C1375 C1370 1.363 . S
C1375 C1374 1.415 . S
H1376 C1373 0.999 . S
H1377 C1358 0.913 . S
H1378 C1396 0.951 . S
H1379 C1398 0.951 . S
H1380 C1400 0.950 . S
H1381 C1401 0.950 . S
H1382 C1403 0.950 . S
H1383 C1406 0.950 . S
H1384 C1407 0.950 . S
H1385 C1409 0.950 . S
H1386 C1410 0.950 . S
H1387 C1411 0.951 . S
H1388 C1413 0.951 . S
H1389 C1415 0.950 . S
H1390 C1416 0.950 . S
H1391 C1418 0.950 . S
H1392 C1421 0.950 . S
H1393 C1422 0.950 . S
H1394 C1424 0.950 . S
H1395 C1425 0.950 . S
C1396 H1378 0.951 . S
C1396 C1397 1.366 . S
C1396 C1398 1.388 . S
C1397 C1396 1.366 . S
C1397 C1401 1.385 . S
C1398 H1379 0.951 . S
C1398 C1396 1.388 . S
C1398 C1399 1.366 . S
C1399 C1398 1.366 . S
C1399 C1400 1.414 . S
C1399 C1402 1.499 . S
C1400 H1380 0.950 . S
C1400 C1399 1.414 . S
C1400 C1401 1.374 . S
C1401 H1381 0.950 . S
C1401 C1397 1.385 . S
C1401 C1400 1.374 . S
C1402 C1399 1.499 . S
C1402 C1403 1.373 . S
C1402 C1404 1.389 . S
C1403 H1382 0.950 . S
C1403 C1402 1.373 . S
C1403 C1419 1.377 . S
C1404 C1402 1.389 . S
C1404 C1405 1.524 . S
C1404 C1418 1.377 . S
C1405 C1404 1.524 . S
C1405 C1406 1.397 . S
C1405 C1410 1.363 . S
C1406 H1383 0.950 . S
C1406 C1405 1.397 . S
C1406 C1407 1.334 . S
C1407 H1384 0.950 . S
C1407 C1406 1.334 . S
C1407 C1408 1.287 . S
C1408 C1407 1.287 . S
C1408 C1409 1.524 . S
C1408 H1427 0.913 . S
C1409 H1385 0.950 . S
C1409 C1408 1.524 . S
C1409 C1410 1.415 . S
C1410 H1386 0.950 . S
C1410 C1405 1.363 . S
C1410 C1409 1.415 . S
C1411 H1387 0.951 . S
C1411 C1412 1.366 . S
C1411 C1413 1.388 . S
C1412 C1411 1.366 . S
C1412 C1416 1.385 . S
C1413 H1388 0.951 . S
C1413 C1411 1.388 . S
C1413 C1414 1.366 . S
C1414 C1413 1.366 . S
C1414 C1415 1.414 . S
C1414 C1417 1.499 . S
C1415 H1389 0.950 . S
C1415 C1414 1.414 . S
C1415 C1416 1.374 . S
C1416 H1390 0.950 . S
C1416 C1412 1.385 . S
C1416 C1415 1.374 . S
C1417 C1414 1.499 . S
C1417 C1418 1.373 . S
C1417 C1419 1.389 . S
C1418 H1391 0.950 . S
C1418 C1404 1.377 . S
C1418 C1417 1.373 . S
C1419 C1403 1.377 . S
C1419 C1417 1.389 . S
C1419 C1420 1.524 . S
C1420 C1419 1.524 . S
C1420 C1421 1.397 . S
C1420 C1425 1.363 . S
C1421 H1392 0.950 . S
C1421 C1420 1.397 . S
C1421 C1422 1.334 . S
C1422 H1393 0.950 . S
C1422 C1421 1.334 . S
C1422 C1423 1.287 . S
C1423 C1422 1.287 . S
C1423 C1424 1.524 . S
C1423 H1426 0.999 . S
C1424 H1394 0.950 . S
C1424 C1423 1.524 . S
C1424 C1425 1.415 . S
C1425 H1395 0.950 . S
C1425 C1420 1.363 . S
C1425 C1424 1.415 . S
H1426 C1423 0.999 . S
H1427 C1408 0.913 . S
H1428 C1446 0.951 . S
H1429 C1448 0.951 . S
H1430 C1450 0.950 . S
H1431 C1451 0.950 . S
H1432 C1453 0.950 . S
H1433 C1456 0.950 . S
H1434 C1457 0.950 . S
H1435 C1459 0.950 . S
H1436 C1460 0.950 . S
H1437 C1461 0.951 . S
H1438 C1463 0.951 . S
H1439 C1465 0.950 . S
H1440 C1466 0.950 . S
H1441 C1468 0.950 . S
H1442 C1471 0.950 . S
H1443 C1472 0.950 . S
H1444 C1474 0.950 . S
H1445 C1475 0.950 . S
C1446 H1428 0.951 . S
C1446 C1447 1.366 . S
C1446 C1448 1.388 . S
C1447 C1446 1.366 . S
C1447 C1451 1.385 . S
C1448 H1429 0.951 . S
C1448 C1446 1.388 . S
C1448 C1449 1.366 . S
C1449 C1448 1.366 . S
C1449 C1450 1.414 . S
C1449 C1452 1.499 . S
C1450 H1430 0.950 . S
C1450 C1449 1.414 . S
C1450 C1451 1.374 . S
C1451 H1431 0.950 . S
C1451 C1447 1.385 . S
C1451 C1450 1.374 . S
C1452 C1449 1.499 . S
C1452 C1453 1.373 . S
C1452 C1454 1.389 . S
C1453 H1432 0.950 . S
C1453 C1452 1.373 . S
C1453 C1469 1.377 . S
C1454 C1452 1.389 . S
C1454 C1455 1.524 . S
C1454 C1468 1.377 . S
C1455 C1454 1.524 . S
C1455 C1456 1.397 . S
C1455 C1460 1.363 . S
C1456 H1433 0.950 . S
C1456 C1455 1.397 . S
C1456 C1457 1.334 . S
C1457 H1434 0.950 . S
C1457 C1456 1.334 . S
C1457 C1458 1.287 . S
C1458 C1457 1.287 . S
C1458 C1459 1.524 . S
C1458 H1477 0.913 . S
C1459 H1435 0.950 . S
C1459 C1458 1.524 . S
C1459 C1460 1.415 . S
C1460 H1436 0.950 . S
C1460 C1455 1.363 . S
C1460 C1459 1.415 . S
C1461 H1437 0.951 . S
C1461 C1462 1.366 . S
C1461 C1463 1.388 . S
C1462 C1461 1.366 . S
C1462 C1466 1.385 . S
C1463 H1438 0.951 . S
C1463 C1461 1.388 . S
C1463 C1464 1.366 . S
C1464 C1463 1.366 . S
C1464 C1465 1.414 . S
C1464 C1467 1.499 . S
C1465 H1439 0.950 . S
C1465 C1464 1.414 . S
C1465 C1466 1.374 . S
C1466 H1440 0.950 . S
C1466 C1462 1.385 . S
C1466 C1465 1.374 . S
C1467 C1464 1.499 . S
C1467 C1468 1.373 . S
C1467 C1469 1.389 . S
C1468 H1441 0.950 . S
C1468 C1454 1.377 . S
C1468 C1467 1.373 . S
C1469 C1453 1.377 . S
C1469 C1467 1.389 . S
C1469 C1470 1.524 . S
C1470 C1469 1.524 . S
C1470 C1471 1.397 . S
C1470 C1475 1.363 . S
C1471 H1442 0.950 . S
C1471 C1470 1.397 . S
C1471 C1472 1.334 . S
C1472 H1443 0.950 . S
C1472 C1471 1.334 . S
C1472 C1473 1.287 . S
C1473 C1472 1.287 . S
C1473 C1474 1.524 . S
C1473 H1476 0.999 . S
C1474 H1444 0.950 . S
C1474 C1473 1.524 . S
C1474 C1475 1.415 . S
C1475 H1445 0.950 . S
C1475 C1470 1.363 . S
C1475 C1474 1.415 . S
H1476 C1473 0.999 . S
H1477 C1458 0.913 . S
H1478 C1496 0.951 . S
H1479 C1498 0.951 . S
H1480 C1500 0.950 . S
H1481 C1501 0.950 . S
H1482 C1503 0.950 . S
H1483 C1506 0.950 . S
H1484 C1507 0.950 . S
H1485 C1509 0.950 . S
H1486 C1510 0.950 . S
H1487 C1511 0.951 . S
H1488 C1513 0.951 . S
H1489 C1515 0.950 . S
H1490 C1516 0.950 . S
H1491 C1518 0.950 . S
H1492 C1521 0.950 . S
H1493 C1522 0.950 . S
H1494 C1524 0.950 . S
H1495 C1525 0.950 . S
C1496 H1478 0.951 . S
C1496 C1497 1.366 . S
C1496 C1498 1.388 . S
C1497 C1496 1.366 . S
C1497 C1501 1.385 . S
C1498 H1479 0.951 . S
C1498 C1496 1.388 . S
C1498 C1499 1.366 . S
C1499 C1498 1.366 . S
C1499 C1500 1.414 . S
C1499 C1502 1.499 . S
C1500 H1480 0.950 . S
C1500 C1499 1.414 . S
C1500 C1501 1.374 . S
C1501 H1481 0.950 . S
C1501 C1497 1.385 . S
C1501 C1500 1.374 . S
C1502 C1499 1.499 . S
C1502 C1503 1.373 . S
C1502 C1504 1.389 . S
C1503 H1482 0.950 . S
C1503 C1502 1.373 . S
C1503 C1519 1.377 . S
C1504 C1502 1.389 . S
C1504 C1505 1.524 . S
C1504 C1518 1.377 . S
C1505 C1504 1.524 . S
C1505 C1506 1.397 . S
C1505 C1510 1.363 . S
C1506 H1483 0.950 . S
C1506 C1505 1.397 . S
C1506 C1507 1.334 . S
C1507 H1484 0.950 . S
C1507 C1506 1.334 . S
C1507 C1508 1.287 . S
C1508 C1507 1.287 . S
C1508 C1509 1.524 . S
C1508 H1527 0.913 . S
C1509 H1485 0.950 . S
C1509 C1508 1.524 . S
C1509 C1510 1.415 . S
C1510 H1486 0.950 . S
C1510 C1505 1.363 . S
C1510 C1509 1.415 . S
C1511 H1487 0.951 . S
C1511 C1512 1.366 . S
C1511 C1513 1.388 . S
C1512 C1511 1.366 . S
C1512 C1516 1.385 . S
C1513 H1488 0.951 . S
C1513 C1511 1.388 . S
C1513 C1514 1.366 . S
C1514 C1513 1.366 . S
C1514 C1515 1.414 . S
C1514 C1517 1.499 . S
C1515 H1489 0.950 . S
C1515 C1514 1.414 . S
C1515 C1516 1.374 . S
C1516 H1490 0.950 . S
C1516 C1512 1.385 . S
C1516 C1515 1.374 . S
C1517 C1514 1.499 . S
C1517 C1518 1.373 . S
C1517 C1519 1.389 . S
C1518 H1491 0.950 . S
C1518 C1504 1.377 . S
C1518 C1517 1.373 . S
C1519 C1503 1.377 . S
C1519 C1517 1.389 . S
C1519 C1520 1.524 . S
C1520 C1519 1.524 . S
C1520 C1521 1.397 . S
C1520 C1525 1.363 . S
C1521 H1492 0.950 . S
C1521 C1520 1.397 . S
C1521 C1522 1.334 . S
C1522 H1493 0.950 . S
C1522 C1521 1.334 . S
C1522 C1523 1.287 . S
C1523 C1522 1.287 . S
C1523 C1524 1.524 . S
C1523 H1526 0.999 . S
C1524 H1494 0.950 . S
C1524 C1523 1.524 . S
C1524 C1525 1.415 . S
C1525 H1495 0.950 . S
C1525 C1520 1.363 . S
C1525 C1524 1.415 . S
H1526 C1523 0.999 . S
H1527 C1508 0.913 . S
H1528 C1546 0.951 . S
H1529 C1548 0.951 . S
H1530 C1550 0.950 . S
H1531 C1551 0.950 . S
H1532 C1553 0.950 . S
H1533 C1556 0.950 . S
H1534 C1557 0.950 . S
H1535 C1559 0.950 . S
H1536 C1560 0.950 . S
H1537 C1561 0.951 . S
H1538 C1563 0.951 . S
H1539 C1565 0.950 . S
H1540 C1566 0.950 . S
H1541 C1568 0.950 . S
H1542 C1571 0.950 . S
H1543 C1572 0.950 . S
H1544 C1574 0.950 . S
H1545 C1575 0.950 . S
C1546 H1528 0.951 . S
C1546 C1547 1.366 . S
C1546 C1548 1.388 . S
C1547 C1546 1.366 . S
C1547 C1551 1.385 . S
C1548 H1529 0.951 . S
C1548 C1546 1.388 . S
C1548 C1549 1.366 . S
C1549 C1548 1.366 . S
C1549 C1550 1.414 . S
C1549 C1552 1.499 . S
C1550 H1530 0.950 . S
C1550 C1549 1.414 . S
C1550 C1551 1.374 . S
C1551 H1531 0.950 . S
C1551 C1547 1.385 . S
C1551 C1550 1.374 . S
C1552 C1549 1.499 . S
C1552 C1553 1.373 . S
C1552 C1554 1.389 . S
C1553 H1532 0.950 . S
C1553 C1552 1.373 . S
C1553 C1569 1.377 . S
C1554 C1552 1.389 . S
C1554 C1555 1.524 . S
C1554 C1568 1.377 . S
C1555 C1554 1.524 . S
C1555 C1556 1.397 . S
C1555 C1560 1.363 . S
C1556 H1533 0.950 . S
C1556 C1555 1.397 . S
C1556 C1557 1.334 . S
C1557 H1534 0.950 . S
C1557 C1556 1.334 . S
C1557 C1558 1.287 . S
C1558 C1557 1.287 . S
C1558 C1559 1.524 . S
C1558 H1577 0.913 . S
C1559 H1535 0.950 . S
C1559 C1558 1.524 . S
C1559 C1560 1.415 . S
C1560 H1536 0.950 . S
C1560 C1555 1.363 . S
C1560 C1559 1.415 . S
C1561 H1537 0.951 . S
C1561 C1562 1.366 . S
C1561 C1563 1.388 . S
C1562 C1561 1.366 . S
C1562 C1566 1.385 . S
C1563 H1538 0.951 . S
C1563 C1561 1.388 . S
C1563 C1564 1.366 . S
C1564 C1563 1.366 . S
C1564 C1565 1.414 . S
C1564 C1567 1.499 . S
C1565 H1539 0.950 . S
C1565 C1564 1.414 . S
C1565 C1566 1.374 . S
C1566 H1540 0.950 . S
C1566 C1562 1.385 . S
C1566 C1565 1.374 . S
C1567 C1564 1.499 . S
C1567 C1568 1.373 . S
C1567 C1569 1.389 . S
C1568 H1541 0.950 . S
C1568 C1554 1.377 . S
C1568 C1567 1.373 . S
C1569 C1553 1.377 . S
C1569 C1567 1.389 . S
C1569 C1570 1.524 . S
C1570 C1569 1.524 . S
C1570 C1571 1.397 . S
C1570 C1575 1.363 . S
C1571 H1542 0.950 . S
C1571 C1570 1.397 . S
C1571 C1572 1.334 . S
C1572 H1543 0.950 . S
C1572 C1571 1.334 . S
C1572 C1573 1.287 . S
C1573 C1572 1.287 . S
C1573 C1574 1.524 . S
C1573 H1576 0.999 . S
C1574 H1544 0.950 . S
C1574 C1573 1.524 . S
C1574 C1575 1.415 . S
C1575 H1545 0.950 . S
C1575 C1570 1.363 . S
C1575 C1574 1.415 . S
H1576 C1573 0.999 . S
H1577 C1558 0.913 . S
H1578 C1596 0.951 . S
H1579 C1598 0.951 . S
H1580 C1600 0.950 . S
H1581 C1601 0.950 . S
H1582 C1603 0.950 . S
H1583 C1606 0.950 . S
H1584 C1607 0.950 . S
H1585 C1609 0.950 . S
H1586 C1610 0.950 . S
H1587 C1611 0.951 . S
H1588 C1613 0.951 . S
H1589 C1615 0.950 . S
H1590 C1616 0.950 . S
H1591 C1618 0.950 . S
H1592 C1621 0.950 . S
H1593 C1622 0.950 . S
H1594 C1624 0.950 . S
H1595 C1625 0.950 . S
C1596 H1578 0.951 . S
C1596 C1597 1.366 . S
C1596 C1598 1.388 . S
C1597 C1596 1.366 . S
C1597 C1601 1.385 . S
C1598 H1579 0.951 . S
C1598 C1596 1.388 . S
C1598 C1599 1.366 . S
C1599 C1598 1.366 . S
C1599 C1600 1.414 . S
C1599 C1602 1.499 . S
C1600 H1580 0.950 . S
C1600 C1599 1.414 . S
C1600 C1601 1.374 . S
C1601 H1581 0.950 . S
C1601 C1597 1.385 . S
C1601 C1600 1.374 . S
C1602 C1599 1.499 . S
C1602 C1603 1.373 . S
C1602 C1604 1.389 . S
C1603 H1582 0.950 . S
C1603 C1602 1.373 . S
C1603 C1619 1.377 . S
C1604 C1602 1.389 . S
C1604 C1605 1.524 . S
C1604 C1618 1.377 . S
C1605 C1604 1.524 . S
C1605 C1606 1.397 . S
C1605 C1610 1.363 . S
C1606 H1583 0.950 . S
C1606 C1605 1.397 . S
C1606 C1607 1.334 . S
C1607 H1584 0.950 . S
C1607 C1606 1.334 . S
C1607 C1608 1.287 . S
C1608 C1607 1.287 . S
C1608 C1609 1.524 . S
C1608 H1627 0.913 . S
C1609 H1585 0.950 . S
C1609 C1608 1.524 . S
C1609 C1610 1.415 . S
C1610 H1586 0.950 . S
C1610 C1605 1.363 . S
C1610 C1609 1.415 . S
C1611 H1587 0.951 . S
C1611 C1612 1.366 . S
C1611 C1613 1.388 . S
C1612 C1611 1.366 . S
C1612 C1616 1.385 . S
C1613 H1588 0.951 . S
C1613 C1611 1.388 . S
C1613 C1614 1.366 . S
C1614 C1613 1.366 . S
C1614 C1615 1.414 . S
C1614 C1617 1.499 . S
C1615 H1589 0.950 . S
C1615 C1614 1.414 . S
C1615 C1616 1.374 . S
C1616 H1590 0.950 . S
C1616 C1612 1.385 . S
C1616 C1615 1.374 . S
C1617 C1614 1.499 . S
C1617 C1618 1.373 . S
C1617 C1619 1.389 . S
C1618 H1591 0.950 . S
C1618 C1604 1.377 . S
C1618 C1617 1.373 . S
C1619 C1603 1.377 . S
C1619 C1617 1.389 . S
C1619 C1620 1.524 . S
C1620 C1619 1.524 . S
C1620 C1621 1.397 . S
C1620 C1625 1.363 . S
C1621 H1592 0.950 . S
C1621 C1620 1.397 . S
C1621 C1622 1.334 . S
C1622 H1593 0.950 . S
C1622 C1621 1.334 . S
C1622 C1623 1.287 . S
C1623 C1622 1.287 . S
C1623 C1624 1.524 . S
C1623 H1626 0.999 . S
C1624 H1594 0.950 . S
C1624 C1623 1.524 . S
C1624 C1625 1.415 . S
C1625 H1595 0.950 . S
C1625 C1620 1.363 . S
C1625 C1624 1.415 . S
H1626 C1623 0.999 . S
H1627 C1608 0.913 . S
H1628 C1646 0.951 . S
H1629 C1648 0.951 . S
H1630 C1650 0.950 . S
H1631 C1651 0.950 . S
H1632 C1653 0.950 . S
H1633 C1656 0.950 . S
H1634 C1657 0.950 . S
H1635 C1659 0.950 . S
H1636 C1660 0.950 . S
H1637 C1661 0.951 . S
H1638 C1663 0.951 . S
H1639 C1665 0.950 . S
H1640 C1666 0.950 . S
H1641 C1668 0.950 . S
H1642 C1671 0.950 . S
H1643 C1672 0.950 . S
H1644 C1674 0.950 . S
H1645 C1675 0.950 . S
C1646 H1628 0.951 . S
C1646 C1647 1.366 . S
C1646 C1648 1.388 . S
C1647 C1646 1.366 . S
C1647 C1651 1.385 . S
C1648 H1629 0.951 . S
C1648 C1646 1.388 . S
C1648 C1649 1.366 . S
C1649 C1648 1.366 . S
C1649 C1650 1.414 . S
C1649 C1652 1.499 . S
C1650 H1630 0.950 . S
C1650 C1649 1.414 . S
C1650 C1651 1.374 . S
C1651 H1631 0.950 . S
C1651 C1647 1.385 . S
C1651 C1650 1.374 . S
C1652 C1649 1.499 . S
C1652 C1653 1.373 . S
C1652 C1654 1.389 . S
C1653 H1632 0.950 . S
C1653 C1652 1.373 . S
C1653 C1669 1.377 . S
C1654 C1652 1.389 . S
C1654 C1655 1.524 . S
C1654 C1668 1.377 . S
C1655 C1654 1.524 . S
C1655 C1656 1.397 . S
C1655 C1660 1.363 . S
C1656 H1633 0.950 . S
C1656 C1655 1.397 . S
C1656 C1657 1.334 . S
C1657 H1634 0.950 . S
C1657 C1656 1.334 . S
C1657 C1658 1.287 . S
C1658 C1657 1.287 . S
C1658 C1659 1.524 . S
C1658 H1677 0.913 . S
C1659 H1635 0.950 . S
C1659 C1658 1.524 . S
C1659 C1660 1.415 . S
C1660 H1636 0.950 . S
C1660 C1655 1.363 . S
C1660 C1659 1.415 . S
C1661 H1637 0.951 . S
C1661 C1662 1.366 . S
C1661 C1663 1.388 . S
C1662 C1661 1.366 . S
C1662 C1666 1.385 . S
C1663 H1638 0.951 . S
C1663 C1661 1.388 . S
C1663 C1664 1.366 . S
C1664 C1663 1.366 . S
C1664 C1665 1.414 . S
C1664 C1667 1.499 . S
C1665 H1639 0.950 . S
C1665 C1664 1.414 . S
C1665 C1666 1.374 . S
C1666 H1640 0.950 . S
C1666 C1662 1.385 . S
C1666 C1665 1.374 . S
C1667 C1664 1.499 . S
C1667 C1668 1.373 . S
C1667 C1669 1.389 . S
C1668 H1641 0.950 . S
C1668 C1654 1.377 . S
C1668 C1667 1.373 . S
C1669 C1653 1.377 . S
C1669 C1667 1.389 . S
C1669 C1670 1.524 . S
C1670 C1669 1.524 . S
C1670 C1671 1.397 . S
C1670 C1675 1.363 . S
C1671 H1642 0.950 . S
C1671 C1670 1.397 . S
C1671 C1672 1.334 . S
C1672 H1643 0.950 . S
C1672 C1671 1.334 . S
C1672 C1673 1.287 . S
C1673 C1672 1.287 . S
C1673 C1674 1.524 . S
C1673 H1676 0.999 . S
C1674 H1644 0.950 . S
C1674 C1673 1.524 . S
C1674 C1675 1.415 . S
C1675 H1645 0.950 . S
C1675 C1670 1.363 . S
C1675 C1674 1.415 . S
H1676 C1673 0.999 . S
H1677 C1658 0.913 . S
H1678 C1696 0.951 . S
H1679 C1698 0.951 . S
H1680 C1700 0.950 . S
H1681 C1701 0.950 . S
H1682 C1703 0.950 . S
H1683 C1706 0.950 . S
H1684 C1707 0.950 . S
H1685 C1709 0.950 . S
H1686 C1710 0.950 . S
H1687 C1711 0.951 . S
H1688 C1713 0.951 . S
H1689 C1715 0.950 . S
H1690 C1716 0.950 . S
H1691 C1718 0.950 . S
H1692 C1721 0.950 . S
H1693 C1722 0.950 . S
H1694 C1724 0.950 . S
H1695 C1725 0.950 . S
C1696 H1678 0.951 . S
C1696 C1697 1.366 . S
C1696 C1698 1.388 . S
C1697 C1696 1.366 . S
C1697 C1701 1.385 . S
C1698 H1679 0.951 . S
C1698 C1696 1.388 . S
C1698 C1699 1.366 . S
C1699 C1698 1.366 . S
C1699 C1700 1.414 . S
C1699 C1702 1.499 . S
C1700 H1680 0.950 . S
C1700 C1699 1.414 . S
C1700 C1701 1.374 . S
C1701 H1681 0.950 . S
C1701 C1697 1.385 . S
C1701 C1700 1.374 . S
C1702 C1699 1.499 . S
C1702 C1703 1.373 . S
C1702 C1704 1.389 . S
C1703 H1682 0.950 . S
C1703 C1702 1.373 . S
C1703 C1719 1.377 . S
C1704 C1702 1.389 . S
C1704 C1705 1.524 . S
C1704 C1718 1.377 . S
C1705 C1704 1.524 . S
C1705 C1706 1.397 . S
C1705 C1710 1.363 . S
C1706 H1683 0.950 . S
C1706 C1705 1.397 . S
C1706 C1707 1.334 . S
C1707 H1684 0.950 . S
C1707 C1706 1.334 . S
C1707 C1708 1.287 . S
C1708 C1707 1.287 . S
C1708 C1709 1.524 . S
C1708 H1727 0.913 . S
C1709 H1685 0.950 . S
C1709 C1708 1.524 . S
C1709 C1710 1.415 . S
C1710 H1686 0.950 . S
C1710 C1705 1.363 . S
C1710 C1709 1.415 . S
C1711 H1687 0.951 . S
C1711 C1712 1.366 . S
C1711 C1713 1.388 . S
C1712 C1711 1.366 . S
C1712 C1716 1.385 . S
C1713 H1688 0.951 . S
C1713 C1711 1.388 . S
C1713 C1714 1.366 . S
C1714 C1713 1.366 . S
C1714 C1715 1.414 . S
C1714 C1717 1.499 . S
C1715 H1689 0.950 . S
C1715 C1714 1.414 . S
C1715 C1716 1.374 . S
C1716 H1690 0.950 . S
C1716 C1712 1.385 . S
C1716 C1715 1.374 . S
C1717 C1714 1.499 . S
C1717 C1718 1.373 . S
C1717 C1719 1.389 . S
C1718 H1691 0.950 . S
C1718 C1704 1.377 . S
C1718 C1717 1.373 . S
C1719 C1703 1.377 . S
C1719 C1717 1.389 . S
C1719 C1720 1.524 . S
C1720 C1719 1.524 . S
C1720 C1721 1.397 . S
C1720 C1725 1.363 . S
C1721 H1692 0.950 . S
C1721 C1720 1.397 . S
C1721 C1722 1.334 . S
C1722 H1693 0.950 . S
C1722 C1721 1.334 . S
C1722 C1723 1.287 . S
C1723 C1722 1.287 . S
C1723 C1724 1.524 . S
C1723 H1726 0.999 . S
C1724 H1694 0.950 . S
C1724 C1723 1.524 . S
C1724 C1725 1.415 . S
C1725 H1695 0.950 . S
C1725 C1720 1.363 . S
C1725 C1724 1.415 . S
H1726 C1723 0.999 . S
H1727 C1708 0.913 . S
H1728 C1746 0.951 . S
H1729 C1748 0.951 . S
H1730 C1750 0.950 . S
H1731 C1751 0.950 . S
H1732 C1753 0.950 . S
H1733 C1756 0.950 . S
H1734 C1757 0.950 . S
H1735 C1759 0.950 . S
H1736 C1760 0.950 . S
H1737 C1761 0.951 . S
H1738 C1763 0.951 . S
H1739 C1765 0.950 . S
H1740 C1766 0.950 . S
H1741 C1768 0.950 . S
H1742 C1771 0.950 . S
H1743 C1772 0.950 . S
H1744 C1774 0.950 . S
H1745 C1775 0.950 . S
C1746 H1728 0.951 . S
C1746 C1747 1.366 . S
C1746 C1748 1.388 . S
C1747 C1746 1.366 . S
C1747 C1751 1.385 . S
C1748 H1729 0.951 . S
C1748 C1746 1.388 . S
C1748 C1749 1.366 . S
C1749 C1748 1.366 . S
C1749 C1750 1.414 . S
C1749 C1752 1.499 . S
C1750 H1730 0.950 . S
C1750 C1749 1.414 . S
C1750 C1751 1.374 . S
C1751 H1731 0.950 . S
C1751 C1747 1.385 . S
C1751 C1750 1.374 . S
C1752 C1749 1.499 . S
C1752 C1753 1.373 . S
C1752 C1754 1.389 . S
C1753 H1732 0.950 . S
C1753 C1752 1.373 . S
C1753 C1769 1.377 . S
C1754 C1752 1.389 . S
C1754 C1755 1.524 . S
C1754 C1768 1.377 . S
C1755 C1754 1.524 . S
C1755 C1756 1.397 . S
C1755 C1760 1.363 . S
C1756 H1733 0.950 . S
C1756 C1755 1.397 . S
C1756 C1757 1.334 . S
C1757 H1734 0.950 . S
C1757 C1756 1.334 . S
C1757 C1758 1.287 . S
C1758 C1757 1.287 . S
C1758 C1759 1.524 . S
C1758 H1777 0.913 . S
C1759 H1735 0.950 . S
C1759 C1758 1.524 . S
C1759 C1760 1.415 . S
C1760 H1736 0.950 . S
C1760 C1755 1.363 . S
C1760 C1759 1.415 . S
C1761 H1737 0.951 . S
C1761 C1762 1.366 . S
C1761 C1763 1.388 . S
C1762 C1761 1.366 . S
C1762 C1766 1.385 . S
C1763 H1738 0.951 . S
C1763 C1761 1.388 . S
C1763 C1764 1.366 . S
C1764 C1763 1.366 . S
C1764 C1765 1.414 . S
C1764 C1767 1.499 . S
C1765 H1739 0.950 . S
C1765 C1764 1.414 . S
C1765 C1766 1.374 . S
C1766 H1740 0.950 . S
C1766 C1762 1.385 . S
C1766 C1765 1.374 . S
C1767 C1764 1.499 . S
C1767 C1768 1.373 . S
C1767 C1769 1.389 . S
C1768 H1741 0.950 . S
C1768 C1754 1.377 . S
C1768 C1767 1.373 . S
C1769 C1753 1.377 . S
C1769 C1767 1.389 . S
C1769 C1770 1.524 . S
C1770 C1769 1.524 . S
C1770 C1771 1.397 . S
C1770 C1775 1.363 . S
C1771 H1742 0.950 . S
C1771 C1770 1.397 . S
C1771 C1772 1.334 . S
C1772 H1743 0.950 . S
C1772 C1771 1.334 . S
C1772 C1773 1.287 . S
C1773 C1772 1.287 . S
C1773 C1774 1.524 . S
C1773 H1776 0.999 . S
C1774 H1744 0.950 . S
C1774 C1773 1.524 . S
C1774 C1775 1.415 . S
C1775 H1745 0.950 . S
C1775 C1770 1.363 . S
C1775 C1774 1.415 . S
H1776 C1773 0.999 . S
H1777 C1758 0.913 . S
H1778 C1796 0.951 . S
H1779 C1798 0.951 . S
H1780 C1800 0.950 . S
H1781 C1801 0.950 . S
H1782 C1803 0.950 . S
H1783 C1806 0.950 . S
H1784 C1807 0.950 . S
H1785 C1809 0.950 . S
H1786 C1810 0.950 . S
H1787 C1811 0.951 . S
H1788 C1813 0.951 . S
H1789 C1815 0.950 . S
H1790 C1816 0.950 . S
H1791 C1818 0.950 . S
H1792 C1821 0.950 . S
H1793 C1822 0.950 . S
H1794 C1824 0.950 . S
H1795 C1825 0.950 . S
C1796 H1778 0.951 . S
C1796 C1797 1.366 . S
C1796 C1798 1.388 . S
C1797 C1796 1.366 . S
C1797 C1801 1.385 . S
C1798 H1779 0.951 . S
C1798 C1796 1.388 . S
C1798 C1799 1.366 . S
C1799 C1798 1.366 . S
C1799 C1800 1.414 . S
C1799 C1802 1.499 . S
C1800 H1780 0.950 . S
C1800 C1799 1.414 . S
C1800 C1801 1.374 . S
C1801 H1781 0.950 . S
C1801 C1797 1.385 . S
C1801 C1800 1.374 . S
C1802 C1799 1.499 . S
C1802 C1803 1.373 . S
C1802 C1804 1.389 . S
C1803 H1782 0.950 . S
C1803 C1802 1.373 . S
C1803 C1819 1.377 . S
C1804 C1802 1.389 . S
C1804 C1805 1.524 . S
C1804 C1818 1.377 . S
C1805 C1804 1.524 . S
C1805 C1806 1.397 . S
C1805 C1810 1.363 . S
C1806 H1783 0.950 . S
C1806 C1805 1.397 . S
C1806 C1807 1.334 . S
C1807 H1784 0.950 . S
C1807 C1806 1.334 . S
C1807 C1808 1.287 . S
C1808 C1807 1.287 . S
C1808 C1809 1.524 . S
C1808 H1827 0.913 . S
C1809 H1785 0.950 . S
C1809 C1808 1.524 . S
C1809 C1810 1.415 . S
C1810 H1786 0.950 . S
C1810 C1805 1.363 . S
C1810 C1809 1.415 . S
C1811 H1787 0.951 . S
C1811 C1812 1.366 . S
C1811 C1813 1.388 . S
C1812 C1811 1.366 . S
C1812 C1816 1.385 . S
C1813 H1788 0.951 . S
C1813 C1811 1.388 . S
C1813 C1814 1.366 . S
C1814 C1813 1.366 . S
C1814 C1815 1.414 . S
C1814 C1817 1.499 . S
C1815 H1789 0.950 . S
C1815 C1814 1.414 . S
C1815 C1816 1.374 . S
C1816 H1790 0.950 . S
C1816 C1812 1.385 . S
C1816 C1815 1.374 . S
C1817 C1814 1.499 . S
C1817 C1818 1.373 . S
C1817 C1819 1.389 . S
C1818 H1791 0.950 . S
C1818 C1804 1.377 . S
C1818 C1817 1.373 . S
C1819 C1803 1.377 . S
C1819 C1817 1.389 . S
C1819 C1820 1.524 . S
C1820 C1819 1.524 . S
C1820 C1821 1.397 . S
C1820 C1825 1.363 . S
C1821 H1792 0.950 . S
C1821 C1820 1.397 . S
C1821 C1822 1.334 . S
C1822 H1793 0.950 . S
C1822 C1821 1.334 . S
C1822 C1823 1.287 . S
C1823 C1822 1.287 . S
C1823 C1824 1.524 . S
C1823 H1826 0.999 . S
C1824 H1794 0.950 . S
C1824 C1823 1.524 . S
C1824 C1825 1.415 . S
C1825 H1795 0.950 . S
C1825 C1820 1.363 . S
C1825 C1824 1.415 . S
H1826 C1823 0.999 . S
H1827 C1808 0.913 . S
H1828 C1846 0.951 . S
H1829 C1848 0.951 . S
H1830 C1850 0.950 . S
H1831 C1851 0.950 . S
H1832 C1853 0.950 . S
H1833 C1856 0.950 . S
H1834 C1857 0.950 . S
H1835 C1859 0.950 . S
H1836 C1860 0.950 . S
H1837 C1861 0.951 . S
H1838 C1863 0.951 . S
H1839 C1865 0.950 . S
H1840 C1866 0.950 . S
H1841 C1868 0.950 . S
H1842 C1871 0.950 . S
H1843 C1872 0.950 . S
H1844 C1874 0.950 . S
H1845 C1875 0.950 . S
C1846 H1828 0.951 . S
C1846 C1847 1.366 . S
C1846 C1848 1.388 . S
C1847 C1846 1.366 . S
C1847 C1851 1.385 . S
C1848 H1829 0.951 . S
C1848 C1846 1.388 . S
C1848 C1849 1.366 . S
C1849 C1848 1.366 . S
C1849 C1850 1.414 . S
C1849 C1852 1.499 . S
C1850 H1830 0.950 . S
C1850 C1849 1.414 . S
C1850 C1851 1.374 . S
C1851 H1831 0.950 . S
C1851 C1847 1.385 . S
C1851 C1850 1.374 . S
C1852 C1849 1.499 . S
C1852 C1853 1.373 . S
C1852 C1854 1.389 . S
C1853 H1832 0.950 . S
C1853 C1852 1.373 . S
C1853 C1869 1.377 . S
C1854 C1852 1.389 . S
C1854 C1855 1.524 . S
C1854 C1868 1.377 . S
C1855 C1854 1.524 . S
C1855 C1856 1.397 . S
C1855 C1860 1.363 . S
C1856 H1833 0.950 . S
C1856 C1855 1.397 . S
C1856 C1857 1.334 . S
C1857 H1834 0.950 . S
C1857 C1856 1.334 . S
C1857 C1858 1.287 . S
C1858 C1857 1.287 . S
C1858 C1859 1.524 . S
C1858 H1877 0.913 . S
C1859 H1835 0.950 . S
C1859 C1858 1.524 . S
C1859 C1860 1.415 . S
C1860 H1836 0.950 . S
C1860 C1855 1.363 . S
C1860 C1859 1.415 . S
C1861 H1837 0.951 . S
C1861 C1862 1.366 . S
C1861 C1863 1.388 . S
C1862 C1861 1.366 . S
C1862 C1866 1.385 . S
C1863 H1838 0.951 . S
C1863 C1861 1.388 . S
C1863 C1864 1.366 . S
C1864 C1863 1.366 . S
C1864 C1865 1.414 . S
C1864 C1867 1.499 . S
C1865 H1839 0.950 . S
C1865 C1864 1.414 . S
C1865 C1866 1.374 . S
C1866 H1840 0.950 . S
C1866 C1862 1.385 . S
C1866 C1865 1.374 . S
C1867 C1864 1.499 . S
C1867 C1868 1.373 . S
C1867 C1869 1.389 . S
C1868 H1841 0.950 . S
C1868 C1854 1.377 . S
C1868 C1867 1.373 . S
C1869 C1853 1.377 . S
C1869 C1867 1.389 . S
C1869 C1870 1.524 . S
C1870 C1869 1.524 . S
C1870 C1871 1.397 . S
C1870 C1875 1.363 . S
C1871 H1842 0.950 . S
C1871 C1870 1.397 . S
C1871 C1872 1.334 . S
C1872 H1843 0.950 . S
C1872 C1871 1.334 . S
C1872 C1873 1.287 . S
C1873 C1872 1.287 . S
C1873 C1874 1.524 . S
C1873 H1876 0.999 . S
C1874 H1844 0.950 . S
C1874 C1873 1.524 . S
C1874 C1875 1.415 . S
C1875 H1845 0.950 . S
C1875 C1870 1.363 . S
C1875 C1874 1.415 . S
H1876 C1873 0.999 . S
H1877 C1858 0.913 . S
H1878 C1896 0.951 . S
H1879 C1898 0.951 . S
H1880 C1900 0.950 . S
H1881 C1901 0.950 . S
H1882 C1903 0.950 . S
H1883 C1906 0.950 . S
H1884 C1907 0.950 . S
H1885 C1909 0.950 . S
H1886 C1910 0.950 . S
H1887 C1911 0.951 . S
H1888 C1913 0.951 . S
H1889 C1915 0.950 . S
H1890 C1916 0.950 . S
H1891 C1918 0.950 . S
H1892 C1921 0.950 . S
H1893 C1922 0.950 . S
H1894 C1924 0.950 . S
H1895 C1925 0.950 . S
C1896 H1878 0.951 . S
C1896 C1897 1.366 . S
C1896 C1898 1.388 . S
C1897 C1896 1.366 . S
C1897 C1901 1.385 . S
C1898 H1879 0.951 . S
C1898 C1896 1.388 . S
C1898 C1899 1.366 . S
C1899 C1898 1.366 . S
C1899 C1900 1.414 . S
C1899 C1902 1.499 . S
C1900 H1880 0.950 . S
C1900 C1899 1.414 . S
C1900 C1901 1.374 . S
C1901 H1881 0.950 . S
C1901 C1897 1.385 . S
C1901 C1900 1.374 . S
C1902 C1899 1.499 . S
C1902 C1903 1.373 . S
C1902 C1904 1.389 . S
C1903 H1882 0.950 . S
C1903 C1902 1.373 . S
C1903 C1919 1.377 . S
C1904 C1902 1.389 . S
C1904 C1905 1.524 . S
C1904 C1918 1.377 . S
C1905 C1904 1.524 . S
C1905 C1906 1.397 . S
C1905 C1910 1.363 . S
C1906 H1883 0.950 . S
C1906 C1905 1.397 . S
C1906 C1907 1.334 . S
C1907 H1884 0.950 . S
C1907 C1906 1.334 . S
C1907 C1908 1.287 . S
C1908 C1907 1.287 . S
C1908 C1909 1.524 . S
C1908 H1927 0.913 . S
C1909 H1885 0.950 . S
C1909 C1908 1.524 . S
C1909 C1910 1.415 . S
C1910 H1886 0.950 . S
C1910 C1905 1.363 . S
C1910 C1909 1.415 . S
C1911 H1887 0.951 . S
C1911 C1912 1.366 . S
C1911 C1913 1.388 . S
C1912 C1911 1.366 . S
C1912 C1916 1.385 . S
C1913 H1888 0.951 . S
C1913 C1911 1.388 . S
C1913 C1914 1.366 . S
C1914 C1913 1.366 . S
C1914 C1915 1.414 . S
C1914 C1917 1.499 . S
C1915 H1889 0.950 . S
C1915 C1914 1.414 . S
C1915 C1916 1.374 . S
C1916 H1890 0.950 . S
C1916 C1912 1.385 . S
C1916 C1915 1.374 . S
C1917 C1914 1.499 . S
C1917 C1918 1.373 . S
C1917 C1919 1.389 . S
C1918 H1891 0.950 . S
C1918 C1904 1.377 . S
C1918 C1917 1.373 . S
C1919 C1903 1.377 . S
C1919 C1917 1.389 . S
C1919 C1920 1.524 . S
C1920 C1919 1.524 . S
C1920 C1921 1.397 . S
C1920 C1925 1.363 . S
C1921 H1892 0.950 . S
C1921 C1920 1.397 . S
C1921 C1922 1.334 . S
C1922 H1893 0.950 . S
C1922 C1921 1.334 . S
C1922 C1923 1.287 . S
C1923 C1922 1.287 . S
C1923 C1924 1.524 . S
C1923 H1926 0.999 . S
C1924 H1894 0.950 . S
C1924 C1923 1.524 . S
C1924 C1925 1.415 . S
C1925 H1895 0.950 . S
C1925 C1920 1.363 . S
C1925 C1924 1.415 . S
H1926 C1923 0.999 . S
H1927 C1908 0.913 . S
H1928 C1946 0.951 . S
H1929 C1948 0.951 . S
H1930 C1950 0.950 . S
H1931 C1951 0.950 . S
H1932 C1953 0.950 . S
H1933 C1956 0.950 . S
H1934 C1957 0.950 . S
H1935 C1959 0.950 . S
H1936 C1960 0.950 . S
H1937 C1961 0.951 . S
H1938 C1963 0.951 . S
H1939 C1965 0.950 . S
H1940 C1966 0.950 . S
H1941 C1968 0.950 . S
H1942 C1971 0.950 . S
H1943 C1972 0.950 . S
H1944 C1974 0.950 . S
H1945 C1975 0.950 . S
C1946 H1928 0.951 . S
C1946 C1947 1.366 . S
C1946 C1948 1.388 . S
C1947 C1946 1.366 . S
C1947 C1951 1.385 . S
C1948 H1929 0.951 . S
C1948 C1946 1.388 . S
C1948 C1949 1.366 . S
C1949 C1948 1.366 . S
C1949 C1950 1.414 . S
C1949 C1952 1.499 . S
C1950 H1930 0.950 . S
C1950 C1949 1.414 . S
C1950 C1951 1.374 . S
C1951 H1931 0.950 . S
C1951 C1947 1.385 . S
C1951 C1950 1.374 . S
C1952 C1949 1.499 . S
C1952 C1953 1.373 . S
C1952 C1954 1.389 . S
C1953 H1932 0.950 . S
C1953 C1952 1.373 . S
C1953 C1969 1.377 . S
C1954 C1952 1.389 . S
C1954 C1955 1.524 . S
C1954 C1968 1.377 . S
C1955 C1954 1.524 . S
C1955 C1956 1.397 . S
C1955 C1960 1.363 . S
C1956 H1933 0.950 . S
C1956 C1955 1.397 . S
C1956 C1957 1.334 . S
C1957 H1934 0.950 . S
C1957 C1956 1.334 . S
C1957 C1958 1.287 . S
C1958 C1957 1.287 . S
C1958 C1959 1.524 . S
C1958 H1977 0.913 . S
C1959 H1935 0.950 . S
C1959 C1958 1.524 . S
C1959 C1960 1.415 . S
C1960 H1936 0.950 . S
C1960 C1955 1.363 . S
C1960 C1959 1.415 . S
C1961 H1937 0.951 . S
C1961 C1962 1.366 . S
C1961 C1963 1.388 . S
C1962 C1961 1.366 . S
C1962 C1966 1.385 . S
C1963 H1938 0.951 . S
C1963 C1961 1.388 . S
C1963 C1964 1.366 . S
C1964 C1963 1.366 . S
C1964 C1965 1.414 . S
C1964 C1967 1.499 . S
C1965 H1939 0.950 . S
C1965 C1964 1.414 . S
C1965 C1966 1.374 . S
C1966 H1940 0.950 . S
C1966 C1962 1.385 . S
C1966 C1965 1.374 . S
C1967 C1964 1.499 . S
C1967 C1968 1.373 . S
C1967 C1969 1.389 . S
C1968 H1941 0.950 . S
C1968 C1954 1.377 . S
C1968 C1967 1.373 . S
C1969 C1953 1.377 . S
C1969 C1967 1.389 . S
C1969 C1970 1.524 . S
C1970 C1969 1.524 . S
C1970 C1971 1.397 . S
C1970 C1975 1.363 . S
C1971 H1942 0.950 . S
C1971 C1970 1.397 . S
C1971 C1972 1.334 . S
C1972 H1943 0.950 . S
C1972 C1971 1.334 . S
C1972 C1973 1.287 . S
C1973 C1972 1.287 . S
C1973 C1974 1.524 . S
C1973 H1976 0.999 . S
C1974 H1944 0.950 . S
C1974 C1973 1.524 . S
C1974 C1975 1.415 . S
C1975 H1945 0.950 . S
C1975 C1970 1.363 . S
C1975 C1974 1.415 . S
H1976 C1973 0.999 . S
H1977 C1958 0.913 . S
H1978 C1996 0.951 . S
H1979 C1998 0.951 . S
H1980 C2000 0.950 . S
H1981 C2001 0.950 . S
H1982 C2003 0.950 . S
H1983 C2006 0.950 . S
H1984 C2007 0.950 . S
H1985 C2009 0.950 . S
H1986 C2010 0.950 . S
H1987 C2011 0.951 . S
H1988 C2013 0.951 . S
H1989 C2015 0.950 . S
H1990 C2016 0.950 . S
H1991 C2018 0.950 . S
H1992 C2021 0.950 . S
H1993 C2022 0.950 . S
H1994 C2024 0.950 . S
H1995 C2025 0.950 . S
C1996 H1978 0.951 . S
C1996 C1997 1.366 . S
C1996 C1998 1.388 . S
C1997 C1996 1.366 . S
C1997 C2001 1.385 . S
C1998 H1979 0.951 . S
C1998 C1996 1.388 . S
C1998 C1999 1.366 . S
C1999 C1998 1.366 . S
C1999 C2000 1.414 . S
C1999 C2002 1.499 . S
C2000 H1980 0.950 . S
C2000 C1999 1.414 . S
C2000 C2001 1.374 . S
C2001 H1981 0.950 . S
C2001 C1997 1.385 . S
C2001 C2000 1.374 . S
C2002 C1999 1.499 . S
C2002 C2003 1.373 . S
C2002 C2004 1.389 . S
C2003 H1982 0.950 . S
C2003 C2002 1.373 . S
C2003 C2019 1.377 . S
C2004 C2002 1.389 . S
C2004 C2005 1.524 . S
C2004 C2018 1.377 . S
C2005 C2004 1.524 . S
C2005 C2006 1.397 . S
C2005 C2010 1.363 . S
C2006 H1983 0.950 . S
C2006 C2005 1.397 . S
C2006 C2007 1.334 . S
C2007 H1984 0.950 . S
C2007 C2006 1.334 . S
C2007 C2008 1.287 . S
C2008 C2007 1.287 . S
C2008 C2009 1.524 . S
C2008 H2027 0.913 . S
C2009 H1985 0.950 . S
C2009 C2008 1.524 . S
C2009 C2010 1.415 . S
C2010 H1986 0.950 . S
C2010 C2005 1.363 . S
C2010 C2009 1.415 . S
C2011 H1987 0.951 . S
C2011 C2012 1.366 . S
C2011 C2013 1.388 . S
C2012 C2011 1.366 . S
C2012 C2016 1.385 . S
C2013 H1988 0.951 . S
C2013 C2011 1.388 . S
C2013 C2014 1.366 . S
C2014 C2013 1.366 . S
C2014 C2015 1.414 . S
C2014 C2017 1.499 . S
C2015 H1989 0.950 . S
C2015 C2014 1.414 . S
C2015 C2016 1.374 . S
C2016 H1990 0.950 . S
C2016 C2012 1.385 . S
C2016 C2015 1.374 . S
C2017 C2014 1.499 . S
C2017 C2018 1.373 . S
C2017 C2019 1.389 . S
C2018 H1991 0.950 . S
C2018 C2004 1.377 . S
C2018 C2017 1.373 . S
C2019 C2003 1.377 . S
C2019 C2017 1.389 . S
C2019 C2020 1.524 . S
C2020 C2019 1.524 . S
C2020 C2021 1.397 . S
C2020 C2025 1.363 . S
C2021 H1992 0.950 . S
C2021 C2020 1.397 . S
C2021 C2022 1.334 . S
C2022 H1993 0.950 . S
C2022 C2021 1.334 . S
C2022 C2023 1.287 . S
C2023 C2022 1.287 . S
C2023 C2024 1.524 . S
C2023 H2026 0.999 . S
C2024 H1994 0.950 . S
C2024 C2023 1.524 . S
C2024 C2025 1.415 . S
C2025 H1995 0.950 . S
C2025 C2020 1.363 . S
C2025 C2024 1.415 . S
H2026 C2023 0.999 . S
H2027 C2008 0.913 . S
H2028 C2046 0.951 . S
H2029 C2048 0.951 . S
H2030 C2050 0.950 . S
H2031 C2051 0.950 . S
H2032 C2053 0.950 . S
H2033 C2056 0.950 . S
H2034 C2057 0.950 . S
H2035 C2059 0.950 . S
H2036 C2060 0.950 . S
H2037 C2061 0.951 . S
H2038 C2063 0.951 . S
H2039 C2065 0.950 . S
H2040 C2066 0.950 . S
H2041 C2068 0.950 . S
H2042 C2071 0.950 . S
H2043 C2072 0.950 . S
H2044 C2074 0.950 . S
H2045 C2075 0.950 . S
C2046 H2028 0.951 . S
C2046 C2047 1.366 . S
C2046 C2048 1.388 . S
C2047 C2046 1.366 . S
C2047 C2051 1.385 . S
C2048 H2029 0.951 . S
C2048 C2046 1.388 . S
C2048 C2049 1.366 . S
C2049 C2048 1.366 . S
C2049 C2050 1.414 . S
C2049 C2052 1.499 . S
C2050 H2030 0.950 . S
C2050 C2049 1.414 . S
C2050 C2051 1.374 . S
C2051 H2031 0.950 . S
C2051 C2047 1.385 . S
C2051 C2050 1.374 . S
C2052 C2049 1.499 . S
C2052 C2053 1.373 . S
C2052 C2054 1.389 . S
C2053 H2032 0.950 . S
C2053 C2052 1.373 . S
C2053 C2069 1.377 . S
C2054 C2052 1.389 . S
C2054 C2055 1.524 . S
C2054 C2068 1.377 . S
C2055 C2054 1.524 . S
C2055 C2056 1.397 . S
C2055 C2060 1.363 . S
C2056 H2033 0.950 . S
C2056 C2055 1.397 . S
C2056 C2057 1.334 . S
C2057 H2034 0.950 . S
C2057 C2056 1.334 . S
C2057 C2058 1.287 . S
C2058 C2057 1.287 . S
C2058 C2059 1.524 . S
C2058 H2077 0.913 . S
C2059 H2035 0.950 . S
C2059 C2058 1.524 . S
C2059 C2060 1.415 . S
C2060 H2036 0.950 . S
C2060 C2055 1.363 . S
C2060 C2059 1.415 . S
C2061 H2037 0.951 . S
C2061 C2062 1.366 . S
C2061 C2063 1.388 . S
C2062 C2061 1.366 . S
C2062 C2066 1.385 . S
C2063 H2038 0.951 . S
C2063 C2061 1.388 . S
C2063 C2064 1.366 . S
C2064 C2063 1.366 . S
C2064 C2065 1.414 . S
C2064 C2067 1.499 . S
C2065 H2039 0.950 . S
C2065 C2064 1.414 . S
C2065 C2066 1.374 . S
C2066 H2040 0.950 . S
C2066 C2062 1.385 . S
C2066 C2065 1.374 . S
C2067 C2064 1.499 . S
C2067 C2068 1.373 . S
C2067 C2069 1.389 . S
C2068 H2041 0.950 . S
C2068 C2054 1.377 . S
C2068 C2067 1.373 . S
C2069 C2053 1.377 . S
C2069 C2067 1.389 . S
C2069 C2070 1.524 . S
C2070 C2069 1.524 . S
C2070 C2071 1.397 . S
C2070 C2075 1.363 . S
C2071 H2042 0.950 . S
C2071 C2070 1.397 . S
C2071 C2072 1.334 . S
C2072 H2043 0.950 . S
C2072 C2071 1.334 . S
C2072 C2073 1.287 . S
C2073 C2072 1.287 . S
C2073 C2074 1.524 . S
C2073 H2076 0.999 . S
C2074 H2044 0.950 . S
C2074 C2073 1.524 . S
C2074 C2075 1.415 . S
C2075 H2045 0.950 . S
C2075 C2070 1.363 . S
C2075 C2074 1.415 . S
H2076 C2073 0.999 . S
H2077 C2058 0.913 . S
H2078 C2096 0.951 . S
H2079 C2098 0.951 . S
H2080 C2100 0.950 . S
H2081 C2101 0.950 . S
H2082 C2103 0.950 . S
H2083 C2106 0.950 . S
H2084 C2107 0.950 . S
H2085 C2109 0.950 . S
H2086 C2110 0.950 . S
H2087 C2111 0.951 . S
H2088 C2113 0.951 . S
H2089 C2115 0.950 . S
H2090 C2116 0.950 . S
H2091 C2118 0.950 . S
H2092 C2121 0.950 . S
H2093 C2122 0.950 . S
H2094 C2124 0.950 . S
H2095 C2125 0.950 . S
C2096 H2078 0.951 . S
C2096 C2097 1.366 . S
C2096 C2098 1.388 . S
C2097 C2096 1.366 . S
C2097 C2101 1.385 . S
C2098 H2079 0.951 . S
C2098 C2096 1.388 . S
C2098 C2099 1.366 . S
C2099 C2098 1.366 . S
C2099 C2100 1.414 . S
C2099 C2102 1.499 . S
C2100 H2080 0.950 . S
C2100 C2099 1.414 . S
C2100 C2101 1.374 . S
C2101 H2081 0.950 . S
C2101 C2097 1.385 . S
C2101 C2100 1.374 . S
C2102 C2099 1.499 . S
C2102 C2103 1.373 . S
C2102 C2104 1.389 . S
C2103 H2082 0.950 . S
C2103 C2102 1.373 . S
C2103 C2119 1.377 . S
C2104 C2102 1.389 . S
C2104 C2105 1.524 . S
C2104 C2118 1.377 . S
C2105 C2104 1.524 . S
C2105 C2106 1.397 . S
C2105 C2110 1.363 . S
C2106 H2083 0.950 . S
C2106 C2105 1.397 . S
C2106 C2107 1.334 . S
C2107 H2084 0.950 . S
C2107 C2106 1.334 . S
C2107 C2108 1.287 . S
C2108 C2107 1.287 . S
C2108 C2109 1.524 . S
C2108 H2127 0.913 . S
C2109 H2085 0.950 . S
C2109 C2108 1.524 . S
C2109 C2110 1.415 . S
C2110 H2086 0.950 . S
C2110 C2105 1.363 . S
C2110 C2109 1.415 . S
C2111 H2087 0.951 . S
C2111 C2112 1.366 . S
C2111 C2113 1.388 . S
C2112 C2111 1.366 . S
C2112 C2116 1.385 . S
C2113 H2088 0.951 . S
C2113 C2111 1.388 . S
C2113 C2114 1.366 . S
C2114 C2113 1.366 . S
C2114 C2115 1.414 . S
C2114 C2117 1.499 . S
C2115 H2089 0.950 . S
C2115 C2114 1.414 . S
C2115 C2116 1.374 . S
C2116 H2090 0.950 . S
C2116 C2112 1.385 . S
C2116 C2115 1.374 . S
C2117 C2114 1.499 . S
C2117 C2118 1.373 . S
C2117 C2119 1.389 . S
C2118 H2091 0.950 . S
C2118 C2104 1.377 . S
C2118 C2117 1.373 . S
C2119 C2103 1.377 . S
C2119 C2117 1.389 . S
C2119 C2120 1.524 . S
C2120 C2119 1.524 . S
C2120 C2121 1.397 . S
C2120 C2125 1.363 . S
C2121 H2092 0.950 . S
C2121 C2120 1.397 . S
C2121 C2122 1.334 . S
C2122 H2093 0.950 . S
C2122 C2121 1.334 . S
C2122 C2123 1.287 . S
C2123 C2122 1.287 . S
C2123 C2124 1.524 . S
C2123 H2126 0.999 . S
C2124 H2094 0.950 . S
C2124 C2123 1.524 . S
C2124 C2125 1.415 . S
C2125 H2095 0.950 . S
C2125 C2120 1.363 . S
C2125 C2124 1.415 . S
H2126 C2123 0.999 . S
H2127 C2108 0.913 . S
H2128 C2146 0.951 . S
H2129 C2148 0.951 . S
H2130 C2150 0.950 . S
H2131 C2151 0.950 . S
H2132 C2153 0.950 . S
H2133 C2156 0.950 . S
H2134 C2157 0.950 . S
H2135 C2159 0.950 . S
H2136 C2160 0.950 . S
H2137 C2161 0.951 . S
H2138 C2163 0.951 . S
H2139 C2165 0.950 . S
H2140 C2166 0.950 . S
H2141 C2168 0.950 . S
H2142 C2171 0.950 . S
H2143 C2172 0.950 . S
H2144 C2174 0.950 . S
H2145 C2175 0.950 . S
C2146 H2128 0.951 . S
C2146 C2147 1.366 . S
C2146 C2148 1.388 . S
C2147 C2146 1.366 . S
C2147 C2151 1.385 . S
C2148 H2129 0.951 . S
C2148 C2146 1.388 . S
C2148 C2149 1.366 . S
C2149 C2148 1.366 . S
C2149 C2150 1.414 . S
C2149 C2152 1.499 . S
C2150 H2130 0.950 . S
C2150 C2149 1.414 . S
C2150 C2151 1.374 . S
C2151 H2131 0.950 . S
C2151 C2147 1.385 . S
C2151 C2150 1.374 . S
C2152 C2149 1.499 . S
C2152 C2153 1.373 . S
C2152 C2154 1.389 . S
C2153 H2132 0.950 . S
C2153 C2152 1.373 . S
C2153 C2169 1.377 . S
C2154 C2152 1.389 . S
C2154 C2155 1.524 . S
C2154 C2168 1.377 . S
C2155 C2154 1.524 . S
C2155 C2156 1.397 . S
C2155 C2160 1.363 . S
C2156 H2133 0.950 . S
C2156 C2155 1.397 . S
C2156 C2157 1.334 . S
C2157 H2134 0.950 . S
C2157 C2156 1.334 . S
C2157 C2158 1.287 . S
C2158 C2157 1.287 . S
C2158 C2159 1.524 . S
C2158 H2177 0.913 . S
C2159 H2135 0.950 . S
C2159 C2158 1.524 . S
C2159 C2160 1.415 . S
C2160 H2136 0.950 . S
C2160 C2155 1.363 . S
C2160 C2159 1.415 . S
C2161 H2137 0.951 . S
C2161 C2162 1.366 . S
C2161 C2163 1.388 . S
C2162 C2161 1.366 . S
C2162 C2166 1.385 . S
C2163 H2138 0.951 . S
C2163 C2161 1.388 . S
C2163 C2164 1.366 . S
C2164 C2163 1.366 . S
C2164 C2165 1.414 . S
C2164 C2167 1.499 . S
C2165 H2139 0.950 . S
C2165 C2164 1.414 . S
C2165 C2166 1.374 . S
C2166 H2140 0.950 . S
C2166 C2162 1.385 . S
C2166 C2165 1.374 . S
C2167 C2164 1.499 . S
C2167 C2168 1.373 . S
C2167 C2169 1.389 . S
C2168 H2141 0.950 . S
C2168 C2154 1.377 . S
C2168 C2167 1.373 . S
C2169 C2153 1.377 . S
C2169 C2167 1.389 . S
C2169 C2170 1.524 . S
C2170 C2169 1.524 . S
C2170 C2171 1.397 . S
C2170 C2175 1.363 . S
C2171 H2142 0.950 . S
C2171 C2170 1.397 . S
C2171 C2172 1.334 . S
C2172 H2143 0.950 . S
C2172 C2171 1.334 . S
C2172 C2173 1.287 . S
C2173 C2172 1.287 . S
C2173 C2174 1.524 . S
C2173 H2176 0.999 . S
C2174 H2144 0.950 . S
C2174 C2173 1.524 . S
C2174 C2175 1.415 . S
C2175 H2145 0.950 . S
C2175 C2170 1.363 . S
C2175 C2174 1.415 . S
H2176 C2173 0.999 . S
H2177 C2158 0.913 . S
H2178 C2196 0.951 . S
H2179 C2198 0.951 . S
H2180 C2200 0.950 . S
H2181 C2201 0.950 . S
H2182 C2203 0.950 . S
H2183 C2206 0.950 . S
H2184 C2207 0.950 . S
H2185 C2209 0.950 . S
H2186 C2210 0.950 . S
H2187 C2211 0.951 . S
H2188 C2213 0.951 . S
H2189 C2215 0.950 . S
H2190 C2216 0.950 . S
H2191 C2218 0.950 . S
H2192 C2221 0.950 . S
H2193 C2222 0.950 . S
H2194 C2224 0.950 . S
H2195 C2225 0.950 . S
C2196 H2178 0.951 . S
C2196 C2197 1.366 . S
C2196 C2198 1.388 . S
C2197 C2196 1.366 . S
C2197 C2201 1.385 . S
C2198 H2179 0.951 . S
C2198 C2196 1.388 . S
C2198 C2199 1.366 . S
C2199 C2198 1.366 . S
C2199 C2200 1.414 . S
C2199 C2202 1.499 . S
C2200 H2180 0.950 . S
C2200 C2199 1.414 . S
C2200 C2201 1.374 . S
C2201 H2181 0.950 . S
C2201 C2197 1.385 . S
C2201 C2200 1.374 . S
C2202 C2199 1.499 . S
C2202 C2203 1.373 . S
C2202 C2204 1.389 . S
C2203 H2182 0.950 . S
C2203 C2202 1.373 . S
C2203 C2219 1.377 . S
C2204 C2202 1.389 . S
C2204 C2205 1.524 . S
C2204 C2218 1.377 . S
C2205 C2204 1.524 . S
C2205 C2206 1.397 . S
C2205 C2210 1.363 . S
C2206 H2183 0.950 . S
C2206 C2205 1.397 . S
C2206 C2207 1.334 . S
C2207 H2184 0.950 . S
C2207 C2206 1.334 . S
C2207 C2208 1.287 . S
C2208 C2207 1.287 . S
C2208 C2209 1.524 . S
C2208 H2227 0.913 . S
C2209 H2185 0.950 . S
C2209 C2208 1.524 . S
C2209 C2210 1.415 . S
C2210 H2186 0.950 . S
C2210 C2205 1.363 . S
C2210 C2209 1.415 . S
C2211 H2187 0.951 . S
C2211 C2212 1.366 . S
C2211 C2213 1.388 . S
C2212 C2211 1.366 . S
C2212 C2216 1.385 . S
C2213 H2188 0.951 . S
C2213 C2211 1.388 . S
C2213 C2214 1.366 . S
C2214 C2213 1.366 . S
C2214 C2215 1.414 . S
C2214 C2217 1.499 . S
C2215 H2189 0.950 . S
C2215 C2214 1.414 . S
C2215 C2216 1.374 . S
C2216 H2190 0.950 . S
C2216 C2212 1.385 . S
C2216 C2215 1.374 . S
C2217 C2214 1.499 . S
C2217 C2218 1.373 . S
C2217 C2219 1.389 . S
C2218 H2191 0.950 . S
C2218 C2204 1.377 . S
C2218 C2217 1.373 . S
C2219 C2203 1.377 . S
C2219 C2217 1.389 . S
C2219 C2220 1.524 . S
C2220 C2219 1.524 . S
C2220 C2221 1.397 . S
C2220 C2225 1.363 . S
C2221 H2192 0.950 . S
C2221 C2220 1.397 . S
C2221 C2222 1.334 . S
C2222 H2193 0.950 . S
C2222 C2221 1.334 . S
C2222 C2223 1.287 . S
C2223 C2222 1.287 . S
C2223 C2224 1.524 . S
C2223 H2226 0.999 . S
C2224 H2194 0.950 . S
C2224 C2223 1.524 . S
C2224 C2225 1.415 . S
C2225 H2195 0.950 . S
C2225 C2220 1.363 . S
C2225 C2224 1.415 . S
H2226 C2223 0.999 . S
H2227 C2208 0.913 . S
H2228 C2246 0.951 . S
H2229 C2248 0.951 . S
H2230 C2250 0.950 . S
H2231 C2251 0.950 . S
H2232 C2253 0.950 . S
H2233 C2256 0.950 . S
H2234 C2257 0.950 . S
H2235 C2259 0.950 . S
H2236 C2260 0.950 . S
H2237 C2261 0.951 . S
H2238 C2263 0.951 . S
H2239 C2265 0.950 . S
H2240 C2266 0.950 . S
H2241 C2268 0.950 . S
H2242 C2271 0.950 . S
H2243 C2272 0.950 . S
H2244 C2274 0.950 . S
H2245 C2275 0.950 . S
C2246 H2228 0.951 . S
C2246 C2247 1.366 . S
C2246 C2248 1.388 . S
C2247 C2246 1.366 . S
C2247 C2251 1.385 . S
C2248 H2229 0.951 . S
C2248 C2246 1.388 . S
C2248 C2249 1.366 . S
C2249 C2248 1.366 . S
C2249 C2250 1.414 . S
C2249 C2252 1.499 . S
C2250 H2230 0.950 . S
C2250 C2249 1.414 . S
C2250 C2251 1.374 . S
C2251 H2231 0.950 . S
C2251 C2247 1.385 . S
C2251 C2250 1.374 . S
C2252 C2249 1.499 . S
C2252 C2253 1.373 . S
C2252 C2254 1.389 . S
C2253 H2232 0.950 . S
C2253 C2252 1.373 . S
C2253 C2269 1.377 . S
C2254 C2252 1.389 . S
C2254 C2255 1.524 . S
C2254 C2268 1.377 . S
C2255 C2254 1.524 . S
C2255 C2256 1.397 . S
C2255 C2260 1.363 . S
C2256 H2233 0.950 . S
C2256 C2255 1.397 . S
C2256 C2257 1.334 . S
C2257 H2234 0.950 . S
C2257 C2256 1.334 . S
C2257 C2258 1.287 . S
C2258 C2257 1.287 . S
C2258 C2259 1.524 . S
C2258 H2277 0.913 . S
C2259 H2235 0.950 . S
C2259 C2258 1.524 . S
C2259 C2260 1.415 . S
C2260 H2236 0.950 . S
C2260 C2255 1.363 . S
C2260 C2259 1.415 . S
C2261 H2237 0.951 . S
C2261 C2262 1.366 . S
C2261 C2263 1.388 . S
C2262 C2261 1.366 . S
C2262 C2266 1.385 . S
C2263 H2238 0.951 . S
C2263 C2261 1.388 . S
C2263 C2264 1.366 . S
C2264 C2263 1.366 . S
C2264 C2265 1.414 . S
C2264 C2267 1.499 . S
C2265 H2239 0.950 . S
C2265 C2264 1.414 . S
C2265 C2266 1.374 . S
C2266 H2240 0.950 . S
C2266 C2262 1.385 . S
C2266 C2265 1.374 . S
C2267 C2264 1.499 . S
C2267 C2268 1.373 . S
C2267 C2269 1.389 . S
C2268 H2241 0.950 . S
C2268 C2254 1.377 . S
C2268 C2267 1.373 . S
C2269 C2253 1.377 . S
C2269 C2267 1.389 . S
C2269 C2270 1.524 . S
C2270 C2269 1.524 . S
C2270 C2271 1.397 . S
C2270 C2275 1.363 . S
C2271 H2242 0.950 . S
C2271 C2270 1.397 . S
C2271 C2272 1.334 . S
C2272 H2243 0.950 . S
C2272 C2271 1.334 . S
C2272 C2273 1.287 . S
C2273 C2272 1.287 . S
C2273 C2274 1.524 . S
C2273 H2276 0.999 . S
C2274 H2244 0.950 . S
C2274 C2273 1.524 . S
C2274 C2275 1.415 . S
C2275 H2245 0.950 . S
C2275 C2270 1.363 . S
C2275 C2274 1.415 . S
H2276 C2273 0.999 . S
H2277 C2258 0.913 . S
H2278 C2296 0.951 . S
H2279 C2298 0.951 . S
H2280 C2300 0.950 . S
H2281 C2301 0.950 . S
H2282 C2303 0.950 . S
H2283 C2306 0.950 . S
H2284 C2307 0.950 . S
H2285 C2309 0.950 . S
H2286 C2310 0.950 . S
H2287 C2311 0.951 . S
H2288 C2313 0.951 . S
H2289 C2315 0.950 . S
H2290 C2316 0.950 . S
H2291 C2318 0.950 . S
H2292 C2321 0.950 . S
H2293 C2322 0.950 . S
H2294 C2324 0.950 . S
H2295 C2325 0.950 . S
C2296 H2278 0.951 . S
C2296 C2297 1.366 . S
C2296 C2298 1.388 . S
C2297 C2296 1.366 . S
C2297 C2301 1.385 . S
C2298 H2279 0.951 . S
C2298 C2296 1.388 . S
C2298 C2299 1.366 . S
C2299 C2298 1.366 . S
C2299 C2300 1.414 . S
C2299 C2302 1.499 . S
C2300 H2280 0.950 . S
C2300 C2299 1.414 . S
C2300 C2301 1.374 . S
C2301 H2281 0.950 . S
C2301 C2297 1.385 . S
C2301 C2300 1.374 . S
C2302 C2299 1.499 . S
C2302 C2303 1.373 . S
C2302 C2304 1.389 . S
C2303 H2282 0.950 . S
C2303 C2302 1.373 . S
C2303 C2319 1.377 . S
C2304 C2302 1.389 . S
C2304 C2305 1.524 . S
C2304 C2318 1.377 . S
C2305 C2304 1.524 . S
C2305 C2306 1.397 . S
C2305 C2310 1.363 . S
C2306 H2283 0.950 . S
C2306 C2305 1.397 . S
C2306 C2307 1.334 . S
C2307 H2284 0.950 . S
C2307 C2306 1.334 . S
C2307 C2308 1.287 . S
C2308 C2307 1.287 . S
C2308 C2309 1.524 . S
C2308 H2327 0.913 . S
C2309 H2285 0.950 . S
C2309 C2308 1.524 . S
C2309 C2310 1.415 . S
C2310 H2286 0.950 . S
C2310 C2305 1.363 . S
C2310 C2309 1.415 . S
C2311 H2287 0.951 . S
C2311 C2312 1.366 . S
C2311 C2313 1.388 . S
C2312 C2311 1.366 . S
C2312 C2316 1.385 . S
C2313 H2288 0.951 . S
C2313 C2311 1.388 . S
C2313 C2314 1.366 . S
C2314 C2313 1.366 . S
C2314 C2315 1.414 . S
C2314 C2317 1.499 . S
C2315 H2289 0.950 . S
C2315 C2314 1.414 . S
C2315 C2316 1.374 . S
C2316 H2290 0.950 . S
C2316 C2312 1.385 . S
C2316 C2315 1.374 . S
C2317 C2314 1.499 . S
C2317 C2318 1.373 . S
C2317 C2319 1.389 . S
C2318 H2291 0.950 . S
C2318 C2304 1.377 . S
C2318 C2317 1.373 . S
C2319 C2303 1.377 . S
C2319 C2317 1.389 . S
C2319 C2320 1.524 . S
C2320 C2319 1.524 . S
C2320 C2321 1.397 . S
C2320 C2325 1.363 . S
C2321 H2292 0.950 . S
C2321 C2320 1.397 . S
C2321 C2322 1.334 . S
C2322 H2293 0.950 . S
C2322 C2321 1.334 . S
C2322 C2323 1.287 . S
C2323 C2322 1.287 . S
C2323 C2324 1.524 . S
C2323 H2326 0.999 . S
C2324 H2294 0.950 . S
C2324 C2323 1.524 . S
C2324 C2325 1.415 . S
C2325 H2295 0.950 . S
C2325 C2320 1.363 . S
C2325 C2324 1.415 . S
H2326 C2323 0.999 . S
H2327 C2308 0.913 . S
H2328 C2346 0.951 . S
H2329 C2348 0.951 . S
H2330 C2350 0.950 . S
H2331 C2351 0.950 . S
H2332 C2353 0.950 . S
H2333 C2356 0.950 . S
H2334 C2357 0.950 . S
H2335 C2359 0.950 . S
H2336 C2360 0.950 . S
H2337 C2361 0.951 . S
H2338 C2363 0.951 . S
H2339 C2365 0.950 . S
H2340 C2366 0.950 . S
H2341 C2368 0.950 . S
H2342 C2371 0.950 . S
H2343 C2372 0.950 . S
H2344 C2374 0.950 . S
H2345 C2375 0.950 . S
C2346 H2328 0.951 . S
C2346 C2347 1.366 . S
C2346 C2348 1.388 . S
C2347 C2346 1.366 . S
C2347 C2351 1.385 . S
C2348 H2329 0.951 . S
C2348 C2346 1.388 . S
C2348 C2349 1.366 . S
C2349 C2348 1.366 . S
C2349 C2350 1.414 . S
C2349 C2352 1.499 . S
C2350 H2330 0.950 . S
C2350 C2349 1.414 . S
C2350 C2351 1.374 . S
C2351 H2331 0.950 . S
C2351 C2347 1.385 . S
C2351 C2350 1.374 . S
C2352 C2349 1.499 . S
C2352 C2353 1.373 . S
C2352 C2354 1.389 . S
C2353 H2332 0.950 . S
C2353 C2352 1.373 . S
C2353 C2369 1.377 . S
C2354 C2352 1.389 . S
C2354 C2355 1.524 . S
C2354 C2368 1.377 . S
C2355 C2354 1.524 . S
C2355 C2356 1.397 . S
C2355 C2360 1.363 . S
C2356 H2333 0.950 . S
C2356 C2355 1.397 . S
C2356 C2357 1.334 . S
C2357 H2334 0.950 . S
C2357 C2356 1.334 . S
C2357 C2358 1.287 . S
C2358 C2357 1.287 . S
C2358 C2359 1.524 . S
C2358 H2377 0.913 . S
C2359 H2335 0.950 . S
C2359 C2358 1.524 . S
C2359 C2360 1.415 . S
C2360 H2336 0.950 . S
C2360 C2355 1.363 . S
C2360 C2359 1.415 . S
C2361 H2337 0.951 . S
C2361 C2362 1.366 . S
C2361 C2363 1.388 . S
C2362 C2361 1.366 . S
C2362 C2366 1.385 . S
C2363 H2338 0.951 . S
C2363 C2361 1.388 . S
C2363 C2364 1.366 . S
C2364 C2363 1.366 . S
C2364 C2365 1.414 . S
C2364 C2367 1.499 . S
C2365 H2339 0.950 . S
C2365 C2364 1.414 . S
C2365 C2366 1.374 . S
C2366 H2340 0.950 . S
C2366 C2362 1.385 . S
C2366 C2365 1.374 . S
C2367 C2364 1.499 . S
C2367 C2368 1.373 . S
C2367 C2369 1.389 . S
C2368 H2341 0.950 . S
C2368 C2354 1.377 . S
C2368 C2367 1.373 . S
C2369 C2353 1.377 . S
C2369 C2367 1.389 . S
C2369 C2370 1.524 . S
C2370 C2369 1.524 . S
C2370 C2371 1.397 . S
C2370 C2375 1.363 . S
C2371 H2342 0.950 . S
C2371 C2370 1.397 . S
C2371 C2372 1.334 . S
C2372 H2343 0.950 . S
C2372 C2371 1.334 . S
C2372 C2373 1.287 . S
C2373 C2372 1.287 . S
C2373 C2374 1.524 . S
C2373 H2376 0.999 . S
C2374 H2344 0.950 . S
C2374 C2373 1.524 . S
C2374 C2375 1.415 . S
C2375 H2345 0.950 . S
C2375 C2370 1.363 . S
C2375 C2374 1.415 . S
H2376 C2373 0.999 . S
H2377 C2358 0.913 . S
H2378 C2396 0.951 . S
H2379 C2398 0.951 . S
H2380 C2400 0.950 . S
H2381 C2401 0.950 . S
H2382 C2403 0.950 . S
H2383 C2406 0.950 . S
H2384 C2407 0.950 . S
H2385 C2409 0.950 . S
H2386 C2410 0.950 . S
H2387 C2411 0.951 . S
H2388 C2413 0.951 . S
H2389 C2415 0.950 . S
H2390 C2416 0.950 . S
H2391 C2418 0.950 . S
H2392 C2421 0.950 . S
H2393 C2422 0.950 . S
H2394 C2424 0.950 . S
H2395 C2425 0.950 . S
C2396 H2378 0.951 . S
C2396 C2397 1.366 . S
C2396 C2398 1.388 . S
C2397 C2396 1.366 . S
C2397 C2401 1.385 . S
C2398 H2379 0.951 . S
C2398 C2396 1.388 . S
C2398 C2399 1.366 . S
C2399 C2398 1.366 . S
C2399 C2400 1.414 . S
C2399 C2402 1.499 . S
C2400 H2380 0.950 . S
C2400 C2399 1.414 . S
C2400 C2401 1.374 . S
C2401 H2381 0.950 . S
C2401 C2397 1.385 . S
C2401 C2400 1.374 . S
C2402 C2399 1.499 . S
C2402 C2403 1.373 . S
C2402 C2404 1.389 . S
C2403 H2382 0.950 . S
C2403 C2402 1.373 . S
C2403 C2419 1.377 . S
C2404 C2402 1.389 . S
C2404 C2405 1.524 . S
C2404 C2418 1.377 . S
C2405 C2404 1.524 . S
C2405 C2406 1.397 . S
C2405 C2410 1.363 . S
C2406 H2383 0.950 . S
C2406 C2405 1.397 . S
C2406 C2407 1.334 . S
C2407 H2384 0.950 . S
C2407 C2406 1.334 . S
C2407 C2408 1.287 . S
C2408 C2407 1.287 . S
C2408 C2409 1.524 . S
C2408 H2427 0.913 . S
C2409 H2385 0.950 . S
C2409 C2408 1.524 . S
C2409 C2410 1.415 . S
C2410 H2386 0.950 . S
C2410 C2405 1.363 . S
C2410 C2409 1.415 . S
C2411 H2387 0.951 . S
C2411 C2412 1.366 . S
C2411 C2413 1.388 . S
C2412 C2411 1.366 . S
C2412 C2416 1.385 . S
C2413 H2388 0.951 . S
C2413 C2411 1.388 . S
C2413 C2414 1.366 . S
C2414 C2413 1.366 . S
C2414 C2415 1.414 . S
C2414 C2417 1.499 . S
C2415 H2389 0.950 . S
C2415 C2414 1.414 . S
C2415 C2416 1.374 . S
C2416 H2390 0.950 . S
C2416 C2412 1.385 . S
C2416 C2415 1.374 . S
C2417 C2414 1.499 . S
C2417 C2418 1.373 . S
C2417 C2419 1.389 . S
C2418 H2391 0.950 . S
C2418 C2404 1.377 . S
C2418 C2417 1.373 . S
C2419 C2403 1.377 . S
C2419 C2417 1.389 . S
C2419 C2420 1.524 . S
C2420 C2419 1.524 . S
C2420 C2421 1.397 . S
C2420 C2425 1.363 . S
C2421 H2392 0.950 . S
C2421 C2420 1.397 . S
C2421 C2422 1.334 . S
C2422 H2393 0.950 . S
C2422 C2421 1.334 . S
C2422 C2423 1.287 . S
C2423 C2422 1.287 . S
C2423 C2424 1.524 . S
C2423 H2426 0.999 . S
C2424 H2394 0.950 . S
C2424 C2423 1.524 . S
C2424 C2425 1.415 . S
C2425 H2395 0.950 . S
C2425 C2420 1.363 . S
C2425 C2424 1.415 . S
H2426 C2423 0.999 . S
H2427 C2408 0.913 . S
H2428 C2446 0.951 . S
H2429 C2448 0.951 . S
H2430 C2450 0.950 . S
H2431 C2451 0.950 . S
H2432 C2453 0.950 . S
H2433 C2456 0.950 . S
H2434 C2457 0.950 . S
H2435 C2459 0.950 . S
H2436 C2460 0.950 . S
H2437 C2461 0.951 . S
H2438 C2463 0.951 . S
H2439 C2465 0.950 . S
H2440 C2466 0.950 . S
H2441 C2468 0.950 . S
H2442 C2471 0.950 . S
H2443 C2472 0.950 . S
H2444 C2474 0.950 . S
H2445 C2475 0.950 . S
C2446 H2428 0.951 . S
C2446 C2447 1.366 . S
C2446 C2448 1.388 . S
C2447 C2446 1.366 . S
C2447 C2451 1.385 . S
C2448 H2429 0.951 . S
C2448 C2446 1.388 . S
C2448 C2449 1.366 . S
C2449 C2448 1.366 . S
C2449 C2450 1.414 . S
C2449 C2452 1.499 . S
C2450 H2430 0.950 . S
C2450 C2449 1.414 . S
C2450 C2451 1.374 . S
C2451 H2431 0.950 . S
C2451 C2447 1.385 . S
C2451 C2450 1.374 . S
C2452 C2449 1.499 . S
C2452 C2453 1.373 . S
C2452 C2454 1.389 . S
C2453 H2432 0.950 . S
C2453 C2452 1.373 . S
C2453 C2469 1.377 . S
C2454 C2452 1.389 . S
C2454 C2455 1.524 . S
C2454 C2468 1.377 . S
C2455 C2454 1.524 . S
C2455 C2456 1.397 . S
C2455 C2460 1.363 . S
C2456 H2433 0.950 . S
C2456 C2455 1.397 . S
C2456 C2457 1.334 . S
C2457 H2434 0.950 . S
C2457 C2456 1.334 . S
C2457 C2458 1.287 . S
C2458 C2457 1.287 . S
C2458 C2459 1.524 . S
C2458 H2477 0.913 . S
C2459 H2435 0.950 . S
C2459 C2458 1.524 . S
C2459 C2460 1.415 . S
C2460 H2436 0.950 . S
C2460 C2455 1.363 . S
C2460 C2459 1.415 . S
C2461 H2437 0.951 . S
C2461 C2462 1.366 . S
C2461 C2463 1.388 . S
C2462 C2461 1.366 . S
C2462 C2466 1.385 . S
C2463 H2438 0.951 . S
C2463 C2461 1.388 . S
C2463 C2464 1.366 . S
C2464 C2463 1.366 . S
C2464 C2465 1.414 . S
C2464 C2467 1.499 . S
C2465 H2439 0.950 . S
C2465 C2464 1.414 . S
C2465 C2466 1.374 . S
C2466 H2440 0.950 . S
C2466 C2462 1.385 . S
C2466 C2465 1.374 . S
C2467 C2464 1.499 . S
C2467 C2468 1.373 . S
C2467 C2469 1.389 . S
C2468 H2441 0.950 . S
C2468 C2454 1.377 . S
C2468 C2467 1.373 . S
C2469 C2453 1.377 . S
C2469 C2467 1.389 . S
C2469 C2470 1.524 . S
C2470 C2469 1.524 . S
C2470 C2471 1.397 . S
C2470 C2475 1.363 . S
C2471 H2442 0.950 . S
C2471 C2470 1.397 . S
C2471 C2472 1.334 . S
C2472 H2443 0.950 . S
C2472 C2471 1.334 . S
C2472 C2473 1.287 . S
C2473 C2472 1.287 . S
C2473 C2474 1.524 . S
C2473 H2476 0.999 . S
C2474 H2444 0.950 . S
C2474 C2473 1.524 . S
C2474 C2475 1.415 . S
C2475 H2445 0.950 . S
C2475 C2470 1.363 . S
C2475 C2474 1.415 . S
H2476 C2473 0.999 . S
H2477 C2458 0.913 . S
H2478 C2496 0.951 . S
H2479 C2498 0.951 . S
H2480 C2500 0.950 . S
H2481 C2501 0.950 . S
H2482 C2503 0.950 . S
H2483 C2506 0.950 . S
H2484 C2507 0.950 . S
H2485 C2509 0.950 . S
H2486 C2510 0.950 . S
H2487 C2511 0.951 . S
H2488 C2513 0.951 . S
H2489 C2515 0.950 . S
H2490 C2516 0.950 . S
H2491 C2518 0.950 . S
H2492 C2521 0.950 . S
H2493 C2522 0.950 . S
H2494 C2524 0.950 . S
H2495 C2525 0.950 . S
C2496 H2478 0.951 . S
C2496 C2497 1.366 . S
C2496 C2498 1.388 . S
C2497 C2496 1.366 . S
C2497 C2501 1.385 . S
C2498 H2479 0.951 . S
C2498 C2496 1.388 . S
C2498 C2499 1.366 . S
C2499 C2498 1.366 . S
C2499 C2500 1.414 . S
C2499 C2502 1.499 . S
C2500 H2480 0.950 . S
C2500 C2499 1.414 . S
C2500 C2501 1.374 . S
C2501 H2481 0.950 . S
C2501 C2497 1.385 . S
C2501 C2500 1.374 . S
C2502 C2499 1.499 . S
C2502 C2503 1.373 . S
C2502 C2504 1.389 . S
C2503 H2482 0.950 . S
C2503 C2502 1.373 . S
C2503 C2519 1.377 . S
C2504 C2502 1.389 . S
C2504 C2505 1.524 . S
C2504 C2518 1.377 . S
C2505 C2504 1.524 . S
C2505 C2506 1.397 . S
C2505 C2510 1.363 . S
C2506 H2483 0.950 . S
C2506 C2505 1.397 . S
C2506 C2507 1.334 . S
C2507 H2484 0.950 . S
C2507 C2506 1.334 . S
C2507 C2508 1.287 . S
C2508 C2507 1.287 . S
C2508 C2509 1.524 . S
C2508 H2527 0.913 . S
C2509 H2485 0.950 . S
C2509 C2508 1.524 . S
C2509 C2510 1.415 . S
C2510 H2486 0.950 . S
C2510 C2505 1.363 . S
C2510 C2509 1.415 . S
C2511 H2487 0.951 . S
C2511 C2512 1.366 . S
C2511 C2513 1.388 . S
C2512 C2511 1.366 . S
C2512 C2516 1.385 . S
C2513 H2488 0.951 . S
C2513 C2511 1.388 . S
C2513 C2514 1.366 . S
C2514 C2513 1.366 . S
C2514 C2515 1.414 . S
C2514 C2517 1.499 . S
C2515 H2489 0.950 . S
C2515 C2514 1.414 . S
C2515 C2516 1.374 . S
C2516 H2490 0.950 . S
C2516 C2512 1.385 . S
C2516 C2515 1.374 . S
C2517 C2514 1.499 . S
C2517 C2518 1.373 . S
C2517 C2519 1.389 . S
C2518 H2491 0.950 . S
C2518 C2504 1.377 . S
C2518 C2517 1.373 . S
C2519 C2503 1.377 . S
C2519 C2517 1.389 . S
C2519 C2520 1.524 . S
C2520 C2519 1.524 . S
C2520 C2521 1.397 . S
C2520 C2525 1.363 . S
C2521 H2492 0.950 . S
C2521 C2520 1.397 . S
C2521 C2522 1.334 . S
C2522 H2493 0.950 . S
C2522 C2521 1.334 . S
C2522 C2523 1.287 . S
C2523 C2522 1.287 . S
C2523 C2524 1.524 . S
C2523 H2526 0.999 . S
C2524 H2494 0.950 . S
C2524 C2523 1.524 . S
C2524 C2525 1.415 . S
C2525 H2495 0.950 . S
C2525 C2520 1.363 . S
C2525 C2524 1.415 . S
H2526 C2523 0.999 . S
H2527 C2508 0.913 . S
H2528 C2546 0.951 . S
H2529 C2548 0.951 . S
H2530 C2550 0.950 . S
H2531 C2551 0.950 . S
H2532 C2553 0.950 . S
H2533 C2556 0.950 . S
H2534 C2557 0.950 . S
H2535 C2559 0.950 . S
H2536 C2560 0.950 . S
H2537 C2561 0.951 . S
H2538 C2563 0.951 . S
H2539 C2565 0.950 . S
H2540 C2566 0.950 . S
H2541 C2568 0.950 . S
H2542 C2571 0.950 . S
H2543 C2572 0.950 . S
H2544 C2574 0.950 . S
H2545 C2575 0.950 . S
C2546 H2528 0.951 . S
C2546 C2547 1.366 . S
C2546 C2548 1.388 . S
C2547 C2546 1.366 . S
C2547 C2551 1.385 . S
C2548 H2529 0.951 . S
C2548 C2546 1.388 . S
C2548 C2549 1.366 . S
C2549 C2548 1.366 . S
C2549 C2550 1.414 . S
C2549 C2552 1.499 . S
C2550 H2530 0.950 . S
C2550 C2549 1.414 . S
C2550 C2551 1.374 . S
C2551 H2531 0.950 . S
C2551 C2547 1.385 . S
C2551 C2550 1.374 . S
C2552 C2549 1.499 . S
C2552 C2553 1.373 . S
C2552 C2554 1.389 . S
C2553 H2532 0.950 . S
C2553 C2552 1.373 . S
C2553 C2569 1.377 . S
C2554 C2552 1.389 . S
C2554 C2555 1.524 . S
C2554 C2568 1.377 . S
C2555 C2554 1.524 . S
C2555 C2556 1.397 . S
C2555 C2560 1.363 . S
C2556 H2533 0.950 . S
C2556 C2555 1.397 . S
C2556 C2557 1.334 . S
C2557 H2534 0.950 . S
C2557 C2556 1.334 . S
C2557 C2558 1.287 . S
C2558 C2557 1.287 . S
C2558 C2559 1.524 . S
C2558 H2577 0.913 . S
C2559 H2535 0.950 . S
C2559 C2558 1.524 . S
C2559 C2560 1.415 . S
C2560 H2536 0.950 . S
C2560 C2555 1.363 . S
C2560 C2559 1.415 . S
C2561 H2537 0.951 . S
C2561 C2562 1.366 . S
C2561 C2563 1.388 . S
C2562 C2561 1.366 . S
C2562 C2566 1.385 . S
C2563 H2538 0.951 . S
C2563 C2561 1.388 . S
C2563 C2564 1.366 . S
C2564 C2563 1.366 . S
C2564 C2565 1.414 . S
C2564 C2567 1.499 . S
C2565 H2539 0.950 . S
C2565 C2564 1.414 . S
C2565 C2566 1.374 . S
C2566 H2540 0.950 . S
C2566 C2562 1.385 . S
C2566 C2565 1.374 . S
C2567 C2564 1.499 . S
C2567 C2568 1.373 . S
C2567 C2569 1.389 . S
C2568 H2541 0.950 . S
C2568 C2554 1.377 . S
C2568 C2567 1.373 . S
C2569 C2553 1.377 . S
C2569 C2567 1.389 . S
C2569 C2570 1.524 . S
C2570 C2569 1.524 . S
C2570 C2571 1.397 . S
C2570 C2575 1.363 . S
C2571 H2542 0.950 . S
C2571 C2570 1.397 . S
C2571 C2572 1.334 . S
C2572 H2543 0.950 . S
C2572 C2571 1.334 . S
C2572 C2573 1.287 . S
C2573 C2572 1.287 . S
C2573 C2574 1.524 . S
C2573 H2576 0.999 . S
C2574 H2544 0.950 . S
C2574 C2573 1.524 . S
C2574 C2575 1.415 . S
C2575 H2545 0.950 . S
C2575 C2570 1.363 . S
C2575 C2574 1.415 . S
H2576 C2573 0.999 . S
H2577 C2558 0.913 . S
H2578 C2596 0.951 . S
H2579 C2598 0.951 . S
H2580 C2600 0.950 . S
H2581 C2601 0.950 . S
H2582 C2603 0.950 . S
H2583 C2606 0.950 . S
H2584 C2607 0.950 . S
H2585 C2609 0.950 . S
H2586 C2610 0.950 . S
H2587 C2611 0.951 . S
H2588 C2613 0.951 . S
H2589 C2615 0.950 . S
H2590 C2616 0.950 . S
H2591 C2618 0.950 . S
H2592 C2621 0.950 . S
H2593 C2622 0.950 . S
H2594 C2624 0.950 . S
H2595 C2625 0.950 . S
C2596 H2578 0.951 . S
C2596 C2597 1.366 . S
C2596 C2598 1.388 . S
C2597 C2596 1.366 . S
C2597 C2601 1.385 . S
C2598 H2579 0.951 . S
C2598 C2596 1.388 . S
C2598 C2599 1.366 . S
C2599 C2598 1.366 . S
C2599 C2600 1.414 . S
C2599 C2602 1.499 . S
C2600 H2580 0.950 . S
C2600 C2599 1.414 . S
C2600 C2601 1.374 . S
C2601 H2581 0.950 . S
C2601 C2597 1.385 . S
C2601 C2600 1.374 . S
C2602 C2599 1.499 . S
C2602 C2603 1.373 . S
C2602 C2604 1.389 . S
C2603 H2582 0.950 . S
C2603 C2602 1.373 . S
C2603 C2619 1.377 . S
C2604 C2602 1.389 . S
C2604 C2605 1.524 . S
C2604 C2618 1.377 . S
C2605 C2604 1.524 . S
C2605 C2606 1.397 . S
C2605 C2610 1.363 . S
C2606 H2583 0.950 . S
C2606 C2605 1.397 . S
C2606 C2607 1.334 . S
C2607 H2584 0.950 . S
C2607 C2606 1.334 . S
C2607 C2608 1.287 . S
C2608 C2607 1.287 . S
C2608 C2609 1.524 . S
C2608 H2627 0.913 . S
C2609 H2585 0.950 . S
C2609 C2608 1.524 . S
C2609 C2610 1.415 . S
C2610 H2586 0.950 . S
C2610 C2605 1.363 . S
C2610 C2609 1.415 . S
C2611 H2587 0.951 . S
C2611 C2612 1.366 . S
C2611 C2613 1.388 . S
C2612 C2611 1.366 . S
C2612 C2616 1.385 . S
C2613 H2588 0.951 . S
C2613 C2611 1.388 . S
C2613 C2614 1.366 . S
C2614 C2613 1.366 . S
C2614 C2615 1.414 . S
C2614 C2617 1.499 . S
C2615 H2589 0.950 . S
C2615 C2614 1.414 . S
C2615 C2616 1.374 . S
C2616 H2590 0.950 . S
C2616 C2612 1.385 . S
C2616 C2615 1.374 . S
C2617 C2614 1.499 . S
C2617 C2618 1.373 . S
C2617 C2619 1.389 . S
C2618 H2591 0.950 . S
C2618 C2604 1.377 . S
C2618 C2617 1.373 . S
C2619 C2603 1.377 . S
C2619 C2617 1.389 . S
C2619 C2620 1.524 . S
C2620 C2619 1.524 . S
C2620 C2621 1.397 . S
C2620 C2625 1.363 . S
C2621 H2592 0.950 . S
C2621 C2620 1.397 . S
C2621 C2622 1.334 . S
C2622 H2593 0.950 . S
C2622 C2621 1.334 . S
C2622 C2623 1.287 . S
C2623 C2622 1.287 . S
C2623 C2624 1.524 . S
C2623 H2626 0.999 . S
C2624 H2594 0.950 . S
C2624 C2623 1.524 . S
C2624 C2625 1.415 . S
C2625 H2595 0.950 . S
C2625 C2620 1.363 . S
C2625 C2624 1.415 . S
H2626 C2623 0.999 . S
H2627 C2608 0.913 . S
H2628 C2646 0.951 . S
H2629 C2648 0.951 . S
H2630 C2650 0.950 . S
H2631 C2651 0.950 . S
H2632 C2653 0.950 . S
H2633 C2656 0.950 . S
H2634 C2657 0.950 . S
H2635 C2659 0.950 . S
H2636 C2660 0.950 . S
H2637 C2661 0.951 . S
H2638 C2663 0.951 . S
H2639 C2665 0.950 . S
H2640 C2666 0.950 . S
H2641 C2668 0.950 . S
H2642 C2671 0.950 . S
H2643 C2672 0.950 . S
H2644 C2674 0.950 . S
H2645 C2675 0.950 . S
C2646 H2628 0.951 . S
C2646 C2647 1.366 . S
C2646 C2648 1.388 . S
C2647 C2646 1.366 . S
C2647 C2651 1.385 . S
C2648 H2629 0.951 . S
C2648 C2646 1.388 . S
C2648 C2649 1.366 . S
C2649 C2648 1.366 . S
C2649 C2650 1.414 . S
C2649 C2652 1.499 . S
C2650 H2630 0.950 . S
C2650 C2649 1.414 . S
C2650 C2651 1.374 . S
C2651 H2631 0.950 . S
C2651 C2647 1.385 . S
C2651 C2650 1.374 . S
C2652 C2649 1.499 . S
C2652 C2653 1.373 . S
C2652 C2654 1.389 . S
C2653 H2632 0.950 . S
C2653 C2652 1.373 . S
C2653 C2669 1.377 . S
C2654 C2652 1.389 . S
C2654 C2655 1.524 . S
C2654 C2668 1.377 . S
C2655 C2654 1.524 . S
C2655 C2656 1.397 . S
C2655 C2660 1.363 . S
C2656 H2633 0.950 . S
C2656 C2655 1.397 . S
C2656 C2657 1.334 . S
C2657 H2634 0.950 . S
C2657 C2656 1.334 . S
C2657 C2658 1.287 . S
C2658 C2657 1.287 . S
C2658 C2659 1.524 . S
C2658 H2677 0.913 . S
C2659 H2635 0.950 . S
C2659 C2658 1.524 . S
C2659 C2660 1.415 . S
C2660 H2636 0.950 . S
C2660 C2655 1.363 . S
C2660 C2659 1.415 . S
C2661 H2637 0.951 . S
C2661 C2662 1.366 . S
C2661 C2663 1.388 . S
C2662 C2661 1.366 . S
C2662 C2666 1.385 . S
C2663 H2638 0.951 . S
C2663 C2661 1.388 . S
C2663 C2664 1.366 . S
C2664 C2663 1.366 . S
C2664 C2665 1.414 . S
C2664 C2667 1.499 . S
C2665 H2639 0.950 . S
C2665 C2664 1.414 . S
C2665 C2666 1.374 . S
C2666 H2640 0.950 . S
C2666 C2662 1.385 . S
C2666 C2665 1.374 . S
C2667 C2664 1.499 . S
C2667 C2668 1.373 . S
C2667 C2669 1.389 . S
C2668 H2641 0.950 . S
C2668 C2654 1.377 . S
C2668 C2667 1.373 . S
C2669 C2653 1.377 . S
C2669 C2667 1.389 . S
C2669 C2670 1.524 . S
C2670 C2669 1.524 . S
C2670 C2671 1.397 . S
C2670 C2675 1.363 . S
C2671 H2642 0.950 . S
C2671 C2670 1.397 . S
C2671 C2672 1.334 . S
C2672 H2643 0.950 . S
C2672 C2671 1.334 . S
C2672 C2673 1.287 . S
C2673 C2672 1.287 . S
C2673 C2674 1.524 . S
C2673 H2676 0.999 . S
C2674 H2644 0.950 . S
C2674 C2673 1.524 . S
C2674 C2675 1.415 . S
C2675 H2645 0.950 . S
C2675 C2670 1.363 . S
C2675 C2674 1.415 . S
H2676 C2673 0.999 . S
H2677 C2658 0.913 . S
H2678 C2696 0.951 . S
H2679 C2698 0.951 . S
H2680 C2700 0.950 . S
H2681 C2701 0.950 . S
H2682 C2703 0.950 . S
H2683 C2706 0.950 . S
H2684 C2707 0.950 . S
H2685 C2709 0.950 . S
H2686 C2710 0.950 . S
H2687 C2711 0.951 . S
H2688 C2713 0.951 . S
H2689 C2715 0.950 . S
H2690 C2716 0.950 . S
H2691 C2718 0.950 . S
H2692 C2721 0.950 . S
H2693 C2722 0.950 . S
H2694 C2724 0.950 . S
H2695 C2725 0.950 . S
C2696 H2678 0.951 . S
C2696 C2697 1.366 . S
C2696 C2698 1.388 . S
C2697 C2696 1.366 . S
C2697 C2701 1.385 . S
C2698 H2679 0.951 . S
C2698 C2696 1.388 . S
C2698 C2699 1.366 . S
C2699 C2698 1.366 . S
C2699 C2700 1.414 . S
C2699 C2702 1.499 . S
C2700 H2680 0.950 . S
C2700 C2699 1.414 . S
C2700 C2701 1.374 . S
C2701 H2681 0.950 . S
C2701 C2697 1.385 . S
C2701 C2700 1.374 . S
C2702 C2699 1.499 . S
C2702 C2703 1.373 . S
C2702 C2704 1.389 . S
C2703 H2682 0.950 . S
C2703 C2702 1.373 . S
C2703 C2719 1.377 . S
C2704 C2702 1.389 . S
C2704 C2705 1.524 . S
C2704 C2718 1.377 . S
C2705 C2704 1.524 . S
C2705 C2706 1.397 . S
C2705 C2710 1.363 . S
C2706 H2683 0.950 . S
C2706 C2705 1.397 . S
C2706 C2707 1.334 . S
C2707 H2684 0.950 . S
C2707 C2706 1.334 . S
C2707 C2708 1.287 . S
C2708 C2707 1.287 . S
C2708 C2709 1.524 . S
C2708 H2727 0.913 . S
C2709 H2685 0.950 . S
C2709 C2708 1.524 . S
C2709 C2710 1.415 . S
C2710 H2686 0.950 . S
C2710 C2705 1.363 . S
C2710 C2709 1.415 . S
C2711 H2687 0.951 . S
C2711 C2712 1.366 . S
C2711 C2713 1.388 . S
C2712 C2711 1.366 . S
C2712 C2716 1.385 . S
C2713 H2688 0.951 . S
C2713 C2711 1.388 . S
C2713 C2714 1.366 . S
C2714 C2713 1.366 . S
C2714 C2715 1.414 . S
C2714 C2717 1.499 . S
C2715 H2689 0.950 . S
C2715 C2714 1.414 . S
C2715 C2716 1.374 . S
C2716 H2690 0.950 . S
C2716 C2712 1.385 . S
C2716 C2715 1.374 . S
C2717 C2714 1.499 . S
C2717 C2718 1.373 . S
C2717 C2719 1.389 . S
C2718 H2691 0.950 . S
C2718 C2704 1.377 . S
C2718 C2717 1.373 . S
C2719 C2703 1.377 . S
C2719 C2717 1.389 . S
C2719 C2720 1.524 . S
C2720 C2719 1.524 . S
C2720 C2721 1.397 . S
C2720 C2725 1.363 . S
C2721 H2692 0.950 . S
C2721 C2720 1.397 . S
C2721 C2722 1.334 . S
C2722 H2693 0.950 . S
C2722 C2721 1.334 . S
C2722 C2723 1.287 . S
C2723 C2722 1.287 . S
C2723 C2724 1.524 . S
C2723 H2726 0.999 . S
C2724 H2694 0.950 . S
C2724 C2723 1.524 . S
C2724 C2725 1.415 . S
C2725 H2695 0.950 . S
C2725 C2720 1.363 . S
C2725 C2724 1.415 . S
H2726 C2723 0.999 . S
H2727 C2708 0.913 . S
H2728 C2746 0.951 . S
H2729 C2748 0.951 . S
H2730 C2750 0.950 . S
H2731 C2751 0.950 . S
H2732 C2753 0.950 . S
H2733 C2756 0.950 . S
H2734 C2757 0.950 . S
H2735 C2759 0.950 . S
H2736 C2760 0.950 . S
H2737 C2761 0.951 . S
H2738 C2763 0.951 . S
H2739 C2765 0.950 . S
H2740 C2766 0.950 . S
H2741 C2768 0.950 . S
H2742 C2771 0.950 . S
H2743 C2772 0.950 . S
H2744 C2774 0.950 . S
H2745 C2775 0.950 . S
C2746 H2728 0.951 . S
C2746 C2747 1.366 . S
C2746 C2748 1.388 . S
C2747 C2746 1.366 . S
C2747 C2751 1.385 . S
C2748 H2729 0.951 . S
C2748 C2746 1.388 . S
C2748 C2749 1.366 . S
C2749 C2748 1.366 . S
C2749 C2750 1.414 . S
C2749 C2752 1.499 . S
C2750 H2730 0.950 . S
C2750 C2749 1.414 . S
C2750 C2751 1.374 . S
C2751 H2731 0.950 . S
C2751 C2747 1.385 . S
C2751 C2750 1.374 . S
C2752 C2749 1.499 . S
C2752 C2753 1.373 . S
C2752 C2754 1.389 . S
C2753 H2732 0.950 . S
C2753 C2752 1.373 . S
C2753 C2769 1.377 . S
C2754 C2752 1.389 . S
C2754 C2755 1.524 . S
C2754 C2768 1.377 . S
C2755 C2754 1.524 . S
C2755 C2756 1.397 . S
C2755 C2760 1.363 . S
C2756 H2733 0.950 . S
C2756 C2755 1.397 . S
C2756 C2757 1.334 . S
C2757 H2734 0.950 . S
C2757 C2756 1.334 . S
C2757 C2758 1.287 . S
C2758 C2757 1.287 . S
C2758 C2759 1.524 . S
C2758 H2777 0.913 . S
C2759 H2735 0.950 . S
C2759 C2758 1.524 . S
C2759 C2760 1.415 . S
C2760 H2736 0.950 . S
C2760 C2755 1.363 . S
C2760 C2759 1.415 . S
C2761 H2737 0.951 . S
C2761 C2762 1.366 . S
C2761 C2763 1.388 . S
C2762 C2761 1.366 . S
C2762 C2766 1.385 . S
C2763 H2738 0.951 . S
C2763 C2761 1.388 . S
C2763 C2764 1.366 . S
C2764 C2763 1.366 . S
C2764 C2765 1.414 . S
C2764 C2767 1.499 . S
C2765 H2739 0.950 . S
C2765 C2764 1.414 . S
C2765 C2766 1.374 . S
C2766 H2740 0.950 . S
C2766 C2762 1.385 . S
C2766 C2765 1.374 . S
C2767 C2764 1.499 . S
C2767 C2768 1.373 . S
C2767 C2769 1.389 . S
C2768 H2741 0.950 . S
C2768 C2754 1.377 . S
C2768 C2767 1.373 . S
C2769 C2753 1.377 . S
C2769 C2767 1.389 . S
C2769 C2770 1.524 . S
C2770 C2769 1.524 . S
C2770 C2771 1.397 . S
C2770 C2775 1.363 . S
C2771 H2742 0.950 . S
C2771 C2770 1.397 . S
C2771 C2772 1.334 . S
C2772 H2743 0.950 . S
C2772 C2771 1.334 . S
C2772 C2773 1.287 . S
C2773 C2772 1.287 . S
C2773 C2774 1.524 . S
C2773 H2776 0.999 . S
C2774 H2744 0.950 . S
C2774 C2773 1.524 . S
C2774 C2775 1.415 . S
C2775 H2745 0.950 . S
C2775 C2770 1.363 . S
C2775 C2774 1.415 . S
H2776 C2773 0.999 . S
H2777 C2758 0.913 . S
H2778 C2796 0.951 . S
H2779 C2798 0.951 . S
H2780 C2800 0.950 . S
H2781 C2801 0.950 . S
H2782 C2803 0.950 . S
H2783 C2806 0.950 . S
H2784 C2807 0.950 . S
H2785 C2809 0.950 . S
H2786 C2810 0.950 . S
H2787 C2811 0.951 . S
H2788 C2813 0.951 . S
H2789 C2815 0.950 . S
H2790 C2816 0.950 . S
H2791 C2818 0.950 . S
H2792 C2821 0.950 . S
H2793 C2822 0.950 . S
H2794 C2824 0.950 . S
H2795 C2825 0.950 . S
C2796 H2778 0.951 . S
C2796 C2797 1.366 . S
C2796 C2798 1.388 . S
C2797 C2796 1.366 . S
C2797 C2801 1.385 . S
C2798 H2779 0.951 . S
C2798 C2796 1.388 . S
C2798 C2799 1.366 . S
C2799 C2798 1.366 . S
C2799 C2800 1.414 . S
C2799 C2802 1.499 . S
C2800 H2780 0.950 . S
C2800 C2799 1.414 . S
C2800 C2801 1.374 . S
C2801 H2781 0.950 . S
C2801 C2797 1.385 . S
C2801 C2800 1.374 . S
C2802 C2799 1.499 . S
C2802 C2803 1.373 . S
C2802 C2804 1.389 . S
C2803 H2782 0.950 . S
C2803 C2802 1.373 . S
C2803 C2819 1.377 . S
C2804 C2802 1.389 . S
C2804 C2805 1.524 . S
C2804 C2818 1.377 . S
C2805 C2804 1.524 . S
C2805 C2806 1.397 . S
C2805 C2810 1.363 . S
C2806 H2783 0.950 . S
C2806 C2805 1.397 . S
C2806 C2807 1.334 . S
C2807 H2784 0.950 . S
C2807 C2806 1.334 . S
C2807 C2808 1.287 . S
C2808 C2807 1.287 . S
C2808 C2809 1.524 . S
C2808 H2827 0.913 . S
C2809 H2785 0.950 . S
C2809 C2808 1.524 . S
C2809 C2810 1.415 . S
C2810 H2786 0.950 . S
C2810 C2805 1.363 . S
C2810 C2809 1.415 . S
C2811 H2787 0.951 . S
C2811 C2812 1.366 . S
C2811 C2813 1.388 . S
C2812 C2811 1.366 . S
C2812 C2816 1.385 . S
C2813 H2788 0.951 . S
C2813 C2811 1.388 . S
C2813 C2814 1.366 . S
C2814 C2813 1.366 . S
C2814 C2815 1.414 . S
C2814 C2817 1.499 . S
C2815 H2789 0.950 . S
C2815 C2814 1.414 . S
C2815 C2816 1.374 . S
C2816 H2790 0.950 . S
C2816 C2812 1.385 . S
C2816 C2815 1.374 . S
C2817 C2814 1.499 . S
C2817 C2818 1.373 . S
C2817 C2819 1.389 . S
C2818 H2791 0.950 . S
C2818 C2804 1.377 . S
C2818 C2817 1.373 . S
C2819 C2803 1.377 . S
C2819 C2817 1.389 . S
C2819 C2820 1.524 . S
C2820 C2819 1.524 . S
C2820 C2821 1.397 . S
C2820 C2825 1.363 . S
C2821 H2792 0.950 . S
C2821 C2820 1.397 . S
C2821 C2822 1.334 . S
C2822 H2793 0.950 . S
C2822 C2821 1.334 . S
C2822 C2823 1.287 . S
C2823 C2822 1.287 . S
C2823 C2824 1.524 . S
C2823 H2826 0.999 . S
C2824 H2794 0.950 . S
C2824 C2823 1.524 . S
C2824 C2825 1.415 . S
C2825 H2795 0.950 . S
C2825 C2820 1.363 . S
C2825 C2824 1.415 . S
H2826 C2823 0.999 . S
H2827 C2808 0.913 . S
H2828 C2846 0.951 . S
H2829 C2848 0.951 . S
H2830 C2850 0.950 . S
H2831 C2851 0.950 . S
H2832 C2853 0.950 . S
H2833 C2856 0.950 . S
H2834 C2857 0.950 . S
H2835 C2859 0.950 . S
H2836 C2860 0.950 . S
H2837 C2861 0.951 . S
H2838 C2863 0.951 . S
H2839 C2865 0.950 . S
H2840 C2866 0.950 . S
H2841 C2868 0.950 . S
H2842 C2871 0.950 . S
H2843 C2872 0.950 . S
H2844 C2874 0.950 . S
H2845 C2875 0.950 . S
C2846 H2828 0.951 . S
C2846 C2847 1.366 . S
C2846 C2848 1.388 . S
C2847 C2846 1.366 . S
C2847 C2851 1.385 . S
C2848 H2829 0.951 . S
C2848 C2846 1.388 . S
C2848 C2849 1.366 . S
C2849 C2848 1.366 . S
C2849 C2850 1.414 . S
C2849 C2852 1.499 . S
C2850 H2830 0.950 . S
C2850 C2849 1.414 . S
C2850 C2851 1.374 . S
C2851 H2831 0.950 . S
C2851 C2847 1.385 . S
C2851 C2850 1.374 . S
C2852 C2849 1.499 . S
C2852 C2853 1.373 . S
C2852 C2854 1.389 . S
C2853 H2832 0.950 . S
C2853 C2852 1.373 . S
C2853 C2869 1.377 . S
C2854 C2852 1.389 . S
C2854 C2855 1.524 . S
C2854 C2868 1.377 . S
C2855 C2854 1.524 . S
C2855 C2856 1.397 . S
C2855 C2860 1.363 . S
C2856 H2833 0.950 . S
C2856 C2855 1.397 . S
C2856 C2857 1.334 . S
C2857 H2834 0.950 . S
C2857 C2856 1.334 . S
C2857 C2858 1.287 . S
C2858 C2857 1.287 . S
C2858 C2859 1.524 . S
C2858 H2877 0.913 . S
C2859 H2835 0.950 . S
C2859 C2858 1.524 . S
C2859 C2860 1.415 . S
C2860 H2836 0.950 . S
C2860 C2855 1.363 . S
C2860 C2859 1.415 . S
C2861 H2837 0.951 . S
C2861 C2862 1.366 . S
C2861 C2863 1.388 . S
C2862 C2861 1.366 . S
C2862 C2866 1.385 . S
C2863 H2838 0.951 . S
C2863 C2861 1.388 . S
C2863 C2864 1.366 . S
C2864 C2863 1.366 . S
C2864 C2865 1.414 . S
C2864 C2867 1.499 . S
C2865 H2839 0.950 . S
C2865 C2864 1.414 . S
C2865 C2866 1.374 . S
C2866 H2840 0.950 . S
C2866 C2862 1.385 . S
C2866 C2865 1.374 . S
C2867 C2864 1.499 . S
C2867 C2868 1.373 . S
C2867 C2869 1.389 . S
C2868 H2841 0.950 . S
C2868 C2854 1.377 . S
C2868 C2867 1.373 . S
C2869 C2853 1.377 . S
C2869 C2867 1.389 . S
C2869 C2870 1.524 . S
C2870 C2869 1.524 . S
C2870 C2871 1.397 . S
C2870 C2875 1.363 . S
C2871 H2842 0.950 . S
C2871 C2870 1.397 . S
C2871 C2872 1.334 . S
C2872 H2843 0.950 . S
C2872 C2871 1.334 . S
C2872 C2873 1.287 . S
C2873 C2872 1.287 . S
C2873 C2874 1.524 . S
C2873 H2876 0.999 . S
C2874 H2844 0.950 . S
C2874 C2873 1.524 . S
C2874 C2875 1.415 . S
C2875 H2845 0.950 . S
C2875 C2870 1.363 . S
C2875 C2874 1.415 . S
H2876 C2873 0.999 . S
H2877 C2858 0.913 . S
H2878 C2896 0.951 . S
H2879 C2898 0.951 . S
H2880 C2900 0.950 . S
H2881 C2901 0.950 . S
H2882 C2903 0.950 . S
H2883 C2906 0.950 . S
H2884 C2907 0.950 . S
H2885 C2909 0.950 . S
H2886 C2910 0.950 . S
H2887 C2911 0.951 . S
H2888 C2913 0.951 . S
H2889 C2915 0.950 . S
H2890 C2916 0.950 . S
H2891 C2918 0.950 . S
H2892 C2921 0.950 . S
H2893 C2922 0.950 . S
H2894 C2924 0.950 . S
H2895 C2925 0.950 . S
C2896 H2878 0.951 . S
C2896 C2897 1.366 . S
C2896 C2898 1.388 . S
C2897 C2896 1.366 . S
C2897 C2901 1.385 . S
C2898 H2879 0.951 . S
C2898 C2896 1.388 . S
C2898 C2899 1.366 . S
C2899 C2898 1.366 . S
C2899 C2900 1.414 . S
C2899 C2902 1.499 . S
C2900 H2880 0.950 . S
C2900 C2899 1.414 . S
C2900 C2901 1.374 . S
C2901 H2881 0.950 . S
C2901 C2897 1.385 . S
C2901 C2900 1.374 . S
C2902 C2899 1.499 . S
C2902 C2903 1.373 . S
C2902 C2904 1.389 . S
C2903 H2882 0.950 . S
C2903 C2902 1.373 . S
C2903 C2919 1.377 . S
C2904 C2902 1.389 . S
C2904 C2905 1.524 . S
C2904 C2918 1.377 . S
C2905 C2904 1.524 . S
C2905 C2906 1.397 . S
C2905 C2910 1.363 . S
C2906 H2883 0.950 . S
C2906 C2905 1.397 . S
C2906 C2907 1.334 . S
C2907 H2884 0.950 . S
C2907 C2906 1.334 . S
C2907 C2908 1.287 . S
C2908 C2907 1.287 . S
C2908 C2909 1.524 . S
C2908 H2927 0.913 . S
C2909 H2885 0.950 . S
C2909 C2908 1.524 . S
C2909 C2910 1.415 . S
C2910 H2886 0.950 . S
C2910 C2905 1.363 . S
C2910 C2909 1.415 . S
C2911 H2887 0.951 . S
C2911 C2912 1.366 . S
C2911 C2913 1.388 . S
C2912 C2911 1.366 . S
C2912 C2916 1.385 . S
C2913 H2888 0.951 . S
C2913 C2911 1.388 . S
C2913 C2914 1.366 . S
C2914 C2913 1.366 . S
C2914 C2915 1.414 . S
C2914 C2917 1.499 . S
C2915 H2889 0.950 . S
C2915 C2914 1.414 . S
C2915 C2916 1.374 . S
C2916 H2890 0.950 . S
C2916 C2912 1.385 . S
C2916 C2915 1.374 . S
C2917 C2914 1.499 . S
C2917 C2918 1.373 . S
C2917 C2919 1.389 . S
C2918 H2891 0.950 . S
C2918 C2904 1.377 . S
C2918 C2917 1.373 . S
C2919 C2903 1.377 . S
C2919 C2917 1.389 . S
C2919 C2920 1.524 . S
C2920 C2919 1.524 . S
C2920 C2921 1.397 . S
C2920 C2925 1.363 . S
C2921 H2892 0.950 . S
C2921 C2920 1.397 . S
C2921 C2922 1.334 . S
C2922 H2893 0.950 . S
C2922 C2921 1.334 . S
C2922 C2923 1.287 . S
C2923 C2922 1.287 . S
C2923 C2924 1.524 . S
C2923 H2926 0.999 . S
C2924 H2894 0.950 . S
C2924 C2923 1.524 . S
C2924 C2925 1.415 . S
C2925 H2895 0.950 . S
C2925 C2920 1.363 . S
C2925 C2924 1.415 . S
H2926 C2923 0.999 . S
H2927 C2908 0.913 . S
H2928 C2946 0.951 . S
H2929 C2948 0.951 . S
H2930 C2950 0.950 . S
H2931 C2951 0.950 . S
H2932 C2953 0.950 . S
H2933 C2956 0.950 . S
H2934 C2957 0.950 . S
H2935 C2959 0.989 . S
H2936 C2960 0.950 . S
H2937 C2961 0.951 . S
H2938 C2963 0.951 . S
H2939 C2965 0.950 . S
H2940 C2966 0.950 . S
H2941 C2968 0.950 . S
H2942 C2971 0.950 . S
H2943 C2972 0.950 . S
H2944 C2974 0.950 . S
H2945 C2975 0.950 . S
C2946 H2928 0.951 . S
C2946 C2947 1.366 . S
C2946 C2948 1.388 . S
C2947 C2946 1.366 . S
C2947 C2951 1.385 . S
C2948 H2929 0.951 . S
C2948 C2946 1.388 . S
C2948 C2949 1.366 . S
C2949 C2948 1.366 . S
C2949 C2950 1.414 . S
C2949 C2952 1.499 . S
C2950 H2930 0.950 . S
C2950 C2949 1.414 . S
C2950 C2951 1.374 . S
C2951 H2931 0.950 . S
C2951 C2947 1.385 . S
C2951 C2950 1.374 . S
C2952 C2949 1.499 . S
C2952 C2953 1.373 . S
C2952 C2954 1.389 . S
C2953 H2932 0.950 . S
C2953 C2952 1.373 . S
C2953 C2969 1.377 . S
C2954 C2952 1.389 . S
C2954 C2955 1.524 . S
C2954 C2968 1.377 1_655 S
C2955 C2954 1.524 . S
C2955 C2956 1.397 . S
C2955 C2960 1.363 1_655 S
C2956 H2933 0.950 . S
C2956 C2955 1.397 . S
C2956 C2957 1.334 . S
C2957 H2934 0.950 . S
C2957 C2956 1.334 . S
C2957 C2958 1.287 . S
C2958 C2957 1.287 . S
C2958 C2959 1.476 1_655 S
C2958 H2977 0.913 . S
C2959 H2935 0.989 . S
C2959 C2958 1.476 1_455 S
C2959 C2960 1.427 . S
C2960 H2936 0.950 . S
C2960 C2955 1.363 1_455 S
C2960 C2959 1.427 . S
C2961 H2937 0.951 . S
C2961 C2962 1.366 . S
C2961 C2963 1.388 . S
C2962 C2961 1.366 . S
C2962 C2966 1.385 . S
C2963 H2938 0.951 . S
C2963 C2961 1.388 . S
C2963 C2964 1.366 . S
C2964 C2963 1.366 . S
C2964 C2965 1.414 . S
C2964 C2967 1.499 . S
C2965 H2939 0.950 . S
C2965 C2964 1.414 . S
C2965 C2966 1.374 . S
C2966 H2940 0.950 . S
C2966 C2962 1.385 . S
C2966 C2965 1.374 . S
C2967 C2964 1.499 . S
C2967 C2968 1.373 . S
C2967 C2969 1.389 1_455 S
C2968 H2941 0.950 . S
C2968 C2954 1.377 1_455 S
C2968 C2967 1.373 . S
C2969 C2953 1.377 . S
C2969 C2967 1.389 1_655 S
C2969 C2970 1.540 . S
C2970 C2969 1.540 . S
C2970 C2971 1.350 1_655 S
C2970 C2975 1.408 . S
C2971 H2942 0.950 . S
C2971 C2970 1.350 1_455 S
C2971 C2972 1.334 . S
C2972 H2943 0.950 . S
C2972 C2971 1.334 . S
C2972 C2973 1.287 1_455 S
C2973 C2972 1.287 1_655 S
C2973 C2974 1.523 . S
C2973 H2976 0.998 1_655 S
C2974 H2944 0.950 . S
C2974 C2973 1.523 . S
C2974 C2975 1.415 . S
C2975 H2945 0.950 . S
C2975 C2970 1.408 . S
C2975 C2974 1.415 . S
H2976 C2973 0.998 1_455 S
H2977 C2958 0.913 . S
H2978 C2996 0.951 . S
H2979 C2998 0.951 . S
H2980 C3000 0.950 . S
H2981 C3001 0.950 . S
H2982 C3003 0.950 . S
H2983 C3006 0.950 . S
H2984 C3007 0.950 . S
H2985 C3009 0.950 . S
H2986 C3010 0.950 1_565 S
H2987 C3011 0.951 . S
H2988 C3013 0.951 . S
H2989 C3015 0.950 . S
H2990 C3016 0.950 . S
H2991 C3018 0.950 . S
H2992 C3021 0.950 . S
H2993 C3022 0.950 . S
H2994 C3024 0.950 . S
H2995 C3025 0.950 . S
C2996 H2978 0.951 . S
C2996 C2997 1.366 . S
C2996 C2998 1.388 . S
C2997 C2996 1.366 . S
C2997 C3001 1.385 . S
C2998 H2979 0.951 . S
C2998 C2996 1.388 . S
C2998 C2999 1.366 . S
C2999 C2998 1.366 . S
C2999 C3000 1.414 . S
C2999 C3002 1.499 . S
C3000 H2980 0.950 . S
C3000 C2999 1.414 . S
C3000 C3001 1.374 . S
C3001 H2981 0.950 . S
C3001 C2997 1.385 . S
C3001 C3000 1.374 . S
C3002 C2999 1.499 . S
C3002 C3003 1.373 . S
C3002 C3004 1.389 . S
C3003 H2982 0.950 . S
C3003 C3002 1.373 . S
C3003 C3019 1.377 1_545 S
C3004 C3002 1.389 . S
C3004 C3005 1.524 . S
C3004 C3018 1.377 1_545 S
C3005 C3004 1.524 . S
C3005 C3006 1.397 . S
C3005 C3010 1.363 . S
C3006 H2983 0.950 . S
C3006 C3005 1.397 . S
C3006 C3007 1.334 . S
C3007 H2984 0.950 . S
C3007 C3006 1.334 . S
C3007 C3008 1.287 . S
C3008 C3007 1.287 . S
C3008 C3009 1.524 . S
C3008 H3027 0.913 . S
C3009 H2985 0.950 . S
C3009 C3008 1.524 . S
C3009 C3010 1.415 . S
C3010 H2986 0.950 1_545 S
C3010 C3005 1.363 . S
C3010 C3009 1.415 . S
C3011 H2987 0.951 . S
C3011 C3012 1.366 . S
C3011 C3013 1.388 . S
C3012 C3011 1.366 . S
C3012 C3016 1.385 . S
C3013 H2988 0.951 . S
C3013 C3011 1.388 . S
C3013 C3014 1.366 . S
C3014 C3013 1.366 . S
C3014 C3015 1.414 . S
C3014 C3017 1.499 . S
C3015 H2989 0.950 . S
C3015 C3014 1.414 . S
C3015 C3016 1.374 . S
C3016 H2990 0.950 . S
C3016 C3012 1.385 . S
C3016 C3015 1.374 . S
C3017 C3014 1.499 . S
C3017 C3018 1.373 . S
C3017 C3019 1.389 . S
C3018 H2991 0.950 . S
C3018 C3004 1.377 1_565 S
C3018 C3017 1.373 . S
C3019 C3003 1.377 1_565 S
C3019 C3017 1.389 . S
C3019 C3020 1.524 . S
C3020 C3019 1.524 . S
C3020 C3021 1.397 . S
C3020 C3025 1.363 . S
C3021 H2992 0.950 . S
C3021 C3020 1.397 . S
C3021 C3022 1.334 . S
C3022 H2993 0.950 . S
C3022 C3021 1.334 . S
C3022 C3023 1.287 . S
C3023 C3022 1.287 . S
C3023 C3024 1.524 . S
C3023 H3026 0.999 . S
C3024 H2994 0.950 . S
C3024 C3023 1.524 . S
C3024 C3025 1.415 . S
C3025 H2995 0.950 . S
C3025 C3020 1.363 . S
C3025 C3024 1.415 . S
H3026 C3023 0.999 . S
H3027 C3008 0.913 . S
H3028 C3046 0.951 . S
H3029 C3048 0.951 . S
H3030 C3050 0.950 . S
H3031 C3051 0.950 . S
H3032 C3053 0.950 . S
H3033 C3056 0.950 . S
H3034 C3057 0.950 . S
H3035 C3059 0.950 . S
H3036 C3060 0.950 . S
H3037 C3061 0.951 . S
H3038 C3063 0.951 . S
H3039 C3065 0.950 . S
H3040 C3066 0.950 . S
H3041 C3068 0.936 1_455 S
H3042 C3071 0.950 . S
H3043 C3072 0.950 . S
H3044 C3074 0.950 . S
H3045 C3075 0.950 . S
C3046 H3028 0.951 . S
C3046 C3047 1.366 . S
C3046 C3048 1.388 . S
C3047 C3046 1.366 . S
C3047 C3051 1.385 . S
C3048 H3029 0.951 . S
C3048 C3046 1.388 . S
C3048 C3049 1.366 . S
C3049 C3048 1.366 . S
C3049 C3050 1.414 . S
C3049 C3052 1.499 . S
C3050 H3030 0.950 . S
C3050 C3049 1.414 . S
C3050 C3051 1.374 . S
C3051 H3031 0.950 . S
C3051 C3047 1.385 . S
C3051 C3050 1.374 . S
C3052 C3049 1.499 . S
C3052 C3053 1.373 . S
C3052 C3054 1.389 . S
C3053 H3032 0.950 . S
C3053 C3052 1.373 . S
C3053 C3069 1.377 1_655 S
C3054 C3052 1.389 . S
C3054 C3055 1.524 . S
C3054 C3068 1.414 . S
C3055 C3054 1.524 . S
C3055 C3056 1.397 . S
C3055 C3060 1.363 . S
C3056 H3033 0.950 . S
C3056 C3055 1.397 . S
C3056 C3057 1.334 . S
C3057 H3034 0.950 . S
C3057 C3056 1.334 . S
C3057 C3058 1.287 . S
C3058 C3057 1.287 . S
C3058 C3059 1.524 . S
C3058 H3077 0.913 . S
C3059 H3035 0.950 . S
C3059 C3058 1.524 . S
C3059 C3060 1.415 . S
C3060 H3036 0.950 . S
C3060 C3055 1.363 . S
C3060 C3059 1.415 . S
C3061 H3037 0.951 . S
C3061 C3062 1.366 . S
C3061 C3063 1.388 . S
C3062 C3061 1.366 . S
C3062 C3066 1.385 . S
C3063 H3038 0.951 . S
C3063 C3061 1.388 . S
C3063 C3064 1.366 . S
C3064 C3063 1.366 . S
C3064 C3065 1.414 . S
C3064 C3067 1.499 . S
C3065 H3039 0.950 . S
C3065 C3064 1.414 . S
C3065 C3066 1.374 . S
C3066 H3040 0.950 . S
C3066 C3062 1.385 . S
C3066 C3065 1.374 . S
C3067 C3064 1.499 . S
C3067 C3068 1.351 1_455 S
C3067 C3069 1.389 . S
C3068 H3041 0.936 1_655 S
C3068 C3054 1.414 . S
C3068 C3067 1.351 1_655 S
C3069 C3053 1.377 1_455 S
C3069 C3067 1.389 . S
C3069 C3070 1.524 . S
C3070 C3069 1.524 . S
C3070 C3071 1.397 . S
C3070 C3075 1.363 . S
C3071 H3042 0.950 . S
C3071 C3070 1.397 . S
C3071 C3072 1.334 . S
C3072 H3043 0.950 . S
C3072 C3071 1.334 . S
C3072 C3073 1.287 . S
C3073 C3072 1.287 . S
C3073 C3074 1.524 . S
C3073 H3076 0.999 . S
C3074 H3044 0.950 . S
C3074 C3073 1.524 . S
C3074 C3075 1.415 . S
C3075 H3045 0.950 . S
C3075 C3070 1.363 . S
C3075 C3074 1.415 . S
H3076 C3073 0.999 . S
H3077 C3058 0.913 . S
H3078 C3096 0.951 . S
H3079 C3098 0.951 . S
H3080 C3100 0.950 . S
H3081 C3101 0.950 . S
H3082 C3103 0.950 . S
H3083 C3106 0.950 . S
H3084 C3107 0.950 . S
H3085 C3109 0.950 . S
H3086 C3110 0.950 . S
H3087 C3111 0.951 . S
H3088 C3113 0.951 . S
H3089 C3115 0.950 . S
H3090 C3116 0.950 . S
H3091 C3118 0.950 . S
H3092 C3121 0.950 . S
H3093 C3122 0.950 . S
H3094 C3124 0.950 . S
H3095 C3125 0.950 . S
C3096 H3078 0.951 . S
C3096 C3097 1.366 . S
C3096 C3098 1.388 . S
C3097 C3096 1.366 . S
C3097 C3101 1.385 . S
C3098 H3079 0.951 . S
C3098 C3096 1.388 . S
C3098 C3099 1.366 . S
C3099 C3098 1.366 . S
C3099 C3100 1.414 . S
C3099 C3102 1.499 . S
C3100 H3080 0.950 . S
C3100 C3099 1.414 . S
C3100 C3101 1.374 . S
C3101 H3081 0.950 . S
C3101 C3097 1.385 . S
C3101 C3100 1.374 . S
C3102 C3099 1.499 . S
C3102 C3103 1.373 . S
C3102 C3104 1.389 . S
C3103 H3082 0.950 . S
C3103 C3102 1.373 . S
C3103 C3119 1.377 1_545 S
C3104 C3102 1.389 . S
C3104 C3105 1.524 . S
C3104 C3118 1.377 1_545 S
C3105 C3104 1.524 . S
C3105 C3106 1.397 . S
C3105 C3110 1.363 . S
C3106 H3083 0.950 . S
C3106 C3105 1.397 . S
C3106 C3107 1.334 . S
C3107 H3084 0.950 . S
C3107 C3106 1.334 . S
C3107 C3108 1.287 . S
C3108 C3107 1.287 . S
C3108 C3109 1.524 . S
C3108 H3127 0.913 . S
C3109 H3085 0.950 . S
C3109 C3108 1.524 . S
C3109 C3110 1.415 . S
C3110 H3086 0.950 . S
C3110 C3105 1.363 . S
C3110 C3109 1.415 . S
C3111 H3087 0.951 . S
C3111 C3112 1.366 . S
C3111 C3113 1.388 . S
C3112 C3111 1.366 . S
C3112 C3116 1.385 . S
C3113 H3088 0.951 . S
C3113 C3111 1.388 . S
C3113 C3114 1.366 . S
C3114 C3113 1.366 . S
C3114 C3115 1.414 . S
C3114 C3117 1.499 . S
C3115 H3089 0.950 . S
C3115 C3114 1.414 . S
C3115 C3116 1.374 . S
C3116 H3090 0.950 . S
C3116 C3112 1.385 . S
C3116 C3115 1.374 . S
C3117 C3114 1.499 . S
C3117 C3118 1.373 . S
C3117 C3119 1.389 . S
C3118 H3091 0.950 . S
C3118 C3104 1.377 1_565 S
C3118 C3117 1.373 . S
C3119 C3103 1.377 1_565 S
C3119 C3117 1.389 . S
C3119 C3120 1.524 . S
C3120 C3119 1.524 . S
C3120 C3121 1.397 . S
C3120 C3125 1.363 . S
C3121 H3092 0.950 . S
C3121 C3120 1.397 . S
C3121 C3122 1.334 . S
C3122 H3093 0.950 . S
C3122 C3121 1.334 . S
C3122 C3123 1.287 . S
C3123 C3122 1.287 . S
C3123 C3124 1.524 . S
C3123 H3126 0.999 . S
C3124 H3094 0.950 . S
C3124 C3123 1.524 . S
C3124 C3125 1.415 . S
C3125 H3095 0.950 . S
C3125 C3120 1.363 . S
C3125 C3124 1.415 . S
H3126 C3123 0.999 . S
H3127 C3108 0.913 . S
H3128 C3146 0.951 . S
H3129 C3148 0.951 . S
H3130 C3150 0.950 . S
H3131 C3151 0.950 . S
H3132 C3153 0.975 . S
H3133 C3156 0.950 . S
H3134 C3157 0.950 . S
H3135 C3159 0.950 . S
H3136 C3160 0.950 . S
H3137 C3161 0.951 . S
H3138 C3163 0.951 . S
H3139 C3165 0.950 . S
H3140 C3166 0.950 . S
H3141 C3168 0.950 . S
H3142 C3171 0.950 . S
H3143 C3172 0.950 . S
H3144 C3174 0.950 . S
H3145 C3175 0.950 . S
C3146 H3128 0.951 . S
C3146 C3147 1.366 . S
C3146 C3148 1.388 . S
C3147 C3146 1.366 . S
C3147 C3151 1.385 . S
C3148 H3129 0.951 . S
C3148 C3146 1.388 . S
C3148 C3149 1.366 . S
C3149 C3148 1.366 . S
C3149 C3150 1.414 . S
C3149 C3152 1.499 . S
C3150 H3130 0.950 . S
C3150 C3149 1.414 . S
C3150 C3151 1.374 . S
C3151 H3131 0.950 . S
C3151 C3147 1.385 . S
C3151 C3150 1.374 . S
C3152 C3149 1.499 . S
C3152 C3153 1.395 . S
C3152 C3154 1.389 . S
C3153 H3132 0.975 . S
C3153 C3152 1.395 . S
C3153 C3169 1.332 1_455 S
C3154 C3152 1.389 . S
C3154 C3155 1.524 . S
C3154 C3168 1.377 1_455 S
C3155 C3154 1.524 . S
C3155 C3156 1.397 . S
C3155 C3160 1.363 . S
C3156 H3133 0.950 . S
C3156 C3155 1.397 . S
C3156 C3157 1.334 . S
C3157 H3134 0.950 . S
C3157 C3156 1.334 . S
C3157 C3158 1.287 . S
C3158 C3157 1.287 . S
C3158 C3159 1.524 . S
C3158 H3177 0.913 . S
C3159 H3135 0.950 . S
C3159 C3158 1.524 . S
C3159 C3160 1.415 . S
C3160 H3136 0.950 . S
C3160 C3155 1.363 . S
C3160 C3159 1.415 . S
C3161 H3137 0.951 . S
C3161 C3162 1.366 . S
C3161 C3163 1.388 . S
C3162 C3161 1.366 . S
C3162 C3166 1.385 . S
C3163 H3138 0.951 . S
C3163 C3161 1.388 . S
C3163 C3164 1.366 . S
C3164 C3163 1.366 . S
C3164 C3165 1.414 . S
C3164 C3167 1.499 . S
C3165 H3139 0.950 . S
C3165 C3164 1.414 . S
C3165 C3166 1.374 . S
C3166 H3140 0.950 . S
C3166 C3162 1.385 . S
C3166 C3165 1.374 . S
C3167 C3164 1.499 . S
C3167 C3168 1.373 . S
C3167 C3169 1.389 . S
C3168 H3141 0.950 . S
C3168 C3154 1.377 1_655 S
C3168 C3167 1.373 . S
C3169 C3153 1.332 1_655 S
C3169 C3167 1.389 . S
C3169 C3170 1.524 . S
C3170 C3169 1.524 . S
C3170 C3171 1.397 . S
C3170 C3175 1.363 . S
C3171 H3142 0.950 . S
C3171 C3170 1.397 . S
C3171 C3172 1.334 . S
C3172 H3143 0.950 . S
C3172 C3171 1.334 . S
C3172 C3173 1.287 . S
C3173 C3172 1.287 . S
C3173 C3174 1.524 . S
C3173 H3176 0.999 . S
C3174 H3144 0.950 . S
C3174 C3173 1.524 . S
C3174 C3175 1.415 . S
C3175 H3145 0.950 . S
C3175 C3170 1.363 . S
C3175 C3174 1.415 . S
H3176 C3173 0.999 . S
H3177 C3158 0.913 . S
H3178 C3196 0.951 . S
H3179 C3198 0.951 . S
H3180 C3200 0.950 . S
H3181 C3201 0.950 . S
H3182 C3203 0.950 . S
H3183 C3206 0.950 . S
H3184 C3207 0.950 . S
H3185 C3209 0.950 . S
H3186 C3210 0.950 . S
H3187 C3211 0.951 . S
H3188 C3213 0.951 . S
H3189 C3215 0.950 . S
H3190 C3216 0.950 . S
H3191 C3218 0.950 . S
H3192 C3221 0.950 . S
H3193 C3222 0.950 . S
H3194 C3224 0.950 . S
H3195 C3225 0.950 . S
C3196 H3178 0.951 . S
C3196 C3197 1.366 . S
C3196 C3198 1.388 . S
C3197 C3196 1.366 . S
C3197 C3201 1.385 . S
C3198 H3179 0.951 . S
C3198 C3196 1.388 . S
C3198 C3199 1.366 . S
C3199 C3198 1.366 . S
C3199 C3200 1.414 . S
C3199 C3202 1.499 . S
C3200 H3180 0.950 . S
C3200 C3199 1.414 . S
C3200 C3201 1.374 . S
C3201 H3181 0.950 . S
C3201 C3197 1.385 . S
C3201 C3200 1.374 . S
C3202 C3199 1.499 . S
C3202 C3203 1.373 . S
C3202 C3204 1.389 . S
C3203 H3182 0.950 . S
C3203 C3202 1.373 . S
C3203 C3219 1.377 1_565 S
C3204 C3202 1.389 . S
C3204 C3205 1.524 . S
C3204 C3218 1.377 1_565 S
C3205 C3204 1.524 . S
C3205 C3206 1.397 . S
C3205 C3210 1.363 . S
C3206 H3183 0.950 . S
C3206 C3205 1.397 . S
C3206 C3207 1.334 . S
C3207 H3184 0.950 . S
C3207 C3206 1.334 . S
C3207 C3208 1.287 . S
C3208 C3207 1.287 . S
C3208 C3209 1.524 . S
C3208 H3227 0.913 . S
C3209 H3185 0.950 . S
C3209 C3208 1.524 . S
C3209 C3210 1.415 . S
C3210 H3186 0.950 . S
C3210 C3205 1.363 . S
C3210 C3209 1.415 . S
C3211 H3187 0.951 . S
C3211 C3212 1.366 . S
C3211 C3213 1.388 . S
C3212 C3211 1.366 . S
C3212 C3216 1.385 . S
C3213 H3188 0.951 . S
C3213 C3211 1.388 . S
C3213 C3214 1.366 . S
C3214 C3213 1.366 . S
C3214 C3215 1.414 . S
C3214 C3217 1.499 . S
C3215 H3189 0.950 . S
C3215 C3214 1.414 . S
C3215 C3216 1.374 . S
C3216 H3190 0.950 . S
C3216 C3212 1.385 . S
C3216 C3215 1.374 . S
C3217 C3214 1.499 . S
C3217 C3218 1.373 . S
C3217 C3219 1.389 . S
C3218 H3191 0.950 . S
C3218 C3204 1.377 1_545 S
C3218 C3217 1.373 . S
C3219 C3203 1.377 1_545 S
C3219 C3217 1.389 . S
C3219 C3220 1.524 . S
C3220 C3219 1.524 . S
C3220 C3221 1.397 . S
C3220 C3225 1.363 . S
C3221 H3192 0.950 . S
C3221 C3220 1.397 . S
C3221 C3222 1.334 . S
C3222 H3193 0.950 . S
C3222 C3221 1.334 . S
C3222 C3223 1.287 . S
C3223 C3222 1.287 . S
C3223 C3224 1.524 . S
C3223 H3226 0.999 . S
C3224 H3194 0.950 . S
C3224 C3223 1.524 . S
C3224 C3225 1.415 . S
C3225 H3195 0.950 . S
C3225 C3220 1.363 . S
C3225 C3224 1.415 . S
H3226 C3223 0.999 . S
H3227 C3208 0.913 . S
H3228 C3246 0.951 . S
H3229 C3248 0.951 . S
H3230 C3250 0.950 . S
H3231 C3251 0.950 . S
H3232 C3253 0.950 . S
H3233 C3256 0.950 . S
H3234 C3257 0.950 . S
H3235 C3259 0.950 . S
H3236 C3260 0.950 . S
H3237 C3261 0.951 . S
H3238 C3263 0.951 . S
H3239 C3265 0.950 . S
H3240 C3266 0.950 . S
H3241 C3268 0.926 1_455 S
H3242 C3271 0.950 . S
H3243 C3272 0.950 . S
H3244 C3274 0.950 . S
H3245 C3275 0.950 . S
C3246 H3228 0.951 . S
C3246 C3247 1.366 . S
C3246 C3248 1.388 . S
C3247 C3246 1.366 . S
C3247 C3251 1.385 . S
C3248 H3229 0.951 . S
C3248 C3246 1.388 . S
C3248 C3249 1.366 . S
C3249 C3248 1.366 . S
C3249 C3250 1.414 . S
C3249 C3252 1.499 . S
C3250 H3230 0.950 . S
C3250 C3249 1.414 . S
C3250 C3251 1.374 . S
C3251 H3231 0.950 . S
C3251 C3247 1.385 . S
C3251 C3250 1.374 . S
C3252 C3249 1.499 . S
C3252 C3253 1.373 . S
C3252 C3254 1.389 . S
C3253 H3232 0.950 . S
C3253 C3252 1.373 . S
C3253 C3269 1.377 1_655 S
C3254 C3252 1.389 . S
C3254 C3255 1.524 . S
C3254 C3268 1.439 . S
C3255 C3254 1.524 . S
C3255 C3256 1.397 . S
C3255 C3260 1.363 . S
C3256 H3233 0.950 . S
C3256 C3255 1.397 . S
C3256 C3257 1.334 . S
C3257 H3234 0.950 . S
C3257 C3256 1.334 . S
C3257 C3258 1.287 . S
C3258 C3257 1.287 . S
C3258 C3259 1.524 . S
C3258 H3277 0.913 . S
C3259 H3235 0.950 . S
C3259 C3258 1.524 . S
C3259 C3260 1.415 . S
C3260 H3236 0.950 . S
C3260 C3255 1.363 . S
C3260 C3259 1.415 . S
C3261 H3237 0.951 . S
C3261 C3262 1.366 . S
C3261 C3263 1.388 . S
C3262 C3261 1.366 . S
C3262 C3266 1.385 . S
C3263 H3238 0.951 . S
C3263 C3261 1.388 . S
C3263 C3264 1.366 . S
C3264 C3263 1.366 . S
C3264 C3265 1.414 . S
C3264 C3267 1.499 . S
C3265 H3239 0.950 . S
C3265 C3264 1.414 . S
C3265 C3266 1.374 . S
C3266 H3240 0.950 . S
C3266 C3262 1.385 . S
C3266 C3265 1.374 . S
C3267 C3264 1.499 . S
C3267 C3268 1.328 1_455 S
C3267 C3269 1.389 . S
C3268 H3241 0.926 1_655 S
C3268 C3254 1.439 . S
C3268 C3267 1.328 1_655 S
C3269 C3253 1.377 1_455 S
C3269 C3267 1.389 . S
C3269 C3270 1.524 . S
C3270 C3269 1.524 . S
C3270 C3271 1.397 . S
C3270 C3275 1.363 . S
C3271 H3242 0.950 . S
C3271 C3270 1.397 . S
C3271 C3272 1.334 . S
C3272 H3243 0.950 . S
C3272 C3271 1.334 . S
C3272 C3273 1.287 . S
C3273 C3272 1.287 . S
C3273 C3274 1.524 . S
C3273 H3276 0.999 . S
C3274 H3244 0.950 . S
C3274 C3273 1.524 . S
C3274 C3275 1.415 . S
C3275 H3245 0.950 . S
C3275 C3270 1.363 . S
C3275 C3274 1.415 . S
H3276 C3273 0.999 . S
H3277 C3258 0.913 . S
H3278 C3296 0.951 . S
H3279 C3298 0.951 . S
H3280 C3300 0.950 . S
H3281 C3301 0.950 . S
H3282 C3303 0.950 . S
H3283 C3306 0.950 . S
H3284 C3307 0.950 . S
H3285 C3309 0.950 . S
H3286 C3310 0.950 . S
H3287 C3311 0.951 . S
H3288 C3313 0.951 . S
H3289 C3315 0.950 . S
H3290 C3316 0.950 . S
H3291 C3318 0.950 . S
H3292 C3321 0.950 . S
H3293 C3322 0.950 . S
H3294 C3324 0.950 . S
H3295 C3325 0.950 . S
C3296 H3278 0.951 . S
C3296 C3297 1.366 . S
C3296 C3298 1.388 . S
C3297 C3296 1.366 . S
C3297 C3301 1.385 . S
C3298 H3279 0.951 . S
C3298 C3296 1.388 . S
C3298 C3299 1.366 . S
C3299 C3298 1.366 . S
C3299 C3300 1.414 . S
C3299 C3302 1.499 . S
C3300 H3280 0.950 . S
C3300 C3299 1.414 . S
C3300 C3301 1.374 . S
C3301 H3281 0.950 . S
C3301 C3297 1.385 . S
C3301 C3300 1.374 . S
C3302 C3299 1.499 . S
C3302 C3303 1.373 . S
C3302 C3304 1.389 . S
C3303 H3282 0.950 . S
C3303 C3302 1.373 . S
C3303 C3319 1.377 1_565 S
C3304 C3302 1.389 . S
C3304 C3305 1.524 . S
C3304 C3318 1.377 1_565 S
C3305 C3304 1.524 . S
C3305 C3306 1.397 . S
C3305 C3310 1.363 . S
C3306 H3283 0.950 . S
C3306 C3305 1.397 . S
C3306 C3307 1.334 . S
C3307 H3284 0.950 . S
C3307 C3306 1.334 . S
C3307 C3308 1.287 . S
C3308 C3307 1.287 . S
C3308 C3309 1.524 . S
C3308 H3327 0.913 . S
C3309 H3285 0.950 . S
C3309 C3308 1.524 . S
C3309 C3310 1.415 . S
C3310 H3286 0.950 . S
C3310 C3305 1.363 . S
C3310 C3309 1.415 . S
C3311 H3287 0.951 . S
C3311 C3312 1.366 . S
C3311 C3313 1.388 . S
C3312 C3311 1.366 . S
C3312 C3316 1.385 . S
C3313 H3288 0.951 . S
C3313 C3311 1.388 . S
C3313 C3314 1.366 . S
C3314 C3313 1.366 . S
C3314 C3315 1.414 . S
C3314 C3317 1.499 . S
C3315 H3289 0.950 . S
C3315 C3314 1.414 . S
C3315 C3316 1.374 . S
C3316 H3290 0.950 . S
C3316 C3312 1.385 . S
C3316 C3315 1.374 . S
C3317 C3314 1.499 . S
C3317 C3318 1.373 . S
C3317 C3319 1.389 . S
C3318 H3291 0.950 . S
C3318 C3304 1.377 1_545 S
C3318 C3317 1.373 . S
C3319 C3303 1.377 1_545 S
C3319 C3317 1.389 . S
C3319 C3320 1.524 . S
C3320 C3319 1.524 . S
C3320 C3321 1.397 . S
C3320 C3325 1.363 . S
C3321 H3292 0.950 . S
C3321 C3320 1.397 . S
C3321 C3322 1.334 . S
C3322 H3293 0.950 . S
C3322 C3321 1.334 . S
C3322 C3323 1.287 . S
C3323 C3322 1.287 . S
C3323 C3324 1.524 . S
C3323 H3326 0.999 . S
C3324 H3294 0.950 . S
C3324 C3323 1.524 . S
C3324 C3325 1.415 . S
C3325 H3295 0.950 . S
C3325 C3320 1.363 . S
C3325 C3324 1.415 . S
H3326 C3323 0.999 . S
H3327 C3308 0.913 . S
H3328 C3346 0.951 . S
H3329 C3348 0.951 . S
H3330 C3350 0.950 . S
H3331 C3351 0.950 . S
H3332 C3353 0.950 . S
H3333 C3356 0.950 . S
H3334 C3357 0.950 . S
H3335 C3359 0.950 . S
H3336 C3360 0.950 . S
H3337 C3361 0.951 . S
H3338 C3363 0.951 . S
H3339 C3365 0.950 . S
H3340 C3366 0.950 . S
H3341 C3368 0.950 . S
H3342 C3371 0.950 . S
H3343 C3372 0.950 . S
H3344 C3374 0.950 . S
H3345 C3375 0.950 . S
C3346 H3328 0.951 . S
C3346 C3347 1.366 . S
C3346 C3348 1.388 . S
C3347 C3346 1.366 . S
C3347 C3351 1.385 . S
C3348 H3329 0.951 . S
C3348 C3346 1.388 . S
C3348 C3349 1.366 . S
C3349 C3348 1.366 . S
C3349 C3350 1.414 . S
C3349 C3352 1.499 . S
C3350 H3330 0.950 . S
C3350 C3349 1.414 . S
C3350 C3351 1.374 . S
C3351 H3331 0.950 . S
C3351 C3347 1.385 . S
C3351 C3350 1.374 . S
C3352 C3349 1.499 . S
C3352 C3353 1.373 . S
C3352 C3354 1.389 . S
C3353 H3332 0.950 . S
C3353 C3352 1.373 . S
C3353 C3369 1.377 1_556 S
C3354 C3352 1.389 . S
C3354 C3355 1.524 . S
C3354 C3368 1.377 1_556 S
C3355 C3354 1.524 . S
C3355 C3356 1.397 . S
C3355 C3360 1.363 . S
C3356 H3333 0.950 . S
C3356 C3355 1.397 . S
C3356 C3357 1.334 . S
C3357 H3334 0.950 . S
C3357 C3356 1.334 . S
C3357 C3358 1.287 . S
C3358 C3357 1.287 . S
C3358 C3359 1.524 . S
C3358 H3377 0.913 . S
C3359 H3335 0.950 . S
C3359 C3358 1.524 . S
C3359 C3360 1.415 . S
C3360 H3336 0.950 . S
C3360 C3355 1.363 . S
C3360 C3359 1.415 . S
C3361 H3337 0.951 . S
C3361 C3362 1.366 . S
C3361 C3363 1.388 . S
C3362 C3361 1.366 . S
C3362 C3366 1.385 . S
C3363 H3338 0.951 . S
C3363 C3361 1.388 . S
C3363 C3364 1.366 . S
C3364 C3363 1.366 . S
C3364 C3365 1.414 . S
C3364 C3367 1.499 . S
C3365 H3339 0.950 . S
C3365 C3364 1.414 . S
C3365 C3366 1.374 . S
C3366 H3340 0.950 . S
C3366 C3362 1.385 . S
C3366 C3365 1.374 . S
C3367 C3364 1.499 . S
C3367 C3368 1.373 . S
C3367 C3369 1.389 . S
C3368 H3341 0.950 . S
C3368 C3354 1.377 1_554 S
C3368 C3367 1.373 . S
C3369 C3353 1.377 1_554 S
C3369 C3367 1.389 . S
C3369 C3370 1.524 . S
C3370 C3369 1.524 . S
C3370 C3371 1.397 . S
C3370 C3375 1.363 . S
C3371 H3342 0.950 . S
C3371 C3370 1.397 . S
C3371 C3372 1.334 . S
C3372 H3343 0.950 . S
C3372 C3371 1.334 . S
C3372 C3373 1.287 . S
C3373 C3372 1.287 . S
C3373 C3374 1.524 . S
C3373 H3376 0.999 . S
C3374 H3344 0.950 . S
C3374 C3373 1.524 . S
C3374 C3375 1.415 . S
C3375 H3345 0.950 . S
C3375 C3370 1.363 . S
C3375 C3374 1.415 . S
H3376 C3373 0.999 . S
H3377 C3358 0.913 . S
H3378 C3396 0.951 . S
H3379 C3398 0.951 . S
H3380 C3400 0.950 . S
H3381 C3401 0.950 . S
H3382 C3403 0.950 . S
H3383 C3406 0.950 . S
H3384 C3407 0.950 . S
H3385 C3409 0.950 . S
H3386 C3410 0.950 . S
H3387 C3411 0.951 . S
H3388 C3413 0.951 . S
H3389 C3415 0.950 . S
H3390 C3416 0.950 . S
H3391 C3418 0.950 . S
H3392 C3421 0.950 . S
H3393 C3422 0.950 . S
H3394 C3424 0.950 . S
H3395 C3425 0.950 . S
C3396 H3378 0.951 . S
C3396 C3397 1.366 . S
C3396 C3398 1.388 . S
C3397 C3396 1.366 . S
C3397 C3401 1.385 . S
C3398 H3379 0.951 . S
C3398 C3396 1.388 . S
C3398 C3399 1.366 . S
C3399 C3398 1.366 . S
C3399 C3400 1.414 . S
C3399 C3402 1.499 . S
C3400 H3380 0.950 . S
C3400 C3399 1.414 . S
C3400 C3401 1.374 . S
C3401 H3381 0.950 . S
C3401 C3397 1.385 . S
C3401 C3400 1.374 . S
C3402 C3399 1.499 . S
C3402 C3403 1.373 . S
C3402 C3404 1.389 . S
C3403 H3382 0.950 . S
C3403 C3402 1.373 . S
C3403 C3419 1.377 1_556 S
C3404 C3402 1.389 . S
C3404 C3405 1.524 . S
C3404 C3418 1.377 1_556 S
C3405 C3404 1.524 . S
C3405 C3406 1.397 . S
C3405 C3410 1.363 . S
C3406 H3383 0.950 . S
C3406 C3405 1.397 . S
C3406 C3407 1.334 . S
C3407 H3384 0.950 . S
C3407 C3406 1.334 . S
C3407 C3408 1.287 . S
C3408 C3407 1.287 . S
C3408 C3409 1.524 . S
C3408 H3427 0.913 . S
C3409 H3385 0.950 . S
C3409 C3408 1.524 . S
C3409 C3410 1.415 . S
C3410 H3386 0.950 . S
C3410 C3405 1.363 . S
C3410 C3409 1.415 . S
C3411 H3387 0.951 . S
C3411 C3412 1.366 . S
C3411 C3413 1.388 . S
C3412 C3411 1.366 . S
C3412 C3416 1.385 . S
C3413 H3388 0.951 . S
C3413 C3411 1.388 . S
C3413 C3414 1.366 . S
C3414 C3413 1.366 . S
C3414 C3415 1.414 . S
C3414 C3417 1.499 . S
C3415 H3389 0.950 . S
C3415 C3414 1.414 . S
C3415 C3416 1.374 . S
C3416 H3390 0.950 . S
C3416 C3412 1.385 . S
C3416 C3415 1.374 . S
C3417 C3414 1.499 . S
C3417 C3418 1.373 . S
C3417 C3419 1.389 . S
C3418 H3391 0.950 . S
C3418 C3404 1.377 1_554 S
C3418 C3417 1.373 . S
C3419 C3403 1.377 1_554 S
C3419 C3417 1.389 . S
C3419 C3420 1.524 . S
C3420 C3419 1.524 . S
C3420 C3421 1.397 . S
C3420 C3425 1.363 . S
C3421 H3392 0.950 . S
C3421 C3420 1.397 . S
C3421 C3422 1.334 . S
C3422 H3393 0.950 . S
C3422 C3421 1.334 . S
C3422 C3423 1.287 . S
C3423 C3422 1.287 . S
C3423 C3424 1.524 . S
C3423 H3426 0.999 . S
C3424 H3394 0.950 . S
C3424 C3423 1.524 . S
C3424 C3425 1.415 . S
C3425 H3395 0.950 . S
C3425 C3420 1.363 . S
C3425 C3424 1.415 . S
H3426 C3423 0.999 . S
H3427 C3408 0.913 . S
H3428 C3446 0.951 . S
H3429 C3448 0.951 . S
H3430 C3450 0.950 . S
H3431 C3451 0.950 . S
H3432 C3453 0.950 . S
H3433 C3456 0.950 . S
H3434 C3457 0.950 . S
H3435 C3459 0.950 . S
H3436 C3460 0.950 . S
H3437 C3461 0.951 . S
H3438 C3463 0.951 . S
H3439 C3465 0.950 . S
H3440 C3466 0.950 . S
H3441 C3468 0.950 . S
H3442 C3471 0.950 . S
H3443 C3472 0.950 . S
H3444 C3474 0.950 . S
H3445 C3475 0.950 . S
C3446 H3428 0.951 . S
C3446 C3447 1.366 . S
C3446 C3448 1.388 . S
C3447 C3446 1.366 . S
C3447 C3451 1.385 . S
C3448 H3429 0.951 . S
C3448 C3446 1.388 . S
C3448 C3449 1.366 . S
C3449 C3448 1.366 . S
C3449 C3450 1.414 . S
C3449 C3452 1.499 . S
C3450 H3430 0.950 . S
C3450 C3449 1.414 . S
C3450 C3451 1.374 . S
C3451 H3431 0.950 . S
C3451 C3447 1.385 . S
C3451 C3450 1.374 . S
C3452 C3449 1.499 . S
C3452 C3453 1.373 . S
C3452 C3454 1.389 . S
C3453 H3432 0.950 . S
C3453 C3452 1.373 . S
C3453 C3469 1.377 1_554 S
C3454 C3452 1.389 . S
C3454 C3455 1.524 . S
C3454 C3468 1.377 1_554 S
C3455 C3454 1.524 . S
C3455 C3456 1.397 . S
C3455 C3460 1.363 . S
C3456 H3433 0.950 . S
C3456 C3455 1.397 . S
C3456 C3457 1.334 . S
C3457 H3434 0.950 . S
C3457 C3456 1.334 . S
C3457 C3458 1.287 . S
C3458 C3457 1.287 . S
C3458 C3459 1.524 . S
C3458 H3477 0.913 . S
C3459 H3435 0.950 . S
C3459 C3458 1.524 . S
C3459 C3460 1.415 . S
C3460 H3436 0.950 . S
C3460 C3455 1.363 . S
C3460 C3459 1.415 . S
C3461 H3437 0.951 . S
C3461 C3462 1.366 . S
C3461 C3463 1.388 . S
C3462 C3461 1.366 . S
C3462 C3466 1.385 . S
C3463 H3438 0.951 . S
C3463 C3461 1.388 . S
C3463 C3464 1.366 . S
C3464 C3463 1.366 . S
C3464 C3465 1.414 . S
C3464 C3467 1.499 . S
C3465 H3439 0.950 . S
C3465 C3464 1.414 . S
C3465 C3466 1.374 . S
C3466 H3440 0.950 . S
C3466 C3462 1.385 . S
C3466 C3465 1.374 . S
C3467 C3464 1.499 . S
C3467 C3468 1.373 . S
C3467 C3469 1.389 . S
C3468 H3441 0.950 . S
C3468 C3454 1.377 1_556 S
C3468 C3467 1.373 . S
C3469 C3453 1.377 1_556 S
C3469 C3467 1.389 . S
C3469 C3470 1.524 . S
C3470 C3469 1.524 . S
C3470 C3471 1.397 . S
C3470 C3475 1.363 . S
C3471 H3442 0.950 . S
C3471 C3470 1.397 . S
C3471 C3472 1.334 . S
C3472 H3443 0.950 . S
C3472 C3471 1.334 . S
C3472 C3473 1.287 . S
C3473 C3472 1.287 . S
C3473 C3474 1.524 . S
C3473 H3476 0.999 . S
C3474 H3444 0.950 . S
C3474 C3473 1.524 . S
C3474 C3475 1.415 . S
C3475 H3445 0.950 . S
C3475 C3470 1.363 . S
C3475 C3474 1.415 . S
H3476 C3473 0.999 . S
H3477 C3458 0.913 . S
H3478 C3496 0.951 . S
H3479 C3498 0.951 . S
H3480 C3500 0.950 . S
H3481 C3501 0.950 . S
H3482 C3503 0.950 . S
H3483 C3506 0.950 . S
H3484 C3507 0.950 . S
H3485 C3509 0.950 . S
H3486 C3510 0.950 . S
H3487 C3511 0.951 . S
H3488 C3513 0.951 . S
H3489 C3515 0.950 . S
H3490 C3516 0.950 . S
H3491 C3518 0.950 . S
H3492 C3521 0.950 . S
H3493 C3522 0.950 . S
H3494 C3524 0.950 . S
H3495 C3525 0.950 . S
C3496 H3478 0.951 . S
C3496 C3497 1.366 . S
C3496 C3498 1.388 . S
C3497 C3496 1.366 . S
C3497 C3501 1.385 . S
C3498 H3479 0.951 . S
C3498 C3496 1.388 . S
C3498 C3499 1.366 . S
C3499 C3498 1.366 . S
C3499 C3500 1.414 . S
C3499 C3502 1.499 . S
C3500 H3480 0.950 . S
C3500 C3499 1.414 . S
C3500 C3501 1.374 . S
C3501 H3481 0.950 . S
C3501 C3497 1.385 . S
C3501 C3500 1.374 . S
C3502 C3499 1.499 . S
C3502 C3503 1.373 . S
C3502 C3504 1.389 . S
C3503 H3482 0.950 . S
C3503 C3502 1.373 . S
C3503 C3519 1.377 1_554 S
C3504 C3502 1.389 . S
C3504 C3505 1.524 . S
C3504 C3518 1.377 1_554 S
C3505 C3504 1.524 . S
C3505 C3506 1.397 . S
C3505 C3510 1.363 . S
C3506 H3483 0.950 . S
C3506 C3505 1.397 . S
C3506 C3507 1.334 . S
C3507 H3484 0.950 . S
C3507 C3506 1.334 . S
C3507 C3508 1.287 . S
C3508 C3507 1.287 . S
C3508 C3509 1.524 . S
C3508 H3527 0.913 . S
C3509 H3485 0.950 . S
C3509 C3508 1.524 . S
C3509 C3510 1.415 . S
C3510 H3486 0.950 . S
C3510 C3505 1.363 . S
C3510 C3509 1.415 . S
C3511 H3487 0.951 . S
C3511 C3512 1.366 . S
C3511 C3513 1.388 . S
C3512 C3511 1.366 . S
C3512 C3516 1.385 . S
C3513 H3488 0.951 . S
C3513 C3511 1.388 . S
C3513 C3514 1.366 . S
C3514 C3513 1.366 . S
C3514 C3515 1.414 . S
C3514 C3517 1.499 . S
C3515 H3489 0.950 . S
C3515 C3514 1.414 . S
C3515 C3516 1.374 . S
C3516 H3490 0.950 . S
C3516 C3512 1.385 . S
C3516 C3515 1.374 . S
C3517 C3514 1.499 . S
C3517 C3518 1.373 . S
C3517 C3519 1.389 . S
C3518 H3491 0.950 . S
C3518 C3504 1.377 1_556 S
C3518 C3517 1.373 . S
C3519 C3503 1.377 1_556 S
C3519 C3517 1.389 . S
C3519 C3520 1.524 . S
C3520 C3519 1.524 . S
C3520 C3521 1.397 . S
C3520 C3525 1.363 . S
C3521 H3492 0.950 . S
C3521 C3520 1.397 . S
C3521 C3522 1.334 . S
C3522 H3493 0.950 . S
C3522 C3521 1.334 . S
C3522 C3523 1.287 . S
C3523 C3522 1.287 . S
C3523 C3524 1.524 . S
C3523 H3526 0.999 . S
C3524 H3494 0.950 . S
C3524 C3523 1.524 . S
C3524 C3525 1.415 . S
C3525 H3495 0.950 . S
C3525 C3520 1.363 . S
C3525 C3524 1.415 . S
H3526 C3523 0.999 . S
H3527 C3508 0.913 . S
H3528 C3546 0.951 . S
H3529 C3548 0.951 . S
H3530 C3550 0.950 . S
H3531 C3551 0.950 . S
H3532 C3553 0.950 . S
H3533 C3556 0.950 . S
H3534 C3557 0.950 . S
H3535 C3559 0.950 . S
H3536 C3560 0.950 . S
H3537 C3561 0.951 . S
H3538 C3563 0.951 . S
H3539 C3565 0.950 . S
H3540 C3566 0.950 . S
H3541 C3568 0.950 . S
H3542 C3571 0.950 . S
H3543 C3572 0.950 . S
H3544 C3574 0.950 . S
H3545 C3575 0.950 . S
C3546 H3528 0.951 . S
C3546 C3547 1.366 . S
C3546 C3548 1.388 . S
C3547 C3546 1.366 . S
C3547 C3551 1.385 . S
C3548 H3529 0.951 . S
C3548 C3546 1.388 . S
C3548 C3549 1.366 . S
C3549 C3548 1.366 . S
C3549 C3550 1.414 . S
C3549 C3552 1.499 . S
C3550 H3530 0.950 . S
C3550 C3549 1.414 . S
C3550 C3551 1.374 . S
C3551 H3531 0.950 . S
C3551 C3547 1.385 . S
C3551 C3550 1.374 . S
C3552 C3549 1.499 . S
C3552 C3553 1.373 . S
C3552 C3554 1.389 . S
C3553 H3532 0.950 . S
C3553 C3552 1.373 . S
C3553 C3569 1.377 . S
C3554 C3552 1.389 . S
C3554 C3555 1.524 . S
C3554 C3568 1.377 . S
C3555 C3554 1.524 . S
C3555 C3556 1.397 . S
C3555 C3560 1.363 . S
C3556 H3533 0.950 . S
C3556 C3555 1.397 . S
C3556 C3557 1.334 . S
C3557 H3534 0.950 . S
C3557 C3556 1.334 . S
C3557 C3558 1.287 . S
C3558 C3557 1.287 . S
C3558 C3559 1.524 . S
C3558 H3577 0.913 . S
C3559 H3535 0.950 . S
C3559 C3558 1.524 . S
C3559 C3560 1.415 . S
C3560 H3536 0.950 . S
C3560 C3555 1.363 . S
C3560 C3559 1.415 . S
C3561 H3537 0.951 . S
C3561 C3562 1.366 . S
C3561 C3563 1.388 . S
C3562 C3561 1.366 . S
C3562 C3566 1.385 . S
C3563 H3538 0.951 . S
C3563 C3561 1.388 . S
C3563 C3564 1.366 . S
C3564 C3563 1.366 . S
C3564 C3565 1.414 . S
C3564 C3567 1.499 . S
C3565 H3539 0.950 . S
C3565 C3564 1.414 . S
C3565 C3566 1.374 . S
C3566 H3540 0.950 . S
C3566 C3562 1.385 . S
C3566 C3565 1.374 . S
C3567 C3564 1.499 . S
C3567 C3568 1.373 . S
C3567 C3569 1.389 . S
C3568 H3541 0.950 . S
C3568 C3554 1.377 . S
C3568 C3567 1.373 . S
C3569 C3553 1.377 . S
C3569 C3567 1.389 . S
C3569 C3570 1.524 . S
C3570 C3569 1.524 . S
C3570 C3571 1.397 . S
C3570 C3575 1.363 . S
C3571 H3542 0.950 . S
C3571 C3570 1.397 . S
C3571 C3572 1.334 . S
C3572 H3543 0.950 . S
C3572 C3571 1.334 . S
C3572 C3573 1.287 . S
C3573 C3572 1.287 . S
C3573 C3574 1.524 . S
C3573 H3576 0.999 . S
C3574 H3544 0.950 . S
C3574 C3573 1.524 . S
C3574 C3575 1.415 . S
C3575 H3545 0.950 . S
C3575 C3570 1.363 . S
C3575 C3574 1.415 . S
H3576 C3573 0.999 . S
H3577 C3558 0.913 . S
H3578 C3596 0.951 . S
H3579 C3598 0.951 . S
H3580 C3600 0.950 . S
H3581 C3601 0.950 . S
H3582 C3603 0.950 . S
H3583 C3606 0.950 . S
H3584 C3607 0.950 . S
H3585 C3609 0.950 . S
H3586 C3610 0.950 . S
H3587 C3611 0.951 . S
H3588 C3613 0.951 . S
H3589 C3615 0.950 . S
H3590 C3616 0.950 . S
H3591 C3618 0.950 . S
H3592 C3621 0.950 . S
H3593 C3622 0.950 . S
H3594 C3624 0.950 . S
H3595 C3625 0.950 . S
C3596 H3578 0.951 . S
C3596 C3597 1.366 . S
C3596 C3598 1.388 . S
C3597 C3596 1.366 . S
C3597 C3601 1.385 . S
C3598 H3579 0.951 . S
C3598 C3596 1.388 . S
C3598 C3599 1.366 . S
C3599 C3598 1.366 . S
C3599 C3600 1.414 . S
C3599 C3602 1.499 . S
C3600 H3580 0.950 . S
C3600 C3599 1.414 . S
C3600 C3601 1.374 . S
C3601 H3581 0.950 . S
C3601 C3597 1.385 . S
C3601 C3600 1.374 . S
C3602 C3599 1.499 . S
C3602 C3603 1.373 . S
C3602 C3604 1.389 . S
C3603 H3582 0.950 . S
C3603 C3602 1.373 . S
C3603 C3619 1.377 . S
C3604 C3602 1.389 . S
C3604 C3605 1.524 . S
C3604 C3618 1.377 . S
C3605 C3604 1.524 . S
C3605 C3606 1.397 . S
C3605 C3610 1.363 . S
C3606 H3583 0.950 . S
C3606 C3605 1.397 . S
C3606 C3607 1.334 . S
C3607 H3584 0.950 . S
C3607 C3606 1.334 . S
C3607 C3608 1.287 . S
C3608 C3607 1.287 . S
C3608 C3609 1.524 . S
C3608 H3627 0.913 . S
C3609 H3585 0.950 . S
C3609 C3608 1.524 . S
C3609 C3610 1.415 . S
C3610 H3586 0.950 . S
C3610 C3605 1.363 . S
C3610 C3609 1.415 . S
C3611 H3587 0.951 . S
C3611 C3612 1.366 . S
C3611 C3613 1.388 . S
C3612 C3611 1.366 . S
C3612 C3616 1.385 . S
C3613 H3588 0.951 . S
C3613 C3611 1.388 . S
C3613 C3614 1.366 . S
C3614 C3613 1.366 . S
C3614 C3615 1.414 . S
C3614 C3617 1.499 . S
C3615 H3589 0.950 . S
C3615 C3614 1.414 . S
C3615 C3616 1.374 . S
C3616 H3590 0.950 . S
C3616 C3612 1.385 . S
C3616 C3615 1.374 . S
C3617 C3614 1.499 . S
C3617 C3618 1.373 . S
C3617 C3619 1.389 . S
C3618 H3591 0.950 . S
C3618 C3604 1.377 . S
C3618 C3617 1.373 . S
C3619 C3603 1.377 . S
C3619 C3617 1.389 . S
C3619 C3620 1.524 . S
C3620 C3619 1.524 . S
C3620 C3621 1.397 . S
C3620 C3625 1.363 . S
C3621 H3592 0.950 . S
C3621 C3620 1.397 . S
C3621 C3622 1.334 . S
C3622 H3593 0.950 . S
C3622 C3621 1.334 . S
C3622 C3623 1.287 . S
C3623 C3622 1.287 . S
C3623 C3624 1.524 . S
C3623 H3626 0.999 . S
C3624 H3594 0.950 . S
C3624 C3623 1.524 . S
C3624 C3625 1.415 . S
C3625 H3595 0.950 . S
C3625 C3620 1.363 . S
C3625 C3624 1.415 . S
H3626 C3623 0.999 . S
H3627 C3608 0.913 . S
H3628 C3646 0.951 . S
H3629 C3648 0.951 . S
H3630 C3650 0.950 . S
H3631 C3651 0.950 . S
H3632 C3653 0.950 . S
H3633 C3656 0.950 . S
H3634 C3657 0.950 . S
H3635 C3659 0.950 . S
H3636 C3660 0.950 . S
H3637 C3661 0.951 . S
H3638 C3663 0.951 . S
H3639 C3665 0.950 . S
H3640 C3666 0.950 . S
H3641 C3668 0.950 . S
H3642 C3671 0.950 . S
H3643 C3672 0.950 . S
H3644 C3674 0.950 . S
H3645 C3675 0.950 . S
C3646 H3628 0.951 . S
C3646 C3647 1.366 . S
C3646 C3648 1.388 . S
C3647 C3646 1.366 . S
C3647 C3651 1.385 . S
C3648 H3629 0.951 . S
C3648 C3646 1.388 . S
C3648 C3649 1.366 . S
C3649 C3648 1.366 . S
C3649 C3650 1.414 . S
C3649 C3652 1.499 . S
C3650 H3630 0.950 . S
C3650 C3649 1.414 . S
C3650 C3651 1.374 . S
C3651 H3631 0.950 . S
C3651 C3647 1.385 . S
C3651 C3650 1.374 . S
C3652 C3649 1.499 . S
C3652 C3653 1.373 . S
C3652 C3654 1.389 . S
C3653 H3632 0.950 . S
C3653 C3652 1.373 . S
C3653 C3669 1.377 . S
C3654 C3652 1.389 . S
C3654 C3655 1.524 . S
C3654 C3668 1.377 . S
C3655 C3654 1.524 . S
C3655 C3656 1.397 . S
C3655 C3660 1.363 . S
C3656 H3633 0.950 . S
C3656 C3655 1.397 . S
C3656 C3657 1.334 . S
C3657 H3634 0.950 . S
C3657 C3656 1.334 . S
C3657 C3658 1.287 . S
C3658 C3657 1.287 . S
C3658 C3659 1.524 . S
C3658 H3677 0.913 . S
C3659 H3635 0.950 . S
C3659 C3658 1.524 . S
C3659 C3660 1.415 . S
C3660 H3636 0.950 . S
C3660 C3655 1.363 . S
C3660 C3659 1.415 . S
C3661 H3637 0.951 . S
C3661 C3662 1.366 . S
C3661 C3663 1.388 . S
C3662 C3661 1.366 . S
C3662 C3666 1.385 . S
C3663 H3638 0.951 . S
C3663 C3661 1.388 . S
C3663 C3664 1.366 . S
C3664 C3663 1.366 . S
C3664 C3665 1.414 . S
C3664 C3667 1.499 . S
C3665 H3639 0.950 . S
C3665 C3664 1.414 . S
C3665 C3666 1.374 . S
C3666 H3640 0.950 . S
C3666 C3662 1.385 . S
C3666 C3665 1.374 . S
C3667 C3664 1.499 . S
C3667 C3668 1.373 . S
C3667 C3669 1.389 . S
C3668 H3641 0.950 . S
C3668 C3654 1.377 . S
C3668 C3667 1.373 . S
C3669 C3653 1.377 . S
C3669 C3667 1.389 . S
C3669 C3670 1.524 . S
C3670 C3669 1.524 . S
C3670 C3671 1.397 . S
C3670 C3675 1.363 . S
C3671 H3642 0.950 . S
C3671 C3670 1.397 . S
C3671 C3672 1.334 . S
C3672 H3643 0.950 . S
C3672 C3671 1.334 . S
C3672 C3673 1.287 . S
C3673 C3672 1.287 . S
C3673 C3674 1.524 . S
C3673 H3676 0.999 . S
C3674 H3644 0.950 . S
C3674 C3673 1.524 . S
C3674 C3675 1.415 . S
C3675 H3645 0.950 . S
C3675 C3670 1.363 . S
C3675 C3674 1.415 . S
H3676 C3673 0.999 . S
H3677 C3658 0.913 . S
H3678 C3696 0.951 . S
H3679 C3698 0.951 . S
H3680 C3700 0.950 . S
H3681 C3701 0.950 . S
H3682 C3703 0.950 . S
H3683 C3706 0.950 . S
H3684 C3707 0.950 . S
H3685 C3709 0.950 . S
H3686 C3710 0.950 . S
H3687 C3711 0.951 . S
H3688 C3713 0.951 . S
H3689 C3715 0.950 . S
H3690 C3716 0.950 . S
H3691 C3718 0.950 . S
H3692 C3721 0.950 . S
H3693 C3722 0.950 . S
H3694 C3724 0.950 . S
H3695 C3725 0.950 . S
C3696 H3678 0.951 . S
C3696 C3697 1.366 . S
C3696 C3698 1.388 . S
C3697 C3696 1.366 . S
C3697 C3701 1.385 . S
C3698 H3679 0.951 . S
C3698 C3696 1.388 . S
C3698 C3699 1.366 . S
C3699 C3698 1.366 . S
C3699 C3700 1.414 . S
C3699 C3702 1.499 . S
C3700 H3680 0.950 . S
C3700 C3699 1.414 . S
C3700 C3701 1.374 . S
C3701 H3681 0.950 . S
C3701 C3697 1.385 . S
C3701 C3700 1.374 . S
C3702 C3699 1.499 . S
C3702 C3703 1.373 . S
C3702 C3704 1.389 . S
C3703 H3682 0.950 . S
C3703 C3702 1.373 . S
C3703 C3719 1.377 . S
C3704 C3702 1.389 . S
C3704 C3705 1.524 . S
C3704 C3718 1.377 . S
C3705 C3704 1.524 . S
C3705 C3706 1.397 . S
C3705 C3710 1.363 . S
C3706 H3683 0.950 . S
C3706 C3705 1.397 . S
C3706 C3707 1.334 . S
C3707 H3684 0.950 . S
C3707 C3706 1.334 . S
C3707 C3708 1.287 . S
C3708 C3707 1.287 . S
C3708 C3709 1.524 . S
C3708 H3727 0.913 . S
C3709 H3685 0.950 . S
C3709 C3708 1.524 . S
C3709 C3710 1.415 . S
C3710 H3686 0.950 . S
C3710 C3705 1.363 . S
C3710 C3709 1.415 . S
C3711 H3687 0.951 . S
C3711 C3712 1.366 . S
C3711 C3713 1.388 . S
C3712 C3711 1.366 . S
C3712 C3716 1.385 . S
C3713 H3688 0.951 . S
C3713 C3711 1.388 . S
C3713 C3714 1.366 . S
C3714 C3713 1.366 . S
C3714 C3715 1.414 . S
C3714 C3717 1.499 . S
C3715 H3689 0.950 . S
C3715 C3714 1.414 . S
C3715 C3716 1.374 . S
C3716 H3690 0.950 . S
C3716 C3712 1.385 . S
C3716 C3715 1.374 . S
C3717 C3714 1.499 . S
C3717 C3718 1.373 . S
C3717 C3719 1.389 . S
C3718 H3691 0.950 . S
C3718 C3704 1.377 . S
C3718 C3717 1.373 . S
C3719 C3703 1.377 . S
C3719 C3717 1.389 . S
C3719 C3720 1.524 . S
C3720 C3719 1.524 . S
C3720 C3721 1.397 . S
C3720 C3725 1.363 . S
C3721 H3692 0.950 . S
C3721 C3720 1.397 . S
C3721 C3722 1.334 . S
C3722 H3693 0.950 . S
C3722 C3721 1.334 . S
C3722 C3723 1.287 . S
C3723 C3722 1.287 . S
C3723 C3724 1.524 . S
C3723 H3726 0.999 . S
C3724 H3694 0.950 . S
C3724 C3723 1.524 . S
C3724 C3725 1.415 . S
C3725 H3695 0.950 . S
C3725 C3720 1.363 . S
C3725 C3724 1.415 . S
H3726 C3723 0.999 . S
H3727 C3708 0.913 . S
H3728 C3746 0.951 . S
H3729 C3748 0.951 . S
H3730 C3750 0.950 . S
H3731 C3751 0.950 . S
H3732 C3753 0.950 . S
H3733 C3756 0.950 . S
H3734 C3757 0.950 . S
H3735 C3759 0.950 . S
H3736 C3760 0.950 . S
H3737 C3761 0.951 . S
H3738 C3763 0.951 . S
H3739 C3765 0.950 . S
H3740 C3766 0.950 . S
H3741 C3768 0.950 . S
H3742 C3771 0.950 . S
H3743 C3772 0.950 . S
H3744 C3774 0.950 . S
H3745 C3775 0.950 . S
C3746 H3728 0.951 . S
C3746 C3747 1.366 . S
C3746 C3748 1.388 . S
C3747 C3746 1.366 . S
C3747 C3751 1.385 . S
C3748 H3729 0.951 . S
C3748 C3746 1.388 . S
C3748 C3749 1.366 . S
C3749 C3748 1.366 . S
C3749 C3750 1.414 . S
C3749 C3752 1.499 . S
C3750 H3730 0.950 . S
C3750 C3749 1.414 . S
C3750 C3751 1.374 . S
C3751 H3731 0.950 . S
C3751 C3747 1.385 . S
C3751 C3750 1.374 . S
C3752 C3749 1.499 . S
C3752 C3753 1.373 . S
C3752 C3754 1.389 . S
C3753 H3732 0.950 . S
C3753 C3752 1.373 . S
C3753 C3769 1.377 . S
C3754 C3752 1.389 . S
C3754 C3755 1.524 . S
C3754 C3768 1.377 . S
C3755 C3754 1.524 . S
C3755 C3756 1.397 . S
C3755 C3760 1.363 . S
C3756 H3733 0.950 . S
C3756 C3755 1.397 . S
C3756 C3757 1.334 . S
C3757 H3734 0.950 . S
C3757 C3756 1.334 . S
C3757 C3758 1.287 . S
C3758 C3757 1.287 . S
C3758 C3759 1.524 . S
C3758 H3777 0.913 . S
C3759 H3735 0.950 . S
C3759 C3758 1.524 . S
C3759 C3760 1.415 . S
C3760 H3736 0.950 . S
C3760 C3755 1.363 . S
C3760 C3759 1.415 . S
C3761 H3737 0.951 . S
C3761 C3762 1.366 . S
C3761 C3763 1.388 . S
C3762 C3761 1.366 . S
C3762 C3766 1.385 . S
C3763 H3738 0.951 . S
C3763 C3761 1.388 . S
C3763 C3764 1.366 . S
C3764 C3763 1.366 . S
C3764 C3765 1.414 . S
C3764 C3767 1.499 . S
C3765 H3739 0.950 . S
C3765 C3764 1.414 . S
C3765 C3766 1.374 . S
C3766 H3740 0.950 . S
C3766 C3762 1.385 . S
C3766 C3765 1.374 . S
C3767 C3764 1.499 . S
C3767 C3768 1.373 . S
C3767 C3769 1.389 . S
C3768 H3741 0.950 . S
C3768 C3754 1.377 . S
C3768 C3767 1.373 . S
C3769 C3753 1.377 . S
C3769 C3767 1.389 . S
C3769 C3770 1.524 . S
C3770 C3769 1.524 . S
C3770 C3771 1.397 . S
C3770 C3775 1.363 . S
C3771 H3742 0.950 . S
C3771 C3770 1.397 . S
C3771 C3772 1.334 . S
C3772 H3743 0.950 . S
C3772 C3771 1.334 . S
C3772 C3773 1.287 . S
C3773 C3772 1.287 . S
C3773 C3774 1.524 . S
C3773 H3776 0.999 . S
C3774 H3744 0.950 . S
C3774 C3773 1.524 . S
C3774 C3775 1.415 . S
C3775 H3745 0.950 . S
C3775 C3770 1.363 . S
C3775 C3774 1.415 . S
H3776 C3773 0.999 . S
H3777 C3758 0.913 . S
H3778 C3796 0.951 . S
H3779 C3798 0.951 . S
H3780 C3800 0.950 . S
H3781 C3801 0.950 . S
H3782 C3803 0.950 . S
H3783 C3806 0.950 . S
H3784 C3807 0.950 . S
H3785 C3809 0.950 . S
H3786 C3810 0.950 . S
H3787 C3811 0.951 . S
H3788 C3813 0.951 . S
H3789 C3815 0.950 . S
H3790 C3816 0.950 . S
H3791 C3818 0.950 . S
H3792 C3821 0.950 . S
H3793 C3822 0.950 . S
H3794 C3824 0.950 . S
H3795 C3825 0.950 . S
C3796 H3778 0.951 . S
C3796 C3797 1.366 . S
C3796 C3798 1.388 . S
C3797 C3796 1.366 . S
C3797 C3801 1.385 . S
C3798 H3779 0.951 . S
C3798 C3796 1.388 . S
C3798 C3799 1.366 . S
C3799 C3798 1.366 . S
C3799 C3800 1.414 . S
C3799 C3802 1.499 . S
C3800 H3780 0.950 . S
C3800 C3799 1.414 . S
C3800 C3801 1.374 . S
C3801 H3781 0.950 . S
C3801 C3797 1.385 . S
C3801 C3800 1.374 . S
C3802 C3799 1.499 . S
C3802 C3803 1.373 . S
C3802 C3804 1.389 . S
C3803 H3782 0.950 . S
C3803 C3802 1.373 . S
C3803 C3819 1.377 . S
C3804 C3802 1.389 . S
C3804 C3805 1.524 . S
C3804 C3818 1.377 . S
C3805 C3804 1.524 . S
C3805 C3806 1.397 . S
C3805 C3810 1.363 . S
C3806 H3783 0.950 . S
C3806 C3805 1.397 . S
C3806 C3807 1.334 . S
C3807 H3784 0.950 . S
C3807 C3806 1.334 . S
C3807 C3808 1.287 . S
C3808 C3807 1.287 . S
C3808 C3809 1.524 . S
C3808 H3827 0.913 . S
C3809 H3785 0.950 . S
C3809 C3808 1.524 . S
C3809 C3810 1.415 . S
C3810 H3786 0.950 . S
C3810 C3805 1.363 . S
C3810 C3809 1.415 . S
C3811 H3787 0.951 . S
C3811 C3812 1.366 . S
C3811 C3813 1.388 . S
C3812 C3811 1.366 . S
C3812 C3816 1.385 . S
C3813 H3788 0.951 . S
C3813 C3811 1.388 . S
C3813 C3814 1.366 . S
C3814 C3813 1.366 . S
C3814 C3815 1.414 . S
C3814 C3817 1.499 . S
C3815 H3789 0.950 . S
C3815 C3814 1.414 . S
C3815 C3816 1.374 . S
C3816 H3790 0.950 . S
C3816 C3812 1.385 . S
C3816 C3815 1.374 . S
C3817 C3814 1.499 . S
C3817 C3818 1.373 . S
C3817 C3819 1.389 . S
C3818 H3791 0.950 . S
C3818 C3804 1.377 . S
C3818 C3817 1.373 . S
C3819 C3803 1.377 . S
C3819 C3817 1.389 . S
C3819 C3820 1.524 . S
C3820 C3819 1.524 . S
C3820 C3821 1.397 . S
C3820 C3825 1.363 . S
C3821 H3792 0.950 . S
C3821 C3820 1.397 . S
C3821 C3822 1.334 . S
C3822 H3793 0.950 . S
C3822 C3821 1.334 . S
C3822 C3823 1.287 . S
C3823 C3822 1.287 . S
C3823 C3824 1.524 . S
C3823 H3826 0.999 . S
C3824 H3794 0.950 . S
C3824 C3823 1.524 . S
C3824 C3825 1.415 . S
C3825 H3795 0.950 . S
C3825 C3820 1.363 . S
C3825 C3824 1.415 . S
H3826 C3823 0.999 . S
H3827 C3808 0.913 . S
H3828 C3846 0.951 . S
H3829 C3848 0.951 . S
H3830 C3850 0.950 . S
H3831 C3851 0.950 . S
H3832 C3853 0.950 . S
H3833 C3856 0.950 . S
H3834 C3857 0.950 . S
H3835 C3859 0.950 . S
H3836 C3860 0.950 . S
H3837 C3861 0.951 . S
H3838 C3863 0.951 . S
H3839 C3865 0.950 . S
H3840 C3866 0.950 . S
H3841 C3868 0.950 . S
H3842 C3871 0.950 . S
H3843 C3872 0.950 . S
H3844 C3874 0.950 . S
H3845 C3875 0.950 . S
C3846 H3828 0.951 . S
C3846 C3847 1.366 . S
C3846 C3848 1.388 . S
C3847 C3846 1.366 . S
C3847 C3851 1.385 . S
C3848 H3829 0.951 . S
C3848 C3846 1.388 . S
C3848 C3849 1.366 . S
C3849 C3848 1.366 . S
C3849 C3850 1.414 . S
C3849 C3852 1.499 . S
C3850 H3830 0.950 . S
C3850 C3849 1.414 . S
C3850 C3851 1.374 . S
C3851 H3831 0.950 . S
C3851 C3847 1.385 . S
C3851 C3850 1.374 . S
C3852 C3849 1.499 . S
C3852 C3853 1.373 . S
C3852 C3854 1.389 . S
C3853 H3832 0.950 . S
C3853 C3852 1.373 . S
C3853 C3869 1.377 . S
C3854 C3852 1.389 . S
C3854 C3855 1.524 . S
C3854 C3868 1.377 . S
C3855 C3854 1.524 . S
C3855 C3856 1.397 . S
C3855 C3860 1.363 . S
C3856 H3833 0.950 . S
C3856 C3855 1.397 . S
C3856 C3857 1.334 . S
C3857 H3834 0.950 . S
C3857 C3856 1.334 . S
C3857 C3858 1.287 . S
C3858 C3857 1.287 . S
C3858 C3859 1.524 . S
C3858 H3877 0.913 . S
C3859 H3835 0.950 . S
C3859 C3858 1.524 . S
C3859 C3860 1.415 . S
C3860 H3836 0.950 . S
C3860 C3855 1.363 . S
C3860 C3859 1.415 . S
C3861 H3837 0.951 . S
C3861 C3862 1.366 . S
C3861 C3863 1.388 . S
C3862 C3861 1.366 . S
C3862 C3866 1.385 . S
C3863 H3838 0.951 . S
C3863 C3861 1.388 . S
C3863 C3864 1.366 . S
C3864 C3863 1.366 . S
C3864 C3865 1.414 . S
C3864 C3867 1.499 . S
C3865 H3839 0.950 . S
C3865 C3864 1.414 . S
C3865 C3866 1.374 . S
C3866 H3840 0.950 . S
C3866 C3862 1.385 . S
C3866 C3865 1.374 . S
C3867 C3864 1.499 . S
C3867 C3868 1.373 . S
C3867 C3869 1.389 . S
C3868 H3841 0.950 . S
C3868 C3854 1.377 . S
C3868 C3867 1.373 . S
C3869 C3853 1.377 . S
C3869 C3867 1.389 . S
C3869 C3870 1.524 . S
C3870 C3869 1.524 . S
C3870 C3871 1.397 . S
C3870 C3875 1.363 . S
C3871 H3842 0.950 . S
C3871 C3870 1.397 . S
C3871 C3872 1.334 . S
C3872 H3843 0.950 . S
C3872 C3871 1.334 . S
C3872 C3873 1.287 . S
C3873 C3872 1.287 . S
C3873 C3874 1.524 . S
C3873 H3876 0.999 . S
C3874 H3844 0.950 . S
C3874 C3873 1.524 . S
C3874 C3875 1.415 . S
C3875 H3845 0.950 . S
C3875 C3870 1.363 . S
C3875 C3874 1.415 . S
H3876 C3873 0.999 . S
H3877 C3858 0.913 . S
H3878 C3896 0.951 . S
H3879 C3898 0.951 . S
H3880 C3900 0.950 . S
H3881 C3901 0.950 . S
H3882 C3903 0.950 . S
H3883 C3906 0.950 . S
H3884 C3907 0.950 . S
H3885 C3909 0.950 . S
H3886 C3910 0.950 . S
H3887 C3911 0.951 . S
H3888 C3913 0.951 . S
H3889 C3915 0.950 . S
H3890 C3916 0.950 . S
H3891 C3918 0.950 . S
H3892 C3921 0.950 . S
H3893 C3922 0.950 . S
H3894 C3924 0.950 . S
H3895 C3925 0.950 . S
C3896 H3878 0.951 . S
C3896 C3897 1.366 . S
C3896 C3898 1.388 . S
C3897 C3896 1.366 . S
C3897 C3901 1.385 . S
C3898 H3879 0.951 . S
C3898 C3896 1.388 . S
C3898 C3899 1.366 . S
C3899 C3898 1.366 . S
C3899 C3900 1.414 . S
C3899 C3902 1.499 . S
C3900 H3880 0.950 . S
C3900 C3899 1.414 . S
C3900 C3901 1.374 . S
C3901 H3881 0.950 . S
C3901 C3897 1.385 . S
C3901 C3900 1.374 . S
C3902 C3899 1.499 . S
C3902 C3903 1.373 . S
C3902 C3904 1.389 . S
C3903 H3882 0.950 . S
C3903 C3902 1.373 . S
C3903 C3919 1.377 . S
C3904 C3902 1.389 . S
C3904 C3905 1.524 . S
C3904 C3918 1.377 . S
C3905 C3904 1.524 . S
C3905 C3906 1.397 . S
C3905 C3910 1.363 . S
C3906 H3883 0.950 . S
C3906 C3905 1.397 . S
C3906 C3907 1.334 . S
C3907 H3884 0.950 . S
C3907 C3906 1.334 . S
C3907 C3908 1.287 . S
C3908 C3907 1.287 . S
C3908 C3909 1.524 . S
C3908 H3927 0.913 . S
C3909 H3885 0.950 . S
C3909 C3908 1.524 . S
C3909 C3910 1.415 . S
C3910 H3886 0.950 . S
C3910 C3905 1.363 . S
C3910 C3909 1.415 . S
C3911 H3887 0.951 . S
C3911 C3912 1.366 . S
C3911 C3913 1.388 . S
C3912 C3911 1.366 . S
C3912 C3916 1.385 . S
C3913 H3888 0.951 . S
C3913 C3911 1.388 . S
C3913 C3914 1.366 . S
C3914 C3913 1.366 . S
C3914 C3915 1.414 . S
C3914 C3917 1.499 . S
C3915 H3889 0.950 . S
C3915 C3914 1.414 . S
C3915 C3916 1.374 . S
C3916 H3890 0.950 . S
C3916 C3912 1.385 . S
C3916 C3915 1.374 . S
C3917 C3914 1.499 . S
C3917 C3918 1.373 . S
C3917 C3919 1.389 . S
C3918 H3891 0.950 . S
C3918 C3904 1.377 . S
C3918 C3917 1.373 . S
C3919 C3903 1.377 . S
C3919 C3917 1.389 . S
C3919 C3920 1.524 . S
C3920 C3919 1.524 . S
C3920 C3921 1.397 . S
C3920 C3925 1.363 . S
C3921 H3892 0.950 . S
C3921 C3920 1.397 . S
C3921 C3922 1.334 . S
C3922 H3893 0.950 . S
C3922 C3921 1.334 . S
C3922 C3923 1.287 . S
C3923 C3922 1.287 . S
C3923 C3924 1.524 . S
C3923 H3926 0.999 . S
C3924 H3894 0.950 . S
C3924 C3923 1.524 . S
C3924 C3925 1.415 . S
C3925 H3895 0.950 . S
C3925 C3920 1.363 . S
C3925 C3924 1.415 . S
H3926 C3923 0.999 . S
H3927 C3908 0.913 . S
H3928 C3946 0.951 . S
H3929 C3948 0.951 . S
H3930 C3950 0.950 . S
H3931 C3951 0.950 . S
H3932 C3953 0.950 . S
H3933 C3956 0.950 . S
H3934 C3957 0.950 . S
H3935 C3959 0.950 . S
H3936 C3960 0.950 . S
H3937 C3961 0.951 . S
H3938 C3963 0.951 . S
H3939 C3965 0.950 . S
H3940 C3966 0.950 . S
H3941 C3968 0.950 . S
H3942 C3971 0.950 . S
H3943 C3972 0.950 . S
H3944 C3974 0.950 . S
H3945 C3975 0.950 . S
C3946 H3928 0.951 . S
C3946 C3947 1.366 . S
C3946 C3948 1.388 . S
C3947 C3946 1.366 . S
C3947 C3951 1.385 . S
C3948 H3929 0.951 . S
C3948 C3946 1.388 . S
C3948 C3949 1.366 . S
C3949 C3948 1.366 . S
C3949 C3950 1.414 . S
C3949 C3952 1.499 . S
C3950 H3930 0.950 . S
C3950 C3949 1.414 . S
C3950 C3951 1.374 . S
C3951 H3931 0.950 . S
C3951 C3947 1.385 . S
C3951 C3950 1.374 . S
C3952 C3949 1.499 . S
C3952 C3953 1.373 . S
C3952 C3954 1.389 . S
C3953 H3932 0.950 . S
C3953 C3952 1.373 . S
C3953 C3969 1.377 . S
C3954 C3952 1.389 . S
C3954 C3955 1.524 . S
C3954 C3968 1.377 . S
C3955 C3954 1.524 . S
C3955 C3956 1.397 . S
C3955 C3960 1.363 . S
C3956 H3933 0.950 . S
C3956 C3955 1.397 . S
C3956 C3957 1.334 . S
C3957 H3934 0.950 . S
C3957 C3956 1.334 . S
C3957 C3958 1.287 . S
C3958 C3957 1.287 . S
C3958 C3959 1.524 . S
C3958 H3977 0.913 . S
C3959 H3935 0.950 . S
C3959 C3958 1.524 . S
C3959 C3960 1.415 . S
C3960 H3936 0.950 . S
C3960 C3955 1.363 . S
C3960 C3959 1.415 . S
C3961 H3937 0.951 . S
C3961 C3962 1.366 . S
C3961 C3963 1.388 . S
C3962 C3961 1.366 . S
C3962 C3966 1.385 . S
C3963 H3938 0.951 . S
C3963 C3961 1.388 . S
C3963 C3964 1.366 . S
C3964 C3963 1.366 . S
C3964 C3965 1.414 . S
C3964 C3967 1.499 . S
C3965 H3939 0.950 . S
C3965 C3964 1.414 . S
C3965 C3966 1.374 . S
C3966 H3940 0.950 . S
C3966 C3962 1.385 . S
C3966 C3965 1.374 . S
C3967 C3964 1.499 . S
C3967 C3968 1.373 . S
C3967 C3969 1.389 . S
C3968 H3941 0.950 . S
C3968 C3954 1.377 . S
C3968 C3967 1.373 . S
C3969 C3953 1.377 . S
C3969 C3967 1.389 . S
C3969 C3970 1.524 . S
C3970 C3969 1.524 . S
C3970 C3971 1.397 . S
C3970 C3975 1.363 . S
C3971 H3942 0.950 . S
C3971 C3970 1.397 . S
C3971 C3972 1.334 . S
C3972 H3943 0.950 . S
C3972 C3971 1.334 . S
C3972 C3973 1.287 . S
C3973 C3972 1.287 . S
C3973 C3974 1.524 . S
C3973 H3976 0.999 . S
C3974 H3944 0.950 . S
C3974 C3973 1.524 . S
C3974 C3975 1.415 . S
C3975 H3945 0.950 . S
C3975 C3970 1.363 . S
C3975 C3974 1.415 . S
H3976 C3973 0.999 . S
H3977 C3958 0.913 . S
H3978 C3996 0.951 . S
H3979 C3998 0.951 . S
H3980 C4000 0.950 . S
H3981 C4001 0.950 . S
H3982 C4003 0.950 . S
H3983 C4006 0.950 . S
H3984 C4007 0.950 . S
H3985 C4009 0.950 . S
H3986 C4010 0.950 . S
H3987 C4011 0.951 . S
H3988 C4013 0.951 . S
H3989 C4015 0.950 . S
H3990 C4016 0.950 . S
H3991 C4018 0.950 . S
H3992 C4021 0.950 . S
H3993 C4022 0.950 . S
H3994 C4024 0.950 . S
H3995 C4025 0.950 . S
C3996 H3978 0.951 . S
C3996 C3997 1.366 . S
C3996 C3998 1.388 . S
C3997 C3996 1.366 . S
C3997 C4001 1.385 . S
C3998 H3979 0.951 . S
C3998 C3996 1.388 . S
C3998 C3999 1.366 . S
C3999 C3998 1.366 . S
C3999 C4000 1.414 . S
C3999 C4002 1.499 . S
C4000 H3980 0.950 . S
C4000 C3999 1.414 . S
C4000 C4001 1.374 . S
C4001 H3981 0.950 . S
C4001 C3997 1.385 . S
C4001 C4000 1.374 . S
C4002 C3999 1.499 . S
C4002 C4003 1.373 . S
C4002 C4004 1.389 . S
C4003 H3982 0.950 . S
C4003 C4002 1.373 . S
C4003 C4019 1.377 . S
C4004 C4002 1.389 . S
C4004 C4005 1.524 . S
C4004 C4018 1.377 . S
C4005 C4004 1.524 . S
C4005 C4006 1.397 . S
C4005 C4010 1.363 . S
C4006 H3983 0.950 . S
C4006 C4005 1.397 . S
C4006 C4007 1.334 . S
C4007 H3984 0.950 . S
C4007 C4006 1.334 . S
C4007 C4008 1.287 . S
C4008 C4007 1.287 . S
C4008 C4009 1.524 . S
C4008 H4027 0.913 . S
C4009 H3985 0.950 . S
C4009 C4008 1.524 . S
C4009 C4010 1.415 . S
C4010 H3986 0.950 . S
C4010 C4005 1.363 . S
C4010 C4009 1.415 . S
C4011 H3987 0.951 . S
C4011 C4012 1.366 . S
C4011 C4013 1.388 . S
C4012 C4011 1.366 . S
C4012 C4016 1.385 . S
C4013 H3988 0.951 . S
C4013 C4011 1.388 . S
C4013 C4014 1.366 . S
C4014 C4013 1.366 . S
C4014 C4015 1.414 . S
C4014 C4017 1.499 . S
C4015 H3989 0.950 . S
C4015 C4014 1.414 . S
C4015 C4016 1.374 . S
C4016 H3990 0.950 . S
C4016 C4012 1.385 . S
C4016 C4015 1.374 . S
C4017 C4014 1.499 . S
C4017 C4018 1.373 . S
C4017 C4019 1.389 . S
C4018 H3991 0.950 . S
C4018 C4004 1.377 . S
C4018 C4017 1.373 . S
C4019 C4003 1.377 . S
C4019 C4017 1.389 . S
C4019 C4020 1.524 . S
C4020 C4019 1.524 . S
C4020 C4021 1.397 . S
C4020 C4025 1.363 . S
C4021 H3992 0.950 . S
C4021 C4020 1.397 . S
C4021 C4022 1.334 . S
C4022 H3993 0.950 . S
C4022 C4021 1.334 . S
C4022 C4023 1.287 . S
C4023 C4022 1.287 . S
C4023 C4024 1.524 . S
C4023 H4026 0.999 . S
C4024 H3994 0.950 . S
C4024 C4023 1.524 . S
C4024 C4025 1.415 . S
C4025 H3995 0.950 . S
C4025 C4020 1.363 . S
C4025 C4024 1.415 . S
H4026 C4023 0.999 . S
H4027 C4008 0.913 . S
H4028 C4046 0.951 . S
H4029 C4048 0.951 . S
H4030 C4050 0.950 . S
H4031 C4051 0.950 . S
H4032 C4053 0.950 . S
H4033 C4056 0.950 . S
H4034 C4057 0.950 . S
H4035 C4059 0.950 . S
H4036 C4060 0.950 . S
H4037 C4061 0.951 . S
H4038 C4063 0.951 . S
H4039 C4065 0.950 . S
H4040 C4066 0.950 . S
H4041 C4068 0.950 . S
H4042 C4071 0.950 . S
H4043 C4072 0.950 . S
H4044 C4074 0.950 . S
H4045 C4075 0.950 . S
C4046 H4028 0.951 . S
C4046 C4047 1.366 . S
C4046 C4048 1.388 . S
C4047 C4046 1.366 . S
C4047 C4051 1.385 . S
C4048 H4029 0.951 . S
C4048 C4046 1.388 . S
C4048 C4049 1.366 . S
C4049 C4048 1.366 . S
C4049 C4050 1.414 . S
C4049 C4052 1.499 . S
C4050 H4030 0.950 . S
C4050 C4049 1.414 . S
C4050 C4051 1.374 . S
C4051 H4031 0.950 . S
C4051 C4047 1.385 . S
C4051 C4050 1.374 . S
C4052 C4049 1.499 . S
C4052 C4053 1.373 . S
C4052 C4054 1.389 . S
C4053 H4032 0.950 . S
C4053 C4052 1.373 . S
C4053 C4069 1.377 . S
C4054 C4052 1.389 . S
C4054 C4055 1.524 . S
C4054 C4068 1.377 . S
C4055 C4054 1.524 . S
C4055 C4056 1.397 . S
C4055 C4060 1.363 . S
C4056 H4033 0.950 . S
C4056 C4055 1.397 . S
C4056 C4057 1.334 . S
C4057 H4034 0.950 . S
C4057 C4056 1.334 . S
C4057 C4058 1.287 . S
C4058 C4057 1.287 . S
C4058 C4059 1.524 . S
C4058 H4077 0.913 . S
C4059 H4035 0.950 . S
C4059 C4058 1.524 . S
C4059 C4060 1.415 . S
C4060 H4036 0.950 . S
C4060 C4055 1.363 . S
C4060 C4059 1.415 . S
C4061 H4037 0.951 . S
C4061 C4062 1.366 . S
C4061 C4063 1.388 . S
C4062 C4061 1.366 . S
C4062 C4066 1.385 . S
C4063 H4038 0.951 . S
C4063 C4061 1.388 . S
C4063 C4064 1.366 . S
C4064 C4063 1.366 . S
C4064 C4065 1.414 . S
C4064 C4067 1.499 . S
C4065 H4039 0.950 . S
C4065 C4064 1.414 . S
C4065 C4066 1.374 . S
C4066 H4040 0.950 . S
C4066 C4062 1.385 . S
C4066 C4065 1.374 . S
C4067 C4064 1.499 . S
C4067 C4068 1.373 . S
C4067 C4069 1.389 . S
C4068 H4041 0.950 . S
C4068 C4054 1.377 . S
C4068 C4067 1.373 . S
C4069 C4053 1.377 . S
C4069 C4067 1.389 . S
C4069 C4070 1.524 . S
C4070 C4069 1.524 . S
C4070 C4071 1.397 . S
C4070 C4075 1.363 . S
C4071 H4042 0.950 . S
C4071 C4070 1.397 . S
C4071 C4072 1.334 . S
C4072 H4043 0.950 . S
C4072 C4071 1.334 . S
C4072 C4073 1.287 . S
C4073 C4072 1.287 . S
C4073 C4074 1.524 . S
C4073 H4076 0.999 . S
C4074 H4044 0.950 . S
C4074 C4073 1.524 . S
C4074 C4075 1.415 . S
C4075 H4045 0.950 . S
C4075 C4070 1.363 . S
C4075 C4074 1.415 . S
H4076 C4073 0.999 . S
H4077 C4058 0.913 . S
H4078 C4096 0.951 . S
H4079 C4098 0.951 . S
H4080 C4100 0.950 . S
H4081 C4101 0.950 . S
H4082 C4103 0.950 . S
H4083 C4106 0.950 . S
H4084 C4107 0.950 . S
H4085 C4109 0.950 . S
H4086 C4110 0.950 . S
H4087 C4111 0.951 . S
H4088 C4113 0.951 . S
H4089 C4115 0.950 . S
H4090 C4116 0.950 . S
H4091 C4118 0.950 . S
H4092 C4121 0.950 . S
H4093 C4122 0.950 . S
H4094 C4124 0.950 . S
H4095 C4125 0.950 . S
C4096 H4078 0.951 . S
C4096 C4097 1.366 . S
C4096 C4098 1.388 . S
C4097 C4096 1.366 . S
C4097 C4101 1.385 . S
C4098 H4079 0.951 . S
C4098 C4096 1.388 . S
C4098 C4099 1.366 . S
C4099 C4098 1.366 . S
C4099 C4100 1.414 . S
C4099 C4102 1.499 . S
C4100 H4080 0.950 . S
C4100 C4099 1.414 . S
C4100 C4101 1.374 . S
C4101 H4081 0.950 . S
C4101 C4097 1.385 . S
C4101 C4100 1.374 . S
C4102 C4099 1.499 . S
C4102 C4103 1.373 . S
C4102 C4104 1.389 . S
C4103 H4082 0.950 . S
C4103 C4102 1.373 . S
C4103 C4119 1.377 . S
C4104 C4102 1.389 . S
C4104 C4105 1.524 . S
C4104 C4118 1.377 . S
C4105 C4104 1.524 . S
C4105 C4106 1.397 . S
C4105 C4110 1.363 . S
C4106 H4083 0.950 . S
C4106 C4105 1.397 . S
C4106 C4107 1.334 . S
C4107 H4084 0.950 . S
C4107 C4106 1.334 . S
C4107 C4108 1.287 . S
C4108 C4107 1.287 . S
C4108 C4109 1.524 . S
C4108 H4127 0.913 . S
C4109 H4085 0.950 . S
C4109 C4108 1.524 . S
C4109 C4110 1.415 . S
C4110 H4086 0.950 . S
C4110 C4105 1.363 . S
C4110 C4109 1.415 . S
C4111 H4087 0.951 . S
C4111 C4112 1.366 . S
C4111 C4113 1.388 . S
C4112 C4111 1.366 . S
C4112 C4116 1.385 . S
C4113 H4088 0.951 . S
C4113 C4111 1.388 . S
C4113 C4114 1.366 . S
C4114 C4113 1.366 . S
C4114 C4115 1.414 . S
C4114 C4117 1.499 . S
C4115 H4089 0.950 . S
C4115 C4114 1.414 . S
C4115 C4116 1.374 . S
C4116 H4090 0.950 . S
C4116 C4112 1.385 . S
C4116 C4115 1.374 . S
C4117 C4114 1.499 . S
C4117 C4118 1.373 . S
C4117 C4119 1.389 . S
C4118 H4091 0.950 . S
C4118 C4104 1.377 . S
C4118 C4117 1.373 . S
C4119 C4103 1.377 . S
C4119 C4117 1.389 . S
C4119 C4120 1.524 . S
C4120 C4119 1.524 . S
C4120 C4121 1.397 . S
C4120 C4125 1.363 . S
C4121 H4092 0.950 . S
C4121 C4120 1.397 . S
C4121 C4122 1.334 . S
C4122 H4093 0.950 . S
C4122 C4121 1.334 . S
C4122 C4123 1.287 . S
C4123 C4122 1.287 . S
C4123 C4124 1.524 . S
C4123 H4126 0.999 . S
C4124 H4094 0.950 . S
C4124 C4123 1.524 . S
C4124 C4125 1.415 . S
C4125 H4095 0.950 . S
C4125 C4120 1.363 . S
C4125 C4124 1.415 . S
H4126 C4123 0.999 . S
H4127 C4108 0.913 . S
C547 C489 1.459 . S
C562 C5 1.469 . S
C597 C456 1.373 . S
C612 C18 1.485 . S
C647 C469 1.597 . S
C662 C27 1.441 . S
C697 C38 1.380 . S
C712 C480 1.493 . S
C747 C51 1.397 . S
C762 C522 1.326 . S
C797 C60 1.352 . S
C812 C502 1.451 . S
C847 C513 1.632 . S
C862 C73 1.637 . S
C897 C84 1.461 . S
C912 C445 1.360 . S
C947 C95 1.586 . S
C962 C436 1.586 . S
C997 C403 1.638 . S
C1012 C104 1.447 . S
C1047 C115 1.390 . S
C1062 C414 1.434 . S
C1097 C423 1.377 . S
C1112 C126 1.377 . S
C1147 C368 1.447 . S
C1162 C139 1.639 . S
C1197 C150 1.433 . S
C1212 C379 1.388 . S
C1247 C390 1.377 . S
C1262 C159 1.376 . S
C1297 C172 1.587 . S
C1312 C359 1.586 . S
C1347 C348 1.461 . S
C1362 C181 1.362 . S
C1397 C192 1.373 . S
C1412 C282 1.486 . S
C1447 C205 1.597 . S
C1462 C291 1.439 . S
C1497 C302 1.380 . S
C1512 C216 1.492 . S
C1547 C225 1.460 . S
C1562 C269 1.468 . S
C1597 C238 1.451 . S
C1612 C324 1.351 . S
C1647 C337 1.636 . S
C1662 C249 1.632 . S
C1697 C258 1.327 . S
C1712 C315 1.396 . S
C1747 C170 1.442 . S
C1762 C447 1.616 . S
C1797 C524 1.528 . S
C1812 C137 1.312 . S
C1847 C500 1.287 . S
C1862 C148 1.228 . S
C1897 C511 1.309 . S
C1912 C161 1.526 . S
C1947 C458 1.646 . S
C1962 C106 1.617 . S
C1997 C467 1.278 . S
C2012 C117 1.503 . S
C2047 C128 1.459 . S
C2062 C478 1.196 . S
C2097 C93 1.273 . S
C2112 C491 1.497 . S
C2147 C271 1.516 . S
C2162 C82 1.228 . S
C2197 C49 1.198 . S
C2212 C280 1.231 . S
C2247 C293 1.588 . S
C2262 C62 1.606 . S
C2297 C304 1.653 . S
C2312 C71 1.503 . S
C2347 C16 1.231 . S
C2362 C313 1.198 . S
C2397 C326 1.606 . S
C2412 C29 1.588 . S
C2447 C40 1.652 . S
C2462 C335 1.504 . S
C2497 C7 1.516 . S
C2512 C346 1.229 . S
C2547 C227 1.496 . S
C2562 C357 1.274 . S
C2597 C401 1.310 . S
C2612 C260 1.528 . S
C2647 C412 1.231 . S
C2662 C236 1.289 . S
C2697 C425 1.526 . S
C2712 C247 1.310 . S
C2747 C183 1.617 . S
C2762 C434 1.440 . S
C2797 C203 1.279 . S
C2812 C381 1.503 . S
C2847 C214 1.195 . S
C2862 C392 1.459 . S
C2897 C194 1.646 . S
C2912 C370 1.618 . S
C2947 C107 1.704 . S
C2962 C8 1.729 . S
C2997 C19 1.559 . S
C3012 C118 1.580 . S
C3047 C30 1.591 . S
C3062 C129 1.606 . S
C3097 C96 1.577 . S
C3112 C41 1.587 . S
C3147 C52 1.565 . S
C3162 C173 1.602 . S
C3197 C140 1.579 . S
C3212 C63 1.588 . S
C3247 C74 1.731 . S
C3262 C151 1.672 . S
C3297 C85 1.558 . S
C3312 C162 1.579 . S
C3347 C206 1.542 . S
C3362 C184 1.553 . S
C3397 C195 1.619 . S
C3412 C250 1.611 . S
C3447 C261 1.581 . S
C3462 C217 1.563 . S
C3497 C239 1.556 . S
C3512 C228 1.579 . S
C3547 C371 1.704 . S
C3562 C272 1.729 . S
C3597 C382 1.579 . S
C3612 C283 1.558 . S
C3647 C393 1.606 . S
C3662 C294 1.590 . S
C3697 C360 1.578 . S
C3712 C305 1.587 . S
C3747 C437 1.602 . S
C3762 C316 1.565 . S
C3797 C404 1.579 . S
C3812 C327 1.588 . S
C3847 C415 1.672 . S
C3862 C338 1.731 . S
C3897 C426 1.579 . S
C3912 C349 1.558 . S
C3947 C470 1.542 . S
C3962 C448 1.553 . S
C3997 C514 1.611 . S
C4012 C459 1.618 . S
C4047 C481 1.563 . S
C4062 C525 1.581 . S
C4097 C503 1.556 . S
C4112 C492 1.579 . S
