# Generated by pormake.
# Topology ukb, (4)-cn, num edge types: 1
# Building blocks:
#     Node 0, Type 0, BuildingBlock: TATPOV_clean_sbu_0, # of connection points: 4
#     Node 1, Type 0, BuildingBlock: TATPOV_clean_sbu_0, # of connection points: 4
#     Node 2, Type 0, BuildingBlock: TATPOV_clean_sbu_0, # of connection points: 4
#     Node 3, Type 0, BuildingBlock: TATPOV_clean_sbu_0, # of connection points: 4
#     Node 4, Type 0, BuildingBlock: TATPOV_clean_sbu_0, # of connection points: 4
#     Node 5, Type 0, BuildingBlock: TATPOV_clean_sbu_0, # of connection points: 4
#     Node 6, Type 0, BuildingBlock: TATPOV_clean_sbu_0, # of connection points: 4
#     Node 7, Type 0, BuildingBlock: TATPOV_clean_sbu_0, # of connection points: 4
#     Node 8, Type 0, BuildingBlock: TATPOV_clean_sbu_0, # of connection points: 4
#     Node 9, Type 0, BuildingBlock: TATPOV_clean_sbu_0, # of connection points: 4
#     Node 10, Type 0, BuildingBlock: TATPOV_clean_sbu_0, # of connection points: 4
#     Node 11, Type 0, BuildingBlock: TATPOV_clean_sbu_0, # of connection points: 4
#     Node 12, Type 0, BuildingBlock: TATPOV_clean_sbu_0, # of connection points: 4
#     Node 13, Type 0, BuildingBlock: TATPOV_clean_sbu_0, # of connection points: 4
#     Node 14, Type 0, BuildingBlock: TATPOV_clean_sbu_0, # of connection points: 4
#     Node 15, Type 0, BuildingBlock: TATPOV_clean_sbu_0, # of connection points: 4
#     Edge 16, Type (0, 0), BuildingBlock: ZUJKAS_clean_linker_0, # of connection points: 2
#     Edge 17, Type (0, 0), BuildingBlock: ZUJKAS_clean_linker_0, # of connection points: 2
#     Edge 18, Type (0, 0), BuildingBlock: ZUJKAS_clean_linker_0, # of connection points: 2
#     Edge 19, Type (0, 0), BuildingBlock: ZUJKAS_clean_linker_0, # of connection points: 2
#     Edge 20, Type (0, 0), BuildingBlock: ZUJKAS_clean_linker_0, # of connection points: 2
#     Edge 21, Type (0, 0), BuildingBlock: ZUJKAS_clean_linker_0, # of connection points: 2
#     Edge 22, Type (0, 0), BuildingBlock: ZUJKAS_clean_linker_0, # of connection points: 2
#     Edge 23, Type (0, 0), BuildingBlock: ZUJKAS_clean_linker_0, # of connection points: 2
#     Edge 24, Type (0, 0), BuildingBlock: ZUJKAS_clean_linker_0, # of connection points: 2
#     Edge 25, Type (0, 0), BuildingBlock: ZUJKAS_clean_linker_0, # of connection points: 2
#     Edge 26, Type (0, 0), BuildingBlock: ZUJKAS_clean_linker_0, # of connection points: 2
#     Edge 27, Type (0, 0), BuildingBlock: ZUJKAS_clean_linker_0, # of connection points: 2
#     Edge 28, Type (0, 0), BuildingBlock: ZUJKAS_clean_linker_0, # of connection points: 2
#     Edge 29, Type (0, 0), BuildingBlock: ZUJKAS_clean_linker_0, # of connection points: 2
#     Edge 30, Type (0, 0), BuildingBlock: ZUJKAS_clean_linker_0, # of connection points: 2
#     Edge 31, Type (0, 0), BuildingBlock: ZUJKAS_clean_linker_0, # of connection points: 2
#     Edge 32, Type (0, 0), BuildingBlock: ZUJKAS_clean_linker_0, # of connection points: 2
#     Edge 33, Type (0, 0), BuildingBlock: ZUJKAS_clean_linker_0, # of connection points: 2
#     Edge 34, Type (0, 0), BuildingBlock: ZUJKAS_clean_linker_0, # of connection points: 2
#     Edge 35, Type (0, 0), BuildingBlock: ZUJKAS_clean_linker_0, # of connection points: 2
#     Edge 36, Type (0, 0), BuildingBlock: ZUJKAS_clean_linker_0, # of connection points: 2
#     Edge 37, Type (0, 0), BuildingBlock: ZUJKAS_clean_linker_0, # of connection points: 2
#     Edge 38, Type (0, 0), BuildingBlock: ZUJKAS_clean_linker_0, # of connection points: 2
#     Edge 39, Type (0, 0), BuildingBlock: ZUJKAS_clean_linker_0, # of connection points: 2
#     Edge 40, Type (0, 0), BuildingBlock: ZUJKAS_clean_linker_0, # of connection points: 2
#     Edge 41, Type (0, 0), BuildingBlock: ZUJKAS_clean_linker_0, # of connection points: 2
#     Edge 42, Type (0, 0), BuildingBlock: ZUJKAS_clean_linker_0, # of connection points: 2
#     Edge 43, Type (0, 0), BuildingBlock: ZUJKAS_clean_linker_0, # of connection points: 2
#     Edge 44, Type (0, 0), BuildingBlock: ZUJKAS_clean_linker_0, # of connection points: 2
#     Edge 45, Type (0, 0), BuildingBlock: ZUJKAS_clean_linker_0, # of connection points: 2
#     Edge 46, Type (0, 0), BuildingBlock: ZUJKAS_clean_linker_0, # of connection points: 2
#     Edge 47, Type (0, 0), BuildingBlock: ZUJKAS_clean_linker_0, # of connection points: 2
# Relax obj value: 0.144
# Max RMSD: 0.148
# Mean RMSD: 0.148
data_MOF--net-ukb--node1-TATPOV_clean_sbu_0--edge1-ZUJKAS_clean_linker_0
_symmetry_space_group_name_H-M    P1
_symmetry_Int_Tables_number       1
_symmetry_cell_setting            triclinic
loop_
_symmetry_equiv_pos_as_xyz
'x, y, z'
_cell_length_a     56.291532
_cell_length_b     56.292264
_cell_length_c     49.04737
_cell_angle_alpha  90.01034
_cell_angle_beta   89.998239
_cell_angle_gamma 89.993868
loop_
_atom_site_label
_atom_site_type_symbol
_atom_site_fract_x
_atom_site_fract_y
_atom_site_fract_z
_atom_type_partial_charge
Zn0 Zn 0.56897 0.20906 0.14713 0.0
Zn1 Zn 0.5339 0.19195 0.17764 0.0
O2 O 0.51887 0.19663 0.13939 0.0
O3 O 0.54895 0.20742 0.11357 0.0
O4 O 0.50738 0.17629 0.19858 0.0
O5 O 0.59034 0.18177 0.15677 0.0
O6 O 0.56128 0.16762 0.18199 0.0
C7 C 0.52719 0.20228 0.11611 0.0
C8 C 0.5546 0.24024 0.1915 0.0
O9 O 0.54053 0.22333 0.19764 0.0
O10 O 0.56795 0.2386 0.17077 0.0
C11 C 0.48586 0.18285 0.19635 0.0
O12 O 0.48072 0.20124 0.18093 0.0
C13 C 0.5824 0.166 0.17272 0.0
Zn14 Zn 0.29401 0.56854 0.6359 0.0
Zn15 Zn 0.3103 0.5345 0.66879 0.0
O16 O 0.30613 0.51772 0.6316 0.0
O17 O 0.29585 0.54659 0.60377 0.0
O18 O 0.32563 0.50894 0.69142 0.0
O19 O 0.32155 0.58996 0.64471 0.0
O20 O 0.33473 0.56186 0.67196 0.0
C21 C 0.30082 0.52495 0.60776 0.0
C22 C 0.26202 0.55618 0.68058 0.0
O23 O 0.27858 0.54198 0.68756 0.0
O24 O 0.26427 0.56893 0.65942 0.0
C25 C 0.31729 0.48801 0.69311 0.0
O26 O 0.29717 0.48298 0.68081 0.0
C27 C 0.3369 0.5825 0.6615 0.0
Zn28 Zn 0.93569 0.29012 0.14425 0.0
Zn29 Zn 0.97179 0.30656 0.17368 0.0
O30 O 0.98603 0.30142 0.13512 0.0
O31 O 0.95529 0.29078 0.11026 0.0
O32 O 0.99882 0.3218 0.1942 0.0
O33 O 0.9151 0.31795 0.15407 0.0
O34 O 0.9449 0.33134 0.17865 0.0
C35 C 0.97719 0.29555 0.11216 0.0
C36 C 0.95018 0.25883 0.18848 0.0
O37 O 0.965 0.2753 0.19386 0.0
O38 O 0.93623 0.26084 0.16831 0.0
C39 C 0.0204 0.31586 0.19072 0.0
O40 O 0.02546 0.29836 0.17397 0.0
C41 C 0.92366 0.33348 0.16991 0.0
Zn42 Zn 0.20691 0.93213 0.64577 0.0
Zn43 Zn 0.19221 0.96863 0.67542 0.0
O44 O 0.19672 0.98268 0.63677 0.0
O45 O 0.20611 0.95169 0.61164 0.0
O46 O 0.17784 0.99598 0.69626 0.0
O47 O 0.17911 0.91211 0.65627 0.0
O48 O 0.1667 0.9423 0.6809 0.0
C49 C 0.20185 0.97369 0.61366 0.0
C50 C 0.2396 0.94559 0.68899 0.0
O51 O 0.22407 0.96138 0.69448 0.0
O52 O 0.23636 0.93141 0.66926 0.0
C53 C 0.18367 0.01751 0.69217 0.0
O54 O 0.20068 0.02234 0.67468 0.0
C55 C 0.164 0.92105 0.67236 0.0
Zn56 Zn 0.56427 0.28603 0.84566 0.0
Zn57 Zn 0.52859 0.30602 0.81919 0.0
O58 O 0.51485 0.2995 0.85761 0.0
O59 O 0.54609 0.28744 0.88073 0.0
O60 O 0.50208 0.32404 0.80107 0.0
O61 O 0.58669 0.31233 0.83536 0.0
O62 O 0.55632 0.33 0.81581 0.0
C63 C 0.52429 0.29287 0.87996 0.0
C64 C 0.54652 0.25773 0.8007 0.0
O65 O 0.53336 0.27574 0.79618 0.0
O66 O 0.56043 0.25751 0.82101 0.0
C67 C 0.48084 0.31654 0.79931 0.0
O68 O 0.47559 0.29532 0.80869 0.0
C69 C 0.57822 0.32986 0.82248 0.0
Zn70 Zn 0.20223 0.56495 0.35961 0.0
Zn71 Zn 0.19028 0.52993 0.32557 0.0
O72 O 0.19501 0.51338 0.3629 0.0
O73 O 0.20216 0.54268 0.39142 0.0
O74 O 0.17764 0.50342 0.30203 0.0
O75 O 0.17288 0.58366 0.35069 0.0
O76 O 0.1638 0.55527 0.32167 0.0
C77 C 0.19922 0.52074 0.38699 0.0
C78 C 0.23633 0.55636 0.31559 0.0
O79 O 0.22168 0.5404 0.30803 0.0
O80 O 0.23207 0.56872 0.33667 0.0
C81 C 0.18444 0.48199 0.30451 0.0
O82 O 0.20145 0.4769 0.3219 0.0
C83 C 0.15914 0.57526 0.33271 0.0
Zn84 Zn 0.93381 0.20469 0.85303 0.0
Zn85 Zn 0.96845 0.19089 0.8203 0.0
O86 O 0.98395 0.19369 0.85861 0.0
O87 O 0.95407 0.20115 0.88617 0.0
O88 O 0.99502 0.17694 0.79783 0.0
O89 O 0.91242 0.17816 0.84118 0.0
O90 O 0.94129 0.16655 0.81407 0.0
C91 C 0.97598 0.19731 0.88258 0.0
C92 C 0.94686 0.23951 0.81164 0.0
O93 O 0.96105 0.22342 0.80328 0.0
O94 O 0.93404 0.23595 0.8325 0.0
C95 C 0.01652 0.18338 0.8008 0.0
O96 O 0.0215 0.20065 0.81789 0.0
C97 C 0.92031 0.16388 0.82344 0.0
Zn98 Zn 0.30117 0.92944 0.35341 0.0
Zn99 Zn 0.31259 0.96643 0.32201 0.0
O100 O 0.30786 0.98101 0.36036 0.0
O101 O 0.29992 0.95027 0.38653 0.0
O102 O 0.32537 0.99397 0.30021 0.0
O103 O 0.33117 0.91195 0.34439 0.0
O104 O 0.33913 0.94132 0.31626 0.0
C105 C 0.30308 0.97239 0.38374 0.0
C106 C 0.26714 0.93986 0.30975 0.0
O107 O 0.281 0.95708 0.30412 0.0
O108 O 0.27207 0.92585 0.32921 0.0
C109 C 0.3193 0.01545 0.30421 0.0
O110 O 0.30271 0.02022 0.32223 0.0
C111 C 0.34444 0.92118 0.32649 0.0
Zn112 Zn 0.43417 0.79809 0.8555 0.0
Zn113 Zn 0.46941 0.81325 0.82386 0.0
O114 O 0.48534 0.80655 0.86107 0.0
O115 O 0.45553 0.79775 0.88824 0.0
O116 O 0.49614 0.82742 0.80179 0.0
O117 O 0.4143 0.82669 0.84695 0.0
O118 O 0.44395 0.83986 0.82197 0.0
C119 C 0.47752 0.80115 0.88463 0.0
C120 C 0.44443 0.7669 0.80975 0.0
O121 O 0.45962 0.78279 0.80344 0.0
O122 O 0.43203 0.76915 0.83117 0.0
C123 C 0.51772 0.82128 0.80488 0.0
O124 O 0.52292 0.80412 0.82202 0.0
C125 C 0.42307 0.8425 0.83163 0.0
Zn126 Zn 0.70465 0.43654 0.36189 0.0
Zn127 Zn 0.69268 0.47095 0.32705 0.0
O128 O 0.69678 0.48813 0.36414 0.0
O129 O 0.70393 0.45926 0.39324 0.0
O130 O 0.67985 0.49689 0.30283 0.0
O131 O 0.67556 0.4174 0.35305 0.0
O132 O 0.66658 0.44524 0.32329 0.0
C133 C 0.70076 0.4811 0.3884 0.0
C134 C 0.73908 0.44489 0.31812 0.0
O135 O 0.72434 0.46059 0.31006 0.0
O136 O 0.73476 0.43281 0.33938 0.0
C137 C 0.68628 0.51847 0.30482 0.0
O138 O 0.70312 0.52416 0.32218 0.0
C139 C 0.66196 0.42541 0.3347 0.0
Zn140 Zn 0.06545 0.69823 0.85501 0.0
Zn141 Zn 0.02879 0.68786 0.82278 0.0
O142 O 0.01389 0.69187 0.86106 0.0
O143 O 0.04434 0.69922 0.88788 0.0
O144 O 0.00116 0.67607 0.80042 0.0
O145 O 0.08268 0.66823 0.84558 0.0
O146 O 0.05381 0.66128 0.8164 0.0
C147 C 0.02224 0.69621 0.88467 0.0
C148 C 0.05596 0.73322 0.81213 0.0
O149 O 0.03853 0.71978 0.80601 0.0
O150 O 0.06981 0.72766 0.83152 0.0
C151 C 0.97999 0.6833 0.80405 0.0
O152 O 0.97593 0.70022 0.82191 0.0
C153 C 0.07372 0.65554 0.82696 0.0
Zn154 Zn 0.80401 0.06494 0.36192 0.0
Zn155 Zn 0.8156 0.02984 0.32774 0.0
O156 O 0.81054 0.01312 0.36487 0.0
O157 O 0.80316 0.04233 0.39345 0.0
O158 O 0.8279 0.00333 0.30399 0.0
O159 O 0.83393 0.08299 0.3536 0.0
O160 O 0.84246 0.05476 0.32416 0.0
C161 C 0.80603 0.02039 0.38893 0.0
C162 C 0.77019 0.05731 0.31739 0.0
O163 O 0.78447 0.04091 0.3101 0.0
O164 O 0.7746 0.06963 0.33845 0.0
C165 C 0.82072 0.98199 0.30614 0.0
O166 O 0.80354 0.97702 0.32335 0.0
C167 C 0.84752 0.07452 0.3355 0.0
Zn168 Zn 0.43643 0.70384 0.1371 0.0
Zn169 Zn 0.47165 0.68836 0.16883 0.0
O170 O 0.48671 0.69184 0.13053 0.0
O171 O 0.45684 0.70135 0.10377 0.0
O172 O 0.49835 0.67394 0.19067 0.0
O173 O 0.41547 0.67659 0.14806 0.0
O174 O 0.44451 0.66398 0.17435 0.0
C175 C 0.47863 0.69658 0.10689 0.0
C176 C 0.45008 0.73677 0.18027 0.0
O177 O 0.46453 0.72038 0.1871 0.0
O178 O 0.43676 0.73413 0.15963 0.0
C179 C 0.51986 0.68022 0.18733 0.0
O180 O 0.52475 0.69745 0.17015 0.0
C181 C 0.42347 0.66168 0.16504 0.0
Zn182 Zn 0.79689 0.43568 0.64075 0.0
Zn183 Zn 0.80767 0.47184 0.67378 0.0
O184 O 0.80375 0.48743 0.6359 0.0
O185 O 0.79665 0.45743 0.60833 0.0
O186 O 0.81959 0.49899 0.69681 0.0
O187 O 0.82651 0.41782 0.65066 0.0
O188 O 0.83432 0.44691 0.67921 0.0
C189 C 0.79965 0.47948 0.61205 0.0
C190 C 0.76205 0.44467 0.68388 0.0
O191 O 0.77591 0.46157 0.69069 0.0
O192 O 0.76715 0.4315 0.66372 0.0
C193 C 0.81267 0.52031 0.69364 0.0
O194 O 0.79587 0.52491 0.67581 0.0
C195 C 0.83964 0.42679 0.66888 0.0
Zn196 Zn 0.06782 0.79115 0.14232 0.0
Zn197 Zn 0.03241 0.8078 0.17282 0.0
O198 O 0.01739 0.80286 0.13478 0.0
O199 O 0.04762 0.79305 0.10867 0.0
O200 O 0.00565 0.82265 0.19415 0.0
O201 O 0.08887 0.81843 0.15301 0.0
O202 O 0.05901 0.83298 0.17663 0.0
C203 C 0.02574 0.79763 0.1114 0.0
C204 C 0.05408 0.75969 0.18646 0.0
O205 O 0.03992 0.77651 0.19271 0.0
O206 O 0.06718 0.7614 0.16553 0.0
C207 C 0.98413 0.81631 0.19111 0.0
O208 O 0.97914 0.79872 0.17446 0.0
C209 C 0.08039 0.83452 0.16818 0.0
Zn210 Zn 0.69789 0.06741 0.62782 0.0
Zn211 Zn 0.68599 0.03322 0.66309 0.0
O212 O 0.69101 0.01551 0.62657 0.0
O213 O 0.69845 0.04398 0.59707 0.0
O214 O 0.6733 0.00746 0.68763 0.0
O215 O 0.66816 0.08601 0.63551 0.0
O216 O 0.65935 0.05848 0.66571 0.0
C217 C 0.69551 0.02217 0.60229 0.0
C218 C 0.73175 0.06032 0.6725 0.0
O219 O 0.71726 0.04433 0.68037 0.0
O220 O 0.72744 0.07221 0.65108 0.0
C221 C 0.68058 0.9861 0.68661 0.0
O222 O 0.69814 0.98063 0.67011 0.0
C223 C 0.65446 0.07801 0.65377 0.0
H224 H 0.49048 0.14345 0.22849 0.0
H225 H 0.45884 0.11827 0.24655 0.0
H226 H 0.40623 0.16479 0.21145 0.0
H227 H 0.4378 0.19003 0.19298 0.0
H228 H 0.42077 0.12891 0.28183 0.0
H229 H 0.38953 0.09899 0.17987 0.0
H230 H 0.41763 0.11381 0.18478 0.0
H231 H 0.3905 0.1306 0.18491 0.0
C232 C 0.47219 0.14844 0.22469 0.0
C233 C 0.46668 0.16867 0.2091 0.0
C234 C 0.45413 0.13402 0.23506 0.0
C235 C 0.43023 0.13948 0.22997 0.0
C236 C 0.4246 0.16005 0.21518 0.0
H237 H 0.31419 0.06342 0.31182 0.0
H238 H 0.3391 0.09514 0.29311 0.0
C239 C 0.44266 0.17451 0.20478 0.0
C240 C 0.41135 0.12327 0.23981 0.0
H241 H 0.36866 0.08451 0.21811 0.0
C242 C 0.40924 0.11932 0.26795 0.0
C243 C 0.39654 0.11063 0.22157 0.0
C244 C 0.39869 0.11349 0.19107 0.0
C245 C 0.39286 0.10286 0.27837 0.0
C246 C 0.378 0.09026 0.26013 0.0
C247 C 0.37994 0.09438 0.23201 0.0
C248 C 0.36156 0.0715 0.26976 0.0
C249 C 0.39219 0.09843 0.30871 0.0
C250 C 0.3654 0.04783 0.262 0.0
C251 C 0.35116 0.02969 0.27251 0.0
C252 C 0.33273 0.03491 0.29094 0.0
C253 C 0.32831 0.05878 0.2978 0.0
C254 C 0.3426 0.07692 0.28726 0.0
H255 H 0.40798 0.10595 0.31922 0.0
H256 H 0.3761 0.1069 0.31744 0.0
H257 H 0.39129 0.0791 0.3131 0.0
H258 H 0.37988 0.04329 0.24841 0.0
H259 H 0.355 0.01153 0.26669 0.0
H260 H 0.36149 0.49173 0.71568 0.0
H261 H 0.38573 0.46005 0.73511 0.0
H262 H 0.32896 0.40996 0.72156 0.0
H263 H 0.30468 0.44153 0.70145 0.0
H264 H 0.37849 0.43083 0.77901 0.0
H265 H 0.38458 0.37799 0.68345 0.0
H266 H 0.3734 0.40803 0.68404 0.0
H267 H 0.35489 0.38385 0.69505 0.0
C268 C 0.35407 0.474 0.71688 0.0
C269 C 0.3312 0.46912 0.70679 0.0
C270 C 0.36797 0.45591 0.72802 0.0
C271 C 0.35933 0.43256 0.72933 0.0
C272 C 0.3362 0.42774 0.72015 0.0
H273 H 0.434 0.30589 0.78977 0.0
H274 H 0.40281 0.33291 0.7736 0.0
C275 C 0.32229 0.44584 0.70884 0.0
C276 C 0.37478 0.41341 0.74014 0.0
H277 H 0.40351 0.3622 0.72237 0.0
C278 C 0.38385 0.41577 0.76667 0.0
C279 C 0.38175 0.39374 0.72399 0.0
C280 C 0.37335 0.39075 0.69497 0.0
C281 C 0.39996 0.39919 0.77734 0.0
C282 C 0.40731 0.37988 0.76099 0.0
C283 C 0.39774 0.37706 0.7348 0.0
C284 C 0.42607 0.36332 0.77016 0.0
C285 C 0.40923 0.40254 0.80595 0.0
C286 C 0.44947 0.37145 0.77302 0.0
C287 C 0.4673 0.35611 0.78202 0.0
C288 C 0.46205 0.33233 0.78842 0.0
C289 C 0.43861 0.32412 0.7851 0.0
C290 C 0.42078 0.33949 0.77588 0.0
H291 H 0.39794 0.41493 0.81792 0.0
H292 H 0.41019 0.38527 0.81683 0.0
H293 H 0.42744 0.41004 0.80502 0.0
H294 H 0.45392 0.38973 0.76834 0.0
H295 H 0.48515 0.36303 0.78429 0.0
H296 H 0.06844 0.31059 0.18423 0.0
H297 H 0.09998 0.3352 0.20384 0.0
H298 H 0.04748 0.37731 0.24582 0.0
H299 H 0.01589 0.35277 0.22659 0.0
H300 H 0.10578 0.38418 0.19674 0.0
H301 H 0.09544 0.36158 0.30608 0.0
H302 H 0.08275 0.34375 0.27914 0.0
H303 H 0.06816 0.37052 0.29013 0.0
C304 C 0.06361 0.32491 0.19789 0.0
C305 C 0.03963 0.32968 0.20388 0.0
C306 C 0.08166 0.33897 0.20903 0.0
C307 C 0.07608 0.35788 0.22653 0.0
C308 C 0.0522 0.36252 0.23278 0.0
H309 H 0.1486 0.48647 0.26724 0.0
H310 H 0.12483 0.4548 0.24692 0.0
C311 C 0.03415 0.34853 0.22164 0.0
C312 C 0.09503 0.37364 0.23712 0.0
H313 H 0.11816 0.39639 0.2959 0.0
C314 C 0.1087 0.38666 0.21842 0.0
C315 C 0.09901 0.37662 0.26538 0.0
C316 C 0.08573 0.36221 0.28637 0.0
C317 C 0.12558 0.40333 0.22727 0.0
C318 C 0.12861 0.40724 0.25553 0.0
C319 C 0.11565 0.39351 0.27423 0.0
C320 C 0.1443 0.42623 0.2662 0.0
C321 C 0.13992 0.41668 0.20629 0.0
C322 C 0.16306 0.42068 0.28392 0.0
C323 C 0.17667 0.43878 0.29567 0.0
C324 C 0.17159 0.46276 0.2901 0.0
C325 C 0.15305 0.4682 0.2719 0.0
C326 C 0.13951 0.45011 0.26014 0.0
H327 H 0.14058 0.407 0.18656 0.0
H328 H 0.13153 0.43422 0.20257 0.0
H329 H 0.15837 0.41974 0.2135 0.0
H330 H 0.16695 0.40235 0.28897 0.0
H331 H 0.19077 0.43396 0.30965 0.0
H332 H 0.18851 0.06544 0.68426 0.0
H333 H 0.16379 0.0972 0.7032 0.0
H334 H 0.1228 0.04536 0.74762 0.0
H335 H 0.14747 0.01355 0.72906 0.0
H336 H 0.11489 0.1022 0.69633 0.0
H337 H 0.13794 0.09521 0.80587 0.0
H338 H 0.1558 0.08192 0.77934 0.0
H339 H 0.12924 0.06738 0.79105 0.0
C340 C 0.17444 0.06081 0.69835 0.0
C341 C 0.16999 0.03694 0.70517 0.0
C342 C 0.16031 0.07898 0.70909 0.0
C343 C 0.14165 0.07366 0.72705 0.0
C344 C 0.1374 0.04991 0.73422 0.0
H345 H 0.01229 0.14637 0.76499 0.0
H346 H 0.04412 0.1221 0.74577 0.0
C347 C 0.15146 0.03173 0.72346 0.0
C348 C 0.12566 0.09269 0.73703 0.0
H349 H 0.10275 0.11714 0.79503 0.0
C350 C 0.11242 0.10567 0.71789 0.0
C351 C 0.12269 0.0974 0.76514 0.0
C352 C 0.13734 0.08491 0.78655 0.0
C353 C 0.09557 0.12259 0.72619 0.0
C354 C 0.09167 0.12635 0.75434 0.0
C355 C 0.10561 0.11407 0.77345 0.0
C356 C 0.07256 0.14217 0.76449 0.0
C357 C 0.08203 0.13621 0.70473 0.0
C358 C 0.07797 0.1614 0.7816 0.0
C359 C 0.05979 0.17528 0.79274 0.0
C360 C 0.03584 0.17003 0.78716 0.0
C361 C 0.03053 0.15097 0.76963 0.0
C362 C 0.04872 0.13714 0.75849 0.0
H363 H 0.09172 0.13649 0.685 0.0
H364 H 0.06461 0.12749 0.70127 0.0
H365 H 0.07872 0.15479 0.71131 0.0
H366 H 0.09627 0.16548 0.7866 0.0
H367 H 0.06451 0.18978 0.80621 0.0
H368 H 0.51309 0.8563 0.7666 0.0
H369 H 0.54454 0.8807 0.74674 0.0
H370 H 0.59708 0.8417 0.79242 0.0
H371 H 0.56571 0.81718 0.81253 0.0
H372 H 0.60062 0.89181 0.79716 0.0
H373 H 0.59514 0.86318 0.68914 0.0
H374 H 0.56705 0.87146 0.7037 0.0
H375 H 0.58264 0.84603 0.71677 0.0
C376 C 0.53134 0.8527 0.77221 0.0
C377 C 0.53688 0.83477 0.79115 0.0
C378 C 0.54931 0.8666 0.76073 0.0
C379 C 0.57313 0.86283 0.76791 0.0
C380 C 0.57879 0.84478 0.78653 0.0
H381 H 0.68856 0.93811 0.68528 0.0
H382 H 0.66489 0.90691 0.70698 0.0
C383 C 0.56084 0.83077 0.79793 0.0
C384 C 0.59191 0.87868 0.75715 0.0
H385 H 0.61668 0.89889 0.69804 0.0
C386 C 0.60435 0.8932 0.77552 0.0
C387 C 0.59692 0.88023 0.72896 0.0
C388 C 0.58491 0.86424 0.70848 0.0
C389 C 0.62101 0.90993 0.76633 0.0
C390 C 0.62511 0.91234 0.73801 0.0
C391 C 0.61338 0.89714 0.71974 0.0
C392 C 0.64062 0.93121 0.72678 0.0
C393 C 0.63399 0.92496 0.78699 0.0
C394 C 0.63487 0.95521 0.73083 0.0
C395 C 0.64834 0.97306 0.71849 0.0
C396 C 0.66775 0.96726 0.70169 0.0
C397 C 0.67377 0.9432 0.69813 0.0
C398 C 0.66024 0.92534 0.71047 0.0
H399 H 0.63416 0.91642 0.80741 0.0
H400 H 0.6526 0.9283 0.78054 0.0
H401 H 0.62485 0.94234 0.78895 0.0
H402 H 0.61953 0.96012 0.7429 0.0
H403 H 0.64314 0.99139 0.72159 0.0
H404 H 0.51582 0.64428 0.22455 0.0
H405 H 0.54774 0.62046 0.24433 0.0
H406 H 0.59964 0.66189 0.20054 0.0
H407 H 0.56779 0.68577 0.18043 0.0
H408 H 0.60548 0.61259 0.19482 0.0
H409 H 0.59633 0.63812 0.30349 0.0
H410 H 0.56892 0.62877 0.28812 0.0
H411 H 0.5834 0.65525 0.27611 0.0
C412 C 0.53403 0.64853 0.21933 0.0
C413 C 0.53925 0.66696 0.20092 0.0
C414 C 0.55226 0.63496 0.23077 0.0
C415 C 0.57606 0.6396 0.22414 0.0
C416 C 0.58138 0.65812 0.20602 0.0
H417 H 0.69221 0.56667 0.30823 0.0
H418 H 0.6679 0.59751 0.28678 0.0
C419 C 0.56315 0.67177 0.19461 0.0
C420 C 0.5952 0.62421 0.23497 0.0
H421 H 0.61929 0.60332 0.29415 0.0
C422 C 0.6087 0.61074 0.21652 0.0
C423 C 0.59957 0.62206 0.26325 0.0
C424 C 0.58646 0.63698 0.28391 0.0
C425 C 0.62583 0.59446 0.22568 0.0
C426 C 0.62929 0.59139 0.25402 0.0
C427 C 0.61647 0.60556 0.27242 0.0
C428 C 0.64528 0.57284 0.2651 0.0
C429 C 0.63998 0.58062 0.20494 0.0
C430 C 0.64068 0.54877 0.25991 0.0
C431 C 0.65452 0.53112 0.2721 0.0
C432 C 0.67315 0.5372 0.28989 0.0
C433 C 0.67804 0.56137 0.29459 0.0
C434 C 0.66415 0.57902 0.2824 0.0
H435 H 0.64035 0.58979 0.18489 0.0
H436 H 0.65853 0.57782 0.21195 0.0
H437 H 0.63162 0.56296 0.20194 0.0
H438 H 0.62592 0.54359 0.24705 0.0
H439 H 0.65019 0.51269 0.2681 0.0
H440 H 0.98234 0.64761 0.76635 0.0
H441 H 0.94946 0.62476 0.74728 0.0
H442 H 0.89947 0.6679 0.79186 0.0
H443 H 0.93233 0.6908 0.81135 0.0
H444 H 0.89219 0.61955 0.79866 0.0
H445 H 0.9004 0.64166 0.68907 0.0
H446 H 0.9279 0.63182 0.70375 0.0
H447 H 0.91452 0.659 0.71549 0.0
C448 C 0.96435 0.6525 0.77184 0.0
C449 C 0.95997 0.67104 0.7904 0.0
C450 C 0.94555 0.63949 0.76078 0.0
C451 C 0.92201 0.64483 0.76789 0.0
C452 C 0.91752 0.6636 0.786 0.0
H453 H 0.80591 0.56819 0.68739 0.0
H454 H 0.82953 0.60036 0.70727 0.0
C455 C 0.93632 0.67668 0.79706 0.0
C456 C 0.90233 0.62964 0.75792 0.0
H457 H 0.87783 0.60674 0.69996 0.0
C458 C 0.8888 0.61699 0.77709 0.0
C459 C 0.89772 0.62656 0.7298 0.0
C460 C 0.91074 0.64067 0.70834 0.0
C461 C 0.87156 0.60048 0.76883 0.0
C462 C 0.86803 0.5963 0.74069 0.0
C463 C 0.88073 0.6098 0.72154 0.0
C464 C 0.85232 0.57707 0.73064 0.0
C465 C 0.85745 0.5875 0.79032 0.0
C466 C 0.85724 0.55333 0.73731 0.0
C467 C 0.84381 0.53494 0.72603 0.0
C468 C 0.82527 0.53991 0.70767 0.0
C469 C 0.82002 0.56375 0.7015 0.0
C470 C 0.83352 0.58215 0.71279 0.0
H471 H 0.85686 0.59765 0.80974 0.0
H472 H 0.83897 0.58414 0.7834 0.0
H473 H 0.86601 0.57013 0.79453 0.0
H474 H 0.87198 0.54897 0.7506 0.0
H475 H 0.8484 0.51679 0.73115 0.0
H476 H 0.85669 0.9863 0.26902 0.0
H477 H 0.8801 0.95449 0.24845 0.0
H478 H 0.83717 0.90226 0.28976 0.0
H479 H 0.8137 0.93402 0.31069 0.0
H480 H 0.88588 0.8957 0.29692 0.0
H481 H 0.86408 0.90731 0.18756 0.0
H482 H 0.87331 0.93435 0.20383 0.0
H483 H 0.84629 0.92005 0.21451 0.0
C484 C 0.85197 0.96806 0.27346 0.0
C485 C 0.83332 0.96271 0.29153 0.0
C486 C 0.86531 0.94988 0.26155 0.0
C487 C 0.86019 0.92602 0.26734 0.0
C488 C 0.8413 0.92058 0.28492 0.0
H489 H 0.93613 0.81073 0.18472 0.0
H490 H 0.90446 0.83504 0.20454 0.0
C491 C 0.82789 0.93875 0.29681 0.0
C492 C 0.87572 0.90694 0.25659 0.0
H493 H 0.89877 0.88426 0.19772 0.0
C494 C 0.88848 0.89297 0.27523 0.0
C495 C 0.87888 0.90324 0.2283 0.0
C496 C 0.86474 0.91687 0.20737 0.0
C497 C 0.9051 0.87609 0.26632 0.0
C498 C 0.90923 0.87335 0.23806 0.0
C499 C 0.89572 0.88657 0.2194 0.0
C500 C 0.92825 0.85768 0.22745 0.0
C501 C 0.91822 0.86145 0.28723 0.0
C502 C 0.95209 0.86238 0.23377 0.0
C503 C 0.97022 0.84857 0.22248 0.0
C504 C 0.96484 0.82984 0.20453 0.0
C505 C 0.94089 0.82497 0.19854 0.0
C506 C 0.92276 0.83885 0.20979 0.0
H507 H 0.90844 0.86073 0.30689 0.0
H508 H 0.92113 0.84303 0.27983 0.0
H509 H 0.93583 0.86963 0.29114 0.0
H510 H 0.95673 0.87711 0.24695 0.0
H511 H 0.98846 0.85288 0.22746 0.0
H512 H 0.54336 0.24445 0.24567 0.0
H513 H 0.55209 0.27836 0.27561 0.0
H514 H 0.57892 0.31768 0.20676 0.0
H515 H 0.57065 0.28396 0.17692 0.0
H516 H 0.60218 0.2966 0.2772 0.0
H517 H 0.53563 0.36581 0.2512 0.0
H518 H 0.53014 0.3344 0.24656 0.0
H519 H 0.54854 0.35021 0.2228 0.0
C520 C 0.55064 0.26053 0.23686 0.0
C521 C 0.5565 0.26152 0.20902 0.0
C522 C 0.55559 0.27984 0.25395 0.0
C523 C 0.56589 0.30055 0.24327 0.0
C524 C 0.57062 0.30198 0.21528 0.0
H525 H 0.6414 0.42576 0.28427 0.0
H526 H 0.61448 0.39583 0.26544 0.0
C527 C 0.56606 0.28262 0.19832 0.0
C528 C 0.57482 0.31944 0.26151 0.0
H529 H 0.57037 0.37877 0.27482 0.0
C530 C 0.595 0.31449 0.27721 0.0
C531 C 0.56552 0.34272 0.26099 0.0
C532 C 0.54364 0.34869 0.24465 0.0
C533 C 0.60699 0.33252 0.29132 0.0
C534 C 0.59798 0.35604 0.29049 0.0
C535 C 0.5772 0.36077 0.27556 0.0
C536 C 0.61102 0.37612 0.30315 0.0
C537 C 0.63002 0.32639 0.30549 0.0
C538 C 0.61711 0.37565 0.33089 0.0
C539 C 0.63286 0.39243 0.34153 0.0
C540 C 0.64225 0.41039 0.32479 0.0
C541 C 0.63448 0.4121 0.29764 0.0
C542 C 0.61909 0.395 0.28687 0.0
H543 H 0.63739 0.30917 0.29831 0.0
H544 H 0.6436 0.34038 0.3021 0.0
H545 H 0.62681 0.32484 0.32774 0.0
H546 H 0.61049 0.3617 0.34405 0.0
H547 H 0.63827 0.39091 0.36266 0.0
H548 H 0.22059 0.5781 0.66665 0.0
H549 H 0.18614 0.58561 0.69563 0.0
H550 H 0.21965 0.54779 0.76164 0.0
H551 H 0.25437 0.53998 0.73266 0.0
H552 H 0.15597 0.55032 0.73092 0.0
H553 H 0.20708 0.62069 0.78545 0.0
H554 H 0.21532 0.61087 0.75171 0.0
H555 H 0.22056 0.59198 0.7805 0.0
C556 C 0.2206 0.57111 0.68723 0.0
C557 C 0.24034 0.55864 0.69745 0.0
C558 C 0.20082 0.57531 0.70368 0.0
C559 C 0.20045 0.56729 0.7307 0.0
C560 C 0.21968 0.55408 0.74077 0.0
H561 H 0.10792 0.62987 0.85284 0.0
H562 H 0.13663 0.60284 0.83205 0.0
C563 C 0.23947 0.54967 0.72421 0.0
C564 C 0.18086 0.5748 0.7488 0.0
H565 H 0.16672 0.61713 0.79567 0.0
C566 C 0.15828 0.56469 0.74541 0.0
C567 C 0.18406 0.59348 0.76763 0.0
C568 C 0.20799 0.60507 0.77165 0.0
C569 C 0.13859 0.57314 0.76016 0.0
C570 C 0.14155 0.59265 0.77809 0.0
C571 C 0.16438 0.60216 0.78202 0.0
C572 C 0.12127 0.60476 0.79164 0.0
C573 C 0.1149 0.56109 0.75634 0.0
C574 C 0.10251 0.61419 0.77611 0.0
C575 C 0.08579 0.62933 0.78811 0.0
C576 C 0.08791 0.63575 0.81568 0.0
C577 C 0.10593 0.62532 0.8315 0.0
C578 C 0.12235 0.60988 0.81963 0.0
H579 H 0.1172 0.54214 0.75056 0.0
H580 H 0.10393 0.56201 0.77513 0.0
H581 H 0.10512 0.56998 0.73955 0.0
H582 H 0.10158 0.61106 0.75436 0.0
H583 H 0.07224 0.63729 0.77537 0.0
H584 H 0.86955 0.07216 0.28596 0.0
H585 H 0.89689 0.10127 0.26663 0.0
H586 H 0.89857 0.13867 0.34342 0.0
H587 H 0.87041 0.11014 0.3625 0.0
H588 H 0.8871 0.16753 0.30464 0.0
H589 H 0.96559 0.11762 0.26918 0.0
H590 H 0.93893 0.10465 0.2559 0.0
H591 H 0.94406 0.10482 0.29219 0.0
C592 C 0.87625 0.08621 0.29895 0.0
C593 C 0.86769 0.08899 0.32567 0.0
C594 C 0.89207 0.10278 0.28792 0.0
C595 C 0.90005 0.12209 0.30362 0.0
C596 C 0.8927 0.12393 0.3309 0.0
H597 H 0.96743 0.25279 0.24041 0.0
H598 H 0.9597 0.21918 0.27114 0.0
C599 C 0.8766 0.10762 0.34178 0.0
C600 C 0.91297 0.14208 0.29051 0.0
H601 H 0.9579 0.15522 0.24612 0.0
C602 C 0.90296 0.16489 0.29245 0.0
C603 C 0.93366 0.13874 0.27452 0.0
C604 C 0.9463 0.11515 0.27308 0.0
C605 C 0.91223 0.18407 0.27769 0.0
C606 C 0.93198 0.18037 0.26049 0.0
C607 C 0.94269 0.1579 0.25935 0.0
C608 C 0.93974 0.19906 0.24137 0.0
C609 C 0.90012 0.20796 0.27937 0.0
C610 C 0.93142 0.19851 0.21449 0.0
C611 C 0.93554 0.21765 0.19708 0.0
C612 C 0.94823 0.23765 0.2062 0.0
C613 C 0.9576 0.23764 0.2328 0.0
C614 C 0.95325 0.21849 0.25034 0.0
H615 H 0.88454 0.20776 0.29327 0.0
H616 H 0.91293 0.22149 0.28679 0.0
H617 H 0.89412 0.21353 0.25877 0.0
H618 H 0.92087 0.18366 0.20731 0.0
H619 H 0.92825 0.217 0.17665 0.0
H620 H 0.25788 0.97656 0.72722 0.0
H621 H 0.2944 0.97149 0.75414 0.0
H622 H 0.30604 0.90338 0.71606 0.0
H623 H 0.27049 0.90858 0.68882 0.0
H624 H 0.3065 0.93952 0.79115 0.0
H625 H 0.37034 0.9318 0.70701 0.0
H626 H 0.34052 0.94266 0.70174 0.0
H627 H 0.34669 0.91119 0.70109 0.0
C628 C 0.26841 0.96064 0.72446 0.0
C629 C 0.26141 0.9431 0.70566 0.0
C630 C 0.28927 0.95779 0.7398 0.0
C631 C 0.30338 0.93737 0.73653 0.0
C632 C 0.29603 0.91972 0.71819 0.0
H633 H 0.37539 0.84729 0.83857 0.0
H634 H 0.34948 0.87705 0.8189 0.0
C635 C 0.27549 0.92263 0.70277 0.0
C636 C 0.32495 0.93327 0.7533 0.0
H637 H 0.38024 0.90903 0.74825 0.0
C638 C 0.32288 0.93344 0.78182 0.0
C639 C 0.34673 0.92623 0.74135 0.0
C640 C 0.35125 0.92827 0.71111 0.0
C641 C 0.34106 0.92438 0.79845 0.0
C642 C 0.36139 0.91408 0.78615 0.0
C643 C 0.36447 0.9163 0.75784 0.0
C644 C 0.37782 0.89816 0.80135 0.0
C645 C 0.33792 0.92541 0.82896 0.0
C646 C 0.40258 0.89961 0.79774 0.0
C647 C 0.41755 0.88201 0.80839 0.0
C648 C 0.40803 0.86276 0.82303 0.0
C649 C 0.38339 0.86196 0.82762 0.0
C650 C 0.36848 0.87924 0.81661 0.0
H651 H 0.32856 0.94199 0.83497 0.0
H652 H 0.32669 0.91028 0.83565 0.0
H653 H 0.35519 0.92463 0.83985 0.0
H654 H 0.41025 0.91391 0.78588 0.0
H655 H 0.43646 0.88315 0.80453 0.0
H656 H 0.53607 0.25735 0.74609 0.0
H657 H 0.54367 0.22477 0.71385 0.0
H658 H 0.5658 0.1799 0.78041 0.0
H659 H 0.55861 0.21223 0.81248 0.0
H660 H 0.59152 0.20516 0.71139 0.0
H661 H 0.52409 0.13563 0.73161 0.0
H662 H 0.51936 0.16664 0.73963 0.0
H663 H 0.53706 0.14835 0.76175 0.0
C664 C 0.54196 0.24033 0.75386 0.0
C665 C 0.54693 0.23735 0.78173 0.0
C666 C 0.54627 0.22178 0.73546 0.0
C667 C 0.55503 0.19988 0.74483 0.0
C668 C 0.55864 0.19651 0.77283 0.0
H669 H 0.63231 0.07703 0.70329 0.0
H670 H 0.60431 0.10635 0.72123 0.0
C671 C 0.55472 0.21507 0.79109 0.0
C672 C 0.56396 0.18178 0.72552 0.0
H673 H 0.56014 0.12281 0.70994 0.0
C674 C 0.58439 0.18727 0.71048 0.0
C675 C 0.55471 0.15846 0.72478 0.0
C676 C 0.53246 0.1519 0.74012 0.0
C677 C 0.5968 0.16968 0.69608 0.0
C678 C 0.588 0.14608 0.69597 0.0
C679 C 0.56686 0.14087 0.70998 0.0
C680 C 0.60174 0.12631 0.6836 0.0
C681 C 0.62009 0.17631 0.68278 0.0
C682 C 0.60873 0.12712 0.65615 0.0
C683 C 0.62509 0.11067 0.64602 0.0
C684 C 0.63424 0.09272 0.66298 0.0
C685 C 0.62561 0.09069 0.68976 0.0
C686 C 0.60959 0.10744 0.70003 0.0
H687 H 0.62699 0.19358 0.69038 0.0
H688 H 0.63379 0.1625 0.68651 0.0
H689 H 0.61745 0.17796 0.66045 0.0
H690 H 0.60232 0.14108 0.64286 0.0
H691 H 0.63115 0.11245 0.62516 0.0
H692 H 0.3803 0.6483 0.14499 0.0
H693 H 0.35045 0.62381 0.16765 0.0
H694 H 0.39956 0.60942 0.23302 0.0
H695 H 0.42977 0.63376 0.21033 0.0
H696 H 0.36804 0.56935 0.21653 0.0
H697 H 0.32117 0.65439 0.23776 0.0
H698 H 0.32798 0.64887 0.20253 0.0
H699 H 0.35167 0.65333 0.22653 0.0
C700 C 0.38497 0.63956 0.16391 0.0
C701 C 0.40729 0.6433 0.17609 0.0
C702 C 0.36788 0.62556 0.17681 0.0
C703 C 0.37271 0.61517 0.20217 0.0
C704 C 0.39551 0.61736 0.21344 0.0
H705 H 0.27311 0.58535 0.32957 0.0
H706 H 0.30714 0.59669 0.30182 0.0
C707 C 0.41273 0.6313 0.20047 0.0
C708 C 0.3532 0.60456 0.21831 0.0
H709 H 0.30212 0.61923 0.25171 0.0
C710 C 0.35357 0.58016 0.22422 0.0
C711 C 0.33455 0.61885 0.22852 0.0
C712 C 0.33379 0.64535 0.22377 0.0
C713 C 0.33555 0.56964 0.24003 0.0
C714 C 0.31676 0.58394 0.24992 0.0
C715 C 0.3165 0.6083 0.24397 0.0
C716 C 0.29759 0.57449 0.26753 0.0
C717 C 0.33698 0.54351 0.24657 0.0
C718 C 0.28105 0.55795 0.25757 0.0
C719 C 0.26145 0.55135 0.27348 0.0
C720 C 0.25802 0.56139 0.29947 0.0
C721 C 0.27507 0.57738 0.30959 0.0
C722 C 0.2946 0.58387 0.29378 0.0
H723 H 0.35486 0.5361 0.24216 0.0
H724 H 0.33268 0.54029 0.26836 0.0
H725 H 0.32379 0.53376 0.23402 0.0
H726 H 0.28283 0.55081 0.23717 0.0
H727 H 0.24863 0.53903 0.26507 0.0
H728 H 0.85875 0.38612 0.6479 0.0
H729 H 0.88536 0.35837 0.67103 0.0
H730 H 0.89138 0.40666 0.73884 0.0
H731 H 0.8648 0.43472 0.71585 0.0
H732 H 0.93617 0.3675 0.70546 0.0
H733 H 0.85322 0.33877 0.75833 0.0
H734 H 0.85241 0.35166 0.72464 0.0
H735 H 0.8589 0.37001 0.75355 0.0
C736 C 0.86618 0.39116 0.66743 0.0
C737 C 0.85939 0.4125 0.68021 0.0
C738 C 0.88149 0.37532 0.68051 0.0
C739 C 0.89022 0.38053 0.70657 0.0
C740 C 0.88487 0.40249 0.71861 0.0
H741 H 0.93126 0.28159 0.83185 0.0
H742 H 0.92161 0.31757 0.80651 0.0
C743 C 0.86965 0.41844 0.70546 0.0
C744 C 0.90155 0.36157 0.72275 0.0
H745 H 0.88813 0.31816 0.7686 0.0
C746 C 0.92582 0.35674 0.71943 0.0
C747 C 0.88786 0.34764 0.74079 0.0
C748 C 0.86162 0.35208 0.74466 0.0
C749 C 0.93685 0.33824 0.73403 0.0
C750 C 0.92303 0.32407 0.75184 0.0
C751 C 0.89875 0.32909 0.75506 0.0
C752 C 0.93293 0.30375 0.76742 0.0
C753 C 0.96317 0.3343 0.73057 0.0
C754 C 0.94315 0.28419 0.75401 0.0
C755 C 0.949 0.2636 0.7686 0.0
C756 C 0.94422 0.26214 0.79668 0.0
C757 C 0.93493 0.2821 0.81017 0.0
C758 C 0.92945 0.3027 0.79572 0.0
H759 H 0.9722 0.35052 0.72286 0.0
H760 H 0.97157 0.32896 0.75012 0.0
H761 H 0.96609 0.31988 0.71551 0.0
H762 H 0.94552 0.28436 0.73211 0.0
H763 H 0.95602 0.24842 0.75766 0.0
H764 H 0.06837 0.87429 0.19772 0.0
H765 H 0.09552 0.90363 0.21755 0.0
H766 H 0.15503 0.86682 0.18159 0.0
H767 H 0.12819 0.83831 0.16096 0.0
H768 H 0.12687 0.89608 0.25441 0.0
H769 H 0.17548 0.93268 0.16697 0.0
H770 H 0.1485 0.91577 0.16264 0.0
H771 H 0.1769 0.90097 0.165 0.0
C772 C 0.0872 0.87282 0.19353 0.0
C773 C 0.09609 0.85393 0.17777 0.0
C774 C 0.10271 0.8896 0.20487 0.0
C775 C 0.12735 0.88776 0.2007 0.0
C776 C 0.1361 0.86923 0.18439 0.0
H777 H 0.23927 0.90042 0.31001 0.0
H778 H 0.20338 0.89302 0.28387 0.0
C779 C 0.12067 0.85269 0.17282 0.0
C780 C 0.14428 0.90301 0.21603 0.0
H781 H 0.19823 0.93018 0.20984 0.0
C782 C 0.14215 0.90407 0.24453 0.0
C783 C 0.16397 0.91411 0.20334 0.0
C784 C 0.16614 0.91605 0.17277 0.0
C785 C 0.16015 0.91395 0.26071 0.0
C786 C 0.18121 0.92223 0.24814 0.0
C787 C 0.18239 0.92323 0.21958 0.0
C788 C 0.20296 0.92745 0.26419 0.0
C789 C 0.15661 0.9148 0.2912 0.0
C790 C 0.21539 0.94892 0.26098 0.0
C791 C 0.23637 0.95306 0.27563 0.0
C792 C 0.24521 0.93579 0.29372 0.0
C793 C 0.23282 0.91426 0.29657 0.0
C794 C 0.21211 0.91006 0.28179 0.0
H795 H 0.13751 0.91696 0.29636 0.0
H796 H 0.16266 0.89778 0.30027 0.0
H797 H 0.16675 0.92958 0.30065 0.0
H798 H 0.20883 0.96247 0.24723 0.0
H799 H 0.24555 0.96981 0.27295 0.0
H800 H 0.35133 0.62369 0.63735 0.0
H801 H 0.37808 0.65365 0.6561 0.0
H802 H 0.39146 0.60876 0.7257 0.0
H803 H 0.36519 0.57842 0.70671 0.0
H804 H 0.36842 0.67592 0.70239 0.0
H805 H 0.4572 0.63458 0.71166 0.0
H806 H 0.43402 0.6221 0.69059 0.0
H807 H 0.43442 0.6166 0.72676 0.0
C808 C 0.3604 0.61994 0.65634 0.0
C809 C 0.35599 0.59874 0.67065 0.0
C810 C 0.37573 0.63708 0.667 0.0
C811 C 0.38693 0.63343 0.69222 0.0
C812 C 0.38348 0.61179 0.70592 0.0
H813 H 0.41625 0.72864 0.8201 0.0
H814 H 0.40562 0.69652 0.78913 0.0
C815 C 0.3683 0.5945 0.69512 0.0
C816 C 0.39929 0.65345 0.7059 0.0
H817 H 0.44983 0.66884 0.74032 0.0
C818 C 0.3864 0.67448 0.71018 0.0
C819 C 0.42278 0.65167 0.71603 0.0
C820 C 0.43799 0.6301 0.71078 0.0
C821 C 0.3959 0.69328 0.72536 0.0
C822 C 0.41879 0.69094 0.7368 0.0
C823 C 0.4322 0.67044 0.7316 0.0
C824 C 0.42785 0.70888 0.75613 0.0
C825 C 0.38111 0.7153 0.72987 0.0
C826 C 0.44433 0.72615 0.74792 0.0
C827 C 0.45047 0.74472 0.76562 0.0
C828 C 0.44014 0.74621 0.79171 0.0
C829 C 0.42441 0.72821 0.8001 0.0
C830 C 0.41835 0.70976 0.78249 0.0
H831 H 0.36578 0.71622 0.71564 0.0
H832 H 0.37416 0.71524 0.75105 0.0
H833 H 0.39211 0.73152 0.72729 0.0
H834 H 0.45176 0.72571 0.72755 0.0
H835 H 0.46267 0.75827 0.75857 0.0
H836 H 0.93135 0.36332 0.21329 0.0
H837 H 0.90192 0.38892 0.23554 0.0
H838 H 0.85105 0.37214 0.17275 0.0
H839 H 0.88012 0.34643 0.15052 0.0
H840 H 0.86967 0.42858 0.21733 0.0
H841 H 0.82414 0.34452 0.24614 0.0
H842 H 0.85436 0.34519 0.23391 0.0
H843 H 0.83009 0.34821 0.21039 0.0
C844 C 0.91409 0.36552 0.20386 0.0
C845 C 0.90794 0.35251 0.1804 0.0
C846 C 0.89733 0.38018 0.21658 0.0
C847 C 0.87427 0.38209 0.20595 0.0
C848 C 0.8687 0.37065 0.18139 0.0
H849 H 0.75089 0.46027 0.26664 0.0
H850 H 0.78506 0.44767 0.23914 0.0
C851 C 0.88535 0.35594 0.16876 0.0
C852 C 0.85522 0.39343 0.22215 0.0
H853 H 0.80517 0.38024 0.25828 0.0
C854 C 0.85552 0.41811 0.2263 0.0
C855 C 0.837 0.37959 0.23404 0.0
C856 C 0.83635 0.35289 0.23116 0.0
C857 C 0.83781 0.42934 0.24194 0.0
C858 C 0.81941 0.41548 0.25347 0.0
C859 C 0.81925 0.39083 0.24932 0.0
C860 C 0.80044 0.42573 0.27079 0.0
C861 C 0.83914 0.45579 0.2465 0.0
C862 C 0.79783 0.41765 0.29766 0.0
C863 C 0.77831 0.42457 0.31324 0.0
C864 C 0.7609 0.43973 0.30227 0.0
C865 C 0.76401 0.44861 0.27569 0.0
C866 C 0.78359 0.44155 0.26001 0.0
H867 H 0.85691 0.46304 0.24122 0.0
H868 H 0.82573 0.46473 0.23348 0.0
H869 H 0.83511 0.46023 0.26808 0.0
H870 H 0.81062 0.40541 0.30634 0.0
H871 H 0.7766 0.41753 0.3337 0.0
H872 H 0.02521 0.75833 0.77942 0.0
H873 H 0.03352 0.79533 0.75467 0.0
H874 H 0.10565 0.79412 0.78445 0.0
H875 H 0.09725 0.75802 0.80989 0.0
H876 H 0.08747 0.83737 0.7885 0.0
H877 H 0.06961 0.80195 0.68456 0.0
H878 H 0.04517 0.80066 0.70804 0.0
H879 H 0.07122 0.78294 0.71408 0.0
C880 C 0.04283 0.766 0.78059 0.0
C881 C 0.06059 0.75525 0.79656 0.0
C882 C 0.04758 0.78707 0.76636 0.0
C883 C 0.07031 0.79738 0.76741 0.0
C884 C 0.08796 0.78659 0.78338 0.0
H885 H 0.15901 0.87339 0.66549 0.0
H886 H 0.13086 0.8471 0.68761 0.0
C887 C 0.08314 0.76587 0.79788 0.0
C888 C 0.07631 0.8193 0.75202 0.0
H889 H 0.08451 0.84068 0.68758 0.0
C890 C 0.08658 0.83827 0.76642 0.0
C891 C 0.075 0.82045 0.72324 0.0
C892 C 0.06483 0.80039 0.70647 0.0
C893 C 0.09723 0.85745 0.75286 0.0
C894 C 0.09674 0.85818 0.724 0.0
C895 C 0.08485 0.8401 0.70969 0.0
C896 C 0.11164 0.87514 0.70829 0.0
C897 C 0.11043 0.87572 0.76957 0.0
C898 C 0.10988 0.89987 0.71182 0.0
C899 C 0.12643 0.91508 0.69952 0.0
C900 C 0.14465 0.90581 0.68301 0.0
C901 C 0.14531 0.8812 0.67815 0.0
C902 C 0.12911 0.86607 0.69074 0.0
H903 H 0.11298 0.86991 0.79102 0.0
H904 H 0.12816 0.87942 0.76061 0.0
H905 H 0.10015 0.89253 0.76987 0.0
H906 H 0.09613 0.90735 0.72465 0.0
H907 H 0.12527 0.93399 0.70339 0.0
H908 H 0.62403 0.15183 0.14952 0.0
H909 H 0.65409 0.12577 0.16923 0.0
H910 H 0.60829 0.11223 0.23801 0.0
H911 H 0.57781 0.13787 0.21803 0.0
H912 H 0.67515 0.13661 0.21624 0.0
H913 H 0.63586 0.04674 0.22477 0.0
H914 H 0.62338 0.06952 0.20313 0.0
H915 H 0.61725 0.0694 0.23914 0.0
C916 C 0.62009 0.14286 0.16853 0.0
C917 C 0.59861 0.14707 0.18234 0.0
C918 C 0.6373 0.12793 0.17974 0.0
C919 C 0.63344 0.11694 0.20503 0.0
C920 C 0.6115 0.1201 0.2182 0.0
H921 H 0.73547 0.0895 0.32909 0.0
H922 H 0.70215 0.10142 0.30049 0.0
C923 C 0.59413 0.13489 0.20683 0.0
C924 C 0.6535 0.10513 0.21924 0.0
H925 H 0.67025 0.05453 0.25263 0.0
C926 C 0.67415 0.11854 0.22383 0.0
C927 C 0.65228 0.08151 0.22905 0.0
C928 C 0.63108 0.06586 0.22355 0.0
C929 C 0.69325 0.10931 0.23871 0.0
C930 C 0.69155 0.08618 0.24971 0.0
C931 C 0.67134 0.07236 0.24435 0.0
C932 C 0.71026 0.07682 0.26794 0.0
C933 C 0.71504 0.12451 0.24289 0.0
C934 C 0.72543 0.0585 0.25939 0.0
C935 C 0.74463 0.05158 0.27574 0.0
C936 C 0.74886 0.06289 0.30088 0.0
C937 C 0.73294 0.08055 0.30976 0.0
C938 C 0.71384 0.0874 0.29347 0.0
H939 H 0.71594 0.13929 0.2279 0.0
H940 H 0.71453 0.13236 0.26364 0.0
H941 H 0.73148 0.11371 0.24116 0.0
H942 H 0.72287 0.05013 0.23972 0.0
H943 H 0.75649 0.03786 0.26836 0.0
H944 H 0.46635 0.74457 0.23227 0.0
H945 H 0.45766 0.77889 0.26153 0.0
H946 H 0.4197 0.8122 0.1955 0.0
H947 H 0.42807 0.77811 0.16623 0.0
H948 H 0.45441 0.84263 0.2334 0.0
H949 H 0.3829 0.78894 0.28247 0.0
H950 H 0.4119 0.776 0.27768 0.0
H951 H 0.39357 0.78212 0.24865 0.0
C952 C 0.45652 0.75938 0.22384 0.0
C953 C 0.44767 0.75851 0.19703 0.0
C954 C 0.45161 0.77895 0.24056 0.0
C955 C 0.43804 0.79796 0.23058 0.0
C956 C 0.43028 0.79769 0.20346 0.0
H957 H 0.36469 0.92407 0.27599 0.0
H958 H 0.39205 0.89555 0.2554 0.0
C959 C 0.43497 0.77813 0.18685 0.0
C960 C 0.42957 0.81693 0.24896 0.0
H961 H 0.38509 0.82915 0.29387 0.0
C962 C 0.43948 0.83972 0.24699 0.0
C963 C 0.41018 0.81294 0.2666 0.0
C964 C 0.39884 0.78874 0.2691 0.0
C965 C 0.43012 0.85886 0.26197 0.0
C966 C 0.40992 0.85513 0.27864 0.0
C967 C 0.40059 0.83207 0.28119 0.0
C968 C 0.39693 0.87484 0.29223 0.0
C969 C 0.44198 0.8828 0.25973 0.0
C970 C 0.39056 0.87287 0.31982 0.0
C971 C 0.37445 0.8888 0.3314 0.0
C972 C 0.36459 0.90722 0.31571 0.0
C973 C 0.37217 0.91018 0.28864 0.0
C974 C 0.38797 0.89395 0.27689 0.0
H975 H 0.4612 0.8809 0.25501 0.0
H976 H 0.43372 0.89293 0.2428 0.0
H977 H 0.44007 0.89322 0.27883 0.0
H978 H 0.3972 0.8583 0.33208 0.0
H979 H 0.36902 0.88616 0.35238 0.0
H980 H 0.73275 0.40649 0.6788 0.0
H981 H 0.69762 0.39704 0.70538 0.0
H982 H 0.70599 0.4619 0.75124 0.0
H983 H 0.74195 0.47127 0.725 0.0
H984 H 0.69693 0.42567 0.78431 0.0
H985 H 0.63159 0.42277 0.70096 0.0
H986 H 0.65619 0.40395 0.69263 0.0
H987 H 0.66078 0.43549 0.69652 0.0
C988 C 0.72708 0.41894 0.69433 0.0
C989 C 0.74014 0.43972 0.69966 0.0
C990 C 0.70679 0.41359 0.70938 0.0
C991 C 0.69874 0.42906 0.72982 0.0
C992 C 0.71171 0.44984 0.73532 0.0
H993 H 0.56634 0.37253 0.79887 0.0
H994 H 0.59353 0.40255 0.78053 0.0
C995 C 0.73225 0.45515 0.72034 0.0
C996 C 0.67776 0.42231 0.74645 0.0
H997 H 0.62265 0.39776 0.74034 0.0
C998 C 0.68046 0.42007 0.77479 0.0
C999 C 0.65594 0.4157 0.73429 0.0
C1000 C 0.65088 0.41989 0.70446 0.0
C1001 C 0.66275 0.40946 0.79085 0.0
C1002 C 0.64217 0.40018 0.77809 0.0
C1003 C 0.6386 0.40436 0.75017 0.0
C1004 C 0.62555 0.38389 0.79241 0.0
C1005 C 0.66657 0.40789 0.82124 0.0
C1006 C 0.63442 0.36349 0.80534 0.0
C1007 C 0.61899 0.34652 0.81607 0.0
C1008 C 0.59425 0.34925 0.8136 0.0
C1009 C 0.5853 0.36988 0.80109 0.0
C1010 C 0.60082 0.38706 0.79062 0.0
H1011 H 0.67686 0.42343 0.82873 0.0
H1012 H 0.64949 0.40705 0.83251 0.0
H1013 H 0.67708 0.39173 0.82595 0.0
H1014 H 0.65334 0.36013 0.80618 0.0
H1015 H 0.62653 0.33077 0.82534 0.0
H1016 H 0.13716 0.61169 0.35925 0.0
H1017 H 0.10915 0.64031 0.34008 0.0
H1018 H 0.10934 0.60178 0.26401 0.0
H1019 H 0.13659 0.57259 0.28345 0.0
H1020 H 0.12039 0.66846 0.30026 0.0
H1021 H 0.04068 0.61869 0.26809 0.0
H1022 H 0.06253 0.60615 0.29087 0.0
H1023 H 0.06705 0.60536 0.25449 0.0
C1024 C 0.13071 0.60896 0.33868 0.0
C1025 C 0.13916 0.58996 0.32279 0.0
C1026 C 0.11469 0.62533 0.32775 0.0
C1027 C 0.10694 0.62317 0.30065 0.0
C1028 C 0.1145 0.60355 0.28518 0.0
H1029 H 0.07461 0.71738 0.17349 0.0
H1030 H 0.08288 0.68405 0.20386 0.0
C1031 C 0.13025 0.58693 0.29626 0.0
C1032 C 0.09395 0.64307 0.28747 0.0
H1033 H 0.04783 0.65611 0.24466 0.0
C1034 C 0.10419 0.66582 0.28868 0.0
C1035 C 0.07282 0.63971 0.27227 0.0
C1036 C 0.06002 0.61618 0.2716 0.0
C1037 C 0.09461 0.68493 0.27404 0.0
C1038 C 0.0743 0.68122 0.25773 0.0
C1039 C 0.06345 0.6588 0.25723 0.0
C1040 C 0.06589 0.6999 0.23894 0.0
C1041 C 0.10693 0.70873 0.27495 0.0
C1042 C 0.05311 0.71958 0.24859 0.0
C1043 C 0.04824 0.73872 0.23122 0.0
C1044 C 0.05637 0.73848 0.2041 0.0
C1045 C 0.06828 0.71822 0.19433 0.0
C1046 C 0.07291 0.69909 0.21158 0.0
H1047 H 0.12317 0.70842 0.28783 0.0
H1048 H 0.11195 0.7143 0.25401 0.0
H1049 H 0.09459 0.72232 0.28321 0.0
H1050 H 0.04765 0.72046 0.26975 0.0
H1051 H 0.03904 0.75407 0.23934 0.0
H1052 H 0.92619 0.13759 0.77677 0.0
H1053 H 0.89582 0.11387 0.75346 0.0
H1054 H 0.84739 0.12584 0.82014 0.0
H1055 H 0.87739 0.14968 0.84344 0.0
H1056 H 0.8647 0.07303 0.76904 0.0
H1057 H 0.81709 0.15829 0.75159 0.0
H1058 H 0.84777 0.15711 0.76218 0.0
H1059 H 0.82447 0.15192 0.78648 0.0
C1060 C 0.90927 0.13473 0.78676 0.0
C1061 C 0.90407 0.14586 0.81175 0.0
C1062 C 0.89196 0.12116 0.77342 0.0
C1063 C 0.8693 0.11847 0.78493 0.0
C1064 C 0.86471 0.12799 0.8108 0.0
H1065 H 0.74494 0.04262 0.72255 0.0
H1066 H 0.77938 0.05446 0.75003 0.0
C1067 C 0.88189 0.14162 0.82406 0.0
C1068 C 0.84967 0.10818 0.76871 0.0
H1069 H 0.79794 0.12336 0.73694 0.0
C1070 C 0.85005 0.08394 0.76201 0.0
C1071 C 0.83078 0.12261 0.75936 0.0
C1072 C 0.82997 0.14897 0.76502 0.0
C1073 C 0.83181 0.0737 0.74629 0.0
C1074 C 0.81277 0.08812 0.7373 0.0
C1075 C 0.81251 0.11234 0.74399 0.0
C1076 C 0.79328 0.07893 0.71997 0.0
C1077 C 0.83327 0.04775 0.7389 0.0
C1078 C 0.78967 0.0888 0.69406 0.0
C1079 C 0.77001 0.08227 0.67848 0.0
C1080 C 0.75342 0.06575 0.68851 0.0
C1081 C 0.75739 0.05536 0.71421 0.0
C1082 C 0.77714 0.06198 0.72987 0.0
H1083 H 0.85131 0.04037 0.74251 0.0
H1084 H 0.82047 0.0376 0.75156 0.0
H1085 H 0.82848 0.04498 0.71716 0.0
H1086 H 0.80189 0.10195 0.68609 0.0
H1087 H 0.76762 0.09055 0.65874 0.0
H1088 H 0.53969 0.19926 0.06301 0.0
H1089 H 0.51719 0.21338 0.02398 0.0
H1090 H 0.45671 0.22697 0.07574 0.0
H1091 H 0.47951 0.2129 0.1154 0.0
H1092 H 0.47271 0.20379 -0.00126 0.0
H1093 H 0.47602 0.2933 0.04756 0.0
H1094 H 0.49333 0.26908 0.06114 0.0
H1095 H 0.4616 0.26902 0.06476 0.0
C1096 C 0.52142 0.20471 0.06606 0.0
C1097 C 0.51148 0.20537 0.09228 0.0
C1098 C 0.5085 0.21267 0.04368 0.0
C1099 C 0.48541 0.22158 0.04702 0.0
C1100 C 0.47462 0.22042 0.07281 0.0
H1101 H 0.47628 0.28429 0.88367 0.0
H1102 H 0.45478 0.2704 0.92437 0.0
C1103 C 0.4876 0.21226 0.09537 0.0
C1104 C 0.47486 0.23493 0.02399 0.0
H1105 H 0.47557 0.29178 1e-05 0.0
C1106 C 0.47224 0.22306 -0.00099 0.0
C1107 C 0.47405 0.26006 0.02454 0.0
C1108 C 0.47639 0.27378 0.05085 0.0
C1109 C 0.47231 0.23559 0.97427 0.0
C1110 C 0.47477 0.2606 0.97475 0.0
C1111 C 0.47385 0.27259 -0.00019 0.0
C1112 C 0.48518 0.27331 0.95118 0.0
C1113 C 0.47276 0.22183 0.94787 0.0
C1114 C 0.50894 0.28059 0.95315 0.0
C1115 C 0.52114 0.28841 0.93019 0.0
C1116 C 0.50981 0.28926 0.90472 0.0
C1117 C 0.48545 0.28377 0.90307 0.0
C1118 C 0.4732 0.27572 0.92622 0.0
H1119 H 0.47107 0.20238 0.95115 0.0
H1120 H 0.45792 0.22773 0.93461 0.0
H1121 H 0.48964 0.22531 0.93686 0.0
H1122 H 0.51854 0.27887 0.97221 0.0
H1123 H 0.53982 0.29275 0.93216 0.0
H1124 H 0.21523 0.47478 0.38399 0.0
H1125 H 0.2314 0.45129 0.4219 0.0
H1126 H 0.20977 0.50608 0.47826 0.0
H1127 H 0.19363 0.52919 0.44091 0.0
H1128 H 0.26819 0.46714 0.45 0.0
H1129 H 0.19846 0.44907 0.52474 0.0
H1130 H 0.19158 0.45524 0.48942 0.0
H1131 H 0.19455 0.47913 0.51379 0.0
C1132 C 0.21313 0.48128 0.40463 0.0
C1133 C 0.2034 0.5039 0.40954 0.0
C1134 C 0.22239 0.46787 0.42625 0.0
C1135 C 0.22159 0.47673 0.45303 0.0
C1136 C 0.2101 0.49845 0.45799 0.0
H1137 H 0.30469 0.53451 0.55388 0.0
H1138 H 0.29057 0.51024 0.51639 0.0
C1139 C 0.2011 0.51187 0.43651 0.0
C1140 C 0.2366 0.46654 0.47497 0.0
H1141 H 0.23664 0.46535 0.54432 0.0
C1142 C 0.26125 0.46568 0.47057 0.0
C1143 C 0.2278 0.46362 0.50176 0.0
C1144 C 0.20159 0.46153 0.50755 0.0
C1145 C 0.27716 0.46616 0.49256 0.0
C1146 C 0.26811 0.46807 0.51936 0.0
C1147 C 0.24368 0.46469 0.52375 0.0
C1148 C 0.28204 0.47962 0.54134 0.0
C1149 C 0.30345 0.46681 0.48677 0.0
C1150 C 0.28236 0.47048 0.56801 0.0
C1151 C 0.29046 0.48454 0.5897 0.0
C1152 C 0.29785 0.50806 0.58499 0.0
C1153 C 0.29902 0.51649 0.55812 0.0
C1154 C 0.29119 0.50245 0.53656 0.0
H1155 H 0.30784 0.45489 0.46943 0.0
H1156 H 0.30865 0.48509 0.48077 0.0
H1157 H 0.31405 0.4614 0.50483 0.0
H1158 H 0.27512 0.45303 0.57221 0.0
H1159 H 0.28926 0.47765 0.61028 0.0
H1160 H 0.96348 0.2955 0.05928 0.0
H1161 H 0.98555 0.28018 0.02056 0.0
H1162 H 0.04756 0.27105 0.0712 0.0
H1163 H 0.02516 0.28619 0.11062 0.0
H1164 H 0.02821 0.29029 0.99338 0.0
H1165 H 0.03167 0.20305 0.04723 0.0
H1166 H 0.01368 0.22696 0.06034 0.0
H1167 H 0.04548 0.22871 0.06232 0.0
C1168 C 0.98196 0.29072 0.06215 0.0
C1169 C 0.99246 0.29164 0.08808 0.0
C1170 C 0.99463 0.28206 0.03993 0.0
C1171 C 0.01808 0.27407 0.04308 0.0
C1172 C 0.02936 0.27678 0.06844 0.0
H1173 H 0.02353 0.20861 0.88198 0.0
H1174 H 0.04666 0.22366 0.92082 0.0
C1175 C 0.01661 0.28559 0.09086 0.0
C1176 C 0.02871 0.26027 0.02041 0.0
H1177 H 0.03112 0.20248 -0.00028 0.0
C1178 C 0.02986 0.27112 0.9947 0.0
C1179 C 0.03115 0.2353 0.02234 0.0
C1180 C 0.03044 0.22265 0.04946 0.0
C1181 C 0.02973 0.25753 0.9707 0.0
C1182 C 0.02895 0.23244 0.97267 0.0
C1183 C 0.03149 0.2217 -0.00166 0.0
C1184 C 0.01863 0.21798 0.95033 0.0
C1185 C 0.02742 0.27016 0.94368 0.0
C1186 C 0.99596 0.20823 0.95441 0.0
C1187 C 0.98291 0.19953 0.9325 0.0
C1188 C 0.99222 0.20037 0.90598 0.0
C1189 C 0.01585 0.20787 0.90221 0.0
C1190 C 0.02901 0.21665 0.92432 0.0
H1191 H 0.02716 0.2898 0.94598 0.0
H1192 H 0.04261 0.26537 0.93037 0.0
H1193 H 0.01081 0.26461 0.93326 0.0
H1194 H 0.98759 0.20896 0.97429 0.0
H1195 H 0.96488 0.19357 0.93612 0.0
H1196 H 0.28766 0.01861 0.3836 0.0
H1197 H 0.2718 0.04062 0.42286 0.0
H1198 H 0.29187 0.98283 0.47586 0.0
H1199 H 0.3076 0.96103 0.43712 0.0
H1200 H 0.2344 0.0234 0.45113 0.0
H1201 H 0.30667 0.0388 0.52403 0.0
H1202 H 0.31225 0.03373 0.48817 0.0
H1203 H 0.30918 0.00905 0.51142 0.0
C1204 C 0.28943 0.01106 0.40381 0.0
C1205 C 0.29868 0.98804 0.40735 0.0
C1206 C 0.28034 0.02363 0.42618 0.0
C1207 C 0.2809 0.01354 0.45237 0.0
C1208 C 0.29175 0.9913 0.45603 0.0
H1209 H 0.19748 0.96077 0.56073 0.0
H1210 H 0.21229 0.98208 0.52119 0.0
C1211 C 0.30052 0.9787 0.43378 0.0
C1212 C 0.26657 0.02343 0.47505 0.0
H1213 H 0.26831 0.02532 0.54439 0.0
C1214 C 0.24186 0.02482 0.47146 0.0
C1215 C 0.27616 0.02607 0.50151 0.0
C1216 C 0.30258 0.02711 0.50639 0.0
C1217 C 0.2265 0.02509 0.49397 0.0
C1218 C 0.23616 0.02354 0.52051 0.0
C1219 C 0.26081 0.0259 0.52403 0.0
C1220 C 0.22218 0.01379 0.54354 0.0
C1221 C 0.20006 0.02506 0.48907 0.0
C1222 C 0.2224 0.0246 0.56937 0.0
C1223 C 0.21384 0.01231 0.5922 0.0
C1224 C 0.20546 0.98888 0.5895 0.0
C1225 C 0.20389 0.97877 0.56342 0.0
C1226 C 0.21214 0.99109 0.5407 0.0
H1227 H 0.19557 0.03612 0.47103 0.0
H1228 H 0.1941 0.00666 0.48469 0.0
H1229 H 0.19015 0.03184 0.50704 0.0
H1230 H 0.23033 0.04197 0.57206 0.0
H1231 H 0.21539 0.02045 0.61213 0.0
H1232 H 0.46794 0.80422 0.93861 0.0
H1233 H 0.49102 0.7875 0.97574 0.0
H1234 H 0.54709 0.76911 0.91955 0.0
H1235 H 0.52376 0.786 0.88191 0.0
H1236 H 0.53111 0.73089 0.94687 0.0
H1237 H 0.54823 0.80052 0.0224 0.0
H1238 H 0.51819 0.8037 0.011 0.0
H1239 H 0.54226 0.80738 0.98703 0.0
C1240 C 0.48551 0.79732 0.93424 0.0
C1241 C 0.49397 0.79623 0.90737 0.0
C1242 C 0.49886 0.78797 0.95558 0.0
C1243 C 0.52098 0.77729 0.95055 0.0
C1244 C 0.5302 0.77752 0.92394 0.0
H1245 H 0.5258 0.70871 0.10732 0.0
H1246 H 0.54881 0.72336 0.06824 0.0
C1247 C 0.51688 0.78718 0.90249 0.0
C1248 C 0.53153 0.76224 0.97219 0.0
H1249 H 0.53411 0.76168 0.04149 0.0
C1250 C 0.5328 0.73767 0.96748 0.0
C1251 C 0.53465 0.77091 -0.001 0.0
C1252 C 0.53604 0.79713 0.00502 0.0
C1253 C 0.53315 0.72156 0.98929 0.0
C1254 C 0.53172 0.73035 0.01625 0.0
C1255 C 0.5345 0.75483 0.02082 0.0
C1256 C 0.52136 0.7159 0.03856 0.0
C1257 C 0.53296 0.69531 0.98322 0.0
C1258 C 0.49861 0.70619 0.03475 0.0
C1259 C 0.48547 0.69807 0.0569 0.0
C1260 C 0.49475 0.69949 0.08339 0.0
C1261 C 0.51826 0.70732 0.08706 0.0
C1262 C 0.53141 0.71571 0.06478 0.0
H1263 H 0.54441 0.69135 0.96534 0.0
H1264 H 0.53919 0.68471 0.00092 0.0
H1265 H 0.51462 0.68972 0.97794 0.0
H1266 H 0.49014 0.70667 0.01493 0.0
H1267 H 0.46743 0.69206 0.05346 0.0
H1268 H 0.80336 0.46901 0.5583 0.0
H1269 H 0.78913 0.49252 0.52024 0.0
H1270 H 0.77261 0.55037 0.5748 0.0
H1271 H 0.78682 0.52653 0.61345 0.0
H1272 H 0.73461 0.53763 0.54615 0.0
H1273 H 0.80731 0.54745 0.47301 0.0
H1274 H 0.80786 0.51737 0.48477 0.0
H1275 H 0.81279 0.54131 0.50865 0.0
C1276 C 0.79736 0.48698 0.56217 0.0
C1277 C 0.79599 0.49583 0.58887 0.0
C1278 C 0.78947 0.5006 0.54028 0.0
C1279 C 0.78009 0.52342 0.54452 0.0
C1280 C 0.78003 0.53293 0.57101 0.0
H1281 H 0.71682 0.52704 0.38528 0.0
H1282 H 0.73204 0.5509 0.42343 0.0
C1283 C 0.78816 0.51929 0.59305 0.0
C1284 C 0.76656 0.5347 0.52204 0.0
H1285 H 0.76805 0.53527 0.45271 0.0
C1286 C 0.74206 0.53815 0.52577 0.0
C1287 C 0.77616 0.53644 0.49548 0.0
C1288 C 0.80256 0.53572 0.49039 0.0
C1289 C 0.72663 0.53916 0.50334 0.0
C1290 C 0.73597 0.53609 0.47681 0.0
C1291 C 0.7607 0.53686 0.47306 0.0
C1292 C 0.72138 0.52581 0.45455 0.0
C1293 C 0.70032 0.54139 0.50842 0.0
C1294 C 0.7097 0.50417 0.4594 0.0
C1295 C 0.70124 0.49055 0.4378 0.0
C1296 C 0.70429 0.49822 0.41082 0.0
C1297 C 0.71415 0.52077 0.40594 0.0
C1298 C 0.72287 0.5344 0.42769 0.0
H1299 H 0.6969 0.55402 0.52539 0.0
H1300 H 0.69069 0.54756 0.48997 0.0
H1301 H 0.69311 0.52387 0.51469 0.0
H1302 H 0.70885 0.49674 0.47974 0.0
H1303 H 0.69364 0.47328 0.44217 0.0
H1304 H 0.0375 0.80102 0.058 0.0
H1305 H 0.01472 0.78665 0.01935 0.0
H1306 H 0.95552 0.77112 0.07233 0.0
H1307 H 0.97854 0.78561 0.11151 0.0
H1308 H 0.96995 0.73241 0.04465 0.0
H1309 H 0.96021 0.80466 0.97059 0.0
H1310 H 0.98999 0.80536 0.98337 0.0
H1311 H 0.96545 0.81033 0.00639 0.0
C1312 C 0.01936 0.79526 0.06135 0.0
C1313 C 0.00987 0.79425 0.08776 0.0
C1314 C 0.0062 0.78727 0.03914 0.0
C1315 C 0.98324 0.77806 0.04282 0.0
C1316 C 0.97309 0.77841 0.06898 0.0
H1317 H 0.97624 0.71221 0.88394 0.0
H1318 H 0.95413 0.72834 0.92296 0.0
C1319 C 0.98624 0.78671 0.09131 0.0
C1320 C 0.97246 0.76423 0.02028 0.0
H1321 H 0.97175 0.76527 0.95092 0.0
C1322 C 0.96933 0.73972 0.0242 0.0
C1323 C 0.97078 0.77366 0.99365 0.0
C1324 C 0.97152 0.80003 0.98837 0.0
C1325 C 0.9684 0.72414 0.00191 0.0
C1326 C 0.97111 0.73335 0.97528 0.0
C1327 C 0.97033 0.75806 0.97136 0.0
C1328 C 0.9807 0.71858 0.95281 0.0
C1329 C 0.96658 0.69782 0.00719 0.0
C1330 C 0.00264 0.7072 0.95673 0.0
C1331 C 0.0153 0.69825 0.93462 0.0
C1332 C 0.00632 0.70048 0.90807 0.0
C1333 C 0.98352 0.71015 0.90425 0.0
C1334 C 0.97088 0.71939 0.92649 0.0
H1335 H 0.95468 0.6943 0.0248 0.0
H1336 H 0.95977 0.68812 0.98909 0.0
H1337 H 0.98441 0.69076 0.01248 0.0
H1338 H 0.01093 0.70686 0.97666 0.0
H1339 H 0.0328 0.69084 0.93816 0.0
H1340 H 0.6921 0.0294 0.54787 0.0
H1341 H 0.70887 0.00496 0.51208 0.0
H1342 H 0.72679 0.95094 0.57106 0.0
H1343 H 0.7101 0.97584 0.60744 0.0
H1344 H 0.76485 0.96415 0.54445 0.0
H1345 H 0.69765 0.94777 0.46644 0.0
H1346 H 0.69446 0.97822 0.47617 0.0
H1347 H 0.6895 0.9551 0.50111 0.0
C1348 C 0.6989 0.01199 0.55317 0.0
C1349 C 0.70004 0.00466 0.58047 0.0
C1350 C 0.70824 0.9978 0.53256 0.0
C1351 C 0.71887 0.97587 0.53871 0.0
C1352 C 0.71847 0.96767 0.56577 0.0
H1353 H 0.79195 0.97378 0.38525 0.0
H1354 H 0.77547 0.94958 0.42238 0.0
C1355 C 0.70891 0.9819 0.58653 0.0
C1356 C 0.73432 0.96469 0.5178 0.0
H1357 H 0.73714 0.96279 0.44855 0.0
C1358 C 0.75869 0.9628 0.52355 0.0
C1359 C 0.72652 0.96178 0.49059 0.0
C1360 C 0.70052 0.96054 0.48339 0.0
C1361 C 0.7755 0.96236 0.50245 0.0
C1362 C 0.76765 0.9645 0.47517 0.0
C1363 C 0.74332 0.96203 0.46948 0.0
C1364 C 0.78292 0.97544 0.45392 0.0
C1365 C 0.80151 0.96177 0.50968 0.0
C1366 C 0.79318 0.99768 0.45938 0.0
C1367 C 0.8024 0.01147 0.43835 0.0
C1368 C 0.80149 0.00342 0.4113 0.0
C1369 C 0.79295 0.9804 0.40596 0.0
C1370 C 0.78351 0.96657 0.42713 0.0
H1371 H 0.80461 0.94946 0.52702 0.0
H1372 H 0.81263 0.9561 0.49214 0.0
H1373 H 0.80725 0.97972 0.51634 0.0
H1374 H 0.79238 0.00533 0.47962 0.0
H1375 H 0.80895 0.02909 0.44311 0.0
loop_
_geom_bond_atom_site_label_1
_geom_bond_atom_site_label_2
_geom_bond_distance
_geom_bond_site_symmetry_2
_ccdc_geom_bond_type
Zn0 O3 2.031 . S
Zn0 O5 2.049 . S
Zn0 O10 2.067 . S
Zn1 O2 1.962 . S
Zn1 O4 1.986 . S
Zn1 O6 1.996 . S
Zn1 O9 1.943 . S
O2 Zn1 1.962 . S
O2 C7 1.254 . S
O3 Zn0 2.031 . S
O3 C7 1.269 . S
O4 Zn1 1.986 . S
O4 C11 1.262 . S
O5 Zn0 2.049 . S
O5 C13 1.260 . S
O6 Zn1 1.996 . S
O6 C13 1.257 . S
C7 O2 1.254 . S
C7 O3 1.269 . S
C8 O9 1.249 . S
C8 O10 1.270 . S
O9 Zn1 1.943 . S
O9 C8 1.249 . S
O10 Zn0 2.067 . S
O10 C8 1.270 . S
C11 O4 1.262 . S
C11 O12 1.232 . S
O12 C11 1.232 . S
C13 O5 1.260 . S
C13 O6 1.257 . S
Zn14 O17 2.031 . S
Zn14 O19 2.049 . S
Zn14 O24 2.067 . S
Zn15 O16 1.962 . S
Zn15 O18 1.986 . S
Zn15 O20 1.996 . S
Zn15 O23 1.943 . S
O16 Zn15 1.962 . S
O16 C21 1.254 . S
O17 Zn14 2.031 . S
O17 C21 1.269 . S
O18 Zn15 1.986 . S
O18 C25 1.262 . S
O19 Zn14 2.049 . S
O19 C27 1.260 . S
O20 Zn15 1.996 . S
O20 C27 1.257 . S
C21 O16 1.254 . S
C21 O17 1.269 . S
C22 O23 1.249 . S
C22 O24 1.270 . S
O23 Zn15 1.943 . S
O23 C22 1.249 . S
O24 Zn14 2.067 . S
O24 C22 1.270 . S
C25 O18 1.262 . S
C25 O26 1.232 . S
O26 C25 1.232 . S
C27 O19 1.260 . S
C27 O20 1.257 . S
Zn28 O31 2.031 . S
Zn28 O33 2.049 . S
Zn28 O38 2.067 . S
Zn29 O30 1.962 . S
Zn29 O32 1.986 . S
Zn29 O34 1.996 . S
Zn29 O37 1.943 . S
O30 Zn29 1.962 . S
O30 C35 1.254 . S
O31 Zn28 2.031 . S
O31 C35 1.269 . S
O32 Zn29 1.986 . S
O32 C39 1.262 1_655 S
O33 Zn28 2.049 . S
O33 C41 1.260 . S
O34 Zn29 1.996 . S
O34 C41 1.257 . S
C35 O30 1.254 . S
C35 O31 1.269 . S
C36 O37 1.249 . S
C36 O38 1.270 . S
O37 Zn29 1.943 . S
O37 C36 1.249 . S
O38 Zn28 2.067 . S
O38 C36 1.270 . S
C39 O32 1.262 1_455 S
C39 O40 1.232 . S
O40 C39 1.232 . S
C41 O33 1.260 . S
C41 O34 1.257 . S
Zn42 O45 2.031 . S
Zn42 O47 2.049 . S
Zn42 O52 2.067 . S
Zn43 O44 1.962 . S
Zn43 O46 1.986 . S
Zn43 O48 1.996 . S
Zn43 O51 1.943 . S
O44 Zn43 1.962 . S
O44 C49 1.254 . S
O45 Zn42 2.031 . S
O45 C49 1.269 . S
O46 Zn43 1.986 . S
O46 C53 1.262 1_565 S
O47 Zn42 2.049 . S
O47 C55 1.260 . S
O48 Zn43 1.996 . S
O48 C55 1.257 . S
C49 O44 1.254 . S
C49 O45 1.269 . S
C50 O51 1.249 . S
C50 O52 1.270 . S
O51 Zn43 1.943 . S
O51 C50 1.249 . S
O52 Zn42 2.067 . S
O52 C50 1.270 . S
C53 O46 1.262 1_545 S
C53 O54 1.232 . S
O54 C53 1.232 . S
C55 O47 1.260 . S
C55 O48 1.257 . S
Zn56 O59 2.031 . S
Zn56 O61 2.049 . S
Zn56 O66 2.067 . S
Zn57 O58 1.962 . S
Zn57 O60 1.986 . S
Zn57 O62 1.996 . S
Zn57 O65 1.943 . S
O58 Zn57 1.962 . S
O58 C63 1.254 . S
O59 Zn56 2.031 . S
O59 C63 1.269 . S
O60 Zn57 1.986 . S
O60 C67 1.262 . S
O61 Zn56 2.049 . S
O61 C69 1.260 . S
O62 Zn57 1.996 . S
O62 C69 1.257 . S
C63 O58 1.254 . S
C63 O59 1.269 . S
C64 O65 1.249 . S
C64 O66 1.270 . S
O65 Zn57 1.943 . S
O65 C64 1.249 . S
O66 Zn56 2.067 . S
O66 C64 1.270 . S
C67 O60 1.262 . S
C67 O68 1.232 . S
O68 C67 1.232 . S
C69 O61 1.260 . S
C69 O62 1.257 . S
Zn70 O73 2.031 . S
Zn70 O75 2.049 . S
Zn70 O80 2.067 . S
Zn71 O72 1.962 . S
Zn71 O74 1.986 . S
Zn71 O76 1.996 . S
Zn71 O79 1.943 . S
O72 Zn71 1.962 . S
O72 C77 1.254 . S
O73 Zn70 2.031 . S
O73 C77 1.269 . S
O74 Zn71 1.986 . S
O74 C81 1.262 . S
O75 Zn70 2.049 . S
O75 C83 1.260 . S
O76 Zn71 1.996 . S
O76 C83 1.257 . S
C77 O72 1.254 . S
C77 O73 1.269 . S
C78 O79 1.249 . S
C78 O80 1.270 . S
O79 Zn71 1.943 . S
O79 C78 1.249 . S
O80 Zn70 2.067 . S
O80 C78 1.270 . S
C81 O74 1.262 . S
C81 O82 1.232 . S
O82 C81 1.232 . S
C83 O75 1.260 . S
C83 O76 1.257 . S
Zn84 O87 2.031 . S
Zn84 O89 2.049 . S
Zn84 O94 2.067 . S
Zn85 O86 1.962 . S
Zn85 O88 1.986 . S
Zn85 O90 1.996 . S
Zn85 O93 1.943 . S
O86 Zn85 1.962 . S
O86 C91 1.254 . S
O87 Zn84 2.031 . S
O87 C91 1.269 . S
O88 Zn85 1.986 . S
O88 C95 1.262 1_655 S
O89 Zn84 2.049 . S
O89 C97 1.260 . S
O90 Zn85 1.996 . S
O90 C97 1.257 . S
C91 O86 1.254 . S
C91 O87 1.269 . S
C92 O93 1.249 . S
C92 O94 1.270 . S
O93 Zn85 1.943 . S
O93 C92 1.249 . S
O94 Zn84 2.067 . S
O94 C92 1.270 . S
C95 O88 1.262 1_455 S
C95 O96 1.232 . S
O96 C95 1.232 . S
C97 O89 1.260 . S
C97 O90 1.257 . S
Zn98 O101 2.031 . S
Zn98 O103 2.049 . S
Zn98 O108 2.067 . S
Zn99 O100 1.962 . S
Zn99 O102 1.986 . S
Zn99 O104 1.996 . S
Zn99 O107 1.943 . S
O100 Zn99 1.962 . S
O100 C105 1.254 . S
O101 Zn98 2.031 . S
O101 C105 1.269 . S
O102 Zn99 1.986 . S
O102 C109 1.262 1_565 S
O103 Zn98 2.049 . S
O103 C111 1.260 . S
O104 Zn99 1.996 . S
O104 C111 1.257 . S
C105 O100 1.254 . S
C105 O101 1.269 . S
C106 O107 1.249 . S
C106 O108 1.270 . S
O107 Zn99 1.943 . S
O107 C106 1.249 . S
O108 Zn98 2.067 . S
O108 C106 1.270 . S
C109 O102 1.262 1_545 S
C109 O110 1.232 . S
O110 C109 1.232 . S
C111 O103 1.260 . S
C111 O104 1.257 . S
Zn112 O115 2.031 . S
Zn112 O117 2.049 . S
Zn112 O122 2.067 . S
Zn113 O114 1.962 . S
Zn113 O116 1.986 . S
Zn113 O118 1.996 . S
Zn113 O121 1.943 . S
O114 Zn113 1.962 . S
O114 C119 1.254 . S
O115 Zn112 2.031 . S
O115 C119 1.269 . S
O116 Zn113 1.986 . S
O116 C123 1.262 . S
O117 Zn112 2.049 . S
O117 C125 1.260 . S
O118 Zn113 1.996 . S
O118 C125 1.257 . S
C119 O114 1.254 . S
C119 O115 1.269 . S
C120 O121 1.249 . S
C120 O122 1.270 . S
O121 Zn113 1.943 . S
O121 C120 1.249 . S
O122 Zn112 2.067 . S
O122 C120 1.270 . S
C123 O116 1.262 . S
C123 O124 1.232 . S
O124 C123 1.232 . S
C125 O117 1.260 . S
C125 O118 1.257 . S
Zn126 O129 2.031 . S
Zn126 O131 2.049 . S
Zn126 O136 2.067 . S
Zn127 O128 1.962 . S
Zn127 O130 1.986 . S
Zn127 O132 1.996 . S
Zn127 O135 1.943 . S
O128 Zn127 1.962 . S
O128 C133 1.254 . S
O129 Zn126 2.031 . S
O129 C133 1.269 . S
O130 Zn127 1.986 . S
O130 C137 1.262 . S
O131 Zn126 2.049 . S
O131 C139 1.260 . S
O132 Zn127 1.996 . S
O132 C139 1.257 . S
C133 O128 1.254 . S
C133 O129 1.269 . S
C134 O135 1.249 . S
C134 O136 1.270 . S
O135 Zn127 1.943 . S
O135 C134 1.249 . S
O136 Zn126 2.067 . S
O136 C134 1.270 . S
C137 O130 1.262 . S
C137 O138 1.232 . S
O138 C137 1.232 . S
C139 O131 1.260 . S
C139 O132 1.257 . S
Zn140 O143 2.031 . S
Zn140 O145 2.049 . S
Zn140 O150 2.067 . S
Zn141 O142 1.962 . S
Zn141 O144 1.986 . S
Zn141 O146 1.996 . S
Zn141 O149 1.943 . S
O142 Zn141 1.962 . S
O142 C147 1.254 . S
O143 Zn140 2.031 . S
O143 C147 1.269 . S
O144 Zn141 1.986 . S
O144 C151 1.262 1_455 S
O145 Zn140 2.049 . S
O145 C153 1.260 . S
O146 Zn141 1.996 . S
O146 C153 1.257 . S
C147 O142 1.254 . S
C147 O143 1.269 . S
C148 O149 1.249 . S
C148 O150 1.270 . S
O149 Zn141 1.943 . S
O149 C148 1.249 . S
O150 Zn140 2.067 . S
O150 C148 1.270 . S
C151 O144 1.262 1_655 S
C151 O152 1.232 . S
O152 C151 1.232 . S
C153 O145 1.260 . S
C153 O146 1.257 . S
Zn154 O157 2.031 . S
Zn154 O159 2.049 . S
Zn154 O164 2.067 . S
Zn155 O156 1.962 . S
Zn155 O158 1.986 . S
Zn155 O160 1.996 . S
Zn155 O163 1.943 . S
O156 Zn155 1.962 . S
O156 C161 1.254 . S
O157 Zn154 2.031 . S
O157 C161 1.269 . S
O158 Zn155 1.986 . S
O158 C165 1.262 1_545 S
O159 Zn154 2.049 . S
O159 C167 1.260 . S
O160 Zn155 1.996 . S
O160 C167 1.257 . S
C161 O156 1.254 . S
C161 O157 1.269 . S
C162 O163 1.249 . S
C162 O164 1.270 . S
O163 Zn155 1.943 . S
O163 C162 1.249 . S
O164 Zn154 2.067 . S
O164 C162 1.270 . S
C165 O158 1.262 1_565 S
C165 O166 1.232 . S
O166 C165 1.232 . S
C167 O159 1.260 . S
C167 O160 1.257 . S
Zn168 O171 2.031 . S
Zn168 O173 2.049 . S
Zn168 O178 2.067 . S
Zn169 O170 1.962 . S
Zn169 O172 1.986 . S
Zn169 O174 1.996 . S
Zn169 O177 1.943 . S
O170 Zn169 1.962 . S
O170 C175 1.254 . S
O171 Zn168 2.031 . S
O171 C175 1.269 . S
O172 Zn169 1.986 . S
O172 C179 1.262 . S
O173 Zn168 2.049 . S
O173 C181 1.260 . S
O174 Zn169 1.996 . S
O174 C181 1.257 . S
C175 O170 1.254 . S
C175 O171 1.269 . S
C176 O177 1.249 . S
C176 O178 1.270 . S
O177 Zn169 1.943 . S
O177 C176 1.249 . S
O178 Zn168 2.067 . S
O178 C176 1.270 . S
C179 O172 1.262 . S
C179 O180 1.232 . S
O180 C179 1.232 . S
C181 O173 1.260 . S
C181 O174 1.257 . S
Zn182 O185 2.031 . S
Zn182 O187 2.049 . S
Zn182 O192 2.067 . S
Zn183 O184 1.962 . S
Zn183 O186 1.986 . S
Zn183 O188 1.996 . S
Zn183 O191 1.943 . S
O184 Zn183 1.962 . S
O184 C189 1.254 . S
O185 Zn182 2.031 . S
O185 C189 1.269 . S
O186 Zn183 1.986 . S
O186 C193 1.262 . S
O187 Zn182 2.049 . S
O187 C195 1.260 . S
O188 Zn183 1.996 . S
O188 C195 1.257 . S
C189 O184 1.254 . S
C189 O185 1.269 . S
C190 O191 1.249 . S
C190 O192 1.270 . S
O191 Zn183 1.943 . S
O191 C190 1.249 . S
O192 Zn182 2.067 . S
O192 C190 1.270 . S
C193 O186 1.262 . S
C193 O194 1.232 . S
O194 C193 1.232 . S
C195 O187 1.260 . S
C195 O188 1.257 . S
Zn196 O199 2.031 . S
Zn196 O201 2.049 . S
Zn196 O206 2.067 . S
Zn197 O198 1.962 . S
Zn197 O200 1.986 . S
Zn197 O202 1.996 . S
Zn197 O205 1.943 . S
O198 Zn197 1.962 . S
O198 C203 1.254 . S
O199 Zn196 2.031 . S
O199 C203 1.269 . S
O200 Zn197 1.986 . S
O200 C207 1.262 1_455 S
O201 Zn196 2.049 . S
O201 C209 1.260 . S
O202 Zn197 1.996 . S
O202 C209 1.257 . S
C203 O198 1.254 . S
C203 O199 1.269 . S
C204 O205 1.249 . S
C204 O206 1.270 . S
O205 Zn197 1.943 . S
O205 C204 1.249 . S
O206 Zn196 2.067 . S
O206 C204 1.270 . S
C207 O200 1.262 1_655 S
C207 O208 1.232 . S
O208 C207 1.232 . S
C209 O201 1.260 . S
C209 O202 1.257 . S
Zn210 O213 2.031 . S
Zn210 O215 2.049 . S
Zn210 O220 2.067 . S
Zn211 O212 1.962 . S
Zn211 O214 1.986 . S
Zn211 O216 1.996 . S
Zn211 O219 1.943 . S
O212 Zn211 1.962 . S
O212 C217 1.254 . S
O213 Zn210 2.031 . S
O213 C217 1.269 . S
O214 Zn211 1.986 . S
O214 C221 1.262 1_545 S
O215 Zn210 2.049 . S
O215 C223 1.260 . S
O216 Zn211 1.996 . S
O216 C223 1.257 . S
C217 O212 1.254 . S
C217 O213 1.269 . S
C218 O219 1.249 . S
C218 O220 1.270 . S
O219 Zn211 1.943 . S
O219 C218 1.249 . S
O220 Zn210 2.067 . S
O220 C218 1.270 . S
C221 O214 1.262 1_565 S
C221 O222 1.232 . S
O222 C221 1.232 . S
C223 O215 1.260 . S
C223 O216 1.257 . S
H224 C232 0.929 . S
H225 C234 0.930 . S
H226 C236 0.930 . S
H227 C239 0.929 . S
H228 C242 0.930 . S
H229 C244 0.960 . S
H230 C244 0.960 . S
H231 C244 0.960 . S
C232 H224 0.929 . S
C232 C233 1.377 . S
C232 C234 1.384 . S
C233 C232 1.377 . S
C233 C239 1.390 . S
C234 H225 0.930 . S
C234 C232 1.384 . S
C234 C235 1.372 . S
C235 C234 1.372 . S
C235 C236 1.400 . S
C235 C240 1.490 . S
C236 H226 0.930 . S
C236 C235 1.400 . S
C236 C239 1.386 . S
H237 C253 0.930 . S
H238 C254 0.931 . S
C239 H227 0.929 . S
C239 C233 1.390 . S
C239 C236 1.386 . S
C240 C235 1.490 . S
C240 C242 1.395 . S
C240 C243 1.403 . S
H241 C247 0.930 . S
C242 H228 0.930 . S
C242 C240 1.395 . S
C242 C245 1.403 . S
C243 C240 1.403 . S
C243 C244 1.524 . S
C243 C247 1.400 . S
C244 H229 0.960 . S
C244 H230 0.960 . S
C244 H231 0.960 . S
C244 C243 1.524 . S
C245 C242 1.403 . S
C245 C246 1.392 . S
C245 C249 1.495 . S
C246 C245 1.392 . S
C246 C247 1.385 . S
C246 C248 1.478 . S
C247 H241 0.930 . S
C247 C243 1.400 . S
C247 C246 1.385 . S
C248 C246 1.478 . S
C248 C250 1.381 . S
C248 C254 1.383 . S
C249 C245 1.495 . S
C249 H255 0.959 . S
C249 H256 0.961 . S
C249 H257 0.960 . S
C250 C248 1.381 . S
C250 C251 1.394 . S
C250 H258 0.930 . S
C251 C250 1.394 . S
C251 C252 1.383 . S
C251 H259 0.929 1_545 S
C252 C251 1.383 . S
C252 C253 1.377 . S
C253 H237 0.930 . S
C253 C252 1.377 . S
C253 C254 1.379 . S
C254 H238 0.931 . S
C254 C248 1.383 . S
C254 C253 1.379 . S
H255 C249 0.959 . S
H256 C249 0.961 . S
H257 C249 0.960 . S
H258 C250 0.930 . S
H259 C251 0.929 1_565 S
H260 C268 0.929 . S
H261 C270 0.930 . S
H262 C272 0.930 . S
H263 C275 0.929 . S
H264 C278 0.930 . S
H265 C280 0.960 . S
H266 C280 0.960 . S
H267 C280 0.960 . S
C268 H260 0.929 . S
C268 C269 1.377 . S
C268 C270 1.384 . S
C269 C268 1.377 . S
C269 C275 1.390 . S
C270 H261 0.930 . S
C270 C268 1.384 . S
C270 C271 1.372 . S
C271 C270 1.372 . S
C271 C272 1.400 . S
C271 C276 1.490 . S
C272 H262 0.930 . S
C272 C271 1.400 . S
C272 C275 1.386 . S
H273 C289 0.930 . S
H274 C290 0.931 . S
C275 H263 0.929 . S
C275 C269 1.390 . S
C275 C272 1.386 . S
C276 C271 1.490 . S
C276 C278 1.395 . S
C276 C279 1.403 . S
H277 C283 0.930 . S
C278 H264 0.930 . S
C278 C276 1.395 . S
C278 C281 1.403 . S
C279 C276 1.403 . S
C279 C280 1.524 . S
C279 C283 1.400 . S
C280 H265 0.960 . S
C280 H266 0.960 . S
C280 H267 0.960 . S
C280 C279 1.524 . S
C281 C278 1.403 . S
C281 C282 1.392 . S
C281 C285 1.495 . S
C282 C281 1.392 . S
C282 C283 1.385 . S
C282 C284 1.478 . S
C283 H277 0.930 . S
C283 C279 1.400 . S
C283 C282 1.385 . S
C284 C282 1.478 . S
C284 C286 1.381 . S
C284 C290 1.383 . S
C285 C281 1.495 . S
C285 H291 0.959 . S
C285 H292 0.961 . S
C285 H293 0.960 . S
C286 C284 1.381 . S
C286 C287 1.394 . S
C286 H294 0.930 . S
C287 C286 1.394 . S
C287 C288 1.383 . S
C287 H295 0.929 . S
C288 C287 1.383 . S
C288 C289 1.377 . S
C289 H273 0.930 . S
C289 C288 1.377 . S
C289 C290 1.379 . S
C290 H274 0.931 . S
C290 C284 1.383 . S
C290 C289 1.379 . S
H291 C285 0.959 . S
H292 C285 0.961 . S
H293 C285 0.960 . S
H294 C286 0.930 . S
H295 C287 0.929 . S
H296 C304 0.929 . S
H297 C306 0.930 . S
H298 C308 0.930 . S
H299 C311 0.929 . S
H300 C314 0.930 . S
H301 C316 0.960 . S
H302 C316 0.960 . S
H303 C316 0.960 . S
C304 H296 0.929 . S
C304 C305 1.377 . S
C304 C306 1.384 . S
C305 C304 1.377 . S
C305 C311 1.390 . S
C306 H297 0.930 . S
C306 C304 1.384 . S
C306 C307 1.372 . S
C307 C306 1.372 . S
C307 C308 1.400 . S
C307 C312 1.490 . S
C308 H298 0.930 . S
C308 C307 1.400 . S
C308 C311 1.386 . S
H309 C325 0.930 . S
H310 C326 0.931 . S
C311 H299 0.929 . S
C311 C305 1.390 . S
C311 C308 1.386 . S
C312 C307 1.490 . S
C312 C314 1.395 . S
C312 C315 1.403 . S
H313 C319 0.930 . S
C314 H300 0.930 . S
C314 C312 1.395 . S
C314 C317 1.403 . S
C315 C312 1.403 . S
C315 C316 1.524 . S
C315 C319 1.400 . S
C316 H301 0.960 . S
C316 H302 0.960 . S
C316 H303 0.960 . S
C316 C315 1.524 . S
C317 C314 1.403 . S
C317 C318 1.392 . S
C317 C321 1.495 . S
C318 C317 1.392 . S
C318 C319 1.385 . S
C318 C320 1.478 . S
C319 H313 0.930 . S
C319 C315 1.400 . S
C319 C318 1.385 . S
C320 C318 1.478 . S
C320 C322 1.381 . S
C320 C326 1.383 . S
C321 C317 1.495 . S
C321 H327 0.959 . S
C321 H328 0.961 . S
C321 H329 0.960 . S
C322 C320 1.381 . S
C322 C323 1.394 . S
C322 H330 0.930 . S
C323 C322 1.394 . S
C323 C324 1.383 . S
C323 H331 0.929 . S
C324 C323 1.383 . S
C324 C325 1.377 . S
C325 H309 0.930 . S
C325 C324 1.377 . S
C325 C326 1.379 . S
C326 H310 0.931 . S
C326 C320 1.383 . S
C326 C325 1.379 . S
H327 C321 0.959 . S
H328 C321 0.961 . S
H329 C321 0.960 . S
H330 C322 0.930 . S
H331 C323 0.929 . S
H332 C340 0.929 . S
H333 C342 0.930 . S
H334 C344 0.930 . S
H335 C347 0.929 . S
H336 C350 0.930 . S
H337 C352 0.960 . S
H338 C352 0.960 . S
H339 C352 0.960 . S
C340 H332 0.929 . S
C340 C341 1.377 . S
C340 C342 1.384 . S
C341 C340 1.377 . S
C341 C347 1.390 . S
C342 H333 0.930 . S
C342 C340 1.384 . S
C342 C343 1.372 . S
C343 C342 1.372 . S
C343 C344 1.400 . S
C343 C348 1.490 . S
C344 H334 0.930 . S
C344 C343 1.400 . S
C344 C347 1.386 . S
H345 C361 0.930 . S
H346 C362 0.931 . S
C347 H335 0.929 . S
C347 C341 1.390 . S
C347 C344 1.386 . S
C348 C343 1.490 . S
C348 C350 1.395 . S
C348 C351 1.403 . S
H349 C355 0.930 . S
C350 H336 0.930 . S
C350 C348 1.395 . S
C350 C353 1.403 . S
C351 C348 1.403 . S
C351 C352 1.524 . S
C351 C355 1.400 . S
C352 H337 0.960 . S
C352 H338 0.960 . S
C352 H339 0.960 . S
C352 C351 1.524 . S
C353 C350 1.403 . S
C353 C354 1.392 . S
C353 C357 1.495 . S
C354 C353 1.392 . S
C354 C355 1.385 . S
C354 C356 1.478 . S
C355 H349 0.930 . S
C355 C351 1.400 . S
C355 C354 1.385 . S
C356 C354 1.478 . S
C356 C358 1.381 . S
C356 C362 1.383 . S
C357 C353 1.495 . S
C357 H363 0.959 . S
C357 H364 0.961 . S
C357 H365 0.960 . S
C358 C356 1.381 . S
C358 C359 1.394 . S
C358 H366 0.930 . S
C359 C358 1.394 . S
C359 C360 1.383 . S
C359 H367 0.929 . S
C360 C359 1.383 . S
C360 C361 1.377 . S
C361 H345 0.930 . S
C361 C360 1.377 . S
C361 C362 1.379 . S
C362 H346 0.931 . S
C362 C356 1.383 . S
C362 C361 1.379 . S
H363 C357 0.959 . S
H364 C357 0.961 . S
H365 C357 0.960 . S
H366 C358 0.930 . S
H367 C359 0.929 . S
H368 C376 0.929 . S
H369 C378 0.930 . S
H370 C380 0.930 . S
H371 C383 0.929 . S
H372 C386 0.930 . S
H373 C388 0.960 . S
H374 C388 0.960 . S
H375 C388 0.960 . S
C376 H368 0.929 . S
C376 C377 1.377 . S
C376 C378 1.384 . S
C377 C376 1.377 . S
C377 C383 1.390 . S
C378 H369 0.930 . S
C378 C376 1.384 . S
C378 C379 1.372 . S
C379 C378 1.372 . S
C379 C380 1.400 . S
C379 C384 1.490 . S
C380 H370 0.930 . S
C380 C379 1.400 . S
C380 C383 1.386 . S
H381 C397 0.930 . S
H382 C398 0.931 . S
C383 H371 0.929 . S
C383 C377 1.390 . S
C383 C380 1.386 . S
C384 C379 1.490 . S
C384 C386 1.395 . S
C384 C387 1.403 . S
H385 C391 0.930 . S
C386 H372 0.930 . S
C386 C384 1.395 . S
C386 C389 1.403 . S
C387 C384 1.403 . S
C387 C388 1.524 . S
C387 C391 1.400 . S
C388 H373 0.960 . S
C388 H374 0.960 . S
C388 H375 0.960 . S
C388 C387 1.524 . S
C389 C386 1.403 . S
C389 C390 1.392 . S
C389 C393 1.495 . S
C390 C389 1.392 . S
C390 C391 1.385 . S
C390 C392 1.478 . S
C391 H385 0.930 . S
C391 C387 1.400 . S
C391 C390 1.385 . S
C392 C390 1.478 . S
C392 C394 1.381 . S
C392 C398 1.383 . S
C393 C389 1.495 . S
C393 H399 0.959 . S
C393 H400 0.961 . S
C393 H401 0.960 . S
C394 C392 1.381 . S
C394 C395 1.394 . S
C394 H402 0.930 . S
C395 C394 1.394 . S
C395 C396 1.383 . S
C395 H403 0.929 . S
C396 C395 1.383 . S
C396 C397 1.377 . S
C397 H381 0.930 . S
C397 C396 1.377 . S
C397 C398 1.379 . S
C398 H382 0.931 . S
C398 C392 1.383 . S
C398 C397 1.379 . S
H399 C393 0.959 . S
H400 C393 0.961 . S
H401 C393 0.960 . S
H402 C394 0.930 . S
H403 C395 0.929 . S
H404 C412 0.929 . S
H405 C414 0.930 . S
H406 C416 0.930 . S
H407 C419 0.929 . S
H408 C422 0.930 . S
H409 C424 0.960 . S
H410 C424 0.960 . S
H411 C424 0.960 . S
C412 H404 0.929 . S
C412 C413 1.377 . S
C412 C414 1.384 . S
C413 C412 1.377 . S
C413 C419 1.390 . S
C414 H405 0.930 . S
C414 C412 1.384 . S
C414 C415 1.372 . S
C415 C414 1.372 . S
C415 C416 1.400 . S
C415 C420 1.490 . S
C416 H406 0.930 . S
C416 C415 1.400 . S
C416 C419 1.386 . S
H417 C433 0.930 . S
H418 C434 0.931 . S
C419 H407 0.929 . S
C419 C413 1.390 . S
C419 C416 1.386 . S
C420 C415 1.490 . S
C420 C422 1.395 . S
C420 C423 1.403 . S
H421 C427 0.930 . S
C422 H408 0.930 . S
C422 C420 1.395 . S
C422 C425 1.403 . S
C423 C420 1.403 . S
C423 C424 1.524 . S
C423 C427 1.400 . S
C424 H409 0.960 . S
C424 H410 0.960 . S
C424 H411 0.960 . S
C424 C423 1.524 . S
C425 C422 1.403 . S
C425 C426 1.392 . S
C425 C429 1.495 . S
C426 C425 1.392 . S
C426 C427 1.385 . S
C426 C428 1.478 . S
C427 H421 0.930 . S
C427 C423 1.400 . S
C427 C426 1.385 . S
C428 C426 1.478 . S
C428 C430 1.381 . S
C428 C434 1.383 . S
C429 C425 1.495 . S
C429 H435 0.959 . S
C429 H436 0.961 . S
C429 H437 0.960 . S
C430 C428 1.381 . S
C430 C431 1.394 . S
C430 H438 0.930 . S
C431 C430 1.394 . S
C431 C432 1.383 . S
C431 H439 0.929 . S
C432 C431 1.383 . S
C432 C433 1.377 . S
C433 H417 0.930 . S
C433 C432 1.377 . S
C433 C434 1.379 . S
C434 H418 0.931 . S
C434 C428 1.383 . S
C434 C433 1.379 . S
H435 C429 0.959 . S
H436 C429 0.961 . S
H437 C429 0.960 . S
H438 C430 0.930 . S
H439 C431 0.929 . S
H440 C448 0.929 1_455 S
H441 C450 0.930 . S
H442 C452 0.930 . S
H443 C455 0.929 . S
H444 C458 0.930 . S
H445 C460 0.960 . S
H446 C460 0.960 . S
H447 C460 0.960 . S
C448 H440 0.929 1_655 S
C448 C449 1.377 . S
C448 C450 1.384 . S
C449 C448 1.377 . S
C449 C455 1.390 . S
C450 H441 0.930 . S
C450 C448 1.384 . S
C450 C451 1.372 . S
C451 C450 1.372 . S
C451 C452 1.400 . S
C451 C456 1.490 . S
C452 H442 0.930 . S
C452 C451 1.400 . S
C452 C455 1.386 . S
H453 C469 0.930 . S
H454 C470 0.931 . S
C455 H443 0.929 . S
C455 C449 1.390 . S
C455 C452 1.386 . S
C456 C451 1.490 . S
C456 C458 1.395 . S
C456 C459 1.403 . S
H457 C463 0.930 . S
C458 H444 0.930 . S
C458 C456 1.395 . S
C458 C461 1.403 . S
C459 C456 1.403 . S
C459 C460 1.524 . S
C459 C463 1.400 . S
C460 H445 0.960 . S
C460 H446 0.960 . S
C460 H447 0.960 . S
C460 C459 1.524 . S
C461 C458 1.403 . S
C461 C462 1.392 . S
C461 C465 1.495 . S
C462 C461 1.392 . S
C462 C463 1.385 . S
C462 C464 1.478 . S
C463 H457 0.930 . S
C463 C459 1.400 . S
C463 C462 1.385 . S
C464 C462 1.478 . S
C464 C466 1.381 . S
C464 C470 1.383 . S
C465 C461 1.495 . S
C465 H471 0.959 . S
C465 H472 0.961 . S
C465 H473 0.960 . S
C466 C464 1.381 . S
C466 C467 1.394 . S
C466 H474 0.930 . S
C467 C466 1.394 . S
C467 C468 1.383 . S
C467 H475 0.929 . S
C468 C467 1.383 . S
C468 C469 1.377 . S
C469 H453 0.930 . S
C469 C468 1.377 . S
C469 C470 1.379 . S
C470 H454 0.931 . S
C470 C464 1.383 . S
C470 C469 1.379 . S
H471 C465 0.959 . S
H472 C465 0.961 . S
H473 C465 0.960 . S
H474 C466 0.930 . S
H475 C467 0.929 . S
H476 C484 0.929 . S
H477 C486 0.930 . S
H478 C488 0.930 . S
H479 C491 0.929 . S
H480 C494 0.930 . S
H481 C496 0.960 . S
H482 C496 0.960 . S
H483 C496 0.960 . S
C484 H476 0.929 . S
C484 C485 1.377 . S
C484 C486 1.384 . S
C485 C484 1.377 . S
C485 C491 1.390 . S
C486 H477 0.930 . S
C486 C484 1.384 . S
C486 C487 1.372 . S
C487 C486 1.372 . S
C487 C488 1.400 . S
C487 C492 1.490 . S
C488 H478 0.930 . S
C488 C487 1.400 . S
C488 C491 1.386 . S
H489 C505 0.930 . S
H490 C506 0.931 . S
C491 H479 0.929 . S
C491 C485 1.390 . S
C491 C488 1.386 . S
C492 C487 1.490 . S
C492 C494 1.395 . S
C492 C495 1.403 . S
H493 C499 0.930 . S
C494 H480 0.930 . S
C494 C492 1.395 . S
C494 C497 1.403 . S
C495 C492 1.403 . S
C495 C496 1.524 . S
C495 C499 1.400 . S
C496 H481 0.960 . S
C496 H482 0.960 . S
C496 H483 0.960 . S
C496 C495 1.524 . S
C497 C494 1.403 . S
C497 C498 1.392 . S
C497 C501 1.495 . S
C498 C497 1.392 . S
C498 C499 1.385 . S
C498 C500 1.478 . S
C499 H493 0.930 . S
C499 C495 1.400 . S
C499 C498 1.385 . S
C500 C498 1.478 . S
C500 C502 1.381 . S
C500 C506 1.383 . S
C501 C497 1.495 . S
C501 H507 0.959 . S
C501 H508 0.961 . S
C501 H509 0.960 . S
C502 C500 1.381 . S
C502 C503 1.394 . S
C502 H510 0.930 . S
C503 C502 1.394 . S
C503 C504 1.383 . S
C503 H511 0.929 . S
C504 C503 1.383 . S
C504 C505 1.377 . S
C505 H489 0.930 . S
C505 C504 1.377 . S
C505 C506 1.379 . S
C506 H490 0.931 . S
C506 C500 1.383 . S
C506 C505 1.379 . S
H507 C501 0.959 . S
H508 C501 0.961 . S
H509 C501 0.960 . S
H510 C502 0.930 . S
H511 C503 0.929 . S
H512 C520 0.929 . S
H513 C522 0.930 . S
H514 C524 0.930 . S
H515 C527 0.929 . S
H516 C530 0.930 . S
H517 C532 0.960 . S
H518 C532 0.960 . S
H519 C532 0.960 . S
C520 H512 0.929 . S
C520 C521 1.377 . S
C520 C522 1.384 . S
C521 C520 1.377 . S
C521 C527 1.390 . S
C522 H513 0.930 . S
C522 C520 1.384 . S
C522 C523 1.372 . S
C523 C522 1.372 . S
C523 C524 1.400 . S
C523 C528 1.490 . S
C524 H514 0.930 . S
C524 C523 1.400 . S
C524 C527 1.386 . S
H525 C541 0.930 . S
H526 C542 0.931 . S
C527 H515 0.929 . S
C527 C521 1.390 . S
C527 C524 1.386 . S
C528 C523 1.490 . S
C528 C530 1.395 . S
C528 C531 1.403 . S
H529 C535 0.930 . S
C530 H516 0.930 . S
C530 C528 1.395 . S
C530 C533 1.403 . S
C531 C528 1.403 . S
C531 C532 1.524 . S
C531 C535 1.400 . S
C532 H517 0.960 . S
C532 H518 0.960 . S
C532 H519 0.960 . S
C532 C531 1.524 . S
C533 C530 1.403 . S
C533 C534 1.392 . S
C533 C537 1.495 . S
C534 C533 1.392 . S
C534 C535 1.385 . S
C534 C536 1.478 . S
C535 H529 0.930 . S
C535 C531 1.400 . S
C535 C534 1.385 . S
C536 C534 1.478 . S
C536 C538 1.381 . S
C536 C542 1.383 . S
C537 C533 1.495 . S
C537 H543 0.959 . S
C537 H544 0.961 . S
C537 H545 0.960 . S
C538 C536 1.381 . S
C538 C539 1.394 . S
C538 H546 0.930 . S
C539 C538 1.394 . S
C539 C540 1.383 . S
C539 H547 0.929 . S
C540 C539 1.383 . S
C540 C541 1.377 . S
C541 H525 0.930 . S
C541 C540 1.377 . S
C541 C542 1.379 . S
C542 H526 0.931 . S
C542 C536 1.383 . S
C542 C541 1.379 . S
H543 C537 0.959 . S
H544 C537 0.961 . S
H545 C537 0.960 . S
H546 C538 0.930 . S
H547 C539 0.929 . S
H548 C556 0.929 . S
H549 C558 0.930 . S
H550 C560 0.930 . S
H551 C563 0.929 . S
H552 C566 0.930 . S
H553 C568 0.960 . S
H554 C568 0.960 . S
H555 C568 0.960 . S
C556 H548 0.929 . S
C556 C557 1.377 . S
C556 C558 1.384 . S
C557 C556 1.377 . S
C557 C563 1.390 . S
C558 H549 0.930 . S
C558 C556 1.384 . S
C558 C559 1.372 . S
C559 C558 1.372 . S
C559 C560 1.400 . S
C559 C564 1.490 . S
C560 H550 0.930 . S
C560 C559 1.400 . S
C560 C563 1.386 . S
H561 C577 0.930 . S
H562 C578 0.931 . S
C563 H551 0.929 . S
C563 C557 1.390 . S
C563 C560 1.386 . S
C564 C559 1.490 . S
C564 C566 1.395 . S
C564 C567 1.403 . S
H565 C571 0.930 . S
C566 H552 0.930 . S
C566 C564 1.395 . S
C566 C569 1.403 . S
C567 C564 1.403 . S
C567 C568 1.524 . S
C567 C571 1.400 . S
C568 H553 0.960 . S
C568 H554 0.960 . S
C568 H555 0.960 . S
C568 C567 1.524 . S
C569 C566 1.403 . S
C569 C570 1.392 . S
C569 C573 1.495 . S
C570 C569 1.392 . S
C570 C571 1.385 . S
C570 C572 1.478 . S
C571 H565 0.930 . S
C571 C567 1.400 . S
C571 C570 1.385 . S
C572 C570 1.478 . S
C572 C574 1.381 . S
C572 C578 1.383 . S
C573 C569 1.495 . S
C573 H579 0.959 . S
C573 H580 0.961 . S
C573 H581 0.960 . S
C574 C572 1.381 . S
C574 C575 1.394 . S
C574 H582 0.930 . S
C575 C574 1.394 . S
C575 C576 1.383 . S
C575 H583 0.929 . S
C576 C575 1.383 . S
C576 C577 1.377 . S
C577 H561 0.930 . S
C577 C576 1.377 . S
C577 C578 1.379 . S
C578 H562 0.931 . S
C578 C572 1.383 . S
C578 C577 1.379 . S
H579 C573 0.959 . S
H580 C573 0.961 . S
H581 C573 0.960 . S
H582 C574 0.930 . S
H583 C575 0.929 . S
H584 C592 0.929 . S
H585 C594 0.930 . S
H586 C596 0.930 . S
H587 C599 0.929 . S
H588 C602 0.930 . S
H589 C604 0.960 . S
H590 C604 0.960 . S
H591 C604 0.960 . S
C592 H584 0.929 . S
C592 C593 1.377 . S
C592 C594 1.384 . S
C593 C592 1.377 . S
C593 C599 1.390 . S
C594 H585 0.930 . S
C594 C592 1.384 . S
C594 C595 1.372 . S
C595 C594 1.372 . S
C595 C596 1.400 . S
C595 C600 1.490 . S
C596 H586 0.930 . S
C596 C595 1.400 . S
C596 C599 1.386 . S
H597 C613 0.930 . S
H598 C614 0.931 . S
C599 H587 0.929 . S
C599 C593 1.390 . S
C599 C596 1.386 . S
C600 C595 1.490 . S
C600 C602 1.395 . S
C600 C603 1.403 . S
H601 C607 0.930 . S
C602 H588 0.930 . S
C602 C600 1.395 . S
C602 C605 1.403 . S
C603 C600 1.403 . S
C603 C604 1.524 . S
C603 C607 1.400 . S
C604 H589 0.960 . S
C604 H590 0.960 . S
C604 H591 0.960 . S
C604 C603 1.524 . S
C605 C602 1.403 . S
C605 C606 1.392 . S
C605 C609 1.495 . S
C606 C605 1.392 . S
C606 C607 1.385 . S
C606 C608 1.478 . S
C607 H601 0.930 . S
C607 C603 1.400 . S
C607 C606 1.385 . S
C608 C606 1.478 . S
C608 C610 1.381 . S
C608 C614 1.383 . S
C609 C605 1.495 . S
C609 H615 0.959 . S
C609 H616 0.961 . S
C609 H617 0.960 . S
C610 C608 1.381 . S
C610 C611 1.394 . S
C610 H618 0.930 . S
C611 C610 1.394 . S
C611 C612 1.383 . S
C611 H619 0.929 . S
C612 C611 1.383 . S
C612 C613 1.377 . S
C613 H597 0.930 . S
C613 C612 1.377 . S
C613 C614 1.379 . S
C614 H598 0.931 . S
C614 C608 1.383 . S
C614 C613 1.379 . S
H615 C609 0.959 . S
H616 C609 0.961 . S
H617 C609 0.960 . S
H618 C610 0.930 . S
H619 C611 0.929 . S
H620 C628 0.929 . S
H621 C630 0.930 . S
H622 C632 0.930 . S
H623 C635 0.929 . S
H624 C638 0.930 . S
H625 C640 0.960 . S
H626 C640 0.960 . S
H627 C640 0.960 . S
C628 H620 0.929 . S
C628 C629 1.377 . S
C628 C630 1.384 . S
C629 C628 1.377 . S
C629 C635 1.390 . S
C630 H621 0.930 . S
C630 C628 1.384 . S
C630 C631 1.372 . S
C631 C630 1.372 . S
C631 C632 1.400 . S
C631 C636 1.490 . S
C632 H622 0.930 . S
C632 C631 1.400 . S
C632 C635 1.386 . S
H633 C649 0.930 . S
H634 C650 0.931 . S
C635 H623 0.929 . S
C635 C629 1.390 . S
C635 C632 1.386 . S
C636 C631 1.490 . S
C636 C638 1.395 . S
C636 C639 1.403 . S
H637 C643 0.930 . S
C638 H624 0.930 . S
C638 C636 1.395 . S
C638 C641 1.403 . S
C639 C636 1.403 . S
C639 C640 1.524 . S
C639 C643 1.400 . S
C640 H625 0.960 . S
C640 H626 0.960 . S
C640 H627 0.960 . S
C640 C639 1.524 . S
C641 C638 1.403 . S
C641 C642 1.392 . S
C641 C645 1.495 . S
C642 C641 1.392 . S
C642 C643 1.385 . S
C642 C644 1.478 . S
C643 H637 0.930 . S
C643 C639 1.400 . S
C643 C642 1.385 . S
C644 C642 1.478 . S
C644 C646 1.381 . S
C644 C650 1.383 . S
C645 C641 1.495 . S
C645 H651 0.959 . S
C645 H652 0.961 . S
C645 H653 0.960 . S
C646 C644 1.381 . S
C646 C647 1.394 . S
C646 H654 0.930 . S
C647 C646 1.394 . S
C647 C648 1.383 . S
C647 H655 0.929 . S
C648 C647 1.383 . S
C648 C649 1.377 . S
C649 H633 0.930 . S
C649 C648 1.377 . S
C649 C650 1.379 . S
C650 H634 0.931 . S
C650 C644 1.383 . S
C650 C649 1.379 . S
H651 C645 0.959 . S
H652 C645 0.961 . S
H653 C645 0.960 . S
H654 C646 0.930 . S
H655 C647 0.929 . S
H656 C664 0.929 . S
H657 C666 0.930 . S
H658 C668 0.930 . S
H659 C671 0.929 . S
H660 C674 0.930 . S
H661 C676 0.960 . S
H662 C676 0.960 . S
H663 C676 0.960 . S
C664 H656 0.929 . S
C664 C665 1.377 . S
C664 C666 1.384 . S
C665 C664 1.377 . S
C665 C671 1.390 . S
C666 H657 0.930 . S
C666 C664 1.384 . S
C666 C667 1.372 . S
C667 C666 1.372 . S
C667 C668 1.400 . S
C667 C672 1.490 . S
C668 H658 0.930 . S
C668 C667 1.400 . S
C668 C671 1.386 . S
H669 C685 0.930 . S
H670 C686 0.931 . S
C671 H659 0.929 . S
C671 C665 1.390 . S
C671 C668 1.386 . S
C672 C667 1.490 . S
C672 C674 1.395 . S
C672 C675 1.403 . S
H673 C679 0.930 . S
C674 H660 0.930 . S
C674 C672 1.395 . S
C674 C677 1.403 . S
C675 C672 1.403 . S
C675 C676 1.524 . S
C675 C679 1.400 . S
C676 H661 0.960 . S
C676 H662 0.960 . S
C676 H663 0.960 . S
C676 C675 1.524 . S
C677 C674 1.403 . S
C677 C678 1.392 . S
C677 C681 1.495 . S
C678 C677 1.392 . S
C678 C679 1.385 . S
C678 C680 1.478 . S
C679 H673 0.930 . S
C679 C675 1.400 . S
C679 C678 1.385 . S
C680 C678 1.478 . S
C680 C682 1.381 . S
C680 C686 1.383 . S
C681 C677 1.495 . S
C681 H687 0.959 . S
C681 H688 0.961 . S
C681 H689 0.960 . S
C682 C680 1.381 . S
C682 C683 1.394 . S
C682 H690 0.930 . S
C683 C682 1.394 . S
C683 C684 1.383 . S
C683 H691 0.929 . S
C684 C683 1.383 . S
C684 C685 1.377 . S
C685 H669 0.930 . S
C685 C684 1.377 . S
C685 C686 1.379 . S
C686 H670 0.931 . S
C686 C680 1.383 . S
C686 C685 1.379 . S
H687 C681 0.959 . S
H688 C681 0.961 . S
H689 C681 0.960 . S
H690 C682 0.930 . S
H691 C683 0.929 . S
H692 C700 0.929 . S
H693 C702 0.930 . S
H694 C704 0.930 . S
H695 C707 0.929 . S
H696 C710 0.930 . S
H697 C712 0.960 . S
H698 C712 0.960 . S
H699 C712 0.960 . S
C700 H692 0.929 . S
C700 C701 1.377 . S
C700 C702 1.384 . S
C701 C700 1.377 . S
C701 C707 1.390 . S
C702 H693 0.930 . S
C702 C700 1.384 . S
C702 C703 1.372 . S
C703 C702 1.372 . S
C703 C704 1.400 . S
C703 C708 1.490 . S
C704 H694 0.930 . S
C704 C703 1.400 . S
C704 C707 1.386 . S
H705 C721 0.930 . S
H706 C722 0.931 . S
C707 H695 0.929 . S
C707 C701 1.390 . S
C707 C704 1.386 . S
C708 C703 1.490 . S
C708 C710 1.395 . S
C708 C711 1.403 . S
H709 C715 0.930 . S
C710 H696 0.930 . S
C710 C708 1.395 . S
C710 C713 1.403 . S
C711 C708 1.403 . S
C711 C712 1.524 . S
C711 C715 1.400 . S
C712 H697 0.960 . S
C712 H698 0.960 . S
C712 H699 0.960 . S
C712 C711 1.524 . S
C713 C710 1.403 . S
C713 C714 1.392 . S
C713 C717 1.495 . S
C714 C713 1.392 . S
C714 C715 1.385 . S
C714 C716 1.478 . S
C715 H709 0.930 . S
C715 C711 1.400 . S
C715 C714 1.385 . S
C716 C714 1.478 . S
C716 C718 1.381 . S
C716 C722 1.383 . S
C717 C713 1.495 . S
C717 H723 0.959 . S
C717 H724 0.961 . S
C717 H725 0.960 . S
C718 C716 1.381 . S
C718 C719 1.394 . S
C718 H726 0.930 . S
C719 C718 1.394 . S
C719 C720 1.383 . S
C719 H727 0.929 . S
C720 C719 1.383 . S
C720 C721 1.377 . S
C721 H705 0.930 . S
C721 C720 1.377 . S
C721 C722 1.379 . S
C722 H706 0.931 . S
C722 C716 1.383 . S
C722 C721 1.379 . S
H723 C717 0.959 . S
H724 C717 0.961 . S
H725 C717 0.960 . S
H726 C718 0.930 . S
H727 C719 0.929 . S
H728 C736 0.929 . S
H729 C738 0.930 . S
H730 C740 0.930 . S
H731 C743 0.929 . S
H732 C746 0.930 . S
H733 C748 0.960 . S
H734 C748 0.960 . S
H735 C748 0.960 . S
C736 H728 0.929 . S
C736 C737 1.377 . S
C736 C738 1.384 . S
C737 C736 1.377 . S
C737 C743 1.390 . S
C738 H729 0.930 . S
C738 C736 1.384 . S
C738 C739 1.372 . S
C739 C738 1.372 . S
C739 C740 1.400 . S
C739 C744 1.490 . S
C740 H730 0.930 . S
C740 C739 1.400 . S
C740 C743 1.386 . S
H741 C757 0.930 . S
H742 C758 0.931 . S
C743 H731 0.929 . S
C743 C737 1.390 . S
C743 C740 1.386 . S
C744 C739 1.490 . S
C744 C746 1.395 . S
C744 C747 1.403 . S
H745 C751 0.930 . S
C746 H732 0.930 . S
C746 C744 1.395 . S
C746 C749 1.403 . S
C747 C744 1.403 . S
C747 C748 1.524 . S
C747 C751 1.400 . S
C748 H733 0.960 . S
C748 H734 0.960 . S
C748 H735 0.960 . S
C748 C747 1.524 . S
C749 C746 1.403 . S
C749 C750 1.392 . S
C749 C753 1.495 . S
C750 C749 1.392 . S
C750 C751 1.385 . S
C750 C752 1.478 . S
C751 H745 0.930 . S
C751 C747 1.400 . S
C751 C750 1.385 . S
C752 C750 1.478 . S
C752 C754 1.381 . S
C752 C758 1.383 . S
C753 C749 1.495 . S
C753 H759 0.959 . S
C753 H760 0.961 . S
C753 H761 0.960 . S
C754 C752 1.381 . S
C754 C755 1.394 . S
C754 H762 0.930 . S
C755 C754 1.394 . S
C755 C756 1.383 . S
C755 H763 0.929 . S
C756 C755 1.383 . S
C756 C757 1.377 . S
C757 H741 0.930 . S
C757 C756 1.377 . S
C757 C758 1.379 . S
C758 H742 0.931 . S
C758 C752 1.383 . S
C758 C757 1.379 . S
H759 C753 0.959 . S
H760 C753 0.961 . S
H761 C753 0.960 . S
H762 C754 0.930 . S
H763 C755 0.929 . S
H764 C772 0.929 . S
H765 C774 0.930 . S
H766 C776 0.930 . S
H767 C779 0.929 . S
H768 C782 0.930 . S
H769 C784 0.960 . S
H770 C784 0.960 . S
H771 C784 0.960 . S
C772 H764 0.929 . S
C772 C773 1.377 . S
C772 C774 1.384 . S
C773 C772 1.377 . S
C773 C779 1.390 . S
C774 H765 0.930 . S
C774 C772 1.384 . S
C774 C775 1.372 . S
C775 C774 1.372 . S
C775 C776 1.400 . S
C775 C780 1.490 . S
C776 H766 0.930 . S
C776 C775 1.400 . S
C776 C779 1.386 . S
H777 C793 0.930 . S
H778 C794 0.931 . S
C779 H767 0.929 . S
C779 C773 1.390 . S
C779 C776 1.386 . S
C780 C775 1.490 . S
C780 C782 1.395 . S
C780 C783 1.403 . S
H781 C787 0.930 . S
C782 H768 0.930 . S
C782 C780 1.395 . S
C782 C785 1.403 . S
C783 C780 1.403 . S
C783 C784 1.524 . S
C783 C787 1.400 . S
C784 H769 0.960 . S
C784 H770 0.960 . S
C784 H771 0.960 . S
C784 C783 1.524 . S
C785 C782 1.403 . S
C785 C786 1.392 . S
C785 C789 1.495 . S
C786 C785 1.392 . S
C786 C787 1.385 . S
C786 C788 1.478 . S
C787 H781 0.930 . S
C787 C783 1.400 . S
C787 C786 1.385 . S
C788 C786 1.478 . S
C788 C790 1.381 . S
C788 C794 1.383 . S
C789 C785 1.495 . S
C789 H795 0.959 . S
C789 H796 0.961 . S
C789 H797 0.960 . S
C790 C788 1.381 . S
C790 C791 1.394 . S
C790 H798 0.930 . S
C791 C790 1.394 . S
C791 C792 1.383 . S
C791 H799 0.929 . S
C792 C791 1.383 . S
C792 C793 1.377 . S
C793 H777 0.930 . S
C793 C792 1.377 . S
C793 C794 1.379 . S
C794 H778 0.931 . S
C794 C788 1.383 . S
C794 C793 1.379 . S
H795 C789 0.959 . S
H796 C789 0.961 . S
H797 C789 0.960 . S
H798 C790 0.930 . S
H799 C791 0.929 . S
H800 C808 0.929 . S
H801 C810 0.930 . S
H802 C812 0.930 . S
H803 C815 0.929 . S
H804 C818 0.930 . S
H805 C820 0.960 . S
H806 C820 0.960 . S
H807 C820 0.960 . S
C808 H800 0.929 . S
C808 C809 1.377 . S
C808 C810 1.384 . S
C809 C808 1.377 . S
C809 C815 1.390 . S
C810 H801 0.930 . S
C810 C808 1.384 . S
C810 C811 1.372 . S
C811 C810 1.372 . S
C811 C812 1.400 . S
C811 C816 1.490 . S
C812 H802 0.930 . S
C812 C811 1.400 . S
C812 C815 1.386 . S
H813 C829 0.930 . S
H814 C830 0.931 . S
C815 H803 0.929 . S
C815 C809 1.390 . S
C815 C812 1.386 . S
C816 C811 1.490 . S
C816 C818 1.395 . S
C816 C819 1.403 . S
H817 C823 0.930 . S
C818 H804 0.930 . S
C818 C816 1.395 . S
C818 C821 1.403 . S
C819 C816 1.403 . S
C819 C820 1.524 . S
C819 C823 1.400 . S
C820 H805 0.960 . S
C820 H806 0.960 . S
C820 H807 0.960 . S
C820 C819 1.524 . S
C821 C818 1.403 . S
C821 C822 1.392 . S
C821 C825 1.495 . S
C822 C821 1.392 . S
C822 C823 1.385 . S
C822 C824 1.478 . S
C823 H817 0.930 . S
C823 C819 1.400 . S
C823 C822 1.385 . S
C824 C822 1.478 . S
C824 C826 1.381 . S
C824 C830 1.383 . S
C825 C821 1.495 . S
C825 H831 0.959 . S
C825 H832 0.961 . S
C825 H833 0.960 . S
C826 C824 1.381 . S
C826 C827 1.394 . S
C826 H834 0.930 . S
C827 C826 1.394 . S
C827 C828 1.383 . S
C827 H835 0.929 . S
C828 C827 1.383 . S
C828 C829 1.377 . S
C829 H813 0.930 . S
C829 C828 1.377 . S
C829 C830 1.379 . S
C830 H814 0.931 . S
C830 C824 1.383 . S
C830 C829 1.379 . S
H831 C825 0.959 . S
H832 C825 0.961 . S
H833 C825 0.960 . S
H834 C826 0.930 . S
H835 C827 0.929 . S
H836 C844 0.929 . S
H837 C846 0.930 . S
H838 C848 0.930 . S
H839 C851 0.929 . S
H840 C854 0.930 . S
H841 C856 0.960 . S
H842 C856 0.960 . S
H843 C856 0.960 . S
C844 H836 0.929 . S
C844 C845 1.377 . S
C844 C846 1.384 . S
C845 C844 1.377 . S
C845 C851 1.390 . S
C846 H837 0.930 . S
C846 C844 1.384 . S
C846 C847 1.372 . S
C847 C846 1.372 . S
C847 C848 1.400 . S
C847 C852 1.490 . S
C848 H838 0.930 . S
C848 C847 1.400 . S
C848 C851 1.386 . S
H849 C865 0.930 . S
H850 C866 0.931 . S
C851 H839 0.929 . S
C851 C845 1.390 . S
C851 C848 1.386 . S
C852 C847 1.490 . S
C852 C854 1.395 . S
C852 C855 1.403 . S
H853 C859 0.930 . S
C854 H840 0.930 . S
C854 C852 1.395 . S
C854 C857 1.403 . S
C855 C852 1.403 . S
C855 C856 1.524 . S
C855 C859 1.400 . S
C856 H841 0.960 . S
C856 H842 0.960 . S
C856 H843 0.960 . S
C856 C855 1.524 . S
C857 C854 1.403 . S
C857 C858 1.392 . S
C857 C861 1.495 . S
C858 C857 1.392 . S
C858 C859 1.385 . S
C858 C860 1.478 . S
C859 H853 0.930 . S
C859 C855 1.400 . S
C859 C858 1.385 . S
C860 C858 1.478 . S
C860 C862 1.381 . S
C860 C866 1.383 . S
C861 C857 1.495 . S
C861 H867 0.959 . S
C861 H868 0.961 . S
C861 H869 0.960 . S
C862 C860 1.381 . S
C862 C863 1.394 . S
C862 H870 0.930 . S
C863 C862 1.394 . S
C863 C864 1.383 . S
C863 H871 0.929 . S
C864 C863 1.383 . S
C864 C865 1.377 . S
C865 H849 0.930 . S
C865 C864 1.377 . S
C865 C866 1.379 . S
C866 H850 0.931 . S
C866 C860 1.383 . S
C866 C865 1.379 . S
H867 C861 0.959 . S
H868 C861 0.961 . S
H869 C861 0.960 . S
H870 C862 0.930 . S
H871 C863 0.929 . S
H872 C880 0.929 . S
H873 C882 0.930 . S
H874 C884 0.930 . S
H875 C887 0.929 . S
H876 C890 0.930 . S
H877 C892 0.960 . S
H878 C892 0.960 . S
H879 C892 0.960 . S
C880 H872 0.929 . S
C880 C881 1.377 . S
C880 C882 1.384 . S
C881 C880 1.377 . S
C881 C887 1.390 . S
C882 H873 0.930 . S
C882 C880 1.384 . S
C882 C883 1.372 . S
C883 C882 1.372 . S
C883 C884 1.400 . S
C883 C888 1.490 . S
C884 H874 0.930 . S
C884 C883 1.400 . S
C884 C887 1.386 . S
H885 C901 0.930 . S
H886 C902 0.931 . S
C887 H875 0.929 . S
C887 C881 1.390 . S
C887 C884 1.386 . S
C888 C883 1.490 . S
C888 C890 1.395 . S
C888 C891 1.403 . S
H889 C895 0.930 . S
C890 H876 0.930 . S
C890 C888 1.395 . S
C890 C893 1.403 . S
C891 C888 1.403 . S
C891 C892 1.524 . S
C891 C895 1.400 . S
C892 H877 0.960 . S
C892 H878 0.960 . S
C892 H879 0.960 . S
C892 C891 1.524 . S
C893 C890 1.403 . S
C893 C894 1.392 . S
C893 C897 1.495 . S
C894 C893 1.392 . S
C894 C895 1.385 . S
C894 C896 1.478 . S
C895 H889 0.930 . S
C895 C891 1.400 . S
C895 C894 1.385 . S
C896 C894 1.478 . S
C896 C898 1.381 . S
C896 C902 1.383 . S
C897 C893 1.495 . S
C897 H903 0.959 . S
C897 H904 0.961 . S
C897 H905 0.960 . S
C898 C896 1.381 . S
C898 C899 1.394 . S
C898 H906 0.930 . S
C899 C898 1.394 . S
C899 C900 1.383 . S
C899 H907 0.929 . S
C900 C899 1.383 . S
C900 C901 1.377 . S
C901 H885 0.930 . S
C901 C900 1.377 . S
C901 C902 1.379 . S
C902 H886 0.931 . S
C902 C896 1.383 . S
C902 C901 1.379 . S
H903 C897 0.959 . S
H904 C897 0.961 . S
H905 C897 0.960 . S
H906 C898 0.930 . S
H907 C899 0.929 . S
H908 C916 0.929 . S
H909 C918 0.930 . S
H910 C920 0.930 . S
H911 C923 0.929 . S
H912 C926 0.930 . S
H913 C928 0.960 . S
H914 C928 0.960 . S
H915 C928 0.960 . S
C916 H908 0.929 . S
C916 C917 1.377 . S
C916 C918 1.384 . S
C917 C916 1.377 . S
C917 C923 1.390 . S
C918 H909 0.930 . S
C918 C916 1.384 . S
C918 C919 1.372 . S
C919 C918 1.372 . S
C919 C920 1.400 . S
C919 C924 1.490 . S
C920 H910 0.930 . S
C920 C919 1.400 . S
C920 C923 1.386 . S
H921 C937 0.930 . S
H922 C938 0.931 . S
C923 H911 0.929 . S
C923 C917 1.390 . S
C923 C920 1.386 . S
C924 C919 1.490 . S
C924 C926 1.395 . S
C924 C927 1.403 . S
H925 C931 0.930 . S
C926 H912 0.930 . S
C926 C924 1.395 . S
C926 C929 1.403 . S
C927 C924 1.403 . S
C927 C928 1.524 . S
C927 C931 1.400 . S
C928 H913 0.960 . S
C928 H914 0.960 . S
C928 H915 0.960 . S
C928 C927 1.524 . S
C929 C926 1.403 . S
C929 C930 1.392 . S
C929 C933 1.495 . S
C930 C929 1.392 . S
C930 C931 1.385 . S
C930 C932 1.478 . S
C931 H925 0.930 . S
C931 C927 1.400 . S
C931 C930 1.385 . S
C932 C930 1.478 . S
C932 C934 1.381 . S
C932 C938 1.383 . S
C933 C929 1.495 . S
C933 H939 0.959 . S
C933 H940 0.961 . S
C933 H941 0.960 . S
C934 C932 1.381 . S
C934 C935 1.394 . S
C934 H942 0.930 . S
C935 C934 1.394 . S
C935 C936 1.383 . S
C935 H943 0.929 . S
C936 C935 1.383 . S
C936 C937 1.377 . S
C937 H921 0.930 . S
C937 C936 1.377 . S
C937 C938 1.379 . S
C938 H922 0.931 . S
C938 C932 1.383 . S
C938 C937 1.379 . S
H939 C933 0.959 . S
H940 C933 0.961 . S
H941 C933 0.960 . S
H942 C934 0.930 . S
H943 C935 0.929 . S
H944 C952 0.929 . S
H945 C954 0.930 . S
H946 C956 0.930 . S
H947 C959 0.929 . S
H948 C962 0.930 . S
H949 C964 0.960 . S
H950 C964 0.960 . S
H951 C964 0.960 . S
C952 H944 0.929 . S
C952 C953 1.377 . S
C952 C954 1.384 . S
C953 C952 1.377 . S
C953 C959 1.390 . S
C954 H945 0.930 . S
C954 C952 1.384 . S
C954 C955 1.372 . S
C955 C954 1.372 . S
C955 C956 1.400 . S
C955 C960 1.490 . S
C956 H946 0.930 . S
C956 C955 1.400 . S
C956 C959 1.386 . S
H957 C973 0.930 . S
H958 C974 0.931 . S
C959 H947 0.929 . S
C959 C953 1.390 . S
C959 C956 1.386 . S
C960 C955 1.490 . S
C960 C962 1.395 . S
C960 C963 1.403 . S
H961 C967 0.930 . S
C962 H948 0.930 . S
C962 C960 1.395 . S
C962 C965 1.403 . S
C963 C960 1.403 . S
C963 C964 1.524 . S
C963 C967 1.400 . S
C964 H949 0.960 . S
C964 H950 0.960 . S
C964 H951 0.960 . S
C964 C963 1.524 . S
C965 C962 1.403 . S
C965 C966 1.392 . S
C965 C969 1.495 . S
C966 C965 1.392 . S
C966 C967 1.385 . S
C966 C968 1.478 . S
C967 H961 0.930 . S
C967 C963 1.400 . S
C967 C966 1.385 . S
C968 C966 1.478 . S
C968 C970 1.381 . S
C968 C974 1.383 . S
C969 C965 1.495 . S
C969 H975 0.959 . S
C969 H976 0.961 . S
C969 H977 0.960 . S
C970 C968 1.381 . S
C970 C971 1.394 . S
C970 H978 0.930 . S
C971 C970 1.394 . S
C971 C972 1.383 . S
C971 H979 0.929 . S
C972 C971 1.383 . S
C972 C973 1.377 . S
C973 H957 0.930 . S
C973 C972 1.377 . S
C973 C974 1.379 . S
C974 H958 0.931 . S
C974 C968 1.383 . S
C974 C973 1.379 . S
H975 C969 0.959 . S
H976 C969 0.961 . S
H977 C969 0.960 . S
H978 C970 0.930 . S
H979 C971 0.929 . S
H980 C988 0.929 . S
H981 C990 0.930 . S
H982 C992 0.930 . S
H983 C995 0.929 . S
H984 C998 0.930 . S
H985 C1000 0.960 . S
H986 C1000 0.960 . S
H987 C1000 0.960 . S
C988 H980 0.929 . S
C988 C989 1.377 . S
C988 C990 1.384 . S
C989 C988 1.377 . S
C989 C995 1.390 . S
C990 H981 0.930 . S
C990 C988 1.384 . S
C990 C991 1.372 . S
C991 C990 1.372 . S
C991 C992 1.400 . S
C991 C996 1.490 . S
C992 H982 0.930 . S
C992 C991 1.400 . S
C992 C995 1.386 . S
H993 C1009 0.930 . S
H994 C1010 0.931 . S
C995 H983 0.929 . S
C995 C989 1.390 . S
C995 C992 1.386 . S
C996 C991 1.490 . S
C996 C998 1.395 . S
C996 C999 1.403 . S
H997 C1003 0.930 . S
C998 H984 0.930 . S
C998 C996 1.395 . S
C998 C1001 1.403 . S
C999 C996 1.403 . S
C999 C1000 1.524 . S
C999 C1003 1.400 . S
C1000 H985 0.960 . S
C1000 H986 0.960 . S
C1000 H987 0.960 . S
C1000 C999 1.524 . S
C1001 C998 1.403 . S
C1001 C1002 1.392 . S
C1001 C1005 1.495 . S
C1002 C1001 1.392 . S
C1002 C1003 1.385 . S
C1002 C1004 1.478 . S
C1003 H997 0.930 . S
C1003 C999 1.400 . S
C1003 C1002 1.385 . S
C1004 C1002 1.478 . S
C1004 C1006 1.381 . S
C1004 C1010 1.383 . S
C1005 C1001 1.495 . S
C1005 H1011 0.959 . S
C1005 H1012 0.961 . S
C1005 H1013 0.960 . S
C1006 C1004 1.381 . S
C1006 C1007 1.394 . S
C1006 H1014 0.930 . S
C1007 C1006 1.394 . S
C1007 C1008 1.383 . S
C1007 H1015 0.929 . S
C1008 C1007 1.383 . S
C1008 C1009 1.377 . S
C1009 H993 0.930 . S
C1009 C1008 1.377 . S
C1009 C1010 1.379 . S
C1010 H994 0.931 . S
C1010 C1004 1.383 . S
C1010 C1009 1.379 . S
H1011 C1005 0.959 . S
H1012 C1005 0.961 . S
H1013 C1005 0.960 . S
H1014 C1006 0.930 . S
H1015 C1007 0.929 . S
H1016 C1024 0.929 . S
H1017 C1026 0.930 . S
H1018 C1028 0.930 . S
H1019 C1031 0.929 . S
H1020 C1034 0.930 . S
H1021 C1036 0.960 . S
H1022 C1036 0.960 . S
H1023 C1036 0.960 . S
C1024 H1016 0.929 . S
C1024 C1025 1.377 . S
C1024 C1026 1.384 . S
C1025 C1024 1.377 . S
C1025 C1031 1.390 . S
C1026 H1017 0.930 . S
C1026 C1024 1.384 . S
C1026 C1027 1.372 . S
C1027 C1026 1.372 . S
C1027 C1028 1.400 . S
C1027 C1032 1.490 . S
C1028 H1018 0.930 . S
C1028 C1027 1.400 . S
C1028 C1031 1.386 . S
H1029 C1045 0.930 . S
H1030 C1046 0.931 . S
C1031 H1019 0.929 . S
C1031 C1025 1.390 . S
C1031 C1028 1.386 . S
C1032 C1027 1.490 . S
C1032 C1034 1.395 . S
C1032 C1035 1.403 . S
H1033 C1039 0.930 . S
C1034 H1020 0.930 . S
C1034 C1032 1.395 . S
C1034 C1037 1.403 . S
C1035 C1032 1.403 . S
C1035 C1036 1.524 . S
C1035 C1039 1.400 . S
C1036 H1021 0.960 . S
C1036 H1022 0.960 . S
C1036 H1023 0.960 . S
C1036 C1035 1.524 . S
C1037 C1034 1.403 . S
C1037 C1038 1.392 . S
C1037 C1041 1.495 . S
C1038 C1037 1.392 . S
C1038 C1039 1.385 . S
C1038 C1040 1.478 . S
C1039 H1033 0.930 . S
C1039 C1035 1.400 . S
C1039 C1038 1.385 . S
C1040 C1038 1.478 . S
C1040 C1042 1.381 . S
C1040 C1046 1.383 . S
C1041 C1037 1.495 . S
C1041 H1047 0.959 . S
C1041 H1048 0.961 . S
C1041 H1049 0.960 . S
C1042 C1040 1.381 . S
C1042 C1043 1.394 . S
C1042 H1050 0.930 . S
C1043 C1042 1.394 . S
C1043 C1044 1.383 . S
C1043 H1051 0.929 . S
C1044 C1043 1.383 . S
C1044 C1045 1.377 . S
C1045 H1029 0.930 . S
C1045 C1044 1.377 . S
C1045 C1046 1.379 . S
C1046 H1030 0.931 . S
C1046 C1040 1.383 . S
C1046 C1045 1.379 . S
H1047 C1041 0.959 . S
H1048 C1041 0.961 . S
H1049 C1041 0.960 . S
H1050 C1042 0.930 . S
H1051 C1043 0.929 . S
H1052 C1060 0.929 . S
H1053 C1062 0.930 . S
H1054 C1064 0.930 . S
H1055 C1067 0.929 . S
H1056 C1070 0.930 . S
H1057 C1072 0.960 . S
H1058 C1072 0.960 . S
H1059 C1072 0.960 . S
C1060 H1052 0.929 . S
C1060 C1061 1.377 . S
C1060 C1062 1.384 . S
C1061 C1060 1.377 . S
C1061 C1067 1.390 . S
C1062 H1053 0.930 . S
C1062 C1060 1.384 . S
C1062 C1063 1.372 . S
C1063 C1062 1.372 . S
C1063 C1064 1.400 . S
C1063 C1068 1.490 . S
C1064 H1054 0.930 . S
C1064 C1063 1.400 . S
C1064 C1067 1.386 . S
H1065 C1081 0.930 . S
H1066 C1082 0.931 . S
C1067 H1055 0.929 . S
C1067 C1061 1.390 . S
C1067 C1064 1.386 . S
C1068 C1063 1.490 . S
C1068 C1070 1.395 . S
C1068 C1071 1.403 . S
H1069 C1075 0.930 . S
C1070 H1056 0.930 . S
C1070 C1068 1.395 . S
C1070 C1073 1.403 . S
C1071 C1068 1.403 . S
C1071 C1072 1.524 . S
C1071 C1075 1.400 . S
C1072 H1057 0.960 . S
C1072 H1058 0.960 . S
C1072 H1059 0.960 . S
C1072 C1071 1.524 . S
C1073 C1070 1.403 . S
C1073 C1074 1.392 . S
C1073 C1077 1.495 . S
C1074 C1073 1.392 . S
C1074 C1075 1.385 . S
C1074 C1076 1.478 . S
C1075 H1069 0.930 . S
C1075 C1071 1.400 . S
C1075 C1074 1.385 . S
C1076 C1074 1.478 . S
C1076 C1078 1.381 . S
C1076 C1082 1.383 . S
C1077 C1073 1.495 . S
C1077 H1083 0.959 . S
C1077 H1084 0.961 . S
C1077 H1085 0.960 . S
C1078 C1076 1.381 . S
C1078 C1079 1.394 . S
C1078 H1086 0.930 . S
C1079 C1078 1.394 . S
C1079 C1080 1.383 . S
C1079 H1087 0.929 . S
C1080 C1079 1.383 . S
C1080 C1081 1.377 . S
C1081 H1065 0.930 . S
C1081 C1080 1.377 . S
C1081 C1082 1.379 . S
C1082 H1066 0.931 . S
C1082 C1076 1.383 . S
C1082 C1081 1.379 . S
H1083 C1077 0.959 . S
H1084 C1077 0.961 . S
H1085 C1077 0.960 . S
H1086 C1078 0.930 . S
H1087 C1079 0.929 . S
H1088 C1096 0.929 . S
H1089 C1098 0.930 . S
H1090 C1100 0.930 . S
H1091 C1103 0.929 . S
H1092 C1106 0.930 . S
H1093 C1108 0.960 . S
H1094 C1108 0.960 . S
H1095 C1108 0.960 . S
C1096 H1088 0.929 . S
C1096 C1097 1.377 . S
C1096 C1098 1.384 . S
C1097 C1096 1.377 . S
C1097 C1103 1.390 . S
C1098 H1089 0.930 . S
C1098 C1096 1.384 . S
C1098 C1099 1.372 . S
C1099 C1098 1.372 . S
C1099 C1100 1.400 . S
C1099 C1104 1.490 . S
C1100 H1090 0.930 . S
C1100 C1099 1.400 . S
C1100 C1103 1.386 . S
H1101 C1117 0.930 . S
H1102 C1118 0.931 . S
C1103 H1091 0.929 . S
C1103 C1097 1.390 . S
C1103 C1100 1.386 . S
C1104 C1099 1.490 . S
C1104 C1106 1.395 . S
C1104 C1107 1.403 . S
H1105 C1111 0.930 . S
C1106 H1092 0.930 . S
C1106 C1104 1.395 . S
C1106 C1109 1.403 1_554 S
C1107 C1104 1.403 . S
C1107 C1108 1.524 . S
C1107 C1111 1.400 1_554 S
C1108 H1093 0.960 . S
C1108 H1094 0.960 . S
C1108 H1095 0.960 . S
C1108 C1107 1.524 . S
C1109 C1106 1.403 1_556 S
C1109 C1110 1.392 . S
C1109 C1113 1.495 . S
C1110 C1109 1.392 . S
C1110 C1111 1.385 . S
C1110 C1112 1.478 . S
C1111 H1105 0.930 . S
C1111 C1107 1.400 1_556 S
C1111 C1110 1.385 . S
C1112 C1110 1.478 . S
C1112 C1114 1.381 . S
C1112 C1118 1.383 . S
C1113 C1109 1.495 . S
C1113 H1119 0.959 . S
C1113 H1120 0.961 . S
C1113 H1121 0.960 . S
C1114 C1112 1.381 . S
C1114 C1115 1.394 . S
C1114 H1122 0.930 . S
C1115 C1114 1.394 . S
C1115 C1116 1.383 . S
C1115 H1123 0.929 . S
C1116 C1115 1.383 . S
C1116 C1117 1.377 . S
C1117 H1101 0.930 . S
C1117 C1116 1.377 . S
C1117 C1118 1.379 . S
C1118 H1102 0.931 . S
C1118 C1112 1.383 . S
C1118 C1117 1.379 . S
H1119 C1113 0.959 . S
H1120 C1113 0.961 . S
H1121 C1113 0.960 . S
H1122 C1114 0.930 . S
H1123 C1115 0.929 . S
H1124 C1132 0.929 . S
H1125 C1134 0.930 . S
H1126 C1136 0.930 . S
H1127 C1139 0.929 . S
H1128 C1142 0.930 . S
H1129 C1144 0.960 . S
H1130 C1144 0.960 . S
H1131 C1144 0.960 . S
C1132 H1124 0.929 . S
C1132 C1133 1.377 . S
C1132 C1134 1.384 . S
C1133 C1132 1.377 . S
C1133 C1139 1.390 . S
C1134 H1125 0.930 . S
C1134 C1132 1.384 . S
C1134 C1135 1.372 . S
C1135 C1134 1.372 . S
C1135 C1136 1.400 . S
C1135 C1140 1.490 . S
C1136 H1126 0.930 . S
C1136 C1135 1.400 . S
C1136 C1139 1.386 . S
H1137 C1153 0.930 . S
H1138 C1154 0.931 . S
C1139 H1127 0.929 . S
C1139 C1133 1.390 . S
C1139 C1136 1.386 . S
C1140 C1135 1.490 . S
C1140 C1142 1.395 . S
C1140 C1143 1.403 . S
H1141 C1147 0.930 . S
C1142 H1128 0.930 . S
C1142 C1140 1.395 . S
C1142 C1145 1.403 . S
C1143 C1140 1.403 . S
C1143 C1144 1.524 . S
C1143 C1147 1.400 . S
C1144 H1129 0.960 . S
C1144 H1130 0.960 . S
C1144 H1131 0.960 . S
C1144 C1143 1.524 . S
C1145 C1142 1.403 . S
C1145 C1146 1.392 . S
C1145 C1149 1.495 . S
C1146 C1145 1.392 . S
C1146 C1147 1.385 . S
C1146 C1148 1.478 . S
C1147 H1141 0.930 . S
C1147 C1143 1.400 . S
C1147 C1146 1.385 . S
C1148 C1146 1.478 . S
C1148 C1150 1.381 . S
C1148 C1154 1.383 . S
C1149 C1145 1.495 . S
C1149 H1155 0.959 . S
C1149 H1156 0.961 . S
C1149 H1157 0.960 . S
C1150 C1148 1.381 . S
C1150 C1151 1.394 . S
C1150 H1158 0.930 . S
C1151 C1150 1.394 . S
C1151 C1152 1.383 . S
C1151 H1159 0.929 . S
C1152 C1151 1.383 . S
C1152 C1153 1.377 . S
C1153 H1137 0.930 . S
C1153 C1152 1.377 . S
C1153 C1154 1.379 . S
C1154 H1138 0.931 . S
C1154 C1148 1.383 . S
C1154 C1153 1.379 . S
H1155 C1149 0.959 . S
H1156 C1149 0.961 . S
H1157 C1149 0.960 . S
H1158 C1150 0.930 . S
H1159 C1151 0.929 . S
H1160 C1168 0.929 . S
H1161 C1170 0.930 . S
H1162 C1172 0.930 1_455 S
H1163 C1175 0.929 1_455 S
H1164 C1178 0.930 . S
H1165 C1180 0.961 1_455 S
H1166 C1180 0.959 . S
H1167 C1180 0.961 1_455 S
C1168 H1160 0.929 . S
C1168 C1169 1.377 . S
C1168 C1170 1.384 . S
C1169 C1168 1.377 . S
C1169 C1175 1.390 . S
C1170 H1161 0.930 . S
C1170 C1168 1.384 . S
C1170 C1171 1.372 . S
C1171 C1170 1.372 . S
C1171 C1172 1.400 . S
C1171 C1176 1.490 . S
C1172 H1162 0.930 1_655 S
C1172 C1171 1.400 . S
C1172 C1175 1.386 . S
H1173 C1189 0.930 . S
H1174 C1190 0.931 . S
C1175 H1163 0.929 1_655 S
C1175 C1169 1.390 . S
C1175 C1172 1.386 . S
C1176 C1171 1.490 . S
C1176 C1178 1.395 . S
C1176 C1179 1.403 . S
H1177 C1183 0.930 . S
C1178 H1164 0.930 . S
C1178 C1176 1.395 . S
C1178 C1181 1.403 1_554 S
C1179 C1176 1.403 . S
C1179 C1180 1.522 . S
C1179 C1183 1.400 1_554 S
C1180 H1165 0.961 1_655 S
C1180 H1166 0.959 . S
C1180 H1167 0.961 1_655 S
C1180 C1179 1.522 . S
C1181 C1178 1.403 1_556 S
C1181 C1182 1.392 . S
C1181 C1185 1.495 . S
C1182 C1181 1.392 . S
C1182 C1183 1.385 . S
C1182 C1184 1.478 . S
C1183 H1177 0.930 . S
C1183 C1179 1.400 1_556 S
C1183 C1182 1.385 . S
C1184 C1182 1.478 . S
C1184 C1186 1.381 . S
C1184 C1190 1.383 . S
C1185 C1181 1.495 . S
C1185 H1191 0.959 . S
C1185 H1192 0.961 . S
C1185 H1193 0.960 . S
C1186 C1184 1.381 . S
C1186 C1187 1.394 . S
C1186 H1194 0.930 . S
C1187 C1186 1.394 . S
C1187 C1188 1.383 . S
C1187 H1195 0.929 . S
C1188 C1187 1.383 . S
C1188 C1189 1.377 . S
C1189 H1173 0.930 . S
C1189 C1188 1.377 . S
C1189 C1190 1.379 . S
C1190 H1174 0.931 . S
C1190 C1184 1.383 . S
C1190 C1189 1.379 . S
H1191 C1185 0.959 . S
H1192 C1185 0.961 . S
H1193 C1185 0.960 . S
H1194 C1186 0.930 . S
H1195 C1187 0.929 . S
H1196 C1204 0.929 . S
H1197 C1206 0.930 . S
H1198 C1208 0.930 . S
H1199 C1211 0.929 . S
H1200 C1214 0.930 . S
H1201 C1216 0.960 . S
H1202 C1216 0.960 . S
H1203 C1216 0.960 . S
C1204 H1196 0.929 . S
C1204 C1205 1.377 . S
C1204 C1206 1.384 . S
C1205 C1204 1.377 . S
C1205 C1211 1.390 . S
C1206 H1197 0.930 . S
C1206 C1204 1.384 . S
C1206 C1207 1.372 . S
C1207 C1206 1.372 . S
C1207 C1208 1.400 . S
C1207 C1212 1.490 . S
C1208 H1198 0.930 . S
C1208 C1207 1.400 . S
C1208 C1211 1.386 . S
H1209 C1225 0.930 . S
H1210 C1226 0.931 . S
C1211 H1199 0.929 . S
C1211 C1205 1.390 . S
C1211 C1208 1.386 . S
C1212 C1207 1.490 . S
C1212 C1214 1.395 . S
C1212 C1215 1.403 . S
H1213 C1219 0.930 . S
C1214 H1200 0.930 . S
C1214 C1212 1.395 . S
C1214 C1217 1.403 . S
C1215 C1212 1.403 . S
C1215 C1216 1.524 1_565 S
C1215 C1219 1.400 . S
C1216 H1201 0.960 . S
C1216 H1202 0.960 . S
C1216 H1203 0.960 . S
C1216 C1215 1.524 1_545 S
C1217 C1214 1.403 . S
C1217 C1218 1.392 . S
C1217 C1221 1.495 . S
C1218 C1217 1.392 . S
C1218 C1219 1.385 . S
C1218 C1220 1.478 . S
C1219 H1213 0.930 . S
C1219 C1215 1.400 . S
C1219 C1218 1.385 . S
C1220 C1218 1.478 . S
C1220 C1222 1.381 . S
C1220 C1226 1.383 . S
C1221 C1217 1.495 . S
C1221 H1227 0.959 . S
C1221 H1228 0.961 . S
C1221 H1229 0.960 . S
C1222 C1220 1.381 . S
C1222 C1223 1.394 . S
C1222 H1230 0.930 . S
C1223 C1222 1.394 . S
C1223 C1224 1.383 . S
C1223 H1231 0.929 . S
C1224 C1223 1.383 . S
C1224 C1225 1.377 . S
C1225 H1209 0.930 . S
C1225 C1224 1.377 . S
C1225 C1226 1.379 . S
C1226 H1210 0.931 . S
C1226 C1220 1.383 . S
C1226 C1225 1.379 . S
H1227 C1221 0.959 . S
H1228 C1221 0.961 . S
H1229 C1221 0.960 . S
H1230 C1222 0.930 . S
H1231 C1223 0.929 . S
H1232 C1240 0.929 . S
H1233 C1242 0.930 . S
H1234 C1244 0.930 . S
H1235 C1247 0.929 . S
H1236 C1250 0.930 . S
H1237 C1252 0.960 . S
H1238 C1252 0.960 . S
H1239 C1252 0.960 . S
C1240 H1232 0.929 . S
C1240 C1241 1.377 . S
C1240 C1242 1.384 . S
C1241 C1240 1.377 . S
C1241 C1247 1.390 . S
C1242 H1233 0.930 . S
C1242 C1240 1.384 . S
C1242 C1243 1.372 . S
C1243 C1242 1.372 . S
C1243 C1244 1.400 . S
C1243 C1248 1.490 . S
C1244 H1234 0.930 . S
C1244 C1243 1.400 . S
C1244 C1247 1.386 . S
H1245 C1261 0.930 . S
H1246 C1262 0.931 . S
C1247 H1235 0.929 . S
C1247 C1241 1.390 . S
C1247 C1244 1.386 . S
C1248 C1243 1.490 . S
C1248 C1250 1.395 . S
C1248 C1251 1.403 . S
H1249 C1255 0.930 . S
C1250 H1236 0.930 . S
C1250 C1248 1.395 . S
C1250 C1253 1.403 1_556 S
C1251 C1248 1.403 . S
C1251 C1252 1.524 . S
C1251 C1255 1.400 1_556 S
C1252 H1237 0.960 . S
C1252 H1238 0.960 . S
C1252 H1239 0.960 . S
C1252 C1251 1.524 . S
C1253 C1250 1.403 1_554 S
C1253 C1254 1.392 . S
C1253 C1257 1.495 . S
C1254 C1253 1.392 . S
C1254 C1255 1.385 . S
C1254 C1256 1.478 . S
C1255 H1249 0.930 . S
C1255 C1251 1.400 1_554 S
C1255 C1254 1.385 . S
C1256 C1254 1.478 . S
C1256 C1258 1.381 . S
C1256 C1262 1.383 . S
C1257 C1253 1.495 . S
C1257 H1263 0.959 . S
C1257 H1264 0.961 . S
C1257 H1265 0.960 . S
C1258 C1256 1.381 . S
C1258 C1259 1.394 . S
C1258 H1266 0.930 . S
C1259 C1258 1.394 . S
C1259 C1260 1.383 . S
C1259 H1267 0.929 . S
C1260 C1259 1.383 . S
C1260 C1261 1.377 . S
C1261 H1245 0.930 . S
C1261 C1260 1.377 . S
C1261 C1262 1.379 . S
C1262 H1246 0.931 . S
C1262 C1256 1.383 . S
C1262 C1261 1.379 . S
H1263 C1257 0.959 . S
H1264 C1257 0.961 . S
H1265 C1257 0.960 . S
H1266 C1258 0.930 . S
H1267 C1259 0.929 . S
H1268 C1276 0.929 . S
H1269 C1278 0.930 . S
H1270 C1280 0.930 . S
H1271 C1283 0.929 . S
H1272 C1286 0.930 . S
H1273 C1288 0.960 . S
H1274 C1288 0.960 . S
H1275 C1288 0.960 . S
C1276 H1268 0.929 . S
C1276 C1277 1.377 . S
C1276 C1278 1.384 . S
C1277 C1276 1.377 . S
C1277 C1283 1.390 . S
C1278 H1269 0.930 . S
C1278 C1276 1.384 . S
C1278 C1279 1.372 . S
C1279 C1278 1.372 . S
C1279 C1280 1.400 . S
C1279 C1284 1.490 . S
C1280 H1270 0.930 . S
C1280 C1279 1.400 . S
C1280 C1283 1.386 . S
H1281 C1297 0.930 . S
H1282 C1298 0.931 . S
C1283 H1271 0.929 . S
C1283 C1277 1.390 . S
C1283 C1280 1.386 . S
C1284 C1279 1.490 . S
C1284 C1286 1.395 . S
C1284 C1287 1.403 . S
H1285 C1291 0.930 . S
C1286 H1272 0.930 . S
C1286 C1284 1.395 . S
C1286 C1289 1.403 . S
C1287 C1284 1.403 . S
C1287 C1288 1.524 . S
C1287 C1291 1.400 . S
C1288 H1273 0.960 . S
C1288 H1274 0.960 . S
C1288 H1275 0.960 . S
C1288 C1287 1.524 . S
C1289 C1286 1.403 . S
C1289 C1290 1.392 . S
C1289 C1293 1.495 . S
C1290 C1289 1.392 . S
C1290 C1291 1.385 . S
C1290 C1292 1.478 . S
C1291 H1285 0.930 . S
C1291 C1287 1.400 . S
C1291 C1290 1.385 . S
C1292 C1290 1.478 . S
C1292 C1294 1.381 . S
C1292 C1298 1.383 . S
C1293 C1289 1.495 . S
C1293 H1299 0.959 . S
C1293 H1300 0.961 . S
C1293 H1301 0.960 . S
C1294 C1292 1.381 . S
C1294 C1295 1.394 . S
C1294 H1302 0.930 . S
C1295 C1294 1.394 . S
C1295 C1296 1.383 . S
C1295 H1303 0.929 . S
C1296 C1295 1.383 . S
C1296 C1297 1.377 . S
C1297 H1281 0.930 . S
C1297 C1296 1.377 . S
C1297 C1298 1.379 . S
C1298 H1282 0.931 . S
C1298 C1292 1.383 . S
C1298 C1297 1.379 . S
H1299 C1293 0.959 . S
H1300 C1293 0.961 . S
H1301 C1293 0.960 . S
H1302 C1294 0.930 . S
H1303 C1295 0.929 . S
H1304 C1312 0.929 . S
H1305 C1314 0.930 . S
H1306 C1316 0.930 . S
H1307 C1319 0.929 . S
H1308 C1322 0.930 . S
H1309 C1324 0.960 . S
H1310 C1324 0.960 . S
H1311 C1324 0.960 . S
C1312 H1304 0.929 . S
C1312 C1313 1.377 . S
C1312 C1314 1.384 . S
C1313 C1312 1.377 . S
C1313 C1319 1.390 . S
C1314 H1305 0.930 . S
C1314 C1312 1.384 . S
C1314 C1315 1.372 . S
C1315 C1314 1.372 . S
C1315 C1316 1.400 . S
C1315 C1320 1.490 . S
C1316 H1306 0.930 . S
C1316 C1315 1.400 . S
C1316 C1319 1.386 . S
H1317 C1333 0.930 . S
H1318 C1334 0.931 . S
C1319 H1307 0.929 . S
C1319 C1313 1.390 . S
C1319 C1316 1.386 . S
C1320 C1315 1.490 . S
C1320 C1322 1.395 . S
C1320 C1323 1.403 . S
H1321 C1327 0.930 . S
C1322 H1308 0.930 . S
C1322 C1320 1.395 . S
C1322 C1325 1.403 1_554 S
C1323 C1320 1.403 . S
C1323 C1324 1.524 1_455 S
C1323 C1327 1.400 1_554 S
C1324 H1309 0.960 . S
C1324 H1310 0.960 . S
C1324 H1311 0.960 . S
C1324 C1323 1.524 1_655 S
C1325 C1322 1.403 1_556 S
C1325 C1326 1.392 . S
C1325 C1329 1.495 . S
C1326 C1325 1.392 . S
C1326 C1327 1.385 . S
C1326 C1328 1.478 . S
C1327 H1321 0.930 . S
C1327 C1323 1.400 1_556 S
C1327 C1326 1.385 . S
C1328 C1326 1.478 . S
C1328 C1330 1.381 . S
C1328 C1334 1.383 . S
C1329 C1325 1.495 . S
C1329 H1335 0.959 . S
C1329 H1336 0.961 . S
C1329 H1337 0.960 . S
C1330 C1328 1.381 . S
C1330 C1331 1.394 . S
C1330 H1338 0.930 . S
C1331 C1330 1.394 . S
C1331 C1332 1.383 . S
C1331 H1339 0.929 . S
C1332 C1331 1.383 . S
C1332 C1333 1.377 . S
C1333 H1317 0.930 . S
C1333 C1332 1.377 . S
C1333 C1334 1.379 . S
C1334 H1318 0.931 . S
C1334 C1328 1.383 . S
C1334 C1333 1.379 . S
H1335 C1329 0.959 . S
H1336 C1329 0.961 . S
H1337 C1329 0.960 . S
H1338 C1330 0.930 . S
H1339 C1331 0.929 . S
H1340 C1348 0.929 . S
H1341 C1350 0.930 . S
H1342 C1352 0.930 . S
H1343 C1355 0.929 . S
H1344 C1358 0.930 . S
H1345 C1360 0.960 . S
H1346 C1360 0.960 . S
H1347 C1360 0.960 . S
C1348 H1340 0.929 . S
C1348 C1349 1.377 . S
C1348 C1350 1.384 . S
C1349 C1348 1.377 . S
C1349 C1355 1.390 . S
C1350 H1341 0.930 . S
C1350 C1348 1.384 . S
C1350 C1351 1.372 . S
C1351 C1350 1.372 . S
C1351 C1352 1.400 . S
C1351 C1356 1.490 . S
C1352 H1342 0.930 . S
C1352 C1351 1.400 . S
C1352 C1355 1.386 . S
H1353 C1369 0.930 . S
H1354 C1370 0.931 . S
C1355 H1343 0.929 . S
C1355 C1349 1.390 . S
C1355 C1352 1.386 . S
C1356 C1351 1.490 . S
C1356 C1358 1.395 . S
C1356 C1359 1.403 . S
H1357 C1363 0.930 . S
C1358 H1344 0.930 . S
C1358 C1356 1.395 . S
C1358 C1361 1.403 . S
C1359 C1356 1.403 . S
C1359 C1360 1.524 . S
C1359 C1363 1.400 . S
C1360 H1345 0.960 . S
C1360 H1346 0.960 . S
C1360 H1347 0.960 . S
C1360 C1359 1.524 . S
C1361 C1358 1.403 . S
C1361 C1362 1.392 . S
C1361 C1365 1.495 1_545 S
C1362 C1361 1.392 . S
C1362 C1363 1.385 . S
C1362 C1364 1.478 . S
C1363 H1357 0.930 . S
C1363 C1359 1.400 . S
C1363 C1362 1.385 . S
C1364 C1362 1.478 . S
C1364 C1366 1.381 . S
C1364 C1370 1.383 . S
C1365 C1361 1.495 1_565 S
C1365 H1371 0.959 . S
C1365 H1372 0.961 . S
C1365 H1373 0.960 1_565 S
C1366 C1364 1.381 . S
C1366 C1367 1.394 . S
C1366 H1374 0.930 . S
C1367 C1366 1.394 . S
C1367 C1368 1.383 . S
C1367 H1375 0.929 . S
C1368 C1367 1.383 . S
C1368 C1369 1.377 . S
C1369 H1353 0.930 . S
C1369 C1368 1.377 . S
C1369 C1370 1.379 . S
C1370 H1354 0.931 . S
C1370 C1364 1.383 . S
C1370 C1369 1.379 . S
H1371 C1365 0.959 . S
H1372 C1365 0.961 . S
H1373 C1365 0.960 1_545 S
H1374 C1366 0.930 . S
H1375 C1367 0.929 . S
C233 C11 1.041 . S
C252 C109 1.024 . S
C269 C25 1.041 . S
C288 C67 1.024 . S
C305 C39 1.048 . S
C324 C81 1.060 . S
C341 C53 1.046 . S
C360 C95 1.041 . S
C377 C123 1.049 . S
C396 C221 1.034 . S
C413 C179 1.048 . S
C432 C137 1.040 . S
C449 C151 1.046 . S
C468 C193 1.052 . S
C485 C165 1.042 . S
C504 C207 1.062 . S
C521 C8 1.116 . S
C540 C139 1.089 . S
C557 C22 1.105 . S
C576 C153 1.157 . S
C593 C167 1.137 . S
C612 C36 1.058 . S
C629 C50 1.103 . S
C648 C125 1.162 . S
C665 C64 1.117 . S
C684 C223 1.086 . S
C701 C181 1.121 . S
C720 C78 1.155 . S
C737 C195 1.124 . S
C756 C92 1.123 . S
C773 C209 1.137 . S
C792 C106 1.060 . S
C809 C27 1.125 . S
C828 C120 1.060 . S
C845 C41 1.137 . S
C864 C134 1.146 . S
C881 C148 1.118 . S
C900 C55 1.125 . S
C917 C13 1.128 . S
C936 C162 1.057 . S
C953 C176 1.109 . S
C972 C111 1.170 . S
C989 C190 1.101 . S
C1008 C69 1.092 . S
C1025 C83 1.127 . S
C1044 C204 1.057 . S
C1061 C97 1.133 . S
C1080 C218 1.155 . S
C1097 C7 1.502 . S
C1116 C63 1.495 . S
C1133 C77 1.507 . S
C1152 C21 1.511 . S
C1169 C35 1.503 . S
C1188 C91 1.488 . S
C1205 C105 1.507 . S
C1224 C49 1.490 . S
C1241 C119 1.507 . S
C1260 C175 1.487 . S
C1277 C189 1.502 . S
C1296 C133 1.516 . S
C1313 C203 1.508 . S
C1332 C147 1.486 . S
C1349 C217 1.502 . S
C1368 C161 1.516 . S
