# Generated by pormake.
# Topology pcb, (4)-cn, num edge types: 1
# Building blocks:
#     Node 0, Type 0, BuildingBlock: UXUYUI_clean_sbu_0, # of connection points: 4
#     Node 1, Type 0, BuildingBlock: UXUYUI_clean_sbu_0, # of connection points: 4
#     Node 2, Type 0, BuildingBlock: UXUYUI_clean_sbu_0, # of connection points: 4
#     Node 3, Type 0, BuildingBlock: UXUYUI_clean_sbu_0, # of connection points: 4
#     Node 4, Type 0, BuildingBlock: UXUYUI_clean_sbu_0, # of connection points: 4
#     Node 5, Type 0, BuildingBlock: UXUYUI_clean_sbu_0, # of connection points: 4
#     Node 6, Type 0, BuildingBlock: UXUYUI_clean_sbu_0, # of connection points: 4
#     Node 7, Type 0, BuildingBlock: UXUYUI_clean_sbu_0, # of connection points: 4
#     Node 8, Type 0, BuildingBlock: UXUYUI_clean_sbu_0, # of connection points: 4
#     Node 9, Type 0, BuildingBlock: UXUYUI_clean_sbu_0, # of connection points: 4
#     Node 10, Type 0, BuildingBlock: UXUYUI_clean_sbu_0, # of connection points: 4
#     Node 11, Type 0, BuildingBlock: UXUYUI_clean_sbu_0, # of connection points: 4
#     Node 12, Type 0, BuildingBlock: UXUYUI_clean_sbu_0, # of connection points: 4
#     Node 13, Type 0, BuildingBlock: UXUYUI_clean_sbu_0, # of connection points: 4
#     Node 14, Type 0, BuildingBlock: UXUYUI_clean_sbu_0, # of connection points: 4
#     Node 15, Type 0, BuildingBlock: UXUYUI_clean_sbu_0, # of connection points: 4
#     Edge 16, Type (0, 0), BuildingBlock: AJUNOK_clean_linker_0, # of connection points: 2
#     Edge 17, Type (0, 0), BuildingBlock: AJUNOK_clean_linker_0, # of connection points: 2
#     Edge 18, Type (0, 0), BuildingBlock: AJUNOK_clean_linker_0, # of connection points: 2
#     Edge 19, Type (0, 0), BuildingBlock: AJUNOK_clean_linker_0, # of connection points: 2
#     Edge 20, Type (0, 0), BuildingBlock: AJUNOK_clean_linker_0, # of connection points: 2
#     Edge 21, Type (0, 0), BuildingBlock: AJUNOK_clean_linker_0, # of connection points: 2
#     Edge 22, Type (0, 0), BuildingBlock: AJUNOK_clean_linker_0, # of connection points: 2
#     Edge 23, Type (0, 0), BuildingBlock: AJUNOK_clean_linker_0, # of connection points: 2
#     Edge 24, Type (0, 0), BuildingBlock: AJUNOK_clean_linker_0, # of connection points: 2
#     Edge 25, Type (0, 0), BuildingBlock: AJUNOK_clean_linker_0, # of connection points: 2
#     Edge 26, Type (0, 0), BuildingBlock: AJUNOK_clean_linker_0, # of connection points: 2
#     Edge 27, Type (0, 0), BuildingBlock: AJUNOK_clean_linker_0, # of connection points: 2
#     Edge 28, Type (0, 0), BuildingBlock: AJUNOK_clean_linker_0, # of connection points: 2
#     Edge 29, Type (0, 0), BuildingBlock: AJUNOK_clean_linker_0, # of connection points: 2
#     Edge 30, Type (0, 0), BuildingBlock: AJUNOK_clean_linker_0, # of connection points: 2
#     Edge 31, Type (0, 0), BuildingBlock: AJUNOK_clean_linker_0, # of connection points: 2
#     Edge 32, Type (0, 0), BuildingBlock: AJUNOK_clean_linker_0, # of connection points: 2
#     Edge 33, Type (0, 0), BuildingBlock: AJUNOK_clean_linker_0, # of connection points: 2
#     Edge 34, Type (0, 0), BuildingBlock: AJUNOK_clean_linker_0, # of connection points: 2
#     Edge 35, Type (0, 0), BuildingBlock: AJUNOK_clean_linker_0, # of connection points: 2
#     Edge 36, Type (0, 0), BuildingBlock: AJUNOK_clean_linker_0, # of connection points: 2
#     Edge 37, Type (0, 0), BuildingBlock: AJUNOK_clean_linker_0, # of connection points: 2
#     Edge 38, Type (0, 0), BuildingBlock: AJUNOK_clean_linker_0, # of connection points: 2
#     Edge 39, Type (0, 0), BuildingBlock: AJUNOK_clean_linker_0, # of connection points: 2
#     Edge 40, Type (0, 0), BuildingBlock: AJUNOK_clean_linker_0, # of connection points: 2
#     Edge 41, Type (0, 0), BuildingBlock: AJUNOK_clean_linker_0, # of connection points: 2
#     Edge 42, Type (0, 0), BuildingBlock: AJUNOK_clean_linker_0, # of connection points: 2
#     Edge 43, Type (0, 0), BuildingBlock: AJUNOK_clean_linker_0, # of connection points: 2
#     Edge 44, Type (0, 0), BuildingBlock: AJUNOK_clean_linker_0, # of connection points: 2
#     Edge 45, Type (0, 0), BuildingBlock: AJUNOK_clean_linker_0, # of connection points: 2
#     Edge 46, Type (0, 0), BuildingBlock: AJUNOK_clean_linker_0, # of connection points: 2
#     Edge 47, Type (0, 0), BuildingBlock: AJUNOK_clean_linker_0, # of connection points: 2
# Relax obj value: 0.233
# Max RMSD: 0.082
# Mean RMSD: 0.081
data_MOF--net-pcb--node1-UXUYUI_clean_sbu_0--edge1-AJUNOK_clean_linker_0
_symmetry_space_group_name_H-M    P1
_symmetry_Int_Tables_number       1
_symmetry_cell_setting            triclinic
loop_
_symmetry_equiv_pos_as_xyz
'x, y, z'
_cell_length_a     56.654831
_cell_length_b     56.418058
_cell_length_c     56.567997
_cell_angle_alpha  90.06976
_cell_angle_beta   89.942636
_cell_angle_gamma 90.144664
loop_
_atom_site_label
_atom_site_type_symbol
_atom_site_fract_x
_atom_site_fract_y
_atom_site_fract_z
_atom_type_partial_charge
Li0 Li 0.15978 0.16507 0.13164 0.0
Li1 Li 0.168 0.17407 0.17163 0.0
Li2 Li 0.15787 0.13403 0.16228 0.0
Li3 Li 0.12766 0.167 0.16166 0.0
C4 C 0.20084 0.13812 0.13822 0.0
N5 N 0.23067 0.11015 0.11149 0.0
C6 C 0.22521 0.14192 0.13889 0.0
C7 C 0.19165 0.12005 0.12403 0.0
C8 C 0.24 0.12762 0.12522 0.0
C9 C 0.20701 0.1061 0.11064 0.0
C10 C 0.15957 0.21269 0.14165 0.0
C11 C 0.15909 0.2536 0.12935 0.0
N12 N 0.18268 0.2525 0.12498 0.0
C13 C 0.1838 0.21195 0.137 0.0
C14 C 0.14709 0.23366 0.13777 0.0
C15 C 0.19516 0.23227 0.1286 0.0
C16 C 0.14552 0.17552 0.0861 0.0
N17 N 0.16519 0.17134 0.09912 0.0
C18 C 0.18957 0.17472 0.06479 0.0
C19 C 0.18704 0.17137 0.08913 0.0
C20 C 0.16944 0.17834 0.0508 0.0
C21 C 0.14721 0.17891 0.06176 0.0
H22 H 0.1284 0.17557 0.09461 0.0
H23 H 0.20248 0.1686 0.09993 0.0
C24 C 0.20784 0.18295 0.19992 0.0
N25 N 0.18751 0.19265 0.19169 0.0
C26 C 0.22269 0.19607 0.21464 0.0
C27 C 0.1956 0.22903 0.21172 0.0
C28 C 0.18104 0.21513 0.19744 0.0
C29 C 0.21665 0.21944 0.22041 0.0
H30 H 0.21242 0.16498 0.19508 0.0
H31 H 0.16461 0.22225 0.1909 0.0
C32 C 0.11983 0.12839 0.12425 0.0
N33 N 0.09017 0.10043 0.09716 0.0
C34 C 0.09749 0.12206 0.13272 0.0
C35 C 0.12702 0.12051 0.10193 0.0
C36 C 0.08278 0.1079 0.11879 0.0
C37 C 0.11179 0.10639 0.08852 0.0
C38 C 0.15014 0.15926 0.21127 0.0
C39 C 0.16702 0.14653 0.22396 0.0
C40 C 0.13917 0.17885 0.22164 0.0
C41 C 0.17287 0.15381 0.24684 0.0
C42 C 0.14551 0.18556 0.24456 0.0
N43 N 0.1621 0.17303 0.25656 0.0
C44 C 0.18305 0.09307 0.1768 0.0
C45 C 0.14376 0.08619 0.16414 0.0
C46 C 0.18653 0.06878 0.1802 0.0
N47 N 0.162 0.10119 0.16864 0.0
C48 C 0.1465 0.06185 0.1671 0.0
C49 C 0.16809 0.05284 0.17525 0.0
H50 H 0.19724 0.10543 0.18033 0.0
H51 H 0.12716 0.09306 0.15795 0.0
C52 C 0.08398 0.18775 0.15065 0.0
N53 N 0.09544 0.17373 0.16638 0.0
C54 C 0.05961 0.19094 0.15249 0.0
C55 C 0.05951 0.16549 0.18688 0.0
C56 C 0.08389 0.16296 0.18449 0.0
C57 C 0.04703 0.17946 0.17061 0.0
H58 H 0.0937 0.19592 0.13633 0.0
H59 H 0.09351 0.15163 0.1965 0.0
O60 O 0.18625 0.15215 0.15145 0.0
O61 O 0.14794 0.19306 0.14986 0.0
O62 O 0.13435 0.14253 0.13759 0.0
O63 O 0.14469 0.15286 0.18863 0.0
H64 H 0.2326 0.15587 0.1498 0.0
H65 H 0.17292 0.11668 0.12352 0.0
H66 H 0.2589 0.1304 0.12552 0.0
H67 H 0.20011 0.09202 0.09961 0.0
H68 H 0.14965 0.26995 0.12628 0.0
H69 H 0.1938 0.19593 0.13989 0.0
H70 H 0.12831 0.23449 0.14125 0.0
H71 H 0.21391 0.23195 0.12496 0.0
H72 H 0.20701 0.17431 0.05696 0.0
H73 H 0.13122 0.18119 0.05154 0.0
H74 H 0.23887 0.18825 0.22115 0.0
H75 H 0.19045 0.247 0.21606 0.0
H76 H 0.09167 0.12774 0.15001 0.0
H77 H 0.14414 0.12527 0.09491 0.0
H78 H 0.0655 0.10282 0.12519 0.0
H79 H 0.11715 0.1002 0.07123 0.0
H80 H 0.1757 0.13137 0.2161 0.0
H81 H 0.12613 0.18892 0.21196 0.0
H82 H 0.18602 0.14424 0.25683 0.0
H83 H 0.1373 0.20078 0.25277 0.0
H84 H 0.20344 0.06252 0.1865 0.0
H85 H 0.13202 0.05018 0.16246 0.0
H86 H 0.05063 0.20187 0.13962 0.0
H87 H 0.05045 0.1558 0.2007 0.0
Li88 Li 0.82313 0.16951 0.17707 0.0
Li89 Li 0.83295 0.12953 0.16566 0.0
Li90 Li 0.86389 0.1609 0.16505 0.0
Li91 Li 0.83262 0.15966 0.13587 0.0
C92 C 0.83912 0.13817 0.21378 0.0
N93 N 0.82486 0.11778 0.25586 0.0
C94 C 0.81522 0.13376 0.21803 0.0
C95 C 0.85578 0.13225 0.23097 0.0
C96 C 0.80835 0.12343 0.23938 0.0
C97 C 0.84822 0.12195 0.25213 0.0
C98 C 0.78589 0.13475 0.1543 0.0
C99 C 0.76421 0.10183 0.13773 0.0
N100 N 0.7463 0.10602 0.1532 0.0
C101 C 0.76716 0.13886 0.16988 0.0
C102 C 0.78432 0.11621 0.13795 0.0
C103 C 0.74734 0.12409 0.1691 0.0
C104 C 0.78699 0.20187 0.18536 0.0
N105 N 0.80447 0.18962 0.1963 0.0
C106 C 0.79473 0.20719 0.23345 0.0
C107 C 0.80885 0.19229 0.21979 0.0
C108 C 0.7764 0.21978 0.22264 0.0
C109 C 0.77269 0.21728 0.19828 0.0
H110 H 0.7842 0.19961 0.16657 0.0
H111 H 0.82336 0.18298 0.22792 0.0
C112 C 0.84772 0.08283 0.16607 0.0
N113 N 0.82882 0.09647 0.17182 0.0
C114 C 0.84686 0.05833 0.16908 0.0
C115 C 0.80721 0.06223 0.18438 0.0
C116 C 0.80894 0.08675 0.18132 0.0
C117 C 0.8263 0.04776 0.17804 0.0
H118 H 0.86347 0.091 0.15894 0.0
H119 H 0.79433 0.0979 0.18639 0.0
C120 C 0.85069 0.20822 0.16477 0.0
N121 N 0.86444 0.25028 0.18576 0.0
C122 C 0.84908 0.22951 0.15229 0.0
C123 C 0.85931 0.2083 0.18792 0.0
C124 C 0.85613 0.25059 0.16321 0.0
C125 C 0.86616 0.22975 0.19822 0.0
C126 C 0.86399 0.12901 0.11951 0.0
C127 C 0.883 0.14008 0.10823 0.0
C128 C 0.8514 0.11126 0.10771 0.0
C129 C 0.88876 0.13358 0.08509 0.0
C130 C 0.8577 0.10526 0.08458 0.0
N131 N 0.87607 0.11648 0.07383 0.0
C132 C 0.90926 0.15526 0.18489 0.0
C133 C 0.90644 0.18447 0.1549 0.0
C134 C 0.93355 0.15907 0.18676 0.0
N135 N 0.89634 0.16784 0.16907 0.0
C136 C 0.93069 0.1887 0.15603 0.0
C137 C 0.94453 0.1758 0.17202 0.0
H138 H 0.9008 0.14183 0.19556 0.0
H139 H 0.89573 0.19398 0.14227 0.0
C140 C 0.80827 0.15762 0.0917 0.0
N141 N 0.82716 0.1666 0.10354 0.0
C142 C 0.80664 0.16027 0.06722 0.0
C143 C 0.84334 0.18226 0.06784 0.0
C144 C 0.84412 0.17942 0.09231 0.0
C145 C 0.82471 0.1721 0.05502 0.0
H146 H 0.79488 0.14778 0.1011 0.0
H147 H 0.85883 0.18651 0.10227 0.0
O148 O 0.84625 0.14813 0.19289 0.0
O149 O 0.80543 0.14907 0.15484 0.0
O150 O 0.84372 0.1875 0.15427 0.0
O151 O 0.85764 0.13561 0.14192 0.0
H152 H 0.80213 0.13836 0.20501 0.0
H153 H 0.87436 0.13561 0.22807 0.0
H154 H 0.78989 0.11992 0.24285 0.0
H155 H 0.86093 0.11728 0.26559 0.0
H156 H 0.76286 0.08731 0.12529 0.0
H157 H 0.76791 0.15327 0.18249 0.0
H158 H 0.79855 0.1128 0.12572 0.0
H159 H 0.73278 0.127 0.18114 0.0
H160 H 0.79822 0.20908 0.25219 0.0
H161 H 0.7587 0.22687 0.18945 0.0
H162 H 0.86193 0.04769 0.16401 0.0
H163 H 0.7912 0.05465 0.19168 0.0
H164 H 0.84245 0.22972 0.13435 0.0
H165 H 0.86071 0.19202 0.19787 0.0
H166 H 0.85498 0.26721 0.15377 0.0
H167 H 0.87284 0.23008 0.21613 0.0
H168 H 0.893 0.15378 0.11711 0.0
H169 H 0.83694 0.1022 0.11631 0.0
H170 H 0.90326 0.14219 0.07606 0.0
H171 H 0.84799 0.09167 0.07519 0.0
H172 H 0.94377 0.14846 0.19895 0.0
H173 H 0.93861 0.20166 0.14432 0.0
H174 H 0.79201 0.15225 0.0578 0.0
H175 H 0.85745 0.1917 0.05895 0.0
Li176 Li 0.83877 0.8641 0.16548 0.0
Li177 Li 0.87095 0.83242 0.1626 0.0
Li178 Li 0.83777 0.83387 0.13476 0.0
Li179 Li 0.83121 0.82275 0.17426 0.0
C180 C 0.86547 0.86723 0.11808 0.0
N181 N 0.86984 0.88339 0.0722 0.0
C182 C 0.88272 0.85775 0.10317 0.0
C183 C 0.85057 0.88506 0.10975 0.0
C184 C 0.88461 0.86612 0.08001 0.0
C185 C 0.85304 0.89297 0.08647 0.0
C186 C 0.84803 0.84095 0.21397 0.0
C187 C 0.8505 0.81742 0.24943 0.0
N188 N 0.83564 0.83276 0.26049 0.0
C189 C 0.83297 0.8566 0.22574 0.0
C190 C 0.85707 0.82132 0.22594 0.0
C191 C 0.82685 0.85211 0.24925 0.0
C192 C 0.8124 0.90519 0.17835 0.0
N193 N 0.83389 0.8965 0.17212 0.0
C194 C 0.85066 0.93531 0.17224 0.0
C195 C 0.8529 0.9109 0.16929 0.0
C196 C 0.82863 0.94498 0.17825 0.0
C197 C 0.80939 0.92957 0.18166 0.0
H198 H 0.79762 0.89321 0.18052 0.0
H199 H 0.86973 0.90341 0.16423 0.0
C200 C 0.91631 0.81654 0.14923 0.0
N201 N 0.90374 0.82801 0.1662 0.0
C202 C 0.94089 0.81561 0.15064 0.0
C203 C 0.93891 0.83747 0.18741 0.0
C204 C 0.91439 0.83802 0.18527 0.0
C205 C 0.95247 0.82669 0.16963 0.0
H206 H 0.90726 0.80874 0.13428 0.0
H207 H 0.90386 0.84699 0.19847 0.0
C208 C 0.79077 0.83435 0.14881 0.0
N209 N 0.74868 0.81291 0.13636 0.0
C210 C 0.79043 0.81064 0.14161 0.0
C211 C 0.76971 0.84715 0.14969 0.0
C212 C 0.76897 0.80012 0.13539 0.0
C213 C 0.7486 0.836 0.14331 0.0
C214 C 0.85729 0.78309 0.15364 0.0
C215 C 0.8475 0.76575 0.13893 0.0
C216 C 0.87334 0.77651 0.17119 0.0
C217 C 0.85369 0.74203 0.14224 0.0
C218 C 0.8791 0.75261 0.17392 0.0
N219 N 0.86923 0.73601 0.15952 0.0
C220 C 0.84384 0.81399 0.08964 0.0
C221 C 0.8133 0.84258 0.09215 0.0
C222 C 0.84101 0.81242 0.06519 0.0
N223 N 0.83035 0.82921 0.10243 0.0
C224 C 0.80986 0.84156 0.06776 0.0
C225 C 0.82422 0.82676 0.05395 0.0
H226 H 0.85747 0.80383 0.09833 0.0
H227 H 0.80302 0.85472 0.10277 0.0
C228 C 0.79444 0.81559 0.20617 0.0
N229 N 0.81184 0.80371 0.19463 0.0
C230 C 0.77898 0.80359 0.2212 0.0
C231 C 0.79922 0.76713 0.21182 0.0
C232 C 0.81448 0.7799 0.19723 0.0
C233 C 0.7811 0.77896 0.22394 0.0
H234 H 0.79257 0.83449 0.20367 0.0
H235 H 0.82817 0.7706 0.18792 0.0
O236 O 0.86268 0.85858 0.14049 0.0
O237 O 0.8538 0.8448 0.1908 0.0
O238 O 0.8115 0.84504 0.15525 0.0
O239 O 0.85155 0.80639 0.15041 0.0
H240 H 0.89429 0.84384 0.10931 0.0
H241 H 0.83696 0.89242 0.12099 0.0
H242 H 0.89775 0.85881 0.06821 0.0
H243 H 0.8415 0.90661 0.07971 0.0
H244 H 0.85721 0.8022 0.25887 0.0
H245 H 0.82586 0.8719 0.21674 0.0
H246 H 0.86888 0.80914 0.21718 0.0
H247 H 0.81507 0.86397 0.25852 0.0
H248 H 0.86589 0.94657 0.16925 0.0
H249 H 0.79222 0.93628 0.18673 0.0
H250 H 0.95079 0.80716 0.13659 0.0
H251 H 0.94721 0.84582 0.20253 0.0
H252 H 0.8065 0.80044 0.1409 0.0
H253 H 0.76968 0.86551 0.15526 0.0
H254 H 0.76846 0.78178 0.12981 0.0
H255 H 0.73216 0.84569 0.14391 0.0
H256 H 0.83521 0.77055 0.1251 0.0
H257 H 0.88119 0.78965 0.18265 0.0
H258 H 0.84618 0.72842 0.13104 0.0
H259 H 0.89143 0.74727 0.18748 0.0
H260 H 0.8525 0.80091 0.05507 0.0
H261 H 0.79652 0.85264 0.05971 0.0
H262 H 0.76562 0.81351 0.23063 0.0
H263 H 0.80137 0.74812 0.21333 0.0
Li264 Li 0.13621 0.84105 0.15497 0.0
Li265 Li 0.17527 0.82716 0.16649 0.0
Li266 Li 0.16791 0.86987 0.15621 0.0
Li267 Li 0.16916 0.83927 0.12523 0.0
C268 C 0.13854 0.85118 0.20057 0.0
N269 N 0.10429 0.85119 0.23538 0.0
C270 C 0.13774 0.83295 0.21725 0.0
C271 C 0.12212 0.86958 0.20179 0.0
C272 C 0.12025 0.83324 0.23468 0.0
C273 C 0.10487 0.86921 0.21945 0.0
C274 C 0.15637 0.78922 0.13996 0.0
C275 C 0.17833 0.75605 0.12454 0.0
N276 N 0.16213 0.74095 0.134 0.0
C277 C 0.13976 0.7734 0.14923 0.0
C278 C 0.17566 0.7805 0.12726 0.0
C279 C 0.14306 0.74906 0.14616 0.0
C280 C 0.08866 0.85015 0.14538 0.0
N281 N 0.10313 0.83663 0.15893 0.0
C282 C 0.06991 0.81841 0.17775 0.0
C283 C 0.0943 0.82068 0.17467 0.0
C284 C 0.05466 0.83274 0.1645 0.0
C285 C 0.06426 0.84852 0.14793 0.0
H286 H 0.09606 0.8622 0.13255 0.0
H287 H 0.10619 0.80989 0.18498 0.0
C288 C 0.21468 0.81247 0.1926 0.0
N289 N 0.19224 0.80643 0.18657 0.0
C290 C 0.22791 0.79773 0.20723 0.0
C291 C 0.19444 0.77116 0.20978 0.0
C292 C 0.1819 0.78637 0.195 0.0
C293 C 0.21774 0.77682 0.21602 0.0
H294 H 0.22229 0.82879 0.18608 0.0
H295 H 0.16383 0.78232 0.1905 0.0
C296 C 0.14025 0.88603 0.12086 0.0
N297 N 0.13136 0.93046 0.10239 0.0
C298 C 0.14938 0.89238 0.09878 0.0
C299 C 0.12634 0.90219 0.13339 0.0
C300 C 0.14473 0.91494 0.08977 0.0
C301 C 0.12214 0.92459 0.12381 0.0
C302 C 0.21688 0.84757 0.13737 0.0
C303 C 0.22912 0.86802 0.13063 0.0
C304 C 0.22749 0.82541 0.13455 0.0
C305 C 0.2516 0.8659 0.12067 0.0
C306 C 0.25 0.82403 0.12454 0.0
N307 N 0.26147 0.84414 0.11783 0.0
C308 C 0.17099 0.91032 0.18548 0.0
C309 C 0.18226 0.91684 0.14567 0.0
C310 C 0.17256 0.93455 0.19031 0.0
N311 N 0.17511 0.90209 0.16327 0.0
C312 C 0.18369 0.94121 0.1496 0.0
C313 C 0.17807 0.95041 0.17198 0.0
H314 H 0.16577 0.89816 0.19929 0.0
H315 H 0.18576 0.90981 0.12824 0.0
C316 C 0.15938 0.81882 0.08176 0.0
N317 N 0.17549 0.83281 0.09286 0.0
C318 C 0.16067 0.81527 0.0574 0.0
C319 C 0.19546 0.84014 0.05635 0.0
C320 C 0.19348 0.84325 0.08077 0.0
C321 C 0.17866 0.82632 0.04436 0.0
H322 H 0.14503 0.81108 0.09176 0.0
H323 H 0.20558 0.85495 0.08977 0.0
O324 O 0.15533 0.85101 0.18316 0.0
O325 O 0.15337 0.81312 0.14282 0.0
O326 O 0.14486 0.8641 0.13009 0.0
O327 O 0.19485 0.84937 0.14716 0.0
H328 H 0.15041 0.81867 0.21671 0.0
H329 H 0.1226 0.88393 0.18917 0.0
H330 H 0.11935 0.81917 0.24763 0.0
H331 H 0.09194 0.88326 0.22048 0.0
H332 H 0.19322 0.74907 0.11481 0.0
H333 H 0.12457 0.77984 0.15886 0.0
H334 H 0.18828 0.79247 0.11933 0.0
H335 H 0.13044 0.73661 0.15342 0.0
H336 H 0.06307 0.80592 0.19058 0.0
H337 H 0.053 0.85939 0.13694 0.0
H338 H 0.24578 0.80274 0.21188 0.0
H339 H 0.18609 0.75508 0.2161 0.0
H340 H 0.16003 0.8801 0.08875 0.0
H341 H 0.11901 0.89756 0.15041 0.0
H342 H 0.15179 0.92012 0.07277 0.0
H343 H 0.11158 0.93732 0.13342 0.0
H344 H 0.22133 0.88533 0.13295 0.0
H345 H 0.21861 0.80947 0.14028 0.0
H346 H 0.2612 0.88157 0.11523 0.0
H347 H 0.25838 0.80699 0.1222 0.0
H348 H 0.16888 0.94083 0.20803 0.0
H349 H 0.18806 0.95279 0.13497 0.0
H350 H 0.14732 0.8046 0.04871 0.0
H351 H 0.20922 0.84946 0.0468 0.0
Li352 Li 0.1609 0.86953 0.82922 0.0
Li353 Li 0.1627 0.84128 0.86102 0.0
Li354 Li 0.17215 0.8295 0.82103 0.0
Li355 Li 0.13213 0.83776 0.83166 0.0
C356 C 0.20357 0.86724 0.85422 0.0
N357 N 0.23242 0.89671 0.88056 0.0
C358 C 0.19389 0.88601 0.86712 0.0
C359 C 0.22794 0.86349 0.85472 0.0
C360 C 0.20876 0.90071 0.88032 0.0
C361 C 0.24222 0.87856 0.86815 0.0
C362 C 0.1198 0.86337 0.87112 0.0
C363 C 0.09639 0.8416 0.89941 0.0
N364 N 0.08478 0.86188 0.90514 0.0
C365 C 0.10766 0.884 0.87731 0.0
C366 C 0.11415 0.84199 0.88227 0.0
C367 C 0.09001 0.88288 0.89455 0.0
C368 C 0.14562 0.91612 0.82413 0.0
N369 N 0.16486 0.90205 0.82146 0.0
C370 C 0.18913 0.93562 0.81277 0.0
C371 C 0.18626 0.91117 0.81538 0.0
C372 C 0.1698 0.95068 0.8166 0.0
C373 C 0.1477 0.94063 0.82176 0.0
H374 H 0.12883 0.90831 0.82886 0.0
H375 H 0.20129 0.89957 0.81335 0.0
C376 C 0.17827 0.81672 0.90205 0.0
N377 N 0.16966 0.83759 0.89376 0.0
C378 C 0.1815 0.81343 0.92635 0.0
C379 C 0.16735 0.85331 0.93288 0.0
C380 C 0.16456 0.85587 0.90859 0.0
C381 C 0.17564 0.83181 0.94202 0.0
H382 H 0.1821 0.80247 0.88984 0.0
H383 H 0.15771 0.87228 0.90164 0.0
C384 C 0.15841 0.85701 0.78231 0.0
N385 N 0.17721 0.87278 0.74005 0.0
C386 C 0.14383 0.86021 0.76267 0.0
C387 C 0.18256 0.86184 0.78046 0.0
C388 C 0.15367 0.8682 0.74146 0.0
C389 C 0.19172 0.86979 0.75894 0.0
C390 C 0.1465 0.7904 0.8352 0.0
C391 C 0.13653 0.78874 0.81266 0.0
C392 C 0.15049 0.7698 0.84827 0.0
C393 C 0.13073 0.76645 0.80356 0.0
C394 C 0.14444 0.74783 0.83856 0.0
N395 N 0.13478 0.74663 0.81658 0.0
C396 C 0.21327 0.80351 0.81088 0.0
C397 C 0.18426 0.80241 0.78069 0.0
C398 C 0.22836 0.78942 0.79733 0.0
N399 N 0.19179 0.80979 0.8023 0.0
C400 C 0.19873 0.78831 0.76659 0.0
C401 C 0.22118 0.78188 0.77479 0.0
H402 H 0.21869 0.80957 0.82819 0.0
H403 H 0.16703 0.80753 0.77434 0.0
C404 C 0.08698 0.84687 0.81443 0.0
N405 N 0.09958 0.83093 0.82719 0.0
C406 C 0.06251 0.84462 0.8126 0.0
C407 C 0.06457 0.80922 0.83657 0.0
C408 C 0.08897 0.81223 0.83805 0.0
C409 C 0.051 0.82571 0.82396 0.0
H410 H 0.0959 0.86181 0.80639 0.0
H411 H 0.09931 0.80008 0.84852 0.0
O412 O 0.18947 0.8526 0.84103 0.0
O413 O 0.13705 0.86426 0.85416 0.0
O414 O 0.14892 0.84913 0.80312 0.0
O415 O 0.15253 0.81198 0.84451 0.0
H416 H 0.17512 0.88933 0.86686 0.0
H417 H 0.23573 0.84908 0.84478 0.0
H418 H 0.20149 0.91532 0.89033 0.0
H419 H 0.26111 0.87585 0.86869 0.0
H420 H 0.09185 0.82517 0.90816 0.0
H421 H 0.11185 0.90072 0.86893 0.0
H422 H 0.12337 0.82584 0.87782 0.0
H423 H 0.08047 0.89871 0.89951 0.0
H424 H 0.20636 0.94269 0.80833 0.0
H425 H 0.13239 0.95167 0.82487 0.0
H426 H 0.18773 0.79652 0.93286 0.0
H427 H 0.16276 0.8679 0.94447 0.0
H428 H 0.1251 0.85653 0.76383 0.0
H429 H 0.19417 0.85939 0.7954 0.0
H430 H 0.14258 0.87075 0.72612 0.0
H431 H 0.21038 0.87356 0.75726 0.0
H432 H 0.13325 0.80447 0.80229 0.0
H433 H 0.15819 0.77078 0.86575 0.0
H434 H 0.12302 0.76492 0.78614 0.0
H435 H 0.14744 0.73174 0.84848 0.0
H436 H 0.24555 0.78474 0.80424 0.0
H437 H 0.19237 0.78238 0.74953 0.0
H438 H 0.05265 0.85809 0.80327 0.0
H439 H 0.05633 0.79448 0.84566 0.0
Li440 Li 0.16128 0.16464 0.86724 0.0
Li441 Li 0.16222 0.13397 0.83644 0.0
Li442 Li 0.17174 0.17478 0.82844 0.0
Li443 Li 0.13098 0.16379 0.8373 0.0
C444 C 0.21153 0.15479 0.84216 0.0
N445 N 0.2572 0.16006 0.82577 0.0
C446 C 0.22121 0.13794 0.82686 0.0
C447 C 0.22519 0.17416 0.84937 0.0
C448 C 0.24432 0.14095 0.81872 0.0
C449 C 0.2482 0.17657 0.8408 0.0
C450 C 0.12128 0.12176 0.86044 0.0
C451 C 0.09603 0.09526 0.83845 0.0
N452 N 0.08727 0.08661 0.85912 0.0
C453 C 0.11204 0.11263 0.88145 0.0
C454 C 0.11322 0.11305 0.83874 0.0
C455 C 0.09485 0.09485 0.88041 0.0
C456 C 0.14563 0.17226 0.91322 0.0
N457 N 0.16551 0.16969 0.90004 0.0
C458 C 0.18976 0.17368 0.93432 0.0
C459 C 0.18734 0.1703 0.90997 0.0
C460 C 0.16951 0.17657 0.94835 0.0
C461 C 0.14723 0.17583 0.93754 0.0
H462 H 0.12853 0.1714 0.90479 0.0
H463 H 0.20282 0.16799 0.89902 0.0
C464 C 0.16855 0.09291 0.8081 0.0
N465 N 0.16823 0.10158 0.83051 0.0
C466 C 0.17117 0.0686 0.80419 0.0
C467 C 0.17343 0.06284 0.8465 0.0
C468 C 0.1708 0.08721 0.84957 0.0
C469 C 0.17355 0.05326 0.82357 0.0
H470 H 0.1664 0.10482 0.79332 0.0
H471 H 0.17019 0.09468 0.86719 0.0
C472 C 0.14779 0.20874 0.86582 0.0
N473 N 0.14578 0.24185 0.90182 0.0
C474 C 0.12598 0.21653 0.87432 0.0
C475 C 0.16858 0.21814 0.87533 0.0
C476 C 0.12533 0.2332 0.8926 0.0
C477 C 0.1672 0.23475 0.89361 0.0
C478 C 0.14337 0.16399 0.7893 0.0
C479 C 0.13908 0.18841 0.78895 0.0
C480 C 0.14041 0.15074 0.76862 0.0
C481 C 0.13189 0.19911 0.76791 0.0
C482 C 0.13316 0.1621 0.74794 0.0
N483 N 0.1291 0.18585 0.74802 0.0
C484 C 0.20328 0.18373 0.79122 0.0
C485 C 0.19218 0.21803 0.81276 0.0
C486 C 0.21785 0.1972 0.77658 0.0
N487 N 0.19109 0.19425 0.80906 0.0
C488 C 0.2063 0.23224 0.79832 0.0
C489 C 0.21936 0.22183 0.77994 0.0
H490 H 0.20174 0.16482 0.78848 0.0
H491 H 0.18191 0.22599 0.82675 0.0
C492 C 0.08572 0.16833 0.85431 0.0
N493 N 0.09773 0.16766 0.8335 0.0
C494 C 0.06115 0.16877 0.85452 0.0
C495 C 0.06154 0.16833 0.81179 0.0
C496 C 0.08619 0.16762 0.8124 0.0
C497 C 0.04882 0.16852 0.83306 0.0
H498 H 0.09532 0.16793 0.87083 0.0
H499 H 0.09587 0.16634 0.79605 0.0
O500 O 0.18881 0.15233 0.85003 0.0
O501 O 0.13788 0.13941 0.86125 0.0
O502 O 0.14881 0.19199 0.84831 0.0
O503 O 0.15089 0.15307 0.80953 0.0
H504 H 0.21095 0.12282 0.82113 0.0
H505 H 0.21806 0.1873 0.86129 0.0
H506 H 0.25198 0.12812 0.80675 0.0
H507 H 0.2589 0.19157 0.84608 0.0
H508 H 0.08961 0.08837 0.82179 0.0
H509 H 0.11804 0.11927 0.89838 0.0
H510 H 0.12006 0.11998 0.82228 0.0
H511 H 0.08752 0.08762 0.89654 0.0
H512 H 0.20721 0.17402 0.94213 0.0
H513 H 0.1312 0.17745 0.94787 0.0
H514 H 0.17112 0.06183 0.78626 0.0
H515 H 0.1746 0.05155 0.86192 0.0
H516 H 0.10972 0.20984 0.8669 0.0
H517 H 0.1856 0.2124 0.8689 0.0
H518 H 0.10856 0.23927 0.89945 0.0
H519 H 0.18315 0.24194 0.9013 0.0
H520 H 0.14116 0.19904 0.8047 0.0
H521 H 0.14365 0.13185 0.76853 0.0
H522 H 0.12851 0.21797 0.76741 0.0
H523 H 0.13078 0.15204 0.73183 0.0
H524 H 0.22801 0.18838 0.76296 0.0
H525 H 0.20684 0.25119 0.80136 0.0
H526 H 0.05185 0.16904 0.87126 0.0
H527 H 0.05249 0.16791 0.79493 0.0
Li528 Li 0.8335 0.13175 0.84006 0.0
Li529 Li 0.83338 0.16193 0.87141 0.0
Li530 Li 0.82494 0.17288 0.83046 0.0
Li531 Li 0.86481 0.16254 0.84216 0.0
C532 C 0.78481 0.14462 0.84336 0.0
N533 N 0.74093 0.13101 0.82688 0.0
C534 C 0.76657 0.1397 0.85927 0.0
C535 C 0.78071 0.14276 0.81908 0.0
C536 C 0.74451 0.13279 0.85059 0.0
C537 C 0.75841 0.13583 0.81109 0.0
C538 C 0.87449 0.13606 0.88196 0.0
C539 C 0.90016 0.15519 0.91014 0.0
N540 N 0.90952 0.13376 0.91579 0.0
C541 C 0.88437 0.11423 0.888 0.0
C542 C 0.88246 0.15673 0.89305 0.0
C543 C 0.90206 0.11344 0.90517 0.0
C544 C 0.8498 0.08715 0.82957 0.0
N545 N 0.82937 0.09901 0.83374 0.0
C546 C 0.80729 0.0629 0.83239 0.0
C547 C 0.80827 0.0875 0.83497 0.0
C548 C 0.82825 0.05018 0.82897 0.0
C549 C 0.84966 0.06256 0.82714 0.0
H550 H 0.86631 0.09681 0.82883 0.0
H551 H 0.7923 0.09717 0.83868 0.0
C552 C 0.82485 0.18752 0.91408 0.0
N553 N 0.82691 0.16577 0.90392 0.0
C554 C 0.82309 0.18956 0.93866 0.0
C555 C 0.82514 0.14682 0.94154 0.0
C556 C 0.82657 0.14559 0.91699 0.0
C557 C 0.82384 0.16902 0.9526 0.0
H558 H 0.8253 0.20324 0.90318 0.0
H559 H 0.82828 0.12857 0.90834 0.0
C560 C 0.8508 0.14471 0.79173 0.0
N561 N 0.85853 0.13172 0.74523 0.0
C562 C 0.86974 0.15439 0.77911 0.0
C563 C 0.83595 0.12823 0.78074 0.0
C564 C 0.87331 0.14766 0.7556 0.0
C565 C 0.84012 0.12194 0.75721 0.0
C566 C 0.85337 0.21093 0.8444 0.0
C567 C 0.8608 0.21192 0.82086 0.0
C568 C 0.85384 0.23146 0.85823 0.0
C569 C 0.86857 0.23347 0.81151 0.0
C570 C 0.86176 0.25269 0.84824 0.0
N571 N 0.86889 0.25324 0.82528 0.0
C572 C 0.78836 0.20469 0.82062 0.0
C573 C 0.8123 0.19538 0.78748 0.0
C574 C 0.77435 0.21954 0.80682 0.0
N575 N 0.80685 0.19298 0.81076 0.0
C576 C 0.79881 0.21006 0.77305 0.0
C577 C 0.7796 0.22238 0.78272 0.0
H578 H 0.78443 0.20232 0.83919 0.0
H579 H 0.82715 0.18598 0.78011 0.0
C580 C 0.90909 0.14737 0.82822 0.0
N581 N 0.89774 0.16634 0.83768 0.0
C582 C 0.93361 0.14742 0.82617 0.0
C583 C 0.93431 0.18675 0.84325 0.0
C584 C 0.90975 0.18585 0.84518 0.0
C585 C 0.94646 0.1672 0.83399 0.0
H586 H 0.89904 0.13198 0.82275 0.0
H587 H 0.90042 0.20041 0.8533 0.0
O588 O 0.80643 0.1515 0.85168 0.0
O589 O 0.85724 0.1371 0.86509 0.0
O590 O 0.84717 0.15103 0.81482 0.0
O591 O 0.84558 0.19006 0.85396 0.0
H592 H 0.76946 0.14115 0.87814 0.0
H593 H 0.79451 0.14674 0.80653 0.0
H594 H 0.73025 0.12886 0.8627 0.0
H595 H 0.755 0.13432 0.79233 0.0
H596 H 0.90649 0.17104 0.91888 0.0
H597 H 0.87842 0.09808 0.8795 0.0
H598 H 0.87509 0.1738 0.8885 0.0
H599 H 0.90988 0.09666 0.91004 0.0
H600 H 0.79051 0.0538 0.83405 0.0
H601 H 0.86614 0.05325 0.82438 0.0
H602 H 0.82214 0.20695 0.94674 0.0
H603 H 0.82555 0.13064 0.95183 0.0
H604 H 0.8816 0.16699 0.78734 0.0
H605 H 0.82147 0.12018 0.79026 0.0
H606 H 0.88784 0.15508 0.74562 0.0
H607 H 0.82874 0.10922 0.7485 0.0
H608 H 0.86059 0.19624 0.80994 0.0
H609 H 0.84818 0.231 0.8765 0.0
H610 H 0.87435 0.23446 0.79331 0.0
H611 H 0.86223 0.26871 0.85875 0.0
H612 H 0.75939 0.2284 0.8148 0.0
H613 H 0.80344 0.2119 0.75456 0.0
H614 H 0.94247 0.13209 0.81884 0.0
H615 H 0.94377 0.20217 0.84966 0.0
Li616 Li 0.83607 0.86643 0.83914 0.0
Li617 Li 0.8346 0.83609 0.87016 0.0
Li618 Li 0.86714 0.83725 0.83957 0.0
Li619 Li 0.82753 0.82413 0.82882 0.0
C620 C 0.8648 0.8825 0.87327 0.0
N621 N 0.87496 0.92742 0.89007 0.0
C622 C 0.85601 0.8899 0.89516 0.0
C623 C 0.87908 0.89785 0.86011 0.0
C624 C 0.86127 0.9127 0.9033 0.0
C625 C 0.8839 0.92052 0.86883 0.0
C626 C 0.7868 0.84269 0.85798 0.0
C627 C 0.75615 0.81603 0.87115 0.0
N628 N 0.74231 0.83494 0.87657 0.0
C629 C 0.77217 0.86185 0.86343 0.0
C630 C 0.77865 0.81959 0.86167 0.0
C631 C 0.74978 0.85757 0.87292 0.0
C632 C 0.83545 0.90958 0.81314 0.0
N633 N 0.82906 0.89878 0.83366 0.0
C634 C 0.81775 0.93576 0.85066 0.0
C635 C 0.81964 0.91119 0.85196 0.0
C636 C 0.82534 0.9475 0.83019 0.0
C637 C 0.8336 0.93417 0.81096 0.0
H638 H 0.8428 0.89923 0.79884 0.0
H639 H 0.8147 0.90209 0.86804 0.0
C640 C 0.84209 0.81581 0.91481 0.0
N641 N 0.82791 0.83086 0.90261 0.0
C642 C 0.83981 0.81372 0.9393 0.0
C643 C 0.8081 0.84229 0.9381 0.0
C644 C 0.81096 0.8438 0.91366 0.0
C645 C 0.82301 0.82751 0.95125 0.0
H646 H 0.85572 0.80608 0.90561 0.0
H647 H 0.80041 0.85618 0.90372 0.0
C648 C 0.86374 0.84722 0.79368 0.0
N649 N 0.89645 0.84602 0.7574 0.0
C650 C 0.86275 0.82929 0.77663 0.0
C651 C 0.88115 0.86475 0.79205 0.0
C652 C 0.87948 0.82895 0.75847 0.0
C653 C 0.8976 0.86376 0.77366 0.0
C654 C 0.84759 0.78554 0.85414 0.0
C655 C 0.86364 0.77092 0.84235 0.0
C656 C 0.83023 0.77537 0.86851 0.0
C657 C 0.86159 0.74634 0.84453 0.0
C658 C 0.82877 0.75072 0.87028 0.0
N659 N 0.84432 0.73682 0.85831 0.0
C660 C 0.9148 0.84454 0.84995 0.0
C661 C 0.90874 0.81764 0.81831 0.0
C662 C 0.93918 0.84245 0.84764 0.0
N663 N 0.90014 0.83245 0.83523 0.0
C664 C 0.93309 0.81498 0.81538 0.0
C665 C 0.94861 0.82764 0.83008 0.0
H666 H 0.90757 0.85584 0.86355 0.0
H667 H 0.89673 0.80794 0.80704 0.0
C668 C 0.78688 0.81036 0.80387 0.0
N669 N 0.80938 0.80382 0.80898 0.0
C670 C 0.7727 0.79602 0.78963 0.0
C671 C 0.80546 0.76899 0.7852 0.0
C672 C 0.81891 0.78371 0.79979 0.0
C673 C 0.78204 0.77511 0.7801 0.0
H674 H 0.77993 0.82679 0.81079 0.0
H675 H 0.83705 0.77928 0.80343 0.0
O676 O 0.85947 0.86036 0.86479 0.0
O677 O 0.80883 0.84661 0.84881 0.0
O678 O 0.84765 0.84768 0.81175 0.0
O679 O 0.84948 0.80967 0.85232 0.0
H680 H 0.84514 0.87826 0.90572 0.0
H681 H 0.88623 0.89238 0.84327 0.0
H682 H 0.85445 0.91869 0.92014 0.0
H683 H 0.89474 0.93264 0.85872 0.0
H684 H 0.74964 0.79823 0.8741 0.0
H685 H 0.77804 0.87985 0.86043 0.0
H686 H 0.78942 0.80457 0.85691 0.0
H687 H 0.73833 0.87224 0.87734 0.0
H688 H 0.81115 0.94558 0.86574 0.0
H689 H 0.83961 0.94278 0.79493 0.0
H690 H 0.85173 0.80226 0.94891 0.0
H691 H 0.79483 0.85307 0.94672 0.0
H692 H 0.84927 0.81575 0.77742 0.0
H693 H 0.88208 0.87886 0.80492 0.0
H694 H 0.87899 0.8151 0.74524 0.0
H695 H 0.91128 0.8771 0.77232 0.0
H696 H 0.8774 0.77845 0.83143 0.0
H697 H 0.81819 0.78635 0.87847 0.0
H698 H 0.87375 0.73482 0.8353 0.0
H699 H 0.81535 0.74263 0.88126 0.0
H700 H 0.95057 0.85251 0.85932 0.0
H701 H 0.93968 0.80298 0.80197 0.0
H702 H 0.75476 0.80138 0.78579 0.0
H703 H 0.81319 0.75295 0.77808 0.0
Li704 Li 0.67113 0.67188 0.67378 0.0
Li705 Li 0.66017 0.66214 0.63434 0.0
Li706 Li 0.63073 0.66263 0.6652 0.0
Li707 Li 0.66077 0.63149 0.66386 0.0
C708 C 0.6418 0.70997 0.66393 0.0
N709 N 0.62663 0.75087 0.6861 0.0
C710 C 0.63848 0.73071 0.65089 0.0
C711 C 0.63738 0.71002 0.68826 0.0
C712 C 0.63081 0.75121 0.66242 0.0
C713 C 0.62973 0.73087 0.69913 0.0
C714 C 0.70851 0.66051 0.64451 0.0
C715 C 0.75075 0.65954 0.63919 0.0
N716 N 0.75005 0.68179 0.62999 0.0
C717 C 0.70822 0.68336 0.63497 0.0
C718 C 0.72994 0.64848 0.64663 0.0
C719 C 0.7294 0.69381 0.62774 0.0
C720 C 0.69883 0.68162 0.71372 0.0
N721 N 0.69149 0.69064 0.69272 0.0
C722 C 0.71388 0.726 0.69895 0.0
C723 C 0.69855 0.71242 0.68519 0.0
C724 C 0.72174 0.71712 0.72069 0.0
C725 C 0.71394 0.69474 0.72819 0.0
H726 H 0.69297 0.66421 0.71916 0.0
H727 H 0.6923 0.71926 0.6685 0.0
C728 C 0.64619 0.68021 0.59075 0.0
N729 N 0.66368 0.66779 0.60145 0.0
C730 C 0.64632 0.68327 0.56628 0.0
C731 C 0.68275 0.6611 0.5644 0.0
C732 C 0.68176 0.65822 0.58887 0.0
C733 C 0.66479 0.67363 0.55277 0.0
H734 H 0.63176 0.68713 0.60122 0.0
H735 H 0.69511 0.64787 0.59774 0.0
C736 C 0.63729 0.63586 0.70662 0.0
N737 N 0.61145 0.60672 0.73621 0.0
C738 C 0.61863 0.62233 0.69764 0.0
C739 C 0.64277 0.63459 0.73066 0.0
C740 C 0.60579 0.60771 0.71288 0.0
C741 C 0.62951 0.61975 0.74534 0.0
C742 C 0.63365 0.62459 0.62088 0.0
C743 C 0.61263 0.62442 0.60797 0.0
C744 C 0.653 0.61155 0.61278 0.0
C745 C 0.61133 0.61117 0.58712 0.0
C746 C 0.65098 0.59853 0.59186 0.0
N747 N 0.63037 0.59862 0.57956 0.0
C748 C 0.58541 0.673 0.65086 0.0
C749 C 0.58862 0.67136 0.69262 0.0
C750 C 0.56115 0.67666 0.65245 0.0
N751 N 0.59847 0.66989 0.67072 0.0
C752 C 0.56433 0.67489 0.69505 0.0
C753 C 0.55029 0.67733 0.67475 0.0
H754 H 0.59386 0.67217 0.63373 0.0
H755 H 0.5995 0.66935 0.70817 0.0
C756 C 0.68869 0.59171 0.67583 0.0
N757 N 0.66672 0.59883 0.66934 0.0
C758 C 0.69365 0.56759 0.67843 0.0
C759 C 0.65311 0.55876 0.66829 0.0
C760 C 0.64901 0.58295 0.66565 0.0
C761 C 0.67572 0.55085 0.67445 0.0
H762 H 0.70243 0.60477 0.67861 0.0
H763 H 0.6318 0.58903 0.66014 0.0
O764 O 0.64932 0.68984 0.65275 0.0
O765 O 0.68806 0.64989 0.65191 0.0
O766 O 0.6503 0.65025 0.6921 0.0
O767 O 0.63554 0.63814 0.64087 0.0
H768 H 0.64183 0.73094 0.63204 0.0
H769 H 0.63987 0.6942 0.6987 0.0
H770 H 0.62818 0.76739 0.65254 0.0
H771 H 0.62626 0.73117 0.71794 0.0
H772 H 0.76745 0.65043 0.64074 0.0
H773 H 0.69184 0.69296 0.63313 0.0
H774 H 0.73048 0.63078 0.65396 0.0
H775 H 0.72942 0.71149 0.62035 0.0
H776 H 0.7193 0.74337 0.69283 0.0
H777 H 0.71971 0.68742 0.7449 0.0
H778 H 0.63173 0.69239 0.55798 0.0
H779 H 0.69725 0.65332 0.55463 0.0
H780 H 0.61396 0.62321 0.67915 0.0
H781 H 0.65713 0.64497 0.73792 0.0
H782 H 0.59129 0.59717 0.70615 0.0
H783 H 0.63357 0.6186 0.76398 0.0
H784 H 0.5975 0.63443 0.61392 0.0
H785 H 0.66954 0.61181 0.62232 0.0
H786 H 0.59519 0.61092 0.57692 0.0
H787 H 0.66585 0.58846 0.58534 0.0
H788 H 0.5509 0.67812 0.63638 0.0
H789 H 0.55655 0.67542 0.71254 0.0
H790 H 0.71127 0.56207 0.68333 0.0
H791 H 0.63894 0.54631 0.66484 0.0
Li792 Li 0.33591 0.6307 0.66172 0.0
Li793 Li 0.32819 0.67143 0.67141 0.0
Li794 Li 0.338 0.66 0.62972 0.0
Li795 Li 0.36759 0.66026 0.66206 0.0
C796 C 0.2911 0.63946 0.63949 0.0
N797 N 0.25248 0.61706 0.61954 0.0
C798 C 0.26941 0.6393 0.65127 0.0
C799 C 0.29309 0.62834 0.61746 0.0
C800 C 0.25011 0.62783 0.64093 0.0
C801 C 0.27338 0.6171 0.60769 0.0
C802 C 0.34135 0.65239 0.71146 0.0
C803 C 0.34067 0.67616 0.74692 0.0
N804 N 0.32539 0.66046 0.75692 0.0
C805 C 0.3257 0.63645 0.7221 0.0
C806 C 0.349 0.67236 0.72397 0.0
C807 C 0.31783 0.64085 0.74511 0.0
C808 C 0.34671 0.58772 0.68298 0.0
N809 N 0.33019 0.59795 0.66888 0.0
C810 C 0.31104 0.56056 0.66323 0.0
C811 C 0.31229 0.58495 0.65938 0.0
C812 C 0.32839 0.54946 0.67694 0.0
C813 C 0.34625 0.56335 0.68713 0.0
H814 H 0.36074 0.59843 0.69036 0.0
H815 H 0.29933 0.59316 0.64825 0.0
C816 C 0.31385 0.71549 0.69018 0.0
N817 N 0.30908 0.69187 0.68992 0.0
C818 C 0.30018 0.7308 0.70387 0.0
C819 C 0.27688 0.69721 0.71666 0.0
C820 C 0.29098 0.68255 0.70271 0.0
C821 C 0.28134 0.72168 0.71721 0.0
H822 H 0.32826 0.72244 0.67976 0.0
H823 H 0.28761 0.6637 0.70217 0.0
C824 C 0.37012 0.61358 0.6341 0.0
N825 N 0.38652 0.5679 0.628 0.0
C826 C 0.38945 0.60555 0.64714 0.0
C827 C 0.35928 0.59846 0.61779 0.0
C828 C 0.39746 0.58238 0.64382 0.0
C829 C 0.36777 0.5754 0.61502 0.0
C830 C 0.36718 0.70371 0.64551 0.0
C831 C 0.37591 0.7082 0.62283 0.0
C832 C 0.37714 0.71533 0.66495 0.0
C833 C 0.39467 0.72407 0.62001 0.0
C834 C 0.39591 0.73103 0.6614 0.0
N835 N 0.40422 0.73503 0.63919 0.0
C836 C 0.31548 0.6785 0.58859 0.0
C837 C 0.35016 0.65586 0.58236 0.0
C838 C 0.31291 0.68189 0.56424 0.0
N839 N 0.33388 0.66563 0.59703 0.0
C840 C 0.34827 0.65876 0.55799 0.0
C841 C 0.32956 0.67205 0.54867 0.0
H842 H 0.30277 0.68598 0.60076 0.0
H843 H 0.36458 0.64568 0.58961 0.0
C844 C 0.40939 0.66681 0.68957 0.0
N845 N 0.40024 0.66543 0.6674 0.0
C846 C 0.43356 0.67074 0.69273 0.0
C847 C 0.43823 0.67162 0.65023 0.0
C848 C 0.41409 0.66752 0.6479 0.0
C849 C 0.4482 0.67337 0.67286 0.0
H850 H 0.39799 0.66476 0.70475 0.0
H851 H 0.40631 0.66594 0.63051 0.0
O852 O 0.31003 0.651 0.64922 0.0
O853 O 0.34899 0.64856 0.68884 0.0
O854 O 0.36161 0.63599 0.63757 0.0
O855 O 0.34919 0.68779 0.6487 0.0
H856 H 0.26744 0.64796 0.66821 0.0
H857 H 0.30971 0.62803 0.60815 0.0
H858 H 0.23324 0.62753 0.6499 0.0
H859 H 0.27473 0.60833 0.59073 0.0
H860 H 0.34631 0.69162 0.75675 0.0
H861 H 0.31947 0.621 0.71263 0.0
H862 H 0.36098 0.68495 0.71594 0.0
H863 H 0.30563 0.62873 0.75353 0.0
H864 H 0.2972 0.55035 0.65477 0.0
H865 H 0.35994 0.55537 0.69782 0.0
H866 H 0.30441 0.74953 0.70416 0.0
H867 H 0.26246 0.68955 0.72669 0.0
H868 H 0.39797 0.61695 0.65996 0.0
H869 H 0.34435 0.60438 0.60751 0.0
H870 H 0.41229 0.57588 0.65391 0.0
H871 H 0.35944 0.56345 0.60259 0.0
H872 H 0.36841 0.6994 0.60758 0.0
H873 H 0.3707 0.71196 0.68264 0.0
H874 H 0.40168 0.72763 0.60257 0.0
H875 H 0.40393 0.73997 0.6763 0.0
H876 H 0.29819 0.69216 0.55765 0.0
H877 H 0.36114 0.6504 0.54655 0.0
H878 H 0.44072 0.67178 0.71045 0.0
H879 H 0.44907 0.67295 0.6345 0.0
Li880 Li 0.34069 0.36565 0.66613 0.0
Li881 Li 0.37302 0.33454 0.66366 0.0
Li882 Li 0.34062 0.33574 0.63546 0.0
Li883 Li 0.33323 0.32413 0.67483 0.0
C884 C 0.36873 0.36882 0.6192 0.0
N885 N 0.37496 0.38406 0.57322 0.0
C886 C 0.38675 0.35925 0.60529 0.0
C887 C 0.35401 0.38627 0.60982 0.0
C888 C 0.38958 0.36716 0.58206 0.0
C889 C 0.35742 0.39371 0.58651 0.0
C890 C 0.34869 0.34494 0.71504 0.0
C891 C 0.35131 0.32644 0.75337 0.0
N892 N 0.33521 0.34209 0.76193 0.0
C893 C 0.33235 0.361 0.72429 0.0
C894 C 0.35845 0.32766 0.72975 0.0
C895 C 0.32569 0.35922 0.74801 0.0
C896 C 0.3161 0.40913 0.66398 0.0
N897 N 0.33539 0.39795 0.67279 0.0
C898 C 0.35057 0.43431 0.68816 0.0
C899 C 0.35238 0.40988 0.68488 0.0
C900 C 0.33116 0.44652 0.67876 0.0
C901 C 0.31363 0.4336 0.66675 0.0
H902 H 0.3031 0.39916 0.65409 0.0
H903 H 0.36761 0.40044 0.69147 0.0
C904 C 0.41794 0.31704 0.65151 0.0
N905 N 0.40573 0.33009 0.66758 0.0
C906 C 0.44244 0.31521 0.6532 0.0
C907 C 0.44117 0.33993 0.68816 0.0
C908 C 0.4167 0.34126 0.68582 0.0
C909 C 0.45433 0.32694 0.67159 0.0
H910 H 0.40867 0.30854 0.63709 0.0
H911 H 0.40645 0.35161 0.69822 0.0
C912 C 0.29342 0.33491 0.64875 0.0
N913 N 0.25216 0.31202 0.63602 0.0
C914 C 0.29404 0.31146 0.64074 0.0
C915 C 0.27181 0.34669 0.65031 0.0
C916 C 0.27299 0.3002 0.63439 0.0
C917 C 0.25114 0.33483 0.64377 0.0
C918 C 0.36216 0.28581 0.656 0.0
C919 C 0.35737 0.26728 0.64028 0.0
C920 C 0.37539 0.28142 0.67635 0.0
C921 C 0.36581 0.24459 0.64528 0.0
C922 C 0.38354 0.2585 0.68072 0.0
N923 N 0.37861 0.24071 0.66523 0.0
C924 C 0.34833 0.31591 0.59081 0.0
C925 C 0.31635 0.34294 0.59216 0.0
C926 C 0.34561 0.31315 0.56646 0.0
N927 N 0.33394 0.33077 0.603 0.0
C928 C 0.31292 0.34062 0.56784 0.0
C929 C 0.32779 0.3257 0.55467 0.0
H930 H 0.36245 0.30684 0.5999 0.0
H931 H 0.30541 0.3549 0.60229 0.0
C932 C 0.29693 0.31585 0.7074 0.0
N933 N 0.31363 0.30445 0.69437 0.0
C934 C 0.28134 0.30306 0.72163 0.0
C935 C 0.29954 0.26687 0.70794 0.0
C936 C 0.31501 0.28037 0.69426 0.0
C937 C 0.28252 0.27827 0.72182 0.0
H938 H 0.29544 0.33491 0.7064 0.0
H939 H 0.3277 0.27144 0.68332 0.0
O940 O 0.3651 0.36069 0.64167 0.0
O941 O 0.35528 0.34632 0.69179 0.0
O942 O 0.3137 0.34629 0.65547 0.0
O943 O 0.35412 0.30812 0.65119 0.0
H944 H 0.39822 0.34566 0.61226 0.0
H945 H 0.33987 0.39372 0.6203 0.0
H946 H 0.40334 0.35979 0.57102 0.0
H947 H 0.34604 0.40707 0.57896 0.0
H948 H 0.35863 0.31307 0.76491 0.0
H949 H 0.32455 0.37446 0.71321 0.0
H950 H 0.37141 0.31534 0.72309 0.0
H951 H 0.3129 0.3714 0.75533 0.0
H952 H 0.36443 0.44365 0.69753 0.0
H953 H 0.29868 0.44242 0.65875 0.0
H954 H 0.45203 0.30542 0.63982 0.0
H955 H 0.44976 0.34921 0.70257 0.0
H956 H 0.31053 0.30196 0.63949 0.0
H957 H 0.27102 0.36481 0.65659 0.0
H958 H 0.27322 0.28206 0.62819 0.0
H959 H 0.23429 0.34374 0.6449 0.0
H960 H 0.34715 0.2704 0.62443 0.0
H961 H 0.37933 0.29555 0.6886 0.0
H962 H 0.36218 0.23007 0.63331 0.0
H963 H 0.3938 0.25486 0.69641 0.0
H964 H 0.35786 0.302 0.55687 0.0
H965 H 0.29903 0.35064 0.55935 0.0
H966 H 0.26814 0.31235 0.73193 0.0
H967 H 0.30084 0.24772 0.70767 0.0
Li968 Li 0.638 0.33974 0.65985 0.0
Li969 Li 0.67717 0.32705 0.66977 0.0
Li970 Li 0.66976 0.36822 0.65797 0.0
Li971 Li 0.66749 0.33648 0.62934 0.0
C972 C 0.65015 0.34169 0.7075 0.0
N973 N 0.63517 0.32224 0.74978 0.0
C974 C 0.64012 0.31901 0.70797 0.0
C975 C 0.65249 0.35447 0.72854 0.0
C976 C 0.63268 0.30949 0.72951 0.0
C977 C 0.64482 0.34434 0.74974 0.0
C978 C 0.66283 0.28936 0.64103 0.0
C979 C 0.69552 0.2649 0.62884 0.0
N980 N 0.68035 0.24656 0.62511 0.0
C981 C 0.64757 0.27028 0.63707 0.0
C982 C 0.68701 0.28668 0.63688 0.0
C983 C 0.65677 0.24877 0.62903 0.0
C984 C 0.59336 0.32183 0.64978 0.0
N985 N 0.60523 0.33571 0.66542 0.0
C986 C 0.56959 0.34442 0.6862 0.0
C987 C 0.59395 0.34691 0.68346 0.0
C988 C 0.55682 0.33031 0.67021 0.0
C989 C 0.569 0.31888 0.65184 0.0
H990 H 0.60283 0.31342 0.63544 0.0
H991 H 0.60377 0.35805 0.69552 0.0
C992 C 0.71581 0.31705 0.69883 0.0
N993 N 0.69537 0.30783 0.69023 0.0
C994 C 0.72971 0.30384 0.7143 0.0
C995 C 0.70115 0.272 0.71183 0.0
C996 C 0.68782 0.2858 0.69642 0.0
C997 C 0.72233 0.28105 0.72103 0.0
H998 H 0.72126 0.33469 0.69366 0.0
H999 H 0.67136 0.27898 0.68952 0.0
C1000 C 0.62869 0.38067 0.63472 0.0
N1001 N 0.59628 0.4172 0.63572 0.0
C1002 C 0.61826 0.38854 0.61378 0.0
C1003 C 0.62268 0.39145 0.65616 0.0
C1004 C 0.6019 0.40702 0.61466 0.0
C1005 C 0.60625 0.40987 0.6563 0.0
C1006 C 0.71403 0.35333 0.63373 0.0
C1007 C 0.71077 0.36951 0.61536 0.0
C1008 C 0.73619 0.3431 0.63718 0.0
C1009 C 0.72985 0.37539 0.60083 0.0
C1010 C 0.75484 0.34944 0.62228 0.0
N1011 N 0.75132 0.36533 0.60457 0.0
C1012 C 0.68215 0.40892 0.68475 0.0
C1013 C 0.67692 0.41549 0.64369 0.0
C1014 C 0.68524 0.43321 0.68864 0.0
N1015 N 0.67782 0.40065 0.66258 0.0
C1016 C 0.6802 0.43978 0.64672 0.0
C1017 C 0.68415 0.4489 0.66944 0.0
H1018 H 0.68247 0.39673 0.69947 0.0
H1019 H 0.67264 0.40862 0.62638 0.0
C1020 C 0.6518 0.33235 0.58357 0.0
N1021 N 0.67143 0.32892 0.59687 0.0
C1022 C 0.65254 0.32903 0.55919 0.0
C1023 C 0.6936 0.31797 0.56259 0.0
C1024 C 0.69204 0.32142 0.58702 0.0
C1025 C 0.67368 0.32193 0.5484 0.0
H1026 H 0.63563 0.33811 0.59194 0.0
H1027 H 0.70735 0.31851 0.598 0.0
O1028 O 0.65772 0.35142 0.68666 0.0
O1029 O 0.65393 0.31051 0.64881 0.0
O1030 O 0.64482 0.36265 0.63403 0.0
O1031 O 0.69549 0.34684 0.64782 0.0
H1032 H 0.63804 0.30885 0.69191 0.0
H1033 H 0.66017 0.37205 0.72852 0.0
H1034 H 0.62491 0.29197 0.73011 0.0
H1035 H 0.64655 0.35404 0.76615 0.0
H1036 H 0.71419 0.26259 0.62557 0.0
H1037 H 0.6288 0.27208 0.64019 0.0
H1038 H 0.69912 0.30119 0.63988 0.0
H1039 H 0.64516 0.23385 0.62589 0.0
H1040 H 0.56079 0.35356 0.70056 0.0
H1041 H 0.5597 0.30833 0.6388 0.0
H1042 H 0.74616 0.31126 0.72071 0.0
H1043 H 0.69487 0.25452 0.71671 0.0
H1044 H 0.6228 0.38051 0.59701 0.0
H1045 H 0.63064 0.38577 0.67254 0.0
H1046 H 0.59369 0.41327 0.59859 0.0
H1047 H 0.60146 0.41835 0.67278 0.0
H1048 H 0.69354 0.37689 0.61192 0.0
H1049 H 0.73892 0.33028 0.65113 0.0
H1050 H 0.72755 0.3878 0.58646 0.0
H1051 H 0.7721 0.34165 0.62474 0.0
H1052 H 0.68803 0.43972 0.70644 0.0
H1053 H 0.67861 0.45144 0.6316 0.0
H1054 H 0.63692 0.33269 0.5488 0.0
H1055 H 0.7102 0.31248 0.55484 0.0
Li1056 Li 0.65981 0.3713 0.33569 0.0
Li1057 Li 0.66185 0.34033 0.36593 0.0
Li1058 Li 0.6712 0.33284 0.325 0.0
Li1059 Li 0.63019 0.3407 0.33642 0.0
C1060 C 0.71086 0.34763 0.34505 0.0
N1061 N 0.75707 0.33286 0.33993 0.0
C1062 C 0.7214 0.33366 0.36248 0.0
C1063 C 0.72394 0.35433 0.32517 0.0
C1064 C 0.74476 0.32632 0.35953 0.0
C1065 C 0.74723 0.34659 0.32286 0.0
C1066 C 0.62078 0.36274 0.37914 0.0
C1067 C 0.59665 0.33922 0.40535 0.0
N1068 N 0.58842 0.35941 0.41557 0.0
C1069 C 0.6121 0.38325 0.38991 0.0
C1070 C 0.613 0.34052 0.3869 0.0
C1071 C 0.59574 0.3812 0.40829 0.0
C1072 C 0.64368 0.41784 0.33304 0.0
N1073 N 0.66344 0.40439 0.33116 0.0
C1074 C 0.6872 0.43881 0.32473 0.0
C1075 C 0.68495 0.41425 0.32698 0.0
C1076 C 0.66715 0.45322 0.32714 0.0
C1077 C 0.64513 0.44243 0.33102 0.0
H1078 H 0.62683 0.40943 0.33641 0.0
H1079 H 0.70035 0.40308 0.32558 0.0
C1080 C 0.66901 0.31151 0.40632 0.0
N1081 N 0.66839 0.33411 0.39806 0.0
C1082 C 0.67188 0.30727 0.43046 0.0
C1083 C 0.67411 0.34961 0.4369 0.0
C1084 C 0.67118 0.35303 0.41267 0.0
C1085 C 0.67408 0.32651 0.44608 0.0
H1086 H 0.66689 0.29685 0.3942 0.0
H1087 H 0.67051 0.37079 0.40552 0.0
C1088 C 0.64638 0.37049 0.29227 0.0
N1089 N 0.6441 0.40796 0.26092 0.0
C1090 C 0.62465 0.38079 0.28684 0.0
C1091 C 0.66691 0.37904 0.2815 0.0
C1092 C 0.62387 0.39976 0.27101 0.0
C1093 C 0.66541 0.39805 0.26578 0.0
C1094 C 0.64379 0.29279 0.33578 0.0
C1095 C 0.64013 0.29206 0.31132 0.0
C1096 C 0.64081 0.27216 0.34912 0.0
C1097 C 0.6336 0.27068 0.30066 0.0
C1098 C 0.63419 0.25115 0.3378 0.0
N1099 N 0.63078 0.25085 0.31401 0.0
C1100 C 0.70367 0.29656 0.31662 0.0
C1101 C 0.69087 0.31589 0.28174 0.0
C1102 C 0.71782 0.28127 0.30348 0.0
N1103 N 0.69078 0.31357 0.30565 0.0
C1104 C 0.70449 0.30069 0.26784 0.0
C1105 C 0.71807 0.28298 0.27872 0.0
H1106 H 0.70285 0.29483 0.33564 0.0
H1107 H 0.67999 0.32919 0.27343 0.0
C1108 C 0.58389 0.35607 0.33379 0.0
N1109 N 0.59689 0.33587 0.33241 0.0
C1110 C 0.55932 0.35514 0.33257 0.0
C1111 C 0.56177 0.31262 0.32808 0.0
C1112 C 0.58631 0.31433 0.32977 0.0
C1113 C 0.54806 0.33321 0.32962 0.0
H1114 H 0.59266 0.37295 0.33619 0.0
H1115 H 0.59664 0.29836 0.32943 0.0
O1116 O 0.68792 0.35477 0.34751 0.0
O1117 O 0.63684 0.36457 0.36114 0.0
O1118 O 0.64759 0.3523 0.3082 0.0
O1119 O 0.65092 0.31331 0.34661 0.0
H1120 H 0.71163 0.32836 0.37802 0.0
H1121 H 0.71613 0.36515 0.31153 0.0
H1122 H 0.75308 0.31539 0.37281 0.0
H1123 H 0.75748 0.35148 0.30746 0.0
H1124 H 0.59049 0.32215 0.41154 0.0
H1125 H 0.61795 0.40057 0.3841 0.0
H1126 H 0.61949 0.32444 0.37881 0.0
H1127 H 0.58886 0.39693 0.41678 0.0
H1128 H 0.70442 0.44643 0.32127 0.0
H1129 H 0.62928 0.45294 0.3331 0.0
H1130 H 0.67214 0.28919 0.43688 0.0
H1131 H 0.67562 0.36489 0.44843 0.0
H1132 H 0.60855 0.37426 0.29477 0.0
H1133 H 0.68387 0.3713 0.28548 0.0
H1134 H 0.60718 0.40798 0.26676 0.0
H1135 H 0.6812 0.40498 0.25749 0.0
H1136 H 0.64213 0.30779 0.30065 0.0
H1137 H 0.64355 0.27236 0.36804 0.0
H1138 H 0.63072 0.26989 0.28177 0.0
H1139 H 0.63181 0.23507 0.34793 0.0
H1140 H 0.72844 0.26827 0.31264 0.0
H1141 H 0.70405 0.30246 0.24879 0.0
H1142 H 0.54921 0.37136 0.33394 0.0
H1143 H 0.55354 0.29537 0.32623 0.0
Li1144 Li 0.65432 0.66864 0.36847 0.0
Li1145 Li 0.65629 0.63749 0.33804 0.0
Li1146 Li 0.66763 0.67804 0.3301 0.0
Li1147 Li 0.62622 0.66827 0.3362 0.0
C1148 C 0.70581 0.65619 0.34678 0.0
N1149 N 0.75291 0.65799 0.33409 0.0
C1150 C 0.71521 0.63908 0.33158 0.0
C1151 C 0.72046 0.674 0.3558 0.0
C1152 C 0.73904 0.64034 0.32532 0.0
C1153 C 0.74418 0.67468 0.34908 0.0
C1154 C 0.61289 0.62766 0.35968 0.0
C1155 C 0.58833 0.60112 0.33697 0.0
N1156 N 0.57663 0.59494 0.35705 0.0
C1157 C 0.60062 0.62108 0.38008 0.0
C1158 C 0.60671 0.61763 0.33792 0.0
C1159 C 0.58235 0.60448 0.37839 0.0
C1160 C 0.63871 0.68133 0.41421 0.0
N1161 N 0.65744 0.67337 0.40145 0.0
C1162 C 0.68037 0.66864 0.43649 0.0
C1163 C 0.67806 0.66718 0.41199 0.0
C1164 C 0.66133 0.67674 0.45012 0.0
C1165 C 0.64037 0.68338 0.43875 0.0
H1166 H 0.62238 0.68565 0.40535 0.0
H1167 H 0.69253 0.66059 0.40139 0.0
C1168 C 0.6627 0.59486 0.31171 0.0
N1169 N 0.66182 0.60477 0.3336 0.0
C1170 C 0.6656 0.57039 0.30924 0.0
C1171 C 0.66668 0.56701 0.35186 0.0
C1172 C 0.66384 0.59149 0.35349 0.0
C1173 C 0.66761 0.55618 0.32951 0.0
H1174 H 0.66091 0.60592 0.29624 0.0
H1175 H 0.66277 0.59994 0.37064 0.0
C1176 C 0.64406 0.71413 0.36457 0.0
N1177 N 0.64427 0.75032 0.39756 0.0
C1178 C 0.62312 0.72586 0.3703 0.0
C1179 C 0.66518 0.72114 0.37528 0.0
C1180 C 0.62357 0.74404 0.3871 0.0
C1181 C 0.66491 0.73936 0.39202 0.0
C1182 C 0.64268 0.66763 0.2892 0.0
C1183 C 0.63561 0.69137 0.28887 0.0
C1184 C 0.6453 0.65535 0.26789 0.0
C1185 C 0.63117 0.70236 0.26723 0.0
C1186 C 0.64068 0.66697 0.24661 0.0
N1187 N 0.63377 0.69004 0.24672 0.0
C1188 C 0.70242 0.68615 0.29549 0.0
C1189 C 0.68844 0.72095 0.3144 0.0
C1190 C 0.71772 0.69949 0.28147 0.0
N1191 N 0.68848 0.69699 0.3118 0.0
C1192 C 0.70319 0.73502 0.30046 0.0
C1193 C 0.71808 0.72421 0.28386 0.0
H1194 H 0.70146 0.66715 0.29322 0.0
H1195 H 0.67675 0.72918 0.32704 0.0
C1196 C 0.57999 0.67958 0.34768 0.0
N1197 N 0.5937 0.67271 0.3292 0.0
C1198 C 0.55551 0.68049 0.34531 0.0
C1199 C 0.55965 0.66705 0.30492 0.0
C1200 C 0.58408 0.66648 0.30805 0.0
C1201 C 0.54509 0.67379 0.32384 0.0
H1202 H 0.58804 0.68337 0.3646 0.0
H1203 H 0.59518 0.66014 0.29388 0.0
O1204 O 0.68245 0.65539 0.35293 0.0
O1205 O 0.63049 0.64425 0.36103 0.0
O1206 O 0.64394 0.69604 0.34841 0.0
O1207 O 0.64768 0.65655 0.31012 0.0
H1208 H 0.7042 0.62515 0.32444 0.0
H1209 H 0.71362 0.68717 0.36786 0.0
H1210 H 0.7465 0.62732 0.31343 0.0
H1211 H 0.75568 0.68845 0.35582 0.0
H1212 H 0.58332 0.59327 0.32025 0.0
H1213 H 0.60513 0.6288 0.39702 0.0
H1214 H 0.61586 0.62267 0.3219 0.0
H1215 H 0.57269 0.59923 0.39404 0.0
H1216 H 0.69675 0.66328 0.44476 0.0
H1217 H 0.6252 0.68932 0.44881 0.0
H1218 H 0.66615 0.56264 0.29173 0.0
H1219 H 0.6675 0.55662 0.36792 0.0
H1220 H 0.60671 0.72112 0.36179 0.0
H1221 H 0.68155 0.71244 0.37086 0.0
H1222 H 0.60747 0.75318 0.39178 0.0
H1223 H 0.6811 0.74478 0.4006 0.0
H1224 H 0.63352 0.70126 0.3051 0.0
H1225 H 0.65091 0.63704 0.26778 0.0
H1226 H 0.62568 0.72071 0.26673 0.0
H1227 H 0.64262 0.65766 0.22999 0.0
H1228 H 0.72881 0.69068 0.26858 0.0
H1229 H 0.70305 0.7541 0.30266 0.0
H1230 H 0.54479 0.68538 0.36041 0.0
H1231 H 0.55218 0.66177 0.2881 0.0
Li1232 Li 0.33111 0.66116 0.36559 0.0
Li1233 Li 0.33133 0.62853 0.33554 0.0
Li1234 Li 0.36116 0.66008 0.33631 0.0
Li1235 Li 0.32258 0.67025 0.32438 0.0
C1236 C 0.36003 0.62827 0.38241 0.0
N1237 N 0.36902 0.61401 0.42823 0.0
C1238 C 0.34983 0.60748 0.39118 0.0
C1239 C 0.37501 0.64167 0.39684 0.0
C1240 C 0.35458 0.60058 0.41441 0.0
C1241 C 0.37924 0.63422 0.41999 0.0
C1242 C 0.28218 0.65673 0.34339 0.0
C1243 C 0.24656 0.65879 0.32018 0.0
N1244 N 0.23777 0.6752 0.33545 0.0
C1245 C 0.27279 0.67357 0.35889 0.0
C1246 C 0.26896 0.6492 0.32391 0.0
C1247 C 0.25029 0.68268 0.35457 0.0
C1248 C 0.33167 0.68854 0.40741 0.0
N1249 N 0.32433 0.6677 0.39783 0.0
C1250 C 0.31263 0.6533 0.43575 0.0
C1251 C 0.31407 0.65058 0.41127 0.0
C1252 C 0.32159 0.67397 0.44633 0.0
C1253 C 0.33036 0.69212 0.43178 0.0
H1254 H 0.33923 0.70208 0.39624 0.0
H1255 H 0.30807 0.63432 0.40307 0.0
C1256 C 0.3454 0.58164 0.33132 0.0
N1257 N 0.3261 0.59584 0.33044 0.0
C1258 C 0.34298 0.55715 0.32906 0.0
C1259 C 0.30086 0.56236 0.3246 0.0
C1260 C 0.3041 0.58681 0.32705 0.0
C1261 C 0.32045 0.5472 0.32593 0.0
H1262 H 0.36263 0.58935 0.33434 0.0
H1263 H 0.28905 0.59853 0.32659 0.0
C1264 C 0.35796 0.70652 0.34462 0.0
N1265 N 0.38937 0.74385 0.34057 0.0
C1266 C 0.35613 0.72237 0.32574 0.0
C1267 C 0.37568 0.70974 0.36152 0.0
C1268 C 0.37219 0.74113 0.324 0.0
C1269 C 0.39142 0.72868 0.35912 0.0
C1270 C 0.36017 0.64834 0.29137 0.0
C1271 C 0.36238 0.66842 0.27707 0.0
C1272 C 0.37586 0.62948 0.28855 0.0
C1273 C 0.38041 0.66933 0.26022 0.0
C1274 C 0.39371 0.63111 0.27156 0.0
N1275 N 0.39559 0.65083 0.25787 0.0
C1276 C 0.40862 0.64774 0.34118 0.0
C1277 C 0.40361 0.68191 0.31741 0.0
C1278 C 0.43303 0.64895 0.33838 0.0
N1279 N 0.39444 0.66422 0.33099 0.0
C1280 C 0.42799 0.68389 0.31427 0.0
C1281 C 0.44295 0.66722 0.32482 0.0
H1282 H 0.401 0.63354 0.35146 0.0
H1283 H 0.39208 0.69442 0.30887 0.0
C1284 C 0.29375 0.70906 0.31362 0.0
N1285 N 0.30339 0.68898 0.30455 0.0
C1286 C 0.27906 0.72309 0.29971 0.0
C1287 C 0.28459 0.69549 0.2674 0.0
C1288 C 0.29906 0.68191 0.28199 0.0
C1289 C 0.27434 0.71628 0.27632 0.0
H1290 H 0.29752 0.71414 0.33167 0.0
H1291 H 0.30679 0.66568 0.27541 0.0
O1292 O 0.35517 0.63565 0.35991 0.0
O1293 O 0.30448 0.64821 0.34688 0.0
O1294 O 0.34224 0.68819 0.34675 0.0
O1295 O 0.3429 0.6473 0.30824 0.0
H1296 H 0.33808 0.59698 0.38032 0.0
H1297 H 0.3831 0.65775 0.39029 0.0
H1298 H 0.34668 0.58462 0.42149 0.0
H1299 H 0.39061 0.64454 0.43143 0.0
H1300 H 0.23622 0.6533 0.30506 0.0
H1301 H 0.28286 0.67974 0.37393 0.0
H1302 H 0.27612 0.63648 0.31152 0.0
H1303 H 0.24284 0.6958 0.36635 0.0
H1304 H 0.30567 0.63892 0.44636 0.0
H1305 H 0.33678 0.70861 0.43922 0.0
H1306 H 0.35849 0.54605 0.33041 0.0
H1307 H 0.28324 0.5554 0.32184 0.0
H1308 H 0.34266 0.72011 0.31241 0.0
H1309 H 0.37739 0.69764 0.37621 0.0
H1310 H 0.37105 0.75347 0.30943 0.0
H1311 H 0.4053 0.7313 0.37199 0.0
H1312 H 0.35054 0.68329 0.2792 0.0
H1313 H 0.37443 0.61386 0.29952 0.0
H1314 H 0.38243 0.68481 0.24913 0.0
H1315 H 0.40609 0.61672 0.26929 0.0
H1316 H 0.44406 0.63592 0.34702 0.0
H1317 H 0.43506 0.69814 0.30356 0.0
H1318 H 0.27174 0.73922 0.30704 0.0
H1319 H 0.28124 0.68972 0.24944 0.0
Li1320 Li 0.33282 0.36391 0.3384 0.0
Li1321 Li 0.33536 0.33255 0.37079 0.0
Li1322 Li 0.36432 0.33486 0.33868 0.0
Li1323 Li 0.32528 0.32228 0.33063 0.0
C1324 C 0.37859 0.369 0.36721 0.0
N1325 N 0.42327 0.38737 0.3742 0.0
C1326 C 0.39225 0.36127 0.38624 0.0
C1327 C 0.38753 0.38622 0.35185 0.0
C1328 C 0.41483 0.37074 0.38944 0.0
C1329 C 0.41019 0.39525 0.35566 0.0
C1330 C 0.28432 0.3412 0.34633 0.0
C1331 C 0.24784 0.31907 0.34723 0.0
N1332 N 0.23764 0.33571 0.33321 0.0
C1333 C 0.27339 0.35821 0.33214 0.0
C1334 C 0.27138 0.32159 0.35416 0.0
C1335 C 0.24981 0.35507 0.32563 0.0
C1336 C 0.32349 0.40538 0.31128 0.0
N1337 N 0.32561 0.39608 0.33333 0.0
C1338 C 0.32039 0.43413 0.35096 0.0
C1339 C 0.32397 0.40979 0.35299 0.0
C1340 C 0.31834 0.44439 0.32846 0.0
C1341 C 0.31983 0.42971 0.30842 0.0
H1342 H 0.32502 0.39398 0.29598 0.0
H1343 H 0.32604 0.40183 0.37025 0.0
C1344 C 0.34699 0.3146 0.41569 0.0
N1345 N 0.33108 0.32773 0.40345 0.0
C1346 C 0.34498 0.31242 0.44018 0.0
C1347 C 0.3102 0.33719 0.43886 0.0
C1348 C 0.3128 0.33878 0.41438 0.0
C1349 C 0.32652 0.324 0.45203 0.0
H1350 H 0.36153 0.3063 0.40646 0.0
H1351 H 0.30057 0.34925 0.40411 0.0
C1352 C 0.3519 0.33389 0.29119 0.0
N1353 N 0.36625 0.31152 0.25015 0.0
C1354 C 0.36039 0.31065 0.29195 0.0
C1355 C 0.35067 0.34572 0.26954 0.0
C1356 C 0.36757 0.29966 0.27102 0.0
C1357 C 0.35803 0.33412 0.24899 0.0
C1358 C 0.34589 0.28385 0.35872 0.0
C1359 C 0.36265 0.26685 0.35236 0.0
C1360 C 0.32642 0.27722 0.3724 0.0
C1361 C 0.35951 0.2434 0.35962 0.0
C1362 C 0.32392 0.2536 0.37933 0.0
N1363 N 0.34036 0.23731 0.37284 0.0
C1364 C 0.40942 0.31846 0.34941 0.0
C1365 C 0.40813 0.34234 0.31493 0.0
C1366 C 0.43397 0.31736 0.34818 0.0
N1367 N 0.39713 0.3311 0.33314 0.0
C1368 C 0.43266 0.34138 0.3128 0.0
C1369 C 0.44581 0.32906 0.32979 0.0
H1370 H 0.40016 0.31001 0.36387 0.0
H1371 H 0.39794 0.35269 0.30254 0.0
C1372 C 0.29206 0.3136 0.29523 0.0
N1373 N 0.30629 0.30226 0.31087 0.0
C1374 C 0.27736 0.30072 0.28016 0.0
C1375 C 0.29325 0.26459 0.29646 0.0
C1376 C 0.30733 0.27818 0.31152 0.0
C1377 C 0.27795 0.27585 0.28055 0.0
H1378 H 0.29211 0.33273 0.29448 0.0
H1379 H 0.31922 0.26936 0.32339 0.0
O1380 O 0.35682 0.3593 0.36323 0.0
O1381 O 0.30747 0.34389 0.35267 0.0
O1382 O 0.34448 0.34503 0.31138 0.0
O1383 O 0.34886 0.30688 0.3518 0.0
H1384 H 0.38559 0.34788 0.39821 0.0
H1385 H 0.3772 0.39226 0.33695 0.0
H1386 H 0.42569 0.36479 0.40398 0.0
H1387 H 0.41742 0.40845 0.34382 0.0
H1388 H 0.23768 0.30389 0.35302 0.0
H1389 H 0.28307 0.37356 0.326 0.0
H1390 H 0.27939 0.3084 0.36537 0.0
H1391 H 0.24119 0.36801 0.31451 0.0
H1392 H 0.32003 0.44489 0.36682 0.0
H1393 H 0.31844 0.43702 0.29078 0.0
H1394 H 0.35816 0.30248 0.44983 0.0
H1395 H 0.29579 0.34639 0.44746 0.0
H1396 H 0.36144 0.30114 0.30847 0.0
H1397 H 0.34408 0.36368 0.26862 0.0
H1398 H 0.37417 0.28169 0.27137 0.0
H1399 H 0.35717 0.34307 0.23211 0.0
H1400 H 0.37788 0.27174 0.34185 0.0
H1401 H 0.31346 0.29017 0.37768 0.0
H1402 H 0.37229 0.23004 0.35476 0.0
H1403 H 0.30892 0.24822 0.38991 0.0
H1404 H 0.44366 0.30781 0.36162 0.0
H1405 H 0.44135 0.35088 0.2986 0.0
H1406 H 0.26554 0.31019 0.26851 0.0
H1407 H 0.29452 0.24545 0.2971 0.0
C1408 C 0.25038 0.24173 0.27367 0.0
C1409 C 0.26254 0.2616 0.2647 0.0
C1410 C 0.23565 0.22802 0.25918 0.0
C1411 C 0.23239 0.23389 0.23532 0.0
H1412 H 0.25201 0.23688 0.29212 0.0
H1413 H 0.22652 0.21291 0.26672 0.0
S1414 S 0.26114 0.28288 0.20261 0.0
N1415 N 0.2713 0.28541 0.22986 0.0
N1416 N 0.24287 0.26003 0.20296 0.0
C1417 C 0.24444 0.25349 0.22601 0.0
C1418 C 0.2597 0.26728 0.24063 0.0
C1419 C 0.74633 0.27511 0.24553 0.0
C1420 C 0.73244 0.26641 0.26429 0.0
C1421 C 0.76036 0.25987 0.23193 0.0
C1422 C 0.76115 0.23549 0.2368 0.0
H1423 H 0.74665 0.29388 0.24155 0.0
H1424 H 0.77097 0.26723 0.21776 0.0
S1425 S 0.72676 0.2034 0.28238 0.0
N1426 N 0.71913 0.23143 0.28576 0.0
N1427 N 0.74618 0.20302 0.26061 0.0
C1428 C 0.74719 0.22647 0.25519 0.0
C1429 C 0.73267 0.24188 0.26885 0.0
C1430 C 0.77343 0.74827 0.25497 0.0
C1431 C 0.76462 0.76554 0.23936 0.0
C1432 C 0.75825 0.73496 0.26934 0.0
C1433 C 0.73376 0.73866 0.26881 0.0
H1434 H 0.79224 0.74507 0.25618 0.0
H1435 H 0.76571 0.72182 0.2811 0.0
S1436 S 0.7015 0.78051 0.23024 0.0
N1437 N 0.72957 0.78464 0.22346 0.0
N1438 N 0.70116 0.76004 0.25108 0.0
C1439 C 0.72465 0.75579 0.25337 0.0
C1440 C 0.74005 0.76915 0.23852 0.0
C1441 C 0.26771 0.7387 0.23892 0.0
C1442 C 0.25928 0.73116 0.26105 0.0
C1443 C 0.25414 0.75348 0.22447 0.0
C1444 C 0.23156 0.76098 0.23154 0.0
H1445 H 0.2851 0.73346 0.23291 0.0
H1446 H 0.26132 0.75899 0.20758 0.0
S1447 S 0.20126 0.74571 0.28766 0.0
N1448 N 0.22684 0.73183 0.28919 0.0
N1449 N 0.20133 0.75977 0.26206 0.0
C1450 C 0.22281 0.75335 0.25352 0.0
C1451 C 0.2367 0.73843 0.26829 0.0
C1452 C 0.26173 0.73205 0.75546 0.0
C1453 C 0.26633 0.73755 0.73164 0.0
C1454 C 0.24738 0.74667 0.76941 0.0
C1455 C 0.23695 0.76716 0.75995 0.0
H1456 H 0.26938 0.71639 0.7634 0.0
H1457 H 0.24412 0.74169 0.78761 0.0
S1458 S 0.24361 0.78947 0.69864 0.0
N1459 N 0.2593 0.76485 0.69919 0.0
N1460 N 0.23263 0.79253 0.72552 0.0
C1461 C 0.24153 0.77294 0.73621 0.0
C1462 C 0.25618 0.75811 0.72205 0.0
C1463 C 0.24978 0.2537 0.7748 0.0
C1464 C 0.23478 0.23657 0.76462 0.0
C1465 C 0.26497 0.2674 0.76079 0.0
C1466 C 0.26583 0.26427 0.73618 0.0
H1467 H 0.25011 0.25624 0.79378 0.0
H1468 H 0.27647 0.2802 0.76929 0.0
S1469 S 0.22876 0.22356 0.70056 0.0
N1470 N 0.22053 0.21863 0.72814 0.0
N1471 N 0.24963 0.24399 0.70196 0.0
C1472 C 0.25069 0.24759 0.7257 0.0
C1473 C 0.23504 0.23382 0.73989 0.0
C1474 C 0.75633 0.22895 0.74584 0.0
C1475 C 0.7649 0.23773 0.76749 0.0
C1476 C 0.74247 0.24305 0.73102 0.0
C1477 C 0.73682 0.2665 0.73721 0.0
H1478 H 0.76024 0.21096 0.74041 0.0
H1479 H 0.73634 0.23562 0.71445 0.0
S1480 S 0.75484 0.29788 0.79198 0.0
N1481 N 0.76689 0.27136 0.79434 0.0
N1482 N 0.74047 0.29779 0.76659 0.0
C1483 C 0.74522 0.2755 0.75882 0.0
C1484 C 0.75929 0.26111 0.77395 0.0
C1485 C 0.74555 0.75123 0.77324 0.0
C1486 C 0.7673 0.75984 0.76483 0.0
C1487 C 0.73108 0.73703 0.75897 0.0
C1488 C 0.73772 0.73136 0.7357 0.0
H1489 H 0.73976 0.75543 0.79102 0.0
H1490 H 0.7144 0.7308 0.76602 0.0
S1491 S 0.79289 0.74952 0.7054 0.0
N1492 N 0.79485 0.76163 0.73193 0.0
N1493 N 0.76749 0.73509 0.70496 0.0
C1494 C 0.75942 0.73982 0.7271 0.0
C1495 C 0.77428 0.75401 0.74173 0.0
C1496 C 0.18427 0.16229 0.9874 0.0
C1497 C 0.17138 0.17902 0.97433 0.0
C1498 C 0.18424 0.16273 0.01217 0.0
C1499 C 0.17136 0.17994 0.02471 0.0
H1500 H 0.19369 0.1482 0.97844 0.0
H1501 H 0.19362 0.14893 0.02155 0.0
S1502 S 0.13747 0.22962 0.99864 0.0
N1503 N 0.14729 0.21458 0.9756 0.0
N1504 N 0.14734 0.21551 0.0222 0.0
C1505 C 0.15935 0.19745 0.01182 0.0
C1506 C 0.15933 0.19696 0.98662 0.0
C1507 C 0.8059 0.18104 0.99125 0.0
C1508 C 0.82461 0.17063 0.97864 0.0
C1509 C 0.80601 0.18159 0.01606 0.0
C1510 C 0.82506 0.17222 0.02891 0.0
H1511 H 0.79092 0.18831 0.98187 0.0
H1512 H 0.79115 0.18938 0.02527 0.0
S1513 S 0.87847 0.14363 0.00407 0.0
N1514 N 0.86273 0.15113 0.98069 0.0
N1515 N 0.86306 0.1524 0.02727 0.0
C1516 C 0.84401 0.16216 0.01645 0.0
C1517 C 0.84375 0.16131 0.99131 0.0
C1518 C 0.82102 0.80623 0.99005 0.0
C1519 C 0.8222 0.82766 0.97742 0.0
C1520 C 0.82129 0.80605 0.01484 0.0
C1521 C 0.82278 0.82729 0.02781 0.0
H1522 H 0.8199 0.7895 0.98068 0.0
H1523 H 0.82037 0.78918 0.02393 0.0
S1524 S 0.82827 0.88791 0.00306 0.0
N1525 N 0.82612 0.87052 0.97966 0.0
N1526 N 0.8267 0.87018 0.0262 0.0
C1527 C 0.82413 0.84881 0.01537 0.0
C1528 C 0.82382 0.84899 0.99018 0.0
C1529 C 0.15732 0.83185 0.00632 0.0
C1530 C 0.17822 0.82569 0.01819 0.0
C1531 C 0.15663 0.83332 0.98166 0.0
C1532 C 0.17675 0.8285 0.96793 0.0
H1533 H 0.14154 0.83626 0.0162 0.0
H1534 H 0.14026 0.83852 0.97326 0.0
S1535 S 0.23549 0.81053 0.99031 0.0
N1536 N 0.21929 0.81389 0.01438 0.0
N1537 N 0.21795 0.81666 0.96782 0.0
C1538 C 0.19759 0.82169 0.97947 0.0
C1539 C 0.19836 0.82036 0.00467 0.0
C1540 C 0.00783 0.17689 0.15047 0.0
C1541 C 0.02084 0.18047 0.17137 0.0
C1542 C 0.98314 0.176 0.1508 0.0
C1543 C 0.97052 0.17851 0.17205 0.0
H1544 H 0.01681 0.17402 0.13379 0.0
H1545 H 0.97387 0.1726 0.13439 0.0
S1546 S 0.99591 0.19063 0.23121 0.0
N1547 N 0.01909 0.18841 0.21362 0.0
N1548 N 0.97259 0.18629 0.21423 0.0
C1549 C 0.98319 0.18273 0.19297 0.0
C1550 C 0.00836 0.18382 0.19263 0.0
C1551 C 0.84316 0.98447 0.19232 0.0
C1552 C 0.82599 0.9711 0.18019 0.0
C1553 C 0.84267 0.00929 0.1922 0.0
C1554 C 0.82489 0.02165 0.18013 0.0
H1555 H 0.85737 0.97569 0.2016 0.0
H1556 H 0.85655 0.0189 0.20129 0.0
S1557 S 0.77582 0.99522 0.14568 0.0
N1558 N 0.79067 0.9722 0.15578 0.0
N1559 N 0.78958 0.01891 0.15598 0.0
C1560 C 0.80719 0.00859 0.16857 0.0
C1561 C 0.80777 0.9833 0.16852 0.0
C1562 C 0.99238 0.80786 0.16654 0.0
C1563 C 0.97858 0.82827 0.17002 0.0
C1564 C 0.01709 0.80929 0.16553 0.0
C1565 C 0.02876 0.83122 0.16764 0.0
H1566 H 0.98401 0.79071 0.16442 0.0
H1567 H 0.02709 0.79325 0.1624 0.0
S1568 S 0.00079 0.88975 0.17753 0.0
N1569 N 0.97843 0.87098 0.1759 0.0
N1570 N 0.02483 0.87359 0.17425 0.0
C1571 C 0.01519 0.85166 0.17157 0.0
C1572 C 0.99011 0.8502 0.17272 0.0
C1573 C 0.19165 0.01623 0.16704 0.0
C1574 C 0.17161 0.02684 0.17723 0.0
C1575 C 0.19403 0.99152 0.16618 0.0
C1576 C 0.1765 0.97647 0.17551 0.0
H1577 H 0.20517 0.02707 0.15885 0.0
H1578 H 0.2095 0.98412 0.1577 0.0
S1579 S 0.12138 0.9955 0.20557 0.0
N1580 N 0.13478 0.0205 0.19841 0.0
N1581 N 0.13874 0.97409 0.19596 0.0
C1582 C 0.15677 0.98689 0.1865 0.0
C1583 C 0.15444 0.01205 0.18752 0.0
C1584 C 0.98855 0.82179 0.84775 0.0
C1585 C 0.97457 0.82545 0.82756 0.0
C1586 C 0.0132 0.82125 0.84625 0.0
C1587 C 0.02484 0.82439 0.8245 0.0
H1588 H 0.98038 0.81959 0.86493 0.0
H1589 H 0.02322 0.81905 0.86239 0.0
S1590 S 0.99633 0.83353 0.76621 0.0
N1591 N 0.9741 0.83174 0.78504 0.0
N1592 N 0.02052 0.83017 0.78213 0.0
C1593 C 0.01107 0.82746 0.80405 0.0
C1594 C 0.98592 0.82803 0.80559 0.0
C1595 C 0.15656 0.99113 0.8043 0.0
C1596 C 0.17269 0.97681 0.81662 0.0
C1597 C 0.15755 0.01589 0.80592 0.0
C1598 C 0.17459 0.02723 0.82007 0.0
H1599 H 0.14281 0.98309 0.79365 0.0
H1600 H 0.14433 0.0262 0.79672 0.0
S1601 S 0.22156 0.9979 0.85495 0.0
N1602 N 0.20664 0.97581 0.84289 0.0
N1603 N 0.20875 0.02239 0.84555 0.0
C1604 C 0.19128 0.01317 0.83187 0.0
C1605 C 0.1903 0.98796 0.8302 0.0
C1606 C 0.00976 0.18528 0.82127 0.0
C1607 C 0.02276 0.16766 0.83297 0.0
C1608 C 0.985 0.1851 0.82171 0.0
C1609 C 0.97254 0.16703 0.83347 0.0
H1610 H 0.01879 0.19949 0.81207 0.0
H1611 H 0.97553 0.19908 0.81269 0.0
S1612 S 0.99846 0.11661 0.86633 0.0
N1613 N 0.02148 0.13157 0.85634 0.0
N1614 N 0.97496 0.13112 0.85702 0.0
C1615 C 0.98536 0.14918 0.84497 0.0
C1616 C 0.0105 0.14952 0.84477 0.0
C1617 C 0.81352 0.9865 0.81284 0.0
C1618 C 0.82638 0.97362 0.82971 0.0
C1619 C 0.81411 0.01138 0.81267 0.0
C1620 C 0.82799 0.024 0.82903 0.0
H1621 H 0.80271 0.97729 0.79997 0.0
H1622 H 0.8038 0.02081 0.79961 0.0
S1623 S 0.86521 0.99834 0.87635 0.0
N1624 N 0.85349 0.97514 0.86291 0.0
N1625 N 0.85484 0.02183 0.86243 0.0
C1626 C 0.84112 0.01126 0.84575 0.0
C1627 C 0.84026 0.98605 0.84613 0.0
C1628 C 0.66862 0.65578 0.48815 0.0
C1629 C 0.66285 0.67678 0.4762 0.0
C1630 C 0.66938 0.65502 0.51287 0.0
C1631 C 0.66461 0.67531 0.52656 0.0
H1632 H 0.67208 0.63966 0.47831 0.0
H1633 H 0.67328 0.63826 0.52132 0.0
S1634 S 0.65061 0.73521 0.50347 0.0
N1635 N 0.65335 0.71858 0.47958 0.0
N1636 N 0.65535 0.71742 0.52614 0.0
C1637 C 0.65933 0.6966 0.51474 0.0
C1638 C 0.65833 0.69727 0.48954 0.0
C1639 C 0.30575 0.66937 0.51148 0.0
C1640 C 0.3272 0.67492 0.52273 0.0
C1641 C 0.30386 0.66966 0.48675 0.0
C1642 C 0.32328 0.67573 0.47244 0.0
H1643 H 0.29056 0.66398 0.52181 0.0
H1644 H 0.28716 0.6648 0.47876 0.0
S1645 S 0.38303 0.69283 0.49337 0.0
N1646 N 0.36787 0.68785 0.51781 0.0
N1647 N 0.36452 0.68782 0.4714 0.0
C1648 C 0.34463 0.68195 0.48354 0.0
C1649 C 0.34654 0.68167 0.50866 0.0
C1650 C 0.32397 0.34521 0.49067 0.0
C1651 C 0.32526 0.32371 0.47817 0.0
C1652 C 0.32429 0.34562 0.51542 0.0
C1653 C 0.3258 0.32453 0.52856 0.0
H1654 H 0.32342 0.36191 0.48125 0.0
H1655 H 0.32404 0.36265 0.5243 0.0
S1656 S 0.32704 0.26346 0.50417 0.0
N1657 N 0.32648 0.28074 0.48063 0.0
N1658 N 0.3268 0.28144 0.52724 0.0
C1659 C 0.32633 0.30285 0.51626 0.0
C1660 C 0.32613 0.30245 0.49104 0.0
C1661 C 0.69266 0.33446 0.48541 0.0
C1662 C 0.67524 0.32282 0.47198 0.0
C1663 C 0.6927 0.33313 0.51015 0.0
C1664 C 0.67517 0.32033 0.52231 0.0
H1665 H 0.70608 0.34505 0.47673 0.0
H1666 H 0.70596 0.34301 0.51985 0.0
S1667 S 0.62641 0.28569 0.49535 0.0
N1668 N 0.64054 0.29737 0.47261 0.0
N1669 N 0.64079 0.29468 0.51912 0.0
C1670 C 0.65816 0.30794 0.50907 0.0
C1671 C 0.65817 0.3092 0.48389 0.0
C1672 C 0.5118 0.66176 0.68986 0.0
C1673 C 0.52424 0.67876 0.67656 0.0
C1674 C 0.48709 0.66074 0.68936 0.0
C1675 C 0.47399 0.67667 0.67552 0.0
H1676 H 0.52126 0.64848 0.69988 0.0
H1677 H 0.47823 0.64674 0.69904 0.0
S1678 S 0.49797 0.72668 0.64039 0.0
N1679 N 0.52155 0.71344 0.65126 0.0
N1680 N 0.47505 0.71148 0.65027 0.0
C1681 C 0.48614 0.69454 0.66318 0.0
C1682 C 0.51128 0.69559 0.66371 0.0
C1683 C 0.34961 0.51095 0.67322 0.0
C1684 C 0.3289 0.52331 0.67909 0.0
C1685 C 0.35024 0.48615 0.67359 0.0
C1686 C 0.33021 0.47278 0.67991 0.0
H1687 H 0.36526 0.52051 0.66764 0.0
H1688 H 0.36639 0.47738 0.66825 0.0
S1689 S 0.27234 0.4968 0.69896 0.0
N1690 N 0.28833 0.52052 0.6928 0.0
N1691 N 0.28956 0.4738 0.69371 0.0
C1692 C 0.30957 0.48495 0.68644 0.0
C1693 C 0.30891 0.51024 0.68598 0.0
C1694 C 0.51734 0.34949 0.67424 0.0
C1695 C 0.53076 0.32868 0.67187 0.0
C1696 C 0.49265 0.34867 0.6746 0.0
C1697 C 0.48046 0.32702 0.67257 0.0
H1698 H 0.52597 0.36662 0.67521 0.0
H1699 H 0.48302 0.36519 0.67584 0.0
S1700 S 0.50736 0.26732 0.66829 0.0
N1701 N 0.53011 0.28567 0.66909 0.0
N1702 N 0.48359 0.28416 0.66967 0.0
C1703 C 0.49364 0.30603 0.67079 0.0
C1704 C 0.51881 0.30685 0.67046 0.0
C1705 C 0.66602 0.51027 0.68926 0.0
C1706 C 0.68051 0.5251 0.67548 0.0
C1707 C 0.66825 0.48556 0.68823 0.0
C1708 C 0.68482 0.47486 0.67312 0.0
H1709 H 0.65243 0.51784 0.70044 0.0
H1710 H 0.65617 0.47473 0.69845 0.0
S1711 S 0.7278 0.50581 0.63446 0.0
N1712 N 0.71273 0.52738 0.64717 0.0
N1713 N 0.71683 0.48086 0.64513 0.0
C1714 C 0.7 0.48949 0.65993 0.0
C1715 C 0.6979 0.51464 0.66117 0.0
C1716 C 0.48425 0.33925 0.34858 0.0
C1717 C 0.47185 0.32965 0.32929 0.0
C1718 C 0.50894 0.34049 0.34844 0.0
C1719 C 0.52203 0.3318 0.32918 0.0
H1720 H 0.47476 0.34611 0.36375 0.0
H1721 H 0.51789 0.3481 0.36359 0.0
S1722 S 0.49789 0.30484 0.27452 0.0
N1723 N 0.47433 0.31139 0.29047 0.0
N1724 N 0.52089 0.31332 0.29038 0.0
C1725 C 0.50985 0.322 0.30988 0.0
C1726 C 0.4847 0.32107 0.30987 0.0
C1727 C 0.65303 0.49268 0.31279 0.0
C1728 C 0.66904 0.47945 0.32642 0.0
C1729 C 0.65323 0.51751 0.31327 0.0
C1730 C 0.66935 0.53002 0.32751 0.0
H1731 H 0.64003 0.48375 0.3019 0.0
H1732 H 0.64015 0.52695 0.30301 0.0
S1733 S 0.71568 0.50382 0.36561 0.0
N1734 N 0.70187 0.48074 0.35408 0.0
N1735 N 0.70257 0.52743 0.35454 0.0
C1736 C 0.68592 0.51704 0.34066 0.0
C1737 C 0.68572 0.49176 0.34019 0.0
C1738 C 0.50511 0.69191 0.32857 0.0
C1739 C 0.51907 0.67243 0.32189 0.0
C1740 C 0.48041 0.69036 0.32863 0.0
C1741 C 0.46888 0.66917 0.32235 0.0
H1742 H 0.51337 0.70836 0.33406 0.0
H1743 H 0.47029 0.70558 0.33438 0.0
S1744 S 0.49735 0.61336 0.30284 0.0
N1745 N 0.51958 0.63152 0.30836 0.0
N1746 N 0.47314 0.62867 0.30836 0.0
C1747 C 0.48261 0.64976 0.31514 0.0
C1748 C 0.50772 0.65138 0.31491 0.0
C1749 C 0.33214 0.48269 0.31101 0.0
C1750 C 0.31648 0.47049 0.32603 0.0
C1751 C 0.33276 0.50751 0.31052 0.0
C1752 C 0.31766 0.52106 0.32492 0.0
H1753 H 0.34466 0.473 0.30025 0.0
H1754 H 0.34549 0.51617 0.29912 0.0
S1755 S 0.27224 0.49763 0.36608 0.0
N1756 N 0.28443 0.47375 0.35444 0.0
N1757 N 0.28596 0.52043 0.35394 0.0
C1758 C 0.30129 0.50909 0.33934 0.0
C1759 C 0.30065 0.48381 0.33982 0.0
loop_
_geom_bond_atom_site_label_1
_geom_bond_atom_site_label_2
_geom_bond_distance
_geom_bond_site_symmetry_2
_ccdc_geom_bond_type
Li0 N17 1.990 . S
Li0 O60 1.956 . S
Li0 O61 1.970 . S
Li0 O62 1.961 . S
Li1 N25 1.990 . S
Li1 O60 1.970 . S
Li1 O61 1.956 . S
Li1 O63 1.961 . S
Li2 N47 1.990 . S
Li2 O60 1.961 . S
Li2 O62 1.956 . S
Li2 O63 1.970 . S
Li3 N53 1.990 . S
Li3 O61 1.961 . S
Li3 O62 1.970 . S
Li3 O63 1.956 . S
C4 C6 1.348 . S
C4 C7 1.356 . S
C4 O60 1.325 . S
N5 C8 1.314 . S
N5 C9 1.279 . S
C6 C4 1.348 . S
C6 C8 1.353 . S
C6 H64 0.929 . S
C7 C4 1.356 . S
C7 C9 1.358 . S
C7 H65 0.930 . S
C8 N5 1.314 . S
C8 C6 1.353 . S
C8 H66 0.930 . S
C9 N5 1.279 . S
C9 C7 1.358 . S
C9 H67 0.930 . S
C10 C13 1.348 . S
C10 C14 1.356 . S
C10 O61 1.325 . S
C11 N12 1.279 . S
C11 C14 1.358 . S
C11 H68 0.930 . S
N12 C11 1.279 . S
N12 C15 1.314 . S
C13 C10 1.348 . S
C13 C15 1.353 . S
C13 H69 0.929 . S
C14 C10 1.356 . S
C14 C11 1.358 . S
C14 H70 0.930 . S
C15 N12 1.314 . S
C15 C13 1.353 . S
C15 H71 0.930 . S
C16 N17 1.314 . S
C16 C21 1.353 . S
C16 H22 0.930 . S
N17 Li0 1.990 . S
N17 C16 1.314 . S
N17 C19 1.279 . S
C18 C19 1.358 . S
C18 C20 1.356 . S
C18 H72 0.930 . S
C19 N17 1.279 . S
C19 C18 1.358 . S
C19 H23 0.930 . S
C20 C18 1.356 . S
C20 C21 1.348 . S
C21 C16 1.353 . S
C21 C20 1.348 . S
C21 H73 0.929 . S
H22 C16 0.930 . S
H23 C19 0.930 . S
C24 N25 1.314 . S
C24 C26 1.353 . S
C24 H30 0.930 . S
N25 Li1 1.990 . S
N25 C24 1.314 . S
N25 C28 1.279 . S
C26 C24 1.353 . S
C26 C29 1.348 . S
C26 H74 0.929 . S
C27 C28 1.358 . S
C27 C29 1.356 . S
C27 H75 0.930 . S
C28 N25 1.279 . S
C28 C27 1.358 . S
C28 H31 0.930 . S
C29 C26 1.348 . S
C29 C27 1.356 . S
H30 C24 0.930 . S
H31 C28 0.930 . S
C32 C34 1.348 . S
C32 C35 1.356 . S
C32 O62 1.325 . S
N33 C36 1.314 . S
N33 C37 1.279 . S
C34 C32 1.348 . S
C34 C36 1.353 . S
C34 H76 0.929 . S
C35 C32 1.356 . S
C35 C37 1.358 . S
C35 H77 0.930 . S
C36 N33 1.314 . S
C36 C34 1.353 . S
C36 H78 0.930 . S
C37 N33 1.279 . S
C37 C35 1.358 . S
C37 H79 0.930 . S
C38 C39 1.348 . S
C38 C40 1.356 . S
C38 O63 1.325 . S
C39 C38 1.348 . S
C39 C41 1.353 . S
C39 H80 0.929 . S
C40 C38 1.356 . S
C40 C42 1.358 . S
C40 H81 0.930 . S
C41 C39 1.353 . S
C41 N43 1.314 . S
C41 H82 0.930 . S
C42 C40 1.358 . S
C42 N43 1.279 . S
C42 H83 0.930 . S
N43 C41 1.314 . S
N43 C42 1.279 . S
C44 C46 1.353 . S
C44 N47 1.314 . S
C44 H50 0.930 . S
C45 N47 1.279 . S
C45 C48 1.358 . S
C45 H51 0.930 . S
C46 C44 1.353 . S
C46 C49 1.348 . S
C46 H84 0.929 . S
N47 Li2 1.990 . S
N47 C44 1.314 . S
N47 C45 1.279 . S
C48 C45 1.358 . S
C48 C49 1.356 . S
C48 H85 0.930 . S
C49 C46 1.348 . S
C49 C48 1.356 . S
H50 C44 0.930 . S
H51 C45 0.930 . S
C52 N53 1.314 . S
C52 C54 1.353 . S
C52 H58 0.930 . S
N53 Li3 1.990 . S
N53 C52 1.314 . S
N53 C56 1.279 . S
C54 C52 1.353 . S
C54 C57 1.348 . S
C54 H86 0.929 . S
C55 C56 1.358 . S
C55 C57 1.356 . S
C55 H87 0.930 . S
C56 N53 1.279 . S
C56 C55 1.358 . S
C56 H59 0.930 . S
C57 C54 1.348 . S
C57 C55 1.356 . S
H58 C52 0.930 . S
H59 C56 0.930 . S
O60 Li0 1.956 . S
O60 Li1 1.970 . S
O60 Li2 1.961 . S
O60 C4 1.325 . S
O61 Li0 1.970 . S
O61 Li1 1.956 . S
O61 Li3 1.961 . S
O61 C10 1.325 . S
O62 Li0 1.961 . S
O62 Li2 1.956 . S
O62 Li3 1.970 . S
O62 C32 1.325 . S
O63 Li1 1.961 . S
O63 Li2 1.970 . S
O63 Li3 1.956 . S
O63 C38 1.325 . S
H64 C6 0.929 . S
H65 C7 0.930 . S
H66 C8 0.930 . S
H67 C9 0.930 . S
H68 C11 0.930 . S
H69 C13 0.929 . S
H70 C14 0.930 . S
H71 C15 0.930 . S
H72 C18 0.930 . S
H73 C21 0.929 . S
H74 C26 0.929 . S
H75 C27 0.930 . S
H76 C34 0.929 . S
H77 C35 0.930 . S
H78 C36 0.930 . S
H79 C37 0.930 . S
H80 C39 0.929 . S
H81 C40 0.930 . S
H82 C41 0.930 . S
H83 C42 0.930 . S
H84 C46 0.929 . S
H85 C48 0.930 . S
H86 C54 0.929 . S
H87 C55 0.930 . S
Li88 N105 1.990 . S
Li88 O148 1.956 . S
Li88 O149 1.970 . S
Li88 O150 1.961 . S
Li89 N113 1.990 . S
Li89 O148 1.970 . S
Li89 O149 1.956 . S
Li89 O151 1.961 . S
Li90 N135 1.990 . S
Li90 O148 1.961 . S
Li90 O150 1.956 . S
Li90 O151 1.970 . S
Li91 N141 1.990 . S
Li91 O149 1.961 . S
Li91 O150 1.970 . S
Li91 O151 1.956 . S
C92 C94 1.348 . S
C92 C95 1.356 . S
C92 O148 1.325 . S
N93 C96 1.314 . S
N93 C97 1.279 . S
C94 C92 1.348 . S
C94 C96 1.353 . S
C94 H152 0.929 . S
C95 C92 1.356 . S
C95 C97 1.358 . S
C95 H153 0.930 . S
C96 N93 1.314 . S
C96 C94 1.353 . S
C96 H154 0.930 . S
C97 N93 1.279 . S
C97 C95 1.358 . S
C97 H155 0.930 . S
C98 C101 1.348 . S
C98 C102 1.356 . S
C98 O149 1.325 . S
C99 N100 1.279 . S
C99 C102 1.358 . S
C99 H156 0.930 . S
N100 C99 1.279 . S
N100 C103 1.314 . S
C101 C98 1.348 . S
C101 C103 1.353 . S
C101 H157 0.929 . S
C102 C98 1.356 . S
C102 C99 1.358 . S
C102 H158 0.930 . S
C103 N100 1.314 . S
C103 C101 1.353 . S
C103 H159 0.930 . S
C104 N105 1.314 . S
C104 C109 1.353 . S
C104 H110 0.930 . S
N105 Li88 1.990 . S
N105 C104 1.314 . S
N105 C107 1.279 . S
C106 C107 1.358 . S
C106 C108 1.356 . S
C106 H160 0.930 . S
C107 N105 1.279 . S
C107 C106 1.358 . S
C107 H111 0.930 . S
C108 C106 1.356 . S
C108 C109 1.348 . S
C109 C104 1.353 . S
C109 C108 1.348 . S
C109 H161 0.929 . S
H110 C104 0.930 . S
H111 C107 0.930 . S
C112 N113 1.314 . S
C112 C114 1.353 . S
C112 H118 0.930 . S
N113 Li89 1.990 . S
N113 C112 1.314 . S
N113 C116 1.279 . S
C114 C112 1.353 . S
C114 C117 1.348 . S
C114 H162 0.929 . S
C115 C116 1.358 . S
C115 C117 1.356 . S
C115 H163 0.930 . S
C116 N113 1.279 . S
C116 C115 1.358 . S
C116 H119 0.930 . S
C117 C114 1.348 . S
C117 C115 1.356 . S
H118 C112 0.930 . S
H119 C116 0.930 . S
C120 C122 1.348 . S
C120 C123 1.356 . S
C120 O150 1.325 . S
N121 C124 1.314 . S
N121 C125 1.279 . S
C122 C120 1.348 . S
C122 C124 1.353 . S
C122 H164 0.929 . S
C123 C120 1.356 . S
C123 C125 1.358 . S
C123 H165 0.930 . S
C124 N121 1.314 . S
C124 C122 1.353 . S
C124 H166 0.930 . S
C125 N121 1.279 . S
C125 C123 1.358 . S
C125 H167 0.930 . S
C126 C127 1.348 . S
C126 C128 1.356 . S
C126 O151 1.325 . S
C127 C126 1.348 . S
C127 C129 1.353 . S
C127 H168 0.929 . S
C128 C126 1.356 . S
C128 C130 1.358 . S
C128 H169 0.930 . S
C129 C127 1.353 . S
C129 N131 1.314 . S
C129 H170 0.930 . S
C130 C128 1.358 . S
C130 N131 1.279 . S
C130 H171 0.930 . S
N131 C129 1.314 . S
N131 C130 1.279 . S
C132 C134 1.353 . S
C132 N135 1.314 . S
C132 H138 0.930 . S
C133 N135 1.279 . S
C133 C136 1.358 . S
C133 H139 0.930 . S
C134 C132 1.353 . S
C134 C137 1.348 . S
C134 H172 0.929 . S
N135 Li90 1.990 . S
N135 C132 1.314 . S
N135 C133 1.279 . S
C136 C133 1.358 . S
C136 C137 1.356 . S
C136 H173 0.930 . S
C137 C134 1.348 . S
C137 C136 1.356 . S
H138 C132 0.930 . S
H139 C133 0.930 . S
C140 N141 1.314 . S
C140 C142 1.353 . S
C140 H146 0.930 . S
N141 Li91 1.990 . S
N141 C140 1.314 . S
N141 C144 1.279 . S
C142 C140 1.353 . S
C142 C145 1.348 . S
C142 H174 0.929 . S
C143 C144 1.358 . S
C143 C145 1.356 . S
C143 H175 0.930 . S
C144 N141 1.279 . S
C144 C143 1.358 . S
C144 H147 0.930 . S
C145 C142 1.348 . S
C145 C143 1.356 . S
H146 C140 0.930 . S
H147 C144 0.930 . S
O148 Li88 1.956 . S
O148 Li89 1.970 . S
O148 Li90 1.961 . S
O148 C92 1.325 . S
O149 Li88 1.970 . S
O149 Li89 1.956 . S
O149 Li91 1.961 . S
O149 C98 1.325 . S
O150 Li88 1.961 . S
O150 Li90 1.956 . S
O150 Li91 1.970 . S
O150 C120 1.325 . S
O151 Li89 1.961 . S
O151 Li90 1.970 . S
O151 Li91 1.956 . S
O151 C126 1.325 . S
H152 C94 0.929 . S
H153 C95 0.930 . S
H154 C96 0.930 . S
H155 C97 0.930 . S
H156 C99 0.930 . S
H157 C101 0.929 . S
H158 C102 0.930 . S
H159 C103 0.930 . S
H160 C106 0.930 . S
H161 C109 0.929 . S
H162 C114 0.929 . S
H163 C115 0.930 . S
H164 C122 0.929 . S
H165 C123 0.930 . S
H166 C124 0.930 . S
H167 C125 0.930 . S
H168 C127 0.929 . S
H169 C128 0.930 . S
H170 C129 0.930 . S
H171 C130 0.930 . S
H172 C134 0.929 . S
H173 C136 0.930 . S
H174 C142 0.929 . S
H175 C143 0.930 . S
Li176 N193 1.990 . S
Li176 O236 1.956 . S
Li176 O237 1.970 . S
Li176 O238 1.961 . S
Li177 N201 1.990 . S
Li177 O236 1.970 . S
Li177 O237 1.956 . S
Li177 O239 1.961 . S
Li178 N223 1.990 . S
Li178 O236 1.961 . S
Li178 O238 1.956 . S
Li178 O239 1.970 . S
Li179 N229 1.990 . S
Li179 O237 1.961 . S
Li179 O238 1.970 . S
Li179 O239 1.956 . S
C180 C182 1.348 . S
C180 C183 1.356 . S
C180 O236 1.325 . S
N181 C184 1.314 . S
N181 C185 1.279 . S
C182 C180 1.348 . S
C182 C184 1.353 . S
C182 H240 0.929 . S
C183 C180 1.356 . S
C183 C185 1.358 . S
C183 H241 0.930 . S
C184 N181 1.314 . S
C184 C182 1.353 . S
C184 H242 0.930 . S
C185 N181 1.279 . S
C185 C183 1.358 . S
C185 H243 0.930 . S
C186 C189 1.348 . S
C186 C190 1.356 . S
C186 O237 1.325 . S
C187 N188 1.279 . S
C187 C190 1.358 . S
C187 H244 0.930 . S
N188 C187 1.279 . S
N188 C191 1.314 . S
C189 C186 1.348 . S
C189 C191 1.353 . S
C189 H245 0.929 . S
C190 C186 1.356 . S
C190 C187 1.358 . S
C190 H246 0.930 . S
C191 N188 1.314 . S
C191 C189 1.353 . S
C191 H247 0.930 . S
C192 N193 1.314 . S
C192 C197 1.353 . S
C192 H198 0.930 . S
N193 Li176 1.990 . S
N193 C192 1.314 . S
N193 C195 1.279 . S
C194 C195 1.358 . S
C194 C196 1.356 . S
C194 H248 0.930 . S
C195 N193 1.279 . S
C195 C194 1.358 . S
C195 H199 0.930 . S
C196 C194 1.356 . S
C196 C197 1.348 . S
C197 C192 1.353 . S
C197 C196 1.348 . S
C197 H249 0.929 . S
H198 C192 0.930 . S
H199 C195 0.930 . S
C200 N201 1.314 . S
C200 C202 1.353 . S
C200 H206 0.930 . S
N201 Li177 1.990 . S
N201 C200 1.314 . S
N201 C204 1.279 . S
C202 C200 1.353 . S
C202 C205 1.348 . S
C202 H250 0.929 . S
C203 C204 1.358 . S
C203 C205 1.356 . S
C203 H251 0.930 . S
C204 N201 1.279 . S
C204 C203 1.358 . S
C204 H207 0.930 . S
C205 C202 1.348 . S
C205 C203 1.356 . S
H206 C200 0.930 . S
H207 C204 0.930 . S
C208 C210 1.348 . S
C208 C211 1.356 . S
C208 O238 1.325 . S
N209 C212 1.314 . S
N209 C213 1.279 . S
C210 C208 1.348 . S
C210 C212 1.353 . S
C210 H252 0.929 . S
C211 C208 1.356 . S
C211 C213 1.358 . S
C211 H253 0.930 . S
C212 N209 1.314 . S
C212 C210 1.353 . S
C212 H254 0.930 . S
C213 N209 1.279 . S
C213 C211 1.358 . S
C213 H255 0.930 . S
C214 C215 1.348 . S
C214 C216 1.356 . S
C214 O239 1.325 . S
C215 C214 1.348 . S
C215 C217 1.353 . S
C215 H256 0.929 . S
C216 C214 1.356 . S
C216 C218 1.358 . S
C216 H257 0.930 . S
C217 C215 1.353 . S
C217 N219 1.314 . S
C217 H258 0.930 . S
C218 C216 1.358 . S
C218 N219 1.279 . S
C218 H259 0.930 . S
N219 C217 1.314 . S
N219 C218 1.279 . S
C220 C222 1.353 . S
C220 N223 1.314 . S
C220 H226 0.930 . S
C221 N223 1.279 . S
C221 C224 1.358 . S
C221 H227 0.930 . S
C222 C220 1.353 . S
C222 C225 1.348 . S
C222 H260 0.929 . S
N223 Li178 1.990 . S
N223 C220 1.314 . S
N223 C221 1.279 . S
C224 C221 1.358 . S
C224 C225 1.356 . S
C224 H261 0.930 . S
C225 C222 1.348 . S
C225 C224 1.356 . S
H226 C220 0.930 . S
H227 C221 0.930 . S
C228 N229 1.314 . S
C228 C230 1.353 . S
C228 H234 0.930 . S
N229 Li179 1.990 . S
N229 C228 1.314 . S
N229 C232 1.279 . S
C230 C228 1.353 . S
C230 C233 1.348 . S
C230 H262 0.929 . S
C231 C232 1.358 . S
C231 C233 1.356 . S
C231 H263 0.930 . S
C232 N229 1.279 . S
C232 C231 1.358 . S
C232 H235 0.930 . S
C233 C230 1.348 . S
C233 C231 1.356 . S
H234 C228 0.930 . S
H235 C232 0.930 . S
O236 Li176 1.956 . S
O236 Li177 1.970 . S
O236 Li178 1.961 . S
O236 C180 1.325 . S
O237 Li176 1.970 . S
O237 Li177 1.956 . S
O237 Li179 1.961 . S
O237 C186 1.325 . S
O238 Li176 1.961 . S
O238 Li178 1.956 . S
O238 Li179 1.970 . S
O238 C208 1.325 . S
O239 Li177 1.961 . S
O239 Li178 1.970 . S
O239 Li179 1.956 . S
O239 C214 1.325 . S
H240 C182 0.929 . S
H241 C183 0.930 . S
H242 C184 0.930 . S
H243 C185 0.930 . S
H244 C187 0.930 . S
H245 C189 0.929 . S
H246 C190 0.930 . S
H247 C191 0.930 . S
H248 C194 0.930 . S
H249 C197 0.929 . S
H250 C202 0.929 . S
H251 C203 0.930 . S
H252 C210 0.929 . S
H253 C211 0.930 . S
H254 C212 0.930 . S
H255 C213 0.930 . S
H256 C215 0.929 . S
H257 C216 0.930 . S
H258 C217 0.930 . S
H259 C218 0.930 . S
H260 C222 0.929 . S
H261 C224 0.930 . S
H262 C230 0.929 . S
H263 C231 0.930 . S
Li264 N281 1.990 . S
Li264 O324 1.956 . S
Li264 O325 1.970 . S
Li264 O326 1.961 . S
Li265 N289 1.990 . S
Li265 O324 1.970 . S
Li265 O325 1.956 . S
Li265 O327 1.961 . S
Li266 N311 1.990 . S
Li266 O324 1.961 . S
Li266 O326 1.956 . S
Li266 O327 1.970 . S
Li267 N317 1.990 . S
Li267 O325 1.961 . S
Li267 O326 1.970 . S
Li267 O327 1.956 . S
C268 C270 1.348 . S
C268 C271 1.356 . S
C268 O324 1.325 . S
N269 C272 1.314 . S
N269 C273 1.279 . S
C270 C268 1.348 . S
C270 C272 1.353 . S
C270 H328 0.929 . S
C271 C268 1.356 . S
C271 C273 1.358 . S
C271 H329 0.930 . S
C272 N269 1.314 . S
C272 C270 1.353 . S
C272 H330 0.930 . S
C273 N269 1.279 . S
C273 C271 1.358 . S
C273 H331 0.930 . S
C274 C277 1.348 . S
C274 C278 1.356 . S
C274 O325 1.325 . S
C275 N276 1.279 . S
C275 C278 1.358 . S
C275 H332 0.930 . S
N276 C275 1.279 . S
N276 C279 1.314 . S
C277 C274 1.348 . S
C277 C279 1.353 . S
C277 H333 0.929 . S
C278 C274 1.356 . S
C278 C275 1.358 . S
C278 H334 0.930 . S
C279 N276 1.314 . S
C279 C277 1.353 . S
C279 H335 0.930 . S
C280 N281 1.314 . S
C280 C285 1.353 . S
C280 H286 0.930 . S
N281 Li264 1.990 . S
N281 C280 1.314 . S
N281 C283 1.279 . S
C282 C283 1.358 . S
C282 C284 1.356 . S
C282 H336 0.930 . S
C283 N281 1.279 . S
C283 C282 1.358 . S
C283 H287 0.930 . S
C284 C282 1.356 . S
C284 C285 1.348 . S
C285 C280 1.353 . S
C285 C284 1.348 . S
C285 H337 0.929 . S
H286 C280 0.930 . S
H287 C283 0.930 . S
C288 N289 1.314 . S
C288 C290 1.353 . S
C288 H294 0.930 . S
N289 Li265 1.990 . S
N289 C288 1.314 . S
N289 C292 1.279 . S
C290 C288 1.353 . S
C290 C293 1.348 . S
C290 H338 0.929 . S
C291 C292 1.358 . S
C291 C293 1.356 . S
C291 H339 0.930 . S
C292 N289 1.279 . S
C292 C291 1.358 . S
C292 H295 0.930 . S
C293 C290 1.348 . S
C293 C291 1.356 . S
H294 C288 0.930 . S
H295 C292 0.930 . S
C296 C298 1.348 . S
C296 C299 1.356 . S
C296 O326 1.325 . S
N297 C300 1.314 . S
N297 C301 1.279 . S
C298 C296 1.348 . S
C298 C300 1.353 . S
C298 H340 0.929 . S
C299 C296 1.356 . S
C299 C301 1.358 . S
C299 H341 0.930 . S
C300 N297 1.314 . S
C300 C298 1.353 . S
C300 H342 0.930 . S
C301 N297 1.279 . S
C301 C299 1.358 . S
C301 H343 0.930 . S
C302 C303 1.348 . S
C302 C304 1.356 . S
C302 O327 1.325 . S
C303 C302 1.348 . S
C303 C305 1.353 . S
C303 H344 0.929 . S
C304 C302 1.356 . S
C304 C306 1.358 . S
C304 H345 0.930 . S
C305 C303 1.353 . S
C305 N307 1.314 . S
C305 H346 0.930 . S
C306 C304 1.358 . S
C306 N307 1.279 . S
C306 H347 0.930 . S
N307 C305 1.314 . S
N307 C306 1.279 . S
C308 C310 1.353 . S
C308 N311 1.314 . S
C308 H314 0.930 . S
C309 N311 1.279 . S
C309 C312 1.358 . S
C309 H315 0.930 . S
C310 C308 1.353 . S
C310 C313 1.348 . S
C310 H348 0.929 . S
N311 Li266 1.990 . S
N311 C308 1.314 . S
N311 C309 1.279 . S
C312 C309 1.358 . S
C312 C313 1.356 . S
C312 H349 0.930 . S
C313 C310 1.348 . S
C313 C312 1.356 . S
H314 C308 0.930 . S
H315 C309 0.930 . S
C316 N317 1.314 . S
C316 C318 1.353 . S
C316 H322 0.930 . S
N317 Li267 1.990 . S
N317 C316 1.314 . S
N317 C320 1.279 . S
C318 C316 1.353 . S
C318 C321 1.348 . S
C318 H350 0.929 . S
C319 C320 1.358 . S
C319 C321 1.356 . S
C319 H351 0.930 . S
C320 N317 1.279 . S
C320 C319 1.358 . S
C320 H323 0.930 . S
C321 C318 1.348 . S
C321 C319 1.356 . S
H322 C316 0.930 . S
H323 C320 0.930 . S
O324 Li264 1.956 . S
O324 Li265 1.970 . S
O324 Li266 1.961 . S
O324 C268 1.325 . S
O325 Li264 1.970 . S
O325 Li265 1.956 . S
O325 Li267 1.961 . S
O325 C274 1.325 . S
O326 Li264 1.961 . S
O326 Li266 1.956 . S
O326 Li267 1.970 . S
O326 C296 1.325 . S
O327 Li265 1.961 . S
O327 Li266 1.970 . S
O327 Li267 1.956 . S
O327 C302 1.325 . S
H328 C270 0.929 . S
H329 C271 0.930 . S
H330 C272 0.930 . S
H331 C273 0.930 . S
H332 C275 0.930 . S
H333 C277 0.929 . S
H334 C278 0.930 . S
H335 C279 0.930 . S
H336 C282 0.930 . S
H337 C285 0.929 . S
H338 C290 0.929 . S
H339 C291 0.930 . S
H340 C298 0.929 . S
H341 C299 0.930 . S
H342 C300 0.930 . S
H343 C301 0.930 . S
H344 C303 0.929 . S
H345 C304 0.930 . S
H346 C305 0.930 . S
H347 C306 0.930 . S
H348 C310 0.929 . S
H349 C312 0.930 . S
H350 C318 0.929 . S
H351 C319 0.930 . S
Li352 N369 1.990 . S
Li352 O412 1.956 . S
Li352 O413 1.970 . S
Li352 O414 1.961 . S
Li353 N377 1.990 . S
Li353 O412 1.970 . S
Li353 O413 1.956 . S
Li353 O415 1.961 . S
Li354 N399 1.990 . S
Li354 O412 1.961 . S
Li354 O414 1.956 . S
Li354 O415 1.970 . S
Li355 N405 1.990 . S
Li355 O413 1.961 . S
Li355 O414 1.970 . S
Li355 O415 1.956 . S
C356 C358 1.348 . S
C356 C359 1.356 . S
C356 O412 1.325 . S
N357 C360 1.314 . S
N357 C361 1.279 . S
C358 C356 1.348 . S
C358 C360 1.353 . S
C358 H416 0.929 . S
C359 C356 1.356 . S
C359 C361 1.358 . S
C359 H417 0.930 . S
C360 N357 1.314 . S
C360 C358 1.353 . S
C360 H418 0.930 . S
C361 N357 1.279 . S
C361 C359 1.358 . S
C361 H419 0.930 . S
C362 C365 1.348 . S
C362 C366 1.356 . S
C362 O413 1.325 . S
C363 N364 1.279 . S
C363 C366 1.358 . S
C363 H420 0.930 . S
N364 C363 1.279 . S
N364 C367 1.314 . S
C365 C362 1.348 . S
C365 C367 1.353 . S
C365 H421 0.929 . S
C366 C362 1.356 . S
C366 C363 1.358 . S
C366 H422 0.930 . S
C367 N364 1.314 . S
C367 C365 1.353 . S
C367 H423 0.930 . S
C368 N369 1.314 . S
C368 C373 1.353 . S
C368 H374 0.930 . S
N369 Li352 1.990 . S
N369 C368 1.314 . S
N369 C371 1.279 . S
C370 C371 1.358 . S
C370 C372 1.356 . S
C370 H424 0.930 . S
C371 N369 1.279 . S
C371 C370 1.358 . S
C371 H375 0.930 . S
C372 C370 1.356 . S
C372 C373 1.348 . S
C373 C368 1.353 . S
C373 C372 1.348 . S
C373 H425 0.929 . S
H374 C368 0.930 . S
H375 C371 0.930 . S
C376 N377 1.314 . S
C376 C378 1.353 . S
C376 H382 0.930 . S
N377 Li353 1.990 . S
N377 C376 1.314 . S
N377 C380 1.279 . S
C378 C376 1.353 . S
C378 C381 1.348 . S
C378 H426 0.929 . S
C379 C380 1.358 . S
C379 C381 1.356 . S
C379 H427 0.930 . S
C380 N377 1.279 . S
C380 C379 1.358 . S
C380 H383 0.930 . S
C381 C378 1.348 . S
C381 C379 1.356 . S
H382 C376 0.930 . S
H383 C380 0.930 . S
C384 C386 1.348 . S
C384 C387 1.356 . S
C384 O414 1.325 . S
N385 C388 1.314 . S
N385 C389 1.279 . S
C386 C384 1.348 . S
C386 C388 1.353 . S
C386 H428 0.929 . S
C387 C384 1.356 . S
C387 C389 1.358 . S
C387 H429 0.930 . S
C388 N385 1.314 . S
C388 C386 1.353 . S
C388 H430 0.930 . S
C389 N385 1.279 . S
C389 C387 1.358 . S
C389 H431 0.930 . S
C390 C391 1.348 . S
C390 C392 1.356 . S
C390 O415 1.325 . S
C391 C390 1.348 . S
C391 C393 1.353 . S
C391 H432 0.929 . S
C392 C390 1.356 . S
C392 C394 1.358 . S
C392 H433 0.930 . S
C393 C391 1.353 . S
C393 N395 1.314 . S
C393 H434 0.930 . S
C394 C392 1.358 . S
C394 N395 1.279 . S
C394 H435 0.930 . S
N395 C393 1.314 . S
N395 C394 1.279 . S
C396 C398 1.353 . S
C396 N399 1.314 . S
C396 H402 0.930 . S
C397 N399 1.279 . S
C397 C400 1.358 . S
C397 H403 0.930 . S
C398 C396 1.353 . S
C398 C401 1.348 . S
C398 H436 0.929 . S
N399 Li354 1.990 . S
N399 C396 1.314 . S
N399 C397 1.279 . S
C400 C397 1.358 . S
C400 C401 1.356 . S
C400 H437 0.930 . S
C401 C398 1.348 . S
C401 C400 1.356 . S
H402 C396 0.930 . S
H403 C397 0.930 . S
C404 N405 1.314 . S
C404 C406 1.353 . S
C404 H410 0.930 . S
N405 Li355 1.990 . S
N405 C404 1.314 . S
N405 C408 1.279 . S
C406 C404 1.353 . S
C406 C409 1.348 . S
C406 H438 0.929 . S
C407 C408 1.358 . S
C407 C409 1.356 . S
C407 H439 0.930 . S
C408 N405 1.279 . S
C408 C407 1.358 . S
C408 H411 0.930 . S
C409 C406 1.348 . S
C409 C407 1.356 . S
H410 C404 0.930 . S
H411 C408 0.930 . S
O412 Li352 1.956 . S
O412 Li353 1.970 . S
O412 Li354 1.961 . S
O412 C356 1.325 . S
O413 Li352 1.970 . S
O413 Li353 1.956 . S
O413 Li355 1.961 . S
O413 C362 1.325 . S
O414 Li352 1.961 . S
O414 Li354 1.956 . S
O414 Li355 1.970 . S
O414 C384 1.325 . S
O415 Li353 1.961 . S
O415 Li354 1.970 . S
O415 Li355 1.956 . S
O415 C390 1.325 . S
H416 C358 0.929 . S
H417 C359 0.930 . S
H418 C360 0.930 . S
H419 C361 0.930 . S
H420 C363 0.930 . S
H421 C365 0.929 . S
H422 C366 0.930 . S
H423 C367 0.930 . S
H424 C370 0.930 . S
H425 C373 0.929 . S
H426 C378 0.929 . S
H427 C379 0.930 . S
H428 C386 0.929 . S
H429 C387 0.930 . S
H430 C388 0.930 . S
H431 C389 0.930 . S
H432 C391 0.929 . S
H433 C392 0.930 . S
H434 C393 0.930 . S
H435 C394 0.930 . S
H436 C398 0.929 . S
H437 C400 0.930 . S
H438 C406 0.929 . S
H439 C407 0.930 . S
Li440 N457 1.990 . S
Li440 O500 1.956 . S
Li440 O501 1.970 . S
Li440 O502 1.961 . S
Li441 N465 1.990 . S
Li441 O500 1.970 . S
Li441 O501 1.956 . S
Li441 O503 1.961 . S
Li442 N487 1.990 . S
Li442 O500 1.961 . S
Li442 O502 1.956 . S
Li442 O503 1.970 . S
Li443 N493 1.990 . S
Li443 O501 1.961 . S
Li443 O502 1.970 . S
Li443 O503 1.956 . S
C444 C446 1.348 . S
C444 C447 1.356 . S
C444 O500 1.325 . S
N445 C448 1.314 . S
N445 C449 1.279 . S
C446 C444 1.348 . S
C446 C448 1.353 . S
C446 H504 0.929 . S
C447 C444 1.356 . S
C447 C449 1.358 . S
C447 H505 0.930 . S
C448 N445 1.314 . S
C448 C446 1.353 . S
C448 H506 0.930 . S
C449 N445 1.279 . S
C449 C447 1.358 . S
C449 H507 0.930 . S
C450 C453 1.348 . S
C450 C454 1.356 . S
C450 O501 1.325 . S
C451 N452 1.279 . S
C451 C454 1.358 . S
C451 H508 0.930 . S
N452 C451 1.279 . S
N452 C455 1.314 . S
C453 C450 1.348 . S
C453 C455 1.353 . S
C453 H509 0.929 . S
C454 C450 1.356 . S
C454 C451 1.358 . S
C454 H510 0.930 . S
C455 N452 1.314 . S
C455 C453 1.353 . S
C455 H511 0.930 . S
C456 N457 1.314 . S
C456 C461 1.353 . S
C456 H462 0.930 . S
N457 Li440 1.990 . S
N457 C456 1.314 . S
N457 C459 1.279 . S
C458 C459 1.358 . S
C458 C460 1.356 . S
C458 H512 0.930 . S
C459 N457 1.279 . S
C459 C458 1.358 . S
C459 H463 0.930 . S
C460 C458 1.356 . S
C460 C461 1.348 . S
C461 C456 1.353 . S
C461 C460 1.348 . S
C461 H513 0.929 . S
H462 C456 0.930 . S
H463 C459 0.930 . S
C464 N465 1.314 . S
C464 C466 1.353 . S
C464 H470 0.930 . S
N465 Li441 1.990 . S
N465 C464 1.314 . S
N465 C468 1.279 . S
C466 C464 1.353 . S
C466 C469 1.348 . S
C466 H514 0.929 . S
C467 C468 1.358 . S
C467 C469 1.356 . S
C467 H515 0.930 . S
C468 N465 1.279 . S
C468 C467 1.358 . S
C468 H471 0.930 . S
C469 C466 1.348 . S
C469 C467 1.356 . S
H470 C464 0.930 . S
H471 C468 0.930 . S
C472 C474 1.348 . S
C472 C475 1.356 . S
C472 O502 1.325 . S
N473 C476 1.314 . S
N473 C477 1.279 . S
C474 C472 1.348 . S
C474 C476 1.353 . S
C474 H516 0.929 . S
C475 C472 1.356 . S
C475 C477 1.358 . S
C475 H517 0.930 . S
C476 N473 1.314 . S
C476 C474 1.353 . S
C476 H518 0.930 . S
C477 N473 1.279 . S
C477 C475 1.358 . S
C477 H519 0.930 . S
C478 C479 1.348 . S
C478 C480 1.356 . S
C478 O503 1.325 . S
C479 C478 1.348 . S
C479 C481 1.353 . S
C479 H520 0.929 . S
C480 C478 1.356 . S
C480 C482 1.358 . S
C480 H521 0.930 . S
C481 C479 1.353 . S
C481 N483 1.314 . S
C481 H522 0.930 . S
C482 C480 1.358 . S
C482 N483 1.279 . S
C482 H523 0.930 . S
N483 C481 1.314 . S
N483 C482 1.279 . S
C484 C486 1.353 . S
C484 N487 1.314 . S
C484 H490 0.930 . S
C485 N487 1.279 . S
C485 C488 1.358 . S
C485 H491 0.930 . S
C486 C484 1.353 . S
C486 C489 1.348 . S
C486 H524 0.929 . S
N487 Li442 1.990 . S
N487 C484 1.314 . S
N487 C485 1.279 . S
C488 C485 1.358 . S
C488 C489 1.356 . S
C488 H525 0.930 . S
C489 C486 1.348 . S
C489 C488 1.356 . S
H490 C484 0.930 . S
H491 C485 0.930 . S
C492 N493 1.314 . S
C492 C494 1.353 . S
C492 H498 0.930 . S
N493 Li443 1.990 . S
N493 C492 1.314 . S
N493 C496 1.279 . S
C494 C492 1.353 . S
C494 C497 1.348 . S
C494 H526 0.929 . S
C495 C496 1.358 . S
C495 C497 1.356 . S
C495 H527 0.930 . S
C496 N493 1.279 . S
C496 C495 1.358 . S
C496 H499 0.930 . S
C497 C494 1.348 . S
C497 C495 1.356 . S
H498 C492 0.930 . S
H499 C496 0.930 . S
O500 Li440 1.956 . S
O500 Li441 1.970 . S
O500 Li442 1.961 . S
O500 C444 1.325 . S
O501 Li440 1.970 . S
O501 Li441 1.956 . S
O501 Li443 1.961 . S
O501 C450 1.325 . S
O502 Li440 1.961 . S
O502 Li442 1.956 . S
O502 Li443 1.970 . S
O502 C472 1.325 . S
O503 Li441 1.961 . S
O503 Li442 1.970 . S
O503 Li443 1.956 . S
O503 C478 1.325 . S
H504 C446 0.929 . S
H505 C447 0.930 . S
H506 C448 0.930 . S
H507 C449 0.930 . S
H508 C451 0.930 . S
H509 C453 0.929 . S
H510 C454 0.930 . S
H511 C455 0.930 . S
H512 C458 0.930 . S
H513 C461 0.929 . S
H514 C466 0.929 . S
H515 C467 0.930 . S
H516 C474 0.929 . S
H517 C475 0.930 . S
H518 C476 0.930 . S
H519 C477 0.930 . S
H520 C479 0.929 . S
H521 C480 0.930 . S
H522 C481 0.930 . S
H523 C482 0.930 . S
H524 C486 0.929 . S
H525 C488 0.930 . S
H526 C494 0.929 . S
H527 C495 0.930 . S
Li528 N545 1.990 . S
Li528 O588 1.956 . S
Li528 O589 1.970 . S
Li528 O590 1.961 . S
Li529 N553 1.990 . S
Li529 O588 1.970 . S
Li529 O589 1.956 . S
Li529 O591 1.961 . S
Li530 N575 1.990 . S
Li530 O588 1.961 . S
Li530 O590 1.956 . S
Li530 O591 1.970 . S
Li531 N581 1.990 . S
Li531 O589 1.961 . S
Li531 O590 1.970 . S
Li531 O591 1.956 . S
C532 C534 1.348 . S
C532 C535 1.356 . S
C532 O588 1.325 . S
N533 C536 1.314 . S
N533 C537 1.279 . S
C534 C532 1.348 . S
C534 C536 1.353 . S
C534 H592 0.929 . S
C535 C532 1.356 . S
C535 C537 1.358 . S
C535 H593 0.930 . S
C536 N533 1.314 . S
C536 C534 1.353 . S
C536 H594 0.930 . S
C537 N533 1.279 . S
C537 C535 1.358 . S
C537 H595 0.930 . S
C538 C541 1.348 . S
C538 C542 1.356 . S
C538 O589 1.325 . S
C539 N540 1.279 . S
C539 C542 1.358 . S
C539 H596 0.930 . S
N540 C539 1.279 . S
N540 C543 1.314 . S
C541 C538 1.348 . S
C541 C543 1.353 . S
C541 H597 0.929 . S
C542 C538 1.356 . S
C542 C539 1.358 . S
C542 H598 0.930 . S
C543 N540 1.314 . S
C543 C541 1.353 . S
C543 H599 0.930 . S
C544 N545 1.314 . S
C544 C549 1.353 . S
C544 H550 0.930 . S
N545 Li528 1.990 . S
N545 C544 1.314 . S
N545 C547 1.279 . S
C546 C547 1.358 . S
C546 C548 1.356 . S
C546 H600 0.930 . S
C547 N545 1.279 . S
C547 C546 1.358 . S
C547 H551 0.930 . S
C548 C546 1.356 . S
C548 C549 1.348 . S
C549 C544 1.353 . S
C549 C548 1.348 . S
C549 H601 0.929 . S
H550 C544 0.930 . S
H551 C547 0.930 . S
C552 N553 1.314 . S
C552 C554 1.353 . S
C552 H558 0.930 . S
N553 Li529 1.990 . S
N553 C552 1.314 . S
N553 C556 1.279 . S
C554 C552 1.353 . S
C554 C557 1.348 . S
C554 H602 0.929 . S
C555 C556 1.358 . S
C555 C557 1.356 . S
C555 H603 0.930 . S
C556 N553 1.279 . S
C556 C555 1.358 . S
C556 H559 0.930 . S
C557 C554 1.348 . S
C557 C555 1.356 . S
H558 C552 0.930 . S
H559 C556 0.930 . S
C560 C562 1.348 . S
C560 C563 1.356 . S
C560 O590 1.325 . S
N561 C564 1.314 . S
N561 C565 1.279 . S
C562 C560 1.348 . S
C562 C564 1.353 . S
C562 H604 0.929 . S
C563 C560 1.356 . S
C563 C565 1.358 . S
C563 H605 0.930 . S
C564 N561 1.314 . S
C564 C562 1.353 . S
C564 H606 0.930 . S
C565 N561 1.279 . S
C565 C563 1.358 . S
C565 H607 0.930 . S
C566 C567 1.348 . S
C566 C568 1.356 . S
C566 O591 1.325 . S
C567 C566 1.348 . S
C567 C569 1.353 . S
C567 H608 0.929 . S
C568 C566 1.356 . S
C568 C570 1.358 . S
C568 H609 0.930 . S
C569 C567 1.353 . S
C569 N571 1.314 . S
C569 H610 0.930 . S
C570 C568 1.358 . S
C570 N571 1.279 . S
C570 H611 0.930 . S
N571 C569 1.314 . S
N571 C570 1.279 . S
C572 C574 1.353 . S
C572 N575 1.314 . S
C572 H578 0.930 . S
C573 N575 1.279 . S
C573 C576 1.358 . S
C573 H579 0.930 . S
C574 C572 1.353 . S
C574 C577 1.348 . S
C574 H612 0.929 . S
N575 Li530 1.990 . S
N575 C572 1.314 . S
N575 C573 1.279 . S
C576 C573 1.358 . S
C576 C577 1.356 . S
C576 H613 0.930 . S
C577 C574 1.348 . S
C577 C576 1.356 . S
H578 C572 0.930 . S
H579 C573 0.930 . S
C580 N581 1.314 . S
C580 C582 1.353 . S
C580 H586 0.930 . S
N581 Li531 1.990 . S
N581 C580 1.314 . S
N581 C584 1.279 . S
C582 C580 1.353 . S
C582 C585 1.348 . S
C582 H614 0.929 . S
C583 C584 1.358 . S
C583 C585 1.356 . S
C583 H615 0.930 . S
C584 N581 1.279 . S
C584 C583 1.358 . S
C584 H587 0.930 . S
C585 C582 1.348 . S
C585 C583 1.356 . S
H586 C580 0.930 . S
H587 C584 0.930 . S
O588 Li528 1.956 . S
O588 Li529 1.970 . S
O588 Li530 1.961 . S
O588 C532 1.325 . S
O589 Li528 1.970 . S
O589 Li529 1.956 . S
O589 Li531 1.961 . S
O589 C538 1.325 . S
O590 Li528 1.961 . S
O590 Li530 1.956 . S
O590 Li531 1.970 . S
O590 C560 1.325 . S
O591 Li529 1.961 . S
O591 Li530 1.970 . S
O591 Li531 1.956 . S
O591 C566 1.325 . S
H592 C534 0.929 . S
H593 C535 0.930 . S
H594 C536 0.930 . S
H595 C537 0.930 . S
H596 C539 0.930 . S
H597 C541 0.929 . S
H598 C542 0.930 . S
H599 C543 0.930 . S
H600 C546 0.930 . S
H601 C549 0.929 . S
H602 C554 0.929 . S
H603 C555 0.930 . S
H604 C562 0.929 . S
H605 C563 0.930 . S
H606 C564 0.930 . S
H607 C565 0.930 . S
H608 C567 0.929 . S
H609 C568 0.930 . S
H610 C569 0.930 . S
H611 C570 0.930 . S
H612 C574 0.929 . S
H613 C576 0.930 . S
H614 C582 0.929 . S
H615 C583 0.930 . S
Li616 N633 1.990 . S
Li616 O676 1.956 . S
Li616 O677 1.970 . S
Li616 O678 1.961 . S
Li617 N641 1.990 . S
Li617 O676 1.970 . S
Li617 O677 1.956 . S
Li617 O679 1.961 . S
Li618 N663 1.990 . S
Li618 O676 1.961 . S
Li618 O678 1.956 . S
Li618 O679 1.970 . S
Li619 N669 1.990 . S
Li619 O677 1.961 . S
Li619 O678 1.970 . S
Li619 O679 1.956 . S
C620 C622 1.348 . S
C620 C623 1.356 . S
C620 O676 1.325 . S
N621 C624 1.314 . S
N621 C625 1.279 . S
C622 C620 1.348 . S
C622 C624 1.353 . S
C622 H680 0.929 . S
C623 C620 1.356 . S
C623 C625 1.358 . S
C623 H681 0.930 . S
C624 N621 1.314 . S
C624 C622 1.353 . S
C624 H682 0.930 . S
C625 N621 1.279 . S
C625 C623 1.358 . S
C625 H683 0.930 . S
C626 C629 1.348 . S
C626 C630 1.356 . S
C626 O677 1.325 . S
C627 N628 1.279 . S
C627 C630 1.358 . S
C627 H684 0.930 . S
N628 C627 1.279 . S
N628 C631 1.314 . S
C629 C626 1.348 . S
C629 C631 1.353 . S
C629 H685 0.929 . S
C630 C626 1.356 . S
C630 C627 1.358 . S
C630 H686 0.930 . S
C631 N628 1.314 . S
C631 C629 1.353 . S
C631 H687 0.930 . S
C632 N633 1.314 . S
C632 C637 1.353 . S
C632 H638 0.930 . S
N633 Li616 1.990 . S
N633 C632 1.314 . S
N633 C635 1.279 . S
C634 C635 1.358 . S
C634 C636 1.356 . S
C634 H688 0.930 . S
C635 N633 1.279 . S
C635 C634 1.358 . S
C635 H639 0.930 . S
C636 C634 1.356 . S
C636 C637 1.348 . S
C637 C632 1.353 . S
C637 C636 1.348 . S
C637 H689 0.929 . S
H638 C632 0.930 . S
H639 C635 0.930 . S
C640 N641 1.314 . S
C640 C642 1.353 . S
C640 H646 0.930 . S
N641 Li617 1.990 . S
N641 C640 1.314 . S
N641 C644 1.279 . S
C642 C640 1.353 . S
C642 C645 1.348 . S
C642 H690 0.929 . S
C643 C644 1.358 . S
C643 C645 1.356 . S
C643 H691 0.930 . S
C644 N641 1.279 . S
C644 C643 1.358 . S
C644 H647 0.930 . S
C645 C642 1.348 . S
C645 C643 1.356 . S
H646 C640 0.930 . S
H647 C644 0.930 . S
C648 C650 1.348 . S
C648 C651 1.356 . S
C648 O678 1.325 . S
N649 C652 1.314 . S
N649 C653 1.279 . S
C650 C648 1.348 . S
C650 C652 1.353 . S
C650 H692 0.929 . S
C651 C648 1.356 . S
C651 C653 1.358 . S
C651 H693 0.930 . S
C652 N649 1.314 . S
C652 C650 1.353 . S
C652 H694 0.930 . S
C653 N649 1.279 . S
C653 C651 1.358 . S
C653 H695 0.930 . S
C654 C655 1.348 . S
C654 C656 1.356 . S
C654 O679 1.325 . S
C655 C654 1.348 . S
C655 C657 1.353 . S
C655 H696 0.929 . S
C656 C654 1.356 . S
C656 C658 1.358 . S
C656 H697 0.930 . S
C657 C655 1.353 . S
C657 N659 1.314 . S
C657 H698 0.930 . S
C658 C656 1.358 . S
C658 N659 1.279 . S
C658 H699 0.930 . S
N659 C657 1.314 . S
N659 C658 1.279 . S
C660 C662 1.353 . S
C660 N663 1.314 . S
C660 H666 0.930 . S
C661 N663 1.279 . S
C661 C664 1.358 . S
C661 H667 0.930 . S
C662 C660 1.353 . S
C662 C665 1.348 . S
C662 H700 0.929 . S
N663 Li618 1.990 . S
N663 C660 1.314 . S
N663 C661 1.279 . S
C664 C661 1.358 . S
C664 C665 1.356 . S
C664 H701 0.930 . S
C665 C662 1.348 . S
C665 C664 1.356 . S
H666 C660 0.930 . S
H667 C661 0.930 . S
C668 N669 1.314 . S
C668 C670 1.353 . S
C668 H674 0.930 . S
N669 Li619 1.990 . S
N669 C668 1.314 . S
N669 C672 1.279 . S
C670 C668 1.353 . S
C670 C673 1.348 . S
C670 H702 0.929 . S
C671 C672 1.358 . S
C671 C673 1.356 . S
C671 H703 0.930 . S
C672 N669 1.279 . S
C672 C671 1.358 . S
C672 H675 0.930 . S
C673 C670 1.348 . S
C673 C671 1.356 . S
H674 C668 0.930 . S
H675 C672 0.930 . S
O676 Li616 1.956 . S
O676 Li617 1.970 . S
O676 Li618 1.961 . S
O676 C620 1.325 . S
O677 Li616 1.970 . S
O677 Li617 1.956 . S
O677 Li619 1.961 . S
O677 C626 1.325 . S
O678 Li616 1.961 . S
O678 Li618 1.956 . S
O678 Li619 1.970 . S
O678 C648 1.325 . S
O679 Li617 1.961 . S
O679 Li618 1.970 . S
O679 Li619 1.956 . S
O679 C654 1.325 . S
H680 C622 0.929 . S
H681 C623 0.930 . S
H682 C624 0.930 . S
H683 C625 0.930 . S
H684 C627 0.930 . S
H685 C629 0.929 . S
H686 C630 0.930 . S
H687 C631 0.930 . S
H688 C634 0.930 . S
H689 C637 0.929 . S
H690 C642 0.929 . S
H691 C643 0.930 . S
H692 C650 0.929 . S
H693 C651 0.930 . S
H694 C652 0.930 . S
H695 C653 0.930 . S
H696 C655 0.929 . S
H697 C656 0.930 . S
H698 C657 0.930 . S
H699 C658 0.930 . S
H700 C662 0.929 . S
H701 C664 0.930 . S
H702 C670 0.929 . S
H703 C671 0.930 . S
Li704 N721 1.990 . S
Li704 O764 1.956 . S
Li704 O765 1.970 . S
Li704 O766 1.961 . S
Li705 N729 1.990 . S
Li705 O764 1.970 . S
Li705 O765 1.956 . S
Li705 O767 1.961 . S
Li706 N751 1.990 . S
Li706 O764 1.961 . S
Li706 O766 1.956 . S
Li706 O767 1.970 . S
Li707 N757 1.990 . S
Li707 O765 1.961 . S
Li707 O766 1.970 . S
Li707 O767 1.956 . S
C708 C710 1.348 . S
C708 C711 1.356 . S
C708 O764 1.325 . S
N709 C712 1.314 . S
N709 C713 1.279 . S
C710 C708 1.348 . S
C710 C712 1.353 . S
C710 H768 0.929 . S
C711 C708 1.356 . S
C711 C713 1.358 . S
C711 H769 0.930 . S
C712 N709 1.314 . S
C712 C710 1.353 . S
C712 H770 0.930 . S
C713 N709 1.279 . S
C713 C711 1.358 . S
C713 H771 0.930 . S
C714 C717 1.348 . S
C714 C718 1.356 . S
C714 O765 1.325 . S
C715 N716 1.279 . S
C715 C718 1.358 . S
C715 H772 0.930 . S
N716 C715 1.279 . S
N716 C719 1.314 . S
C717 C714 1.348 . S
C717 C719 1.353 . S
C717 H773 0.929 . S
C718 C714 1.356 . S
C718 C715 1.358 . S
C718 H774 0.930 . S
C719 N716 1.314 . S
C719 C717 1.353 . S
C719 H775 0.930 . S
C720 N721 1.314 . S
C720 C725 1.353 . S
C720 H726 0.930 . S
N721 Li704 1.990 . S
N721 C720 1.314 . S
N721 C723 1.279 . S
C722 C723 1.358 . S
C722 C724 1.356 . S
C722 H776 0.930 . S
C723 N721 1.279 . S
C723 C722 1.358 . S
C723 H727 0.930 . S
C724 C722 1.356 . S
C724 C725 1.348 . S
C725 C720 1.353 . S
C725 C724 1.348 . S
C725 H777 0.929 . S
H726 C720 0.930 . S
H727 C723 0.930 . S
C728 N729 1.314 . S
C728 C730 1.353 . S
C728 H734 0.930 . S
N729 Li705 1.990 . S
N729 C728 1.314 . S
N729 C732 1.279 . S
C730 C728 1.353 . S
C730 C733 1.348 . S
C730 H778 0.929 . S
C731 C732 1.358 . S
C731 C733 1.356 . S
C731 H779 0.930 . S
C732 N729 1.279 . S
C732 C731 1.358 . S
C732 H735 0.930 . S
C733 C730 1.348 . S
C733 C731 1.356 . S
H734 C728 0.930 . S
H735 C732 0.930 . S
C736 C738 1.348 . S
C736 C739 1.356 . S
C736 O766 1.325 . S
N737 C740 1.314 . S
N737 C741 1.279 . S
C738 C736 1.348 . S
C738 C740 1.353 . S
C738 H780 0.929 . S
C739 C736 1.356 . S
C739 C741 1.358 . S
C739 H781 0.930 . S
C740 N737 1.314 . S
C740 C738 1.353 . S
C740 H782 0.930 . S
C741 N737 1.279 . S
C741 C739 1.358 . S
C741 H783 0.930 . S
C742 C743 1.348 . S
C742 C744 1.356 . S
C742 O767 1.325 . S
C743 C742 1.348 . S
C743 C745 1.353 . S
C743 H784 0.929 . S
C744 C742 1.356 . S
C744 C746 1.358 . S
C744 H785 0.930 . S
C745 C743 1.353 . S
C745 N747 1.314 . S
C745 H786 0.930 . S
C746 C744 1.358 . S
C746 N747 1.279 . S
C746 H787 0.930 . S
N747 C745 1.314 . S
N747 C746 1.279 . S
C748 C750 1.353 . S
C748 N751 1.314 . S
C748 H754 0.930 . S
C749 N751 1.279 . S
C749 C752 1.358 . S
C749 H755 0.930 . S
C750 C748 1.353 . S
C750 C753 1.348 . S
C750 H788 0.929 . S
N751 Li706 1.990 . S
N751 C748 1.314 . S
N751 C749 1.279 . S
C752 C749 1.358 . S
C752 C753 1.356 . S
C752 H789 0.930 . S
C753 C750 1.348 . S
C753 C752 1.356 . S
H754 C748 0.930 . S
H755 C749 0.930 . S
C756 N757 1.314 . S
C756 C758 1.353 . S
C756 H762 0.930 . S
N757 Li707 1.990 . S
N757 C756 1.314 . S
N757 C760 1.279 . S
C758 C756 1.353 . S
C758 C761 1.348 . S
C758 H790 0.929 . S
C759 C760 1.358 . S
C759 C761 1.356 . S
C759 H791 0.930 . S
C760 N757 1.279 . S
C760 C759 1.358 . S
C760 H763 0.930 . S
C761 C758 1.348 . S
C761 C759 1.356 . S
H762 C756 0.930 . S
H763 C760 0.930 . S
O764 Li704 1.956 . S
O764 Li705 1.970 . S
O764 Li706 1.961 . S
O764 C708 1.325 . S
O765 Li704 1.970 . S
O765 Li705 1.956 . S
O765 Li707 1.961 . S
O765 C714 1.325 . S
O766 Li704 1.961 . S
O766 Li706 1.956 . S
O766 Li707 1.970 . S
O766 C736 1.325 . S
O767 Li705 1.961 . S
O767 Li706 1.970 . S
O767 Li707 1.956 . S
O767 C742 1.325 . S
H768 C710 0.929 . S
H769 C711 0.930 . S
H770 C712 0.930 . S
H771 C713 0.930 . S
H772 C715 0.930 . S
H773 C717 0.929 . S
H774 C718 0.930 . S
H775 C719 0.930 . S
H776 C722 0.930 . S
H777 C725 0.929 . S
H778 C730 0.929 . S
H779 C731 0.930 . S
H780 C738 0.929 . S
H781 C739 0.930 . S
H782 C740 0.930 . S
H783 C741 0.930 . S
H784 C743 0.929 . S
H785 C744 0.930 . S
H786 C745 0.930 . S
H787 C746 0.930 . S
H788 C750 0.929 . S
H789 C752 0.930 . S
H790 C758 0.929 . S
H791 C759 0.930 . S
Li792 N809 1.990 . S
Li792 O852 1.956 . S
Li792 O853 1.970 . S
Li792 O854 1.961 . S
Li793 N817 1.990 . S
Li793 O852 1.970 . S
Li793 O853 1.956 . S
Li793 O855 1.961 . S
Li794 N839 1.990 . S
Li794 O852 1.961 . S
Li794 O854 1.956 . S
Li794 O855 1.970 . S
Li795 N845 1.990 . S
Li795 O853 1.961 . S
Li795 O854 1.970 . S
Li795 O855 1.956 . S
C796 C798 1.348 . S
C796 C799 1.356 . S
C796 O852 1.325 . S
N797 C800 1.314 . S
N797 C801 1.279 . S
C798 C796 1.348 . S
C798 C800 1.353 . S
C798 H856 0.929 . S
C799 C796 1.356 . S
C799 C801 1.358 . S
C799 H857 0.930 . S
C800 N797 1.314 . S
C800 C798 1.353 . S
C800 H858 0.930 . S
C801 N797 1.279 . S
C801 C799 1.358 . S
C801 H859 0.930 . S
C802 C805 1.348 . S
C802 C806 1.356 . S
C802 O853 1.325 . S
C803 N804 1.279 . S
C803 C806 1.358 . S
C803 H860 0.930 . S
N804 C803 1.279 . S
N804 C807 1.314 . S
C805 C802 1.348 . S
C805 C807 1.353 . S
C805 H861 0.929 . S
C806 C802 1.356 . S
C806 C803 1.358 . S
C806 H862 0.930 . S
C807 N804 1.314 . S
C807 C805 1.353 . S
C807 H863 0.930 . S
C808 N809 1.314 . S
C808 C813 1.353 . S
C808 H814 0.930 . S
N809 Li792 1.990 . S
N809 C808 1.314 . S
N809 C811 1.279 . S
C810 C811 1.358 . S
C810 C812 1.356 . S
C810 H864 0.930 . S
C811 N809 1.279 . S
C811 C810 1.358 . S
C811 H815 0.930 . S
C812 C810 1.356 . S
C812 C813 1.348 . S
C813 C808 1.353 . S
C813 C812 1.348 . S
C813 H865 0.929 . S
H814 C808 0.930 . S
H815 C811 0.930 . S
C816 N817 1.314 . S
C816 C818 1.353 . S
C816 H822 0.930 . S
N817 Li793 1.990 . S
N817 C816 1.314 . S
N817 C820 1.279 . S
C818 C816 1.353 . S
C818 C821 1.348 . S
C818 H866 0.929 . S
C819 C820 1.358 . S
C819 C821 1.356 . S
C819 H867 0.930 . S
C820 N817 1.279 . S
C820 C819 1.358 . S
C820 H823 0.930 . S
C821 C818 1.348 . S
C821 C819 1.356 . S
H822 C816 0.930 . S
H823 C820 0.930 . S
C824 C826 1.348 . S
C824 C827 1.356 . S
C824 O854 1.325 . S
N825 C828 1.314 . S
N825 C829 1.279 . S
C826 C824 1.348 . S
C826 C828 1.353 . S
C826 H868 0.929 . S
C827 C824 1.356 . S
C827 C829 1.358 . S
C827 H869 0.930 . S
C828 N825 1.314 . S
C828 C826 1.353 . S
C828 H870 0.930 . S
C829 N825 1.279 . S
C829 C827 1.358 . S
C829 H871 0.930 . S
C830 C831 1.348 . S
C830 C832 1.356 . S
C830 O855 1.325 . S
C831 C830 1.348 . S
C831 C833 1.353 . S
C831 H872 0.929 . S
C832 C830 1.356 . S
C832 C834 1.358 . S
C832 H873 0.930 . S
C833 C831 1.353 . S
C833 N835 1.314 . S
C833 H874 0.930 . S
C834 C832 1.358 . S
C834 N835 1.279 . S
C834 H875 0.930 . S
N835 C833 1.314 . S
N835 C834 1.279 . S
C836 C838 1.353 . S
C836 N839 1.314 . S
C836 H842 0.930 . S
C837 N839 1.279 . S
C837 C840 1.358 . S
C837 H843 0.930 . S
C838 C836 1.353 . S
C838 C841 1.348 . S
C838 H876 0.929 . S
N839 Li794 1.990 . S
N839 C836 1.314 . S
N839 C837 1.279 . S
C840 C837 1.358 . S
C840 C841 1.356 . S
C840 H877 0.930 . S
C841 C838 1.348 . S
C841 C840 1.356 . S
H842 C836 0.930 . S
H843 C837 0.930 . S
C844 N845 1.314 . S
C844 C846 1.353 . S
C844 H850 0.930 . S
N845 Li795 1.990 . S
N845 C844 1.314 . S
N845 C848 1.279 . S
C846 C844 1.353 . S
C846 C849 1.348 . S
C846 H878 0.929 . S
C847 C848 1.358 . S
C847 C849 1.356 . S
C847 H879 0.930 . S
C848 N845 1.279 . S
C848 C847 1.358 . S
C848 H851 0.930 . S
C849 C846 1.348 . S
C849 C847 1.356 . S
H850 C844 0.930 . S
H851 C848 0.930 . S
O852 Li792 1.956 . S
O852 Li793 1.970 . S
O852 Li794 1.961 . S
O852 C796 1.325 . S
O853 Li792 1.970 . S
O853 Li793 1.956 . S
O853 Li795 1.961 . S
O853 C802 1.325 . S
O854 Li792 1.961 . S
O854 Li794 1.956 . S
O854 Li795 1.970 . S
O854 C824 1.325 . S
O855 Li793 1.961 . S
O855 Li794 1.970 . S
O855 Li795 1.956 . S
O855 C830 1.325 . S
H856 C798 0.929 . S
H857 C799 0.930 . S
H858 C800 0.930 . S
H859 C801 0.930 . S
H860 C803 0.930 . S
H861 C805 0.929 . S
H862 C806 0.930 . S
H863 C807 0.930 . S
H864 C810 0.930 . S
H865 C813 0.929 . S
H866 C818 0.929 . S
H867 C819 0.930 . S
H868 C826 0.929 . S
H869 C827 0.930 . S
H870 C828 0.930 . S
H871 C829 0.930 . S
H872 C831 0.929 . S
H873 C832 0.930 . S
H874 C833 0.930 . S
H875 C834 0.930 . S
H876 C838 0.929 . S
H877 C840 0.930 . S
H878 C846 0.929 . S
H879 C847 0.930 . S
Li880 N897 1.990 . S
Li880 O940 1.956 . S
Li880 O941 1.970 . S
Li880 O942 1.961 . S
Li881 N905 1.990 . S
Li881 O940 1.970 . S
Li881 O941 1.956 . S
Li881 O943 1.961 . S
Li882 N927 1.990 . S
Li882 O940 1.961 . S
Li882 O942 1.956 . S
Li882 O943 1.970 . S
Li883 N933 1.990 . S
Li883 O941 1.961 . S
Li883 O942 1.970 . S
Li883 O943 1.956 . S
C884 C886 1.348 . S
C884 C887 1.356 . S
C884 O940 1.325 . S
N885 C888 1.314 . S
N885 C889 1.279 . S
C886 C884 1.348 . S
C886 C888 1.353 . S
C886 H944 0.929 . S
C887 C884 1.356 . S
C887 C889 1.358 . S
C887 H945 0.930 . S
C888 N885 1.314 . S
C888 C886 1.353 . S
C888 H946 0.930 . S
C889 N885 1.279 . S
C889 C887 1.358 . S
C889 H947 0.930 . S
C890 C893 1.348 . S
C890 C894 1.356 . S
C890 O941 1.325 . S
C891 N892 1.279 . S
C891 C894 1.358 . S
C891 H948 0.930 . S
N892 C891 1.279 . S
N892 C895 1.314 . S
C893 C890 1.348 . S
C893 C895 1.353 . S
C893 H949 0.929 . S
C894 C890 1.356 . S
C894 C891 1.358 . S
C894 H950 0.930 . S
C895 N892 1.314 . S
C895 C893 1.353 . S
C895 H951 0.930 . S
C896 N897 1.314 . S
C896 C901 1.353 . S
C896 H902 0.930 . S
N897 Li880 1.990 . S
N897 C896 1.314 . S
N897 C899 1.279 . S
C898 C899 1.358 . S
C898 C900 1.356 . S
C898 H952 0.930 . S
C899 N897 1.279 . S
C899 C898 1.358 . S
C899 H903 0.930 . S
C900 C898 1.356 . S
C900 C901 1.348 . S
C901 C896 1.353 . S
C901 C900 1.348 . S
C901 H953 0.929 . S
H902 C896 0.930 . S
H903 C899 0.930 . S
C904 N905 1.314 . S
C904 C906 1.353 . S
C904 H910 0.930 . S
N905 Li881 1.990 . S
N905 C904 1.314 . S
N905 C908 1.279 . S
C906 C904 1.353 . S
C906 C909 1.348 . S
C906 H954 0.929 . S
C907 C908 1.358 . S
C907 C909 1.356 . S
C907 H955 0.930 . S
C908 N905 1.279 . S
C908 C907 1.358 . S
C908 H911 0.930 . S
C909 C906 1.348 . S
C909 C907 1.356 . S
H910 C904 0.930 . S
H911 C908 0.930 . S
C912 C914 1.348 . S
C912 C915 1.356 . S
C912 O942 1.325 . S
N913 C916 1.314 . S
N913 C917 1.279 . S
C914 C912 1.348 . S
C914 C916 1.353 . S
C914 H956 0.929 . S
C915 C912 1.356 . S
C915 C917 1.358 . S
C915 H957 0.930 . S
C916 N913 1.314 . S
C916 C914 1.353 . S
C916 H958 0.930 . S
C917 N913 1.279 . S
C917 C915 1.358 . S
C917 H959 0.930 . S
C918 C919 1.348 . S
C918 C920 1.356 . S
C918 O943 1.325 . S
C919 C918 1.348 . S
C919 C921 1.353 . S
C919 H960 0.929 . S
C920 C918 1.356 . S
C920 C922 1.358 . S
C920 H961 0.930 . S
C921 C919 1.353 . S
C921 N923 1.314 . S
C921 H962 0.930 . S
C922 C920 1.358 . S
C922 N923 1.279 . S
C922 H963 0.930 . S
N923 C921 1.314 . S
N923 C922 1.279 . S
C924 C926 1.353 . S
C924 N927 1.314 . S
C924 H930 0.930 . S
C925 N927 1.279 . S
C925 C928 1.358 . S
C925 H931 0.930 . S
C926 C924 1.353 . S
C926 C929 1.348 . S
C926 H964 0.929 . S
N927 Li882 1.990 . S
N927 C924 1.314 . S
N927 C925 1.279 . S
C928 C925 1.358 . S
C928 C929 1.356 . S
C928 H965 0.930 . S
C929 C926 1.348 . S
C929 C928 1.356 . S
H930 C924 0.930 . S
H931 C925 0.930 . S
C932 N933 1.314 . S
C932 C934 1.353 . S
C932 H938 0.930 . S
N933 Li883 1.990 . S
N933 C932 1.314 . S
N933 C936 1.279 . S
C934 C932 1.353 . S
C934 C937 1.348 . S
C934 H966 0.929 . S
C935 C936 1.358 . S
C935 C937 1.356 . S
C935 H967 0.930 . S
C936 N933 1.279 . S
C936 C935 1.358 . S
C936 H939 0.930 . S
C937 C934 1.348 . S
C937 C935 1.356 . S
H938 C932 0.930 . S
H939 C936 0.930 . S
O940 Li880 1.956 . S
O940 Li881 1.970 . S
O940 Li882 1.961 . S
O940 C884 1.325 . S
O941 Li880 1.970 . S
O941 Li881 1.956 . S
O941 Li883 1.961 . S
O941 C890 1.325 . S
O942 Li880 1.961 . S
O942 Li882 1.956 . S
O942 Li883 1.970 . S
O942 C912 1.325 . S
O943 Li881 1.961 . S
O943 Li882 1.970 . S
O943 Li883 1.956 . S
O943 C918 1.325 . S
H944 C886 0.929 . S
H945 C887 0.930 . S
H946 C888 0.930 . S
H947 C889 0.930 . S
H948 C891 0.930 . S
H949 C893 0.929 . S
H950 C894 0.930 . S
H951 C895 0.930 . S
H952 C898 0.930 . S
H953 C901 0.929 . S
H954 C906 0.929 . S
H955 C907 0.930 . S
H956 C914 0.929 . S
H957 C915 0.930 . S
H958 C916 0.930 . S
H959 C917 0.930 . S
H960 C919 0.929 . S
H961 C920 0.930 . S
H962 C921 0.930 . S
H963 C922 0.930 . S
H964 C926 0.929 . S
H965 C928 0.930 . S
H966 C934 0.929 . S
H967 C935 0.930 . S
Li968 N985 1.990 . S
Li968 O1028 1.956 . S
Li968 O1029 1.970 . S
Li968 O1030 1.961 . S
Li969 N993 1.990 . S
Li969 O1028 1.970 . S
Li969 O1029 1.956 . S
Li969 O1031 1.961 . S
Li970 N1015 1.990 . S
Li970 O1028 1.961 . S
Li970 O1030 1.956 . S
Li970 O1031 1.970 . S
Li971 N1021 1.990 . S
Li971 O1029 1.961 . S
Li971 O1030 1.970 . S
Li971 O1031 1.956 . S
C972 C974 1.348 . S
C972 C975 1.356 . S
C972 O1028 1.325 . S
N973 C976 1.314 . S
N973 C977 1.279 . S
C974 C972 1.348 . S
C974 C976 1.353 . S
C974 H1032 0.929 . S
C975 C972 1.356 . S
C975 C977 1.358 . S
C975 H1033 0.930 . S
C976 N973 1.314 . S
C976 C974 1.353 . S
C976 H1034 0.930 . S
C977 N973 1.279 . S
C977 C975 1.358 . S
C977 H1035 0.930 . S
C978 C981 1.348 . S
C978 C982 1.356 . S
C978 O1029 1.325 . S
C979 N980 1.279 . S
C979 C982 1.358 . S
C979 H1036 0.930 . S
N980 C979 1.279 . S
N980 C983 1.314 . S
C981 C978 1.348 . S
C981 C983 1.353 . S
C981 H1037 0.929 . S
C982 C978 1.356 . S
C982 C979 1.358 . S
C982 H1038 0.930 . S
C983 N980 1.314 . S
C983 C981 1.353 . S
C983 H1039 0.930 . S
C984 N985 1.314 . S
C984 C989 1.353 . S
C984 H990 0.930 . S
N985 Li968 1.990 . S
N985 C984 1.314 . S
N985 C987 1.279 . S
C986 C987 1.358 . S
C986 C988 1.356 . S
C986 H1040 0.930 . S
C987 N985 1.279 . S
C987 C986 1.358 . S
C987 H991 0.930 . S
C988 C986 1.356 . S
C988 C989 1.348 . S
C989 C984 1.353 . S
C989 C988 1.348 . S
C989 H1041 0.929 . S
H990 C984 0.930 . S
H991 C987 0.930 . S
C992 N993 1.314 . S
C992 C994 1.353 . S
C992 H998 0.930 . S
N993 Li969 1.990 . S
N993 C992 1.314 . S
N993 C996 1.279 . S
C994 C992 1.353 . S
C994 C997 1.348 . S
C994 H1042 0.929 . S
C995 C996 1.358 . S
C995 C997 1.356 . S
C995 H1043 0.930 . S
C996 N993 1.279 . S
C996 C995 1.358 . S
C996 H999 0.930 . S
C997 C994 1.348 . S
C997 C995 1.356 . S
H998 C992 0.930 . S
H999 C996 0.930 . S
C1000 C1002 1.348 . S
C1000 C1003 1.356 . S
C1000 O1030 1.325 . S
N1001 C1004 1.314 . S
N1001 C1005 1.279 . S
C1002 C1000 1.348 . S
C1002 C1004 1.353 . S
C1002 H1044 0.929 . S
C1003 C1000 1.356 . S
C1003 C1005 1.358 . S
C1003 H1045 0.930 . S
C1004 N1001 1.314 . S
C1004 C1002 1.353 . S
C1004 H1046 0.930 . S
C1005 N1001 1.279 . S
C1005 C1003 1.358 . S
C1005 H1047 0.930 . S
C1006 C1007 1.348 . S
C1006 C1008 1.356 . S
C1006 O1031 1.325 . S
C1007 C1006 1.348 . S
C1007 C1009 1.353 . S
C1007 H1048 0.929 . S
C1008 C1006 1.356 . S
C1008 C1010 1.358 . S
C1008 H1049 0.930 . S
C1009 C1007 1.353 . S
C1009 N1011 1.314 . S
C1009 H1050 0.930 . S
C1010 C1008 1.358 . S
C1010 N1011 1.279 . S
C1010 H1051 0.930 . S
N1011 C1009 1.314 . S
N1011 C1010 1.279 . S
C1012 C1014 1.353 . S
C1012 N1015 1.314 . S
C1012 H1018 0.930 . S
C1013 N1015 1.279 . S
C1013 C1016 1.358 . S
C1013 H1019 0.930 . S
C1014 C1012 1.353 . S
C1014 C1017 1.348 . S
C1014 H1052 0.929 . S
N1015 Li970 1.990 . S
N1015 C1012 1.314 . S
N1015 C1013 1.279 . S
C1016 C1013 1.358 . S
C1016 C1017 1.356 . S
C1016 H1053 0.930 . S
C1017 C1014 1.348 . S
C1017 C1016 1.356 . S
H1018 C1012 0.930 . S
H1019 C1013 0.930 . S
C1020 N1021 1.314 . S
C1020 C1022 1.353 . S
C1020 H1026 0.930 . S
N1021 Li971 1.990 . S
N1021 C1020 1.314 . S
N1021 C1024 1.279 . S
C1022 C1020 1.353 . S
C1022 C1025 1.348 . S
C1022 H1054 0.929 . S
C1023 C1024 1.358 . S
C1023 C1025 1.356 . S
C1023 H1055 0.930 . S
C1024 N1021 1.279 . S
C1024 C1023 1.358 . S
C1024 H1027 0.930 . S
C1025 C1022 1.348 . S
C1025 C1023 1.356 . S
H1026 C1020 0.930 . S
H1027 C1024 0.930 . S
O1028 Li968 1.956 . S
O1028 Li969 1.970 . S
O1028 Li970 1.961 . S
O1028 C972 1.325 . S
O1029 Li968 1.970 . S
O1029 Li969 1.956 . S
O1029 Li971 1.961 . S
O1029 C978 1.325 . S
O1030 Li968 1.961 . S
O1030 Li970 1.956 . S
O1030 Li971 1.970 . S
O1030 C1000 1.325 . S
O1031 Li969 1.961 . S
O1031 Li970 1.970 . S
O1031 Li971 1.956 . S
O1031 C1006 1.325 . S
H1032 C974 0.929 . S
H1033 C975 0.930 . S
H1034 C976 0.930 . S
H1035 C977 0.930 . S
H1036 C979 0.930 . S
H1037 C981 0.929 . S
H1038 C982 0.930 . S
H1039 C983 0.930 . S
H1040 C986 0.930 . S
H1041 C989 0.929 . S
H1042 C994 0.929 . S
H1043 C995 0.930 . S
H1044 C1002 0.929 . S
H1045 C1003 0.930 . S
H1046 C1004 0.930 . S
H1047 C1005 0.930 . S
H1048 C1007 0.929 . S
H1049 C1008 0.930 . S
H1050 C1009 0.930 . S
H1051 C1010 0.930 . S
H1052 C1014 0.929 . S
H1053 C1016 0.930 . S
H1054 C1022 0.929 . S
H1055 C1023 0.930 . S
Li1056 N1073 1.990 . S
Li1056 O1116 1.956 . S
Li1056 O1117 1.970 . S
Li1056 O1118 1.961 . S
Li1057 N1081 1.990 . S
Li1057 O1116 1.970 . S
Li1057 O1117 1.956 . S
Li1057 O1119 1.961 . S
Li1058 N1103 1.990 . S
Li1058 O1116 1.961 . S
Li1058 O1118 1.956 . S
Li1058 O1119 1.970 . S
Li1059 N1109 1.990 . S
Li1059 O1117 1.961 . S
Li1059 O1118 1.970 . S
Li1059 O1119 1.956 . S
C1060 C1062 1.348 . S
C1060 C1063 1.356 . S
C1060 O1116 1.325 . S
N1061 C1064 1.314 . S
N1061 C1065 1.279 . S
C1062 C1060 1.348 . S
C1062 C1064 1.353 . S
C1062 H1120 0.929 . S
C1063 C1060 1.356 . S
C1063 C1065 1.358 . S
C1063 H1121 0.930 . S
C1064 N1061 1.314 . S
C1064 C1062 1.353 . S
C1064 H1122 0.930 . S
C1065 N1061 1.279 . S
C1065 C1063 1.358 . S
C1065 H1123 0.930 . S
C1066 C1069 1.348 . S
C1066 C1070 1.356 . S
C1066 O1117 1.325 . S
C1067 N1068 1.279 . S
C1067 C1070 1.358 . S
C1067 H1124 0.930 . S
N1068 C1067 1.279 . S
N1068 C1071 1.314 . S
C1069 C1066 1.348 . S
C1069 C1071 1.353 . S
C1069 H1125 0.929 . S
C1070 C1066 1.356 . S
C1070 C1067 1.358 . S
C1070 H1126 0.930 . S
C1071 N1068 1.314 . S
C1071 C1069 1.353 . S
C1071 H1127 0.930 . S
C1072 N1073 1.314 . S
C1072 C1077 1.353 . S
C1072 H1078 0.930 . S
N1073 Li1056 1.990 . S
N1073 C1072 1.314 . S
N1073 C1075 1.279 . S
C1074 C1075 1.358 . S
C1074 C1076 1.356 . S
C1074 H1128 0.930 . S
C1075 N1073 1.279 . S
C1075 C1074 1.358 . S
C1075 H1079 0.930 . S
C1076 C1074 1.356 . S
C1076 C1077 1.348 . S
C1077 C1072 1.353 . S
C1077 C1076 1.348 . S
C1077 H1129 0.929 . S
H1078 C1072 0.930 . S
H1079 C1075 0.930 . S
C1080 N1081 1.314 . S
C1080 C1082 1.353 . S
C1080 H1086 0.930 . S
N1081 Li1057 1.990 . S
N1081 C1080 1.314 . S
N1081 C1084 1.279 . S
C1082 C1080 1.353 . S
C1082 C1085 1.348 . S
C1082 H1130 0.929 . S
C1083 C1084 1.358 . S
C1083 C1085 1.356 . S
C1083 H1131 0.930 . S
C1084 N1081 1.279 . S
C1084 C1083 1.358 . S
C1084 H1087 0.930 . S
C1085 C1082 1.348 . S
C1085 C1083 1.356 . S
H1086 C1080 0.930 . S
H1087 C1084 0.930 . S
C1088 C1090 1.348 . S
C1088 C1091 1.356 . S
C1088 O1118 1.325 . S
N1089 C1092 1.314 . S
N1089 C1093 1.279 . S
C1090 C1088 1.348 . S
C1090 C1092 1.353 . S
C1090 H1132 0.929 . S
C1091 C1088 1.356 . S
C1091 C1093 1.358 . S
C1091 H1133 0.930 . S
C1092 N1089 1.314 . S
C1092 C1090 1.353 . S
C1092 H1134 0.930 . S
C1093 N1089 1.279 . S
C1093 C1091 1.358 . S
C1093 H1135 0.930 . S
C1094 C1095 1.348 . S
C1094 C1096 1.356 . S
C1094 O1119 1.325 . S
C1095 C1094 1.348 . S
C1095 C1097 1.353 . S
C1095 H1136 0.929 . S
C1096 C1094 1.356 . S
C1096 C1098 1.358 . S
C1096 H1137 0.930 . S
C1097 C1095 1.353 . S
C1097 N1099 1.314 . S
C1097 H1138 0.930 . S
C1098 C1096 1.358 . S
C1098 N1099 1.279 . S
C1098 H1139 0.930 . S
N1099 C1097 1.314 . S
N1099 C1098 1.279 . S
C1100 C1102 1.353 . S
C1100 N1103 1.314 . S
C1100 H1106 0.930 . S
C1101 N1103 1.279 . S
C1101 C1104 1.358 . S
C1101 H1107 0.930 . S
C1102 C1100 1.353 . S
C1102 C1105 1.348 . S
C1102 H1140 0.929 . S
N1103 Li1058 1.990 . S
N1103 C1100 1.314 . S
N1103 C1101 1.279 . S
C1104 C1101 1.358 . S
C1104 C1105 1.356 . S
C1104 H1141 0.930 . S
C1105 C1102 1.348 . S
C1105 C1104 1.356 . S
H1106 C1100 0.930 . S
H1107 C1101 0.930 . S
C1108 N1109 1.314 . S
C1108 C1110 1.353 . S
C1108 H1114 0.930 . S
N1109 Li1059 1.990 . S
N1109 C1108 1.314 . S
N1109 C1112 1.279 . S
C1110 C1108 1.353 . S
C1110 C1113 1.348 . S
C1110 H1142 0.929 . S
C1111 C1112 1.358 . S
C1111 C1113 1.356 . S
C1111 H1143 0.930 . S
C1112 N1109 1.279 . S
C1112 C1111 1.358 . S
C1112 H1115 0.930 . S
C1113 C1110 1.348 . S
C1113 C1111 1.356 . S
H1114 C1108 0.930 . S
H1115 C1112 0.930 . S
O1116 Li1056 1.956 . S
O1116 Li1057 1.970 . S
O1116 Li1058 1.961 . S
O1116 C1060 1.325 . S
O1117 Li1056 1.970 . S
O1117 Li1057 1.956 . S
O1117 Li1059 1.961 . S
O1117 C1066 1.325 . S
O1118 Li1056 1.961 . S
O1118 Li1058 1.956 . S
O1118 Li1059 1.970 . S
O1118 C1088 1.325 . S
O1119 Li1057 1.961 . S
O1119 Li1058 1.970 . S
O1119 Li1059 1.956 . S
O1119 C1094 1.325 . S
H1120 C1062 0.929 . S
H1121 C1063 0.930 . S
H1122 C1064 0.930 . S
H1123 C1065 0.930 . S
H1124 C1067 0.930 . S
H1125 C1069 0.929 . S
H1126 C1070 0.930 . S
H1127 C1071 0.930 . S
H1128 C1074 0.930 . S
H1129 C1077 0.929 . S
H1130 C1082 0.929 . S
H1131 C1083 0.930 . S
H1132 C1090 0.929 . S
H1133 C1091 0.930 . S
H1134 C1092 0.930 . S
H1135 C1093 0.930 . S
H1136 C1095 0.929 . S
H1137 C1096 0.930 . S
H1138 C1097 0.930 . S
H1139 C1098 0.930 . S
H1140 C1102 0.929 . S
H1141 C1104 0.930 . S
H1142 C1110 0.929 . S
H1143 C1111 0.930 . S
Li1144 N1161 1.990 . S
Li1144 O1204 1.956 . S
Li1144 O1205 1.970 . S
Li1144 O1206 1.961 . S
Li1145 N1169 1.990 . S
Li1145 O1204 1.970 . S
Li1145 O1205 1.956 . S
Li1145 O1207 1.961 . S
Li1146 N1191 1.990 . S
Li1146 O1204 1.961 . S
Li1146 O1206 1.956 . S
Li1146 O1207 1.970 . S
Li1147 N1197 1.990 . S
Li1147 O1205 1.961 . S
Li1147 O1206 1.970 . S
Li1147 O1207 1.956 . S
C1148 C1150 1.348 . S
C1148 C1151 1.356 . S
C1148 O1204 1.325 . S
N1149 C1152 1.314 . S
N1149 C1153 1.279 . S
C1150 C1148 1.348 . S
C1150 C1152 1.353 . S
C1150 H1208 0.929 . S
C1151 C1148 1.356 . S
C1151 C1153 1.358 . S
C1151 H1209 0.930 . S
C1152 N1149 1.314 . S
C1152 C1150 1.353 . S
C1152 H1210 0.930 . S
C1153 N1149 1.279 . S
C1153 C1151 1.358 . S
C1153 H1211 0.930 . S
C1154 C1157 1.348 . S
C1154 C1158 1.356 . S
C1154 O1205 1.325 . S
C1155 N1156 1.279 . S
C1155 C1158 1.358 . S
C1155 H1212 0.930 . S
N1156 C1155 1.279 . S
N1156 C1159 1.314 . S
C1157 C1154 1.348 . S
C1157 C1159 1.353 . S
C1157 H1213 0.929 . S
C1158 C1154 1.356 . S
C1158 C1155 1.358 . S
C1158 H1214 0.930 . S
C1159 N1156 1.314 . S
C1159 C1157 1.353 . S
C1159 H1215 0.930 . S
C1160 N1161 1.314 . S
C1160 C1165 1.353 . S
C1160 H1166 0.930 . S
N1161 Li1144 1.990 . S
N1161 C1160 1.314 . S
N1161 C1163 1.279 . S
C1162 C1163 1.358 . S
C1162 C1164 1.356 . S
C1162 H1216 0.930 . S
C1163 N1161 1.279 . S
C1163 C1162 1.358 . S
C1163 H1167 0.930 . S
C1164 C1162 1.356 . S
C1164 C1165 1.348 . S
C1165 C1160 1.353 . S
C1165 C1164 1.348 . S
C1165 H1217 0.929 . S
H1166 C1160 0.930 . S
H1167 C1163 0.930 . S
C1168 N1169 1.314 . S
C1168 C1170 1.353 . S
C1168 H1174 0.930 . S
N1169 Li1145 1.990 . S
N1169 C1168 1.314 . S
N1169 C1172 1.279 . S
C1170 C1168 1.353 . S
C1170 C1173 1.348 . S
C1170 H1218 0.929 . S
C1171 C1172 1.358 . S
C1171 C1173 1.356 . S
C1171 H1219 0.930 . S
C1172 N1169 1.279 . S
C1172 C1171 1.358 . S
C1172 H1175 0.930 . S
C1173 C1170 1.348 . S
C1173 C1171 1.356 . S
H1174 C1168 0.930 . S
H1175 C1172 0.930 . S
C1176 C1178 1.348 . S
C1176 C1179 1.356 . S
C1176 O1206 1.325 . S
N1177 C1180 1.314 . S
N1177 C1181 1.279 . S
C1178 C1176 1.348 . S
C1178 C1180 1.353 . S
C1178 H1220 0.929 . S
C1179 C1176 1.356 . S
C1179 C1181 1.358 . S
C1179 H1221 0.930 . S
C1180 N1177 1.314 . S
C1180 C1178 1.353 . S
C1180 H1222 0.930 . S
C1181 N1177 1.279 . S
C1181 C1179 1.358 . S
C1181 H1223 0.930 . S
C1182 C1183 1.348 . S
C1182 C1184 1.356 . S
C1182 O1207 1.325 . S
C1183 C1182 1.348 . S
C1183 C1185 1.353 . S
C1183 H1224 0.929 . S
C1184 C1182 1.356 . S
C1184 C1186 1.358 . S
C1184 H1225 0.930 . S
C1185 C1183 1.353 . S
C1185 N1187 1.314 . S
C1185 H1226 0.930 . S
C1186 C1184 1.358 . S
C1186 N1187 1.279 . S
C1186 H1227 0.930 . S
N1187 C1185 1.314 . S
N1187 C1186 1.279 . S
C1188 C1190 1.353 . S
C1188 N1191 1.314 . S
C1188 H1194 0.930 . S
C1189 N1191 1.279 . S
C1189 C1192 1.358 . S
C1189 H1195 0.930 . S
C1190 C1188 1.353 . S
C1190 C1193 1.348 . S
C1190 H1228 0.929 . S
N1191 Li1146 1.990 . S
N1191 C1188 1.314 . S
N1191 C1189 1.279 . S
C1192 C1189 1.358 . S
C1192 C1193 1.356 . S
C1192 H1229 0.930 . S
C1193 C1190 1.348 . S
C1193 C1192 1.356 . S
H1194 C1188 0.930 . S
H1195 C1189 0.930 . S
C1196 N1197 1.314 . S
C1196 C1198 1.353 . S
C1196 H1202 0.930 . S
N1197 Li1147 1.990 . S
N1197 C1196 1.314 . S
N1197 C1200 1.279 . S
C1198 C1196 1.353 . S
C1198 C1201 1.348 . S
C1198 H1230 0.929 . S
C1199 C1200 1.358 . S
C1199 C1201 1.356 . S
C1199 H1231 0.930 . S
C1200 N1197 1.279 . S
C1200 C1199 1.358 . S
C1200 H1203 0.930 . S
C1201 C1198 1.348 . S
C1201 C1199 1.356 . S
H1202 C1196 0.930 . S
H1203 C1200 0.930 . S
O1204 Li1144 1.956 . S
O1204 Li1145 1.970 . S
O1204 Li1146 1.961 . S
O1204 C1148 1.325 . S
O1205 Li1144 1.970 . S
O1205 Li1145 1.956 . S
O1205 Li1147 1.961 . S
O1205 C1154 1.325 . S
O1206 Li1144 1.961 . S
O1206 Li1146 1.956 . S
O1206 Li1147 1.970 . S
O1206 C1176 1.325 . S
O1207 Li1145 1.961 . S
O1207 Li1146 1.970 . S
O1207 Li1147 1.956 . S
O1207 C1182 1.325 . S
H1208 C1150 0.929 . S
H1209 C1151 0.930 . S
H1210 C1152 0.930 . S
H1211 C1153 0.930 . S
H1212 C1155 0.930 . S
H1213 C1157 0.929 . S
H1214 C1158 0.930 . S
H1215 C1159 0.930 . S
H1216 C1162 0.930 . S
H1217 C1165 0.929 . S
H1218 C1170 0.929 . S
H1219 C1171 0.930 . S
H1220 C1178 0.929 . S
H1221 C1179 0.930 . S
H1222 C1180 0.930 . S
H1223 C1181 0.930 . S
H1224 C1183 0.929 . S
H1225 C1184 0.930 . S
H1226 C1185 0.930 . S
H1227 C1186 0.930 . S
H1228 C1190 0.929 . S
H1229 C1192 0.930 . S
H1230 C1198 0.929 . S
H1231 C1199 0.930 . S
Li1232 N1249 1.990 . S
Li1232 O1292 1.956 . S
Li1232 O1293 1.970 . S
Li1232 O1294 1.961 . S
Li1233 N1257 1.990 . S
Li1233 O1292 1.970 . S
Li1233 O1293 1.956 . S
Li1233 O1295 1.961 . S
Li1234 N1279 1.990 . S
Li1234 O1292 1.961 . S
Li1234 O1294 1.956 . S
Li1234 O1295 1.970 . S
Li1235 N1285 1.990 . S
Li1235 O1293 1.961 . S
Li1235 O1294 1.970 . S
Li1235 O1295 1.956 . S
C1236 C1238 1.348 . S
C1236 C1239 1.356 . S
C1236 O1292 1.325 . S
N1237 C1240 1.314 . S
N1237 C1241 1.279 . S
C1238 C1236 1.348 . S
C1238 C1240 1.353 . S
C1238 H1296 0.929 . S
C1239 C1236 1.356 . S
C1239 C1241 1.358 . S
C1239 H1297 0.930 . S
C1240 N1237 1.314 . S
C1240 C1238 1.353 . S
C1240 H1298 0.930 . S
C1241 N1237 1.279 . S
C1241 C1239 1.358 . S
C1241 H1299 0.930 . S
C1242 C1245 1.348 . S
C1242 C1246 1.356 . S
C1242 O1293 1.325 . S
C1243 N1244 1.279 . S
C1243 C1246 1.358 . S
C1243 H1300 0.930 . S
N1244 C1243 1.279 . S
N1244 C1247 1.314 . S
C1245 C1242 1.348 . S
C1245 C1247 1.353 . S
C1245 H1301 0.929 . S
C1246 C1242 1.356 . S
C1246 C1243 1.358 . S
C1246 H1302 0.930 . S
C1247 N1244 1.314 . S
C1247 C1245 1.353 . S
C1247 H1303 0.930 . S
C1248 N1249 1.314 . S
C1248 C1253 1.353 . S
C1248 H1254 0.930 . S
N1249 Li1232 1.990 . S
N1249 C1248 1.314 . S
N1249 C1251 1.279 . S
C1250 C1251 1.358 . S
C1250 C1252 1.356 . S
C1250 H1304 0.930 . S
C1251 N1249 1.279 . S
C1251 C1250 1.358 . S
C1251 H1255 0.930 . S
C1252 C1250 1.356 . S
C1252 C1253 1.348 . S
C1253 C1248 1.353 . S
C1253 C1252 1.348 . S
C1253 H1305 0.929 . S
H1254 C1248 0.930 . S
H1255 C1251 0.930 . S
C1256 N1257 1.314 . S
C1256 C1258 1.353 . S
C1256 H1262 0.930 . S
N1257 Li1233 1.990 . S
N1257 C1256 1.314 . S
N1257 C1260 1.279 . S
C1258 C1256 1.353 . S
C1258 C1261 1.348 . S
C1258 H1306 0.929 . S
C1259 C1260 1.358 . S
C1259 C1261 1.356 . S
C1259 H1307 0.930 . S
C1260 N1257 1.279 . S
C1260 C1259 1.358 . S
C1260 H1263 0.930 . S
C1261 C1258 1.348 . S
C1261 C1259 1.356 . S
H1262 C1256 0.930 . S
H1263 C1260 0.930 . S
C1264 C1266 1.348 . S
C1264 C1267 1.356 . S
C1264 O1294 1.325 . S
N1265 C1268 1.314 . S
N1265 C1269 1.279 . S
C1266 C1264 1.348 . S
C1266 C1268 1.353 . S
C1266 H1308 0.929 . S
C1267 C1264 1.356 . S
C1267 C1269 1.358 . S
C1267 H1309 0.930 . S
C1268 N1265 1.314 . S
C1268 C1266 1.353 . S
C1268 H1310 0.930 . S
C1269 N1265 1.279 . S
C1269 C1267 1.358 . S
C1269 H1311 0.930 . S
C1270 C1271 1.348 . S
C1270 C1272 1.356 . S
C1270 O1295 1.325 . S
C1271 C1270 1.348 . S
C1271 C1273 1.353 . S
C1271 H1312 0.929 . S
C1272 C1270 1.356 . S
C1272 C1274 1.358 . S
C1272 H1313 0.930 . S
C1273 C1271 1.353 . S
C1273 N1275 1.314 . S
C1273 H1314 0.930 . S
C1274 C1272 1.358 . S
C1274 N1275 1.279 . S
C1274 H1315 0.930 . S
N1275 C1273 1.314 . S
N1275 C1274 1.279 . S
C1276 C1278 1.353 . S
C1276 N1279 1.314 . S
C1276 H1282 0.930 . S
C1277 N1279 1.279 . S
C1277 C1280 1.358 . S
C1277 H1283 0.930 . S
C1278 C1276 1.353 . S
C1278 C1281 1.348 . S
C1278 H1316 0.929 . S
N1279 Li1234 1.990 . S
N1279 C1276 1.314 . S
N1279 C1277 1.279 . S
C1280 C1277 1.358 . S
C1280 C1281 1.356 . S
C1280 H1317 0.930 . S
C1281 C1278 1.348 . S
C1281 C1280 1.356 . S
H1282 C1276 0.930 . S
H1283 C1277 0.930 . S
C1284 N1285 1.314 . S
C1284 C1286 1.353 . S
C1284 H1290 0.930 . S
N1285 Li1235 1.990 . S
N1285 C1284 1.314 . S
N1285 C1288 1.279 . S
C1286 C1284 1.353 . S
C1286 C1289 1.348 . S
C1286 H1318 0.929 . S
C1287 C1288 1.358 . S
C1287 C1289 1.356 . S
C1287 H1319 0.930 . S
C1288 N1285 1.279 . S
C1288 C1287 1.358 . S
C1288 H1291 0.930 . S
C1289 C1286 1.348 . S
C1289 C1287 1.356 . S
H1290 C1284 0.930 . S
H1291 C1288 0.930 . S
O1292 Li1232 1.956 . S
O1292 Li1233 1.970 . S
O1292 Li1234 1.961 . S
O1292 C1236 1.325 . S
O1293 Li1232 1.970 . S
O1293 Li1233 1.956 . S
O1293 Li1235 1.961 . S
O1293 C1242 1.325 . S
O1294 Li1232 1.961 . S
O1294 Li1234 1.956 . S
O1294 Li1235 1.970 . S
O1294 C1264 1.325 . S
O1295 Li1233 1.961 . S
O1295 Li1234 1.970 . S
O1295 Li1235 1.956 . S
O1295 C1270 1.325 . S
H1296 C1238 0.929 . S
H1297 C1239 0.930 . S
H1298 C1240 0.930 . S
H1299 C1241 0.930 . S
H1300 C1243 0.930 . S
H1301 C1245 0.929 . S
H1302 C1246 0.930 . S
H1303 C1247 0.930 . S
H1304 C1250 0.930 . S
H1305 C1253 0.929 . S
H1306 C1258 0.929 . S
H1307 C1259 0.930 . S
H1308 C1266 0.929 . S
H1309 C1267 0.930 . S
H1310 C1268 0.930 . S
H1311 C1269 0.930 . S
H1312 C1271 0.929 . S
H1313 C1272 0.930 . S
H1314 C1273 0.930 . S
H1315 C1274 0.930 . S
H1316 C1278 0.929 . S
H1317 C1280 0.930 . S
H1318 C1286 0.929 . S
H1319 C1287 0.930 . S
Li1320 N1337 1.990 . S
Li1320 O1380 1.956 . S
Li1320 O1381 1.970 . S
Li1320 O1382 1.961 . S
Li1321 N1345 1.990 . S
Li1321 O1380 1.970 . S
Li1321 O1381 1.956 . S
Li1321 O1383 1.961 . S
Li1322 N1367 1.990 . S
Li1322 O1380 1.961 . S
Li1322 O1382 1.956 . S
Li1322 O1383 1.970 . S
Li1323 N1373 1.990 . S
Li1323 O1381 1.961 . S
Li1323 O1382 1.970 . S
Li1323 O1383 1.956 . S
C1324 C1326 1.348 . S
C1324 C1327 1.356 . S
C1324 O1380 1.325 . S
N1325 C1328 1.314 . S
N1325 C1329 1.279 . S
C1326 C1324 1.348 . S
C1326 C1328 1.353 . S
C1326 H1384 0.929 . S
C1327 C1324 1.356 . S
C1327 C1329 1.358 . S
C1327 H1385 0.930 . S
C1328 N1325 1.314 . S
C1328 C1326 1.353 . S
C1328 H1386 0.930 . S
C1329 N1325 1.279 . S
C1329 C1327 1.358 . S
C1329 H1387 0.930 . S
C1330 C1333 1.348 . S
C1330 C1334 1.356 . S
C1330 O1381 1.325 . S
C1331 N1332 1.279 . S
C1331 C1334 1.358 . S
C1331 H1388 0.930 . S
N1332 C1331 1.279 . S
N1332 C1335 1.314 . S
C1333 C1330 1.348 . S
C1333 C1335 1.353 . S
C1333 H1389 0.929 . S
C1334 C1330 1.356 . S
C1334 C1331 1.358 . S
C1334 H1390 0.930 . S
C1335 N1332 1.314 . S
C1335 C1333 1.353 . S
C1335 H1391 0.930 . S
C1336 N1337 1.314 . S
C1336 C1341 1.353 . S
C1336 H1342 0.930 . S
N1337 Li1320 1.990 . S
N1337 C1336 1.314 . S
N1337 C1339 1.279 . S
C1338 C1339 1.358 . S
C1338 C1340 1.356 . S
C1338 H1392 0.930 . S
C1339 N1337 1.279 . S
C1339 C1338 1.358 . S
C1339 H1343 0.930 . S
C1340 C1338 1.356 . S
C1340 C1341 1.348 . S
C1341 C1336 1.353 . S
C1341 C1340 1.348 . S
C1341 H1393 0.929 . S
H1342 C1336 0.930 . S
H1343 C1339 0.930 . S
C1344 N1345 1.314 . S
C1344 C1346 1.353 . S
C1344 H1350 0.930 . S
N1345 Li1321 1.990 . S
N1345 C1344 1.314 . S
N1345 C1348 1.279 . S
C1346 C1344 1.353 . S
C1346 C1349 1.348 . S
C1346 H1394 0.929 . S
C1347 C1348 1.358 . S
C1347 C1349 1.356 . S
C1347 H1395 0.930 . S
C1348 N1345 1.279 . S
C1348 C1347 1.358 . S
C1348 H1351 0.930 . S
C1349 C1346 1.348 . S
C1349 C1347 1.356 . S
H1350 C1344 0.930 . S
H1351 C1348 0.930 . S
C1352 C1354 1.348 . S
C1352 C1355 1.356 . S
C1352 O1382 1.325 . S
N1353 C1356 1.314 . S
N1353 C1357 1.279 . S
C1354 C1352 1.348 . S
C1354 C1356 1.353 . S
C1354 H1396 0.929 . S
C1355 C1352 1.356 . S
C1355 C1357 1.358 . S
C1355 H1397 0.930 . S
C1356 N1353 1.314 . S
C1356 C1354 1.353 . S
C1356 H1398 0.930 . S
C1357 N1353 1.279 . S
C1357 C1355 1.358 . S
C1357 H1399 0.930 . S
C1358 C1359 1.348 . S
C1358 C1360 1.356 . S
C1358 O1383 1.325 . S
C1359 C1358 1.348 . S
C1359 C1361 1.353 . S
C1359 H1400 0.929 . S
C1360 C1358 1.356 . S
C1360 C1362 1.358 . S
C1360 H1401 0.930 . S
C1361 C1359 1.353 . S
C1361 N1363 1.314 . S
C1361 H1402 0.930 . S
C1362 C1360 1.358 . S
C1362 N1363 1.279 . S
C1362 H1403 0.930 . S
N1363 C1361 1.314 . S
N1363 C1362 1.279 . S
C1364 C1366 1.353 . S
C1364 N1367 1.314 . S
C1364 H1370 0.930 . S
C1365 N1367 1.279 . S
C1365 C1368 1.358 . S
C1365 H1371 0.930 . S
C1366 C1364 1.353 . S
C1366 C1369 1.348 . S
C1366 H1404 0.929 . S
N1367 Li1322 1.990 . S
N1367 C1364 1.314 . S
N1367 C1365 1.279 . S
C1368 C1365 1.358 . S
C1368 C1369 1.356 . S
C1368 H1405 0.930 . S
C1369 C1366 1.348 . S
C1369 C1368 1.356 . S
H1370 C1364 0.930 . S
H1371 C1365 0.930 . S
C1372 N1373 1.314 . S
C1372 C1374 1.353 . S
C1372 H1378 0.930 . S
N1373 Li1323 1.990 . S
N1373 C1372 1.314 . S
N1373 C1376 1.279 . S
C1374 C1372 1.353 . S
C1374 C1377 1.348 . S
C1374 H1406 0.929 . S
C1375 C1376 1.358 . S
C1375 C1377 1.356 . S
C1375 H1407 0.930 . S
C1376 N1373 1.279 . S
C1376 C1375 1.358 . S
C1376 H1379 0.930 . S
C1377 C1374 1.348 . S
C1377 C1375 1.356 . S
H1378 C1372 0.930 . S
H1379 C1376 0.930 . S
O1380 Li1320 1.956 . S
O1380 Li1321 1.970 . S
O1380 Li1322 1.961 . S
O1380 C1324 1.325 . S
O1381 Li1320 1.970 . S
O1381 Li1321 1.956 . S
O1381 Li1323 1.961 . S
O1381 C1330 1.325 . S
O1382 Li1320 1.961 . S
O1382 Li1322 1.956 . S
O1382 Li1323 1.970 . S
O1382 C1352 1.325 . S
O1383 Li1321 1.961 . S
O1383 Li1322 1.970 . S
O1383 Li1323 1.956 . S
O1383 C1358 1.325 . S
H1384 C1326 0.929 . S
H1385 C1327 0.930 . S
H1386 C1328 0.930 . S
H1387 C1329 0.930 . S
H1388 C1331 0.930 . S
H1389 C1333 0.929 . S
H1390 C1334 0.930 . S
H1391 C1335 0.930 . S
H1392 C1338 0.930 . S
H1393 C1341 0.929 . S
H1394 C1346 0.929 . S
H1395 C1347 0.930 . S
H1396 C1354 0.929 . S
H1397 C1355 0.930 . S
H1398 C1356 0.930 . S
H1399 C1357 0.930 . S
H1400 C1359 0.929 . S
H1401 C1360 0.930 . S
H1402 C1361 0.930 . S
H1403 C1362 0.930 . S
H1404 C1366 0.929 . S
H1405 C1368 0.930 . S
H1406 C1374 0.929 . S
H1407 C1375 0.930 . S
C1408 C1409 1.369 . S
C1408 C1410 1.419 . S
C1408 H1412 0.930 . S
C1409 C1408 1.369 . S
C1409 C1418 1.429 . S
C1410 C1408 1.419 . S
C1410 C1411 1.363 . S
C1410 H1413 0.929 . S
C1411 C1410 1.363 . S
C1411 C1417 1.428 . S
H1412 C1408 0.930 . S
H1413 C1410 0.929 . S
S1414 N1415 1.613 . S
S1414 N1416 1.610 . S
N1415 S1414 1.613 . S
N1415 C1418 1.350 . S
N1416 S1414 1.610 . S
N1416 C1417 1.351 . S
C1417 C1411 1.428 . S
C1417 N1416 1.351 . S
C1417 C1418 1.434 . S
C1418 C1409 1.429 . S
C1418 N1415 1.350 . S
C1418 C1417 1.434 . S
C1419 C1420 1.369 . S
C1419 C1421 1.419 . S
C1419 H1423 0.930 . S
C1420 C1419 1.369 . S
C1420 C1429 1.429 . S
C1421 C1419 1.419 . S
C1421 C1422 1.363 . S
C1421 H1424 0.929 . S
C1422 C1421 1.363 . S
C1422 C1428 1.428 . S
H1423 C1419 0.930 . S
H1424 C1421 0.929 . S
S1425 N1426 1.613 . S
S1425 N1427 1.610 . S
N1426 S1425 1.613 . S
N1426 C1429 1.350 . S
N1427 S1425 1.610 . S
N1427 C1428 1.351 . S
C1428 C1422 1.428 . S
C1428 N1427 1.351 . S
C1428 C1429 1.434 . S
C1429 C1420 1.429 . S
C1429 N1426 1.350 . S
C1429 C1428 1.434 . S
C1430 C1431 1.369 . S
C1430 C1432 1.419 . S
C1430 H1434 0.930 . S
C1431 C1430 1.369 . S
C1431 C1440 1.429 . S
C1432 C1430 1.419 . S
C1432 C1433 1.363 . S
C1432 H1435 0.929 . S
C1433 C1432 1.363 . S
C1433 C1439 1.428 . S
H1434 C1430 0.930 . S
H1435 C1432 0.929 . S
S1436 N1437 1.613 . S
S1436 N1438 1.610 . S
N1437 S1436 1.613 . S
N1437 C1440 1.350 . S
N1438 S1436 1.610 . S
N1438 C1439 1.351 . S
C1439 C1433 1.428 . S
C1439 N1438 1.351 . S
C1439 C1440 1.434 . S
C1440 C1431 1.429 . S
C1440 N1437 1.350 . S
C1440 C1439 1.434 . S
C1441 C1442 1.369 . S
C1441 C1443 1.419 . S
C1441 H1445 0.930 . S
C1442 C1441 1.369 . S
C1442 C1451 1.429 . S
C1443 C1441 1.419 . S
C1443 C1444 1.363 . S
C1443 H1446 0.929 . S
C1444 C1443 1.363 . S
C1444 C1450 1.428 . S
H1445 C1441 0.930 . S
H1446 C1443 0.929 . S
S1447 N1448 1.613 . S
S1447 N1449 1.610 . S
N1448 S1447 1.613 . S
N1448 C1451 1.350 . S
N1449 S1447 1.610 . S
N1449 C1450 1.351 . S
C1450 C1444 1.428 . S
C1450 N1449 1.351 . S
C1450 C1451 1.434 . S
C1451 C1442 1.429 . S
C1451 N1448 1.350 . S
C1451 C1450 1.434 . S
C1452 C1453 1.369 . S
C1452 C1454 1.419 . S
C1452 H1456 0.930 . S
C1453 C1452 1.369 . S
C1453 C1462 1.429 . S
C1454 C1452 1.419 . S
C1454 C1455 1.363 . S
C1454 H1457 0.929 . S
C1455 C1454 1.363 . S
C1455 C1461 1.428 . S
H1456 C1452 0.930 . S
H1457 C1454 0.929 . S
S1458 N1459 1.613 . S
S1458 N1460 1.610 . S
N1459 S1458 1.613 . S
N1459 C1462 1.350 . S
N1460 S1458 1.610 . S
N1460 C1461 1.351 . S
C1461 C1455 1.428 . S
C1461 N1460 1.351 . S
C1461 C1462 1.434 . S
C1462 C1453 1.429 . S
C1462 N1459 1.350 . S
C1462 C1461 1.434 . S
C1463 C1464 1.369 . S
C1463 C1465 1.419 . S
C1463 H1467 0.930 . S
C1464 C1463 1.369 . S
C1464 C1473 1.429 . S
C1465 C1463 1.419 . S
C1465 C1466 1.363 . S
C1465 H1468 0.929 . S
C1466 C1465 1.363 . S
C1466 C1472 1.428 . S
H1467 C1463 0.930 . S
H1468 C1465 0.929 . S
S1469 N1470 1.613 . S
S1469 N1471 1.610 . S
N1470 S1469 1.613 . S
N1470 C1473 1.350 . S
N1471 S1469 1.610 . S
N1471 C1472 1.351 . S
C1472 C1466 1.428 . S
C1472 N1471 1.351 . S
C1472 C1473 1.434 . S
C1473 C1464 1.429 . S
C1473 N1470 1.350 . S
C1473 C1472 1.434 . S
C1474 C1475 1.369 . S
C1474 C1476 1.419 . S
C1474 H1478 0.930 . S
C1475 C1474 1.369 . S
C1475 C1484 1.429 . S
C1476 C1474 1.419 . S
C1476 C1477 1.363 . S
C1476 H1479 0.929 . S
C1477 C1476 1.363 . S
C1477 C1483 1.428 . S
H1478 C1474 0.930 . S
H1479 C1476 0.929 . S
S1480 N1481 1.613 . S
S1480 N1482 1.610 . S
N1481 S1480 1.613 . S
N1481 C1484 1.350 . S
N1482 S1480 1.610 . S
N1482 C1483 1.351 . S
C1483 C1477 1.428 . S
C1483 N1482 1.351 . S
C1483 C1484 1.434 . S
C1484 C1475 1.429 . S
C1484 N1481 1.350 . S
C1484 C1483 1.434 . S
C1485 C1486 1.369 . S
C1485 C1487 1.419 . S
C1485 H1489 0.930 . S
C1486 C1485 1.369 . S
C1486 C1495 1.429 . S
C1487 C1485 1.419 . S
C1487 C1488 1.363 . S
C1487 H1490 0.929 . S
C1488 C1487 1.363 . S
C1488 C1494 1.428 . S
H1489 C1485 0.930 . S
H1490 C1487 0.929 . S
S1491 N1492 1.613 . S
S1491 N1493 1.610 . S
N1492 S1491 1.613 . S
N1492 C1495 1.350 . S
N1493 S1491 1.610 . S
N1493 C1494 1.351 . S
C1494 C1488 1.428 . S
C1494 N1493 1.351 . S
C1494 C1495 1.434 . S
C1495 C1486 1.429 . S
C1495 N1492 1.350 . S
C1495 C1494 1.434 . S
C1496 C1497 1.369 . S
C1496 C1498 1.419 1_556 S
C1496 H1500 0.930 . S
C1497 C1496 1.369 . S
C1497 C1506 1.429 . S
C1498 C1496 1.419 1_554 S
C1498 C1499 1.363 . S
C1498 H1501 0.929 . S
C1499 C1498 1.363 . S
C1499 C1505 1.428 . S
H1500 C1496 0.930 . S
H1501 C1498 0.929 . S
S1502 N1503 1.609 1_554 S
S1502 N1504 1.614 . S
N1503 S1502 1.609 1_556 S
N1503 C1506 1.350 . S
N1504 S1502 1.614 . S
N1504 C1505 1.351 . S
C1505 C1499 1.428 . S
C1505 N1504 1.351 . S
C1505 C1506 1.434 1_554 S
C1506 C1497 1.429 . S
C1506 N1503 1.350 . S
C1506 C1505 1.434 1_556 S
C1507 C1508 1.369 . S
C1507 C1509 1.419 1_556 S
C1507 H1511 0.930 . S
C1508 C1507 1.369 . S
C1508 C1517 1.429 . S
C1509 C1507 1.419 1_554 S
C1509 C1510 1.363 . S
C1509 H1512 0.929 . S
C1510 C1509 1.363 . S
C1510 C1516 1.428 . S
H1511 C1507 0.930 . S
H1512 C1509 0.929 . S
S1513 N1514 1.616 . S
S1513 N1515 1.608 1_556 S
N1514 S1513 1.616 . S
N1514 C1517 1.350 . S
N1515 S1513 1.608 1_554 S
N1515 C1516 1.351 . S
C1516 C1510 1.428 . S
C1516 N1515 1.351 . S
C1516 C1517 1.434 1_554 S
C1517 C1508 1.429 . S
C1517 N1514 1.350 . S
C1517 C1516 1.434 1_556 S
C1518 C1519 1.369 . S
C1518 C1520 1.419 1_556 S
C1518 H1522 0.930 . S
C1519 C1518 1.369 . S
C1519 C1528 1.429 . S
C1520 C1518 1.419 1_554 S
C1520 C1521 1.363 . S
C1520 H1523 0.929 . S
C1521 C1520 1.363 . S
C1521 C1527 1.428 . S
H1522 C1518 0.930 . S
H1523 C1520 0.929 . S
S1524 N1525 1.580 1_554 S
S1524 N1526 1.643 . S
N1525 S1524 1.580 1_556 S
N1525 C1528 1.350 . S
N1526 S1524 1.643 . S
N1526 C1527 1.351 . S
C1527 C1521 1.428 . S
C1527 N1526 1.351 . S
C1527 C1528 1.434 1_554 S
C1528 C1519 1.429 . S
C1528 N1525 1.350 . S
C1528 C1527 1.434 1_556 S
C1529 C1530 1.369 . S
C1529 C1531 1.419 1_554 S
C1529 H1533 0.930 . S
C1530 C1529 1.369 . S
C1530 C1539 1.429 . S
C1531 C1529 1.419 1_556 S
C1531 C1532 1.363 . S
C1531 H1534 0.929 . S
C1532 C1531 1.363 . S
C1532 C1538 1.428 . S
H1533 C1529 0.930 . S
H1534 C1531 0.929 . S
S1535 N1536 1.614 1_556 S
S1535 N1537 1.610 . S
N1536 S1535 1.614 1_554 S
N1536 C1539 1.350 . S
N1537 S1535 1.610 . S
N1537 C1538 1.351 . S
C1538 C1532 1.428 . S
C1538 N1537 1.351 . S
C1538 C1539 1.434 1_556 S
C1539 C1530 1.429 . S
C1539 N1536 1.350 . S
C1539 C1538 1.434 1_554 S
C1540 C1541 1.369 . S
C1540 C1542 1.419 1_455 S
C1540 H1544 0.930 . S
C1541 C1540 1.369 . S
C1541 C1550 1.429 . S
C1542 C1540 1.419 1_655 S
C1542 C1543 1.363 . S
C1542 H1545 0.929 . S
C1543 C1542 1.363 . S
C1543 C1549 1.428 . S
H1544 C1540 0.930 . S
H1545 C1542 0.929 . S
S1546 N1547 1.615 . S
S1546 N1548 1.609 1_455 S
N1547 S1546 1.615 . S
N1547 C1550 1.350 . S
N1548 S1546 1.609 1_655 S
N1548 C1549 1.351 . S
C1549 C1543 1.428 . S
C1549 N1548 1.351 . S
C1549 C1550 1.434 1_655 S
C1550 C1541 1.429 . S
C1550 N1547 1.350 . S
C1550 C1549 1.434 1_455 S
C1551 C1552 1.369 . S
C1551 C1553 1.419 1_565 S
C1551 H1555 0.930 . S
C1552 C1551 1.369 . S
C1552 C1561 1.429 . S
C1553 C1551 1.419 1_545 S
C1553 C1554 1.363 . S
C1553 H1556 0.929 . S
C1554 C1553 1.363 . S
C1554 C1560 1.428 . S
H1555 C1551 0.930 . S
H1556 C1553 0.929 . S
S1557 N1558 1.613 . S
S1557 N1559 1.610 1_565 S
N1558 S1557 1.613 . S
N1558 C1561 1.350 . S
N1559 S1557 1.610 1_545 S
N1559 C1560 1.351 . S
C1560 C1554 1.428 . S
C1560 N1559 1.351 . S
C1560 C1561 1.434 1_545 S
C1561 C1552 1.429 . S
C1561 N1558 1.350 . S
C1561 C1560 1.434 1_565 S
C1562 C1563 1.369 . S
C1562 C1564 1.419 1_655 S
C1562 H1566 0.930 . S
C1563 C1562 1.369 . S
C1563 C1572 1.429 . S
C1564 C1562 1.419 1_455 S
C1564 C1565 1.363 . S
C1564 H1567 0.929 . S
C1565 C1564 1.363 . S
C1565 C1571 1.428 . S
H1566 C1562 0.930 . S
H1567 C1564 0.929 . S
S1568 N1569 1.575 1_455 S
S1568 N1570 1.650 . S
N1569 S1568 1.575 1_655 S
N1569 C1572 1.350 . S
N1570 S1568 1.650 . S
N1570 C1571 1.351 . S
C1571 C1565 1.428 . S
C1571 N1570 1.351 . S
C1571 C1572 1.434 1_455 S
C1572 C1563 1.429 . S
C1572 N1569 1.350 . S
C1572 C1571 1.434 1_655 S
C1573 C1574 1.369 . S
C1573 C1575 1.419 1_545 S
C1573 H1577 0.930 . S
C1574 C1573 1.369 . S
C1574 C1583 1.429 . S
C1575 C1573 1.419 1_565 S
C1575 C1576 1.363 . S
C1575 H1578 0.929 . S
C1576 C1575 1.363 . S
C1576 C1582 1.428 . S
H1577 C1573 0.930 . S
H1578 C1575 0.929 . S
S1579 N1580 1.611 1_565 S
S1579 N1581 1.612 . S
N1580 S1579 1.611 1_545 S
N1580 C1583 1.350 . S
N1581 S1579 1.612 . S
N1581 C1582 1.351 . S
C1582 C1576 1.428 . S
C1582 N1581 1.351 . S
C1582 C1583 1.434 1_565 S
C1583 C1574 1.429 . S
C1583 N1580 1.350 . S
C1583 C1582 1.434 1_545 S
C1584 C1585 1.369 . S
C1584 C1586 1.419 1_655 S
C1584 H1588 0.930 . S
C1585 C1584 1.369 . S
C1585 C1594 1.429 . S
C1586 C1584 1.419 1_455 S
C1586 C1587 1.363 . S
C1586 H1589 0.929 . S
C1587 C1586 1.363 . S
C1587 C1593 1.428 . S
H1588 C1584 0.930 . S
H1589 C1586 0.929 . S
S1590 N1591 1.616 . S
S1590 N1592 1.607 1_655 S
N1591 S1590 1.616 . S
N1591 C1594 1.350 . S
N1592 S1590 1.607 1_455 S
N1592 C1593 1.351 . S
C1593 C1587 1.428 . S
C1593 N1592 1.351 . S
C1593 C1594 1.434 1_455 S
C1594 C1585 1.429 . S
C1594 N1591 1.350 . S
C1594 C1593 1.434 1_655 S
C1595 C1596 1.369 . S
C1595 C1597 1.419 1_565 S
C1595 H1599 0.930 . S
C1596 C1595 1.369 . S
C1596 C1605 1.429 . S
C1597 C1595 1.419 1_545 S
C1597 C1598 1.363 . S
C1597 H1600 0.929 . S
C1598 C1597 1.363 . S
C1598 C1604 1.428 . S
H1599 C1595 0.930 . S
H1600 C1597 0.929 . S
S1601 N1602 1.575 1_545 S
S1601 N1603 1.649 . S
N1602 S1601 1.575 1_565 S
N1602 C1605 1.350 . S
N1603 S1601 1.649 . S
N1603 C1604 1.351 . S
C1604 C1598 1.428 . S
C1604 N1603 1.351 . S
C1604 C1605 1.434 1_545 S
C1605 C1596 1.429 . S
C1605 N1602 1.350 . S
C1605 C1604 1.434 1_565 S
C1606 C1607 1.369 . S
C1606 C1608 1.419 1_455 S
C1606 H1610 0.930 . S
C1607 C1606 1.369 . S
C1607 C1616 1.429 . S
C1608 C1606 1.419 1_655 S
C1608 C1609 1.363 . S
C1608 H1611 0.929 . S
C1609 C1608 1.363 . S
C1609 C1615 1.428 . S
H1610 C1606 0.930 . S
H1611 C1608 0.929 . S
S1612 N1613 1.600 1_655 S
S1612 N1614 1.623 . S
N1613 S1612 1.600 1_455 S
N1613 C1616 1.350 . S
N1614 S1612 1.623 . S
N1614 C1615 1.351 . S
C1615 C1609 1.428 . S
C1615 N1614 1.351 . S
C1615 C1616 1.434 1_655 S
C1616 C1607 1.429 . S
C1616 N1613 1.350 . S
C1616 C1615 1.434 1_455 S
C1617 C1618 1.369 . S
C1617 C1619 1.419 1_565 S
C1617 H1621 0.930 . S
C1618 C1617 1.369 . S
C1618 C1627 1.429 . S
C1619 C1617 1.419 1_545 S
C1619 C1620 1.363 . S
C1619 H1622 0.929 . S
C1620 C1619 1.363 . S
C1620 C1626 1.428 . S
H1621 C1617 0.930 . S
H1622 C1619 0.929 . S
S1623 N1624 1.614 . S
S1623 N1625 1.609 1_565 S
N1624 S1623 1.614 . S
N1624 C1627 1.350 . S
N1625 S1623 1.609 1_545 S
N1625 C1626 1.351 . S
C1626 C1620 1.428 . S
C1626 N1625 1.351 . S
C1626 C1627 1.434 1_545 S
C1627 C1618 1.429 . S
C1627 N1624 1.350 . S
C1627 C1626 1.434 1_565 S
C1628 C1629 1.369 . S
C1628 C1630 1.419 . S
C1628 H1632 0.930 . S
C1629 C1628 1.369 . S
C1629 C1638 1.429 . S
C1630 C1628 1.419 . S
C1630 C1631 1.363 . S
C1630 H1633 0.929 . S
C1631 C1630 1.363 . S
C1631 C1637 1.428 . S
H1632 C1628 0.930 . S
H1633 C1630 0.929 . S
S1634 N1635 1.613 . S
S1634 N1636 1.610 . S
N1635 S1634 1.613 . S
N1635 C1638 1.350 . S
N1636 S1634 1.610 . S
N1636 C1637 1.351 . S
C1637 C1631 1.428 . S
C1637 N1636 1.351 . S
C1637 C1638 1.434 . S
C1638 C1629 1.429 . S
C1638 N1635 1.350 . S
C1638 C1637 1.434 . S
C1639 C1640 1.369 . S
C1639 C1641 1.419 . S
C1639 H1643 0.930 . S
C1640 C1639 1.369 . S
C1640 C1649 1.429 . S
C1641 C1639 1.419 . S
C1641 C1642 1.363 . S
C1641 H1644 0.929 . S
C1642 C1641 1.363 . S
C1642 C1648 1.428 . S
H1643 C1639 0.930 . S
H1644 C1641 0.929 . S
S1645 N1646 1.613 . S
S1645 N1647 1.610 . S
N1646 S1645 1.613 . S
N1646 C1649 1.350 . S
N1647 S1645 1.610 . S
N1647 C1648 1.351 . S
C1648 C1642 1.428 . S
C1648 N1647 1.351 . S
C1648 C1649 1.434 . S
C1649 C1640 1.429 . S
C1649 N1646 1.350 . S
C1649 C1648 1.434 . S
C1650 C1651 1.369 . S
C1650 C1652 1.419 . S
C1650 H1654 0.930 . S
C1651 C1650 1.369 . S
C1651 C1660 1.429 . S
C1652 C1650 1.419 . S
C1652 C1653 1.363 . S
C1652 H1655 0.929 . S
C1653 C1652 1.363 . S
C1653 C1659 1.428 . S
H1654 C1650 0.930 . S
H1655 C1652 0.929 . S
S1656 N1657 1.613 . S
S1656 N1658 1.610 . S
N1657 S1656 1.613 . S
N1657 C1660 1.350 . S
N1658 S1656 1.610 . S
N1658 C1659 1.351 . S
C1659 C1653 1.428 . S
C1659 N1658 1.351 . S
C1659 C1660 1.434 . S
C1660 C1651 1.429 . S
C1660 N1657 1.350 . S
C1660 C1659 1.434 . S
C1661 C1662 1.369 . S
C1661 C1663 1.419 . S
C1661 H1665 0.930 . S
C1662 C1661 1.369 . S
C1662 C1671 1.429 . S
C1663 C1661 1.419 . S
C1663 C1664 1.363 . S
C1663 H1666 0.929 . S
C1664 C1663 1.363 . S
C1664 C1670 1.428 . S
H1665 C1661 0.930 . S
H1666 C1663 0.929 . S
S1667 N1668 1.613 . S
S1667 N1669 1.610 . S
N1668 S1667 1.613 . S
N1668 C1671 1.350 . S
N1669 S1667 1.610 . S
N1669 C1670 1.351 . S
C1670 C1664 1.428 . S
C1670 N1669 1.351 . S
C1670 C1671 1.434 . S
C1671 C1662 1.429 . S
C1671 N1668 1.350 . S
C1671 C1670 1.434 . S
C1672 C1673 1.369 . S
C1672 C1674 1.419 . S
C1672 H1676 0.930 . S
C1673 C1672 1.369 . S
C1673 C1682 1.429 . S
C1674 C1672 1.419 . S
C1674 C1675 1.363 . S
C1674 H1677 0.929 . S
C1675 C1674 1.363 . S
C1675 C1681 1.428 . S
H1676 C1672 0.930 . S
H1677 C1674 0.929 . S
S1678 N1679 1.613 . S
S1678 N1680 1.610 . S
N1679 S1678 1.613 . S
N1679 C1682 1.350 . S
N1680 S1678 1.610 . S
N1680 C1681 1.351 . S
C1681 C1675 1.428 . S
C1681 N1680 1.351 . S
C1681 C1682 1.434 . S
C1682 C1673 1.429 . S
C1682 N1679 1.350 . S
C1682 C1681 1.434 . S
C1683 C1684 1.369 . S
C1683 C1685 1.419 . S
C1683 H1687 0.930 . S
C1684 C1683 1.369 . S
C1684 C1693 1.429 . S
C1685 C1683 1.419 . S
C1685 C1686 1.363 . S
C1685 H1688 0.929 . S
C1686 C1685 1.363 . S
C1686 C1692 1.428 . S
H1687 C1683 0.930 . S
H1688 C1685 0.929 . S
S1689 N1690 1.613 . S
S1689 N1691 1.610 . S
N1690 S1689 1.613 . S
N1690 C1693 1.350 . S
N1691 S1689 1.610 . S
N1691 C1692 1.351 . S
C1692 C1686 1.428 . S
C1692 N1691 1.351 . S
C1692 C1693 1.434 . S
C1693 C1684 1.429 . S
C1693 N1690 1.350 . S
C1693 C1692 1.434 . S
C1694 C1695 1.369 . S
C1694 C1696 1.419 . S
C1694 H1698 0.930 . S
C1695 C1694 1.369 . S
C1695 C1704 1.429 . S
C1696 C1694 1.419 . S
C1696 C1697 1.363 . S
C1696 H1699 0.929 . S
C1697 C1696 1.363 . S
C1697 C1703 1.428 . S
H1698 C1694 0.930 . S
H1699 C1696 0.929 . S
S1700 N1701 1.613 . S
S1700 N1702 1.610 . S
N1701 S1700 1.613 . S
N1701 C1704 1.350 . S
N1702 S1700 1.610 . S
N1702 C1703 1.351 . S
C1703 C1697 1.428 . S
C1703 N1702 1.351 . S
C1703 C1704 1.434 . S
C1704 C1695 1.429 . S
C1704 N1701 1.350 . S
C1704 C1703 1.434 . S
C1705 C1706 1.369 . S
C1705 C1707 1.419 . S
C1705 H1709 0.930 . S
C1706 C1705 1.369 . S
C1706 C1715 1.429 . S
C1707 C1705 1.419 . S
C1707 C1708 1.363 . S
C1707 H1710 0.929 . S
C1708 C1707 1.363 . S
C1708 C1714 1.428 . S
H1709 C1705 0.930 . S
H1710 C1707 0.929 . S
S1711 N1712 1.613 . S
S1711 N1713 1.610 . S
N1712 S1711 1.613 . S
N1712 C1715 1.350 . S
N1713 S1711 1.610 . S
N1713 C1714 1.351 . S
C1714 C1708 1.428 . S
C1714 N1713 1.351 . S
C1714 C1715 1.434 . S
C1715 C1706 1.429 . S
C1715 N1712 1.350 . S
C1715 C1714 1.434 . S
C1716 C1717 1.369 . S
C1716 C1718 1.419 . S
C1716 H1720 0.930 . S
C1717 C1716 1.369 . S
C1717 C1726 1.429 . S
C1718 C1716 1.419 . S
C1718 C1719 1.363 . S
C1718 H1721 0.929 . S
C1719 C1718 1.363 . S
C1719 C1725 1.428 . S
H1720 C1716 0.930 . S
H1721 C1718 0.929 . S
S1722 N1723 1.613 . S
S1722 N1724 1.610 . S
N1723 S1722 1.613 . S
N1723 C1726 1.350 . S
N1724 S1722 1.610 . S
N1724 C1725 1.351 . S
C1725 C1719 1.428 . S
C1725 N1724 1.351 . S
C1725 C1726 1.434 . S
C1726 C1717 1.429 . S
C1726 N1723 1.350 . S
C1726 C1725 1.434 . S
C1727 C1728 1.369 . S
C1727 C1729 1.419 . S
C1727 H1731 0.930 . S
C1728 C1727 1.369 . S
C1728 C1737 1.429 . S
C1729 C1727 1.419 . S
C1729 C1730 1.363 . S
C1729 H1732 0.929 . S
C1730 C1729 1.363 . S
C1730 C1736 1.428 . S
H1731 C1727 0.930 . S
H1732 C1729 0.929 . S
S1733 N1734 1.613 . S
S1733 N1735 1.610 . S
N1734 S1733 1.613 . S
N1734 C1737 1.350 . S
N1735 S1733 1.610 . S
N1735 C1736 1.351 . S
C1736 C1730 1.428 . S
C1736 N1735 1.351 . S
C1736 C1737 1.434 . S
C1737 C1728 1.429 . S
C1737 N1734 1.350 . S
C1737 C1736 1.434 . S
C1738 C1739 1.369 . S
C1738 C1740 1.419 . S
C1738 H1742 0.930 . S
C1739 C1738 1.369 . S
C1739 C1748 1.429 . S
C1740 C1738 1.419 . S
C1740 C1741 1.363 . S
C1740 H1743 0.929 . S
C1741 C1740 1.363 . S
C1741 C1747 1.428 . S
H1742 C1738 0.930 . S
H1743 C1740 0.929 . S
S1744 N1745 1.613 . S
S1744 N1746 1.610 . S
N1745 S1744 1.613 . S
N1745 C1748 1.350 . S
N1746 S1744 1.610 . S
N1746 C1747 1.351 . S
C1747 C1741 1.428 . S
C1747 N1746 1.351 . S
C1747 C1748 1.434 . S
C1748 C1739 1.429 . S
C1748 N1745 1.350 . S
C1748 C1747 1.434 . S
C1749 C1750 1.369 . S
C1749 C1751 1.419 . S
C1749 H1753 0.930 . S
C1750 C1749 1.369 . S
C1750 C1759 1.429 . S
C1751 C1749 1.419 . S
C1751 C1752 1.363 . S
C1751 H1754 0.929 . S
C1752 C1751 1.363 . S
C1752 C1758 1.428 . S
H1753 C1749 0.930 . S
H1754 C1751 0.929 . S
S1755 N1756 1.613 . S
S1755 N1757 1.610 . S
N1756 S1755 1.613 . S
N1756 C1759 1.350 . S
N1757 S1755 1.610 . S
N1757 C1758 1.351 . S
C1758 C1752 1.428 . S
C1758 N1757 1.351 . S
C1758 C1759 1.434 . S
C1759 C1750 1.429 . S
C1759 N1756 1.350 . S
C1759 C1758 1.434 . S
C1409 C1377 0.678 . S
C1411 C29 0.678 . S
C1420 C1105 0.680 . S
C1422 C108 0.680 . S
C1431 C233 0.680 . S
C1433 C1193 0.680 . S
C1442 C1289 0.682 . S
C1444 C293 0.682 . S
C1453 C821 0.680 . S
C1455 C401 0.679 . S
C1464 C489 0.680 . S
C1466 C937 0.680 . S
C1475 C577 0.683 . S
C1477 C997 0.682 . S
C1486 C673 0.679 . S
C1488 C724 0.678 . S
C1497 C460 1.525 . S
C1499 C20 1.518 . S
C1508 C557 1.518 . S
C1510 C145 1.522 . S
C1519 C645 1.527 . S
C1521 C225 1.520 . S
C1530 C321 1.532 . S
C1532 C381 1.524 . S
C1541 C57 1.532 . S
C1543 C137 1.532 . S
C1552 C196 1.520 . S
C1554 C117 1.521 . S
C1563 C205 1.526 . S
C1565 C284 1.521 . S
C1574 C49 1.516 . S
C1576 C313 1.513 . S
C1585 C665 1.514 . S
C1587 C409 1.515 . S
C1596 C372 1.532 . S
C1598 C469 1.525 . S
C1607 C497 1.519 . S
C1609 C585 1.522 . S
C1618 C636 1.531 . S
C1620 C548 1.540 . S
C1629 C1164 1.526 . S
C1631 C733 1.520 . S
C1640 C841 1.524 . S
C1642 C1252 1.521 . S
C1651 C1349 1.531 . S
C1653 C929 1.524 . S
C1662 C1085 1.525 . S
C1664 C1025 1.533 . S
C1673 C753 1.533 . S
C1675 C849 1.533 . S
C1684 C812 1.523 . S
C1686 C900 1.523 . S
C1695 C988 1.523 . S
C1697 C909 1.528 . S
C1706 C761 1.516 . S
C1708 C1017 1.514 . S
C1717 C1369 1.516 . S
C1719 C1113 1.516 . S
C1728 C1076 1.532 . S
C1730 C1173 1.526 . S
C1739 C1201 1.521 . S
C1741 C1281 1.523 . S
C1750 C1340 1.532 . S
C1752 C1261 1.540 . S
