# Generated by pormake.
# Topology wnd, (6)-cn, num edge types: 1
# Building blocks:
#     Node 0, Type 0, BuildingBlock: BETDIP_clean_sbu_0, # of connection points: 6
#     Node 1, Type 0, BuildingBlock: BETDIP_clean_sbu_0, # of connection points: 6
#     Node 2, Type 0, BuildingBlock: BETDIP_clean_sbu_0, # of connection points: 6
#     Node 3, Type 0, BuildingBlock: BETDIP_clean_sbu_0, # of connection points: 6
#     Node 4, Type 0, BuildingBlock: BETDIP_clean_sbu_0, # of connection points: 6
#     Node 5, Type 0, BuildingBlock: BETDIP_clean_sbu_0, # of connection points: 6
#     Node 6, Type 0, BuildingBlock: BETDIP_clean_sbu_0, # of connection points: 6
#     Node 7, Type 0, BuildingBlock: BETDIP_clean_sbu_0, # of connection points: 6
#     Node 8, Type 0, BuildingBlock: BETDIP_clean_sbu_0, # of connection points: 6
#     Node 9, Type 0, BuildingBlock: BETDIP_clean_sbu_0, # of connection points: 6
#     Node 10, Type 0, BuildingBlock: BETDIP_clean_sbu_0, # of connection points: 6
#     Node 11, Type 0, BuildingBlock: BETDIP_clean_sbu_0, # of connection points: 6
#     Node 12, Type 0, BuildingBlock: BETDIP_clean_sbu_0, # of connection points: 6
#     Node 13, Type 0, BuildingBlock: BETDIP_clean_sbu_0, # of connection points: 6
#     Node 14, Type 0, BuildingBlock: BETDIP_clean_sbu_0, # of connection points: 6
#     Node 15, Type 0, BuildingBlock: BETDIP_clean_sbu_0, # of connection points: 6
#     Node 16, Type 0, BuildingBlock: BETDIP_clean_sbu_0, # of connection points: 6
#     Node 17, Type 0, BuildingBlock: BETDIP_clean_sbu_0, # of connection points: 6
#     Node 18, Type 0, BuildingBlock: BETDIP_clean_sbu_0, # of connection points: 6
#     Node 19, Type 0, BuildingBlock: BETDIP_clean_sbu_0, # of connection points: 6
#     Node 20, Type 0, BuildingBlock: BETDIP_clean_sbu_0, # of connection points: 6
#     Node 21, Type 0, BuildingBlock: BETDIP_clean_sbu_0, # of connection points: 6
#     Node 22, Type 0, BuildingBlock: BETDIP_clean_sbu_0, # of connection points: 6
#     Node 23, Type 0, BuildingBlock: BETDIP_clean_sbu_0, # of connection points: 6
#     Node 24, Type 0, BuildingBlock: BETDIP_clean_sbu_0, # of connection points: 6
#     Node 25, Type 0, BuildingBlock: BETDIP_clean_sbu_0, # of connection points: 6
#     Node 26, Type 0, BuildingBlock: BETDIP_clean_sbu_0, # of connection points: 6
#     Node 27, Type 0, BuildingBlock: BETDIP_clean_sbu_0, # of connection points: 6
#     Node 28, Type 0, BuildingBlock: BETDIP_clean_sbu_0, # of connection points: 6
#     Node 29, Type 0, BuildingBlock: BETDIP_clean_sbu_0, # of connection points: 6
#     Node 30, Type 0, BuildingBlock: BETDIP_clean_sbu_0, # of connection points: 6
#     Node 31, Type 0, BuildingBlock: BETDIP_clean_sbu_0, # of connection points: 6
#     Node 32, Type 0, BuildingBlock: BETDIP_clean_sbu_0, # of connection points: 6
#     Node 33, Type 0, BuildingBlock: BETDIP_clean_sbu_0, # of connection points: 6
#     Node 34, Type 0, BuildingBlock: BETDIP_clean_sbu_0, # of connection points: 6
#     Node 35, Type 0, BuildingBlock: BETDIP_clean_sbu_0, # of connection points: 6
#     Edge 36, Type (0, 0), BuildingBlock: KIFKEQ_clean_linker_1, # of connection points: 2
#     Edge 37, Type (0, 0), BuildingBlock: KIFKEQ_clean_linker_1, # of connection points: 2
#     Edge 38, Type (0, 0), BuildingBlock: KIFKEQ_clean_linker_1, # of connection points: 2
#     Edge 39, Type (0, 0), BuildingBlock: KIFKEQ_clean_linker_1, # of connection points: 2
#     Edge 40, Type (0, 0), BuildingBlock: KIFKEQ_clean_linker_1, # of connection points: 2
#     Edge 41, Type (0, 0), BuildingBlock: KIFKEQ_clean_linker_1, # of connection points: 2
#     Edge 42, Type (0, 0), BuildingBlock: KIFKEQ_clean_linker_1, # of connection points: 2
#     Edge 43, Type (0, 0), BuildingBlock: KIFKEQ_clean_linker_1, # of connection points: 2
#     Edge 44, Type (0, 0), BuildingBlock: KIFKEQ_clean_linker_1, # of connection points: 2
#     Edge 45, Type (0, 0), BuildingBlock: KIFKEQ_clean_linker_1, # of connection points: 2
#     Edge 46, Type (0, 0), BuildingBlock: KIFKEQ_clean_linker_1, # of connection points: 2
#     Edge 47, Type (0, 0), BuildingBlock: KIFKEQ_clean_linker_1, # of connection points: 2
#     Edge 48, Type (0, 0), BuildingBlock: KIFKEQ_clean_linker_1, # of connection points: 2
#     Edge 49, Type (0, 0), BuildingBlock: KIFKEQ_clean_linker_1, # of connection points: 2
#     Edge 50, Type (0, 0), BuildingBlock: KIFKEQ_clean_linker_1, # of connection points: 2
#     Edge 51, Type (0, 0), BuildingBlock: KIFKEQ_clean_linker_1, # of connection points: 2
#     Edge 52, Type (0, 0), BuildingBlock: KIFKEQ_clean_linker_1, # of connection points: 2
#     Edge 53, Type (0, 0), BuildingBlock: KIFKEQ_clean_linker_1, # of connection points: 2
#     Edge 54, Type (0, 0), BuildingBlock: KIFKEQ_clean_linker_1, # of connection points: 2
#     Edge 55, Type (0, 0), BuildingBlock: KIFKEQ_clean_linker_1, # of connection points: 2
#     Edge 56, Type (0, 0), BuildingBlock: KIFKEQ_clean_linker_1, # of connection points: 2
#     Edge 57, Type (0, 0), BuildingBlock: KIFKEQ_clean_linker_1, # of connection points: 2
#     Edge 58, Type (0, 0), BuildingBlock: KIFKEQ_clean_linker_1, # of connection points: 2
#     Edge 59, Type (0, 0), BuildingBlock: KIFKEQ_clean_linker_1, # of connection points: 2
#     Edge 60, Type (0, 0), BuildingBlock: KIFKEQ_clean_linker_1, # of connection points: 2
#     Edge 61, Type (0, 0), BuildingBlock: KIFKEQ_clean_linker_1, # of connection points: 2
#     Edge 62, Type (0, 0), BuildingBlock: KIFKEQ_clean_linker_1, # of connection points: 2
#     Edge 63, Type (0, 0), BuildingBlock: KIFKEQ_clean_linker_1, # of connection points: 2
#     Edge 64, Type (0, 0), BuildingBlock: KIFKEQ_clean_linker_1, # of connection points: 2
#     Edge 65, Type (0, 0), BuildingBlock: KIFKEQ_clean_linker_1, # of connection points: 2
#     Edge 66, Type (0, 0), BuildingBlock: KIFKEQ_clean_linker_1, # of connection points: 2
#     Edge 67, Type (0, 0), BuildingBlock: KIFKEQ_clean_linker_1, # of connection points: 2
#     Edge 68, Type (0, 0), BuildingBlock: KIFKEQ_clean_linker_1, # of connection points: 2
#     Edge 69, Type (0, 0), BuildingBlock: KIFKEQ_clean_linker_1, # of connection points: 2
#     Edge 70, Type (0, 0), BuildingBlock: KIFKEQ_clean_linker_1, # of connection points: 2
#     Edge 71, Type (0, 0), BuildingBlock: KIFKEQ_clean_linker_1, # of connection points: 2
#     Edge 72, Type (0, 0), BuildingBlock: KIFKEQ_clean_linker_1, # of connection points: 2
#     Edge 73, Type (0, 0), BuildingBlock: KIFKEQ_clean_linker_1, # of connection points: 2
#     Edge 74, Type (0, 0), BuildingBlock: KIFKEQ_clean_linker_1, # of connection points: 2
#     Edge 75, Type (0, 0), BuildingBlock: KIFKEQ_clean_linker_1, # of connection points: 2
#     Edge 76, Type (0, 0), BuildingBlock: KIFKEQ_clean_linker_1, # of connection points: 2
#     Edge 77, Type (0, 0), BuildingBlock: KIFKEQ_clean_linker_1, # of connection points: 2
#     Edge 78, Type (0, 0), BuildingBlock: KIFKEQ_clean_linker_1, # of connection points: 2
#     Edge 79, Type (0, 0), BuildingBlock: KIFKEQ_clean_linker_1, # of connection points: 2
#     Edge 80, Type (0, 0), BuildingBlock: KIFKEQ_clean_linker_1, # of connection points: 2
#     Edge 81, Type (0, 0), BuildingBlock: KIFKEQ_clean_linker_1, # of connection points: 2
#     Edge 82, Type (0, 0), BuildingBlock: KIFKEQ_clean_linker_1, # of connection points: 2
#     Edge 83, Type (0, 0), BuildingBlock: KIFKEQ_clean_linker_1, # of connection points: 2
#     Edge 84, Type (0, 0), BuildingBlock: KIFKEQ_clean_linker_1, # of connection points: 2
#     Edge 85, Type (0, 0), BuildingBlock: KIFKEQ_clean_linker_1, # of connection points: 2
#     Edge 86, Type (0, 0), BuildingBlock: KIFKEQ_clean_linker_1, # of connection points: 2
#     Edge 87, Type (0, 0), BuildingBlock: KIFKEQ_clean_linker_1, # of connection points: 2
#     Edge 88, Type (0, 0), BuildingBlock: KIFKEQ_clean_linker_1, # of connection points: 2
#     Edge 89, Type (0, 0), BuildingBlock: KIFKEQ_clean_linker_1, # of connection points: 2
#     Edge 90, Type (0, 0), BuildingBlock: KIFKEQ_clean_linker_1, # of connection points: 2
#     Edge 91, Type (0, 0), BuildingBlock: KIFKEQ_clean_linker_1, # of connection points: 2
#     Edge 92, Type (0, 0), BuildingBlock: KIFKEQ_clean_linker_1, # of connection points: 2
#     Edge 93, Type (0, 0), BuildingBlock: KIFKEQ_clean_linker_1, # of connection points: 2
#     Edge 94, Type (0, 0), BuildingBlock: KIFKEQ_clean_linker_1, # of connection points: 2
#     Edge 95, Type (0, 0), BuildingBlock: KIFKEQ_clean_linker_1, # of connection points: 2
#     Edge 96, Type (0, 0), BuildingBlock: KIFKEQ_clean_linker_1, # of connection points: 2
#     Edge 97, Type (0, 0), BuildingBlock: KIFKEQ_clean_linker_1, # of connection points: 2
#     Edge 98, Type (0, 0), BuildingBlock: KIFKEQ_clean_linker_1, # of connection points: 2
#     Edge 99, Type (0, 0), BuildingBlock: KIFKEQ_clean_linker_1, # of connection points: 2
#     Edge 100, Type (0, 0), BuildingBlock: KIFKEQ_clean_linker_1, # of connection points: 2
#     Edge 101, Type (0, 0), BuildingBlock: KIFKEQ_clean_linker_1, # of connection points: 2
#     Edge 102, Type (0, 0), BuildingBlock: KIFKEQ_clean_linker_1, # of connection points: 2
#     Edge 103, Type (0, 0), BuildingBlock: KIFKEQ_clean_linker_1, # of connection points: 2
#     Edge 104, Type (0, 0), BuildingBlock: KIFKEQ_clean_linker_1, # of connection points: 2
#     Edge 105, Type (0, 0), BuildingBlock: KIFKEQ_clean_linker_1, # of connection points: 2
#     Edge 106, Type (0, 0), BuildingBlock: KIFKEQ_clean_linker_1, # of connection points: 2
#     Edge 107, Type (0, 0), BuildingBlock: KIFKEQ_clean_linker_1, # of connection points: 2
#     Edge 108, Type (0, 0), BuildingBlock: KIFKEQ_clean_linker_1, # of connection points: 2
#     Edge 109, Type (0, 0), BuildingBlock: KIFKEQ_clean_linker_1, # of connection points: 2
#     Edge 110, Type (0, 0), BuildingBlock: KIFKEQ_clean_linker_1, # of connection points: 2
#     Edge 111, Type (0, 0), BuildingBlock: KIFKEQ_clean_linker_1, # of connection points: 2
#     Edge 112, Type (0, 0), BuildingBlock: KIFKEQ_clean_linker_1, # of connection points: 2
#     Edge 113, Type (0, 0), BuildingBlock: KIFKEQ_clean_linker_1, # of connection points: 2
#     Edge 114, Type (0, 0), BuildingBlock: KIFKEQ_clean_linker_1, # of connection points: 2
#     Edge 115, Type (0, 0), BuildingBlock: KIFKEQ_clean_linker_1, # of connection points: 2
#     Edge 116, Type (0, 0), BuildingBlock: KIFKEQ_clean_linker_1, # of connection points: 2
#     Edge 117, Type (0, 0), BuildingBlock: KIFKEQ_clean_linker_1, # of connection points: 2
#     Edge 118, Type (0, 0), BuildingBlock: KIFKEQ_clean_linker_1, # of connection points: 2
#     Edge 119, Type (0, 0), BuildingBlock: KIFKEQ_clean_linker_1, # of connection points: 2
#     Edge 120, Type (0, 0), BuildingBlock: KIFKEQ_clean_linker_1, # of connection points: 2
#     Edge 121, Type (0, 0), BuildingBlock: KIFKEQ_clean_linker_1, # of connection points: 2
#     Edge 122, Type (0, 0), BuildingBlock: KIFKEQ_clean_linker_1, # of connection points: 2
#     Edge 123, Type (0, 0), BuildingBlock: KIFKEQ_clean_linker_1, # of connection points: 2
#     Edge 124, Type (0, 0), BuildingBlock: KIFKEQ_clean_linker_1, # of connection points: 2
#     Edge 125, Type (0, 0), BuildingBlock: KIFKEQ_clean_linker_1, # of connection points: 2
#     Edge 126, Type (0, 0), BuildingBlock: KIFKEQ_clean_linker_1, # of connection points: 2
#     Edge 127, Type (0, 0), BuildingBlock: KIFKEQ_clean_linker_1, # of connection points: 2
#     Edge 128, Type (0, 0), BuildingBlock: KIFKEQ_clean_linker_1, # of connection points: 2
#     Edge 129, Type (0, 0), BuildingBlock: KIFKEQ_clean_linker_1, # of connection points: 2
#     Edge 130, Type (0, 0), BuildingBlock: KIFKEQ_clean_linker_1, # of connection points: 2
#     Edge 131, Type (0, 0), BuildingBlock: KIFKEQ_clean_linker_1, # of connection points: 2
#     Edge 132, Type (0, 0), BuildingBlock: KIFKEQ_clean_linker_1, # of connection points: 2
#     Edge 133, Type (0, 0), BuildingBlock: KIFKEQ_clean_linker_1, # of connection points: 2
#     Edge 134, Type (0, 0), BuildingBlock: KIFKEQ_clean_linker_1, # of connection points: 2
#     Edge 135, Type (0, 0), BuildingBlock: KIFKEQ_clean_linker_1, # of connection points: 2
#     Edge 136, Type (0, 0), BuildingBlock: KIFKEQ_clean_linker_1, # of connection points: 2
#     Edge 137, Type (0, 0), BuildingBlock: KIFKEQ_clean_linker_1, # of connection points: 2
#     Edge 138, Type (0, 0), BuildingBlock: KIFKEQ_clean_linker_1, # of connection points: 2
#     Edge 139, Type (0, 0), BuildingBlock: KIFKEQ_clean_linker_1, # of connection points: 2
#     Edge 140, Type (0, 0), BuildingBlock: KIFKEQ_clean_linker_1, # of connection points: 2
#     Edge 141, Type (0, 0), BuildingBlock: KIFKEQ_clean_linker_1, # of connection points: 2
#     Edge 142, Type (0, 0), BuildingBlock: KIFKEQ_clean_linker_1, # of connection points: 2
#     Edge 143, Type (0, 0), BuildingBlock: KIFKEQ_clean_linker_1, # of connection points: 2
# Relax obj value: 0.100
# Max RMSD: 0.198
# Mean RMSD: 0.198
data_MOF--net-wnd--node1-BETDIP_clean_sbu_0--edge1-KIFKEQ_clean_linker_1
_symmetry_space_group_name_H-M    P1
_symmetry_Int_Tables_number       1
_symmetry_cell_setting            triclinic
loop_
_symmetry_equiv_pos_as_xyz
'x, y, z'
_cell_length_a     40.424029
_cell_length_b     40.554082
_cell_length_c     155.12812
_cell_angle_alpha  89.999893
_cell_angle_beta   89.992274
_cell_angle_gamma 120.0092
loop_
_atom_site_label
_atom_site_type_symbol
_atom_site_fract_x
_atom_site_fract_y
_atom_site_fract_z
_atom_type_partial_charge
Tb0 Tb 0.48474 0.07103 0.06443 0.0
Tb1 Tb 0.5251 0.02508 0.06882 0.0
C2 C 0.46184 0.11723 0.06714 0.0
C3 C 0.47991 0.15892 0.0659 0.0
C4 C 0.51725 0.18366 0.06887 0.0
C5 C 0.53339 0.22309 0.06817 0.0
C6 C 0.51279 0.2389 0.06442 0.0
C7 C 0.4759 0.21402 0.06118 0.0
C8 C 0.45961 0.17446 0.06194 0.0
C9 C 0.50867 0.05539 0.04996 0.0
C10 C 0.5764 0.11089 0.06485 0.0
C11 C 0.55136 0.98083 0.07099 0.0
C12 C 0.55084 0.94506 0.0686 0.0
C13 C 0.57327 0.94438 0.06173 0.0
C14 C 0.57868 0.91312 0.06054 0.0
C15 C 0.56198 0.88181 0.0662 0.0
C16 C 0.53846 0.88199 0.07287 0.0
C17 C 0.53308 0.91322 0.07407 0.0
C18 C 0.50617 0.05605 0.08171 0.0
C19 C 0.43722 0.98165 0.06354 0.0
O20 O 0.47761 0.10645 0.07304 0.0
O21 O 0.45267 0.09601 0.06019 0.0
O22 O 0.51269 0.04658 0.05756 0.0
O23 O 0.48974 0.07338 0.05039 0.0
O24 O 0.54597 0.11504 0.06583 0.0
O25 O 0.574 0.0773 0.06481 0.0
O26 O 0.56529 1.00902 0.06545 0.0
O27 O 0.52265 0.97859 0.07541 0.0
O28 O 0.48746 0.03994 0.07508 0.0
O29 O 0.53787 0.05546 0.08141 0.0
O30 O 0.4702 0.98184 0.06357 0.0
O31 O 0.43521 1.01313 0.0648 0.0
H32 H 0.53383 0.17266 0.07193 0.0
H33 H 0.56157 0.24115 0.07084 0.0
H34 H 0.45939 0.22508 0.05811 0.0
H35 H 0.43094 0.15602 0.05954 0.0
H36 H 0.58785 0.9686 0.05746 0.0
H37 H 0.5965 0.91379 0.05525 0.0
H38 H 0.52549 0.85869 0.07743 0.0
H39 H 0.51633 0.9131 0.07953 0.0
Tb40 Tb 1.0238 0.44351 0.06495 0.0
Tb41 Tb 0.07028 0.53084 0.06845 0.0
C42 C 0.97938 0.37487 0.06863 0.0
C43 C 0.93846 0.34832 0.06712 0.0
C44 C 0.91971 0.31449 0.07188 0.0
C45 C 0.88009 0.29092 0.07125 0.0
C46 C 0.8583 0.30076 0.06586 0.0
C47 C 0.87735 0.33472 0.06106 0.0
C48 C 0.91705 0.35831 0.06169 0.0
C49 C 0.03602 0.48013 0.05017 0.0
C50 C 0.98304 0.49446 0.06544 0.0
C51 C 0.11401 0.60181 0.06985 0.0
C52 C 0.15048 0.63719 0.06785 0.0
C53 C 0.15749 0.65485 0.05972 0.0
C54 C 0.18846 0.69184 0.0585 0.0
C55 C 0.21285 0.71218 0.0654 0.0
C56 C 0.20661 0.69379 0.07342 0.0
C57 C 0.17585 0.65688 0.07463 0.0
C58 C 0.04191 0.48309 0.08178 0.0
C59 C 0.1139 0.48614 0.06378 0.0
O60 O 0.98623 0.40325 0.07375 0.0
O61 O 1.00211 0.38577 0.06188 0.0
O62 O 0.0467 0.4944 0.0576 0.0
O63 O 1.01749 0.44336 0.05097 0.0
O64 O 0.97951 0.46024 0.06646 0.0
O65 O 1.01652 0.52595 0.06511 0.0
O66 O 0.08819 0.58581 0.06378 0.0
O67 O 0.11458 0.5769 0.07515 0.0
O68 O 0.05698 0.47974 0.07507 0.0
O69 O 0.04174 0.51491 0.08131 0.0
O70 O 0.11374 0.5188 0.06355 0.0
O71 O 0.08232 0.45281 0.06524 0.0
H72 H 0.93563 0.30673 0.07624 0.0
H73 H 0.86642 0.2654 0.07516 0.0
H74 H 0.86161 0.34303 0.05678 0.0
H75 H 0.93098 0.38468 0.05807 0.0
H76 H 0.13824 0.64076 0.05438 0.0
H77 H 0.19225 0.70512 0.05224 0.0
H78 H 0.22515 0.70823 0.07884 0.0
H79 H 0.17098 0.64432 0.081 0.0
Tb80 Tb 0.64784 0.60935 0.06516 0.0
Tb81 Tb 0.56576 0.57044 0.06996 0.0
C82 C 0.71804 0.63085 0.06557 0.0
C83 C 0.74039 0.61101 0.06529 0.0
C84 C 0.72811 0.57631 0.06962 0.0
C85 C 0.74962 0.55793 0.06923 0.0
C86 C 0.78383 0.57375 0.06447 0.0
C87 C 0.79595 0.60851 0.06015 0.0
C88 C 0.77447 0.62687 0.06055 0.0
C89 C 0.60331 0.59211 0.05165 0.0
C90 C 0.60031 0.5182 0.06832 0.0
C91 C 0.49452 0.54249 0.07177 0.0
C92 C 0.45915 0.54379 0.06983 0.0
C93 C 0.44242 0.53514 0.06157 0.0
C94 C 0.40547 0.52931 0.06028 0.0
C95 C 0.38421 0.53165 0.06722 0.0
C96 C 0.4017 0.54183 0.07538 0.0
C97 C 0.43857 0.54771 0.07666 0.0
C98 C 0.61613 0.59253 0.08285 0.0
C99 C 0.60795 0.65789 0.06518 0.0
O100 O 0.69717 0.62523 0.07246 0.0
O101 O 0.69989 0.62984 0.05851 0.0
O102 O 0.59598 0.57125 0.05833 0.0
O103 O 0.63666 0.6224 0.05245 0.0
O104 O 0.63373 0.54929 0.06687 0.0
O105 O 0.56864 0.51935 0.0692 0.0
O106 O 0.51026 0.53302 0.06559 0.0
O107 O 0.51987 0.56788 0.07701 0.0
O108 O 0.61784 0.61019 0.07612 0.0
O109 O 0.58413 0.56061 0.08278 0.0
O110 O 0.57576 0.6248 0.06484 0.0
O111 O 0.64119 0.6596 0.0666 0.0
H112 H 0.70189 0.56334 0.07333 0.0
H113 H 0.73921 0.53109 0.07258 0.0
H114 H 0.82244 0.6219 0.05654 0.0
H115 H 0.78456 0.65361 0.05717 0.0
H116 H 0.45719 0.53138 0.05617 0.0
H117 H 0.39296 0.52132 0.05391 0.0
H118 H 0.3866 0.54463 0.08084 0.0
H119 H 0.45043 0.55388 0.08311 0.0
Tb120 Tb 0.09075 0.48116 0.47666 0.0
Tb121 Tb 0.04476 0.5221 0.47279 0.0
C122 C 0.13474 0.45583 0.47345 0.0
C123 C 0.17562 0.47068 0.47516 0.0
C124 C 0.19454 0.45372 0.4712 0.0
C125 C 0.2342 0.4702 0.47196 0.0
C126 C 0.25578 0.50415 0.47665 0.0
C127 C 0.23654 0.52085 0.48068 0.0
C128 C 0.19683 0.50424 0.47995 0.0
C129 C 0.07958 0.50743 0.49131 0.0
C130 C 0.13264 0.57258 0.47456 0.0
C131 C 1.0021 0.55064 0.47142 0.0
C132 C 0.96829 0.55322 0.47412 0.0
C133 C 0.97274 0.58959 0.47518 0.0
C134 C 0.94112 0.59423 0.47657 0.0
C135 C 0.90398 0.56253 0.47697 0.0
C136 C 0.89969 0.52587 0.47619 0.0
C137 C 0.93149 0.52126 0.47474 0.0
C138 C 0.07107 0.49963 0.45956 0.0
C139 C 1.00079 0.435 0.47815 0.0
O140 O 0.12798 0.47661 0.46806 0.0
O141 O 0.11174 0.4449 0.48015 0.0
O142 O 0.06901 0.51101 0.48385 0.0
O143 O 0.09728 0.48832 0.49057 0.0
O144 O 0.13556 0.54133 0.47449 0.0
O145 O 0.09955 0.57141 0.47495 0.0
O146 O 1.03138 0.56375 0.47667 0.0
O147 O 0.99712 0.52085 0.46702 0.0
O148 O 0.05699 0.48279 0.46649 0.0
O149 O 0.07051 0.53127 0.45966 0.0
O150 O 1.0018 0.46822 0.47842 0.0
O151 O 1.0319 0.43251 0.47653 0.0
H152 H 0.17875 0.42822 0.46734 0.0
H153 H 0.24808 0.45684 0.46867 0.0
H154 H 0.25214 0.54672 0.48442 0.0
H155 H 0.18275 0.51802 0.48297 0.0
H156 H 1.00076 0.61473 0.47461 0.0
H157 H 0.94581 0.62291 0.47699 0.0
H158 H 0.87169 0.50068 0.47659 0.0
H159 H 0.92719 0.49284 0.47393 0.0
Tb160 Tb 0.629 0.64608 0.47753 0.0
Tb161 Tb 0.58479 0.55894 0.47334 0.0
C162 C 0.65346 0.71539 0.47455 0.0
C163 C 0.63419 0.73848 0.47436 0.0
C164 C 0.61013 0.73511 0.46743 0.0
C165 C 0.59164 0.75641 0.46725 0.0
C166 C 0.59676 0.78188 0.47395 0.0
C167 C 0.62068 0.78519 0.4809 0.0
C168 C 0.63926 0.7638 0.48108 0.0
C169 C 0.60562 0.60681 0.49204 0.0
C170 C 0.53712 0.59737 0.47742 0.0
C171 C 0.55578 0.48786 0.47159 0.0
C172 C 0.55685 0.45261 0.47374 0.0
C173 C 0.53457 0.42895 0.48054 0.0
C174 C 0.52969 0.39242 0.48161 0.0
C175 C 0.54676 0.37843 0.47587 0.0
C176 C 0.57005 0.40264 0.46923 0.0
C177 C 0.57491 0.43913 0.46817 0.0
C178 C 0.60333 0.60841 0.46041 0.0
C179 C 0.67404 0.60131 0.47797 0.0
O180 O 0.64309 0.68946 0.46856 0.0
O181 O 0.65725 0.70279 0.48207 0.0
O182 O 0.60025 0.59407 0.48442 0.0
O183 O 0.62606 0.64364 0.49161 0.0
O184 O 0.56829 0.63112 0.47618 0.0
O185 O 0.5379 0.56531 0.4776 0.0
O186 O 0.54566 0.50375 0.47761 0.0
O187 O 0.58204 0.51302 0.46645 0.0
O188 O 0.62268 0.61061 0.4669 0.0
O189 O 0.57115 0.57666 0.46086 0.0
O190 O 0.6405 0.56917 0.47774 0.0
O191 O 0.6773 0.63562 0.47722 0.0
H192 H 0.60541 0.71594 0.46211 0.0
H193 H 0.57312 0.75274 0.46185 0.0
H194 H 0.62572 0.80492 0.48611 0.0
H195 H 0.6577 0.76718 0.48648 0.0
H196 H 0.51971 0.43807 0.48488 0.0
H197 H 0.51204 0.37493 0.48687 0.0
H198 H 0.58331 0.39284 0.46461 0.0
H199 H 0.59159 0.45616 0.46274 0.0
Tb200 Tb 0.46763 0.02186 0.47695 0.0
Tb201 Tb 0.5494 0.06621 0.47193 0.0
C202 C 0.39783 0.97216 0.47706 0.0
C203 C 0.37654 0.92996 0.47644 0.0
C204 C 0.38036 0.91095 0.46925 0.0
C205 C 0.35975 0.87111 0.46877 0.0
C206 C 0.33504 0.84929 0.47548 0.0
C207 C 0.33174 0.86836 0.48272 0.0
C208 C 0.35214 0.9082 0.48318 0.0
C209 C 0.51288 0.05035 0.49032 0.0
C210 C 0.51629 0.9797 0.47326 0.0
C211 C 0.62051 0.11039 0.47005 0.0
C212 C 0.65552 0.14679 0.47239 0.0
C213 C 0.67704 0.14905 0.47974 0.0
C214 C 0.71359 0.18054 0.48106 0.0
C215 C 0.72977 0.21064 0.47507 0.0
C216 C 0.70764 0.20897 0.46789 0.0
C217 C 0.67113 0.17742 0.46655 0.0
C218 C 0.49833 0.03688 0.45917 0.0
C219 C 0.50599 0.11019 0.47695 0.0
O220 O 0.41614 0.99111 0.47017 0.0
O221 O 0.41794 0.98658 0.48407 0.0
O222 O 0.52015 0.03678 0.48364 0.0
O223 O 0.47933 0.04693 0.48958 0.0
O224 O 0.48232 0.97675 0.47434 0.0
O225 O 0.54776 1.01289 0.4729 0.0
O226 O 0.6053 0.08361 0.4759 0.0
O227 O 0.59464 0.11125 0.46511 0.0
O228 O 0.49664 0.05265 0.46593 0.0
O229 O 0.53088 0.03795 0.4591 0.0
O230 O 0.53857 0.10989 0.47719 0.0
O231 O 0.47295 0.0783 0.47566 0.0
H232 H 0.39917 0.92678 0.46396 0.0
H233 H 0.36325 0.85737 0.46313 0.0
H234 H 0.3126 0.85253 0.48795 0.0
H235 H 0.34866 0.92208 0.48879 0.0
H236 H 0.66629 0.12583 0.48433 0.0
H237 H 0.72943 0.181 0.48673 0.0
H238 H 0.71917 0.23131 0.46308 0.0
H239 H 0.65579 0.17632 0.46073 0.0
Tb240 Tb 0.58571 0.05799 0.9735 0.0
Tb241 Tb 0.62808 1.01291 0.97691 0.0
C242 C 0.55811 0.1015 0.97217 0.0
C243 C 0.56049 0.13843 0.97429 0.0
C244 C 0.54064 0.14149 0.98142 0.0
C245 C 0.5366 0.17365 0.98249 0.0
C246 C 0.55209 0.20353 0.97643 0.0
C247 C 0.57306 0.20096 0.96947 0.0
C248 C 0.5771 0.16885 0.96841 0.0
C249 C 0.60456 0.02961 0.9601 0.0
C250 C 0.67445 0.10247 0.97811 0.0
C251 C 0.65215 0.96841 0.9732 0.0
C252 C 0.63659 0.92735 0.97466 0.0
C253 C 0.64303 0.90593 0.96849 0.0
C254 C 0.62433 0.8662 0.96909 0.0
C255 C 0.59873 0.84705 0.97589 0.0
C256 C 0.59281 0.86872 0.98215 0.0
C257 C 0.61136 0.90848 0.98151 0.0
C258 C 0.60314 0.02436 0.99173 0.0
C259 C 0.53613 0.97129 0.97667 0.0
O260 O 0.5485 0.07584 0.97825 0.0
O261 O 0.58308 0.10152 0.96677 0.0
O262 O 0.62372 0.04514 0.96672 0.0
O263 O 0.57224 0.02887 0.96076 0.0
O264 O 0.64124 0.10176 0.97833 0.0
O265 O 0.67689 0.07135 0.97664 0.0
O266 O 0.63139 0.97606 0.96801 0.0
O267 O 0.66403 0.99095 0.97998 0.0
O268 O 0.59939 0.03495 0.98431 0.0
O269 O 0.62219 1.00659 0.99091 0.0
O270 O 0.56713 0.96829 0.97547 0.0
O271 O 0.53748 1.00438 0.97709 0.0
H272 H 0.52695 0.11839 0.98601 0.0
H273 H 0.52076 0.17479 0.988 0.0
H274 H 0.585 0.22303 0.9646 0.0
H275 H 0.59186 0.16718 0.96274 0.0
H276 H 0.66185 0.9199 0.96307 0.0
H277 H 0.62992 0.85045 0.96423 0.0
H278 H 0.57303 0.85487 0.98742 0.0
H279 H 0.60521 0.92439 0.98623 0.0
Tb280 Tb 0.04482 0.55211 0.97273 0.0
Tb281 Tb 0.09096 0.63941 0.97652 0.0
C282 C 1.00112 0.48099 0.97171 0.0
C283 C 0.96472 0.44622 0.97414 0.0
C284 C 0.96372 0.42323 0.98104 0.0
C285 C 0.93201 0.38682 0.98232 0.0
C286 C 0.90048 0.37226 0.97669 0.0
C287 C 0.90096 0.39587 0.96997 0.0
C288 C 0.93266 0.43225 0.96869 0.0
C289 C 0.07081 0.60048 0.95949 0.0
C290 C 1.00096 0.59641 0.97776 0.0
C291 C 0.13549 0.70822 0.97309 0.0
C292 C 0.1766 0.73384 0.97463 0.0
C293 C 0.19773 0.76383 0.96888 0.0
C294 C 0.23755 0.78544 0.96956 0.0
C295 C 0.25706 0.77745 0.976 0.0
C296 C 0.23566 0.74769 0.98185 0.0
C297 C 0.19582 0.72592 0.98113 0.0
C298 C 0.07956 0.60178 0.99114 0.0
C299 C 0.13287 0.58954 0.97444 0.0
O300 O 1.02791 0.49758 0.97757 0.0
O301 O 0.99997 0.50544 0.96636 0.0
O302 O 0.05697 0.60358 0.96643 0.0
O303 O 0.07037 0.56831 0.95959 0.0
O304 O 1.0014 0.56387 0.97784 0.0
O305 O 1.03239 0.62994 0.97638 0.0
O306 O 0.12803 0.68033 0.96776 0.0
O307 O 0.11281 0.69688 0.97985 0.0
O308 O 0.0693 0.58801 0.98365 0.0
O309 O 0.097 0.63859 0.99048 0.0
O310 O 0.13572 0.62369 0.97457 0.0
O311 O 0.09985 0.55751 0.97459 0.0
H312 H 0.98809 0.43274 0.98529 0.0
H313 H 0.93252 0.36981 0.98764 0.0
H314 H 0.87754 0.38564 0.96542 0.0
H315 H 0.93267 0.44873 0.9632 0.0
H316 H 0.18349 0.76996 0.96374 0.0
H317 H 0.25308 0.80843 0.96502 0.0
H318 H 0.2498 0.74054 0.98682 0.0
H319 H 0.18013 0.7023 0.98551 0.0
Tb320 Tb 0.55148 0.51879 0.97248 0.0
Tb321 Tb 0.46998 0.47852 0.97795 0.0
C322 C 0.62253 0.54717 0.97 0.0
C323 C 0.65772 0.54574 0.97217 0.0
C324 C 0.67941 0.56437 0.97953 0.0
C325 C 0.71582 0.5689 0.98078 0.0
C326 C 0.73169 0.55506 0.97468 0.0
C327 C 0.70945 0.53533 0.96745 0.0
C328 C 0.67307 0.5309 0.9662 0.0
C329 C 0.49939 0.49883 0.96003 0.0
C330 C 0.51085 0.43101 0.97714 0.0
C331 C 0.39979 0.4567 0.97852 0.0
C332 C 0.37769 0.47673 0.97776 0.0
C333 C 0.38433 0.5025 0.97101 0.0
C334 C 0.36321 0.52124 0.97044 0.0
C335 C 0.33525 0.51496 0.97664 0.0
C336 C 0.32911 0.4896 0.98346 0.0
C337 C 0.35001 0.47064 0.98399 0.0
C338 C 0.51766 0.49566 0.99096 0.0
C339 C 0.51663 0.56987 0.97567 0.0
O340 O 0.60765 0.55845 0.976 0.0
O341 O 0.59631 0.52029 0.96518 0.0
O342 O 0.49844 0.47998 0.96649 0.0
O343 O 0.5315 0.53067 0.96012 0.0
O344 O 0.54287 0.46437 0.97728 0.0
O345 O 0.47708 0.42875 0.97624 0.0
O346 O 0.41727 0.45501 0.97156 0.0
O347 O 0.42117 0.4645 0.98539 0.0
O348 O 0.52255 0.51621 0.98439 0.0
O349 O 0.48447 0.46498 0.99042 0.0
O350 O 0.48285 0.53811 0.97574 0.0
O351 O 0.5486 0.56896 0.9753 0.0
H352 H 0.66885 0.57666 0.98423 0.0
H353 H 0.73177 0.58373 0.98648 0.0
H354 H 0.72077 0.52462 0.96256 0.0
H355 H 0.65757 0.51711 0.96037 0.0
H356 H 0.40582 0.50821 0.96615 0.0
H357 H 0.36893 0.54085 0.96515 0.0
H358 H 0.3075 0.48374 0.98829 0.0
H359 H 0.34446 0.45105 0.98927 0.0
Tb360 Tb 0.07079 0.56884 0.56901 0.0
Tb361 Tb 1.02389 0.60907 0.56522 0.0
C362 C 0.11439 0.54122 0.57005 0.0
C363 C 0.15017 0.54201 0.56739 0.0
C364 C 0.1496 0.51848 0.56065 0.0
C365 C 0.18084 0.51311 0.55922 0.0
C366 C 0.21344 0.53096 0.56452 0.0
C367 C 0.21453 0.55563 0.57104 0.0
C368 C 0.18329 0.56096 0.57248 0.0
C369 C 0.04478 0.59125 0.58227 0.0
C370 C 0.11409 0.65625 0.5637 0.0
C371 C 0.98038 0.6347 0.56868 0.0
C372 C 0.93946 0.62049 0.56725 0.0
C373 C 0.92101 0.63593 0.572 0.0
C374 C 0.88136 0.61992 0.57149 0.0
C375 C 0.85931 0.58801 0.56621 0.0
C376 C 0.87807 0.57275 0.5614 0.0
C377 C 0.91779 0.58881 0.56193 0.0
C378 C 0.03394 0.58159 0.55064 0.0
C379 C 0.9827 0.51765 0.5675 0.0
O380 O 0.08657 0.52998 0.56442 0.0
O381 O 0.11668 0.56804 0.57517 0.0
O382 O 0.05838 0.60804 0.5753 0.0
O383 O 0.04548 0.55965 0.58217 0.0
O384 O 0.1138 0.62337 0.56364 0.0
O385 O 0.08255 0.65821 0.56512 0.0
O386 O 0.98729 0.61376 0.57398 0.0
O387 O 1.00262 0.64521 0.56185 0.0
O388 O 0.04559 0.57929 0.55807 0.0
O389 O 1.01563 0.60012 0.55134 0.0
O390 O 0.97943 0.54875 0.56751 0.0
O391 O 1.01597 0.51915 0.56711 0.0
H392 H 0.12439 0.50295 0.55668 0.0
H393 H 0.17913 0.49438 0.55405 0.0
H394 H 0.23887 0.56954 0.57533 0.0
H395 H 0.18449 0.57865 0.57784 0.0
H396 H 0.93717 0.65983 0.57629 0.0
H397 H 0.86788 0.63203 0.57539 0.0
H398 H 0.8621 0.54847 0.55722 0.0
H399 H 0.93152 0.57608 0.55832 0.0
Tb400 Tb 0.52527 0.53039 0.5686 0.0
Tb401 Tb 0.48582 0.44371 0.56489 0.0
C402 C 0.55061 0.60094 0.57034 0.0
C403 C 0.54961 0.63592 0.56789 0.0
C404 C 0.57186 0.65895 0.561 0.0
C405 C 0.57697 0.6955 0.55977 0.0
C406 C 0.56016 0.71011 0.56542 0.0
C407 C 0.53679 0.68645 0.57211 0.0
C408 C 0.5317 0.64996 0.57334 0.0
C409 C 0.50591 0.48235 0.58188 0.0
C410 C 0.43788 0.48506 0.56318 0.0
C411 C 0.46305 0.37537 0.56848 0.0
C412 C 0.47921 0.35031 0.56704 0.0
C413 C 0.47461 0.32382 0.57341 0.0
C414 C 0.49372 0.30316 0.57277 0.0
C415 C 0.51787 0.30856 0.56572 0.0
C416 C 0.52197 0.33475 0.55927 0.0
C417 C 0.50304 0.35566 0.55995 0.0
C418 C 0.51088 0.4808 0.55018 0.0
C419 C 0.57742 0.49608 0.56538 0.0
O420 O 0.56442 0.58638 0.56483 0.0
O421 O 0.52246 0.57478 0.57493 0.0
O422 O 0.48753 0.47881 0.57514 0.0
O423 O 0.53775 0.51439 0.58145 0.0
O424 O 0.47073 0.51777 0.56299 0.0
O425 O 0.43605 0.45197 0.56489 0.0
O426 O 0.48326 0.40368 0.57373 0.0
O427 O 0.45102 0.38588 0.5617 0.0
O428 O 0.51383 0.49493 0.55761 0.0
O429 O 0.49273 0.444 0.55094 0.0
O430 O 0.54718 0.46156 0.56647 0.0
O431 O 0.57472 0.52709 0.56505 0.0
H432 H 0.58657 0.64936 0.55674 0.0
H433 H 0.59467 0.71256 0.55446 0.0
H434 H 0.52374 0.69672 0.57667 0.0
H435 H 0.51507 0.63342 0.57882 0.0
H436 H 0.45688 0.31976 0.579 0.0
H437 H 0.48952 0.28287 0.57779 0.0
H438 H 0.54058 0.3398 0.5538 0.0
H439 H 0.50777 0.37663 0.55506 0.0
Tb440 Tb 0.56483 0.02666 0.56931 0.0
Tb441 Tb 0.64674 0.06869 0.56393 0.0
C442 C 0.49373 0.98362 0.57166 0.0
C443 C 0.45837 0.94721 0.56946 0.0
C444 C 0.43634 0.94478 0.5622 0.0
C445 C 0.39977 0.91317 0.56096 0.0
C446 C 0.38404 0.88307 0.56695 0.0
C447 C 0.40661 0.88496 0.57407 0.0
C448 C 0.44315 0.91664 0.57532 0.0
C449 C 0.61686 0.05753 0.58182 0.0
C450 C 0.60607 0.98031 0.56441 0.0
C451 C 0.71707 0.11703 0.56374 0.0
C452 C 0.73957 0.15911 0.56427 0.0
C453 C 0.77491 0.17652 0.56851 0.0
C454 C 0.79631 0.2162 0.56931 0.0
C455 C 0.78283 0.2395 0.5659 0.0
C456 C 0.74735 0.22194 0.56162 0.0
C457 C 0.72587 0.18215 0.56084 0.0
C458 C 0.59948 0.03914 0.55085 0.0
C459 C 0.59916 0.11273 0.56632 0.0
O460 O 0.50863 1.01005 0.56574 0.0
O461 O 0.51993 0.98271 0.57646 0.0
O462 O 0.61785 0.04035 0.57523 0.0
O463 O 0.58474 0.05735 0.58183 0.0
O464 O 0.57397 0.98159 0.56423 0.0
O465 O 0.63972 1.01172 0.56549 0.0
O466 O 0.69838 0.09952 0.57071 0.0
O467 O 0.69661 0.10241 0.55677 0.0
O468 O 0.59418 0.05408 0.55751 0.0
O469 O 0.63292 0.04207 0.55132 0.0
O470 O 0.63308 0.11498 0.56602 0.0
O471 O 0.56737 0.07981 0.56685 0.0
H472 H 0.44675 0.96793 0.55759 0.0
H473 H 0.38362 0.91257 0.55533 0.0
H474 H 0.39545 0.86265 0.57889 0.0
H475 H 0.45887 0.91785 0.58108 0.0
H476 H 0.786 0.15937 0.57123 0.0
H477 H 0.82373 0.22865 0.57253 0.0
H478 H 0.73589 0.23889 0.55899 0.0
H479 H 0.69851 0.16943 0.5576 0.0
Tb480 Tb 0.15367 0.40802 0.3986 0.0
Tb481 Tb 0.19486 0.36164 0.40206 0.0
C482 C 0.13018 0.45304 0.40239 0.0
C483 C 0.14466 0.49399 0.40099 0.0
C484 C 0.12899 0.51234 0.4057 0.0
C485 C 0.14498 0.55188 0.4052 0.0
C486 C 0.17717 0.57405 0.39998 0.0
C487 C 0.19271 0.55541 0.39522 0.0
C488 C 0.17663 0.51576 0.39573 0.0
C489 C 0.17693 0.39477 0.38378 0.0
C490 C 0.24558 0.44805 0.3986 0.0
C491 C 0.22171 0.3175 0.40358 0.0
C492 C 0.22116 0.28136 0.40152 0.0
C493 C 0.23343 0.27532 0.39348 0.0
C494 C 0.23979 0.24458 0.39226 0.0
C495 C 0.23449 0.21939 0.39907 0.0
C496 C 0.22081 0.22471 0.40699 0.0
C497 C 0.21431 0.25525 0.4082 0.0
C498 C 0.17607 0.39059 0.4154 0.0
C499 C 0.10636 0.3184 0.39737 0.0
O500 O 0.15167 0.44578 0.40744 0.0
O501 O 0.11813 0.4306 0.39561 0.0
O502 O 0.18138 0.38486 0.39122 0.0
O503 O 0.15805 0.41273 0.38458 0.0
O504 O 0.21509 0.45196 0.39979 0.0
O505 O 0.24347 0.4146 0.39833 0.0
O506 O 0.23261 0.34395 0.39764 0.0
O507 O 0.19528 0.31645 0.40866 0.0
O508 O 0.15728 0.37527 0.40875 0.0
O509 O 0.20817 0.39079 0.41485 0.0
O510 O 0.13937 0.31873 0.39703 0.0
O511 O 0.1044 0.34971 0.39899 0.0
H512 H 0.10485 0.49615 0.40994 0.0
H513 H 0.13261 0.56519 0.40908 0.0
H514 H 0.2172 0.57142 0.39108 0.0
H515 H 0.18953 0.50217 0.39214 0.0
H516 H 0.23956 0.29514 0.38823 0.0
H517 H 0.25049 0.24156 0.38608 0.0
H518 H 0.21572 0.20559 0.41234 0.0
H519 H 0.20538 0.25934 0.4145 0.0
Tb520 Tb 0.69256 0.78017 0.39848 0.0
Tb521 Tb 0.73759 0.86734 0.40211 0.0
C522 C 0.64835 0.71129 0.40201 0.0
C523 C 0.60756 0.68467 0.40038 0.0
C524 C 0.58902 0.64993 0.40481 0.0
C525 C 0.5494 0.62633 0.40415 0.0
C526 C 0.52743 0.6371 0.39908 0.0
C527 C 0.54629 0.6719 0.39458 0.0
C528 C 0.58599 0.69547 0.39524 0.0
C529 C 0.70558 0.81698 0.3837 0.0
C530 C 0.65079 0.83014 0.39866 0.0
C531 C 0.78129 0.93837 0.40365 0.0
C532 C 0.81716 0.97372 0.4012 0.0
C533 C 0.81699 0.99739 0.39458 0.0
C534 C 0.84833 0.03408 0.39334 0.0
C535 C 0.88067 0.04827 0.39872 0.0
C536 C 0.8813 0.02403 0.40514 0.0
C537 C 0.84997 0.98737 0.40638 0.0
C538 C 0.70903 0.8192 0.41541 0.0
C539 C 0.78227 0.82396 0.39724 0.0
O540 O 0.65475 0.73943 0.40716 0.0
O541 O 0.67143 0.72258 0.39533 0.0
O542 O 0.71514 0.83119 0.39117 0.0
O543 O 0.68802 0.78019 0.38446 0.0
O544 O 0.64766 0.79616 0.39977 0.0
O545 O 0.68401 0.86192 0.3984 0.0
O546 O 0.75346 0.92269 0.39802 0.0
O547 O 0.78352 0.91305 0.4085 0.0
O548 O 0.72465 0.81627 0.40873 0.0
O549 O 0.70861 0.85088 0.41493 0.0
O550 O 0.78115 0.85612 0.39691 0.0
O551 O 0.75133 0.79041 0.39889 0.0
H552 H 0.60508 0.64148 0.40895 0.0
H553 H 0.53586 0.60008 0.40781 0.0
H554 H 0.5304 0.68092 0.39055 0.0
H555 H 0.59975 0.72249 0.39186 0.0
H556 H 0.79202 0.98815 0.39054 0.0
H557 H 0.84692 0.05157 0.38824 0.0
H558 H 0.90536 0.03393 0.4095 0.0
H559 H 0.85087 0.97036 0.41166 0.0
Tb560 Tb 0.32166 0.94713 0.39862 0.0
Tb561 Tb 0.23448 0.90791 0.40212 0.0
C562 C 0.39019 0.97002 0.40229 0.0
C563 C 0.41557 0.95431 0.40071 0.0
C564 C 0.44501 0.96212 0.40656 0.0
C565 C 0.46625 0.9436 0.40584 0.0
C566 C 0.45841 0.91682 0.39925 0.0
C567 C 0.42922 0.90955 0.3933 0.0
C568 C 0.40784 0.92794 0.39406 0.0
C569 C 0.28518 0.92234 0.38384 0.0
C570 C 0.26898 0.8557 0.39912 0.0
C571 C 0.16352 0.88212 0.40361 0.0
C572 C 0.12847 0.883 0.40105 0.0
C573 C 0.10562 0.86053 0.39417 0.0
C574 C 0.06892 0.85518 0.39284 0.0
C575 C 0.05396 0.87198 0.39839 0.0
C576 C 0.07743 0.89559 0.40508 0.0
C577 C 0.11408 0.90091 0.4064 0.0
C578 C 0.28232 0.92733 0.41549 0.0
C579 C 0.28029 0.99537 0.39698 0.0
O580 O 0.36162 0.94919 0.40746 0.0
O581 O 0.37973 0.98243 0.39558 0.0
O582 O 0.27062 0.9194 0.39123 0.0
O583 O 0.32203 0.94032 0.38469 0.0
O584 O 0.30361 0.88586 0.40025 0.0
O585 O 0.23796 0.85852 0.3987 0.0
O586 O 0.17873 0.869 0.3981 0.0
O587 O 0.18927 0.90989 0.40835 0.0
O588 O 0.28592 0.94545 0.40872 0.0
O589 O 0.25015 0.89559 0.41506 0.0
O590 O 0.24737 0.96271 0.39668 0.0
O591 O 0.31335 0.99682 0.39868 0.0
H592 H 0.45099 0.9819 0.41183 0.0
H593 H 0.48883 0.95024 0.41046 0.0
H594 H 0.42219 0.88884 0.3882 0.0
H595 H 0.38461 0.92083 0.38959 0.0
H596 H 0.11546 0.84581 0.38998 0.0
H597 H 0.05199 0.83729 0.38755 0.0
H598 H 0.06688 0.90866 0.40956 0.0
H599 H 0.13047 0.9177 0.41188 0.0
Tb600 Tb 0.74799 0.81368 0.81026 0.0
Tb601 Tb 0.70649 0.85357 0.80481 0.0
C602 C 0.79496 0.79004 0.81038 0.0
C603 C 0.83711 0.80828 0.81041 0.0
C604 C 0.86033 0.84294 0.80611 0.0
C605 C 0.90019 0.85929 0.80609 0.0
C606 C 0.91762 0.84119 0.8103 0.0
C607 C 0.89419 0.80677 0.81469 0.0
C608 C 0.85443 0.79056 0.81474 0.0
C609 C 0.72018 0.83311 0.82332 0.0
C610 C 0.79398 0.90432 0.80643 0.0
C611 C 0.66612 0.88442 0.80271 0.0
C612 C 0.63236 0.88778 0.80499 0.0
C613 C 0.59593 0.85619 0.80647 0.0
C614 C 0.56451 0.86142 0.808 0.0
C615 C 0.56896 0.89825 0.80799 0.0
C616 C 0.60571 0.92961 0.80668 0.0
C617 C 0.6369 0.9244 0.80521 0.0
C618 C 0.73453 0.82969 0.79225 0.0
C619 C 0.65912 0.76649 0.80985 0.0
O620 O 0.77947 0.79423 0.80336 0.0
O621 O 0.77923 0.79421 0.81736 0.0
O622 O 0.73502 0.85311 0.8166 0.0
O623 O 0.72218 0.80219 0.82289 0.0
O624 O 0.79531 0.873 0.80821 0.0
O625 O 0.76152 0.90375 0.80536 0.0
O626 O 0.69345 0.89567 0.80842 0.0
O627 O 0.66154 0.85495 0.79826 0.0
O628 O 0.71838 0.81286 0.79905 0.0
O629 O 0.73405 0.86133 0.79197 0.0
O630 O 0.66069 0.7999 0.81001 0.0
O631 O 0.69053 0.7642 0.80877 0.0
H632 H 0.84773 0.85718 0.80268 0.0
H633 H 0.91727 0.8856 0.80259 0.0
H634 H 0.90662 0.79234 0.81812 0.0
H635 H 0.83715 0.76397 0.81813 0.0
H636 H 0.59167 0.82762 0.80632 0.0
H637 H 0.53659 0.83661 0.80895 0.0
H638 H 0.61044 0.95836 0.80677 0.0
H639 H 0.66472 0.9492 0.80409 0.0
Tb640 Tb 0.29007 0.97578 0.81094 0.0
Tb641 Tb 0.24965 0.88946 0.80678 0.0
C642 C 0.31344 0.04472 0.80806 0.0
C643 C 0.29547 0.06848 0.80935 0.0
C644 C 0.25914 0.0573 0.8059 0.0
C645 C 0.24292 0.08049 0.80678 0.0
C646 C 0.26242 0.11539 0.81119 0.0
C647 C 0.29828 0.12599 0.81487 0.0
C648 C 0.31466 0.10283 0.81393 0.0
C649 C 0.26443 0.93731 0.82547 0.0
C650 C 0.19839 0.92488 0.81004 0.0
C651 C 0.22267 0.81877 0.80494 0.0
C652 C 0.22397 0.78388 0.80727 0.0
C653 C 0.20303 0.76134 0.81434 0.0
C654 C 0.19807 0.72487 0.81554 0.0
C655 C 0.21375 0.70991 0.80967 0.0
C656 C 0.23584 0.73307 0.80279 0.0
C657 C 0.24077 0.76948 0.80159 0.0
C658 C 0.26977 0.93875 0.79375 0.0
C659 C 0.33758 0.93344 0.81194 0.0
O660 O 0.29729 1.01799 0.80222 0.0
O661 O 0.32302 0.0329 0.81501 0.0
O662 O 0.26137 0.92381 0.81797 0.0
O663 O 0.28297 0.97411 0.82488 0.0
O664 O 0.22911 0.95922 0.80914 0.0
O665 O 0.20054 0.89355 0.81025 0.0
O666 O 0.21045 0.83382 0.81071 0.0
O667 O 0.25001 0.84453 0.80011 0.0
O668 O 0.2879 0.94141 0.80048 0.0
O669 O 0.23785 0.90671 0.79401 0.0
O670 O 0.3046 0.90081 0.81189 0.0
O671 O 0.33955 0.967 0.81081 0.0
H672 H 0.24335 0.03089 0.80235 0.0
H673 H 0.2156 0.07154 0.80374 0.0
H674 H 0.31388 0.15236 0.81843 0.0
H675 H 0.34251 0.11194 0.81671 0.0
H676 H 0.1892 0.77123 0.81879 0.0
H677 H 0.18137 0.70812 0.82099 0.0
H678 H 0.24798 0.72245 0.79807 0.0
H679 H 0.25636 0.78567 0.79597 0.0
Tb680 Tb 0.12924 0.35246 0.81117 0.0
Tb681 Tb 0.21036 0.39473 0.80581 0.0
C682 C 0.0589 0.3045 0.81147 0.0
C683 C 0.0361 0.26244 0.81147 0.0
C684 C 0.04694 0.24032 0.80652 0.0
C685 C 1.02432 0.20053 0.80643 0.0
C686 C 0.99039 0.18205 0.81128 0.0
C687 C 0.98025 0.20434 0.8164 0.0
C688 C 1.00285 0.24407 0.81648 0.0
C689 C 0.17564 0.38102 0.82437 0.0
C690 C 0.17617 0.30835 0.80778 0.0
C691 C 0.28119 0.43783 0.80341 0.0
C692 C 0.31616 0.47511 0.805 0.0
C693 C 0.33208 0.48638 0.81328 0.0
C694 C 0.36861 0.51831 0.81437 0.0
C695 C 0.39018 0.53949 0.8072 0.0
C696 C 0.37346 0.52895 0.79897 0.0
C697 C 0.33701 0.49718 0.79789 0.0
C698 C 0.15849 0.36477 0.79325 0.0
C699 C 0.16899 0.4407 0.81075 0.0
O700 O 0.07792 0.32057 0.80442 0.0
O701 O 0.07907 0.3203 0.81841 0.0
O702 O 0.18192 0.36665 0.81769 0.0
O703 O 0.14245 0.37849 0.82371 0.0
O704 O 0.14271 0.30616 0.80915 0.0
O705 O 0.20787 0.3411 0.80696 0.0
O706 O 0.26656 0.41382 0.80983 0.0
O707 O 0.25497 0.43661 0.79825 0.0
O708 O 0.15747 0.38168 0.7999 0.0
O709 O 0.19052 0.36482 0.79323 0.0
O710 O 0.2012 0.43974 0.81085 0.0
O711 O 0.13556 0.40914 0.80966 0.0
H712 H 0.07255 0.25375 0.80261 0.0
H713 H 1.03283 0.18436 0.80236 0.0
H714 H 0.95468 0.19108 0.82032 0.0
H715 H 0.99414 0.26051 0.8204 0.0
H716 H 0.31697 0.46979 0.8189 0.0
H717 H 0.38057 0.52541 0.8208 0.0
H718 H 0.38882 0.54493 0.79331 0.0
H719 H 0.32569 0.489 0.79142 0.0
Tb720 Tb 0.25299 0.39577 0.30651 0.0
Tb721 Tb 0.29268 0.34894 0.31067 0.0
C722 C 0.22708 0.44055 0.30466 0.0
C723 C 0.22729 0.47598 0.30729 0.0
C724 C 0.2039 0.4755 0.31408 0.0
C725 C 0.1982 0.50648 0.31546 0.0
C726 C 0.21557 0.53875 0.31008 0.0
C727 C 0.24006 0.53973 0.3035 0.0
C728 C 0.24571 0.50874 0.30211 0.0
C729 C 0.27273 0.36617 0.29346 0.0
C730 C 0.3407 0.4385 0.31193 0.0
C731 C 0.3145 0.30196 0.30773 0.0
C732 C 0.29621 0.2603 0.30914 0.0
C733 C 0.25721 0.2361 0.30729 0.0
C734 C 0.24029 0.19667 0.30825 0.0
C735 C 0.26185 0.18034 0.3111 0.0
C736 C 0.30075 0.2046 0.31309 0.0
C737 C 0.31775 0.24417 0.3121 0.0
C738 C 0.2668 0.3617 0.32518 0.0
C739 C 0.20093 0.30963 0.30986 0.0
O740 O 0.21276 0.41162 0.31 0.0
O741 O 0.25605 0.44331 0.30025 0.0
O742 O 0.29089 0.38132 0.30021 0.0
O743 O 0.2411 0.36694 0.29371 0.0
O744 O 0.30773 0.4383 0.31193 0.0
O745 O 0.34258 0.40692 0.31064 0.0
O746 O 0.2977 0.31237 0.302 0.0
O747 O 0.32514 0.32387 0.31459 0.0
O748 O 0.26414 0.37252 0.31769 0.0
O749 O 0.28521 0.34325 0.3246 0.0
O750 O 0.23144 0.30561 0.30892 0.0
O751 O 0.20341 0.34323 0.3101 0.0
H752 H 0.18878 0.45058 0.31813 0.0
H753 H 0.17962 0.50486 0.32067 0.0
H754 H 0.25361 0.56379 0.29915 0.0
H755 H 0.26323 0.50982 0.29671 0.0
H756 H 0.23972 0.24752 0.30499 0.0
H757 H 0.21021 0.17895 0.30676 0.0
H758 H 0.31831 0.19292 0.31522 0.0
H759 H 0.34785 0.26214 0.31353 0.0
Tb760 Tb 0.70697 0.88988 0.30614 0.0
Tb761 Tb 0.75425 0.97578 0.31016 0.0
C762 C 0.66181 0.81943 0.30392 0.0
C763 C 0.6308 0.78204 0.30712 0.0
C764 C 0.59355 0.77492 0.30876 0.0
C765 C 0.56374 0.73766 0.31043 0.0
C766 C 0.57041 0.70666 0.31041 0.0
C767 C 0.60797 0.71423 0.30906 0.0
C768 C 0.63766 0.75133 0.30744 0.0
C769 C 0.73515 0.93895 0.29295 0.0
C770 C 0.66498 0.93378 0.31218 0.0
C771 C 0.79955 0.04455 0.30675 0.0
C772 C 0.84066 0.0706 0.30825 0.0
C773 C 0.86185 0.09874 0.30211 0.0
C774 C 0.90163 0.12076 0.30279 0.0
C775 C 0.92109 0.11512 0.30964 0.0
C776 C 0.89965 0.08728 0.31588 0.0
C777 C 0.85981 0.06503 0.31516 0.0
C778 C 0.74216 0.93838 0.32481 0.0
C779 C 0.79291 0.9235 0.30986 0.0
O780 O 0.69569 0.83357 0.30742 0.0
O781 O 0.65389 0.84587 0.30167 0.0
O782 O 0.72066 0.94183 0.2998 0.0
O783 O 0.7345 0.90678 0.29316 0.0
O784 O 0.66572 0.90145 0.31246 0.0
O785 O 0.69593 0.96693 0.31027 0.0
O786 O 0.79225 1.01651 0.30148 0.0
O787 O 0.77671 0.03339 0.31348 0.0
O788 O 0.73074 0.92406 0.31738 0.0
O789 O 0.76107 0.97516 0.32406 0.0
O790 O 0.79751 0.95786 0.30841 0.0
O791 O 0.75885 0.89295 0.31048 0.0
H792 H 0.58717 0.79784 0.30847 0.0
H793 H 0.53516 0.73294 0.3114 0.0
H794 H 0.6144 0.69131 0.30912 0.0
H795 H 0.66595 0.75582 0.30612 0.0
H796 H 0.84768 0.10308 0.29666 0.0
H797 H 0.91717 0.14226 0.29794 0.0
H798 H 0.91376 0.08197 0.32119 0.0
H799 H 0.84411 0.04287 0.31987 0.0
Tb800 Tb 0.21348 0.84909 0.30649 0.0
Tb801 Tb 0.12675 0.8097 0.31039 0.0
C802 C 0.28419 0.87426 0.30469 0.0
C803 C 0.31927 0.87397 0.30749 0.0
C804 C 0.34162 0.89702 0.31436 0.0
C805 C 0.37827 0.90259 0.3159 0.0
C806 C 0.39364 0.88541 0.31059 0.0
C807 C 0.37064 0.86124 0.30392 0.0
C808 C 0.33406 0.85572 0.30238 0.0
C809 C 0.16478 0.82985 0.29332 0.0
C810 C 0.16854 0.76205 0.31183 0.0
C811 C 0.05789 0.78608 0.30685 0.0
C812 C 1.03123 0.80018 0.30843 0.0
C813 C 0.99642 0.78375 0.304 0.0
C814 C 0.97261 0.79947 0.30462 0.0
C815 C 0.9832 0.83209 0.30969 0.0
C816 C 1.01811 0.84832 0.31419 0.0
C817 C 0.04194 0.83253 0.31356 0.0
C818 C 0.16416 0.83304 0.32508 0.0
C819 C 0.1795 0.90127 0.31016 0.0
O820 O 0.26972 0.88946 0.30982 0.0
O821 O 0.25783 0.84488 0.30043 0.0
O822 O 0.16154 0.81162 0.30005 0.0
O823 O 0.19707 0.86144 0.29367 0.0
O824 O 0.2012 0.79491 0.31214 0.0
O825 O 0.13533 0.76022 0.31011 0.0
O826 O 0.08634 0.80782 0.30175 0.0
O827 O 0.06883 0.77406 0.31355 0.0
O828 O 0.17834 0.83705 0.31761 0.0
O829 O 0.12721 0.81466 0.32438 0.0
O830 O 0.14465 0.87113 0.30925 0.0
O831 O 0.21047 0.8983 0.31019 0.0
H832 H 0.33145 0.91198 0.31837 0.0
H833 H 0.39483 0.92092 0.32118 0.0
H834 H 0.38154 0.84786 0.29962 0.0
H835 H 0.31802 0.83845 0.29692 0.0
H836 H 0.98806 0.75927 0.29987 0.0
H837 H 0.94631 0.78657 0.30095 0.0
H838 H 1.02701 0.87318 0.31821 0.0
H839 H 0.06904 0.84596 0.31693 0.0
Tb840 Tb 0.73785 0.89932 0.90286 0.0
Tb841 Tb 0.69592 0.93855 0.89764 0.0
C842 C 0.78047 0.87089 0.90499 0.0
C843 C 0.81759 0.87284 0.90326 0.0
C844 C 0.82742 0.86636 0.89498 0.0
C845 C 0.85894 0.86115 0.89379 0.0
C846 C 0.88126 0.86202 0.90086 0.0
C847 C 0.87222 0.87006 0.90908 0.0
C848 C 0.84079 0.87529 0.91026 0.0
C849 C 0.70739 0.92029 0.91551 0.0
C850 C 0.78477 0.98743 0.89858 0.0
C851 C 0.6474 0.96008 0.89713 0.0
C852 C 0.60519 0.93996 0.89787 0.0
C853 C 0.58605 0.91517 0.90479 0.0
C854 C 0.54613 0.89636 0.90534 0.0
C855 C 0.52442 0.9016 0.89897 0.0
C856 C 0.54363 0.92596 0.892 0.0
C857 C 0.58356 0.945 0.89148 0.0
C858 C 0.72642 0.92296 0.88445 0.0
C859 C 0.65115 0.84746 0.90093 0.0
O860 O 0.75635 0.86221 0.89861 0.0
O861 O 0.7796 0.89557 0.91029 0.0
O862 O 0.72444 0.93847 0.90891 0.0
O863 O 0.70756 0.88845 0.91546 0.0
O864 O 0.78385 0.95435 0.89839 0.0
O865 O 0.7528 0.98896 0.89938 0.0
O866 O 0.66656 0.96168 0.90407 0.0
O867 O 0.66103 0.95249 0.89024 0.0
O868 O 0.71087 0.90122 0.89092 0.0
O869 O 0.72391 0.95345 0.88531 0.0
O870 O 0.64926 0.87906 0.90007 0.0
O871 O 0.68403 0.84843 0.90131 0.0
H872 H 0.80993 0.86382 0.88945 0.0
H873 H 0.8648 0.85482 0.88738 0.0
H874 H 0.8891 0.87169 0.91465 0.0
H875 H 0.83373 0.8798 0.91673 0.0
H876 H 0.60186 0.91028 0.90978 0.0
H877 H 0.53222 0.87753 0.91075 0.0
H878 H 0.52785 0.93102 0.88704 0.0
H879 H 0.59761 0.96384 0.88608 0.0
Tb880 Tb 0.19656 0.86444 0.90272 0.0
Tb881 Tb 0.15541 0.77728 0.89896 0.0
C882 C 0.22386 0.93539 0.904 0.0
C883 C 0.22154 0.97025 0.90227 0.0
C884 C 0.2295 0.98754 0.89408 0.0
C885 C 0.23423 0.02407 0.89301 0.0
C886 C 0.23161 0.04431 0.90011 0.0
C887 C 0.22219 0.02628 0.90821 0.0
C888 C 0.21729 0.98983 0.90927 0.0
C889 C 0.17521 0.81621 0.91595 0.0
C890 C 0.10799 0.81973 0.89786 0.0
C891 C 0.13132 0.70859 0.90242 0.0
C892 C 0.14693 0.68312 0.90092 0.0
C893 C 0.14136 0.65585 0.90717 0.0
C894 C 0.16001 0.63475 0.90649 0.0
C895 C 0.18464 0.64051 0.89952 0.0
C896 C 0.1897 0.66749 0.89318 0.0
C897 C 0.17125 0.68882 0.89391 0.0
C898 C 0.18146 0.81464 0.88431 0.0
C899 C 0.24739 0.82762 0.90082 0.0
O900 O 0.23196 0.91918 0.89766 0.0
O901 O 0.20019 0.91071 0.90962 0.0
O902 O 0.15754 0.81298 0.90911 0.0
O903 O 0.20725 0.84816 0.91569 0.0
O904 O 0.14087 0.85248 0.89789 0.0
O905 O 0.1061 0.78629 0.89912 0.0
O906 O 0.15173 0.73655 0.90774 0.0
O907 O 0.11982 0.71972 0.89566 0.0
O908 O 0.185 0.8286 0.89178 0.0
O909 O 0.16211 0.77785 0.88501 0.0
O910 O 0.21607 0.79338 0.90087 0.0
O911 O 0.24626 0.85951 0.90056 0.0
H912 H 0.23352 0.97354 0.88857 0.0
H913 H 0.24161 0.03712 0.88669 0.0
H914 H 0.21928 0.04067 0.91379 0.0
H915 H 0.21168 0.97756 0.91567 0.0
H916 H 0.12326 0.65151 0.91271 0.0
H917 H 0.15512 0.61388 0.91142 0.0
H918 H 0.20873 0.67283 0.88779 0.0
H919 H 0.17672 0.7104 0.88912 0.0
Tb920 Tb 0.23253 0.35945 0.90346 0.0
Tb921 Tb 0.31318 0.40058 0.89758 0.0
C922 C 0.16208 0.31772 0.90672 0.0
C923 C 0.12508 0.2838 0.90443 0.0
C924 C 0.12105 0.24792 0.90276 0.0
C925 C 0.08463 0.21612 0.90134 0.0
C926 C 0.05152 0.21954 0.90157 0.0
C927 C 0.05607 0.25578 0.9031 0.0
C928 C 0.09229 0.28737 0.90449 0.0
C929 C 0.28573 0.39234 0.91569 0.0
C930 C 0.2725 0.31231 0.89846 0.0
C931 C 0.38344 0.44866 0.89682 0.0
C932 C 0.40588 0.49071 0.8974 0.0
C933 C 0.44072 0.50806 0.90185 0.0
C934 C 0.46197 0.54771 0.90269 0.0
C935 C 0.44889 0.57102 0.8991 0.0
C936 C 0.41394 0.55355 0.89461 0.0
C937 C 0.39256 0.51379 0.8938 0.0
C938 C 0.26454 0.36943 0.88473 0.0
C939 C 0.26623 0.44487 0.89981 0.0
O940 O 0.1759 0.34645 0.90138 0.0
O941 O 0.18887 0.31306 0.91025 0.0
O942 O 0.28624 0.37426 0.90923 0.0
O943 O 0.25345 0.3917 0.91575 0.0
O944 O 0.24045 0.31369 0.89829 0.0
O945 O 0.3062 0.34381 0.89937 0.0
O946 O 0.36611 0.43091 0.9039 0.0
O947 O 0.36172 0.43419 0.89002 0.0
O948 O 0.25988 0.38505 0.89134 0.0
O949 O 0.29796 0.3723 0.88514 0.0
O950 O 0.30016 0.44719 0.89974 0.0
O951 O 0.23456 0.41183 0.90024 0.0
H952 H 0.14587 0.24434 0.90267 0.0
H953 H 0.08243 0.18884 0.90007 0.0
H954 H 1.0315 0.25967 0.90349 0.0
H955 H 0.0946 0.31467 0.90585 0.0
H956 H 0.45149 0.49088 0.9047 0.0
H957 H 0.48899 0.56016 0.90609 0.0
H958 H 0.40284 0.57056 0.89184 0.0
H959 H 0.36554 0.50113 0.89041 0.0
Tb960 Tb 0.8211 0.73529 0.73086 0.0
Tb961 Tb 0.8593 0.69069 0.73526 0.0
C962 C 0.79886 0.78323 0.7316 0.0
C963 C 0.81751 0.82524 0.73178 0.0
C964 C 0.85324 0.8479 0.73575 0.0
C965 C 0.86993 0.88765 0.73597 0.0
C966 C 0.85108 0.90549 0.73229 0.0
C967 C 0.81558 0.88261 0.72823 0.0
C968 C 0.79904 0.84298 0.72798 0.0
C969 C 0.84022 0.71052 0.7172 0.0
C970 C 0.91195 0.77775 0.73464 0.0
C971 C 0.88732 0.64737 0.73657 0.0
C972 C 0.88627 0.61112 0.73432 0.0
C973 C 0.90763 0.60974 0.7273 0.0
C974 C 0.91308 0.57848 0.72612 0.0
C975 C 0.89748 0.54774 0.73194 0.0
C976 C 0.87496 0.54852 0.73879 0.0
C977 C 0.86959 0.57984 0.73998 0.0
C978 C 0.83658 0.717 0.74839 0.0
C979 C 0.7719 0.64701 0.73019 0.0
O980 O 0.80391 0.76701 0.73837 0.0
O981 O 0.80164 0.76802 0.7244 0.0
O982 O 0.85994 0.72273 0.72405 0.0
O983 O 0.80998 0.71378 0.71782 0.0
O984 O 0.88088 0.78048 0.73345 0.0
O985 O 0.91061 0.74474 0.73483 0.0
O986 O 0.89686 0.67331 0.73057 0.0
O987 O 0.86178 0.64662 0.7419 0.0
O988 O 0.81929 0.70243 0.74152 0.0
O989 O 0.86834 0.71648 0.74832 0.0
O990 O 0.80487 0.64754 0.7298 0.0
O991 O 0.77054 0.67843 0.73188 0.0
H992 H 0.86808 0.83494 0.73877 0.0
H993 H 0.89713 0.90433 0.73919 0.0
H994 H 0.80054 0.89537 0.7252 0.0
H995 H 0.7716 0.82613 0.72486 0.0
H996 H 0.92146 0.63352 0.72288 0.0
H997 H 0.93008 0.57872 0.7207 0.0
H998 H 0.86279 0.52566 0.74347 0.0
H999 H 0.85369 0.58021 0.74556 0.0
Tb1000 Tb 0.35849 0.11061 0.73162 0.0
Tb1001 Tb 0.40671 0.19746 0.73557 0.0
C1002 C 0.31267 0.04192 0.73491 0.0
C1003 C 0.27029 1.01911 0.73493 0.0
C1004 C 0.24942 0.02181 0.7419 0.0
C1005 C 0.20959 1.00104 0.74194 0.0
C1006 C 0.18939 0.97664 0.73507 0.0
C1007 C 0.21015 0.97392 0.72809 0.0
C1008 C 0.25019 0.99489 0.72803 0.0
C1009 C 0.37092 0.14923 0.71711 0.0
C1010 C 0.31925 0.16268 0.73386 0.0
C1011 C 0.45163 0.26795 0.73714 0.0
C1012 C 0.48764 0.30307 0.73485 0.0
C1013 C 0.49241 0.32123 0.72684 0.0
C1014 C 0.52306 0.35822 0.72549 0.0
C1015 C 0.54932 0.37795 0.73214 0.0
C1016 C 0.54542 0.35898 0.73999 0.0
C1017 C 0.51496 0.32208 0.74132 0.0
C1018 C 0.37901 0.14893 0.74875 0.0
C1019 C 0.44788 0.15169 0.72961 0.0
O1020 O 0.32766 0.06864 0.74075 0.0
O1021 O 0.32994 0.05343 0.72743 0.0
O1022 O 0.3814 0.16241 0.72463 0.0
O1023 O 0.3527 0.11238 0.71766 0.0
O1024 O 0.31514 0.12798 0.73404 0.0
O1025 O 0.35285 0.19387 0.73331 0.0
O1026 O 0.42396 0.25293 0.73144 0.0
O1027 O 0.45339 0.24232 0.74197 0.0
O1028 O 0.39294 0.14542 0.74184 0.0
O1029 O 0.38024 0.18144 0.74859 0.0
O1030 O 0.44836 0.18468 0.72986 0.0
O1031 O 0.4163 0.11841 0.73107 0.0
H1032 H 0.26377 0.04007 0.74736 0.0
H1033 H 0.1946 1.00423 0.74738 0.0
H1034 H 0.19552 0.95495 0.72275 0.0
H1035 H 0.26541 0.99202 0.72259 0.0
H1036 H 0.47162 0.3076 0.72174 0.0
H1037 H 0.52512 0.37201 0.71937 0.0
H1038 H 0.5655 0.37303 0.7452 0.0
H1039 H 0.51183 0.30905 0.74759 0.0
Tb1040 Tb 0.98648 0.27654 0.73159 0.0
Tb1041 Tb 0.89923 0.23653 0.7351 0.0
C1042 C 0.05542 0.30077 0.73513 0.0
C1043 C 0.0811 0.28526 0.73377 0.0
C1044 C 0.06818 0.25042 0.72947 0.0
C1045 C 0.09053 0.23289 0.72935 0.0
C1046 C 0.12614 0.24982 0.73356 0.0
C1047 C 0.13945 0.28545 0.73757 0.0
C1048 C 0.11708 0.30288 0.7377 0.0
C1049 C 0.94986 0.25093 0.71683 0.0
C1050 C 0.93484 0.18514 0.73237 0.0
C1051 C 0.82812 0.20997 0.73647 0.0
C1052 C 0.79301 0.21028 0.73372 0.0
C1053 C 0.7703 0.18672 0.72695 0.0
C1054 C 0.73358 0.18104 0.72546 0.0
C1055 C 0.71849 0.19861 0.73073 0.0
C1056 C 0.74182 0.22327 0.73729 0.0
C1057 C 0.77848 0.22891 0.73878 0.0
C1058 C 0.94691 0.25654 0.74849 0.0
C1059 C 0.94408 0.3238 0.72986 0.0
O1060 O 1.02724 0.28071 0.74045 0.0
O1061 O 0.04431 0.31159 0.72826 0.0
O1062 O 0.93539 0.24808 0.72422 0.0
O1063 O 0.9867 0.26917 0.71766 0.0
O1064 O 0.96925 0.21564 0.73346 0.0
O1065 O 0.90358 0.18752 0.73185 0.0
O1066 O 0.84374 0.19668 0.73111 0.0
O1067 O 0.85355 0.23828 0.74114 0.0
O1068 O 0.95055 0.27457 0.7417 0.0
O1069 O 0.91475 0.2248 0.74808 0.0
O1070 O 0.91149 0.29087 0.72956 0.0
O1071 O 0.97741 0.32581 0.73156 0.0
H1072 H 0.04025 0.23615 0.72647 0.0
H1073 H 0.07926 0.20542 0.72625 0.0
H1074 H 0.16704 0.2997 0.74072 0.0
H1075 H 0.12741 0.3296 0.7411 0.0
H1076 H 0.78025 0.17143 0.72299 0.0
H1077 H 0.71675 0.16231 0.72026 0.0
H1078 H 0.73114 0.23696 0.74156 0.0
H1079 H 0.79477 0.24657 0.74417 0.0
Tb1080 Tb 0.41595 0.14733 0.14448 0.0
Tb1081 Tb 0.3713 0.18403 0.13921 0.0
C1082 C 0.4646 0.12585 0.14445 0.0
C1083 C 0.5067 0.14543 0.14413 0.0
C1084 C 0.52444 0.12774 0.13997 0.0
C1085 C 0.56423 0.14628 0.13927 0.0
C1086 C 0.58721 0.18304 0.1427 0.0
C1087 C 0.5693 0.20064 0.14694 0.0
C1088 C 0.52939 0.18205 0.14762 0.0
C1089 C 0.38776 0.16526 0.15771 0.0
C1090 C 0.45823 0.238 0.14075 0.0
C1091 C 0.32739 0.21096 0.13708 0.0
C1092 C 0.29083 0.2099 0.13902 0.0
C1093 C 0.28304 0.21903 0.14725 0.0
C1094 C 0.25215 0.22521 0.14852 0.0
C1095 C 0.22846 0.22269 0.14159 0.0
C1096 C 0.23545 0.21198 0.13345 0.0
C1097 C 0.26623 0.20578 0.13219 0.0
C1098 C 0.4007 0.16192 0.12657 0.0
C1099 C 0.32729 0.09716 0.14447 0.0
O1100 O 0.44801 0.1287 0.13748 0.0
O1101 O 0.44926 0.13022 0.15147 0.0
O1102 O 0.40117 0.18527 0.15092 0.0
O1103 O 0.39141 0.13529 0.15722 0.0
O1104 O 0.46143 0.20739 0.14216 0.0
O1105 O 0.42483 0.23578 0.14003 0.0
O1106 O 0.35316 0.2218 0.14317 0.0
O1107 O 0.32703 0.18466 0.13211 0.0
O1108 O 0.38497 0.14466 0.13337 0.0
O1109 O 0.3995 0.19321 0.12641 0.0
O1110 O 0.32735 0.12982 0.14456 0.0
O1111 O 0.35936 0.09627 0.14325 0.0
H1112 H 0.50747 0.09957 0.13722 0.0
H1113 H 0.57702 0.13158 0.13609 0.0
H1114 H 0.58608 0.22901 0.14959 0.0
H1115 H 0.51628 0.19639 0.15081 0.0
H1116 H 0.30165 0.22293 0.15265 0.0
H1117 H 0.24789 0.23359 0.15486 0.0
H1118 H 0.21747 0.20902 0.12799 0.0
H1119 H 0.27172 0.19923 0.12576 0.0
Tb1120 Tb 0.95655 0.31102 0.14337 0.0
Tb1121 Tb 0.91639 0.22355 0.13972 0.0
C1122 C 0.97964 0.37957 0.13989 0.0
C1123 C 0.96366 0.40475 0.14143 0.0
C1124 C 0.97162 0.43419 0.13559 0.0
C1125 C 0.95319 0.45552 0.13632 0.0
C1126 C 0.92634 0.44783 0.14291 0.0
C1127 C 0.91882 0.41857 0.14883 0.0
C1128 C 0.9371 0.39707 0.14807 0.0
C1129 C 0.9307 0.27356 0.15804 0.0
C1130 C 0.86475 0.25959 0.14148 0.0
C1131 C 0.8897 0.15254 0.13866 0.0
C1132 C 0.89108 0.11761 0.14102 0.0
C1133 C 0.86908 0.09448 0.14792 0.0
C1134 C 0.86406 0.05794 0.14911 0.0
C1135 C 0.88071 0.04335 0.1434 0.0
C1136 C 0.90383 0.06708 0.13669 0.0
C1137 C 0.90882 0.10359 0.1355 0.0
C1138 C 0.93743 0.27158 0.12642 0.0
C1139 C 1.00457 0.26927 0.14475 0.0
O1140 O 0.95938 0.35143 0.13459 0.0
O1141 O 0.99152 0.36873 0.14664 0.0
O1142 O 0.92739 0.25973 0.15056 0.0
O1143 O 0.94967 0.31036 0.15733 0.0
O1144 O 0.89575 0.29404 0.14137 0.0
O1145 O 0.86641 0.228 0.14184 0.0
O1146 O 0.879 0.16874 0.14451 0.0
O1147 O 0.91558 0.17733 0.13339 0.0
O1148 O 0.95487 0.27514 0.13331 0.0
O1149 O 0.90596 0.23907 0.12662 0.0
O1150 O 0.97177 0.23645 0.14493 0.0
O1151 O 1.00621 0.30246 0.14322 0.0
H1152 H 0.99153 0.44016 0.13034 0.0
H1153 H 0.96002 0.47811 0.13171 0.0
H1154 H 0.89803 0.41162 0.15393 0.0
H1155 H 0.92983 0.37386 0.15253 0.0
H1156 H 0.85445 0.104 0.15222 0.0
H1157 H 0.84656 0.04086 0.15444 0.0
H1158 H 0.91677 0.05686 0.13208 0.0
H1159 H 0.92526 0.12015 0.13 0.0
Tb1160 Tb 0.79077 0.68313 0.14406 0.0
Tb1161 Tb 0.87812 0.72736 0.14034 0.0
C1162 C 0.72149 0.63897 0.14074 0.0
C1163 C 0.6951 0.59832 0.14248 0.0
C1164 C 0.65894 0.5801 0.13863 0.0
C1165 C 0.63541 0.5406 0.1393 0.0
C1166 C 0.64764 0.51844 0.14381 0.0
C1167 C 0.68377 0.53699 0.14779 0.0
C1168 C 0.70726 0.57659 0.14714 0.0
C1169 C 0.828 0.69648 0.1588 0.0
C1170 C 0.84055 0.64094 0.14389 0.0
C1171 C 0.94928 0.77018 0.13865 0.0
C1172 C 0.98462 0.80678 0.14052 0.0
C1173 C 1.00239 0.81456 0.14866 0.0
C1174 C 0.03927 0.84585 0.14981 0.0
C1175 C 0.05937 0.8698 0.14283 0.0
C1176 C 0.04087 0.86276 0.1348 0.0
C1177 C 1.00407 0.83167 0.13367 0.0
C1178 C 0.82961 0.69834 0.12715 0.0
C1179 C 0.835 0.77285 0.14486 0.0
O1180 O 0.74937 0.64539 0.13548 0.0
O1181 O 0.73319 0.66216 0.14739 0.0
O1182 O 0.84202 0.7056 0.15131 0.0
O1183 O 0.79111 0.67925 0.1581 0.0
O1184 O 0.80653 0.63807 0.14279 0.0
O1185 O 0.87253 0.67396 0.14412 0.0
O1186 O 0.93347 0.74499 0.14483 0.0
O1187 O 0.92406 0.77042 0.13337 0.0
O1188 O 0.82689 0.71451 0.13374 0.0
O1189 O 0.86107 0.69731 0.1277 0.0
O1190 O 0.86732 0.7718 0.1451 0.0
O1191 O 0.80117 0.74179 0.14347 0.0
H1192 H 0.64934 0.59628 0.13488 0.0
H1193 H 0.60807 0.5273 0.13604 0.0
H1194 H 0.69397 0.52091 0.15137 0.0
H1195 H 0.73529 0.59013 0.15009 0.0
H1196 H 0.98847 0.7957 0.15406 0.0
H1197 H 0.05267 0.85028 0.15607 0.0
H1198 H 0.05514 0.88095 0.12933 0.0
H1199 H 0.9914 0.82621 0.1273 0.0
Tb1200 Tb 0.91936 0.72979 0.63929 0.0
Tb1201 Tb 0.95948 0.68339 0.64314 0.0
C1202 C 0.89371 0.77477 0.63738 0.0
C1203 C 0.89303 0.80963 0.64013 0.0
C1204 C 0.86784 0.80781 0.64663 0.0
C1205 C 0.86156 0.83842 0.64805 0.0
C1206 C 0.88016 0.87163 0.64299 0.0
C1207 C 0.90638 0.87391 0.6367 0.0
C1208 C 0.9126 0.84329 0.63527 0.0
C1209 C 0.93879 0.70061 0.62608 0.0
C1210 C 1.00693 0.77252 0.6446 0.0
C1211 C 0.98133 0.63655 0.63997 0.0
C1212 C 0.96411 0.59517 0.64159 0.0
C1213 C 0.92424 0.57096 0.6413 0.0
C1214 C 0.90802 0.5316 0.64227 0.0
C1215 C 0.93124 0.51541 0.6436 0.0
C1216 C 0.97114 0.53973 0.64408 0.0
C1217 C 0.98739 0.57922 0.64306 0.0
C1218 C 0.93594 0.69697 0.65788 0.0
C1219 C 0.86769 0.64409 0.6429 0.0
O1220 O 0.8783 0.74496 0.64246 0.0
O1221 O 0.92371 0.77839 0.63328 0.0
O1222 O 0.95721 0.71589 0.63278 0.0
O1223 O 0.90683 0.70064 0.62651 0.0
O1224 O 0.97379 0.77192 0.64491 0.0
O1225 O 1.00908 0.74141 0.64288 0.0
O1226 O 0.96267 0.64572 0.63447 0.0
O1227 O 0.99319 0.65924 0.6467 0.0
O1228 O 0.9317 0.70715 0.65043 0.0
O1229 O 0.95454 0.67878 0.65709 0.0
O1230 O 0.89809 0.64013 0.64171 0.0
O1231 O 0.87018 0.67766 0.64322 0.0
H1232 H 0.85179 0.78217 0.65042 0.0
H1233 H 0.84162 0.83578 0.65303 0.0
H1234 H 0.92093 0.89873 0.6326 0.0
H1235 H 0.93153 0.84542 0.63009 0.0
H1236 H 0.90546 0.58226 0.64016 0.0
H1237 H 0.87723 0.51384 0.64197 0.0
H1238 H 0.98989 0.52814 0.64502 0.0
H1239 H 1.01817 0.59721 0.64327 0.0
Tb1240 Tb 0.37417 0.22432 0.64025 0.0
Tb1241 Tb 0.42171 0.31134 0.6439 0.0
C1242 C 0.32929 0.15351 0.63875 0.0
C1243 C 0.29359 0.11822 0.64129 0.0
C1244 C 0.29403 0.09474 0.64792 0.0
C1245 C 0.26289 0.05795 0.64918 0.0
C1246 C 0.2305 0.04351 0.64381 0.0
C1247 C 0.22955 0.06759 0.63739 0.0
C1248 C 0.26068 0.10433 0.63613 0.0
C1249 C 0.40217 0.2723 0.62694 0.0
C1250 C 0.33209 0.26957 0.64562 0.0
C1251 C 0.46662 0.37992 0.64031 0.0
C1252 C 0.50775 0.40583 0.64177 0.0
C1253 C 0.52883 0.43428 0.63568 0.0
C1254 C 0.56863 0.45613 0.63632 0.0
C1255 C 0.58819 0.44996 0.64306 0.0
C1256 C 0.56687 0.42179 0.64924 0.0
C1257 C 0.52702 0.39973 0.64857 0.0
C1258 C 0.4101 0.27416 0.65859 0.0
C1259 C 0.46132 0.25952 0.6431 0.0
O1260 O 0.35783 0.16873 0.64422 0.0
O1261 O 0.32685 0.17916 0.63407 0.0
O1262 O 0.38779 0.27587 0.63375 0.0
O1263 O 0.40162 0.24012 0.62728 0.0
O1264 O 0.33209 0.23683 0.64582 0.0
O1265 O 0.36351 0.30267 0.64393 0.0
O1266 O 0.45911 0.35169 0.63508 0.0
O1267 O 0.44403 0.36904 0.64709 0.0
O1268 O 0.39873 0.26016 0.65116 0.0
O1269 O 0.42894 0.31096 0.65784 0.0
O1270 O 0.46531 0.29393 0.64212 0.0
O1271 O 0.42763 0.22831 0.64349 0.0
H1272 H 0.31907 0.10417 0.65194 0.0
H1273 H 0.26452 0.04057 0.65428 0.0
H1274 H 0.20542 0.05748 0.63305 0.0
H1275 H 0.2596 0.12121 0.63084 0.0
H1276 H 0.51455 0.43901 0.63032 0.0
H1277 H 0.58411 0.4779 0.63151 0.0
H1278 H 0.58107 0.41608 0.65447 0.0
H1279 H 0.51138 0.37731 0.65323 0.0
Tb1280 Tb 0.87981 0.18124 0.63915 0.0
Tb1281 Tb 0.7934 0.14419 0.64299 0.0
C1282 C 0.95017 0.20507 0.63726 0.0
C1283 C 0.9857 0.20517 0.63974 0.0
C1284 C 1.00322 0.21868 0.64782 0.0
C1285 C 0.04046 0.22571 0.64934 0.0
C1286 C 0.06113 0.21979 0.6428 0.0
C1287 C 0.0428 0.20466 0.63488 0.0
C1288 C 1.00564 0.1975 0.63338 0.0
C1289 C 0.83136 0.16243 0.62593 0.0
C1290 C 0.83311 0.09466 0.6447 0.0
C1291 C 0.72507 0.12267 0.63936 0.0
C1292 C 0.69969 0.13844 0.64087 0.0
C1293 C 0.67196 0.13246 0.63468 0.0
C1294 C 0.65049 0.15072 0.63541 0.0
C1295 C 0.65632 0.17538 0.64235 0.0
C1296 C 0.68383 0.1809 0.64862 0.0
C1297 C 0.70552 0.16281 0.64785 0.0
C1298 C 0.83052 0.16717 0.65772 0.0
C1299 C 0.84814 0.2356 0.64244 0.0
O1300 O 0.93632 0.22047 0.64251 0.0
O1301 O 0.92347 0.17576 0.63306 0.0
O1302 O 0.82762 0.14436 0.63271 0.0
O1303 O 0.86399 0.19364 0.62626 0.0
O1304 O 0.86622 0.12704 0.64497 0.0
O1305 O 0.80036 0.09366 0.64289 0.0
O1306 O 0.7538 0.14336 0.63423 0.0
O1307 O 0.73521 0.10999 0.64609 0.0
O1308 O 0.84492 0.17068 0.65028 0.0
O1309 O 0.79362 0.14961 0.65695 0.0
O1310 O 0.81286 0.20596 0.6417 0.0
O1311 O 0.87845 0.23155 0.64255 0.0
H1312 H 0.98883 0.22531 0.65284 0.0
H1313 H 0.05369 0.23745 0.65551 0.0
H1314 H 0.05751 0.19906 0.62976 0.0
H1315 H 0.99309 0.18749 0.62707 0.0
H1316 H 0.66746 0.11424 0.62917 0.0
H1317 H 0.62922 0.14544 0.63053 0.0
H1318 H 0.68927 0.19996 0.654 0.0
H1319 H 0.7274 0.16852 0.6526 0.0
Tb1320 Tb 0.40683 0.23917 0.23573 0.0
Tb1321 Tb 0.36129 0.28072 0.23226 0.0
C1322 C 0.45071 0.21194 0.23725 0.0
C1323 C 0.48713 0.21298 0.23513 0.0
C1324 C 0.49355 0.20181 0.22699 0.0
C1325 C 0.52461 0.19591 0.22567 0.0
C1326 C 0.54973 0.20063 0.23246 0.0
C1327 C 0.54406 0.21328 0.24048 0.0
C1328 C 0.51319 0.21929 0.24179 0.0
C1329 C 0.37794 0.25797 0.24909 0.0
C1330 C 0.45131 0.32762 0.23127 0.0
C1331 C 0.31634 0.30434 0.23603 0.0
C1332 C 0.27533 0.28979 0.23449 0.0
C1333 C 0.25397 0.29624 0.24069 0.0
C1334 C 0.21422 0.27874 0.23995 0.0
C1335 C 0.19495 0.25438 0.23299 0.0
C1336 C 0.21658 0.24849 0.22669 0.0
C1337 C 0.25637 0.26582 0.22747 0.0
C1338 C 0.37465 0.25836 0.21736 0.0
C1339 C 0.32031 0.18903 0.23211 0.0
O1340 O 0.42436 0.20144 0.23128 0.0
O1341 O 0.45162 0.23798 0.2424 0.0
O1342 O 0.3936 0.27682 0.24246 0.0
O1343 O 0.37712 0.2257 0.24847 0.0
O1344 O 0.45073 0.2946 0.23097 0.0
O1345 O 0.41982 0.32968 0.23268 0.0
O1346 O 0.32327 0.28266 0.24108 0.0
O1347 O 0.33944 0.31686 0.22935 0.0
O1348 O 0.38459 0.25322 0.22476 0.0
O1349 O 0.35668 0.27715 0.21829 0.0
O1350 O 0.31664 0.21957 0.2333 0.0
O1351 O 0.35376 0.19093 0.23189 0.0
H1352 H 0.47378 0.19615 0.22173 0.0
H1353 H 0.52791 0.18602 0.21942 0.0
H1354 H 0.56314 0.2179 0.24583 0.0
H1355 H 0.50882 0.22741 0.24816 0.0
H1356 H 0.26799 0.31414 0.24623 0.0
H1357 H 0.19855 0.2843 0.24486 0.0
H1358 H 0.20263 0.22963 0.22129 0.0
H1359 H 0.2722 0.25974 0.2227 0.0
Tb1360 Tb 0.86153 0.20143 0.23552 0.0
Tb1361 Tb 0.82322 0.11503 0.23172 0.0
C1362 C 0.88711 0.27203 0.23739 0.0
C1363 C 0.89192 0.30904 0.23439 0.0
C1364 C 0.86107 0.31569 0.23357 0.0
C1365 C 0.86763 0.35272 0.23207 0.0
C1366 C 0.90515 0.38396 0.23147 0.0
C1367 C 0.93575 0.37685 0.23202 0.0
C1368 C 0.92921 0.33997 0.23345 0.0
C1369 C 0.84133 0.153 0.24881 0.0
C1370 C 0.77483 0.156 0.22985 0.0
C1371 C 0.80045 0.04653 0.23524 0.0
C1372 C 0.81607 1.02096 0.23379 0.0
C1373 C 0.80916 0.99284 0.23993 0.0
C1374 C 0.82729 0.97121 0.23929 0.0
C1375 C 0.85279 0.97725 0.23249 0.0
C1376 C 0.85921 1.00514 0.22627 0.0
C1377 C 0.84124 0.02698 0.22695 0.0
C1378 C 0.84833 0.15221 0.21702 0.0
C1379 C 0.91446 0.16794 0.2323 0.0
O1380 O 0.90523 0.2577 0.23325 0.0
O1381 O 0.85405 0.24572 0.24043 0.0
O1382 O 0.82376 0.14954 0.24196 0.0
O1383 O 0.87264 0.1855 0.24856 0.0
O1384 O 0.80768 0.1887 0.22948 0.0
O1385 O 0.7733 0.12313 0.23169 0.0
O1386 O 0.82089 0.07481 0.24048 0.0
O1387 O 0.78854 0.05722 0.22847 0.0
O1388 O 0.85105 0.1665 0.22443 0.0
O1389 O 0.8307 0.11545 0.2178 0.0
O1390 O 0.88448 0.13343 0.23355 0.0
O1391 O 0.91106 0.1985 0.23169 0.0
H1392 H 0.832 0.29257 0.23435 0.0
H1393 H 0.84335 0.35711 0.23172 0.0
H1394 H 0.96496 0.39997 0.23146 0.0
H1395 H 0.95357 0.33585 0.23414 0.0
H1396 H 0.79032 0.98815 0.24533 0.0
H1397 H 0.82129 0.94968 0.24413 0.0
H1398 H 0.87892 1.01078 0.221 0.0
H1399 H 0.84768 0.04914 0.22224 0.0
Tb1400 Tb 0.90165 0.69672 0.23598 0.0
Tb1401 Tb 0.98841 0.7422 0.23203 0.0
C1402 C 0.83058 0.65371 0.23793 0.0
C1403 C 0.79355 0.62114 0.23508 0.0
C1404 C 0.78742 0.58397 0.23421 0.0
C1405 C 0.75041 0.5532 0.23273 0.0
C1406 C 0.7188 0.55893 0.23221 0.0
C1407 C 0.72543 0.59635 0.23281 0.0
C1408 C 0.76226 0.62696 0.23421 0.0
C1409 C 0.95062 0.72497 0.24916 0.0
C1410 C 0.94462 0.65251 0.23058 0.0
C1411 C 0.05767 0.7867 0.23537 0.0
C1412 C 0.08398 0.82755 0.23376 0.0
C1413 C 0.11939 0.8461 0.23795 0.0
C1414 C 0.14285 0.88565 0.2373 0.0
C1415 C 0.13129 0.90758 0.23247 0.0
C1416 C 0.09579 0.88871 0.2282 0.0
C1417 C 0.07236 0.84908 0.22885 0.0
C1418 C 0.95086 0.73034 0.2174 0.0
C1419 C 0.93776 0.78306 0.23245 0.0
O1420 O 0.84578 0.68483 0.23328 0.0
O1421 O 0.85629 0.64722 0.24144 0.0
O1422 O 0.9534 0.70987 0.2424 0.0
O1423 O 0.91862 0.72492 0.24886 0.0
O1424 O 0.91239 0.6537 0.23034 0.0
O1425 O 0.97837 0.68354 0.23211 0.0
O1426 O 1.02971 0.77982 0.24065 0.0
O1427 O 0.04608 0.76385 0.22865 0.0
O1428 O 0.93668 0.71956 0.22484 0.0
O1429 O 0.98777 0.74847 0.2181 0.0
O1430 O 0.97195 0.78656 0.23366 0.0
O1431 O 0.90634 0.74963 0.23203 0.0
H1432 H 0.81091 0.57851 0.23491 0.0
H1433 H 0.74636 0.52474 0.23235 0.0
H1434 H 0.70197 0.60197 0.2323 0.0
H1435 H 0.76611 0.65526 0.23492 0.0
H1436 H 0.12853 0.8301 0.24191 0.0
H1437 H 0.16965 0.89916 0.24078 0.0
H1438 H 0.08611 0.90454 0.22436 0.0
H1439 H 0.04484 0.83533 0.22565 0.0
H1440 H 0.45564 0.2029 0.11432 0.0
H1441 H 0.38397 0.08896 0.12399 0.0
H1442 H 0.48367 0.1784 0.10376 0.0
H1443 H 0.41114 0.06455 0.11339 0.0
H1444 H 0.54882 0.11454 0.09311 0.0
H1445 H 0.52479 0.14216 0.10391 0.0
H1446 H 0.40907 0.06107 0.09657 0.0
H1447 H 0.4329 0.03436 0.08574 0.0
C1448 C 0.44576 0.17267 0.11416 0.0
C1449 C 0.41748 0.14785 0.11996 0.0
C1450 C 0.462 0.15869 0.10817 0.0
C1451 C 0.44963 0.1195 0.10773 0.0
C1452 C 0.4212 0.09482 0.11352 0.0
C1453 C 0.40562 0.10884 0.11959 0.0
C1454 C 0.51829 0.10261 0.09386 0.0
C1455 C 0.49275 0.07217 0.08861 0.0
C1456 C 0.50454 0.11859 0.09998 0.0
C1457 C 0.46498 0.10378 0.1011 0.0
C1458 C 0.43964 0.07301 0.09591 0.0
C1459 C 0.45333 0.0577 0.08971 0.0
H1460 H 1.01032 0.32615 0.12324 0.0
H1461 H 0.89507 0.28529 0.11443 0.0
H1462 H 0.03412 0.37784 0.11275 0.0
H1463 H 0.91906 0.33795 0.1039 0.0
H1464 H 0.98391 0.4674 0.09344 0.0
H1465 H 0.95614 0.41508 0.10408 0.0
H1466 H 0.03638 0.38027 0.09614 0.0
H1467 H 0.06334 0.43152 0.08554 0.0
C1468 C 0.99005 0.32816 0.11902 0.0
C1469 C 0.95084 0.30145 0.11962 0.0
C1470 C 1.0037 0.35785 0.11301 0.0
C1471 C 0.97853 0.36213 0.10749 0.0
C1472 C 0.93915 0.33558 0.10811 0.0
C1473 C 0.92546 0.30525 0.11406 0.0
C1474 C 0.99567 0.44866 0.09405 0.0
C1475 C 1.02597 0.45371 0.0887 0.0
C1476 C 0.97956 0.41852 0.10006 0.0
C1477 C 0.99405 0.39348 0.10095 0.0
C1478 C 1.02466 0.39909 0.09566 0.0
C1479 C 0.04016 0.42854 0.0896 0.0
H1480 H 0.63116 0.551 0.09473 0.0
H1481 H 0.67145 0.66548 0.0857 0.0
H1482 H 0.68432 0.57541 0.10515 0.0
H1483 H 0.72375 0.68972 0.09609 0.0
H1484 H 0.81314 0.63953 0.11576 0.0
H1485 H 0.7608 0.61171 0.10511 0.0
H1486 H 0.72709 0.69319 0.11257 0.0
H1487 H 0.77842 0.72024 0.12318 0.0
C1488 C 0.65118 0.58132 0.09501 0.0
C1489 C 0.64701 0.60635 0.08943 0.0
C1490 C 0.68178 0.59525 0.1009 0.0
C1491 C 0.70829 0.63454 0.10145 0.0
C1492 C 0.70378 0.65938 0.09588 0.0
C1493 C 0.67377 0.64546 0.08993 0.0
C1494 C 0.79463 0.65154 0.11506 0.0
C1495 C 0.80002 0.6822 0.12027 0.0
C1496 C 0.76449 0.63543 0.10903 0.0
C1497 C 0.73977 0.65027 0.10798 0.0
C1498 C 0.7457 0.68123 0.11315 0.0
C1499 C 0.77516 0.69676 0.11923 0.0
H1500 H 0.12692 0.54045 0.44739 0.0
H1501 H 0.05237 0.42655 0.45674 0.0
H1502 H 0.15505 0.51526 0.437 0.0
H1503 H 0.07976 0.40155 0.44639 0.0
H1504 H 0.10314 0.36906 0.41947 0.0
H1505 H 0.07933 0.39702 0.42994 0.0
H1506 H 0.19503 0.47857 0.43721 0.0
H1507 H 0.21908 0.44982 0.4267 0.0
C1508 C 0.11634 0.5101 0.44717 0.0
C1509 C 0.08727 0.48546 0.45284 0.0
C1510 C 0.13268 0.49572 0.4413 0.0
C1511 C 0.11968 0.45636 0.44087 0.0
C1512 C 0.09033 0.43193 0.4465 0.0
C1513 C 0.07458 0.44627 0.45243 0.0
C1514 C 0.12358 0.39272 0.42336 0.0
C1515 C 0.163 0.407 0.4223 0.0
C1516 C 0.10991 0.4088 0.42936 0.0
C1517 C 0.13521 0.44009 0.43442 0.0
C1518 C 0.17479 0.45463 0.43337 0.0
C1519 C 0.18856 0.43796 0.42743 0.0
H1520 H 0.67634 0.65613 0.45558 0.0
H1521 H 0.56081 0.62799 0.4498 0.0
H1522 H 0.70056 0.70756 0.44505 0.0
H1523 H 0.58521 0.6801 0.43914 0.0
H1524 H 0.65329 0.80566 0.42755 0.0
H1525 H 0.62545 0.75371 0.43825 0.0
H1526 H 0.70028 0.71378 0.42923 0.0
H1527 H 0.72769 0.76507 0.41869 0.0
C1528 C 0.65605 0.6608 0.45199 0.0
C1529 C 0.61664 0.63783 0.45349 0.0
C1530 C 0.66996 0.69035 0.44594 0.0
C1531 C 0.64493 0.69812 0.44121 0.0
C1532 C 0.60534 0.67512 0.44271 0.0
C1533 C 0.59131 0.64502 0.44873 0.0
C1534 C 0.66386 0.78588 0.42793 0.0
C1535 C 0.69282 0.78961 0.4223 0.0
C1536 C 0.64768 0.7559 0.43399 0.0
C1537 C 0.66062 0.72947 0.43463 0.0
C1538 C 0.68982 0.73369 0.42901 0.0
C1539 C 0.70556 0.76316 0.42295 0.0
H1540 H 0.33439 1.00023 0.41916 0.0
H1541 H 0.29804 0.88522 0.42716 0.0
H1542 H 0.38617 0.02461 0.42966 0.0
H1543 H 0.35096 0.90986 0.43769 0.0
H1544 H 0.4827 0.97959 0.44742 0.0
H1545 H 0.42863 0.95001 0.43723 0.0
H1546 H 0.38931 0.02505 0.44631 0.0
H1547 H 0.44241 0.05385 0.45647 0.0
C1548 C 0.33736 0.98012 0.42322 0.0
C1549 C 0.31188 0.9408 0.42238 0.0
C1550 C 0.36712 0.99413 0.42923 0.0
C1551 C 0.37279 0.96924 0.43451 0.0
C1552 C 0.34745 0.92975 0.43368 0.0
C1553 C 0.31697 0.91566 0.42773 0.0
C1554 C 0.46249 0.98972 0.44719 0.0
C1555 C 0.46695 1.01922 0.45271 0.0
C1556 C 0.43137 0.97257 0.44143 0.0
C1557 C 0.40463 0.98518 0.44096 0.0
C1558 C 0.40941 1.01476 0.44647 0.0
C1559 C 0.4399 0.03131 0.45229 0.0
H1560 H 0.67726 0.05096 0.95575 0.0
H1561 H 0.5607 0.97018 0.94897 0.0
H1562 H 0.70012 0.02286 0.94507 0.0
H1563 H 0.58378 0.94131 0.93826 0.0
H1564 H 0.7253 0.99331 0.91819 0.0
H1565 H 0.6983 1.01827 0.92863 0.0
H1566 H 0.6235 0.90458 0.93809 0.0
H1567 H 0.65118 0.87939 0.9276 0.0
C1568 C 0.65648 0.02726 0.95192 0.0
C1569 C 0.61717 1.013 0.95316 0.0
C1570 C 0.6696 1.01111 0.9458 0.0
C1571 C 0.64383 0.9798 0.9408 0.0
C1572 C 0.60437 0.96527 0.94205 0.0
C1573 C 0.59115 0.982 0.9481 0.0
C1574 C 0.70315 0.97353 0.9225 0.0
C1575 C 0.69057 0.93437 0.92209 0.0
C1576 C 0.68768 0.98789 0.92849 0.0
C1577 C 0.65873 0.96348 0.93421 0.0
C1578 C 0.6456 0.92411 0.93374 0.0
C1579 C 0.66165 0.90973 0.9278 0.0
H1580 H 0.10211 0.76329 0.91947 0.0
H1581 H 0.21772 0.80011 0.92739 0.0
H1582 H 0.07815 0.71063 0.92971 0.0
H1583 H 0.19356 0.7465 0.93766 0.0
H1584 H 0.12719 0.61625 0.9474 0.0
H1585 H 0.15489 0.66971 0.93706 0.0
H1586 H 0.07741 0.706 0.94624 0.0
H1587 H 0.05047 0.65353 0.95654 0.0
C1588 C 0.12242 0.76022 0.92346 0.0
C1589 C 0.16178 0.78604 0.92268 0.0
C1590 C 0.10868 0.72996 0.92931 0.0
C1591 C 0.13391 0.72424 0.93449 0.0
C1592 C 0.17343 0.74998 0.93371 0.0
C1593 C 0.18723 0.78087 0.92792 0.0
C1594 C 0.116 0.63555 0.94713 0.0
C1595 C 0.0865 0.63056 0.95273 0.0
C1596 C 0.13209 0.66634 0.94129 0.0
C1597 C 0.11837 0.69215 0.94084 0.0
C1598 C 0.08851 0.6866 0.94638 0.0
C1599 C 0.07302 0.65646 0.95227 0.0
H1600 H 0.44528 0.42578 0.9567 0.0
H1601 H 0.4834 0.54095 0.94852 0.0
H1602 H 0.39389 0.40185 0.94607 0.0
H1603 H 0.43096 0.51684 0.93791 0.0
H1604 H 0.30073 0.44905 0.9275 0.0
H1605 H 0.35329 0.4773 0.93807 0.0
H1606 H 0.39286 0.40217 0.92922 0.0
H1607 H 0.34129 0.37475 0.91862 0.0
C1608 C 0.44262 0.44603 0.95263 0.0
C1609 C 0.46859 0.48526 0.95342 0.0
C1610 C 0.41316 0.43229 0.94653 0.0
C1611 C 0.4083 0.45739 0.94113 0.0
C1612 C 0.43386 0.49678 0.942 0.0
C1613 C 0.46401 0.51056 0.94802 0.0
C1614 C 0.32073 0.43867 0.92783 0.0
C1615 C 0.31678 0.40958 0.92225 0.0
C1616 C 0.35093 0.45501 0.93383 0.0
C1617 C 0.37723 0.44193 0.9345 0.0
C1618 C 0.37303 0.41275 0.92892 0.0
C1619 C 0.34347 0.39707 0.92284 0.0
H1620 H 0.8962 0.64189 0.61464 0.0
H1621 H 1.01184 0.72124 0.62237 0.0
H1622 H 0.92054 0.61298 0.60424 0.0
H1623 H 0.03593 0.69311 0.61201 0.0
H1624 H 0.06425 0.66437 0.58525 0.0
H1625 H 0.03666 0.68937 0.59554 0.0
H1626 H 0.95982 0.57546 0.60461 0.0
H1627 H 0.98819 0.55026 0.59428 0.0
C1628 C 0.92672 0.65339 0.61405 0.0
C1629 C 0.95211 0.68401 0.61928 0.0
C1630 C 0.94064 0.63663 0.60817 0.0
C1631 C 0.98023 0.65073 0.6073 0.0
C1632 C 1.00537 0.68167 0.61247 0.0
C1633 C 0.99152 0.69784 0.6184 0.0
C1634 C 0.04169 0.64461 0.58949 0.0
C1635 C 1.02863 0.60536 0.589 0.0
C1636 C 1.02581 0.65895 0.59538 0.0
C1637 C 0.99595 0.63447 0.60089 0.0
C1638 C 0.9826 0.59505 0.6004 0.0
C1639 C 0.99908 0.58066 0.59457 0.0
H1640 H 0.54888 0.46797 0.59359 0.0
H1641 H 0.43302 0.42923 0.58555 0.0
H1642 H 0.52515 0.41587 0.60426 0.0
H1643 H 0.4095 0.37816 0.5962 0.0
H1644 H 0.45839 0.28637 0.6149 0.0
H1645 H 0.48611 0.33841 0.6042 0.0
H1646 H 0.40956 0.37671 0.61288 0.0
H1647 H 0.38266 0.32571 0.62355 0.0
C1648 C 0.51843 0.44862 0.59416 0.0
C1649 C 0.49281 0.45286 0.58877 0.0
C1650 C 0.50487 0.4186 0.6002 0.0
C1651 C 0.4654 0.39282 0.60108 0.0
C1652 C 0.43999 0.39755 0.59573 0.0
C1653 C 0.4535 0.4269 0.58964 0.0
C1654 C 0.44745 0.30584 0.61446 0.0
C1655 C 0.41818 0.30179 0.62003 0.0
C1656 C 0.46355 0.33582 0.60841 0.0
C1657 C 0.45006 0.36175 0.6077 0.0
C1658 C 0.4205 0.3572 0.61322 0.0
C1659 C 0.40503 0.32789 0.61933 0.0
H1660 H 0.81772 0.20525 0.61404 0.0
H1661 H 0.77708 0.08993 0.62248 0.0
H1662 H 0.76514 0.18171 0.60345 0.0
H1663 H 0.72563 0.06659 0.6119 0.0
H1664 H 0.67129 0.03859 0.58475 0.0
H1665 H 0.72378 0.06604 0.59509 0.0
H1666 H 0.68696 0.14344 0.60389 0.0
H1667 H 0.63345 0.1152 0.59354 0.0
C1668 C 0.79788 0.17495 0.61357 0.0
C1669 C 0.80169 0.14942 0.61906 0.0
C1670 C 0.7676 0.16151 0.60758 0.0
C1671 C 0.74118 0.12224 0.60683 0.0
C1672 C 0.74552 0.09692 0.61226 0.0
C1673 C 0.77508 0.11033 0.61832 0.0
C1674 C 0.67423 0.06139 0.5889 0.0
C1675 C 0.64804 0.07455 0.58835 0.0
C1676 C 0.70436 0.07714 0.59483 0.0
C1677 C 0.70966 0.10699 0.60031 0.0
C1678 C 0.6838 0.12065 0.59971 0.0
C1679 C 0.65301 0.10429 0.59385 0.0
H1680 H 0.87923 0.7744 0.75995 0.0
H1681 H 0.76346 0.6985 0.75171 0.0
H1682 H 0.85574 0.80369 0.77042 0.0
H1683 H 0.74006 0.72688 0.76225 0.0
H1684 H 0.71475 0.7559 0.7897 0.0
H1685 H 0.74069 0.72975 0.77922 0.0
H1686 H 0.8173 0.84288 0.7697 0.0
H1687 H 0.79047 0.86914 0.78012 0.0
C1688 C 0.84881 0.76378 0.76043 0.0
C1689 C 0.82316 0.73403 0.75505 0.0
C1690 C 0.83541 0.78072 0.76636 0.0
C1691 C 0.79602 0.76757 0.76716 0.0
C1692 C 0.7705 0.73753 0.76183 0.0
C1693 C 0.78392 0.72126 0.7558 0.0
C1694 C 0.73701 0.77523 0.78534 0.0
C1695 C 0.75041 0.81456 0.7857 0.0
C1696 C 0.75186 0.76023 0.77934 0.0
C1697 C 0.78109 0.78422 0.77364 0.0
C1698 C 0.79494 0.8237 0.77405 0.0
C1699 C 0.77942 0.83869 0.77996 0.0
H1700 H 0.34332 0.99089 0.79032 0.0
H1701 H 0.2285 0.95393 0.78175 0.0
H1702 H 0.36846 0.0418 0.77963 0.0
H1703 H 0.25385 1.00574 0.771 0.0
H1704 H 0.32033 0.13323 0.76008 0.0
H1705 H 0.29155 0.08107 0.7707 0.0
H1706 H 0.37204 0.04572 0.76332 0.0
H1707 H 0.40011 0.09706 0.75272 0.0
C1708 C 0.32341 0.99357 0.7861 0.0
C1709 C 0.28392 0.96823 0.78685 0.0
C1710 C 0.33785 0.02279 0.77997 0.0
C1711 C 0.31323 0.02795 0.77445 0.0
C1712 C 0.27357 1.0027 0.7752 0.0
C1713 C 0.25907 0.97285 0.78128 0.0
C1714 C 0.33193 0.11441 0.7608 0.0
C1715 C 0.36261 0.11935 0.75561 0.0
C1716 C 0.31523 0.08433 0.7668 0.0
C1717 C 0.32948 0.05916 0.76786 0.0
C1718 C 0.3605 0.06464 0.76272 0.0
C1719 C 0.37664 0.09412 0.75665 0.0
H1720 H 0.9613 0.21456 0.76042 0.0
H1721 H 0.99904 0.32959 0.75219 0.0
H1722 H 1.01284 0.23906 0.77127 0.0
H1723 H 0.04945 0.35389 0.76306 0.0
H1724 H 0.14327 0.30767 0.78157 0.0
H1725 H 0.09033 0.27879 0.77111 0.0
H1726 H 0.05077 0.35409 0.77985 0.0
H1727 H 0.1028 0.38218 0.79034 0.0
C1728 C 0.98027 0.245 0.76099 0.0
C1729 C 0.976 0.27016 0.75549 0.0
C1730 C 1.00993 0.259 0.76714 0.0
C1731 C 0.03522 0.29846 0.76803 0.0
C1732 C 1.03038 0.32342 0.76259 0.0
C1733 C 1.00145 0.30947 0.75636 0.0
C1734 C 0.12321 0.31796 0.78124 0.0
C1735 C 0.1273 0.34732 0.78675 0.0
C1736 C 0.09276 0.30124 0.77531 0.0
C1737 C 0.06633 0.31415 0.77465 0.0
C1738 C 0.07068 0.34359 0.78016 0.0
C1739 C 0.10051 0.35969 0.78617 0.0
H1740 H 0.2302 0.30889 0.28171 0.0
H1741 H 0.34567 0.38496 0.2901 0.0
H1742 H 0.25426 0.27995 0.27125 0.0
H1743 H 0.3695 0.35667 0.27973 0.0
H1744 H 0.39999 0.33085 0.25302 0.0
H1745 H 0.37268 0.3553 0.26348 0.0
H1746 H 0.29081 0.24048 0.2711 0.0
H1747 H 0.31883 0.21574 0.26055 0.0
C1748 C 0.26065 0.31962 0.28127 0.0
C1749 C 0.28605 0.34937 0.28669 0.0
C1750 C 0.2744 0.30281 0.27536 0.0
C1751 C 0.31386 0.31596 0.27465 0.0
C1752 C 0.33903 0.34596 0.28004 0.0
C1753 C 0.32534 0.36224 0.28599 0.0
C1754 C 0.37639 0.31071 0.25698 0.0
C1755 C 0.36182 0.27134 0.25601 0.0
C1756 C 0.36067 0.32477 0.26298 0.0
C1757 C 0.32951 0.29993 0.26815 0.0
C1758 C 0.31465 0.26038 0.26718 0.0
C1759 C 0.33093 0.24622 0.26122 0.0
H1760 H 0.7159 0.99277 0.28982 0.0
H1761 H 0.79197 0.95418 0.28099 0.0
H1762 H 0.74339 0.04482 0.2794 0.0
H1763 H 0.82035 1.00732 0.27057 0.0
H1764 H 0.88362 0.13842 0.26069 0.0
H1765 H 0.85936 0.08544 0.27115 0.0
H1766 H 0.74428 0.04722 0.26258 0.0
H1767 H 0.76833 0.09908 0.25212 0.0
C1768 C 0.73847 0.99535 0.28561 0.0
C1769 C 0.75151 0.96912 0.28619 0.0
C1770 C 0.75429 0.02528 0.27965 0.0
C1771 C 0.78416 0.03037 0.27416 0.0
C1772 C 0.79756 1.00433 0.27475 0.0
C1773 C 0.78108 0.97371 0.28064 0.0
C1774 C 0.85317 0.11878 0.26111 0.0
C1775 C 0.82787 0.1231 0.25562 0.0
C1776 C 0.83932 0.08826 0.26702 0.0
C1777 C 0.79985 0.06206 0.26769 0.0
C1778 C 0.77476 0.0669 0.26227 0.0
C1779 C 0.78857 0.09672 0.25628 0.0
H1780 H 1.00358 0.70472 0.2525 0.0
H1781 H 0.96649 0.78239 0.26093 0.0
H1782 H 0.05572 0.73202 0.26292 0.0
H1783 H 1.01966 0.81047 0.27138 0.0
H1784 H 0.15005 0.87238 0.28157 0.0
H1785 H 0.09699 0.84843 0.2711 0.0
H1786 H 0.05891 0.73348 0.27947 0.0
H1787 H 0.11094 0.7572 0.2899 0.0
C1788 C 1.0065 0.72759 0.25663 0.0
C1789 C 0.98071 0.74118 0.25594 0.0
C1790 C 0.03647 0.74329 0.26259 0.0
C1791 C 0.04197 0.77349 0.26798 0.0
C1792 C 1.01634 0.78741 0.26728 0.0
C1793 C 0.98571 0.77111 0.26137 0.0
C1794 C 0.13043 0.84203 0.2811 0.0
C1795 C 0.13482 0.81666 0.28651 0.0
C1796 C 0.09986 0.82835 0.27518 0.0
C1797 C 0.07368 0.78901 0.27445 0.0
C1798 C 0.07859 0.76387 0.27982 0.0
C1799 C 0.1085 0.77749 0.28579 0.0
H1800 H 0.47981 0.05429 0.03431 0.0
H1801 H 0.56632 0.03898 0.0469 0.0
H1802 H 0.50194 0.04677 1.02033 0.0
H1803 H 0.59005 0.033 0.03275 0.0
H1804 H 0.60042 0.98858 1.00654 0.0
H1805 H 0.57746 0.99439 1.02057 0.0
H1806 H 0.55073 0.07726 1.01015 0.0
H1807 H 0.57248 0.06991 0.99589 0.0
C1808 C 0.50372 0.04928 0.03407 0.0
C1809 C 0.52128 0.04707 0.0417 0.0
C1810 C 0.51676 0.04543 0.02601 0.0
C1811 C 0.5482 0.03979 0.02531 0.0
C1812 C 0.56549 0.03693 0.033 0.0
C1813 C 0.55199 0.04031 0.04112 0.0
C1814 C 0.58953 1.00802 1.00723 0.0
C1815 C 0.58817 0.02877 1.00011 0.0
C1816 C 0.57666 1.01162 1.01533 0.0
C1817 C 0.56234 0.03645 1.0166 0.0
C1818 C 0.56101 0.05737 1.00944 0.0
C1819 C 0.57359 0.05338 1.00125 0.0
H1820 H 0.0561 0.52628 0.99479 0.0
H1821 H 0.08458 0.63359 1.00661 0.0
H1822 H 0.04707 0.4976 1.00916 0.0
H1823 H 0.07409 0.60518 1.02077 0.0
H1824 H 0.08785 0.55461 0.04578 0.0
H1825 H 0.09904 0.58288 0.03134 0.0
H1826 H 1.00735 0.47687 0.0213 0.0
H1827 H 0.9977 0.44871 0.03551 0.0
C1828 C 0.05991 0.54352 1.00044 0.0
C1829 C 0.07108 0.5821 0.99957 0.0
C1830 C 0.0547 0.52721 1.00869 0.0
C1831 C 0.06011 0.54911 1.01622 0.0
C1832 C 0.07058 0.58752 1.01523 0.0
C1833 C 0.07621 0.60375 1.00705 0.0
C1834 C 0.07013 0.53764 0.04046 0.0
C1835 C 0.042 0.49954 0.04176 0.0
C1836 C 0.07638 0.55371 0.03217 0.0
C1837 C 0.05422 0.53213 0.02505 0.0
C1838 C 1.02565 0.49422 0.02649 0.0
C1839 C 1.01983 0.47816 0.0347 0.0
H1840 H 0.54218 0.52257 0.04679 0.0
H1841 H 0.62951 0.63056 0.03669 0.0
H1842 H 0.52168 0.49979 0.03203 0.0
H1843 H 0.61127 0.60753 0.02216 0.0
H1844 H 0.5519 0.56951 0.99646 0.0
H1845 H 0.56872 0.59243 1.01119 0.0
H1846 H 0.53776 0.4788 1.01959 0.0
H1847 H 0.51867 0.45577 1.00488 0.0
C1848 C 0.55687 0.54141 0.04143 0.0
C1849 C 0.58746 0.57828 0.04292 0.0
C1850 C 0.54554 0.52828 0.03295 0.0
C1851 C 0.56492 0.55162 0.0258 0.0
C1852 C 0.59501 0.58874 0.0274 0.0
C1853 C 0.60576 0.60194 0.0358 0.0
C1854 C 0.5493 0.54963 1.00144 0.0
C1855 C 0.53427 0.51094 0.99953 0.0
C1856 C 0.55891 0.5627 1.00993 0.0
C1857 C 0.55455 0.53755 1.01671 0.0
C1858 C 0.54072 0.49899 1.01466 0.0
C1859 C 0.53037 0.48583 1.0062 0.0
H1860 H 0.99326 0.57112 0.53619 0.0
H1861 H 0.08817 0.56213 0.54608 0.0
H1862 H 1.00362 0.55375 0.52191 0.0
H1863 H 0.09994 0.54614 0.53157 0.0
H1864 H 0.08811 0.4825 0.50672 0.0
H1865 H 0.07699 0.49912 0.52096 0.0
H1866 H 0.04287 0.57503 0.50966 0.0
H1867 H 0.05262 0.55667 0.49519 0.0
C1868 C 1.01651 0.56541 0.53529 0.0
C1869 C 0.03985 0.56783 0.54226 0.0
C1870 C 1.02274 0.55588 0.52704 0.0
C1871 C 0.05288 0.54888 0.52547 0.0
C1872 C 0.0761 0.55087 0.53251 0.0
C1873 C 0.06948 0.56002 0.54084 0.0
C1874 C 0.0781 0.50272 0.50724 0.0
C1875 C 0.0712 0.51829 0.49981 0.0
C1876 C 0.07209 0.51257 0.51546 0.0
C1877 C 0.05937 0.53877 0.51657 0.0
C1878 C 0.05227 0.55438 0.5091 0.0
C1879 C 0.05793 0.54406 0.5008 0.0
H1880 H 0.63454 0.63417 0.50771 0.0
H1881 H 0.54698 0.53337 0.49508 0.0
H1882 H 0.61196 0.60459 0.52169 0.0
H1883 H 0.52298 0.50372 0.50921 0.0
H1884 H 0.51354 0.44824 0.5353 0.0
H1885 H 0.53622 0.4773 0.5213 0.0
H1886 H 0.56277 0.58648 0.53189 0.0
H1887 H 0.54114 0.55705 0.54613 0.0
C1888 C 0.61032 0.60548 0.50794 0.0
C1889 C 0.59262 0.58596 0.5003 0.0
C1890 C 0.59705 0.58866 0.51599 0.0
C1891 C 0.56529 0.55186 0.51667 0.0
C1892 C 0.54779 0.53199 0.50898 0.0
C1893 C 0.56146 0.54883 0.50086 0.0
C1894 C 0.52428 0.47853 0.53466 0.0
C1895 C 0.5256 0.50042 0.54183 0.0
C1896 C 0.53699 0.49516 0.52657 0.0
C1897 C 0.55117 0.53427 0.52536 0.0
C1898 C 0.5525 0.55632 0.53256 0.0
C1899 C 0.54001 0.53957 0.54073 0.0
H1900 H 0.56531 0.07908 0.54548 0.0
H1901 H 0.59807 0.99833 0.53689 0.0
H1902 H 0.54843 0.08557 0.53077 0.0
H1903 H 0.57889 1.00262 0.52222 0.0
H1904 H 0.57426 0.04206 0.4951 0.0
H1905 H 0.59507 0.03987 0.50983 0.0
H1906 H 0.50579 0.05854 0.5198 0.0
H1907 H 0.48727 0.06327 0.50529 0.0
C1908 C 0.56778 0.06183 0.54046 0.0
C1909 C 0.5827 0.03799 0.54232 0.0
C1910 C 0.55814 0.06551 0.53199 0.0
C1911 C 0.56236 0.04476 0.52518 0.0
C1912 C 0.57605 1.01984 0.52717 0.0
C1913 C 0.58645 1.01682 0.53562 0.0
C1914 C 0.55973 0.04637 0.50047 0.0
C1915 C 0.5291 0.05273 0.49902 0.0
C1916 C 0.57122 0.04462 0.50893 0.0
C1917 C 0.55197 0.04868 0.51611 0.0
C1918 C 0.52193 0.0559 0.51455 0.0
C1919 C 0.51102 0.05832 0.50616 0.0
H1920 H 0.25732 0.32165 0.33963 0.0
H1921 H 0.24183 0.41206 0.32947 0.0
H1922 H 0.23559 0.32883 0.35367 0.0
H1923 H 0.22132 0.42069 0.34379 0.0
H1924 H 0.15138 0.40123 0.36822 0.0
H1925 H 0.17206 0.39361 0.35406 0.0
H1926 H 0.25295 0.36737 0.36594 0.0
H1927 H 0.23067 0.37354 0.38023 0.0
C1928 C 0.24939 0.34335 0.34043 0.0
C1929 C 0.25133 0.36638 0.33345 0.0
C1930 C 0.23727 0.34773 0.34854 0.0
C1931 C 0.2271 0.37566 0.34998 0.0
C1932 C 0.22858 0.39856 0.34294 0.0
C1933 C 0.24037 0.3938 0.33472 0.0
C1934 C 0.17345 0.39356 0.36782 0.0
C1935 C 0.18929 0.38775 0.37534 0.0
C1936 C 0.18564 0.38962 0.35966 0.0
C1937 C 0.21444 0.38014 0.35877 0.0
C1938 C 0.23029 0.37417 0.36633 0.0
C1939 C 0.21766 0.37771 0.37454 0.0
H1940 H 0.72688 0.89184 0.38009 0.0
H1941 H 0.70023 0.78522 0.36818 0.0
H1942 H 0.734 0.92024 0.36575 0.0
H1943 H 0.70878 0.81343 0.35401 0.0
H1944 H 0.69148 0.86349 0.32921 0.0
H1945 H 0.68195 0.83501 0.34362 0.0
H1946 H 0.77316 0.94164 0.35352 0.0
H1947 H 0.78122 0.96993 0.33937 0.0
C1948 C 0.7231 0.87472 0.37442 0.0
C1949 C 0.71305 0.83641 0.37525 0.0
C1950 C 0.7272 0.89087 0.36619 0.0
C1951 C 0.72175 0.8691 0.35864 0.0
C1952 C 0.71233 0.83095 0.35958 0.0
C1953 C 0.70783 0.81486 0.36775 0.0
C1954 C 0.70941 0.88057 0.33449 0.0
C1955 C 0.73695 0.91887 0.33318 0.0
C1956 C 0.70413 0.86437 0.34276 0.0
C1957 C 0.72664 0.88607 0.34983 0.0
C1958 C 0.7546 0.92418 0.34836 0.0
C1959 C 0.75949 0.94033 0.34019 0.0
H1960 H 0.23907 0.88736 0.32858 0.0
H1961 H 0.13285 0.80627 0.34061 0.0
H1962 H 0.2675 0.90976 0.34288 0.0
H1963 H 0.16113 0.82702 0.35476 0.0
H1964 H 0.20987 0.89635 0.37933 0.0
H1965 H 0.18161 0.87602 0.36494 0.0
H1966 H 0.2897 0.8939 0.35525 0.0
H1967 H 0.31776 0.91553 0.36937 0.0
C1968 C 0.22209 0.87397 0.33427 0.0
C1969 C 0.18384 0.84515 0.33349 0.0
C1970 C 0.23824 0.88668 0.34248 0.0
C1971 C 0.21655 0.87043 0.35005 0.0
C1972 C 0.17855 0.84099 0.34916 0.0
C1973 C 0.16243 0.82875 0.34101 0.0
C1974 C 0.22733 0.89579 0.3741 0.0
C1975 C 0.26595 0.90761 0.37546 0.0
C1976 C 0.21125 0.88405 0.36585 0.0
C1977 C 0.23341 0.88346 0.35884 0.0
C1978 C 0.27187 0.89477 0.36035 0.0
C1979 C 0.2879 0.90684 0.36851 0.0
H1980 H 0.76298 0.90624 0.82924 0.0
H1981 H 0.67535 0.79367 0.83677 0.0
H1982 H 0.76836 0.9277 0.84412 0.0
H1983 H 0.67864 0.81528 0.85156 0.0
H1984 H 0.71458 0.85269 0.87913 0.0
H1985 H 0.71382 0.83201 0.86424 0.0
H1986 H 0.74214 0.944 0.85516 0.0
H1987 H 0.74536 0.9648 0.86986 0.0
C1988 C 0.744 0.88643 0.83405 0.0
C1989 C 0.71852 0.84842 0.83185 0.0
C1990 C 0.74706 0.89862 0.84262 0.0
C1991 C 0.72413 0.87324 0.84918 0.0
C1992 C 0.69757 0.83553 0.84683 0.0
C1993 C 0.69512 0.82324 0.8383 0.0
C1994 C 0.72132 0.8729 0.87392 0.0
C1995 C 0.72985 0.91028 0.87568 0.0
C1996 C 0.72038 0.86101 0.86536 0.0
C1997 C 0.72748 0.88612 0.85838 0.0
C1998 C 0.73704 0.92377 0.86025 0.0
C1999 C 0.7386 0.93571 0.86875 0.0
H2000 H 0.15624 0.78237 0.86879 0.0
H2001 H 0.23336 0.89023 0.88068 0.0
H2002 H 0.17513 0.81068 0.85462 0.0
H2003 H 0.25394 0.91881 0.86633 0.0
H2004 H 0.25476 0.96747 0.83998 0.0
H2005 H 0.23499 0.93884 0.85411 0.0
H2006 H 0.22327 0.83385 0.84418 0.0
H2007 H 0.2417 0.86263 0.82979 0.0
C2008 C 0.17752 0.81231 0.86836 0.0
C2009 C 0.19326 0.83416 0.87586 0.0
C2010 C 0.18869 0.82848 0.86019 0.0
C2011 C 0.21637 0.86704 0.85923 0.0
C2012 C 0.23214 0.88909 0.86677 0.0
C2013 C 0.22051 0.87284 0.87502 0.0
C2014 C 0.24774 0.93813 0.84079 0.0
C2015 C 0.24975 0.91724 0.83377 0.0
C2016 C 0.23678 0.9218 0.84895 0.0
C2017 C 0.2279 0.8841 0.85041 0.0
C2018 C 0.22948 0.86289 0.84332 0.0
C2019 C 0.24007 0.87925 0.83507 0.0
H2020 H 0.15092 0.39416 0.83946 0.0
H2021 H 0.23651 0.37155 0.82897 0.0
H2022 H 0.16988 0.38912 0.85391 0.0
H2023 H 0.25781 0.36907 0.84364 0.0
H2024 H 0.26248 0.3284 0.87073 0.0
H2025 H 0.2426 0.33249 0.8561 0.0
H2026 H 0.21291 0.41584 0.86477 0.0
H2027 H 0.23044 0.40954 0.87942 0.0
C2028 C 0.17447 0.38882 0.84025 0.0
C2029 C 0.19204 0.38299 0.83304 0.0
C2030 C 0.18565 0.38623 0.8486 0.0
C2031 C 0.21549 0.3786 0.85007 0.0
C2032 C 0.23415 0.37417 0.84283 0.0
C2033 C 0.22237 0.37609 0.8344 0.0
C2034 C 0.25087 0.34693 0.86949 0.0
C2035 C 0.24751 0.36824 0.87622 0.0
C2036 C 0.24007 0.34982 0.86107 0.0
C2037 C 0.22634 0.37477 0.85912 0.0
C2038 C 0.22258 0.39571 0.86595 0.0
C2039 C 0.23261 0.39215 0.8744 0.0
H2040 H 0.91352 0.72935 0.71284 0.0
H2041 H 0.80098 0.68814 0.70217 0.0
H2042 H 0.9384 0.7313 0.69835 0.0
H2043 H 0.82542 0.68923 0.68775 0.0
H2044 H 0.88735 0.72496 0.66172 0.0
H2045 H 0.86554 0.73067 0.67619 0.0
H2046 H 0.93498 0.68841 0.68745 0.0
H2047 H 0.95692 0.68366 0.67328 0.0
C2048 C 0.89405 0.72027 0.70741 0.0
C2049 C 0.85533 0.70848 0.70864 0.0
C2050 C 0.90824 0.72145 0.69909 0.0
C2051 C 0.88395 0.71066 0.69183 0.0
C2052 C 0.84513 0.6985 0.69313 0.0
C2053 C 0.83103 0.69742 0.70142 0.0
C2054 C 0.89816 0.71746 0.66733 0.0
C2055 C 0.92377 0.70386 0.66636 0.0
C2056 C 0.88555 0.72041 0.6756 0.0
C2057 C 0.89856 0.71003 0.68302 0.0
C2058 C 0.92479 0.69729 0.68196 0.0
C2059 C 0.93715 0.69429 0.67378 0.0
H2060 H 0.4496 0.30503 0.67315 0.0
H2061 H 0.35894 0.1994 0.6629 0.0
H2062 H 0.44149 0.27613 0.68724 0.0
H2063 H 0.34929 0.17038 0.67722 0.0
H2064 H 0.36578 0.11849 0.70149 0.0
H2065 H 0.37546 0.14777 0.68744 0.0
H2066 H 0.40287 0.25454 0.69954 0.0
H2067 H 0.39467 0.225 0.71379 0.0
C2068 C 0.42768 0.27548 0.67394 0.0
C2069 C 0.40491 0.2544 0.66692 0.0
C2070 C 0.42275 0.25899 0.68208 0.0
C2071 C 0.39451 0.22093 0.68349 0.0
C2072 C 0.37174 0.19965 0.67641 0.0
C2073 C 0.37708 0.21617 0.66818 0.0
C2074 C 0.37412 0.14835 0.70118 0.0
C2075 C 0.37952 0.16951 0.70875 0.0
C2076 C 0.37926 0.16508 0.69307 0.0
C2077 C 0.3895 0.20349 0.69225 0.0
C2078 C 0.39537 0.22494 0.69988 0.0
C2079 C 0.39064 0.20814 0.70806 0.0
H2080 H 0.90614 0.21874 0.66147 0.0
H2081 H 0.79775 0.14085 0.67315 0.0
H2082 H 0.93413 0.23941 0.67587 0.0
H2083 H 0.8255 0.15981 0.68738 0.0
H2084 H 0.87518 0.22727 0.71217 0.0
H2085 H 0.84737 0.20815 0.69771 0.0
H2086 H 0.95416 0.2216 0.68829 0.0
H2087 H 0.98184 0.24208 0.70249 0.0
C2088 C 0.88855 0.20569 0.66711 0.0
C2089 C 0.84985 0.17829 0.66619 0.0
C2090 C 0.90445 0.21738 0.67538 0.0
C2091 C 0.88203 0.20152 0.68288 0.0
C2092 C 0.84354 0.17348 0.68184 0.0
C2093 C 0.8277 0.16227 0.67364 0.0
C2094 C 0.89242 0.2259 0.70698 0.0
C2095 C 0.93061 0.23624 0.70844 0.0
C2096 C 0.87661 0.21489 0.69869 0.0
C2097 C 0.89857 0.21352 0.69173 0.0
C2098 C 0.93653 0.22315 0.69334 0.0
C2099 C 0.95231 0.23454 0.70155 0.0
H2100 H 0.40049 0.20842 0.21322 0.0
H2101 H 0.36295 0.2817 0.20208 0.0
H2102 H 0.40557 0.18725 0.19864 0.0
H2103 H 0.36714 0.26043 0.18777 0.0
H2104 H 0.40805 0.23863 0.16223 0.0
H2105 H 0.4097 0.2628 0.17679 0.0
H2106 H 0.36315 0.14896 0.18701 0.0
H2107 H 0.36221 0.12519 0.17254 0.0
C2108 C 0.39371 0.2202 0.20768 0.0
C2109 C 0.38131 0.24664 0.20879 0.0
C2110 C 0.39628 0.20795 0.19934 0.0
C2111 C 0.38673 0.22215 0.192 0.0
C2112 C 0.37529 0.24926 0.1932 0.0
C2113 C 0.37262 0.26125 0.20146 0.0
C2114 C 0.39782 0.21883 0.16759 0.0
C2115 C 0.38492 0.18005 0.16624 0.0
C2116 C 0.39887 0.2326 0.17594 0.0
C2117 C 0.3869 0.20787 0.18312 0.0
C2118 C 0.37339 0.16899 0.1817 0.0
C2119 C 0.37239 0.1553 0.17337 0.0
H2120 H 0.87864 0.198 0.16166 0.0
H2121 H 0.95651 0.30563 0.17354 0.0
H2122 H 0.85796 0.16946 0.17601 0.0
H2123 H 0.93752 0.27735 0.18771 0.0
H2124 H 0.87092 0.22656 0.21252 0.0
H2125 H 0.88918 0.25481 0.19809 0.0
H2126 H 0.87633 0.14913 0.18831 0.0
H2127 H 0.85671 0.12101 0.2025 0.0
C2128 C 0.89165 0.21533 0.16732 0.0
C2129 C 0.9191 0.25396 0.16648 0.0
C2130 C 0.87995 0.19911 0.17557 0.0
C2131 C 0.89584 0.22113 0.18311 0.0
C2132 C 0.92383 0.25959 0.18214 0.0
C2133 C 0.93505 0.27574 0.17397 0.0
C2134 C 0.87221 0.20965 0.20727 0.0
C2135 C 0.86234 0.17166 0.20863 0.0
C2136 C 0.88273 0.22572 0.19898 0.0
C2137 C 0.88407 0.20421 0.19194 0.0
C2138 C 0.87481 0.16642 0.19345 0.0
C2139 C 0.86392 0.15038 0.20164 0.0
H2140 H 0.79726 0.69335 0.17434 0.0
H2141 H 0.90253 0.71543 0.16225 0.0
H2142 H 0.82587 0.70133 0.18847 0.0
H2143 H 0.93125 0.72194 0.17653 0.0
H2144 H 0.98294 0.76848 0.20278 0.0
H2145 H 0.9543 0.76128 0.1887 0.0
H2146 H 0.84622 0.67303 0.1988 0.0
H2147 H 0.87511 0.68173 0.21314 0.0
C2148 C 0.82669 0.69986 0.17472 0.0
C2149 C 0.84777 0.70394 0.16719 0.0
C2150 C 0.84298 0.70401 0.18286 0.0
C2151 C 0.88082 0.71192 0.18373 0.0
C2152 C 0.90214 0.71631 0.17615 0.0
C2153 C 0.88582 0.71258 0.16795 0.0
C2154 C 0.95295 0.74758 0.20202 0.0
C2155 C 0.93121 0.72562 0.20906 0.0
C2156 C 0.93659 0.74318 0.19388 0.0
C2157 C 0.89797 0.71631 0.1925 0.0
C2158 C 0.87599 0.69438 0.1996 0.0
C2159 C 0.89242 0.69917 0.20783 0.0
H2160 H 0.51253 0.8054 0.0685 0.0
H2161 H 0.63009 0.88548 0.06217 0.0
H2162 H 0.52628 0.75356 0.0679 0.0
H2163 H 0.64351 0.83317 0.0612 0.0
H2164 H 0.65972 0.73161 0.07008 0.0
H2165 H 0.64999 0.78669 0.06993 0.0
H2166 H 0.54008 0.71791 0.0578 0.0
H2167 H 0.54934 0.66331 0.05815 0.0
C2168 C 0.54133 0.812 0.06695 0.0
C2169 C 0.57012 0.84977 0.06538 0.0
C2170 C 0.54917 0.78212 0.06651 0.0
C2171 C 0.58603 0.78899 0.06445 0.0
C2172 C 0.61488 0.82675 0.06286 0.0
C2173 C 0.60701 0.85673 0.0633 0.0
C2174 C 0.63373 0.7285 0.0673 0.0
C2175 C 0.60517 0.69292 0.06422 0.0
C2176 C 0.62812 0.76006 0.0672 0.0
C2177 C 0.59391 0.75668 0.06398 0.0
C2178 C 0.5663 0.72146 0.06055 0.0
C2179 C 0.57178 0.6901 0.0607 0.0
H2180 H 0.26242 0.74552 0.0518 0.0
H2181 H 0.23302 0.77128 0.07668 0.0
H2182 H 0.31361 0.8117 0.0504 0.0
H2183 H 0.28468 0.83705 0.07538 0.0
H2184 H 0.36304 0.96123 0.06773 0.0
H2185 H 0.3068 0.89715 0.06747 0.0
H2186 H 0.37564 0.85269 0.05702 0.0
H2187 H 0.43126 0.9162 0.05718 0.0
C2188 C 0.26671 0.76529 0.05695 0.0
C2189 C 0.24372 0.75284 0.06439 0.0
C2190 C 0.29626 0.80323 0.05618 0.0
C2191 C 0.30344 0.82984 0.06279 0.0
C2192 C 0.27985 0.81756 0.07012 0.0
C2193 C 0.2505 0.77962 0.07092 0.0
C2194 C 0.36598 0.93786 0.06525 0.0
C2195 C 0.40179 0.94398 0.06251 0.0
C2196 C 0.33382 0.90105 0.06517 0.0
C2197 C 0.33663 0.86959 0.06226 0.0
C2198 C 0.37217 0.87612 0.05923 0.0
C2199 C 0.40424 0.91268 0.05938 0.0
H2200 H 0.13409 0.43263 0.06828 0.0
H2201 H 0.1802 0.5457 0.05767 0.0
H2202 H 0.19842 0.44081 0.06845 0.0
H2203 H 0.24394 0.55402 0.05799 0.0
H2204 H 0.35243 0.54977 0.05361 0.0
H2205 H 0.2863 0.53467 0.05184 0.0
H2206 H 0.25774 0.47761 0.0765 0.0
H2207 H 0.32347 0.49155 0.07813 0.0
C2208 C 0.15776 0.45898 0.06588 0.0
C2209 C 0.15181 0.48849 0.06299 0.0
C2210 C 0.19474 0.46385 0.06606 0.0
C2211 C 0.2266 0.49821 0.06328 0.0
C2212 C 0.22026 0.52704 0.0601 0.0
C2213 C 0.18353 0.52229 0.05997 0.0
C2214 C 0.332 0.53363 0.05862 0.0
C2215 C 0.34358 0.52221 0.06605 0.0
C2216 C 0.29404 0.52521 0.05763 0.0
C2217 C 0.26649 0.50496 0.06404 0.0
C2218 C 0.27793 0.4929 0.07139 0.0
C2219 C 0.31588 0.50143 0.07238 0.0
H2220 H 0.83349 0.52118 0.46931 0.0
H2221 H 0.89732 0.61693 0.48631 0.0
H2222 H 0.77939 0.53177 0.47004 0.0
H2223 H 0.84324 0.62793 0.48688 0.0
H2224 H 0.75041 0.65738 0.47746 0.0
H2225 H 0.80617 0.64849 0.47761 0.0
H2226 H 0.73162 0.52719 0.48034 0.0
H2227 H 0.67649 0.53576 0.48015 0.0
C2228 C 0.83595 0.54419 0.4733 0.0
C2229 C 0.87004 0.56804 0.47777 0.0
C2230 C 0.80486 0.55041 0.47369 0.0
C2231 C 0.80687 0.58077 0.47851 0.0
C2232 C 0.84083 0.60461 0.483 0.0
C2233 C 0.87189 0.59824 0.48267 0.0
C2234 C 0.74597 0.62888 0.47817 0.0
C2235 C 0.70875 0.59737 0.47874 0.0
C2236 C 0.77795 0.62377 0.47827 0.0
C2237 C 0.77341 0.58702 0.47889 0.0
C2238 C 0.73626 0.55579 0.47968 0.0
C2239 C 0.70452 0.56086 0.47962 0.0
H2240 H 0.45276 0.13079 0.47229 0.0
H2241 H 0.56456 0.1751 0.48366 0.0
H2242 H 0.46125 0.19509 0.47235 0.0
H2243 H 0.57262 0.23846 0.48391 0.0
H2244 H 0.59707 0.35249 0.47328 0.0
H2245 H 0.58463 0.28736 0.47385 0.0
H2246 H 0.46739 0.24808 0.48095 0.0
H2247 H 0.47947 0.31332 0.47999 0.0
C2248 C 0.47881 0.15404 0.47493 0.0
C2249 C 0.50809 0.14775 0.47788 0.0
C2250 C 0.48372 0.19095 0.47498 0.0
C2251 C 0.51796 0.2223 0.47801 0.0
C2252 C 0.54634 0.21542 0.48131 0.0
C2253 C 0.54154 0.17884 0.48121 0.0
C2254 C 0.56853 0.33003 0.4749 0.0
C2255 C 0.53936 0.33844 0.47659 0.0
C2256 C 0.56145 0.29256 0.47534 0.0
C2257 C 0.52498 0.26221 0.47751 0.0
C2258 C 0.49574 0.27055 0.4792 0.0
C2259 C 0.50284 0.30813 0.47876 0.0
H2260 H 0.97921 0.36046 0.47412 0.0
H2261 H 0.93486 0.43038 0.48393 0.0
H2262 H 0.91419 0.30562 0.47375 0.0
H2263 H 0.87063 0.37597 0.48369 0.0
H2264 H 0.75801 0.28673 0.47182 0.0
H2265 H 0.82362 0.33881 0.47304 0.0
H2266 H 0.85862 0.26026 0.48213 0.0
H2267 H 0.79302 0.2078 0.48062 0.0
C2268 C 0.9558 0.36404 0.47634 0.0
C2269 C 0.96246 0.40004 0.47899 0.0
C2270 C 0.91845 0.33257 0.47613 0.0
C2271 C 0.88688 0.33637 0.47856 0.0
C2272 C 0.89393 0.37202 0.48156 0.0
C2273 C 0.93102 0.4033 0.48176 0.0
C2274 C 0.77965 0.28042 0.47403 0.0
C2275 C 0.76994 0.24289 0.47613 0.0
C2276 C 0.81736 0.31045 0.47483 0.0
C2277 C 0.84664 0.30395 0.47774 0.0
C2278 C 0.837 0.26641 0.47982 0.0
C2279 C 0.79919 0.23634 0.47906 0.0
H2280 H 0.45699 0.35635 0.97347 0.0
H2281 H 0.57259 0.42677 0.9826 0.0
H2282 H 0.46598 0.30088 0.97362 0.0
H2283 H 0.58118 0.37178 0.98297 0.0
H2284 H 0.60176 0.27886 0.9728 0.0
H2285 H 0.58971 0.33184 0.97319 0.0
H2286 H 0.47508 0.2566 0.98236 0.0
H2287 H 0.48658 0.20304 0.98156 0.0
C2288 C 0.48408 0.35993 0.97562 0.0
C2289 C 0.51412 0.39615 0.97793 0.0
C2290 C 0.48926 0.32811 0.97573 0.0
C2291 C 0.52456 0.33179 0.9782 0.0
C2292 C 0.55396 0.36784 0.98081 0.0
C2293 C 0.54889 0.39948 0.98065 0.0
C2294 C 0.57386 0.27343 0.97484 0.0
C2295 C 0.54522 0.23647 0.97714 0.0
C2296 C 0.56704 0.30403 0.97517 0.0
C2297 C 0.5314 0.29874 0.97785 0.0
C2298 C 0.50275 0.26181 0.98019 0.0
C2299 C 0.50957 0.23113 0.97985 0.0
H2300 H 0.82384 0.34551 0.97426 0.0
H2301 H 0.90323 0.30777 0.98101 0.0
H2302 H 0.77139 0.28016 0.975 0.0
H2303 H 0.85036 0.24238 0.98213 0.0
H2304 H 0.74877 0.12442 0.97356 0.0
H2305 H 0.80401 0.18911 0.97361 0.0
H2306 H 0.7345 0.23093 0.985 0.0
H2307 H 0.67965 0.16708 0.98476 0.0
C2308 C 0.83018 0.32333 0.97593 0.0
C2309 C 0.86798 0.33221 0.97758 0.0
C2310 C 0.79992 0.28573 0.97646 0.0
C2311 C 0.8064 0.25572 0.97867 0.0
C2312 C 0.84418 0.26456 0.98034 0.0
C2313 C 0.87451 0.30225 0.97981 0.0
C2314 C 0.74548 0.14739 0.97617 0.0
C2315 C 0.70959 0.14045 0.97908 0.0
C2316 C 0.77717 0.18455 0.97621 0.0
C2317 C 0.77373 0.21558 0.97919 0.0
C2318 C 0.73818 0.20813 0.98244 0.0
C2319 C 0.70665 0.17126 0.98236 0.0
H2320 H 0.75888 0.50649 0.97117 0.0
H2321 H 0.79543 0.62008 0.98039 0.0
H2322 H 0.82412 0.5187 0.97237 0.0
H2323 H 0.86063 0.63188 0.98189 0.0
H2324 H 0.98062 0.65047 0.97388 0.0
H2325 H 0.91603 0.64156 0.97349 0.0
H2326 H 0.87053 0.52691 0.98305 0.0
H2327 H 0.93437 0.53549 0.98332 0.0
C2328 C 0.78079 0.53408 0.97347 0.0
C2329 C 0.77163 0.5622 0.97569 0.0
C2330 C 0.81826 0.541 0.97425 0.0
C2331 C 0.84785 0.57627 0.97728 0.0
C2332 C 0.83876 0.60448 0.97948 0.0
C2333 C 0.80118 0.59751 0.97872 0.0
C2334 C 0.95687 0.62357 0.97601 0.0
C2335 C 0.96285 0.59366 0.97856 0.0
C2336 C 0.91977 0.61842 0.97579 0.0
C2337 C 0.8878 0.58325 0.97811 0.0
C2338 C 0.89417 0.55404 0.98101 0.0
C2339 C 0.93102 0.55913 0.98122 0.0
H2340 H 0.43158 0.54171 0.55537 0.0
H2341 H 0.36424 0.43403 0.56835 0.0
H2342 H 0.37673 0.55092 0.55498 0.0
H2343 H 0.30904 0.4437 0.56815 0.0
H2344 H 0.20907 0.4624 0.56091 0.0
H2345 H 0.26128 0.44877 0.55965 0.0
H2346 H 0.34242 0.56676 0.56505 0.0
H2347 H 0.29055 0.58064 0.56593 0.0
C2348 C 0.40492 0.5198 0.55811 0.0
C2349 C 0.40248 0.48723 0.56196 0.0
C2350 C 0.37344 0.52527 0.55795 0.0
C2351 C 0.33849 0.49848 0.56168 0.0
C2352 C 0.33542 0.46494 0.56518 0.0
C2353 C 0.36707 0.45934 0.5653 0.0
C2354 C 0.2381 0.48559 0.56169 0.0
C2355 C 0.24546 0.52272 0.5635 0.0
C2356 C 0.26806 0.47762 0.56107 0.0
C2357 C 0.30623 0.5066 0.56222 0.0
C2358 C 0.31352 0.54373 0.56399 0.0
C2359 C 0.28364 0.55167 0.5646 0.0
H2360 H 0.51064 0.7371 0.56792 0.0
H2361 H 0.62782 0.77453 0.56114 0.0
H2362 H 0.52411 0.80254 0.56737 0.0
H2363 H 0.6409 0.84009 0.56018 0.0
H2364 H 0.65826 0.95812 0.56889 0.0
H2365 H 0.64837 0.89331 0.56875 0.0
H2366 H 0.53665 0.85201 0.55753 0.0
H2367 H 0.54608 0.9159 0.55789 0.0
C2368 C 0.5393 0.75924 0.56628 0.0
C2369 C 0.56806 0.75024 0.56459 0.0
C2370 C 0.54697 0.79691 0.56586 0.0
C2371 C 0.58364 0.82688 0.56368 0.0
C2372 C 0.61243 0.81794 0.56195 0.0
C2373 C 0.60474 0.78016 0.56238 0.0
C2374 C 0.6318 0.9352 0.56632 0.0
C2375 C 0.60286 0.94225 0.5635 0.0
C2376 C 0.62609 0.89799 0.56622 0.0
C2377 C 0.59139 0.86708 0.56325 0.0
C2378 C 0.56329 0.87469 0.56009 0.0
C2379 C 0.56886 0.91157 0.56025 0.0
H2380 H 0.32017 0.88502 0.56147 0.0
H2381 H 0.35652 0.80708 0.57023 0.0
H2382 H 0.25486 0.83203 0.55995 0.0
H2383 H 0.29119 0.75446 0.569 0.0
H2384 H 0.18062 0.66197 0.55801 0.0
H2385 H 0.24452 0.71693 0.55835 0.0
H2386 H 0.19927 0.78598 0.56819 0.0
H2387 H 0.13459 0.73056 0.56773 0.0
C2388 C 0.31436 0.85659 0.56304 0.0
C2389 C 0.34393 0.8505 0.56594 0.0
C2390 C 0.2767 0.8262 0.56226 0.0
C2391 C 0.26749 0.78875 0.56432 0.0
C2392 C 0.29709 0.78272 0.56723 0.0
C2393 C 0.33465 0.81307 0.56803 0.0
C2394 C 0.18402 0.68888 0.56018 0.0
C2395 C 0.1522 0.69159 0.56289 0.0
C2396 C 0.22093 0.72048 0.56044 0.0
C2397 C 0.22743 0.75595 0.56344 0.0
C2398 C 0.19547 0.7592 0.56582 0.0
C2399 C 0.1583 0.72739 0.56555 0.0
H2400 H 0.22266 1.00279 0.38986 0.0
H2401 H 0.33297 0.06855 0.40199 0.0
H2402 H 0.21462 0.05827 0.38982 0.0
H2403 H 0.32503 0.12469 0.40186 0.0
H2404 H 0.27081 0.19713 0.41067 0.0
H2405 H 0.28527 0.14575 0.40934 0.0
H2406 H 0.2367 0.12112 0.38377 0.0
H2407 H 0.22131 0.17199 0.38519 0.0
C2408 C 0.24554 0.02928 0.39242 0.0
C2409 C 0.27846 0.03102 0.39596 0.0
C2410 C 0.24097 0.06129 0.39234 0.0
C2411 C 0.26904 0.09609 0.39587 0.0
C2412 C 0.30258 0.09825 0.39918 0.0
C2413 C 0.30733 0.06616 0.39918 0.0
C2414 C 0.26297 0.18065 0.40478 0.0
C2415 C 0.24446 0.18859 0.39807 0.0
C2416 C 0.27179 0.15145 0.40397 0.0
C2417 C 0.2622 0.12912 0.39645 0.0
C2418 C 0.24423 0.13744 0.38969 0.0
C2419 C 0.23563 0.16684 0.39047 0.0
H2420 H 0.10008 0.25446 0.39007 0.0
H2421 H 1.03261 0.29618 0.40252 0.0
H2422 H 0.04519 0.19064 0.38983 0.0
H2423 H 0.97731 0.23148 0.40246 0.0
H2424 H 0.87709 0.11302 0.39515 0.0
H2425 H 0.92966 0.1786 0.39406 0.0
H2426 H 1.00986 0.14066 0.39976 0.0
H2427 H 0.95768 0.07518 0.40047 0.0
C2428 C 0.07342 0.25008 0.39275 0.0
C2429 C 0.07097 0.28061 0.39638 0.0
C2430 C 0.04187 0.21321 0.39267 0.0
C2431 C 1.00678 0.20546 0.39627 0.0
C2432 C 1.00377 0.23626 0.3996 0.0
C2433 C 0.0355 0.27343 0.39963 0.0
C2434 C 0.90599 0.11856 0.39604 0.0
C2435 C 0.91295 0.0885 0.39787 0.0
C2436 C 0.93617 0.15636 0.39552 0.0
C2437 C 0.97422 0.16522 0.3968 0.0
C2438 C 0.98111 0.13511 0.39861 0.0
C2439 C 0.95101 0.09741 0.39912 0.0
H2440 H 0.84617 0.88301 0.39019 0.0
H2441 H 0.80534 0.77288 0.40199 0.0
H2442 H 0.9105 0.89294 0.38984 0.0
H2443 H 0.87051 0.78327 0.40182 0.0
H2444 H 0.98976 0.80397 0.39428 0.0
H2445 H 0.92381 0.79027 0.3932 0.0
H2446 H 0.96044 0.90702 0.39983 0.0
H2447 H 1.02631 0.92105 0.40054 0.0
C2448 C 0.85085 0.86075 0.3927 0.0
C2449 C 0.82044 0.82721 0.39619 0.0
C2450 C 0.88799 0.86662 0.39255 0.0
C2451 C 0.89609 0.83928 0.39594 0.0
C2452 C 0.86543 0.80495 0.39912 0.0
C2453 C 0.828 0.79896 0.39923 0.0
C2454 C 0.98385 0.8269 0.39537 0.0
C2455 C 1.01362 0.86373 0.39747 0.0
C2456 C 0.94585 0.81887 0.39486 0.0
C2457 C 0.93655 0.84747 0.39641 0.0
C2458 C 0.96638 0.8843 0.39847 0.0
C2459 C 1.00427 0.8923 0.39898 0.0
H2460 H 0.41289 0.99044 0.8101 0.0
H2461 H 0.34275 0.86998 0.81518 0.0
H2462 H 0.46962 0.98342 0.80986 0.0
H2463 H 0.39863 0.86282 0.81465 0.0
H2464 H 0.5093 0.86335 0.81946 0.0
H2465 H 0.45564 0.87434 0.8214 0.0
H2466 H 0.49931 0.95771 0.80092 0.0
H2467 H 0.55311 0.94716 0.79911 0.0
C2468 C 0.40953 0.96257 0.81124 0.0
C2469 C 0.37306 0.93086 0.81264 0.0
C2470 C 0.44204 0.95842 0.81101 0.0
C2471 C 0.43893 0.92244 0.81218 0.0
C2472 C 0.40253 0.89107 0.81383 0.0
C2473 C 0.37023 0.89521 0.81407 0.0
C2474 C 0.50734 0.8839 0.81535 0.0
C2475 C 0.53564 0.90435 0.80914 0.0
C2476 C 0.47652 0.89028 0.81646 0.0
C2477 C 0.47292 0.91705 0.81134 0.0
C2478 C 0.50132 0.93748 0.80513 0.0
C2479 C 0.5322 0.93127 0.80406 0.0
H2480 H 0.26296 0.68296 0.8068 0.0
H2481 H 0.14662 0.64585 0.81431 0.0
H2482 H 0.24958 0.61753 0.80741 0.0
H2483 H 0.13364 0.58031 0.81529 0.0
H2484 H 0.11624 0.46223 0.80637 0.0
H2485 H 0.12577 0.52693 0.80651 0.0
H2486 H 0.23787 0.56892 0.81757 0.0
H2487 H 0.22879 0.50517 0.81724 0.0
C2488 C 0.23452 0.66088 0.80861 0.0
C2489 C 0.20595 0.66989 0.8105 0.0
C2490 C 0.22691 0.62327 0.80906 0.0
C2491 C 0.19052 0.59345 0.81145 0.0
C2492 C 0.1619 0.60241 0.81337 0.0
C2493 C 0.16953 0.64013 0.81292 0.0
C2494 C 0.14269 0.48529 0.80891 0.0
C2495 C 0.17187 0.47853 0.8117 0.0
C2496 C 0.14818 0.52238 0.80901 0.0
C2497 C 0.1829 0.5534 0.81192 0.0
C2498 C 0.21121 0.54608 0.81506 0.0
C2499 C 0.20585 0.50931 0.81492 0.0
H2500 H 0.59146 0.76196 0.81412 0.0
H2501 H 0.6396 0.6918 0.80693 0.0
H2502 H 0.52784 0.70642 0.81399 0.0
H2503 H 0.57544 0.63568 0.80693 0.0
H2504 H 0.45207 0.55662 0.79696 0.0
H2505 H 0.51721 0.60967 0.79828 0.0
H2506 H 0.48535 0.64721 0.82126 0.0
H2507 H 0.41977 0.59473 0.81978 0.0
C2508 C 0.58858 0.73458 0.8126 0.0
C2509 C 0.62084 0.7315 0.8105 0.0
C2510 C 0.55193 0.70256 0.81258 0.0
C2511 C 0.5463 0.66643 0.81043 0.0
C2512 C 0.57862 0.66312 0.80852 0.0
C2513 C 0.61547 0.69526 0.80858 0.0
C2514 C 0.45881 0.57633 0.80226 0.0
C2515 C 0.43039 0.5715 0.80821 0.0
C2516 C 0.49641 0.60651 0.80309 0.0
C2517 C 0.50672 0.63287 0.80988 0.0
C2518 C 0.47844 0.62774 0.8159 0.0
C2519 C 0.44083 0.59742 0.8151 0.0
H2520 H 0.265 0.61563 0.30847 0.0
H2521 H 0.14682 0.53421 0.31387 0.0
H2522 H 0.25086 0.66718 0.30939 0.0
H2523 H 0.13293 0.58612 0.31515 0.0
H2524 H 0.11729 0.6886 0.30665 0.0
H2525 H 0.12721 0.63367 0.3067 0.0
H2526 H 0.23541 0.70134 0.31959 0.0
H2527 H 0.22595 0.75586 0.31937 0.0
C2528 C 0.23598 0.60866 0.30988 0.0
C2529 C 0.20714 0.57058 0.31109 0.0
C2530 C 0.2279 0.63836 0.31052 0.0
C2531 C 0.19071 0.63101 0.3124 0.0
C2532 C 0.16182 0.59294 0.31364 0.0
C2533 C 0.16994 0.56316 0.31301 0.0
C2534 C 0.14288 0.69149 0.30961 0.0
C2535 C 0.17094 0.7268 0.31293 0.0
C2536 C 0.14862 0.66 0.30964 0.0
C2537 C 0.1825 0.66312 0.31302 0.0
C2538 C 0.20949 0.69799 0.31672 0.0
C2539 C 0.20387 0.7293 0.31665 0.0
H2540 H 0.34553 0.50663 0.31557 0.0
H2541 H 0.41643 0.45712 0.31034 0.0
H2542 H 0.40131 0.5695 0.31569 0.0
H2543 H 0.47316 0.52079 0.31076 0.0
H2544 H 0.55821 0.64325 0.30141 0.0
H2545 H 0.50504 0.57827 0.3026 0.0
H2546 H 0.45671 0.61355 0.323 0.0
H2547 H 0.5096 0.67875 0.32165 0.0
C2548 C 0.37315 0.50898 0.31457 0.0
C2549 C 0.37619 0.47642 0.31291 0.0
C2550 C 0.40544 0.54538 0.31471 0.0
C2551 C 0.44212 0.5507 0.31324 0.0
C2552 C 0.44542 0.51806 0.3118 0.0
C2553 C 0.41288 0.4814 0.31164 0.0
C2554 C 0.53646 0.6371 0.30622 0.0
C2555 C 0.53828 0.66647 0.31142 0.0
C2556 C 0.5059 0.59963 0.30693 0.0
C2557 C 0.4762 0.59025 0.31289 0.0
C2558 C 0.47849 0.61955 0.31821 0.0
C2559 C 0.50893 0.65709 0.31745 0.0
H2560 H 0.45746 0.95389 0.31457 0.0
H2561 H 0.42154 0.83629 0.30908 0.0
H2562 H 0.52345 0.96797 0.31594 0.0
H2563 H 0.48746 0.85064 0.31009 0.0
H2564 H 0.60185 0.87607 0.3198 0.0
H2565 H 0.53748 0.86615 0.32018 0.0
H2566 H 0.57678 0.97421 0.30746 0.0
H2567 H 0.64192 0.98459 0.30726 0.0
C2568 C 0.46352 0.93093 0.31371 0.0
C2569 C 0.43394 0.89386 0.31173 0.0
C2570 C 0.50153 0.93916 0.31439 0.0
C2571 C 0.51103 0.91051 0.31314 0.0
C2572 C 0.48136 0.87341 0.31122 0.0
C2573 C 0.44345 0.86522 0.31054 0.0
C2574 C 0.597 0.89803 0.31716 0.0
C2575 C 0.62716 0.93107 0.31344 0.0
C2576 C 0.55986 0.89215 0.31732 0.0
C2577 C 0.55154 0.91898 0.31371 0.0
C2578 C 0.58203 0.95293 0.31034 0.0
C2579 C 0.61945 0.95894 0.31022 0.0
H2580 H 0.03365 0.76496 0.90163 0.0
H2581 H 0.10185 0.88031 0.89235 0.0
H2582 H 0.97718 0.77254 0.90169 0.0
H2583 H 0.0461 0.88802 0.89255 0.0
H2584 H 0.93371 0.88369 0.88768 0.0
H2585 H 0.98539 0.86958 0.88599 0.0
H2586 H 0.95285 0.80703 0.90996 0.0
H2587 H 0.90039 0.81994 0.91148 0.0
C2588 C 0.03656 0.79172 0.8995 0.0
C2589 C 0.07243 0.822 0.89702 0.0
C2590 C 1.00425 0.79622 0.89961 0.0
C2591 C 1.00698 0.83101 0.89717 0.0
C2592 C 0.04263 0.8607 0.89439 0.0
C2593 C 0.0748 0.8563 0.89433 0.0
C2594 C 0.93727 0.86656 0.89255 0.0
C2595 C 0.91291 0.85327 0.89976 0.0
C2596 C 0.96716 0.85871 0.89161 0.0
C2597 C 0.97352 0.83722 0.89785 0.0
C2598 C 0.94871 0.82332 0.90498 0.0
C2599 C 0.9189 0.83126 0.90592 0.0
H2600 H 0.32762 0.29281 0.90174 0.0
H2601 H 0.21024 0.24522 0.89364 0.0
H2602 H 0.3201 0.22897 0.9015 0.0
H2603 H 0.20275 0.18192 0.89348 0.0
H2604 H 0.20951 0.07573 0.88719 0.0
H2605 H 0.22242 0.14128 0.88601 0.0
H2606 H 0.28557 0.16948 0.9099 0.0
H2607 H 0.27338 0.10434 0.91098 0.0
C2608 C 0.30037 0.26889 0.89983 0.0
C2609 C 0.26956 0.27428 0.89773 0.0
C2610 C 0.29596 0.23223 0.89976 0.0
C2611 C 0.26076 0.20017 0.89749 0.0
C2612 C 0.23037 0.20586 0.89516 0.0
C2613 C 0.23466 0.24229 0.89531 0.0
C2614 C 0.22645 0.096 0.89215 0.0
C2615 C 0.24008 0.08455 0.89922 0.0
C2616 C 0.23364 0.13355 0.8915 0.0
C2617 C 0.25499 0.16076 0.89787 0.0
C2618 C 0.26934 0.14949 0.90484 0.0
C2619 C 0.2619 0.11192 0.90551 0.0
H2620 H 0.80329 0.06258 0.90071 0.0
H2621 H 0.85353 0.99226 0.89562 0.0
H2622 H 0.86743 0.11897 0.90112 0.0
H2623 H 0.91676 0.04801 0.89594 0.0
H2624 H 1.02461 0.14673 0.90759 0.0
H2625 H 0.9603 0.09223 0.90649 0.0
H2626 H 0.92432 0.16051 0.89234 0.0
H2627 H 0.98889 0.21508 0.89334 0.0
C2628 C 0.82784 0.05913 0.89959 0.0
C2629 C 0.82303 0.0227 0.89819 0.0
C2630 C 0.86464 0.09146 0.89981 0.0
C2631 C 0.89745 0.08807 0.89867 0.0
C2632 C 0.89237 0.05175 0.89704 0.0
C2633 C 0.85585 1.01967 0.8968 0.0
C2634 C 1.00326 0.15012 0.90412 0.0
C2635 C 1.0123 0.18555 0.90055 0.0
C2636 C 0.96619 0.11878 0.90352 0.0
C2637 C 0.93692 0.12183 0.89932 0.0
C2638 C 0.9459 0.15718 0.89572 0.0
C2639 C 0.98305 0.18852 0.8963 0.0
H2640 H 0.88483 0.32939 0.72313 0.0
H2641 H 0.99646 0.39784 0.7345 0.0
H2642 H 0.87526 0.38384 0.72317 0.0
H2643 H 0.98653 0.45277 0.73466 0.0
H2644 H 0.96511 0.5514 0.72738 0.0
H2645 H 0.97864 0.49923 0.72613 0.0
H2646 H 0.86267 0.4195 0.73369 0.0
H2647 H 0.84881 0.4713 0.73464 0.0
C2648 C 0.90755 0.35618 0.72561 0.0
C2649 C 0.94138 0.359 0.72888 0.0
C2650 C 0.90187 0.38746 0.72569 0.0
C2651 C 0.92975 0.4227 0.72907 0.0
C2652 C 0.96441 0.42614 0.73199 0.0
C2653 C 0.97016 0.39464 0.73189 0.0
C2654 C 0.94231 0.52267 0.72866 0.0
C2655 C 0.90573 0.5157 0.73107 0.0
C2656 C 0.95026 0.49276 0.72805 0.0
C2657 C 0.92179 0.45498 0.72977 0.0
C2658 C 0.88525 0.44807 0.73218 0.0
C2659 C 0.87735 0.47793 0.73282 0.0
H2660 H 0.59543 0.41244 0.71811 0.0
H2661 H 0.57143 0.43589 0.74379 0.0
H2662 H 0.64595 0.47891 0.71665 0.0
H2663 H 0.6224 0.50191 0.74242 0.0
H2664 H 0.69857 0.62648 0.7351 0.0
H2665 H 0.64223 0.56247 0.73481 0.0
H2666 H 0.70933 0.51906 0.7229 0.0
H2667 H 0.76505 0.58252 0.72309 0.0
C2668 C 0.60078 0.43178 0.72342 0.0
C2669 C 0.57961 0.41866 0.7311 0.0
C2670 C 0.62989 0.46984 0.72261 0.0
C2671 C 0.63833 0.49581 0.72943 0.0
C2672 C 0.61648 0.48287 0.73701 0.0
C2673 C 0.58759 0.44482 0.73784 0.0
C2674 C 0.70105 0.60335 0.73229 0.0
C2675 C 0.73638 0.60963 0.72917 0.0
C2676 C 0.66887 0.56662 0.73219 0.0
C2677 C 0.67127 0.53552 0.72887 0.0
C2678 C 0.70626 0.54228 0.72543 0.0
C2679 C 0.73835 0.57875 0.7256 0.0
H2680 H 0.47038 0.10046 0.73453 0.0
H2681 H 0.51052 0.20826 0.72165 0.0
H2682 H 0.53535 0.11028 0.73419 0.0
H2683 H 0.57467 0.21762 0.72112 0.0
H2684 H 0.69077 0.24789 0.7321 0.0
H2685 H 0.62487 0.2336 0.73117 0.0
H2686 H 0.58842 0.11584 0.72571 0.0
H2687 H 0.65443 0.12988 0.72702 0.0
C2688 C 0.49282 0.12579 0.73145 0.0
C2689 C 0.48526 0.15371 0.7282 0.0
C2690 C 0.53013 0.13149 0.73126 0.0
C2691 C 0.56059 0.16515 0.72777 0.0
C2692 C 0.55233 0.19189 0.72409 0.0
C2693 C 0.51533 0.18634 0.72433 0.0
C2694 C 0.66877 0.21889 0.73075 0.0
C2695 C 0.67816 0.19012 0.72964 0.0
C2696 C 0.63086 0.21071 0.7301 0.0
C2697 C 0.60108 0.17352 0.72831 0.0
C2698 C 0.61044 0.14473 0.72715 0.0
C2699 C 0.64846 0.15293 0.7278 0.0
H2700 H 0.20789 0.26232 0.13054 0.0
H2701 H 0.17908 0.20584 0.15527 0.0
H2702 H 0.1565 0.27678 0.13213 0.0
H2703 H 0.1285 0.22151 0.157 0.0
H2704 H 1.01133 0.21041 0.15121 0.0
H2705 H 0.06663 0.20198 0.15096 0.0
H2706 H 0.13447 0.31428 0.14002 0.0
H2707 H 0.07837 0.32253 0.14012 0.0
C2708 C 0.19061 0.25294 0.13633 0.0
C2709 C 0.19753 0.23248 0.14273 0.0
C2710 C 0.16142 0.26178 0.1373 0.0
C2711 C 0.13817 0.25037 0.1447 0.0
C2712 C 0.1455 0.23047 0.15117 0.0
C2713 C 0.17478 0.22172 0.15021 0.0
C2714 C 0.03808 0.23361 0.14883 0.0
C2715 C 0.04021 0.26715 0.14565 0.0
C2716 C 0.07001 0.2288 0.14874 0.0
C2717 C 0.10518 0.25732 0.14544 0.0
C2718 C 0.10775 0.29148 0.14251 0.0
C2719 C 0.07568 0.29641 0.14265 0.0
H2720 H 0.93015 1.0163 0.14073 0.0
H2721 H 0.81332 0.97888 0.14783 0.0
H2722 H 0.91687 0.95089 0.14139 0.0
H2723 H 0.80045 0.91343 0.14888 0.0
H2724 H 0.78269 0.79501 0.14043 0.0
H2725 H 0.79262 0.8598 0.14041 0.0
H2726 H 0.90493 0.90175 0.15134 0.0
H2727 H 0.89543 0.8378 0.15116 0.0
C2728 C 0.90161 0.99418 0.14246 0.0
C2729 C 0.8729 1.0032 0.14423 0.0
C2730 C 0.89405 0.95653 0.14295 0.0
C2731 C 0.85755 0.92657 0.14524 0.0
C2732 C 0.8288 0.93554 0.14703 0.0
C2733 C 0.83638 0.97328 0.14654 0.0
C2734 C 0.80929 0.81804 0.14291 0.0
C2735 C 0.83832 0.81106 0.14572 0.0
C2736 C 0.81503 0.85527 0.14291 0.0
C2737 C 0.84988 0.88637 0.14575 0.0
C2738 C 0.87814 0.87891 0.14888 0.0
C2739 C 0.87251 0.84197 0.14884 0.0
H2740 H 0.30855 0.02354 0.14046 0.0
H2741 H 0.26076 0.09012 0.15048 0.0
H2742 H 0.24487 0.96656 0.14076 0.0
H2743 H 0.19768 0.03381 0.15069 0.0
H2744 H 0.09197 0.92029 0.15626 0.0
H2745 H 0.15791 0.97234 0.15757 0.0
H2746 H 0.18437 0.94264 0.1328 0.0
H2747 H 0.11885 0.89009 0.1316 0.0
C2748 C 0.28464 0.02597 0.14282 0.0
C2749 C 0.28984 0.06148 0.14541 0.0
C2750 C 0.24808 0.99339 0.14293 0.0
C2751 C 0.21601 0.99555 0.14572 0.0
C2752 C 0.22163 0.03086 0.14858 0.0
C2753 C 0.25792 0.06331 0.1484 0.0
C2754 C 0.11195 0.92459 0.15114 0.0
C2755 C 0.09989 0.90114 0.14379 0.0
C2756 C 0.14973 0.95463 0.15186 0.0
C2757 C 0.17655 0.96184 0.14528 0.0
C2758 C 0.1647 0.93778 0.13803 0.0
C2759 C 0.1269 0.90793 0.13729 0.0
H2760 H 0.92969 0.94875 0.64221 0.0
H2761 H 0.81041 0.86622 0.64598 0.0
H2762 H 0.91511 0.99998 0.64318 0.0
H2763 H 0.796 0.91778 0.64731 0.0
H2764 H 0.78266 0.02201 0.63891 0.0
H2765 H 0.7923 0.96688 0.63899 0.0
H2766 H 0.89696 0.03212 0.65333 0.0
H2767 H 0.8878 0.08685 0.65308 0.0
C2768 C 0.90033 0.94146 0.64327 0.0
C2769 C 0.87132 0.90318 0.64402 0.0
C2770 C 0.89197 0.97097 0.64394 0.0
C2771 C 0.85432 0.96321 0.64538 0.0
C2772 C 0.82525 0.92492 0.64614 0.0
C2773 C 0.83365 0.89533 0.64549 0.0
C2774 C 0.80733 0.02426 0.6422 0.0
C2775 C 0.83461 0.059 0.6459 0.0
C2776 C 0.81293 0.99267 0.64224 0.0
C2777 C 0.84586 0.99515 0.64603 0.0
C2778 C 0.87186 0.02933 0.65014 0.0
C2779 C 0.8664 0.06073 0.65005 0.0
H2780 H 0.15334 1.01585 0.64215 0.0
H2781 H 0.23503 0.97921 0.64727 0.0
H2782 H 0.1017 0.95009 0.64278 0.0
H2783 H 0.18301 0.91333 0.64828 0.0
H2784 H 0.0809 0.79566 0.63948 0.0
H2785 H 0.13576 0.86061 0.63973 0.0
H2786 H 0.06694 0.89957 0.65266 0.0
H2787 H 1.01247 0.83549 0.65224 0.0
C2788 C 0.16036 0.99382 0.64344 0.0
C2789 C 0.19856 1.00314 0.64465 0.0
C2790 C 0.13059 0.95596 0.64391 0.0
C2791 C 0.13796 0.92611 0.64564 0.0
C2792 C 0.17614 0.93538 0.64688 0.0
C2793 C 0.206 0.97334 0.64641 0.0
C2794 C 0.07773 0.81804 0.64249 0.0
C2795 C 0.04211 0.8103 0.64576 0.0
C2796 C 0.1092 0.85534 0.64263 0.0
C2797 C 0.10577 0.8857 0.64608 0.0
C2798 C 0.07056 0.87734 0.64973 0.0
C2799 C 0.03927 0.84034 0.64954 0.0
H2800 H 0.31104 0.32171 0.64062 0.0
H2801 H 0.26754 0.21216 0.65291 0.0
H2802 H 0.2466 0.31326 0.64073 0.0
H2803 H 0.2036 0.20362 0.65294 0.0
H2804 H 0.09513 0.20887 0.65705 0.0
H2805 H 0.1619 0.22563 0.6588 0.0
H2806 H 0.1865 0.27209 0.63303 0.0
H2807 H 0.12018 0.25619 0.63137 0.0
C2808 C 0.28795 0.29616 0.64348 0.0
C2809 C 0.29453 0.26758 0.64672 0.0
C2810 C 0.25093 0.29113 0.64347 0.0
C2811 C 0.21975 0.2576 0.64679 0.0
C2812 C 0.22682 0.22992 0.65039 0.0
C2813 C 0.2636 0.23477 0.65033 0.0
C2814 C 0.11488 0.22302 0.6518 0.0
C2815 C 0.10208 0.23079 0.64404 0.0
C2816 C 0.15314 0.23243 0.65277 0.0
C2817 C 0.17969 0.25019 0.64605 0.0
C2818 C 0.16705 0.25881 0.63838 0.0
C2819 C 0.12882 0.24918 0.63738 0.0
H2820 H 0.57187 0.16333 0.24378 0.0
H2821 H 0.59778 0.21563 0.21859 0.0
H2822 H 0.62361 0.14932 0.24227 0.0
H2823 H 0.649 0.20065 0.21698 0.0
H2824 H 0.76763 0.2141 0.22301 0.0
H2825 H 0.71189 0.22199 0.22305 0.0
H2826 H 0.64489 0.11064 0.23449 0.0
H2827 H 0.70124 0.10286 0.23455 0.0
C2828 C 0.58861 0.17188 0.23791 0.0
C2829 C 0.58079 0.19103 0.23135 0.0
C2830 C 0.618 0.16332 0.23699 0.0
C2831 C 0.64062 0.17379 0.2295 0.0
C2832 C 0.63245 0.19243 0.22287 0.0
C2833 C 0.60285 0.20079 0.22377 0.0
C2834 C 0.74095 0.19098 0.22544 0.0
C2835 C 0.7391 0.15784 0.22881 0.0
C2836 C 0.70881 0.19548 0.22542 0.0
C2837 C 0.67378 0.16709 0.22881 0.0
C2838 C 0.67151 0.13333 0.23192 0.0
C2839 C 0.70373 0.12868 0.23188 0.0
H2840 H 0.8797 0.58421 0.22788 0.0
H2841 H 1.0014 0.63328 0.23135 0.0
H2842 H 0.87183 0.5211 0.22768 0.0
H2843 H 0.99363 0.56943 0.23083 0.0
H2844 H 0.95905 0.44786 0.23991 0.0
H2845 H 0.97043 0.51266 0.23898 0.0
H2846 H 0.88017 0.47602 0.2201 0.0
H2847 H 0.86827 0.41096 0.22123 0.0
C2848 C 0.90505 0.58171 0.22847 0.0
C2849 C 0.9413 0.61424 0.22965 0.0
C2850 C 0.90048 0.54516 0.22829 0.0
C2851 C 0.932 0.53966 0.22923 0.0
C2852 C 0.96849 0.57225 0.23021 0.0
C2853 C 0.97307 0.60903 0.23044 0.0
C2854 C 0.94184 0.45367 0.23549 0.0
C2855 C 0.91264 0.42398 0.23066 0.0
C2856 C 0.94849 0.49104 0.23493 0.0
C2857 C 0.9263 0.50004 0.22947 0.0
C2858 C 0.89749 0.47037 0.22452 0.0
C2859 C 0.89062 0.43291 0.22514 0.0
H2860 H 0.46936 0.40304 0.23215 0.0
H2861 H 0.52037 0.33235 0.2287 0.0
H2862 H 0.533 0.4598 0.23166 0.0
H2863 H 0.58322 0.38826 0.22851 0.0
H2864 H 0.69229 0.49573 0.22183 0.0
H2865 H 0.6273 0.44199 0.22074 0.0
H2866 H 0.59001 0.49373 0.2399 0.0
H2867 H 0.65474 0.54773 0.24082 0.0
C2868 C 0.49399 0.39953 0.23126 0.0
C2869 C 0.48943 0.36293 0.23047 0.0
C2870 C 0.53061 0.4321 0.23104 0.0
C2871 C 0.56362 0.4289 0.23005 0.0
C2872 C 0.55877 0.39225 0.22912 0.0
C2873 C 0.5224 0.35991 0.2293 0.0
C2874 C 0.67021 0.49559 0.22582 0.0
C2875 C 0.67889 0.52612 0.23141 0.0
C2876 C 0.63282 0.46468 0.22521 0.0
C2877 C 0.60304 0.46316 0.23026 0.0
C2878 C 0.61176 0.49397 0.23579 0.0
C2879 C 0.64907 0.52499 0.23634 0.0
H2880 H 0.55574 0.46133 0.07913 0.0
H2881 H 0.63531 0.48895 0.05813 0.0
H2882 H 0.53816 0.39478 0.07814 0.0
H2883 H 0.61664 0.42136 0.05688 0.0
H2884 H 0.58745 0.29583 0.06186 0.0
H2885 H 0.61386 0.36454 0.0633 0.0
H2886 H 0.50048 0.34594 0.06804 0.0
H2887 H 0.47453 0.27775 0.06709 0.0
C2888 C 0.56981 0.45308 0.07435 0.0
C2889 C 0.59659 0.48013 0.06866 0.0
C2890 C 0.55943 0.41485 0.07372 0.0
C2891 C 0.57507 0.40245 0.06726 0.0
C2892 C 0.6039 0.42993 0.06191 0.0
C2893 C 0.61471 0.4686 0.06263 0.0
C2894 C 0.5682 0.30642 0.06327 0.0
C2895 C 0.5288 0.28102 0.06442 0.0
C2896 C 0.58334 0.34587 0.06401 0.0
C2897 C 0.55944 0.36082 0.06593 0.0
C2898 C 0.51994 0.33547 0.06677 0.0
C2899 C 0.50489 0.29621 0.06607 0.0
H2900 H 0.81788 0.22299 0.06542 0.0
H2901 H 0.80265 0.32109 0.06497 0.0
H2902 H 0.7492 0.18126 0.06475 0.0
H2903 H 0.73335 0.27893 0.06394 0.0
H2904 H 0.60859 0.18207 0.07241 0.0
H2905 H 0.67679 0.23096 0.07228 0.0
H2906 H 0.69893 0.16274 0.05436 0.0
H2907 H 0.63189 0.11421 0.05467 0.0
C2908 C 0.79989 0.23573 0.06518 0.0
C2909 C 0.81598 0.27549 0.06526 0.0
C2910 C 0.76038 0.21174 0.06468 0.0
C2911 C 0.73562 0.22669 0.06419 0.0
C2912 C 0.75154 0.26646 0.06433 0.0
C2913 C 0.7913 0.2906 0.06483 0.0
C2914 C 0.62808 0.17808 0.06833 0.0
C2915 C 0.61513 0.14413 0.06367 0.0
C2916 C 0.6671 0.20598 0.06826 0.0
C2917 C 0.69354 0.20032 0.06348 0.0
C2918 C 0.6797 0.16755 0.05833 0.0
C2919 C 0.64116 0.13981 0.05846 0.0
H2920 H 0.97971 0.55106 0.05704 0.0
H2921 H 0.90965 0.4486 0.07165 0.0
H2922 H 0.92748 0.56406 0.05641 0.0
H2923 H 0.85641 0.46174 0.07098 0.0
H2924 H 0.79946 0.5376 0.07753 0.0
H2925 H 0.84255 0.51163 0.07712 0.0
H2926 H 0.86411 0.54054 0.05014 0.0
H2927 H 0.82107 0.56626 0.05052 0.0
C2928 C 0.95291 0.53103 0.06007 0.0
C2929 C 0.94896 0.49891 0.06446 0.0
C2930 C 0.92277 0.53837 0.05964 0.0
C2931 C 0.88767 0.51396 0.06363 0.0
C2932 C 0.8832 0.48122 0.06788 0.0
C2933 C 0.91352 0.47354 0.06822 0.0
C2934 C 0.81283 0.53777 0.07147 0.0
C2935 C 0.80721 0.55462 0.06409 0.0
C2936 C 0.83747 0.52277 0.07124 0.0
C2937 C 0.85709 0.52434 0.06362 0.0
C2938 C 0.84999 0.5395 0.05615 0.0
C2939 C 0.82542 0.55442 0.05638 0.0
H2940 H 0.48465 0.5532 0.48914 0.0
H2941 H 0.50379 0.63198 0.46848 0.0
H2942 H 0.41752 0.5349 0.48959 0.0
H2943 H 0.4356 0.6128 0.46874 0.0
H2944 H 0.31046 0.58013 0.47567 0.0
H2945 H 0.37996 0.60865 0.47671 0.0
H2946 H 0.36605 0.49656 0.47983 0.0
H2947 H 0.29714 0.46842 0.47909 0.0
C2948 C 0.47446 0.56705 0.48477 0.0
C2949 C 0.49926 0.59376 0.47873 0.0
C2950 C 0.4359 0.55631 0.48498 0.0
C2951 C 0.42088 0.57158 0.47905 0.0
C2952 C 0.44624 0.60042 0.47339 0.0
C2953 C 0.48526 0.61153 0.47324 0.0
C2954 C 0.32231 0.56167 0.47668 0.0
C2955 C 0.29814 0.52193 0.47731 0.0
C2956 C 0.36214 0.57801 0.47719 0.0
C2957 C 0.37865 0.55499 0.47843 0.0
C2958 C 0.35439 0.5153 0.47903 0.0
C2959 C 0.31478 0.49904 0.4785 0.0
H2960 H 0.56317 0.8009 0.48702 0.0
H2961 H 0.58885 0.81752 0.4598 0.0
H2962 H 0.53727 0.84403 0.48627 0.0
H2963 H 0.56198 0.85933 0.45902 0.0
H2964 H 0.57198 0.97527 0.4647 0.0
H2965 H 0.58583 0.9237 0.4646 0.0
H2966 H 0.48521 0.85505 0.47998 0.0
H2967 H 0.47121 0.90765 0.4801 0.0
C2968 C 0.56305 0.81348 0.48087 0.0
C2969 C 0.57843 0.80593 0.47348 0.0
C2970 C 0.54771 0.83776 0.48042 0.0
C2971 C 0.54768 0.85522 0.47259 0.0
C2972 C 0.56185 0.84661 0.46517 0.0
C2973 C 0.57703 0.82236 0.46561 0.0
C2974 C 0.55245 0.94908 0.468 0.0
C2975 C 0.52061 0.94564 0.47246 0.0
C2976 C 0.5603 0.91934 0.46789 0.0
C2977 C 0.53666 0.88521 0.47228 0.0
C2978 C 0.50409 0.88114 0.47658 0.0
C2979 C 0.49589 0.91104 0.47659 0.0
H2980 H 0.29636 0.80737 0.46135 0.0
H2981 H 0.31966 0.79534 0.48798 0.0
H2982 H 0.25277 0.73889 0.46046 0.0
H2983 H 0.27531 0.7266 0.48711 0.0
H2984 H 0.2067 0.59723 0.48001 0.0
H2985 H 0.26074 0.66322 0.47978 0.0
H2986 H 0.18907 0.69984 0.46733 0.0
H2987 H 0.13596 0.63512 0.46758 0.0
C2988 C 0.29272 0.79006 0.46698 0.0
C2989 C 0.31132 0.80698 0.47476 0.0
C2990 C 0.26753 0.7508 0.46648 0.0
C2991 C 0.26038 0.72732 0.47373 0.0
C2992 C 0.28036 0.74386 0.4814 0.0
C2993 C 0.3054 0.78329 0.48192 0.0
C2994 C 0.20283 0.61943 0.47715 0.0
C2995 C 0.167 0.611 0.47387 0.0
C2996 C 0.23361 0.65715 0.47706 0.0
C2997 C 0.22919 0.68675 0.47351 0.0
C2998 C 0.19366 0.67779 0.47001 0.0
C2999 C 0.16305 0.64059 0.47022 0.0
H3000 H 0.5713 0.62884 0.98457 0.0
H3001 H 0.47072 0.59661 0.96916 0.0
H3002 H 0.58408 0.6939 0.9852 0.0
H3003 H 0.48382 0.6629 0.96975 0.0
H3004 H 0.56481 0.79506 0.96284 0.0
H3005 H 0.53729 0.72597 0.96357 0.0
H3006 H 0.55889 0.73411 0.99096 0.0
H3007 H 0.58703 0.80314 0.99022 0.0
C3008 C 0.55161 0.63567 0.98138 0.0
C3009 C 0.52018 0.60774 0.97675 0.0
C3010 C 0.5588 0.67298 0.98181 0.0
C3011 C 0.535 0.68363 0.97753 0.0
C3012 C 0.50275 0.65549 0.97309 0.0
C3013 C 0.49511 0.61763 0.97278 0.0
C3014 C 0.56352 0.78206 0.96903 0.0
C3015 C 0.57863 0.8047 0.97645 0.0
C3016 C 0.54726 0.74242 0.96946 0.0
C3017 C 0.54604 0.72458 0.97731 0.0
C3018 C 0.55965 0.74706 0.9848 0.0
C3019 C 0.57563 0.7866 0.98438 0.0
H3020 H 0.30927 0.80049 0.96284 0.0
H3021 H 0.30102 0.80568 0.99051 0.0
H3022 H 0.37852 0.84193 0.96373 0.0
H3023 H 0.37029 0.84647 0.99141 0.0
H3024 H 0.4783 0.96479 0.98657 0.0
H3025 H 0.41248 0.91316 0.98689 0.0
H3026 H 0.44071 0.84863 0.96922 0.0
H3027 H 0.50749 0.90102 0.96892 0.0
C3028 C 0.32227 0.81027 0.96912 0.0
C3029 C 0.29953 0.80016 0.9766 0.0
C3030 C 0.36201 0.83358 0.96964 0.0
C3031 C 0.37993 0.84759 0.97763 0.0
C3032 C 0.35733 0.83637 0.98514 0.0
C3033 C 0.31764 0.81284 0.98463 0.0
C3034 C 0.47067 0.93937 0.98284 0.0
C3035 C 0.49797 0.93703 0.97767 0.0
C3036 C 0.43294 0.90963 0.98307 0.0
C3037 C 0.42126 0.87679 0.97807 0.0
C3038 C 0.44884 0.87373 0.97311 0.0
C3039 C 0.48704 0.90349 0.97298 0.0
H3040 H 0.13862 0.53329 0.96655 0.0
H3041 H 0.2049 0.63663 0.98115 0.0
H3042 H 0.1919 0.52158 0.96664 0.0
H3043 H 0.25892 0.62454 0.98131 0.0
H3044 H 0.31423 0.54802 0.98937 0.0
H3045 H 0.27005 0.57263 0.98821 0.0
H3046 H 0.25843 0.54848 0.96093 0.0
H3047 H 0.30207 0.52352 0.96209 0.0
C3048 C 0.16481 0.55375 0.96973 0.0
C3049 C 0.16747 0.58579 0.97389 0.0
C3050 C 0.19549 0.54713 0.96972 0.0
C3051 C 0.22967 0.5721 0.97397 0.0
C3052 C 0.23283 0.60471 0.978 0.0
C3053 C 0.20209 0.61177 0.97787 0.0
C3054 C 0.30243 0.54822 0.98312 0.0
C3055 C 0.31143 0.53346 0.97584 0.0
C3056 C 0.27747 0.56272 0.98244 0.0
C3057 C 0.26063 0.56237 0.97449 0.0
C3058 C 0.27076 0.54893 0.96716 0.0
C3059 C 0.29595 0.53481 0.96782 0.0
H3060 H 0.60995 0.45808 0.57329 0.0
H3061 H 0.63268 0.54734 0.55505 0.0
H3062 H 0.67821 0.47736 0.57319 0.0
H3063 H 0.69976 0.56582 0.55477 0.0
H3064 H 0.81882 0.62536 0.56572 0.0
H3065 H 0.75008 0.59842 0.56518 0.0
H3066 H 0.73446 0.485 0.56474 0.0
H3067 H 0.80382 0.51213 0.56564 0.0
C3068 C 0.62933 0.48113 0.56912 0.0
C3069 C 0.61623 0.50164 0.56429 0.0
C3070 C 0.66835 0.49222 0.56906 0.0
C3071 C 0.69461 0.52379 0.56413 0.0
C3072 C 0.68064 0.54221 0.55885 0.0
C3073 C 0.64209 0.53144 0.55897 0.0
C3074 C 0.80086 0.59466 0.5656 0.0
C3075 C 0.817 0.571 0.56572 0.0
C3076 C 0.76134 0.57915 0.56518 0.0
C3077 C 0.73667 0.53949 0.56481 0.0
C3078 C 0.75263 0.51564 0.56503 0.0
C3079 C 0.79239 0.53124 0.56545 0.0
H3080 H 0.54161 0.11545 0.55828 0.0
H3081 H 0.64724 0.18665 0.57182 0.0
H3082 H 0.52926 0.16798 0.55745 0.0
H3083 H 0.63451 0.2401 0.57104 0.0
H3084 H 0.55552 0.29377 0.57851 0.0
H3085 H 0.58279 0.25187 0.57781 0.0
H3086 H 0.55396 0.23207 0.5508 0.0
H3087 H 0.52617 0.27337 0.55152 0.0
C3088 C 0.56242 0.14258 0.56104 0.0
C3089 C 0.5952 0.14683 0.56521 0.0
C3090 C 0.55547 0.17283 0.56049 0.0
C3091 C 0.58088 0.20822 0.56417 0.0
C3092 C 0.61435 0.21303 0.56817 0.0
C3093 C 0.62173 0.18262 0.56859 0.0
C3094 C 0.55524 0.28065 0.57241 0.0
C3095 C 0.53816 0.28646 0.5651 0.0
C3096 C 0.57133 0.25708 0.57199 0.0
C3097 C 0.57037 0.23854 0.56427 0.0
C3098 C 0.5549 0.24578 0.55686 0.0
C3099 C 0.53911 0.26956 0.55726 0.0
H3100 H 0.90824 0.4922 0.56214 0.0
H3101 H 0.98024 0.45515 0.57427 0.0
H3102 H 0.85486 0.42587 0.56223 0.0
H3103 H 0.92797 0.39012 0.57433 0.0
H3104 H 0.82296 0.28075 0.57999 0.0
H3105 H 0.86609 0.34919 0.58104 0.0
H3106 H 0.83863 0.3633 0.55491 0.0
H3107 H 0.79528 0.29447 0.55383 0.0
C3108 C 0.91254 0.47011 0.56491 0.0
C3109 C 0.94856 0.47896 0.56815 0.0
C3110 C 0.88213 0.43215 0.56491 0.0
C3111 C 0.88708 0.40262 0.56831 0.0
C3112 C 0.92283 0.412 0.57176 0.0
C3113 C 0.95301 0.44944 0.57166 0.0
C3114 C 0.826 0.29836 0.57445 0.0
C3115 C 0.8061 0.28187 0.56677 0.0
C3116 C 0.85066 0.33768 0.57507 0.0
C3117 C 0.85624 0.36177 0.56802 0.0
C3118 C 0.83484 0.34565 0.56048 0.0
C3119 C 0.81005 0.30614 0.55986 0.0
H3120 H 0.13947 0.61426 0.39946 0.0
H3121 H 0.25327 0.62982 0.39946 0.0
H3122 H 0.16617 0.68274 0.39897 0.0
H3123 H 0.28019 0.69895 0.39862 0.0
H3124 H 0.30722 0.8232 0.40703 0.0
H3125 H 0.28792 0.75514 0.40697 0.0
H3126 H 0.19853 0.73329 0.38871 0.0
H3127 H 0.21704 0.80012 0.38895 0.0
C3128 C 0.17025 0.63227 0.39937 0.0
C3129 C 0.19411 0.6163 0.3995 0.0
C3130 C 0.18564 0.67169 0.39897 0.0
C3131 C 0.22542 0.69652 0.39866 0.0
C3132 C 0.24946 0.68072 0.39888 0.0
C3133 C 0.23398 0.64106 0.39926 0.0
C3134 C 0.28393 0.8038 0.40291 0.0
C3135 C 0.26324 0.81682 0.39811 0.0
C3136 C 0.27281 0.76485 0.40287 0.0
C3137 C 0.241 0.73852 0.398 0.0
C3138 C 0.22232 0.75239 0.39276 0.0
C3139 C 0.23312 0.79085 0.39285 0.0
H3140 H 0.48682 0.55951 0.39784 0.0
H3141 H 0.472 0.65775 0.3991 0.0
H3142 H 0.41803 0.51806 0.39729 0.0
H3143 H 0.4026 0.61598 0.39821 0.0
H3144 H 0.27865 0.51788 0.40678 0.0
H3145 H 0.34686 0.56669 0.40651 0.0
H3146 H 0.36677 0.50155 0.38726 0.0
H3147 H 0.2997 0.45305 0.38772 0.0
C3148 C 0.46889 0.57233 0.398 0.0
C3149 C 0.4851 0.61203 0.39852 0.0
C3150 C 0.42933 0.54853 0.39757 0.0
C3151 C 0.40466 0.56366 0.39761 0.0
C3152 C 0.42073 0.60337 0.39819 0.0
C3153 C 0.46052 0.62731 0.39861 0.0
C3154 C 0.29763 0.51461 0.40238 0.0
C3155 C 0.2841 0.4815 0.39737 0.0
C3156 C 0.33666 0.54244 0.40223 0.0
C3157 C 0.3625 0.53755 0.39702 0.0
C3158 C 0.34802 0.50572 0.39155 0.0
C3159 C 0.30947 0.47802 0.39176 0.0
H3160 H 0.48714 0.90186 0.38471 0.0
H3161 H 0.47995 0.88599 0.41232 0.0
H3162 H 0.5273 0.87279 0.38376 0.0
H3163 H 0.52084 0.85767 0.41138 0.0
H3164 H 0.57972 0.7881 0.40615 0.0
H3165 H 0.52745 0.80268 0.40576 0.0
H3166 H 0.59364 0.89624 0.3884 0.0
H3167 H 0.64512 0.88184 0.38879 0.0
C3168 C 0.49372 0.89174 0.39057 0.0
C3169 C 0.48068 0.89668 0.3986 0.0
C3170 C 0.51689 0.87525 0.39003 0.0
C3171 C 0.52743 0.86307 0.3975 0.0
C3172 C 0.51302 0.86646 0.4055 0.0
C3173 C 0.49003 0.88319 0.40604 0.0
C3174 C 0.58257 0.81123 0.40213 0.0
C3175 C 0.61653 0.83403 0.39756 0.0
C3176 C 0.55287 0.81977 0.40196 0.0
C3177 C 0.55646 0.85072 0.39707 0.0
C3178 C 0.5897 0.87203 0.39216 0.0
C3179 C 0.61936 0.86391 0.39244 0.0
H3180 H 0.13992 0.86982 0.81906 0.0
H3181 H 0.16886 0.96784 0.80311 0.0
H3182 H 0.07352 0.85341 0.8191 0.0
H3183 H 0.10111 0.9508 0.80303 0.0
H3184 H 0.97492 0.9162 0.81184 0.0
H3185 H 0.04418 0.9412 0.81199 0.0
H3186 H 1.02462 0.82746 0.80797 0.0
H3187 H 0.95612 0.80271 0.80783 0.0
C3188 C 0.13206 0.88804 0.81557 0.0
C3189 C 0.15957 0.91978 0.81095 0.0
C3190 C 0.09384 0.87847 0.81556 0.0
C3191 C 0.08173 0.90013 0.81088 0.0
C3192 C 0.10952 0.93338 0.80667 0.0
C3193 C 0.14825 0.9432 0.80672 0.0
C3194 C 0.98552 0.89665 0.81091 0.0
C3195 C 0.95987 0.8573 0.80997 0.0
C3196 C 1.02519 0.911 0.81099 0.0
C3197 C 0.03997 0.88628 0.81014 0.0
C3198 C 1.01426 0.84723 0.80888 0.0
C3199 C 0.97488 0.83297 0.80881 0.0
H3200 H 0.18721 0.09725 0.81297 0.0
H3201 H 0.30136 0.19302 0.80982 0.0
H3202 H 0.16119 0.14006 0.81174 0.0
H3203 H 0.27562 0.23559 0.80906 0.0
H3204 H 0.22285 0.29733 0.79737 0.0
H3205 H 0.24019 0.24819 0.79838 0.0
H3206 H 0.15722 0.19332 0.8187 0.0
H3207 H 0.13899 0.24268 0.81748 0.0
C3208 C 0.2068 0.1274 0.81208 0.0
C3209 C 0.24645 0.14155 0.81142 0.0
C3210 C 0.19185 0.15194 0.81146 0.0
C3211 C 0.21623 0.19116 0.81015 0.0
C3212 C 0.2559 0.2054 0.80986 0.0
C3213 C 0.27077 0.18098 0.81044 0.0
C3214 C 0.2078 0.27441 0.80196 0.0
C3215 C 0.17991 0.274 0.80741 0.0
C3216 C 0.21801 0.24643 0.8026 0.0
C3217 C 0.20097 0.21747 0.80881 0.0
C3218 C 0.17106 0.21542 0.81389 0.0
C3219 C 0.1605 0.24351 0.81318 0.0
H3220 H 0.91263 0.14332 0.81029 0.0
H3221 H 1.00936 0.12541 0.81076 0.0
H3222 H 0.86979 0.07528 0.80884 0.0
H3223 H 0.96602 0.05666 0.80903 0.0
H3224 H 0.86131 0.9314 0.8156 0.0
H3225 H 0.91236 0.99848 0.8167 0.0
H3226 H 0.85583 0.02895 0.79729 0.0
H3227 H 0.80526 0.963 0.79632 0.0
C3228 C 0.92481 0.12485 0.81015 0.0
C3229 C 0.96452 0.13999 0.81066 0.0
C3230 C 0.90022 0.08577 0.8092 0.0
C3231 C 0.91451 0.06053 0.8087 0.0
C3232 C 0.95414 0.07536 0.80939 0.0
C3233 C 0.97893 0.11474 0.81031 0.0
C3234 C 0.86043 0.95244 0.81145 0.0
C3235 C 0.82903 0.94215 0.80598 0.0
C3236 C 0.88953 0.9908 0.81209 0.0
C3237 C 0.88757 1.01918 0.80724 0.0
C3238 C 0.85765 1.00805 0.8013 0.0
C3239 C 0.82876 0.97016 0.80071 0.0
H3240 H 0.13036 0.92887 0.30665 0.0
H3241 H 0.24313 0.96257 0.31635 0.0
H3242 H 0.1452 0.9955 0.3077 0.0
H3243 H 0.25792 0.02782 0.31716 0.0
H3244 H 0.27063 0.13939 0.32403 0.0
H3245 H 0.24468 0.07077 0.32479 0.0
H3246 H 0.18686 0.05698 0.3005 0.0
H3247 H 0.21243 0.1257 0.29982 0.0
C3248 C 0.15804 0.95027 0.30906 0.0
C3249 C 0.18559 0.94032 0.31133 0.0
C3250 C 0.16667 0.98843 0.30961 0.0
C3251 C 0.20279 1.01713 0.31254 0.0
C3252 C 0.22963 1.00665 0.31502 0.0
C3253 C 0.22117 0.96899 0.31445 0.0
C3254 C 0.25234 0.12173 0.31886 0.0
C3255 C 0.24404 0.13815 0.31182 0.0
C3256 C 0.23735 0.08233 0.31929 0.0
C3257 C 0.21394 0.05825 0.31265 0.0
C3258 C 0.20441 0.07451 0.30577 0.0
C3259 C 0.21925 0.11398 0.30537 0.0
H3260 H 0.14209 0.30631 0.31884 0.0
H3261 H 0.17191 0.23749 0.30301 0.0
H3262 H 0.07614 0.25512 0.3193 0.0
H3263 H 0.10501 0.1855 0.30348 0.0
H3264 H 0.97363 0.1342 0.29665 0.0
H3265 H 0.0428 0.17643 0.29742 0.0
H3266 H 0.03394 0.19008 0.32477 0.0
H3267 H 0.96475 0.14847 0.32398 0.0
C3268 C 0.13458 0.27996 0.31552 0.0
C3269 C 0.16219 0.27603 0.31083 0.0
C3270 C 0.09674 0.25045 0.31585 0.0
C3271 C 0.08522 0.21619 0.31143 0.0
C3272 C 0.113 0.21168 0.30692 0.0
C3273 C 0.15129 0.24126 0.30669 0.0
C3274 C 0.98647 0.14615 0.30283 0.0
C3275 C 0.96356 0.13831 0.31024 0.0
C3276 C 1.02617 0.16995 0.30329 0.0
C3277 C 0.0439 0.18674 0.31115 0.0
C3278 C 1.02114 0.17784 0.3186 0.0
C3279 C 0.98149 0.15382 0.31816 0.0
H3280 H 1.00336 0.90787 0.30975 0.0
H3281 H 0.90532 0.79443 0.31081 0.0
H3282 H 0.961 0.93472 0.31056 0.0
H3283 H 0.86329 0.821 0.31124 0.0
H3284 H 0.79667 0.87299 0.32049 0.0
H3285 H 0.84529 0.85466 0.32106 0.0
H3286 H 0.91224 0.94115 0.30222 0.0
H3287 H 0.86337 0.96038 0.30186 0.0
C3288 C 0.97284 0.88866 0.31019 0.0
C3289 C 0.95779 0.84892 0.31023 0.0
C3290 C 0.94856 0.90407 0.31055 0.0
C3291 C 0.90872 0.8801 0.31102 0.0
C3292 C 0.89383 0.84043 0.31103 0.0
C3293 C 0.91797 0.8251 0.31067 0.0
C3294 C 0.82199 0.88848 0.31654 0.0
C3295 C 0.826 0.91776 0.31104 0.0
C3296 C 0.84979 0.87778 0.31682 0.0
C3297 C 0.88224 0.89569 0.31152 0.0
C3298 C 0.88753 0.92668 0.30638 0.0
C3299 C 0.85963 0.93775 0.30617 0.0
H3300 H 0.27188 0.77942 0.89466 0.0
H3301 H 0.31006 0.88546 0.9082 0.0
H3302 H 0.33799 0.79135 0.89462 0.0
H3303 H 0.37501 0.89702 0.90822 0.0
H3304 H 0.48278 0.8953 0.91339 0.0
H3305 H 0.41412 0.87058 0.91447 0.0
H3306 H 0.40132 0.84209 0.88742 0.0
H3307 H 0.47018 0.86645 0.88633 0.0
C3308 C 0.29419 0.8049 0.89771 0.0
C3309 C 0.28585 0.83163 0.90137 0.0
C3310 C 0.33197 0.81183 0.89765 0.0
C3311 C 0.36169 0.84511 0.90144 0.0
C3312 C 0.35281 0.87094 0.90534 0.0
C3313 C 0.31554 0.86441 0.90526 0.0
C3314 C 0.46529 0.88309 0.9077 0.0
C3315 C 0.48206 0.88316 0.89976 0.0
C3316 C 0.42596 0.86911 0.90832 0.0
C3317 C 0.40232 0.85456 0.90102 0.0
C3318 C 0.41873 0.85289 0.89316 0.0
C3319 C 0.45821 0.86724 0.89253 0.0
H3320 H 0.19338 0.60608 0.88523 0.0
H3321 H 0.22107 0.62431 0.91233 0.0
H3322 H 0.22107 0.5647 0.88442 0.0
H3323 H 0.24827 0.58238 0.91154 0.0
H3324 H 0.31367 0.51849 0.9055 0.0
H3325 H 0.3006 0.5717 0.9048 0.0
H3326 H 0.19647 0.50008 0.89079 0.0
H3327 H 0.20916 0.44772 0.89155 0.0
C3328 C 0.20592 0.60175 0.89098 0.0
C3329 C 0.20459 0.61811 0.89887 0.0
C3330 C 0.22165 0.57793 0.89053 0.0
C3331 C 0.2367 0.57014 0.89793 0.0
C3332 C 0.23716 0.58804 0.90572 0.0
C3333 C 0.22112 0.61163 0.90619 0.0
C3334 C 0.28836 0.51453 0.90218 0.0
C3335 C 0.26223 0.47892 0.89866 0.0
C3336 C 0.28078 0.54479 0.90181 0.0
C3337 C 0.24749 0.54004 0.89774 0.0
C3338 C 0.22252 0.50487 0.8939 0.0
C3339 C 0.22968 0.47473 0.8944 0.0
H3340 H 0.46393 0.62583 0.88683 0.0
H3341 H 0.48611 0.61211 0.91343 0.0
H3342 H 0.5076 0.69456 0.88797 0.0
H3343 H 0.52938 0.68051 0.91458 0.0
H3344 H 0.64565 0.78506 0.90855 0.0
H3345 H 0.59245 0.72058 0.90855 0.0
H3346 H 0.52368 0.75746 0.89483 0.0
H3347 H 0.57807 0.82323 0.89477 0.0
C3348 C 0.47753 0.63753 0.89296 0.0
C3349 C 0.47204 0.61331 0.89999 0.0
C3350 C 0.50247 0.67697 0.89363 0.0
C3351 C 0.52241 0.69305 0.90134 0.0
C3352 C 0.51513 0.66902 0.90849 0.0
C3353 C 0.49039 0.62975 0.90782 0.0
C3354 C 0.61917 0.77974 0.90557 0.0
C3355 C 0.61627 0.80935 0.90159 0.0
C3356 C 0.58842 0.74262 0.90564 0.0
C3357 C 0.55365 0.73369 0.90171 0.0
C3358 C 0.55019 0.76338 0.89788 0.0
C3359 C 0.58117 0.80103 0.89789 0.0
H3360 H 0.81359 0.94405 0.7359 0.0
H3361 H 0.92601 0.96239 0.73003 0.0
H3362 H 0.83855 1.01237 0.73582 0.0
H3363 H 0.95122 0.03149 0.72998 0.0
H3364 H 0.97915 0.15653 0.73906 0.0
H3365 H 0.96243 0.08908 0.73931 0.0
H3366 H 0.862 0.05962 0.72409 0.0
H3367 H 0.87815 0.12567 0.7239 0.0
C3368 C 0.84365 0.96267 0.73455 0.0
C3369 C 0.86758 0.9476 0.73281 0.0
C3370 C 0.85802 1.00192 0.73452 0.0
C3371 C 0.89678 0.0274 0.73274 0.0
C3372 C 0.92125 1.01261 0.73137 0.0
C3373 C 0.90677 0.97305 0.7314 0.0
C3374 C 0.95386 0.13558 0.73568 0.0
C3375 C 0.92957 0.14632 0.73162 0.0
C3376 C 0.94426 0.09703 0.73583 0.0
C3377 C 0.91032 0.06888 0.73191 0.0
C3378 C 0.88767 0.08032 0.7274 0.0
C3379 C 0.89709 0.11834 0.72727 0.0
H3380 H 0.97205 0.78194 0.74313 0.0
H3381 H 0.93816 0.85047 0.72836 0.0
H3382 H 0.03719 0.83425 0.74356 0.0
H3383 H 1.0045 0.90385 0.72884 0.0
H3384 H 0.13742 0.95953 0.72194 0.0
H3385 H 0.06822 0.91626 0.72249 0.0
H3386 H 0.07639 0.898 0.74963 0.0
H3387 H 0.14519 0.93975 0.74905 0.0
C3388 C 0.97849 0.80847 0.74004 0.0
C3389 C 0.95004 0.812 0.73564 0.0
C3390 C 1.01588 0.83862 0.74035 0.0
C3391 C 1.02605 0.87323 0.73624 0.0
C3392 C 0.99746 0.87737 0.73202 0.0
C3393 C 0.95955 0.84702 0.7318 0.0
C3394 C 0.12438 0.94627 0.72802 0.0
C3395 C 0.14696 0.95287 0.73543 0.0
C3396 C 0.0847 0.92195 0.72836 0.0
C3397 C 0.06689 0.90361 0.73609 0.0
C3398 C 0.0893 0.91146 0.74356 0.0
C3399 C 0.12878 0.93565 0.74323 0.0
H3400 H 0.31924 0.22346 0.74084 0.0
H3401 H 0.24435 0.11573 0.72855 0.0
H3402 H 0.26847 0.23852 0.74107 0.0
H3403 H 0.19245 0.13108 0.72882 0.0
H3404 H 0.13816 0.20917 0.72089 0.0
H3405 H 0.17958 0.18116 0.7216 0.0
H3406 H 0.20637 0.2174 0.74809 0.0
H3407 H 0.16511 0.24503 0.74743 0.0
C3408 C 0.29169 0.20273 0.73824 0.0
C3409 C 0.28593 0.16846 0.73462 0.0
C3410 C 0.26241 0.21131 0.73843 0.0
C3411 C 0.22634 0.186 0.73499 0.0
C3412 C 0.22005 0.15122 0.73149 0.0
C3413 C 0.24957 0.14231 0.73139 0.0
C3414 C 0.15244 0.21063 0.72691 0.0
C3415 C 0.14892 0.23011 0.73405 0.0
C3416 C 0.17603 0.19442 0.72732 0.0
C3417 C 0.19657 0.1974 0.73487 0.0
C3418 C 0.19147 0.21518 0.74212 0.0
C3419 C 0.168 0.23128 0.74172 0.0
H3420 H 0.80136 0.19875 0.13516 0.0
H3421 H 0.8403 0.30943 0.14653 0.0
H3422 H 0.73647 0.18691 0.13498 0.0
H3423 H 0.77412 0.29729 0.14634 0.0
H3424 H 0.6417 0.22514 0.15488 0.0
H3425 H 0.71076 0.25047 0.15393 0.0
H3426 H 0.69748 0.21015 0.12771 0.0
H3427 H 0.62885 0.18513 0.12862 0.0
C3428 C 0.79609 0.22075 0.13759 0.0
C3429 C 0.82603 0.25497 0.14092 0.0
C3430 C 0.75879 0.21403 0.13742 0.0
C3431 C 0.7501 0.24119 0.14061 0.0
C3432 C 0.78 0.27579 0.14386 0.0
C3433 C 0.81781 0.28282 0.14392 0.0
C3434 C 0.65364 0.22237 0.14886 0.0
C3435 C 0.62962 0.20243 0.14188 0.0
C3436 C 0.69322 0.23699 0.14831 0.0
C3437 C 0.7095 0.2319 0.14078 0.0
C3438 C 0.68572 0.21393 0.13365 0.0
C3439 C 0.64634 0.19941 0.1342 0.0
H3440 H 0.89576 0.47002 0.12989 0.0
H3441 H 0.91182 0.47669 0.15748 0.0
H3442 H 0.86786 0.51123 0.13089 0.0
H3443 H 0.88324 0.51723 0.1585 0.0
H3444 H 0.89233 0.63482 0.1537 0.0
H3445 H 0.90676 0.58347 0.15396 0.0
H3446 H 0.81291 0.51812 0.13656 0.0
H3447 H 0.7983 0.57025 0.13631 0.0
C3448 C 0.8931 0.48007 0.13618 0.0
C3449 C 0.90648 0.4704 0.1436 0.0
C3450 C 0.87662 0.50327 0.13676 0.0
C3451 C 0.8734 0.51764 0.14477 0.0
C3452 C 0.88556 0.50688 0.15222 0.0
C3453 C 0.90176 0.48346 0.15164 0.0
C3454 C 0.87432 0.60926 0.15002 0.0
C3455 C 0.84433 0.60665 0.14493 0.0
C3456 C 0.88247 0.57967 0.15022 0.0
C3457 C 0.86111 0.54669 0.14526 0.0
C3458 C 0.83007 0.54333 0.1404 0.0
C3459 C 0.82149 0.57294 0.14031 0.0
H3460 H 0.66899 0.46389 0.14227 0.0
H3461 H 0.57034 0.47701 0.14611 0.0
H3462 H 0.62715 0.39459 0.14145 0.0
H3463 H 0.52894 0.40834 0.14519 0.0
H3464 H 0.46408 0.29718 0.13164 0.0
H3465 H 0.51262 0.36377 0.13274 0.0
H3466 H 0.5776 0.33465 0.15008 0.0
H3467 H 0.52828 0.26684 0.14894 0.0
C3468 C 0.6385 0.45203 0.14306 0.0
C3469 C 0.62299 0.47613 0.14412 0.0
C3470 C 0.6146 0.41235 0.14258 0.0
C3471 C 0.57474 0.39607 0.14311 0.0
C3472 C 0.5595 0.42008 0.14456 0.0
C3473 C 0.58324 0.45949 0.14507 0.0
C3474 C 0.48889 0.30474 0.13562 0.0
C3475 C 0.49204 0.27679 0.14031 0.0
C3476 C 0.51664 0.34301 0.13629 0.0
C3477 C 0.54842 0.35461 0.14168 0.0
C3478 C 0.55322 0.32653 0.14592 0.0
C3479 C 0.52514 0.28777 0.14524 0.0
H3480 H 0.79741 0.26302 0.64125 0.0
H3481 H 0.91648 0.29892 0.64549 0.0
H3482 H 0.81311 0.32993 0.64234 0.0
H3483 H 0.93173 0.36413 0.64636 0.0
H3484 H 0.9495 0.47554 0.655 0.0
H3485 H 0.92432 0.40705 0.65559 0.0
H3486 H 0.84869 0.39115 0.63434 0.0
H3487 H 0.87357 0.45986 0.63385 0.0
C3488 C 0.82671 0.28492 0.64243 0.0
C3489 C 0.85554 0.27532 0.64327 0.0
C3490 C 0.83576 0.32323 0.64302 0.0
C3491 C 0.87369 0.35247 0.64453 0.0
C3492 C 0.90213 0.34253 0.6454 0.0
C3493 C 0.89324 0.30477 0.6448 0.0
C3494 C 0.92747 0.45746 0.65046 0.0
C3495 C 0.91397 0.47329 0.64431 0.0
C3496 C 0.91292 0.41814 0.6508 0.0
C3497 C 0.88476 0.39351 0.64493 0.0
C3498 C 0.87009 0.40915 0.639 0.0
C3499 C 0.88451 0.44859 0.6387 0.0
H3500 H 0.80936 0.64054 0.65214 0.0
H3501 H 0.83856 0.5721 0.636 0.0
H3502 H 0.74346 0.58921 0.65273 0.0
H3503 H 0.77176 0.52001 0.6366 0.0
H3504 H 0.6403 0.46939 0.62998 0.0
H3505 H 0.70951 0.51141 0.63069 0.0
H3506 H 0.70144 0.52389 0.65812 0.0
H3507 H 0.6322 0.48247 0.65739 0.0
C3508 C 0.80173 0.61423 0.64879 0.0
C3509 C 0.8291 0.61044 0.64397 0.0
C3510 C 0.76394 0.58466 0.64919 0.0
C3511 C 0.75228 0.55051 0.6447 0.0
C3512 C 0.77987 0.54612 0.64008 0.0
C3513 C 0.8181 0.57574 0.63979 0.0
C3514 C 0.65333 0.48103 0.63617 0.0
C3515 C 0.63065 0.47296 0.64361 0.0
C3516 C 0.69304 0.5047 0.63659 0.0
C3517 C 0.71098 0.52111 0.64446 0.0
C3518 C 0.68845 0.51193 0.65195 0.0
C3519 C 0.64879 0.48804 0.65154 0.0
H3520 H 0.62276 0.18479 0.65676 0.0
H3521 H 0.6382 0.21021 0.62953 0.0
H3522 H 0.58125 0.21234 0.65769 0.0
H3523 H 0.596 0.23708 0.63044 0.0
H3524 H 0.53387 0.30372 0.6364 0.0
H3525 H 0.58629 0.28936 0.63676 0.0
H3526 H 0.51626 0.18933 0.6521 0.0
H3527 H 0.46469 0.20349 0.65176 0.0
C3528 C 0.61773 0.19672 0.651 0.0
C3529 C 0.63347 0.1949 0.64305 0.0
C3530 C 0.59377 0.21232 0.65152 0.0
C3531 C 0.58513 0.22671 0.64413 0.0
C3532 C 0.60226 0.22649 0.63626 0.0
C3533 C 0.62604 0.21063 0.63572 0.0
C3534 C 0.53009 0.27906 0.63994 0.0
C3535 C 0.49509 0.25457 0.64398 0.0
C3536 C 0.55991 0.2707 0.64011 0.0
C3537 C 0.55542 0.23817 0.64446 0.0
C3538 C 0.52092 0.2148 0.64878 0.0
C3539 C 0.49119 0.22279 0.64851 0.0
H3540 H 0.97361 0.22451 0.22359 0.0
H3541 H 0.94391 0.125 0.23907 0.0
H3542 H 0.03977 0.23979 0.22326 0.0
H3543 H 1.01106 0.14048 0.23873 0.0
H3544 H 0.14198 0.22002 0.24586 0.0
H3545 H 0.07281 0.19314 0.24499 0.0
H3546 H 0.08259 0.21782 0.21773 0.0
H3547 H 0.15177 0.24538 0.21863 0.0
C3548 C 0.98119 0.20561 0.22687 0.0
C3549 C 0.95353 0.17368 0.23143 0.0
C3550 C 1.01917 0.21426 0.22661 0.0
C3551 C 1.03079 0.19142 0.23097 0.0
C3552 C 1.003 0.15877 0.23535 0.0
C3553 C 0.96458 0.14976 0.23551 0.0
C3554 C 0.12935 0.21965 0.23967 0.0
C3555 C 0.15251 0.2353 0.23233 0.0
C3556 C 0.08965 0.20378 0.23916 0.0
C3557 C 0.07217 0.20345 0.2313 0.0
C3558 C 0.0952 0.21792 0.2239 0.0
C3559 C 0.13484 0.23352 0.2244 0.0
H3560 H 0.86434 0.94488 0.21813 0.0
H3561 H 0.88567 0.95784 0.24554 0.0
H3562 H 0.89224 0.90368 0.21736 0.0
H3563 H 0.91287 0.91597 0.24479 0.0
H3564 H 0.98094 0.85498 0.23944 0.0
H3565 H 0.96635 0.9071 0.23894 0.0
H3566 H 0.86917 0.83853 0.22262 0.0
H3567 H 0.88357 0.78725 0.22312 0.0
C3568 C 0.87541 0.93935 0.22398 0.0
C3569 C 0.87235 0.95436 0.23191 0.0
C3570 C 0.89122 0.91555 0.22355 0.0
C3571 C 0.90462 0.90634 0.23103 0.0
C3572 C 0.9031 0.92267 0.2389 0.0
C3573 C 0.88702 0.94627 0.23935 0.0
C3574 C 0.95692 0.85149 0.23564 0.0
C3575 C 0.93323 0.81694 0.23139 0.0
C3576 C 0.94838 0.88114 0.2354 0.0
C3577 C 0.91651 0.87695 0.23075 0.0
C3578 C 0.89411 0.84298 0.22618 0.0
C3579 C 0.90224 0.8134 0.22653 0.0
H3580 H 0.11038 0.96274 0.23292 0.0
H3581 H 0.20902 0.94845 0.23079 0.0
H3582 H 0.15199 0.03196 0.23204 0.0
H3583 H 0.25034 1.01705 0.23026 0.0
H3584 H 0.31477 0.13559 0.221 0.0
H3585 H 0.26628 0.06865 0.2205 0.0
H3586 H 0.20185 0.08749 0.24017 0.0
H3587 H 0.25061 0.15555 0.24047 0.0
C3588 C 0.14087 0.97428 0.23223 0.0
C3589 C 0.15628 0.94987 0.23191 0.0
C3590 C 0.16474 1.014 0.23183 0.0
C3591 C 0.20455 0.03021 0.23101 0.0
C3592 C 0.2198 1.0057 0.23073 0.0
C3593 C 0.19608 0.96621 0.23114 0.0
C3594 C 0.28992 0.12561 0.22512 0.0
C3595 C 0.28664 0.15068 0.23084 0.0
C3596 C 0.26223 0.08712 0.22489 0.0
C3597 C 0.23061 0.07234 0.23046 0.0
C3598 C 0.2259 0.09789 0.2358 0.0
C3599 C 0.25371 0.13685 0.23597 0.0
loop_
_geom_bond_atom_site_label_1
_geom_bond_atom_site_label_2
_geom_bond_distance
_geom_bond_site_symmetry_2
_ccdc_geom_bond_type
Tb0 C2 2.809 . S
Tb0 O20 2.484 . S
Tb0 O21 2.440 . S
Tb0 O22 2.658 . S
Tb0 O23 2.409 . S
Tb0 O24 2.378 . S
Tb0 O28 2.325 . S
Tb0 O31 2.341 1_545 S
Tb1 C11 2.809 1_545 S
Tb1 O22 2.325 . S
Tb1 O25 2.341 . S
Tb1 O26 2.484 1_545 S
Tb1 O27 2.440 1_545 S
Tb1 O28 2.658 . S
Tb1 O29 2.409 . S
Tb1 O30 2.378 1_545 S
C2 Tb0 2.809 . S
C2 C3 1.514 . S
C2 O20 1.248 . S
C2 O21 1.266 . S
C3 C2 1.514 . S
C3 C4 1.359 . S
C3 C8 1.348 . S
C4 C3 1.359 . S
C4 C5 1.380 . S
C4 H32 0.929 . S
C5 C4 1.380 . S
C5 C6 1.347 . S
C5 H33 0.931 . S
C6 C5 1.347 . S
C6 C7 1.369 . S
C7 C6 1.369 . S
C7 C8 1.408 . S
C7 H34 0.930 . S
C8 C3 1.348 . S
C8 C7 1.408 . S
C8 H35 0.930 . S
C9 O22 1.281 . S
C9 O23 1.254 . S
C10 O24 1.236 . S
C10 O25 1.266 . S
C11 Tb1 2.809 1_565 S
C11 C12 1.514 . S
C11 O26 1.248 . S
C11 O27 1.266 . S
C12 C11 1.514 . S
C12 C13 1.359 . S
C12 C17 1.348 . S
C13 C12 1.359 . S
C13 C14 1.380 . S
C13 H36 0.929 . S
C14 C13 1.380 . S
C14 C15 1.347 . S
C14 H37 0.931 . S
C15 C14 1.347 . S
C15 C16 1.369 . S
C16 C15 1.369 . S
C16 C17 1.408 . S
C16 H38 0.930 . S
C17 C12 1.348 . S
C17 C16 1.408 . S
C17 H39 0.930 . S
C18 O28 1.281 . S
C18 O29 1.254 . S
C19 O30 1.236 . S
C19 O31 1.266 . S
O20 Tb0 2.484 . S
O20 C2 1.248 . S
O21 Tb0 2.440 . S
O21 C2 1.266 . S
O22 Tb0 2.658 . S
O22 Tb1 2.325 . S
O22 C9 1.281 . S
O23 Tb0 2.409 . S
O23 C9 1.254 . S
O24 Tb0 2.378 . S
O24 C10 1.236 . S
O25 Tb1 2.341 . S
O25 C10 1.266 . S
O26 Tb1 2.484 1_565 S
O26 C11 1.248 . S
O27 Tb1 2.440 1_565 S
O27 C11 1.266 . S
O28 Tb0 2.325 . S
O28 Tb1 2.658 . S
O28 C18 1.281 . S
O29 Tb1 2.409 . S
O29 C18 1.254 . S
O30 Tb1 2.378 1_565 S
O30 C19 1.236 . S
O31 Tb0 2.341 1_565 S
O31 C19 1.266 . S
H32 C4 0.929 . S
H33 C5 0.931 . S
H34 C7 0.930 . S
H35 C8 0.930 . S
H36 C13 0.929 . S
H37 C14 0.931 . S
H38 C16 0.930 . S
H39 C17 0.930 . S
Tb40 C42 2.809 . S
Tb40 O60 2.484 . S
Tb40 O61 2.440 . S
Tb40 O62 2.658 1_655 S
Tb40 O63 2.410 1_655 S
Tb40 O64 2.378 . S
Tb40 O68 2.329 1_655 S
Tb40 O71 2.341 1_655 S
Tb41 C51 2.809 . S
Tb41 O62 2.325 . S
Tb41 O65 2.341 1_455 S
Tb41 O66 2.484 . S
Tb41 O67 2.440 . S
Tb41 O68 2.661 . S
Tb41 O69 2.409 . S
Tb41 O70 2.378 . S
C42 Tb40 2.809 . S
C42 C43 1.514 . S
C42 O60 1.248 . S
C42 O61 1.266 . S
C43 C42 1.514 . S
C43 C44 1.359 . S
C43 C48 1.348 . S
C44 C43 1.359 . S
C44 C45 1.380 . S
C44 H72 0.929 . S
C45 C44 1.380 . S
C45 C46 1.347 . S
C45 H73 0.931 . S
C46 C45 1.347 . S
C46 C47 1.369 . S
C47 C46 1.369 . S
C47 C48 1.408 . S
C47 H74 0.930 . S
C48 C43 1.348 . S
C48 C47 1.408 . S
C48 H75 0.930 . S
C49 O62 1.281 . S
C49 O63 1.254 . S
C50 O64 1.236 . S
C50 O65 1.266 . S
C51 Tb41 2.809 . S
C51 C52 1.514 . S
C51 O66 1.248 . S
C51 O67 1.266 . S
C52 C51 1.514 . S
C52 C53 1.359 . S
C52 C57 1.348 . S
C53 C52 1.359 . S
C53 C54 1.380 . S
C53 H76 0.929 . S
C54 C53 1.380 . S
C54 C55 1.347 . S
C54 H77 0.931 . S
C55 C54 1.347 . S
C55 C56 1.369 . S
C56 C55 1.369 . S
C56 C57 1.408 . S
C56 H78 0.930 . S
C57 C52 1.348 . S
C57 C56 1.408 . S
C57 H79 0.930 . S
C58 O68 1.289 . S
C58 O69 1.254 . S
C59 O70 1.236 . S
C59 O71 1.266 . S
O60 Tb40 2.484 . S
O60 C42 1.248 . S
O61 Tb40 2.440 . S
O61 C42 1.266 . S
O62 Tb40 2.658 1_455 S
O62 Tb41 2.325 . S
O62 C49 1.281 . S
O63 Tb40 2.410 1_455 S
O63 C49 1.254 . S
O64 Tb40 2.378 . S
O64 C50 1.236 . S
O65 Tb41 2.341 1_655 S
O65 C50 1.266 . S
O66 Tb41 2.484 . S
O66 C51 1.248 . S
O67 Tb41 2.440 . S
O67 C51 1.266 . S
O68 Tb40 2.329 1_455 S
O68 Tb41 2.661 . S
O68 C58 1.289 . S
O69 Tb41 2.409 . S
O69 C58 1.254 . S
O70 Tb41 2.378 . S
O70 C59 1.236 . S
O71 Tb40 2.341 1_455 S
O71 C59 1.266 . S
H72 C44 0.929 . S
H73 C45 0.931 . S
H74 C47 0.930 . S
H75 C48 0.930 . S
H76 C53 0.929 . S
H77 C54 0.931 . S
H78 C56 0.930 . S
H79 C57 0.930 . S
Tb80 C82 2.809 . S
Tb80 O100 2.484 . S
Tb80 O101 2.440 . S
Tb80 O102 2.658 . S
Tb80 O103 2.409 . S
Tb80 O104 2.378 . S
Tb80 O108 2.325 . S
Tb80 O111 2.341 . S
Tb81 C91 2.809 . S
Tb81 O102 2.325 . S
Tb81 O105 2.341 . S
Tb81 O106 2.484 . S
Tb81 O107 2.440 . S
Tb81 O108 2.658 . S
Tb81 O109 2.409 . S
Tb81 O110 2.378 . S
C82 Tb80 2.809 . S
C82 C83 1.514 . S
C82 O100 1.248 . S
C82 O101 1.266 . S
C83 C82 1.514 . S
C83 C84 1.359 . S
C83 C88 1.348 . S
C84 C83 1.359 . S
C84 C85 1.380 . S
C84 H112 0.929 . S
C85 C84 1.380 . S
C85 C86 1.347 . S
C85 H113 0.931 . S
C86 C85 1.347 . S
C86 C87 1.369 . S
C87 C86 1.369 . S
C87 C88 1.408 . S
C87 H114 0.930 . S
C88 C83 1.348 . S
C88 C87 1.408 . S
C88 H115 0.930 . S
C89 O102 1.281 . S
C89 O103 1.254 . S
C90 O104 1.236 . S
C90 O105 1.266 . S
C91 Tb81 2.809 . S
C91 C92 1.514 . S
C91 O106 1.248 . S
C91 O107 1.266 . S
C92 C91 1.514 . S
C92 C93 1.359 . S
C92 C97 1.348 . S
C93 C92 1.359 . S
C93 C94 1.380 . S
C93 H116 0.929 . S
C94 C93 1.380 . S
C94 C95 1.347 . S
C94 H117 0.931 . S
C95 C94 1.347 . S
C95 C96 1.369 . S
C96 C95 1.369 . S
C96 C97 1.408 . S
C96 H118 0.930 . S
C97 C92 1.348 . S
C97 C96 1.408 . S
C97 H119 0.930 . S
C98 O108 1.281 . S
C98 O109 1.254 . S
C99 O110 1.236 . S
C99 O111 1.266 . S
O100 Tb80 2.484 . S
O100 C82 1.248 . S
O101 Tb80 2.440 . S
O101 C82 1.266 . S
O102 Tb80 2.658 . S
O102 Tb81 2.325 . S
O102 C89 1.281 . S
O103 Tb80 2.409 . S
O103 C89 1.254 . S
O104 Tb80 2.378 . S
O104 C90 1.236 . S
O105 Tb81 2.341 . S
O105 C90 1.266 . S
O106 Tb81 2.484 . S
O106 C91 1.248 . S
O107 Tb81 2.440 . S
O107 C91 1.266 . S
O108 Tb80 2.325 . S
O108 Tb81 2.658 . S
O108 C98 1.281 . S
O109 Tb81 2.409 . S
O109 C98 1.254 . S
O110 Tb81 2.378 . S
O110 C99 1.236 . S
O111 Tb80 2.341 . S
O111 C99 1.266 . S
H112 C84 0.929 . S
H113 C85 0.931 . S
H114 C87 0.930 . S
H115 C88 0.930 . S
H116 C93 0.929 . S
H117 C94 0.931 . S
H118 C96 0.930 . S
H119 C97 0.930 . S
Tb120 C122 2.809 . S
Tb120 O140 2.484 . S
Tb120 O141 2.440 . S
Tb120 O142 2.658 . S
Tb120 O143 2.409 . S
Tb120 O144 2.378 . S
Tb120 O148 2.325 . S
Tb120 O151 2.341 1_455 S
Tb121 C131 2.809 1_455 S
Tb121 O142 2.325 . S
Tb121 O145 2.341 . S
Tb121 O146 2.484 1_455 S
Tb121 O147 2.440 1_455 S
Tb121 O148 2.658 . S
Tb121 O149 2.409 . S
Tb121 O150 2.378 1_455 S
C122 Tb120 2.809 . S
C122 C123 1.514 . S
C122 O140 1.248 . S
C122 O141 1.266 . S
C123 C122 1.514 . S
C123 C124 1.359 . S
C123 C128 1.348 . S
C124 C123 1.359 . S
C124 C125 1.380 . S
C124 H152 0.929 . S
C125 C124 1.380 . S
C125 C126 1.347 . S
C125 H153 0.931 . S
C126 C125 1.347 . S
C126 C127 1.369 . S
C127 C126 1.369 . S
C127 C128 1.408 . S
C127 H154 0.930 . S
C128 C123 1.348 . S
C128 C127 1.408 . S
C128 H155 0.930 . S
C129 O142 1.281 . S
C129 O143 1.254 . S
C130 O144 1.236 . S
C130 O145 1.266 . S
C131 Tb121 2.809 1_655 S
C131 C132 1.514 . S
C131 O146 1.248 . S
C131 O147 1.266 . S
C132 C131 1.514 . S
C132 C133 1.359 . S
C132 C137 1.348 . S
C133 C132 1.359 . S
C133 C134 1.380 . S
C133 H156 0.929 . S
C134 C133 1.380 . S
C134 C135 1.347 . S
C134 H157 0.931 . S
C135 C134 1.347 . S
C135 C136 1.369 . S
C136 C135 1.369 . S
C136 C137 1.408 . S
C136 H158 0.930 . S
C137 C132 1.348 . S
C137 C136 1.408 . S
C137 H159 0.930 . S
C138 O148 1.281 . S
C138 O149 1.254 . S
C139 O150 1.236 . S
C139 O151 1.266 . S
O140 Tb120 2.484 . S
O140 C122 1.248 . S
O141 Tb120 2.440 . S
O141 C122 1.266 . S
O142 Tb120 2.658 . S
O142 Tb121 2.325 . S
O142 C129 1.281 . S
O143 Tb120 2.409 . S
O143 C129 1.254 . S
O144 Tb120 2.378 . S
O144 C130 1.236 . S
O145 Tb121 2.341 . S
O145 C130 1.266 . S
O146 Tb121 2.484 1_655 S
O146 C131 1.248 . S
O147 Tb121 2.440 1_655 S
O147 C131 1.266 . S
O148 Tb120 2.325 . S
O148 Tb121 2.658 . S
O148 C138 1.281 . S
O149 Tb121 2.409 . S
O149 C138 1.254 . S
O150 Tb121 2.378 1_655 S
O150 C139 1.236 . S
O151 Tb120 2.341 1_655 S
O151 C139 1.266 . S
H152 C124 0.929 . S
H153 C125 0.931 . S
H154 C127 0.930 . S
H155 C128 0.930 . S
H156 C133 0.929 . S
H157 C134 0.931 . S
H158 C136 0.930 . S
H159 C137 0.930 . S
Tb160 C162 2.809 . S
Tb160 O180 2.484 . S
Tb160 O181 2.440 . S
Tb160 O182 2.658 . S
Tb160 O183 2.409 . S
Tb160 O184 2.378 . S
Tb160 O188 2.325 . S
Tb160 O191 2.341 . S
Tb161 C171 2.809 . S
Tb161 O182 2.325 . S
Tb161 O185 2.341 . S
Tb161 O186 2.484 . S
Tb161 O187 2.440 . S
Tb161 O188 2.658 . S
Tb161 O189 2.409 . S
Tb161 O190 2.378 . S
C162 Tb160 2.809 . S
C162 C163 1.514 . S
C162 O180 1.248 . S
C162 O181 1.266 . S
C163 C162 1.514 . S
C163 C164 1.359 . S
C163 C168 1.348 . S
C164 C163 1.359 . S
C164 C165 1.380 . S
C164 H192 0.929 . S
C165 C164 1.380 . S
C165 C166 1.347 . S
C165 H193 0.931 . S
C166 C165 1.347 . S
C166 C167 1.369 . S
C167 C166 1.369 . S
C167 C168 1.408 . S
C167 H194 0.930 . S
C168 C163 1.348 . S
C168 C167 1.408 . S
C168 H195 0.930 . S
C169 O182 1.281 . S
C169 O183 1.254 . S
C170 O184 1.236 . S
C170 O185 1.266 . S
C171 Tb161 2.809 . S
C171 C172 1.514 . S
C171 O186 1.248 . S
C171 O187 1.266 . S
C172 C171 1.514 . S
C172 C173 1.359 . S
C172 C177 1.348 . S
C173 C172 1.359 . S
C173 C174 1.380 . S
C173 H196 0.929 . S
C174 C173 1.380 . S
C174 C175 1.347 . S
C174 H197 0.931 . S
C175 C174 1.347 . S
C175 C176 1.369 . S
C176 C175 1.369 . S
C176 C177 1.408 . S
C176 H198 0.930 . S
C177 C172 1.348 . S
C177 C176 1.408 . S
C177 H199 0.930 . S
C178 O188 1.281 . S
C178 O189 1.254 . S
C179 O190 1.236 . S
C179 O191 1.266 . S
O180 Tb160 2.484 . S
O180 C162 1.248 . S
O181 Tb160 2.440 . S
O181 C162 1.266 . S
O182 Tb160 2.658 . S
O182 Tb161 2.325 . S
O182 C169 1.281 . S
O183 Tb160 2.409 . S
O183 C169 1.254 . S
O184 Tb160 2.378 . S
O184 C170 1.236 . S
O185 Tb161 2.341 . S
O185 C170 1.266 . S
O186 Tb161 2.484 . S
O186 C171 1.248 . S
O187 Tb161 2.440 . S
O187 C171 1.266 . S
O188 Tb160 2.325 . S
O188 Tb161 2.658 . S
O188 C178 1.281 . S
O189 Tb161 2.409 . S
O189 C178 1.254 . S
O190 Tb161 2.378 . S
O190 C179 1.236 . S
O191 Tb160 2.341 . S
O191 C179 1.266 . S
H192 C164 0.929 . S
H193 C165 0.931 . S
H194 C167 0.930 . S
H195 C168 0.930 . S
H196 C173 0.929 . S
H197 C174 0.931 . S
H198 C176 0.930 . S
H199 C177 0.930 . S
Tb200 C202 2.809 . S
Tb200 O220 2.484 . S
Tb200 O221 2.440 . S
Tb200 O222 2.658 1_565 S
Tb200 O223 2.410 1_565 S
Tb200 O224 2.378 . S
Tb200 O228 2.329 1_565 S
Tb200 O231 2.341 1_565 S
Tb201 C211 2.809 . S
Tb201 O222 2.325 . S
Tb201 O225 2.341 1_545 S
Tb201 O226 2.484 . S
Tb201 O227 2.440 . S
Tb201 O228 2.661 . S
Tb201 O229 2.409 . S
Tb201 O230 2.378 . S
C202 Tb200 2.809 . S
C202 C203 1.514 . S
C202 O220 1.248 . S
C202 O221 1.266 . S
C203 C202 1.514 . S
C203 C204 1.359 . S
C203 C208 1.348 . S
C204 C203 1.359 . S
C204 C205 1.380 . S
C204 H232 0.929 . S
C205 C204 1.380 . S
C205 C206 1.347 . S
C205 H233 0.931 . S
C206 C205 1.347 . S
C206 C207 1.369 . S
C207 C206 1.369 . S
C207 C208 1.408 . S
C207 H234 0.930 . S
C208 C203 1.348 . S
C208 C207 1.408 . S
C208 H235 0.930 . S
C209 O222 1.281 . S
C209 O223 1.254 . S
C210 O224 1.236 . S
C210 O225 1.266 . S
C211 Tb201 2.809 . S
C211 C212 1.514 . S
C211 O226 1.248 . S
C211 O227 1.266 . S
C212 C211 1.514 . S
C212 C213 1.359 . S
C212 C217 1.348 . S
C213 C212 1.359 . S
C213 C214 1.380 . S
C213 H236 0.929 . S
C214 C213 1.380 . S
C214 C215 1.347 . S
C214 H237 0.931 . S
C215 C214 1.347 . S
C215 C216 1.369 . S
C216 C215 1.369 . S
C216 C217 1.408 . S
C216 H238 0.930 . S
C217 C212 1.348 . S
C217 C216 1.408 . S
C217 H239 0.930 . S
C218 O228 1.289 . S
C218 O229 1.254 . S
C219 O230 1.236 . S
C219 O231 1.266 . S
O220 Tb200 2.484 . S
O220 C202 1.248 . S
O221 Tb200 2.440 . S
O221 C202 1.266 . S
O222 Tb200 2.658 1_545 S
O222 Tb201 2.325 . S
O222 C209 1.281 . S
O223 Tb200 2.410 1_545 S
O223 C209 1.254 . S
O224 Tb200 2.378 . S
O224 C210 1.236 . S
O225 Tb201 2.341 1_565 S
O225 C210 1.266 . S
O226 Tb201 2.484 . S
O226 C211 1.248 . S
O227 Tb201 2.440 . S
O227 C211 1.266 . S
O228 Tb200 2.329 1_545 S
O228 Tb201 2.661 . S
O228 C218 1.289 . S
O229 Tb201 2.409 . S
O229 C218 1.254 . S
O230 Tb201 2.378 . S
O230 C219 1.236 . S
O231 Tb200 2.341 1_545 S
O231 C219 1.266 . S
H232 C204 0.929 . S
H233 C205 0.931 . S
H234 C207 0.930 . S
H235 C208 0.930 . S
H236 C213 0.929 . S
H237 C214 0.931 . S
H238 C216 0.930 . S
H239 C217 0.930 . S
Tb240 C242 2.809 . S
Tb240 O260 2.484 . S
Tb240 O261 2.440 . S
Tb240 O262 2.688 . S
Tb240 O263 2.409 . S
Tb240 O264 2.378 . S
Tb240 O268 2.325 . S
Tb240 O271 2.341 1_545 S
Tb241 C251 2.809 . S
Tb241 O262 2.312 1_565 S
Tb241 O265 2.341 1_565 S
Tb241 O266 2.484 . S
Tb241 O267 2.440 . S
Tb241 O268 2.658 1_565 S
Tb241 O269 2.407 1_565 S
Tb241 O270 2.378 . S
C242 Tb240 2.809 . S
C242 C243 1.514 . S
C242 O260 1.248 . S
C242 O261 1.266 . S
C243 C242 1.514 . S
C243 C244 1.359 . S
C243 C248 1.348 . S
C244 C243 1.359 . S
C244 C245 1.380 . S
C244 H272 0.929 . S
C245 C244 1.380 . S
C245 C246 1.347 . S
C245 H273 0.931 . S
C246 C245 1.347 . S
C246 C247 1.369 . S
C247 C246 1.369 . S
C247 C248 1.408 . S
C247 H274 0.930 . S
C248 C243 1.348 . S
C248 C247 1.408 . S
C248 H275 0.930 . S
C249 O262 1.292 . S
C249 O263 1.254 . S
C250 O264 1.236 . S
C250 O265 1.266 . S
C251 Tb241 2.809 . S
C251 C252 1.514 . S
C251 O266 1.248 . S
C251 O267 1.266 . S
C252 C251 1.514 . S
C252 C253 1.359 . S
C252 C257 1.348 . S
C253 C252 1.359 . S
C253 C254 1.380 . S
C253 H276 0.929 . S
C254 C253 1.380 . S
C254 C255 1.347 . S
C254 H277 0.931 . S
C255 C254 1.347 . S
C255 C256 1.369 . S
C256 C255 1.369 . S
C256 C257 1.408 . S
C256 H278 0.930 . S
C257 C252 1.348 . S
C257 C256 1.408 . S
C257 H279 0.930 . S
C258 O268 1.281 . S
C258 O269 1.259 . S
C259 O270 1.236 . S
C259 O271 1.266 . S
O260 Tb240 2.484 . S
O260 C242 1.248 . S
O261 Tb240 2.440 . S
O261 C242 1.266 . S
O262 Tb240 2.688 . S
O262 Tb241 2.312 1_545 S
O262 C249 1.292 . S
O263 Tb240 2.409 . S
O263 C249 1.254 . S
O264 Tb240 2.378 . S
O264 C250 1.236 . S
O265 Tb241 2.341 1_545 S
O265 C250 1.266 . S
O266 Tb241 2.484 . S
O266 C251 1.248 . S
O267 Tb241 2.440 . S
O267 C251 1.266 . S
O268 Tb240 2.325 . S
O268 Tb241 2.658 1_545 S
O268 C258 1.281 . S
O269 Tb241 2.407 1_545 S
O269 C258 1.259 . S
O270 Tb241 2.378 . S
O270 C259 1.236 . S
O271 Tb240 2.341 1_565 S
O271 C259 1.266 . S
H272 C244 0.929 . S
H273 C245 0.931 . S
H274 C247 0.930 . S
H275 C248 0.930 . S
H276 C253 0.929 . S
H277 C254 0.931 . S
H278 C256 0.930 . S
H279 C257 0.930 . S
Tb280 C282 2.809 1_455 S
Tb280 O300 2.484 1_455 S
Tb280 O301 2.440 1_455 S
Tb280 O302 2.658 . S
Tb280 O303 2.409 . S
Tb280 O304 2.378 1_455 S
Tb280 O308 2.325 . S
Tb280 O311 2.341 . S
Tb281 C291 2.809 . S
Tb281 O302 2.325 . S
Tb281 O305 2.341 1_455 S
Tb281 O306 2.484 . S
Tb281 O307 2.440 . S
Tb281 O308 2.658 . S
Tb281 O309 2.409 . S
Tb281 O310 2.378 . S
C282 Tb280 2.809 1_655 S
C282 C283 1.514 . S
C282 O300 1.248 . S
C282 O301 1.266 . S
C283 C282 1.514 . S
C283 C284 1.359 . S
C283 C288 1.348 . S
C284 C283 1.359 . S
C284 C285 1.380 . S
C284 H312 0.929 . S
C285 C284 1.380 . S
C285 C286 1.347 . S
C285 H313 0.931 . S
C286 C285 1.347 . S
C286 C287 1.369 . S
C287 C286 1.369 . S
C287 C288 1.408 . S
C287 H314 0.930 . S
C288 C283 1.348 . S
C288 C287 1.408 . S
C288 H315 0.930 . S
C289 O302 1.281 . S
C289 O303 1.254 . S
C290 O304 1.236 . S
C290 O305 1.266 . S
C291 Tb281 2.809 . S
C291 C292 1.514 . S
C291 O306 1.248 . S
C291 O307 1.266 . S
C292 C291 1.514 . S
C292 C293 1.359 . S
C292 C297 1.348 . S
C293 C292 1.359 . S
C293 C294 1.380 . S
C293 H316 0.929 . S
C294 C293 1.380 . S
C294 C295 1.347 . S
C294 H317 0.931 . S
C295 C294 1.347 . S
C295 C296 1.369 . S
C296 C295 1.369 . S
C296 C297 1.408 . S
C296 H318 0.930 . S
C297 C292 1.348 . S
C297 C296 1.408 . S
C297 H319 0.930 . S
C298 O308 1.281 . S
C298 O309 1.254 . S
C299 O310 1.236 . S
C299 O311 1.266 . S
O300 Tb280 2.484 1_655 S
O300 C282 1.248 . S
O301 Tb280 2.440 1_655 S
O301 C282 1.266 . S
O302 Tb280 2.658 . S
O302 Tb281 2.325 . S
O302 C289 1.281 . S
O303 Tb280 2.409 . S
O303 C289 1.254 . S
O304 Tb280 2.378 1_655 S
O304 C290 1.236 . S
O305 Tb281 2.341 1_655 S
O305 C290 1.266 . S
O306 Tb281 2.484 . S
O306 C291 1.248 . S
O307 Tb281 2.440 . S
O307 C291 1.266 . S
O308 Tb280 2.325 . S
O308 Tb281 2.658 . S
O308 C298 1.281 . S
O309 Tb281 2.409 . S
O309 C298 1.254 . S
O310 Tb281 2.378 . S
O310 C299 1.236 . S
O311 Tb280 2.341 . S
O311 C299 1.266 . S
H312 C284 0.929 . S
H313 C285 0.931 . S
H314 C287 0.930 . S
H315 C288 0.930 . S
H316 C293 0.929 . S
H317 C294 0.931 . S
H318 C296 0.930 . S
H319 C297 0.930 . S
Tb320 C322 2.809 . S
Tb320 O340 2.484 . S
Tb320 O341 2.440 . S
Tb320 O342 2.658 . S
Tb320 O343 2.409 . S
Tb320 O344 2.378 . S
Tb320 O348 2.325 . S
Tb320 O351 2.341 . S
Tb321 C331 2.809 . S
Tb321 O342 2.325 . S
Tb321 O345 2.341 . S
Tb321 O346 2.484 . S
Tb321 O347 2.440 . S
Tb321 O348 2.658 . S
Tb321 O349 2.409 . S
Tb321 O350 2.378 . S
C322 Tb320 2.809 . S
C322 C323 1.514 . S
C322 O340 1.248 . S
C322 O341 1.266 . S
C323 C322 1.514 . S
C323 C324 1.359 . S
C323 C328 1.348 . S
C324 C323 1.359 . S
C324 C325 1.380 . S
C324 H352 0.929 . S
C325 C324 1.380 . S
C325 C326 1.347 . S
C325 H353 0.931 . S
C326 C325 1.347 . S
C326 C327 1.369 . S
C327 C326 1.369 . S
C327 C328 1.408 . S
C327 H354 0.930 . S
C328 C323 1.348 . S
C328 C327 1.408 . S
C328 H355 0.930 . S
C329 O342 1.281 . S
C329 O343 1.254 . S
C330 O344 1.236 . S
C330 O345 1.266 . S
C331 Tb321 2.809 . S
C331 C332 1.514 . S
C331 O346 1.248 . S
C331 O347 1.266 . S
C332 C331 1.514 . S
C332 C333 1.359 . S
C332 C337 1.348 . S
C333 C332 1.359 . S
C333 C334 1.380 . S
C333 H356 0.929 . S
C334 C333 1.380 . S
C334 C335 1.347 . S
C334 H357 0.931 . S
C335 C334 1.347 . S
C335 C336 1.369 . S
C336 C335 1.369 . S
C336 C337 1.408 . S
C336 H358 0.930 . S
C337 C332 1.348 . S
C337 C336 1.408 . S
C337 H359 0.930 . S
C338 O348 1.281 . S
C338 O349 1.254 . S
C339 O350 1.236 . S
C339 O351 1.266 . S
O340 Tb320 2.484 . S
O340 C322 1.248 . S
O341 Tb320 2.440 . S
O341 C322 1.266 . S
O342 Tb320 2.658 . S
O342 Tb321 2.325 . S
O342 C329 1.281 . S
O343 Tb320 2.409 . S
O343 C329 1.254 . S
O344 Tb320 2.378 . S
O344 C330 1.236 . S
O345 Tb321 2.341 . S
O345 C330 1.266 . S
O346 Tb321 2.484 . S
O346 C331 1.248 . S
O347 Tb321 2.440 . S
O347 C331 1.266 . S
O348 Tb320 2.325 . S
O348 Tb321 2.658 . S
O348 C338 1.281 . S
O349 Tb321 2.409 . S
O349 C338 1.254 . S
O350 Tb321 2.378 . S
O350 C339 1.236 . S
O351 Tb320 2.341 . S
O351 C339 1.266 . S
H352 C324 0.929 . S
H353 C325 0.931 . S
H354 C327 0.930 . S
H355 C328 0.930 . S
H356 C333 0.929 . S
H357 C334 0.931 . S
H358 C336 0.930 . S
H359 C337 0.930 . S
Tb360 C362 2.809 . S
Tb360 O380 2.484 . S
Tb360 O381 2.440 . S
Tb360 O382 2.688 . S
Tb360 O383 2.409 . S
Tb360 O384 2.378 . S
Tb360 O388 2.325 . S
Tb360 O391 2.341 1_455 S
Tb361 C371 2.809 . S
Tb361 O382 2.312 1_655 S
Tb361 O385 2.341 1_655 S
Tb361 O386 2.484 . S
Tb361 O387 2.440 . S
Tb361 O388 2.658 1_655 S
Tb361 O389 2.407 1_655 S
Tb361 O390 2.378 . S
C362 Tb360 2.809 . S
C362 C363 1.514 . S
C362 O380 1.248 . S
C362 O381 1.266 . S
C363 C362 1.514 . S
C363 C364 1.359 . S
C363 C368 1.348 . S
C364 C363 1.359 . S
C364 C365 1.380 . S
C364 H392 0.929 . S
C365 C364 1.380 . S
C365 C366 1.347 . S
C365 H393 0.931 . S
C366 C365 1.347 . S
C366 C367 1.369 . S
C367 C366 1.369 . S
C367 C368 1.408 . S
C367 H394 0.930 . S
C368 C363 1.348 . S
C368 C367 1.408 . S
C368 H395 0.930 . S
C369 O382 1.292 . S
C369 O383 1.254 . S
C370 O384 1.236 . S
C370 O385 1.266 . S
C371 Tb361 2.809 . S
C371 C372 1.514 . S
C371 O386 1.248 . S
C371 O387 1.266 . S
C372 C371 1.514 . S
C372 C373 1.359 . S
C372 C377 1.348 . S
C373 C372 1.359 . S
C373 C374 1.380 . S
C373 H396 0.929 . S
C374 C373 1.380 . S
C374 C375 1.347 . S
C374 H397 0.931 . S
C375 C374 1.347 . S
C375 C376 1.369 . S
C376 C375 1.369 . S
C376 C377 1.408 . S
C376 H398 0.930 . S
C377 C372 1.348 . S
C377 C376 1.408 . S
C377 H399 0.930 . S
C378 O388 1.281 . S
C378 O389 1.259 . S
C379 O390 1.236 . S
C379 O391 1.266 . S
O380 Tb360 2.484 . S
O380 C362 1.248 . S
O381 Tb360 2.440 . S
O381 C362 1.266 . S
O382 Tb360 2.688 . S
O382 Tb361 2.312 1_455 S
O382 C369 1.292 . S
O383 Tb360 2.409 . S
O383 C369 1.254 . S
O384 Tb360 2.378 . S
O384 C370 1.236 . S
O385 Tb361 2.341 1_455 S
O385 C370 1.266 . S
O386 Tb361 2.484 . S
O386 C371 1.248 . S
O387 Tb361 2.440 . S
O387 C371 1.266 . S
O388 Tb360 2.325 . S
O388 Tb361 2.658 1_455 S
O388 C378 1.281 . S
O389 Tb361 2.407 1_455 S
O389 C378 1.259 . S
O390 Tb361 2.378 . S
O390 C379 1.236 . S
O391 Tb360 2.341 1_655 S
O391 C379 1.266 . S
H392 C364 0.929 . S
H393 C365 0.931 . S
H394 C367 0.930 . S
H395 C368 0.930 . S
H396 C373 0.929 . S
H397 C374 0.931 . S
H398 C376 0.930 . S
H399 C377 0.930 . S
Tb400 C402 2.809 . S
Tb400 O420 2.484 . S
Tb400 O421 2.440 . S
Tb400 O422 2.658 . S
Tb400 O423 2.409 . S
Tb400 O424 2.378 . S
Tb400 O428 2.325 . S
Tb400 O431 2.341 . S
Tb401 C411 2.809 . S
Tb401 O422 2.325 . S
Tb401 O425 2.341 . S
Tb401 O426 2.484 . S
Tb401 O427 2.440 . S
Tb401 O428 2.658 . S
Tb401 O429 2.409 . S
Tb401 O430 2.378 . S
C402 Tb400 2.809 . S
C402 C403 1.514 . S
C402 O420 1.248 . S
C402 O421 1.266 . S
C403 C402 1.514 . S
C403 C404 1.359 . S
C403 C408 1.348 . S
C404 C403 1.359 . S
C404 C405 1.380 . S
C404 H432 0.929 . S
C405 C404 1.380 . S
C405 C406 1.347 . S
C405 H433 0.931 . S
C406 C405 1.347 . S
C406 C407 1.369 . S
C407 C406 1.369 . S
C407 C408 1.408 . S
C407 H434 0.930 . S
C408 C403 1.348 . S
C408 C407 1.408 . S
C408 H435 0.930 . S
C409 O422 1.281 . S
C409 O423 1.254 . S
C410 O424 1.236 . S
C410 O425 1.266 . S
C411 Tb401 2.809 . S
C411 C412 1.514 . S
C411 O426 1.248 . S
C411 O427 1.266 . S
C412 C411 1.514 . S
C412 C413 1.359 . S
C412 C417 1.348 . S
C413 C412 1.359 . S
C413 C414 1.380 . S
C413 H436 0.929 . S
C414 C413 1.380 . S
C414 C415 1.347 . S
C414 H437 0.931 . S
C415 C414 1.347 . S
C415 C416 1.369 . S
C416 C415 1.369 . S
C416 C417 1.408 . S
C416 H438 0.930 . S
C417 C412 1.348 . S
C417 C416 1.408 . S
C417 H439 0.930 . S
C418 O428 1.281 . S
C418 O429 1.254 . S
C419 O430 1.236 . S
C419 O431 1.266 . S
O420 Tb400 2.484 . S
O420 C402 1.248 . S
O421 Tb400 2.440 . S
O421 C402 1.266 . S
O422 Tb400 2.658 . S
O422 Tb401 2.325 . S
O422 C409 1.281 . S
O423 Tb400 2.409 . S
O423 C409 1.254 . S
O424 Tb400 2.378 . S
O424 C410 1.236 . S
O425 Tb401 2.341 . S
O425 C410 1.266 . S
O426 Tb401 2.484 . S
O426 C411 1.248 . S
O427 Tb401 2.440 . S
O427 C411 1.266 . S
O428 Tb400 2.325 . S
O428 Tb401 2.658 . S
O428 C418 1.281 . S
O429 Tb401 2.409 . S
O429 C418 1.254 . S
O430 Tb401 2.378 . S
O430 C419 1.236 . S
O431 Tb400 2.341 . S
O431 C419 1.266 . S
H432 C404 0.929 . S
H433 C405 0.931 . S
H434 C407 0.930 . S
H435 C408 0.930 . S
H436 C413 0.929 . S
H437 C414 0.931 . S
H438 C416 0.930 . S
H439 C417 0.930 . S
Tb440 C442 2.809 1_545 S
Tb440 O460 2.484 1_545 S
Tb440 O461 2.440 1_545 S
Tb440 O462 2.658 . S
Tb440 O463 2.409 . S
Tb440 O464 2.378 1_545 S
Tb440 O468 2.325 . S
Tb440 O471 2.341 . S
Tb441 C451 2.809 . S
Tb441 O462 2.325 . S
Tb441 O465 2.341 1_545 S
Tb441 O466 2.484 . S
Tb441 O467 2.440 . S
Tb441 O468 2.658 . S
Tb441 O469 2.409 . S
Tb441 O470 2.378 . S
C442 Tb440 2.809 1_565 S
C442 C443 1.514 . S
C442 O460 1.248 . S
C442 O461 1.266 . S
C443 C442 1.514 . S
C443 C444 1.359 . S
C443 C448 1.348 . S
C444 C443 1.359 . S
C444 C445 1.380 . S
C444 H472 0.929 . S
C445 C444 1.380 . S
C445 C446 1.347 . S
C445 H473 0.931 . S
C446 C445 1.347 . S
C446 C447 1.369 . S
C447 C446 1.369 . S
C447 C448 1.408 . S
C447 H474 0.930 . S
C448 C443 1.348 . S
C448 C447 1.408 . S
C448 H475 0.930 . S
C449 O462 1.281 . S
C449 O463 1.254 . S
C450 O464 1.236 . S
C450 O465 1.266 . S
C451 Tb441 2.809 . S
C451 C452 1.514 . S
C451 O466 1.248 . S
C451 O467 1.266 . S
C452 C451 1.514 . S
C452 C453 1.359 . S
C452 C457 1.348 . S
C453 C452 1.359 . S
C453 C454 1.380 . S
C453 H476 0.929 . S
C454 C453 1.380 . S
C454 C455 1.347 . S
C454 H477 0.931 . S
C455 C454 1.347 . S
C455 C456 1.369 . S
C456 C455 1.369 . S
C456 C457 1.408 . S
C456 H478 0.930 . S
C457 C452 1.348 . S
C457 C456 1.408 . S
C457 H479 0.930 . S
C458 O468 1.281 . S
C458 O469 1.254 . S
C459 O470 1.236 . S
C459 O471 1.266 . S
O460 Tb440 2.484 1_565 S
O460 C442 1.248 . S
O461 Tb440 2.440 1_565 S
O461 C442 1.266 . S
O462 Tb440 2.658 . S
O462 Tb441 2.325 . S
O462 C449 1.281 . S
O463 Tb440 2.409 . S
O463 C449 1.254 . S
O464 Tb440 2.378 1_565 S
O464 C450 1.236 . S
O465 Tb441 2.341 1_565 S
O465 C450 1.266 . S
O466 Tb441 2.484 . S
O466 C451 1.248 . S
O467 Tb441 2.440 . S
O467 C451 1.266 . S
O468 Tb440 2.325 . S
O468 Tb441 2.658 . S
O468 C458 1.281 . S
O469 Tb441 2.409 . S
O469 C458 1.254 . S
O470 Tb441 2.378 . S
O470 C459 1.236 . S
O471 Tb440 2.341 . S
O471 C459 1.266 . S
H472 C444 0.929 . S
H473 C445 0.931 . S
H474 C447 0.930 . S
H475 C448 0.930 . S
H476 C453 0.929 . S
H477 C454 0.931 . S
H478 C456 0.930 . S
H479 C457 0.930 . S
Tb480 C482 2.809 . S
Tb480 O500 2.484 . S
Tb480 O501 2.440 . S
Tb480 O502 2.658 . S
Tb480 O503 2.409 . S
Tb480 O504 2.378 . S
Tb480 O508 2.325 . S
Tb480 O511 2.341 . S
Tb481 C491 2.809 . S
Tb481 O502 2.325 . S
Tb481 O505 2.341 . S
Tb481 O506 2.484 . S
Tb481 O507 2.440 . S
Tb481 O508 2.658 . S
Tb481 O509 2.409 . S
Tb481 O510 2.378 . S
C482 Tb480 2.809 . S
C482 C483 1.514 . S
C482 O500 1.248 . S
C482 O501 1.266 . S
C483 C482 1.514 . S
C483 C484 1.359 . S
C483 C488 1.348 . S
C484 C483 1.359 . S
C484 C485 1.380 . S
C484 H512 0.929 . S
C485 C484 1.380 . S
C485 C486 1.347 . S
C485 H513 0.931 . S
C486 C485 1.347 . S
C486 C487 1.369 . S
C487 C486 1.369 . S
C487 C488 1.408 . S
C487 H514 0.930 . S
C488 C483 1.348 . S
C488 C487 1.408 . S
C488 H515 0.930 . S
C489 O502 1.281 . S
C489 O503 1.254 . S
C490 O504 1.236 . S
C490 O505 1.266 . S
C491 Tb481 2.809 . S
C491 C492 1.514 . S
C491 O506 1.248 . S
C491 O507 1.266 . S
C492 C491 1.514 . S
C492 C493 1.359 . S
C492 C497 1.348 . S
C493 C492 1.359 . S
C493 C494 1.380 . S
C493 H516 0.929 . S
C494 C493 1.380 . S
C494 C495 1.347 . S
C494 H517 0.931 . S
C495 C494 1.347 . S
C495 C496 1.369 . S
C496 C495 1.369 . S
C496 C497 1.408 . S
C496 H518 0.930 . S
C497 C492 1.348 . S
C497 C496 1.408 . S
C497 H519 0.930 . S
C498 O508 1.281 . S
C498 O509 1.254 . S
C499 O510 1.236 . S
C499 O511 1.266 . S
O500 Tb480 2.484 . S
O500 C482 1.248 . S
O501 Tb480 2.440 . S
O501 C482 1.266 . S
O502 Tb480 2.658 . S
O502 Tb481 2.325 . S
O502 C489 1.281 . S
O503 Tb480 2.409 . S
O503 C489 1.254 . S
O504 Tb480 2.378 . S
O504 C490 1.236 . S
O505 Tb481 2.341 . S
O505 C490 1.266 . S
O506 Tb481 2.484 . S
O506 C491 1.248 . S
O507 Tb481 2.440 . S
O507 C491 1.266 . S
O508 Tb480 2.325 . S
O508 Tb481 2.658 . S
O508 C498 1.281 . S
O509 Tb481 2.409 . S
O509 C498 1.254 . S
O510 Tb481 2.378 . S
O510 C499 1.236 . S
O511 Tb480 2.341 . S
O511 C499 1.266 . S
H512 C484 0.929 . S
H513 C485 0.931 . S
H514 C487 0.930 . S
H515 C488 0.930 . S
H516 C493 0.929 . S
H517 C494 0.931 . S
H518 C496 0.930 . S
H519 C497 0.930 . S
Tb520 C522 2.809 . S
Tb520 O540 2.484 . S
Tb520 O541 2.440 . S
Tb520 O542 2.658 . S
Tb520 O543 2.409 . S
Tb520 O544 2.378 . S
Tb520 O548 2.325 . S
Tb520 O551 2.341 . S
Tb521 C531 2.809 . S
Tb521 O542 2.325 . S
Tb521 O545 2.341 . S
Tb521 O546 2.484 . S
Tb521 O547 2.440 . S
Tb521 O548 2.658 . S
Tb521 O549 2.409 . S
Tb521 O550 2.378 . S
C522 Tb520 2.809 . S
C522 C523 1.514 . S
C522 O540 1.248 . S
C522 O541 1.266 . S
C523 C522 1.514 . S
C523 C524 1.359 . S
C523 C528 1.348 . S
C524 C523 1.359 . S
C524 C525 1.380 . S
C524 H552 0.929 . S
C525 C524 1.380 . S
C525 C526 1.347 . S
C525 H553 0.931 . S
C526 C525 1.347 . S
C526 C527 1.369 . S
C527 C526 1.369 . S
C527 C528 1.408 . S
C527 H554 0.930 . S
C528 C523 1.348 . S
C528 C527 1.408 . S
C528 H555 0.930 . S
C529 O542 1.281 . S
C529 O543 1.254 . S
C530 O544 1.236 . S
C530 O545 1.266 . S
C531 Tb521 2.809 . S
C531 C532 1.514 . S
C531 O546 1.248 . S
C531 O547 1.266 . S
C532 C531 1.514 . S
C532 C533 1.359 . S
C532 C537 1.348 . S
C533 C532 1.359 . S
C533 C534 1.380 1_565 S
C533 H556 0.929 . S
C534 C533 1.380 1_545 S
C534 C535 1.347 . S
C534 H557 0.931 . S
C535 C534 1.347 . S
C535 C536 1.369 . S
C536 C535 1.369 . S
C536 C537 1.408 1_545 S
C536 H558 0.930 . S
C537 C532 1.348 . S
C537 C536 1.408 1_565 S
C537 H559 0.930 . S
C538 O548 1.281 . S
C538 O549 1.254 . S
C539 O550 1.236 . S
C539 O551 1.266 . S
O540 Tb520 2.484 . S
O540 C522 1.248 . S
O541 Tb520 2.440 . S
O541 C522 1.266 . S
O542 Tb520 2.658 . S
O542 Tb521 2.325 . S
O542 C529 1.281 . S
O543 Tb520 2.409 . S
O543 C529 1.254 . S
O544 Tb520 2.378 . S
O544 C530 1.236 . S
O545 Tb521 2.341 . S
O545 C530 1.266 . S
O546 Tb521 2.484 . S
O546 C531 1.248 . S
O547 Tb521 2.440 . S
O547 C531 1.266 . S
O548 Tb520 2.325 . S
O548 Tb521 2.658 . S
O548 C538 1.281 . S
O549 Tb521 2.409 . S
O549 C538 1.254 . S
O550 Tb521 2.378 . S
O550 C539 1.236 . S
O551 Tb520 2.341 . S
O551 C539 1.266 . S
H552 C524 0.929 . S
H553 C525 0.931 . S
H554 C527 0.930 . S
H555 C528 0.930 . S
H556 C533 0.929 . S
H557 C534 0.931 . S
H558 C536 0.930 . S
H559 C537 0.930 . S
Tb560 C562 2.809 . S
Tb560 O580 2.484 . S
Tb560 O581 2.440 . S
Tb560 O582 2.658 . S
Tb560 O583 2.409 . S
Tb560 O584 2.378 . S
Tb560 O588 2.325 . S
Tb560 O591 2.341 . S
Tb561 C571 2.809 . S
Tb561 O582 2.325 . S
Tb561 O585 2.341 . S
Tb561 O586 2.484 . S
Tb561 O587 2.440 . S
Tb561 O588 2.658 . S
Tb561 O589 2.409 . S
Tb561 O590 2.378 . S
C562 Tb560 2.809 . S
C562 C563 1.514 . S
C562 O580 1.248 . S
C562 O581 1.266 . S
C563 C562 1.514 . S
C563 C564 1.359 . S
C563 C568 1.348 . S
C564 C563 1.359 . S
C564 C565 1.380 . S
C564 H592 0.929 . S
C565 C564 1.380 . S
C565 C566 1.347 . S
C565 H593 0.931 . S
C566 C565 1.347 . S
C566 C567 1.369 . S
C567 C566 1.369 . S
C567 C568 1.408 . S
C567 H594 0.930 . S
C568 C563 1.348 . S
C568 C567 1.408 . S
C568 H595 0.930 . S
C569 O582 1.281 . S
C569 O583 1.254 . S
C570 O584 1.236 . S
C570 O585 1.266 . S
C571 Tb561 2.809 . S
C571 C572 1.514 . S
C571 O586 1.248 . S
C571 O587 1.266 . S
C572 C571 1.514 . S
C572 C573 1.359 . S
C572 C577 1.348 . S
C573 C572 1.359 . S
C573 C574 1.380 . S
C573 H596 0.929 . S
C574 C573 1.380 . S
C574 C575 1.347 . S
C574 H597 0.931 . S
C575 C574 1.347 . S
C575 C576 1.369 . S
C576 C575 1.369 . S
C576 C577 1.408 . S
C576 H598 0.930 . S
C577 C572 1.348 . S
C577 C576 1.408 . S
C577 H599 0.930 . S
C578 O588 1.281 . S
C578 O589 1.254 . S
C579 O590 1.236 . S
C579 O591 1.266 . S
O580 Tb560 2.484 . S
O580 C562 1.248 . S
O581 Tb560 2.440 . S
O581 C562 1.266 . S
O582 Tb560 2.658 . S
O582 Tb561 2.325 . S
O582 C569 1.281 . S
O583 Tb560 2.409 . S
O583 C569 1.254 . S
O584 Tb560 2.378 . S
O584 C570 1.236 . S
O585 Tb561 2.341 . S
O585 C570 1.266 . S
O586 Tb561 2.484 . S
O586 C571 1.248 . S
O587 Tb561 2.440 . S
O587 C571 1.266 . S
O588 Tb560 2.325 . S
O588 Tb561 2.658 . S
O588 C578 1.281 . S
O589 Tb561 2.409 . S
O589 C578 1.254 . S
O590 Tb561 2.378 . S
O590 C579 1.236 . S
O591 Tb560 2.341 . S
O591 C579 1.266 . S
H592 C564 0.929 . S
H593 C565 0.931 . S
H594 C567 0.930 . S
H595 C568 0.930 . S
H596 C573 0.929 . S
H597 C574 0.931 . S
H598 C576 0.930 . S
H599 C577 0.930 . S
Tb600 C602 2.809 . S
Tb600 O620 2.484 . S
Tb600 O621 2.440 . S
Tb600 O622 2.658 . S
Tb600 O623 2.409 . S
Tb600 O624 2.378 . S
Tb600 O628 2.325 . S
Tb600 O631 2.341 . S
Tb601 C611 2.809 . S
Tb601 O622 2.325 . S
Tb601 O625 2.341 . S
Tb601 O626 2.484 . S
Tb601 O627 2.440 . S
Tb601 O628 2.658 . S
Tb601 O629 2.409 . S
Tb601 O630 2.378 . S
C602 Tb600 2.809 . S
C602 C603 1.514 . S
C602 O620 1.248 . S
C602 O621 1.266 . S
C603 C602 1.514 . S
C603 C604 1.359 . S
C603 C608 1.348 . S
C604 C603 1.359 . S
C604 C605 1.380 . S
C604 H632 0.929 . S
C605 C604 1.380 . S
C605 C606 1.347 . S
C605 H633 0.931 . S
C606 C605 1.347 . S
C606 C607 1.369 . S
C607 C606 1.369 . S
C607 C608 1.408 . S
C607 H634 0.930 . S
C608 C603 1.348 . S
C608 C607 1.408 . S
C608 H635 0.930 . S
C609 O622 1.281 . S
C609 O623 1.254 . S
C610 O624 1.236 . S
C610 O625 1.266 . S
C611 Tb601 2.809 . S
C611 C612 1.514 . S
C611 O626 1.248 . S
C611 O627 1.266 . S
C612 C611 1.514 . S
C612 C613 1.359 . S
C612 C617 1.348 . S
C613 C612 1.359 . S
C613 C614 1.380 . S
C613 H636 0.929 . S
C614 C613 1.380 . S
C614 C615 1.347 . S
C614 H637 0.931 . S
C615 C614 1.347 . S
C615 C616 1.369 . S
C616 C615 1.369 . S
C616 C617 1.408 . S
C616 H638 0.930 . S
C617 C612 1.348 . S
C617 C616 1.408 . S
C617 H639 0.930 . S
C618 O628 1.281 . S
C618 O629 1.254 . S
C619 O630 1.236 . S
C619 O631 1.266 . S
O620 Tb600 2.484 . S
O620 C602 1.248 . S
O621 Tb600 2.440 . S
O621 C602 1.266 . S
O622 Tb600 2.658 . S
O622 Tb601 2.325 . S
O622 C609 1.281 . S
O623 Tb600 2.409 . S
O623 C609 1.254 . S
O624 Tb600 2.378 . S
O624 C610 1.236 . S
O625 Tb601 2.341 . S
O625 C610 1.266 . S
O626 Tb601 2.484 . S
O626 C611 1.248 . S
O627 Tb601 2.440 . S
O627 C611 1.266 . S
O628 Tb600 2.325 . S
O628 Tb601 2.658 . S
O628 C618 1.281 . S
O629 Tb601 2.409 . S
O629 C618 1.254 . S
O630 Tb601 2.378 . S
O630 C619 1.236 . S
O631 Tb600 2.341 . S
O631 C619 1.266 . S
H632 C604 0.929 . S
H633 C605 0.931 . S
H634 C607 0.930 . S
H635 C608 0.930 . S
H636 C613 0.929 . S
H637 C614 0.931 . S
H638 C616 0.930 . S
H639 C617 0.930 . S
Tb640 C642 2.809 . S
Tb640 O660 2.484 . S
Tb640 O661 2.440 . S
Tb640 O662 2.658 . S
Tb640 O663 2.409 . S
Tb640 O664 2.378 . S
Tb640 O668 2.325 . S
Tb640 O671 2.341 . S
Tb641 C651 2.809 . S
Tb641 O662 2.325 . S
Tb641 O665 2.341 . S
Tb641 O666 2.484 . S
Tb641 O667 2.440 . S
Tb641 O668 2.658 . S
Tb641 O669 2.409 . S
Tb641 O670 2.378 . S
C642 Tb640 2.809 . S
C642 C643 1.514 1_565 S
C642 O660 1.248 . S
C642 O661 1.266 . S
C643 C642 1.514 1_545 S
C643 C644 1.359 . S
C643 C648 1.348 . S
C644 C643 1.359 . S
C644 C645 1.380 . S
C644 H672 0.929 . S
C645 C644 1.380 . S
C645 C646 1.347 . S
C645 H673 0.931 . S
C646 C645 1.347 . S
C646 C647 1.369 . S
C647 C646 1.369 . S
C647 C648 1.408 . S
C647 H674 0.930 . S
C648 C643 1.348 . S
C648 C647 1.408 . S
C648 H675 0.930 . S
C649 O662 1.281 . S
C649 O663 1.254 . S
C650 O664 1.236 . S
C650 O665 1.266 . S
C651 Tb641 2.809 . S
C651 C652 1.514 . S
C651 O666 1.248 . S
C651 O667 1.266 . S
C652 C651 1.514 . S
C652 C653 1.359 . S
C652 C657 1.348 . S
C653 C652 1.359 . S
C653 C654 1.380 . S
C653 H676 0.929 . S
C654 C653 1.380 . S
C654 C655 1.347 . S
C654 H677 0.931 . S
C655 C654 1.347 . S
C655 C656 1.369 . S
C656 C655 1.369 . S
C656 C657 1.408 . S
C656 H678 0.930 . S
C657 C652 1.348 . S
C657 C656 1.408 . S
C657 H679 0.930 . S
C658 O668 1.281 . S
C658 O669 1.254 . S
C659 O670 1.236 . S
C659 O671 1.266 . S
O660 Tb640 2.484 . S
O660 C642 1.248 . S
O661 Tb640 2.440 . S
O661 C642 1.266 . S
O662 Tb640 2.658 . S
O662 Tb641 2.325 . S
O662 C649 1.281 . S
O663 Tb640 2.409 . S
O663 C649 1.254 . S
O664 Tb640 2.378 . S
O664 C650 1.236 . S
O665 Tb641 2.341 . S
O665 C650 1.266 . S
O666 Tb641 2.484 . S
O666 C651 1.248 . S
O667 Tb641 2.440 . S
O667 C651 1.266 . S
O668 Tb640 2.325 . S
O668 Tb641 2.658 . S
O668 C658 1.281 . S
O669 Tb641 2.409 . S
O669 C658 1.254 . S
O670 Tb641 2.378 . S
O670 C659 1.236 . S
O671 Tb640 2.341 . S
O671 C659 1.266 . S
H672 C644 0.929 . S
H673 C645 0.931 . S
H674 C647 0.930 . S
H675 C648 0.930 . S
H676 C653 0.929 . S
H677 C654 0.931 . S
H678 C656 0.930 . S
H679 C657 0.930 . S
Tb680 C682 2.809 . S
Tb680 O700 2.484 . S
Tb680 O701 2.440 . S
Tb680 O702 2.658 . S
Tb680 O703 2.409 . S
Tb680 O704 2.378 . S
Tb680 O708 2.325 . S
Tb680 O711 2.341 . S
Tb681 C691 2.809 . S
Tb681 O702 2.325 . S
Tb681 O705 2.341 . S
Tb681 O706 2.484 . S
Tb681 O707 2.440 . S
Tb681 O708 2.658 . S
Tb681 O709 2.409 . S
Tb681 O710 2.378 . S
C682 Tb680 2.809 . S
C682 C683 1.514 . S
C682 O700 1.248 . S
C682 O701 1.266 . S
C683 C682 1.514 . S
C683 C684 1.359 . S
C683 C688 1.348 . S
C684 C683 1.359 . S
C684 C685 1.380 1_455 S
C684 H712 0.929 . S
C685 C684 1.380 1_655 S
C685 C686 1.347 . S
C685 H713 0.931 . S
C686 C685 1.347 . S
C686 C687 1.369 . S
C687 C686 1.369 . S
C687 C688 1.408 1_655 S
C687 H714 0.930 . S
C688 C683 1.348 . S
C688 C687 1.408 1_455 S
C688 H715 0.930 . S
C689 O702 1.281 . S
C689 O703 1.254 . S
C690 O704 1.236 . S
C690 O705 1.266 . S
C691 Tb681 2.809 . S
C691 C692 1.514 . S
C691 O706 1.248 . S
C691 O707 1.266 . S
C692 C691 1.514 . S
C692 C693 1.359 . S
C692 C697 1.348 . S
C693 C692 1.359 . S
C693 C694 1.380 . S
C693 H716 0.929 . S
C694 C693 1.380 . S
C694 C695 1.347 . S
C694 H717 0.931 . S
C695 C694 1.347 . S
C695 C696 1.369 . S
C696 C695 1.369 . S
C696 C697 1.408 . S
C696 H718 0.930 . S
C697 C692 1.348 . S
C697 C696 1.408 . S
C697 H719 0.930 . S
C698 O708 1.281 . S
C698 O709 1.254 . S
C699 O710 1.236 . S
C699 O711 1.266 . S
O700 Tb680 2.484 . S
O700 C682 1.248 . S
O701 Tb680 2.440 . S
O701 C682 1.266 . S
O702 Tb680 2.658 . S
O702 Tb681 2.325 . S
O702 C689 1.281 . S
O703 Tb680 2.409 . S
O703 C689 1.254 . S
O704 Tb680 2.378 . S
O704 C690 1.236 . S
O705 Tb681 2.341 . S
O705 C690 1.266 . S
O706 Tb681 2.484 . S
O706 C691 1.248 . S
O707 Tb681 2.440 . S
O707 C691 1.266 . S
O708 Tb680 2.325 . S
O708 Tb681 2.658 . S
O708 C698 1.281 . S
O709 Tb681 2.409 . S
O709 C698 1.254 . S
O710 Tb681 2.378 . S
O710 C699 1.236 . S
O711 Tb680 2.341 . S
O711 C699 1.266 . S
H712 C684 0.929 . S
H713 C685 0.931 . S
H714 C687 0.930 . S
H715 C688 0.930 . S
H716 C693 0.929 . S
H717 C694 0.931 . S
H718 C696 0.930 . S
H719 C697 0.930 . S
Tb720 C722 2.809 . S
Tb720 O740 2.484 . S
Tb720 O741 2.440 . S
Tb720 O742 2.658 . S
Tb720 O743 2.409 . S
Tb720 O744 2.378 . S
Tb720 O748 2.325 . S
Tb720 O751 2.341 . S
Tb721 C731 2.809 . S
Tb721 O742 2.325 . S
Tb721 O745 2.341 . S
Tb721 O746 2.484 . S
Tb721 O747 2.440 . S
Tb721 O748 2.658 . S
Tb721 O749 2.409 . S
Tb721 O750 2.378 . S
C722 Tb720 2.809 . S
C722 C723 1.514 . S
C722 O740 1.248 . S
C722 O741 1.266 . S
C723 C722 1.514 . S
C723 C724 1.359 . S
C723 C728 1.348 . S
C724 C723 1.359 . S
C724 C725 1.380 . S
C724 H752 0.929 . S
C725 C724 1.380 . S
C725 C726 1.347 . S
C725 H753 0.931 . S
C726 C725 1.347 . S
C726 C727 1.369 . S
C727 C726 1.369 . S
C727 C728 1.408 . S
C727 H754 0.930 . S
C728 C723 1.348 . S
C728 C727 1.408 . S
C728 H755 0.930 . S
C729 O742 1.281 . S
C729 O743 1.254 . S
C730 O744 1.236 . S
C730 O745 1.266 . S
C731 Tb721 2.809 . S
C731 C732 1.514 . S
C731 O746 1.248 . S
C731 O747 1.266 . S
C732 C731 1.514 . S
C732 C733 1.359 . S
C732 C737 1.348 . S
C733 C732 1.359 . S
C733 C734 1.380 . S
C733 H756 0.929 . S
C734 C733 1.380 . S
C734 C735 1.347 . S
C734 H757 0.931 . S
C735 C734 1.347 . S
C735 C736 1.369 . S
C736 C735 1.369 . S
C736 C737 1.408 . S
C736 H758 0.930 . S
C737 C732 1.348 . S
C737 C736 1.408 . S
C737 H759 0.930 . S
C738 O748 1.281 . S
C738 O749 1.254 . S
C739 O750 1.236 . S
C739 O751 1.266 . S
O740 Tb720 2.484 . S
O740 C722 1.248 . S
O741 Tb720 2.440 . S
O741 C722 1.266 . S
O742 Tb720 2.658 . S
O742 Tb721 2.325 . S
O742 C729 1.281 . S
O743 Tb720 2.409 . S
O743 C729 1.254 . S
O744 Tb720 2.378 . S
O744 C730 1.236 . S
O745 Tb721 2.341 . S
O745 C730 1.266 . S
O746 Tb721 2.484 . S
O746 C731 1.248 . S
O747 Tb721 2.440 . S
O747 C731 1.266 . S
O748 Tb720 2.325 . S
O748 Tb721 2.658 . S
O748 C738 1.281 . S
O749 Tb721 2.409 . S
O749 C738 1.254 . S
O750 Tb721 2.378 . S
O750 C739 1.236 . S
O751 Tb720 2.341 . S
O751 C739 1.266 . S
H752 C724 0.929 . S
H753 C725 0.931 . S
H754 C727 0.930 . S
H755 C728 0.930 . S
H756 C733 0.929 . S
H757 C734 0.931 . S
H758 C736 0.930 . S
H759 C737 0.930 . S
Tb760 C762 2.809 . S
Tb760 O780 2.484 . S
Tb760 O781 2.440 . S
Tb760 O782 2.658 . S
Tb760 O783 2.409 . S
Tb760 O784 2.378 . S
Tb760 O788 2.325 . S
Tb760 O791 2.341 . S
Tb761 C771 2.809 . S
Tb761 O782 2.325 . S
Tb761 O785 2.341 . S
Tb761 O786 2.484 . S
Tb761 O787 2.440 . S
Tb761 O788 2.658 . S
Tb761 O789 2.409 . S
Tb761 O790 2.378 . S
C762 Tb760 2.809 . S
C762 C763 1.514 . S
C762 O780 1.248 . S
C762 O781 1.266 . S
C763 C762 1.514 . S
C763 C764 1.359 . S
C763 C768 1.348 . S
C764 C763 1.359 . S
C764 C765 1.380 . S
C764 H792 0.929 . S
C765 C764 1.380 . S
C765 C766 1.347 . S
C765 H793 0.931 . S
C766 C765 1.347 . S
C766 C767 1.369 . S
C767 C766 1.369 . S
C767 C768 1.408 . S
C767 H794 0.930 . S
C768 C763 1.348 . S
C768 C767 1.408 . S
C768 H795 0.930 . S
C769 O782 1.281 . S
C769 O783 1.254 . S
C770 O784 1.236 . S
C770 O785 1.266 . S
C771 Tb761 2.809 . S
C771 C772 1.514 1_565 S
C771 O786 1.248 . S
C771 O787 1.266 . S
C772 C771 1.514 1_545 S
C772 C773 1.359 . S
C772 C777 1.348 . S
C773 C772 1.359 . S
C773 C774 1.380 . S
C773 H796 0.929 . S
C774 C773 1.380 . S
C774 C775 1.347 . S
C774 H797 0.931 . S
C775 C774 1.347 . S
C775 C776 1.369 . S
C776 C775 1.369 . S
C776 C777 1.408 . S
C776 H798 0.930 . S
C777 C772 1.348 . S
C777 C776 1.408 . S
C777 H799 0.930 . S
C778 O788 1.281 . S
C778 O789 1.254 . S
C779 O790 1.236 . S
C779 O791 1.266 . S
O780 Tb760 2.484 . S
O780 C762 1.248 . S
O781 Tb760 2.440 . S
O781 C762 1.266 . S
O782 Tb760 2.658 . S
O782 Tb761 2.325 . S
O782 C769 1.281 . S
O783 Tb760 2.409 . S
O783 C769 1.254 . S
O784 Tb760 2.378 . S
O784 C770 1.236 . S
O785 Tb761 2.341 . S
O785 C770 1.266 . S
O786 Tb761 2.484 . S
O786 C771 1.248 . S
O787 Tb761 2.440 . S
O787 C771 1.266 . S
O788 Tb760 2.325 . S
O788 Tb761 2.658 . S
O788 C778 1.281 . S
O789 Tb761 2.409 . S
O789 C778 1.254 . S
O790 Tb761 2.378 . S
O790 C779 1.236 . S
O791 Tb760 2.341 . S
O791 C779 1.266 . S
H792 C764 0.929 . S
H793 C765 0.931 . S
H794 C767 0.930 . S
H795 C768 0.930 . S
H796 C773 0.929 . S
H797 C774 0.931 . S
H798 C776 0.930 . S
H799 C777 0.930 . S
Tb800 C802 2.809 . S
Tb800 O820 2.484 . S
Tb800 O821 2.440 . S
Tb800 O822 2.658 . S
Tb800 O823 2.409 . S
Tb800 O824 2.378 . S
Tb800 O828 2.325 . S
Tb800 O831 2.341 . S
Tb801 C811 2.809 . S
Tb801 O822 2.325 . S
Tb801 O825 2.341 . S
Tb801 O826 2.484 . S
Tb801 O827 2.440 . S
Tb801 O828 2.658 . S
Tb801 O829 2.409 . S
Tb801 O830 2.378 . S
C802 Tb800 2.809 . S
C802 C803 1.514 . S
C802 O820 1.248 . S
C802 O821 1.266 . S
C803 C802 1.514 . S
C803 C804 1.359 . S
C803 C808 1.348 . S
C804 C803 1.359 . S
C804 C805 1.380 . S
C804 H832 0.929 . S
C805 C804 1.380 . S
C805 C806 1.347 . S
C805 H833 0.931 . S
C806 C805 1.347 . S
C806 C807 1.369 . S
C807 C806 1.369 . S
C807 C808 1.408 . S
C807 H834 0.930 . S
C808 C803 1.348 . S
C808 C807 1.408 . S
C808 H835 0.930 . S
C809 O822 1.281 . S
C809 O823 1.254 . S
C810 O824 1.236 . S
C810 O825 1.266 . S
C811 Tb801 2.809 . S
C811 C812 1.514 . S
C811 O826 1.248 . S
C811 O827 1.266 . S
C812 C811 1.514 . S
C812 C813 1.359 . S
C812 C817 1.348 . S
C813 C812 1.359 . S
C813 C814 1.380 1_455 S
C813 H836 0.929 . S
C814 C813 1.380 1_655 S
C814 C815 1.347 . S
C814 H837 0.931 . S
C815 C814 1.347 . S
C815 C816 1.369 . S
C816 C815 1.369 . S
C816 C817 1.408 1_655 S
C816 H838 0.930 . S
C817 C812 1.348 . S
C817 C816 1.408 1_455 S
C817 H839 0.930 . S
C818 O828 1.281 . S
C818 O829 1.254 . S
C819 O830 1.236 . S
C819 O831 1.266 . S
O820 Tb800 2.484 . S
O820 C802 1.248 . S
O821 Tb800 2.440 . S
O821 C802 1.266 . S
O822 Tb800 2.658 . S
O822 Tb801 2.325 . S
O822 C809 1.281 . S
O823 Tb800 2.409 . S
O823 C809 1.254 . S
O824 Tb800 2.378 . S
O824 C810 1.236 . S
O825 Tb801 2.341 . S
O825 C810 1.266 . S
O826 Tb801 2.484 . S
O826 C811 1.248 . S
O827 Tb801 2.440 . S
O827 C811 1.266 . S
O828 Tb800 2.325 . S
O828 Tb801 2.658 . S
O828 C818 1.281 . S
O829 Tb801 2.409 . S
O829 C818 1.254 . S
O830 Tb801 2.378 . S
O830 C819 1.236 . S
O831 Tb800 2.341 . S
O831 C819 1.266 . S
H832 C804 0.929 . S
H833 C805 0.931 . S
H834 C807 0.930 . S
H835 C808 0.930 . S
H836 C813 0.929 . S
H837 C814 0.931 . S
H838 C816 0.930 . S
H839 C817 0.930 . S
Tb840 C842 2.809 . S
Tb840 O860 2.484 . S
Tb840 O861 2.440 . S
Tb840 O862 2.658 . S
Tb840 O863 2.409 . S
Tb840 O864 2.378 . S
Tb840 O868 2.325 . S
Tb840 O871 2.341 . S
Tb841 C851 2.809 . S
Tb841 O862 2.325 . S
Tb841 O865 2.341 . S
Tb841 O866 2.484 . S
Tb841 O867 2.440 . S
Tb841 O868 2.658 . S
Tb841 O869 2.409 . S
Tb841 O870 2.378 . S
C842 Tb840 2.809 . S
C842 C843 1.514 . S
C842 O860 1.248 . S
C842 O861 1.266 . S
C843 C842 1.514 . S
C843 C844 1.359 . S
C843 C848 1.348 . S
C844 C843 1.359 . S
C844 C845 1.380 . S
C844 H872 0.929 . S
C845 C844 1.380 . S
C845 C846 1.347 . S
C845 H873 0.931 . S
C846 C845 1.347 . S
C846 C847 1.369 . S
C847 C846 1.369 . S
C847 C848 1.408 . S
C847 H874 0.930 . S
C848 C843 1.348 . S
C848 C847 1.408 . S
C848 H875 0.930 . S
C849 O862 1.281 . S
C849 O863 1.254 . S
C850 O864 1.236 . S
C850 O865 1.266 . S
C851 Tb841 2.809 . S
C851 C852 1.514 . S
C851 O866 1.248 . S
C851 O867 1.266 . S
C852 C851 1.514 . S
C852 C853 1.359 . S
C852 C857 1.348 . S
C853 C852 1.359 . S
C853 C854 1.380 . S
C853 H876 0.929 . S
C854 C853 1.380 . S
C854 C855 1.347 . S
C854 H877 0.931 . S
C855 C854 1.347 . S
C855 C856 1.369 . S
C856 C855 1.369 . S
C856 C857 1.408 . S
C856 H878 0.930 . S
C857 C852 1.348 . S
C857 C856 1.408 . S
C857 H879 0.930 . S
C858 O868 1.281 . S
C858 O869 1.254 . S
C859 O870 1.236 . S
C859 O871 1.266 . S
O860 Tb840 2.484 . S
O860 C842 1.248 . S
O861 Tb840 2.440 . S
O861 C842 1.266 . S
O862 Tb840 2.658 . S
O862 Tb841 2.325 . S
O862 C849 1.281 . S
O863 Tb840 2.409 . S
O863 C849 1.254 . S
O864 Tb840 2.378 . S
O864 C850 1.236 . S
O865 Tb841 2.341 . S
O865 C850 1.266 . S
O866 Tb841 2.484 . S
O866 C851 1.248 . S
O867 Tb841 2.440 . S
O867 C851 1.266 . S
O868 Tb840 2.325 . S
O868 Tb841 2.658 . S
O868 C858 1.281 . S
O869 Tb841 2.409 . S
O869 C858 1.254 . S
O870 Tb841 2.378 . S
O870 C859 1.236 . S
O871 Tb840 2.341 . S
O871 C859 1.266 . S
H872 C844 0.929 . S
H873 C845 0.931 . S
H874 C847 0.930 . S
H875 C848 0.930 . S
H876 C853 0.929 . S
H877 C854 0.931 . S
H878 C856 0.930 . S
H879 C857 0.930 . S
Tb880 C882 2.809 . S
Tb880 O900 2.484 . S
Tb880 O901 2.440 . S
Tb880 O902 2.658 . S
Tb880 O903 2.409 . S
Tb880 O904 2.378 . S
Tb880 O908 2.325 . S
Tb880 O911 2.341 . S
Tb881 C891 2.809 . S
Tb881 O902 2.325 . S
Tb881 O905 2.341 . S
Tb881 O906 2.484 . S
Tb881 O907 2.440 . S
Tb881 O908 2.658 . S
Tb881 O909 2.409 . S
Tb881 O910 2.378 . S
C882 Tb880 2.809 . S
C882 C883 1.514 . S
C882 O900 1.248 . S
C882 O901 1.266 . S
C883 C882 1.514 . S
C883 C884 1.359 . S
C883 C888 1.348 . S
C884 C883 1.359 . S
C884 C885 1.380 1_565 S
C884 H912 0.929 . S
C885 C884 1.380 1_545 S
C885 C886 1.347 . S
C885 H913 0.931 . S
C886 C885 1.347 . S
C886 C887 1.369 . S
C887 C886 1.369 . S
C887 C888 1.408 1_545 S
C887 H914 0.930 . S
C888 C883 1.348 . S
C888 C887 1.408 1_565 S
C888 H915 0.930 . S
C889 O902 1.281 . S
C889 O903 1.254 . S
C890 O904 1.236 . S
C890 O905 1.266 . S
C891 Tb881 2.809 . S
C891 C892 1.514 . S
C891 O906 1.248 . S
C891 O907 1.266 . S
C892 C891 1.514 . S
C892 C893 1.359 . S
C892 C897 1.348 . S
C893 C892 1.359 . S
C893 C894 1.380 . S
C893 H916 0.929 . S
C894 C893 1.380 . S
C894 C895 1.347 . S
C894 H917 0.931 . S
C895 C894 1.347 . S
C895 C896 1.369 . S
C896 C895 1.369 . S
C896 C897 1.408 . S
C896 H918 0.930 . S
C897 C892 1.348 . S
C897 C896 1.408 . S
C897 H919 0.930 . S
C898 O908 1.281 . S
C898 O909 1.254 . S
C899 O910 1.236 . S
C899 O911 1.266 . S
O900 Tb880 2.484 . S
O900 C882 1.248 . S
O901 Tb880 2.440 . S
O901 C882 1.266 . S
O902 Tb880 2.658 . S
O902 Tb881 2.325 . S
O902 C889 1.281 . S
O903 Tb880 2.409 . S
O903 C889 1.254 . S
O904 Tb880 2.378 . S
O904 C890 1.236 . S
O905 Tb881 2.341 . S
O905 C890 1.266 . S
O906 Tb881 2.484 . S
O906 C891 1.248 . S
O907 Tb881 2.440 . S
O907 C891 1.266 . S
O908 Tb880 2.325 . S
O908 Tb881 2.658 . S
O908 C898 1.281 . S
O909 Tb881 2.409 . S
O909 C898 1.254 . S
O910 Tb881 2.378 . S
O910 C899 1.236 . S
O911 Tb880 2.341 . S
O911 C899 1.266 . S
H912 C884 0.929 . S
H913 C885 0.931 . S
H914 C887 0.930 . S
H915 C888 0.930 . S
H916 C893 0.929 . S
H917 C894 0.931 . S
H918 C896 0.930 . S
H919 C897 0.930 . S
Tb920 C922 2.809 . S
Tb920 O940 2.484 . S
Tb920 O941 2.440 . S
Tb920 O942 2.658 . S
Tb920 O943 2.409 . S
Tb920 O944 2.378 . S
Tb920 O948 2.325 . S
Tb920 O951 2.341 . S
Tb921 C931 2.809 . S
Tb921 O942 2.325 . S
Tb921 O945 2.341 . S
Tb921 O946 2.484 . S
Tb921 O947 2.440 . S
Tb921 O948 2.658 . S
Tb921 O949 2.409 . S
Tb921 O950 2.378 . S
C922 Tb920 2.809 . S
C922 C923 1.514 . S
C922 O940 1.248 . S
C922 O941 1.266 . S
C923 C922 1.514 . S
C923 C924 1.359 . S
C923 C928 1.348 . S
C924 C923 1.359 . S
C924 C925 1.380 . S
C924 H952 0.929 . S
C925 C924 1.380 . S
C925 C926 1.347 . S
C925 H953 0.931 . S
C926 C925 1.347 . S
C926 C927 1.369 . S
C927 C926 1.369 . S
C927 C928 1.408 . S
C927 H954 0.930 . S
C928 C923 1.348 . S
C928 C927 1.408 . S
C928 H955 0.930 . S
C929 O942 1.281 . S
C929 O943 1.254 . S
C930 O944 1.236 . S
C930 O945 1.266 . S
C931 Tb921 2.809 . S
C931 C932 1.514 . S
C931 O946 1.248 . S
C931 O947 1.266 . S
C932 C931 1.514 . S
C932 C933 1.359 . S
C932 C937 1.348 . S
C933 C932 1.359 . S
C933 C934 1.380 . S
C933 H956 0.929 . S
C934 C933 1.380 . S
C934 C935 1.347 . S
C934 H957 0.931 . S
C935 C934 1.347 . S
C935 C936 1.369 . S
C936 C935 1.369 . S
C936 C937 1.408 . S
C936 H958 0.930 . S
C937 C932 1.348 . S
C937 C936 1.408 . S
C937 H959 0.930 . S
C938 O948 1.281 . S
C938 O949 1.254 . S
C939 O950 1.236 . S
C939 O951 1.266 . S
O940 Tb920 2.484 . S
O940 C922 1.248 . S
O941 Tb920 2.440 . S
O941 C922 1.266 . S
O942 Tb920 2.658 . S
O942 Tb921 2.325 . S
O942 C929 1.281 . S
O943 Tb920 2.409 . S
O943 C929 1.254 . S
O944 Tb920 2.378 . S
O944 C930 1.236 . S
O945 Tb921 2.341 . S
O945 C930 1.266 . S
O946 Tb921 2.484 . S
O946 C931 1.248 . S
O947 Tb921 2.440 . S
O947 C931 1.266 . S
O948 Tb920 2.325 . S
O948 Tb921 2.658 . S
O948 C938 1.281 . S
O949 Tb921 2.409 . S
O949 C938 1.254 . S
O950 Tb921 2.378 . S
O950 C939 1.236 . S
O951 Tb920 2.341 . S
O951 C939 1.266 . S
H952 C924 0.929 . S
H953 C925 0.931 . S
H954 C927 0.930 . S
H955 C928 0.930 . S
H956 C933 0.929 . S
H957 C934 0.931 . S
H958 C936 0.930 . S
H959 C937 0.930 . S
Tb960 C962 2.809 . S
Tb960 O980 2.484 . S
Tb960 O981 2.440 . S
Tb960 O982 2.658 . S
Tb960 O983 2.409 . S
Tb960 O984 2.378 . S
Tb960 O988 2.325 . S
Tb960 O991 2.341 . S
Tb961 C971 2.809 . S
Tb961 O982 2.325 . S
Tb961 O985 2.341 . S
Tb961 O986 2.484 . S
Tb961 O987 2.440 . S
Tb961 O988 2.658 . S
Tb961 O989 2.409 . S
Tb961 O990 2.378 . S
C962 Tb960 2.809 . S
C962 C963 1.514 . S
C962 O980 1.248 . S
C962 O981 1.266 . S
C963 C962 1.514 . S
C963 C964 1.359 . S
C963 C968 1.348 . S
C964 C963 1.359 . S
C964 C965 1.380 . S
C964 H992 0.929 . S
C965 C964 1.380 . S
C965 C966 1.347 . S
C965 H993 0.931 . S
C966 C965 1.347 . S
C966 C967 1.369 . S
C967 C966 1.369 . S
C967 C968 1.408 . S
C967 H994 0.930 . S
C968 C963 1.348 . S
C968 C967 1.408 . S
C968 H995 0.930 . S
C969 O982 1.281 . S
C969 O983 1.254 . S
C970 O984 1.236 . S
C970 O985 1.266 . S
C971 Tb961 2.809 . S
C971 C972 1.514 . S
C971 O986 1.248 . S
C971 O987 1.266 . S
C972 C971 1.514 . S
C972 C973 1.359 . S
C972 C977 1.348 . S
C973 C972 1.359 . S
C973 C974 1.380 . S
C973 H996 0.929 . S
C974 C973 1.380 . S
C974 C975 1.347 . S
C974 H997 0.931 . S
C975 C974 1.347 . S
C975 C976 1.369 . S
C976 C975 1.369 . S
C976 C977 1.408 . S
C976 H998 0.930 . S
C977 C972 1.348 . S
C977 C976 1.408 . S
C977 H999 0.930 . S
C978 O988 1.281 . S
C978 O989 1.254 . S
C979 O990 1.236 . S
C979 O991 1.266 . S
O980 Tb960 2.484 . S
O980 C962 1.248 . S
O981 Tb960 2.440 . S
O981 C962 1.266 . S
O982 Tb960 2.658 . S
O982 Tb961 2.325 . S
O982 C969 1.281 . S
O983 Tb960 2.409 . S
O983 C969 1.254 . S
O984 Tb960 2.378 . S
O984 C970 1.236 . S
O985 Tb961 2.341 . S
O985 C970 1.266 . S
O986 Tb961 2.484 . S
O986 C971 1.248 . S
O987 Tb961 2.440 . S
O987 C971 1.266 . S
O988 Tb960 2.325 . S
O988 Tb961 2.658 . S
O988 C978 1.281 . S
O989 Tb961 2.409 . S
O989 C978 1.254 . S
O990 Tb961 2.378 . S
O990 C979 1.236 . S
O991 Tb960 2.341 . S
O991 C979 1.266 . S
H992 C964 0.929 . S
H993 C965 0.931 . S
H994 C967 0.930 . S
H995 C968 0.930 . S
H996 C973 0.929 . S
H997 C974 0.931 . S
H998 C976 0.930 . S
H999 C977 0.930 . S
Tb1000 C1002 2.809 . S
Tb1000 O1020 2.484 . S
Tb1000 O1021 2.440 . S
Tb1000 O1022 2.658 . S
Tb1000 O1023 2.409 . S
Tb1000 O1024 2.378 . S
Tb1000 O1028 2.325 . S
Tb1000 O1031 2.341 . S
Tb1001 C1011 2.809 . S
Tb1001 O1022 2.325 . S
Tb1001 O1025 2.341 . S
Tb1001 O1026 2.484 . S
Tb1001 O1027 2.440 . S
Tb1001 O1028 2.658 . S
Tb1001 O1029 2.409 . S
Tb1001 O1030 2.378 . S
C1002 Tb1000 2.809 . S
C1002 C1003 1.514 . S
C1002 O1020 1.248 . S
C1002 O1021 1.266 . S
C1003 C1002 1.514 . S
C1003 C1004 1.359 . S
C1003 C1008 1.348 . S
C1004 C1003 1.359 . S
C1004 C1005 1.380 1_545 S
C1004 H1032 0.929 . S
C1005 C1004 1.380 1_565 S
C1005 C1006 1.347 . S
C1005 H1033 0.931 . S
C1006 C1005 1.347 . S
C1006 C1007 1.369 . S
C1007 C1006 1.369 . S
C1007 C1008 1.408 1_565 S
C1007 H1034 0.930 . S
C1008 C1003 1.348 . S
C1008 C1007 1.408 1_545 S
C1008 H1035 0.930 . S
C1009 O1022 1.281 . S
C1009 O1023 1.254 . S
C1010 O1024 1.236 . S
C1010 O1025 1.266 . S
C1011 Tb1001 2.809 . S
C1011 C1012 1.514 . S
C1011 O1026 1.248 . S
C1011 O1027 1.266 . S
C1012 C1011 1.514 . S
C1012 C1013 1.359 . S
C1012 C1017 1.348 . S
C1013 C1012 1.359 . S
C1013 C1014 1.380 . S
C1013 H1036 0.929 . S
C1014 C1013 1.380 . S
C1014 C1015 1.347 . S
C1014 H1037 0.931 . S
C1015 C1014 1.347 . S
C1015 C1016 1.369 . S
C1016 C1015 1.369 . S
C1016 C1017 1.408 . S
C1016 H1038 0.930 . S
C1017 C1012 1.348 . S
C1017 C1016 1.408 . S
C1017 H1039 0.930 . S
C1018 O1028 1.281 . S
C1018 O1029 1.254 . S
C1019 O1030 1.236 . S
C1019 O1031 1.266 . S
O1020 Tb1000 2.484 . S
O1020 C1002 1.248 . S
O1021 Tb1000 2.440 . S
O1021 C1002 1.266 . S
O1022 Tb1000 2.658 . S
O1022 Tb1001 2.325 . S
O1022 C1009 1.281 . S
O1023 Tb1000 2.409 . S
O1023 C1009 1.254 . S
O1024 Tb1000 2.378 . S
O1024 C1010 1.236 . S
O1025 Tb1001 2.341 . S
O1025 C1010 1.266 . S
O1026 Tb1001 2.484 . S
O1026 C1011 1.248 . S
O1027 Tb1001 2.440 . S
O1027 C1011 1.266 . S
O1028 Tb1000 2.325 . S
O1028 Tb1001 2.658 . S
O1028 C1018 1.281 . S
O1029 Tb1001 2.409 . S
O1029 C1018 1.254 . S
O1030 Tb1001 2.378 . S
O1030 C1019 1.236 . S
O1031 Tb1000 2.341 . S
O1031 C1019 1.266 . S
H1032 C1004 0.929 . S
H1033 C1005 0.931 . S
H1034 C1007 0.930 . S
H1035 C1008 0.930 . S
H1036 C1013 0.929 . S
H1037 C1014 0.931 . S
H1038 C1016 0.930 . S
H1039 C1017 0.930 . S
Tb1040 C1042 2.809 . S
Tb1040 O1060 2.484 . S
Tb1040 O1061 2.440 . S
Tb1040 O1062 2.658 . S
Tb1040 O1063 2.409 . S
Tb1040 O1064 2.378 . S
Tb1040 O1068 2.325 . S
Tb1040 O1071 2.341 . S
Tb1041 C1051 2.809 . S
Tb1041 O1062 2.325 . S
Tb1041 O1065 2.341 . S
Tb1041 O1066 2.484 . S
Tb1041 O1067 2.440 . S
Tb1041 O1068 2.658 . S
Tb1041 O1069 2.409 . S
Tb1041 O1070 2.378 . S
C1042 Tb1040 2.809 . S
C1042 C1043 1.514 1_655 S
C1042 O1060 1.248 . S
C1042 O1061 1.266 . S
C1043 C1042 1.514 1_455 S
C1043 C1044 1.359 . S
C1043 C1048 1.348 . S
C1044 C1043 1.359 . S
C1044 C1045 1.380 . S
C1044 H1072 0.929 . S
C1045 C1044 1.380 . S
C1045 C1046 1.347 . S
C1045 H1073 0.931 . S
C1046 C1045 1.347 . S
C1046 C1047 1.369 . S
C1047 C1046 1.369 . S
C1047 C1048 1.408 . S
C1047 H1074 0.930 . S
C1048 C1043 1.348 . S
C1048 C1047 1.408 . S
C1048 H1075 0.930 . S
C1049 O1062 1.281 . S
C1049 O1063 1.254 . S
C1050 O1064 1.236 . S
C1050 O1065 1.266 . S
C1051 Tb1041 2.809 . S
C1051 C1052 1.514 . S
C1051 O1066 1.248 . S
C1051 O1067 1.266 . S
C1052 C1051 1.514 . S
C1052 C1053 1.359 . S
C1052 C1057 1.348 . S
C1053 C1052 1.359 . S
C1053 C1054 1.380 . S
C1053 H1076 0.929 . S
C1054 C1053 1.380 . S
C1054 C1055 1.347 . S
C1054 H1077 0.931 . S
C1055 C1054 1.347 . S
C1055 C1056 1.369 . S
C1056 C1055 1.369 . S
C1056 C1057 1.408 . S
C1056 H1078 0.930 . S
C1057 C1052 1.348 . S
C1057 C1056 1.408 . S
C1057 H1079 0.930 . S
C1058 O1068 1.281 . S
C1058 O1069 1.254 . S
C1059 O1070 1.236 . S
C1059 O1071 1.266 . S
O1060 Tb1040 2.484 . S
O1060 C1042 1.248 . S
O1061 Tb1040 2.440 . S
O1061 C1042 1.266 . S
O1062 Tb1040 2.658 . S
O1062 Tb1041 2.325 . S
O1062 C1049 1.281 . S
O1063 Tb1040 2.409 . S
O1063 C1049 1.254 . S
O1064 Tb1040 2.378 . S
O1064 C1050 1.236 . S
O1065 Tb1041 2.341 . S
O1065 C1050 1.266 . S
O1066 Tb1041 2.484 . S
O1066 C1051 1.248 . S
O1067 Tb1041 2.440 . S
O1067 C1051 1.266 . S
O1068 Tb1040 2.325 . S
O1068 Tb1041 2.658 . S
O1068 C1058 1.281 . S
O1069 Tb1041 2.409 . S
O1069 C1058 1.254 . S
O1070 Tb1041 2.378 . S
O1070 C1059 1.236 . S
O1071 Tb1040 2.341 . S
O1071 C1059 1.266 . S
H1072 C1044 0.929 . S
H1073 C1045 0.931 . S
H1074 C1047 0.930 . S
H1075 C1048 0.930 . S
H1076 C1053 0.929 . S
H1077 C1054 0.931 . S
H1078 C1056 0.930 . S
H1079 C1057 0.930 . S
Tb1080 C1082 2.809 . S
Tb1080 O1100 2.484 . S
Tb1080 O1101 2.440 . S
Tb1080 O1102 2.658 . S
Tb1080 O1103 2.409 . S
Tb1080 O1104 2.378 . S
Tb1080 O1108 2.325 . S
Tb1080 O1111 2.341 . S
Tb1081 C1091 2.809 . S
Tb1081 O1102 2.325 . S
Tb1081 O1105 2.341 . S
Tb1081 O1106 2.484 . S
Tb1081 O1107 2.440 . S
Tb1081 O1108 2.658 . S
Tb1081 O1109 2.409 . S
Tb1081 O1110 2.378 . S
C1082 Tb1080 2.809 . S
C1082 C1083 1.514 . S
C1082 O1100 1.248 . S
C1082 O1101 1.266 . S
C1083 C1082 1.514 . S
C1083 C1084 1.359 . S
C1083 C1088 1.348 . S
C1084 C1083 1.359 . S
C1084 C1085 1.380 . S
C1084 H1112 0.929 . S
C1085 C1084 1.380 . S
C1085 C1086 1.347 . S
C1085 H1113 0.931 . S
C1086 C1085 1.347 . S
C1086 C1087 1.369 . S
C1087 C1086 1.369 . S
C1087 C1088 1.408 . S
C1087 H1114 0.930 . S
C1088 C1083 1.348 . S
C1088 C1087 1.408 . S
C1088 H1115 0.930 . S
C1089 O1102 1.281 . S
C1089 O1103 1.254 . S
C1090 O1104 1.236 . S
C1090 O1105 1.266 . S
C1091 Tb1081 2.809 . S
C1091 C1092 1.514 . S
C1091 O1106 1.248 . S
C1091 O1107 1.266 . S
C1092 C1091 1.514 . S
C1092 C1093 1.359 . S
C1092 C1097 1.348 . S
C1093 C1092 1.359 . S
C1093 C1094 1.380 . S
C1093 H1116 0.929 . S
C1094 C1093 1.380 . S
C1094 C1095 1.347 . S
C1094 H1117 0.931 . S
C1095 C1094 1.347 . S
C1095 C1096 1.369 . S
C1096 C1095 1.369 . S
C1096 C1097 1.408 . S
C1096 H1118 0.930 . S
C1097 C1092 1.348 . S
C1097 C1096 1.408 . S
C1097 H1119 0.930 . S
C1098 O1108 1.281 . S
C1098 O1109 1.254 . S
C1099 O1110 1.236 . S
C1099 O1111 1.266 . S
O1100 Tb1080 2.484 . S
O1100 C1082 1.248 . S
O1101 Tb1080 2.440 . S
O1101 C1082 1.266 . S
O1102 Tb1080 2.658 . S
O1102 Tb1081 2.325 . S
O1102 C1089 1.281 . S
O1103 Tb1080 2.409 . S
O1103 C1089 1.254 . S
O1104 Tb1080 2.378 . S
O1104 C1090 1.236 . S
O1105 Tb1081 2.341 . S
O1105 C1090 1.266 . S
O1106 Tb1081 2.484 . S
O1106 C1091 1.248 . S
O1107 Tb1081 2.440 . S
O1107 C1091 1.266 . S
O1108 Tb1080 2.325 . S
O1108 Tb1081 2.658 . S
O1108 C1098 1.281 . S
O1109 Tb1081 2.409 . S
O1109 C1098 1.254 . S
O1110 Tb1081 2.378 . S
O1110 C1099 1.236 . S
O1111 Tb1080 2.341 . S
O1111 C1099 1.266 . S
H1112 C1084 0.929 . S
H1113 C1085 0.931 . S
H1114 C1087 0.930 . S
H1115 C1088 0.930 . S
H1116 C1093 0.929 . S
H1117 C1094 0.931 . S
H1118 C1096 0.930 . S
H1119 C1097 0.930 . S
Tb1120 C1122 2.809 . S
Tb1120 O1140 2.484 . S
Tb1120 O1141 2.440 . S
Tb1120 O1142 2.658 . S
Tb1120 O1143 2.409 . S
Tb1120 O1144 2.378 . S
Tb1120 O1148 2.325 . S
Tb1120 O1151 2.341 . S
Tb1121 C1131 2.809 . S
Tb1121 O1142 2.325 . S
Tb1121 O1145 2.341 . S
Tb1121 O1146 2.484 . S
Tb1121 O1147 2.440 . S
Tb1121 O1148 2.658 . S
Tb1121 O1149 2.409 . S
Tb1121 O1150 2.378 . S
C1122 Tb1120 2.809 . S
C1122 C1123 1.514 . S
C1122 O1140 1.248 . S
C1122 O1141 1.266 . S
C1123 C1122 1.514 . S
C1123 C1124 1.359 . S
C1123 C1128 1.348 . S
C1124 C1123 1.359 . S
C1124 C1125 1.380 . S
C1124 H1152 0.929 . S
C1125 C1124 1.380 . S
C1125 C1126 1.347 . S
C1125 H1153 0.931 . S
C1126 C1125 1.347 . S
C1126 C1127 1.369 . S
C1127 C1126 1.369 . S
C1127 C1128 1.408 . S
C1127 H1154 0.930 . S
C1128 C1123 1.348 . S
C1128 C1127 1.408 . S
C1128 H1155 0.930 . S
C1129 O1142 1.281 . S
C1129 O1143 1.254 . S
C1130 O1144 1.236 . S
C1130 O1145 1.266 . S
C1131 Tb1121 2.809 . S
C1131 C1132 1.514 . S
C1131 O1146 1.248 . S
C1131 O1147 1.266 . S
C1132 C1131 1.514 . S
C1132 C1133 1.359 . S
C1132 C1137 1.348 . S
C1133 C1132 1.359 . S
C1133 C1134 1.380 . S
C1133 H1156 0.929 . S
C1134 C1133 1.380 . S
C1134 C1135 1.347 . S
C1134 H1157 0.931 . S
C1135 C1134 1.347 . S
C1135 C1136 1.369 . S
C1136 C1135 1.369 . S
C1136 C1137 1.408 . S
C1136 H1158 0.930 . S
C1137 C1132 1.348 . S
C1137 C1136 1.408 . S
C1137 H1159 0.930 . S
C1138 O1148 1.281 . S
C1138 O1149 1.254 . S
C1139 O1150 1.236 . S
C1139 O1151 1.266 . S
O1140 Tb1120 2.484 . S
O1140 C1122 1.248 . S
O1141 Tb1120 2.440 . S
O1141 C1122 1.266 . S
O1142 Tb1120 2.658 . S
O1142 Tb1121 2.325 . S
O1142 C1129 1.281 . S
O1143 Tb1120 2.409 . S
O1143 C1129 1.254 . S
O1144 Tb1120 2.378 . S
O1144 C1130 1.236 . S
O1145 Tb1121 2.341 . S
O1145 C1130 1.266 . S
O1146 Tb1121 2.484 . S
O1146 C1131 1.248 . S
O1147 Tb1121 2.440 . S
O1147 C1131 1.266 . S
O1148 Tb1120 2.325 . S
O1148 Tb1121 2.658 . S
O1148 C1138 1.281 . S
O1149 Tb1121 2.409 . S
O1149 C1138 1.254 . S
O1150 Tb1121 2.378 . S
O1150 C1139 1.236 . S
O1151 Tb1120 2.341 . S
O1151 C1139 1.266 . S
H1152 C1124 0.929 . S
H1153 C1125 0.931 . S
H1154 C1127 0.930 . S
H1155 C1128 0.930 . S
H1156 C1133 0.929 . S
H1157 C1134 0.931 . S
H1158 C1136 0.930 . S
H1159 C1137 0.930 . S
Tb1160 C1162 2.809 . S
Tb1160 O1180 2.484 . S
Tb1160 O1181 2.440 . S
Tb1160 O1182 2.658 . S
Tb1160 O1183 2.409 . S
Tb1160 O1184 2.378 . S
Tb1160 O1188 2.325 . S
Tb1160 O1191 2.341 . S
Tb1161 C1171 2.809 . S
Tb1161 O1182 2.325 . S
Tb1161 O1185 2.341 . S
Tb1161 O1186 2.484 . S
Tb1161 O1187 2.440 . S
Tb1161 O1188 2.658 . S
Tb1161 O1189 2.409 . S
Tb1161 O1190 2.378 . S
C1162 Tb1160 2.809 . S
C1162 C1163 1.514 . S
C1162 O1180 1.248 . S
C1162 O1181 1.266 . S
C1163 C1162 1.514 . S
C1163 C1164 1.359 . S
C1163 C1168 1.348 . S
C1164 C1163 1.359 . S
C1164 C1165 1.380 . S
C1164 H1192 0.929 . S
C1165 C1164 1.380 . S
C1165 C1166 1.347 . S
C1165 H1193 0.931 . S
C1166 C1165 1.347 . S
C1166 C1167 1.369 . S
C1167 C1166 1.369 . S
C1167 C1168 1.408 . S
C1167 H1194 0.930 . S
C1168 C1163 1.348 . S
C1168 C1167 1.408 . S
C1168 H1195 0.930 . S
C1169 O1182 1.281 . S
C1169 O1183 1.254 . S
C1170 O1184 1.236 . S
C1170 O1185 1.266 . S
C1171 Tb1161 2.809 . S
C1171 C1172 1.514 . S
C1171 O1186 1.248 . S
C1171 O1187 1.266 . S
C1172 C1171 1.514 . S
C1172 C1173 1.359 . S
C1172 C1177 1.348 . S
C1173 C1172 1.359 . S
C1173 C1174 1.380 1_655 S
C1173 H1196 0.929 . S
C1174 C1173 1.380 1_455 S
C1174 C1175 1.347 . S
C1174 H1197 0.931 . S
C1175 C1174 1.347 . S
C1175 C1176 1.369 . S
C1176 C1175 1.369 . S
C1176 C1177 1.408 1_455 S
C1176 H1198 0.930 . S
C1177 C1172 1.348 . S
C1177 C1176 1.408 1_655 S
C1177 H1199 0.930 . S
C1178 O1188 1.281 . S
C1178 O1189 1.254 . S
C1179 O1190 1.236 . S
C1179 O1191 1.266 . S
O1180 Tb1160 2.484 . S
O1180 C1162 1.248 . S
O1181 Tb1160 2.440 . S
O1181 C1162 1.266 . S
O1182 Tb1160 2.658 . S
O1182 Tb1161 2.325 . S
O1182 C1169 1.281 . S
O1183 Tb1160 2.409 . S
O1183 C1169 1.254 . S
O1184 Tb1160 2.378 . S
O1184 C1170 1.236 . S
O1185 Tb1161 2.341 . S
O1185 C1170 1.266 . S
O1186 Tb1161 2.484 . S
O1186 C1171 1.248 . S
O1187 Tb1161 2.440 . S
O1187 C1171 1.266 . S
O1188 Tb1160 2.325 . S
O1188 Tb1161 2.658 . S
O1188 C1178 1.281 . S
O1189 Tb1161 2.409 . S
O1189 C1178 1.254 . S
O1190 Tb1161 2.378 . S
O1190 C1179 1.236 . S
O1191 Tb1160 2.341 . S
O1191 C1179 1.266 . S
H1192 C1164 0.929 . S
H1193 C1165 0.931 . S
H1194 C1167 0.930 . S
H1195 C1168 0.930 . S
H1196 C1173 0.929 . S
H1197 C1174 0.931 . S
H1198 C1176 0.930 . S
H1199 C1177 0.930 . S
Tb1200 C1202 2.809 . S
Tb1200 O1220 2.484 . S
Tb1200 O1221 2.440 . S
Tb1200 O1222 2.658 . S
Tb1200 O1223 2.409 . S
Tb1200 O1224 2.378 . S
Tb1200 O1228 2.325 . S
Tb1200 O1231 2.341 . S
Tb1201 C1211 2.809 . S
Tb1201 O1222 2.325 . S
Tb1201 O1225 2.341 . S
Tb1201 O1226 2.484 . S
Tb1201 O1227 2.440 . S
Tb1201 O1228 2.658 . S
Tb1201 O1229 2.409 . S
Tb1201 O1230 2.378 . S
C1202 Tb1200 2.809 . S
C1202 C1203 1.514 . S
C1202 O1220 1.248 . S
C1202 O1221 1.266 . S
C1203 C1202 1.514 . S
C1203 C1204 1.359 . S
C1203 C1208 1.348 . S
C1204 C1203 1.359 . S
C1204 C1205 1.380 . S
C1204 H1232 0.929 . S
C1205 C1204 1.380 . S
C1205 C1206 1.347 . S
C1205 H1233 0.931 . S
C1206 C1205 1.347 . S
C1206 C1207 1.369 . S
C1207 C1206 1.369 . S
C1207 C1208 1.408 . S
C1207 H1234 0.930 . S
C1208 C1203 1.348 . S
C1208 C1207 1.408 . S
C1208 H1235 0.930 . S
C1209 O1222 1.281 . S
C1209 O1223 1.254 . S
C1210 O1224 1.236 . S
C1210 O1225 1.266 . S
C1211 Tb1201 2.809 . S
C1211 C1212 1.514 . S
C1211 O1226 1.248 . S
C1211 O1227 1.266 . S
C1212 C1211 1.514 . S
C1212 C1213 1.359 . S
C1212 C1217 1.348 . S
C1213 C1212 1.359 . S
C1213 C1214 1.380 . S
C1213 H1236 0.929 . S
C1214 C1213 1.380 . S
C1214 C1215 1.347 . S
C1214 H1237 0.931 . S
C1215 C1214 1.347 . S
C1215 C1216 1.369 . S
C1216 C1215 1.369 . S
C1216 C1217 1.408 . S
C1216 H1238 0.930 . S
C1217 C1212 1.348 . S
C1217 C1216 1.408 . S
C1217 H1239 0.930 . S
C1218 O1228 1.281 . S
C1218 O1229 1.254 . S
C1219 O1230 1.236 . S
C1219 O1231 1.266 . S
O1220 Tb1200 2.484 . S
O1220 C1202 1.248 . S
O1221 Tb1200 2.440 . S
O1221 C1202 1.266 . S
O1222 Tb1200 2.658 . S
O1222 Tb1201 2.325 . S
O1222 C1209 1.281 . S
O1223 Tb1200 2.409 . S
O1223 C1209 1.254 . S
O1224 Tb1200 2.378 . S
O1224 C1210 1.236 . S
O1225 Tb1201 2.341 . S
O1225 C1210 1.266 . S
O1226 Tb1201 2.484 . S
O1226 C1211 1.248 . S
O1227 Tb1201 2.440 . S
O1227 C1211 1.266 . S
O1228 Tb1200 2.325 . S
O1228 Tb1201 2.658 . S
O1228 C1218 1.281 . S
O1229 Tb1201 2.409 . S
O1229 C1218 1.254 . S
O1230 Tb1201 2.378 . S
O1230 C1219 1.236 . S
O1231 Tb1200 2.341 . S
O1231 C1219 1.266 . S
H1232 C1204 0.929 . S
H1233 C1205 0.931 . S
H1234 C1207 0.930 . S
H1235 C1208 0.930 . S
H1236 C1213 0.929 . S
H1237 C1214 0.931 . S
H1238 C1216 0.930 . S
H1239 C1217 0.930 . S
Tb1240 C1242 2.809 . S
Tb1240 O1260 2.484 . S
Tb1240 O1261 2.440 . S
Tb1240 O1262 2.658 . S
Tb1240 O1263 2.409 . S
Tb1240 O1264 2.378 . S
Tb1240 O1268 2.325 . S
Tb1240 O1271 2.341 . S
Tb1241 C1251 2.809 . S
Tb1241 O1262 2.325 . S
Tb1241 O1265 2.341 . S
Tb1241 O1266 2.484 . S
Tb1241 O1267 2.440 . S
Tb1241 O1268 2.658 . S
Tb1241 O1269 2.409 . S
Tb1241 O1270 2.378 . S
C1242 Tb1240 2.809 . S
C1242 C1243 1.514 . S
C1242 O1260 1.248 . S
C1242 O1261 1.266 . S
C1243 C1242 1.514 . S
C1243 C1244 1.359 . S
C1243 C1248 1.348 . S
C1244 C1243 1.359 . S
C1244 C1245 1.380 . S
C1244 H1272 0.929 . S
C1245 C1244 1.380 . S
C1245 C1246 1.347 . S
C1245 H1273 0.931 . S
C1246 C1245 1.347 . S
C1246 C1247 1.369 . S
C1247 C1246 1.369 . S
C1247 C1248 1.408 . S
C1247 H1274 0.930 . S
C1248 C1243 1.348 . S
C1248 C1247 1.408 . S
C1248 H1275 0.930 . S
C1249 O1262 1.281 . S
C1249 O1263 1.254 . S
C1250 O1264 1.236 . S
C1250 O1265 1.266 . S
C1251 Tb1241 2.809 . S
C1251 C1252 1.514 . S
C1251 O1266 1.248 . S
C1251 O1267 1.266 . S
C1252 C1251 1.514 . S
C1252 C1253 1.359 . S
C1252 C1257 1.348 . S
C1253 C1252 1.359 . S
C1253 C1254 1.380 . S
C1253 H1276 0.929 . S
C1254 C1253 1.380 . S
C1254 C1255 1.347 . S
C1254 H1277 0.931 . S
C1255 C1254 1.347 . S
C1255 C1256 1.369 . S
C1256 C1255 1.369 . S
C1256 C1257 1.408 . S
C1256 H1278 0.930 . S
C1257 C1252 1.348 . S
C1257 C1256 1.408 . S
C1257 H1279 0.930 . S
C1258 O1268 1.281 . S
C1258 O1269 1.254 . S
C1259 O1270 1.236 . S
C1259 O1271 1.266 . S
O1260 Tb1240 2.484 . S
O1260 C1242 1.248 . S
O1261 Tb1240 2.440 . S
O1261 C1242 1.266 . S
O1262 Tb1240 2.658 . S
O1262 Tb1241 2.325 . S
O1262 C1249 1.281 . S
O1263 Tb1240 2.409 . S
O1263 C1249 1.254 . S
O1264 Tb1240 2.378 . S
O1264 C1250 1.236 . S
O1265 Tb1241 2.341 . S
O1265 C1250 1.266 . S
O1266 Tb1241 2.484 . S
O1266 C1251 1.248 . S
O1267 Tb1241 2.440 . S
O1267 C1251 1.266 . S
O1268 Tb1240 2.325 . S
O1268 Tb1241 2.658 . S
O1268 C1258 1.281 . S
O1269 Tb1241 2.409 . S
O1269 C1258 1.254 . S
O1270 Tb1241 2.378 . S
O1270 C1259 1.236 . S
O1271 Tb1240 2.341 . S
O1271 C1259 1.266 . S
H1272 C1244 0.929 . S
H1273 C1245 0.931 . S
H1274 C1247 0.930 . S
H1275 C1248 0.930 . S
H1276 C1253 0.929 . S
H1277 C1254 0.931 . S
H1278 C1256 0.930 . S
H1279 C1257 0.930 . S
Tb1280 C1282 2.809 . S
Tb1280 O1300 2.484 . S
Tb1280 O1301 2.440 . S
Tb1280 O1302 2.658 . S
Tb1280 O1303 2.409 . S
Tb1280 O1304 2.378 . S
Tb1280 O1308 2.325 . S
Tb1280 O1311 2.341 . S
Tb1281 C1291 2.809 . S
Tb1281 O1302 2.325 . S
Tb1281 O1305 2.341 . S
Tb1281 O1306 2.484 . S
Tb1281 O1307 2.440 . S
Tb1281 O1308 2.658 . S
Tb1281 O1309 2.409 . S
Tb1281 O1310 2.378 . S
C1282 Tb1280 2.809 . S
C1282 C1283 1.514 . S
C1282 O1300 1.248 . S
C1282 O1301 1.266 . S
C1283 C1282 1.514 . S
C1283 C1284 1.359 . S
C1283 C1288 1.348 . S
C1284 C1283 1.359 . S
C1284 C1285 1.380 1_655 S
C1284 H1312 0.929 . S
C1285 C1284 1.380 1_455 S
C1285 C1286 1.347 . S
C1285 H1313 0.931 . S
C1286 C1285 1.347 . S
C1286 C1287 1.369 . S
C1287 C1286 1.369 . S
C1287 C1288 1.408 1_455 S
C1287 H1314 0.930 . S
C1288 C1283 1.348 . S
C1288 C1287 1.408 1_655 S
C1288 H1315 0.930 . S
C1289 O1302 1.281 . S
C1289 O1303 1.254 . S
C1290 O1304 1.236 . S
C1290 O1305 1.266 . S
C1291 Tb1281 2.809 . S
C1291 C1292 1.514 . S
C1291 O1306 1.248 . S
C1291 O1307 1.266 . S
C1292 C1291 1.514 . S
C1292 C1293 1.359 . S
C1292 C1297 1.348 . S
C1293 C1292 1.359 . S
C1293 C1294 1.380 . S
C1293 H1316 0.929 . S
C1294 C1293 1.380 . S
C1294 C1295 1.347 . S
C1294 H1317 0.931 . S
C1295 C1294 1.347 . S
C1295 C1296 1.369 . S
C1296 C1295 1.369 . S
C1296 C1297 1.408 . S
C1296 H1318 0.930 . S
C1297 C1292 1.348 . S
C1297 C1296 1.408 . S
C1297 H1319 0.930 . S
C1298 O1308 1.281 . S
C1298 O1309 1.254 . S
C1299 O1310 1.236 . S
C1299 O1311 1.266 . S
O1300 Tb1280 2.484 . S
O1300 C1282 1.248 . S
O1301 Tb1280 2.440 . S
O1301 C1282 1.266 . S
O1302 Tb1280 2.658 . S
O1302 Tb1281 2.325 . S
O1302 C1289 1.281 . S
O1303 Tb1280 2.409 . S
O1303 C1289 1.254 . S
O1304 Tb1280 2.378 . S
O1304 C1290 1.236 . S
O1305 Tb1281 2.341 . S
O1305 C1290 1.266 . S
O1306 Tb1281 2.484 . S
O1306 C1291 1.248 . S
O1307 Tb1281 2.440 . S
O1307 C1291 1.266 . S
O1308 Tb1280 2.325 . S
O1308 Tb1281 2.658 . S
O1308 C1298 1.281 . S
O1309 Tb1281 2.409 . S
O1309 C1298 1.254 . S
O1310 Tb1281 2.378 . S
O1310 C1299 1.236 . S
O1311 Tb1280 2.341 . S
O1311 C1299 1.266 . S
H1312 C1284 0.929 . S
H1313 C1285 0.931 . S
H1314 C1287 0.930 . S
H1315 C1288 0.930 . S
H1316 C1293 0.929 . S
H1317 C1294 0.931 . S
H1318 C1296 0.930 . S
H1319 C1297 0.930 . S
Tb1320 C1322 2.809 . S
Tb1320 O1340 2.484 . S
Tb1320 O1341 2.440 . S
Tb1320 O1342 2.658 . S
Tb1320 O1343 2.409 . S
Tb1320 O1344 2.378 . S
Tb1320 O1348 2.325 . S
Tb1320 O1351 2.341 . S
Tb1321 C1331 2.809 . S
Tb1321 O1342 2.325 . S
Tb1321 O1345 2.341 . S
Tb1321 O1346 2.484 . S
Tb1321 O1347 2.440 . S
Tb1321 O1348 2.658 . S
Tb1321 O1349 2.409 . S
Tb1321 O1350 2.378 . S
C1322 Tb1320 2.809 . S
C1322 C1323 1.514 . S
C1322 O1340 1.248 . S
C1322 O1341 1.266 . S
C1323 C1322 1.514 . S
C1323 C1324 1.359 . S
C1323 C1328 1.348 . S
C1324 C1323 1.359 . S
C1324 C1325 1.380 . S
C1324 H1352 0.929 . S
C1325 C1324 1.380 . S
C1325 C1326 1.347 . S
C1325 H1353 0.931 . S
C1326 C1325 1.347 . S
C1326 C1327 1.369 . S
C1327 C1326 1.369 . S
C1327 C1328 1.408 . S
C1327 H1354 0.930 . S
C1328 C1323 1.348 . S
C1328 C1327 1.408 . S
C1328 H1355 0.930 . S
C1329 O1342 1.281 . S
C1329 O1343 1.254 . S
C1330 O1344 1.236 . S
C1330 O1345 1.266 . S
C1331 Tb1321 2.809 . S
C1331 C1332 1.514 . S
C1331 O1346 1.248 . S
C1331 O1347 1.266 . S
C1332 C1331 1.514 . S
C1332 C1333 1.359 . S
C1332 C1337 1.348 . S
C1333 C1332 1.359 . S
C1333 C1334 1.380 . S
C1333 H1356 0.929 . S
C1334 C1333 1.380 . S
C1334 C1335 1.347 . S
C1334 H1357 0.931 . S
C1335 C1334 1.347 . S
C1335 C1336 1.369 . S
C1336 C1335 1.369 . S
C1336 C1337 1.408 . S
C1336 H1358 0.930 . S
C1337 C1332 1.348 . S
C1337 C1336 1.408 . S
C1337 H1359 0.930 . S
C1338 O1348 1.281 . S
C1338 O1349 1.254 . S
C1339 O1350 1.236 . S
C1339 O1351 1.266 . S
O1340 Tb1320 2.484 . S
O1340 C1322 1.248 . S
O1341 Tb1320 2.440 . S
O1341 C1322 1.266 . S
O1342 Tb1320 2.658 . S
O1342 Tb1321 2.325 . S
O1342 C1329 1.281 . S
O1343 Tb1320 2.409 . S
O1343 C1329 1.254 . S
O1344 Tb1320 2.378 . S
O1344 C1330 1.236 . S
O1345 Tb1321 2.341 . S
O1345 C1330 1.266 . S
O1346 Tb1321 2.484 . S
O1346 C1331 1.248 . S
O1347 Tb1321 2.440 . S
O1347 C1331 1.266 . S
O1348 Tb1320 2.325 . S
O1348 Tb1321 2.658 . S
O1348 C1338 1.281 . S
O1349 Tb1321 2.409 . S
O1349 C1338 1.254 . S
O1350 Tb1321 2.378 . S
O1350 C1339 1.236 . S
O1351 Tb1320 2.341 . S
O1351 C1339 1.266 . S
H1352 C1324 0.929 . S
H1353 C1325 0.931 . S
H1354 C1327 0.930 . S
H1355 C1328 0.930 . S
H1356 C1333 0.929 . S
H1357 C1334 0.931 . S
H1358 C1336 0.930 . S
H1359 C1337 0.930 . S
Tb1360 C1362 2.809 . S
Tb1360 O1380 2.484 . S
Tb1360 O1381 2.440 . S
Tb1360 O1382 2.658 . S
Tb1360 O1383 2.409 . S
Tb1360 O1384 2.378 . S
Tb1360 O1388 2.325 . S
Tb1360 O1391 2.341 . S
Tb1361 C1371 2.809 . S
Tb1361 O1382 2.325 . S
Tb1361 O1385 2.341 . S
Tb1361 O1386 2.484 . S
Tb1361 O1387 2.440 . S
Tb1361 O1388 2.658 . S
Tb1361 O1389 2.409 . S
Tb1361 O1390 2.378 . S
C1362 Tb1360 2.809 . S
C1362 C1363 1.514 . S
C1362 O1380 1.248 . S
C1362 O1381 1.266 . S
C1363 C1362 1.514 . S
C1363 C1364 1.359 . S
C1363 C1368 1.348 . S
C1364 C1363 1.359 . S
C1364 C1365 1.380 . S
C1364 H1392 0.929 . S
C1365 C1364 1.380 . S
C1365 C1366 1.347 . S
C1365 H1393 0.931 . S
C1366 C1365 1.347 . S
C1366 C1367 1.369 . S
C1367 C1366 1.369 . S
C1367 C1368 1.408 . S
C1367 H1394 0.930 . S
C1368 C1363 1.348 . S
C1368 C1367 1.408 . S
C1368 H1395 0.930 . S
C1369 O1382 1.281 . S
C1369 O1383 1.254 . S
C1370 O1384 1.236 . S
C1370 O1385 1.266 . S
C1371 Tb1361 2.809 . S
C1371 C1372 1.514 . S
C1371 O1386 1.248 . S
C1371 O1387 1.266 . S
C1372 C1371 1.514 . S
C1372 C1373 1.359 . S
C1372 C1377 1.348 . S
C1373 C1372 1.359 . S
C1373 C1374 1.380 1_545 S
C1373 H1396 0.929 . S
C1374 C1373 1.380 1_565 S
C1374 C1375 1.347 . S
C1374 H1397 0.931 . S
C1375 C1374 1.347 . S
C1375 C1376 1.369 . S
C1376 C1375 1.369 . S
C1376 C1377 1.408 1_565 S
C1376 H1398 0.930 . S
C1377 C1372 1.348 . S
C1377 C1376 1.408 1_545 S
C1377 H1399 0.930 . S
C1378 O1388 1.281 . S
C1378 O1389 1.254 . S
C1379 O1390 1.236 . S
C1379 O1391 1.266 . S
O1380 Tb1360 2.484 . S
O1380 C1362 1.248 . S
O1381 Tb1360 2.440 . S
O1381 C1362 1.266 . S
O1382 Tb1360 2.658 . S
O1382 Tb1361 2.325 . S
O1382 C1369 1.281 . S
O1383 Tb1360 2.409 . S
O1383 C1369 1.254 . S
O1384 Tb1360 2.378 . S
O1384 C1370 1.236 . S
O1385 Tb1361 2.341 . S
O1385 C1370 1.266 . S
O1386 Tb1361 2.484 . S
O1386 C1371 1.248 . S
O1387 Tb1361 2.440 . S
O1387 C1371 1.266 . S
O1388 Tb1360 2.325 . S
O1388 Tb1361 2.658 . S
O1388 C1378 1.281 . S
O1389 Tb1361 2.409 . S
O1389 C1378 1.254 . S
O1390 Tb1361 2.378 . S
O1390 C1379 1.236 . S
O1391 Tb1360 2.341 . S
O1391 C1379 1.266 . S
H1392 C1364 0.929 . S
H1393 C1365 0.931 . S
H1394 C1367 0.930 . S
H1395 C1368 0.930 . S
H1396 C1373 0.929 . S
H1397 C1374 0.931 . S
H1398 C1376 0.930 . S
H1399 C1377 0.930 . S
Tb1400 C1402 2.809 . S
Tb1400 O1420 2.484 . S
Tb1400 O1421 2.440 . S
Tb1400 O1422 2.658 . S
Tb1400 O1423 2.409 . S
Tb1400 O1424 2.378 . S
Tb1400 O1428 2.325 . S
Tb1400 O1431 2.341 . S
Tb1401 C1411 2.809 . S
Tb1401 O1422 2.325 . S
Tb1401 O1425 2.341 . S
Tb1401 O1426 2.484 . S
Tb1401 O1427 2.440 . S
Tb1401 O1428 2.658 . S
Tb1401 O1429 2.409 . S
Tb1401 O1430 2.378 . S
C1402 Tb1400 2.809 . S
C1402 C1403 1.514 . S
C1402 O1420 1.248 . S
C1402 O1421 1.266 . S
C1403 C1402 1.514 . S
C1403 C1404 1.359 . S
C1403 C1408 1.348 . S
C1404 C1403 1.359 . S
C1404 C1405 1.380 . S
C1404 H1432 0.929 . S
C1405 C1404 1.380 . S
C1405 C1406 1.347 . S
C1405 H1433 0.931 . S
C1406 C1405 1.347 . S
C1406 C1407 1.369 . S
C1407 C1406 1.369 . S
C1407 C1408 1.408 . S
C1407 H1434 0.930 . S
C1408 C1403 1.348 . S
C1408 C1407 1.408 . S
C1408 H1435 0.930 . S
C1409 O1422 1.281 . S
C1409 O1423 1.254 . S
C1410 O1424 1.236 . S
C1410 O1425 1.266 . S
C1411 Tb1401 2.809 . S
C1411 C1412 1.514 1_655 S
C1411 O1426 1.248 . S
C1411 O1427 1.266 . S
C1412 C1411 1.514 1_455 S
C1412 C1413 1.359 . S
C1412 C1417 1.348 . S
C1413 C1412 1.359 . S
C1413 C1414 1.380 . S
C1413 H1436 0.929 . S
C1414 C1413 1.380 . S
C1414 C1415 1.347 . S
C1414 H1437 0.931 . S
C1415 C1414 1.347 . S
C1415 C1416 1.369 . S
C1416 C1415 1.369 . S
C1416 C1417 1.408 . S
C1416 H1438 0.930 . S
C1417 C1412 1.348 . S
C1417 C1416 1.408 . S
C1417 H1439 0.930 . S
C1418 O1428 1.281 . S
C1418 O1429 1.254 . S
C1419 O1430 1.236 . S
C1419 O1431 1.266 . S
O1420 Tb1400 2.484 . S
O1420 C1402 1.248 . S
O1421 Tb1400 2.440 . S
O1421 C1402 1.266 . S
O1422 Tb1400 2.658 . S
O1422 Tb1401 2.325 . S
O1422 C1409 1.281 . S
O1423 Tb1400 2.409 . S
O1423 C1409 1.254 . S
O1424 Tb1400 2.378 . S
O1424 C1410 1.236 . S
O1425 Tb1401 2.341 . S
O1425 C1410 1.266 . S
O1426 Tb1401 2.484 . S
O1426 C1411 1.248 . S
O1427 Tb1401 2.440 . S
O1427 C1411 1.266 . S
O1428 Tb1400 2.325 . S
O1428 Tb1401 2.658 . S
O1428 C1418 1.281 . S
O1429 Tb1401 2.409 . S
O1429 C1418 1.254 . S
O1430 Tb1401 2.378 . S
O1430 C1419 1.236 . S
O1431 Tb1400 2.341 . S
O1431 C1419 1.266 . S
H1432 C1404 0.929 . S
H1433 C1405 0.931 . S
H1434 C1407 0.930 . S
H1435 C1408 0.930 . S
H1436 C1413 0.929 . S
H1437 C1414 0.931 . S
H1438 C1416 0.930 . S
H1439 C1417 0.930 . S
H1440 C1448 0.950 . S
H1441 C1453 0.950 . S
H1442 C1450 0.950 . S
H1443 C1452 0.950 . S
H1444 C1454 0.950 . S
H1445 C1456 0.950 . S
H1446 C1458 0.950 . S
H1447 C1459 0.950 . S
C1448 H1440 0.950 . S
C1448 C1449 1.386 . S
C1448 C1450 1.391 . S
C1449 C1448 1.386 . S
C1449 C1453 1.393 . S
C1450 H1442 0.950 . S
C1450 C1448 1.391 . S
C1450 C1451 1.400 . S
C1451 C1450 1.400 . S
C1451 C1452 1.398 . S
C1451 C1457 1.491 . S
C1452 H1443 0.950 . S
C1452 C1451 1.398 . S
C1452 C1453 1.391 . S
C1453 H1441 0.950 . S
C1453 C1449 1.393 . S
C1453 C1452 1.391 . S
C1454 H1444 0.950 . S
C1454 C1455 1.386 . S
C1454 C1456 1.391 . S
C1455 C1454 1.386 . S
C1455 C1459 1.393 . S
C1456 H1445 0.950 . S
C1456 C1454 1.391 . S
C1456 C1457 1.400 . S
C1457 C1451 1.491 . S
C1457 C1456 1.400 . S
C1457 C1458 1.398 . S
C1458 H1446 0.950 . S
C1458 C1457 1.398 . S
C1458 C1459 1.391 . S
C1459 H1447 0.950 . S
C1459 C1455 1.393 . S
C1459 C1458 1.391 . S
H1460 C1468 0.950 . S
H1461 C1473 0.950 . S
H1462 C1470 0.950 . S
H1463 C1472 0.950 . S
H1464 C1474 0.950 . S
H1465 C1476 0.950 . S
H1466 C1478 0.950 . S
H1467 C1479 0.957 . S
C1468 H1460 0.950 . S
C1468 C1469 1.386 . S
C1468 C1470 1.391 . S
C1469 C1468 1.386 . S
C1469 C1473 1.393 . S
C1470 H1462 0.950 . S
C1470 C1468 1.391 . S
C1470 C1471 1.400 . S
C1471 C1470 1.400 . S
C1471 C1472 1.398 . S
C1471 C1477 1.491 . S
C1472 H1463 0.950 . S
C1472 C1471 1.398 . S
C1472 C1473 1.391 . S
C1473 H1461 0.950 . S
C1473 C1469 1.393 . S
C1473 C1472 1.391 . S
C1474 H1464 0.950 . S
C1474 C1475 1.386 . S
C1474 C1476 1.391 . S
C1475 C1474 1.386 . S
C1475 C1479 1.393 . S
C1476 H1465 0.950 . S
C1476 C1474 1.391 . S
C1476 C1477 1.400 . S
C1477 C1471 1.491 . S
C1477 C1476 1.400 . S
C1477 C1478 1.398 . S
C1478 H1466 0.950 . S
C1478 C1477 1.398 . S
C1478 C1479 1.391 . S
C1479 H1467 0.957 . S
C1479 C1475 1.393 . S
C1479 C1478 1.391 . S
H1480 C1488 0.950 . S
H1481 C1493 0.950 . S
H1482 C1490 0.950 . S
H1483 C1492 0.950 . S
H1484 C1494 0.950 . S
H1485 C1496 0.950 . S
H1486 C1498 0.950 . S
H1487 C1499 0.950 . S
C1488 H1480 0.950 . S
C1488 C1489 1.386 . S
C1488 C1490 1.391 . S
C1489 C1488 1.386 . S
C1489 C1493 1.393 . S
C1490 H1482 0.950 . S
C1490 C1488 1.391 . S
C1490 C1491 1.400 . S
C1491 C1490 1.400 . S
C1491 C1492 1.398 . S
C1491 C1497 1.491 . S
C1492 H1483 0.950 . S
C1492 C1491 1.398 . S
C1492 C1493 1.391 . S
C1493 H1481 0.950 . S
C1493 C1489 1.393 . S
C1493 C1492 1.391 . S
C1494 H1484 0.950 . S
C1494 C1495 1.386 . S
C1494 C1496 1.391 . S
C1495 C1494 1.386 . S
C1495 C1499 1.393 . S
C1496 H1485 0.950 . S
C1496 C1494 1.391 . S
C1496 C1497 1.400 . S
C1497 C1491 1.491 . S
C1497 C1496 1.400 . S
C1497 C1498 1.398 . S
C1498 H1486 0.950 . S
C1498 C1497 1.398 . S
C1498 C1499 1.391 . S
C1499 H1487 0.950 . S
C1499 C1495 1.393 . S
C1499 C1498 1.391 . S
H1500 C1508 0.950 . S
H1501 C1513 0.950 . S
H1502 C1510 0.950 . S
H1503 C1512 0.950 . S
H1504 C1514 0.950 . S
H1505 C1516 0.950 . S
H1506 C1518 0.950 . S
H1507 C1519 0.950 . S
C1508 H1500 0.950 . S
C1508 C1509 1.386 . S
C1508 C1510 1.391 . S
C1509 C1508 1.386 . S
C1509 C1513 1.393 . S
C1510 H1502 0.950 . S
C1510 C1508 1.391 . S
C1510 C1511 1.400 . S
C1511 C1510 1.400 . S
C1511 C1512 1.398 . S
C1511 C1517 1.491 . S
C1512 H1503 0.950 . S
C1512 C1511 1.398 . S
C1512 C1513 1.391 . S
C1513 H1501 0.950 . S
C1513 C1509 1.393 . S
C1513 C1512 1.391 . S
C1514 H1504 0.950 . S
C1514 C1515 1.386 . S
C1514 C1516 1.391 . S
C1515 C1514 1.386 . S
C1515 C1519 1.393 . S
C1516 H1505 0.950 . S
C1516 C1514 1.391 . S
C1516 C1517 1.400 . S
C1517 C1511 1.491 . S
C1517 C1516 1.400 . S
C1517 C1518 1.398 . S
C1518 H1506 0.950 . S
C1518 C1517 1.398 . S
C1518 C1519 1.391 . S
C1519 H1507 0.950 . S
C1519 C1515 1.393 . S
C1519 C1518 1.391 . S
H1520 C1528 0.950 . S
H1521 C1533 0.950 . S
H1522 C1530 0.950 . S
H1523 C1532 0.950 . S
H1524 C1534 0.950 . S
H1525 C1536 0.950 . S
H1526 C1538 0.950 . S
H1527 C1539 0.950 . S
C1528 H1520 0.950 . S
C1528 C1529 1.386 . S
C1528 C1530 1.391 . S
C1529 C1528 1.386 . S
C1529 C1533 1.393 . S
C1530 H1522 0.950 . S
C1530 C1528 1.391 . S
C1530 C1531 1.400 . S
C1531 C1530 1.400 . S
C1531 C1532 1.398 . S
C1531 C1537 1.491 . S
C1532 H1523 0.950 . S
C1532 C1531 1.398 . S
C1532 C1533 1.391 . S
C1533 H1521 0.950 . S
C1533 C1529 1.393 . S
C1533 C1532 1.391 . S
C1534 H1524 0.950 . S
C1534 C1535 1.386 . S
C1534 C1536 1.391 . S
C1535 C1534 1.386 . S
C1535 C1539 1.393 . S
C1536 H1525 0.950 . S
C1536 C1534 1.391 . S
C1536 C1537 1.400 . S
C1537 C1531 1.491 . S
C1537 C1536 1.400 . S
C1537 C1538 1.398 . S
C1538 H1526 0.950 . S
C1538 C1537 1.398 . S
C1538 C1539 1.391 . S
C1539 H1527 0.950 . S
C1539 C1535 1.393 . S
C1539 C1538 1.391 . S
H1540 C1548 0.950 . S
H1541 C1553 0.950 . S
H1542 C1550 0.950 . S
H1543 C1552 0.950 . S
H1544 C1554 0.950 . S
H1545 C1556 0.950 . S
H1546 C1558 0.950 . S
H1547 C1559 0.950 1_545 S
C1548 H1540 0.950 . S
C1548 C1549 1.386 . S
C1548 C1550 1.391 . S
C1549 C1548 1.386 . S
C1549 C1553 1.393 . S
C1550 H1542 0.950 . S
C1550 C1548 1.391 . S
C1550 C1551 1.400 . S
C1551 C1550 1.400 . S
C1551 C1552 1.398 . S
C1551 C1557 1.491 . S
C1552 H1543 0.950 . S
C1552 C1551 1.398 . S
C1552 C1553 1.391 . S
C1553 H1541 0.950 . S
C1553 C1549 1.393 . S
C1553 C1552 1.391 . S
C1554 H1544 0.950 . S
C1554 C1555 1.386 . S
C1554 C1556 1.391 . S
C1555 C1554 1.386 . S
C1555 C1559 1.393 . S
C1556 H1545 0.950 . S
C1556 C1554 1.391 . S
C1556 C1557 1.400 . S
C1557 C1551 1.491 . S
C1557 C1556 1.400 . S
C1557 C1558 1.398 . S
C1558 H1546 0.950 . S
C1558 C1557 1.398 . S
C1558 C1559 1.391 . S
C1559 H1547 0.950 1_565 S
C1559 C1555 1.393 . S
C1559 C1558 1.391 . S
H1560 C1568 0.950 . S
H1561 C1573 0.950 1_545 S
H1562 C1570 0.950 . S
H1563 C1572 0.950 . S
H1564 C1574 0.950 . S
H1565 C1576 0.950 . S
H1566 C1578 0.950 . S
H1567 C1579 0.950 . S
C1568 H1560 0.950 . S
C1568 C1569 1.386 . S
C1568 C1570 1.391 . S
C1569 C1568 1.386 . S
C1569 C1573 1.393 . S
C1570 H1562 0.950 . S
C1570 C1568 1.391 . S
C1570 C1571 1.400 . S
C1571 C1570 1.400 . S
C1571 C1572 1.398 . S
C1571 C1577 1.491 . S
C1572 H1563 0.950 . S
C1572 C1571 1.398 . S
C1572 C1573 1.391 . S
C1573 H1561 0.950 1_565 S
C1573 C1569 1.393 . S
C1573 C1572 1.391 . S
C1574 H1564 0.950 . S
C1574 C1575 1.386 . S
C1574 C1576 1.391 . S
C1575 C1574 1.386 . S
C1575 C1579 1.393 . S
C1576 H1565 0.950 . S
C1576 C1574 1.391 . S
C1576 C1577 1.400 . S
C1577 C1571 1.491 . S
C1577 C1576 1.400 . S
C1577 C1578 1.398 . S
C1578 H1566 0.950 . S
C1578 C1577 1.398 . S
C1578 C1579 1.391 . S
C1579 H1567 0.950 . S
C1579 C1575 1.393 . S
C1579 C1578 1.391 . S
H1580 C1588 0.950 . S
H1581 C1593 0.950 . S
H1582 C1590 0.950 . S
H1583 C1592 0.950 . S
H1584 C1594 0.950 . S
H1585 C1596 0.950 . S
H1586 C1598 0.950 . S
H1587 C1599 0.950 . S
C1588 H1580 0.950 . S
C1588 C1589 1.386 . S
C1588 C1590 1.391 . S
C1589 C1588 1.386 . S
C1589 C1593 1.393 . S
C1590 H1582 0.950 . S
C1590 C1588 1.391 . S
C1590 C1591 1.400 . S
C1591 C1590 1.400 . S
C1591 C1592 1.398 . S
C1591 C1597 1.491 . S
C1592 H1583 0.950 . S
C1592 C1591 1.398 . S
C1592 C1593 1.391 . S
C1593 H1581 0.950 . S
C1593 C1589 1.393 . S
C1593 C1592 1.391 . S
C1594 H1584 0.950 . S
C1594 C1595 1.386 . S
C1594 C1596 1.391 . S
C1595 C1594 1.386 . S
C1595 C1599 1.393 . S
C1596 H1585 0.950 . S
C1596 C1594 1.391 . S
C1596 C1597 1.400 . S
C1597 C1591 1.491 . S
C1597 C1596 1.400 . S
C1597 C1598 1.398 . S
C1598 H1586 0.950 . S
C1598 C1597 1.398 . S
C1598 C1599 1.391 . S
C1599 H1587 0.950 . S
C1599 C1595 1.393 . S
C1599 C1598 1.391 . S
H1600 C1608 0.950 . S
H1601 C1613 0.950 . S
H1602 C1610 0.950 . S
H1603 C1612 0.950 . S
H1604 C1614 0.950 . S
H1605 C1616 0.950 . S
H1606 C1618 0.950 . S
H1607 C1619 0.950 . S
C1608 H1600 0.950 . S
C1608 C1609 1.386 . S
C1608 C1610 1.391 . S
C1609 C1608 1.386 . S
C1609 C1613 1.393 . S
C1610 H1602 0.950 . S
C1610 C1608 1.391 . S
C1610 C1611 1.400 . S
C1611 C1610 1.400 . S
C1611 C1612 1.398 . S
C1611 C1617 1.491 . S
C1612 H1603 0.950 . S
C1612 C1611 1.398 . S
C1612 C1613 1.391 . S
C1613 H1601 0.950 . S
C1613 C1609 1.393 . S
C1613 C1612 1.391 . S
C1614 H1604 0.950 . S
C1614 C1615 1.386 . S
C1614 C1616 1.391 . S
C1615 C1614 1.386 . S
C1615 C1619 1.393 . S
C1616 H1605 0.950 . S
C1616 C1614 1.391 . S
C1616 C1617 1.400 . S
C1617 C1611 1.491 . S
C1617 C1616 1.400 . S
C1617 C1618 1.398 . S
C1618 H1606 0.950 . S
C1618 C1617 1.398 . S
C1618 C1619 1.391 . S
C1619 H1607 0.950 . S
C1619 C1615 1.393 . S
C1619 C1618 1.391 . S
H1620 C1628 0.950 . S
H1621 C1633 0.950 . S
H1622 C1630 0.950 . S
H1623 C1632 0.950 . S
H1624 C1634 0.950 . S
H1625 C1636 0.950 1_455 S
H1626 C1638 0.950 . S
H1627 C1639 0.950 . S
C1628 H1620 0.950 . S
C1628 C1629 1.386 . S
C1628 C1630 1.391 . S
C1629 C1628 1.386 . S
C1629 C1633 1.393 . S
C1630 H1622 0.950 . S
C1630 C1628 1.391 . S
C1630 C1631 1.400 . S
C1631 C1630 1.400 . S
C1631 C1632 1.398 . S
C1631 C1637 1.491 . S
C1632 H1623 0.950 . S
C1632 C1631 1.398 . S
C1632 C1633 1.391 . S
C1633 H1621 0.950 . S
C1633 C1629 1.393 . S
C1633 C1632 1.391 . S
C1634 H1624 0.950 . S
C1634 C1635 1.386 1_455 S
C1634 C1636 1.391 1_455 S
C1635 C1634 1.386 1_655 S
C1635 C1639 1.393 . S
C1636 H1625 0.950 1_655 S
C1636 C1634 1.391 1_655 S
C1636 C1637 1.400 . S
C1637 C1631 1.491 . S
C1637 C1636 1.400 . S
C1637 C1638 1.398 . S
C1638 H1626 0.950 . S
C1638 C1637 1.398 . S
C1638 C1639 1.391 . S
C1639 H1627 0.950 . S
C1639 C1635 1.393 . S
C1639 C1638 1.391 . S
H1640 C1648 0.950 . S
H1641 C1653 0.950 . S
H1642 C1650 0.950 . S
H1643 C1652 0.950 . S
H1644 C1654 0.950 . S
H1645 C1656 0.950 . S
H1646 C1658 0.950 . S
H1647 C1659 0.950 . S
C1648 H1640 0.950 . S
C1648 C1649 1.386 . S
C1648 C1650 1.391 . S
C1649 C1648 1.386 . S
C1649 C1653 1.393 . S
C1650 H1642 0.950 . S
C1650 C1648 1.391 . S
C1650 C1651 1.400 . S
C1651 C1650 1.400 . S
C1651 C1652 1.398 . S
C1651 C1657 1.491 . S
C1652 H1643 0.950 . S
C1652 C1651 1.398 . S
C1652 C1653 1.391 . S
C1653 H1641 0.950 . S
C1653 C1649 1.393 . S
C1653 C1652 1.391 . S
C1654 H1644 0.950 . S
C1654 C1655 1.386 . S
C1654 C1656 1.391 . S
C1655 C1654 1.386 . S
C1655 C1659 1.393 . S
C1656 H1645 0.950 . S
C1656 C1654 1.391 . S
C1656 C1657 1.400 . S
C1657 C1651 1.491 . S
C1657 C1656 1.400 . S
C1657 C1658 1.398 . S
C1658 H1646 0.950 . S
C1658 C1657 1.398 . S
C1658 C1659 1.391 . S
C1659 H1647 0.950 . S
C1659 C1655 1.393 . S
C1659 C1658 1.391 . S
H1660 C1668 0.950 . S
H1661 C1673 0.950 . S
H1662 C1670 0.950 . S
H1663 C1672 0.950 . S
H1664 C1674 0.950 . S
H1665 C1676 0.950 . S
H1666 C1678 0.950 . S
H1667 C1679 0.950 . S
C1668 H1660 0.950 . S
C1668 C1669 1.386 . S
C1668 C1670 1.391 . S
C1669 C1668 1.386 . S
C1669 C1673 1.393 . S
C1670 H1662 0.950 . S
C1670 C1668 1.391 . S
C1670 C1671 1.400 . S
C1671 C1670 1.400 . S
C1671 C1672 1.398 . S
C1671 C1677 1.491 . S
C1672 H1663 0.950 . S
C1672 C1671 1.398 . S
C1672 C1673 1.391 . S
C1673 H1661 0.950 . S
C1673 C1669 1.393 . S
C1673 C1672 1.391 . S
C1674 H1664 0.950 . S
C1674 C1675 1.386 . S
C1674 C1676 1.391 . S
C1675 C1674 1.386 . S
C1675 C1679 1.393 . S
C1676 H1665 0.950 . S
C1676 C1674 1.391 . S
C1676 C1677 1.400 . S
C1677 C1671 1.491 . S
C1677 C1676 1.400 . S
C1677 C1678 1.398 . S
C1678 H1666 0.950 . S
C1678 C1677 1.398 . S
C1678 C1679 1.391 . S
C1679 H1667 0.950 . S
C1679 C1675 1.393 . S
C1679 C1678 1.391 . S
H1680 C1688 0.950 . S
H1681 C1693 0.950 . S
H1682 C1690 0.950 . S
H1683 C1692 0.950 . S
H1684 C1694 0.950 . S
H1685 C1696 0.950 . S
H1686 C1698 0.950 . S
H1687 C1699 0.950 . S
C1688 H1680 0.950 . S
C1688 C1689 1.386 . S
C1688 C1690 1.391 . S
C1689 C1688 1.386 . S
C1689 C1693 1.393 . S
C1690 H1682 0.950 . S
C1690 C1688 1.391 . S
C1690 C1691 1.400 . S
C1691 C1690 1.400 . S
C1691 C1692 1.398 . S
C1691 C1697 1.491 . S
C1692 H1683 0.950 . S
C1692 C1691 1.398 . S
C1692 C1693 1.391 . S
C1693 H1681 0.950 . S
C1693 C1689 1.393 . S
C1693 C1692 1.391 . S
C1694 H1684 0.950 . S
C1694 C1695 1.386 . S
C1694 C1696 1.391 . S
C1695 C1694 1.386 . S
C1695 C1699 1.393 . S
C1696 H1685 0.950 . S
C1696 C1694 1.391 . S
C1696 C1697 1.400 . S
C1697 C1691 1.491 . S
C1697 C1696 1.400 . S
C1697 C1698 1.398 . S
C1698 H1686 0.950 . S
C1698 C1697 1.398 . S
C1698 C1699 1.391 . S
C1699 H1687 0.950 . S
C1699 C1695 1.393 . S
C1699 C1698 1.391 . S
H1700 C1708 0.950 . S
H1701 C1713 0.950 . S
H1702 C1710 0.950 1_545 S
H1703 C1712 0.950 . S
H1704 C1714 0.950 . S
H1705 C1716 0.950 . S
H1706 C1718 0.950 . S
H1707 C1719 0.950 . S
C1708 H1700 0.950 . S
C1708 C1709 1.386 . S
C1708 C1710 1.391 . S
C1709 C1708 1.386 . S
C1709 C1713 1.393 . S
C1710 H1702 0.950 1_565 S
C1710 C1708 1.391 . S
C1710 C1711 1.400 1_565 S
C1711 C1710 1.400 1_545 S
C1711 C1712 1.398 1_545 S
C1711 C1717 1.491 . S
C1712 H1703 0.950 . S
C1712 C1711 1.398 1_565 S
C1712 C1713 1.391 . S
C1713 H1701 0.950 . S
C1713 C1709 1.393 . S
C1713 C1712 1.391 . S
C1714 H1704 0.950 . S
C1714 C1715 1.386 . S
C1714 C1716 1.391 . S
C1715 C1714 1.386 . S
C1715 C1719 1.393 . S
C1716 H1705 0.950 . S
C1716 C1714 1.391 . S
C1716 C1717 1.400 . S
C1717 C1711 1.491 . S
C1717 C1716 1.400 . S
C1717 C1718 1.398 . S
C1718 H1706 0.950 . S
C1718 C1717 1.398 . S
C1718 C1719 1.391 . S
C1719 H1707 0.950 . S
C1719 C1715 1.393 . S
C1719 C1718 1.391 . S
H1720 C1728 0.950 . S
H1721 C1733 0.950 . S
H1722 C1730 0.950 . S
H1723 C1732 0.950 . S
H1724 C1734 0.950 . S
H1725 C1736 0.950 . S
H1726 C1738 0.950 . S
H1727 C1739 0.950 . S
C1728 H1720 0.950 . S
C1728 C1729 1.386 . S
C1728 C1730 1.391 . S
C1729 C1728 1.386 . S
C1729 C1733 1.393 . S
C1730 H1722 0.950 . S
C1730 C1728 1.391 . S
C1730 C1731 1.400 1_655 S
C1731 C1730 1.400 1_455 S
C1731 C1732 1.398 . S
C1731 C1737 1.491 . S
C1732 H1723 0.950 . S
C1732 C1731 1.398 . S
C1732 C1733 1.391 1_455 S
C1733 H1721 0.950 . S
C1733 C1729 1.393 . S
C1733 C1732 1.391 1_655 S
C1734 H1724 0.950 . S
C1734 C1735 1.386 . S
C1734 C1736 1.391 . S
C1735 C1734 1.386 . S
C1735 C1739 1.393 . S
C1736 H1725 0.950 . S
C1736 C1734 1.391 . S
C1736 C1737 1.400 . S
C1737 C1731 1.491 . S
C1737 C1736 1.400 . S
C1737 C1738 1.398 . S
C1738 H1726 0.950 . S
C1738 C1737 1.398 . S
C1738 C1739 1.391 . S
C1739 H1727 0.950 . S
C1739 C1735 1.393 . S
C1739 C1738 1.391 . S
H1740 C1748 0.950 . S
H1741 C1753 0.950 . S
H1742 C1750 0.950 . S
H1743 C1752 0.950 . S
H1744 C1754 0.950 . S
H1745 C1756 0.950 . S
H1746 C1758 0.950 . S
H1747 C1759 0.950 . S
C1748 H1740 0.950 . S
C1748 C1749 1.386 . S
C1748 C1750 1.391 . S
C1749 C1748 1.386 . S
C1749 C1753 1.393 . S
C1750 H1742 0.950 . S
C1750 C1748 1.391 . S
C1750 C1751 1.400 . S
C1751 C1750 1.400 . S
C1751 C1752 1.398 . S
C1751 C1757 1.491 . S
C1752 H1743 0.950 . S
C1752 C1751 1.398 . S
C1752 C1753 1.391 . S
C1753 H1741 0.950 . S
C1753 C1749 1.393 . S
C1753 C1752 1.391 . S
C1754 H1744 0.950 . S
C1754 C1755 1.386 . S
C1754 C1756 1.391 . S
C1755 C1754 1.386 . S
C1755 C1759 1.393 . S
C1756 H1745 0.950 . S
C1756 C1754 1.391 . S
C1756 C1757 1.400 . S
C1757 C1751 1.491 . S
C1757 C1756 1.400 . S
C1757 C1758 1.398 . S
C1758 H1746 0.950 . S
C1758 C1757 1.398 . S
C1758 C1759 1.391 . S
C1759 H1747 0.950 . S
C1759 C1755 1.393 . S
C1759 C1758 1.391 . S
H1760 C1768 0.950 . S
H1761 C1773 0.950 . S
H1762 C1770 0.950 . S
H1763 C1772 0.950 . S
H1764 C1774 0.950 . S
H1765 C1776 0.950 . S
H1766 C1778 0.950 . S
H1767 C1779 0.950 . S
C1768 H1760 0.950 . S
C1768 C1769 1.386 . S
C1768 C1770 1.391 . S
C1769 C1768 1.386 . S
C1769 C1773 1.393 . S
C1770 H1762 0.950 . S
C1770 C1768 1.391 . S
C1770 C1771 1.400 1_565 S
C1771 C1770 1.400 1_545 S
C1771 C1772 1.398 . S
C1771 C1777 1.491 . S
C1772 H1763 0.950 . S
C1772 C1771 1.398 . S
C1772 C1773 1.391 1_545 S
C1773 H1761 0.950 . S
C1773 C1769 1.393 . S
C1773 C1772 1.391 1_565 S
C1774 H1764 0.950 . S
C1774 C1775 1.386 . S
C1774 C1776 1.391 . S
C1775 C1774 1.386 . S
C1775 C1779 1.393 . S
C1776 H1765 0.950 . S
C1776 C1774 1.391 . S
C1776 C1777 1.400 . S
C1777 C1771 1.491 . S
C1777 C1776 1.400 . S
C1777 C1778 1.398 . S
C1778 H1766 0.950 . S
C1778 C1777 1.398 . S
C1778 C1779 1.391 . S
C1779 H1767 0.950 . S
C1779 C1775 1.393 . S
C1779 C1778 1.391 . S
H1780 C1788 0.950 . S
H1781 C1793 0.950 . S
H1782 C1790 0.950 . S
H1783 C1792 0.950 . S
H1784 C1794 0.950 . S
H1785 C1796 0.950 . S
H1786 C1798 0.950 . S
H1787 C1799 0.950 . S
C1788 H1780 0.950 . S
C1788 C1789 1.386 . S
C1788 C1790 1.391 1_655 S
C1789 C1788 1.386 . S
C1789 C1793 1.393 . S
C1790 H1782 0.950 . S
C1790 C1788 1.391 1_455 S
C1790 C1791 1.400 . S
C1791 C1790 1.400 . S
C1791 C1792 1.398 1_455 S
C1791 C1797 1.491 . S
C1792 H1783 0.950 . S
C1792 C1791 1.398 1_655 S
C1792 C1793 1.391 . S
C1793 H1781 0.950 . S
C1793 C1789 1.393 . S
C1793 C1792 1.391 . S
C1794 H1784 0.950 . S
C1794 C1795 1.386 . S
C1794 C1796 1.391 . S
C1795 C1794 1.386 . S
C1795 C1799 1.393 . S
C1796 H1785 0.950 . S
C1796 C1794 1.391 . S
C1796 C1797 1.400 . S
C1797 C1791 1.491 . S
C1797 C1796 1.400 . S
C1797 C1798 1.398 . S
C1798 H1786 0.950 . S
C1798 C1797 1.398 . S
C1798 C1799 1.391 . S
C1799 H1787 0.950 . S
C1799 C1795 1.393 . S
C1799 C1798 1.391 . S
H1800 C1808 0.950 . S
H1801 C1813 0.950 . S
H1802 C1810 0.950 . S
H1803 C1812 0.950 . S
H1804 C1814 0.950 . S
H1805 C1816 0.950 . S
H1806 C1818 0.950 . S
H1807 C1819 0.950 . S
C1808 H1800 0.950 . S
C1808 C1809 1.386 . S
C1808 C1810 1.391 . S
C1809 C1808 1.386 . S
C1809 C1813 1.393 . S
C1810 H1802 0.950 . S
C1810 C1808 1.391 . S
C1810 C1811 1.400 . S
C1811 C1810 1.400 . S
C1811 C1812 1.398 . S
C1811 C1817 1.491 1_554 S
C1812 H1803 0.950 . S
C1812 C1811 1.398 . S
C1812 C1813 1.391 . S
C1813 H1801 0.950 . S
C1813 C1809 1.393 . S
C1813 C1812 1.391 . S
C1814 H1804 0.950 . S
C1814 C1815 1.386 . S
C1814 C1816 1.391 . S
C1815 C1814 1.386 . S
C1815 C1819 1.393 . S
C1816 H1805 0.950 . S
C1816 C1814 1.391 . S
C1816 C1817 1.400 . S
C1817 C1811 1.491 1_556 S
C1817 C1816 1.400 . S
C1817 C1818 1.398 . S
C1818 H1806 0.950 . S
C1818 C1817 1.398 . S
C1818 C1819 1.391 . S
C1819 H1807 0.950 . S
C1819 C1815 1.393 . S
C1819 C1818 1.391 . S
H1820 C1828 0.950 . S
H1821 C1833 0.950 . S
H1822 C1830 0.950 . S
H1823 C1832 0.950 . S
H1824 C1834 0.950 . S
H1825 C1836 0.950 . S
H1826 C1838 0.950 . S
H1827 C1839 0.950 . S
C1828 H1820 0.950 . S
C1828 C1829 1.386 . S
C1828 C1830 1.391 . S
C1829 C1828 1.386 . S
C1829 C1833 1.393 1_455 S
C1830 H1822 0.950 . S
C1830 C1828 1.391 . S
C1830 C1831 1.400 . S
C1831 C1830 1.400 . S
C1831 C1832 1.398 1_455 S
C1831 C1837 1.491 1_556 S
C1832 H1823 0.950 . S
C1832 C1831 1.398 1_655 S
C1832 C1833 1.391 . S
C1833 H1821 0.950 . S
C1833 C1829 1.393 1_655 S
C1833 C1832 1.391 . S
C1834 H1824 0.950 . S
C1834 C1835 1.386 1_655 S
C1834 C1836 1.391 . S
C1835 C1834 1.386 1_455 S
C1835 C1839 1.393 . S
C1836 H1825 0.950 . S
C1836 C1834 1.391 . S
C1836 C1837 1.400 1_655 S
C1837 C1831 1.491 1_554 S
C1837 C1836 1.400 1_455 S
C1837 C1838 1.398 . S
C1838 H1826 0.950 . S
C1838 C1837 1.398 . S
C1838 C1839 1.391 . S
C1839 H1827 0.950 . S
C1839 C1835 1.393 . S
C1839 C1838 1.391 . S
H1840 C1848 0.950 . S
H1841 C1853 0.950 . S
H1842 C1850 0.950 . S
H1843 C1852 0.950 . S
H1844 C1854 0.950 . S
H1845 C1856 0.950 . S
H1846 C1858 0.950 . S
H1847 C1859 0.950 . S
C1848 H1840 0.950 . S
C1848 C1849 1.386 . S
C1848 C1850 1.391 . S
C1849 C1848 1.386 . S
C1849 C1853 1.393 . S
C1850 H1842 0.950 . S
C1850 C1848 1.391 . S
C1850 C1851 1.400 . S
C1851 C1850 1.400 . S
C1851 C1852 1.398 . S
C1851 C1857 1.491 1_554 S
C1852 H1843 0.950 . S
C1852 C1851 1.398 . S
C1852 C1853 1.391 . S
C1853 H1841 0.950 . S
C1853 C1849 1.393 . S
C1853 C1852 1.391 . S
C1854 H1844 0.950 . S
C1854 C1855 1.386 . S
C1854 C1856 1.391 . S
C1855 C1854 1.386 . S
C1855 C1859 1.393 . S
C1856 H1845 0.950 . S
C1856 C1854 1.391 . S
C1856 C1857 1.400 . S
C1857 C1851 1.491 1_556 S
C1857 C1856 1.400 . S
C1857 C1858 1.398 . S
C1858 H1846 0.950 . S
C1858 C1857 1.398 . S
C1858 C1859 1.391 . S
C1859 H1847 0.950 . S
C1859 C1855 1.393 . S
C1859 C1858 1.391 . S
H1860 C1868 0.950 . S
H1861 C1873 0.950 . S
H1862 C1870 0.950 . S
H1863 C1872 0.950 . S
H1864 C1874 0.950 . S
H1865 C1876 0.950 . S
H1866 C1878 0.950 . S
H1867 C1879 0.950 . S
C1868 H1860 0.950 . S
C1868 C1869 1.386 1_655 S
C1868 C1870 1.391 . S
C1869 C1868 1.386 1_455 S
C1869 C1873 1.393 . S
C1870 H1862 0.950 . S
C1870 C1868 1.391 . S
C1870 C1871 1.400 1_655 S
C1871 C1870 1.400 1_455 S
C1871 C1872 1.398 . S
C1871 C1877 1.491 . S
C1872 H1863 0.950 . S
C1872 C1871 1.398 . S
C1872 C1873 1.391 . S
C1873 H1861 0.950 . S
C1873 C1869 1.393 . S
C1873 C1872 1.391 . S
C1874 H1864 0.950 . S
C1874 C1875 1.386 . S
C1874 C1876 1.391 . S
C1875 C1874 1.386 . S
C1875 C1879 1.393 1_455 S
C1876 H1865 0.950 . S
C1876 C1874 1.391 . S
C1876 C1877 1.400 . S
C1877 C1871 1.491 . S
C1877 C1876 1.400 . S
C1877 C1878 1.398 1_455 S
C1878 H1866 0.950 . S
C1878 C1877 1.398 1_655 S
C1878 C1879 1.391 . S
C1879 H1867 0.950 . S
C1879 C1875 1.393 1_655 S
C1879 C1878 1.391 . S
H1880 C1888 0.950 . S
H1881 C1893 0.950 . S
H1882 C1890 0.950 . S
H1883 C1892 0.950 . S
H1884 C1894 0.950 . S
H1885 C1896 0.950 . S
H1886 C1898 0.950 . S
H1887 C1899 0.950 . S
C1888 H1880 0.950 . S
C1888 C1889 1.386 . S
C1888 C1890 1.391 . S
C1889 C1888 1.386 . S
C1889 C1893 1.393 . S
C1890 H1882 0.950 . S
C1890 C1888 1.391 . S
C1890 C1891 1.400 . S
C1891 C1890 1.400 . S
C1891 C1892 1.398 . S
C1891 C1897 1.491 . S
C1892 H1883 0.950 . S
C1892 C1891 1.398 . S
C1892 C1893 1.391 . S
C1893 H1881 0.950 . S
C1893 C1889 1.393 . S
C1893 C1892 1.391 . S
C1894 H1884 0.950 . S
C1894 C1895 1.386 . S
C1894 C1896 1.391 . S
C1895 C1894 1.386 . S
C1895 C1899 1.393 . S
C1896 H1885 0.950 . S
C1896 C1894 1.391 . S
C1896 C1897 1.400 . S
C1897 C1891 1.491 . S
C1897 C1896 1.400 . S
C1897 C1898 1.398 . S
C1898 H1886 0.950 . S
C1898 C1897 1.398 . S
C1898 C1899 1.391 . S
C1899 H1887 0.950 . S
C1899 C1895 1.393 . S
C1899 C1898 1.391 . S
H1900 C1908 0.950 1_565 S
H1901 C1913 0.950 . S
H1902 C1910 0.950 1_565 S
H1903 C1912 0.950 . S
H1904 C1914 0.950 . S
H1905 C1916 0.950 . S
H1906 C1918 0.950 1_565 S
H1907 C1919 0.950 1_565 S
C1908 H1900 0.950 1_545 S
C1908 C1909 1.386 . S
C1908 C1910 1.391 . S
C1909 C1908 1.386 . S
C1909 C1913 1.393 . S
C1910 H1902 0.950 1_545 S
C1910 C1908 1.391 . S
C1910 C1911 1.400 . S
C1911 C1910 1.400 . S
C1911 C1912 1.398 . S
C1911 C1917 1.491 . S
C1912 H1903 0.950 . S
C1912 C1911 1.398 . S
C1912 C1913 1.391 . S
C1913 H1901 0.950 . S
C1913 C1909 1.393 . S
C1913 C1912 1.391 . S
C1914 H1904 0.950 . S
C1914 C1915 1.386 . S
C1914 C1916 1.391 . S
C1915 C1914 1.386 . S
C1915 C1919 1.393 . S
C1916 H1905 0.950 . S
C1916 C1914 1.391 . S
C1916 C1917 1.400 . S
C1917 C1911 1.491 . S
C1917 C1916 1.400 . S
C1917 C1918 1.398 . S
C1918 H1906 0.950 1_545 S
C1918 C1917 1.398 . S
C1918 C1919 1.391 . S
C1919 H1907 0.950 1_545 S
C1919 C1915 1.393 . S
C1919 C1918 1.391 . S
H1920 C1928 0.950 . S
H1921 C1933 0.950 . S
H1922 C1930 0.950 . S
H1923 C1932 0.950 . S
H1924 C1934 0.950 . S
H1925 C1936 0.950 . S
H1926 C1938 0.950 . S
H1927 C1939 0.950 . S
C1928 H1920 0.950 . S
C1928 C1929 1.386 . S
C1928 C1930 1.391 . S
C1929 C1928 1.386 . S
C1929 C1933 1.393 . S
C1930 H1922 0.950 . S
C1930 C1928 1.391 . S
C1930 C1931 1.400 . S
C1931 C1930 1.400 . S
C1931 C1932 1.398 . S
C1931 C1937 1.491 . S
C1932 H1923 0.950 . S
C1932 C1931 1.398 . S
C1932 C1933 1.391 . S
C1933 H1921 0.950 . S
C1933 C1929 1.393 . S
C1933 C1932 1.391 . S
C1934 H1924 0.950 . S
C1934 C1935 1.386 . S
C1934 C1936 1.391 . S
C1935 C1934 1.386 . S
C1935 C1939 1.393 . S
C1936 H1925 0.950 . S
C1936 C1934 1.391 . S
C1936 C1937 1.400 . S
C1937 C1931 1.491 . S
C1937 C1936 1.400 . S
C1937 C1938 1.398 . S
C1938 H1926 0.950 . S
C1938 C1937 1.398 . S
C1938 C1939 1.391 . S
C1939 H1927 0.950 . S
C1939 C1935 1.393 . S
C1939 C1938 1.391 . S
H1940 C1948 0.950 . S
H1941 C1953 0.950 . S
H1942 C1950 0.950 . S
H1943 C1952 0.950 . S
H1944 C1954 0.950 . S
H1945 C1956 0.950 . S
H1946 C1958 0.950 . S
H1947 C1959 0.950 . S
C1948 H1940 0.950 . S
C1948 C1949 1.386 . S
C1948 C1950 1.391 . S
C1949 C1948 1.386 . S
C1949 C1953 1.393 . S
C1950 H1942 0.950 . S
C1950 C1948 1.391 . S
C1950 C1951 1.400 . S
C1951 C1950 1.400 . S
C1951 C1952 1.398 . S
C1951 C1957 1.491 . S
C1952 H1943 0.950 . S
C1952 C1951 1.398 . S
C1952 C1953 1.391 . S
C1953 H1941 0.950 . S
C1953 C1949 1.393 . S
C1953 C1952 1.391 . S
C1954 H1944 0.950 . S
C1954 C1955 1.386 . S
C1954 C1956 1.391 . S
C1955 C1954 1.386 . S
C1955 C1959 1.393 . S
C1956 H1945 0.950 . S
C1956 C1954 1.391 . S
C1956 C1957 1.400 . S
C1957 C1951 1.491 . S
C1957 C1956 1.400 . S
C1957 C1958 1.398 . S
C1958 H1946 0.950 . S
C1958 C1957 1.398 . S
C1958 C1959 1.391 . S
C1959 H1947 0.950 . S
C1959 C1955 1.393 . S
C1959 C1958 1.391 . S
H1960 C1968 0.950 . S
H1961 C1973 0.950 . S
H1962 C1970 0.950 . S
H1963 C1972 0.950 . S
H1964 C1974 0.950 . S
H1965 C1976 0.950 . S
H1966 C1978 0.950 . S
H1967 C1979 0.950 . S
C1968 H1960 0.950 . S
C1968 C1969 1.386 . S
C1968 C1970 1.391 . S
C1969 C1968 1.386 . S
C1969 C1973 1.393 . S
C1970 H1962 0.950 . S
C1970 C1968 1.391 . S
C1970 C1971 1.400 . S
C1971 C1970 1.400 . S
C1971 C1972 1.398 . S
C1971 C1977 1.491 . S
C1972 H1963 0.950 . S
C1972 C1971 1.398 . S
C1972 C1973 1.391 . S
C1973 H1961 0.950 . S
C1973 C1969 1.393 . S
C1973 C1972 1.391 . S
C1974 H1964 0.950 . S
C1974 C1975 1.386 . S
C1974 C1976 1.391 . S
C1975 C1974 1.386 . S
C1975 C1979 1.393 . S
C1976 H1965 0.950 . S
C1976 C1974 1.391 . S
C1976 C1977 1.400 . S
C1977 C1971 1.491 . S
C1977 C1976 1.400 . S
C1977 C1978 1.398 . S
C1978 H1966 0.950 . S
C1978 C1977 1.398 . S
C1978 C1979 1.391 . S
C1979 H1967 0.950 . S
C1979 C1975 1.393 . S
C1979 C1978 1.391 . S
H1980 C1988 0.950 . S
H1981 C1993 0.950 . S
H1982 C1990 0.950 . S
H1983 C1992 0.950 . S
H1984 C1994 0.950 . S
H1985 C1996 0.950 . S
H1986 C1998 0.950 . S
H1987 C1999 0.950 . S
C1988 H1980 0.950 . S
C1988 C1989 1.386 . S
C1988 C1990 1.391 . S
C1989 C1988 1.386 . S
C1989 C1993 1.393 . S
C1990 H1982 0.950 . S
C1990 C1988 1.391 . S
C1990 C1991 1.400 . S
C1991 C1990 1.400 . S
C1991 C1992 1.398 . S
C1991 C1997 1.491 . S
C1992 H1983 0.950 . S
C1992 C1991 1.398 . S
C1992 C1993 1.391 . S
C1993 H1981 0.950 . S
C1993 C1989 1.393 . S
C1993 C1992 1.391 . S
C1994 H1984 0.950 . S
C1994 C1995 1.386 . S
C1994 C1996 1.391 . S
C1995 C1994 1.386 . S
C1995 C1999 1.393 . S
C1996 H1985 0.950 . S
C1996 C1994 1.391 . S
C1996 C1997 1.400 . S
C1997 C1991 1.491 . S
C1997 C1996 1.400 . S
C1997 C1998 1.398 . S
C1998 H1986 0.950 . S
C1998 C1997 1.398 . S
C1998 C1999 1.391 . S
C1999 H1987 0.950 . S
C1999 C1995 1.393 . S
C1999 C1998 1.391 . S
H2000 C2008 0.950 . S
H2001 C2013 0.950 . S
H2002 C2010 0.950 . S
H2003 C2012 0.950 . S
H2004 C2014 0.950 . S
H2005 C2016 0.950 . S
H2006 C2018 0.950 . S
H2007 C2019 0.950 . S
C2008 H2000 0.950 . S
C2008 C2009 1.386 . S
C2008 C2010 1.391 . S
C2009 C2008 1.386 . S
C2009 C2013 1.393 . S
C2010 H2002 0.950 . S
C2010 C2008 1.391 . S
C2010 C2011 1.400 . S
C2011 C2010 1.400 . S
C2011 C2012 1.398 . S
C2011 C2017 1.491 . S
C2012 H2003 0.950 . S
C2012 C2011 1.398 . S
C2012 C2013 1.391 . S
C2013 H2001 0.950 . S
C2013 C2009 1.393 . S
C2013 C2012 1.391 . S
C2014 H2004 0.950 . S
C2014 C2015 1.386 . S
C2014 C2016 1.391 . S
C2015 C2014 1.386 . S
C2015 C2019 1.393 . S
C2016 H2005 0.950 . S
C2016 C2014 1.391 . S
C2016 C2017 1.400 . S
C2017 C2011 1.491 . S
C2017 C2016 1.400 . S
C2017 C2018 1.398 . S
C2018 H2006 0.950 . S
C2018 C2017 1.398 . S
C2018 C2019 1.391 . S
C2019 H2007 0.950 . S
C2019 C2015 1.393 . S
C2019 C2018 1.391 . S
H2020 C2028 0.950 . S
H2021 C2033 0.950 . S
H2022 C2030 0.950 . S
H2023 C2032 0.950 . S
H2024 C2034 0.950 . S
H2025 C2036 0.950 . S
H2026 C2038 0.950 . S
H2027 C2039 0.950 . S
C2028 H2020 0.950 . S
C2028 C2029 1.386 . S
C2028 C2030 1.391 . S
C2029 C2028 1.386 . S
C2029 C2033 1.393 . S
C2030 H2022 0.950 . S
C2030 C2028 1.391 . S
C2030 C2031 1.400 . S
C2031 C2030 1.400 . S
C2031 C2032 1.398 . S
C2031 C2037 1.491 . S
C2032 H2023 0.950 . S
C2032 C2031 1.398 . S
C2032 C2033 1.391 . S
C2033 H2021 0.950 . S
C2033 C2029 1.393 . S
C2033 C2032 1.391 . S
C2034 H2024 0.950 . S
C2034 C2035 1.386 . S
C2034 C2036 1.391 . S
C2035 C2034 1.386 . S
C2035 C2039 1.393 . S
C2036 H2025 0.950 . S
C2036 C2034 1.391 . S
C2036 C2037 1.400 . S
C2037 C2031 1.491 . S
C2037 C2036 1.400 . S
C2037 C2038 1.398 . S
C2038 H2026 0.950 . S
C2038 C2037 1.398 . S
C2038 C2039 1.391 . S
C2039 H2027 0.950 . S
C2039 C2035 1.393 . S
C2039 C2038 1.391 . S
H2040 C2048 0.950 . S
H2041 C2053 0.950 . S
H2042 C2050 0.950 . S
H2043 C2052 0.950 . S
H2044 C2054 0.950 . S
H2045 C2056 0.950 . S
H2046 C2058 0.950 . S
H2047 C2059 0.950 . S
C2048 H2040 0.950 . S
C2048 C2049 1.386 . S
C2048 C2050 1.391 . S
C2049 C2048 1.386 . S
C2049 C2053 1.393 . S
C2050 H2042 0.950 . S
C2050 C2048 1.391 . S
C2050 C2051 1.400 . S
C2051 C2050 1.400 . S
C2051 C2052 1.398 . S
C2051 C2057 1.491 . S
C2052 H2043 0.950 . S
C2052 C2051 1.398 . S
C2052 C2053 1.391 . S
C2053 H2041 0.950 . S
C2053 C2049 1.393 . S
C2053 C2052 1.391 . S
C2054 H2044 0.950 . S
C2054 C2055 1.386 . S
C2054 C2056 1.391 . S
C2055 C2054 1.386 . S
C2055 C2059 1.393 . S
C2056 H2045 0.950 . S
C2056 C2054 1.391 . S
C2056 C2057 1.400 . S
C2057 C2051 1.491 . S
C2057 C2056 1.400 . S
C2057 C2058 1.398 . S
C2058 H2046 0.950 . S
C2058 C2057 1.398 . S
C2058 C2059 1.391 . S
C2059 H2047 0.950 . S
C2059 C2055 1.393 . S
C2059 C2058 1.391 . S
H2060 C2068 0.950 . S
H2061 C2073 0.950 . S
H2062 C2070 0.950 . S
H2063 C2072 0.950 . S
H2064 C2074 0.950 . S
H2065 C2076 0.950 . S
H2066 C2078 0.950 . S
H2067 C2079 0.950 . S
C2068 H2060 0.950 . S
C2068 C2069 1.386 . S
C2068 C2070 1.391 . S
C2069 C2068 1.386 . S
C2069 C2073 1.393 . S
C2070 H2062 0.950 . S
C2070 C2068 1.391 . S
C2070 C2071 1.400 . S
C2071 C2070 1.400 . S
C2071 C2072 1.398 . S
C2071 C2077 1.491 . S
C2072 H2063 0.950 . S
C2072 C2071 1.398 . S
C2072 C2073 1.391 . S
C2073 H2061 0.950 . S
C2073 C2069 1.393 . S
C2073 C2072 1.391 . S
C2074 H2064 0.950 . S
C2074 C2075 1.386 . S
C2074 C2076 1.391 . S
C2075 C2074 1.386 . S
C2075 C2079 1.393 . S
C2076 H2065 0.950 . S
C2076 C2074 1.391 . S
C2076 C2077 1.400 . S
C2077 C2071 1.491 . S
C2077 C2076 1.400 . S
C2077 C2078 1.398 . S
C2078 H2066 0.950 . S
C2078 C2077 1.398 . S
C2078 C2079 1.391 . S
C2079 H2067 0.950 . S
C2079 C2075 1.393 . S
C2079 C2078 1.391 . S
H2080 C2088 0.950 . S
H2081 C2093 0.950 . S
H2082 C2090 0.950 . S
H2083 C2092 0.950 . S
H2084 C2094 0.950 . S
H2085 C2096 0.950 . S
H2086 C2098 0.950 . S
H2087 C2099 0.950 . S
C2088 H2080 0.950 . S
C2088 C2089 1.386 . S
C2088 C2090 1.391 . S
C2089 C2088 1.386 . S
C2089 C2093 1.393 . S
C2090 H2082 0.950 . S
C2090 C2088 1.391 . S
C2090 C2091 1.400 . S
C2091 C2090 1.400 . S
C2091 C2092 1.398 . S
C2091 C2097 1.491 . S
C2092 H2083 0.950 . S
C2092 C2091 1.398 . S
C2092 C2093 1.391 . S
C2093 H2081 0.950 . S
C2093 C2089 1.393 . S
C2093 C2092 1.391 . S
C2094 H2084 0.950 . S
C2094 C2095 1.386 . S
C2094 C2096 1.391 . S
C2095 C2094 1.386 . S
C2095 C2099 1.393 . S
C2096 H2085 0.950 . S
C2096 C2094 1.391 . S
C2096 C2097 1.400 . S
C2097 C2091 1.491 . S
C2097 C2096 1.400 . S
C2097 C2098 1.398 . S
C2098 H2086 0.950 . S
C2098 C2097 1.398 . S
C2098 C2099 1.391 . S
C2099 H2087 0.950 . S
C2099 C2095 1.393 . S
C2099 C2098 1.391 . S
H2100 C2108 0.950 . S
H2101 C2113 0.950 . S
H2102 C2110 0.950 . S
H2103 C2112 0.950 . S
H2104 C2114 0.950 . S
H2105 C2116 0.950 . S
H2106 C2118 0.950 . S
H2107 C2119 0.950 . S
C2108 H2100 0.950 . S
C2108 C2109 1.386 . S
C2108 C2110 1.391 . S
C2109 C2108 1.386 . S
C2109 C2113 1.393 . S
C2110 H2102 0.950 . S
C2110 C2108 1.391 . S
C2110 C2111 1.400 . S
C2111 C2110 1.400 . S
C2111 C2112 1.398 . S
C2111 C2117 1.491 . S
C2112 H2103 0.950 . S
C2112 C2111 1.398 . S
C2112 C2113 1.391 . S
C2113 H2101 0.950 . S
C2113 C2109 1.393 . S
C2113 C2112 1.391 . S
C2114 H2104 0.950 . S
C2114 C2115 1.386 . S
C2114 C2116 1.391 . S
C2115 C2114 1.386 . S
C2115 C2119 1.393 . S
C2116 H2105 0.950 . S
C2116 C2114 1.391 . S
C2116 C2117 1.400 . S
C2117 C2111 1.491 . S
C2117 C2116 1.400 . S
C2117 C2118 1.398 . S
C2118 H2106 0.950 . S
C2118 C2117 1.398 . S
C2118 C2119 1.391 . S
C2119 H2107 0.950 . S
C2119 C2115 1.393 . S
C2119 C2118 1.391 . S
H2120 C2128 0.950 . S
H2121 C2133 0.950 . S
H2122 C2130 0.950 . S
H2123 C2132 0.950 . S
H2124 C2134 0.950 . S
H2125 C2136 0.950 . S
H2126 C2138 0.950 . S
H2127 C2139 0.950 . S
C2128 H2120 0.950 . S
C2128 C2129 1.386 . S
C2128 C2130 1.391 . S
C2129 C2128 1.386 . S
C2129 C2133 1.393 . S
C2130 H2122 0.950 . S
C2130 C2128 1.391 . S
C2130 C2131 1.400 . S
C2131 C2130 1.400 . S
C2131 C2132 1.398 . S
C2131 C2137 1.491 . S
C2132 H2123 0.950 . S
C2132 C2131 1.398 . S
C2132 C2133 1.391 . S
C2133 H2121 0.950 . S
C2133 C2129 1.393 . S
C2133 C2132 1.391 . S
C2134 H2124 0.950 . S
C2134 C2135 1.386 . S
C2134 C2136 1.391 . S
C2135 C2134 1.386 . S
C2135 C2139 1.393 . S
C2136 H2125 0.950 . S
C2136 C2134 1.391 . S
C2136 C2137 1.400 . S
C2137 C2131 1.491 . S
C2137 C2136 1.400 . S
C2137 C2138 1.398 . S
C2138 H2126 0.950 . S
C2138 C2137 1.398 . S
C2138 C2139 1.391 . S
C2139 H2127 0.950 . S
C2139 C2135 1.393 . S
C2139 C2138 1.391 . S
H2140 C2148 0.950 . S
H2141 C2153 0.950 . S
H2142 C2150 0.950 . S
H2143 C2152 0.950 . S
H2144 C2154 0.950 . S
H2145 C2156 0.950 . S
H2146 C2158 0.950 . S
H2147 C2159 0.950 . S
C2148 H2140 0.950 . S
C2148 C2149 1.386 . S
C2148 C2150 1.391 . S
C2149 C2148 1.386 . S
C2149 C2153 1.393 . S
C2150 H2142 0.950 . S
C2150 C2148 1.391 . S
C2150 C2151 1.400 . S
C2151 C2150 1.400 . S
C2151 C2152 1.398 . S
C2151 C2157 1.491 . S
C2152 H2143 0.950 . S
C2152 C2151 1.398 . S
C2152 C2153 1.391 . S
C2153 H2141 0.950 . S
C2153 C2149 1.393 . S
C2153 C2152 1.391 . S
C2154 H2144 0.950 . S
C2154 C2155 1.386 . S
C2154 C2156 1.391 . S
C2155 C2154 1.386 . S
C2155 C2159 1.393 . S
C2156 H2145 0.950 . S
C2156 C2154 1.391 . S
C2156 C2157 1.400 . S
C2157 C2151 1.491 . S
C2157 C2156 1.400 . S
C2157 C2158 1.398 . S
C2158 H2146 0.950 . S
C2158 C2157 1.398 . S
C2158 C2159 1.391 . S
C2159 H2147 0.950 . S
C2159 C2155 1.393 . S
C2159 C2158 1.391 . S
H2160 C2168 0.950 . S
H2161 C2173 0.950 . S
H2162 C2170 0.950 . S
H2163 C2172 0.950 . S
H2164 C2174 0.950 . S
H2165 C2176 0.950 . S
H2166 C2178 0.950 . S
H2167 C2179 0.950 . S
C2168 H2160 0.950 . S
C2168 C2169 1.386 . S
C2168 C2170 1.391 . S
C2169 C2168 1.386 . S
C2169 C2173 1.393 . S
C2170 H2162 0.950 . S
C2170 C2168 1.391 . S
C2170 C2171 1.400 . S
C2171 C2170 1.400 . S
C2171 C2172 1.398 . S
C2171 C2177 1.491 . S
C2172 H2163 0.950 . S
C2172 C2171 1.398 . S
C2172 C2173 1.391 . S
C2173 H2161 0.950 . S
C2173 C2169 1.393 . S
C2173 C2172 1.391 . S
C2174 H2164 0.950 . S
C2174 C2175 1.386 . S
C2174 C2176 1.391 . S
C2175 C2174 1.386 . S
C2175 C2179 1.393 . S
C2176 H2165 0.950 . S
C2176 C2174 1.391 . S
C2176 C2177 1.400 . S
C2177 C2171 1.491 . S
C2177 C2176 1.400 . S
C2177 C2178 1.398 . S
C2178 H2166 0.950 . S
C2178 C2177 1.398 . S
C2178 C2179 1.391 . S
C2179 H2167 0.950 . S
C2179 C2175 1.393 . S
C2179 C2178 1.391 . S
H2180 C2188 0.950 . S
H2181 C2193 0.950 . S
H2182 C2190 0.950 . S
H2183 C2192 0.950 . S
H2184 C2194 0.950 . S
H2185 C2196 0.950 . S
H2186 C2198 0.950 . S
H2187 C2199 0.950 . S
C2188 H2180 0.950 . S
C2188 C2189 1.386 . S
C2188 C2190 1.391 . S
C2189 C2188 1.386 . S
C2189 C2193 1.393 . S
C2190 H2182 0.950 . S
C2190 C2188 1.391 . S
C2190 C2191 1.400 . S
C2191 C2190 1.400 . S
C2191 C2192 1.398 . S
C2191 C2197 1.491 . S
C2192 H2183 0.950 . S
C2192 C2191 1.398 . S
C2192 C2193 1.391 . S
C2193 H2181 0.950 . S
C2193 C2189 1.393 . S
C2193 C2192 1.391 . S
C2194 H2184 0.950 . S
C2194 C2195 1.386 . S
C2194 C2196 1.391 . S
C2195 C2194 1.386 . S
C2195 C2199 1.393 . S
C2196 H2185 0.950 . S
C2196 C2194 1.391 . S
C2196 C2197 1.400 . S
C2197 C2191 1.491 . S
C2197 C2196 1.400 . S
C2197 C2198 1.398 . S
C2198 H2186 0.950 . S
C2198 C2197 1.398 . S
C2198 C2199 1.391 . S
C2199 H2187 0.950 . S
C2199 C2195 1.393 . S
C2199 C2198 1.391 . S
H2200 C2208 0.950 . S
H2201 C2213 0.950 . S
H2202 C2210 0.950 . S
H2203 C2212 0.950 . S
H2204 C2214 0.950 . S
H2205 C2216 0.950 . S
H2206 C2218 0.950 . S
H2207 C2219 0.950 . S
C2208 H2200 0.950 . S
C2208 C2209 1.386 . S
C2208 C2210 1.391 . S
C2209 C2208 1.386 . S
C2209 C2213 1.393 . S
C2210 H2202 0.950 . S
C2210 C2208 1.391 . S
C2210 C2211 1.400 . S
C2211 C2210 1.400 . S
C2211 C2212 1.398 . S
C2211 C2217 1.491 . S
C2212 H2203 0.950 . S
C2212 C2211 1.398 . S
C2212 C2213 1.391 . S
C2213 H2201 0.950 . S
C2213 C2209 1.393 . S
C2213 C2212 1.391 . S
C2214 H2204 0.950 . S
C2214 C2215 1.386 . S
C2214 C2216 1.391 . S
C2215 C2214 1.386 . S
C2215 C2219 1.393 . S
C2216 H2205 0.950 . S
C2216 C2214 1.391 . S
C2216 C2217 1.400 . S
C2217 C2211 1.491 . S
C2217 C2216 1.400 . S
C2217 C2218 1.398 . S
C2218 H2206 0.950 . S
C2218 C2217 1.398 . S
C2218 C2219 1.391 . S
C2219 H2207 0.950 . S
C2219 C2215 1.393 . S
C2219 C2218 1.391 . S
H2220 C2228 0.950 . S
H2221 C2233 0.950 . S
H2222 C2230 0.950 . S
H2223 C2232 0.950 . S
H2224 C2234 0.950 . S
H2225 C2236 0.950 . S
H2226 C2238 0.950 . S
H2227 C2239 0.950 . S
C2228 H2220 0.950 . S
C2228 C2229 1.386 . S
C2228 C2230 1.391 . S
C2229 C2228 1.386 . S
C2229 C2233 1.393 . S
C2230 H2222 0.950 . S
C2230 C2228 1.391 . S
C2230 C2231 1.400 . S
C2231 C2230 1.400 . S
C2231 C2232 1.398 . S
C2231 C2237 1.491 . S
C2232 H2223 0.950 . S
C2232 C2231 1.398 . S
C2232 C2233 1.391 . S
C2233 H2221 0.950 . S
C2233 C2229 1.393 . S
C2233 C2232 1.391 . S
C2234 H2224 0.950 . S
C2234 C2235 1.386 . S
C2234 C2236 1.391 . S
C2235 C2234 1.386 . S
C2235 C2239 1.393 . S
C2236 H2225 0.950 . S
C2236 C2234 1.391 . S
C2236 C2237 1.400 . S
C2237 C2231 1.491 . S
C2237 C2236 1.400 . S
C2237 C2238 1.398 . S
C2238 H2226 0.950 . S
C2238 C2237 1.398 . S
C2238 C2239 1.391 . S
C2239 H2227 0.950 . S
C2239 C2235 1.393 . S
C2239 C2238 1.391 . S
H2240 C2248 0.950 . S
H2241 C2253 0.950 . S
H2242 C2250 0.950 . S
H2243 C2252 0.950 . S
H2244 C2254 0.950 . S
H2245 C2256 0.950 . S
H2246 C2258 0.950 . S
H2247 C2259 0.950 . S
C2248 H2240 0.950 . S
C2248 C2249 1.386 . S
C2248 C2250 1.391 . S
C2249 C2248 1.386 . S
C2249 C2253 1.393 . S
C2250 H2242 0.950 . S
C2250 C2248 1.391 . S
C2250 C2251 1.400 . S
C2251 C2250 1.400 . S
C2251 C2252 1.398 . S
C2251 C2257 1.491 . S
C2252 H2243 0.950 . S
C2252 C2251 1.398 . S
C2252 C2253 1.391 . S
C2253 H2241 0.950 . S
C2253 C2249 1.393 . S
C2253 C2252 1.391 . S
C2254 H2244 0.950 . S
C2254 C2255 1.386 . S
C2254 C2256 1.391 . S
C2255 C2254 1.386 . S
C2255 C2259 1.393 . S
C2256 H2245 0.950 . S
C2256 C2254 1.391 . S
C2256 C2257 1.400 . S
C2257 C2251 1.491 . S
C2257 C2256 1.400 . S
C2257 C2258 1.398 . S
C2258 H2246 0.950 . S
C2258 C2257 1.398 . S
C2258 C2259 1.391 . S
C2259 H2247 0.950 . S
C2259 C2255 1.393 . S
C2259 C2258 1.391 . S
H2260 C2268 0.950 . S
H2261 C2273 0.950 . S
H2262 C2270 0.950 . S
H2263 C2272 0.950 . S
H2264 C2274 0.950 . S
H2265 C2276 0.950 . S
H2266 C2278 0.950 . S
H2267 C2279 0.950 . S
C2268 H2260 0.950 . S
C2268 C2269 1.386 . S
C2268 C2270 1.391 . S
C2269 C2268 1.386 . S
C2269 C2273 1.393 . S
C2270 H2262 0.950 . S
C2270 C2268 1.391 . S
C2270 C2271 1.400 . S
C2271 C2270 1.400 . S
C2271 C2272 1.398 . S
C2271 C2277 1.491 . S
C2272 H2263 0.950 . S
C2272 C2271 1.398 . S
C2272 C2273 1.391 . S
C2273 H2261 0.950 . S
C2273 C2269 1.393 . S
C2273 C2272 1.391 . S
C2274 H2264 0.950 . S
C2274 C2275 1.386 . S
C2274 C2276 1.391 . S
C2275 C2274 1.386 . S
C2275 C2279 1.393 . S
C2276 H2265 0.950 . S
C2276 C2274 1.391 . S
C2276 C2277 1.400 . S
C2277 C2271 1.491 . S
C2277 C2276 1.400 . S
C2277 C2278 1.398 . S
C2278 H2266 0.950 . S
C2278 C2277 1.398 . S
C2278 C2279 1.391 . S
C2279 H2267 0.950 . S
C2279 C2275 1.393 . S
C2279 C2278 1.391 . S
H2280 C2288 0.950 . S
H2281 C2293 0.950 . S
H2282 C2290 0.950 . S
H2283 C2292 0.950 . S
H2284 C2294 0.950 . S
H2285 C2296 0.950 . S
H2286 C2298 0.950 . S
H2287 C2299 0.950 . S
C2288 H2280 0.950 . S
C2288 C2289 1.386 . S
C2288 C2290 1.391 . S
C2289 C2288 1.386 . S
C2289 C2293 1.393 . S
C2290 H2282 0.950 . S
C2290 C2288 1.391 . S
C2290 C2291 1.400 . S
C2291 C2290 1.400 . S
C2291 C2292 1.398 . S
C2291 C2297 1.491 . S
C2292 H2283 0.950 . S
C2292 C2291 1.398 . S
C2292 C2293 1.391 . S
C2293 H2281 0.950 . S
C2293 C2289 1.393 . S
C2293 C2292 1.391 . S
C2294 H2284 0.950 . S
C2294 C2295 1.386 . S
C2294 C2296 1.391 . S
C2295 C2294 1.386 . S
C2295 C2299 1.393 . S
C2296 H2285 0.950 . S
C2296 C2294 1.391 . S
C2296 C2297 1.400 . S
C2297 C2291 1.491 . S
C2297 C2296 1.400 . S
C2297 C2298 1.398 . S
C2298 H2286 0.950 . S
C2298 C2297 1.398 . S
C2298 C2299 1.391 . S
C2299 H2287 0.950 . S
C2299 C2295 1.393 . S
C2299 C2298 1.391 . S
H2300 C2308 0.950 . S
H2301 C2313 0.950 . S
H2302 C2310 0.950 . S
H2303 C2312 0.950 . S
H2304 C2314 0.950 . S
H2305 C2316 0.950 . S
H2306 C2318 0.950 . S
H2307 C2319 0.950 . S
C2308 H2300 0.950 . S
C2308 C2309 1.386 . S
C2308 C2310 1.391 . S
C2309 C2308 1.386 . S
C2309 C2313 1.393 . S
C2310 H2302 0.950 . S
C2310 C2308 1.391 . S
C2310 C2311 1.400 . S
C2311 C2310 1.400 . S
C2311 C2312 1.398 . S
C2311 C2317 1.491 . S
C2312 H2303 0.950 . S
C2312 C2311 1.398 . S
C2312 C2313 1.391 . S
C2313 H2301 0.950 . S
C2313 C2309 1.393 . S
C2313 C2312 1.391 . S
C2314 H2304 0.950 . S
C2314 C2315 1.386 . S
C2314 C2316 1.391 . S
C2315 C2314 1.386 . S
C2315 C2319 1.393 . S
C2316 H2305 0.950 . S
C2316 C2314 1.391 . S
C2316 C2317 1.400 . S
C2317 C2311 1.491 . S
C2317 C2316 1.400 . S
C2317 C2318 1.398 . S
C2318 H2306 0.950 . S
C2318 C2317 1.398 . S
C2318 C2319 1.391 . S
C2319 H2307 0.950 . S
C2319 C2315 1.393 . S
C2319 C2318 1.391 . S
H2320 C2328 0.950 . S
H2321 C2333 0.950 . S
H2322 C2330 0.950 . S
H2323 C2332 0.950 . S
H2324 C2334 0.950 . S
H2325 C2336 0.950 . S
H2326 C2338 0.950 . S
H2327 C2339 0.950 . S
C2328 H2320 0.950 . S
C2328 C2329 1.386 . S
C2328 C2330 1.391 . S
C2329 C2328 1.386 . S
C2329 C2333 1.393 . S
C2330 H2322 0.950 . S
C2330 C2328 1.391 . S
C2330 C2331 1.400 . S
C2331 C2330 1.400 . S
C2331 C2332 1.398 . S
C2331 C2337 1.491 . S
C2332 H2323 0.950 . S
C2332 C2331 1.398 . S
C2332 C2333 1.391 . S
C2333 H2321 0.950 . S
C2333 C2329 1.393 . S
C2333 C2332 1.391 . S
C2334 H2324 0.950 . S
C2334 C2335 1.386 . S
C2334 C2336 1.391 . S
C2335 C2334 1.386 . S
C2335 C2339 1.393 . S
C2336 H2325 0.950 . S
C2336 C2334 1.391 . S
C2336 C2337 1.400 . S
C2337 C2331 1.491 . S
C2337 C2336 1.400 . S
C2337 C2338 1.398 . S
C2338 H2326 0.950 . S
C2338 C2337 1.398 . S
C2338 C2339 1.391 . S
C2339 H2327 0.950 . S
C2339 C2335 1.393 . S
C2339 C2338 1.391 . S
H2340 C2348 0.950 . S
H2341 C2353 0.950 . S
H2342 C2350 0.950 . S
H2343 C2352 0.950 . S
H2344 C2354 0.950 . S
H2345 C2356 0.950 . S
H2346 C2358 0.950 . S
H2347 C2359 0.950 . S
C2348 H2340 0.950 . S
C2348 C2349 1.386 . S
C2348 C2350 1.391 . S
C2349 C2348 1.386 . S
C2349 C2353 1.393 . S
C2350 H2342 0.950 . S
C2350 C2348 1.391 . S
C2350 C2351 1.400 . S
C2351 C2350 1.400 . S
C2351 C2352 1.398 . S
C2351 C2357 1.491 . S
C2352 H2343 0.950 . S
C2352 C2351 1.398 . S
C2352 C2353 1.391 . S
C2353 H2341 0.950 . S
C2353 C2349 1.393 . S
C2353 C2352 1.391 . S
C2354 H2344 0.950 . S
C2354 C2355 1.386 . S
C2354 C2356 1.391 . S
C2355 C2354 1.386 . S
C2355 C2359 1.393 . S
C2356 H2345 0.950 . S
C2356 C2354 1.391 . S
C2356 C2357 1.400 . S
C2357 C2351 1.491 . S
C2357 C2356 1.400 . S
C2357 C2358 1.398 . S
C2358 H2346 0.950 . S
C2358 C2357 1.398 . S
C2358 C2359 1.391 . S
C2359 H2347 0.950 . S
C2359 C2355 1.393 . S
C2359 C2358 1.391 . S
H2360 C2368 0.950 . S
H2361 C2373 0.950 . S
H2362 C2370 0.950 . S
H2363 C2372 0.950 . S
H2364 C2374 0.950 . S
H2365 C2376 0.950 . S
H2366 C2378 0.950 . S
H2367 C2379 0.950 . S
C2368 H2360 0.950 . S
C2368 C2369 1.386 . S
C2368 C2370 1.391 . S
C2369 C2368 1.386 . S
C2369 C2373 1.393 . S
C2370 H2362 0.950 . S
C2370 C2368 1.391 . S
C2370 C2371 1.400 . S
C2371 C2370 1.400 . S
C2371 C2372 1.398 . S
C2371 C2377 1.491 . S
C2372 H2363 0.950 . S
C2372 C2371 1.398 . S
C2372 C2373 1.391 . S
C2373 H2361 0.950 . S
C2373 C2369 1.393 . S
C2373 C2372 1.391 . S
C2374 H2364 0.950 . S
C2374 C2375 1.386 . S
C2374 C2376 1.391 . S
C2375 C2374 1.386 . S
C2375 C2379 1.393 . S
C2376 H2365 0.950 . S
C2376 C2374 1.391 . S
C2376 C2377 1.400 . S
C2377 C2371 1.491 . S
C2377 C2376 1.400 . S
C2377 C2378 1.398 . S
C2378 H2366 0.950 . S
C2378 C2377 1.398 . S
C2378 C2379 1.391 . S
C2379 H2367 0.950 . S
C2379 C2375 1.393 . S
C2379 C2378 1.391 . S
H2380 C2388 0.950 . S
H2381 C2393 0.950 . S
H2382 C2390 0.950 . S
H2383 C2392 0.950 . S
H2384 C2394 0.950 . S
H2385 C2396 0.950 . S
H2386 C2398 0.950 . S
H2387 C2399 0.950 . S
C2388 H2380 0.950 . S
C2388 C2389 1.386 . S
C2388 C2390 1.391 . S
C2389 C2388 1.386 . S
C2389 C2393 1.393 . S
C2390 H2382 0.950 . S
C2390 C2388 1.391 . S
C2390 C2391 1.400 . S
C2391 C2390 1.400 . S
C2391 C2392 1.398 . S
C2391 C2397 1.491 . S
C2392 H2383 0.950 . S
C2392 C2391 1.398 . S
C2392 C2393 1.391 . S
C2393 H2381 0.950 . S
C2393 C2389 1.393 . S
C2393 C2392 1.391 . S
C2394 H2384 0.950 . S
C2394 C2395 1.386 . S
C2394 C2396 1.391 . S
C2395 C2394 1.386 . S
C2395 C2399 1.393 . S
C2396 H2385 0.950 . S
C2396 C2394 1.391 . S
C2396 C2397 1.400 . S
C2397 C2391 1.491 . S
C2397 C2396 1.400 . S
C2397 C2398 1.398 . S
C2398 H2386 0.950 . S
C2398 C2397 1.398 . S
C2398 C2399 1.391 . S
C2399 H2387 0.950 . S
C2399 C2395 1.393 . S
C2399 C2398 1.391 . S
H2400 C2408 0.950 . S
H2401 C2413 0.950 . S
H2402 C2410 0.951 . S
H2403 C2412 0.950 . S
H2404 C2414 0.950 . S
H2405 C2416 0.950 . S
H2406 C2418 0.950 . S
H2407 C2419 0.950 . S
C2408 H2400 0.950 . S
C2408 C2409 1.386 . S
C2408 C2410 1.391 1_565 S
C2409 C2408 1.386 . S
C2409 C2413 1.393 1_565 S
C2410 H2402 0.951 . S
C2410 C2408 1.391 1_545 S
C2410 C2411 1.400 . S
C2411 C2410 1.400 . S
C2411 C2412 1.398 . S
C2411 C2417 1.491 . S
C2412 H2403 0.950 . S
C2412 C2411 1.398 . S
C2412 C2413 1.391 . S
C2413 H2401 0.950 . S
C2413 C2409 1.393 1_545 S
C2413 C2412 1.391 . S
C2414 H2404 0.950 . S
C2414 C2415 1.386 . S
C2414 C2416 1.391 . S
C2415 C2414 1.386 . S
C2415 C2419 1.393 . S
C2416 H2405 0.950 . S
C2416 C2414 1.391 . S
C2416 C2417 1.400 . S
C2417 C2411 1.491 . S
C2417 C2416 1.400 . S
C2417 C2418 1.398 . S
C2418 H2406 0.950 . S
C2418 C2417 1.398 . S
C2418 C2419 1.391 . S
C2419 H2407 0.950 . S
C2419 C2415 1.393 . S
C2419 C2418 1.391 . S
H2420 C2428 0.950 . S
H2421 C2433 0.950 . S
H2422 C2430 0.950 . S
H2423 C2432 0.950 1_655 S
H2424 C2434 0.950 . S
H2425 C2436 0.950 . S
H2426 C2438 0.950 1_455 S
H2427 C2439 0.950 . S
C2428 H2420 0.950 . S
C2428 C2429 1.386 . S
C2428 C2430 1.391 . S
C2429 C2428 1.386 . S
C2429 C2433 1.393 . S
C2430 H2422 0.950 . S
C2430 C2428 1.391 . S
C2430 C2431 1.400 . S
C2431 C2430 1.400 . S
C2431 C2432 1.398 . S
C2431 C2437 1.491 1_455 S
C2432 H2423 0.950 1_455 S
C2432 C2431 1.398 . S
C2432 C2433 1.391 . S
C2433 H2421 0.950 . S
C2433 C2429 1.393 . S
C2433 C2432 1.391 . S
C2434 H2424 0.950 . S
C2434 C2435 1.386 . S
C2434 C2436 1.391 . S
C2435 C2434 1.386 . S
C2435 C2439 1.393 . S
C2436 H2425 0.950 . S
C2436 C2434 1.391 . S
C2436 C2437 1.400 . S
C2437 C2431 1.491 1_655 S
C2437 C2436 1.400 . S
C2437 C2438 1.398 . S
C2438 H2426 0.950 1_655 S
C2438 C2437 1.398 . S
C2438 C2439 1.391 . S
C2439 H2427 0.950 . S
C2439 C2435 1.393 . S
C2439 C2438 1.391 . S
H2440 C2448 0.950 . S
H2441 C2453 0.950 . S
H2442 C2450 0.950 . S
H2443 C2452 0.950 . S
H2444 C2454 0.950 . S
H2445 C2456 0.950 . S
H2446 C2458 0.950 . S
H2447 C2459 0.950 . S
C2448 H2440 0.950 . S
C2448 C2449 1.386 . S
C2448 C2450 1.391 . S
C2449 C2448 1.386 . S
C2449 C2453 1.393 . S
C2450 H2442 0.950 . S
C2450 C2448 1.391 . S
C2450 C2451 1.400 . S
C2451 C2450 1.400 . S
C2451 C2452 1.398 . S
C2451 C2457 1.491 . S
C2452 H2443 0.950 . S
C2452 C2451 1.398 . S
C2452 C2453 1.391 . S
C2453 H2441 0.950 . S
C2453 C2449 1.393 . S
C2453 C2452 1.391 . S
C2454 H2444 0.950 . S
C2454 C2455 1.386 . S
C2454 C2456 1.391 . S
C2455 C2454 1.386 . S
C2455 C2459 1.393 . S
C2456 H2445 0.950 . S
C2456 C2454 1.391 . S
C2456 C2457 1.400 . S
C2457 C2451 1.491 . S
C2457 C2456 1.400 . S
C2457 C2458 1.398 . S
C2458 H2446 0.950 . S
C2458 C2457 1.398 . S
C2458 C2459 1.391 . S
C2459 H2447 0.950 . S
C2459 C2455 1.393 . S
C2459 C2458 1.391 . S
H2460 C2468 0.950 . S
H2461 C2473 0.950 . S
H2462 C2470 0.950 . S
H2463 C2472 0.950 . S
H2464 C2474 0.950 . S
H2465 C2476 0.950 . S
H2466 C2478 0.950 . S
H2467 C2479 0.950 . S
C2468 H2460 0.950 . S
C2468 C2469 1.386 . S
C2468 C2470 1.391 . S
C2469 C2468 1.386 . S
C2469 C2473 1.393 . S
C2470 H2462 0.950 . S
C2470 C2468 1.391 . S
C2470 C2471 1.400 . S
C2471 C2470 1.400 . S
C2471 C2472 1.398 . S
C2471 C2477 1.491 . S
C2472 H2463 0.950 . S
C2472 C2471 1.398 . S
C2472 C2473 1.391 . S
C2473 H2461 0.950 . S
C2473 C2469 1.393 . S
C2473 C2472 1.391 . S
C2474 H2464 0.950 . S
C2474 C2475 1.386 . S
C2474 C2476 1.391 . S
C2475 C2474 1.386 . S
C2475 C2479 1.393 . S
C2476 H2465 0.950 . S
C2476 C2474 1.391 . S
C2476 C2477 1.400 . S
C2477 C2471 1.491 . S
C2477 C2476 1.400 . S
C2477 C2478 1.398 . S
C2478 H2466 0.950 . S
C2478 C2477 1.398 . S
C2478 C2479 1.391 . S
C2479 H2467 0.950 . S
C2479 C2475 1.393 . S
C2479 C2478 1.391 . S
H2480 C2488 0.950 . S
H2481 C2493 0.950 . S
H2482 C2490 0.950 . S
H2483 C2492 0.950 . S
H2484 C2494 0.950 . S
H2485 C2496 0.950 . S
H2486 C2498 0.950 . S
H2487 C2499 0.950 . S
C2488 H2480 0.950 . S
C2488 C2489 1.386 . S
C2488 C2490 1.391 . S
C2489 C2488 1.386 . S
C2489 C2493 1.393 . S
C2490 H2482 0.950 . S
C2490 C2488 1.391 . S
C2490 C2491 1.400 . S
C2491 C2490 1.400 . S
C2491 C2492 1.398 . S
C2491 C2497 1.491 . S
C2492 H2483 0.950 . S
C2492 C2491 1.398 . S
C2492 C2493 1.391 . S
C2493 H2481 0.950 . S
C2493 C2489 1.393 . S
C2493 C2492 1.391 . S
C2494 H2484 0.950 . S
C2494 C2495 1.386 . S
C2494 C2496 1.391 . S
C2495 C2494 1.386 . S
C2495 C2499 1.393 . S
C2496 H2485 0.950 . S
C2496 C2494 1.391 . S
C2496 C2497 1.400 . S
C2497 C2491 1.491 . S
C2497 C2496 1.400 . S
C2497 C2498 1.398 . S
C2498 H2486 0.950 . S
C2498 C2497 1.398 . S
C2498 C2499 1.391 . S
C2499 H2487 0.950 . S
C2499 C2495 1.393 . S
C2499 C2498 1.391 . S
H2500 C2508 0.950 . S
H2501 C2513 0.950 . S
H2502 C2510 0.950 . S
H2503 C2512 0.950 . S
H2504 C2514 0.950 . S
H2505 C2516 0.950 . S
H2506 C2518 0.950 . S
H2507 C2519 0.950 . S
C2508 H2500 0.950 . S
C2508 C2509 1.386 . S
C2508 C2510 1.391 . S
C2509 C2508 1.386 . S
C2509 C2513 1.393 . S
C2510 H2502 0.950 . S
C2510 C2508 1.391 . S
C2510 C2511 1.400 . S
C2511 C2510 1.400 . S
C2511 C2512 1.398 . S
C2511 C2517 1.491 . S
C2512 H2503 0.950 . S
C2512 C2511 1.398 . S
C2512 C2513 1.391 . S
C2513 H2501 0.950 . S
C2513 C2509 1.393 . S
C2513 C2512 1.391 . S
C2514 H2504 0.950 . S
C2514 C2515 1.386 . S
C2514 C2516 1.391 . S
C2515 C2514 1.386 . S
C2515 C2519 1.393 . S
C2516 H2505 0.950 . S
C2516 C2514 1.391 . S
C2516 C2517 1.400 . S
C2517 C2511 1.491 . S
C2517 C2516 1.400 . S
C2517 C2518 1.398 . S
C2518 H2506 0.950 . S
C2518 C2517 1.398 . S
C2518 C2519 1.391 . S
C2519 H2507 0.950 . S
C2519 C2515 1.393 . S
C2519 C2518 1.391 . S
H2520 C2528 0.950 . S
H2521 C2533 0.950 . S
H2522 C2530 0.950 . S
H2523 C2532 0.950 . S
H2524 C2534 0.950 . S
H2525 C2536 0.950 . S
H2526 C2538 0.950 . S
H2527 C2539 0.950 . S
C2528 H2520 0.950 . S
C2528 C2529 1.386 . S
C2528 C2530 1.391 . S
C2529 C2528 1.386 . S
C2529 C2533 1.393 . S
C2530 H2522 0.950 . S
C2530 C2528 1.391 . S
C2530 C2531 1.400 . S
C2531 C2530 1.400 . S
C2531 C2532 1.398 . S
C2531 C2537 1.491 . S
C2532 H2523 0.950 . S
C2532 C2531 1.398 . S
C2532 C2533 1.391 . S
C2533 H2521 0.950 . S
C2533 C2529 1.393 . S
C2533 C2532 1.391 . S
C2534 H2524 0.950 . S
C2534 C2535 1.386 . S
C2534 C2536 1.391 . S
C2535 C2534 1.386 . S
C2535 C2539 1.393 . S
C2536 H2525 0.950 . S
C2536 C2534 1.391 . S
C2536 C2537 1.400 . S
C2537 C2531 1.491 . S
C2537 C2536 1.400 . S
C2537 C2538 1.398 . S
C2538 H2526 0.950 . S
C2538 C2537 1.398 . S
C2538 C2539 1.391 . S
C2539 H2527 0.950 . S
C2539 C2535 1.393 . S
C2539 C2538 1.391 . S
H2540 C2548 0.950 . S
H2541 C2553 0.950 . S
H2542 C2550 0.950 . S
H2543 C2552 0.950 . S
H2544 C2554 0.950 . S
H2545 C2556 0.950 . S
H2546 C2558 0.950 . S
H2547 C2559 0.950 . S
C2548 H2540 0.950 . S
C2548 C2549 1.386 . S
C2548 C2550 1.391 . S
C2549 C2548 1.386 . S
C2549 C2553 1.393 . S
C2550 H2542 0.950 . S
C2550 C2548 1.391 . S
C2550 C2551 1.400 . S
C2551 C2550 1.400 . S
C2551 C2552 1.398 . S
C2551 C2557 1.491 . S
C2552 H2543 0.950 . S
C2552 C2551 1.398 . S
C2552 C2553 1.391 . S
C2553 H2541 0.950 . S
C2553 C2549 1.393 . S
C2553 C2552 1.391 . S
C2554 H2544 0.950 . S
C2554 C2555 1.386 . S
C2554 C2556 1.391 . S
C2555 C2554 1.386 . S
C2555 C2559 1.393 . S
C2556 H2545 0.950 . S
C2556 C2554 1.391 . S
C2556 C2557 1.400 . S
C2557 C2551 1.491 . S
C2557 C2556 1.400 . S
C2557 C2558 1.398 . S
C2558 H2546 0.950 . S
C2558 C2557 1.398 . S
C2558 C2559 1.391 . S
C2559 H2547 0.950 . S
C2559 C2555 1.393 . S
C2559 C2558 1.391 . S
H2560 C2568 0.950 . S
H2561 C2573 0.950 . S
H2562 C2570 0.950 . S
H2563 C2572 0.950 . S
H2564 C2574 0.950 . S
H2565 C2576 0.950 . S
H2566 C2578 0.950 . S
H2567 C2579 0.950 . S
C2568 H2560 0.950 . S
C2568 C2569 1.386 . S
C2568 C2570 1.391 . S
C2569 C2568 1.386 . S
C2569 C2573 1.393 . S
C2570 H2562 0.950 . S
C2570 C2568 1.391 . S
C2570 C2571 1.400 . S
C2571 C2570 1.400 . S
C2571 C2572 1.398 . S
C2571 C2577 1.491 . S
C2572 H2563 0.950 . S
C2572 C2571 1.398 . S
C2572 C2573 1.391 . S
C2573 H2561 0.950 . S
C2573 C2569 1.393 . S
C2573 C2572 1.391 . S
C2574 H2564 0.950 . S
C2574 C2575 1.386 . S
C2574 C2576 1.391 . S
C2575 C2574 1.386 . S
C2575 C2579 1.393 . S
C2576 H2565 0.950 . S
C2576 C2574 1.391 . S
C2576 C2577 1.400 . S
C2577 C2571 1.491 . S
C2577 C2576 1.400 . S
C2577 C2578 1.398 . S
C2578 H2566 0.950 . S
C2578 C2577 1.398 . S
C2578 C2579 1.391 . S
C2579 H2567 0.950 . S
C2579 C2575 1.393 . S
C2579 C2578 1.391 . S
H2580 C2588 0.950 . S
H2581 C2593 0.950 . S
H2582 C2590 0.950 1_655 S
H2583 C2592 0.950 . S
H2584 C2594 0.950 . S
H2585 C2596 0.937 1_455 S
H2586 C2598 0.950 . S
H2587 C2599 0.950 . S
C2588 H2580 0.950 . S
C2588 C2589 1.386 . S
C2588 C2590 1.391 . S
C2589 C2588 1.386 . S
C2589 C2593 1.393 . S
C2590 H2582 0.950 1_455 S
C2590 C2588 1.391 . S
C2590 C2591 1.400 . S
C2591 C2590 1.400 . S
C2591 C2592 1.398 . S
C2591 C2597 1.491 1_455 S
C2592 H2583 0.950 . S
C2592 C2591 1.398 . S
C2592 C2593 1.391 . S
C2593 H2581 0.950 . S
C2593 C2589 1.393 . S
C2593 C2592 1.391 . S
C2594 H2584 0.950 . S
C2594 C2595 1.386 . S
C2594 C2596 1.391 . S
C2595 C2594 1.386 . S
C2595 C2599 1.393 . S
C2596 H2585 0.937 1_655 S
C2596 C2594 1.391 . S
C2596 C2597 1.400 . S
C2597 C2591 1.491 1_655 S
C2597 C2596 1.400 . S
C2597 C2598 1.398 . S
C2598 H2586 0.950 . S
C2598 C2597 1.398 . S
C2598 C2599 1.391 . S
C2599 H2587 0.950 . S
C2599 C2595 1.393 . S
C2599 C2598 1.391 . S
H2600 C2608 0.950 . S
H2601 C2613 0.950 . S
H2602 C2610 0.950 . S
H2603 C2612 0.950 . S
H2604 C2614 0.950 . S
H2605 C2616 0.950 . S
H2606 C2618 0.950 . S
H2607 C2619 0.950 . S
C2608 H2600 0.950 . S
C2608 C2609 1.386 . S
C2608 C2610 1.391 . S
C2609 C2608 1.386 . S
C2609 C2613 1.393 . S
C2610 H2602 0.950 . S
C2610 C2608 1.391 . S
C2610 C2611 1.400 . S
C2611 C2610 1.400 . S
C2611 C2612 1.398 . S
C2611 C2617 1.491 . S
C2612 H2603 0.950 . S
C2612 C2611 1.398 . S
C2612 C2613 1.391 . S
C2613 H2601 0.950 . S
C2613 C2609 1.393 . S
C2613 C2612 1.391 . S
C2614 H2604 0.950 . S
C2614 C2615 1.386 . S
C2614 C2616 1.391 . S
C2615 C2614 1.386 . S
C2615 C2619 1.393 . S
C2616 H2605 0.950 . S
C2616 C2614 1.391 . S
C2616 C2617 1.400 . S
C2617 C2611 1.491 . S
C2617 C2616 1.400 . S
C2617 C2618 1.398 . S
C2618 H2606 0.950 . S
C2618 C2617 1.398 . S
C2618 C2619 1.391 . S
C2619 H2607 0.950 . S
C2619 C2615 1.393 . S
C2619 C2618 1.391 . S
H2620 C2628 0.950 . S
H2621 C2633 0.950 . S
H2622 C2630 0.950 . S
H2623 C2632 0.950 . S
H2624 C2634 0.950 . S
H2625 C2636 0.950 . S
H2626 C2638 0.950 . S
H2627 C2639 0.950 . S
C2628 H2620 0.950 . S
C2628 C2629 1.386 . S
C2628 C2630 1.391 1_565 S
C2629 C2628 1.386 . S
C2629 C2633 1.393 . S
C2630 H2622 0.950 . S
C2630 C2628 1.391 1_545 S
C2630 C2631 1.400 . S
C2631 C2630 1.400 . S
C2631 C2632 1.398 . S
C2631 C2637 1.491 . S
C2632 H2623 0.950 . S
C2632 C2631 1.398 . S
C2632 C2633 1.391 1_545 S
C2633 H2621 0.950 . S
C2633 C2629 1.393 . S
C2633 C2632 1.391 1_565 S
C2634 H2624 0.950 . S
C2634 C2635 1.386 . S
C2634 C2636 1.391 . S
C2635 C2634 1.386 . S
C2635 C2639 1.393 . S
C2636 H2625 0.950 . S
C2636 C2634 1.391 . S
C2636 C2637 1.400 . S
C2637 C2631 1.491 . S
C2637 C2636 1.400 . S
C2637 C2638 1.398 . S
C2638 H2626 0.950 . S
C2638 C2637 1.398 . S
C2638 C2639 1.391 . S
C2639 H2627 0.950 . S
C2639 C2635 1.393 . S
C2639 C2638 1.391 . S
H2640 C2648 0.950 . S
H2641 C2653 0.950 . S
H2642 C2650 0.950 . S
H2643 C2652 0.950 . S
H2644 C2654 0.950 . S
H2645 C2656 0.950 . S
H2646 C2658 0.950 . S
H2647 C2659 0.950 . S
C2648 H2640 0.950 . S
C2648 C2649 1.386 . S
C2648 C2650 1.391 . S
C2649 C2648 1.386 . S
C2649 C2653 1.393 . S
C2650 H2642 0.950 . S
C2650 C2648 1.391 . S
C2650 C2651 1.400 . S
C2651 C2650 1.400 . S
C2651 C2652 1.398 . S
C2651 C2657 1.491 . S
C2652 H2643 0.950 . S
C2652 C2651 1.398 . S
C2652 C2653 1.391 . S
C2653 H2641 0.950 . S
C2653 C2649 1.393 . S
C2653 C2652 1.391 . S
C2654 H2644 0.950 . S
C2654 C2655 1.386 . S
C2654 C2656 1.391 . S
C2655 C2654 1.386 . S
C2655 C2659 1.393 . S
C2656 H2645 0.950 . S
C2656 C2654 1.391 . S
C2656 C2657 1.400 . S
C2657 C2651 1.491 . S
C2657 C2656 1.400 . S
C2657 C2658 1.398 . S
C2658 H2646 0.950 . S
C2658 C2657 1.398 . S
C2658 C2659 1.391 . S
C2659 H2647 0.950 . S
C2659 C2655 1.393 . S
C2659 C2658 1.391 . S
H2660 C2668 0.950 . S
H2661 C2673 0.950 . S
H2662 C2670 0.950 . S
H2663 C2672 0.950 . S
H2664 C2674 0.950 . S
H2665 C2676 0.950 . S
H2666 C2678 0.950 . S
H2667 C2679 0.950 . S
C2668 H2660 0.950 . S
C2668 C2669 1.386 . S
C2668 C2670 1.391 . S
C2669 C2668 1.386 . S
C2669 C2673 1.393 . S
C2670 H2662 0.950 . S
C2670 C2668 1.391 . S
C2670 C2671 1.400 . S
C2671 C2670 1.400 . S
C2671 C2672 1.398 . S
C2671 C2677 1.491 . S
C2672 H2663 0.950 . S
C2672 C2671 1.398 . S
C2672 C2673 1.391 . S
C2673 H2661 0.950 . S
C2673 C2669 1.393 . S
C2673 C2672 1.391 . S
C2674 H2664 0.950 . S
C2674 C2675 1.386 . S
C2674 C2676 1.391 . S
C2675 C2674 1.386 . S
C2675 C2679 1.393 . S
C2676 H2665 0.950 . S
C2676 C2674 1.391 . S
C2676 C2677 1.400 . S
C2677 C2671 1.491 . S
C2677 C2676 1.400 . S
C2677 C2678 1.398 . S
C2678 H2666 0.950 . S
C2678 C2677 1.398 . S
C2678 C2679 1.391 . S
C2679 H2667 0.950 . S
C2679 C2675 1.393 . S
C2679 C2678 1.391 . S
H2680 C2688 0.950 . S
H2681 C2693 0.950 . S
H2682 C2690 0.950 . S
H2683 C2692 0.950 . S
H2684 C2694 0.950 . S
H2685 C2696 0.950 . S
H2686 C2698 0.950 . S
H2687 C2699 0.950 . S
C2688 H2680 0.950 . S
C2688 C2689 1.386 . S
C2688 C2690 1.391 . S
C2689 C2688 1.386 . S
C2689 C2693 1.393 . S
C2690 H2682 0.950 . S
C2690 C2688 1.391 . S
C2690 C2691 1.400 . S
C2691 C2690 1.400 . S
C2691 C2692 1.398 . S
C2691 C2697 1.491 . S
C2692 H2683 0.950 . S
C2692 C2691 1.398 . S
C2692 C2693 1.391 . S
C2693 H2681 0.950 . S
C2693 C2689 1.393 . S
C2693 C2692 1.391 . S
C2694 H2684 0.950 . S
C2694 C2695 1.386 . S
C2694 C2696 1.391 . S
C2695 C2694 1.386 . S
C2695 C2699 1.393 . S
C2696 H2685 0.950 . S
C2696 C2694 1.391 . S
C2696 C2697 1.400 . S
C2697 C2691 1.491 . S
C2697 C2696 1.400 . S
C2697 C2698 1.398 . S
C2698 H2686 0.950 . S
C2698 C2697 1.398 . S
C2698 C2699 1.391 . S
C2699 H2687 0.950 . S
C2699 C2695 1.393 . S
C2699 C2698 1.391 . S
H2700 C2708 0.950 . S
H2701 C2713 0.950 . S
H2702 C2710 0.950 . S
H2703 C2712 0.950 . S
H2704 C2714 0.950 . S
H2705 C2716 0.950 1_655 S
H2706 C2718 0.950 . S
H2707 C2719 0.950 . S
C2708 H2700 0.950 . S
C2708 C2709 1.386 . S
C2708 C2710 1.391 . S
C2709 C2708 1.386 . S
C2709 C2713 1.393 . S
C2710 H2702 0.950 . S
C2710 C2708 1.391 . S
C2710 C2711 1.400 . S
C2711 C2710 1.400 . S
C2711 C2712 1.398 . S
C2711 C2717 1.491 . S
C2712 H2703 0.950 . S
C2712 C2711 1.398 . S
C2712 C2713 1.391 . S
C2713 H2701 0.950 . S
C2713 C2709 1.393 . S
C2713 C2712 1.391 . S
C2714 H2704 0.950 . S
C2714 C2715 1.386 . S
C2714 C2716 1.390 1_655 S
C2715 C2714 1.386 . S
C2715 C2719 1.393 1_655 S
C2716 H2705 0.950 1_455 S
C2716 C2714 1.390 1_455 S
C2716 C2717 1.401 . S
C2717 C2711 1.491 . S
C2717 C2716 1.401 . S
C2717 C2718 1.398 . S
C2718 H2706 0.950 . S
C2718 C2717 1.398 . S
C2718 C2719 1.391 . S
C2719 H2707 0.950 . S
C2719 C2715 1.393 1_455 S
C2719 C2718 1.391 . S
H2720 C2728 0.950 . S
H2721 C2733 0.950 . S
H2722 C2730 0.950 . S
H2723 C2732 0.950 . S
H2724 C2734 0.950 . S
H2725 C2736 0.950 . S
H2726 C2738 0.950 . S
H2727 C2739 0.950 . S
C2728 H2720 0.950 . S
C2728 C2729 1.386 . S
C2728 C2730 1.391 . S
C2729 C2728 1.386 . S
C2729 C2733 1.393 . S
C2730 H2722 0.950 . S
C2730 C2728 1.391 . S
C2730 C2731 1.400 . S
C2731 C2730 1.400 . S
C2731 C2732 1.398 . S
C2731 C2737 1.491 . S
C2732 H2723 0.950 . S
C2732 C2731 1.398 . S
C2732 C2733 1.391 . S
C2733 H2721 0.950 . S
C2733 C2729 1.393 . S
C2733 C2732 1.391 . S
C2734 H2724 0.950 . S
C2734 C2735 1.386 . S
C2734 C2736 1.391 . S
C2735 C2734 1.386 . S
C2735 C2739 1.393 . S
C2736 H2725 0.950 . S
C2736 C2734 1.391 . S
C2736 C2737 1.400 . S
C2737 C2731 1.491 . S
C2737 C2736 1.400 . S
C2737 C2738 1.398 . S
C2738 H2726 0.950 . S
C2738 C2737 1.398 . S
C2738 C2739 1.391 . S
C2739 H2727 0.950 . S
C2739 C2735 1.393 . S
C2739 C2738 1.391 . S
H2740 C2748 0.950 . S
H2741 C2753 0.950 . S
H2742 C2750 0.950 1_565 S
H2743 C2752 0.950 . S
H2744 C2754 0.950 . S
H2745 C2756 0.950 1_545 S
H2746 C2758 0.950 . S
H2747 C2759 0.950 . S
C2748 H2740 0.950 . S
C2748 C2749 1.386 . S
C2748 C2750 1.391 . S
C2749 C2748 1.386 . S
C2749 C2753 1.393 . S
C2750 H2742 0.950 1_545 S
C2750 C2748 1.391 . S
C2750 C2751 1.400 . S
C2751 C2750 1.400 . S
C2751 C2752 1.398 . S
C2751 C2757 1.491 1_545 S
C2752 H2743 0.950 . S
C2752 C2751 1.398 . S
C2752 C2753 1.391 . S
C2753 H2741 0.950 . S
C2753 C2749 1.393 . S
C2753 C2752 1.391 . S
C2754 H2744 0.950 . S
C2754 C2755 1.386 . S
C2754 C2756 1.391 . S
C2755 C2754 1.386 . S
C2755 C2759 1.393 . S
C2756 H2745 0.950 1_565 S
C2756 C2754 1.391 . S
C2756 C2757 1.400 . S
C2757 C2751 1.491 1_565 S
C2757 C2756 1.400 . S
C2757 C2758 1.398 . S
C2758 H2746 0.950 . S
C2758 C2757 1.398 . S
C2758 C2759 1.391 . S
C2759 H2747 0.950 . S
C2759 C2755 1.393 . S
C2759 C2758 1.391 . S
H2760 C2768 0.950 . S
H2761 C2773 0.950 . S
H2762 C2770 0.950 1_545 S
H2763 C2772 0.950 . S
H2764 C2774 0.950 . S
H2765 C2776 0.950 1_565 S
H2766 C2778 0.950 . S
H2767 C2779 0.950 . S
C2768 H2760 0.950 . S
C2768 C2769 1.386 . S
C2768 C2770 1.391 . S
C2769 C2768 1.386 . S
C2769 C2773 1.393 . S
C2770 H2762 0.950 1_565 S
C2770 C2768 1.391 . S
C2770 C2771 1.400 . S
C2771 C2770 1.400 . S
C2771 C2772 1.398 . S
C2771 C2777 1.491 1_565 S
C2772 H2763 0.950 . S
C2772 C2771 1.398 . S
C2772 C2773 1.391 . S
C2773 H2761 0.950 . S
C2773 C2769 1.393 . S
C2773 C2772 1.391 . S
C2774 H2764 0.950 . S
C2774 C2775 1.386 . S
C2774 C2776 1.391 . S
C2775 C2774 1.386 . S
C2775 C2779 1.393 . S
C2776 H2765 0.950 1_545 S
C2776 C2774 1.391 . S
C2776 C2777 1.400 . S
C2777 C2771 1.491 1_545 S
C2777 C2776 1.400 . S
C2777 C2778 1.398 . S
C2778 H2766 0.950 . S
C2778 C2777 1.398 . S
C2778 C2779 1.391 . S
C2779 H2767 0.950 . S
C2779 C2775 1.393 . S
C2779 C2778 1.391 . S
H2780 C2788 0.950 . S
H2781 C2793 0.950 . S
H2782 C2790 0.950 . S
H2783 C2792 0.950 . S
H2784 C2794 0.950 . S
H2785 C2796 0.950 . S
H2786 C2798 0.966 . S
H2787 C2799 0.950 . S
C2788 H2780 0.950 . S
C2788 C2789 1.386 . S
C2788 C2790 1.391 . S
C2789 C2788 1.386 . S
C2789 C2793 1.393 . S
C2790 H2782 0.950 . S
C2790 C2788 1.391 . S
C2790 C2791 1.400 . S
C2791 C2790 1.400 . S
C2791 C2792 1.398 . S
C2791 C2797 1.491 . S
C2792 H2783 0.950 . S
C2792 C2791 1.398 . S
C2792 C2793 1.391 . S
C2793 H2781 0.950 . S
C2793 C2789 1.393 . S
C2793 C2792 1.391 . S
C2794 H2784 0.950 . S
C2794 C2795 1.386 1_455 S
C2794 C2796 1.391 . S
C2795 C2794 1.386 1_655 S
C2795 C2799 1.393 . S
C2796 H2785 0.950 . S
C2796 C2794 1.391 . S
C2796 C2797 1.400 . S
C2797 C2791 1.491 . S
C2797 C2796 1.400 . S
C2797 C2798 1.375 1_455 S
C2798 H2786 0.966 . S
C2798 C2797 1.375 1_655 S
C2798 C2799 1.399 . S
C2799 H2787 0.950 . S
C2799 C2795 1.393 . S
C2799 C2798 1.399 . S
H2800 C2808 0.950 . S
H2801 C2813 0.950 . S
H2802 C2810 0.950 . S
H2803 C2812 0.950 . S
H2804 C2814 0.950 . S
H2805 C2816 0.950 . S
H2806 C2818 0.950 . S
H2807 C2819 0.950 . S
C2808 H2800 0.950 . S
C2808 C2809 1.386 . S
C2808 C2810 1.391 . S
C2809 C2808 1.386 . S
C2809 C2813 1.393 . S
C2810 H2802 0.950 . S
C2810 C2808 1.391 . S
C2810 C2811 1.400 . S
C2811 C2810 1.400 . S
C2811 C2812 1.398 . S
C2811 C2817 1.491 . S
C2812 H2803 0.950 . S
C2812 C2811 1.398 . S
C2812 C2813 1.391 . S
C2813 H2801 0.950 . S
C2813 C2809 1.393 . S
C2813 C2812 1.391 . S
C2814 H2804 0.950 . S
C2814 C2815 1.386 . S
C2814 C2816 1.391 . S
C2815 C2814 1.386 . S
C2815 C2819 1.393 . S
C2816 H2805 0.950 . S
C2816 C2814 1.391 . S
C2816 C2817 1.400 . S
C2817 C2811 1.491 . S
C2817 C2816 1.400 . S
C2817 C2818 1.398 . S
C2818 H2806 0.950 . S
C2818 C2817 1.398 . S
C2818 C2819 1.391 . S
C2819 H2807 0.950 . S
C2819 C2815 1.393 . S
C2819 C2818 1.391 . S
H2820 C2828 0.950 . S
H2821 C2833 0.950 . S
H2822 C2830 0.950 . S
H2823 C2832 0.950 . S
H2824 C2834 0.950 . S
H2825 C2836 0.950 . S
H2826 C2838 0.950 . S
H2827 C2839 0.950 . S
C2828 H2820 0.950 . S
C2828 C2829 1.386 . S
C2828 C2830 1.391 . S
C2829 C2828 1.386 . S
C2829 C2833 1.393 . S
C2830 H2822 0.950 . S
C2830 C2828 1.391 . S
C2830 C2831 1.400 . S
C2831 C2830 1.400 . S
C2831 C2832 1.398 . S
C2831 C2837 1.491 . S
C2832 H2823 0.950 . S
C2832 C2831 1.398 . S
C2832 C2833 1.391 . S
C2833 H2821 0.950 . S
C2833 C2829 1.393 . S
C2833 C2832 1.391 . S
C2834 H2824 0.950 . S
C2834 C2835 1.386 . S
C2834 C2836 1.391 . S
C2835 C2834 1.386 . S
C2835 C2839 1.393 . S
C2836 H2825 0.950 . S
C2836 C2834 1.391 . S
C2836 C2837 1.400 . S
C2837 C2831 1.491 . S
C2837 C2836 1.400 . S
C2837 C2838 1.398 . S
C2838 H2826 0.950 . S
C2838 C2837 1.398 . S
C2838 C2839 1.391 . S
C2839 H2827 0.950 . S
C2839 C2835 1.393 . S
C2839 C2838 1.391 . S
H2840 C2848 0.950 . S
H2841 C2853 0.950 . S
H2842 C2850 0.950 . S
H2843 C2852 0.950 . S
H2844 C2854 0.950 . S
H2845 C2856 0.950 . S
H2846 C2858 0.950 . S
H2847 C2859 0.950 . S
C2848 H2840 0.950 . S
C2848 C2849 1.386 . S
C2848 C2850 1.391 . S
C2849 C2848 1.386 . S
C2849 C2853 1.393 . S
C2850 H2842 0.950 . S
C2850 C2848 1.391 . S
C2850 C2851 1.400 . S
C2851 C2850 1.400 . S
C2851 C2852 1.398 . S
C2851 C2857 1.491 . S
C2852 H2843 0.950 . S
C2852 C2851 1.398 . S
C2852 C2853 1.391 . S
C2853 H2841 0.950 . S
C2853 C2849 1.393 . S
C2853 C2852 1.391 . S
C2854 H2844 0.950 . S
C2854 C2855 1.386 . S
C2854 C2856 1.391 . S
C2855 C2854 1.386 . S
C2855 C2859 1.393 . S
C2856 H2845 0.950 . S
C2856 C2854 1.391 . S
C2856 C2857 1.400 . S
C2857 C2851 1.491 . S
C2857 C2856 1.400 . S
C2857 C2858 1.398 . S
C2858 H2846 0.950 . S
C2858 C2857 1.398 . S
C2858 C2859 1.391 . S
C2859 H2847 0.950 . S
C2859 C2855 1.393 . S
C2859 C2858 1.391 . S
H2860 C2868 0.950 . S
H2861 C2873 0.950 . S
H2862 C2870 0.950 . S
H2863 C2872 0.950 . S
H2864 C2874 0.950 . S
H2865 C2876 0.950 . S
H2866 C2878 0.950 . S
H2867 C2879 0.950 . S
C2868 H2860 0.950 . S
C2868 C2869 1.386 . S
C2868 C2870 1.391 . S
C2869 C2868 1.386 . S
C2869 C2873 1.393 . S
C2870 H2862 0.950 . S
C2870 C2868 1.391 . S
C2870 C2871 1.400 . S
C2871 C2870 1.400 . S
C2871 C2872 1.398 . S
C2871 C2877 1.491 . S
C2872 H2863 0.950 . S
C2872 C2871 1.398 . S
C2872 C2873 1.391 . S
C2873 H2861 0.950 . S
C2873 C2869 1.393 . S
C2873 C2872 1.391 . S
C2874 H2864 0.950 . S
C2874 C2875 1.386 . S
C2874 C2876 1.391 . S
C2875 C2874 1.386 . S
C2875 C2879 1.393 . S
C2876 H2865 0.950 . S
C2876 C2874 1.391 . S
C2876 C2877 1.400 . S
C2877 C2871 1.491 . S
C2877 C2876 1.400 . S
C2877 C2878 1.398 . S
C2878 H2866 0.950 . S
C2878 C2877 1.398 . S
C2878 C2879 1.391 . S
C2879 H2867 0.950 . S
C2879 C2875 1.393 . S
C2879 C2878 1.391 . S
H2880 C2888 0.950 . S
H2881 C2893 0.950 . S
H2882 C2890 0.950 . S
H2883 C2892 0.950 . S
H2884 C2894 0.950 . S
H2885 C2896 0.950 . S
H2886 C2898 0.950 . S
H2887 C2899 0.950 . S
C2888 H2880 0.950 . S
C2888 C2889 1.386 . S
C2888 C2890 1.391 . S
C2889 C2888 1.386 . S
C2889 C2893 1.393 . S
C2890 H2882 0.950 . S
C2890 C2888 1.391 . S
C2890 C2891 1.400 . S
C2891 C2890 1.400 . S
C2891 C2892 1.398 . S
C2891 C2897 1.491 . S
C2892 H2883 0.950 . S
C2892 C2891 1.398 . S
C2892 C2893 1.391 . S
C2893 H2881 0.950 . S
C2893 C2889 1.393 . S
C2893 C2892 1.391 . S
C2894 H2884 0.950 . S
C2894 C2895 1.386 . S
C2894 C2896 1.391 . S
C2895 C2894 1.386 . S
C2895 C2899 1.393 . S
C2896 H2885 0.950 . S
C2896 C2894 1.391 . S
C2896 C2897 1.400 . S
C2897 C2891 1.491 . S
C2897 C2896 1.400 . S
C2897 C2898 1.398 . S
C2898 H2886 0.950 . S
C2898 C2897 1.398 . S
C2898 C2899 1.391 . S
C2899 H2887 0.950 . S
C2899 C2895 1.393 . S
C2899 C2898 1.391 . S
H2900 C2908 0.950 . S
H2901 C2913 0.950 . S
H2902 C2910 0.950 . S
H2903 C2912 0.950 . S
H2904 C2914 0.950 . S
H2905 C2916 0.950 . S
H2906 C2918 0.950 . S
H2907 C2919 0.950 . S
C2908 H2900 0.950 . S
C2908 C2909 1.386 . S
C2908 C2910 1.391 . S
C2909 C2908 1.386 . S
C2909 C2913 1.393 . S
C2910 H2902 0.950 . S
C2910 C2908 1.391 . S
C2910 C2911 1.400 . S
C2911 C2910 1.400 . S
C2911 C2912 1.398 . S
C2911 C2917 1.491 . S
C2912 H2903 0.950 . S
C2912 C2911 1.398 . S
C2912 C2913 1.391 . S
C2913 H2901 0.950 . S
C2913 C2909 1.393 . S
C2913 C2912 1.391 . S
C2914 H2904 0.950 . S
C2914 C2915 1.386 . S
C2914 C2916 1.391 . S
C2915 C2914 1.386 . S
C2915 C2919 1.393 . S
C2916 H2905 0.950 . S
C2916 C2914 1.391 . S
C2916 C2917 1.400 . S
C2917 C2911 1.491 . S
C2917 C2916 1.400 . S
C2917 C2918 1.398 . S
C2918 H2906 0.950 . S
C2918 C2917 1.398 . S
C2918 C2919 1.391 . S
C2919 H2907 0.950 . S
C2919 C2915 1.393 . S
C2919 C2918 1.391 . S
H2920 C2928 0.950 . S
H2921 C2933 0.950 . S
H2922 C2930 0.950 . S
H2923 C2932 0.950 . S
H2924 C2934 0.950 . S
H2925 C2936 0.950 . S
H2926 C2938 0.950 . S
H2927 C2939 0.950 . S
C2928 H2920 0.950 . S
C2928 C2929 1.386 . S
C2928 C2930 1.391 . S
C2929 C2928 1.386 . S
C2929 C2933 1.393 . S
C2930 H2922 0.950 . S
C2930 C2928 1.391 . S
C2930 C2931 1.400 . S
C2931 C2930 1.400 . S
C2931 C2932 1.398 . S
C2931 C2937 1.491 . S
C2932 H2923 0.950 . S
C2932 C2931 1.398 . S
C2932 C2933 1.391 . S
C2933 H2921 0.950 . S
C2933 C2929 1.393 . S
C2933 C2932 1.391 . S
C2934 H2924 0.950 . S
C2934 C2935 1.386 . S
C2934 C2936 1.391 . S
C2935 C2934 1.386 . S
C2935 C2939 1.393 . S
C2936 H2925 0.950 . S
C2936 C2934 1.391 . S
C2936 C2937 1.400 . S
C2937 C2931 1.491 . S
C2937 C2936 1.400 . S
C2937 C2938 1.398 . S
C2938 H2926 0.950 . S
C2938 C2937 1.398 . S
C2938 C2939 1.391 . S
C2939 H2927 0.950 . S
C2939 C2935 1.393 . S
C2939 C2938 1.391 . S
H2940 C2948 0.950 . S
H2941 C2953 0.950 . S
H2942 C2950 0.950 . S
H2943 C2952 0.950 . S
H2944 C2954 0.950 . S
H2945 C2956 0.950 . S
H2946 C2958 0.950 . S
H2947 C2959 0.950 . S
C2948 H2940 0.950 . S
C2948 C2949 1.386 . S
C2948 C2950 1.391 . S
C2949 C2948 1.386 . S
C2949 C2953 1.393 . S
C2950 H2942 0.950 . S
C2950 C2948 1.391 . S
C2950 C2951 1.400 . S
C2951 C2950 1.400 . S
C2951 C2952 1.398 . S
C2951 C2957 1.491 . S
C2952 H2943 0.950 . S
C2952 C2951 1.398 . S
C2952 C2953 1.391 . S
C2953 H2941 0.950 . S
C2953 C2949 1.393 . S
C2953 C2952 1.391 . S
C2954 H2944 0.950 . S
C2954 C2955 1.386 . S
C2954 C2956 1.391 . S
C2955 C2954 1.386 . S
C2955 C2959 1.393 . S
C2956 H2945 0.950 . S
C2956 C2954 1.391 . S
C2956 C2957 1.400 . S
C2957 C2951 1.491 . S
C2957 C2956 1.400 . S
C2957 C2958 1.398 . S
C2958 H2946 0.950 . S
C2958 C2957 1.398 . S
C2958 C2959 1.391 . S
C2959 H2947 0.950 . S
C2959 C2955 1.393 . S
C2959 C2958 1.391 . S
H2960 C2968 0.950 . S
H2961 C2973 0.950 . S
H2962 C2970 0.950 . S
H2963 C2972 0.950 . S
H2964 C2974 0.950 . S
H2965 C2976 0.950 . S
H2966 C2978 0.950 . S
H2967 C2979 0.950 . S
C2968 H2960 0.950 . S
C2968 C2969 1.386 . S
C2968 C2970 1.391 . S
C2969 C2968 1.386 . S
C2969 C2973 1.393 . S
C2970 H2962 0.950 . S
C2970 C2968 1.391 . S
C2970 C2971 1.400 . S
C2971 C2970 1.400 . S
C2971 C2972 1.398 . S
C2971 C2977 1.491 . S
C2972 H2963 0.950 . S
C2972 C2971 1.398 . S
C2972 C2973 1.391 . S
C2973 H2961 0.950 . S
C2973 C2969 1.393 . S
C2973 C2972 1.391 . S
C2974 H2964 0.950 . S
C2974 C2975 1.386 . S
C2974 C2976 1.391 . S
C2975 C2974 1.386 . S
C2975 C2979 1.393 . S
C2976 H2965 0.950 . S
C2976 C2974 1.391 . S
C2976 C2977 1.400 . S
C2977 C2971 1.491 . S
C2977 C2976 1.400 . S
C2977 C2978 1.398 . S
C2978 H2966 0.950 . S
C2978 C2977 1.398 . S
C2978 C2979 1.391 . S
C2979 H2967 0.950 . S
C2979 C2975 1.393 . S
C2979 C2978 1.391 . S
H2980 C2988 0.950 . S
H2981 C2993 0.950 . S
H2982 C2990 0.950 . S
H2983 C2992 0.950 . S
H2984 C2994 0.950 . S
H2985 C2996 0.950 . S
H2986 C2998 0.950 . S
H2987 C2999 0.950 . S
C2988 H2980 0.950 . S
C2988 C2989 1.386 . S
C2988 C2990 1.391 . S
C2989 C2988 1.386 . S
C2989 C2993 1.393 . S
C2990 H2982 0.950 . S
C2990 C2988 1.391 . S
C2990 C2991 1.400 . S
C2991 C2990 1.400 . S
C2991 C2992 1.398 . S
C2991 C2997 1.491 . S
C2992 H2983 0.950 . S
C2992 C2991 1.398 . S
C2992 C2993 1.391 . S
C2993 H2981 0.950 . S
C2993 C2989 1.393 . S
C2993 C2992 1.391 . S
C2994 H2984 0.950 . S
C2994 C2995 1.386 . S
C2994 C2996 1.391 . S
C2995 C2994 1.386 . S
C2995 C2999 1.393 . S
C2996 H2985 0.950 . S
C2996 C2994 1.391 . S
C2996 C2997 1.400 . S
C2997 C2991 1.491 . S
C2997 C2996 1.400 . S
C2997 C2998 1.398 . S
C2998 H2986 0.950 . S
C2998 C2997 1.398 . S
C2998 C2999 1.391 . S
C2999 H2987 0.950 . S
C2999 C2995 1.393 . S
C2999 C2998 1.391 . S
H3000 C3008 0.950 . S
H3001 C3013 0.950 . S
H3002 C3010 0.950 . S
H3003 C3012 0.950 . S
H3004 C3014 0.950 . S
H3005 C3016 0.950 . S
H3006 C3018 0.950 . S
H3007 C3019 0.950 . S
C3008 H3000 0.950 . S
C3008 C3009 1.386 . S
C3008 C3010 1.391 . S
C3009 C3008 1.386 . S
C3009 C3013 1.393 . S
C3010 H3002 0.950 . S
C3010 C3008 1.391 . S
C3010 C3011 1.400 . S
C3011 C3010 1.400 . S
C3011 C3012 1.398 . S
C3011 C3017 1.491 . S
C3012 H3003 0.950 . S
C3012 C3011 1.398 . S
C3012 C3013 1.391 . S
C3013 H3001 0.950 . S
C3013 C3009 1.393 . S
C3013 C3012 1.391 . S
C3014 H3004 0.950 . S
C3014 C3015 1.386 . S
C3014 C3016 1.391 . S
C3015 C3014 1.386 . S
C3015 C3019 1.393 . S
C3016 H3005 0.950 . S
C3016 C3014 1.391 . S
C3016 C3017 1.400 . S
C3017 C3011 1.491 . S
C3017 C3016 1.400 . S
C3017 C3018 1.398 . S
C3018 H3006 0.950 . S
C3018 C3017 1.398 . S
C3018 C3019 1.391 . S
C3019 H3007 0.950 . S
C3019 C3015 1.393 . S
C3019 C3018 1.391 . S
H3020 C3028 0.950 . S
H3021 C3033 0.950 . S
H3022 C3030 0.950 . S
H3023 C3032 0.950 . S
H3024 C3034 0.950 . S
H3025 C3036 0.950 . S
H3026 C3038 0.950 . S
H3027 C3039 0.950 . S
C3028 H3020 0.950 . S
C3028 C3029 1.386 . S
C3028 C3030 1.391 . S
C3029 C3028 1.386 . S
C3029 C3033 1.393 . S
C3030 H3022 0.950 . S
C3030 C3028 1.391 . S
C3030 C3031 1.400 . S
C3031 C3030 1.400 . S
C3031 C3032 1.398 . S
C3031 C3037 1.491 . S
C3032 H3023 0.950 . S
C3032 C3031 1.398 . S
C3032 C3033 1.391 . S
C3033 H3021 0.950 . S
C3033 C3029 1.393 . S
C3033 C3032 1.391 . S
C3034 H3024 0.950 . S
C3034 C3035 1.386 . S
C3034 C3036 1.391 . S
C3035 C3034 1.386 . S
C3035 C3039 1.393 . S
C3036 H3025 0.950 . S
C3036 C3034 1.391 . S
C3036 C3037 1.400 . S
C3037 C3031 1.491 . S
C3037 C3036 1.400 . S
C3037 C3038 1.398 . S
C3038 H3026 0.950 . S
C3038 C3037 1.398 . S
C3038 C3039 1.391 . S
C3039 H3027 0.950 . S
C3039 C3035 1.393 . S
C3039 C3038 1.391 . S
H3040 C3048 0.950 . S
H3041 C3053 0.950 . S
H3042 C3050 0.950 . S
H3043 C3052 0.950 . S
H3044 C3054 0.950 . S
H3045 C3056 0.950 . S
H3046 C3058 0.950 . S
H3047 C3059 0.950 . S
C3048 H3040 0.950 . S
C3048 C3049 1.386 . S
C3048 C3050 1.391 . S
C3049 C3048 1.386 . S
C3049 C3053 1.393 . S
C3050 H3042 0.950 . S
C3050 C3048 1.391 . S
C3050 C3051 1.400 . S
C3051 C3050 1.400 . S
C3051 C3052 1.398 . S
C3051 C3057 1.491 . S
C3052 H3043 0.950 . S
C3052 C3051 1.398 . S
C3052 C3053 1.391 . S
C3053 H3041 0.950 . S
C3053 C3049 1.393 . S
C3053 C3052 1.391 . S
C3054 H3044 0.950 . S
C3054 C3055 1.386 . S
C3054 C3056 1.391 . S
C3055 C3054 1.386 . S
C3055 C3059 1.393 . S
C3056 H3045 0.950 . S
C3056 C3054 1.391 . S
C3056 C3057 1.400 . S
C3057 C3051 1.491 . S
C3057 C3056 1.400 . S
C3057 C3058 1.398 . S
C3058 H3046 0.950 . S
C3058 C3057 1.398 . S
C3058 C3059 1.391 . S
C3059 H3047 0.950 . S
C3059 C3055 1.393 . S
C3059 C3058 1.391 . S
H3060 C3068 0.950 . S
H3061 C3073 0.950 . S
H3062 C3070 0.950 . S
H3063 C3072 0.950 . S
H3064 C3074 0.950 . S
H3065 C3076 0.950 . S
H3066 C3078 0.950 . S
H3067 C3079 0.950 . S
C3068 H3060 0.950 . S
C3068 C3069 1.386 . S
C3068 C3070 1.391 . S
C3069 C3068 1.386 . S
C3069 C3073 1.393 . S
C3070 H3062 0.950 . S
C3070 C3068 1.391 . S
C3070 C3071 1.400 . S
C3071 C3070 1.400 . S
C3071 C3072 1.398 . S
C3071 C3077 1.491 . S
C3072 H3063 0.950 . S
C3072 C3071 1.398 . S
C3072 C3073 1.391 . S
C3073 H3061 0.950 . S
C3073 C3069 1.393 . S
C3073 C3072 1.391 . S
C3074 H3064 0.950 . S
C3074 C3075 1.386 . S
C3074 C3076 1.391 . S
C3075 C3074 1.386 . S
C3075 C3079 1.393 . S
C3076 H3065 0.950 . S
C3076 C3074 1.391 . S
C3076 C3077 1.400 . S
C3077 C3071 1.491 . S
C3077 C3076 1.400 . S
C3077 C3078 1.398 . S
C3078 H3066 0.950 . S
C3078 C3077 1.398 . S
C3078 C3079 1.391 . S
C3079 H3067 0.950 . S
C3079 C3075 1.393 . S
C3079 C3078 1.391 . S
H3080 C3088 0.950 . S
H3081 C3093 0.950 . S
H3082 C3090 0.950 . S
H3083 C3092 0.950 . S
H3084 C3094 0.950 . S
H3085 C3096 0.950 . S
H3086 C3098 0.950 . S
H3087 C3099 0.950 . S
C3088 H3080 0.950 . S
C3088 C3089 1.386 . S
C3088 C3090 1.391 . S
C3089 C3088 1.386 . S
C3089 C3093 1.393 . S
C3090 H3082 0.950 . S
C3090 C3088 1.391 . S
C3090 C3091 1.400 . S
C3091 C3090 1.400 . S
C3091 C3092 1.398 . S
C3091 C3097 1.491 . S
C3092 H3083 0.950 . S
C3092 C3091 1.398 . S
C3092 C3093 1.391 . S
C3093 H3081 0.950 . S
C3093 C3089 1.393 . S
C3093 C3092 1.391 . S
C3094 H3084 0.950 . S
C3094 C3095 1.386 . S
C3094 C3096 1.391 . S
C3095 C3094 1.386 . S
C3095 C3099 1.393 . S
C3096 H3085 0.950 . S
C3096 C3094 1.391 . S
C3096 C3097 1.400 . S
C3097 C3091 1.491 . S
C3097 C3096 1.400 . S
C3097 C3098 1.398 . S
C3098 H3086 0.950 . S
C3098 C3097 1.398 . S
C3098 C3099 1.391 . S
C3099 H3087 0.950 . S
C3099 C3095 1.393 . S
C3099 C3098 1.391 . S
H3100 C3108 0.950 . S
H3101 C3113 0.950 . S
H3102 C3110 0.950 . S
H3103 C3112 0.950 . S
H3104 C3114 0.950 . S
H3105 C3116 0.950 . S
H3106 C3118 0.950 . S
H3107 C3119 0.950 . S
C3108 H3100 0.950 . S
C3108 C3109 1.386 . S
C3108 C3110 1.391 . S
C3109 C3108 1.386 . S
C3109 C3113 1.393 . S
C3110 H3102 0.950 . S
C3110 C3108 1.391 . S
C3110 C3111 1.400 . S
C3111 C3110 1.400 . S
C3111 C3112 1.398 . S
C3111 C3117 1.491 . S
C3112 H3103 0.950 . S
C3112 C3111 1.398 . S
C3112 C3113 1.391 . S
C3113 H3101 0.950 . S
C3113 C3109 1.393 . S
C3113 C3112 1.391 . S
C3114 H3104 0.950 . S
C3114 C3115 1.386 . S
C3114 C3116 1.391 . S
C3115 C3114 1.386 . S
C3115 C3119 1.393 . S
C3116 H3105 0.950 . S
C3116 C3114 1.391 . S
C3116 C3117 1.400 . S
C3117 C3111 1.491 . S
C3117 C3116 1.400 . S
C3117 C3118 1.398 . S
C3118 H3106 0.950 . S
C3118 C3117 1.398 . S
C3118 C3119 1.391 . S
C3119 H3107 0.950 . S
C3119 C3115 1.393 . S
C3119 C3118 1.391 . S
H3120 C3128 0.950 . S
H3121 C3133 0.950 . S
H3122 C3130 0.950 . S
H3123 C3132 0.950 . S
H3124 C3134 0.950 . S
H3125 C3136 0.950 . S
H3126 C3138 0.950 . S
H3127 C3139 0.950 . S
C3128 H3120 0.950 . S
C3128 C3129 1.386 . S
C3128 C3130 1.391 . S
C3129 C3128 1.386 . S
C3129 C3133 1.393 . S
C3130 H3122 0.950 . S
C3130 C3128 1.391 . S
C3130 C3131 1.400 . S
C3131 C3130 1.400 . S
C3131 C3132 1.398 . S
C3131 C3137 1.491 . S
C3132 H3123 0.950 . S
C3132 C3131 1.398 . S
C3132 C3133 1.391 . S
C3133 H3121 0.950 . S
C3133 C3129 1.393 . S
C3133 C3132 1.391 . S
C3134 H3124 0.950 . S
C3134 C3135 1.386 . S
C3134 C3136 1.391 . S
C3135 C3134 1.386 . S
C3135 C3139 1.393 . S
C3136 H3125 0.950 . S
C3136 C3134 1.391 . S
C3136 C3137 1.400 . S
C3137 C3131 1.491 . S
C3137 C3136 1.400 . S
C3137 C3138 1.398 . S
C3138 H3126 0.950 . S
C3138 C3137 1.398 . S
C3138 C3139 1.391 . S
C3139 H3127 0.950 . S
C3139 C3135 1.393 . S
C3139 C3138 1.391 . S
H3140 C3148 0.950 . S
H3141 C3153 0.950 . S
H3142 C3150 0.950 . S
H3143 C3152 0.950 . S
H3144 C3154 0.950 . S
H3145 C3156 0.950 . S
H3146 C3158 0.950 . S
H3147 C3159 0.950 . S
C3148 H3140 0.950 . S
C3148 C3149 1.386 . S
C3148 C3150 1.391 . S
C3149 C3148 1.386 . S
C3149 C3153 1.393 . S
C3150 H3142 0.950 . S
C3150 C3148 1.391 . S
C3150 C3151 1.400 . S
C3151 C3150 1.400 . S
C3151 C3152 1.398 . S
C3151 C3157 1.491 . S
C3152 H3143 0.950 . S
C3152 C3151 1.398 . S
C3152 C3153 1.391 . S
C3153 H3141 0.950 . S
C3153 C3149 1.393 . S
C3153 C3152 1.391 . S
C3154 H3144 0.950 . S
C3154 C3155 1.386 . S
C3154 C3156 1.391 . S
C3155 C3154 1.386 . S
C3155 C3159 1.393 . S
C3156 H3145 0.950 . S
C3156 C3154 1.391 . S
C3156 C3157 1.400 . S
C3157 C3151 1.491 . S
C3157 C3156 1.400 . S
C3157 C3158 1.398 . S
C3158 H3146 0.950 . S
C3158 C3157 1.398 . S
C3158 C3159 1.391 . S
C3159 H3147 0.950 . S
C3159 C3155 1.393 . S
C3159 C3158 1.391 . S
H3160 C3168 0.950 . S
H3161 C3173 0.950 . S
H3162 C3170 0.950 . S
H3163 C3172 0.950 . S
H3164 C3174 0.950 . S
H3165 C3176 0.950 . S
H3166 C3178 0.950 . S
H3167 C3179 0.950 . S
C3168 H3160 0.950 . S
C3168 C3169 1.386 . S
C3168 C3170 1.391 . S
C3169 C3168 1.386 . S
C3169 C3173 1.393 . S
C3170 H3162 0.950 . S
C3170 C3168 1.391 . S
C3170 C3171 1.400 . S
C3171 C3170 1.400 . S
C3171 C3172 1.398 . S
C3171 C3177 1.491 . S
C3172 H3163 0.950 . S
C3172 C3171 1.398 . S
C3172 C3173 1.391 . S
C3173 H3161 0.950 . S
C3173 C3169 1.393 . S
C3173 C3172 1.391 . S
C3174 H3164 0.950 . S
C3174 C3175 1.386 . S
C3174 C3176 1.391 . S
C3175 C3174 1.386 . S
C3175 C3179 1.393 . S
C3176 H3165 0.950 . S
C3176 C3174 1.391 . S
C3176 C3177 1.400 . S
C3177 C3171 1.491 . S
C3177 C3176 1.400 . S
C3177 C3178 1.398 . S
C3178 H3166 0.950 . S
C3178 C3177 1.398 . S
C3178 C3179 1.391 . S
C3179 H3167 0.950 . S
C3179 C3175 1.393 . S
C3179 C3178 1.391 . S
H3180 C3188 0.950 . S
H3181 C3193 0.950 . S
H3182 C3190 0.950 . S
H3183 C3192 0.950 . S
H3184 C3194 0.950 . S
H3185 C3196 0.950 1_455 S
H3186 C3198 0.950 1_455 S
H3187 C3199 0.950 . S
C3188 H3180 0.950 . S
C3188 C3189 1.386 . S
C3188 C3190 1.391 . S
C3189 C3188 1.386 . S
C3189 C3193 1.393 . S
C3190 H3182 0.950 . S
C3190 C3188 1.391 . S
C3190 C3191 1.400 . S
C3191 C3190 1.400 . S
C3191 C3192 1.398 . S
C3191 C3197 1.491 . S
C3192 H3183 0.950 . S
C3192 C3191 1.398 . S
C3192 C3193 1.391 . S
C3193 H3181 0.950 . S
C3193 C3189 1.393 . S
C3193 C3192 1.391 . S
C3194 H3184 0.950 . S
C3194 C3195 1.386 . S
C3194 C3196 1.391 . S
C3195 C3194 1.386 . S
C3195 C3199 1.393 . S
C3196 H3185 0.950 1_655 S
C3196 C3194 1.391 . S
C3196 C3197 1.400 1_655 S
C3197 C3191 1.491 . S
C3197 C3196 1.400 1_455 S
C3197 C3198 1.398 1_455 S
C3198 H3186 0.950 1_655 S
C3198 C3197 1.398 1_655 S
C3198 C3199 1.391 . S
C3199 H3187 0.950 . S
C3199 C3195 1.393 . S
C3199 C3198 1.391 . S
H3200 C3208 0.950 . S
H3201 C3213 0.950 . S
H3202 C3210 0.950 . S
H3203 C3212 0.950 . S
H3204 C3214 0.950 . S
H3205 C3216 0.950 . S
H3206 C3218 0.950 . S
H3207 C3219 0.950 . S
C3208 H3200 0.950 . S
C3208 C3209 1.386 . S
C3208 C3210 1.391 . S
C3209 C3208 1.386 . S
C3209 C3213 1.393 . S
C3210 H3202 0.950 . S
C3210 C3208 1.391 . S
C3210 C3211 1.400 . S
C3211 C3210 1.400 . S
C3211 C3212 1.398 . S
C3211 C3217 1.491 . S
C3212 H3203 0.950 . S
C3212 C3211 1.398 . S
C3212 C3213 1.391 . S
C3213 H3201 0.950 . S
C3213 C3209 1.393 . S
C3213 C3212 1.391 . S
C3214 H3204 0.950 . S
C3214 C3215 1.386 . S
C3214 C3216 1.391 . S
C3215 C3214 1.386 . S
C3215 C3219 1.393 . S
C3216 H3205 0.950 . S
C3216 C3214 1.391 . S
C3216 C3217 1.400 . S
C3217 C3211 1.491 . S
C3217 C3216 1.400 . S
C3217 C3218 1.398 . S
C3218 H3206 0.950 . S
C3218 C3217 1.398 . S
C3218 C3219 1.391 . S
C3219 H3207 0.950 . S
C3219 C3215 1.393 . S
C3219 C3218 1.391 . S
H3220 C3228 0.950 . S
H3221 C3233 0.950 . S
H3222 C3230 0.950 . S
H3223 C3232 0.950 . S
H3224 C3234 0.950 . S
H3225 C3236 0.950 . S
H3226 C3238 0.950 1_545 S
H3227 C3239 0.950 . S
C3228 H3220 0.950 . S
C3228 C3229 1.386 . S
C3228 C3230 1.391 . S
C3229 C3228 1.386 . S
C3229 C3233 1.393 . S
C3230 H3222 0.950 . S
C3230 C3228 1.391 . S
C3230 C3231 1.400 . S
C3231 C3230 1.400 . S
C3231 C3232 1.398 . S
C3231 C3237 1.491 1_545 S
C3232 H3223 0.950 . S
C3232 C3231 1.398 . S
C3232 C3233 1.391 . S
C3233 H3221 0.950 . S
C3233 C3229 1.393 . S
C3233 C3232 1.391 . S
C3234 H3224 0.950 . S
C3234 C3235 1.386 . S
C3234 C3236 1.391 . S
C3235 C3234 1.386 . S
C3235 C3239 1.393 . S
C3236 H3225 0.950 . S
C3236 C3234 1.391 . S
C3236 C3237 1.400 . S
C3237 C3231 1.491 1_565 S
C3237 C3236 1.400 . S
C3237 C3238 1.398 . S
C3238 H3226 0.950 1_565 S
C3238 C3237 1.398 . S
C3238 C3239 1.391 . S
C3239 H3227 0.950 . S
C3239 C3235 1.393 . S
C3239 C3238 1.391 . S
H3240 C3248 0.950 . S
H3241 C3253 0.950 . S
H3242 C3250 0.938 1_545 S
H3243 C3252 0.950 . S
H3244 C3254 0.950 . S
H3245 C3256 0.950 . S
H3246 C3258 0.950 . S
H3247 C3259 0.950 . S
C3248 H3240 0.950 . S
C3248 C3249 1.386 . S
C3248 C3250 1.391 . S
C3249 C3248 1.386 . S
C3249 C3253 1.393 . S
C3250 H3242 0.938 1_565 S
C3250 C3248 1.391 . S
C3250 C3251 1.400 . S
C3251 C3250 1.400 . S
C3251 C3252 1.398 . S
C3251 C3257 1.491 1_565 S
C3252 H3243 0.950 . S
C3252 C3251 1.398 . S
C3252 C3253 1.391 . S
C3253 H3241 0.950 . S
C3253 C3249 1.393 . S
C3253 C3252 1.391 . S
C3254 H3244 0.950 . S
C3254 C3255 1.386 . S
C3254 C3256 1.391 . S
C3255 C3254 1.386 . S
C3255 C3259 1.393 . S
C3256 H3245 0.950 . S
C3256 C3254 1.391 . S
C3256 C3257 1.400 . S
C3257 C3251 1.491 1_545 S
C3257 C3256 1.400 . S
C3257 C3258 1.398 . S
C3258 H3246 0.950 . S
C3258 C3257 1.398 . S
C3258 C3259 1.391 . S
C3259 H3247 0.950 . S
C3259 C3255 1.393 . S
C3259 C3258 1.391 . S
H3260 C3268 0.950 . S
H3261 C3273 0.950 . S
H3262 C3270 0.950 . S
H3263 C3272 0.950 . S
H3264 C3274 0.950 . S
H3265 C3276 0.950 . S
H3266 C3278 0.950 . S
H3267 C3279 0.950 . S
C3268 H3260 0.950 . S
C3268 C3269 1.386 . S
C3268 C3270 1.391 . S
C3269 C3268 1.386 . S
C3269 C3273 1.393 . S
C3270 H3262 0.950 . S
C3270 C3268 1.391 . S
C3270 C3271 1.400 . S
C3271 C3270 1.400 . S
C3271 C3272 1.398 . S
C3271 C3277 1.491 . S
C3272 H3263 0.950 . S
C3272 C3271 1.398 . S
C3272 C3273 1.391 . S
C3273 H3261 0.950 . S
C3273 C3269 1.393 . S
C3273 C3272 1.391 . S
C3274 H3264 0.950 . S
C3274 C3275 1.386 . S
C3274 C3276 1.391 1_655 S
C3275 C3274 1.386 . S
C3275 C3279 1.393 . S
C3276 H3265 0.950 . S
C3276 C3274 1.391 1_455 S
C3276 C3277 1.400 . S
C3277 C3271 1.491 . S
C3277 C3276 1.400 . S
C3277 C3278 1.398 1_455 S
C3278 H3266 0.950 . S
C3278 C3277 1.398 1_655 S
C3278 C3279 1.391 . S
C3279 H3267 0.950 . S
C3279 C3275 1.393 . S
C3279 C3278 1.391 . S
H3280 C3288 0.950 . S
H3281 C3293 0.950 . S
H3282 C3290 0.950 . S
H3283 C3292 0.950 . S
H3284 C3294 0.950 . S
H3285 C3296 0.950 . S
H3286 C3298 0.950 . S
H3287 C3299 0.950 . S
C3288 H3280 0.950 . S
C3288 C3289 1.386 . S
C3288 C3290 1.391 . S
C3289 C3288 1.386 . S
C3289 C3293 1.393 . S
C3290 H3282 0.950 . S
C3290 C3288 1.391 . S
C3290 C3291 1.400 . S
C3291 C3290 1.400 . S
C3291 C3292 1.398 . S
C3291 C3297 1.491 . S
C3292 H3283 0.950 . S
C3292 C3291 1.398 . S
C3292 C3293 1.391 . S
C3293 H3281 0.950 . S
C3293 C3289 1.393 . S
C3293 C3292 1.391 . S
C3294 H3284 0.950 . S
C3294 C3295 1.386 . S
C3294 C3296 1.391 . S
C3295 C3294 1.386 . S
C3295 C3299 1.393 . S
C3296 H3285 0.950 . S
C3296 C3294 1.391 . S
C3296 C3297 1.400 . S
C3297 C3291 1.491 . S
C3297 C3296 1.400 . S
C3297 C3298 1.398 . S
C3298 H3286 0.950 . S
C3298 C3297 1.398 . S
C3298 C3299 1.391 . S
C3299 H3287 0.950 . S
C3299 C3295 1.393 . S
C3299 C3298 1.391 . S
H3300 C3308 0.950 . S
H3301 C3313 0.950 . S
H3302 C3310 0.950 . S
H3303 C3312 0.950 . S
H3304 C3314 0.950 . S
H3305 C3316 0.950 . S
H3306 C3318 0.950 . S
H3307 C3319 0.950 . S
C3308 H3300 0.950 . S
C3308 C3309 1.386 . S
C3308 C3310 1.391 . S
C3309 C3308 1.386 . S
C3309 C3313 1.393 . S
C3310 H3302 0.950 . S
C3310 C3308 1.391 . S
C3310 C3311 1.400 . S
C3311 C3310 1.400 . S
C3311 C3312 1.398 . S
C3311 C3317 1.491 . S
C3312 H3303 0.950 . S
C3312 C3311 1.398 . S
C3312 C3313 1.391 . S
C3313 H3301 0.950 . S
C3313 C3309 1.393 . S
C3313 C3312 1.391 . S
C3314 H3304 0.950 . S
C3314 C3315 1.386 . S
C3314 C3316 1.391 . S
C3315 C3314 1.386 . S
C3315 C3319 1.393 . S
C3316 H3305 0.950 . S
C3316 C3314 1.391 . S
C3316 C3317 1.400 . S
C3317 C3311 1.491 . S
C3317 C3316 1.400 . S
C3317 C3318 1.398 . S
C3318 H3306 0.950 . S
C3318 C3317 1.398 . S
C3318 C3319 1.391 . S
C3319 H3307 0.950 . S
C3319 C3315 1.393 . S
C3319 C3318 1.391 . S
H3320 C3328 0.950 . S
H3321 C3333 0.950 . S
H3322 C3330 0.950 . S
H3323 C3332 0.950 . S
H3324 C3334 0.950 . S
H3325 C3336 0.950 . S
H3326 C3338 0.950 . S
H3327 C3339 0.950 . S
C3328 H3320 0.950 . S
C3328 C3329 1.386 . S
C3328 C3330 1.391 . S
C3329 C3328 1.386 . S
C3329 C3333 1.393 . S
C3330 H3322 0.950 . S
C3330 C3328 1.391 . S
C3330 C3331 1.400 . S
C3331 C3330 1.400 . S
C3331 C3332 1.398 . S
C3331 C3337 1.491 . S
C3332 H3323 0.950 . S
C3332 C3331 1.398 . S
C3332 C3333 1.391 . S
C3333 H3321 0.950 . S
C3333 C3329 1.393 . S
C3333 C3332 1.391 . S
C3334 H3324 0.950 . S
C3334 C3335 1.386 . S
C3334 C3336 1.391 . S
C3335 C3334 1.386 . S
C3335 C3339 1.393 . S
C3336 H3325 0.950 . S
C3336 C3334 1.391 . S
C3336 C3337 1.400 . S
C3337 C3331 1.491 . S
C3337 C3336 1.400 . S
C3337 C3338 1.398 . S
C3338 H3326 0.950 . S
C3338 C3337 1.398 . S
C3338 C3339 1.391 . S
C3339 H3327 0.950 . S
C3339 C3335 1.393 . S
C3339 C3338 1.391 . S
H3340 C3348 0.950 . S
H3341 C3353 0.950 . S
H3342 C3350 0.950 . S
H3343 C3352 0.950 . S
H3344 C3354 0.950 . S
H3345 C3356 0.950 . S
H3346 C3358 0.950 . S
H3347 C3359 0.950 . S
C3348 H3340 0.950 . S
C3348 C3349 1.386 . S
C3348 C3350 1.391 . S
C3349 C3348 1.386 . S
C3349 C3353 1.393 . S
C3350 H3342 0.950 . S
C3350 C3348 1.391 . S
C3350 C3351 1.400 . S
C3351 C3350 1.400 . S
C3351 C3352 1.398 . S
C3351 C3357 1.491 . S
C3352 H3343 0.950 . S
C3352 C3351 1.398 . S
C3352 C3353 1.391 . S
C3353 H3341 0.950 . S
C3353 C3349 1.393 . S
C3353 C3352 1.391 . S
C3354 H3344 0.950 . S
C3354 C3355 1.386 . S
C3354 C3356 1.391 . S
C3355 C3354 1.386 . S
C3355 C3359 1.393 . S
C3356 H3345 0.950 . S
C3356 C3354 1.391 . S
C3356 C3357 1.400 . S
C3357 C3351 1.491 . S
C3357 C3356 1.400 . S
C3357 C3358 1.398 . S
C3358 H3346 0.950 . S
C3358 C3357 1.398 . S
C3358 C3359 1.391 . S
C3359 H3347 0.950 . S
C3359 C3355 1.393 . S
C3359 C3358 1.391 . S
H3360 C3368 0.950 . S
H3361 C3373 0.950 . S
H3362 C3370 0.932 1_545 S
H3363 C3372 0.950 1_545 S
H3364 C3374 0.950 . S
H3365 C3376 0.950 . S
H3366 C3378 0.950 . S
H3367 C3379 0.950 . S
C3368 H3360 0.950 . S
C3368 C3369 1.386 . S
C3368 C3370 1.391 . S
C3369 C3368 1.386 . S
C3369 C3373 1.393 . S
C3370 H3362 0.932 1_565 S
C3370 C3368 1.391 . S
C3370 C3371 1.400 1_565 S
C3371 C3370 1.400 1_545 S
C3371 C3372 1.398 1_545 S
C3371 C3377 1.491 . S
C3372 H3363 0.950 1_565 S
C3372 C3371 1.398 1_565 S
C3372 C3373 1.391 . S
C3373 H3361 0.950 . S
C3373 C3369 1.393 . S
C3373 C3372 1.391 . S
C3374 H3364 0.950 . S
C3374 C3375 1.386 . S
C3374 C3376 1.391 . S
C3375 C3374 1.386 . S
C3375 C3379 1.393 . S
C3376 H3365 0.950 . S
C3376 C3374 1.391 . S
C3376 C3377 1.400 . S
C3377 C3371 1.491 . S
C3377 C3376 1.400 . S
C3377 C3378 1.398 . S
C3378 H3366 0.950 . S
C3378 C3377 1.398 . S
C3378 C3379 1.391 . S
C3379 H3367 0.950 . S
C3379 C3375 1.393 . S
C3379 C3378 1.391 . S
H3380 C3388 0.950 . S
H3381 C3393 0.950 . S
H3382 C3390 0.950 1_455 S
H3383 C3392 0.950 . S
H3384 C3394 0.950 . S
H3385 C3396 0.950 . S
H3386 C3398 0.950 . S
H3387 C3399 0.950 . S
C3388 H3380 0.950 . S
C3388 C3389 1.386 . S
C3388 C3390 1.391 . S
C3389 C3388 1.386 . S
C3389 C3393 1.393 . S
C3390 H3382 0.950 1_655 S
C3390 C3388 1.391 . S
C3390 C3391 1.400 . S
C3391 C3390 1.400 . S
C3391 C3392 1.398 . S
C3391 C3397 1.491 1_655 S
C3392 H3383 0.950 . S
C3392 C3391 1.398 . S
C3392 C3393 1.391 . S
C3393 H3381 0.950 . S
C3393 C3389 1.393 . S
C3393 C3392 1.391 . S
C3394 H3384 0.950 . S
C3394 C3395 1.386 . S
C3394 C3396 1.391 . S
C3395 C3394 1.386 . S
C3395 C3399 1.393 . S
C3396 H3385 0.950 . S
C3396 C3394 1.391 . S
C3396 C3397 1.400 . S
C3397 C3391 1.491 1_455 S
C3397 C3396 1.400 . S
C3397 C3398 1.398 . S
C3398 H3386 0.950 . S
C3398 C3397 1.398 . S
C3398 C3399 1.391 . S
C3399 H3387 0.950 . S
C3399 C3395 1.393 . S
C3399 C3398 1.391 . S
H3400 C3408 0.950 . S
H3401 C3413 0.950 . S
H3402 C3410 0.950 . S
H3403 C3412 0.950 . S
H3404 C3414 0.950 . S
H3405 C3416 0.950 . S
H3406 C3418 0.950 . S
H3407 C3419 0.950 . S
C3408 H3400 0.950 . S
C3408 C3409 1.386 . S
C3408 C3410 1.391 . S
C3409 C3408 1.386 . S
C3409 C3413 1.393 . S
C3410 H3402 0.950 . S
C3410 C3408 1.391 . S
C3410 C3411 1.400 . S
C3411 C3410 1.400 . S
C3411 C3412 1.398 . S
C3411 C3417 1.491 . S
C3412 H3403 0.950 . S
C3412 C3411 1.398 . S
C3412 C3413 1.391 . S
C3413 H3401 0.950 . S
C3413 C3409 1.393 . S
C3413 C3412 1.391 . S
C3414 H3404 0.950 . S
C3414 C3415 1.386 . S
C3414 C3416 1.391 . S
C3415 C3414 1.386 . S
C3415 C3419 1.393 . S
C3416 H3405 0.950 . S
C3416 C3414 1.391 . S
C3416 C3417 1.400 . S
C3417 C3411 1.491 . S
C3417 C3416 1.400 . S
C3417 C3418 1.398 . S
C3418 H3406 0.950 . S
C3418 C3417 1.398 . S
C3418 C3419 1.391 . S
C3419 H3407 0.950 . S
C3419 C3415 1.393 . S
C3419 C3418 1.391 . S
H3420 C3428 0.950 . S
H3421 C3433 0.950 . S
H3422 C3430 0.950 . S
H3423 C3432 0.950 . S
H3424 C3434 0.950 . S
H3425 C3436 0.950 . S
H3426 C3438 0.950 . S
H3427 C3439 0.950 . S
C3428 H3420 0.950 . S
C3428 C3429 1.386 . S
C3428 C3430 1.391 . S
C3429 C3428 1.386 . S
C3429 C3433 1.393 . S
C3430 H3422 0.950 . S
C3430 C3428 1.391 . S
C3430 C3431 1.400 . S
C3431 C3430 1.400 . S
C3431 C3432 1.398 . S
C3431 C3437 1.491 . S
C3432 H3423 0.950 . S
C3432 C3431 1.398 . S
C3432 C3433 1.391 . S
C3433 H3421 0.950 . S
C3433 C3429 1.393 . S
C3433 C3432 1.391 . S
C3434 H3424 0.950 . S
C3434 C3435 1.386 . S
C3434 C3436 1.391 . S
C3435 C3434 1.386 . S
C3435 C3439 1.393 . S
C3436 H3425 0.950 . S
C3436 C3434 1.391 . S
C3436 C3437 1.400 . S
C3437 C3431 1.491 . S
C3437 C3436 1.400 . S
C3437 C3438 1.398 . S
C3438 H3426 0.950 . S
C3438 C3437 1.398 . S
C3438 C3439 1.391 . S
C3439 H3427 0.950 . S
C3439 C3435 1.393 . S
C3439 C3438 1.391 . S
H3440 C3448 0.950 . S
H3441 C3453 0.950 . S
H3442 C3450 0.950 . S
H3443 C3452 0.950 . S
H3444 C3454 0.950 . S
H3445 C3456 0.950 . S
H3446 C3458 0.950 . S
H3447 C3459 0.950 . S
C3448 H3440 0.950 . S
C3448 C3449 1.386 . S
C3448 C3450 1.391 . S
C3449 C3448 1.386 . S
C3449 C3453 1.393 . S
C3450 H3442 0.950 . S
C3450 C3448 1.391 . S
C3450 C3451 1.400 . S
C3451 C3450 1.400 . S
C3451 C3452 1.398 . S
C3451 C3457 1.491 . S
C3452 H3443 0.950 . S
C3452 C3451 1.398 . S
C3452 C3453 1.391 . S
C3453 H3441 0.950 . S
C3453 C3449 1.393 . S
C3453 C3452 1.391 . S
C3454 H3444 0.950 . S
C3454 C3455 1.386 . S
C3454 C3456 1.391 . S
C3455 C3454 1.386 . S
C3455 C3459 1.393 . S
C3456 H3445 0.950 . S
C3456 C3454 1.391 . S
C3456 C3457 1.400 . S
C3457 C3451 1.491 . S
C3457 C3456 1.400 . S
C3457 C3458 1.398 . S
C3458 H3446 0.950 . S
C3458 C3457 1.398 . S
C3458 C3459 1.391 . S
C3459 H3447 0.950 . S
C3459 C3455 1.393 . S
C3459 C3458 1.391 . S
H3460 C3468 0.950 . S
H3461 C3473 0.950 . S
H3462 C3470 0.950 . S
H3463 C3472 0.950 . S
H3464 C3474 0.950 . S
H3465 C3476 0.950 . S
H3466 C3478 0.950 . S
H3467 C3479 0.950 . S
C3468 H3460 0.950 . S
C3468 C3469 1.386 . S
C3468 C3470 1.391 . S
C3469 C3468 1.386 . S
C3469 C3473 1.393 . S
C3470 H3462 0.950 . S
C3470 C3468 1.391 . S
C3470 C3471 1.400 . S
C3471 C3470 1.400 . S
C3471 C3472 1.398 . S
C3471 C3477 1.491 . S
C3472 H3463 0.950 . S
C3472 C3471 1.398 . S
C3472 C3473 1.391 . S
C3473 H3461 0.950 . S
C3473 C3469 1.393 . S
C3473 C3472 1.391 . S
C3474 H3464 0.950 . S
C3474 C3475 1.386 . S
C3474 C3476 1.391 . S
C3475 C3474 1.386 . S
C3475 C3479 1.393 . S
C3476 H3465 0.950 . S
C3476 C3474 1.391 . S
C3476 C3477 1.400 . S
C3477 C3471 1.491 . S
C3477 C3476 1.400 . S
C3477 C3478 1.398 . S
C3478 H3466 0.950 . S
C3478 C3477 1.398 . S
C3478 C3479 1.391 . S
C3479 H3467 0.950 . S
C3479 C3475 1.393 . S
C3479 C3478 1.391 . S
H3480 C3488 0.950 . S
H3481 C3493 0.950 . S
H3482 C3490 0.950 . S
H3483 C3492 0.950 . S
H3484 C3494 0.950 . S
H3485 C3496 0.950 . S
H3486 C3498 0.950 . S
H3487 C3499 0.950 . S
C3488 H3480 0.950 . S
C3488 C3489 1.386 . S
C3488 C3490 1.391 . S
C3489 C3488 1.386 . S
C3489 C3493 1.393 . S
C3490 H3482 0.950 . S
C3490 C3488 1.391 . S
C3490 C3491 1.400 . S
C3491 C3490 1.400 . S
C3491 C3492 1.398 . S
C3491 C3497 1.491 . S
C3492 H3483 0.950 . S
C3492 C3491 1.398 . S
C3492 C3493 1.391 . S
C3493 H3481 0.950 . S
C3493 C3489 1.393 . S
C3493 C3492 1.391 . S
C3494 H3484 0.950 . S
C3494 C3495 1.386 . S
C3494 C3496 1.391 . S
C3495 C3494 1.386 . S
C3495 C3499 1.393 . S
C3496 H3485 0.950 . S
C3496 C3494 1.391 . S
C3496 C3497 1.400 . S
C3497 C3491 1.491 . S
C3497 C3496 1.400 . S
C3497 C3498 1.398 . S
C3498 H3486 0.950 . S
C3498 C3497 1.398 . S
C3498 C3499 1.391 . S
C3499 H3487 0.950 . S
C3499 C3495 1.393 . S
C3499 C3498 1.391 . S
H3500 C3508 0.950 . S
H3501 C3513 0.950 . S
H3502 C3510 0.950 . S
H3503 C3512 0.950 . S
H3504 C3514 0.950 . S
H3505 C3516 0.950 . S
H3506 C3518 0.950 . S
H3507 C3519 0.950 . S
C3508 H3500 0.950 . S
C3508 C3509 1.386 . S
C3508 C3510 1.391 . S
C3509 C3508 1.386 . S
C3509 C3513 1.393 . S
C3510 H3502 0.950 . S
C3510 C3508 1.391 . S
C3510 C3511 1.400 . S
C3511 C3510 1.400 . S
C3511 C3512 1.398 . S
C3511 C3517 1.491 . S
C3512 H3503 0.950 . S
C3512 C3511 1.398 . S
C3512 C3513 1.391 . S
C3513 H3501 0.950 . S
C3513 C3509 1.393 . S
C3513 C3512 1.391 . S
C3514 H3504 0.950 . S
C3514 C3515 1.386 . S
C3514 C3516 1.391 . S
C3515 C3514 1.386 . S
C3515 C3519 1.393 . S
C3516 H3505 0.950 . S
C3516 C3514 1.391 . S
C3516 C3517 1.400 . S
C3517 C3511 1.491 . S
C3517 C3516 1.400 . S
C3517 C3518 1.398 . S
C3518 H3506 0.950 . S
C3518 C3517 1.398 . S
C3518 C3519 1.391 . S
C3519 H3507 0.950 . S
C3519 C3515 1.393 . S
C3519 C3518 1.391 . S
H3520 C3528 0.950 . S
H3521 C3533 0.950 . S
H3522 C3530 0.950 . S
H3523 C3532 0.950 . S
H3524 C3534 0.950 . S
H3525 C3536 0.950 . S
H3526 C3538 0.950 . S
H3527 C3539 0.950 . S
C3528 H3520 0.950 . S
C3528 C3529 1.386 . S
C3528 C3530 1.391 . S
C3529 C3528 1.386 . S
C3529 C3533 1.393 . S
C3530 H3522 0.950 . S
C3530 C3528 1.391 . S
C3530 C3531 1.400 . S
C3531 C3530 1.400 . S
C3531 C3532 1.398 . S
C3531 C3537 1.491 . S
C3532 H3523 0.950 . S
C3532 C3531 1.398 . S
C3532 C3533 1.391 . S
C3533 H3521 0.950 . S
C3533 C3529 1.393 . S
C3533 C3532 1.391 . S
C3534 H3524 0.950 . S
C3534 C3535 1.386 . S
C3534 C3536 1.391 . S
C3535 C3534 1.386 . S
C3535 C3539 1.393 . S
C3536 H3525 0.950 . S
C3536 C3534 1.391 . S
C3536 C3537 1.400 . S
C3537 C3531 1.491 . S
C3537 C3536 1.400 . S
C3537 C3538 1.398 . S
C3538 H3526 0.950 . S
C3538 C3537 1.398 . S
C3538 C3539 1.391 . S
C3539 H3527 0.950 . S
C3539 C3535 1.393 . S
C3539 C3538 1.391 . S
H3540 C3548 0.950 . S
H3541 C3553 0.950 . S
H3542 C3550 0.950 1_455 S
H3543 C3552 0.950 . S
H3544 C3554 0.950 . S
H3545 C3556 0.950 . S
H3546 C3558 0.950 . S
H3547 C3559 0.950 . S
C3548 H3540 0.950 . S
C3548 C3549 1.386 . S
C3548 C3550 1.391 . S
C3549 C3548 1.386 . S
C3549 C3553 1.393 . S
C3550 H3542 0.950 1_655 S
C3550 C3548 1.391 . S
C3550 C3551 1.400 . S
C3551 C3550 1.400 . S
C3551 C3552 1.398 . S
C3551 C3557 1.491 1_655 S
C3552 H3543 0.950 . S
C3552 C3551 1.398 . S
C3552 C3553 1.391 . S
C3553 H3541 0.950 . S
C3553 C3549 1.393 . S
C3553 C3552 1.391 . S
C3554 H3544 0.950 . S
C3554 C3555 1.386 . S
C3554 C3556 1.391 . S
C3555 C3554 1.386 . S
C3555 C3559 1.393 . S
C3556 H3545 0.950 . S
C3556 C3554 1.391 . S
C3556 C3557 1.400 . S
C3557 C3551 1.491 1_455 S
C3557 C3556 1.400 . S
C3557 C3558 1.398 . S
C3558 H3546 0.950 . S
C3558 C3557 1.398 . S
C3558 C3559 1.391 . S
C3559 H3547 0.950 . S
C3559 C3555 1.393 . S
C3559 C3558 1.391 . S
H3560 C3568 0.950 . S
H3561 C3573 0.950 . S
H3562 C3570 0.950 . S
H3563 C3572 0.950 . S
H3564 C3574 0.950 . S
H3565 C3576 0.950 . S
H3566 C3578 0.950 . S
H3567 C3579 0.950 . S
C3568 H3560 0.950 . S
C3568 C3569 1.386 . S
C3568 C3570 1.391 . S
C3569 C3568 1.386 . S
C3569 C3573 1.393 . S
C3570 H3562 0.950 . S
C3570 C3568 1.391 . S
C3570 C3571 1.400 . S
C3571 C3570 1.400 . S
C3571 C3572 1.398 . S
C3571 C3577 1.491 . S
C3572 H3563 0.950 . S
C3572 C3571 1.398 . S
C3572 C3573 1.391 . S
C3573 H3561 0.950 . S
C3573 C3569 1.393 . S
C3573 C3572 1.391 . S
C3574 H3564 0.950 . S
C3574 C3575 1.386 . S
C3574 C3576 1.391 . S
C3575 C3574 1.386 . S
C3575 C3579 1.393 . S
C3576 H3565 0.950 . S
C3576 C3574 1.391 . S
C3576 C3577 1.400 . S
C3577 C3571 1.491 . S
C3577 C3576 1.400 . S
C3577 C3578 1.398 . S
C3578 H3566 0.950 . S
C3578 C3577 1.398 . S
C3578 C3579 1.391 . S
C3579 H3567 0.950 . S
C3579 C3575 1.393 . S
C3579 C3578 1.391 . S
H3580 C3588 0.950 . S
H3581 C3593 0.950 . S
H3582 C3590 0.950 . S
H3583 C3592 0.950 . S
H3584 C3594 0.950 . S
H3585 C3596 0.950 . S
H3586 C3598 0.950 . S
H3587 C3599 0.950 . S
C3588 H3580 0.950 . S
C3588 C3589 1.386 . S
C3588 C3590 1.391 1_565 S
C3589 C3588 1.386 . S
C3589 C3593 1.393 . S
C3590 H3582 0.950 . S
C3590 C3588 1.391 1_545 S
C3590 C3591 1.400 . S
C3591 C3590 1.400 . S
C3591 C3592 1.398 1_545 S
C3591 C3597 1.491 . S
C3592 H3583 0.950 . S
C3592 C3591 1.398 1_565 S
C3592 C3593 1.391 . S
C3593 H3581 0.950 . S
C3593 C3589 1.393 . S
C3593 C3592 1.391 . S
C3594 H3584 0.950 . S
C3594 C3595 1.386 . S
C3594 C3596 1.391 . S
C3595 C3594 1.386 . S
C3595 C3599 1.393 . S
C3596 H3585 0.950 . S
C3596 C3594 1.391 . S
C3596 C3597 1.400 . S
C3597 C3591 1.491 . S
C3597 C3596 1.400 . S
C3597 C3598 1.398 . S
C3598 H3586 0.950 . S
C3598 C3597 1.398 . S
C3598 C3599 1.391 . S
C3599 H3587 0.950 . S
C3599 C3595 1.393 . S
C3599 C3598 1.391 . S
C1449 C1098 2.139 . S
C1455 C18 2.143 . S
C1469 C1138 2.141 . S
C1475 C58 2.145 1_655 S
C1489 C98 2.140 . S
C1495 C1178 2.143 . S
C1509 C138 2.142 . S
C1515 C498 2.138 . S
C1529 C178 2.144 . S
C1535 C538 2.142 . S
C1549 C578 2.141 . S
C1555 C218 2.145 1_565 S
C1569 C249 2.140 1_565 S
C1575 C849 2.144 . S
C1589 C889 2.139 . S
C1595 C289 2.139 . S
C1609 C329 2.141 . S
C1615 C929 2.138 . S
C1629 C1209 2.145 . S
C1635 C369 2.141 1_655 S
C1649 C409 2.142 . S
C1655 C1249 2.139 . S
C1669 C1289 2.143 . S
C1675 C449 2.145 . S
C1689 C978 2.140 . S
C1695 C618 2.140 . S
C1709 C658 2.144 . S
C1715 C1018 2.144 . S
C1729 C1058 2.140 . S
C1735 C698 2.143 . S
C1749 C729 2.144 . S
C1755 C1329 2.141 . S
C1769 C769 2.141 . S
C1775 C1369 2.139 . S
C1789 C1409 2.139 . S
C1795 C809 2.143 . S
C1809 C9 1.589 . S
C1815 C258 1.589 . S
C1829 C298 1.580 . S
C1835 C49 1.580 . S
C1849 C89 1.607 . S
C1855 C338 1.607 . S
C1869 C378 1.584 . S
C1875 C129 1.584 . S
C1889 C169 1.580 . S
C1895 C418 1.580 . S
C1909 C458 1.596 . S
C1915 C209 1.596 . S
C1929 C738 1.612 . S
C1935 C489 1.612 . S
C1949 C529 1.604 . S
C1955 C778 1.604 . S
C1969 C818 1.580 . S
C1975 C569 1.580 . S
C1989 C609 1.607 . S
C1995 C858 1.607 . S
C2009 C898 1.608 . S
C2015 C649 1.608 . S
C2029 C689 1.585 . S
C2035 C938 1.585 . S
C2049 C969 1.584 . S
C2055 C1218 1.584 . S
C2069 C1258 1.604 . S
C2075 C1009 1.604 . S
C2089 C1298 1.584 . S
C2095 C1049 1.584 . S
C2109 C1338 1.603 . S
C2115 C1089 1.603 . S
C2129 C1129 1.611 . S
C2135 C1378 1.611 . S
C2149 C1169 1.582 . S
C2155 C1418 1.582 . S
C2169 C15 1.817 . S
C2175 C99 1.826 . S
C2189 C55 1.809 . S
C2195 C19 1.823 . S
C2209 C59 1.837 . S
C2215 C95 1.819 . S
C2229 C135 1.823 . S
C2235 C179 1.831 . S
C2249 C219 1.835 . S
C2255 C175 1.814 . S
C2269 C139 1.837 . S
C2275 C215 1.817 . S
C2289 C330 1.824 . S
C2295 C246 1.813 . S
C2309 C286 1.809 . S
C2315 C250 1.831 . S
C2329 C326 1.815 . S
C2335 C290 1.836 . S
C2349 C410 1.833 . S
C2355 C366 1.811 . S
C2369 C406 1.812 . S
C2375 C450 1.834 . S
C2389 C446 1.822 . S
C2395 C370 1.831 . S
C2409 C579 1.824 . S
C2415 C495 1.808 . S
C2429 C499 1.827 . S
C2435 C535 1.819 . S
C2449 C539 1.824 . S
C2455 C575 1.813 1_655 S
C2469 C659 1.832 . S
C2475 C615 1.823 . S
C2489 C655 1.818 . S
C2495 C699 1.827 . S
C2509 C619 1.824 . S
C2515 C695 1.807 . S
C2529 C726 1.817 . S
C2535 C810 1.837 . S
C2549 C730 1.830 . S
C2555 C766 1.822 . S
C2569 C806 1.821 . S
C2575 C770 1.830 . S
C2589 C890 1.825 . S
C2595 C846 1.806 . S
C2609 C930 1.826 . S
C2615 C886 1.807 . S
C2629 C850 1.828 . S
C2635 C926 1.807 1_655 S
C2649 C1059 1.824 . S
C2655 C975 1.814 . S
C2669 C1015 1.808 . S
C2675 C979 1.824 . S
C2689 C1019 1.834 . S
C2695 C1055 1.812 . S
C2709 C1095 1.823 . S
C2715 C1139 1.837 . S
C2729 C1135 1.811 1_565 S
C2735 C1179 1.824 . S
C2749 C1099 1.838 . S
C2755 C1175 1.823 . S
C2769 C1206 1.817 . S
C2775 C1290 1.837 . S
C2789 C1246 1.812 1_565 S
C2795 C1210 1.834 . S
C2809 C1250 1.823 . S
C2815 C1286 1.809 . S
C2829 C1326 1.807 . S
C2835 C1370 1.825 . S
C2849 C1410 1.830 . S
C2855 C1366 1.821 . S
C2869 C1330 1.831 . S
C2875 C1406 1.809 . S
C2889 C90 1.243 . S
C2895 C6 1.277 . S
C2909 C46 1.284 . S
C2915 C10 1.244 . S
C2929 C50 1.262 . S
C2935 C86 1.286 . S
C2949 C170 1.237 . S
C2955 C126 1.277 . S
C2969 C166 1.287 . S
C2975 C210 1.264 . S
C2989 C206 1.280 . S
C2995 C130 1.238 . S
C3009 C339 1.253 . S
C3015 C255 1.288 . S
C3029 C295 1.280 . S
C3035 C259 1.253 . S
C3049 C299 1.266 . S
C3055 C335 1.289 . S
C3069 C419 1.241 . S
C3075 C375 1.282 . S
C3089 C459 1.258 . S
C3095 C415 1.290 . S
C3109 C379 1.246 . S
C3115 C455 1.285 . S
C3129 C486 1.279 . S
C3135 C570 1.238 . S
C3149 C526 1.280 . S
C3155 C490 1.239 . S
C3169 C566 1.280 . S
C3175 C530 1.252 . S
C3189 C650 1.258 . S
C3195 C606 1.283 . S
C3209 C646 1.290 . S
C3215 C690 1.265 . S
C3229 C686 1.277 . S
C3235 C610 1.242 . S
C3249 C819 1.261 . S
C3255 C735 1.285 . S
C3269 C739 1.263 . S
C3275 C775 1.291 . S
C3289 C815 1.278 . S
C3295 C779 1.237 . S
C3309 C899 1.237 . S
C3315 C855 1.279 . S
C3329 C895 1.286 . S
C3335 C939 1.248 . S
C3349 C935 1.285 . S
C3355 C859 1.245 . S
C3369 C966 1.281 . S
C3375 C1050 1.253 . S
C3389 C970 1.239 . S
C3395 C1006 1.280 . S
C3409 C1010 1.259 . S
C3415 C1046 1.283 . S
C3429 C1130 1.241 . S
C3435 C1086 1.282 . S
C3449 C1126 1.289 . S
C3455 C1170 1.254 . S
C3469 C1166 1.285 . S
C3475 C1090 1.262 . S
C3489 C1299 1.260 . S
C3495 C1215 1.284 . S
C3509 C1219 1.264 . S
C3515 C1255 1.291 . S
C3529 C1295 1.291 . S
C3535 C1259 1.262 . S
C3549 C1379 1.262 . S
C3555 C1335 1.291 . S
C3569 C1375 1.290 . S
C3575 C1419 1.259 . S
C3589 C1415 1.278 . S
C3595 C1339 1.237 . S
