# Generated by pormake.
# Topology fcj, (5)-cn, num edge types: 1
# Building blocks:
#     Node 0, Type 0, BuildingBlock: BEQFEK_clean_sbu_0, # of connection points: 5
#     Node 1, Type 0, BuildingBlock: BEQFEK_clean_sbu_0, # of connection points: 5
#     Node 2, Type 0, BuildingBlock: BEQFEK_clean_sbu_0, # of connection points: 5
#     Node 3, Type 0, BuildingBlock: BEQFEK_clean_sbu_0, # of connection points: 5
#     Node 4, Type 0, BuildingBlock: BEQFEK_clean_sbu_0, # of connection points: 5
#     Node 5, Type 0, BuildingBlock: BEQFEK_clean_sbu_0, # of connection points: 5
#     Node 6, Type 0, BuildingBlock: BEQFEK_clean_sbu_0, # of connection points: 5
#     Node 7, Type 0, BuildingBlock: BEQFEK_clean_sbu_0, # of connection points: 5
#     Node 8, Type 0, BuildingBlock: BEQFEK_clean_sbu_0, # of connection points: 5
#     Node 9, Type 0, BuildingBlock: BEQFEK_clean_sbu_0, # of connection points: 5
#     Node 10, Type 0, BuildingBlock: BEQFEK_clean_sbu_0, # of connection points: 5
#     Node 11, Type 0, BuildingBlock: BEQFEK_clean_sbu_0, # of connection points: 5
#     Node 12, Type 0, BuildingBlock: BEQFEK_clean_sbu_0, # of connection points: 5
#     Node 13, Type 0, BuildingBlock: BEQFEK_clean_sbu_0, # of connection points: 5
#     Node 14, Type 0, BuildingBlock: BEQFEK_clean_sbu_0, # of connection points: 5
#     Node 15, Type 0, BuildingBlock: BEQFEK_clean_sbu_0, # of connection points: 5
#     Node 16, Type 0, BuildingBlock: BEQFEK_clean_sbu_0, # of connection points: 5
#     Node 17, Type 0, BuildingBlock: BEQFEK_clean_sbu_0, # of connection points: 5
#     Node 18, Type 0, BuildingBlock: BEQFEK_clean_sbu_0, # of connection points: 5
#     Node 19, Type 0, BuildingBlock: BEQFEK_clean_sbu_0, # of connection points: 5
#     Node 20, Type 0, BuildingBlock: BEQFEK_clean_sbu_0, # of connection points: 5
#     Node 21, Type 0, BuildingBlock: BEQFEK_clean_sbu_0, # of connection points: 5
#     Node 22, Type 0, BuildingBlock: BEQFEK_clean_sbu_0, # of connection points: 5
#     Node 23, Type 0, BuildingBlock: BEQFEK_clean_sbu_0, # of connection points: 5
#     Edge 24, Type (0, 0), BuildingBlock: CIFDUS_clean_linker_0, # of connection points: 2
#     Edge 25, Type (0, 0), BuildingBlock: CIFDUS_clean_linker_0, # of connection points: 2
#     Edge 26, Type (0, 0), BuildingBlock: CIFDUS_clean_linker_0, # of connection points: 2
#     Edge 27, Type (0, 0), BuildingBlock: CIFDUS_clean_linker_0, # of connection points: 2
#     Edge 28, Type (0, 0), BuildingBlock: CIFDUS_clean_linker_0, # of connection points: 2
#     Edge 29, Type (0, 0), BuildingBlock: CIFDUS_clean_linker_0, # of connection points: 2
#     Edge 30, Type (0, 0), BuildingBlock: CIFDUS_clean_linker_0, # of connection points: 2
#     Edge 31, Type (0, 0), BuildingBlock: CIFDUS_clean_linker_0, # of connection points: 2
#     Edge 32, Type (0, 0), BuildingBlock: CIFDUS_clean_linker_0, # of connection points: 2
#     Edge 33, Type (0, 0), BuildingBlock: CIFDUS_clean_linker_0, # of connection points: 2
#     Edge 34, Type (0, 0), BuildingBlock: CIFDUS_clean_linker_0, # of connection points: 2
#     Edge 35, Type (0, 0), BuildingBlock: CIFDUS_clean_linker_0, # of connection points: 2
#     Edge 36, Type (0, 0), BuildingBlock: CIFDUS_clean_linker_0, # of connection points: 2
#     Edge 37, Type (0, 0), BuildingBlock: CIFDUS_clean_linker_0, # of connection points: 2
#     Edge 38, Type (0, 0), BuildingBlock: CIFDUS_clean_linker_0, # of connection points: 2
#     Edge 39, Type (0, 0), BuildingBlock: CIFDUS_clean_linker_0, # of connection points: 2
#     Edge 40, Type (0, 0), BuildingBlock: CIFDUS_clean_linker_0, # of connection points: 2
#     Edge 41, Type (0, 0), BuildingBlock: CIFDUS_clean_linker_0, # of connection points: 2
#     Edge 42, Type (0, 0), BuildingBlock: CIFDUS_clean_linker_0, # of connection points: 2
#     Edge 43, Type (0, 0), BuildingBlock: CIFDUS_clean_linker_0, # of connection points: 2
#     Edge 44, Type (0, 0), BuildingBlock: CIFDUS_clean_linker_0, # of connection points: 2
#     Edge 45, Type (0, 0), BuildingBlock: CIFDUS_clean_linker_0, # of connection points: 2
#     Edge 46, Type (0, 0), BuildingBlock: CIFDUS_clean_linker_0, # of connection points: 2
#     Edge 47, Type (0, 0), BuildingBlock: CIFDUS_clean_linker_0, # of connection points: 2
#     Edge 48, Type (0, 0), BuildingBlock: CIFDUS_clean_linker_0, # of connection points: 2
#     Edge 49, Type (0, 0), BuildingBlock: CIFDUS_clean_linker_0, # of connection points: 2
#     Edge 50, Type (0, 0), BuildingBlock: CIFDUS_clean_linker_0, # of connection points: 2
#     Edge 51, Type (0, 0), BuildingBlock: CIFDUS_clean_linker_0, # of connection points: 2
#     Edge 52, Type (0, 0), BuildingBlock: CIFDUS_clean_linker_0, # of connection points: 2
#     Edge 53, Type (0, 0), BuildingBlock: CIFDUS_clean_linker_0, # of connection points: 2
#     Edge 54, Type (0, 0), BuildingBlock: CIFDUS_clean_linker_0, # of connection points: 2
#     Edge 55, Type (0, 0), BuildingBlock: CIFDUS_clean_linker_0, # of connection points: 2
#     Edge 56, Type (0, 0), BuildingBlock: CIFDUS_clean_linker_0, # of connection points: 2
#     Edge 57, Type (0, 0), BuildingBlock: CIFDUS_clean_linker_0, # of connection points: 2
#     Edge 58, Type (0, 0), BuildingBlock: CIFDUS_clean_linker_0, # of connection points: 2
#     Edge 59, Type (0, 0), BuildingBlock: CIFDUS_clean_linker_0, # of connection points: 2
#     Edge 60, Type (0, 0), BuildingBlock: CIFDUS_clean_linker_0, # of connection points: 2
#     Edge 61, Type (0, 0), BuildingBlock: CIFDUS_clean_linker_0, # of connection points: 2
#     Edge 62, Type (0, 0), BuildingBlock: CIFDUS_clean_linker_0, # of connection points: 2
#     Edge 63, Type (0, 0), BuildingBlock: CIFDUS_clean_linker_0, # of connection points: 2
#     Edge 64, Type (0, 0), BuildingBlock: CIFDUS_clean_linker_0, # of connection points: 2
#     Edge 65, Type (0, 0), BuildingBlock: CIFDUS_clean_linker_0, # of connection points: 2
#     Edge 66, Type (0, 0), BuildingBlock: CIFDUS_clean_linker_0, # of connection points: 2
#     Edge 67, Type (0, 0), BuildingBlock: CIFDUS_clean_linker_0, # of connection points: 2
#     Edge 68, Type (0, 0), BuildingBlock: CIFDUS_clean_linker_0, # of connection points: 2
#     Edge 69, Type (0, 0), BuildingBlock: CIFDUS_clean_linker_0, # of connection points: 2
#     Edge 70, Type (0, 0), BuildingBlock: CIFDUS_clean_linker_0, # of connection points: 2
#     Edge 71, Type (0, 0), BuildingBlock: CIFDUS_clean_linker_0, # of connection points: 2
#     Edge 72, Type (0, 0), BuildingBlock: CIFDUS_clean_linker_0, # of connection points: 2
#     Edge 73, Type (0, 0), BuildingBlock: CIFDUS_clean_linker_0, # of connection points: 2
#     Edge 74, Type (0, 0), BuildingBlock: CIFDUS_clean_linker_0, # of connection points: 2
#     Edge 75, Type (0, 0), BuildingBlock: CIFDUS_clean_linker_0, # of connection points: 2
#     Edge 76, Type (0, 0), BuildingBlock: CIFDUS_clean_linker_0, # of connection points: 2
#     Edge 77, Type (0, 0), BuildingBlock: CIFDUS_clean_linker_0, # of connection points: 2
#     Edge 78, Type (0, 0), BuildingBlock: CIFDUS_clean_linker_0, # of connection points: 2
#     Edge 79, Type (0, 0), BuildingBlock: CIFDUS_clean_linker_0, # of connection points: 2
#     Edge 80, Type (0, 0), BuildingBlock: CIFDUS_clean_linker_0, # of connection points: 2
#     Edge 81, Type (0, 0), BuildingBlock: CIFDUS_clean_linker_0, # of connection points: 2
#     Edge 82, Type (0, 0), BuildingBlock: CIFDUS_clean_linker_0, # of connection points: 2
#     Edge 83, Type (0, 0), BuildingBlock: CIFDUS_clean_linker_0, # of connection points: 2
# Relax obj value: 0.322
# Max RMSD: 0.219
# Mean RMSD: 0.219
data_MOF--net-fcj--node1-BEQFEK_clean_sbu_0--edge1-CIFDUS_clean_linker_0
_symmetry_space_group_name_H-M    P1
_symmetry_Int_Tables_number       1
_symmetry_cell_setting            triclinic
loop_
_symmetry_equiv_pos_as_xyz
'x, y, z'
_cell_length_a     46.715979
_cell_length_b     46.737498
_cell_length_c     46.739238
_cell_angle_alpha  89.900485
_cell_angle_beta   90.072481
_cell_angle_gamma 90.061788
loop_
_atom_site_label
_atom_site_type_symbol
_atom_site_fract_x
_atom_site_fract_y
_atom_site_fract_z
_atom_type_partial_charge
Co0 Co 0.09405 0.16878 0.30367 0.0
Co1 Co 0.05778 0.21728 0.33201 0.0
C2 C 0.03266 0.16212 0.30663 0.0
O3 O 0.05654 0.14963 0.30261 0.0
O4 O 0.03139 0.18749 0.3165 0.0
C5 C 0.13551 0.12121 0.28799 0.0
O6 O 0.12541 0.10304 0.30692 0.0
C7 C 0.01017 0.23762 0.36722 0.0
C8 C 0.02354 0.28176 0.37745 0.0
C9 C 0.00162 0.26216 0.38135 0.0
N10 N 0.03601 0.24242 0.35549 0.0
N11 N 0.04391 0.26884 0.36175 0.0
C12 C 0.99427 0.20989 0.36529 0.0
H13 H 0.00941 0.19177 0.36778 0.0
H14 H 0.97744 0.20842 0.38197 0.0
H15 H 0.98405 0.20825 0.34391 0.0
C16 C 0.12594 0.17382 0.35838 0.0
N17 N 0.10412 0.181 0.34094 0.0
N18 N 0.08886 0.20126 0.35317 0.0
C19 C 0.10053 0.2074 0.37892 0.0
C20 C 0.12421 0.19008 0.38298 0.0
C21 C 0.14938 0.1534 0.35085 0.0
H22 H 0.1407 0.13135 0.35104 0.0
H23 H 0.16742 0.15449 0.36627 0.0
H24 H 0.15759 0.15837 0.32918 0.0
O25 O 0.09147 0.20162 0.2773 0.0
O26 O 0.07156 0.23913 0.29822 0.0
H27 H 0.0936 0.25124 0.38938 0.0
H28 H 0.10094 0.22873 0.41992 0.0
C29 C 0.08981 0.22985 0.39894 0.0
H30 H 0.06647 0.22711 0.40225 0.0
H31 H 0.06296 0.27824 0.35482 0.0
O32 O 0.12479 0.14606 0.28559 0.0
C33 C 0.08347 0.2276 0.27666 0.0
Co34 Co 0.58792 0.35169 0.06282 0.0
Co35 Co 0.54079 0.3154 0.09463 0.0
C36 C 0.59497 0.28948 0.06943 0.0
O37 O 0.60568 0.31354 0.06211 0.0
O38 O 0.57045 0.28742 0.08141 0.0
C39 C 0.63743 0.38886 0.04298 0.0
O40 O 0.65673 0.371 0.05294 0.0
C41 C 0.5127 0.27293 0.13276 0.0
C42 C 0.47077 0.2939 0.13883 0.0
C43 C 0.48628 0.26973 0.14611 0.0
N44 N 0.51264 0.29789 0.11837 0.0
N45 N 0.48749 0.31022 0.12207 0.0
C46 C 0.53792 0.25331 0.13428 0.0
H47 H 0.55805 0.26592 0.13389 0.0
H48 H 0.53718 0.23995 0.15392 0.0
H49 H 0.53777 0.2391 0.11528 0.0
C50 C 0.58711 0.38297 0.11699 0.0
N51 N 0.57763 0.36158 0.10035 0.0
N52 N 0.55763 0.34721 0.114 0.0
C53 C 0.55355 0.35945 0.1399 0.0
C54 C 0.57196 0.38269 0.14241 0.0
C55 C 0.61111 0.40268 0.10904 0.0
H56 H 0.62942 0.38986 0.10125 0.0
H57 H 0.6185 0.41565 0.12749 0.0
H58 H 0.60398 0.41718 0.09162 0.0
O59 O 0.55443 0.35023 0.03723 0.0
O60 O 0.51975 0.32723 0.05976 0.0
H61 H 0.53379 0.36143 0.18175 0.0
H62 H 0.53299 0.32675 0.16459 0.0
C63 C 0.53139 0.35016 0.16103 0.0
H64 H 0.50985 0.35492 0.15227 0.0
H65 H 0.48166 0.32976 0.11292 0.0
O66 O 0.61097 0.38308 0.04564 0.0
C67 C 0.52905 0.34048 0.0379 0.0
Co68 Co 0.39648 0.83034 0.81875 0.0
Co69 Co 0.43713 0.78232 0.84254 0.0
C70 C 0.45924 0.83876 0.8192 0.0
O71 O 0.43421 0.84879 0.81488 0.0
O72 O 0.46324 0.81363 0.82923 0.0
C73 C 0.35684 0.88068 0.80786 0.0
O74 O 0.37386 0.89929 0.82029 0.0
C75 C 0.48317 0.75457 0.87617 0.0
C76 C 0.46541 0.71093 0.88054 0.0
C77 C 0.48866 0.72779 0.88792 0.0
N78 N 0.45777 0.75346 0.8626 0.0
N79 N 0.44738 0.72729 0.86522 0.0
C80 C 0.50081 0.78113 0.87894 0.0
H81 H 0.48665 0.80011 0.88054 0.0
H82 H 0.51499 0.78002 0.89798 0.0
H83 H 0.51421 0.78362 0.8595 0.0
C84 C 0.37063 0.82396 0.87544 0.0
N85 N 0.39076 0.81713 0.85616 0.0
N86 N 0.40711 0.79664 0.86653 0.0
C87 C 0.39755 0.78976 0.89299 0.0
C88 C 0.37428 0.80701 0.89938 0.0
C89 C 0.34717 0.84518 0.87033 0.0
H90 H 0.35675 0.86653 0.86644 0.0
H91 H 0.33232 0.84669 0.88876 0.0
H92 H 0.3348 0.83885 0.85109 0.0
O93 O 0.39401 0.79844 0.79165 0.0
O94 O 0.42183 0.76347 0.80752 0.0
H95 H 0.40524 0.74563 0.90175 0.0
H96 H 0.40035 0.76727 0.93332 0.0
C97 C 0.40979 0.76674 0.91154 0.0
H98 H 0.43333 0.76939 0.91309 0.0
H99 H 0.42785 0.72065 0.85663 0.0
O100 O 0.36405 0.85453 0.80639 0.0
C101 C 0.40452 0.77354 0.78907 0.0
Co102 Co 0.91646 0.64798 0.57184 0.0
Co103 Co 0.96378 0.68621 0.60063 0.0
C104 C 0.90802 0.71012 0.57659 0.0
O105 O 0.89752 0.6856 0.57074 0.0
O106 O 0.93299 0.713 0.58741 0.0
C107 C 0.86635 0.61023 0.55563 0.0
O108 O 0.84749 0.62842 0.56572 0.0
C109 C 0.99048 0.73138 0.63615 0.0
C110 C 0.03307 0.71236 0.64402 0.0
C111 C 0.01653 0.73624 0.64969 0.0
N112 N 0.99164 0.70572 0.6232 0.0
N113 N 0.01719 0.69456 0.62794 0.0
C114 C 0.9646 0.75017 0.63624 0.0
H115 H 0.96354 0.76205 0.61568 0.0
H116 H 0.94499 0.73687 0.63805 0.0
H117 H 0.96538 0.76572 0.65414 0.0
C118 C 0.92121 0.61714 0.62636 0.0
N119 N 0.92874 0.63889 0.60907 0.0
N120 N 0.94871 0.65434 0.62156 0.0
C121 C 0.95456 0.64259 0.6474 0.0
C122 C 0.93721 0.61878 0.65118 0.0
C123 C 0.90037 0.5941 0.61845 0.0
H124 H 0.90778 0.58326 0.59871 0.0
H125 H 0.87919 0.60387 0.61414 0.0
H126 H 0.89801 0.57784 0.6356 0.0
O127 O 0.94885 0.64955 0.5449 0.0
O128 O 0.98397 0.67386 0.5654 0.0
H129 H 0.99811 0.64857 0.65976 0.0
H130 H 0.97396 0.64337 0.68936 0.0
C131 C 0.97645 0.65353 0.66802 0.0
H132 H 0.97442 0.67706 0.67017 0.0
H133 H 0.02385 0.67478 0.62 0.0
O134 O 0.89288 0.61615 0.55674 0.0
C135 C 0.97405 0.65983 0.5443 0.0
Co136 Co 0.60081 0.33771 0.68001 0.0
Co137 Co 0.56031 0.29042 0.65442 0.0
C138 C 0.5383 0.3461 0.67945 0.0
O139 O 0.56319 0.35614 0.68437 0.0
O140 O 0.53468 0.32128 0.66877 0.0
C141 C 0.63272 0.36946 0.71906 0.0
O142 O 0.61076 0.36204 0.73499 0.0
C143 C 0.51081 0.26572 0.62422 0.0
C144 C 0.52673 0.22264 0.61326 0.0
C145 C 0.50294 0.24019 0.61136 0.0
N146 N 0.53804 0.26341 0.63331 0.0
N147 N 0.54742 0.23759 0.62665 0.0
C148 C 0.49295 0.29208 0.62735 0.0
H149 H 0.50599 0.31125 0.62216 0.0
H150 H 0.47395 0.29143 0.61309 0.0
H151 H 0.48569 0.29389 0.64988 0.0
C152 C 0.62651 0.33408 0.62338 0.0
N153 N 0.60634 0.32614 0.64219 0.0
N154 N 0.59037 0.30577 0.63105 0.0
C155 C 0.60034 0.29995 0.60453 0.0
C156 C 0.62341 0.31783 0.5989 0.0
C157 C 0.64979 0.35516 0.6299 0.0
H158 H 0.64015 0.37536 0.63772 0.0
H159 H 0.66328 0.35976 0.61093 0.0
H160 H 0.66356 0.34644 0.6472 0.0
O161 O 0.60353 0.30454 0.70596 0.0
O162 O 0.57565 0.27017 0.68872 0.0
H163 H 0.59453 0.25598 0.5939 0.0
H164 H 0.59761 0.27934 0.56329 0.0
C165 C 0.58871 0.27729 0.58521 0.0
H166 H 0.56505 0.27882 0.5843 0.0
H167 H 0.56778 0.22997 0.63178 0.0
O168 O 0.63233 0.36306 0.69268 0.0
C169 C 0.59299 0.27951 0.70754 0.0
Co170 Co 0.41271 0.84788 0.42975 0.0
Co171 Co 0.45305 0.80617 0.39662 0.0
C172 C 0.39822 0.7865 0.42462 0.0
O173 O 0.39074 0.8118 0.43147 0.0
O174 O 0.42184 0.78147 0.41197 0.0
C175 C 0.3679 0.89049 0.44746 0.0
O176 O 0.3492 0.88069 0.4289 0.0
C177 C 0.4755 0.7576 0.36335 0.0
C178 C 0.51428 0.77701 0.34444 0.0
C179 C 0.49875 0.75183 0.34591 0.0
N180 N 0.47706 0.78512 0.37154 0.0
N181 N 0.50035 0.79652 0.36024 0.0
C182 C 0.45221 0.73744 0.37212 0.0
H183 H 0.4311 0.74756 0.3682 0.0
H184 H 0.45336 0.71699 0.36014 0.0
H185 H 0.45402 0.73305 0.3954 0.0
C186 C 0.41681 0.88036 0.37561 0.0
N187 N 0.42303 0.8575 0.392 0.0
N188 N 0.43813 0.8391 0.37698 0.0
C189 C 0.44061 0.84922 0.34993 0.0
C190 C 0.42756 0.87577 0.34848 0.0
C191 C 0.4006 0.90608 0.38557 0.0
H192 H 0.40782 0.91222 0.4073 0.0
H193 H 0.37749 0.90083 0.38619 0.0
H194 H 0.40346 0.92457 0.37096 0.0
O195 O 0.44683 0.84337 0.45341 0.0
O196 O 0.4779 0.81667 0.42994 0.0
H197 H 0.47785 0.83866 0.32578 0.0
H198 H 0.44577 0.84115 0.30484 0.0
C199 C 0.45461 0.83385 0.32566 0.0
H200 H 0.4514 0.81045 0.32779 0.0
H201 H 0.50705 0.81754 0.36384 0.0
O202 O 0.39261 0.87935 0.44933 0.0
C203 C 0.47111 0.83136 0.4518 0.0
Co204 Co 0.89369 0.66987 0.17731 0.0
Co205 Co 0.93791 0.71284 0.15014 0.0
C206 C 0.9548 0.65556 0.17689 0.0
O207 O 0.92915 0.6473 0.18138 0.0
O208 O 0.96038 0.67991 0.16578 0.0
C209 C 0.85114 0.62384 0.1916 0.0
O210 O 0.86869 0.60385 0.18262 0.0
C211 C 0.98987 0.73442 0.12105 0.0
C212 C 0.97525 0.77692 0.10641 0.0
C213 C 0.99882 0.759 0.10691 0.0
N214 N 0.96222 0.73766 0.12844 0.0
N215 N 0.95368 0.76315 0.11962 0.0
C216 C 0.0071 0.70815 0.1272 0.0
H217 H 0.99425 0.68884 0.1221 0.0
H218 H 0.02717 0.70781 0.11453 0.0
H219 H 0.01244 0.70751 0.15033 0.0
C220 C 0.86732 0.67544 0.12069 0.0
N221 N 0.88824 0.68197 0.13932 0.0
N222 N 0.90631 0.69995 0.12725 0.0
C223 C 0.89724 0.70524 0.10021 0.0
C224 C 0.87229 0.68985 0.09539 0.0
C225 C 0.84243 0.65632 0.12725 0.0
H226 H 0.83053 0.66496 0.14584 0.0
H227 H 0.85048 0.63472 0.13283 0.0
H228 H 0.82749 0.65442 0.10888 0.0
O229 O 0.89663 0.70258 0.20349 0.0
O230 O 0.92515 0.73512 0.18418 0.0
H231 H 0.90749 0.74695 0.08477 0.0
H232 H 0.90423 0.72036 0.05714 0.0
C233 C 0.91201 0.72435 0.07923 0.0
H234 H 0.93545 0.72083 0.08017 0.0
H235 H 0.93327 0.77142 0.12323 0.0
O236 O 0.85883 0.6499 0.19085 0.0
C237 C 0.90894 0.72681 0.20445 0.0
Co238 Co 0.09214 0.15108 0.93819 0.0
Co239 Co 0.03874 0.18186 0.91117 0.0
C240 C 0.08886 0.21433 0.93658 0.0
O241 O 0.10316 0.19178 0.94235 0.0
O242 O 0.0641 0.21317 0.92506 0.0
C243 C 0.12598 0.12245 0.9785 0.0
O244 O 0.11437 0.1421 0.99487 0.0
C245 C 0.00846 0.22115 0.87252 0.0
C246 C 0.96576 0.2009 0.8702 0.0
C247 C 0.98153 0.22399 0.86021 0.0
N248 N 0.00846 0.19753 0.88897 0.0
N249 N 0.98289 0.18554 0.8875 0.0
C250 C 0.03437 0.23929 0.86751 0.0
H251 H 0.03564 0.25587 0.88443 0.0
H252 H 0.05399 0.22598 0.86881 0.0
H253 H 0.03328 0.24999 0.84631 0.0
C254 C 0.09407 0.12478 0.88147 0.0
N255 N 0.08236 0.14308 0.90021 0.0
N256 N 0.05945 0.15482 0.8888 0.0
C257 C 0.05564 0.14386 0.86234 0.0
C258 C 0.07762 0.12473 0.85685 0.0
C259 C 0.11921 0.10605 0.88803 0.0
H260 H 0.11292 0.09006 0.90444 0.0
H261 H 0.13682 0.11922 0.89702 0.0
H262 H 0.12694 0.09464 0.86874 0.0
O263 O 0.05952 0.14308 0.96377 0.0
O264 O 0.0211 0.16417 0.94557 0.0
H265 H 0.01067 0.14516 0.85416 0.0
H266 H 0.03226 0.13871 0.82269 0.0
C267 C 0.03095 0.15068 0.84314 0.0
H268 H 0.03077 0.17395 0.83851 0.0
H269 H 0.97718 0.1668 0.89826 0.0
O270 O 0.12177 0.12378 0.95168 0.0
C271 C 0.03306 0.14919 0.96492 0.0
Co272 Co 0.31806 0.10579 0.16618 0.0
Co273 Co 0.34724 0.06689 0.21273 0.0
C274 C 0.32307 0.0433 0.15737 0.0
O275 O 0.31688 0.06797 0.1474 0.0
O276 O 0.33417 0.04003 0.18214 0.0
C277 C 0.27606 0.13829 0.13797 0.0
O278 O 0.26024 0.11676 0.14683 0.0
C279 C 0.38279 0.02189 0.23953 0.0
C280 C 0.39128 0.04145 0.28172 0.0
C281 C 0.39652 0.01725 0.2655 0.0
N282 N 0.37006 0.04768 0.24048 0.0
N283 N 0.37522 0.0592 0.26576 0.0
C284 C 0.3827 0.00294 0.21379 0.0
H285 H 0.38434 0.01611 0.19409 0.0
H286 H 0.40067 0.98745 0.21451 0.0
H287 H 0.36216 0.99101 0.21297 0.0
C288 C 0.37301 0.13555 0.1696 0.0
N289 N 0.35529 0.11456 0.17809 0.0
N290 N 0.36831 0.09832 0.19708 0.0
C291 C 0.39517 0.10847 0.20095 0.0
C292 C 0.39879 0.13244 0.18377 0.0
C293 C 0.3654 0.15787 0.14789 0.0
H294 H 0.35722 0.14734 0.12824 0.0
H295 H 0.38403 0.17153 0.14232 0.0
H296 H 0.34804 0.17153 0.15653 0.0
O297 O 0.29153 0.10436 0.19868 0.0
O298 O 0.31196 0.07926 0.23323 0.0
H299 H 0.41091 0.10011 0.24298 0.0
H300 H 0.43858 0.10467 0.21651 0.0
C301 C 0.41698 0.0956 0.22052 0.0
H302 H 0.41756 0.07207 0.21755 0.0
H303 H 0.36762 0.07918 0.27215 0.0
O304 O 0.30296 0.13716 0.1418 0.0
C305 C 0.29092 0.09366 0.22366 0.0
Co306 Co 0.64989 0.56448 0.90403 0.0
Co307 Co 0.68984 0.59016 0.95181 0.0
C308 C 0.71268 0.56138 0.8985 0.0
O309 O 0.68802 0.55755 0.88748 0.0
O310 O 0.71591 0.57297 0.92295 0.0
C311 C 0.61886 0.52659 0.86948 0.0
O312 O 0.64046 0.51007 0.8767 0.0
C313 C 0.73942 0.62063 0.97605 0.0
C314 C 0.72303 0.63378 0.01832 0.0
C315 C 0.74702 0.6348 0.00096 0.0
N316 N 0.71215 0.61166 0.97853 0.0
N317 N 0.70251 0.61961 0.00387 0.0
C318 C 0.75741 0.61648 0.94993 0.0
H319 H 0.74436 0.62054 0.9305 0.0
H320 H 0.77621 0.631 0.94995 0.0
H321 H 0.76497 0.59399 0.94924 0.0
C322 C 0.62666 0.62233 0.90455 0.0
N323 N 0.64563 0.60294 0.91394 0.0
N324 N 0.66161 0.61428 0.93419 0.0
C325 C 0.65297 0.6416 0.9383 0.0
C326 C 0.63062 0.64745 0.91958 0.0
C327 C 0.60404 0.61629 0.88264 0.0
H328 H 0.61407 0.6068 0.86336 0.0
H329 H 0.59226 0.63595 0.87642 0.0
H330 H 0.58867 0.60046 0.89146 0.0
O331 O 0.64491 0.53971 0.93784 0.0
O332 O 0.67231 0.55714 0.97259 0.0
H333 H 0.65839 0.65368 0.98195 0.0
H334 H 0.65681 0.68349 0.95739 0.0
C335 C 0.66486 0.66135 0.96044 0.0
H336 H 0.68857 0.66135 0.95934 0.0
H337 H 0.68199 0.61507 0.01143 0.0
O338 O 0.61908 0.55251 0.87753 0.0
C339 C 0.65465 0.53858 0.96323 0.0
Co340 Co 0.18259 0.90009 0.66919 0.0
Co341 Co 0.15514 0.93428 0.71997 0.0
C342 C 0.18444 0.96324 0.66975 0.0
O343 O 0.18896 0.93992 0.65634 0.0
O344 O 0.17221 0.96371 0.69414 0.0
C345 C 0.19758 0.86511 0.61602 0.0
O346 O 0.18482 0.88226 0.59773 0.0
C347 C 0.1204 0.9781 0.74852 0.0
C348 C 0.11183 0.95742 0.7902 0.0
C349 C 0.10687 0.98216 0.77463 0.0
N350 N 0.1328 0.95217 0.74877 0.0
N351 N 0.12757 0.93992 0.77372 0.0
C352 C 0.12059 0.99775 0.72324 0.0
H353 H 0.14087 0.01013 0.72317 0.0
H354 H 0.11961 0.98511 0.70318 0.0
H355 H 0.10229 0.01286 0.72398 0.0
C356 C 0.12474 0.87506 0.66689 0.0
N357 N 0.14386 0.89351 0.67797 0.0
N358 N 0.13209 0.90728 0.69949 0.0
C359 C 0.10492 0.89782 0.70272 0.0
C360 C 0.09945 0.87731 0.68202 0.0
C361 C 0.13116 0.85425 0.64348 0.0
H362 H 0.14987 0.84099 0.64963 0.0
H363 H 0.13658 0.86625 0.62376 0.0
H364 H 0.11272 0.83998 0.63893 0.0
O365 O 0.20677 0.89319 0.70299 0.0
O366 O 0.18791 0.91602 0.73994 0.0
H367 H 0.09331 0.90028 0.74678 0.0
H368 H 0.06317 0.89817 0.72262 0.0
C369 C 0.08489 0.90731 0.72573 0.0
H370 H 0.08352 0.931 0.72576 0.0
H371 H 0.13492 0.91965 0.77954 0.0
O372 O 0.19737 0.87078 0.64259 0.0
C373 C 0.20719 0.90018 0.72922 0.0
Co374 Co 0.85986 0.43547 0.41949 0.0
Co375 Co 0.81369 0.40982 0.46111 0.0
C376 C 0.79756 0.43938 0.40619 0.0
O377 O 0.82364 0.44436 0.39996 0.0
O378 O 0.79065 0.42579 0.42884 0.0
C379 C 0.89509 0.45001 0.36914 0.0
O380 O 0.87221 0.44695 0.35306 0.0
C381 C 0.76218 0.38047 0.48275 0.0
C382 C 0.77632 0.36754 0.52599 0.0
C383 C 0.75319 0.36674 0.50747 0.0
N384 N 0.78946 0.38893 0.48646 0.0
N385 N 0.79775 0.38114 0.51237 0.0
C386 C 0.74542 0.38492 0.45584 0.0
H387 H 0.75914 0.38041 0.43703 0.0
H388 H 0.72624 0.3709 0.45516 0.0
H389 H 0.73851 0.4076 0.45468 0.0
C390 C 0.88212 0.37731 0.42275 0.0
N391 N 0.86212 0.39675 0.42941 0.0
N392 N 0.84361 0.38546 0.4474 0.0
C393 C 0.85154 0.35811 0.45274 0.0
C394 C 0.87614 0.35226 0.43725 0.0
C395 C 0.90764 0.38327 0.40429 0.0
H396 H 0.9003 0.39047 0.3829 0.0
H397 H 0.9214 0.36413 0.40166 0.0
H398 H 0.92051 0.40069 0.414 0.0
O399 O 0.86278 0.45924 0.45379 0.0
O400 O 0.82916 0.44313 0.4833 0.0
H401 H 0.84129 0.34472 0.49514 0.0
H402 H 0.84404 0.31583 0.4698 0.0
C403 C 0.83662 0.33818 0.47283 0.0
H404 H 0.81317 0.33926 0.46933 0.0
H405 H 0.81796 0.38545 0.52088 0.0
O406 O 0.8933 0.44629 0.396 0.0
C407 C 0.8492 0.46064 0.47727 0.0
Co408 Co 0.818 0.38557 0.83364 0.0
Co409 Co 0.84598 0.42591 0.78759 0.0
C410 C 0.82104 0.44656 0.84459 0.0
O411 O 0.81655 0.42174 0.85501 0.0
O412 O 0.83105 0.45001 0.81944 0.0
C413 C 0.80191 0.34645 0.88198 0.0
O414 O 0.81193 0.36473 0.90083 0.0
C415 C 0.87617 0.47675 0.76551 0.0
C416 C 0.89015 0.46199 0.72292 0.0
C417 C 0.89011 0.48555 0.74083 0.0
N418 N 0.86831 0.44923 0.76234 0.0
N419 N 0.87681 0.44055 0.73683 0.0
C420 C 0.8707 0.4941 0.79181 0.0
H421 H 0.8759 0.48124 0.81109 0.0
H422 H 0.88373 0.51396 0.79196 0.0
H423 H 0.84768 0.49986 0.79267 0.0
C424 C 0.87329 0.35656 0.82816 0.0
N425 N 0.85533 0.37773 0.82074 0.0
N426 N 0.8679 0.39457 0.80195 0.0
C427 C 0.89469 0.38466 0.7972 0.0
C428 C 0.89867 0.36011 0.81343 0.0
C429 C 0.8666 0.33394 0.84987 0.0
H430 H 0.8482 0.32095 0.84232 0.0
H431 H 0.86053 0.34433 0.87028 0.0
H432 H 0.88509 0.31962 0.85392 0.0
O433 O 0.7909 0.38928 0.80158 0.0
O434 O 0.81166 0.41266 0.76587 0.0
H435 H 0.9099 0.39353 0.75512 0.0
H436 H 0.93784 0.38966 0.78143 0.0
C437 C 0.91601 0.39819 0.77756 0.0
H438 H 0.91605 0.42171 0.7806 0.0
H439 H 0.87282 0.42019 0.7286 0.0
O440 O 0.80305 0.35239 0.85546 0.0
C441 C 0.79029 0.39933 0.7763 0.0
Co442 Co 0.34543 0.06664 0.57723 0.0
Co443 Co 0.30749 0.09685 0.53043 0.0
C444 C 0.28323 0.06829 0.58407 0.0
O445 O 0.30752 0.06304 0.59538 0.0
O446 O 0.28108 0.08036 0.55967 0.0
C447 C 0.38295 0.05058 0.62717 0.0
O448 O 0.36624 0.06413 0.64519 0.0
C449 C 0.2589 0.12879 0.50609 0.0
C450 C 0.27614 0.14191 0.4641 0.0
C451 C 0.25174 0.14272 0.48085 0.0
N452 N 0.28629 0.12013 0.50433 0.0
N453 N 0.29647 0.12813 0.47917 0.0
C454 C 0.2401 0.12377 0.53149 0.0
H455 H 0.25241 0.12761 0.55144 0.0
H456 H 0.2211 0.13801 0.53106 0.0
H457 H 0.23283 0.10116 0.53153 0.0
C458 C 0.37519 0.12217 0.57537 0.0
N459 N 0.35375 0.10483 0.56707 0.0
N460 N 0.33828 0.11788 0.54741 0.0
C461 C 0.3496 0.14412 0.5427 0.0
C462 C 0.3732 0.14757 0.56035 0.0
C463 C 0.39847 0.11379 0.59575 0.0
H464 H 0.40876 0.0938 0.58824 0.0
H465 H 0.38901 0.10981 0.61711 0.0
H466 H 0.41507 0.13066 0.59778 0.0
O467 O 0.34509 0.04184 0.54318 0.0
O468 O 0.32161 0.06365 0.50823 0.0
H469 H 0.3448 0.15802 0.4995 0.0
H470 H 0.34814 0.18676 0.52493 0.0
C471 C 0.33876 0.16524 0.52125 0.0
H472 H 0.3151 0.16658 0.52247 0.0
H473 H 0.31702 0.12334 0.47192 0.0
O474 O 0.37677 0.05012 0.60068 0.0
C475 C 0.33578 0.04238 0.5176 0.0
Co476 Co 0.68329 0.61545 0.32725 0.0
Co477 Co 0.65506 0.5702 0.28653 0.0
C478 C 0.69593 0.55129 0.32952 0.0
O479 O 0.69995 0.5775 0.33604 0.0
O480 O 0.67683 0.54355 0.31157 0.0
C481 C 0.71221 0.64019 0.37627 0.0
O482 O 0.72224 0.61429 0.38064 0.0
C483 C 0.62757 0.52491 0.2504 0.0
C484 C 0.60115 0.55287 0.22282 0.0
C485 C 0.60775 0.52444 0.22799 0.0
N486 N 0.6317 0.55234 0.25823 0.0
N487 N 0.61608 0.56882 0.2414 0.0
C488 C 0.64446 0.50045 0.26229 0.0
H489 H 0.66471 0.5082 0.27192 0.0
H490 H 0.63174 0.48961 0.27917 0.0
H491 H 0.64954 0.48474 0.24527 0.0
C492 C 0.62364 0.62948 0.33871 0.0
N493 N 0.64356 0.61356 0.32556 0.0
N494 N 0.63106 0.59449 0.30909 0.0
C495 C 0.60239 0.59752 0.31179 0.0
C496 C 0.59691 0.61975 0.33055 0.0
C497 C 0.6303 0.65498 0.35691 0.0
H498 H 0.64484 0.66958 0.34509 0.0
H499 H 0.64158 0.6478 0.37654 0.0
H500 H 0.61069 0.6668 0.36311 0.0
O501 O 0.69967 0.62743 0.29081 0.0
O502 O 0.6852 0.59106 0.26405 0.0
H503 H 0.57466 0.58933 0.27638 0.0
H504 H 0.56042 0.5786 0.31031 0.0
C505 C 0.58026 0.57952 0.29727 0.0
H506 H 0.58837 0.55753 0.29384 0.0
H507 H 0.61578 0.59113 0.24253 0.0
O508 O 0.69529 0.64461 0.35547 0.0
C509 C 0.70037 0.61344 0.26758 0.0
Co510 Co 0.15323 0.934 0.08739 0.0
Co511 Co 0.1928 0.90975 0.03931 0.0
C512 C 0.21451 0.93227 0.09715 0.0
O513 O 0.18977 0.93556 0.10814 0.0
O514 O 0.2177 0.92363 0.07145 0.0
C515 C 0.11222 0.94542 0.13592 0.0
O516 O 0.12933 0.93398 0.1551 0.0
C517 C 0.24167 0.8772 0.01682 0.0
C518 C 0.22777 0.86859 0.97247 0.0
C519 C 0.25001 0.86414 0.99157 0.0
N520 N 0.2156 0.88874 0.01287 0.0
N521 N 0.20745 0.88356 0.98628 0.0
C522 C 0.25773 0.87795 0.04451 0.0
H523 H 0.24279 0.87393 0.06252 0.0
H524 H 0.27509 0.86176 0.04492 0.0
H525 H 0.26721 0.89953 0.04741 0.0
C526 C 0.12528 0.87802 0.07987 0.0
N527 N 0.14597 0.89694 0.07326 0.0
N528 N 0.16208 0.88636 0.05278 0.0
C529 C 0.15182 0.86025 0.0456 0.0
C530 C 0.12834 0.85417 0.06271 0.0
C531 C 0.10182 0.88347 0.10095 0.0
H532 H 0.11134 0.88709 0.12237 0.0
H533 H 0.08652 0.86536 0.10233 0.0
H534 H 0.08987 0.90294 0.09452 0.0
O535 O 0.15528 0.96277 0.05641 0.0
O536 O 0.17852 0.94464 0.01935 0.0
H537 H 0.15966 0.8516 0.00152 0.0
H538 H 0.15392 0.82 0.02301 0.0
C539 C 0.16384 0.8416 0.02263 0.0
H540 H 0.18731 0.83956 0.02548 0.0
H541 H 0.18809 0.89044 0.97751 0.0
O542 O 0.11991 0.94673 0.1099 0.0
C543 C 0.16475 0.96501 0.031 0.0
Co544 Co 0.16295 0.32314 0.09635 0.0
Co545 Co 0.21698 0.35019 0.06674 0.0
C546 C 0.16722 0.32422 0.0336 0.0
O547 O 0.15221 0.31965 0.05591 0.0
O548 O 0.19222 0.33521 0.03502 0.0
C549 C 0.12595 0.28344 0.12205 0.0
O550 O 0.13648 0.26722 0.10168 0.0
C551 C 0.25584 0.37874 0.0252 0.0
C552 C 0.28653 0.39921 0.05479 0.0
C553 C 0.27974 0.39666 0.02602 0.0
N554 N 0.24841 0.37219 0.05227 0.0
N555 N 0.26723 0.38402 0.06973 0.0
C556 C 0.24254 0.36495 -0.00048 0.0
H557 H 0.23496 0.34317 0.00498 0.0
H558 H 0.22396 0.37788 0.99233 0.0
H559 H 0.25812 0.363 0.98175 0.0
C560 C 0.15987 0.37955 0.12262 0.0
N561 N 0.17282 0.36089 0.10508 0.0
N562 N 0.19483 0.37326 0.09258 0.0
C563 C 0.19619 0.4007 0.10177 0.0
C564 C 0.17418 0.40538 0.12106 0.0
C565 C 0.1352 0.37206 0.14165 0.0
H566 H 0.14155 0.35425 0.15603 0.0
H567 H 0.11699 0.36458 0.12835 0.0
H568 H 0.1282 0.39042 0.15488 0.0
O569 O 0.19459 0.29638 0.10317 0.0
O570 O 0.2341 0.31583 0.08573 0.0
H571 H 0.23706 0.42104 0.10403 0.0
H572 H 0.20829 0.44466 0.09475 0.0
C573 C 0.21696 0.4228 0.09152 0.0
H574 H 0.22162 0.41968 0.0685 0.0
H575 H 0.26693 0.38162 0.09192 0.0
O576 O 0.13252 0.30977 0.12244 0.0
C577 C 0.22132 0.29537 0.09844 0.0
Co578 Co 0.65744 0.17798 0.89397 0.0
Co579 Co 0.70174 0.14904 0.93584 0.0
C580 C 0.64843 0.17961 0.95654 0.0
O581 O 0.63905 0.1848 0.93141 0.0
O582 O 0.67212 0.16672 0.96075 0.0
C583 C 0.60863 0.19458 0.85464 0.0
O584 O 0.58913 0.18439 0.87215 0.0
C585 C 0.72602 0.11973 0.98636 0.0
C586 C 0.76628 0.10254 0.96863 0.0
C587 C 0.75046 0.10449 0.99357 0.0
N588 N 0.7273 0.1264 0.95837 0.0
N589 N 0.75145 0.11606 0.94795 0.0
C590 C 0.7017 0.12761 0.00558 0.0
H591 H 0.68109 0.12322 0.9946 0.0
H592 H 0.70245 0.11543 0.02597 0.0
H593 H 0.70273 0.15086 0.01027 0.0
C594 C 0.65699 0.12046 0.8692 0.0
N595 N 0.66603 0.13904 0.88914 0.0
N596 N 0.6844 0.12626 0.90633 0.0
C597 C 0.68723 0.09873 0.89779 0.0
C598 C 0.67008 0.09441 0.87394 0.0
C599 C 0.63649 0.12772 0.84564 0.0
H600 H 0.6161 0.13511 0.85514 0.0
H601 H 0.63194 0.10908 0.83169 0.0
H602 H 0.64548 0.14533 0.83248 0.0
O603 O 0.6926 0.20079 0.89137 0.0
O604 O 0.72508 0.18108 0.91987 0.0
H605 H 0.7288 0.08128 0.90483 0.0
H606 H 0.70054 0.05508 0.9048 0.0
C607 C 0.70641 0.07711 0.91149 0.0
H608 H 0.70505 0.07879 0.9351 0.0
H609 H 0.75814 0.11883 0.92683 0.0
O610 O 0.63498 0.19294 0.8612 0.0
C611 C 0.71757 0.2003 0.90209 0.0
Co612 Co 0.56205 0.91139 0.64369 0.0
Co613 Co 0.58398 0.96096 0.68335 0.0
C614 C 0.56309 0.90416 0.70665 0.0
O615 O 0.55911 0.89348 0.68186 0.0
O616 O 0.57201 0.92976 0.71003 0.0
C617 C 0.55107 0.86241 0.59963 0.0
O618 O 0.57031 0.8437 0.60798 0.0
C619 C 0.61829 0.98906 0.72834 0.0
C620 C 0.62011 0.0333 0.71165 0.0
C621 C 0.62941 0.01603 0.7339 0.0
N622 N 0.60326 0.99038 0.7038 0.0
N623 N 0.6043 0.01692 0.69407 0.0
C624 C 0.6233 0.96207 0.74483 0.0
H625 H 0.62475 0.94365 0.72995 0.0
H626 H 0.64317 0.96354 0.75779 0.0
H627 H 0.6049 0.95833 0.75935 0.0
C628 C 0.61896 0.91955 0.61765 0.0
N629 N 0.59904 0.92596 0.63733 0.0
N630 N 0.60851 0.94691 0.65364 0.0
C631 C 0.635 0.95439 0.64466 0.0
C632 C 0.64243 0.93711 0.62179 0.0
C633 C 0.61483 0.89835 0.59406 0.0
H634 H 0.59385 0.90203 0.58361 0.0
H635 H 0.61506 0.87649 0.60327 0.0
H636 H 0.63188 0.89992 0.57764 0.0
O637 O 0.53389 0.94248 0.64084 0.0
O638 O 0.54845 0.97867 0.66766 0.0
H639 H 0.64232 0.99848 0.65401 0.0
H640 H 0.67461 0.97818 0.64797 0.0
C641 C 0.6529 0.97755 0.65758 0.0
H642 H 0.65484 0.97398 0.68095 0.0
H643 H 0.5945 0.02374 0.67517 0.0
O644 O 0.54849 0.88623 0.61244 0.0
C645 C 0.53037 0.96755 0.65062 0.0
Co646 Co 0.83448 0.81177 0.40264 0.0
Co647 Co 0.79291 0.84524 0.44327 0.0
C648 C 0.84826 0.81703 0.46348 0.0
O649 O 0.85688 0.81068 0.4384 0.0
O650 O 0.82413 0.82906 0.46774 0.0
C651 C 0.87836 0.79277 0.35888 0.0
O652 O 0.89858 0.80917 0.36952 0.0
C653 C 0.77096 0.87711 0.49309 0.0
C654 C 0.73102 0.89523 0.47542 0.0
C655 C 0.74706 0.89318 0.50027 0.0
N656 N 0.76913 0.87008 0.46524 0.0
N657 N 0.74521 0.88105 0.45485 0.0
C658 C 0.79503 0.86836 0.51233 0.0
H659 H 0.7934 0.84509 0.51683 0.0
H660 H 0.81575 0.87234 0.50144 0.0
H661 H 0.79463 0.88036 0.53279 0.0
C662 C 0.8302 0.86569 0.36982 0.0
N663 N 0.82376 0.84957 0.39279 0.0
N664 N 0.80797 0.86467 0.41055 0.0
C665 C 0.80489 0.89138 0.39974 0.0
C666 C 0.81855 0.89259 0.37349 0.0
C667 C 0.84769 0.85572 0.34495 0.0
H668 H 0.87013 0.85293 0.35202 0.0
H669 H 0.84754 0.87126 0.32702 0.0
H670 H 0.83936 0.8349 0.33721 0.0
O671 O 0.80073 0.78752 0.40849 0.0
O672 O 0.76789 0.81267 0.4316 0.0
H673 H 0.7662 0.91367 0.40901 0.0
H674 H 0.79705 0.93638 0.40603 0.0
C675 C 0.78934 0.91536 0.414 0.0
H676 H 0.79235 0.91424 0.43751 0.0
H677 H 0.73803 0.87793 0.43392 0.0
O678 O 0.85365 0.79232 0.37021 0.0
C679 C 0.77581 0.78995 0.41898 0.0
Co680 Co 0.93074 0.07105 0.14448 0.0
Co681 Co 0.90359 0.0211 0.18045 0.0
C682 C 0.9312 0.07311 0.20763 0.0
O683 O 0.9359 0.08563 0.18381 0.0
O684 O 0.9194 0.04853 0.20896 0.0
C685 C 0.94469 0.12345 0.10846 0.0
O686 O 0.92999 0.14105 0.12465 0.0
C687 C 0.86727 0.99464 0.22444 0.0
C688 C 0.86111 0.95128 0.20669 0.0
C689 C 0.85414 0.96851 0.22974 0.0
N690 N 0.88132 0.99284 0.19943 0.0
N691 N 0.87756 0.96687 0.18895 0.0
C692 C 0.8654 0.02138 0.24187 0.0
H693 H 0.86526 0.04038 0.22758 0.0
H694 H 0.84588 0.02137 0.25537 0.0
H695 H 0.88452 0.02286 0.25591 0.0
C696 C 0.87376 0.07023 0.11743 0.0
N697 N 0.89247 0.06088 0.13723 0.0
N698 N 0.88092 0.03963 0.15171 0.0
C699 C 0.85433 0.03478 0.14133 0.0
C700 C 0.84894 0.05418 0.1195 0.0
C701 C 0.88063 0.09214 0.09505 0.0
H702 H 0.88361 0.1132 0.10549 0.0
H703 H 0.86346 0.09403 0.07876 0.0
H704 H 0.90083 0.08625 0.08414 0.0
O705 O 0.95571 0.0376 0.13981 0.0
O706 O 0.9373 0.00118 0.16409 0.0
H707 H 0.8443 0.99049 0.14626 0.0
H708 H 0.81338 0.01314 0.14117 0.0
C709 C 0.83475 0.01156 0.15144 0.0
H710 H 0.83225 0.01296 0.17498 0.0
H711 H 0.88628 0.95981 0.16967 0.0
O712 O 0.94592 0.09701 0.11466 0.0
C713 C 0.95662 0.01175 0.14811 0.0
Co714 Co 0.33436 0.6837 0.60155 0.0
Co715 Co 0.28222 0.66161 0.56545 0.0
C716 C 0.33821 0.68132 0.53871 0.0
O717 O 0.35062 0.68555 0.56267 0.0
O718 O 0.31231 0.67272 0.53715 0.0
C719 C 0.38701 0.69418 0.63943 0.0
O720 O 0.40545 0.68111 0.62278 0.0
C721 C 0.25187 0.62707 0.52236 0.0
C722 C 0.20817 0.62631 0.54042 0.0
C723 C 0.22448 0.61652 0.51773 0.0
N724 N 0.25169 0.64231 0.54673 0.0
N725 N 0.22549 0.64186 0.55733 0.0
C726 C 0.27813 0.62157 0.50498 0.0
H727 H 0.28169 0.6399 0.49028 0.0
H728 H 0.29707 0.61976 0.51923 0.0
H729 H 0.27582 0.60174 0.49213 0.0
C730 C 0.32654 0.62822 0.63003 0.0
N731 N 0.31958 0.64718 0.60954 0.0
N732 N 0.29712 0.63783 0.59533 0.0
C733 C 0.28891 0.61251 0.60676 0.0
C734 C 0.30745 0.60564 0.62893 0.0
C735 C 0.34964 0.6328 0.65178 0.0
H736 H 0.34486 0.65236 0.66429 0.0
H737 H 0.37033 0.63593 0.64063 0.0
H738 H 0.35163 0.61448 0.66675 0.0
O739 O 0.30399 0.71274 0.60485 0.0
O740 O 0.26604 0.69777 0.58065 0.0
H741 H 0.24368 0.60813 0.60215 0.0
H742 H 0.26213 0.5748 0.60874 0.0
C743 C 0.26332 0.59569 0.59747 0.0
H744 H 0.26432 0.59198 0.57407 0.0
H745 H 0.21949 0.65205 0.57625 0.0
O746 O 0.36081 0.69568 0.63229 0.0
C747 C 0.27846 0.71632 0.59619 0.0
Co748 Co 0.06098 0.58297 0.35046 0.0
Co749 Co 0.09653 0.54235 0.31055 0.0
C750 C 0.06394 0.59321 0.28778 0.0
O751 O 0.05656 0.60148 0.31267 0.0
O752 O 0.07857 0.57053 0.28385 0.0
C753 C 0.0407 0.62958 0.39042 0.0
O754 O 0.05745 0.64909 0.37904 0.0
C755 C 0.13236 0.51947 0.26378 0.0
C756 C 0.15013 0.48084 0.28454 0.0
C757 C 0.1499 0.49599 0.25906 0.0
N758 N 0.12278 0.51825 0.29088 0.0
N759 N 0.13347 0.49508 0.30311 0.0
C760 C 0.12511 0.54291 0.2432 0.0
H761 H 0.10286 0.53984 0.23542 0.0
H762 H 0.12618 0.56387 0.25427 0.0
H763 H 0.13994 0.54308 0.22467 0.0
C764 C 0.11606 0.5851 0.38157 0.0
N765 N 0.09985 0.57654 0.35936 0.0
N766 N 0.11549 0.56086 0.34197 0.0
C767 C 0.14259 0.55995 0.35223 0.0
C768 C 0.14359 0.57496 0.37775 0.0
C769 C 0.10538 0.60271 0.40605 0.0
H770 H 0.0847 0.59404 0.41377 0.0
H771 H 0.10215 0.62496 0.39857 0.0
H772 H 0.12076 0.60335 0.4241 0.0
O773 O 0.04027 0.54657 0.35034 0.0
O774 O 0.06559 0.51629 0.3241 0.0
H775 H 0.16577 0.52148 0.34434 0.0
H776 H 0.18781 0.55292 0.34612 0.0
C777 C 0.16695 0.54445 0.33852 0.0
H778 H 0.16572 0.54658 0.31493 0.0
H779 H 0.12894 0.48872 0.32403 0.0
O780 O 0.0407 0.60414 0.38092 0.0
C781 C 0.04411 0.52194 0.33973 0.0
Co782 Co 0.4354 0.41422 0.846 0.0
Co783 Co 0.40476 0.46249 0.81114 0.0
C784 C 0.42673 0.40557 0.7859 0.0
O785 O 0.43273 0.39393 0.80979 0.0
O786 O 0.41752 0.43125 0.7843 0.0
C787 C 0.45658 0.36722 0.88591 0.0
O788 O 0.44077 0.34692 0.8746 0.0
C789 C 0.36844 0.48487 0.76477 0.0
C790 C 0.35998 0.5289 0.77947 0.0
C791 C 0.35533 0.51031 0.75688 0.0
N792 N 0.38036 0.48829 0.79076 0.0
N793 N 0.37507 0.51465 0.79947 0.0
C794 C 0.36969 0.45773 0.7479 0.0
H795 H 0.3911 0.45583 0.73782 0.0
H796 H 0.36659 0.43913 0.76235 0.0
H797 H 0.35305 0.45739 0.73093 0.0
C798 C 0.3837 0.41906 0.88106 0.0
N799 N 0.39923 0.42681 0.85821 0.0
N800 N 0.38607 0.44757 0.84445 0.0
C801 C 0.3617 0.45402 0.85868 0.0
C802 C 0.35966 0.43629 0.88256 0.0
C803 C 0.39115 0.39449 0.90025 0.0
H804 H 0.39678 0.37582 0.88691 0.0
H805 H 0.37308 0.38826 0.9143 0.0
H806 H 0.40991 0.4003 0.91361 0.0
O807 O 0.46194 0.44655 0.84059 0.0
O808 O 0.43989 0.48405 0.82184 0.0
H809 H 0.35343 0.49855 0.85344 0.0
H810 H 0.32253 0.4782 0.86422 0.0
C811 C 0.34201 0.47794 0.8507 0.0
H812 H 0.33579 0.47591 0.82788 0.0
H813 H 0.38272 0.52327 0.81858 0.0
O814 O 0.45542 0.39265 0.8764 0.0
C815 C 0.46221 0.47243 0.83224 0.0
H816 H 0.23814 0.19127 0.45247 0.0
H817 H 0.20194 0.11277 0.48486 0.0
H818 H 0.15682 0.12301 0.46056 0.0
H819 H 0.13027 0.15088 0.42457 0.0
H820 H 0.16625 0.22902 0.39159 0.0
H821 H 0.20873 0.22277 0.42187 0.0
C822 C 0.22009 0.1768 0.45466 0.0
C823 C 0.2232 0.15145 0.47052 0.0
C824 C 0.19429 0.18273 0.44039 0.0
C825 C 0.19984 0.13271 0.47321 0.0
C826 C 0.17413 0.13841 0.45908 0.0
C827 C 0.14706 0.16693 0.42486 0.0
C828 C 0.14539 0.19041 0.40626 0.0
C829 C 0.17143 0.1629 0.44195 0.0
C830 C 0.16721 0.211 0.40617 0.0
C831 C 0.19153 0.20725 0.42321 0.0
H832 H 0.56448 0.43859 0.13392 0.0
H833 H 0.58297 0.37683 0.1998 0.0
H834 H 0.59352 0.41569 0.23364 0.0
H835 H 0.60136 0.46725 0.24265 0.0
H836 H 0.58795 0.5276 0.17372 0.0
H837 H 0.57118 0.48934 0.14304 0.0
C838 C 0.57048 0.43372 0.15584 0.0
C839 C 0.57308 0.40514 0.16451 0.0
C840 C 0.57781 0.45592 0.17445 0.0
C841 C 0.58065 0.39883 0.19287 0.0
C842 C 0.58698 0.42101 0.21203 0.0
C843 C 0.59548 0.47203 0.22078 0.0
C844 C 0.59693 0.50032 0.21038 0.0
C845 C 0.58651 0.44965 0.20274 0.0
C846 C 0.58745 0.50608 0.18236 0.0
C847 C 0.57782 0.4842 0.16468 0.0
H848 H 0.37306 0.8421 0.94478 0.0
H849 H 0.32971 0.77084 0.90581 0.0
H850 H 0.28701 0.78032 0.9346 0.0
H851 H 0.25958 0.81458 0.96369 0.0
H852 H 0.30275 0.88661 0.00179 0.0
H853 H 0.34811 0.87115 0.98092 0.0
C854 C 0.35467 0.82794 0.94371 0.0
C855 C 0.35432 0.80572 0.9236 0.0
C856 C 0.33003 0.83413 0.95967 0.0
C857 C 0.33037 0.78776 0.92162 0.0
C858 C 0.30588 0.79347 0.93773 0.0
C859 C 0.27913 0.82639 0.96795 0.0
C860 C 0.27797 0.85166 0.9841 0.0
C861 C 0.30502 0.81747 0.9557 0.0
C862 C 0.30327 0.86691 0.98964 0.0
C863 C 0.32915 0.85819 0.97754 0.0
H864 H 0.93927 0.5019 0.71501 0.0
H865 H 0.85882 0.53424 0.74627 0.0
H866 H 0.86885 0.58094 0.72503 0.0
H867 H 0.89729 0.61015 0.69163 0.0
H868 H 0.97733 0.57794 0.65966 0.0
H869 H 0.9712 0.53384 0.6875 0.0
C870 C 0.92431 0.51943 0.71763 0.0
C871 C 0.89846 0.51479 0.73223 0.0
C872 C 0.93016 0.54618 0.70518 0.0
C873 C 0.87908 0.5375 0.73552 0.0
C874 C 0.8847 0.56413 0.72317 0.0
C875 C 0.9138 0.59383 0.69171 0.0
C876 C 0.93776 0.59703 0.67396 0.0
C877 C 0.90976 0.56844 0.70725 0.0
C878 C 0.95892 0.57581 0.67358 0.0
C879 C 0.95522 0.55054 0.68919 0.0
H880 H 0.73863 0.31734 0.53361 0.0
H881 H 0.70322 0.39564 0.50005 0.0
H882 H 0.65687 0.38429 0.52141 0.0
H883 H 0.62922 0.35607 0.55632 0.0
H884 H 0.66478 0.2784 0.59076 0.0
H885 H 0.70808 0.28495 0.56193 0.0
C886 C 0.7205 0.33149 0.53046 0.0
C887 C 0.72417 0.35721 0.51535 0.0
C888 C 0.69403 0.32494 0.54304 0.0
C889 C 0.7007 0.37552 0.51129 0.0
C890 C 0.67428 0.36916 0.5237 0.0
C891 C 0.64605 0.34009 0.5565 0.0
C892 C 0.6441 0.31678 0.57531 0.0
C893 C 0.67102 0.34445 0.54045 0.0
C894 C 0.66596 0.29629 0.57604 0.0
C895 C 0.69078 0.30026 0.55987 0.0
H896 H 0.38088 0.96156 0.25797 0.0
H897 H 0.44388 0.01536 0.29873 0.0
H898 H 0.46282 0.97417 0.32475 0.0
H899 H 0.45656 0.92468 0.3412 0.0
H900 H 0.39196 0.87145 0.30278 0.0
H901 H 0.37904 0.91021 0.26972 0.0
C902 C 0.39942 0.96405 0.2717 0.0
C903 C 0.41111 0.99139 0.27634 0.0
C904 C 0.40975 0.94036 0.28711 0.0
C905 C 0.43455 0.99447 0.29491 0.0
C906 C 0.44536 0.97097 0.30981 0.0
C907 C 0.44033 0.92143 0.32489 0.0
C908 C 0.4252 0.89555 0.3241 0.0
C909 C 0.43245 0.94406 0.30684 0.0
C910 C 0.40393 0.89131 0.30337 0.0
C911 C 0.3964 0.91352 0.28476 0.0
H912 H 0.86931 0.65065 0.05347 0.0
H913 H 0.83041 0.72804 0.0844 0.0
H914 H 0.78811 0.71927 0.05463 0.0
H915 H 0.75931 0.68515 0.0265 0.0
H916 H 0.79803 0.60719 0.99638 0.0
H917 H 0.84342 0.62055 0.01876 0.0
C918 C 0.85204 0.66614 0.0526 0.0
C919 C 0.85283 0.69006 0.07065 0.0
C920 C 0.82757 0.66046 0.03608 0.0
C921 C 0.83024 0.70977 0.07015 0.0
C922 C 0.80595 0.70451 0.05349 0.0
C923 C 0.77793 0.67149 0.02435 0.0
C924 C 0.77546 0.64529 0.0099 0.0
C925 C 0.80388 0.67926 0.03742 0.0
C926 C 0.7996 0.62764 0.00714 0.0
C927 C 0.82548 0.63517 0.0201 0.0
H928 H 0.12413 0.03732 0.76813 0.0
H929 H 0.05976 0.98469 0.80824 0.0
H930 H 0.04151 0.02624 0.83416 0.0
H931 H 0.04823 0.07592 0.85012 0.0
H932 H 0.11466 0.12749 0.8125 0.0
H933 H 0.12733 0.0883 0.78008 0.0
C934 C 0.10547 0.03516 0.78172 0.0
C935 C 0.09307 0.0081 0.78608 0.0
C936 C 0.09561 0.05897 0.79705 0.0
C937 C 0.06957 0.00539 0.80458 0.0
C938 C 0.05917 0.02909 0.8194 0.0
C939 C 0.06482 0.0787 0.83412 0.0
C940 C 0.08039 0.10432 0.8332 0.0
C941 C 0.0726 0.05577 0.81647 0.0
C942 C 0.1023 0.10787 0.81307 0.0
C943 C 0.10965 0.08544 0.79481 0.0
H944 H 0.40493 0.18372 0.20839 0.0
H945 H 0.4465 0.12444 0.15176 0.0
H946 H 0.48098 0.16149 0.13757 0.0
H947 H 0.49367 0.21265 0.13571 0.0
H948 H 0.45058 0.2721 0.19144 0.0
H949 H 0.42235 0.23314 0.21179 0.0
C950 C 0.42221 0.17881 0.19371 0.0
C951 C 0.42359 0.15164 0.18121 0.0
C952 C 0.44131 0.20036 0.18522 0.0
C953 C 0.44551 0.14529 0.1618 0.0
C954 C 0.46496 0.16652 0.15354 0.0
C955 C 0.47895 0.21692 0.15307 0.0
C956 C 0.47428 0.24521 0.16214 0.0
C957 C 0.46237 0.19444 0.16431 0.0
C958 C 0.45444 0.25048 0.18406 0.0
C959 C 0.43826 0.22825 0.19567 0.0
H960 H 0.58102 0.65181 0.94758 0.0
H961 H 0.63568 0.69604 0.88813 0.0
H962 H 0.59656 0.72885 0.87582 0.0
H963 H 0.54473 0.73878 0.87592 0.0
H964 H 0.48963 0.69179 0.93318 0.0
H965 H 0.53085 0.66624 0.95261 0.0
C966 C 0.58452 0.6694 0.93279 0.0
C967 C 0.61099 0.67198 0.91897 0.0
C968 C 0.56167 0.68722 0.92505 0.0
C969 C 0.61544 0.69419 0.89929 0.0
C970 C 0.593 0.71264 0.89203 0.0
C971 C 0.54192 0.72373 0.89336 0.0
C972 C 0.51424 0.71719 0.90319 0.0
C973 C 0.56568 0.70855 0.90389 0.0
C974 C 0.51078 0.69705 0.92524 0.0
C975 C 0.53431 0.68242 0.93633 0.0
H976 H 0.09078 0.82889 0.71153 0.0
H977 H 0.05517 0.88149 0.64481 0.0
H978 H 0.02224 0.8429 0.63128 0.0
H979 H 0.00973 0.79177 0.63352 0.0
H980 H 0.04843 0.73818 0.69796 0.0
H981 H 0.07397 0.77942 0.71752 0.0
C982 C 0.07502 0.83208 0.69475 0.0
C983 C 0.07487 0.85783 0.67936 0.0
C984 C 0.05716 0.80943 0.68641 0.0
C985 C 0.05511 0.86184 0.65713 0.0
C986 C 0.03658 0.8397 0.64924 0.0
C987 C 0.02294 0.78937 0.65245 0.0
C988 C 0.0271 0.76209 0.66445 0.0
C989 C 0.03822 0.81303 0.66301 0.0
C990 C 0.04498 0.75905 0.68843 0.0
C991 C 0.0596 0.78258 0.69957 0.0
H992 H 0.99042 0.28783 0.43178 0.0
H993 H 0.94971 0.25257 0.35692 0.0
H994 H 0.90381 0.27259 0.37174 0.0
H995 H 0.87794 0.30775 0.4011 0.0
H996 H 0.91883 0.34402 0.47518 0.0
H997 H 0.96174 0.31539 0.46628 0.0
C998 C 0.97127 0.28396 0.4192 0.0
C999 C 0.9733 0.26892 0.39334 0.0
C1000 C 0.94503 0.29574 0.42776 0.0
C1001 C 0.94851 0.26387 0.37709 0.0
C1002 C 0.92231 0.27549 0.38544 0.0
C1003 C 0.89578 0.30819 0.41598 0.0
C1004 C 0.89545 0.32757 0.43881 0.0
C1005 C 0.9206 0.2924 0.41012 0.0
C1006 C 0.91871 0.32876 0.45775 0.0
C1007 C 0.94334 0.31277 0.45238 0.0
H1008 H 0.99239 0.28134 0.86391 0.0
H1009 H 0.94325 0.21873 0.8171 0.0
H1010 H 0.91653 0.25685 0.79341 0.0
H1011 H 0.90203 0.30721 0.79217 0.0
H1012 H 0.94916 0.36969 0.84064 0.0
H1013 H 0.98271 0.33261 0.85671 0.0
C1014 C 0.97666 0.27604 0.84771 0.0
C1015 C 0.96985 0.24725 0.8422 0.0
C1016 C 0.961 0.29811 0.83456 0.0
C1017 C 0.94873 0.24077 0.82179 0.0
C1018 C 0.93346 0.26253 0.80824 0.0
C1019 C 0.92038 0.31273 0.80533 0.0
C1020 C 0.92347 0.34087 0.81518 0.0
C1021 C 0.93869 0.29118 0.81527 0.0
C1022 C 0.9468 0.34808 0.83261 0.0
C1023 C 0.96567 0.32684 0.84206 0.0
H1024 H 0.37936 0.1893 0.59937 0.0
H1025 H 0.41629 0.15479 0.52254 0.0
H1026 H 0.45981 0.18316 0.53013 0.0
H1027 H 0.48963 0.2122 0.56261 0.0
H1028 H 0.45256 0.24638 0.6397 0.0
H1029 H 0.40666 0.22414 0.62804 0.0
C1030 C 0.3966 0.18893 0.58384 0.0
C1031 C 0.39486 0.1704 0.56037 0.0
C1032 C 0.4216 0.20487 0.58869 0.0
C1033 C 0.41728 0.16938 0.54051 0.0
C1034 C 0.4422 0.18529 0.54505 0.0
C1035 C 0.47126 0.2152 0.57646 0.0
C1036 C 0.4743 0.23089 0.60187 0.0
C1037 C 0.445 0.20225 0.56965 0.0
C1038 C 0.45052 0.23472 0.6198 0.0
C1039 C 0.42436 0.22183 0.61326 0.0
H1040 H 0.57189 0.65434 0.29253 0.0
H1041 H 0.56382 0.62133 0.37813 0.0
H1042 H 0.52727 0.65734 0.38899 0.0
H1043 H 0.50492 0.70328 0.37663 0.0
H1044 H 0.51765 0.73936 0.2927 0.0
H1045 H 0.54491 0.69709 0.2783 0.0
C1046 C 0.56125 0.65453 0.31316 0.0
C1047 C 0.57 0.63537 0.3345 0.0
C1048 C 0.54154 0.67615 0.31956 0.0
C1049 C 0.55689 0.63587 0.36143 0.0
C1050 C 0.53631 0.65658 0.36765 0.0
C1051 C 0.51279 0.70131 0.35489 0.0
C1052 C 0.5092 0.72406 0.33558 0.0
C1053 C 0.52944 0.67758 0.34727 0.0
C1054 C 0.52017 0.72188 0.30776 0.0
C1055 C 0.5358 0.69784 0.29961 0.0
H1056 H 0.01463 0.78549 0.05801 0.0
H1057 H 0.04795 0.75328 0.13784 0.0
H1058 H 0.09402 0.7761 0.12831 0.0
H1059 H 0.12182 0.81168 0.10104 0.0
H1060 H 0.08832 0.84489 0.02188 0.0
H1061 H 0.04556 0.81485 0.02686 0.0
C1062 C 0.03227 0.78294 0.07291 0.0
C1063 C 0.02802 0.76769 0.09849 0.0
C1064 C 0.05858 0.79642 0.06742 0.0
C1065 C 0.05089 0.76451 0.11777 0.0
C1066 C 0.07715 0.77779 0.11246 0.0
C1067 C 0.10558 0.81139 0.08442 0.0
C1068 C 0.10798 0.83017 0.06111 0.0
C1069 C 0.08089 0.7946 0.08785 0.0
C1070 C 0.08684 0.83023 0.0398 0.0
C1071 C 0.06231 0.81335 0.04286 0.0
H1072 H 0.12393 0.49352 0.20723 0.0
H1073 H 0.20243 0.47294 0.25119 0.0
H1074 H 0.21939 0.44665 0.2093 0.0
H1075 H 0.20865 0.4238 0.16315 0.0
H1076 H 0.1285 0.44111 0.12109 0.0
H1077 H 0.11557 0.47514 0.15877 0.0
C1078 C 0.14516 0.48418 0.20721 0.0
C1079 C 0.1621 0.48536 0.23203 0.0
C1080 C 0.15429 0.46834 0.18344 0.0
C1081 C 0.18915 0.47232 0.23217 0.0
C1082 C 0.19879 0.45725 0.20831 0.0
C1083 C 0.18879 0.43576 0.16195 0.0
C1084 C 0.16949 0.43028 0.13965 0.0
C1085 C 0.18112 0.45429 0.18423 0.0
C1086 C 0.14359 0.44533 0.13819 0.0
C1087 C 0.13617 0.46454 0.15979 0.0
H1088 H 0.69541 0.09018 0.82303 0.0
H1089 H 0.63959 0.04532 0.88089 0.0
H1090 H 0.62491 0.01285 0.84231 0.0
H1091 H 0.62142 0.00381 0.79037 0.0
H1092 H 0.67461 0.052 0.73231 0.0
H1093 H 0.69705 0.07662 0.77254 0.0
C1094 C 0.68092 0.07252 0.82729 0.0
C1095 C 0.66867 0.06975 0.8545 0.0
C1096 C 0.67168 0.05504 0.80479 0.0
C1097 C 0.64947 0.04738 0.86003 0.0
C1098 C 0.64084 0.02915 0.83791 0.0
C1099 C 0.63861 0.01897 0.78666 0.0
C1100 C 0.64642 0.02615 0.75851 0.0
C1101 C 0.65081 0.03367 0.8099 0.0
C1102 C 0.66822 0.04631 0.75386 0.0
C1103 C 0.68102 0.06038 0.77682 0.0
H1104 H 0.68294 0.89674 0.61728 0.0
H1105 H 0.65755 0.97903 0.5846 0.0
H1106 H 0.69159 0.97435 0.54497 0.0
H1107 H 0.72232 0.943 0.51572 0.0
H1108 H 0.74634 0.86001 0.54817 0.0
H1109 H 0.71962 0.86884 0.59206 0.0
C1110 C 0.68572 0.91399 0.60196 0.0
C1111 C 0.66802 0.93813 0.60354 0.0
C1112 C 0.7048 0.9108 0.57908 0.0
C1113 C 0.67128 0.96039 0.58367 0.0
C1114 C 0.69047 0.95755 0.56094 0.0
C1115 C 0.72226 0.92724 0.5328 0.0
C1116 C 0.73637 0.90102 0.52888 0.0
C1117 C 0.70641 0.93229 0.55778 0.0
C1118 C 0.73613 0.8806 0.55095 0.0
C1119 C 0.72057 0.8855 0.57593 0.0
H1120 H 0.86603 0.9801 0.28564 0.0
H1121 H 0.80795 0.93361 0.23097 0.0
H1122 H 0.78735 0.90962 0.27259 0.0
H1123 H 0.79135 0.89641 0.32323 0.0
H1124 H 0.85142 0.94034 0.37748 0.0
H1125 H 0.86513 0.97172 0.33763 0.0
C1126 C 0.84816 0.96556 0.28295 0.0
C1127 C 0.8384 0.95869 0.25532 0.0
C1128 C 0.83691 0.95134 0.30694 0.0
C1129 C 0.81582 0.93911 0.25207 0.0
C1130 C 0.80406 0.9254 0.27583 0.0
C1131 C 0.80667 0.9136 0.32641 0.0
C1132 C 0.82038 0.91637 0.35294 0.0
C1133 C 0.81517 0.93057 0.3032 0.0
C1134 C 0.84051 0.93822 0.35713 0.0
C1135 C 0.84854 0.95584 0.3343 0.0
H1136 H 0.81074 0.09672 0.11308 0.0
H1137 H 0.83477 0.01432 0.07993 0.0
H1138 H 0.80327 0.02137 0.03851 0.0
H1139 H 0.77459 0.05421 0.00867 0.0
H1140 H 0.75115 0.13691 0.04186 0.0
H1141 H 0.77633 0.12655 0.08652 0.0
C1142 C 0.80825 0.08002 0.09717 0.0
C1143 C 0.8248 0.05509 0.09926 0.0
C1144 C 0.79054 0.08449 0.07333 0.0
C1145 C 0.8219 0.03355 0.07863 0.0
C1146 C 0.80417 0.03773 0.05489 0.0
C1147 C 0.77452 0.06962 0.026 0.0
C1148 C 0.761 0.09617 0.02215 0.0
C1149 C 0.78925 0.06358 0.0515 0.0
C1150 C 0.76102 0.11612 0.04458 0.0
C1151 C 0.77563 0.11031 0.07001 0.0
H1152 H 0.30824 0.54195 0.7455 0.0
H1153 H 0.37926 0.49948 0.70493 0.0
H1154 H 0.36693 0.52155 0.65926 0.0
H1155 H 0.34089 0.5591 0.63305 0.0
H1156 H 0.27081 0.60275 0.67358 0.0
H1157 H 0.27727 0.5738 0.71689 0.0
C1158 C 0.3205 0.53704 0.72644 0.0
C1159 C 0.34447 0.51902 0.72849 0.0
C1160 C 0.31351 0.55017 0.7003 0.0
C1161 C 0.36037 0.51282 0.70378 0.0
C1162 C 0.35351 0.52569 0.67769 0.0
C1163 C 0.3264 0.56134 0.65103 0.0
C1164 C 0.30535 0.58267 0.65037 0.0
C1165 C 0.33076 0.54515 0.67595 0.0
C1166 C 0.28689 0.58606 0.67374 0.0
C1167 C 0.29084 0.56979 0.69855 0.0
H1168 H 0.1475 0.55147 0.42984 0.0
H1169 H 0.19192 0.60679 0.37109 0.0
H1170 H 0.22477 0.62172 0.40933 0.0
H1171 H 0.235 0.6249 0.46105 0.0
H1172 H 0.18744 0.57218 0.52007 0.0
H1173 H 0.16154 0.55026 0.48032 0.0
C1174 C 0.16497 0.56613 0.42538 0.0
C1175 C 0.1675 0.57816 0.39803 0.0
C1176 C 0.18276 0.57541 0.44765 0.0
C1177 C 0.18987 0.59727 0.39214 0.0
C1178 C 0.20838 0.60597 0.41403 0.0
C1179 C 0.21965 0.60795 0.46507 0.0
C1180 C 0.21313 0.60003 0.49335 0.0
C1181 C 0.20424 0.59607 0.44213 0.0
C1182 C 0.19267 0.5786 0.49841 0.0
C1183 C 0.17787 0.5661 0.47573 0.0
H1184 H 0.26211 0.4115 0.97144 0.0
H1185 H 0.33556 0.41238 0.02773 0.0
H1186 H 0.36529 0.43041 0.98907 0.0
H1187 H 0.37199 0.44035 0.93832 0.0
H1188 H 0.30114 0.43191 0.8799 0.0
H1189 H 0.26873 0.42246 0.92018 0.0
C1190 C 0.28474 0.41479 0.97514 0.0
C1191 C 0.29675 0.40924 0.00228 0.0
C1192 C 0.30215 0.42404 0.9524 0.0
C1193 C 0.32575 0.41586 0.007 0.0
C1194 C 0.34285 0.42618 0.98489 0.0
C1195 C 0.34934 0.43677 0.93451 0.0
C1196 C 0.33888 0.43662 0.90636 0.0
C1197 C 0.33147 0.42956 0.95738 0.0
C1198 C 0.30955 0.43233 0.90151 0.0
C1199 C 0.29117 0.42656 0.92447 0.0
H1200 H 0.11091 0.30907 0.17237 0.0
H1201 H 0.11036 0.22771 0.1286 0.0
H1202 H 0.09564 0.2038 0.17251 0.0
H1203 H 0.08736 0.2052 0.22388 0.0
H1204 H 0.08788 0.28582 0.26868 0.0
H1205 H 0.09813 0.31093 0.22364 0.0
C1206 C 0.10712 0.28618 0.17231 0.0
C1207 C 0.11208 0.27016 0.14725 0.0
C1208 C 0.09905 0.27242 0.19784 0.0
C1209 C 0.10692 0.24054 0.14756 0.0
C1210 C 0.09861 0.22681 0.17271 0.0
C1211 C 0.08966 0.2283 0.22386 0.0
C1212 C 0.08743 0.24361 0.24964 0.0
C1213 C 0.09545 0.24241 0.19808 0.0
C1214 C 0.08974 0.27357 0.24912 0.0
C1215 C 0.09563 0.28787 0.2234 0.0
H1216 H 0.4437 0.33459 0.93257 0.0
H1217 H 0.50863 0.38949 0.89653 0.0
H1218 H 0.53644 0.38645 0.94061 0.0
H1219 H 0.54165 0.3697 0.98954 0.0
H1220 H 0.47649 0.31609 0.02731 0.0
H1221 H 0.44915 0.31753 0.9826 0.0
C1222 C 0.46418 0.3454 0.93433 0.0
C1223 C 0.47436 0.36195 0.91136 0.0
C1224 C 0.47971 0.34425 0.96014 0.0
C1225 C 0.50054 0.37649 0.91397 0.0
C1226 C 0.51636 0.37489 0.93918 0.0
C1227 C 0.52143 0.35834 0.98814 0.0
C1228 C 0.51117 0.34284 0.0118 0.0
C1229 C 0.50597 0.35917 0.96249 0.0
C1230 C 0.48485 0.32835 0.00948 0.0
C1231 C 0.46929 0.329 0.98386 0.0
H1232 H 0.43849 0.7384 0.75706 0.0
H1233 H 0.35292 0.77247 0.76338 0.0
H1234 H 0.34009 0.75028 0.71802 0.0
H1235 H 0.35354 0.72377 0.67576 0.0
H1236 H 0.43932 0.69078 0.6668 0.0
H1237 H 0.45186 0.71024 0.71394 0.0
C1238 C 0.41696 0.74048 0.74862 0.0
C1239 C 0.3966 0.7569 0.76351 0.0
C1240 C 0.40992 0.7283 0.72196 0.0
C1241 C 0.3689 0.75993 0.75224 0.0
C1242 C 0.36158 0.74734 0.72629 0.0
C1243 C 0.37504 0.72068 0.68399 0.0
C1244 C 0.3955 0.7059 0.66765 0.0
C1245 C 0.38203 0.73196 0.71079 0.0
C1246 C 0.4232 0.70222 0.67884 0.0
C1247 C 0.43033 0.71325 0.70583 0.0
H1248 H 0.05541 0.66317 0.43584 0.0
H1249 H 0.98893 0.60782 0.40348 0.0
H1250 H 0.96284 0.61195 0.44842 0.0
H1251 H 0.95957 0.62973 0.49707 0.0
H1252 H 0.02618 0.68399 0.53116 0.0
H1253 H 0.05183 0.68146 0.48556 0.0
C1254 C 0.03497 0.65249 0.43858 0.0
C1255 C 0.02389 0.63547 0.41638 0.0
C1256 C 0.0204 0.65431 0.46488 0.0
C1257 C 0.99774 0.62115 0.42029 0.0
C1258 C 0.9829 0.62337 0.446 0.0
C1259 C 0.97974 0.641 0.49469 0.0
C1260 C 0.99091 0.65698 0.51759 0.0
C1261 C 0.99421 0.63956 0.46852 0.0
C1262 C 0.01713 0.67138 0.51396 0.0
C1263 C 0.03173 0.67008 0.48782 0.0
H1264 H 0.64323 0.2241 0.819 0.0
H1265 H 0.55635 0.19377 0.82736 0.0
H1266 H 0.54431 0.21511 0.7809 0.0
H1267 H 0.55837 0.24418 0.73863 0.0
H1268 H 0.64473 0.27644 0.73301 0.0
H1269 H 0.65723 0.2521 0.7775 0.0
C1270 C 0.62163 0.22199 0.81071 0.0
C1271 C 0.60071 0.20737 0.82669 0.0
C1272 C 0.61486 0.23452 0.78434 0.0
C1273 C 0.57283 0.20504 0.81558 0.0
C1274 C 0.56597 0.21715 0.78897 0.0
C1275 C 0.58 0.2454 0.747 0.0
C1276 C 0.6007 0.26184 0.73255 0.0
C1277 C 0.5868 0.2321 0.77321 0.0
C1278 C 0.62851 0.26383 0.74379 0.0
C1279 C 0.63563 0.25002 0.76925 0.0
H1280 H 0.56104 0.82689 0.55377 0.0
H1281 H 0.50047 0.88757 0.58812 0.0
H1282 H 0.47149 0.88384 0.54522 0.0
H1283 H 0.46334 0.86447 0.49818 0.0
H1284 H 0.52251 0.80373 0.46185 0.0
H1285 H 0.55223 0.80669 0.50515 0.0
C1286 C 0.54133 0.83898 0.5519 0.0
C1287 C 0.53294 0.85745 0.57416 0.0
C1288 C 0.52469 0.83704 0.52675 0.0
C1289 C 0.50752 0.87327 0.57132 0.0
C1290 C 0.49089 0.87122 0.54675 0.0
C1291 C 0.48274 0.8518 0.49952 0.0
C1292 C 0.49063 0.83389 0.47674 0.0
C1293 C 0.49938 0.85341 0.52432 0.0
C1294 C 0.51597 0.81781 0.47902 0.0
C1295 C 0.53288 0.81938 0.50384 0.0
H1296 H 0.91515 0.80514 0.31494 0.0
H1297 H 0.84998 0.74538 0.34189 0.0
H1298 H 0.85283 0.72086 0.2961 0.0
H1299 H 0.87319 0.71639 0.24865 0.0
H1300 H 0.93813 0.77566 0.22012 0.0
H1301 H 0.9356 0.80071 0.26609 0.0
C1302 C 0.90189 0.78654 0.31084 0.0
C1303 C 0.88254 0.77695 0.33186 0.0
C1304 C 0.90325 0.77273 0.28409 0.0
C1305 C 0.86507 0.75314 0.3261 0.0
C1306 C 0.8666 0.73916 0.29988 0.0
C1307 C 0.88679 0.73486 0.25229 0.0
C1308 C 0.90585 0.74406 0.23089 0.0
C1309 C 0.88544 0.74886 0.2787 0.0
C1310 C 0.92314 0.76816 0.23613 0.0
C1311 C 0.92184 0.78237 0.2625 0.0
H1312 H 0.9906 0.17766 0.9929 0.0
H1313 H 0.04002 0.09973 0.99408 0.0
H1314 H 0.01689 0.08509 0.03852 0.0
H1315 H 0.98409 0.09494 0.07759 0.0
H1316 H 0.936 0.1737 0.0789 0.0
H1317 H 0.95747 0.18779 0.03311 0.0
C1318 C 0.99591 0.15731 0.00276 0.0
C1319 C 0.01673 0.13962 0.99017 0.0
C1320 C 0.98315 0.14943 0.02889 0.0
C1321 C 0.02397 0.1136 0.00337 0.0
C1322 C 0.01084 0.10529 0.0288 0.0
C1323 C 0.97821 0.11522 0.06792 0.0
C1324 C 0.95843 0.13323 0.08163 0.0
C1325 C 0.99069 0.12316 0.04188 0.0
C1326 C 0.95131 0.15952 0.06887 0.0
C1327 C 0.96345 0.16749 0.04262 0.0
H1328 H 0.24236 0.12049 0.20737 0.0
H1329 H 0.27872 0.07202 0.27722 0.0
H1330 H 0.23287 0.07409 0.30259 0.0
H1331 H 0.18232 0.0905 0.30498 0.0
H1332 H 0.14765 0.13947 0.23471 0.0
H1333 H 0.1929 0.13576 0.20914 0.0
C1334 C 0.24046 0.11039 0.2282 0.0
C1335 C 0.26408 0.09622 0.24038 0.0
C1336 C 0.21415 0.1114 0.24241 0.0
C1337 C 0.26097 0.08324 0.26738 0.0
C1338 C 0.2347 0.08426 0.28182 0.0
C1339 C 0.18463 0.09983 0.28385 0.0
C1340 C 0.16169 0.11504 0.27159 0.0
C1341 C 0.21108 0.09822 0.26948 0.0
C1342 C 0.16503 0.12759 0.24448 0.0
C1343 C 0.19091 0.12562 0.22993 0.0
H1344 H 0.68937 0.50524 0.99604 0.0
H1345 H 0.6019 0.51552 0.96838 0.0
H1346 H 0.58884 0.47039 0.99136 0.0
H1347 H 0.6027 0.42692 0.01654 0.0
H1348 H 0.69061 0.4142 0.04201 0.0
H1349 H 0.70323 0.4612 0.02236 0.0
C1350 C 0.66738 0.49779 0.99565 0.0
C1351 C 0.64649 0.51375 0.98093 0.0
C1352 C 0.66025 0.47119 0.00799 0.0
C1353 C 0.61821 0.50363 0.97982 0.0
C1354 C 0.6108 0.47778 0.99279 0.0
C1355 C 0.62466 0.43436 0.01791 0.0
C1356 C 0.64569 0.41696 0.03067 0.0
C1357 C 0.63174 0.46116 0.00642 0.0
C1358 C 0.67402 0.42704 0.03213 0.0
C1359 C 0.68121 0.45398 0.02102 0.0
H1360 H 0.23856 0.93245 0.76609 0.0
H1361 H 0.23204 0.84812 0.72932 0.0
H1362 H 0.27739 0.83451 0.75148 0.0
H1363 H 0.32007 0.84743 0.77817 0.0
H1364 H 0.32922 0.93248 0.8129 0.0
H1365 H 0.28173 0.94515 0.79439 0.0
C1366 C 0.24688 0.91094 0.76354 0.0
C1367 C 0.23198 0.89114 0.74644 0.0
C1368 C 0.27359 0.90363 0.77545 0.0
C1369 C 0.24315 0.86357 0.74259 0.0
C1370 C 0.26911 0.85586 0.75508 0.0
C1371 C 0.31176 0.86878 0.78186 0.0
C1372 C 0.32828 0.88903 0.79681 0.0
C1373 C 0.28476 0.8759 0.771 0.0
C1374 C 0.31705 0.91654 0.80128 0.0
C1375 C 0.28985 0.92374 0.79081 0.0
H1376 H 0.81244 0.49681 0.50427 0.0
H1377 H 0.90202 0.47836 0.49213 0.0
H1378 H 0.91505 0.52244 0.51684 0.0
H1379 H 0.90122 0.56774 0.53793 0.0
H1380 H 0.81187 0.58876 0.54821 0.0
H1381 H 0.79844 0.54222 0.52806 0.0
C1382 C 0.83476 0.50224 0.50772 0.0
C1383 C 0.85631 0.48439 0.49667 0.0
C1384 C 0.84209 0.52826 0.52104 0.0
C1385 C 0.88516 0.4918 0.50061 0.0
C1386 C 0.8926 0.51704 0.51456 0.0
C1387 C 0.87874 0.56225 0.53589 0.0
C1388 C 0.85758 0.58191 0.54431 0.0
C1389 C 0.87126 0.53575 0.52415 0.0
C1390 C 0.82861 0.57415 0.5417 0.0
C1391 C 0.82093 0.54751 0.53024 0.0
H1392 H 0.73738 0.39746 0.79844 0.0
H1393 H 0.7824 0.39636 0.71797 0.0
H1394 H 0.73689 0.38925 0.6925 0.0
H1395 H 0.68463 0.38007 0.69389 0.0
H1396 H 0.64066 0.38242 0.77515 0.0
H1397 H 0.68553 0.39276 0.79949 0.0
C1398 C 0.73729 0.39566 0.77529 0.0
C1399 C 0.76321 0.39685 0.7601 0.0
C1400 C 0.71123 0.39192 0.76097 0.0
C1401 C 0.76269 0.39527 0.73011 0.0
C1402 C 0.7367 0.39119 0.7156 0.0
C1403 C 0.68481 0.38325 0.71687 0.0
C1404 C 0.65929 0.38013 0.73269 0.0
C1405 C 0.71086 0.38905 0.73089 0.0
C1406 C 0.65992 0.38448 0.76243 0.0
C1407 C 0.68562 0.3903 0.77643 0.0
H1408 H 0.33529 0.93673 0.43279 0.0
H1409 H 0.38885 0.90244 0.49984 0.0
H1410 H 0.38442 0.94678 0.52676 0.0
H1411 H 0.36642 0.99521 0.53097 0.0
H1412 H 0.31344 0.03111 0.46424 0.0
H1413 H 0.31701 0.9864 0.4372 0.0
C1414 C 0.34556 0.93893 0.4535 0.0
C1415 C 0.36216 0.91634 0.46448 0.0
C1416 C 0.34347 0.96485 0.46865 0.0
C1417 C 0.3759 0.91955 0.49103 0.0
C1418 C 0.37349 0.94491 0.50637 0.0
C1419 C 0.35568 0.99344 0.51046 0.0
C1420 C 0.33969 0.01654 0.49969 0.0
C1421 C 0.3576 0.96775 0.49526 0.0
C1422 C 0.32603 0.01372 0.473 0.0
C1423 C 0.3279 0.98809 0.45761 0.0
H1424 H 0.80996 0.66115 0.20791 0.0
H1425 H 0.8261 0.57087 0.19709 0.0
H1426 H 0.77826 0.55993 0.21549 0.0
H1427 H 0.73373 0.576 0.23882 0.0
H1428 H 0.71975 0.66614 0.25248 0.0
H1429 H 0.76466 0.67724 0.22806 0.0
C1430 C 0.80307 0.63903 0.20941 0.0
C1431 C 0.8218 0.61683 0.20146 0.0
C1432 C 0.77579 0.63293 0.22027 0.0
C1433 C 0.81226 0.58836 0.2033 0.0
C1434 C 0.78488 0.5821 0.21376 0.0
C1435 C 0.74015 0.5981 0.23565 0.0
C1436 C 0.72341 0.62029 0.24715 0.0
C1437 C 0.76665 0.60421 0.22276 0.0
C1438 C 0.73224 0.64878 0.24359 0.0
C1439 C 0.75801 0.65509 0.22988 0.0
H1440 H 0.15767 0.01675 0.0552 0.0
H1441 H 0.16353 0.97538 0.97301 0.0
H1442 H 0.15455 0.02131 0.94906 0.0
H1443 H 0.14189 0.07268 0.95197 0.0
H1444 H 0.13699 0.11313 0.03487 0.0
H1445 H 0.14924 0.06809 0.058 0.0
C1446 C 0.15697 0.01771 0.03201 0.0
C1447 C 0.16073 0.99261 0.01589 0.0
C1448 C 0.15213 0.04406 0.01854 0.0
C1449 C 0.16047 0.99437 0.98589 0.0
C1450 C 0.15535 0.02062 0.97222 0.0
C1451 C 0.14396 0.07175 0.97506 0.0
C1452 C 0.13823 0.09628 0.99165 0.0
C1453 C 0.15076 0.04556 0.98837 0.0
C1454 C 0.14108 0.09464 0.02155 0.0
C1455 C 0.14797 0.06883 0.03485 0.0
H1456 H 0.30168 0.18923 0.12414 0.0
H1457 H 0.21916 0.14783 0.13036 0.0
H1458 H 0.19541 0.19287 0.11954 0.0
H1459 H 0.19767 0.24389 0.10978 0.0
H1460 H 0.27948 0.28619 0.10207 0.0
H1461 H 0.30392 0.24084 0.11227 0.0
C1462 C 0.27852 0.19 0.12283 0.0
C1463 C 0.26226 0.16511 0.12815 0.0
C1464 C 0.26486 0.21615 0.1167 0.0
C1465 C 0.23226 0.16656 0.12639 0.0
C1466 C 0.2186 0.19237 0.12032 0.0
C1467 C 0.22088 0.24338 0.1105 0.0
C1468 C 0.23672 0.26854 0.10552 0.0
C1469 C 0.23466 0.21731 0.11582 0.0
C1470 C 0.26677 0.2672 0.10602 0.0
C1471 C 0.28073 0.24126 0.11176 0.0
H1472 H 0.77915 0.30587 0.84766 0.0
H1473 H 0.79788 0.32386 0.93628 0.0
H1474 H 0.7765 0.27801 0.95024 0.0
H1475 H 0.74935 0.23416 0.93725 0.0
H1476 H 0.72839 0.21898 0.84871 0.0
H1477 H 0.75429 0.26214 0.83463 0.0
C1478 C 0.77873 0.29982 0.87007 0.0
C1479 C 0.78992 0.31844 0.89091 0.0
C1480 C 0.76616 0.27377 0.8779 0.0
C1481 C 0.78924 0.31006 0.9198 0.0
C1482 C 0.77707 0.2838 0.92779 0.0
C1483 C 0.75112 0.24008 0.91487 0.0
C1484 C 0.73733 0.22343 0.89394 0.0
C1485 C 0.76513 0.26562 0.90704 0.0
C1486 C 0.73905 0.23149 0.86507 0.0
C1487 C 0.75368 0.25621 0.85705 0.0
H1488 H 0.41716 0.01571 0.59648 0.0
H1489 H 0.41039 0.05636 0.67901 0.0
H1490 H 0.45665 0.03593 0.69311 0.0
H1491 H 0.49888 0.00566 0.6819 0.0
H1492 H 0.50328 0.9639 0.59973 0.0
H1493 H 0.45829 0.98602 0.58544 0.0
C1494 C 0.42572 0.02019 0.61759 0.0
C1495 C 0.4103 0.03755 0.63665 0.0
C1496 C 0.45208 0.00833 0.62552 0.0
C1497 C 0.42174 0.04293 0.66396 0.0
C1498 C 0.44825 0.03137 0.67198 0.0
C1499 C 0.49008 0.00176 0.66078 0.0
C1500 C 0.50441 0.98331 0.64183 0.0
C1501 C 0.46365 0.01401 0.6529 0.0
C1502 C 0.49262 0.97801 0.61469 0.0
C1503 C 0.46687 0.99059 0.6065 0.0
H1504 H 0.69111 0.69447 0.3782 0.0
H1505 H 0.75966 0.64131 0.4102 0.0
H1506 H 0.7838 0.6834 0.42937 0.0
H1507 H 0.7886 0.73556 0.43122 0.0
H1508 H 0.72035 0.78923 0.4002 0.0
H1509 H 0.69263 0.74663 0.38665 0.0
C1510 C 0.71113 0.69207 0.38975 0.0
C1511 C 0.72388 0.66486 0.39225 0.0
C1512 C 0.72499 0.71642 0.40065 0.0
C1513 C 0.74951 0.662 0.40774 0.0
C1514 C 0.7634 0.68608 0.41861 0.0
C1515 C 0.76738 0.73783 0.422 0.0
C1516 C 0.75651 0.76524 0.41634 0.0
C1517 C 0.75182 0.71341 0.4143 0.0
C1518 C 0.72898 0.7682 0.40473 0.0
C1519 C 0.71331 0.74389 0.39682 0.0
H1520 H 0.99063 0.98116 0.18392 0.0
H1521 H 0.98044 0.00702 0.09591 0.0
H1522 H 0.02752 0.98758 0.08433 0.0
H1523 H 0.07263 0.96714 0.09984 0.0
H1524 H 0.08522 0.94343 0.18828 0.0
H1525 H 0.03617 0.95844 0.19925 0.0
C1526 C 0.99855 0.98179 0.16212 0.0
C1527 C 0.98215 0.99507 0.14063 0.0
C1528 C 0.02619 0.97161 0.15589 0.0
C1529 C 0.99273 0.99658 0.11261 0.0
C1530 C 0.01967 0.98571 0.10607 0.0
C1531 C 0.06477 0.96514 0.12158 0.0
C1532 C 0.08273 0.95439 0.14327 0.0
C1533 C 0.03682 0.97388 0.12768 0.0
C1534 C 0.07196 0.95186 0.17123 0.0
C1535 C 0.04388 0.96033 0.17747 0.0
H1536 H 0.24007 0.74717 0.5646 0.0
H1537 H 0.28465 0.74562 0.64552 0.0
H1538 H 0.26372 0.79155 0.65838 0.0
H1539 H 0.2339 0.83236 0.64652 0.0
H1540 H 0.19037 0.83629 0.56514 0.0
H1541 H 0.21012 0.78939 0.5523 0.0
C1542 C 0.24486 0.75683 0.58514 0.0
C1543 C 0.26368 0.743 0.6042 0.0
C1544 C 0.2333 0.78375 0.59212 0.0
C1545 C 0.2702 0.75588 0.63054 0.0
C1546 C 0.25831 0.78216 0.63788 0.0
C1547 C 0.22866 0.82304 0.62592 0.0
C1548 C 0.21062 0.83777 0.60683 0.0
C1549 C 0.24008 0.79635 0.61876 0.0
C1550 C 0.20433 0.82545 0.58015 0.0
C1551 C 0.21548 0.79857 0.5729 0.0
H1552 H -0.00018 0.50701 0.30603 0.0
H1553 H 0.03901 0.49062 0.38785 0.0
H1554 H 0.99664 0.4639 0.4033 0.0
H1555 H 0.94663 0.4508 0.39563 0.0
H1556 H 0.90591 0.46928 0.31473 0.0
H1557 H 0.95079 0.48931 0.29656 0.0
C1558 C -0.00073 0.4967 0.32684 0.0
C1559 C 0.0224 0.50016 0.34572 0.0
C1560 C 0.97445 0.48228 0.33585 0.0
C1561 C 0.02149 0.4876 0.37293 0.0
C1562 C 0.99721 0.47264 0.38182 0.0
C1563 C 0.94757 0.45896 0.37391 0.0
C1564 C 0.92281 0.45902 0.35673 0.0
C1565 C 0.97323 0.47074 0.36381 0.0
C1566 C 0.92458 0.46923 0.32849 0.0
C1567 C 0.95023 0.48072 0.3181 0.0
H1568 H 0.56754 0.55276 0.85881 0.0
H1569 H 0.61143 0.47176 0.85159 0.0
H1570 H 0.56694 0.44859 0.83747 0.0
H1571 H 0.51519 0.4502 0.83157 0.0
H1572 H 0.47025 0.53043 0.8385 0.0
H1573 H 0.51567 0.55515 0.84811 0.0
C1574 C 0.56745 0.53013 0.85374 0.0
C1575 C 0.59277 0.51396 0.85664 0.0
C1576 C 0.54161 0.51677 0.84586 0.0
C1577 C 0.59228 0.4847 0.8498 0.0
C1578 C 0.56681 0.47137 0.84179 0.0
C1579 C 0.51531 0.47316 0.83503 0.0
C1580 C 0.4894 0.48843 0.83483 0.0
C1581 C 0.54129 0.48703 0.84053 0.0
C1582 C 0.48994 0.51822 0.8387 0.0
C1583 C 0.51587 0.53229 0.84428 0.0
H1584 H 0.93287 0.12859 0.22453 0.0
H1585 H 0.96045 0.04377 0.24805 0.0
H1586 H 0.99289 0.06368 0.28393 0.0
H1587 H 0.01863 0.10568 0.30302 0.0
H1588 H 0.98846 0.19034 0.28197 0.0
H1589 H 0.95146 0.17009 0.25122 0.0
C1590 C 0.94544 0.11453 0.2381 0.0
C1591 C 0.94465 0.0849 0.23353 0.0
C1592 C 0.96377 0.12609 0.25892 0.0
C1593 C 0.96074 0.06672 0.25131 0.0
C1594 C 0.97946 0.07808 0.27165 0.0
C1595 C 0.00346 0.11958 0.29225 0.0
C1596 C 0.00653 0.14938 0.29433 0.0
C1597 C 0.98196 0.1078 0.27483 0.0
C1598 C 0.98655 0.16727 0.28064 0.0
C1599 C 0.9655 0.15574 0.26286 0.0
H1600 H 0.56906 0.24818 0.03943 0.0
H1601 H 0.65126 0.27443 0.07207 0.0
H1602 H 0.67488 0.23778 0.04302 0.0
H1603 H 0.67252 0.20413 0.00279 0.0
H1604 H 0.59089 0.18423 0.96454 0.0
H1605 H 0.56644 0.21226 0.00136 0.0
C1606 C 0.59206 0.24516 0.04083 0.0
C1607 C 0.60849 0.26354 0.05801 0.0
C1608 C 0.60551 0.22552 0.02262 0.0
C1609 C 0.6383 0.2602 0.05913 0.0
C1610 C 0.65175 0.23946 0.04237 0.0
C1611 C 0.64933 0.20539 0.003 0.0
C1612 C 0.63342 0.19219 0.98115 0.0
C1613 C 0.63566 0.22284 0.02319 0.0
C1614 C 0.60347 0.19433 0.9812 0.0
C1615 C 0.58955 0.21037 0.00218 0.0
H1616 H 0.53664 0.92529 0.75327 0.0
H1617 H 0.56575 0.84655 0.71526 0.0
H1618 H 0.54022 0.819 0.75179 0.0
H1619 H 0.5034 0.81745 0.78917 0.0
H1620 H 0.4686 0.89619 0.82194 0.0
H1621 H 0.50284 0.92372 0.79336 0.0
C1622 C 0.53802 0.90212 0.75352 0.0
C1623 C 0.55299 0.88789 0.73172 0.0
C1624 C 0.52197 0.88648 0.77353 0.0
C1625 C 0.55426 0.85788 0.73187 0.0
C1626 C 0.53959 0.84216 0.75266 0.0
C1627 C 0.50398 0.84061 0.79067 0.0
C1628 C 0.48373 0.85487 0.80764 0.0
C1629 C 0.52246 0.85623 0.77286 0.0
C1630 C 0.48413 0.88486 0.80902 0.0
C1631 C 0.50355 0.90056 0.79257 0.0
H1632 H 0.93187 0.75193 0.54533 0.0
H1633 H 0.85134 0.72345 0.5801 0.0
H1634 H 0.82591 0.75923 0.55133 0.0
H1635 H 0.82621 0.79275 0.51083 0.0
H1636 H 0.90616 0.81483 0.47044 0.0
H1637 H 0.93242 0.7878 0.50694 0.0
C1638 C 0.90883 0.75425 0.54722 0.0
C1639 C 0.89341 0.73546 0.56494 0.0
C1640 C 0.89434 0.77346 0.52923 0.0
C1641 C 0.86354 0.73795 0.56672 0.0
C1642 C 0.84906 0.75823 0.55014 0.0
C1643 C 0.84943 0.79226 0.51054 0.0
C1644 C 0.86435 0.80581 0.48819 0.0
C1645 C 0.86415 0.77528 0.53051 0.0
C1646 C 0.89435 0.80456 0.48755 0.0
C1647 C 0.90929 0.78903 0.50832 0.0
H1648 H 0.45614 0.42964 0.74294 0.0
H1649 H 0.42153 0.34922 0.77202 0.0
H1650 H 0.44973 0.32371 0.73605 0.0
H1651 H 0.49063 0.32387 0.70318 0.0
H1652 H 0.53074 0.40384 0.68042 0.0
H1653 H 0.49395 0.43013 0.7067 0.0
C1654 C 0.45406 0.40663 0.74065 0.0
C1655 C 0.43678 0.39123 0.75983 0.0
C1656 C 0.47183 0.39208 0.7214 0.0
C1657 C 0.43467 0.36139 0.75728 0.0
C1658 C 0.45095 0.34685 0.73692 0.0
C1659 C 0.4908 0.34708 0.70335 0.0
C1660 C 0.51329 0.36199 0.69004 0.0
C1661 C 0.47061 0.36187 0.71986 0.0
C1662 C 0.51363 0.39201 0.69069 0.0
C1663 C 0.49267 0.40699 0.70575 0.0
H1664 H 0.31417 0.71073 0.49544 0.0
H1665 H 0.39451 0.67587 0.5245 0.0
H1666 H 0.41975 0.70148 0.48633 0.0
H1667 H 0.41968 0.7398 0.45038 0.0
H1668 H 0.34025 0.78061 0.42728 0.0
H1669 H 0.3137 0.74644 0.45692 0.0
C1670 C 0.3371 0.70812 0.49283 0.0
C1671 C 0.35255 0.69142 0.51253 0.0
C1672 C 0.35156 0.7243 0.47206 0.0
C1673 C 0.38229 0.68863 0.50946 0.0
C1674 C 0.39668 0.70336 0.48776 0.0
C1675 C 0.39647 0.74058 0.45119 0.0
C1676 C 0.3818 0.76244 0.43663 0.0
C1677 C 0.38167 0.72213 0.46971 0.0
C1678 C 0.35185 0.76381 0.43828 0.0
C1679 C 0.33676 0.74442 0.45535 0.0
H1680 H 0.00118 0.6765 0.2038 0.0
H1681 H 0.96019 0.59743 0.17971 0.0
H1682 H 0.99471 0.57044 0.2086 0.0
H1683 H 0.03204 0.57012 0.24589 0.0
H1684 H 0.06725 0.64994 0.27563 0.0
H1685 H 0.0399 0.67602 0.23921 0.0
C1686 C 0.00031 0.6533 0.2043 0.0
C1687 C 0.9784 0.63887 0.18955 0.0
C1688 C 0.01907 0.63819 0.22226 0.0
C1689 C 0.977 0.60889 0.19086 0.0
C1690 C 0.99662 0.59353 0.20746 0.0
C1691 C 0.03419 0.59315 0.24379 0.0
C1692 C 0.05174 0.60822 0.26298 0.0
C1693 C 0.01711 0.60803 0.224 0.0
C1694 C 0.05395 0.63806 0.26081 0.0
C1695 C 0.03824 0.6529 0.24013 0.0
H1696 H 0.11296 0.32032 0.01344 0.0
H1697 H 0.20016 0.29721 0.9943 0.0
H1698 H 0.18353 0.2625 0.95898 0.0
H1699 H 0.14392 0.23282 0.94045 0.0
H1700 H 0.05677 0.25755 0.95794 0.0
H1701 H 0.07359 0.29779 0.98663 0.0
C1702 C 0.12828 0.30833 0.00082 0.0
C1703 C 0.15764 0.31092 0.00668 0.0
C1704 C 0.11857 0.28838 0.98062 0.0
C1705 C 0.17741 0.29556 0.99009 0.0
C1706 C 0.16791 0.27547 0.97012 0.0
C1707 C 0.12869 0.24748 0.94998 0.0
C1708 C 0.09923 0.24198 0.94763 0.0
C1709 C 0.13851 0.27074 0.96626 0.0
C1710 C 0.0796 0.26131 0.9596 0.0
C1711 C 0.08918 0.28423 0.97615 0.0
H1712 H 0.25916 0.96064 0.07431 0.0
H1713 H 0.22479 0.93099 0.15464 0.0
H1714 H 0.26063 0.95908 0.18063 0.0
H1715 H 0.29601 0.99797 0.18034 0.0
H1716 H 0.32446 0.03325 0.1 0.0
H1717 H 0.29714 0.99684 0.07401 0.0
C1718 C 0.26009 0.9597 0.09749 0.0
C1719 C 0.23951 0.94377 0.11262 0.0
C1720 C 0.27953 0.97724 0.1122 0.0
C1721 C 0.24049 0.94313 0.14263 0.0
C1722 C 0.26086 0.95928 0.15744 0.0
C1723 C 0.29687 0.99708 0.15716 0.0
C1724 C 0.31227 0.01802 0.142 0.0
C1725 C 0.2797 0.97729 0.14246 0.0
C1726 C 0.31277 0.0172 0.112 0.0
C1727 C 0.29705 0.99652 0.0972 0.0
H1728 H 0.79604 0.49237 0.82048 0.0
H1729 H 0.81846 0.45582 0.90226 0.0
H1730 H 0.79044 0.49274 0.92665 0.0
H1731 H 0.75395 0.53052 0.92409 0.0
H1732 H 0.72576 0.56139 0.84182 0.0
H1733 H 0.76191 0.53192 0.81805 0.0
C1734 C 0.79542 0.49298 0.84368 0.0
C1735 C 0.80933 0.47159 0.85965 0.0
C1736 C 0.77793 0.51309 0.85733 0.0
C1737 C 0.8079 0.47217 0.88963 0.0
C1738 C 0.7918 0.49315 0.90351 0.0
C1739 C 0.75631 0.53129 0.90101 0.0
C1740 C 0.7375 0.54809 0.8846 0.0
C1741 C 0.77589 0.51303 0.88752 0.0
C1742 C 0.74016 0.54858 0.85473 0.0
C1743 C 0.7607 0.53168 0.8412 0.0
H1744 H 0.27108 0.06073 0.6405 0.0
H1745 H 0.23828 0.04526 0.55562 0.0
H1746 H 0.20221 0.0128 0.57495 0.0
H1747 H 0.18499 0.98332 0.61525 0.0
H1748 H 0.21512 0.00138 0.70052 0.0
H1749 H 0.24694 0.03856 0.68193 0.0
C1750 C 0.25552 0.0508 0.6264 0.0
C1751 C 0.25755 0.055 0.59672 0.0
C1752 C 0.23459 0.03238 0.63768 0.0
C1753 C 0.23713 0.04234 0.5786 0.0
C1754 C 0.21663 0.02357 0.58958 0.0
C1755 C 0.19802 0.99595 0.62973 0.0
C1756 C 0.1981 0.98953 0.65905 0.0
C1757 C 0.21591 0.01759 0.61896 0.0
C1758 C 0.21477 0.00608 0.67781 0.0
C1759 C 0.23311 0.02718 0.66719 0.0
H1760 H 0.68766 0.49829 0.35349 0.0
H1761 H 0.75256 0.5586 0.32736 0.0
H1762 H 0.78996 0.52713 0.34533 0.0
H1763 H 0.80412 0.48492 0.37168 0.0
H1764 H 0.74023 0.42597 0.40289 0.0
H1765 H 0.70256 0.45414 0.37954 0.0
C1766 C 0.71002 0.50423 0.35163 0.0
C1767 C 0.71749 0.53068 0.33941 0.0
C1768 C 0.73154 0.48636 0.36294 0.0
C1769 C 0.74643 0.53842 0.33707 0.0
C1770 C 0.76781 0.52044 0.34723 0.0
C1771 C 0.78202 0.47785 0.37302 0.0
C1772 C 0.77499 0.45341 0.38899 0.0
C1773 C 0.76059 0.49467 0.36065 0.0
C1774 C 0.74618 0.44482 0.39078 0.0
C1775 C 0.72464 0.46096 0.3775 0.0
loop_
_geom_bond_atom_site_label_1
_geom_bond_atom_site_label_2
_geom_bond_distance
_geom_bond_site_symmetry_2
_ccdc_geom_bond_type
Co0 O3 1.970 . S
Co0 N17 1.989 . S
Co0 O25 1.967 . S
Co0 O32 1.920 . S
Co1 O4 1.966 . S
Co1 N10 2.022 . S
Co1 N18 1.993 . S
Co1 O26 1.941 . S
C2 O3 1.258 . S
C2 O4 1.263 . S
O3 Co0 1.970 . S
O3 C2 1.258 . S
O4 Co1 1.966 . S
O4 C2 1.263 . S
C5 O6 1.235 . S
C5 O32 1.289 . S
O6 C5 1.235 . S
C7 C9 1.400 . S
C7 N10 1.351 . S
C7 C12 1.501 1_455 S
C8 C9 1.387 . S
C8 N11 1.341 . S
C9 C7 1.400 . S
C9 C8 1.387 . S
N10 Co1 2.022 . S
N10 C7 1.351 . S
N10 N11 1.365 . S
N11 C8 1.341 . S
N11 N10 1.365 . S
N11 H31 0.862 . S
C12 C7 1.501 1_655 S
C12 H13 0.961 1_655 S
C12 H14 0.961 . S
C12 H15 0.960 . S
H13 C12 0.961 1_455 S
H14 C12 0.961 . S
H15 C12 0.960 . S
C16 N17 1.342 . S
C16 C20 1.401 . S
C16 C21 1.499 . S
N17 Co0 1.989 . S
N17 C16 1.342 . S
N17 N18 1.388 . S
N18 Co1 1.993 . S
N18 N17 1.388 . S
N18 C19 1.346 . S
C19 N18 1.346 . S
C19 C20 1.396 . S
C19 C29 1.510 . S
C20 C16 1.401 . S
C20 C19 1.396 . S
C21 C16 1.499 . S
C21 H22 0.959 . S
C21 H23 0.960 . S
C21 H24 0.961 . S
H22 C21 0.959 . S
H23 C21 0.960 . S
H24 C21 0.961 . S
O25 Co0 1.967 . S
O25 C33 1.258 . S
O26 Co1 1.941 . S
O26 C33 1.266 . S
H27 C29 0.959 . S
H28 C29 0.961 . S
C29 C19 1.510 . S
C29 H27 0.959 . S
C29 H28 0.961 . S
C29 H30 0.960 . S
H30 C29 0.960 . S
H31 N11 0.862 . S
O32 Co0 1.920 . S
O32 C5 1.289 . S
C33 O25 1.258 . S
C33 O26 1.266 . S
Co34 O37 1.970 . S
Co34 N51 1.989 . S
Co34 O59 1.967 . S
Co34 O66 1.920 . S
Co35 O38 1.966 . S
Co35 N44 2.022 . S
Co35 N52 1.993 . S
Co35 O60 1.941 . S
C36 O37 1.258 . S
C36 O38 1.263 . S
O37 Co34 1.970 . S
O37 C36 1.258 . S
O38 Co35 1.966 . S
O38 C36 1.263 . S
C39 O40 1.235 . S
C39 O66 1.289 . S
O40 C39 1.235 . S
C41 C43 1.400 . S
C41 N44 1.351 . S
C41 C46 1.501 . S
C42 C43 1.387 . S
C42 N45 1.341 . S
C43 C41 1.400 . S
C43 C42 1.387 . S
N44 Co35 2.022 . S
N44 C41 1.351 . S
N44 N45 1.365 . S
N45 C42 1.341 . S
N45 N44 1.365 . S
N45 H65 0.862 . S
C46 C41 1.501 . S
C46 H47 0.961 . S
C46 H48 0.961 . S
C46 H49 0.960 . S
H47 C46 0.961 . S
H48 C46 0.961 . S
H49 C46 0.960 . S
C50 N51 1.342 . S
C50 C54 1.401 . S
C50 C55 1.499 . S
N51 Co34 1.989 . S
N51 C50 1.342 . S
N51 N52 1.388 . S
N52 Co35 1.993 . S
N52 N51 1.388 . S
N52 C53 1.346 . S
C53 N52 1.346 . S
C53 C54 1.396 . S
C53 C63 1.510 . S
C54 C50 1.401 . S
C54 C53 1.396 . S
C55 C50 1.499 . S
C55 H56 0.959 . S
C55 H57 0.960 . S
C55 H58 0.961 . S
H56 C55 0.959 . S
H57 C55 0.960 . S
H58 C55 0.961 . S
O59 Co34 1.967 . S
O59 C67 1.258 . S
O60 Co35 1.941 . S
O60 C67 1.266 . S
H61 C63 0.959 . S
H62 C63 0.961 . S
C63 C53 1.510 . S
C63 H61 0.959 . S
C63 H62 0.961 . S
C63 H64 0.960 . S
H64 C63 0.960 . S
H65 N45 0.862 . S
O66 Co34 1.920 . S
O66 C39 1.289 . S
C67 O59 1.258 . S
C67 O60 1.266 . S
Co68 O71 1.970 . S
Co68 N85 1.989 . S
Co68 O93 1.967 . S
Co68 O100 1.920 . S
Co69 O72 1.966 . S
Co69 N78 2.022 . S
Co69 N86 1.993 . S
Co69 O94 1.941 . S
C70 O71 1.258 . S
C70 O72 1.263 . S
O71 Co68 1.970 . S
O71 C70 1.258 . S
O72 Co69 1.966 . S
O72 C70 1.263 . S
C73 O74 1.235 . S
C73 O100 1.289 . S
O74 C73 1.235 . S
C75 C77 1.400 . S
C75 N78 1.351 . S
C75 C80 1.501 . S
C76 C77 1.387 . S
C76 N79 1.341 . S
C77 C75 1.400 . S
C77 C76 1.387 . S
N78 Co69 2.022 . S
N78 C75 1.351 . S
N78 N79 1.365 . S
N79 C76 1.341 . S
N79 N78 1.365 . S
N79 H99 0.862 . S
C80 C75 1.501 . S
C80 H81 0.961 . S
C80 H82 0.961 . S
C80 H83 0.960 . S
H81 C80 0.961 . S
H82 C80 0.961 . S
H83 C80 0.960 . S
C84 N85 1.342 . S
C84 C88 1.401 . S
C84 C89 1.499 . S
N85 Co68 1.989 . S
N85 C84 1.342 . S
N85 N86 1.388 . S
N86 Co69 1.993 . S
N86 N85 1.388 . S
N86 C87 1.346 . S
C87 N86 1.346 . S
C87 C88 1.396 . S
C87 C97 1.510 . S
C88 C84 1.401 . S
C88 C87 1.396 . S
C89 C84 1.499 . S
C89 H90 0.959 . S
C89 H91 0.960 . S
C89 H92 0.961 . S
H90 C89 0.959 . S
H91 C89 0.960 . S
H92 C89 0.961 . S
O93 Co68 1.967 . S
O93 C101 1.258 . S
O94 Co69 1.941 . S
O94 C101 1.266 . S
H95 C97 0.959 . S
H96 C97 0.961 . S
C97 C87 1.510 . S
C97 H95 0.959 . S
C97 H96 0.961 . S
C97 H98 0.960 . S
H98 C97 0.960 . S
H99 N79 0.862 . S
O100 Co68 1.920 . S
O100 C73 1.289 . S
C101 O93 1.258 . S
C101 O94 1.266 . S
Co102 O105 1.970 . S
Co102 N119 1.989 . S
Co102 O127 1.967 . S
Co102 O134 1.920 . S
Co103 O106 1.966 . S
Co103 N112 2.022 . S
Co103 N120 1.993 . S
Co103 O128 1.941 . S
C104 O105 1.258 . S
C104 O106 1.263 . S
O105 Co102 1.970 . S
O105 C104 1.258 . S
O106 Co103 1.966 . S
O106 C104 1.263 . S
C107 O108 1.235 . S
C107 O134 1.289 . S
O108 C107 1.235 . S
C109 C111 1.400 . S
C109 N112 1.351 . S
C109 C114 1.501 . S
C110 C111 1.387 1_455 S
C110 N113 1.341 . S
C111 C109 1.400 . S
C111 C110 1.387 1_655 S
N112 Co103 2.022 . S
N112 C109 1.351 . S
N112 N113 1.365 1_655 S
N113 C110 1.341 . S
N113 N112 1.365 1_455 S
N113 H133 0.862 . S
C114 C109 1.501 . S
C114 H115 0.961 . S
C114 H116 0.961 . S
C114 H117 0.960 . S
H115 C114 0.961 . S
H116 C114 0.961 . S
H117 C114 0.960 . S
C118 N119 1.342 . S
C118 C122 1.401 . S
C118 C123 1.499 . S
N119 Co102 1.989 . S
N119 C118 1.342 . S
N119 N120 1.388 . S
N120 Co103 1.993 . S
N120 N119 1.388 . S
N120 C121 1.346 . S
C121 N120 1.346 . S
C121 C122 1.396 . S
C121 C131 1.510 . S
C122 C118 1.401 . S
C122 C121 1.396 . S
C123 C118 1.499 . S
C123 H124 0.959 . S
C123 H125 0.960 . S
C123 H126 0.961 . S
H124 C123 0.959 . S
H125 C123 0.960 . S
H126 C123 0.961 . S
O127 Co102 1.967 . S
O127 C135 1.258 . S
O128 Co103 1.941 . S
O128 C135 1.266 . S
H129 C131 0.959 . S
H130 C131 0.961 . S
C131 C121 1.510 . S
C131 H129 0.959 . S
C131 H130 0.961 . S
C131 H132 0.960 . S
H132 C131 0.960 . S
H133 N113 0.862 . S
O134 Co102 1.920 . S
O134 C107 1.289 . S
C135 O127 1.258 . S
C135 O128 1.266 . S
Co136 O139 1.970 . S
Co136 N153 1.989 . S
Co136 O161 1.967 . S
Co136 O168 1.920 . S
Co137 O140 1.966 . S
Co137 N146 2.022 . S
Co137 N154 1.993 . S
Co137 O162 1.941 . S
C138 O139 1.258 . S
C138 O140 1.263 . S
O139 Co136 1.970 . S
O139 C138 1.258 . S
O140 Co137 1.966 . S
O140 C138 1.263 . S
C141 O142 1.235 . S
C141 O168 1.289 . S
O142 C141 1.235 . S
C143 C145 1.400 . S
C143 N146 1.351 . S
C143 C148 1.501 . S
C144 C145 1.387 . S
C144 N147 1.341 . S
C145 C143 1.400 . S
C145 C144 1.387 . S
N146 Co137 2.022 . S
N146 C143 1.351 . S
N146 N147 1.365 . S
N147 C144 1.341 . S
N147 N146 1.365 . S
N147 H167 0.862 . S
C148 C143 1.501 . S
C148 H149 0.961 . S
C148 H150 0.961 . S
C148 H151 0.960 . S
H149 C148 0.961 . S
H150 C148 0.961 . S
H151 C148 0.960 . S
C152 N153 1.342 . S
C152 C156 1.401 . S
C152 C157 1.499 . S
N153 Co136 1.989 . S
N153 C152 1.342 . S
N153 N154 1.388 . S
N154 Co137 1.993 . S
N154 N153 1.388 . S
N154 C155 1.346 . S
C155 N154 1.346 . S
C155 C156 1.396 . S
C155 C165 1.510 . S
C156 C152 1.401 . S
C156 C155 1.396 . S
C157 C152 1.499 . S
C157 H158 0.959 . S
C157 H159 0.960 . S
C157 H160 0.961 . S
H158 C157 0.959 . S
H159 C157 0.960 . S
H160 C157 0.961 . S
O161 Co136 1.967 . S
O161 C169 1.258 . S
O162 Co137 1.941 . S
O162 C169 1.266 . S
H163 C165 0.959 . S
H164 C165 0.961 . S
C165 C155 1.510 . S
C165 H163 0.959 . S
C165 H164 0.961 . S
C165 H166 0.960 . S
H166 C165 0.960 . S
H167 N147 0.862 . S
O168 Co136 1.920 . S
O168 C141 1.289 . S
C169 O161 1.258 . S
C169 O162 1.266 . S
Co170 O173 1.970 . S
Co170 N187 1.989 . S
Co170 O195 1.967 . S
Co170 O202 1.920 . S
Co171 O174 1.966 . S
Co171 N180 2.022 . S
Co171 N188 1.993 . S
Co171 O196 1.941 . S
C172 O173 1.258 . S
C172 O174 1.263 . S
O173 Co170 1.970 . S
O173 C172 1.258 . S
O174 Co171 1.966 . S
O174 C172 1.263 . S
C175 O176 1.235 . S
C175 O202 1.289 . S
O176 C175 1.235 . S
C177 C179 1.400 . S
C177 N180 1.351 . S
C177 C182 1.501 . S
C178 C179 1.387 . S
C178 N181 1.341 . S
C179 C177 1.400 . S
C179 C178 1.387 . S
N180 Co171 2.022 . S
N180 C177 1.351 . S
N180 N181 1.365 . S
N181 C178 1.341 . S
N181 N180 1.365 . S
N181 H201 0.862 . S
C182 C177 1.501 . S
C182 H183 0.961 . S
C182 H184 0.961 . S
C182 H185 0.960 . S
H183 C182 0.961 . S
H184 C182 0.961 . S
H185 C182 0.960 . S
C186 N187 1.342 . S
C186 C190 1.401 . S
C186 C191 1.499 . S
N187 Co170 1.989 . S
N187 C186 1.342 . S
N187 N188 1.388 . S
N188 Co171 1.993 . S
N188 N187 1.388 . S
N188 C189 1.346 . S
C189 N188 1.346 . S
C189 C190 1.396 . S
C189 C199 1.510 . S
C190 C186 1.401 . S
C190 C189 1.396 . S
C191 C186 1.499 . S
C191 H192 0.959 . S
C191 H193 0.960 . S
C191 H194 0.961 . S
H192 C191 0.959 . S
H193 C191 0.960 . S
H194 C191 0.961 . S
O195 Co170 1.967 . S
O195 C203 1.258 . S
O196 Co171 1.941 . S
O196 C203 1.266 . S
H197 C199 0.959 . S
H198 C199 0.961 . S
C199 C189 1.510 . S
C199 H197 0.959 . S
C199 H198 0.961 . S
C199 H200 0.960 . S
H200 C199 0.960 . S
H201 N181 0.862 . S
O202 Co170 1.920 . S
O202 C175 1.289 . S
C203 O195 1.258 . S
C203 O196 1.266 . S
Co204 O207 1.970 . S
Co204 N221 1.989 . S
Co204 O229 1.967 . S
Co204 O236 1.920 . S
Co205 O208 1.966 . S
Co205 N214 2.022 . S
Co205 N222 1.993 . S
Co205 O230 1.941 . S
C206 O207 1.258 . S
C206 O208 1.263 . S
O207 Co204 1.970 . S
O207 C206 1.258 . S
O208 Co205 1.966 . S
O208 C206 1.263 . S
C209 O210 1.235 . S
C209 O236 1.289 . S
O210 C209 1.235 . S
C211 C213 1.400 . S
C211 N214 1.351 . S
C211 C216 1.501 1_655 S
C212 C213 1.387 . S
C212 N215 1.341 . S
C213 C211 1.400 . S
C213 C212 1.387 . S
N214 Co205 2.022 . S
N214 C211 1.351 . S
N214 N215 1.365 . S
N215 C212 1.341 . S
N215 N214 1.365 . S
N215 H235 0.862 . S
C216 C211 1.501 1_455 S
C216 H217 0.961 1_455 S
C216 H218 0.961 . S
C216 H219 0.960 . S
H217 C216 0.961 1_655 S
H218 C216 0.961 . S
H219 C216 0.960 . S
C220 N221 1.342 . S
C220 C224 1.401 . S
C220 C225 1.499 . S
N221 Co204 1.989 . S
N221 C220 1.342 . S
N221 N222 1.388 . S
N222 Co205 1.993 . S
N222 N221 1.388 . S
N222 C223 1.346 . S
C223 N222 1.346 . S
C223 C224 1.396 . S
C223 C233 1.510 . S
C224 C220 1.401 . S
C224 C223 1.396 . S
C225 C220 1.499 . S
C225 H226 0.959 . S
C225 H227 0.960 . S
C225 H228 0.961 . S
H226 C225 0.959 . S
H227 C225 0.960 . S
H228 C225 0.961 . S
O229 Co204 1.967 . S
O229 C237 1.258 . S
O230 Co205 1.941 . S
O230 C237 1.266 . S
H231 C233 0.959 . S
H232 C233 0.961 . S
C233 C223 1.510 . S
C233 H231 0.959 . S
C233 H232 0.961 . S
C233 H234 0.960 . S
H234 C233 0.960 . S
H235 N215 0.862 . S
O236 Co204 1.920 . S
O236 C209 1.289 . S
C237 O229 1.258 . S
C237 O230 1.266 . S
Co238 O241 1.970 . S
Co238 N255 1.989 . S
Co238 O263 1.967 . S
Co238 O270 1.920 . S
Co239 O242 1.966 . S
Co239 N248 2.022 . S
Co239 N256 1.993 . S
Co239 O264 1.941 . S
C240 O241 1.258 . S
C240 O242 1.263 . S
O241 Co238 1.970 . S
O241 C240 1.258 . S
O242 Co239 1.966 . S
O242 C240 1.263 . S
C243 O244 1.235 . S
C243 O270 1.289 . S
O244 C243 1.235 . S
C245 C247 1.400 . S
C245 N248 1.351 . S
C245 C250 1.501 . S
C246 C247 1.387 1_655 S
C246 N249 1.341 . S
C247 C245 1.400 . S
C247 C246 1.387 1_455 S
N248 Co239 2.022 . S
N248 C245 1.351 . S
N248 N249 1.365 1_455 S
N249 C246 1.341 . S
N249 N248 1.365 1_655 S
N249 H269 0.862 . S
C250 C245 1.501 . S
C250 H251 0.961 . S
C250 H252 0.961 . S
C250 H253 0.960 . S
H251 C250 0.961 . S
H252 C250 0.961 . S
H253 C250 0.960 . S
C254 N255 1.342 . S
C254 C258 1.401 . S
C254 C259 1.499 . S
N255 Co238 1.989 . S
N255 C254 1.342 . S
N255 N256 1.388 . S
N256 Co239 1.993 . S
N256 N255 1.388 . S
N256 C257 1.346 . S
C257 N256 1.346 . S
C257 C258 1.396 . S
C257 C267 1.510 . S
C258 C254 1.401 . S
C258 C257 1.396 . S
C259 C254 1.499 . S
C259 H260 0.959 . S
C259 H261 0.960 . S
C259 H262 0.961 . S
H260 C259 0.959 . S
H261 C259 0.960 . S
H262 C259 0.961 . S
O263 Co238 1.967 . S
O263 C271 1.258 . S
O264 Co239 1.941 . S
O264 C271 1.266 . S
H265 C267 0.959 . S
H266 C267 0.961 . S
C267 C257 1.510 . S
C267 H265 0.959 . S
C267 H266 0.961 . S
C267 H268 0.960 . S
H268 C267 0.960 . S
H269 N249 0.862 . S
O270 Co238 1.920 . S
O270 C243 1.289 . S
C271 O263 1.258 . S
C271 O264 1.266 . S
Co272 O275 1.970 . S
Co272 N289 1.989 . S
Co272 O297 1.967 . S
Co272 O304 1.920 . S
Co273 O276 1.966 . S
Co273 N282 2.022 . S
Co273 N290 1.993 . S
Co273 O298 1.941 . S
C274 O275 1.258 . S
C274 O276 1.263 . S
O275 Co272 1.970 . S
O275 C274 1.258 . S
O276 Co273 1.966 . S
O276 C274 1.263 . S
C277 O278 1.235 . S
C277 O304 1.289 . S
O278 C277 1.235 . S
C279 C281 1.400 . S
C279 N282 1.351 . S
C279 C284 1.501 1_545 S
C280 C281 1.387 . S
C280 N283 1.341 . S
C281 C279 1.400 . S
C281 C280 1.387 . S
N282 Co273 2.022 . S
N282 C279 1.351 . S
N282 N283 1.365 . S
N283 C280 1.341 . S
N283 N282 1.365 . S
N283 H303 0.862 . S
C284 C279 1.501 1_565 S
C284 H285 0.961 1_565 S
C284 H286 0.961 . S
C284 H287 0.960 . S
H285 C284 0.961 1_545 S
H286 C284 0.961 . S
H287 C284 0.960 . S
C288 N289 1.342 . S
C288 C292 1.401 . S
C288 C293 1.499 . S
N289 Co272 1.989 . S
N289 C288 1.342 . S
N289 N290 1.388 . S
N290 Co273 1.993 . S
N290 N289 1.388 . S
N290 C291 1.346 . S
C291 N290 1.346 . S
C291 C292 1.396 . S
C291 C301 1.510 . S
C292 C288 1.401 . S
C292 C291 1.396 . S
C293 C288 1.499 . S
C293 H294 0.959 . S
C293 H295 0.960 . S
C293 H296 0.961 . S
H294 C293 0.959 . S
H295 C293 0.960 . S
H296 C293 0.961 . S
O297 Co272 1.967 . S
O297 C305 1.258 . S
O298 Co273 1.941 . S
O298 C305 1.266 . S
H299 C301 0.959 . S
H300 C301 0.961 . S
C301 C291 1.510 . S
C301 H299 0.959 . S
C301 H300 0.961 . S
C301 H302 0.960 . S
H302 C301 0.960 . S
H303 N283 0.862 . S
O304 Co272 1.920 . S
O304 C277 1.289 . S
C305 O297 1.258 . S
C305 O298 1.266 . S
Co306 O309 1.970 . S
Co306 N323 1.989 . S
Co306 O331 1.967 . S
Co306 O338 1.920 . S
Co307 O310 1.966 . S
Co307 N316 2.022 . S
Co307 N324 1.993 . S
Co307 O332 1.941 . S
C308 O309 1.258 . S
C308 O310 1.263 . S
O309 Co306 1.970 . S
O309 C308 1.258 . S
O310 Co307 1.966 . S
O310 C308 1.263 . S
C311 O312 1.235 . S
C311 O338 1.289 . S
O312 C311 1.235 . S
C313 C315 1.400 . S
C313 N316 1.351 . S
C313 C318 1.501 . S
C314 C315 1.387 1_554 S
C314 N317 1.341 . S
C315 C313 1.400 . S
C315 C314 1.387 1_556 S
N316 Co307 2.022 . S
N316 C313 1.351 . S
N316 N317 1.365 1_556 S
N317 C314 1.341 . S
N317 N316 1.365 1_554 S
N317 H337 0.862 . S
C318 C313 1.501 . S
C318 H319 0.961 . S
C318 H320 0.961 . S
C318 H321 0.960 . S
H319 C318 0.961 . S
H320 C318 0.961 . S
H321 C318 0.960 . S
C322 N323 1.342 . S
C322 C326 1.401 . S
C322 C327 1.499 . S
N323 Co306 1.989 . S
N323 C322 1.342 . S
N323 N324 1.388 . S
N324 Co307 1.993 . S
N324 N323 1.388 . S
N324 C325 1.346 . S
C325 N324 1.346 . S
C325 C326 1.396 . S
C325 C335 1.510 . S
C326 C322 1.401 . S
C326 C325 1.396 . S
C327 C322 1.499 . S
C327 H328 0.959 . S
C327 H329 0.960 . S
C327 H330 0.961 . S
H328 C327 0.959 . S
H329 C327 0.960 . S
H330 C327 0.961 . S
O331 Co306 1.967 . S
O331 C339 1.258 . S
O332 Co307 1.941 . S
O332 C339 1.266 . S
H333 C335 0.959 . S
H334 C335 0.961 . S
C335 C325 1.510 . S
C335 H333 0.959 . S
C335 H334 0.961 . S
C335 H336 0.960 . S
H336 C335 0.960 . S
H337 N317 0.862 . S
O338 Co306 1.920 . S
O338 C311 1.289 . S
C339 O331 1.258 . S
C339 O332 1.266 . S
Co340 O343 1.970 . S
Co340 N357 1.989 . S
Co340 O365 1.967 . S
Co340 O372 1.920 . S
Co341 O344 1.966 . S
Co341 N350 2.022 . S
Co341 N358 1.993 . S
Co341 O366 1.941 . S
C342 O343 1.258 . S
C342 O344 1.263 . S
O343 Co340 1.970 . S
O343 C342 1.258 . S
O344 Co341 1.966 . S
O344 C342 1.263 . S
C345 O346 1.235 . S
C345 O372 1.289 . S
O346 C345 1.235 . S
C347 C349 1.400 . S
C347 N350 1.351 . S
C347 C352 1.501 1_565 S
C348 C349 1.387 . S
C348 N351 1.341 . S
C349 C347 1.400 . S
C349 C348 1.387 . S
N350 Co341 2.022 . S
N350 C347 1.351 . S
N350 N351 1.365 . S
N351 C348 1.341 . S
N351 N350 1.365 . S
N351 H371 0.862 . S
C352 C347 1.501 1_545 S
C352 H353 0.961 1_545 S
C352 H354 0.961 . S
C352 H355 0.960 . S
H353 C352 0.961 1_565 S
H354 C352 0.961 . S
H355 C352 0.960 . S
C356 N357 1.342 . S
C356 C360 1.401 . S
C356 C361 1.499 . S
N357 Co340 1.989 . S
N357 C356 1.342 . S
N357 N358 1.388 . S
N358 Co341 1.993 . S
N358 N357 1.388 . S
N358 C359 1.346 . S
C359 N358 1.346 . S
C359 C360 1.396 . S
C359 C369 1.510 . S
C360 C356 1.401 . S
C360 C359 1.396 . S
C361 C356 1.499 . S
C361 H362 0.959 . S
C361 H363 0.960 . S
C361 H364 0.961 . S
H362 C361 0.959 . S
H363 C361 0.960 . S
H364 C361 0.961 . S
O365 Co340 1.967 . S
O365 C373 1.258 . S
O366 Co341 1.941 . S
O366 C373 1.266 . S
H367 C369 0.959 . S
H368 C369 0.961 . S
C369 C359 1.510 . S
C369 H367 0.959 . S
C369 H368 0.961 . S
C369 H370 0.960 . S
H370 C369 0.960 . S
H371 N351 0.862 . S
O372 Co340 1.920 . S
O372 C345 1.289 . S
C373 O365 1.258 . S
C373 O366 1.266 . S
Co374 O377 1.970 . S
Co374 N391 1.989 . S
Co374 O399 1.967 . S
Co374 O406 1.920 . S
Co375 O378 1.966 . S
Co375 N384 2.022 . S
Co375 N392 1.993 . S
Co375 O400 1.941 . S
C376 O377 1.258 . S
C376 O378 1.263 . S
O377 Co374 1.970 . S
O377 C376 1.258 . S
O378 Co375 1.966 . S
O378 C376 1.263 . S
C379 O380 1.235 . S
C379 O406 1.289 . S
O380 C379 1.235 . S
C381 C383 1.400 . S
C381 N384 1.351 . S
C381 C386 1.501 . S
C382 C383 1.387 . S
C382 N385 1.341 . S
C383 C381 1.400 . S
C383 C382 1.387 . S
N384 Co375 2.022 . S
N384 C381 1.351 . S
N384 N385 1.365 . S
N385 C382 1.341 . S
N385 N384 1.365 . S
N385 H405 0.862 . S
C386 C381 1.501 . S
C386 H387 0.961 . S
C386 H388 0.961 . S
C386 H389 0.960 . S
H387 C386 0.961 . S
H388 C386 0.961 . S
H389 C386 0.960 . S
C390 N391 1.342 . S
C390 C394 1.401 . S
C390 C395 1.499 . S
N391 Co374 1.989 . S
N391 C390 1.342 . S
N391 N392 1.388 . S
N392 Co375 1.993 . S
N392 N391 1.388 . S
N392 C393 1.346 . S
C393 N392 1.346 . S
C393 C394 1.396 . S
C393 C403 1.510 . S
C394 C390 1.401 . S
C394 C393 1.396 . S
C395 C390 1.499 . S
C395 H396 0.959 . S
C395 H397 0.960 . S
C395 H398 0.961 . S
H396 C395 0.959 . S
H397 C395 0.960 . S
H398 C395 0.961 . S
O399 Co374 1.967 . S
O399 C407 1.258 . S
O400 Co375 1.941 . S
O400 C407 1.266 . S
H401 C403 0.959 . S
H402 C403 0.961 . S
C403 C393 1.510 . S
C403 H401 0.959 . S
C403 H402 0.961 . S
C403 H404 0.960 . S
H404 C403 0.960 . S
H405 N385 0.862 . S
O406 Co374 1.920 . S
O406 C379 1.289 . S
C407 O399 1.258 . S
C407 O400 1.266 . S
Co408 O411 1.970 . S
Co408 N425 1.989 . S
Co408 O433 1.967 . S
Co408 O440 1.920 . S
Co409 O412 1.966 . S
Co409 N418 2.022 . S
Co409 N426 1.993 . S
Co409 O434 1.941 . S
C410 O411 1.258 . S
C410 O412 1.263 . S
O411 Co408 1.970 . S
O411 C410 1.258 . S
O412 Co409 1.966 . S
O412 C410 1.263 . S
C413 O414 1.235 . S
C413 O440 1.289 . S
O414 C413 1.235 . S
C415 C417 1.400 . S
C415 N418 1.351 . S
C415 C420 1.501 . S
C416 C417 1.387 . S
C416 N419 1.341 . S
C417 C415 1.400 . S
C417 C416 1.387 . S
N418 Co409 2.022 . S
N418 C415 1.351 . S
N418 N419 1.365 . S
N419 C416 1.341 . S
N419 N418 1.365 . S
N419 H439 0.862 . S
C420 C415 1.501 . S
C420 H421 0.961 . S
C420 H422 0.961 . S
C420 H423 0.960 . S
H421 C420 0.961 . S
H422 C420 0.961 . S
H423 C420 0.960 . S
C424 N425 1.342 . S
C424 C428 1.401 . S
C424 C429 1.499 . S
N425 Co408 1.989 . S
N425 C424 1.342 . S
N425 N426 1.388 . S
N426 Co409 1.993 . S
N426 N425 1.388 . S
N426 C427 1.346 . S
C427 N426 1.346 . S
C427 C428 1.396 . S
C427 C437 1.510 . S
C428 C424 1.401 . S
C428 C427 1.396 . S
C429 C424 1.499 . S
C429 H430 0.959 . S
C429 H431 0.960 . S
C429 H432 0.961 . S
H430 C429 0.959 . S
H431 C429 0.960 . S
H432 C429 0.961 . S
O433 Co408 1.967 . S
O433 C441 1.258 . S
O434 Co409 1.941 . S
O434 C441 1.266 . S
H435 C437 0.959 . S
H436 C437 0.961 . S
C437 C427 1.510 . S
C437 H435 0.959 . S
C437 H436 0.961 . S
C437 H438 0.960 . S
H438 C437 0.960 . S
H439 N419 0.862 . S
O440 Co408 1.920 . S
O440 C413 1.289 . S
C441 O433 1.258 . S
C441 O434 1.266 . S
Co442 O445 1.970 . S
Co442 N459 1.989 . S
Co442 O467 1.967 . S
Co442 O474 1.920 . S
Co443 O446 1.966 . S
Co443 N452 2.022 . S
Co443 N460 1.993 . S
Co443 O468 1.941 . S
C444 O445 1.258 . S
C444 O446 1.263 . S
O445 Co442 1.970 . S
O445 C444 1.258 . S
O446 Co443 1.966 . S
O446 C444 1.263 . S
C447 O448 1.235 . S
C447 O474 1.289 . S
O448 C447 1.235 . S
C449 C451 1.400 . S
C449 N452 1.351 . S
C449 C454 1.501 . S
C450 C451 1.387 . S
C450 N453 1.341 . S
C451 C449 1.400 . S
C451 C450 1.387 . S
N452 Co443 2.022 . S
N452 C449 1.351 . S
N452 N453 1.365 . S
N453 C450 1.341 . S
N453 N452 1.365 . S
N453 H473 0.862 . S
C454 C449 1.501 . S
C454 H455 0.961 . S
C454 H456 0.961 . S
C454 H457 0.960 . S
H455 C454 0.961 . S
H456 C454 0.961 . S
H457 C454 0.960 . S
C458 N459 1.342 . S
C458 C462 1.401 . S
C458 C463 1.499 . S
N459 Co442 1.989 . S
N459 C458 1.342 . S
N459 N460 1.388 . S
N460 Co443 1.993 . S
N460 N459 1.388 . S
N460 C461 1.346 . S
C461 N460 1.346 . S
C461 C462 1.396 . S
C461 C471 1.510 . S
C462 C458 1.401 . S
C462 C461 1.396 . S
C463 C458 1.499 . S
C463 H464 0.959 . S
C463 H465 0.960 . S
C463 H466 0.961 . S
H464 C463 0.959 . S
H465 C463 0.960 . S
H466 C463 0.961 . S
O467 Co442 1.967 . S
O467 C475 1.258 . S
O468 Co443 1.941 . S
O468 C475 1.266 . S
H469 C471 0.959 . S
H470 C471 0.961 . S
C471 C461 1.510 . S
C471 H469 0.959 . S
C471 H470 0.961 . S
C471 H472 0.960 . S
H472 C471 0.960 . S
H473 N453 0.862 . S
O474 Co442 1.920 . S
O474 C447 1.289 . S
C475 O467 1.258 . S
C475 O468 1.266 . S
Co476 O479 1.970 . S
Co476 N493 1.989 . S
Co476 O501 1.967 . S
Co476 O508 1.920 . S
Co477 O480 1.966 . S
Co477 N486 2.022 . S
Co477 N494 1.993 . S
Co477 O502 1.941 . S
C478 O479 1.258 . S
C478 O480 1.263 . S
O479 Co476 1.970 . S
O479 C478 1.258 . S
O480 Co477 1.966 . S
O480 C478 1.263 . S
C481 O482 1.235 . S
C481 O508 1.289 . S
O482 C481 1.235 . S
C483 C485 1.400 . S
C483 N486 1.351 . S
C483 C488 1.501 . S
C484 C485 1.387 . S
C484 N487 1.341 . S
C485 C483 1.400 . S
C485 C484 1.387 . S
N486 Co477 2.022 . S
N486 C483 1.351 . S
N486 N487 1.365 . S
N487 C484 1.341 . S
N487 N486 1.365 . S
N487 H507 0.862 . S
C488 C483 1.501 . S
C488 H489 0.961 . S
C488 H490 0.961 . S
C488 H491 0.960 . S
H489 C488 0.961 . S
H490 C488 0.961 . S
H491 C488 0.960 . S
C492 N493 1.342 . S
C492 C496 1.401 . S
C492 C497 1.499 . S
N493 Co476 1.989 . S
N493 C492 1.342 . S
N493 N494 1.388 . S
N494 Co477 1.993 . S
N494 N493 1.388 . S
N494 C495 1.346 . S
C495 N494 1.346 . S
C495 C496 1.396 . S
C495 C505 1.510 . S
C496 C492 1.401 . S
C496 C495 1.396 . S
C497 C492 1.499 . S
C497 H498 0.959 . S
C497 H499 0.960 . S
C497 H500 0.961 . S
H498 C497 0.959 . S
H499 C497 0.960 . S
H500 C497 0.961 . S
O501 Co476 1.967 . S
O501 C509 1.258 . S
O502 Co477 1.941 . S
O502 C509 1.266 . S
H503 C505 0.959 . S
H504 C505 0.961 . S
C505 C495 1.510 . S
C505 H503 0.959 . S
C505 H504 0.961 . S
C505 H506 0.960 . S
H506 C505 0.960 . S
H507 N487 0.862 . S
O508 Co476 1.920 . S
O508 C481 1.289 . S
C509 O501 1.258 . S
C509 O502 1.266 . S
Co510 O513 1.970 . S
Co510 N527 1.989 . S
Co510 O535 1.967 . S
Co510 O542 1.920 . S
Co511 O514 1.966 . S
Co511 N520 2.022 . S
Co511 N528 1.993 . S
Co511 O536 1.941 . S
C512 O513 1.258 . S
C512 O514 1.263 . S
O513 Co510 1.970 . S
O513 C512 1.258 . S
O514 Co511 1.966 . S
O514 C512 1.263 . S
C515 O516 1.235 . S
C515 O542 1.289 . S
O516 C515 1.235 . S
C517 C519 1.400 . S
C517 N520 1.351 . S
C517 C522 1.501 . S
C518 C519 1.387 1_556 S
C518 N521 1.341 . S
C519 C517 1.400 . S
C519 C518 1.387 1_554 S
N520 Co511 2.022 . S
N520 C517 1.351 . S
N520 N521 1.365 1_554 S
N521 C518 1.341 . S
N521 N520 1.365 1_556 S
N521 H541 0.862 . S
C522 C517 1.501 . S
C522 H523 0.961 . S
C522 H524 0.961 . S
C522 H525 0.960 . S
H523 C522 0.961 . S
H524 C522 0.961 . S
H525 C522 0.960 . S
C526 N527 1.342 . S
C526 C530 1.401 . S
C526 C531 1.499 . S
N527 Co510 1.989 . S
N527 C526 1.342 . S
N527 N528 1.388 . S
N528 Co511 1.993 . S
N528 N527 1.388 . S
N528 C529 1.346 . S
C529 N528 1.346 . S
C529 C530 1.396 . S
C529 C539 1.510 . S
C530 C526 1.401 . S
C530 C529 1.396 . S
C531 C526 1.499 . S
C531 H532 0.959 . S
C531 H533 0.960 . S
C531 H534 0.961 . S
H532 C531 0.959 . S
H533 C531 0.960 . S
H534 C531 0.961 . S
O535 Co510 1.967 . S
O535 C543 1.258 . S
O536 Co511 1.941 . S
O536 C543 1.266 . S
H537 C539 0.959 . S
H538 C539 0.961 . S
C539 C529 1.510 . S
C539 H537 0.959 . S
C539 H538 0.961 . S
C539 H540 0.960 . S
H540 C539 0.960 . S
H541 N521 0.862 . S
O542 Co510 1.920 . S
O542 C515 1.289 . S
C543 O535 1.258 . S
C543 O536 1.266 . S
Co544 O547 1.970 . S
Co544 N561 1.989 . S
Co544 O569 1.967 . S
Co544 O576 1.920 . S
Co545 O548 1.966 . S
Co545 N554 2.022 . S
Co545 N562 1.993 . S
Co545 O570 1.941 . S
C546 O547 1.258 . S
C546 O548 1.263 . S
O547 Co544 1.970 . S
O547 C546 1.258 . S
O548 Co545 1.966 . S
O548 C546 1.263 . S
C549 O550 1.235 . S
C549 O576 1.289 . S
O550 C549 1.235 . S
C551 C553 1.400 . S
C551 N554 1.351 . S
C551 C556 1.501 1_554 S
C552 C553 1.387 . S
C552 N555 1.341 . S
C553 C551 1.400 . S
C553 C552 1.387 . S
N554 Co545 2.022 . S
N554 C551 1.351 . S
N554 N555 1.365 . S
N555 C552 1.341 . S
N555 N554 1.365 . S
N555 H575 0.862 . S
C556 C551 1.501 1_556 S
C556 H557 0.961 1_556 S
C556 H558 0.961 . S
C556 H559 0.960 . S
H557 C556 0.961 1_554 S
H558 C556 0.961 . S
H559 C556 0.960 . S
C560 N561 1.342 . S
C560 C564 1.401 . S
C560 C565 1.499 . S
N561 Co544 1.989 . S
N561 C560 1.342 . S
N561 N562 1.388 . S
N562 Co545 1.993 . S
N562 N561 1.388 . S
N562 C563 1.346 . S
C563 N562 1.346 . S
C563 C564 1.396 . S
C563 C573 1.510 . S
C564 C560 1.401 . S
C564 C563 1.396 . S
C565 C560 1.499 . S
C565 H566 0.959 . S
C565 H567 0.960 . S
C565 H568 0.961 . S
H566 C565 0.959 . S
H567 C565 0.960 . S
H568 C565 0.961 . S
O569 Co544 1.967 . S
O569 C577 1.258 . S
O570 Co545 1.941 . S
O570 C577 1.266 . S
H571 C573 0.959 . S
H572 C573 0.961 . S
C573 C563 1.510 . S
C573 H571 0.959 . S
C573 H572 0.961 . S
C573 H574 0.960 . S
H574 C573 0.960 . S
H575 N555 0.862 . S
O576 Co544 1.920 . S
O576 C549 1.289 . S
C577 O569 1.258 . S
C577 O570 1.266 . S
Co578 O581 1.970 . S
Co578 N595 1.989 . S
Co578 O603 1.967 . S
Co578 O610 1.920 . S
Co579 O582 1.966 . S
Co579 N588 2.022 . S
Co579 N596 1.993 . S
Co579 O604 1.941 . S
C580 O581 1.258 . S
C580 O582 1.263 . S
O581 Co578 1.970 . S
O581 C580 1.258 . S
O582 Co579 1.966 . S
O582 C580 1.263 . S
C583 O584 1.235 . S
C583 O610 1.289 . S
O584 C583 1.235 . S
C585 C587 1.400 . S
C585 N588 1.351 . S
C585 C590 1.501 1_556 S
C586 C587 1.387 . S
C586 N589 1.341 . S
C587 C585 1.400 . S
C587 C586 1.387 . S
N588 Co579 2.022 . S
N588 C585 1.351 . S
N588 N589 1.365 . S
N589 C586 1.341 . S
N589 N588 1.365 . S
N589 H609 0.862 . S
C590 C585 1.501 1_554 S
C590 H591 0.961 1_554 S
C590 H592 0.961 . S
C590 H593 0.960 . S
H591 C590 0.961 1_556 S
H592 C590 0.961 . S
H593 C590 0.960 . S
C594 N595 1.342 . S
C594 C598 1.401 . S
C594 C599 1.499 . S
N595 Co578 1.989 . S
N595 C594 1.342 . S
N595 N596 1.388 . S
N596 Co579 1.993 . S
N596 N595 1.388 . S
N596 C597 1.346 . S
C597 N596 1.346 . S
C597 C598 1.396 . S
C597 C607 1.510 . S
C598 C594 1.401 . S
C598 C597 1.396 . S
C599 C594 1.499 . S
C599 H600 0.959 . S
C599 H601 0.960 . S
C599 H602 0.961 . S
H600 C599 0.959 . S
H601 C599 0.960 . S
H602 C599 0.961 . S
O603 Co578 1.967 . S
O603 C611 1.258 . S
O604 Co579 1.941 . S
O604 C611 1.266 . S
H605 C607 0.959 . S
H606 C607 0.961 . S
C607 C597 1.510 . S
C607 H605 0.959 . S
C607 H606 0.961 . S
C607 H608 0.960 . S
H608 C607 0.960 . S
H609 N589 0.862 . S
O610 Co578 1.920 . S
O610 C583 1.289 . S
C611 O603 1.258 . S
C611 O604 1.266 . S
Co612 O615 1.970 . S
Co612 N629 1.989 . S
Co612 O637 1.967 . S
Co612 O644 1.920 . S
Co613 O616 1.966 . S
Co613 N622 2.022 . S
Co613 N630 1.993 . S
Co613 O638 1.941 . S
C614 O615 1.258 . S
C614 O616 1.263 . S
O615 Co612 1.970 . S
O615 C614 1.258 . S
O616 Co613 1.966 . S
O616 C614 1.263 . S
C617 O618 1.235 . S
C617 O644 1.289 . S
O618 C617 1.235 . S
C619 C621 1.400 . S
C619 N622 1.351 . S
C619 C624 1.501 . S
C620 C621 1.387 1_545 S
C620 N623 1.341 . S
C621 C619 1.400 . S
C621 C620 1.387 1_565 S
N622 Co613 2.022 . S
N622 C619 1.351 . S
N622 N623 1.365 1_565 S
N623 C620 1.341 . S
N623 N622 1.365 1_545 S
N623 H643 0.862 . S
C624 C619 1.501 . S
C624 H625 0.961 . S
C624 H626 0.961 . S
C624 H627 0.960 . S
H625 C624 0.961 . S
H626 C624 0.961 . S
H627 C624 0.960 . S
C628 N629 1.342 . S
C628 C632 1.401 . S
C628 C633 1.499 . S
N629 Co612 1.989 . S
N629 C628 1.342 . S
N629 N630 1.388 . S
N630 Co613 1.993 . S
N630 N629 1.388 . S
N630 C631 1.346 . S
C631 N630 1.346 . S
C631 C632 1.396 . S
C631 C641 1.510 . S
C632 C628 1.401 . S
C632 C631 1.396 . S
C633 C628 1.499 . S
C633 H634 0.959 . S
C633 H635 0.960 . S
C633 H636 0.961 . S
H634 C633 0.959 . S
H635 C633 0.960 . S
H636 C633 0.961 . S
O637 Co612 1.967 . S
O637 C645 1.258 . S
O638 Co613 1.941 . S
O638 C645 1.266 . S
H639 C641 0.959 . S
H640 C641 0.961 . S
C641 C631 1.510 . S
C641 H639 0.959 . S
C641 H640 0.961 . S
C641 H642 0.960 . S
H642 C641 0.960 . S
H643 N623 0.862 . S
O644 Co612 1.920 . S
O644 C617 1.289 . S
C645 O637 1.258 . S
C645 O638 1.266 . S
Co646 O649 1.970 . S
Co646 N663 1.989 . S
Co646 O671 1.967 . S
Co646 O678 1.920 . S
Co647 O650 1.966 . S
Co647 N656 2.022 . S
Co647 N664 1.993 . S
Co647 O672 1.941 . S
C648 O649 1.258 . S
C648 O650 1.263 . S
O649 Co646 1.970 . S
O649 C648 1.258 . S
O650 Co647 1.966 . S
O650 C648 1.263 . S
C651 O652 1.235 . S
C651 O678 1.289 . S
O652 C651 1.235 . S
C653 C655 1.400 . S
C653 N656 1.351 . S
C653 C658 1.501 . S
C654 C655 1.387 . S
C654 N657 1.341 . S
C655 C653 1.400 . S
C655 C654 1.387 . S
N656 Co647 2.022 . S
N656 C653 1.351 . S
N656 N657 1.365 . S
N657 C654 1.341 . S
N657 N656 1.365 . S
N657 H677 0.862 . S
C658 C653 1.501 . S
C658 H659 0.961 . S
C658 H660 0.961 . S
C658 H661 0.960 . S
H659 C658 0.961 . S
H660 C658 0.961 . S
H661 C658 0.960 . S
C662 N663 1.342 . S
C662 C666 1.401 . S
C662 C667 1.499 . S
N663 Co646 1.989 . S
N663 C662 1.342 . S
N663 N664 1.388 . S
N664 Co647 1.993 . S
N664 N663 1.388 . S
N664 C665 1.346 . S
C665 N664 1.346 . S
C665 C666 1.396 . S
C665 C675 1.510 . S
C666 C662 1.401 . S
C666 C665 1.396 . S
C667 C662 1.499 . S
C667 H668 0.959 . S
C667 H669 0.960 . S
C667 H670 0.961 . S
H668 C667 0.959 . S
H669 C667 0.960 . S
H670 C667 0.961 . S
O671 Co646 1.967 . S
O671 C679 1.258 . S
O672 Co647 1.941 . S
O672 C679 1.266 . S
H673 C675 0.959 . S
H674 C675 0.961 . S
C675 C665 1.510 . S
C675 H673 0.959 . S
C675 H674 0.961 . S
C675 H676 0.960 . S
H676 C675 0.960 . S
H677 N657 0.862 . S
O678 Co646 1.920 . S
O678 C651 1.289 . S
C679 O671 1.258 . S
C679 O672 1.266 . S
Co680 O683 1.970 . S
Co680 N697 1.989 . S
Co680 O705 1.967 . S
Co680 O712 1.920 . S
Co681 O684 1.966 . S
Co681 N690 2.022 . S
Co681 N698 1.993 . S
Co681 O706 1.941 . S
C682 O683 1.258 . S
C682 O684 1.263 . S
O683 Co680 1.970 . S
O683 C682 1.258 . S
O684 Co681 1.966 . S
O684 C682 1.263 . S
C685 O686 1.235 . S
C685 O712 1.289 . S
O686 C685 1.235 . S
C687 C689 1.400 . S
C687 N690 1.351 . S
C687 C692 1.501 . S
C688 C689 1.387 1_565 S
C688 N691 1.341 . S
C689 C687 1.400 . S
C689 C688 1.387 1_545 S
N690 Co681 2.022 . S
N690 C687 1.351 . S
N690 N691 1.365 1_545 S
N691 C688 1.341 . S
N691 N690 1.365 1_565 S
N691 H711 0.862 . S
C692 C687 1.501 . S
C692 H693 0.961 . S
C692 H694 0.961 . S
C692 H695 0.960 . S
H693 C692 0.961 . S
H694 C692 0.961 . S
H695 C692 0.960 . S
C696 N697 1.342 . S
C696 C700 1.401 . S
C696 C701 1.499 . S
N697 Co680 1.989 . S
N697 C696 1.342 . S
N697 N698 1.388 . S
N698 Co681 1.993 . S
N698 N697 1.388 . S
N698 C699 1.346 . S
C699 N698 1.346 . S
C699 C700 1.396 . S
C699 C709 1.510 . S
C700 C696 1.401 . S
C700 C699 1.396 . S
C701 C696 1.499 . S
C701 H702 0.959 . S
C701 H703 0.960 . S
C701 H704 0.961 . S
H702 C701 0.959 . S
H703 C701 0.960 . S
H704 C701 0.961 . S
O705 Co680 1.967 . S
O705 C713 1.258 . S
O706 Co681 1.941 . S
O706 C713 1.266 . S
H707 C709 0.959 . S
H708 C709 0.961 . S
C709 C699 1.510 . S
C709 H707 0.959 . S
C709 H708 0.961 . S
C709 H710 0.960 . S
H710 C709 0.960 . S
H711 N691 0.862 . S
O712 Co680 1.920 . S
O712 C685 1.289 . S
C713 O705 1.258 . S
C713 O706 1.266 . S
Co714 O717 1.970 . S
Co714 N731 1.989 . S
Co714 O739 1.967 . S
Co714 O746 1.920 . S
Co715 O718 1.966 . S
Co715 N724 2.022 . S
Co715 N732 1.993 . S
Co715 O740 1.941 . S
C716 O717 1.258 . S
C716 O718 1.263 . S
O717 Co714 1.970 . S
O717 C716 1.258 . S
O718 Co715 1.966 . S
O718 C716 1.263 . S
C719 O720 1.235 . S
C719 O746 1.289 . S
O720 C719 1.235 . S
C721 C723 1.400 . S
C721 N724 1.351 . S
C721 C726 1.501 . S
C722 C723 1.387 . S
C722 N725 1.341 . S
C723 C721 1.400 . S
C723 C722 1.387 . S
N724 Co715 2.022 . S
N724 C721 1.351 . S
N724 N725 1.365 . S
N725 C722 1.341 . S
N725 N724 1.365 . S
N725 H745 0.862 . S
C726 C721 1.501 . S
C726 H727 0.961 . S
C726 H728 0.961 . S
C726 H729 0.960 . S
H727 C726 0.961 . S
H728 C726 0.961 . S
H729 C726 0.960 . S
C730 N731 1.342 . S
C730 C734 1.401 . S
C730 C735 1.499 . S
N731 Co714 1.989 . S
N731 C730 1.342 . S
N731 N732 1.388 . S
N732 Co715 1.993 . S
N732 N731 1.388 . S
N732 C733 1.346 . S
C733 N732 1.346 . S
C733 C734 1.396 . S
C733 C743 1.510 . S
C734 C730 1.401 . S
C734 C733 1.396 . S
C735 C730 1.499 . S
C735 H736 0.959 . S
C735 H737 0.960 . S
C735 H738 0.961 . S
H736 C735 0.959 . S
H737 C735 0.960 . S
H738 C735 0.961 . S
O739 Co714 1.967 . S
O739 C747 1.258 . S
O740 Co715 1.941 . S
O740 C747 1.266 . S
H741 C743 0.959 . S
H742 C743 0.961 . S
C743 C733 1.510 . S
C743 H741 0.959 . S
C743 H742 0.961 . S
C743 H744 0.960 . S
H744 C743 0.960 . S
H745 N725 0.862 . S
O746 Co714 1.920 . S
O746 C719 1.289 . S
C747 O739 1.258 . S
C747 O740 1.266 . S
Co748 O751 1.970 . S
Co748 N765 1.989 . S
Co748 O773 1.967 . S
Co748 O780 1.920 . S
Co749 O752 1.966 . S
Co749 N758 2.022 . S
Co749 N766 1.993 . S
Co749 O774 1.941 . S
C750 O751 1.258 . S
C750 O752 1.263 . S
O751 Co748 1.970 . S
O751 C750 1.258 . S
O752 Co749 1.966 . S
O752 C750 1.263 . S
C753 O754 1.235 . S
C753 O780 1.289 . S
O754 C753 1.235 . S
C755 C757 1.400 . S
C755 N758 1.351 . S
C755 C760 1.501 . S
C756 C757 1.387 . S
C756 N759 1.341 . S
C757 C755 1.400 . S
C757 C756 1.387 . S
N758 Co749 2.022 . S
N758 C755 1.351 . S
N758 N759 1.365 . S
N759 C756 1.341 . S
N759 N758 1.365 . S
N759 H779 0.862 . S
C760 C755 1.501 . S
C760 H761 0.961 . S
C760 H762 0.961 . S
C760 H763 0.960 . S
H761 C760 0.961 . S
H762 C760 0.961 . S
H763 C760 0.960 . S
C764 N765 1.342 . S
C764 C768 1.401 . S
C764 C769 1.499 . S
N765 Co748 1.989 . S
N765 C764 1.342 . S
N765 N766 1.388 . S
N766 Co749 1.993 . S
N766 N765 1.388 . S
N766 C767 1.346 . S
C767 N766 1.346 . S
C767 C768 1.396 . S
C767 C777 1.510 . S
C768 C764 1.401 . S
C768 C767 1.396 . S
C769 C764 1.499 . S
C769 H770 0.959 . S
C769 H771 0.960 . S
C769 H772 0.961 . S
H770 C769 0.959 . S
H771 C769 0.960 . S
H772 C769 0.961 . S
O773 Co748 1.967 . S
O773 C781 1.258 . S
O774 Co749 1.941 . S
O774 C781 1.266 . S
H775 C777 0.959 . S
H776 C777 0.961 . S
C777 C767 1.510 . S
C777 H775 0.959 . S
C777 H776 0.961 . S
C777 H778 0.960 . S
H778 C777 0.960 . S
H779 N759 0.862 . S
O780 Co748 1.920 . S
O780 C753 1.289 . S
C781 O773 1.258 . S
C781 O774 1.266 . S
Co782 O785 1.970 . S
Co782 N799 1.989 . S
Co782 O807 1.967 . S
Co782 O814 1.920 . S
Co783 O786 1.966 . S
Co783 N792 2.022 . S
Co783 N800 1.993 . S
Co783 O808 1.941 . S
C784 O785 1.258 . S
C784 O786 1.263 . S
O785 Co782 1.970 . S
O785 C784 1.258 . S
O786 Co783 1.966 . S
O786 C784 1.263 . S
C787 O788 1.235 . S
C787 O814 1.289 . S
O788 C787 1.235 . S
C789 C791 1.400 . S
C789 N792 1.351 . S
C789 C794 1.501 . S
C790 C791 1.387 . S
C790 N793 1.341 . S
C791 C789 1.400 . S
C791 C790 1.387 . S
N792 Co783 2.022 . S
N792 C789 1.351 . S
N792 N793 1.365 . S
N793 C790 1.341 . S
N793 N792 1.365 . S
N793 H813 0.862 . S
C794 C789 1.501 . S
C794 H795 0.961 . S
C794 H796 0.961 . S
C794 H797 0.960 . S
H795 C794 0.961 . S
H796 C794 0.961 . S
H797 C794 0.960 . S
C798 N799 1.342 . S
C798 C802 1.401 . S
C798 C803 1.499 . S
N799 Co782 1.989 . S
N799 C798 1.342 . S
N799 N800 1.388 . S
N800 Co783 1.993 . S
N800 N799 1.388 . S
N800 C801 1.346 . S
C801 N800 1.346 . S
C801 C802 1.396 . S
C801 C811 1.510 . S
C802 C798 1.401 . S
C802 C801 1.396 . S
C803 C798 1.499 . S
C803 H804 0.959 . S
C803 H805 0.960 . S
C803 H806 0.961 . S
H804 C803 0.959 . S
H805 C803 0.960 . S
H806 C803 0.961 . S
O807 Co782 1.967 . S
O807 C815 1.258 . S
O808 Co783 1.941 . S
O808 C815 1.266 . S
H809 C811 0.959 . S
H810 C811 0.961 . S
C811 C801 1.510 . S
C811 H809 0.959 . S
C811 H810 0.961 . S
C811 H812 0.960 . S
H812 C811 0.960 . S
H813 N793 0.862 . S
O814 Co782 1.920 . S
O814 C787 1.289 . S
C815 O807 1.258 . S
C815 O808 1.266 . S
H816 C822 0.930 . S
H817 C825 0.930 . S
H818 C826 0.930 . S
H819 C827 0.930 . S
H820 C830 0.930 . S
H821 C831 0.930 . S
C822 H816 0.930 . S
C822 C823 1.355 . S
C822 C824 1.415 . S
C823 C822 1.355 . S
C823 C825 1.419 . S
C824 C822 1.415 . S
C824 C829 1.425 . S
C824 C831 1.409 . S
C825 H817 0.930 . S
C825 C823 1.419 . S
C825 C826 1.362 . S
C826 H818 0.930 . S
C826 C825 1.362 . S
C826 C829 1.409 . S
C827 H819 0.930 . S
C827 C828 1.355 . S
C827 C829 1.415 . S
C828 C827 1.355 . S
C828 C830 1.419 . S
C829 C824 1.425 . S
C829 C826 1.409 . S
C829 C827 1.415 . S
C830 H820 0.930 . S
C830 C828 1.419 . S
C830 C831 1.362 . S
C831 H821 0.930 . S
C831 C824 1.409 . S
C831 C830 1.362 . S
H832 C838 0.930 . S
H833 C841 0.930 . S
H834 C842 0.930 . S
H835 C843 0.930 . S
H836 C846 0.930 . S
H837 C847 0.930 . S
C838 H832 0.930 . S
C838 C839 1.355 . S
C838 C840 1.415 . S
C839 C838 1.355 . S
C839 C841 1.419 . S
C840 C838 1.415 . S
C840 C845 1.425 . S
C840 C847 1.409 . S
C841 H833 0.930 . S
C841 C839 1.419 . S
C841 C842 1.362 . S
C842 H834 0.930 . S
C842 C841 1.362 . S
C842 C845 1.409 . S
C843 H835 0.930 . S
C843 C844 1.355 . S
C843 C845 1.415 . S
C844 C843 1.355 . S
C844 C846 1.419 . S
C845 C840 1.425 . S
C845 C842 1.409 . S
C845 C843 1.415 . S
C846 H836 0.930 . S
C846 C844 1.419 . S
C846 C847 1.362 . S
C847 H837 0.930 . S
C847 C840 1.409 . S
C847 C846 1.362 . S
H848 C854 0.930 . S
H849 C857 0.930 . S
H850 C858 0.930 . S
H851 C859 0.930 . S
H852 C862 0.930 . S
H853 C863 0.930 1_554 S
C854 H848 0.930 . S
C854 C855 1.355 . S
C854 C856 1.415 . S
C855 C854 1.355 . S
C855 C857 1.419 . S
C856 C854 1.415 . S
C856 C861 1.425 . S
C856 C863 1.409 . S
C857 H849 0.930 . S
C857 C855 1.419 . S
C857 C858 1.362 . S
C858 H850 0.930 . S
C858 C857 1.362 . S
C858 C861 1.409 . S
C859 H851 0.930 . S
C859 C860 1.355 . S
C859 C861 1.415 . S
C860 C859 1.355 . S
C860 C862 1.419 1_556 S
C861 C856 1.425 . S
C861 C858 1.409 . S
C861 C859 1.415 . S
C862 H852 0.930 . S
C862 C860 1.419 1_554 S
C862 C863 1.362 1_554 S
C863 H853 0.930 1_556 S
C863 C856 1.409 . S
C863 C862 1.362 1_556 S
H864 C870 0.930 . S
H865 C873 0.930 . S
H866 C874 0.930 . S
H867 C875 0.930 . S
H868 C878 0.930 . S
H869 C879 0.930 . S
C870 H864 0.930 . S
C870 C871 1.355 . S
C870 C872 1.415 . S
C871 C870 1.355 . S
C871 C873 1.419 . S
C872 C870 1.415 . S
C872 C877 1.425 . S
C872 C879 1.409 . S
C873 H865 0.930 . S
C873 C871 1.419 . S
C873 C874 1.362 . S
C874 H866 0.930 . S
C874 C873 1.362 . S
C874 C877 1.409 . S
C875 H867 0.930 . S
C875 C876 1.355 . S
C875 C877 1.415 . S
C876 C875 1.355 . S
C876 C878 1.419 . S
C877 C872 1.425 . S
C877 C874 1.409 . S
C877 C875 1.415 . S
C878 H868 0.930 . S
C878 C876 1.419 . S
C878 C879 1.362 . S
C879 H869 0.930 . S
C879 C872 1.409 . S
C879 C878 1.362 . S
H880 C886 0.930 . S
H881 C889 0.930 . S
H882 C890 0.930 . S
H883 C891 0.930 . S
H884 C894 0.930 . S
H885 C895 0.930 . S
C886 H880 0.930 . S
C886 C887 1.355 . S
C886 C888 1.415 . S
C887 C886 1.355 . S
C887 C889 1.419 . S
C888 C886 1.415 . S
C888 C893 1.425 . S
C888 C895 1.409 . S
C889 H881 0.930 . S
C889 C887 1.419 . S
C889 C890 1.362 . S
C890 H882 0.930 . S
C890 C889 1.362 . S
C890 C893 1.409 . S
C891 H883 0.930 . S
C891 C892 1.355 . S
C891 C893 1.415 . S
C892 C891 1.355 . S
C892 C894 1.419 . S
C893 C888 1.425 . S
C893 C890 1.409 . S
C893 C891 1.415 . S
C894 H884 0.930 . S
C894 C892 1.419 . S
C894 C895 1.362 . S
C895 H885 0.930 . S
C895 C888 1.409 . S
C895 C894 1.362 . S
H896 C902 0.930 . S
H897 C905 0.930 . S
H898 C906 0.930 . S
H899 C907 0.930 . S
H900 C910 0.930 . S
H901 C911 0.930 . S
C902 H896 0.930 . S
C902 C903 1.355 . S
C902 C904 1.415 . S
C903 C902 1.355 . S
C903 C905 1.419 . S
C904 C902 1.415 . S
C904 C909 1.425 . S
C904 C911 1.409 . S
C905 H897 0.930 . S
C905 C903 1.419 . S
C905 C906 1.362 . S
C906 H898 0.930 . S
C906 C905 1.362 . S
C906 C909 1.409 . S
C907 H899 0.930 . S
C907 C908 1.355 . S
C907 C909 1.415 . S
C908 C907 1.355 . S
C908 C910 1.419 . S
C909 C904 1.425 . S
C909 C906 1.409 . S
C909 C907 1.415 . S
C910 H900 0.930 . S
C910 C908 1.419 . S
C910 C911 1.362 . S
C911 H901 0.930 . S
C911 C904 1.409 . S
C911 C910 1.362 . S
H912 C918 0.930 . S
H913 C921 0.930 . S
H914 C922 0.930 . S
H915 C923 0.930 . S
H916 C926 0.959 . S
H917 C927 0.930 . S
C918 H912 0.930 . S
C918 C919 1.355 . S
C918 C920 1.415 . S
C919 C918 1.355 . S
C919 C921 1.419 . S
C920 C918 1.415 . S
C920 C925 1.425 . S
C920 C927 1.409 . S
C921 H913 0.930 . S
C921 C919 1.419 . S
C921 C922 1.362 . S
C922 H914 0.930 . S
C922 C921 1.362 . S
C922 C925 1.409 . S
C923 H915 0.930 . S
C923 C924 1.355 . S
C923 C925 1.415 . S
C924 C923 1.355 . S
C924 C926 1.414 1_554 S
C925 C920 1.425 . S
C925 C922 1.409 . S
C925 C923 1.415 . S
C926 H916 0.959 . S
C926 C924 1.414 1_556 S
C926 C927 1.339 1_556 S
C927 H917 0.930 . S
C927 C920 1.409 . S
C927 C926 1.339 1_554 S
H928 C934 0.930 . S
H929 C937 0.930 . S
H930 C938 0.930 . S
H931 C939 0.930 . S
H932 C942 0.930 . S
H933 C943 0.930 . S
C934 H928 0.930 . S
C934 C935 1.355 . S
C934 C936 1.415 . S
C935 C934 1.355 . S
C935 C937 1.419 . S
C936 C934 1.415 . S
C936 C941 1.425 . S
C936 C943 1.409 . S
C937 H929 0.930 . S
C937 C935 1.419 . S
C937 C938 1.362 . S
C938 H930 0.930 . S
C938 C937 1.362 . S
C938 C941 1.409 . S
C939 H931 0.930 . S
C939 C940 1.355 . S
C939 C941 1.415 . S
C940 C939 1.355 . S
C940 C942 1.419 . S
C941 C936 1.425 . S
C941 C938 1.409 . S
C941 C939 1.415 . S
C942 H932 0.930 . S
C942 C940 1.419 . S
C942 C943 1.362 . S
C943 H933 0.930 . S
C943 C936 1.409 . S
C943 C942 1.362 . S
H944 C950 0.930 . S
H945 C953 0.930 . S
H946 C954 0.930 . S
H947 C955 0.930 . S
H948 C958 0.930 . S
H949 C959 0.930 . S
C950 H944 0.930 . S
C950 C951 1.355 . S
C950 C952 1.415 . S
C951 C950 1.355 . S
C951 C953 1.419 . S
C952 C950 1.415 . S
C952 C957 1.425 . S
C952 C959 1.409 . S
C953 H945 0.930 . S
C953 C951 1.419 . S
C953 C954 1.362 . S
C954 H946 0.930 . S
C954 C953 1.362 . S
C954 C957 1.409 . S
C955 H947 0.930 . S
C955 C956 1.355 . S
C955 C957 1.415 . S
C956 C955 1.355 . S
C956 C958 1.419 . S
C957 C952 1.425 . S
C957 C954 1.409 . S
C957 C955 1.415 . S
C958 H948 0.930 . S
C958 C956 1.419 . S
C958 C959 1.362 . S
C959 H949 0.930 . S
C959 C952 1.409 . S
C959 C958 1.362 . S
H960 C966 0.930 . S
H961 C969 0.930 . S
H962 C970 0.930 . S
H963 C971 0.930 . S
H964 C974 0.930 . S
H965 C975 0.930 . S
C966 H960 0.930 . S
C966 C967 1.355 . S
C966 C968 1.415 . S
C967 C966 1.355 . S
C967 C969 1.419 . S
C968 C966 1.415 . S
C968 C973 1.425 . S
C968 C975 1.409 . S
C969 H961 0.930 . S
C969 C967 1.419 . S
C969 C970 1.362 . S
C970 H962 0.930 . S
C970 C969 1.362 . S
C970 C973 1.409 . S
C971 H963 0.930 . S
C971 C972 1.355 . S
C971 C973 1.415 . S
C972 C971 1.355 . S
C972 C974 1.419 . S
C973 C968 1.425 . S
C973 C970 1.409 . S
C973 C971 1.415 . S
C974 H964 0.930 . S
C974 C972 1.419 . S
C974 C975 1.362 . S
C975 H965 0.930 . S
C975 C968 1.409 . S
C975 C974 1.362 . S
H976 C982 0.930 . S
H977 C985 0.930 . S
H978 C986 0.930 . S
H979 C987 0.930 . S
H980 C990 0.930 . S
H981 C991 0.930 . S
C982 H976 0.930 . S
C982 C983 1.355 . S
C982 C984 1.415 . S
C983 C982 1.355 . S
C983 C985 1.419 . S
C984 C982 1.415 . S
C984 C989 1.425 . S
C984 C991 1.409 . S
C985 H977 0.930 . S
C985 C983 1.419 . S
C985 C986 1.362 . S
C986 H978 0.930 . S
C986 C985 1.362 . S
C986 C989 1.409 . S
C987 H979 0.930 . S
C987 C988 1.355 . S
C987 C989 1.415 . S
C988 C987 1.355 . S
C988 C990 1.419 1_455 S
C989 C984 1.425 . S
C989 C986 1.409 . S
C989 C987 1.415 . S
C990 H980 0.930 . S
C990 C988 1.419 1_655 S
C990 C991 1.362 1_655 S
C991 H981 0.930 . S
C991 C984 1.409 . S
C991 C990 1.362 1_455 S
H992 C998 0.930 . S
H993 C1001 0.930 . S
H994 C1002 0.930 . S
H995 C1003 0.930 . S
H996 C1006 0.930 . S
H997 C1007 0.930 . S
C998 H992 0.930 . S
C998 C999 1.355 . S
C998 C1000 1.415 . S
C999 C998 1.355 . S
C999 C1001 1.419 . S
C1000 C998 1.415 . S
C1000 C1005 1.425 . S
C1000 C1007 1.409 . S
C1001 H993 0.930 . S
C1001 C999 1.419 . S
C1001 C1002 1.362 . S
C1002 H994 0.930 . S
C1002 C1001 1.362 . S
C1002 C1005 1.409 . S
C1003 H995 0.930 . S
C1003 C1004 1.355 . S
C1003 C1005 1.415 . S
C1004 C1003 1.355 . S
C1004 C1006 1.419 . S
C1005 C1000 1.425 . S
C1005 C1002 1.409 . S
C1005 C1003 1.415 . S
C1006 H996 0.930 . S
C1006 C1004 1.419 . S
C1006 C1007 1.362 . S
C1007 H997 0.930 . S
C1007 C1000 1.409 . S
C1007 C1006 1.362 . S
H1008 C1014 0.930 . S
H1009 C1017 0.930 . S
H1010 C1018 0.930 1_455 S
H1011 C1019 0.930 . S
H1012 C1022 0.930 . S
H1013 C1023 0.930 . S
C1014 H1008 0.930 . S
C1014 C1015 1.355 . S
C1014 C1016 1.415 . S
C1015 C1014 1.355 . S
C1015 C1017 1.419 1_655 S
C1016 C1014 1.415 . S
C1016 C1021 1.425 . S
C1016 C1023 1.409 . S
C1017 H1009 0.930 . S
C1017 C1015 1.419 1_455 S
C1017 C1018 1.362 1_455 S
C1018 H1010 0.930 1_655 S
C1018 C1017 1.362 1_655 S
C1018 C1021 1.409 . S
C1019 H1011 0.930 . S
C1019 C1020 1.355 . S
C1019 C1021 1.415 . S
C1020 C1019 1.355 . S
C1020 C1022 1.419 . S
C1021 C1016 1.425 . S
C1021 C1018 1.409 . S
C1021 C1019 1.415 . S
C1022 H1012 0.930 . S
C1022 C1020 1.419 . S
C1022 C1023 1.362 . S
C1023 H1013 0.930 . S
C1023 C1016 1.409 . S
C1023 C1022 1.362 . S
H1024 C1030 0.930 . S
H1025 C1033 0.930 . S
H1026 C1034 0.930 . S
H1027 C1035 0.930 . S
H1028 C1038 0.930 . S
H1029 C1039 0.930 . S
C1030 H1024 0.930 . S
C1030 C1031 1.355 . S
C1030 C1032 1.415 . S
C1031 C1030 1.355 . S
C1031 C1033 1.419 . S
C1032 C1030 1.415 . S
C1032 C1037 1.425 . S
C1032 C1039 1.409 . S
C1033 H1025 0.930 . S
C1033 C1031 1.419 . S
C1033 C1034 1.362 . S
C1034 H1026 0.930 . S
C1034 C1033 1.362 . S
C1034 C1037 1.409 . S
C1035 H1027 0.930 . S
C1035 C1036 1.355 . S
C1035 C1037 1.415 . S
C1036 C1035 1.355 . S
C1036 C1038 1.419 . S
C1037 C1032 1.425 . S
C1037 C1034 1.409 . S
C1037 C1035 1.415 . S
C1038 H1028 0.930 . S
C1038 C1036 1.419 . S
C1038 C1039 1.362 . S
C1039 H1029 0.930 . S
C1039 C1032 1.409 . S
C1039 C1038 1.362 . S
H1040 C1046 0.930 . S
H1041 C1049 0.930 . S
H1042 C1050 0.930 . S
H1043 C1051 0.930 . S
H1044 C1054 0.930 . S
H1045 C1055 0.930 . S
C1046 H1040 0.930 . S
C1046 C1047 1.355 . S
C1046 C1048 1.415 . S
C1047 C1046 1.355 . S
C1047 C1049 1.419 . S
C1048 C1046 1.415 . S
C1048 C1053 1.425 . S
C1048 C1055 1.409 . S
C1049 H1041 0.930 . S
C1049 C1047 1.419 . S
C1049 C1050 1.362 . S
C1050 H1042 0.930 . S
C1050 C1049 1.362 . S
C1050 C1053 1.409 . S
C1051 H1043 0.930 . S
C1051 C1052 1.355 . S
C1051 C1053 1.415 . S
C1052 C1051 1.355 . S
C1052 C1054 1.419 . S
C1053 C1048 1.425 . S
C1053 C1050 1.409 . S
C1053 C1051 1.415 . S
C1054 H1044 0.930 . S
C1054 C1052 1.419 . S
C1054 C1055 1.362 . S
C1055 H1045 0.930 . S
C1055 C1048 1.409 . S
C1055 C1054 1.362 . S
H1056 C1062 0.930 . S
H1057 C1065 0.930 . S
H1058 C1066 0.930 . S
H1059 C1067 0.930 . S
H1060 C1070 0.930 . S
H1061 C1071 0.930 . S
C1062 H1056 0.930 . S
C1062 C1063 1.355 . S
C1062 C1064 1.415 . S
C1063 C1062 1.355 . S
C1063 C1065 1.419 . S
C1064 C1062 1.415 . S
C1064 C1069 1.425 . S
C1064 C1071 1.409 . S
C1065 H1057 0.930 . S
C1065 C1063 1.419 . S
C1065 C1066 1.362 . S
C1066 H1058 0.930 . S
C1066 C1065 1.362 . S
C1066 C1069 1.409 . S
C1067 H1059 0.930 . S
C1067 C1068 1.355 . S
C1067 C1069 1.415 . S
C1068 C1067 1.355 . S
C1068 C1070 1.419 . S
C1069 C1064 1.425 . S
C1069 C1066 1.409 . S
C1069 C1067 1.415 . S
C1070 H1060 0.930 . S
C1070 C1068 1.419 . S
C1070 C1071 1.362 . S
C1071 H1061 0.930 . S
C1071 C1064 1.409 . S
C1071 C1070 1.362 . S
H1072 C1078 0.930 . S
H1073 C1081 0.930 . S
H1074 C1082 0.930 . S
H1075 C1083 0.930 . S
H1076 C1086 0.930 . S
H1077 C1087 0.930 . S
C1078 H1072 0.930 . S
C1078 C1079 1.355 . S
C1078 C1080 1.415 . S
C1079 C1078 1.355 . S
C1079 C1081 1.419 . S
C1080 C1078 1.415 . S
C1080 C1085 1.425 . S
C1080 C1087 1.409 . S
C1081 H1073 0.930 . S
C1081 C1079 1.419 . S
C1081 C1082 1.362 . S
C1082 H1074 0.930 . S
C1082 C1081 1.362 . S
C1082 C1085 1.409 . S
C1083 H1075 0.930 . S
C1083 C1084 1.355 . S
C1083 C1085 1.415 . S
C1084 C1083 1.355 . S
C1084 C1086 1.419 . S
C1085 C1080 1.425 . S
C1085 C1082 1.409 . S
C1085 C1083 1.415 . S
C1086 H1076 0.930 . S
C1086 C1084 1.419 . S
C1086 C1087 1.362 . S
C1087 H1077 0.930 . S
C1087 C1080 1.409 . S
C1087 C1086 1.362 . S
H1088 C1094 0.930 . S
H1089 C1097 0.930 . S
H1090 C1098 0.930 . S
H1091 C1099 0.930 1_565 S
H1092 C1102 0.930 . S
H1093 C1103 0.930 . S
C1094 H1088 0.930 . S
C1094 C1095 1.355 . S
C1094 C1096 1.415 . S
C1095 C1094 1.355 . S
C1095 C1097 1.419 . S
C1096 C1094 1.415 . S
C1096 C1101 1.425 . S
C1096 C1103 1.409 . S
C1097 H1089 0.930 . S
C1097 C1095 1.419 . S
C1097 C1098 1.362 . S
C1098 H1090 0.930 . S
C1098 C1097 1.362 . S
C1098 C1101 1.409 . S
C1099 H1091 0.930 1_545 S
C1099 C1100 1.355 . S
C1099 C1101 1.415 . S
C1100 C1099 1.355 . S
C1100 C1102 1.419 . S
C1101 C1096 1.425 . S
C1101 C1098 1.409 . S
C1101 C1099 1.415 . S
C1102 H1092 0.930 . S
C1102 C1100 1.419 . S
C1102 C1103 1.362 . S
C1103 H1093 0.930 . S
C1103 C1096 1.409 . S
C1103 C1102 1.362 . S
H1104 C1110 0.930 . S
H1105 C1113 0.930 . S
H1106 C1114 0.930 . S
H1107 C1115 0.930 . S
H1108 C1118 0.930 . S
H1109 C1119 0.930 . S
C1110 H1104 0.930 . S
C1110 C1111 1.355 . S
C1110 C1112 1.415 . S
C1111 C1110 1.355 . S
C1111 C1113 1.419 . S
C1112 C1110 1.415 . S
C1112 C1117 1.425 . S
C1112 C1119 1.409 . S
C1113 H1105 0.930 . S
C1113 C1111 1.419 . S
C1113 C1114 1.362 . S
C1114 H1106 0.930 . S
C1114 C1113 1.362 . S
C1114 C1117 1.409 . S
C1115 H1107 0.930 . S
C1115 C1116 1.355 . S
C1115 C1117 1.415 . S
C1116 C1115 1.355 . S
C1116 C1118 1.419 . S
C1117 C1112 1.425 . S
C1117 C1114 1.409 . S
C1117 C1115 1.415 . S
C1118 H1108 0.930 . S
C1118 C1116 1.419 . S
C1118 C1119 1.362 . S
C1119 H1109 0.930 . S
C1119 C1112 1.409 . S
C1119 C1118 1.362 . S
H1120 C1126 0.930 1_545 S
H1121 C1129 0.930 . S
H1122 C1130 0.930 . S
H1123 C1131 0.930 . S
H1124 C1134 0.930 . S
H1125 C1135 0.930 . S
C1126 H1120 0.930 1_565 S
C1126 C1127 1.355 . S
C1126 C1128 1.415 . S
C1127 C1126 1.355 . S
C1127 C1129 1.419 . S
C1128 C1126 1.415 . S
C1128 C1133 1.425 . S
C1128 C1135 1.409 . S
C1129 H1121 0.930 . S
C1129 C1127 1.419 . S
C1129 C1130 1.362 . S
C1130 H1122 0.930 . S
C1130 C1129 1.362 . S
C1130 C1133 1.409 . S
C1131 H1123 0.930 . S
C1131 C1132 1.355 . S
C1131 C1133 1.415 . S
C1132 C1131 1.355 . S
C1132 C1134 1.419 . S
C1133 C1128 1.425 . S
C1133 C1130 1.409 . S
C1133 C1131 1.415 . S
C1134 H1124 0.930 . S
C1134 C1132 1.419 . S
C1134 C1135 1.362 . S
C1135 H1125 0.930 . S
C1135 C1128 1.409 . S
C1135 C1134 1.362 . S
H1136 C1142 0.930 . S
H1137 C1145 0.930 . S
H1138 C1146 0.930 . S
H1139 C1147 0.930 . S
H1140 C1150 0.930 . S
H1141 C1151 0.930 . S
C1142 H1136 0.930 . S
C1142 C1143 1.355 . S
C1142 C1144 1.415 . S
C1143 C1142 1.355 . S
C1143 C1145 1.419 . S
C1144 C1142 1.415 . S
C1144 C1149 1.425 . S
C1144 C1151 1.409 . S
C1145 H1137 0.930 . S
C1145 C1143 1.419 . S
C1145 C1146 1.362 . S
C1146 H1138 0.930 . S
C1146 C1145 1.362 . S
C1146 C1149 1.409 . S
C1147 H1139 0.930 . S
C1147 C1148 1.355 . S
C1147 C1149 1.415 . S
C1148 C1147 1.355 . S
C1148 C1150 1.419 . S
C1149 C1144 1.425 . S
C1149 C1146 1.409 . S
C1149 C1147 1.415 . S
C1150 H1140 0.930 . S
C1150 C1148 1.419 . S
C1150 C1151 1.362 . S
C1151 H1141 0.930 . S
C1151 C1144 1.409 . S
C1151 C1150 1.362 . S
H1152 C1158 0.930 . S
H1153 C1161 0.930 . S
H1154 C1162 0.930 . S
H1155 C1163 0.930 . S
H1156 C1166 0.930 . S
H1157 C1167 0.930 . S
C1158 H1152 0.930 . S
C1158 C1159 1.355 . S
C1158 C1160 1.415 . S
C1159 C1158 1.355 . S
C1159 C1161 1.419 . S
C1160 C1158 1.415 . S
C1160 C1165 1.425 . S
C1160 C1167 1.409 . S
C1161 H1153 0.930 . S
C1161 C1159 1.419 . S
C1161 C1162 1.362 . S
C1162 H1154 0.930 . S
C1162 C1161 1.362 . S
C1162 C1165 1.409 . S
C1163 H1155 0.930 . S
C1163 C1164 1.355 . S
C1163 C1165 1.415 . S
C1164 C1163 1.355 . S
C1164 C1166 1.419 . S
C1165 C1160 1.425 . S
C1165 C1162 1.409 . S
C1165 C1163 1.415 . S
C1166 H1156 0.930 . S
C1166 C1164 1.419 . S
C1166 C1167 1.362 . S
C1167 H1157 0.930 . S
C1167 C1160 1.409 . S
C1167 C1166 1.362 . S
H1168 C1174 0.930 . S
H1169 C1177 0.930 . S
H1170 C1178 0.930 . S
H1171 C1179 0.930 . S
H1172 C1182 0.930 . S
H1173 C1183 0.930 . S
C1174 H1168 0.930 . S
C1174 C1175 1.355 . S
C1174 C1176 1.415 . S
C1175 C1174 1.355 . S
C1175 C1177 1.419 . S
C1176 C1174 1.415 . S
C1176 C1181 1.425 . S
C1176 C1183 1.409 . S
C1177 H1169 0.930 . S
C1177 C1175 1.419 . S
C1177 C1178 1.362 . S
C1178 H1170 0.930 . S
C1178 C1177 1.362 . S
C1178 C1181 1.409 . S
C1179 H1171 0.930 . S
C1179 C1180 1.355 . S
C1179 C1181 1.415 . S
C1180 C1179 1.355 . S
C1180 C1182 1.419 . S
C1181 C1176 1.425 . S
C1181 C1178 1.409 . S
C1181 C1179 1.415 . S
C1182 H1172 0.930 . S
C1182 C1180 1.419 . S
C1182 C1183 1.362 . S
C1183 H1173 0.930 . S
C1183 C1176 1.409 . S
C1183 C1182 1.362 . S
H1184 C1190 0.930 . S
H1185 C1193 0.930 1_554 S
H1186 C1194 0.930 . S
H1187 C1195 0.930 . S
H1188 C1198 0.930 . S
H1189 C1199 0.930 . S
C1190 H1184 0.930 . S
C1190 C1191 1.355 . S
C1190 C1192 1.415 . S
C1191 C1190 1.355 . S
C1191 C1193 1.419 . S
C1192 C1190 1.415 . S
C1192 C1197 1.425 . S
C1192 C1199 1.409 . S
C1193 H1185 0.930 1_556 S
C1193 C1191 1.419 . S
C1193 C1194 1.362 . S
C1194 H1186 0.930 . S
C1194 C1193 1.362 . S
C1194 C1197 1.409 . S
C1195 H1187 0.930 . S
C1195 C1196 1.355 . S
C1195 C1197 1.415 . S
C1196 C1195 1.355 . S
C1196 C1198 1.419 . S
C1197 C1192 1.425 . S
C1197 C1194 1.409 . S
C1197 C1195 1.415 . S
C1198 H1188 0.930 . S
C1198 C1196 1.419 . S
C1198 C1199 1.362 . S
C1199 H1189 0.930 . S
C1199 C1192 1.409 . S
C1199 C1198 1.362 . S
H1200 C1206 0.930 . S
H1201 C1209 0.930 . S
H1202 C1210 0.930 . S
H1203 C1211 0.930 . S
H1204 C1214 0.930 . S
H1205 C1215 0.930 . S
C1206 H1200 0.930 . S
C1206 C1207 1.355 . S
C1206 C1208 1.415 . S
C1207 C1206 1.355 . S
C1207 C1209 1.419 . S
C1208 C1206 1.415 . S
C1208 C1213 1.425 . S
C1208 C1215 1.409 . S
C1209 H1201 0.930 . S
C1209 C1207 1.419 . S
C1209 C1210 1.362 . S
C1210 H1202 0.930 . S
C1210 C1209 1.362 . S
C1210 C1213 1.409 . S
C1211 H1203 0.930 . S
C1211 C1212 1.355 . S
C1211 C1213 1.415 . S
C1212 C1211 1.355 . S
C1212 C1214 1.419 . S
C1213 C1208 1.425 . S
C1213 C1210 1.409 . S
C1213 C1211 1.415 . S
C1214 H1204 0.930 . S
C1214 C1212 1.419 . S
C1214 C1215 1.362 . S
C1215 H1205 0.930 . S
C1215 C1208 1.409 . S
C1215 C1214 1.362 . S
H1216 C1222 0.930 . S
H1217 C1225 0.930 . S
H1218 C1226 0.930 . S
H1219 C1227 0.930 . S
H1220 C1230 0.930 . S
H1221 C1231 0.930 . S
C1222 H1216 0.930 . S
C1222 C1223 1.355 . S
C1222 C1224 1.415 . S
C1223 C1222 1.355 . S
C1223 C1225 1.419 . S
C1224 C1222 1.415 . S
C1224 C1229 1.425 . S
C1224 C1231 1.409 . S
C1225 H1217 0.930 . S
C1225 C1223 1.419 . S
C1225 C1226 1.362 . S
C1226 H1218 0.930 . S
C1226 C1225 1.362 . S
C1226 C1229 1.409 . S
C1227 H1219 0.930 . S
C1227 C1228 1.355 1_556 S
C1227 C1229 1.415 . S
C1228 C1227 1.355 1_554 S
C1228 C1230 1.419 . S
C1229 C1224 1.425 . S
C1229 C1226 1.409 . S
C1229 C1227 1.415 . S
C1230 H1220 0.930 . S
C1230 C1228 1.419 . S
C1230 C1231 1.362 1_554 S
C1231 H1221 0.930 . S
C1231 C1224 1.409 . S
C1231 C1230 1.362 1_556 S
H1232 C1238 0.930 . S
H1233 C1241 0.930 . S
H1234 C1242 0.930 . S
H1235 C1243 0.930 . S
H1236 C1246 0.930 . S
H1237 C1247 0.930 . S
C1238 H1232 0.930 . S
C1238 C1239 1.355 . S
C1238 C1240 1.415 . S
C1239 C1238 1.355 . S
C1239 C1241 1.419 . S
C1240 C1238 1.415 . S
C1240 C1245 1.425 . S
C1240 C1247 1.409 . S
C1241 H1233 0.930 . S
C1241 C1239 1.419 . S
C1241 C1242 1.362 . S
C1242 H1234 0.930 . S
C1242 C1241 1.362 . S
C1242 C1245 1.409 . S
C1243 H1235 0.930 . S
C1243 C1244 1.355 . S
C1243 C1245 1.415 . S
C1244 C1243 1.355 . S
C1244 C1246 1.419 . S
C1245 C1240 1.425 . S
C1245 C1242 1.409 . S
C1245 C1243 1.415 . S
C1246 H1236 0.930 . S
C1246 C1244 1.419 . S
C1246 C1247 1.362 . S
C1247 H1237 0.930 . S
C1247 C1240 1.409 . S
C1247 C1246 1.362 . S
H1248 C1254 0.930 . S
H1249 C1257 0.930 . S
H1250 C1258 0.930 1_655 S
H1251 C1259 0.930 . S
H1252 C1262 0.930 . S
H1253 C1263 0.930 . S
C1254 H1248 0.930 . S
C1254 C1255 1.355 . S
C1254 C1256 1.415 . S
C1255 C1254 1.355 . S
C1255 C1257 1.419 . S
C1256 C1254 1.415 . S
C1256 C1261 1.425 . S
C1256 C1263 1.409 . S
C1257 H1249 0.930 . S
C1257 C1255 1.419 . S
C1257 C1258 1.362 . S
C1258 H1250 0.930 1_455 S
C1258 C1257 1.362 . S
C1258 C1261 1.409 . S
C1259 H1251 0.930 . S
C1259 C1260 1.355 . S
C1259 C1261 1.415 1_655 S
C1260 C1259 1.355 . S
C1260 C1262 1.419 1_655 S
C1261 C1256 1.425 . S
C1261 C1258 1.409 . S
C1261 C1259 1.415 1_455 S
C1262 H1252 0.930 . S
C1262 C1260 1.419 1_455 S
C1262 C1263 1.362 . S
C1263 H1253 0.930 . S
C1263 C1256 1.409 . S
C1263 C1262 1.362 . S
H1264 C1270 0.930 . S
H1265 C1273 0.930 . S
H1266 C1274 0.930 . S
H1267 C1275 0.930 . S
H1268 C1278 0.930 . S
H1269 C1279 0.930 . S
C1270 H1264 0.930 . S
C1270 C1271 1.355 . S
C1270 C1272 1.415 . S
C1271 C1270 1.355 . S
C1271 C1273 1.419 . S
C1272 C1270 1.415 . S
C1272 C1277 1.425 . S
C1272 C1279 1.409 . S
C1273 H1265 0.930 . S
C1273 C1271 1.419 . S
C1273 C1274 1.362 . S
C1274 H1266 0.930 . S
C1274 C1273 1.362 . S
C1274 C1277 1.409 . S
C1275 H1267 0.930 . S
C1275 C1276 1.355 . S
C1275 C1277 1.415 . S
C1276 C1275 1.355 . S
C1276 C1278 1.419 . S
C1277 C1272 1.425 . S
C1277 C1274 1.409 . S
C1277 C1275 1.415 . S
C1278 H1268 0.930 . S
C1278 C1276 1.419 . S
C1278 C1279 1.362 . S
C1279 H1269 0.930 . S
C1279 C1272 1.409 . S
C1279 C1278 1.362 . S
H1280 C1286 0.930 . S
H1281 C1289 0.930 . S
H1282 C1290 0.930 . S
H1283 C1291 0.930 . S
H1284 C1294 0.930 . S
H1285 C1295 0.930 . S
C1286 H1280 0.930 . S
C1286 C1287 1.355 . S
C1286 C1288 1.415 . S
C1287 C1286 1.355 . S
C1287 C1289 1.419 . S
C1288 C1286 1.415 . S
C1288 C1293 1.425 . S
C1288 C1295 1.409 . S
C1289 H1281 0.930 . S
C1289 C1287 1.419 . S
C1289 C1290 1.362 . S
C1290 H1282 0.930 . S
C1290 C1289 1.362 . S
C1290 C1293 1.409 . S
C1291 H1283 0.930 . S
C1291 C1292 1.355 . S
C1291 C1293 1.415 . S
C1292 C1291 1.355 . S
C1292 C1294 1.419 . S
C1293 C1288 1.425 . S
C1293 C1290 1.409 . S
C1293 C1291 1.415 . S
C1294 H1284 0.930 . S
C1294 C1292 1.419 . S
C1294 C1295 1.362 . S
C1295 H1285 0.930 . S
C1295 C1288 1.409 . S
C1295 C1294 1.362 . S
H1296 C1302 0.930 . S
H1297 C1305 0.930 . S
H1298 C1306 0.930 . S
H1299 C1307 0.930 . S
H1300 C1310 0.930 . S
H1301 C1311 0.930 . S
C1302 H1296 0.930 . S
C1302 C1303 1.355 . S
C1302 C1304 1.415 . S
C1303 C1302 1.355 . S
C1303 C1305 1.419 . S
C1304 C1302 1.415 . S
C1304 C1309 1.425 . S
C1304 C1311 1.409 . S
C1305 H1297 0.930 . S
C1305 C1303 1.419 . S
C1305 C1306 1.362 . S
C1306 H1298 0.930 . S
C1306 C1305 1.362 . S
C1306 C1309 1.409 . S
C1307 H1299 0.930 . S
C1307 C1308 1.355 . S
C1307 C1309 1.415 . S
C1308 C1307 1.355 . S
C1308 C1310 1.419 . S
C1309 C1304 1.425 . S
C1309 C1306 1.409 . S
C1309 C1307 1.415 . S
C1310 H1300 0.930 . S
C1310 C1308 1.419 . S
C1310 C1311 1.362 . S
C1311 H1301 0.930 . S
C1311 C1304 1.409 . S
C1311 C1310 1.362 . S
H1312 C1318 0.930 . S
H1313 C1321 0.930 1_556 S
H1314 C1322 0.930 . S
H1315 C1323 0.930 . S
H1316 C1326 0.930 . S
H1317 C1327 0.930 . S
C1318 H1312 0.930 . S
C1318 C1319 1.355 1_655 S
C1318 C1320 1.415 1_556 S
C1319 C1318 1.355 1_455 S
C1319 C1321 1.419 1_556 S
C1320 C1318 1.415 1_554 S
C1320 C1325 1.425 . S
C1320 C1327 1.409 . S
C1321 H1313 0.930 1_554 S
C1321 C1319 1.419 1_554 S
C1321 C1322 1.362 . S
C1322 H1314 0.930 . S
C1322 C1321 1.362 . S
C1322 C1325 1.409 1_455 S
C1323 H1315 0.930 . S
C1323 C1324 1.355 . S
C1323 C1325 1.415 . S
C1324 C1323 1.355 . S
C1324 C1326 1.419 . S
C1325 C1320 1.425 . S
C1325 C1322 1.409 1_655 S
C1325 C1323 1.415 . S
C1326 H1316 0.930 . S
C1326 C1324 1.419 . S
C1326 C1327 1.362 . S
C1327 H1317 0.930 . S
C1327 C1320 1.409 . S
C1327 C1326 1.362 . S
H1328 C1334 0.930 . S
H1329 C1337 0.930 . S
H1330 C1338 0.930 . S
H1331 C1339 0.930 . S
H1332 C1342 0.930 . S
H1333 C1343 0.930 . S
C1334 H1328 0.930 . S
C1334 C1335 1.355 . S
C1334 C1336 1.415 . S
C1335 C1334 1.355 . S
C1335 C1337 1.419 . S
C1336 C1334 1.415 . S
C1336 C1341 1.425 . S
C1336 C1343 1.409 . S
C1337 H1329 0.930 . S
C1337 C1335 1.419 . S
C1337 C1338 1.362 . S
C1338 H1330 0.930 . S
C1338 C1337 1.362 . S
C1338 C1341 1.409 . S
C1339 H1331 0.930 . S
C1339 C1340 1.355 . S
C1339 C1341 1.415 . S
C1340 C1339 1.355 . S
C1340 C1342 1.419 . S
C1341 C1336 1.425 . S
C1341 C1338 1.409 . S
C1341 C1339 1.415 . S
C1342 H1332 0.930 . S
C1342 C1340 1.419 . S
C1342 C1343 1.362 . S
C1343 H1333 0.930 . S
C1343 C1336 1.409 . S
C1343 C1342 1.362 . S
H1344 C1350 0.930 . S
H1345 C1353 0.930 . S
H1346 C1354 0.930 . S
H1347 C1355 0.930 . S
H1348 C1358 0.930 . S
H1349 C1359 0.930 . S
C1350 H1344 0.930 . S
C1350 C1351 1.355 . S
C1350 C1352 1.415 1_556 S
C1351 C1350 1.355 . S
C1351 C1353 1.419 . S
C1352 C1350 1.415 1_554 S
C1352 C1357 1.425 . S
C1352 C1359 1.409 . S
C1353 H1345 0.930 . S
C1353 C1351 1.419 . S
C1353 C1354 1.362 1_556 S
C1354 H1346 0.930 . S
C1354 C1353 1.362 1_554 S
C1354 C1357 1.409 . S
C1355 H1347 0.930 . S
C1355 C1356 1.355 . S
C1355 C1357 1.415 . S
C1356 C1355 1.355 . S
C1356 C1358 1.419 . S
C1357 C1352 1.425 . S
C1357 C1354 1.409 . S
C1357 C1355 1.415 . S
C1358 H1348 0.930 . S
C1358 C1356 1.419 . S
C1358 C1359 1.362 . S
C1359 H1349 0.930 . S
C1359 C1352 1.409 . S
C1359 C1358 1.362 . S
H1360 C1366 0.930 . S
H1361 C1369 0.930 . S
H1362 C1370 0.930 . S
H1363 C1371 0.930 . S
H1364 C1374 0.930 . S
H1365 C1375 0.930 . S
C1366 H1360 0.930 . S
C1366 C1367 1.355 . S
C1366 C1368 1.415 . S
C1367 C1366 1.355 . S
C1367 C1369 1.419 . S
C1368 C1366 1.415 . S
C1368 C1373 1.425 . S
C1368 C1375 1.409 . S
C1369 H1361 0.930 . S
C1369 C1367 1.419 . S
C1369 C1370 1.362 . S
C1370 H1362 0.930 . S
C1370 C1369 1.362 . S
C1370 C1373 1.409 . S
C1371 H1363 0.930 . S
C1371 C1372 1.355 . S
C1371 C1373 1.415 . S
C1372 C1371 1.355 . S
C1372 C1374 1.419 . S
C1373 C1368 1.425 . S
C1373 C1370 1.409 . S
C1373 C1371 1.415 . S
C1374 H1364 0.930 . S
C1374 C1372 1.419 . S
C1374 C1375 1.362 . S
C1375 H1365 0.930 . S
C1375 C1368 1.409 . S
C1375 C1374 1.362 . S
H1376 C1382 0.930 . S
H1377 C1385 0.930 . S
H1378 C1386 0.930 . S
H1379 C1387 0.930 . S
H1380 C1390 0.930 . S
H1381 C1391 0.930 . S
C1382 H1376 0.930 . S
C1382 C1383 1.355 . S
C1382 C1384 1.415 . S
C1383 C1382 1.355 . S
C1383 C1385 1.419 . S
C1384 C1382 1.415 . S
C1384 C1389 1.425 . S
C1384 C1391 1.409 . S
C1385 H1377 0.930 . S
C1385 C1383 1.419 . S
C1385 C1386 1.362 . S
C1386 H1378 0.930 . S
C1386 C1385 1.362 . S
C1386 C1389 1.409 . S
C1387 H1379 0.930 . S
C1387 C1388 1.355 . S
C1387 C1389 1.415 . S
C1388 C1387 1.355 . S
C1388 C1390 1.419 . S
C1389 C1384 1.425 . S
C1389 C1386 1.409 . S
C1389 C1387 1.415 . S
C1390 H1380 0.930 . S
C1390 C1388 1.419 . S
C1390 C1391 1.362 . S
C1391 H1381 0.930 . S
C1391 C1384 1.409 . S
C1391 C1390 1.362 . S
H1392 C1398 0.930 . S
H1393 C1401 0.930 . S
H1394 C1402 0.930 . S
H1395 C1403 0.930 . S
H1396 C1406 0.930 . S
H1397 C1407 0.930 . S
C1398 H1392 0.930 . S
C1398 C1399 1.355 . S
C1398 C1400 1.415 . S
C1399 C1398 1.355 . S
C1399 C1401 1.419 . S
C1400 C1398 1.415 . S
C1400 C1405 1.425 . S
C1400 C1407 1.409 . S
C1401 H1393 0.930 . S
C1401 C1399 1.419 . S
C1401 C1402 1.362 . S
C1402 H1394 0.930 . S
C1402 C1401 1.362 . S
C1402 C1405 1.409 . S
C1403 H1395 0.930 . S
C1403 C1404 1.355 . S
C1403 C1405 1.415 . S
C1404 C1403 1.355 . S
C1404 C1406 1.419 . S
C1405 C1400 1.425 . S
C1405 C1402 1.409 . S
C1405 C1403 1.415 . S
C1406 H1396 0.930 . S
C1406 C1404 1.419 . S
C1406 C1407 1.362 . S
C1407 H1397 0.930 . S
C1407 C1400 1.409 . S
C1407 C1406 1.362 . S
H1408 C1414 0.930 . S
H1409 C1417 0.930 . S
H1410 C1418 0.930 . S
H1411 C1419 0.930 1_545 S
H1412 C1422 0.930 . S
H1413 C1423 0.930 . S
C1414 H1408 0.930 . S
C1414 C1415 1.355 . S
C1414 C1416 1.415 . S
C1415 C1414 1.355 . S
C1415 C1417 1.419 . S
C1416 C1414 1.415 . S
C1416 C1421 1.425 . S
C1416 C1423 1.409 . S
C1417 H1409 0.930 . S
C1417 C1415 1.419 . S
C1417 C1418 1.362 . S
C1418 H1410 0.930 . S
C1418 C1417 1.362 . S
C1418 C1421 1.409 . S
C1419 H1411 0.930 1_565 S
C1419 C1420 1.355 1_565 S
C1419 C1421 1.415 . S
C1420 C1419 1.355 1_545 S
C1420 C1422 1.419 . S
C1421 C1416 1.425 . S
C1421 C1418 1.409 . S
C1421 C1419 1.415 . S
C1422 H1412 0.930 . S
C1422 C1420 1.419 . S
C1422 C1423 1.362 1_545 S
C1423 H1413 0.930 . S
C1423 C1416 1.409 . S
C1423 C1422 1.362 1_565 S
H1424 C1430 0.930 . S
H1425 C1433 0.930 . S
H1426 C1434 0.930 . S
H1427 C1435 0.930 . S
H1428 C1438 0.930 . S
H1429 C1439 0.930 . S
C1430 H1424 0.930 . S
C1430 C1431 1.355 . S
C1430 C1432 1.415 . S
C1431 C1430 1.355 . S
C1431 C1433 1.419 . S
C1432 C1430 1.415 . S
C1432 C1437 1.425 . S
C1432 C1439 1.409 . S
C1433 H1425 0.930 . S
C1433 C1431 1.419 . S
C1433 C1434 1.362 . S
C1434 H1426 0.930 . S
C1434 C1433 1.362 . S
C1434 C1437 1.409 . S
C1435 H1427 0.930 . S
C1435 C1436 1.355 . S
C1435 C1437 1.415 . S
C1436 C1435 1.355 . S
C1436 C1438 1.419 . S
C1437 C1432 1.425 . S
C1437 C1434 1.409 . S
C1437 C1435 1.415 . S
C1438 H1428 0.930 . S
C1438 C1436 1.419 . S
C1438 C1439 1.362 . S
C1439 H1429 0.930 . S
C1439 C1432 1.409 . S
C1439 C1438 1.362 . S
H1440 C1446 0.930 . S
H1441 C1449 0.930 . S
H1442 C1450 0.930 . S
H1443 C1451 0.930 . S
H1444 C1454 0.930 1_554 S
H1445 C1455 0.930 . S
C1446 H1440 0.930 . S
C1446 C1447 1.355 1_545 S
C1446 C1448 1.415 . S
C1447 C1446 1.355 1_565 S
C1447 C1449 1.419 1_554 S
C1448 C1446 1.415 . S
C1448 C1453 1.425 1_554 S
C1448 C1455 1.409 . S
C1449 H1441 0.930 . S
C1449 C1447 1.419 1_556 S
C1449 C1450 1.362 1_565 S
C1450 H1442 0.930 . S
C1450 C1449 1.362 1_545 S
C1450 C1453 1.409 . S
C1451 H1443 0.930 . S
C1451 C1452 1.355 . S
C1451 C1453 1.415 . S
C1452 C1451 1.355 . S
C1452 C1454 1.419 . S
C1453 C1448 1.425 1_556 S
C1453 C1450 1.409 . S
C1453 C1451 1.415 . S
C1454 H1444 0.930 1_556 S
C1454 C1452 1.419 . S
C1454 C1455 1.362 1_556 S
C1455 H1445 0.930 . S
C1455 C1448 1.409 . S
C1455 C1454 1.362 1_554 S
H1456 C1462 0.930 . S
H1457 C1465 0.930 . S
H1458 C1466 0.930 . S
H1459 C1467 0.930 . S
H1460 C1470 0.930 . S
H1461 C1471 0.930 . S
C1462 H1456 0.930 . S
C1462 C1463 1.355 . S
C1462 C1464 1.415 . S
C1463 C1462 1.355 . S
C1463 C1465 1.419 . S
C1464 C1462 1.415 . S
C1464 C1469 1.425 . S
C1464 C1471 1.409 . S
C1465 H1457 0.930 . S
C1465 C1463 1.419 . S
C1465 C1466 1.362 . S
C1466 H1458 0.930 . S
C1466 C1465 1.362 . S
C1466 C1469 1.409 . S
C1467 H1459 0.930 . S
C1467 C1468 1.355 . S
C1467 C1469 1.415 . S
C1468 C1467 1.355 . S
C1468 C1470 1.419 . S
C1469 C1464 1.425 . S
C1469 C1466 1.409 . S
C1469 C1467 1.415 . S
C1470 H1460 0.930 . S
C1470 C1468 1.419 . S
C1470 C1471 1.362 . S
C1471 H1461 0.930 . S
C1471 C1464 1.409 . S
C1471 C1470 1.362 . S
H1472 C1478 0.930 . S
H1473 C1481 0.930 . S
H1474 C1482 0.930 . S
H1475 C1483 0.930 . S
H1476 C1486 0.930 . S
H1477 C1487 0.930 . S
C1478 H1472 0.930 . S
C1478 C1479 1.355 . S
C1478 C1480 1.415 . S
C1479 C1478 1.355 . S
C1479 C1481 1.419 . S
C1480 C1478 1.415 . S
C1480 C1485 1.425 . S
C1480 C1487 1.409 . S
C1481 H1473 0.930 . S
C1481 C1479 1.419 . S
C1481 C1482 1.362 . S
C1482 H1474 0.930 . S
C1482 C1481 1.362 . S
C1482 C1485 1.409 . S
C1483 H1475 0.930 . S
C1483 C1484 1.355 . S
C1483 C1485 1.415 . S
C1484 C1483 1.355 . S
C1484 C1486 1.419 . S
C1485 C1480 1.425 . S
C1485 C1482 1.409 . S
C1485 C1483 1.415 . S
C1486 H1476 0.930 . S
C1486 C1484 1.419 . S
C1486 C1487 1.362 . S
C1487 H1477 0.930 . S
C1487 C1480 1.409 . S
C1487 C1486 1.362 . S
H1488 C1494 0.930 1_565 S
H1489 C1497 0.930 . S
H1490 C1498 0.930 . S
H1491 C1499 0.930 . S
H1492 C1502 0.930 . S
H1493 C1503 0.930 . S
C1494 H1488 0.930 1_545 S
C1494 C1495 1.355 . S
C1494 C1496 1.415 . S
C1495 C1494 1.355 . S
C1495 C1497 1.419 . S
C1496 C1494 1.415 . S
C1496 C1501 1.425 . S
C1496 C1503 1.409 1_545 S
C1497 H1489 0.930 . S
C1497 C1495 1.419 . S
C1497 C1498 1.362 . S
C1498 H1490 0.930 . S
C1498 C1497 1.362 . S
C1498 C1501 1.409 . S
C1499 H1491 0.930 . S
C1499 C1500 1.355 1_545 S
C1499 C1501 1.415 . S
C1500 C1499 1.355 1_565 S
C1500 C1502 1.419 . S
C1501 C1496 1.425 . S
C1501 C1498 1.409 . S
C1501 C1499 1.415 . S
C1502 H1492 0.930 . S
C1502 C1500 1.419 . S
C1502 C1503 1.362 . S
C1503 H1493 0.930 . S
C1503 C1496 1.409 1_565 S
C1503 C1502 1.362 . S
H1504 C1510 0.930 . S
H1505 C1513 0.930 . S
H1506 C1514 0.930 . S
H1507 C1515 0.930 . S
H1508 C1518 0.930 . S
H1509 C1519 0.930 . S
C1510 H1504 0.930 . S
C1510 C1511 1.355 . S
C1510 C1512 1.415 . S
C1511 C1510 1.355 . S
C1511 C1513 1.419 . S
C1512 C1510 1.415 . S
C1512 C1517 1.425 . S
C1512 C1519 1.409 . S
C1513 H1505 0.930 . S
C1513 C1511 1.419 . S
C1513 C1514 1.362 . S
C1514 H1506 0.930 . S
C1514 C1513 1.362 . S
C1514 C1517 1.409 . S
C1515 H1507 0.930 . S
C1515 C1516 1.355 . S
C1515 C1517 1.415 . S
C1516 C1515 1.355 . S
C1516 C1518 1.419 . S
C1517 C1512 1.425 . S
C1517 C1514 1.409 . S
C1517 C1515 1.415 . S
C1518 H1508 0.930 . S
C1518 C1516 1.419 . S
C1518 C1519 1.362 . S
C1519 H1509 0.930 . S
C1519 C1512 1.409 . S
C1519 C1518 1.362 . S
H1520 C1526 0.930 1_565 S
H1521 C1529 0.930 . S
H1522 C1530 0.930 . S
H1523 C1531 0.930 . S
H1524 C1534 0.930 . S
H1525 C1535 0.930 . S
C1526 H1520 0.930 1_545 S
C1526 C1527 1.353 . S
C1526 C1528 1.416 1_645 S
C1527 C1526 1.353 . S
C1527 C1529 1.419 . S
C1528 C1526 1.416 1_465 S
C1528 C1533 1.425 . S
C1528 C1535 1.409 . S
C1529 H1521 0.930 . S
C1529 C1527 1.419 . S
C1529 C1530 1.362 1_655 S
C1530 H1522 0.930 . S
C1530 C1529 1.362 1_455 S
C1530 C1533 1.409 1_545 S
C1531 H1523 0.930 . S
C1531 C1532 1.355 . S
C1531 C1533 1.415 . S
C1532 C1531 1.355 . S
C1532 C1534 1.419 . S
C1533 C1528 1.425 . S
C1533 C1530 1.409 1_565 S
C1533 C1531 1.415 . S
C1534 H1524 0.930 . S
C1534 C1532 1.419 . S
C1534 C1535 1.362 . S
C1535 H1525 0.930 . S
C1535 C1528 1.409 . S
C1535 C1534 1.362 . S
H1536 C1542 0.930 . S
H1537 C1545 0.930 . S
H1538 C1546 0.930 . S
H1539 C1547 0.930 . S
H1540 C1550 0.930 . S
H1541 C1551 0.930 . S
C1542 H1536 0.930 . S
C1542 C1543 1.355 . S
C1542 C1544 1.415 . S
C1543 C1542 1.355 . S
C1543 C1545 1.419 . S
C1544 C1542 1.415 . S
C1544 C1549 1.425 . S
C1544 C1551 1.409 . S
C1545 H1537 0.930 . S
C1545 C1543 1.419 . S
C1545 C1546 1.362 . S
C1546 H1538 0.930 . S
C1546 C1545 1.362 . S
C1546 C1549 1.409 . S
C1547 H1539 0.930 . S
C1547 C1548 1.355 . S
C1547 C1549 1.415 . S
C1548 C1547 1.355 . S
C1548 C1550 1.419 . S
C1549 C1544 1.425 . S
C1549 C1546 1.409 . S
C1549 C1547 1.415 . S
C1550 H1540 0.930 . S
C1550 C1548 1.419 . S
C1550 C1551 1.362 . S
C1551 H1541 0.930 . S
C1551 C1544 1.409 . S
C1551 C1550 1.362 . S
H1552 C1558 0.930 . S
H1553 C1561 0.930 1_455 S
H1554 C1562 0.930 . S
H1555 C1563 0.930 . S
H1556 C1566 0.930 . S
H1557 C1567 0.930 . S
C1558 H1552 0.930 . S
C1558 C1559 1.355 . S
C1558 C1560 1.415 1_455 S
C1559 C1558 1.355 . S
C1559 C1561 1.419 1_455 S
C1560 C1558 1.415 1_655 S
C1560 C1565 1.425 . S
C1560 C1567 1.409 . S
C1561 H1553 0.930 1_655 S
C1561 C1559 1.419 1_655 S
C1561 C1562 1.362 . S
C1562 H1554 0.930 . S
C1562 C1561 1.362 . S
C1562 C1565 1.409 . S
C1563 H1555 0.930 . S
C1563 C1564 1.355 . S
C1563 C1565 1.415 . S
C1564 C1563 1.355 . S
C1564 C1566 1.419 . S
C1565 C1560 1.425 . S
C1565 C1562 1.409 . S
C1565 C1563 1.415 . S
C1566 H1556 0.930 . S
C1566 C1564 1.419 . S
C1566 C1567 1.362 . S
C1567 H1557 0.930 . S
C1567 C1560 1.409 . S
C1567 C1566 1.362 . S
H1568 C1574 0.930 . S
H1569 C1577 0.930 . S
H1570 C1578 0.930 . S
H1571 C1579 0.930 . S
H1572 C1582 0.930 . S
H1573 C1583 0.930 . S
C1574 H1568 0.930 . S
C1574 C1575 1.355 . S
C1574 C1576 1.415 . S
C1575 C1574 1.355 . S
C1575 C1577 1.419 . S
C1576 C1574 1.415 . S
C1576 C1581 1.425 . S
C1576 C1583 1.409 . S
C1577 H1569 0.930 . S
C1577 C1575 1.419 . S
C1577 C1578 1.362 . S
C1578 H1570 0.930 . S
C1578 C1577 1.362 . S
C1578 C1581 1.409 . S
C1579 H1571 0.930 . S
C1579 C1580 1.355 . S
C1579 C1581 1.415 . S
C1580 C1579 1.355 . S
C1580 C1582 1.419 . S
C1581 C1576 1.425 . S
C1581 C1578 1.409 . S
C1581 C1579 1.415 . S
C1582 H1572 0.930 . S
C1582 C1580 1.419 . S
C1582 C1583 1.362 . S
C1583 H1573 0.930 . S
C1583 C1576 1.409 . S
C1583 C1582 1.362 . S
H1584 C1590 0.930 . S
H1585 C1593 0.930 . S
H1586 C1594 0.930 . S
H1587 C1595 0.930 . S
H1588 C1598 0.930 . S
H1589 C1599 0.930 . S
C1590 H1584 0.930 . S
C1590 C1591 1.355 . S
C1590 C1592 1.415 . S
C1591 C1590 1.355 . S
C1591 C1593 1.419 . S
C1592 C1590 1.415 . S
C1592 C1597 1.425 1_655 S
C1592 C1599 1.409 . S
C1593 H1585 0.930 . S
C1593 C1591 1.419 . S
C1593 C1594 1.362 1_655 S
C1594 H1586 0.930 . S
C1594 C1593 1.362 1_455 S
C1594 C1597 1.409 . S
C1595 H1587 0.930 . S
C1595 C1596 1.355 . S
C1595 C1597 1.415 . S
C1596 C1595 1.355 . S
C1596 C1598 1.419 . S
C1597 C1592 1.425 1_455 S
C1597 C1594 1.409 . S
C1597 C1595 1.415 . S
C1598 H1588 0.930 . S
C1598 C1596 1.419 . S
C1598 C1599 1.362 1_455 S
C1599 H1589 0.930 . S
C1599 C1592 1.409 . S
C1599 C1598 1.362 1_655 S
H1600 C1606 0.930 . S
H1601 C1609 0.930 . S
H1602 C1610 0.930 . S
H1603 C1611 0.930 . S
H1604 C1614 0.930 . S
H1605 C1615 0.930 . S
C1606 H1600 0.930 . S
C1606 C1607 1.355 . S
C1606 C1608 1.425 . S
C1607 C1606 1.355 . S
C1607 C1609 1.419 . S
C1608 C1606 1.425 . S
C1608 C1613 1.429 . S
C1608 C1615 1.396 1_554 S
C1609 H1601 0.930 . S
C1609 C1607 1.419 . S
C1609 C1610 1.362 . S
C1610 H1602 0.930 . S
C1610 C1609 1.362 . S
C1610 C1613 1.409 . S
C1611 H1603 0.930 . S
C1611 C1612 1.355 . S
C1611 C1613 1.415 1_556 S
C1612 C1611 1.355 . S
C1612 C1614 1.419 . S
C1613 C1608 1.429 . S
C1613 C1610 1.409 . S
C1613 C1611 1.415 1_554 S
C1614 H1604 0.930 . S
C1614 C1612 1.419 . S
C1614 C1615 1.362 . S
C1615 H1605 0.930 . S
C1615 C1608 1.396 1_556 S
C1615 C1614 1.362 . S
H1616 C1622 0.930 . S
H1617 C1625 0.930 . S
H1618 C1626 0.930 . S
H1619 C1627 0.930 . S
H1620 C1630 0.930 . S
H1621 C1631 0.930 . S
C1622 H1616 0.930 . S
C1622 C1623 1.355 . S
C1622 C1624 1.415 . S
C1623 C1622 1.355 . S
C1623 C1625 1.419 . S
C1624 C1622 1.415 . S
C1624 C1629 1.425 . S
C1624 C1631 1.409 . S
C1625 H1617 0.930 . S
C1625 C1623 1.419 . S
C1625 C1626 1.362 . S
C1626 H1618 0.930 . S
C1626 C1625 1.362 . S
C1626 C1629 1.409 . S
C1627 H1619 0.930 . S
C1627 C1628 1.355 . S
C1627 C1629 1.415 . S
C1628 C1627 1.355 . S
C1628 C1630 1.419 . S
C1629 C1624 1.425 . S
C1629 C1626 1.409 . S
C1629 C1627 1.415 . S
C1630 H1620 0.930 . S
C1630 C1628 1.419 . S
C1630 C1631 1.362 . S
C1631 H1621 0.930 . S
C1631 C1624 1.409 . S
C1631 C1630 1.362 . S
H1632 C1638 0.930 . S
H1633 C1641 0.930 . S
H1634 C1642 0.930 . S
H1635 C1643 0.930 . S
H1636 C1646 0.930 . S
H1637 C1647 0.930 . S
C1638 H1632 0.930 . S
C1638 C1639 1.355 . S
C1638 C1640 1.415 . S
C1639 C1638 1.355 . S
C1639 C1641 1.419 . S
C1640 C1638 1.415 . S
C1640 C1645 1.425 . S
C1640 C1647 1.409 . S
C1641 H1633 0.930 . S
C1641 C1639 1.419 . S
C1641 C1642 1.362 . S
C1642 H1634 0.930 . S
C1642 C1641 1.362 . S
C1642 C1645 1.409 . S
C1643 H1635 0.930 . S
C1643 C1644 1.355 . S
C1643 C1645 1.415 . S
C1644 C1643 1.355 . S
C1644 C1646 1.419 . S
C1645 C1640 1.425 . S
C1645 C1642 1.409 . S
C1645 C1643 1.415 . S
C1646 H1636 0.930 . S
C1646 C1644 1.419 . S
C1646 C1647 1.362 . S
C1647 H1637 0.930 . S
C1647 C1640 1.409 . S
C1647 C1646 1.362 . S
H1648 C1654 0.930 . S
H1649 C1657 0.930 . S
H1650 C1658 0.930 . S
H1651 C1659 0.930 . S
H1652 C1662 0.930 . S
H1653 C1663 0.930 . S
C1654 H1648 0.930 . S
C1654 C1655 1.355 . S
C1654 C1656 1.415 . S
C1655 C1654 1.355 . S
C1655 C1657 1.419 . S
C1656 C1654 1.415 . S
C1656 C1661 1.425 . S
C1656 C1663 1.409 . S
C1657 H1649 0.930 . S
C1657 C1655 1.419 . S
C1657 C1658 1.362 . S
C1658 H1650 0.930 . S
C1658 C1657 1.362 . S
C1658 C1661 1.409 . S
C1659 H1651 0.930 . S
C1659 C1660 1.355 . S
C1659 C1661 1.415 . S
C1660 C1659 1.355 . S
C1660 C1662 1.419 . S
C1661 C1656 1.425 . S
C1661 C1658 1.409 . S
C1661 C1659 1.415 . S
C1662 H1652 0.930 . S
C1662 C1660 1.419 . S
C1662 C1663 1.362 . S
C1663 H1653 0.930 . S
C1663 C1656 1.409 . S
C1663 C1662 1.362 . S
H1664 C1670 0.930 . S
H1665 C1673 0.930 . S
H1666 C1674 0.930 . S
H1667 C1675 0.930 . S
H1668 C1678 0.930 . S
H1669 C1679 0.930 . S
C1670 H1664 0.930 . S
C1670 C1671 1.355 . S
C1670 C1672 1.415 . S
C1671 C1670 1.355 . S
C1671 C1673 1.419 . S
C1672 C1670 1.415 . S
C1672 C1677 1.425 . S
C1672 C1679 1.409 . S
C1673 H1665 0.930 . S
C1673 C1671 1.419 . S
C1673 C1674 1.362 . S
C1674 H1666 0.930 . S
C1674 C1673 1.362 . S
C1674 C1677 1.409 . S
C1675 H1667 0.930 . S
C1675 C1676 1.355 . S
C1675 C1677 1.415 . S
C1676 C1675 1.355 . S
C1676 C1678 1.419 . S
C1677 C1672 1.425 . S
C1677 C1674 1.409 . S
C1677 C1675 1.415 . S
C1678 H1668 0.930 . S
C1678 C1676 1.419 . S
C1678 C1679 1.362 . S
C1679 H1669 0.930 . S
C1679 C1672 1.409 . S
C1679 C1678 1.362 . S
H1680 C1686 0.930 1_455 S
H1681 C1689 0.930 . S
H1682 C1690 0.930 . S
H1683 C1691 0.930 . S
H1684 C1694 0.930 . S
H1685 C1695 0.930 . S
C1686 H1680 0.930 1_655 S
C1686 C1687 1.355 . S
C1686 C1688 1.415 1_655 S
C1687 C1686 1.355 . S
C1687 C1689 1.419 . S
C1688 C1686 1.415 1_455 S
C1688 C1693 1.425 1_455 S
C1688 C1695 1.409 . S
C1689 H1681 0.930 . S
C1689 C1687 1.419 . S
C1689 C1690 1.362 . S
C1690 H1682 0.930 . S
C1690 C1689 1.362 . S
C1690 C1693 1.409 . S
C1691 H1683 0.930 . S
C1691 C1692 1.355 . S
C1691 C1693 1.415 1_455 S
C1692 C1691 1.355 . S
C1692 C1694 1.419 . S
C1693 C1688 1.425 1_655 S
C1693 C1690 1.409 . S
C1693 C1691 1.415 1_655 S
C1694 H1684 0.930 . S
C1694 C1692 1.419 . S
C1694 C1695 1.362 . S
C1695 H1685 0.930 . S
C1695 C1688 1.409 . S
C1695 C1694 1.362 . S
H1696 C1702 0.930 . S
H1697 C1705 0.930 . S
H1698 C1706 0.930 . S
H1699 C1707 0.930 . S
H1700 C1710 0.930 . S
H1701 C1711 0.930 . S
C1702 H1696 0.930 . S
C1702 C1703 1.355 . S
C1702 C1704 1.415 . S
C1703 C1702 1.355 . S
C1703 C1705 1.419 . S
C1704 C1702 1.415 . S
C1704 C1709 1.425 1_554 S
C1704 C1711 1.409 . S
C1705 H1697 0.930 . S
C1705 C1703 1.419 . S
C1705 C1706 1.362 1_554 S
C1706 H1698 0.930 . S
C1706 C1705 1.362 1_556 S
C1706 C1709 1.409 . S
C1707 H1699 0.930 . S
C1707 C1708 1.355 . S
C1707 C1709 1.415 . S
C1708 C1707 1.355 . S
C1708 C1710 1.419 . S
C1709 C1704 1.425 1_556 S
C1709 C1706 1.409 . S
C1709 C1707 1.415 . S
C1710 H1700 0.930 . S
C1710 C1708 1.419 . S
C1710 C1711 1.362 1_556 S
C1711 H1701 0.930 . S
C1711 C1704 1.409 . S
C1711 C1710 1.362 1_554 S
H1712 C1718 0.930 . S
H1713 C1721 0.930 . S
H1714 C1722 0.930 . S
H1715 C1723 0.930 1_565 S
H1716 C1726 0.930 . S
H1717 C1727 0.930 . S
C1718 H1712 0.930 . S
C1718 C1719 1.355 . S
C1718 C1720 1.415 1_565 S
C1719 C1718 1.355 . S
C1719 C1721 1.419 . S
C1720 C1718 1.415 1_545 S
C1720 C1725 1.425 1_545 S
C1720 C1727 1.409 . S
C1721 H1713 0.930 . S
C1721 C1719 1.419 . S
C1721 C1722 1.362 . S
C1722 H1714 0.930 . S
C1722 C1721 1.362 . S
C1722 C1725 1.409 . S
C1723 H1715 0.930 1_545 S
C1723 C1724 1.355 . S
C1723 C1725 1.415 1_545 S
C1724 C1723 1.355 . S
C1724 C1726 1.419 . S
C1725 C1720 1.425 1_565 S
C1725 C1722 1.409 . S
C1725 C1723 1.415 1_565 S
C1726 H1716 0.930 . S
C1726 C1724 1.419 . S
C1726 C1727 1.362 . S
C1727 H1717 0.930 . S
C1727 C1720 1.409 . S
C1727 C1726 1.362 . S
H1728 C1734 0.930 . S
H1729 C1737 0.930 . S
H1730 C1738 0.930 . S
H1731 C1739 0.930 . S
H1732 C1742 0.930 . S
H1733 C1743 0.930 . S
C1734 H1728 0.930 . S
C1734 C1735 1.355 . S
C1734 C1736 1.415 . S
C1735 C1734 1.355 . S
C1735 C1737 1.419 . S
C1736 C1734 1.415 . S
C1736 C1741 1.425 . S
C1736 C1743 1.409 . S
C1737 H1729 0.930 . S
C1737 C1735 1.419 . S
C1737 C1738 1.362 . S
C1738 H1730 0.930 . S
C1738 C1737 1.362 . S
C1738 C1741 1.409 . S
C1739 H1731 0.930 . S
C1739 C1740 1.355 . S
C1739 C1741 1.415 . S
C1740 C1739 1.355 . S
C1740 C1742 1.419 . S
C1741 C1736 1.425 . S
C1741 C1738 1.409 . S
C1741 C1739 1.415 . S
C1742 H1732 0.930 . S
C1742 C1740 1.419 . S
C1742 C1743 1.362 . S
C1743 H1733 0.930 . S
C1743 C1736 1.409 . S
C1743 C1742 1.362 . S
H1744 C1750 0.930 . S
H1745 C1753 0.930 . S
H1746 C1754 0.938 . S
H1747 C1755 0.930 . S
H1748 C1758 0.930 . S
H1749 C1759 0.930 . S
C1750 H1744 0.930 . S
C1750 C1751 1.355 . S
C1750 C1752 1.415 . S
C1751 C1750 1.355 . S
C1751 C1753 1.419 . S
C1752 C1750 1.415 . S
C1752 C1757 1.425 1_545 S
C1752 C1759 1.409 . S
C1753 H1745 0.930 . S
C1753 C1751 1.419 . S
C1753 C1754 1.352 1_545 S
C1754 H1746 0.938 . S
C1754 C1753 1.352 1_565 S
C1754 C1757 1.411 . S
C1755 H1747 0.930 . S
C1755 C1756 1.355 . S
C1755 C1757 1.415 . S
C1756 C1755 1.355 . S
C1756 C1758 1.419 . S
C1757 C1752 1.425 1_565 S
C1757 C1754 1.411 . S
C1757 C1755 1.415 . S
C1758 H1748 0.930 . S
C1758 C1756 1.419 . S
C1758 C1759 1.362 1_565 S
C1759 H1749 0.930 . S
C1759 C1752 1.409 . S
C1759 C1758 1.362 1_545 S
H1760 C1766 0.930 . S
H1761 C1769 0.930 . S
H1762 C1770 0.930 . S
H1763 C1771 0.930 . S
H1764 C1774 0.930 . S
H1765 C1775 0.930 . S
C1766 H1760 0.930 . S
C1766 C1767 1.355 . S
C1766 C1768 1.415 . S
C1767 C1766 1.355 . S
C1767 C1769 1.419 . S
C1768 C1766 1.415 . S
C1768 C1773 1.425 . S
C1768 C1775 1.409 . S
C1769 H1761 0.930 . S
C1769 C1767 1.419 . S
C1769 C1770 1.362 . S
C1770 H1762 0.930 . S
C1770 C1769 1.362 . S
C1770 C1773 1.409 . S
C1771 H1763 0.930 . S
C1771 C1772 1.355 . S
C1771 C1773 1.415 . S
C1772 C1771 1.355 . S
C1772 C1774 1.419 . S
C1773 C1768 1.425 . S
C1773 C1770 1.409 . S
C1773 C1771 1.415 . S
C1774 H1764 0.930 . S
C1774 C1772 1.419 . S
C1774 C1775 1.362 . S
C1775 H1765 0.930 . S
C1775 C1768 1.409 . S
C1775 C1774 1.362 . S
C823 C451 1.548 . S
C828 C20 1.625 . S
C839 C54 1.658 . S
C844 C485 1.461 . S
C855 C88 1.631 . S
C860 C519 1.533 1_556 S
C871 C417 1.509 . S
C876 C122 1.641 . S
C887 C383 1.557 . S
C892 C156 1.620 . S
C903 C281 1.504 1_565 S
C908 C190 1.641 . S
C919 C224 1.648 . S
C924 C315 1.490 1_554 S
C935 C349 1.546 1_545 S
C940 C258 1.624 . S
C951 C292 1.640 . S
C956 C43 1.505 . S
C967 C326 1.646 . S
C972 C77 1.490 . S
C983 C360 1.620 . S
C988 C111 1.557 1_455 S
C999 C9 1.558 1_655 S
C1004 C394 1.620 . S
C1015 C247 1.556 1_655 S
C1020 C428 1.620 . S
C1031 C462 1.636 . S
C1036 C145 1.521 . S
C1047 C496 1.636 . S
C1052 C179 1.515 . S
C1063 C213 1.552 1_455 S
C1068 C530 1.623 . S
C1079 C757 1.556 . S
C1084 C564 1.620 . S
C1095 C598 1.650 . S
C1100 C621 1.480 1_545 S
C1111 C632 1.662 . S
C1116 C655 1.453 . S
C1127 C689 1.454 1_565 S
C1132 C666 1.661 . S
C1143 C700 1.629 . S
C1148 C587 1.539 1_554 S
C1159 C791 1.499 . S
C1164 C734 1.645 . S
C1175 C768 1.620 . S
C1180 C723 1.557 . S
C1191 C553 1.455 1_556 S
C1196 C802 1.661 . S
C1207 C549 1.324 . S
C1212 C33 1.340 . S
C1223 C787 1.289 . S
C1228 C67 1.307 . S
C1239 C101 1.299 . S
C1244 C719 1.309 . S
C1255 C753 1.283 . S
C1260 C135 1.297 . S
C1271 C583 1.334 . S
C1276 C169 1.322 . S
C1287 C617 1.287 . S
C1292 C203 1.286 . S
C1303 C651 1.285 . S
C1308 C237 1.302 . S
C1319 C271 1.306 . S
C1324 C685 1.318 . S
C1335 C305 1.339 . S
C1340 C5 1.323 . S
C1351 C339 1.330 . S
C1356 C39 1.340 . S
C1367 C373 1.288 . S
C1372 C73 1.292 . S
C1383 C407 1.286 . S
C1388 C107 1.288 . S
C1399 C441 1.348 . S
C1404 C141 1.339 . S
C1415 C175 1.281 . S
C1420 C475 1.295 . S
C1431 C209 1.348 . S
C1436 C509 1.346 . S
C1447 C543 1.349 . S
C1452 C243 1.340 . S
C1463 C277 1.331 . S
C1468 C577 1.344 . S
C1479 C413 1.339 . S
C1484 C611 1.329 . S
C1495 C447 1.324 . S
C1500 C645 1.311 . S
C1511 C481 1.346 . S
C1516 C679 1.340 . S
C1527 C713 1.325 . S
C1532 C515 1.336 . S
C1543 C747 1.304 . S
C1548 C345 1.316 . S
C1559 C781 1.289 . S
C1564 C379 1.294 . S
C1575 C311 1.323 . S
C1580 C815 1.339 . S
C1591 C682 1.193 . S
C1596 C2 1.222 . S
C1607 C36 1.222 . S
C1612 C580 1.204 . S
C1623 C614 1.204 . S
C1628 C70 1.222 . S
C1639 C104 1.224 . S
C1644 C648 1.193 . S
C1655 C784 1.226 . S
C1660 C138 1.197 . S
C1671 C716 1.207 . S
C1676 C172 1.219 . S
C1687 C206 1.202 . S
C1692 C750 1.223 . S
C1703 C546 1.208 . S
C1708 C240 1.203 . S
C1719 C512 1.225 . S
C1724 C274 1.192 . S
C1735 C410 1.225 . S
C1740 C308 1.192 . S
C1751 C444 1.199 . S
C1756 C342 1.213 . S
C1767 C478 1.193 . S
C1772 C376 1.223 . S
