# Generated by pormake.
# Topology vbn, (6)-cn, num edge types: 1
# Building blocks:
#     Node 0, Type 0, BuildingBlock: IZENUY_clean_sbu_0, # of connection points: 6
#     Node 1, Type 0, BuildingBlock: IZENUY_clean_sbu_0, # of connection points: 6
#     Node 2, Type 0, BuildingBlock: IZENUY_clean_sbu_0, # of connection points: 6
#     Node 3, Type 0, BuildingBlock: IZENUY_clean_sbu_0, # of connection points: 6
#     Node 4, Type 0, BuildingBlock: IZENUY_clean_sbu_0, # of connection points: 6
#     Node 5, Type 0, BuildingBlock: IZENUY_clean_sbu_0, # of connection points: 6
#     Node 6, Type 0, BuildingBlock: IZENUY_clean_sbu_0, # of connection points: 6
#     Node 7, Type 0, BuildingBlock: IZENUY_clean_sbu_0, # of connection points: 6
#     Edge 8, Type (0, 0), BuildingBlock: ZUJKAS_clean_linker_0, # of connection points: 2
#     Edge 9, Type (0, 0), BuildingBlock: ZUJKAS_clean_linker_0, # of connection points: 2
#     Edge 10, Type (0, 0), BuildingBlock: ZUJKAS_clean_linker_0, # of connection points: 2
#     Edge 11, Type (0, 0), BuildingBlock: ZUJKAS_clean_linker_0, # of connection points: 2
#     Edge 12, Type (0, 0), BuildingBlock: ZUJKAS_clean_linker_0, # of connection points: 2
#     Edge 13, Type (0, 0), BuildingBlock: ZUJKAS_clean_linker_0, # of connection points: 2
#     Edge 14, Type (0, 0), BuildingBlock: ZUJKAS_clean_linker_0, # of connection points: 2
#     Edge 15, Type (0, 0), BuildingBlock: ZUJKAS_clean_linker_0, # of connection points: 2
#     Edge 16, Type (0, 0), BuildingBlock: ZUJKAS_clean_linker_0, # of connection points: 2
#     Edge 17, Type (0, 0), BuildingBlock: ZUJKAS_clean_linker_0, # of connection points: 2
#     Edge 18, Type (0, 0), BuildingBlock: ZUJKAS_clean_linker_0, # of connection points: 2
#     Edge 19, Type (0, 0), BuildingBlock: ZUJKAS_clean_linker_0, # of connection points: 2
#     Edge 20, Type (0, 0), BuildingBlock: ZUJKAS_clean_linker_0, # of connection points: 2
#     Edge 21, Type (0, 0), BuildingBlock: ZUJKAS_clean_linker_0, # of connection points: 2
#     Edge 22, Type (0, 0), BuildingBlock: ZUJKAS_clean_linker_0, # of connection points: 2
#     Edge 23, Type (0, 0), BuildingBlock: ZUJKAS_clean_linker_0, # of connection points: 2
#     Edge 24, Type (0, 0), BuildingBlock: ZUJKAS_clean_linker_0, # of connection points: 2
#     Edge 25, Type (0, 0), BuildingBlock: ZUJKAS_clean_linker_0, # of connection points: 2
#     Edge 26, Type (0, 0), BuildingBlock: ZUJKAS_clean_linker_0, # of connection points: 2
#     Edge 27, Type (0, 0), BuildingBlock: ZUJKAS_clean_linker_0, # of connection points: 2
#     Edge 28, Type (0, 0), BuildingBlock: ZUJKAS_clean_linker_0, # of connection points: 2
#     Edge 29, Type (0, 0), BuildingBlock: ZUJKAS_clean_linker_0, # of connection points: 2
#     Edge 30, Type (0, 0), BuildingBlock: ZUJKAS_clean_linker_0, # of connection points: 2
#     Edge 31, Type (0, 0), BuildingBlock: ZUJKAS_clean_linker_0, # of connection points: 2
# Relax obj value: 0.241
# Max RMSD: 0.242
# Mean RMSD: 0.242
data_MOF--net-vbn--node1-IZENUY_clean_sbu_0--edge1-ZUJKAS_clean_linker_0
_symmetry_space_group_name_H-M    P1
_symmetry_Int_Tables_number       1
_symmetry_cell_setting            triclinic
loop_
_symmetry_equiv_pos_as_xyz
'x, y, z'
_cell_length_a     32.770335
_cell_length_b     36.063177
_cell_length_c     59.315343
_cell_angle_alpha  89.9586
_cell_angle_beta   90.008427
_cell_angle_gamma 89.765821
loop_
_atom_site_label
_atom_site_type_symbol
_atom_site_fract_x
_atom_site_fract_y
_atom_site_fract_z
_atom_type_partial_charge
Fe0 Fe 0.41763 0.33986 0.40611 0.0
Fe1 Fe 0.38764 0.2844 0.44106 0.0
O2 O 0.38224 0.30581 0.41448 0.0
Fe3 Fe 0.34144 0.29373 0.39645 0.0
O4 O 0.32219 0.34068 0.3966 0.0
O5 O 0.38078 0.36709 0.38926 0.0
O6 O 0.40353 0.36905 0.42941 0.0
C7 C 0.40754 0.35966 0.44969 0.0
C8 C 0.40957 0.30158 0.36694 0.0
O9 O 0.41009 0.32561 0.45505 0.0
C10 C 0.36034 0.22542 0.4127 0.0
O11 O 0.46111 0.31938 0.42185 0.0
O12 O 0.43717 0.2661 0.43355 0.0
O13 O 0.37112 0.30092 0.37009 0.0
O14 O 0.43323 0.31236 0.38231 0.0
C15 C 0.30551 0.29439 0.44029 0.0
O16 O 0.36576 0.23962 0.43206 0.0
O17 O 0.35776 0.24581 0.39549 0.0
C18 C 0.46706 0.28687 0.42949 0.0
O19 O 0.33872 0.30151 0.44999 0.0
O20 O 0.30492 0.28449 0.4197 0.0
C21 C 0.34235 0.36908 0.39152 0.0
Fe22 Fe 0.17116 0.21639 0.89585 0.0
Fe23 Fe 0.09404 0.17169 0.90585 0.0
O24 O 0.1306 0.20473 0.91417 0.0
Fe25 Fe 0.12664 0.22563 0.94096 0.0
O26 O 0.17542 0.20723 0.94927 0.0
O27 O 0.20859 0.22457 0.91885 0.0
O28 O 0.1893 0.16906 0.89554 0.0
C29 C 0.16817 0.1412 0.89054 0.0
C30 C 0.15421 0.28468 0.91267 0.0
O31 O 0.12974 0.14401 0.88863 0.0
C32 C 0.04679 0.22516 0.9301 0.0
O33 O 0.14067 0.2102 0.86969 0.0
O34 O 0.0786 0.19995 0.88228 0.0
O35 O 0.14946 0.27018 0.93203 0.0
O36 O 0.15579 0.26461 0.89531 0.0
C37 C 0.10423 0.15062 0.94926 0.0
O38 O 0.05163 0.19285 0.922 0.0
O39 O 0.07733 0.24518 0.93413 0.0
C40 C 0.10217 0.21025 0.86674 0.0
O41 O 0.10772 0.14165 0.92888 0.0
O42 O 0.10345 0.18462 0.95491 0.0
C43 C 0.20848 0.21417 0.93937 0.0
Fe44 Fe 0.91982 0.17006 0.60962 0.0
Fe45 Fe 0.88457 0.22347 0.57474 0.0
O46 O 0.88214 0.20246 0.60155 0.0
Fe47 Fe 0.84185 0.21355 0.62016 0.0
O48 O 0.82483 0.16622 0.62032 0.0
O49 O 0.88497 0.14157 0.62691 0.0
O50 O 0.9068 0.13994 0.58657 0.0
C51 C 0.9101 0.1491 0.56622 0.0
C52 C 0.9113 0.20799 0.64891 0.0
O53 O 0.90919 0.18311 0.56058 0.0
C54 C 0.85632 0.28195 0.60343 0.0
O55 O 0.96133 0.19243 0.59337 0.0
O56 O 0.93313 0.24401 0.58129 0.0
O57 O 0.87278 0.20726 0.64618 0.0
O58 O 0.93482 0.19834 0.63318 0.0
C59 C 0.80328 0.21078 0.57707 0.0
O60 O 0.86053 0.26766 0.58395 0.0
O61 O 0.85644 0.26167 0.62073 0.0
C62 C 0.96458 0.22494 0.58526 0.0
O63 O 0.83611 0.20392 0.56683 0.0
O64 O 0.80382 0.22179 0.59745 0.0
C65 C 0.84651 0.13852 0.62524 0.0
Fe66 Fe 0.59427 0.33691 0.10958 0.0
Fe67 Fe 0.63034 0.28213 0.07579 0.0
O68 O 0.63193 0.30395 0.10235 0.0
Fe69 Fe 0.67151 0.2933 0.12153 0.0
O70 O 0.68888 0.34053 0.12117 0.0
O71 O 0.62873 0.36561 0.12697 0.0
O72 O 0.60868 0.36618 0.08639 0.0
C73 C 0.60717 0.3564 0.06609 0.0
C74 C 0.60105 0.30013 0.14937 0.0
O75 O 0.60721 0.32227 0.06085 0.0
C76 C 0.65646 0.2245 0.10561 0.0
O77 O 0.55315 0.31453 0.09299 0.0
O78 O 0.58117 0.26234 0.08186 0.0
O79 O 0.63965 0.3007 0.14703 0.0
O80 O 0.57806 0.30943 0.1333 0.0
C81 C 0.71166 0.2947 0.07902 0.0
O82 O 0.65325 0.2381 0.08589 0.0
O83 O 0.6565 0.24536 0.12262 0.0
C84 C 0.54982 0.28192 0.08506 0.0
O85 O 0.67928 0.30097 0.06826 0.0
O86 O 0.71036 0.28398 0.09943 0.0
C87 C 0.66723 0.36851 0.12547 0.0
Fe88 Fe 0.58887 0.6734 0.6074 0.0
Fe89 Fe 0.62372 0.72971 0.5743 0.0
O90 O 0.62658 0.7061 0.6003 0.0
Fe91 Fe 0.6674 0.7147 0.619 0.0
O92 O 0.68396 0.66715 0.61736 0.0
O93 O 0.6238 0.64278 0.62349 0.0
O94 O 0.60156 0.6455 0.58331 0.0
C95 C 0.59914 0.65662 0.56329 0.0
C96 C 0.59833 0.70746 0.6479 0.0
O97 O 0.59894 0.69108 0.55888 0.0
C98 C 0.65285 0.78479 0.60484 0.0
O99 O 0.5472 0.6978 0.5921 0.0
O100 O 0.57535 0.75023 0.58179 0.0
O101 O 0.63681 0.70648 0.64492 0.0
O102 O 0.57442 0.69952 0.63201 0.0
C103 C 0.70488 0.71479 0.57573 0.0
O104 O 0.64818 0.7725 0.58492 0.0
O105 O 0.65338 0.76289 0.62138 0.0
C106 C 0.5439 0.73116 0.58528 0.0
O107 O 0.67174 0.71025 0.56542 0.0
O108 O 0.70514 0.72441 0.59636 0.0
C109 C 0.66219 0.63929 0.62138 0.0
Fe110 Fe 0.92116 0.8358 0.11176 0.0
Fe111 Fe 0.88653 0.78168 0.07721 0.0
O112 O 0.88378 0.80327 0.10382 0.0
Fe113 Fe 0.84338 0.79271 0.12242 0.0
O114 O 0.82597 0.83999 0.1219 0.0
O115 O 0.88582 0.86462 0.12871 0.0
O116 O 0.90807 0.8655 0.08846 0.0
C117 C 0.91063 0.856 0.06814 0.0
C118 C 0.91238 0.79886 0.15136 0.0
O119 O 0.91021 0.82191 0.06271 0.0
C120 C 0.85919 0.72394 0.10656 0.0
O121 O 0.96301 0.81333 0.09567 0.0
O122 O 0.9355 0.76155 0.08384 0.0
O123 O 0.87392 0.79989 0.14843 0.0
O124 O 0.93618 0.80785 0.13563 0.0
C125 C 0.80499 0.79443 0.07934 0.0
O126 O 0.86328 0.73764 0.08691 0.0
O127 O 0.85853 0.74471 0.12361 0.0
C128 C 0.96669 0.78091 0.08747 0.0
O129 O 0.83782 0.8008 0.06908 0.0
O130 O 0.80551 0.78368 0.09977 0.0
C131 C 0.84738 0.86778 0.12661 0.0
Fe132 Fe 0.08395 0.83564 0.41344 0.0
Fe133 Fe 0.12387 0.77583 0.44314 0.0
O134 O 0.12442 0.80371 0.4185 0.0
Fe135 Fe 0.16587 0.8004 0.39929 0.0
O136 O 0.16551 0.84967 0.39158 0.0
O137 O 0.11902 0.87446 0.4136 0.0
O138 O 0.07466 0.84565 0.44308 0.0
C139 C 0.09813 0.84289 0.45983 0.0
C140 C 0.10088 0.80676 0.37004 0.0
O141 O 0.12402 0.81691 0.46129 0.0
C142 C 0.15137 0.72539 0.41215 0.0
O143 O 0.04556 0.79924 0.41357 0.0
O144 O 0.06844 0.77235 0.44441 0.0
O145 O 0.13191 0.78837 0.37608 0.0
O146 O 0.0859 0.83151 0.38271 0.0
C147 C 0.20727 0.79416 0.4393 0.0
O148 O 0.12433 0.73319 0.42666 0.0
O149 O 0.17352 0.75052 0.40364 0.0
C150 C 0.04057 0.77733 0.42998 0.0
O151 O 0.179 0.7737 0.44645 0.0
O152 O 0.20325 0.81211 0.42113 0.0
C153 C 0.1511 0.87735 0.40202 0.0
Fe154 Fe 0.38972 0.72725 0.94168 0.0
Fe155 Fe 0.3444 0.71611 0.89696 0.0
O156 O 0.38532 0.70512 0.91527 0.0
Fe157 Fe 0.42178 0.67146 0.90734 0.0
O158 O 0.40828 0.64263 0.9309 0.0
O159 O 0.41302 0.68673 0.95619 0.0
O160 O 0.34109 0.70965 0.95054 0.0
C161 C 0.30783 0.71616 0.94069 0.0
C162 C 0.46946 0.72561 0.9306 0.0
O163 O 0.30727 0.72552 0.91999 0.0
C164 C 0.41302 0.70834 0.86766 0.0
O165 O 0.36681 0.77149 0.93208 0.0
O166 O 0.35959 0.7642 0.89552 0.0
O167 O 0.46447 0.69299 0.92302 0.0
O168 O 0.43897 0.74607 0.93432 0.0
C169 C 0.34749 0.64066 0.89286 0.0
O170 O 0.37454 0.7086 0.87079 0.0
O171 O 0.43688 0.69855 0.88325 0.0
C172 C 0.36166 0.78506 0.91251 0.0
O173 O 0.32638 0.66884 0.89755 0.0
O174 O 0.38588 0.64323 0.89071 0.0
C175 C 0.41167 0.65254 0.95111 0.0
H176 H 0.13009 0.94288 0.42252 0.0
H177 H 0.16891 1.00064 0.423 0.0
H178 H 0.25997 0.95134 0.37982 0.0
H179 H 0.22172 0.89332 0.37943 0.0
H180 H 0.29276 0.98736 0.41748 0.0
H181 H 0.18175 0.0774 0.3724 0.0
H182 H 0.1608 0.0531 0.39614 0.0
H183 H 0.17856 0.02744 0.37208 0.0
C184 C 0.15812 0.9444 0.4129 0.0
C185 C 0.17263 0.91344 0.40083 0.0
C186 C 0.18023 0.9775 0.41315 0.0
C187 C 0.21712 0.9804 0.40125 0.0
C188 C 0.23151 0.94972 0.38906 0.0
H189 H 0.34422 0.18643 0.37416 0.0
H190 H 0.31335 0.12512 0.37117 0.0
C191 C 0.20946 0.91662 0.38878 0.0
C192 C 0.24142 0.015 0.40212 0.0
H193 H 0.23801 0.1074 0.38971 0.0
C194 C 0.2809 0.0136 0.41133 0.0
C195 C 0.22604 0.04909 0.39385 0.0
C196 C 0.18462 0.05196 0.38286 0.0
C197 C 0.30513 0.04557 0.41288 0.0
C198 C 0.28925 0.07986 0.40524 0.0
C199 C 0.25006 0.08111 0.39567 0.0
C200 C 0.31245 0.11498 0.40711 0.0
C201 C 0.34765 0.04231 0.42243 0.0
C202 C 0.323 0.12935 0.42831 0.0
C203 C 0.34081 0.16444 0.4301 0.0
C204 C 0.34806 0.18597 0.41072 0.0
C205 C 0.33901 0.17074 0.38946 0.0
C206 C 0.32124 0.1357 0.3877 0.0
H207 H 0.359 0.01324 0.42198 0.0
H208 H 0.3693 0.06015 0.41301 0.0
H209 H 0.34737 0.05152 0.44028 0.0
H210 H 0.31593 0.1141 0.44354 0.0
H211 H 0.34717 0.17532 0.44675 0.0
H212 H 0.15403 0.32804 0.87484 0.0
H213 H 0.18377 0.38968 0.87034 0.0
H214 H 0.2148 0.39125 0.941 0.0
H215 H 0.1839 0.33012 0.94579 0.0
H216 H 0.18882 0.45775 0.92765 0.0
H217 H 0.30459 0.40691 0.86693 0.0
H218 H 0.25336 0.39879 0.85758 0.0
H219 H 0.27204 0.376 0.88257 0.0
C220 C 0.16674 0.34171 0.88949 0.0
C221 C 0.16685 0.32401 0.91064 0.0
C222 C 0.18411 0.37681 0.88684 0.0
C223 C 0.20269 0.39467 0.90518 0.0
C224 C 0.20102 0.37789 0.92654 0.0
H225 H 0.38194 0.57176 0.89723 0.0
H226 H 0.34647 0.51226 0.89983 0.0
C227 C 0.18318 0.34296 0.92928 0.0
C228 C 0.22449 0.43047 0.90206 0.0
H229 H 0.3005 0.4722 0.87191 0.0
C230 C 0.21327 0.46089 0.91548 0.0
C231 C 0.25704 0.43442 0.88651 0.0
C232 C 0.2728 0.4022 0.87275 0.0
C233 C 0.23323 0.49518 0.91361 0.0
C234 C 0.26453 0.49959 0.89734 0.0
C235 C 0.27613 0.46903 0.88413 0.0
C236 C 0.28625 0.53541 0.89418 0.0
C237 C 0.22127 0.52597 0.92955 0.0
C238 C 0.26448 0.56808 0.88935 0.0
C239 C 0.28463 0.60212 0.88806 0.0
C240 C 0.32714 0.60413 0.89108 0.0
C241 C 0.34922 0.57113 0.89467 0.0
C242 C 0.32894 0.53712 0.89626 0.0
H243 H 0.20627 0.51501 0.94496 0.0
H244 H 0.24822 0.54248 0.93472 0.0
H245 H 0.19923 0.54473 0.92102 0.0
H246 H 0.23174 0.56737 0.88696 0.0
H247 H 0.26676 0.62699 0.88511 0.0
H248 H 0.62742 0.57139 0.63054 0.0
H249 H 0.66124 0.5105 0.62982 0.0
H250 H 0.77536 0.56303 0.61323 0.0
H251 H 0.74254 0.62343 0.61459 0.0
H252 H 0.69872 0.47596 0.5953 0.0
H253 H 0.81096 0.49653 0.66365 0.0
H254 H 0.76857 0.52776 0.65921 0.0
H255 H 0.8145 0.53229 0.64276 0.0
C256 C 0.65987 0.56996 0.62717 0.0
C257 C 0.68228 0.6024 0.62289 0.0
C258 C 0.67912 0.53516 0.62665 0.0
C259 C 0.72105 0.53221 0.62188 0.0
C260 C 0.74331 0.56456 0.61761 0.0
H261 H 0.84477 0.33447 0.57029 0.0
H262 H 0.81322 0.39581 0.5745 0.0
C263 C 0.72431 0.5992 0.6183 0.0
C264 C 0.74144 0.49541 0.62017 0.0
H265 H 0.82458 0.44636 0.63825 0.0
C266 C 0.72602 0.46932 0.60485 0.0
C267 C 0.77684 0.48655 0.63279 0.0
C268 C 0.79342 0.51213 0.65069 0.0
C269 C 0.74548 0.43496 0.60146 0.0
C270 C 0.78209 0.42691 0.61324 0.0
C271 C 0.79699 0.45274 0.6289 0.0
C272 C 0.80422 0.39108 0.61056 0.0
C273 C 0.72607 0.40738 0.58567 0.0
C274 C 0.81185 0.36893 0.62955 0.0
C275 C 0.83066 0.33435 0.62727 0.0
C276 C 0.84209 0.32089 0.60589 0.0
C277 C 0.8361 0.34382 0.58697 0.0
C278 C 0.8176 0.37872 0.58932 0.0
H279 H 0.6931 0.41335 0.58311 0.0
H280 H 0.74127 0.40899 0.56898 0.0
H281 H 0.72933 0.37862 0.59214 0.0
H282 H 0.80219 0.37793 0.64614 0.0
H283 H 0.8349 0.31764 0.64228 0.0
H284 H 0.66483 0.17034 0.07336 0.0
H285 H 0.6936 0.10807 0.07843 0.0
H286 H 0.70771 0.12892 0.1496 0.0
H287 H 0.67784 0.19018 0.14491 0.0
H288 H 0.76872 0.0906 0.09237 0.0
H289 H 0.65746 0.02828 0.15121 0.0
H290 H 0.64722 0.07096 0.13635 0.0
H291 H 0.6772 0.07113 0.16182 0.0
C292 C 0.67325 0.16134 0.09016 0.0
C293 C 0.66893 0.18529 0.10871 0.0
C294 C 0.68986 0.12582 0.09301 0.0
C295 C 0.7024 0.11365 0.11444 0.0
C296 C 0.69735 0.13725 0.13301 0.0
H297 H 0.88176 0.93581 0.13558 0.0
H298 H 0.84763 0.99646 0.13415 0.0
C299 C 0.68041 0.17248 0.13023 0.0
C300 C 0.72321 0.07734 0.11727 0.0
H301 H 0.72191 0.99738 0.14805 0.0
C302 C 0.75832 0.07006 0.10441 0.0
C303 C 0.70948 0.05048 0.1329 0.0
C304 C 0.67054 0.05543 0.14617 0.0
C305 C 0.78026 0.03678 0.10686 0.0
C306 C 0.76743 0.01058 0.12313 0.0
C307 C 0.73215 0.01777 0.13587 0.0
C308 C 0.78813 0.97422 0.12598 0.0
C309 C 0.81624 0.02966 0.09155 0.0
C310 C 0.76566 0.94162 0.12302 0.0
C311 C 0.78478 0.90713 0.12429 0.0
C312 C 0.82698 0.90436 0.12845 0.0
C313 C 0.84927 0.93699 0.13229 0.0
C314 C 0.8299 0.97166 0.13122 0.0
H315 H 0.81545 0.04776 0.07638 0.0
H316 H 0.84488 0.03557 0.10082 0.0
H317 H 0.81712 1.0003 0.08594 0.0
H318 H 0.7334 0.94286 0.11906 0.0
H319 H 0.76653 0.88266 0.12124 0.0
H320 H 0.7654 0.12367 0.62156 0.0
H321 H 0.73249 0.06351 0.62122 0.0
H322 H 0.84801 0.01019 0.63469 0.0
H323 H 0.88182 0.07076 0.63437 0.0
H324 H 0.80887 0.97763 0.6004 0.0
H325 H 0.70059 0.99462 0.67107 0.0
H326 H 0.69535 0.03145 0.65096 0.0
H327 H 0.74236 0.02616 0.66642 0.0
C328 C 0.78391 0.0993 0.62485 0.0
C329 C 0.82634 0.10213 0.6281 0.0
C330 C 0.76487 0.06484 0.62478 0.0
C331 C 0.78759 0.03235 0.62833 0.0
C332 C 0.82984 0.03498 0.63208 0.0
H333 H 0.67603 0.8165 0.6446 0.0
H334 H 0.70844 0.87639 0.65006 0.0
C335 C 0.84908 0.0696 0.632 0.0
C336 C 0.76745 0.99572 0.62639 0.0
H337 H 0.68535 0.9461 0.64466 0.0
C338 C 0.78213 0.97053 0.61026 0.0
C339 C 0.73279 0.98632 0.6394 0.0
C340 C 0.71714 0.01093 0.65809 0.0
C341 C 0.76252 0.9366 0.60638 0.0
C342 C 0.72651 0.92814 0.6185 0.0
C343 C 0.71246 0.95292 0.63504 0.0
C344 C 0.70408 0.89293 0.61507 0.0
C345 C 0.78107 0.90993 0.58962 0.0
C346 C 0.68944 0.88277 0.59368 0.0
C347 C 0.67114 0.84818 0.5904 0.0
C348 C 0.66665 0.8234 0.60855 0.0
C349 C 0.67917 0.83471 0.63018 0.0
C350 C 0.69778 0.86901 0.63337 0.0
H351 H 0.81393 0.91576 0.58675 0.0
H352 H 0.778 0.88079 0.59542 0.0
H353 H 0.76508 0.91282 0.57322 0.0
H354 H 0.69284 0.90129 0.57944 0.0
H355 H 0.66153 0.8405 0.57358 0.0
H356 H 0.8494 0.67032 0.07404 0.0
H357 H 0.8188 0.60894 0.07889 0.0
H358 H 0.8066 0.62896 0.15026 0.0
H359 H 0.8384 0.68927 0.14579 0.0
H360 H 0.82957 0.56021 0.14318 0.0
H361 H 0.6985 0.59265 0.08734 0.0
H362 H 0.7468 0.59644 0.07332 0.0
H363 H 0.73456 0.62739 0.09616 0.0
C364 C 0.84071 0.66141 0.0908 0.0
C365 C 0.84598 0.68495 0.10946 0.0
C366 C 0.82279 0.6265 0.09351 0.0
C367 C 0.80928 0.6148 0.11485 0.0
C368 C 0.81637 0.63749 0.1336 0.0
H369 H 0.6324 0.43643 0.1348 0.0
H370 H 0.66635 0.49696 0.13457 0.0
C371 C 0.83463 0.67207 0.13098 0.0
C372 C 0.78727 0.57922 0.11783 0.0
H373 H 0.70415 0.53035 0.10015 0.0
C374 C 0.80207 0.55376 0.13381 0.0
C375 C 0.75076 0.57118 0.10605 0.0
C376 C 0.73144 0.5985 0.08994 0.0
C377 C 0.7819 0.52021 0.13801 0.0
C378 C 0.74665 0.5113 0.12536 0.0
C379 C 0.73134 0.53707 0.10973 0.0
C380 C 0.72638 0.47471 0.12728 0.0
C381 C 0.79829 0.495 0.15624 0.0
C382 C 0.74881 0.44219 0.12333 0.0
C383 C 0.72972 0.40775 0.12375 0.0
C384 C 0.68749 0.40498 0.12774 0.0
C385 C 0.665 0.43756 0.13188 0.0
C386 C 0.68432 0.47215 0.13164 0.0
H387 H 0.81548 0.51086 0.16916 0.0
H388 H 0.7734 0.4796 0.16475 0.0
H389 H 0.81969 0.47464 0.14862 0.0
H390 H 0.78099 0.44346 0.11927 0.0
H391 H 0.74801 0.38336 0.12019 0.0
H392 H 0.37538 0.43887 0.39021 0.0
H393 H 0.33866 0.49819 0.39177 0.0
H394 H 0.22388 0.44026 0.39036 0.0
H395 H 0.26012 0.38101 0.38866 0.0
H396 H 0.22638 0.50421 0.36222 0.0
H397 H 0.27855 0.5332 0.44956 0.0
H398 H 0.31864 0.5237 0.42968 0.0
H399 H 0.28291 0.48792 0.4368 0.0
C400 C 0.34234 0.43877 0.38985 0.0
C401 C 0.32073 0.40515 0.38935 0.0
C402 C 0.3214 0.47267 0.39096 0.0
C403 C 0.27855 0.47356 0.39157 0.0
C404 C 0.25694 0.44019 0.39004 0.0
H405 H 0.13119 0.66285 0.43633 0.0
H406 H 0.15783 0.59978 0.43071 0.0
C407 C 0.27777 0.40633 0.38906 0.0
C408 C 0.2561 0.50908 0.39444 0.0
H409 H 0.24152 0.58097 0.43108 0.0
C410 C 0.2296 0.52098 0.37728 0.0
C411 C 0.25973 0.53052 0.41431 0.0
C412 C 0.28618 0.51815 0.43376 0.0
C413 C 0.20749 0.55432 0.37919 0.0
C414 C 0.21228 0.57645 0.3987 0.0
C415 C 0.23796 0.56403 0.41611 0.0
C416 C 0.19274 0.6135 0.4009 0.0
C417 C 0.17903 0.5655 0.36036 0.0
C418 C 0.20317 0.64197 0.3859 0.0
C419 C 0.1881 0.67786 0.38906 0.0
C420 C 0.16234 0.6862 0.40738 0.0
C421 C 0.15074 0.65735 0.42199 0.0
C422 C 0.16609 0.62136 0.41886 0.0
H423 H 0.16996 0.54127 0.34997 0.0
H424 H 0.15108 0.57905 0.36707 0.0
H425 H 0.19476 0.58555 0.34917 0.0
H426 H 0.22418 0.63675 0.37215 0.0
H427 H 0.19765 0.69936 0.37747 0.0
H428 H 0.1341 0.07254 0.89521 0.0
H429 H 0.16994 0.01298 0.89764 0.0
H430 H 0.2839 0.06756 0.88323 0.0
H431 H 0.24851 0.12728 0.88158 0.0
H432 H 0.21539 0.97219 0.86968 0.0
H433 H 0.31115 0.0168 0.9416 0.0
H434 H 0.26873 0.04404 0.93141 0.0
H435 H 0.31733 0.04582 0.91729 0.0
C436 C 0.1667 0.07177 0.89223 0.0
C437 C 0.18851 0.10465 0.88833 0.0
C438 C 0.1872 0.03772 0.89373 0.0
C439 C 0.22981 0.03589 0.89122 0.0
C440 C 0.25124 0.0684 0.88596 0.0
H441 H 0.36157 0.8267 0.87397 0.0
H442 H 0.33211 0.8885 0.86863 0.0
C443 C 0.23089 0.10248 0.88479 0.0
C444 C 0.25184 1.00016 0.89455 0.0
H445 H 0.32822 0.95891 0.92491 0.0
C446 C 0.24003 0.96927 0.88177 0.0
C447 C 0.28348 0.99612 0.91068 0.0
C448 C 0.29566 0.02734 0.9262 0.0
C449 C 0.2592 0.93463 0.88447 0.0
C450 C 0.29203 0.93101 0.89989 0.0
C451 C 0.30353 0.9618 0.91284 0.0
C452 C 0.31373 0.89516 0.90345 0.0
C453 C 0.24317 0.90204 0.87123 0.0
C454 C 0.31561 0.8793 0.92507 0.0
C455 C 0.33331 0.84432 0.92828 0.0
C456 C 0.34923 0.8244 0.90988 0.0
C457 C 0.34915 0.84115 0.88845 0.0
C458 C 0.33195 0.87633 0.88533 0.0
H459 H 0.21131 0.90682 0.86548 0.0
H460 H 0.2624 0.89786 0.85605 0.0
H461 H 0.24401 0.87622 0.88143 0.0
H462 H 0.3021 0.89343 0.93937 0.0
H463 H 0.33276 0.8322 0.94499 0.0
H464 H 0.45915 0.35431 0.48584 0.0
H465 H 0.49073 0.40632 0.50591 0.0
H466 H 0.41602 0.48329 0.4683 0.0
H467 H 0.38422 0.43172 0.44846 0.0
H468 H 0.5346 0.46074 0.4818 0.0
H469 H 0.41063 0.52492 0.53237 0.0
H470 H 0.40779 0.47805 0.52178 0.0
H471 H 0.39731 0.51664 0.50345 0.0
C472 C 0.44843 0.38224 0.48251 0.0
C473 C 0.41929 0.38906 0.46563 0.0
C474 C 0.46671 0.4119 0.49381 0.0
C475 C 0.45558 0.44859 0.48862 0.0
C476 C 0.42461 0.45521 0.47281 0.0
H477 H 0.5479 0.66575 0.52721 0.0
H478 H 0.51574 0.61577 0.50549 0.0
C479 C 0.40657 0.42571 0.46145 0.0
C480 C 0.47931 0.48006 0.49763 0.0
H481 H 0.4709 0.56057 0.52744 0.0
C482 C 0.52079 0.48246 0.49192 0.0
C483 C 0.46098 0.50858 0.51048 0.0
C484 C 0.41681 0.50689 0.51757 0.0
C485 C 0.54446 0.51282 0.49864 0.0
C486 C 0.52623 0.5412 0.51166 0.0
C487 C 0.48466 0.53894 0.51722 0.0
C488 C 0.55037 0.57177 0.52147 0.0
C489 C 0.5886 0.51447 0.4915 0.0
C490 C 0.58122 0.56357 0.53708 0.0
C491 C 0.59954 0.59188 0.54935 0.0
C492 C 0.58725 0.62893 0.54632 0.0
C493 C 0.55828 0.63747 0.52964 0.0
C494 C 0.53969 0.60897 0.5174 0.0
H495 H 0.59427 0.49756 0.47616 0.0
H496 H 0.59819 0.54345 0.48812 0.0
H497 H 0.60802 0.50318 0.50523 0.0
H498 H 0.58943 0.53508 0.54077 0.0
H499 H 0.62173 0.58457 0.56218 0.0
H500 H 0.95605 0.84755 0.02956 0.0
H501 H 0.98895 0.8973 1.00799 0.0
H502 H 0.92873 0.97906 0.04948 0.0
H503 H 0.89541 0.92982 0.07074 0.0
H504 H 0.93227 0.99908 1.00418 0.0
H505 H 0.08397 0.95448 0.0366 0.0
H506 H 0.05602 0.91962 0.02154 0.0
H507 H 0.03675 0.93683 0.0479 0.0
C508 C 0.94899 0.87614 0.03364 0.0
C509 C 0.92346 0.88483 0.05194 0.0
C510 C 0.96819 0.9045 0.02152 0.0
C511 C 0.96204 0.9418 0.02755 0.0
C512 C 0.93421 0.95047 0.0447 0.0
H513 H 0.05836 0.15765 0.98776 0.0
H514 H 0.02562 0.10711 1.0087 0.0
C515 C 0.91518 0.92228 0.05682 0.0
C516 C 0.98605 0.97195 0.01703 0.0
H517 H 0.08287 0.00565 0.01174 0.0
C518 C 0.96519 1.00055 1.0058 0.0
C519 C 0.02899 0.97389 0.01938 0.0
C520 C 0.05285 0.94479 0.03216 0.0
C521 C 0.98616 0.03078 0.9965 0.0
C522 C 0.02907 0.0328 0.99893 0.0
C523 C 0.04996 1.00414 0.01009 0.0
C524 C 0.05298 0.06333 0.98875 0.0
C525 C 0.96231 0.05986 0.98369 0.0
C526 C 0.08098 0.0553 0.97157 0.0
C527 C 0.09993 0.08395 0.95981 0.0
C528 C 0.09138 0.12122 0.96506 0.0
C529 C 0.06563 0.12922 0.98338 0.0
C530 C 0.04653 0.10042 0.99515 0.0
H531 H 0.93134 0.05001 0.97907 0.0
H532 H 0.95878 0.0849 0.99439 0.0
H533 H 0.97861 0.06806 0.96806 0.0
H534 H 0.08669 0.02688 0.96652 0.0
H535 H 0.11988 0.07691 0.94586 0.0
H536 H 0.89075 0.07623 0.56659 0.0
H537 H 0.92709 0.02589 0.54761 0.0
H538 H 1.00184 0.10561 0.51272 0.0
H539 H 0.96542 0.15641 0.53181 0.0
H540 H 0.9423 0.00935 0.50098 0.0
H541 H 0.08398 0.04017 0.54917 0.0
H542 H 0.03489 0.05908 0.55701 0.0
H543 H 0.06187 0.0777 0.53326 0.0
C544 C 0.91425 0.08308 0.55444 0.0
C545 C 0.92524 0.12021 0.55064 0.0
C546 C 0.9351 0.0543 0.54369 0.0
C547 C 0.96767 0.062 0.52913 0.0
C548 C 0.97716 0.09911 0.52419 0.0
H549 H 0.13443 0.90954 0.46238 0.0
H550 H 0.10529 0.96407 0.48117 0.0
C551 C 0.95597 0.12809 0.53483 0.0
C552 C 0.99255 0.03086 0.52019 0.0
H553 H 0.08577 0.98854 0.52484 0.0
C554 C 0.97372 0.00486 0.5061 0.0
C555 C 0.03354 0.0251 0.52695 0.0
C556 C 0.05488 0.05176 0.54255 0.0
C557 C 0.99471 0.97322 0.49854 0.0
C558 C 0.03533 0.96683 0.50583 0.0
C559 C 0.0545 0.99324 0.51955 0.0
C560 C 0.05844 0.9333 0.49871 0.0
C561 C 0.97331 0.94722 0.48252 0.0
C562 C 0.04356 0.89767 0.50355 0.0
C563 C 0.0603 0.86654 0.49288 0.0
C564 C 0.0927 0.87059 0.47765 0.0
C565 C 0.11013 0.90572 0.47454 0.0
C566 C 0.0932 0.93689 0.48507 0.0
H567 H 0.94701 0.9609 0.47404 0.0
H568 H 0.9946 0.93677 0.4694 0.0
H569 H 0.96148 0.9231 0.4921 0.0
H570 H 0.01722 0.89422 0.51437 0.0
H571 H 0.04573 0.83985 0.49504 0.0
H572 H 0.39008 0.58021 0.95056 0.0
H573 H 0.42272 0.52952 0.97118 0.0
H574 H 0.49589 0.60839 1.00776 0.0
H575 H 0.46284 0.65945 0.98732 0.0
H576 H 0.50613 0.51703 0.96736 0.0
H577 H 0.46072 0.53516 0.05691 0.0
H578 H 0.43327 0.55671 0.03394 0.0
H579 H 0.48048 0.57616 0.04367 0.0
C580 C 0.41227 0.5868 0.96349 0.0
C581 C 0.424 0.6237 0.96737 0.0
C582 C 0.43098 0.55783 0.97516 0.0
C583 C 0.46172 0.56521 0.99094 0.0
C584 C 0.47178 0.60216 0.99587 0.0
H585 H 0.62884 0.42866 0.0667 0.0
H586 H 0.59656 0.4793 0.04586 0.0
C587 C 0.45282 0.63131 0.98426 0.0
C588 C 0.48592 0.53414 1.00035 0.0
H589 H 0.5135 0.49168 0.04942 0.0
C590 C 0.50763 0.51133 0.9853 0.0
C591 C 0.48789 0.52696 0.02372 0.0
C592 C 0.4641 0.5498 0.04053 0.0
C593 C 0.53177 0.48174 0.99306 0.0
C594 C 0.53375 0.47458 0.01643 0.0
C595 C 0.51202 0.49738 0.03147 0.0
C596 C 0.55801 0.44355 0.02587 0.0
C597 C 0.55557 0.45893 0.97624 0.0
C598 C 0.54814 0.40657 0.02086 0.0
C599 C 0.56697 0.37746 0.03258 0.0
C600 C 0.5954 0.38513 0.04965 0.0
C601 C 0.60698 0.42204 0.0536 0.0
C602 C 0.58846 0.45098 0.04181 0.0
H603 H 0.55907 0.47364 0.9599 0.0
H604 H 0.58634 0.45189 0.98286 0.0
H605 H 0.53909 0.43264 0.97302 0.0
H606 H 0.52424 0.40029 1.00886 0.0
H607 H 0.55705 0.3493 0.02947 0.0
H608 H 0.63892 0.29286 0.19059 0.0
H609 H 0.60614 0.28652 0.22759 0.0
H610 H 0.48789 0.28662 0.19572 0.0
H611 H 0.52008 0.29247 0.1589 0.0
H612 H 0.55088 0.33725 0.24624 0.0
H613 H 0.47951 0.19863 0.23875 0.0
H614 H 0.51939 0.21415 0.22001 0.0
H615 H 0.46761 0.22937 0.21583 0.0
C616 C 0.60599 0.29097 0.19144 0.0
C617 C 0.58219 0.29328 0.17175 0.0
C618 C 0.58729 0.28741 0.21259 0.0
C619 C 0.54457 0.28561 0.2144 0.0
C620 C 0.52089 0.28717 0.19474 0.0
H621 H 0.37042 0.29626 0.32586 0.0
H622 H 0.40256 0.29096 0.28852 0.0
C623 C 0.53944 0.29082 0.17367 0.0
C624 C 0.52446 0.28496 0.23683 0.0
H625 H 0.45763 0.23616 0.26959 0.0
C626 C 0.53079 0.31498 0.25142 0.0
C627 C 0.49784 0.2561 0.24346 0.0
C628 C 0.49089 0.22255 0.22879 0.0
C629 C 0.5108 0.31725 0.27231 0.0
C630 C 0.4843 0.28834 0.27899 0.0
C631 C 0.47785 0.25832 0.2644 0.0
C632 C 0.46428 0.28845 0.30143 0.0
C633 C 0.51759 0.35099 0.28686 0.0
C634 C 0.48821 0.28752 0.32099 0.0
C635 C 0.47009 0.2906 0.34218 0.0
C636 C 0.42749 0.29443 0.34436 0.0
C637 C 0.40328 0.29349 0.32478 0.0
C638 C 0.42159 0.29051 0.30345 0.0
H639 H 0.52968 0.37467 0.27694 0.0
H640 H 0.48882 0.35983 0.29521 0.0
H641 H 0.54019 0.34415 0.30018 0.0
H642 H 0.52111 0.2851 0.31985 0.0
H643 H 0.4897 0.29062 0.35689 0.0
H644 H 0.14139 0.21829 0.8259 0.0
H645 H 0.10967 0.22497 0.78859 0.0
H646 H 0.99047 0.22436 0.81933 0.0
H647 H 0.02156 0.21829 0.85641 0.0
H648 H 0.05614 0.17465 0.76903 0.0
H649 H 0.98134 0.31216 0.77659 0.0
H650 H 0.02071 0.29671 0.79577 0.0
H651 H 0.96898 0.28121 0.79927 0.0
C652 C 0.10847 0.22021 0.82473 0.0
C653 C 0.08409 0.21766 0.84419 0.0
C654 C 0.09037 0.22394 0.8034 0.0
C655 C 0.04768 0.22567 0.80118 0.0
C656 C 0.02344 0.22392 0.82061 0.0
H657 H 0.8732 0.21255 0.69033 0.0
H658 H 0.90614 0.21836 0.72741 0.0
C659 C 0.04138 0.22011 0.84184 0.0
C660 C 0.02811 0.22638 0.77856 0.0
H661 H 0.95975 0.27411 0.74587 0.0
C662 C 0.03543 0.19661 0.76387 0.0
C663 C 1.00067 0.25483 0.77194 0.0
C664 C 0.9927 0.28822 0.78663 0.0
C665 C 0.01549 0.19409 0.74297 0.0
C666 C 0.98798 0.22247 0.73637 0.0
C667 C 0.98071 0.25233 0.751 0.0
C668 C 0.96745 0.22187 0.71404 0.0
C669 C 0.02331 0.16055 0.72836 0.0
C670 C 0.99083 0.22314 0.69428 0.0
C671 C 0.97224 0.21979 0.67322 0.0
C672 C 0.92968 0.21532 0.67136 0.0
C673 C 0.906 0.21582 0.69115 0.0
C674 C 0.92478 0.2191 0.71233 0.0
H675 H 0.03644 0.13714 0.73819 0.0
H676 H 0.99474 0.15106 0.72015 0.0
H677 H 0.04541 0.16794 0.71493 0.0
H678 H 0.02367 0.22611 0.69517 0.0
H679 H 0.99145 0.22008 0.65836 0.0
H680 H 0.49348 0.71509 0.85675 0.0
H681 H 0.52381 0.72046 0.81945 0.0
H682 H 0.40397 0.72181 0.78945 0.0
H683 H 0.37303 0.71588 0.82699 0.0
H684 H 0.45744 0.67103 0.76956 0.0
H685 H 0.53151 0.80841 0.77665 0.0
H686 H 0.54435 0.77739 0.79926 0.0
H687 H 0.49252 0.79311 0.796 0.0
C688 C 0.47336 0.71689 0.84229 0.0
C689 C 0.43069 0.71493 0.84493 0.0
C690 C 0.49087 0.72028 0.82094 0.0
C691 C 0.46623 0.72208 0.80165 0.0
C692 C 0.42358 0.72073 0.80414 0.0
H693 H 0.51811 0.71766 0.65836 0.0
H694 H 0.48705 0.72247 0.69552 0.0
C695 C 0.40593 0.71742 0.8256 0.0
C696 C 0.48531 0.72272 0.7789 0.0
H697 H 0.55228 0.77053 0.74566 0.0
C698 C 0.47784 0.69298 0.76425 0.0
C699 C 0.51232 0.75116 0.77207 0.0
C700 C 0.52042 0.78451 0.78673 0.0
C701 C 0.49719 0.69051 0.74317 0.0
C702 C 0.52424 0.71892 0.73634 0.0
C703 C 0.53169 0.74872 0.75095 0.0
C704 C 0.54399 0.71851 0.71379 0.0
C705 C 0.48923 0.65703 0.72858 0.0
C706 C 0.58665 0.7162 0.71161 0.0
C707 C 0.60477 0.71361 0.69022 0.0
C708 C 0.58045 0.71338 0.67066 0.0
C709 C 0.53785 0.7172 0.673 0.0
C710 C 0.51991 0.71984 0.69428 0.0
H711 H 0.4768 0.63353 0.73854 0.0
H712 H 0.46649 0.66441 0.71545 0.0
H713 H 0.51758 0.64767 0.72001 0.0
H714 H 0.60583 0.71545 0.72648 0.0
H715 H 0.63762 0.71086 0.68903 0.0
H716 H 0.99068 0.77938 0.16138 0.0
H717 H 0.02223 0.77375 0.19849 0.0
H718 H 0.90681 0.79944 0.22989 0.0
H719 H 0.87467 0.80394 0.19268 0.0
H720 H 0.03164 0.82623 0.22881 0.0
H721 H 0.94214 0.71312 0.26774 0.0
H722 H 0.93956 0.72341 0.238 0.0
H723 H 0.91048 0.75042 0.25788 0.0
C724 C 0.9718 0.7833 0.17619 0.0
C725 C 0.9301 0.79212 0.17405 0.0
C726 C 0.98994 0.7801 0.19743 0.0
C727 C 0.96694 0.78577 0.2171 0.0
C728 C 0.92508 0.79399 0.21505 0.0
H729 H 0.02732 0.83241 0.35511 0.0
H730 H 0.99657 0.82462 0.31795 0.0
C731 C 0.90674 0.79676 0.19374 0.0
C732 C 0.98758 0.78563 0.23951 0.0
H733 H 0.98385 0.74892 0.29268 0.0
C734 C 0.02142 0.80895 0.24266 0.0
C735 C 0.97441 0.76308 0.25766 0.0
C736 C 0.93992 0.73582 0.25512 0.0
C737 C 0.04168 0.81099 0.26349 0.0
C738 C 0.02784 0.78919 0.28171 0.0
C739 C 0.99437 0.76559 0.27862 0.0
C740 C 0.04646 0.79224 0.30442 0.0
C741 C 0.07714 0.83716 0.26618 0.0
C742 C 0.08467 0.77627 0.30918 0.0
C743 C 0.10243 0.78049 0.33056 0.0
C744 C 0.08237 0.80108 0.34742 0.0
C745 C 0.04387 0.81665 0.34252 0.0
C746 C 0.02608 0.81212 0.3213 0.0
H747 H 0.08197 0.85456 0.25095 0.0
H748 H 0.07201 0.8556 0.2809 0.0
H749 H 0.10541 0.82096 0.26944 0.0
H750 H 0.10081 0.76073 0.29633 0.0
H751 H 0.13202 0.76807 0.33376 0.0
H752 H 0.49401 0.21812 0.44194 0.0
H753 H 0.55229 0.20361 0.46617 0.0
H754 H 0.58699 0.31881 0.46606 0.0
H755 H 0.52918 0.33351 0.44147 0.0
H756 H 0.65333 0.27177 0.4639 0.0
H757 H 0.54921 0.22992 0.53299 0.0
H758 H 0.54151 0.20442 0.50738 0.0
H759 H 0.53149 0.25349 0.50797 0.0
C760 C 0.5145 0.24027 0.44671 0.0
C761 C 0.50675 0.27702 0.43991 0.0
C762 C 0.54755 0.23198 0.46074 0.0
C763 C 0.57322 0.2603 0.46847 0.0
C764 C 0.56728 0.29659 0.46048 0.0
H765 H 0.73372 0.25097 0.5859 0.0
H766 H 0.67689 0.2628 0.55989 0.0
C767 C 0.53435 0.3049 0.44629 0.0
C768 C 0.60524 0.25232 0.48553 0.0
H769 H 0.6199 0.21819 0.53872 0.0
C770 C 0.64604 0.26011 0.48026 0.0
C771 C 0.59556 0.23788 0.50709 0.0
C772 C 0.55204 0.23127 0.51434 0.0
C773 C 0.67754 0.25299 0.49575 0.0
C774 C 0.66805 0.23691 0.5169 0.0
C775 C 0.62716 0.23 0.52239 0.0
C776 C 0.70027 0.22716 0.53349 0.0
C777 C 0.72063 0.26334 0.48943 0.0
C778 C 0.73123 0.20198 0.52767 0.0
C779 C 0.76363 0.19526 0.54242 0.0
C780 C 0.76551 0.21324 0.56343 0.0
C781 C 0.73311 0.23663 0.56987 0.0
C782 C 0.70075 0.24356 0.55498 0.0
H783 H 0.72122 0.2845 0.47581 0.0
H784 H 0.73754 0.27429 0.50421 0.0
H785 H 0.73691 0.23833 0.4832 0.0
H786 H 0.73086 0.18819 0.51146 0.0
H787 H 0.78787 0.17674 0.53706 0.0
H788 H 0.02246 0.29345 0.945 0.0
H789 H 0.96495 0.3073 0.96991 0.0
H790 H 0.9264 0.19328 0.96613 0.0
H791 H 0.98331 0.17931 0.94085 0.0
H792 H 0.86189 0.24174 0.96547 0.0
H793 H 0.96694 0.27537 0.03579 0.0
H794 H 0.97529 0.30291 0.01101 0.0
H795 H 0.98409 0.25366 0.01006 0.0
C796 C 1.0013 0.27147 0.94912 0.0
C797 C 0.00768 0.23521 0.94107 0.0
C798 C 0.9687 0.27935 0.96354 0.0
C799 C 0.94217 0.25107 0.97041 0.0
C800 C 0.9468 0.21544 0.96123 0.0
H801 H 0.78025 0.25287 0.0874 0.0
H802 H 0.83777 0.24261 0.06155 0.0
C803 C 0.97923 0.20756 0.94665 0.0
C804 C 0.9104 0.25832 0.98769 0.0
H805 H 0.8965 0.28799 0.04189 0.0
C806 C 0.86945 0.2518 0.98218 0.0
C807 C 0.92042 0.27063 0.00968 0.0
C808 C 0.96409 0.27571 0.01712 0.0
C809 C 0.83813 0.25812 0.99786 0.0
C810 C 0.84798 0.27214 0.01948 0.0
C811 C 0.889 0.27777 0.02521 0.0
C812 C 0.81592 0.28119 0.03626 0.0
C813 C 0.79481 0.24914 0.99122 0.0
C814 C 0.78575 0.3075 0.03107 0.0
C815 C 0.753 0.31327 0.04568 0.0
C816 C 0.75004 0.2932 0.06595 0.0
C817 C 0.78178 0.26877 0.07193 0.0
C818 C 0.8145 0.26277 0.05714 0.0
H819 H 0.79377 0.22916 0.97698 0.0
H820 H 0.7776 0.2373 1.00564 0.0
H821 H 0.77913 0.27495 0.98574 0.0
H822 H 0.78688 0.32281 0.01536 0.0
H823 H 0.72925 0.33264 0.04075 0.0
H824 H 0.97888 0.28925 0.5624 0.0
H825 H 0.03637 0.30298 0.53799 0.0
H826 H 0.09632 0.20226 0.55948 0.0
H827 H 0.03764 0.18724 0.58331 0.0
H828 H 0.11372 0.31515 0.54281 0.0
H829 H 0.09489 0.18673 0.49267 0.0
H830 H 0.05836 0.20108 0.51368 0.0
H831 H 0.10458 0.17751 0.5219 0.0
C832 C 1.0044 0.27007 0.56218 0.0
C833 C 1.00327 0.23676 0.57456 0.0
C834 C 0.03732 0.27801 0.54814 0.0
C835 C 0.0701 0.25309 0.54632 0.0
C836 C 0.07066 0.22125 0.56 0.0
H837 H 0.30073 0.30353 0.48574 0.0
H838 H 0.24207 0.29501 0.50998 0.0
C839 C 0.03736 0.21296 0.57388 0.0
C840 C 0.10293 0.26038 0.52967 0.0
H841 H 0.1538 0.22289 0.48483 0.0
C842 C 0.12234 0.295 0.53008 0.0
C843 C 0.11341 0.23452 0.51262 0.0
C844 C 0.09142 0.19806 0.50998 0.0
C845 C 0.1525 0.30419 0.5143 0.0
C846 C 0.16472 0.27751 0.49813 0.0
C847 C 0.14467 0.24321 0.49734 0.0
C848 C 0.19981 0.2838 0.48282 0.0
C849 C 0.17043 0.34267 0.51494 0.0
C850 C 0.19601 0.27928 0.45936 0.0
C851 C 0.23003 0.28349 0.44527 0.0
C852 C 0.26835 0.29227 0.45446 0.0
C853 C 0.27171 0.29711 0.47795 0.0
C854 C 0.23802 0.29251 0.49193 0.0
H855 H 0.14848 0.36297 0.52219 0.0
H856 H 0.19793 0.3425 0.52586 0.0
H857 H 0.17936 0.35229 0.49786 0.0
H858 H 0.1668 0.27225 0.45199 0.0
H859 H 0.22645 0.27942 0.42729 0.0
H860 H 0.53681 0.2188 0.06078 0.0
H861 H 0.47981 0.20548 0.03595 0.0
H862 H 0.4181 0.3044 0.05885 0.0
H863 H 0.47634 0.31908 0.08311 0.0
H864 H 0.40315 0.19162 0.04045 0.0
H865 H 0.41785 0.32269 0.99242 0.0
H866 H 0.45491 0.3083 0.01315 0.0
H867 H 0.40812 0.33047 0.02179 0.0
C868 C 0.51104 0.2377 0.06078 0.0
C869 C 0.51153 0.27039 0.07374 0.0
C870 C 0.47838 0.22999 0.04648 0.0
C871 C 0.44516 0.2545 0.04496 0.0
C872 C 0.44407 0.28576 0.05911 0.0
H873 H 0.21477 0.20163 0.9845 0.0
H874 H 0.27371 0.20996 1.00856 0.0
C875 C 0.47713 0.29384 0.07323 0.0
C876 C 0.41229 0.24727 0.02826 0.0
H877 H 0.35954 0.28581 0.98434 0.0
C878 C 0.39379 0.21221 0.02813 0.0
C879 C 0.40079 0.27369 0.01171 0.0
C880 C 0.42175 0.31073 0.00956 0.0
C881 C 0.36359 0.20312 0.01233 0.0
C882 C 0.3503 0.23032 0.99671 0.0
C883 C 0.36944 0.26507 0.99644 0.0
C884 C 0.31504 0.22399 0.98145 0.0
C885 C 0.3468 0.1642 0.01237 0.0
C886 C 0.31814 0.23009 0.95808 0.0
C887 C 0.28391 0.22599 0.9441 0.0
C888 C 0.24604 0.21577 0.95331 0.0
C889 C 0.24341 0.20925 0.97668 0.0
C890 C 0.2773 0.21372 0.99056 0.0
H891 H 0.36953 0.14407 0.01906 0.0
H892 H 0.31961 0.16311 0.02349 0.0
H893 H 0.33771 0.15528 0.99518 0.0
H894 H 0.34695 0.23831 0.9507 0.0
H895 H 0.28696 0.2314 0.92622 0.0
H896 H 0.526 0.80128 0.57075 0.0
H897 H 0.46786 0.82071 0.54778 0.0
H898 H 0.41618 0.71139 0.55369 0.0
H899 H 0.47419 0.69162 0.57675 0.0
H900 H 0.44909 0.78814 0.50628 0.0
H901 H 0.31798 0.77976 0.56501 0.0
H902 H 0.37022 0.78156 0.57465 0.0
H903 H 0.34901 0.73862 0.56477 0.0
C904 C 0.50183 0.78153 0.56762 0.0
C905 C 0.50488 0.74478 0.57556 0.0
C906 C 0.46869 0.79271 0.55441 0.0
C907 C 0.43767 0.76757 0.54906 0.0
C908 C 0.43949 0.73144 0.55789 0.0
H909 H 0.23799 0.736 0.4623 0.0
H910 H 0.29596 0.73493 0.48785 0.0
C911 C 0.4727 0.72017 0.57111 0.0
C912 C 0.40537 0.77802 0.53267 0.0
H913 H 0.30214 0.78135 0.52562 0.0
C914 C 0.41692 0.78725 0.51055 0.0
C915 C 0.36353 0.77702 0.53833 0.0
C916 C 0.34936 0.76906 0.56204 0.0
C917 C 0.38762 0.79344 0.49362 0.0
C918 C 0.34577 0.79085 0.49909 0.0
C919 C 0.3343 0.78324 0.52145 0.0
C920 C 0.31334 0.7918 0.48163 0.0
C921 C 0.40157 0.8008 0.4698 0.0
C922 C 0.30448 0.82396 0.46905 0.0
C923 C 0.27118 0.82459 0.45409 0.0
C924 C 0.24624 0.7932 0.45185 0.0
C925 C 0.25638 0.76079 0.46384 0.0
C926 C 0.28949 0.76011 0.4785 0.0
H927 H 0.43493 0.79635 0.46773 0.0
H928 H 0.38516 0.78255 0.45779 0.0
H929 H 0.39444 0.82997 0.46526 0.0
H930 H 0.32233 0.84887 0.47139 0.0
H931 H 0.2638 0.84998 0.44518 0.0
H932 H 0.03908 0.81915 0.08507 0.0
H933 H 0.09721 0.80522 0.06051 0.0
H934 H 0.03827 0.70474 0.03862 0.0
H935 H 0.98133 0.71741 0.06373 0.0
H936 H 0.11566 0.69264 0.04271 0.0
H937 H 0.09504 0.82242 0.99391 0.0
H938 H 0.10509 0.83095 0.02316 0.0
H939 H 0.05898 0.80754 0.01498 0.0
C940 C 0.0389 0.79371 0.07538 0.0
C941 C 1.00524 0.76966 0.07622 0.0
C942 C 0.07189 0.78606 0.06107 0.0
C943 C 0.07148 0.75459 0.04709 0.0
C944 C 0.03912 0.72945 0.04899 0.0
H945 H 0.22863 0.73165 0.92763 0.0
H946 H 0.16871 0.73833 0.95227 0.0
C947 C 0.00652 0.73676 0.06346 0.0
C948 C 0.10418 0.7478 0.03019 0.0
H949 H 0.15458 0.78674 0.98569 0.0
C950 C 0.12399 0.7132 0.03019 0.0
C951 C 0.11434 0.77417 0.01339 0.0
C952 C 0.09195 0.81067 0.01115 0.0
C953 C 0.15426 0.70457 0.01429 0.0
C954 C 0.16622 0.73177 0.99841 0.0
C955 C 0.1457 0.76602 0.99799 0.0
C956 C 0.20155 0.72603 0.98309 0.0
C957 C 0.17263 0.66611 0.01454 0.0
C958 C 0.23979 0.7171 0.9922 0.0
C959 C 0.27364 0.71279 0.97825 0.0
C960 C 0.27045 0.71811 0.95478 0.0
C961 C 0.23211 0.72717 0.94559 0.0
C962 C 0.19792 0.73112 0.95965 0.0
H963 H 0.15089 0.64554 0.02154 0.0
H964 H 0.18173 0.65705 0.99737 0.0
H965 H 0.20009 0.66599 0.02549 0.0
H966 H 0.24374 0.71414 0.01024 0.0
H967 H 0.30263 0.70612 0.98607 0.0
H968 H 0.02007 0.70948 0.44536 0.0
H969 H 0.9592 0.69418 0.46723 0.0
H970 H 0.91007 0.8032 0.45383 0.0
H971 H 0.97035 0.81794 0.43118 0.0
H972 H 0.9425 0.72927 0.50525 0.0
H973 H 0.80865 0.74178 0.44868 0.0
H974 H 0.86018 0.73878 0.4381 0.0
H975 H 0.84029 0.78224 0.44829 0.0
C976 C 0.99535 0.72948 0.44623 0.0
C977 C 0.99954 0.76466 0.43638 0.0
C978 C 0.96079 0.7209 0.45892 0.0
C979 C 0.93 0.74751 0.46225 0.0
C980 C 0.93293 0.7819 0.45117 0.0
H981 H 0.77355 0.75704 0.58154 0.0
H982 H 0.82986 0.76434 0.55465 0.0
C983 C 0.96732 0.79029 0.43812 0.0
C984 C 0.89785 0.74082 0.47945 0.0
H985 H 0.79495 0.74093 0.48823 0.0
C986 C 0.91019 0.73151 0.50145 0.0
C987 C 0.85574 0.74368 0.47455 0.0
C988 C 0.84037 0.75181 0.45107 0.0
C989 C 0.8817 0.72505 0.51867 0.0
C990 C 0.83962 0.72899 0.51394 0.0
C991 C 0.82724 0.73816 0.49191 0.0
C992 C 0.80771 0.7228 0.53133 0.0
C993 C 0.89699 0.71329 0.5416 0.0
C994 C 0.77661 0.69706 0.52723 0.0
C995 C 0.74435 0.69324 0.54237 0.0
C996 C 0.74254 0.71492 0.56204 0.0
C997 C 0.77452 0.73958 0.56669 0.0
C998 C 0.80667 0.74376 0.55132 0.0
H999 H 0.92825 0.70133 0.54067 0.0
H1000 H 0.89816 0.73787 0.55281 0.0
H1001 H 0.87645 0.69247 0.54937 0.0
H1002 H 0.77681 0.68048 0.512 0.0
H1003 H 0.72012 0.67396 0.53837 0.0
H1004 H 0.78977 0.8307 0.04007 0.0
H1005 H 0.73209 0.82236 0.0146 0.0
H1006 H 0.67763 0.74581 0.0616 0.0
H1007 H 0.73515 0.75465 0.0875 0.0
H1008 H 0.71147 0.7579 0.99445 0.0
H1009 H 0.58097 0.81087 0.04475 0.0
H1010 H 0.63336 0.81981 0.05233 0.0
H1011 H 0.61054 0.77583 0.05884 0.0
C1012 C 0.76516 0.81257 0.0452 0.0
C1013 C 0.76703 0.7933 0.06581 0.0
C1014 C 0.73225 0.80777 0.03058 0.0
C1015 C 0.70043 0.78357 0.03617 0.0
C1016 C 0.70145 0.76515 0.05708 0.0
H1017 H 0.53377 0.68008 0.94126 0.0
H1018 H 0.59158 0.69477 0.96563 0.0
C1019 C 0.73435 0.7702 0.07187 0.0
C1020 C 0.66787 0.77594 0.01937 0.0
H1021 H 0.56487 0.77899 0.01085 0.0
C1022 C 0.67941 0.76265 0.99801 0.0
C1023 C 0.6261 0.78246 0.02393 0.0
C1024 C 0.61192 0.79836 0.04612 0.0
C1025 C 0.65036 0.75547 0.98117 0.0
C1026 C 0.60851 0.76102 0.98594 0.0
C1027 C 0.59697 0.77459 1.00723 0.0
C1028 C 0.57603 0.75288 0.96919 0.0
C1029 C 0.66488 0.74266 0.95832 0.0
C1030 C 0.54819 0.78067 0.96287 0.0
C1031 C 0.51496 0.77233 0.94902 0.0
C1032 C 0.5088 0.73593 0.94122 0.0
C1033 C 0.53783 0.7085 0.94669 0.0
C1034 C 0.57095 0.71685 0.96068 0.0
H1035 H 0.69735 0.75 0.95539 0.0
H1036 H 0.66227 0.71204 0.9573 0.0
H1037 H 0.6461 0.75498 0.94462 0.0
H1038 H 0.55154 0.80867 0.9692 0.0
H1039 H 0.49319 0.79411 0.94516 0.0
loop_
_geom_bond_atom_site_label_1
_geom_bond_atom_site_label_2
_geom_bond_distance
_geom_bond_site_symmetry_2
_ccdc_geom_bond_type
Fe0 O2 1.918 . S
Fe0 O5 1.997 . S
Fe0 O6 2.002 . S
Fe0 O11 1.976 . S
Fe0 O14 1.996 . S
Fe1 O2 1.918 . S
Fe1 O9 1.997 . S
Fe1 O12 1.996 . S
Fe1 O16 1.976 . S
Fe1 O19 2.002 . S
O2 Fe0 1.918 . S
O2 Fe1 1.918 . S
O2 Fe3 1.918 . S
Fe3 O2 1.918 . S
Fe3 O4 2.002 . S
Fe3 O13 1.976 . S
Fe3 O17 1.996 . S
Fe3 O20 1.997 . S
O4 Fe3 2.002 . S
O4 C21 1.295 . S
O5 Fe0 1.997 . S
O5 C21 1.235 . S
O6 Fe0 2.002 . S
O6 C7 1.295 . S
C7 O6 1.295 . S
C7 O9 1.235 . S
C8 O13 1.287 . S
C8 O14 1.255 . S
O9 Fe1 1.997 . S
O9 C7 1.235 . S
C10 O16 1.287 . S
C10 O17 1.255 . S
O11 Fe0 1.976 . S
O11 C18 1.287 . S
O12 Fe1 1.996 . S
O12 C18 1.255 . S
O13 Fe3 1.976 . S
O13 C8 1.287 . S
O14 Fe0 1.996 . S
O14 C8 1.255 . S
C15 O19 1.295 . S
C15 O20 1.235 . S
O16 Fe1 1.976 . S
O16 C10 1.287 . S
O17 Fe3 1.996 . S
O17 C10 1.255 . S
C18 O11 1.287 . S
C18 O12 1.255 . S
O19 Fe1 2.002 . S
O19 C15 1.295 . S
O20 Fe3 1.997 . S
O20 C15 1.235 . S
C21 O4 1.295 . S
C21 O5 1.235 . S
Fe22 O24 1.918 . S
Fe22 O27 1.997 . S
Fe22 O28 2.002 . S
Fe22 O33 1.976 . S
Fe22 O36 1.996 . S
Fe23 O24 1.918 . S
Fe23 O31 1.997 . S
Fe23 O34 1.996 . S
Fe23 O38 1.976 . S
Fe23 O41 2.002 . S
O24 Fe22 1.918 . S
O24 Fe23 1.918 . S
O24 Fe25 1.918 . S
Fe25 O24 1.918 . S
Fe25 O26 2.002 . S
Fe25 O35 1.976 . S
Fe25 O39 1.996 . S
Fe25 O42 1.997 . S
O26 Fe25 2.002 . S
O26 C43 1.295 . S
O27 Fe22 1.997 . S
O27 C43 1.235 . S
O28 Fe22 2.002 . S
O28 C29 1.295 . S
C29 O28 1.295 . S
C29 O31 1.235 . S
C30 O35 1.287 . S
C30 O36 1.255 . S
O31 Fe23 1.997 . S
O31 C29 1.235 . S
C32 O38 1.287 . S
C32 O39 1.255 . S
O33 Fe22 1.976 . S
O33 C40 1.287 . S
O34 Fe23 1.996 . S
O34 C40 1.255 . S
O35 Fe25 1.976 . S
O35 C30 1.287 . S
O36 Fe22 1.996 . S
O36 C30 1.255 . S
C37 O41 1.295 . S
C37 O42 1.235 . S
O38 Fe23 1.976 . S
O38 C32 1.287 . S
O39 Fe25 1.996 . S
O39 C32 1.255 . S
C40 O33 1.287 . S
C40 O34 1.255 . S
O41 Fe23 2.002 . S
O41 C37 1.295 . S
O42 Fe25 1.997 . S
O42 C37 1.235 . S
C43 O26 1.295 . S
C43 O27 1.235 . S
Fe44 O46 1.918 . S
Fe44 O49 1.997 . S
Fe44 O50 2.002 . S
Fe44 O55 1.976 . S
Fe44 O58 1.996 . S
Fe45 O46 1.918 . S
Fe45 O53 1.997 . S
Fe45 O56 1.996 . S
Fe45 O60 1.976 . S
Fe45 O63 2.002 . S
O46 Fe44 1.918 . S
O46 Fe45 1.918 . S
O46 Fe47 1.918 . S
Fe47 O46 1.918 . S
Fe47 O48 2.002 . S
Fe47 O57 1.976 . S
Fe47 O61 1.996 . S
Fe47 O64 1.997 . S
O48 Fe47 2.002 . S
O48 C65 1.295 . S
O49 Fe44 1.997 . S
O49 C65 1.235 . S
O50 Fe44 2.002 . S
O50 C51 1.295 . S
C51 O50 1.295 . S
C51 O53 1.235 . S
C52 O57 1.287 . S
C52 O58 1.255 . S
O53 Fe45 1.997 . S
O53 C51 1.235 . S
C54 O60 1.287 . S
C54 O61 1.255 . S
O55 Fe44 1.976 . S
O55 C62 1.287 . S
O56 Fe45 1.996 . S
O56 C62 1.255 . S
O57 Fe47 1.976 . S
O57 C52 1.287 . S
O58 Fe44 1.996 . S
O58 C52 1.255 . S
C59 O63 1.295 . S
C59 O64 1.235 . S
O60 Fe45 1.976 . S
O60 C54 1.287 . S
O61 Fe47 1.996 . S
O61 C54 1.255 . S
C62 O55 1.287 . S
C62 O56 1.255 . S
O63 Fe45 2.002 . S
O63 C59 1.295 . S
O64 Fe47 1.997 . S
O64 C59 1.235 . S
C65 O48 1.295 . S
C65 O49 1.235 . S
Fe66 O68 1.918 . S
Fe66 O71 1.997 . S
Fe66 O72 2.002 . S
Fe66 O77 1.976 . S
Fe66 O80 1.996 . S
Fe67 O68 1.918 . S
Fe67 O75 1.997 . S
Fe67 O78 1.996 . S
Fe67 O82 1.976 . S
Fe67 O85 2.002 . S
O68 Fe66 1.918 . S
O68 Fe67 1.918 . S
O68 Fe69 1.918 . S
Fe69 O68 1.918 . S
Fe69 O70 2.002 . S
Fe69 O79 1.976 . S
Fe69 O83 1.996 . S
Fe69 O86 1.997 . S
O70 Fe69 2.002 . S
O70 C87 1.295 . S
O71 Fe66 1.997 . S
O71 C87 1.235 . S
O72 Fe66 2.002 . S
O72 C73 1.295 . S
C73 O72 1.295 . S
C73 O75 1.235 . S
C74 O79 1.287 . S
C74 O80 1.255 . S
O75 Fe67 1.997 . S
O75 C73 1.235 . S
C76 O82 1.287 . S
C76 O83 1.255 . S
O77 Fe66 1.976 . S
O77 C84 1.287 . S
O78 Fe67 1.996 . S
O78 C84 1.255 . S
O79 Fe69 1.976 . S
O79 C74 1.287 . S
O80 Fe66 1.996 . S
O80 C74 1.255 . S
C81 O85 1.295 . S
C81 O86 1.235 . S
O82 Fe67 1.976 . S
O82 C76 1.287 . S
O83 Fe69 1.996 . S
O83 C76 1.255 . S
C84 O77 1.287 . S
C84 O78 1.255 . S
O85 Fe67 2.002 . S
O85 C81 1.295 . S
O86 Fe69 1.997 . S
O86 C81 1.235 . S
C87 O70 1.295 . S
C87 O71 1.235 . S
Fe88 O90 1.918 . S
Fe88 O93 1.997 . S
Fe88 O94 2.002 . S
Fe88 O99 1.976 . S
Fe88 O102 1.996 . S
Fe89 O90 1.918 . S
Fe89 O97 1.997 . S
Fe89 O100 1.996 . S
Fe89 O104 1.976 . S
Fe89 O107 2.002 . S
O90 Fe88 1.918 . S
O90 Fe89 1.918 . S
O90 Fe91 1.918 . S
Fe91 O90 1.918 . S
Fe91 O92 2.002 . S
Fe91 O101 1.976 . S
Fe91 O105 1.996 . S
Fe91 O108 1.997 . S
O92 Fe91 2.002 . S
O92 C109 1.295 . S
O93 Fe88 1.997 . S
O93 C109 1.235 . S
O94 Fe88 2.002 . S
O94 C95 1.295 . S
C95 O94 1.295 . S
C95 O97 1.235 . S
C96 O101 1.287 . S
C96 O102 1.255 . S
O97 Fe89 1.997 . S
O97 C95 1.235 . S
C98 O104 1.287 . S
C98 O105 1.255 . S
O99 Fe88 1.976 . S
O99 C106 1.287 . S
O100 Fe89 1.996 . S
O100 C106 1.255 . S
O101 Fe91 1.976 . S
O101 C96 1.287 . S
O102 Fe88 1.996 . S
O102 C96 1.255 . S
C103 O107 1.295 . S
C103 O108 1.235 . S
O104 Fe89 1.976 . S
O104 C98 1.287 . S
O105 Fe91 1.996 . S
O105 C98 1.255 . S
C106 O99 1.287 . S
C106 O100 1.255 . S
O107 Fe89 2.002 . S
O107 C103 1.295 . S
O108 Fe91 1.997 . S
O108 C103 1.235 . S
C109 O92 1.295 . S
C109 O93 1.235 . S
Fe110 O112 1.918 . S
Fe110 O115 1.997 . S
Fe110 O116 2.002 . S
Fe110 O121 1.976 . S
Fe110 O124 1.996 . S
Fe111 O112 1.918 . S
Fe111 O119 1.997 . S
Fe111 O122 1.996 . S
Fe111 O126 1.976 . S
Fe111 O129 2.002 . S
O112 Fe110 1.918 . S
O112 Fe111 1.918 . S
O112 Fe113 1.918 . S
Fe113 O112 1.918 . S
Fe113 O114 2.002 . S
Fe113 O123 1.976 . S
Fe113 O127 1.996 . S
Fe113 O130 1.997 . S
O114 Fe113 2.002 . S
O114 C131 1.295 . S
O115 Fe110 1.997 . S
O115 C131 1.235 . S
O116 Fe110 2.002 . S
O116 C117 1.295 . S
C117 O116 1.295 . S
C117 O119 1.235 . S
C118 O123 1.287 . S
C118 O124 1.255 . S
O119 Fe111 1.997 . S
O119 C117 1.235 . S
C120 O126 1.287 . S
C120 O127 1.255 . S
O121 Fe110 1.976 . S
O121 C128 1.287 . S
O122 Fe111 1.996 . S
O122 C128 1.255 . S
O123 Fe113 1.976 . S
O123 C118 1.287 . S
O124 Fe110 1.996 . S
O124 C118 1.255 . S
C125 O129 1.295 . S
C125 O130 1.235 . S
O126 Fe111 1.976 . S
O126 C120 1.287 . S
O127 Fe113 1.996 . S
O127 C120 1.255 . S
C128 O121 1.287 . S
C128 O122 1.255 . S
O129 Fe111 2.002 . S
O129 C125 1.295 . S
O130 Fe113 1.997 . S
O130 C125 1.235 . S
C131 O114 1.295 . S
C131 O115 1.235 . S
Fe132 O134 1.918 . S
Fe132 O137 1.997 . S
Fe132 O138 2.002 . S
Fe132 O143 1.976 . S
Fe132 O146 1.996 . S
Fe133 O134 1.918 . S
Fe133 O141 1.997 . S
Fe133 O144 1.996 . S
Fe133 O148 1.976 . S
Fe133 O151 2.002 . S
O134 Fe132 1.918 . S
O134 Fe133 1.918 . S
O134 Fe135 1.918 . S
Fe135 O134 1.918 . S
Fe135 O136 2.002 . S
Fe135 O145 1.976 . S
Fe135 O149 1.996 . S
Fe135 O152 1.997 . S
O136 Fe135 2.002 . S
O136 C153 1.295 . S
O137 Fe132 1.997 . S
O137 C153 1.235 . S
O138 Fe132 2.002 . S
O138 C139 1.295 . S
C139 O138 1.295 . S
C139 O141 1.235 . S
C140 O145 1.287 . S
C140 O146 1.255 . S
O141 Fe133 1.997 . S
O141 C139 1.235 . S
C142 O148 1.287 . S
C142 O149 1.255 . S
O143 Fe132 1.976 . S
O143 C150 1.287 . S
O144 Fe133 1.996 . S
O144 C150 1.255 . S
O145 Fe135 1.976 . S
O145 C140 1.287 . S
O146 Fe132 1.996 . S
O146 C140 1.255 . S
C147 O151 1.295 . S
C147 O152 1.235 . S
O148 Fe133 1.976 . S
O148 C142 1.287 . S
O149 Fe135 1.996 . S
O149 C142 1.255 . S
C150 O143 1.287 . S
C150 O144 1.255 . S
O151 Fe133 2.002 . S
O151 C147 1.295 . S
O152 Fe135 1.997 . S
O152 C147 1.235 . S
C153 O136 1.295 . S
C153 O137 1.235 . S
Fe154 O156 1.918 . S
Fe154 O159 1.997 . S
Fe154 O160 2.002 . S
Fe154 O165 1.976 . S
Fe154 O168 1.996 . S
Fe155 O156 1.918 . S
Fe155 O163 1.997 . S
Fe155 O166 1.996 . S
Fe155 O170 1.976 . S
Fe155 O173 2.002 . S
O156 Fe154 1.918 . S
O156 Fe155 1.918 . S
O156 Fe157 1.918 . S
Fe157 O156 1.918 . S
Fe157 O158 2.002 . S
Fe157 O167 1.976 . S
Fe157 O171 1.996 . S
Fe157 O174 1.997 . S
O158 Fe157 2.002 . S
O158 C175 1.295 . S
O159 Fe154 1.997 . S
O159 C175 1.235 . S
O160 Fe154 2.002 . S
O160 C161 1.295 . S
C161 O160 1.295 . S
C161 O163 1.235 . S
C162 O167 1.287 . S
C162 O168 1.255 . S
O163 Fe155 1.997 . S
O163 C161 1.235 . S
C164 O170 1.287 . S
C164 O171 1.255 . S
O165 Fe154 1.976 . S
O165 C172 1.287 . S
O166 Fe155 1.996 . S
O166 C172 1.255 . S
O167 Fe157 1.976 . S
O167 C162 1.287 . S
O168 Fe154 1.996 . S
O168 C162 1.255 . S
C169 O173 1.295 . S
C169 O174 1.235 . S
O170 Fe155 1.976 . S
O170 C164 1.287 . S
O171 Fe157 1.996 . S
O171 C164 1.255 . S
C172 O165 1.287 . S
C172 O166 1.255 . S
O173 Fe155 2.002 . S
O173 C169 1.295 . S
O174 Fe157 1.997 . S
O174 C169 1.235 . S
C175 O158 1.295 . S
C175 O159 1.235 . S
H176 C184 0.929 . S
H177 C186 0.930 . S
H178 C188 0.916 1_545 S
H179 C191 0.929 . S
H180 C194 0.922 1_565 S
H181 C196 0.960 . S
H182 C196 0.960 . S
H183 C196 0.960 . S
C184 H176 0.929 . S
C184 C185 1.377 . S
C184 C186 1.384 . S
C185 C184 1.377 . S
C185 C191 1.390 . S
C186 H177 0.930 . S
C186 C184 1.384 . S
C186 C187 1.372 . S
C187 C186 1.372 . S
C187 C188 1.400 . S
C187 C192 1.490 1_565 S
C188 H178 0.916 1_565 S
C188 C187 1.400 . S
C188 C191 1.386 . S
H189 C205 0.930 . S
H190 C206 0.931 . S
C191 H179 0.929 . S
C191 C185 1.390 . S
C191 C188 1.386 . S
C192 C187 1.490 1_545 S
C192 C194 1.395 . S
C192 C195 1.403 . S
H193 C199 0.930 . S
C194 H180 0.922 1_545 S
C194 C192 1.395 . S
C194 C197 1.403 . S
C195 C192 1.403 . S
C195 C196 1.524 . S
C195 C199 1.400 . S
C196 H181 0.960 . S
C196 H182 0.960 . S
C196 H183 0.960 . S
C196 C195 1.524 . S
C197 C194 1.403 . S
C197 C198 1.392 . S
C197 C201 1.495 . S
C198 C197 1.392 . S
C198 C199 1.385 . S
C198 C200 1.478 . S
C199 H193 0.930 . S
C199 C195 1.400 . S
C199 C198 1.385 . S
C200 C198 1.478 . S
C200 C202 1.381 . S
C200 C206 1.383 . S
C201 C197 1.495 . S
C201 H207 0.959 . S
C201 H208 0.961 . S
C201 H209 0.960 . S
C202 C200 1.381 . S
C202 C203 1.394 . S
C202 H210 0.930 . S
C203 C202 1.394 . S
C203 C204 1.383 . S
C203 H211 0.929 . S
C204 C203 1.383 . S
C204 C205 1.377 . S
C205 H189 0.930 . S
C205 C204 1.377 . S
C205 C206 1.379 . S
C206 H190 0.931 . S
C206 C200 1.383 . S
C206 C205 1.379 . S
H207 C201 0.959 . S
H208 C201 0.961 . S
H209 C201 0.960 . S
H210 C202 0.930 . S
H211 C203 0.929 . S
H212 C220 0.929 . S
H213 C222 0.930 . S
H214 C224 0.930 . S
H215 C227 0.929 . S
H216 C230 0.930 . S
H217 C232 0.960 . S
H218 C232 0.960 . S
H219 C232 0.960 . S
C220 H212 0.929 . S
C220 C221 1.377 . S
C220 C222 1.384 . S
C221 C220 1.377 . S
C221 C227 1.390 . S
C222 H213 0.930 . S
C222 C220 1.384 . S
C222 C223 1.372 . S
C223 C222 1.372 . S
C223 C224 1.400 . S
C223 C228 1.490 . S
C224 H214 0.930 . S
C224 C223 1.400 . S
C224 C227 1.386 . S
H225 C241 0.930 . S
H226 C242 0.931 . S
C227 H215 0.929 . S
C227 C221 1.390 . S
C227 C224 1.386 . S
C228 C223 1.490 . S
C228 C230 1.395 . S
C228 C231 1.403 . S
H229 C235 0.930 . S
C230 H216 0.930 . S
C230 C228 1.395 . S
C230 C233 1.403 . S
C231 C228 1.403 . S
C231 C232 1.524 . S
C231 C235 1.400 . S
C232 H217 0.960 . S
C232 H218 0.960 . S
C232 H219 0.960 . S
C232 C231 1.524 . S
C233 C230 1.403 . S
C233 C234 1.392 . S
C233 C237 1.495 . S
C234 C233 1.392 . S
C234 C235 1.385 . S
C234 C236 1.478 . S
C235 H229 0.930 . S
C235 C231 1.400 . S
C235 C234 1.385 . S
C236 C234 1.478 . S
C236 C238 1.381 . S
C236 C242 1.383 . S
C237 C233 1.495 . S
C237 H243 0.959 . S
C237 H244 0.961 . S
C237 H245 0.960 . S
C238 C236 1.381 . S
C238 C239 1.394 . S
C238 H246 0.930 . S
C239 C238 1.394 . S
C239 C240 1.383 . S
C239 H247 0.929 . S
C240 C239 1.383 . S
C240 C241 1.377 . S
C241 H225 0.930 . S
C241 C240 1.377 . S
C241 C242 1.379 . S
C242 H226 0.931 . S
C242 C236 1.383 . S
C242 C241 1.379 . S
H243 C237 0.959 . S
H244 C237 0.961 . S
H245 C237 0.960 . S
H246 C238 0.930 . S
H247 C239 0.929 . S
H248 C256 0.929 . S
H249 C258 0.930 . S
H250 C260 0.930 . S
H251 C263 0.929 . S
H252 C266 0.930 . S
H253 C268 0.960 . S
H254 C268 0.960 . S
H255 C268 0.960 . S
C256 H248 0.929 . S
C256 C257 1.377 . S
C256 C258 1.384 . S
C257 C256 1.377 . S
C257 C263 1.390 . S
C258 H249 0.930 . S
C258 C256 1.384 . S
C258 C259 1.372 . S
C259 C258 1.372 . S
C259 C260 1.400 . S
C259 C264 1.490 . S
C260 H250 0.930 . S
C260 C259 1.400 . S
C260 C263 1.386 . S
H261 C277 0.930 . S
H262 C278 0.931 . S
C263 H251 0.929 . S
C263 C257 1.390 . S
C263 C260 1.386 . S
C264 C259 1.490 . S
C264 C266 1.395 . S
C264 C267 1.403 . S
H265 C271 0.930 . S
C266 H252 0.930 . S
C266 C264 1.395 . S
C266 C269 1.403 . S
C267 C264 1.403 . S
C267 C268 1.524 . S
C267 C271 1.400 . S
C268 H253 0.960 . S
C268 H254 0.960 . S
C268 H255 0.960 . S
C268 C267 1.524 . S
C269 C266 1.403 . S
C269 C270 1.392 . S
C269 C273 1.495 . S
C270 C269 1.392 . S
C270 C271 1.385 . S
C270 C272 1.478 . S
C271 H265 0.930 . S
C271 C267 1.400 . S
C271 C270 1.385 . S
C272 C270 1.478 . S
C272 C274 1.381 . S
C272 C278 1.383 . S
C273 C269 1.495 . S
C273 H279 0.959 . S
C273 H280 0.961 . S
C273 H281 0.960 . S
C274 C272 1.381 . S
C274 C275 1.394 . S
C274 H282 0.930 . S
C275 C274 1.394 . S
C275 C276 1.383 . S
C275 H283 0.929 . S
C276 C275 1.383 . S
C276 C277 1.377 . S
C277 H261 0.930 . S
C277 C276 1.377 . S
C277 C278 1.379 . S
C278 H262 0.931 . S
C278 C272 1.383 . S
C278 C277 1.379 . S
H279 C273 0.959 . S
H280 C273 0.961 . S
H281 C273 0.960 . S
H282 C274 0.930 . S
H283 C275 0.929 . S
H284 C292 0.929 . S
H285 C294 0.930 . S
H286 C296 0.930 . S
H287 C299 0.929 . S
H288 C302 0.930 . S
H289 C304 0.960 . S
H290 C304 0.960 . S
H291 C304 0.960 . S
C292 H284 0.929 . S
C292 C293 1.377 . S
C292 C294 1.384 . S
C293 C292 1.377 . S
C293 C299 1.390 . S
C294 H285 0.930 . S
C294 C292 1.384 . S
C294 C295 1.372 . S
C295 C294 1.372 . S
C295 C296 1.400 . S
C295 C300 1.490 . S
C296 H286 0.930 . S
C296 C295 1.400 . S
C296 C299 1.386 . S
H297 C313 0.930 . S
H298 C314 0.931 1_545 S
C299 H287 0.929 . S
C299 C293 1.390 . S
C299 C296 1.386 . S
C300 C295 1.490 . S
C300 C302 1.395 . S
C300 C303 1.403 . S
H301 C307 0.930 . S
C302 H288 0.930 . S
C302 C300 1.395 . S
C302 C305 1.403 . S
C303 C300 1.403 . S
C303 C304 1.524 . S
C303 C307 1.400 . S
C304 H289 0.960 . S
C304 H290 0.960 . S
C304 H291 0.960 . S
C304 C303 1.524 . S
C305 C302 1.403 . S
C305 C306 1.392 . S
C305 C309 1.495 . S
C306 C305 1.392 . S
C306 C307 1.385 . S
C306 C308 1.478 1_545 S
C307 H301 0.930 . S
C307 C303 1.400 . S
C307 C306 1.385 . S
C308 C306 1.478 1_565 S
C308 C310 1.381 . S
C308 C314 1.383 . S
C309 C305 1.495 . S
C309 H315 0.959 . S
C309 H316 0.961 . S
C309 H317 0.960 . S
C310 C308 1.381 . S
C310 C311 1.394 . S
C310 H318 0.930 . S
C311 C310 1.394 . S
C311 C312 1.383 . S
C311 H319 0.929 . S
C312 C311 1.383 . S
C312 C313 1.377 . S
C313 H297 0.930 . S
C313 C312 1.377 . S
C313 C314 1.379 . S
C314 H298 0.931 1_565 S
C314 C308 1.383 . S
C314 C313 1.379 . S
H315 C309 0.959 . S
H316 C309 0.961 . S
H317 C309 0.960 . S
H318 C310 0.930 . S
H319 C311 0.929 . S
H320 C328 0.929 . S
H321 C330 0.930 . S
H322 C332 0.941 . S
H323 C335 0.929 . S
H324 C338 0.930 . S
H325 C340 0.960 . S
H326 C340 0.960 1_545 S
H327 C340 0.960 . S
C328 H320 0.929 . S
C328 C329 1.377 . S
C328 C330 1.384 . S
C329 C328 1.377 . S
C329 C335 1.390 . S
C330 H321 0.930 . S
C330 C328 1.384 . S
C330 C331 1.372 . S
C331 C330 1.372 . S
C331 C332 1.400 . S
C331 C336 1.490 1_545 S
C332 H322 0.941 . S
C332 C331 1.400 . S
C332 C335 1.386 . S
H333 C349 0.930 . S
H334 C350 0.931 . S
C335 H323 0.929 . S
C335 C329 1.390 . S
C335 C332 1.386 . S
C336 C331 1.490 1_565 S
C336 C338 1.395 . S
C336 C339 1.403 . S
H337 C343 0.930 . S
C338 H324 0.930 . S
C338 C336 1.395 . S
C338 C341 1.403 . S
C339 C336 1.403 . S
C339 C340 1.524 . S
C339 C343 1.400 . S
C340 H325 0.960 . S
C340 H326 0.960 1_565 S
C340 H327 0.960 . S
C340 C339 1.524 . S
C341 C338 1.403 . S
C341 C342 1.392 . S
C341 C345 1.495 . S
C342 C341 1.392 . S
C342 C343 1.385 . S
C342 C344 1.478 . S
C343 H337 0.930 . S
C343 C339 1.400 . S
C343 C342 1.385 . S
C344 C342 1.478 . S
C344 C346 1.381 . S
C344 C350 1.383 . S
C345 C341 1.495 . S
C345 H351 0.959 . S
C345 H352 0.961 . S
C345 H353 0.960 . S
C346 C344 1.381 . S
C346 C347 1.394 . S
C346 H354 0.930 . S
C347 C346 1.394 . S
C347 C348 1.383 . S
C347 H355 0.929 . S
C348 C347 1.383 . S
C348 C349 1.377 . S
C349 H333 0.930 . S
C349 C348 1.377 . S
C349 C350 1.379 . S
C350 H334 0.931 . S
C350 C344 1.383 . S
C350 C349 1.379 . S
H351 C345 0.959 . S
H352 C345 0.961 . S
H353 C345 0.960 . S
H354 C346 0.930 . S
H355 C347 0.929 . S
H356 C364 0.929 . S
H357 C366 0.930 . S
H358 C368 0.930 . S
H359 C371 0.929 . S
H360 C374 0.930 . S
H361 C376 0.960 . S
H362 C376 0.960 . S
H363 C376 0.960 . S
C364 H356 0.929 . S
C364 C365 1.377 . S
C364 C366 1.384 . S
C365 C364 1.377 . S
C365 C371 1.390 . S
C366 H357 0.930 . S
C366 C364 1.384 . S
C366 C367 1.372 . S
C367 C366 1.372 . S
C367 C368 1.400 . S
C367 C372 1.490 . S
C368 H358 0.930 . S
C368 C367 1.400 . S
C368 C371 1.386 . S
H369 C385 0.930 . S
H370 C386 0.931 . S
C371 H359 0.929 . S
C371 C365 1.390 . S
C371 C368 1.386 . S
C372 C367 1.490 . S
C372 C374 1.395 . S
C372 C375 1.403 . S
H373 C379 0.930 . S
C374 H360 0.930 . S
C374 C372 1.395 . S
C374 C377 1.403 . S
C375 C372 1.403 . S
C375 C376 1.524 . S
C375 C379 1.400 . S
C376 H361 0.960 . S
C376 H362 0.960 . S
C376 H363 0.960 . S
C376 C375 1.524 . S
C377 C374 1.403 . S
C377 C378 1.392 . S
C377 C381 1.495 . S
C378 C377 1.392 . S
C378 C379 1.385 . S
C378 C380 1.478 . S
C379 H373 0.930 . S
C379 C375 1.400 . S
C379 C378 1.385 . S
C380 C378 1.478 . S
C380 C382 1.381 . S
C380 C386 1.383 . S
C381 C377 1.495 . S
C381 H387 0.959 . S
C381 H388 0.961 . S
C381 H389 0.960 . S
C382 C380 1.381 . S
C382 C383 1.394 . S
C382 H390 0.930 . S
C383 C382 1.394 . S
C383 C384 1.383 . S
C383 H391 0.929 . S
C384 C383 1.383 . S
C384 C385 1.377 . S
C385 H369 0.930 . S
C385 C384 1.377 . S
C385 C386 1.379 . S
C386 H370 0.931 . S
C386 C380 1.383 . S
C386 C385 1.379 . S
H387 C381 0.959 . S
H388 C381 0.961 . S
H389 C381 0.960 . S
H390 C382 0.930 . S
H391 C383 0.929 . S
H392 C400 0.929 . S
H393 C402 0.930 . S
H394 C404 0.930 . S
H395 C407 0.929 . S
H396 C410 0.930 . S
H397 C412 0.960 . S
H398 C412 0.960 . S
H399 C412 0.960 . S
C400 H392 0.929 . S
C400 C401 1.377 . S
C400 C402 1.384 . S
C401 C400 1.377 . S
C401 C407 1.390 . S
C402 H393 0.930 . S
C402 C400 1.384 . S
C402 C403 1.372 . S
C403 C402 1.372 . S
C403 C404 1.400 . S
C403 C408 1.490 . S
C404 H394 0.930 . S
C404 C403 1.400 . S
C404 C407 1.386 . S
H405 C421 0.930 . S
H406 C422 0.931 . S
C407 H395 0.929 . S
C407 C401 1.390 . S
C407 C404 1.386 . S
C408 C403 1.490 . S
C408 C410 1.395 . S
C408 C411 1.403 . S
H409 C415 0.930 . S
C410 H396 0.930 . S
C410 C408 1.395 . S
C410 C413 1.403 . S
C411 C408 1.403 . S
C411 C412 1.524 . S
C411 C415 1.400 . S
C412 H397 0.960 . S
C412 H398 0.960 . S
C412 H399 0.960 . S
C412 C411 1.524 . S
C413 C410 1.403 . S
C413 C414 1.392 . S
C413 C417 1.495 . S
C414 C413 1.392 . S
C414 C415 1.385 . S
C414 C416 1.478 . S
C415 H409 0.930 . S
C415 C411 1.400 . S
C415 C414 1.385 . S
C416 C414 1.478 . S
C416 C418 1.381 . S
C416 C422 1.383 . S
C417 C413 1.495 . S
C417 H423 0.959 . S
C417 H424 0.961 . S
C417 H425 0.960 . S
C418 C416 1.381 . S
C418 C419 1.394 . S
C418 H426 0.930 . S
C419 C418 1.394 . S
C419 C420 1.383 . S
C419 H427 0.929 . S
C420 C419 1.383 . S
C420 C421 1.377 . S
C421 H405 0.930 . S
C421 C420 1.377 . S
C421 C422 1.379 . S
C422 H406 0.931 . S
C422 C416 1.383 . S
C422 C421 1.379 . S
H423 C417 0.959 . S
H424 C417 0.961 . S
H425 C417 0.960 . S
H426 C418 0.930 . S
H427 C419 0.929 . S
H428 C436 0.929 . S
H429 C438 0.930 1_565 S
H430 C440 0.930 . S
H431 C443 0.929 . S
H432 C446 0.930 . S
H433 C448 0.960 1_565 S
H434 C448 0.960 . S
H435 C448 0.960 . S
C436 H428 0.929 . S
C436 C437 1.377 . S
C436 C438 1.384 . S
C437 C436 1.377 . S
C437 C443 1.390 . S
C438 H429 0.930 1_545 S
C438 C436 1.384 . S
C438 C439 1.372 . S
C439 C438 1.372 . S
C439 C440 1.400 . S
C439 C444 1.490 1_545 S
C440 H430 0.930 . S
C440 C439 1.400 . S
C440 C443 1.386 . S
H441 C457 0.930 . S
H442 C458 0.931 . S
C443 H431 0.929 . S
C443 C437 1.390 . S
C443 C440 1.386 . S
C444 C439 1.490 1_565 S
C444 C446 1.395 . S
C444 C447 1.403 . S
H445 C451 0.930 . S
C446 H432 0.930 . S
C446 C444 1.395 . S
C446 C449 1.403 . S
C447 C444 1.403 . S
C447 C448 1.524 1_565 S
C447 C451 1.400 . S
C448 H433 0.960 1_545 S
C448 H434 0.960 . S
C448 H435 0.960 . S
C448 C447 1.524 1_545 S
C449 C446 1.403 . S
C449 C450 1.392 . S
C449 C453 1.495 . S
C450 C449 1.392 . S
C450 C451 1.385 . S
C450 C452 1.478 . S
C451 H445 0.930 . S
C451 C447 1.400 . S
C451 C450 1.385 . S
C452 C450 1.478 . S
C452 C454 1.381 . S
C452 C458 1.383 . S
C453 C449 1.495 . S
C453 H459 0.959 . S
C453 H460 0.961 . S
C453 H461 0.960 . S
C454 C452 1.381 . S
C454 C455 1.394 . S
C454 H462 0.930 . S
C455 C454 1.394 . S
C455 C456 1.383 . S
C455 H463 0.929 . S
C456 C455 1.383 . S
C456 C457 1.377 . S
C457 H441 0.930 . S
C457 C456 1.377 . S
C457 C458 1.379 . S
C458 H442 0.931 . S
C458 C452 1.383 . S
C458 C457 1.379 . S
H459 C453 0.959 . S
H460 C453 0.961 . S
H461 C453 0.960 . S
H462 C454 0.930 . S
H463 C455 0.929 . S
H464 C472 0.929 . S
H465 C474 0.930 . S
H466 C476 0.930 . S
H467 C479 0.929 . S
H468 C482 0.930 . S
H469 C484 0.960 . S
H470 C484 0.960 . S
H471 C484 0.960 . S
C472 H464 0.929 . S
C472 C473 1.377 . S
C472 C474 1.384 . S
C473 C472 1.377 . S
C473 C479 1.390 . S
C474 H465 0.930 . S
C474 C472 1.384 . S
C474 C475 1.372 . S
C475 C474 1.372 . S
C475 C476 1.400 . S
C475 C480 1.490 . S
C476 H466 0.930 . S
C476 C475 1.400 . S
C476 C479 1.386 . S
H477 C493 0.930 . S
H478 C494 0.931 . S
C479 H467 0.929 . S
C479 C473 1.390 . S
C479 C476 1.386 . S
C480 C475 1.490 . S
C480 C482 1.395 . S
C480 C483 1.403 . S
H481 C487 0.930 . S
C482 H468 0.930 . S
C482 C480 1.395 . S
C482 C485 1.403 . S
C483 C480 1.403 . S
C483 C484 1.524 . S
C483 C487 1.400 . S
C484 H469 0.960 . S
C484 H470 0.960 . S
C484 H471 0.960 . S
C484 C483 1.524 . S
C485 C482 1.403 . S
C485 C486 1.392 . S
C485 C489 1.495 . S
C486 C485 1.392 . S
C486 C487 1.385 . S
C486 C488 1.478 . S
C487 H481 0.930 . S
C487 C483 1.400 . S
C487 C486 1.385 . S
C488 C486 1.478 . S
C488 C490 1.381 . S
C488 C494 1.383 . S
C489 C485 1.495 . S
C489 H495 0.959 . S
C489 H496 0.961 . S
C489 H497 0.960 . S
C490 C488 1.381 . S
C490 C491 1.394 . S
C490 H498 0.930 . S
C491 C490 1.394 . S
C491 C492 1.383 . S
C491 H499 0.929 . S
C492 C491 1.383 . S
C492 C493 1.377 . S
C493 H477 0.930 . S
C493 C492 1.377 . S
C493 C494 1.379 . S
C494 H478 0.931 . S
C494 C488 1.383 . S
C494 C493 1.379 . S
H495 C489 0.959 . S
H496 C489 0.961 . S
H497 C489 0.960 . S
H498 C490 0.930 . S
H499 C491 0.929 . S
H500 C508 0.929 . S
H501 C510 0.930 1_556 S
H502 C512 0.930 . S
H503 C515 0.929 . S
H504 C518 0.930 . S
H505 C520 0.960 . S
H506 C520 0.960 . S
H507 C520 0.960 . S
C508 H500 0.929 . S
C508 C509 1.377 . S
C508 C510 1.384 . S
C509 C508 1.377 . S
C509 C515 1.390 . S
C510 H501 0.930 1_554 S
C510 C508 1.384 . S
C510 C511 1.372 . S
C511 C510 1.372 . S
C511 C512 1.400 . S
C511 C516 1.490 . S
C512 H502 0.930 . S
C512 C511 1.400 . S
C512 C515 1.386 . S
H513 C529 0.930 . S
H514 C530 0.931 1_554 S
C515 H503 0.929 . S
C515 C509 1.390 . S
C515 C512 1.386 . S
C516 C511 1.490 . S
C516 C518 1.395 1_554 S
C516 C519 1.403 1_655 S
H517 C523 0.929 1_554 S
C518 H504 0.930 . S
C518 C516 1.395 1_556 S
C518 C521 1.403 1_565 S
C519 C516 1.403 1_455 S
C519 C520 1.524 . S
C519 C523 1.384 1_564 S
C520 H505 0.960 . S
C520 H506 0.960 . S
C520 H507 0.960 . S
C520 C519 1.524 . S
C521 C518 1.403 1_545 S
C521 C522 1.392 1_655 S
C521 C525 1.495 . S
C522 C521 1.392 1_455 S
C522 C523 1.404 . S
C522 C524 1.478 . S
C523 H517 0.929 1_556 S
C523 C519 1.384 1_546 S
C523 C522 1.404 . S
C524 C522 1.478 . S
C524 C526 1.381 . S
C524 C530 1.383 . S
C525 C521 1.495 . S
C525 H531 0.959 . S
C525 H532 0.961 . S
C525 H533 0.960 . S
C526 C524 1.381 . S
C526 C527 1.394 . S
C526 H534 0.930 . S
C527 C526 1.394 . S
C527 C528 1.383 . S
C527 H535 0.929 . S
C528 C527 1.383 . S
C528 C529 1.377 . S
C529 H513 0.930 . S
C529 C528 1.377 . S
C529 C530 1.379 . S
C530 H514 0.931 1_556 S
C530 C524 1.383 . S
C530 C529 1.379 . S
H531 C525 0.959 . S
H532 C525 0.961 . S
H533 C525 0.960 . S
H534 C526 0.930 . S
H535 C527 0.929 . S
H536 C544 0.929 . S
H537 C546 0.930 . S
H538 C548 0.930 . S
H539 C551 0.929 . S
H540 C554 0.930 . S
H541 C556 0.960 . S
H542 C556 0.960 . S
H543 C556 0.960 . S
C544 H536 0.929 . S
C544 C545 1.377 . S
C544 C546 1.384 . S
C545 C544 1.377 . S
C545 C551 1.390 . S
C546 H537 0.930 . S
C546 C544 1.384 . S
C546 C547 1.372 . S
C547 C546 1.372 . S
C547 C548 1.400 . S
C547 C552 1.490 . S
C548 H538 0.930 . S
C548 C547 1.400 . S
C548 C551 1.386 . S
H549 C565 0.930 . S
H550 C566 0.931 . S
C551 H539 0.929 . S
C551 C545 1.390 . S
C551 C548 1.386 . S
C552 C547 1.490 . S
C552 C554 1.395 1_545 S
C552 C555 1.403 1_655 S
H553 C559 0.930 . S
C554 H540 0.930 . S
C554 C552 1.395 1_565 S
C554 C557 1.403 . S
C555 C552 1.403 1_455 S
C555 C556 1.524 . S
C555 C559 1.400 1_545 S
C556 H541 0.960 . S
C556 H542 0.960 . S
C556 H543 0.960 . S
C556 C555 1.524 . S
C557 C554 1.403 . S
C557 C558 1.392 1_655 S
C557 C561 1.495 . S
C558 C557 1.392 1_455 S
C558 C559 1.385 . S
C558 C560 1.478 . S
C559 H553 0.930 . S
C559 C555 1.400 1_565 S
C559 C558 1.385 . S
C560 C558 1.478 . S
C560 C562 1.381 . S
C560 C566 1.383 . S
C561 C557 1.495 . S
C561 H567 0.959 . S
C561 H568 0.961 . S
C561 H569 0.960 . S
C562 C560 1.381 . S
C562 C563 1.394 . S
C562 H570 0.930 . S
C563 C562 1.394 . S
C563 C564 1.383 . S
C563 H571 0.929 . S
C564 C563 1.383 . S
C564 C565 1.377 . S
C565 H549 0.930 . S
C565 C564 1.377 . S
C565 C566 1.379 . S
C566 H550 0.931 . S
C566 C560 1.383 . S
C566 C565 1.379 . S
H567 C561 0.959 . S
H568 C561 0.961 . S
H569 C561 0.960 . S
H570 C562 0.930 . S
H571 C563 0.929 . S
H572 C580 0.929 . S
H573 C582 0.930 . S
H574 C584 0.930 . S
H575 C587 0.929 . S
H576 C590 0.930 . S
H577 C592 0.960 . S
H578 C592 0.960 . S
H579 C592 0.960 . S
C580 H572 0.929 . S
C580 C581 1.377 . S
C580 C582 1.384 . S
C581 C580 1.377 . S
C581 C587 1.390 . S
C582 H573 0.930 . S
C582 C580 1.384 . S
C582 C583 1.372 . S
C583 C582 1.372 . S
C583 C584 1.400 . S
C583 C588 1.490 . S
C584 H574 0.930 . S
C584 C583 1.400 . S
C584 C587 1.386 . S
H585 C601 0.930 . S
H586 C602 0.931 . S
C587 H575 0.929 . S
C587 C581 1.390 . S
C587 C584 1.386 . S
C588 C583 1.490 . S
C588 C590 1.395 . S
C588 C591 1.403 1_556 S
H589 C595 0.930 . S
C590 H576 0.930 . S
C590 C588 1.395 . S
C590 C593 1.403 . S
C591 C588 1.403 1_554 S
C591 C592 1.524 . S
C591 C595 1.400 . S
C592 H577 0.960 . S
C592 H578 0.960 . S
C592 H579 0.960 . S
C592 C591 1.524 . S
C593 C590 1.403 . S
C593 C594 1.392 1_556 S
C593 C597 1.495 . S
C594 C593 1.392 1_554 S
C594 C595 1.385 . S
C594 C596 1.478 . S
C595 H589 0.930 . S
C595 C591 1.400 . S
C595 C594 1.385 . S
C596 C594 1.478 . S
C596 C598 1.381 . S
C596 C602 1.383 . S
C597 C593 1.495 . S
C597 H603 0.959 . S
C597 H604 0.961 . S
C597 H605 0.960 . S
C598 C596 1.381 . S
C598 C599 1.394 . S
C598 H606 0.930 . S
C599 C598 1.394 . S
C599 C600 1.383 . S
C599 H607 0.929 . S
C600 C599 1.383 . S
C600 C601 1.377 . S
C601 H585 0.930 . S
C601 C600 1.377 . S
C601 C602 1.379 . S
C602 H586 0.931 . S
C602 C596 1.383 . S
C602 C601 1.379 . S
H603 C597 0.959 . S
H604 C597 0.961 . S
H605 C597 0.960 . S
H606 C598 0.930 . S
H607 C599 0.929 . S
H608 C616 0.929 . S
H609 C618 0.930 . S
H610 C620 0.930 . S
H611 C623 0.929 . S
H612 C626 0.930 . S
H613 C628 0.960 . S
H614 C628 0.960 . S
H615 C628 0.960 . S
C616 H608 0.929 . S
C616 C617 1.377 . S
C616 C618 1.384 . S
C617 C616 1.377 . S
C617 C623 1.390 . S
C618 H609 0.930 . S
C618 C616 1.384 . S
C618 C619 1.372 . S
C619 C618 1.372 . S
C619 C620 1.400 . S
C619 C624 1.490 . S
C620 H610 0.930 . S
C620 C619 1.400 . S
C620 C623 1.386 . S
H621 C637 0.930 . S
H622 C638 0.931 . S
C623 H611 0.929 . S
C623 C617 1.390 . S
C623 C620 1.386 . S
C624 C619 1.490 . S
C624 C626 1.395 . S
C624 C627 1.403 . S
H625 C631 0.930 . S
C626 H612 0.930 . S
C626 C624 1.395 . S
C626 C629 1.403 . S
C627 C624 1.403 . S
C627 C628 1.524 . S
C627 C631 1.400 . S
C628 H613 0.960 . S
C628 H614 0.960 . S
C628 H615 0.960 . S
C628 C627 1.524 . S
C629 C626 1.403 . S
C629 C630 1.392 . S
C629 C633 1.495 . S
C630 C629 1.392 . S
C630 C631 1.385 . S
C630 C632 1.478 . S
C631 H625 0.930 . S
C631 C627 1.400 . S
C631 C630 1.385 . S
C632 C630 1.478 . S
C632 C634 1.381 . S
C632 C638 1.383 . S
C633 C629 1.495 . S
C633 H639 0.959 . S
C633 H640 0.961 . S
C633 H641 0.960 . S
C634 C632 1.381 . S
C634 C635 1.394 . S
C634 H642 0.930 . S
C635 C634 1.394 . S
C635 C636 1.383 . S
C635 H643 0.929 . S
C636 C635 1.383 . S
C636 C637 1.377 . S
C637 H621 0.930 . S
C637 C636 1.377 . S
C637 C638 1.379 . S
C638 H622 0.931 . S
C638 C632 1.383 . S
C638 C637 1.379 . S
H639 C633 0.959 . S
H640 C633 0.961 . S
H641 C633 0.960 . S
H642 C634 0.930 . S
H643 C635 0.929 . S
H644 C652 0.929 . S
H645 C654 0.930 . S
H646 C656 0.930 . S
H647 C659 0.929 . S
H648 C662 0.930 . S
H649 C664 0.960 . S
H650 C664 0.960 . S
H651 C664 0.960 . S
C652 H644 0.929 . S
C652 C653 1.377 . S
C652 C654 1.384 . S
C653 C652 1.377 . S
C653 C659 1.390 . S
C654 H645 0.930 . S
C654 C652 1.384 . S
C654 C655 1.372 . S
C655 C654 1.372 . S
C655 C656 1.400 . S
C655 C660 1.490 . S
C656 H646 0.930 . S
C656 C655 1.400 . S
C656 C659 1.386 . S
H657 C673 0.930 . S
H658 C674 0.931 . S
C659 H647 0.929 . S
C659 C653 1.390 . S
C659 C656 1.386 . S
C660 C655 1.490 . S
C660 C662 1.395 . S
C660 C663 1.403 1_455 S
H661 C667 0.930 . S
C662 H648 0.930 . S
C662 C660 1.395 . S
C662 C665 1.403 . S
C663 C660 1.403 1_655 S
C663 C664 1.524 . S
C663 C667 1.400 . S
C664 H649 0.960 . S
C664 H650 0.960 . S
C664 H651 0.960 . S
C664 C663 1.524 . S
C665 C662 1.403 . S
C665 C666 1.392 1_455 S
C665 C669 1.495 . S
C666 C665 1.392 1_655 S
C666 C667 1.385 . S
C666 C668 1.478 . S
C667 H661 0.930 . S
C667 C663 1.400 . S
C667 C666 1.385 . S
C668 C666 1.478 . S
C668 C670 1.381 . S
C668 C674 1.383 . S
C669 C665 1.495 . S
C669 H675 0.959 . S
C669 H676 0.961 . S
C669 H677 0.960 . S
C670 C668 1.381 . S
C670 C671 1.394 . S
C670 H678 0.930 . S
C671 C670 1.394 . S
C671 C672 1.383 . S
C671 H679 0.929 . S
C672 C671 1.383 . S
C672 C673 1.377 . S
C673 H657 0.930 . S
C673 C672 1.377 . S
C673 C674 1.379 . S
C674 H658 0.931 . S
C674 C668 1.383 . S
C674 C673 1.379 . S
H675 C669 0.959 . S
H676 C669 0.961 . S
H677 C669 0.960 . S
H678 C670 0.930 . S
H679 C671 0.929 . S
H680 C688 0.929 . S
H681 C690 0.930 . S
H682 C692 0.930 . S
H683 C695 0.929 . S
H684 C698 0.930 . S
H685 C700 0.960 . S
H686 C700 0.960 . S
H687 C700 0.960 . S
C688 H680 0.929 . S
C688 C689 1.377 . S
C688 C690 1.384 . S
C689 C688 1.377 . S
C689 C695 1.390 . S
C690 H681 0.930 . S
C690 C688 1.384 . S
C690 C691 1.372 . S
C691 C690 1.372 . S
C691 C692 1.400 . S
C691 C696 1.490 . S
C692 H682 0.930 . S
C692 C691 1.400 . S
C692 C695 1.386 . S
H693 C709 0.930 . S
H694 C710 0.931 . S
C695 H683 0.929 . S
C695 C689 1.390 . S
C695 C692 1.386 . S
C696 C691 1.490 . S
C696 C698 1.395 . S
C696 C699 1.403 . S
H697 C703 0.930 . S
C698 H684 0.930 . S
C698 C696 1.395 . S
C698 C701 1.403 . S
C699 C696 1.403 . S
C699 C700 1.524 . S
C699 C703 1.400 . S
C700 H685 0.960 . S
C700 H686 0.960 . S
C700 H687 0.960 . S
C700 C699 1.524 . S
C701 C698 1.403 . S
C701 C702 1.392 . S
C701 C705 1.495 . S
C702 C701 1.392 . S
C702 C703 1.385 . S
C702 C704 1.478 . S
C703 H697 0.930 . S
C703 C699 1.400 . S
C703 C702 1.385 . S
C704 C702 1.478 . S
C704 C706 1.381 . S
C704 C710 1.383 . S
C705 C701 1.495 . S
C705 H711 0.959 . S
C705 H712 0.961 . S
C705 H713 0.960 . S
C706 C704 1.381 . S
C706 C707 1.394 . S
C706 H714 0.930 . S
C707 C706 1.394 . S
C707 C708 1.383 . S
C707 H715 0.929 . S
C708 C707 1.383 . S
C708 C709 1.377 . S
C709 H693 0.930 . S
C709 C708 1.377 . S
C709 C710 1.379 . S
C710 H694 0.931 . S
C710 C704 1.383 . S
C710 C709 1.379 . S
H711 C705 0.959 . S
H712 C705 0.961 . S
H713 C705 0.960 . S
H714 C706 0.930 . S
H715 C707 0.929 . S
H716 C724 0.929 . S
H717 C726 0.930 1_455 S
H718 C728 0.930 . S
H719 C731 0.929 . S
H720 C734 0.930 . S
H721 C736 0.960 . S
H722 C736 0.960 . S
H723 C736 0.960 . S
C724 H716 0.929 . S
C724 C725 1.377 . S
C724 C726 1.384 . S
C725 C724 1.377 . S
C725 C731 1.390 . S
C726 H717 0.930 1_655 S
C726 C724 1.384 . S
C726 C727 1.372 . S
C727 C726 1.372 . S
C727 C728 1.400 . S
C727 C732 1.490 . S
C728 H718 0.930 . S
C728 C727 1.400 . S
C728 C731 1.386 . S
H729 C745 0.930 . S
H730 C746 0.931 1_655 S
C731 H719 0.929 . S
C731 C725 1.390 . S
C731 C728 1.386 . S
C732 C727 1.490 . S
C732 C734 1.395 1_655 S
C732 C735 1.403 . S
H733 C739 0.930 . S
C734 H720 0.930 . S
C734 C732 1.395 1_455 S
C734 C737 1.403 . S
C735 C732 1.403 . S
C735 C736 1.524 . S
C735 C739 1.400 . S
C736 H721 0.960 . S
C736 H722 0.960 . S
C736 H723 0.960 . S
C736 C735 1.524 . S
C737 C734 1.403 . S
C737 C738 1.392 . S
C737 C741 1.495 . S
C738 C737 1.392 . S
C738 C739 1.385 1_455 S
C738 C740 1.478 . S
C739 H733 0.930 . S
C739 C735 1.400 . S
C739 C738 1.385 1_655 S
C740 C738 1.478 . S
C740 C742 1.381 . S
C740 C746 1.383 . S
C741 C737 1.495 . S
C741 H747 0.959 . S
C741 H748 0.961 . S
C741 H749 0.960 . S
C742 C740 1.381 . S
C742 C743 1.394 . S
C742 H750 0.930 . S
C743 C742 1.394 . S
C743 C744 1.383 . S
C743 H751 0.929 . S
C744 C743 1.383 . S
C744 C745 1.377 . S
C745 H729 0.930 . S
C745 C744 1.377 . S
C745 C746 1.379 . S
C746 H730 0.931 1_455 S
C746 C740 1.383 . S
C746 C745 1.379 . S
H747 C741 0.959 . S
H748 C741 0.961 . S
H749 C741 0.960 . S
H750 C742 0.930 . S
H751 C743 0.929 . S
H752 C760 0.929 . S
H753 C762 0.930 . S
H754 C764 0.930 . S
H755 C767 0.929 . S
H756 C770 0.930 . S
H757 C772 0.960 . S
H758 C772 0.960 . S
H759 C772 0.960 . S
C760 H752 0.929 . S
C760 C761 1.377 . S
C760 C762 1.384 . S
C761 C760 1.377 . S
C761 C767 1.390 . S
C762 H753 0.930 . S
C762 C760 1.384 . S
C762 C763 1.372 . S
C763 C762 1.372 . S
C763 C764 1.400 . S
C763 C768 1.490 . S
C764 H754 0.930 . S
C764 C763 1.400 . S
C764 C767 1.386 . S
H765 C781 0.930 . S
H766 C782 0.931 . S
C767 H755 0.929 . S
C767 C761 1.390 . S
C767 C764 1.386 . S
C768 C763 1.490 . S
C768 C770 1.395 . S
C768 C771 1.403 . S
H769 C775 0.930 . S
C770 H756 0.930 . S
C770 C768 1.395 . S
C770 C773 1.403 . S
C771 C768 1.403 . S
C771 C772 1.524 . S
C771 C775 1.400 . S
C772 H757 0.960 . S
C772 H758 0.960 . S
C772 H759 0.960 . S
C772 C771 1.524 . S
C773 C770 1.403 . S
C773 C774 1.392 . S
C773 C777 1.495 . S
C774 C773 1.392 . S
C774 C775 1.385 . S
C774 C776 1.478 . S
C775 H769 0.930 . S
C775 C771 1.400 . S
C775 C774 1.385 . S
C776 C774 1.478 . S
C776 C778 1.381 . S
C776 C782 1.383 . S
C777 C773 1.495 . S
C777 H783 0.959 . S
C777 H784 0.961 . S
C777 H785 0.960 . S
C778 C776 1.381 . S
C778 C779 1.394 . S
C778 H786 0.930 . S
C779 C778 1.394 . S
C779 C780 1.383 . S
C779 H787 0.929 . S
C780 C779 1.383 . S
C780 C781 1.377 . S
C781 H765 0.930 . S
C781 C780 1.377 . S
C781 C782 1.379 . S
C782 H766 0.931 . S
C782 C776 1.383 . S
C782 C781 1.379 . S
H783 C777 0.959 . S
H784 C777 0.961 . S
H785 C777 0.960 . S
H786 C778 0.930 . S
H787 C779 0.929 . S
H788 C796 0.929 . S
H789 C798 0.930 . S
H790 C800 0.930 . S
H791 C803 0.947 . S
H792 C806 0.930 . S
H793 C808 0.960 . S
H794 C808 0.960 1_556 S
H795 C808 0.960 . S
C796 H788 0.929 . S
C796 C797 1.377 . S
C796 C798 1.384 . S
C797 C796 1.377 . S
C797 C803 1.390 . S
C798 H789 0.930 . S
C798 C796 1.384 . S
C798 C799 1.372 . S
C799 C798 1.372 . S
C799 C800 1.400 . S
C799 C804 1.490 . S
C800 H790 0.930 . S
C800 C799 1.400 . S
C800 C803 1.386 . S
H801 C817 0.930 . S
H802 C818 0.931 . S
C803 H791 0.947 . S
C803 C797 1.390 . S
C803 C800 1.386 . S
C804 C799 1.490 . S
C804 C806 1.395 . S
C804 C807 1.403 . S
H805 C811 0.930 . S
C806 H792 0.930 . S
C806 C804 1.395 . S
C806 C809 1.403 . S
C807 C804 1.403 . S
C807 C808 1.524 1_556 S
C807 C811 1.400 1_556 S
C808 H793 0.960 . S
C808 H794 0.960 1_554 S
C808 H795 0.960 . S
C808 C807 1.524 1_554 S
C809 C806 1.403 . S
C809 C810 1.392 1_556 S
C809 C813 1.495 . S
C810 C809 1.392 1_554 S
C810 C811 1.385 . S
C810 C812 1.478 . S
C811 H805 0.930 . S
C811 C807 1.400 1_554 S
C811 C810 1.385 . S
C812 C810 1.478 . S
C812 C814 1.381 . S
C812 C818 1.383 . S
C813 C809 1.495 . S
C813 H819 0.959 . S
C813 H820 0.961 . S
C813 H821 0.960 . S
C814 C812 1.381 . S
C814 C815 1.394 . S
C814 H822 0.958 . S
C815 C814 1.394 . S
C815 C816 1.383 . S
C815 H823 0.929 . S
C816 C815 1.383 . S
C816 C817 1.377 . S
C817 H801 0.930 . S
C817 C816 1.377 . S
C817 C818 1.379 . S
C818 H802 0.931 . S
C818 C812 1.383 . S
C818 C817 1.379 . S
H819 C813 0.959 . S
H820 C813 0.961 . S
H821 C813 0.960 . S
H822 C814 0.958 . S
H823 C815 0.929 . S
H824 C832 0.929 1_655 S
H825 C834 0.930 . S
H826 C836 0.930 . S
H827 C839 0.929 . S
H828 C842 0.930 . S
H829 C844 0.960 . S
H830 C844 0.960 . S
H831 C844 0.960 . S
C832 H824 0.929 1_455 S
C832 C833 1.377 . S
C832 C834 1.384 . S
C833 C832 1.377 . S
C833 C839 1.390 . S
C834 H825 0.930 . S
C834 C832 1.384 . S
C834 C835 1.372 . S
C835 C834 1.372 . S
C835 C836 1.400 . S
C835 C840 1.490 . S
C836 H826 0.930 . S
C836 C835 1.400 . S
C836 C839 1.386 . S
H837 C853 0.930 . S
H838 C854 0.931 . S
C839 H827 0.929 . S
C839 C833 1.390 . S
C839 C836 1.386 . S
C840 C835 1.490 . S
C840 C842 1.395 . S
C840 C843 1.403 . S
H841 C847 0.930 . S
C842 H828 0.930 . S
C842 C840 1.395 . S
C842 C845 1.403 . S
C843 C840 1.403 . S
C843 C844 1.524 . S
C843 C847 1.400 . S
C844 H829 0.960 . S
C844 H830 0.960 . S
C844 H831 0.960 . S
C844 C843 1.524 . S
C845 C842 1.403 . S
C845 C846 1.392 . S
C845 C849 1.495 . S
C846 C845 1.392 . S
C846 C847 1.385 . S
C846 C848 1.478 . S
C847 H841 0.930 . S
C847 C843 1.400 . S
C847 C846 1.385 . S
C848 C846 1.478 . S
C848 C850 1.381 . S
C848 C854 1.383 . S
C849 C845 1.495 . S
C849 H855 0.959 . S
C849 H856 0.961 . S
C849 H857 0.960 . S
C850 C848 1.381 . S
C850 C851 1.394 . S
C850 H858 0.930 . S
C851 C850 1.394 . S
C851 C852 1.383 . S
C851 H859 0.929 . S
C852 C851 1.383 . S
C852 C853 1.377 . S
C853 H837 0.930 . S
C853 C852 1.377 . S
C853 C854 1.379 . S
C854 H838 0.931 . S
C854 C848 1.383 . S
C854 C853 1.379 . S
H855 C849 0.959 . S
H856 C849 0.961 . S
H857 C849 0.960 . S
H858 C850 0.930 . S
H859 C851 0.929 . S
H860 C868 0.929 . S
H861 C870 0.930 . S
H862 C872 0.930 . S
H863 C875 0.929 . S
H864 C878 0.930 . S
H865 C880 0.960 . S
H866 C880 0.960 . S
H867 C880 0.960 . S
C868 H860 0.929 . S
C868 C869 1.377 . S
C868 C870 1.384 . S
C869 C868 1.377 . S
C869 C875 1.390 . S
C870 H861 0.930 . S
C870 C868 1.384 . S
C870 C871 1.372 . S
C871 C870 1.372 . S
C871 C872 1.400 . S
C871 C876 1.490 . S
C872 H862 0.930 . S
C872 C871 1.400 . S
C872 C875 1.386 . S
H873 C889 0.930 . S
H874 C890 0.954 . S
C875 H863 0.929 . S
C875 C869 1.390 . S
C875 C872 1.386 . S
C876 C871 1.490 . S
C876 C878 1.395 . S
C876 C879 1.403 . S
H877 C883 0.930 . S
C878 H864 0.930 . S
C878 C876 1.395 . S
C878 C881 1.403 1_554 S
C879 C876 1.403 . S
C879 C880 1.524 . S
C879 C883 1.400 . S
C880 H865 0.960 . S
C880 H866 0.960 . S
C880 H867 0.960 . S
C880 C879 1.524 . S
C881 C878 1.403 1_556 S
C881 C882 1.392 . S
C881 C885 1.495 . S
C882 C881 1.392 . S
C882 C883 1.385 1_556 S
C882 C884 1.478 . S
C883 H877 0.930 . S
C883 C879 1.400 . S
C883 C882 1.385 1_554 S
C884 C882 1.478 . S
C884 C886 1.381 . S
C884 C890 1.383 . S
C885 C881 1.495 . S
C885 H891 0.959 . S
C885 H892 0.961 . S
C885 H893 0.960 . S
C886 C884 1.381 . S
C886 C887 1.394 . S
C886 H894 0.930 . S
C887 C886 1.394 . S
C887 C888 1.383 . S
C887 H895 0.929 . S
C888 C887 1.383 . S
C888 C889 1.377 . S
C889 H873 0.930 . S
C889 C888 1.377 . S
C889 C890 1.379 . S
C890 H874 0.954 . S
C890 C884 1.383 . S
C890 C889 1.379 . S
H891 C885 0.959 . S
H892 C885 0.961 . S
H893 C885 0.960 . S
H894 C886 0.930 . S
H895 C887 0.929 . S
H896 C904 0.929 . S
H897 C906 0.930 . S
H898 C908 0.930 . S
H899 C911 0.929 . S
H900 C914 0.930 . S
H901 C916 0.960 . S
H902 C916 0.960 . S
H903 C916 0.960 . S
C904 H896 0.929 . S
C904 C905 1.377 . S
C904 C906 1.384 . S
C905 C904 1.377 . S
C905 C911 1.390 . S
C906 H897 0.930 . S
C906 C904 1.384 . S
C906 C907 1.372 . S
C907 C906 1.372 . S
C907 C908 1.400 . S
C907 C912 1.490 . S
C908 H898 0.930 . S
C908 C907 1.400 . S
C908 C911 1.386 . S
H909 C925 0.930 . S
H910 C926 0.931 . S
C911 H899 0.929 . S
C911 C905 1.390 . S
C911 C908 1.386 . S
C912 C907 1.490 . S
C912 C914 1.395 . S
C912 C915 1.403 . S
H913 C919 0.930 . S
C914 H900 0.930 . S
C914 C912 1.395 . S
C914 C917 1.403 . S
C915 C912 1.403 . S
C915 C916 1.524 . S
C915 C919 1.400 . S
C916 H901 0.960 . S
C916 H902 0.960 . S
C916 H903 0.960 . S
C916 C915 1.524 . S
C917 C914 1.403 . S
C917 C918 1.392 . S
C917 C921 1.495 . S
C918 C917 1.392 . S
C918 C919 1.385 . S
C918 C920 1.478 . S
C919 H913 0.930 . S
C919 C915 1.400 . S
C919 C918 1.385 . S
C920 C918 1.478 . S
C920 C922 1.381 . S
C920 C926 1.383 . S
C921 C917 1.495 . S
C921 H927 0.959 . S
C921 H928 0.961 . S
C921 H929 0.960 . S
C922 C920 1.381 . S
C922 C923 1.394 . S
C922 H930 0.930 . S
C923 C922 1.394 . S
C923 C924 1.383 . S
C923 H931 0.929 . S
C924 C923 1.383 . S
C924 C925 1.377 . S
C925 H909 0.930 . S
C925 C924 1.377 . S
C925 C926 1.379 . S
C926 H910 0.931 . S
C926 C920 1.383 . S
C926 C925 1.379 . S
H927 C921 0.959 . S
H928 C921 0.961 . S
H929 C921 0.960 . S
H930 C922 0.930 . S
H931 C923 0.929 . S
H932 C940 0.929 . S
H933 C942 0.930 . S
H934 C944 0.930 . S
H935 C947 0.929 1_655 S
H936 C950 0.930 . S
H937 C952 0.960 . S
H938 C952 0.960 . S
H939 C952 0.960 . S
C940 H932 0.929 . S
C940 C941 1.377 . S
C940 C942 1.384 . S
C941 C940 1.377 . S
C941 C947 1.390 . S
C942 H933 0.930 . S
C942 C940 1.384 . S
C942 C943 1.372 . S
C943 C942 1.372 . S
C943 C944 1.400 . S
C943 C948 1.490 . S
C944 H934 0.930 . S
C944 C943 1.400 . S
C944 C947 1.386 . S
H945 C961 0.930 . S
H946 C962 0.931 . S
C947 H935 0.929 1_455 S
C947 C941 1.390 . S
C947 C944 1.386 . S
C948 C943 1.490 . S
C948 C950 1.395 . S
C948 C951 1.403 . S
H949 C955 0.930 . S
C950 H936 0.930 . S
C950 C948 1.395 . S
C950 C953 1.403 . S
C951 C948 1.403 . S
C951 C952 1.524 1_554 S
C951 C955 1.400 1_554 S
C952 H937 0.960 . S
C952 H938 0.960 . S
C952 H939 0.960 . S
C952 C951 1.524 1_556 S
C953 C950 1.403 . S
C953 C954 1.392 1_554 S
C953 C957 1.495 . S
C954 C953 1.392 1_556 S
C954 C955 1.385 . S
C954 C956 1.478 . S
C955 H949 0.930 . S
C955 C951 1.400 1_556 S
C955 C954 1.385 . S
C956 C954 1.478 . S
C956 C958 1.381 . S
C956 C962 1.383 . S
C957 C953 1.495 . S
C957 H963 0.959 . S
C957 H964 0.961 . S
C957 H965 0.960 . S
C958 C956 1.381 . S
C958 C959 1.394 . S
C958 H966 0.930 . S
C959 C958 1.394 . S
C959 C960 1.383 . S
C959 H967 0.929 . S
C960 C959 1.383 . S
C960 C961 1.377 . S
C961 H945 0.930 . S
C961 C960 1.377 . S
C961 C962 1.379 . S
C962 H946 0.931 . S
C962 C956 1.383 . S
C962 C961 1.379 . S
H963 C957 0.959 . S
H964 C957 0.961 . S
H965 C957 0.960 . S
H966 C958 0.930 . S
H967 C959 0.929 . S
H968 C976 0.929 . S
H969 C978 0.930 . S
H970 C980 0.930 . S
H971 C983 0.929 . S
H972 C986 0.930 . S
H973 C988 0.960 . S
H974 C988 0.960 . S
H975 C988 0.960 . S
C976 H968 0.929 . S
C976 C977 1.377 . S
C976 C978 1.384 . S
C977 C976 1.377 . S
C977 C983 1.390 . S
C978 H969 0.930 . S
C978 C976 1.384 . S
C978 C979 1.372 . S
C979 C978 1.372 . S
C979 C980 1.400 . S
C979 C984 1.490 . S
C980 H970 0.930 . S
C980 C979 1.400 . S
C980 C983 1.386 . S
H981 C997 0.930 . S
H982 C998 0.931 . S
C983 H971 0.929 . S
C983 C977 1.390 . S
C983 C980 1.386 . S
C984 C979 1.490 . S
C984 C986 1.395 . S
C984 C987 1.403 . S
H985 C991 0.930 . S
C986 H972 0.930 . S
C986 C984 1.395 . S
C986 C989 1.403 . S
C987 C984 1.403 . S
C987 C988 1.524 . S
C987 C991 1.400 . S
C988 H973 0.960 . S
C988 H974 0.960 . S
C988 H975 0.960 . S
C988 C987 1.524 . S
C989 C986 1.403 . S
C989 C990 1.392 . S
C989 C993 1.495 . S
C990 C989 1.392 . S
C990 C991 1.385 . S
C990 C992 1.478 . S
C991 H985 0.930 . S
C991 C987 1.400 . S
C991 C990 1.385 . S
C992 C990 1.478 . S
C992 C994 1.381 . S
C992 C998 1.383 . S
C993 C989 1.495 . S
C993 H999 0.959 . S
C993 H1000 0.961 . S
C993 H1001 0.960 . S
C994 C992 1.381 . S
C994 C995 1.394 . S
C994 H1002 0.930 . S
C995 C994 1.394 . S
C995 C996 1.383 . S
C995 H1003 0.929 . S
C996 C995 1.383 . S
C996 C997 1.377 . S
C997 H981 0.930 . S
C997 C996 1.377 . S
C997 C998 1.379 . S
C998 H982 0.931 . S
C998 C992 1.383 . S
C998 C997 1.379 . S
H999 C993 0.959 . S
H1000 C993 0.961 . S
H1001 C993 0.960 . S
H1002 C994 0.930 . S
H1003 C995 0.929 . S
H1004 C1012 0.929 . S
H1005 C1014 0.930 . S
H1006 C1016 0.930 . S
H1007 C1019 0.929 . S
H1008 C1022 0.930 . S
H1009 C1024 0.960 . S
H1010 C1024 0.960 . S
H1011 C1024 0.960 . S
C1012 H1004 0.929 . S
C1012 C1013 1.377 . S
C1012 C1014 1.384 . S
C1013 C1012 1.377 . S
C1013 C1019 1.390 . S
C1014 H1005 0.930 . S
C1014 C1012 1.384 . S
C1014 C1015 1.372 . S
C1015 C1014 1.372 . S
C1015 C1016 1.400 . S
C1015 C1020 1.490 . S
C1016 H1006 0.930 . S
C1016 C1015 1.400 . S
C1016 C1019 1.386 . S
H1017 C1033 0.930 . S
H1018 C1034 0.931 . S
C1019 H1007 0.929 . S
C1019 C1013 1.390 . S
C1019 C1016 1.386 . S
C1020 C1015 1.490 . S
C1020 C1022 1.395 1_554 S
C1020 C1023 1.403 . S
H1021 C1027 0.930 . S
C1022 H1008 0.930 . S
C1022 C1020 1.395 1_556 S
C1022 C1025 1.403 . S
C1023 C1020 1.403 . S
C1023 C1024 1.524 . S
C1023 C1027 1.400 1_554 S
C1024 H1009 0.960 . S
C1024 H1010 0.960 . S
C1024 H1011 0.960 . S
C1024 C1023 1.524 . S
C1025 C1022 1.403 . S
C1025 C1026 1.392 . S
C1025 C1029 1.495 . S
C1026 C1025 1.392 . S
C1026 C1027 1.385 . S
C1026 C1028 1.478 . S
C1027 H1021 0.930 . S
C1027 C1023 1.400 1_556 S
C1027 C1026 1.385 . S
C1028 C1026 1.478 . S
C1028 C1030 1.381 . S
C1028 C1034 1.383 . S
C1029 C1025 1.495 . S
C1029 H1035 0.959 . S
C1029 H1036 0.961 . S
C1029 H1037 0.960 . S
C1030 C1028 1.381 . S
C1030 C1031 1.394 . S
C1030 H1038 0.930 . S
C1031 C1030 1.394 . S
C1031 C1032 1.383 . S
C1031 H1039 0.929 . S
C1032 C1031 1.383 . S
C1032 C1033 1.377 . S
C1033 H1017 0.930 . S
C1033 C1032 1.377 . S
C1033 C1034 1.379 . S
C1034 H1018 0.931 . S
C1034 C1028 1.383 . S
C1034 C1033 1.379 . S
H1035 C1029 0.959 . S
H1036 C1029 0.961 . S
H1037 C1029 0.960 . S
H1038 C1030 0.930 . S
H1039 C1031 0.929 . S
C185 C153 1.496 . S
C204 C10 1.497 . S
C221 C30 1.483 . S
C240 C169 1.482 . S
C257 C109 1.500 . S
C276 C54 1.461 . S
C293 C76 1.485 . S
C312 C131 1.486 . S
C329 C65 1.496 . S
C348 C98 1.463 . S
C365 C120 1.480 . S
C384 C87 1.493 . S
C401 C21 1.496 . S
C420 C142 1.474 . S
C437 C29 1.495 . S
C456 C172 1.461 . S
C473 C7 0.777 . S
C492 C95 0.815 . S
C509 C117 0.771 . S
C528 C37 0.730 . S
C545 C51 0.757 . S
C564 C139 0.737 . S
C581 C175 0.777 . S
C600 C73 0.814 . S
C617 C74 1.553 . S
C636 C8 1.538 . S
C653 C40 1.552 . S
C672 C52 1.538 . S
C689 C164 1.549 . S
C708 C96 1.538 . S
C725 C118 1.552 . S
C744 C140 1.549 . S
C761 C18 1.423 . S
C780 C59 1.424 . S
C797 C32 1.423 1_655 S
C816 C81 1.425 . S
C833 C62 1.416 1_455 S
C852 C15 1.462 . S
C869 C84 1.419 . S
C888 C43 1.462 . S
C905 C106 1.426 . S
C924 C147 1.452 . S
C941 C128 1.419 1_455 S
C960 C161 1.439 . S
C977 C150 1.428 1_655 S
C996 C103 1.461 . S
C1013 C125 1.448 . S
C1032 C162 1.446 . S
