# Generated by pormake.
# Topology ske, (6)-cn, num edge types: 1
# Building blocks:
#     Node 0, Type 0, BuildingBlock: KUMBOL_clean_sbu_0, # of connection points: 6
#     Node 1, Type 0, BuildingBlock: KUMBOL_clean_sbu_0, # of connection points: 6
#     Node 2, Type 0, BuildingBlock: KUMBOL_clean_sbu_0, # of connection points: 6
#     Node 3, Type 0, BuildingBlock: KUMBOL_clean_sbu_0, # of connection points: 6
#     Node 4, Type 0, BuildingBlock: KUMBOL_clean_sbu_0, # of connection points: 6
#     Node 5, Type 0, BuildingBlock: KUMBOL_clean_sbu_0, # of connection points: 6
#     Node 6, Type 0, BuildingBlock: KUMBOL_clean_sbu_0, # of connection points: 6
#     Node 7, Type 0, BuildingBlock: KUMBOL_clean_sbu_0, # of connection points: 6
#     Edge 8, Type (0, 0), BuildingBlock: OJICUG_clean_linker_0, # of connection points: 2
#     Edge 9, Type (0, 0), BuildingBlock: OJICUG_clean_linker_0, # of connection points: 2
#     Edge 10, Type (0, 0), BuildingBlock: OJICUG_clean_linker_0, # of connection points: 2
#     Edge 11, Type (0, 0), BuildingBlock: OJICUG_clean_linker_0, # of connection points: 2
#     Edge 12, Type (0, 0), BuildingBlock: OJICUG_clean_linker_0, # of connection points: 2
#     Edge 13, Type (0, 0), BuildingBlock: OJICUG_clean_linker_0, # of connection points: 2
#     Edge 14, Type (0, 0), BuildingBlock: OJICUG_clean_linker_0, # of connection points: 2
#     Edge 15, Type (0, 0), BuildingBlock: OJICUG_clean_linker_0, # of connection points: 2
#     Edge 16, Type (0, 0), BuildingBlock: OJICUG_clean_linker_0, # of connection points: 2
#     Edge 17, Type (0, 0), BuildingBlock: OJICUG_clean_linker_0, # of connection points: 2
#     Edge 18, Type (0, 0), BuildingBlock: OJICUG_clean_linker_0, # of connection points: 2
#     Edge 19, Type (0, 0), BuildingBlock: OJICUG_clean_linker_0, # of connection points: 2
#     Edge 20, Type (0, 0), BuildingBlock: OJICUG_clean_linker_0, # of connection points: 2
#     Edge 21, Type (0, 0), BuildingBlock: OJICUG_clean_linker_0, # of connection points: 2
#     Edge 22, Type (0, 0), BuildingBlock: OJICUG_clean_linker_0, # of connection points: 2
#     Edge 23, Type (0, 0), BuildingBlock: OJICUG_clean_linker_0, # of connection points: 2
#     Edge 24, Type (0, 0), BuildingBlock: OJICUG_clean_linker_0, # of connection points: 2
#     Edge 25, Type (0, 0), BuildingBlock: OJICUG_clean_linker_0, # of connection points: 2
#     Edge 26, Type (0, 0), BuildingBlock: OJICUG_clean_linker_0, # of connection points: 2
#     Edge 27, Type (0, 0), BuildingBlock: OJICUG_clean_linker_0, # of connection points: 2
#     Edge 28, Type (0, 0), BuildingBlock: OJICUG_clean_linker_0, # of connection points: 2
#     Edge 29, Type (0, 0), BuildingBlock: OJICUG_clean_linker_0, # of connection points: 2
#     Edge 30, Type (0, 0), BuildingBlock: OJICUG_clean_linker_0, # of connection points: 2
#     Edge 31, Type (0, 0), BuildingBlock: OJICUG_clean_linker_0, # of connection points: 2
# Relax obj value: 0.111
# Max RMSD: 0.193
# Mean RMSD: 0.188
data_MOF--net-ske--node1-KUMBOL_clean_sbu_0--edge1-OJICUG_clean_linker_0
_symmetry_space_group_name_H-M    P1
_symmetry_Int_Tables_number       1
_symmetry_cell_setting            triclinic
loop_
_symmetry_equiv_pos_as_xyz
'x, y, z'
_cell_length_a     82.620433
_cell_length_b     22.28354
_cell_length_c     10.600333
_cell_angle_alpha  90.172106
_cell_angle_beta   89.850376
_cell_angle_gamma 115.65836
loop_
_atom_site_label
_atom_site_type_symbol
_atom_site_fract_x
_atom_site_fract_y
_atom_site_fract_z
_atom_type_partial_charge
Gd0 Gd 0.15545 0.26894 0.56634 0.0
Gd1 Gd 0.10697 0.19569 0.57471 0.0
C2 C 0.08958 0.20581 0.98262 0.0
C3 C 0.07732 0.09027 0.04785 0.0
C4 C 0.08913 0.12181 0.83479 0.0
C5 C 0.09347 0.18777 0.86214 0.0
C6 C 0.08057 0.07216 0.92681 0.0
C7 C 0.0818 0.15695 0.07567 0.0
C8 C 0.09354 0.27245 1.00612 0.0
C9 C 0.10078 0.31903 0.91003 0.0
N10 N 0.10133 0.2343 0.77113 0.0
C11 C 0.10438 0.29893 0.79245 0.0
H12 H 0.10927 0.33558 0.7194 0.0
C13 C 0.08532 0.03998 0.68134 0.0
N14 N 0.09241 0.10569 0.71684 0.0
C15 C 0.07703 0.98925 0.7694 0.0
C16 C 0.07498 0.00543 0.89349 0.0
H17 H 0.08563 0.02591 0.58409 0.0
H18 H 0.07897 0.17011 0.16896 0.0
H19 H 0.15418 0.13853 0.39456 0.0
H20 H 0.09081 0.28822 0.09731 0.0
H21 H 0.10348 0.3705 0.9261 0.0
H22 H 0.07098 0.05288 0.11983 0.0
H23 H 0.17906 0.4357 0.59774 0.0
H24 H 0.1743 0.2063 1.02587 0.0
H25 H 0.16116 0.11518 0.18105 0.0
H26 H 0.19501 0.44223 0.05404 0.0
H27 H 0.0719 0.93762 0.74073 0.0
H28 H 0.06837 0.96597 0.96133 0.0
H29 H 0.18642 0.32807 0.97833 0.0
H30 H 0.19484 0.53392 0.4629 0.0
N31 N 0.16226 0.24199 0.36262 0.0
C32 C 0.17113 0.21696 0.12013 0.0
C33 C 0.16368 0.16544 0.2073 0.0
C34 C 0.17486 0.28192 0.15681 0.0
C35 C 0.17041 0.29313 0.28074 0.0
C36 C 0.15951 0.17899 0.32886 0.0
N37 N 0.17198 0.36616 0.44556 0.0
C38 C 0.17508 0.35717 0.32284 0.0
C39 C 0.18911 0.48457 0.42167 0.0
C40 C 0.19107 0.47626 0.29304 0.0
C41 C 0.17997 0.42869 0.49741 0.0
C42 C 0.18454 0.41195 0.2428 0.0
H43 H 0.1984 0.51956 0.23481 0.0
O44 O 0.18086 0.32217 0.66444 0.0
O45 O 0.13162 0.2198 0.69827 0.0
O46 O 0.11778 0.30425 0.52019 0.0
O47 O 0.14753 0.35317 0.58544 0.0
O48 O 0.15305 0.30568 0.76155 0.0
O49 O 0.17316 0.22141 0.60332 0.0
O50 O 0.08172 0.13536 0.48218 0.0
O51 O 0.13078 0.2437 0.44296 0.0
O52 O 0.14439 0.15801 0.59819 0.0
O53 O 0.11421 0.11115 0.54322 0.0
O54 O 0.10902 0.16019 0.37711 0.0
O55 O 0.08696 0.23418 0.54516 0.0
C56 C 0.13773 0.25883 0.79414 0.0
C57 C 0.18801 0.40084 0.11726 0.0
C58 C 0.1832 0.3359 0.07436 0.0
C59 C 0.18575 0.27419 0.65386 0.0
C60 C 0.20434 0.29267 0.60997 0.0
C61 C 0.211 0.33248 0.50259 0.0
C62 C 0.21566 0.27105 0.67624 0.0
C63 C 0.23356 0.28964 0.6359 0.0
C64 C 0.22855 0.35062 0.46173 0.0
C65 C 0.23975 0.32953 0.52752 0.0
C66 C 0.13291 0.35696 0.54617 0.0
C67 C 0.12463 0.20573 0.34578 0.0
C68 C 0.07511 0.17825 0.49892 0.0
C69 C 0.05646 0.15212 0.54859 0.0
C70 C 0.04849 0.0896 0.60753 0.0
C71 C 0.04612 0.18798 0.53086 0.0
C72 C 0.02787 0.16111 0.56927 0.0
C73 C 0.03062 0.06292 0.64619 0.0
C74 C 0.02036 0.09782 0.62647 0.0
C75 C 0.12912 0.10648 0.5703 0.0
H76 H 0.20269 0.34986 0.45038 0.0
H77 H 0.21061 0.24075 0.75992 0.0
H78 H 0.23349 0.38119 0.37839 0.0
H79 H 0.25322 0.34372 0.49216 0.0
H80 H 0.0559 0.06047 0.62186 0.0
H81 H 0.05236 0.23657 0.48698 0.0
H82 H 0.02459 0.01428 0.68997 0.0
H83 H 1.00638 0.07418 0.65423 0.0
Gd84 Gd 0.85796 0.21176 0.52231 0.0
Gd85 Gd 0.90666 0.28904 0.54273 0.0
C86 C 0.9373 0.38072 0.90486 0.0
C87 C 0.95235 0.49821 0.85147 0.0
C88 C 0.93319 0.41769 0.69765 0.0
C89 C 0.92937 0.36687 0.78398 0.0
C90 C 0.94495 0.48383 0.72978 0.0
C91 C 0.94852 0.44678 0.93888 0.0
C92 C 0.93411 0.32758 0.98669 0.0
C93 C 0.92377 0.2625 0.94565 0.0
N94 N 0.91858 0.30353 0.74794 0.0
C95 C 0.91628 0.25127 0.82467 0.0
H96 H 0.90833 0.2007 0.79401 0.0
C97 C 0.93046 0.44995 0.48924 0.0
N98 N 0.92582 0.40214 0.58078 0.0
C99 C 0.94205 0.51619 0.51679 0.0
C100 C 0.94919 0.53334 0.6379 0.0
H101 H 0.92503 0.43739 0.39532 0.0
H102 H 0.95461 0.45841 0.03161 0.0
H103 H 0.85587 0.30673 0.2815 0.0
H104 H 0.93989 0.33614 0.08044 0.0
H105 H 0.92149 0.22094 1.00724 0.0
H106 H 0.96132 0.54878 0.87811 0.0
H107 H 0.83623 0.06163 0.65487 0.0
H108 H 0.82923 0.17967 0.97128 0.0
H109 H 0.8447 0.29246 0.06359 0.0
H110 H 0.80963 0.96073 0.14392 0.0
H111 H 0.94546 0.554 0.44463 0.0
H112 H 0.95817 0.58466 0.6589 0.0
H113 H 0.81663 0.05575 1.00104 0.0
H114 H 0.81811 0.94497 0.58823 0.0
N115 N 0.84727 0.20303 0.31337 0.0
C116 C 0.8341 0.18558 0.0675 0.0
C117 C 0.84277 0.24928 0.11939 0.0
C118 C 0.83132 0.13018 0.14179 0.0
C119 C 0.83798 0.14071 0.26639 0.0
C120 C 0.84911 0.25711 0.24352 0.0
N121 N 0.83911 0.10032 0.46874 0.0
C122 C 0.83391 0.08747 0.34654 0.0
C123 C 0.82253 0.98458 0.51918 0.0
C124 C 0.8181 0.97011 0.39208 0.0
C125 C 0.83276 0.05058 0.55658 0.0
C126 C 0.8233 0.022 0.30459 0.0
H127 H 0.81022 0.91915 0.36295 0.0
O128 O 0.83531 0.18638 0.65083 0.0
O129 O 0.88127 0.25911 0.65763 0.0
O130 O 0.89521 0.17816 0.57934 0.0
O131 O 0.86684 0.1313 0.48697 0.0
O132 O 0.85952 0.17793 0.72346 0.0
O133 O 0.84156 0.2665 0.51859 0.0
O134 O 0.92673 0.30343 0.39907 0.0
O135 O 0.88331 0.23987 0.40765 0.0
O136 O 0.8705 0.32277 0.48391 0.0
O137 O 0.8976 0.36778 0.59108 0.0
O138 O 0.90477 0.32259 0.34234 0.0
O139 O 0.92554 0.24479 0.56388 0.0
C140 C 0.87515 0.22242 0.75567 0.0
C141 C 0.81764 0.01079 0.1783 0.0
C142 C 0.82161 0.06487 0.09703 0.0
C143 C 0.83027 0.22941 0.60344 0.0
C144 C 0.81094 0.20446 0.57285 0.0
C145 C 0.80322 0.15509 0.48061 0.0
C146 C 0.80004 0.2296 0.63555 0.0
C147 C 0.78155 0.20529 0.60584 0.0
C148 C 0.78506 0.13077 0.45108 0.0
C149 C 0.77429 0.15539 0.51309 0.0
C150 C 0.88111 0.12711 0.53307 0.0
C151 C 0.88935 0.2768 0.30961 0.0
C152 C 0.93445 0.27283 0.46218 0.0
C153 C 0.95433 0.30675 0.47108 0.0
C154 C 0.96359 0.37601 0.45443 0.0
C155 C 0.96428 0.26953 0.48952 0.0
C156 C 0.98326 0.30114 0.48811 0.0
C157 C 0.98231 0.4074 0.4543 0.0
C158 C 0.99209 0.37033 0.47011 0.0
C159 C 0.8839 0.37343 0.53819 0.0
H160 H 0.81119 0.13503 0.43155 0.0
H161 H 0.80599 0.26827 0.70606 0.0
H162 H 0.77928 0.09228 0.38016 0.0
H163 H 0.76015 0.13438 0.48958 0.0
H164 H 0.95641 0.40598 0.43937 0.0
H165 H 0.9573 0.21602 0.50161 0.0
H166 H 0.98926 0.46068 0.44064 0.0
H167 H 1.00662 0.39585 0.46949 0.0
Gd168 Gd 0.10779 0.69205 0.5005 0.0
Gd169 Gd 0.15638 0.77561 0.52203 0.0
C170 C 0.18528 0.87098 0.88801 0.0
C171 C 0.19758 0.98907 0.83929 0.0
C172 C 0.18041 0.90661 0.68175 0.0
C173 C 0.17768 0.85601 0.76632 0.0
C174 C 0.1906 0.9737 0.71655 0.0
C175 C 0.19494 0.93778 0.92485 0.0
C176 C 0.18336 0.81834 0.96774 0.0
C177 C 0.17449 0.75292 0.92403 0.0
N178 N 0.16841 0.79206 0.72717 0.0
C179 C 0.16724 0.74065 0.8023 0.0
H180 H 0.16036 0.68985 0.76998 0.0
C181 C 0.17739 0.93787 0.47318 0.0
N182 N 0.17367 0.8899 0.5634 0.0
C183 C 0.18725 0.00513 0.50362 0.0
C184 C 0.19372 0.02318 0.62614 0.0
H185 H 0.17236 0.92464 0.37844 0.0
H186 H 0.20074 0.95026 1.01833 0.0
H187 H 0.10501 0.77898 0.25112 0.0
H188 H 0.18895 0.82769 0.06208 0.0
H189 H 0.17315 0.71188 0.98423 0.0
H190 H 0.20535 0.04035 0.86808 0.0
H191 H 0.09124 0.54303 0.64505 0.0
H192 H 0.0749 0.64202 0.96191 0.0
H193 H 0.09197 0.75772 0.03733 0.0
H194 H 0.0562 0.4292 0.15978 0.0
H195 H 0.1898 0.04302 0.43269 0.0
H196 H 0.2013 0.07529 0.64926 0.0
H197 H 0.06172 0.51948 1.00818 0.0
H198 H 0.07222 0.42529 0.5935 0.0
N199 N 0.09596 0.67639 0.29511 0.0
C200 C 0.08062 0.65105 0.05586 0.0
C201 C 0.09021 0.71642 0.09814 0.0
C202 C 0.07812 0.59814 0.13658 0.0
C203 C 0.08593 0.61263 0.25773 0.0
C204 C 0.09762 0.72824 0.21935 0.0
N205 N 0.09002 0.57802 0.46012 0.0
C206 C 0.08281 0.56187 0.3429 0.0
C207 C 0.07515 0.46317 0.52201 0.0
C208 C 0.0682 0.44552 0.40048 0.0
C209 C 0.08593 0.53005 0.55087 0.0
C210 C 0.07184 0.49512 0.30948 0.0
H211 H 0.05981 0.39368 0.37856 0.0
O212 O 0.08639 0.67108 0.63697 0.0
O213 O 0.13089 0.74176 0.63633 0.0
O214 O 0.14511 0.66525 0.56355 0.0
O215 O 0.11842 0.61765 0.45174 0.0
O216 O 0.10957 0.65953 0.7026 0.0
O217 O 0.08905 0.73695 0.48107 0.0
O218 O 0.17897 0.80246 0.39296 0.0
O219 O 0.13328 0.72545 0.38599 0.0
O220 O 0.11907 0.80348 0.46567 0.0
O221 O 0.14542 0.8474 0.58071 0.0
O222 O 0.15433 0.80859 0.32082 0.0
O223 O 0.17379 0.72502 0.53053 0.0
C224 C 0.12502 0.70529 0.73482 0.0
C225 C 0.06456 0.4802 0.18749 0.0
C226 C 0.06771 0.5316 0.10117 0.0
C227 C 0.07922 0.70444 0.57643 0.0
C228 C 0.05949 0.67057 0.55709 0.0
C229 C 0.0507 0.60108 0.54285 0.0
C230 C 0.04918 0.70723 0.5579 0.0
C231 C 0.03024 0.67441 0.54751 0.0
C232 C 0.03207 0.56864 0.53119 0.0
C233 C 0.02189 0.6048 0.5342 0.0
C234 C 0.13227 0.61388 0.50664 0.0
C235 C 0.13902 0.76229 0.28798 0.0
C236 C 0.18463 0.76159 0.4428 0.0
C237 C 0.20411 0.78895 0.46968 0.0
C238 C 0.21208 0.84181 0.55491 0.0
C239 C 0.21493 0.76288 0.40906 0.0
C240 C 0.23361 0.78974 0.43349 0.0
C241 C 0.2304 0.86811 0.58053 0.0
C242 C 0.24109 0.84239 0.52072 0.0
C243 C 0.13162 0.85279 0.52916 0.0
H244 H 0.05815 0.57152 0.54243 0.0
H245 H 0.05582 0.76084 0.5696 0.0
H246 H 0.02548 0.51509 0.52065 0.0
H247 H 0.00744 0.57833 0.52473 0.0
H248 H 0.20418 0.86299 0.6015 0.0
H249 H 0.20885 0.72262 0.34171 0.0
H250 H 0.23635 0.9087 0.6472 0.0
H251 H 0.25524 0.86339 0.54409 0.0
Gd252 Gd 0.90668 0.79225 0.51245 0.0
Gd253 Gd 0.85794 0.70913 0.5344 0.0
C254 C 0.83136 0.62374 0.91336 0.0
C255 C 0.81793 0.50462 0.87272 0.0
C256 C 0.83438 0.58278 0.70719 0.0
C257 C 0.83815 0.63539 0.78901 0.0
C258 C 0.82373 0.51686 0.74674 0.0
C259 C 0.82174 0.55803 0.95597 0.0
C260 C 0.83381 0.67844 0.9894 0.0
C261 C 0.84225 0.74252 0.93929 0.0
N262 N 0.84721 0.69815 0.74377 0.0
C263 C 0.84868 0.75146 0.81518 0.0
H264 H 0.85522 0.80135 0.77832 0.0
C265 C 0.83348 0.54769 0.49577 0.0
N266 N 0.83971 0.59673 0.58536 0.0
C267 C 0.82317 0.48136 0.53059 0.0
C268 C 0.81852 0.46569 0.65707 0.0
H269 H 0.83697 0.55958 0.39776 0.0
H270 H 0.81664 0.54809 0.05168 0.0
H271 H 0.90948 0.70507 0.26209 0.0
H272 H 0.82884 0.67167 0.08551 0.0
H273 H 0.8439 0.78513 0.99638 0.0
H274 H 0.80991 0.45428 0.90535 0.0
H275 H 0.92303 0.94139 0.6577 0.0
H276 H 0.93974 0.84194 0.97376 0.0
H277 H 0.92264 0.72627 0.04842 0.0
H278 H 0.95845 0.05479 0.17319 0.0
H279 H 0.81875 0.44244 0.45982 0.0
H280 H 0.81036 0.41436 0.68359 0.0
H281 H 0.95294 0.96445 1.02093 0.0
H282 H 0.94223 0.05908 0.60703 0.0
N283 N 0.91846 0.80766 0.30671 0.0
C284 C 0.93396 0.83294 0.06764 0.0
C285 C 0.92435 0.7676 0.10951 0.0
C286 C 0.93642 0.88588 0.14875 0.0
C287 C 0.92853 0.87144 0.2698 0.0
C288 C 0.91687 0.75581 0.23067 0.0
N289 N 0.92433 0.9063 0.47251 0.0
C290 C 0.93163 0.92231 0.35537 0.0
C291 C 0.93928 0.02114 0.53525 0.0
C292 C 0.94632 0.03867 0.41384 0.0
C293 C 0.9284 0.95433 0.5636 0.0
C294 C 0.94268 0.98901 0.32244 0.0
H295 H 0.95478 0.09046 0.39232 0.0
O296 O 0.92845 0.81623 0.64649 0.0
O297 O 0.88349 0.74061 0.64841 0.0
O298 O 0.86953 0.82028 0.57274 0.0
O299 O 0.8962 0.86642 0.4606 0.0
O300 O 0.90459 0.82448 0.71401 0.0
O301 O 0.92565 0.74838 0.49292 0.0
O302 O 0.83565 0.68309 0.403 0.0
O303 O 0.88116 0.75866 0.39885 0.0
O304 O 0.89637 0.68135 0.4788 0.0
O305 O 0.86762 0.63072 0.56622 0.0
O306 O 0.85988 0.67613 0.33256 0.0
O307 O 0.84024 0.75866 0.5434 0.0
C308 C 0.88935 0.77758 0.74676 0.0
C309 C 0.95003 0.00383 0.20054 0.0
C310 C 0.94689 0.95239 0.11382 0.0
C311 C 0.93568 0.78276 0.58609 0.0
C312 C 0.95534 0.81739 0.56305 0.0
C313 C 0.96382 0.88668 0.54636 0.0
C314 C 0.96587 0.78154 0.56101 0.0
C315 C 0.98476 0.8148 0.544 0.0
C316 C 0.98233 0.91972 0.52874 0.0
C317 C 0.99274 0.88445 0.52859 0.0
C318 C 0.88245 0.87115 0.5153 0.0
C319 C 0.87535 0.72186 0.30044 0.0
C320 C 0.8296 0.72248 0.45457 0.0
C321 C 0.81005 0.69327 0.48135 0.0
C322 C 0.80241 0.6408 0.56746 0.0
C323 C 0.79885 0.71726 0.42036 0.0
C324 C 0.78012 0.68857 0.44496 0.0
C325 C 0.78403 0.61233 0.59233 0.0
C326 C 0.77295 0.63585 0.53177 0.0
C327 C 0.88236 0.62899 0.52239 0.0
H328 H 0.95624 0.91573 0.54861 0.0
H329 H 0.95931 0.72796 0.57232 0.0
H330 H 0.98867 0.97318 0.5165 0.0
H331 H 1.00713 0.91231 0.51856 0.0
H332 H 0.81061 0.62169 0.61569 0.0
H333 H 0.80467 0.75758 0.35311 0.0
H334 H 0.77835 0.57196 0.65943 0.0
H335 H 0.75878 0.61343 0.55487 0.0
Gd336 Gd 0.65647 0.78138 0.11943 0.0
Gd337 Gd 0.60758 0.70408 0.14087 0.0
C338 C 0.58998 0.71787 0.5466 0.0
C339 C 0.5751 0.60173 0.60807 0.0
C340 C 0.58811 0.63219 0.39782 0.0
C341 C 0.59371 0.69893 0.42641 0.0
C342 C 0.57842 0.58288 0.4879 0.0
C343 C 0.58085 0.66905 0.63732 0.0
C344 C 0.59564 0.78543 0.57279 0.0
C345 C 0.60474 0.83237 0.48057 0.0
N346 N 0.60295 0.74535 0.33795 0.0
C347 C 0.60828 0.81155 0.36351 0.0
H348 H 0.61561 0.84951 0.29623 0.0
C349 C 0.58393 0.54971 0.24475 0.0
N350 N 0.5916 0.61523 0.28116 0.0
C351 C 0.57445 0.49924 0.33084 0.0
C352 C 0.57194 0.51585 0.45374 0.0
H353 H 0.58483 0.53615 0.14803 0.0
H354 H 0.57809 0.68285 0.73025 0.0
H355 H 0.65852 0.69071 0.87036 0.0
H356 H 0.59309 0.80185 0.66388 0.0
H357 H 0.60921 0.88487 0.49994 0.0
H358 H 0.56785 0.56455 0.67851 0.0
H359 H 0.67721 0.9294 0.26394 0.0
H360 H 0.68729 0.82328 0.5729 0.0
H361 H 0.67058 0.70885 0.65441 0.0
H362 H 0.70861 0.03831 0.76674 0.0
H363 H 0.5688 0.4476 0.30157 0.0
H364 H 0.56446 0.47666 0.52014 0.0
H365 H 0.70112 0.94635 0.61494 0.0
H366 H 0.69732 0.0459 0.20962 0.0
N367 N 0.66763 0.79396 0.91111 0.0
C368 C 0.68196 0.8157 0.66809 0.0
C369 C 0.6726 0.75106 0.7139 0.0
C370 C 0.68494 0.86976 0.7474 0.0
C371 C 0.67764 0.8571 0.87037 0.0
C372 C 0.66574 0.74106 0.83688 0.0
N373 N 0.67573 0.89387 0.07568 0.0
C374 C 0.68189 0.9088 0.95551 0.0
C375 C 0.69301 0.00789 0.13711 0.0
C376 C 0.69878 0.02453 1.01269 0.0
C377 C 0.68163 0.94184 0.16758 0.0
C378 C 0.69348 0.97459 0.92044 0.0
H379 H 0.70767 0.07568 0.98951 0.0
O380 O 0.67878 0.80455 0.25007 0.0
O381 O 0.633 0.73032 0.25495 0.0
O382 O 0.6172 0.81327 0.09304 0.0
O383 O 0.64844 0.86392 0.07564 0.0
O384 O 0.65445 0.81373 0.32055 0.0
O385 O 0.6734 0.729 0.10826 0.0
O386 O 0.58278 0.64466 0.04182 0.0
O387 O 0.6309 0.74927 1.0058 0.0
O388 O 0.64575 0.67131 0.07988 0.0
O389 O 0.61564 0.61975 0.13975 0.0
O390 O 0.60889 0.66839 0.94009 0.0
O391 O 0.58726 0.74118 0.1156 0.0
C392 C 0.63922 0.76697 0.35342 0.0
C393 C 0.69988 0.98797 0.79594 0.0
C394 C 0.6956 0.93562 0.70949 0.0
C395 C 0.6842 0.76345 0.19784 0.0
C396 C 0.70369 0.78934 0.17133 0.0
C397 C 0.71179 0.83995 0.0822 0.0
C398 C 0.71433 0.76335 0.23413 0.0
C399 C 0.73296 0.78866 0.20866 0.0
C400 C 0.73007 0.86473 0.05588 0.0
C401 C 0.7406 0.83947 0.11843 0.0
C402 C 0.63268 0.86583 0.07312 0.0
C403 C 0.62462 0.71261 0.90742 0.0
C404 C 0.57586 0.68651 0.06197 0.0
C405 C 0.55685 0.65865 0.10489 0.0
C406 C 0.54822 0.59329 0.1511 0.0
C407 C 0.54683 0.69616 0.09281 0.0
C408 C 0.52836 0.66845 0.12545 0.0
C409 C 0.53014 0.56589 0.18469 0.0
C410 C 0.52026 0.60269 0.17131 0.0
C411 C 0.63071 0.61795 0.10368 0.0
H412 H 0.70402 0.86032 0.03248 0.0
H413 H 0.70817 0.72431 0.30348 0.0
H414 H 0.7361 0.90364 0.98629 0.0
H415 H 0.75472 0.85919 0.09469 0.0
H416 H 0.55526 0.56251 0.15904 0.0
H417 H 0.55346 0.74664 0.05749 0.0
H418 H 0.52365 0.51523 0.21913 0.0
H419 H 0.50609 0.57864 0.1942 0.0
Gd420 Gd 0.35717 0.70294 0.08419 0.0
Gd421 Gd 0.40573 0.78497 0.10288 0.0
C422 C 0.43515 0.87382 0.47018 0.0
C423 C 0.44948 0.99214 0.42274 0.0
C424 C 0.43116 0.91264 0.26442 0.0
C425 C 0.42753 0.86091 0.34836 0.0
C426 C 0.44247 0.97874 0.29985 0.0
C427 C 0.44581 0.93979 0.50777 0.0
C428 C 0.43226 0.81991 0.54927 0.0
C429 C 0.42251 0.7551 0.50463 0.0
N430 N 0.41726 0.79771 0.30892 0.0
C431 C 0.41529 0.74485 0.38287 0.0
H432 H 0.40778 0.69452 0.3493 0.0
C433 C 0.42897 0.94665 0.05639 0.0
N434 N 0.4242 0.898 0.14632 0.0
C435 C 0.44014 0.01291 0.08712 0.0
C436 C 0.44675 0.02917 0.20978 0.0
H437 H 0.42391 0.9346 0.96139 0.0
H438 H 0.45164 0.95071 0.60135 0.0
H439 H 0.35395 0.79244 0.83876 0.0
H440 H 0.43782 0.82772 0.64363 0.0
H441 H 0.42048 0.71302 0.56406 0.0
H442 H 0.45807 0.04265 0.45205 0.0
H443 H 0.33943 0.55318 0.22415 0.0
H444 H 0.32496 0.65866 0.54284 0.0
H445 H 0.34135 0.77343 0.62442 0.0
H446 H 0.30648 0.44374 0.73089 0.0
H447 H 0.44361 0.05139 1.01625 0.0
H448 H 0.45541 0.08054 0.23325 0.0
H449 H 0.31221 0.5356 0.58292 0.0
H450 H 0.32065 0.43584 0.16785 0.0
N451 N 0.34528 0.68951 0.87854 0.0
C452 C 0.33049 0.66667 0.63732 0.0
C453 C 0.33968 0.7315 0.68316 0.0
C454 C 0.32811 0.61293 0.71534 0.0
C455 C 0.33567 0.62614 0.83733 0.0
C456 C 0.34682 0.74203 0.80517 0.0
N457 N 0.33907 0.58964 0.03926 0.0
C458 C 0.33242 0.57448 0.92039 0.0
C459 C 0.32391 0.47433 0.09723 0.0
C460 C 0.31755 0.4577 0.97405 0.0
C461 C 0.33454 0.54096 0.12882 0.0
C462 C 0.32157 0.50809 0.88421 0.0
H463 H 0.30929 0.40608 0.9501 0.0
O464 O 0.33502 0.67684 0.21713 0.0
O465 O 0.38042 0.7531 0.21946 0.0
O466 O 0.39465 0.6729 0.13292 0.0
O467 O 0.36743 0.6287 1.0273 0.0
O468 O 0.35955 0.66849 0.28309 0.0
O469 O 0.33976 0.75363 0.07915 0.0
O470 O 0.42616 0.8035 0.95983 0.0
O471 O 0.38249 0.73531 0.96838 0.0
O472 O 0.3685 0.8134 0.04367 0.0
O473 O 0.39591 0.86248 0.14682 0.0
O474 O 0.40362 0.81858 0.9025 0.0
O475 O 0.42534 0.74388 0.12217 0.0
C476 C 0.37474 0.71536 0.31647 0.0
C477 C 0.3147 0.49441 0.76099 0.0
C478 C 0.31797 0.54674 0.67667 0.0
C479 C 0.32921 0.71754 0.16858 0.0
C480 C 0.30964 0.69012 0.14492 0.0
C481 C 0.30148 0.63814 0.05821 0.0
C482 C 0.29893 0.71531 0.20979 0.0
C483 C 0.28017 0.68837 0.18812 0.0
C484 C 0.28308 0.61162 0.03566 0.0
C485 C 0.2725 0.63642 0.09969 0.0
C486 C 0.38158 0.62335 0.07318 0.0
C487 C 0.38824 0.77227 0.87027 0.0
C488 C 0.43425 0.77392 1.02178 0.0
C489 C 0.45411 0.81 0.03216 0.0
C490 C 0.46289 0.87938 1.01551 0.0
C491 C 0.46455 0.77472 0.05208 0.0
C492 C 0.48352 0.80829 0.05249 0.0
C493 C 0.48159 0.91278 1.01764 0.0
C494 C 0.49186 0.87762 0.03513 0.0
C495 C 0.38183 0.86572 0.0944 0.0
H496 H 0.3093 0.61789 1.00785 0.0
H497 H 0.30516 0.75505 0.27794 0.0
H498 H 0.27699 0.57169 0.96784 0.0
H499 H 0.25829 0.61543 0.0783 0.0
H500 H 0.45537 0.90793 0.99885 0.0
H501 H 0.45794 0.72113 0.06375 0.0
H502 H 0.48817 0.96619 1.00461 0.0
H503 H 0.50636 0.90477 0.03624 0.0
Gd504 Gd 0.60739 0.20272 0.93874 0.0
Gd505 Gd 0.6563 0.28153 0.95804 0.0
C506 C 0.68442 0.36866 0.33164 0.0
C507 C 0.69916 0.48711 0.28607 0.0
C508 C 0.68134 0.40848 0.12496 0.0
C509 C 0.67718 0.35641 0.20863 0.0
C510 C 0.69283 0.4742 0.16144 0.0
C511 C 0.69494 0.43442 0.3711 0.0
C512 C 0.68155 0.31433 0.40937 0.0
C513 C 0.67235 0.24986 0.36197 0.0
N514 N 0.66735 0.29336 0.1663 0.0
C515 C 0.66556 0.24026 0.23899 0.0
H516 H 0.65848 0.19003 0.20431 0.0
C517 C 0.68127 0.44229 0.91361 0.0
N518 N 0.67529 0.39398 1.0045 0.0
C519 C 0.69254 0.50828 0.94551 0.0
C520 C 0.69816 0.52449 0.0703 0.0
H521 H 0.67696 0.43011 0.81697 0.0
H522 H 0.70042 0.44483 0.46571 0.0
H523 H 0.6147 0.34617 0.78051 0.0
H524 H 0.68684 0.32161 0.50453 0.0
H525 H 0.67042 0.20747 0.42021 0.0
H526 H 0.70781 0.53733 0.31648 0.0
H527 H 0.58452 0.0352 0.93805 0.0
H528 H 0.59188 0.29433 0.41449 0.0
H529 H 0.60795 0.37916 0.57615 0.0
H530 H 0.56694 0.05692 0.407 0.0
H531 H 0.69689 0.54657 0.87384 0.0
H532 H 0.70697 0.57559 0.09447 0.0
H533 H 0.57703 0.1746 0.35151 0.0
H534 H 0.56817 0.94459 0.78822 0.0
N535 N 0.60232 0.24166 0.7412 0.0
C536 C 0.59459 0.27897 0.50584 0.0
C537 C 0.60366 0.32694 0.59678 0.0
C538 C 0.58913 0.21177 0.53373 0.0
C539 C 0.59307 0.19424 0.65414 0.0
C540 C 0.6074 0.30749 0.71418 0.0
N541 N 0.59119 0.11235 0.80181 0.0
C542 C 0.58758 0.12789 0.68473 0.0
C543 C 0.57385 -0.00417 0.75689 0.0
C544 C 0.57125 0.0109 0.63337 0.0
C545 C 0.58348 0.04737 0.84086 0.0
C546 C 0.57776 0.0775 0.59663 0.0
H547 H 0.56365 0.9709 0.56859 0.0
O548 O 0.58295 0.14409 0.04274 0.0
O549 O 0.63076 0.24912 0.0733 0.0
O550 O 0.64585 0.17144 0.99533 0.0
O551 O 0.61577 0.11915 0.93543 0.0
O552 O 0.60899 0.16688 0.13812 0.0
O553 O 0.58681 0.23863 0.96386 0.0
O554 O 0.67853 0.30624 0.82549 0.0
O555 O 0.63282 0.22984 0.82352 0.0
O556 O 0.61679 0.31224 0.98435 0.0
O557 O 0.64803 0.36346 1.00183 0.0
O558 O 0.65405 0.3138 0.75779 0.0
O559 O 0.67379 0.23132 0.96676 0.0
C560 C 0.6246 0.21188 0.17092 0.0
C561 C 0.57428 0.09493 0.47602 0.0
C562 C 0.57995 0.1619 0.44465 0.0
C563 C 0.57567 0.18449 1.02026 0.0
C564 C 0.55662 0.15449 0.97753 0.0
C565 C 0.54805 0.08722 0.94058 0.0
C566 C 0.54662 0.19244 0.97711 0.0
C567 C 0.52855 0.16376 0.93661 0.0
C568 C 0.53025 0.05907 0.89985 0.0
C569 C 0.52059 0.09711 0.89689 0.0
C570 C 0.6309 0.11782 0.97103 0.0
C571 C 0.63888 0.26658 0.72519 0.0
C572 C 0.68439 0.26632 0.87669 0.0
C573 C 0.70395 0.29402 0.9018 0.0
C574 C 0.71182 0.34457 0.99167 0.0
C575 C 0.7149 0.26961 0.83748 0.0
C576 C 0.73353 0.29563 0.86377 0.0
C577 C 0.73013 0.37084 1.01726 0.0
C578 C 0.74092 0.34676 0.954 0.0
C579 C 0.63222 0.36506 1.00393 0.0
H580 H 0.55496 0.05583 0.944 0.0
H581 H 0.5529 0.24408 1.00694 0.0
H582 H 0.52388 0.00738 0.87087 0.0
H583 H 0.50678 0.07425 0.86485 0.0
H584 H 0.70385 0.36387 0.0424 0.0
H585 H 0.70888 0.22997 0.76887 0.0
H586 H 0.736 0.41018 0.08649 0.0
H587 H 0.75516 0.36893 0.97478 0.0
Gd588 Gd 0.40724 0.2832 0.95696 0.0
Gd589 Gd 0.35838 0.20823 0.97331 0.0
C590 C 0.33243 0.12967 0.35682 0.0
C591 C 0.31758 0.01022 0.32044 0.0
C592 C 0.33415 0.08533 0.15119 0.0
C593 C 0.33895 0.13908 0.23175 0.0
C594 C 0.32292 0.02049 0.19336 0.0
C595 C 0.32231 0.0648 0.4021 0.0
C596 C 0.33548 0.18577 0.43043 0.0
C597 C 0.34411 0.24903 0.37701 0.0
N598 N 0.34841 0.20105 0.1839 0.0
C599 C 0.35029 0.25575 0.25238 0.0
H600 H 0.35703 0.30501 0.21284 0.0
C601 C 0.33172 0.04785 0.94012 0.0
N602 N 0.33898 0.09746 1.02816 0.0
C603 C 0.32077 0.98253 0.9776 0.0
C604 C 0.31663 0.96855 0.10514 0.0
H605 H 0.33502 0.05838 0.84144 0.0
H606 H 0.31745 0.05653 0.49849 0.0
H607 H 0.40071 0.13655 0.81499 0.0
H608 H 0.33071 0.18073 0.52693 0.0
H609 H 0.34613 0.29271 0.43198 0.0
H610 H 0.30913 0.96066 0.35504 0.0
H611 H 0.42811 0.45309 0.93216 0.0
H612 H 0.42121 0.1774 0.44126 0.0
H613 H 0.40656 0.09765 0.61317 0.0
H614 H 0.44377 0.41322 0.40515 0.0
H615 H 0.31555 0.94305 0.90814 0.0
H616 H 0.30803 0.91804 0.13367 0.0
H617 H 0.43481 0.29459 0.36445 0.0
H618 H 0.44222 0.53718 0.76952 0.0
N619 N 0.41148 0.23904 0.76231 0.0
C620 C 0.4187 0.19529 0.53096 0.0
C621 C 0.41037 0.15017 0.62751 0.0
C622 C 0.4237 0.26298 0.55125 0.0
C623 C 0.42005 0.28388 0.66984 0.0
C624 C 0.40696 0.1729 0.74295 0.0
N625 N 0.42148 0.36981 0.80755 0.0
C626 C 0.42493 0.35081 0.6924 0.0
C627 C 0.43708 0.48491 0.74555 0.0
C628 C 0.43949 0.4658 0.62456 0.0
C629 C 0.42849 0.43638 0.83694 0.0
C630 C 0.43381 0.39833 0.5974 0.0
H631 H 0.44634 0.5036 0.55422 0.0
O632 O 0.43344 0.34633 0.03528 0.0
O633 O 0.38369 0.23822 0.09055 0.0
O634 O 0.36907 0.31906 0.99835 0.0
O635 O 0.4003 0.36928 0.98462 0.0
O636 O 0.40612 0.31767 0.15816 0.0
O637 O 0.427 0.24413 0.98903 0.0
O638 O 0.33538 0.18077 0.84716 0.0
O639 O 0.38206 0.25855 0.83962 0.0
O640 O 0.39734 0.17508 1.01606 0.0
O641 O 0.36609 0.12364 0.99711 0.0
O642 O 0.36042 0.17515 0.77367 0.0
O643 O 0.34179 0.26198 0.97748 0.0
C644 C 0.39016 0.27454 0.1893 0.0
C645 C 0.43713 0.37744 0.47913 0.0
C646 C 0.4321 0.30995 0.45613 0.0
C647 C 0.43958 0.30172 1.02241 0.0
C648 C 0.45735 0.32312 0.95959 0.0
C649 C 0.46439 0.38087 0.88481 0.0
C650 C 0.46744 0.28592 0.97342 0.0
C651 C 0.48407 0.3056 0.9104 0.0
C652 C 0.48078 0.40035 0.82284 0.0
C653 C 0.49051 0.36294 0.83483 0.0
C654 C 0.38474 0.37168 0.99809 0.0
C655 C 0.37581 0.22136 0.74167 0.0
C656 C 0.33038 0.22416 0.89406 0.0
C657 C 0.31113 0.20008 0.92683 0.0
C658 C 0.30392 0.1567 1.02876 0.0
C659 C 0.29996 0.22179 0.85897 0.0
C660 C 0.28168 0.20019 0.89329 0.0
C661 C 0.28601 0.13532 0.06345 0.0
C662 C 0.27499 0.15696 0.997 0.0
C663 C 0.38163 0.12192 1.01748 0.0
H664 H 0.45733 0.41142 0.87408 0.0
H665 H 0.46224 0.24139 1.031 0.0
H666 H 0.48597 0.44479 0.76521 0.0
H667 H 0.50324 0.37927 0.78589 0.0
H668 H 0.31215 0.13979 0.08258 0.0
H669 H 0.30548 0.25499 0.77955 0.0
H670 H 0.28068 0.10224 0.14316 0.0
H671 H 0.26127 0.14056 1.02875 0.0
C672 C 0.23947 0.2019 0.75017 0.0
C673 C 0.24582 0.26719 0.70409 0.0
H674 H 0.24569 0.12877 0.84013 0.0
C675 C 0.2642 0.31017 0.71922 0.0
H676 H 0.22552 0.16722 0.73911 0.0
C677 C 0.27585 0.28836 0.77842 0.0
C678 C 0.2695 0.22294 0.82434 0.0
H679 H 0.26958 0.36117 0.68659 0.0
H680 H 0.28978 0.32325 0.79031 0.0
C681 C 0.25113 0.17994 0.80848 0.0
C682 C 0.74396 0.25804 0.66753 0.0
C683 C 0.74552 0.2709 0.79783 0.0
H684 H 0.75437 0.22976 0.50443 0.0
C685 C 0.75925 0.26302 0.86416 0.0
H686 H 0.7338 0.2647 0.61296 0.0
C687 C 0.77111 0.24307 0.80197 0.0
C688 C 0.76956 0.23016 0.67162 0.0
H689 H 0.76074 0.27166 0.96496 0.0
H690 H 0.78125 0.23636 0.85675 0.0
C691 C 0.75585 0.2382 0.60527 0.0
C692 C 0.27436 0.78282 0.27542 0.0
C693 C 0.26847 0.71425 0.25477 0.0
H694 H 0.26795 0.86045 0.34356 0.0
C695 C 0.25094 0.67062 0.29338 0.0
H696 H 0.28762 0.81796 0.24562 0.0
C697 C 0.23959 0.69491 0.34973 0.0
C698 C 0.24544 0.76356 0.36963 0.0
H699 H 0.246 0.61734 0.28106 0.0
H700 H 0.22632 0.6597 0.37972 0.0
C701 C 0.263 0.80715 0.33157 0.0
C702 C 0.73902 0.69397 0.29037 0.0
C703 C 0.74466 0.76265 0.27366 0.0
H704 H 0.74585 0.61653 0.35329 0.0
C705 C 0.76204 0.8066 0.31398 0.0
H706 H 0.72584 0.65877 0.25911 0.0
C707 C 0.77349 0.7825 0.36834 0.0
C708 C 0.768 0.71388 0.38347 0.0
H709 H 0.76677 0.85993 0.30445 0.0
H710 H 0.78655 0.81767 0.4011 0.0
C711 C 0.75055 0.66985 0.34408 0.0
C712 C 0.14269 0.96717 0.61991 0.0
C713 C 0.13042 0.91669 0.54256 0.0
H714 H 0.15194 0.06671 0.6889 0.0
C715 C 0.11711 0.92807 0.47907 0.0
H716 H 0.15283 0.95956 0.67281 0.0
C717 C 0.11639 0.98933 0.49052 0.0
C718 C 0.12903 0.04031 0.56497 0.0
H719 H 0.10739 0.89007 0.41932 0.0
H720 H 0.10624 -0.00269 0.43835 0.0
C721 C 0.14212 0.02853 0.62999 0.0
C722 C 0.8704 0.44815 0.46484 0.0
C723 C 0.88382 0.4396 0.53312 0.0
H724 H 0.85984 0.51565 0.40498 0.0
C725 C 0.89706 0.49478 0.59553 0.0
H726 H 0.86004 0.40703 0.41493 0.0
C727 C 0.89688 0.55715 0.58914 0.0
C728 C 0.88325 0.56481 0.52265 0.0
H729 H 0.90742 0.48979 0.65049 0.0
H730 H 0.90709 0.59897 0.63865 0.0
C731 C 0.87014 0.5102 0.45978 0.0
C732 C 0.8689 0.94593 0.59069 0.0
C733 C 0.88198 0.93673 0.51874 0.0
H734 H 0.85868 0.01433 0.65363 0.0
C735 C 0.89475 0.9911 0.4517 0.0
H736 H 0.85889 0.90529 0.64374 0.0
C737 C 0.89467 0.05355 0.45875 0.0
C738 C 0.88154 0.06217 0.53009 0.0
H739 H 0.90476 0.98553 0.39325 0.0
H740 H 0.90464 0.09482 0.40659 0.0
C741 C 0.86867 0.00816 0.596 0.0
C742 C 0.12051 0.49396 0.44415 0.0
C743 C 0.13292 0.54876 0.51201 0.0
H744 H 0.11073 0.3902 0.40223 0.0
C745 C 0.14578 0.54044 0.58737 0.0
H746 H 0.11067 0.49895 0.3832 0.0
C747 C 0.14594 0.47831 0.59702 0.0
C748 C 0.13325 0.42324 0.53171 0.0
H749 H 0.15556 0.5816 0.64078 0.0
H750 H 0.15574 0.47316 0.65822 0.0
C751 C 0.12058 0.43168 0.45469 0.0
C752 C 0.61519 0.49727 0.04392 0.0
C753 C 0.63077 0.55247 0.08319 0.0
H754 H 0.60341 0.395 0.98708 0.0
C755 C 0.64671 0.54529 0.09855 0.0
H756 H 0.60282 0.50164 1.02835 0.0
C757 C 0.64708 0.48425 0.07492 0.0
C758 C 0.63162 0.42916 0.03347 0.0
H759 H 0.65892 0.58682 0.1296 0.0
H760 H 0.6595 0.48043 0.08961 0.0
C761 C 0.6156 0.43624 1.01926 0.0
C762 C 0.3681 0.93713 1.00762 0.0
C763 C 0.38147 0.9313 0.08143 0.0
H764 H 0.358 0.00184 0.92759 0.0
C765 C 0.3946 0.98884 0.13832 0.0
H766 H 0.35773 0.89411 0.96232 0.0
C767 C 0.39472 0.05107 0.1179 0.0
C768 C 0.38147 0.05658 0.04248 0.0
H769 H 0.40483 0.98595 0.1982 0.0
H770 H 0.40509 0.09475 0.16169 0.0
C771 C 0.36813 -0.00102 0.98838 0.0
C772 C 0.36983 0.44651 0.97137 0.0
C773 C 0.38454 0.43701 1.01543 0.0
H774 H 0.35776 0.51288 0.95046 0.0
C775 C 0.39857 0.48959 0.07769 0.0
H776 H 0.35894 0.40719 0.92147 0.0
C777 C 0.39763 0.55023 0.09804 0.0
C778 C 0.38279 0.55947 0.05448 0.0
H779 H 0.41004 0.48337 0.11296 0.0
H780 H 0.40851 0.58969 0.14762 0.0
C781 C 0.3691 0.50718 0.98907 0.0
C782 C 0.61552 -0.00278 1.03004 0.0
C783 C 0.63109 0.05256 0.99142 0.0
H784 H 0.60378 0.89519 0.08692 0.0
C785 C 0.64714 0.04583 0.97777 0.0
H786 H 0.60308 0.00124 0.0449 0.0
C787 C 0.64759 0.98504 1.00237 0.0
C788 C 0.63209 0.9298 0.04282 0.0
H789 H 0.65937 0.08754 0.94763 0.0
H790 H 0.6601 0.98155 0.98942 0.0
C791 C 0.616 0.93649 0.05536 0.0
C792 C 0.13523 0.28555 0.15458 0.0
C793 C 0.12907 0.22104 0.20572 0.0
H794 H 0.14275 0.34736 0.98817 0.0
C795 C 0.12495 0.16823 0.11803 0.0
H796 H 0.1381 0.32757 0.21679 0.0
C797 C 0.12743 0.1794 0.98589 0.0
C798 C 0.13357 0.24388 0.93467 0.0
H799 H 0.11984 0.11756 0.15216 0.0
H800 H 0.12457 0.13737 0.92376 0.0
C801 C 0.13769 0.29672 1.02234 0.0
C802 C 0.87707 0.19638 0.11791 0.0
C803 C 0.88497 0.2614 0.16854 0.0
H804 H 0.86786 0.13391 0.9524 0.0
C805 C 0.89057 0.31413 0.07934 0.0
H806 H 0.87303 0.15408 0.18063 0.0
C807 C 0.88791 0.30268 0.94691 0.0
C808 C 0.8798 0.23763 0.89642 0.0
H809 H 0.89703 0.36512 0.11244 0.0
H810 H 0.89208 0.34499 0.88411 0.0
C811 C 0.87434 0.18491 0.98551 0.0
C812 C 0.12688 0.68097 0.09754 0.0
C813 C 0.13466 0.74624 0.14713 0.0
H814 H 0.11794 0.61774 0.93285 0.0
C815 C 0.14003 0.79856 0.05722 0.0
H816 H 0.12287 0.63896 0.16097 0.0
C817 C 0.13739 0.78647 0.92496 0.0
C818 C 0.12963 0.72122 0.87534 0.0
H819 H 0.1463 0.84971 0.08959 0.0
H820 H 0.14131 0.82848 0.86163 0.0
C821 C 0.12427 0.66889 0.96524 0.0
C822 C 0.87761 0.69673 0.93775 0.0
C823 C 0.88504 0.7618 0.88778 0.0
H824 H 0.86883 0.63394 0.1027 0.0
C825 C 0.89017 0.81436 0.97752 0.0
H826 H 0.8739 0.6546 0.87455 0.0
C827 C 0.88753 0.80265 0.10987 0.0
C828 C 0.87995 0.73755 0.15975 0.0
H829 H 0.89625 0.86542 0.94492 0.0
H830 H 0.89132 0.84481 0.17308 0.0
C831 C 0.87493 0.685 0.07009 0.0
C832 C 0.63998 0.80422 0.5841 0.0
C833 C 0.63474 0.75152 0.4946 0.0
H834 H 0.64097 0.83504 0.77927 0.0
C835 C 0.62707 0.68651 0.54503 0.0
H836 H 0.64625 0.85523 0.55133 0.0
C837 C 0.62419 0.67499 0.67734 0.0
C838 C 0.62932 0.72771 0.76667 0.0
H839 H 0.62328 0.64423 0.48214 0.0
H840 H 0.6179 0.624 0.71023 0.0
C841 C 0.63714 0.79273 0.71638 0.0
C842 C 0.38929 0.80863 0.63958 0.0
C843 C 0.38375 0.75631 0.72957 0.0
H844 H 0.39094 0.83861 0.44374 0.0
C845 C 0.37586 0.69105 0.68002 0.0
H846 H 0.3957 0.85978 0.67191 0.0
C847 C 0.37329 0.67898 0.5477 0.0
C848 C 0.37886 0.73131 0.45769 0.0
H849 H 0.37178 0.64902 0.74346 0.0
H850 H 0.36694 0.62783 0.51537 0.0
C851 C 0.38675 0.79658 0.50725 0.0
C852 C 0.62405 0.17435 0.40077 0.0
C853 C 0.62916 0.22705 0.31184 0.0
H854 H 0.62309 0.14368 0.59574 0.0
C855 C 0.63685 0.29207 0.36258 0.0
H856 H 0.61786 0.12336 0.36751 0.0
C857 C 0.63962 0.30361 0.4949 0.0
C858 C 0.63443 0.25095 0.58402 0.0
H859 H 0.64065 0.33434 0.30002 0.0
H860 H 0.64581 0.35463 0.52803 0.0
C861 C 0.62686 0.18592 0.53316 0.0
C862 C 0.38994 0.31243 0.41751 0.0
C863 C 0.38539 0.25949 0.3294 0.0
H864 H 0.39035 0.3435 0.61188 0.0
C865 C 0.3783 0.19471 0.38036 0.0
H866 H 0.39568 0.36326 0.3837 0.0
C867 C 0.37558 0.18356 0.51262 0.0
C868 C 0.38023 0.23651 0.60091 0.0
H869 H 0.37499 0.15243 0.31808 0.0
H870 H 0.36988 0.13272 0.54635 0.0
C871 C 0.38712 0.30124 0.5497 0.0
C872 C 1.00215 0.18866 0.63086 0.0
C873 C 0.01643 0.19739 0.54806 0.0
H874 H 0.98032 0.21306 0.67527 0.0
C875 C 0.01929 0.23969 0.44349 0.0
H876 H 0.99964 0.15811 0.71437 0.0
C877 C 0.00839 0.27249 0.42333 0.0
C878 C 0.99411 0.26308 0.5057 0.0
H879 H 0.02981 0.24703 0.37578 0.0
H880 H 0.01105 0.30504 0.34246 0.0
C881 C 0.99102 0.22036 0.60902 0.0
C882 C 0.99222 0.72236 0.62214 0.0
C883 C 0.99632 0.77813 0.54425 0.0
H884 H 0.9997 0.64646 0.68499 0.0
C885 C 0.01197 0.8 0.46914 0.0
H886 H 0.98059 0.70473 0.68349 0.0
C887 C 0.02322 0.76765 0.47285 0.0
C888 C 0.01897 0.71169 0.54975 0.0
H889 H 0.0155 0.84178 0.40573 0.0
H890 H 0.035 0.7854 0.41288 0.0
C891 C 1.0033 0.68931 0.6241 0.0
C892 C 0.52035 0.75066 1.00745 0.0
C893 C 0.51723 0.70619 0.10866 0.0
H894 H 0.51212 0.8171 0.91003 0.0
C895 C 0.50279 0.69584 0.19103 0.0
H896 H 0.53104 0.75931 0.9405 0.0
C897 C 0.49165 0.72768 0.17127 0.0
C898 C 0.49482 0.77191 0.07028 0.0
H899 H 0.50012 0.66339 0.27194 0.0
H900 H 0.48075 0.71879 0.23672 0.0
C901 C 0.50937 0.78338 0.98911 0.0
C902 C 0.50064 0.25403 0.03687 0.0
C903 C 0.49487 0.26689 0.91961 0.0
H904 H 0.5164 0.21286 0.13407 0.0
C905 C 0.5006 0.24683 0.80893 0.0
H906 H 0.49656 0.26953 0.12348 0.0
C907 C 0.51176 0.2144 0.81505 0.0
C908 C 0.51778 0.20247 0.93181 0.0
H909 H 0.49637 0.25613 0.71731 0.0
H910 H 0.51574 0.19861 0.7283 0.0
C911 C 0.51215 0.22255 0.04286 0.0
loop_
_geom_bond_atom_site_label_1
_geom_bond_atom_site_label_2
_geom_bond_distance
_geom_bond_site_symmetry_2
_ccdc_geom_bond_type
Gd0 N31 2.661 . S
Gd0 N37 2.601 . S
Gd0 O44 2.545 . S
Gd0 O45 2.606 . S
Gd0 O47 2.429 . S
Gd0 O48 2.545 . S
Gd0 O49 2.412 . S
Gd0 O51 2.362 . S
Gd0 O52 2.324 . S
Gd0 C59 2.828 . S
Gd1 N10 2.661 . S
Gd1 N14 2.601 . S
Gd1 O45 2.362 . S
Gd1 O46 2.324 . S
Gd1 O50 2.545 . S
Gd1 O51 2.606 . S
Gd1 O53 2.429 . S
Gd1 O54 2.545 . S
Gd1 O55 2.412 . S
Gd1 C68 2.828 . S
C2 C5 1.417 . S
C2 C7 1.431 . S
C2 C8 1.412 . S
C3 C6 1.437 . S
C3 C7 1.317 . S
C3 H22 0.929 . S
C4 C5 1.426 . S
C4 C6 1.413 . S
C4 N14 1.359 . S
C5 C2 1.417 . S
C5 C4 1.426 . S
C5 N10 1.350 . S
C6 C3 1.437 . S
C6 C4 1.413 . S
C6 C16 1.391 . S
C7 C2 1.431 . S
C7 C3 1.317 . S
C7 H18 0.930 1_556 S
C8 C2 1.412 . S
C8 C9 1.355 . S
C8 H20 0.930 . S
C9 C8 1.355 . S
C9 C11 1.402 . S
C9 H21 0.930 . S
N10 Gd1 2.661 . S
N10 C5 1.350 . S
N10 C11 1.307 . S
C11 C9 1.402 . S
C11 N10 1.307 . S
C11 H12 0.930 . S
H12 C11 0.930 . S
C13 N14 1.334 . S
C13 C15 1.393 1_545 S
C13 H17 0.930 . S
N14 Gd1 2.601 . S
N14 C4 1.359 . S
N14 C13 1.334 . S
C15 C13 1.393 1_565 S
C15 C16 1.358 1_565 S
C15 H27 0.933 . S
C16 C6 1.391 . S
C16 C15 1.358 1_545 S
C16 H28 0.929 1_545 S
H17 C13 0.930 . S
H18 C7 0.930 1_554 S
H19 C36 0.930 . S
H20 C8 0.930 . S
H21 C9 0.930 . S
H22 C3 0.929 . S
H23 C41 0.930 . S
H24 C32 0.930 . S
H25 C33 0.930 . S
H26 C57 0.929 . S
H27 C15 0.933 . S
H28 C16 0.929 1_565 S
H29 C58 0.930 . S
H30 C39 0.930 . S
N31 Gd0 2.661 . S
N31 C35 1.350 . S
N31 C36 1.307 . S
C32 H24 0.930 . S
C32 C33 1.355 1_556 S
C32 C34 1.412 1_556 S
C33 H25 0.930 . S
C33 C32 1.355 1_554 S
C33 C36 1.402 . S
C34 C32 1.412 1_554 S
C34 C35 1.417 . S
C34 C58 1.431 1_554 S
C35 N31 1.350 . S
C35 C34 1.417 . S
C35 C38 1.426 . S
C36 H19 0.930 . S
C36 N31 1.307 . S
C36 C33 1.402 . S
N37 Gd0 2.601 . S
N37 C38 1.359 . S
N37 C41 1.334 . S
C38 C35 1.426 . S
C38 N37 1.359 . S
C38 C42 1.413 . S
C39 H30 0.930 . S
C39 C40 1.359 . S
C39 C41 1.394 . S
C40 C39 1.359 . S
C40 C42 1.391 . S
C40 H43 0.929 . S
C41 H23 0.930 . S
C41 N37 1.334 . S
C41 C39 1.394 . S
C42 C38 1.413 . S
C42 C40 1.391 . S
C42 C57 1.437 1_554 S
H43 C40 0.929 . S
O44 Gd0 2.545 . S
O44 C59 1.258 . S
O45 Gd0 2.606 . S
O45 Gd1 2.362 . S
O45 C56 1.284 . S
O46 Gd1 2.324 . S
O46 C66 1.254 . S
O47 Gd0 2.429 . S
O47 C66 1.268 . S
O48 Gd0 2.545 . S
O48 C56 1.250 . S
O49 Gd0 2.412 . S
O49 C59 1.252 . S
O50 Gd1 2.545 . S
O50 C68 1.258 . S
O51 Gd0 2.362 . S
O51 Gd1 2.606 . S
O51 C67 1.284 . S
O52 Gd0 2.324 . S
O52 C75 1.254 . S
O53 Gd1 2.429 . S
O53 C75 1.268 . S
O54 Gd1 2.545 . S
O54 C67 1.250 . S
O55 Gd1 2.412 . S
O55 C68 1.252 . S
C56 O45 1.284 . S
C56 O48 1.250 . S
C57 H26 0.929 . S
C57 C42 1.437 1_556 S
C57 C58 1.317 . S
C58 H29 0.930 . S
C58 C34 1.431 1_556 S
C58 C57 1.317 . S
C59 Gd0 2.828 . S
C59 O44 1.258 . S
C59 O49 1.252 . S
C59 C60 1.497 . S
C60 C59 1.497 . S
C60 C61 1.395 . S
C60 C62 1.380 . S
C61 C60 1.395 . S
C61 C64 1.398 . S
C61 H76 0.930 . S
C62 C60 1.380 . S
C62 C63 1.391 . S
C62 H77 0.930 . S
C63 C62 1.391 . S
C63 C65 1.387 . S
C64 C61 1.398 . S
C64 C65 1.380 . S
C64 H78 0.930 . S
C65 C63 1.387 . S
C65 C64 1.380 . S
C65 H79 0.930 . S
C66 O46 1.254 . S
C66 O47 1.268 . S
C67 O51 1.284 . S
C67 O54 1.250 . S
C68 Gd1 2.828 . S
C68 O50 1.258 . S
C68 O55 1.252 . S
C68 C69 1.497 . S
C69 C68 1.497 . S
C69 C70 1.395 . S
C69 C71 1.380 . S
C70 C69 1.395 . S
C70 C73 1.398 . S
C70 H80 0.930 . S
C71 C69 1.380 . S
C71 C72 1.391 . S
C71 H81 0.930 . S
C72 C71 1.391 . S
C72 C74 1.387 . S
C73 C70 1.398 . S
C73 C74 1.380 . S
C73 H82 0.930 . S
C74 C72 1.387 . S
C74 C73 1.380 . S
C74 H83 0.930 . S
C75 O52 1.254 . S
C75 O53 1.268 . S
H76 C61 0.930 . S
H77 C62 0.930 . S
H78 C64 0.930 . S
H79 C65 0.930 . S
H80 C70 0.930 . S
H81 C71 0.930 . S
H82 C73 0.930 . S
H83 C74 0.930 . S
Gd84 N115 2.661 . S
Gd84 N121 2.601 . S
Gd84 O128 2.545 . S
Gd84 O129 2.606 . S
Gd84 O131 2.429 . S
Gd84 O132 2.545 . S
Gd84 O133 2.412 . S
Gd84 O135 2.362 . S
Gd84 O136 2.324 . S
Gd84 C143 2.828 . S
Gd85 N94 2.661 . S
Gd85 N98 2.601 . S
Gd85 O129 2.362 . S
Gd85 O130 2.324 . S
Gd85 O134 2.545 . S
Gd85 O135 2.606 . S
Gd85 O137 2.429 . S
Gd85 O138 2.545 . S
Gd85 O139 2.412 . S
Gd85 C152 2.828 . S
C86 C89 1.417 . S
C86 C91 1.431 . S
C86 C92 1.412 . S
C87 C90 1.437 . S
C87 C91 1.317 . S
C87 H106 0.929 . S
C88 C89 1.426 . S
C88 C90 1.413 . S
C88 N98 1.359 . S
C89 C86 1.417 . S
C89 C88 1.426 . S
C89 N94 1.350 . S
C90 C87 1.437 . S
C90 C88 1.413 . S
C90 C100 1.391 . S
C91 C86 1.431 . S
C91 C87 1.317 . S
C91 H102 0.930 1_556 S
C92 C86 1.412 . S
C92 C93 1.355 . S
C92 H104 0.930 . S
C93 C92 1.355 . S
C93 C95 1.402 . S
C93 H105 0.930 . S
N94 Gd85 2.661 . S
N94 C89 1.350 . S
N94 C95 1.307 . S
C95 C93 1.402 . S
C95 N94 1.307 . S
C95 H96 0.930 . S
H96 C95 0.930 . S
C97 N98 1.334 . S
C97 C99 1.394 . S
C97 H101 0.930 . S
N98 Gd85 2.601 . S
N98 C88 1.359 . S
N98 C97 1.334 . S
C99 C97 1.394 . S
C99 C100 1.359 . S
C99 H111 0.930 . S
C100 C90 1.391 . S
C100 C99 1.359 . S
C100 H112 0.929 . S
H101 C97 0.930 . S
H102 C91 0.930 1_554 S
H103 C120 0.930 . S
H104 C92 0.930 . S
H105 C93 0.930 . S
H106 C87 0.929 . S
H107 C125 0.930 . S
H108 C116 0.930 . S
H109 C117 0.930 . S
H110 C141 0.929 . S
H111 C99 0.930 . S
H112 C100 0.929 . S
H113 C142 0.930 . S
H114 C123 0.930 . S
N115 Gd84 2.661 . S
N115 C119 1.350 . S
N115 C120 1.307 . S
C116 H108 0.930 . S
C116 C117 1.355 1_556 S
C116 C118 1.412 1_556 S
C117 H109 0.930 . S
C117 C116 1.355 1_554 S
C117 C120 1.402 . S
C118 C116 1.412 1_554 S
C118 C119 1.417 . S
C118 C142 1.431 1_554 S
C119 N115 1.350 . S
C119 C118 1.417 . S
C119 C122 1.426 . S
C120 H103 0.930 . S
C120 N115 1.307 . S
C120 C117 1.402 . S
N121 Gd84 2.601 . S
N121 C122 1.359 . S
N121 C125 1.334 . S
C122 C119 1.426 . S
C122 N121 1.359 . S
C122 C126 1.413 . S
C123 H114 0.930 . S
C123 C124 1.359 1_565 S
C123 C125 1.394 1_565 S
C124 C123 1.359 1_545 S
C124 C126 1.391 . S
C124 H127 0.929 1_545 S
C125 H107 0.930 . S
C125 N121 1.334 . S
C125 C123 1.394 1_545 S
C126 C122 1.413 . S
C126 C124 1.391 . S
C126 C141 1.437 1_554 S
H127 C124 0.929 1_565 S
O128 Gd84 2.545 . S
O128 C143 1.258 . S
O129 Gd84 2.606 . S
O129 Gd85 2.362 . S
O129 C140 1.284 . S
O130 Gd85 2.324 . S
O130 C150 1.254 . S
O131 Gd84 2.429 . S
O131 C150 1.268 . S
O132 Gd84 2.545 . S
O132 C140 1.250 . S
O133 Gd84 2.412 . S
O133 C143 1.252 . S
O134 Gd85 2.545 . S
O134 C152 1.258 . S
O135 Gd84 2.362 . S
O135 Gd85 2.606 . S
O135 C151 1.284 . S
O136 Gd84 2.324 . S
O136 C159 1.254 . S
O137 Gd85 2.429 . S
O137 C159 1.268 . S
O138 Gd85 2.545 . S
O138 C151 1.250 . S
O139 Gd85 2.412 . S
O139 C152 1.252 . S
C140 O129 1.284 . S
C140 O132 1.250 . S
C141 H110 0.929 . S
C141 C126 1.437 1_556 S
C141 C142 1.317 . S
C142 H113 0.930 . S
C142 C118 1.431 1_556 S
C142 C141 1.317 . S
C143 Gd84 2.828 . S
C143 O128 1.258 . S
C143 O133 1.252 . S
C143 C144 1.497 . S
C144 C143 1.497 . S
C144 C145 1.395 . S
C144 C146 1.380 . S
C145 C144 1.395 . S
C145 C148 1.398 . S
C145 H160 0.930 . S
C146 C144 1.380 . S
C146 C147 1.391 . S
C146 H161 0.930 . S
C147 C146 1.391 . S
C147 C149 1.387 . S
C148 C145 1.398 . S
C148 C149 1.380 . S
C148 H162 0.930 . S
C149 C147 1.387 . S
C149 C148 1.380 . S
C149 H163 0.930 . S
C150 O130 1.254 . S
C150 O131 1.268 . S
C151 O135 1.284 . S
C151 O138 1.250 . S
C152 Gd85 2.828 . S
C152 O134 1.258 . S
C152 O139 1.252 . S
C152 C153 1.497 . S
C153 C152 1.497 . S
C153 C154 1.395 . S
C153 C155 1.380 . S
C154 C153 1.395 . S
C154 C157 1.398 . S
C154 H164 0.930 . S
C155 C153 1.380 . S
C155 C156 1.391 . S
C155 H165 0.930 . S
C156 C155 1.391 . S
C156 C158 1.387 . S
C157 C154 1.398 . S
C157 C158 1.380 . S
C157 H166 0.930 . S
C158 C156 1.387 . S
C158 C157 1.380 . S
C158 H167 0.930 . S
C159 O136 1.254 . S
C159 O137 1.268 . S
H160 C145 0.930 . S
H161 C146 0.930 . S
H162 C148 0.930 . S
H163 C149 0.930 . S
H164 C154 0.930 . S
H165 C155 0.930 . S
H166 C157 0.930 . S
H167 C158 0.930 . S
Gd168 N199 2.661 . S
Gd168 N205 2.601 . S
Gd168 O212 2.545 . S
Gd168 O213 2.606 . S
Gd168 O215 2.429 . S
Gd168 O216 2.545 . S
Gd168 O217 2.412 . S
Gd168 O219 2.362 . S
Gd168 O220 2.324 . S
Gd168 C227 2.828 . S
Gd169 N178 2.661 . S
Gd169 N182 2.601 . S
Gd169 O213 2.362 . S
Gd169 O214 2.324 . S
Gd169 O218 2.545 . S
Gd169 O219 2.606 . S
Gd169 O221 2.429 . S
Gd169 O222 2.545 . S
Gd169 O223 2.412 . S
Gd169 C236 2.828 . S
C170 C173 1.417 . S
C170 C175 1.431 1_556 S
C170 C176 1.412 1_556 S
C171 C174 1.437 1_554 S
C171 C175 1.317 . S
C171 H190 0.929 . S
C172 C173 1.426 . S
C172 C174 1.413 . S
C172 N182 1.359 . S
C173 C170 1.417 . S
C173 C172 1.426 . S
C173 N178 1.350 . S
C174 C171 1.437 1_556 S
C174 C172 1.413 . S
C174 C184 1.391 . S
C175 C170 1.431 1_554 S
C175 C171 1.317 . S
C175 H186 0.930 . S
C176 C170 1.412 1_554 S
C176 C177 1.355 1_554 S
C176 H188 0.930 . S
C177 C176 1.355 1_556 S
C177 C179 1.402 . S
C177 H189 0.930 . S
N178 Gd169 2.661 . S
N178 C173 1.350 . S
N178 C179 1.307 . S
C179 C177 1.402 . S
C179 N178 1.307 . S
C179 H180 0.930 . S
H180 C179 0.930 . S
C181 N182 1.334 . S
C181 C183 1.394 1_565 S
C181 H185 0.930 . S
N182 Gd169 2.601 . S
N182 C172 1.359 . S
N182 C181 1.334 . S
C183 C181 1.394 1_545 S
C183 C184 1.359 1_545 S
C183 H195 0.930 . S
C184 C174 1.391 . S
C184 C183 1.359 1_565 S
C184 H196 0.929 1_565 S
H185 C181 0.930 . S
H186 C175 0.930 . S
H187 C204 0.930 . S
H188 C176 0.930 . S
H189 C177 0.930 . S
H190 C171 0.929 . S
H191 C209 0.930 . S
H192 C200 0.930 . S
H193 C201 0.930 . S
H194 C225 0.929 . S
H195 C183 0.930 . S
H196 C184 0.929 1_545 S
H197 C226 0.930 1_556 S
H198 C207 0.930 . S
N199 Gd168 2.661 . S
N199 C203 1.350 . S
N199 C204 1.307 . S
C200 H192 0.930 . S
C200 C201 1.355 . S
C200 C202 1.412 . S
C201 H193 0.930 . S
C201 C200 1.355 . S
C201 C204 1.402 . S
C202 C200 1.412 . S
C202 C203 1.417 . S
C202 C226 1.431 . S
C203 N199 1.350 . S
C203 C202 1.417 . S
C203 C206 1.426 . S
C204 H187 0.930 . S
C204 N199 1.307 . S
C204 C201 1.402 . S
N205 Gd168 2.601 . S
N205 C206 1.359 . S
N205 C209 1.334 . S
C206 C203 1.426 . S
C206 N205 1.359 . S
C206 C210 1.413 . S
C207 H198 0.930 . S
C207 C208 1.359 . S
C207 C209 1.394 . S
C208 C207 1.359 . S
C208 C210 1.391 . S
C208 H211 0.929 . S
C209 H191 0.930 . S
C209 N205 1.334 . S
C209 C207 1.394 . S
C210 C206 1.413 . S
C210 C208 1.391 . S
C210 C225 1.437 . S
H211 C208 0.929 . S
O212 Gd168 2.545 . S
O212 C227 1.258 . S
O213 Gd168 2.606 . S
O213 Gd169 2.362 . S
O213 C224 1.284 . S
O214 Gd169 2.324 . S
O214 C234 1.254 . S
O215 Gd168 2.429 . S
O215 C234 1.268 . S
O216 Gd168 2.545 . S
O216 C224 1.250 . S
O217 Gd168 2.412 . S
O217 C227 1.252 . S
O218 Gd169 2.545 . S
O218 C236 1.258 . S
O219 Gd168 2.362 . S
O219 Gd169 2.606 . S
O219 C235 1.284 . S
O220 Gd168 2.324 . S
O220 C243 1.254 . S
O221 Gd169 2.429 . S
O221 C243 1.268 . S
O222 Gd169 2.545 . S
O222 C235 1.250 . S
O223 Gd169 2.412 . S
O223 C236 1.252 . S
C224 O213 1.284 . S
C224 O216 1.250 . S
C225 H194 0.929 . S
C225 C210 1.437 . S
C225 C226 1.317 . S
C226 H197 0.930 1_554 S
C226 C202 1.431 . S
C226 C225 1.317 . S
C227 Gd168 2.828 . S
C227 O212 1.258 . S
C227 O217 1.252 . S
C227 C228 1.497 . S
C228 C227 1.497 . S
C228 C229 1.395 . S
C228 C230 1.380 . S
C229 C228 1.395 . S
C229 C232 1.398 . S
C229 H244 0.930 . S
C230 C228 1.380 . S
C230 C231 1.391 . S
C230 H245 0.930 . S
C231 C230 1.391 . S
C231 C233 1.387 . S
C232 C229 1.398 . S
C232 C233 1.380 . S
C232 H246 0.930 . S
C233 C231 1.387 . S
C233 C232 1.380 . S
C233 H247 0.930 . S
C234 O214 1.254 . S
C234 O215 1.268 . S
C235 O219 1.284 . S
C235 O222 1.250 . S
C236 Gd169 2.828 . S
C236 O218 1.258 . S
C236 O223 1.252 . S
C236 C237 1.497 . S
C237 C236 1.497 . S
C237 C238 1.395 . S
C237 C239 1.380 . S
C238 C237 1.395 . S
C238 C241 1.398 . S
C238 H248 0.930 . S
C239 C237 1.380 . S
C239 C240 1.391 . S
C239 H249 0.930 . S
C240 C239 1.391 . S
C240 C242 1.387 . S
C241 C238 1.398 . S
C241 C242 1.380 . S
C241 H250 0.930 . S
C242 C240 1.387 . S
C242 C241 1.380 . S
C242 H251 0.930 . S
C243 O220 1.254 . S
C243 O221 1.268 . S
H244 C229 0.930 . S
H245 C230 0.930 . S
H246 C232 0.930 . S
H247 C233 0.930 . S
H248 C238 0.930 . S
H249 C239 0.930 . S
H250 C241 0.930 . S
H251 C242 0.930 . S
Gd252 N283 2.661 . S
Gd252 N289 2.601 . S
Gd252 O296 2.545 . S
Gd252 O297 2.606 . S
Gd252 O299 2.429 . S
Gd252 O300 2.545 . S
Gd252 O301 2.412 . S
Gd252 O303 2.362 . S
Gd252 O304 2.324 . S
Gd252 C311 2.828 . S
Gd253 N262 2.661 . S
Gd253 N266 2.601 . S
Gd253 O297 2.362 . S
Gd253 O298 2.324 . S
Gd253 O302 2.545 . S
Gd253 O303 2.606 . S
Gd253 O305 2.429 . S
Gd253 O306 2.545 . S
Gd253 O307 2.412 . S
Gd253 C320 2.828 . S
C254 C257 1.417 . S
C254 C259 1.431 1_556 S
C254 C260 1.412 1_556 S
C255 C258 1.437 1_554 S
C255 C259 1.317 . S
C255 H274 0.929 . S
C256 C257 1.426 . S
C256 C258 1.413 . S
C256 N266 1.359 . S
C257 C254 1.417 . S
C257 C256 1.426 . S
C257 N262 1.350 . S
C258 C255 1.437 1_556 S
C258 C256 1.413 . S
C258 C268 1.391 . S
C259 C254 1.431 1_554 S
C259 C255 1.317 . S
C259 H270 0.930 . S
C260 C254 1.412 1_554 S
C260 C261 1.355 1_554 S
C260 H272 0.930 . S
C261 C260 1.355 1_556 S
C261 C263 1.402 . S
C261 H273 0.930 . S
N262 Gd253 2.661 . S
N262 C257 1.350 . S
N262 C263 1.307 . S
C263 C261 1.402 . S
C263 N262 1.307 . S
C263 H264 0.930 . S
H264 C263 0.930 . S
C265 N266 1.334 . S
C265 C267 1.394 . S
C265 H269 0.930 . S
N266 Gd253 2.601 . S
N266 C256 1.359 . S
N266 C265 1.334 . S
C267 C265 1.394 . S
C267 C268 1.359 . S
C267 H279 0.930 . S
C268 C258 1.391 . S
C268 C267 1.359 . S
C268 H280 0.929 . S
H269 C265 0.930 . S
H270 C259 0.930 . S
H271 C288 0.930 . S
H272 C260 0.930 . S
H273 C261 0.930 . S
H274 C255 0.929 . S
H275 C293 0.930 . S
H276 C284 0.930 . S
H277 C285 0.930 . S
H278 C309 0.929 . S
H279 C267 0.930 . S
H280 C268 0.929 . S
H281 C310 0.930 1_556 S
H282 C291 0.933 . S
N283 Gd252 2.661 . S
N283 C287 1.350 . S
N283 C288 1.307 . S
C284 H276 0.930 . S
C284 C285 1.355 . S
C284 C286 1.412 . S
C285 H277 0.930 . S
C285 C284 1.355 . S
C285 C288 1.402 . S
C286 C284 1.412 . S
C286 C287 1.417 . S
C286 C310 1.431 . S
C287 N283 1.350 . S
C287 C286 1.417 . S
C287 C290 1.426 . S
C288 H271 0.930 . S
C288 N283 1.307 . S
C288 C285 1.402 . S
N289 Gd252 2.601 . S
N289 C290 1.359 . S
N289 C293 1.334 . S
C290 C287 1.426 . S
C290 N289 1.359 . S
C290 C294 1.413 . S
C291 H282 0.933 . S
C291 C292 1.358 1_545 S
C291 C293 1.393 1_545 S
C292 C291 1.358 1_565 S
C292 C294 1.391 . S
C292 H295 0.929 1_565 S
C293 H275 0.930 . S
C293 N289 1.334 . S
C293 C291 1.393 1_565 S
C294 C290 1.413 . S
C294 C292 1.391 . S
C294 C309 1.437 . S
H295 C292 0.929 1_545 S
O296 Gd252 2.545 . S
O296 C311 1.258 . S
O297 Gd252 2.606 . S
O297 Gd253 2.362 . S
O297 C308 1.284 . S
O298 Gd253 2.324 . S
O298 C318 1.254 . S
O299 Gd252 2.429 . S
O299 C318 1.268 . S
O300 Gd252 2.545 . S
O300 C308 1.250 . S
O301 Gd252 2.412 . S
O301 C311 1.252 . S
O302 Gd253 2.545 . S
O302 C320 1.258 . S
O303 Gd252 2.362 . S
O303 Gd253 2.606 . S
O303 C319 1.284 . S
O304 Gd252 2.324 . S
O304 C327 1.254 . S
O305 Gd253 2.429 . S
O305 C327 1.268 . S
O306 Gd253 2.545 . S
O306 C319 1.250 . S
O307 Gd253 2.412 . S
O307 C320 1.252 . S
C308 O297 1.284 . S
C308 O300 1.250 . S
C309 H278 0.929 . S
C309 C294 1.437 . S
C309 C310 1.317 . S
C310 H281 0.930 1_554 S
C310 C286 1.431 . S
C310 C309 1.317 . S
C311 Gd252 2.828 . S
C311 O296 1.258 . S
C311 O301 1.252 . S
C311 C312 1.497 . S
C312 C311 1.497 . S
C312 C313 1.395 . S
C312 C314 1.380 . S
C313 C312 1.395 . S
C313 C316 1.398 . S
C313 H328 0.930 . S
C314 C312 1.380 . S
C314 C315 1.391 . S
C314 H329 0.930 . S
C315 C314 1.391 . S
C315 C317 1.387 . S
C316 C313 1.398 . S
C316 C317 1.380 . S
C316 H330 0.930 . S
C317 C315 1.387 . S
C317 C316 1.380 . S
C317 H331 0.930 . S
C318 O298 1.254 . S
C318 O299 1.268 . S
C319 O303 1.284 . S
C319 O306 1.250 . S
C320 Gd253 2.828 . S
C320 O302 1.258 . S
C320 O307 1.252 . S
C320 C321 1.497 . S
C321 C320 1.497 . S
C321 C322 1.395 . S
C321 C323 1.380 . S
C322 C321 1.395 . S
C322 C325 1.398 . S
C322 H332 0.930 . S
C323 C321 1.380 . S
C323 C324 1.391 . S
C323 H333 0.930 . S
C324 C323 1.391 . S
C324 C326 1.387 . S
C325 C322 1.398 . S
C325 C326 1.380 . S
C325 H334 0.930 . S
C326 C324 1.387 . S
C326 C325 1.380 . S
C326 H335 0.930 . S
C327 O304 1.254 . S
C327 O305 1.268 . S
H328 C313 0.930 . S
H329 C314 0.930 . S
H330 C316 0.930 . S
H331 C317 0.930 . S
H332 C322 0.930 . S
H333 C323 0.930 . S
H334 C325 0.930 . S
H335 C326 0.930 . S
Gd336 N367 2.661 . S
Gd336 N373 2.601 . S
Gd336 O380 2.545 1_556 S
Gd336 O381 2.606 1_556 S
Gd336 O383 2.429 1_556 S
Gd336 O384 2.545 1_556 S
Gd336 O385 2.412 1_556 S
Gd336 O387 2.362 . S
Gd336 O388 2.324 . S
Gd336 C395 2.828 1_556 S
Gd337 N346 2.661 . S
Gd337 N350 2.601 . S
Gd337 O381 2.362 . S
Gd337 O382 2.324 . S
Gd337 O386 2.545 1_554 S
Gd337 O387 2.606 1_554 S
Gd337 O389 2.429 1_554 S
Gd337 O390 2.545 1_554 S
Gd337 O391 2.412 1_554 S
Gd337 C404 2.828 1_554 S
C338 C341 1.417 . S
C338 C343 1.431 . S
C338 C344 1.412 . S
C339 C342 1.437 . S
C339 C343 1.317 . S
C339 H358 0.929 . S
C340 C341 1.426 . S
C340 C342 1.413 . S
C340 N350 1.359 . S
C341 C338 1.417 . S
C341 C340 1.426 . S
C341 N346 1.350 . S
C342 C339 1.437 . S
C342 C340 1.413 . S
C342 C352 1.391 . S
C343 C338 1.431 . S
C343 C339 1.317 . S
C343 H354 0.930 . S
C344 C338 1.412 . S
C344 C345 1.355 . S
C344 H356 0.930 . S
C345 C344 1.355 . S
C345 C347 1.402 . S
C345 H357 0.930 . S
N346 Gd337 2.661 . S
N346 C341 1.350 . S
N346 C347 1.307 . S
C347 C345 1.402 . S
C347 N346 1.307 . S
C347 H348 0.930 . S
H348 C347 0.930 . S
C349 N350 1.334 . S
C349 C351 1.394 . S
C349 H353 0.930 . S
N350 Gd337 2.601 . S
N350 C340 1.359 . S
N350 C349 1.334 . S
C351 C349 1.394 . S
C351 C352 1.359 . S
C351 H363 0.930 . S
C352 C342 1.391 . S
C352 C351 1.359 . S
C352 H364 0.929 . S
H353 C349 0.930 . S
H354 C343 0.930 . S
H355 C372 0.930 . S
H356 C344 0.930 . S
H357 C345 0.930 . S
H358 C339 0.929 . S
H359 C377 0.930 . S
H360 C368 0.930 . S
H361 C369 0.930 . S
H362 C393 0.929 . S
H363 C351 0.930 . S
H364 C352 0.929 . S
H365 C394 0.930 . S
H366 C375 0.930 . S
N367 Gd336 2.661 . S
N367 C371 1.350 . S
N367 C372 1.307 . S
C368 H360 0.930 . S
C368 C369 1.355 . S
C368 C370 1.412 . S
C369 H361 0.930 . S
C369 C368 1.355 . S
C369 C372 1.402 . S
C370 C368 1.412 . S
C370 C371 1.417 . S
C370 C394 1.431 . S
C371 N367 1.350 . S
C371 C370 1.417 . S
C371 C374 1.426 . S
C372 H355 0.930 . S
C372 N367 1.307 . S
C372 C369 1.402 . S
N373 Gd336 2.601 . S
N373 C374 1.359 . S
N373 C377 1.334 . S
C374 C371 1.426 . S
C374 N373 1.359 . S
C374 C378 1.413 . S
C375 H366 0.930 . S
C375 C376 1.359 1_545 S
C375 C377 1.394 1_545 S
C376 C375 1.359 1_565 S
C376 C378 1.391 . S
C376 H379 0.929 1_565 S
C377 H359 0.930 . S
C377 N373 1.334 . S
C377 C375 1.394 1_565 S
C378 C374 1.413 . S
C378 C376 1.391 . S
C378 C393 1.437 . S
H379 C376 0.929 1_545 S
O380 Gd336 2.545 1_554 S
O380 C395 1.258 . S
O381 Gd336 2.606 1_554 S
O381 Gd337 2.362 . S
O381 C392 1.284 . S
O382 Gd337 2.324 . S
O382 C402 1.254 1_554 S
O383 Gd336 2.429 1_554 S
O383 C402 1.268 1_554 S
O384 Gd336 2.545 1_554 S
O384 C392 1.250 . S
O385 Gd336 2.412 1_554 S
O385 C395 1.252 . S
O386 Gd337 2.545 1_556 S
O386 C404 1.258 . S
O387 Gd336 2.362 . S
O387 Gd337 2.606 1_556 S
O387 C403 1.284 . S
O388 Gd336 2.324 . S
O388 C411 1.254 1_556 S
O389 Gd337 2.429 1_556 S
O389 C411 1.268 1_556 S
O390 Gd337 2.545 1_556 S
O390 C403 1.250 . S
O391 Gd337 2.412 1_556 S
O391 C404 1.252 . S
C392 O381 1.284 . S
C392 O384 1.250 . S
C393 H362 0.929 . S
C393 C378 1.437 . S
C393 C394 1.317 . S
C394 H365 0.930 . S
C394 C370 1.431 . S
C394 C393 1.317 . S
C395 Gd336 2.828 1_554 S
C395 O380 1.258 . S
C395 O385 1.252 . S
C395 C396 1.497 . S
C396 C395 1.497 . S
C396 C397 1.395 . S
C396 C398 1.380 . S
C397 C396 1.395 . S
C397 C400 1.398 . S
C397 H412 0.930 . S
C398 C396 1.380 . S
C398 C399 1.391 . S
C398 H413 0.930 . S
C399 C398 1.391 . S
C399 C401 1.387 . S
C400 C397 1.398 . S
C400 C401 1.380 . S
C400 H414 0.930 . S
C401 C399 1.387 . S
C401 C400 1.380 . S
C401 H415 0.930 . S
C402 O382 1.254 1_556 S
C402 O383 1.268 1_556 S
C403 O387 1.284 . S
C403 O390 1.250 . S
C404 Gd337 2.828 1_556 S
C404 O386 1.258 . S
C404 O391 1.252 . S
C404 C405 1.497 . S
C405 C404 1.497 . S
C405 C406 1.395 . S
C405 C407 1.380 . S
C406 C405 1.395 . S
C406 C409 1.398 . S
C406 H416 0.930 . S
C407 C405 1.380 . S
C407 C408 1.391 . S
C407 H417 0.930 . S
C408 C407 1.391 . S
C408 C410 1.387 . S
C409 C406 1.398 . S
C409 C410 1.380 . S
C409 H418 0.930 . S
C410 C408 1.387 . S
C410 C409 1.380 . S
C410 H419 0.930 . S
C411 O388 1.254 1_554 S
C411 O389 1.268 1_554 S
H412 C397 0.930 . S
H413 C398 0.930 . S
H414 C400 0.930 . S
H415 C401 0.930 . S
H416 C406 0.930 . S
H417 C407 0.930 . S
H418 C409 0.930 . S
H419 C410 0.930 . S
Gd420 N451 2.661 . S
Gd420 N457 2.601 . S
Gd420 O464 2.545 1_556 S
Gd420 O465 2.606 1_556 S
Gd420 O467 2.429 1_556 S
Gd420 O468 2.545 1_556 S
Gd420 O469 2.412 1_556 S
Gd420 O471 2.362 . S
Gd420 O472 2.324 . S
Gd420 C479 2.828 1_556 S
Gd421 N430 2.661 . S
Gd421 N434 2.601 . S
Gd421 O465 2.362 . S
Gd421 O466 2.324 . S
Gd421 O470 2.545 1_554 S
Gd421 O471 2.606 1_554 S
Gd421 O473 2.429 1_554 S
Gd421 O474 2.545 1_554 S
Gd421 O475 2.412 1_554 S
Gd421 C488 2.828 1_554 S
C422 C425 1.417 . S
C422 C427 1.431 . S
C422 C428 1.412 . S
C423 C426 1.437 . S
C423 C427 1.317 . S
C423 H442 0.929 . S
C424 C425 1.426 . S
C424 C426 1.413 . S
C424 N434 1.359 . S
C425 C422 1.417 . S
C425 C424 1.426 . S
C425 N430 1.350 . S
C426 C423 1.437 . S
C426 C424 1.413 . S
C426 C436 1.391 . S
C427 C422 1.431 . S
C427 C423 1.317 . S
C427 H438 0.930 . S
C428 C422 1.412 . S
C428 C429 1.355 . S
C428 H440 0.930 . S
C429 C428 1.355 . S
C429 C431 1.402 . S
C429 H441 0.930 . S
N430 Gd421 2.661 . S
N430 C425 1.350 . S
N430 C431 1.307 . S
C431 C429 1.402 . S
C431 N430 1.307 . S
C431 H432 0.930 . S
H432 C431 0.930 . S
C433 N434 1.334 . S
C433 C435 1.394 1_565 S
C433 H437 0.930 . S
N434 Gd421 2.601 . S
N434 C424 1.359 . S
N434 C433 1.334 . S
C435 C433 1.394 1_545 S
C435 C436 1.359 1_545 S
C435 H447 0.931 . S
C436 C426 1.391 . S
C436 C435 1.359 1_565 S
C436 H448 0.929 1_565 S
H437 C433 0.930 . S
H438 C427 0.930 . S
H439 C456 0.930 . S
H440 C428 0.930 . S
H441 C429 0.930 . S
H442 C423 0.929 . S
H443 C461 0.930 . S
H444 C452 0.930 . S
H445 C453 0.930 . S
H446 C477 0.929 . S
H447 C435 0.931 . S
H448 C436 0.929 1_545 S
H449 C478 0.930 . S
H450 C459 0.930 . S
N451 Gd420 2.661 . S
N451 C455 1.350 . S
N451 C456 1.307 . S
C452 H444 0.930 . S
C452 C453 1.355 . S
C452 C454 1.412 . S
C453 H445 0.930 . S
C453 C452 1.355 . S
C453 C456 1.402 . S
C454 C452 1.412 . S
C454 C455 1.417 . S
C454 C478 1.431 . S
C455 N451 1.350 . S
C455 C454 1.417 . S
C455 C458 1.426 . S
C456 H439 0.930 . S
C456 N451 1.307 . S
C456 C453 1.402 . S
N457 Gd420 2.601 . S
N457 C458 1.359 . S
N457 C461 1.334 . S
C458 C455 1.426 . S
C458 N457 1.359 . S
C458 C462 1.413 . S
C459 H450 0.930 . S
C459 C460 1.359 . S
C459 C461 1.394 . S
C460 C459 1.359 . S
C460 C462 1.391 . S
C460 H463 0.929 . S
C461 H443 0.930 . S
C461 N457 1.334 . S
C461 C459 1.394 . S
C462 C458 1.413 . S
C462 C460 1.391 . S
C462 C477 1.437 . S
H463 C460 0.929 . S
O464 Gd420 2.545 1_554 S
O464 C479 1.258 . S
O465 Gd420 2.606 1_554 S
O465 Gd421 2.362 . S
O465 C476 1.284 . S
O466 Gd421 2.324 . S
O466 C486 1.254 1_554 S
O467 Gd420 2.429 1_554 S
O467 C486 1.268 1_554 S
O468 Gd420 2.545 1_554 S
O468 C476 1.250 . S
O469 Gd420 2.412 1_554 S
O469 C479 1.252 . S
O470 Gd421 2.545 1_556 S
O470 C488 1.258 . S
O471 Gd420 2.362 . S
O471 Gd421 2.606 1_556 S
O471 C487 1.284 . S
O472 Gd420 2.324 . S
O472 C495 1.254 1_556 S
O473 Gd421 2.429 1_556 S
O473 C495 1.268 1_556 S
O474 Gd421 2.545 1_556 S
O474 C487 1.250 . S
O475 Gd421 2.412 1_556 S
O475 C488 1.252 . S
C476 O465 1.284 . S
C476 O468 1.250 . S
C477 H446 0.929 . S
C477 C462 1.437 . S
C477 C478 1.317 . S
C478 H449 0.930 . S
C478 C454 1.431 . S
C478 C477 1.317 . S
C479 Gd420 2.828 1_554 S
C479 O464 1.258 . S
C479 O469 1.252 . S
C479 C480 1.497 . S
C480 C479 1.497 . S
C480 C481 1.395 . S
C480 C482 1.380 . S
C481 C480 1.395 . S
C481 C484 1.398 . S
C481 H496 0.930 . S
C482 C480 1.380 . S
C482 C483 1.391 . S
C482 H497 0.930 . S
C483 C482 1.391 . S
C483 C485 1.387 . S
C484 C481 1.398 . S
C484 C485 1.380 . S
C484 H498 0.930 . S
C485 C483 1.387 . S
C485 C484 1.380 . S
C485 H499 0.930 . S
C486 O466 1.254 1_556 S
C486 O467 1.268 1_556 S
C487 O471 1.284 . S
C487 O474 1.250 . S
C488 Gd421 2.828 1_556 S
C488 O470 1.258 . S
C488 O475 1.252 . S
C488 C489 1.497 . S
C489 C488 1.497 . S
C489 C490 1.395 . S
C489 C491 1.380 . S
C490 C489 1.395 . S
C490 C493 1.398 . S
C490 H500 0.930 . S
C491 C489 1.380 . S
C491 C492 1.391 . S
C491 H501 0.930 . S
C492 C491 1.391 . S
C492 C494 1.387 . S
C493 C490 1.398 . S
C493 C494 1.380 . S
C493 H502 0.930 . S
C494 C492 1.387 . S
C494 C493 1.380 . S
C494 H503 0.930 . S
C495 O472 1.254 1_554 S
C495 O473 1.268 1_554 S
H496 C481 0.930 . S
H497 C482 0.930 . S
H498 C484 0.930 . S
H499 C485 0.930 . S
H500 C490 0.930 . S
H501 C491 0.930 . S
H502 C493 0.930 . S
H503 C494 0.930 . S
Gd504 N535 2.661 . S
Gd504 N541 2.601 . S
Gd504 O548 2.545 1_556 S
Gd504 O549 2.606 1_556 S
Gd504 O551 2.429 1_556 S
Gd504 O552 2.545 1_556 S
Gd504 O553 2.412 1_556 S
Gd504 O555 2.362 . S
Gd504 O556 2.324 . S
Gd504 C563 2.828 1_556 S
Gd505 N514 2.661 . S
Gd505 N518 2.601 . S
Gd505 O549 2.362 . S
Gd505 O550 2.324 . S
Gd505 O554 2.545 1_554 S
Gd505 O555 2.606 1_554 S
Gd505 O557 2.429 1_554 S
Gd505 O558 2.545 1_554 S
Gd505 O559 2.412 1_554 S
Gd505 C572 2.828 1_554 S
C506 C509 1.417 . S
C506 C511 1.431 . S
C506 C512 1.412 . S
C507 C510 1.437 . S
C507 C511 1.317 . S
C507 H526 0.929 . S
C508 C509 1.426 . S
C508 C510 1.413 . S
C508 N518 1.359 . S
C509 C506 1.417 . S
C509 C508 1.426 . S
C509 N514 1.350 . S
C510 C507 1.437 . S
C510 C508 1.413 . S
C510 C520 1.391 . S
C511 C506 1.431 . S
C511 C507 1.317 . S
C511 H522 0.930 . S
C512 C506 1.412 . S
C512 C513 1.355 . S
C512 H524 0.930 . S
C513 C512 1.355 . S
C513 C515 1.402 . S
C513 H525 0.930 . S
N514 Gd505 2.661 . S
N514 C509 1.350 . S
N514 C515 1.307 . S
C515 C513 1.402 . S
C515 N514 1.307 . S
C515 H516 0.930 . S
H516 C515 0.930 . S
C517 N518 1.334 . S
C517 C519 1.394 . S
C517 H521 0.930 . S
N518 Gd505 2.601 . S
N518 C508 1.359 . S
N518 C517 1.334 . S
C519 C517 1.394 . S
C519 C520 1.359 . S
C519 H531 0.930 . S
C520 C510 1.391 . S
C520 C519 1.359 . S
C520 H532 0.929 . S
H521 C517 0.930 . S
H522 C511 0.930 . S
H523 C540 0.930 . S
H524 C512 0.930 . S
H525 C513 0.930 . S
H526 C507 0.929 . S
H527 C545 0.930 . S
H528 C536 0.930 . S
H529 C537 0.930 . S
H530 C561 0.929 . S
H531 C519 0.930 . S
H532 C520 0.929 . S
H533 C562 0.930 . S
H534 C543 0.931 . S
N535 Gd504 2.661 . S
N535 C539 1.350 . S
N535 C540 1.307 . S
C536 H528 0.930 . S
C536 C537 1.355 . S
C536 C538 1.412 . S
C537 H529 0.930 . S
C537 C536 1.355 . S
C537 C540 1.402 . S
C538 C536 1.412 . S
C538 C539 1.417 . S
C538 C562 1.431 . S
C539 N535 1.350 . S
C539 C538 1.417 . S
C539 C542 1.426 . S
C540 H523 0.930 . S
C540 N535 1.307 . S
C540 C537 1.402 . S
N541 Gd504 2.601 . S
N541 C542 1.359 . S
N541 C545 1.334 . S
C542 C539 1.426 . S
C542 N541 1.359 . S
C542 C546 1.413 . S
C543 H534 0.931 . S
C543 C544 1.359 1_565 S
C543 C545 1.394 1_565 S
C544 C543 1.359 1_545 S
C544 C546 1.391 . S
C544 H547 0.929 1_545 S
C545 H527 0.930 . S
C545 N541 1.334 . S
C545 C543 1.394 1_545 S
C546 C542 1.413 . S
C546 C544 1.391 . S
C546 C561 1.437 . S
H547 C544 0.929 1_565 S
O548 Gd504 2.545 1_554 S
O548 C563 1.258 . S
O549 Gd504 2.606 1_554 S
O549 Gd505 2.362 . S
O549 C560 1.284 . S
O550 Gd505 2.324 . S
O550 C570 1.254 1_554 S
O551 Gd504 2.429 1_554 S
O551 C570 1.268 1_554 S
O552 Gd504 2.545 1_554 S
O552 C560 1.250 . S
O553 Gd504 2.412 1_554 S
O553 C563 1.252 . S
O554 Gd505 2.545 1_556 S
O554 C572 1.258 . S
O555 Gd504 2.362 . S
O555 Gd505 2.606 1_556 S
O555 C571 1.284 . S
O556 Gd504 2.324 . S
O556 C579 1.254 1_556 S
O557 Gd505 2.429 1_556 S
O557 C579 1.268 1_556 S
O558 Gd505 2.545 1_556 S
O558 C571 1.250 . S
O559 Gd505 2.412 1_556 S
O559 C572 1.252 . S
C560 O549 1.284 . S
C560 O552 1.250 . S
C561 H530 0.929 . S
C561 C546 1.437 . S
C561 C562 1.317 . S
C562 H533 0.930 . S
C562 C538 1.431 . S
C562 C561 1.317 . S
C563 Gd504 2.828 1_554 S
C563 O548 1.258 . S
C563 O553 1.252 . S
C563 C564 1.497 . S
C564 C563 1.497 . S
C564 C565 1.395 . S
C564 C566 1.380 . S
C565 C564 1.395 . S
C565 C568 1.398 . S
C565 H580 0.930 . S
C566 C564 1.380 . S
C566 C567 1.391 . S
C566 H581 0.930 . S
C567 C566 1.391 . S
C567 C569 1.387 . S
C568 C565 1.398 . S
C568 C569 1.380 . S
C568 H582 0.930 . S
C569 C567 1.387 . S
C569 C568 1.380 . S
C569 H583 0.930 . S
C570 O550 1.254 1_556 S
C570 O551 1.268 1_556 S
C571 O555 1.284 . S
C571 O558 1.250 . S
C572 Gd505 2.828 1_556 S
C572 O554 1.258 . S
C572 O559 1.252 . S
C572 C573 1.497 . S
C573 C572 1.497 . S
C573 C574 1.395 . S
C573 C575 1.380 . S
C574 C573 1.395 . S
C574 C577 1.398 . S
C574 H584 0.930 . S
C575 C573 1.380 . S
C575 C576 1.391 . S
C575 H585 0.930 . S
C576 C575 1.391 . S
C576 C578 1.387 . S
C577 C574 1.398 . S
C577 C578 1.380 . S
C577 H586 0.930 . S
C578 C576 1.387 . S
C578 C577 1.380 . S
C578 H587 0.930 . S
C579 O556 1.254 1_554 S
C579 O557 1.268 1_554 S
H580 C565 0.930 . S
H581 C566 0.930 . S
H582 C568 0.930 . S
H583 C569 0.930 . S
H584 C574 0.930 . S
H585 C575 0.930 . S
H586 C577 0.930 . S
H587 C578 0.930 . S
Gd588 N619 2.661 . S
Gd588 N625 2.601 . S
Gd588 O632 2.545 1_556 S
Gd588 O633 2.606 1_556 S
Gd588 O635 2.429 1_556 S
Gd588 O636 2.545 1_556 S
Gd588 O637 2.412 1_556 S
Gd588 O639 2.362 . S
Gd588 O640 2.324 . S
Gd588 C647 2.828 1_556 S
Gd589 N598 2.661 . S
Gd589 N602 2.601 . S
Gd589 O633 2.362 . S
Gd589 O634 2.324 . S
Gd589 O638 2.545 1_554 S
Gd589 O639 2.606 1_554 S
Gd589 O641 2.429 1_554 S
Gd589 O642 2.545 1_554 S
Gd589 O643 2.412 1_554 S
Gd589 C656 2.828 1_554 S
C590 C593 1.417 . S
C590 C595 1.431 . S
C590 C596 1.412 . S
C591 C594 1.437 . S
C591 C595 1.317 . S
C591 H610 0.929 . S
C592 C593 1.426 . S
C592 C594 1.413 . S
C592 N602 1.359 . S
C593 C590 1.417 . S
C593 C592 1.426 . S
C593 N598 1.350 . S
C594 C591 1.437 . S
C594 C592 1.413 . S
C594 C604 1.391 . S
C595 C590 1.431 . S
C595 C591 1.317 . S
C595 H606 0.930 . S
C596 C590 1.412 . S
C596 C597 1.355 . S
C596 H608 0.930 . S
C597 C596 1.355 . S
C597 C599 1.402 . S
C597 H609 0.930 . S
N598 Gd589 2.661 . S
N598 C593 1.350 . S
N598 C599 1.307 . S
C599 C597 1.402 . S
C599 N598 1.307 . S
C599 H600 0.930 . S
H600 C599 0.930 . S
C601 N602 1.334 . S
C601 C603 1.394 1_545 S
C601 H605 0.930 . S
N602 Gd589 2.601 . S
N602 C592 1.359 . S
N602 C601 1.334 . S
C603 C601 1.394 1_565 S
C603 C604 1.359 1_565 S
C603 H615 0.930 . S
C604 C594 1.391 . S
C604 C603 1.359 1_545 S
C604 H616 0.929 1_545 S
H605 C601 0.930 . S
H606 C595 0.930 . S
H607 C624 0.930 . S
H608 C596 0.930 . S
H609 C597 0.930 . S
H610 C591 0.929 . S
H611 C629 0.930 . S
H612 C620 0.930 . S
H613 C621 0.930 . S
H614 C645 0.929 . S
H615 C603 0.930 . S
H616 C604 0.929 1_565 S
H617 C646 0.930 . S
H618 C627 0.930 . S
N619 Gd588 2.661 . S
N619 C623 1.350 . S
N619 C624 1.307 . S
C620 H612 0.930 . S
C620 C621 1.355 . S
C620 C622 1.412 . S
C621 H613 0.930 . S
C621 C620 1.355 . S
C621 C624 1.402 . S
C622 C620 1.412 . S
C622 C623 1.417 . S
C622 C646 1.431 . S
C623 N619 1.350 . S
C623 C622 1.417 . S
C623 C626 1.426 . S
C624 H607 0.930 . S
C624 N619 1.307 . S
C624 C621 1.402 . S
N625 Gd588 2.601 . S
N625 C626 1.359 . S
N625 C629 1.334 . S
C626 C623 1.426 . S
C626 N625 1.359 . S
C626 C630 1.413 . S
C627 H618 0.930 . S
C627 C628 1.359 . S
C627 C629 1.394 . S
C628 C627 1.359 . S
C628 C630 1.391 . S
C628 H631 0.929 . S
C629 H611 0.930 . S
C629 N625 1.334 . S
C629 C627 1.394 . S
C630 C626 1.413 . S
C630 C628 1.391 . S
C630 C645 1.437 . S
H631 C628 0.929 . S
O632 Gd588 2.545 1_554 S
O632 C647 1.258 . S
O633 Gd588 2.606 1_554 S
O633 Gd589 2.362 . S
O633 C644 1.284 . S
O634 Gd589 2.324 . S
O634 C654 1.254 1_554 S
O635 Gd588 2.429 1_554 S
O635 C654 1.268 1_554 S
O636 Gd588 2.545 1_554 S
O636 C644 1.250 . S
O637 Gd588 2.412 1_554 S
O637 C647 1.252 . S
O638 Gd589 2.545 1_556 S
O638 C656 1.258 . S
O639 Gd588 2.362 . S
O639 Gd589 2.606 1_556 S
O639 C655 1.284 . S
O640 Gd588 2.324 . S
O640 C663 1.254 1_556 S
O641 Gd589 2.429 1_556 S
O641 C663 1.268 1_556 S
O642 Gd589 2.545 1_556 S
O642 C655 1.250 . S
O643 Gd589 2.412 1_556 S
O643 C656 1.252 . S
C644 O633 1.284 . S
C644 O636 1.250 . S
C645 H614 0.929 . S
C645 C630 1.437 . S
C645 C646 1.317 . S
C646 H617 0.930 . S
C646 C622 1.431 . S
C646 C645 1.317 . S
C647 Gd588 2.828 1_554 S
C647 O632 1.258 . S
C647 O637 1.252 . S
C647 C648 1.497 . S
C648 C647 1.497 . S
C648 C649 1.395 . S
C648 C650 1.380 . S
C649 C648 1.395 . S
C649 C652 1.398 . S
C649 H664 0.930 . S
C650 C648 1.380 . S
C650 C651 1.391 . S
C650 H665 0.930 . S
C651 C650 1.391 . S
C651 C653 1.387 . S
C652 C649 1.398 . S
C652 C653 1.380 . S
C652 H666 0.930 . S
C653 C651 1.387 . S
C653 C652 1.380 . S
C653 H667 0.930 . S
C654 O634 1.254 1_556 S
C654 O635 1.268 1_556 S
C655 O639 1.284 . S
C655 O642 1.250 . S
C656 Gd589 2.828 1_556 S
C656 O638 1.258 . S
C656 O643 1.252 . S
C656 C657 1.497 . S
C657 C656 1.497 . S
C657 C658 1.395 . S
C657 C659 1.380 . S
C658 C657 1.395 . S
C658 C661 1.398 . S
C658 H668 0.930 . S
C659 C657 1.380 . S
C659 C660 1.391 . S
C659 H669 0.930 . S
C660 C659 1.391 . S
C660 C662 1.387 . S
C661 C658 1.398 . S
C661 C662 1.380 . S
C661 H670 0.930 . S
C662 C660 1.387 . S
C662 C661 1.380 . S
C662 H671 0.930 . S
C663 O640 1.254 1_554 S
C663 O641 1.268 1_554 S
H664 C649 0.930 . S
H665 C650 0.930 . S
H666 C652 0.930 . S
H667 C653 0.930 . S
H668 C658 0.930 . S
H669 C659 0.930 . S
H670 C661 0.930 . S
H671 C662 0.930 . S
C672 C673 1.387 . S
C672 H676 0.950 . S
C672 C681 1.390 . S
C673 C672 1.387 . S
C673 C675 1.387 . S
H674 C681 0.950 . S
C675 C673 1.387 . S
C675 C677 1.390 . S
C675 H679 0.950 . S
H676 C672 0.950 . S
C677 C675 1.390 . S
C677 C678 1.387 . S
C677 H680 0.950 . S
C678 C677 1.387 . S
C678 C681 1.387 . S
H679 C675 0.950 . S
H680 C677 0.950 . S
C681 C672 1.390 . S
C681 H674 0.950 . S
C681 C678 1.387 . S
C682 C683 1.387 . S
C682 H686 0.950 . S
C682 C691 1.390 . S
C683 C682 1.387 . S
C683 C685 1.387 . S
H684 C691 0.950 . S
C685 C683 1.387 . S
C685 C687 1.390 . S
C685 H689 0.950 . S
H686 C682 0.950 . S
C687 C685 1.390 . S
C687 C688 1.387 . S
C687 H690 0.950 . S
C688 C687 1.387 . S
C688 C691 1.387 . S
H689 C685 0.950 . S
H690 C687 0.950 . S
C691 C682 1.390 . S
C691 H684 0.950 . S
C691 C688 1.387 . S
C692 C693 1.387 . S
C692 H696 0.950 . S
C692 C701 1.390 . S
C693 C692 1.387 . S
C693 C695 1.387 . S
H694 C701 0.950 . S
C695 C693 1.387 . S
C695 C697 1.390 . S
C695 H699 0.950 . S
H696 C692 0.950 . S
C697 C695 1.390 . S
C697 C698 1.387 . S
C697 H700 0.950 . S
C698 C697 1.387 . S
C698 C701 1.387 . S
H699 C695 0.950 . S
H700 C697 0.950 . S
C701 C692 1.390 . S
C701 H694 0.950 . S
C701 C698 1.387 . S
C702 C703 1.387 . S
C702 H706 0.950 . S
C702 C711 1.390 . S
C703 C702 1.387 . S
C703 C705 1.387 . S
H704 C711 0.950 . S
C705 C703 1.387 . S
C705 C707 1.390 . S
C705 H709 0.950 . S
H706 C702 0.950 . S
C707 C705 1.390 . S
C707 C708 1.387 . S
C707 H710 0.950 . S
C708 C707 1.387 . S
C708 C711 1.387 . S
H709 C705 0.950 . S
H710 C707 0.950 . S
C711 C702 1.390 . S
C711 H704 0.950 . S
C711 C708 1.387 . S
C712 C713 1.387 1_545 S
C712 H716 0.950 . S
C712 C721 1.390 . S
C713 C712 1.387 1_565 S
C713 C715 1.387 . S
H714 C721 0.950 . S
C715 C713 1.387 . S
C715 C717 1.390 1_565 S
C715 H719 0.950 . S
H716 C712 0.950 . S
C717 C715 1.390 1_545 S
C717 C718 1.387 . S
C717 H720 0.950 . S
C718 C717 1.387 . S
C718 C721 1.387 . S
H719 C715 0.950 . S
H720 C717 0.950 . S
C721 C712 1.390 . S
C721 H714 0.950 . S
C721 C718 1.387 . S
C722 C723 1.387 . S
C722 H726 0.950 . S
C722 C731 1.390 . S
C723 C722 1.387 . S
C723 C725 1.387 . S
H724 C731 0.950 . S
C725 C723 1.387 . S
C725 C727 1.390 . S
C725 H729 0.950 . S
H726 C722 0.950 . S
C727 C725 1.390 . S
C727 C728 1.387 . S
C727 H730 0.950 . S
C728 C727 1.387 . S
C728 C731 1.387 . S
H729 C725 0.950 . S
H730 C727 0.950 . S
C731 C722 1.390 . S
C731 H724 0.950 . S
C731 C728 1.387 . S
C732 C733 1.387 . S
C732 H736 0.950 . S
C732 C741 1.390 1_565 S
C733 C732 1.387 . S
C733 C735 1.387 . S
H734 C741 0.950 . S
C735 C733 1.387 . S
C735 C737 1.390 1_565 S
C735 H739 0.950 . S
H736 C732 0.950 . S
C737 C735 1.390 1_545 S
C737 C738 1.387 . S
C737 H740 0.950 . S
C738 C737 1.387 . S
C738 C741 1.387 . S
H739 C735 0.950 . S
H740 C737 0.950 . S
C741 C732 1.390 1_545 S
C741 H734 0.950 . S
C741 C738 1.387 . S
C742 C743 1.387 . S
C742 H746 0.950 . S
C742 C751 1.390 . S
C743 C742 1.387 . S
C743 C745 1.387 . S
H744 C751 0.950 . S
C745 C743 1.387 . S
C745 C747 1.390 . S
C745 H749 0.950 . S
H746 C742 0.950 . S
C747 C745 1.390 . S
C747 C748 1.387 . S
C747 H750 0.950 . S
C748 C747 1.387 . S
C748 C751 1.387 . S
H749 C745 0.950 . S
H750 C747 0.950 . S
C751 C742 1.390 . S
C751 H744 0.950 . S
C751 C748 1.387 . S
C752 C753 1.387 1_556 S
C752 H756 0.950 . S
C752 C761 1.390 . S
C753 C752 1.387 1_554 S
C753 C755 1.387 . S
H754 C761 0.950 . S
C755 C753 1.387 . S
C755 C757 1.390 . S
C755 H759 0.950 . S
H756 C752 0.950 . S
C757 C755 1.390 . S
C757 C758 1.387 . S
C757 H760 0.950 . S
C758 C757 1.387 . S
C758 C761 1.387 1_554 S
H759 C755 0.950 . S
H760 C757 0.950 . S
C761 C752 1.390 . S
C761 H754 0.950 . S
C761 C758 1.387 1_556 S
C762 C763 1.387 . S
C762 H766 0.950 . S
C762 C771 1.390 1_565 S
C763 C762 1.387 . S
C763 C765 1.387 1_554 S
H764 C771 0.950 . S
C765 C763 1.387 1_556 S
C765 C767 1.390 1_565 S
C765 H769 0.950 . S
H766 C762 0.950 . S
C767 C765 1.390 1_545 S
C767 C768 1.387 1_556 S
C767 H770 0.950 . S
C768 C767 1.387 1_554 S
C768 C771 1.387 . S
H769 C765 0.950 . S
H770 C767 0.950 . S
C771 C762 1.390 1_545 S
C771 H764 0.950 . S
C771 C768 1.387 . S
C772 C773 1.387 . S
C772 H776 0.950 . S
C772 C781 1.390 . S
C773 C772 1.387 . S
C773 C775 1.387 1_556 S
H774 C781 0.950 . S
C775 C773 1.387 1_554 S
C775 C777 1.390 . S
C775 H779 0.950 . S
H776 C772 0.950 . S
C777 C775 1.390 . S
C777 C778 1.387 1_554 S
C777 H780 0.950 . S
C778 C777 1.387 1_556 S
C778 C781 1.387 . S
H779 C775 0.950 . S
H780 C777 0.950 . S
C781 C772 1.390 . S
C781 H774 0.950 . S
C781 C778 1.387 . S
C782 C783 1.387 1_554 S
C782 H786 0.950 . S
C782 C791 1.390 1_545 S
C783 C782 1.387 1_556 S
C783 C785 1.387 . S
H784 C791 0.950 . S
C785 C783 1.387 . S
C785 C787 1.390 1_545 S
C785 H789 0.950 . S
H786 C782 0.950 . S
C787 C785 1.390 1_565 S
C787 C788 1.387 . S
C787 H790 0.950 . S
C788 C787 1.387 . S
C788 C791 1.387 1_556 S
H789 C785 0.950 . S
H790 C787 0.950 . S
C791 C782 1.390 1_565 S
C791 H784 0.950 . S
C791 C788 1.387 1_554 S
C792 C793 1.387 1_556 S
C792 H796 0.950 1_556 S
C792 C801 1.390 . S
C793 C792 1.387 1_554 S
C793 C795 1.387 . S
H794 C801 0.950 . S
C795 C793 1.387 . S
C795 C797 1.390 1_554 S
C795 H799 0.950 . S
H796 C792 0.950 1_554 S
C797 C795 1.390 1_556 S
C797 C798 1.387 . S
C797 H800 0.950 . S
C798 C797 1.387 . S
C798 C801 1.387 . S
H799 C795 0.950 . S
H800 C797 0.950 . S
C801 C792 1.390 . S
C801 H794 0.950 . S
C801 C798 1.387 . S
C802 C803 1.387 1_556 S
C802 H806 0.950 1_556 S
C802 C811 1.390 . S
C803 C802 1.387 1_554 S
C803 C805 1.387 . S
H804 C811 0.950 . S
C805 C803 1.387 . S
C805 C807 1.390 1_554 S
C805 H809 0.950 . S
H806 C802 0.950 1_554 S
C807 C805 1.390 1_556 S
C807 C808 1.387 . S
C807 H810 0.950 . S
C808 C807 1.387 . S
C808 C811 1.387 . S
H809 C805 0.950 . S
H810 C807 0.950 . S
C811 C802 1.390 . S
C811 H804 0.950 . S
C811 C808 1.387 . S
C812 C813 1.387 . S
C812 H816 0.950 . S
C812 C821 1.390 . S
C813 C812 1.387 . S
C813 C815 1.387 . S
H814 C821 0.950 1_556 S
C815 C813 1.387 . S
C815 C817 1.390 1_554 S
C815 H819 0.950 . S
H816 C812 0.950 . S
C817 C815 1.390 1_556 S
C817 C818 1.387 . S
C817 H820 0.950 . S
C818 C817 1.387 . S
C818 C821 1.387 1_556 S
H819 C815 0.950 . S
H820 C817 0.950 . S
C821 C812 1.390 . S
C821 H814 0.950 1_554 S
C821 C818 1.387 1_554 S
C822 C823 1.387 1_554 S
C822 H826 0.950 1_554 S
C822 C831 1.390 . S
C823 C822 1.387 1_556 S
C823 C825 1.387 . S
H824 C831 0.950 . S
C825 C823 1.387 . S
C825 C827 1.390 1_556 S
C825 H829 0.950 . S
H826 C822 0.950 1_556 S
C827 C825 1.390 1_554 S
C827 C828 1.387 . S
C827 H830 0.950 . S
C828 C827 1.387 . S
C828 C831 1.387 . S
H829 C825 0.950 . S
H830 C827 0.950 . S
C831 C822 1.390 . S
C831 H824 0.950 . S
C831 C828 1.387 . S
C832 C833 1.387 . S
C832 H836 0.950 . S
C832 C841 1.390 . S
C833 C832 1.387 . S
C833 C835 1.387 . S
H834 C841 0.950 . S
C835 C833 1.387 . S
C835 C837 1.390 . S
C835 H839 0.950 . S
H836 C832 0.950 . S
C837 C835 1.390 . S
C837 C838 1.387 . S
C837 H840 0.950 . S
C838 C837 1.387 . S
C838 C841 1.387 . S
H839 C835 0.950 . S
H840 C837 0.950 . S
C841 C832 1.390 . S
C841 H834 0.950 . S
C841 C838 1.387 . S
C842 C843 1.387 . S
C842 H846 0.950 . S
C842 C851 1.390 . S
C843 C842 1.387 . S
C843 C845 1.387 . S
H844 C851 0.950 . S
C845 C843 1.387 . S
C845 C847 1.390 . S
C845 H849 0.950 . S
H846 C842 0.950 . S
C847 C845 1.390 . S
C847 C848 1.387 . S
C847 H850 0.950 . S
C848 C847 1.387 . S
C848 C851 1.387 . S
H849 C845 0.950 . S
H850 C847 0.950 . S
C851 C842 1.390 . S
C851 H844 0.950 . S
C851 C848 1.387 . S
C852 C853 1.387 . S
C852 H856 0.950 . S
C852 C861 1.390 . S
C853 C852 1.387 . S
C853 C855 1.387 . S
H854 C861 0.950 . S
C855 C853 1.387 . S
C855 C857 1.390 . S
C855 H859 0.950 . S
H856 C852 0.950 . S
C857 C855 1.390 . S
C857 C858 1.387 . S
C857 H860 0.950 . S
C858 C857 1.387 . S
C858 C861 1.387 . S
H859 C855 0.950 . S
H860 C857 0.950 . S
C861 C852 1.390 . S
C861 H854 0.950 . S
C861 C858 1.387 . S
C862 C863 1.387 . S
C862 H866 0.950 . S
C862 C871 1.390 . S
C863 C862 1.387 . S
C863 C865 1.387 . S
H864 C871 0.950 . S
C865 C863 1.387 . S
C865 C867 1.390 . S
C865 H869 0.950 . S
H866 C862 0.950 . S
C867 C865 1.390 . S
C867 C868 1.387 . S
C867 H870 0.950 . S
C868 C867 1.387 . S
C868 C871 1.387 . S
H869 C865 0.950 . S
H870 C867 0.950 . S
C871 C862 1.390 . S
C871 H864 0.950 . S
C871 C868 1.387 . S
C872 C873 1.387 . S
C872 H876 0.950 . S
C872 C881 1.390 1_455 S
C873 C872 1.387 . S
C873 C875 1.387 . S
H874 C881 0.950 . S
C875 C873 1.387 . S
C875 C877 1.390 1_455 S
C875 H879 0.950 . S
H876 C872 0.950 . S
C877 C875 1.390 1_655 S
C877 C878 1.387 . S
C877 H880 0.950 . S
C878 C877 1.387 . S
C878 C881 1.387 . S
H879 C875 0.950 . S
H880 C877 0.950 . S
C881 C872 1.390 1_655 S
C881 H874 0.950 . S
C881 C878 1.387 . S
C882 C883 1.387 . S
C882 H886 0.950 . S
C882 C891 1.390 1_655 S
C883 C882 1.387 . S
C883 C885 1.387 . S
H884 C891 0.950 . S
C885 C883 1.387 . S
C885 C887 1.390 1_655 S
C885 H889 0.950 . S
H886 C882 0.950 . S
C887 C885 1.390 1_455 S
C887 C888 1.387 . S
C887 H890 0.950 . S
C888 C887 1.387 . S
C888 C891 1.387 . S
H889 C885 0.950 . S
H890 C887 0.950 . S
C891 C882 1.390 1_455 S
C891 H884 0.950 . S
C891 C888 1.387 . S
C892 C893 1.387 . S
C892 H896 0.950 . S
C892 C901 1.390 . S
C893 C892 1.387 . S
C893 C895 1.387 . S
H894 C901 0.950 . S
C895 C893 1.387 . S
C895 C897 1.390 . S
C895 H899 0.950 . S
H896 C892 0.950 . S
C897 C895 1.390 . S
C897 C898 1.387 . S
C897 H900 0.950 . S
C898 C897 1.387 . S
C898 C901 1.387 . S
H899 C895 0.950 . S
H900 C897 0.950 . S
C901 C892 1.390 . S
C901 H894 0.950 . S
C901 C898 1.387 . S
C902 C903 1.387 . S
C902 H906 0.950 . S
C902 C911 1.390 . S
C903 C902 1.387 . S
C903 C905 1.387 . S
H904 C911 0.950 . S
C905 C903 1.387 . S
C905 C907 1.390 . S
C905 H909 0.950 . S
H906 C902 0.950 . S
C907 C905 1.390 . S
C907 C908 1.387 . S
C907 H910 0.950 . S
C908 C907 1.387 . S
C908 C911 1.387 . S
H909 C905 0.950 . S
H910 C907 0.950 . S
C911 C902 1.390 . S
C911 H904 0.950 . S
C911 C908 1.387 . S
C673 C63 1.434 . S
C678 C660 1.433 . S
C683 C576 1.434 . S
C688 C147 1.434 . S
C693 C483 1.434 . S
C698 C240 1.433 . S
C703 C399 1.433 . S
C708 C324 1.432 . S
C713 C243 1.499 . S
C718 C75 1.615 . S
C723 C159 1.615 . S
C728 C327 1.497 . S
C733 C318 1.616 . S
C738 C150 1.497 . S
C743 C234 1.615 . S
C748 C66 1.496 . S
C753 C411 1.469 . S
C758 C579 1.470 . S
C763 C495 1.470 . S
C768 C663 1.470 . S
C773 C654 1.469 . S
C778 C486 1.470 . S
C783 C570 1.470 . S
C788 C402 1.470 . S
C793 C67 1.929 . S
C798 C56 1.929 . S
C803 C151 1.929 . S
C808 C140 1.929 . S
C813 C235 1.930 . S
C818 C224 1.930 . S
C823 C308 1.929 . S
C828 C319 1.929 . S
C833 C392 1.928 . S
C838 C403 1.928 . S
C843 C487 1.929 . S
C848 C476 1.929 . S
C853 C560 1.929 . S
C858 C571 1.929 . S
C863 C644 1.929 . S
C868 C655 1.929 . S
C873 C72 1.699 . S
C878 C156 1.699 . S
C883 C315 1.699 . S
C888 C231 1.699 . S
C893 C408 1.703 . S
C898 C492 1.703 . S
C903 C651 1.699 . S
C908 C567 1.699 . S
