# Generated by pormake.
# Topology bsn, (6)-cn, num edge types: 1
# Building blocks:
#     Node 0, Type 0, BuildingBlock: VOLQOD_clean_sbu_1, # of connection points: 6
#     Node 1, Type 0, BuildingBlock: VOLQOD_clean_sbu_1, # of connection points: 6
#     Node 2, Type 0, BuildingBlock: VOLQOD_clean_sbu_1, # of connection points: 6
#     Node 3, Type 0, BuildingBlock: VOLQOD_clean_sbu_1, # of connection points: 6
#     Edge 4, Type (0, 0), BuildingBlock: EZIPEK_clean_linker_0, # of connection points: 2
#     Edge 5, Type (0, 0), BuildingBlock: EZIPEK_clean_linker_0, # of connection points: 2
#     Edge 6, Type (0, 0), BuildingBlock: EZIPEK_clean_linker_0, # of connection points: 2
#     Edge 7, Type (0, 0), BuildingBlock: EZIPEK_clean_linker_0, # of connection points: 2
#     Edge 8, Type (0, 0), BuildingBlock: EZIPEK_clean_linker_0, # of connection points: 2
#     Edge 9, Type (0, 0), BuildingBlock: EZIPEK_clean_linker_0, # of connection points: 2
#     Edge 10, Type (0, 0), BuildingBlock: EZIPEK_clean_linker_0, # of connection points: 2
#     Edge 11, Type (0, 0), BuildingBlock: EZIPEK_clean_linker_0, # of connection points: 2
#     Edge 12, Type (0, 0), BuildingBlock: EZIPEK_clean_linker_0, # of connection points: 2
#     Edge 13, Type (0, 0), BuildingBlock: EZIPEK_clean_linker_0, # of connection points: 2
#     Edge 14, Type (0, 0), BuildingBlock: EZIPEK_clean_linker_0, # of connection points: 2
#     Edge 15, Type (0, 0), BuildingBlock: EZIPEK_clean_linker_0, # of connection points: 2
# Relax obj value: 0.019
# Max RMSD: 0.064
# Mean RMSD: 0.062
data_MOF--net-bsn--node1-VOLQOD_clean_sbu_1--edge1-EZIPEK_clean_linker_0
_symmetry_space_group_name_H-M    P1
_symmetry_Int_Tables_number       1
_symmetry_cell_setting            triclinic
loop_
_symmetry_equiv_pos_as_xyz
'x, y, z'
_cell_length_a     25.073177
_cell_length_b     25.224065
_cell_length_c     13.022825
_cell_angle_alpha  90.309069
_cell_angle_beta   90.054519
_cell_angle_gamma 90.221231
loop_
_atom_site_label
_atom_site_type_symbol
_atom_site_fract_x
_atom_site_fract_y
_atom_site_fract_z
_atom_type_partial_charge
O0 O 0.03707 0.25481 0.59626 0.0
Zn1 Zn 0.04749 0.27788 0.45089 0.0
O2 O 0.99399 0.24594 0.36469 0.0
Zn3 Zn 0.02695 0.19371 0.27811 0.0
Zn4 Zn 0.94024 0.21213 0.44716 0.0
Zn5 Zn 0.9622 0.29932 0.27913 0.0
O6 O -0.00091 0.20118 0.13457 0.0
O7 O 0.98728 0.2889 0.13388 0.0
O8 O 0.12205 0.26563 0.39411 0.0
O9 O 0.10506 0.20901 0.26646 0.0
O10 O 0.01734 0.1201 0.33683 0.0
O11 O 0.95209 0.13392 0.4492 0.0
O12 O 0.86634 0.22565 0.38898 0.0
O13 O 0.03536 0.35565 0.45817 0.0
O14 O 0.88322 0.28715 0.27107 0.0
O15 O 0.9765 0.37345 0.33536 0.0
C16 C 0.99382 0.24375 0.64323 0.0
C17 C 0.99281 0.24475 0.08678 0.0
C18 C 0.98516 0.10326 0.40516 0.0
C19 C 0.1373 0.23801 0.31725 0.0
C20 C 0.851 0.25656 0.31767 0.0
C21 C 0.00637 0.38827 0.40963 0.0
O22 O 0.95053 0.23341 0.59512 0.0
O23 O 0.05503 0.73669 0.37463 0.0
Zn24 Zn 0.06068 0.71079 0.52012 0.0
O25 O 0.00914 0.746 0.60336 0.0
Zn26 Zn 0.04335 0.80118 0.68147 0.0
Zn27 Zn 0.95454 0.77531 0.51799 0.0
Zn28 Zn 0.97985 0.69532 0.69717 0.0
O29 O 0.01633 0.79741 0.82803 0.0
O30 O 0.00959 0.70955 0.83857 0.0
O31 O 0.1336 0.71707 0.58652 0.0
O32 O 0.12242 0.78663 0.68922 0.0
O33 O 0.0303 0.87284 0.61622 0.0
O34 O 0.9615 0.85414 0.51425 0.0
O35 O 0.8812 0.75883 0.57484 0.0
O36 O 0.04248 0.63434 0.51062 0.0
O37 O 0.90143 0.70858 0.70959 0.0
O38 O 0.99016 0.6196 0.64523 0.0
C39 C 0.01216 0.74659 0.32532 0.0
C40 C 0.01351 0.75513 0.88131 0.0
C41 C 0.99476 0.88707 0.55191 0.0
C42 C 0.15192 0.75015 0.65224 0.0
C43 C 0.86771 0.73359 0.65546 0.0
C44 C 0.01488 0.60318 0.5656 0.0
O45 O 0.96762 0.7538 0.37095 0.0
O46 O 0.51309 0.70297 0.63523 0.0
Zn47 Zn 0.48053 0.69591 0.77474 0.0
O48 O 0.51261 0.74481 0.86762 0.0
Zn49 Zn 0.56436 0.70812 0.94895 0.0
Zn50 Zn 0.54641 0.79848 0.78665 0.0
Zn51 Zn 0.45682 0.77389 0.95195 0.0
O52 O 0.55638 0.73007 0.09711 0.0
O53 O 0.47132 0.75609 0.09932 0.0
O54 O 0.4826 0.62127 0.83416 0.0
O55 O 0.54782 0.63066 0.94854 0.0
O56 O 0.63832 0.71873 0.89063 0.0
O57 O 0.62511 0.78473 0.78048 0.0
O58 O 0.53191 0.87087 0.84905 0.0
O59 O 0.40488 0.71692 0.75336 0.0
O60 O 0.46243 0.85354 0.95025 0.0
O61 O 0.38248 0.75088 0.90297 0.0
C62 C 0.5186 0.74725 0.58946 0.0
C63 C 0.51434 0.74376 0.1457 0.0
C64 C 0.65544 0.751 0.82308 0.0
C65 C 0.51293 0.60213 0.90343 0.0
C66 C 0.4959 0.88602 0.91189 0.0
C67 C 0.36925 0.73411 0.8139 0.0
O68 O 0.52239 0.79094 0.63903 0.0
O69 O 0.50185 0.20306 0.33656 0.0
Zn70 Zn 0.52805 0.19396 0.19196 0.0
O71 O 0.49418 0.24555 0.10659 0.0
Zn72 Zn 0.44149 0.21237 0.0206 0.0
Zn73 Zn 0.46057 0.2986 0.19034 0.0
Zn74 Zn 0.54692 0.27707 0.01927 0.0
O75 O 0.44966 0.24026 0.87638 0.0
O76 O 0.53823 0.24813 0.87572 0.0
O77 O 0.51784 0.12003 0.13217 0.0
O78 O 0.45695 0.13447 0.01101 0.0
O79 O 0.36723 0.22179 0.08047 0.0
O80 O 0.38207 0.28431 0.19845 0.0
O81 O 0.47207 0.37185 0.12942 0.0
O82 O 0.6063 0.20968 0.20208 0.0
O83 O 0.53215 0.35479 0.00797 0.0
O84 O 0.62139 0.26827 0.07819 0.0
C85 C 0.49339 0.24668 0.38395 0.0
C86 C 0.49381 0.2444 0.82812 0.0
C87 C 0.35089 0.25225 0.15228 0.0
C88 C 0.48829 0.10351 0.05867 0.0
C89 C 0.50163 0.3869 0.05517 0.0
C90 C 0.63757 0.24016 0.15302 0.0
O91 O 0.48539 0.29015 0.33646 0.0
C92 C 0.95927 0.46943 0.47713 0.0
C93 C 0.00702 0.44429 0.44448 0.0
C94 C 0.05919 0.51903 0.51171 0.0
C95 C 0.01137 0.54694 0.53264 0.0
N96 N 0.91551 0.55254 0.51528 0.0
N97 N 0.10155 0.45018 0.41124 0.0
C98 C 0.96118 0.52324 0.51005 0.0
C99 C 0.05678 0.47058 0.45619 0.0
N100 N 0.9125 0.4415 0.48132 0.0
N101 N 0.10686 0.53797 0.54779 0.0
H102 H 0.10105 0.41568 0.36669 0.0
H103 H 0.13785 0.47038 0.40901 0.0
H104 H 0.11002 0.57246 0.59203 0.0
H105 H 0.14227 0.51661 0.54324 0.0
H106 H 0.87798 0.45647 0.51504 0.0
H107 H 0.90927 0.40169 0.46025 0.0
H108 H 0.87876 0.53864 0.48883 0.0
H109 H 0.91496 0.59237 0.5369 0.0
C110 C 0.74789 0.78686 0.80056 0.0
C111 C 0.71042 0.74553 0.78363 0.0
C112 C 0.77668 0.69536 0.68463 0.0
C113 C 0.81276 0.7384 0.69507 0.0
N114 N 0.83227 0.82738 0.75358 0.0
N115 N 0.6852 0.66461 0.69589 0.0
C116 C 0.79814 0.78494 0.75007 0.0
C117 C 0.72377 0.70072 0.72231 0.0
N118 N 0.736 0.82688 0.86795 0.0
N119 N 0.7932 0.64915 0.63961 0.0
H120 H 0.64588 0.66701 0.72153 0.0
H121 H 0.69089 0.63455 0.64197 0.0
H122 H 0.83085 0.64472 0.60666 0.0
H123 H 0.77102 0.61418 0.64067 0.0
H124 H 0.76341 0.85535 0.8924 0.0
H125 H 0.69957 0.82928 0.90632 0.0
H126 H 0.82177 0.8645 0.78215 0.0
H127 H 0.8704 0.82677 0.72165 0.0
C128 C 0.49087 0.45213 0.91184 0.0
C129 C 0.49905 0.44241 0.01812 0.0
C130 C 0.50254 0.538 0.04897 0.0
C131 C 0.50471 0.5471 0.9412 0.0
N132 N 0.50924 0.5105 0.76945 0.0
N133 N 0.5213 0.47683 0.18639 0.0
C134 C 0.50085 0.50357 0.87214 0.0
C135 C 0.50704 0.48553 0.0866 0.0
N136 N 0.4717 0.41277 0.84934 0.0
N137 N 0.4941 0.57918 0.11551 0.0
H138 H 0.52663 0.43907 0.21679 0.0
H139 H 0.53294 0.50726 0.23614 0.0
H140 H 0.48742 0.61782 0.0909 0.0
H141 H 0.48741 0.57389 0.19378 0.0
H142 H 0.46063 0.41913 0.77324 0.0
H143 H 0.46131 0.3753 0.8766 0.0
H144 H 0.51214 0.47892 0.71783 0.0
H145 H 0.51866 0.54709 0.73726 0.0
C146 C 0.78494 0.21372 0.19942 0.0
C147 C 0.79604 0.2519 0.27727 0.0
C148 C 0.70519 0.28673 0.26279 0.0
C149 C 0.69298 0.24597 0.19064 0.0
N150 N 0.71816 0.16707 0.09804 0.0
N151 N 0.76685 0.32128 0.39128 0.0
C152 C 0.73203 0.20843 0.16108 0.0
C153 C 0.75617 0.28756 0.31119 0.0
N154 N 0.82541 0.18359 0.16003 0.0
N155 N 0.66816 0.32497 0.28384 0.0
H156 H 0.80409 0.32331 0.42698 0.0
H157 H 0.7382 0.3446 0.42727 0.0
H158 H 0.63005 0.32494 0.2516 0.0
H159 H 0.67602 0.35873 0.32763 0.0
H160 H 0.82141 0.15966 0.0951 0.0
H161 H 0.86441 0.18517 0.18791 0.0
H162 H 0.74283 0.13482 0.08328 0.0
H163 H 0.68038 0.16324 0.06508 0.0
C164 C 0.25945 0.28994 0.17622 0.0
C165 C 0.2955 0.24745 0.19059 0.0
C166 C 0.22774 0.1985 0.2882 0.0
C167 C 0.19288 0.24245 0.27962 0.0
N168 N 0.17618 0.33208 0.22427 0.0
N169 N 0.31795 0.165 0.27292 0.0
C170 C 0.20906 0.28892 0.22657 0.0
C171 C 0.28067 0.20256 0.24962 0.0
N172 N 0.27278 0.33026 0.11111 0.0
N173 N 0.21005 0.15269 0.33263 0.0
H174 H 0.35698 0.16611 0.24539 0.0
H175 H 0.31162 0.13478 0.32569 0.0
H176 H 0.17281 0.14929 0.36772 0.0
H177 H 0.23091 0.1171 0.32976 0.0
H178 H 0.24648 0.35976 0.08832 0.0
H179 H 0.30928 0.332 0.07282 0.0
H180 H 0.18788 0.36916 0.19769 0.0
H181 H 0.13779 0.33203 0.25493 0.0
C182 C 0.27187 0.76485 0.82868 0.0
C183 C 0.31225 0.73533 0.77697 0.0
C184 C 0.2491 0.7219 0.63468 0.0
C185 C 0.20712 0.74364 0.69419 0.0
N186 N 0.1786 0.76081 0.86887 0.0
N187 N 0.32588 0.66586 0.64828 0.0
C188 C 0.21826 0.75766 0.79774 0.0
C189 C 0.29718 0.70778 0.68489 0.0
N190 N 0.28315 0.80148 0.9032 0.0
N191 N 0.24443 0.7155 0.53097 0.0
H192 H 0.35564 0.64736 0.69076 0.0
H193 H 0.31395 0.6442 0.5837 0.0
H194 H 0.2119 0.7293 0.48922 0.0
H195 H 0.2762 0.70253 0.48574 0.0
H196 H 0.25323 0.8241 0.93759 0.0
H197 H 0.32129 0.81548 0.91937 0.0
H198 H 0.18668 0.76753 0.9465 0.0
H199 H 0.13969 0.74848 0.85309 0.0
C200 C 0.49648 0.98452 0.87877 0.0
C201 C 0.49561 0.94185 0.94922 0.0
C202 C 0.48636 0.00512 0.09202 0.0
C203 C 0.49255 0.04773 0.02247 0.0
N204 N 0.51845 0.07689 0.85307 0.0
N205 N 0.50483 0.91287 0.12535 0.0
C206 C 0.50195 0.03716 0.91668 0.0
C207 C 0.49488 0.95246 0.0567 0.0
N208 N 0.49 0.97524 0.77603 0.0
N209 N 0.47036 0.01446 0.19073 0.0
H210 H 0.51428 0.87426 0.10318 0.0
H211 H 0.50973 0.91974 0.20378 0.0
H212 H 0.46227 0.05231 0.21915 0.0
H213 H 0.46001 0.98419 0.24118 0.0
H214 H 0.48498 0.00555 0.72286 0.0
H215 H 0.48413 0.93743 0.7452 0.0
H216 H 0.53047 0.07023 0.77753 0.0
H217 H 0.52582 0.11546 0.8788 0.0
C218 C 0.99185 0.98532 0.5853 0.0
C219 C 0.99356 0.94253 0.51449 0.0
C220 C 0.98492 0.005 0.37138 0.0
C221 C 0.98901 0.04785 0.44166 0.0
N222 N 0.00894 0.07852 0.61384 0.0
N223 N 0.00326 0.91256 0.33857 0.0
C224 C 0.99607 0.03796 0.54826 0.0
C225 C 0.99334 0.95259 0.40696 0.0
N226 N 0.98378 0.97605 0.68746 0.0
N227 N 0.97084 0.01397 0.27154 0.0
H228 H 0.01098 0.8738 0.36095 0.0
H229 H 0.00916 0.91885 0.26039 0.0
H230 H 0.96322 0.05171 0.24283 0.0
H231 H 0.96165 0.98361 0.21984 0.0
H232 H 0.97662 0.00621 0.74063 0.0
H233 H 0.9787 0.93815 0.7176 0.0
H234 H 0.0198 0.07262 0.69018 0.0
H235 H 0.01431 0.11745 0.58954 0.0
C236 C 0.94933 0.26583 0.91892 0.0
C237 C 0.99296 0.24419 0.97355 0.0
C238 C 0.03416 0.21669 0.81188 0.0
C239 C 0.99373 0.24397 0.75695 0.0
N240 N 0.9204 0.30611 0.76077 0.0
N241 N 0.08277 0.20981 0.97155 0.0
C242 C 0.95329 0.27179 0.81107 0.0
C243 C 0.0371 0.2226 0.92001 0.0
N244 N 0.90341 0.27909 0.96923 0.0
N245 N 0.06861 0.18355 0.76196 0.0
H246 H 0.08736 0.21512 0.05052 0.0
H247 H 0.11799 0.19917 0.93447 0.0
H248 H 0.06776 0.17704 0.68299 0.0
H249 H 0.09472 0.15844 0.80037 0.0
H250 H 0.86862 0.29 0.93108 0.0
H251 H 0.89829 0.27393 0.04803 0.0
H252 H 0.89372 0.33095 0.79882 0.0
H253 H 0.92385 0.31433 0.68268 0.0
C254 C 0.04973 0.7875 0.05283 0.0
C255 C 0.01113 0.75825 -0.00467 0.0
C256 C 0.97749 0.71821 0.15356 0.0
C257 C 0.01357 0.74961 0.2118 0.0
N258 N 0.07814 0.82095 0.21893 0.0
N259 N 0.92781 0.70988 -0.00456 0.0
C260 C 0.0481 0.78618 0.16209 0.0
C261 C 0.97191 0.72774 0.04708 0.0
N262 N 0.08911 0.81518 0.00398 0.0
N263 N 0.95007 0.67766 0.19891 0.0
H264 H 0.9204 0.71904 0.91875 0.0
H265 H 0.89563 0.69167 0.03175 0.0
H266 H 0.9545 0.66786 0.27617 0.0
H267 H 0.92737 0.65023 0.15746 0.0
H268 H 0.12225 0.831 0.04157 0.0
H269 H 0.09114 0.81974 0.92484 0.0
H270 H 0.09828 0.85319 0.18756 0.0
H271 H 0.07977 0.82051 0.2988 0.0
C272 C 0.47459 0.71934 0.31605 0.0
C273 C 0.51527 0.74545 0.2594 0.0
C274 C 0.56056 0.76946 0.42004 0.0
C275 C 0.51723 0.74792 0.47609 0.0
N276 N 0.42692 0.71426 0.47675 0.0
N277 N 0.58999 0.80641 0.2587 0.0
C278 C 0.47246 0.72625 0.42394 0.0
C279 C 0.55641 0.77365 0.31164 0.0
N280 N 0.43912 0.68623 0.26791 0.0
N281 N 0.60641 0.78418 0.46959 0.0
H282 H 0.58707 0.81242 0.17976 0.0
H283 H 0.61706 0.83189 0.29463 0.0
H284 H 0.61139 0.78093 0.54883 0.0
H285 H 0.64119 0.79486 0.43102 0.0
H286 H 0.41279 0.66174 0.30761 0.0
H287 H 0.4392 0.67914 0.18911 0.0
H288 H 0.39125 0.70362 0.44089 0.0
H289 H 0.42299 0.72048 0.55551 0.0
C290 C 0.45836 0.21185 0.55056 0.0
C291 C 0.493 0.24673 0.49738 0.0
C292 C 0.52303 0.28464 0.6608 0.0
C293 C 0.49352 0.24521 0.71424 0.0
N294 N 0.44248 0.16356 0.70717 0.0
N295 N 0.56688 0.30845 0.50227 0.0
C296 C 0.46369 0.20662 0.65843 0.0
C297 C 0.52779 0.28099 0.55251 0.0
N298 N 0.41904 0.1851 0.49885 0.0
N299 N 0.5447 0.32689 0.71234 0.0
H300 H 0.57282 0.30579 0.42318 0.0
H301 H 0.5968 0.32958 0.54038 0.0
H302 H 0.54107 0.33238 0.79131 0.0
H303 H 0.56149 0.35942 0.67521 0.0
H304 H 0.38935 0.16339 0.5358 0.0
H305 H 0.41269 0.18902 0.4201 0.0
H306 H 0.42532 0.13167 0.66791 0.0
H307 H 0.44694 0.15677 0.78551 0.0
loop_
_geom_bond_atom_site_label_1
_geom_bond_atom_site_label_2
_geom_bond_distance
_geom_bond_site_symmetry_2
_ccdc_geom_bond_type
O0 Zn1 1.953 . S
O0 C16 1.225 . S
Zn1 O0 1.953 . S
Zn1 O2 1.949 . S
Zn1 O8 1.919 . S
Zn1 O13 1.924 . S
O2 Zn1 1.949 . S
O2 Zn3 1.923 . S
O2 Zn4 1.950 1_455 S
O2 Zn5 1.945 1_455 S
Zn3 O2 1.923 . S
Zn3 O6 1.933 . S
Zn3 O9 1.941 . S
Zn3 O10 1.965 . S
Zn4 O2 1.950 1_655 S
Zn4 O11 1.938 . S
Zn4 O12 1.906 . S
Zn4 O22 1.953 . S
Zn5 O2 1.945 1_655 S
Zn5 O7 1.932 . S
Zn5 O14 1.977 . S
Zn5 O15 1.910 . S
O6 Zn3 1.933 . S
O6 C17 1.226 . S
O7 Zn5 1.932 . S
O7 C17 1.307 1_655 S
O8 Zn1 1.919 . S
O8 C19 1.253 . S
O9 Zn3 1.941 . S
O9 C19 1.283 . S
O10 Zn3 1.965 . S
O10 C18 1.310 . S
O11 Zn4 1.938 . S
O11 C18 1.236 1_655 S
O12 Zn4 1.906 . S
O12 C20 1.304 . S
O13 Zn1 1.924 . S
O13 C21 1.311 . S
O14 Zn5 1.977 . S
O14 C20 1.272 . S
O15 Zn5 1.910 . S
O15 C21 1.231 1_655 S
C16 O0 1.225 . S
C16 O22 1.298 1_455 S
C17 O6 1.226 . S
C17 O7 1.307 1_455 S
C18 O10 1.310 . S
C18 O11 1.236 1_455 S
C19 O8 1.253 . S
C19 O9 1.283 . S
C20 O12 1.304 . S
C20 O14 1.272 . S
C21 O13 1.311 . S
C21 O15 1.231 1_455 S
O22 Zn4 1.953 . S
O22 C16 1.298 1_655 S
O23 Zn24 1.953 . S
O23 C39 1.225 . S
Zn24 O23 1.953 . S
Zn24 O25 1.949 . S
Zn24 O31 1.919 . S
Zn24 O36 1.924 . S
O25 Zn24 1.949 . S
O25 Zn26 1.923 . S
O25 Zn27 1.950 1_455 S
O25 Zn28 1.945 1_455 S
Zn26 O25 1.923 . S
Zn26 O29 1.933 . S
Zn26 O32 1.941 . S
Zn26 O33 1.965 . S
Zn27 O25 1.950 1_655 S
Zn27 O34 1.938 . S
Zn27 O35 1.906 . S
Zn27 O45 1.953 . S
Zn28 O25 1.945 1_655 S
Zn28 O30 1.932 . S
Zn28 O37 1.977 . S
Zn28 O38 1.910 . S
O29 Zn26 1.933 . S
O29 C40 1.226 . S
O30 Zn28 1.932 . S
O30 C40 1.307 1_655 S
O31 Zn24 1.919 . S
O31 C42 1.253 . S
O32 Zn26 1.941 . S
O32 C42 1.283 . S
O33 Zn26 1.965 . S
O33 C41 1.303 1_455 S
O34 Zn27 1.938 . S
O34 C41 1.247 . S
O35 Zn27 1.906 . S
O35 C43 1.304 . S
O36 Zn24 1.924 . S
O36 C44 1.311 . S
O37 Zn28 1.977 . S
O37 C43 1.272 . S
O38 Zn28 1.910 . S
O38 C44 1.231 1_655 S
C39 O23 1.225 . S
C39 O45 1.298 1_455 S
C40 O29 1.226 . S
C40 O30 1.307 1_455 S
C41 O33 1.303 1_655 S
C41 O34 1.247 . S
C42 O31 1.253 . S
C42 O32 1.283 . S
C43 O35 1.304 . S
C43 O37 1.272 . S
C44 O36 1.311 . S
C44 O38 1.231 1_455 S
O45 Zn27 1.953 . S
O45 C39 1.298 1_655 S
O46 Zn47 1.953 . S
O46 C62 1.225 . S
Zn47 O46 1.953 . S
Zn47 O48 1.949 . S
Zn47 O54 1.919 . S
Zn47 O59 1.924 . S
O48 Zn47 1.949 . S
O48 Zn49 1.923 . S
O48 Zn50 1.950 . S
O48 Zn51 1.945 . S
Zn49 O48 1.923 . S
Zn49 O52 1.933 1_556 S
Zn49 O55 1.941 . S
Zn49 O56 1.965 . S
Zn50 O48 1.950 . S
Zn50 O57 1.938 . S
Zn50 O58 1.906 . S
Zn50 O68 1.953 . S
Zn51 O48 1.945 . S
Zn51 O53 1.932 1_556 S
Zn51 O60 1.977 . S
Zn51 O61 1.910 . S
O52 Zn49 1.933 1_554 S
O52 C63 1.226 . S
O53 Zn51 1.932 1_554 S
O53 C63 1.307 . S
O54 Zn47 1.919 . S
O54 C65 1.253 . S
O55 Zn49 1.941 . S
O55 C65 1.283 . S
O56 Zn49 1.965 . S
O56 C64 1.303 . S
O57 Zn50 1.938 . S
O57 C64 1.247 . S
O58 Zn50 1.906 . S
O58 C66 1.304 . S
O59 Zn47 1.924 . S
O59 C67 1.311 . S
O60 Zn51 1.977 . S
O60 C66 1.272 . S
O61 Zn51 1.910 . S
O61 C67 1.231 . S
C62 O46 1.225 . S
C62 O68 1.298 . S
C63 O52 1.226 . S
C63 O53 1.307 . S
C64 O56 1.303 . S
C64 O57 1.247 . S
C65 O54 1.253 . S
C65 O55 1.283 . S
C66 O58 1.304 . S
C66 O60 1.272 . S
C67 O59 1.311 . S
C67 O61 1.231 . S
O68 Zn50 1.953 . S
O68 C62 1.298 . S
O69 Zn70 1.953 . S
O69 C85 1.225 . S
Zn70 O69 1.953 . S
Zn70 O71 1.949 . S
Zn70 O77 1.919 . S
Zn70 O82 1.924 . S
O71 Zn70 1.949 . S
O71 Zn72 1.923 . S
O71 Zn73 1.950 . S
O71 Zn74 1.945 . S
Zn72 O71 1.923 . S
Zn72 O75 1.933 1_554 S
Zn72 O78 1.941 . S
Zn72 O79 1.965 . S
Zn73 O71 1.950 . S
Zn73 O80 1.938 . S
Zn73 O81 1.906 . S
Zn73 O91 1.953 . S
Zn74 O71 1.945 . S
Zn74 O76 1.932 1_554 S
Zn74 O83 1.977 . S
Zn74 O84 1.910 . S
O75 Zn72 1.933 1_556 S
O75 C86 1.226 . S
O76 Zn74 1.932 1_556 S
O76 C86 1.307 . S
O77 Zn70 1.919 . S
O77 C88 1.253 . S
O78 Zn72 1.941 . S
O78 C88 1.283 . S
O79 Zn72 1.965 . S
O79 C87 1.303 . S
O80 Zn73 1.938 . S
O80 C87 1.247 . S
O81 Zn73 1.906 . S
O81 C89 1.304 . S
O82 Zn70 1.924 . S
O82 C90 1.311 . S
O83 Zn74 1.977 . S
O83 C89 1.272 . S
O84 Zn74 1.910 . S
O84 C90 1.231 . S
C85 O69 1.225 . S
C85 O91 1.298 . S
C86 O75 1.226 . S
C86 O76 1.307 . S
C87 O79 1.303 . S
C87 O80 1.247 . S
C88 O77 1.253 . S
C88 O78 1.283 . S
C89 O81 1.304 . S
C89 O83 1.272 . S
C90 O82 1.311 . S
C90 O84 1.231 . S
O91 Zn73 1.953 . S
O91 C85 1.298 . S
C92 C93 1.363 1_655 S
C92 C98 1.379 . S
C92 N100 1.356 . S
C93 C92 1.363 1_455 S
C93 C99 1.363 . S
C94 C95 1.363 . S
C94 C99 1.379 . S
C94 N101 1.356 . S
C95 C94 1.363 . S
C95 C98 1.363 1_455 S
N96 C98 1.356 . S
N96 H108 0.984 . S
N96 H109 0.985 . S
N97 C99 1.356 . S
N97 H102 0.984 . S
N97 H103 0.985 . S
C98 C92 1.379 . S
C98 C95 1.363 1_655 S
C98 N96 1.356 . S
C99 C93 1.363 . S
C99 C94 1.379 . S
C99 N97 1.356 . S
N100 C92 1.356 . S
N100 H106 0.984 . S
N100 H107 0.984 . S
N101 C94 1.356 . S
N101 H104 0.984 . S
N101 H105 0.985 . S
H102 N97 0.984 . S
H103 N97 0.985 . S
H104 N101 0.984 . S
H105 N101 0.985 . S
H106 N100 0.984 . S
H107 N100 0.984 . S
H108 N96 0.984 . S
H109 N96 0.985 . S
C110 C111 1.363 . S
C110 C116 1.379 . S
C110 N118 1.356 . S
C111 C110 1.363 . S
C111 C117 1.363 . S
C112 C113 1.363 . S
C112 C117 1.379 . S
C112 N119 1.356 . S
C113 C112 1.363 . S
C113 C116 1.363 . S
N114 C116 1.356 . S
N114 H126 0.984 . S
N114 H127 0.985 . S
N115 C117 1.356 . S
N115 H120 0.984 . S
N115 H121 0.985 . S
C116 C110 1.379 . S
C116 C113 1.363 . S
C116 N114 1.356 . S
C117 C111 1.363 . S
C117 C112 1.379 . S
C117 N115 1.356 . S
N118 C110 1.356 . S
N118 H124 0.984 . S
N118 H125 0.984 . S
N119 C112 1.356 . S
N119 H122 0.984 . S
N119 H123 0.985 . S
H120 N115 0.984 . S
H121 N115 0.985 . S
H122 N119 0.984 . S
H123 N119 0.985 . S
H124 N118 0.984 . S
H125 N118 0.984 . S
H126 N114 0.984 . S
H127 N114 0.985 . S
C128 C129 1.363 1_556 S
C128 C134 1.379 . S
C128 N136 1.356 . S
C129 C128 1.363 1_554 S
C129 C135 1.363 . S
C130 C131 1.363 1_554 S
C130 C135 1.379 . S
C130 N137 1.356 . S
C131 C130 1.363 1_556 S
C131 C134 1.363 . S
N132 C134 1.356 . S
N132 H144 0.984 . S
N132 H145 0.985 . S
N133 C135 1.356 . S
N133 H138 0.984 . S
N133 H139 0.985 . S
C134 C128 1.379 . S
C134 C131 1.363 . S
C134 N132 1.356 . S
C135 C129 1.363 . S
C135 C130 1.379 . S
C135 N133 1.356 . S
N136 C128 1.356 . S
N136 H142 0.984 . S
N136 H143 0.984 . S
N137 C130 1.356 . S
N137 H140 0.984 . S
N137 H141 0.985 . S
H138 N133 0.984 . S
H139 N133 0.985 . S
H140 N137 0.984 . S
H141 N137 0.985 . S
H142 N136 0.984 . S
H143 N136 0.984 . S
H144 N132 0.984 . S
H145 N132 0.985 . S
C146 C147 1.363 . S
C146 C152 1.379 . S
C146 N154 1.356 . S
C147 C146 1.363 . S
C147 C153 1.363 . S
C148 C149 1.363 . S
C148 C153 1.379 . S
C148 N155 1.356 . S
C149 C148 1.363 . S
C149 C152 1.363 . S
N150 C152 1.356 . S
N150 H162 0.984 . S
N150 H163 0.985 . S
N151 C153 1.356 . S
N151 H156 0.984 . S
N151 H157 0.985 . S
C152 C146 1.379 . S
C152 C149 1.363 . S
C152 N150 1.356 . S
C153 C147 1.363 . S
C153 C148 1.379 . S
C153 N151 1.356 . S
N154 C146 1.356 . S
N154 H160 0.984 . S
N154 H161 0.984 . S
N155 C148 1.356 . S
N155 H158 0.984 . S
N155 H159 0.985 . S
H156 N151 0.984 . S
H157 N151 0.985 . S
H158 N155 0.984 . S
H159 N155 0.985 . S
H160 N154 0.984 . S
H161 N154 0.984 . S
H162 N150 0.984 . S
H163 N150 0.985 . S
C164 C165 1.363 . S
C164 C170 1.379 . S
C164 N172 1.356 . S
C165 C164 1.363 . S
C165 C171 1.363 . S
C166 C167 1.363 . S
C166 C171 1.379 . S
C166 N173 1.356 . S
C167 C166 1.363 . S
C167 C170 1.363 . S
N168 C170 1.356 . S
N168 H180 0.984 . S
N168 H181 0.985 . S
N169 C171 1.356 . S
N169 H174 0.984 . S
N169 H175 0.985 . S
C170 C164 1.379 . S
C170 C167 1.363 . S
C170 N168 1.356 . S
C171 C165 1.363 . S
C171 C166 1.379 . S
C171 N169 1.356 . S
N172 C164 1.356 . S
N172 H178 0.984 . S
N172 H179 0.984 . S
N173 C166 1.356 . S
N173 H176 0.984 . S
N173 H177 0.985 . S
H174 N169 0.984 . S
H175 N169 0.985 . S
H176 N173 0.984 . S
H177 N173 0.985 . S
H178 N172 0.984 . S
H179 N172 0.984 . S
H180 N168 0.984 . S
H181 N168 0.985 . S
C182 C183 1.363 . S
C182 C188 1.379 . S
C182 N190 1.356 . S
C183 C182 1.363 . S
C183 C189 1.363 . S
C184 C185 1.363 . S
C184 C189 1.379 . S
C184 N191 1.356 . S
C185 C184 1.363 . S
C185 C188 1.363 . S
N186 C188 1.356 . S
N186 H198 0.984 . S
N186 H199 0.985 . S
N187 C189 1.356 . S
N187 H192 0.984 . S
N187 H193 0.985 . S
C188 C182 1.379 . S
C188 C185 1.363 . S
C188 N186 1.356 . S
C189 C183 1.363 . S
C189 C184 1.379 . S
C189 N187 1.356 . S
N190 C182 1.356 . S
N190 H196 0.984 . S
N190 H197 0.984 . S
N191 C184 1.356 . S
N191 H194 0.984 . S
N191 H195 0.985 . S
H192 N187 0.984 . S
H193 N187 0.985 . S
H194 N191 0.984 . S
H195 N191 0.985 . S
H196 N190 0.984 . S
H197 N190 0.984 . S
H198 N186 0.984 . S
H199 N186 0.985 . S
C200 C201 1.363 . S
C200 C206 1.379 1_565 S
C200 N208 1.356 . S
C201 C200 1.363 . S
C201 C207 1.363 1_556 S
C202 C203 1.363 . S
C202 C207 1.379 1_545 S
C202 N209 1.356 . S
C203 C202 1.363 . S
C203 C206 1.363 1_554 S
N204 C206 1.356 . S
N204 H216 0.984 . S
N204 H217 0.985 . S
N205 C207 1.356 . S
N205 H210 0.984 . S
N205 H211 0.985 . S
C206 C200 1.379 1_545 S
C206 C203 1.363 1_556 S
C206 N204 1.356 . S
C207 C201 1.363 1_554 S
C207 C202 1.379 1_565 S
C207 N205 1.356 . S
N208 C200 1.356 . S
N208 H214 0.984 . S
N208 H215 0.984 . S
N209 C202 1.356 . S
N209 H212 0.984 . S
N209 H213 0.985 . S
H210 N205 0.984 . S
H211 N205 0.985 . S
H212 N209 0.984 . S
H213 N209 0.985 . S
H214 N208 0.984 . S
H215 N208 0.984 . S
H216 N204 0.984 . S
H217 N204 0.985 . S
C218 C219 1.363 1_655 S
C218 C224 1.379 1_565 S
C218 N226 1.356 . S
C219 C218 1.363 1_455 S
C219 C225 1.363 . S
C220 C221 1.363 . S
C220 C225 1.379 1_545 S
C220 N227 1.356 . S
C221 C220 1.363 . S
C221 C224 1.363 1_455 S
N222 C224 1.356 . S
N222 H234 0.984 . S
N222 H235 0.985 . S
N223 C225 1.356 . S
N223 H228 0.984 . S
N223 H229 0.985 . S
C224 C218 1.379 1_545 S
C224 C221 1.363 1_655 S
C224 N222 1.356 . S
C225 C219 1.363 . S
C225 C220 1.379 1_565 S
C225 N223 1.356 . S
N226 C218 1.356 . S
N226 H232 0.984 . S
N226 H233 0.984 . S
N227 C220 1.356 . S
N227 H230 0.984 . S
N227 H231 0.985 . S
H228 N223 0.984 . S
H229 N223 0.985 . S
H230 N227 0.984 . S
H231 N227 0.985 . S
H232 N226 0.984 . S
H233 N226 0.984 . S
H234 N222 0.984 . S
H235 N222 0.985 . S
C236 C237 1.363 1_655 S
C236 C242 1.379 . S
C236 N244 1.356 1_556 S
C237 C236 1.363 1_455 S
C237 C243 1.363 . S
C238 C239 1.363 . S
C238 C243 1.379 . S
C238 N245 1.356 . S
C239 C238 1.363 . S
C239 C242 1.363 1_455 S
N240 C242 1.356 . S
N240 H252 0.984 . S
N240 H253 0.985 . S
N241 C243 1.356 1_554 S
N241 H246 0.984 . S
N241 H247 0.985 1_554 S
C242 C236 1.379 . S
C242 C239 1.363 1_655 S
C242 N240 1.356 . S
C243 C237 1.363 . S
C243 C238 1.379 . S
C243 N241 1.356 1_556 S
N244 C236 1.356 1_554 S
N244 H250 0.984 1_554 S
N244 H251 0.984 . S
N245 C238 1.356 . S
N245 H248 0.984 . S
N245 H249 0.985 . S
H246 N241 0.984 . S
H247 N241 0.985 1_556 S
H248 N245 0.984 . S
H249 N245 0.985 . S
H250 N244 0.984 1_556 S
H251 N244 0.984 . S
H252 N240 0.984 . S
H253 N240 0.985 . S
C254 C255 1.363 . S
C254 C260 1.379 . S
C254 N262 1.356 1_554 S
C255 C254 1.363 . S
C255 C261 1.363 1_455 S
C256 C257 1.363 1_655 S
C256 C261 1.379 . S
C256 N263 1.356 . S
C257 C256 1.363 1_455 S
C257 C260 1.363 . S
N258 C260 1.356 . S
N258 H270 0.984 . S
N258 H271 0.985 . S
N259 C261 1.356 1_556 S
N259 H264 0.984 . S
N259 H265 0.985 1_556 S
C260 C254 1.379 . S
C260 C257 1.363 . S
C260 N258 1.356 . S
C261 C255 1.363 1_655 S
C261 C256 1.379 . S
C261 N259 1.356 1_554 S
N262 C254 1.356 1_556 S
N262 H268 0.984 1_556 S
N262 H269 0.984 . S
N263 C256 1.356 . S
N263 H266 0.984 . S
N263 H267 0.985 . S
H264 N259 0.984 . S
H265 N259 0.985 1_554 S
H266 N263 0.984 . S
H267 N263 0.985 . S
H268 N262 0.984 1_554 S
H269 N262 0.984 . S
H270 N258 0.984 . S
H271 N258 0.985 . S
C272 C273 1.363 . S
C272 C278 1.379 . S
C272 N280 1.356 . S
C273 C272 1.363 . S
C273 C279 1.363 . S
C274 C275 1.363 . S
C274 C279 1.379 . S
C274 N281 1.356 . S
C275 C274 1.363 . S
C275 C278 1.363 . S
N276 C278 1.356 . S
N276 H288 0.984 . S
N276 H289 0.985 . S
N277 C279 1.356 . S
N277 H282 0.984 . S
N277 H283 0.985 . S
C278 C272 1.379 . S
C278 C275 1.363 . S
C278 N276 1.356 . S
C279 C273 1.363 . S
C279 C274 1.379 . S
C279 N277 1.356 . S
N280 C272 1.356 . S
N280 H286 0.984 . S
N280 H287 0.984 . S
N281 C274 1.356 . S
N281 H284 0.984 . S
N281 H285 0.985 . S
H282 N277 0.984 . S
H283 N277 0.985 . S
H284 N281 0.984 . S
H285 N281 0.985 . S
H286 N280 0.984 . S
H287 N280 0.984 . S
H288 N276 0.984 . S
H289 N276 0.985 . S
C290 C291 1.363 . S
C290 C296 1.379 . S
C290 N298 1.356 . S
C291 C290 1.363 . S
C291 C297 1.363 . S
C292 C293 1.363 . S
C292 C297 1.379 . S
C292 N299 1.356 . S
C293 C292 1.363 . S
C293 C296 1.363 . S
N294 C296 1.356 . S
N294 H306 0.984 . S
N294 H307 0.985 . S
N295 C297 1.356 . S
N295 H300 0.984 . S
N295 H301 0.985 . S
C296 C290 1.379 . S
C296 C293 1.363 . S
C296 N294 1.356 . S
C297 C291 1.363 . S
C297 C292 1.379 . S
C297 N295 1.356 . S
N298 C290 1.356 . S
N298 H304 0.984 . S
N298 H305 0.984 . S
N299 C292 1.356 . S
N299 H302 0.984 . S
N299 H303 0.985 . S
H300 N295 0.984 . S
H301 N295 0.985 . S
H302 N299 0.984 . S
H303 N299 0.985 . S
H304 N298 0.984 . S
H305 N298 0.984 . S
H306 N294 0.984 . S
H307 N294 0.985 . S
C93 C21 1.589 . S
C95 C44 1.587 . S
C111 C64 1.598 . S
C113 C43 1.613 . S
C129 C89 1.601 . S
C131 C65 1.605 . S
C147 C20 1.567 . S
C149 C90 1.570 . S
C165 C87 1.605 . S
C167 C19 1.620 . S
C183 C67 1.574 . S
C185 C42 1.574 . S
C201 C66 1.553 . S
C203 C88 1.556 . S
C219 C41 1.617 1_455 S
C221 C18 1.614 . S
C237 C17 1.334 1_556 S
C239 C16 1.335 . S
C255 C40 1.334 1_554 S
C257 C39 1.335 . S
C273 C63 1.334 . S
C275 C62 1.335 . S
C291 C85 1.335 . S
C293 C86 1.334 . S
