# Generated by pormake.
# Topology ukv, (4)-cn, num edge types: 1
# Building blocks:
#     Node 0, Type 0, BuildingBlock: KUFVIS_clean_sbu_0, # of connection points: 4
#     Node 1, Type 0, BuildingBlock: KUFVIS_clean_sbu_0, # of connection points: 4
#     Node 2, Type 0, BuildingBlock: KUFVIS_clean_sbu_0, # of connection points: 4
#     Node 3, Type 0, BuildingBlock: KUFVIS_clean_sbu_0, # of connection points: 4
#     Node 4, Type 0, BuildingBlock: KUFVIS_clean_sbu_0, # of connection points: 4
#     Node 5, Type 0, BuildingBlock: KUFVIS_clean_sbu_0, # of connection points: 4
#     Node 6, Type 0, BuildingBlock: KUFVIS_clean_sbu_0, # of connection points: 4
#     Node 7, Type 0, BuildingBlock: KUFVIS_clean_sbu_0, # of connection points: 4
#     Node 8, Type 0, BuildingBlock: KUFVIS_clean_sbu_0, # of connection points: 4
#     Node 9, Type 0, BuildingBlock: KUFVIS_clean_sbu_0, # of connection points: 4
#     Node 10, Type 0, BuildingBlock: KUFVIS_clean_sbu_0, # of connection points: 4
#     Node 11, Type 0, BuildingBlock: KUFVIS_clean_sbu_0, # of connection points: 4
#     Node 12, Type 0, BuildingBlock: KUFVIS_clean_sbu_0, # of connection points: 4
#     Node 13, Type 0, BuildingBlock: KUFVIS_clean_sbu_0, # of connection points: 4
#     Node 14, Type 0, BuildingBlock: KUFVIS_clean_sbu_0, # of connection points: 4
#     Node 15, Type 0, BuildingBlock: KUFVIS_clean_sbu_0, # of connection points: 4
#     Node 16, Type 0, BuildingBlock: KUFVIS_clean_sbu_0, # of connection points: 4
#     Node 17, Type 0, BuildingBlock: KUFVIS_clean_sbu_0, # of connection points: 4
#     Node 18, Type 0, BuildingBlock: KUFVIS_clean_sbu_0, # of connection points: 4
#     Node 19, Type 0, BuildingBlock: KUFVIS_clean_sbu_0, # of connection points: 4
#     Node 20, Type 0, BuildingBlock: KUFVIS_clean_sbu_0, # of connection points: 4
#     Node 21, Type 0, BuildingBlock: KUFVIS_clean_sbu_0, # of connection points: 4
#     Node 22, Type 0, BuildingBlock: KUFVIS_clean_sbu_0, # of connection points: 4
#     Node 23, Type 0, BuildingBlock: KUFVIS_clean_sbu_0, # of connection points: 4
#     Node 24, Type 0, BuildingBlock: KUFVIS_clean_sbu_0, # of connection points: 4
#     Node 25, Type 0, BuildingBlock: KUFVIS_clean_sbu_0, # of connection points: 4
#     Node 26, Type 0, BuildingBlock: KUFVIS_clean_sbu_0, # of connection points: 4
#     Node 27, Type 0, BuildingBlock: KUFVIS_clean_sbu_0, # of connection points: 4
#     Node 28, Type 0, BuildingBlock: KUFVIS_clean_sbu_0, # of connection points: 4
#     Node 29, Type 0, BuildingBlock: KUFVIS_clean_sbu_0, # of connection points: 4
#     Node 30, Type 0, BuildingBlock: KUFVIS_clean_sbu_0, # of connection points: 4
#     Node 31, Type 0, BuildingBlock: KUFVIS_clean_sbu_0, # of connection points: 4
#     Node 32, Type 0, BuildingBlock: KUFVIS_clean_sbu_0, # of connection points: 4
#     Node 33, Type 0, BuildingBlock: KUFVIS_clean_sbu_0, # of connection points: 4
#     Node 34, Type 0, BuildingBlock: KUFVIS_clean_sbu_0, # of connection points: 4
#     Node 35, Type 0, BuildingBlock: KUFVIS_clean_sbu_0, # of connection points: 4
#     Edge 36, Type (0, 0), BuildingBlock: XIVTED_clean_linker_0, # of connection points: 2
#     Edge 37, Type (0, 0), BuildingBlock: XIVTED_clean_linker_0, # of connection points: 2
#     Edge 38, Type (0, 0), BuildingBlock: XIVTED_clean_linker_0, # of connection points: 2
#     Edge 39, Type (0, 0), BuildingBlock: XIVTED_clean_linker_0, # of connection points: 2
#     Edge 40, Type (0, 0), BuildingBlock: XIVTED_clean_linker_0, # of connection points: 2
#     Edge 41, Type (0, 0), BuildingBlock: XIVTED_clean_linker_0, # of connection points: 2
#     Edge 42, Type (0, 0), BuildingBlock: XIVTED_clean_linker_0, # of connection points: 2
#     Edge 43, Type (0, 0), BuildingBlock: XIVTED_clean_linker_0, # of connection points: 2
#     Edge 44, Type (0, 0), BuildingBlock: XIVTED_clean_linker_0, # of connection points: 2
#     Edge 45, Type (0, 0), BuildingBlock: XIVTED_clean_linker_0, # of connection points: 2
#     Edge 46, Type (0, 0), BuildingBlock: XIVTED_clean_linker_0, # of connection points: 2
#     Edge 47, Type (0, 0), BuildingBlock: XIVTED_clean_linker_0, # of connection points: 2
#     Edge 48, Type (0, 0), BuildingBlock: XIVTED_clean_linker_0, # of connection points: 2
#     Edge 49, Type (0, 0), BuildingBlock: XIVTED_clean_linker_0, # of connection points: 2
#     Edge 50, Type (0, 0), BuildingBlock: XIVTED_clean_linker_0, # of connection points: 2
#     Edge 51, Type (0, 0), BuildingBlock: XIVTED_clean_linker_0, # of connection points: 2
#     Edge 52, Type (0, 0), BuildingBlock: XIVTED_clean_linker_0, # of connection points: 2
#     Edge 53, Type (0, 0), BuildingBlock: XIVTED_clean_linker_0, # of connection points: 2
#     Edge 54, Type (0, 0), BuildingBlock: XIVTED_clean_linker_0, # of connection points: 2
#     Edge 55, Type (0, 0), BuildingBlock: XIVTED_clean_linker_0, # of connection points: 2
#     Edge 56, Type (0, 0), BuildingBlock: XIVTED_clean_linker_0, # of connection points: 2
#     Edge 57, Type (0, 0), BuildingBlock: XIVTED_clean_linker_0, # of connection points: 2
#     Edge 58, Type (0, 0), BuildingBlock: XIVTED_clean_linker_0, # of connection points: 2
#     Edge 59, Type (0, 0), BuildingBlock: XIVTED_clean_linker_0, # of connection points: 2
#     Edge 60, Type (0, 0), BuildingBlock: XIVTED_clean_linker_0, # of connection points: 2
#     Edge 61, Type (0, 0), BuildingBlock: XIVTED_clean_linker_0, # of connection points: 2
#     Edge 62, Type (0, 0), BuildingBlock: XIVTED_clean_linker_0, # of connection points: 2
#     Edge 63, Type (0, 0), BuildingBlock: XIVTED_clean_linker_0, # of connection points: 2
#     Edge 64, Type (0, 0), BuildingBlock: XIVTED_clean_linker_0, # of connection points: 2
#     Edge 65, Type (0, 0), BuildingBlock: XIVTED_clean_linker_0, # of connection points: 2
#     Edge 66, Type (0, 0), BuildingBlock: XIVTED_clean_linker_0, # of connection points: 2
#     Edge 67, Type (0, 0), BuildingBlock: XIVTED_clean_linker_0, # of connection points: 2
#     Edge 68, Type (0, 0), BuildingBlock: XIVTED_clean_linker_0, # of connection points: 2
#     Edge 69, Type (0, 0), BuildingBlock: XIVTED_clean_linker_0, # of connection points: 2
#     Edge 70, Type (0, 0), BuildingBlock: XIVTED_clean_linker_0, # of connection points: 2
#     Edge 71, Type (0, 0), BuildingBlock: XIVTED_clean_linker_0, # of connection points: 2
#     Edge 72, Type (0, 0), BuildingBlock: XIVTED_clean_linker_0, # of connection points: 2
#     Edge 73, Type (0, 0), BuildingBlock: XIVTED_clean_linker_0, # of connection points: 2
#     Edge 74, Type (0, 0), BuildingBlock: XIVTED_clean_linker_0, # of connection points: 2
#     Edge 75, Type (0, 0), BuildingBlock: XIVTED_clean_linker_0, # of connection points: 2
#     Edge 76, Type (0, 0), BuildingBlock: XIVTED_clean_linker_0, # of connection points: 2
#     Edge 77, Type (0, 0), BuildingBlock: XIVTED_clean_linker_0, # of connection points: 2
#     Edge 78, Type (0, 0), BuildingBlock: XIVTED_clean_linker_0, # of connection points: 2
#     Edge 79, Type (0, 0), BuildingBlock: XIVTED_clean_linker_0, # of connection points: 2
#     Edge 80, Type (0, 0), BuildingBlock: XIVTED_clean_linker_0, # of connection points: 2
#     Edge 81, Type (0, 0), BuildingBlock: XIVTED_clean_linker_0, # of connection points: 2
#     Edge 82, Type (0, 0), BuildingBlock: XIVTED_clean_linker_0, # of connection points: 2
#     Edge 83, Type (0, 0), BuildingBlock: XIVTED_clean_linker_0, # of connection points: 2
#     Edge 84, Type (0, 0), BuildingBlock: XIVTED_clean_linker_0, # of connection points: 2
#     Edge 85, Type (0, 0), BuildingBlock: XIVTED_clean_linker_0, # of connection points: 2
#     Edge 86, Type (0, 0), BuildingBlock: XIVTED_clean_linker_0, # of connection points: 2
#     Edge 87, Type (0, 0), BuildingBlock: XIVTED_clean_linker_0, # of connection points: 2
#     Edge 88, Type (0, 0), BuildingBlock: XIVTED_clean_linker_0, # of connection points: 2
#     Edge 89, Type (0, 0), BuildingBlock: XIVTED_clean_linker_0, # of connection points: 2
#     Edge 90, Type (0, 0), BuildingBlock: XIVTED_clean_linker_0, # of connection points: 2
#     Edge 91, Type (0, 0), BuildingBlock: XIVTED_clean_linker_0, # of connection points: 2
#     Edge 92, Type (0, 0), BuildingBlock: XIVTED_clean_linker_0, # of connection points: 2
#     Edge 93, Type (0, 0), BuildingBlock: XIVTED_clean_linker_0, # of connection points: 2
#     Edge 94, Type (0, 0), BuildingBlock: XIVTED_clean_linker_0, # of connection points: 2
#     Edge 95, Type (0, 0), BuildingBlock: XIVTED_clean_linker_0, # of connection points: 2
#     Edge 96, Type (0, 0), BuildingBlock: XIVTED_clean_linker_0, # of connection points: 2
#     Edge 97, Type (0, 0), BuildingBlock: XIVTED_clean_linker_0, # of connection points: 2
#     Edge 98, Type (0, 0), BuildingBlock: XIVTED_clean_linker_0, # of connection points: 2
#     Edge 99, Type (0, 0), BuildingBlock: XIVTED_clean_linker_0, # of connection points: 2
#     Edge 100, Type (0, 0), BuildingBlock: XIVTED_clean_linker_0, # of connection points: 2
#     Edge 101, Type (0, 0), BuildingBlock: XIVTED_clean_linker_0, # of connection points: 2
#     Edge 102, Type (0, 0), BuildingBlock: XIVTED_clean_linker_0, # of connection points: 2
#     Edge 103, Type (0, 0), BuildingBlock: XIVTED_clean_linker_0, # of connection points: 2
#     Edge 104, Type (0, 0), BuildingBlock: XIVTED_clean_linker_0, # of connection points: 2
#     Edge 105, Type (0, 0), BuildingBlock: XIVTED_clean_linker_0, # of connection points: 2
#     Edge 106, Type (0, 0), BuildingBlock: XIVTED_clean_linker_0, # of connection points: 2
#     Edge 107, Type (0, 0), BuildingBlock: XIVTED_clean_linker_0, # of connection points: 2
# Relax obj value: 0.242
# Max RMSD: 0.150
# Mean RMSD: 0.150
data_MOF--net-ukv--node1-KUFVIS_clean_sbu_0--edge1-XIVTED_clean_linker_0
_symmetry_space_group_name_H-M    P1
_symmetry_Int_Tables_number       1
_symmetry_cell_setting            triclinic
loop_
_symmetry_equiv_pos_as_xyz
'x, y, z'
_cell_length_a     94.718951
_cell_length_b     94.760595
_cell_length_c     21.353856
_cell_angle_alpha  90.007653
_cell_angle_beta   89.971048
_cell_angle_gamma 120.0104
loop_
_atom_site_label
_atom_site_type_symbol
_atom_site_fract_x
_atom_site_fract_y
_atom_site_fract_z
_atom_type_partial_charge
Mn0 Mn 0.24854 0.07671 0.05275 0.0
Mn1 Mn 0.28353 0.08677 0.12819 0.0
C2 C 0.27022 0.07783 -0.00121 0.0
C3 C 0.23323 0.08568 4e-05 0.0
C4 C 0.25293 0.05366 0.13959 0.0
O5 O 0.24639 0.08681 0.13315 0.0
O6 O 0.27076 0.09443 0.17756 0.0
C7 C 0.29948 0.12262 0.11556 0.0
N8 N 0.29958 0.10849 0.10528 0.0
C9 C 0.32552 0.12281 0.05285 0.0
C10 C 0.32574 0.13753 0.06326 0.0
C11 C 0.31266 0.13743 0.09469 0.0
C12 C 0.3121 0.10844 0.07505 0.0
H13 H 0.2894 0.12259 0.13935 0.0
C14 C 0.25682 0.09362 0.17673 0.0
O15 O 0.2261 0.07132 0.02582 0.0
O16 O 0.2489 0.09449 0.00459 0.0
N17 N 0.29704 0.08022 0.08496 0.0
C18 C 0.29463 0.06492 0.07636 0.0
C19 C 0.30649 0.06287 0.04477 0.0
C20 C 0.3207 0.07655 0.02246 0.0
C21 C 0.32297 0.09218 0.03224 0.0
C22 C 0.31081 0.09348 0.06465 0.0
H23 H 0.28369 0.05436 0.0931 0.0
O24 O 0.25556 0.06948 0.97645 0.0
O25 O 0.27156 0.0851 0.0518 0.0
O26 O 0.24414 0.05629 0.10127 0.0
O27 O 0.26771 0.06416 0.1528 0.0
C28 C 0.33668 0.10649 0.01019 0.0
C29 C 0.33794 0.12179 0.02038 0.0
H30 H 0.33583 0.14896 0.04691 0.0
H31 H 0.31271 0.14873 0.10264 0.0
H32 H 0.30463 0.05076 0.03729 0.0
H33 H 0.32973 0.0749 0.99748 0.0
H34 H 0.34622 0.10585 0.9846 0.0
H35 H 0.34844 0.13269 0.0025 0.0
Mn36 Mn 0.92022 0.17517 0.06389 0.0
Mn37 Mn 0.91233 0.20071 0.14597 0.0
C38 C 0.91587 0.19399 0.01197 0.0
C39 C 0.90923 0.14962 0.01874 0.0
C40 C 0.94593 0.20405 0.13686 0.0
O41 O 0.9145 0.16495 0.15025 0.0
O42 O 0.90637 0.181 0.19748 0.0
C43 C 0.87634 0.18096 0.15196 0.0
N44 N 0.89006 0.19494 0.13484 0.0
C45 C 0.87421 0.20612 0.09231 0.0
C46 C 0.85991 0.19188 0.10985 0.0
C47 C 0.86099 0.17924 0.13974 0.0
C48 C 0.88917 0.20718 0.10606 0.0
H49 H 0.87712 0.17119 0.17465 0.0
C50 C 0.9084 0.16859 0.19646 0.0
O51 O 0.92466 0.15775 0.03274 0.0
O52 O 0.90056 0.15637 0.03022 0.0
N53 N 0.91747 0.22015 0.10073 0.0
C54 C 0.93239 0.23275 0.08429 0.0
C55 C 0.93344 0.24624 0.05268 0.0
C56 C 0.91917 0.24667 0.03853 0.0
C57 C 0.90397 0.23362 0.05637 0.0
C58 C 0.90369 0.22056 0.08825 0.0
H59 H 0.94338 0.23247 0.09498 0.0
O60 O 0.92323 0.18736 0.98373 0.0
O61 O 0.9113 0.18925 0.06909 0.0
O62 O 0.94248 0.19278 0.09665 0.0
O63 O 0.9355 0.20757 0.15876 0.0
C64 C 0.88908 0.23292 0.04279 0.0
C65 C 0.87421 0.21917 0.06067 0.0
H66 H 0.84805 0.19047 0.10018 0.0
H67 H 0.85001 0.16819 0.15319 0.0
H68 H 0.94522 0.25626 0.03901 0.0
H69 H 0.92003 0.25702 0.01357 0.0
H70 H 0.88891 0.24279 0.01784 0.0
H71 H 0.86283 0.21868 0.04921 0.0
Mn72 Mn 0.82122 0.74529 0.02221 0.0
Mn73 Mn 0.81033 0.71788 0.13926 0.0
C74 C 0.80207 0.71837 0.00467 0.0
C75 C 0.83897 0.75918 0.94093 0.0
C76 C 0.79817 0.74184 0.12885 0.0
O77 O 0.8392 0.75724 0.08607 0.0
O78 O 0.83143 0.73766 0.15973 0.0
C79 C 0.83661 0.71003 0.12122 0.0
N80 N 0.82043 0.70505 0.12489 0.0
C81 C 0.81307 0.67728 0.10314 0.0
C82 C 0.82965 0.68212 0.09913 0.0
C83 C 0.84147 0.69855 0.10835 0.0
C84 C 0.80896 0.68926 0.11622 0.0
H85 H 0.84573 0.72269 0.12747 0.0
C86 C 0.84115 0.75193 0.13821 0.0
O87 O 0.83046 0.76495 0.9667 0.0
O88 O 0.8372 0.74562 0.96229 0.0
N89 N 0.79015 0.69813 0.12563 0.0
C90 C 0.7747 0.69568 0.1271 0.0
C91 C 0.76143 0.67991 0.11781 0.0
C92 C 0.76418 0.66684 0.10735 0.0
C93 C 0.78018 0.66963 0.10684 0.0
C94 C 0.79291 0.68557 0.11727 0.0
H95 H 0.77254 0.7057 0.13487 0.0
O96 O 0.80296 0.72963 0.96761 0.0
O97 O 0.81258 0.72324 0.05016 0.0
O98 O 0.80531 0.74846 0.07735 0.0
O99 O 0.79929 0.73042 0.15604 0.0
C100 C 0.78402 0.65731 0.09507 0.0
C101 C 0.80046 0.66114 0.09297 0.0
H102 H 0.83343 0.67337 0.08794 0.0
H103 H 0.8543 0.70237 0.105 0.0
H104 H 0.74912 0.67786 0.11828 0.0
H105 H 0.75393 0.65474 0.09935 0.0
H106 H 0.77445 0.64489 0.0865 0.0
H107 H 0.80327 0.65162 0.08277 0.0
Mn108 Mn 0.07109 0.24909 0.47046 0.0
Mn109 Mn 0.08801 0.27906 0.36331 0.0
C110 C 0.07744 0.2752 0.49762 0.0
C111 C 0.07536 0.23373 0.54381 0.0
C112 C 0.05237 0.25239 0.3626 0.0
O113 O 0.07855 0.23956 0.40118 0.0
O114 O 0.09363 0.26203 0.34237 0.0
C115 C 0.12305 0.2921 0.38997 0.0
N116 N 0.11005 0.29447 0.38497 0.0
C117 C 0.12665 0.32289 0.41062 0.0
C118 C 0.14024 0.32078 0.41563 0.0
C119 C 0.13842 0.30531 0.40538 0.0
C120 C 0.11166 0.3093 0.39477 0.0
H121 H 0.12168 0.28021 0.38236 0.0
C122 C 0.08854 0.24714 0.35695 0.0
O123 O 0.06118 0.22798 0.51741 0.0
O124 O 0.08673 0.24822 0.52838 0.0
N125 N 0.08359 0.29636 0.37947 0.0
C126 C 0.0691 0.29611 0.37674 0.0
C127 C 0.06871 0.31052 0.38785 0.0
C128 C 0.08322 0.32504 0.40136 0.0
C129 C 0.098 0.32502 0.4036 0.0
C130 C 0.09765 0.31031 0.39168 0.0
H131 H 0.05791 0.285 0.36632 0.0
O132 O 0.06722 0.26292 0.53145 0.0
O133 O 0.08369 0.27172 0.45016 0.0
O134 O 0.05221 0.24624 0.41592 0.0
O135 O 0.06521 0.26396 0.33737 0.0
C136 C 0.11301 0.33893 0.41848 0.0
C137 C 0.12732 0.33786 0.42211 0.0
H138 H 0.1521 0.33092 0.4279 0.0
H139 H 0.14883 0.30357 0.4095 0.0
H140 H 0.05725 0.31043 0.38616 0.0
H141 H 0.08284 0.33609 0.41047 0.0
H142 H 0.11364 0.35045 0.42828 0.0
H143 H 0.13873 0.34858 0.43464 0.0
Mn144 Mn 0.74234 0.81655 0.43794 0.0
Mn145 Mn 0.71168 0.79775 0.33458 0.0
C146 C 0.717 0.79684 0.47222 0.0
C147 C 0.75677 0.83907 0.50126 0.0
C148 C 0.73929 0.7904 0.34748 0.0
O149 O 0.75074 0.83097 0.36125 0.0
O150 O 0.72865 0.81892 0.29856 0.0
C151 C 0.6992 0.82079 0.33857 0.0
N152 N 0.69663 0.8054 0.34595 0.0
C153 C 0.66884 0.79542 0.37765 0.0
C154 C 0.67115 0.81114 0.36992 0.0
C155 C 0.68641 0.82388 0.35036 0.0
C156 C 0.682 0.79306 0.36478 0.0
H157 H 0.71096 0.83064 0.32416 0.0
C158 C 0.74321 0.83027 0.31094 0.0
O159 O 0.76341 0.83061 0.48307 0.0
O160 O 0.74198 0.83426 0.48381 0.0
N161 N 0.69446 0.77722 0.36399 0.0
C162 C 0.69453 0.763 0.37246 0.0
C163 C 0.68029 0.74912 0.39333 0.0
C164 C 0.66615 0.74999 0.40515 0.0
C165 C 0.66635 0.76473 0.39563 0.0
C166 C 0.68083 0.7781 0.37395 0.0
H167 H 0.70538 0.76229 0.36372 0.0
O168 O 0.72976 0.8009 0.50652 0.0
O169 O 0.71956 0.80463 0.41962 0.0
O170 O 0.74634 0.79959 0.3946 0.0
O171 O 0.72655 0.7891 0.32124 0.0
C172 C 0.65286 0.76677 0.40796 0.0
C173 C 0.65411 0.78211 0.39907 0.0
H174 H 0.66137 0.8136 0.37962 0.0
H175 H 0.68834 0.83607 0.34483 0.0
H176 H 0.68024 0.73779 0.40067 0.0
H177 H 0.65526 0.73932 0.42201 0.0
H178 H 0.64154 0.75667 0.42512 0.0
H179 H 0.64373 0.78358 0.40956 0.0
Mn180 Mn 0.1737 0.91739 0.42504 0.0
Mn181 Mn 0.19623 0.91181 0.31639 0.0
C182 C 0.19483 0.91352 0.45562 0.0
C183 C 0.15039 0.90525 0.48641 0.0
C184 C 0.2004 0.9449 0.34761 0.0
O185 O 0.15994 0.91237 0.34719 0.0
O186 O 0.17532 0.90792 0.27836 0.0
C187 C 0.17464 0.87627 0.29954 0.0
N188 N 0.18954 0.88914 0.31422 0.0
C189 C 0.20036 0.87138 0.33415 0.0
C190 C 0.18518 0.85794 0.31873 0.0
C191 C 0.17226 0.8604 0.30144 0.0
C192 C 0.20205 0.88691 0.33098 0.0
H193 H 0.16464 0.87808 0.28675 0.0
C194 C 0.16256 0.90868 0.29284 0.0
O195 O 0.15761 0.9208 0.47458 0.0
O196 O 0.15679 0.89711 0.46348 0.0
N197 N 0.21664 0.91497 0.34666 0.0
C198 C 0.23028 0.92913 0.36293 0.0
C199 C 0.24424 0.92876 0.38253 0.0
C200 C 0.24405 0.91385 0.38513 0.0
C201 C 0.22992 0.89945 0.36765 0.0
C202 C 0.21645 0.90061 0.34768 0.0
H203 H 0.23044 0.94059 0.36172 0.0
O204 O 0.18919 0.92019 0.49363 0.0
O205 O 0.18774 0.90914 0.40133 0.0
O206 O 0.18944 0.94018 0.39018 0.0
O207 O 0.20393 0.93536 0.31777 0.0
C208 C 0.22857 0.88397 0.37037 0.0
C209 C 0.2138 0.86994 0.3537 0.0
H210 H 0.18325 0.84568 0.32054 0.0
H211 H 0.16047 0.85008 0.28989 0.0
H212 H 0.25509 0.93992 0.39614 0.0
H213 H 0.25476 0.91358 0.40111 0.0
H214 H 0.23875 0.88269 0.38595 0.0
H215 H 0.21285 0.85809 0.3567 0.0
Mn216 Mn 0.74656 0.91782 0.94052 0.0
Mn217 Mn 0.71463 0.90683 0.84385 0.0
C218 C 0.72225 0.91414 0.97949 0.0
C219 C 0.76071 0.90919 0.00304 0.0
C220 C 0.74341 0.9412 0.85075 0.0
O221 O 0.75309 0.91006 0.86364 0.0
O222 O 0.73084 0.90216 0.80341 0.0
C223 C 0.70156 0.87118 0.84708 0.0
N224 N 0.69942 0.88421 0.85662 0.0
C225 C 0.67189 0.86681 0.89209 0.0
C226 C 0.67375 0.8532 0.88221 0.0
C227 C 0.68866 0.8554 0.85966 0.0
C228 C 0.68513 0.88222 0.87829 0.0
H229 H 0.71304 0.87283 0.83019 0.0
C230 C 0.74502 0.90403 0.81359 0.0
O231 O 0.76795 0.92405 0.98179 0.0
O232 O 0.74555 0.89975 0.98882 0.0
N233 N 0.69801 0.91055 0.87726 0.0
C234 C 0.69841 0.92497 0.88657 0.0
C235 C 0.68452 0.92492 0.90995 0.0
C236 C 0.67037 0.91006 0.92339 0.0
C237 C 0.6702 0.89536 0.91293 0.0
C238 C 0.68434 0.89617 0.8888 0.0
H239 H 0.70929 0.93642 0.87676 0.0
O240 O 0.73566 0.92276 0.01048 0.0
O241 O 0.72356 0.90794 0.92706 0.0
O242 O 0.75134 0.93866 0.89357 0.0
O243 O 0.7296 0.93024 0.82955 0.0
C244 C 0.65666 0.87997 0.9265 0.0
C245 C 0.65751 0.8657 0.91616 0.0
H246 H 0.66388 0.84102 0.89228 0.0
H247 H 0.69023 0.84497 0.85226 0.0
H248 H 0.68476 0.93631 0.91803 0.0
H249 H 0.65976 0.91007 0.94216 0.0
H250 H 0.6456 0.87897 0.94558 0.0
H251 H 0.64708 0.85395 0.92743 0.0
Mn252 Mn 0.06983 0.82034 0.94132 0.0
Mn253 Mn 0.078 0.79619 0.85145 0.0
C254 C 0.07274 0.79986 0.98687 0.0
C255 C 0.0809 0.84481 0.99494 0.0
C256 C 0.04471 0.79366 0.8581 0.0
O257 O 0.07704 0.83256 0.85896 0.0
O258 O 0.08508 0.81711 0.80664 0.0
C259 C 0.11405 0.81533 0.85355 0.0
N260 N 0.09995 0.80118 0.86545 0.0
C261 C 0.11472 0.78865 0.90638 0.0
C262 C 0.1294 0.80305 0.89414 0.0
C263 C 0.12906 0.81645 0.86766 0.0
C264 C 0.10014 0.78821 0.89086 0.0
H265 H 0.11383 0.8257 0.83364 0.0
C266 C 0.08348 0.82973 0.81177 0.0
O267 O 0.06568 0.83748 0.97786 0.0
O268 O 0.08929 0.83785 0.98185 0.0
N269 N 0.07183 0.77567 0.8901 0.0
C270 C 0.05658 0.76297 0.90166 0.0
C271 C 0.05477 0.7487 0.92921 0.0
C272 C 0.06864 0.74763 0.94447 0.0
C273 C 0.0842 0.76083 0.93179 0.0
C274 C 0.08524 0.77467 0.9036 0.0
H275 H 0.04589 0.76375 0.89018 0.0
O276 O 0.06531 0.80616 0.01691 0.0
O277 O 0.0782 0.80589 0.9318 0.0
O278 O 0.04788 0.80406 0.90182 0.0
O279 O 0.05517 0.79022 0.83567 0.0
C280 C 0.09871 0.76093 0.9471 0.0
C281 C 0.11396 0.77483 0.9345 0.0
H282 H 0.141 0.80401 0.90537 0.0
H283 H 0.14035 0.82764 0.85838 0.0
H284 H 0.04272 0.73857 0.93896 0.0
H285 H 0.06719 0.73667 0.96636 0.0
H286 H 0.09829 0.75045 0.96934 0.0
H287 H 0.12503 0.77483 0.94722 0.0
Mn288 Mn 0.17136 0.25229 0.95608 0.0
Mn289 Mn 0.18527 0.27957 0.8378 0.0
C290 C 0.19131 0.2788 0.97505 0.0
C291 C 0.15204 0.23899 0.03333 0.0
C292 C 0.19504 0.2539 0.85556 0.0
O293 O 0.15417 0.24108 0.88898 0.0
O294 O 0.16366 0.26074 0.81507 0.0
C295 C 0.16076 0.29023 0.84363 0.0
N296 N 0.1766 0.29388 0.84626 0.0
C297 C 0.18587 0.32237 0.86121 0.0
C298 C 0.16967 0.31894 0.85818 0.0
C299 C 0.15706 0.3028 0.84943 0.0
C300 C 0.18883 0.30937 0.85453 0.0
H301 H 0.15103 0.27783 0.83707 0.0
C302 C 0.1531 0.24669 0.83614 0.0
O303 O 0.1604 0.23264 0.01129 0.0
O304 O 0.15496 0.2529 0.01099 0.0
N305 N 0.20602 0.29843 0.8539 0.0
C306 C 0.22094 0.29961 0.85747 0.0
C307 C 0.23484 0.31491 0.86761 0.0
C308 C 0.23327 0.32883 0.87356 0.0
C309 C 0.21781 0.32734 0.86893 0.0
C310 C 0.20442 0.31179 0.85832 0.0
H311 H 0.2222 0.28894 0.85307 0.0
O312 O 0.18916 0.2673 0.01354 0.0
O313 O 0.18152 0.27445 0.92721 0.0
O314 O 0.18727 0.24788 0.90655 0.0
O315 O 0.19496 0.26557 0.82598 0.0
C316 C 0.21514 0.34062 0.87536 0.0
C317 C 0.19919 0.33814 0.87144 0.0
H318 H 0.16675 0.32859 0.86286 0.0
H319 H 0.14452 0.30005 0.84723 0.0
H320 H 0.24673 0.31596 0.87113 0.0
H321 H 0.244 0.34058 0.88199 0.0
H322 H 0.22526 0.35277 0.88388 0.0
H323 H 0.19727 0.34843 0.87689 0.0
Mn324 Mn 0.92349 0.75384 0.50421 0.0
Mn325 Mn 0.90674 0.72129 0.59955 0.0
C326 C 0.92 0.72926 0.46883 0.0
C327 C 0.91891 0.76969 0.43413 0.0
C328 C 0.94123 0.74993 0.61384 0.0
O329 O 0.91347 0.76039 0.5749 0.0
O330 O 0.89836 0.73609 0.62296 0.0
C331 C 0.87204 0.70582 0.56219 0.0
N332 N 0.88587 0.70495 0.56942 0.0
C333 C 0.87236 0.67721 0.53279 0.0
C334 C 0.85794 0.67777 0.52552 0.0
C335 C 0.85779 0.69215 0.54017 0.0
C336 C 0.88615 0.69118 0.55541 0.0
H337 H 0.87192 0.71688 0.5729 0.0
C338 C 0.90261 0.75109 0.61407 0.0
O339 O 0.9326 0.77587 0.4646 0.0
O340 O 0.90817 0.75458 0.44416 0.0
N341 N 0.91377 0.70603 0.58006 0.0
C342 C 0.92892 0.70783 0.58561 0.0
C343 C 0.93129 0.69474 0.57049 0.0
C344 C 0.91807 0.67992 0.55005 0.0
C345 C 0.90258 0.67831 0.54495 0.0
C346 C 0.90092 0.69174 0.56112 0.0
H347 H 0.93914 0.71918 0.60128 0.0
O348 O 0.93006 0.74267 0.44024 0.0
O349 O 0.91224 0.73078 0.51598 0.0
O350 O 0.94186 0.75694 0.56211 0.0
O351 O 0.92842 0.73729 0.63404 0.0
C352 C 0.88879 0.66403 0.52316 0.0
C353 C 0.8737 0.66349 0.51701 0.0
H354 H 0.84696 0.6673 0.50809 0.0
H355 H 0.84674 0.69271 0.53427 0.0
H356 H 0.9433 0.69609 0.57439 0.0
H357 H 0.91999 0.66991 0.53784 0.0
H358 H 0.88973 0.65349 0.50998 0.0
H359 H 0.86326 0.65253 0.4992 0.0
Mn360 Mn 0.26259 0.1831 0.58592 0.0
Mn361 Mn 0.28813 0.20163 0.70633 0.0
C362 C 0.28861 0.20421 0.56704 0.0
C363 C 0.25255 0.16137 0.51635 0.0
C364 C 0.26025 0.20737 0.67246 0.0
O365 O 0.25156 0.16757 0.65796 0.0
O366 O 0.27036 0.1798 0.73396 0.0
C367 C 0.30187 0.17973 0.71703 0.0
N368 N 0.30411 0.19495 0.70802 0.0
C369 C 0.33301 0.20624 0.69451 0.0
C370 C 0.33103 0.19072 0.70418 0.0
C371 C 0.31539 0.1774 0.71542 0.0
C372 C 0.3191 0.20785 0.69725 0.0
H373 H 0.28984 0.16944 0.725 0.0
C374 C 0.25677 0.16815 0.71338 0.0
O375 O 0.24429 0.1687 0.5276 0.0
O376 O 0.26636 0.1668 0.54452 0.0
N377 N 0.30583 0.22276 0.68537 0.0
C378 C 0.30548 0.23668 0.673 0.0
C379 C 0.32007 0.25104 0.65887 0.0
C380 C 0.33485 0.25094 0.65763 0.0
C381 C 0.33491 0.23648 0.6709 0.0
C382 C 0.32002 0.22259 0.6855 0.0
H383 H 0.29413 0.23678 0.67343 0.0
O384 O 0.27737 0.20004 0.52485 0.0
O385 O 0.28419 0.19571 0.61833 0.0
O386 O 0.25544 0.19857 0.62296 0.0
O387 O 0.27219 0.20919 0.70632 0.0
C388 C 0.34911 0.23521 0.66889 0.0
C389 C 0.34815 0.22011 0.68066 0.0
H390 H 0.34141 0.18884 0.70236 0.0
H391 H 0.31375 0.16536 0.72242 0.0
H392 H 0.31992 0.26214 0.64851 0.0
H393 H 0.34605 0.26199 0.64594 0.0
H394 H 0.36079 0.24573 0.65751 0.0
H395 H 0.35912 0.21923 0.6781 0.0
Mn396 Mn 0.81937 0.0805 0.58834 0.0
Mn397 Mn 0.79553 0.08315 0.69923 0.0
C398 C 0.79865 0.08531 0.56032 0.0
C399 C 0.8431 0.09405 0.52964 0.0
C400 C 0.79216 0.05115 0.65599 0.0
O401 O 0.83233 0.0837 0.66725 0.0
O402 O 0.81613 0.08632 0.73809 0.0
C403 C 0.81623 0.11804 0.73143 0.0
N404 N 0.80174 0.10552 0.71085 0.0
C405 C 0.79053 0.12325 0.69987 0.0
C406 C 0.80525 0.13629 0.72161 0.0
C407 C 0.81818 0.13369 0.7373 0.0
C408 C 0.78922 0.1079 0.69572 0.0
H409 H 0.82622 0.11611 0.74323 0.0
C410 C 0.8291 0.08602 0.72287 0.0
O411 O 0.83588 0.07832 0.53663 0.0
O412 O 0.83656 0.10161 0.55651 0.0
N413 N 0.77545 0.08051 0.66747 0.0
C414 C 0.76244 0.0669 0.64343 0.0
C415 C 0.7487 0.0676 0.62316 0.0
C416 C 0.74849 0.08228 0.6278 0.0
C417 C 0.762 0.09612 0.65282 0.0
C418 C 0.77529 0.09464 0.67284 0.0
H419 H 0.76263 0.05566 0.63897 0.0
O420 O 0.8045 0.07936 0.51987 0.0
O421 O 0.80513 0.08818 0.6158 0.0
O422 O 0.80353 0.05694 0.615 0.0
O423 O 0.78816 0.05984 0.6891 0.0
C424 C 0.76296 0.11141 0.65738 0.0
C425 C 0.77721 0.12496 0.68096 0.0
H426 H 0.8068 0.14837 0.72597 0.0
H427 H 0.82962 0.14372 0.75371 0.0
H428 H 0.73836 0.05689 0.60356 0.0
H429 H 0.73794 0.08282 0.61145 0.0
H430 H 0.7529 0.11293 0.64211 0.0
H431 H 0.77788 0.1367 0.68351 0.0
Mn432 Mn 0.92736 0.40951 0.39621 0.0
Mn433 Mn 0.95781 0.41844 0.49799 0.0
C434 C 0.95217 0.41403 0.35977 0.0
C435 C 0.9138 0.41944 0.3372 0.0
C436 C 0.92876 0.38447 0.48068 0.0
O437 O 0.91971 0.41529 0.47566 0.0
O438 O 0.94185 0.42361 0.53709 0.0
C439 C 0.97243 0.45428 0.50001 0.0
N440 N 0.97396 0.44093 0.48973 0.0
C441 C 0.00202 0.45764 0.45904 0.0
C442 C 0.00078 0.47159 0.46979 0.0
C443 C 0.98591 0.46989 0.49024 0.0
C444 C 0.9882 0.44241 0.46991 0.0
H445 H 0.96097 0.45302 0.51515 0.0
C446 C 0.92752 0.4213 0.52631 0.0
O447 O 0.90651 0.40411 0.35274 0.0
O448 O 0.92875 0.42863 0.35477 0.0
N449 N 0.9741 0.41407 0.46572 0.0
C450 C 0.97298 0.39941 0.45423 0.0
C451 C 0.98672 0.39895 0.43209 0.0
C452 C 0.00144 0.41355 0.42214 0.0
C453 C 0.00232 0.4285 0.43479 0.0
C454 C 0.9883 0.42819 0.45759 0.0
H455 H 0.96168 0.38815 0.46159 0.0
O456 O 0.93927 0.40639 0.32509 0.0
O457 O 0.95008 0.41896 0.41392 0.0
O458 O 0.92218 0.38769 0.43476 0.0
O459 O 0.94179 0.39508 0.50812 0.0
C460 C 0.01646 0.44369 0.42451 0.0
C461 C 0.0163 0.45825 0.4365 0.0
H462 H 0.01111 0.48364 0.46173 0.0
H463 H 0.9848 0.48058 0.49801 0.0
H464 H 0.98593 0.38737 0.42235 0.0
H465 H 0.01194 0.41315 0.40431 0.0
H466 H 0.02745 0.44431 0.40652 0.0
H467 H 0.02717 0.46985 0.42752 0.0
Mn468 Mn 0.58174 0.50564 0.39647 0.0
Mn469 Mn 0.57643 0.53356 0.47406 0.0
C470 C 0.57944 0.52539 0.34162 0.0
C471 C 0.56934 0.47988 0.35258 0.0
C472 C 0.60879 0.53418 0.46736 0.0
O473 O 0.57497 0.49587 0.483 0.0
O474 O 0.56944 0.51405 0.52838 0.0
C475 C 0.5404 0.51561 0.48124 0.0
N476 N 0.55452 0.529 0.4629 0.0
C477 C 0.53986 0.54118 0.41787 0.0
C478 C 0.52515 0.52757 0.43667 0.0
C479 C 0.52543 0.51473 0.46842 0.0
C480 C 0.5544 0.54143 0.43232 0.0
H481 H 0.54055 0.50567 0.50531 0.0
C482 C 0.56987 0.50072 0.52877 0.0
O483 O 0.58467 0.48708 0.36807 0.0
O484 O 0.56155 0.48765 0.36198 0.0
N485 N 0.58256 0.55288 0.4262 0.0
C486 C 0.59774 0.56469 0.40825 0.0
C487 C 0.59957 0.57827 0.37476 0.0
C488 C 0.5858 0.57956 0.36015 0.0
C489 C 0.57031 0.56727 0.37935 0.0
C490 C 0.56926 0.55412 0.41319 0.0
H491 H 0.60835 0.56372 0.41903 0.0
O492 O 0.58608 0.51779 0.31537 0.0
O493 O 0.57444 0.52114 0.39874 0.0
O494 O 0.60431 0.52202 0.4306 0.0
O495 O 0.59932 0.53927 0.48652 0.0
C496 C 0.55585 0.56741 0.36514 0.0
C497 C 0.54063 0.55435 0.38427 0.0
H498 H 0.51358 0.52679 0.42651 0.0
H499 H 0.51413 0.50414 0.48279 0.0
H500 H 0.61155 0.58766 0.3599 0.0
H501 H 0.58723 0.58994 0.33366 0.0
H502 H 0.55628 0.57737 0.33871 0.0
H503 H 0.52959 0.55448 0.37226 0.0
Mn504 Mn 0.49506 0.07858 0.39154 0.0
Mn505 Mn 0.47517 0.048 0.49461 0.0
C506 C 0.47484 0.05355 0.3567 0.0
C507 C 0.51794 0.09244 0.32912 0.0
C508 C 0.46881 0.07621 0.48023 0.0
O509 O 0.50927 0.0866 0.46895 0.0
O510 O 0.49642 0.06452 0.53124 0.0
C511 C 0.49754 0.03473 0.49075 0.0
N512 N 0.48227 0.03251 0.48377 0.0
C513 C 0.47166 0.00462 0.4523 0.0
C514 C 0.48726 0.00657 0.45957 0.0
C515 C 0.50026 0.0217 0.47876 0.0
C516 C 0.46969 0.01803 0.46506 0.0
H517 H 0.5076 0.04639 0.50478 0.0
C518 C 0.50812 0.07893 0.51934 0.0
O519 O 0.50983 0.0995 0.34658 0.0
O520 O 0.51262 0.07758 0.34685 0.0
N521 N 0.45447 0.03114 0.46495 0.0
C522 C 0.44045 0.0316 0.45638 0.0
C523 C 0.42635 0.01754 0.43578 0.0
C524 C 0.4268 0.00316 0.42438 0.0
C525 C 0.44133 0.00295 0.43419 0.0
C526 C 0.45493 0.01726 0.4556 0.0
H527 H 0.44006 0.04263 0.46483 0.0
O528 O 0.4795 0.0664 0.32224 0.0
O529 O 0.48241 0.05581 0.40968 0.0
O530 O 0.4783 0.08314 0.43363 0.0
O531 O 0.46707 0.06336 0.50702 0.0
C532 C 0.44294 0.98919 0.42235 0.0
C533 C 0.45811 0.99004 0.43123 0.0
H534 H 0.48944 0.99663 0.44957 0.0
H535 H 0.51237 0.02337 0.48376 0.0
H536 H 0.41519 0.0178 0.42829 0.0
H537 H 0.41597 0.99241 0.40767 0.0
H538 H 0.43266 0.97797 0.40539 0.0
H539 H 0.45927 0.97947 0.42092 0.0
Mn540 Mn 0.74182 0.58457 0.76507 0.0
Mn541 Mn 0.75056 0.61703 0.67437 0.0
C542 C 0.7455 0.60839 0.80968 0.0
C543 C 0.7518 0.57057 0.82121 0.0
C544 C 0.7168 0.58723 0.68368 0.0
O545 O 0.74901 0.57912 0.68372 0.0
O546 O 0.75593 0.602 0.62859 0.0
C547 C 0.78646 0.63188 0.67121 0.0
N548 N 0.77303 0.63305 0.68481 0.0
C549 C 0.78963 0.66056 0.72188 0.0
C550 C 0.80363 0.65968 0.70784 0.0
C551 C 0.80204 0.64527 0.68247 0.0
C552 C 0.77443 0.64685 0.70927 0.0
H553 H 0.78528 0.62079 0.65208 0.0
C554 C 0.75463 0.58793 0.63487 0.0
O555 O 0.7367 0.5631 0.80266 0.0
O556 O 0.76077 0.58584 0.80758 0.0
N557 N 0.74608 0.63255 0.71354 0.0
C558 C 0.73137 0.63111 0.72745 0.0
C559 C 0.73083 0.64437 0.75421 0.0
C560 C 0.74539 0.65896 0.76631 0.0
C561 C 0.76037 0.66018 0.75136 0.0
C562 C 0.76015 0.64663 0.72408 0.0
H563 H 0.72016 0.6199 0.7186 0.0
O564 O 0.73751 0.59472 0.83974 0.0
O565 O 0.75089 0.60755 0.75477 0.0
O566 O 0.72016 0.57939 0.72411 0.0
O567 O 0.72722 0.60126 0.66239 0.0
C568 C 0.77553 0.6742 0.76358 0.0
C569 C 0.79015 0.67437 0.74901 0.0
H570 H 0.81567 0.66995 0.71682 0.0
H571 H 0.81279 0.64447 0.67183 0.0
H572 H 0.71921 0.64331 0.76585 0.0
H573 H 0.74492 0.6691 0.78766 0.0
H574 H 0.77609 0.68482 0.78508 0.0
H575 H 0.80172 0.68513 0.75948 0.0
Mn576 Mn 0.39932 0.14576 0.74172 0.0
Mn577 Mn 0.37397 0.1274 0.62082 0.0
C578 C 0.37331 0.12458 0.76028 0.0
C579 C 0.40945 0.16735 0.81162 0.0
C580 C 0.40193 0.1218 0.65455 0.0
O581 O 0.41037 0.16142 0.66999 0.0
O582 O 0.39163 0.14937 0.5937 0.0
C583 C 0.35994 0.14907 0.61083 0.0
N584 N 0.35784 0.1339 0.61954 0.0
C585 C 0.32893 0.12239 0.63353 0.0
C586 C 0.33076 0.13786 0.62417 0.0
C587 C 0.34634 0.15127 0.61283 0.0
C588 C 0.34291 0.12092 0.63039 0.0
H589 H 0.37193 0.15943 0.6028 0.0
C590 C 0.40519 0.161 0.61464 0.0
O591 O 0.41766 0.15999 0.79992 0.0
O592 O 0.39561 0.16202 0.78371 0.0
N593 N 0.35638 0.10618 0.64139 0.0
C594 C 0.35687 0.09231 0.65343 0.0
C595 C 0.34236 0.07787 0.6676 0.0
C596 C 0.32751 0.07784 0.66925 0.0
C597 C 0.32731 0.09225 0.65638 0.0
C598 C 0.34212 0.10622 0.64173 0.0
H599 H 0.36827 0.09232 0.65271 0.0
O600 O 0.38455 0.12873 0.80245 0.0
O601 O 0.37774 0.13316 0.70911 0.0
O602 O 0.40651 0.1304 0.7045 0.0
O603 O 0.39008 0.12003 0.62021 0.0
C604 C 0.31304 0.09338 0.65882 0.0
C605 C 0.31385 0.10844 0.64743 0.0
H606 H 0.32033 0.13964 0.6263 0.0
H607 H 0.34787 0.16327 0.60607 0.0
H608 H 0.34262 0.06681 0.67767 0.0
H609 H 0.31638 0.06673 0.68096 0.0
H610 H 0.30141 0.0828 0.67024 0.0
H611 H 0.30284 0.1092 0.65029 0.0
Mn612 Mn 0.84105 0.2529 0.77666 0.0
Mn613 Mn 0.8545 0.23872 0.65975 0.0
C614 C 0.86034 0.24553 0.7969 0.0
C615 C 0.8216 0.24728 0.85304 0.0
C616 C 0.86542 0.27445 0.67722 0.0
O617 O 0.82429 0.24766 0.70848 0.0
O618 O 0.83329 0.23675 0.6356 0.0
C619 C 0.82915 0.20385 0.66612 0.0
N620 N 0.84513 0.21568 0.66886 0.0
C621 C 0.85346 0.19583 0.68686 0.0
C622 C 0.83711 0.18343 0.68365 0.0
C623 C 0.82489 0.18746 0.67337 0.0
C624 C 0.85698 0.21193 0.67874 0.0
H625 H 0.81973 0.20692 0.65848 0.0
C626 C 0.82313 0.24091 0.65572 0.0
O627 O 0.8304 0.26201 0.83153 0.0
O628 O 0.82412 0.23606 0.83046 0.0
N629 N 0.87489 0.23992 0.67713 0.0
C630 C 0.89003 0.25336 0.68061 0.0
C631 C 0.90358 0.25146 0.69209 0.0
C632 C 0.90144 0.23577 0.6995 0.0
C633 C 0.88577 0.22212 0.69489 0.0
C634 C 0.87275 0.22476 0.6828 0.0
H635 H 0.89174 0.26544 0.67515 0.0
O636 O 0.85837 0.25503 0.83521 0.0
O637 O 0.85066 0.24034 0.74869 0.0
O638 O 0.85764 0.27304 0.72791 0.0
O639 O 0.86488 0.26244 0.64789 0.0
C640 C 0.88253 0.206 0.70271 0.0
C641 C 0.86639 0.19287 0.69868 0.0
H642 H 0.83381 0.1708 0.68933 0.0
H643 H 0.81223 0.17795 0.67114 0.0
H644 H 0.91564 0.26205 0.69555 0.0
H645 H 0.9119 0.23436 0.70898 0.0
H646 H 0.89235 0.20358 0.71237 0.0
H647 H 0.86403 0.18054 0.70528 0.0
Mn648 Mn 0.41334 0.25156 0.27621 0.0
Mn649 Mn 0.37745 0.23947 0.20417 0.0
C650 C 0.39177 0.25027 0.33134 0.0
C651 C 0.4295 0.2437 0.32949 0.0
C652 C 0.40707 0.27307 0.18738 0.0
O653 O 0.41535 0.24098 0.19702 0.0
O654 O 0.39053 0.23224 0.15475 0.0
C655 C 0.36308 0.20391 0.22168 0.0
N656 N 0.36229 0.21774 0.23027 0.0
C657 C 0.33673 0.20294 0.2849 0.0
C658 C 0.33721 0.18851 0.27627 0.0
C659 C 0.35046 0.18901 0.2446 0.0
C660 C 0.34963 0.21741 0.26081 0.0
H661 H 0.37328 0.20425 0.19764 0.0
C662 C 0.40471 0.23361 0.15462 0.0
O663 O 0.43615 0.2578 0.30167 0.0
O664 O 0.41385 0.23454 0.32647 0.0
N665 N 0.36355 0.24555 0.24728 0.0
C666 C 0.36523 0.26062 0.25368 0.0
C667 C 0.35309 0.26228 0.28501 0.0
C668 C 0.33935 0.24843 0.30921 0.0
C669 C 0.33782 0.23303 0.30158 0.0
C670 C 0.35023 0.23211 0.26939 0.0
H671 H 0.37579 0.2713 0.23537 0.0
O672 O 0.40654 0.25919 0.3519 0.0
O673 O 0.39023 0.24249 0.27948 0.0
O674 O 0.41659 0.27127 0.22487 0.0
O675 O 0.39233 0.26202 0.1766 0.0
C676 C 0.32461 0.21859 0.32549 0.0
C677 C 0.32408 0.20356 0.31731 0.0
H678 H 0.32754 0.17701 0.29412 0.0
H679 H 0.35095 0.17794 0.23799 0.0
H680 H 0.35437 0.27421 0.29077 0.0
H681 H 0.3301 0.24978 0.33393 0.0
H682 H 0.31489 0.21894 0.35096 0.0
H683 H 0.31397 0.19258 0.3366 0.0
Mn684 Mn 0.74119 0.15997 0.30218 0.0
Mn685 Mn 0.75962 0.14508 0.21112 0.0
C686 C 0.74731 0.14112 0.34301 0.0
C687 C 0.74463 0.18102 0.36663 0.0
C688 C 0.72392 0.1356 0.19915 0.0
O689 O 0.7493 0.17531 0.22735 0.0
O690 O 0.76551 0.16721 0.18081 0.0
C691 C 0.7943 0.1678 0.2412 0.0
N692 N 0.78134 0.15234 0.23933 0.0
C693 C 0.79753 0.14139 0.28051 0.0
C694 C 0.81107 0.15719 0.28246 0.0
C695 C 0.80944 0.17044 0.26278 0.0
C696 C 0.78279 0.13949 0.25802 0.0
H697 H 0.79308 0.17802 0.22643 0.0
C698 C 0.76004 0.17707 0.18726 0.0
O699 O 0.73072 0.17199 0.33898 0.0
O700 O 0.75617 0.17774 0.35716 0.0
N701 N 0.755 0.12385 0.2373 0.0
C702 C 0.74056 0.10953 0.23592 0.0
C703 C 0.73998 0.09515 0.25618 0.0
C704 C 0.75424 0.09563 0.27747 0.0
C705 C 0.76898 0.11048 0.27815 0.0
C706 C 0.76884 0.1244 0.25693 0.0
H707 H 0.72955 0.10907 0.21974 0.0
O708 O 0.73667 0.14378 0.37066 0.0
O709 O 0.75413 0.14981 0.29345 0.0
O710 O 0.72303 0.14263 0.24874 0.0
O711 O 0.73713 0.13662 0.179 0.0
C712 C 0.78373 0.11208 0.30019 0.0
C713 C 0.798 0.12752 0.30134 0.0
H714 H 0.82274 0.15929 0.29951 0.0
H715 H 0.81981 0.18268 0.26442 0.0
H716 H 0.72855 0.08373 0.25562 0.0
H717 H 0.75371 0.08453 0.29361 0.0
H718 H 0.78418 0.10154 0.31718 0.0
H719 H 0.80921 0.12863 0.31918 0.0
Mn720 Mn 0.84677 0.59356 0.24989 0.0
Mn721 Mn 0.86667 0.6211 0.13644 0.0
C722 C 0.86785 0.61907 0.27606 0.0
C723 C 0.82418 0.58213 0.31506 0.0
C724 C 0.87134 0.59219 0.16261 0.0
O725 O 0.832 0.58406 0.17447 0.0
O726 O 0.84475 0.60455 0.10492 0.0
C727 C 0.84596 0.63626 0.13262 0.0
N728 N 0.86092 0.63773 0.13992 0.0
C729 C 0.87328 0.66649 0.15995 0.0
C730 C 0.85803 0.66531 0.15207 0.0
C731 C 0.8443 0.65011 0.13854 0.0
C732 C 0.8742 0.65227 0.15319 0.0
H733 H 0.83536 0.62456 0.12295 0.0
C734 C 0.83291 0.59059 0.12141 0.0
O735 O 0.83168 0.57414 0.30198 0.0
O736 O 0.83 0.59656 0.29161 0.0
N737 N 0.88799 0.63778 0.16115 0.0
C738 C 0.90147 0.63654 0.17267 0.0
C739 C 0.91614 0.65054 0.18923 0.0
C740 C 0.91679 0.66565 0.19372 0.0
C741 C 0.90278 0.66663 0.18131 0.0
C742 C 0.88856 0.65231 0.16412 0.0
H743 H 0.901 0.62494 0.16963 0.0
O744 O 0.86305 0.6071 0.3154 0.0
O745 O 0.85995 0.61566 0.22342 0.0
O746 O 0.86251 0.58696 0.2119 0.0
O747 O 0.87335 0.60451 0.13091 0.0
C748 C 0.90224 0.68117 0.18687 0.0
C749 C 0.88749 0.6811 0.17632 0.0
H750 H 0.85669 0.67595 0.15741 0.0
H751 H 0.83244 0.64903 0.13329 0.0
H752 H 0.9269 0.64968 0.19893 0.0
H753 H 0.92807 0.67638 0.20736 0.0
H754 H 0.91301 0.69242 0.2004 0.0
H755 H 0.88715 0.69228 0.18198 0.0
Mn756 Mn 0.59373 0.07757 0.89131 0.0
Mn757 Mn 0.58265 0.04667 0.99318 0.0
C758 C 0.58763 0.0522 0.85539 0.0
C759 C 0.58519 0.09205 0.83022 0.0
C760 C 0.61758 0.07418 0.97678 0.0
O761 O 0.58829 0.08586 0.96987 0.0
O762 O 0.57905 0.06372 0.03201 0.0
C763 C 0.54714 0.03442 0.9965 0.0
N764 N 0.55978 0.03178 0.98527 0.0
C765 C 0.54142 0.00395 0.95563 0.0
C766 C 0.52819 0.00634 0.96734 0.0
C767 C 0.53107 0.02165 0.98781 0.0
C768 C 0.55715 0.01709 0.96564 0.0
H769 H 0.5493 0.0462 0.01183 0.0
C770 C 0.58206 0.07827 0.02074 0.0
O771 O 0.60041 0.09865 0.84672 0.0
O772 O 0.57531 0.0773 0.84833 0.0
N773 N 0.58542 0.02935 0.96103 0.0
C774 C 0.59952 0.02927 0.94935 0.0
C775 C 0.59879 0.01495 0.92728 0.0
C776 C 0.58358 0.00088 0.91764 0.0
C777 C 0.56924 0.00122 0.93052 0.0
C778 C 0.57073 0.01578 0.95311 0.0
H779 H 0.61124 0.04007 0.95649 0.0
O780 O 0.59617 0.065 0.821 0.0
O781 O 0.58289 0.05475 0.90914 0.0
O782 O 0.61507 0.08151 0.93155 0.0
O783 O 0.60631 0.06131 0.003 0.0
C784 C 0.55352 0.98778 0.92079 0.0
C785 C 0.53962 0.98914 0.93328 0.0
H786 H 0.51578 0.99655 0.9603 0.0
H787 H 0.52092 0.02361 0.99664 0.0
H788 H 0.60991 0.01479 0.91739 0.0
H789 H 0.58306 0.98992 0.89994 0.0
H790 H 0.55198 0.97639 0.90299 0.0
H791 H 0.52761 0.97878 0.92493 0.0
Mn792 Mn 0.92453 0.5078 0.897 0.0
Mn793 Mn 0.95474 0.52941 -0.00057 0.0
C794 C 0.94945 0.52807 0.86115 0.0
C795 C 0.91145 0.48436 0.83713 0.0
C796 C 0.92554 0.5341 0.98117 0.0
O797 O 0.91677 0.49434 0.97635 0.0
O798 O 0.93881 0.50825 0.03829 0.0
C799 C 0.96972 0.50851 0.004 0.0
N800 N 0.97105 0.52325 0.99218 0.0
C801 C -0.00081 0.53478 0.96221 0.0
C802 C 0.99816 0.51975 0.97452 0.0
C803 C 0.98336 0.50656 0.99546 0.0
C804 C 0.98524 0.53603 0.97215 0.0
H805 H 0.95833 0.49832 0.01963 0.0
C806 C 0.92453 0.49617 0.0272 0.0
O807 O 0.90391 0.49219 0.85211 0.0
O808 O 0.9263 0.49023 0.85608 0.0
N809 N 0.97093 0.55006 0.96676 0.0
C810 C 0.96964 0.56345 0.9539 0.0
C811 C 0.98326 0.57759 0.93087 0.0
C812 C 0.99805 0.57782 0.92139 0.0
C813 C -0.00088 0.56393 0.93538 0.0
C814 C 0.9852 0.55025 0.95889 0.0
H815 H 0.95827 0.56329 0.96078 0.0
O816 O 0.93661 0.52287 0.82616 0.0
O817 O 0.94719 0.52109 0.91543 0.0
O818 O 0.91908 0.52433 0.93503 0.0
O819 O 0.93856 0.53658 0.00882 0.0
C820 C 0.01336 0.56301 0.92577 0.0
C821 C 0.01339 0.54845 0.93918 0.0
H822 H 0.0086 0.51816 0.96751 0.0
H823 H 0.98244 0.4949 0.00472 0.0
H824 H 0.98233 0.58825 0.92007 0.0
H825 H 0.00848 0.58869 0.90291 0.0
H826 H 0.02429 0.57336 0.90731 0.0
H827 H 0.02435 0.54782 0.93084 0.0
Mn828 Mn 0.4783 0.41227 0.92318 0.0
Mn829 Mn 0.4542 0.41332 0.03677 0.0
C830 C 0.45675 0.41602 0.89787 0.0
C831 C 0.50172 0.42679 0.86341 0.0
C832 C 0.45184 0.38206 0.98973 0.0
O833 O 0.49169 0.41562 0.00102 0.0
O834 O 0.47504 0.41673 0.07384 0.0
C835 C 0.47459 0.44819 0.06986 0.0
N836 N 0.46005 0.43552 0.05048 0.0
C837 C 0.44844 0.45296 0.04162 0.0
C838 C 0.46326 0.46616 0.06198 0.0
C839 C 0.47639 0.46376 0.07609 0.0
C840 C 0.44732 0.43769 0.03684 0.0
H841 H 0.48477 0.44643 0.08014 0.0
C842 C 0.48829 0.41715 0.05738 0.0
O843 O 0.49509 0.41107 0.86964 0.0
O844 O 0.49479 0.43378 0.89176 0.0
N845 N 0.43383 0.41039 0.0073 0.0
C846 C 0.42082 0.3967 0.98374 0.0
C847 C 0.40683 0.39717 0.96527 0.0
C848 C 0.40637 0.4117 0.97122 0.0
C849 C 0.41988 0.42561 0.99588 0.0
C850 C 0.4334 0.42435 0.01426 0.0
H851 H 0.42119 0.38556 0.9784 0.0
O852 O 0.4629 0.4107 0.85615 0.0
O853 O 0.46347 0.41898 0.95294 0.0
O854 O 0.46323 0.38846 0.94892 0.0
O855 O 0.44734 0.39018 0.024 0.0
C856 C 0.42062 0.44078 0.00151 0.0
C857 C 0.43489 0.45445 0.02429 0.0
H858 H 0.46475 0.47823 0.06622 0.0
H859 H 0.4879 0.47391 0.09134 0.0
H860 H 0.39648 0.3864 0.94603 0.0
H861 H 0.39565 0.41207 0.95617 0.0
H862 H 0.41037 0.44214 0.98747 0.0
H863 H 0.43541 0.46611 0.02741 0.0
Mn864 Mn 0.58572 0.7419 0.73328 0.0
Mn865 Mn 0.61646 0.7505 0.83319 0.0
C866 C 0.61039 0.74638 0.69525 0.0
C867 C 0.57224 0.75208 0.675 0.0
C868 C 0.58729 0.71656 0.81571 0.0
O869 O 0.57838 0.74776 0.81342 0.0
O870 O 0.60058 0.75553 0.87398 0.0
C871 C 0.63109 0.78634 0.83823 0.0
N872 N 0.63256 0.77304 0.82581 0.0
C873 C 0.66057 0.78992 0.79472 0.0
C874 C 0.65939 0.8038 0.80765 0.0
C875 C 0.64458 0.802 0.82942 0.0
C876 C 0.64675 0.77463 0.80484 0.0
H877 H 0.61969 0.78501 0.85451 0.0
C878 C 0.58634 0.75353 0.86398 0.0
O879 O 0.56482 0.73675 0.69043 0.0
O880 O 0.5872 0.76115 0.69255 0.0
N881 N 0.63269 0.7463 0.79905 0.0
C882 C 0.63156 0.7317 0.78604 0.0
C883 C 0.64523 0.73136 0.76236 0.0
C884 C 0.6599 0.74602 0.75251 0.0
C885 C 0.66081 0.7609 0.76685 0.0
C886 C 0.64685 0.76046 0.79097 0.0
H887 H 0.62029 0.7204 0.79328 0.0
O888 O 0.59735 0.73875 0.66126 0.0
O889 O 0.6085 0.75126 0.74983 0.0
O890 O 0.58047 0.71995 0.77112 0.0
O891 O 0.60049 0.72708 0.84246 0.0
C892 C 0.67493 0.77614 0.75707 0.0
C893 C 0.6748 0.79064 0.77096 0.0
H894 H 0.66973 0.8159 0.80046 0.0
H895 H 0.64354 0.81266 0.83909 0.0
H896 H 0.64443 0.71984 0.75138 0.0
H897 H 0.67036 0.74572 0.73354 0.0
H898 H 0.68588 0.77686 0.73812 0.0
H899 H 0.68567 0.80229 0.76249 0.0
Mn900 Mn 0.25285 0.84152 0.72087 0.0
Mn901 Mn 0.24352 0.86498 0.81048 0.0
C902 C 0.24959 0.86178 0.67556 0.0
C903 C 0.24329 0.81757 0.6651 0.0
C904 C 0.27736 0.86908 0.8039 0.0
O905 O 0.24528 0.82877 0.80167 0.0
O906 O 0.23798 0.84449 0.8562 0.0
C907 C 0.20763 0.84375 0.81072 0.0
N908 N 0.22108 0.85841 0.79801 0.0
C909 C 0.20457 0.86919 0.75878 0.0
C910 C 0.19054 0.85425 0.77189 0.0
C911 C 0.19208 0.84147 0.79791 0.0
C912 C 0.21973 0.87078 0.77295 0.0
H913 H 0.20877 0.83386 0.83033 0.0
C914 C 0.23937 0.83177 0.85005 0.0
O915 O 0.25829 0.82526 0.68478 0.0
O916 O 0.23421 0.82385 0.67707 0.0
N917 N 0.2481 0.88504 0.77159 0.0
C918 C 0.26284 0.89844 0.75934 0.0
C919 C 0.26345 0.91225 0.73232 0.0
C920 C 0.2489 0.91214 0.7183 0.0
C921 C 0.23388 0.89825 0.73175 0.0
C922 C 0.23404 0.88493 0.75938 0.0
H923 H 0.27405 0.89855 0.76963 0.0
O924 O 0.25766 0.85604 0.6464 0.0
O925 O 0.24371 0.85541 0.72991 0.0
O926 O 0.27419 0.85794 0.76342 0.0
O927 O 0.26685 0.87266 0.82445 0.0
C928 C 0.21876 0.897 0.71779 0.0
C929 C 0.20411 0.88247 0.7312 0.0
H930 H 0.17853 0.85241 0.76173 0.0
H931 H 0.18132 0.82988 0.80786 0.0
H932 H 0.27509 0.9229 0.72193 0.0
H933 H 0.24942 0.92273 0.69675 0.0
H934 H 0.21825 0.90706 0.696 0.0
H935 H 0.19257 0.88159 0.71956 0.0
Mn936 Mn 0.16095 0.41566 0.67228 0.0
Mn937 Mn 0.14981 0.38664 0.78258 0.0
C938 C 0.14022 0.38955 0.65108 0.0
C939 C 0.17919 0.43022 0.59333 0.0
C940 C 0.14136 0.41368 0.78675 0.0
O941 O 0.17929 0.4256 0.73632 0.0
O942 O 0.17303 0.40352 0.79574 0.0
C943 C 0.17055 0.37254 0.74947 0.0
N944 N 0.15547 0.37064 0.75878 0.0
C945 C 0.14259 0.34184 0.73861 0.0
C946 C 0.15799 0.34346 0.7293 0.0
C947 C 0.17203 0.35889 0.73465 0.0
C948 C 0.14189 0.35585 0.75388 0.0
H949 H 0.18137 0.38437 0.75341 0.0
C950 C 0.18262 0.41829 0.77879 0.0
O951 O 0.17151 0.43638 0.62276 0.0
O952 O 0.17612 0.41577 0.60904 0.0
N953 N 0.12764 0.3695 0.77389 0.0
C954 C 0.11368 0.37012 0.78146 0.0
C955 C 0.09852 0.35578 0.77553 0.0
C956 C 0.09787 0.34095 0.76228 0.0
C957 C 0.11239 0.34058 0.75517 0.0
C958 C 0.12715 0.35524 0.76192 0.0
H959 H 0.11408 0.38146 0.79174 0.0
O960 O 0.14196 0.40163 0.61686 0.0
O961 O 0.15095 0.39313 0.69506 0.0
O962 O 0.14628 0.41929 0.73182 0.0
O963 O 0.14309 0.40232 0.81132 0.0
C964 C 0.11281 0.32629 0.74054 0.0
C965 C 0.12789 0.32692 0.7323 0.0
H966 H 0.15917 0.33298 0.71761 0.0
H967 H 0.18395 0.36025 0.72733 0.0
H968 H 0.08736 0.35617 0.781 0.0
H969 H 0.08615 0.32994 0.75722 0.0
H970 H 0.1016 0.31479 0.73474 0.0
H971 H 0.12805 0.31588 0.72038 0.0
Mn972 Mn 0.40967 0.92107 0.10332 0.0
Mn973 Mn 0.41964 0.95184 0.00178 0.0
C974 C 0.41537 0.94629 0.13962 0.0
C975 C 0.41855 0.90681 0.16372 0.0
C976 C 0.38509 0.92407 0.02056 0.0
O977 O 0.41522 0.91302 0.02469 0.0
O978 O 0.42288 0.93469 0.96126 0.0
C979 C 0.45509 0.96395 0.99377 0.0
N980 N 0.44259 0.96667 0.00714 0.0
C981 C 0.46129 0.99446 0.03621 0.0
C982 C 0.47437 0.99199 0.02229 0.0
C983 C 0.47125 0.97666 0.00103 0.0
C984 C 0.44545 0.98137 0.02755 0.0
H985 H 0.45275 0.95215 0.97785 0.0
C986 C 0.42061 0.9204 0.97283 0.0
O987 O 0.40331 0.90003 0.14732 0.0
O988 O 0.42828 0.92164 0.14599 0.0
N989 N 0.41724 0.96926 0.03539 0.0
C990 C 0.40328 0.96943 0.04928 0.0
C991 C 0.40428 0.98379 0.07228 0.0
C992 C 0.41959 0.99781 0.08068 0.0
C993 C 0.43378 0.99737 0.06565 0.0
C994 C 0.43202 0.98278 0.04216 0.0
H995 H 0.3915 0.95866 0.04339 0.0
O996 O 0.40701 0.93342 0.17386 0.0
O997 O 0.42011 0.94391 0.08553 0.0
O998 O 0.38819 0.9166 0.06341 0.0
O999 O 0.39586 0.9373 0.9948 0.0
C1000 C 0.4496 0.01075 0.07409 0.0
C1001 C 0.46335 0.00929 0.05943 0.0
H1002 H 0.48685 0.00173 0.02823 0.0
H1003 H 0.48128 0.97464 0.9905 0.0
H1004 H 0.39328 0.98402 0.08393 0.0
H1005 H 0.42032 0.0088 0.09915 0.0
H1006 H 0.45134 0.02217 0.09252 0.0
H1007 H 0.47545 0.01961 0.06676 0.0
Mn1008 Mn 0.0843 0.48659 0.1043 0.0
Mn1009 Mn 0.05321 0.46594 0.00407 0.0
C1010 C 0.05942 0.46644 0.14117 0.0
C1011 C 0.09812 0.50958 0.16614 0.0
C1012 C 0.08195 0.46025 0.01623 0.0
O1013 O 0.09173 0.50059 0.02616 0.0
O1014 O 0.0694 0.48703 0.96536 0.0
C1015 C 0.03934 0.48784 0.00471 0.0
N1016 N 0.03752 0.47282 0.01468 0.0
C1017 C 0.00963 0.46201 0.0469 0.0
C1018 C 0.01117 0.47733 0.03654 0.0
C1019 C 0.02609 0.4903 0.01541 0.0
C1020 C 0.02321 0.46025 0.03495 0.0
H1021 H 0.05082 0.49787 0.98889 0.0
C1022 C 0.08377 0.49899 0.97606 0.0
O1023 O 0.10533 0.50165 0.14808 0.0
O1024 O 0.08318 0.50407 0.14907 0.0
N1025 N 0.0367 0.44539 0.03633 0.0
C1026 C 0.03747 0.4316 0.04669 0.0
C1027 C 0.02365 0.41758 0.06935 0.0
C1028 C 0.00919 0.41787 0.08093 0.0
C1029 C 0.00865 0.43216 0.06936 0.0
C1030 C 0.02275 0.4457 0.04615 0.0
H1031 H 0.04857 0.43135 0.03809 0.0
O1032 O 0.07246 0.47113 0.17453 0.0
O1033 O 0.06147 0.47378 0.08783 0.0
O1034 O 0.08912 0.47002 0.0618 0.0
O1035 O 0.0687 0.45805 0.99147 0.0
C1036 C 0.99477 0.43359 0.081 0.0
C1037 C 0.99526 0.4485 0.06981 0.0
H1038 H 0.00102 0.47932 0.04514 0.0
H1039 H 0.02739 0.50219 0.00761 0.0
H1040 H 0.02416 0.4066 0.0782 0.0
H1041 H -0.00139 0.40709 0.09909 0.0
H1042 H 0.98372 0.42335 0.09932 0.0
H1043 H 0.98458 0.44951 0.07967 0.0
Mn1044 Mn 0.50426 0.58311 0.1061 0.0
Mn1045 Mn 0.51776 0.56971 0.98665 0.0
C1046 C 0.5244 0.57671 0.12331 0.0
C1047 C 0.48551 0.57714 0.18566 0.0
C1048 C 0.52787 0.60519 0.00509 0.0
O1049 O 0.48679 0.57715 0.04017 0.0
O1050 O 0.49634 0.56752 0.96445 0.0
C1051 C 0.49262 0.53478 0.99411 0.0
N1052 N 0.5086 0.54668 0.99533 0.0
C1053 C 0.51717 0.52699 0.01257 0.0
C1054 C 0.50081 0.51451 0.01101 0.0
C1055 C 0.48849 0.51843 0.0018 0.0
C1056 C 0.52055 0.54304 0.00417 0.0
H1057 H 0.4831 0.53776 0.98752 0.0
C1058 C 0.48579 0.57093 0.98635 0.0
O1059 O 0.49359 0.5918 0.16288 0.0
O1060 O 0.48823 0.56613 0.1622 0.0
N1061 N 0.53831 0.57107 0.00188 0.0
C1062 C 0.55342 0.58458 0.00444 0.0
C1063 C 0.56709 0.5828 0.01469 0.0
C1064 C 0.5651 0.56717 0.02186 0.0
C1065 C 0.54945 0.55344 0.01817 0.0
C1066 C 0.5363 0.55596 0.00719 0.0
H1067 H 0.55499 0.59662 -0.00075 0.0
O1068 O 0.52235 0.58606 0.16209 0.0
O1069 O 0.51435 0.57113 0.07623 0.0
O1070 O 0.51994 0.60338 0.05575 0.0
O1071 O 0.52788 0.59347 0.97545 0.0
C1072 C 0.54636 0.53737 0.02601 0.0
C1073 C 0.53023 0.52416 0.02327 0.0
H1074 H 0.49757 0.5019 0.01733 0.0
H1075 H 0.47583 0.50888 0.0009 0.0
H1076 H 0.57912 0.59345 0.01745 0.0
H1077 H 0.57565 0.56585 0.03049 0.0
H1078 H 0.55628 0.53505 0.03484 0.0
H1079 H 0.52799 0.51187 0.03002 0.0
Mn1080 Mn 0.08112 0.5849 0.60337 0.0
Mn1081 Mn 0.05028 0.57335 0.50094 0.0
C1082 C 0.05609 0.58009 0.63828 0.0
C1083 C 0.09526 0.57646 0.66688 0.0
C1084 C 0.07845 0.60805 0.51202 0.0
O1085 O 0.08903 0.57832 0.52668 0.0
O1086 O 0.06676 0.56842 0.46504 0.0
C1087 C 0.03692 0.5377 0.5073 0.0
N1088 N 0.0348 0.55082 0.5138 0.0
C1089 C 0.00697 0.53374 0.5467 0.0
C1090 C 0.00882 0.52004 0.53993 0.0
C1091 C 0.02387 0.52203 0.5202 0.0
C1092 C 0.02038 0.54904 0.53279 0.0
H1093 H 0.04852 0.53921 0.49278 0.0
C1094 C 0.08127 0.57139 0.47688 0.0
O1095 O 0.1022 0.59151 0.64792 0.0
O1096 O 0.08038 0.56671 0.64996 0.0
N1097 N 0.03351 0.57737 0.53019 0.0
C1098 C 0.03402 0.5919 0.53762 0.0
C1099 C 0.02003 0.59207 0.5584 0.0
C1100 C 0.00569 0.57733 0.57122 0.0
C1101 C 0.00543 0.56252 0.56272 0.0
C1102 C 0.01966 0.5631 0.54106 0.0
H1103 H 0.04503 0.60326 0.5281 0.0
O1104 O 0.06901 0.5886 0.67209 0.0
O1105 O 0.0583 0.57449 0.58589 0.0
O1106 O 0.08547 0.60589 0.55925 0.0
O1107 O 0.06559 0.5967 0.48613 0.0
C1108 C 0.9917 0.54724 0.57606 0.0
C1109 C 0.99248 0.53286 0.56817 0.0
H1110 H -0.00116 0.50796 0.55051 0.0
H1111 H 0.02544 0.51153 0.51542 0.0
H1112 H 0.02034 0.60355 0.56493 0.0
H1113 H 0.995 0.57752 0.58801 0.0
H1114 H 0.98055 0.54642 0.59325 0.0
H1115 H 0.98192 0.5212 0.57944 0.0
Mn1116 Mn 0.40048 0.48971 0.63178 0.0
Mn1117 Mn 0.41647 0.47155 0.54569 0.0
C1118 C 0.40399 0.4694 0.67601 0.0
C1119 C 0.40601 0.51174 0.6947 0.0
C1120 C 0.38212 0.46599 0.52835 0.0
O1121 O 0.41033 0.50459 0.55612 0.0
O1122 O 0.42515 0.4942 0.51443 0.0
C1123 C 0.45131 0.49102 0.58069 0.0
N1124 N 0.43729 0.47635 0.57742 0.0
C1125 C 0.45035 0.46266 0.6236 0.0
C1126 C 0.46497 0.4776 0.62691 0.0
C1127 C 0.46544 0.49184 0.60547 0.0
C1128 C 0.43669 0.46257 0.59799 0.0
H1129 H 0.45169 0.502 0.56484 0.0
C1130 C 0.42104 0.50519 0.51826 0.0
O1131 O 0.39206 0.50384 0.66605 0.0
O1132 O 0.41641 0.50685 0.68684 0.0
N1133 N 0.40907 0.44971 0.57337 0.0
C1134 C 0.39377 0.43649 0.57096 0.0
C1135 C 0.39108 0.42136 0.59287 0.0
C1136 C 0.40413 0.41997 0.61694 0.0
C1137 C 0.41977 0.43373 0.61881 0.0
C1138 C 0.42175 0.44846 0.59582 0.0
H1139 H 0.38368 0.43745 0.55261 0.0
O1140 O 0.3941 0.47344 0.70177 0.0
O1141 O 0.41138 0.47749 0.6261 0.0
O1142 O 0.38169 0.4734 0.57762 0.0
O1143 O 0.39479 0.46556 0.51026 0.0
C1144 C 0.43341 0.43348 0.64382 0.0
C1145 C 0.44868 0.44793 0.64625 0.0
H1146 H 0.47585 0.4783 0.6465 0.0
H1147 H 0.47664 0.50344 0.6083 0.0
H1148 H 0.37895 0.41081 0.59141 0.0
H1149 H 0.40197 0.40832 0.63433 0.0
H1150 H 0.43223 0.42229 0.66222 0.0
H1151 H 0.45901 0.44764 0.66656 0.0
Mn1152 Mn 0.50769 0.91981 0.60481 0.0
Mn1153 Mn 0.52759 0.95085 0.50364 0.0
C1154 C 0.52788 0.94466 0.64099 0.0
C1155 C 0.48469 0.90574 0.66642 0.0
C1156 C 0.53383 0.9225 0.51501 0.0
O1157 O 0.49357 0.91212 0.52722 0.0
O1158 O 0.50636 0.93451 0.46644 0.0
C1159 C 0.50523 0.96411 0.50988 0.0
N1160 N 0.52051 0.9663 0.51618 0.0
C1161 C 0.53117 0.99409 0.54909 0.0
C1162 C 0.51557 0.99217 0.5425 0.0
C1163 C 0.50254 0.9771 0.52297 0.0
C1164 C 0.53311 0.98071 0.5353 0.0
H1165 H 0.49516 0.95249 0.49554 0.0
C1166 C 0.49473 0.92001 0.47744 0.0
O1167 O 0.49279 0.8987 0.64844 0.0
O1168 O 0.49013 0.9207 0.64987 0.0
N1169 N 0.5483 0.96756 0.53382 0.0
C1170 C 0.56231 0.96706 0.5417 0.0
C1171 C 0.57644 0.98104 0.56262 0.0
C1172 C 0.57602 0.99539 0.57499 0.0
C1173 C 0.5615 0.99567 0.56586 0.0
C1174 C 0.54787 0.98142 0.54414 0.0
H1175 H 0.56267 0.95604 0.53243 0.0
O1176 O 0.52319 0.93168 0.67466 0.0
O1177 O 0.52035 0.94262 0.58808 0.0
O1178 O 0.52443 0.91539 0.56167 0.0
O1179 O 0.53561 0.93551 0.48947 0.0
C1180 C 0.55993 0.00941 0.5787 0.0
C1181 C 0.54476 0.0086 0.57049 0.0
H1182 H 0.51341 0.0021 0.55328 0.0
H1183 H 0.49043 0.97545 0.51854 0.0
H1184 H 0.5876 0.98074 0.56956 0.0
H1185 H 0.58688 0.00609 0.59192 0.0
H1186 H 0.57023 0.02056 0.59593 0.0
H1187 H 0.54362 0.01915 0.5816 0.0
Mn1188 Mn 0.26042 0.41837 0.17045 0.0
Mn1189 Mn 0.24335 0.38874 0.27938 0.0
C1190 C 0.25287 0.39185 0.14493 0.0
C1191 C 0.25692 0.43346 0.0932 0.0
C1192 C 0.27942 0.41381 0.27618 0.0
O1193 O 0.25336 0.42872 0.23777 0.0
O1194 O 0.24077 0.4075 0.30479 0.0
C1195 C 0.20878 0.37948 0.26166 0.0
N1196 N 0.22061 0.37531 0.26213 0.0
C1197 C 0.20123 0.34751 0.23569 0.0
C1198 C 0.18881 0.35148 0.23535 0.0
C1199 C 0.19262 0.36754 0.2483 0.0
C1200 C 0.21709 0.35989 0.24975 0.0
H1201 H 0.21167 0.39183 0.27128 0.0
C1202 C 0.24525 0.4221 0.28743 0.0
O1203 O 0.271 0.43899 0.12024 0.0
O1204 O 0.2451 0.41947 0.11116 0.0
N1205 N 0.24497 0.36989 0.25976 0.0
C1206 C 0.25847 0.36827 0.25899 0.0
C1207 C 0.25684 0.35303 0.24513 0.0
C1208 C 0.24136 0.33963 0.23247 0.0
C1209 C 0.22762 0.34157 0.2341 0.0
C1210 C 0.22998 0.357 0.24874 0.0
H1211 H 0.2704 0.37855 0.26852 0.0
O1212 O 0.26363 0.40381 0.11132 0.0
O1213 O 0.24701 0.39586 0.19224 0.0
O1214 O 0.27927 0.42104 0.2259 0.0
O1215 O 0.26671 0.40179 0.29997 0.0
C1216 C 0.21173 0.32886 0.22066 0.0
C1217 C 0.19854 0.33183 0.22142 0.0
H1218 H 0.17635 0.34233 0.22469 0.0
H1219 H 0.18312 0.37072 0.24781 0.0
H1220 H 0.2675 0.35164 0.24391 0.0
H1221 H 0.24017 0.32794 0.22116 0.0
H1222 H 0.20954 0.31681 0.20883 0.0
H1223 H 0.18641 0.32201 0.21021 0.0
Mn1224 Mn 0.59034 0.84362 0.23675 0.0
Mn1225 Mn 0.62042 0.86343 0.34164 0.0
C1226 C 0.61575 0.86343 0.20323 0.0
C1227 C 0.5766 0.82064 0.17483 0.0
C1228 C 0.59231 0.86985 0.32395 0.0
O1229 O 0.58178 0.82966 0.31461 0.0
O1230 O 0.60366 0.84227 0.37815 0.0
C1231 C 0.63381 0.84115 0.34268 0.0
N1232 N 0.63599 0.85633 0.33351 0.0
C1233 C 0.66407 0.8669 0.30484 0.0
C1234 C 0.66217 0.85141 0.31446 0.0
C1235 C 0.64696 0.83847 0.33336 0.0
C1236 C 0.65056 0.86886 0.31525 0.0
H1237 H 0.62209 0.83114 0.35663 0.0
C1238 C 0.58918 0.83074 0.36569 0.0
O1239 O 0.56962 0.82896 0.19048 0.0
O1240 O 0.59132 0.82582 0.19401 0.0
N1241 N 0.63739 0.88402 0.3116 0.0
C1242 C 0.6369 0.89793 0.30063 0.0
C1243 C 0.65101 0.91193 0.27965 0.0
C1244 C 0.66547 0.91148 0.27028 0.0
C1245 C 0.6657 0.89706 0.28235 0.0
C1246 C 0.65132 0.88355 0.30394 0.0
H1247 H 0.62579 0.8983 0.30746 0.0
O1248 O 0.60314 0.85896 0.16757 0.0
O1249 O 0.61299 0.85598 0.25669 0.0
O1250 O 0.58571 0.86055 0.27667 0.0
O1251 O 0.605 0.87152 0.35184 0.0
C1252 C 0.67955 0.89545 0.27259 0.0
C1253 C 0.67873 0.88038 0.28376 0.0
H1254 H 0.67224 0.84926 0.30671 0.0
H1255 H 0.64534 0.82644 0.3403 0.0
H1256 H 0.65072 0.923 0.27034 0.0
H1257 H 0.67627 0.92224 0.25335 0.0
H1258 H 0.69082 0.90565 0.25559 0.0
H1259 H 0.68938 0.87922 0.27515 0.0
Mn1260 Mn 0.1495 0.74516 0.23777 0.0
Mn1261 Mn 0.12874 0.75235 0.34901 0.0
C1262 C 0.12843 0.74937 0.20964 0.0
C1263 C 0.17238 0.75655 0.17421 0.0
C1264 C 0.1243 0.71887 0.32264 0.0
O1265 O 0.16386 0.75037 0.31422 0.0
O1266 O 0.1503 0.75729 0.38313 0.0
C1267 C 0.14971 0.78818 0.35686 0.0
N1268 N 0.13481 0.77485 0.34633 0.0
C1269 C 0.123 0.79165 0.32435 0.0
C1270 C 0.13819 0.80556 0.33546 0.0
C1271 C 0.1516 0.80381 0.35172 0.0
C1272 C 0.12182 0.77639 0.33068 0.0
H1273 H 0.16009 0.78688 0.36878 0.0
C1274 C 0.16238 0.75546 0.36761 0.0
O1275 O 0.16494 0.74105 0.18699 0.0
O1276 O 0.16637 0.76505 0.19711 0.0
N1277 N 0.10773 0.74812 0.32178 0.0
C1278 C 0.09417 0.73352 0.30939 0.0
C1279 C 0.07976 0.73314 0.29088 0.0
C1280 C 0.07943 0.74776 0.28543 0.0
C1281 C 0.0935 0.76262 0.299 0.0
C1282 C 0.10745 0.76222 0.318 0.0
H1283 H 0.09439 0.72227 0.31317 0.0
O1284 O 0.13353 0.74233 0.17097 0.0
O1285 O 0.13606 0.75389 0.26283 0.0
O1286 O 0.1337 0.72273 0.27496 0.0
O1287 O 0.12178 0.72899 0.35345 0.0
C1288 C 0.09433 0.77783 0.29324 0.0
C1289 C 0.10907 0.79233 0.30586 0.0
H1290 H 0.13973 0.81765 0.33103 0.0
H1291 H 0.16339 0.81449 0.35996 0.0
H1292 H 0.06895 0.72163 0.28042 0.0
H1293 H 0.06835 0.74743 0.27038 0.0
H1294 H 0.08377 0.77852 0.27832 0.0
H1295 H 0.10962 0.80396 0.30043 0.0
H1296 H 0.18889 0.96628 0.34909 0.0
H1297 H 0.26856 0.03907 0.19315 0.0
H1298 H 0.23103 0.96246 0.2993 0.0
H1299 H 0.22058 0.03256 0.16291 0.0
H1300 H 0.25626 0.01346 0.25148 0.0
H1301 H 0.20194 0.99354 0.30148 0.0
C1302 C 0.201 0.9713 0.32931 0.0
C1303 C 0.2089 0.96212 0.32797 0.0
C1304 C 0.24845 0.01766 0.23199 0.0
C1305 C 0.22376 0.99305 0.27379 0.0
C1306 C 0.25544 0.03225 0.19866 0.0
C1307 C 0.24556 0.03788 0.17263 0.0
C1308 C 0.23149 0.00879 0.24038 0.0
C1309 C 0.22862 0.02855 0.18153 0.0
C1310 C 0.20834 0.98673 0.3017 0.0
C1311 C 0.22449 0.9691 0.30113 0.0
N1312 N 0.22211 0.01448 0.21501 0.0
N1313 N 0.23142 0.98415 0.27512 0.0
H1314 H 0.97439 0.20675 0.09061 0.0
H1315 H 0.02166 0.23865 0.41078 0.0
H1316 H 0.95499 0.22065 0.24697 0.0
H1317 H 0.048 0.25108 0.23575 0.0
H1318 H 0.9961 0.22774 0.35242 0.0
H1319 H 0.00098 0.21933 0.1438 0.0
C1320 C 0.97573 0.21252 0.13572 0.0
C1321 C 0.96245 0.21264 0.16437 0.0
C1322 C 0.0075 0.2329 0.32689 0.0
C1323 C 0.99251 0.22662 0.22541 0.0
C1324 C 0.02204 0.23904 0.36007 0.0
C1325 C 0.03692 0.24581 0.32795 0.0
C1326 C 0.00782 0.23322 0.26118 0.0
C1327 C 0.03675 0.24607 0.26218 0.0
C1328 C 0.99086 0.21969 0.16585 0.0
C1329 C 0.96487 0.2203 0.22288 0.0
N1330 N 0.02238 0.23972 0.23076 0.0
N1331 N 0.97954 0.2268 0.25176 0.0
H1332 H 0.76089 0.78245 0.3997 0.0
H1333 H 0.78361 0.75774 0.07648 0.0
H1334 H 0.73499 0.77866 0.22836 0.0
H1335 H 0.79088 0.74012 0.25316 0.0
H1336 H 0.76825 0.76849 0.13122 0.0
H1337 H 0.77454 0.76959 0.34658 0.0
C1338 C 0.75801 0.77884 0.35114 0.0
C1339 C 0.7468 0.78162 0.31842 0.0
C1340 C 0.77315 0.76218 0.15779 0.0
C1341 C 0.76249 0.76724 0.2575 0.0
C1342 C 0.78196 0.75613 0.1267 0.0
C1343 C 0.78849 0.74802 0.16035 0.0
C1344 C 0.77117 0.76039 0.22302 0.0
C1345 C 0.78595 0.7462 0.22537 0.0
C1346 C 0.76576 0.77149 0.32099 0.0
C1347 C 0.74349 0.77667 0.25554 0.0
N1348 N 0.77761 0.75248 0.25474 0.0
N1349 N 0.75144 0.76988 0.22692 0.0
H1350 H 0.77578 0.96448 0.84298 0.0
H1351 H 0.76047 0.03142 0.68887 0.0
H1352 H 0.72771 0.95465 0.78978 0.0
H1353 H 0.80569 0.03162 0.6615 0.0
H1354 H 0.74844 0.00408 0.73323 0.0
H1355 H 0.78752 0.99049 0.78651 0.0
C1356 C 0.7677 0.96786 0.82001 0.0
C1357 C 0.75075 0.95744 0.82133 0.0
C1358 C 0.76092 0.00999 0.71665 0.0
C1359 C 0.76405 0.98697 0.75674 0.0
C1360 C 0.76776 0.02555 0.69115 0.0
C1361 C 0.78405 0.0337 0.67128 0.0
C1362 C 0.77057 0.00271 0.72385 0.0
C1363 C 0.79303 0.02563 0.67572 0.0
C1364 C 0.77441 0.98258 0.78726 0.0
C1365 C 0.74085 0.96231 0.79006 0.0
N1366 N 0.78624 0.01062 0.70259 0.0
N1367 N 0.74764 0.97677 0.75941 0.0
H1368 H 0.01568 0.78972 0.90364 0.0
H1369 H 0.97261 0.7667 0.57248 0.0
H1370 H 0.03723 0.78073 0.74116 0.0
H1371 H 0.94393 0.74804 0.74097 0.0
H1372 H 0.99741 0.77689 0.63508 0.0
H1373 H 0.98976 0.7787 0.84597 0.0
C1374 C 0.01494 0.78537 0.85619 0.0
C1375 C 0.02861 0.78612 0.82722 0.0
C1376 C 0.98567 0.77057 0.65827 0.0
C1377 C -0.00063 0.77396 0.76127 0.0
C1378 C 0.97154 0.76485 0.62271 0.0
C1379 C 0.95623 0.75648 0.65165 0.0
C1380 C 0.98449 0.76821 0.72334 0.0
C1381 C 0.95554 0.75433 0.71691 0.0
C1382 C 0.0002 0.77908 0.82353 0.0
C1383 C 0.02701 0.78031 0.76561 0.0
N1384 N 0.96952 0.76027 0.75083 0.0
N1385 N 0.01273 0.77466 0.73452 0.0
H1386 H 0.23887 0.21384 0.60802 0.0
H1387 H 0.20754 0.23705 0.91557 0.0
H1388 H 0.26015 0.21791 0.79076 0.0
H1389 H 0.20398 0.25478 0.73334 0.0
H1390 H 0.22345 0.22584 0.86893 0.0
H1391 H 0.22268 0.22524 0.65178 0.0
C1392 C 0.24018 0.21717 0.65707 0.0
C1393 C 0.25092 0.21498 0.69566 0.0
C1394 C 0.21918 0.23221 0.83927 0.0
C1395 C 0.23234 0.22764 0.74585 0.0
C1396 C 0.21007 0.23854 0.86577 0.0
C1397 C 0.20453 0.24692 0.82833 0.0
C1398 C 0.22253 0.23405 0.77476 0.0
C1399 C 0.20817 0.24853 0.764 0.0
C1400 C 0.23099 0.22368 0.6819 0.0
C1401 C 0.25214 0.21949 0.759 0.0
N1402 N 0.21688 0.24206 0.73909 0.0
N1403 N 0.24287 0.22547 0.78215 0.0
H1404 H 0.87941 0.30413 0.73599 0.0
H1405 H 0.90674 0.35602 0.42277 0.0
H1406 H 0.87374 0.28175 0.55459 0.0
H1407 H 0.93132 0.37524 0.59895 0.0
H1408 H 0.8916 0.32894 0.47086 0.0
H1409 H 0.8956 0.33098 0.68698 0.0
C1410 C 0.88155 0.30488 0.68596 0.0
C1411 C 0.87529 0.29074 0.64929 0.0
C1412 C 0.90041 0.33911 0.49866 0.0
C1413 C 0.89353 0.32122 0.59321 0.0
C1414 C 0.909 0.35452 0.47137 0.0
C1415 C 0.92031 0.36786 0.50689 0.0
C1416 C 0.90293 0.33716 0.56211 0.0
C1417 C 0.9228 0.36526 0.5697 0.0
C1418 C 0.89083 0.32014 0.65815 0.0
C1419 C 0.87846 0.29236 0.58465 0.0
N1420 N 0.91405 0.35023 0.59553 0.0
N1421 N 0.88727 0.30735 0.55853 0.0
H1422 H 0.62888 0.52139 0.48349 0.0
H1423 H 0.7015 0.60224 0.6316 0.0
H1424 H 0.62637 0.56519 0.51223 0.0
H1425 H 0.69484 0.55461 0.67134 0.0
H1426 H 0.67552 0.58941 0.57613 0.0
H1427 H 0.65512 0.53416 0.53864 0.0
C1428 C 0.63396 0.53376 0.50051 0.0
C1429 C 0.62545 0.54226 0.49329 0.0
C1430 C 0.67969 0.58176 0.59738 0.0
C1431 C 0.65525 0.55679 0.55644 0.0
C1432 C 0.69449 0.58906 0.62915 0.0
C1433 C 0.7003 0.57946 0.65636 0.0
C1434 C 0.67073 0.56475 0.59171 0.0
C1435 C 0.69072 0.56245 0.65154 0.0
C1436 C 0.64881 0.54095 0.53252 0.0
C1437 C 0.63249 0.55818 0.51691 0.0
N1438 N 0.67645 0.5556 0.61919 0.0
N1439 N 0.64699 0.56494 0.54731 0.0
H1440 H 0.42188 0.11401 0.72166 0.0
H1441 H 0.45877 0.09513 0.41949 0.0
H1442 H 0.40409 0.11328 0.53481 0.0
H1443 H 0.45744 0.07368 0.59934 0.0
H1444 H 0.44243 0.10625 0.46339 0.0
H1445 H 0.43865 0.1031 0.67958 0.0
C1446 C 0.42146 0.11151 0.67199 0.0
C1447 C 0.41151 0.11445 0.63175 0.0
C1448 C 0.44575 0.0991 0.49308 0.0
C1449 C 0.43079 0.10239 0.58352 0.0
C1450 C 0.45511 0.09284 0.4682 0.0
C1451 C 0.45936 0.08341 0.50576 0.0
C1452 C 0.44091 0.09615 0.55615 0.0
C1453 C 0.45428 0.08076 0.56861 0.0
C1454 C 0.43099 0.10529 0.6481 0.0
C1455 C 0.41144 0.11104 0.56768 0.0
N1456 N 0.44538 0.08718 0.59199 0.0
N1457 N 0.42104 0.10531 0.54548 0.0
H1458 H 0.3894 0.28518 0.13183 0.0
H1459 H 0.46613 0.36317 0.98438 0.0
H1460 H 0.43892 0.29612 0.16327 0.0
H1461 H 0.42082 0.3614 0.02888 0.0
H1462 H 0.45498 0.33556 0.02715 0.0
H1463 H 0.39974 0.31049 0.07297 0.0
C1464 C 0.40246 0.2929 0.1264 0.0
C1465 C 0.41333 0.2886 0.15308 0.0
C1466 C 0.44745 0.34119 0.02665 0.0
C1467 C 0.42518 0.31744 0.08476 0.0
C1468 C 0.45371 0.35682 0.00168 0.0
C1469 C 0.44437 0.36455 0.00337 0.0
C1470 C 0.43169 0.33323 0.05232 0.0
C1471 C 0.42844 0.35589 0.02702 0.0
C1472 C 0.40833 0.30732 0.09271 0.0
C1473 C 0.43012 0.29907 0.14417 0.0
N1474 N 0.42261 0.3407 0.05074 0.0
N1475 N 0.43555 0.31303 0.11053 0.0
H1476 H 0.72077 0.13023 0.07271 0.0
H1477 H 0.62591 0.06695 0.08947 0.0
H1478 H 0.69291 0.11852 0.24395 0.0
H1479 H 0.64677 0.09832 0.92845 0.0
H1480 H 0.65234 0.08105 0.14092 0.0
H1481 H 0.69527 0.11415 0.01398 0.0
C1482 C 0.70931 0.12419 0.09788 0.0
C1483 C 0.70887 0.12572 0.16316 0.0
C1484 C 0.65113 0.08475 0.09415 0.0
C1485 C 0.67998 0.10726 0.09681 0.0
C1486 C 0.63608 0.07667 0.06443 0.0
C1487 C 0.63405 0.08155 0.00459 0.0
C1488 C 0.66436 0.09768 0.06367 0.0
C1489 C 0.64775 0.09425 0.97478 0.0
C1490 C 0.69484 0.11512 0.0644 0.0
C1491 C 0.69374 0.11774 0.19361 0.0
N1492 N 0.66239 0.10193 0.00473 0.0
N1493 N 0.67989 0.10876 0.16019 0.0
H1494 H 0.88085 0.5732 0.22699 0.0
H1495 H 0.90467 0.54175 0.92086 0.0
H1496 H 0.87915 0.59048 0.04159 0.0
H1497 H 0.92726 0.54518 0.10011 0.0
H1498 H 0.89087 0.55544 0.96615 0.0
H1499 H 0.89375 0.55848 0.18257 0.0
C1500 C 0.88316 0.57386 0.17709 0.0
C1501 C 0.87908 0.58316 0.13797 0.0
C1502 C 0.89889 0.55318 0.99534 0.0
C1503 C 0.89346 0.56626 0.08712 0.0
C1504 C 0.90671 0.54537 0.96963 0.0
C1505 C 0.91721 0.54247 0.00665 0.0
C1506 C 0.90135 0.55779 0.0587 0.0
C1507 C 0.91941 0.54737 0.06969 0.0
C1508 C 0.89053 0.56553 0.15188 0.0
C1509 C 0.8823 0.58361 0.07356 0.0
N1510 N 0.91147 0.55471 0.09387 0.0
N1511 N 0.88922 0.57521 0.05007 0.0
H1512 H 0.5654 0.68817 0.75671 0.0
H1513 H 0.54091 0.63455 0.06553 0.0
H1514 H 0.59039 0.70693 0.9325 0.0
H1515 H 0.53587 0.61323 0.88237 0.0
H1516 H 0.55592 0.6617 0.01809 0.0
H1517 H 0.55122 0.66073 0.80261 0.0
C1518 C 0.56793 0.68651 0.80477 0.0
C1519 C 0.57911 0.69981 0.8408 0.0
C1520 C 0.55156 0.65104 0.98847 0.0
C1521 C 0.56282 0.6687 0.8935 0.0
C1522 C 0.54296 0.63559 0.01541 0.0
C1523 C 0.5372 0.62165 0.97782 0.0
C1524 C 0.55409 0.65252 0.92345 0.0
C1525 C 0.54022 0.62367 0.91309 0.0
C1526 C 0.55989 0.6709 0.83078 0.0
C1527 C 0.58196 0.697 0.90286 0.0
N1528 N 0.54835 0.63884 0.88781 0.0
N1529 N 0.57375 0.68177 0.92745 0.0
H1530 H 0.3699 0.93904 0.96642 0.0
H1531 H 0.29888 0.85805 0.81754 0.0
H1532 H 0.36274 0.89162 0.01412 0.0
H1533 H 0.29287 0.89948 0.85595 0.0
H1534 H 0.32486 0.87152 0.87418 0.0
H1535 H 0.34357 0.92582 0.91248 0.0
C1536 C 0.3627 0.92585 0.96612 0.0
C1537 C 0.36844 0.91638 0.99497 0.0
C1538 C 0.31783 0.87763 0.86989 0.0
C1539 C 0.33867 0.9013 0.93206 0.0
C1540 C 0.30314 0.87006 0.8371 0.0
C1541 C 0.29375 0.87769 0.83203 0.0
C1542 C 0.32328 0.89303 0.89661 0.0
C1543 C 0.29973 0.89317 0.85889 0.0
C1544 C 0.34773 0.91835 0.93531 0.0
C1545 C 0.35867 0.89935 0.99298 0.0
N1546 N 0.31418 0.90039 0.88982 0.0
N1547 N 0.34432 0.89233 0.96126 0.0
H1548 H 0.13867 0.41435 0.91434 0.0
H1549 H 0.0751 0.44547 0.90205 0.0
H1550 H 0.12456 0.42805 0.74275 0.0
H1551 H 0.10696 0.45613 0.06146 0.0
H1552 H 0.08953 0.43382 0.84841 0.0
H1553 H 0.12387 0.42506 0.97388 0.0
C1554 C 0.13246 0.41959 0.88925 0.0
C1555 C 0.13285 0.42035 0.82352 0.0
C1556 C 0.09332 0.43867 0.89521 0.0
C1557 C 0.11581 0.43229 0.89106 0.0
C1558 C 0.08502 0.44523 0.92621 0.0
C1559 C 0.08987 0.45189 0.98644 0.0
C1560 C 0.10643 0.43851 0.92473 0.0
C1561 C 0.10289 0.45122 0.01497 0.0
C1562 C 0.1241 0.42572 0.92322 0.0
C1563 C 0.12466 0.42732 0.79333 0.0
N1564 N 0.11074 0.44461 0.98383 0.0
N1565 N 0.11636 0.43289 0.82735 0.0
H1566 H 0.09689 0.63752 0.56996 0.0
H1567 H 0.11753 0.69076 0.26029 0.0
H1568 H 0.07633 0.61579 0.39093 0.0
H1569 H 0.11462 0.70904 0.44232 0.0
H1570 H 0.10649 0.66346 0.30616 0.0
H1571 H 0.10804 0.66457 0.52226 0.0
C1572 C 0.0948 0.63845 0.52065 0.0
C1573 C 0.08561 0.62445 0.48438 0.0
C1574 C 0.10823 0.67349 0.33571 0.0
C1575 C 0.09842 0.65516 0.42971 0.0
C1576 C 0.11452 0.68902 0.30968 0.0
C1577 C 0.11688 0.70214 0.34747 0.0
C1578 C 0.1047 0.67124 0.40004 0.0
C1579 C 0.11283 0.69924 0.41128 0.0
C1580 C 0.10108 0.65384 0.49361 0.0
C1581 C 0.08322 0.62631 0.42067 0.0
N1582 N 0.10707 0.68413 0.43567 0.0
N1583 N 0.08967 0.64141 0.39519 0.0
H1584 H 0.37992 0.459 0.4032 0.0
H1585 H 0.28308 0.4087 0.39922 0.0
H1586 H 0.35052 0.45387 0.56553 0.0
H1587 H 0.31083 0.43364 0.23441 0.0
H1588 H 0.30825 0.42074 0.45975 0.0
H1589 H 0.35504 0.44549 0.33964 0.0
C1590 C 0.36823 0.45495 0.42551 0.0
C1591 C 0.36725 0.45758 0.4897 0.0
C1592 C 0.30881 0.42352 0.41029 0.0
C1593 C 0.33892 0.44204 0.41759 0.0
C1594 C 0.29448 0.41658 0.37551 0.0
C1595 C 0.29483 0.42021 0.31156 0.0
C1596 C 0.32368 0.43399 0.38089 0.0
C1597 C 0.30999 0.4306 0.28363 0.0
C1598 C 0.35411 0.44734 0.38918 0.0
C1599 C 0.35183 0.45218 0.51615 0.0
N1600 N 0.32387 0.43711 0.31851 0.0
N1601 N 0.33825 0.44457 0.48003 0.0
H1602 H 0.54371 0.92491 0.39391 0.0
H1603 H 0.5942 0.87998 0.44441 0.0
H1604 H 0.54404 0.90311 0.57105 0.0
H1605 H 0.5721 0.87886 0.26626 0.0
H1606 H 0.57998 0.89287 0.49133 0.0
H1607 H 0.55815 0.91229 0.34617 0.0
C1608 C 0.54691 0.91754 0.42285 0.0
C1609 C 0.54272 0.91505 0.4866 0.0
C1610 C 0.57828 0.88981 0.44199 0.0
C1611 C 0.55929 0.90076 0.43229 0.0
C1612 C 0.58647 0.88258 0.41498 0.0
C1613 C 0.58433 0.87837 0.35124 0.0
C1614 C 0.56812 0.89313 0.4048 0.0
C1615 C 0.57403 0.88187 0.31558 0.0
C1616 C 0.55504 0.91028 0.39543 0.0
C1617 C 0.54701 0.90527 0.52173 0.0
N1618 N 0.56636 0.88918 0.34282 0.0
N1619 N 0.55521 0.89856 0.49416 0.0
H1620 H 0.23433 0.13665 0.68274 0.0
H1621 H 0.2279 0.10966 0.03784 0.0
H1622 H 0.25611 0.16872 0.84095 0.0
H1623 H 0.22103 0.07796 0.88226 0.0
H1624 H 0.22687 0.12917 0.96593 0.0
H1625 H 0.21977 0.11373 0.75522 0.0
C1626 C 0.23585 0.13891 0.7327 0.0
C1627 C 0.24671 0.15452 0.75602 0.0
C1628 C 0.22496 0.11768 0.94767 0.0
C1629 C 0.22989 0.12852 0.8386 0.0
C1630 C 0.22528 0.10645 0.98881 0.0
C1631 C 0.22456 0.0923 0.96553 0.0
C1632 C 0.22425 0.11479 0.88297 0.0
C1633 C 0.22153 0.08876 0.90168 0.0
C1634 C 0.2275 0.12585 0.77387 0.0
C1635 C 0.24814 0.15681 0.82102 0.0
N1636 N 0.22192 0.10018 0.86206 0.0
N1637 N 0.23993 0.14392 0.86002 0.0
H1638 H 0.82493 0.08402 0.84997 0.0
H1639 H 0.91823 0.14114 0.90996 0.0
H1640 H 0.86144 0.09588 0.70701 0.0
H1641 H 0.88171 0.1228 0.05491 0.0
H1642 H 0.89899 0.11953 0.83999 0.0
H1643 H 0.84616 0.09324 0.92944 0.0
C1644 C 0.8374 0.08842 0.83534 0.0
C1645 C 0.84146 0.08952 0.77174 0.0
C1646 C 0.89536 0.11985 0.88782 0.0
C1647 C 0.86593 0.10029 0.86247 0.0
C1648 C 0.90643 0.13206 0.92789 0.0
C1649 C 0.90137 0.13374 0.98763 0.0
C1650 C 0.87922 0.10954 0.90801 0.0
C1651 C 0.88592 0.1219 0.00869 0.0
C1652 C 0.84954 0.0936 0.88078 0.0
C1653 C 0.85778 0.09502 0.75555 0.0
N1654 N 0.87524 0.1105 0.96849 0.0
N1655 N 0.86948 0.10052 0.80055 0.0
H1656 H 0.91623 0.7783 0.68755 0.0
H1657 H 0.82949 0.75855 0.82121 0.0
H1658 H 0.87004 0.73887 0.6244 0.0
H1659 H 0.87195 0.7751 0.93791 0.0
H1660 H 0.84631 0.76178 0.72884 0.0
H1661 H 0.90162 0.78676 0.76034 0.0
C1662 C 0.90302 0.77169 0.68814 0.0
C1663 C 0.89424 0.75776 0.65102 0.0
C1664 C 0.85204 0.76529 0.77445 0.0
C1665 C 0.87764 0.76751 0.73193 0.0
C1666 C 0.84251 0.76363 0.82685 0.0
C1667 C 0.84948 0.7667 0.8866 0.0
C1668 C 0.86856 0.7701 0.7824 0.0
C1669 C 0.86627 0.77278 0.89218 0.0
C1670 C 0.89474 0.77649 0.7294 0.0
C1671 C 0.87719 0.74952 0.65316 0.0
N1672 N 0.87527 0.77411 0.84063 0.0
N1673 N 0.86942 0.75449 0.69319 0.0
H1674 H 0.12129 0.2298 0.87375 0.0
H1675 H 0.09274 0.21909 0.51879 0.0
H1676 H 0.15216 0.24155 0.71111 0.0
H1677 H 0.06832 0.22893 0.66812 0.0
H1678 H 0.1089 0.2143 0.59624 0.0
H1679 H 0.09723 0.21779 0.80476 0.0
C1680 C 0.12293 0.22942 0.82367 0.0
C1681 C 0.13862 0.23685 0.79755 0.0
C1682 C 0.09956 0.21688 0.61222 0.0
C1683 C 0.11145 0.22299 0.71942 0.0
C1684 C 0.09025 0.21944 0.56815 0.0
C1685 C 0.07928 0.22436 0.5876 0.0
C1686 C 0.09806 0.21964 0.67581 0.0
C1687 C 0.07665 0.22502 0.65176 0.0
C1688 C 0.10927 0.22261 0.78456 0.0
C1689 C 0.14023 0.23615 0.73269 0.0
N1690 N 0.08629 0.22306 0.69392 0.0
N1691 N 0.1268 0.22945 0.69575 0.0
H1692 H 0.76932 0.84166 0.61858 0.0
H1693 H 0.74089 0.904 0.6877 0.0
H1694 H 0.76139 0.86872 0.47441 0.0
H1695 H 0.76569 0.89195 0.82899 0.0
H1696 H 0.75113 0.89305 0.60785 0.0
H1697 H 0.77213 0.86218 0.69555 0.0
C1698 C 0.76898 0.85235 0.60279 0.0
C1699 C 0.76502 0.85358 0.54066 0.0
C1700 C 0.75457 0.89299 0.65616 0.0
C1701 C 0.76758 0.87656 0.62769 0.0
C1702 C 0.74859 0.89911 0.70175 0.0
C1703 C 0.75227 0.89864 0.76488 0.0
C1704 C 0.76396 0.88594 0.67395 0.0
C1705 C 0.76251 0.89242 0.78064 0.0
C1706 C 0.77039 0.86396 0.64667 0.0
C1707 C 0.76435 0.8674 0.52227 0.0
N1708 N 0.76775 0.88598 0.73551 0.0
N1709 N 0.76525 0.8782 0.56585 0.0
H1710 H 0.12446 0.8758 0.46342 0.0
H1711 H 0.09374 0.86241 0.81762 0.0
H1712 H 0.14362 0.91476 0.59871 0.0
H1713 H 0.08749 0.82449 0.6894 0.0
H1714 H 0.10618 0.88244 0.73274 0.0
H1715 H 0.10416 0.85799 0.53945 0.0
C1716 C 0.12407 0.88069 0.50887 0.0
C1717 C 0.13575 0.89663 0.5254 0.0
C1718 C 0.10188 0.8697 0.72324 0.0
C1719 C 0.11297 0.87622 0.61331 0.0
C1720 C 0.09479 0.85827 0.77147 0.0
C1721 C 0.08978 0.8418 0.76058 0.0
C1722 C 0.10371 0.86451 0.66377 0.0
C1723 C 0.09141 0.83709 0.70008 0.0
C1724 C 0.11258 0.87051 0.55237 0.0
C1725 C 0.13476 0.90249 0.58452 0.0
N1726 N 0.09828 0.84839 0.6541 0.0
N1727 N 0.12373 0.89213 0.62716 0.0
H1728 H 0.76553 0.88443 0.97337 0.0
H1729 H 0.76552 0.86234 0.33296 0.0
H1730 H 0.77214 0.91785 0.12224 0.0
H1731 H 0.74004 0.82809 0.18419 0.0
H1732 H 0.77734 0.88444 0.25522 0.0
H1733 H 0.76719 0.8661 0.04956 0.0
C1734 C 0.76811 0.88822 0.02191 0.0
C1735 C 0.76871 0.90257 0.04197 0.0
C1736 C 0.76939 0.87203 0.23976 0.0
C1737 C 0.76986 0.88144 0.12936 0.0
C1738 C 0.76264 0.85945 0.28386 0.0
C1739 C 0.75161 0.84345 0.2648 0.0
C1740 C 0.76532 0.86844 0.17634 0.0
C1741 C 0.74827 0.84031 0.20084 0.0
C1742 C 0.76883 0.87768 0.0654 0.0
C1743 C 0.77176 0.9069 0.10526 0.0
N1744 N 0.75506 0.85271 0.15894 0.0
N1745 N 0.77185 0.89614 0.1473 0.0
H1746 H 0.07254 0.8518 0.10838 0.0
H1747 H 0.16602 0.90922 0.16573 0.0
H1748 H 0.10828 0.87198 0.96094 0.0
H1749 H 0.13016 0.89828 0.31049 0.0
H1750 H 0.14442 0.89926 0.0876 0.0
H1751 H 0.09211 0.87268 0.18009 0.0
C1752 C 0.08423 0.86113 0.09049 0.0
C1753 C 0.08896 0.86024 0.0292 0.0
C1754 C 0.14125 0.89924 0.13634 0.0
C1755 C 0.11148 0.88357 0.11061 0.0
C1756 C 0.1536 0.90483 0.18101 0.0
C1757 C 0.14985 0.90431 0.24472 0.0
C1758 C 0.12495 0.89273 0.15556 0.0
C1759 C 0.13357 0.89876 0.2618 0.0
C1760 C 0.09548 0.87291 0.13148 0.0
C1761 C 0.1043 0.87231 0.00822 0.0
N1762 N 0.12166 0.89288 0.21756 0.0
N1763 N 0.11515 0.88329 0.04918 0.0
H1764 H 0.15689 0.23201 0.15225 0.0
H1765 H 0.07351 0.22606 0.26135 0.0
H1766 H 0.12017 0.22985 0.02733 0.0
H1767 H 0.11803 0.24934 0.36806 0.0
H1768 H 0.08657 0.21653 0.18608 0.0
H1769 H 0.13853 0.22731 0.24126 0.0
C1770 C 0.1447 0.22986 0.14354 0.0
C1771 C 0.13991 0.23133 0.08303 0.0
C1772 C 0.09332 0.22334 0.22691 0.0
C1773 C 0.11912 0.22613 0.18336 0.0
C1774 C 0.08588 0.22871 0.26968 0.0
C1775 C 0.09484 0.23849 0.32015 0.0
C1776 C 0.10977 0.22784 0.23514 0.0
C1777 C 0.11085 0.24183 0.32924 0.0
C1778 C 0.13432 0.22732 0.19412 0.0
C1779 C 0.1242 0.2288 0.07368 0.0
N1780 N 0.11791 0.23665 0.28661 0.0
N1781 N 0.11438 0.22648 0.12349 0.0
H1782 H 0.87299 0.76994 0.10121 0.0
H1783 H 0.9004 0.78324 0.45767 0.0
H1784 H 0.84152 0.75789 0.2621 0.0
H1785 H 0.92687 0.77531 0.31105 0.0
H1786 H 0.88389 0.78696 0.3785 0.0
H1787 H 0.89684 0.78353 0.17099 0.0
C1788 C 0.87115 0.77057 0.151 0.0
C1789 C 0.85541 0.76261 0.17654 0.0
C1790 C 0.89375 0.78507 0.36349 0.0
C1791 C 0.88231 0.77824 0.25553 0.0
C1792 C 0.90327 0.78315 0.40858 0.0
C1793 C 0.91493 0.77901 0.39038 0.0
C1794 C 0.89574 0.78247 0.30015 0.0
C1795 C 0.91801 0.77861 0.32648 0.0
C1796 C 0.8847 0.77829 0.19057 0.0
C1797 C 0.85353 0.76368 0.24104 0.0
N1798 N 0.90817 0.77991 0.28334 0.0
N1799 N 0.86684 0.77123 0.27843 0.0
H1800 H 0.23506 0.1048 0.17767 0.0
H1801 H 0.25715 0.13582 0.53073 0.0
H1802 H 0.26926 0.09952 0.29489 0.0
H1803 H 0.23647 0.15591 0.40343 0.0
H1804 H 0.25472 0.1165 0.45056 0.0
H1805 H 0.22969 0.11847 0.26465 0.0
C1806 C 0.24131 0.10637 0.22182 0.0
C1807 C 0.25274 0.10114 0.22902 0.0
C1808 C 0.25049 0.12496 0.44017 0.0
C1809 C 0.24646 0.11646 0.32824 0.0
C1810 C 0.25179 0.13592 0.48602 0.0
C1811 C 0.24719 0.14756 0.47314 0.0
C1812 C 0.24475 0.12574 0.38053 0.0
C1813 C 0.24016 0.14709 0.41488 0.0
C1814 C 0.23825 0.11417 0.2712 0.0
C1815 C 0.26051 0.10351 0.28701 0.0
N1816 N 0.2394 0.1365 0.36997 0.0
N1817 N 0.25723 0.11098 0.33427 0.0
H1818 H 0.85201 0.08407 0.42319 0.0
H1819 H 0.90496 0.17603 0.31657 0.0
H1820 H 0.86655 0.12539 0.54491 0.0
H1821 H 0.89915 0.13616 0.20058 0.0
H1822 H 0.89339 0.15733 0.40441 0.0
H1823 H 0.87197 0.10225 0.3453 0.0
C1824 C 0.85974 0.09686 0.43418 0.0
C1825 C 0.8575 0.10336 0.48977 0.0
C1826 C 0.89479 0.15264 0.36003 0.0
C1827 C 0.87999 0.12412 0.40142 0.0
C1828 C 0.90132 0.16333 0.30974 0.0
C1829 C 0.90282 0.1576 0.25109 0.0
C1830 C 0.88938 0.13599 0.35144 0.0
C1831 C 0.89813 0.14105 0.24509 0.0
C1832 C 0.87104 0.10725 0.3897 0.0
C1833 C 0.86772 0.11999 0.50195 0.0
N1834 N 0.89136 0.13074 0.29446 0.0
N1835 N 0.87834 0.12982 0.45779 0.0
H1836 H 0.91184 0.44585 0.36799 0.0
H1837 H 0.90279 0.46365 0.01088 0.0
H1838 H 0.8994 0.41015 0.22211 0.0
H1839 H 0.92891 0.49981 0.15321 0.0
H1840 H 0.89292 0.44236 0.09173 0.0
H1841 H 0.90815 0.46344 0.29445 0.0
C1842 C 0.90776 0.44152 0.32079 0.0
C1843 C 0.90603 0.4267 0.30049 0.0
C1844 C 0.90057 0.45499 0.10518 0.0
C1845 C 0.9025 0.44694 0.21567 0.0
C1846 C 0.9062 0.46712 0.05926 0.0
C1847 C 0.91691 0.48344 0.07548 0.0
C1848 C 0.90551 0.45933 0.16754 0.0
C1849 C 0.92094 0.48733 0.13863 0.0
C1850 C 0.9058 0.45159 0.27874 0.0
C1851 C 0.9008 0.42154 0.23914 0.0
N1852 N 0.91531 0.47535 0.18226 0.0
N1853 N 0.89959 0.43188 0.19809 0.0
H1854 H 0.57793 0.47004 0.2462 0.0
H1855 H 0.48401 0.41411 0.18433 0.0
H1856 H 0.54068 0.45432 0.38781 0.0
H1857 H 0.52076 0.42751 0.04112 0.0
H1858 H 0.50517 0.42296 0.26391 0.0
H1859 H 0.55834 0.44855 0.17659 0.0
C1860 C 0.56584 0.46155 0.26355 0.0
C1861 C 0.56074 0.46393 0.32213 0.0
C1862 C 0.50862 0.42377 0.21513 0.0
C1863 C 0.53824 0.43988 0.24293 0.0
C1864 C 0.49653 0.41879 0.16963 0.0
C1865 C 0.50066 0.42045 0.10597 0.0
C1866 C 0.52504 0.43078 0.19691 0.0
C1867 C 0.51704 0.42625 0.08971 0.0
C1868 C 0.55459 0.44942 0.22368 0.0
C1869 C 0.54494 0.45287 0.34248 0.0
N1870 N 0.52868 0.43152 0.13487 0.0
N1871 N 0.53413 0.44151 0.30247 0.0
H1872 H 0.58292 0.07533 0.14693 0.0
H1873 H 0.52142 0.10532 0.21178 0.0
H1874 H 0.5708 0.09957 0.00358 0.0
H1875 H 0.5471 0.0959 0.35727 0.0
H1876 H 0.54207 0.10778 0.13603 0.0
H1877 H 0.57241 0.08623 0.22594 0.0
C1878 C 0.57815 0.08309 0.13228 0.0
C1879 C 0.57749 0.08638 0.06882 0.0
C1880 C 0.54353 0.10578 0.18495 0.0
C1881 C 0.5652 0.09875 0.15878 0.0
C1882 C 0.53184 0.10455 0.22816 0.0
C1883 C 0.53263 0.1003 0.2903 0.0
C1884 C 0.55578 0.10249 0.20458 0.0
C1885 C 0.54611 0.09909 0.3094 0.0
C1886 C 0.57226 0.08943 0.17737 0.0
C1887 C 0.57143 0.0967 0.05222 0.0
N1888 N 0.55699 0.09985 0.26646 0.0
N1889 N 0.56516 0.10225 0.0969 0.0
H1890 H 0.7772 0.56699 0.7885 0.0
H1891 H 0.80083 0.56871 0.14676 0.0
H1892 H 0.74374 0.55845 0.93961 0.0
H1893 H 0.8345 0.59216 0.99418 0.0
H1894 H 0.7784 0.55608 0.07079 0.0
H1895 H 0.79614 0.56575 0.86273 0.0
C1896 C 0.77356 0.5641 0.83708 0.0
C1897 C 0.759 0.56283 0.85838 0.0
C1898 C 0.79075 0.56377 0.05412 0.0
C1899 C 0.78084 0.56224 0.94375 0.0
C1900 C 0.80353 0.57099 0.09726 0.0
C1901 C 0.81948 0.58172 0.0766 0.0
C1902 C 0.79407 0.56711 0.99007 0.0
C1903 C 0.82234 0.58423 0.01212 0.0
C1904 C 0.78444 0.56362 0.87953 0.0
C1905 C 0.75486 0.55936 0.92169 0.0
N1906 N 0.80974 0.57705 0.97121 0.0
N1907 N 0.76596 0.55959 0.96275 0.0
H1908 H 0.40517 0.19313 0.7983 0.0
H1909 H 0.42691 0.22299 0.15259 0.0
H1910 H 0.4255 0.1724 0.92423 0.0
H1911 H 0.39213 0.22773 0.03693 0.0
H1912 H 0.43261 0.20982 0.06454 0.0
H1913 H 0.4077 0.21226 0.87948 0.0
C1914 C 0.41048 0.19285 0.84292 0.0
C1915 C 0.41492 0.18108 0.85521 0.0
C1916 C 0.42385 0.21389 0.0586 0.0
C1917 C 0.41746 0.20265 0.94885 0.0
C1918 C 0.4206 0.22139 0.10857 0.0
C1919 C 0.40891 0.2263 0.10206 0.0
C1920 C 0.41557 0.21163 0.00173 0.0
C1921 C 0.40107 0.22395 0.04425 0.0
C1922 C 0.41183 0.2037 0.88931 0.0
C1923 C 0.42191 0.18132 0.91332 0.0
N1924 N 0.40455 0.2168 0.99642 0.0
N1925 N 0.42271 0.19179 0.9588 0.0
H1926 H 0.82753 0.25943 0.97131 0.0
H1927 H 0.7444 0.18428 0.09694 0.0
H1928 H 0.78955 0.22481 0.85056 0.0
H1929 H 0.79115 0.20208 0.18538 0.0
H1930 H 0.75727 0.20632 0.01895 0.0
H1931 H 0.81012 0.24577 0.06254 0.0
C1932 C 0.81525 0.24942 0.96404 0.0
C1933 C 0.80984 0.24313 0.90396 0.0
C1934 C 0.76458 0.20558 0.0564 0.0
C1935 C 0.79013 0.22755 0.00684 0.0
C1936 C 0.75729 0.19308 0.10058 0.0
C1937 C 0.76687 0.19141 0.14655 0.0
C1938 C 0.78144 0.21652 0.05943 0.0
C1939 C 0.78349 0.20297 0.14982 0.0
C1940 C 0.80542 0.24157 0.01587 0.0
C1941 C 0.79403 0.22994 0.89652 0.0
N1942 N 0.79031 0.21503 0.10648 0.0
N1943 N 0.78473 0.22244 0.94755 0.0
H1944 H 0.43626 0.22065 0.29213 0.0
H1945 H 0.42744 0.19243 0.64683 0.0
H1946 H 0.44108 0.25155 0.44799 0.0
H1947 H 0.40611 0.1609 0.48694 0.0
H1948 H 0.44226 0.21559 0.57556 0.0
H1949 H 0.4368 0.20098 0.36465 0.0
C1950 C 0.4384 0.2237 0.34145 0.0
C1951 C 0.43862 0.23764 0.36447 0.0
C1952 C 0.43456 0.20353 0.55628 0.0
C1953 C 0.43839 0.21496 0.44759 0.0
C1954 C 0.42607 0.19034 0.59676 0.0
C1955 C 0.41528 0.17479 0.57262 0.0
C1956 C 0.43243 0.20107 0.49139 0.0
C1957 C 0.41402 0.17274 0.50749 0.0
C1958 C 0.43841 0.21236 0.3829 0.0
C1959 C 0.44099 0.24093 0.42871 0.0
N1960 N 0.42241 0.18575 0.46916 0.0
N1961 N 0.44035 0.22943 0.4685 0.0
H1962 H 0.82359 0.24543 0.53045 0.0
H1963 H 0.73551 0.17947 0.48791 0.0
H1964 H 0.79126 0.22865 0.68964 0.0
H1965 H 0.7629 0.21294 0.34007 0.0
H1966 H 0.75279 0.19997 0.56507 0.0
H1967 H 0.80014 0.23646 0.46146 0.0
C1968 C 0.81149 0.24 0.55075 0.0
C1969 C 0.80923 0.23748 0.61536 0.0
C1970 C 0.75455 0.20316 0.51586 0.0
C1971 C 0.7823 0.22691 0.53698 0.0
C1972 C 0.74454 0.19152 0.47189 0.0
C1973 C 0.74794 0.1946 0.40795 0.0
C1974 C 0.76817 0.21766 0.49503 0.0
C1975 C 0.75999 0.21018 0.38922 0.0
C1976 C 0.79811 0.23501 0.51154 0.0
C1977 C 0.7934 0.23064 0.63976 0.0
N1978 N 0.77002 0.22101 0.43258 0.0
N1979 N 0.78042 0.22516 0.60032 0.0
H1980 H 0.75527 0.5946 0.51089 0.0
H1981 H 0.81794 0.56553 0.42667 0.0
H1982 H 0.76765 0.56782 0.64185 0.0
H1983 H 0.7977 0.58478 0.29366 0.0
H1984 H 0.79685 0.56207 0.50256 0.0
H1985 H 0.76801 0.58744 0.42742 0.0
C1986 C 0.76059 0.58709 0.52188 0.0
C1987 C 0.76062 0.58198 0.58333 0.0
C1988 C 0.79678 0.56665 0.45617 0.0
C1989 C 0.7755 0.57388 0.48814 0.0
C1990 C 0.80873 0.5685 0.41289 0.0
C1991 C 0.80959 0.57566 0.35459 0.0
C1992 C 0.78582 0.57204 0.44038 0.0
C1993 C 0.79754 0.57945 0.33874 0.0
C1994 C 0.76781 0.58292 0.47417 0.0
C1995 C 0.76745 0.57206 0.59494 0.0
N1996 N 0.7863 0.57781 0.38165 0.0
N1997 N 0.77492 0.56857 0.5479 0.0
H1998 H 0.56036 0.09687 0.85921 0.0
H1999 H 0.54058 0.10031 0.49925 0.0
H2000 H 0.59445 0.10419 0.71192 0.0
H2001 H 0.50527 0.07563 0.64583 0.0
H2002 H 0.56238 0.11097 0.57833 0.0
H2003 H 0.54282 0.09987 0.78312 0.0
C2004 C 0.56444 0.0998 0.81106 0.0
C2005 C 0.57874 0.10022 0.79133 0.0
C2006 C 0.54982 0.10347 0.59303 0.0
C2007 C 0.5585 0.10293 0.70389 0.0
C2008 C 0.53741 0.09738 0.54816 0.0
C2009 C 0.52118 0.08688 0.56621 0.0
C2010 C 0.54584 0.09925 0.65617 0.0
C2011 C 0.51767 0.08346 0.62994 0.0
C2012 C 0.55437 0.10132 0.7676 0.0
C2013 C 0.5835 0.10387 0.72861 0.0
N2014 N 0.52991 0.08957 0.67256 0.0
N2015 N 0.57316 0.1047 0.68645 0.0
H2016 H 0.93161 0.42139 0.65225 0.0
H2017 H 0.89772 0.47986 0.72091 0.0
H2018 H 0.90581 0.43216 0.51098 0.0
H2019 H 0.91028 0.45617 0.86463 0.0
H2020 H 0.89626 0.45971 0.64485 0.0
H2021 H 0.92068 0.43162 0.73212 0.0
C2022 C 0.92355 0.42584 0.63819 0.0
C2023 C 0.91979 0.42617 0.57503 0.0
C2024 C 0.89876 0.45857 0.69349 0.0
C2025 C 0.9073 0.43807 0.66609 0.0
C2026 C 0.89941 0.46996 0.73689 0.0
C2027 C 0.90426 0.46963 0.79855 0.0
C2028 C 0.90317 0.44707 0.71244 0.0
C2029 C 0.90663 0.45681 0.81712 0.0
C2030 C 0.91718 0.43156 0.68382 0.0
C2031 C 0.90907 0.43181 0.55933 0.0
N2032 N 0.90638 0.44622 0.77398 0.0
N2033 N 0.90343 0.43787 0.60452 0.0
H2034 H 0.56478 0.50887 0.64592 0.0
H2035 H 0.51259 0.41705 0.76161 0.0
H2036 H 0.56023 0.46825 0.53798 0.0
H2037 H 0.52288 0.45907 0.87326 0.0
H2038 H 0.53272 0.43524 0.68423 0.0
H2039 H 0.55192 0.49065 0.73426 0.0
C2040 C 0.56115 0.49612 0.64092 0.0
C2041 C 0.56341 0.49005 0.58425 0.0
C2042 C 0.53076 0.44042 0.72628 0.0
C2043 C 0.54852 0.469 0.68528 0.0
C2044 C 0.51936 0.43004 0.77048 0.0
C2045 C 0.51592 0.43664 0.82312 0.0
C2046 C 0.53865 0.4574 0.73528 0.0
C2047 C 0.52496 0.45353 0.8326 0.0
C2048 C 0.55386 0.4857 0.69152 0.0
C2049 C 0.55866 0.47344 0.58078 0.0
N2050 N 0.53575 0.46332 0.78877 0.0
N2051 N 0.55122 0.46343 0.63036 0.0
H2052 H 0.56652 0.79861 0.34629 0.0
H2053 H 0.56998 0.77837 0.7054 0.0
H2054 H 0.59268 0.8336 0.49218 0.0
H2055 H 0.55898 0.74333 0.55807 0.0
H2056 H 0.56795 0.7967 0.63039 0.0
H2057 H 0.55491 0.77694 0.42572 0.0
C2058 C 0.56959 0.80175 0.39511 0.0
C2059 C 0.58078 0.81783 0.41283 0.0
C2060 C 0.5655 0.78481 0.61465 0.0
C2061 C 0.56737 0.79332 0.50325 0.0
C2062 C 0.56648 0.77431 0.65753 0.0
C2063 C 0.56474 0.75947 0.63738 0.0
C2064 C 0.56314 0.78055 0.55104 0.0
C2065 C 0.56035 0.75471 0.57506 0.0
C2066 C 0.56297 0.78942 0.44021 0.0
C2067 C 0.58435 0.8213 0.47649 0.0
N2068 N 0.56009 0.76545 0.53338 0.0
N2069 N 0.57773 0.80913 0.51933 0.0
H2070 H 0.2521 0.81291 0.5489 0.0
H2071 H 0.15956 0.75401 0.4945 0.0
H2072 H 0.21764 0.78879 0.69796 0.0
H2073 H 0.19472 0.76636 0.34595 0.0
H2074 H 0.18149 0.76333 0.5709 0.0
H2075 H 0.23303 0.79232 0.4753 0.0
C2076 C 0.24087 0.80277 0.56655 0.0
C2077 C 0.23627 0.80246 0.62904 0.0
C2078 C 0.18446 0.76381 0.52169 0.0
C2079 C 0.21426 0.77944 0.54567 0.0
C2080 C 0.17193 0.75862 0.47807 0.0
C2081 C 0.1754 0.75972 0.41396 0.0
C2082 C 0.20066 0.77057 0.50104 0.0
C2083 C 0.19159 0.76547 0.39512 0.0
C2084 C 0.22989 0.79114 0.52453 0.0
C2085 C 0.2215 0.78937 0.64979 0.0
N2086 N 0.2037 0.77102 0.43849 0.0
N2087 N 0.21084 0.77856 0.60793 0.0
H2088 H 0.21154 0.44616 0.61259 0.0
H2089 H 0.22756 0.4364 0.25358 0.0
H2090 H 0.17527 0.43314 0.4687 0.0
H2091 H 0.25097 0.42821 0.41114 0.0
H2092 H 0.2143 0.4465 0.32586 0.0
H2093 H 0.23207 0.45184 0.53188 0.0
C2094 C 0.20811 0.44523 0.5637 0.0
C2095 C 0.19184 0.43928 0.54674 0.0
C2096 C 0.22271 0.44293 0.3442 0.0
C2097 C 0.21494 0.4451 0.45482 0.0
C2098 C 0.23028 0.43724 0.30318 0.0
C2099 C 0.24017 0.4314 0.32703 0.0
C2100 C 0.22537 0.44296 0.40892 0.0
C2101 C 0.24327 0.43252 0.39138 0.0
C2102 C 0.21975 0.44831 0.51779 0.0
C2103 C 0.1878 0.43786 0.48313 0.0
N2104 N 0.2358 0.43807 0.43023 0.0
N2105 N 0.19925 0.44046 0.43917 0.0
H2106 H 0.46231 0.89815 0.49559 0.0
H2107 H 0.44394 0.90285 0.13526 0.0
H2108 H 0.49805 0.92381 0.35135 0.0
H2109 H 0.40888 0.89385 0.28066 0.0
H2110 H 0.46131 0.89968 0.21165 0.0
H2111 H 0.44085 0.88732 0.41514 0.0
C2112 C 0.46564 0.90127 0.44691 0.0
C2113 C 0.48188 0.9121 0.42989 0.0
C2114 C 0.4496 0.89791 0.22664 0.0
C2115 C 0.45764 0.89954 0.33843 0.0
C2116 C 0.43964 0.89955 0.18301 0.0
C2117 C 0.42513 0.89871 0.20226 0.0
C2118 C 0.44514 0.89582 0.29006 0.0
C2119 C 0.42004 0.89453 0.26442 0.0
C2120 C 0.45344 0.89509 0.40127 0.0
C2121 C 0.48563 0.91575 0.36644 0.0
N2122 N 0.43028 0.89364 0.30685 0.0
N2123 N 0.47359 0.90955 0.32306 0.0
H2124 H 0.10336 0.56126 0.49775 0.0
H2125 H 0.10214 0.53892 0.13761 0.0
H2126 H 0.0776 0.57014 0.35044 0.0
H2127 H 0.10985 0.51251 0.28508 0.0
H2128 H 0.10381 0.55882 0.21426 0.0
H2129 H 0.11478 0.55074 0.41922 0.0
C2130 C 0.10032 0.56122 0.44882 0.0
C2131 C 0.08935 0.56632 0.4304 0.0
C2132 C 0.10565 0.54897 0.22971 0.0
C2133 C 0.1026 0.55477 0.34105 0.0
C2134 C 0.10491 0.53776 0.18594 0.0
C2135 C 0.10583 0.52415 0.20549 0.0
C2136 C 0.10701 0.54632 0.2935 0.0
C2137 C 0.10919 0.52296 0.2685 0.0
C2138 C 0.10684 0.55525 0.40427 0.0
C2139 C 0.0858 0.56606 0.36663 0.0
N2140 N 0.10928 0.53374 0.31089 0.0
N2141 N 0.09237 0.56033 0.3243 0.0
H2142 H 0.40763 0.51823 0.44077 0.0
H2143 H 0.49409 0.58557 0.30634 0.0
H2144 H 0.45367 0.52448 0.50336 0.0
H2145 H 0.45263 0.55801 0.18643 0.0
H2146 H 0.47711 0.57121 0.39755 0.0
H2147 H 0.42233 0.54048 0.36468 0.0
C2148 C 0.42083 0.5245 0.43915 0.0
C2149 C 0.42953 0.51948 0.47735 0.0
C2150 C 0.47162 0.56876 0.35143 0.0
C2151 C 0.44622 0.54495 0.39292 0.0
C2152 C 0.48122 0.57703 0.29972 0.0
C2153 C 0.47459 0.57297 0.23946 0.0
C2154 C 0.45535 0.55653 0.34233 0.0
C2155 C 0.45802 0.5615 0.23258 0.0
C2156 C 0.42915 0.53712 0.39604 0.0
C2157 C 0.44657 0.52788 0.47388 0.0
N2158 N 0.44892 0.55353 0.28355 0.0
N2159 N 0.45439 0.54024 0.43227 0.0
H2160 H 0.1078 0.58609 0.78451 0.0
H2161 H 0.08042 0.49517 0.85003 0.0
H2162 H 0.09955 0.55126 0.63925 0.0
H2163 H 0.10415 0.53176 0.99302 0.0
H2164 H 0.09049 0.51654 0.77101 0.0
H2165 H 0.11074 0.56826 0.8606 0.0
C2166 C 0.1074 0.57506 0.76828 0.0
C2167 C 0.10337 0.56998 0.70605 0.0
C2168 C 0.09375 0.51997 0.8195 0.0
C2169 C 0.10609 0.54943 0.79213 0.0
C2170 C 0.08788 0.50775 0.86461 0.0
C2171 C 0.09129 0.51177 0.92797 0.0
C2172 C 0.10273 0.53639 0.83797 0.0
C2173 C 0.10121 0.52822 0.94445 0.0
C2174 C 0.1089 0.56481 0.81166 0.0
C2175 C 0.10259 0.55547 0.68715 0.0
N2176 N 0.10632 0.54001 0.89976 0.0
N2177 N 0.10361 0.54554 0.73024 0.0
H2178 H 0.45403 0.55901 0.02215 0.0
H2179 H 0.42626 0.54321 0.66611 0.0
H2180 H 0.48558 0.57462 0.86055 0.0
H2181 H 0.39767 0.51147 0.81639 0.0
H2182 H 0.44404 0.56341 0.74297 0.0
H2183 H 0.43033 0.54953 0.95214 0.0
C2184 C 0.45596 0.56074 0.97207 0.0
C2185 C 0.47167 0.56726 0.94668 0.0
C2186 C 0.43349 0.55232 0.75923 0.0
C2187 C 0.44491 0.55693 0.86726 0.0
C2188 C 0.42321 0.54091 0.71539 0.0
C2189 C 0.41056 0.52576 0.73533 0.0
C2190 C 0.4312 0.54831 0.82314 0.0
C2191 C 0.40729 0.52312 0.79954 0.0
C2192 C 0.44249 0.55539 0.93236 0.0
C2193 C 0.47361 0.56934 0.88173 0.0
N2194 N 0.41784 0.53414 0.84152 0.0
N2195 N 0.46037 0.56408 0.84422 0.0
H2196 H 0.48081 0.89262 0.78342 0.0
H2197 H 0.42043 0.92396 0.84634 0.0
H2198 H 0.45564 0.9023 0.63663 0.0
H2199 H 0.43127 0.89863 0.98938 0.0
H2200 H 0.43084 0.91292 0.76743 0.0
H2201 H 0.46009 0.89038 0.85833 0.0
C2202 C 0.47047 0.89347 0.76657 0.0
C2203 C 0.46986 0.89774 0.70432 0.0
C2204 C 0.43072 0.90952 0.81592 0.0
C2205 C 0.44667 0.89586 0.78911 0.0
C2206 C 0.42488 0.91595 0.86098 0.0
C2207 C 0.42522 0.91238 0.92437 0.0
C2208 C 0.43735 0.89981 0.83452 0.0
C2209 C 0.4309 0.90174 0.94084 0.0
C2210 C 0.45875 0.89238 0.80929 0.0
C2211 C 0.45649 0.89908 0.68461 0.0
N2212 N 0.43708 0.89609 0.89626 0.0
N2213 N 0.44559 0.8985 0.72712 0.0
H2214 H 0.19417 0.44588 0.8488 0.0
H2215 H 0.2675 0.43528 0.97444 0.0
H2216 H 0.20654 0.41058 0.78128 0.0
H2217 H 0.23875 0.44819 0.09197 0.0
H2218 H 0.25358 0.43794 0.88212 0.0
H2219 H 0.21845 0.45751 0.91671 0.0
C2220 C 0.20227 0.44091 0.84718 0.0
C2221 C 0.19839 0.42718 0.81058 0.0
C2222 C 0.25084 0.44086 0.92793 0.0
C2223 C 0.22602 0.44046 0.88615 0.0
C2224 C 0.25889 0.43954 0.98036 0.0
C2225 C 0.25421 0.44159 0.0403 0.0
C2226 C 0.23813 0.44428 0.93611 0.0
C2227 C 0.24268 0.44662 0.04613 0.0
C2228 C 0.21604 0.44751 0.88566 0.0
C2229 C 0.2091 0.42104 0.80978 0.0
N2230 N 0.2348 0.44757 0.99459 0.0
N2231 N 0.22241 0.42766 0.84746 0.0
H2232 H 0.59023 0.75297 0.98977 0.0
H2233 H 0.56257 0.81651 0.05918 0.0
H2234 H 0.56601 0.76607 0.84971 0.0
H2235 H 0.57415 0.79188 0.20228 0.0
H2236 H 0.55923 0.79544 0.98381 0.0
H2237 H 0.58081 0.76454 0.07018 0.0
C2238 C 0.58279 0.75818 0.97613 0.0
C2239 C 0.57907 0.75879 0.91314 0.0
C2240 C 0.56195 0.79434 0.03221 0.0
C2241 C 0.5684 0.77231 0.00474 0.0
C2242 C 0.56369 0.80627 0.0752 0.0
C2243 C 0.56877 0.80588 0.13641 0.0
C2244 C 0.5655 0.78221 0.05112 0.0
C2245 C 0.57036 0.79259 0.15508 0.0
C2246 C 0.5773 0.7647 0.02205 0.0
C2247 C 0.56919 0.76546 0.89794 0.0
N2248 N 0.56903 0.78144 0.11233 0.0
N2249 N 0.56446 0.77229 0.94336 0.0
H2250 H 0.22867 0.79904 0.84274 0.0
H2251 H 0.1991 0.78531 0.19822 0.0
H2252 H 0.23621 0.83694 0.97345 0.0
H2253 H 0.17835 0.74695 0.0606 0.0
H2254 H 0.21959 0.80292 0.12233 0.0
H2255 H 0.21627 0.77888 0.92711 0.0
C2256 C 0.22793 0.80315 0.88935 0.0
C2257 C 0.23327 0.81966 0.90109 0.0
C2258 C 0.21078 0.79056 0.10887 0.0
C2259 C 0.21937 0.79678 0.9973 0.0
C2260 C 0.19918 0.78049 0.15226 0.0
C2261 C 0.18701 0.7648 0.13505 0.0
C2262 C 0.21 0.78501 0.0474 0.0
C2263 C 0.1876 0.75902 0.0753 0.0
C2264 C 0.22086 0.79164 0.93728 0.0
C2265 C 0.23203 0.82432 0.96215 0.0
N2266 N 0.19875 0.76929 0.03282 0.0
N2267 N 0.22515 0.81293 0.00784 0.0
H2268 H 0.35737 0.09405 0.81117 0.0
H2269 H 0.2905 0.10869 0.96314 0.0
H2270 H 0.35125 0.13461 0.75959 0.0
H2271 H 0.28086 0.05961 0.9358 0.0
H2272 H 0.31396 0.11863 0.89313 0.0
H2273 H 0.33027 0.08094 0.86103 0.0
C2274 C 0.35009 0.09994 0.80902 0.0
C2275 C 0.35621 0.11515 0.77997 0.0
C2276 C 0.30668 0.10567 0.90195 0.0
C2277 C 0.3258 0.1007 0.83825 0.0
C2278 C 0.29343 0.10004 0.94231 0.0
C2279 C 0.28417 0.08343 0.95631 0.0
C2280 C 0.31079 0.0946 0.87593 0.0
C2281 C 0.28803 0.07257 0.92689 0.0
C2282 C 0.33471 0.0925 0.83727 0.0
C2283 C 0.34668 0.12264 0.77997 0.0
N2284 N 0.30133 0.07839 0.88882 0.0
N2285 N 0.332 0.11541 0.80922 0.0
H2286 H 0.88382 0.18247 0.99659 0.0
H2287 H 0.8922 0.26077 0.83245 0.0
H2288 H 0.93091 0.22168 0.94046 0.0
H2289 H 0.84934 0.21344 0.81319 0.0
H2290 H 0.90676 0.24781 0.87824 0.0
H2291 H 0.87079 0.19455 0.93515 0.0
C2292 C 0.89137 0.1937 0.97131 0.0
C2293 C 0.90837 0.20145 0.97476 0.0
C2294 C 0.89428 0.24027 0.86275 0.0
C2295 C 0.89368 0.21522 0.90414 0.0
C2296 C 0.88602 0.24763 0.83691 0.0
C2297 C 0.86981 0.23803 0.81746 0.0
C2298 C 0.88599 0.2233 0.87107 0.0
C2299 C 0.86202 0.22114 0.82589 0.0
C2300 C 0.88397 0.2005 0.93588 0.0
C2301 C 0.91773 0.21565 0.9398 0.0
N2302 N 0.87017 0.21429 0.85241 0.0
N2303 N 0.91024 0.22231 0.90662 0.0
H2304 H 0.73012 0.62185 0.87462 0.0
H2305 H 0.8146 0.69892 0.98108 0.0
H2306 H 0.77746 0.62909 0.82646 0.0
H2307 H 0.76965 0.69993 0.97722 0.0
H2308 H 0.80024 0.67112 0.94013 0.0
H2309 H 0.74348 0.64833 0.92949 0.0
C2310 C 0.7433 0.62905 0.87581 0.0
C2311 C 0.7528 0.62377 0.84441 0.0
C2312 C 0.79344 0.67732 0.9487 0.0
C2313 C 0.76801 0.65343 0.90768 0.0
C2314 C 0.8016 0.6931 0.97246 0.0
C2315 C 0.7931 0.70135 0.9842 0.0
C2316 C 0.77667 0.66983 0.93614 0.0
C2317 C 0.77645 0.69368 0.96994 0.0
C2318 C 0.75089 0.64406 0.9069 0.0
C2319 C 0.76979 0.63311 0.84852 0.0
N2320 N 0.76868 0.67821 0.94699 0.0
N2321 N 0.77687 0.64755 0.87923 0.0
H2322 H 0.10736 0.37425 0.63106 0.0
H2323 H 0.06249 0.29254 0.52957 0.0
H2324 H 0.14893 0.36743 0.61987 0.0
H2325 H 0.10899 0.29475 0.52668 0.0
H2326 H 0.07578 0.3205 0.56936 0.0
H2327 H 0.08984 0.34616 0.59601 0.0
C2328 C 0.1127 0.36669 0.62146 0.0
C2329 C 0.12939 0.37277 0.63045 0.0
C2330 C 0.0832 0.31504 0.55997 0.0
C2331 C 0.10968 0.34076 0.58956 0.0
C2332 C 0.07554 0.29904 0.53732 0.0
C2333 C 0.08484 0.29176 0.52279 0.0
C2334 C 0.10023 0.32355 0.56889 0.0
C2335 C 0.10156 0.30027 0.5353 0.0
C2336 C 0.10272 0.35061 0.60153 0.0
C2337 C 0.13596 0.36288 0.61563 0.0
N2338 N 0.10872 0.31575 0.55714 0.0
N2339 N 0.12608 0.34735 0.59632 0.0
H2340 H 0.70157 0.76631 0.52348 0.0
H2341 H 0.63236 0.77823 0.68169 0.0
H2342 H 0.69666 0.80853 0.49125 0.0
H2343 H 0.62388 0.73029 0.63661 0.0
H2344 H 0.65836 0.79019 0.62568 0.0
H2345 H 0.67514 0.75325 0.57873 0.0
C2346 C 0.69479 0.77269 0.52756 0.0
C2347 C 0.70085 0.78821 0.50133 0.0
C2348 C 0.65086 0.77705 0.62818 0.0
C2349 C 0.67131 0.77382 0.56565 0.0
C2350 C 0.63615 0.77026 0.66055 0.0
C2351 C 0.62636 0.75332 0.66503 0.0
C2352 C 0.65577 0.7668 0.6002 0.0
C2353 C 0.63139 0.74343 0.63508 0.0
C2354 C 0.67981 0.7653 0.55887 0.0
C2355 C 0.69204 0.79632 0.50929 0.0
N2356 N 0.64593 0.75032 0.60438 0.0
N2357 N 0.6777 0.78904 0.5409 0.0
H2358 H 0.22431 0.93045 0.51391 0.0
H2359 H 0.26668 0.89089 0.61393 0.0
H2360 H 0.18738 0.8821 0.45938 0.0
H2361 H 0.21804 0.85183 0.65308 0.0
H2362 H 0.25501 0.9049 0.55413 0.0
H2363 H 0.23967 0.91886 0.56388 0.0
C2364 C 0.21966 0.91744 0.51154 0.0
C2365 C 0.20497 0.9072 0.48073 0.0
C2366 C 0.24694 0.89336 0.57648 0.0
C2367 C 0.22207 0.89393 0.53817 0.0
C2368 C 0.25357 0.88539 0.61016 0.0
C2369 C 0.24321 0.87061 0.64014 0.0
C2370 C 0.22992 0.88612 0.57165 0.0
C2371 C 0.22635 0.86354 0.63232 0.0
C2372 C 0.22842 0.91087 0.53954 0.0
C2373 C 0.19899 0.89038 0.48082 0.0
N2374 N 0.2202 0.87137 0.59875 0.0
N2375 N 0.20753 0.88423 0.50949 0.0
H2376 H 0.70904 0.93105 0.03402 0.0
H2377 H 0.63622 0.8517 0.19044 0.0
H2378 H 0.70086 0.8826 0.00293 0.0
H2379 H 0.63147 0.89362 0.14876 0.0
H2380 H 0.66263 0.86466 0.13733 0.0
H2381 H 0.68302 0.91927 0.09188 0.0
C2382 C 0.70167 0.91795 0.03916 0.0
C2383 C 0.70663 0.90766 0.01219 0.0
C2384 C 0.65587 0.87108 0.14005 0.0
C2385 C 0.67755 0.89429 0.07929 0.0
C2386 C 0.64093 0.86377 0.17075 0.0
C2387 C 0.63204 0.87188 0.17523 0.0
C2388 C 0.66193 0.8866 0.11356 0.0
C2389 C 0.63826 0.88722 0.14715 0.0
C2390 C 0.68692 0.91127 0.07192 0.0
C2391 C 0.69708 0.89084 0.02146 0.0
N2392 N 0.65299 0.89423 0.11784 0.0
N2393 N 0.68297 0.88465 0.05426 0.0
H2394 H 0.13775 0.78118 0.20304 0.0
H2395 H 0.05659 0.77069 0.04932 0.0
H2396 H 0.09806 0.73343 0.15697 0.0
H2397 H 0.10447 0.81076 0.0073 0.0
H2398 H 0.0693 0.75771 0.10981 0.0
H2399 H 0.12315 0.79335 0.15282 0.0
C2400 C 0.12578 0.77329 0.18329 0.0
C2401 C 0.1188 0.75635 0.18534 0.0
C2402 C 0.07694 0.76932 0.08708 0.0
C2403 C 0.10227 0.77007 0.127 0.0
C2404 C 0.06974 0.77665 0.05281 0.0
C2405 C 0.07961 0.79146 0.02209 0.0
C2406 C 0.09399 0.77727 0.09217 0.0
C2407 C 0.09654 0.79908 0.02906 0.0
C2408 C 0.11755 0.7802 0.15426 0.0
C2409 C 0.10359 0.74657 0.15717 0.0
N2410 N 0.10322 0.7919 0.06344 0.0
N2411 N 0.09568 0.75358 0.12937 0.0
H2412 H 0.22088 0.37423 0.1184 0.0
H2413 H 0.22319 0.29463 0.01112 0.0
H2414 H 0.26557 0.37284 0.10737 0.0
H2415 H 0.18146 0.30089 0.98879 0.0
H2416 H 0.23896 0.32276 0.0503 0.0
H2417 H 0.20617 0.34693 0.07327 0.0
C2418 C 0.22753 0.36802 0.10682 0.0
C2419 C 0.24427 0.3754 0.11836 0.0
C2420 C 0.22641 0.31804 0.03609 0.0
C2421 C 0.22769 0.34436 0.0658 0.0
C2422 C 0.21747 0.30206 0.01385 0.0
C2423 C 0.20129 0.29583 0.99472 0.0
C2424 C 0.21889 0.32755 0.0407 0.0
C2425 C 0.19413 0.30557 0.00098 0.0
C2426 C 0.21919 0.35252 0.08065 0.0
C2427 C 0.25254 0.36726 0.1004 0.0
N2428 N 0.20299 0.32098 0.02333 0.0
N2429 N 0.24411 0.352 0.07565 0.0
H2430 H 0.89812 0.63344 0.32949 0.0
H2431 H 0.93771 0.71486 0.43421 0.0
H2432 H 0.85896 0.64194 0.27963 0.0
H2433 H 0.88958 0.70888 0.42854 0.0
H2434 H 0.92717 0.68835 0.38196 0.0
H2435 H 0.91307 0.66095 0.37426 0.0
C2436 C 0.89289 0.64131 0.32693 0.0
C2437 C 0.87768 0.63583 0.2988 0.0
C2438 C 0.91884 0.69267 0.39297 0.0
C2439 C 0.89446 0.6671 0.34968 0.0
C2440 C 0.9249 0.70782 0.42232 0.0
C2441 C 0.91429 0.71356 0.43763 0.0
C2442 C 0.90213 0.6835 0.37824 0.0
C2443 C 0.89796 0.70447 0.41944 0.0
C2444 C 0.90144 0.65704 0.35198 0.0
C2445 C 0.87099 0.64605 0.29876 0.0
N2446 N 0.89236 0.68986 0.391 0.0
N2447 N 0.87942 0.66119 0.32372 0.0
H2448 H 0.30476 0.23469 0.51564 0.0
H2449 H 0.37243 0.21978 0.37269 0.0
H2450 H 0.31046 0.19397 0.5689 0.0
H2451 H 0.38086 0.26868 0.39094 0.0
H2452 H 0.34907 0.21009 0.44291 0.0
H2453 H 0.3321 0.24777 0.46787 0.0
C2454 C 0.31198 0.22875 0.51851 0.0
C2455 C 0.3057 0.21352 0.5475 0.0
C2456 C 0.35607 0.22298 0.43217 0.0
C2457 C 0.3364 0.22796 0.49183 0.0
C2458 C 0.36927 0.22845 0.3917 0.0
C2459 C 0.37809 0.2449 0.37487 0.0
C2460 C 0.35158 0.23403 0.45538 0.0
C2461 C 0.37398 0.25582 0.40201 0.0
C2462 C 0.32751 0.23618 0.49153 0.0
C2463 C 0.31516 0.20597 0.54854 0.0
N2464 N 0.36072 0.25013 0.44015 0.0
N2465 N 0.33 0.21321 0.52064 0.0
H2466 H 0.80681 0.11667 0.57741 0.0
H2467 H 0.7785 0.15439 0.38 0.0
H2468 H 0.77127 0.07228 0.48743 0.0
H2469 H 0.73231 0.10972 0.38625 0.0
H2470 H 0.79088 0.14129 0.43865 0.0
H2471 H 0.79381 0.13085 0.53129 0.0
C2472 C 0.79608 0.10989 0.54853 0.0
C2473 C 0.78975 0.09325 0.53744 0.0
C2474 C 0.77798 0.13436 0.42836 0.0
C2475 C 0.7755 0.10955 0.48086 0.0
C2476 C 0.771 0.14176 0.39395 0.0
C2477 C 0.75455 0.13291 0.37722 0.0
C2478 C 0.76833 0.11802 0.44686 0.0
C2479 C 0.74515 0.11676 0.3976 0.0
C2480 C 0.78886 0.11803 0.52117 0.0
C2481 C 0.77626 0.08509 0.49774 0.0
N2482 N 0.75225 0.10969 0.43075 0.0
N2483 N 0.76948 0.09333 0.47093 0.0
H2484 H 0.96589 0.39776 0.30412 0.0
H2485 H 0.03909 0.47814 0.15857 0.0
H2486 H 0.97417 0.44582 0.34547 0.0
H2487 H 0.04429 0.43632 0.19659 0.0
H2488 H 0.01292 0.46498 0.21338 0.0
H2489 H 0.99253 0.41019 0.25049 0.0
C2490 C 0.97343 0.41091 0.3023 0.0
C2491 C 0.96827 0.42088 0.33069 0.0
C2492 C 0.01975 0.45864 0.20969 0.0
C2493 C 0.99808 0.435 0.26842 0.0
C2494 C 0.03456 0.46607 0.17806 0.0
C2495 C 0.04347 0.45802 0.17185 0.0
C2496 C 0.01382 0.44304 0.23513 0.0
C2497 C 0.03748 0.44267 0.19955 0.0
C2498 C 0.98853 0.41795 0.27197 0.0
C2499 C 0.97807 0.4378 0.32568 0.0
N2500 N 0.02282 0.43551 0.2295 0.0
N2501 N 0.99252 0.44435 0.29504 0.0
H2502 H 0.5564 0.59292 0.157 0.0
H2503 H 0.59634 0.5519 0.26516 0.0
H2504 H 0.51457 0.54483 0.13957 0.0
H2505 H 0.54793 0.51651 0.32564 0.0
H2506 H 0.58463 0.56512 0.20081 0.0
H2507 H 0.57185 0.58095 0.20252 0.0
C2508 C 0.55067 0.57981 0.16136 0.0
C2509 C 0.53447 0.56973 0.14263 0.0
C2510 C 0.57662 0.55456 0.22867 0.0
C2511 C 0.55177 0.55601 0.19511 0.0
C2512 C 0.58327 0.54703 0.26498 0.0
C2513 C 0.57306 0.5336 0.30232 0.0
C2514 C 0.55965 0.54825 0.229 0.0
C2515 C 0.55619 0.52725 0.29909 0.0
C2516 C 0.55947 0.57298 0.18683 0.0
C2517 C 0.52725 0.55289 0.15141 0.0
N2518 N 0.55 0.53466 0.26322 0.0
N2519 N 0.53592 0.54655 0.1775 0.0
H2520 H 0.40105 0.96145 0.19945 0.0
H2521 H 0.48482 0.03184 0.33709 0.0
H2522 H 0.44765 0.96675 0.15152 0.0
H2523 H 0.44414 0.03945 0.30743 0.0
H2524 H 0.46993 0.00556 0.28338 0.0
H2525 H 0.41524 0.98795 0.25391 0.0
C2526 C 0.41425 0.96831 0.20005 0.0
C2527 C 0.4233 0.96235 0.16952 0.0
C2528 C 0.46422 0.01293 0.28881 0.0
C2529 C 0.43942 0.992 0.23277 0.0
C2530 C 0.47262 0.02779 0.31987 0.0
C2531 C 0.46539 0.03741 0.32808 0.0
C2532 C 0.44847 0.0077 0.26595 0.0
C2533 C 0.44986 0.03207 0.30304 0.0
C2534 C 0.4223 0.98333 0.23088 0.0
C2535 C 0.44033 0.97129 0.17296 0.0
N2536 N 0.44176 0.01739 0.27361 0.0
N2537 N 0.44786 0.98568 0.2041 0.0
H2538 H 0.60179 0.03651 0.79847 0.0
H2539 H 0.51769 0.96611 0.66244 0.0
H2540 H 0.55535 0.03218 0.84177 0.0
H2541 H 0.5586 0.95875 0.69011 0.0
H2542 H 0.53259 0.99239 0.71587 0.0
H2543 H 0.58745 0.00983 0.74539 0.0
C2544 C 0.58858 0.02982 0.79713 0.0
C2545 C 0.57962 0.03609 0.82599 0.0
C2546 C 0.53835 0.98507 0.71017 0.0
C2547 C 0.56334 0.00624 0.76447 0.0
C2548 C 0.52993 0.9702 0.67929 0.0
C2549 C 0.53724 0.96068 0.67045 0.0
C2550 C 0.55419 0.99041 0.73221 0.0
C2551 C 0.55282 0.96607 0.69499 0.0
C2552 C 0.58045 0.0147 0.76711 0.0
C2553 C 0.5626 0.0274 0.82162 0.0
N2554 N 0.56094 0.98077 0.72423 0.0
N2555 N 0.55499 0.01288 0.79142 0.0
H2556 H 0.04176 0.59645 0.68787 0.0
H2557 H 0.97067 0.51723 0.84992 0.0
H2558 H 0.03485 0.54838 0.65968 0.0
H2559 H 0.96402 0.5577 0.80222 0.0
H2560 H 0.99678 0.53037 0.7946 0.0
H2561 H 0.01545 0.58426 0.74377 0.0
C2562 C 0.03457 0.58333 0.69298 0.0
C2563 C 0.04003 0.57327 0.66767 0.0
C2564 C 0.98966 0.53643 0.79641 0.0
C2565 C 0.01063 0.55945 0.73277 0.0
C2566 C 0.9749 0.52903 0.8284 0.0
C2567 C 0.96557 0.5367 0.83184 0.0
C2568 C 0.9951 0.55159 0.76763 0.0
C2569 C 0.97116 0.55166 0.80145 0.0
C2570 C 0.01966 0.57642 0.72467 0.0
C2571 C 0.0307 0.55643 0.67696 0.0
N2572 N 0.98574 0.55878 0.77098 0.0
N2573 N 0.01644 0.55003 0.7089 0.0
H2574 H 0.43483 0.48288 0.71581 0.0
H2575 H 0.46365 0.44692 0.91701 0.0
H2576 H 0.3886 0.43827 0.72374 0.0
H2577 H 0.42903 0.40214 0.82674 0.0
H2578 H 0.44966 0.4603 0.87263 0.0
H2579 H 0.44703 0.47025 0.77796 0.0
C2580 C 0.42726 0.47038 0.73113 0.0
C2581 C 0.41085 0.46141 0.71384 0.0
C2582 C 0.4451 0.44756 0.86224 0.0
C2583 C 0.42448 0.44702 0.78719 0.0
C2584 C 0.45288 0.43986 0.88859 0.0
C2585 C 0.44714 0.42335 0.87676 0.0
C2586 C 0.43179 0.4388 0.82196 0.0
C2587 C 0.43359 0.41486 0.83757 0.0
C2588 C 0.43414 0.46324 0.76749 0.0
C2589 C 0.40139 0.44541 0.73569 0.0
N2590 N 0.42629 0.42269 0.81147 0.0
N2591 N 0.40844 0.43855 0.7706 0.0
loop_
_geom_bond_atom_site_label_1
_geom_bond_atom_site_label_2
_geom_bond_distance
_geom_bond_site_symmetry_2
_ccdc_geom_bond_type
Mn0 O5 2.095 . S
Mn0 O15 2.162 1_554 S
Mn0 O16 2.297 1_554 S
Mn0 O24 2.385 1_554 S
Mn0 O25 2.209 . S
Mn0 O26 2.094 . S
Mn1 O6 2.121 . S
Mn1 N8 2.257 . S
Mn1 N17 2.282 . S
Mn1 O25 2.215 . S
Mn1 O27 2.117 . S
C2 O24 1.234 1_554 S
C2 O25 1.283 . S
C3 O15 1.281 . S
C3 O16 1.236 . S
C4 O26 1.240 . S
C4 O27 1.264 . S
O5 Mn0 2.095 . S
O5 C14 1.250 . S
O6 Mn1 2.121 . S
O6 C14 1.258 . S
C7 N8 1.326 . S
C7 C11 1.460 . S
C7 H13 0.929 . S
N8 Mn1 2.257 . S
N8 C7 1.326 . S
N8 C12 1.362 . S
C9 C10 1.258 . S
C9 C12 1.431 . S
C9 C29 1.449 . S
C10 C9 1.258 . S
C10 C11 1.477 . S
C10 H30 0.931 . S
C11 C7 1.460 . S
C11 C10 1.477 . S
C11 H31 0.930 . S
C12 N8 1.362 . S
C12 C9 1.431 . S
C12 C22 1.476 . S
H13 C7 0.929 . S
C14 O5 1.250 . S
C14 O6 1.258 . S
O15 Mn0 2.162 1_556 S
O15 C3 1.281 . S
O16 Mn0 2.297 1_556 S
O16 C3 1.236 . S
N17 Mn1 2.282 . S
N17 C18 1.328 . S
N17 C22 1.318 . S
C18 N17 1.328 . S
C18 C19 1.457 . S
C18 H23 0.929 . S
C19 C18 1.457 . S
C19 C20 1.291 . S
C19 H32 0.931 . S
C20 C19 1.291 . S
C20 C21 1.373 . S
C20 H33 0.929 . S
C21 C20 1.373 . S
C21 C22 1.396 . S
C21 C28 1.403 . S
C22 C12 1.476 . S
C22 N17 1.318 . S
C22 C21 1.396 . S
H23 C18 0.929 . S
O24 Mn0 2.385 1_556 S
O24 C2 1.234 1_556 S
O25 Mn0 2.209 . S
O25 Mn1 2.215 . S
O25 C2 1.283 . S
O26 Mn0 2.094 . S
O26 C4 1.240 . S
O27 Mn1 2.117 . S
O27 C4 1.264 . S
C28 C21 1.403 . S
C28 C29 1.399 . S
C28 H34 0.929 . S
C29 C9 1.449 . S
C29 C28 1.399 . S
C29 H35 0.930 . S
H30 C10 0.931 . S
H31 C11 0.930 . S
H32 C19 0.931 . S
H33 C20 0.929 . S
H34 C28 0.929 . S
H35 C29 0.930 . S
Mn36 O41 2.095 . S
Mn36 O51 2.162 1_554 S
Mn36 O52 2.297 1_554 S
Mn36 O60 2.385 1_554 S
Mn36 O61 2.209 . S
Mn36 O62 2.094 . S
Mn37 O42 2.121 . S
Mn37 N44 2.257 . S
Mn37 N53 2.282 . S
Mn37 O61 2.215 . S
Mn37 O63 2.117 . S
C38 O60 1.234 1_554 S
C38 O61 1.283 . S
C39 O51 1.281 . S
C39 O52 1.236 . S
C40 O62 1.240 . S
C40 O63 1.264 . S
O41 Mn36 2.095 . S
O41 C50 1.250 . S
O42 Mn37 2.121 . S
O42 C50 1.258 . S
C43 N44 1.326 . S
C43 C47 1.460 . S
C43 H49 0.929 . S
N44 Mn37 2.257 . S
N44 C43 1.326 . S
N44 C48 1.362 . S
C45 C46 1.258 . S
C45 C48 1.431 . S
C45 C65 1.449 . S
C46 C45 1.258 . S
C46 C47 1.477 . S
C46 H66 0.931 . S
C47 C43 1.460 . S
C47 C46 1.477 . S
C47 H67 0.930 . S
C48 N44 1.362 . S
C48 C45 1.431 . S
C48 C58 1.476 . S
H49 C43 0.929 . S
C50 O41 1.250 . S
C50 O42 1.258 . S
O51 Mn36 2.162 1_556 S
O51 C39 1.281 . S
O52 Mn36 2.297 1_556 S
O52 C39 1.236 . S
N53 Mn37 2.282 . S
N53 C54 1.328 . S
N53 C58 1.318 . S
C54 N53 1.328 . S
C54 C55 1.457 . S
C54 H59 0.929 . S
C55 C54 1.457 . S
C55 C56 1.291 . S
C55 H68 0.931 . S
C56 C55 1.291 . S
C56 C57 1.373 . S
C56 H69 0.929 . S
C57 C56 1.373 . S
C57 C58 1.396 . S
C57 C64 1.403 . S
C58 C48 1.476 . S
C58 N53 1.318 . S
C58 C57 1.396 . S
H59 C54 0.929 . S
O60 Mn36 2.385 1_556 S
O60 C38 1.234 1_556 S
O61 Mn36 2.209 . S
O61 Mn37 2.215 . S
O61 C38 1.283 . S
O62 Mn36 2.094 . S
O62 C40 1.240 . S
O63 Mn37 2.117 . S
O63 C40 1.264 . S
C64 C57 1.403 . S
C64 C65 1.399 . S
C64 H70 0.929 . S
C65 C45 1.449 . S
C65 C64 1.399 . S
C65 H71 0.930 . S
H66 C46 0.931 . S
H67 C47 0.930 . S
H68 C55 0.931 . S
H69 C56 0.929 . S
H70 C64 0.929 . S
H71 C65 0.930 . S
Mn72 O77 2.095 . S
Mn72 O87 2.162 1_554 S
Mn72 O88 2.297 1_554 S
Mn72 O96 2.385 1_554 S
Mn72 O97 2.209 . S
Mn72 O98 2.094 . S
Mn73 O78 2.121 . S
Mn73 N80 2.257 . S
Mn73 N89 2.282 . S
Mn73 O97 2.215 . S
Mn73 O99 2.117 . S
C74 O96 1.234 1_554 S
C74 O97 1.283 . S
C75 O87 1.281 . S
C75 O88 1.236 . S
C76 O98 1.240 . S
C76 O99 1.264 . S
O77 Mn72 2.095 . S
O77 C86 1.250 . S
O78 Mn73 2.121 . S
O78 C86 1.258 . S
C79 N80 1.326 . S
C79 C83 1.460 . S
C79 H85 0.929 . S
N80 Mn73 2.257 . S
N80 C79 1.326 . S
N80 C84 1.362 . S
C81 C82 1.258 . S
C81 C84 1.431 . S
C81 C101 1.449 . S
C82 C81 1.258 . S
C82 C83 1.477 . S
C82 H102 0.931 . S
C83 C79 1.460 . S
C83 C82 1.477 . S
C83 H103 0.930 . S
C84 N80 1.362 . S
C84 C81 1.431 . S
C84 C94 1.476 . S
H85 C79 0.929 . S
C86 O77 1.250 . S
C86 O78 1.258 . S
O87 Mn72 2.162 1_556 S
O87 C75 1.281 . S
O88 Mn72 2.297 1_556 S
O88 C75 1.236 . S
N89 Mn73 2.282 . S
N89 C90 1.328 . S
N89 C94 1.318 . S
C90 N89 1.328 . S
C90 C91 1.457 . S
C90 H95 0.929 . S
C91 C90 1.457 . S
C91 C92 1.291 . S
C91 H104 0.931 . S
C92 C91 1.291 . S
C92 C93 1.373 . S
C92 H105 0.929 . S
C93 C92 1.373 . S
C93 C94 1.396 . S
C93 C100 1.403 . S
C94 C84 1.476 . S
C94 N89 1.318 . S
C94 C93 1.396 . S
H95 C90 0.929 . S
O96 Mn72 2.385 1_556 S
O96 C74 1.234 1_556 S
O97 Mn72 2.209 . S
O97 Mn73 2.215 . S
O97 C74 1.283 . S
O98 Mn72 2.094 . S
O98 C76 1.240 . S
O99 Mn73 2.117 . S
O99 C76 1.264 . S
C100 C93 1.403 . S
C100 C101 1.399 . S
C100 H106 0.929 . S
C101 C81 1.449 . S
C101 C100 1.399 . S
C101 H107 0.930 . S
H102 C82 0.931 . S
H103 C83 0.930 . S
H104 C91 0.931 . S
H105 C92 0.929 . S
H106 C100 0.929 . S
H107 C101 0.930 . S
Mn108 O113 2.095 . S
Mn108 O123 2.162 . S
Mn108 O124 2.297 . S
Mn108 O132 2.385 . S
Mn108 O133 2.209 . S
Mn108 O134 2.094 . S
Mn109 O114 2.121 . S
Mn109 N116 2.257 . S
Mn109 N125 2.282 . S
Mn109 O133 2.215 . S
Mn109 O135 2.117 . S
C110 O132 1.234 . S
C110 O133 1.283 . S
C111 O123 1.281 . S
C111 O124 1.236 . S
C112 O134 1.240 . S
C112 O135 1.264 . S
O113 Mn108 2.095 . S
O113 C122 1.250 . S
O114 Mn109 2.121 . S
O114 C122 1.258 . S
C115 N116 1.326 . S
C115 C119 1.460 . S
C115 H121 0.929 . S
N116 Mn109 2.257 . S
N116 C115 1.326 . S
N116 C120 1.362 . S
C117 C118 1.258 . S
C117 C120 1.431 . S
C117 C137 1.449 . S
C118 C117 1.258 . S
C118 C119 1.477 . S
C118 H138 0.931 . S
C119 C115 1.460 . S
C119 C118 1.477 . S
C119 H139 0.930 . S
C120 N116 1.362 . S
C120 C117 1.431 . S
C120 C130 1.476 . S
H121 C115 0.929 . S
C122 O113 1.250 . S
C122 O114 1.258 . S
O123 Mn108 2.162 . S
O123 C111 1.281 . S
O124 Mn108 2.297 . S
O124 C111 1.236 . S
N125 Mn109 2.282 . S
N125 C126 1.328 . S
N125 C130 1.318 . S
C126 N125 1.328 . S
C126 C127 1.457 . S
C126 H131 0.929 . S
C127 C126 1.457 . S
C127 C128 1.291 . S
C127 H140 0.931 . S
C128 C127 1.291 . S
C128 C129 1.373 . S
C128 H141 0.929 . S
C129 C128 1.373 . S
C129 C130 1.396 . S
C129 C136 1.403 . S
C130 C120 1.476 . S
C130 N125 1.318 . S
C130 C129 1.396 . S
H131 C126 0.929 . S
O132 Mn108 2.385 . S
O132 C110 1.234 . S
O133 Mn108 2.209 . S
O133 Mn109 2.215 . S
O133 C110 1.283 . S
O134 Mn108 2.094 . S
O134 C112 1.240 . S
O135 Mn109 2.117 . S
O135 C112 1.264 . S
C136 C129 1.403 . S
C136 C137 1.399 . S
C136 H142 0.929 . S
C137 C117 1.449 . S
C137 C136 1.399 . S
C137 H143 0.930 . S
H138 C118 0.931 . S
H139 C119 0.930 . S
H140 C127 0.931 . S
H141 C128 0.929 . S
H142 C136 0.929 . S
H143 C137 0.930 . S
Mn144 O149 2.095 . S
Mn144 O159 2.162 . S
Mn144 O160 2.297 . S
Mn144 O168 2.385 . S
Mn144 O169 2.209 . S
Mn144 O170 2.094 . S
Mn145 O150 2.121 . S
Mn145 N152 2.257 . S
Mn145 N161 2.282 . S
Mn145 O169 2.215 . S
Mn145 O171 2.117 . S
C146 O168 1.234 . S
C146 O169 1.283 . S
C147 O159 1.281 . S
C147 O160 1.236 . S
C148 O170 1.240 . S
C148 O171 1.264 . S
O149 Mn144 2.095 . S
O149 C158 1.250 . S
O150 Mn145 2.121 . S
O150 C158 1.258 . S
C151 N152 1.326 . S
C151 C155 1.460 . S
C151 H157 0.929 . S
N152 Mn145 2.257 . S
N152 C151 1.326 . S
N152 C156 1.362 . S
C153 C154 1.258 . S
C153 C156 1.431 . S
C153 C173 1.449 . S
C154 C153 1.258 . S
C154 C155 1.477 . S
C154 H174 0.931 . S
C155 C151 1.460 . S
C155 C154 1.477 . S
C155 H175 0.930 . S
C156 N152 1.362 . S
C156 C153 1.431 . S
C156 C166 1.476 . S
H157 C151 0.929 . S
C158 O149 1.250 . S
C158 O150 1.258 . S
O159 Mn144 2.162 . S
O159 C147 1.281 . S
O160 Mn144 2.297 . S
O160 C147 1.236 . S
N161 Mn145 2.282 . S
N161 C162 1.328 . S
N161 C166 1.318 . S
C162 N161 1.328 . S
C162 C163 1.457 . S
C162 H167 0.929 . S
C163 C162 1.457 . S
C163 C164 1.291 . S
C163 H176 0.931 . S
C164 C163 1.291 . S
C164 C165 1.373 . S
C164 H177 0.929 . S
C165 C164 1.373 . S
C165 C166 1.396 . S
C165 C172 1.403 . S
C166 C156 1.476 . S
C166 N161 1.318 . S
C166 C165 1.396 . S
H167 C162 0.929 . S
O168 Mn144 2.385 . S
O168 C146 1.234 . S
O169 Mn144 2.209 . S
O169 Mn145 2.215 . S
O169 C146 1.283 . S
O170 Mn144 2.094 . S
O170 C148 1.240 . S
O171 Mn145 2.117 . S
O171 C148 1.264 . S
C172 C165 1.403 . S
C172 C173 1.399 . S
C172 H178 0.929 . S
C173 C153 1.449 . S
C173 C172 1.399 . S
C173 H179 0.930 . S
H174 C154 0.931 . S
H175 C155 0.930 . S
H176 C163 0.931 . S
H177 C164 0.929 . S
H178 C172 0.929 . S
H179 C173 0.930 . S
Mn180 O185 2.095 . S
Mn180 O195 2.162 . S
Mn180 O196 2.297 . S
Mn180 O204 2.385 . S
Mn180 O205 2.209 . S
Mn180 O206 2.094 . S
Mn181 O186 2.121 . S
Mn181 N188 2.257 . S
Mn181 N197 2.282 . S
Mn181 O205 2.215 . S
Mn181 O207 2.117 . S
C182 O204 1.234 . S
C182 O205 1.283 . S
C183 O195 1.281 . S
C183 O196 1.236 . S
C184 O206 1.240 . S
C184 O207 1.264 . S
O185 Mn180 2.095 . S
O185 C194 1.250 . S
O186 Mn181 2.121 . S
O186 C194 1.258 . S
C187 N188 1.326 . S
C187 C191 1.460 . S
C187 H193 0.929 . S
N188 Mn181 2.257 . S
N188 C187 1.326 . S
N188 C192 1.362 . S
C189 C190 1.258 . S
C189 C192 1.431 . S
C189 C209 1.449 . S
C190 C189 1.258 . S
C190 C191 1.477 . S
C190 H210 0.931 . S
C191 C187 1.460 . S
C191 C190 1.477 . S
C191 H211 0.930 . S
C192 N188 1.362 . S
C192 C189 1.431 . S
C192 C202 1.476 . S
H193 C187 0.929 . S
C194 O185 1.250 . S
C194 O186 1.258 . S
O195 Mn180 2.162 . S
O195 C183 1.281 . S
O196 Mn180 2.297 . S
O196 C183 1.236 . S
N197 Mn181 2.282 . S
N197 C198 1.328 . S
N197 C202 1.318 . S
C198 N197 1.328 . S
C198 C199 1.457 . S
C198 H203 0.929 . S
C199 C198 1.457 . S
C199 C200 1.291 . S
C199 H212 0.931 . S
C200 C199 1.291 . S
C200 C201 1.373 . S
C200 H213 0.929 . S
C201 C200 1.373 . S
C201 C202 1.396 . S
C201 C208 1.403 . S
C202 C192 1.476 . S
C202 N197 1.318 . S
C202 C201 1.396 . S
H203 C198 0.929 . S
O204 Mn180 2.385 . S
O204 C182 1.234 . S
O205 Mn180 2.209 . S
O205 Mn181 2.215 . S
O205 C182 1.283 . S
O206 Mn180 2.094 . S
O206 C184 1.240 . S
O207 Mn181 2.117 . S
O207 C184 1.264 . S
C208 C201 1.403 . S
C208 C209 1.399 . S
C208 H214 0.929 . S
C209 C189 1.449 . S
C209 C208 1.399 . S
C209 H215 0.930 . S
H210 C190 0.931 . S
H211 C191 0.930 . S
H212 C199 0.931 . S
H213 C200 0.929 . S
H214 C208 0.929 . S
H215 C209 0.930 . S
Mn216 O221 2.095 . S
Mn216 O231 2.162 1_556 S
Mn216 O232 2.297 1_556 S
Mn216 O240 2.385 1_556 S
Mn216 O241 2.209 . S
Mn216 O242 2.094 . S
Mn217 O222 2.121 . S
Mn217 N224 2.257 . S
Mn217 N233 2.282 . S
Mn217 O241 2.215 . S
Mn217 O243 2.117 . S
C218 O240 1.234 1_556 S
C218 O241 1.283 . S
C219 O231 1.281 . S
C219 O232 1.236 . S
C220 O242 1.240 . S
C220 O243 1.264 . S
O221 Mn216 2.095 . S
O221 C230 1.250 . S
O222 Mn217 2.121 . S
O222 C230 1.258 . S
C223 N224 1.326 . S
C223 C227 1.460 . S
C223 H229 0.929 . S
N224 Mn217 2.257 . S
N224 C223 1.326 . S
N224 C228 1.362 . S
C225 C226 1.258 . S
C225 C228 1.431 . S
C225 C245 1.449 . S
C226 C225 1.258 . S
C226 C227 1.477 . S
C226 H246 0.931 . S
C227 C223 1.460 . S
C227 C226 1.477 . S
C227 H247 0.930 . S
C228 N224 1.362 . S
C228 C225 1.431 . S
C228 C238 1.476 . S
H229 C223 0.929 . S
C230 O221 1.250 . S
C230 O222 1.258 . S
O231 Mn216 2.162 1_554 S
O231 C219 1.281 . S
O232 Mn216 2.297 1_554 S
O232 C219 1.236 . S
N233 Mn217 2.282 . S
N233 C234 1.328 . S
N233 C238 1.318 . S
C234 N233 1.328 . S
C234 C235 1.457 . S
C234 H239 0.929 . S
C235 C234 1.457 . S
C235 C236 1.291 . S
C235 H248 0.931 . S
C236 C235 1.291 . S
C236 C237 1.373 . S
C236 H249 0.929 . S
C237 C236 1.373 . S
C237 C238 1.396 . S
C237 C244 1.403 . S
C238 C228 1.476 . S
C238 N233 1.318 . S
C238 C237 1.396 . S
H239 C234 0.929 . S
O240 Mn216 2.385 1_554 S
O240 C218 1.234 1_554 S
O241 Mn216 2.209 . S
O241 Mn217 2.215 . S
O241 C218 1.283 . S
O242 Mn216 2.094 . S
O242 C220 1.240 . S
O243 Mn217 2.117 . S
O243 C220 1.264 . S
C244 C237 1.403 . S
C244 C245 1.399 . S
C244 H250 0.929 . S
C245 C225 1.449 . S
C245 C244 1.399 . S
C245 H251 0.930 . S
H246 C226 0.931 . S
H247 C227 0.930 . S
H248 C235 0.931 . S
H249 C236 0.929 . S
H250 C244 0.929 . S
H251 C245 0.930 . S
Mn252 O257 2.095 . S
Mn252 O267 2.162 1_556 S
Mn252 O268 2.297 1_556 S
Mn252 O276 2.385 1_556 S
Mn252 O277 2.209 . S
Mn252 O278 2.094 . S
Mn253 O258 2.121 . S
Mn253 N260 2.257 . S
Mn253 N269 2.282 . S
Mn253 O277 2.215 . S
Mn253 O279 2.117 . S
C254 O276 1.234 1_556 S
C254 O277 1.283 . S
C255 O267 1.281 . S
C255 O268 1.236 . S
C256 O278 1.240 . S
C256 O279 1.264 . S
O257 Mn252 2.095 . S
O257 C266 1.250 . S
O258 Mn253 2.121 . S
O258 C266 1.258 . S
C259 N260 1.326 . S
C259 C263 1.460 . S
C259 H265 0.929 . S
N260 Mn253 2.257 . S
N260 C259 1.326 . S
N260 C264 1.362 . S
C261 C262 1.258 . S
C261 C264 1.431 . S
C261 C281 1.449 . S
C262 C261 1.258 . S
C262 C263 1.477 . S
C262 H282 0.931 . S
C263 C259 1.460 . S
C263 C262 1.477 . S
C263 H283 0.930 . S
C264 N260 1.362 . S
C264 C261 1.431 . S
C264 C274 1.476 . S
H265 C259 0.929 . S
C266 O257 1.250 . S
C266 O258 1.258 . S
O267 Mn252 2.162 1_554 S
O267 C255 1.281 . S
O268 Mn252 2.297 1_554 S
O268 C255 1.236 . S
N269 Mn253 2.282 . S
N269 C270 1.328 . S
N269 C274 1.318 . S
C270 N269 1.328 . S
C270 C271 1.457 . S
C270 H275 0.929 . S
C271 C270 1.457 . S
C271 C272 1.291 . S
C271 H284 0.931 . S
C272 C271 1.291 . S
C272 C273 1.373 . S
C272 H285 0.929 . S
C273 C272 1.373 . S
C273 C274 1.396 . S
C273 C280 1.403 . S
C274 C264 1.476 . S
C274 N269 1.318 . S
C274 C273 1.396 . S
H275 C270 0.929 . S
O276 Mn252 2.385 1_554 S
O276 C254 1.234 1_554 S
O277 Mn252 2.209 . S
O277 Mn253 2.215 . S
O277 C254 1.283 . S
O278 Mn252 2.094 . S
O278 C256 1.240 . S
O279 Mn253 2.117 . S
O279 C256 1.264 . S
C280 C273 1.403 . S
C280 C281 1.399 . S
C280 H286 0.929 . S
C281 C261 1.449 . S
C281 C280 1.399 . S
C281 H287 0.930 . S
H282 C262 0.931 . S
H283 C263 0.930 . S
H284 C271 0.931 . S
H285 C272 0.929 . S
H286 C280 0.929 . S
H287 C281 0.930 . S
Mn288 O293 2.095 . S
Mn288 O303 2.162 1_556 S
Mn288 O304 2.297 1_556 S
Mn288 O312 2.385 1_556 S
Mn288 O313 2.209 . S
Mn288 O314 2.094 . S
Mn289 O294 2.121 . S
Mn289 N296 2.257 . S
Mn289 N305 2.282 . S
Mn289 O313 2.215 . S
Mn289 O315 2.117 . S
C290 O312 1.234 1_556 S
C290 O313 1.283 . S
C291 O303 1.281 . S
C291 O304 1.236 . S
C292 O314 1.240 . S
C292 O315 1.264 . S
O293 Mn288 2.095 . S
O293 C302 1.250 . S
O294 Mn289 2.121 . S
O294 C302 1.258 . S
C295 N296 1.326 . S
C295 C299 1.460 . S
C295 H301 0.929 . S
N296 Mn289 2.257 . S
N296 C295 1.326 . S
N296 C300 1.362 . S
C297 C298 1.258 . S
C297 C300 1.431 . S
C297 C317 1.449 . S
C298 C297 1.258 . S
C298 C299 1.477 . S
C298 H318 0.931 . S
C299 C295 1.460 . S
C299 C298 1.477 . S
C299 H319 0.930 . S
C300 N296 1.362 . S
C300 C297 1.431 . S
C300 C310 1.476 . S
H301 C295 0.929 . S
C302 O293 1.250 . S
C302 O294 1.258 . S
O303 Mn288 2.162 1_554 S
O303 C291 1.281 . S
O304 Mn288 2.297 1_554 S
O304 C291 1.236 . S
N305 Mn289 2.282 . S
N305 C306 1.328 . S
N305 C310 1.318 . S
C306 N305 1.328 . S
C306 C307 1.457 . S
C306 H311 0.929 . S
C307 C306 1.457 . S
C307 C308 1.291 . S
C307 H320 0.931 . S
C308 C307 1.291 . S
C308 C309 1.373 . S
C308 H321 0.929 . S
C309 C308 1.373 . S
C309 C310 1.396 . S
C309 C316 1.403 . S
C310 C300 1.476 . S
C310 N305 1.318 . S
C310 C309 1.396 . S
H311 C306 0.929 . S
O312 Mn288 2.385 1_554 S
O312 C290 1.234 1_554 S
O313 Mn288 2.209 . S
O313 Mn289 2.215 . S
O313 C290 1.283 . S
O314 Mn288 2.094 . S
O314 C292 1.240 . S
O315 Mn289 2.117 . S
O315 C292 1.264 . S
C316 C309 1.403 . S
C316 C317 1.399 . S
C316 H322 0.929 . S
C317 C297 1.449 . S
C317 C316 1.399 . S
C317 H323 0.930 . S
H318 C298 0.931 . S
H319 C299 0.930 . S
H320 C307 0.931 . S
H321 C308 0.929 . S
H322 C316 0.929 . S
H323 C317 0.930 . S
Mn324 O329 2.095 . S
Mn324 O339 2.162 . S
Mn324 O340 2.297 . S
Mn324 O348 2.385 . S
Mn324 O349 2.209 . S
Mn324 O350 2.094 . S
Mn325 O330 2.121 . S
Mn325 N332 2.257 . S
Mn325 N341 2.282 . S
Mn325 O349 2.215 . S
Mn325 O351 2.117 . S
C326 O348 1.234 . S
C326 O349 1.283 . S
C327 O339 1.281 . S
C327 O340 1.236 . S
C328 O350 1.240 . S
C328 O351 1.264 . S
O329 Mn324 2.095 . S
O329 C338 1.250 . S
O330 Mn325 2.121 . S
O330 C338 1.258 . S
C331 N332 1.326 . S
C331 C335 1.460 . S
C331 H337 0.929 . S
N332 Mn325 2.257 . S
N332 C331 1.326 . S
N332 C336 1.362 . S
C333 C334 1.258 . S
C333 C336 1.431 . S
C333 C353 1.449 . S
C334 C333 1.258 . S
C334 C335 1.477 . S
C334 H354 0.931 . S
C335 C331 1.460 . S
C335 C334 1.477 . S
C335 H355 0.930 . S
C336 N332 1.362 . S
C336 C333 1.431 . S
C336 C346 1.476 . S
H337 C331 0.929 . S
C338 O329 1.250 . S
C338 O330 1.258 . S
O339 Mn324 2.162 . S
O339 C327 1.281 . S
O340 Mn324 2.297 . S
O340 C327 1.236 . S
N341 Mn325 2.282 . S
N341 C342 1.328 . S
N341 C346 1.318 . S
C342 N341 1.328 . S
C342 C343 1.457 . S
C342 H347 0.929 . S
C343 C342 1.457 . S
C343 C344 1.291 . S
C343 H356 0.931 . S
C344 C343 1.291 . S
C344 C345 1.373 . S
C344 H357 0.929 . S
C345 C344 1.373 . S
C345 C346 1.396 . S
C345 C352 1.403 . S
C346 C336 1.476 . S
C346 N341 1.318 . S
C346 C345 1.396 . S
H347 C342 0.929 . S
O348 Mn324 2.385 . S
O348 C326 1.234 . S
O349 Mn324 2.209 . S
O349 Mn325 2.215 . S
O349 C326 1.283 . S
O350 Mn324 2.094 . S
O350 C328 1.240 . S
O351 Mn325 2.117 . S
O351 C328 1.264 . S
C352 C345 1.403 . S
C352 C353 1.399 . S
C352 H358 0.929 . S
C353 C333 1.449 . S
C353 C352 1.399 . S
C353 H359 0.930 . S
H354 C334 0.931 . S
H355 C335 0.930 . S
H356 C343 0.931 . S
H357 C344 0.929 . S
H358 C352 0.929 . S
H359 C353 0.930 . S
Mn360 O365 2.095 . S
Mn360 O375 2.162 . S
Mn360 O376 2.297 . S
Mn360 O384 2.385 . S
Mn360 O385 2.209 . S
Mn360 O386 2.094 . S
Mn361 O366 2.121 . S
Mn361 N368 2.257 . S
Mn361 N377 2.282 . S
Mn361 O385 2.215 . S
Mn361 O387 2.117 . S
C362 O384 1.234 . S
C362 O385 1.283 . S
C363 O375 1.281 . S
C363 O376 1.236 . S
C364 O386 1.240 . S
C364 O387 1.264 . S
O365 Mn360 2.095 . S
O365 C374 1.250 . S
O366 Mn361 2.121 . S
O366 C374 1.258 . S
C367 N368 1.326 . S
C367 C371 1.460 . S
C367 H373 0.929 . S
N368 Mn361 2.257 . S
N368 C367 1.326 . S
N368 C372 1.362 . S
C369 C370 1.258 . S
C369 C372 1.431 . S
C369 C389 1.449 . S
C370 C369 1.258 . S
C370 C371 1.477 . S
C370 H390 0.931 . S
C371 C367 1.460 . S
C371 C370 1.477 . S
C371 H391 0.930 . S
C372 N368 1.362 . S
C372 C369 1.431 . S
C372 C382 1.476 . S
H373 C367 0.929 . S
C374 O365 1.250 . S
C374 O366 1.258 . S
O375 Mn360 2.162 . S
O375 C363 1.281 . S
O376 Mn360 2.297 . S
O376 C363 1.236 . S
N377 Mn361 2.282 . S
N377 C378 1.328 . S
N377 C382 1.318 . S
C378 N377 1.328 . S
C378 C379 1.457 . S
C378 H383 0.929 . S
C379 C378 1.457 . S
C379 C380 1.291 . S
C379 H392 0.931 . S
C380 C379 1.291 . S
C380 C381 1.373 . S
C380 H393 0.929 . S
C381 C380 1.373 . S
C381 C382 1.396 . S
C381 C388 1.403 . S
C382 C372 1.476 . S
C382 N377 1.318 . S
C382 C381 1.396 . S
H383 C378 0.929 . S
O384 Mn360 2.385 . S
O384 C362 1.234 . S
O385 Mn360 2.209 . S
O385 Mn361 2.215 . S
O385 C362 1.283 . S
O386 Mn360 2.094 . S
O386 C364 1.240 . S
O387 Mn361 2.117 . S
O387 C364 1.264 . S
C388 C381 1.403 . S
C388 C389 1.399 . S
C388 H394 0.929 . S
C389 C369 1.449 . S
C389 C388 1.399 . S
C389 H395 0.930 . S
H390 C370 0.931 . S
H391 C371 0.930 . S
H392 C379 0.931 . S
H393 C380 0.929 . S
H394 C388 0.929 . S
H395 C389 0.930 . S
Mn396 O401 2.095 . S
Mn396 O411 2.162 . S
Mn396 O412 2.297 . S
Mn396 O420 2.385 . S
Mn396 O421 2.209 . S
Mn396 O422 2.094 . S
Mn397 O402 2.121 . S
Mn397 N404 2.257 . S
Mn397 N413 2.282 . S
Mn397 O421 2.215 . S
Mn397 O423 2.117 . S
C398 O420 1.234 . S
C398 O421 1.283 . S
C399 O411 1.281 . S
C399 O412 1.236 . S
C400 O422 1.240 . S
C400 O423 1.264 . S
O401 Mn396 2.095 . S
O401 C410 1.250 . S
O402 Mn397 2.121 . S
O402 C410 1.258 . S
C403 N404 1.326 . S
C403 C407 1.460 . S
C403 H409 0.929 . S
N404 Mn397 2.257 . S
N404 C403 1.326 . S
N404 C408 1.362 . S
C405 C406 1.258 . S
C405 C408 1.431 . S
C405 C425 1.449 . S
C406 C405 1.258 . S
C406 C407 1.477 . S
C406 H426 0.931 . S
C407 C403 1.460 . S
C407 C406 1.477 . S
C407 H427 0.930 . S
C408 N404 1.362 . S
C408 C405 1.431 . S
C408 C418 1.476 . S
H409 C403 0.929 . S
C410 O401 1.250 . S
C410 O402 1.258 . S
O411 Mn396 2.162 . S
O411 C399 1.281 . S
O412 Mn396 2.297 . S
O412 C399 1.236 . S
N413 Mn397 2.282 . S
N413 C414 1.328 . S
N413 C418 1.318 . S
C414 N413 1.328 . S
C414 C415 1.457 . S
C414 H419 0.929 . S
C415 C414 1.457 . S
C415 C416 1.291 . S
C415 H428 0.931 . S
C416 C415 1.291 . S
C416 C417 1.373 . S
C416 H429 0.929 . S
C417 C416 1.373 . S
C417 C418 1.396 . S
C417 C424 1.403 . S
C418 C408 1.476 . S
C418 N413 1.318 . S
C418 C417 1.396 . S
H419 C414 0.929 . S
O420 Mn396 2.385 . S
O420 C398 1.234 . S
O421 Mn396 2.209 . S
O421 Mn397 2.215 . S
O421 C398 1.283 . S
O422 Mn396 2.094 . S
O422 C400 1.240 . S
O423 Mn397 2.117 . S
O423 C400 1.264 . S
C424 C417 1.403 . S
C424 C425 1.399 . S
C424 H430 0.929 . S
C425 C405 1.449 . S
C425 C424 1.399 . S
C425 H431 0.930 . S
H426 C406 0.931 . S
H427 C407 0.930 . S
H428 C415 0.931 . S
H429 C416 0.929 . S
H430 C424 0.929 . S
H431 C425 0.930 . S
Mn432 O437 2.095 . S
Mn432 O447 2.162 . S
Mn432 O448 2.297 . S
Mn432 O456 2.385 . S
Mn432 O457 2.209 . S
Mn432 O458 2.094 . S
Mn433 O438 2.121 . S
Mn433 N440 2.257 . S
Mn433 N449 2.282 . S
Mn433 O457 2.215 . S
Mn433 O459 2.117 . S
C434 O456 1.234 . S
C434 O457 1.283 . S
C435 O447 1.281 . S
C435 O448 1.236 . S
C436 O458 1.240 . S
C436 O459 1.264 . S
O437 Mn432 2.095 . S
O437 C446 1.250 . S
O438 Mn433 2.121 . S
O438 C446 1.258 . S
C439 N440 1.326 . S
C439 C443 1.460 . S
C439 H445 0.929 . S
N440 Mn433 2.257 . S
N440 C439 1.326 . S
N440 C444 1.362 . S
C441 C442 1.268 1_655 S
C441 C444 1.431 . S
C441 C461 1.449 1_655 S
C442 C441 1.268 1_455 S
C442 C443 1.424 1_455 S
C442 H462 0.975 . S
C443 C439 1.460 . S
C443 C442 1.424 1_655 S
C443 H463 0.930 . S
C444 N440 1.362 . S
C444 C441 1.431 . S
C444 C454 1.476 . S
H445 C439 0.929 . S
C446 O437 1.250 . S
C446 O438 1.258 . S
O447 Mn432 2.162 . S
O447 C435 1.281 . S
O448 Mn432 2.297 . S
O448 C435 1.236 . S
N449 Mn433 2.282 . S
N449 C450 1.328 . S
N449 C454 1.318 . S
C450 N449 1.328 . S
C450 C451 1.457 . S
C450 H455 0.929 . S
C451 C450 1.457 . S
C451 C452 1.291 . S
C451 H464 0.931 . S
C452 C451 1.291 . S
C452 C453 1.373 . S
C452 H465 0.929 . S
C453 C452 1.373 . S
C453 C454 1.396 . S
C453 C460 1.403 1_655 S
C454 C444 1.476 . S
C454 N449 1.318 . S
C454 C453 1.396 . S
H455 C450 0.929 . S
O456 Mn432 2.385 . S
O456 C434 1.234 . S
O457 Mn432 2.209 . S
O457 Mn433 2.215 . S
O457 C434 1.283 . S
O458 Mn432 2.094 . S
O458 C436 1.240 . S
O459 Mn433 2.117 . S
O459 C436 1.264 . S
C460 C453 1.403 1_455 S
C460 C461 1.399 . S
C460 H466 0.929 . S
C461 C441 1.449 1_455 S
C461 C460 1.399 . S
C461 H467 0.930 . S
H462 C442 0.975 . S
H463 C443 0.930 . S
H464 C451 0.931 . S
H465 C452 0.929 . S
H466 C460 0.929 . S
H467 C461 0.930 . S
Mn468 O473 2.095 . S
Mn468 O483 2.162 . S
Mn468 O484 2.297 . S
Mn468 O492 2.385 . S
Mn468 O493 2.209 . S
Mn468 O494 2.094 . S
Mn469 O474 2.121 . S
Mn469 N476 2.257 . S
Mn469 N485 2.282 . S
Mn469 O493 2.215 . S
Mn469 O495 2.117 . S
C470 O492 1.234 . S
C470 O493 1.283 . S
C471 O483 1.281 . S
C471 O484 1.236 . S
C472 O494 1.240 . S
C472 O495 1.264 . S
O473 Mn468 2.095 . S
O473 C482 1.250 . S
O474 Mn469 2.121 . S
O474 C482 1.258 . S
C475 N476 1.326 . S
C475 C479 1.460 . S
C475 H481 0.929 . S
N476 Mn469 2.257 . S
N476 C475 1.326 . S
N476 C480 1.362 . S
C477 C478 1.258 . S
C477 C480 1.431 . S
C477 C497 1.449 . S
C478 C477 1.258 . S
C478 C479 1.477 . S
C478 H498 0.931 . S
C479 C475 1.460 . S
C479 C478 1.477 . S
C479 H499 0.930 . S
C480 N476 1.362 . S
C480 C477 1.431 . S
C480 C490 1.476 . S
H481 C475 0.929 . S
C482 O473 1.250 . S
C482 O474 1.258 . S
O483 Mn468 2.162 . S
O483 C471 1.281 . S
O484 Mn468 2.297 . S
O484 C471 1.236 . S
N485 Mn469 2.282 . S
N485 C486 1.328 . S
N485 C490 1.318 . S
C486 N485 1.328 . S
C486 C487 1.457 . S
C486 H491 0.929 . S
C487 C486 1.457 . S
C487 C488 1.291 . S
C487 H500 0.931 . S
C488 C487 1.291 . S
C488 C489 1.373 . S
C488 H501 0.929 . S
C489 C488 1.373 . S
C489 C490 1.396 . S
C489 C496 1.403 . S
C490 C480 1.476 . S
C490 N485 1.318 . S
C490 C489 1.396 . S
H491 C486 0.929 . S
O492 Mn468 2.385 . S
O492 C470 1.234 . S
O493 Mn468 2.209 . S
O493 Mn469 2.215 . S
O493 C470 1.283 . S
O494 Mn468 2.094 . S
O494 C472 1.240 . S
O495 Mn469 2.117 . S
O495 C472 1.264 . S
C496 C489 1.403 . S
C496 C497 1.399 . S
C496 H502 0.929 . S
C497 C477 1.449 . S
C497 C496 1.399 . S
C497 H503 0.930 . S
H498 C478 0.931 . S
H499 C479 0.930 . S
H500 C487 0.931 . S
H501 C488 0.929 . S
H502 C496 0.929 . S
H503 C497 0.930 . S
Mn504 O509 2.095 . S
Mn504 O519 2.162 . S
Mn504 O520 2.297 . S
Mn504 O528 2.385 . S
Mn504 O529 2.209 . S
Mn504 O530 2.094 . S
Mn505 O510 2.121 . S
Mn505 N512 2.257 . S
Mn505 N521 2.282 . S
Mn505 O529 2.215 . S
Mn505 O531 2.117 . S
C506 O528 1.234 . S
C506 O529 1.283 . S
C507 O519 1.281 . S
C507 O520 1.236 . S
C508 O530 1.240 . S
C508 O531 1.264 . S
O509 Mn504 2.095 . S
O509 C518 1.250 . S
O510 Mn505 2.121 . S
O510 C518 1.258 . S
C511 N512 1.326 . S
C511 C515 1.460 . S
C511 H517 0.929 . S
N512 Mn505 2.257 . S
N512 C511 1.326 . S
N512 C516 1.362 . S
C513 C514 1.219 1_545 S
C513 C516 1.431 . S
C513 C533 1.449 1_545 S
C514 C513 1.219 1_565 S
C514 C515 1.467 1_565 S
C514 H534 0.981 . S
C515 C511 1.460 . S
C515 C514 1.467 1_545 S
C515 H535 0.930 . S
C516 N512 1.362 . S
C516 C513 1.431 . S
C516 C526 1.476 . S
H517 C511 0.929 . S
C518 O509 1.250 . S
C518 O510 1.258 . S
O519 Mn504 2.162 . S
O519 C507 1.281 . S
O520 Mn504 2.297 . S
O520 C507 1.236 . S
N521 Mn505 2.282 . S
N521 C522 1.328 . S
N521 C526 1.318 . S
C522 N521 1.328 . S
C522 C523 1.457 . S
C522 H527 0.929 . S
C523 C522 1.457 . S
C523 C524 1.291 . S
C523 H536 0.931 . S
C524 C523 1.291 . S
C524 C525 1.373 . S
C524 H537 0.929 . S
C525 C524 1.373 . S
C525 C526 1.396 . S
C525 C532 1.403 1_545 S
C526 C516 1.476 . S
C526 N521 1.318 . S
C526 C525 1.396 . S
H527 C522 0.929 . S
O528 Mn504 2.385 . S
O528 C506 1.234 . S
O529 Mn504 2.209 . S
O529 Mn505 2.215 . S
O529 C506 1.283 . S
O530 Mn504 2.094 . S
O530 C508 1.240 . S
O531 Mn505 2.117 . S
O531 C508 1.264 . S
C532 C525 1.403 1_565 S
C532 C533 1.399 . S
C532 H538 0.929 . S
C533 C513 1.449 1_565 S
C533 C532 1.399 . S
C533 H539 0.930 . S
H534 C514 0.981 . S
H535 C515 0.930 . S
H536 C523 0.931 . S
H537 C524 0.929 . S
H538 C532 0.929 . S
H539 C533 0.930 . S
Mn540 O545 2.095 . S
Mn540 O555 2.162 . S
Mn540 O556 2.297 . S
Mn540 O564 2.385 . S
Mn540 O565 2.209 . S
Mn540 O566 2.094 . S
Mn541 O546 2.121 . S
Mn541 N548 2.257 . S
Mn541 N557 2.282 . S
Mn541 O565 2.215 . S
Mn541 O567 2.117 . S
C542 O564 1.234 . S
C542 O565 1.283 . S
C543 O555 1.281 . S
C543 O556 1.236 . S
C544 O566 1.240 . S
C544 O567 1.264 . S
O545 Mn540 2.095 . S
O545 C554 1.250 . S
O546 Mn541 2.121 . S
O546 C554 1.258 . S
C547 N548 1.326 . S
C547 C551 1.460 . S
C547 H553 0.929 . S
N548 Mn541 2.257 . S
N548 C547 1.326 . S
N548 C552 1.362 . S
C549 C550 1.258 . S
C549 C552 1.431 . S
C549 C569 1.449 . S
C550 C549 1.258 . S
C550 C551 1.477 . S
C550 H570 0.931 . S
C551 C547 1.460 . S
C551 C550 1.477 . S
C551 H571 0.930 . S
C552 N548 1.362 . S
C552 C549 1.431 . S
C552 C562 1.476 . S
H553 C547 0.929 . S
C554 O545 1.250 . S
C554 O546 1.258 . S
O555 Mn540 2.162 . S
O555 C543 1.281 . S
O556 Mn540 2.297 . S
O556 C543 1.236 . S
N557 Mn541 2.282 . S
N557 C558 1.328 . S
N557 C562 1.318 . S
C558 N557 1.328 . S
C558 C559 1.457 . S
C558 H563 0.929 . S
C559 C558 1.457 . S
C559 C560 1.291 . S
C559 H572 0.931 . S
C560 C559 1.291 . S
C560 C561 1.373 . S
C560 H573 0.929 . S
C561 C560 1.373 . S
C561 C562 1.396 . S
C561 C568 1.403 . S
C562 C552 1.476 . S
C562 N557 1.318 . S
C562 C561 1.396 . S
H563 C558 0.929 . S
O564 Mn540 2.385 . S
O564 C542 1.234 . S
O565 Mn540 2.209 . S
O565 Mn541 2.215 . S
O565 C542 1.283 . S
O566 Mn540 2.094 . S
O566 C544 1.240 . S
O567 Mn541 2.117 . S
O567 C544 1.264 . S
C568 C561 1.403 . S
C568 C569 1.399 . S
C568 H574 0.929 . S
C569 C549 1.449 . S
C569 C568 1.399 . S
C569 H575 0.930 . S
H570 C550 0.931 . S
H571 C551 0.930 . S
H572 C559 0.931 . S
H573 C560 0.929 . S
H574 C568 0.929 . S
H575 C569 0.930 . S
Mn576 O581 2.095 . S
Mn576 O591 2.162 . S
Mn576 O592 2.297 . S
Mn576 O600 2.385 . S
Mn576 O601 2.209 . S
Mn576 O602 2.094 . S
Mn577 O582 2.121 . S
Mn577 N584 2.257 . S
Mn577 N593 2.282 . S
Mn577 O601 2.215 . S
Mn577 O603 2.117 . S
C578 O600 1.234 . S
C578 O601 1.283 . S
C579 O591 1.281 . S
C579 O592 1.236 . S
C580 O602 1.240 . S
C580 O603 1.264 . S
O581 Mn576 2.095 . S
O581 C590 1.250 . S
O582 Mn577 2.121 . S
O582 C590 1.258 . S
C583 N584 1.326 . S
C583 C587 1.460 . S
C583 H589 0.929 . S
N584 Mn577 2.257 . S
N584 C583 1.326 . S
N584 C588 1.362 . S
C585 C586 1.258 . S
C585 C588 1.431 . S
C585 C605 1.449 . S
C586 C585 1.258 . S
C586 C587 1.477 . S
C586 H606 0.931 . S
C587 C583 1.460 . S
C587 C586 1.477 . S
C587 H607 0.930 . S
C588 N584 1.362 . S
C588 C585 1.431 . S
C588 C598 1.476 . S
H589 C583 0.929 . S
C590 O581 1.250 . S
C590 O582 1.258 . S
O591 Mn576 2.162 . S
O591 C579 1.281 . S
O592 Mn576 2.297 . S
O592 C579 1.236 . S
N593 Mn577 2.282 . S
N593 C594 1.328 . S
N593 C598 1.318 . S
C594 N593 1.328 . S
C594 C595 1.457 . S
C594 H599 0.929 . S
C595 C594 1.457 . S
C595 C596 1.291 . S
C595 H608 0.931 . S
C596 C595 1.291 . S
C596 C597 1.373 . S
C596 H609 0.929 . S
C597 C596 1.373 . S
C597 C598 1.396 . S
C597 C604 1.403 . S
C598 C588 1.476 . S
C598 N593 1.318 . S
C598 C597 1.396 . S
H599 C594 0.929 . S
O600 Mn576 2.385 . S
O600 C578 1.234 . S
O601 Mn576 2.209 . S
O601 Mn577 2.215 . S
O601 C578 1.283 . S
O602 Mn576 2.094 . S
O602 C580 1.240 . S
O603 Mn577 2.117 . S
O603 C580 1.264 . S
C604 C597 1.403 . S
C604 C605 1.399 . S
C604 H610 0.929 . S
C605 C585 1.449 . S
C605 C604 1.399 . S
C605 H611 0.930 . S
H606 C586 0.931 . S
H607 C587 0.930 . S
H608 C595 0.931 . S
H609 C596 0.929 . S
H610 C604 0.929 . S
H611 C605 0.930 . S
Mn612 O617 2.095 . S
Mn612 O627 2.162 . S
Mn612 O628 2.297 . S
Mn612 O636 2.385 . S
Mn612 O637 2.209 . S
Mn612 O638 2.094 . S
Mn613 O618 2.121 . S
Mn613 N620 2.257 . S
Mn613 N629 2.282 . S
Mn613 O637 2.215 . S
Mn613 O639 2.117 . S
C614 O636 1.234 . S
C614 O637 1.283 . S
C615 O627 1.281 . S
C615 O628 1.236 . S
C616 O638 1.240 . S
C616 O639 1.264 . S
O617 Mn612 2.095 . S
O617 C626 1.250 . S
O618 Mn613 2.121 . S
O618 C626 1.258 . S
C619 N620 1.326 . S
C619 C623 1.460 . S
C619 H625 0.929 . S
N620 Mn613 2.257 . S
N620 C619 1.326 . S
N620 C624 1.362 . S
C621 C622 1.258 . S
C621 C624 1.431 . S
C621 C641 1.449 . S
C622 C621 1.258 . S
C622 C623 1.477 . S
C622 H642 0.931 . S
C623 C619 1.460 . S
C623 C622 1.477 . S
C623 H643 0.930 . S
C624 N620 1.362 . S
C624 C621 1.431 . S
C624 C634 1.476 . S
H625 C619 0.929 . S
C626 O617 1.250 . S
C626 O618 1.258 . S
O627 Mn612 2.162 . S
O627 C615 1.281 . S
O628 Mn612 2.297 . S
O628 C615 1.236 . S
N629 Mn613 2.282 . S
N629 C630 1.328 . S
N629 C634 1.318 . S
C630 N629 1.328 . S
C630 C631 1.457 . S
C630 H635 0.929 . S
C631 C630 1.457 . S
C631 C632 1.291 . S
C631 H644 0.931 . S
C632 C631 1.291 . S
C632 C633 1.373 . S
C632 H645 0.929 . S
C633 C632 1.373 . S
C633 C634 1.396 . S
C633 C640 1.403 . S
C634 C624 1.476 . S
C634 N629 1.318 . S
C634 C633 1.396 . S
H635 C630 0.929 . S
O636 Mn612 2.385 . S
O636 C614 1.234 . S
O637 Mn612 2.209 . S
O637 Mn613 2.215 . S
O637 C614 1.283 . S
O638 Mn612 2.094 . S
O638 C616 1.240 . S
O639 Mn613 2.117 . S
O639 C616 1.264 . S
C640 C633 1.403 . S
C640 C641 1.399 . S
C640 H646 0.929 . S
C641 C621 1.449 . S
C641 C640 1.399 . S
C641 H647 0.930 . S
H642 C622 0.931 . S
H643 C623 0.930 . S
H644 C631 0.931 . S
H645 C632 0.929 . S
H646 C640 0.929 . S
H647 C641 0.930 . S
Mn648 O653 2.095 . S
Mn648 O663 2.162 . S
Mn648 O664 2.297 . S
Mn648 O672 2.385 . S
Mn648 O673 2.209 . S
Mn648 O674 2.094 . S
Mn649 O654 2.121 . S
Mn649 N656 2.257 . S
Mn649 N665 2.282 . S
Mn649 O673 2.215 . S
Mn649 O675 2.117 . S
C650 O672 1.234 . S
C650 O673 1.283 . S
C651 O663 1.281 . S
C651 O664 1.236 . S
C652 O674 1.240 . S
C652 O675 1.264 . S
O653 Mn648 2.095 . S
O653 C662 1.250 . S
O654 Mn649 2.121 . S
O654 C662 1.258 . S
C655 N656 1.326 . S
C655 C659 1.460 . S
C655 H661 0.929 . S
N656 Mn649 2.257 . S
N656 C655 1.326 . S
N656 C660 1.362 . S
C657 C658 1.258 . S
C657 C660 1.431 . S
C657 C677 1.449 . S
C658 C657 1.258 . S
C658 C659 1.477 . S
C658 H678 0.931 . S
C659 C655 1.460 . S
C659 C658 1.477 . S
C659 H679 0.930 . S
C660 N656 1.362 . S
C660 C657 1.431 . S
C660 C670 1.476 . S
H661 C655 0.929 . S
C662 O653 1.250 . S
C662 O654 1.258 . S
O663 Mn648 2.162 . S
O663 C651 1.281 . S
O664 Mn648 2.297 . S
O664 C651 1.236 . S
N665 Mn649 2.282 . S
N665 C666 1.328 . S
N665 C670 1.318 . S
C666 N665 1.328 . S
C666 C667 1.457 . S
C666 H671 0.929 . S
C667 C666 1.457 . S
C667 C668 1.291 . S
C667 H680 0.931 . S
C668 C667 1.291 . S
C668 C669 1.373 . S
C668 H681 0.929 . S
C669 C668 1.373 . S
C669 C670 1.396 . S
C669 C676 1.403 . S
C670 C660 1.476 . S
C670 N665 1.318 . S
C670 C669 1.396 . S
H671 C666 0.929 . S
O672 Mn648 2.385 . S
O672 C650 1.234 . S
O673 Mn648 2.209 . S
O673 Mn649 2.215 . S
O673 C650 1.283 . S
O674 Mn648 2.094 . S
O674 C652 1.240 . S
O675 Mn649 2.117 . S
O675 C652 1.264 . S
C676 C669 1.403 . S
C676 C677 1.399 . S
C676 H682 0.929 . S
C677 C657 1.449 . S
C677 C676 1.399 . S
C677 H683 0.930 . S
H678 C658 0.931 . S
H679 C659 0.930 . S
H680 C667 0.931 . S
H681 C668 0.929 . S
H682 C676 0.929 . S
H683 C677 0.930 . S
Mn684 O689 2.095 . S
Mn684 O699 2.162 . S
Mn684 O700 2.297 . S
Mn684 O708 2.385 . S
Mn684 O709 2.209 . S
Mn684 O710 2.094 . S
Mn685 O690 2.121 . S
Mn685 N692 2.257 . S
Mn685 N701 2.282 . S
Mn685 O709 2.215 . S
Mn685 O711 2.117 . S
C686 O708 1.234 . S
C686 O709 1.283 . S
C687 O699 1.281 . S
C687 O700 1.236 . S
C688 O710 1.240 . S
C688 O711 1.264 . S
O689 Mn684 2.095 . S
O689 C698 1.250 . S
O690 Mn685 2.121 . S
O690 C698 1.258 . S
C691 N692 1.326 . S
C691 C695 1.460 . S
C691 H697 0.929 . S
N692 Mn685 2.257 . S
N692 C691 1.326 . S
N692 C696 1.362 . S
C693 C694 1.258 . S
C693 C696 1.431 . S
C693 C713 1.449 . S
C694 C693 1.258 . S
C694 C695 1.477 . S
C694 H714 0.931 . S
C695 C691 1.460 . S
C695 C694 1.477 . S
C695 H715 0.930 . S
C696 N692 1.362 . S
C696 C693 1.431 . S
C696 C706 1.476 . S
H697 C691 0.929 . S
C698 O689 1.250 . S
C698 O690 1.258 . S
O699 Mn684 2.162 . S
O699 C687 1.281 . S
O700 Mn684 2.297 . S
O700 C687 1.236 . S
N701 Mn685 2.282 . S
N701 C702 1.328 . S
N701 C706 1.318 . S
C702 N701 1.328 . S
C702 C703 1.457 . S
C702 H707 0.929 . S
C703 C702 1.457 . S
C703 C704 1.291 . S
C703 H716 0.931 . S
C704 C703 1.291 . S
C704 C705 1.373 . S
C704 H717 0.929 . S
C705 C704 1.373 . S
C705 C706 1.396 . S
C705 C712 1.403 . S
C706 C696 1.476 . S
C706 N701 1.318 . S
C706 C705 1.396 . S
H707 C702 0.929 . S
O708 Mn684 2.385 . S
O708 C686 1.234 . S
O709 Mn684 2.209 . S
O709 Mn685 2.215 . S
O709 C686 1.283 . S
O710 Mn684 2.094 . S
O710 C688 1.240 . S
O711 Mn685 2.117 . S
O711 C688 1.264 . S
C712 C705 1.403 . S
C712 C713 1.399 . S
C712 H718 0.929 . S
C713 C693 1.449 . S
C713 C712 1.399 . S
C713 H719 0.930 . S
H714 C694 0.931 . S
H715 C695 0.930 . S
H716 C703 0.931 . S
H717 C704 0.929 . S
H718 C712 0.929 . S
H719 C713 0.930 . S
Mn720 O725 2.095 . S
Mn720 O735 2.162 . S
Mn720 O736 2.297 . S
Mn720 O744 2.385 . S
Mn720 O745 2.209 . S
Mn720 O746 2.094 . S
Mn721 O726 2.121 . S
Mn721 N728 2.257 . S
Mn721 N737 2.282 . S
Mn721 O745 2.215 . S
Mn721 O747 2.117 . S
C722 O744 1.234 . S
C722 O745 1.283 . S
C723 O735 1.281 . S
C723 O736 1.236 . S
C724 O746 1.240 . S
C724 O747 1.264 . S
O725 Mn720 2.095 . S
O725 C734 1.250 . S
O726 Mn721 2.121 . S
O726 C734 1.258 . S
C727 N728 1.326 . S
C727 C731 1.460 . S
C727 H733 0.929 . S
N728 Mn721 2.257 . S
N728 C727 1.326 . S
N728 C732 1.362 . S
C729 C730 1.258 . S
C729 C732 1.431 . S
C729 C749 1.449 . S
C730 C729 1.258 . S
C730 C731 1.477 . S
C730 H750 0.931 . S
C731 C727 1.460 . S
C731 C730 1.477 . S
C731 H751 0.930 . S
C732 N728 1.362 . S
C732 C729 1.431 . S
C732 C742 1.476 . S
H733 C727 0.929 . S
C734 O725 1.250 . S
C734 O726 1.258 . S
O735 Mn720 2.162 . S
O735 C723 1.281 . S
O736 Mn720 2.297 . S
O736 C723 1.236 . S
N737 Mn721 2.282 . S
N737 C738 1.328 . S
N737 C742 1.318 . S
C738 N737 1.328 . S
C738 C739 1.457 . S
C738 H743 0.929 . S
C739 C738 1.457 . S
C739 C740 1.291 . S
C739 H752 0.931 . S
C740 C739 1.291 . S
C740 C741 1.373 . S
C740 H753 0.929 . S
C741 C740 1.373 . S
C741 C742 1.396 . S
C741 C748 1.403 . S
C742 C732 1.476 . S
C742 N737 1.318 . S
C742 C741 1.396 . S
H743 C738 0.929 . S
O744 Mn720 2.385 . S
O744 C722 1.234 . S
O745 Mn720 2.209 . S
O745 Mn721 2.215 . S
O745 C722 1.283 . S
O746 Mn720 2.094 . S
O746 C724 1.240 . S
O747 Mn721 2.117 . S
O747 C724 1.264 . S
C748 C741 1.403 . S
C748 C749 1.399 . S
C748 H754 0.929 . S
C749 C729 1.449 . S
C749 C748 1.399 . S
C749 H755 0.930 . S
H750 C730 0.931 . S
H751 C731 0.930 . S
H752 C739 0.931 . S
H753 C740 0.929 . S
H754 C748 0.929 . S
H755 C749 0.930 . S
Mn756 O761 2.095 . S
Mn756 O771 2.162 . S
Mn756 O772 2.297 . S
Mn756 O780 2.385 . S
Mn756 O781 2.209 . S
Mn756 O782 2.094 . S
Mn757 O762 2.121 1_556 S
Mn757 N764 2.257 1_556 S
Mn757 N773 2.282 . S
Mn757 O781 2.215 . S
Mn757 O783 2.117 . S
C758 O780 1.234 . S
C758 O781 1.283 . S
C759 O771 1.281 . S
C759 O772 1.236 . S
C760 O782 1.240 . S
C760 O783 1.264 . S
O761 Mn756 2.095 . S
O761 C770 1.250 . S
O762 Mn757 2.121 1_554 S
O762 C770 1.258 1_554 S
C763 N764 1.326 . S
C763 C767 1.460 . S
C763 H769 0.929 . S
N764 Mn757 2.257 1_554 S
N764 C763 1.326 . S
N764 C768 1.362 . S
C765 C766 1.268 1_545 S
C765 C768 1.431 . S
C765 C785 1.449 1_545 S
C766 C765 1.268 1_565 S
C766 C767 1.424 1_565 S
C766 H786 0.976 . S
C767 C763 1.460 . S
C767 C766 1.424 1_545 S
C767 H787 0.930 . S
C768 N764 1.362 . S
C768 C765 1.431 . S
C768 C778 1.476 1_554 S
H769 C763 0.929 . S
C770 O761 1.250 . S
C770 O762 1.258 1_556 S
O771 Mn756 2.162 . S
O771 C759 1.281 . S
O772 Mn756 2.297 . S
O772 C759 1.236 . S
N773 Mn757 2.282 . S
N773 C774 1.328 . S
N773 C778 1.318 . S
C774 N773 1.328 . S
C774 C775 1.457 . S
C774 H779 0.929 . S
C775 C774 1.457 . S
C775 C776 1.291 . S
C775 H788 0.931 . S
C776 C775 1.291 . S
C776 C777 1.373 . S
C776 H789 0.929 . S
C777 C776 1.373 . S
C777 C778 1.396 . S
C777 C784 1.403 1_545 S
C778 C768 1.476 1_556 S
C778 N773 1.318 . S
C778 C777 1.396 . S
H779 C774 0.929 . S
O780 Mn756 2.385 . S
O780 C758 1.234 . S
O781 Mn756 2.209 . S
O781 Mn757 2.215 . S
O781 C758 1.283 . S
O782 Mn756 2.094 . S
O782 C760 1.240 . S
O783 Mn757 2.117 . S
O783 C760 1.264 . S
C784 C777 1.403 1_565 S
C784 C785 1.399 1_556 S
C784 H790 0.929 . S
C785 C765 1.449 1_565 S
C785 C784 1.399 1_554 S
C785 H791 0.930 . S
H786 C766 0.976 . S
H787 C767 0.930 . S
H788 C775 0.931 . S
H789 C776 0.929 . S
H790 C784 0.929 . S
H791 C785 0.930 . S
Mn792 O797 2.095 . S
Mn792 O807 2.162 . S
Mn792 O808 2.297 . S
Mn792 O816 2.385 . S
Mn792 O817 2.209 . S
Mn792 O818 2.094 . S
Mn793 O798 2.121 1_556 S
Mn793 N800 2.257 1_556 S
Mn793 N809 2.282 . S
Mn793 O817 2.215 . S
Mn793 O819 2.117 . S
C794 O816 1.234 . S
C794 O817 1.283 . S
C795 O807 1.281 . S
C795 O808 1.236 . S
C796 O818 1.240 . S
C796 O819 1.264 . S
O797 Mn792 2.095 . S
O797 C806 1.250 . S
O798 Mn793 2.121 1_554 S
O798 C806 1.258 1_554 S
C799 N800 1.326 . S
C799 C803 1.460 . S
C799 H805 0.929 . S
N800 Mn793 2.257 1_554 S
N800 C799 1.326 . S
N800 C804 1.362 . S
C801 C802 1.219 1_655 S
C801 C804 1.431 . S
C801 C821 1.449 1_655 S
C802 C801 1.219 1_455 S
C802 C803 1.467 1_455 S
C802 H822 0.981 . S
C803 C799 1.460 . S
C803 C802 1.467 1_655 S
C803 H823 0.930 . S
C804 N800 1.362 . S
C804 C801 1.431 . S
C804 C814 1.476 1_554 S
H805 C799 0.929 . S
C806 O797 1.250 . S
C806 O798 1.258 1_556 S
O807 Mn792 2.162 . S
O807 C795 1.281 . S
O808 Mn792 2.297 . S
O808 C795 1.236 . S
N809 Mn793 2.282 . S
N809 C810 1.328 . S
N809 C814 1.318 . S
C810 N809 1.328 . S
C810 C811 1.457 . S
C810 H815 0.929 . S
C811 C810 1.457 . S
C811 C812 1.291 . S
C811 H824 0.931 . S
C812 C811 1.291 . S
C812 C813 1.373 . S
C812 H825 0.929 . S
C813 C812 1.373 . S
C813 C814 1.396 . S
C813 C820 1.403 1_655 S
C814 C804 1.476 1_556 S
C814 N809 1.318 . S
C814 C813 1.396 . S
H815 C810 0.929 . S
O816 Mn792 2.385 . S
O816 C794 1.234 . S
O817 Mn792 2.209 . S
O817 Mn793 2.215 . S
O817 C794 1.283 . S
O818 Mn792 2.094 . S
O818 C796 1.240 . S
O819 Mn793 2.117 . S
O819 C796 1.264 . S
C820 C813 1.403 1_455 S
C820 C821 1.399 1_556 S
C820 H826 0.929 . S
C821 C801 1.449 1_455 S
C821 C820 1.399 1_554 S
C821 H827 0.930 . S
H822 C802 0.981 . S
H823 C803 0.930 . S
H824 C811 0.931 . S
H825 C812 0.929 . S
H826 C820 0.929 . S
H827 C821 0.930 . S
Mn828 O833 2.095 . S
Mn828 O843 2.162 . S
Mn828 O844 2.297 . S
Mn828 O852 2.385 . S
Mn828 O853 2.209 . S
Mn828 O854 2.094 . S
Mn829 O834 2.121 1_556 S
Mn829 N836 2.257 1_556 S
Mn829 N845 2.282 . S
Mn829 O853 2.215 . S
Mn829 O855 2.117 . S
C830 O852 1.234 . S
C830 O853 1.283 . S
C831 O843 1.281 . S
C831 O844 1.236 . S
C832 O854 1.240 . S
C832 O855 1.264 . S
O833 Mn828 2.095 . S
O833 C842 1.250 . S
O834 Mn829 2.121 1_554 S
O834 C842 1.258 1_554 S
C835 N836 1.326 . S
C835 C839 1.460 . S
C835 H841 0.929 . S
N836 Mn829 2.257 1_554 S
N836 C835 1.326 . S
N836 C840 1.362 . S
C837 C838 1.258 . S
C837 C840 1.431 . S
C837 C857 1.449 . S
C838 C837 1.258 . S
C838 C839 1.477 . S
C838 H858 0.931 . S
C839 C835 1.460 . S
C839 C838 1.477 . S
C839 H859 0.930 . S
C840 N836 1.362 . S
C840 C837 1.431 . S
C840 C850 1.476 1_554 S
H841 C835 0.929 . S
C842 O833 1.250 . S
C842 O834 1.258 1_556 S
O843 Mn828 2.162 . S
O843 C831 1.281 . S
O844 Mn828 2.297 . S
O844 C831 1.236 . S
N845 Mn829 2.282 . S
N845 C846 1.328 . S
N845 C850 1.318 . S
C846 N845 1.328 . S
C846 C847 1.457 . S
C846 H851 0.929 . S
C847 C846 1.457 . S
C847 C848 1.291 . S
C847 H860 0.931 . S
C848 C847 1.291 . S
C848 C849 1.373 . S
C848 H861 0.929 . S
C849 C848 1.373 . S
C849 C850 1.396 . S
C849 C856 1.403 . S
C850 C840 1.476 1_556 S
C850 N845 1.318 . S
C850 C849 1.396 . S
H851 C846 0.929 . S
O852 Mn828 2.385 . S
O852 C830 1.234 . S
O853 Mn828 2.209 . S
O853 Mn829 2.215 . S
O853 C830 1.283 . S
O854 Mn828 2.094 . S
O854 C832 1.240 . S
O855 Mn829 2.117 . S
O855 C832 1.264 . S
C856 C849 1.403 . S
C856 C857 1.399 1_556 S
C856 H862 0.929 . S
C857 C837 1.449 . S
C857 C856 1.399 1_554 S
C857 H863 0.930 . S
H858 C838 0.931 . S
H859 C839 0.930 . S
H860 C847 0.931 . S
H861 C848 0.929 . S
H862 C856 0.929 . S
H863 C857 0.930 . S
Mn864 O869 2.095 . S
Mn864 O879 2.162 . S
Mn864 O880 2.297 . S
Mn864 O888 2.385 . S
Mn864 O889 2.209 . S
Mn864 O890 2.094 . S
Mn865 O870 2.121 . S
Mn865 N872 2.257 . S
Mn865 N881 2.282 . S
Mn865 O889 2.215 . S
Mn865 O891 2.117 . S
C866 O888 1.234 . S
C866 O889 1.283 . S
C867 O879 1.281 . S
C867 O880 1.236 . S
C868 O890 1.240 . S
C868 O891 1.264 . S
O869 Mn864 2.095 . S
O869 C878 1.250 . S
O870 Mn865 2.121 . S
O870 C878 1.258 . S
C871 N872 1.326 . S
C871 C875 1.460 . S
C871 H877 0.929 . S
N872 Mn865 2.257 . S
N872 C871 1.326 . S
N872 C876 1.362 . S
C873 C874 1.258 . S
C873 C876 1.431 . S
C873 C893 1.449 . S
C874 C873 1.258 . S
C874 C875 1.477 . S
C874 H894 0.931 . S
C875 C871 1.460 . S
C875 C874 1.477 . S
C875 H895 0.930 . S
C876 N872 1.362 . S
C876 C873 1.431 . S
C876 C886 1.476 . S
H877 C871 0.929 . S
C878 O869 1.250 . S
C878 O870 1.258 . S
O879 Mn864 2.162 . S
O879 C867 1.281 . S
O880 Mn864 2.297 . S
O880 C867 1.236 . S
N881 Mn865 2.282 . S
N881 C882 1.328 . S
N881 C886 1.318 . S
C882 N881 1.328 . S
C882 C883 1.457 . S
C882 H887 0.929 . S
C883 C882 1.457 . S
C883 C884 1.291 . S
C883 H896 0.931 . S
C884 C883 1.291 . S
C884 C885 1.373 . S
C884 H897 0.929 . S
C885 C884 1.373 . S
C885 C886 1.396 . S
C885 C892 1.403 . S
C886 C876 1.476 . S
C886 N881 1.318 . S
C886 C885 1.396 . S
H887 C882 0.929 . S
O888 Mn864 2.385 . S
O888 C866 1.234 . S
O889 Mn864 2.209 . S
O889 Mn865 2.215 . S
O889 C866 1.283 . S
O890 Mn864 2.094 . S
O890 C868 1.240 . S
O891 Mn865 2.117 . S
O891 C868 1.264 . S
C892 C885 1.403 . S
C892 C893 1.399 . S
C892 H898 0.929 . S
C893 C873 1.449 . S
C893 C892 1.399 . S
C893 H899 0.930 . S
H894 C874 0.931 . S
H895 C875 0.930 . S
H896 C883 0.931 . S
H897 C884 0.929 . S
H898 C892 0.929 . S
H899 C893 0.930 . S
Mn900 O905 2.095 . S
Mn900 O915 2.162 . S
Mn900 O916 2.297 . S
Mn900 O924 2.385 . S
Mn900 O925 2.209 . S
Mn900 O926 2.094 . S
Mn901 O906 2.121 . S
Mn901 N908 2.257 . S
Mn901 N917 2.282 . S
Mn901 O925 2.215 . S
Mn901 O927 2.117 . S
C902 O924 1.234 . S
C902 O925 1.283 . S
C903 O915 1.281 . S
C903 O916 1.236 . S
C904 O926 1.240 . S
C904 O927 1.264 . S
O905 Mn900 2.095 . S
O905 C914 1.250 . S
O906 Mn901 2.121 . S
O906 C914 1.258 . S
C907 N908 1.326 . S
C907 C911 1.460 . S
C907 H913 0.929 . S
N908 Mn901 2.257 . S
N908 C907 1.326 . S
N908 C912 1.362 . S
C909 C910 1.258 . S
C909 C912 1.431 . S
C909 C929 1.449 . S
C910 C909 1.258 . S
C910 C911 1.477 . S
C910 H930 0.931 . S
C911 C907 1.460 . S
C911 C910 1.477 . S
C911 H931 0.930 . S
C912 N908 1.362 . S
C912 C909 1.431 . S
C912 C922 1.476 . S
H913 C907 0.929 . S
C914 O905 1.250 . S
C914 O906 1.258 . S
O915 Mn900 2.162 . S
O915 C903 1.281 . S
O916 Mn900 2.297 . S
O916 C903 1.236 . S
N917 Mn901 2.282 . S
N917 C918 1.328 . S
N917 C922 1.318 . S
C918 N917 1.328 . S
C918 C919 1.457 . S
C918 H923 0.929 . S
C919 C918 1.457 . S
C919 C920 1.291 . S
C919 H932 0.931 . S
C920 C919 1.291 . S
C920 C921 1.373 . S
C920 H933 0.929 . S
C921 C920 1.373 . S
C921 C922 1.396 . S
C921 C928 1.403 . S
C922 C912 1.476 . S
C922 N917 1.318 . S
C922 C921 1.396 . S
H923 C918 0.929 . S
O924 Mn900 2.385 . S
O924 C902 1.234 . S
O925 Mn900 2.209 . S
O925 Mn901 2.215 . S
O925 C902 1.283 . S
O926 Mn900 2.094 . S
O926 C904 1.240 . S
O927 Mn901 2.117 . S
O927 C904 1.264 . S
C928 C921 1.403 . S
C928 C929 1.399 . S
C928 H934 0.929 . S
C929 C909 1.449 . S
C929 C928 1.399 . S
C929 H935 0.930 . S
H930 C910 0.931 . S
H931 C911 0.930 . S
H932 C919 0.931 . S
H933 C920 0.929 . S
H934 C928 0.929 . S
H935 C929 0.930 . S
Mn936 O941 2.095 . S
Mn936 O951 2.162 . S
Mn936 O952 2.297 . S
Mn936 O960 2.385 . S
Mn936 O961 2.209 . S
Mn936 O962 2.094 . S
Mn937 O942 2.121 . S
Mn937 N944 2.257 . S
Mn937 N953 2.282 . S
Mn937 O961 2.215 . S
Mn937 O963 2.117 . S
C938 O960 1.234 . S
C938 O961 1.283 . S
C939 O951 1.281 . S
C939 O952 1.236 . S
C940 O962 1.240 . S
C940 O963 1.264 . S
O941 Mn936 2.095 . S
O941 C950 1.250 . S
O942 Mn937 2.121 . S
O942 C950 1.258 . S
C943 N944 1.326 . S
C943 C947 1.460 . S
C943 H949 0.929 . S
N944 Mn937 2.257 . S
N944 C943 1.326 . S
N944 C948 1.362 . S
C945 C946 1.258 . S
C945 C948 1.431 . S
C945 C965 1.449 . S
C946 C945 1.258 . S
C946 C947 1.477 . S
C946 H966 0.931 . S
C947 C943 1.460 . S
C947 C946 1.477 . S
C947 H967 0.930 . S
C948 N944 1.362 . S
C948 C945 1.431 . S
C948 C958 1.476 . S
H949 C943 0.929 . S
C950 O941 1.250 . S
C950 O942 1.258 . S
O951 Mn936 2.162 . S
O951 C939 1.281 . S
O952 Mn936 2.297 . S
O952 C939 1.236 . S
N953 Mn937 2.282 . S
N953 C954 1.328 . S
N953 C958 1.318 . S
C954 N953 1.328 . S
C954 C955 1.457 . S
C954 H959 0.929 . S
C955 C954 1.457 . S
C955 C956 1.291 . S
C955 H968 0.931 . S
C956 C955 1.291 . S
C956 C957 1.373 . S
C956 H969 0.929 . S
C957 C956 1.373 . S
C957 C958 1.396 . S
C957 C964 1.403 . S
C958 C948 1.476 . S
C958 N953 1.318 . S
C958 C957 1.396 . S
H959 C954 0.929 . S
O960 Mn936 2.385 . S
O960 C938 1.234 . S
O961 Mn936 2.209 . S
O961 Mn937 2.215 . S
O961 C938 1.283 . S
O962 Mn936 2.094 . S
O962 C940 1.240 . S
O963 Mn937 2.117 . S
O963 C940 1.264 . S
C964 C957 1.403 . S
C964 C965 1.399 . S
C964 H970 0.929 . S
C965 C945 1.449 . S
C965 C964 1.399 . S
C965 H971 0.930 . S
H966 C946 0.931 . S
H967 C947 0.930 . S
H968 C955 0.931 . S
H969 C956 0.929 . S
H970 C964 0.929 . S
H971 C965 0.930 . S
Mn972 O977 2.095 . S
Mn972 O987 2.162 . S
Mn972 O988 2.297 . S
Mn972 O996 2.385 . S
Mn972 O997 2.209 . S
Mn972 O998 2.094 . S
Mn973 O978 2.121 1_554 S
Mn973 N980 2.257 1_554 S
Mn973 N989 2.282 . S
Mn973 O997 2.215 . S
Mn973 O999 2.117 . S
C974 O996 1.234 . S
C974 O997 1.283 . S
C975 O987 1.281 . S
C975 O988 1.236 . S
C976 O998 1.240 . S
C976 O999 1.264 . S
O977 Mn972 2.095 . S
O977 C986 1.250 . S
O978 Mn973 2.121 1_556 S
O978 C986 1.258 1_556 S
C979 N980 1.326 . S
C979 C983 1.460 . S
C979 H985 0.929 . S
N980 Mn973 2.257 1_556 S
N980 C979 1.326 . S
N980 C984 1.362 . S
C981 C982 1.268 1_565 S
C981 C984 1.431 . S
C981 C1001 1.449 1_565 S
C982 C981 1.268 1_545 S
C982 C983 1.424 1_545 S
C982 H1002 0.976 . S
C983 C979 1.460 . S
C983 C982 1.424 1_565 S
C983 H1003 0.930 . S
C984 N980 1.362 . S
C984 C981 1.431 . S
C984 C994 1.476 1_556 S
H985 C979 0.929 . S
C986 O977 1.250 . S
C986 O978 1.258 1_554 S
O987 Mn972 2.162 . S
O987 C975 1.281 . S
O988 Mn972 2.297 . S
O988 C975 1.236 . S
N989 Mn973 2.282 . S
N989 C990 1.328 . S
N989 C994 1.318 . S
C990 N989 1.328 . S
C990 C991 1.457 . S
C990 H995 0.929 . S
C991 C990 1.457 . S
C991 C992 1.291 . S
C991 H1004 0.931 . S
C992 C991 1.291 . S
C992 C993 1.373 . S
C992 H1005 0.929 . S
C993 C992 1.373 . S
C993 C994 1.396 . S
C993 C1000 1.403 1_565 S
C994 C984 1.476 1_554 S
C994 N989 1.318 . S
C994 C993 1.396 . S
H995 C990 0.929 . S
O996 Mn972 2.385 . S
O996 C974 1.234 . S
O997 Mn972 2.209 . S
O997 Mn973 2.215 . S
O997 C974 1.283 . S
O998 Mn972 2.094 . S
O998 C976 1.240 . S
O999 Mn973 2.117 . S
O999 C976 1.264 . S
C1000 C993 1.403 1_545 S
C1000 C1001 1.399 1_554 S
C1000 H1006 0.929 . S
C1001 C981 1.449 1_545 S
C1001 C1000 1.399 1_556 S
C1001 H1007 0.930 . S
H1002 C982 0.976 . S
H1003 C983 0.930 . S
H1004 C991 0.931 . S
H1005 C992 0.929 . S
H1006 C1000 0.929 . S
H1007 C1001 0.930 . S
Mn1008 O1013 2.095 . S
Mn1008 O1023 2.162 . S
Mn1008 O1024 2.297 . S
Mn1008 O1032 2.385 . S
Mn1008 O1033 2.209 . S
Mn1008 O1034 2.094 . S
Mn1009 O1014 2.121 1_554 S
Mn1009 N1016 2.257 1_554 S
Mn1009 N1025 2.282 . S
Mn1009 O1033 2.215 . S
Mn1009 O1035 2.117 . S
C1010 O1032 1.234 . S
C1010 O1033 1.283 . S
C1011 O1023 1.281 . S
C1011 O1024 1.236 . S
C1012 O1034 1.240 . S
C1012 O1035 1.264 . S
O1013 Mn1008 2.095 . S
O1013 C1022 1.250 . S
O1014 Mn1009 2.121 1_556 S
O1014 C1022 1.258 1_556 S
C1015 N1016 1.326 . S
C1015 C1019 1.460 . S
C1015 H1021 0.929 . S
N1016 Mn1009 2.257 1_556 S
N1016 C1015 1.326 . S
N1016 C1020 1.362 . S
C1017 C1018 1.219 1_455 S
C1017 C1020 1.431 . S
C1017 C1037 1.449 1_455 S
C1018 C1017 1.219 1_655 S
C1018 C1019 1.467 1_655 S
C1018 H1038 0.981 . S
C1019 C1015 1.460 . S
C1019 C1018 1.467 1_455 S
C1019 H1039 0.930 . S
C1020 N1016 1.362 . S
C1020 C1017 1.431 . S
C1020 C1030 1.476 1_556 S
H1021 C1015 0.929 . S
C1022 O1013 1.250 . S
C1022 O1014 1.258 1_554 S
O1023 Mn1008 2.162 . S
O1023 C1011 1.281 . S
O1024 Mn1008 2.297 . S
O1024 C1011 1.236 . S
N1025 Mn1009 2.282 . S
N1025 C1026 1.328 . S
N1025 C1030 1.318 . S
C1026 N1025 1.328 . S
C1026 C1027 1.457 . S
C1026 H1031 0.929 . S
C1027 C1026 1.457 . S
C1027 C1028 1.291 . S
C1027 H1040 0.931 . S
C1028 C1027 1.291 . S
C1028 C1029 1.373 . S
C1028 H1041 0.929 . S
C1029 C1028 1.373 . S
C1029 C1030 1.396 . S
C1029 C1036 1.403 1_455 S
C1030 C1020 1.476 1_554 S
C1030 N1025 1.318 . S
C1030 C1029 1.396 . S
H1031 C1026 0.929 . S
O1032 Mn1008 2.385 . S
O1032 C1010 1.234 . S
O1033 Mn1008 2.209 . S
O1033 Mn1009 2.215 . S
O1033 C1010 1.283 . S
O1034 Mn1008 2.094 . S
O1034 C1012 1.240 . S
O1035 Mn1009 2.117 . S
O1035 C1012 1.264 . S
C1036 C1029 1.403 1_655 S
C1036 C1037 1.399 1_554 S
C1036 H1042 0.929 . S
C1037 C1017 1.449 1_655 S
C1037 C1036 1.399 1_556 S
C1037 H1043 0.930 . S
H1038 C1018 0.981 . S
H1039 C1019 0.930 . S
H1040 C1027 0.931 . S
H1041 C1028 0.929 . S
H1042 C1036 0.929 . S
H1043 C1037 0.930 . S
Mn1044 O1049 2.095 . S
Mn1044 O1059 2.162 . S
Mn1044 O1060 2.297 . S
Mn1044 O1068 2.385 . S
Mn1044 O1069 2.209 . S
Mn1044 O1070 2.094 . S
Mn1045 O1050 2.121 1_554 S
Mn1045 N1052 2.257 1_554 S
Mn1045 N1061 2.282 . S
Mn1045 O1069 2.215 . S
Mn1045 O1071 2.117 . S
C1046 O1068 1.234 . S
C1046 O1069 1.283 . S
C1047 O1059 1.281 . S
C1047 O1060 1.236 . S
C1048 O1070 1.240 . S
C1048 O1071 1.264 . S
O1049 Mn1044 2.095 . S
O1049 C1058 1.250 . S
O1050 Mn1045 2.121 1_556 S
O1050 C1058 1.258 1_556 S
C1051 N1052 1.326 . S
C1051 C1055 1.460 . S
C1051 H1057 0.929 . S
N1052 Mn1045 2.257 1_556 S
N1052 C1051 1.326 . S
N1052 C1056 1.362 . S
C1053 C1054 1.258 . S
C1053 C1056 1.431 . S
C1053 C1073 1.449 . S
C1054 C1053 1.258 . S
C1054 C1055 1.477 . S
C1054 H1074 0.931 . S
C1055 C1051 1.460 . S
C1055 C1054 1.477 . S
C1055 H1075 0.930 . S
C1056 N1052 1.362 . S
C1056 C1053 1.431 . S
C1056 C1066 1.476 1_556 S
H1057 C1051 0.929 . S
C1058 O1049 1.250 . S
C1058 O1050 1.258 1_554 S
O1059 Mn1044 2.162 . S
O1059 C1047 1.281 . S
O1060 Mn1044 2.297 . S
O1060 C1047 1.236 . S
N1061 Mn1045 2.282 . S
N1061 C1062 1.328 . S
N1061 C1066 1.318 . S
C1062 N1061 1.328 . S
C1062 C1063 1.457 . S
C1062 H1067 0.929 . S
C1063 C1062 1.457 . S
C1063 C1064 1.291 . S
C1063 H1076 0.931 . S
C1064 C1063 1.291 . S
C1064 C1065 1.373 . S
C1064 H1077 0.929 . S
C1065 C1064 1.373 . S
C1065 C1066 1.396 . S
C1065 C1072 1.403 . S
C1066 C1056 1.476 1_554 S
C1066 N1061 1.318 . S
C1066 C1065 1.396 . S
H1067 C1062 0.929 . S
O1068 Mn1044 2.385 . S
O1068 C1046 1.234 . S
O1069 Mn1044 2.209 . S
O1069 Mn1045 2.215 . S
O1069 C1046 1.283 . S
O1070 Mn1044 2.094 . S
O1070 C1048 1.240 . S
O1071 Mn1045 2.117 . S
O1071 C1048 1.264 . S
C1072 C1065 1.403 . S
C1072 C1073 1.399 1_554 S
C1072 H1078 0.929 . S
C1073 C1053 1.449 . S
C1073 C1072 1.399 1_556 S
C1073 H1079 0.930 . S
H1074 C1054 0.931 . S
H1075 C1055 0.930 . S
H1076 C1063 0.931 . S
H1077 C1064 0.929 . S
H1078 C1072 0.929 . S
H1079 C1073 0.930 . S
Mn1080 O1085 2.095 . S
Mn1080 O1095 2.162 . S
Mn1080 O1096 2.297 . S
Mn1080 O1104 2.385 . S
Mn1080 O1105 2.209 . S
Mn1080 O1106 2.094 . S
Mn1081 O1086 2.121 . S
Mn1081 N1088 2.257 . S
Mn1081 N1097 2.282 . S
Mn1081 O1105 2.215 . S
Mn1081 O1107 2.117 . S
C1082 O1104 1.234 . S
C1082 O1105 1.283 . S
C1083 O1095 1.281 . S
C1083 O1096 1.236 . S
C1084 O1106 1.240 . S
C1084 O1107 1.264 . S
O1085 Mn1080 2.095 . S
O1085 C1094 1.250 . S
O1086 Mn1081 2.121 . S
O1086 C1094 1.258 . S
C1087 N1088 1.326 . S
C1087 C1091 1.460 . S
C1087 H1093 0.929 . S
N1088 Mn1081 2.257 . S
N1088 C1087 1.326 . S
N1088 C1092 1.362 . S
C1089 C1090 1.268 1_455 S
C1089 C1092 1.431 . S
C1089 C1109 1.449 1_455 S
C1090 C1089 1.268 1_655 S
C1090 C1091 1.424 1_655 S
C1090 H1110 0.975 . S
C1091 C1087 1.460 . S
C1091 C1090 1.424 1_455 S
C1091 H1111 0.930 . S
C1092 N1088 1.362 . S
C1092 C1089 1.431 . S
C1092 C1102 1.476 . S
H1093 C1087 0.929 . S
C1094 O1085 1.250 . S
C1094 O1086 1.258 . S
O1095 Mn1080 2.162 . S
O1095 C1083 1.281 . S
O1096 Mn1080 2.297 . S
O1096 C1083 1.236 . S
N1097 Mn1081 2.282 . S
N1097 C1098 1.328 . S
N1097 C1102 1.318 . S
C1098 N1097 1.328 . S
C1098 C1099 1.457 . S
C1098 H1103 0.929 . S
C1099 C1098 1.457 . S
C1099 C1100 1.291 . S
C1099 H1112 0.931 . S
C1100 C1099 1.291 . S
C1100 C1101 1.373 . S
C1100 H1113 0.929 . S
C1101 C1100 1.373 . S
C1101 C1102 1.396 . S
C1101 C1108 1.403 1_455 S
C1102 C1092 1.476 . S
C1102 N1097 1.318 . S
C1102 C1101 1.396 . S
H1103 C1098 0.929 . S
O1104 Mn1080 2.385 . S
O1104 C1082 1.234 . S
O1105 Mn1080 2.209 . S
O1105 Mn1081 2.215 . S
O1105 C1082 1.283 . S
O1106 Mn1080 2.094 . S
O1106 C1084 1.240 . S
O1107 Mn1081 2.117 . S
O1107 C1084 1.264 . S
C1108 C1101 1.403 1_655 S
C1108 C1109 1.399 . S
C1108 H1114 0.929 . S
C1109 C1089 1.449 1_655 S
C1109 C1108 1.399 . S
C1109 H1115 0.930 . S
H1110 C1090 0.975 . S
H1111 C1091 0.930 . S
H1112 C1099 0.931 . S
H1113 C1100 0.929 . S
H1114 C1108 0.929 . S
H1115 C1109 0.930 . S
Mn1116 O1121 2.095 . S
Mn1116 O1131 2.162 . S
Mn1116 O1132 2.297 . S
Mn1116 O1140 2.385 . S
Mn1116 O1141 2.209 . S
Mn1116 O1142 2.094 . S
Mn1117 O1122 2.121 . S
Mn1117 N1124 2.257 . S
Mn1117 N1133 2.282 . S
Mn1117 O1141 2.215 . S
Mn1117 O1143 2.117 . S
C1118 O1140 1.234 . S
C1118 O1141 1.283 . S
C1119 O1131 1.281 . S
C1119 O1132 1.236 . S
C1120 O1142 1.240 . S
C1120 O1143 1.264 . S
O1121 Mn1116 2.095 . S
O1121 C1130 1.250 . S
O1122 Mn1117 2.121 . S
O1122 C1130 1.258 . S
C1123 N1124 1.326 . S
C1123 C1127 1.460 . S
C1123 H1129 0.929 . S
N1124 Mn1117 2.257 . S
N1124 C1123 1.326 . S
N1124 C1128 1.362 . S
C1125 C1126 1.258 . S
C1125 C1128 1.431 . S
C1125 C1145 1.449 . S
C1126 C1125 1.258 . S
C1126 C1127 1.477 . S
C1126 H1146 0.931 . S
C1127 C1123 1.460 . S
C1127 C1126 1.477 . S
C1127 H1147 0.930 . S
C1128 N1124 1.362 . S
C1128 C1125 1.431 . S
C1128 C1138 1.476 . S
H1129 C1123 0.929 . S
C1130 O1121 1.250 . S
C1130 O1122 1.258 . S
O1131 Mn1116 2.162 . S
O1131 C1119 1.281 . S
O1132 Mn1116 2.297 . S
O1132 C1119 1.236 . S
N1133 Mn1117 2.282 . S
N1133 C1134 1.328 . S
N1133 C1138 1.318 . S
C1134 N1133 1.328 . S
C1134 C1135 1.457 . S
C1134 H1139 0.929 . S
C1135 C1134 1.457 . S
C1135 C1136 1.291 . S
C1135 H1148 0.931 . S
C1136 C1135 1.291 . S
C1136 C1137 1.373 . S
C1136 H1149 0.929 . S
C1137 C1136 1.373 . S
C1137 C1138 1.396 . S
C1137 C1144 1.403 . S
C1138 C1128 1.476 . S
C1138 N1133 1.318 . S
C1138 C1137 1.396 . S
H1139 C1134 0.929 . S
O1140 Mn1116 2.385 . S
O1140 C1118 1.234 . S
O1141 Mn1116 2.209 . S
O1141 Mn1117 2.215 . S
O1141 C1118 1.283 . S
O1142 Mn1116 2.094 . S
O1142 C1120 1.240 . S
O1143 Mn1117 2.117 . S
O1143 C1120 1.264 . S
C1144 C1137 1.403 . S
C1144 C1145 1.399 . S
C1144 H1150 0.929 . S
C1145 C1125 1.449 . S
C1145 C1144 1.399 . S
C1145 H1151 0.930 . S
H1146 C1126 0.931 . S
H1147 C1127 0.930 . S
H1148 C1135 0.931 . S
H1149 C1136 0.929 . S
H1150 C1144 0.929 . S
H1151 C1145 0.930 . S
Mn1152 O1157 2.095 . S
Mn1152 O1167 2.162 . S
Mn1152 O1168 2.297 . S
Mn1152 O1176 2.385 . S
Mn1152 O1177 2.209 . S
Mn1152 O1178 2.094 . S
Mn1153 O1158 2.121 . S
Mn1153 N1160 2.257 . S
Mn1153 N1169 2.282 . S
Mn1153 O1177 2.215 . S
Mn1153 O1179 2.117 . S
C1154 O1176 1.234 . S
C1154 O1177 1.283 . S
C1155 O1167 1.281 . S
C1155 O1168 1.236 . S
C1156 O1178 1.240 . S
C1156 O1179 1.264 . S
O1157 Mn1152 2.095 . S
O1157 C1166 1.250 . S
O1158 Mn1153 2.121 . S
O1158 C1166 1.258 . S
C1159 N1160 1.326 . S
C1159 C1163 1.460 . S
C1159 H1165 0.929 . S
N1160 Mn1153 2.257 . S
N1160 C1159 1.326 . S
N1160 C1164 1.362 . S
C1161 C1162 1.219 1_565 S
C1161 C1164 1.431 . S
C1161 C1181 1.449 1_565 S
C1162 C1161 1.219 1_545 S
C1162 C1163 1.467 1_545 S
C1162 H1182 0.981 . S
C1163 C1159 1.460 . S
C1163 C1162 1.467 1_565 S
C1163 H1183 0.930 . S
C1164 N1160 1.362 . S
C1164 C1161 1.431 . S
C1164 C1174 1.476 . S
H1165 C1159 0.929 . S
C1166 O1157 1.250 . S
C1166 O1158 1.258 . S
O1167 Mn1152 2.162 . S
O1167 C1155 1.281 . S
O1168 Mn1152 2.297 . S
O1168 C1155 1.236 . S
N1169 Mn1153 2.282 . S
N1169 C1170 1.328 . S
N1169 C1174 1.318 . S
C1170 N1169 1.328 . S
C1170 C1171 1.457 . S
C1170 H1175 0.929 . S
C1171 C1170 1.457 . S
C1171 C1172 1.291 . S
C1171 H1184 0.931 . S
C1172 C1171 1.291 . S
C1172 C1173 1.373 . S
C1172 H1185 0.929 . S
C1173 C1172 1.373 . S
C1173 C1174 1.396 . S
C1173 C1180 1.403 1_565 S
C1174 C1164 1.476 . S
C1174 N1169 1.318 . S
C1174 C1173 1.396 . S
H1175 C1170 0.929 . S
O1176 Mn1152 2.385 . S
O1176 C1154 1.234 . S
O1177 Mn1152 2.209 . S
O1177 Mn1153 2.215 . S
O1177 C1154 1.283 . S
O1178 Mn1152 2.094 . S
O1178 C1156 1.240 . S
O1179 Mn1153 2.117 . S
O1179 C1156 1.264 . S
C1180 C1173 1.403 1_545 S
C1180 C1181 1.399 . S
C1180 H1186 0.929 . S
C1181 C1161 1.449 1_545 S
C1181 C1180 1.399 . S
C1181 H1187 0.930 . S
H1182 C1162 0.981 . S
H1183 C1163 0.930 . S
H1184 C1171 0.931 . S
H1185 C1172 0.929 . S
H1186 C1180 0.929 . S
H1187 C1181 0.930 . S
Mn1188 O1193 2.095 . S
Mn1188 O1203 2.162 . S
Mn1188 O1204 2.297 . S
Mn1188 O1212 2.385 . S
Mn1188 O1213 2.209 . S
Mn1188 O1214 2.094 . S
Mn1189 O1194 2.121 . S
Mn1189 N1196 2.257 . S
Mn1189 N1205 2.282 . S
Mn1189 O1213 2.215 . S
Mn1189 O1215 2.117 . S
C1190 O1212 1.234 . S
C1190 O1213 1.283 . S
C1191 O1203 1.281 . S
C1191 O1204 1.236 . S
C1192 O1214 1.240 . S
C1192 O1215 1.264 . S
O1193 Mn1188 2.095 . S
O1193 C1202 1.250 . S
O1194 Mn1189 2.121 . S
O1194 C1202 1.258 . S
C1195 N1196 1.326 . S
C1195 C1199 1.460 . S
C1195 H1201 0.929 . S
N1196 Mn1189 2.257 . S
N1196 C1195 1.326 . S
N1196 C1200 1.362 . S
C1197 C1198 1.258 . S
C1197 C1200 1.431 . S
C1197 C1217 1.449 . S
C1198 C1197 1.258 . S
C1198 C1199 1.477 . S
C1198 H1218 0.931 . S
C1199 C1195 1.460 . S
C1199 C1198 1.477 . S
C1199 H1219 0.930 . S
C1200 N1196 1.362 . S
C1200 C1197 1.431 . S
C1200 C1210 1.476 . S
H1201 C1195 0.929 . S
C1202 O1193 1.250 . S
C1202 O1194 1.258 . S
O1203 Mn1188 2.162 . S
O1203 C1191 1.281 . S
O1204 Mn1188 2.297 . S
O1204 C1191 1.236 . S
N1205 Mn1189 2.282 . S
N1205 C1206 1.328 . S
N1205 C1210 1.318 . S
C1206 N1205 1.328 . S
C1206 C1207 1.457 . S
C1206 H1211 0.929 . S
C1207 C1206 1.457 . S
C1207 C1208 1.291 . S
C1207 H1220 0.931 . S
C1208 C1207 1.291 . S
C1208 C1209 1.373 . S
C1208 H1221 0.929 . S
C1209 C1208 1.373 . S
C1209 C1210 1.396 . S
C1209 C1216 1.403 . S
C1210 C1200 1.476 . S
C1210 N1205 1.318 . S
C1210 C1209 1.396 . S
H1211 C1206 0.929 . S
O1212 Mn1188 2.385 . S
O1212 C1190 1.234 . S
O1213 Mn1188 2.209 . S
O1213 Mn1189 2.215 . S
O1213 C1190 1.283 . S
O1214 Mn1188 2.094 . S
O1214 C1192 1.240 . S
O1215 Mn1189 2.117 . S
O1215 C1192 1.264 . S
C1216 C1209 1.403 . S
C1216 C1217 1.399 . S
C1216 H1222 0.929 . S
C1217 C1197 1.449 . S
C1217 C1216 1.399 . S
C1217 H1223 0.930 . S
H1218 C1198 0.931 . S
H1219 C1199 0.930 . S
H1220 C1207 0.931 . S
H1221 C1208 0.929 . S
H1222 C1216 0.929 . S
H1223 C1217 0.930 . S
Mn1224 O1229 2.095 . S
Mn1224 O1239 2.162 . S
Mn1224 O1240 2.297 . S
Mn1224 O1248 2.385 . S
Mn1224 O1249 2.209 . S
Mn1224 O1250 2.094 . S
Mn1225 O1230 2.121 . S
Mn1225 N1232 2.257 . S
Mn1225 N1241 2.282 . S
Mn1225 O1249 2.215 . S
Mn1225 O1251 2.117 . S
C1226 O1248 1.234 . S
C1226 O1249 1.283 . S
C1227 O1239 1.281 . S
C1227 O1240 1.236 . S
C1228 O1250 1.240 . S
C1228 O1251 1.264 . S
O1229 Mn1224 2.095 . S
O1229 C1238 1.250 . S
O1230 Mn1225 2.121 . S
O1230 C1238 1.258 . S
C1231 N1232 1.326 . S
C1231 C1235 1.460 . S
C1231 H1237 0.929 . S
N1232 Mn1225 2.257 . S
N1232 C1231 1.326 . S
N1232 C1236 1.362 . S
C1233 C1234 1.258 . S
C1233 C1236 1.431 . S
C1233 C1253 1.449 . S
C1234 C1233 1.258 . S
C1234 C1235 1.477 . S
C1234 H1254 0.931 . S
C1235 C1231 1.460 . S
C1235 C1234 1.477 . S
C1235 H1255 0.930 . S
C1236 N1232 1.362 . S
C1236 C1233 1.431 . S
C1236 C1246 1.476 . S
H1237 C1231 0.929 . S
C1238 O1229 1.250 . S
C1238 O1230 1.258 . S
O1239 Mn1224 2.162 . S
O1239 C1227 1.281 . S
O1240 Mn1224 2.297 . S
O1240 C1227 1.236 . S
N1241 Mn1225 2.282 . S
N1241 C1242 1.328 . S
N1241 C1246 1.318 . S
C1242 N1241 1.328 . S
C1242 C1243 1.457 . S
C1242 H1247 0.929 . S
C1243 C1242 1.457 . S
C1243 C1244 1.291 . S
C1243 H1256 0.931 . S
C1244 C1243 1.291 . S
C1244 C1245 1.373 . S
C1244 H1257 0.929 . S
C1245 C1244 1.373 . S
C1245 C1246 1.396 . S
C1245 C1252 1.403 . S
C1246 C1236 1.476 . S
C1246 N1241 1.318 . S
C1246 C1245 1.396 . S
H1247 C1242 0.929 . S
O1248 Mn1224 2.385 . S
O1248 C1226 1.234 . S
O1249 Mn1224 2.209 . S
O1249 Mn1225 2.215 . S
O1249 C1226 1.283 . S
O1250 Mn1224 2.094 . S
O1250 C1228 1.240 . S
O1251 Mn1225 2.117 . S
O1251 C1228 1.264 . S
C1252 C1245 1.403 . S
C1252 C1253 1.399 . S
C1252 H1258 0.929 . S
C1253 C1233 1.449 . S
C1253 C1252 1.399 . S
C1253 H1259 0.930 . S
H1254 C1234 0.931 . S
H1255 C1235 0.930 . S
H1256 C1243 0.931 . S
H1257 C1244 0.929 . S
H1258 C1252 0.929 . S
H1259 C1253 0.930 . S
Mn1260 O1265 2.095 . S
Mn1260 O1275 2.162 . S
Mn1260 O1276 2.297 . S
Mn1260 O1284 2.385 . S
Mn1260 O1285 2.209 . S
Mn1260 O1286 2.094 . S
Mn1261 O1266 2.121 . S
Mn1261 N1268 2.257 . S
Mn1261 N1277 2.282 . S
Mn1261 O1285 2.215 . S
Mn1261 O1287 2.117 . S
C1262 O1284 1.234 . S
C1262 O1285 1.283 . S
C1263 O1275 1.281 . S
C1263 O1276 1.236 . S
C1264 O1286 1.240 . S
C1264 O1287 1.264 . S
O1265 Mn1260 2.095 . S
O1265 C1274 1.250 . S
O1266 Mn1261 2.121 . S
O1266 C1274 1.258 . S
C1267 N1268 1.326 . S
C1267 C1271 1.460 . S
C1267 H1273 0.929 . S
N1268 Mn1261 2.257 . S
N1268 C1267 1.326 . S
N1268 C1272 1.362 . S
C1269 C1270 1.258 . S
C1269 C1272 1.431 . S
C1269 C1289 1.449 . S
C1270 C1269 1.258 . S
C1270 C1271 1.477 . S
C1270 H1290 0.931 . S
C1271 C1267 1.460 . S
C1271 C1270 1.477 . S
C1271 H1291 0.930 . S
C1272 N1268 1.362 . S
C1272 C1269 1.431 . S
C1272 C1282 1.476 . S
H1273 C1267 0.929 . S
C1274 O1265 1.250 . S
C1274 O1266 1.258 . S
O1275 Mn1260 2.162 . S
O1275 C1263 1.281 . S
O1276 Mn1260 2.297 . S
O1276 C1263 1.236 . S
N1277 Mn1261 2.282 . S
N1277 C1278 1.328 . S
N1277 C1282 1.318 . S
C1278 N1277 1.328 . S
C1278 C1279 1.457 . S
C1278 H1283 0.929 . S
C1279 C1278 1.457 . S
C1279 C1280 1.291 . S
C1279 H1292 0.931 . S
C1280 C1279 1.291 . S
C1280 C1281 1.373 . S
C1280 H1293 0.929 . S
C1281 C1280 1.373 . S
C1281 C1282 1.396 . S
C1281 C1288 1.403 . S
C1282 C1272 1.476 . S
C1282 N1277 1.318 . S
C1282 C1281 1.396 . S
H1283 C1278 0.929 . S
O1284 Mn1260 2.385 . S
O1284 C1262 1.234 . S
O1285 Mn1260 2.209 . S
O1285 Mn1261 2.215 . S
O1285 C1262 1.283 . S
O1286 Mn1260 2.094 . S
O1286 C1264 1.240 . S
O1287 Mn1261 2.117 . S
O1287 C1264 1.264 . S
C1288 C1281 1.403 . S
C1288 C1289 1.399 . S
C1288 H1294 0.929 . S
C1289 C1269 1.449 . S
C1289 C1288 1.399 . S
C1289 H1295 0.930 . S
H1290 C1270 0.931 . S
H1291 C1271 0.930 . S
H1292 C1279 0.931 . S
H1293 C1280 0.929 . S
H1294 C1288 0.929 . S
H1295 C1289 0.930 . S
H1296 C1302 0.930 . S
H1297 C1306 0.930 . S
H1298 C1311 0.929 . S
H1299 C1309 0.929 . S
H1300 C1304 0.929 . S
H1301 C1310 0.929 . S
C1302 H1296 0.930 . S
C1302 C1303 1.367 . S
C1302 C1310 1.378 . S
C1303 C1302 1.367 . S
C1303 C1311 1.433 . S
C1304 H1300 0.929 . S
C1304 C1306 1.378 . S
C1304 C1308 1.350 . S
C1305 C1308 1.463 1_565 S
C1305 C1310 1.350 . S
C1305 N1313 1.427 . S
C1306 H1297 0.930 . S
C1306 C1304 1.378 . S
C1306 C1307 1.367 . S
C1307 C1306 1.367 . S
C1307 C1309 1.433 . S
C1308 C1304 1.350 . S
C1308 C1305 1.463 1_545 S
C1308 N1312 1.427 . S
C1309 H1299 0.929 . S
C1309 C1307 1.433 . S
C1309 N1312 1.384 . S
C1310 H1301 0.929 . S
C1310 C1302 1.378 . S
C1310 C1305 1.350 . S
C1311 H1298 0.929 . S
C1311 C1303 1.433 . S
C1311 N1313 1.384 . S
N1312 C1308 1.427 . S
N1312 C1309 1.384 . S
N1313 C1305 1.427 . S
N1313 C1311 1.384 . S
H1314 C1320 0.930 . S
H1315 C1324 0.930 . S
H1316 C1329 0.929 . S
H1317 C1327 0.929 . S
H1318 C1322 0.929 1_655 S
H1319 C1328 0.929 1_455 S
C1320 H1314 0.930 . S
C1320 C1321 1.367 . S
C1320 C1328 1.378 . S
C1321 C1320 1.367 . S
C1321 C1329 1.433 . S
C1322 H1318 0.929 1_455 S
C1322 C1324 1.378 . S
C1322 C1326 1.350 . S
C1323 C1326 1.463 1_655 S
C1323 C1328 1.350 . S
C1323 N1331 1.427 . S
C1324 H1315 0.930 . S
C1324 C1322 1.378 . S
C1324 C1325 1.367 . S
C1325 C1324 1.367 . S
C1325 C1327 1.433 . S
C1326 C1322 1.350 . S
C1326 C1323 1.463 1_455 S
C1326 N1330 1.427 . S
C1327 H1317 0.929 . S
C1327 C1325 1.433 . S
C1327 N1330 1.384 . S
C1328 H1319 0.929 1_655 S
C1328 C1320 1.378 . S
C1328 C1323 1.350 . S
C1329 H1316 0.929 . S
C1329 C1321 1.433 . S
C1329 N1331 1.384 . S
N1330 C1326 1.427 . S
N1330 C1327 1.384 . S
N1331 C1323 1.427 . S
N1331 C1329 1.384 . S
H1332 C1338 0.930 . S
H1333 C1342 0.930 . S
H1334 C1347 0.929 . S
H1335 C1345 0.929 . S
H1336 C1340 0.929 . S
H1337 C1346 0.929 . S
C1338 H1332 0.930 . S
C1338 C1339 1.367 . S
C1338 C1346 1.378 . S
C1339 C1338 1.367 . S
C1339 C1347 1.433 . S
C1340 H1336 0.929 . S
C1340 C1342 1.378 . S
C1340 C1344 1.350 . S
C1341 C1344 1.463 . S
C1341 C1346 1.350 . S
C1341 N1349 1.427 . S
C1342 H1333 0.930 . S
C1342 C1340 1.378 . S
C1342 C1343 1.367 . S
C1343 C1342 1.367 . S
C1343 C1345 1.433 . S
C1344 C1340 1.350 . S
C1344 C1341 1.463 . S
C1344 N1348 1.427 . S
C1345 H1335 0.929 . S
C1345 C1343 1.433 . S
C1345 N1348 1.384 . S
C1346 H1337 0.929 . S
C1346 C1338 1.378 . S
C1346 C1341 1.350 . S
C1347 H1334 0.929 . S
C1347 C1339 1.433 . S
C1347 N1349 1.384 . S
N1348 C1344 1.427 . S
N1348 C1345 1.384 . S
N1349 C1341 1.427 . S
N1349 C1347 1.384 . S
H1350 C1356 0.930 . S
H1351 C1360 0.930 . S
H1352 C1365 0.929 . S
H1353 C1363 0.929 . S
H1354 C1358 0.929 . S
H1355 C1364 0.929 . S
C1356 H1350 0.930 . S
C1356 C1357 1.367 . S
C1356 C1364 1.378 . S
C1357 C1356 1.367 . S
C1357 C1365 1.433 . S
C1358 H1354 0.929 . S
C1358 C1360 1.378 . S
C1358 C1362 1.350 . S
C1359 C1362 1.463 1_565 S
C1359 C1364 1.350 . S
C1359 N1367 1.427 . S
C1360 H1351 0.930 . S
C1360 C1358 1.378 . S
C1360 C1361 1.367 . S
C1361 C1360 1.367 . S
C1361 C1363 1.433 . S
C1362 C1358 1.350 . S
C1362 C1359 1.463 1_545 S
C1362 N1366 1.427 . S
C1363 H1353 0.929 . S
C1363 C1361 1.433 . S
C1363 N1366 1.384 . S
C1364 H1355 0.929 . S
C1364 C1356 1.378 . S
C1364 C1359 1.350 . S
C1365 H1352 0.929 . S
C1365 C1357 1.433 . S
C1365 N1367 1.384 . S
N1366 C1362 1.427 . S
N1366 C1363 1.384 . S
N1367 C1359 1.427 . S
N1367 C1365 1.384 . S
H1368 C1374 0.930 . S
H1369 C1378 0.930 . S
H1370 C1383 0.929 . S
H1371 C1381 0.929 . S
H1372 C1376 0.929 1_455 S
H1373 C1382 0.929 1_655 S
C1374 H1368 0.930 . S
C1374 C1375 1.367 . S
C1374 C1382 1.378 . S
C1375 C1374 1.367 . S
C1375 C1383 1.433 . S
C1376 H1372 0.929 1_655 S
C1376 C1378 1.378 . S
C1376 C1380 1.350 . S
C1377 C1380 1.463 1_455 S
C1377 C1382 1.350 . S
C1377 N1385 1.427 . S
C1378 H1369 0.930 . S
C1378 C1376 1.378 . S
C1378 C1379 1.367 . S
C1379 C1378 1.367 . S
C1379 C1381 1.433 . S
C1380 C1376 1.350 . S
C1380 C1377 1.463 1_655 S
C1380 N1384 1.427 . S
C1381 H1371 0.929 . S
C1381 C1379 1.433 . S
C1381 N1384 1.384 . S
C1382 H1373 0.929 1_455 S
C1382 C1374 1.378 . S
C1382 C1377 1.350 . S
C1383 H1370 0.929 . S
C1383 C1375 1.433 . S
C1383 N1385 1.384 . S
N1384 C1380 1.427 . S
N1384 C1381 1.384 . S
N1385 C1377 1.427 . S
N1385 C1383 1.384 . S
H1386 C1392 0.930 . S
H1387 C1396 0.930 . S
H1388 C1401 0.929 . S
H1389 C1399 0.929 . S
H1390 C1394 0.929 . S
H1391 C1400 0.929 . S
C1392 H1386 0.930 . S
C1392 C1393 1.367 . S
C1392 C1400 1.378 . S
C1393 C1392 1.367 . S
C1393 C1401 1.433 . S
C1394 H1390 0.929 . S
C1394 C1396 1.378 . S
C1394 C1398 1.350 . S
C1395 C1398 1.463 . S
C1395 C1400 1.350 . S
C1395 N1403 1.427 . S
C1396 H1387 0.930 . S
C1396 C1394 1.378 . S
C1396 C1397 1.367 . S
C1397 C1396 1.367 . S
C1397 C1399 1.433 . S
C1398 C1394 1.350 . S
C1398 C1395 1.463 . S
C1398 N1402 1.427 . S
C1399 H1389 0.929 . S
C1399 C1397 1.433 . S
C1399 N1402 1.384 . S
C1400 H1391 0.929 . S
C1400 C1392 1.378 . S
C1400 C1395 1.350 . S
C1401 H1388 0.929 . S
C1401 C1393 1.433 . S
C1401 N1403 1.384 . S
N1402 C1398 1.427 . S
N1402 C1399 1.384 . S
N1403 C1395 1.427 . S
N1403 C1401 1.384 . S
H1404 C1410 0.930 . S
H1405 C1414 0.930 . S
H1406 C1419 0.929 . S
H1407 C1417 0.929 . S
H1408 C1412 0.929 . S
H1409 C1418 0.929 . S
C1410 H1404 0.930 . S
C1410 C1411 1.367 . S
C1410 C1418 1.378 . S
C1411 C1410 1.367 . S
C1411 C1419 1.433 . S
C1412 H1408 0.929 . S
C1412 C1414 1.378 . S
C1412 C1416 1.350 . S
C1413 C1416 1.463 . S
C1413 C1418 1.350 . S
C1413 N1421 1.427 . S
C1414 H1405 0.930 . S
C1414 C1412 1.378 . S
C1414 C1415 1.367 . S
C1415 C1414 1.367 . S
C1415 C1417 1.433 . S
C1416 C1412 1.350 . S
C1416 C1413 1.463 . S
C1416 N1420 1.427 . S
C1417 H1407 0.929 . S
C1417 C1415 1.433 . S
C1417 N1420 1.384 . S
C1418 H1409 0.929 . S
C1418 C1410 1.378 . S
C1418 C1413 1.350 . S
C1419 H1406 0.929 . S
C1419 C1411 1.433 . S
C1419 N1421 1.384 . S
N1420 C1416 1.427 . S
N1420 C1417 1.384 . S
N1421 C1413 1.427 . S
N1421 C1419 1.384 . S
H1422 C1428 0.930 . S
H1423 C1432 0.930 . S
H1424 C1437 0.929 . S
H1425 C1435 0.929 . S
H1426 C1430 0.929 . S
H1427 C1436 0.929 . S
C1428 H1422 0.930 . S
C1428 C1429 1.367 . S
C1428 C1436 1.378 . S
C1429 C1428 1.367 . S
C1429 C1437 1.433 . S
C1430 H1426 0.929 . S
C1430 C1432 1.378 . S
C1430 C1434 1.350 . S
C1431 C1434 1.463 . S
C1431 C1436 1.350 . S
C1431 N1439 1.427 . S
C1432 H1423 0.930 . S
C1432 C1430 1.378 . S
C1432 C1433 1.367 . S
C1433 C1432 1.367 . S
C1433 C1435 1.433 . S
C1434 C1430 1.350 . S
C1434 C1431 1.463 . S
C1434 N1438 1.427 . S
C1435 H1425 0.929 . S
C1435 C1433 1.433 . S
C1435 N1438 1.384 . S
C1436 H1427 0.929 . S
C1436 C1428 1.378 . S
C1436 C1431 1.350 . S
C1437 H1424 0.929 . S
C1437 C1429 1.433 . S
C1437 N1439 1.384 . S
N1438 C1434 1.427 . S
N1438 C1435 1.384 . S
N1439 C1431 1.427 . S
N1439 C1437 1.384 . S
H1440 C1446 0.930 . S
H1441 C1450 0.930 . S
H1442 C1455 0.929 . S
H1443 C1453 0.929 . S
H1444 C1448 0.929 . S
H1445 C1454 0.929 . S
C1446 H1440 0.930 . S
C1446 C1447 1.367 . S
C1446 C1454 1.378 . S
C1447 C1446 1.367 . S
C1447 C1455 1.433 . S
C1448 H1444 0.929 . S
C1448 C1450 1.378 . S
C1448 C1452 1.350 . S
C1449 C1452 1.463 . S
C1449 C1454 1.350 . S
C1449 N1457 1.427 . S
C1450 H1441 0.930 . S
C1450 C1448 1.378 . S
C1450 C1451 1.367 . S
C1451 C1450 1.367 . S
C1451 C1453 1.433 . S
C1452 C1448 1.350 . S
C1452 C1449 1.463 . S
C1452 N1456 1.427 . S
C1453 H1443 0.929 . S
C1453 C1451 1.433 . S
C1453 N1456 1.384 . S
C1454 H1445 0.929 . S
C1454 C1446 1.378 . S
C1454 C1449 1.350 . S
C1455 H1442 0.929 . S
C1455 C1447 1.433 . S
C1455 N1457 1.384 . S
N1456 C1452 1.427 . S
N1456 C1453 1.384 . S
N1457 C1449 1.427 . S
N1457 C1455 1.384 . S
H1458 C1464 0.930 . S
H1459 C1468 0.930 . S
H1460 C1473 0.929 . S
H1461 C1471 0.929 . S
H1462 C1466 0.929 . S
H1463 C1472 0.929 . S
C1464 H1458 0.930 . S
C1464 C1465 1.367 . S
C1464 C1472 1.378 . S
C1465 C1464 1.367 . S
C1465 C1473 1.433 . S
C1466 H1462 0.929 . S
C1466 C1468 1.378 1_554 S
C1466 C1470 1.350 . S
C1467 C1470 1.463 . S
C1467 C1472 1.350 . S
C1467 N1475 1.427 . S
C1468 H1459 0.930 . S
C1468 C1466 1.378 1_556 S
C1468 C1469 1.367 . S
C1469 C1468 1.367 . S
C1469 C1471 1.433 . S
C1470 C1466 1.350 . S
C1470 C1467 1.463 . S
C1470 N1474 1.427 . S
C1471 H1461 0.929 . S
C1471 C1469 1.433 . S
C1471 N1474 1.384 1_556 S
C1472 H1463 0.929 . S
C1472 C1464 1.378 . S
C1472 C1467 1.350 . S
C1473 H1460 0.929 . S
C1473 C1465 1.433 . S
C1473 N1475 1.384 . S
N1474 C1470 1.427 . S
N1474 C1471 1.384 1_554 S
N1475 C1467 1.427 . S
N1475 C1473 1.384 . S
H1476 C1482 0.930 . S
H1477 C1486 0.930 . S
H1478 C1491 0.929 . S
H1479 C1489 0.929 . S
H1480 C1484 0.929 . S
H1481 C1490 0.929 . S
C1482 H1476 0.930 . S
C1482 C1483 1.367 . S
C1482 C1490 1.378 . S
C1483 C1482 1.367 . S
C1483 C1491 1.433 . S
C1484 H1480 0.929 . S
C1484 C1486 1.378 . S
C1484 C1488 1.350 . S
C1485 C1488 1.463 . S
C1485 C1490 1.350 . S
C1485 N1493 1.427 . S
C1486 H1477 0.930 . S
C1486 C1484 1.378 . S
C1486 C1487 1.367 1_554 S
C1487 C1486 1.367 1_556 S
C1487 C1489 1.433 . S
C1488 C1484 1.350 . S
C1488 C1485 1.463 . S
C1488 N1492 1.427 1_554 S
C1489 H1479 0.929 . S
C1489 C1487 1.433 . S
C1489 N1492 1.384 . S
C1490 H1481 0.929 . S
C1490 C1482 1.378 . S
C1490 C1485 1.350 . S
C1491 H1478 0.929 . S
C1491 C1483 1.433 . S
C1491 N1493 1.384 . S
N1492 C1488 1.427 1_556 S
N1492 C1489 1.384 . S
N1493 C1485 1.427 . S
N1493 C1491 1.384 . S
H1494 C1500 0.930 . S
H1495 C1504 0.930 1_556 S
H1496 C1509 0.929 . S
H1497 C1507 0.929 . S
H1498 C1502 0.929 . S
H1499 C1508 0.929 . S
C1500 H1494 0.930 . S
C1500 C1501 1.367 . S
C1500 C1508 1.378 . S
C1501 C1500 1.367 . S
C1501 C1509 1.433 . S
C1502 H1498 0.929 . S
C1502 C1504 1.378 . S
C1502 C1506 1.350 . S
C1503 C1506 1.463 . S
C1503 C1508 1.350 . S
C1503 N1511 1.427 . S
C1504 H1495 0.930 1_554 S
C1504 C1502 1.378 . S
C1504 C1505 1.367 1_554 S
C1505 C1504 1.367 1_556 S
C1505 C1507 1.433 . S
C1506 C1502 1.350 . S
C1506 C1503 1.463 . S
C1506 N1510 1.427 . S
C1507 H1497 0.929 . S
C1507 C1505 1.433 . S
C1507 N1510 1.384 1_556 S
C1508 H1499 0.929 . S
C1508 C1500 1.378 . S
C1508 C1503 1.350 . S
C1509 H1496 0.929 . S
C1509 C1501 1.433 . S
C1509 N1511 1.384 . S
N1510 C1506 1.427 . S
N1510 C1507 1.384 1_554 S
N1511 C1503 1.427 . S
N1511 C1509 1.384 . S
H1512 C1518 0.930 . S
H1513 C1522 0.930 . S
H1514 C1527 0.929 . S
H1515 C1525 0.929 . S
H1516 C1520 0.929 . S
H1517 C1526 0.929 . S
C1518 H1512 0.930 . S
C1518 C1519 1.367 . S
C1518 C1526 1.378 . S
C1519 C1518 1.367 . S
C1519 C1527 1.433 . S
C1520 H1516 0.929 . S
C1520 C1522 1.378 . S
C1520 C1524 1.350 1_554 S
C1521 C1524 1.463 . S
C1521 C1526 1.350 . S
C1521 N1529 1.427 . S
C1522 H1513 0.930 . S
C1522 C1520 1.378 . S
C1522 C1523 1.367 . S
C1523 C1522 1.367 . S
C1523 C1525 1.433 1_554 S
C1524 C1520 1.350 1_556 S
C1524 C1521 1.463 . S
C1524 N1528 1.427 . S
C1525 H1515 0.929 . S
C1525 C1523 1.433 1_556 S
C1525 N1528 1.384 . S
C1526 H1517 0.929 . S
C1526 C1518 1.378 . S
C1526 C1521 1.350 . S
C1527 H1514 0.929 . S
C1527 C1519 1.433 . S
C1527 N1529 1.384 . S
N1528 C1524 1.427 . S
N1528 C1525 1.384 . S
N1529 C1521 1.427 . S
N1529 C1527 1.384 . S
H1530 C1536 0.930 . S
H1531 C1540 0.930 . S
H1532 C1545 0.929 . S
H1533 C1543 0.929 . S
H1534 C1538 0.929 . S
H1535 C1544 0.929 . S
C1536 H1530 0.930 . S
C1536 C1537 1.367 . S
C1536 C1544 1.378 1_554 S
C1537 C1536 1.367 . S
C1537 C1545 1.433 . S
C1538 H1534 0.929 . S
C1538 C1540 1.378 . S
C1538 C1542 1.350 . S
C1539 C1542 1.463 . S
C1539 C1544 1.350 . S
C1539 N1547 1.427 . S
C1540 H1531 0.930 . S
C1540 C1538 1.378 . S
C1540 C1541 1.367 . S
C1541 C1540 1.367 . S
C1541 C1543 1.433 . S
C1542 C1538 1.350 . S
C1542 C1539 1.463 . S
C1542 N1546 1.427 . S
C1543 H1533 0.929 . S
C1543 C1541 1.433 . S
C1543 N1546 1.384 . S
C1544 H1535 0.929 . S
C1544 C1536 1.378 1_556 S
C1544 C1539 1.350 . S
C1545 H1532 0.929 . S
C1545 C1537 1.433 . S
C1545 N1547 1.384 1_554 S
N1546 C1542 1.427 . S
N1546 C1543 1.384 . S
N1547 C1539 1.427 . S
N1547 C1545 1.384 1_556 S
H1548 C1554 0.930 . S
H1549 C1558 0.930 . S
H1550 C1563 0.929 . S
H1551 C1561 0.929 . S
H1552 C1556 0.929 . S
H1553 C1562 0.929 . S
C1554 H1548 0.930 . S
C1554 C1555 1.367 . S
C1554 C1562 1.378 . S
C1555 C1554 1.367 . S
C1555 C1563 1.433 . S
C1556 H1552 0.929 . S
C1556 C1558 1.378 . S
C1556 C1560 1.350 . S
C1557 C1560 1.463 . S
C1557 C1562 1.350 . S
C1557 N1565 1.427 . S
C1558 H1549 0.930 . S
C1558 C1556 1.378 . S
C1558 C1559 1.367 1_556 S
C1559 C1558 1.367 1_554 S
C1559 C1561 1.433 . S
C1560 C1556 1.350 . S
C1560 C1557 1.463 . S
C1560 N1564 1.427 1_556 S
C1561 H1551 0.929 . S
C1561 C1559 1.433 . S
C1561 N1564 1.384 . S
C1562 H1553 0.929 . S
C1562 C1554 1.378 . S
C1562 C1557 1.350 . S
C1563 H1550 0.929 . S
C1563 C1555 1.433 . S
C1563 N1565 1.384 . S
N1564 C1560 1.427 1_554 S
N1564 C1561 1.384 . S
N1565 C1557 1.427 . S
N1565 C1563 1.384 . S
H1566 C1572 0.930 . S
H1567 C1576 0.930 . S
H1568 C1581 0.929 . S
H1569 C1579 0.929 . S
H1570 C1574 0.929 . S
H1571 C1580 0.929 . S
C1572 H1566 0.930 . S
C1572 C1573 1.367 . S
C1572 C1580 1.378 . S
C1573 C1572 1.367 . S
C1573 C1581 1.433 . S
C1574 H1570 0.929 . S
C1574 C1576 1.378 . S
C1574 C1578 1.350 . S
C1575 C1578 1.463 . S
C1575 C1580 1.350 . S
C1575 N1583 1.427 . S
C1576 H1567 0.930 . S
C1576 C1574 1.378 . S
C1576 C1577 1.367 . S
C1577 C1576 1.367 . S
C1577 C1579 1.433 . S
C1578 C1574 1.350 . S
C1578 C1575 1.463 . S
C1578 N1582 1.427 . S
C1579 H1569 0.929 . S
C1579 C1577 1.433 . S
C1579 N1582 1.384 . S
C1580 H1571 0.929 . S
C1580 C1572 1.378 . S
C1580 C1575 1.350 . S
C1581 H1568 0.929 . S
C1581 C1573 1.433 . S
C1581 N1583 1.384 . S
N1582 C1578 1.427 . S
N1582 C1579 1.384 . S
N1583 C1575 1.427 . S
N1583 C1581 1.384 . S
H1584 C1590 0.930 . S
H1585 C1594 0.930 . S
H1586 C1599 0.929 . S
H1587 C1597 0.929 . S
H1588 C1592 0.929 . S
H1589 C1598 0.929 . S
C1590 H1584 0.930 . S
C1590 C1591 1.367 . S
C1590 C1598 1.378 . S
C1591 C1590 1.367 . S
C1591 C1599 1.433 . S
C1592 H1588 0.929 . S
C1592 C1594 1.378 . S
C1592 C1596 1.350 . S
C1593 C1596 1.463 . S
C1593 C1598 1.350 . S
C1593 N1601 1.427 . S
C1594 H1585 0.930 . S
C1594 C1592 1.378 . S
C1594 C1595 1.367 . S
C1595 C1594 1.367 . S
C1595 C1597 1.433 . S
C1596 C1592 1.350 . S
C1596 C1593 1.463 . S
C1596 N1600 1.427 . S
C1597 H1587 0.929 . S
C1597 C1595 1.433 . S
C1597 N1600 1.384 . S
C1598 H1589 0.929 . S
C1598 C1590 1.378 . S
C1598 C1593 1.350 . S
C1599 H1586 0.929 . S
C1599 C1591 1.433 . S
C1599 N1601 1.384 . S
N1600 C1596 1.427 . S
N1600 C1597 1.384 . S
N1601 C1593 1.427 . S
N1601 C1599 1.384 . S
H1602 C1608 0.930 . S
H1603 C1612 0.930 . S
H1604 C1617 0.929 . S
H1605 C1615 0.929 . S
H1606 C1610 0.929 . S
H1607 C1616 0.929 . S
C1608 H1602 0.930 . S
C1608 C1609 1.367 . S
C1608 C1616 1.378 . S
C1609 C1608 1.367 . S
C1609 C1617 1.433 . S
C1610 H1606 0.929 . S
C1610 C1612 1.378 . S
C1610 C1614 1.350 . S
C1611 C1614 1.463 . S
C1611 C1616 1.350 . S
C1611 N1619 1.427 . S
C1612 H1603 0.930 . S
C1612 C1610 1.378 . S
C1612 C1613 1.367 . S
C1613 C1612 1.367 . S
C1613 C1615 1.433 . S
C1614 C1610 1.350 . S
C1614 C1611 1.463 . S
C1614 N1618 1.427 . S
C1615 H1605 0.929 . S
C1615 C1613 1.433 . S
C1615 N1618 1.384 . S
C1616 H1607 0.929 . S
C1616 C1608 1.378 . S
C1616 C1611 1.350 . S
C1617 H1604 0.929 . S
C1617 C1609 1.433 . S
C1617 N1619 1.384 . S
N1618 C1614 1.427 . S
N1618 C1615 1.384 . S
N1619 C1611 1.427 . S
N1619 C1617 1.384 . S
H1620 C1626 0.930 . S
H1621 C1630 0.930 . S
H1622 C1635 0.929 . S
H1623 C1633 0.929 . S
H1624 C1628 0.929 . S
H1625 C1634 0.929 . S
C1626 H1620 0.930 . S
C1626 C1627 1.367 . S
C1626 C1634 1.378 . S
C1627 C1626 1.367 . S
C1627 C1635 1.433 . S
C1628 H1624 0.929 . S
C1628 C1630 1.378 . S
C1628 C1632 1.350 . S
C1629 C1632 1.463 . S
C1629 C1634 1.350 . S
C1629 N1637 1.427 . S
C1630 H1621 0.930 . S
C1630 C1628 1.378 . S
C1630 C1631 1.367 . S
C1631 C1630 1.367 . S
C1631 C1633 1.433 . S
C1632 C1628 1.350 . S
C1632 C1629 1.463 . S
C1632 N1636 1.427 . S
C1633 H1623 0.929 . S
C1633 C1631 1.433 . S
C1633 N1636 1.384 . S
C1634 H1625 0.929 . S
C1634 C1626 1.378 . S
C1634 C1629 1.350 . S
C1635 H1622 0.929 . S
C1635 C1627 1.433 . S
C1635 N1637 1.384 . S
N1636 C1632 1.427 . S
N1636 C1633 1.384 . S
N1637 C1629 1.427 . S
N1637 C1635 1.384 . S
H1638 C1644 0.930 . S
H1639 C1648 0.930 . S
H1640 C1653 0.929 . S
H1641 C1651 0.929 . S
H1642 C1646 0.929 . S
H1643 C1652 0.929 . S
C1644 H1638 0.930 . S
C1644 C1645 1.367 . S
C1644 C1652 1.378 . S
C1645 C1644 1.367 . S
C1645 C1653 1.433 . S
C1646 H1642 0.929 . S
C1646 C1648 1.378 . S
C1646 C1650 1.350 . S
C1647 C1650 1.463 . S
C1647 C1652 1.350 . S
C1647 N1655 1.427 . S
C1648 H1639 0.930 . S
C1648 C1646 1.378 . S
C1648 C1649 1.367 . S
C1649 C1648 1.367 . S
C1649 C1651 1.433 . S
C1650 C1646 1.350 . S
C1650 C1647 1.463 . S
C1650 N1654 1.427 . S
C1651 H1641 0.929 . S
C1651 C1649 1.433 . S
C1651 N1654 1.384 . S
C1652 H1643 0.929 . S
C1652 C1644 1.378 . S
C1652 C1647 1.350 . S
C1653 H1640 0.929 . S
C1653 C1645 1.433 . S
C1653 N1655 1.384 . S
N1654 C1650 1.427 . S
N1654 C1651 1.384 . S
N1655 C1647 1.427 . S
N1655 C1653 1.384 . S
H1656 C1662 0.930 . S
H1657 C1666 0.930 . S
H1658 C1671 0.929 . S
H1659 C1669 0.929 . S
H1660 C1664 0.929 . S
H1661 C1670 0.929 . S
C1662 H1656 0.930 . S
C1662 C1663 1.367 . S
C1662 C1670 1.378 . S
C1663 C1662 1.367 . S
C1663 C1671 1.433 . S
C1664 H1660 0.929 . S
C1664 C1666 1.378 . S
C1664 C1668 1.350 . S
C1665 C1668 1.463 . S
C1665 C1670 1.350 . S
C1665 N1673 1.427 . S
C1666 H1657 0.930 . S
C1666 C1664 1.378 . S
C1666 C1667 1.367 . S
C1667 C1666 1.367 . S
C1667 C1669 1.433 . S
C1668 C1664 1.350 . S
C1668 C1665 1.463 . S
C1668 N1672 1.427 . S
C1669 H1659 0.929 . S
C1669 C1667 1.433 . S
C1669 N1672 1.384 . S
C1670 H1661 0.929 . S
C1670 C1662 1.378 . S
C1670 C1665 1.350 . S
C1671 H1658 0.929 . S
C1671 C1663 1.433 . S
C1671 N1673 1.384 . S
N1672 C1668 1.427 . S
N1672 C1669 1.384 . S
N1673 C1665 1.427 . S
N1673 C1671 1.384 . S
H1674 C1680 0.930 . S
H1675 C1684 0.930 . S
H1676 C1689 0.929 . S
H1677 C1687 0.929 . S
H1678 C1682 0.929 . S
H1679 C1688 0.929 . S
C1680 H1674 0.930 . S
C1680 C1681 1.367 . S
C1680 C1688 1.378 . S
C1681 C1680 1.367 . S
C1681 C1689 1.433 . S
C1682 H1678 0.929 . S
C1682 C1684 1.378 . S
C1682 C1686 1.350 . S
C1683 C1686 1.463 . S
C1683 C1688 1.350 . S
C1683 N1691 1.427 . S
C1684 H1675 0.930 . S
C1684 C1682 1.378 . S
C1684 C1685 1.367 . S
C1685 C1684 1.367 . S
C1685 C1687 1.433 . S
C1686 C1682 1.350 . S
C1686 C1683 1.463 . S
C1686 N1690 1.427 . S
C1687 H1677 0.929 . S
C1687 C1685 1.433 . S
C1687 N1690 1.384 . S
C1688 H1679 0.929 . S
C1688 C1680 1.378 . S
C1688 C1683 1.350 . S
C1689 H1676 0.929 . S
C1689 C1681 1.433 . S
C1689 N1691 1.384 . S
N1690 C1686 1.427 . S
N1690 C1687 1.384 . S
N1691 C1683 1.427 . S
N1691 C1689 1.384 . S
H1692 C1698 0.930 . S
H1693 C1702 0.930 . S
H1694 C1707 0.929 . S
H1695 C1705 0.929 . S
H1696 C1700 0.929 . S
H1697 C1706 0.929 . S
C1698 H1692 0.930 . S
C1698 C1699 1.367 . S
C1698 C1706 1.378 . S
C1699 C1698 1.367 . S
C1699 C1707 1.433 . S
C1700 H1696 0.929 . S
C1700 C1702 1.378 . S
C1700 C1704 1.350 . S
C1701 C1704 1.463 . S
C1701 C1706 1.350 . S
C1701 N1709 1.427 . S
C1702 H1693 0.930 . S
C1702 C1700 1.378 . S
C1702 C1703 1.367 . S
C1703 C1702 1.367 . S
C1703 C1705 1.433 . S
C1704 C1700 1.350 . S
C1704 C1701 1.463 . S
C1704 N1708 1.427 . S
C1705 H1695 0.929 . S
C1705 C1703 1.433 . S
C1705 N1708 1.384 . S
C1706 H1697 0.929 . S
C1706 C1698 1.378 . S
C1706 C1701 1.350 . S
C1707 H1694 0.929 . S
C1707 C1699 1.433 . S
C1707 N1709 1.384 . S
N1708 C1704 1.427 . S
N1708 C1705 1.384 . S
N1709 C1701 1.427 . S
N1709 C1707 1.384 . S
H1710 C1716 0.930 . S
H1711 C1720 0.930 . S
H1712 C1725 0.929 . S
H1713 C1723 0.929 . S
H1714 C1718 0.929 . S
H1715 C1724 0.929 . S
C1716 H1710 0.930 . S
C1716 C1717 1.367 . S
C1716 C1724 1.378 . S
C1717 C1716 1.367 . S
C1717 C1725 1.433 . S
C1718 H1714 0.929 . S
C1718 C1720 1.378 . S
C1718 C1722 1.350 . S
C1719 C1722 1.463 . S
C1719 C1724 1.350 . S
C1719 N1727 1.427 . S
C1720 H1711 0.930 . S
C1720 C1718 1.378 . S
C1720 C1721 1.367 . S
C1721 C1720 1.367 . S
C1721 C1723 1.433 . S
C1722 C1718 1.350 . S
C1722 C1719 1.463 . S
C1722 N1726 1.427 . S
C1723 H1713 0.929 . S
C1723 C1721 1.433 . S
C1723 N1726 1.384 . S
C1724 H1715 0.929 . S
C1724 C1716 1.378 . S
C1724 C1719 1.350 . S
C1725 H1712 0.929 . S
C1725 C1717 1.433 . S
C1725 N1727 1.384 . S
N1726 C1722 1.427 . S
N1726 C1723 1.384 . S
N1727 C1719 1.427 . S
N1727 C1725 1.384 . S
H1728 C1734 0.930 . S
H1729 C1738 0.930 . S
H1730 C1743 0.929 . S
H1731 C1741 0.929 . S
H1732 C1736 0.929 . S
H1733 C1742 0.929 . S
C1734 H1728 0.930 . S
C1734 C1735 1.367 . S
C1734 C1742 1.378 . S
C1735 C1734 1.367 . S
C1735 C1743 1.433 . S
C1736 H1732 0.929 . S
C1736 C1738 1.378 . S
C1736 C1740 1.350 . S
C1737 C1740 1.463 . S
C1737 C1742 1.350 . S
C1737 N1745 1.427 . S
C1738 H1729 0.930 . S
C1738 C1736 1.378 . S
C1738 C1739 1.367 . S
C1739 C1738 1.367 . S
C1739 C1741 1.433 . S
C1740 C1736 1.350 . S
C1740 C1737 1.463 . S
C1740 N1744 1.427 . S
C1741 H1731 0.929 . S
C1741 C1739 1.433 . S
C1741 N1744 1.384 . S
C1742 H1733 0.929 . S
C1742 C1734 1.378 . S
C1742 C1737 1.350 . S
C1743 H1730 0.929 . S
C1743 C1735 1.433 . S
C1743 N1745 1.384 . S
N1744 C1740 1.427 . S
N1744 C1741 1.384 . S
N1745 C1737 1.427 . S
N1745 C1743 1.384 . S
H1746 C1752 0.930 . S
H1747 C1756 0.930 . S
H1748 C1761 0.929 . S
H1749 C1759 0.929 . S
H1750 C1754 0.929 . S
H1751 C1760 0.929 . S
C1752 H1746 0.930 . S
C1752 C1753 1.367 . S
C1752 C1760 1.378 . S
C1753 C1752 1.367 . S
C1753 C1761 1.433 . S
C1754 H1750 0.929 . S
C1754 C1756 1.378 . S
C1754 C1758 1.350 . S
C1755 C1758 1.463 . S
C1755 C1760 1.350 . S
C1755 N1763 1.427 . S
C1756 H1747 0.930 . S
C1756 C1754 1.378 . S
C1756 C1757 1.367 . S
C1757 C1756 1.367 . S
C1757 C1759 1.433 . S
C1758 C1754 1.350 . S
C1758 C1755 1.463 . S
C1758 N1762 1.427 . S
C1759 H1749 0.929 . S
C1759 C1757 1.433 . S
C1759 N1762 1.384 . S
C1760 H1751 0.929 . S
C1760 C1752 1.378 . S
C1760 C1755 1.350 . S
C1761 H1748 0.929 . S
C1761 C1753 1.433 . S
C1761 N1763 1.384 . S
N1762 C1758 1.427 . S
N1762 C1759 1.384 . S
N1763 C1755 1.427 . S
N1763 C1761 1.384 . S
H1764 C1770 0.930 . S
H1765 C1774 0.930 . S
H1766 C1779 0.929 . S
H1767 C1777 0.929 . S
H1768 C1772 0.929 . S
H1769 C1778 0.929 . S
C1770 H1764 0.930 . S
C1770 C1771 1.367 . S
C1770 C1778 1.378 . S
C1771 C1770 1.367 . S
C1771 C1779 1.433 . S
C1772 H1768 0.929 . S
C1772 C1774 1.378 . S
C1772 C1776 1.350 . S
C1773 C1776 1.463 . S
C1773 C1778 1.350 . S
C1773 N1781 1.427 . S
C1774 H1765 0.930 . S
C1774 C1772 1.378 . S
C1774 C1775 1.367 . S
C1775 C1774 1.367 . S
C1775 C1777 1.433 . S
C1776 C1772 1.350 . S
C1776 C1773 1.463 . S
C1776 N1780 1.427 . S
C1777 H1767 0.929 . S
C1777 C1775 1.433 . S
C1777 N1780 1.384 . S
C1778 H1769 0.929 . S
C1778 C1770 1.378 . S
C1778 C1773 1.350 . S
C1779 H1766 0.929 . S
C1779 C1771 1.433 . S
C1779 N1781 1.384 . S
N1780 C1776 1.427 . S
N1780 C1777 1.384 . S
N1781 C1773 1.427 . S
N1781 C1779 1.384 . S
H1782 C1788 0.930 . S
H1783 C1792 0.930 . S
H1784 C1797 0.929 . S
H1785 C1795 0.929 . S
H1786 C1790 0.929 . S
H1787 C1796 0.929 . S
C1788 H1782 0.930 . S
C1788 C1789 1.367 . S
C1788 C1796 1.378 . S
C1789 C1788 1.367 . S
C1789 C1797 1.433 . S
C1790 H1786 0.929 . S
C1790 C1792 1.378 . S
C1790 C1794 1.350 . S
C1791 C1794 1.463 . S
C1791 C1796 1.350 . S
C1791 N1799 1.427 . S
C1792 H1783 0.930 . S
C1792 C1790 1.378 . S
C1792 C1793 1.367 . S
C1793 C1792 1.367 . S
C1793 C1795 1.433 . S
C1794 C1790 1.350 . S
C1794 C1791 1.463 . S
C1794 N1798 1.427 . S
C1795 H1785 0.929 . S
C1795 C1793 1.433 . S
C1795 N1798 1.384 . S
C1796 H1787 0.929 . S
C1796 C1788 1.378 . S
C1796 C1791 1.350 . S
C1797 H1784 0.929 . S
C1797 C1789 1.433 . S
C1797 N1799 1.384 . S
N1798 C1794 1.427 . S
N1798 C1795 1.384 . S
N1799 C1791 1.427 . S
N1799 C1797 1.384 . S
H1800 C1806 0.930 . S
H1801 C1810 0.930 . S
H1802 C1815 0.929 . S
H1803 C1813 0.929 . S
H1804 C1808 0.929 . S
H1805 C1814 0.929 . S
C1806 H1800 0.930 . S
C1806 C1807 1.367 . S
C1806 C1814 1.378 . S
C1807 C1806 1.367 . S
C1807 C1815 1.433 . S
C1808 H1804 0.929 . S
C1808 C1810 1.378 . S
C1808 C1812 1.350 . S
C1809 C1812 1.463 . S
C1809 C1814 1.350 . S
C1809 N1817 1.427 . S
C1810 H1801 0.930 . S
C1810 C1808 1.378 . S
C1810 C1811 1.367 . S
C1811 C1810 1.367 . S
C1811 C1813 1.433 . S
C1812 C1808 1.350 . S
C1812 C1809 1.463 . S
C1812 N1816 1.427 . S
C1813 H1803 0.929 . S
C1813 C1811 1.433 . S
C1813 N1816 1.384 . S
C1814 H1805 0.929 . S
C1814 C1806 1.378 . S
C1814 C1809 1.350 . S
C1815 H1802 0.929 . S
C1815 C1807 1.433 . S
C1815 N1817 1.384 . S
N1816 C1812 1.427 . S
N1816 C1813 1.384 . S
N1817 C1809 1.427 . S
N1817 C1815 1.384 . S
H1818 C1824 0.930 . S
H1819 C1828 0.930 . S
H1820 C1833 0.929 . S
H1821 C1831 0.929 . S
H1822 C1826 0.929 . S
H1823 C1832 0.929 . S
C1824 H1818 0.930 . S
C1824 C1825 1.367 . S
C1824 C1832 1.378 . S
C1825 C1824 1.367 . S
C1825 C1833 1.433 . S
C1826 H1822 0.929 . S
C1826 C1828 1.378 . S
C1826 C1830 1.350 . S
C1827 C1830 1.463 . S
C1827 C1832 1.350 . S
C1827 N1835 1.427 . S
C1828 H1819 0.930 . S
C1828 C1826 1.378 . S
C1828 C1829 1.367 . S
C1829 C1828 1.367 . S
C1829 C1831 1.433 . S
C1830 C1826 1.350 . S
C1830 C1827 1.463 . S
C1830 N1834 1.427 . S
C1831 H1821 0.929 . S
C1831 C1829 1.433 . S
C1831 N1834 1.384 . S
C1832 H1823 0.929 . S
C1832 C1824 1.378 . S
C1832 C1827 1.350 . S
C1833 H1820 0.929 . S
C1833 C1825 1.433 . S
C1833 N1835 1.384 . S
N1834 C1830 1.427 . S
N1834 C1831 1.384 . S
N1835 C1827 1.427 . S
N1835 C1833 1.384 . S
H1836 C1842 0.930 . S
H1837 C1846 0.930 . S
H1838 C1851 0.929 . S
H1839 C1849 0.929 . S
H1840 C1844 0.929 . S
H1841 C1850 0.929 . S
C1842 H1836 0.930 . S
C1842 C1843 1.367 . S
C1842 C1850 1.378 . S
C1843 C1842 1.367 . S
C1843 C1851 1.433 . S
C1844 H1840 0.929 . S
C1844 C1846 1.378 1_554 S
C1844 C1848 1.350 . S
C1845 C1848 1.463 . S
C1845 C1850 1.350 . S
C1845 N1853 1.427 . S
C1846 H1837 0.930 . S
C1846 C1844 1.378 1_556 S
C1846 C1847 1.367 1_556 S
C1847 C1846 1.367 1_554 S
C1847 C1849 1.433 . S
C1848 C1844 1.350 . S
C1848 C1845 1.463 . S
C1848 N1852 1.427 . S
C1849 H1839 0.929 . S
C1849 C1847 1.433 . S
C1849 N1852 1.384 . S
C1850 H1841 0.929 . S
C1850 C1842 1.378 . S
C1850 C1845 1.350 . S
C1851 H1838 0.929 . S
C1851 C1843 1.433 . S
C1851 N1853 1.384 . S
N1852 C1848 1.427 . S
N1852 C1849 1.384 . S
N1853 C1845 1.427 . S
N1853 C1851 1.384 . S
H1854 C1860 0.930 . S
H1855 C1864 0.930 . S
H1856 C1869 0.929 . S
H1857 C1867 0.929 . S
H1858 C1862 0.929 . S
H1859 C1868 0.929 . S
C1860 H1854 0.930 . S
C1860 C1861 1.367 . S
C1860 C1868 1.378 . S
C1861 C1860 1.367 . S
C1861 C1869 1.433 . S
C1862 H1858 0.929 . S
C1862 C1864 1.378 . S
C1862 C1866 1.350 . S
C1863 C1866 1.463 . S
C1863 C1868 1.350 . S
C1863 N1871 1.427 . S
C1864 H1855 0.930 . S
C1864 C1862 1.378 . S
C1864 C1865 1.367 . S
C1865 C1864 1.367 . S
C1865 C1867 1.433 . S
C1866 C1862 1.350 . S
C1866 C1863 1.463 . S
C1866 N1870 1.427 . S
C1867 H1857 0.929 . S
C1867 C1865 1.433 . S
C1867 N1870 1.384 . S
C1868 H1859 0.929 . S
C1868 C1860 1.378 . S
C1868 C1863 1.350 . S
C1869 H1856 0.929 . S
C1869 C1861 1.433 . S
C1869 N1871 1.384 . S
N1870 C1866 1.427 . S
N1870 C1867 1.384 . S
N1871 C1863 1.427 . S
N1871 C1869 1.384 . S
H1872 C1878 0.930 . S
H1873 C1882 0.930 . S
H1874 C1887 0.929 1_556 S
H1875 C1885 0.929 . S
H1876 C1880 0.929 . S
H1877 C1886 0.929 . S
C1878 H1872 0.930 . S
C1878 C1879 1.367 . S
C1878 C1886 1.378 . S
C1879 C1878 1.367 . S
C1879 C1887 1.433 . S
C1880 H1876 0.929 . S
C1880 C1882 1.378 . S
C1880 C1884 1.350 . S
C1881 C1884 1.463 . S
C1881 C1886 1.350 . S
C1881 N1889 1.427 . S
C1882 H1873 0.930 . S
C1882 C1880 1.378 . S
C1882 C1883 1.367 . S
C1883 C1882 1.367 . S
C1883 C1885 1.433 . S
C1884 C1880 1.350 . S
C1884 C1881 1.463 . S
C1884 N1888 1.427 . S
C1885 H1875 0.929 . S
C1885 C1883 1.433 . S
C1885 N1888 1.384 . S
C1886 H1877 0.929 . S
C1886 C1878 1.378 . S
C1886 C1881 1.350 . S
C1887 H1874 0.929 1_554 S
C1887 C1879 1.433 . S
C1887 N1889 1.384 . S
N1888 C1884 1.427 . S
N1888 C1885 1.384 . S
N1889 C1881 1.427 . S
N1889 C1887 1.384 . S
H1890 C1896 0.930 . S
H1891 C1900 0.930 . S
H1892 C1905 0.929 . S
H1893 C1903 0.929 . S
H1894 C1898 0.929 . S
H1895 C1904 0.929 . S
C1896 H1890 0.930 . S
C1896 C1897 1.367 . S
C1896 C1904 1.378 . S
C1897 C1896 1.367 . S
C1897 C1905 1.433 . S
C1898 H1894 0.929 . S
C1898 C1900 1.378 . S
C1898 C1902 1.350 . S
C1899 C1902 1.463 . S
C1899 C1904 1.350 1_554 S
C1899 N1907 1.427 . S
C1900 H1891 0.930 . S
C1900 C1898 1.378 . S
C1900 C1901 1.367 . S
C1901 C1900 1.367 . S
C1901 C1903 1.433 . S
C1902 C1898 1.350 . S
C1902 C1899 1.463 . S
C1902 N1906 1.427 . S
C1903 H1893 0.929 . S
C1903 C1901 1.433 . S
C1903 N1906 1.384 . S
C1904 H1895 0.929 . S
C1904 C1896 1.378 . S
C1904 C1899 1.350 1_556 S
C1905 H1892 0.929 . S
C1905 C1897 1.433 . S
C1905 N1907 1.384 1_556 S
N1906 C1902 1.427 . S
N1906 C1903 1.384 . S
N1907 C1899 1.427 . S
N1907 C1905 1.384 1_554 S
H1908 C1914 0.930 . S
H1909 C1918 0.930 . S
H1910 C1923 0.929 . S
H1911 C1921 0.929 . S
H1912 C1916 0.929 . S
H1913 C1922 0.929 . S
C1914 H1908 0.930 . S
C1914 C1915 1.367 . S
C1914 C1922 1.378 . S
C1915 C1914 1.367 . S
C1915 C1923 1.433 . S
C1916 H1912 0.929 . S
C1916 C1918 1.378 . S
C1916 C1920 1.350 . S
C1917 C1920 1.463 . S
C1917 C1922 1.350 1_554 S
C1917 N1925 1.427 . S
C1918 H1909 0.930 . S
C1918 C1916 1.378 . S
C1918 C1919 1.367 . S
C1919 C1918 1.367 . S
C1919 C1921 1.433 . S
C1920 C1916 1.350 . S
C1920 C1917 1.463 . S
C1920 N1924 1.427 . S
C1921 H1911 0.929 . S
C1921 C1919 1.433 . S
C1921 N1924 1.384 . S
C1922 H1913 0.929 . S
C1922 C1914 1.378 . S
C1922 C1917 1.350 1_556 S
C1923 H1910 0.929 . S
C1923 C1915 1.433 . S
C1923 N1925 1.384 1_556 S
N1924 C1920 1.427 . S
N1924 C1921 1.384 . S
N1925 C1917 1.427 . S
N1925 C1923 1.384 1_554 S
H1926 C1932 0.930 . S
H1927 C1936 0.930 . S
H1928 C1941 0.929 . S
H1929 C1939 0.929 . S
H1930 C1934 0.929 . S
H1931 C1940 0.929 . S
C1932 H1926 0.930 . S
C1932 C1933 1.367 . S
C1932 C1940 1.378 1_556 S
C1933 C1932 1.367 . S
C1933 C1941 1.433 . S
C1934 H1930 0.929 . S
C1934 C1936 1.378 . S
C1934 C1938 1.350 . S
C1935 C1938 1.463 . S
C1935 C1940 1.350 . S
C1935 N1943 1.427 1_554 S
C1936 H1927 0.930 . S
C1936 C1934 1.378 . S
C1936 C1937 1.367 . S
C1937 C1936 1.367 . S
C1937 C1939 1.433 . S
C1938 C1934 1.350 . S
C1938 C1935 1.463 . S
C1938 N1942 1.427 . S
C1939 H1929 0.929 . S
C1939 C1937 1.433 . S
C1939 N1942 1.384 . S
C1940 H1931 0.929 . S
C1940 C1932 1.378 1_554 S
C1940 C1935 1.350 . S
C1941 H1928 0.929 . S
C1941 C1933 1.433 . S
C1941 N1943 1.384 . S
N1942 C1938 1.427 . S
N1942 C1939 1.384 . S
N1943 C1935 1.427 1_556 S
N1943 C1941 1.384 . S
H1944 C1950 0.930 . S
H1945 C1954 0.930 . S
H1946 C1959 0.929 . S
H1947 C1957 0.929 . S
H1948 C1952 0.929 . S
H1949 C1958 0.929 . S
C1950 H1944 0.930 . S
C1950 C1951 1.367 . S
C1950 C1958 1.378 . S
C1951 C1950 1.367 . S
C1951 C1959 1.433 . S
C1952 H1948 0.929 . S
C1952 C1954 1.378 . S
C1952 C1956 1.350 . S
C1953 C1956 1.463 . S
C1953 C1958 1.350 . S
C1953 N1961 1.427 . S
C1954 H1945 0.930 . S
C1954 C1952 1.378 . S
C1954 C1955 1.367 . S
C1955 C1954 1.367 . S
C1955 C1957 1.433 . S
C1956 C1952 1.350 . S
C1956 C1953 1.463 . S
C1956 N1960 1.427 . S
C1957 H1947 0.929 . S
C1957 C1955 1.433 . S
C1957 N1960 1.384 . S
C1958 H1949 0.929 . S
C1958 C1950 1.378 . S
C1958 C1953 1.350 . S
C1959 H1946 0.929 . S
C1959 C1951 1.433 . S
C1959 N1961 1.384 . S
N1960 C1956 1.427 . S
N1960 C1957 1.384 . S
N1961 C1953 1.427 . S
N1961 C1959 1.384 . S
H1962 C1968 0.930 . S
H1963 C1972 0.930 . S
H1964 C1977 0.929 . S
H1965 C1975 0.929 . S
H1966 C1970 0.929 . S
H1967 C1976 0.929 . S
C1968 H1962 0.930 . S
C1968 C1969 1.367 . S
C1968 C1976 1.378 . S
C1969 C1968 1.367 . S
C1969 C1977 1.433 . S
C1970 H1966 0.929 . S
C1970 C1972 1.378 . S
C1970 C1974 1.350 . S
C1971 C1974 1.463 . S
C1971 C1976 1.350 . S
C1971 N1979 1.427 . S
C1972 H1963 0.930 . S
C1972 C1970 1.378 . S
C1972 C1973 1.367 . S
C1973 C1972 1.367 . S
C1973 C1975 1.433 . S
C1974 C1970 1.350 . S
C1974 C1971 1.463 . S
C1974 N1978 1.427 . S
C1975 H1965 0.929 . S
C1975 C1973 1.433 . S
C1975 N1978 1.384 . S
C1976 H1967 0.929 . S
C1976 C1968 1.378 . S
C1976 C1971 1.350 . S
C1977 H1964 0.929 . S
C1977 C1969 1.433 . S
C1977 N1979 1.384 . S
N1978 C1974 1.427 . S
N1978 C1975 1.384 . S
N1979 C1971 1.427 . S
N1979 C1977 1.384 . S
H1980 C1986 0.930 . S
H1981 C1990 0.930 . S
H1982 C1995 0.929 . S
H1983 C1993 0.929 . S
H1984 C1988 0.929 . S
H1985 C1994 0.929 . S
C1986 H1980 0.930 . S
C1986 C1987 1.367 . S
C1986 C1994 1.378 . S
C1987 C1986 1.367 . S
C1987 C1995 1.433 . S
C1988 H1984 0.929 . S
C1988 C1990 1.378 . S
C1988 C1992 1.350 . S
C1989 C1992 1.463 . S
C1989 C1994 1.350 . S
C1989 N1997 1.427 . S
C1990 H1981 0.930 . S
C1990 C1988 1.378 . S
C1990 C1991 1.367 . S
C1991 C1990 1.367 . S
C1991 C1993 1.433 . S
C1992 C1988 1.350 . S
C1992 C1989 1.463 . S
C1992 N1996 1.427 . S
C1993 H1983 0.929 . S
C1993 C1991 1.433 . S
C1993 N1996 1.384 . S
C1994 H1985 0.929 . S
C1994 C1986 1.378 . S
C1994 C1989 1.350 . S
C1995 H1982 0.929 . S
C1995 C1987 1.433 . S
C1995 N1997 1.384 . S
N1996 C1992 1.427 . S
N1996 C1993 1.384 . S
N1997 C1989 1.427 . S
N1997 C1995 1.384 . S
H1998 C2004 0.930 . S
H1999 C2008 0.930 . S
H2000 C2013 0.929 . S
H2001 C2011 0.929 . S
H2002 C2006 0.929 . S
H2003 C2012 0.929 . S
C2004 H1998 0.930 . S
C2004 C2005 1.367 . S
C2004 C2012 1.378 . S
C2005 C2004 1.367 . S
C2005 C2013 1.433 . S
C2006 H2002 0.929 . S
C2006 C2008 1.378 . S
C2006 C2010 1.350 . S
C2007 C2010 1.463 . S
C2007 C2012 1.350 . S
C2007 N2015 1.427 . S
C2008 H1999 0.930 . S
C2008 C2006 1.378 . S
C2008 C2009 1.367 . S
C2009 C2008 1.367 . S
C2009 C2011 1.433 . S
C2010 C2006 1.350 . S
C2010 C2007 1.463 . S
C2010 N2014 1.427 . S
C2011 H2001 0.929 . S
C2011 C2009 1.433 . S
C2011 N2014 1.384 . S
C2012 H2003 0.929 . S
C2012 C2004 1.378 . S
C2012 C2007 1.350 . S
C2013 H2000 0.929 . S
C2013 C2005 1.433 . S
C2013 N2015 1.384 . S
N2014 C2010 1.427 . S
N2014 C2011 1.384 . S
N2015 C2007 1.427 . S
N2015 C2013 1.384 . S
H2016 C2022 0.930 . S
H2017 C2026 0.930 . S
H2018 C2031 0.929 . S
H2019 C2029 0.929 . S
H2020 C2024 0.929 . S
H2021 C2030 0.929 . S
C2022 H2016 0.930 . S
C2022 C2023 1.367 . S
C2022 C2030 1.378 . S
C2023 C2022 1.367 . S
C2023 C2031 1.433 . S
C2024 H2020 0.929 . S
C2024 C2026 1.378 . S
C2024 C2028 1.350 . S
C2025 C2028 1.463 . S
C2025 C2030 1.350 . S
C2025 N2033 1.427 . S
C2026 H2017 0.930 . S
C2026 C2024 1.378 . S
C2026 C2027 1.367 . S
C2027 C2026 1.367 . S
C2027 C2029 1.433 . S
C2028 C2024 1.350 . S
C2028 C2025 1.463 . S
C2028 N2032 1.427 . S
C2029 H2019 0.929 . S
C2029 C2027 1.433 . S
C2029 N2032 1.384 . S
C2030 H2021 0.929 . S
C2030 C2022 1.378 . S
C2030 C2025 1.350 . S
C2031 H2018 0.929 . S
C2031 C2023 1.433 . S
C2031 N2033 1.384 . S
N2032 C2028 1.427 . S
N2032 C2029 1.384 . S
N2033 C2025 1.427 . S
N2033 C2031 1.384 . S
H2034 C2040 0.930 . S
H2035 C2044 0.930 . S
H2036 C2049 0.929 . S
H2037 C2047 0.929 . S
H2038 C2042 0.929 . S
H2039 C2048 0.929 . S
C2040 H2034 0.930 . S
C2040 C2041 1.367 . S
C2040 C2048 1.378 . S
C2041 C2040 1.367 . S
C2041 C2049 1.433 . S
C2042 H2038 0.929 . S
C2042 C2044 1.378 . S
C2042 C2046 1.350 . S
C2043 C2046 1.463 . S
C2043 C2048 1.350 . S
C2043 N2051 1.427 . S
C2044 H2035 0.930 . S
C2044 C2042 1.378 . S
C2044 C2045 1.367 . S
C2045 C2044 1.367 . S
C2045 C2047 1.433 . S
C2046 C2042 1.350 . S
C2046 C2043 1.463 . S
C2046 N2050 1.427 . S
C2047 H2037 0.929 . S
C2047 C2045 1.433 . S
C2047 N2050 1.384 . S
C2048 H2039 0.929 . S
C2048 C2040 1.378 . S
C2048 C2043 1.350 . S
C2049 H2036 0.929 . S
C2049 C2041 1.433 . S
C2049 N2051 1.384 . S
N2050 C2046 1.427 . S
N2050 C2047 1.384 . S
N2051 C2043 1.427 . S
N2051 C2049 1.384 . S
H2052 C2058 0.930 . S
H2053 C2062 0.930 . S
H2054 C2067 0.929 . S
H2055 C2065 0.929 . S
H2056 C2060 0.929 . S
H2057 C2066 0.929 . S
C2058 H2052 0.930 . S
C2058 C2059 1.367 . S
C2058 C2066 1.378 . S
C2059 C2058 1.367 . S
C2059 C2067 1.433 . S
C2060 H2056 0.929 . S
C2060 C2062 1.378 . S
C2060 C2064 1.350 . S
C2061 C2064 1.463 . S
C2061 C2066 1.350 . S
C2061 N2069 1.427 . S
C2062 H2053 0.930 . S
C2062 C2060 1.378 . S
C2062 C2063 1.367 . S
C2063 C2062 1.367 . S
C2063 C2065 1.433 . S
C2064 C2060 1.350 . S
C2064 C2061 1.463 . S
C2064 N2068 1.427 . S
C2065 H2055 0.929 . S
C2065 C2063 1.433 . S
C2065 N2068 1.384 . S
C2066 H2057 0.929 . S
C2066 C2058 1.378 . S
C2066 C2061 1.350 . S
C2067 H2054 0.929 . S
C2067 C2059 1.433 . S
C2067 N2069 1.384 . S
N2068 C2064 1.427 . S
N2068 C2065 1.384 . S
N2069 C2061 1.427 . S
N2069 C2067 1.384 . S
H2070 C2076 0.930 . S
H2071 C2080 0.930 . S
H2072 C2085 0.929 . S
H2073 C2083 0.929 . S
H2074 C2078 0.929 . S
H2075 C2084 0.929 . S
C2076 H2070 0.930 . S
C2076 C2077 1.367 . S
C2076 C2084 1.378 . S
C2077 C2076 1.367 . S
C2077 C2085 1.433 . S
C2078 H2074 0.929 . S
C2078 C2080 1.378 . S
C2078 C2082 1.350 . S
C2079 C2082 1.463 . S
C2079 C2084 1.350 . S
C2079 N2087 1.427 . S
C2080 H2071 0.930 . S
C2080 C2078 1.378 . S
C2080 C2081 1.367 . S
C2081 C2080 1.367 . S
C2081 C2083 1.433 . S
C2082 C2078 1.350 . S
C2082 C2079 1.463 . S
C2082 N2086 1.427 . S
C2083 H2073 0.929 . S
C2083 C2081 1.433 . S
C2083 N2086 1.384 . S
C2084 H2075 0.929 . S
C2084 C2076 1.378 . S
C2084 C2079 1.350 . S
C2085 H2072 0.929 . S
C2085 C2077 1.433 . S
C2085 N2087 1.384 . S
N2086 C2082 1.427 . S
N2086 C2083 1.384 . S
N2087 C2079 1.427 . S
N2087 C2085 1.384 . S
H2088 C2094 0.930 . S
H2089 C2098 0.930 . S
H2090 C2103 0.929 . S
H2091 C2101 0.929 . S
H2092 C2096 0.929 . S
H2093 C2102 0.929 . S
C2094 H2088 0.930 . S
C2094 C2095 1.367 . S
C2094 C2102 1.378 . S
C2095 C2094 1.367 . S
C2095 C2103 1.433 . S
C2096 H2092 0.929 . S
C2096 C2098 1.378 . S
C2096 C2100 1.350 . S
C2097 C2100 1.463 . S
C2097 C2102 1.350 . S
C2097 N2105 1.427 . S
C2098 H2089 0.930 . S
C2098 C2096 1.378 . S
C2098 C2099 1.367 . S
C2099 C2098 1.367 . S
C2099 C2101 1.433 . S
C2100 C2096 1.350 . S
C2100 C2097 1.463 . S
C2100 N2104 1.427 . S
C2101 H2091 0.929 . S
C2101 C2099 1.433 . S
C2101 N2104 1.384 . S
C2102 H2093 0.929 . S
C2102 C2094 1.378 . S
C2102 C2097 1.350 . S
C2103 H2090 0.929 . S
C2103 C2095 1.433 . S
C2103 N2105 1.384 . S
N2104 C2100 1.427 . S
N2104 C2101 1.384 . S
N2105 C2097 1.427 . S
N2105 C2103 1.384 . S
H2106 C2112 0.930 . S
H2107 C2116 0.930 . S
H2108 C2121 0.929 . S
H2109 C2119 0.929 . S
H2110 C2114 0.929 . S
H2111 C2120 0.929 . S
C2112 H2106 0.930 . S
C2112 C2113 1.367 . S
C2112 C2120 1.378 . S
C2113 C2112 1.367 . S
C2113 C2121 1.433 . S
C2114 H2110 0.929 . S
C2114 C2116 1.378 . S
C2114 C2118 1.350 . S
C2115 C2118 1.463 . S
C2115 C2120 1.350 . S
C2115 N2123 1.427 . S
C2116 H2107 0.930 . S
C2116 C2114 1.378 . S
C2116 C2117 1.367 . S
C2117 C2116 1.367 . S
C2117 C2119 1.433 . S
C2118 C2114 1.350 . S
C2118 C2115 1.463 . S
C2118 N2122 1.427 . S
C2119 H2109 0.929 . S
C2119 C2117 1.433 . S
C2119 N2122 1.384 . S
C2120 H2111 0.929 . S
C2120 C2112 1.378 . S
C2120 C2115 1.350 . S
C2121 H2108 0.929 . S
C2121 C2113 1.433 . S
C2121 N2123 1.384 . S
N2122 C2118 1.427 . S
N2122 C2119 1.384 . S
N2123 C2115 1.427 . S
N2123 C2121 1.384 . S
H2124 C2130 0.930 . S
H2125 C2134 0.930 . S
H2126 C2139 0.929 . S
H2127 C2137 0.929 . S
H2128 C2132 0.929 . S
H2129 C2138 0.929 . S
C2130 H2124 0.930 . S
C2130 C2131 1.367 . S
C2130 C2138 1.378 . S
C2131 C2130 1.367 . S
C2131 C2139 1.433 . S
C2132 H2128 0.929 . S
C2132 C2134 1.378 . S
C2132 C2136 1.350 . S
C2133 C2136 1.463 . S
C2133 C2138 1.350 . S
C2133 N2141 1.427 . S
C2134 H2125 0.930 . S
C2134 C2132 1.378 . S
C2134 C2135 1.367 . S
C2135 C2134 1.367 . S
C2135 C2137 1.433 . S
C2136 C2132 1.350 . S
C2136 C2133 1.463 . S
C2136 N2140 1.427 . S
C2137 H2127 0.929 . S
C2137 C2135 1.433 . S
C2137 N2140 1.384 . S
C2138 H2129 0.929 . S
C2138 C2130 1.378 . S
C2138 C2133 1.350 . S
C2139 H2126 0.929 . S
C2139 C2131 1.433 . S
C2139 N2141 1.384 . S
N2140 C2136 1.427 . S
N2140 C2137 1.384 . S
N2141 C2133 1.427 . S
N2141 C2139 1.384 . S
H2142 C2148 0.930 . S
H2143 C2152 0.930 . S
H2144 C2157 0.929 . S
H2145 C2155 0.929 . S
H2146 C2150 0.929 . S
H2147 C2156 0.929 . S
C2148 H2142 0.930 . S
C2148 C2149 1.367 . S
C2148 C2156 1.378 . S
C2149 C2148 1.367 . S
C2149 C2157 1.433 . S
C2150 H2146 0.929 . S
C2150 C2152 1.378 . S
C2150 C2154 1.350 . S
C2151 C2154 1.463 . S
C2151 C2156 1.350 . S
C2151 N2159 1.427 . S
C2152 H2143 0.930 . S
C2152 C2150 1.378 . S
C2152 C2153 1.367 . S
C2153 C2152 1.367 . S
C2153 C2155 1.433 . S
C2154 C2150 1.350 . S
C2154 C2151 1.463 . S
C2154 N2158 1.427 . S
C2155 H2145 0.929 . S
C2155 C2153 1.433 . S
C2155 N2158 1.384 . S
C2156 H2147 0.929 . S
C2156 C2148 1.378 . S
C2156 C2151 1.350 . S
C2157 H2144 0.929 . S
C2157 C2149 1.433 . S
C2157 N2159 1.384 . S
N2158 C2154 1.427 . S
N2158 C2155 1.384 . S
N2159 C2151 1.427 . S
N2159 C2157 1.384 . S
H2160 C2166 0.930 . S
H2161 C2170 0.930 . S
H2162 C2175 0.929 . S
H2163 C2173 0.929 . S
H2164 C2168 0.929 . S
H2165 C2174 0.929 . S
C2166 H2160 0.930 . S
C2166 C2167 1.367 . S
C2166 C2174 1.378 . S
C2167 C2166 1.367 . S
C2167 C2175 1.433 . S
C2168 H2164 0.929 . S
C2168 C2170 1.378 . S
C2168 C2172 1.350 . S
C2169 C2172 1.463 . S
C2169 C2174 1.350 . S
C2169 N2177 1.427 . S
C2170 H2161 0.930 . S
C2170 C2168 1.378 . S
C2170 C2171 1.367 . S
C2171 C2170 1.367 . S
C2171 C2173 1.433 1_556 S
C2172 C2168 1.350 . S
C2172 C2169 1.463 . S
C2172 N2176 1.427 . S
C2173 H2163 0.929 . S
C2173 C2171 1.433 1_554 S
C2173 N2176 1.384 1_554 S
C2174 H2165 0.929 . S
C2174 C2166 1.378 . S
C2174 C2169 1.350 . S
C2175 H2162 0.929 . S
C2175 C2167 1.433 . S
C2175 N2177 1.384 . S
N2176 C2172 1.427 . S
N2176 C2173 1.384 1_556 S
N2177 C2169 1.427 . S
N2177 C2175 1.384 . S
H2178 C2184 0.930 1_554 S
H2179 C2188 0.930 . S
H2180 C2193 0.929 . S
H2181 C2191 0.929 . S
H2182 C2186 0.929 . S
H2183 C2192 0.929 . S
C2184 H2178 0.930 1_556 S
C2184 C2185 1.367 . S
C2184 C2192 1.378 . S
C2185 C2184 1.367 . S
C2185 C2193 1.433 . S
C2186 H2182 0.929 . S
C2186 C2188 1.378 . S
C2186 C2190 1.350 . S
C2187 C2190 1.463 . S
C2187 C2192 1.350 . S
C2187 N2195 1.427 . S
C2188 H2179 0.930 . S
C2188 C2186 1.378 . S
C2188 C2189 1.367 . S
C2189 C2188 1.367 . S
C2189 C2191 1.433 . S
C2190 C2186 1.350 . S
C2190 C2187 1.463 . S
C2190 N2194 1.427 . S
C2191 H2181 0.929 . S
C2191 C2189 1.433 . S
C2191 N2194 1.384 . S
C2192 H2183 0.929 . S
C2192 C2184 1.378 . S
C2192 C2187 1.350 . S
C2193 H2180 0.929 . S
C2193 C2185 1.433 . S
C2193 N2195 1.384 . S
N2194 C2190 1.427 . S
N2194 C2191 1.384 . S
N2195 C2187 1.427 . S
N2195 C2193 1.384 . S
H2196 C2202 0.930 . S
H2197 C2206 0.930 . S
H2198 C2211 0.929 . S
H2199 C2209 0.929 1_554 S
H2200 C2204 0.929 . S
H2201 C2210 0.929 . S
C2202 H2196 0.930 . S
C2202 C2203 1.367 . S
C2202 C2210 1.378 . S
C2203 C2202 1.367 . S
C2203 C2211 1.433 . S
C2204 H2200 0.929 . S
C2204 C2206 1.378 . S
C2204 C2208 1.350 . S
C2205 C2208 1.463 . S
C2205 C2210 1.350 . S
C2205 N2213 1.427 . S
C2206 H2197 0.930 . S
C2206 C2204 1.378 . S
C2206 C2207 1.367 . S
C2207 C2206 1.367 . S
C2207 C2209 1.433 . S
C2208 C2204 1.350 . S
C2208 C2205 1.463 . S
C2208 N2212 1.427 . S
C2209 H2199 0.929 1_556 S
C2209 C2207 1.433 . S
C2209 N2212 1.384 . S
C2210 H2201 0.929 . S
C2210 C2202 1.378 . S
C2210 C2205 1.350 . S
C2211 H2198 0.929 . S
C2211 C2203 1.433 . S
C2211 N2213 1.384 . S
N2212 C2208 1.427 . S
N2212 C2209 1.384 . S
N2213 C2205 1.427 . S
N2213 C2211 1.384 . S
H2214 C2220 0.930 . S
H2215 C2224 0.930 . S
H2216 C2229 0.929 . S
H2217 C2227 0.929 . S
H2218 C2222 0.933 . S
H2219 C2228 0.929 . S
C2220 H2214 0.930 . S
C2220 C2221 1.367 . S
C2220 C2228 1.378 . S
C2221 C2220 1.367 . S
C2221 C2229 1.433 . S
C2222 H2218 0.933 . S
C2222 C2224 1.378 . S
C2222 C2226 1.350 1_554 S
C2223 C2226 1.463 . S
C2223 C2228 1.350 . S
C2223 N2231 1.427 . S
C2224 H2215 0.930 . S
C2224 C2222 1.378 . S
C2224 C2225 1.367 . S
C2225 C2224 1.367 . S
C2225 C2227 1.433 . S
C2226 C2222 1.350 1_556 S
C2226 C2223 1.463 . S
C2226 N2230 1.427 . S
C2227 H2217 0.929 . S
C2227 C2225 1.433 . S
C2227 N2230 1.384 1_554 S
C2228 H2219 0.929 . S
C2228 C2220 1.378 . S
C2228 C2223 1.350 . S
C2229 H2216 0.929 . S
C2229 C2221 1.433 . S
C2229 N2231 1.384 . S
N2230 C2226 1.427 . S
N2230 C2227 1.384 1_556 S
N2231 C2223 1.427 . S
N2231 C2229 1.384 . S
H2232 C2238 0.930 . S
H2233 C2242 0.930 1_556 S
H2234 C2247 0.929 . S
H2235 C2245 0.929 . S
H2236 C2240 0.929 . S
H2237 C2246 0.941 . S
C2238 H2232 0.930 . S
C2238 C2239 1.367 . S
C2238 C2246 1.378 . S
C2239 C2238 1.367 . S
C2239 C2247 1.433 . S
C2240 H2236 0.929 . S
C2240 C2242 1.378 1_556 S
C2240 C2244 1.350 . S
C2241 C2244 1.463 . S
C2241 C2246 1.350 . S
C2241 N2249 1.427 . S
C2242 H2233 0.930 1_554 S
C2242 C2240 1.378 1_554 S
C2242 C2243 1.367 . S
C2243 C2242 1.367 . S
C2243 C2245 1.433 . S
C2244 C2240 1.350 . S
C2244 C2241 1.463 . S
C2244 N2248 1.427 1_556 S
C2245 H2235 0.929 . S
C2245 C2243 1.433 . S
C2245 N2248 1.384 . S
C2246 H2237 0.941 . S
C2246 C2238 1.378 . S
C2246 C2241 1.350 . S
C2247 H2234 0.929 . S
C2247 C2239 1.433 . S
C2247 N2249 1.384 . S
N2248 C2244 1.427 1_554 S
N2248 C2245 1.384 . S
N2249 C2241 1.427 . S
N2249 C2247 1.384 . S
H2250 C2256 0.930 . S
H2251 C2260 0.930 . S
H2252 C2265 0.929 . S
H2253 C2263 0.929 . S
H2254 C2258 0.929 . S
H2255 C2264 0.929 . S
C2256 H2250 0.930 . S
C2256 C2257 1.367 . S
C2256 C2264 1.378 . S
C2257 C2256 1.367 . S
C2257 C2265 1.433 . S
C2258 H2254 0.929 . S
C2258 C2260 1.378 . S
C2258 C2262 1.350 1_554 S
C2259 C2262 1.463 . S
C2259 C2264 1.350 . S
C2259 N2267 1.427 . S
C2260 H2251 0.930 . S
C2260 C2258 1.378 . S
C2260 C2261 1.367 . S
C2261 C2260 1.367 . S
C2261 C2263 1.433 . S
C2262 C2258 1.350 1_556 S
C2262 C2259 1.463 . S
C2262 N2266 1.427 . S
C2263 H2253 0.929 . S
C2263 C2261 1.433 . S
C2263 N2266 1.384 1_554 S
C2264 H2255 0.929 . S
C2264 C2256 1.378 . S
C2264 C2259 1.350 . S
C2265 H2252 0.929 . S
C2265 C2257 1.433 . S
C2265 N2267 1.384 . S
N2266 C2262 1.427 . S
N2266 C2263 1.384 1_556 S
N2267 C2259 1.427 . S
N2267 C2265 1.384 . S
H2268 C2274 0.930 . S
H2269 C2278 0.930 . S
H2270 C2283 0.929 . S
H2271 C2281 0.929 . S
H2272 C2276 0.929 . S
H2273 C2282 0.929 . S
C2274 H2268 0.930 . S
C2274 C2275 1.367 . S
C2274 C2282 1.378 . S
C2275 C2274 1.367 . S
C2275 C2283 1.433 . S
C2276 H2272 0.929 . S
C2276 C2278 1.378 . S
C2276 C2280 1.350 . S
C2277 C2280 1.463 . S
C2277 C2282 1.350 . S
C2277 N2285 1.427 . S
C2278 H2269 0.930 . S
C2278 C2276 1.378 . S
C2278 C2279 1.367 . S
C2279 C2278 1.367 . S
C2279 C2281 1.433 1_556 S
C2280 C2276 1.350 . S
C2280 C2277 1.463 . S
C2280 N2284 1.427 . S
C2281 H2271 0.929 . S
C2281 C2279 1.433 1_554 S
C2281 N2284 1.384 1_554 S
C2282 H2273 0.929 . S
C2282 C2274 1.378 . S
C2282 C2277 1.350 . S
C2283 H2270 0.929 . S
C2283 C2275 1.433 . S
C2283 N2285 1.384 . S
N2284 C2280 1.427 . S
N2284 C2281 1.384 1_556 S
N2285 C2277 1.427 . S
N2285 C2283 1.384 . S
H2286 C2292 0.930 . S
H2287 C2296 0.930 . S
H2288 C2301 0.935 . S
H2289 C2299 0.929 . S
H2290 C2294 0.929 . S
H2291 C2300 0.929 . S
C2292 H2286 0.930 . S
C2292 C2293 1.367 . S
C2292 C2300 1.378 . S
C2293 C2292 1.367 . S
C2293 C2301 1.433 . S
C2294 H2290 0.929 . S
C2294 C2296 1.378 . S
C2294 C2298 1.350 . S
C2295 C2298 1.463 . S
C2295 C2300 1.350 . S
C2295 N2303 1.427 . S
C2296 H2287 0.930 . S
C2296 C2294 1.378 . S
C2296 C2297 1.367 . S
C2297 C2296 1.367 . S
C2297 C2299 1.433 . S
C2298 C2294 1.350 . S
C2298 C2295 1.463 . S
C2298 N2302 1.427 . S
C2299 H2289 0.929 . S
C2299 C2297 1.433 . S
C2299 N2302 1.384 . S
C2300 H2291 0.929 . S
C2300 C2292 1.378 . S
C2300 C2295 1.350 . S
C2301 H2288 0.935 . S
C2301 C2293 1.433 . S
C2301 N2303 1.384 . S
N2302 C2298 1.427 . S
N2302 C2299 1.384 . S
N2303 C2295 1.427 . S
N2303 C2301 1.384 . S
H2304 C2310 0.930 . S
H2305 C2314 0.930 . S
H2306 C2319 0.929 . S
H2307 C2317 0.929 . S
H2308 C2312 0.929 1_554 S
H2309 C2318 0.929 . S
C2310 H2304 0.930 . S
C2310 C2311 1.367 . S
C2310 C2318 1.378 . S
C2311 C2310 1.367 . S
C2311 C2319 1.433 . S
C2312 H2308 0.929 1_556 S
C2312 C2314 1.378 1_556 S
C2312 C2316 1.350 . S
C2313 C2316 1.463 . S
C2313 C2318 1.350 . S
C2313 N2321 1.427 . S
C2314 H2305 0.930 . S
C2314 C2312 1.378 1_554 S
C2314 C2315 1.367 1_554 S
C2315 C2314 1.367 1_556 S
C2315 C2317 1.433 . S
C2316 C2312 1.350 . S
C2316 C2313 1.463 . S
C2316 N2320 1.427 . S
C2317 H2307 0.929 . S
C2317 C2315 1.433 . S
C2317 N2320 1.384 . S
C2318 H2309 0.929 . S
C2318 C2310 1.378 . S
C2318 C2313 1.350 . S
C2319 H2306 0.929 . S
C2319 C2311 1.433 . S
C2319 N2321 1.384 . S
N2320 C2316 1.427 . S
N2320 C2317 1.384 . S
N2321 C2313 1.427 . S
N2321 C2319 1.384 . S
H2322 C2328 0.930 . S
H2323 C2332 0.930 . S
H2324 C2337 0.929 . S
H2325 C2335 0.929 . S
H2326 C2330 0.929 . S
H2327 C2336 0.929 . S
C2328 H2322 0.930 . S
C2328 C2329 1.367 . S
C2328 C2336 1.378 . S
C2329 C2328 1.367 . S
C2329 C2337 1.433 . S
C2330 H2326 0.929 . S
C2330 C2332 1.378 . S
C2330 C2334 1.350 . S
C2331 C2334 1.463 . S
C2331 C2336 1.350 . S
C2331 N2339 1.427 . S
C2332 H2323 0.930 . S
C2332 C2330 1.378 . S
C2332 C2333 1.367 . S
C2333 C2332 1.367 . S
C2333 C2335 1.433 . S
C2334 C2330 1.350 . S
C2334 C2331 1.463 . S
C2334 N2338 1.427 . S
C2335 H2325 0.929 . S
C2335 C2333 1.433 . S
C2335 N2338 1.384 . S
C2336 H2327 0.929 . S
C2336 C2328 1.378 . S
C2336 C2331 1.350 . S
C2337 H2324 0.929 . S
C2337 C2329 1.433 . S
C2337 N2339 1.384 . S
N2338 C2334 1.427 . S
N2338 C2335 1.384 . S
N2339 C2331 1.427 . S
N2339 C2337 1.384 . S
H2340 C2346 0.930 . S
H2341 C2350 0.930 . S
H2342 C2355 0.929 . S
H2343 C2353 0.929 . S
H2344 C2348 0.929 . S
H2345 C2354 0.929 . S
C2346 H2340 0.930 . S
C2346 C2347 1.367 . S
C2346 C2354 1.378 . S
C2347 C2346 1.367 . S
C2347 C2355 1.433 . S
C2348 H2344 0.929 . S
C2348 C2350 1.378 . S
C2348 C2352 1.350 . S
C2349 C2352 1.463 . S
C2349 C2354 1.350 . S
C2349 N2357 1.427 . S
C2350 H2341 0.930 . S
C2350 C2348 1.378 . S
C2350 C2351 1.367 . S
C2351 C2350 1.367 . S
C2351 C2353 1.433 . S
C2352 C2348 1.350 . S
C2352 C2349 1.463 . S
C2352 N2356 1.427 . S
C2353 H2343 0.929 . S
C2353 C2351 1.433 . S
C2353 N2356 1.384 . S
C2354 H2345 0.929 . S
C2354 C2346 1.378 . S
C2354 C2349 1.350 . S
C2355 H2342 0.929 . S
C2355 C2347 1.433 . S
C2355 N2357 1.384 . S
N2356 C2352 1.427 . S
N2356 C2353 1.384 . S
N2357 C2349 1.427 . S
N2357 C2355 1.384 . S
H2358 C2364 0.930 . S
H2359 C2368 0.930 . S
H2360 C2373 0.929 . S
H2361 C2371 0.929 . S
H2362 C2366 0.929 . S
H2363 C2372 0.929 . S
C2364 H2358 0.930 . S
C2364 C2365 1.367 . S
C2364 C2372 1.378 . S
C2365 C2364 1.367 . S
C2365 C2373 1.433 . S
C2366 H2362 0.929 . S
C2366 C2368 1.378 . S
C2366 C2370 1.350 . S
C2367 C2370 1.463 . S
C2367 C2372 1.350 . S
C2367 N2375 1.427 . S
C2368 H2359 0.930 . S
C2368 C2366 1.378 . S
C2368 C2369 1.367 . S
C2369 C2368 1.367 . S
C2369 C2371 1.433 . S
C2370 C2366 1.350 . S
C2370 C2367 1.463 . S
C2370 N2374 1.427 . S
C2371 H2361 0.929 . S
C2371 C2369 1.433 . S
C2371 N2374 1.384 . S
C2372 H2363 0.929 . S
C2372 C2364 1.378 . S
C2372 C2367 1.350 . S
C2373 H2360 0.929 . S
C2373 C2365 1.433 . S
C2373 N2375 1.384 . S
N2374 C2370 1.427 . S
N2374 C2371 1.384 . S
N2375 C2367 1.427 . S
N2375 C2373 1.384 . S
H2376 C2382 0.930 . S
H2377 C2386 0.930 . S
H2378 C2391 0.929 . S
H2379 C2389 0.929 . S
H2380 C2384 0.929 . S
H2381 C2390 0.929 . S
C2382 H2376 0.930 . S
C2382 C2383 1.367 . S
C2382 C2390 1.378 . S
C2383 C2382 1.367 . S
C2383 C2391 1.433 . S
C2384 H2380 0.929 . S
C2384 C2386 1.378 . S
C2384 C2388 1.350 . S
C2385 C2388 1.463 . S
C2385 C2390 1.350 . S
C2385 N2393 1.427 . S
C2386 H2377 0.930 . S
C2386 C2384 1.378 . S
C2386 C2387 1.367 . S
C2387 C2386 1.367 . S
C2387 C2389 1.433 . S
C2388 C2384 1.350 . S
C2388 C2385 1.463 . S
C2388 N2392 1.427 . S
C2389 H2379 0.929 . S
C2389 C2387 1.433 . S
C2389 N2392 1.384 . S
C2390 H2381 0.929 . S
C2390 C2382 1.378 . S
C2390 C2385 1.350 . S
C2391 H2378 0.929 . S
C2391 C2383 1.433 . S
C2391 N2393 1.384 . S
N2392 C2388 1.427 . S
N2392 C2389 1.384 . S
N2393 C2385 1.427 . S
N2393 C2391 1.384 . S
H2394 C2400 0.930 . S
H2395 C2404 0.930 . S
H2396 C2409 0.929 . S
H2397 C2407 0.929 1_556 S
H2398 C2402 0.929 . S
H2399 C2408 0.929 . S
C2400 H2394 0.930 . S
C2400 C2401 1.367 . S
C2400 C2408 1.378 . S
C2401 C2400 1.367 . S
C2401 C2409 1.433 . S
C2402 H2398 0.929 . S
C2402 C2404 1.378 . S
C2402 C2406 1.350 . S
C2403 C2406 1.463 . S
C2403 C2408 1.350 . S
C2403 N2411 1.427 . S
C2404 H2395 0.930 . S
C2404 C2402 1.378 . S
C2404 C2405 1.367 . S
C2405 C2404 1.367 . S
C2405 C2407 1.433 . S
C2406 C2402 1.350 . S
C2406 C2403 1.463 . S
C2406 N2410 1.427 . S
C2407 H2397 0.929 1_554 S
C2407 C2405 1.433 . S
C2407 N2410 1.384 . S
C2408 H2399 0.929 . S
C2408 C2400 1.378 . S
C2408 C2403 1.350 . S
C2409 H2396 0.929 . S
C2409 C2401 1.433 . S
C2409 N2411 1.384 . S
N2410 C2406 1.427 . S
N2410 C2407 1.384 . S
N2411 C2403 1.427 . S
N2411 C2409 1.384 . S
H2412 C2418 0.930 . S
H2413 C2422 0.930 . S
H2414 C2427 0.929 . S
H2415 C2425 0.929 . S
H2416 C2420 0.929 . S
H2417 C2426 0.929 . S
C2418 H2412 0.930 . S
C2418 C2419 1.367 . S
C2418 C2426 1.378 . S
C2419 C2418 1.367 . S
C2419 C2427 1.433 . S
C2420 H2416 0.929 . S
C2420 C2422 1.378 . S
C2420 C2424 1.350 . S
C2421 C2424 1.463 . S
C2421 C2426 1.350 . S
C2421 N2429 1.427 . S
C2422 H2413 0.930 . S
C2422 C2420 1.378 . S
C2422 C2423 1.367 . S
C2423 C2422 1.367 . S
C2423 C2425 1.433 1_554 S
C2424 C2420 1.350 . S
C2424 C2421 1.463 . S
C2424 N2428 1.427 . S
C2425 H2415 0.929 . S
C2425 C2423 1.433 1_556 S
C2425 N2428 1.384 1_556 S
C2426 H2417 0.929 . S
C2426 C2418 1.378 . S
C2426 C2421 1.350 . S
C2427 H2414 0.929 . S
C2427 C2419 1.433 . S
C2427 N2429 1.384 . S
N2428 C2424 1.427 . S
N2428 C2425 1.384 1_554 S
N2429 C2421 1.427 . S
N2429 C2427 1.384 . S
H2430 C2436 0.930 . S
H2431 C2440 0.930 . S
H2432 C2445 0.929 . S
H2433 C2443 0.929 . S
H2434 C2438 0.929 . S
H2435 C2444 0.929 . S
C2436 H2430 0.930 . S
C2436 C2437 1.367 . S
C2436 C2444 1.378 . S
C2437 C2436 1.367 . S
C2437 C2445 1.433 . S
C2438 H2434 0.929 . S
C2438 C2440 1.378 . S
C2438 C2442 1.350 . S
C2439 C2442 1.463 . S
C2439 C2444 1.350 . S
C2439 N2447 1.427 . S
C2440 H2431 0.930 . S
C2440 C2438 1.378 . S
C2440 C2441 1.367 . S
C2441 C2440 1.367 . S
C2441 C2443 1.433 . S
C2442 C2438 1.350 . S
C2442 C2439 1.463 . S
C2442 N2446 1.427 . S
C2443 H2433 0.929 . S
C2443 C2441 1.433 . S
C2443 N2446 1.384 . S
C2444 H2435 0.929 . S
C2444 C2436 1.378 . S
C2444 C2439 1.350 . S
C2445 H2432 0.929 . S
C2445 C2437 1.433 . S
C2445 N2447 1.384 . S
N2446 C2442 1.427 . S
N2446 C2443 1.384 . S
N2447 C2439 1.427 . S
N2447 C2445 1.384 . S
H2448 C2454 0.930 . S
H2449 C2458 0.930 . S
H2450 C2463 0.929 . S
H2451 C2461 0.929 . S
H2452 C2456 0.929 . S
H2453 C2462 0.929 . S
C2454 H2448 0.930 . S
C2454 C2455 1.367 . S
C2454 C2462 1.378 . S
C2455 C2454 1.367 . S
C2455 C2463 1.433 . S
C2456 H2452 0.929 . S
C2456 C2458 1.378 . S
C2456 C2460 1.350 . S
C2457 C2460 1.463 . S
C2457 C2462 1.350 . S
C2457 N2465 1.427 . S
C2458 H2449 0.930 . S
C2458 C2456 1.378 . S
C2458 C2459 1.367 . S
C2459 C2458 1.367 . S
C2459 C2461 1.433 . S
C2460 C2456 1.350 . S
C2460 C2457 1.463 . S
C2460 N2464 1.427 . S
C2461 H2451 0.929 . S
C2461 C2459 1.433 . S
C2461 N2464 1.384 . S
C2462 H2453 0.929 . S
C2462 C2454 1.378 . S
C2462 C2457 1.350 . S
C2463 H2450 0.929 . S
C2463 C2455 1.433 . S
C2463 N2465 1.384 . S
N2464 C2460 1.427 . S
N2464 C2461 1.384 . S
N2465 C2457 1.427 . S
N2465 C2463 1.384 . S
H2466 C2472 0.930 . S
H2467 C2476 0.930 . S
H2468 C2481 0.929 . S
H2469 C2479 0.929 . S
H2470 C2474 0.929 . S
H2471 C2480 0.929 . S
C2472 H2466 0.930 . S
C2472 C2473 1.367 . S
C2472 C2480 1.378 . S
C2473 C2472 1.367 . S
C2473 C2481 1.433 . S
C2474 H2470 0.929 . S
C2474 C2476 1.378 . S
C2474 C2478 1.350 . S
C2475 C2478 1.463 . S
C2475 C2480 1.350 . S
C2475 N2483 1.427 . S
C2476 H2467 0.930 . S
C2476 C2474 1.378 . S
C2476 C2477 1.367 . S
C2477 C2476 1.367 . S
C2477 C2479 1.433 . S
C2478 C2474 1.350 . S
C2478 C2475 1.463 . S
C2478 N2482 1.427 . S
C2479 H2469 0.929 . S
C2479 C2477 1.433 . S
C2479 N2482 1.384 . S
C2480 H2471 0.929 . S
C2480 C2472 1.378 . S
C2480 C2475 1.350 . S
C2481 H2468 0.929 . S
C2481 C2473 1.433 . S
C2481 N2483 1.384 . S
N2482 C2478 1.427 . S
N2482 C2479 1.384 . S
N2483 C2475 1.427 . S
N2483 C2481 1.384 . S
H2484 C2490 0.930 . S
H2485 C2494 0.930 . S
H2486 C2499 0.929 . S
H2487 C2497 0.929 . S
H2488 C2492 0.929 . S
H2489 C2498 0.929 . S
C2490 H2484 0.930 . S
C2490 C2491 1.367 . S
C2490 C2498 1.378 . S
C2491 C2490 1.367 . S
C2491 C2499 1.433 . S
C2492 H2488 0.929 . S
C2492 C2494 1.378 . S
C2492 C2496 1.350 . S
C2493 C2496 1.463 1_655 S
C2493 C2498 1.350 . S
C2493 N2501 1.427 . S
C2494 H2485 0.930 . S
C2494 C2492 1.378 . S
C2494 C2495 1.367 . S
C2495 C2494 1.367 . S
C2495 C2497 1.433 . S
C2496 C2492 1.350 . S
C2496 C2493 1.463 1_455 S
C2496 N2500 1.427 . S
C2497 H2487 0.929 . S
C2497 C2495 1.433 . S
C2497 N2500 1.384 . S
C2498 H2489 0.929 . S
C2498 C2490 1.378 . S
C2498 C2493 1.350 . S
C2499 H2486 0.929 . S
C2499 C2491 1.433 . S
C2499 N2501 1.384 . S
N2500 C2496 1.427 . S
N2500 C2497 1.384 . S
N2501 C2493 1.427 . S
N2501 C2499 1.384 . S
H2502 C2508 0.930 . S
H2503 C2512 0.930 . S
H2504 C2517 0.929 . S
H2505 C2515 0.929 . S
H2506 C2510 0.929 . S
H2507 C2516 0.929 . S
C2508 H2502 0.930 . S
C2508 C2509 1.367 . S
C2508 C2516 1.378 . S
C2509 C2508 1.367 . S
C2509 C2517 1.433 . S
C2510 H2506 0.929 . S
C2510 C2512 1.378 . S
C2510 C2514 1.350 . S
C2511 C2514 1.463 . S
C2511 C2516 1.350 . S
C2511 N2519 1.427 . S
C2512 H2503 0.930 . S
C2512 C2510 1.378 . S
C2512 C2513 1.367 . S
C2513 C2512 1.367 . S
C2513 C2515 1.433 . S
C2514 C2510 1.350 . S
C2514 C2511 1.463 . S
C2514 N2518 1.427 . S
C2515 H2505 0.929 . S
C2515 C2513 1.433 . S
C2515 N2518 1.384 . S
C2516 H2507 0.929 . S
C2516 C2508 1.378 . S
C2516 C2511 1.350 . S
C2517 H2504 0.929 . S
C2517 C2509 1.433 . S
C2517 N2519 1.384 . S
N2518 C2514 1.427 . S
N2518 C2515 1.384 . S
N2519 C2511 1.427 . S
N2519 C2517 1.384 . S
H2520 C2526 0.930 . S
H2521 C2530 0.930 . S
H2522 C2535 0.929 . S
H2523 C2533 0.929 . S
H2524 C2528 1.000 . S
H2525 C2534 0.998 . S
C2526 H2520 0.930 . S
C2526 C2527 1.367 . S
C2526 C2534 1.378 . S
C2527 C2526 1.367 . S
C2527 C2535 1.433 . S
C2528 H2524 1.000 . S
C2528 C2530 1.378 . S
C2528 C2532 1.350 . S
C2529 C2532 1.463 1_565 S
C2529 C2534 1.350 . S
C2529 N2537 1.427 . S
C2530 H2521 0.930 . S
C2530 C2528 1.378 . S
C2530 C2531 1.367 . S
C2531 C2530 1.367 . S
C2531 C2533 1.433 . S
C2532 C2528 1.350 . S
C2532 C2529 1.463 1_545 S
C2532 N2536 1.427 . S
C2533 H2523 0.929 . S
C2533 C2531 1.433 . S
C2533 N2536 1.384 . S
C2534 H2525 0.998 . S
C2534 C2526 1.378 . S
C2534 C2529 1.350 . S
C2535 H2522 0.929 . S
C2535 C2527 1.433 . S
C2535 N2537 1.384 . S
N2536 C2532 1.427 . S
N2536 C2533 1.384 . S
N2537 C2529 1.427 . S
N2537 C2535 1.384 . S
H2538 C2544 0.930 . S
H2539 C2548 0.930 . S
H2540 C2553 0.929 . S
H2541 C2551 0.929 . S
H2542 C2546 0.929 . S
H2543 C2552 0.929 . S
C2544 H2538 0.930 . S
C2544 C2545 1.367 . S
C2544 C2552 1.378 . S
C2545 C2544 1.367 . S
C2545 C2553 1.433 . S
C2546 H2542 0.929 . S
C2546 C2548 1.378 . S
C2546 C2550 1.350 . S
C2547 C2550 1.463 1_545 S
C2547 C2552 1.350 . S
C2547 N2555 1.427 . S
C2548 H2539 0.930 . S
C2548 C2546 1.378 . S
C2548 C2549 1.367 . S
C2549 C2548 1.367 . S
C2549 C2551 1.433 . S
C2550 C2546 1.350 . S
C2550 C2547 1.463 1_565 S
C2550 N2554 1.427 . S
C2551 H2541 0.929 . S
C2551 C2549 1.433 . S
C2551 N2554 1.384 . S
C2552 H2543 0.929 . S
C2552 C2544 1.378 . S
C2552 C2547 1.350 . S
C2553 H2540 0.929 . S
C2553 C2545 1.433 . S
C2553 N2555 1.384 . S
N2554 C2550 1.427 . S
N2554 C2551 1.384 . S
N2555 C2547 1.427 . S
N2555 C2553 1.384 . S
H2556 C2562 0.930 . S
H2557 C2566 0.930 . S
H2558 C2571 0.929 . S
H2559 C2569 0.929 . S
H2560 C2564 0.929 . S
H2561 C2570 0.929 . S
C2562 H2556 0.930 . S
C2562 C2563 1.367 . S
C2562 C2570 1.378 . S
C2563 C2562 1.367 . S
C2563 C2571 1.433 . S
C2564 H2560 0.929 . S
C2564 C2566 1.378 . S
C2564 C2568 1.350 . S
C2565 C2568 1.463 1_455 S
C2565 C2570 1.350 . S
C2565 N2573 1.427 . S
C2566 H2557 0.930 . S
C2566 C2564 1.378 . S
C2566 C2567 1.367 . S
C2567 C2566 1.367 . S
C2567 C2569 1.433 . S
C2568 C2564 1.350 . S
C2568 C2565 1.463 1_655 S
C2568 N2572 1.427 . S
C2569 H2559 0.929 . S
C2569 C2567 1.433 . S
C2569 N2572 1.384 . S
C2570 H2561 0.929 . S
C2570 C2562 1.378 . S
C2570 C2565 1.350 . S
C2571 H2558 0.929 . S
C2571 C2563 1.433 . S
C2571 N2573 1.384 . S
N2572 C2568 1.427 . S
N2572 C2569 1.384 . S
N2573 C2565 1.427 . S
N2573 C2571 1.384 . S
H2574 C2580 0.930 . S
H2575 C2584 0.930 . S
H2576 C2589 0.929 . S
H2577 C2587 0.929 . S
H2578 C2582 0.929 . S
H2579 C2588 0.929 . S
C2580 H2574 0.930 . S
C2580 C2581 1.367 . S
C2580 C2588 1.378 . S
C2581 C2580 1.367 . S
C2581 C2589 1.433 . S
C2582 H2578 0.929 . S
C2582 C2584 1.378 . S
C2582 C2586 1.350 . S
C2583 C2586 1.463 . S
C2583 C2588 1.350 . S
C2583 N2591 1.427 . S
C2584 H2575 0.930 . S
C2584 C2582 1.378 . S
C2584 C2585 1.367 . S
C2585 C2584 1.367 . S
C2585 C2587 1.433 . S
C2586 C2582 1.350 . S
C2586 C2583 1.463 . S
C2586 N2590 1.427 . S
C2587 H2577 0.929 . S
C2587 C2585 1.433 . S
C2587 N2590 1.384 . S
C2588 H2579 0.929 . S
C2588 C2580 1.378 . S
C2588 C2583 1.350 . S
C2589 H2576 0.929 . S
C2589 C2581 1.433 . S
C2589 N2591 1.384 . S
N2590 C2586 1.427 . S
N2590 C2587 1.384 . S
N2591 C2583 1.427 . S
N2591 C2589 1.384 . S
C1303 C184 1.237 . S
C1307 C4 1.235 . S
C1321 C40 1.251 . S
C1325 C112 1.249 . S
C1339 C148 1.251 . S
C1343 C76 1.248 . S
C1357 C220 1.246 . S
C1361 C400 1.242 . S
C1375 C256 1.250 . S
C1379 C328 1.248 . S
C1393 C364 1.246 . S
C1397 C292 1.249 . S
C1411 C616 1.250 . S
C1415 C436 1.251 . S
C1429 C472 1.240 . S
C1433 C544 1.237 . S
C1447 C580 1.243 . S
C1451 C508 1.247 . S
C1465 C652 1.242 . S
C1469 C832 1.246 . S
C1483 C688 1.234 . S
C1487 C760 1.235 . S
C1501 C724 1.238 . S
C1505 C796 1.241 . S
C1519 C868 1.250 . S
C1523 C1048 1.252 . S
C1537 C976 1.243 . S
C1541 C904 1.246 . S
C1555 C940 1.234 . S
C1559 C1012 1.235 . S
C1573 C1084 1.248 . S
C1577 C1264 1.251 . S
C1591 C1120 1.234 . S
C1595 C1192 1.234 . S
C1609 C1156 1.238 . S
C1613 C1228 1.235 . S
C1627 C374 1.214 . S
C1631 C3 1.215 . S
C1645 C410 1.210 . S
C1649 C39 1.217 . S
C1663 C338 1.218 . S
C1667 C75 1.207 . S
C1681 C302 1.217 . S
C1685 C111 1.212 . S
C1699 C147 1.208 . S
C1703 C230 1.217 . S
C1717 C183 1.205 . S
C1721 C266 1.221 . S
C1735 C219 1.205 . S
C1739 C158 1.221 . S
C1753 C255 1.212 . S
C1757 C194 1.213 . S
C1771 C291 1.208 . S
C1775 C122 1.217 . S
C1789 C86 1.213 . S
C1793 C327 1.216 . S
C1807 C14 1.221 . S
C1811 C363 1.206 . S
C1825 C399 1.213 . S
C1829 C50 1.212 . S
C1843 C435 1.208 . S
C1847 C806 1.220 1_554 S
C1861 C471 1.207 . S
C1865 C842 1.218 1_554 S
C1879 C770 1.209 1_554 S
C1883 C507 1.218 . S
C1897 C543 1.212 . S
C1901 C734 1.217 . S
C1915 C579 1.205 . S
C1919 C662 1.221 . S
C1933 C615 1.208 . S
C1937 C698 1.217 . S
C1951 C651 1.210 . S
C1955 C590 1.219 . S
C1969 C626 1.212 . S
C1973 C687 1.213 . S
C1987 C554 1.209 . S
C1991 C723 1.218 . S
C2005 C759 1.213 . S
C2009 C518 1.217 . S
C2023 C446 1.210 . S
C2027 C795 1.218 . S
C2041 C482 1.210 . S
C2045 C831 1.219 . S
C2059 C1238 1.219 . S
C2063 C867 1.210 . S
C2077 C903 1.218 . S
C2081 C1274 1.209 . S
C2095 C939 1.213 . S
C2099 C1202 1.216 . S
C2113 C1166 1.222 . S
C2117 C975 1.207 . S
C2131 C1094 1.218 . S
C2135 C1011 1.211 . S
C2149 C1130 1.216 . S
C2153 C1047 1.209 . S
C2167 C1083 1.216 . S
C2171 C1022 1.210 1_556 S
C2185 C1058 1.217 1_556 S
C2189 C1119 1.212 . S
C2203 C1155 1.212 . S
C2207 C986 1.213 1_556 S
C2221 C950 1.219 . S
C2225 C1191 1.206 . S
C2239 C878 1.209 . S
C2243 C1227 1.218 . S
C2257 C914 1.216 . S
C2261 C1263 1.214 . S
C2275 C578 1.341 . S
C2279 C2 1.337 1_556 S
C2293 C38 1.339 1_556 S
C2297 C614 1.345 . S
C2311 C542 1.348 . S
C2315 C74 1.344 1_556 S
C2329 C938 1.338 . S
C2333 C110 1.339 . S
C2347 C146 1.348 . S
C2351 C866 1.344 . S
C2365 C182 1.339 . S
C2369 C902 1.338 . S
C2383 C218 1.346 1_554 S
C2387 C1226 1.340 . S
C2401 C1262 1.339 . S
C2405 C254 1.344 1_554 S
C2419 C1190 1.337 . S
C2423 C290 1.341 1_554 S
C2437 C722 1.338 . S
C2441 C326 1.338 . S
C2455 C362 1.342 . S
C2459 C650 1.337 . S
C2473 C398 1.346 . S
C2477 C686 1.347 . S
C2491 C434 1.342 . S
C2495 C1010 1.337 . S
C2509 C1046 1.337 . S
C2513 C470 1.339 . S
C2527 C974 1.348 . S
C2531 C506 1.345 . S
C2545 C758 1.341 . S
C2549 C1154 1.337 . S
C2563 C1082 1.345 . S
C2567 C794 1.339 . S
C2581 C1118 1.345 . S
C2585 C830 1.347 . S
