# Generated by pormake.
# Topology upa, (4)-cn, num edge types: 1
# Building blocks:
#     Node 0, Type 0, BuildingBlock: KUFVIS_clean_sbu_0, # of connection points: 4
#     Node 1, Type 0, BuildingBlock: KUFVIS_clean_sbu_0, # of connection points: 4
#     Node 2, Type 0, BuildingBlock: KUFVIS_clean_sbu_0, # of connection points: 4
#     Node 3, Type 0, BuildingBlock: KUFVIS_clean_sbu_0, # of connection points: 4
#     Node 4, Type 0, BuildingBlock: KUFVIS_clean_sbu_0, # of connection points: 4
#     Node 5, Type 0, BuildingBlock: KUFVIS_clean_sbu_0, # of connection points: 4
#     Node 6, Type 0, BuildingBlock: KUFVIS_clean_sbu_0, # of connection points: 4
#     Node 7, Type 0, BuildingBlock: KUFVIS_clean_sbu_0, # of connection points: 4
#     Edge 8, Type (0, 0), BuildingBlock: UVAHIK_clean_linker_0, # of connection points: 2
#     Edge 9, Type (0, 0), BuildingBlock: UVAHIK_clean_linker_0, # of connection points: 2
#     Edge 10, Type (0, 0), BuildingBlock: UVAHIK_clean_linker_0, # of connection points: 2
#     Edge 11, Type (0, 0), BuildingBlock: UVAHIK_clean_linker_0, # of connection points: 2
#     Edge 12, Type (0, 0), BuildingBlock: UVAHIK_clean_linker_0, # of connection points: 2
#     Edge 13, Type (0, 0), BuildingBlock: UVAHIK_clean_linker_0, # of connection points: 2
#     Edge 14, Type (0, 0), BuildingBlock: UVAHIK_clean_linker_0, # of connection points: 2
#     Edge 15, Type (0, 0), BuildingBlock: UVAHIK_clean_linker_0, # of connection points: 2
#     Edge 16, Type (0, 0), BuildingBlock: UVAHIK_clean_linker_0, # of connection points: 2
#     Edge 17, Type (0, 0), BuildingBlock: UVAHIK_clean_linker_0, # of connection points: 2
#     Edge 18, Type (0, 0), BuildingBlock: UVAHIK_clean_linker_0, # of connection points: 2
#     Edge 19, Type (0, 0), BuildingBlock: UVAHIK_clean_linker_0, # of connection points: 2
#     Edge 20, Type (0, 0), BuildingBlock: UVAHIK_clean_linker_0, # of connection points: 2
#     Edge 21, Type (0, 0), BuildingBlock: UVAHIK_clean_linker_0, # of connection points: 2
#     Edge 22, Type (0, 0), BuildingBlock: UVAHIK_clean_linker_0, # of connection points: 2
#     Edge 23, Type (0, 0), BuildingBlock: UVAHIK_clean_linker_0, # of connection points: 2
# Relax obj value: 0.193
# Max RMSD: 0.140
# Mean RMSD: 0.140
data_MOF--net-upa--node1-KUFVIS_clean_sbu_0--edge1-UVAHIK_clean_linker_0
_symmetry_space_group_name_H-M    P1
_symmetry_Int_Tables_number       1
_symmetry_cell_setting            triclinic
loop_
_symmetry_equiv_pos_as_xyz
'x, y, z'
_cell_length_a     32.970787
_cell_length_b     32.980054
_cell_length_c     57.442373
_cell_angle_alpha  89.952631
_cell_angle_beta   89.96382
_cell_angle_gamma 89.967457
loop_
_atom_site_label
_atom_site_type_symbol
_atom_site_fract_x
_atom_site_fract_y
_atom_site_fract_z
_atom_type_partial_charge
Mn0 Mn 0.19171 0.21199 0.33991 0.0
Mn1 Mn 0.24204 0.128 0.3572 0.0
C2 C 0.15643 0.15784 0.35538 0.0
C3 C 0.15552 0.24718 0.31119 0.0
C4 C 0.23782 0.20505 0.38604 0.0
O5 O 0.2477 0.21939 0.32476 0.0
O6 O 0.27628 0.15996 0.33532 0.0
C7 C 0.24453 0.08525 0.31192 0.0
N8 N 0.23416 0.0858 0.33487 0.0
C9 C 0.20594 0.01866 0.33243 0.0
C10 C 0.2168 0.01718 0.30883 0.0
C11 C 0.23609 0.05067 0.29853 0.0
C12 C 0.21549 0.05379 0.34495 0.0
H13 H 0.25894 0.11109 0.30386 0.0
C14 C 0.27707 0.19393 0.32444 0.0
O15 O 0.1707 0.26594 0.32908 0.0
O16 O 0.16453 0.20917 0.30903 0.0
N17 N 0.21229 0.09402 0.37817 0.0
C18 C 0.20142 0.10133 0.40067 0.0
C19 C 0.18037 0.07145 0.41323 0.0
C20 C 0.17099 0.03429 0.4026 0.0
C21 C 0.18291 0.02726 0.37952 0.0
C22 C 0.20411 0.05805 0.36792 0.0
H23 H 0.20838 0.12989 0.40892 0.0
O24 O 0.14055 0.1937 0.35492 0.0
O25 O 0.1924 0.15433 0.34623 0.0
O26 O 0.21505 0.22533 0.37227 0.0
O27 O 0.25079 0.16935 0.38158 0.0
C28 C 0.17373 0.99132 0.36739 0.0
C29 C 0.18519 0.98703 0.34385 0.0
H30 H 0.21004 0.99069 0.2984 0.0
H31 H 0.24423 0.0499 0.28028 0.0
H32 H 0.17123 0.07713 0.43103 0.0
H33 H 0.15434 0.0115 0.41226 0.0
H34 H 0.15729 0.96702 0.37589 0.0
H35 H 0.17739 0.95951 0.33461 0.0
Mn36 Mn 0.29644 0.68621 0.84066 0.0
Mn37 Mn 0.37971 0.73602 0.85936 0.0
C38 C 0.34981 0.65054 0.85669 0.0
C39 C 0.26249 0.65065 0.81129 0.0
C40 C 0.30131 0.73166 0.88704 0.0
O41 O 0.28981 0.74243 0.82572 0.0
O42 O 0.34885 0.77068 0.83718 0.0
C43 C 0.42462 0.73908 0.81474 0.0
N44 N 0.42293 0.72829 0.83761 0.0
C45 C 0.49004 0.69969 0.83599 0.0
C46 C 0.49269 0.71096 0.81249 0.0
C47 C 0.45979 0.73065 0.80182 0.0
C48 C 0.45438 0.70925 0.84805 0.0
H49 H 0.39924 0.7538 0.8064 0.0
C50 C 0.31532 0.77172 0.82587 0.0
O51 O 0.24294 0.6656 0.82898 0.0
O52 O 0.30061 0.65956 0.80969 0.0
N53 N 0.41261 0.70579 0.88066 0.0
C54 C 0.40418 0.69459 0.90299 0.0
C55 C 0.43336 0.67313 0.91586 0.0
C56 C 0.47095 0.66365 0.90571 0.0
C57 C 0.47911 0.67591 0.88281 0.0
C58 C 0.44899 0.69753 0.87089 0.0
H59 H 0.37528 0.7016 0.91086 0.0
O60 O 0.31394 0.63478 0.85565 0.0
O61 O 0.3538 0.68664 0.84778 0.0
O62 O 0.28167 0.70904 0.87292 0.0
O63 O 0.33722 0.74462 0.88316 0.0
C64 C 0.51556 0.66666 0.87115 0.0
C65 C 0.52101 0.67851 0.84775 0.0
H66 H 0.51962 0.7042 0.80241 0.0
H67 H 0.46146 0.73913 0.78364 0.0
H68 H 0.4268 0.66372 0.93352 0.0
H69 H 0.4932 0.64669 0.9156 0.0
H70 H 0.53935 0.64989 0.8799 0.0
H71 H 0.54891 0.67067 0.83886 0.0
Mn72 Mn 0.82075 0.80282 0.33931 0.0
Mn73 Mn 0.76852 0.88194 0.36146 0.0
C74 C 0.85482 0.85547 0.35714 0.0
C75 C 0.8574 0.77428 0.30836 0.0
C76 C 0.77601 0.80066 0.38599 0.0
O77 O 0.76456 0.79623 0.32436 0.0
O78 O 0.73444 0.85272 0.33831 0.0
C79 C 0.76313 0.93197 0.31875 0.0
N80 N 0.77441 0.92789 0.34143 0.0
C81 C 0.80112 0.99578 0.34223 0.0
C82 C 0.78925 1.00089 0.31898 0.0
C83 C 0.77026 0.96881 0.30718 0.0
C84 C 0.79277 0.95854 0.35295 0.0
H85 H 0.74903 0.90723 0.30951 0.0
C86 C 0.7344 0.82065 0.32569 0.0
O87 O 0.84307 0.75172 0.32504 0.0
O88 O 0.84693 0.81208 0.30864 0.0
N89 N 0.79823 0.91309 0.3838 0.0
C90 C 0.81043 0.90224 0.4056 0.0
C91 C 0.83152 0.93033 0.41939 0.0
C92 C 0.83968 0.96929 0.41068 0.0
C93 C 0.8265 0.97988 0.38829 0.0
C94 C 0.80526 0.95075 0.37542 0.0
H95 H 0.80449 0.87227 0.41235 0.0
O96 O 0.87179 0.82033 0.35477 0.0
O97 O 0.81843 0.85906 0.34863 0.0
O98 O 0.79894 0.78337 0.37101 0.0
O99 O 0.76181 0.83649 0.38357 0.0
C100 C 0.83451 0.01784 0.37801 0.0
C101 C 0.82184 0.02578 0.355 0.0
H102 H 0.79506 0.02912 0.30992 0.0
H103 H 0.76138 0.97238 0.28916 0.0
H104 H 0.84167 0.9219 0.43664 0.0
H105 H 0.85638 0.99071 0.42127 0.0
H106 H 0.85098 0.04092 0.38751 0.0
H107 H 0.82875 0.05485 0.34715 0.0
Mn108 Mn 0.70397 0.31671 0.83984 0.0
Mn109 Mn 0.62773 0.26051 0.86224 0.0
C110 C 0.65051 0.34779 0.85852 0.0
C111 C 0.73073 0.35599 0.80936 0.0
C112 C 0.70794 0.27193 0.88686 0.0
O113 O 0.71216 0.26199 0.82361 0.0
O114 O 0.66098 0.22722 0.8405 0.0
C115 C 0.58131 0.24955 0.8186 0.0
N116 N 0.58306 0.26253 0.84108 0.0
C117 C 0.5138 0.28549 0.83973 0.0
C118 C 0.51117 0.27208 0.81662 0.0
C119 C 0.54508 0.25406 0.80601 0.0
C120 C 0.55058 0.27983 0.85147 0.0
H121 H 0.60739 0.23598 0.81031 0.0
C122 C 0.6915 0.22962 0.82674 0.0
O123 O 0.75403 0.34156 0.82566 0.0
O124 O 0.69326 0.34442 0.80974 0.0
N125 N 0.59299 0.28883 0.88342 0.0
C126 C 0.60117 0.30194 0.90541 0.0
C127 C 0.57077 0.32177 0.91821 0.0
C128 C 0.53224 0.32765 0.90833 0.0
C129 C 0.52438 0.31338 0.8858 0.0
C130 C 0.55576 0.29352 0.87395 0.0
H131 H 0.63082 0.29773 0.91303 0.0
O132 O 0.68507 0.36599 0.85636 0.0
O133 O 0.64791 0.31171 0.8494 0.0
O134 O 0.72497 0.29373 0.87117 0.0
O135 O 0.67195 0.25794 0.88517 0.0
C136 C 0.48693 0.31892 0.87442 0.0
C137 C 0.48165 0.30499 0.85141 0.0
H138 H 0.48338 0.27579 0.80679 0.0
H139 H 0.54336 0.24385 0.78814 0.0
H140 H 0.57709 0.33271 0.93558 0.0
H141 H 0.50901 0.34337 0.91816 0.0
H142 H 0.46216 0.33432 0.88311 0.0
H143 H 0.45288 0.30985 0.84275 0.0
Mn144 Mn 0.69435 0.30769 0.17682 0.0
Mn145 Mn 0.74976 0.38411 0.15401 0.0
C146 C 0.6627 0.36021 0.15758 0.0
C147 C 0.65519 0.28111 0.2074 0.0
C148 C 0.73939 0.30337 0.12988 0.0
O149 O 0.74906 0.30051 0.19325 0.0
O150 O 0.78334 0.35159 0.17598 0.0
C151 C 0.75986 0.43131 0.19743 0.0
N152 N 0.74707 0.42907 0.17493 0.0
C153 C 0.72319 0.49802 0.17589 0.0
C154 C 0.73641 0.50116 0.19902 0.0
C155 C 0.75479 0.46764 0.20984 0.0
C156 C 0.7294 0.46116 0.16435 0.0
H157 H 0.77372 0.40553 0.20588 0.0
C158 C 0.78126 0.32138 0.18997 0.0
O159 O 0.67003 0.25766 0.19131 0.0
O160 O 0.66628 0.31871 0.20677 0.0
N161 N 0.72122 0.41821 0.13258 0.0
C162 C 0.70853 0.40961 0.11055 0.0
C163 C 0.68849 0.43959 0.09754 0.0
C164 C 0.682 0.47815 0.10722 0.0
C165 C 0.69588 0.48648 0.12979 0.0
C166 C 0.71597 0.4555 0.14185 0.0
H167 H 0.71323 0.37994 0.10307 0.0
O168 O 0.64493 0.3255 0.16003 0.0
O169 O 0.69865 0.36358 0.16681 0.0
O170 O 0.71781 0.28634 0.14568 0.0
O171 O 0.75291 0.33956 0.13134 0.0
C172 C 0.68978 0.524 0.14097 0.0
C173 C 0.70341 0.52976 0.164 0.0
H174 H 0.73228 0.52903 0.20871 0.0
H175 H 0.76486 0.46975 0.22772 0.0
H176 H 0.67786 0.43293 0.08014 0.0
H177 H 0.66612 0.50106 0.09723 0.0
H178 H 0.67417 0.54846 0.13211 0.0
H179 H 0.69813 0.55859 0.17251 0.0
Mn180 Mn 0.20578 0.18868 0.67772 0.0
Mn181 Mn 0.13067 0.24472 0.65398 0.0
C182 C 0.15266 0.1574 0.6589 0.0
C183 C 0.23172 0.15016 0.7087 0.0
C184 C 0.21149 0.2318 0.63028 0.0
O185 O 0.21377 0.24382 0.69351 0.0
O186 O 0.1635 0.27846 0.67566 0.0
C187 C 0.083 0.25765 0.69704 0.0
N188 N 0.08534 0.24383 0.67474 0.0
C189 C 0.01588 0.22151 0.67571 0.0
C190 C 0.01264 0.23578 0.69863 0.0
C191 C 0.04636 0.2539 0.70933 0.0
C192 C 0.05305 0.22643 0.66425 0.0
H193 H 0.10892 0.27131 0.70541 0.0
C194 C 0.19349 0.27627 0.6898 0.0
O195 O 0.2554 0.16412 0.69244 0.0
O196 O 0.19426 0.16183 0.70799 0.0
N197 N 0.09635 0.21596 0.63282 0.0
C198 C 0.1051 0.20199 0.61106 0.0
C199 C 0.07493 0.18196 0.59822 0.0
C200 C 0.03607 0.17675 0.6078 0.0
C201 C 0.02764 0.19188 0.63009 0.0
C202 C 0.05881 0.21189 0.64199 0.0
H203 H 0.13499 0.20567 0.60367 0.0
O204 O 0.18706 0.13904 0.66152 0.0
O205 O 0.15003 0.19378 0.66761 0.0
O206 O 0.22785 0.21048 0.64639 0.0
O207 O 0.17557 0.24613 0.63141 0.0
C208 C 0.98981 0.18707 0.64117 0.0
C209 C 0.98394 0.20187 0.66397 0.0
H210 H 0.98453 0.23266 0.70824 0.0
H211 H 0.04417 0.26478 0.72706 0.0
H212 H 0.08169 0.17035 0.58103 0.0
H213 H 0.01302 0.16089 0.59794 0.0
H214 H 0.96519 0.17157 0.63244 0.0
H215 H 0.95487 0.19756 0.67241 0.0
Mn216 Mn 0.32081 0.70494 0.17755 0.0
Mn217 Mn 0.26939 0.6257 0.15504 0.0
C218 C 0.35543 0.65348 0.15894 0.0
C219 C 0.35731 0.7329 0.20868 0.0
C220 C 0.27549 0.70762 0.13108 0.0
O221 O 0.26476 0.71049 0.19277 0.0
O222 O 0.23512 0.65405 0.17852 0.0
C223 C 0.26524 0.57486 0.19747 0.0
N224 N 0.27625 0.57951 0.17477 0.0
C225 C 0.30423 0.51213 0.17351 0.0
C226 C 0.29271 0.50644 0.19679 0.0
C227 C 0.2732 0.53798 0.20882 0.0
C228 C 0.29508 0.54938 0.16303 0.0
H229 H 0.2507 0.59918 0.20688 0.0
C230 C 0.23484 0.68587 0.19136 0.0
O231 O 0.3426 0.75584 0.19228 0.0
O232 O 0.34734 0.695 0.20801 0.0
N233 N 0.29918 0.59533 0.13235 0.0
C234 C 0.31066 0.60661 0.11048 0.0
C235 C 0.33197 0.57905 0.09643 0.0
C236 C 0.34107 0.54015 0.10492 0.0
C237 C 0.32855 0.52908 0.12737 0.0
C238 C 0.30705 0.55769 0.14052 0.0
H239 H 0.30399 0.63654 0.10389 0.0
O240 O 0.37189 0.68874 0.16169 0.0
O241 O 0.31925 0.64894 0.16767 0.0
O242 O 0.29831 0.72491 0.14611 0.0
O243 O 0.26186 0.67153 0.13328 0.0
C244 C 0.33744 0.49113 0.13744 0.0
C245 C 0.3253 0.48267 0.16049 0.0
H246 H 0.29914 0.47818 0.20568 0.0
H247 H 0.26454 0.53395 0.22686 0.0
H248 H 0.34159 0.58786 0.07913 0.0
H249 H 0.35793 0.51915 0.09413 0.0
H250 H 0.35416 0.46847 0.12773 0.0
H251 H 0.33285 0.45361 0.16815 0.0
Mn252 Mn 0.79763 0.81947 0.67682 0.0
Mn253 Mn 0.88115 0.76984 0.6582 0.0
C254 C 0.85109 0.8553 0.66098 0.0
C255 C 0.76326 0.85489 0.70613 0.0
C256 C 0.80301 0.77435 0.63035 0.0
O257 O 0.791 0.76318 0.69168 0.0
O258 O 0.85015 0.735 0.68025 0.0
C259 C 0.92565 0.76655 0.70292 0.0
N260 N 0.92416 0.77746 0.68006 0.0
C261 C 0.9912 0.80609 0.6819 0.0
C262 C 0.99365 0.79469 0.70538 0.0
C263 C 0.96069 0.77492 0.71594 0.0
C264 C 0.95567 0.79658 0.66974 0.0
H265 H 0.90022 0.75177 0.71118 0.0
C266 C 0.81657 0.73389 0.69152 0.0
O267 O 0.74396 0.83993 0.68837 0.0
O268 O 0.80139 0.84604 0.70783 0.0
N269 N 0.91419 0.80022 0.63704 0.0
C270 C 0.90595 0.81156 0.61471 0.0
C271 C 0.93521 0.83311 0.60195 0.0
C272 C 0.9727 0.84254 0.6122 0.0
C273 C 0.98067 0.83014 0.6351 0.0
C274 C 0.95048 0.80844 0.64691 0.0
H275 H 0.87713 0.80459 0.60676 0.0
O276 O 0.81517 0.871 0.66195 0.0
O277 O 0.85507 0.81915 0.66983 0.0
O278 O 0.78321 0.7968 0.6445 0.0
O279 O 0.83891 0.76137 0.63427 0.0
C280 C 0.017 0.83933 0.64686 0.0
C281 C 0.02225 0.82735 0.67025 0.0
H282 H 0.02048 0.8014 0.71554 0.0
H283 H 0.9622 0.76634 0.73411 0.0
H284 H 0.9288 0.84263 0.5843 0.0
H285 H 0.99501 0.85957 0.6024 0.0
H286 H 0.04085 0.85615 0.6382 0.0
H287 H 0.05006 0.83514 0.67922 0.0
C288 C 0.10587 0.12534 0.38138 0.0
C289 C 0.13043 0.12334 0.36146 0.0
C290 C 0.07648 0.09571 0.38549 0.0
C291 C 0.04539 0.99272 0.37238 0.0
H292 H 0.93453 0.03234 0.37494 0.0
C293 C 0.8833 0.92354 0.34861 0.0
C294 C 0.88031 0.89011 0.3636 0.0
C295 C 0.912 0.95376 0.35275 0.0
C296 C 0.96538 0.021 0.37454 0.0
H297 H 0.14221 0.09064 0.32952 0.0
H298 H 0.09204 0.03749 0.33725 0.0
H299 H 0.99106 0.08071 0.37439 0.0
H300 H 0.90581 0.86067 0.39393 0.0
H301 H 0.95715 0.91321 0.40085 0.0
H302 H 0.01971 0.93302 0.37224 0.0
C303 C 0.09613 0.0615 0.34989 0.0
C304 C 0.99758 0.04851 0.37431 0.0
C305 C 0.125 0.09155 0.34558 0.0
C306 C 0.90695 0.88686 0.38255 0.0
C307 C 0.93622 0.91669 0.38645 0.0
C308 C 0.01323 0.9652 0.37312 0.0
C309 C 0.07124 0.06373 0.36969 0.0
C310 C 0.03776 0.03456 0.37272 0.0
C311 C 0.93921 0.95013 0.37142 0.0
C312 C 0.97298 0.97917 0.37371 0.0
H313 H 0.10887 0.15033 0.39349 0.0
H314 H 0.05736 0.09812 0.40077 0.0
H315 H 0.07617 0.9814 0.37114 0.0
H316 H 0.86445 0.92553 0.33321 0.0
H317 H 0.91431 0.97892 0.34068 0.0
C318 C 0.38103 0.59923 0.88271 0.0
C319 C 0.38398 0.62426 0.86302 0.0
C320 C 0.41021 0.5694 0.8869 0.0
C321 C 0.51332 0.53729 0.87443 0.0
H322 H 0.47227 0.42696 0.87624 0.0
C323 C 0.58148 0.37468 0.85058 0.0
C324 C 0.61519 0.37211 0.86538 0.0
C325 C 0.55105 0.4032 0.85482 0.0
C326 C 0.484 0.45765 0.87603 0.0
H327 H 0.41801 0.63652 0.83158 0.0
H328 H 0.47038 0.58558 0.83946 0.0
H329 H 0.4246 0.48415 0.87557 0.0
H330 H 0.64459 0.39779 0.89563 0.0
H331 H 0.5917 0.44866 0.90274 0.0
H332 H 0.57269 0.51084 0.87458 0.0
C333 C 0.44595 0.58961 0.85187 0.0
C334 C 0.45689 0.49023 0.87574 0.0
C335 C 0.41634 0.61893 0.84748 0.0
C336 C 0.61824 0.39864 0.88438 0.0
C337 C 0.58821 0.42768 0.88838 0.0
C338 C 0.54042 0.50475 0.87521 0.0
C339 C 0.4427 0.56418 0.8714 0.0
C340 C 0.47138 0.53023 0.87445 0.0
C341 C 0.55472 0.43058 0.87341 0.0
C342 C 0.52595 0.46469 0.87554 0.0
H343 H 0.3556 0.60217 0.89455 0.0
H344 H 0.40704 0.54991 0.90198 0.0
H345 H 0.52506 0.56792 0.87342 0.0
H346 H 0.57954 0.35588 0.83518 0.0
H347 H 0.52582 0.40539 0.84281 0.0
C348 C 0.63437 0.42902 0.16441 0.0
C349 C 0.63805 0.39487 0.15004 0.0
C350 C 0.60532 0.45867 0.15956 0.0
C351 C 0.50408 0.46614 0.13758 0.0
H352 H 0.52155 0.58241 0.13852 0.0
C353 C 0.40689 0.62467 0.13212 0.0
C354 C 0.3813 0.61972 0.15144 0.0
C355 C 0.43696 0.59603 0.12729 0.0
C356 C 0.51632 0.55 0.13793 0.0
H357 H 0.61391 0.36398 0.11986 0.0
H358 H 0.56223 0.41553 0.11163 0.0
H359 H 0.57999 0.53639 0.13827 0.0
H360 H 0.368 0.5824 0.18147 0.0
H361 H 0.41936 0.53113 0.17245 0.0
H362 H 0.44044 0.47972 0.13855 0.0
C363 C 0.58267 0.41995 0.12617 0.0
C364 C 0.54964 0.5238 0.1379 0.0
C365 C 0.61219 0.39067 0.13081 0.0
C366 C 0.38605 0.58571 0.16583 0.0
C367 C 0.41562 0.55669 0.16079 0.0
C368 C 0.47078 0.49232 0.13806 0.0
C369 C 0.57854 0.45382 0.14076 0.0
C370 C 0.54376 0.48167 0.13804 0.0
C371 C 0.44188 0.5621 0.14177 0.0
C372 C 0.47666 0.53443 0.13855 0.0
H373 H 0.65268 0.43186 0.17997 0.0
H374 H 0.60223 0.48418 0.1713 0.0
H375 H 0.49883 0.43372 0.13792 0.0
H376 H 0.40437 0.65134 0.12118 0.0
H377 H 0.45703 0.60089 0.11262 0.0
C378 C 0.12076 0.10586 0.63338 0.0
C379 C 0.11736 0.1331 0.65203 0.0
C380 C 0.09065 0.0769 0.62946 0.0
C381 C 0.98591 0.04797 0.64152 0.0
H382 H 0.02648 0.93755 0.64499 0.0
C383 C 0.9175 0.88692 0.67038 0.0
C384 C 0.88527 0.88165 0.65477 0.0
C385 C 0.94715 0.91621 0.66607 0.0
C386 C 0.01487 0.96822 0.64376 0.0
H387 H 0.08096 0.1507 0.68171 0.0
H388 H 0.02717 0.10128 0.67423 0.0
H389 H 0.07435 0.99435 0.64369 0.0
H390 H 0.85715 0.90388 0.62321 0.0
H391 H 0.90868 0.95605 0.61591 0.0
H392 H 0.9264 0.02179 0.64188 0.0
C393 C 0.05272 0.10285 0.6624 0.0
C394 C 0.04212 1.0006 0.64289 0.0
C395 C 0.08321 0.13131 0.66655 0.0
C396 C 0.88247 0.90676 0.63511 0.0
C397 C 0.91171 0.93655 0.63099 0.0
C398 C 0.95866 0.01553 0.64191 0.0
C399 C 0.05674 0.07475 0.64419 0.0
C400 C 0.02784 0.04074 0.64222 0.0
C401 C 0.9441 0.94168 0.64654 0.0
C402 C 0.97296 0.97548 0.64351 0.0
H403 H 0.14742 0.10612 0.62234 0.0
H404 H 0.09442 0.05539 0.61538 0.0
H405 H 0.9743 0.07871 0.64104 0.0
H406 H 0.91905 0.86926 0.68626 0.0
H407 H 0.97149 0.92015 0.67853 0.0
C408 C 0.28208 0.21135 0.42124 0.0
C409 C 0.24575 0.22087 0.40971 0.0
C410 C 0.2868 0.21978 0.44497 0.0
C411 C 0.23554 0.27053 0.49605 0.0
H412 H 0.29828 0.19192 0.53092 0.0
C413 C 0.23211 0.27363 0.5961 0.0
C414 C 0.23223 0.23613 0.60764 0.0
C415 C 0.2427 0.2762 0.57255 0.0
C416 C 0.28019 0.21397 0.5216 0.0
H417 H 0.18613 0.24734 0.41386 0.0
H418 H 0.19323 0.26022 0.45527 0.0
H419 H 0.29738 0.18865 0.48891 0.0
H420 H 0.24425 0.17204 0.6039 0.0
H421 H 0.2607 0.17576 0.5627 0.0
H422 H 0.21536 0.29354 0.52871 0.0
C423 C 0.21901 0.24775 0.44607 0.0
C424 C 0.28033 0.21263 0.49724 0.0
C425 C 0.21476 0.24031 0.42219 0.0
C426 C 0.2448 0.20147 0.5955 0.0
C427 C 0.25423 0.20377 0.57176 0.0
C428 C 0.23457 0.27122 0.52041 0.0
C429 C 0.2548 0.2368 0.458 0.0
C430 C 0.25753 0.24055 0.48401 0.0
C431 C 0.25217 0.24103 0.55968 0.0
C432 C 0.25644 0.2426 0.53365 0.0
H433 H 0.30654 0.19641 0.412 0.0
H434 H 0.31533 0.21198 0.45313 0.0
H435 H 0.21833 0.29329 0.48674 0.0
H436 H 0.22233 0.30079 0.60511 0.0
H437 H 0.24202 0.30571 0.56432 0.0
C438 C 0.26644 0.70753 0.92302 0.0
C439 C 0.28441 0.73929 0.91048 0.0
C440 C 0.25821 0.71179 0.94681 0.0
C441 C 0.28841 0.77628 0.99773 0.0
H442 H 0.21249 0.70571 0.02933 0.0
C443 C 0.30246 0.7427 0.09595 0.0
C444 C 0.26915 0.72715 0.10823 0.0
C445 C 0.29922 0.7517 0.0722 0.0
C446 C 0.23332 0.72648 0.021 0.0
H447 H 0.3054 0.80132 0.91247 0.0
H448 H 0.28815 0.81013 0.95339 0.0
H449 H 0.21264 0.70845 0.98738 0.0
H450 H 0.20559 0.71157 0.10589 0.0
H451 H 0.19872 0.73047 0.06507 0.0
H452 H 0.30744 0.79612 0.03135 0.0
C453 C 0.28223 0.78104 0.94541 0.0
C454 C 0.23403 0.72735 0.99665 0.0
C455 C 0.29159 0.7763 0.92179 0.0
C456 C 0.23174 0.72359 0.09678 0.0
C457 C 0.22811 0.73378 0.07321 0.0
C458 C 0.2869 0.77629 0.02209 0.0
C459 C 0.26679 0.74837 0.95857 0.0
C460 C 0.26243 0.75131 0.98455 0.0
C461 C 0.26222 0.74633 0.06023 0.0
C462 C 0.26019 0.75047 0.0342 0.0
H463 H 0.26129 0.67839 0.91483 0.0
H464 H 0.24709 0.6855 0.95608 0.0
H465 H 0.31114 0.79497 0.98941 0.0
H466 H 0.33189 0.74493 0.10425 0.0
H467 H 0.32653 0.76057 0.06309 0.0
C468 C 0.76812 0.79889 0.59447 0.0
C469 C 0.78633 0.76703 0.60683 0.0
C470 C 0.75995 0.79499 0.57066 0.0
C471 C 0.7905 0.73153 0.51932 0.0
H472 H 0.71399 0.80218 0.48823 0.0
C473 C 0.73279 0.78495 0.42061 0.0
C474 C 0.77007 0.78143 0.40899 0.0
C475 C 0.72944 0.77469 0.44419 0.0
C476 C 0.735 0.78139 0.49641 0.0
H477 H 0.80787 0.70521 0.60445 0.0
H478 H 0.79074 0.69701 0.56348 0.0
H479 H 0.71436 0.79882 0.53016 0.0
H480 H 0.8329 0.76375 0.41269 0.0
H481 H 0.82804 0.74806 0.45387 0.0
H482 H 0.80945 0.71224 0.48557 0.0
C483 C 0.78457 0.72591 0.57164 0.0
C484 C 0.73583 0.78017 0.52076 0.0
C485 C 0.79386 0.7303 0.59529 0.0
C486 C 0.80357 0.76596 0.42112 0.0
C487 C 0.80061 0.75691 0.44488 0.0
C488 C 0.78886 0.73186 0.49496 0.0
C489 C 0.76883 0.75869 0.55868 0.0
C490 C 0.76442 0.75616 0.53268 0.0
C491 C 0.76371 0.76213 0.45701 0.0
C492 C 0.76192 0.7577 0.48303 0.0
H493 H 0.76269 0.82783 0.60283 0.0
H494 H 0.74861 0.82137 0.56155 0.0
H495 H 0.81337 0.71282 0.5275 0.0
H496 H 0.70649 0.79688 0.41161 0.0
H497 H 0.70012 0.7779 0.45244 0.0
C498 C 0.72454 0.22887 0.92126 0.0
C499 C 0.72801 0.26615 0.90961 0.0
C500 C 0.73465 0.22554 0.94484 0.0
C501 C 0.77842 0.28356 0.99551 0.0
H502 H 0.70804 0.21223 0.03077 0.0
C503 C 0.71183 0.26732 0.09517 0.0
C504 C 0.74528 0.28305 0.10722 0.0
C505 C 0.71482 0.25817 0.07141 0.0
C506 C 0.72777 0.23266 0.02133 0.0
H507 H 0.74578 0.32891 0.91324 0.0
H508 H 0.76177 0.32391 0.95449 0.0
H509 H 0.70469 0.21218 0.98873 0.0
H510 H 0.80879 0.29876 0.10447 0.0
H511 H 0.81507 0.27998 0.06363 0.0
H512 H 0.79899 0.30655 0.02811 0.0
C513 C 0.75273 0.2966 0.94546 0.0
C514 C 0.72644 0.23207 0.99697 0.0
C515 C 0.74361 0.29961 0.92169 0.0
C516 C 0.78254 0.28658 0.09555 0.0
C517 C 0.78586 0.27645 0.07198 0.0
C518 C 0.77912 0.28478 0.01987 0.0
C519 C 0.74722 0.25976 0.95761 0.0
C520 C 0.75139 0.25789 0.98361 0.0
C521 C 0.75162 0.26379 0.05924 0.0
C522 C 0.75342 0.25971 0.03323 0.0
H523 H 0.7125 0.2026 0.91231 0.0
H524 H 0.73121 0.1963 0.95317 0.0
H525 H 0.79877 0.30337 0.98606 0.0
H526 H 0.68254 0.26511 0.10364 0.0
H527 H 0.68751 0.24905 0.0624 0.0
C528 C 0.60537 0.22892 0.22221 0.0
C529 C 0.62169 0.26824 0.22315 0.0
C530 C 0.56945 0.21947 0.23423 0.0
C531 C 0.49642 0.2603 0.27908 0.0
H532 H 0.42124 0.18696 0.24888 0.0
C533 C 0.32736 0.24353 0.30728 0.0
C534 C 0.31466 0.20337 0.31112 0.0
C535 C 0.36477 0.25151 0.29646 0.0
C536 C 0.44198 0.20745 0.25755 0.0
H537 H 0.6136 0.32804 0.23818 0.0
H538 H 0.55118 0.31217 0.25834 0.0
H539 H 0.48762 0.19914 0.23151 0.0
H540 H 0.33081 0.14022 0.30581 0.0
H541 H 0.39504 0.15423 0.28648 0.0
H542 H 0.4499 0.26938 0.30472 0.0
C543 C 0.56616 0.28808 0.24887 0.0
C544 C 0.48032 0.21419 0.24771 0.0
C545 C 0.60216 0.29731 0.23713 0.0
C546 C 0.33959 0.17154 0.3032 0.0
C547 C 0.37642 0.17952 0.29203 0.0
C548 C 0.45783 0.25404 0.28868 0.0
C549 C 0.54869 0.24924 0.24729 0.0
C550 C 0.50825 0.24072 0.25832 0.0
C551 C 0.38977 0.21953 0.2888 0.0
C552 C 0.43018 0.22749 0.27806 0.0
H553 H 0.61957 0.20579 0.21159 0.0
H554 H 0.55766 0.18893 0.23295 0.0
H555 H 0.51708 0.28029 0.28814 0.0
H556 H 0.30901 0.26871 0.31325 0.0
H557 H 0.37418 0.2827 0.29408 0.0
C558 C 0.26639 0.82228 0.80839 0.0
C559 C 0.30642 0.8095 0.81264 0.0
C560 C 0.25879 0.85981 0.79764 0.0
C561 C 0.30405 0.93721 0.75944 0.0
H562 H 0.23043 0.01225 0.78959 0.0
C563 C 0.28352 0.1005 0.72405 0.0
C564 C 0.24416 0.11685 0.72465 0.0
C565 C 0.29267 0.06464 0.73619 0.0
C566 C 0.25065 0.99161 0.78065 0.0
H567 H 0.36977 0.82565 0.80815 0.0
H568 H 0.35644 0.89014 0.78892 0.0
H569 H 0.24087 0.94497 0.80613 0.0
H570 H 0.18397 0.10891 0.73924 0.0
H571 H 0.19933 0.04655 0.7596 0.0
H572 H 0.31304 0.98292 0.73354 0.0
C573 C 0.33096 0.87146 0.7941 0.0
C574 C 0.25664 0.95297 0.79023 0.0
C575 C 0.33854 0.8345 0.80522 0.0
C576 C 0.21473 0.09744 0.73846 0.0
C577 C 0.22367 0.06147 0.7503 0.0
C578 C 0.29757 0.97558 0.74962 0.0
C579 C 0.29105 0.88487 0.79047 0.0
C580 C 0.28346 0.92535 0.77977 0.0
C581 C 0.26255 0.04395 0.74901 0.0
C582 C 0.27077 1.00349 0.76006 0.0
H583 H 0.24099 0.80387 0.81398 0.0
H584 H 0.22769 0.86928 0.79494 0.0
H585 H 0.32475 0.91648 0.7509 0.0
H586 H 0.30692 0.11462 0.71358 0.0
H587 H 0.32325 0.05282 0.73515 0.0
C588 C 0.67115 0.84423 0.30573 0.0
C589 C 0.69675 0.81209 0.31232 0.0
C590 C 0.63422 0.83685 0.29457 0.0
C591 C 0.57407 0.75557 0.26463 0.0
H592 H 0.48471 0.82927 0.27671 0.0
C593 C 0.40962 0.71785 0.23893 0.0
C594 C 0.39008 0.74656 0.22465 0.0
C595 C 0.44564 0.72744 0.25048 0.0
C596 C 0.50946 0.80859 0.27309 0.0
H597 H 0.70355 0.74682 0.31218 0.0
H598 H 0.63829 0.73358 0.29361 0.0
H599 H 0.55045 0.84141 0.29483 0.0
H600 H 0.39205 0.80877 0.21252 0.0
H601 H 0.45462 0.82599 0.23351 0.0
H602 H 0.53215 0.72197 0.24363 0.0
C603 C 0.6472 0.76477 0.29638 0.0
C604 C 0.5474 0.8156 0.28334 0.0
C605 C 0.6847 0.77227 0.30715 0.0
C606 C 0.40616 0.78601 0.22344 0.0
C607 C 0.44205 0.79583 0.23538 0.0
C608 C 0.53594 0.74818 0.25477 0.0
C609 C 0.62116 0.79699 0.29008 0.0
C610 C 0.58045 0.78929 0.27921 0.0
C611 C 0.46281 0.76619 0.2484 0.0
C612 C 0.50324 0.77462 0.25886 0.0
H613 H 0.67961 0.87536 0.30924 0.0
H614 H 0.61598 0.86266 0.28947 0.0
H615 H 0.59862 0.73499 0.26052 0.0
H616 H 0.3982 0.68716 0.24034 0.0
H617 H 0.46062 0.70419 0.26067 0.0
C618 C 0.70185 0.1905 0.78979 0.0
C619 C 0.70265 0.19217 0.81417 0.0
C620 C 0.70631 0.15326 0.77822 0.0
C621 C 0.70256 0.04063 0.78987 0.0
H622 H 0.74617 0.03421 0.72732 0.0
C623 C 0.7621 0.89485 0.74315 0.0
C624 C 0.74582 0.88728 0.72095 0.0
C625 C 0.75247 0.93055 0.75515 0.0
C626 C 0.73364 0.03567 0.74474 0.0
H627 H 0.71028 0.15697 0.84562 0.0
H628 H 0.72115 0.09282 0.82572 0.0
H629 H 0.74189 0.09984 0.74667 0.0
H630 H 0.70592 0.9108 0.69419 0.0
H631 H 0.69001 0.97382 0.71495 0.0
H632 H 0.69666 0.97581 0.78811 0.0
C633 C 0.71512 0.11944 0.81526 0.0
C634 C 0.73094 0.07339 0.75588 0.0
C635 C 0.70956 0.15639 0.82676 0.0
C636 C 0.71842 0.91544 0.71142 0.0
C637 C 0.70966 0.95169 0.72315 0.0
C638 C 0.70624 1.00286 0.77891 0.0
C639 C 0.71252 0.11692 0.7908 0.0
C640 C 0.71539 0.07658 0.77869 0.0
C641 C 0.72725 0.9599 0.74492 0.0
C642 C 0.72172 1.00003 0.75624 0.0
H643 H 0.69582 0.21765 0.77974 0.0
H644 H 0.70344 0.15297 0.75947 0.0
H645 H 0.6893 0.04142 0.80709 0.0
H646 H 0.78361 0.8739 0.75082 0.0
H647 H 0.76648 0.93622 0.77189 0.0
C648 C 0.09444 0.2916 0.30661 0.0
C649 C 0.12292 0.26499 0.29664 0.0
C650 C 0.05818 0.30069 0.29495 0.0
C651 C 0.00755 0.30824 0.23941 0.0
H652 H 0.91069 0.26688 0.26946 0.0
C653 C 0.85529 0.30658 0.19014 0.0
C654 C 0.81891 0.31073 0.20258 0.0
C655 C 0.89211 0.30092 0.20178 0.0
C656 C 0.93708 0.27944 0.2609 0.0
H657 H 0.13676 0.2289 0.26617 0.0
H658 H 0.07441 0.24671 0.24526 0.0
H659 H 0.97602 0.26186 0.28915 0.0
H660 H 0.79227 0.31244 0.23694 0.0
H661 H 0.85666 0.30476 0.25754 0.0
H662 H 0.96923 0.32756 0.21163 0.0
C663 C 0.07987 0.25981 0.26226 0.0
C664 C 0.97463 0.2763 0.27222 0.0
C665 C 0.11558 0.24981 0.27417 0.0
C666 C 0.8199 0.30867 0.22696 0.0
C667 C 0.857 0.30416 0.23871 0.0
C668 C 0.96992 0.31237 0.22832 0.0
C669 C 0.05026 0.28426 0.27285 0.0
C670 C 0.01024 0.29025 0.26147 0.0
C671 C 0.89389 0.30066 0.22631 0.0
C672 C 0.93401 0.29747 0.23869 0.0
H673 H 0.09889 0.30321 0.32405 0.0
H674 H 0.03582 0.3197 0.30343 0.0
H675 H 0.03458 0.31942 0.23082 0.0
H676 H 0.85527 0.30793 0.17129 0.0
H677 H 0.91918 0.29698 0.19137 0.0
C678 C 0.20595 0.31517 0.72666 0.0
C679 C 0.20422 0.31397 0.70228 0.0
C680 C 0.21016 0.35234 0.73833 0.0
C681 C 0.20128 0.46504 0.72762 0.0
H682 H 0.25052 0.47183 0.78872 0.0
C683 C 0.26162 0.611 0.77416 0.0
C684 C 0.24532 0.61824 0.7964 0.0
C685 C 0.2523 0.57532 0.76207 0.0
C686 C 0.23644 0.47023 0.77171 0.0
H687 H 0.20736 0.35006 0.67089 0.0
H688 H 0.21784 0.41415 0.69085 0.0
H689 H 0.24667 0.40642 0.76907 0.0
H690 H 0.20577 0.59413 0.82318 0.0
H691 H 0.19046 0.53112 0.80227 0.0
H692 H 0.19341 0.52961 0.73001 0.0
C693 C 0.21386 0.38715 0.70131 0.0
C694 C 0.23396 0.43264 0.76041 0.0
C695 C 0.20849 0.35024 0.68975 0.0
C696 C 0.21824 0.58975 0.80591 0.0
C697 C 0.20982 0.55352 0.79409 0.0
C698 C 0.20474 0.50272 0.73869 0.0
C699 C 0.2137 0.38912 0.72583 0.0
C700 C 0.21636 0.42933 0.73812 0.0
C701 C 0.2274 0.54568 0.77227 0.0
C702 C 0.22223 0.50564 0.76085 0.0
H703 H 0.20205 0.28763 0.73671 0.0
H704 H 0.20925 0.35216 0.75715 0.0
H705 H 0.18641 0.46413 0.71084 0.0
H706 H 0.2829 0.6322 0.76651 0.0
H707 H 0.26628 0.5699 0.74529 0.0
C708 C 0.1851 0.73384 0.21024 0.0
C709 C 0.19711 0.69411 0.20477 0.0
C710 C 0.14763 0.74122 0.22107 0.0
C711 C 0.04766 0.69057 0.2339 0.0
H712 H 0.03276 0.78383 0.27398 0.0
C713 C 0.90625 0.72089 0.2938 0.0
C714 C 0.89032 0.76043 0.29251 0.0
C715 C 0.94218 0.71083 0.28193 0.0
C716 C 0.03645 0.75772 0.26274 0.0
H717 H 0.17985 0.63083 0.20736 0.0
H718 H 0.11615 0.6433 0.22724 0.0
H719 H 0.09922 0.77055 0.25711 0.0
H720 H 0.89884 0.81973 0.27677 0.0
H721 H 0.96135 0.80228 0.25658 0.0
H722 H 0.98484 0.67728 0.24044 0.0
C723 C 0.13447 0.66915 0.22234 0.0
C724 C 0.07458 0.75018 0.25288 0.0
C725 C 0.17142 0.66189 0.2111 0.0
C726 C 0.9101 0.78897 0.27823 0.0
C727 C 0.94617 0.77914 0.26676 0.0
C728 C 0.00971 0.69772 0.24416 0.0
C729 C 0.12151 0.70896 0.22716 0.0
C730 C 0.08083 0.71663 0.23814 0.0
C731 C 0.96315 0.74029 0.2689 0.0
C732 C 1.00361 0.7316 0.2585 0.0
H733 H 0.204 0.75936 0.2054 0.0
H734 H 0.1388 0.77238 0.22407 0.0
H735 H 0.05061 0.66489 0.22231 0.0
H736 H 0.89195 0.69825 0.30472 0.0
H737 H 0.95459 0.68059 0.28385 0.0
C738 C 0.71429 0.40905 0.77969 0.0
C739 C 0.7435 0.38961 0.79367 0.0
C740 C 0.72335 0.4452 0.76808 0.0
C741 C 0.80464 0.50939 0.74515 0.0
H742 H 0.72921 0.59772 0.7559 0.0
C743 C 0.83979 0.67106 0.71215 0.0
C744 C 0.8077 0.69608 0.70476 0.0
C745 C 0.83227 0.63416 0.72334 0.0
C746 C 0.75033 0.57338 0.7523 0.0
H747 H 0.80594 0.3921 0.80534 0.0
H748 H 0.82219 0.45491 0.78432 0.0
H749 H 0.71647 0.53153 0.77328 0.0
H750 H 0.74232 0.70179 0.70355 0.0
H751 H 0.72894 0.6366 0.72226 0.0
H752 H 0.83785 0.55037 0.72352 0.0
C753 C 0.79207 0.44215 0.78268 0.0
C754 C 0.74308 0.5354 0.76242 0.0
C755 C 0.7828 0.40612 0.79465 0.0
C756 C 0.76774 0.68341 0.70917 0.0
C757 C 0.76015 0.64596 0.72002 0.0
C758 C 0.81157 0.54718 0.73467 0.0
C759 C 0.76204 0.46267 0.76981 0.0
C760 C 0.77017 0.50298 0.75901 0.0
C761 C 0.79235 0.62054 0.72712 0.0
C762 C 0.78462 0.57993 0.73815 0.0
H763 H 0.68368 0.39733 0.77848 0.0
H764 H 0.69977 0.45994 0.75803 0.0
H765 H 0.82584 0.48489 0.742 0.0
H766 H 0.87101 0.67999 0.70928 0.0
H767 H 0.85802 0.61639 0.72906 0.0
loop_
_geom_bond_atom_site_label_1
_geom_bond_atom_site_label_2
_geom_bond_distance
_geom_bond_site_symmetry_2
_ccdc_geom_bond_type
Mn0 O5 2.095 . S
Mn0 O15 2.162 . S
Mn0 O16 2.297 . S
Mn0 O24 2.385 . S
Mn0 O25 2.209 . S
Mn0 O26 2.094 . S
Mn1 O6 2.121 . S
Mn1 N8 2.257 . S
Mn1 N17 2.282 . S
Mn1 O25 2.215 . S
Mn1 O27 2.117 . S
C2 O24 1.234 . S
C2 O25 1.283 . S
C3 O15 1.281 . S
C3 O16 1.236 . S
C4 O26 1.240 . S
C4 O27 1.264 . S
O5 Mn0 2.095 . S
O5 C14 1.250 . S
O6 Mn1 2.121 . S
O6 C14 1.258 . S
C7 N8 1.326 . S
C7 C11 1.460 . S
C7 H13 0.929 . S
N8 Mn1 2.257 . S
N8 C7 1.326 . S
N8 C12 1.362 . S
C9 C10 1.258 . S
C9 C12 1.431 . S
C9 C29 1.449 1_545 S
C10 C9 1.258 . S
C10 C11 1.477 . S
C10 H30 0.931 . S
C11 C7 1.460 . S
C11 C10 1.477 . S
C11 H31 0.930 . S
C12 N8 1.362 . S
C12 C9 1.431 . S
C12 C22 1.476 . S
H13 C7 0.929 . S
C14 O5 1.250 . S
C14 O6 1.258 . S
O15 Mn0 2.162 . S
O15 C3 1.281 . S
O16 Mn0 2.297 . S
O16 C3 1.236 . S
N17 Mn1 2.282 . S
N17 C18 1.328 . S
N17 C22 1.318 . S
C18 N17 1.328 . S
C18 C19 1.457 . S
C18 H23 0.929 . S
C19 C18 1.457 . S
C19 C20 1.291 . S
C19 H32 0.931 . S
C20 C19 1.291 . S
C20 C21 1.373 . S
C20 H33 0.929 . S
C21 C20 1.373 . S
C21 C22 1.396 . S
C21 C28 1.403 1_545 S
C22 C12 1.476 . S
C22 N17 1.318 . S
C22 C21 1.396 . S
H23 C18 0.929 . S
O24 Mn0 2.385 . S
O24 C2 1.234 . S
O25 Mn0 2.209 . S
O25 Mn1 2.215 . S
O25 C2 1.283 . S
O26 Mn0 2.094 . S
O26 C4 1.240 . S
O27 Mn1 2.117 . S
O27 C4 1.264 . S
C28 C21 1.403 1_565 S
C28 C29 1.399 . S
C28 H34 0.929 . S
C29 C9 1.449 1_565 S
C29 C28 1.399 . S
C29 H35 0.930 . S
H30 C10 0.931 . S
H31 C11 0.930 . S
H32 C19 0.931 . S
H33 C20 0.929 . S
H34 C28 0.929 . S
H35 C29 0.930 . S
Mn36 O41 2.095 . S
Mn36 O51 2.162 . S
Mn36 O52 2.297 . S
Mn36 O60 2.385 . S
Mn36 O61 2.209 . S
Mn36 O62 2.094 . S
Mn37 O42 2.121 . S
Mn37 N44 2.257 . S
Mn37 N53 2.282 . S
Mn37 O61 2.215 . S
Mn37 O63 2.117 . S
C38 O60 1.234 . S
C38 O61 1.283 . S
C39 O51 1.281 . S
C39 O52 1.236 . S
C40 O62 1.240 . S
C40 O63 1.264 . S
O41 Mn36 2.095 . S
O41 C50 1.250 . S
O42 Mn37 2.121 . S
O42 C50 1.258 . S
C43 N44 1.326 . S
C43 C47 1.460 . S
C43 H49 0.929 . S
N44 Mn37 2.257 . S
N44 C43 1.326 . S
N44 C48 1.362 . S
C45 C46 1.258 . S
C45 C48 1.431 . S
C45 C65 1.449 . S
C46 C45 1.258 . S
C46 C47 1.477 . S
C46 H66 0.931 . S
C47 C43 1.460 . S
C47 C46 1.477 . S
C47 H67 0.930 . S
C48 N44 1.362 . S
C48 C45 1.431 . S
C48 C58 1.476 . S
H49 C43 0.929 . S
C50 O41 1.250 . S
C50 O42 1.258 . S
O51 Mn36 2.162 . S
O51 C39 1.281 . S
O52 Mn36 2.297 . S
O52 C39 1.236 . S
N53 Mn37 2.282 . S
N53 C54 1.328 . S
N53 C58 1.318 . S
C54 N53 1.328 . S
C54 C55 1.457 . S
C54 H59 0.929 . S
C55 C54 1.457 . S
C55 C56 1.291 . S
C55 H68 0.931 . S
C56 C55 1.291 . S
C56 C57 1.373 . S
C56 H69 0.929 . S
C57 C56 1.373 . S
C57 C58 1.396 . S
C57 C64 1.403 . S
C58 C48 1.476 . S
C58 N53 1.318 . S
C58 C57 1.396 . S
H59 C54 0.929 . S
O60 Mn36 2.385 . S
O60 C38 1.234 . S
O61 Mn36 2.209 . S
O61 Mn37 2.215 . S
O61 C38 1.283 . S
O62 Mn36 2.094 . S
O62 C40 1.240 . S
O63 Mn37 2.117 . S
O63 C40 1.264 . S
C64 C57 1.403 . S
C64 C65 1.399 . S
C64 H70 0.929 . S
C65 C45 1.449 . S
C65 C64 1.399 . S
C65 H71 0.930 . S
H66 C46 0.931 . S
H67 C47 0.930 . S
H68 C55 0.931 . S
H69 C56 0.929 . S
H70 C64 0.929 . S
H71 C65 0.930 . S
Mn72 O77 2.095 . S
Mn72 O87 2.162 . S
Mn72 O88 2.297 . S
Mn72 O96 2.385 . S
Mn72 O97 2.209 . S
Mn72 O98 2.094 . S
Mn73 O78 2.121 . S
Mn73 N80 2.257 . S
Mn73 N89 2.282 . S
Mn73 O97 2.215 . S
Mn73 O99 2.117 . S
C74 O96 1.234 . S
C74 O97 1.283 . S
C75 O87 1.281 . S
C75 O88 1.236 . S
C76 O98 1.240 . S
C76 O99 1.264 . S
O77 Mn72 2.095 . S
O77 C86 1.250 . S
O78 Mn73 2.121 . S
O78 C86 1.258 . S
C79 N80 1.326 . S
C79 C83 1.460 . S
C79 H85 0.929 . S
N80 Mn73 2.257 . S
N80 C79 1.326 . S
N80 C84 1.362 . S
C81 C82 1.258 . S
C81 C84 1.431 . S
C81 C101 1.449 1_565 S
C82 C81 1.258 . S
C82 C83 1.477 . S
C82 H102 0.931 . S
C83 C79 1.460 . S
C83 C82 1.477 . S
C83 H103 0.930 . S
C84 N80 1.362 . S
C84 C81 1.431 . S
C84 C94 1.476 . S
H85 C79 0.929 . S
C86 O77 1.250 . S
C86 O78 1.258 . S
O87 Mn72 2.162 . S
O87 C75 1.281 . S
O88 Mn72 2.297 . S
O88 C75 1.236 . S
N89 Mn73 2.282 . S
N89 C90 1.328 . S
N89 C94 1.318 . S
C90 N89 1.328 . S
C90 C91 1.457 . S
C90 H95 0.929 . S
C91 C90 1.457 . S
C91 C92 1.291 . S
C91 H104 0.931 . S
C92 C91 1.291 . S
C92 C93 1.373 . S
C92 H105 0.929 . S
C93 C92 1.373 . S
C93 C94 1.396 . S
C93 C100 1.403 1_565 S
C94 C84 1.476 . S
C94 N89 1.318 . S
C94 C93 1.396 . S
H95 C90 0.929 . S
O96 Mn72 2.385 . S
O96 C74 1.234 . S
O97 Mn72 2.209 . S
O97 Mn73 2.215 . S
O97 C74 1.283 . S
O98 Mn72 2.094 . S
O98 C76 1.240 . S
O99 Mn73 2.117 . S
O99 C76 1.264 . S
C100 C93 1.403 1_545 S
C100 C101 1.399 . S
C100 H106 0.929 . S
C101 C81 1.449 1_545 S
C101 C100 1.399 . S
C101 H107 0.930 . S
H102 C82 0.931 . S
H103 C83 0.930 . S
H104 C91 0.931 . S
H105 C92 0.929 . S
H106 C100 0.929 . S
H107 C101 0.930 . S
Mn108 O113 2.095 . S
Mn108 O123 2.162 . S
Mn108 O124 2.297 . S
Mn108 O132 2.385 . S
Mn108 O133 2.209 . S
Mn108 O134 2.094 . S
Mn109 O114 2.121 . S
Mn109 N116 2.257 . S
Mn109 N125 2.282 . S
Mn109 O133 2.215 . S
Mn109 O135 2.117 . S
C110 O132 1.234 . S
C110 O133 1.283 . S
C111 O123 1.281 . S
C111 O124 1.236 . S
C112 O134 1.240 . S
C112 O135 1.264 . S
O113 Mn108 2.095 . S
O113 C122 1.250 . S
O114 Mn109 2.121 . S
O114 C122 1.258 . S
C115 N116 1.326 . S
C115 C119 1.460 . S
C115 H121 0.929 . S
N116 Mn109 2.257 . S
N116 C115 1.326 . S
N116 C120 1.362 . S
C117 C118 1.258 . S
C117 C120 1.431 . S
C117 C137 1.449 . S
C118 C117 1.258 . S
C118 C119 1.477 . S
C118 H138 0.931 . S
C119 C115 1.460 . S
C119 C118 1.477 . S
C119 H139 0.930 . S
C120 N116 1.362 . S
C120 C117 1.431 . S
C120 C130 1.476 . S
H121 C115 0.929 . S
C122 O113 1.250 . S
C122 O114 1.258 . S
O123 Mn108 2.162 . S
O123 C111 1.281 . S
O124 Mn108 2.297 . S
O124 C111 1.236 . S
N125 Mn109 2.282 . S
N125 C126 1.328 . S
N125 C130 1.318 . S
C126 N125 1.328 . S
C126 C127 1.457 . S
C126 H131 0.929 . S
C127 C126 1.457 . S
C127 C128 1.291 . S
C127 H140 0.931 . S
C128 C127 1.291 . S
C128 C129 1.373 . S
C128 H141 0.929 . S
C129 C128 1.373 . S
C129 C130 1.396 . S
C129 C136 1.403 . S
C130 C120 1.476 . S
C130 N125 1.318 . S
C130 C129 1.396 . S
H131 C126 0.929 . S
O132 Mn108 2.385 . S
O132 C110 1.234 . S
O133 Mn108 2.209 . S
O133 Mn109 2.215 . S
O133 C110 1.283 . S
O134 Mn108 2.094 . S
O134 C112 1.240 . S
O135 Mn109 2.117 . S
O135 C112 1.264 . S
C136 C129 1.403 . S
C136 C137 1.399 . S
C136 H142 0.929 . S
C137 C117 1.449 . S
C137 C136 1.399 . S
C137 H143 0.930 . S
H138 C118 0.931 . S
H139 C119 0.930 . S
H140 C127 0.931 . S
H141 C128 0.929 . S
H142 C136 0.929 . S
H143 C137 0.930 . S
Mn144 O149 2.095 . S
Mn144 O159 2.162 . S
Mn144 O160 2.297 . S
Mn144 O168 2.385 . S
Mn144 O169 2.209 . S
Mn144 O170 2.094 . S
Mn145 O150 2.121 . S
Mn145 N152 2.257 . S
Mn145 N161 2.282 . S
Mn145 O169 2.215 . S
Mn145 O171 2.117 . S
C146 O168 1.234 . S
C146 O169 1.283 . S
C147 O159 1.281 . S
C147 O160 1.236 . S
C148 O170 1.240 . S
C148 O171 1.264 . S
O149 Mn144 2.095 . S
O149 C158 1.250 . S
O150 Mn145 2.121 . S
O150 C158 1.258 . S
C151 N152 1.326 . S
C151 C155 1.460 . S
C151 H157 0.929 . S
N152 Mn145 2.257 . S
N152 C151 1.326 . S
N152 C156 1.362 . S
C153 C154 1.258 . S
C153 C156 1.431 . S
C153 C173 1.449 . S
C154 C153 1.258 . S
C154 C155 1.477 . S
C154 H174 0.931 . S
C155 C151 1.460 . S
C155 C154 1.477 . S
C155 H175 0.930 . S
C156 N152 1.362 . S
C156 C153 1.431 . S
C156 C166 1.476 . S
H157 C151 0.929 . S
C158 O149 1.250 . S
C158 O150 1.258 . S
O159 Mn144 2.162 . S
O159 C147 1.281 . S
O160 Mn144 2.297 . S
O160 C147 1.236 . S
N161 Mn145 2.282 . S
N161 C162 1.328 . S
N161 C166 1.318 . S
C162 N161 1.328 . S
C162 C163 1.457 . S
C162 H167 0.929 . S
C163 C162 1.457 . S
C163 C164 1.291 . S
C163 H176 0.931 . S
C164 C163 1.291 . S
C164 C165 1.373 . S
C164 H177 0.929 . S
C165 C164 1.373 . S
C165 C166 1.396 . S
C165 C172 1.403 . S
C166 C156 1.476 . S
C166 N161 1.318 . S
C166 C165 1.396 . S
H167 C162 0.929 . S
O168 Mn144 2.385 . S
O168 C146 1.234 . S
O169 Mn144 2.209 . S
O169 Mn145 2.215 . S
O169 C146 1.283 . S
O170 Mn144 2.094 . S
O170 C148 1.240 . S
O171 Mn145 2.117 . S
O171 C148 1.264 . S
C172 C165 1.403 . S
C172 C173 1.399 . S
C172 H178 0.929 . S
C173 C153 1.449 . S
C173 C172 1.399 . S
C173 H179 0.930 . S
H174 C154 0.931 . S
H175 C155 0.930 . S
H176 C163 0.931 . S
H177 C164 0.929 . S
H178 C172 0.929 . S
H179 C173 0.930 . S
Mn180 O185 2.095 . S
Mn180 O195 2.162 . S
Mn180 O196 2.297 . S
Mn180 O204 2.385 . S
Mn180 O205 2.209 . S
Mn180 O206 2.094 . S
Mn181 O186 2.121 . S
Mn181 N188 2.257 . S
Mn181 N197 2.282 . S
Mn181 O205 2.215 . S
Mn181 O207 2.117 . S
C182 O204 1.234 . S
C182 O205 1.283 . S
C183 O195 1.281 . S
C183 O196 1.236 . S
C184 O206 1.240 . S
C184 O207 1.264 . S
O185 Mn180 2.095 . S
O185 C194 1.250 . S
O186 Mn181 2.121 . S
O186 C194 1.258 . S
C187 N188 1.326 . S
C187 C191 1.460 . S
C187 H193 0.929 . S
N188 Mn181 2.257 . S
N188 C187 1.326 . S
N188 C192 1.362 . S
C189 C190 1.258 . S
C189 C192 1.431 . S
C189 C209 1.449 1_455 S
C190 C189 1.258 . S
C190 C191 1.477 . S
C190 H210 0.931 . S
C191 C187 1.460 . S
C191 C190 1.477 . S
C191 H211 0.930 . S
C192 N188 1.362 . S
C192 C189 1.431 . S
C192 C202 1.476 . S
H193 C187 0.929 . S
C194 O185 1.250 . S
C194 O186 1.258 . S
O195 Mn180 2.162 . S
O195 C183 1.281 . S
O196 Mn180 2.297 . S
O196 C183 1.236 . S
N197 Mn181 2.282 . S
N197 C198 1.328 . S
N197 C202 1.318 . S
C198 N197 1.328 . S
C198 C199 1.457 . S
C198 H203 0.929 . S
C199 C198 1.457 . S
C199 C200 1.291 . S
C199 H212 0.931 . S
C200 C199 1.291 . S
C200 C201 1.373 . S
C200 H213 0.929 . S
C201 C200 1.373 . S
C201 C202 1.396 . S
C201 C208 1.403 1_455 S
C202 C192 1.476 . S
C202 N197 1.318 . S
C202 C201 1.396 . S
H203 C198 0.929 . S
O204 Mn180 2.385 . S
O204 C182 1.234 . S
O205 Mn180 2.209 . S
O205 Mn181 2.215 . S
O205 C182 1.283 . S
O206 Mn180 2.094 . S
O206 C184 1.240 . S
O207 Mn181 2.117 . S
O207 C184 1.264 . S
C208 C201 1.403 1_655 S
C208 C209 1.399 . S
C208 H214 0.929 . S
C209 C189 1.449 1_655 S
C209 C208 1.399 . S
C209 H215 0.930 . S
H210 C190 0.931 . S
H211 C191 0.930 . S
H212 C199 0.931 . S
H213 C200 0.929 . S
H214 C208 0.929 . S
H215 C209 0.930 . S
Mn216 O221 2.095 . S
Mn216 O231 2.162 . S
Mn216 O232 2.297 . S
Mn216 O240 2.385 . S
Mn216 O241 2.209 . S
Mn216 O242 2.094 . S
Mn217 O222 2.121 . S
Mn217 N224 2.257 . S
Mn217 N233 2.282 . S
Mn217 O241 2.215 . S
Mn217 O243 2.117 . S
C218 O240 1.234 . S
C218 O241 1.283 . S
C219 O231 1.281 . S
C219 O232 1.236 . S
C220 O242 1.240 . S
C220 O243 1.264 . S
O221 Mn216 2.095 . S
O221 C230 1.250 . S
O222 Mn217 2.121 . S
O222 C230 1.258 . S
C223 N224 1.326 . S
C223 C227 1.460 . S
C223 H229 0.929 . S
N224 Mn217 2.257 . S
N224 C223 1.326 . S
N224 C228 1.362 . S
C225 C226 1.258 . S
C225 C228 1.431 . S
C225 C245 1.449 . S
C226 C225 1.258 . S
C226 C227 1.477 . S
C226 H246 0.931 . S
C227 C223 1.460 . S
C227 C226 1.477 . S
C227 H247 0.930 . S
C228 N224 1.362 . S
C228 C225 1.431 . S
C228 C238 1.476 . S
H229 C223 0.929 . S
C230 O221 1.250 . S
C230 O222 1.258 . S
O231 Mn216 2.162 . S
O231 C219 1.281 . S
O232 Mn216 2.297 . S
O232 C219 1.236 . S
N233 Mn217 2.282 . S
N233 C234 1.328 . S
N233 C238 1.318 . S
C234 N233 1.328 . S
C234 C235 1.457 . S
C234 H239 0.929 . S
C235 C234 1.457 . S
C235 C236 1.291 . S
C235 H248 0.931 . S
C236 C235 1.291 . S
C236 C237 1.373 . S
C236 H249 0.929 . S
C237 C236 1.373 . S
C237 C238 1.396 . S
C237 C244 1.403 . S
C238 C228 1.476 . S
C238 N233 1.318 . S
C238 C237 1.396 . S
H239 C234 0.929 . S
O240 Mn216 2.385 . S
O240 C218 1.234 . S
O241 Mn216 2.209 . S
O241 Mn217 2.215 . S
O241 C218 1.283 . S
O242 Mn216 2.094 . S
O242 C220 1.240 . S
O243 Mn217 2.117 . S
O243 C220 1.264 . S
C244 C237 1.403 . S
C244 C245 1.399 . S
C244 H250 0.929 . S
C245 C225 1.449 . S
C245 C244 1.399 . S
C245 H251 0.930 . S
H246 C226 0.931 . S
H247 C227 0.930 . S
H248 C235 0.931 . S
H249 C236 0.929 . S
H250 C244 0.929 . S
H251 C245 0.930 . S
Mn252 O257 2.095 . S
Mn252 O267 2.162 . S
Mn252 O268 2.297 . S
Mn252 O276 2.385 . S
Mn252 O277 2.209 . S
Mn252 O278 2.094 . S
Mn253 O258 2.121 . S
Mn253 N260 2.257 . S
Mn253 N269 2.282 . S
Mn253 O277 2.215 . S
Mn253 O279 2.117 . S
C254 O276 1.234 . S
C254 O277 1.283 . S
C255 O267 1.281 . S
C255 O268 1.236 . S
C256 O278 1.240 . S
C256 O279 1.264 . S
O257 Mn252 2.095 . S
O257 C266 1.250 . S
O258 Mn253 2.121 . S
O258 C266 1.258 . S
C259 N260 1.326 . S
C259 C263 1.460 . S
C259 H265 0.929 . S
N260 Mn253 2.257 . S
N260 C259 1.326 . S
N260 C264 1.362 . S
C261 C262 1.258 . S
C261 C264 1.431 . S
C261 C281 1.449 1_655 S
C262 C261 1.258 . S
C262 C263 1.477 . S
C262 H282 0.931 . S
C263 C259 1.460 . S
C263 C262 1.477 . S
C263 H283 0.930 . S
C264 N260 1.362 . S
C264 C261 1.431 . S
C264 C274 1.476 . S
H265 C259 0.929 . S
C266 O257 1.250 . S
C266 O258 1.258 . S
O267 Mn252 2.162 . S
O267 C255 1.281 . S
O268 Mn252 2.297 . S
O268 C255 1.236 . S
N269 Mn253 2.282 . S
N269 C270 1.328 . S
N269 C274 1.318 . S
C270 N269 1.328 . S
C270 C271 1.457 . S
C270 H275 0.929 . S
C271 C270 1.457 . S
C271 C272 1.291 . S
C271 H284 0.931 . S
C272 C271 1.291 . S
C272 C273 1.373 . S
C272 H285 0.929 . S
C273 C272 1.373 . S
C273 C274 1.396 . S
C273 C280 1.403 1_655 S
C274 C264 1.476 . S
C274 N269 1.318 . S
C274 C273 1.396 . S
H275 C270 0.929 . S
O276 Mn252 2.385 . S
O276 C254 1.234 . S
O277 Mn252 2.209 . S
O277 Mn253 2.215 . S
O277 C254 1.283 . S
O278 Mn252 2.094 . S
O278 C256 1.240 . S
O279 Mn253 2.117 . S
O279 C256 1.264 . S
C280 C273 1.403 1_455 S
C280 C281 1.399 . S
C280 H286 0.929 . S
C281 C261 1.449 1_455 S
C281 C280 1.399 . S
C281 H287 0.930 . S
H282 C262 0.931 . S
H283 C263 0.930 . S
H284 C271 0.931 . S
H285 C272 0.929 . S
H286 C280 0.929 . S
H287 C281 0.930 . S
C288 C289 1.349 . S
C288 C290 1.327 . S
C288 H313 0.950 . S
C289 C288 1.349 . S
C289 C305 1.349 . S
C290 C288 1.327 . S
C290 C309 1.429 . S
C290 H314 0.950 . S
C291 C308 1.574 1_545 S
C291 C310 1.368 . S
C291 H315 0.949 . S
H292 C296 0.949 . S
C293 C294 1.349 . S
C293 C295 1.327 . S
C293 H316 0.950 . S
C294 C293 1.349 . S
C294 C306 1.349 . S
C295 C293 1.327 . S
C295 C311 1.429 . S
C295 H317 0.950 . S
C296 H292 0.949 . S
C296 C304 1.574 1_565 S
C296 C312 1.368 . S
H297 C305 0.950 . S
H298 C303 0.950 . S
H299 C304 0.949 . S
H300 C306 0.950 . S
H301 C307 0.950 . S
H302 C308 0.949 . S
C303 H298 0.950 . S
C303 C305 1.327 . S
C303 C309 1.429 . S
C304 C296 1.574 1_545 S
C304 H299 0.949 . S
C304 C310 1.368 1_655 S
C305 C289 1.349 . S
C305 H297 0.950 . S
C305 C303 1.327 . S
C306 C294 1.349 . S
C306 H300 0.950 . S
C306 C307 1.327 . S
C307 H301 0.950 . S
C307 C306 1.327 . S
C307 C311 1.429 . S
C308 C291 1.574 1_565 S
C308 H302 0.949 . S
C308 C312 1.368 1_455 S
C309 C290 1.429 . S
C309 C303 1.429 . S
C309 C310 1.523 . S
C310 C291 1.368 . S
C310 C304 1.368 1_455 S
C310 C309 1.523 . S
C311 C295 1.429 . S
C311 C307 1.429 . S
C311 C312 1.523 . S
C312 C296 1.368 . S
C312 C308 1.368 1_655 S
C312 C311 1.523 . S
H313 C288 0.950 . S
H314 C290 0.950 . S
H315 C291 0.949 . S
H316 C293 0.950 . S
H317 C295 0.950 . S
C318 C319 1.349 . S
C318 C320 1.327 . S
C318 H343 0.950 . S
C319 C318 1.349 . S
C319 C335 1.349 . S
C320 C318 1.327 . S
C320 C339 1.429 . S
C320 H344 0.950 . S
C321 C338 1.574 . S
C321 C340 1.368 . S
C321 H345 0.949 . S
H322 C326 0.949 . S
C323 C324 1.349 . S
C323 C325 1.327 . S
C323 H346 0.950 . S
C324 C323 1.349 . S
C324 C336 1.349 . S
C325 C323 1.327 . S
C325 C341 1.429 . S
C325 H347 0.950 . S
C326 H322 0.949 . S
C326 C334 1.574 . S
C326 C342 1.368 . S
H327 C335 0.950 . S
H328 C333 0.950 . S
H329 C334 0.949 . S
H330 C336 0.950 . S
H331 C337 0.950 . S
H332 C338 0.949 . S
C333 H328 0.950 . S
C333 C335 1.327 . S
C333 C339 1.429 . S
C334 C326 1.574 . S
C334 H329 0.949 . S
C334 C340 1.368 . S
C335 C319 1.349 . S
C335 H327 0.950 . S
C335 C333 1.327 . S
C336 C324 1.349 . S
C336 H330 0.950 . S
C336 C337 1.327 . S
C337 H331 0.950 . S
C337 C336 1.327 . S
C337 C341 1.429 . S
C338 C321 1.574 . S
C338 H332 0.949 . S
C338 C342 1.368 . S
C339 C320 1.429 . S
C339 C333 1.429 . S
C339 C340 1.523 . S
C340 C321 1.368 . S
C340 C334 1.368 . S
C340 C339 1.523 . S
C341 C325 1.429 . S
C341 C337 1.429 . S
C341 C342 1.523 . S
C342 C326 1.368 . S
C342 C338 1.368 . S
C342 C341 1.523 . S
H343 C318 0.950 . S
H344 C320 0.950 . S
H345 C321 0.949 . S
H346 C323 0.950 . S
H347 C325 0.950 . S
C348 C349 1.349 . S
C348 C350 1.327 . S
C348 H373 0.950 . S
C349 C348 1.349 . S
C349 C365 1.349 . S
C350 C348 1.327 . S
C350 C369 1.429 . S
C350 H374 0.950 . S
C351 C368 1.574 . S
C351 C370 1.368 . S
C351 H375 0.949 . S
H352 C356 0.949 . S
C353 C354 1.349 . S
C353 C355 1.327 . S
C353 H376 0.950 . S
C354 C353 1.349 . S
C354 C366 1.349 . S
C355 C353 1.327 . S
C355 C371 1.429 . S
C355 H377 0.950 . S
C356 H352 0.949 . S
C356 C364 1.574 . S
C356 C372 1.368 . S
H357 C365 0.950 . S
H358 C363 0.950 . S
H359 C364 0.949 . S
H360 C366 0.950 . S
H361 C367 0.950 . S
H362 C368 0.949 . S
C363 H358 0.950 . S
C363 C365 1.327 . S
C363 C369 1.429 . S
C364 C356 1.574 . S
C364 H359 0.949 . S
C364 C370 1.368 . S
C365 C349 1.349 . S
C365 H357 0.950 . S
C365 C363 1.327 . S
C366 C354 1.349 . S
C366 H360 0.950 . S
C366 C367 1.327 . S
C367 H361 0.950 . S
C367 C366 1.327 . S
C367 C371 1.429 . S
C368 C351 1.574 . S
C368 H362 0.949 . S
C368 C372 1.368 . S
C369 C350 1.429 . S
C369 C363 1.429 . S
C369 C370 1.523 . S
C370 C351 1.368 . S
C370 C364 1.368 . S
C370 C369 1.523 . S
C371 C355 1.429 . S
C371 C367 1.429 . S
C371 C372 1.523 . S
C372 C356 1.368 . S
C372 C368 1.368 . S
C372 C371 1.523 . S
H373 C348 0.950 . S
H374 C350 0.950 . S
H375 C351 0.949 . S
H376 C353 0.950 . S
H377 C355 0.950 . S
C378 C379 1.349 . S
C378 C380 1.327 . S
C378 H403 0.950 . S
C379 C378 1.349 . S
C379 C395 1.349 . S
C380 C378 1.327 . S
C380 C399 1.429 . S
C380 H404 0.950 . S
C381 C398 1.574 1_455 S
C381 C400 1.368 . S
C381 H405 0.949 . S
H382 C386 0.949 . S
C383 C384 1.349 . S
C383 C385 1.327 . S
C383 H406 0.950 . S
C384 C383 1.349 . S
C384 C396 1.349 . S
C385 C383 1.327 . S
C385 C401 1.429 . S
C385 H407 0.950 . S
C386 H382 0.949 . S
C386 C394 1.574 1_655 S
C386 C402 1.368 . S
H387 C395 0.950 . S
H388 C393 0.950 . S
H389 C394 0.949 . S
H390 C396 0.950 . S
H391 C397 0.950 . S
H392 C398 0.949 . S
C393 H388 0.950 . S
C393 C395 1.327 . S
C393 C399 1.429 . S
C394 C386 1.574 1_455 S
C394 H389 0.949 . S
C394 C400 1.368 1_565 S
C395 C379 1.349 . S
C395 H387 0.950 . S
C395 C393 1.327 . S
C396 C384 1.349 . S
C396 H390 0.950 . S
C396 C397 1.327 . S
C397 H391 0.950 . S
C397 C396 1.327 . S
C397 C401 1.429 . S
C398 C381 1.574 1_655 S
C398 H392 0.949 . S
C398 C402 1.368 1_545 S
C399 C380 1.429 . S
C399 C393 1.429 . S
C399 C400 1.523 . S
C400 C381 1.368 . S
C400 C394 1.368 1_545 S
C400 C399 1.523 . S
C401 C385 1.429 . S
C401 C397 1.429 . S
C401 C402 1.523 . S
C402 C386 1.368 . S
C402 C398 1.368 1_565 S
C402 C401 1.523 . S
H403 C378 0.950 . S
H404 C380 0.950 . S
H405 C381 0.949 . S
H406 C383 0.950 . S
H407 C385 0.950 . S
C408 C409 1.349 . S
C408 C410 1.327 . S
C408 H433 0.950 . S
C409 C408 1.349 . S
C409 C425 1.349 . S
C410 C408 1.327 . S
C410 C429 1.429 . S
C410 H434 0.950 . S
C411 C428 1.574 . S
C411 C430 1.368 . S
C411 H435 0.949 . S
H412 C416 0.949 . S
C413 C414 1.349 . S
C413 C415 1.327 . S
C413 H436 0.950 . S
C414 C413 1.349 . S
C414 C426 1.349 . S
C415 C413 1.327 . S
C415 C431 1.429 . S
C415 H437 0.950 . S
C416 H412 0.949 . S
C416 C424 1.574 . S
C416 C432 1.368 . S
H417 C425 0.950 . S
H418 C423 0.950 . S
H419 C424 0.949 . S
H420 C426 0.950 . S
H421 C427 0.950 . S
H422 C428 0.949 . S
C423 H418 0.950 . S
C423 C425 1.327 . S
C423 C429 1.429 . S
C424 C416 1.574 . S
C424 H419 0.949 . S
C424 C430 1.368 . S
C425 C409 1.349 . S
C425 H417 0.950 . S
C425 C423 1.327 . S
C426 C414 1.349 . S
C426 H420 0.950 . S
C426 C427 1.327 . S
C427 H421 0.950 . S
C427 C426 1.327 . S
C427 C431 1.429 . S
C428 C411 1.574 . S
C428 H422 0.949 . S
C428 C432 1.368 . S
C429 C410 1.429 . S
C429 C423 1.429 . S
C429 C430 1.523 . S
C430 C411 1.368 . S
C430 C424 1.368 . S
C430 C429 1.523 . S
C431 C415 1.429 . S
C431 C427 1.429 . S
C431 C432 1.523 . S
C432 C416 1.368 . S
C432 C428 1.368 . S
C432 C431 1.523 . S
H433 C408 0.950 . S
H434 C410 0.950 . S
H435 C411 0.949 . S
H436 C413 0.950 . S
H437 C415 0.950 . S
C438 C439 1.349 . S
C438 C440 1.327 . S
C438 H463 0.950 . S
C439 C438 1.349 . S
C439 C455 1.349 . S
C440 C438 1.327 . S
C440 C459 1.429 . S
C440 H464 0.950 . S
C441 C458 1.574 1_556 S
C441 C460 1.368 . S
C441 H465 0.949 . S
H442 C446 0.949 . S
C443 C444 1.349 . S
C443 C445 1.327 . S
C443 H466 0.950 . S
C444 C443 1.349 . S
C444 C456 1.349 . S
C445 C443 1.327 . S
C445 C461 1.429 . S
C445 H467 0.950 . S
C446 H442 0.949 . S
C446 C454 1.574 1_554 S
C446 C462 1.368 . S
H447 C455 0.950 . S
H448 C453 0.950 . S
H449 C454 0.949 . S
H450 C456 0.950 . S
H451 C457 0.950 . S
H452 C458 0.949 . S
C453 H448 0.950 . S
C453 C455 1.327 . S
C453 C459 1.429 . S
C454 C446 1.574 1_556 S
C454 H449 0.949 . S
C454 C460 1.368 . S
C455 C439 1.349 . S
C455 H447 0.950 . S
C455 C453 1.327 . S
C456 C444 1.349 . S
C456 H450 0.950 . S
C456 C457 1.327 . S
C457 H451 0.950 . S
C457 C456 1.327 . S
C457 C461 1.429 . S
C458 C441 1.574 1_554 S
C458 H452 0.949 . S
C458 C462 1.368 . S
C459 C440 1.429 . S
C459 C453 1.429 . S
C459 C460 1.523 . S
C460 C441 1.368 . S
C460 C454 1.368 . S
C460 C459 1.523 . S
C461 C445 1.429 . S
C461 C457 1.429 . S
C461 C462 1.523 . S
C462 C446 1.368 . S
C462 C458 1.368 . S
C462 C461 1.523 . S
H463 C438 0.950 . S
H464 C440 0.950 . S
H465 C441 0.949 . S
H466 C443 0.950 . S
H467 C445 0.950 . S
C468 C469 1.349 . S
C468 C470 1.327 . S
C468 H493 0.950 . S
C469 C468 1.349 . S
C469 C485 1.349 . S
C470 C468 1.327 . S
C470 C489 1.429 . S
C470 H494 0.950 . S
C471 C488 1.574 . S
C471 C490 1.368 . S
C471 H495 0.949 . S
H472 C476 0.949 . S
C473 C474 1.349 . S
C473 C475 1.327 . S
C473 H496 0.950 . S
C474 C473 1.349 . S
C474 C486 1.349 . S
C475 C473 1.327 . S
C475 C491 1.429 . S
C475 H497 0.950 . S
C476 H472 0.949 . S
C476 C484 1.574 . S
C476 C492 1.368 . S
H477 C485 0.950 . S
H478 C483 0.950 . S
H479 C484 0.949 . S
H480 C486 0.950 . S
H481 C487 0.950 . S
H482 C488 0.949 . S
C483 H478 0.950 . S
C483 C485 1.327 . S
C483 C489 1.429 . S
C484 C476 1.574 . S
C484 H479 0.949 . S
C484 C490 1.368 . S
C485 C469 1.349 . S
C485 H477 0.950 . S
C485 C483 1.327 . S
C486 C474 1.349 . S
C486 H480 0.950 . S
C486 C487 1.327 . S
C487 H481 0.950 . S
C487 C486 1.327 . S
C487 C491 1.429 . S
C488 C471 1.574 . S
C488 H482 0.949 . S
C488 C492 1.368 . S
C489 C470 1.429 . S
C489 C483 1.429 . S
C489 C490 1.523 . S
C490 C471 1.368 . S
C490 C484 1.368 . S
C490 C489 1.523 . S
C491 C475 1.429 . S
C491 C487 1.429 . S
C491 C492 1.523 . S
C492 C476 1.368 . S
C492 C488 1.368 . S
C492 C491 1.523 . S
H493 C468 0.950 . S
H494 C470 0.950 . S
H495 C471 0.949 . S
H496 C473 0.950 . S
H497 C475 0.950 . S
C498 C499 1.349 . S
C498 C500 1.327 . S
C498 H523 0.950 . S
C499 C498 1.349 . S
C499 C515 1.349 . S
C500 C498 1.327 . S
C500 C519 1.429 . S
C500 H524 0.950 . S
C501 C518 1.574 1_556 S
C501 C520 1.368 . S
C501 H525 0.949 . S
H502 C506 0.949 . S
C503 C504 1.349 . S
C503 C505 1.327 . S
C503 H526 0.950 . S
C504 C503 1.349 . S
C504 C516 1.349 . S
C505 C503 1.327 . S
C505 C521 1.429 . S
C505 H527 0.950 . S
C506 H502 0.949 . S
C506 C514 1.574 1_554 S
C506 C522 1.368 . S
H507 C515 0.950 . S
H508 C513 0.950 . S
H509 C514 0.949 . S
H510 C516 0.950 . S
H511 C517 0.950 . S
H512 C518 0.949 . S
C513 H508 0.950 . S
C513 C515 1.327 . S
C513 C519 1.429 . S
C514 C506 1.574 1_556 S
C514 H509 0.949 . S
C514 C520 1.368 . S
C515 C499 1.349 . S
C515 H507 0.950 . S
C515 C513 1.327 . S
C516 C504 1.349 . S
C516 H510 0.950 . S
C516 C517 1.327 . S
C517 H511 0.950 . S
C517 C516 1.327 . S
C517 C521 1.429 . S
C518 C501 1.574 1_554 S
C518 H512 0.949 . S
C518 C522 1.368 . S
C519 C500 1.429 . S
C519 C513 1.429 . S
C519 C520 1.523 . S
C520 C501 1.368 . S
C520 C514 1.368 . S
C520 C519 1.523 . S
C521 C505 1.429 . S
C521 C517 1.429 . S
C521 C522 1.523 . S
C522 C506 1.368 . S
C522 C518 1.368 . S
C522 C521 1.523 . S
H523 C498 0.950 . S
H524 C500 0.950 . S
H525 C501 0.949 . S
H526 C503 0.950 . S
H527 C505 0.950 . S
C528 C529 1.349 . S
C528 C530 1.327 . S
C528 H553 0.950 . S
C529 C528 1.349 . S
C529 C545 1.349 . S
C530 C528 1.327 . S
C530 C549 1.429 . S
C530 H554 0.950 . S
C531 C548 1.574 . S
C531 C550 1.368 . S
C531 H555 0.949 . S
H532 C536 0.949 . S
C533 C534 1.349 . S
C533 C535 1.327 . S
C533 H556 0.950 . S
C534 C533 1.349 . S
C534 C546 1.349 . S
C535 C533 1.327 . S
C535 C551 1.429 . S
C535 H557 0.950 . S
C536 H532 0.949 . S
C536 C544 1.574 . S
C536 C552 1.368 . S
H537 C545 0.950 . S
H538 C543 0.950 . S
H539 C544 0.949 . S
H540 C546 0.950 . S
H541 C547 0.950 . S
H542 C548 0.949 . S
C543 H538 0.950 . S
C543 C545 1.327 . S
C543 C549 1.429 . S
C544 C536 1.574 . S
C544 H539 0.949 . S
C544 C550 1.368 . S
C545 C529 1.349 . S
C545 H537 0.950 . S
C545 C543 1.327 . S
C546 C534 1.349 . S
C546 H540 0.950 . S
C546 C547 1.327 . S
C547 H541 0.950 . S
C547 C546 1.327 . S
C547 C551 1.429 . S
C548 C531 1.574 . S
C548 H542 0.949 . S
C548 C552 1.368 . S
C549 C530 1.429 . S
C549 C543 1.429 . S
C549 C550 1.523 . S
C550 C531 1.368 . S
C550 C544 1.368 . S
C550 C549 1.523 . S
C551 C535 1.429 . S
C551 C547 1.429 . S
C551 C552 1.523 . S
C552 C536 1.368 . S
C552 C548 1.368 . S
C552 C551 1.523 . S
H553 C528 0.950 . S
H554 C530 0.950 . S
H555 C531 0.949 . S
H556 C533 0.950 . S
H557 C535 0.950 . S
C558 C559 1.349 . S
C558 C560 1.327 . S
C558 H583 0.950 . S
C559 C558 1.349 . S
C559 C575 1.349 . S
C560 C558 1.327 . S
C560 C579 1.429 . S
C560 H584 0.950 . S
C561 C578 1.574 . S
C561 C580 1.368 . S
C561 H585 0.949 . S
H562 C566 0.949 . S
C563 C564 1.349 1_565 S
C563 C565 1.327 . S
C563 H586 0.950 . S
C564 C563 1.349 1_545 S
C564 C576 1.349 . S
C565 C563 1.327 . S
C565 C581 1.429 . S
C565 H587 0.950 . S
C566 H562 0.949 . S
C566 C574 1.574 . S
C566 C582 1.368 . S
H567 C575 0.950 . S
H568 C573 0.950 . S
H569 C574 0.949 . S
H570 C576 0.950 . S
H571 C577 0.950 . S
H572 C578 0.949 . S
C573 H568 0.950 . S
C573 C575 1.327 . S
C573 C579 1.429 . S
C574 C566 1.574 . S
C574 H569 0.949 . S
C574 C580 1.368 . S
C575 C559 1.349 . S
C575 H567 0.950 . S
C575 C573 1.327 . S
C576 C564 1.349 . S
C576 H570 0.950 . S
C576 C577 1.327 1_545 S
C577 H571 0.950 . S
C577 C576 1.327 1_565 S
C577 C581 1.429 . S
C578 C561 1.574 . S
C578 H572 0.949 . S
C578 C582 1.368 . S
C579 C560 1.429 . S
C579 C573 1.429 . S
C579 C580 1.523 . S
C580 C561 1.368 . S
C580 C574 1.368 . S
C580 C579 1.523 . S
C581 C565 1.429 . S
C581 C577 1.429 . S
C581 C582 1.523 . S
C582 C566 1.368 . S
C582 C578 1.368 . S
C582 C581 1.523 . S
H583 C558 0.950 . S
H584 C560 0.950 . S
H585 C561 0.949 . S
H586 C563 0.950 . S
H587 C565 0.950 . S
C588 C589 1.349 . S
C588 C590 1.327 . S
C588 H613 0.950 . S
C589 C588 1.349 . S
C589 C605 1.349 . S
C590 C588 1.327 . S
C590 C609 1.429 . S
C590 H614 0.950 . S
C591 C608 1.574 . S
C591 C610 1.368 . S
C591 H615 0.949 . S
H592 C596 0.949 . S
C593 C594 1.349 . S
C593 C595 1.327 . S
C593 H616 0.950 . S
C594 C593 1.349 . S
C594 C606 1.349 . S
C595 C593 1.327 . S
C595 C611 1.429 . S
C595 H617 0.950 . S
C596 H592 0.949 . S
C596 C604 1.574 . S
C596 C612 1.368 . S
H597 C605 0.950 . S
H598 C603 0.950 . S
H599 C604 0.949 . S
H600 C606 0.950 . S
H601 C607 0.950 . S
H602 C608 0.949 . S
C603 H598 0.950 . S
C603 C605 1.327 . S
C603 C609 1.429 . S
C604 C596 1.574 . S
C604 H599 0.949 . S
C604 C610 1.368 . S
C605 C589 1.349 . S
C605 H597 0.950 . S
C605 C603 1.327 . S
C606 C594 1.349 . S
C606 H600 0.950 . S
C606 C607 1.327 . S
C607 H601 0.950 . S
C607 C606 1.327 . S
C607 C611 1.429 . S
C608 C591 1.574 . S
C608 H602 0.949 . S
C608 C612 1.368 . S
C609 C590 1.429 . S
C609 C603 1.429 . S
C609 C610 1.523 . S
C610 C591 1.368 . S
C610 C604 1.368 . S
C610 C609 1.523 . S
C611 C595 1.429 . S
C611 C607 1.429 . S
C611 C612 1.523 . S
C612 C596 1.368 . S
C612 C608 1.368 . S
C612 C611 1.523 . S
H613 C588 0.950 . S
H614 C590 0.950 . S
H615 C591 0.949 . S
H616 C593 0.950 . S
H617 C595 0.950 . S
C618 C619 1.349 . S
C618 C620 1.327 . S
C618 H643 0.950 . S
C619 C618 1.349 . S
C619 C635 1.349 . S
C620 C618 1.327 . S
C620 C639 1.429 . S
C620 H644 0.950 . S
C621 C638 1.574 . S
C621 C640 1.368 . S
C621 H645 0.949 . S
H622 C626 0.949 . S
C623 C624 1.349 1_545 S
C623 C625 1.327 . S
C623 H646 0.950 1_545 S
C624 C623 1.349 1_565 S
C624 C636 1.349 1_565 S
C625 C623 1.327 . S
C625 C641 1.429 . S
C625 H647 0.950 . S
C626 H622 0.949 . S
C626 C634 1.574 . S
C626 C642 1.368 . S
H627 C635 0.950 . S
H628 C633 0.950 . S
H629 C634 0.949 . S
H630 C636 0.950 . S
H631 C637 0.950 . S
H632 C638 0.949 . S
C633 H628 0.950 . S
C633 C635 1.327 . S
C633 C639 1.429 . S
C634 C626 1.574 . S
C634 H629 0.949 . S
C634 C640 1.368 . S
C635 C619 1.349 . S
C635 H627 0.950 . S
C635 C633 1.327 . S
C636 C624 1.349 1_545 S
C636 H630 0.950 . S
C636 C637 1.327 . S
C637 H631 0.950 . S
C637 C636 1.327 . S
C637 C641 1.429 . S
C638 C621 1.574 . S
C638 H632 0.949 . S
C638 C642 1.368 . S
C639 C620 1.429 . S
C639 C633 1.429 . S
C639 C640 1.523 . S
C640 C621 1.368 . S
C640 C634 1.368 . S
C640 C639 1.523 . S
C641 C625 1.429 . S
C641 C637 1.429 . S
C641 C642 1.523 . S
C642 C626 1.368 . S
C642 C638 1.368 . S
C642 C641 1.523 . S
H643 C618 0.950 . S
H644 C620 0.950 . S
H645 C621 0.949 . S
H646 C623 0.950 1_565 S
H647 C625 0.950 . S
C648 C649 1.349 1_655 S
C648 C650 1.327 . S
C648 H673 0.950 . S
C649 C648 1.349 1_455 S
C649 C665 1.349 1_455 S
C650 C648 1.327 . S
C650 C669 1.429 . S
C650 H674 0.950 . S
C651 C668 1.574 . S
C651 C670 1.368 . S
C651 H675 0.949 . S
H652 C656 0.949 . S
C653 C654 1.349 . S
C653 C655 1.327 . S
C653 H676 0.950 . S
C654 C653 1.349 . S
C654 C666 1.349 . S
C655 C653 1.327 . S
C655 C671 1.429 . S
C655 H677 0.950 . S
C656 H652 0.949 . S
C656 C664 1.574 . S
C656 C672 1.368 . S
H657 C665 0.950 1_455 S
H658 C663 0.950 . S
H659 C664 0.949 . S
H660 C666 0.950 . S
H661 C667 0.950 . S
H662 C668 0.949 . S
C663 H658 0.950 . S
C663 C665 1.327 . S
C663 C669 1.429 . S
C664 C656 1.574 . S
C664 H659 0.949 . S
C664 C670 1.368 . S
C665 C649 1.349 1_655 S
C665 H657 0.950 1_655 S
C665 C663 1.327 . S
C666 C654 1.349 . S
C666 H660 0.950 . S
C666 C667 1.327 . S
C667 H661 0.950 . S
C667 C666 1.327 . S
C667 C671 1.429 . S
C668 C651 1.574 . S
C668 H662 0.949 . S
C668 C672 1.368 . S
C669 C650 1.429 . S
C669 C663 1.429 . S
C669 C670 1.523 . S
C670 C651 1.368 . S
C670 C664 1.368 . S
C670 C669 1.523 . S
C671 C655 1.429 . S
C671 C667 1.429 . S
C671 C672 1.523 . S
C672 C656 1.368 . S
C672 C668 1.368 . S
C672 C671 1.523 . S
H673 C648 0.950 . S
H674 C650 0.950 . S
H675 C651 0.949 . S
H676 C653 0.950 . S
H677 C655 0.950 . S
C678 C679 1.349 . S
C678 C680 1.327 . S
C678 H703 0.950 . S
C679 C678 1.349 . S
C679 C695 1.349 . S
C680 C678 1.327 . S
C680 C699 1.429 . S
C680 H704 0.950 . S
C681 C698 1.574 . S
C681 C700 1.368 . S
C681 H705 0.949 . S
H682 C686 0.949 . S
C683 C684 1.349 . S
C683 C685 1.327 . S
C683 H706 0.950 . S
C684 C683 1.349 . S
C684 C696 1.349 . S
C685 C683 1.327 . S
C685 C701 1.429 . S
C685 H707 0.950 . S
C686 H682 0.949 . S
C686 C694 1.574 . S
C686 C702 1.368 . S
H687 C695 0.950 . S
H688 C693 0.950 . S
H689 C694 0.949 . S
H690 C696 0.950 . S
H691 C697 0.950 . S
H692 C698 0.949 . S
C693 H688 0.950 . S
C693 C695 1.327 . S
C693 C699 1.429 . S
C694 C686 1.574 . S
C694 H689 0.949 . S
C694 C700 1.368 . S
C695 C679 1.349 . S
C695 H687 0.950 . S
C695 C693 1.327 . S
C696 C684 1.349 . S
C696 H690 0.950 . S
C696 C697 1.327 . S
C697 H691 0.950 . S
C697 C696 1.327 . S
C697 C701 1.429 . S
C698 C681 1.574 . S
C698 H692 0.949 . S
C698 C702 1.368 . S
C699 C680 1.429 . S
C699 C693 1.429 . S
C699 C700 1.523 . S
C700 C681 1.368 . S
C700 C694 1.368 . S
C700 C699 1.523 . S
C701 C685 1.429 . S
C701 C697 1.429 . S
C701 C702 1.523 . S
C702 C686 1.368 . S
C702 C698 1.368 . S
C702 C701 1.523 . S
H703 C678 0.950 . S
H704 C680 0.950 . S
H705 C681 0.949 . S
H706 C683 0.950 . S
H707 C685 0.950 . S
C708 C709 1.349 . S
C708 C710 1.327 . S
C708 H733 0.950 . S
C709 C708 1.349 . S
C709 C725 1.349 . S
C710 C708 1.327 . S
C710 C729 1.429 . S
C710 H734 0.950 . S
C711 C728 1.574 . S
C711 C730 1.368 . S
C711 H735 0.949 . S
H712 C716 0.949 . S
C713 C714 1.349 1_455 S
C713 C715 1.327 . S
C713 H736 0.950 . S
C714 C713 1.349 1_655 S
C714 C726 1.347 1_655 S
C715 C713 1.327 . S
C715 C731 1.429 . S
C715 H737 0.950 . S
C716 H712 0.949 . S
C716 C724 1.574 . S
C716 C732 1.368 . S
H717 C725 0.950 . S
H718 C723 0.950 . S
H719 C724 0.949 . S
H720 C726 0.942 1_655 S
H721 C727 0.950 . S
H722 C728 0.949 . S
C723 H718 0.950 . S
C723 C725 1.327 . S
C723 C729 1.429 . S
C724 C716 1.574 . S
C724 H719 0.949 . S
C724 C730 1.368 . S
C725 C709 1.349 . S
C725 H717 0.950 . S
C725 C723 1.327 . S
C726 C714 1.347 1_455 S
C726 H720 0.942 1_455 S
C726 C727 1.336 . S
C727 H721 0.950 . S
C727 C726 1.336 . S
C727 C731 1.429 . S
C728 C711 1.574 . S
C728 H722 0.949 . S
C728 C732 1.368 . S
C729 C710 1.429 . S
C729 C723 1.429 . S
C729 C730 1.523 . S
C730 C711 1.368 . S
C730 C724 1.368 . S
C730 C729 1.523 . S
C731 C715 1.429 . S
C731 C727 1.429 . S
C731 C732 1.523 . S
C732 C716 1.368 . S
C732 C728 1.368 . S
C732 C731 1.523 . S
H733 C708 0.950 . S
H734 C710 0.950 . S
H735 C711 0.949 . S
H736 C713 0.950 . S
H737 C715 0.950 . S
C738 C739 1.349 . S
C738 C740 1.327 . S
C738 H763 0.950 . S
C739 C738 1.349 . S
C739 C755 1.349 . S
C740 C738 1.327 . S
C740 C759 1.429 . S
C740 H764 0.950 . S
C741 C758 1.574 . S
C741 C760 1.368 . S
C741 H765 0.949 . S
H742 C746 0.949 . S
C743 C744 1.349 . S
C743 C745 1.327 . S
C743 H766 0.950 . S
C744 C743 1.349 . S
C744 C756 1.349 . S
C745 C743 1.327 . S
C745 C761 1.429 . S
C745 H767 0.950 . S
C746 H742 0.949 . S
C746 C754 1.574 . S
C746 C762 1.368 . S
H747 C755 0.950 . S
H748 C753 0.950 . S
H749 C754 0.949 . S
H750 C756 0.950 . S
H751 C757 0.950 . S
H752 C758 0.949 . S
C753 H748 0.950 . S
C753 C755 1.327 . S
C753 C759 1.429 . S
C754 C746 1.574 . S
C754 H749 0.949 . S
C754 C760 1.368 . S
C755 C739 1.349 . S
C755 H747 0.950 . S
C755 C753 1.327 . S
C756 C744 1.349 . S
C756 H750 0.950 . S
C756 C757 1.327 . S
C757 H751 0.950 . S
C757 C756 1.327 . S
C757 C761 1.429 . S
C758 C741 1.574 . S
C758 H752 0.949 . S
C758 C762 1.368 . S
C759 C740 1.429 . S
C759 C753 1.429 . S
C759 C760 1.523 . S
C760 C741 1.368 . S
C760 C754 1.368 . S
C760 C759 1.523 . S
C761 C745 1.429 . S
C761 C757 1.429 . S
C761 C762 1.523 . S
C762 C746 1.368 . S
C762 C758 1.368 . S
C762 C761 1.523 . S
H763 C738 0.950 . S
H764 C740 0.950 . S
H765 C741 0.949 . S
H766 C743 0.950 . S
H767 C745 0.950 . S
C289 C2 0.278 . S
C294 C74 0.278 . S
C319 C38 0.278 . S
C324 C110 0.278 . S
C349 C146 0.278 . S
C354 C218 0.278 . S
C379 C182 0.278 . S
C384 C254 0.278 . S
C409 C4 1.382 . S
C414 C184 1.382 . S
C439 C40 1.382 . S
C444 C220 1.382 . S
C469 C256 1.382 . S
C474 C76 1.382 . S
C499 C112 1.382 . S
C504 C148 1.382 . S
C529 C147 1.691 . S
C534 C14 1.628 . S
C559 C50 1.628 . S
C564 C183 1.691 . S
C589 C86 1.628 . S
C594 C219 1.691 . S
C619 C122 1.628 . S
C624 C255 1.691 . S
C649 C3 1.691 . S
C654 C158 1.628 . S
C679 C194 1.628 . S
C684 C39 1.691 . S
C709 C230 1.628 . S
C714 C75 1.691 . S
C739 C111 1.691 . S
C744 C266 1.628 . S
