# Generated by pormake.
# Topology wnd, (6)-cn, num edge types: 1
# Building blocks:
#     Node 0, Type 0, BuildingBlock: KUMJIN_clean_sbu_0, # of connection points: 6
#     Node 1, Type 0, BuildingBlock: KUMJIN_clean_sbu_0, # of connection points: 6
#     Node 2, Type 0, BuildingBlock: KUMJIN_clean_sbu_0, # of connection points: 6
#     Node 3, Type 0, BuildingBlock: KUMJIN_clean_sbu_0, # of connection points: 6
#     Node 4, Type 0, BuildingBlock: KUMJIN_clean_sbu_0, # of connection points: 6
#     Node 5, Type 0, BuildingBlock: KUMJIN_clean_sbu_0, # of connection points: 6
#     Node 6, Type 0, BuildingBlock: KUMJIN_clean_sbu_0, # of connection points: 6
#     Node 7, Type 0, BuildingBlock: KUMJIN_clean_sbu_0, # of connection points: 6
#     Node 8, Type 0, BuildingBlock: KUMJIN_clean_sbu_0, # of connection points: 6
#     Node 9, Type 0, BuildingBlock: KUMJIN_clean_sbu_0, # of connection points: 6
#     Node 10, Type 0, BuildingBlock: KUMJIN_clean_sbu_0, # of connection points: 6
#     Node 11, Type 0, BuildingBlock: KUMJIN_clean_sbu_0, # of connection points: 6
#     Node 12, Type 0, BuildingBlock: KUMJIN_clean_sbu_0, # of connection points: 6
#     Node 13, Type 0, BuildingBlock: KUMJIN_clean_sbu_0, # of connection points: 6
#     Node 14, Type 0, BuildingBlock: KUMJIN_clean_sbu_0, # of connection points: 6
#     Node 15, Type 0, BuildingBlock: KUMJIN_clean_sbu_0, # of connection points: 6
#     Node 16, Type 0, BuildingBlock: KUMJIN_clean_sbu_0, # of connection points: 6
#     Node 17, Type 0, BuildingBlock: KUMJIN_clean_sbu_0, # of connection points: 6
#     Node 18, Type 0, BuildingBlock: KUMJIN_clean_sbu_0, # of connection points: 6
#     Node 19, Type 0, BuildingBlock: KUMJIN_clean_sbu_0, # of connection points: 6
#     Node 20, Type 0, BuildingBlock: KUMJIN_clean_sbu_0, # of connection points: 6
#     Node 21, Type 0, BuildingBlock: KUMJIN_clean_sbu_0, # of connection points: 6
#     Node 22, Type 0, BuildingBlock: KUMJIN_clean_sbu_0, # of connection points: 6
#     Node 23, Type 0, BuildingBlock: KUMJIN_clean_sbu_0, # of connection points: 6
#     Node 24, Type 0, BuildingBlock: KUMJIN_clean_sbu_0, # of connection points: 6
#     Node 25, Type 0, BuildingBlock: KUMJIN_clean_sbu_0, # of connection points: 6
#     Node 26, Type 0, BuildingBlock: KUMJIN_clean_sbu_0, # of connection points: 6
#     Node 27, Type 0, BuildingBlock: KUMJIN_clean_sbu_0, # of connection points: 6
#     Node 28, Type 0, BuildingBlock: KUMJIN_clean_sbu_0, # of connection points: 6
#     Node 29, Type 0, BuildingBlock: KUMJIN_clean_sbu_0, # of connection points: 6
#     Node 30, Type 0, BuildingBlock: KUMJIN_clean_sbu_0, # of connection points: 6
#     Node 31, Type 0, BuildingBlock: KUMJIN_clean_sbu_0, # of connection points: 6
#     Node 32, Type 0, BuildingBlock: KUMJIN_clean_sbu_0, # of connection points: 6
#     Node 33, Type 0, BuildingBlock: KUMJIN_clean_sbu_0, # of connection points: 6
#     Node 34, Type 0, BuildingBlock: KUMJIN_clean_sbu_0, # of connection points: 6
#     Node 35, Type 0, BuildingBlock: KUMJIN_clean_sbu_0, # of connection points: 6
#     Edge 36, Type (0, 0), None
#     Edge 37, Type (0, 0), None
#     Edge 38, Type (0, 0), None
#     Edge 39, Type (0, 0), None
#     Edge 40, Type (0, 0), None
#     Edge 41, Type (0, 0), None
#     Edge 42, Type (0, 0), None
#     Edge 43, Type (0, 0), None
#     Edge 44, Type (0, 0), None
#     Edge 45, Type (0, 0), None
#     Edge 46, Type (0, 0), None
#     Edge 47, Type (0, 0), None
#     Edge 48, Type (0, 0), None
#     Edge 49, Type (0, 0), None
#     Edge 50, Type (0, 0), None
#     Edge 51, Type (0, 0), None
#     Edge 52, Type (0, 0), None
#     Edge 53, Type (0, 0), None
#     Edge 54, Type (0, 0), None
#     Edge 55, Type (0, 0), None
#     Edge 56, Type (0, 0), None
#     Edge 57, Type (0, 0), None
#     Edge 58, Type (0, 0), None
#     Edge 59, Type (0, 0), None
#     Edge 60, Type (0, 0), None
#     Edge 61, Type (0, 0), None
#     Edge 62, Type (0, 0), None
#     Edge 63, Type (0, 0), None
#     Edge 64, Type (0, 0), None
#     Edge 65, Type (0, 0), None
#     Edge 66, Type (0, 0), None
#     Edge 67, Type (0, 0), None
#     Edge 68, Type (0, 0), None
#     Edge 69, Type (0, 0), None
#     Edge 70, Type (0, 0), None
#     Edge 71, Type (0, 0), None
#     Edge 72, Type (0, 0), None
#     Edge 73, Type (0, 0), None
#     Edge 74, Type (0, 0), None
#     Edge 75, Type (0, 0), None
#     Edge 76, Type (0, 0), None
#     Edge 77, Type (0, 0), None
#     Edge 78, Type (0, 0), None
#     Edge 79, Type (0, 0), None
#     Edge 80, Type (0, 0), None
#     Edge 81, Type (0, 0), None
#     Edge 82, Type (0, 0), None
#     Edge 83, Type (0, 0), None
#     Edge 84, Type (0, 0), None
#     Edge 85, Type (0, 0), None
#     Edge 86, Type (0, 0), None
#     Edge 87, Type (0, 0), None
#     Edge 88, Type (0, 0), None
#     Edge 89, Type (0, 0), None
#     Edge 90, Type (0, 0), None
#     Edge 91, Type (0, 0), None
#     Edge 92, Type (0, 0), None
#     Edge 93, Type (0, 0), None
#     Edge 94, Type (0, 0), None
#     Edge 95, Type (0, 0), None
#     Edge 96, Type (0, 0), None
#     Edge 97, Type (0, 0), None
#     Edge 98, Type (0, 0), None
#     Edge 99, Type (0, 0), None
#     Edge 100, Type (0, 0), None
#     Edge 101, Type (0, 0), None
#     Edge 102, Type (0, 0), None
#     Edge 103, Type (0, 0), None
#     Edge 104, Type (0, 0), None
#     Edge 105, Type (0, 0), None
#     Edge 106, Type (0, 0), None
#     Edge 107, Type (0, 0), None
#     Edge 108, Type (0, 0), None
#     Edge 109, Type (0, 0), None
#     Edge 110, Type (0, 0), None
#     Edge 111, Type (0, 0), None
#     Edge 112, Type (0, 0), None
#     Edge 113, Type (0, 0), None
#     Edge 114, Type (0, 0), None
#     Edge 115, Type (0, 0), None
#     Edge 116, Type (0, 0), None
#     Edge 117, Type (0, 0), None
#     Edge 118, Type (0, 0), None
#     Edge 119, Type (0, 0), None
#     Edge 120, Type (0, 0), None
#     Edge 121, Type (0, 0), None
#     Edge 122, Type (0, 0), None
#     Edge 123, Type (0, 0), None
#     Edge 124, Type (0, 0), None
#     Edge 125, Type (0, 0), None
#     Edge 126, Type (0, 0), None
#     Edge 127, Type (0, 0), None
#     Edge 128, Type (0, 0), None
#     Edge 129, Type (0, 0), None
#     Edge 130, Type (0, 0), None
#     Edge 131, Type (0, 0), None
#     Edge 132, Type (0, 0), None
#     Edge 133, Type (0, 0), None
#     Edge 134, Type (0, 0), None
#     Edge 135, Type (0, 0), None
#     Edge 136, Type (0, 0), None
#     Edge 137, Type (0, 0), None
#     Edge 138, Type (0, 0), None
#     Edge 139, Type (0, 0), None
#     Edge 140, Type (0, 0), None
#     Edge 141, Type (0, 0), None
#     Edge 142, Type (0, 0), None
#     Edge 143, Type (0, 0), None
# Relax obj value: 0.075
# Max RMSD: 0.230
# Mean RMSD: 0.230
data_MOF--net-wnd--node1-KUMJIN_clean_sbu_0--edge1-none
_symmetry_space_group_name_H-M    P1
_symmetry_Int_Tables_number       1
_symmetry_cell_setting            triclinic
loop_
_symmetry_equiv_pos_as_xyz
'x, y, z'
_cell_length_a     22.182056
_cell_length_b     22.1804
_cell_length_c     72.592246
_cell_angle_alpha  89.996859
_cell_angle_beta   90.002788
_cell_angle_gamma 119.99119
loop_
_atom_site_label
_atom_site_type_symbol
_atom_site_fract_x
_atom_site_fract_y
_atom_site_fract_z
_atom_type_partial_charge
Eu0 Eu 0.53841 0.149 0.01278 0.0
C1 C 0.82604 0.12504 0.0667 0.0
C2 C 0.91699 0.13747 0.04136 0.0
C3 C 0.87318 0.0291 0.06185 0.0
C4 C 0.8323 0.10034 0.04657 0.0
C5 C 0.8254 0.04876 0.07363 0.0
C6 C 0.92367 0.07911 0.04828 0.0
C7 C 0.70372 0.99917 0.09958 0.0
N8 N 0.75679 0.15231 0.07278 0.0
C9 C 0.69451 0.11152 0.08751 0.0
C10 C 0.76844 0.9925 0.09031 0.0
Eu11 Eu 0.64864 0.08558 0.03509 0.0
N12 N 0.76412 0.09351 0.02404 0.0
C13 C 0.79744 0.13029 0.00419 0.0
C14 C 0.94417 0.17643 0.0193 0.0
C15 C 0.88768 0.17227 0.0018 0.0
H16 H 0.65343 0.12452 0.08878 0.0
H17 H 0.90923 0.1959 -0.01126 0.0
H18 H 0.94778 0.13438 0.04749 0.0
H19 H 0.6679 0.95493 0.10809 0.0
H20 H 0.76694 0.13725 -0.00622 0.0
H21 H 0.29679 1.00166 0.05174 0.0
H22 H 0.99773 0.19599 0.01579 0.0
H23 H 0.5593 0.19042 0.96864 0.0
H24 H 0.41994 0.04448 0.04532 0.0
H25 H 0.5108 0.25104 0.95234 0.0
H26 H 0.84416 0.03677 0.06936 0.0
H27 H 0.22417 1.02098 0.02933 0.0
H28 H 0.21539 0.07269 1e-05 0.0
H29 H 0.77436 0.94909 0.09415 0.0
H30 H 0.2768 0.14932 0.97382 0.0
N31 N 0.41659 0.08204 0.01874 0.0
C32 C 0.38798 0.04907 0.03491 0.0
C33 C 0.27746 0.03683 0.02621 0.0
C34 C 0.30637 0.06977 0.00971 0.0
C35 C 0.3184 0.02613 0.03882 0.0
C36 C 0.37626 0.08987 0.00608 0.0
H37 H 0.394 0.23153 0.95943 0.0
N38 N 0.47307 0.13923 -0.0134 0.0
C39 C 0.48029 0.21485 0.96263 0.0
C40 C 0.40704 0.12417 -0.00983 0.0
C41 C 0.50695 0.17852 0.9717 0.0
C42 C 0.41433 0.20316 0.96675 0.0
C43 C 0.37388 0.15155 -0.02066 0.0
O44 O 0.59731 0.24199 -0.00199 0.0
O45 O 0.64438 0.15758 0.01652 0.0
O46 O 0.59973 0.15298 0.05339 0.0
O47 O 0.51123 0.16469 0.03853 0.0
O48 O 0.6421 0.24452 0.02098 0.0
O49 O 0.51821 0.23644 0.0174 0.0
O50 O 0.58512 0.97171 0.04058 0.0
O51 O 0.53352 0.06436 0.03126 0.0
O52 O 0.53763 0.08202 -0.0095 0.0
O53 O 0.64731 0.10423 0.00035 0.0
O54 O 0.54876 0.98501 0.02781 0.0
O55 O 0.64767 0.99765 0.01725 0.0
C56 C 0.68359 0.22063 0.01911 0.0
C57 C 0.58758 0.34094 -0.001 0.0
C58 C 0.63365 0.46094 0.00585 0.0
C59 C 0.60281 0.39298 0.01181 0.0
C60 C 0.64673 0.47616 -0.0131 0.0
C61 C 0.60802 0.35746 -0.0195 0.0
C62 C 0.63612 0.4251 0.97442 0.0
C63 C 0.55415 0.18099 0.05172 0.0
C64 C 0.56854 0.27341 0.00576 0.0
C65 C 0.30381 0.13077 -0.01755 0.0
C66 C 0.26903 0.08724 -0.00269 0.0
C67 C 0.49929 0.99941 0.02599 0.0
C68 C 0.58757 0.86515 0.02856 0.0
C69 C 0.62354 0.82735 0.02203 0.0
C70 C 0.62395 0.77053 0.03289 0.0
C71 C 0.59849 0.76256 0.05077 0.0
C72 C 0.54256 0.82896 0.04309 0.0
C73 C 0.55571 0.78861 0.05544 0.0
C74 C 0.598 0.09 -0.0137 0.0
C75 C 0.59899 0.94413 0.02632 0.0
H76 H 0.59489 0.38126 0.02642 0.0
H77 H 0.66768 0.52747 -0.01856 0.0
H78 H 0.60623 0.31933 0.97097 0.0
H79 H 0.65254 0.43896 0.96029 0.0
H80 H 0.64832 0.83794 0.00887 0.0
H81 H 0.6005 0.72535 0.06008 0.0
H82 H 0.51241 0.84867 0.0484 0.0
H83 H 0.52916 0.77466 0.06862 0.0
Eu84 Eu 0.0513 0.47237 0.01277 0.0
C85 C 0.07519 0.78396 0.0667 0.0
C86 C 0.06272 0.86248 0.04136 0.0
C87 C 0.17109 0.92703 0.06184 0.0
C88 C 0.09987 0.81492 0.04657 0.0
C89 C 0.15146 0.8596 0.07362 0.0
C90 C 0.12107 0.92751 0.04828 0.0
C91 C 0.20109 0.78751 0.09957 0.0
N92 N 0.04795 0.68745 0.07278 0.0
C93 C 0.08876 0.66595 0.08751 0.0
C94 C 0.20773 0.85888 0.09031 0.0
Eu95 Eu 0.11465 0.64603 0.03508 0.0
N96 N 0.10671 0.75358 0.02403 0.0
C97 C 0.06991 0.75013 0.00419 0.0
C98 C 1.02376 0.85071 0.0193 0.0
C99 C 1.02792 0.7984 0.0018 0.0
H100 H 0.07576 0.61187 0.08878 0.0
H101 H 1.00428 0.79632 -0.01125 0.0
H102 H 0.06581 0.89636 0.04749 0.0
H103 H 0.24532 0.79591 0.10808 0.0
H104 H 0.06296 0.71268 -0.00622 0.0
H105 H 0.19856 0.37799 0.05176 0.0
H106 H 1.00419 0.88472 0.0158 0.0
H107 H 1.00992 0.45188 0.96863 0.0
H108 H 0.15587 0.45843 0.04531 0.0
H109 H 0.94919 0.34272 0.95236 0.0
H110 H 0.16344 0.89034 0.06936 0.0
H111 H 0.17918 0.286 0.02937 0.0
H112 H 0.12755 0.22557 3e-05 0.0
H113 H 0.25114 0.9082 0.09414 0.0
H114 H 0.05095 0.2104 0.97384 0.0
N115 N 0.11829 0.4175 0.01873 0.0
C116 C 0.15125 0.42185 0.03491 0.0
C117 C 0.16338 0.32348 0.02623 0.0
C118 C 0.13049 0.31948 0.00972 0.0
C119 C 0.17411 0.37515 0.03883 0.0
C120 C 0.11044 0.36933 0.00609 0.0
H121 H 0.96876 0.24544 0.95944 0.0
N122 N 0.06111 0.41681 -0.01341 0.0
C123 C 0.98543 0.34841 0.96264 0.0
C124 C 0.07615 0.36582 -0.00983 0.0
C125 C 1.02181 0.41141 0.9717 0.0
C126 C 0.99713 0.29414 0.96676 0.0
C127 C 0.04875 0.30528 -0.02066 0.0
O128 O 0.9583 0.43825 -0.00199 0.0
O129 O 0.04268 0.56974 0.01652 0.0
O130 O 0.04726 0.52971 0.05338 0.0
O131 O 0.03569 0.42954 0.03853 0.0
O132 O 0.95576 0.48052 0.02096 0.0
O133 O 0.96387 0.36473 0.0174 0.0
O134 O 0.22852 0.69636 0.04058 0.0
O135 O 0.1359 0.55214 0.03125 0.0
O136 O 0.11822 0.5386 -0.00951 0.0
O137 O 0.096 0.62608 0.00034 0.0
O138 O 0.21522 0.64672 0.02779 0.0
O139 O 0.20259 0.73298 0.01724 0.0
C140 C 0.97963 0.54589 0.0191 0.0
C141 C 0.85936 0.3296 -0.001 0.0
C142 C 0.73935 0.25571 0.00585 0.0
C143 C 0.80732 0.29279 0.01182 0.0
C144 C 0.72413 0.25359 -0.0131 0.0
C145 C 0.84284 0.33353 -0.0195 0.0
C146 C 0.7752 0.29402 0.97442 0.0
C147 C 1.01931 0.45613 0.05171 0.0
C148 C 0.9269 0.37809 0.00576 0.0
C149 C 0.06951 0.25596 -0.01755 0.0
C150 C 0.11302 0.26468 -0.00268 0.0
C151 C 0.20083 0.58285 0.02598 0.0
C152 C 0.33507 0.80535 0.02857 0.0
C153 C 0.37286 0.87913 0.02204 0.0
C154 C 0.42971 0.93628 0.03292 0.0
C155 C 0.43768 0.91876 0.05079 0.0
C156 C 0.37126 0.79647 0.04309 0.0
C157 C 0.41163 0.84993 0.05545 0.0
C158 C 0.11023 0.591 -0.0137 0.0
C159 C 0.2561 0.73782 0.02632 0.0
H160 H 0.81904 0.29659 0.02642 0.0
H161 H 0.67281 0.22326 -0.01855 0.0
H162 H 0.88095 0.36987 0.97097 0.0
H163 H 0.76134 0.29658 0.96029 0.0
H164 H 0.36225 0.89337 0.00889 0.0
H165 H 0.47491 0.95796 0.0601 0.0
H166 H 0.35156 0.7466 0.04838 0.0
H167 H 0.4256 0.83727 0.06862 0.0
Eu168 Eu 0.72783 0.66177 0.01277 0.0
C169 C 0.41634 0.37423 0.06671 0.0
C170 C 0.33788 0.28321 0.04139 0.0
C171 C 0.27324 0.3269 0.06186 0.0
C172 C 0.38537 0.36793 0.04658 0.0
C173 C 0.34067 0.37481 0.07363 0.0
C174 C 0.27281 0.27637 0.04832 0.0
C175 C 0.41265 0.4965 0.09958 0.0
N176 N 0.51282 0.44353 0.07279 0.0
C177 C 0.53426 0.50581 0.08752 0.0
C178 C 0.34132 0.43176 0.09031 0.0
Eu179 Eu 0.5542 0.55164 0.03509 0.0
N180 N 0.44665 0.4361 0.02405 0.0
C181 C 0.45013 0.40276 0.0042 0.0
C182 C 0.34967 0.25602 0.01933 0.0
C183 C 0.40194 0.3125 0.00182 0.0
H184 H 0.58832 0.54691 0.0888 0.0
H185 H 0.40404 0.29095 -0.01123 0.0
H186 H 0.30408 0.25238 0.04754 0.0
H187 H 0.40421 0.53232 0.10809 0.0
H188 H 0.48756 0.43327 -0.00621 0.0
H189 H 0.82218 0.90344 0.05172 0.0
H190 H 0.31571 0.20244 0.01583 0.0
H191 H 0.74826 0.64084 0.96862 0.0
H192 H 0.74185 0.78029 0.04531 0.0
H193 H 0.85738 0.68926 0.95232 0.0
H194 H 0.30991 0.356 0.06937 0.0
H195 H 0.91408 0.97603 0.0293 0.0
H196 H 0.97452 0.98476 -2e-05 0.0
H197 H 0.29198 0.42581 0.09415 0.0
H198 H 0.98969 0.9233 0.9738 0.0
N199 N 0.78269 0.78361 0.01872 0.0
C200 C 0.77838 0.81224 0.0349 0.0
C201 C 0.87663 0.92274 0.02618 0.0
C202 C 0.88064 0.89381 0.00968 0.0
C203 C 0.82502 0.88181 0.0388 0.0
C204 C 0.83082 0.82391 0.00606 0.0
H205 H 0.95467 0.80606 0.95941 0.0
N206 N 0.78334 0.72708 -0.01342 0.0
C207 C 0.8517 0.7198 0.96261 0.0
C208 C 0.83433 0.79311 -0.00985 0.0
C209 C 0.78873 0.69319 0.97168 0.0
C210 C 0.90598 0.78575 0.96673 0.0
C211 C 0.89485 0.82623 -0.02068 0.0
O212 O 0.76193 0.60289 -0.002 0.0
O213 O 0.6304 0.55585 0.01652 0.0
O214 O 0.67053 0.60061 0.05339 0.0
O215 O 0.77078 0.68899 0.03851 0.0
O216 O 0.71969 0.55809 0.02099 0.0
O217 O 0.83547 0.68198 0.01738 0.0
O218 O 0.5039 0.6152 0.04065 0.0
O219 O 0.64815 0.66674 0.03126 0.0
O220 O 0.66163 0.66257 -0.00951 0.0
O221 O 0.57412 0.55292 0.00035 0.0
O222 O 0.55343 0.65143 0.02769 0.0
O223 O 0.46725 0.55277 0.01729 0.0
C224 C 0.65433 0.51672 0.01911 0.0
C225 C 0.87061 0.61263 -0.00102 0.0
C226 C 0.94455 0.56657 0.00584 0.0
C227 C 0.90747 0.59746 0.01179 0.0
C228 C 0.94665 0.55342 -0.01311 0.0
C229 C 0.86664 0.59212 -0.01952 0.0
C230 C 0.90618 0.56402 0.9744 0.0
C231 C 0.74412 0.64615 0.05172 0.0
C232 C 0.82211 0.63166 0.00574 0.0
C233 C 0.94415 0.89631 -0.01758 0.0
C234 C 0.93542 0.93112 -0.00272 0.0
C235 C 0.61734 0.70085 0.02598 0.0
C236 C 0.39493 0.61287 0.02864 0.0
C237 C 0.32121 0.5769 0.02208 0.0
C238 C 0.26396 0.57645 0.03293 0.0
C239 C 0.28131 0.60181 0.05082 0.0
C240 C 0.40367 0.65777 0.04319 0.0
C241 C 0.35009 0.64456 0.05553 0.0
C242 C 0.6092 0.60221 -0.0137 0.0
C243 C 0.46244 0.60142 0.02639 0.0
H244 H 0.90369 0.60543 0.0264 0.0
H245 H 0.977 0.53244 -0.01857 0.0
H246 H 0.83028 0.59387 0.97096 0.0
H247 H 0.90361 0.54756 0.96027 0.0
H248 H 0.3071 0.55217 0.00891 0.0
H249 H 0.24202 0.59976 0.06012 0.0
H250 H 0.45347 0.68785 0.04854 0.0
H251 H 0.36261 0.6711 0.06871 0.0
Eu252 Eu 0.16036 0.52688 0.43876 0.0
C253 C 0.13645 0.81458 0.38484 0.0
C254 C 0.14887 0.90554 0.41018 0.0
C255 C 0.04051 0.86171 0.38969 0.0
C256 C 0.11175 0.82084 0.40498 0.0
C257 C 0.06018 0.81394 0.37791 0.0
C258 C 0.09052 0.91221 0.40326 0.0
C259 C 1.01059 0.69224 0.35197 0.0
N260 N 0.16372 0.74532 0.37877 0.0
C261 C 0.12293 0.68302 0.36404 0.0
C262 C 1.00393 0.75697 0.36123 0.0
Eu263 Eu 0.09698 0.63717 0.41646 0.0
N264 N 0.10491 0.75266 0.42751 0.0
C265 C 0.14168 0.78599 0.44736 0.0
C266 C 0.18782 0.93273 0.43224 0.0
C267 C 0.18366 0.87624 0.44974 0.0
H268 H 0.13594 0.64195 0.36277 0.0
H269 H 0.20728 0.8978 0.4628 0.0
H270 H 0.14578 0.93633 0.40405 0.0
H271 H 0.96637 0.65642 0.34346 0.0
H272 H 0.14863 0.75549 0.45776 0.0
H273 H 1.01304 0.28523 0.3998 0.0
H274 H 0.20738 0.98629 0.43575 0.0
H275 H 0.20176 0.54777 0.4829 0.0
H276 H 0.05578 0.40838 0.40624 0.0
H277 H 0.26244 0.49931 0.49919 0.0
H278 H 0.04819 0.83269 0.38218 0.0
H279 H 1.03242 0.21263 0.4222 0.0
H280 H 0.08412 0.20385 0.45153 0.0
H281 H 0.96052 0.76289 0.35739 0.0
H282 H 0.16074 0.26527 0.47771 0.0
N283 N 0.09338 0.40504 0.43281 0.0
C284 C 0.0604 0.37642 0.41664 0.0
C285 C 0.04824 0.26591 0.42533 0.0
C286 C 0.08118 0.29482 0.44183 0.0
C287 C 0.03751 0.30685 0.41272 0.0
C288 C 0.10124 0.36472 0.44546 0.0
H289 H 0.24293 0.3825 0.49211 0.0
N290 N 0.15059 0.46153 0.46494 0.0
C291 C 0.22624 0.46878 0.48891 0.0
C292 C 0.13555 0.3955 0.46137 0.0
C293 C 0.18988 0.49542 0.47984 0.0
C294 C 0.21455 0.40282 0.48479 0.0
C295 C 0.16294 0.36235 0.4722 0.0
O296 O 0.25335 0.58577 0.45352 0.0
O297 O 0.16896 0.63287 0.43502 0.0
O298 O 0.16439 0.58829 0.39816 0.0
O299 O 0.17595 0.49967 0.41301 0.0
O300 O 0.25588 0.63057 0.43057 0.0
O301 O 0.2478 0.50669 0.43413 0.0
O302 O 0.98311 0.57367 0.41097 0.0
O303 O 0.07573 0.52204 0.42029 0.0
O304 O 0.09342 0.52616 0.46105 0.0
O305 O 0.11562 0.63586 0.4512 0.0
O306 O 0.9964 0.5373 0.42375 0.0
O307 O 1.00907 0.63624 0.43431 0.0
C308 C 0.232 0.67207 0.43244 0.0
C309 C 0.35231 0.57607 0.45253 0.0
C310 C 0.47232 0.62217 0.44569 0.0
C311 C 0.40437 0.59133 0.43972 0.0
C312 C 0.48751 0.63521 0.46464 0.0
C313 C 0.36881 0.59649 0.47104 0.0
C314 C 0.43643 0.62458 0.47712 0.0
C315 C 0.19235 0.54266 0.39983 0.0
C316 C 0.28477 0.55703 0.44577 0.0
C317 C 0.14218 0.29228 0.46909 0.0
C318 C 0.09866 0.25749 0.45423 0.0
C319 C 1.0108 0.48782 0.42556 0.0
C320 C 0.87657 0.57614 0.42299 0.0
C321 C 0.83878 0.61213 0.42952 0.0
C322 C 0.78195 0.61252 0.41865 0.0
C323 C 0.77399 0.58703 0.40078 0.0
C324 C 0.84037 0.53109 0.40847 0.0
C325 C 0.80001 0.54422 0.39611 0.0
C326 C 0.10139 0.58654 0.46525 0.0
C327 C 0.95554 0.58755 0.42523 0.0
H328 H 0.39266 0.58344 0.42511 0.0
H329 H 0.53882 0.65615 0.4701 0.0
H330 H 0.33068 0.5947 0.48056 0.0
H331 H 0.45028 0.64097 0.49125 0.0
H332 H 0.84937 0.63693 0.44268 0.0
H333 H 0.73677 0.58902 0.39146 0.0
H334 H 0.86005 0.50091 0.40318 0.0
H335 H 0.78605 0.51764 0.38294 0.0
Eu336 Eu 0.67317 0.71637 0.43878 0.0
C337 C 0.38565 0.40487 0.38484 0.0
C338 C 0.29468 0.32638 0.41017 0.0
C339 C 0.33841 0.26178 0.38969 0.0
C340 C 0.37938 0.3739 0.40498 0.0
C341 C 0.38625 0.32921 0.37792 0.0
C342 C 0.28791 0.26133 0.40325 0.0
C343 C 0.50793 0.40124 0.35197 0.0
N344 N 0.45492 0.50136 0.37877 0.0
C345 C 0.5172 0.52283 0.36403 0.0
C346 C 0.4432 0.32988 0.36123 0.0
Eu347 Eu 0.56306 0.54274 0.41646 0.0
N348 N 0.44755 0.4352 0.42751 0.0
C349 C 0.41422 0.43866 0.44735 0.0
C350 C 0.26749 0.33816 0.43224 0.0
C351 C 0.32398 0.39045 0.44974 0.0
H352 H 0.55829 0.5769 0.36276 0.0
H353 H 0.30243 0.39253 0.4628 0.0
H354 H 0.26386 0.29255 0.40404 0.0
H355 H 0.54374 0.39281 0.34346 0.0
H356 H 0.44473 0.4761 0.45776 0.0
H357 H 0.91478 0.81069 0.39979 0.0
H358 H 0.21393 0.30419 0.43574 0.0
H359 H 0.65232 0.73684 0.48293 0.0
H360 H 0.79161 0.7304 0.40621 0.0
H361 H 0.7008 0.84597 0.49922 0.0
H362 H 0.36747 0.29846 0.38218 0.0
H363 H 0.9874 0.90256 0.42221 0.0
H364 H 0.99621 0.96298 0.45154 0.0
H365 H 0.43726 0.28055 0.3574 0.0
H366 H 0.93482 0.97818 0.47774 0.0
N367 N 0.79499 0.77122 0.43281 0.0
C368 C 0.82358 0.76691 0.41662 0.0
C369 C 0.93411 0.86512 0.42534 0.0
C370 C 0.90522 0.86913 0.44184 0.0
C371 C 0.89316 0.81353 0.41272 0.0
C372 C 0.83532 0.81933 0.44547 0.0
H373 H 0.81762 0.94322 0.49213 0.0
N374 N 0.73853 0.77188 0.46496 0.0
C375 C 0.73131 0.84027 0.48893 0.0
C376 C 0.80457 0.82285 0.46138 0.0
C377 C 0.70467 0.77729 0.47986 0.0
C378 C 0.79728 0.89452 0.48481 0.0
C379 C 0.83773 0.88336 0.47222 0.0
O380 O 0.61428 0.75044 0.45356 0.0
O381 O 0.56725 0.61893 0.43503 0.0
O382 O 0.61205 0.65906 0.39815 0.0
O383 O 0.70032 0.75937 0.41304 0.0
O384 O 0.56949 0.70823 0.43055 0.0
O385 O 0.69336 0.824 0.43418 0.0
O386 O 0.62661 0.49241 0.41092 0.0
O387 O 0.67815 0.6367 0.42028 0.0
O388 O 0.67399 0.65017 0.46106 0.0
O389 O 0.56435 0.56267 0.4512 0.0
O390 O 0.66286 0.54197 0.42384 0.0
O391 O 0.56415 0.45578 0.43428 0.0
C392 C 0.52812 0.64286 0.43244 0.0
C393 C 0.62401 0.85913 0.45258 0.0
C394 C 0.57795 0.93308 0.44572 0.0
C395 C 0.60882 0.89596 0.43976 0.0
C396 C 0.56483 0.93519 0.46467 0.0
C397 C 0.60354 0.8552 0.47108 0.0
C398 C 0.57543 0.89474 0.47715 0.0
C399 C 0.65755 0.73267 0.39983 0.0
C400 C 0.64304 0.81063 0.44583 0.0
C401 C 0.9078 0.93264 0.46911 0.0
C402 C 0.94257 0.9239 0.45425 0.0
C403 C 0.71227 0.60589 0.42556 0.0
C404 C 0.62422 0.3834 0.42293 0.0
C405 C 0.58825 0.30967 0.42949 0.0
C406 C 0.58773 0.25237 0.41864 0.0
C407 C 0.61313 0.26978 0.40075 0.0
C408 C 0.66914 0.39215 0.40839 0.0
C409 C 0.65591 0.33857 0.39605 0.0
C410 C 0.61364 0.59775 0.46525 0.0
C411 C 0.6128 0.45095 0.42518 0.0
H412 H 0.61676 0.89217 0.42515 0.0
H413 H 0.54386 0.96555 0.47012 0.0
H414 H 0.60533 0.81886 0.48061 0.0
H415 H 0.55898 0.89218 0.49128 0.0
H416 H 0.56354 0.29556 0.44266 0.0
H417 H 0.61108 0.23051 0.39145 0.0
H418 H 0.69927 0.44197 0.40305 0.0
H419 H 0.68242 0.3511 0.38287 0.0
Eu420 Eu 0.48379 0.03976 0.43877 0.0
C421 C 0.79535 0.0637 0.38484 0.0
C422 C 0.87378 0.0511 0.41018 0.0
C423 C 0.93843 0.15947 0.38971 0.0
C424 C 0.82629 0.08833 0.40498 0.0
C425 C 0.87102 0.13995 0.37794 0.0
C426 C 0.93885 0.10936 0.40326 0.0
C427 C 0.79906 0.1897 0.35198 0.0
N428 N 0.69887 0.03654 0.37877 0.0
C429 C 0.67745 0.07741 0.36403 0.0
C430 C 0.87039 0.19626 0.36125 0.0
Eu431 Eu 0.65745 0.10322 0.41646 0.0
N432 N 0.76498 0.0952 0.42751 0.0
C433 C 0.76148 0.05836 0.44735 0.0
C434 C 0.86197 1.01209 0.43223 0.0
C435 C 0.80967 1.01628 0.44974 0.0
H436 H 0.62338 0.06446 0.36275 0.0
H437 H 0.80756 0.99262 0.46279 0.0
H438 H 0.90761 0.05409 0.40403 0.0
H439 H 0.80751 0.23397 0.34348 0.0
H440 H 0.72404 0.05143 0.45776 0.0
H441 H 0.38943 0.18708 0.39981 0.0
H442 H 0.89592 0.99247 0.43574 0.0
H443 H 0.46332 0.99836 0.48292 0.0
H444 H 0.4698 0.1443 0.40624 0.0
H445 H 0.35419 0.93767 0.49922 0.0
H446 H 0.90177 0.15189 0.3822 0.0
H447 H 0.29749 0.16774 0.42222 0.0
H448 H 0.23704 0.11603 0.45155 0.0
H449 H 0.91973 0.23966 0.35742 0.0
H450 H 0.22187 0.03941 0.47773 0.0
N451 N 0.42893 0.10675 0.43282 0.0
C452 C 0.43326 0.13971 0.41664 0.0
C453 C 0.33495 0.15191 0.42535 0.0
C454 C 0.33094 0.11898 0.44185 0.0
C455 C 0.38659 0.16261 0.41273 0.0
C456 C 0.38077 0.09891 0.44548 0.0
H457 H 0.25691 0.95721 0.49213 0.0
N458 N 0.42825 0.04954 0.46496 0.0
C459 C 0.35988 0.97389 0.48893 0.0
C460 C 0.37726 0.06459 0.46139 0.0
C461 C 0.42286 1.01025 0.47986 0.0
C462 C 0.3056 0.98558 0.48481 0.0
C463 C 0.31673 0.0372 0.47222 0.0
O464 O 0.44965 0.94676 0.45354 0.0
O465 O 0.58122 0.03124 0.43503 0.0
O466 O 0.54114 0.03584 0.39816 0.0
O467 O 0.44092 0.02411 0.41303 0.0
O468 O 0.49193 0.9442 0.43057 0.0
O469 O 0.37616 0.95235 0.43415 0.0
O470 O 0.70777 0.21707 0.41092 0.0
O471 O 0.5635 0.12438 0.42028 0.0
O472 O 0.55 0.10672 0.46106 0.0
O473 O 0.63751 0.08457 0.4512 0.0
O474 O 0.65823 0.20379 0.42385 0.0
O475 O 0.74439 0.19124 0.43428 0.0
C476 C 0.55729 0.96818 0.43245 0.0
C477 C 0.34099 0.84784 0.45255 0.0
C478 C 0.26708 0.72783 0.4457 0.0
C479 C 0.30416 0.7958 0.43974 0.0
C480 C 0.26497 0.7126 0.46465 0.0
C481 C 0.34493 0.8313 0.47105 0.0
C482 C 0.30541 0.76366 0.47713 0.0
C483 C 0.46755 1.00783 0.39983 0.0
C484 C 0.3895 0.91536 0.44579 0.0
C485 C 0.26742 0.05797 0.46911 0.0
C486 C 0.27614 0.10149 0.45425 0.0
C487 C 0.59431 0.18931 0.42556 0.0
C488 C 0.81672 0.32369 0.42294 0.0
C489 C 0.89046 0.36144 0.42948 0.0
C490 C 0.94767 0.41827 0.41862 0.0
C491 C 0.93024 0.42628 0.40074 0.0
C492 C 0.80792 0.35986 0.4084 0.0
C493 C 0.86144 0.40025 0.39605 0.0
C494 C 0.60242 0.09877 0.46525 0.0
C495 C 0.74921 0.24472 0.42518 0.0
H496 H 0.30795 0.80753 0.42513 0.0
H497 H 0.23464 0.66127 0.4701 0.0
H498 H 0.38128 0.86941 0.48058 0.0
H499 H 0.30798 0.74979 0.49126 0.0
H500 H 0.90463 0.3508 0.44264 0.0
H501 H 0.96948 0.46352 0.39143 0.0
H502 H 0.75809 0.34014 0.40308 0.0
H503 H 0.84885 0.41425 0.38288 0.0
Eu504 Eu 0.56297 0.10326 0.91646 0.0
C505 C 0.80458 0.06459 0.96137 0.0
C506 C 0.90528 0.11906 0.94185 0.0
C507 C 0.90781 0.05801 0.9691 0.0
C508 C 0.83537 0.09894 0.94547 0.0
C509 C 0.83773 0.03721 0.97221 0.0
C510 C 0.94261 0.10157 0.95425 0.0
C511 C 0.73131 0.97391 -0.01109 0.0
N512 N 0.73852 0.04952 0.96494 0.0
C513 C 0.70469 1.01027 -0.02016 0.0
C514 C 0.79727 0.98559 -0.01521 0.0
Eu515 Eu 0.67322 0.03985 0.93877 0.0
N516 N 0.79507 0.10683 0.93282 0.0
C517 C 0.8237 0.13981 0.91665 0.0
C518 C 0.93422 0.15206 0.92536 0.0
C519 C 0.89328 0.16278 0.91274 0.0
H520 H 0.65234 0.99839 -0.01708 0.0
H521 H 0.91492 0.1873 0.89983 0.0
H522 H 0.99625 0.11614 0.95155 0.0
H523 H 0.70079 0.93771 -0.0008 0.0
H524 H 0.79176 0.14442 0.90624 0.0
H525 H 0.30245 0.99292 0.9628 0.0
H526 H 0.98753 0.16797 0.92224 0.0
H527 H 0.5581 0.06404 0.86277 0.0
H528 H 0.44472 0.05161 0.95775 0.0
H529 H 0.54382 0.23377 0.84344 0.0
H530 H 0.93482 0.03946 -0.02227 0.0
H531 H 0.21393 0.99285 0.93577 0.0
H532 H 0.26371 0.0544 0.90417 0.0
H533 H 0.81759 0.95721 -0.00789 0.0
H534 H 0.3675 0.15203 0.88217 0.0
N535 N 0.44747 0.0953 0.9275 0.0
C536 C 0.41419 0.05852 0.94734 0.0
C537 C 0.26745 1.01229 0.93224 0.0
C538 C 0.29465 0.05131 0.91017 0.0
C539 C 0.32396 1.01651 0.94974 0.0
C540 C 0.37932 0.08841 0.90497 0.0
H541 H 0.43739 0.23971 0.85738 0.0
N542 N 0.45474 0.0364 0.87877 0.0
C543 C 0.508 0.18959 0.85197 0.0
C544 C 0.3856 0.06376 0.88485 0.0
C545 C 0.51713 0.07718 0.86405 0.0
C546 C 0.4433 0.1963 0.86123 0.0
C547 C 0.3863 0.14007 0.87792 0.0
O548 O 0.62641 0.21713 0.91096 0.0
O549 O 0.67815 0.1245 0.92029 0.0
O550 O 0.67407 0.10687 0.96105 0.0
O551 O 0.56439 0.0847 0.9512 0.0
O552 O 0.66285 0.20393 0.92361 0.0
O553 O 0.56389 0.19113 0.93431 0.0
O554 O 0.61428 0.94687 0.95353 0.0
O555 O 0.56732 0.03133 0.93502 0.0
O556 O 0.61187 0.03584 0.89816 0.0
O557 O 0.70044 0.02424 0.91301 0.0
O558 O 0.56949 0.94439 0.93055 0.0
O559 O 0.69333 0.95237 0.93414 0.0
C560 C 0.71229 0.18952 0.9255 0.0
C561 C 0.62396 0.32365 0.923 0.0
C562 C 0.58757 0.41823 0.91864 0.0
C563 C 0.58795 0.36143 0.92952 0.0
C564 C 0.61305 0.42613 0.90076 0.0
C565 C 0.66907 0.35987 0.9085 0.0
C566 C 0.6559 0.40015 0.89612 0.0
C567 C 0.61371 0.09893 0.96524 0.0
C568 C 0.61254 0.24468 0.92523 0.0
C569 C 0.33846 0.1597 0.88968 0.0
C570 C 0.28783 0.10957 0.9032 0.0
C571 C 0.52803 0.96831 0.93242 0.0
C572 C 0.62393 0.84788 0.95254 0.0
C573 C 0.60875 0.79585 0.93972 0.0
C574 C 0.57808 0.7279 0.94568 0.0
C575 C 0.56504 0.71269 0.96464 0.0
C576 C 0.60352 0.83135 0.97104 0.0
C577 C 0.57554 0.76373 -0.02288 0.0
C578 C 0.65749 1.00788 0.89983 0.0
C579 C 0.64299 0.91542 0.94578 0.0
H580 H 0.56312 0.35085 0.94267 0.0
H581 H 0.61106 0.46332 0.89143 0.0
H582 H 0.69933 0.34024 0.90323 0.0
H583 H 0.6825 0.41408 0.88295 0.0
H584 H 0.61661 0.80757 0.92511 0.0
H585 H 0.54418 0.66139 0.9701 0.0
H586 H 0.60528 0.86946 -0.01943 0.0
H587 H 0.55913 0.74984 -0.00875 0.0
Eu588 Eu 0.09699 0.54279 0.91645 0.0
C589 C 0.13559 0.82303 0.96137 0.0
C590 C 0.08114 0.86931 0.94185 0.0
C591 C 0.1422 0.93287 0.9691 0.0
C592 C 0.10124 0.81949 0.94547 0.0
C593 C 0.16299 0.88357 0.9722 0.0
C594 C 0.09864 0.92413 0.95424 0.0
C595 C 0.2263 0.84044 -0.0111 0.0
N596 N 0.15067 0.77205 0.96494 0.0
C597 C 0.18992 0.77744 -0.02016 0.0
C598 C 0.21462 0.89472 -0.01522 0.0
Eu599 Eu 0.16035 0.71644 0.93876 0.0
N600 N 0.09334 0.77129 0.93282 0.0
C601 C 0.06037 0.76696 0.91665 0.0
C602 C 0.04815 0.86526 0.92535 0.0
C603 C 0.03744 0.81361 0.91274 0.0
H604 H 0.20182 0.73698 -0.01709 0.0
H605 H 1.01294 0.81075 0.89982 0.0
H606 H 0.08409 0.96322 0.95154 0.0
H607 H 0.26251 0.8461 -0.00081 0.0
H608 H 0.05575 0.7304 0.90624 0.0
H609 H 0.2076 0.39284 0.9628 0.0
H610 H 1.03227 0.9027 0.92222 0.0
H611 H 0.13602 0.57698 0.86274 0.0
H612 H 0.14876 0.47631 0.95775 0.0
H613 H 0.96635 0.39289 0.84346 0.0
H614 H 0.16077 0.97844 -0.02229 0.0
H615 H 0.20769 0.30436 0.93578 0.0
H616 H 0.14603 0.29246 0.90419 0.0
H617 H 0.243 0.94342 -0.0079 0.0
H618 H 0.04827 0.2985 0.88221 0.0
N619 N 0.10504 0.4353 0.9275 0.0
C620 C 0.14189 0.43887 0.94734 0.0
C621 C 0.18819 0.3384 0.93225 0.0
C622 C 0.1491 0.3265 0.91019 0.0
C623 C 0.18397 0.39072 0.94974 0.0
C624 C 0.11193 0.37401 0.90498 0.0
H625 H 0.96053 0.28059 0.85743 0.0
N626 N 0.16377 0.50135 0.87875 0.0
C627 C 1.01055 0.40129 0.85198 0.0
C628 C 0.13651 0.40489 0.88485 0.0
C629 C 0.12292 0.52289 0.86404 0.0
C630 C 1.00393 0.32993 0.86126 0.0
C631 C 0.06022 0.32925 0.87795 0.0
O632 O 0.98314 0.49239 0.91093 0.0
O633 O 0.07573 0.63672 0.92028 0.0
O634 O 0.09336 0.65025 0.96104 0.0
O635 O 0.11552 0.56272 0.95119 0.0
O636 O 0.99633 0.54199 0.92363 0.0
O637 O 1.00907 0.45586 0.9343 0.0
O638 O 0.25335 0.75052 0.95352 0.0
O639 O 0.1689 0.61907 0.93502 0.0
O640 O 0.16442 0.65911 0.89816 0.0
O641 O 0.17593 0.75925 0.91301 0.0
O642 O 0.25583 0.70817 0.93056 0.0
O643 O 0.2478 0.82404 0.93413 0.0
C644 C 1.01073 0.60585 0.9255 0.0
C645 C 0.87658 0.38348 0.92297 0.0
C646 C 0.78196 0.25258 0.9186 0.0
C647 C 0.8388 0.30969 0.92948 0.0
C648 C 0.77404 0.27016 0.90072 0.0
C649 C 0.84039 0.39241 0.90846 0.0
C650 C 0.80005 0.33901 0.89608 0.0
C651 C 0.10129 0.59781 0.96524 0.0
C652 C 0.95556 0.45099 0.92521 0.0
C653 C 0.04067 0.26183 0.88973 0.0
C654 C 0.09086 0.26139 0.90324 0.0
C655 C 0.23193 0.6428 0.93243 0.0
C656 C 0.3523 0.85916 0.95253 0.0
C657 C 0.40433 0.89602 0.93972 0.0
C658 C 0.47228 0.93323 0.94568 0.0
C659 C 0.4875 0.93535 0.96463 0.0
C660 C 0.36884 0.85524 0.97103 0.0
C661 C 0.43646 0.89483 -0.02289 0.0
C662 C 0.19236 0.73269 0.89983 0.0
C663 C 0.28477 0.81068 0.94577 0.0
H664 H 0.84943 0.29541 0.94262 0.0
H665 H 0.73681 0.23101 0.8914 0.0
H666 H 0.86007 0.4423 0.90319 0.0
H667 H 0.78607 0.35171 0.88292 0.0
H668 H 0.39261 0.8922 0.92511 0.0
H669 H 0.53882 0.96573 0.97009 0.0
H670 H 0.33074 0.81887 -0.01944 0.0
H671 H 0.45035 0.89227 -0.00876 0.0
Eu672 Eu 0.65741 0.63715 0.91645 0.0
C673 C 0.37727 0.39567 0.96139 0.0
C674 C 0.33101 0.29499 0.94185 0.0
C675 C 0.2675 0.2924 0.96912 0.0
C676 C 0.38079 0.3649 0.94547 0.0
C677 C 0.31676 0.36249 0.97223 0.0
C678 C 0.27624 0.25763 0.95426 0.0
C679 C 0.35982 0.4689 -0.01107 0.0
N680 N 0.42822 0.46173 0.96495 0.0
C681 C 0.42281 0.49554 -0.02013 0.0
C682 C 0.30558 0.40293 -0.01518 0.0
Eu683 Eu 0.48378 0.52707 0.93878 0.0
N684 N 0.42893 0.40523 0.93282 0.0
C685 C 0.43321 0.37663 0.91663 0.0
C686 C 0.33502 0.26608 0.92535 0.0
C687 C 0.38661 0.30705 0.91273 0.0
H688 H 0.46325 0.54789 -0.01705 0.0
H689 H 0.38946 0.28543 0.89981 0.0
H690 H 0.23717 0.20399 0.95155 0.0
H691 H 0.35413 0.49942 -0.00078 0.0
H692 H 0.46972 0.4086 0.90622 0.0
H693 H 0.8074 0.89767 0.96281 0.0
H694 H 0.29761 0.21278 0.92222 0.0
H695 H 0.62314 0.64207 0.86275 0.0
H696 H 0.72393 0.75539 0.95775 0.0
H697 H 0.8072 0.65648 0.84344 0.0
H698 H 0.22196 0.26538 -0.02225 0.0
H699 H 0.89581 0.98625 0.93578 0.0
H700 H 0.90764 0.93652 0.90417 0.0
H701 H 0.25688 0.38258 -0.00787 0.0
H702 H 0.90163 0.83277 0.88219 0.0
N703 N 0.7649 0.75268 0.9275 0.0
C704 C 0.76135 0.78594 0.94734 0.0
C705 C 0.86178 0.93272 0.93226 0.0
C706 C 0.87364 0.90554 0.91018 0.0
C707 C 0.8095 0.87617 0.94974 0.0
C708 C 0.82614 0.82087 0.90498 0.0
H709 H 0.9195 0.76293 0.85741 0.0
N710 N 0.69878 0.74542 0.87876 0.0
C711 C 0.79881 0.69228 0.85197 0.0
C712 C 0.79523 0.81459 0.88486 0.0
C713 C 0.67722 0.68306 0.86404 0.0
C714 C 0.87017 0.757 0.86125 0.0
C715 C 0.87087 0.81395 0.87794 0.0
O716 O 0.70775 0.57365 0.91088 0.0
O717 O 0.56338 0.52202 0.92029 0.0
O718 O 0.54994 0.52614 0.96105 0.0
O719 O 0.6375 0.63578 0.9512 0.0
O720 O 0.65825 0.53737 0.92375 0.0
O721 O 0.74433 0.636 0.93426 0.0
O722 O 0.44978 0.58601 0.95358 0.0
O723 O 0.58121 0.63291 0.93503 0.0
O724 O 0.54107 0.58815 0.89816 0.0
O725 O 0.44075 0.4999 0.91305 0.0
O726 O 0.49204 0.6308 0.93053 0.0
O727 O 0.3762 0.50695 0.93419 0.0
C728 C 0.59434 0.48799 0.92552 0.0
C729 C 0.8167 0.57595 0.9229 0.0
C730 C 0.94766 0.61239 0.91858 0.0
C731 C 0.89043 0.61193 0.92945 0.0
C732 C 0.93026 0.58706 0.90069 0.0
C733 C 0.80794 0.53102 0.90835 0.0
C734 C 0.86147 0.54427 0.89599 0.0
C735 C 0.6024 0.58648 0.96524 0.0
C736 C 0.74917 0.58739 0.92515 0.0
C737 C 0.93831 0.86183 0.88971 0.0
C738 C 0.93876 0.91246 0.90322 0.0
C739 C 0.55741 0.67213 0.93243 0.0
C740 C 0.3411 0.57631 0.95259 0.0
C741 C 0.30424 0.59143 0.93976 0.0
C742 C 0.267 0.62216 0.94571 0.0
C743 C 0.26485 0.6353 0.96466 0.0
C744 C 0.34498 0.59677 0.97109 0.0
C745 C 0.30535 0.6248 -0.02285 0.0
C746 C 0.46747 0.54265 0.89983 0.0
C747 C 0.38959 0.55726 0.94584 0.0
H748 H 0.90457 0.63667 0.94261 0.0
H749 H 0.96952 0.58911 0.89138 0.0
H750 H 0.75812 0.5009 0.90303 0.0
H751 H 0.84892 0.51771 0.88282 0.0
H752 H 0.30809 0.58352 0.92516 0.0
H753 H 0.23445 0.65624 0.9701 0.0
H754 H 0.38132 0.59501 -0.01938 0.0
H755 H 0.30787 0.64124 -0.00872 0.0
Eu756 Eu 0.11463 0.55153 0.53509 0.0
C757 C 0.07602 0.79318 0.49018 0.0
C758 C 0.13047 0.89388 0.50971 0.0
C759 C 0.06947 0.89644 0.48245 0.0
C760 C 0.11035 0.82396 0.50609 0.0
C761 C 0.04866 0.82635 0.47935 0.0
C762 C 0.11301 0.93122 0.49731 0.0
C763 C 0.98534 0.71993 0.46264 0.0
N764 N 0.06092 0.72712 0.48662 0.0
C765 C 1.02168 0.69329 0.47171 0.0
C766 C 0.99704 0.7859 0.46676 0.0
Eu767 Eu 0.05123 0.66178 0.51278 0.0
N768 N 0.11821 0.78364 0.51874 0.0
C769 C 0.15117 0.81225 0.53492 0.0
C770 C 0.16344 0.9228 0.52621 0.0
C771 C 0.17412 0.88184 0.53882 0.0
H772 H 1.00978 0.64093 0.46863 0.0
H773 H 0.19862 0.90347 0.55174 0.0
H774 H 0.12758 0.98487 0.50001 0.0
H775 H 0.94914 0.68942 0.45235 0.0
H776 H 0.15576 0.7803 0.54532 0.0
H777 H 1.00425 0.29102 0.48874 0.0
H778 H 0.17933 0.97611 0.52933 0.0
H779 H 0.07543 0.54665 0.58878 0.0
H780 H 0.06296 0.43331 0.49379 0.0
H781 H 0.24514 0.53235 0.6081 0.0
H782 H 0.05093 0.92346 0.47383 0.0
H783 H 1.00417 0.20247 0.51576 0.0
H784 H 0.06578 0.25225 0.54736 0.0
H785 H 0.96868 0.80624 0.45944 0.0
H786 H 0.16348 0.35615 0.56934 0.0
N787 N 0.10665 0.43604 0.52404 0.0
C788 C 0.06986 0.40276 0.5042 0.0
C789 C 1.02363 0.256 0.51929 0.0
C790 C 0.06266 0.28319 0.54136 0.0
C791 C 1.02784 0.31253 0.5018 0.0
C792 C 0.09977 0.36785 0.54657 0.0
H793 H 0.25107 0.42591 0.59415 0.0
N794 N 0.04778 0.44328 0.57278 0.0
C795 C 0.20096 0.49653 0.59957 0.0
C796 C 0.07512 0.37413 0.56669 0.0
C797 C 0.08857 0.50567 0.58749 0.0
C798 C 0.20766 0.43182 0.5903 0.0
C799 C 0.15142 0.37481 0.57362 0.0
O800 O 0.2285 0.61496 0.54058 0.0
O801 O 0.13587 0.66671 0.53126 0.0
O802 O 0.11824 0.66262 0.4905 0.0
O803 O 0.09608 0.55294 0.50035 0.0
O804 O 0.21528 0.6514 0.52793 0.0
O805 O 0.2025 0.55244 0.51723 0.0
O806 O 0.95825 0.60285 0.49801 0.0
O807 O 0.0427 0.55588 0.51652 0.0
O808 O 0.04723 0.60043 0.55339 0.0
O809 O 0.03557 0.68898 0.53853 0.0
O810 O 0.95577 0.55804 0.521 0.0
O811 O 0.96376 0.68191 0.51741 0.0
C812 C 0.20087 0.70085 0.52604 0.0
C813 C 0.33502 0.61251 0.52854 0.0
C814 C 0.42962 0.57616 0.53293 0.0
C815 C 0.37281 0.57649 0.52204 0.0
C816 C 0.43752 0.60169 0.5508 0.0
C817 C 0.37123 0.65766 0.54304 0.0
C818 C 0.41153 0.64455 0.55543 0.0
C819 C 0.11031 0.60227 0.48631 0.0
C820 C 0.25604 0.60109 0.52631 0.0
C821 C 0.17106 0.32701 0.56185 0.0
C822 C 0.12095 0.27641 0.54832 0.0
C823 C 0.97969 0.51659 0.51912 0.0
C824 C 0.85927 0.61252 0.49901 0.0
C825 C 0.80724 0.59731 0.51183 0.0
C826 C 0.73929 0.56661 0.50586 0.0
C827 C 0.72407 0.55355 0.48691 0.0
C828 C 0.84274 0.59211 0.48051 0.0
C829 C 0.77511 0.56409 0.47443 0.0
C830 C 1.01925 0.64604 0.55172 0.0
C831 C 0.92681 0.63157 0.50576 0.0
H832 H 0.36222 0.55161 0.50889 0.0
H833 H 0.47471 0.59974 0.56013 0.0
H834 H 0.35161 0.68795 0.54829 0.0
H835 H 0.42548 0.67121 0.56859 0.0
H836 H 0.81896 0.60517 0.52644 0.0
H837 H 0.67276 0.53264 0.48145 0.0
H838 H 0.88085 0.59389 0.47098 0.0
H839 H 0.76123 0.54768 0.4603 0.0
Eu840 Eu 0.6486 0.64598 0.5351 0.0
C841 C 0.40712 0.36579 0.49016 0.0
C842 C 0.3064 0.31953 0.50968 0.0
C843 C 0.30389 0.256 0.48242 0.0
C844 C 0.37631 0.36932 0.50607 0.0
C845 C 0.37397 0.30527 0.47932 0.0
C846 C 0.26908 0.26475 0.49727 0.0
C847 C 0.48039 0.34838 0.46262 0.0
N848 N 0.47317 0.41675 0.4866 0.0
C849 C 0.50701 0.41137 0.47169 0.0
C850 C 0.41444 0.29412 0.46674 0.0
Eu851 Eu 0.53846 0.47234 0.51278 0.0
N852 N 0.41661 0.41748 0.51872 0.0
C853 C 0.38798 0.42177 0.5349 0.0
C854 C 0.27745 0.32358 0.52617 0.0
C855 C 0.31839 0.37517 0.5388 0.0
H856 H 0.55936 0.45182 0.46862 0.0
H857 H 0.29675 0.37803 0.55171 0.0
H858 H 0.21544 0.22568 0.49997 0.0
H859 H 0.51091 0.34271 0.45233 0.0
H860 H 0.41992 0.45828 0.54531 0.0
H861 H 0.90915 0.79594 0.48876 0.0
H862 H 0.22414 0.28618 0.52929 0.0
H863 H 0.65344 0.61174 0.5888 0.0
H864 H 0.76687 0.7125 0.4938 0.0
H865 H 0.66788 0.79585 0.60809 0.0
H866 H 0.27689 0.21046 0.4738 0.0
H867 H 0.99771 0.88434 0.51579 0.0
H868 H 0.94797 0.89618 0.5474 0.0
H869 H 0.39411 0.24542 0.45942 0.0
H870 H 0.84421 0.89023 0.56936 0.0
N871 N 0.76414 0.75348 0.52405 0.0
C872 C 0.79742 0.74992 0.50421 0.0
C873 C 0.94417 0.85032 0.51931 0.0
C874 C 0.91699 0.8622 0.54138 0.0
C875 C 0.88764 0.79805 0.50182 0.0
C876 C 0.83231 0.81472 0.54658 0.0
H877 H 0.77436 0.90813 0.59413 0.0
N878 N 0.75681 0.68736 0.57279 0.0
C879 C 0.70368 0.78743 0.59957 0.0
C880 C 0.826 0.78381 0.5667 0.0
C881 C 0.69444 0.66582 0.58751 0.0
C882 C 0.76841 0.85879 0.5903 0.0
C883 C 0.82538 0.85946 0.57361 0.0
O884 O 0.58514 0.69639 0.54064 0.0
O885 O 0.53344 0.55197 0.53127 0.0
O886 O 0.53757 0.53851 0.4905 0.0
O887 O 0.64721 0.62605 0.50035 0.0
O888 O 0.54879 0.64685 0.52785 0.0
O889 O 0.64755 0.73292 0.51727 0.0
O890 O 0.59738 0.43829 0.498 0.0
O891 O 0.64431 0.56976 0.51652 0.0
O892 O 0.59966 0.52966 0.5534 0.0
O893 O 0.51126 0.42942 0.53852 0.0
O894 O 0.64219 0.48057 0.52101 0.0
O895 O 0.51833 0.36474 0.51739 0.0
C896 C 0.49941 0.58295 0.52605 0.0
C897 C 0.58749 0.80533 0.5286 0.0
C898 C 0.62395 0.93632 0.53293 0.0
C899 C 0.62349 0.87909 0.52206 0.0
C900 C 0.59852 0.91883 0.55081 0.0
C901 C 0.54248 0.79652 0.54312 0.0
C902 C 0.55569 0.85002 0.55549 0.0
C903 C 0.59791 0.59096 0.48631 0.0
C904 C 0.59893 0.7378 0.52637 0.0
C905 C 0.8733 0.9269 0.56185 0.0
C906 C 0.92394 0.92733 0.54834 0.0
C907 C 0.68352 0.54594 0.51912 0.0
C908 C 0.5877 0.32962 0.499 0.0
C909 C 0.60285 0.29275 0.51182 0.0
C910 C 0.63357 0.25551 0.50586 0.0
C911 C 0.64666 0.25337 0.4869 0.0
C912 C 0.60815 0.33353 0.4805 0.0
C913 C 0.63616 0.2939 0.47442 0.0
C914 C 0.55411 0.45606 0.55172 0.0
C915 C 0.56866 0.37812 0.50575 0.0
H916 H 0.64828 0.89326 0.5089 0.0
H917 H 0.60055 0.95805 0.56013 0.0
H918 H 0.51229 0.74667 0.54843 0.0
H919 H 0.52913 0.83743 0.56866 0.0
H920 H 0.59496 0.29659 0.52642 0.0
H921 H 0.66757 0.22296 0.48145 0.0
H922 H 0.6064 0.36989 0.47097 0.0
H923 H 0.6526 0.29644 0.46029 0.0
Eu924 Eu 0.55418 0.08546 0.5351 0.0
C925 C 0.83442 0.12411 0.49017 0.0
C926 C 0.88069 0.06968 0.50971 0.0
C927 C 0.94422 0.13067 0.48245 0.0
C928 C 0.83088 0.08978 0.50608 0.0
C929 C 0.89494 0.15147 0.47934 0.0
C930 C 0.93548 0.08713 0.49731 0.0
C931 C 0.85184 0.21481 0.46264 0.0
N932 N 0.78345 0.1392 0.48661 0.0
C933 C 0.78885 0.17844 0.4717 0.0
C934 C 0.9061 0.2031 0.46675 0.0
Eu935 Eu 0.72784 0.14893 0.51278 0.0
N936 N 0.78271 0.08193 0.51873 0.0
C937 C 0.77839 0.04899 0.53491 0.0
C938 C 0.87666 0.03673 0.52621 0.0
C939 C 0.82503 0.02605 0.53882 0.0
H940 H 0.74839 0.19034 0.46862 0.0
H941 H 0.82217 1.00155 0.55174 0.0
H942 H 0.97456 0.07257 0.50001 0.0
H943 H 0.85753 0.25104 0.45235 0.0
H944 H 0.74185 0.0444 0.54532 0.0
H945 H 0.40417 0.19603 0.48875 0.0
H946 H 0.91409 1.02085 0.52934 0.0
H947 H 0.58844 0.12458 0.5888 0.0
H948 H 0.48765 0.13721 0.4938 0.0
H949 H 0.40438 0.95494 0.6081 0.0
H950 H 0.98977 0.14921 0.47382 0.0
H951 H 0.31574 0.19617 0.51578 0.0
H952 H 0.30392 0.13459 0.54738 0.0
H953 H 0.9548 0.23146 0.45943 0.0
H954 H 0.30995 0.03683 0.56936 0.0
N955 N 0.44668 0.09351 0.52405 0.0
C956 C 0.45022 0.13033 0.50421 0.0
C957 C 0.34979 0.17667 0.5193 0.0
C958 C 0.33792 0.13762 0.54137 0.0
C959 C 0.40207 0.17242 0.50181 0.0
C960 C 0.38543 0.10044 0.54657 0.0
H961 H 0.29208 0.94912 0.59414 0.0
N962 N 0.5128 0.15232 0.57279 0.0
C963 C 0.41277 0.99914 0.59958 0.0
C964 C 0.41634 0.12505 0.5667 0.0
C965 C 0.53436 0.11149 0.58751 0.0
C966 C 0.34141 0.99251 0.5903 0.0
C967 C 0.34071 0.04877 0.57361 0.0
O968 O 0.50381 0.97161 0.54066 0.0
O969 O 0.64819 0.0643 0.53127 0.0
O970 O 0.66166 0.08191 0.4905 0.0
O971 O 0.57411 0.10402 0.50035 0.0
O972 O 0.55332 0.98482 0.52781 0.0
O973 O 0.46725 0.99744 0.51728 0.0
O974 O 0.7619 0.2419 0.498 0.0
O975 O 0.63042 0.15738 0.51652 0.0
O976 O 0.6705 0.15284 0.55339 0.0
O977 O 0.77072 0.1646 0.53852 0.0
O978 O 0.71961 0.24444 0.52101 0.0
O979 O 0.83542 0.23639 0.5174 0.0
C980 C 0.61722 0.99932 0.52604 0.0
C981 C 0.39487 0.865 0.52863 0.0
C982 C 0.26393 0.77048 0.53297 0.0
C983 C 0.32112 0.82726 0.5221 0.0
C984 C 0.28138 0.76252 0.55085 0.0
C985 C 0.40368 0.82881 0.54316 0.0
C986 C 0.35018 0.7885 0.55553 0.0
C987 C 0.60921 0.08982 0.48631 0.0
C988 C 0.4624 0.94396 0.52639 0.0
C989 C 0.27327 0.02923 0.56184 0.0
C990 C 0.27282 0.07942 0.54833 0.0
C991 C 0.65423 0.22041 0.51912 0.0
C992 C 0.87054 0.34088 0.49899 0.0
C993 C 0.90739 0.39289 0.51181 0.0
C994 C 0.94461 0.46085 0.50585 0.0
C995 C 0.94675 0.47609 0.4869 0.0
C996 C 0.86664 0.35743 0.48049 0.0
C997 C 0.90625 0.42507 0.47442 0.0
C998 C 0.74408 0.18085 0.55172 0.0
C999 C 0.82205 0.27334 0.50575 0.0
H1000 H 0.30695 0.83789 0.50894 0.0
H1001 H 0.24215 0.7253 0.56016 0.0
H1002 H 0.45352 0.84848 0.54847 0.0
H1003 H 0.36278 0.77448 0.5687 0.0
H1004 H 0.90355 0.38115 0.52642 0.0
H1005 H 0.97714 0.52742 0.48145 0.0
H1006 H 0.8303 0.31933 0.47096 0.0
H1007 H 0.90371 0.43896 0.46029 0.0
Eu1008 Eu 0.20508 0.48233 0.34611 0.0
C1009 C 0.49269 0.45836 0.40004 0.0
C1010 C 0.58365 0.47082 0.3747 0.0
C1011 C 0.53987 0.36245 0.39518 0.0
C1012 C 0.49896 0.43368 0.3799 0.0
C1013 C 0.49207 0.38209 0.40696 0.0
C1014 C 0.59036 0.41248 0.38162 0.0
C1015 C 0.37039 0.33247 0.43291 0.0
N1016 N 0.42344 0.48562 0.40611 0.0
C1017 C 0.36115 0.44481 0.42085 0.0
C1018 C 0.43511 0.32582 0.42364 0.0
Eu1019 Eu 0.31529 0.4189 0.36842 0.0
N1020 N 0.43078 0.42684 0.35737 0.0
C1021 C 0.46411 0.46363 0.33753 0.0
C1022 C 0.61083 0.50979 0.35264 0.0
C1023 C 0.55435 0.50563 0.33514 0.0
H1024 H 0.32007 0.45781 0.42212 0.0
H1025 H 0.5759 0.52926 0.32208 0.0
H1026 H 0.61445 0.46775 0.38083 0.0
H1027 H 0.33457 0.28823 0.44142 0.0
H1028 H 0.4336 0.47058 0.32712 0.0
H1029 H 0.96345 0.33506 0.38508 0.0
H1030 H 0.6644 0.52936 0.34913 0.0
H1031 H 0.22598 0.52371 0.30197 0.0
H1032 H 0.0866 0.37784 0.37865 0.0
H1033 H 0.17751 0.58438 0.28567 0.0
H1034 H 0.51083 0.37011 0.4027 0.0
H1035 H 0.89085 0.35437 0.36266 0.0
H1036 H 0.88207 0.40604 0.33333 0.0
H1037 H 0.44103 0.28241 0.42748 0.0
H1038 H 0.94349 0.48266 0.30715 0.0
N1039 N 0.08325 0.41537 0.35207 0.0
C1040 C 0.05464 0.38243 0.36825 0.0
C1041 C 0.94413 0.3702 0.35954 0.0
C1042 C 0.97304 0.40311 0.34303 0.0
C1043 C 0.98507 0.35951 0.37215 0.0
C1044 C 0.04293 0.42319 0.33941 0.0
H1045 H 0.0607 0.56487 0.29275 0.0
N1046 N 0.13974 0.47253 0.31992 0.0
C1047 C 0.14699 0.54818 0.29596 0.0
C1048 C 0.0737 0.45748 0.3235 0.0
C1049 C 0.17362 0.51182 0.30503 0.0
C1050 C 0.08103 0.53649 0.30007 0.0
C1051 C 0.04056 0.48487 0.31266 0.0
O1052 O 0.26398 0.57532 0.33134 0.0
O1053 O 0.31104 0.4909 0.34986 0.0
O1054 O 0.26636 0.48628 0.38673 0.0
O1055 O 0.1779 0.49806 0.37185 0.0
O1056 O 0.30876 0.57784 0.35431 0.0
O1057 O 0.18486 0.56976 0.35072 0.0
O1058 O 0.25177 0.30503 0.37393 0.0
O1059 O 0.20018 0.39769 0.36459 0.0
O1060 O 0.20431 0.41535 0.32383 0.0
O1061 O 0.31398 0.43754 0.33368 0.0
O1062 O 0.21542 0.31833 0.36114 0.0
O1063 O 0.3143 0.33095 0.35059 0.0
C1064 C 0.35024 0.55395 0.35245 0.0
C1065 C 0.25424 0.67427 0.33232 0.0
C1066 C 0.30033 0.79428 0.33918 0.0
C1067 C 0.26946 0.72631 0.34514 0.0
C1068 C 0.31344 0.8095 0.32023 0.0
C1069 C 0.27471 0.6908 0.31382 0.0
C1070 C 0.30283 0.75844 0.30774 0.0
C1071 C 0.22079 0.5143 0.38505 0.0
C1072 C 0.23521 0.60673 0.33908 0.0
C1073 C 0.97049 0.4641 0.31577 0.0
C1074 C 0.9357 0.42058 0.33063 0.0
C1075 C 0.16595 0.33275 0.35932 0.0
C1076 C 0.2542 0.19846 0.36191 0.0
C1077 C 0.29017 0.16066 0.35537 0.0
C1078 C 0.2906 0.10384 0.36623 0.0
C1079 C 0.26514 0.09587 0.38411 0.0
C1080 C 0.2092 0.16228 0.37644 0.0
C1081 C 0.22236 0.12191 0.38879 0.0
C1082 C 0.26469 0.42332 0.31963 0.0
C1083 C 0.26563 0.27743 0.35967 0.0
H1084 H 0.26153 0.71457 0.35975 0.0
H1085 H 0.33441 0.86082 0.31477 0.0
H1086 H 0.27293 0.65267 0.3043 0.0
H1087 H 0.31926 0.77231 0.29361 0.0
H1088 H 0.31494 0.17125 0.34221 0.0
H1089 H 0.26715 0.05866 0.39342 0.0
H1090 H 0.17906 0.18198 0.38175 0.0
H1091 H 0.19581 0.10796 0.40197 0.0
Eu1092 Eu 0.71794 0.8057 0.3461 0.0
C1093 C 0.74186 0.11726 0.40005 0.0
C1094 C 0.72947 0.19584 0.37471 0.0
C1095 C 0.83781 0.26032 0.39521 0.0
C1096 C 0.76658 0.14824 0.37991 0.0
C1097 C 0.81814 0.19286 0.40698 0.0
C1098 C 0.78782 0.26085 0.38164 0.0
C1099 C 0.86769 0.12069 0.43292 0.0
N1100 N 0.71457 1.02073 0.40611 0.0
C1101 C 0.75534 0.99918 0.42084 0.0
C1102 C 0.87437 0.19209 0.42366 0.0
Eu1103 Eu 0.78133 0.97934 0.36841 0.0
N1104 N 0.77342 0.08693 0.35738 0.0
C1105 C 0.73666 0.08353 0.33753 0.0
C1106 C 0.69054 0.18413 0.35265 0.0
C1107 C 0.6947 0.13182 0.33514 0.0
H1108 H 0.74232 0.9451 0.42211 0.0
H1109 H 0.67109 0.12978 0.32209 0.0
H1110 H 0.73256 0.22973 0.38084 0.0
H1111 H 0.91191 0.12907 0.44143 0.0
H1112 H 0.72971 0.04608 0.32712 0.0
H1113 H 0.8652 0.71128 0.38506 0.0
H1114 H 0.671 0.21816 0.34914 0.0
H1115 H 0.67654 0.78525 0.30196 0.0
H1116 H 0.82252 0.79173 0.37862 0.0
H1117 H 0.61583 0.67612 0.28567 0.0
H1118 H 0.83013 0.22362 0.40272 0.0
H1119 H 0.84582 0.61931 0.36266 0.0
H1120 H 0.79414 0.55889 0.33333 0.0
H1121 H 0.91778 0.2414 0.42751 0.0
H1122 H 0.71751 0.54373 0.30715 0.0
N1123 N 0.78493 0.75082 0.35205 0.0
C1124 C 0.81789 0.75516 0.36823 0.0
C1125 C 0.83002 0.6568 0.35953 0.0
C1126 C 0.79711 0.6528 0.34302 0.0
C1127 C 0.84075 0.70845 0.37214 0.0
C1128 C 0.77706 0.70265 0.3394 0.0
H1129 H 0.63532 0.57879 0.29275 0.0
N1130 N 0.72771 0.75015 0.31992 0.0
C1131 C 0.65204 0.68178 0.29596 0.0
C1132 C 0.74274 0.69914 0.32349 0.0
C1133 C 0.68841 0.74477 0.30502 0.0
C1134 C 0.66371 0.62749 0.30007 0.0
C1135 C 0.71532 0.63861 0.31266 0.0
O1136 O 0.62494 0.7716 0.33135 0.0
O1137 O 0.70935 0.90309 0.34985 0.0
O1138 O 0.71395 0.86304 0.38672 0.0
O1139 O 0.70232 0.76284 0.37186 0.0
O1140 O 0.62243 0.81388 0.3543 0.0
O1141 O 0.63052 0.69807 0.35073 0.0
O1142 O 0.8952 0.02967 0.37391 0.0
O1143 O 0.80256 0.88546 0.36458 0.0
O1144 O 0.78489 0.87192 0.32382 0.0
O1145 O 0.76269 0.95941 0.33368 0.0
O1146 O 0.88189 0.98004 0.36111 0.0
O1147 O 0.86926 0.06632 0.35058 0.0
C1148 C 0.64631 0.87925 0.35244 0.0
C1149 C 0.52601 0.66295 0.33233 0.0
C1150 C 0.406 0.58902 0.33919 0.0
C1151 C 0.47397 0.62613 0.34515 0.0
C1152 C 0.39078 0.58691 0.32023 0.0
C1153 C 0.50948 0.66688 0.31383 0.0
C1154 C 0.44184 0.62735 0.30775 0.0
C1155 C 0.686 0.78946 0.38504 0.0
C1156 C 0.59354 0.71144 0.33909 0.0
C1157 C 0.73608 0.58928 0.31577 0.0
C1158 C 0.77961 0.598 0.33062 0.0
C1159 C 0.8675 0.91616 0.35931 0.0
C1160 C 1.00174 0.13869 0.3619 0.0
C1161 C 0.03953 0.21246 0.35538 0.0
C1162 C 0.09636 0.26962 0.36625 0.0
C1163 C 0.10433 0.25212 0.38413 0.0
C1164 C 0.03793 0.12982 0.37643 0.0
C1165 C 0.07829 0.18329 0.38879 0.0
C1166 C 0.77691 0.92433 0.31963 0.0
C1167 C 0.92278 0.07115 0.35966 0.0
H1168 H 0.48569 0.62993 0.35976 0.0
H1169 H 0.33946 0.55656 0.31478 0.0
H1170 H 0.54759 0.70323 0.3043 0.0
H1171 H 0.42798 0.62991 0.29362 0.0
H1172 H 1.02894 0.2267 0.34222 0.0
H1173 H 0.14155 0.29132 0.39344 0.0
H1174 H 1.01824 0.07996 0.38172 0.0
H1175 H 0.09226 0.17064 0.40196 0.0
Eu1176 Eu 0.3945 0.99512 0.34611 0.0
C1177 C 0.08296 0.70753 0.40004 0.0
C1178 C 1.0045 0.61654 0.37471 0.0
C1179 C 0.93987 0.66025 0.39518 0.0
C1180 C 0.052 0.70125 0.3799 0.0
C1181 C 1.00729 0.70812 0.40695 0.0
C1182 C 0.93943 0.60973 0.38163 0.0
C1183 C 0.07929 0.8298 0.43291 0.0
N1184 N 0.17944 0.77681 0.40612 0.0
C1185 C 0.20089 0.8391 0.42085 0.0
C1186 C 1.00795 0.76507 0.42364 0.0
Eu1187 Eu 0.22086 0.88495 0.36842 0.0
N1188 N 0.11331 0.76943 0.35737 0.0
C1189 C 0.11679 0.73609 0.33753 0.0
C1190 C 1.01629 0.58935 0.35265 0.0
C1191 C 0.06859 0.64584 0.33515 0.0
H1192 H 0.25495 0.88019 0.42213 0.0
H1193 H 0.07068 0.62428 0.32209 0.0
H1194 H 0.97068 0.58571 0.38085 0.0
H1195 H 0.07085 0.86562 0.44142 0.0
H1196 H 0.15424 0.7666 0.32712 0.0
H1197 H 0.48881 0.23676 0.38507 0.0
H1198 H 0.98233 0.53578 0.34915 0.0
H1199 H 0.41498 0.97422 0.30196 0.0
H1200 H 0.40849 0.11361 0.37865 0.0
H1201 H 0.52411 1.02266 0.28567 0.0
H1202 H 0.97654 0.68933 0.40269 0.0
H1203 H 0.58074 0.30936 0.36266 0.0
H1204 H 0.64122 0.31811 0.33334 0.0
H1205 H 0.95861 0.75913 0.42747 0.0
H1206 H 0.65642 0.25667 0.30716 0.0
N1207 N 0.44936 0.11695 0.35206 0.0
C1208 C 0.44503 0.14557 0.36824 0.0
C1209 C 0.5433 0.25607 0.35953 0.0
C1210 C 0.54732 0.22715 0.34303 0.0
C1211 C 0.49167 0.21514 0.37215 0.0
C1212 C 0.49751 0.15726 0.33941 0.0
H1213 H 0.6214 0.13945 0.29276 0.0
N1214 N 0.45004 0.06045 0.31992 0.0
C1215 C 0.51843 0.05318 0.29596 0.0
C1216 C 0.50103 0.12648 0.3235 0.0
C1217 C 0.45544 0.02656 0.30502 0.0
C1218 C 0.5727 0.11914 0.30008 0.0
C1219 C 0.56156 0.15961 0.31267 0.0
O1220 O 0.42862 0.93625 0.33134 0.0
O1221 O 0.29708 0.88918 0.34985 0.0
O1222 O 0.33717 0.93388 0.38673 0.0
O1223 O 0.43742 1.0223 0.37185 0.0
O1224 O 0.38638 0.89142 0.35432 0.0
O1225 O 0.50214 1.01534 0.35073 0.0
O1226 O 0.17055 0.9485 0.37397 0.0
O1227 O 0.31481 1.00005 0.3646 0.0
O1228 O 0.3283 0.99591 0.32383 0.0
O1229 O 0.24081 0.88625 0.33368 0.0
O1230 O 0.22008 0.98475 0.36104 0.0
O1231 O 0.13392 0.88607 0.35061 0.0
C1232 C 0.32101 0.85005 0.35244 0.0
C1233 C 0.5373 0.946 0.33231 0.0
C1234 C 0.61124 0.89994 0.33917 0.0
C1235 C 0.57416 0.93083 0.34513 0.0
C1236 C 0.61333 0.8868 0.32022 0.0
C1237 C 0.53332 0.92549 0.31382 0.0
C1238 C 0.57286 0.89738 0.30774 0.0
C1239 C 0.41075 0.97943 0.38505 0.0
C1240 C 0.48879 0.96502 0.33908 0.0
C1241 C 0.61086 0.22967 0.31578 0.0
C1242 C 0.60213 0.26447 0.33063 0.0
C1243 C 0.28399 0.03417 0.35932 0.0
C1244 C 0.06159 0.94617 0.36196 0.0
C1245 C 0.98787 0.9102 0.35541 0.0
C1246 C 0.93063 0.90976 0.36626 0.0
C1247 C 0.94799 0.93513 0.38415 0.0
C1248 C 0.07034 0.9911 0.37651 0.0
C1249 C 1.01678 0.9779 0.38885 0.0
C1250 C 0.2759 0.93555 0.31964 0.0
C1251 C 0.12911 0.93472 0.35971 0.0
H1252 H 0.57039 0.9388 0.35974 0.0
H1253 H 0.64369 0.86582 0.31477 0.0
H1254 H 0.49695 0.92723 0.3043 0.0
H1255 H 0.57027 0.88091 0.29361 0.0
H1256 H 0.97374 0.88545 0.34224 0.0
H1257 H 0.90872 0.93309 0.39344 0.0
H1258 H 0.12015 1.02118 0.38185 0.0
H1259 H 1.02931 1.00444 0.40203 0.0
Eu1260 Eu 0.82702 0.86024 0.77211 0.0
C1261 C 0.8031 0.14788 0.71817 0.0
C1262 C 0.81551 0.23886 0.7435 0.0
C1263 C 0.70715 0.19501 0.72301 0.0
C1264 C 0.7784 0.15416 0.7383 0.0
C1265 C 0.72681 0.14722 0.71124 0.0
C1266 C 0.75716 0.24552 0.73658 0.0
C1267 C 0.67723 0.02549 0.6853 0.0
N1268 N 0.83037 0.07863 0.71211 0.0
C1269 C 0.78959 1.01631 0.69738 0.0
C1270 C 0.67056 0.09022 0.69456 0.0
Eu1271 Eu 0.76365 0.97051 0.7498 0.0
N1272 N 0.77156 0.086 0.76084 0.0
C1273 C 0.80833 0.11935 0.78068 0.0
C1274 C 0.85446 0.26607 0.76556 0.0
C1275 C 0.8503 0.2096 0.78307 0.0
H1276 H 0.80261 0.97524 0.69611 0.0
H1277 H 0.87393 0.23117 0.79613 0.0
H1278 H 0.81242 0.26965 0.73737 0.0
H1279 H 0.63301 0.98966 0.67679 0.0
H1280 H 0.81529 0.08886 0.7911 0.0
H1281 H 0.67977 0.61857 0.73315 0.0
H1282 H 0.87401 0.31963 0.76906 0.0
H1283 H 0.86842 0.88118 0.81625 0.0
H1284 H 0.72247 0.74171 0.73958 0.0
H1285 H 0.92912 0.83276 0.83254 0.0
H1286 H 0.71482 0.16598 0.7155 0.0
H1287 H 0.69911 0.54597 0.75557 0.0
H1288 H 0.75083 0.53725 0.7849 0.0
H1289 H 0.62715 0.09613 0.69072 0.0
H1290 H 0.82745 0.5987 0.81108 0.0
N1291 N 0.76005 0.73839 0.76616 0.0
C1292 C 0.72709 0.70976 0.74998 0.0
C1293 C 0.71492 0.59926 0.75869 0.0
C1294 C 0.74785 0.62819 0.7752 0.0
C1295 C 0.70421 0.64019 0.74608 0.0
C1296 C 0.7679 0.69808 0.77882 0.0
H1297 H 0.90964 0.71595 0.82546 0.0
N1298 N 0.81725 0.79492 0.7983 0.0
C1299 C 0.89292 0.80222 0.82226 0.0
C1300 C 0.80221 0.72888 0.79472 0.0
C1301 C 0.85654 0.82883 0.81319 0.0
C1302 C 0.88125 0.73626 0.81814 0.0
C1303 C 0.82963 0.69577 0.80556 0.0
O1304 O 0.92003 0.91912 0.78686 0.0
O1305 O 0.83562 0.96622 0.76836 0.0
O1306 O 0.83104 0.92159 0.7315 0.0
O1307 O 0.84264 0.83301 0.74636 0.0
O1308 O 0.92254 0.96392 0.76391 0.0
O1309 O 0.91445 0.84002 0.76748 0.0
O1310 O 0.64977 0.90701 0.74433 0.0
O1311 O 0.74241 0.85538 0.75363 0.0
O1312 O 0.76009 0.85953 0.7944 0.0
O1313 O 0.7823 0.96922 0.78454 0.0
O1314 O 0.66307 0.87063 0.75707 0.0
O1315 O 0.67577 0.96962 0.76765 0.0
C1316 C 0.89867 1.00542 0.76578 0.0
C1317 C 1.01898 0.90941 0.78588 0.0
C1318 C 0.13899 0.95553 0.77903 0.0
C1319 C 0.07103 0.92466 0.77306 0.0
C1320 C 0.15419 0.96861 0.79798 0.0
C1321 C 0.03549 0.92987 0.80438 0.0
C1322 C 0.10312 0.95798 0.81046 0.0
C1323 C 0.859 0.87596 0.73317 0.0
C1324 C 0.95144 0.89037 0.77912 0.0
C1325 C 0.80888 0.62569 0.80245 0.0
C1326 C 0.76535 0.59088 0.7876 0.0
C1327 C 0.67746 0.82115 0.75889 0.0
C1328 C 0.54325 0.9095 0.75635 0.0
C1329 C 0.50545 0.9455 0.76286 0.0
C1330 C 0.44861 0.94584 0.75199 0.0
C1331 C 0.44066 0.92029 0.73412 0.0
C1332 C 0.50704 0.86439 0.74184 0.0
C1333 C 0.46669 0.87747 0.72947 0.0
C1334 C 0.76806 0.91992 0.79859 0.0
C1335 C 0.62222 0.92092 0.75859 0.0
H1336 H 0.05932 0.91675 0.75845 0.0
H1337 H 0.20551 0.98958 0.80344 0.0
H1338 H 0.99737 0.92809 0.8139 0.0
H1339 H 0.11697 0.9744 0.82459 0.0
H1340 H 0.51603 0.97034 0.77601 0.0
H1341 H 0.40344 0.92224 0.72479 0.0
H1342 H 0.52668 0.83412 0.73658 0.0
H1343 H 0.45273 0.85083 0.71631 0.0
Eu1344 Eu 0.33985 0.04971 0.77211 0.0
C1345 C 0.05228 0.73815 0.71818 0.0
C1346 C 0.96129 0.6597 0.74352 0.0
C1347 C 1.00501 0.59506 0.72304 0.0
C1348 C 0.046 0.7072 0.73832 0.0
C1349 C 0.05287 0.66248 0.71127 0.0
C1350 C 0.9545 0.59463 0.73659 0.0
C1351 C 0.17455 0.73448 0.68532 0.0
N1352 N 0.12156 0.83464 0.71211 0.0
C1353 C 0.18384 0.85609 0.69737 0.0
C1354 C 0.10982 0.66314 0.69459 0.0
Eu1355 Eu 0.22969 0.87605 0.7498 0.0
N1356 N 0.11417 0.76851 0.76085 0.0
C1357 C 0.08084 0.772 0.78069 0.0
C1358 C 0.93411 0.67149 0.76558 0.0
C1359 C 0.99059 0.72379 0.78308 0.0
H1360 H 0.22494 0.91015 0.6961 0.0
H1361 H 0.96904 0.72589 0.79613 0.0
H1362 H 0.93047 0.62587 0.73737 0.0
H1363 H 0.21037 0.72603 0.67681 0.0
H1364 H 0.11134 0.80945 0.7911 0.0
H1365 H 0.58148 0.14405 0.73314 0.0
H1366 H 0.88054 0.63753 0.76908 0.0
H1367 H 0.31896 0.0702 0.81625 0.0
H1368 H 0.45833 0.06372 0.73956 0.0
H1369 H 0.36741 0.17933 0.83254 0.0
H1370 H 1.03408 0.63173 0.71553 0.0
H1371 H 0.65408 0.23595 0.75555 0.0
H1372 H 0.66284 0.29641 0.78488 0.0
H1373 H 0.10387 0.61379 0.69075 0.0
H1374 H 0.60142 0.31161 0.81107 0.0
N1375 N 0.46168 0.10458 0.76615 0.0
C1376 C 0.49029 0.10025 0.74997 0.0
C1377 C 0.6008 0.19851 0.75868 0.0
C1378 C 0.57188 0.20253 0.77518 0.0
C1379 C 0.55986 0.14689 0.74606 0.0
C1380 C 0.50199 0.15272 0.7788 0.0
H1381 H 0.48422 0.27661 0.82546 0.0
N1382 N 0.40519 0.10525 0.79829 0.0
C1383 C 0.39793 0.17364 0.82226 0.0
C1384 C 0.47122 0.15623 0.79472 0.0
C1385 C 0.3713 0.11066 0.81319 0.0
C1386 C 0.46389 0.22791 0.81814 0.0
C1387 C 0.50435 0.21676 0.80555 0.0
O1388 O 0.28097 0.08382 0.78688 0.0
O1389 O 0.23391 0.95228 0.76837 0.0
O1390 O 0.27862 0.99236 0.73149 0.0
O1391 O 0.36702 0.09261 0.74636 0.0
O1392 O 0.23616 0.04158 0.76389 0.0
O1393 O 0.36005 0.15734 0.76749 0.0
O1394 O 0.29321 0.8257 0.74427 0.0
O1395 O 0.34479 0.97001 0.75362 0.0
O1396 O 0.34064 0.98351 0.79439 0.0
O1397 O 0.23098 0.89602 0.78454 0.0
O1398 O 0.3295 0.87528 0.75715 0.0
O1399 O 0.23075 0.78911 0.76763 0.0
C1400 C 0.19478 0.97621 0.76577 0.0
C1401 C 0.2907 0.19249 0.78589 0.0
C1402 C 0.24465 0.26645 0.77903 0.0
C1403 C 0.2755 0.22933 0.77307 0.0
C1404 C 0.23154 0.26857 0.79798 0.0
C1405 C 0.27022 0.18855 0.80439 0.0
C1406 C 0.24213 0.2281 0.81047 0.0
C1407 C 0.32416 0.06596 0.73316 0.0
C1408 C 0.30972 0.14399 0.77913 0.0
C1409 C 0.57442 0.26605 0.80244 0.0
C1410 C 0.60921 0.25732 0.78758 0.0
C1411 C 0.37891 0.93919 0.75889 0.0
C1412 C 0.29082 0.71672 0.75629 0.0
C1413 C 0.25485 0.64298 0.76285 0.0
C1414 C 0.25436 0.5857 0.75199 0.0
C1415 C 0.27978 0.60313 0.73411 0.0
C1416 C 0.33578 0.72548 0.74176 0.0
C1417 C 0.32256 0.67192 0.72941 0.0
C1418 C 0.28028 0.93111 0.79858 0.0
C1419 C 0.2794 0.78426 0.75853 0.0
H1420 H 0.28344 0.22553 0.75847 0.0
H1421 H 0.21058 0.29894 0.80344 0.0
H1422 H 0.27199 0.1522 0.81392 0.0
H1423 H 0.22568 0.22554 0.8246 0.0
H1424 H 0.2301 0.62884 0.77601 0.0
H1425 H 0.27772 0.56387 0.7248 0.0
H1426 H 0.36589 0.7753 0.73642 0.0
H1427 H 0.34905 0.68447 0.71623 0.0
Eu1428 Eu 0.15044 0.37309 0.7721 0.0
C1429 C 0.46198 0.39703 0.71817 0.0
C1430 C 0.54047 0.38454 0.74351 0.0
C1431 C 0.60506 0.49288 0.72303 0.0
C1432 C 0.49294 0.42172 0.73831 0.0
C1433 C 0.53763 0.47327 0.71125 0.0
C1434 C 0.60551 0.44284 0.73659 0.0
C1435 C 0.4656 0.52291 0.68529 0.0
N1436 N 0.36549 0.36981 0.7121 0.0
C1437 C 0.34402 0.41062 0.69736 0.0
C1438 C 0.53695 0.52953 0.69456 0.0
Eu1439 Eu 0.32409 0.43659 0.74979 0.0
N1440 N 0.43163 0.42861 0.76084 0.0
C1441 C 0.42816 0.39182 0.78068 0.0
C1442 C 0.52869 0.34559 0.76558 0.0
C1443 C 0.47639 0.34978 0.78308 0.0
H1444 H 0.28995 0.39765 0.69608 0.0
H1445 H 0.47431 0.32616 0.79614 0.0
H1446 H 0.57433 0.38757 0.73738 0.0
H1447 H 0.47402 0.56715 0.67678 0.0
H1448 H 0.39072 0.38489 0.79109 0.0
H1449 H 0.0561 0.52042 0.73314 0.0
H1450 H 0.56268 0.326 0.76908 0.0
H1451 H 0.12995 0.33169 0.81625 0.0
H1452 H 0.13646 0.47762 0.73957 0.0
H1453 H 1.02084 0.27105 0.83255 0.0
H1454 H 0.56838 0.48525 0.71552 0.0
H1455 H 0.96415 0.50108 0.75554 0.0
H1456 H 0.9037 0.44939 0.78487 0.0
H1457 H 0.58628 0.57293 0.69072 0.0
H1458 H 0.88852 0.37277 0.81106 0.0
N1459 N 0.09557 0.44007 0.76615 0.0
C1460 C 0.0999 0.47303 0.74997 0.0
C1461 C 1.00161 0.48524 0.75867 0.0
C1462 C 0.99759 0.45231 0.77518 0.0
C1463 C 0.05325 0.49595 0.74606 0.0
C1464 C 0.04741 0.43222 0.7788 0.0
H1465 H 0.92355 0.29057 0.82546 0.0
N1466 N 0.09488 0.38286 0.79829 0.0
C1467 C 1.02652 0.30725 0.82226 0.0
C1468 C 0.04389 0.39791 0.79471 0.0
C1469 C 0.08949 0.34358 0.81319 0.0
C1470 C 0.97224 0.31893 0.81814 0.0
C1471 C 0.98337 0.37053 0.80554 0.0
O1472 O 0.11633 0.2801 0.78687 0.0
O1473 O 0.24789 0.3646 0.76836 0.0
O1474 O 0.20778 0.36921 0.73149 0.0
O1475 O 0.10754 0.35741 0.74635 0.0
O1476 O 0.1586 0.27755 0.76389 0.0
O1477 O 0.04281 0.28566 0.76748 0.0
O1478 O 0.37436 0.55043 0.74422 0.0
O1479 O 0.23013 0.45773 0.75361 0.0
O1480 O 0.21662 0.44007 0.79438 0.0
O1481 O 0.30416 0.41794 0.78453 0.0
O1482 O 0.32485 0.53712 0.75722 0.0
O1483 O 0.41103 0.52469 0.76759 0.0
C1484 C 0.22397 0.30154 0.76577 0.0
C1485 C 1.00767 0.18117 0.78589 0.0
C1486 C 0.93375 0.06117 0.77904 0.0
C1487 C 0.97083 0.12914 0.77308 0.0
C1488 C 0.93165 0.04594 0.79799 0.0
C1489 C 1.01162 0.16464 0.80439 0.0
C1490 C 0.97209 0.097 0.81047 0.0
C1491 C 0.13419 0.34117 0.73316 0.0
C1492 C 0.05617 0.24869 0.77913 0.0
C1493 C 0.93407 0.39131 0.80244 0.0
C1494 C 0.94279 0.43484 0.78758 0.0
C1495 C 0.26093 0.52263 0.75891 0.0
C1496 C 0.48336 0.65709 0.75622 0.0
C1497 C 0.55706 0.69483 0.76278 0.0
C1498 C 0.61434 0.75162 0.75193 0.0
C1499 C 0.59701 0.75965 0.73404 0.0
C1500 C 0.47464 0.69325 0.74166 0.0
C1501 C 0.52824 0.73364 0.72933 0.0
C1502 C 0.26906 0.43214 0.79858 0.0
C1503 C 0.41583 0.57813 0.75847 0.0
H1504 H 0.97461 0.14087 0.75847 0.0
H1505 H 0.90131 0.99461 0.80344 0.0
H1506 H 0.04796 0.20276 0.81392 0.0
H1507 H 0.97466 0.08313 0.8246 0.0
H1508 H 0.57115 0.68422 0.77596 0.0
H1509 H 0.63631 0.79689 0.72475 0.0
H1510 H 0.42486 0.67351 0.7363 0.0
H1511 H 0.51574 0.74768 0.71615 0.0
Eu1512 Eu 0.2297 0.43657 0.24979 0.0
C1513 C 0.47127 0.39791 0.29472 0.0
C1514 C 0.57199 0.45236 0.2752 0.0
C1515 C 0.57448 0.3913 0.30245 0.0
C1516 C 0.50208 0.43226 0.27881 0.0
C1517 C 0.5044 0.37051 0.30555 0.0
C1518 C 0.6093 0.43486 0.2876 0.0
C1519 C 0.39798 0.30721 0.32225 0.0
N1520 N 0.40522 0.38283 0.29828 0.0
C1521 C 0.37136 0.34359 0.31318 0.0
C1522 C 0.46393 0.31888 0.31814 0.0
Eu1523 Eu 0.33994 0.37316 0.2721 0.0
N1524 N 0.46178 0.44014 0.26616 0.0
C1525 C 0.49042 0.4731 0.24999 0.0
C1526 C 0.60094 0.48537 0.25871 0.0
C1527 C 0.56001 0.49606 0.24609 0.0
H1528 H 0.31902 0.3317 0.31625 0.0
H1529 H 0.58165 0.52056 0.23317 0.0
H1530 H 0.66294 0.44941 0.2849 0.0
H1531 H 0.36745 0.27102 0.33254 0.0
H1532 H 0.45849 0.4777 0.23958 0.0
H1533 H 0.96918 0.32613 0.29613 0.0
H1534 H 0.65425 0.50127 0.25559 0.0
H1535 H 0.22485 0.39743 0.19609 0.0
H1536 H 0.11145 0.38488 0.29108 0.0
H1537 H 0.21052 0.56715 0.17678 0.0
H1538 H 0.60148 0.37273 0.31108 0.0
H1539 H 0.88064 0.32604 0.2691 0.0
H1540 H 0.93041 0.38764 0.2375 0.0
H1541 H 0.48425 0.2905 0.32546 0.0
H1542 H 1.03427 0.48538 0.21553 0.0
N1543 N 0.1142 0.42858 0.26083 0.0
C1544 C 0.08091 0.39177 0.28067 0.0
C1545 C 0.93417 0.34552 0.26558 0.0
C1546 C 0.96137 0.38456 0.2435 0.0
C1547 C 0.99069 0.34973 0.28307 0.0
C1548 C 0.04603 0.4217 0.2383 0.0
H1549 H 0.10407 0.57305 0.19074 0.0
N1550 N 0.12148 0.36975 0.21209 0.0
C1551 C 0.17471 0.52296 0.18531 0.0
C1552 C 0.05233 0.39707 0.21818 0.0
C1553 C 0.18387 0.41056 0.19738 0.0
C1554 C 0.10999 0.52964 0.19458 0.0
C1555 C 0.05299 0.47337 0.21126 0.0
O1556 O 0.29314 0.55044 0.24429 0.0
O1557 O 0.34488 0.45781 0.25362 0.0
O1558 O 0.34077 0.44018 0.29438 0.0
O1559 O 0.2311 0.41802 0.28453 0.0
O1560 O 0.32958 0.53724 0.25693 0.0
O1561 O 0.23063 0.52445 0.26764 0.0
O1562 O 0.281 0.28017 0.28687 0.0
O1563 O 0.23404 0.36464 0.26836 0.0
O1564 O 0.27861 0.36915 0.23149 0.0
O1565 O 0.36716 0.35752 0.24635 0.0
O1566 O 0.23621 0.27769 0.26388 0.0
O1567 O 0.36007 0.28569 0.26748 0.0
C1568 C 0.37902 0.52282 0.25883 0.0
C1569 C 0.29072 0.65697 0.25633 0.0
C1570 C 0.25436 0.75157 0.25196 0.0
C1571 C 0.25471 0.69475 0.26284 0.0
C1572 C 0.27987 0.75947 0.23409 0.0
C1573 C 0.33585 0.69318 0.24183 0.0
C1574 C 0.32272 0.73348 0.22945 0.0
C1575 C 0.28042 0.43225 0.29857 0.0
C1576 C 0.27928 0.57799 0.25856 0.0
C1577 C 1.00513 0.49296 0.22303 0.0
C1578 C 0.95451 0.44281 0.23655 0.0
C1579 C 0.19476 0.30162 0.26576 0.0
C1580 C 0.29068 0.18119 0.28588 0.0
C1581 C 0.27551 0.12917 0.27306 0.0
C1582 C 0.24479 0.06121 0.27902 0.0
C1583 C 0.23172 0.04599 0.29797 0.0
C1584 C 0.27023 0.16465 0.30438 0.0
C1585 C 0.24222 0.09702 0.31045 0.0
C1586 C 0.32422 0.34117 0.23317 0.0
C1587 C 0.30973 0.24873 0.27912 0.0
H1588 H 0.22986 0.68417 0.27599 0.0
H1589 H 0.27791 0.79667 0.22476 0.0
H1590 H 0.36612 0.67355 0.23657 0.0
H1591 H 0.34935 0.74742 0.21628 0.0
H1592 H 0.28339 0.14089 0.25845 0.0
H1593 H 0.21082 0.99468 0.30343 0.0
H1594 H 0.27197 0.20276 0.3139 0.0
H1595 H 0.22578 0.08313 0.32458 0.0
Eu1596 Eu 0.76369 0.87614 0.24978 0.0
C1597 C 0.80232 0.15637 0.2947 0.0
C1598 C 0.74788 0.20265 0.27518 0.0
C1599 C 0.80889 0.26619 0.30243 0.0
C1600 C 0.76798 0.15284 0.2788 0.0
C1601 C 0.82969 0.2169 0.30554 0.0
C1602 C 0.76534 0.25745 0.28758 0.0
C1603 C 0.893 0.17377 0.32224 0.0
N1604 N 0.81741 0.1054 0.29827 0.0
C1605 C 0.85665 0.11079 0.31318 0.0
C1606 C 0.8813 0.22805 0.31813 0.0
Eu1607 Eu 0.82711 0.04978 0.2721 0.0
N1608 N 0.76011 0.10465 0.26615 0.0
C1609 C 0.72715 0.10032 0.24997 0.0
C1610 C 0.71492 0.19861 0.25868 0.0
C1611 C 0.70422 0.14697 0.24606 0.0
H1612 H 0.86854 0.07033 0.31625 0.0
H1613 H 0.67973 0.14411 0.23314 0.0
H1614 H 0.75078 0.29653 0.28488 0.0
H1615 H 0.92919 0.17944 0.33253 0.0
H1616 H 0.72254 0.06376 0.23957 0.0
H1617 H 0.87408 0.72602 0.29614 0.0
H1618 H 0.69905 0.23605 0.25555 0.0
H1619 H 0.80292 0.91045 0.19608 0.0
H1620 H 0.81536 0.80958 0.29108 0.0
H1621 H 0.63324 0.72644 0.17676 0.0
H1622 H 0.82743 0.31174 0.31106 0.0
H1623 H 0.87418 0.63755 0.26912 0.0
H1624 H 0.81259 0.62572 0.23753 0.0
H1625 H 0.90967 0.27674 0.32545 0.0
H1626 H 0.71489 0.63193 0.21554 0.0
N1627 N 0.77168 0.76863 0.26083 0.0
C1628 C 0.80847 0.77215 0.28067 0.0
C1629 C 0.85473 0.67162 0.26559 0.0
C1630 C 0.8157 0.65978 0.24352 0.0
C1631 C 0.8505 0.72394 0.28308 0.0
C1632 C 0.77859 0.70734 0.23831 0.0
H1633 H 0.62731 0.61409 0.19073 0.0
N1634 N 0.83057 0.83474 0.21209 0.0
C1635 C 0.67742 0.73481 0.18529 0.0
C1636 C 0.80324 0.73826 0.21818 0.0
C1637 C 0.78979 0.85633 0.19737 0.0
C1638 C 0.67072 0.6634 0.19457 0.0
C1639 C 0.72696 0.66264 0.21126 0.0
O1640 O 0.64984 0.82578 0.24425 0.0
O1641 O 0.74247 0.97009 0.25362 0.0
O1642 O 0.76009 0.98361 0.29438 0.0
O1643 O 0.78222 0.89606 0.28452 0.0
O1644 O 0.66307 0.87536 0.257 0.0
O1645 O 0.67572 0.7892 0.26761 0.0
O1646 O 0.92009 0.08381 0.28687 0.0
O1647 O 0.83561 0.95239 0.26835 0.0
O1648 O 0.83109 0.99246 0.23149 0.0
O1649 O 0.84274 0.09265 0.24635 0.0
O1650 O 0.92256 0.04148 0.26388 0.0
O1651 O 0.91456 0.15737 0.26748 0.0
C1652 C 0.67749 0.93923 0.25885 0.0
C1653 C 0.54326 0.71681 0.25627 0.0
C1654 C 0.44867 0.58589 0.25192 0.0
C1655 C 0.50548 0.64304 0.26279 0.0
C1656 C 0.44075 0.60339 0.23404 0.0
C1657 C 0.50708 0.72568 0.24174 0.0
C1658 C 0.46676 0.67222 0.22937 0.0
C1659 C 0.768 0.93115 0.29857 0.0
C1660 C 0.62223 0.78435 0.25852 0.0
C1661 C 0.70731 0.5952 0.22303 0.0
C1662 C 0.75742 0.59471 0.23657 0.0
C1663 C 0.89863 0.97611 0.26576 0.0
C1664 C 1.01905 0.19246 0.28588 0.0
C1665 C 0.07106 0.22931 0.27306 0.0
C1666 C 0.13901 0.26653 0.27902 0.0
C1667 C 0.15425 0.26867 0.29798 0.0
C1668 C 0.03559 0.18856 0.30438 0.0
C1669 C 0.10322 0.22817 0.31046 0.0
C1670 C 0.85907 0.06604 0.23316 0.0
C1671 C 0.95151 0.14398 0.27912 0.0
H1672 H 0.51607 0.62882 0.27595 0.0
H1673 H 0.40353 0.5642 0.22472 0.0
H1674 H 0.52676 0.77554 0.23645 0.0
H1675 H 0.45276 0.68487 0.21621 0.0
H1676 H 0.05933 0.22547 0.25845 0.0
H1677 H 0.20557 0.29906 0.30343 0.0
H1678 H 0.99748 0.15222 0.31391 0.0
H1679 H 0.1171 0.22563 0.32459 0.0
Eu1680 Eu 0.32417 0.97052 0.24979 0.0
C1681 C 0.04395 0.729 0.29472 0.0
C1682 C 0.99769 0.6283 0.27519 0.0
C1683 C 0.93415 0.62577 0.30244 0.0
C1684 C 0.04749 0.69821 0.27881 0.0
C1685 C 0.98343 0.69585 0.30555 0.0
C1686 C 0.9429 0.59097 0.28759 0.0
C1687 C 1.02653 0.80227 0.32225 0.0
N1688 N 0.09492 0.79505 0.29828 0.0
C1689 C 0.08952 0.82889 0.31319 0.0
C1690 C 0.97227 0.73631 0.31814 0.0
Eu1691 Eu 0.15052 0.86037 0.27211 0.0
N1692 N 0.09566 0.73852 0.26616 0.0
C1693 C 0.09997 0.7099 0.24998 0.0
C1694 C 1.00173 0.59937 0.25869 0.0
C1695 C 0.05335 0.64032 0.24607 0.0
H1696 H 0.12997 0.88123 0.31627 0.0
H1697 H 0.05622 0.61869 0.23316 0.0
H1698 H 0.90382 0.53733 0.28489 0.0
H1699 H 1.02085 0.83279 0.33254 0.0
H1700 H 0.1365 0.74185 0.23957 0.0
H1701 H 0.47419 0.23107 0.29613 0.0
H1702 H 0.96432 0.54607 0.25556 0.0
H1703 H 0.28991 0.97539 0.19609 0.0
H1704 H 0.39071 0.08879 0.29108 0.0
H1705 H 0.47397 0.98979 0.17679 0.0
H1706 H 0.8886 0.59877 0.31107 0.0
H1707 H 0.5626 0.31963 0.2691 0.0
H1708 H 0.5744 0.26988 0.2375 0.0
H1709 H 0.92357 0.71598 0.32545 0.0
H1710 H 0.56841 0.16613 0.21552 0.0
N1711 N 0.43168 0.08605 0.26084 0.0
C1712 C 0.42814 0.11933 0.28068 0.0
C1713 C 0.52856 0.26609 0.26558 0.0
C1714 C 0.54042 0.2389 0.24351 0.0
C1715 C 0.47628 0.20956 0.28307 0.0
C1716 C 0.49292 0.15423 0.23831 0.0
H1717 H 0.58627 0.09625 0.19074 0.0
N1718 N 0.36555 0.07876 0.2121 0.0
C1719 C 0.46558 0.0256 0.18531 0.0
C1720 C 0.46201 0.14793 0.21819 0.0
C1721 C 0.34399 1.01638 0.19738 0.0
C1722 C 0.53695 0.09032 0.19458 0.0
C1723 C 0.53764 0.14728 0.21128 0.0
O1724 O 0.37455 0.90704 0.24423 0.0
O1725 O 0.23016 0.85536 0.25362 0.0
O1726 O 0.21668 0.85947 0.29438 0.0
O1727 O 0.30423 0.96913 0.28453 0.0
O1728 O 0.32503 0.87072 0.25706 0.0
O1729 O 0.41109 0.96942 0.26761 0.0
O1730 O 0.11648 0.9193 0.28689 0.0
O1731 O 0.24795 0.96623 0.26837 0.0
O1732 O 0.20785 0.92156 0.23149 0.0
O1733 O 0.1076 0.83317 0.24637 0.0
O1734 O 0.15876 0.96411 0.26387 0.0
O1735 O 0.04294 0.84025 0.26749 0.0
C1736 C 0.26113 0.82134 0.25884 0.0
C1737 C 0.48348 0.90936 0.25627 0.0
C1738 C 0.61442 0.94578 0.25193 0.0
C1739 C 0.55722 0.94536 0.2628 0.0
C1740 C 0.59699 0.92041 0.23405 0.0
C1741 C 0.47468 0.86437 0.24173 0.0
C1742 C 0.52819 0.8776 0.22937 0.0
C1743 C 0.26912 0.91982 0.29858 0.0
C1744 C 0.41595 0.9208 0.2585 0.0
C1745 C 0.60509 0.1952 0.22304 0.0
C1746 C 0.60554 0.24584 0.23654 0.0
C1747 C 0.22413 1.00544 0.26576 0.0
C1748 C 1.00782 0.9096 0.2859 0.0
C1749 C 0.97094 0.92473 0.27307 0.0
C1750 C 0.9337 0.95545 0.27903 0.0
C1751 C 0.93155 0.96856 0.29798 0.0
C1752 C 1.01172 0.93007 0.3044 0.0
C1753 C 0.97208 0.95807 0.31047 0.0
C1754 C 0.13426 0.87601 0.23316 0.0
C1755 C 0.05631 0.89056 0.27915 0.0
H1756 H 0.57139 0.97014 0.27596 0.0
H1757 H 0.63623 0.92245 0.22473 0.0
H1758 H 0.42485 0.83422 0.23642 0.0
H1759 H 0.5156 0.85104 0.21619 0.0
H1760 H 0.97479 0.91682 0.25847 0.0
H1761 H 0.90114 0.98948 0.30343 0.0
H1762 H 0.04808 0.92833 0.31393 0.0
H1763 H 0.97461 0.97452 0.32459 0.0
Eu1764 Eu 0.78127 0.88495 0.86843 0.0
C1765 C 0.74266 0.12657 0.82351 0.0
C1766 C 0.79709 0.22727 0.84303 0.0
C1767 C 0.7361 0.22981 0.81577 0.0
C1768 C 0.77698 0.15735 0.83941 0.0
C1769 C 0.71529 0.15973 0.81267 0.0
C1770 C 0.77963 0.26461 0.83063 0.0
C1771 C 0.65198 0.0533 0.79597 0.0
N1772 N 0.72757 0.0605 0.81994 0.0
C1773 C 0.68833 0.02666 0.80504 0.0
C1774 C 0.66368 0.11927 0.80008 0.0
Eu1775 Eu 0.71784 0.99518 0.84611 0.0
N1776 N 0.78483 0.11703 0.85207 0.0
C1777 C 0.81775 0.14564 0.86825 0.0
C1778 C 0.83003 0.25618 0.85953 0.0
C1779 C 0.84069 0.21523 0.87215 0.0
H1780 H 0.67643 0.97431 0.80197 0.0
H1781 H 0.86516 0.23685 0.88507 0.0
H1782 H 0.79419 0.31825 0.83333 0.0
H1783 H 0.61579 1.02278 0.78568 0.0
H1784 H 0.82233 0.11369 0.87866 0.0
H1785 H 0.67083 0.62447 0.82207 0.0
H1786 H 0.8459 0.30949 0.86266 0.0
H1787 H 0.74207 0.88004 0.92213 0.0
H1788 H 0.72958 0.76675 0.82713 0.0
H1789 H 0.91177 0.86568 0.94144 0.0
H1790 H 0.71756 0.25683 0.80715 0.0
H1791 H 0.67074 0.5359 0.84909 0.0
H1792 H 0.73237 0.58565 0.88069 0.0
H1793 H 0.63531 0.1396 0.79276 0.0
H1794 H 0.83008 0.68952 0.90267 0.0
N1795 N 0.77326 0.76946 0.85738 0.0
C1796 C 0.73646 0.73619 0.83754 0.0
C1797 C 0.69021 0.58943 0.85262 0.0
C1798 C 0.72925 0.61659 0.87469 0.0
C1799 C 0.69443 0.64597 0.83514 0.0
C1800 C 0.76637 0.70125 0.87991 0.0
H1801 H 0.91768 0.75925 0.92748 0.0
N1802 N 0.71441 0.77668 0.90612 0.0
C1803 C 0.86758 0.82988 0.93291 0.0
C1804 C 0.74173 0.70752 0.90003 0.0
C1805 C 0.7552 0.83905 0.92084 0.0
C1806 C 0.87427 0.76517 0.92364 0.0
C1807 C 0.81802 0.70818 0.90695 0.0
O1808 O 0.89513 0.94841 0.87395 0.0
O1809 O 0.80248 1.00012 0.86459 0.0
O1810 O 0.78486 0.99601 0.82384 0.0
O1811 O 0.76274 0.88634 0.83369 0.0
O1812 O 0.8819 0.98481 0.86125 0.0
O1813 O 0.86919 0.88593 0.85059 0.0
O1814 O 0.62486 0.93623 0.83134 0.0
O1815 O 0.70934 0.88929 0.84986 0.0
O1816 O 0.71387 0.93387 0.88673 0.0
O1817 O 0.70213 1.02237 0.87186 0.0
O1818 O 0.62239 0.89144 0.85433 0.0
O1819 O 0.63038 1.01531 0.85073 0.0
C1820 C 0.86748 0.03425 0.85937 0.0
C1821 C 1.00169 0.946 0.86192 0.0
C1822 C 0.09628 0.90961 0.86628 0.0
C1823 C 0.03948 0.91 0.8554 0.0
C1824 C 0.10419 0.9351 0.88415 0.0
C1825 C 0.03788 0.99108 0.87643 0.0
C1826 C 0.07819 0.97795 0.8888 0.0
C1827 C 0.77697 0.93565 0.81965 0.0
C1828 C 0.92271 0.93457 0.85968 0.0
C1829 C 0.83766 0.66039 0.89517 0.0
C1830 C 0.78754 0.6098 0.88164 0.0
C1831 C 0.64632 0.84999 0.85246 0.0
C1832 C 0.52589 0.94592 0.83233 0.0
C1833 C 0.47386 0.93073 0.84516 0.0
C1834 C 0.40591 0.9 0.83919 0.0
C1835 C 0.39068 0.88691 0.82024 0.0
C1836 C 0.50935 0.92549 0.81383 0.0
C1837 C 0.44172 0.89746 0.80776 0.0
C1838 C 0.68587 0.97946 0.88505 0.0
C1839 C 0.59343 0.96497 0.83909 0.0
H1840 H 1.02889 0.88517 0.84224 0.0
H1841 H 0.14139 0.93313 0.89348 0.0
H1842 H 1.01822 1.02131 0.8817 0.0
H1843 H 0.09217 1.00459 0.90197 0.0
H1844 H 0.48559 0.9386 0.85976 0.0
H1845 H 0.33937 0.86598 0.81479 0.0
H1846 H 0.54746 0.92727 0.8043 0.0
H1847 H 0.42783 0.88103 0.79363 0.0
Eu1848 Eu 0.31525 0.9794 0.86843 0.0
C1849 C 0.07374 0.69916 0.8235 0.0
C1850 C 0.97302 0.65292 0.84302 0.0
C1851 C 0.97052 0.58935 0.81577 0.0
C1852 C 0.04293 0.70271 0.83941 0.0
C1853 C 0.0406 0.63863 0.81267 0.0
C1854 C 0.93571 0.59811 0.83062 0.0
C1855 C 0.14701 0.68174 0.79597 0.0
N1856 N 0.13978 0.75013 0.81994 0.0
C1857 C 0.17363 0.74474 0.80503 0.0
C1858 C 0.08107 0.62747 0.80009 0.0
Eu1859 Eu 0.20507 0.80575 0.84612 0.0
N1860 N 0.08323 0.75088 0.85206 0.0
C1861 C 0.05459 0.75519 0.86824 0.0
C1862 C 0.94407 0.65699 0.85951 0.0
C1863 C 0.985 0.7086 0.87213 0.0
H1864 H 0.22597 0.78519 0.80196 0.0
H1865 H 0.96335 0.71147 0.88505 0.0
H1866 H 0.88207 0.55903 0.83332 0.0
H1867 H 0.17754 0.67607 0.78568 0.0
H1868 H 0.08653 0.79171 0.87865 0.0
H1869 H 0.5758 0.12935 0.82209 0.0
H1870 H 0.89075 0.6196 0.86263 0.0
H1871 H 0.32008 0.94519 0.92213 0.0
H1872 H 0.43352 0.04591 0.82714 0.0
H1873 H 0.33452 0.1293 0.94142 0.0
H1874 H 0.94353 0.54379 0.80715 0.0
H1875 H 0.66435 0.21777 0.84912 0.0
H1876 H 0.61461 0.22962 0.88072 0.0
H1877 H 0.06075 0.57877 0.79277 0.0
H1878 H 0.51074 0.22364 0.90266 0.0
N1879 N 0.43078 0.0869 0.85738 0.0
C1880 C 0.46407 0.08334 0.83754 0.0
C1881 C 0.61082 0.18375 0.85264 0.0
C1882 C 0.58363 0.19564 0.87471 0.0
C1883 C 0.55429 0.13147 0.83515 0.0
C1884 C 0.49895 0.14816 0.87991 0.0
H1885 H 0.441 0.24158 0.92746 0.0
N1886 N 0.42345 1.0208 0.90613 0.0
C1887 C 0.37032 0.12088 0.9329 0.0
C1888 C 0.49264 0.11725 0.90003 0.0
C1889 C 0.36108 0.99928 0.92084 0.0
C1890 C 0.43505 0.19224 0.92362 0.0
C1891 C 0.49203 0.19291 0.90694 0.0
O1892 O 0.25181 0.02983 0.87396 0.0
O1893 O 0.20008 0.8854 0.86461 0.0
O1894 O 0.2042 0.87191 0.82384 0.0
O1895 O 0.31385 0.95944 0.83369 0.0
O1896 O 0.21544 0.98028 0.8612 0.0
O1897 O 0.31421 0.06633 0.85059 0.0
O1898 O 0.26399 0.77168 0.83135 0.0
O1899 O 0.31094 0.90316 0.84985 0.0
O1900 O 0.26634 0.86308 0.88673 0.0
O1901 O 0.17788 0.76286 0.87186 0.0
O1902 O 0.3088 0.81396 0.85434 0.0
O1903 O 0.18494 0.69814 0.85074 0.0
C1904 C 0.16605 0.91639 0.8594 0.0
C1905 C 0.25415 0.13874 0.86191 0.0
C1906 C 0.2906 0.26972 0.86626 0.0
C1907 C 0.29017 0.21251 0.85539 0.0
C1908 C 0.26514 0.2522 0.88414 0.0
C1909 C 0.2091 0.12991 0.87643 0.0
C1910 C 0.22229 0.18339 0.8888 0.0
C1911 C 0.26454 0.92434 0.81964 0.0
C1912 C 0.2656 0.07121 0.85969 0.0
C1913 C 0.53995 0.26034 0.89517 0.0
C1914 C 0.59058 0.26077 0.88167 0.0
C1915 C 0.35015 0.87934 0.85246 0.0
C1916 C 0.25431 0.66303 0.83234 0.0
C1917 C 0.26944 0.62613 0.84515 0.0
C1918 C 0.30016 0.5889 0.83919 0.0
C1919 C 0.31326 0.58677 0.82024 0.0
C1920 C 0.27479 0.66696 0.81384 0.0
C1921 C 0.30279 0.62734 0.80776 0.0
C1922 C 0.22078 0.7895 0.88505 0.0
C1923 C 0.23526 0.71152 0.8391 0.0
H1924 H 0.31498 0.22671 0.84223 0.0
H1925 H 0.26715 0.29141 0.89346 0.0
H1926 H 0.17887 0.08004 0.88172 0.0
H1927 H 0.1957 0.17078 0.90197 0.0
H1928 H 0.26153 0.62994 0.85976 0.0
H1929 H 0.33416 0.55636 0.81478 0.0
H1930 H 0.27307 0.70335 0.80432 0.0
H1931 H 0.31926 0.62991 0.79363 0.0
Eu1932 Eu 0.22081 0.41884 0.86842 0.0
C1933 C 0.50106 0.45758 0.82349 0.0
C1934 C 0.54734 0.40313 0.84302 0.0
C1935 C 0.61087 0.46415 0.81576 0.0
C1936 C 0.49753 0.42323 0.8394 0.0
C1937 C 0.56158 0.48495 0.81266 0.0
C1938 C 0.60213 0.4206 0.83062 0.0
C1939 C 0.51845 0.54826 0.79595 0.0
N1940 N 0.45008 0.47266 0.81993 0.0
C1941 C 0.45547 0.51189 0.80502 0.0
C1942 C 0.57273 0.53657 0.80007 0.0
Eu1943 Eu 0.39447 0.48235 0.8461 0.0
N1944 N 0.44935 0.41536 0.85205 0.0
C1945 C 0.44504 0.38242 0.86823 0.0
C1946 C 0.54331 0.37017 0.85952 0.0
C1947 C 0.49168 0.35948 0.87214 0.0
H1948 H 0.415 0.52377 0.80194 0.0
H1949 H 0.48882 0.33498 0.88506 0.0
H1950 H 0.64121 0.40603 0.83332 0.0
H1951 H 0.52412 0.58446 0.78566 0.0
H1952 H 0.40849 0.37782 0.87863 0.0
H1953 H 0.07061 0.52923 0.82208 0.0
H1954 H 0.58074 0.35429 0.86265 0.0
H1955 H 0.25518 0.4581 0.92212 0.0
H1956 H 0.15418 0.4705 0.82713 0.0
H1957 H 0.07121 0.28843 0.94145 0.0
H1958 H 0.65641 0.48269 0.80714 0.0
H1959 H 0.98221 0.52936 0.84911 0.0
H1960 H 0.97048 0.46785 0.88072 0.0
H1961 H 0.62142 0.56494 0.79275 0.0
H1962 H 0.97664 0.37012 0.90269 0.0
N1963 N 0.11327 0.42683 0.85738 0.0
C1964 C 0.11676 0.46362 0.83754 0.0
C1965 C 1.01629 0.50991 0.85264 0.0
C1966 C 1.00449 0.4709 0.87471 0.0
C1967 C 0.06856 0.50566 0.83514 0.0
C1968 C 0.05203 0.43376 0.87992 0.0
H1969 H 0.95885 0.28252 0.9275 0.0
N1970 N 0.17946 0.48575 0.90611 0.0
C1971 C 0.07956 0.33261 0.93292 0.0
C1972 C 0.08299 0.45843 0.90003 0.0
C1973 C 0.20108 0.44497 0.92083 0.0
C1974 C 1.00816 0.32592 0.92366 0.0
C1975 C 1.00738 0.38215 0.90696 0.0
O1976 O 0.17044 0.30499 0.87397 0.0
O1977 O 0.31482 0.3977 0.86459 0.0
O1978 O 0.32831 0.41531 0.82383 0.0
O1979 O 0.24074 0.43741 0.83368 0.0
O1980 O 0.21996 0.31821 0.86113 0.0
O1981 O 0.13386 0.33085 0.8506 0.0
O1982 O 0.4285 0.57532 0.83132 0.0
O1983 O 0.29703 0.49077 0.84984 0.0
O1984 O 0.33711 0.4862 0.88672 0.0
O1985 O 0.43738 0.49803 0.87185 0.0
O1986 O 0.3862 0.57783 0.85434 0.0
O1987 O 0.50203 0.56982 0.85073 0.0
C1988 C 0.28386 0.33272 0.85936 0.0
C1989 C 0.06147 0.1984 0.86195 0.0
C1990 C 0.93053 0.10389 0.86629 0.0
C1991 C 0.98772 0.16067 0.85542 0.0
C1992 C 0.94798 0.09596 0.88418 0.0
C1993 C 0.07028 0.1622 0.87648 0.0
C1994 C 1.01679 0.12192 0.88885 0.0
C1995 C 0.27585 0.42321 0.81963 0.0
C1996 C 0.12901 0.27736 0.8597 0.0
C1997 C 0.93992 0.36255 0.8952 0.0
C1998 C 0.93941 0.41268 0.88168 0.0
C1999 C 0.32083 0.55379 0.85245 0.0
C2000 C 0.53715 0.6743 0.83232 0.0
C2001 C 0.574 0.7263 0.84515 0.0
C2002 C 0.61125 0.79426 0.83919 0.0
C2003 C 0.61342 0.80951 0.82024 0.0
C2004 C 0.53327 0.69086 0.81382 0.0
C2005 C 0.57291 0.75849 0.80775 0.0
C2006 C 0.4107 0.51421 0.88504 0.0
C2007 C 0.48866 0.60676 0.83907 0.0
H2008 H 0.97353 0.17126 0.84225 0.0
H2009 H 0.90876 0.05876 0.89349 0.0
H2010 H 0.12012 0.18185 0.88178 0.0
H2011 H 1.02939 0.10792 0.90202 0.0
H2012 H 0.57014 0.71456 0.85975 0.0
H2013 H 0.64382 0.86084 0.81479 0.0
H2014 H 0.49693 0.65277 0.80429 0.0
H2015 H 0.5704 0.7724 0.79362 0.0
Eu2016 Eu 0.87174 0.81561 0.67945 0.0
C2017 C 0.15932 0.79165 0.73338 0.0
C2018 C 0.25028 0.80407 0.70805 0.0
C2019 C 0.20647 0.69572 0.72854 0.0
C2020 C 0.16559 0.76694 0.71325 0.0
C2021 C 0.15868 0.71537 0.74031 0.0
C2022 C 0.25697 0.74573 0.71497 0.0
C2023 C 0.03699 0.66579 0.76626 0.0
N2024 N 0.09007 0.81892 0.73945 0.0
C2025 C 1.02778 0.77814 0.75418 0.0
C2026 C 0.10171 0.65912 0.757 0.0
Eu2027 Eu 0.98193 0.75218 0.70176 0.0
N2028 N 0.09742 0.7601 0.69072 0.0
C2029 C 0.13075 0.79687 0.67087 0.0
C2030 C 0.27747 0.84302 0.68598 0.0
C2031 C 0.221 0.83885 0.66848 0.0
H2032 H 0.9867 0.79114 0.75545 0.0
H2033 H 0.24255 0.86248 0.65542 0.0
H2034 H 0.28108 0.801 0.71418 0.0
H2035 H 1.00117 0.62156 0.77477 0.0
H2036 H 0.10025 0.80383 0.66046 0.0
H2037 H 0.6301 0.66827 0.71841 0.0
H2038 H 0.33103 0.86258 0.68248 0.0
H2039 H 0.89264 0.857 0.63531 0.0
H2040 H 0.75327 0.71111 0.71199 0.0
H2041 H 0.84416 0.91764 0.61901 0.0
H2042 H 0.17744 0.70338 0.73605 0.0
H2043 H 0.55749 0.68756 0.69599 0.0
H2044 H 0.54872 0.73928 0.66667 0.0
H2045 H 0.10763 0.61571 0.76084 0.0
H2046 H 0.61014 0.81592 0.64049 0.0
N2047 N 0.74992 0.74864 0.6854 0.0
C2048 C 0.72131 0.71569 0.70158 0.0
C2049 C 0.61079 0.70342 0.69287 0.0
C2050 C 0.6397 0.73637 0.67637 0.0
C2051 C 0.65173 0.69274 0.70549 0.0
C2052 C 0.70959 0.75646 0.67275 0.0
H2053 H 0.72735 0.89813 0.62609 0.0
N2054 N 0.8064 0.80582 0.65326 0.0
C2055 C 0.81364 0.88145 0.6293 0.0
C2056 C 0.74037 0.79076 0.65684 0.0
C2057 C 0.84029 0.84511 0.63837 0.0
C2058 C 0.74768 0.86975 0.63341 0.0
C2059 C 0.70722 0.81815 0.646 0.0
O2060 O 0.93064 0.9086 0.66468 0.0
O2061 O 0.97769 0.82418 0.68319 0.0
O2062 O 0.933 0.81956 0.72007 0.0
O2063 O 0.84455 0.83135 0.70519 0.0
O2064 O 0.97542 0.91111 0.68765 0.0
O2065 O 0.85152 0.90305 0.68405 0.0
O2066 O 0.9184 0.63831 0.70726 0.0
O2067 O 0.86682 0.73096 0.69792 0.0
O2068 O 0.87096 0.74863 0.65716 0.0
O2069 O 0.98063 0.77082 0.66702 0.0
O2070 O 0.88206 0.65161 0.69447 0.0
O2071 O 0.98096 0.66424 0.68392 0.0
C2072 C 1.0169 0.88722 0.68578 0.0
C2073 C 0.9209 1.00754 0.66566 0.0
C2074 C 0.96697 0.12755 0.67251 0.0
C2075 C 0.93612 0.05959 0.67847 0.0
C2076 C 0.98007 0.14277 0.65356 0.0
C2077 C 0.94137 0.02407 0.64716 0.0
C2078 C 0.96947 0.0917 0.64108 0.0
C2079 C 0.88742 0.84758 0.71839 0.0
C2080 C 0.90187 0.94001 0.67242 0.0
C2081 C 0.63715 0.79737 0.64911 0.0
C2082 C 0.60236 0.75384 0.66397 0.0
C2083 C 0.83259 0.66602 0.69265 0.0
C2084 C 0.92086 0.53174 0.69525 0.0
C2085 C 0.95683 0.49395 0.68871 0.0
C2086 C 0.95726 0.43713 0.69957 0.0
C2087 C 0.93179 0.42916 0.71745 0.0
C2088 C 0.87584 0.49555 0.70977 0.0
C2089 C 0.889 0.45519 0.72213 0.0
C2090 C 0.93133 0.75659 0.65297 0.0
C2091 C 0.93228 0.61071 0.693 0.0
H2092 H 0.92819 0.04786 0.69308 0.0
H2093 H 1.00102 0.19408 0.6481 0.0
H2094 H 0.93959 0.98594 0.63763 0.0
H2095 H 0.9859 0.10557 0.62695 0.0
H2096 H 0.98159 0.50453 0.67555 0.0
H2097 H 0.9338 0.39194 0.72676 0.0
H2098 H 0.84566 0.51523 0.71508 0.0
H2099 H 0.86243 0.44122 0.7353 0.0
Eu2100 Eu 0.38459 0.13898 0.67944 0.0
C2101 C 0.40847 0.45058 0.73337 0.0
C2102 C 0.39601 0.52908 0.70802 0.0
C2103 C 0.50439 0.59364 0.7285 0.0
C2104 C 0.43316 0.48152 0.71323 0.0
C2105 C 0.48474 0.52622 0.74029 0.0
C2106 C 0.45437 0.59411 0.71493 0.0
C2107 C 0.53435 0.45416 0.76625 0.0
N2108 N 0.38123 0.35408 0.73944 0.0
C2109 C 0.42204 0.33259 0.75418 0.0
C2110 C 0.54099 0.52552 0.75698 0.0
Eu2111 Eu 0.44797 0.31263 0.70176 0.0
N2112 N 0.44001 0.42017 0.6907 0.0
C2113 C 0.40322 0.4167 0.67085 0.0
C2114 C 0.35705 0.51729 0.68595 0.0
C2115 C 0.36122 0.46496 0.66846 0.0
H2116 H 0.40905 0.27852 0.75546 0.0
H2117 H 0.33759 0.46287 0.6554 0.0
H2118 H 0.39911 0.56298 0.71414 0.0
H2119 H 0.57859 0.46257 0.77476 0.0
H2120 H 0.39628 0.37924 0.66045 0.0
H2121 H 0.53187 0.04462 0.71842 0.0
H2122 H 0.33749 0.55129 0.68244 0.0
H2123 H 0.3432 0.11848 0.6353 0.0
H2124 H 0.48916 0.12505 0.71197 0.0
H2125 H 0.28251 1.00934 0.61902 0.0
H2126 H 0.49672 0.55696 0.73602 0.0
H2127 H 0.51248 0.95262 0.69603 0.0
H2128 H 0.46083 0.89217 0.6667 0.0
H2129 H 0.5844 0.57485 0.76081 0.0
H2130 H 0.38422 0.87699 0.64051 0.0
N2131 N 0.45158 0.08411 0.6854 0.0
C2132 C 0.48455 0.08847 0.70158 0.0
C2133 C 0.49669 0.9901 0.69289 0.0
C2134 C 0.46377 0.98609 0.67638 0.0
C2135 C 0.50741 0.04177 0.7055 0.0
C2136 C 0.44372 0.03593 0.67275 0.0
H2137 H 0.30203 0.91204 0.62611 0.0
N2138 N 0.39438 0.08341 0.65326 0.0
C2139 C 0.31873 1.01502 0.6293 0.0
C2140 C 0.40942 0.03241 0.65684 0.0
C2141 C 0.35509 0.07801 0.63837 0.0
C2142 C 0.33041 0.96074 0.63342 0.0
C2143 C 0.38202 0.97187 0.64601 0.0
O2144 O 0.2916 0.10486 0.66468 0.0
O2145 O 0.37599 0.23636 0.68319 0.0
O2146 O 0.38056 0.19633 0.72006 0.0
O2147 O 0.36896 0.09614 0.7052 0.0
O2148 O 0.28907 0.14715 0.68763 0.0
O2149 O 0.29717 0.03135 0.68407 0.0
O2150 O 0.56182 0.36295 0.70728 0.0
O2151 O 0.4692 0.21875 0.69792 0.0
O2152 O 0.45153 0.20519 0.65716 0.0
O2153 O 0.42934 0.29269 0.66702 0.0
O2154 O 0.54852 0.31333 0.69445 0.0
O2155 O 0.53595 0.39958 0.68393 0.0
C2156 C 0.31294 0.21252 0.68577 0.0
C2157 C 0.19267 0.99621 0.66567 0.0
C2158 C 0.07266 0.9223 0.67252 0.0
C2159 C 0.14063 0.9594 0.67849 0.0
C2160 C 0.05744 0.92017 0.65357 0.0
C2161 C 0.17614 1.00013 0.64717 0.0
C2162 C 0.10851 0.9606 0.64109 0.0
C2163 C 0.35261 0.12275 0.71838 0.0
C2164 C 0.26019 0.0447 0.67243 0.0
C2165 C 0.40278 0.92255 0.64913 0.0
C2166 C 0.44629 0.93128 0.66399 0.0
C2167 C 0.53413 0.24945 0.69264 0.0
C2168 C 0.66841 0.47194 0.69527 0.0
C2169 C 0.70619 0.54569 0.68873 0.0
C2170 C 0.76303 0.60289 0.69959 0.0
C2171 C 0.77101 0.58544 0.71747 0.0
C2172 C 0.70457 0.46311 0.7098 0.0
C2173 C 0.74496 0.51663 0.72215 0.0
C2174 C 0.44356 0.2576 0.65297 0.0
C2175 C 0.58944 0.40441 0.69302 0.0
H2176 H 0.15235 0.9632 0.69309 0.0
H2177 H 1.00612 0.88982 0.64812 0.0
H2178 H 0.21425 0.03647 0.63764 0.0
H2179 H 0.09464 0.96315 0.62695 0.0
H2180 H 0.69559 0.55988 0.67557 0.0
H2181 H 0.80824 0.62467 0.72678 0.0
H2182 H 0.68483 0.41328 0.71512 0.0
H2183 H 0.75894 0.50402 0.73533 0.0
Eu2184 Eu 0.06114 0.3284 0.67943 0.0
C2185 C 0.74961 0.04084 0.73338 0.0
C2186 C 0.67117 0.94982 0.70805 0.0
C2187 C 0.60652 0.99351 0.72852 0.0
C2188 C 0.71866 0.03454 0.71324 0.0
C2189 C 0.67395 0.04143 0.74028 0.0
C2190 C 0.60609 0.94298 0.71498 0.0
C2191 C 0.74593 0.16314 0.76623 0.0
N2192 N 0.8461 0.11014 0.73945 0.0
C2193 C 0.86754 0.17243 0.75418 0.0
C2194 C 0.6746 0.09839 0.75697 0.0
Eu2195 Eu 0.8875 0.21823 0.70175 0.0
N2196 N 0.77995 0.1027 0.6907 0.0
C2197 C 0.78343 0.06935 0.67086 0.0
C2198 C 0.68296 0.92261 0.68599 0.0
C2199 C 0.73524 0.97909 0.66849 0.0
H2200 H 0.9216 0.21353 0.75546 0.0
H2201 H 0.73734 0.95753 0.65543 0.0
H2202 H 0.63736 0.91898 0.7142 0.0
H2203 H 0.73749 0.19896 0.77474 0.0
H2204 H 0.82087 0.09985 0.66045 0.0
H2205 H 0.15551 0.57004 0.7184 0.0
H2206 H 0.649 0.86904 0.68249 0.0
H2207 H 0.08161 0.3075 0.63528 0.0
H2208 H 0.07516 0.44689 0.71198 0.0
H2209 H 0.19075 0.35593 0.61899 0.0
H2210 H 0.64319 1.02262 0.73603 0.0
H2211 H 0.24741 0.64264 0.69599 0.0
H2212 H 0.30785 0.65139 0.66666 0.0
H2213 H 0.62525 0.09244 0.7608 0.0
H2214 H 0.32303 0.58996 0.64047 0.0
N2215 N 0.116 0.45023 0.68539 0.0
C2216 C 0.11169 0.47885 0.70157 0.0
C2217 C 0.20996 0.58935 0.69286 0.0
C2218 C 0.21397 0.56044 0.67636 0.0
C2219 C 0.15834 0.54842 0.70548 0.0
C2220 C 0.16414 0.49055 0.67273 0.0
H2221 H 0.28802 0.47275 0.62608 0.0
N2222 N 0.11667 0.39373 0.65325 0.0
C2223 C 0.18506 0.38646 0.62928 0.0
C2224 C 0.16766 0.45976 0.65682 0.0
C2225 C 0.12207 0.35984 0.63835 0.0
C2226 C 0.23932 0.45242 0.6334 0.0
C2227 C 0.22818 0.49289 0.64599 0.0
O2228 O 0.09525 0.26952 0.66466 0.0
O2229 O 0.96372 0.22246 0.68318 0.0
O2230 O 1.00382 0.2672 0.72005 0.0
O2231 O 0.10408 0.35559 0.70517 0.0
O2232 O 0.05302 0.22471 0.68765 0.0
O2233 O 0.16877 0.3486 0.68405 0.0
O2234 O 0.83717 0.28177 0.70729 0.0
O2235 O 0.98145 0.33334 0.69793 0.0
O2236 O 0.99494 0.32919 0.65715 0.0
O2237 O 0.90745 0.21953 0.66701 0.0
O2238 O 0.88672 0.31804 0.69438 0.0
O2239 O 0.80056 0.21932 0.68393 0.0
C2240 C 0.98765 0.18333 0.68577 0.0
C2241 C 0.20393 0.27926 0.66564 0.0
C2242 C 0.27788 0.2332 0.6725 0.0
C2243 C 0.24077 0.26407 0.67846 0.0
C2244 C 0.27998 0.22006 0.65355 0.0
C2245 C 0.19998 0.25876 0.64714 0.0
C2246 C 0.23952 0.23065 0.64107 0.0
C2247 C 0.0774 0.31275 0.71837 0.0
C2248 C 0.15542 0.29828 0.6724 0.0
C2249 C 0.27748 0.56297 0.64909 0.0
C2250 C 0.26875 0.59776 0.66395 0.0
C2251 C 0.95064 0.36746 0.69265 0.0
C2252 C 0.72821 0.27943 0.69527 0.0
C2253 C 0.65448 0.24345 0.68873 0.0
C2254 C 0.59726 0.24304 0.69959 0.0
C2255 C 0.61467 0.26844 0.71747 0.0
C2256 C 0.737 0.32439 0.70981 0.0
C2257 C 0.68346 0.31121 0.72216 0.0
C2258 C 0.94253 0.26882 0.65296 0.0
C2259 C 0.79573 0.26797 0.69303 0.0
H2260 H 0.23698 0.27203 0.69307 0.0
H2261 H 0.31033 0.19908 0.6481 0.0
H2262 H 0.16362 0.26051 0.63762 0.0
H2263 H 0.23696 0.2142 0.62694 0.0
H2264 H 0.64032 0.21866 0.67557 0.0
H2265 H 0.57541 0.26641 0.72677 0.0
H2266 H 0.78683 0.35451 0.71513 0.0
H2267 H 0.69603 0.33775 0.73534 0.0
Eu2268 Eu 0.49375 0.1936 0.10544 0.0
C2269 C 0.46981 0.48127 0.05151 0.0
C2270 C 0.48222 0.57223 0.07685 0.0
C2271 C 0.37385 0.52838 0.05636 0.0
C2272 C 0.44511 0.48754 0.07165 0.0
C2273 C 0.39352 0.48061 0.04459 0.0
C2274 C 0.42385 0.57888 0.06993 0.0
C2275 C 0.34394 0.3589 0.01865 0.0
N2276 N 0.49709 0.41203 0.04544 0.0
C2277 C 0.4563 0.34972 0.03071 0.0
C2278 C 0.33727 0.42362 0.0279 0.0
Eu2279 Eu 0.43038 0.30389 0.08314 0.0
N2280 N 0.43829 0.41937 0.09418 0.0
C2281 C 0.47507 0.45271 0.11403 0.0
C2282 C 0.52118 0.59943 0.09891 0.0
C2283 C 0.51703 0.54296 0.11641 0.0
H2284 H 0.46932 0.30865 0.02945 0.0
H2285 H 0.54065 0.56452 0.12947 0.0
H2286 H 0.47911 0.60302 0.07072 0.0
H2287 H 0.29971 0.32306 0.01014 0.0
H2288 H 0.48203 0.42221 0.12444 0.0
H2289 H 0.34648 0.95196 0.06647 0.0
H2290 H 0.54072 0.653 0.10242 0.0
H2291 H 0.53514 0.21449 0.14958 0.0
H2292 H 0.38922 0.07511 0.07291 0.0
H2293 H 0.59583 0.16603 0.16587 0.0
H2294 H 0.38153 0.49936 0.04885 0.0
H2295 H 0.36583 0.87935 0.08887 0.0
H2296 H 0.41751 0.87057 0.1182 0.0
H2297 H 0.29385 0.42953 0.02407 0.0
H2298 H 0.49411 0.93199 0.14439 0.0
N2299 N 0.42677 0.07175 0.09948 0.0
C2300 C 0.39382 0.04314 0.08331 0.0
C2301 C 0.38164 0.93263 0.092 0.0
C2302 C 0.41456 0.96154 0.10851 0.0
C2303 C 0.37094 0.97358 0.07939 0.0
C2304 C 0.43462 0.03143 0.11214 0.0
H2305 H 0.5763 0.04921 0.15879 0.0
N2306 N 0.48396 0.12824 0.13162 0.0
C2307 C 0.55961 0.1355 0.15558 0.0
C2308 C 0.46892 0.06221 0.12805 0.0
C2309 C 0.52326 0.16213 0.14652 0.0
C2310 C 0.54792 0.06954 0.15147 0.0
C2311 C 0.49631 0.02907 0.13888 0.0
O2312 O 0.58675 0.25247 0.1202 0.0
O2313 O 0.50235 0.29958 0.1017 0.0
O2314 O 0.49777 0.25499 0.06483 0.0
O2315 O 0.5094 0.16641 0.07969 0.0
O2316 O 0.58928 0.29729 0.09725 0.0
O2317 O 0.58118 0.17338 0.10081 0.0
O2318 O 0.3165 0.2404 0.07767 0.0
O2319 O 0.40913 0.18876 0.08696 0.0
O2320 O 0.42681 0.19288 0.12773 0.0
O2321 O 0.44903 0.30258 0.11788 0.0
O2322 O 0.32979 0.204 0.09039 0.0
O2323 O 0.34251 0.303 0.10099 0.0
C2324 C 0.5654 0.33878 0.09911 0.0
C2325 C 0.68569 0.24276 0.11921 0.0
C2326 C 0.80571 0.28888 0.11236 0.0
C2327 C 0.73774 0.25802 0.10639 0.0
C2328 C 0.82091 0.30195 0.13131 0.0
C2329 C 0.70221 0.26319 0.13771 0.0
C2330 C 0.76984 0.2913 0.14379 0.0
C2331 C 0.52573 0.20937 0.06651 0.0
C2332 C 0.61816 0.22373 0.11245 0.0
C2333 C 0.47555 0.95899 0.13577 0.0
C2334 C 0.43204 0.9242 0.12091 0.0
C2335 C 0.34418 0.15452 0.09222 0.0
C2336 C 0.20998 0.24289 0.08969 0.0
C2337 C 0.17218 0.27889 0.0962 0.0
C2338 C 0.11533 0.27922 0.08533 0.0
C2339 C 0.10739 0.25367 0.06746 0.0
C2340 C 0.17378 0.19777 0.07519 0.0
C2341 C 0.13342 0.21085 0.06282 0.0
C2342 C 0.4348 0.25327 0.13192 0.0
C2343 C 0.28896 0.25431 0.09193 0.0
H2344 H 0.72603 0.25012 0.09178 0.0
H2345 H 0.87223 0.32292 0.13677 0.0
H2346 H 0.66409 0.2614 0.14724 0.0
H2347 H 0.7837 0.30771 0.15793 0.0
H2348 H 0.18276 0.30375 0.10935 0.0
H2349 H 0.07018 0.25562 0.05814 0.0
H2350 H 0.19344 0.16754 0.06992 0.0
H2351 H 0.11949 0.18424 0.04965 0.0
Eu2352 Eu 1.00655 0.38308 0.10544 0.0
C2353 C 0.719 0.07155 0.05151 0.0
C2354 C 0.62802 0.99309 0.07684 0.0
C2355 C 0.67173 0.92846 0.05636 0.0
C2356 C 0.71272 0.04059 0.07164 0.0
C2357 C 0.71958 0.99588 0.04459 0.0
C2358 C 0.62123 0.92802 0.06991 0.0
C2359 C 0.84125 0.06789 0.01863 0.0
N2360 N 0.78827 0.16804 0.04543 0.0
C2361 C 0.85055 0.18949 0.03069 0.0
C2362 C 0.77652 0.99654 0.0279 0.0
Eu2363 Eu 0.89642 0.20943 0.08312 0.0
N2364 N 0.7809 0.10189 0.09417 0.0
C2365 C 0.74757 0.10537 0.11402 0.0
C2366 C 0.60084 1.00487 0.0989 0.0
C2367 C 0.65733 0.05716 0.1164 0.0
H2368 H 0.89165 0.24355 0.02942 0.0
H2369 H 0.63578 0.05926 0.12946 0.0
H2370 H 0.59719 0.95925 0.0707 0.0
H2371 H 0.87706 0.05945 0.01012 0.0
H2372 H 0.77808 0.14282 0.12442 0.0
H2373 H 0.24819 0.47741 0.06648 0.0
H2374 H 0.54727 0.97091 0.1024 0.0
H2375 H 0.98565 0.40355 0.14959 0.0
H2376 H 0.12504 0.3971 0.0729 0.0
H2377 H 1.03411 0.51266 0.16589 0.0
H2378 H 0.7008 0.96513 0.04885 0.0
H2379 H 0.3208 0.56929 0.0889 0.0
H2380 H 0.32955 0.62975 0.11822 0.0
H2381 H 0.77057 0.9472 0.02406 0.0
H2382 H 0.26812 0.64495 0.14441 0.0
N2383 N 0.12838 0.43794 0.09948 0.0
C2384 C 0.15699 0.43362 0.0833 0.0
C2385 C 0.26751 0.53186 0.09202 0.0
C2386 C 0.23859 0.53588 0.10852 0.0
C2387 C 0.22657 0.48025 0.0794 0.0
C2388 C 0.16869 0.48607 0.11214 0.0
H2389 H 0.15091 0.60995 0.1588 0.0
N2390 N 0.07188 0.43861 0.13162 0.0
C2391 C 0.06463 0.50699 0.15559 0.0
C2392 C 0.13791 0.48959 0.12805 0.0
C2393 C 0.038 0.44401 0.14652 0.0
C2394 C 0.13059 0.56125 0.15148 0.0
C2395 C 0.17105 0.55011 0.13889 0.0
O2396 O 0.94766 0.41718 0.12021 0.0
O2397 O 0.90062 0.28564 0.10169 0.0
O2398 O 0.94535 0.32574 0.06481 0.0
O2399 O 1.03372 0.42601 0.0797 0.0
O2400 O 0.90286 0.37494 0.09722 0.0
O2401 O 1.02676 0.49072 0.10082 0.0
O2402 O 0.95996 0.15911 0.07758 0.0
O2403 O 1.01151 0.30339 0.08695 0.0
O2404 O 1.00737 0.31688 0.12772 0.0
O2405 O 0.89772 0.22938 0.11786 0.0
O2406 O 0.99621 0.20866 0.0905 0.0
O2407 O 0.89752 0.12248 0.10094 0.0
C2408 C 0.86149 0.30957 0.0991 0.0
C2409 C 0.9574 0.52586 0.11923 0.0
C2410 C 0.91135 0.59981 0.11237 0.0
C2411 C 0.94221 0.5627 0.10641 0.0
C2412 C 0.89824 0.60193 0.13132 0.0
C2413 C 0.93693 0.52191 0.13773 0.0
C2414 C 0.90883 0.56146 0.14381 0.0
C2415 C 0.99088 0.39934 0.0665 0.0
C2416 C 0.97643 0.47735 0.11247 0.0
C2417 C 0.24112 0.5994 0.13578 0.0
C2418 C 0.27592 0.59067 0.12092 0.0
C2419 C 0.04563 0.27257 0.09223 0.0
C2420 C 0.95758 0.05011 0.08959 0.0
C2421 C 0.92162 0.97639 0.09615 0.0
C2422 C 0.92109 0.91908 0.0853 0.0
C2423 C 0.94647 0.93645 0.06742 0.0
C2424 C 1.00248 0.05883 0.07504 0.0
C2425 C 0.98924 1.00523 0.06271 0.0
C2426 C 0.94701 0.26447 0.13191 0.0
C2427 C 0.94616 0.11765 0.09184 0.0
H2428 H 0.95015 0.55891 0.0918 0.0
H2429 H 0.87729 0.63229 0.13678 0.0
H2430 H 0.93869 0.48555 0.14725 0.0
H2431 H 0.89239 0.55889 0.15793 0.0
H2432 H 0.89692 0.9623 0.10932 0.0
H2433 H 0.9444 0.89717 0.05812 0.0
H2434 H 1.03256 0.10863 0.06969 0.0
H2435 H 1.01573 1.01774 0.04952 0.0
Eu2436 Eu 0.81716 0.70647 0.10544 0.0
C2437 C 0.12869 0.73041 0.0515 0.0
C2438 C 0.20718 0.71789 0.07683 0.0
C2439 C 0.27177 0.82624 0.05635 0.0
C2440 C 0.15966 0.75509 0.07164 0.0
C2441 C 0.20434 0.80666 0.04458 0.0
C2442 C 0.27223 0.77617 0.06991 0.0
C2443 C 0.1323 0.85633 0.01863 0.0
N2444 N 1.0322 0.70321 0.04543 0.0
C2445 C 1.01073 0.74403 0.0307 0.0
C2446 C 0.20365 0.86294 0.0279 0.0
Eu2447 Eu 0.99081 0.76995 0.08313 0.0
N2448 N 0.09836 0.76197 0.09417 0.0
C2449 C 0.0949 0.72516 0.11401 0.0
C2450 C 0.19541 0.67892 0.0989 0.0
C2451 C 0.14313 0.68312 0.1164 0.0
H2452 H 0.95666 0.73106 0.02942 0.0
H2453 H 0.14105 0.65948 0.12946 0.0
H2454 H 0.24102 0.72091 0.07069 0.0
H2455 H 0.14073 0.90058 0.01012 0.0
H2456 H 0.05746 0.71823 0.12443 0.0
H2457 H 0.72279 0.85376 0.06647 0.0
H2458 H 0.22939 0.65933 0.1024 0.0
H2459 H 0.7967 0.66511 0.14959 0.0
H2460 H 0.80316 0.81098 0.0729 0.0
H2461 H 0.68756 0.60439 0.16588 0.0
H2462 H 0.23509 0.81862 0.04884 0.0
H2463 H 0.63086 0.83444 0.08887 0.0
H2464 H 0.57042 0.78276 0.11821 0.0
H2465 H 0.25298 0.90633 0.02406 0.0
H2466 H 0.55525 0.70614 0.14439 0.0
N2467 N 0.7623 0.77346 0.09948 0.0
C2468 C 0.76662 0.80639 0.0833 0.0
C2469 C 0.66832 0.81861 0.092 0.0
C2470 C 0.66432 0.78569 0.10851 0.0
C2471 C 0.71995 0.8293 0.07939 0.0
C2472 C 0.71415 0.76562 0.11214 0.0
H2473 H 0.59028 0.62393 0.15879 0.0
N2474 N 0.76163 0.71627 0.13163 0.0
C2475 C 0.69325 0.64062 0.15559 0.0
C2476 C 0.71064 0.73132 0.12805 0.0
C2477 C 0.75623 0.67699 0.14653 0.0
C2478 C 0.63897 0.65231 0.15147 0.0
C2479 C 0.65011 0.70393 0.13888 0.0
O2480 O 0.78305 0.61348 0.12021 0.0
O2481 O 0.9146 0.69796 0.1017 0.0
O2482 O 0.8745 0.70259 0.06482 0.0
O2483 O 0.77424 0.69075 0.0797 0.0
O2484 O 0.82531 0.61092 0.09723 0.0
O2485 O 0.70953 0.61904 0.10082 0.0
O2486 O 0.04111 0.88381 0.07758 0.0
O2487 O 0.89686 0.7911 0.08695 0.0
O2488 O 0.88337 0.77344 0.12772 0.0
O2489 O 0.97089 0.7513 0.11787 0.0
O2490 O 0.99158 0.8705 0.09053 0.0
O2491 O 0.07777 0.85799 0.10094 0.0
C2492 C 0.89067 0.63491 0.09911 0.0
C2493 C 0.67439 0.51455 0.11923 0.0
C2494 C 0.60048 0.39454 0.11238 0.0
C2495 C 0.63755 0.46251 0.10642 0.0
C2496 C 0.59838 0.37931 0.13133 0.0
C2497 C 0.67835 0.49801 0.13773 0.0
C2498 C 0.63883 0.43037 0.14381 0.0
C2499 C 0.80091 0.67457 0.0665 0.0
C2500 C 0.72289 0.58208 0.11247 0.0
C2501 C 0.6008 0.7247 0.13577 0.0
C2502 C 0.60952 0.76822 0.12091 0.0
C2503 C 0.92766 0.85602 0.09223 0.0
C2504 C 0.1501 0.99042 0.08958 0.0
C2505 C 0.22383 0.02817 0.09613 0.0
C2506 C 0.28106 0.08497 0.08527 0.0
C2507 C 0.26367 0.09299 0.06739 0.0
C2508 C 0.14133 0.0266 0.07504 0.0
C2509 C 0.19487 0.06698 0.06269 0.0
C2510 C 0.93579 0.7655 0.13192 0.0
C2511 C 0.08258 0.91146 0.09184 0.0
H2512 H 0.64133 0.47425 0.09181 0.0
H2513 H 0.56804 0.32798 0.13678 0.0
H2514 H 0.7147 0.53612 0.14726 0.0
H2515 H 0.6414 0.4165 0.15794 0.0
H2516 H 0.23798 1.01755 0.1093 0.0
H2517 H 0.30293 0.13023 0.05809 0.0
H2518 H 0.09151 1.00691 0.06971 0.0
H2519 H 0.18231 0.08101 0.04952 0.0
Eu2520 Eu 0.89633 0.76981 0.58312 0.0
C2521 C 0.13791 0.73118 0.62805 0.0
C2522 C 0.23862 0.78563 0.60853 0.0
C2523 C 0.24115 0.7246 0.63579 0.0
C2524 C 0.16871 0.76551 0.61215 0.0
C2525 C 0.17107 0.7038 0.63889 0.0
C2526 C 0.27595 0.76815 0.62093 0.0
C2527 C 0.06465 0.6405 0.65559 0.0
N2528 N 0.07186 0.71609 0.63161 0.0
C2529 C 0.03802 0.67685 0.64652 0.0
C2530 C 0.13061 0.65218 0.65147 0.0
Eu2531 Eu 1.00656 0.7064 0.60544 0.0
N2532 N 0.1284 0.77338 0.59949 0.0
C2533 C 0.15702 0.80632 0.58332 0.0
C2534 C 0.26755 0.81861 0.59203 0.0
C2535 C 0.22661 0.82929 0.57942 0.0
H2536 H 0.98567 0.66496 0.64959 0.0
H2537 H 0.24824 0.85378 0.5665 0.0
H2538 H 0.32959 0.78271 0.61823 0.0
H2539 H 1.03413 0.60431 0.66588 0.0
H2540 H 0.12507 0.81091 0.57291 0.0
H2541 H 0.63582 0.65947 0.62947 0.0
H2542 H 0.32086 0.83451 0.58891 0.0
H2543 H 0.89145 0.73061 0.52943 0.0
H2544 H 0.77809 0.71817 0.62442 0.0
H2545 H 0.87719 0.90035 0.51012 0.0
H2546 H 0.26816 0.70605 0.64441 0.0
H2547 H 0.54729 0.65939 0.60244 0.0
H2548 H 0.59707 0.72096 0.57084 0.0
H2549 H 0.15093 0.6238 0.65879 0.0
H2550 H 0.70096 0.81867 0.54886 0.0
N2551 N 0.78084 0.76186 0.59417 0.0
C2552 C 0.74755 0.72506 0.61401 0.0
C2553 C 0.60082 0.67884 0.59892 0.0
C2554 C 0.62801 0.71787 0.57684 0.0
C2555 C 0.65733 0.68305 0.61641 0.0
C2556 C 0.71268 0.75497 0.57164 0.0
H2557 H 0.77075 0.90629 0.52406 0.0
N2558 N 0.78809 0.70297 0.54543 0.0
C2559 C 0.84136 0.85617 0.51864 0.0
C2560 C 0.71896 0.73032 0.55152 0.0
C2561 C 0.85048 0.74375 0.53072 0.0
C2562 C 0.77666 0.86288 0.52791 0.0
C2563 C 0.71964 0.80662 0.54459 0.0
O2564 O 0.95977 0.88369 0.57763 0.0
O2565 O 1.01151 0.79105 0.58696 0.0
O2566 O 1.0074 0.77342 0.62772 0.0
O2567 O 0.89773 0.75127 0.61787 0.0
O2568 O 0.99621 0.87049 0.59027 0.0
O2569 O 0.89724 0.85768 0.60098 0.0
O2570 O 0.94762 0.61341 0.62021 0.0
O2571 O 0.90067 0.69788 0.6017 0.0
O2572 O 0.94524 0.70241 0.56482 0.0
O2573 O 1.03375 0.6907 0.57969 0.0
O2574 O 0.90283 0.61094 0.59722 0.0
O2575 O 1.02669 0.61893 0.60082 0.0
C2576 C 0.04565 0.85606 0.59217 0.0
C2577 C 0.95733 0.99021 0.58967 0.0
C2578 C 0.92097 0.08481 0.5853 0.0
C2579 C 0.92132 0.02801 0.59618 0.0
C2580 C 0.94647 0.09271 0.56742 0.0
C2581 C 1.00245 0.02643 0.57517 0.0
C2582 C 0.98931 0.06671 0.56278 0.0
C2583 C 0.94705 0.7655 0.63191 0.0
C2584 C 0.9459 0.91123 0.5919 0.0
C2585 C 0.67181 0.82626 0.55636 0.0
C2586 C 0.6212 0.77613 0.56988 0.0
C2587 C 0.86138 0.63486 0.5991 0.0
C2588 C 0.95731 0.51444 0.61922 0.0
C2589 C 0.94212 0.46242 0.60639 0.0
C2590 C 0.91141 0.39446 0.61236 0.0
C2591 C 0.89834 0.37923 0.63131 0.0
C2592 C 0.93688 0.49789 0.63772 0.0
C2593 C 0.90887 0.43026 0.64379 0.0
C2594 C 0.99084 0.67443 0.56651 0.0
C2595 C 0.97635 0.58198 0.61247 0.0
H2596 H 0.89648 1.01744 0.60933 0.0
H2597 H 0.9445 0.1299 0.55809 0.0
H2598 H 1.03272 1.00678 0.56991 0.0
H2599 H 1.01593 0.08064 0.54962 0.0
H2600 H 0.95 0.47415 0.59179 0.0
H2601 H 0.87744 0.32791 0.63676 0.0
H2602 H 0.93865 0.536 0.64725 0.0
H2603 H 0.89245 0.41636 0.65792 0.0
Eu2604 Eu 0.43032 0.20937 0.58312 0.0
C2605 C 0.46893 0.48963 0.62804 0.0
C2606 C 0.4145 0.5359 0.6085 0.0
C2607 C 0.47553 0.59946 0.63576 0.0
C2608 C 0.43459 0.48609 0.61213 0.0
C2609 C 0.49632 0.55017 0.63887 0.0
C2610 C 0.43197 0.59071 0.6209 0.0
C2611 C 0.55963 0.50705 0.65557 0.0
N2612 N 0.48401 0.43865 0.6316 0.0
C2613 C 0.52325 0.44405 0.64651 0.0
C2614 C 0.54795 0.56132 0.65145 0.0
Eu2615 Eu 0.49371 0.38303 0.60543 0.0
N2616 N 0.42671 0.43789 0.59948 0.0
C2617 C 0.39376 0.43356 0.5833 0.0
C2618 C 0.38153 0.53186 0.592 0.0
C2619 C 0.37083 0.48021 0.57939 0.0
H2620 H 0.53514 0.40358 0.64959 0.0
H2621 H 0.34633 0.47735 0.56648 0.0
H2622 H 0.41742 0.6298 0.6182 0.0
H2623 H 0.59585 0.51272 0.66586 0.0
H2624 H 0.38915 0.397 0.5729 0.0
H2625 H 0.54075 0.05926 0.62947 0.0
H2626 H 0.36566 0.5693 0.58887 0.0
H2627 H 0.4695 0.24367 0.52942 0.0
H2628 H 0.48201 0.14282 0.62442 0.0
H2629 H 0.29981 0.05966 0.51011 0.0
H2630 H 0.49408 0.64502 0.64438 0.0
H2631 H 0.54083 0.9708 0.60245 0.0
H2632 H 0.47923 0.95897 0.57085 0.0
H2633 H 0.57632 0.61002 0.65877 0.0
H2634 H 0.38152 0.96515 0.54887 0.0
N2635 N 0.43832 0.10186 0.59417 0.0
C2636 C 0.47512 0.10538 0.61401 0.0
C2637 C 0.52137 1.00487 0.59892 0.0
C2638 C 0.48233 0.99302 0.57685 0.0
C2639 C 0.51715 0.05718 0.61641 0.0
C2640 C 0.44521 0.04057 0.57164 0.0
H2641 H 0.2939 0.94731 0.52407 0.0
N2642 N 0.49716 0.16797 0.54543 0.0
C2643 C 0.34399 0.06803 0.51864 0.0
C2644 C 0.46985 0.07149 0.55152 0.0
C2645 C 0.45637 0.18956 0.53071 0.0
C2646 C 0.33731 0.99663 0.52791 0.0
C2647 C 0.39356 0.99588 0.5446 0.0
O2648 O 0.31647 0.15899 0.5776 0.0
O2649 O 0.40908 0.30332 0.58696 0.0
O2650 O 0.42671 0.31685 0.62772 0.0
O2651 O 0.44886 0.22932 0.61786 0.0
O2652 O 0.32968 0.20859 0.59031 0.0
O2653 O 0.3424 0.12243 0.60096 0.0
O2654 O 0.58669 0.41707 0.62021 0.0
O2655 O 0.50224 0.28565 0.60169 0.0
O2656 O 0.49773 0.32569 0.56482 0.0
O2657 O 0.50935 0.42589 0.57969 0.0
O2658 O 0.58917 0.37474 0.59722 0.0
O2659 O 0.58117 0.49062 0.60081 0.0
C2660 C 0.34409 0.27245 0.59218 0.0
C2661 C 0.20992 0.05004 0.58964 0.0
C2662 C 0.11532 0.91912 0.58526 0.0
C2663 C 0.17214 0.97625 0.59615 0.0
C2664 C 0.10741 0.93669 0.56739 0.0
C2665 C 0.17372 0.05895 0.57512 0.0
C2666 C 0.13341 1.00553 0.56274 0.0
C2667 C 0.43463 0.26441 0.63191 0.0
C2668 C 0.28889 0.11757 0.59188 0.0
C2669 C 0.37393 0.92843 0.55637 0.0
C2670 C 0.42406 0.92794 0.5699 0.0
C2671 C 0.56526 0.30937 0.5991 0.0
C2672 C 0.68566 0.52571 0.61922 0.0
C2673 C 0.73768 0.56257 0.6064 0.0
C2674 C 0.80563 0.59978 0.61236 0.0
C2675 C 0.82086 0.60192 0.63131 0.0
C2676 C 0.7022 0.5218 0.63772 0.0
C2677 C 0.76983 0.5614 0.64379 0.0
C2678 C 0.52568 0.39927 0.5665 0.0
C2679 C 0.61812 0.47723 0.61246 0.0
H2680 H 0.18275 0.96197 0.6093 0.0
H2681 H 0.07019 0.89752 0.55806 0.0
H2682 H 0.19337 0.10884 0.56986 0.0
H2683 H 0.11942 1.01822 0.54958 0.0
H2684 H 0.72595 0.55874 0.59179 0.0
H2685 H 0.87218 0.63231 0.63676 0.0
H2686 H 0.6641 0.48545 0.64724 0.0
H2687 H 0.78372 0.55885 0.65792 0.0
Eu2688 Eu 0.99078 0.30377 0.58311 0.0
C2689 C 0.71059 0.06225 0.62805 0.0
C2690 C 0.66432 0.96155 0.60853 0.0
C2691 C 0.60079 0.95902 0.63579 0.0
C2692 C 0.71412 0.03146 0.61215 0.0
C2693 C 0.65007 0.02911 0.63889 0.0
C2694 C 0.60954 0.92422 0.62093 0.0
C2695 C 0.69317 0.13553 0.65559 0.0
N2696 N 0.76155 0.12831 0.63162 0.0
C2697 C 0.75616 0.16215 0.64653 0.0
C2698 C 0.63891 0.06957 0.65147 0.0
Eu2699 Eu 0.81714 0.19362 0.60544 0.0
N2700 N 0.76228 0.07177 0.59949 0.0
C2701 C 0.76658 0.04315 0.58331 0.0
C2702 C 0.66836 0.93262 0.59203 0.0
C2703 C 0.71996 0.97357 0.57941 0.0
H2704 H 0.7966 0.2145 0.6496 0.0
H2705 H 0.72282 0.95194 0.56649 0.0
H2706 H 0.57046 0.87058 0.61823 0.0
H2707 H 0.68749 0.16606 0.66588 0.0
H2708 H 0.8031 0.07511 0.5729 0.0
H2709 H 0.14075 0.56434 0.62946 0.0
H2710 H 0.63094 0.87932 0.58891 0.0
H2711 H 0.95654 0.30863 0.52941 0.0
H2712 H 0.0573 0.42204 0.62441 0.0
H2713 H 0.14062 0.32307 0.51011 0.0
H2714 H 0.55524 0.93202 0.64441 0.0
H2715 H 0.22916 0.65289 0.60243 0.0
H2716 H 0.24099 0.60315 0.57082 0.0
H2717 H 0.59021 0.04924 0.65879 0.0
H2718 H 0.23502 0.4994 0.54885 0.0
N2719 N 0.09828 0.41931 0.59416 0.0
C2720 C 0.09473 0.45259 0.614 0.0
C2721 C 0.19514 0.59936 0.5989 0.0
C2722 C 0.20701 0.57217 0.57683 0.0
C2723 C 0.14286 0.54283 0.6164 0.0
C2724 C 0.15952 0.48749 0.57164 0.0
H2725 H 0.25291 0.42954 0.52407 0.0
N2726 N 1.03216 0.412 0.54542 0.0
C2727 C 0.13222 0.35887 0.51863 0.0
C2728 C 0.12861 0.48119 0.55151 0.0
C2729 C 1.01062 0.34963 0.5307 0.0
C2730 C 0.20358 0.4236 0.52791 0.0
C2731 C 0.20426 0.48055 0.5446 0.0
O2732 O 0.04114 0.24028 0.57755 0.0
O2733 O 0.89677 0.18861 0.58695 0.0
O2734 O 0.88331 0.19273 0.62771 0.0
O2735 O 0.97085 0.30238 0.61786 0.0
O2736 O 0.99164 0.20397 0.59039 0.0
O2737 O 0.0777 0.30264 0.60093 0.0
O2738 O 0.7831 0.25255 0.62022 0.0
O2739 O 0.91456 0.29948 0.60169 0.0
O2740 O 0.87446 0.25481 0.56482 0.0
O2741 O 0.77419 0.16643 0.5797 0.0
O2742 O 0.82537 0.29736 0.59721 0.0
O2743 O 0.70955 0.17349 0.60083 0.0
C2744 C 0.92774 0.15459 0.59217 0.0
C2745 C 0.15008 0.24258 0.58958 0.0
C2746 C 0.28102 0.27901 0.58525 0.0
C2747 C 0.22381 0.27858 0.59612 0.0
C2748 C 0.26361 0.25365 0.56736 0.0
C2749 C 0.14129 0.19762 0.57504 0.0
C2750 C 0.19482 0.21084 0.56268 0.0
C2751 C 0.93575 0.25308 0.6319 0.0
C2752 C 0.08255 0.25403 0.59182 0.0
C2753 C 0.2717 0.52848 0.55636 0.0
C2754 C 0.27213 0.57912 0.56987 0.0
C2755 C 0.89074 0.3387 0.59909 0.0
C2756 C 0.67443 0.24285 0.61924 0.0
C2757 C 0.63755 0.25798 0.60641 0.0
C2758 C 0.60033 0.28871 0.61237 0.0
C2759 C 0.59819 0.30184 0.63132 0.0
C2760 C 0.67835 0.26333 0.63773 0.0
C2761 C 0.63873 0.29135 0.6438 0.0
C2762 C 0.80087 0.20927 0.5665 0.0
C2763 C 0.72292 0.22381 0.61248 0.0
H2764 H 0.23796 0.30335 0.60928 0.0
H2765 H 0.30286 0.25569 0.55806 0.0
H2766 H 0.09147 0.16749 0.56972 0.0
H2767 H 0.18225 0.18427 0.5495 0.0
H2768 H 0.64138 0.25006 0.59181 0.0
H2769 H 0.56779 0.32276 0.63677 0.0
H2770 H 0.71472 0.2616 0.64726 0.0
H2771 H 0.64128 0.30781 0.65793 0.0
Eu2772 Eu 0.44803 0.21828 0.20177 0.0
C2773 C 0.40941 0.45991 0.15685 0.0
C2774 C 0.46386 0.56062 0.17637 0.0
C2775 C 0.40282 0.56315 0.14912 0.0
C2776 C 0.44375 0.4907 0.17276 0.0
C2777 C 0.38202 0.49307 0.14602 0.0
C2778 C 0.44638 0.59795 0.16397 0.0
C2779 C 0.31871 0.38665 0.12932 0.0
N2780 N 0.39432 0.39385 0.15329 0.0
C2781 C 0.35508 0.36001 0.13838 0.0
C2782 C 0.3304 0.45261 0.13343 0.0
Eu2783 Eu 0.38463 0.32853 0.17946 0.0
N2784 N 0.45162 0.45039 0.1854 0.0
C2785 C 0.48458 0.47901 0.20158 0.0
C2786 C 0.49686 0.58955 0.19287 0.0
C2787 C 0.50755 0.5486 0.20548 0.0
H2788 H 0.34318 0.30766 0.13531 0.0
H2789 H 0.53205 0.57024 0.2184 0.0
H2790 H 0.46094 0.6516 0.16667 0.0
H2791 H 0.28252 0.35612 0.11903 0.0
H2792 H 0.48918 0.44706 0.21199 0.0
H2793 H 0.33759 0.95776 0.15542 0.0
H2794 H 0.51276 0.64287 0.19599 0.0
H2795 H 0.40885 0.2134 0.25546 0.0
H2796 H 0.39633 0.10004 0.16047 0.0
H2797 H 0.57855 0.19906 0.27477 0.0
H2798 H 0.38427 0.59017 0.1405 0.0
H2799 H 0.33751 0.86921 0.18244 0.0
H2800 H 0.39913 0.91898 0.21404 0.0
H2801 H 0.30203 0.47294 0.12611 0.0
H2802 H 0.49686 0.02289 0.23601 0.0
N2803 N 0.44003 0.10278 0.19072 0.0
C2804 C 0.40323 0.0695 0.17088 0.0
C2805 C 0.35698 0.92274 0.18597 0.0
C2806 C 0.39602 0.94992 0.20804 0.0
C2807 C 0.3612 0.97927 0.16848 0.0
C2808 C 0.43314 0.03459 0.21325 0.0
H2809 H 0.58446 0.09262 0.26082 0.0
N2810 N 0.38119 0.11003 0.23946 0.0
C2811 C 0.53437 0.16325 0.26625 0.0
C2812 C 0.40851 0.04088 0.23337 0.0
C2813 C 0.42199 0.17242 0.25417 0.0
C2814 C 0.54106 0.09854 0.25698 0.0
C2815 C 0.4848 0.04153 0.24029 0.0
O2816 O 0.56189 0.28171 0.20727 0.0
O2817 O 0.46927 0.33346 0.19793 0.0
O2818 O 0.45163 0.32936 0.15717 0.0
O2819 O 0.42948 0.21968 0.16702 0.0
O2820 O 0.54868 0.31814 0.1946 0.0
O2821 O 0.53591 0.21921 0.18391 0.0
O2822 O 0.29164 0.2696 0.16469 0.0
O2823 O 0.3761 0.22263 0.1832 0.0
O2824 O 0.38061 0.26717 0.22007 0.0
O2825 O 0.36899 0.35575 0.2052 0.0
O2826 O 0.28916 0.22479 0.18767 0.0
O2827 O 0.29716 0.34867 0.18408 0.0
C2828 C 0.53427 0.36759 0.19272 0.0
C2829 C 0.66842 0.27928 0.19522 0.0
C2830 C 0.76301 0.24291 0.1996 0.0
C2831 C 0.7062 0.24326 0.18872 0.0
C2832 C 0.77092 0.26844 0.21747 0.0
C2833 C 0.70463 0.32442 0.20973 0.0
C2834 C 0.74494 0.31131 0.22211 0.0
C2835 C 0.44372 0.269 0.15298 0.0
C2836 C 0.58944 0.26786 0.19299 0.0
C2837 C 0.50443 0.99372 0.22852 0.0
C2838 C 0.4543 0.94312 0.21499 0.0
C2839 C 0.31308 0.18334 0.18579 0.0
C2840 C 0.19267 0.27928 0.16568 0.0
C2841 C 0.14063 0.26409 0.1785 0.0
C2842 C 0.07269 0.23338 0.17253 0.0
C2843 C 0.05748 0.22032 0.15358 0.0
C2844 C 0.17615 0.25885 0.14718 0.0
C2845 C 0.10852 0.23084 0.1411 0.0
C2846 C 0.35264 0.31279 0.21838 0.0
C2847 C 0.2602 0.29833 0.17244 0.0
H2848 H 0.6956 0.2184 0.17557 0.0
H2849 H 0.80813 0.26649 0.2268 0.0
H2850 H 0.685 0.3547 0.21498 0.0
H2851 H 0.75891 0.33797 0.23527 0.0
H2852 H 0.15234 0.27196 0.19311 0.0
H2853 H 1.00618 0.19941 0.14812 0.0
H2854 H 0.21426 0.26061 0.13766 0.0
H2855 H 0.09465 0.21441 0.12697 0.0
Eu2856 Eu 0.98198 0.31274 0.20176 0.0
C2857 C 0.74048 0.03253 0.15683 0.0
C2858 C 0.63978 0.98628 0.17635 0.0
C2859 C 0.63725 0.92274 0.14909 0.0
C2860 C 0.70969 0.03607 0.17274 0.0
C2861 C 0.70733 0.97201 0.14599 0.0
C2862 C 0.60245 0.93149 0.16395 0.0
C2863 C 0.81374 1.01511 0.12929 0.0
N2864 N 0.80654 0.08349 0.15326 0.0
C2865 C 0.84037 0.07809 0.13835 0.0
C2866 C 0.74779 0.96085 0.1334 0.0
Eu2867 Eu 0.87184 0.13909 0.17944 0.0
N2868 N 0.75 0.08422 0.18539 0.0
C2869 C 0.72138 0.08852 0.20157 0.0
C2870 C 0.61085 0.99032 0.19285 0.0
C2871 C 0.65179 0.04192 0.20547 0.0
H2872 H 0.89271 0.11855 0.13528 0.0
H2873 H 0.63015 0.04478 0.21838 0.0
H2874 H 0.54881 0.89242 0.16665 0.0
H2875 H 0.84426 1.00942 0.119 0.0
H2876 H 0.75332 0.12504 0.21198 0.0
H2877 H 0.24253 0.46279 0.15542 0.0
H2878 H 0.55753 0.95293 0.19597 0.0
H2879 H 0.98683 0.27845 0.25546 0.0
H2880 H 0.10025 0.3793 0.16047 0.0
H2881 H 1.00121 0.46252 0.27476 0.0
H2882 H 0.61024 0.8772 0.14047 0.0
H2883 H 0.33107 0.5512 0.18245 0.0
H2884 H 0.28131 0.56299 0.21406 0.0
H2885 H 0.72745 0.91215 0.12608 0.0
H2886 H 0.17751 0.55697 0.23602 0.0
N2887 N 0.09751 0.42026 0.19071 0.0
C2888 C 0.13079 0.41673 0.17087 0.0
C2889 C 0.27754 0.51715 0.18597 0.0
C2890 C 0.25034 0.529 0.20805 0.0
C2891 C 0.22102 0.46488 0.16848 0.0
C2892 C 0.16567 0.4815 0.21324 0.0
H2893 H 0.10768 0.57483 0.26081 0.0
N2894 N 0.0902 0.35411 0.23945 0.0
C2895 C 0.03702 0.45412 0.26624 0.0
C2896 C 0.15937 0.45057 0.23336 0.0
C2897 C 1.02782 0.33254 0.25417 0.0
C2898 C 0.10174 0.5255 0.25697 0.0
C2899 C 0.15872 0.52621 0.24028 0.0
O2900 O 0.91853 0.36316 0.20729 0.0
O2901 O 0.86682 0.21873 0.19793 0.0
O2902 O 0.87094 0.20526 0.15716 0.0
O2903 O 0.98059 0.29279 0.16701 0.0
O2904 O 0.88217 0.31361 0.19452 0.0
O2905 O 0.98096 0.39968 0.18392 0.0
O2906 O 0.93078 0.10506 0.16466 0.0
O2907 O 0.97769 0.23652 0.18318 0.0
O2908 O 0.93303 0.19642 0.22006 0.0
O2909 O 0.84466 0.09615 0.20518 0.0
O2910 O 0.97557 0.14733 0.18768 0.0
O2911 O 0.85174 0.03151 0.18405 0.0
C2912 C 0.83279 0.24971 0.19272 0.0
C2913 C 0.9209 0.47211 0.19525 0.0
C2914 C 0.95737 0.6031 0.19959 0.0
C2915 C 0.95692 0.54587 0.18872 0.0
C2916 C 0.93194 0.58559 0.21747 0.0
C2917 C 0.87587 0.46329 0.20977 0.0
C2918 C 0.88909 0.51678 0.22214 0.0
C2919 C 0.93128 0.25769 0.15297 0.0
C2920 C 0.93233 0.40456 0.19302 0.0
C2921 C 0.20663 0.59366 0.22852 0.0
C2922 C 0.25727 0.59412 0.21501 0.0
C2923 C 1.01691 0.2127 0.18579 0.0
C2924 C 0.92111 0.9964 0.16565 0.0
C2925 C 0.93626 0.95953 0.17848 0.0
C2926 C 0.96695 0.92227 0.17252 0.0
C2927 C 0.98003 0.92011 0.15356 0.0
C2928 C 0.94155 1.00029 0.14715 0.0
C2929 C 0.96955 0.96065 0.14108 0.0
C2930 C 0.88749 0.12283 0.21838 0.0
C2931 C 0.90206 0.04489 0.1724 0.0
H2932 H 0.9817 0.56006 0.17556 0.0
H2933 H 0.93396 0.6248 0.22679 0.0
H2934 H 0.84564 0.41342 0.21506 0.0
H2935 H 0.86252 0.50417 0.23531 0.0
H2936 H 0.92837 0.96338 0.19308 0.0
H2937 H 1.00093 0.88969 0.14811 0.0
H2938 H 0.9398 0.03665 0.13762 0.0
H2939 H 0.98598 0.96318 0.12695 0.0
Eu2940 Eu 0.88757 0.75221 0.20176 0.0
C2941 C 0.1678 0.79089 0.15683 0.0
C2942 C 0.21408 0.73646 0.17637 0.0
C2943 C 0.2776 0.79745 0.1491 0.0
C2944 C 0.16427 0.75657 0.17274 0.0
C2945 C 0.22832 0.81826 0.146 0.0
C2946 C 0.26887 0.75391 0.16396 0.0
C2947 C 0.18521 0.88157 0.12929 0.0
N2948 N 0.11683 0.80599 0.15327 0.0
C2949 C 0.12223 0.84522 0.13835 0.0
C2950 C 0.23948 0.86987 0.13341 0.0
Eu2951 Eu 0.06123 0.81571 0.17944 0.0
N2952 N 0.1161 0.74871 0.18539 0.0
C2953 C 0.1118 0.71579 0.20158 0.0
C2954 C 0.21005 0.70351 0.19287 0.0
C2955 C 0.15843 0.69284 0.20548 0.0
H2956 H 0.08177 0.85711 0.13528 0.0
H2957 H 0.15557 0.66836 0.2184 0.0
H2958 H 0.30795 0.73935 0.16667 0.0
H2959 H 0.19089 0.91779 0.119 0.0
H2960 H 0.07526 0.71121 0.21198 0.0
H2961 H 0.73762 0.8628 0.1554 0.0
H2962 H 0.24749 0.68764 0.196 0.0
H2963 H 0.92181 0.79134 0.25547 0.0
H2964 H 0.82108 0.80396 0.16046 0.0
H2965 H 0.73773 0.62171 0.27477 0.0
H2966 H 0.32315 0.81598 0.14048 0.0
H2967 H 0.64918 0.86295 0.18243 0.0
H2968 H 0.63732 0.80136 0.21403 0.0
H2969 H 0.28817 0.89823 0.12609 0.0
H2970 H 0.64333 0.70362 0.23602 0.0
N2971 N 0.7801 0.76028 0.19071 0.0
C2972 C 0.78366 0.7971 0.17087 0.0
C2973 C 0.68322 0.84345 0.18595 0.0
C2974 C 0.67134 0.80439 0.20802 0.0
C2975 C 0.73551 0.8392 0.16847 0.0
C2976 C 0.71884 0.76722 0.21323 0.0
H2977 H 0.62544 0.61589 0.2608 0.0
N2978 N 0.84618 0.81908 0.23945 0.0
C2979 C 0.74613 0.66591 0.26624 0.0
C2980 C 0.74973 0.79182 0.23336 0.0
C2981 C 0.86773 0.77825 0.25418 0.0
C2982 C 0.67477 0.65928 0.25696 0.0
C2983 C 0.67409 0.71555 0.24027 0.0
O2984 O 0.83722 0.63837 0.20733 0.0
O2985 O 0.98159 0.73107 0.19793 0.0
O2986 O 0.99506 0.74868 0.15716 0.0
O2987 O 0.9075 0.77076 0.16702 0.0
O2988 O 0.88672 0.65159 0.19447 0.0
O2989 O 0.80066 0.66416 0.18395 0.0
O2990 O 0.09528 0.90868 0.16466 0.0
O2991 O 0.9638 0.82414 0.18318 0.0
O2992 O 1.00389 0.81958 0.22006 0.0
O2993 O 0.10416 0.83143 0.20518 0.0
O2994 O 0.05298 0.9112 0.18767 0.0
O2995 O 0.16881 0.90316 0.18406 0.0
C2996 C 0.95063 0.66609 0.1927 0.0
C2997 C 0.72828 0.53174 0.19531 0.0
C2998 C 0.59734 0.43722 0.19964 0.0
C2999 C 0.65454 0.494 0.18877 0.0
C3000 C 0.61476 0.42927 0.21753 0.0
C3001 C 0.73707 0.49556 0.20985 0.0
C3002 C 0.68356 0.45525 0.22221 0.0
C3003 C 0.9426 0.75656 0.15297 0.0
C3004 C 0.79581 0.61071 0.19306 0.0
C3005 C 0.60667 0.696 0.22849 0.0
C3006 C 0.60622 0.74618 0.21498 0.0
C3007 C 0.98761 0.88717 0.18578 0.0
C3008 C 0.20394 1.00765 0.16565 0.0
C3009 C 0.24078 0.05965 0.17848 0.0
C3010 C 0.27801 0.12761 0.17252 0.0
C3011 C 0.28016 0.14287 0.15357 0.0
C3012 C 0.20006 0.02421 0.14715 0.0
C3013 C 0.23968 0.09185 0.14108 0.0
C3014 C 0.07748 0.84761 0.21838 0.0
C3015 C 0.15544 0.94011 0.1724 0.0
H3016 H 0.64038 0.50462 0.17561 0.0
H3017 H 0.57552 0.39205 0.22684 0.0
H3018 H 0.7869 0.51526 0.21517 0.0
H3019 H 0.69614 0.44123 0.23538 0.0
H3020 H 0.23693 0.0479 0.19308 0.0
H3021 H 0.31055 0.1942 0.14812 0.0
H3022 H 0.16372 0.98611 0.13762 0.0
H3023 H 0.23716 0.10576 0.12695 0.0
loop_
_geom_bond_atom_site_label_1
_geom_bond_atom_site_label_2
_geom_bond_distance
_geom_bond_site_symmetry_2
_ccdc_geom_bond_type
Eu0 N31 2.657 . S
Eu0 N38 2.609 . S
Eu0 O44 2.558 . S
Eu0 O45 2.612 . S
Eu0 O47 2.339 . S
Eu0 O48 2.563 . S
Eu0 O49 2.419 . S
Eu0 O51 2.380 . S
Eu0 O52 2.432 . S
Eu0 C64 2.848 . S
C1 C4 1.429 . S
C1 C5 1.411 . S
C1 N8 1.377 . S
C2 C4 1.420 . S
C2 C6 1.423 . S
C2 C14 1.392 . S
C3 C5 1.420 . S
C3 C6 1.351 . S
C3 H26 0.931 . S
C4 C1 1.429 . S
C4 C2 1.420 . S
C4 N12 1.362 . S
C5 C1 1.411 . S
C5 C3 1.420 . S
C5 C10 1.395 . S
C6 C2 1.423 . S
C6 C3 1.351 . S
C6 H18 0.930 . S
C7 C9 1.400 . S
C7 C10 1.386 . S
C7 H19 0.930 . S
N8 C1 1.377 . S
N8 C9 1.321 . S
N8 Eu11 2.609 . S
C9 C7 1.400 . S
C9 N8 1.321 . S
C9 H16 0.930 . S
C10 C5 1.395 . S
C10 C7 1.386 . S
C10 H29 0.930 . S
Eu11 N8 2.609 . S
Eu11 N12 2.657 . S
Eu11 O45 2.380 . S
Eu11 O46 2.432 . S
Eu11 O50 2.558 1_545 S
Eu11 O51 2.612 . S
Eu11 O53 2.339 . S
Eu11 O54 2.563 1_545 S
Eu11 O55 2.419 1_545 S
Eu11 C75 2.848 1_545 S
N12 C4 1.362 . S
N12 Eu11 2.657 . S
N12 C13 1.334 . S
C13 N12 1.334 . S
C13 C15 1.413 . S
C13 H20 0.929 . S
C14 C2 1.392 . S
C14 C15 1.367 . S
C14 H22 0.930 . S
C15 C13 1.413 . S
C15 C14 1.367 . S
C15 H17 0.930 . S
H16 C9 0.930 . S
H17 C15 0.930 . S
H18 C6 0.930 . S
H19 C7 0.930 . S
H20 C13 0.929 . S
H21 C35 0.930 . S
H22 C14 0.930 . S
H23 C41 0.930 . S
H24 C32 0.929 . S
H25 C39 0.930 . S
H26 C3 0.931 . S
H27 C33 0.930 1_565 S
H28 C66 0.930 1_565 S
H29 C10 0.930 . S
H30 C65 0.931 . S
N31 Eu0 2.657 . S
N31 C32 1.334 . S
N31 C36 1.362 . S
C32 H24 0.929 . S
C32 N31 1.334 . S
C32 C35 1.413 . S
C33 H27 0.930 1_545 S
C33 C34 1.392 . S
C33 C35 1.367 . S
C34 C33 1.392 . S
C34 C36 1.420 . S
C34 C66 1.423 . S
C35 H21 0.930 . S
C35 C32 1.413 . S
C35 C33 1.367 . S
C36 N31 1.362 . S
C36 C34 1.420 . S
C36 C40 1.429 . S
H37 C42 0.930 . S
N38 Eu0 2.609 . S
N38 C40 1.377 . S
N38 C41 1.321 1_554 S
C39 H25 0.930 . S
C39 C41 1.400 . S
C39 C42 1.386 . S
C40 C36 1.429 . S
C40 N38 1.377 . S
C40 C43 1.411 1_554 S
C41 H23 0.930 . S
C41 N38 1.321 1_556 S
C41 C39 1.400 . S
C42 H37 0.930 . S
C42 C39 1.386 . S
C42 C43 1.395 . S
C43 C40 1.411 1_556 S
C43 C42 1.395 . S
C43 C65 1.420 . S
O44 Eu0 2.558 . S
O44 C64 1.257 . S
O45 Eu0 2.612 . S
O45 Eu11 2.380 . S
O45 C56 1.276 . S
O46 Eu11 2.432 . S
O46 C63 1.264 . S
O47 Eu0 2.339 . S
O47 C63 1.254 . S
O48 Eu0 2.563 . S
O48 C56 1.235 . S
O49 Eu0 2.419 . S
O49 C64 1.249 . S
O50 Eu11 2.558 1_565 S
O50 C75 1.257 . S
O51 Eu0 2.380 . S
O51 Eu11 2.612 . S
O51 C67 1.276 1_545 S
O52 Eu0 2.432 . S
O52 C74 1.264 . S
O53 Eu11 2.339 . S
O53 C74 1.254 . S
O54 Eu11 2.563 1_565 S
O54 C67 1.235 . S
O55 Eu11 2.419 1_565 S
O55 C75 1.249 . S
C56 O45 1.276 . S
C56 O48 1.235 . S
C57 C59 1.393 . S
C57 C61 1.395 . S
C57 C64 1.492 . S
C58 C59 1.392 . S
C58 C60 1.386 . S
C59 C57 1.393 . S
C59 C58 1.392 . S
C59 H76 0.930 . S
C60 C58 1.386 . S
C60 C62 1.395 . S
C60 H77 0.930 . S
C61 C57 1.395 . S
C61 C62 1.379 . S
C61 H78 0.930 1_554 S
C62 C60 1.395 . S
C62 C61 1.379 . S
C62 H79 0.930 1_554 S
C63 O46 1.264 . S
C63 O47 1.254 . S
C64 Eu0 2.848 . S
C64 O44 1.257 . S
C64 O49 1.249 . S
C64 C57 1.492 . S
C65 H30 0.931 . S
C65 C43 1.420 . S
C65 C66 1.351 1_556 S
C66 H28 0.930 1_545 S
C66 C34 1.423 . S
C66 C65 1.351 1_554 S
C67 O51 1.276 1_565 S
C67 O54 1.235 . S
C68 C69 1.393 . S
C68 C72 1.395 . S
C68 C75 1.492 . S
C69 C68 1.393 . S
C69 C70 1.392 . S
C69 H80 0.930 . S
C70 C69 1.392 . S
C70 C71 1.386 . S
C71 C70 1.386 . S
C71 C73 1.395 . S
C71 H81 0.930 . S
C72 C68 1.395 . S
C72 C73 1.379 . S
C72 H82 0.930 . S
C73 C71 1.395 . S
C73 C72 1.379 . S
C73 H83 0.930 . S
C74 O52 1.264 . S
C74 O53 1.254 . S
C75 Eu11 2.848 1_565 S
C75 O50 1.257 . S
C75 O55 1.249 . S
C75 C68 1.492 . S
H76 C59 0.930 . S
H77 C60 0.930 . S
H78 C61 0.930 1_556 S
H79 C62 0.930 1_556 S
H80 C69 0.930 . S
H81 C71 0.930 . S
H82 C72 0.930 . S
H83 C73 0.930 . S
Eu84 N115 2.657 . S
Eu84 N122 2.609 . S
Eu84 O128 2.558 1_455 S
Eu84 O129 2.612 1_455 S
Eu84 O131 2.339 . S
Eu84 O132 2.563 1_455 S
Eu84 O133 2.419 1_455 S
Eu84 O135 2.380 . S
Eu84 O136 2.432 . S
Eu84 C148 2.848 1_455 S
C85 C88 1.429 . S
C85 C89 1.411 . S
C85 N92 1.377 . S
C86 C88 1.420 1_655 S
C86 C90 1.423 . S
C86 C98 1.392 . S
C87 C89 1.420 1_655 S
C87 C90 1.351 . S
C87 H110 0.931 . S
C88 C85 1.429 . S
C88 C86 1.420 1_455 S
C88 N96 1.362 . S
C89 C85 1.411 . S
C89 C87 1.420 1_455 S
C89 C94 1.395 . S
C90 C86 1.423 . S
C90 C87 1.351 . S
C90 H102 0.930 . S
C91 C93 1.400 . S
C91 C94 1.386 . S
C91 H103 0.930 . S
N92 C85 1.377 . S
N92 C93 1.321 . S
N92 Eu95 2.609 . S
C93 C91 1.400 . S
C93 N92 1.321 . S
C93 H100 0.930 . S
C94 C89 1.395 . S
C94 C91 1.386 . S
C94 H113 0.930 . S
Eu95 N92 2.609 . S
Eu95 N96 2.657 . S
Eu95 O129 2.380 1_455 S
Eu95 O130 2.432 . S
Eu95 O134 2.558 . S
Eu95 O135 2.612 . S
Eu95 O137 2.339 . S
Eu95 O138 2.563 . S
Eu95 O139 2.419 . S
Eu95 C159 2.848 . S
N96 C88 1.362 . S
N96 Eu95 2.657 . S
N96 C97 1.334 . S
C97 N96 1.334 . S
C97 C99 1.413 1_455 S
C97 H104 0.929 . S
C98 C86 1.392 . S
C98 C99 1.367 . S
C98 H106 0.930 . S
C99 C97 1.413 1_655 S
C99 C98 1.367 . S
C99 H101 0.930 . S
H100 C93 0.930 . S
H101 C99 0.930 . S
H102 C90 0.930 . S
H103 C91 0.930 . S
H104 C97 0.929 . S
H105 C119 0.930 . S
H106 C98 0.930 . S
H107 C125 0.930 . S
H108 C116 0.929 . S
H109 C123 0.930 . S
H110 C87 0.931 . S
H111 C117 0.930 . S
H112 C150 0.930 . S
H113 C94 0.930 . S
H114 C149 0.931 . S
N115 Eu84 2.657 . S
N115 C116 1.334 . S
N115 C120 1.362 . S
C116 H108 0.929 . S
C116 N115 1.334 . S
C116 C119 1.413 . S
C117 H111 0.930 . S
C117 C118 1.392 . S
C117 C119 1.367 . S
C118 C117 1.392 . S
C118 C120 1.420 . S
C118 C150 1.423 . S
C119 H105 0.930 . S
C119 C116 1.413 . S
C119 C117 1.367 . S
C120 N115 1.362 . S
C120 C118 1.420 . S
C120 C124 1.429 . S
H121 C126 0.930 . S
N122 Eu84 2.609 . S
N122 C124 1.377 . S
N122 C125 1.321 1_554 S
C123 H109 0.930 . S
C123 C125 1.400 . S
C123 C126 1.386 . S
C124 C120 1.429 . S
C124 N122 1.377 . S
C124 C127 1.411 1_554 S
C125 H107 0.930 . S
C125 N122 1.321 1_556 S
C125 C123 1.400 . S
C126 H121 0.930 . S
C126 C123 1.386 . S
C126 C127 1.395 . S
C127 C124 1.411 1_556 S
C127 C126 1.395 . S
C127 C149 1.420 . S
O128 Eu84 2.558 1_655 S
O128 C148 1.257 . S
O129 Eu84 2.612 1_655 S
O129 Eu95 2.380 1_655 S
O129 C140 1.276 . S
O130 Eu95 2.432 . S
O130 C147 1.264 . S
O131 Eu84 2.339 . S
O131 C147 1.254 . S
O132 Eu84 2.563 1_655 S
O132 C140 1.235 . S
O133 Eu84 2.419 1_655 S
O133 C148 1.249 . S
O134 Eu95 2.558 . S
O134 C159 1.257 . S
O135 Eu84 2.380 . S
O135 Eu95 2.612 . S
O135 C151 1.276 . S
O136 Eu84 2.432 . S
O136 C158 1.264 . S
O137 Eu95 2.339 . S
O137 C158 1.254 . S
O138 Eu95 2.563 . S
O138 C151 1.235 . S
O139 Eu95 2.419 . S
O139 C159 1.249 . S
C140 O129 1.276 . S
C140 O132 1.235 . S
C141 C143 1.393 . S
C141 C145 1.395 . S
C141 C148 1.492 . S
C142 C143 1.392 . S
C142 C144 1.386 . S
C143 C141 1.393 . S
C143 C142 1.392 . S
C143 H160 0.930 . S
C144 C142 1.386 . S
C144 C146 1.395 . S
C144 H161 0.930 . S
C145 C141 1.395 . S
C145 C146 1.379 . S
C145 H162 0.930 1_554 S
C146 C144 1.395 . S
C146 C145 1.379 . S
C146 H163 0.930 1_554 S
C147 O130 1.264 . S
C147 O131 1.254 . S
C148 Eu84 2.848 1_655 S
C148 O128 1.257 . S
C148 O133 1.249 . S
C148 C141 1.492 . S
C149 H114 0.931 . S
C149 C127 1.420 . S
C149 C150 1.351 1_556 S
C150 H112 0.930 . S
C150 C118 1.423 . S
C150 C149 1.351 1_554 S
C151 O135 1.276 . S
C151 O138 1.235 . S
C152 C153 1.393 . S
C152 C156 1.395 . S
C152 C159 1.492 . S
C153 C152 1.393 . S
C153 C154 1.392 . S
C153 H164 0.930 . S
C154 C153 1.392 . S
C154 C155 1.386 . S
C155 C154 1.386 . S
C155 C157 1.395 . S
C155 H165 0.930 . S
C156 C152 1.395 . S
C156 C157 1.379 . S
C156 H166 0.930 . S
C157 C155 1.395 . S
C157 C156 1.379 . S
C157 H167 0.930 . S
C158 O136 1.264 . S
C158 O137 1.254 . S
C159 Eu95 2.848 . S
C159 O134 1.257 . S
C159 O139 1.249 . S
C159 C152 1.492 . S
H160 C143 0.930 . S
H161 C144 0.930 . S
H162 C145 0.930 1_556 S
H163 C146 0.930 1_556 S
H164 C153 0.930 . S
H165 C155 0.930 . S
H166 C156 0.930 . S
H167 C157 0.930 . S
Eu168 N199 2.657 . S
Eu168 N206 2.609 . S
Eu168 O212 2.558 . S
Eu168 O213 2.612 . S
Eu168 O215 2.339 . S
Eu168 O216 2.563 . S
Eu168 O217 2.419 . S
Eu168 O219 2.380 . S
Eu168 O220 2.432 . S
Eu168 C232 2.848 . S
C169 C172 1.429 . S
C169 C173 1.411 . S
C169 N176 1.377 . S
C170 C172 1.420 . S
C170 C174 1.423 . S
C170 C182 1.392 . S
C171 C173 1.420 . S
C171 C174 1.351 . S
C171 H194 0.931 . S
C172 C169 1.429 . S
C172 C170 1.420 . S
C172 N180 1.362 . S
C173 C169 1.411 . S
C173 C171 1.420 . S
C173 C178 1.395 . S
C174 C170 1.423 . S
C174 C171 1.351 . S
C174 H186 0.930 . S
C175 C177 1.400 . S
C175 C178 1.386 . S
C175 H187 0.930 . S
N176 C169 1.377 . S
N176 C177 1.321 . S
N176 Eu179 2.609 . S
C177 C175 1.400 . S
C177 N176 1.321 . S
C177 H184 0.930 . S
C178 C173 1.395 . S
C178 C175 1.386 . S
C178 H197 0.930 . S
Eu179 N176 2.609 . S
Eu179 N180 2.657 . S
Eu179 O213 2.380 . S
Eu179 O214 2.432 . S
Eu179 O218 2.558 . S
Eu179 O219 2.612 . S
Eu179 O221 2.339 . S
Eu179 O222 2.563 . S
Eu179 O223 2.419 . S
Eu179 C243 2.848 . S
N180 C172 1.362 . S
N180 Eu179 2.657 . S
N180 C181 1.334 . S
C181 N180 1.334 . S
C181 C183 1.413 . S
C181 H188 0.929 . S
C182 C170 1.392 . S
C182 C183 1.367 . S
C182 H190 0.930 . S
C183 C181 1.413 . S
C183 C182 1.367 . S
C183 H185 0.930 . S
H184 C177 0.930 . S
H185 C183 0.930 . S
H186 C174 0.930 . S
H187 C175 0.930 . S
H188 C181 0.929 . S
H189 C203 0.930 . S
H190 C182 0.930 . S
H191 C209 0.930 . S
H192 C200 0.929 . S
H193 C207 0.930 . S
H194 C171 0.931 . S
H195 C201 0.930 . S
H196 C234 0.930 . S
H197 C178 0.930 . S
H198 C233 0.931 . S
N199 Eu168 2.657 . S
N199 C200 1.334 . S
N199 C204 1.362 . S
C200 H192 0.929 . S
C200 N199 1.334 . S
C200 C203 1.413 . S
C201 H195 0.930 . S
C201 C202 1.392 . S
C201 C203 1.367 . S
C202 C201 1.392 . S
C202 C204 1.420 . S
C202 C234 1.423 . S
C203 H189 0.930 . S
C203 C200 1.413 . S
C203 C201 1.367 . S
C204 N199 1.362 . S
C204 C202 1.420 . S
C204 C208 1.429 . S
H205 C210 0.930 . S
N206 Eu168 2.609 . S
N206 C208 1.377 . S
N206 C209 1.321 1_554 S
C207 H193 0.930 . S
C207 C209 1.400 . S
C207 C210 1.386 . S
C208 C204 1.429 . S
C208 N206 1.377 . S
C208 C211 1.411 1_554 S
C209 H191 0.930 . S
C209 N206 1.321 1_556 S
C209 C207 1.400 . S
C210 H205 0.930 . S
C210 C207 1.386 . S
C210 C211 1.395 . S
C211 C208 1.411 1_556 S
C211 C210 1.395 . S
C211 C233 1.420 . S
O212 Eu168 2.558 . S
O212 C232 1.257 . S
O213 Eu168 2.612 . S
O213 Eu179 2.380 . S
O213 C224 1.276 . S
O214 Eu179 2.432 . S
O214 C231 1.264 . S
O215 Eu168 2.339 . S
O215 C231 1.254 . S
O216 Eu168 2.563 . S
O216 C224 1.235 . S
O217 Eu168 2.419 . S
O217 C232 1.249 . S
O218 Eu179 2.558 . S
O218 C243 1.257 . S
O219 Eu168 2.380 . S
O219 Eu179 2.612 . S
O219 C235 1.276 . S
O220 Eu168 2.432 . S
O220 C242 1.264 . S
O221 Eu179 2.339 . S
O221 C242 1.254 . S
O222 Eu179 2.563 . S
O222 C235 1.235 . S
O223 Eu179 2.419 . S
O223 C243 1.249 . S
C224 O213 1.276 . S
C224 O216 1.235 . S
C225 C227 1.393 . S
C225 C229 1.395 . S
C225 C232 1.492 . S
C226 C227 1.392 . S
C226 C228 1.386 . S
C227 C225 1.393 . S
C227 C226 1.392 . S
C227 H244 0.930 . S
C228 C226 1.386 . S
C228 C230 1.395 . S
C228 H245 0.930 1_655 S
C229 C225 1.395 . S
C229 C230 1.379 . S
C229 H246 0.930 1_554 S
C230 C228 1.395 . S
C230 C229 1.379 . S
C230 H247 0.930 1_554 S
C231 O214 1.264 . S
C231 O215 1.254 . S
C232 Eu168 2.848 . S
C232 O212 1.257 . S
C232 O217 1.249 . S
C232 C225 1.492 . S
C233 H198 0.931 . S
C233 C211 1.420 . S
C233 C234 1.351 1_556 S
C234 H196 0.930 . S
C234 C202 1.423 . S
C234 C233 1.351 1_554 S
C235 O219 1.276 . S
C235 O222 1.235 . S
C236 C237 1.393 . S
C236 C240 1.395 . S
C236 C243 1.492 . S
C237 C236 1.393 . S
C237 C238 1.392 . S
C237 H248 0.930 . S
C238 C237 1.392 . S
C238 C239 1.386 . S
C239 C238 1.386 . S
C239 C241 1.395 . S
C239 H249 0.930 . S
C240 C236 1.395 . S
C240 C241 1.379 . S
C240 H250 0.930 . S
C241 C239 1.395 . S
C241 C240 1.379 . S
C241 H251 0.930 . S
C242 O220 1.264 . S
C242 O221 1.254 . S
C243 Eu179 2.848 . S
C243 O218 1.257 . S
C243 O223 1.249 . S
C243 C236 1.492 . S
H244 C227 0.930 . S
H245 C228 0.930 1_455 S
H246 C229 0.930 1_556 S
H247 C230 0.930 1_556 S
H248 C237 0.930 . S
H249 C239 0.930 . S
H250 C240 0.930 . S
H251 C241 0.930 . S
Eu252 N283 2.657 . S
Eu252 N290 2.609 . S
Eu252 O296 2.558 . S
Eu252 O297 2.612 . S
Eu252 O299 2.339 . S
Eu252 O300 2.563 . S
Eu252 O301 2.419 . S
Eu252 O303 2.380 . S
Eu252 O304 2.432 . S
Eu252 C316 2.848 . S
C253 C256 1.429 . S
C253 C257 1.411 . S
C253 N260 1.377 . S
C254 C256 1.420 . S
C254 C258 1.423 . S
C254 C266 1.392 . S
C255 C257 1.420 . S
C255 C258 1.351 . S
C255 H278 0.931 . S
C256 C253 1.429 . S
C256 C254 1.420 . S
C256 N264 1.362 . S
C257 C253 1.411 . S
C257 C255 1.420 . S
C257 C262 1.395 . S
C258 C254 1.423 . S
C258 C255 1.351 . S
C258 H270 0.930 . S
C259 C261 1.400 . S
C259 C262 1.386 . S
C259 H271 0.930 . S
N260 C253 1.377 . S
N260 C261 1.321 . S
N260 Eu263 2.609 . S
C261 C259 1.400 . S
C261 N260 1.321 . S
C261 H268 0.930 . S
C262 C257 1.395 . S
C262 C259 1.386 . S
C262 H281 0.930 . S
Eu263 N260 2.609 . S
Eu263 N264 2.657 . S
Eu263 O297 2.380 . S
Eu263 O298 2.432 . S
Eu263 O302 2.558 1_455 S
Eu263 O303 2.612 . S
Eu263 O305 2.339 . S
Eu263 O306 2.563 1_455 S
Eu263 O307 2.419 1_455 S
Eu263 C327 2.848 1_455 S
N264 C256 1.362 . S
N264 Eu263 2.657 . S
N264 C265 1.334 . S
C265 N264 1.334 . S
C265 C267 1.413 . S
C265 H272 0.929 . S
C266 C254 1.392 . S
C266 C267 1.367 . S
C266 H274 0.930 . S
C267 C265 1.413 . S
C267 C266 1.367 . S
C267 H269 0.930 . S
H268 C261 0.930 . S
H269 C267 0.930 . S
H270 C258 0.930 . S
H271 C259 0.930 . S
H272 C265 0.929 . S
H273 C287 0.930 . S
H274 C266 0.930 . S
H275 C293 0.930 . S
H276 C284 0.929 . S
H277 C291 0.930 . S
H278 C255 0.931 . S
H279 C285 0.930 1_655 S
H280 C318 0.930 1_655 S
H281 C262 0.930 . S
H282 C317 0.931 . S
N283 Eu252 2.657 . S
N283 C284 1.334 . S
N283 C288 1.362 . S
C284 H276 0.929 . S
C284 N283 1.334 . S
C284 C287 1.413 . S
C285 H279 0.930 1_455 S
C285 C286 1.392 . S
C285 C287 1.367 . S
C286 C285 1.392 . S
C286 C288 1.420 . S
C286 C318 1.423 . S
C287 H273 0.930 . S
C287 C284 1.413 . S
C287 C285 1.367 . S
C288 N283 1.362 . S
C288 C286 1.420 . S
C288 C292 1.429 . S
H289 C294 0.930 . S
N290 Eu252 2.609 . S
N290 C292 1.377 . S
N290 C293 1.321 . S
C291 H277 0.930 . S
C291 C293 1.400 . S
C291 C294 1.386 . S
C292 C288 1.429 . S
C292 N290 1.377 . S
C292 C295 1.411 . S
C293 H275 0.930 . S
C293 N290 1.321 . S
C293 C291 1.400 . S
C294 H289 0.930 . S
C294 C291 1.386 . S
C294 C295 1.395 . S
C295 C292 1.411 . S
C295 C294 1.395 . S
C295 C317 1.420 . S
O296 Eu252 2.558 . S
O296 C316 1.257 . S
O297 Eu252 2.612 . S
O297 Eu263 2.380 . S
O297 C308 1.276 . S
O298 Eu263 2.432 . S
O298 C315 1.264 . S
O299 Eu252 2.339 . S
O299 C315 1.254 . S
O300 Eu252 2.563 . S
O300 C308 1.235 . S
O301 Eu252 2.419 . S
O301 C316 1.249 . S
O302 Eu263 2.558 1_655 S
O302 C327 1.257 . S
O303 Eu252 2.380 . S
O303 Eu263 2.612 . S
O303 C319 1.276 1_455 S
O304 Eu252 2.432 . S
O304 C326 1.264 . S
O305 Eu263 2.339 . S
O305 C326 1.254 . S
O306 Eu263 2.563 1_655 S
O306 C319 1.235 . S
O307 Eu263 2.419 1_655 S
O307 C327 1.249 . S
C308 O297 1.276 . S
C308 O300 1.235 . S
C309 C311 1.393 . S
C309 C313 1.395 . S
C309 C316 1.492 . S
C310 C311 1.392 . S
C310 C312 1.386 . S
C311 C309 1.393 . S
C311 C310 1.392 . S
C311 H328 0.930 . S
C312 C310 1.386 . S
C312 C314 1.395 . S
C312 H329 0.930 . S
C313 C309 1.395 . S
C313 C314 1.379 . S
C313 H330 0.930 . S
C314 C312 1.395 . S
C314 C313 1.379 . S
C314 H331 0.930 . S
C315 O298 1.264 . S
C315 O299 1.254 . S
C316 Eu252 2.848 . S
C316 O296 1.257 . S
C316 O301 1.249 . S
C316 C309 1.492 . S
C317 H282 0.931 . S
C317 C295 1.420 . S
C317 C318 1.351 . S
C318 H280 0.930 1_455 S
C318 C286 1.423 . S
C318 C317 1.351 . S
C319 O303 1.276 1_655 S
C319 O306 1.235 . S
C320 C321 1.393 . S
C320 C324 1.395 . S
C320 C327 1.492 . S
C321 C320 1.393 . S
C321 C322 1.392 . S
C321 H332 0.930 . S
C322 C321 1.392 . S
C322 C323 1.386 . S
C323 C322 1.386 . S
C323 C325 1.395 . S
C323 H333 0.930 . S
C324 C320 1.395 . S
C324 C325 1.379 . S
C324 H334 0.930 . S
C325 C323 1.395 . S
C325 C324 1.379 . S
C325 H335 0.930 . S
C326 O304 1.264 . S
C326 O305 1.254 . S
C327 Eu263 2.848 1_655 S
C327 O302 1.257 . S
C327 O307 1.249 . S
C327 C320 1.492 . S
H328 C311 0.930 . S
H329 C312 0.930 . S
H330 C313 0.930 . S
H331 C314 0.930 . S
H332 C321 0.930 . S
H333 C323 0.930 . S
H334 C324 0.930 . S
H335 C325 0.930 . S
Eu336 N367 2.657 . S
Eu336 N374 2.609 . S
Eu336 O380 2.558 . S
Eu336 O381 2.612 . S
Eu336 O383 2.339 . S
Eu336 O384 2.563 . S
Eu336 O385 2.419 . S
Eu336 O387 2.380 . S
Eu336 O388 2.432 . S
Eu336 C400 2.848 . S
C337 C340 1.429 . S
C337 C341 1.411 . S
C337 N344 1.377 . S
C338 C340 1.420 . S
C338 C342 1.423 . S
C338 C350 1.392 . S
C339 C341 1.420 . S
C339 C342 1.351 . S
C339 H362 0.931 . S
C340 C337 1.429 . S
C340 C338 1.420 . S
C340 N348 1.362 . S
C341 C337 1.411 . S
C341 C339 1.420 . S
C341 C346 1.395 . S
C342 C338 1.423 . S
C342 C339 1.351 . S
C342 H354 0.930 . S
C343 C345 1.400 . S
C343 C346 1.386 . S
C343 H355 0.930 . S
N344 C337 1.377 . S
N344 C345 1.321 . S
N344 Eu347 2.609 . S
C345 C343 1.400 . S
C345 N344 1.321 . S
C345 H352 0.930 . S
C346 C341 1.395 . S
C346 C343 1.386 . S
C346 H365 0.930 . S
Eu347 N344 2.609 . S
Eu347 N348 2.657 . S
Eu347 O381 2.380 . S
Eu347 O382 2.432 . S
Eu347 O386 2.558 . S
Eu347 O387 2.612 . S
Eu347 O389 2.339 . S
Eu347 O390 2.563 . S
Eu347 O391 2.419 . S
Eu347 C411 2.848 . S
N348 C340 1.362 . S
N348 Eu347 2.657 . S
N348 C349 1.334 . S
C349 N348 1.334 . S
C349 C351 1.413 . S
C349 H356 0.929 . S
C350 C338 1.392 . S
C350 C351 1.367 . S
C350 H358 0.930 . S
C351 C349 1.413 . S
C351 C350 1.367 . S
C351 H353 0.930 . S
H352 C345 0.930 . S
H353 C351 0.930 . S
H354 C342 0.930 . S
H355 C343 0.930 . S
H356 C349 0.929 . S
H357 C371 0.930 . S
H358 C350 0.930 . S
H359 C377 0.930 . S
H360 C368 0.929 . S
H361 C375 0.930 . S
H362 C339 0.931 . S
H363 C369 0.930 . S
H364 C402 0.930 . S
H365 C346 0.930 . S
H366 C401 0.931 . S
N367 Eu336 2.657 . S
N367 C368 1.334 . S
N367 C372 1.362 . S
C368 H360 0.929 . S
C368 N367 1.334 . S
C368 C371 1.413 . S
C369 H363 0.930 . S
C369 C370 1.392 . S
C369 C371 1.367 . S
C370 C369 1.392 . S
C370 C372 1.420 . S
C370 C402 1.423 . S
C371 H357 0.930 . S
C371 C368 1.413 . S
C371 C369 1.367 . S
C372 N367 1.362 . S
C372 C370 1.420 . S
C372 C376 1.429 . S
H373 C378 0.930 . S
N374 Eu336 2.609 . S
N374 C376 1.377 . S
N374 C377 1.321 . S
C375 H361 0.930 . S
C375 C377 1.400 . S
C375 C378 1.386 . S
C376 C372 1.429 . S
C376 N374 1.377 . S
C376 C379 1.411 . S
C377 H359 0.930 . S
C377 N374 1.321 . S
C377 C375 1.400 . S
C378 H373 0.930 . S
C378 C375 1.386 . S
C378 C379 1.395 . S
C379 C376 1.411 . S
C379 C378 1.395 . S
C379 C401 1.420 . S
O380 Eu336 2.558 . S
O380 C400 1.257 . S
O381 Eu336 2.612 . S
O381 Eu347 2.380 . S
O381 C392 1.276 . S
O382 Eu347 2.432 . S
O382 C399 1.264 . S
O383 Eu336 2.339 . S
O383 C399 1.254 . S
O384 Eu336 2.563 . S
O384 C392 1.235 . S
O385 Eu336 2.419 . S
O385 C400 1.249 . S
O386 Eu347 2.558 . S
O386 C411 1.257 . S
O387 Eu336 2.380 . S
O387 Eu347 2.612 . S
O387 C403 1.276 . S
O388 Eu336 2.432 . S
O388 C410 1.264 . S
O389 Eu347 2.339 . S
O389 C410 1.254 . S
O390 Eu347 2.563 . S
O390 C403 1.235 . S
O391 Eu347 2.419 . S
O391 C411 1.249 . S
C392 O381 1.276 . S
C392 O384 1.235 . S
C393 C395 1.393 . S
C393 C397 1.395 . S
C393 C400 1.492 . S
C394 C395 1.392 . S
C394 C396 1.386 . S
C395 C393 1.393 . S
C395 C394 1.392 . S
C395 H412 0.930 . S
C396 C394 1.386 . S
C396 C398 1.395 . S
C396 H413 0.930 1_565 S
C397 C393 1.395 . S
C397 C398 1.379 . S
C397 H414 0.930 . S
C398 C396 1.395 . S
C398 C397 1.379 . S
C398 H415 0.930 . S
C399 O382 1.264 . S
C399 O383 1.254 . S
C400 Eu336 2.848 . S
C400 O380 1.257 . S
C400 O385 1.249 . S
C400 C393 1.492 . S
C401 H366 0.931 . S
C401 C379 1.420 . S
C401 C402 1.351 . S
C402 H364 0.930 . S
C402 C370 1.423 . S
C402 C401 1.351 . S
C403 O387 1.276 . S
C403 O390 1.235 . S
C404 C405 1.393 . S
C404 C408 1.395 . S
C404 C411 1.492 . S
C405 C404 1.393 . S
C405 C406 1.392 . S
C405 H416 0.930 . S
C406 C405 1.392 . S
C406 C407 1.386 . S
C407 C406 1.386 . S
C407 C409 1.395 . S
C407 H417 0.930 . S
C408 C404 1.395 . S
C408 C409 1.379 . S
C408 H418 0.930 . S
C409 C407 1.395 . S
C409 C408 1.379 . S
C409 H419 0.930 . S
C410 O388 1.264 . S
C410 O389 1.254 . S
C411 Eu347 2.848 . S
C411 O386 1.257 . S
C411 O391 1.249 . S
C411 C404 1.492 . S
H412 C395 0.930 . S
H413 C396 0.930 1_545 S
H414 C397 0.930 . S
H415 C398 0.930 . S
H416 C405 0.930 . S
H417 C407 0.930 . S
H418 C408 0.930 . S
H419 C409 0.930 . S
Eu420 N451 2.657 . S
Eu420 N458 2.609 . S
Eu420 O464 2.558 1_545 S
Eu420 O465 2.612 1_545 S
Eu420 O467 2.339 . S
Eu420 O468 2.563 1_545 S
Eu420 O469 2.419 1_545 S
Eu420 O471 2.380 . S
Eu420 O472 2.432 . S
Eu420 C484 2.848 1_545 S
C421 C424 1.429 . S
C421 C425 1.411 . S
C421 N428 1.377 . S
C422 C424 1.420 1_565 S
C422 C426 1.423 . S
C422 C434 1.392 . S
C423 C425 1.420 1_565 S
C423 C426 1.351 . S
C423 H446 0.931 . S
C424 C421 1.429 . S
C424 C422 1.420 1_545 S
C424 N432 1.362 . S
C425 C421 1.411 . S
C425 C423 1.420 1_545 S
C425 C430 1.395 . S
C426 C422 1.423 . S
C426 C423 1.351 . S
C426 H438 0.930 . S
C427 C429 1.400 . S
C427 C430 1.386 . S
C427 H439 0.930 . S
N428 C421 1.377 . S
N428 C429 1.321 . S
N428 Eu431 2.609 . S
C429 C427 1.400 . S
C429 N428 1.321 . S
C429 H436 0.930 . S
C430 C425 1.395 . S
C430 C427 1.386 . S
C430 H449 0.930 . S
Eu431 N428 2.609 . S
Eu431 N432 2.657 . S
Eu431 O465 2.380 1_545 S
Eu431 O466 2.432 . S
Eu431 O470 2.558 . S
Eu431 O471 2.612 . S
Eu431 O473 2.339 . S
Eu431 O474 2.563 . S
Eu431 O475 2.419 . S
Eu431 C495 2.848 . S
N432 C424 1.362 . S
N432 Eu431 2.657 . S
N432 C433 1.334 . S
C433 N432 1.334 . S
C433 C435 1.413 1_545 S
C433 H440 0.929 . S
C434 C422 1.392 . S
C434 C435 1.367 . S
C434 H442 0.930 . S
C435 C433 1.413 1_565 S
C435 C434 1.367 . S
C435 H437 0.930 . S
H436 C429 0.930 . S
H437 C435 0.930 . S
H438 C426 0.930 . S
H439 C427 0.930 . S
H440 C433 0.929 . S
H441 C455 0.930 . S
H442 C434 0.930 . S
H443 C461 0.930 . S
H444 C452 0.929 . S
H445 C459 0.930 . S
H446 C423 0.931 . S
H447 C453 0.930 . S
H448 C486 0.930 . S
H449 C430 0.930 . S
H450 C485 0.931 . S
N451 Eu420 2.657 . S
N451 C452 1.334 . S
N451 C456 1.362 . S
C452 H444 0.929 . S
C452 N451 1.334 . S
C452 C455 1.413 . S
C453 H447 0.930 . S
C453 C454 1.392 . S
C453 C455 1.367 . S
C454 C453 1.392 . S
C454 C456 1.420 . S
C454 C486 1.423 . S
C455 H441 0.930 . S
C455 C452 1.413 . S
C455 C453 1.367 . S
C456 N451 1.362 . S
C456 C454 1.420 . S
C456 C460 1.429 . S
H457 C462 0.930 . S
N458 Eu420 2.609 . S
N458 C460 1.377 . S
N458 C461 1.321 . S
C459 H445 0.930 . S
C459 C461 1.400 . S
C459 C462 1.386 . S
C460 C456 1.429 . S
C460 N458 1.377 . S
C460 C463 1.411 . S
C461 H443 0.930 . S
C461 N458 1.321 . S
C461 C459 1.400 . S
C462 H457 0.930 . S
C462 C459 1.386 . S
C462 C463 1.395 . S
C463 C460 1.411 . S
C463 C462 1.395 . S
C463 C485 1.420 . S
O464 Eu420 2.558 1_565 S
O464 C484 1.257 . S
O465 Eu420 2.612 1_565 S
O465 Eu431 2.380 1_565 S
O465 C476 1.276 . S
O466 Eu431 2.432 . S
O466 C483 1.264 . S
O467 Eu420 2.339 . S
O467 C483 1.254 . S
O468 Eu420 2.563 1_565 S
O468 C476 1.235 . S
O469 Eu420 2.419 1_565 S
O469 C484 1.249 . S
O470 Eu431 2.558 . S
O470 C495 1.257 . S
O471 Eu420 2.380 . S
O471 Eu431 2.612 . S
O471 C487 1.276 . S
O472 Eu420 2.432 . S
O472 C494 1.264 . S
O473 Eu431 2.339 . S
O473 C494 1.254 . S
O474 Eu431 2.563 . S
O474 C487 1.235 . S
O475 Eu431 2.419 . S
O475 C495 1.249 . S
C476 O465 1.276 . S
C476 O468 1.235 . S
C477 C479 1.393 . S
C477 C481 1.395 . S
C477 C484 1.492 . S
C478 C479 1.392 . S
C478 C480 1.386 . S
C479 C477 1.393 . S
C479 C478 1.392 . S
C479 H496 0.930 . S
C480 C478 1.386 . S
C480 C482 1.395 . S
C480 H497 0.930 . S
C481 C477 1.395 . S
C481 C482 1.379 . S
C481 H498 0.930 . S
C482 C480 1.395 . S
C482 C481 1.379 . S
C482 H499 0.930 . S
C483 O466 1.264 . S
C483 O467 1.254 . S
C484 Eu420 2.848 1_565 S
C484 O464 1.257 . S
C484 O469 1.249 . S
C484 C477 1.492 . S
C485 H450 0.931 . S
C485 C463 1.420 . S
C485 C486 1.351 . S
C486 H448 0.930 . S
C486 C454 1.423 . S
C486 C485 1.351 . S
C487 O471 1.276 . S
C487 O474 1.235 . S
C488 C489 1.393 . S
C488 C492 1.395 . S
C488 C495 1.492 . S
C489 C488 1.393 . S
C489 C490 1.392 . S
C489 H500 0.930 . S
C490 C489 1.392 . S
C490 C491 1.386 . S
C491 C490 1.386 . S
C491 C493 1.395 . S
C491 H501 0.930 . S
C492 C488 1.395 . S
C492 C493 1.379 . S
C492 H502 0.930 . S
C493 C491 1.395 . S
C493 C492 1.379 . S
C493 H503 0.930 . S
C494 O472 1.264 . S
C494 O473 1.254 . S
C495 Eu431 2.848 . S
C495 O470 1.257 . S
C495 O475 1.249 . S
C495 C488 1.492 . S
H496 C479 0.930 . S
H497 C480 0.930 . S
H498 C481 0.930 . S
H499 C482 0.930 . S
H500 C489 0.930 . S
H501 C491 0.930 . S
H502 C492 0.930 . S
H503 C493 0.930 . S
Eu504 N535 2.657 . S
Eu504 N542 2.609 . S
Eu504 O548 2.558 . S
Eu504 O549 2.612 . S
Eu504 O551 2.339 . S
Eu504 O552 2.563 . S
Eu504 O553 2.419 . S
Eu504 O555 2.380 1_545 S
Eu504 O556 2.432 . S
Eu504 C568 2.848 . S
C505 C508 1.429 . S
C505 C509 1.411 1_556 S
C505 N512 1.377 . S
C506 C508 1.420 . S
C506 C510 1.423 . S
C506 C518 1.392 . S
C507 C509 1.420 . S
C507 C510 1.351 1_554 S
C507 H530 0.931 . S
C508 C505 1.429 . S
C508 C506 1.420 . S
C508 N516 1.362 . S
C509 C505 1.411 1_554 S
C509 C507 1.420 . S
C509 C514 1.395 . S
C510 C506 1.423 . S
C510 C507 1.351 1_556 S
C510 H522 0.930 . S
C511 C513 1.400 . S
C511 C514 1.386 . S
C511 H523 0.930 . S
N512 C505 1.377 . S
N512 C513 1.321 1_556 S
N512 Eu515 2.609 . S
C513 C511 1.400 . S
C513 N512 1.321 1_554 S
C513 H520 0.930 . S
C514 C509 1.395 . S
C514 C511 1.386 . S
C514 H533 0.930 . S
Eu515 N512 2.609 . S
Eu515 N516 2.657 . S
Eu515 O549 2.380 . S
Eu515 O550 2.432 . S
Eu515 O554 2.558 1_545 S
Eu515 O555 2.612 1_545 S
Eu515 O557 2.339 . S
Eu515 O558 2.563 1_545 S
Eu515 O559 2.419 1_545 S
Eu515 C579 2.848 1_545 S
N516 C508 1.362 . S
N516 Eu515 2.657 . S
N516 C517 1.334 . S
C517 N516 1.334 . S
C517 C519 1.413 . S
C517 H524 0.929 . S
C518 C506 1.392 . S
C518 C519 1.367 . S
C518 H526 0.930 . S
C519 C517 1.413 . S
C519 C518 1.367 . S
C519 H521 0.930 . S
H520 C513 0.930 . S
H521 C519 0.930 . S
H522 C510 0.930 . S
H523 C511 0.930 . S
H524 C517 0.929 . S
H525 C539 0.930 . S
H526 C518 0.930 . S
H527 C545 0.930 . S
H528 C536 0.929 . S
H529 C543 0.930 . S
H530 C507 0.931 . S
H531 C537 0.930 . S
H532 C570 0.930 . S
H533 C514 0.930 . S
H534 C569 0.931 . S
N535 Eu504 2.657 . S
N535 C536 1.334 . S
N535 C540 1.362 . S
C536 H528 0.929 . S
C536 N535 1.334 . S
C536 C539 1.413 1_545 S
C537 H531 0.930 . S
C537 C538 1.392 . S
C537 C539 1.367 . S
C538 C537 1.392 . S
C538 C540 1.420 1_565 S
C538 C570 1.423 . S
C539 H525 0.930 . S
C539 C536 1.413 1_565 S
C539 C537 1.367 . S
C540 N535 1.362 . S
C540 C538 1.420 1_545 S
C540 C544 1.429 . S
H541 C546 0.930 . S
N542 Eu504 2.609 . S
N542 C544 1.377 . S
N542 C545 1.321 . S
C543 H529 0.930 . S
C543 C545 1.400 . S
C543 C546 1.386 . S
C544 C540 1.429 . S
C544 N542 1.377 . S
C544 C547 1.411 . S
C545 H527 0.930 . S
C545 N542 1.321 . S
C545 C543 1.400 . S
C546 H541 0.930 . S
C546 C543 1.386 . S
C546 C547 1.395 . S
C547 C544 1.411 . S
C547 C546 1.395 . S
C547 C569 1.420 1_545 S
O548 Eu504 2.558 . S
O548 C568 1.257 . S
O549 Eu504 2.612 . S
O549 Eu515 2.380 . S
O549 C560 1.276 . S
O550 Eu515 2.432 . S
O550 C567 1.264 . S
O551 Eu504 2.339 . S
O551 C567 1.254 . S
O552 Eu504 2.563 . S
O552 C560 1.235 . S
O553 Eu504 2.419 . S
O553 C568 1.249 . S
O554 Eu515 2.558 1_565 S
O554 C579 1.257 . S
O555 Eu504 2.380 1_565 S
O555 Eu515 2.612 1_565 S
O555 C571 1.276 . S
O556 Eu504 2.432 . S
O556 C578 1.264 . S
O557 Eu515 2.339 . S
O557 C578 1.254 . S
O558 Eu515 2.563 1_565 S
O558 C571 1.235 . S
O559 Eu515 2.419 1_565 S
O559 C579 1.249 . S
C560 O549 1.276 . S
C560 O552 1.235 . S
C561 C563 1.393 . S
C561 C565 1.395 . S
C561 C568 1.492 . S
C562 C563 1.392 . S
C562 C564 1.386 . S
C563 C561 1.393 . S
C563 C562 1.392 . S
C563 H580 0.930 . S
C564 C562 1.386 . S
C564 C566 1.395 . S
C564 H581 0.930 . S
C565 C561 1.395 . S
C565 C566 1.379 . S
C565 H582 0.930 . S
C566 C564 1.395 . S
C566 C565 1.379 . S
C566 H583 0.930 . S
C567 O550 1.264 . S
C567 O551 1.254 . S
C568 Eu504 2.848 . S
C568 O548 1.257 . S
C568 O553 1.249 . S
C568 C561 1.492 . S
C569 H534 0.931 . S
C569 C547 1.420 1_565 S
C569 C570 1.351 . S
C570 H532 0.930 . S
C570 C538 1.423 . S
C570 C569 1.351 . S
C571 O555 1.276 . S
C571 O558 1.235 . S
C572 C573 1.393 . S
C572 C576 1.395 . S
C572 C579 1.492 . S
C573 C572 1.393 . S
C573 C574 1.392 . S
C573 H584 0.930 . S
C574 C573 1.392 . S
C574 C575 1.386 . S
C575 C574 1.386 . S
C575 C577 1.395 . S
C575 H585 0.930 . S
C576 C572 1.395 . S
C576 C577 1.379 . S
C576 H586 0.930 1_556 S
C577 C575 1.395 . S
C577 C576 1.379 . S
C577 H587 0.930 1_556 S
C578 O556 1.264 . S
C578 O557 1.254 . S
C579 Eu515 2.848 1_565 S
C579 O554 1.257 . S
C579 O559 1.249 . S
C579 C572 1.492 . S
H580 C563 0.930 . S
H581 C564 0.930 . S
H582 C565 0.930 . S
H583 C566 0.930 . S
H584 C573 0.930 . S
H585 C575 0.930 . S
H586 C576 0.930 1_554 S
H587 C577 0.930 1_554 S
Eu588 N619 2.657 . S
Eu588 N626 2.609 . S
Eu588 O632 2.558 1_455 S
Eu588 O633 2.612 . S
Eu588 O635 2.339 . S
Eu588 O636 2.563 1_455 S
Eu588 O637 2.419 1_455 S
Eu588 O639 2.380 . S
Eu588 O640 2.432 . S
Eu588 C652 2.848 1_455 S
C589 C592 1.429 . S
C589 C593 1.411 1_556 S
C589 N596 1.377 . S
C590 C592 1.420 . S
C590 C594 1.423 . S
C590 C602 1.392 . S
C591 C593 1.420 . S
C591 C594 1.351 1_554 S
C591 H614 0.931 . S
C592 C589 1.429 . S
C592 C590 1.420 . S
C592 N600 1.362 . S
C593 C589 1.411 1_554 S
C593 C591 1.420 . S
C593 C598 1.395 . S
C594 C590 1.423 . S
C594 C591 1.351 1_556 S
C594 H606 0.930 1_455 S
C595 C597 1.400 . S
C595 C598 1.386 . S
C595 H607 0.930 . S
N596 C589 1.377 . S
N596 C597 1.321 1_556 S
N596 Eu599 2.609 . S
C597 C595 1.400 . S
C597 N596 1.321 1_554 S
C597 H604 0.930 . S
C598 C593 1.395 . S
C598 C595 1.386 . S
C598 H617 0.930 . S
Eu599 N596 2.609 . S
Eu599 N600 2.657 . S
Eu599 O633 2.380 . S
Eu599 O634 2.432 . S
Eu599 O638 2.558 . S
Eu599 O639 2.612 . S
Eu599 O641 2.339 . S
Eu599 O642 2.563 . S
Eu599 O643 2.419 . S
Eu599 C663 2.848 . S
N600 C592 1.362 . S
N600 Eu599 2.657 . S
N600 C601 1.334 . S
C601 N600 1.334 . S
C601 C603 1.413 . S
C601 H608 0.929 . S
C602 C590 1.392 . S
C602 C603 1.367 . S
C602 H610 0.930 1_455 S
C603 C601 1.413 . S
C603 C602 1.367 . S
C603 H605 0.930 . S
H604 C597 0.930 . S
H605 C603 0.930 . S
H606 C594 0.930 1_655 S
H607 C595 0.930 . S
H608 C601 0.929 . S
H609 C623 0.930 . S
H610 C602 0.930 1_655 S
H611 C629 0.930 . S
H612 C620 0.929 . S
H613 C627 0.930 . S
H614 C591 0.931 . S
H615 C621 0.930 . S
H616 C654 0.930 . S
H617 C598 0.930 . S
H618 C653 0.931 . S
N619 Eu588 2.657 . S
N619 C620 1.334 . S
N619 C624 1.362 . S
C620 H612 0.929 . S
C620 N619 1.334 . S
C620 C623 1.413 . S
C621 H615 0.930 . S
C621 C622 1.392 . S
C621 C623 1.367 . S
C622 C621 1.392 . S
C622 C624 1.420 . S
C622 C654 1.423 . S
C623 H609 0.930 . S
C623 C620 1.413 . S
C623 C621 1.367 . S
C624 N619 1.362 . S
C624 C622 1.420 . S
C624 C628 1.429 . S
H625 C630 0.930 . S
N626 Eu588 2.609 . S
N626 C628 1.377 . S
N626 C629 1.321 . S
C627 H613 0.930 . S
C627 C629 1.400 . S
C627 C630 1.386 . S
C628 C624 1.429 . S
C628 N626 1.377 . S
C628 C631 1.411 . S
C629 H611 0.930 . S
C629 N626 1.321 . S
C629 C627 1.400 . S
C630 H625 0.930 . S
C630 C627 1.386 . S
C630 C631 1.395 . S
C631 C628 1.411 . S
C631 C630 1.395 . S
C631 C653 1.420 . S
O632 Eu588 2.558 1_655 S
O632 C652 1.257 . S
O633 Eu588 2.612 . S
O633 Eu599 2.380 . S
O633 C644 1.276 1_455 S
O634 Eu599 2.432 . S
O634 C651 1.264 . S
O635 Eu588 2.339 . S
O635 C651 1.254 . S
O636 Eu588 2.563 1_655 S
O636 C644 1.235 . S
O637 Eu588 2.419 1_655 S
O637 C652 1.249 . S
O638 Eu599 2.558 . S
O638 C663 1.257 . S
O639 Eu588 2.380 . S
O639 Eu599 2.612 . S
O639 C655 1.276 . S
O640 Eu588 2.432 . S
O640 C662 1.264 . S
O641 Eu599 2.339 . S
O641 C662 1.254 . S
O642 Eu599 2.563 . S
O642 C655 1.235 . S
O643 Eu599 2.419 . S
O643 C663 1.249 . S
C644 O633 1.276 1_655 S
C644 O636 1.235 . S
C645 C647 1.393 . S
C645 C649 1.395 . S
C645 C652 1.492 . S
C646 C647 1.392 . S
C646 C648 1.386 . S
C647 C645 1.393 . S
C647 C646 1.392 . S
C647 H664 0.930 . S
C648 C646 1.386 . S
C648 C650 1.395 . S
C648 H665 0.930 . S
C649 C645 1.395 . S
C649 C650 1.379 . S
C649 H666 0.930 . S
C650 C648 1.395 . S
C650 C649 1.379 . S
C650 H667 0.930 . S
C651 O634 1.264 . S
C651 O635 1.254 . S
C652 Eu588 2.848 1_655 S
C652 O632 1.257 . S
C652 O637 1.249 . S
C652 C645 1.492 . S
C653 H618 0.931 . S
C653 C631 1.420 . S
C653 C654 1.351 . S
C654 H616 0.930 . S
C654 C622 1.423 . S
C654 C653 1.351 . S
C655 O639 1.276 . S
C655 O642 1.235 . S
C656 C657 1.393 . S
C656 C660 1.395 . S
C656 C663 1.492 . S
C657 C656 1.393 . S
C657 C658 1.392 . S
C657 H668 0.930 . S
C658 C657 1.392 . S
C658 C659 1.386 . S
C659 C658 1.386 . S
C659 C661 1.395 . S
C659 H669 0.930 1_565 S
C660 C656 1.395 . S
C660 C661 1.379 . S
C660 H670 0.930 1_556 S
C661 C659 1.395 . S
C661 C660 1.379 . S
C661 H671 0.930 1_556 S
C662 O640 1.264 . S
C662 O641 1.254 . S
C663 Eu599 2.848 . S
C663 O638 1.257 . S
C663 O643 1.249 . S
C663 C656 1.492 . S
H664 C647 0.930 . S
H665 C648 0.930 . S
H666 C649 0.930 . S
H667 C650 0.930 . S
H668 C657 0.930 . S
H669 C659 0.930 1_545 S
H670 C660 0.930 1_554 S
H671 C661 0.930 1_554 S
Eu672 N703 2.657 . S
Eu672 N710 2.609 . S
Eu672 O716 2.558 . S
Eu672 O717 2.612 . S
Eu672 O719 2.339 . S
Eu672 O720 2.563 . S
Eu672 O721 2.419 . S
Eu672 O723 2.380 . S
Eu672 O724 2.432 . S
Eu672 C736 2.848 . S
C673 C676 1.429 . S
C673 C677 1.411 1_556 S
C673 N680 1.377 . S
C674 C676 1.420 . S
C674 C678 1.423 . S
C674 C686 1.392 . S
C675 C677 1.420 . S
C675 C678 1.351 1_554 S
C675 H698 0.931 . S
C676 C673 1.429 . S
C676 C674 1.420 . S
C676 N684 1.362 . S
C677 C673 1.411 1_554 S
C677 C675 1.420 . S
C677 C682 1.395 . S
C678 C674 1.423 . S
C678 C675 1.351 1_556 S
C678 H690 0.930 . S
C679 C681 1.400 . S
C679 C682 1.386 . S
C679 H691 0.930 . S
N680 C673 1.377 . S
N680 C681 1.321 1_556 S
N680 Eu683 2.609 . S
C681 C679 1.400 . S
C681 N680 1.321 1_554 S
C681 H688 0.930 . S
C682 C677 1.395 . S
C682 C679 1.386 . S
C682 H701 0.930 . S
Eu683 N680 2.609 . S
Eu683 N684 2.657 . S
Eu683 O717 2.380 . S
Eu683 O718 2.432 . S
Eu683 O722 2.558 . S
Eu683 O723 2.612 . S
Eu683 O725 2.339 . S
Eu683 O726 2.563 . S
Eu683 O727 2.419 . S
Eu683 C747 2.848 . S
N684 C676 1.362 . S
N684 Eu683 2.657 . S
N684 C685 1.334 . S
C685 N684 1.334 . S
C685 C687 1.413 . S
C685 H692 0.929 . S
C686 C674 1.392 . S
C686 C687 1.367 . S
C686 H694 0.930 . S
C687 C685 1.413 . S
C687 C686 1.367 . S
C687 H689 0.930 . S
H688 C681 0.930 . S
H689 C687 0.930 . S
H690 C678 0.930 . S
H691 C679 0.930 . S
H692 C685 0.929 . S
H693 C707 0.930 . S
H694 C686 0.930 . S
H695 C713 0.930 . S
H696 C704 0.929 . S
H697 C711 0.930 . S
H698 C675 0.931 . S
H699 C705 0.930 . S
H700 C738 0.930 . S
H701 C682 0.930 . S
H702 C737 0.931 . S
N703 Eu672 2.657 . S
N703 C704 1.334 . S
N703 C708 1.362 . S
C704 H696 0.929 . S
C704 N703 1.334 . S
C704 C707 1.413 . S
C705 H699 0.930 . S
C705 C706 1.392 . S
C705 C707 1.367 . S
C706 C705 1.392 . S
C706 C708 1.420 . S
C706 C738 1.423 . S
C707 H693 0.930 . S
C707 C704 1.413 . S
C707 C705 1.367 . S
C708 N703 1.362 . S
C708 C706 1.420 . S
C708 C712 1.429 . S
H709 C714 0.930 . S
N710 Eu672 2.609 . S
N710 C712 1.377 . S
N710 C713 1.321 . S
C711 H697 0.930 . S
C711 C713 1.400 . S
C711 C714 1.386 . S
C712 C708 1.429 . S
C712 N710 1.377 . S
C712 C715 1.411 . S
C713 H695 0.930 . S
C713 N710 1.321 . S
C713 C711 1.400 . S
C714 H709 0.930 . S
C714 C711 1.386 . S
C714 C715 1.395 . S
C715 C712 1.411 . S
C715 C714 1.395 . S
C715 C737 1.420 . S
O716 Eu672 2.558 . S
O716 C736 1.257 . S
O717 Eu672 2.612 . S
O717 Eu683 2.380 . S
O717 C728 1.276 . S
O718 Eu683 2.432 . S
O718 C735 1.264 . S
O719 Eu672 2.339 . S
O719 C735 1.254 . S
O720 Eu672 2.563 . S
O720 C728 1.235 . S
O721 Eu672 2.419 . S
O721 C736 1.249 . S
O722 Eu683 2.558 . S
O722 C747 1.257 . S
O723 Eu672 2.380 . S
O723 Eu683 2.612 . S
O723 C739 1.276 . S
O724 Eu672 2.432 . S
O724 C746 1.264 . S
O725 Eu683 2.339 . S
O725 C746 1.254 . S
O726 Eu683 2.563 . S
O726 C739 1.235 . S
O727 Eu683 2.419 . S
O727 C747 1.249 . S
C728 O717 1.276 . S
C728 O720 1.235 . S
C729 C731 1.393 . S
C729 C733 1.395 . S
C729 C736 1.492 . S
C730 C731 1.392 . S
C730 C732 1.386 . S
C731 C729 1.393 . S
C731 C730 1.392 . S
C731 H748 0.930 . S
C732 C730 1.386 . S
C732 C734 1.395 . S
C732 H749 0.930 . S
C733 C729 1.395 . S
C733 C734 1.379 . S
C733 H750 0.930 . S
C734 C732 1.395 . S
C734 C733 1.379 . S
C734 H751 0.930 . S
C735 O718 1.264 . S
C735 O719 1.254 . S
C736 Eu672 2.848 . S
C736 O716 1.257 . S
C736 O721 1.249 . S
C736 C729 1.492 . S
C737 H702 0.931 . S
C737 C715 1.420 . S
C737 C738 1.351 . S
C738 H700 0.930 . S
C738 C706 1.423 . S
C738 C737 1.351 . S
C739 O723 1.276 . S
C739 O726 1.235 . S
C740 C741 1.393 . S
C740 C744 1.395 . S
C740 C747 1.492 . S
C741 C740 1.393 . S
C741 C742 1.392 . S
C741 H752 0.930 . S
C742 C741 1.392 . S
C742 C743 1.386 . S
C743 C742 1.386 . S
C743 C745 1.395 . S
C743 H753 0.930 . S
C744 C740 1.395 . S
C744 C745 1.379 . S
C744 H754 0.930 1_556 S
C745 C743 1.395 . S
C745 C744 1.379 . S
C745 H755 0.930 1_556 S
C746 O724 1.264 . S
C746 O725 1.254 . S
C747 Eu683 2.848 . S
C747 O722 1.257 . S
C747 O727 1.249 . S
C747 C740 1.492 . S
H748 C731 0.930 . S
H749 C732 0.930 . S
H750 C733 0.930 . S
H751 C734 0.930 . S
H752 C741 0.930 . S
H753 C743 0.930 . S
H754 C744 0.930 1_554 S
H755 C745 0.930 1_554 S
Eu756 N787 2.657 . S
Eu756 N794 2.609 . S
Eu756 O800 2.558 . S
Eu756 O801 2.612 . S
Eu756 O803 2.339 . S
Eu756 O804 2.563 . S
Eu756 O805 2.419 . S
Eu756 O807 2.380 1_455 S
Eu756 O808 2.432 . S
Eu756 C820 2.848 . S
C757 C760 1.429 . S
C757 C761 1.411 . S
C757 N764 1.377 . S
C758 C760 1.420 . S
C758 C762 1.423 . S
C758 C770 1.392 . S
C759 C761 1.420 . S
C759 C762 1.351 . S
C759 H782 0.931 . S
C760 C757 1.429 . S
C760 C758 1.420 . S
C760 N768 1.362 . S
C761 C757 1.411 . S
C761 C759 1.420 . S
C761 C766 1.395 . S
C762 C758 1.423 . S
C762 C759 1.351 . S
C762 H774 0.930 . S
C763 C765 1.400 . S
C763 C766 1.386 . S
C763 H775 0.930 . S
N764 C757 1.377 . S
N764 C765 1.321 . S
N764 Eu767 2.609 . S
C765 C763 1.400 . S
C765 N764 1.321 . S
C765 H772 0.930 . S
C766 C761 1.395 . S
C766 C763 1.386 . S
C766 H785 0.930 . S
Eu767 N764 2.609 . S
Eu767 N768 2.657 . S
Eu767 O801 2.380 . S
Eu767 O802 2.432 . S
Eu767 O806 2.558 1_455 S
Eu767 O807 2.612 1_455 S
Eu767 O809 2.339 . S
Eu767 O810 2.563 1_455 S
Eu767 O811 2.419 1_455 S
Eu767 C831 2.848 1_455 S
N768 C760 1.362 . S
N768 Eu767 2.657 . S
N768 C769 1.334 . S
C769 N768 1.334 . S
C769 C771 1.413 . S
C769 H776 0.929 . S
C770 C758 1.392 . S
C770 C771 1.367 . S
C770 H778 0.930 . S
C771 C769 1.413 . S
C771 C770 1.367 . S
C771 H773 0.930 . S
H772 C765 0.930 . S
H773 C771 0.930 . S
H774 C762 0.930 . S
H775 C763 0.930 . S
H776 C769 0.929 . S
H777 C791 0.930 . S
H778 C770 0.930 . S
H779 C797 0.930 . S
H780 C788 0.929 . S
H781 C795 0.930 . S
H782 C759 0.931 . S
H783 C789 0.930 . S
H784 C822 0.930 . S
H785 C766 0.930 . S
H786 C821 0.931 . S
N787 Eu756 2.657 . S
N787 C788 1.334 . S
N787 C792 1.362 . S
C788 H780 0.929 . S
C788 N787 1.334 . S
C788 C791 1.413 1_455 S
C789 H783 0.930 . S
C789 C790 1.392 . S
C789 C791 1.367 . S
C790 C789 1.392 . S
C790 C792 1.420 1_655 S
C790 C822 1.423 . S
C791 H777 0.930 . S
C791 C788 1.413 1_655 S
C791 C789 1.367 . S
C792 N787 1.362 . S
C792 C790 1.420 1_455 S
C792 C796 1.429 . S
H793 C798 0.930 . S
N794 Eu756 2.609 . S
N794 C796 1.377 . S
N794 C797 1.321 . S
C795 H781 0.930 . S
C795 C797 1.400 . S
C795 C798 1.386 . S
C796 C792 1.429 . S
C796 N794 1.377 . S
C796 C799 1.411 . S
C797 H779 0.930 . S
C797 N794 1.321 . S
C797 C795 1.400 . S
C798 H793 0.930 . S
C798 C795 1.386 . S
C798 C799 1.395 . S
C799 C796 1.411 . S
C799 C798 1.395 . S
C799 C821 1.420 1_455 S
O800 Eu756 2.558 . S
O800 C820 1.257 . S
O801 Eu756 2.612 . S
O801 Eu767 2.380 . S
O801 C812 1.276 . S
O802 Eu767 2.432 . S
O802 C819 1.264 . S
O803 Eu756 2.339 . S
O803 C819 1.254 . S
O804 Eu756 2.563 . S
O804 C812 1.235 . S
O805 Eu756 2.419 . S
O805 C820 1.249 . S
O806 Eu767 2.558 1_655 S
O806 C831 1.257 . S
O807 Eu756 2.380 1_655 S
O807 Eu767 2.612 1_655 S
O807 C823 1.276 . S
O808 Eu756 2.432 . S
O808 C830 1.264 . S
O809 Eu767 2.339 . S
O809 C830 1.254 . S
O810 Eu767 2.563 1_655 S
O810 C823 1.235 . S
O811 Eu767 2.419 1_655 S
O811 C831 1.249 . S
C812 O801 1.276 . S
C812 O804 1.235 . S
C813 C815 1.393 . S
C813 C817 1.395 . S
C813 C820 1.492 . S
C814 C815 1.392 . S
C814 C816 1.386 . S
C815 C813 1.393 . S
C815 C814 1.392 . S
C815 H832 0.930 . S
C816 C814 1.386 . S
C816 C818 1.395 . S
C816 H833 0.930 . S
C817 C813 1.395 . S
C817 C818 1.379 . S
C817 H834 0.930 . S
C818 C816 1.395 . S
C818 C817 1.379 . S
C818 H835 0.930 . S
C819 O802 1.264 . S
C819 O803 1.254 . S
C820 Eu756 2.848 . S
C820 O800 1.257 . S
C820 O805 1.249 . S
C820 C813 1.492 . S
C821 H786 0.931 . S
C821 C799 1.420 1_655 S
C821 C822 1.351 . S
C822 H784 0.930 . S
C822 C790 1.423 . S
C822 C821 1.351 . S
C823 O807 1.276 . S
C823 O810 1.235 . S
C824 C825 1.393 . S
C824 C828 1.395 . S
C824 C831 1.492 . S
C825 C824 1.393 . S
C825 C826 1.392 . S
C825 H836 0.930 . S
C826 C825 1.392 . S
C826 C827 1.386 . S
C827 C826 1.386 . S
C827 C829 1.395 . S
C827 H837 0.930 . S
C828 C824 1.395 . S
C828 C829 1.379 . S
C828 H838 0.930 . S
C829 C827 1.395 . S
C829 C828 1.379 . S
C829 H839 0.930 . S
C830 O808 1.264 . S
C830 O809 1.254 . S
C831 Eu767 2.848 1_655 S
C831 O806 1.257 . S
C831 O811 1.249 . S
C831 C824 1.492 . S
H832 C815 0.930 . S
H833 C816 0.930 . S
H834 C817 0.930 . S
H835 C818 0.930 . S
H836 C825 0.930 . S
H837 C827 0.930 . S
H838 C828 0.930 . S
H839 C829 0.930 . S
Eu840 N871 2.657 . S
Eu840 N878 2.609 . S
Eu840 O884 2.558 . S
Eu840 O885 2.612 . S
Eu840 O887 2.339 . S
Eu840 O888 2.563 . S
Eu840 O889 2.419 . S
Eu840 O891 2.380 . S
Eu840 O892 2.432 . S
Eu840 C904 2.848 . S
C841 C844 1.429 . S
C841 C845 1.411 . S
C841 N848 1.377 . S
C842 C844 1.420 . S
C842 C846 1.423 . S
C842 C854 1.392 . S
C843 C845 1.420 . S
C843 C846 1.351 . S
C843 H866 0.931 . S
C844 C841 1.429 . S
C844 C842 1.420 . S
C844 N852 1.362 . S
C845 C841 1.411 . S
C845 C843 1.420 . S
C845 C850 1.395 . S
C846 C842 1.423 . S
C846 C843 1.351 . S
C846 H858 0.930 . S
C847 C849 1.400 . S
C847 C850 1.386 . S
C847 H859 0.930 . S
N848 C841 1.377 . S
N848 C849 1.321 . S
N848 Eu851 2.609 . S
C849 C847 1.400 . S
C849 N848 1.321 . S
C849 H856 0.930 . S
C850 C845 1.395 . S
C850 C847 1.386 . S
C850 H869 0.930 . S
Eu851 N848 2.609 . S
Eu851 N852 2.657 . S
Eu851 O885 2.380 . S
Eu851 O886 2.432 . S
Eu851 O890 2.558 . S
Eu851 O891 2.612 . S
Eu851 O893 2.339 . S
Eu851 O894 2.563 . S
Eu851 O895 2.419 . S
Eu851 C915 2.848 . S
N852 C844 1.362 . S
N852 Eu851 2.657 . S
N852 C853 1.334 . S
C853 N852 1.334 . S
C853 C855 1.413 . S
C853 H860 0.929 . S
C854 C842 1.392 . S
C854 C855 1.367 . S
C854 H862 0.930 . S
C855 C853 1.413 . S
C855 C854 1.367 . S
C855 H857 0.930 . S
H856 C849 0.930 . S
H857 C855 0.930 . S
H858 C846 0.930 . S
H859 C847 0.930 . S
H860 C853 0.929 . S
H861 C875 0.930 . S
H862 C854 0.930 . S
H863 C881 0.930 . S
H864 C872 0.929 . S
H865 C879 0.930 . S
H866 C843 0.931 . S
H867 C873 0.930 . S
H868 C906 0.930 . S
H869 C850 0.930 . S
H870 C905 0.931 . S
N871 Eu840 2.657 . S
N871 C872 1.334 . S
N871 C876 1.362 . S
C872 H864 0.929 . S
C872 N871 1.334 . S
C872 C875 1.413 . S
C873 H867 0.930 . S
C873 C874 1.392 . S
C873 C875 1.367 . S
C874 C873 1.392 . S
C874 C876 1.420 . S
C874 C906 1.423 . S
C875 H861 0.930 . S
C875 C872 1.413 . S
C875 C873 1.367 . S
C876 N871 1.362 . S
C876 C874 1.420 . S
C876 C880 1.429 . S
H877 C882 0.930 . S
N878 Eu840 2.609 . S
N878 C880 1.377 . S
N878 C881 1.321 . S
C879 H865 0.930 . S
C879 C881 1.400 . S
C879 C882 1.386 . S
C880 C876 1.429 . S
C880 N878 1.377 . S
C880 C883 1.411 . S
C881 H863 0.930 . S
C881 N878 1.321 . S
C881 C879 1.400 . S
C882 H877 0.930 . S
C882 C879 1.386 . S
C882 C883 1.395 . S
C883 C880 1.411 . S
C883 C882 1.395 . S
C883 C905 1.420 . S
O884 Eu840 2.558 . S
O884 C904 1.257 . S
O885 Eu840 2.612 . S
O885 Eu851 2.380 . S
O885 C896 1.276 . S
O886 Eu851 2.432 . S
O886 C903 1.264 . S
O887 Eu840 2.339 . S
O887 C903 1.254 . S
O888 Eu840 2.563 . S
O888 C896 1.235 . S
O889 Eu840 2.419 . S
O889 C904 1.249 . S
O890 Eu851 2.558 . S
O890 C915 1.257 . S
O891 Eu840 2.380 . S
O891 Eu851 2.612 . S
O891 C907 1.276 . S
O892 Eu840 2.432 . S
O892 C914 1.264 . S
O893 Eu851 2.339 . S
O893 C914 1.254 . S
O894 Eu851 2.563 . S
O894 C907 1.235 . S
O895 Eu851 2.419 . S
O895 C915 1.249 . S
C896 O885 1.276 . S
C896 O888 1.235 . S
C897 C899 1.393 . S
C897 C901 1.395 . S
C897 C904 1.492 . S
C898 C899 1.392 . S
C898 C900 1.386 . S
C899 C897 1.393 . S
C899 C898 1.392 . S
C899 H916 0.930 . S
C900 C898 1.386 . S
C900 C902 1.395 . S
C900 H917 0.930 . S
C901 C897 1.395 . S
C901 C902 1.379 . S
C901 H918 0.930 . S
C902 C900 1.395 . S
C902 C901 1.379 . S
C902 H919 0.930 . S
C903 O886 1.264 . S
C903 O887 1.254 . S
C904 Eu840 2.848 . S
C904 O884 1.257 . S
C904 O889 1.249 . S
C904 C897 1.492 . S
C905 H870 0.931 . S
C905 C883 1.420 . S
C905 C906 1.351 . S
C906 H868 0.930 . S
C906 C874 1.423 . S
C906 C905 1.351 . S
C907 O891 1.276 . S
C907 O894 1.235 . S
C908 C909 1.393 . S
C908 C912 1.395 . S
C908 C915 1.492 . S
C909 C908 1.393 . S
C909 C910 1.392 . S
C909 H920 0.930 . S
C910 C909 1.392 . S
C910 C911 1.386 . S
C911 C910 1.386 . S
C911 C913 1.395 . S
C911 H921 0.930 . S
C912 C908 1.395 . S
C912 C913 1.379 . S
C912 H922 0.930 . S
C913 C911 1.395 . S
C913 C912 1.379 . S
C913 H923 0.930 . S
C914 O892 1.264 . S
C914 O893 1.254 . S
C915 Eu851 2.848 . S
C915 O890 1.257 . S
C915 O895 1.249 . S
C915 C908 1.492 . S
H916 C899 0.930 . S
H917 C900 0.930 . S
H918 C901 0.930 . S
H919 C902 0.930 . S
H920 C909 0.930 . S
H921 C911 0.930 . S
H922 C912 0.930 . S
H923 C913 0.930 . S
Eu924 N955 2.657 . S
Eu924 N962 2.609 . S
Eu924 O968 2.558 1_545 S
Eu924 O969 2.612 . S
Eu924 O971 2.339 . S
Eu924 O972 2.563 1_545 S
Eu924 O973 2.419 1_545 S
Eu924 O975 2.380 . S
Eu924 O976 2.432 . S
Eu924 C988 2.848 1_545 S
C925 C928 1.429 . S
C925 C929 1.411 . S
C925 N932 1.377 . S
C926 C928 1.420 . S
C926 C930 1.423 . S
C926 C938 1.392 . S
C927 C929 1.420 . S
C927 C930 1.351 . S
C927 H950 0.931 . S
C928 C925 1.429 . S
C928 C926 1.420 . S
C928 N936 1.362 . S
C929 C925 1.411 . S
C929 C927 1.420 . S
C929 C934 1.395 . S
C930 C926 1.423 . S
C930 C927 1.351 . S
C930 H942 0.930 1_545 S
C931 C933 1.400 . S
C931 C934 1.386 . S
C931 H943 0.930 . S
N932 C925 1.377 . S
N932 C933 1.321 . S
N932 Eu935 2.609 . S
C933 C931 1.400 . S
C933 N932 1.321 . S
C933 H940 0.930 . S
C934 C929 1.395 . S
C934 C931 1.386 . S
C934 H953 0.930 . S
Eu935 N932 2.609 . S
Eu935 N936 2.657 . S
Eu935 O969 2.380 . S
Eu935 O970 2.432 . S
Eu935 O974 2.558 . S
Eu935 O975 2.612 . S
Eu935 O977 2.339 . S
Eu935 O978 2.563 . S
Eu935 O979 2.419 . S
Eu935 C999 2.848 . S
N936 C928 1.362 . S
N936 Eu935 2.657 . S
N936 C937 1.334 . S
C937 N936 1.334 . S
C937 C939 1.413 . S
C937 H944 0.929 . S
C938 C926 1.392 . S
C938 C939 1.367 . S
C938 H946 0.930 1_545 S
C939 C937 1.413 . S
C939 C938 1.367 . S
C939 H941 0.930 . S
H940 C933 0.930 . S
H941 C939 0.930 . S
H942 C930 0.930 1_565 S
H943 C931 0.930 . S
H944 C937 0.929 . S
H945 C959 0.930 . S
H946 C938 0.930 1_565 S
H947 C965 0.930 . S
H948 C956 0.929 . S
H949 C963 0.930 . S
H950 C927 0.931 . S
H951 C957 0.930 . S
H952 C990 0.930 . S
H953 C934 0.930 . S
H954 C989 0.931 . S
N955 Eu924 2.657 . S
N955 C956 1.334 . S
N955 C960 1.362 . S
C956 H948 0.929 . S
C956 N955 1.334 . S
C956 C959 1.413 . S
C957 H951 0.930 . S
C957 C958 1.392 . S
C957 C959 1.367 . S
C958 C957 1.392 . S
C958 C960 1.420 . S
C958 C990 1.423 . S
C959 H945 0.930 . S
C959 C956 1.413 . S
C959 C957 1.367 . S
C960 N955 1.362 . S
C960 C958 1.420 . S
C960 C964 1.429 . S
H961 C966 0.930 . S
N962 Eu924 2.609 . S
N962 C964 1.377 . S
N962 C965 1.321 . S
C963 H949 0.930 . S
C963 C965 1.400 . S
C963 C966 1.386 . S
C964 C960 1.429 . S
C964 N962 1.377 . S
C964 C967 1.411 . S
C965 H947 0.930 . S
C965 N962 1.321 . S
C965 C963 1.400 . S
C966 H961 0.930 . S
C966 C963 1.386 . S
C966 C967 1.395 . S
C967 C964 1.411 . S
C967 C966 1.395 . S
C967 C989 1.420 . S
O968 Eu924 2.558 1_565 S
O968 C988 1.257 . S
O969 Eu924 2.612 . S
O969 Eu935 2.380 . S
O969 C980 1.276 1_545 S
O970 Eu935 2.432 . S
O970 C987 1.264 . S
O971 Eu924 2.339 . S
O971 C987 1.254 . S
O972 Eu924 2.563 1_565 S
O972 C980 1.235 . S
O973 Eu924 2.419 1_565 S
O973 C988 1.249 . S
O974 Eu935 2.558 . S
O974 C999 1.257 . S
O975 Eu924 2.380 . S
O975 Eu935 2.612 . S
O975 C991 1.276 . S
O976 Eu924 2.432 . S
O976 C998 1.264 . S
O977 Eu935 2.339 . S
O977 C998 1.254 . S
O978 Eu935 2.563 . S
O978 C991 1.235 . S
O979 Eu935 2.419 . S
O979 C999 1.249 . S
C980 O969 1.276 1_565 S
C980 O972 1.235 . S
C981 C983 1.393 . S
C981 C985 1.395 . S
C981 C988 1.492 . S
C982 C983 1.392 . S
C982 C984 1.386 . S
C983 C981 1.393 . S
C983 C982 1.392 . S
C983 H1000 0.930 . S
C984 C982 1.386 . S
C984 C986 1.395 . S
C984 H1001 0.930 . S
C985 C981 1.395 . S
C985 C986 1.379 . S
C985 H1002 0.930 . S
C986 C984 1.395 . S
C986 C985 1.379 . S
C986 H1003 0.930 . S
C987 O970 1.264 . S
C987 O971 1.254 . S
C988 Eu924 2.848 1_565 S
C988 O968 1.257 . S
C988 O973 1.249 . S
C988 C981 1.492 . S
C989 H954 0.931 . S
C989 C967 1.420 . S
C989 C990 1.351 . S
C990 H952 0.930 . S
C990 C958 1.423 . S
C990 C989 1.351 . S
C991 O975 1.276 . S
C991 O978 1.235 . S
C992 C993 1.393 . S
C992 C996 1.395 . S
C992 C999 1.492 . S
C993 C992 1.393 . S
C993 C994 1.392 . S
C993 H1004 0.930 . S
C994 C993 1.392 . S
C994 C995 1.386 . S
C995 C994 1.386 . S
C995 C997 1.395 . S
C995 H1005 0.930 1_655 S
C996 C992 1.395 . S
C996 C997 1.379 . S
C996 H1006 0.930 . S
C997 C995 1.395 . S
C997 C996 1.379 . S
C997 H1007 0.930 . S
C998 O976 1.264 . S
C998 O977 1.254 . S
C999 Eu935 2.848 . S
C999 O974 1.257 . S
C999 O979 1.249 . S
C999 C992 1.492 . S
H1000 C983 0.930 . S
H1001 C984 0.930 . S
H1002 C985 0.930 . S
H1003 C986 0.930 . S
H1004 C993 0.930 . S
H1005 C995 0.930 1_455 S
H1006 C996 0.930 . S
H1007 C997 0.930 . S
Eu1008 N1039 2.657 . S
Eu1008 N1046 2.609 . S
Eu1008 O1052 2.558 . S
Eu1008 O1053 2.612 . S
Eu1008 O1055 2.339 . S
Eu1008 O1056 2.563 . S
Eu1008 O1057 2.419 . S
Eu1008 O1059 2.380 . S
Eu1008 O1060 2.432 . S
Eu1008 C1072 2.848 . S
C1009 C1012 1.429 . S
C1009 C1013 1.411 . S
C1009 N1016 1.377 . S
C1010 C1012 1.420 . S
C1010 C1014 1.423 . S
C1010 C1022 1.392 . S
C1011 C1013 1.420 . S
C1011 C1014 1.351 . S
C1011 H1034 0.931 . S
C1012 C1009 1.429 . S
C1012 C1010 1.420 . S
C1012 N1020 1.362 . S
C1013 C1009 1.411 . S
C1013 C1011 1.420 . S
C1013 C1018 1.395 . S
C1014 C1010 1.423 . S
C1014 C1011 1.351 . S
C1014 H1026 0.930 . S
C1015 C1017 1.400 . S
C1015 C1018 1.386 . S
C1015 H1027 0.930 . S
N1016 C1009 1.377 . S
N1016 C1017 1.321 . S
N1016 Eu1019 2.609 . S
C1017 C1015 1.400 . S
C1017 N1016 1.321 . S
C1017 H1024 0.930 . S
C1018 C1013 1.395 . S
C1018 C1015 1.386 . S
C1018 H1037 0.930 . S
Eu1019 N1016 2.609 . S
Eu1019 N1020 2.657 . S
Eu1019 O1053 2.380 . S
Eu1019 O1054 2.432 . S
Eu1019 O1058 2.558 . S
Eu1019 O1059 2.612 . S
Eu1019 O1061 2.339 . S
Eu1019 O1062 2.563 . S
Eu1019 O1063 2.419 . S
Eu1019 C1083 2.848 . S
N1020 C1012 1.362 . S
N1020 Eu1019 2.657 . S
N1020 C1021 1.334 . S
C1021 N1020 1.334 . S
C1021 C1023 1.413 . S
C1021 H1028 0.929 . S
C1022 C1010 1.392 . S
C1022 C1023 1.367 . S
C1022 H1030 0.930 . S
C1023 C1021 1.413 . S
C1023 C1022 1.367 . S
C1023 H1025 0.930 . S
H1024 C1017 0.930 . S
H1025 C1023 0.930 . S
H1026 C1014 0.930 . S
H1027 C1015 0.930 . S
H1028 C1021 0.929 . S
H1029 C1043 0.930 . S
H1030 C1022 0.930 . S
H1031 C1049 0.930 . S
H1032 C1040 0.929 . S
H1033 C1047 0.930 . S
H1034 C1011 0.931 . S
H1035 C1041 0.930 . S
H1036 C1074 0.930 . S
H1037 C1018 0.930 . S
H1038 C1073 0.931 . S
N1039 Eu1008 2.657 . S
N1039 C1040 1.334 . S
N1039 C1044 1.362 . S
C1040 H1032 0.929 . S
C1040 N1039 1.334 . S
C1040 C1043 1.413 1_455 S
C1041 H1035 0.930 . S
C1041 C1042 1.392 . S
C1041 C1043 1.367 . S
C1042 C1041 1.392 . S
C1042 C1044 1.420 1_655 S
C1042 C1074 1.423 . S
C1043 H1029 0.930 . S
C1043 C1040 1.413 1_655 S
C1043 C1041 1.367 . S
C1044 N1039 1.362 . S
C1044 C1042 1.420 1_455 S
C1044 C1048 1.429 . S
H1045 C1050 0.930 1_655 S
N1046 Eu1008 2.609 . S
N1046 C1048 1.377 . S
N1046 C1049 1.321 . S
C1047 H1033 0.930 . S
C1047 C1049 1.400 . S
C1047 C1050 1.386 . S
C1048 C1044 1.429 . S
C1048 N1046 1.377 . S
C1048 C1051 1.411 1_455 S
C1049 H1031 0.930 . S
C1049 N1046 1.321 . S
C1049 C1047 1.400 . S
C1050 H1045 0.930 1_455 S
C1050 C1047 1.386 . S
C1050 C1051 1.395 1_455 S
C1051 C1048 1.411 1_655 S
C1051 C1050 1.395 1_655 S
C1051 C1073 1.420 . S
O1052 Eu1008 2.558 . S
O1052 C1072 1.257 . S
O1053 Eu1008 2.612 . S
O1053 Eu1019 2.380 . S
O1053 C1064 1.276 . S
O1054 Eu1019 2.432 . S
O1054 C1071 1.264 . S
O1055 Eu1008 2.339 . S
O1055 C1071 1.254 . S
O1056 Eu1008 2.563 . S
O1056 C1064 1.235 . S
O1057 Eu1008 2.419 . S
O1057 C1072 1.249 . S
O1058 Eu1019 2.558 . S
O1058 C1083 1.257 . S
O1059 Eu1008 2.380 . S
O1059 Eu1019 2.612 . S
O1059 C1075 1.276 . S
O1060 Eu1008 2.432 . S
O1060 C1082 1.264 . S
O1061 Eu1019 2.339 . S
O1061 C1082 1.254 . S
O1062 Eu1019 2.563 . S
O1062 C1075 1.235 . S
O1063 Eu1019 2.419 . S
O1063 C1083 1.249 . S
C1064 O1053 1.276 . S
C1064 O1056 1.235 . S
C1065 C1067 1.393 . S
C1065 C1069 1.395 . S
C1065 C1072 1.492 . S
C1066 C1067 1.392 . S
C1066 C1068 1.386 . S
C1067 C1065 1.393 . S
C1067 C1066 1.392 . S
C1067 H1084 0.930 . S
C1068 C1066 1.386 . S
C1068 C1070 1.395 . S
C1068 H1085 0.930 . S
C1069 C1065 1.395 . S
C1069 C1070 1.379 . S
C1069 H1086 0.930 . S
C1070 C1068 1.395 . S
C1070 C1069 1.379 . S
C1070 H1087 0.930 . S
C1071 O1054 1.264 . S
C1071 O1055 1.254 . S
C1072 Eu1008 2.848 . S
C1072 O1052 1.257 . S
C1072 O1057 1.249 . S
C1072 C1065 1.492 . S
C1073 H1038 0.931 . S
C1073 C1051 1.420 . S
C1073 C1074 1.351 . S
C1074 H1036 0.930 . S
C1074 C1042 1.423 . S
C1074 C1073 1.351 . S
C1075 O1059 1.276 . S
C1075 O1062 1.235 . S
C1076 C1077 1.393 . S
C1076 C1080 1.395 . S
C1076 C1083 1.492 . S
C1077 C1076 1.393 . S
C1077 C1078 1.392 . S
C1077 H1088 0.930 . S
C1078 C1077 1.392 . S
C1078 C1079 1.386 . S
C1079 C1078 1.386 . S
C1079 C1081 1.395 . S
C1079 H1089 0.930 . S
C1080 C1076 1.395 . S
C1080 C1081 1.379 . S
C1080 H1090 0.930 . S
C1081 C1079 1.395 . S
C1081 C1080 1.379 . S
C1081 H1091 0.930 . S
C1082 O1060 1.264 . S
C1082 O1061 1.254 . S
C1083 Eu1019 2.848 . S
C1083 O1058 1.257 . S
C1083 O1063 1.249 . S
C1083 C1076 1.492 . S
H1084 C1067 0.930 . S
H1085 C1068 0.930 . S
H1086 C1069 0.930 . S
H1087 C1070 0.930 . S
H1088 C1077 0.930 . S
H1089 C1079 0.930 . S
H1090 C1080 0.930 . S
H1091 C1081 0.930 . S
Eu1092 N1123 2.657 . S
Eu1092 N1130 2.609 . S
Eu1092 O1136 2.558 . S
Eu1092 O1137 2.612 . S
Eu1092 O1139 2.339 . S
Eu1092 O1140 2.563 . S
Eu1092 O1141 2.419 . S
Eu1092 O1143 2.380 . S
Eu1092 O1144 2.432 . S
Eu1092 C1156 2.848 . S
C1093 C1096 1.429 . S
C1093 C1097 1.411 . S
C1093 N1100 1.377 . S
C1094 C1096 1.420 . S
C1094 C1098 1.423 . S
C1094 C1106 1.392 . S
C1095 C1097 1.420 . S
C1095 C1098 1.351 . S
C1095 H1118 0.931 . S
C1096 C1093 1.429 . S
C1096 C1094 1.420 . S
C1096 N1104 1.362 . S
C1097 C1093 1.411 . S
C1097 C1095 1.420 . S
C1097 C1102 1.395 . S
C1098 C1094 1.423 . S
C1098 C1095 1.351 . S
C1098 H1110 0.930 . S
C1099 C1101 1.401 . S
C1099 C1102 1.386 . S
C1099 H1111 0.930 . S
N1100 C1093 1.377 . S
N1100 C1101 1.322 . S
N1100 Eu1103 2.609 1_545 S
C1101 C1099 1.401 . S
C1101 N1100 1.322 . S
C1101 H1108 0.927 1_545 S
C1102 C1097 1.395 . S
C1102 C1099 1.386 . S
C1102 H1121 0.930 . S
Eu1103 N1100 2.609 1_565 S
Eu1103 N1104 2.657 1_565 S
Eu1103 O1137 2.380 . S
Eu1103 O1138 2.432 . S
Eu1103 O1142 2.558 1_565 S
Eu1103 O1143 2.612 . S
Eu1103 O1145 2.339 . S
Eu1103 O1146 2.563 . S
Eu1103 O1147 2.419 1_565 S
Eu1103 C1167 2.848 1_565 S
N1104 C1096 1.362 . S
N1104 Eu1103 2.657 1_545 S
N1104 C1105 1.334 . S
C1105 N1104 1.334 . S
C1105 C1107 1.413 . S
C1105 H1112 0.929 . S
C1106 C1094 1.392 . S
C1106 C1107 1.367 . S
C1106 H1114 0.930 . S
C1107 C1105 1.413 . S
C1107 C1106 1.367 . S
C1107 H1109 0.930 . S
H1108 C1101 0.927 1_565 S
H1109 C1107 0.930 . S
H1110 C1098 0.930 . S
H1111 C1099 0.930 . S
H1112 C1105 0.929 . S
H1113 C1127 0.930 . S
H1114 C1106 0.930 . S
H1115 C1133 0.930 . S
H1116 C1124 0.929 . S
H1117 C1131 0.930 . S
H1118 C1095 0.931 . S
H1119 C1125 0.930 . S
H1120 C1158 0.930 . S
H1121 C1102 0.930 . S
H1122 C1157 0.931 . S
N1123 Eu1092 2.657 . S
N1123 C1124 1.334 . S
N1123 C1128 1.362 . S
C1124 H1116 0.929 . S
C1124 N1123 1.334 . S
C1124 C1127 1.413 . S
C1125 H1119 0.930 . S
C1125 C1126 1.392 . S
C1125 C1127 1.367 . S
C1126 C1125 1.392 . S
C1126 C1128 1.420 . S
C1126 C1158 1.423 . S
C1127 H1113 0.930 . S
C1127 C1124 1.413 . S
C1127 C1125 1.367 . S
C1128 N1123 1.362 . S
C1128 C1126 1.420 . S
C1128 C1132 1.429 . S
H1129 C1134 0.930 . S
N1130 Eu1092 2.609 . S
N1130 C1132 1.377 . S
N1130 C1133 1.321 . S
C1131 H1117 0.930 . S
C1131 C1133 1.400 . S
C1131 C1134 1.386 . S
C1132 C1128 1.429 . S
C1132 N1130 1.377 . S
C1132 C1135 1.411 . S
C1133 H1115 0.930 . S
C1133 N1130 1.321 . S
C1133 C1131 1.400 . S
C1134 H1129 0.930 . S
C1134 C1131 1.386 . S
C1134 C1135 1.395 . S
C1135 C1132 1.411 . S
C1135 C1134 1.395 . S
C1135 C1157 1.420 . S
O1136 Eu1092 2.558 . S
O1136 C1156 1.257 . S
O1137 Eu1092 2.612 . S
O1137 Eu1103 2.380 . S
O1137 C1148 1.276 . S
O1138 Eu1103 2.432 . S
O1138 C1155 1.264 . S
O1139 Eu1092 2.339 . S
O1139 C1155 1.254 . S
O1140 Eu1092 2.563 . S
O1140 C1148 1.235 . S
O1141 Eu1092 2.419 . S
O1141 C1156 1.249 . S
O1142 Eu1103 2.558 1_545 S
O1142 C1167 1.257 . S
O1143 Eu1092 2.380 . S
O1143 Eu1103 2.612 . S
O1143 C1159 1.276 . S
O1144 Eu1092 2.432 . S
O1144 C1166 1.264 . S
O1145 Eu1103 2.339 . S
O1145 C1166 1.254 . S
O1146 Eu1103 2.563 . S
O1146 C1159 1.235 . S
O1147 Eu1103 2.419 1_545 S
O1147 C1167 1.249 . S
C1148 O1137 1.276 . S
C1148 O1140 1.235 . S
C1149 C1151 1.393 . S
C1149 C1153 1.395 . S
C1149 C1156 1.492 . S
C1150 C1151 1.392 . S
C1150 C1152 1.386 . S
C1151 C1149 1.393 . S
C1151 C1150 1.392 . S
C1151 H1168 0.930 . S
C1152 C1150 1.386 . S
C1152 C1154 1.395 . S
C1152 H1169 0.930 . S
C1153 C1149 1.395 . S
C1153 C1154 1.379 . S
C1153 H1170 0.930 . S
C1154 C1152 1.395 . S
C1154 C1153 1.379 . S
C1154 H1171 0.930 . S
C1155 O1138 1.264 . S
C1155 O1139 1.254 . S
C1156 Eu1092 2.848 . S
C1156 O1136 1.257 . S
C1156 O1141 1.249 . S
C1156 C1149 1.492 . S
C1157 H1122 0.931 . S
C1157 C1135 1.420 . S
C1157 C1158 1.351 . S
C1158 H1120 0.930 . S
C1158 C1126 1.423 . S
C1158 C1157 1.351 . S
C1159 O1143 1.276 . S
C1159 O1146 1.235 . S
C1160 C1161 1.398 . S
C1160 C1164 1.395 . S
C1160 C1167 1.492 . S
C1161 C1160 1.398 . S
C1161 C1162 1.386 1_655 S
C1161 H1172 0.931 . S
C1162 C1161 1.386 1_455 S
C1162 C1163 1.386 . S
C1163 C1162 1.386 . S
C1163 C1165 1.395 . S
C1163 H1173 0.930 . S
C1164 C1160 1.395 . S
C1164 C1165 1.379 1_655 S
C1164 H1174 0.930 . S
C1165 C1163 1.395 . S
C1165 C1164 1.379 1_455 S
C1165 H1175 0.930 . S
C1166 O1144 1.264 . S
C1166 O1145 1.254 . S
C1167 Eu1103 2.848 1_545 S
C1167 O1142 1.257 . S
C1167 O1147 1.249 . S
C1167 C1160 1.492 . S
H1168 C1151 0.930 . S
H1169 C1152 0.930 . S
H1170 C1153 0.930 . S
H1171 C1154 0.930 . S
H1172 C1161 0.931 . S
H1173 C1163 0.930 . S
H1174 C1164 0.930 . S
H1175 C1165 0.930 . S
Eu1176 N1207 2.657 1_565 S
Eu1176 N1214 2.609 1_565 S
Eu1176 O1220 2.558 . S
Eu1176 O1221 2.612 . S
Eu1176 O1223 2.339 . S
Eu1176 O1224 2.563 . S
Eu1176 O1225 2.419 . S
Eu1176 O1227 2.380 . S
Eu1176 O1228 2.432 . S
Eu1176 C1240 2.848 . S
C1177 C1180 1.429 . S
C1177 C1181 1.411 . S
C1177 N1184 1.377 . S
C1178 C1180 1.420 . S
C1178 C1182 1.423 . S
C1178 C1190 1.392 . S
C1179 C1181 1.420 . S
C1179 C1182 1.351 . S
C1179 H1202 0.931 . S
C1180 C1177 1.429 . S
C1180 C1178 1.420 . S
C1180 N1188 1.362 . S
C1181 C1177 1.411 . S
C1181 C1179 1.420 . S
C1181 C1186 1.395 . S
C1182 C1178 1.423 . S
C1182 C1179 1.351 . S
C1182 H1194 0.930 . S
C1183 C1185 1.400 . S
C1183 C1186 1.386 . S
C1183 H1195 0.930 . S
N1184 C1177 1.377 . S
N1184 C1185 1.321 . S
N1184 Eu1187 2.609 . S
C1185 C1183 1.400 . S
C1185 N1184 1.321 . S
C1185 H1192 0.930 . S
C1186 C1181 1.395 . S
C1186 C1183 1.386 . S
C1186 H1205 0.930 . S
Eu1187 N1184 2.609 . S
Eu1187 N1188 2.657 . S
Eu1187 O1221 2.380 . S
Eu1187 O1222 2.432 . S
Eu1187 O1226 2.558 . S
Eu1187 O1227 2.612 . S
Eu1187 O1229 2.339 . S
Eu1187 O1230 2.563 . S
Eu1187 O1231 2.419 . S
Eu1187 C1251 2.848 . S
N1188 C1180 1.362 . S
N1188 Eu1187 2.657 . S
N1188 C1189 1.334 . S
C1189 N1188 1.334 . S
C1189 C1191 1.413 . S
C1189 H1196 0.929 . S
C1190 C1178 1.392 . S
C1190 C1191 1.367 . S
C1190 H1198 0.930 . S
C1191 C1189 1.413 . S
C1191 C1190 1.367 . S
C1191 H1193 0.930 . S
H1192 C1185 0.930 . S
H1193 C1191 0.930 . S
H1194 C1182 0.930 . S
H1195 C1183 0.930 . S
H1196 C1189 0.929 . S
H1197 C1211 0.930 . S
H1198 C1190 0.930 . S
H1199 C1217 0.930 1_565 S
H1200 C1208 0.929 . S
H1201 C1215 0.930 . S
H1202 C1179 0.931 . S
H1203 C1209 0.930 . S
H1204 C1242 0.930 . S
H1205 C1186 0.930 . S
H1206 C1241 0.931 . S
N1207 Eu1176 2.657 1_545 S
N1207 C1208 1.334 . S
N1207 C1212 1.362 . S
C1208 H1200 0.929 . S
C1208 N1207 1.334 . S
C1208 C1211 1.413 . S
C1209 H1203 0.930 . S
C1209 C1210 1.392 . S
C1209 C1211 1.367 . S
C1210 C1209 1.392 . S
C1210 C1212 1.420 . S
C1210 C1242 1.423 . S
C1211 H1197 0.930 . S
C1211 C1208 1.413 . S
C1211 C1209 1.367 . S
C1212 N1207 1.362 . S
C1212 C1210 1.420 . S
C1212 C1216 1.429 . S
H1213 C1218 0.930 . S
N1214 Eu1176 2.609 1_545 S
N1214 C1216 1.377 . S
N1214 C1217 1.321 . S
C1215 H1201 0.930 . S
C1215 C1217 1.400 . S
C1215 C1218 1.386 . S
C1216 C1212 1.429 . S
C1216 N1214 1.377 . S
C1216 C1219 1.411 . S
C1217 H1199 0.930 1_545 S
C1217 N1214 1.321 . S
C1217 C1215 1.400 . S
C1218 H1213 0.930 . S
C1218 C1215 1.386 . S
C1218 C1219 1.395 . S
C1219 C1216 1.411 . S
C1219 C1218 1.395 . S
C1219 C1241 1.420 . S
O1220 Eu1176 2.558 . S
O1220 C1240 1.257 . S
O1221 Eu1176 2.612 . S
O1221 Eu1187 2.380 . S
O1221 C1232 1.276 . S
O1222 Eu1187 2.432 . S
O1222 C1239 1.264 . S
O1223 Eu1176 2.339 . S
O1223 C1239 1.254 . S
O1224 Eu1176 2.563 . S
O1224 C1232 1.235 . S
O1225 Eu1176 2.419 . S
O1225 C1240 1.249 . S
O1226 Eu1187 2.558 . S
O1226 C1251 1.257 . S
O1227 Eu1176 2.380 . S
O1227 Eu1187 2.612 . S
O1227 C1243 1.276 1_565 S
O1228 Eu1176 2.432 . S
O1228 C1250 1.264 . S
O1229 Eu1187 2.339 . S
O1229 C1250 1.254 . S
O1230 Eu1187 2.563 . S
O1230 C1243 1.235 1_565 S
O1231 Eu1187 2.419 . S
O1231 C1251 1.249 . S
C1232 O1221 1.276 . S
C1232 O1224 1.235 . S
C1233 C1235 1.393 . S
C1233 C1237 1.395 . S
C1233 C1240 1.492 . S
C1234 C1235 1.392 . S
C1234 C1236 1.386 . S
C1235 C1233 1.393 . S
C1235 C1234 1.392 . S
C1235 H1252 0.930 . S
C1236 C1234 1.386 . S
C1236 C1238 1.395 . S
C1236 H1253 0.930 . S
C1237 C1233 1.395 . S
C1237 C1238 1.379 . S
C1237 H1254 0.930 . S
C1238 C1236 1.395 . S
C1238 C1237 1.379 . S
C1238 H1255 0.930 . S
C1239 O1222 1.264 . S
C1239 O1223 1.254 . S
C1240 Eu1176 2.848 . S
C1240 O1220 1.257 . S
C1240 O1225 1.249 . S
C1240 C1233 1.492 . S
C1241 H1206 0.931 . S
C1241 C1219 1.420 . S
C1241 C1242 1.351 . S
C1242 H1204 0.930 . S
C1242 C1210 1.423 . S
C1242 C1241 1.351 . S
C1243 O1227 1.276 1_545 S
C1243 O1230 1.235 1_545 S
C1244 C1245 1.393 . S
C1244 C1248 1.395 . S
C1244 C1251 1.492 1_655 S
C1245 C1244 1.393 . S
C1245 C1246 1.392 . S
C1245 H1256 0.930 . S
C1246 C1245 1.392 . S
C1246 C1247 1.386 . S
C1247 C1246 1.386 . S
C1247 C1249 1.395 . S
C1247 H1257 0.930 . S
C1248 C1244 1.395 . S
C1248 C1249 1.379 . S
C1248 H1258 0.930 . S
C1249 C1247 1.395 . S
C1249 C1248 1.379 . S
C1249 H1259 0.930 . S
C1250 O1228 1.264 . S
C1250 O1229 1.254 . S
C1251 Eu1187 2.848 . S
C1251 O1226 1.257 . S
C1251 O1231 1.249 . S
C1251 C1244 1.492 1_455 S
H1252 C1235 0.930 . S
H1253 C1236 0.930 . S
H1254 C1237 0.930 . S
H1255 C1238 0.930 . S
H1256 C1245 0.930 . S
H1257 C1247 0.930 . S
H1258 C1248 0.930 . S
H1259 C1249 0.930 . S
Eu1260 N1291 2.657 . S
Eu1260 N1298 2.609 . S
Eu1260 O1304 2.558 . S
Eu1260 O1305 2.612 . S
Eu1260 O1307 2.339 . S
Eu1260 O1308 2.563 . S
Eu1260 O1309 2.419 . S
Eu1260 O1311 2.380 . S
Eu1260 O1312 2.432 . S
Eu1260 C1324 2.848 . S
C1261 C1264 1.429 . S
C1261 C1265 1.411 . S
C1261 N1268 1.377 . S
C1262 C1264 1.420 . S
C1262 C1266 1.423 . S
C1262 C1274 1.392 . S
C1263 C1265 1.420 . S
C1263 C1266 1.351 . S
C1263 H1286 0.931 . S
C1264 C1261 1.429 . S
C1264 C1262 1.420 . S
C1264 N1272 1.362 . S
C1265 C1261 1.411 . S
C1265 C1263 1.420 . S
C1265 C1270 1.395 . S
C1266 C1262 1.423 . S
C1266 C1263 1.351 . S
C1266 H1278 0.930 . S
C1267 C1269 1.400 1_545 S
C1267 C1270 1.386 . S
C1267 H1279 0.930 . S
N1268 C1261 1.377 . S
N1268 C1269 1.321 1_545 S
N1268 Eu1271 2.609 1_545 S
C1269 C1267 1.400 1_565 S
C1269 N1268 1.321 1_565 S
C1269 H1276 0.930 . S
C1270 C1265 1.395 . S
C1270 C1267 1.386 . S
C1270 H1289 0.930 . S
Eu1271 N1268 2.609 1_565 S
Eu1271 N1272 2.657 1_565 S
Eu1271 O1305 2.380 . S
Eu1271 O1306 2.432 . S
Eu1271 O1310 2.558 . S
Eu1271 O1311 2.612 . S
Eu1271 O1313 2.339 . S
Eu1271 O1314 2.563 . S
Eu1271 O1315 2.419 . S
Eu1271 C1335 2.848 . S
N1272 C1264 1.362 . S
N1272 Eu1271 2.657 1_545 S
N1272 C1273 1.334 . S
C1273 N1272 1.334 . S
C1273 C1275 1.413 . S
C1273 H1280 0.929 . S
C1274 C1262 1.392 . S
C1274 C1275 1.367 . S
C1274 H1282 0.930 . S
C1275 C1273 1.413 . S
C1275 C1274 1.367 . S
C1275 H1277 0.930 . S
H1276 C1269 0.930 . S
H1277 C1275 0.930 . S
H1278 C1266 0.930 . S
H1279 C1267 0.930 . S
H1280 C1273 0.929 . S
H1281 C1295 0.930 . S
H1282 C1274 0.930 . S
H1283 C1301 0.930 . S
H1284 C1292 0.929 . S
H1285 C1299 0.930 . S
H1286 C1263 0.931 . S
H1287 C1293 0.930 . S
H1288 C1326 0.930 . S
H1289 C1270 0.930 . S
H1290 C1325 0.931 . S
N1291 Eu1260 2.657 . S
N1291 C1292 1.334 . S
N1291 C1296 1.362 . S
C1292 H1284 0.929 . S
C1292 N1291 1.334 . S
C1292 C1295 1.413 . S
C1293 H1287 0.930 . S
C1293 C1294 1.392 . S
C1293 C1295 1.367 . S
C1294 C1293 1.392 . S
C1294 C1296 1.420 . S
C1294 C1326 1.423 . S
C1295 H1281 0.930 . S
C1295 C1292 1.413 . S
C1295 C1293 1.367 . S
C1296 N1291 1.362 . S
C1296 C1294 1.420 . S
C1296 C1300 1.429 . S
H1297 C1302 0.930 . S
N1298 Eu1260 2.609 . S
N1298 C1300 1.377 . S
N1298 C1301 1.321 . S
C1299 H1285 0.930 . S
C1299 C1301 1.400 . S
C1299 C1302 1.386 . S
C1300 C1296 1.429 . S
C1300 N1298 1.377 . S
C1300 C1303 1.411 . S
C1301 H1283 0.930 . S
C1301 N1298 1.321 . S
C1301 C1299 1.400 . S
C1302 H1297 0.930 . S
C1302 C1299 1.386 . S
C1302 C1303 1.395 . S
C1303 C1300 1.411 . S
C1303 C1302 1.395 . S
C1303 C1325 1.420 . S
O1304 Eu1260 2.558 . S
O1304 C1324 1.257 . S
O1305 Eu1260 2.612 . S
O1305 Eu1271 2.380 . S
O1305 C1316 1.276 . S
O1306 Eu1271 2.432 . S
O1306 C1323 1.264 . S
O1307 Eu1260 2.339 . S
O1307 C1323 1.254 . S
O1308 Eu1260 2.563 . S
O1308 C1316 1.235 . S
O1309 Eu1260 2.419 . S
O1309 C1324 1.249 . S
O1310 Eu1271 2.558 . S
O1310 C1335 1.257 . S
O1311 Eu1260 2.380 . S
O1311 Eu1271 2.612 . S
O1311 C1327 1.276 . S
O1312 Eu1260 2.432 . S
O1312 C1334 1.264 . S
O1313 Eu1271 2.339 . S
O1313 C1334 1.254 . S
O1314 Eu1271 2.563 . S
O1314 C1327 1.235 . S
O1315 Eu1271 2.419 . S
O1315 C1335 1.249 . S
C1316 O1305 1.276 . S
C1316 O1308 1.235 . S
C1317 C1319 1.393 1_655 S
C1317 C1321 1.395 1_655 S
C1317 C1324 1.492 . S
C1318 C1319 1.392 . S
C1318 C1320 1.386 . S
C1319 C1317 1.393 1_455 S
C1319 C1318 1.392 . S
C1319 H1336 0.930 . S
C1320 C1318 1.386 . S
C1320 C1322 1.395 . S
C1320 H1337 0.930 . S
C1321 C1317 1.395 1_455 S
C1321 C1322 1.379 . S
C1321 H1338 0.930 1_455 S
C1322 C1320 1.395 . S
C1322 C1321 1.379 . S
C1322 H1339 0.930 . S
C1323 O1306 1.264 . S
C1323 O1307 1.254 . S
C1324 Eu1260 2.848 . S
C1324 O1304 1.257 . S
C1324 O1309 1.249 . S
C1324 C1317 1.492 . S
C1325 H1290 0.931 . S
C1325 C1303 1.420 . S
C1325 C1326 1.351 . S
C1326 H1288 0.930 . S
C1326 C1294 1.423 . S
C1326 C1325 1.351 . S
C1327 O1311 1.276 . S
C1327 O1314 1.235 . S
C1328 C1329 1.393 . S
C1328 C1332 1.395 . S
C1328 C1335 1.492 . S
C1329 C1328 1.393 . S
C1329 C1330 1.392 . S
C1329 H1340 0.930 . S
C1330 C1329 1.392 . S
C1330 C1331 1.386 . S
C1331 C1330 1.386 . S
C1331 C1333 1.395 . S
C1331 H1341 0.930 . S
C1332 C1328 1.395 . S
C1332 C1333 1.379 . S
C1332 H1342 0.930 . S
C1333 C1331 1.395 . S
C1333 C1332 1.379 . S
C1333 H1343 0.930 . S
C1334 O1312 1.264 . S
C1334 O1313 1.254 . S
C1335 Eu1271 2.848 . S
C1335 O1310 1.257 . S
C1335 O1315 1.249 . S
C1335 C1328 1.492 . S
H1336 C1319 0.930 . S
H1337 C1320 0.930 . S
H1338 C1321 0.930 1_655 S
H1339 C1322 0.930 . S
H1340 C1329 0.930 . S
H1341 C1331 0.930 . S
H1342 C1332 0.930 . S
H1343 C1333 0.930 . S
Eu1344 N1375 2.657 . S
Eu1344 N1382 2.609 . S
Eu1344 O1388 2.558 . S
Eu1344 O1389 2.612 1_545 S
Eu1344 O1391 2.339 . S
Eu1344 O1392 2.566 1_545 S
Eu1344 O1393 2.419 . S
Eu1344 O1395 2.380 1_545 S
Eu1344 O1396 2.432 1_545 S
Eu1344 C1408 2.848 . S
C1345 C1348 1.429 . S
C1345 C1349 1.411 . S
C1345 N1352 1.377 . S
C1346 C1348 1.420 1_655 S
C1346 C1350 1.423 . S
C1346 C1358 1.392 . S
C1347 C1349 1.420 1_655 S
C1347 C1350 1.351 . S
C1347 H1370 0.931 . S
C1348 C1345 1.429 . S
C1348 C1346 1.420 1_455 S
C1348 N1356 1.362 . S
C1349 C1345 1.411 . S
C1349 C1347 1.420 1_455 S
C1349 C1354 1.395 . S
C1350 C1346 1.423 . S
C1350 C1347 1.351 . S
C1350 H1362 0.930 . S
C1351 C1353 1.400 . S
C1351 C1354 1.386 . S
C1351 H1363 0.930 . S
N1352 C1345 1.377 . S
N1352 C1353 1.321 . S
N1352 Eu1355 2.609 . S
C1353 C1351 1.400 . S
C1353 N1352 1.321 . S
C1353 H1360 0.930 . S
C1354 C1349 1.395 . S
C1354 C1351 1.386 . S
C1354 H1373 0.930 . S
Eu1355 N1352 2.609 . S
Eu1355 N1356 2.657 . S
Eu1355 O1389 2.380 . S
Eu1355 O1390 2.432 . S
Eu1355 O1394 2.558 . S
Eu1355 O1395 2.612 . S
Eu1355 O1397 2.339 . S
Eu1355 O1398 2.563 . S
Eu1355 O1399 2.419 . S
Eu1355 C1419 2.848 . S
N1356 C1348 1.362 . S
N1356 Eu1355 2.657 . S
N1356 C1357 1.334 . S
C1357 N1356 1.334 . S
C1357 C1359 1.413 1_455 S
C1357 H1364 0.929 . S
C1358 C1346 1.392 . S
C1358 C1359 1.367 . S
C1358 H1366 0.930 . S
C1359 C1357 1.413 1_655 S
C1359 C1358 1.367 . S
C1359 H1361 0.930 . S
H1360 C1353 0.930 . S
H1361 C1359 0.930 . S
H1362 C1350 0.930 . S
H1363 C1351 0.930 . S
H1364 C1357 0.929 . S
H1365 C1379 0.930 . S
H1366 C1358 0.930 . S
H1367 C1385 0.930 . S
H1368 C1376 0.929 . S
H1369 C1383 0.930 . S
H1370 C1347 0.931 . S
H1371 C1377 0.930 . S
H1372 C1410 0.930 . S
H1373 C1354 0.930 . S
H1374 C1409 0.931 . S
N1375 Eu1344 2.657 . S
N1375 C1376 1.334 . S
N1375 C1380 1.362 . S
C1376 H1368 0.929 . S
C1376 N1375 1.334 . S
C1376 C1379 1.413 . S
C1377 H1371 0.930 . S
C1377 C1378 1.392 . S
C1377 C1379 1.367 . S
C1378 C1377 1.392 . S
C1378 C1380 1.420 . S
C1378 C1410 1.423 . S
C1379 H1365 0.930 . S
C1379 C1376 1.413 . S
C1379 C1377 1.367 . S
C1380 N1375 1.362 . S
C1380 C1378 1.420 . S
C1380 C1384 1.429 . S
H1381 C1386 0.930 . S
N1382 Eu1344 2.609 . S
N1382 C1384 1.377 . S
N1382 C1385 1.321 . S
C1383 H1369 0.930 . S
C1383 C1385 1.400 . S
C1383 C1386 1.386 . S
C1384 C1380 1.429 . S
C1384 N1382 1.377 . S
C1384 C1387 1.411 . S
C1385 H1367 0.930 . S
C1385 N1382 1.321 . S
C1385 C1383 1.400 . S
C1386 H1381 0.930 . S
C1386 C1383 1.386 . S
C1386 C1387 1.395 . S
C1387 C1384 1.411 . S
C1387 C1386 1.395 . S
C1387 C1409 1.420 . S
O1388 Eu1344 2.558 . S
O1388 C1408 1.257 . S
O1389 Eu1344 2.612 1_565 S
O1389 Eu1355 2.380 . S
O1389 C1400 1.276 . S
O1390 Eu1355 2.432 . S
O1390 C1407 1.264 . S
O1391 Eu1344 2.339 . S
O1391 C1407 1.254 1_545 S
O1392 Eu1344 2.566 1_565 S
O1392 C1400 1.239 . S
O1393 Eu1344 2.419 . S
O1393 C1408 1.249 . S
O1394 Eu1355 2.558 . S
O1394 C1419 1.257 . S
O1395 Eu1344 2.380 1_565 S
O1395 Eu1355 2.612 . S
O1395 C1411 1.276 . S
O1396 Eu1344 2.432 1_565 S
O1396 C1418 1.264 . S
O1397 Eu1355 2.339 . S
O1397 C1418 1.254 . S
O1398 Eu1355 2.563 . S
O1398 C1411 1.235 . S
O1399 Eu1355 2.419 . S
O1399 C1419 1.249 . S
C1400 O1389 1.276 . S
C1400 O1392 1.239 . S
C1401 C1403 1.393 . S
C1401 C1405 1.395 . S
C1401 C1408 1.492 . S
C1402 C1403 1.392 . S
C1402 C1404 1.386 . S
C1403 C1401 1.393 . S
C1403 C1402 1.392 . S
C1403 H1420 0.930 . S
C1404 C1402 1.386 . S
C1404 C1406 1.395 . S
C1404 H1421 0.930 . S
C1405 C1401 1.395 . S
C1405 C1406 1.379 . S
C1405 H1422 0.930 . S
C1406 C1404 1.395 . S
C1406 C1405 1.379 . S
C1406 H1423 0.930 . S
C1407 O1390 1.264 . S
C1407 O1391 1.254 1_565 S
C1408 Eu1344 2.848 . S
C1408 O1388 1.257 . S
C1408 O1393 1.249 . S
C1408 C1401 1.492 . S
C1409 H1374 0.931 . S
C1409 C1387 1.420 . S
C1409 C1410 1.351 . S
C1410 H1372 0.930 . S
C1410 C1378 1.423 . S
C1410 C1409 1.351 . S
C1411 O1395 1.276 . S
C1411 O1398 1.235 . S
C1412 C1413 1.393 . S
C1412 C1416 1.395 . S
C1412 C1419 1.492 . S
C1413 C1412 1.393 . S
C1413 C1414 1.392 . S
C1413 H1424 0.930 . S
C1414 C1413 1.392 . S
C1414 C1415 1.386 . S
C1415 C1414 1.386 . S
C1415 C1417 1.395 . S
C1415 H1425 0.930 . S
C1416 C1412 1.395 . S
C1416 C1417 1.379 . S
C1416 H1426 0.930 . S
C1417 C1415 1.395 . S
C1417 C1416 1.379 . S
C1417 H1427 0.930 . S
C1418 O1396 1.264 . S
C1418 O1397 1.254 . S
C1419 Eu1355 2.848 . S
C1419 O1394 1.257 . S
C1419 O1399 1.249 . S
C1419 C1412 1.492 . S
H1420 C1403 0.930 . S
H1421 C1404 0.930 . S
H1422 C1405 0.930 . S
H1423 C1406 0.930 . S
H1424 C1413 0.930 . S
H1425 C1415 0.930 . S
H1426 C1416 0.930 . S
H1427 C1417 0.930 . S
Eu1428 N1459 2.657 . S
Eu1428 N1466 2.609 . S
Eu1428 O1472 2.558 . S
Eu1428 O1473 2.612 . S
Eu1428 O1475 2.339 . S
Eu1428 O1476 2.563 . S
Eu1428 O1477 2.419 . S
Eu1428 O1479 2.380 . S
Eu1428 O1480 2.432 . S
Eu1428 C1492 2.848 . S
C1429 C1432 1.429 . S
C1429 C1433 1.411 . S
C1429 N1436 1.377 . S
C1430 C1432 1.420 . S
C1430 C1434 1.423 . S
C1430 C1442 1.392 . S
C1431 C1433 1.420 . S
C1431 C1434 1.351 . S
C1431 H1454 0.931 . S
C1432 C1429 1.429 . S
C1432 C1430 1.420 . S
C1432 N1440 1.362 . S
C1433 C1429 1.411 . S
C1433 C1431 1.420 . S
C1433 C1438 1.395 . S
C1434 C1430 1.423 . S
C1434 C1431 1.351 . S
C1434 H1446 0.930 . S
C1435 C1437 1.400 . S
C1435 C1438 1.386 . S
C1435 H1447 0.930 . S
N1436 C1429 1.377 . S
N1436 C1437 1.321 . S
N1436 Eu1439 2.609 . S
C1437 C1435 1.400 . S
C1437 N1436 1.321 . S
C1437 H1444 0.930 . S
C1438 C1433 1.395 . S
C1438 C1435 1.386 . S
C1438 H1457 0.930 . S
Eu1439 N1436 2.609 . S
Eu1439 N1440 2.657 . S
Eu1439 O1473 2.380 . S
Eu1439 O1474 2.432 . S
Eu1439 O1478 2.558 . S
Eu1439 O1479 2.612 . S
Eu1439 O1481 2.339 . S
Eu1439 O1482 2.563 . S
Eu1439 O1483 2.419 . S
Eu1439 C1503 2.848 . S
N1440 C1432 1.362 . S
N1440 Eu1439 2.657 . S
N1440 C1441 1.334 . S
C1441 N1440 1.334 . S
C1441 C1443 1.413 . S
C1441 H1448 0.929 . S
C1442 C1430 1.392 . S
C1442 C1443 1.367 . S
C1442 H1450 0.930 . S
C1443 C1441 1.413 . S
C1443 C1442 1.367 . S
C1443 H1445 0.930 . S
H1444 C1437 0.930 . S
H1445 C1443 0.930 . S
H1446 C1434 0.930 . S
H1447 C1435 0.930 . S
H1448 C1441 0.929 . S
H1449 C1463 0.930 . S
H1450 C1442 0.930 . S
H1451 C1469 0.930 . S
H1452 C1460 0.929 . S
H1453 C1467 0.930 . S
H1454 C1431 0.931 . S
H1455 C1461 0.930 . S
H1456 C1494 0.930 . S
H1457 C1438 0.930 . S
H1458 C1493 0.931 . S
N1459 Eu1428 2.657 . S
N1459 C1460 1.334 . S
N1459 C1464 1.362 . S
C1460 H1452 0.929 . S
C1460 N1459 1.334 . S
C1460 C1463 1.413 . S
C1461 H1455 0.930 . S
C1461 C1462 1.392 . S
C1461 C1463 1.367 1_655 S
C1462 C1461 1.392 . S
C1462 C1464 1.420 1_655 S
C1462 C1494 1.423 . S
C1463 H1449 0.930 . S
C1463 C1460 1.413 . S
C1463 C1461 1.367 1_455 S
C1464 N1459 1.362 . S
C1464 C1462 1.420 1_455 S
C1464 C1468 1.429 . S
H1465 C1470 0.930 . S
N1466 Eu1428 2.609 . S
N1466 C1468 1.377 . S
N1466 C1469 1.321 . S
C1467 H1453 0.930 . S
C1467 C1469 1.400 . S
C1467 C1470 1.386 . S
C1468 C1464 1.429 . S
C1468 N1466 1.377 . S
C1468 C1471 1.411 . S
C1469 H1451 0.930 . S
C1469 N1466 1.321 . S
C1469 C1467 1.400 . S
C1470 H1465 0.930 . S
C1470 C1467 1.386 . S
C1470 C1471 1.395 . S
C1471 C1468 1.411 . S
C1471 C1470 1.395 . S
C1471 C1493 1.420 1_455 S
O1472 Eu1428 2.558 . S
O1472 C1492 1.257 . S
O1473 Eu1428 2.612 . S
O1473 Eu1439 2.380 . S
O1473 C1484 1.276 . S
O1474 Eu1439 2.432 . S
O1474 C1491 1.264 . S
O1475 Eu1428 2.339 . S
O1475 C1491 1.254 . S
O1476 Eu1428 2.563 . S
O1476 C1484 1.235 . S
O1477 Eu1428 2.419 . S
O1477 C1492 1.249 . S
O1478 Eu1439 2.558 . S
O1478 C1503 1.257 . S
O1479 Eu1428 2.380 . S
O1479 Eu1439 2.612 . S
O1479 C1495 1.276 . S
O1480 Eu1428 2.432 . S
O1480 C1502 1.264 . S
O1481 Eu1439 2.339 . S
O1481 C1502 1.254 . S
O1482 Eu1439 2.563 . S
O1482 C1495 1.235 . S
O1483 Eu1439 2.419 . S
O1483 C1503 1.249 . S
C1484 O1473 1.276 . S
C1484 O1476 1.235 . S
C1485 C1487 1.393 . S
C1485 C1489 1.395 . S
C1485 C1492 1.492 1_655 S
C1486 C1487 1.392 . S
C1486 C1488 1.386 . S
C1487 C1485 1.393 . S
C1487 C1486 1.392 . S
C1487 H1504 0.930 . S
C1488 C1486 1.386 . S
C1488 C1490 1.395 . S
C1488 H1505 0.930 1_545 S
C1489 C1485 1.395 . S
C1489 C1490 1.379 . S
C1489 H1506 0.930 . S
C1490 C1488 1.395 . S
C1490 C1489 1.379 . S
C1490 H1507 0.930 . S
C1491 O1474 1.264 . S
C1491 O1475 1.254 . S
C1492 Eu1428 2.848 . S
C1492 O1472 1.257 . S
C1492 O1477 1.249 . S
C1492 C1485 1.492 1_455 S
C1493 H1458 0.931 . S
C1493 C1471 1.420 1_655 S
C1493 C1494 1.351 . S
C1494 H1456 0.930 . S
C1494 C1462 1.423 . S
C1494 C1493 1.351 . S
C1495 O1479 1.276 . S
C1495 O1482 1.235 . S
C1496 C1497 1.393 . S
C1496 C1500 1.395 . S
C1496 C1503 1.492 . S
C1497 C1496 1.393 . S
C1497 C1498 1.392 . S
C1497 H1508 0.930 . S
C1498 C1497 1.392 . S
C1498 C1499 1.386 . S
C1499 C1498 1.386 . S
C1499 C1501 1.395 . S
C1499 H1509 0.930 . S
C1500 C1496 1.395 . S
C1500 C1501 1.379 . S
C1500 H1510 0.930 . S
C1501 C1499 1.395 . S
C1501 C1500 1.379 . S
C1501 H1511 0.930 . S
C1502 O1480 1.264 . S
C1502 O1481 1.254 . S
C1503 Eu1439 2.848 . S
C1503 O1478 1.257 . S
C1503 O1483 1.249 . S
C1503 C1496 1.492 . S
H1504 C1487 0.930 . S
H1505 C1488 0.930 1_565 S
H1506 C1489 0.930 . S
H1507 C1490 0.930 . S
H1508 C1497 0.930 . S
H1509 C1499 0.930 . S
H1510 C1500 0.930 . S
H1511 C1501 0.930 . S
Eu1512 N1543 2.657 . S
Eu1512 N1550 2.609 . S
Eu1512 O1556 2.558 . S
Eu1512 O1557 2.612 . S
Eu1512 O1559 2.339 . S
Eu1512 O1560 2.563 . S
Eu1512 O1561 2.419 . S
Eu1512 O1563 2.380 . S
Eu1512 O1564 2.432 . S
Eu1512 C1576 2.848 . S
C1513 C1516 1.429 . S
C1513 C1517 1.411 . S
C1513 N1520 1.377 . S
C1514 C1516 1.420 . S
C1514 C1518 1.423 . S
C1514 C1526 1.392 . S
C1515 C1517 1.420 . S
C1515 C1518 1.351 . S
C1515 H1538 0.931 . S
C1516 C1513 1.429 . S
C1516 C1514 1.420 . S
C1516 N1524 1.362 . S
C1517 C1513 1.411 . S
C1517 C1515 1.420 . S
C1517 C1522 1.395 . S
C1518 C1514 1.423 . S
C1518 C1515 1.351 . S
C1518 H1530 0.930 . S
C1519 C1521 1.400 . S
C1519 C1522 1.386 . S
C1519 H1531 0.930 . S
N1520 C1513 1.377 . S
N1520 C1521 1.321 . S
N1520 Eu1523 2.609 . S
C1521 C1519 1.400 . S
C1521 N1520 1.321 . S
C1521 H1528 0.930 . S
C1522 C1517 1.395 . S
C1522 C1519 1.386 . S
C1522 H1541 0.930 . S
Eu1523 N1520 2.609 . S
Eu1523 N1524 2.657 . S
Eu1523 O1557 2.380 . S
Eu1523 O1558 2.432 . S
Eu1523 O1562 2.558 . S
Eu1523 O1563 2.612 . S
Eu1523 O1565 2.339 . S
Eu1523 O1566 2.563 . S
Eu1523 O1567 2.419 . S
Eu1523 C1587 2.848 . S
N1524 C1516 1.362 . S
N1524 Eu1523 2.657 . S
N1524 C1525 1.334 . S
C1525 N1524 1.334 . S
C1525 C1527 1.413 . S
C1525 H1532 0.929 . S
C1526 C1514 1.392 . S
C1526 C1527 1.367 . S
C1526 H1534 0.930 . S
C1527 C1525 1.413 . S
C1527 C1526 1.367 . S
C1527 H1529 0.930 . S
H1528 C1521 0.930 . S
H1529 C1527 0.930 . S
H1530 C1518 0.930 . S
H1531 C1519 0.930 . S
H1532 C1525 0.929 . S
H1533 C1547 0.930 . S
H1534 C1526 0.930 . S
H1535 C1553 0.930 . S
H1536 C1544 0.929 . S
H1537 C1551 0.930 . S
H1538 C1515 0.931 . S
H1539 C1545 0.930 . S
H1540 C1578 0.930 . S
H1541 C1522 0.930 . S
H1542 C1577 0.931 . S
N1543 Eu1512 2.657 . S
N1543 C1544 1.334 . S
N1543 C1548 1.362 . S
C1544 H1536 0.929 . S
C1544 N1543 1.334 . S
C1544 C1547 1.413 1_455 S
C1545 H1539 0.930 . S
C1545 C1546 1.392 . S
C1545 C1547 1.367 . S
C1546 C1545 1.392 . S
C1546 C1548 1.420 1_655 S
C1546 C1578 1.423 . S
C1547 H1533 0.930 . S
C1547 C1544 1.413 1_655 S
C1547 C1545 1.367 . S
C1548 N1543 1.362 . S
C1548 C1546 1.420 1_455 S
C1548 C1552 1.429 . S
H1549 C1554 0.930 . S
N1550 Eu1512 2.609 . S
N1550 C1552 1.377 . S
N1550 C1553 1.321 . S
C1551 H1537 0.930 . S
C1551 C1553 1.400 . S
C1551 C1554 1.386 . S
C1552 C1548 1.429 . S
C1552 N1550 1.377 . S
C1552 C1555 1.411 . S
C1553 H1535 0.930 . S
C1553 N1550 1.321 . S
C1553 C1551 1.400 . S
C1554 H1549 0.930 . S
C1554 C1551 1.386 . S
C1554 C1555 1.395 . S
C1555 C1552 1.411 . S
C1555 C1554 1.395 . S
C1555 C1577 1.420 1_455 S
O1556 Eu1512 2.558 . S
O1556 C1576 1.257 . S
O1557 Eu1512 2.612 . S
O1557 Eu1523 2.380 . S
O1557 C1568 1.276 . S
O1558 Eu1523 2.432 . S
O1558 C1575 1.264 . S
O1559 Eu1512 2.339 . S
O1559 C1575 1.254 . S
O1560 Eu1512 2.563 . S
O1560 C1568 1.235 . S
O1561 Eu1512 2.419 . S
O1561 C1576 1.249 . S
O1562 Eu1523 2.558 . S
O1562 C1587 1.257 . S
O1563 Eu1512 2.380 . S
O1563 Eu1523 2.612 . S
O1563 C1579 1.276 . S
O1564 Eu1512 2.432 . S
O1564 C1586 1.264 . S
O1565 Eu1523 2.339 . S
O1565 C1586 1.254 . S
O1566 Eu1523 2.563 . S
O1566 C1579 1.235 . S
O1567 Eu1523 2.419 . S
O1567 C1587 1.249 . S
C1568 O1557 1.276 . S
C1568 O1560 1.235 . S
C1569 C1571 1.393 . S
C1569 C1573 1.395 . S
C1569 C1576 1.492 . S
C1570 C1571 1.392 . S
C1570 C1572 1.386 . S
C1571 C1569 1.393 . S
C1571 C1570 1.392 . S
C1571 H1588 0.930 . S
C1572 C1570 1.386 . S
C1572 C1574 1.395 . S
C1572 H1589 0.930 . S
C1573 C1569 1.395 . S
C1573 C1574 1.379 . S
C1573 H1590 0.930 . S
C1574 C1572 1.395 . S
C1574 C1573 1.379 . S
C1574 H1591 0.930 . S
C1575 O1558 1.264 . S
C1575 O1559 1.254 . S
C1576 Eu1512 2.848 . S
C1576 O1556 1.257 . S
C1576 O1561 1.249 . S
C1576 C1569 1.492 . S
C1577 H1542 0.931 . S
C1577 C1555 1.420 1_655 S
C1577 C1578 1.351 . S
C1578 H1540 0.930 . S
C1578 C1546 1.423 . S
C1578 C1577 1.351 . S
C1579 O1563 1.276 . S
C1579 O1566 1.235 . S
C1580 C1581 1.393 . S
C1580 C1584 1.395 . S
C1580 C1587 1.492 . S
C1581 C1580 1.393 . S
C1581 C1582 1.392 . S
C1581 H1592 0.930 . S
C1582 C1581 1.392 . S
C1582 C1583 1.386 . S
C1583 C1582 1.386 . S
C1583 C1585 1.395 . S
C1583 H1593 0.930 1_545 S
C1584 C1580 1.395 . S
C1584 C1585 1.379 . S
C1584 H1594 0.930 . S
C1585 C1583 1.395 . S
C1585 C1584 1.379 . S
C1585 H1595 0.930 . S
C1586 O1564 1.264 . S
C1586 O1565 1.254 . S
C1587 Eu1523 2.848 . S
C1587 O1562 1.257 . S
C1587 O1567 1.249 . S
C1587 C1580 1.492 . S
H1588 C1571 0.930 . S
H1589 C1572 0.930 . S
H1590 C1573 0.930 . S
H1591 C1574 0.930 . S
H1592 C1581 0.930 . S
H1593 C1583 0.930 1_565 S
H1594 C1584 0.930 . S
H1595 C1585 0.930 . S
Eu1596 N1627 2.657 . S
Eu1596 N1634 2.609 . S
Eu1596 O1640 2.558 . S
Eu1596 O1641 2.612 . S
Eu1596 O1643 2.339 . S
Eu1596 O1644 2.563 . S
Eu1596 O1645 2.419 . S
Eu1596 O1647 2.380 . S
Eu1596 O1648 2.432 . S
Eu1596 C1660 2.848 . S
C1597 C1600 1.429 . S
C1597 C1601 1.411 . S
C1597 N1604 1.377 . S
C1598 C1600 1.420 . S
C1598 C1602 1.423 . S
C1598 C1610 1.392 . S
C1599 C1601 1.420 . S
C1599 C1602 1.351 . S
C1599 H1622 0.931 . S
C1600 C1597 1.429 . S
C1600 C1598 1.420 . S
C1600 N1608 1.362 . S
C1601 C1597 1.411 . S
C1601 C1599 1.420 . S
C1601 C1606 1.395 . S
C1602 C1598 1.423 . S
C1602 C1599 1.351 . S
C1602 H1614 0.930 . S
C1603 C1605 1.400 . S
C1603 C1606 1.386 . S
C1603 H1615 0.930 . S
N1604 C1597 1.377 . S
N1604 C1605 1.321 . S
N1604 Eu1607 2.609 . S
C1605 C1603 1.400 . S
C1605 N1604 1.321 . S
C1605 H1612 0.930 . S
C1606 C1601 1.395 . S
C1606 C1603 1.386 . S
C1606 H1625 0.930 . S
Eu1607 N1604 2.609 . S
Eu1607 N1608 2.657 . S
Eu1607 O1641 2.380 1_545 S
Eu1607 O1642 2.432 1_545 S
Eu1607 O1646 2.558 . S
Eu1607 O1647 2.612 1_545 S
Eu1607 O1649 2.339 . S
Eu1607 O1650 2.561 1_545 S
Eu1607 O1651 2.419 . S
Eu1607 C1671 2.848 . S
N1608 C1600 1.362 . S
N1608 Eu1607 2.657 . S
N1608 C1609 1.334 . S
C1609 N1608 1.334 . S
C1609 C1611 1.413 . S
C1609 H1616 0.929 . S
C1610 C1598 1.392 . S
C1610 C1611 1.367 . S
C1610 H1618 0.930 . S
C1611 C1609 1.413 . S
C1611 C1610 1.367 . S
C1611 H1613 0.930 . S
H1612 C1605 0.930 . S
H1613 C1611 0.930 . S
H1614 C1602 0.930 . S
H1615 C1603 0.930 . S
H1616 C1609 0.929 . S
H1617 C1631 0.930 . S
H1618 C1610 0.930 . S
H1619 C1637 0.930 . S
H1620 C1628 0.929 . S
H1621 C1635 0.930 . S
H1622 C1599 0.931 . S
H1623 C1629 0.930 . S
H1624 C1662 0.930 . S
H1625 C1606 0.930 . S
H1626 C1661 0.931 . S
N1627 Eu1596 2.657 . S
N1627 C1628 1.334 . S
N1627 C1632 1.362 . S
C1628 H1620 0.929 . S
C1628 N1627 1.334 . S
C1628 C1631 1.413 . S
C1629 H1623 0.930 . S
C1629 C1630 1.392 . S
C1629 C1631 1.367 . S
C1630 C1629 1.392 . S
C1630 C1632 1.420 . S
C1630 C1662 1.423 . S
C1631 H1617 0.930 . S
C1631 C1628 1.413 . S
C1631 C1629 1.367 . S
C1632 N1627 1.362 . S
C1632 C1630 1.420 . S
C1632 C1636 1.429 . S
H1633 C1638 0.930 . S
N1634 Eu1596 2.609 . S
N1634 C1636 1.377 . S
N1634 C1637 1.321 . S
C1635 H1621 0.930 . S
C1635 C1637 1.400 . S
C1635 C1638 1.386 . S
C1636 C1632 1.429 . S
C1636 N1634 1.377 . S
C1636 C1639 1.411 . S
C1637 H1619 0.930 . S
C1637 N1634 1.321 . S
C1637 C1635 1.400 . S
C1638 H1633 0.930 . S
C1638 C1635 1.386 . S
C1638 C1639 1.395 . S
C1639 C1636 1.411 . S
C1639 C1638 1.395 . S
C1639 C1661 1.420 . S
O1640 Eu1596 2.558 . S
O1640 C1660 1.257 . S
O1641 Eu1596 2.612 . S
O1641 Eu1607 2.380 1_565 S
O1641 C1652 1.276 . S
O1642 Eu1607 2.432 1_565 S
O1642 C1659 1.264 . S
O1643 Eu1596 2.339 . S
O1643 C1659 1.254 . S
O1644 Eu1596 2.563 . S
O1644 C1652 1.235 . S
O1645 Eu1596 2.419 . S
O1645 C1660 1.249 . S
O1646 Eu1607 2.558 . S
O1646 C1671 1.257 . S
O1647 Eu1596 2.380 . S
O1647 Eu1607 2.612 1_565 S
O1647 C1663 1.276 . S
O1648 Eu1596 2.432 . S
O1648 C1670 1.264 . S
O1649 Eu1607 2.339 . S
O1649 C1670 1.254 1_545 S
O1650 Eu1607 2.561 1_565 S
O1650 C1663 1.238 . S
O1651 Eu1607 2.419 . S
O1651 C1671 1.249 . S
C1652 O1641 1.276 . S
C1652 O1644 1.235 . S
C1653 C1655 1.393 . S
C1653 C1657 1.395 . S
C1653 C1660 1.492 . S
C1654 C1655 1.392 . S
C1654 C1656 1.386 . S
C1655 C1653 1.393 . S
C1655 C1654 1.392 . S
C1655 H1672 0.930 . S
C1656 C1654 1.386 . S
C1656 C1658 1.395 . S
C1656 H1673 0.930 . S
C1657 C1653 1.395 . S
C1657 C1658 1.379 . S
C1657 H1674 0.930 . S
C1658 C1656 1.395 . S
C1658 C1657 1.379 . S
C1658 H1675 0.930 . S
C1659 O1642 1.264 . S
C1659 O1643 1.254 . S
C1660 Eu1596 2.848 . S
C1660 O1640 1.257 . S
C1660 O1645 1.249 . S
C1660 C1653 1.492 . S
C1661 H1626 0.931 . S
C1661 C1639 1.420 . S
C1661 C1662 1.351 . S
C1662 H1624 0.930 . S
C1662 C1630 1.423 . S
C1662 C1661 1.351 . S
C1663 O1647 1.276 . S
C1663 O1650 1.238 . S
C1664 C1665 1.393 1_655 S
C1664 C1668 1.395 1_655 S
C1664 C1671 1.492 . S
C1665 C1664 1.393 1_455 S
C1665 C1666 1.392 . S
C1665 H1676 0.930 . S
C1666 C1665 1.392 . S
C1666 C1667 1.386 . S
C1667 C1666 1.386 . S
C1667 C1669 1.395 . S
C1667 H1677 0.930 . S
C1668 C1664 1.395 1_455 S
C1668 C1669 1.379 . S
C1668 H1678 0.930 1_455 S
C1669 C1667 1.395 . S
C1669 C1668 1.379 . S
C1669 H1679 0.930 . S
C1670 O1648 1.264 . S
C1670 O1649 1.254 1_565 S
C1671 Eu1607 2.848 . S
C1671 O1646 1.257 . S
C1671 O1651 1.249 . S
C1671 C1664 1.492 . S
H1672 C1655 0.930 . S
H1673 C1656 0.930 . S
H1674 C1657 0.930 . S
H1675 C1658 0.930 . S
H1676 C1665 0.930 . S
H1677 C1667 0.930 . S
H1678 C1668 0.930 1_655 S
H1679 C1669 0.930 . S
Eu1680 N1711 2.657 1_565 S
Eu1680 N1718 2.609 1_565 S
Eu1680 O1724 2.558 . S
Eu1680 O1725 2.612 . S
Eu1680 O1727 2.339 . S
Eu1680 O1728 2.563 . S
Eu1680 O1729 2.419 . S
Eu1680 O1731 2.380 . S
Eu1680 O1732 2.432 . S
Eu1680 C1744 2.848 . S
C1681 C1684 1.429 . S
C1681 C1685 1.411 . S
C1681 N1688 1.377 . S
C1682 C1684 1.420 1_655 S
C1682 C1686 1.423 . S
C1682 C1694 1.392 . S
C1683 C1685 1.420 1_655 S
C1683 C1686 1.351 . S
C1683 H1706 0.931 . S
C1684 C1681 1.429 . S
C1684 C1682 1.420 1_455 S
C1684 N1692 1.362 . S
C1685 C1681 1.411 . S
C1685 C1683 1.420 1_455 S
C1685 C1690 1.395 . S
C1686 C1682 1.423 . S
C1686 C1683 1.351 . S
C1686 H1698 0.930 . S
C1687 C1689 1.400 . S
C1687 C1690 1.386 . S
C1687 H1699 0.930 . S
N1688 C1681 1.377 . S
N1688 C1689 1.321 . S
N1688 Eu1691 2.609 . S
C1689 C1687 1.400 . S
C1689 N1688 1.321 . S
C1689 H1696 0.930 . S
C1690 C1685 1.395 . S
C1690 C1687 1.386 . S
C1690 H1709 0.930 . S
Eu1691 N1688 2.609 . S
Eu1691 N1692 2.657 . S
Eu1691 O1725 2.380 . S
Eu1691 O1726 2.432 . S
Eu1691 O1730 2.558 . S
Eu1691 O1731 2.612 . S
Eu1691 O1733 2.339 . S
Eu1691 O1734 2.563 . S
Eu1691 O1735 2.419 . S
Eu1691 C1755 2.848 . S
N1692 C1684 1.362 . S
N1692 Eu1691 2.657 . S
N1692 C1693 1.334 . S
C1693 N1692 1.334 . S
C1693 C1695 1.413 . S
C1693 H1700 0.929 . S
C1694 C1682 1.392 . S
C1694 C1695 1.367 1_655 S
C1694 H1702 0.930 . S
C1695 C1693 1.413 . S
C1695 C1694 1.367 1_455 S
C1695 H1697 0.930 . S
H1696 C1689 0.930 . S
H1697 C1695 0.930 . S
H1698 C1686 0.930 . S
H1699 C1687 0.930 . S
H1700 C1693 0.929 . S
H1701 C1715 0.930 . S
H1702 C1694 0.930 . S
H1703 C1721 0.930 . S
H1704 C1712 0.929 . S
H1705 C1719 0.930 . S
H1706 C1683 0.931 . S
H1707 C1713 0.930 . S
H1708 C1746 0.930 . S
H1709 C1690 0.930 . S
H1710 C1745 0.931 . S
N1711 Eu1680 2.657 1_545 S
N1711 C1712 1.334 . S
N1711 C1716 1.362 . S
C1712 H1704 0.929 . S
C1712 N1711 1.334 . S
C1712 C1715 1.413 . S
C1713 H1707 0.930 . S
C1713 C1714 1.392 . S
C1713 C1715 1.367 . S
C1714 C1713 1.392 . S
C1714 C1716 1.420 . S
C1714 C1746 1.423 . S
C1715 H1701 0.930 . S
C1715 C1712 1.413 . S
C1715 C1713 1.367 . S
C1716 N1711 1.362 . S
C1716 C1714 1.420 . S
C1716 C1720 1.429 . S
H1717 C1722 0.930 . S
N1718 Eu1680 2.609 1_545 S
N1718 C1720 1.377 . S
N1718 C1721 1.321 1_545 S
C1719 H1705 0.930 . S
C1719 C1721 1.400 1_545 S
C1719 C1722 1.386 . S
C1720 C1716 1.429 . S
C1720 N1718 1.377 . S
C1720 C1723 1.411 . S
C1721 H1703 0.930 . S
C1721 N1718 1.321 1_565 S
C1721 C1719 1.400 1_565 S
C1722 H1717 0.930 . S
C1722 C1719 1.386 . S
C1722 C1723 1.395 . S
C1723 C1720 1.411 . S
C1723 C1722 1.395 . S
C1723 C1745 1.420 . S
O1724 Eu1680 2.558 . S
O1724 C1744 1.257 . S
O1725 Eu1680 2.612 . S
O1725 Eu1691 2.380 . S
O1725 C1736 1.276 . S
O1726 Eu1691 2.432 . S
O1726 C1743 1.264 . S
O1727 Eu1680 2.339 . S
O1727 C1743 1.254 . S
O1728 Eu1680 2.563 . S
O1728 C1736 1.235 . S
O1729 Eu1680 2.419 . S
O1729 C1744 1.249 . S
O1730 Eu1691 2.558 . S
O1730 C1755 1.257 . S
O1731 Eu1680 2.380 . S
O1731 Eu1691 2.612 . S
O1731 C1747 1.276 . S
O1732 Eu1680 2.432 . S
O1732 C1754 1.264 . S
O1733 Eu1691 2.339 . S
O1733 C1754 1.254 . S
O1734 Eu1691 2.563 . S
O1734 C1747 1.235 . S
O1735 Eu1691 2.419 . S
O1735 C1755 1.249 . S
C1736 O1725 1.276 . S
C1736 O1728 1.235 . S
C1737 C1739 1.393 . S
C1737 C1741 1.395 . S
C1737 C1744 1.492 . S
C1738 C1739 1.392 . S
C1738 C1740 1.386 . S
C1739 C1737 1.393 . S
C1739 C1738 1.392 . S
C1739 H1756 0.930 . S
C1740 C1738 1.386 . S
C1740 C1742 1.395 . S
C1740 H1757 0.930 . S
C1741 C1737 1.395 . S
C1741 C1742 1.379 . S
C1741 H1758 0.930 . S
C1742 C1740 1.395 . S
C1742 C1741 1.379 . S
C1742 H1759 0.930 . S
C1743 O1726 1.264 . S
C1743 O1727 1.254 . S
C1744 Eu1680 2.848 . S
C1744 O1724 1.257 . S
C1744 O1729 1.249 . S
C1744 C1737 1.492 . S
C1745 H1710 0.931 . S
C1745 C1723 1.420 . S
C1745 C1746 1.351 . S
C1746 H1708 0.930 . S
C1746 C1714 1.423 . S
C1746 C1745 1.351 . S
C1747 O1731 1.276 . S
C1747 O1734 1.235 . S
C1748 C1749 1.393 . S
C1748 C1752 1.395 . S
C1748 C1755 1.492 1_655 S
C1749 C1748 1.393 . S
C1749 C1750 1.392 . S
C1749 H1760 0.930 . S
C1750 C1749 1.392 . S
C1750 C1751 1.386 . S
C1751 C1750 1.386 . S
C1751 C1753 1.395 . S
C1751 H1761 0.930 . S
C1752 C1748 1.395 . S
C1752 C1753 1.379 . S
C1752 H1762 0.930 . S
C1753 C1751 1.395 . S
C1753 C1752 1.379 . S
C1753 H1763 0.930 . S
C1754 O1732 1.264 . S
C1754 O1733 1.254 . S
C1755 Eu1691 2.848 . S
C1755 O1730 1.257 . S
C1755 O1735 1.249 . S
C1755 C1748 1.492 1_455 S
H1756 C1739 0.930 . S
H1757 C1740 0.930 . S
H1758 C1741 0.930 . S
H1759 C1742 0.930 . S
H1760 C1749 0.930 . S
H1761 C1751 0.930 . S
H1762 C1752 0.930 . S
H1763 C1753 0.930 . S
Eu1764 N1795 2.657 . S
Eu1764 N1802 2.609 . S
Eu1764 O1808 2.558 . S
Eu1764 O1809 2.612 . S
Eu1764 O1811 2.339 . S
Eu1764 O1812 2.563 . S
Eu1764 O1813 2.419 . S
Eu1764 O1815 2.380 . S
Eu1764 O1816 2.432 . S
Eu1764 C1828 2.848 . S
C1765 C1768 1.429 . S
C1765 C1769 1.411 . S
C1765 N1772 1.377 . S
C1766 C1768 1.420 . S
C1766 C1770 1.423 . S
C1766 C1778 1.392 . S
C1767 C1769 1.420 . S
C1767 C1770 1.351 . S
C1767 H1790 0.931 . S
C1768 C1765 1.429 . S
C1768 C1766 1.420 . S
C1768 N1776 1.362 . S
C1769 C1765 1.411 . S
C1769 C1767 1.420 . S
C1769 C1774 1.395 . S
C1770 C1766 1.423 . S
C1770 C1767 1.351 . S
C1770 H1782 0.930 . S
C1771 C1773 1.400 . S
C1771 C1774 1.386 . S
C1771 H1783 0.930 . S
N1772 C1765 1.377 . S
N1772 C1773 1.321 . S
N1772 Eu1775 2.609 1_545 S
C1773 C1771 1.400 . S
C1773 N1772 1.321 . S
C1773 H1780 0.930 1_545 S
C1774 C1769 1.395 . S
C1774 C1771 1.386 . S
C1774 H1793 0.930 . S
Eu1775 N1772 2.609 1_565 S
Eu1775 N1776 2.657 1_565 S
Eu1775 O1809 2.380 . S
Eu1775 O1810 2.432 . S
Eu1775 O1814 2.558 . S
Eu1775 O1815 2.612 . S
Eu1775 O1817 2.339 . S
Eu1775 O1818 2.563 . S
Eu1775 O1819 2.419 . S
Eu1775 C1839 2.848 . S
N1776 C1768 1.362 . S
N1776 Eu1775 2.657 1_545 S
N1776 C1777 1.334 . S
C1777 N1776 1.334 . S
C1777 C1779 1.413 . S
C1777 H1784 0.929 . S
C1778 C1766 1.392 . S
C1778 C1779 1.367 . S
C1778 H1786 0.930 . S
C1779 C1777 1.413 . S
C1779 C1778 1.367 . S
C1779 H1781 0.930 . S
H1780 C1773 0.930 1_565 S
H1781 C1779 0.930 . S
H1782 C1770 0.930 . S
H1783 C1771 0.930 . S
H1784 C1777 0.929 . S
H1785 C1799 0.930 . S
H1786 C1778 0.930 . S
H1787 C1805 0.930 . S
H1788 C1796 0.929 . S
H1789 C1803 0.930 . S
H1790 C1767 0.931 . S
H1791 C1797 0.930 . S
H1792 C1830 0.930 . S
H1793 C1774 0.930 . S
H1794 C1829 0.931 . S
N1795 Eu1764 2.657 . S
N1795 C1796 1.334 . S
N1795 C1800 1.362 . S
C1796 H1788 0.929 . S
C1796 N1795 1.334 . S
C1796 C1799 1.413 . S
C1797 H1791 0.930 . S
C1797 C1798 1.392 . S
C1797 C1799 1.367 . S
C1798 C1797 1.392 . S
C1798 C1800 1.420 . S
C1798 C1830 1.423 . S
C1799 H1785 0.930 . S
C1799 C1796 1.413 . S
C1799 C1797 1.367 . S
C1800 N1795 1.362 . S
C1800 C1798 1.420 . S
C1800 C1804 1.429 . S
H1801 C1806 0.930 . S
N1802 Eu1764 2.609 . S
N1802 C1804 1.377 . S
N1802 C1805 1.321 . S
C1803 H1789 0.930 . S
C1803 C1805 1.400 . S
C1803 C1806 1.386 . S
C1804 C1800 1.429 . S
C1804 N1802 1.377 . S
C1804 C1807 1.411 . S
C1805 H1787 0.930 . S
C1805 N1802 1.321 . S
C1805 C1803 1.400 . S
C1806 H1801 0.930 . S
C1806 C1803 1.386 . S
C1806 C1807 1.395 . S
C1807 C1804 1.411 . S
C1807 C1806 1.395 . S
C1807 C1829 1.420 . S
O1808 Eu1764 2.558 . S
O1808 C1828 1.257 . S
O1809 Eu1764 2.612 . S
O1809 Eu1775 2.380 . S
O1809 C1820 1.276 1_565 S
O1810 Eu1775 2.432 . S
O1810 C1827 1.264 . S
O1811 Eu1764 2.339 . S
O1811 C1827 1.254 . S
O1812 Eu1764 2.563 . S
O1812 C1820 1.235 1_565 S
O1813 Eu1764 2.419 . S
O1813 C1828 1.249 . S
O1814 Eu1775 2.558 . S
O1814 C1839 1.257 . S
O1815 Eu1764 2.380 . S
O1815 Eu1775 2.612 . S
O1815 C1831 1.276 . S
O1816 Eu1764 2.432 . S
O1816 C1838 1.264 . S
O1817 Eu1775 2.339 . S
O1817 C1838 1.254 . S
O1818 Eu1775 2.563 . S
O1818 C1831 1.235 . S
O1819 Eu1775 2.419 . S
O1819 C1839 1.249 . S
C1820 O1809 1.276 1_545 S
C1820 O1812 1.235 1_545 S
C1821 C1823 1.401 . S
C1821 C1825 1.395 . S
C1821 C1828 1.492 . S
C1822 C1823 1.379 1_455 S
C1822 C1824 1.386 . S
C1823 C1821 1.401 . S
C1823 C1822 1.379 1_655 S
C1823 H1840 0.935 . S
C1824 C1822 1.386 . S
C1824 C1826 1.395 . S
C1824 H1841 0.930 . S
C1825 C1821 1.395 . S
C1825 C1826 1.379 1_655 S
C1825 H1842 0.930 . S
C1826 C1824 1.395 . S
C1826 C1825 1.379 1_455 S
C1826 H1843 0.930 . S
C1827 O1810 1.264 . S
C1827 O1811 1.254 . S
C1828 Eu1764 2.848 . S
C1828 O1808 1.257 . S
C1828 O1813 1.249 . S
C1828 C1821 1.492 . S
C1829 H1794 0.931 . S
C1829 C1807 1.420 . S
C1829 C1830 1.351 . S
C1830 H1792 0.930 . S
C1830 C1798 1.423 . S
C1830 C1829 1.351 . S
C1831 O1815 1.276 . S
C1831 O1818 1.235 . S
C1832 C1833 1.393 . S
C1832 C1836 1.395 . S
C1832 C1839 1.492 . S
C1833 C1832 1.393 . S
C1833 C1834 1.392 . S
C1833 H1844 0.930 . S
C1834 C1833 1.392 . S
C1834 C1835 1.386 . S
C1835 C1834 1.386 . S
C1835 C1837 1.395 . S
C1835 H1845 0.930 . S
C1836 C1832 1.395 . S
C1836 C1837 1.379 . S
C1836 H1846 0.930 . S
C1837 C1835 1.395 . S
C1837 C1836 1.379 . S
C1837 H1847 0.930 . S
C1838 O1816 1.264 . S
C1838 O1817 1.254 . S
C1839 Eu1775 2.848 . S
C1839 O1814 1.257 . S
C1839 O1819 1.249 . S
C1839 C1832 1.492 . S
H1840 C1823 0.935 . S
H1841 C1824 0.930 . S
H1842 C1825 0.930 . S
H1843 C1826 0.930 . S
H1844 C1833 0.930 . S
H1845 C1835 0.930 . S
H1846 C1836 0.930 . S
H1847 C1837 0.930 . S
Eu1848 N1879 2.657 1_565 S
Eu1848 N1886 2.609 1_565 S
Eu1848 O1892 2.558 1_565 S
Eu1848 O1893 2.612 . S
Eu1848 O1895 2.339 . S
Eu1848 O1896 2.563 . S
Eu1848 O1897 2.419 1_565 S
Eu1848 O1899 2.380 . S
Eu1848 O1900 2.432 . S
Eu1848 C1912 2.848 1_565 S
C1849 C1852 1.429 . S
C1849 C1853 1.411 1_455 S
C1849 N1856 1.377 . S
C1850 C1852 1.420 1_655 S
C1850 C1854 1.423 . S
C1850 C1862 1.392 . S
C1851 C1853 1.420 . S
C1851 C1854 1.351 . S
C1851 H1874 0.931 . S
C1852 C1849 1.429 . S
C1852 C1850 1.420 1_455 S
C1852 N1860 1.362 . S
C1853 C1849 1.411 1_655 S
C1853 C1851 1.420 . S
C1853 C1858 1.395 1_655 S
C1854 C1850 1.423 . S
C1854 C1851 1.351 . S
C1854 H1866 0.930 . S
C1855 C1857 1.400 . S
C1855 C1858 1.386 . S
C1855 H1867 0.930 . S
N1856 C1849 1.377 . S
N1856 C1857 1.321 . S
N1856 Eu1859 2.609 . S
C1857 C1855 1.400 . S
C1857 N1856 1.321 . S
C1857 H1864 0.930 . S
C1858 C1853 1.395 1_455 S
C1858 C1855 1.386 . S
C1858 H1877 0.930 1_455 S
Eu1859 N1856 2.609 . S
Eu1859 N1860 2.657 . S
Eu1859 O1893 2.380 . S
Eu1859 O1894 2.432 . S
Eu1859 O1898 2.558 . S
Eu1859 O1899 2.612 . S
Eu1859 O1901 2.339 . S
Eu1859 O1902 2.563 . S
Eu1859 O1903 2.419 . S
Eu1859 C1923 2.848 . S
N1860 C1852 1.362 . S
N1860 Eu1859 2.657 . S
N1860 C1861 1.334 . S
C1861 N1860 1.334 . S
C1861 C1863 1.413 1_455 S
C1861 H1868 0.929 . S
C1862 C1850 1.392 . S
C1862 C1863 1.367 . S
C1862 H1870 0.930 . S
C1863 C1861 1.413 1_655 S
C1863 C1862 1.367 . S
C1863 H1865 0.930 . S
H1864 C1857 0.930 . S
H1865 C1863 0.930 . S
H1866 C1854 0.930 . S
H1867 C1855 0.930 . S
H1868 C1861 0.929 . S
H1869 C1883 0.930 . S
H1870 C1862 0.930 . S
H1871 C1889 0.930 1_565 S
H1872 C1880 0.929 . S
H1873 C1887 0.930 . S
H1874 C1851 0.931 . S
H1875 C1881 0.930 . S
H1876 C1914 0.930 . S
H1877 C1858 0.930 1_655 S
H1878 C1913 0.931 . S
N1879 Eu1848 2.657 1_545 S
N1879 C1880 1.334 . S
N1879 C1884 1.362 . S
C1880 H1872 0.929 . S
C1880 N1879 1.334 . S
C1880 C1883 1.413 . S
C1881 H1875 0.930 . S
C1881 C1882 1.392 . S
C1881 C1883 1.367 . S
C1882 C1881 1.392 . S
C1882 C1884 1.420 . S
C1882 C1914 1.423 . S
C1883 H1869 0.930 . S
C1883 C1880 1.413 . S
C1883 C1881 1.367 . S
C1884 N1879 1.362 . S
C1884 C1882 1.420 . S
C1884 C1888 1.429 . S
H1885 C1890 0.930 . S
N1886 Eu1848 2.609 1_545 S
N1886 C1888 1.377 . S
N1886 C1889 1.321 . S
C1887 H1873 0.930 . S
C1887 C1889 1.400 . S
C1887 C1890 1.386 . S
C1888 C1884 1.429 . S
C1888 N1886 1.377 . S
C1888 C1891 1.411 . S
C1889 H1871 0.930 1_545 S
C1889 N1886 1.321 . S
C1889 C1887 1.400 . S
C1890 H1885 0.930 . S
C1890 C1887 1.386 . S
C1890 C1891 1.395 . S
C1891 C1888 1.411 . S
C1891 C1890 1.395 . S
C1891 C1913 1.420 . S
O1892 Eu1848 2.558 1_545 S
O1892 C1912 1.257 . S
O1893 Eu1848 2.612 . S
O1893 Eu1859 2.380 . S
O1893 C1904 1.276 . S
O1894 Eu1859 2.432 . S
O1894 C1911 1.264 . S
O1895 Eu1848 2.339 . S
O1895 C1911 1.254 . S
O1896 Eu1848 2.563 . S
O1896 C1904 1.235 . S
O1897 Eu1848 2.419 1_545 S
O1897 C1912 1.249 . S
O1898 Eu1859 2.558 . S
O1898 C1923 1.257 . S
O1899 Eu1848 2.380 . S
O1899 Eu1859 2.612 . S
O1899 C1915 1.276 . S
O1900 Eu1848 2.432 . S
O1900 C1922 1.264 . S
O1901 Eu1859 2.339 . S
O1901 C1922 1.254 . S
O1902 Eu1859 2.563 . S
O1902 C1915 1.235 . S
O1903 Eu1859 2.419 . S
O1903 C1923 1.249 . S
C1904 O1893 1.276 . S
C1904 O1896 1.235 . S
C1905 C1907 1.393 . S
C1905 C1909 1.395 . S
C1905 C1912 1.492 . S
C1906 C1907 1.392 . S
C1906 C1908 1.386 . S
C1907 C1905 1.393 . S
C1907 C1906 1.392 . S
C1907 H1924 0.930 . S
C1908 C1906 1.386 . S
C1908 C1910 1.395 . S
C1908 H1925 0.930 . S
C1909 C1905 1.395 . S
C1909 C1910 1.379 . S
C1909 H1926 0.930 . S
C1910 C1908 1.395 . S
C1910 C1909 1.379 . S
C1910 H1927 0.930 . S
C1911 O1894 1.264 . S
C1911 O1895 1.254 . S
C1912 Eu1848 2.848 1_545 S
C1912 O1892 1.257 . S
C1912 O1897 1.249 . S
C1912 C1905 1.492 . S
C1913 H1878 0.931 . S
C1913 C1891 1.420 . S
C1913 C1914 1.351 . S
C1914 H1876 0.930 . S
C1914 C1882 1.423 . S
C1914 C1913 1.351 . S
C1915 O1899 1.276 . S
C1915 O1902 1.235 . S
C1916 C1917 1.393 . S
C1916 C1920 1.395 . S
C1916 C1923 1.492 . S
C1917 C1916 1.393 . S
C1917 C1918 1.392 . S
C1917 H1928 0.930 . S
C1918 C1917 1.392 . S
C1918 C1919 1.386 . S
C1919 C1918 1.386 . S
C1919 C1921 1.395 . S
C1919 H1929 0.930 . S
C1920 C1916 1.395 . S
C1920 C1921 1.379 . S
C1920 H1930 0.930 . S
C1921 C1919 1.395 . S
C1921 C1920 1.379 . S
C1921 H1931 0.930 . S
C1922 O1900 1.264 . S
C1922 O1901 1.254 . S
C1923 Eu1859 2.848 . S
C1923 O1898 1.257 . S
C1923 O1903 1.249 . S
C1923 C1916 1.492 . S
H1924 C1907 0.930 . S
H1925 C1908 0.930 . S
H1926 C1909 0.930 . S
H1927 C1910 0.930 . S
H1928 C1917 0.930 . S
H1929 C1919 0.930 . S
H1930 C1920 0.930 . S
H1931 C1921 0.930 . S
Eu1932 N1963 2.657 . S
Eu1932 N1970 2.609 . S
Eu1932 O1976 2.558 . S
Eu1932 O1977 2.612 . S
Eu1932 O1979 2.339 . S
Eu1932 O1980 2.563 . S
Eu1932 O1981 2.419 . S
Eu1932 O1983 2.380 . S
Eu1932 O1984 2.432 . S
Eu1932 C1996 2.848 . S
C1933 C1936 1.429 . S
C1933 C1937 1.411 . S
C1933 N1940 1.377 . S
C1934 C1936 1.420 . S
C1934 C1938 1.423 . S
C1934 C1946 1.392 . S
C1935 C1937 1.420 . S
C1935 C1938 1.351 . S
C1935 H1958 0.931 . S
C1936 C1933 1.429 . S
C1936 C1934 1.420 . S
C1936 N1944 1.362 . S
C1937 C1933 1.411 . S
C1937 C1935 1.420 . S
C1937 C1942 1.395 . S
C1938 C1934 1.423 . S
C1938 C1935 1.351 . S
C1938 H1950 0.930 . S
C1939 C1941 1.400 . S
C1939 C1942 1.386 . S
C1939 H1951 0.930 . S
N1940 C1933 1.377 . S
N1940 C1941 1.321 . S
N1940 Eu1943 2.609 . S
C1941 C1939 1.400 . S
C1941 N1940 1.321 . S
C1941 H1948 0.930 . S
C1942 C1937 1.395 . S
C1942 C1939 1.386 . S
C1942 H1961 0.930 . S
Eu1943 N1940 2.609 . S
Eu1943 N1944 2.657 . S
Eu1943 O1977 2.380 . S
Eu1943 O1978 2.432 . S
Eu1943 O1982 2.558 . S
Eu1943 O1983 2.612 . S
Eu1943 O1985 2.339 . S
Eu1943 O1986 2.563 . S
Eu1943 O1987 2.419 . S
Eu1943 C2007 2.848 . S
N1944 C1936 1.362 . S
N1944 Eu1943 2.657 . S
N1944 C1945 1.334 . S
C1945 N1944 1.334 . S
C1945 C1947 1.413 . S
C1945 H1952 0.929 . S
C1946 C1934 1.392 . S
C1946 C1947 1.367 . S
C1946 H1954 0.930 . S
C1947 C1945 1.413 . S
C1947 C1946 1.367 . S
C1947 H1949 0.930 . S
H1948 C1941 0.930 . S
H1949 C1947 0.930 . S
H1950 C1938 0.930 . S
H1951 C1939 0.930 . S
H1952 C1945 0.929 . S
H1953 C1967 0.930 . S
H1954 C1946 0.930 . S
H1955 C1973 0.930 . S
H1956 C1964 0.929 . S
H1957 C1971 0.930 . S
H1958 C1935 0.931 . S
H1959 C1965 0.930 . S
H1960 C1998 0.936 . S
H1961 C1942 0.930 . S
H1962 C1997 0.931 . S
N1963 Eu1932 2.657 . S
N1963 C1964 1.334 . S
N1963 C1968 1.362 . S
C1964 H1956 0.929 . S
C1964 N1963 1.334 . S
C1964 C1967 1.413 . S
C1965 H1959 0.930 . S
C1965 C1966 1.392 . S
C1965 C1967 1.367 . S
C1966 C1965 1.392 . S
C1966 C1968 1.420 . S
C1966 C1998 1.423 . S
C1967 H1953 0.930 . S
C1967 C1964 1.413 . S
C1967 C1965 1.367 . S
C1968 N1963 1.362 . S
C1968 C1966 1.420 . S
C1968 C1972 1.429 . S
H1969 C1974 0.930 . S
N1970 Eu1932 2.609 . S
N1970 C1972 1.377 . S
N1970 C1973 1.321 . S
C1971 H1957 0.930 . S
C1971 C1973 1.400 . S
C1971 C1974 1.386 . S
C1972 C1968 1.429 . S
C1972 N1970 1.377 . S
C1972 C1975 1.411 . S
C1973 H1955 0.930 . S
C1973 N1970 1.321 . S
C1973 C1971 1.400 . S
C1974 H1969 0.930 . S
C1974 C1971 1.386 . S
C1974 C1975 1.395 . S
C1975 C1972 1.411 . S
C1975 C1974 1.395 . S
C1975 C1997 1.420 . S
O1976 Eu1932 2.558 . S
O1976 C1996 1.257 . S
O1977 Eu1932 2.612 . S
O1977 Eu1943 2.380 . S
O1977 C1988 1.276 . S
O1978 Eu1943 2.432 . S
O1978 C1995 1.264 . S
O1979 Eu1932 2.339 . S
O1979 C1995 1.254 . S
O1980 Eu1932 2.563 . S
O1980 C1988 1.235 . S
O1981 Eu1932 2.419 . S
O1981 C1996 1.249 . S
O1982 Eu1943 2.558 . S
O1982 C2007 1.257 . S
O1983 Eu1932 2.380 . S
O1983 Eu1943 2.612 . S
O1983 C1999 1.276 . S
O1984 Eu1932 2.432 . S
O1984 C2006 1.264 . S
O1985 Eu1943 2.339 . S
O1985 C2006 1.254 . S
O1986 Eu1943 2.563 . S
O1986 C1999 1.235 . S
O1987 Eu1943 2.419 . S
O1987 C2007 1.249 . S
C1988 O1977 1.276 . S
C1988 O1980 1.235 . S
C1989 C1991 1.393 . S
C1989 C1993 1.395 . S
C1989 C1996 1.492 1_655 S
C1990 C1991 1.392 . S
C1990 C1992 1.386 . S
C1991 C1989 1.393 . S
C1991 C1990 1.392 . S
C1991 H2008 0.930 . S
C1992 C1990 1.386 . S
C1992 C1994 1.395 . S
C1992 H2009 0.930 . S
C1993 C1989 1.395 . S
C1993 C1994 1.379 . S
C1993 H2010 0.930 . S
C1994 C1992 1.395 . S
C1994 C1993 1.379 . S
C1994 H2011 0.930 . S
C1995 O1978 1.264 . S
C1995 O1979 1.254 . S
C1996 Eu1932 2.848 . S
C1996 O1976 1.257 . S
C1996 O1981 1.249 . S
C1996 C1989 1.492 1_455 S
C1997 H1962 0.931 . S
C1997 C1975 1.420 . S
C1997 C1998 1.351 . S
C1998 H1960 0.936 . S
C1998 C1966 1.423 . S
C1998 C1997 1.351 . S
C1999 O1983 1.276 . S
C1999 O1986 1.235 . S
C2000 C2001 1.393 . S
C2000 C2004 1.395 . S
C2000 C2007 1.492 . S
C2001 C2000 1.393 . S
C2001 C2002 1.392 . S
C2001 H2012 0.930 . S
C2002 C2001 1.392 . S
C2002 C2003 1.386 . S
C2003 C2002 1.386 . S
C2003 C2005 1.395 . S
C2003 H2013 0.930 . S
C2004 C2000 1.395 . S
C2004 C2005 1.379 . S
C2004 H2014 0.930 . S
C2005 C2003 1.395 . S
C2005 C2004 1.379 . S
C2005 H2015 0.930 . S
C2006 O1984 1.264 . S
C2006 O1985 1.254 . S
C2007 Eu1943 2.848 . S
C2007 O1982 1.257 . S
C2007 O1987 1.249 . S
C2007 C2000 1.492 . S
H2008 C1991 0.930 . S
H2009 C1992 0.930 . S
H2010 C1993 0.930 . S
H2011 C1994 0.930 . S
H2012 C2001 0.930 . S
H2013 C2003 0.930 . S
H2014 C2004 0.930 . S
H2015 C2005 0.930 . S
Eu2016 N2047 2.657 . S
Eu2016 N2054 2.609 . S
Eu2016 O2060 2.558 . S
Eu2016 O2061 2.612 . S
Eu2016 O2063 2.339 . S
Eu2016 O2064 2.563 . S
Eu2016 O2065 2.419 . S
Eu2016 O2067 2.380 . S
Eu2016 O2068 2.432 . S
Eu2016 C2080 2.848 . S
C2017 C2020 1.429 . S
C2017 C2021 1.411 . S
C2017 N2024 1.377 . S
C2018 C2020 1.420 . S
C2018 C2022 1.423 . S
C2018 C2030 1.392 . S
C2019 C2021 1.420 . S
C2019 C2022 1.351 . S
C2019 H2042 0.931 . S
C2020 C2017 1.429 . S
C2020 C2018 1.420 . S
C2020 N2028 1.362 . S
C2021 C2017 1.411 . S
C2021 C2019 1.420 . S
C2021 C2026 1.395 . S
C2022 C2018 1.423 . S
C2022 C2019 1.351 . S
C2022 H2034 0.930 . S
C2023 C2025 1.400 1_455 S
C2023 C2026 1.386 . S
C2023 H2035 0.930 . S
N2024 C2017 1.377 . S
N2024 C2025 1.321 1_455 S
N2024 Eu2027 2.609 1_455 S
C2025 C2023 1.400 1_655 S
C2025 N2024 1.321 1_655 S
C2025 H2032 0.930 . S
C2026 C2021 1.395 . S
C2026 C2023 1.386 . S
C2026 H2045 0.930 . S
Eu2027 N2024 2.609 1_655 S
Eu2027 N2028 2.657 1_655 S
Eu2027 O2061 2.380 . S
Eu2027 O2062 2.432 . S
Eu2027 O2066 2.558 . S
Eu2027 O2067 2.612 . S
Eu2027 O2069 2.339 . S
Eu2027 O2070 2.563 . S
Eu2027 O2071 2.419 . S
Eu2027 C2091 2.848 . S
N2028 C2020 1.362 . S
N2028 Eu2027 2.657 1_455 S
N2028 C2029 1.334 . S
C2029 N2028 1.334 . S
C2029 C2031 1.413 . S
C2029 H2036 0.929 . S
C2030 C2018 1.392 . S
C2030 C2031 1.367 . S
C2030 H2038 0.930 . S
C2031 C2029 1.413 . S
C2031 C2030 1.367 . S
C2031 H2033 0.930 . S
H2032 C2025 0.930 . S
H2033 C2031 0.930 . S
H2034 C2022 0.930 . S
H2035 C2023 0.930 . S
H2036 C2029 0.929 . S
H2037 C2051 0.930 . S
H2038 C2030 0.930 . S
H2039 C2057 0.930 . S
H2040 C2048 0.929 . S
H2041 C2055 0.930 . S
H2042 C2019 0.931 . S
H2043 C2049 0.930 . S
H2044 C2082 0.930 . S
H2045 C2026 0.930 . S
H2046 C2081 0.931 . S
N2047 Eu2016 2.657 . S
N2047 C2048 1.334 . S
N2047 C2052 1.362 . S
C2048 H2040 0.929 . S
C2048 N2047 1.334 . S
C2048 C2051 1.413 . S
C2049 H2043 0.930 . S
C2049 C2050 1.392 . S
C2049 C2051 1.367 . S
C2050 C2049 1.392 . S
C2050 C2052 1.420 . S
C2050 C2082 1.423 . S
C2051 H2037 0.930 . S
C2051 C2048 1.413 . S
C2051 C2049 1.367 . S
C2052 N2047 1.362 . S
C2052 C2050 1.420 . S
C2052 C2056 1.429 . S
H2053 C2058 0.930 . S
N2054 Eu2016 2.609 . S
N2054 C2056 1.377 . S
N2054 C2057 1.321 . S
C2055 H2041 0.930 . S
C2055 C2057 1.400 . S
C2055 C2058 1.386 . S
C2056 C2052 1.429 . S
C2056 N2054 1.377 . S
C2056 C2059 1.411 . S
C2057 H2039 0.930 . S
C2057 N2054 1.321 . S
C2057 C2055 1.400 . S
C2058 H2053 0.930 . S
C2058 C2055 1.386 . S
C2058 C2059 1.395 . S
C2059 C2056 1.411 . S
C2059 C2058 1.395 . S
C2059 C2081 1.420 . S
O2060 Eu2016 2.558 . S
O2060 C2080 1.257 . S
O2061 Eu2016 2.612 . S
O2061 Eu2027 2.380 . S
O2061 C2072 1.276 . S
O2062 Eu2027 2.432 . S
O2062 C2079 1.264 . S
O2063 Eu2016 2.339 . S
O2063 C2079 1.254 . S
O2064 Eu2016 2.563 . S
O2064 C2072 1.235 . S
O2065 Eu2016 2.419 . S
O2065 C2080 1.249 . S
O2066 Eu2027 2.558 . S
O2066 C2091 1.257 . S
O2067 Eu2016 2.380 . S
O2067 Eu2027 2.612 . S
O2067 C2083 1.276 . S
O2068 Eu2016 2.432 . S
O2068 C2090 1.264 . S
O2069 Eu2027 2.339 . S
O2069 C2090 1.254 . S
O2070 Eu2027 2.563 . S
O2070 C2083 1.235 . S
O2071 Eu2027 2.419 . S
O2071 C2091 1.249 . S
C2072 O2061 1.276 . S
C2072 O2064 1.235 . S
C2073 C2075 1.393 1_565 S
C2073 C2077 1.395 1_565 S
C2073 C2080 1.492 . S
C2074 C2075 1.392 . S
C2074 C2076 1.386 . S
C2075 C2073 1.393 1_545 S
C2075 C2074 1.392 . S
C2075 H2092 0.930 . S
C2076 C2074 1.386 . S
C2076 C2078 1.395 . S
C2076 H2093 0.930 . S
C2077 C2073 1.395 1_545 S
C2077 C2078 1.379 . S
C2077 H2094 0.930 1_545 S
C2078 C2076 1.395 . S
C2078 C2077 1.379 . S
C2078 H2095 0.930 . S
C2079 O2062 1.264 . S
C2079 O2063 1.254 . S
C2080 Eu2016 2.848 . S
C2080 O2060 1.257 . S
C2080 O2065 1.249 . S
C2080 C2073 1.492 . S
C2081 H2046 0.931 . S
C2081 C2059 1.420 . S
C2081 C2082 1.351 . S
C2082 H2044 0.930 . S
C2082 C2050 1.423 . S
C2082 C2081 1.351 . S
C2083 O2067 1.276 . S
C2083 O2070 1.235 . S
C2084 C2085 1.393 . S
C2084 C2088 1.395 . S
C2084 C2091 1.492 . S
C2085 C2084 1.393 . S
C2085 C2086 1.392 . S
C2085 H2096 0.930 . S
C2086 C2085 1.392 . S
C2086 C2087 1.386 . S
C2087 C2086 1.386 . S
C2087 C2089 1.395 . S
C2087 H2097 0.930 . S
C2088 C2084 1.395 . S
C2088 C2089 1.379 . S
C2088 H2098 0.930 . S
C2089 C2087 1.395 . S
C2089 C2088 1.379 . S
C2089 H2099 0.930 . S
C2090 O2068 1.264 . S
C2090 O2069 1.254 . S
C2091 Eu2027 2.848 . S
C2091 O2066 1.257 . S
C2091 O2071 1.249 . S
C2091 C2084 1.492 . S
H2092 C2075 0.930 . S
H2093 C2076 0.930 . S
H2094 C2077 0.930 1_565 S
H2095 C2078 0.930 . S
H2096 C2085 0.930 . S
H2097 C2087 0.930 . S
H2098 C2088 0.930 . S
H2099 C2089 0.930 . S
Eu2100 N2131 2.657 . S
Eu2100 N2138 2.609 . S
Eu2100 O2144 2.558 . S
Eu2100 O2145 2.612 . S
Eu2100 O2147 2.339 . S
Eu2100 O2148 2.563 . S
Eu2100 O2149 2.419 . S
Eu2100 O2151 2.380 . S
Eu2100 O2152 2.432 . S
Eu2100 C2164 2.848 . S
C2101 C2104 1.429 . S
C2101 C2105 1.411 . S
C2101 N2108 1.377 . S
C2102 C2104 1.420 . S
C2102 C2106 1.423 . S
C2102 C2114 1.392 . S
C2103 C2105 1.420 . S
C2103 C2106 1.351 . S
C2103 H2126 0.931 . S
C2104 C2101 1.429 . S
C2104 C2102 1.420 . S
C2104 N2112 1.362 . S
C2105 C2101 1.411 . S
C2105 C2103 1.420 . S
C2105 C2110 1.395 . S
C2106 C2102 1.423 . S
C2106 C2103 1.351 . S
C2106 H2118 0.930 . S
C2107 C2109 1.400 . S
C2107 C2110 1.386 . S
C2107 H2119 0.930 . S
N2108 C2101 1.377 . S
N2108 C2109 1.321 . S
N2108 Eu2111 2.609 . S
C2109 C2107 1.400 . S
C2109 N2108 1.321 . S
C2109 H2116 0.930 . S
C2110 C2105 1.395 . S
C2110 C2107 1.386 . S
C2110 H2129 0.930 . S
Eu2111 N2108 2.609 . S
Eu2111 N2112 2.657 . S
Eu2111 O2145 2.380 . S
Eu2111 O2146 2.432 . S
Eu2111 O2150 2.558 . S
Eu2111 O2151 2.612 . S
Eu2111 O2153 2.339 . S
Eu2111 O2154 2.563 . S
Eu2111 O2155 2.419 . S
Eu2111 C2175 2.848 . S
N2112 C2104 1.362 . S
N2112 Eu2111 2.657 . S
N2112 C2113 1.334 . S
C2113 N2112 1.334 . S
C2113 C2115 1.413 . S
C2113 H2120 0.929 . S
C2114 C2102 1.392 . S
C2114 C2115 1.367 . S
C2114 H2122 0.930 . S
C2115 C2113 1.413 . S
C2115 C2114 1.367 . S
C2115 H2117 0.930 . S
H2116 C2109 0.930 . S
H2117 C2115 0.930 . S
H2118 C2106 0.930 . S
H2119 C2107 0.930 . S
H2120 C2113 0.929 . S
H2121 C2135 0.930 . S
H2122 C2114 0.930 . S
H2123 C2141 0.930 . S
H2124 C2132 0.929 . S
H2125 C2139 0.930 . S
H2126 C2103 0.931 . S
H2127 C2133 0.930 . S
H2128 C2166 0.930 . S
H2129 C2110 0.930 . S
H2130 C2165 0.931 . S
N2131 Eu2100 2.657 . S
N2131 C2132 1.334 . S
N2131 C2136 1.362 . S
C2132 H2124 0.929 . S
C2132 N2131 1.334 . S
C2132 C2135 1.413 . S
C2133 H2127 0.930 . S
C2133 C2134 1.392 . S
C2133 C2135 1.367 1_565 S
C2134 C2133 1.392 . S
C2134 C2136 1.420 1_565 S
C2134 C2166 1.423 . S
C2135 H2121 0.930 . S
C2135 C2132 1.413 . S
C2135 C2133 1.367 1_545 S
C2136 N2131 1.362 . S
C2136 C2134 1.420 1_545 S
C2136 C2140 1.429 . S
H2137 C2142 0.930 . S
N2138 Eu2100 2.609 . S
N2138 C2140 1.377 . S
N2138 C2141 1.321 . S
C2139 H2125 0.930 . S
C2139 C2141 1.400 . S
C2139 C2142 1.386 . S
C2140 C2136 1.429 . S
C2140 N2138 1.377 . S
C2140 C2143 1.411 . S
C2141 H2123 0.930 . S
C2141 N2138 1.321 . S
C2141 C2139 1.400 . S
C2142 H2137 0.930 . S
C2142 C2139 1.386 . S
C2142 C2143 1.395 . S
C2143 C2140 1.411 . S
C2143 C2142 1.395 . S
C2143 C2165 1.420 1_545 S
O2144 Eu2100 2.558 . S
O2144 C2164 1.257 . S
O2145 Eu2100 2.612 . S
O2145 Eu2111 2.380 . S
O2145 C2156 1.276 . S
O2146 Eu2111 2.432 . S
O2146 C2163 1.264 . S
O2147 Eu2100 2.339 . S
O2147 C2163 1.254 . S
O2148 Eu2100 2.563 . S
O2148 C2156 1.235 . S
O2149 Eu2100 2.419 . S
O2149 C2164 1.249 . S
O2150 Eu2111 2.558 . S
O2150 C2175 1.257 . S
O2151 Eu2100 2.380 . S
O2151 Eu2111 2.612 . S
O2151 C2167 1.276 . S
O2152 Eu2100 2.432 . S
O2152 C2174 1.264 . S
O2153 Eu2111 2.339 . S
O2153 C2174 1.254 . S
O2154 Eu2111 2.563 . S
O2154 C2167 1.235 . S
O2155 Eu2111 2.419 . S
O2155 C2175 1.249 . S
C2156 O2145 1.276 . S
C2156 O2148 1.235 . S
C2157 C2159 1.393 . S
C2157 C2161 1.395 . S
C2157 C2164 1.492 1_565 S
C2158 C2159 1.392 . S
C2158 C2160 1.386 . S
C2159 C2157 1.393 . S
C2159 C2158 1.392 . S
C2159 H2176 0.930 . S
C2160 C2158 1.386 . S
C2160 C2162 1.395 . S
C2160 H2177 0.930 1_455 S
C2161 C2157 1.395 . S
C2161 C2162 1.379 . S
C2161 H2178 0.930 . S
C2162 C2160 1.395 . S
C2162 C2161 1.379 . S
C2162 H2179 0.930 . S
C2163 O2146 1.264 . S
C2163 O2147 1.254 . S
C2164 Eu2100 2.848 . S
C2164 O2144 1.257 . S
C2164 O2149 1.249 . S
C2164 C2157 1.492 1_545 S
C2165 H2130 0.931 . S
C2165 C2143 1.420 1_565 S
C2165 C2166 1.351 . S
C2166 H2128 0.930 . S
C2166 C2134 1.423 . S
C2166 C2165 1.351 . S
C2167 O2151 1.276 . S
C2167 O2154 1.235 . S
C2168 C2169 1.393 . S
C2168 C2172 1.395 . S
C2168 C2175 1.492 . S
C2169 C2168 1.393 . S
C2169 C2170 1.392 . S
C2169 H2180 0.930 . S
C2170 C2169 1.392 . S
C2170 C2171 1.386 . S
C2171 C2170 1.386 . S
C2171 C2173 1.395 . S
C2171 H2181 0.930 . S
C2172 C2168 1.395 . S
C2172 C2173 1.379 . S
C2172 H2182 0.930 . S
C2173 C2171 1.395 . S
C2173 C2172 1.379 . S
C2173 H2183 0.930 . S
C2174 O2152 1.264 . S
C2174 O2153 1.254 . S
C2175 Eu2111 2.848 . S
C2175 O2150 1.257 . S
C2175 O2155 1.249 . S
C2175 C2168 1.492 . S
H2176 C2159 0.930 . S
H2177 C2160 0.930 1_655 S
H2178 C2161 0.930 . S
H2179 C2162 0.930 . S
H2180 C2169 0.930 . S
H2181 C2171 0.930 . S
H2182 C2172 0.930 . S
H2183 C2173 0.930 . S
Eu2184 N2215 2.657 . S
Eu2184 N2222 2.609 . S
Eu2184 O2228 2.558 . S
Eu2184 O2229 2.612 1_455 S
Eu2184 O2231 2.339 . S
Eu2184 O2232 2.566 1_455 S
Eu2184 O2233 2.419 . S
Eu2184 O2235 2.380 1_455 S
Eu2184 O2236 2.432 1_455 S
Eu2184 C2248 2.848 . S
C2185 C2188 1.429 . S
C2185 C2189 1.411 . S
C2185 N2192 1.377 . S
C2186 C2188 1.420 1_565 S
C2186 C2190 1.423 . S
C2186 C2198 1.392 . S
C2187 C2189 1.420 1_565 S
C2187 C2190 1.351 . S
C2187 H2210 0.931 . S
C2188 C2185 1.429 . S
C2188 C2186 1.420 1_545 S
C2188 N2196 1.362 . S
C2189 C2185 1.411 . S
C2189 C2187 1.420 1_545 S
C2189 C2194 1.395 . S
C2190 C2186 1.423 . S
C2190 C2187 1.351 . S
C2190 H2202 0.930 . S
C2191 C2193 1.400 . S
C2191 C2194 1.386 . S
C2191 H2203 0.930 . S
N2192 C2185 1.377 . S
N2192 C2193 1.321 . S
N2192 Eu2195 2.609 . S
C2193 C2191 1.400 . S
C2193 N2192 1.321 . S
C2193 H2200 0.930 . S
C2194 C2189 1.395 . S
C2194 C2191 1.386 . S
C2194 H2213 0.930 . S
Eu2195 N2192 2.609 . S
Eu2195 N2196 2.657 . S
Eu2195 O2229 2.380 . S
Eu2195 O2230 2.432 . S
Eu2195 O2234 2.558 . S
Eu2195 O2235 2.612 . S
Eu2195 O2237 2.339 . S
Eu2195 O2238 2.563 . S
Eu2195 O2239 2.419 . S
Eu2195 C2259 2.848 . S
N2196 C2188 1.362 . S
N2196 Eu2195 2.657 . S
N2196 C2197 1.334 . S
C2197 N2196 1.334 . S
C2197 C2199 1.413 1_545 S
C2197 H2204 0.929 . S
C2198 C2186 1.392 . S
C2198 C2199 1.367 . S
C2198 H2206 0.930 . S
C2199 C2197 1.413 1_565 S
C2199 C2198 1.367 . S
C2199 H2201 0.930 . S
H2200 C2193 0.930 . S
H2201 C2199 0.930 . S
H2202 C2190 0.930 . S
H2203 C2191 0.930 . S
H2204 C2197 0.929 . S
H2205 C2219 0.930 . S
H2206 C2198 0.930 . S
H2207 C2225 0.930 . S
H2208 C2216 0.929 . S
H2209 C2223 0.930 . S
H2210 C2187 0.931 . S
H2211 C2217 0.930 . S
H2212 C2250 0.930 . S
H2213 C2194 0.930 . S
H2214 C2249 0.931 . S
N2215 Eu2184 2.657 . S
N2215 C2216 1.334 . S
N2215 C2220 1.362 . S
C2216 H2208 0.929 . S
C2216 N2215 1.334 . S
C2216 C2219 1.413 . S
C2217 H2211 0.930 . S
C2217 C2218 1.392 . S
C2217 C2219 1.367 . S
C2218 C2217 1.392 . S
C2218 C2220 1.420 . S
C2218 C2250 1.423 . S
C2219 H2205 0.930 . S
C2219 C2216 1.413 . S
C2219 C2217 1.367 . S
C2220 N2215 1.362 . S
C2220 C2218 1.420 . S
C2220 C2224 1.429 . S
H2221 C2226 0.930 . S
N2222 Eu2184 2.609 . S
N2222 C2224 1.377 . S
N2222 C2225 1.321 . S
C2223 H2209 0.930 . S
C2223 C2225 1.400 . S
C2223 C2226 1.386 . S
C2224 C2220 1.429 . S
C2224 N2222 1.377 . S
C2224 C2227 1.411 . S
C2225 H2207 0.930 . S
C2225 N2222 1.321 . S
C2225 C2223 1.400 . S
C2226 H2221 0.930 . S
C2226 C2223 1.386 . S
C2226 C2227 1.395 . S
C2227 C2224 1.411 . S
C2227 C2226 1.395 . S
C2227 C2249 1.420 . S
O2228 Eu2184 2.558 . S
O2228 C2248 1.257 . S
O2229 Eu2184 2.612 1_655 S
O2229 Eu2195 2.380 . S
O2229 C2240 1.276 . S
O2230 Eu2195 2.432 . S
O2230 C2247 1.264 . S
O2231 Eu2184 2.339 . S
O2231 C2247 1.254 1_455 S
O2232 Eu2184 2.566 1_655 S
O2232 C2240 1.239 . S
O2233 Eu2184 2.419 . S
O2233 C2248 1.249 . S
O2234 Eu2195 2.558 . S
O2234 C2259 1.257 . S
O2235 Eu2184 2.380 1_655 S
O2235 Eu2195 2.612 . S
O2235 C2251 1.276 . S
O2236 Eu2184 2.432 1_655 S
O2236 C2258 1.264 . S
O2237 Eu2195 2.339 . S
O2237 C2258 1.254 . S
O2238 Eu2195 2.563 . S
O2238 C2251 1.235 . S
O2239 Eu2195 2.419 . S
O2239 C2259 1.249 . S
C2240 O2229 1.276 . S
C2240 O2232 1.239 . S
C2241 C2243 1.393 . S
C2241 C2245 1.395 . S
C2241 C2248 1.492 . S
C2242 C2243 1.392 . S
C2242 C2244 1.386 . S
C2243 C2241 1.393 . S
C2243 C2242 1.392 . S
C2243 H2260 0.930 . S
C2244 C2242 1.386 . S
C2244 C2246 1.395 . S
C2244 H2261 0.930 . S
C2245 C2241 1.395 . S
C2245 C2246 1.379 . S
C2245 H2262 0.930 . S
C2246 C2244 1.395 . S
C2246 C2245 1.379 . S
C2246 H2263 0.930 . S
C2247 O2230 1.264 . S
C2247 O2231 1.254 1_655 S
C2248 Eu2184 2.848 . S
C2248 O2228 1.257 . S
C2248 O2233 1.249 . S
C2248 C2241 1.492 . S
C2249 H2214 0.931 . S
C2249 C2227 1.420 . S
C2249 C2250 1.351 . S
C2250 H2212 0.930 . S
C2250 C2218 1.423 . S
C2250 C2249 1.351 . S
C2251 O2235 1.276 . S
C2251 O2238 1.235 . S
C2252 C2253 1.393 . S
C2252 C2256 1.395 . S
C2252 C2259 1.492 . S
C2253 C2252 1.393 . S
C2253 C2254 1.392 . S
C2253 H2264 0.930 . S
C2254 C2253 1.392 . S
C2254 C2255 1.386 . S
C2255 C2254 1.386 . S
C2255 C2257 1.395 . S
C2255 H2265 0.930 . S
C2256 C2252 1.395 . S
C2256 C2257 1.379 . S
C2256 H2266 0.930 . S
C2257 C2255 1.395 . S
C2257 C2256 1.379 . S
C2257 H2267 0.930 . S
C2258 O2236 1.264 . S
C2258 O2237 1.254 . S
C2259 Eu2195 2.848 . S
C2259 O2234 1.257 . S
C2259 O2239 1.249 . S
C2259 C2252 1.492 . S
H2260 C2243 0.930 . S
H2261 C2244 0.930 . S
H2262 C2245 0.930 . S
H2263 C2246 0.930 . S
H2264 C2253 0.930 . S
H2265 C2255 0.930 . S
H2266 C2256 0.930 . S
H2267 C2257 0.930 . S
Eu2268 N2299 2.657 . S
Eu2268 N2306 2.609 . S
Eu2268 O2312 2.558 . S
Eu2268 O2313 2.612 . S
Eu2268 O2315 2.339 . S
Eu2268 O2316 2.563 . S
Eu2268 O2317 2.419 . S
Eu2268 O2319 2.380 . S
Eu2268 O2320 2.432 . S
Eu2268 C2332 2.848 . S
C2269 C2272 1.429 . S
C2269 C2273 1.411 . S
C2269 N2276 1.377 . S
C2270 C2272 1.420 . S
C2270 C2274 1.423 . S
C2270 C2282 1.392 . S
C2271 C2273 1.420 . S
C2271 C2274 1.351 . S
C2271 H2294 0.931 . S
C2272 C2269 1.429 . S
C2272 C2270 1.420 . S
C2272 N2280 1.362 . S
C2273 C2269 1.411 . S
C2273 C2271 1.420 . S
C2273 C2278 1.395 . S
C2274 C2270 1.423 . S
C2274 C2271 1.351 . S
C2274 H2286 0.930 . S
C2275 C2277 1.400 . S
C2275 C2278 1.386 . S
C2275 H2287 0.930 . S
N2276 C2269 1.377 . S
N2276 C2277 1.321 . S
N2276 Eu2279 2.609 . S
C2277 C2275 1.400 . S
C2277 N2276 1.321 . S
C2277 H2284 0.930 . S
C2278 C2273 1.395 . S
C2278 C2275 1.386 . S
C2278 H2297 0.930 . S
Eu2279 N2276 2.609 . S
Eu2279 N2280 2.657 . S
Eu2279 O2313 2.380 . S
Eu2279 O2314 2.432 . S
Eu2279 O2318 2.558 . S
Eu2279 O2319 2.612 . S
Eu2279 O2321 2.339 . S
Eu2279 O2322 2.563 . S
Eu2279 O2323 2.419 . S
Eu2279 C2343 2.848 . S
N2280 C2272 1.362 . S
N2280 Eu2279 2.657 . S
N2280 C2281 1.334 . S
C2281 N2280 1.334 . S
C2281 C2283 1.413 . S
C2281 H2288 0.929 . S
C2282 C2270 1.392 . S
C2282 C2283 1.367 . S
C2282 H2290 0.930 . S
C2283 C2281 1.413 . S
C2283 C2282 1.367 . S
C2283 H2285 0.930 . S
H2284 C2277 0.930 . S
H2285 C2283 0.930 . S
H2286 C2274 0.930 . S
H2287 C2275 0.930 . S
H2288 C2281 0.929 . S
H2289 C2303 0.930 . S
H2290 C2282 0.930 . S
H2291 C2309 0.930 . S
H2292 C2300 0.929 . S
H2293 C2307 0.930 . S
H2294 C2271 0.931 . S
H2295 C2301 0.930 . S
H2296 C2334 0.930 . S
H2297 C2278 0.930 . S
H2298 C2333 0.931 . S
N2299 Eu2268 2.657 . S
N2299 C2300 1.334 . S
N2299 C2304 1.362 . S
C2300 H2292 0.929 . S
C2300 N2299 1.334 . S
C2300 C2303 1.413 1_545 S
C2301 H2295 0.930 . S
C2301 C2302 1.392 . S
C2301 C2303 1.367 . S
C2302 C2301 1.392 . S
C2302 C2304 1.420 1_565 S
C2302 C2334 1.423 . S
C2303 H2289 0.930 . S
C2303 C2300 1.413 1_565 S
C2303 C2301 1.367 . S
C2304 N2299 1.362 . S
C2304 C2302 1.420 1_545 S
C2304 C2308 1.429 . S
H2305 C2310 0.930 1_565 S
N2306 Eu2268 2.609 . S
N2306 C2308 1.377 . S
N2306 C2309 1.321 . S
C2307 H2293 0.930 . S
C2307 C2309 1.400 . S
C2307 C2310 1.386 . S
C2308 C2304 1.429 . S
C2308 N2306 1.377 . S
C2308 C2311 1.411 1_545 S
C2309 H2291 0.930 . S
C2309 N2306 1.321 . S
C2309 C2307 1.400 . S
C2310 H2305 0.930 1_545 S
C2310 C2307 1.386 . S
C2310 C2311 1.395 1_545 S
C2311 C2308 1.411 1_565 S
C2311 C2310 1.395 1_565 S
C2311 C2333 1.420 . S
O2312 Eu2268 2.558 . S
O2312 C2332 1.257 . S
O2313 Eu2268 2.612 . S
O2313 Eu2279 2.380 . S
O2313 C2324 1.276 . S
O2314 Eu2279 2.432 . S
O2314 C2331 1.264 . S
O2315 Eu2268 2.339 . S
O2315 C2331 1.254 . S
O2316 Eu2268 2.563 . S
O2316 C2324 1.235 . S
O2317 Eu2268 2.419 . S
O2317 C2332 1.249 . S
O2318 Eu2279 2.558 . S
O2318 C2343 1.257 . S
O2319 Eu2268 2.380 . S
O2319 Eu2279 2.612 . S
O2319 C2335 1.276 . S
O2320 Eu2268 2.432 . S
O2320 C2342 1.264 . S
O2321 Eu2279 2.339 . S
O2321 C2342 1.254 . S
O2322 Eu2279 2.563 . S
O2322 C2335 1.235 . S
O2323 Eu2279 2.419 . S
O2323 C2343 1.249 . S
C2324 O2313 1.276 . S
C2324 O2316 1.235 . S
C2325 C2327 1.393 . S
C2325 C2329 1.395 . S
C2325 C2332 1.492 . S
C2326 C2327 1.392 . S
C2326 C2328 1.386 . S
C2327 C2325 1.393 . S
C2327 C2326 1.392 . S
C2327 H2344 0.930 . S
C2328 C2326 1.386 . S
C2328 C2330 1.395 . S
C2328 H2345 0.930 . S
C2329 C2325 1.395 . S
C2329 C2330 1.379 . S
C2329 H2346 0.930 . S
C2330 C2328 1.395 . S
C2330 C2329 1.379 . S
C2330 H2347 0.930 . S
C2331 O2314 1.264 . S
C2331 O2315 1.254 . S
C2332 Eu2268 2.848 . S
C2332 O2312 1.257 . S
C2332 O2317 1.249 . S
C2332 C2325 1.492 . S
C2333 H2298 0.931 . S
C2333 C2311 1.420 . S
C2333 C2334 1.351 . S
C2334 H2296 0.930 . S
C2334 C2302 1.423 . S
C2334 C2333 1.351 . S
C2335 O2319 1.276 . S
C2335 O2322 1.235 . S
C2336 C2337 1.393 . S
C2336 C2340 1.395 . S
C2336 C2343 1.492 . S
C2337 C2336 1.393 . S
C2337 C2338 1.392 . S
C2337 H2348 0.930 . S
C2338 C2337 1.392 . S
C2338 C2339 1.386 . S
C2339 C2338 1.386 . S
C2339 C2341 1.395 . S
C2339 H2349 0.930 . S
C2340 C2336 1.395 . S
C2340 C2341 1.379 . S
C2340 H2350 0.930 . S
C2341 C2339 1.395 . S
C2341 C2340 1.379 . S
C2341 H2351 0.930 . S
C2342 O2320 1.264 . S
C2342 O2321 1.254 . S
C2343 Eu2279 2.848 . S
C2343 O2318 1.257 . S
C2343 O2323 1.249 . S
C2343 C2336 1.492 . S
H2344 C2327 0.930 . S
H2345 C2328 0.930 . S
H2346 C2329 0.930 . S
H2347 C2330 0.930 . S
H2348 C2337 0.930 . S
H2349 C2339 0.930 . S
H2350 C2340 0.930 . S
H2351 C2341 0.930 . S
Eu2352 N2383 2.657 1_655 S
Eu2352 N2390 2.609 1_655 S
Eu2352 O2396 2.558 . S
Eu2352 O2397 2.612 . S
Eu2352 O2399 2.339 . S
Eu2352 O2400 2.563 . S
Eu2352 O2401 2.419 . S
Eu2352 O2403 2.380 . S
Eu2352 O2404 2.432 . S
Eu2352 C2416 2.848 . S
C2353 C2356 1.429 . S
C2353 C2357 1.411 . S
C2353 N2360 1.377 . S
C2354 C2356 1.420 . S
C2354 C2358 1.423 . S
C2354 C2366 1.392 . S
C2355 C2357 1.420 . S
C2355 C2358 1.351 . S
C2355 H2378 0.931 . S
C2356 C2353 1.429 . S
C2356 C2354 1.420 . S
C2356 N2364 1.362 . S
C2357 C2353 1.411 . S
C2357 C2355 1.420 . S
C2357 C2362 1.395 . S
C2358 C2354 1.423 . S
C2358 C2355 1.351 . S
C2358 H2370 0.930 . S
C2359 C2361 1.400 . S
C2359 C2362 1.386 . S
C2359 H2371 0.930 . S
N2360 C2353 1.377 . S
N2360 C2361 1.321 . S
N2360 Eu2363 2.609 . S
C2361 C2359 1.400 . S
C2361 N2360 1.321 . S
C2361 H2368 0.930 . S
C2362 C2357 1.395 . S
C2362 C2359 1.386 . S
C2362 H2381 0.930 . S
Eu2363 N2360 2.609 . S
Eu2363 N2364 2.657 . S
Eu2363 O2397 2.380 . S
Eu2363 O2398 2.432 . S
Eu2363 O2402 2.558 . S
Eu2363 O2403 2.612 . S
Eu2363 O2405 2.339 . S
Eu2363 O2406 2.563 . S
Eu2363 O2407 2.419 . S
Eu2363 C2427 2.848 . S
N2364 C2356 1.362 . S
N2364 Eu2363 2.657 . S
N2364 C2365 1.334 . S
C2365 N2364 1.334 . S
C2365 C2367 1.413 . S
C2365 H2372 0.929 . S
C2366 C2354 1.392 . S
C2366 C2367 1.367 . S
C2366 H2374 0.930 . S
C2367 C2365 1.413 . S
C2367 C2366 1.367 . S
C2367 H2369 0.930 . S
H2368 C2361 0.930 . S
H2369 C2367 0.930 . S
H2370 C2358 0.930 . S
H2371 C2359 0.930 . S
H2372 C2365 0.929 . S
H2373 C2387 0.930 . S
H2374 C2366 0.930 . S
H2375 C2393 0.930 1_655 S
H2376 C2384 0.929 . S
H2377 C2391 0.930 . S
H2378 C2355 0.931 . S
H2379 C2385 0.930 . S
H2380 C2418 0.930 . S
H2381 C2362 0.930 . S
H2382 C2417 0.931 . S
N2383 Eu2352 2.657 1_455 S
N2383 C2384 1.334 . S
N2383 C2388 1.362 . S
C2384 H2376 0.929 . S
C2384 N2383 1.334 . S
C2384 C2387 1.413 . S
C2385 H2379 0.930 . S
C2385 C2386 1.392 . S
C2385 C2387 1.367 . S
C2386 C2385 1.392 . S
C2386 C2388 1.420 . S
C2386 C2418 1.423 . S
C2387 H2373 0.930 . S
C2387 C2384 1.413 . S
C2387 C2385 1.367 . S
C2388 N2383 1.362 . S
C2388 C2386 1.420 . S
C2388 C2392 1.429 . S
H2389 C2394 0.930 . S
N2390 Eu2352 2.609 1_455 S
N2390 C2392 1.377 . S
N2390 C2393 1.321 . S
C2391 H2377 0.930 . S
C2391 C2393 1.400 . S
C2391 C2394 1.386 . S
C2392 C2388 1.429 . S
C2392 N2390 1.377 . S
C2392 C2395 1.411 . S
C2393 H2375 0.930 1_455 S
C2393 N2390 1.321 . S
C2393 C2391 1.400 . S
C2394 H2389 0.930 . S
C2394 C2391 1.386 . S
C2394 C2395 1.395 . S
C2395 C2392 1.411 . S
C2395 C2394 1.395 . S
C2395 C2417 1.420 . S
O2396 Eu2352 2.558 . S
O2396 C2416 1.257 . S
O2397 Eu2352 2.612 . S
O2397 Eu2363 2.380 . S
O2397 C2408 1.276 . S
O2398 Eu2363 2.432 . S
O2398 C2415 1.264 . S
O2399 Eu2352 2.339 . S
O2399 C2415 1.254 . S
O2400 Eu2352 2.563 . S
O2400 C2408 1.235 . S
O2401 Eu2352 2.419 . S
O2401 C2416 1.249 . S
O2402 Eu2363 2.558 . S
O2402 C2427 1.257 . S
O2403 Eu2352 2.380 . S
O2403 Eu2363 2.612 . S
O2403 C2419 1.276 1_655 S
O2404 Eu2352 2.432 . S
O2404 C2426 1.264 . S
O2405 Eu2363 2.339 . S
O2405 C2426 1.254 . S
O2406 Eu2363 2.563 . S
O2406 C2419 1.235 1_655 S
O2407 Eu2363 2.419 . S
O2407 C2427 1.249 . S
C2408 O2397 1.276 . S
C2408 O2400 1.235 . S
C2409 C2411 1.393 . S
C2409 C2413 1.395 . S
C2409 C2416 1.492 . S
C2410 C2411 1.392 . S
C2410 C2412 1.386 . S
C2411 C2409 1.393 . S
C2411 C2410 1.392 . S
C2411 H2428 0.930 . S
C2412 C2410 1.386 . S
C2412 C2414 1.395 . S
C2412 H2429 0.930 . S
C2413 C2409 1.395 . S
C2413 C2414 1.379 . S
C2413 H2430 0.930 . S
C2414 C2412 1.395 . S
C2414 C2413 1.379 . S
C2414 H2431 0.930 . S
C2415 O2398 1.264 . S
C2415 O2399 1.254 . S
C2416 Eu2352 2.848 . S
C2416 O2396 1.257 . S
C2416 O2401 1.249 . S
C2416 C2409 1.492 . S
C2417 H2382 0.931 . S
C2417 C2395 1.420 . S
C2417 C2418 1.351 . S
C2418 H2380 0.930 . S
C2418 C2386 1.423 . S
C2418 C2417 1.351 . S
C2419 O2403 1.276 1_455 S
C2419 O2406 1.235 1_455 S
C2420 C2421 1.393 . S
C2420 C2424 1.395 . S
C2420 C2427 1.492 1_565 S
C2421 C2420 1.393 . S
C2421 C2422 1.392 . S
C2421 H2432 0.930 . S
C2422 C2421 1.392 . S
C2422 C2423 1.386 . S
C2423 C2422 1.386 . S
C2423 C2425 1.395 . S
C2423 H2433 0.930 . S
C2424 C2420 1.395 . S
C2424 C2425 1.379 . S
C2424 H2434 0.930 . S
C2425 C2423 1.395 . S
C2425 C2424 1.379 . S
C2425 H2435 0.930 . S
C2426 O2404 1.264 . S
C2426 O2405 1.254 . S
C2427 Eu2363 2.848 . S
C2427 O2402 1.257 . S
C2427 O2407 1.249 . S
C2427 C2420 1.492 1_545 S
H2428 C2411 0.930 . S
H2429 C2412 0.930 . S
H2430 C2413 0.930 . S
H2431 C2414 0.930 . S
H2432 C2421 0.930 . S
H2433 C2423 0.930 . S
H2434 C2424 0.930 . S
H2435 C2425 0.930 . S
Eu2436 N2467 2.657 . S
Eu2436 N2474 2.609 . S
Eu2436 O2480 2.558 . S
Eu2436 O2481 2.612 . S
Eu2436 O2483 2.339 . S
Eu2436 O2484 2.563 . S
Eu2436 O2485 2.419 . S
Eu2436 O2487 2.380 . S
Eu2436 O2488 2.432 . S
Eu2436 C2500 2.848 . S
C2437 C2440 1.429 . S
C2437 C2441 1.411 . S
C2437 N2444 1.377 . S
C2438 C2440 1.420 . S
C2438 C2442 1.423 . S
C2438 C2450 1.392 . S
C2439 C2441 1.420 . S
C2439 C2442 1.351 . S
C2439 H2462 0.931 . S
C2440 C2437 1.429 . S
C2440 C2438 1.420 . S
C2440 N2448 1.362 . S
C2441 C2437 1.411 . S
C2441 C2439 1.420 . S
C2441 C2446 1.395 . S
C2442 C2438 1.423 . S
C2442 C2439 1.351 . S
C2442 H2454 0.930 . S
C2443 C2445 1.401 . S
C2443 C2446 1.386 . S
C2443 H2455 0.930 . S
N2444 C2437 1.377 . S
N2444 C2445 1.322 . S
N2444 Eu2447 2.609 1_455 S
C2445 C2443 1.401 . S
C2445 N2444 1.322 . S
C2445 H2452 0.927 1_455 S
C2446 C2441 1.395 . S
C2446 C2443 1.386 . S
C2446 H2465 0.930 . S
Eu2447 N2444 2.609 1_655 S
Eu2447 N2448 2.657 1_655 S
Eu2447 O2481 2.380 . S
Eu2447 O2482 2.432 . S
Eu2447 O2486 2.558 1_655 S
Eu2447 O2487 2.612 . S
Eu2447 O2489 2.339 . S
Eu2447 O2490 2.563 . S
Eu2447 O2491 2.419 1_655 S
Eu2447 C2511 2.848 1_655 S
N2448 C2440 1.362 . S
N2448 Eu2447 2.657 1_455 S
N2448 C2449 1.334 . S
C2449 N2448 1.334 . S
C2449 C2451 1.413 . S
C2449 H2456 0.929 . S
C2450 C2438 1.392 . S
C2450 C2451 1.367 . S
C2450 H2458 0.930 . S
C2451 C2449 1.413 . S
C2451 C2450 1.367 . S
C2451 H2453 0.930 . S
H2452 C2445 0.927 1_655 S
H2453 C2451 0.930 . S
H2454 C2442 0.930 . S
H2455 C2443 0.930 . S
H2456 C2449 0.929 . S
H2457 C2471 0.930 . S
H2458 C2450 0.930 . S
H2459 C2477 0.930 . S
H2460 C2468 0.929 . S
H2461 C2475 0.930 . S
H2462 C2439 0.931 . S
H2463 C2469 0.930 . S
H2464 C2502 0.930 . S
H2465 C2446 0.930 . S
H2466 C2501 0.931 . S
N2467 Eu2436 2.657 . S
N2467 C2468 1.334 . S
N2467 C2472 1.362 . S
C2468 H2460 0.929 . S
C2468 N2467 1.334 . S
C2468 C2471 1.413 . S
C2469 H2463 0.930 . S
C2469 C2470 1.392 . S
C2469 C2471 1.367 . S
C2470 C2469 1.392 . S
C2470 C2472 1.420 . S
C2470 C2502 1.423 . S
C2471 H2457 0.930 . S
C2471 C2468 1.413 . S
C2471 C2469 1.367 . S
C2472 N2467 1.362 . S
C2472 C2470 1.420 . S
C2472 C2476 1.429 . S
H2473 C2478 0.930 . S
N2474 Eu2436 2.609 . S
N2474 C2476 1.377 . S
N2474 C2477 1.321 . S
C2475 H2461 0.930 . S
C2475 C2477 1.400 . S
C2475 C2478 1.386 . S
C2476 C2472 1.429 . S
C2476 N2474 1.377 . S
C2476 C2479 1.411 . S
C2477 H2459 0.930 . S
C2477 N2474 1.321 . S
C2477 C2475 1.400 . S
C2478 H2473 0.930 . S
C2478 C2475 1.386 . S
C2478 C2479 1.395 . S
C2479 C2476 1.411 . S
C2479 C2478 1.395 . S
C2479 C2501 1.420 . S
O2480 Eu2436 2.558 . S
O2480 C2500 1.257 . S
O2481 Eu2436 2.612 . S
O2481 Eu2447 2.380 . S
O2481 C2492 1.276 . S
O2482 Eu2447 2.432 . S
O2482 C2499 1.264 . S
O2483 Eu2436 2.339 . S
O2483 C2499 1.254 . S
O2484 Eu2436 2.563 . S
O2484 C2492 1.235 . S
O2485 Eu2436 2.419 . S
O2485 C2500 1.249 . S
O2486 Eu2447 2.558 1_455 S
O2486 C2511 1.257 . S
O2487 Eu2436 2.380 . S
O2487 Eu2447 2.612 . S
O2487 C2503 1.276 . S
O2488 Eu2436 2.432 . S
O2488 C2510 1.264 . S
O2489 Eu2447 2.339 . S
O2489 C2510 1.254 . S
O2490 Eu2447 2.563 . S
O2490 C2503 1.235 . S
O2491 Eu2447 2.419 1_455 S
O2491 C2511 1.249 . S
C2492 O2481 1.276 . S
C2492 O2484 1.235 . S
C2493 C2495 1.393 . S
C2493 C2497 1.395 . S
C2493 C2500 1.492 . S
C2494 C2495 1.392 . S
C2494 C2496 1.386 . S
C2495 C2493 1.393 . S
C2495 C2494 1.392 . S
C2495 H2512 0.930 . S
C2496 C2494 1.386 . S
C2496 C2498 1.395 . S
C2496 H2513 0.930 . S
C2497 C2493 1.395 . S
C2497 C2498 1.379 . S
C2497 H2514 0.930 . S
C2498 C2496 1.395 . S
C2498 C2497 1.379 . S
C2498 H2515 0.930 . S
C2499 O2482 1.264 . S
C2499 O2483 1.254 . S
C2500 Eu2436 2.848 . S
C2500 O2480 1.257 . S
C2500 O2485 1.249 . S
C2500 C2493 1.492 . S
C2501 H2466 0.931 . S
C2501 C2479 1.420 . S
C2501 C2502 1.351 . S
C2502 H2464 0.930 . S
C2502 C2470 1.423 . S
C2502 C2501 1.351 . S
C2503 O2487 1.276 . S
C2503 O2490 1.235 . S
C2504 C2505 1.398 . S
C2504 C2508 1.395 . S
C2504 C2511 1.492 . S
C2505 C2504 1.398 . S
C2505 C2506 1.386 1_565 S
C2505 H2516 0.931 . S
C2506 C2505 1.386 1_545 S
C2506 C2507 1.386 . S
C2507 C2506 1.386 . S
C2507 C2509 1.395 . S
C2507 H2517 0.930 . S
C2508 C2504 1.395 . S
C2508 C2509 1.379 1_565 S
C2508 H2518 0.930 . S
C2509 C2507 1.395 . S
C2509 C2508 1.379 1_545 S
C2509 H2519 0.930 . S
C2510 O2488 1.264 . S
C2510 O2489 1.254 . S
C2511 Eu2447 2.848 1_455 S
C2511 O2486 1.257 . S
C2511 O2491 1.249 . S
C2511 C2504 1.492 . S
H2512 C2495 0.930 . S
H2513 C2496 0.930 . S
H2514 C2497 0.930 . S
H2515 C2498 0.930 . S
H2516 C2505 0.931 . S
H2517 C2507 0.930 . S
H2518 C2508 0.930 . S
H2519 C2509 0.930 . S
Eu2520 N2551 2.657 . S
Eu2520 N2558 2.609 . S
Eu2520 O2564 2.558 . S
Eu2520 O2565 2.612 . S
Eu2520 O2567 2.339 . S
Eu2520 O2568 2.563 . S
Eu2520 O2569 2.419 . S
Eu2520 O2571 2.380 . S
Eu2520 O2572 2.432 . S
Eu2520 C2584 2.848 . S
C2521 C2524 1.429 . S
C2521 C2525 1.411 . S
C2521 N2528 1.377 . S
C2522 C2524 1.420 . S
C2522 C2526 1.423 . S
C2522 C2534 1.392 . S
C2523 C2525 1.420 . S
C2523 C2526 1.351 . S
C2523 H2546 0.931 . S
C2524 C2521 1.429 . S
C2524 C2522 1.420 . S
C2524 N2532 1.362 . S
C2525 C2521 1.411 . S
C2525 C2523 1.420 . S
C2525 C2530 1.395 . S
C2526 C2522 1.423 . S
C2526 C2523 1.351 . S
C2526 H2538 0.930 . S
C2527 C2529 1.400 . S
C2527 C2530 1.386 . S
C2527 H2539 0.930 . S
N2528 C2521 1.377 . S
N2528 C2529 1.321 . S
N2528 Eu2531 2.609 1_455 S
C2529 C2527 1.400 . S
C2529 N2528 1.321 . S
C2529 H2536 0.930 1_455 S
C2530 C2525 1.395 . S
C2530 C2527 1.386 . S
C2530 H2549 0.930 . S
Eu2531 N2528 2.609 1_655 S
Eu2531 N2532 2.657 1_655 S
Eu2531 O2565 2.380 . S
Eu2531 O2566 2.432 . S
Eu2531 O2570 2.558 . S
Eu2531 O2571 2.612 . S
Eu2531 O2573 2.339 . S
Eu2531 O2574 2.563 . S
Eu2531 O2575 2.419 . S
Eu2531 C2595 2.848 . S
N2532 C2524 1.362 . S
N2532 Eu2531 2.657 1_455 S
N2532 C2533 1.334 . S
C2533 N2532 1.334 . S
C2533 C2535 1.413 . S
C2533 H2540 0.929 . S
C2534 C2522 1.392 . S
C2534 C2535 1.367 . S
C2534 H2542 0.930 . S
C2535 C2533 1.413 . S
C2535 C2534 1.367 . S
C2535 H2537 0.930 . S
H2536 C2529 0.930 1_655 S
H2537 C2535 0.930 . S
H2538 C2526 0.930 . S
H2539 C2527 0.930 . S
H2540 C2533 0.929 . S
H2541 C2555 0.930 . S
H2542 C2534 0.930 . S
H2543 C2561 0.930 . S
H2544 C2552 0.929 . S
H2545 C2559 0.930 . S
H2546 C2523 0.931 . S
H2547 C2553 0.930 . S
H2548 C2586 0.930 . S
H2549 C2530 0.930 . S
H2550 C2585 0.931 . S
N2551 Eu2520 2.657 . S
N2551 C2552 1.334 . S
N2551 C2556 1.362 . S
C2552 H2544 0.929 . S
C2552 N2551 1.334 . S
C2552 C2555 1.413 . S
C2553 H2547 0.930 . S
C2553 C2554 1.392 . S
C2553 C2555 1.367 . S
C2554 C2553 1.392 . S
C2554 C2556 1.420 . S
C2554 C2586 1.423 . S
C2555 H2541 0.930 . S
C2555 C2552 1.413 . S
C2555 C2553 1.367 . S
C2556 N2551 1.362 . S
C2556 C2554 1.420 . S
C2556 C2560 1.429 . S
H2557 C2562 0.930 . S
N2558 Eu2520 2.609 . S
N2558 C2560 1.377 . S
N2558 C2561 1.321 . S
C2559 H2545 0.930 . S
C2559 C2561 1.400 . S
C2559 C2562 1.386 . S
C2560 C2556 1.429 . S
C2560 N2558 1.377 . S
C2560 C2563 1.411 . S
C2561 H2543 0.930 . S
C2561 N2558 1.321 . S
C2561 C2559 1.400 . S
C2562 H2557 0.930 . S
C2562 C2559 1.386 . S
C2562 C2563 1.395 . S
C2563 C2560 1.411 . S
C2563 C2562 1.395 . S
C2563 C2585 1.420 . S
O2564 Eu2520 2.558 . S
O2564 C2584 1.257 . S
O2565 Eu2520 2.612 . S
O2565 Eu2531 2.380 . S
O2565 C2576 1.276 1_655 S
O2566 Eu2531 2.432 . S
O2566 C2583 1.264 . S
O2567 Eu2520 2.339 . S
O2567 C2583 1.254 . S
O2568 Eu2520 2.563 . S
O2568 C2576 1.235 1_655 S
O2569 Eu2520 2.419 . S
O2569 C2584 1.249 . S
O2570 Eu2531 2.558 . S
O2570 C2595 1.257 . S
O2571 Eu2520 2.380 . S
O2571 Eu2531 2.612 . S
O2571 C2587 1.276 . S
O2572 Eu2520 2.432 . S
O2572 C2594 1.264 . S
O2573 Eu2531 2.339 . S
O2573 C2594 1.254 . S
O2574 Eu2531 2.563 . S
O2574 C2587 1.235 . S
O2575 Eu2531 2.419 . S
O2575 C2595 1.249 . S
C2576 O2565 1.276 1_455 S
C2576 O2568 1.235 1_455 S
C2577 C2579 1.401 . S
C2577 C2581 1.395 . S
C2577 C2584 1.492 . S
C2578 C2579 1.379 1_545 S
C2578 C2580 1.386 . S
C2579 C2577 1.401 . S
C2579 C2578 1.379 1_565 S
C2579 H2596 0.935 . S
C2580 C2578 1.386 . S
C2580 C2582 1.395 . S
C2580 H2597 0.930 . S
C2581 C2577 1.395 . S
C2581 C2582 1.379 1_565 S
C2581 H2598 0.930 . S
C2582 C2580 1.395 . S
C2582 C2581 1.379 1_545 S
C2582 H2599 0.930 . S
C2583 O2566 1.264 . S
C2583 O2567 1.254 . S
C2584 Eu2520 2.848 . S
C2584 O2564 1.257 . S
C2584 O2569 1.249 . S
C2584 C2577 1.492 . S
C2585 H2550 0.931 . S
C2585 C2563 1.420 . S
C2585 C2586 1.351 . S
C2586 H2548 0.930 . S
C2586 C2554 1.423 . S
C2586 C2585 1.351 . S
C2587 O2571 1.276 . S
C2587 O2574 1.235 . S
C2588 C2589 1.393 . S
C2588 C2592 1.395 . S
C2588 C2595 1.492 . S
C2589 C2588 1.393 . S
C2589 C2590 1.392 . S
C2589 H2600 0.930 . S
C2590 C2589 1.392 . S
C2590 C2591 1.386 . S
C2591 C2590 1.386 . S
C2591 C2593 1.395 . S
C2591 H2601 0.930 . S
C2592 C2588 1.395 . S
C2592 C2593 1.379 . S
C2592 H2602 0.930 . S
C2593 C2591 1.395 . S
C2593 C2592 1.379 . S
C2593 H2603 0.930 . S
C2594 O2572 1.264 . S
C2594 O2573 1.254 . S
C2595 Eu2531 2.848 . S
C2595 O2570 1.257 . S
C2595 O2575 1.249 . S
C2595 C2588 1.492 . S
H2596 C2579 0.935 . S
H2597 C2580 0.930 . S
H2598 C2581 0.930 . S
H2599 C2582 0.930 . S
H2600 C2589 0.930 . S
H2601 C2591 0.930 . S
H2602 C2592 0.930 . S
H2603 C2593 0.930 . S
Eu2604 N2635 2.657 . S
Eu2604 N2642 2.609 . S
Eu2604 O2648 2.558 . S
Eu2604 O2649 2.612 . S
Eu2604 O2651 2.339 . S
Eu2604 O2652 2.563 . S
Eu2604 O2653 2.419 . S
Eu2604 O2655 2.380 . S
Eu2604 O2656 2.432 . S
Eu2604 C2668 2.848 . S
C2605 C2608 1.429 . S
C2605 C2609 1.411 . S
C2605 N2612 1.377 . S
C2606 C2608 1.420 . S
C2606 C2610 1.423 . S
C2606 C2618 1.392 . S
C2607 C2609 1.420 . S
C2607 C2610 1.351 . S
C2607 H2630 0.931 . S
C2608 C2605 1.429 . S
C2608 C2606 1.420 . S
C2608 N2616 1.362 . S
C2609 C2605 1.411 . S
C2609 C2607 1.420 . S
C2609 C2614 1.395 . S
C2610 C2606 1.423 . S
C2610 C2607 1.351 . S
C2610 H2622 0.930 . S
C2611 C2613 1.400 . S
C2611 C2614 1.386 . S
C2611 H2623 0.930 . S
N2612 C2605 1.377 . S
N2612 C2613 1.321 . S
N2612 Eu2615 2.609 . S
C2613 C2611 1.400 . S
C2613 N2612 1.321 . S
C2613 H2620 0.930 . S
C2614 C2609 1.395 . S
C2614 C2611 1.386 . S
C2614 H2633 0.930 . S
Eu2615 N2612 2.609 . S
Eu2615 N2616 2.657 . S
Eu2615 O2649 2.380 . S
Eu2615 O2650 2.432 . S
Eu2615 O2654 2.558 . S
Eu2615 O2655 2.612 . S
Eu2615 O2657 2.339 . S
Eu2615 O2658 2.563 . S
Eu2615 O2659 2.419 . S
Eu2615 C2679 2.848 . S
N2616 C2608 1.362 . S
N2616 Eu2615 2.657 . S
N2616 C2617 1.334 . S
C2617 N2616 1.334 . S
C2617 C2619 1.413 . S
C2617 H2624 0.929 . S
C2618 C2606 1.392 . S
C2618 C2619 1.367 . S
C2618 H2626 0.930 . S
C2619 C2617 1.413 . S
C2619 C2618 1.367 . S
C2619 H2621 0.930 . S
H2620 C2613 0.930 . S
H2621 C2619 0.930 . S
H2622 C2610 0.930 . S
H2623 C2611 0.930 . S
H2624 C2617 0.929 . S
H2625 C2639 0.930 . S
H2626 C2618 0.930 . S
H2627 C2645 0.930 . S
H2628 C2636 0.929 . S
H2629 C2643 0.930 . S
H2630 C2607 0.931 . S
H2631 C2637 0.930 . S
H2632 C2670 0.936 . S
H2633 C2614 0.930 . S
H2634 C2669 0.931 . S
N2635 Eu2604 2.657 . S
N2635 C2636 1.334 . S
N2635 C2640 1.362 . S
C2636 H2628 0.929 . S
C2636 N2635 1.334 . S
C2636 C2639 1.413 . S
C2637 H2631 0.930 . S
C2637 C2638 1.392 . S
C2637 C2639 1.367 . S
C2638 C2637 1.392 . S
C2638 C2640 1.420 . S
C2638 C2670 1.423 . S
C2639 H2625 0.930 . S
C2639 C2636 1.413 . S
C2639 C2637 1.367 . S
C2640 N2635 1.362 . S
C2640 C2638 1.420 . S
C2640 C2644 1.429 . S
H2641 C2646 0.930 . S
N2642 Eu2604 2.609 . S
N2642 C2644 1.377 . S
N2642 C2645 1.321 . S
C2643 H2629 0.930 . S
C2643 C2645 1.400 . S
C2643 C2646 1.386 . S
C2644 C2640 1.429 . S
C2644 N2642 1.377 . S
C2644 C2647 1.411 . S
C2645 H2627 0.930 . S
C2645 N2642 1.321 . S
C2645 C2643 1.400 . S
C2646 H2641 0.930 . S
C2646 C2643 1.386 . S
C2646 C2647 1.395 . S
C2647 C2644 1.411 . S
C2647 C2646 1.395 . S
C2647 C2669 1.420 . S
O2648 Eu2604 2.558 . S
O2648 C2668 1.257 . S
O2649 Eu2604 2.612 . S
O2649 Eu2615 2.380 . S
O2649 C2660 1.276 . S
O2650 Eu2615 2.432 . S
O2650 C2667 1.264 . S
O2651 Eu2604 2.339 . S
O2651 C2667 1.254 . S
O2652 Eu2604 2.563 . S
O2652 C2660 1.235 . S
O2653 Eu2604 2.419 . S
O2653 C2668 1.249 . S
O2654 Eu2615 2.558 . S
O2654 C2679 1.257 . S
O2655 Eu2604 2.380 . S
O2655 Eu2615 2.612 . S
O2655 C2671 1.276 . S
O2656 Eu2604 2.432 . S
O2656 C2678 1.264 . S
O2657 Eu2615 2.339 . S
O2657 C2678 1.254 . S
O2658 Eu2615 2.563 . S
O2658 C2671 1.235 . S
O2659 Eu2615 2.419 . S
O2659 C2679 1.249 . S
C2660 O2649 1.276 . S
C2660 O2652 1.235 . S
C2661 C2663 1.393 . S
C2661 C2665 1.395 . S
C2661 C2668 1.492 1_565 S
C2662 C2663 1.392 . S
C2662 C2664 1.386 . S
C2663 C2661 1.393 . S
C2663 C2662 1.392 . S
C2663 H2680 0.930 . S
C2664 C2662 1.386 . S
C2664 C2666 1.395 . S
C2664 H2681 0.930 . S
C2665 C2661 1.395 . S
C2665 C2666 1.379 . S
C2665 H2682 0.930 . S
C2666 C2664 1.395 . S
C2666 C2665 1.379 . S
C2666 H2683 0.930 . S
C2667 O2650 1.264 . S
C2667 O2651 1.254 . S
C2668 Eu2604 2.848 . S
C2668 O2648 1.257 . S
C2668 O2653 1.249 . S
C2668 C2661 1.492 1_545 S
C2669 H2634 0.931 . S
C2669 C2647 1.420 . S
C2669 C2670 1.351 . S
C2670 H2632 0.936 . S
C2670 C2638 1.423 . S
C2670 C2669 1.351 . S
C2671 O2655 1.276 . S
C2671 O2658 1.235 . S
C2672 C2673 1.393 . S
C2672 C2676 1.395 . S
C2672 C2679 1.492 . S
C2673 C2672 1.393 . S
C2673 C2674 1.392 . S
C2673 H2684 0.930 . S
C2674 C2673 1.392 . S
C2674 C2675 1.386 . S
C2675 C2674 1.386 . S
C2675 C2677 1.395 . S
C2675 H2685 0.930 . S
C2676 C2672 1.395 . S
C2676 C2677 1.379 . S
C2676 H2686 0.930 . S
C2677 C2675 1.395 . S
C2677 C2676 1.379 . S
C2677 H2687 0.930 . S
C2678 O2656 1.264 . S
C2678 O2657 1.254 . S
C2679 Eu2615 2.848 . S
C2679 O2654 1.257 . S
C2679 O2659 1.249 . S
C2679 C2672 1.492 . S
H2680 C2663 0.930 . S
H2681 C2664 0.930 . S
H2682 C2665 0.930 . S
H2683 C2666 0.930 . S
H2684 C2673 0.930 . S
H2685 C2675 0.930 . S
H2686 C2676 0.930 . S
H2687 C2677 0.930 . S
Eu2688 N2719 2.657 1_655 S
Eu2688 N2726 2.609 1_655 S
Eu2688 O2732 2.558 1_655 S
Eu2688 O2733 2.612 . S
Eu2688 O2735 2.339 . S
Eu2688 O2736 2.563 . S
Eu2688 O2737 2.419 1_655 S
Eu2688 O2739 2.380 . S
Eu2688 O2740 2.432 . S
Eu2688 C2752 2.848 1_655 S
C2689 C2692 1.429 . S
C2689 C2693 1.411 1_545 S
C2689 N2696 1.377 . S
C2690 C2692 1.420 1_565 S
C2690 C2694 1.423 . S
C2690 C2702 1.392 . S
C2691 C2693 1.420 . S
C2691 C2694 1.351 . S
C2691 H2714 0.931 . S
C2692 C2689 1.429 . S
C2692 C2690 1.420 1_545 S
C2692 N2700 1.362 . S
C2693 C2689 1.411 1_565 S
C2693 C2691 1.420 . S
C2693 C2698 1.395 1_565 S
C2694 C2690 1.423 . S
C2694 C2691 1.351 . S
C2694 H2706 0.930 . S
C2695 C2697 1.400 . S
C2695 C2698 1.386 . S
C2695 H2707 0.930 . S
N2696 C2689 1.377 . S
N2696 C2697 1.321 . S
N2696 Eu2699 2.609 . S
C2697 C2695 1.400 . S
C2697 N2696 1.321 . S
C2697 H2704 0.930 . S
C2698 C2693 1.395 1_545 S
C2698 C2695 1.386 . S
C2698 H2717 0.930 1_545 S
Eu2699 N2696 2.609 . S
Eu2699 N2700 2.657 . S
Eu2699 O2733 2.380 . S
Eu2699 O2734 2.432 . S
Eu2699 O2738 2.558 . S
Eu2699 O2739 2.612 . S
Eu2699 O2741 2.339 . S
Eu2699 O2742 2.563 . S
Eu2699 O2743 2.419 . S
Eu2699 C2763 2.848 . S
N2700 C2692 1.362 . S
N2700 Eu2699 2.657 . S
N2700 C2701 1.334 . S
C2701 N2700 1.334 . S
C2701 C2703 1.413 1_545 S
C2701 H2708 0.929 . S
C2702 C2690 1.392 . S
C2702 C2703 1.367 . S
C2702 H2710 0.930 . S
C2703 C2701 1.413 1_565 S
C2703 C2702 1.367 . S
C2703 H2705 0.930 . S
H2704 C2697 0.930 . S
H2705 C2703 0.930 . S
H2706 C2694 0.930 . S
H2707 C2695 0.930 . S
H2708 C2701 0.929 . S
H2709 C2723 0.930 . S
H2710 C2702 0.930 . S
H2711 C2729 0.930 1_655 S
H2712 C2720 0.929 . S
H2713 C2727 0.930 . S
H2714 C2691 0.931 . S
H2715 C2721 0.930 . S
H2716 C2754 0.930 . S
H2717 C2698 0.930 1_565 S
H2718 C2753 0.931 . S
N2719 Eu2688 2.657 1_455 S
N2719 C2720 1.334 . S
N2719 C2724 1.362 . S
C2720 H2712 0.929 . S
C2720 N2719 1.334 . S
C2720 C2723 1.413 . S
C2721 H2715 0.930 . S
C2721 C2722 1.392 . S
C2721 C2723 1.367 . S
C2722 C2721 1.392 . S
C2722 C2724 1.420 . S
C2722 C2754 1.423 . S
C2723 H2709 0.930 . S
C2723 C2720 1.413 . S
C2723 C2721 1.367 . S
C2724 N2719 1.362 . S
C2724 C2722 1.420 . S
C2724 C2728 1.429 . S
H2725 C2730 0.930 . S
N2726 Eu2688 2.609 1_455 S
N2726 C2728 1.377 . S
N2726 C2729 1.321 . S
C2727 H2713 0.930 . S
C2727 C2729 1.400 . S
C2727 C2730 1.386 . S
C2728 C2724 1.429 . S
C2728 N2726 1.377 . S
C2728 C2731 1.411 . S
C2729 H2711 0.930 1_455 S
C2729 N2726 1.321 . S
C2729 C2727 1.400 . S
C2730 H2725 0.930 . S
C2730 C2727 1.386 . S
C2730 C2731 1.395 . S
C2731 C2728 1.411 . S
C2731 C2730 1.395 . S
C2731 C2753 1.420 . S
O2732 Eu2688 2.558 1_455 S
O2732 C2752 1.257 . S
O2733 Eu2688 2.612 . S
O2733 Eu2699 2.380 . S
O2733 C2744 1.276 . S
O2734 Eu2699 2.432 . S
O2734 C2751 1.264 . S
O2735 Eu2688 2.339 . S
O2735 C2751 1.254 . S
O2736 Eu2688 2.563 . S
O2736 C2744 1.235 . S
O2737 Eu2688 2.419 1_455 S
O2737 C2752 1.249 . S
O2738 Eu2699 2.558 . S
O2738 C2763 1.257 . S
O2739 Eu2688 2.380 . S
O2739 Eu2699 2.612 . S
O2739 C2755 1.276 . S
O2740 Eu2688 2.432 . S
O2740 C2762 1.264 . S
O2741 Eu2699 2.339 . S
O2741 C2762 1.254 . S
O2742 Eu2699 2.563 . S
O2742 C2755 1.235 . S
O2743 Eu2699 2.419 . S
O2743 C2763 1.249 . S
C2744 O2733 1.276 . S
C2744 O2736 1.235 . S
C2745 C2747 1.393 . S
C2745 C2749 1.395 . S
C2745 C2752 1.492 . S
C2746 C2747 1.392 . S
C2746 C2748 1.386 . S
C2747 C2745 1.393 . S
C2747 C2746 1.392 . S
C2747 H2764 0.930 . S
C2748 C2746 1.386 . S
C2748 C2750 1.395 . S
C2748 H2765 0.930 . S
C2749 C2745 1.395 . S
C2749 C2750 1.379 . S
C2749 H2766 0.930 . S
C2750 C2748 1.395 . S
C2750 C2749 1.379 . S
C2750 H2767 0.930 . S
C2751 O2734 1.264 . S
C2751 O2735 1.254 . S
C2752 Eu2688 2.848 1_455 S
C2752 O2732 1.257 . S
C2752 O2737 1.249 . S
C2752 C2745 1.492 . S
C2753 H2718 0.931 . S
C2753 C2731 1.420 . S
C2753 C2754 1.351 . S
C2754 H2716 0.930 . S
C2754 C2722 1.423 . S
C2754 C2753 1.351 . S
C2755 O2739 1.276 . S
C2755 O2742 1.235 . S
C2756 C2757 1.393 . S
C2756 C2760 1.395 . S
C2756 C2763 1.492 . S
C2757 C2756 1.393 . S
C2757 C2758 1.392 . S
C2757 H2768 0.930 . S
C2758 C2757 1.392 . S
C2758 C2759 1.386 . S
C2759 C2758 1.386 . S
C2759 C2761 1.395 . S
C2759 H2769 0.930 . S
C2760 C2756 1.395 . S
C2760 C2761 1.379 . S
C2760 H2770 0.930 . S
C2761 C2759 1.395 . S
C2761 C2760 1.379 . S
C2761 H2771 0.930 . S
C2762 O2740 1.264 . S
C2762 O2741 1.254 . S
C2763 Eu2699 2.848 . S
C2763 O2738 1.257 . S
C2763 O2743 1.249 . S
C2763 C2756 1.492 . S
H2764 C2747 0.930 . S
H2765 C2748 0.930 . S
H2766 C2749 0.930 . S
H2767 C2750 0.930 . S
H2768 C2757 0.930 . S
H2769 C2759 0.930 . S
H2770 C2760 0.930 . S
H2771 C2761 0.930 . S
Eu2772 N2803 2.657 . S
Eu2772 N2810 2.609 . S
Eu2772 O2816 2.558 . S
Eu2772 O2817 2.612 . S
Eu2772 O2819 2.339 . S
Eu2772 O2820 2.563 . S
Eu2772 O2821 2.419 . S
Eu2772 O2823 2.380 . S
Eu2772 O2824 2.432 . S
Eu2772 C2836 2.848 . S
C2773 C2776 1.429 . S
C2773 C2777 1.411 . S
C2773 N2780 1.377 . S
C2774 C2776 1.420 . S
C2774 C2778 1.423 . S
C2774 C2786 1.392 . S
C2775 C2777 1.420 . S
C2775 C2778 1.351 . S
C2775 H2798 0.931 . S
C2776 C2773 1.429 . S
C2776 C2774 1.420 . S
C2776 N2784 1.362 . S
C2777 C2773 1.411 . S
C2777 C2775 1.420 . S
C2777 C2782 1.395 . S
C2778 C2774 1.423 . S
C2778 C2775 1.351 . S
C2778 H2790 0.930 . S
C2779 C2781 1.400 . S
C2779 C2782 1.386 . S
C2779 H2791 0.930 . S
N2780 C2773 1.377 . S
N2780 C2781 1.321 . S
N2780 Eu2783 2.609 . S
C2781 C2779 1.400 . S
C2781 N2780 1.321 . S
C2781 H2788 0.930 . S
C2782 C2777 1.395 . S
C2782 C2779 1.386 . S
C2782 H2801 0.930 . S
Eu2783 N2780 2.609 . S
Eu2783 N2784 2.657 . S
Eu2783 O2817 2.380 . S
Eu2783 O2818 2.432 . S
Eu2783 O2822 2.558 . S
Eu2783 O2823 2.612 . S
Eu2783 O2825 2.339 . S
Eu2783 O2826 2.563 . S
Eu2783 O2827 2.419 . S
Eu2783 C2847 2.848 . S
N2784 C2776 1.362 . S
N2784 Eu2783 2.657 . S
N2784 C2785 1.334 . S
C2785 N2784 1.334 . S
C2785 C2787 1.413 . S
C2785 H2792 0.929 . S
C2786 C2774 1.392 . S
C2786 C2787 1.367 . S
C2786 H2794 0.930 . S
C2787 C2785 1.413 . S
C2787 C2786 1.367 . S
C2787 H2789 0.930 . S
H2788 C2781 0.930 . S
H2789 C2787 0.930 . S
H2790 C2778 0.930 . S
H2791 C2779 0.930 . S
H2792 C2785 0.929 . S
H2793 C2807 0.930 . S
H2794 C2786 0.930 . S
H2795 C2813 0.930 . S
H2796 C2804 0.929 . S
H2797 C2811 0.930 . S
H2798 C2775 0.931 . S
H2799 C2805 0.930 . S
H2800 C2838 0.930 . S
H2801 C2782 0.930 . S
H2802 C2837 0.931 . S
N2803 Eu2772 2.657 . S
N2803 C2804 1.334 . S
N2803 C2808 1.362 . S
C2804 H2796 0.929 . S
C2804 N2803 1.334 . S
C2804 C2807 1.413 1_545 S
C2805 H2799 0.930 . S
C2805 C2806 1.392 . S
C2805 C2807 1.367 . S
C2806 C2805 1.392 . S
C2806 C2808 1.420 1_565 S
C2806 C2838 1.423 . S
C2807 H2793 0.930 . S
C2807 C2804 1.413 1_565 S
C2807 C2805 1.367 . S
C2808 N2803 1.362 . S
C2808 C2806 1.420 1_545 S
C2808 C2812 1.429 . S
H2809 C2814 0.930 . S
N2810 Eu2772 2.609 . S
N2810 C2812 1.377 . S
N2810 C2813 1.321 . S
C2811 H2797 0.930 . S
C2811 C2813 1.400 . S
C2811 C2814 1.386 . S
C2812 C2808 1.429 . S
C2812 N2810 1.377 . S
C2812 C2815 1.411 . S
C2813 H2795 0.930 . S
C2813 N2810 1.321 . S
C2813 C2811 1.400 . S
C2814 H2809 0.930 . S
C2814 C2811 1.386 . S
C2814 C2815 1.395 . S
C2815 C2812 1.411 . S
C2815 C2814 1.395 . S
C2815 C2837 1.420 1_545 S
O2816 Eu2772 2.558 . S
O2816 C2836 1.257 . S
O2817 Eu2772 2.612 . S
O2817 Eu2783 2.380 . S
O2817 C2828 1.276 . S
O2818 Eu2783 2.432 . S
O2818 C2835 1.264 . S
O2819 Eu2772 2.339 . S
O2819 C2835 1.254 . S
O2820 Eu2772 2.563 . S
O2820 C2828 1.235 . S
O2821 Eu2772 2.419 . S
O2821 C2836 1.249 . S
O2822 Eu2783 2.558 . S
O2822 C2847 1.257 . S
O2823 Eu2772 2.380 . S
O2823 Eu2783 2.612 . S
O2823 C2839 1.276 . S
O2824 Eu2772 2.432 . S
O2824 C2846 1.264 . S
O2825 Eu2783 2.339 . S
O2825 C2846 1.254 . S
O2826 Eu2783 2.563 . S
O2826 C2839 1.235 . S
O2827 Eu2783 2.419 . S
O2827 C2847 1.249 . S
C2828 O2817 1.276 . S
C2828 O2820 1.235 . S
C2829 C2831 1.393 . S
C2829 C2833 1.395 . S
C2829 C2836 1.492 . S
C2830 C2831 1.392 . S
C2830 C2832 1.386 . S
C2831 C2829 1.393 . S
C2831 C2830 1.392 . S
C2831 H2848 0.930 . S
C2832 C2830 1.386 . S
C2832 C2834 1.395 . S
C2832 H2849 0.930 . S
C2833 C2829 1.395 . S
C2833 C2834 1.379 . S
C2833 H2850 0.930 . S
C2834 C2832 1.395 . S
C2834 C2833 1.379 . S
C2834 H2851 0.930 . S
C2835 O2818 1.264 . S
C2835 O2819 1.254 . S
C2836 Eu2772 2.848 . S
C2836 O2816 1.257 . S
C2836 O2821 1.249 . S
C2836 C2829 1.492 . S
C2837 H2802 0.931 . S
C2837 C2815 1.420 1_565 S
C2837 C2838 1.351 . S
C2838 H2800 0.930 . S
C2838 C2806 1.423 . S
C2838 C2837 1.351 . S
C2839 O2823 1.276 . S
C2839 O2826 1.235 . S
C2840 C2841 1.393 . S
C2840 C2844 1.395 . S
C2840 C2847 1.492 . S
C2841 C2840 1.393 . S
C2841 C2842 1.392 . S
C2841 H2852 0.930 . S
C2842 C2841 1.392 . S
C2842 C2843 1.386 . S
C2843 C2842 1.386 . S
C2843 C2845 1.395 . S
C2843 H2853 0.930 1_455 S
C2844 C2840 1.395 . S
C2844 C2845 1.379 . S
C2844 H2854 0.930 . S
C2845 C2843 1.395 . S
C2845 C2844 1.379 . S
C2845 H2855 0.930 . S
C2846 O2824 1.264 . S
C2846 O2825 1.254 . S
C2847 Eu2783 2.848 . S
C2847 O2822 1.257 . S
C2847 O2827 1.249 . S
C2847 C2840 1.492 . S
H2848 C2831 0.930 . S
H2849 C2832 0.930 . S
H2850 C2833 0.930 . S
H2851 C2834 0.930 . S
H2852 C2841 0.930 . S
H2853 C2843 0.930 1_655 S
H2854 C2844 0.930 . S
H2855 C2845 0.930 . S
Eu2856 N2887 2.657 1_655 S
Eu2856 N2894 2.609 1_655 S
Eu2856 O2900 2.558 . S
Eu2856 O2901 2.612 . S
Eu2856 O2903 2.339 . S
Eu2856 O2904 2.563 . S
Eu2856 O2905 2.419 . S
Eu2856 O2907 2.380 . S
Eu2856 O2908 2.432 . S
Eu2856 C2920 2.848 . S
C2857 C2860 1.429 . S
C2857 C2861 1.411 . S
C2857 N2864 1.377 . S
C2858 C2860 1.420 1_565 S
C2858 C2862 1.423 . S
C2858 C2870 1.392 . S
C2859 C2861 1.420 1_565 S
C2859 C2862 1.351 . S
C2859 H2882 0.931 . S
C2860 C2857 1.429 . S
C2860 C2858 1.420 1_545 S
C2860 N2868 1.362 . S
C2861 C2857 1.411 . S
C2861 C2859 1.420 1_545 S
C2861 C2866 1.395 . S
C2862 C2858 1.423 . S
C2862 C2859 1.351 . S
C2862 H2874 0.930 . S
C2863 C2865 1.400 . S
C2863 C2866 1.386 . S
C2863 H2875 0.930 . S
N2864 C2857 1.377 . S
N2864 C2865 1.321 . S
N2864 Eu2867 2.609 . S
C2865 C2863 1.400 . S
C2865 N2864 1.321 . S
C2865 H2872 0.930 . S
C2866 C2861 1.395 . S
C2866 C2863 1.386 . S
C2866 H2885 0.930 . S
Eu2867 N2864 2.609 . S
Eu2867 N2868 2.657 . S
Eu2867 O2901 2.380 . S
Eu2867 O2902 2.432 . S
Eu2867 O2906 2.558 . S
Eu2867 O2907 2.612 . S
Eu2867 O2909 2.339 . S
Eu2867 O2910 2.563 . S
Eu2867 O2911 2.419 . S
Eu2867 C2931 2.848 . S
N2868 C2860 1.362 . S
N2868 Eu2867 2.657 . S
N2868 C2869 1.334 . S
C2869 N2868 1.334 . S
C2869 C2871 1.413 . S
C2869 H2876 0.929 . S
C2870 C2858 1.392 . S
C2870 C2871 1.367 1_565 S
C2870 H2878 0.930 . S
C2871 C2869 1.413 . S
C2871 C2870 1.367 1_545 S
C2871 H2873 0.930 . S
H2872 C2865 0.930 . S
H2873 C2871 0.930 . S
H2874 C2862 0.930 . S
H2875 C2863 0.930 . S
H2876 C2869 0.929 . S
H2877 C2891 0.930 . S
H2878 C2870 0.930 . S
H2879 C2897 0.930 . S
H2880 C2888 0.929 . S
H2881 C2895 0.930 . S
H2882 C2859 0.931 . S
H2883 C2889 0.930 . S
H2884 C2922 0.930 . S
H2885 C2866 0.930 . S
H2886 C2921 0.931 . S
N2887 Eu2856 2.657 1_455 S
N2887 C2888 1.334 . S
N2887 C2892 1.362 . S
C2888 H2880 0.929 . S
C2888 N2887 1.334 . S
C2888 C2891 1.413 . S
C2889 H2883 0.930 . S
C2889 C2890 1.392 . S
C2889 C2891 1.367 . S
C2890 C2889 1.392 . S
C2890 C2892 1.420 . S
C2890 C2922 1.423 . S
C2891 H2877 0.930 . S
C2891 C2888 1.413 . S
C2891 C2889 1.367 . S
C2892 N2887 1.362 . S
C2892 C2890 1.420 . S
C2892 C2896 1.429 . S
H2893 C2898 0.930 . S
N2894 Eu2856 2.609 1_455 S
N2894 C2896 1.377 . S
N2894 C2897 1.321 1_455 S
C2895 H2881 0.930 . S
C2895 C2897 1.400 1_455 S
C2895 C2898 1.386 . S
C2896 C2892 1.429 . S
C2896 N2894 1.377 . S
C2896 C2899 1.411 . S
C2897 H2879 0.930 . S
C2897 N2894 1.321 1_655 S
C2897 C2895 1.400 1_655 S
C2898 H2893 0.930 . S
C2898 C2895 1.386 . S
C2898 C2899 1.395 . S
C2899 C2896 1.411 . S
C2899 C2898 1.395 . S
C2899 C2921 1.420 . S
O2900 Eu2856 2.558 . S
O2900 C2920 1.257 . S
O2901 Eu2856 2.612 . S
O2901 Eu2867 2.380 . S
O2901 C2912 1.276 . S
O2902 Eu2867 2.432 . S
O2902 C2919 1.264 . S
O2903 Eu2856 2.339 . S
O2903 C2919 1.254 . S
O2904 Eu2856 2.563 . S
O2904 C2912 1.235 . S
O2905 Eu2856 2.419 . S
O2905 C2920 1.249 . S
O2906 Eu2867 2.558 . S
O2906 C2931 1.257 . S
O2907 Eu2856 2.380 . S
O2907 Eu2867 2.612 . S
O2907 C2923 1.276 . S
O2908 Eu2856 2.432 . S
O2908 C2930 1.264 . S
O2909 Eu2867 2.339 . S
O2909 C2930 1.254 . S
O2910 Eu2867 2.563 . S
O2910 C2923 1.235 . S
O2911 Eu2867 2.419 . S
O2911 C2931 1.249 . S
C2912 O2901 1.276 . S
C2912 O2904 1.235 . S
C2913 C2915 1.393 . S
C2913 C2917 1.395 . S
C2913 C2920 1.492 . S
C2914 C2915 1.392 . S
C2914 C2916 1.386 . S
C2915 C2913 1.393 . S
C2915 C2914 1.392 . S
C2915 H2932 0.930 . S
C2916 C2914 1.386 . S
C2916 C2918 1.395 . S
C2916 H2933 0.930 . S
C2917 C2913 1.395 . S
C2917 C2918 1.379 . S
C2917 H2934 0.930 . S
C2918 C2916 1.395 . S
C2918 C2917 1.379 . S
C2918 H2935 0.930 . S
C2919 O2902 1.264 . S
C2919 O2903 1.254 . S
C2920 Eu2856 2.848 . S
C2920 O2900 1.257 . S
C2920 O2905 1.249 . S
C2920 C2913 1.492 . S
C2921 H2886 0.931 . S
C2921 C2899 1.420 . S
C2921 C2922 1.351 . S
C2922 H2884 0.930 . S
C2922 C2890 1.423 . S
C2922 C2921 1.351 . S
C2923 O2907 1.276 . S
C2923 O2910 1.235 . S
C2924 C2925 1.393 . S
C2924 C2928 1.395 . S
C2924 C2931 1.492 1_565 S
C2925 C2924 1.393 . S
C2925 C2926 1.392 . S
C2925 H2936 0.930 . S
C2926 C2925 1.392 . S
C2926 C2927 1.386 . S
C2927 C2926 1.386 . S
C2927 C2929 1.395 . S
C2927 H2937 0.930 . S
C2928 C2924 1.395 . S
C2928 C2929 1.379 . S
C2928 H2938 0.930 . S
C2929 C2927 1.395 . S
C2929 C2928 1.379 . S
C2929 H2939 0.930 . S
C2930 O2908 1.264 . S
C2930 O2909 1.254 . S
C2931 Eu2867 2.848 . S
C2931 O2906 1.257 . S
C2931 O2911 1.249 . S
C2931 C2924 1.492 1_545 S
H2932 C2915 0.930 . S
H2933 C2916 0.930 . S
H2934 C2917 0.930 . S
H2935 C2918 0.930 . S
H2936 C2925 0.930 . S
H2937 C2927 0.930 . S
H2938 C2928 0.930 . S
H2939 C2929 0.930 . S
Eu2940 N2971 2.657 . S
Eu2940 N2978 2.609 . S
Eu2940 O2984 2.558 . S
Eu2940 O2985 2.612 . S
Eu2940 O2987 2.339 . S
Eu2940 O2988 2.563 . S
Eu2940 O2989 2.419 . S
Eu2940 O2991 2.380 . S
Eu2940 O2992 2.432 . S
Eu2940 C3004 2.848 . S
C2941 C2944 1.429 . S
C2941 C2945 1.411 . S
C2941 N2948 1.377 . S
C2942 C2944 1.420 . S
C2942 C2946 1.423 . S
C2942 C2954 1.392 . S
C2943 C2945 1.420 . S
C2943 C2946 1.351 . S
C2943 H2966 0.931 . S
C2944 C2941 1.429 . S
C2944 C2942 1.420 . S
C2944 N2952 1.362 . S
C2945 C2941 1.411 . S
C2945 C2943 1.420 . S
C2945 C2950 1.395 . S
C2946 C2942 1.423 . S
C2946 C2943 1.351 . S
C2946 H2958 0.930 . S
C2947 C2949 1.400 . S
C2947 C2950 1.386 . S
C2947 H2959 0.930 . S
N2948 C2941 1.377 . S
N2948 C2949 1.321 . S
N2948 Eu2951 2.609 . S
C2949 C2947 1.400 . S
C2949 N2948 1.321 . S
C2949 H2956 0.930 . S
C2950 C2945 1.395 . S
C2950 C2947 1.386 . S
C2950 H2969 0.930 . S
Eu2951 N2948 2.609 . S
Eu2951 N2952 2.657 . S
Eu2951 O2985 2.380 1_455 S
Eu2951 O2986 2.432 1_455 S
Eu2951 O2990 2.558 . S
Eu2951 O2991 2.612 1_455 S
Eu2951 O2993 2.339 . S
Eu2951 O2994 2.561 1_455 S
Eu2951 O2995 2.419 . S
Eu2951 C3015 2.848 . S
N2952 C2944 1.362 . S
N2952 Eu2951 2.657 . S
N2952 C2953 1.334 . S
C2953 N2952 1.334 . S
C2953 C2955 1.413 . S
C2953 H2960 0.929 . S
C2954 C2942 1.392 . S
C2954 C2955 1.367 . S
C2954 H2962 0.930 . S
C2955 C2953 1.413 . S
C2955 C2954 1.367 . S
C2955 H2957 0.930 . S
H2956 C2949 0.930 . S
H2957 C2955 0.930 . S
H2958 C2946 0.930 . S
H2959 C2947 0.930 . S
H2960 C2953 0.929 . S
H2961 C2975 0.930 . S
H2962 C2954 0.930 . S
H2963 C2981 0.930 . S
H2964 C2972 0.929 . S
H2965 C2979 0.930 . S
H2966 C2943 0.931 . S
H2967 C2973 0.930 . S
H2968 C3006 0.930 . S
H2969 C2950 0.930 . S
H2970 C3005 0.931 . S
N2971 Eu2940 2.657 . S
N2971 C2972 1.334 . S
N2971 C2976 1.362 . S
C2972 H2964 0.929 . S
C2972 N2971 1.334 . S
C2972 C2975 1.413 . S
C2973 H2967 0.930 . S
C2973 C2974 1.392 . S
C2973 C2975 1.367 . S
C2974 C2973 1.392 . S
C2974 C2976 1.420 . S
C2974 C3006 1.423 . S
C2975 H2961 0.930 . S
C2975 C2972 1.413 . S
C2975 C2973 1.367 . S
C2976 N2971 1.362 . S
C2976 C2974 1.420 . S
C2976 C2980 1.429 . S
H2977 C2982 0.930 . S
N2978 Eu2940 2.609 . S
N2978 C2980 1.377 . S
N2978 C2981 1.321 . S
C2979 H2965 0.930 . S
C2979 C2981 1.400 . S
C2979 C2982 1.386 . S
C2980 C2976 1.429 . S
C2980 N2978 1.377 . S
C2980 C2983 1.411 . S
C2981 H2963 0.930 . S
C2981 N2978 1.321 . S
C2981 C2979 1.400 . S
C2982 H2977 0.930 . S
C2982 C2979 1.386 . S
C2982 C2983 1.395 . S
C2983 C2980 1.411 . S
C2983 C2982 1.395 . S
C2983 C3005 1.420 . S
O2984 Eu2940 2.558 . S
O2984 C3004 1.257 . S
O2985 Eu2940 2.612 . S
O2985 Eu2951 2.380 1_655 S
O2985 C2996 1.276 . S
O2986 Eu2951 2.432 1_655 S
O2986 C3003 1.264 . S
O2987 Eu2940 2.339 . S
O2987 C3003 1.254 . S
O2988 Eu2940 2.563 . S
O2988 C2996 1.235 . S
O2989 Eu2940 2.419 . S
O2989 C3004 1.249 . S
O2990 Eu2951 2.558 . S
O2990 C3015 1.257 . S
O2991 Eu2940 2.380 . S
O2991 Eu2951 2.612 1_655 S
O2991 C3007 1.276 . S
O2992 Eu2940 2.432 . S
O2992 C3014 1.264 . S
O2993 Eu2951 2.339 . S
O2993 C3014 1.254 1_455 S
O2994 Eu2951 2.561 1_655 S
O2994 C3007 1.238 . S
O2995 Eu2951 2.419 . S
O2995 C3015 1.249 . S
C2996 O2985 1.276 . S
C2996 O2988 1.235 . S
C2997 C2999 1.393 . S
C2997 C3001 1.395 . S
C2997 C3004 1.492 . S
C2998 C2999 1.392 . S
C2998 C3000 1.386 . S
C2999 C2997 1.393 . S
C2999 C2998 1.392 . S
C2999 H3016 0.930 . S
C3000 C2998 1.386 . S
C3000 C3002 1.395 . S
C3000 H3017 0.930 . S
C3001 C2997 1.395 . S
C3001 C3002 1.379 . S
C3001 H3018 0.930 . S
C3002 C3000 1.395 . S
C3002 C3001 1.379 . S
C3002 H3019 0.930 . S
C3003 O2986 1.264 . S
C3003 O2987 1.254 . S
C3004 Eu2940 2.848 . S
C3004 O2984 1.257 . S
C3004 O2989 1.249 . S
C3004 C2997 1.492 . S
C3005 H2970 0.931 . S
C3005 C2983 1.420 . S
C3005 C3006 1.351 . S
C3006 H2968 0.930 . S
C3006 C2974 1.423 . S
C3006 C3005 1.351 . S
C3007 O2991 1.276 . S
C3007 O2994 1.238 . S
C3008 C3009 1.393 1_565 S
C3008 C3012 1.395 1_565 S
C3008 C3015 1.492 . S
C3009 C3008 1.393 1_545 S
C3009 C3010 1.392 . S
C3009 H3020 0.930 . S
C3010 C3009 1.392 . S
C3010 C3011 1.386 . S
C3011 C3010 1.386 . S
C3011 C3013 1.395 . S
C3011 H3021 0.930 . S
C3012 C3008 1.395 1_545 S
C3012 C3013 1.379 . S
C3012 H3022 0.930 1_545 S
C3013 C3011 1.395 . S
C3013 C3012 1.379 . S
C3013 H3023 0.930 . S
C3014 O2992 1.264 . S
C3014 O2993 1.254 1_655 S
C3015 Eu2951 2.848 . S
C3015 O2990 1.257 . S
C3015 O2995 1.249 . S
C3015 C3008 1.492 . S
H3016 C2999 0.930 . S
H3017 C3000 0.930 . S
H3018 C3001 0.930 . S
H3019 C3002 0.930 . S
H3020 C3009 0.930 . S
H3021 C3011 0.930 . S
H3022 C3012 0.930 1_565 S
H3023 C3013 0.930 . S
C2331 C63 3.307 . S
C2415 C147 3.307 1_655 S
C231 C2499 3.307 . S
C315 C1071 3.307 . S
C399 C1155 3.307 . S
C1239 C483 3.307 1_565 S
C578 C1838 3.307 1_545 S
C1922 C662 3.307 . S
C746 C2006 3.307 . S
C2594 C830 3.307 1_655 S
C914 C2678 3.307 . S
C2762 C998 3.307 . S
C2079 C1323 3.308 . S
C1407 C2163 3.306 1_565 S
C2247 C1491 3.306 1_655 S
C1586 C2846 3.307 . S
C1670 C2930 3.307 1_565 S
C3014 C1754 3.307 1_655 S
C74 C567 2.514 1_554 S
C651 C158 2.513 1_556 S
C242 C735 2.513 1_554 S
C819 C326 2.514 . S
C410 C903 2.513 . S
C987 C494 2.513 . S
C1575 C1082 2.513 . S
C1166 C1659 2.513 . S
C1743 C1250 2.513 . S
C1334 C1827 2.513 . S
C1911 C1418 2.513 . S
C1502 C1995 2.513 . S
C2090 C2583 2.513 . S
C2667 C2174 2.513 . S
C2751 C2258 2.513 . S
C2835 C2342 2.513 . S
C2426 C2919 2.513 . S
C2510 C3003 2.513 . S
C70 C235 1.794 . S
C154 C67 1.793 . S
C151 C238 1.794 . S
C322 C403 1.794 . S
C487 C406 1.794 . S
C319 C490 1.793 . S
C728 C562 1.794 . S
C646 C560 1.793 . S
C730 C644 1.794 . S
C896 C814 1.794 . S
C898 C980 1.794 . S
C982 C812 1.793 . S
C1243 C1078 1.794 . S
C1075 C1162 1.794 . S
C1159 C1246 1.793 . S
C1411 C1330 1.794 . S
C1414 C1495 1.793 . S
C1327 C1498 1.793 . S
C1570 C1736 1.793 . S
C1568 C1654 1.793 . S
C1738 C1652 1.793 . S
C1904 C1822 1.794 . S
C1988 C1906 1.793 . S
C1820 C1990 1.793 . S
C2251 C2086 1.794 . S
C2170 C2083 1.793 . S
C2167 C2254 1.793 . S
C2338 C2419 1.794 . S
C2422 C2503 1.793 . S
C2335 C2506 1.794 . S
C2578 C2744 1.794 . S
C2662 C2576 1.793 . S
C2660 C2746 1.793 . S
C2830 C2912 1.793 . S
C2996 C2914 1.793 . S
C2828 C2998 1.793 . S
C224 C58 1.830 . S
C142 C56 1.829 . S
C140 C226 1.830 . S
C392 C310 1.830 . S
C394 C476 1.830 . S
C478 C308 1.829 . S
C739 C574 1.829 . S
C658 C571 1.829 . S
C655 C742 1.830 . S
C907 C826 1.829 . S
C991 C910 1.830 . S
C823 C994 1.829 . S
C1066 C1232 1.830 . S
C1150 C1064 1.830 . S
C1234 C1148 1.830 . S
C1400 C1318 1.830 . S
C1402 C1484 1.830 . S
C1486 C1316 1.830 1_545 S
C1747 C1582 1.830 1_565 S
C1579 C1666 1.830 . S
C1750 C1663 1.830 . S
C1915 C1834 1.830 . S
C1918 C1999 1.830 . S
C2002 C1831 1.829 . S
C2074 C2240 1.830 . S
C2072 C2158 1.830 1_655 S
C2156 C2242 1.830 . S
C2408 C2326 1.830 . S
C2410 C2492 1.830 . S
C2494 C2324 1.830 . S
C2755 C2590 1.830 . S
C2587 C2674 1.829 . S
C2758 C2671 1.830 . S
C2923 C2842 1.830 1_655 S
C2926 C3007 1.830 . S
C3010 C2839 1.830 . S
