# Generated by pormake.
# Topology ung, (4)-cn, num edge types: 1
# Building blocks:
#     Node 0, Type 0, BuildingBlock: KUFVIS_clean_sbu_0, # of connection points: 4
#     Node 1, Type 0, BuildingBlock: KUFVIS_clean_sbu_0, # of connection points: 4
#     Node 2, Type 0, BuildingBlock: KUFVIS_clean_sbu_0, # of connection points: 4
#     Node 3, Type 0, BuildingBlock: KUFVIS_clean_sbu_0, # of connection points: 4
#     Node 4, Type 0, BuildingBlock: KUFVIS_clean_sbu_0, # of connection points: 4
#     Node 5, Type 0, BuildingBlock: KUFVIS_clean_sbu_0, # of connection points: 4
#     Node 6, Type 0, BuildingBlock: KUFVIS_clean_sbu_0, # of connection points: 4
#     Node 7, Type 0, BuildingBlock: KUFVIS_clean_sbu_0, # of connection points: 4
#     Node 8, Type 0, BuildingBlock: KUFVIS_clean_sbu_0, # of connection points: 4
#     Node 9, Type 0, BuildingBlock: KUFVIS_clean_sbu_0, # of connection points: 4
#     Node 10, Type 0, BuildingBlock: KUFVIS_clean_sbu_0, # of connection points: 4
#     Node 11, Type 0, BuildingBlock: KUFVIS_clean_sbu_0, # of connection points: 4
#     Node 12, Type 0, BuildingBlock: KUFVIS_clean_sbu_0, # of connection points: 4
#     Node 13, Type 0, BuildingBlock: KUFVIS_clean_sbu_0, # of connection points: 4
#     Node 14, Type 0, BuildingBlock: KUFVIS_clean_sbu_0, # of connection points: 4
#     Node 15, Type 0, BuildingBlock: KUFVIS_clean_sbu_0, # of connection points: 4
#     Node 16, Type 0, BuildingBlock: KUFVIS_clean_sbu_0, # of connection points: 4
#     Node 17, Type 0, BuildingBlock: KUFVIS_clean_sbu_0, # of connection points: 4
#     Edge 18, Type (0, 0), BuildingBlock: TEMPAE_clean_linker_10, # of connection points: 2
#     Edge 19, Type (0, 0), BuildingBlock: TEMPAE_clean_linker_10, # of connection points: 2
#     Edge 20, Type (0, 0), BuildingBlock: TEMPAE_clean_linker_10, # of connection points: 2
#     Edge 21, Type (0, 0), BuildingBlock: TEMPAE_clean_linker_10, # of connection points: 2
#     Edge 22, Type (0, 0), BuildingBlock: TEMPAE_clean_linker_10, # of connection points: 2
#     Edge 23, Type (0, 0), BuildingBlock: TEMPAE_clean_linker_10, # of connection points: 2
#     Edge 24, Type (0, 0), BuildingBlock: TEMPAE_clean_linker_10, # of connection points: 2
#     Edge 25, Type (0, 0), BuildingBlock: TEMPAE_clean_linker_10, # of connection points: 2
#     Edge 26, Type (0, 0), BuildingBlock: TEMPAE_clean_linker_10, # of connection points: 2
#     Edge 27, Type (0, 0), BuildingBlock: TEMPAE_clean_linker_10, # of connection points: 2
#     Edge 28, Type (0, 0), BuildingBlock: TEMPAE_clean_linker_10, # of connection points: 2
#     Edge 29, Type (0, 0), BuildingBlock: TEMPAE_clean_linker_10, # of connection points: 2
#     Edge 30, Type (0, 0), BuildingBlock: TEMPAE_clean_linker_10, # of connection points: 2
#     Edge 31, Type (0, 0), BuildingBlock: TEMPAE_clean_linker_10, # of connection points: 2
#     Edge 32, Type (0, 0), BuildingBlock: TEMPAE_clean_linker_10, # of connection points: 2
#     Edge 33, Type (0, 0), BuildingBlock: TEMPAE_clean_linker_10, # of connection points: 2
#     Edge 34, Type (0, 0), BuildingBlock: TEMPAE_clean_linker_10, # of connection points: 2
#     Edge 35, Type (0, 0), BuildingBlock: TEMPAE_clean_linker_10, # of connection points: 2
#     Edge 36, Type (0, 0), BuildingBlock: TEMPAE_clean_linker_10, # of connection points: 2
#     Edge 37, Type (0, 0), BuildingBlock: TEMPAE_clean_linker_10, # of connection points: 2
#     Edge 38, Type (0, 0), BuildingBlock: TEMPAE_clean_linker_10, # of connection points: 2
#     Edge 39, Type (0, 0), BuildingBlock: TEMPAE_clean_linker_10, # of connection points: 2
#     Edge 40, Type (0, 0), BuildingBlock: TEMPAE_clean_linker_10, # of connection points: 2
#     Edge 41, Type (0, 0), BuildingBlock: TEMPAE_clean_linker_10, # of connection points: 2
#     Edge 42, Type (0, 0), BuildingBlock: TEMPAE_clean_linker_10, # of connection points: 2
#     Edge 43, Type (0, 0), BuildingBlock: TEMPAE_clean_linker_10, # of connection points: 2
#     Edge 44, Type (0, 0), BuildingBlock: TEMPAE_clean_linker_10, # of connection points: 2
#     Edge 45, Type (0, 0), BuildingBlock: TEMPAE_clean_linker_10, # of connection points: 2
#     Edge 46, Type (0, 0), BuildingBlock: TEMPAE_clean_linker_10, # of connection points: 2
#     Edge 47, Type (0, 0), BuildingBlock: TEMPAE_clean_linker_10, # of connection points: 2
#     Edge 48, Type (0, 0), BuildingBlock: TEMPAE_clean_linker_10, # of connection points: 2
#     Edge 49, Type (0, 0), BuildingBlock: TEMPAE_clean_linker_10, # of connection points: 2
#     Edge 50, Type (0, 0), BuildingBlock: TEMPAE_clean_linker_10, # of connection points: 2
#     Edge 51, Type (0, 0), BuildingBlock: TEMPAE_clean_linker_10, # of connection points: 2
#     Edge 52, Type (0, 0), BuildingBlock: TEMPAE_clean_linker_10, # of connection points: 2
#     Edge 53, Type (0, 0), BuildingBlock: TEMPAE_clean_linker_10, # of connection points: 2
# Relax obj value: 0.111
# Max RMSD: 0.233
# Mean RMSD: 0.223
data_MOF--net-ung--node1-KUFVIS_clean_sbu_0--edge1-TEMPAE_clean_linker_10
_symmetry_space_group_name_H-M    P1
_symmetry_Int_Tables_number       1
_symmetry_cell_setting            triclinic
loop_
_symmetry_equiv_pos_as_xyz
'x, y, z'
_cell_length_a     72.577247
_cell_length_b     73.938023
_cell_length_c     22.400598
_cell_angle_alpha  89.961433
_cell_angle_beta   89.354107
_cell_angle_gamma 120.62808
loop_
_atom_site_label
_atom_site_type_symbol
_atom_site_fract_x
_atom_site_fract_y
_atom_site_fract_z
_atom_type_partial_charge
Mn0 Mn 0.06609 0.63388 0.25757 0.0
Mn1 Mn 0.01385 0.5962 0.26172 0.0
C2 C 0.04182 0.63939 0.20849 0.0
C3 C 0.09402 0.66219 0.30595 0.0
C4 C 0.04686 0.59448 0.18144 0.0
O5 O 0.06448 0.61409 0.32215 0.0
O6 O 0.02892 0.59171 0.32889 0.0
C7 C 0.00154 0.60872 0.37378 0.0
N8 N -0.00121 0.60472 0.31422 0.0
C9 C 0.97056 0.61272 0.31164 0.0
C10 C 0.97297 0.61677 0.37307 0.0
C11 C 0.98856 0.6148 0.40423 0.0
C12 C 0.9839 0.60665 0.28374 0.0
H13 H 0.01359 0.60733 0.39777 0.0
C14 C 0.04812 0.59853 0.34624 0.0
O15 O 0.0979 0.65166 0.26633 0.0
O16 O 0.07418 0.65627 0.31695 0.0
N17 N 0.9972 0.59842 0.1996 0.0
C18 C 0.99741 0.59461 0.14014 0.0
C19 C 0.98309 0.59637 0.10232 0.0
C20 C 0.96854 0.60176 0.12611 0.0
C21 C 0.96836 0.60522 0.18759 0.0
C22 C 0.98292 0.60312 0.22313 0.0
H23 H 0.00854 0.59045 0.1216 0.0
O24 O 0.06212 0.65093 0.1965 0.0
O25 O 0.03638 0.62562 0.25141 0.0
O26 O 0.06284 0.61257 0.19374 0.0
O27 O 0.02831 0.58675 0.20581 0.0
C28 C 0.95452 0.61097 0.21489 0.0
C29 C 0.95565 0.61477 0.27684 0.0
H30 H 0.96306 0.62156 0.39667 0.0
H31 H 0.9906 0.61801 0.45158 0.0
H32 H 0.9833 0.59365 0.05493 0.0
H33 H 0.9576 0.6032 0.09675 0.0
H34 H 0.9431 0.61274 0.18857 0.0
H35 H 0.94512 0.61944 0.29717 0.0
Mn36 Mn 0.50352 0.49358 0.23937 0.0
Mn37 Mn 0.49343 0.53328 0.24538 0.0
C38 C 0.4762 0.49047 0.29941 0.0
C39 C 0.49799 0.46367 0.1898 0.0
C40 C 0.53035 0.53375 0.309 0.0
O41 O 0.52025 0.51197 0.1688 0.0
O42 O 0.50942 0.53564 0.1706 0.0
C43 C 0.46337 0.521 0.14482 0.0
N44 N 0.46774 0.52576 0.20359 0.0
C45 C 0.43301 0.52151 0.22182 0.0
C46 C 0.42817 0.51669 0.16139 0.0
C47 C 0.4434 0.51636 0.12278 0.0
C48 C 0.45315 0.52595 0.24123 0.0
H49 H 0.47505 0.52074 0.11508 0.0
C50 C 0.51982 0.52767 0.14703 0.0
O51 O 0.51457 0.4741 0.22361 0.0
O52 O 0.48498 0.47068 0.1849 0.0
N53 N 0.47802 0.53298 0.31559 0.0
C54 C 0.48479 0.53684 0.37314 0.0
C55 C 0.47124 0.53722 0.41775 0.0
C56 C 0.45102 0.53389 0.4026 0.0
C57 C 0.44446 0.53008 0.343 0.0
C58 C 0.45866 0.52993 0.30048 0.0
H59 H 0.50039 0.53958 0.38496 0.0
O60 O 0.48394 0.47828 0.30759 0.0
O61 O 0.48414 0.50359 0.25477 0.0
O62 O 0.52576 0.51503 0.29679 0.0
O63 O 0.51977 0.54208 0.29032 0.0
C64 C 0.42435 0.5263 0.32415 0.0
C65 C 0.41856 0.52186 0.2637 0.0
H66 H 0.41278 0.51307 0.14424 0.0
H67 H 0.43974 0.51255 0.07615 0.0
H68 H 0.47641 0.54015 0.46365 0.0
H69 H 0.44066 0.53427 0.43711 0.0
H70 H 0.41315 0.52662 0.35583 0.0
H71 H 0.40291 0.51862 0.24996 0.0
Mn72 Mn 0.64303 0.05297 0.2039 0.0
Mn73 Mn 0.64893 0.09956 0.16152 0.0
C74 C 0.67287 0.07638 0.15072 0.0
C75 C 0.64717 0.03282 0.27654 0.0
C76 C 0.62145 0.05909 0.09554 0.0
O77 O 0.62147 0.05503 0.25504 0.0
O78 O 0.62566 0.08587 0.22369 0.0
C79 C 0.66522 0.12196 0.2758 0.0
N80 N 0.66764 0.12081 0.21579 0.0
C81 C 0.7006 0.15417 0.21459 0.0
C82 C 0.69838 0.15578 0.27631 0.0
C83 C 0.68065 0.13956 0.30706 0.0
C84 C 0.68469 0.13627 0.18582 0.0
H85 H 0.65163 0.10954 0.29963 0.0
C86 C 0.61669 0.0693 0.2566 0.0
O87 O 0.63287 0.02399 0.23524 0.0
O88 O 0.65875 0.05315 0.27552 0.0
N89 N 0.67078 0.11495 0.1025 0.0
C90 C 0.6713 0.11035 0.04385 0.0
C91 C 0.68856 0.12449 0.00734 0.0
C92 C 0.7049 0.14339 0.03121 0.0
C93 C 0.70386 0.14795 0.09147 0.0
C94 C 0.6863 0.13322 0.12573 0.0
H95 H 0.65874 0.09593 0.02523 0.0
O96 O 0.66686 0.05657 0.15261 0.0
O97 O 0.66146 0.08221 0.18176 0.0
O98 O 0.62407 0.04691 0.13031 0.0
O99 O 0.63009 0.07888 0.10269 0.0
C100 C 0.71978 0.16634 0.11916 0.0
C101 C 0.71815 0.16944 0.18069 0.0
H102 H 0.71028 0.16929 0.30063 0.0
H103 H 0.67889 0.14064 0.35475 0.0
H104 H 0.68924 0.12085 0.96087 0.0
H105 H 0.7182 0.15424 0.00293 0.0
H106 H 0.73355 0.178 0.09379 0.0
H107 H 0.73069 0.18347 0.2017 0.0
Mn108 Mn 0.06166 0.48596 0.76303 0.0
Mn109 Mn 0.01183 0.47685 0.73931 0.0
C110 C 0.03879 0.45779 0.70547 0.0
C111 C 0.08489 0.48229 0.82575 0.0
C112 C 0.05174 0.51147 0.67765 0.0
O113 O 0.05794 0.50399 0.82383 0.0
O114 O 0.02302 0.49346 0.81398 0.0
C115 C 0.98798 0.44916 0.84179 0.0
N116 N 0.99055 0.45263 0.78178 0.0
C117 C 0.95818 0.41992 0.76244 0.0
C118 C 0.95513 0.41601 0.82409 0.0
C119 C 0.97014 0.43066 0.8639 0.0
C120 C 0.97624 0.43863 0.74306 0.0
H121 H -0.00057 0.46047 0.87244 0.0
C122 C 0.0411 0.50405 0.84002 0.0
O123 O 0.09204 0.49756 0.78701 0.0
O124 O 0.06439 0.46929 0.82775 0.0
N125 N -0.00085 0.461 0.66865 0.0
C126 C 0.00561 0.46619 0.61066 0.0
C127 C 0.9932 0.45247 0.56512 0.0
C128 C 0.97415 0.43372 0.5796 0.0
C129 C 0.96775 0.42881 0.63958 0.0
C130 C 0.98084 0.44303 0.68307 0.0
H131 H 0.02019 0.48061 0.59929 0.0
O132 O 0.0593 0.46524 0.70328 0.0
O133 O 0.03206 0.4666 0.7435 0.0
O134 O 0.06512 0.5065 0.69635 0.0
O135 O 0.03202 0.50192 0.69296 0.0
C136 C 0.94915 0.41015 0.65802 0.0
C137 C 0.94432 0.40575 0.71942 0.0
H138 H 0.94144 0.40172 0.84131 0.0
H139 H 0.96793 0.42771 0.91152 0.0
H140 H -0.00172 0.45634 0.51895 0.0
H141 H 0.96466 0.42315 0.54436 0.0
H142 H 0.93869 0.39888 0.62542 0.0
H143 H 0.93021 0.39115 0.73305 0.0
Mn144 Mn 0.64901 0.64262 0.7351 0.0
Mn145 Mn 0.60791 0.65153 0.74205 0.0
C146 C 0.65137 0.66862 0.7964 0.0
C147 C 0.67948 0.64802 0.6847 0.0
C148 C 0.60783 0.61519 0.805 0.0
O149 O 0.63092 0.62676 0.66463 0.0
O150 O 0.6059 0.63615 0.66707 0.0
C151 C 0.62054 0.68146 0.64091 0.0
N152 N 0.61551 0.6769 0.69985 0.0
C153 C 0.6201 0.71102 0.71796 0.0
C154 C 0.62518 0.71605 0.65734 0.0
C155 C 0.62546 0.70122 0.6187 0.0
C156 C 0.61531 0.69108 0.73749 0.0
H157 H 0.62084 0.67012 0.61117 0.0
C158 C 0.61466 0.62656 0.64322 0.0
O159 O 0.66841 0.63145 0.71815 0.0
O160 O 0.67289 0.66131 0.6813 0.0
N161 N 0.60767 0.66622 0.81208 0.0
C162 C 0.60343 0.65925 0.86975 0.0
C163 C 0.60309 0.67241 0.91439 0.0
C164 C 0.60686 0.69246 0.89919 0.0
C165 C 0.61094 0.69919 0.83945 0.0
C166 C 0.61099 0.68536 0.79687 0.0
H167 H 0.60046 0.64382 0.88165 0.0
O168 O 0.66395 0.66113 0.80378 0.0
O169 O 0.63837 0.66123 0.75151 0.0
O170 O 0.62698 0.62016 0.7916 0.0
O171 O 0.59905 0.62546 0.78754 0.0
C172 C 0.61521 0.71916 0.82055 0.0
C173 C 0.61988 0.7251 0.75991 0.0
H174 H 0.62906 0.73129 0.64008 0.0
H175 H 0.62948 0.70502 0.57192 0.0
H176 H 0.59993 0.66711 0.9604 0.0
H177 H 0.60662 0.70257 0.93377 0.0
H178 H 0.61513 0.73014 0.85236 0.0
H179 H 0.62346 0.74062 0.7461 0.0
Mn180 Mn 0.50092 0.05609 0.69816 0.0
Mn181 Mn 0.48794 0.00545 0.6862 0.0
C182 C 0.47496 0.03145 0.75972 0.0
C183 C 0.49666 0.08271 0.65773 0.0
C184 C 0.52658 0.03824 0.75409 0.0
O185 O 0.51562 0.05561 0.62246 0.0
O186 O 0.50346 0.02115 0.61203 0.0
C187 C 0.45648 0.99367 0.58942 0.0
N188 N 0.46126 0.99054 0.64571 0.0
C189 C 0.42494 0.96277 0.66396 0.0
C190 C 0.41967 0.96557 0.60601 0.0
C191 C 0.43551 0.98111 0.56862 0.0
C192 C 0.44612 0.9757 0.68215 0.0
H193 H 0.46855 0.00574 0.56075 0.0
C194 C 0.5141 0.04022 0.59334 0.0
O195 O 0.5136 0.08723 0.68834 0.0
O196 O 0.48232 0.06303 0.65248 0.0
N197 N 0.47278 0.98804 0.75365 0.0
C198 C 0.48052 0.9872 0.80813 0.0
C199 C 0.46668 0.9725 0.85091 0.0
C200 C 0.44513 0.95863 0.83698 0.0
C201 C 0.43769 0.95935 0.78004 0.0
C202 C 0.45229 0.97419 0.73902 0.0
H203 H 0.49705 0.99783 0.81919 0.0
O204 O 0.48345 0.05129 0.77131 0.0
O205 O 0.48081 0.02666 0.70982 0.0
O206 O 0.52329 0.05357 0.7469 0.0
O207 O 0.51502 0.02009 0.73067 0.0
C208 C 0.41633 0.94607 0.76256 0.0
C209 C 0.40994 0.94782 0.70462 0.0
H210 H 0.40349 0.95598 0.58988 0.0
H211 H 0.43154 0.98345 0.52395 0.0
H212 H 0.47257 0.97196 0.89463 0.0
H213 H 0.43446 0.94744 0.87026 0.0
H214 H 0.40465 0.93454 0.79344 0.0
H215 H 0.39343 0.93763 0.69187 0.0
Mn216 Mn 0.73695 0.96955 0.58081 0.0
Mn217 Mn 0.68733 0.92688 0.5819 0.0
C218 C 0.70999 0.972 0.53642 0.0
C219 C 0.7629 0.99764 0.63529 0.0
C220 C 0.72291 0.93279 0.49711 0.0
O221 O 0.73864 0.94918 0.6373 0.0
O222 O 0.70389 0.92451 0.64912 0.0
C223 C 0.67135 0.93479 0.69519 0.0
N224 N 0.66934 0.93136 0.63527 0.0
C225 C 0.63752 0.93378 0.63353 0.0
C226 C 0.63914 0.93716 0.69533 0.0
C227 C 0.65615 0.93771 0.72625 0.0
C228 C 0.65315 0.93098 0.605 0.0
H229 H 0.68448 0.93536 0.71903 0.0
C230 C 0.72367 0.93281 0.66268 0.0
O231 O 0.76822 0.98973 0.59115 0.0
O232 O 0.74262 0.98938 0.64683 0.0
N233 N 0.66928 0.92674 0.52003 0.0
C234 C 0.67013 0.92352 0.4604 0.0
C235 C 0.65429 0.92262 0.42301 0.0
C236 C 0.63756 0.9247 0.44739 0.0
C237 C 0.6368 0.92764 0.50898 0.0
C238 C 0.65294 0.92824 0.54411 0.0
H239 H 0.68284 0.92174 0.44137 0.0
O240 O 0.72986 0.98637 0.52714 0.0
O241 O 0.70644 0.95741 0.57533 0.0
O242 O 0.73648 0.95183 0.51023 0.0
O243 O 0.70494 0.92154 0.5243 0.0
C244 C 0.62076 0.93015 0.53684 0.0
C245 C 0.62117 0.93331 0.59904 0.0
H246 H 0.62748 0.93946 0.71943 0.0
H247 H 0.65757 0.94043 0.77389 0.0
H248 H 0.65495 0.92028 0.37552 0.0
H249 H 0.62533 0.9239 0.41844 0.0
H250 H 0.60814 0.92988 0.51078 0.0
H251 H 0.60887 0.93544 0.61986 0.0
Mn252 Mn 0.18235 0.82977 0.55935 0.0
Mn253 Mn 0.17738 0.87203 0.58616 0.0
C254 C 0.15845 0.82754 0.6316 0.0
C255 C 0.17315 0.80016 0.5023 0.0
C256 C 0.21498 0.86814 0.62634 0.0
O257 O 0.19647 0.84864 0.48751 0.0
O258 O 0.18825 0.87388 0.50344 0.0
C259 C 0.14338 0.86573 0.5025 0.0
N260 N 0.15092 0.86854 0.55914 0.0
C261 C 0.12148 0.87157 0.59721 0.0
C262 C 0.1134 0.86876 0.53923 0.0
C263 C 0.12433 0.86571 0.49175 0.0
C264 C 0.14048 0.87138 0.60521 0.0
H265 H 0.15192 0.86368 0.46583 0.0
C266 C 0.1959 0.86487 0.47126 0.0
O267 O 0.1911 0.80964 0.53092 0.0
O268 O 0.16067 0.80788 0.50698 0.0
N269 N 0.16686 0.87206 0.66482 0.0
C270 C 0.17577 0.8726 0.7185 0.0
C271 C 0.16588 0.87396 0.77118 0.0
C272 C 0.14715 0.87507 0.76803 0.0
C273 C 0.13838 0.87463 0.7122 0.0
C274 C 0.14882 0.87305 0.66131 0.0
H275 H 0.19026 0.87195 0.72111 0.0
O276 O 0.1653 0.81438 0.63111 0.0
O277 O 0.16541 0.84142 0.58855 0.0
O278 O 0.20785 0.84907 0.61184 0.0
O279 O 0.20516 0.87799 0.61642 0.0
C280 C 0.11957 0.87545 0.70505 0.0
C281 C 0.11118 0.87404 0.64757 0.0
H282 H 0.0987 0.86869 0.53078 0.0
H283 H 0.11816 0.86347 0.44692 0.0
H284 H 0.17274 0.87428 0.81408 0.0
H285 H 0.13958 0.87615 0.80875 0.0
H286 H 0.11126 0.87689 0.74352 0.0
H287 H 0.0965 0.87433 0.64277 0.0
Mn288 Mn 0.31084 0.39664 0.59019 0.0
Mn289 Mn 0.26648 0.35012 0.62002 0.0
C290 C 0.31338 0.37373 0.65432 0.0
C291 C 0.33956 0.41729 0.52732 0.0
C292 C 0.27507 0.39176 0.67011 0.0
O293 O 0.28988 0.39387 0.52719 0.0
O294 O 0.26328 0.36035 0.54061 0.0
C295 C 0.26822 0.32248 0.52751 0.0
N296 N 0.26717 0.32681 0.58606 0.0
C297 C 0.26231 0.29346 0.61699 0.0
C298 C 0.26332 0.2886 0.55697 0.0
C299 C 0.2664 0.30322 0.51208 0.0
C300 C 0.26431 0.31291 0.62963 0.0
H301 H 0.27029 0.33359 0.49296 0.0
C302 C 0.27225 0.37788 0.51193 0.0
O303 O 0.33155 0.42558 0.56249 0.0
O304 O 0.33069 0.39698 0.52836 0.0
N305 N 0.26739 0.33856 0.69556 0.0
C306 C 0.2689 0.34659 0.75123 0.0
C307 C 0.26771 0.33459 0.80134 0.0
C308 C 0.26463 0.31438 0.7937 0.0
C309 C 0.26301 0.30644 0.73594 0.0
C310 C 0.26457 0.3192 0.68771 0.0
H311 H 0.27104 0.36202 0.75736 0.0
O312 O 0.32786 0.39358 0.65319 0.0
O313 O 0.29799 0.36758 0.61565 0.0
O314 O 0.29443 0.40304 0.65287 0.0
O315 O 0.26333 0.37235 0.65786 0.0
C316 C 0.2602 0.28648 0.72429 0.0
C317 C 0.25983 0.27997 0.66486 0.0
H318 H 0.26193 0.27378 0.54488 0.0
H319 H 0.26723 0.2996 0.46568 0.0
H320 H 0.26901 0.34086 0.84575 0.0
H321 H 0.26367 0.30515 0.83246 0.0
H322 H 0.25859 0.27616 0.76076 0.0
H323 H 0.25811 0.26476 0.65652 0.0
Mn324 Mn 0.75005 0.832 0.0743 0.0
Mn325 Mn 0.7995 0.87477 0.08432 0.0
C326 C 0.77475 0.83104 0.13478 0.0
C327 C 0.72635 0.80138 0.02399 0.0
C328 C 0.76166 0.86988 0.15532 0.0
O329 O 0.75118 0.84955 0.00435 0.0
O330 O 0.78355 0.87832 0.01723 0.0
C331 C 0.81599 0.86785 0.97034 0.0
N332 N 0.81763 0.87056 0.03059 0.0
C333 C 0.84894 0.86726 0.03227 0.0
C334 C 0.84768 0.86459 0.97019 0.0
C335 C 0.83111 0.86486 0.93913 0.0
C336 C 0.83345 0.87023 0.06094 0.0
H337 H 0.80322 0.86791 0.94628 0.0
C338 C 0.76576 0.86801 0.98976 0.0
O339 O 0.71934 0.81105 0.05742 0.0
O340 O 0.74691 0.80957 0.02008 0.0
N341 N 0.81719 0.87412 0.14614 0.0
C342 C 0.81597 0.87657 0.20608 0.0
C343 C 0.83131 0.87652 0.24365 0.0
C344 C 0.84788 0.87422 0.21919 0.0
C345 C 0.84902 0.87206 0.15731 0.0
C346 C 0.83338 0.87239 0.12203 0.0
H347 H 0.80314 0.87808 0.22522 0.0
O348 O 0.75449 0.81764 0.14219 0.0
O349 O 0.78018 0.84422 0.09013 0.0
O350 O 0.74765 0.85242 0.13223 0.0
O351 O 0.78161 0.87942 0.14164 0.0
C352 C 0.8649 0.86931 0.12934 0.0
C353 C 0.86483 0.86686 0.06688 0.0
H354 H 0.85927 0.86221 0.94597 0.0
H355 H 0.82997 0.86271 0.89125 0.0
H356 H 0.83027 0.87813 0.2914 0.0
H357 H 0.85963 0.87411 0.24832 0.0
H358 H 0.87711 0.86884 0.15552 0.0
H359 H 0.877 0.86456 0.04594 0.0
Mn360 Mn 0.32013 0.97471 0.06298 0.0
Mn361 Mn 0.28015 0.98468 0.04469 0.0
C362 C 0.31816 0.99852 0.12478 0.0
C363 C 0.35324 0.9811 0.02999 0.0
C364 C 0.2747 0.94675 0.11212 0.0
O365 O 0.30784 0.96139 0.98381 0.0
O366 O 0.28237 0.96969 0.9736 0.0
C367 C 0.30167 0.01576 0.94711 0.0
N368 N 0.29239 0.01084 0.00247 0.0
C369 C 0.29953 0.04609 0.01654 0.0
C370 C 0.30906 0.05151 0.95955 0.0
C371 C 0.3102 0.03629 0.92478 0.0
C372 C 0.29164 0.02548 0.0368 0.0
H373 H 0.30264 0.00413 0.92033 0.0
C374 C 0.29274 0.96103 0.95494 0.0
O375 O 0.34001 0.96355 0.05715 0.0
O376 O 0.34736 0.99485 0.02395 0.0
N377 N 0.2753 -0.00103 0.10852 0.0
C378 C 0.26288 0.99036 0.15841 0.0
C379 C 0.2589 0.00308 0.19659 0.0
C380 C 0.26727 0.02439 0.18234 0.0
C381 C 0.27896 0.0326 0.12903 0.0
C382 C 0.28223 0.01909 0.09251 0.0
H383 H 0.25611 0.9739 0.16909 0.0
O384 O 0.3298 0.99049 0.13878 0.0
O385 O 0.30891 0.99317 0.07299 0.0
O386 O 0.29402 0.95096 0.10546 0.0
O387 O 0.26755 0.95806 0.09071 0.0
C388 C 0.28675 0.05341 0.10959 0.0
C389 C 0.29728 0.06024 0.05371 0.0
H390 H 0.31549 0.06728 0.94195 0.0
H391 H 0.31759 0.04037 0.88081 0.0
H392 H 0.2494 0.99648 0.23689 0.0
H393 H 0.26422 0.03418 0.21197 0.0
H394 H 0.2845 0.06423 0.13694 0.0
H395 H 0.30318 0.07627 0.03922 0.0
Mn396 Mn 0.1615 0.39479 0.09401 0.0
Mn397 Mn 0.1555 0.34649 0.08988 0.0
C398 C 0.13334 0.36771 0.14475 0.0
C399 C 0.15582 0.4191 0.04438 0.0
C400 C 0.18786 0.38185 0.16754 0.0
O401 O 0.18197 0.39711 0.02879 0.0
O402 O 0.17341 0.3634 0.02073 0.0
C403 C 0.12942 0.3308 0.98097 0.0
N404 N 0.13198 0.32863 0.04016 0.0
C405 C 0.09815 0.29622 0.0462 0.0
C406 C 0.09519 0.29802 0.98519 0.0
C407 C 0.11087 0.31543 0.9525 0.0
C408 C 0.11694 0.31205 0.07214 0.0
H409 H 0.14144 0.34418 0.95578 0.0
C410 C 0.18371 0.38265 0.00356 0.0
O411 O 0.17091 0.42525 0.0836 0.0
O412 O 0.14415 0.39911 0.03508 0.0
N413 N 0.1386 0.32822 0.15398 0.0
C414 C 0.14357 0.32922 0.21284 0.0
C415 C 0.12936 0.31318 0.252 0.0
C416 C 0.11039 0.29614 0.23011 0.0
C417 C 0.10574 0.29532 0.16925 0.0
C418 C 0.12055 0.31172 0.13231 0.0
H419 H 0.15821 0.34219 0.22984 0.0
O420 O 0.13898 0.38705 0.15604 0.0
O421 O 0.1436 0.36474 0.10147 0.0
O422 O 0.18213 0.39529 0.15698 0.0
O423 O 0.17956 0.36382 0.14288 0.0
C424 C 0.08692 0.27899 0.14386 0.0
C425 C 0.08308 0.27948 0.08243 0.0
H426 H 0.08089 0.28622 0.96309 0.0
H427 H 0.10866 0.31698 0.90546 0.0
H428 H 0.13306 0.31391 0.29892 0.0
H429 H 0.09954 0.28376 0.26042 0.0
H430 H 0.07517 0.26608 0.17128 0.0
H431 H 0.06841 0.26698 0.06361 0.0
Mn432 Mn 0.39744 0.29607 0.94261 0.0
Mn433 Mn 0.34747 0.25586 0.91698 0.0
C434 C 0.37578 0.30149 0.87971 0.0
C435 C 0.42106 0.32382 0.0023 0.0
C436 C 0.38759 0.25932 0.86274 0.0
O437 O 0.3922 0.27493 0.0077 0.0
O438 O 0.35722 0.2511 0.99507 0.0
C439 C 0.32232 0.26125 0.01284 0.0
N440 N 0.3258 0.25958 0.95381 0.0
C441 C 0.29329 0.25861 0.92707 0.0
C442 C 0.28932 0.2603 0.98764 0.0
C443 C 0.30396 0.26175 0.03066 0.0
C444 C 0.3119 0.25832 0.91202 0.0
H445 H 0.33341 0.26206 0.04598 0.0
C446 C 0.3748 0.25851 0.02368 0.0
O447 O 0.42773 0.31432 0.96716 0.0
O448 O 0.40066 0.31698 0.0033 0.0
N449 N 0.33609 0.25839 0.84294 0.0
C450 C 0.34343 0.25898 0.7863 0.0
C451 C 0.33146 0.25914 0.73772 0.0
C452 C 0.31191 0.25832 0.74788 0.0
C453 C 0.30467 0.25765 0.8066 0.0
C454 C 0.31741 0.25779 0.8532 0.0
H455 H 0.35832 0.25936 0.77828 0.0
O456 O 0.39642 0.3139 0.87859 0.0
O457 O 0.36815 0.28637 0.91951 0.0
O458 O 0.401 0.27777 0.88032 0.0
O459 O 0.36774 0.24973 0.87622 0.0
C460 C 0.28545 0.25713 0.82075 0.0
C461 C 0.27975 0.25761 0.88094 0.0
H462 H 0.27518 0.26068 0.00157 0.0
H463 H 0.30102 0.2631 0.07745 0.0
H464 H 0.33719 0.25973 0.69255 0.0
H465 H 0.30266 0.25835 0.71029 0.0
H466 H 0.27512 0.25665 0.7856 0.0
H467 H 0.26515 0.25767 0.89117 0.0
Mn468 Mn 0.85345 0.14159 0.97735 0.0
Mn469 Mn 0.8536 0.18551 0.01949 0.0
C470 C 0.82294 0.13872 0.01895 0.0
C471 C 0.84883 0.11852 0.90045 0.0
C472 C 0.87403 0.16547 0.09018 0.0
O473 O 0.88038 0.16498 0.93859 0.0
O474 O 0.87662 0.19273 0.95912 0.0
C475 C 0.84091 0.19658 0.90638 0.0
N476 N 0.83758 0.19213 0.96587 0.0
C477 C 0.80858 0.19905 0.9685 0.0
C478 C 0.81173 0.20378 0.90726 0.0
C479 C 0.82791 0.20245 0.87603 0.0
C480 C 0.82197 0.1932 0.99625 0.0
H481 H 0.85345 0.19573 0.88243 0.0
C482 C 0.88643 0.18439 0.93395 0.0
O483 O 0.85991 0.11989 0.94726 0.0
O484 O 0.84098 0.13077 0.8982 0.0
N485 N 0.83223 0.18106 0.07789 0.0
C486 C 0.83045 0.17473 0.13587 0.0
C487 C 0.81455 0.17441 0.17288 0.0
C488 C 0.80088 0.18093 0.15019 0.0
C489 C 0.80307 0.18748 0.09046 0.0
C490 C 0.81921 0.18744 0.0557 0.0
H491 H 0.84111 0.17 0.15377 0.0
O492 O 0.82545 0.12258 0.01627 0.0
O493 O 0.83805 0.15606 0.99466 0.0
O494 O 0.8681 0.14902 0.05893 0.0
O495 O 0.87004 0.17993 0.07768 0.0
C496 C 0.78977 0.19385 0.06389 0.0
C497 C 0.7925 0.19961 0.00292 0.0
H498 H 0.80174 0.20831 0.88369 0.0
H499 H 0.8304 0.20603 0.82874 0.0
H500 H 0.81295 0.16932 0.21893 0.0
H501 H 0.78876 0.18083 0.17905 0.0
H502 H 0.77715 0.19405 0.08966 0.0
H503 H 0.78192 0.20412 0.98274 0.0
Mn504 Mn 0.99187 0.74598 0.92244 0.0
Mn505 Mn 0.00346 0.79546 0.89241 0.0
C506 C 0.02122 0.7671 0.86395 0.0
C507 C 0.99385 0.72197 0.98497 0.0
C508 C 0.97062 0.75795 0.82432 0.0
O509 O 0.97447 0.75044 0.98369 0.0
O510 O 0.98102 0.78249 0.95706 0.0
C511 C 0.02349 0.81386 0.00829 0.0
N512 N 0.02434 0.81422 0.94751 0.0
C513 C 0.05763 0.84724 0.94659 0.0
C514 C 0.05706 0.8473 0.00919 0.0
C515 C 0.03999 0.83045 0.04016 0.0
C516 C 0.04086 0.83017 0.91732 0.0
H517 H 0.01027 0.80106 0.03222 0.0
C518 C 0.97166 0.76589 0.98959 0.0
O519 O 0.97827 0.71592 0.94751 0.0
O520 O 0.00803 0.74186 0.98605 0.0
N521 N 0.02464 0.81088 0.83204 0.0
C522 C 0.02378 0.80746 0.77212 0.0
C523 C 0.04002 0.82251 0.73466 0.0
C524 C 0.05678 0.84104 0.75909 0.0
C525 C 0.05743 0.84414 0.82093 0.0
C526 C 0.04085 0.82855 0.85602 0.0
H527 H 0.01087 0.79331 0.75322 0.0
O528 O 0.01205 0.74678 0.86265 0.0
O529 O 0.0132 0.77497 0.9016 0.0
O530 O 0.97147 0.74399 0.85597 0.0
O531 O 0.98236 0.77765 0.83306 0.0
C532 C 0.07404 0.8619 0.84927 0.0
C533 C 0.07423 0.86338 0.91209 0.0
H534 H 0.0697 0.86012 0.03392 0.0
H535 H 0.03947 0.83035 0.08847 0.0
H536 H 0.03956 0.81991 0.68702 0.0
H537 H 0.0692 0.85267 0.73004 0.0
H538 H 0.08698 0.87432 0.82333 0.0
H539 H 0.08733 0.87688 0.93342 0.0
Mn540 Mn 0.40106 0.15394 0.43465 0.0
Mn541 Mn 0.34836 0.13707 0.44781 0.0
C542 C 0.37708 0.12496 0.38164 0.0
C543 C 0.42995 0.15415 0.47897 0.0
C544 C 0.37884 0.1733 0.36702 0.0
O545 O 0.39969 0.17064 0.50391 0.0
O546 O 0.3642 0.15649 0.51425 0.0
C547 C 0.34134 0.11174 0.55711 0.0
N548 N 0.33648 0.11298 0.49925 0.0
C549 C 0.31129 0.07579 0.49659 0.0
C550 C 0.31591 0.07413 0.55626 0.0
C551 C 0.33105 0.09218 0.58658 0.0
C552 C 0.3223 0.09565 0.46928 0.0
H553 H 0.35304 0.12555 0.58051 0.0
C554 C 0.38342 0.16903 0.53066 0.0
O555 O 0.43308 0.16898 0.44163 0.0
O556 O 0.4104 0.1393 0.48881 0.0
N557 N 0.33018 0.11814 0.38797 0.0
C558 C 0.32511 0.12306 0.33432 0.0
C559 C 0.30921 0.10704 0.29946 0.0
C560 C 0.29832 0.08621 0.32075 0.0
C561 C 0.30281 0.08176 0.37779 0.0
C562 C 0.31867 0.09843 0.41068 0.0
H563 H 0.33321 0.1391 0.31816 0.0
O564 O 0.39737 0.13438 0.36903 0.0
O565 O 0.37161 0.13193 0.42794 0.0
O566 O 0.39568 0.17226 0.37682 0.0
O567 O 0.36056 0.16143 0.39241 0.0
C568 C 0.29155 0.06163 0.4043 0.0
C569 C 0.29597 0.05859 0.46341 0.0
H570 H 0.30787 0.0591 0.5793 0.0
H571 H 0.33476 0.09102 0.63258 0.0
H572 H 0.30536 0.11073 0.25629 0.0
H573 H 0.28612 0.07389 0.29364 0.0
H574 H 0.27918 0.04843 0.38004 0.0
H575 H 0.28715 0.04305 0.48337 0.0
Mn576 Mn 0.97901 0.29041 0.47009 0.0
Mn577 Mn 0.93241 0.28734 0.50664 0.0
C578 C 0.98029 0.31887 0.51508 0.0
C579 C 0.0038 0.29617 0.39566 0.0
C580 C 0.95209 0.2663 0.57685 0.0
O581 O 0.95662 0.26429 0.4296 0.0
O582 O 0.92719 0.26678 0.44156 0.0
C583 C 0.92394 0.30327 0.39535 0.0
N584 N 0.92658 0.30445 0.45556 0.0
C585 C 0.91798 0.33178 0.46285 0.0
C586 C 0.91507 0.33083 0.40089 0.0
C587 C 0.91817 0.31658 0.36697 0.0
C588 C 0.92383 0.31821 0.48855 0.0
H589 H 0.92615 0.29221 0.36933 0.0
C590 C 0.93701 0.25782 0.42049 0.0
O591 O 0.00149 0.28451 0.44184 0.0
O592 O 0.99155 0.30417 0.39267 0.0
N593 N 0.93451 0.30595 0.56895 0.0
C594 C 0.93951 0.30596 0.62741 0.0
C595 C 0.93813 0.31992 0.66711 0.0
C596 C 0.93125 0.33344 0.64656 0.0
C597 C 0.92611 0.33309 0.58626 0.0
C598 C 0.92789 0.31891 0.54873 0.0
H599 H 0.94452 0.29539 0.64361 0.0
O600 O 0.99714 0.31708 0.51156 0.0
O601 O 0.96322 0.30445 0.48795 0.0
O602 O 0.97013 0.27453 0.54964 0.0
O603 O 0.93699 0.26947 0.56229 0.0
C604 C 0.91958 0.34646 0.56172 0.0
C605 C 0.91556 0.34584 0.50002 0.0
H606 H 0.9106 0.34105 0.37884 0.0
H607 H 0.91601 0.3158 0.31912 0.0
H608 H 0.94218 0.32015 0.71355 0.0
H609 H 0.93001 0.34404 0.67744 0.0
H610 H 0.91801 0.35756 0.58968 0.0
H611 H 0.91095 0.35647 0.48148 0.0
Mn612 Mn 0.84088 0.73553 0.41349 0.0
Mn613 Mn 0.837 0.68818 0.40606 0.0
C614 C 0.81383 0.70781 0.46457 0.0
C615 C 0.83379 0.75939 0.36678 0.0
C616 C 0.86828 0.72342 0.48586 0.0
O617 O 0.86115 0.73891 0.34684 0.0
O618 O 0.85475 0.70594 0.33704 0.0
C619 C 0.81115 0.67285 0.2966 0.0
N620 N 0.81362 0.6704 0.35567 0.0
C621 C 0.77909 0.63875 0.36151 0.0
C622 C 0.77626 0.64084 0.3006 0.0
C623 C 0.79236 0.65797 0.26803 0.0
C624 C 0.79823 0.65397 0.38744 0.0
H625 H 0.82338 0.68613 0.27155 0.0
C626 C 0.86386 0.72525 0.3204 0.0
O627 O 0.84941 0.76579 0.40439 0.0
O628 O 0.82252 0.73938 0.35717 0.0
N629 N 0.82021 0.66927 0.46929 0.0
C630 C 0.82517 0.66984 0.52804 0.0
C631 C 0.81051 0.65405 0.56709 0.0
C632 C 0.79101 0.63774 0.54528 0.0
C633 C 0.78648 0.63721 0.48441 0.0
C634 C 0.8018 0.65327 0.4475 0.0
H635 H 0.84007 0.68239 0.54518 0.0
O636 O 0.81878 0.72689 0.47696 0.0
O637 O 0.82406 0.70547 0.41991 0.0
O638 O 0.86209 0.73645 0.47457 0.0
O639 O 0.86084 0.70557 0.46041 0.0
C640 C 0.7672 0.6216 0.45912 0.0
C641 C 0.7635 0.62237 0.39773 0.0
H642 H 0.76171 0.62948 0.2785 0.0
H643 H 0.79023 0.65977 0.2211 0.0
H644 H 0.81415 0.65454 0.61398 0.0
H645 H 0.77962 0.62575 0.57568 0.0
H646 H 0.755 0.60906 0.48662 0.0
H647 H 0.74851 0.61041 0.37894 0.0
C648 C 0.05932 0.52328 0.93264 0.0
C649 C 0.04284 0.51734 0.89132 0.0
C650 C 0.06158 0.53628 0.98086 0.0
C651 C 0.04721 0.54375 0.98736 0.0
C652 C 0.03065 0.53797 0.94556 0.0
C653 C 0.02854 0.52465 0.89826 0.0
C654 C 0.07916 0.54179 0.02524 0.0
C655 C 0.01516 0.54586 0.95082 0.0
C656 C 0.03693 0.55979 0.13859 0.0
C657 C 0.04919 0.58176 0.13473 0.0
C658 C 0.03678 0.54722 0.09172 0.0
C659 C 0.04888 0.55691 0.03927 0.0
C660 C 0.06181 0.5791 0.03574 0.0
C661 C 0.06198 0.59131 0.08396 0.0
C662 C 0.02315 0.5236 0.09764 0.0
C663 C 0.07472 0.58994 0.98014 0.0
H664 H 0.07035 0.51756 0.92768 0.0
H665 H 0.01591 0.52027 0.86613 0.0
H666 H 0.08966 0.5591 0.02802 0.0
H667 H 0.07207 0.53603 0.07035 0.0
H668 H 0.08917 0.53489 0.01329 0.0
H669 H 0.00379 0.54065 0.91315 0.0
H670 H 0.00584 0.54011 0.99317 0.0
H671 H 0.02409 0.56329 0.95216 0.0
H672 H 0.02715 0.5524 0.17813 0.0
H673 H 0.0713 0.60831 0.08077 0.0
H674 H 0.03287 0.51625 0.08764 0.0
H675 H 0.01002 0.5175 0.06479 0.0
H676 H 0.01596 0.51856 0.14303 0.0
H677 H 0.08527 0.58368 0.96796 0.0
H678 H 0.08477 0.60723 0.98568 0.0
H679 H 0.06377 0.5867 0.94225 0.0
C680 C 0.57303 0.58583 0.84241 0.0
C681 C 0.59538 0.5975 0.84627 0.0
C682 C 0.5606 0.5713 0.88701 0.0
C683 C 0.57083 0.56886 0.93714 0.0
C684 C 0.59347 0.57954 0.9392 0.0
C685 C 0.60553 0.59365 0.89322 0.0
C686 C 0.5365 0.55982 0.88263 0.0
C687 C 0.60492 0.57751 0.99233 0.0
C688 C 0.54028 0.5592 0.08242 0.0
C689 C 0.53268 0.53785 0.09288 0.0
C690 C 0.55304 0.56948 0.03234 0.0
C691 C 0.55795 0.558 0.9911 0.0
C692 C 0.55023 0.53639 0.00105 0.0
C693 C 0.53781 0.52657 0.05236 0.0
C694 C 0.56127 0.59266 0.02367 0.0
C695 C 0.55486 0.52366 0.95726 0.0
H696 H 0.56521 0.58861 0.80552 0.0
H697 H 0.62284 0.60272 0.89619 0.0
H698 H 0.52941 0.54304 0.89538 0.0
H699 H 0.53003 0.56688 0.91405 0.0
H700 H 0.53124 0.56072 0.8369 0.0
H701 H 0.6223 0.58429 0.98317 0.0
H702 H 0.60304 0.58591 0.03081 0.0
H703 H 0.59786 0.5608 0.00574 0.0
H704 H 0.53657 0.56803 0.11405 0.0
H705 H 0.53186 0.51002 0.06032 0.0
H706 H 0.55484 0.59523 0.98186 0.0
H707 H 0.57899 0.60144 0.01925 0.0
H708 H 0.55669 0.59943 0.06128 0.0
H709 H 0.54828 0.52389 0.91298 0.0
H710 H 0.54786 0.50705 0.97198 0.0
H711 H 0.5724 0.53072 0.95122 0.0
C712 C 0.58574 0.04045 0.04908 0.0
C713 C 0.60798 0.05039 0.04304 0.0
C714 C 0.57297 0.03676 -0.00123 0.0
C715 C 0.58285 0.04331 0.94165 0.0
C716 C 0.60524 0.05212 0.93526 0.0
C717 C 0.61757 0.0556 0.98627 0.0
C718 C 0.54911 0.0272 0.00725 0.0
C719 C 0.61635 0.05916 0.87516 0.0
C720 C 0.54673 0.02395 0.80705 0.0
C721 C 0.54318 0.04069 0.79671 0.0
C722 C 0.56002 0.02476 0.85318 0.0
C723 C 0.57005 0.04273 0.88972 0.0
C724 C 0.56734 0.06005 0.87796 0.0
C725 C 0.55395 0.05884 0.83156 0.0
C726 C 0.56267 0.00606 0.86419 0.0
C727 C 0.57797 0.0796 0.9158 0.0
H728 H 0.57849 0.03674 0.09335 0.0
H729 H 0.63483 0.06326 0.98204 0.0
H730 H 0.5447 0.03926 -0.00195 0.0
H731 H 0.5403 0.0142 0.97528 0.0
H732 H 0.54371 0.02105 0.05333 0.0
H733 H 0.63339 0.06343 0.87694 0.0
H734 H 0.60806 0.04663 0.84157 0.0
H735 H 0.61575 0.0731 0.85952 0.0
H736 H 0.53859 0.00986 0.78033 0.0
H737 H 0.55137 0.07186 0.82405 0.0
H738 H 0.55534 0.99878 0.90799 0.0
H739 H 0.5799 0.01111 0.86617 0.0
H740 H 0.55506 0.99393 0.82908 0.0
H741 H 0.57189 0.0756 0.96247 0.0
H742 H 0.57499 0.09203 0.89917 0.0
H743 H 0.59552 0.08606 0.91674 0.0
C744 C 0.58439 0.07088 0.28824 0.0
C745 C 0.60064 0.06668 0.30157 0.0
C746 C 0.56815 0.06657 0.33046 0.0
C747 C 0.56873 0.05847 0.38732 0.0
C748 C 0.58549 0.05475 0.40116 0.0
C749 C 0.60108 0.05867 0.35783 0.0
C750 C 0.55024 0.07031 0.31406 0.0
C751 C 0.58703 0.04669 0.46185 0.0
C752 C 0.54297 0.06575 0.52493 0.0
C753 C 0.52626 0.04511 0.53645 0.0
C754 C 0.55618 0.07059 0.47441 0.0
C755 C 0.5524 0.05446 0.43385 0.0
C756 C 0.53474 0.03388 0.44303 0.0
C757 C 0.52197 0.02937 0.49471 0.0
C758 C 0.5751 0.09263 0.46689 0.0
C759 C 0.53 0.01641 0.39987 0.0
H760 H 0.58401 0.07687 0.24436 0.0
H761 H 0.61381 0.05559 0.36808 0.0
H762 H 0.53464 0.0554 0.31825 0.0
H763 H 0.54972 0.08166 0.34534 0.0
H764 H 0.55203 0.07646 0.26779 0.0
H765 H 0.6014 0.04511 0.4656 0.0
H766 H 0.58769 0.05753 0.49712 0.0
H767 H 0.5726 0.03112 0.47084 0.0
H768 H 0.54641 0.07805 0.55686 0.0
H769 H 0.50888 0.01347 0.50289 0.0
H770 H 0.57592 0.09849 0.4208 0.0
H771 H 0.59013 0.09251 0.47446 0.0
H772 H 0.57445 0.10382 0.49869 0.0
H773 H 0.53078 0.02182 0.3532 0.0
H774 H 0.51399 0.00231 0.40832 0.0
H775 H 0.54227 0.01178 0.40418 0.0
C776 C 0.03555 0.56724 0.41308 0.0
C777 C 0.05165 0.58751 0.39598 0.0
C778 C 0.03886 0.5564 0.45908 0.0
C779 C 0.05865 0.56618 0.48924 0.0
C780 C 0.07501 0.5866 0.47217 0.0
C781 C 0.07135 0.597 0.4255 0.0
C782 C 0.02106 0.53453 0.47584 0.0
C783 C 0.09618 0.59758 0.50388 0.0
C784 C 0.05236 0.54348 0.64379 0.0
C785 C 0.05858 0.52864 0.63431 0.0
C786 C 0.05395 0.55706 0.59793 0.0
C787 C 0.06149 0.55534 0.54094 0.0
C788 C 0.06917 0.54132 0.53231 0.0
C789 C 0.06776 0.52815 0.57956 0.0
C790 C 0.04598 0.57207 0.60929 0.0
C791 C 0.07719 0.53897 0.47204 0.0
H792 H 0.02038 0.55971 0.39013 0.0
H793 H 0.08388 0.6127 0.41264 0.0
H794 H 0.02701 0.52338 0.4742 0.0
H795 H 0.01553 0.53443 0.52229 0.0
H796 H 0.0071 0.52874 0.44585 0.0
H797 H 0.1076 0.61308 0.48337 0.0
H798 H 0.09356 0.60003 0.55137 0.0
H799 H 0.1036 0.58767 0.5033 0.0
H800 H 0.04526 0.54376 0.68642 0.0
H801 H 0.07229 0.51642 0.57231 0.0
H802 H 0.03053 0.56636 0.58634 0.0
H803 H 0.05747 0.58789 0.59095 0.0
H804 H 0.04347 0.57354 0.65765 0.0
H805 H 0.06344 0.53074 0.44148 0.0
H806 H 0.08541 0.52978 0.47481 0.0
H807 H 0.08839 0.55458 0.45197 0.0
C808 C 0.58349 0.6069 0.57587 0.0
C809 C 0.60481 0.61364 0.58967 0.0
C810 C 0.57342 0.59335 0.52795 0.0
C811 C 0.58506 0.58664 0.49241 0.0
C812 C 0.60671 0.59369 0.50529 0.0
C813 C 0.6163 0.60702 0.55406 0.0
C814 C 0.55023 0.58604 0.51573 0.0
C815 C 0.61969 0.58715 0.46767 0.0
C816 C 0.54979 0.53758 0.40335 0.0
C817 C 0.5478 0.54644 0.35037 0.0
C818 C 0.56293 0.55048 0.44924 0.0
C819 C 0.57449 0.57259 0.44106 0.0
C820 C 0.57388 0.58139 0.38556 0.0
C821 C 0.56033 0.56819 0.34106 0.0
C822 C 0.56307 0.54056 0.50801 0.0
C823 C 0.58632 0.60484 0.3746 0.0
H824 H 0.57446 0.6118 0.60344 0.0
H825 H 0.63283 0.61224 0.5643 0.0
H826 H 0.54872 0.59113 0.47037 0.0
H827 H 0.54057 0.56861 0.51704 0.0
H828 H 0.54331 0.59229 0.54855 0.0
H829 H 0.63644 0.59425 0.48321 0.0
H830 H 0.61212 0.56979 0.46868 0.0
H831 H 0.62 0.59185 0.42045 0.0
H832 H 0.53992 0.52076 0.41063 0.0
H833 H 0.55884 0.57498 0.29976 0.0
H834 H 0.55422 0.54416 0.54216 0.0
H835 H 0.57969 0.54716 0.52393 0.0
H836 H 0.55544 0.52321 0.50477 0.0
H837 H 0.57894 0.61232 0.40076 0.0
H838 H 0.58651 0.60885 0.32671 0.0
H839 H 0.60308 0.61172 0.38966 0.0
C840 C 0.73345 0.87408 0.20879 0.0
C841 C 0.75485 0.87924 0.20282 0.0
C842 C 0.72709 0.88276 0.25475 0.0
C843 C 0.74237 0.89633 0.29662 0.0
C844 C 0.76393 0.90148 0.29091 0.0
C845 C 0.76996 0.89323 0.24348 0.0
C846 C 0.7041 0.87751 0.25842 0.0
C847 C 0.78061 0.91546 0.3355 0.0
C848 C 0.73501 0.93454 0.39205 0.0
C849 C 0.72767 0.92338 0.44593 0.0
C850 C 0.73885 0.92549 0.34203 0.0
C851 C 0.73601 0.90512 0.34696 0.0
C852 C 0.72858 0.8938 0.40149 0.0
C853 C 0.72411 0.90295 0.45011 0.0
C854 C 0.74612 0.93777 0.28412 0.0
C855 C 0.72603 0.87234 0.40904 0.0
H856 H 0.72174 0.86347 0.17717 0.0
H857 H 0.78655 0.89747 0.23915 0.0
H858 H 0.69661 0.86908 0.30086 0.0
H859 H 0.70344 0.89218 0.25844 0.0
H860 H 0.69446 0.86756 0.2207 0.0
H861 H 0.7965 0.91721 0.32599 0.0
H862 H 0.78246 0.9313 0.33516 0.0
H863 H 0.7754 0.90889 0.38123 0.0
H864 H 0.73732 0.95021 0.38877 0.0
H865 H 0.71837 0.89438 0.49197 0.0
H866 H 0.73593 0.92802 0.24695 0.0
H867 H 0.76279 0.94195 0.27341 0.0
H868 H 0.74551 0.95247 0.28613 0.0
H869 H 0.71502 0.86142 0.37499 0.0
H870 H 0.71972 0.86549 0.45402 0.0
H871 H 0.74175 0.87346 0.4021 0.0
C872 C 0.2041 0.86119 0.36516 0.0
C873 C 0.20482 0.874 0.41225 0.0
C874 C 0.21306 0.86991 0.30918 0.0
C875 C 0.22343 0.89194 0.30112 0.0
C876 C 0.2239 0.90487 0.34837 0.0
C877 C 0.21433 0.89568 0.40322 0.0
C878 C 0.21177 0.85565 0.25914 0.0
C879 C 0.23519 0.92851 0.34173 0.0
C880 C 0.26953 0.92169 0.19369 0.0
C881 C 0.26055 0.92922 0.15252 0.0
C882 C 0.25717 0.90826 0.24035 0.0
C883 C 0.23524 0.9019 0.24509 0.0
C884 C 0.22562 0.9078 0.20051 0.0
C885 C 0.23847 0.92162 0.15492 0.0
C886 C 0.26806 0.90249 0.28747 0.0
C887 C 0.20211 0.90075 0.2033 0.0
H888 H 0.19646 0.84435 0.37204 0.0
H889 H 0.21493 0.90558 0.43976 0.0
H890 H 0.20576 0.85921 0.21807 0.0
H891 H 0.22798 0.85842 0.2486 0.0
H892 H 0.20114 0.83877 0.27077 0.0
H893 H 0.23382 0.93623 0.38268 0.0
H894 H 0.25243 0.93489 0.33157 0.0
H895 H 0.22843 0.93284 0.30391 0.0
H896 H 0.28656 0.92741 0.19206 0.0
H897 H 0.23137 0.92712 0.12264 0.0
H898 H 0.25872 0.8854 0.29744 0.0
H899 H 0.26898 0.91086 0.32945 0.0
H900 H 0.28456 0.90674 0.27379 0.0
H901 H 0.19238 0.88387 0.21576 0.0
H902 H 0.19636 0.90326 0.16005 0.0
H903 H 0.19934 0.90981 0.23806 0.0
C904 C 0.27206 0.39785 0.42191 0.0
C905 C 0.26134 0.3801 0.45937 0.0
C906 C 0.26174 0.40063 0.3733 0.0
C907 C 0.24017 0.38537 0.36205 0.0
C908 C 0.22922 0.36746 0.39967 0.0
C909 C 0.23997 0.36499 0.44774 0.0
C910 C 0.27396 0.41979 0.33367 0.0
C911 C 0.20615 0.35086 0.38898 0.0
C912 C 0.20474 0.39701 0.26552 0.0
C913 C 0.20401 0.38628 0.21329 0.0
C914 C 0.21718 0.3976 0.31391 0.0
C915 C 0.22925 0.38746 0.3092 0.0
C916 C 0.22963 0.37785 0.25502 0.0
C917 C 0.2169 0.37728 0.20784 0.0
C918 C 0.2164 0.40796 0.37115 0.0
C919 C 0.24255 0.36715 0.24792 0.0
H920 H 0.2886 0.40961 0.43039 0.0
H921 H 0.23151 0.35133 0.47663 0.0
H922 H 0.27489 0.41488 0.28747 0.0
H923 H 0.26544 0.42866 0.33167 0.0
H924 H 0.2905 0.43048 0.3495 0.0
H925 H 0.19971 0.33829 0.42367 0.0
H926 H 0.19604 0.35813 0.38829 0.0
H927 H 0.20472 0.34354 0.34475 0.0
H928 H 0.19464 0.40382 0.2699 0.0
H929 H 0.21647 0.36914 0.16716 0.0
H930 H 0.23281 0.41878 0.38735 0.0
H931 H 0.20786 0.39576 0.4062 0.0
H932 H 0.20802 0.41691 0.36566 0.0
H933 H 0.2593 0.37777 0.26197 0.0
H934 H 0.24272 0.36223 0.20117 0.0
H935 H 0.23567 0.353 0.27712 0.0
C936 C 0.20452 0.37423 0.93116 0.0
C937 C 0.19884 0.38854 0.95266 0.0
C938 C 0.21911 0.3796 0.88373 0.0
C939 C 0.2281 0.39974 0.85678 0.0
C940 C 0.22266 0.41437 0.87845 0.0
C941 C 0.20807 0.4086 0.92632 0.0
C942 C 0.22464 0.36356 0.86191 0.0
C943 C 0.23189 0.4359 0.85043 0.0
C944 C 0.27589 0.40999 0.76357 0.0
C945 C 0.26567 0.40052 0.71035 0.0
C946 C 0.26426 0.41204 0.81085 0.0
C947 C 0.24216 0.40459 0.80366 0.0
C948 C 0.23264 0.39755 0.74724 0.0
C949 C 0.24452 0.3954 0.70125 0.0
C950 C 0.27498 0.41977 0.87029 0.0
C951 C 0.20924 0.38983 0.73743 0.0
H952 H 0.19765 0.35879 0.95157 0.0
H953 H 0.20376 0.41977 0.94268 0.0
H954 H 0.21938 0.35926 0.81512 0.0
H955 H 0.24223 0.37029 0.86239 0.0
H956 H 0.21695 0.34899 0.88954 0.0
H957 H 0.22746 0.44606 0.87583 0.0
H958 H 0.2496 0.44383 0.84755 0.0
H959 H 0.22599 0.43436 0.80418 0.0
H960 H 0.29227 0.41385 0.77035 0.0
H961 H 0.23679 0.38822 0.65957 0.0
H962 H 0.2707 0.40606 0.89972 0.0
H963 H 0.26945 0.42955 0.89281 0.0
H964 H 0.2927 0.42907 0.86536 0.0
H965 H 0.1994 0.37395 0.75767 0.0
H966 H 0.20546 0.38877 0.68918 0.0
H967 H 0.20448 0.40033 0.75921 0.0
C968 C 0.74883 0.86579 0.89197 0.0
C969 C 0.76133 0.87807 0.93951 0.0
C970 C 0.74299 0.87464 0.84593 0.0
C971 C 0.7493 0.89616 0.84842 0.0
C972 C 0.76205 0.90868 0.89617 0.0
C973 C 0.76818 0.89952 0.94083 0.0
C974 C 0.72993 0.86092 0.79485 0.0
C975 C 0.76872 0.93159 0.90088 0.0
C976 C 0.74964 0.92413 0.70615 0.0
C977 C 0.72978 0.92301 0.70989 0.0
C978 C 0.75609 0.91527 0.75063 0.0
C979 C 0.74258 0.90554 0.80086 0.0
C980 C 0.72256 0.90449 0.80516 0.0
C981 C 0.71624 0.91299 0.75907 0.0
C982 C 0.77726 0.91616 0.74358 0.0
C983 C 0.70794 0.89461 0.85871 0.0
H984 H 0.74363 0.8492 0.8908 0.0
H985 H 0.77763 0.90896 0.97798 0.0
H986 H 0.71417 0.85993 0.79392 0.0
H987 H 0.73819 0.86796 0.75173 0.0
H988 H 0.72719 0.84474 0.79826 0.0
H989 H 0.77847 0.93909 0.94108 0.0
H990 H 0.77816 0.94033 0.86073 0.0
H991 H 0.75431 0.93315 0.90273 0.0
H992 H 0.76006 0.93171 0.66781 0.0
H993 H 0.70096 0.91226 0.7622 0.0
H994 H 0.77468 0.90003 0.74482 0.0
H995 H 0.78787 0.92491 0.78122 0.0
H996 H 0.78565 0.92388 0.70108 0.0
H997 H 0.7031 0.87779 0.86245 0.0
H998 H 0.69326 0.89571 0.85617 0.0
H999 H 0.71655 0.90243 0.90013 0.0
C1000 C 0.29845 0.94132 0.87272 0.0
C1001 C 0.28578 0.94852 0.89951 0.0
C1002 C 0.29103 0.92773 0.82365 0.0
C1003 C 0.27038 0.921 0.80149 0.0
C1004 C 0.25771 0.92856 0.82751 0.0
C1005 C 0.26563 0.94234 0.87587 0.0
C1006 C 0.30508 0.92024 0.79643 0.0
C1007 C 0.23553 0.92171 0.80515 0.0
C1008 C 0.24906 0.90032 0.64922 0.0
C1009 C 0.23419 0.87928 0.66286 0.0
C1010 C 0.26299 0.91378 0.69268 0.0
C1011 C 0.26157 0.90598 0.75126 0.0
C1012 C 0.24826 0.88419 0.76326 0.0
C1013 C 0.23473 0.87098 0.71848 0.0
C1014 C 0.27734 0.93679 0.67761 0.0
C1015 C 0.24633 0.87526 0.82513 0.0
H1016 H 0.31409 0.94609 0.89056 0.0
H1017 H 0.25569 0.94771 0.89638 0.0
H1018 H 0.29781 0.90314 0.80484 0.0
H1019 H 0.3063 0.92263 0.74732 0.0
H1020 H 0.32147 0.92851 0.81512 0.0
H1021 H 0.22773 0.92897 0.83055 0.0
H1022 H 0.23635 0.92602 0.75734 0.0
H1023 H 0.22521 0.90436 0.80868 0.0
H1024 H 0.24856 0.90666 0.60596 0.0
H1025 H 0.22303 0.85473 0.72904 0.0
H1026 H 0.29314 0.94326 0.69916 0.0
H1027 H 0.26986 0.94568 0.6946 0.0
H1028 H 0.27987 0.93947 0.62863 0.0
H1029 H 0.26228 0.88196 0.8459 0.0
H1030 H 0.23855 0.85785 0.82465 0.0
H1031 H 0.2365 0.87948 0.85368 0.0
C1032 C 0.40465 0.25804 0.76732 0.0
C1033 C 0.39446 0.24847 0.82131 0.0
C1034 C 0.40603 0.24603 0.72084 0.0
C1035 C 0.39733 0.22415 0.72951 0.0
C1036 C 0.38884 0.21493 0.78604 0.0
C1037 C 0.38725 0.22718 0.83108 0.0
C1038 C 0.415 0.25638 0.661 0.0
C1039 C 0.37983 0.19176 0.79752 0.0
C1040 C 0.37128 0.1876 0.59916 0.0
C1041 C 0.38699 0.18289 0.58214 0.0
C1042 C 0.37472 0.20138 0.64624 0.0
C1043 C 0.3942 0.21038 0.6778 0.0
C1044 C 0.41009 0.20558 0.66122 0.0
C1045 C 0.40636 0.192 0.6132 0.0
C1046 C 0.35745 0.20629 0.66224 0.0
C1047 C 0.43086 0.2146 0.69461 0.0
H1048 H 0.40994 0.27448 0.75976 0.0
H1049 H 0.37937 0.21987 0.8731 0.0
H1050 H 0.42584 0.25132 0.64217 0.0
H1051 H 0.40166 0.2515 0.62929 0.0
H1052 H 0.4239 0.2738 0.66397 0.0
H1053 H 0.37698 0.1878 0.84588 0.0
H1054 H 0.36436 0.18259 0.77419 0.0
H1055 H 0.39081 0.18672 0.77973 0.0
H1056 H 0.35638 0.18079 0.57495 0.0
H1057 H 0.41854 0.18834 0.60037 0.0
H1058 H 0.3641 0.22354 0.66105 0.0
H1059 H 0.35148 0.20079 0.70836 0.0
H1060 H 0.34366 0.19875 0.63149 0.0
H1061 H 0.43927 0.23201 0.69386 0.0
H1062 H 0.44172 0.20957 0.67546 0.0
H1063 H 0.42752 0.20955 0.7421 0.0
C1064 C 0.91315 0.18849 0.85551 0.0
C1065 C 0.90447 0.1976 0.89289 0.0
C1066 C 0.92676 0.19989 0.80764 0.0
C1067 C 0.93158 0.22071 0.79707 0.0
C1068 C 0.92515 0.23077 0.8391 0.0
C1069 C 0.91163 0.21906 0.88661 0.0
C1070 C 0.93396 0.1889 0.76479 0.0
C1071 C 0.93037 0.25314 0.83002 0.0
C1072 C 0.96442 0.25565 0.66722 0.0
C1073 C 0.94798 0.25249 0.62865 0.0
C1074 C 0.95962 0.2444 0.72131 0.0
C1075 C 0.93798 0.22986 0.73639 0.0
C1076 C 0.92159 0.2256 0.69531 0.0
C1077 C 0.92683 0.23697 0.642 0.0
C1078 C 0.97754 0.2491 0.76353 0.0
C1079 C 0.89827 0.20998 0.70915 0.0
H1080 H 0.90818 0.17204 0.8609 0.0
H1081 H 0.90554 0.22643 0.91635 0.0
H1082 H 0.92308 0.18322 0.72603 0.0
H1083 H 0.9504 0.19982 0.74761 0.0
H1084 H 0.93358 0.17515 0.78615 0.0
H1085 H 0.92737 0.25969 0.87115 0.0
H1086 H 0.94734 0.26338 0.81606 0.0
H1087 H 0.92024 0.25361 0.79398 0.0
H1088 H 0.98082 0.26761 0.6567 0.0
H1089 H 0.91416 0.2342 0.61148 0.0
H1090 H 0.97438 0.23483 0.78862 0.0
H1091 H 0.97897 0.26094 0.79643 0.0
H1092 H 0.99312 0.25563 0.73935 0.0
H1093 H 0.89617 0.19453 0.72176 0.0
H1094 H 0.88776 0.20766 0.67072 0.0
H1095 H 0.89279 0.21559 0.74758 0.0
C1096 C 0.93656 0.73196 0.77402 0.0
C1097 C 0.95573 0.7514 0.7737 0.0
C1098 C 0.92194 0.72649 0.72722 0.0
C1099 C 0.92697 0.74057 0.67852 0.0
C1100 C 0.94662 0.75987 0.67717 0.0
C1101 C 0.96057 0.76517 0.72513 0.0
C1102 C 0.90088 0.70597 0.73062 0.0
C1103 C 0.95283 0.77509 0.62539 0.0
C1104 C 0.89785 0.72065 0.5321 0.0
C1105 C 0.88381 0.72841 0.53395 0.0
C1106 C 0.91194 0.72437 0.57907 0.0
C1107 C 0.91151 0.73562 0.62964 0.0
C1108 C 0.89713 0.74321 0.63209 0.0
C1109 C 0.88362 0.73975 0.58379 0.0
C1110 C 0.9275 0.71657 0.57419 0.0
C1111 C 0.89596 0.75496 0.68578 0.0
H1112 H 0.93269 0.72135 0.81168 0.0
H1113 H 0.97536 0.78019 0.7244 0.0
H1114 H 0.88747 0.70912 0.73142 0.0
H1115 H 0.8989 0.69642 0.69043 0.0
H1116 H 0.89957 0.6966 0.77092 0.0
H1117 H 0.96935 0.78875 0.62936 0.0
H1118 H 0.95171 0.76699 0.58273 0.0
H1119 H 0.94158 0.78104 0.62291 0.0
H1120 H 0.89798 0.71186 0.49354 0.0
H1121 H 0.87249 0.74542 0.58575 0.0
H1122 H 0.92522 0.70607 0.61244 0.0
H1123 H 0.94416 0.73006 0.57604 0.0
H1124 H 0.92561 0.70788 0.5321 0.0
H1125 H 0.88296 0.75864 0.68223 0.0
H1126 H 0.91139 0.7699 0.69084 0.0
H1127 H 0.89325 0.74552 0.72697 0.0
C1128 C 0.89417 0.75394 0.26235 0.0
C1129 C 0.87878 0.7325 0.26865 0.0
C1130 C 0.90908 0.76124 0.21517 0.0
C1131 C 0.90841 0.74679 0.17275 0.0
C1132 C 0.89245 0.72524 0.17753 0.0
C1133 C 0.87792 0.71829 0.22587 0.0
C1134 C 0.92612 0.78425 0.21224 0.0
C1135 C 0.89109 0.70944 0.13245 0.0
C1136 C 0.93961 0.76674 0.02658 0.0
C1137 C 0.95709 0.76422 0.03789 0.0
C1138 C 0.92362 0.76139 0.07046 0.0
C1139 C 0.92561 0.75384 0.1268 0.0
C1140 C 0.9439 0.75241 0.13912 0.0
C1141 C 0.95929 0.75738 0.09417 0.0
C1142 C 0.90417 0.76283 0.05567 0.0
C1143 C 0.9469 0.74497 0.19911 0.0
H1144 H 0.89499 0.76503 0.29538 0.0
H1145 H 0.86591 0.70176 0.23015 0.0
H1146 H 0.94207 0.78604 0.21963 0.0
H1147 H 0.92659 0.79084 0.16738 0.0
H1148 H 0.92349 0.79367 0.24621 0.0
H1149 H 0.87655 0.69372 0.13925 0.0
H1150 H 0.89098 0.71499 0.08649 0.0
H1151 H 0.90539 0.70777 0.13587 0.0
H1152 H 0.93788 0.77177 0.98257 0.0
H1153 H 0.97291 0.75549 0.10255 0.0
H1154 H 0.90146 0.77203 0.09009 0.0
H1155 H 0.88978 0.74683 0.05571 0.0
H1156 H 0.9057 0.77023 0.0113 0.0
H1157 H 0.94533 0.75432 0.23541 0.0
H1158 H 0.96275 0.7462 0.20265 0.0
H1159 H 0.93425 0.72833 0.20657 0.0
C1160 C 0.39381 0.19324 0.27179 0.0
C1161 C 0.38003 0.18821 0.32126 0.0
C1162 C 0.39337 0.20551 0.2247 0.0
C1163 C 0.37913 0.21328 0.22799 0.0
C1164 C 0.36584 0.20898 0.27902 0.0
C1165 C 0.36626 0.19627 0.32478 0.0
C1166 C 0.40751 0.20947 0.17045 0.0
C1167 C 0.35082 0.21741 0.28466 0.0
C1168 C 0.39011 0.25786 0.12232 0.0
C1169 C 0.37517 0.24715 0.0774 0.0
C1170 C 0.39127 0.24711 0.17238 0.0
C1171 C 0.37747 0.22508 0.17681 0.0
C1172 C 0.36226 0.2142 0.13178 0.0
C1173 C 0.36113 0.22542 0.08287 0.0
C1174 C 0.40734 0.25928 0.22026 0.0
C1175 C 0.34752 0.19064 0.13455 0.0
H1176 H 0.40431 0.18683 0.26869 0.0
H1177 H 0.35568 0.1925 0.36323 0.0
H1178 H 0.39742 0.20232 0.13064 0.0
H1179 H 0.4176 0.22659 0.16158 0.0
H1180 H 0.41812 0.20283 0.17568 0.0
H1181 H 0.34282 0.21402 0.32921 0.0
H1182 H 0.35969 0.23466 0.27699 0.0
H1183 H 0.33831 0.21027 0.25009 0.0
H1184 H 0.40088 0.27471 0.11843 0.0
H1185 H 0.34967 0.21707 0.04798 0.0
H1186 H 0.41909 0.25396 0.22338 0.0
H1187 H 0.39911 0.25623 0.26434 0.0
H1188 H 0.41618 0.27649 0.21143 0.0
H1189 H 0.35711 0.18281 0.13577 0.0
H1190 H 0.33664 0.18457 0.09577 0.0
H1191 H 0.33766 0.18613 0.17608 0.0
C1192 C 0.93098 0.22335 0.3859 0.0
C1193 C 0.92543 0.23896 0.38331 0.0
C1194 C 0.92221 0.20643 0.3463 0.0
C1195 C 0.908 0.20545 0.30216 0.0
C1196 C 0.90141 0.22053 0.3015 0.0
C1197 C 0.91007 0.23705 0.3427 0.0
C1198 C 0.92902 0.19028 0.34974 0.0
C1199 C 0.88626 0.22 0.25488 0.0
C1200 C 0.90669 0.18588 0.14671 0.0
C1201 C 0.8858 0.1687 0.14528 0.0
C1202 C 0.91504 0.19697 0.19963 0.0
C1203 C 0.90211 0.19048 0.25204 0.0
C1204 C 0.88214 0.17142 0.25243 0.0
C1205 C 0.87412 0.16072 0.19854 0.0
C1206 C 0.9365 0.21712 0.19729 0.0
C1207 C 0.86817 0.16362 0.3078 0.0
H1208 H 0.94258 0.22462 0.41824 0.0
H1209 H 0.90574 0.24907 0.34093 0.0
H1210 H 0.91507 0.17419 0.34429 0.0
H1211 H 0.94056 0.19307 0.31298 0.0
H1212 H 0.93684 0.19103 0.39277 0.0
H1213 H 0.88177 0.2321 0.26269 0.0
H1214 H 0.8939 0.22273 0.21 0.0
H1215 H 0.87144 0.20432 0.25438 0.0
H1216 H 0.91549 0.19214 0.10505 0.0
H1217 H 0.85779 0.14759 0.19698 0.0
H1218 H 0.94637 0.21813 0.23598 0.0
H1219 H 0.93402 0.23072 0.19952 0.0
H1220 H 0.94559 0.21851 0.1556 0.0
H1221 H 0.8779 0.16662 0.34842 0.0
H1222 H 0.85628 0.14654 0.30516 0.0
H1223 H 0.85927 0.1721 0.3126 0.0
C1224 C 0.12994 0.69512 0.30622 0.0
C1225 C 0.11103 0.68074 0.33637 0.0
C1226 C 0.14394 0.71488 0.33118 0.0
C1227 C 0.13893 0.72001 0.38769 0.0
C1228 C 0.12081 0.70471 0.42027 0.0
C1229 C 0.10698 0.68535 0.39392 0.0
C1230 C 0.16309 0.73077 0.29509 0.0
C1231 C 0.11507 0.70934 0.48115 0.0
C1232 C 0.17583 0.76854 0.47734 0.0
C1233 C 0.16666 0.78098 0.46723 0.0
C1234 C 0.16781 0.74901 0.44907 0.0
C1235 C 0.15045 0.74202 0.40944 0.0
C1236 C 0.14214 0.75521 0.39624 0.0
C1237 C 0.15024 0.77444 0.42563 0.0
C1238 C 0.17703 0.73537 0.46441 0.0
C1239 C 0.12383 0.74851 0.35357 0.0
H1240 H 0.13302 0.69154 0.26159 0.0
H1241 H 0.09245 0.67408 0.4175 0.0
H1242 H 0.15968 0.74262 0.27612 0.0
H1243 H 0.17737 0.73925 0.32365 0.0
H1244 H 0.16692 0.72332 0.25768 0.0
H1245 H 0.10215 0.69497 0.50358 0.0
H1246 H 0.1293 0.71654 0.51028 0.0
H1247 H 0.10955 0.72077 0.47653 0.0
H1248 H 0.18858 0.77359 0.50939 0.0
H1249 H 0.14333 0.78417 0.41702 0.0
H1250 H 0.17957 0.72839 0.42356 0.0
H1251 H 0.16554 0.7222 0.49362 0.0
H1252 H 0.19247 0.74428 0.48815 0.0
H1253 H 0.12715 0.74288 0.31118 0.0
H1254 H 0.12083 0.76148 0.3432 0.0
H1255 H 0.10899 0.73526 0.37348 0.0
C1256 C 0.456 0.48376 0.39412 0.0
C1257 C 0.45678 0.48604 0.3321 0.0
C1258 C 0.43654 0.47546 0.42543 0.0
C1259 C 0.41747 0.46901 0.39346 0.0
C1260 C 0.41842 0.47243 0.33106 0.0
C1261 C 0.43811 0.4806 0.30086 0.0
C1262 C 0.43619 0.47223 0.49207 0.0
C1263 C 0.39849 0.46618 0.29575 0.0
C1264 C 0.36859 0.42133 0.4586 0.0
C1265 C 0.35854 0.43047 0.48954 0.0
C1266 C 0.38752 0.43375 0.42597 0.0
C1267 C 0.39652 0.45582 0.42394 0.0
C1268 C 0.38611 0.46509 0.45367 0.0
C1269 C 0.36718 0.45227 0.48616 0.0
C1270 C 0.39827 0.42328 0.39525 0.0
C1271 C 0.39494 0.48847 0.45134 0.0
H1272 H 0.47053 0.48775 0.41781 0.0
H1273 H 0.43875 0.48182 0.25255 0.0
H1274 H 0.42684 0.47834 0.51489 0.0
H1275 H 0.42821 0.45515 0.50221 0.0
H1276 H 0.45255 0.4801 0.51088 0.0
H1277 H 0.40229 0.4721 0.249 0.0
H1278 H 0.38833 0.44879 0.29491 0.0
H1279 H 0.38895 0.47232 0.31727 0.0
H1280 H 0.36194 0.40448 0.46103 0.0
H1281 H 0.35931 0.45936 0.50954 0.0
H1282 H 0.41433 0.42906 0.41448 0.0
H1283 H 0.40061 0.42738 0.34703 0.0
H1284 H 0.38886 0.40589 0.39989 0.0
H1285 H 0.41231 0.49719 0.46089 0.0
H1286 H 0.38667 0.4935 0.48346 0.0
H1287 H 0.39284 0.4929 0.40575 0.0
C1288 C 0.69543 0.97427 0.44013 0.0
C1289 C 0.6935 0.97314 0.50235 0.0
C1290 C 0.6834 0.98023 0.40579 0.0
C1291 C 0.66937 0.98556 0.43468 0.0
C1292 C 0.66633 0.98308 0.49744 0.0
C1293 C 0.67878 0.97724 0.53082 0.0
C1294 C 0.68728 0.98273 0.33912 0.0
C1295 C 0.65111 0.98807 0.52965 0.0
C1296 C 0.66924 0.03089 0.35744 0.0
C1297 C 0.65112 0.02056 0.32144 0.0
C1298 C 0.67471 0.01967 0.39656 0.0
C1299 C 0.66154 0.99753 0.40064 0.0
C1300 C 0.64253 0.98709 0.36703 0.0
C1301 C 0.63762 0.99873 0.32722 0.0
C1302 C 0.69527 0.03147 0.43107 0.0
C1303 C 0.62782 0.96361 0.37148 0.0
H1304 H 0.70715 0.97139 0.41851 0.0
H1305 H 0.67776 0.97685 0.57917 0.0
H1306 H 0.67189 0.97551 0.31506 0.0
H1307 H 0.69635 -0.0003 0.32735 0.0
H1308 H 0.69656 0.97548 0.32301 0.0
H1309 H 0.64796 0.98208 0.57638 0.0
H1310 H 0.65803 0.00534 0.53058 0.0
H1311 H 0.63566 0.98115 0.50589 0.0
H1312 H 0.6797 0.04777 0.3535 0.0
H1313 H 0.62345 0.99071 0.29999 0.0
H1314 H 0.70664 0.0265 0.41605 0.0
H1315 H 0.69212 0.02777 0.47939 0.0
H1316 H 0.70313 0.04877 0.42505 0.0
H1317 H 0.63561 0.95564 0.35008 0.0
H1318 H 0.6123 0.95831 0.34927 0.0
H1319 H 0.62468 0.95854 0.41895 0.0
C1320 C 0.7006 0.08487 0.07369 0.0
C1321 C 0.69396 0.091 0.12472 0.0
C1322 C 0.72208 0.09565 0.05536 0.0
C1323 C 0.73703 0.11358 0.08747 0.0
C1324 C 0.73011 0.12063 0.1368 0.0
C1325 C 0.70876 0.10869 0.15639 0.0
C1326 C 0.729 0.08665 0.0052 0.0
C1327 C 0.74541 0.14031 0.16995 0.0
C1328 C 0.79306 0.12265 0.0914 0.0
C1329 C 0.80252 0.13564 0.04153 0.0
C1330 C 0.77186 0.11578 0.10778 0.0
C1331 C 0.76017 0.12284 0.07472 0.0
C1332 C 0.76999 0.13679 0.02588 0.0
C1333 C 0.79087 0.14238 0.00838 0.0
C1334 C 0.76159 0.09984 0.15786 0.0
C1335 C 0.75825 0.14533 0.99151 0.0
H1336 H 0.68917 0.07079 0.05033 0.0
H1337 H 0.70385 0.11272 0.19768 0.0
H1338 H 0.73787 0.09867 0.9701 0.0
H1339 H 0.74003 0.08172 0.02276 0.0
H1340 H 0.71523 0.07284 0.98422 0.0
H1341 H 0.73748 0.14357 0.20762 0.0
H1342 H 0.75893 0.13909 0.18777 0.0
H1343 H 0.75232 0.15385 0.13847 0.0
H1344 H 0.80199 0.11701 0.1159 0.0
H1345 H 0.79784 0.15149 0.9679 0.0
H1346 H 0.74743 0.08537 0.14097 0.0
H1347 H 0.75588 0.10611 0.19391 0.0
H1348 H 0.77278 0.09546 0.17749 0.0
H1349 H 0.74342 0.13237 0.97201 0.0
H1350 H 0.76824 0.15616 0.95493 0.0
H1351 H 0.75329 0.15382 0.02248 0.0
C1352 C 0.01506 0.71396 0.05496 0.0
C1353 C 0.99609 0.70698 0.02335 0.0
C1354 C 0.01849 0.69996 0.08816 0.0
C1355 C 0.0024 0.67843 0.09061 0.0
C1356 C 0.98278 0.67139 0.0611 0.0
C1357 C 0.9799 0.68577 0.02723 0.0
C1358 C 0.03978 0.70812 0.1185 0.0
C1359 C 0.96515 0.64864 0.06384 0.0
C1360 C 0.02797 0.64589 0.11624 0.0
C1361 C 0.02707 0.64428 0.17847 0.0
C1362 C 0.01805 0.65519 0.0863 0.0
C1363 C 0.00731 0.66338 0.11979 0.0
C1364 C 0.00514 0.66049 0.18254 0.0
C1365 C 0.01545 0.65129 0.21138 0.0
C1366 C 0.02089 0.65806 0.01942 0.0
C1367 C 0.99337 0.66855 0.21953 0.0
H1368 H 0.02761 0.73034 0.0523 0.0
H1369 H 0.96512 0.68035 0.00327 0.0
H1370 H 0.03725 0.7041 0.16675 0.0
H1371 H 0.04828 0.70054 0.09902 0.0
H1372 H 0.05028 0.72543 0.11376 0.0
H1373 H 0.94993 0.64623 0.0453 0.0
H1374 H 0.97005 0.63895 0.03801 0.0
H1375 H 0.96223 0.64281 0.1106 0.0
H1376 H 0.03733 0.64074 0.09118 0.0
H1377 H 0.01535 0.65056 0.25974 0.0
H1378 H 0.03247 0.67481 0.00882 0.0
H1379 H 0.00554 0.65389 -0.00196 0.0
H1380 H 0.027 0.64833 -0.00055 0.0
H1381 H 0.00294 0.68596 0.22116 0.0
H1382 H 0.99042 0.66234 0.26601 0.0
H1383 H 0.9778 0.66413 0.199 0.0
C1384 C 0.45786 0.35415 0.02077 0.0
C1385 C 0.43608 0.34251 0.03677 0.0
C1386 C 0.47157 0.37361 0.04748 0.0
C1387 C 0.4633 0.38137 0.09157 0.0
C1388 C 0.4417 0.36889 0.1109 0.0
C1389 C 0.42831 0.34969 0.08291 0.0
C1390 C 0.49446 0.38647 0.02552 0.0
C1391 C 0.43233 0.37642 0.15854 0.0
C1392 C 0.49704 0.42938 0.18713 0.0
C1393 C 0.4931 0.44407 0.15962 0.0
C1394 C 0.48842 0.40902 0.16374 0.0
C1395 C 0.47597 0.40357 0.11137 0.0
C1396 C 0.47349 0.41899 0.08109 0.0
C1397 C 0.4819 0.43898 0.10596 0.0
C1398 C 0.49134 0.39298 0.19737 0.0
C1399 C 0.46072 0.41402 0.02444 0.0
H1400 H 0.46394 0.34862 0.98518 0.0
H1401 H 0.41155 0.34058 0.09597 0.0
H1402 H 0.49625 0.39962 0.99725 0.0
H1403 H 0.50555 0.39346 0.06348 0.0
H1404 H 0.49935 0.37695 -0.0014 0.0
H1405 H 0.41618 0.36383 0.17367 0.0
H1406 H 0.44298 0.38228 0.19774 0.0
H1407 H 0.43096 0.3897 0.14074 0.0
H1408 H 0.50563 0.43332 0.22885 0.0
H1409 H 0.47905 0.45046 0.0844 0.0
H1410 H 0.4952 0.38367 0.16628 0.0
H1411 H 0.47615 0.38186 0.22088 0.0
H1412 H 0.50419 0.40044 0.231 0.0
H1413 H 0.46592 0.40612 0.99198 0.0
H1414 H 0.46238 0.42833 0.00297 0.0
H1415 H 0.44352 0.40306 0.03477 0.0
C1416 C 0.99513 0.34409 0.5972 0.0
C1417 C 0.98231 0.33727 0.54644 0.0
C1418 C 0.00202 0.3639 0.62145 0.0
C1419 C 0.99471 0.3767 0.59672 0.0
C1420 C 0.98079 0.36946 0.5473 0.0
C1421 C 0.97556 0.35017 0.52095 0.0
C1422 C 0.01828 0.3716 0.67091 0.0
C1423 C 0.97177 0.38223 0.52197 0.0
C1424 C 0.00725 0.42134 0.70225 0.0
C1425 C 0.02477 0.43822 0.67338 0.0
C1426 C 0.99586 0.40163 0.67478 0.0
C1427 C 0.00338 0.39835 0.61962 0.0
C1428 C 0.02138 0.41533 0.59082 0.0
C1429 C 0.03148 0.43517 0.6174 0.0
C1430 C 0.97614 0.38417 0.70535 0.0
C1431 C 0.03127 0.41217 0.53495 0.0
H1432 H 0.00087 0.33434 0.61592 0.0
H1433 H 0.96678 0.34551 0.47964 0.0
H1434 H 0.03251 0.38692 0.6581 0.0
H1435 H 0.01141 0.37412 0.71228 0.0
H1436 H 0.02369 0.36035 0.68124 0.0
H1437 H 0.96223 0.38448 0.55711 0.0
H1438 H 0.98477 0.39811 0.50829 0.0
H1439 H 0.96147 0.37456 0.48284 0.0
H1440 H 0.00295 0.42331 0.74717 0.0
H1441 H 0.04552 0.4481 0.59607 0.0
H1442 H 0.97772 0.37022 0.71298 0.0
H1443 H 0.96222 0.37911 0.67576 0.0
H1444 H 0.97273 0.38909 0.74891 0.0
H1445 H 0.03676 0.40094 0.54451 0.0
H1446 H 0.04517 0.42709 0.51808 0.0
H1447 H 0.01934 0.4053 0.49896 0.0
C1448 C 0.71112 0.6711 0.62134 0.0
C1449 C 0.69881 0.65189 0.6513 0.0
C1450 C 0.72971 0.67565 0.58987 0.0
C1451 C 0.73614 0.6605 0.58781 0.0
C1452 C 0.72357 0.64082 0.61674 0.0
C1453 C 0.70503 0.63677 0.6487 0.0
C1454 C 0.74269 0.69691 0.55977 0.0
C1455 C 0.72991 0.6243 0.61493 0.0
C1456 C 0.77688 0.67737 0.4642 0.0
C1457 C 0.79551 0.69055 0.49562 0.0
C1458 C 0.75743 0.66484 0.49474 0.0
C1459 C 0.7567 0.66627 0.55767 0.0
C1460 C 0.77592 0.67808 0.58961 0.0
C1461 C 0.79511 0.69036 0.55798 0.0
C1462 C 0.73735 0.65197 0.45926 0.0
C1463 C 0.77592 0.6799 0.65671 0.0
H1464 H 0.7064 0.68284 0.62306 0.0
H1465 H 0.69546 0.62183 0.67157 0.0
H1466 H 0.75898 0.70555 0.57888 0.0
H1467 H 0.7445 0.69495 0.51137 0.0
H1468 H 0.73523 0.70674 0.56505 0.0
H1469 H 0.71671 0.60874 0.63067 0.0
H1470 H 0.73474 0.62265 0.56902 0.0
H1471 H 0.74392 0.62911 0.64395 0.0
H1472 H 0.77722 0.67797 0.4158 0.0
H1473 H 0.80961 0.70084 0.5819 0.0
H1474 H 0.72846 0.66048 0.45636 0.0
H1475 H 0.72669 0.63662 0.48151 0.0
H1476 H 0.74106 0.64912 0.41317 0.0
H1477 H 0.7703 0.69084 0.6692 0.0
H1478 H 0.79219 0.68606 0.67511 0.0
H1479 H 0.76487 0.66446 0.67784 0.0
C1480 C 0.44342 0.14528 0.56811 0.0
C1481 C 0.44736 0.15349 0.50999 0.0
C1482 C 0.45683 0.13919 0.59434 0.0
C1483 C 0.47443 0.14108 0.56111 0.0
C1484 C 0.47986 0.1516 0.50505 0.0
C1485 C 0.46619 0.15777 0.47996 0.0
C1486 C 0.45059 0.12844 0.65467 0.0
C1487 C 0.49879 0.15435 0.46892 0.0
C1488 C 0.50514 0.12006 0.64447 0.0
C1489 C 0.49347 0.09881 0.62843 0.0
C1490 C 0.50022 0.13463 0.61987 0.0
C1491 C 0.48331 0.12765 0.57858 0.0
C1492 C 0.4725 0.10647 0.55963 0.0
C1493 C 0.47769 0.09238 0.58481 0.0
C1494 C 0.51232 0.15712 0.64057 0.0
C1495 C 0.45444 0.09827 0.51537 0.0
H1496 H 0.42901 0.14236 0.59173 0.0
H1497 H 0.46928 0.16426 0.43509 0.0
H1498 H 0.44335 0.11124 0.64872 0.0
H1499 H 0.46485 0.13396 0.68312 0.0
H1500 H 0.43876 0.13124 0.67844 0.0
H1501 H 0.50385 0.1669 0.43453 0.0
H1502 H 0.51256 0.15822 0.4981 0.0
H1503 H 0.49435 0.13942 0.44588 0.0
H1504 H 0.5175 0.12514 0.67777 0.0
H1505 H 0.4689 0.07607 0.57124 0.0
H1506 H 0.50279 0.15938 0.67567 0.0
H1507 H 0.51501 0.16816 0.60338 0.0
H1508 H 0.52803 0.16124 0.65975 0.0
H1509 H 0.44064 0.09875 0.53543 0.0
H1510 H 0.44888 0.08184 0.50186 0.0
H1511 H 0.45957 0.10831 0.47469 0.0
C1512 C 0.37706 0.96842 0.98975 0.0
C1513 C 0.37327 0.9849 0.00125 0.0
C1514 C 0.39446 0.97174 0.95338 0.0
C1515 C 0.40806 0.9919 0.92813 0.0
C1516 C 0.40488 0.00877 0.94246 0.0
C1517 C 0.38763 0.00506 0.97912 0.0
C1518 C 0.39786 0.95362 0.94026 0.0
C1519 C 0.41908 0.0306 0.91675 0.0
C1520 C 0.46292 0.01601 0.86011 0.0
C1521 C 0.45827 0.01622 0.79982 0.0
C1522 C 0.44646 0.00533 0.90233 0.0
C1523 C 0.42495 0.99566 0.88379 0.0
C1524 C 0.42027 0.99455 0.82215 0.0
C1525 C 0.4371 0.00506 0.78075 0.0
C1526 C 0.45215 0.00636 0.9673 0.0
C1527 C 0.39754 0.98435 0.80045 0.0
H1528 H 0.36598 0.95281 0.00699 0.0
H1529 H 0.38492 0.01791 0.98853 0.0
H1530 H 0.39524 0.94966 0.89219 0.0
H1531 H 0.41462 0.95813 0.94987 0.0
H1532 H 0.38687 0.93937 0.96685 0.0
H1533 H 0.4145 0.04197 0.9331 0.0
H1534 H 0.43601 0.03658 0.92859 0.0
H1535 H 0.41814 0.0301 0.86731 0.0
H1536 H 0.47942 0.02493 0.87451 0.0
H1537 H 0.43364 0.0057 0.73407 0.0
H1538 H 0.44074 0.99162 0.99123 0.0
H1539 H 0.45136 0.01946 0.98884 0.0
H1540 H 0.46864 0.00923 0.97257 0.0
H1541 H 0.38719 0.96915 0.82367 0.0
H1542 H 0.3966 0.98157 0.75154 0.0
H1543 H 0.39105 0.99476 0.81049 0.0
C1544 C 0.09071 0.46516 0.91317 0.0
C1545 C 0.0993 0.47903 0.86447 0.0
C1546 C 0.10333 0.45949 0.94595 0.0
C1547 C 0.12505 0.46774 0.92922 0.0
C1548 C 0.13422 0.48288 0.8827 0.0
C1549 C 0.12121 0.48842 0.85086 0.0
C1550 C 0.09295 0.44349 0.99574 0.0
C1551 C 0.15732 0.49207 0.86373 0.0
C1552 C 0.15568 0.45288 0.03583 0.0
C1553 C 0.15147 0.43374 0.0113 0.0
C1554 C 0.1483 0.46501 0.00777 0.0
C1555 C 0.13673 0.45781 0.95395 0.0
C1556 C 0.13393 0.43928 0.92703 0.0
C1557 C 0.14121 0.42743 0.95623 0.0
C1558 C 0.15166 0.48473 0.03765 0.0
C1559 C 0.12198 0.43116 0.86923 0.0
H1560 H 0.07386 0.45813 0.92452 0.0
H1561 H 0.12795 0.49927 0.81344 0.0
H1562 H 0.09129 0.42835 0.98152 0.0
H1563 H 0.10307 0.44872 0.03603 0.0
H1564 H 0.0768 0.44064 0.00801 0.0
H1565 H 0.16299 0.50623 0.83496 0.0
H1566 H 0.1678 0.49633 0.90319 0.0
H1567 H 0.15906 0.48016 0.83821 0.0
H1568 H 0.16366 0.45778 0.07839 0.0
H1569 H 0.13826 0.41279 0.93668 0.0
H1570 H 0.13638 0.48159 0.05869 0.0
H1571 H 0.15648 0.49757 0.00448 0.0
H1572 H 0.16401 0.49015 0.0728 0.0
H1573 H 0.10481 0.42584 0.87675 0.0
H1574 H 0.12313 0.41777 0.85123 0.0
H1575 H 0.1283 0.44385 0.83502 0.0
C1576 C 0.66096 0.70594 0.80225 0.0
C1577 C 0.65517 0.68699 0.83125 0.0
C1578 C 0.6688 0.72464 0.83462 0.0
C1579 C 0.67152 0.72437 0.89708 0.0
C1580 C 0.66458 0.70499 0.92681 0.0
C1581 C 0.6567 0.68654 0.89334 0.0
C1582 C 0.67567 0.7449 0.80138 0.0
C1583 C 0.66713 0.70395 0.99328 0.0
C1584 C 0.72063 0.77133 0.96096 0.0
C1585 C 0.7119 0.78183 0.99158 0.0
C1586 C 0.70759 0.75275 0.92998 0.0
C1587 C 0.68519 0.7444 0.92914 0.0
C1588 C 0.67621 0.75492 0.95972 0.0
C1589 C 0.6897 0.77357 0.9907 0.0
C1590 C 0.71787 0.74195 0.89851 0.0
C1591 C 0.65244 0.7466 0.95927 0.0
H1592 H 0.66036 0.70633 0.75395 0.0
H1593 H 0.65249 0.67185 0.91544 0.0
H1594 H 0.6695 0.75405 0.82447 0.0
H1595 H 0.69341 0.75465 0.80051 0.0
H1596 H 0.66995 0.7421 0.75464 0.0
H1597 H 0.6581 0.68755 0.01063 0.0
H1598 H 0.68433 0.71064 0.0034 0.0
H1599 H 0.66158 0.71342 0.01745 0.0
H1600 H 0.73776 0.77757 0.96146 0.0
H1601 H 0.68289 0.78168 0.01404 0.0
H1602 H 0.71423 0.74055 0.85019 0.0
H1603 H 0.71121 0.7258 0.91663 0.0
H1604 H 0.73554 0.75053 0.90353 0.0
H1605 H 0.64762 0.74792 0.91344 0.0
H1606 H 0.64772 0.75538 0.99001 0.0
H1607 H 0.64344 0.72973 0.97201 0.0
C1608 C 0.80084 0.02563 0.65658 0.0
C1609 C 0.77898 0.01511 0.67184 0.0
C1610 C 0.8159 0.04267 0.69063 0.0
C1611 C 0.80887 0.04921 0.74098 0.0
C1612 C 0.78689 0.03824 0.75733 0.0
C1613 C 0.77226 0.0214 0.72255 0.0
C1614 C 0.8392 0.05401 0.67189 0.0
C1615 C 0.77868 0.04463 0.81083 0.0
C1616 C 0.84322 0.08381 0.86665 0.0
C1617 C 0.84331 0.10243 0.85408 0.0
C1618 C 0.83351 0.06666 0.82753 0.0
C1619 C 0.82389 0.06835 0.77474 0.0
C1620 C 0.82577 0.0878 0.75941 0.0
C1621 C 0.83538 0.10457 0.79941 0.0
C1622 C 0.83195 0.04623 0.84527 0.0
C1623 C 0.81599 0.09039 0.70326 0.0
H1624 H 0.80614 0.02078 0.61754 0.0
H1625 H 0.75543 0.01325 0.73497 0.0
H1626 H 0.84413 0.07014 0.65652 0.0
H1627 H 0.84938 0.05555 0.71037 0.0
H1628 H 0.84237 0.0458 0.63521 0.0
H1629 H 0.7613 0.03379 0.81924 0.0
H1630 H 0.7875 0.04502 0.85139 0.0
H1631 H 0.78148 0.0607 0.80374 0.0
H1632 H 0.8494 0.08212 0.90882 0.0
H1633 H 0.83571 0.11906 0.78912 0.0
H1634 H 0.83512 0.0389 0.80635 0.0
H1635 H 0.81546 0.03507 0.86169 0.0
H1636 H 0.84332 0.04846 0.88123 0.0
H1637 H 0.81992 0.08364 0.66436 0.0
H1638 H 0.82156 0.10715 0.69349 0.0
H1639 H 0.7983 0.08177 0.70847 0.0
C1640 C 0.12299 0.82424 0.64861 0.0
C1641 C 0.14031 0.82319 0.67101 0.0
C1642 C 0.10455 0.81793 0.6835 0.0
C1643 C 0.10272 0.80865 0.74018 0.0
C1644 C 0.11989 0.80673 0.76211 0.0
C1645 C 0.13871 0.81453 0.72774 0.0
C1646 C 0.08684 0.82076 0.65919 0.0
C1647 C 0.11771 0.79469 0.81884 0.0
C1648 C 0.05866 0.79797 0.85273 0.0
C1649 C 0.04161 0.77928 0.83065 0.0
C1650 C 0.07848 0.80836 0.82221 0.0
C1651 C 0.08187 0.79853 0.77252 0.0
C1652 C 0.06521 0.77873 0.75328 0.0
C1653 C 0.04507 0.76989 0.78076 0.0
C1654 C 0.09561 0.82984 0.84258 0.0
C1655 C 0.0687 0.76651 0.70474 0.0
H1656 H 0.12356 0.82936 0.60301 0.0
H1657 H 0.15179 0.81285 0.74388 0.0
H1658 H 0.07158 0.80557 0.65689 0.0
H1659 H 0.08406 0.83087 0.68995 0.0
H1660 H 0.09065 0.82794 0.61391 0.0
H1661 H 0.13325 0.79663 0.83288 0.0
H1662 H 0.11109 0.79959 0.85603 0.0
H1663 H 0.10633 0.77772 0.8113 0.0
H1664 H 0.05662 0.80429 0.89414 0.0
H1665 H 0.03218 0.755 0.76467 0.0
H1666 H 0.09835 0.84155 0.80738 0.0
H1667 H 0.11107 0.83054 0.84894 0.0
H1668 H 0.0911 0.83449 0.88492 0.0
H1669 H 0.06924 0.77343 0.66041 0.0
H1670 H 0.05568 0.74976 0.70428 0.0
H1671 H 0.08417 0.76713 0.71075 0.0
C1672 C 0.32863 0.36722 0.74416 0.0
C1673 C 0.31741 0.35954 0.69088 0.0
C1674 C 0.33689 0.35636 0.77434 0.0
C1675 C 0.33248 0.33655 0.75298 0.0
C1676 C 0.32042 0.32829 0.70044 0.0
C1677 C 0.31395 0.34042 0.66843 0.0
C1678 C 0.35158 0.36683 0.82646 0.0
C1679 C 0.3146 0.30681 0.67782 0.0
C1680 C 0.37097 0.3179 0.78965 0.0
C1681 C 0.36268 0.30745 0.84421 0.0
C1682 C 0.36138 0.32755 0.75967 0.0
C1683 C 0.34215 0.32547 0.78283 0.0
C1684 C 0.33326 0.31431 0.8369 0.0
C1685 C 0.34425 0.30632 0.8684 0.0
C1686 C 0.37263 0.34109 0.70545 0.0
C1687 C 0.31233 0.31104 0.86165 0.0
H1688 H 0.33204 0.38242 0.76046 0.0
H1689 H 0.30688 0.33529 0.62496 0.0
H1690 H 0.34474 0.35738 0.86777 0.0
H1691 H 0.36723 0.36796 0.81779 0.0
H1692 H 0.35449 0.38289 0.83474 0.0
H1693 H 0.30616 0.30314 0.63458 0.0
H1694 H 0.32899 0.30539 0.67208 0.0
H1695 H 0.30418 0.29479 0.71147 0.0
H1696 H 0.3857 0.31949 0.77192 0.0
H1697 H 0.3388 0.29979 0.91267 0.0
H1698 H 0.37531 0.35713 0.7121 0.0
H1699 H 0.3626 0.33456 0.66536 0.0
H1700 H 0.38834 0.3424 0.69626 0.0
H1701 H 0.31293 0.3262 0.86731 0.0
H1702 H 0.308 0.30274 0.90539 0.0
H1703 H 0.29941 0.3018 0.82937 0.0
C1704 C 0.03079 0.28975 0.3449 0.0
C1705 C 0.0207 0.30155 0.35042 0.0
C1706 C 0.0483 0.29621 0.30569 0.0
C1707 C 0.05615 0.31518 0.27301 0.0
C1708 C 0.04539 0.32662 0.27671 0.0
C1709 C 0.02761 0.3195 0.31481 0.0
C1710 C 0.05892 0.28325 0.30111 0.0
C1711 C 0.05345 0.34716 0.24345 0.0
C1712 C 0.11463 0.35174 0.23941 0.0
C1713 C 0.11502 0.35089 0.17718 0.0
C1714 C 0.09583 0.33875 0.2718 0.0
C1715 C 0.07698 0.32472 0.24081 0.0
C1716 C 0.07768 0.3229 0.17801 0.0
C1717 C 0.09668 0.33643 0.14664 0.0
C1718 C 0.09572 0.34145 0.33862 0.0
C1719 C 0.05805 0.30768 0.1438 0.0
H1720 H 0.02523 0.27569 0.37188 0.0
H1721 H 0.01981 0.32864 0.31895 0.0
H1722 H 0.06194 0.28123 0.25365 0.0
H1723 H 0.07462 0.2915 0.3236 0.0
H1724 H 0.04905 0.26749 0.32214 0.0
H1725 H 0.04267 0.35361 0.24927 0.0
H1726 H 0.06956 0.35895 0.25979 0.0
H1727 H 0.05507 0.34505 0.19508 0.0
H1728 H 0.12885 0.36328 0.26253 0.0
H1729 H 0.09696 0.33632 0.09825 0.0
H1730 H 0.08817 0.32599 0.36166 0.0
H1731 H 0.08612 0.34884 0.34998 0.0
H1732 H 0.11212 0.35149 0.35627 0.0
H1733 H 0.05033 0.29187 0.16499 0.0
H1734 H 0.06193 0.30637 0.09645 0.0
H1735 H 0.04622 0.31294 0.14473 0.0
C1736 C 0.84262 0.79571 0.33578 0.0
C1737 C 0.82877 0.77385 0.33506 0.0
C1738 C 0.8377 0.8091 0.30389 0.0
C1739 C 0.81847 0.80033 0.27116 0.0
C1740 C 0.80449 0.77828 0.27056 0.0
C1741 C 0.80985 0.76537 0.30231 0.0
C1742 C 0.85302 0.83253 0.30491 0.0
C1743 C 0.78371 0.76823 0.23669 0.0
C1744 C 0.78706 0.82629 0.23262 0.0
C1745 C 0.78998 0.82839 0.17066 0.0
C1746 C 0.7982 0.81932 0.26723 0.0
C1747 C 0.81213 0.81379 0.23871 0.0
C1748 C 0.81615 0.81719 0.17647 0.0
C1749 C 0.80474 0.82418 0.14293 0.0
C1750 C 0.79346 0.81597 0.3334 0.0
C1751 C 0.83109 0.81175 0.14455 0.0
H1752 H 0.85734 0.80231 0.36073 0.0
H1753 H 0.79902 0.7485 0.30162 0.0
H1754 H 0.85904 0.83833 0.25901 0.0
H1755 H 0.84462 0.84069 0.3207 0.0
H1756 H 0.86692 0.83692 0.33415 0.0
H1757 H 0.77473 0.75081 0.24055 0.0
H1758 H 0.77331 0.77409 0.25382 0.0
H1759 H 0.78694 0.77256 0.1887 0.0
H1760 H 0.77536 0.8293 0.25368 0.0
H1761 H 0.80651 0.8253 0.09471 0.0
H1762 H 0.80838 0.82138 0.35882 0.0
H1763 H 0.78282 0.79893 0.34271 0.0
H1764 H 0.78538 0.82436 0.35004 0.0
H1765 H 0.84616 0.81769 0.16961 0.0
H1766 H 0.83504 0.81838 0.09852 0.0
H1767 H 0.82343 0.79441 0.14175 0.0
C1768 C 0.31053 0.01548 0.20981 0.0
C1769 C 0.32186 0.01727 0.15719 0.0
C1770 C 0.31628 0.03313 0.24554 0.0
C1771 C 0.33555 0.05223 0.23271 0.0
C1772 C 0.34784 0.0536 0.18124 0.0
C1773 C 0.34024 0.03639 0.14278 0.0
C1774 C 0.30184 0.03131 0.29701 0.0
C1775 C 0.36963 0.07246 0.16723 0.0
C1776 C 0.35518 0.10689 0.29331 0.0
C1777 C 0.36268 0.1057 0.34948 0.0
C1778 C 0.34436 0.08897 0.25759 0.0
C1779 C 0.34359 0.07016 0.27503 0.0
C1780 C 0.35233 0.06933 0.33077 0.0
C1781 C 0.3609 0.08686 0.3683 0.0
C1782 C 0.33413 0.09032 0.2008 0.0
C1783 C 0.3541 0.05073 0.3506 0.0
H1784 H 0.29731 0.00026 0.22337 0.0
H1785 H 0.34967 0.03739 0.10362 0.0
H1786 H 0.31002 0.03352 0.34006 0.0
H1787 H 0.29781 0.04385 0.29283 0.0
H1788 H 0.28677 0.0158 0.29851 0.0
H1789 H 0.38108 0.06721 0.15552 0.0
H1790 H 0.36852 0.08072 0.12727 0.0
H1791 H 0.37647 0.08376 0.20446 0.0
H1792 H 0.35786 0.12188 0.27722 0.0
H1793 H 0.36779 0.08634 0.41055 0.0
H1794 H 0.34326 0.08995 0.1614 0.0
H1795 H 0.33348 0.10497 0.19813 0.0
H1796 H 0.31763 0.07661 0.19815 0.0
H1797 H 0.34279 0.04265 0.38841 0.0
H1798 H 0.37042 0.05624 0.36768 0.0
H1799 H 0.35086 0.03919 0.31477 0.0
loop_
_geom_bond_atom_site_label_1
_geom_bond_atom_site_label_2
_geom_bond_distance
_geom_bond_site_symmetry_2
_ccdc_geom_bond_type
Mn0 O5 2.095 . S
Mn0 O15 2.162 . S
Mn0 O16 2.297 . S
Mn0 O24 2.385 . S
Mn0 O25 2.209 . S
Mn0 O26 2.094 . S
Mn1 O6 2.121 . S
Mn1 N8 2.257 1_455 S
Mn1 N17 2.282 . S
Mn1 O25 2.215 . S
Mn1 O27 2.117 . S
C2 O24 1.234 . S
C2 O25 1.283 . S
C3 O15 1.281 . S
C3 O16 1.236 . S
C4 O26 1.240 . S
C4 O27 1.264 . S
O5 Mn0 2.095 . S
O5 C14 1.250 . S
O6 Mn1 2.121 . S
O6 C14 1.258 . S
C7 N8 1.326 . S
C7 C11 1.460 . S
C7 H13 0.929 . S
N8 Mn1 2.257 1_655 S
N8 C7 1.326 . S
N8 C12 1.362 . S
C9 C10 1.258 . S
C9 C12 1.431 . S
C9 C29 1.449 . S
C10 C9 1.258 . S
C10 C11 1.477 . S
C10 H30 0.931 . S
C11 C7 1.460 . S
C11 C10 1.477 . S
C11 H31 0.930 . S
C12 N8 1.362 . S
C12 C9 1.431 . S
C12 C22 1.476 . S
H13 C7 0.929 . S
C14 O5 1.250 . S
C14 O6 1.258 . S
O15 Mn0 2.162 . S
O15 C3 1.281 . S
O16 Mn0 2.297 . S
O16 C3 1.236 . S
N17 Mn1 2.282 . S
N17 C18 1.328 . S
N17 C22 1.318 1_455 S
C18 N17 1.328 . S
C18 C19 1.457 . S
C18 H23 0.929 . S
C19 C18 1.457 . S
C19 C20 1.291 1_455 S
C19 H32 0.931 1_554 S
C20 C19 1.291 1_655 S
C20 C21 1.373 . S
C20 H33 0.919 1_554 S
C21 C20 1.373 . S
C21 C22 1.396 . S
C21 C28 1.403 . S
C22 C12 1.476 . S
C22 N17 1.318 1_655 S
C22 C21 1.396 . S
H23 C18 0.929 . S
O24 Mn0 2.385 . S
O24 C2 1.234 . S
O25 Mn0 2.209 . S
O25 Mn1 2.215 . S
O25 C2 1.283 . S
O26 Mn0 2.094 . S
O26 C4 1.240 . S
O27 Mn1 2.117 . S
O27 C4 1.264 . S
C28 C21 1.403 . S
C28 C29 1.399 . S
C28 H34 0.929 . S
C29 C9 1.449 . S
C29 C28 1.399 . S
C29 H35 0.930 . S
H30 C10 0.931 . S
H31 C11 0.930 . S
H32 C19 0.931 1_556 S
H33 C20 0.919 1_556 S
H34 C28 0.929 . S
H35 C29 0.930 . S
Mn36 O41 2.095 . S
Mn36 O51 2.162 . S
Mn36 O52 2.297 . S
Mn36 O60 2.385 . S
Mn36 O61 2.209 . S
Mn36 O62 2.094 . S
Mn37 O42 2.121 . S
Mn37 N44 2.257 . S
Mn37 N53 2.282 . S
Mn37 O61 2.215 . S
Mn37 O63 2.117 . S
C38 O60 1.234 . S
C38 O61 1.283 . S
C39 O51 1.281 . S
C39 O52 1.236 . S
C40 O62 1.240 . S
C40 O63 1.264 . S
O41 Mn36 2.095 . S
O41 C50 1.250 . S
O42 Mn37 2.121 . S
O42 C50 1.258 . S
C43 N44 1.326 . S
C43 C47 1.460 . S
C43 H49 0.929 . S
N44 Mn37 2.257 . S
N44 C43 1.326 . S
N44 C48 1.362 . S
C45 C46 1.258 . S
C45 C48 1.431 . S
C45 C65 1.449 . S
C46 C45 1.258 . S
C46 C47 1.477 . S
C46 H66 0.931 . S
C47 C43 1.460 . S
C47 C46 1.477 . S
C47 H67 0.930 . S
C48 N44 1.362 . S
C48 C45 1.431 . S
C48 C58 1.476 . S
H49 C43 0.929 . S
C50 O41 1.250 . S
C50 O42 1.258 . S
O51 Mn36 2.162 . S
O51 C39 1.281 . S
O52 Mn36 2.297 . S
O52 C39 1.236 . S
N53 Mn37 2.282 . S
N53 C54 1.328 . S
N53 C58 1.318 . S
C54 N53 1.328 . S
C54 C55 1.457 . S
C54 H59 0.929 . S
C55 C54 1.457 . S
C55 C56 1.291 . S
C55 H68 0.931 . S
C56 C55 1.291 . S
C56 C57 1.373 . S
C56 H69 0.929 . S
C57 C56 1.373 . S
C57 C58 1.396 . S
C57 C64 1.403 . S
C58 C48 1.476 . S
C58 N53 1.318 . S
C58 C57 1.396 . S
H59 C54 0.929 . S
O60 Mn36 2.385 . S
O60 C38 1.234 . S
O61 Mn36 2.209 . S
O61 Mn37 2.215 . S
O61 C38 1.283 . S
O62 Mn36 2.094 . S
O62 C40 1.240 . S
O63 Mn37 2.117 . S
O63 C40 1.264 . S
C64 C57 1.403 . S
C64 C65 1.399 . S
C64 H70 0.929 . S
C65 C45 1.449 . S
C65 C64 1.399 . S
C65 H71 0.930 . S
H66 C46 0.931 . S
H67 C47 0.930 . S
H68 C55 0.931 . S
H69 C56 0.929 . S
H70 C64 0.929 . S
H71 C65 0.930 . S
Mn72 O77 2.095 . S
Mn72 O87 2.162 . S
Mn72 O88 2.297 . S
Mn72 O96 2.385 . S
Mn72 O97 2.209 . S
Mn72 O98 2.094 . S
Mn73 O78 2.121 . S
Mn73 N80 2.257 . S
Mn73 N89 2.282 . S
Mn73 O97 2.215 . S
Mn73 O99 2.117 . S
C74 O96 1.234 . S
C74 O97 1.283 . S
C75 O87 1.281 . S
C75 O88 1.236 . S
C76 O98 1.240 . S
C76 O99 1.264 . S
O77 Mn72 2.095 . S
O77 C86 1.250 . S
O78 Mn73 2.121 . S
O78 C86 1.258 . S
C79 N80 1.326 . S
C79 C83 1.460 . S
C79 H85 0.929 . S
N80 Mn73 2.257 . S
N80 C79 1.326 . S
N80 C84 1.362 . S
C81 C82 1.258 . S
C81 C84 1.431 . S
C81 C101 1.449 . S
C82 C81 1.258 . S
C82 C83 1.477 . S
C82 H102 0.931 . S
C83 C79 1.460 . S
C83 C82 1.477 . S
C83 H103 0.930 . S
C84 N80 1.362 . S
C84 C81 1.431 . S
C84 C94 1.476 . S
H85 C79 0.929 . S
C86 O77 1.250 . S
C86 O78 1.258 . S
O87 Mn72 2.162 . S
O87 C75 1.281 . S
O88 Mn72 2.297 . S
O88 C75 1.236 . S
N89 Mn73 2.282 . S
N89 C90 1.328 . S
N89 C94 1.318 . S
C90 N89 1.328 . S
C90 C91 1.457 . S
C90 H95 0.929 . S
C91 C90 1.457 . S
C91 C92 1.291 . S
C91 H104 0.931 . S
C92 C91 1.291 . S
C92 C93 1.373 . S
C92 H105 0.929 . S
C93 C92 1.373 . S
C93 C94 1.396 . S
C93 C100 1.403 . S
C94 C84 1.476 . S
C94 N89 1.318 . S
C94 C93 1.396 . S
H95 C90 0.929 . S
O96 Mn72 2.385 . S
O96 C74 1.234 . S
O97 Mn72 2.209 . S
O97 Mn73 2.215 . S
O97 C74 1.283 . S
O98 Mn72 2.094 . S
O98 C76 1.240 . S
O99 Mn73 2.117 . S
O99 C76 1.264 . S
C100 C93 1.403 . S
C100 C101 1.399 . S
C100 H106 0.929 . S
C101 C81 1.449 . S
C101 C100 1.399 . S
C101 H107 0.930 . S
H102 C82 0.931 . S
H103 C83 0.930 . S
H104 C91 0.931 . S
H105 C92 0.929 . S
H106 C100 0.929 . S
H107 C101 0.930 . S
Mn108 O113 2.095 . S
Mn108 O123 2.162 . S
Mn108 O124 2.297 . S
Mn108 O132 2.385 . S
Mn108 O133 2.209 . S
Mn108 O134 2.094 . S
Mn109 O114 2.121 . S
Mn109 N116 2.257 1_455 S
Mn109 N125 2.282 . S
Mn109 O133 2.215 . S
Mn109 O135 2.117 . S
C110 O132 1.234 . S
C110 O133 1.283 . S
C111 O123 1.281 . S
C111 O124 1.236 . S
C112 O134 1.240 . S
C112 O135 1.264 . S
O113 Mn108 2.095 . S
O113 C122 1.250 . S
O114 Mn109 2.121 . S
O114 C122 1.258 . S
C115 N116 1.326 . S
C115 C119 1.460 . S
C115 H121 0.929 . S
N116 Mn109 2.257 1_655 S
N116 C115 1.326 . S
N116 C120 1.362 . S
C117 C118 1.258 . S
C117 C120 1.431 . S
C117 C137 1.449 . S
C118 C117 1.258 . S
C118 C119 1.477 . S
C118 H138 0.931 . S
C119 C115 1.460 . S
C119 C118 1.477 . S
C119 H139 0.930 . S
C120 N116 1.362 . S
C120 C117 1.431 . S
C120 C130 1.476 . S
H121 C115 0.929 . S
C122 O113 1.250 . S
C122 O114 1.258 . S
O123 Mn108 2.162 . S
O123 C111 1.281 . S
O124 Mn108 2.297 . S
O124 C111 1.236 . S
N125 Mn109 2.282 . S
N125 C126 1.328 . S
N125 C130 1.318 1_455 S
C126 N125 1.328 . S
C126 C127 1.457 . S
C126 H131 0.929 . S
C127 C126 1.457 . S
C127 C128 1.291 1_455 S
C127 H140 0.931 . S
C128 C127 1.291 1_655 S
C128 C129 1.373 . S
C128 H141 0.929 . S
C129 C128 1.373 . S
C129 C130 1.396 . S
C129 C136 1.403 . S
C130 C120 1.476 . S
C130 N125 1.318 1_655 S
C130 C129 1.396 . S
H131 C126 0.929 . S
O132 Mn108 2.385 . S
O132 C110 1.234 . S
O133 Mn108 2.209 . S
O133 Mn109 2.215 . S
O133 C110 1.283 . S
O134 Mn108 2.094 . S
O134 C112 1.240 . S
O135 Mn109 2.117 . S
O135 C112 1.264 . S
C136 C129 1.403 . S
C136 C137 1.399 . S
C136 H142 0.929 . S
C137 C117 1.449 . S
C137 C136 1.399 . S
C137 H143 0.930 . S
H138 C118 0.931 . S
H139 C119 0.930 . S
H140 C127 0.931 . S
H141 C128 0.929 . S
H142 C136 0.929 . S
H143 C137 0.930 . S
Mn144 O149 2.095 . S
Mn144 O159 2.162 . S
Mn144 O160 2.297 . S
Mn144 O168 2.385 . S
Mn144 O169 2.209 . S
Mn144 O170 2.094 . S
Mn145 O150 2.121 . S
Mn145 N152 2.257 . S
Mn145 N161 2.282 . S
Mn145 O169 2.215 . S
Mn145 O171 2.117 . S
C146 O168 1.234 . S
C146 O169 1.283 . S
C147 O159 1.281 . S
C147 O160 1.236 . S
C148 O170 1.240 . S
C148 O171 1.264 . S
O149 Mn144 2.095 . S
O149 C158 1.250 . S
O150 Mn145 2.121 . S
O150 C158 1.258 . S
C151 N152 1.326 . S
C151 C155 1.460 . S
C151 H157 0.929 . S
N152 Mn145 2.257 . S
N152 C151 1.326 . S
N152 C156 1.362 . S
C153 C154 1.258 . S
C153 C156 1.431 . S
C153 C173 1.449 . S
C154 C153 1.258 . S
C154 C155 1.477 . S
C154 H174 0.931 . S
C155 C151 1.460 . S
C155 C154 1.477 . S
C155 H175 0.930 . S
C156 N152 1.362 . S
C156 C153 1.431 . S
C156 C166 1.476 . S
H157 C151 0.929 . S
C158 O149 1.250 . S
C158 O150 1.258 . S
O159 Mn144 2.162 . S
O159 C147 1.281 . S
O160 Mn144 2.297 . S
O160 C147 1.236 . S
N161 Mn145 2.282 . S
N161 C162 1.328 . S
N161 C166 1.318 . S
C162 N161 1.328 . S
C162 C163 1.457 . S
C162 H167 0.929 . S
C163 C162 1.457 . S
C163 C164 1.291 . S
C163 H176 0.931 . S
C164 C163 1.291 . S
C164 C165 1.373 . S
C164 H177 0.929 . S
C165 C164 1.373 . S
C165 C166 1.396 . S
C165 C172 1.403 . S
C166 C156 1.476 . S
C166 N161 1.318 . S
C166 C165 1.396 . S
H167 C162 0.929 . S
O168 Mn144 2.385 . S
O168 C146 1.234 . S
O169 Mn144 2.209 . S
O169 Mn145 2.215 . S
O169 C146 1.283 . S
O170 Mn144 2.094 . S
O170 C148 1.240 . S
O171 Mn145 2.117 . S
O171 C148 1.264 . S
C172 C165 1.403 . S
C172 C173 1.399 . S
C172 H178 0.929 . S
C173 C153 1.449 . S
C173 C172 1.399 . S
C173 H179 0.930 . S
H174 C154 0.931 . S
H175 C155 0.930 . S
H176 C163 0.931 . S
H177 C164 0.929 . S
H178 C172 0.929 . S
H179 C173 0.930 . S
Mn180 O185 2.095 . S
Mn180 O195 2.162 . S
Mn180 O196 2.297 . S
Mn180 O204 2.385 . S
Mn180 O205 2.209 . S
Mn180 O206 2.094 . S
Mn181 O186 2.121 . S
Mn181 N188 2.257 1_545 S
Mn181 N197 2.282 . S
Mn181 O205 2.215 . S
Mn181 O207 2.117 . S
C182 O204 1.234 . S
C182 O205 1.283 . S
C183 O195 1.281 . S
C183 O196 1.236 . S
C184 O206 1.240 . S
C184 O207 1.264 . S
O185 Mn180 2.095 . S
O185 C194 1.250 . S
O186 Mn181 2.121 . S
O186 C194 1.258 . S
C187 N188 1.326 . S
C187 C191 1.460 . S
C187 H193 0.941 . S
N188 Mn181 2.257 1_565 S
N188 C187 1.326 . S
N188 C192 1.362 . S
C189 C190 1.258 . S
C189 C192 1.431 . S
C189 C209 1.449 . S
C190 C189 1.258 . S
C190 C191 1.477 . S
C190 H210 0.931 . S
C191 C187 1.460 . S
C191 C190 1.477 . S
C191 H211 0.930 . S
C192 N188 1.362 . S
C192 C189 1.431 . S
C192 C202 1.476 . S
H193 C187 0.941 . S
C194 O185 1.250 . S
C194 O186 1.258 . S
O195 Mn180 2.162 . S
O195 C183 1.281 . S
O196 Mn180 2.297 . S
O196 C183 1.236 . S
N197 Mn181 2.282 . S
N197 C198 1.328 . S
N197 C202 1.318 1_545 S
C198 N197 1.328 . S
C198 C199 1.457 . S
C198 H203 0.929 . S
C199 C198 1.457 . S
C199 C200 1.291 1_545 S
C199 H212 0.931 1_556 S
C200 C199 1.291 1_565 S
C200 C201 1.373 . S
C200 H213 0.929 . S
C201 C200 1.373 . S
C201 C202 1.396 . S
C201 C208 1.403 . S
C202 C192 1.476 . S
C202 N197 1.318 1_565 S
C202 C201 1.396 . S
H203 C198 0.929 . S
O204 Mn180 2.385 . S
O204 C182 1.234 . S
O205 Mn180 2.209 . S
O205 Mn181 2.215 . S
O205 C182 1.283 . S
O206 Mn180 2.094 . S
O206 C184 1.240 . S
O207 Mn181 2.117 . S
O207 C184 1.264 . S
C208 C201 1.403 . S
C208 C209 1.399 . S
C208 H214 0.929 . S
C209 C189 1.449 . S
C209 C208 1.399 . S
C209 H215 0.930 . S
H210 C190 0.931 . S
H211 C191 0.930 . S
H212 C199 0.931 1_554 S
H213 C200 0.929 . S
H214 C208 0.929 . S
H215 C209 0.930 . S
Mn216 O221 2.095 . S
Mn216 O231 2.162 . S
Mn216 O232 2.297 . S
Mn216 O240 2.385 . S
Mn216 O241 2.209 . S
Mn216 O242 2.094 . S
Mn217 O222 2.121 . S
Mn217 N224 2.257 . S
Mn217 N233 2.282 . S
Mn217 O241 2.215 . S
Mn217 O243 2.117 . S
C218 O240 1.234 . S
C218 O241 1.283 . S
C219 O231 1.281 1_545 S
C219 O232 1.236 1_545 S
C220 O242 1.240 . S
C220 O243 1.264 . S
O221 Mn216 2.095 . S
O221 C230 1.250 . S
O222 Mn217 2.121 . S
O222 C230 1.258 . S
C223 N224 1.326 . S
C223 C227 1.460 . S
C223 H229 0.929 . S
N224 Mn217 2.257 . S
N224 C223 1.326 . S
N224 C228 1.362 . S
C225 C226 1.258 . S
C225 C228 1.431 . S
C225 C245 1.449 . S
C226 C225 1.258 . S
C226 C227 1.477 . S
C226 H246 0.931 . S
C227 C223 1.460 . S
C227 C226 1.477 . S
C227 H247 0.930 . S
C228 N224 1.362 . S
C228 C225 1.431 . S
C228 C238 1.476 . S
H229 C223 0.929 . S
C230 O221 1.250 . S
C230 O222 1.258 . S
O231 Mn216 2.162 . S
O231 C219 1.281 1_565 S
O232 Mn216 2.297 . S
O232 C219 1.236 1_565 S
N233 Mn217 2.282 . S
N233 C234 1.328 . S
N233 C238 1.318 . S
C234 N233 1.328 . S
C234 C235 1.457 . S
C234 H239 0.929 . S
C235 C234 1.457 . S
C235 C236 1.291 . S
C235 H248 0.931 . S
C236 C235 1.291 . S
C236 C237 1.373 . S
C236 H249 0.929 . S
C237 C236 1.373 . S
C237 C238 1.396 . S
C237 C244 1.403 . S
C238 C228 1.476 . S
C238 N233 1.318 . S
C238 C237 1.396 . S
H239 C234 0.929 . S
O240 Mn216 2.385 . S
O240 C218 1.234 . S
O241 Mn216 2.209 . S
O241 Mn217 2.215 . S
O241 C218 1.283 . S
O242 Mn216 2.094 . S
O242 C220 1.240 . S
O243 Mn217 2.117 . S
O243 C220 1.264 . S
C244 C237 1.403 . S
C244 C245 1.399 . S
C244 H250 0.929 . S
C245 C225 1.449 . S
C245 C244 1.399 . S
C245 H251 0.930 . S
H246 C226 0.931 . S
H247 C227 0.930 . S
H248 C235 0.931 . S
H249 C236 0.929 . S
H250 C244 0.929 . S
H251 C245 0.930 . S
Mn252 O257 2.095 . S
Mn252 O267 2.162 . S
Mn252 O268 2.297 . S
Mn252 O276 2.385 . S
Mn252 O277 2.209 . S
Mn252 O278 2.094 . S
Mn253 O258 2.121 . S
Mn253 N260 2.257 . S
Mn253 N269 2.282 . S
Mn253 O277 2.215 . S
Mn253 O279 2.117 . S
C254 O276 1.234 . S
C254 O277 1.283 . S
C255 O267 1.281 . S
C255 O268 1.236 . S
C256 O278 1.240 . S
C256 O279 1.264 . S
O257 Mn252 2.095 . S
O257 C266 1.250 . S
O258 Mn253 2.121 . S
O258 C266 1.258 . S
C259 N260 1.326 . S
C259 C263 1.460 . S
C259 H265 0.929 . S
N260 Mn253 2.257 . S
N260 C259 1.326 . S
N260 C264 1.362 . S
C261 C262 1.258 . S
C261 C264 1.431 . S
C261 C281 1.449 . S
C262 C261 1.258 . S
C262 C263 1.477 . S
C262 H282 0.931 . S
C263 C259 1.460 . S
C263 C262 1.477 . S
C263 H283 0.930 . S
C264 N260 1.362 . S
C264 C261 1.431 . S
C264 C274 1.476 . S
H265 C259 0.929 . S
C266 O257 1.250 . S
C266 O258 1.258 . S
O267 Mn252 2.162 . S
O267 C255 1.281 . S
O268 Mn252 2.297 . S
O268 C255 1.236 . S
N269 Mn253 2.282 . S
N269 C270 1.328 . S
N269 C274 1.318 . S
C270 N269 1.328 . S
C270 C271 1.457 . S
C270 H275 0.929 . S
C271 C270 1.457 . S
C271 C272 1.291 . S
C271 H284 0.931 . S
C272 C271 1.291 . S
C272 C273 1.373 . S
C272 H285 0.929 . S
C273 C272 1.373 . S
C273 C274 1.396 . S
C273 C280 1.403 . S
C274 C264 1.476 . S
C274 N269 1.318 . S
C274 C273 1.396 . S
H275 C270 0.929 . S
O276 Mn252 2.385 . S
O276 C254 1.234 . S
O277 Mn252 2.209 . S
O277 Mn253 2.215 . S
O277 C254 1.283 . S
O278 Mn252 2.094 . S
O278 C256 1.240 . S
O279 Mn253 2.117 . S
O279 C256 1.264 . S
C280 C273 1.403 . S
C280 C281 1.399 . S
C280 H286 0.929 . S
C281 C261 1.449 . S
C281 C280 1.399 . S
C281 H287 0.930 . S
H282 C262 0.931 . S
H283 C263 0.930 . S
H284 C271 0.931 . S
H285 C272 0.929 . S
H286 C280 0.929 . S
H287 C281 0.930 . S
Mn288 O293 2.095 . S
Mn288 O303 2.162 . S
Mn288 O304 2.297 . S
Mn288 O312 2.385 . S
Mn288 O313 2.209 . S
Mn288 O314 2.094 . S
Mn289 O294 2.121 . S
Mn289 N296 2.257 . S
Mn289 N305 2.282 . S
Mn289 O313 2.215 . S
Mn289 O315 2.117 . S
C290 O312 1.234 . S
C290 O313 1.283 . S
C291 O303 1.281 . S
C291 O304 1.236 . S
C292 O314 1.240 . S
C292 O315 1.264 . S
O293 Mn288 2.095 . S
O293 C302 1.250 . S
O294 Mn289 2.121 . S
O294 C302 1.258 . S
C295 N296 1.326 . S
C295 C299 1.460 . S
C295 H301 0.929 . S
N296 Mn289 2.257 . S
N296 C295 1.326 . S
N296 C300 1.362 . S
C297 C298 1.258 . S
C297 C300 1.431 . S
C297 C317 1.449 . S
C298 C297 1.258 . S
C298 C299 1.477 . S
C298 H318 0.931 . S
C299 C295 1.460 . S
C299 C298 1.477 . S
C299 H319 0.930 . S
C300 N296 1.362 . S
C300 C297 1.431 . S
C300 C310 1.476 . S
H301 C295 0.929 . S
C302 O293 1.250 . S
C302 O294 1.258 . S
O303 Mn288 2.162 . S
O303 C291 1.281 . S
O304 Mn288 2.297 . S
O304 C291 1.236 . S
N305 Mn289 2.282 . S
N305 C306 1.328 . S
N305 C310 1.318 . S
C306 N305 1.328 . S
C306 C307 1.457 . S
C306 H311 0.929 . S
C307 C306 1.457 . S
C307 C308 1.291 . S
C307 H320 0.931 . S
C308 C307 1.291 . S
C308 C309 1.373 . S
C308 H321 0.929 . S
C309 C308 1.373 . S
C309 C310 1.396 . S
C309 C316 1.403 . S
C310 C300 1.476 . S
C310 N305 1.318 . S
C310 C309 1.396 . S
H311 C306 0.929 . S
O312 Mn288 2.385 . S
O312 C290 1.234 . S
O313 Mn288 2.209 . S
O313 Mn289 2.215 . S
O313 C290 1.283 . S
O314 Mn288 2.094 . S
O314 C292 1.240 . S
O315 Mn289 2.117 . S
O315 C292 1.264 . S
C316 C309 1.403 . S
C316 C317 1.399 . S
C316 H322 0.929 . S
C317 C297 1.449 . S
C317 C316 1.399 . S
C317 H323 0.930 . S
H318 C298 0.931 . S
H319 C299 0.930 . S
H320 C307 0.931 . S
H321 C308 0.929 . S
H322 C316 0.929 . S
H323 C317 0.930 . S
Mn324 O329 2.095 . S
Mn324 O339 2.162 . S
Mn324 O340 2.297 . S
Mn324 O348 2.385 . S
Mn324 O349 2.209 . S
Mn324 O350 2.094 . S
Mn325 O330 2.121 . S
Mn325 N332 2.257 . S
Mn325 N341 2.282 . S
Mn325 O349 2.215 . S
Mn325 O351 2.117 . S
C326 O348 1.234 . S
C326 O349 1.283 . S
C327 O339 1.281 . S
C327 O340 1.236 . S
C328 O350 1.240 . S
C328 O351 1.264 . S
O329 Mn324 2.095 . S
O329 C338 1.250 1_554 S
O330 Mn325 2.121 . S
O330 C338 1.258 1_554 S
C331 N332 1.326 . S
C331 C335 1.460 . S
C331 H337 0.929 1_554 S
N332 Mn325 2.257 . S
N332 C331 1.326 . S
N332 C336 1.362 . S
C333 C334 1.258 . S
C333 C336 1.431 . S
C333 C353 1.449 . S
C334 C333 1.258 . S
C334 C335 1.477 . S
C334 H354 0.931 . S
C335 C331 1.460 . S
C335 C334 1.477 . S
C335 H355 0.930 1_554 S
C336 N332 1.362 . S
C336 C333 1.431 . S
C336 C346 1.476 . S
H337 C331 0.929 1_556 S
C338 O329 1.250 1_556 S
C338 O330 1.258 1_556 S
O339 Mn324 2.162 . S
O339 C327 1.281 . S
O340 Mn324 2.297 . S
O340 C327 1.236 . S
N341 Mn325 2.282 . S
N341 C342 1.328 . S
N341 C346 1.318 . S
C342 N341 1.328 . S
C342 C343 1.457 . S
C342 H347 0.929 . S
C343 C342 1.457 . S
C343 C344 1.291 . S
C343 H356 0.931 . S
C344 C343 1.291 . S
C344 C345 1.373 . S
C344 H357 0.929 . S
C345 C344 1.373 . S
C345 C346 1.396 . S
C345 C352 1.403 . S
C346 C336 1.476 . S
C346 N341 1.318 . S
C346 C345 1.396 . S
H347 C342 0.929 . S
O348 Mn324 2.385 . S
O348 C326 1.234 . S
O349 Mn324 2.209 . S
O349 Mn325 2.215 . S
O349 C326 1.283 . S
O350 Mn324 2.094 . S
O350 C328 1.240 . S
O351 Mn325 2.117 . S
O351 C328 1.264 . S
C352 C345 1.403 . S
C352 C353 1.399 . S
C352 H358 0.929 . S
C353 C333 1.449 . S
C353 C352 1.399 . S
C353 H359 0.930 . S
H354 C334 0.931 . S
H355 C335 0.930 1_556 S
H356 C343 0.931 . S
H357 C344 0.929 . S
H358 C352 0.929 . S
H359 C353 0.930 . S
Mn360 O365 2.095 . S
Mn360 O375 2.162 . S
Mn360 O376 2.297 . S
Mn360 O384 2.385 . S
Mn360 O385 2.209 . S
Mn360 O386 2.094 . S
Mn361 O366 2.121 . S
Mn361 N368 2.257 . S
Mn361 N377 2.282 . S
Mn361 O385 2.215 . S
Mn361 O387 2.117 . S
C362 O384 1.242 . S
C362 O385 1.287 . S
C363 O375 1.281 . S
C363 O376 1.236 . S
C364 O386 1.240 . S
C364 O387 1.264 . S
O365 Mn360 2.095 . S
O365 C374 1.250 . S
O366 Mn361 2.121 . S
O366 C374 1.258 . S
C367 N368 1.326 . S
C367 C371 1.460 1_565 S
C367 H373 0.929 . S
N368 Mn361 2.257 . S
N368 C367 1.326 . S
N368 C372 1.329 1_565 S
C369 C370 1.258 . S
C369 C372 1.480 . S
C369 C389 1.449 . S
C370 C369 1.258 . S
C370 C371 1.477 . S
C370 H390 0.931 . S
C371 C367 1.460 1_545 S
C371 C370 1.477 . S
C371 H391 0.930 1_554 S
C372 N368 1.329 1_545 S
C372 C369 1.480 . S
C372 C382 1.463 1_545 S
H373 C367 0.929 . S
C374 O365 1.250 . S
C374 O366 1.258 . S
O375 Mn360 2.162 . S
O375 C363 1.281 . S
O376 Mn360 2.297 . S
O376 C363 1.236 . S
N377 Mn361 2.282 . S
N377 C378 1.328 . S
N377 C382 1.318 . S
C378 N377 1.328 . S
C378 C379 1.457 . S
C378 H383 0.929 . S
C379 C378 1.457 . S
C379 C380 1.291 1_565 S
C379 H392 0.931 . S
C380 C379 1.291 1_545 S
C380 C381 1.373 . S
C380 H393 0.929 . S
C381 C380 1.373 . S
C381 C382 1.396 1_545 S
C381 C388 1.403 . S
C382 C372 1.463 1_565 S
C382 N377 1.318 . S
C382 C381 1.396 1_565 S
H383 C378 0.929 . S
O384 Mn360 2.385 . S
O384 C362 1.242 . S
O385 Mn360 2.209 . S
O385 Mn361 2.215 . S
O385 C362 1.287 . S
O386 Mn360 2.094 . S
O386 C364 1.240 . S
O387 Mn361 2.117 . S
O387 C364 1.264 . S
C388 C381 1.403 . S
C388 C389 1.399 . S
C388 H394 0.929 . S
C389 C369 1.449 . S
C389 C388 1.399 . S
C389 H395 0.930 . S
H390 C370 0.931 . S
H391 C371 0.930 1_556 S
H392 C379 0.931 . S
H393 C380 0.929 . S
H394 C388 0.929 . S
H395 C389 0.930 . S
Mn396 O401 2.095 . S
Mn396 O411 2.162 . S
Mn396 O412 2.297 . S
Mn396 O420 2.385 . S
Mn396 O421 2.209 . S
Mn396 O422 2.094 . S
Mn397 O402 2.121 . S
Mn397 N404 2.257 . S
Mn397 N413 2.282 . S
Mn397 O421 2.215 . S
Mn397 O423 2.117 . S
C398 O420 1.234 . S
C398 O421 1.283 . S
C399 O411 1.281 . S
C399 O412 1.236 . S
C400 O422 1.240 . S
C400 O423 1.264 . S
O401 Mn396 2.095 . S
O401 C410 1.250 . S
O402 Mn397 2.121 . S
O402 C410 1.258 . S
C403 N404 1.326 . S
C403 C407 1.460 . S
C403 H409 0.929 . S
N404 Mn397 2.257 . S
N404 C403 1.326 . S
N404 C408 1.362 . S
C405 C406 1.258 . S
C405 C408 1.431 . S
C405 C425 1.449 . S
C406 C405 1.258 . S
C406 C407 1.477 . S
C406 H426 0.931 . S
C407 C403 1.460 . S
C407 C406 1.477 . S
C407 H427 0.930 . S
C408 N404 1.362 . S
C408 C405 1.431 . S
C408 C418 1.476 . S
H409 C403 0.929 . S
C410 O401 1.250 . S
C410 O402 1.258 . S
O411 Mn396 2.162 . S
O411 C399 1.281 . S
O412 Mn396 2.297 . S
O412 C399 1.236 . S
N413 Mn397 2.282 . S
N413 C414 1.328 . S
N413 C418 1.318 . S
C414 N413 1.328 . S
C414 C415 1.457 . S
C414 H419 0.929 . S
C415 C414 1.457 . S
C415 C416 1.291 . S
C415 H428 0.931 . S
C416 C415 1.291 . S
C416 C417 1.373 . S
C416 H429 0.929 . S
C417 C416 1.373 . S
C417 C418 1.396 . S
C417 C424 1.403 . S
C418 C408 1.476 . S
C418 N413 1.318 . S
C418 C417 1.396 . S
H419 C414 0.929 . S
O420 Mn396 2.385 . S
O420 C398 1.234 . S
O421 Mn396 2.209 . S
O421 Mn397 2.215 . S
O421 C398 1.283 . S
O422 Mn396 2.094 . S
O422 C400 1.240 . S
O423 Mn397 2.117 . S
O423 C400 1.264 . S
C424 C417 1.403 . S
C424 C425 1.399 . S
C424 H430 0.929 . S
C425 C405 1.449 . S
C425 C424 1.399 . S
C425 H431 0.930 . S
H426 C406 0.931 . S
H427 C407 0.930 . S
H428 C415 0.931 . S
H429 C416 0.929 . S
H430 C424 0.929 . S
H431 C425 0.930 . S
Mn432 O437 2.095 . S
Mn432 O447 2.162 . S
Mn432 O448 2.297 . S
Mn432 O456 2.385 . S
Mn432 O457 2.209 . S
Mn432 O458 2.094 . S
Mn433 O438 2.121 . S
Mn433 N440 2.257 . S
Mn433 N449 2.282 . S
Mn433 O457 2.215 . S
Mn433 O459 2.117 . S
C434 O456 1.234 . S
C434 O457 1.283 . S
C435 O447 1.281 . S
C435 O448 1.236 . S
C436 O458 1.240 . S
C436 O459 1.264 . S
O437 Mn432 2.095 . S
O437 C446 1.250 . S
O438 Mn433 2.121 . S
O438 C446 1.258 . S
C439 N440 1.326 . S
C439 C443 1.460 . S
C439 H445 0.929 . S
N440 Mn433 2.257 . S
N440 C439 1.326 . S
N440 C444 1.362 . S
C441 C442 1.258 . S
C441 C444 1.431 . S
C441 C461 1.449 . S
C442 C441 1.258 . S
C442 C443 1.477 . S
C442 H462 0.931 . S
C443 C439 1.460 . S
C443 C442 1.477 . S
C443 H463 0.930 . S
C444 N440 1.362 . S
C444 C441 1.431 . S
C444 C454 1.476 . S
H445 C439 0.929 . S
C446 O437 1.250 . S
C446 O438 1.258 . S
O447 Mn432 2.162 . S
O447 C435 1.281 . S
O448 Mn432 2.297 . S
O448 C435 1.236 . S
N449 Mn433 2.282 . S
N449 C450 1.328 . S
N449 C454 1.318 . S
C450 N449 1.328 . S
C450 C451 1.457 . S
C450 H455 0.929 . S
C451 C450 1.457 . S
C451 C452 1.291 . S
C451 H464 0.931 . S
C452 C451 1.291 . S
C452 C453 1.373 . S
C452 H465 0.929 . S
C453 C452 1.373 . S
C453 C454 1.396 . S
C453 C460 1.403 . S
C454 C444 1.476 . S
C454 N449 1.318 . S
C454 C453 1.396 . S
H455 C450 0.929 . S
O456 Mn432 2.385 . S
O456 C434 1.234 . S
O457 Mn432 2.209 . S
O457 Mn433 2.215 . S
O457 C434 1.283 . S
O458 Mn432 2.094 . S
O458 C436 1.240 . S
O459 Mn433 2.117 . S
O459 C436 1.264 . S
C460 C453 1.403 . S
C460 C461 1.399 . S
C460 H466 0.929 . S
C461 C441 1.449 . S
C461 C460 1.399 . S
C461 H467 0.930 . S
H462 C442 0.931 . S
H463 C443 0.930 . S
H464 C451 0.931 . S
H465 C452 0.929 . S
H466 C460 0.929 . S
H467 C461 0.930 . S
Mn468 O473 2.095 . S
Mn468 O483 2.162 . S
Mn468 O484 2.297 . S
Mn468 O492 2.385 1_556 S
Mn468 O493 2.209 . S
Mn468 O494 2.094 1_556 S
Mn469 O474 2.121 . S
Mn469 N476 2.257 . S
Mn469 N485 2.282 1_556 S
Mn469 O493 2.215 . S
Mn469 O495 2.117 1_556 S
C470 O492 1.234 1_556 S
C470 O493 1.283 . S
C471 O483 1.281 . S
C471 O484 1.236 . S
C472 O494 1.240 . S
C472 O495 1.264 . S
O473 Mn468 2.095 . S
O473 C482 1.250 . S
O474 Mn469 2.121 . S
O474 C482 1.258 . S
C475 N476 1.326 . S
C475 C479 1.460 . S
C475 H481 0.929 . S
N476 Mn469 2.257 . S
N476 C475 1.326 . S
N476 C480 1.364 1_556 S
C477 C478 1.258 . S
C477 C480 1.431 1_556 S
C477 C497 1.449 1_556 S
C478 C477 1.258 . S
C478 C479 1.477 . S
C478 H498 0.931 . S
C479 C475 1.460 . S
C479 C478 1.477 . S
C479 H499 0.930 . S
C480 N476 1.364 1_554 S
C480 C477 1.431 1_554 S
C480 C490 1.475 . S
H481 C475 0.929 . S
C482 O473 1.250 . S
C482 O474 1.258 . S
O483 Mn468 2.162 . S
O483 C471 1.281 . S
O484 Mn468 2.297 . S
O484 C471 1.236 . S
N485 Mn469 2.282 1_554 S
N485 C486 1.328 . S
N485 C490 1.318 . S
C486 N485 1.328 . S
C486 C487 1.457 . S
C486 H491 0.929 . S
C487 C486 1.457 . S
C487 C488 1.291 . S
C487 H500 0.931 . S
C488 C487 1.291 . S
C488 C489 1.373 . S
C488 H501 0.929 . S
C489 C488 1.373 . S
C489 C490 1.396 . S
C489 C496 1.403 . S
C490 C480 1.475 . S
C490 N485 1.318 . S
C490 C489 1.396 . S
H491 C486 0.929 . S
O492 Mn468 2.385 1_554 S
O492 C470 1.234 1_554 S
O493 Mn468 2.209 . S
O493 Mn469 2.215 . S
O493 C470 1.283 . S
O494 Mn468 2.094 1_554 S
O494 C472 1.240 . S
O495 Mn469 2.117 1_554 S
O495 C472 1.264 . S
C496 C489 1.403 . S
C496 C497 1.399 . S
C496 H502 0.929 . S
C497 C477 1.449 1_554 S
C497 C496 1.399 . S
C497 H503 0.930 . S
H498 C478 0.931 . S
H499 C479 0.930 . S
H500 C487 0.931 . S
H501 C488 0.929 . S
H502 C496 0.929 . S
H503 C497 0.930 . S
Mn504 O509 2.095 . S
Mn504 O519 2.162 . S
Mn504 O520 2.297 . S
Mn504 O528 2.385 1_655 S
Mn504 O529 2.209 1_655 S
Mn504 O530 2.094 . S
Mn505 O510 2.121 . S
Mn505 N512 2.257 1_655 S
Mn505 N521 2.282 1_655 S
Mn505 O529 2.215 1_655 S
Mn505 O531 2.117 . S
C506 O528 1.234 . S
C506 O529 1.283 . S
C507 O519 1.281 . S
C507 O520 1.236 . S
C508 O530 1.240 . S
C508 O531 1.264 . S
O509 Mn504 2.095 . S
O509 C518 1.250 . S
O510 Mn505 2.121 . S
O510 C518 1.258 . S
C511 N512 1.326 . S
C511 C515 1.460 . S
C511 H517 0.929 . S
N512 Mn505 2.257 1_455 S
N512 C511 1.326 . S
N512 C516 1.362 . S
C513 C514 1.258 . S
C513 C516 1.431 . S
C513 C533 1.449 . S
C514 C513 1.258 . S
C514 C515 1.477 . S
C514 H534 0.931 . S
C515 C511 1.460 . S
C515 C514 1.477 . S
C515 H535 0.930 1_556 S
C516 N512 1.362 . S
C516 C513 1.431 . S
C516 C526 1.476 . S
H517 C511 0.929 . S
C518 O509 1.250 . S
C518 O510 1.258 . S
O519 Mn504 2.162 . S
O519 C507 1.281 . S
O520 Mn504 2.297 . S
O520 C507 1.236 . S
N521 Mn505 2.282 1_455 S
N521 C522 1.332 1_455 S
N521 C526 1.318 . S
C522 N521 1.332 1_655 S
C522 C523 1.442 1_655 S
C522 H527 0.941 . S
C523 C522 1.442 1_455 S
C523 C524 1.291 . S
C523 H536 0.931 . S
C524 C523 1.291 . S
C524 C525 1.373 . S
C524 H537 0.929 . S
C525 C524 1.373 . S
C525 C526 1.396 . S
C525 C532 1.403 . S
C526 C516 1.476 . S
C526 N521 1.318 . S
C526 C525 1.396 . S
H527 C522 0.941 . S
O528 Mn504 2.385 1_455 S
O528 C506 1.234 . S
O529 Mn504 2.209 1_455 S
O529 Mn505 2.215 1_455 S
O529 C506 1.283 . S
O530 Mn504 2.094 . S
O530 C508 1.240 . S
O531 Mn505 2.117 . S
O531 C508 1.264 . S
C532 C525 1.403 . S
C532 C533 1.399 . S
C532 H538 0.929 . S
C533 C513 1.449 . S
C533 C532 1.399 . S
C533 H539 0.930 . S
H534 C514 0.931 . S
H535 C515 0.930 1_554 S
H536 C523 0.931 . S
H537 C524 0.929 . S
H538 C532 0.929 . S
H539 C533 0.930 . S
Mn540 O545 2.095 . S
Mn540 O555 2.162 . S
Mn540 O556 2.297 . S
Mn540 O564 2.385 . S
Mn540 O565 2.209 . S
Mn540 O566 2.094 . S
Mn541 O546 2.121 . S
Mn541 N548 2.257 . S
Mn541 N557 2.282 . S
Mn541 O565 2.215 . S
Mn541 O567 2.117 . S
C542 O564 1.234 . S
C542 O565 1.283 . S
C543 O555 1.281 . S
C543 O556 1.236 . S
C544 O566 1.240 . S
C544 O567 1.264 . S
O545 Mn540 2.095 . S
O545 C554 1.250 . S
O546 Mn541 2.121 . S
O546 C554 1.258 . S
C547 N548 1.326 . S
C547 C551 1.460 . S
C547 H553 0.929 . S
N548 Mn541 2.257 . S
N548 C547 1.326 . S
N548 C552 1.362 . S
C549 C550 1.258 . S
C549 C552 1.431 . S
C549 C569 1.449 . S
C550 C549 1.258 . S
C550 C551 1.477 . S
C550 H570 0.931 . S
C551 C547 1.460 . S
C551 C550 1.477 . S
C551 H571 0.930 . S
C552 N548 1.362 . S
C552 C549 1.431 . S
C552 C562 1.476 . S
H553 C547 0.929 . S
C554 O545 1.250 . S
C554 O546 1.258 . S
O555 Mn540 2.162 . S
O555 C543 1.281 . S
O556 Mn540 2.297 . S
O556 C543 1.236 . S
N557 Mn541 2.282 . S
N557 C558 1.328 . S
N557 C562 1.318 . S
C558 N557 1.328 . S
C558 C559 1.457 . S
C558 H563 0.929 . S
C559 C558 1.457 . S
C559 C560 1.291 . S
C559 H572 0.931 . S
C560 C559 1.291 . S
C560 C561 1.373 . S
C560 H573 0.929 . S
C561 C560 1.373 . S
C561 C562 1.396 . S
C561 C568 1.403 . S
C562 C552 1.476 . S
C562 N557 1.318 . S
C562 C561 1.396 . S
H563 C558 0.929 . S
O564 Mn540 2.385 . S
O564 C542 1.234 . S
O565 Mn540 2.209 . S
O565 Mn541 2.215 . S
O565 C542 1.283 . S
O566 Mn540 2.094 . S
O566 C544 1.240 . S
O567 Mn541 2.117 . S
O567 C544 1.264 . S
C568 C561 1.403 . S
C568 C569 1.399 . S
C568 H574 0.929 . S
C569 C549 1.449 . S
C569 C568 1.399 . S
C569 H575 0.930 . S
H570 C550 0.931 . S
H571 C551 0.930 . S
H572 C559 0.931 . S
H573 C560 0.929 . S
H574 C568 0.929 . S
H575 C569 0.930 . S
Mn576 O581 2.095 . S
Mn576 O591 2.162 1_655 S
Mn576 O592 2.297 1_655 S
Mn576 O600 2.385 1_655 S
Mn576 O601 2.209 . S
Mn576 O602 2.094 . S
Mn577 O582 2.121 . S
Mn577 N584 2.257 . S
Mn577 N593 2.282 . S
Mn577 O601 2.215 . S
Mn577 O603 2.117 . S
C578 O600 1.218 1_655 S
C578 O601 1.283 . S
C579 O591 1.281 . S
C579 O592 1.236 . S
C580 O602 1.240 . S
C580 O603 1.264 . S
O581 Mn576 2.095 . S
O581 C590 1.250 . S
O582 Mn577 2.121 . S
O582 C590 1.258 . S
C583 N584 1.326 . S
C583 C587 1.460 . S
C583 H589 0.929 . S
N584 Mn577 2.257 . S
N584 C583 1.326 . S
N584 C588 1.362 . S
C585 C586 1.258 . S
C585 C588 1.431 . S
C585 C605 1.449 . S
C586 C585 1.258 . S
C586 C587 1.477 . S
C586 H606 0.931 . S
C587 C583 1.460 . S
C587 C586 1.477 . S
C587 H607 0.930 . S
C588 N584 1.362 . S
C588 C585 1.431 . S
C588 C598 1.476 . S
H589 C583 0.929 . S
C590 O581 1.250 . S
C590 O582 1.258 . S
O591 Mn576 2.162 1_455 S
O591 C579 1.281 . S
O592 Mn576 2.297 1_455 S
O592 C579 1.236 . S
N593 Mn577 2.282 . S
N593 C594 1.328 . S
N593 C598 1.318 . S
C594 N593 1.328 . S
C594 C595 1.457 . S
C594 H599 0.929 . S
C595 C594 1.457 . S
C595 C596 1.291 . S
C595 H608 0.931 . S
C596 C595 1.291 . S
C596 C597 1.373 . S
C596 H609 0.929 . S
C597 C596 1.373 . S
C597 C598 1.396 . S
C597 C604 1.403 . S
C598 C588 1.476 . S
C598 N593 1.318 . S
C598 C597 1.396 . S
H599 C594 0.929 . S
O600 Mn576 2.385 1_455 S
O600 C578 1.218 1_455 S
O601 Mn576 2.209 . S
O601 Mn577 2.215 . S
O601 C578 1.283 . S
O602 Mn576 2.094 . S
O602 C580 1.240 . S
O603 Mn577 2.117 . S
O603 C580 1.264 . S
C604 C597 1.403 . S
C604 C605 1.399 . S
C604 H610 0.929 . S
C605 C585 1.449 . S
C605 C604 1.399 . S
C605 H611 0.930 . S
H606 C586 0.931 . S
H607 C587 0.930 . S
H608 C595 0.931 . S
H609 C596 0.929 . S
H610 C604 0.929 . S
H611 C605 0.930 . S
Mn612 O617 2.095 . S
Mn612 O627 2.162 . S
Mn612 O628 2.297 . S
Mn612 O636 2.385 . S
Mn612 O637 2.209 . S
Mn612 O638 2.094 . S
Mn613 O618 2.121 . S
Mn613 N620 2.257 . S
Mn613 N629 2.282 . S
Mn613 O637 2.215 . S
Mn613 O639 2.117 . S
C614 O636 1.234 . S
C614 O637 1.283 . S
C615 O627 1.281 . S
C615 O628 1.236 . S
C616 O638 1.240 . S
C616 O639 1.264 . S
O617 Mn612 2.095 . S
O617 C626 1.250 . S
O618 Mn613 2.121 . S
O618 C626 1.258 . S
C619 N620 1.326 . S
C619 C623 1.460 . S
C619 H625 0.929 . S
N620 Mn613 2.257 . S
N620 C619 1.326 . S
N620 C624 1.362 . S
C621 C622 1.258 . S
C621 C624 1.431 . S
C621 C641 1.449 . S
C622 C621 1.258 . S
C622 C623 1.477 . S
C622 H642 0.931 . S
C623 C619 1.460 . S
C623 C622 1.477 . S
C623 H643 0.930 . S
C624 N620 1.362 . S
C624 C621 1.431 . S
C624 C634 1.476 . S
H625 C619 0.929 . S
C626 O617 1.250 . S
C626 O618 1.258 . S
O627 Mn612 2.162 . S
O627 C615 1.281 . S
O628 Mn612 2.297 . S
O628 C615 1.236 . S
N629 Mn613 2.282 . S
N629 C630 1.328 . S
N629 C634 1.318 . S
C630 N629 1.328 . S
C630 C631 1.457 . S
C630 H635 0.929 . S
C631 C630 1.457 . S
C631 C632 1.291 . S
C631 H644 0.931 . S
C632 C631 1.291 . S
C632 C633 1.373 . S
C632 H645 0.929 . S
C633 C632 1.373 . S
C633 C634 1.396 . S
C633 C640 1.403 . S
C634 C624 1.476 . S
C634 N629 1.318 . S
C634 C633 1.396 . S
H635 C630 0.929 . S
O636 Mn612 2.385 . S
O636 C614 1.234 . S
O637 Mn612 2.209 . S
O637 Mn613 2.215 . S
O637 C614 1.283 . S
O638 Mn612 2.094 . S
O638 C616 1.240 . S
O639 Mn613 2.117 . S
O639 C616 1.264 . S
C640 C633 1.403 . S
C640 C641 1.399 . S
C640 H646 0.929 . S
C641 C621 1.449 . S
C641 C640 1.399 . S
C641 H647 0.930 . S
H642 C622 0.931 . S
H643 C623 0.930 . S
H644 C631 0.931 . S
H645 C632 0.929 . S
H646 C640 0.929 . S
H647 C641 0.930 . S
C648 C649 1.391 . S
C648 C650 1.394 . S
C648 H664 0.931 . S
C649 C648 1.391 . S
C649 C653 1.376 . S
C650 C648 1.394 . S
C650 C651 1.369 . S
C650 C654 1.531 . S
C651 C650 1.369 . S
C651 C652 1.410 . S
C651 C659 1.503 1_556 S
C652 C651 1.410 . S
C652 C653 1.392 . S
C652 C655 1.511 . S
C653 C649 1.376 . S
C653 C652 1.392 . S
C653 H665 0.929 . S
C654 C650 1.531 . S
C654 H666 0.960 1_556 S
C654 H667 0.962 1_556 S
C654 H668 0.960 . S
C655 C652 1.511 . S
C655 H669 0.961 . S
C655 H670 0.961 . S
C655 H671 0.961 . S
C656 C657 1.370 . S
C656 C658 1.363 . S
C656 H672 0.931 . S
C657 C656 1.370 . S
C657 C661 1.408 . S
C658 C656 1.363 . S
C658 C659 1.370 . S
C658 C662 1.524 . S
C659 C651 1.503 1_554 S
C659 C658 1.370 . S
C659 C660 1.403 1_554 S
C660 C659 1.403 1_556 S
C660 C661 1.404 1_556 S
C660 C663 1.539 . S
C661 C657 1.408 . S
C661 C660 1.404 1_554 S
C661 H673 0.930 . S
C662 C658 1.524 . S
C662 H674 0.956 . S
C662 H675 0.961 . S
C662 H676 0.961 . S
C663 C660 1.539 . S
C663 H677 0.958 . S
C663 H678 0.961 . S
C663 H679 0.960 . S
H664 C648 0.931 . S
H665 C653 0.929 . S
H666 C654 0.960 1_554 S
H667 C654 0.962 1_554 S
H668 C654 0.960 . S
H669 C655 0.961 . S
H670 C655 0.961 . S
H671 C655 0.961 . S
H672 C656 0.931 . S
H673 C661 0.930 . S
H674 C662 0.956 . S
H675 C662 0.961 . S
H676 C662 0.961 . S
H677 C663 0.958 . S
H678 C663 0.961 . S
H679 C663 0.960 . S
C680 C681 1.391 . S
C680 C682 1.394 . S
C680 H696 0.931 . S
C681 C680 1.391 . S
C681 C685 1.376 . S
C682 C680 1.394 . S
C682 C683 1.369 . S
C682 C686 1.531 . S
C683 C682 1.369 . S
C683 C684 1.410 . S
C683 C691 1.503 1_556 S
C684 C683 1.410 . S
C684 C685 1.392 . S
C684 C687 1.511 1_556 S
C685 C681 1.376 . S
C685 C684 1.392 . S
C685 H697 0.929 . S
C686 C682 1.531 . S
C686 H698 0.960 . S
C686 H699 0.962 . S
C686 H700 0.960 . S
C687 C684 1.511 1_554 S
C687 H701 0.961 . S
C687 H702 0.961 . S
C687 H703 0.961 . S
C688 C689 1.370 . S
C688 C690 1.363 . S
C688 H704 0.931 . S
C689 C688 1.370 . S
C689 C693 1.408 . S
C690 C688 1.363 . S
C690 C691 1.370 . S
C690 C694 1.524 . S
C691 C683 1.503 1_554 S
C691 C690 1.370 . S
C691 C692 1.403 . S
C692 C691 1.403 . S
C692 C693 1.404 . S
C692 C695 1.539 1_554 S
C693 C689 1.408 . S
C693 C692 1.404 . S
C693 H705 0.930 . S
C694 C690 1.524 . S
C694 H706 0.956 . S
C694 H707 0.961 . S
C694 H708 0.961 . S
C695 C692 1.539 1_556 S
C695 H709 0.958 . S
C695 H710 0.961 . S
C695 H711 0.960 . S
H696 C680 0.931 . S
H697 C685 0.929 . S
H698 C686 0.960 . S
H699 C686 0.962 . S
H700 C686 0.960 . S
H701 C687 0.961 . S
H702 C687 0.961 . S
H703 C687 0.961 . S
H704 C688 0.931 . S
H705 C693 0.930 . S
H706 C694 0.956 . S
H707 C694 0.961 . S
H708 C694 0.961 . S
H709 C695 0.958 . S
H710 C695 0.961 . S
H711 C695 0.960 . S
C712 C713 1.391 . S
C712 C714 1.394 . S
C712 H728 0.931 . S
C713 C712 1.391 . S
C713 C717 1.376 . S
C714 C712 1.394 . S
C714 C715 1.369 . S
C714 C718 1.531 . S
C715 C714 1.369 . S
C715 C716 1.410 . S
C715 C723 1.503 1_554 S
C716 C715 1.410 . S
C716 C717 1.392 . S
C716 C719 1.511 1_554 S
C717 C713 1.376 . S
C717 C716 1.392 . S
C717 H729 0.929 . S
C718 C714 1.531 . S
C718 H730 0.960 . S
C718 H731 0.962 . S
C718 H732 0.960 . S
C719 C716 1.511 1_556 S
C719 H733 0.961 . S
C719 H734 0.961 . S
C719 H735 0.961 1_556 S
C720 C721 1.370 . S
C720 C722 1.363 . S
C720 H736 0.931 . S
C721 C720 1.370 . S
C721 C725 1.408 . S
C722 C720 1.363 . S
C722 C723 1.370 . S
C722 C726 1.524 . S
C723 C715 1.503 1_556 S
C723 C722 1.370 . S
C723 C724 1.403 . S
C724 C723 1.403 . S
C724 C725 1.404 . S
C724 C727 1.539 1_556 S
C725 C721 1.408 . S
C725 C724 1.404 . S
C725 H737 0.930 . S
C726 C722 1.524 . S
C726 H738 0.956 . S
C726 H739 0.961 . S
C726 H740 0.961 . S
C727 C724 1.539 1_554 S
C727 H741 0.958 . S
C727 H742 0.961 . S
C727 H743 0.960 . S
H728 C712 0.931 . S
H729 C717 0.929 . S
H730 C718 0.960 . S
H731 C718 0.962 . S
H732 C718 0.960 . S
H733 C719 0.961 . S
H734 C719 0.961 . S
H735 C719 0.961 1_554 S
H736 C720 0.931 . S
H737 C725 0.930 . S
H738 C726 0.956 . S
H739 C726 0.961 . S
H740 C726 0.961 . S
H741 C727 0.958 . S
H742 C727 0.961 . S
H743 C727 0.960 . S
C744 C745 1.391 . S
C744 C746 1.394 . S
C744 H760 0.931 . S
C745 C744 1.391 . S
C745 C749 1.376 . S
C746 C744 1.394 . S
C746 C747 1.369 . S
C746 C750 1.531 . S
C747 C746 1.369 . S
C747 C748 1.410 . S
C747 C755 1.503 . S
C748 C747 1.410 . S
C748 C749 1.392 . S
C748 C751 1.511 . S
C749 C745 1.376 . S
C749 C748 1.392 . S
C749 H761 0.929 . S
C750 C746 1.531 . S
C750 H762 0.960 . S
C750 H763 0.962 . S
C750 H764 0.960 . S
C751 C748 1.511 . S
C751 H765 0.961 . S
C751 H766 0.961 . S
C751 H767 0.961 . S
C752 C753 1.370 . S
C752 C754 1.363 . S
C752 H768 0.931 . S
C753 C752 1.370 . S
C753 C757 1.408 . S
C754 C752 1.363 . S
C754 C755 1.370 . S
C754 C758 1.524 . S
C755 C747 1.503 . S
C755 C754 1.370 . S
C755 C756 1.403 . S
C756 C755 1.403 . S
C756 C757 1.404 . S
C756 C759 1.539 . S
C757 C753 1.408 . S
C757 C756 1.404 . S
C757 H769 0.930 . S
C758 C754 1.524 . S
C758 H770 0.956 . S
C758 H771 0.961 . S
C758 H772 0.961 . S
C759 C756 1.539 . S
C759 H773 0.958 . S
C759 H774 0.961 . S
C759 H775 0.960 . S
H760 C744 0.931 . S
H761 C749 0.929 . S
H762 C750 0.960 . S
H763 C750 0.962 . S
H764 C750 0.960 . S
H765 C751 0.961 . S
H766 C751 0.961 . S
H767 C751 0.961 . S
H768 C752 0.931 . S
H769 C757 0.930 . S
H770 C758 0.956 . S
H771 C758 0.961 . S
H772 C758 0.961 . S
H773 C759 0.958 . S
H774 C759 0.961 . S
H775 C759 0.960 . S
C776 C777 1.391 . S
C776 C778 1.394 . S
C776 H792 0.931 . S
C777 C776 1.391 . S
C777 C781 1.376 . S
C778 C776 1.394 . S
C778 C779 1.369 . S
C778 C782 1.531 . S
C779 C778 1.369 . S
C779 C780 1.410 . S
C779 C787 1.503 . S
C780 C779 1.410 . S
C780 C781 1.392 . S
C780 C783 1.511 . S
C781 C777 1.376 . S
C781 C780 1.392 . S
C781 H793 0.929 . S
C782 C778 1.531 . S
C782 H794 0.960 . S
C782 H795 0.962 . S
C782 H796 0.960 . S
C783 C780 1.511 . S
C783 H797 0.961 . S
C783 H798 0.961 . S
C783 H799 0.961 . S
C784 C785 1.370 . S
C784 C786 1.363 . S
C784 H800 0.931 . S
C785 C784 1.370 . S
C785 C789 1.408 . S
C786 C784 1.363 . S
C786 C787 1.370 . S
C786 C790 1.524 . S
C787 C779 1.503 . S
C787 C786 1.370 . S
C787 C788 1.403 . S
C788 C787 1.403 . S
C788 C789 1.404 . S
C788 C791 1.539 . S
C789 C785 1.408 . S
C789 C788 1.404 . S
C789 H801 0.930 . S
C790 C786 1.524 . S
C790 H802 0.956 . S
C790 H803 0.961 . S
C790 H804 0.961 . S
C791 C788 1.539 . S
C791 H805 0.958 . S
C791 H806 0.961 . S
C791 H807 0.960 . S
H792 C776 0.931 . S
H793 C781 0.929 . S
H794 C782 0.960 . S
H795 C782 0.962 . S
H796 C782 0.960 . S
H797 C783 0.961 . S
H798 C783 0.961 . S
H799 C783 0.961 . S
H800 C784 0.931 . S
H801 C789 0.930 . S
H802 C790 0.956 . S
H803 C790 0.961 . S
H804 C790 0.961 . S
H805 C791 0.958 . S
H806 C791 0.961 . S
H807 C791 0.960 . S
C808 C809 1.391 . S
C808 C810 1.394 . S
C808 H824 0.931 . S
C809 C808 1.391 . S
C809 C813 1.376 . S
C810 C808 1.394 . S
C810 C811 1.369 . S
C810 C814 1.531 . S
C811 C810 1.369 . S
C811 C812 1.410 . S
C811 C819 1.503 . S
C812 C811 1.410 . S
C812 C813 1.392 . S
C812 C815 1.511 . S
C813 C809 1.376 . S
C813 C812 1.392 . S
C813 H825 0.929 . S
C814 C810 1.531 . S
C814 H826 0.960 . S
C814 H827 0.962 . S
C814 H828 0.960 . S
C815 C812 1.511 . S
C815 H829 0.961 . S
C815 H830 0.961 . S
C815 H831 0.961 . S
C816 C817 1.370 . S
C816 C818 1.363 . S
C816 H832 0.931 . S
C817 C816 1.370 . S
C817 C821 1.408 . S
C818 C816 1.363 . S
C818 C819 1.370 . S
C818 C822 1.524 . S
C819 C811 1.503 . S
C819 C818 1.370 . S
C819 C820 1.403 . S
C820 C819 1.403 . S
C820 C821 1.404 . S
C820 C823 1.539 . S
C821 C817 1.408 . S
C821 C820 1.404 . S
C821 H833 0.930 . S
C822 C818 1.524 . S
C822 H834 0.956 . S
C822 H835 0.961 . S
C822 H836 0.961 . S
C823 C820 1.539 . S
C823 H837 0.958 . S
C823 H838 0.961 . S
C823 H839 0.960 . S
H824 C808 0.931 . S
H825 C813 0.929 . S
H826 C814 0.960 . S
H827 C814 0.962 . S
H828 C814 0.960 . S
H829 C815 0.961 . S
H830 C815 0.961 . S
H831 C815 0.961 . S
H832 C816 0.931 . S
H833 C821 0.930 . S
H834 C822 0.956 . S
H835 C822 0.961 . S
H836 C822 0.961 . S
H837 C823 0.958 . S
H838 C823 0.961 . S
H839 C823 0.960 . S
C840 C841 1.391 . S
C840 C842 1.394 . S
C840 H856 0.931 . S
C841 C840 1.391 . S
C841 C845 1.376 . S
C842 C840 1.394 . S
C842 C843 1.369 . S
C842 C846 1.531 . S
C843 C842 1.369 . S
C843 C844 1.410 . S
C843 C851 1.503 . S
C844 C843 1.410 . S
C844 C845 1.392 . S
C844 C847 1.511 . S
C845 C841 1.376 . S
C845 C844 1.392 . S
C845 H857 0.929 . S
C846 C842 1.531 . S
C846 H858 0.960 . S
C846 H859 0.962 . S
C846 H860 0.960 . S
C847 C844 1.511 . S
C847 H861 0.961 . S
C847 H862 0.961 . S
C847 H863 0.961 . S
C848 C849 1.370 . S
C848 C850 1.363 . S
C848 H864 0.931 . S
C849 C848 1.370 . S
C849 C853 1.408 . S
C850 C848 1.363 . S
C850 C851 1.370 . S
C850 C854 1.524 . S
C851 C843 1.503 . S
C851 C850 1.370 . S
C851 C852 1.403 . S
C852 C851 1.403 . S
C852 C853 1.404 . S
C852 C855 1.539 . S
C853 C849 1.408 . S
C853 C852 1.404 . S
C853 H865 0.930 . S
C854 C850 1.524 . S
C854 H866 0.956 . S
C854 H867 0.961 . S
C854 H868 0.961 . S
C855 C852 1.539 . S
C855 H869 0.958 . S
C855 H870 0.961 . S
C855 H871 0.960 . S
H856 C840 0.931 . S
H857 C845 0.929 . S
H858 C846 0.960 . S
H859 C846 0.962 . S
H860 C846 0.960 . S
H861 C847 0.961 . S
H862 C847 0.961 . S
H863 C847 0.961 . S
H864 C848 0.931 . S
H865 C853 0.930 . S
H866 C854 0.956 . S
H867 C854 0.961 . S
H868 C854 0.961 . S
H869 C855 0.958 . S
H870 C855 0.961 . S
H871 C855 0.960 . S
C872 C873 1.391 . S
C872 C874 1.394 . S
C872 H888 0.931 . S
C873 C872 1.391 . S
C873 C877 1.376 . S
C874 C872 1.394 . S
C874 C875 1.369 . S
C874 C878 1.531 . S
C875 C874 1.369 . S
C875 C876 1.410 . S
C875 C883 1.503 . S
C876 C875 1.410 . S
C876 C877 1.392 . S
C876 C879 1.511 . S
C877 C873 1.376 . S
C877 C876 1.392 . S
C877 H889 0.929 . S
C878 C874 1.531 . S
C878 H890 0.960 . S
C878 H891 0.962 . S
C878 H892 0.960 . S
C879 C876 1.511 . S
C879 H893 0.961 . S
C879 H894 0.961 . S
C879 H895 0.961 . S
C880 C881 1.370 . S
C880 C882 1.363 . S
C880 H896 0.931 . S
C881 C880 1.370 . S
C881 C885 1.408 . S
C882 C880 1.363 . S
C882 C883 1.370 . S
C882 C886 1.524 . S
C883 C875 1.503 . S
C883 C882 1.370 . S
C883 C884 1.403 . S
C884 C883 1.403 . S
C884 C885 1.404 . S
C884 C887 1.539 . S
C885 C881 1.408 . S
C885 C884 1.404 . S
C885 H897 0.930 . S
C886 C882 1.524 . S
C886 H898 0.956 . S
C886 H899 0.961 . S
C886 H900 0.961 . S
C887 C884 1.539 . S
C887 H901 0.958 . S
C887 H902 0.961 . S
C887 H903 0.960 . S
H888 C872 0.931 . S
H889 C877 0.929 . S
H890 C878 0.960 . S
H891 C878 0.962 . S
H892 C878 0.960 . S
H893 C879 0.961 . S
H894 C879 0.961 . S
H895 C879 0.961 . S
H896 C880 0.931 . S
H897 C885 0.930 . S
H898 C886 0.956 . S
H899 C886 0.961 . S
H900 C886 0.961 . S
H901 C887 0.958 . S
H902 C887 0.961 . S
H903 C887 0.960 . S
C904 C905 1.391 . S
C904 C906 1.394 . S
C904 H920 0.931 . S
C905 C904 1.391 . S
C905 C909 1.376 . S
C906 C904 1.394 . S
C906 C907 1.369 . S
C906 C910 1.531 . S
C907 C906 1.369 . S
C907 C908 1.410 . S
C907 C915 1.503 . S
C908 C907 1.410 . S
C908 C909 1.392 . S
C908 C911 1.511 . S
C909 C905 1.376 . S
C909 C908 1.392 . S
C909 H921 0.929 . S
C910 C906 1.531 . S
C910 H922 0.960 . S
C910 H923 0.962 . S
C910 H924 0.960 . S
C911 C908 1.511 . S
C911 H925 0.961 . S
C911 H926 0.961 . S
C911 H927 0.961 . S
C912 C913 1.370 . S
C912 C914 1.363 . S
C912 H928 0.931 . S
C913 C912 1.370 . S
C913 C917 1.408 . S
C914 C912 1.363 . S
C914 C915 1.370 . S
C914 C918 1.524 . S
C915 C907 1.503 . S
C915 C914 1.370 . S
C915 C916 1.403 . S
C916 C915 1.403 . S
C916 C917 1.404 . S
C916 C919 1.539 . S
C917 C913 1.408 . S
C917 C916 1.404 . S
C917 H929 0.930 . S
C918 C914 1.524 . S
C918 H930 0.956 . S
C918 H931 0.961 . S
C918 H932 0.961 . S
C919 C916 1.539 . S
C919 H933 0.958 . S
C919 H934 0.961 . S
C919 H935 0.960 . S
H920 C904 0.931 . S
H921 C909 0.929 . S
H922 C910 0.960 . S
H923 C910 0.962 . S
H924 C910 0.960 . S
H925 C911 0.961 . S
H926 C911 0.961 . S
H927 C911 0.961 . S
H928 C912 0.931 . S
H929 C917 0.930 . S
H930 C918 0.956 . S
H931 C918 0.961 . S
H932 C918 0.961 . S
H933 C919 0.958 . S
H934 C919 0.961 . S
H935 C919 0.960 . S
C936 C937 1.391 . S
C936 C938 1.394 . S
C936 H952 0.931 . S
C937 C936 1.391 . S
C937 C941 1.376 . S
C938 C936 1.394 . S
C938 C939 1.369 . S
C938 C942 1.531 . S
C939 C938 1.369 . S
C939 C940 1.410 . S
C939 C947 1.503 . S
C940 C939 1.410 . S
C940 C941 1.392 . S
C940 C943 1.511 . S
C941 C937 1.376 . S
C941 C940 1.392 . S
C941 H953 0.929 1_556 S
C942 C938 1.531 . S
C942 H954 0.960 . S
C942 H955 0.962 . S
C942 H956 0.960 . S
C943 C940 1.511 . S
C943 H957 0.961 . S
C943 H958 0.961 . S
C943 H959 0.961 . S
C944 C945 1.370 . S
C944 C946 1.363 . S
C944 H960 0.931 . S
C945 C944 1.370 . S
C945 C949 1.408 . S
C946 C944 1.363 . S
C946 C947 1.370 . S
C946 C950 1.524 . S
C947 C939 1.503 . S
C947 C946 1.370 . S
C947 C948 1.403 . S
C948 C947 1.403 . S
C948 C949 1.404 . S
C948 C951 1.539 . S
C949 C945 1.408 . S
C949 C948 1.404 . S
C949 H961 0.930 . S
C950 C946 1.524 . S
C950 H962 0.956 . S
C950 H963 0.961 . S
C950 H964 0.961 . S
C951 C948 1.539 . S
C951 H965 0.958 . S
C951 H966 0.961 . S
C951 H967 0.960 . S
H952 C936 0.931 . S
H953 C941 0.929 1_554 S
H954 C942 0.960 . S
H955 C942 0.962 . S
H956 C942 0.960 . S
H957 C943 0.961 . S
H958 C943 0.961 . S
H959 C943 0.961 . S
H960 C944 0.931 . S
H961 C949 0.930 . S
H962 C950 0.956 . S
H963 C950 0.961 . S
H964 C950 0.961 . S
H965 C951 0.958 . S
H966 C951 0.961 . S
H967 C951 0.960 . S
C968 C969 1.391 . S
C968 C970 1.394 . S
C968 H984 0.931 . S
C969 C968 1.391 . S
C969 C973 1.376 . S
C970 C968 1.394 . S
C970 C971 1.369 . S
C970 C974 1.531 . S
C971 C970 1.369 . S
C971 C972 1.410 . S
C971 C979 1.503 . S
C972 C971 1.410 . S
C972 C973 1.392 . S
C972 C975 1.511 . S
C973 C969 1.376 . S
C973 C972 1.392 . S
C973 H985 0.929 . S
C974 C970 1.531 . S
C974 H986 0.960 . S
C974 H987 0.962 . S
C974 H988 0.960 . S
C975 C972 1.511 . S
C975 H989 0.961 . S
C975 H990 0.961 . S
C975 H991 0.961 . S
C976 C977 1.370 . S
C976 C978 1.363 . S
C976 H992 0.931 . S
C977 C976 1.370 . S
C977 C981 1.408 . S
C978 C976 1.363 . S
C978 C979 1.370 . S
C978 C982 1.524 . S
C979 C971 1.503 . S
C979 C978 1.370 . S
C979 C980 1.403 . S
C980 C979 1.403 . S
C980 C981 1.404 . S
C980 C983 1.539 . S
C981 C977 1.408 . S
C981 C980 1.404 . S
C981 H993 0.930 . S
C982 C978 1.524 . S
C982 H994 0.956 . S
C982 H995 0.961 . S
C982 H996 0.961 . S
C983 C980 1.539 . S
C983 H997 0.958 . S
C983 H998 0.961 . S
C983 H999 0.960 . S
H984 C968 0.931 . S
H985 C973 0.929 . S
H986 C974 0.960 . S
H987 C974 0.962 . S
H988 C974 0.960 . S
H989 C975 0.961 . S
H990 C975 0.961 . S
H991 C975 0.961 . S
H992 C976 0.931 . S
H993 C981 0.930 . S
H994 C982 0.956 . S
H995 C982 0.961 . S
H996 C982 0.961 . S
H997 C983 0.958 . S
H998 C983 0.961 . S
H999 C983 0.960 . S
C1000 C1001 1.391 . S
C1000 C1002 1.394 . S
C1000 H1016 0.931 . S
C1001 C1000 1.391 . S
C1001 C1005 1.376 . S
C1002 C1000 1.394 . S
C1002 C1003 1.369 . S
C1002 C1006 1.531 . S
C1003 C1002 1.369 . S
C1003 C1004 1.410 . S
C1003 C1011 1.503 . S
C1004 C1003 1.410 . S
C1004 C1005 1.392 . S
C1004 C1007 1.511 . S
C1005 C1001 1.376 . S
C1005 C1004 1.392 . S
C1005 H1017 0.929 1_556 S
C1006 C1002 1.531 . S
C1006 H1018 0.960 . S
C1006 H1019 0.962 . S
C1006 H1020 0.960 . S
C1007 C1004 1.511 . S
C1007 H1021 0.961 . S
C1007 H1022 0.961 . S
C1007 H1023 0.961 . S
C1008 C1009 1.370 . S
C1008 C1010 1.363 . S
C1008 H1024 0.931 . S
C1009 C1008 1.370 . S
C1009 C1013 1.408 . S
C1010 C1008 1.363 . S
C1010 C1011 1.370 . S
C1010 C1014 1.524 . S
C1011 C1003 1.503 . S
C1011 C1010 1.370 . S
C1011 C1012 1.403 . S
C1012 C1011 1.403 . S
C1012 C1013 1.404 . S
C1012 C1015 1.539 . S
C1013 C1009 1.408 . S
C1013 C1012 1.404 . S
C1013 H1025 0.930 . S
C1014 C1010 1.524 . S
C1014 H1026 0.956 . S
C1014 H1027 0.961 . S
C1014 H1028 0.961 . S
C1015 C1012 1.539 . S
C1015 H1029 0.958 . S
C1015 H1030 0.961 . S
C1015 H1031 0.960 . S
H1016 C1000 0.931 . S
H1017 C1005 0.929 1_554 S
H1018 C1006 0.960 . S
H1019 C1006 0.962 . S
H1020 C1006 0.960 . S
H1021 C1007 0.961 . S
H1022 C1007 0.961 . S
H1023 C1007 0.961 . S
H1024 C1008 0.931 . S
H1025 C1013 0.930 . S
H1026 C1014 0.956 . S
H1027 C1014 0.961 . S
H1028 C1014 0.961 . S
H1029 C1015 0.958 . S
H1030 C1015 0.961 . S
H1031 C1015 0.960 . S
C1032 C1033 1.391 . S
C1032 C1034 1.394 . S
C1032 H1048 0.931 . S
C1033 C1032 1.391 . S
C1033 C1037 1.376 . S
C1034 C1032 1.394 . S
C1034 C1035 1.369 . S
C1034 C1038 1.531 . S
C1035 C1034 1.369 . S
C1035 C1036 1.410 . S
C1035 C1043 1.503 . S
C1036 C1035 1.410 . S
C1036 C1037 1.392 . S
C1036 C1039 1.511 . S
C1037 C1033 1.376 . S
C1037 C1036 1.392 . S
C1037 H1049 0.929 . S
C1038 C1034 1.531 . S
C1038 H1050 0.960 . S
C1038 H1051 0.962 . S
C1038 H1052 0.960 . S
C1039 C1036 1.511 . S
C1039 H1053 0.961 . S
C1039 H1054 0.961 . S
C1039 H1055 0.961 . S
C1040 C1041 1.370 . S
C1040 C1042 1.363 . S
C1040 H1056 0.931 . S
C1041 C1040 1.370 . S
C1041 C1045 1.408 . S
C1042 C1040 1.363 . S
C1042 C1043 1.370 . S
C1042 C1046 1.524 . S
C1043 C1035 1.503 . S
C1043 C1042 1.370 . S
C1043 C1044 1.403 . S
C1044 C1043 1.403 . S
C1044 C1045 1.404 . S
C1044 C1047 1.539 . S
C1045 C1041 1.408 . S
C1045 C1044 1.404 . S
C1045 H1057 0.930 . S
C1046 C1042 1.524 . S
C1046 H1058 0.956 . S
C1046 H1059 0.961 . S
C1046 H1060 0.961 . S
C1047 C1044 1.539 . S
C1047 H1061 0.958 . S
C1047 H1062 0.961 . S
C1047 H1063 0.960 . S
H1048 C1032 0.931 . S
H1049 C1037 0.929 . S
H1050 C1038 0.960 . S
H1051 C1038 0.962 . S
H1052 C1038 0.960 . S
H1053 C1039 0.961 . S
H1054 C1039 0.961 . S
H1055 C1039 0.961 . S
H1056 C1040 0.931 . S
H1057 C1045 0.930 . S
H1058 C1046 0.956 . S
H1059 C1046 0.961 . S
H1060 C1046 0.961 . S
H1061 C1047 0.958 . S
H1062 C1047 0.961 . S
H1063 C1047 0.960 . S
C1064 C1065 1.391 . S
C1064 C1066 1.394 . S
C1064 H1080 0.931 . S
C1065 C1064 1.391 . S
C1065 C1069 1.376 . S
C1066 C1064 1.394 . S
C1066 C1067 1.369 . S
C1066 C1070 1.531 . S
C1067 C1066 1.369 . S
C1067 C1068 1.410 . S
C1067 C1075 1.503 . S
C1068 C1067 1.410 . S
C1068 C1069 1.392 . S
C1068 C1071 1.511 . S
C1069 C1065 1.376 . S
C1069 C1068 1.392 . S
C1069 H1081 0.929 . S
C1070 C1066 1.531 . S
C1070 H1082 0.960 . S
C1070 H1083 0.962 . S
C1070 H1084 0.960 . S
C1071 C1068 1.511 . S
C1071 H1085 0.961 . S
C1071 H1086 0.961 . S
C1071 H1087 0.961 . S
C1072 C1073 1.370 . S
C1072 C1074 1.363 . S
C1072 H1088 0.931 . S
C1073 C1072 1.370 . S
C1073 C1077 1.408 . S
C1074 C1072 1.363 . S
C1074 C1075 1.370 . S
C1074 C1078 1.524 . S
C1075 C1067 1.503 . S
C1075 C1074 1.370 . S
C1075 C1076 1.403 . S
C1076 C1075 1.403 . S
C1076 C1077 1.404 . S
C1076 C1079 1.539 . S
C1077 C1073 1.408 . S
C1077 C1076 1.404 . S
C1077 H1089 0.930 . S
C1078 C1074 1.524 . S
C1078 H1090 0.956 . S
C1078 H1091 0.961 . S
C1078 H1092 0.961 . S
C1079 C1076 1.539 . S
C1079 H1093 0.958 . S
C1079 H1094 0.961 . S
C1079 H1095 0.960 . S
H1080 C1064 0.931 . S
H1081 C1069 0.929 . S
H1082 C1070 0.960 . S
H1083 C1070 0.962 . S
H1084 C1070 0.960 . S
H1085 C1071 0.961 . S
H1086 C1071 0.961 . S
H1087 C1071 0.961 . S
H1088 C1072 0.931 . S
H1089 C1077 0.930 . S
H1090 C1078 0.956 . S
H1091 C1078 0.961 . S
H1092 C1078 0.961 . S
H1093 C1079 0.958 . S
H1094 C1079 0.961 . S
H1095 C1079 0.960 . S
C1096 C1097 1.391 . S
C1096 C1098 1.394 . S
C1096 H1112 0.931 . S
C1097 C1096 1.391 . S
C1097 C1101 1.376 . S
C1098 C1096 1.394 . S
C1098 C1099 1.369 . S
C1098 C1102 1.531 . S
C1099 C1098 1.369 . S
C1099 C1100 1.410 . S
C1099 C1107 1.503 . S
C1100 C1099 1.410 . S
C1100 C1101 1.392 . S
C1100 C1103 1.511 . S
C1101 C1097 1.376 . S
C1101 C1100 1.392 . S
C1101 H1113 0.929 . S
C1102 C1098 1.531 . S
C1102 H1114 0.960 . S
C1102 H1115 0.962 . S
C1102 H1116 0.960 . S
C1103 C1100 1.511 . S
C1103 H1117 0.961 . S
C1103 H1118 0.961 . S
C1103 H1119 0.961 . S
C1104 C1105 1.370 . S
C1104 C1106 1.363 . S
C1104 H1120 0.931 . S
C1105 C1104 1.370 . S
C1105 C1109 1.408 . S
C1106 C1104 1.363 . S
C1106 C1107 1.370 . S
C1106 C1110 1.524 . S
C1107 C1099 1.503 . S
C1107 C1106 1.370 . S
C1107 C1108 1.403 . S
C1108 C1107 1.403 . S
C1108 C1109 1.404 . S
C1108 C1111 1.539 . S
C1109 C1105 1.408 . S
C1109 C1108 1.404 . S
C1109 H1121 0.930 . S
C1110 C1106 1.524 . S
C1110 H1122 0.956 . S
C1110 H1123 0.961 . S
C1110 H1124 0.961 . S
C1111 C1108 1.539 . S
C1111 H1125 0.958 . S
C1111 H1126 0.961 . S
C1111 H1127 0.960 . S
H1112 C1096 0.931 . S
H1113 C1101 0.929 . S
H1114 C1102 0.960 . S
H1115 C1102 0.962 . S
H1116 C1102 0.960 . S
H1117 C1103 0.961 . S
H1118 C1103 0.961 . S
H1119 C1103 0.961 . S
H1120 C1104 0.931 . S
H1121 C1109 0.930 . S
H1122 C1110 0.956 . S
H1123 C1110 0.961 . S
H1124 C1110 0.961 . S
H1125 C1111 0.958 . S
H1126 C1111 0.961 . S
H1127 C1111 0.960 . S
C1128 C1129 1.391 . S
C1128 C1130 1.394 . S
C1128 H1144 0.931 . S
C1129 C1128 1.391 . S
C1129 C1133 1.376 . S
C1130 C1128 1.394 . S
C1130 C1131 1.369 . S
C1130 C1134 1.531 . S
C1131 C1130 1.369 . S
C1131 C1132 1.410 . S
C1131 C1139 1.503 . S
C1132 C1131 1.410 . S
C1132 C1133 1.392 . S
C1132 C1135 1.511 . S
C1133 C1129 1.376 . S
C1133 C1132 1.392 . S
C1133 H1145 0.929 . S
C1134 C1130 1.531 . S
C1134 H1146 0.960 . S
C1134 H1147 0.962 . S
C1134 H1148 0.960 . S
C1135 C1132 1.511 . S
C1135 H1149 0.961 . S
C1135 H1150 0.961 . S
C1135 H1151 0.961 . S
C1136 C1137 1.370 . S
C1136 C1138 1.363 . S
C1136 H1152 0.931 . S
C1137 C1136 1.370 . S
C1137 C1141 1.408 . S
C1138 C1136 1.363 . S
C1138 C1139 1.370 . S
C1138 C1142 1.524 . S
C1139 C1131 1.503 . S
C1139 C1138 1.370 . S
C1139 C1140 1.403 . S
C1140 C1139 1.403 . S
C1140 C1141 1.404 . S
C1140 C1143 1.539 . S
C1141 C1137 1.408 . S
C1141 C1140 1.404 . S
C1141 H1153 0.930 . S
C1142 C1138 1.524 . S
C1142 H1154 0.956 . S
C1142 H1155 0.961 . S
C1142 H1156 0.961 . S
C1143 C1140 1.539 . S
C1143 H1157 0.958 . S
C1143 H1158 0.961 . S
C1143 H1159 0.960 . S
H1144 C1128 0.931 . S
H1145 C1133 0.929 . S
H1146 C1134 0.960 . S
H1147 C1134 0.962 . S
H1148 C1134 0.960 . S
H1149 C1135 0.961 . S
H1150 C1135 0.961 . S
H1151 C1135 0.961 . S
H1152 C1136 0.931 . S
H1153 C1141 0.930 . S
H1154 C1142 0.956 . S
H1155 C1142 0.961 . S
H1156 C1142 0.961 . S
H1157 C1143 0.958 . S
H1158 C1143 0.961 . S
H1159 C1143 0.960 . S
C1160 C1161 1.391 . S
C1160 C1162 1.394 . S
C1160 H1176 0.931 . S
C1161 C1160 1.391 . S
C1161 C1165 1.376 . S
C1162 C1160 1.394 . S
C1162 C1163 1.369 . S
C1162 C1166 1.531 . S
C1163 C1162 1.369 . S
C1163 C1164 1.410 . S
C1163 C1171 1.503 . S
C1164 C1163 1.410 . S
C1164 C1165 1.392 . S
C1164 C1167 1.511 . S
C1165 C1161 1.376 . S
C1165 C1164 1.392 . S
C1165 H1177 0.929 . S
C1166 C1162 1.531 . S
C1166 H1178 0.960 . S
C1166 H1179 0.962 . S
C1166 H1180 0.960 . S
C1167 C1164 1.511 . S
C1167 H1181 0.961 . S
C1167 H1182 0.961 . S
C1167 H1183 0.961 . S
C1168 C1169 1.370 . S
C1168 C1170 1.363 . S
C1168 H1184 0.931 . S
C1169 C1168 1.370 . S
C1169 C1173 1.408 . S
C1170 C1168 1.363 . S
C1170 C1171 1.370 . S
C1170 C1174 1.524 . S
C1171 C1163 1.503 . S
C1171 C1170 1.370 . S
C1171 C1172 1.403 . S
C1172 C1171 1.403 . S
C1172 C1173 1.404 . S
C1172 C1175 1.539 . S
C1173 C1169 1.408 . S
C1173 C1172 1.404 . S
C1173 H1185 0.930 . S
C1174 C1170 1.524 . S
C1174 H1186 0.956 . S
C1174 H1187 0.961 . S
C1174 H1188 0.961 . S
C1175 C1172 1.539 . S
C1175 H1189 0.958 . S
C1175 H1190 0.961 . S
C1175 H1191 0.960 . S
H1176 C1160 0.931 . S
H1177 C1165 0.929 . S
H1178 C1166 0.960 . S
H1179 C1166 0.962 . S
H1180 C1166 0.960 . S
H1181 C1167 0.961 . S
H1182 C1167 0.961 . S
H1183 C1167 0.961 . S
H1184 C1168 0.931 . S
H1185 C1173 0.930 . S
H1186 C1174 0.956 . S
H1187 C1174 0.961 . S
H1188 C1174 0.961 . S
H1189 C1175 0.958 . S
H1190 C1175 0.961 . S
H1191 C1175 0.960 . S
C1192 C1193 1.391 . S
C1192 C1194 1.394 . S
C1192 H1208 0.931 . S
C1193 C1192 1.391 . S
C1193 C1197 1.376 . S
C1194 C1192 1.394 . S
C1194 C1195 1.369 . S
C1194 C1198 1.531 . S
C1195 C1194 1.369 . S
C1195 C1196 1.410 . S
C1195 C1203 1.503 . S
C1196 C1195 1.410 . S
C1196 C1197 1.392 . S
C1196 C1199 1.511 . S
C1197 C1193 1.376 . S
C1197 C1196 1.392 . S
C1197 H1209 0.929 . S
C1198 C1194 1.531 . S
C1198 H1210 0.960 . S
C1198 H1211 0.962 . S
C1198 H1212 0.960 . S
C1199 C1196 1.511 . S
C1199 H1213 0.961 . S
C1199 H1214 0.961 . S
C1199 H1215 0.961 . S
C1200 C1201 1.370 . S
C1200 C1202 1.363 . S
C1200 H1216 0.931 . S
C1201 C1200 1.370 . S
C1201 C1205 1.408 . S
C1202 C1200 1.363 . S
C1202 C1203 1.370 . S
C1202 C1206 1.524 . S
C1203 C1195 1.503 . S
C1203 C1202 1.370 . S
C1203 C1204 1.403 . S
C1204 C1203 1.403 . S
C1204 C1205 1.404 . S
C1204 C1207 1.539 . S
C1205 C1201 1.408 . S
C1205 C1204 1.404 . S
C1205 H1217 0.930 . S
C1206 C1202 1.524 . S
C1206 H1218 0.956 . S
C1206 H1219 0.961 . S
C1206 H1220 0.961 . S
C1207 C1204 1.539 . S
C1207 H1221 0.958 . S
C1207 H1222 0.961 . S
C1207 H1223 0.960 . S
H1208 C1192 0.931 . S
H1209 C1197 0.929 . S
H1210 C1198 0.960 . S
H1211 C1198 0.962 . S
H1212 C1198 0.960 . S
H1213 C1199 0.961 . S
H1214 C1199 0.961 . S
H1215 C1199 0.961 . S
H1216 C1200 0.931 . S
H1217 C1205 0.930 . S
H1218 C1206 0.956 . S
H1219 C1206 0.961 . S
H1220 C1206 0.961 . S
H1221 C1207 0.958 . S
H1222 C1207 0.961 . S
H1223 C1207 0.960 . S
C1224 C1225 1.391 . S
C1224 C1226 1.394 . S
C1224 H1240 0.931 . S
C1225 C1224 1.391 . S
C1225 C1229 1.376 . S
C1226 C1224 1.394 . S
C1226 C1227 1.369 . S
C1226 C1230 1.531 . S
C1227 C1226 1.369 . S
C1227 C1228 1.410 . S
C1227 C1235 1.503 . S
C1228 C1227 1.410 . S
C1228 C1229 1.392 . S
C1228 C1231 1.511 . S
C1229 C1225 1.376 . S
C1229 C1228 1.392 . S
C1229 H1241 0.929 . S
C1230 C1226 1.531 . S
C1230 H1242 0.960 . S
C1230 H1243 0.962 . S
C1230 H1244 0.960 . S
C1231 C1228 1.511 . S
C1231 H1245 0.961 . S
C1231 H1246 0.961 . S
C1231 H1247 0.961 . S
C1232 C1233 1.370 . S
C1232 C1234 1.363 . S
C1232 H1248 0.931 . S
C1233 C1232 1.370 . S
C1233 C1237 1.408 . S
C1234 C1232 1.363 . S
C1234 C1235 1.370 . S
C1234 C1238 1.524 . S
C1235 C1227 1.503 . S
C1235 C1234 1.370 . S
C1235 C1236 1.403 . S
C1236 C1235 1.403 . S
C1236 C1237 1.404 . S
C1236 C1239 1.539 . S
C1237 C1233 1.408 . S
C1237 C1236 1.404 . S
C1237 H1249 0.930 . S
C1238 C1234 1.524 . S
C1238 H1250 0.956 . S
C1238 H1251 0.961 . S
C1238 H1252 0.961 . S
C1239 C1236 1.539 . S
C1239 H1253 0.958 . S
C1239 H1254 0.961 . S
C1239 H1255 0.960 . S
H1240 C1224 0.931 . S
H1241 C1229 0.929 . S
H1242 C1230 0.960 . S
H1243 C1230 0.962 . S
H1244 C1230 0.960 . S
H1245 C1231 0.961 . S
H1246 C1231 0.961 . S
H1247 C1231 0.961 . S
H1248 C1232 0.931 . S
H1249 C1237 0.930 . S
H1250 C1238 0.956 . S
H1251 C1238 0.961 . S
H1252 C1238 0.961 . S
H1253 C1239 0.958 . S
H1254 C1239 0.961 . S
H1255 C1239 0.960 . S
C1256 C1257 1.391 . S
C1256 C1258 1.394 . S
C1256 H1272 0.931 . S
C1257 C1256 1.391 . S
C1257 C1261 1.376 . S
C1258 C1256 1.394 . S
C1258 C1259 1.369 . S
C1258 C1262 1.531 . S
C1259 C1258 1.369 . S
C1259 C1260 1.410 . S
C1259 C1267 1.503 . S
C1260 C1259 1.410 . S
C1260 C1261 1.392 . S
C1260 C1263 1.511 . S
C1261 C1257 1.376 . S
C1261 C1260 1.392 . S
C1261 H1273 0.929 . S
C1262 C1258 1.531 . S
C1262 H1274 0.960 . S
C1262 H1275 0.962 . S
C1262 H1276 0.960 . S
C1263 C1260 1.511 . S
C1263 H1277 0.961 . S
C1263 H1278 0.961 . S
C1263 H1279 0.961 . S
C1264 C1265 1.370 . S
C1264 C1266 1.363 . S
C1264 H1280 0.931 . S
C1265 C1264 1.370 . S
C1265 C1269 1.408 . S
C1266 C1264 1.363 . S
C1266 C1267 1.370 . S
C1266 C1270 1.524 . S
C1267 C1259 1.503 . S
C1267 C1266 1.370 . S
C1267 C1268 1.403 . S
C1268 C1267 1.403 . S
C1268 C1269 1.404 . S
C1268 C1271 1.539 . S
C1269 C1265 1.408 . S
C1269 C1268 1.404 . S
C1269 H1281 0.930 . S
C1270 C1266 1.524 . S
C1270 H1282 0.956 . S
C1270 H1283 0.961 . S
C1270 H1284 0.961 . S
C1271 C1268 1.539 . S
C1271 H1285 0.958 . S
C1271 H1286 0.961 . S
C1271 H1287 0.960 . S
H1272 C1256 0.931 . S
H1273 C1261 0.929 . S
H1274 C1262 0.960 . S
H1275 C1262 0.962 . S
H1276 C1262 0.960 . S
H1277 C1263 0.961 . S
H1278 C1263 0.961 . S
H1279 C1263 0.961 . S
H1280 C1264 0.931 . S
H1281 C1269 0.930 . S
H1282 C1270 0.956 . S
H1283 C1270 0.961 . S
H1284 C1270 0.961 . S
H1285 C1271 0.958 . S
H1286 C1271 0.961 . S
H1287 C1271 0.960 . S
C1288 C1289 1.391 . S
C1288 C1290 1.394 . S
C1288 H1304 0.931 . S
C1289 C1288 1.391 . S
C1289 C1293 1.376 . S
C1290 C1288 1.394 . S
C1290 C1291 1.369 . S
C1290 C1294 1.531 . S
C1291 C1290 1.369 . S
C1291 C1292 1.410 . S
C1291 C1299 1.463 1_565 S
C1292 C1291 1.410 . S
C1292 C1293 1.392 . S
C1292 C1295 1.511 1_565 S
C1293 C1289 1.376 . S
C1293 C1292 1.392 . S
C1293 H1305 0.929 . S
C1294 C1290 1.531 . S
C1294 H1306 0.960 . S
C1294 H1307 0.962 . S
C1294 H1308 0.960 . S
C1295 C1292 1.511 1_545 S
C1295 H1309 0.961 . S
C1295 H1310 0.961 . S
C1295 H1311 0.961 1_545 S
C1296 C1297 1.370 . S
C1296 C1298 1.363 . S
C1296 H1312 0.931 . S
C1297 C1296 1.370 . S
C1297 C1301 1.416 . S
C1298 C1296 1.363 . S
C1298 C1299 1.411 . S
C1298 C1302 1.524 . S
C1299 C1291 1.463 1_545 S
C1299 C1298 1.411 . S
C1299 C1300 1.404 1_545 S
C1300 C1299 1.404 1_565 S
C1300 C1301 1.396 1_565 S
C1300 C1303 1.539 . S
C1301 C1297 1.416 . S
C1301 C1300 1.396 1_545 S
C1301 H1313 0.930 1_545 S
C1302 C1298 1.524 . S
C1302 H1314 0.956 . S
C1302 H1315 0.961 . S
C1302 H1316 0.961 . S
C1303 C1300 1.539 . S
C1303 H1317 0.958 . S
C1303 H1318 0.961 . S
C1303 H1319 0.960 . S
H1304 C1288 0.931 . S
H1305 C1293 0.929 . S
H1306 C1294 0.960 . S
H1307 C1294 0.962 . S
H1308 C1294 0.960 . S
H1309 C1295 0.961 . S
H1310 C1295 0.961 . S
H1311 C1295 0.961 1_565 S
H1312 C1296 0.931 . S
H1313 C1301 0.930 1_565 S
H1314 C1302 0.956 . S
H1315 C1302 0.961 . S
H1316 C1302 0.961 . S
H1317 C1303 0.958 . S
H1318 C1303 0.961 . S
H1319 C1303 0.960 . S
C1320 C1321 1.391 . S
C1320 C1322 1.394 . S
C1320 H1336 0.931 . S
C1321 C1320 1.391 . S
C1321 C1325 1.376 . S
C1322 C1320 1.394 . S
C1322 C1323 1.369 . S
C1322 C1326 1.531 . S
C1323 C1322 1.369 . S
C1323 C1324 1.410 . S
C1323 C1331 1.503 . S
C1324 C1323 1.410 . S
C1324 C1325 1.392 . S
C1324 C1327 1.511 . S
C1325 C1321 1.376 . S
C1325 C1324 1.392 . S
C1325 H1337 0.929 . S
C1326 C1322 1.531 . S
C1326 H1338 0.960 . S
C1326 H1339 0.962 . S
C1326 H1340 0.960 . S
C1327 C1324 1.511 . S
C1327 H1341 0.961 . S
C1327 H1342 0.961 . S
C1327 H1343 0.961 . S
C1328 C1329 1.370 . S
C1328 C1330 1.363 . S
C1328 H1344 0.931 . S
C1329 C1328 1.370 . S
C1329 C1333 1.408 1_554 S
C1330 C1328 1.363 . S
C1330 C1331 1.370 . S
C1330 C1334 1.524 . S
C1331 C1323 1.503 . S
C1331 C1330 1.370 . S
C1331 C1332 1.403 . S
C1332 C1331 1.403 . S
C1332 C1333 1.404 1_554 S
C1332 C1335 1.539 1_554 S
C1333 C1329 1.408 1_556 S
C1333 C1332 1.404 1_556 S
C1333 H1345 0.930 . S
C1334 C1330 1.524 . S
C1334 H1346 0.956 . S
C1334 H1347 0.961 . S
C1334 H1348 0.961 . S
C1335 C1332 1.539 1_556 S
C1335 H1349 0.958 . S
C1335 H1350 0.961 . S
C1335 H1351 0.960 1_556 S
H1336 C1320 0.931 . S
H1337 C1325 0.929 . S
H1338 C1326 0.960 . S
H1339 C1326 0.962 . S
H1340 C1326 0.960 . S
H1341 C1327 0.961 . S
H1342 C1327 0.961 . S
H1343 C1327 0.961 . S
H1344 C1328 0.931 . S
H1345 C1333 0.930 . S
H1346 C1334 0.956 . S
H1347 C1334 0.961 . S
H1348 C1334 0.961 . S
H1349 C1335 0.958 . S
H1350 C1335 0.961 . S
H1351 C1335 0.960 1_554 S
C1352 C1353 1.391 1_454 S
C1352 C1354 1.394 . S
C1352 H1368 0.931 1_554 S
C1353 C1352 1.391 1_656 S
C1353 C1357 1.376 1_556 S
C1354 C1352 1.394 . S
C1354 C1355 1.369 . S
C1354 C1358 1.531 . S
C1355 C1354 1.369 . S
C1355 C1356 1.410 1_455 S
C1355 C1363 1.503 . S
C1356 C1355 1.410 1_655 S
C1356 C1357 1.392 . S
C1356 C1359 1.511 . S
C1357 C1353 1.376 1_554 S
C1357 C1356 1.392 . S
C1357 H1369 0.929 . S
C1358 C1354 1.531 . S
C1358 H1370 0.960 . S
C1358 H1371 0.962 . S
C1358 H1372 0.960 . S
C1359 C1356 1.511 . S
C1359 H1373 0.961 . S
C1359 H1374 0.961 . S
C1359 H1375 0.961 . S
C1360 C1361 1.370 . S
C1360 C1362 1.363 . S
C1360 H1376 0.931 . S
C1361 C1360 1.370 . S
C1361 C1365 1.408 . S
C1362 C1360 1.363 . S
C1362 C1363 1.370 . S
C1362 C1366 1.524 . S
C1363 C1355 1.503 . S
C1363 C1362 1.370 . S
C1363 C1364 1.403 . S
C1364 C1363 1.403 . S
C1364 C1365 1.404 . S
C1364 C1367 1.539 . S
C1365 C1361 1.408 . S
C1365 C1364 1.404 . S
C1365 H1377 0.930 . S
C1366 C1362 1.524 . S
C1366 H1378 0.956 1_554 S
C1366 H1379 0.961 . S
C1366 H1380 0.961 . S
C1367 C1364 1.539 . S
C1367 H1381 0.958 . S
C1367 H1382 0.961 . S
C1367 H1383 0.960 . S
H1368 C1352 0.931 1_556 S
H1369 C1357 0.929 . S
H1370 C1358 0.960 . S
H1371 C1358 0.962 . S
H1372 C1358 0.960 . S
H1373 C1359 0.961 . S
H1374 C1359 0.961 . S
H1375 C1359 0.961 . S
H1376 C1360 0.931 . S
H1377 C1365 0.930 . S
H1378 C1366 0.956 1_556 S
H1379 C1366 0.961 . S
H1380 C1366 0.961 . S
H1381 C1367 0.958 . S
H1382 C1367 0.961 . S
H1383 C1367 0.960 . S
C1384 C1385 1.391 1_554 S
C1384 C1386 1.394 . S
C1384 H1400 0.930 1_554 S
C1385 C1384 1.391 1_556 S
C1385 C1389 1.376 . S
C1386 C1384 1.394 . S
C1386 C1387 1.369 . S
C1386 C1390 1.531 . S
C1387 C1386 1.369 . S
C1387 C1388 1.410 . S
C1387 C1395 1.503 . S
C1388 C1387 1.410 . S
C1388 C1389 1.392 1_554 S
C1388 C1391 1.511 . S
C1389 C1385 1.376 . S
C1389 C1388 1.392 1_556 S
C1389 H1401 0.929 . S
C1390 C1386 1.531 . S
C1390 H1402 0.960 . S
C1390 H1403 0.962 . S
C1390 H1404 0.960 . S
C1391 C1388 1.511 . S
C1391 H1405 0.961 . S
C1391 H1406 0.961 . S
C1391 H1407 0.961 1_554 S
C1392 C1393 1.370 . S
C1392 C1394 1.363 . S
C1392 H1408 0.931 . S
C1393 C1392 1.370 . S
C1393 C1397 1.408 . S
C1394 C1392 1.363 . S
C1394 C1395 1.370 . S
C1394 C1398 1.524 . S
C1395 C1387 1.503 . S
C1395 C1394 1.370 . S
C1395 C1396 1.403 . S
C1396 C1395 1.403 . S
C1396 C1397 1.404 . S
C1396 C1399 1.539 1_554 S
C1397 C1393 1.408 . S
C1397 C1396 1.404 . S
C1397 H1409 0.930 . S
C1398 C1394 1.524 . S
C1398 H1410 0.956 . S
C1398 H1411 0.961 . S
C1398 H1412 0.961 . S
C1399 C1396 1.539 1_556 S
C1399 H1413 0.958 . S
C1399 H1414 0.961 . S
C1399 H1415 0.960 . S
H1400 C1384 0.930 1_556 S
H1401 C1389 0.929 . S
H1402 C1390 0.960 . S
H1403 C1390 0.962 . S
H1404 C1390 0.960 . S
H1405 C1391 0.961 . S
H1406 C1391 0.961 . S
H1407 C1391 0.961 1_556 S
H1408 C1392 0.931 . S
H1409 C1397 0.930 . S
H1410 C1398 0.956 . S
H1411 C1398 0.961 . S
H1412 C1398 0.961 . S
H1413 C1399 0.958 . S
H1414 C1399 0.961 . S
H1415 C1399 0.960 . S
C1416 C1417 1.391 1_455 S
C1416 C1418 1.394 . S
C1416 H1432 0.931 . S
C1417 C1416 1.391 1_655 S
C1417 C1421 1.376 . S
C1418 C1416 1.394 . S
C1418 C1419 1.369 . S
C1418 C1422 1.531 . S
C1419 C1418 1.369 . S
C1419 C1420 1.410 1_455 S
C1419 C1427 1.503 . S
C1420 C1419 1.410 1_655 S
C1420 C1421 1.392 . S
C1420 C1423 1.511 . S
C1421 C1417 1.376 . S
C1421 C1420 1.392 . S
C1421 H1433 0.929 . S
C1422 C1418 1.531 . S
C1422 H1434 0.960 . S
C1422 H1435 0.962 . S
C1422 H1436 0.960 . S
C1423 C1420 1.511 . S
C1423 H1437 0.961 . S
C1423 H1438 0.961 . S
C1423 H1439 0.961 . S
C1424 C1425 1.370 . S
C1424 C1426 1.363 . S
C1424 H1440 0.931 . S
C1425 C1424 1.370 . S
C1425 C1429 1.408 . S
C1426 C1424 1.363 . S
C1426 C1427 1.370 . S
C1426 C1430 1.524 . S
C1427 C1419 1.503 . S
C1427 C1426 1.370 . S
C1427 C1428 1.403 . S
C1428 C1427 1.403 . S
C1428 C1429 1.404 . S
C1428 C1431 1.539 . S
C1429 C1425 1.408 . S
C1429 C1428 1.404 . S
C1429 H1441 0.930 . S
C1430 C1426 1.524 . S
C1430 H1442 0.956 . S
C1430 H1443 0.990 . S
C1430 H1444 0.961 . S
C1431 C1428 1.539 . S
C1431 H1445 0.958 . S
C1431 H1446 0.961 . S
C1431 H1447 0.960 . S
H1432 C1416 0.931 . S
H1433 C1421 0.929 . S
H1434 C1422 0.960 . S
H1435 C1422 0.962 . S
H1436 C1422 0.960 . S
H1437 C1423 0.961 . S
H1438 C1423 0.961 . S
H1439 C1423 0.961 . S
H1440 C1424 0.931 . S
H1441 C1429 0.930 . S
H1442 C1430 0.956 . S
H1443 C1430 0.990 . S
H1444 C1430 0.961 . S
H1445 C1431 0.958 . S
H1446 C1431 0.961 . S
H1447 C1431 0.960 . S
C1448 C1449 1.391 . S
C1448 C1450 1.394 . S
C1448 H1464 0.931 . S
C1449 C1448 1.391 . S
C1449 C1453 1.376 . S
C1450 C1448 1.394 . S
C1450 C1451 1.369 . S
C1450 C1454 1.531 . S
C1451 C1450 1.369 . S
C1451 C1452 1.410 . S
C1451 C1459 1.503 . S
C1452 C1451 1.410 . S
C1452 C1453 1.392 . S
C1452 C1455 1.511 . S
C1453 C1449 1.376 . S
C1453 C1452 1.392 . S
C1453 H1465 0.929 . S
C1454 C1450 1.531 . S
C1454 H1466 0.960 . S
C1454 H1467 0.962 . S
C1454 H1468 0.960 . S
C1455 C1452 1.511 . S
C1455 H1469 0.961 . S
C1455 H1470 0.961 . S
C1455 H1471 0.961 . S
C1456 C1457 1.370 . S
C1456 C1458 1.363 . S
C1456 H1472 0.931 . S
C1457 C1456 1.370 . S
C1457 C1461 1.408 . S
C1458 C1456 1.363 . S
C1458 C1459 1.370 . S
C1458 C1462 1.524 . S
C1459 C1451 1.503 . S
C1459 C1458 1.370 . S
C1459 C1460 1.403 . S
C1460 C1459 1.403 . S
C1460 C1461 1.404 . S
C1460 C1463 1.539 . S
C1461 C1457 1.408 . S
C1461 C1460 1.404 . S
C1461 H1473 0.930 . S
C1462 C1458 1.524 . S
C1462 H1474 0.956 . S
C1462 H1475 0.961 . S
C1462 H1476 0.961 . S
C1463 C1460 1.539 . S
C1463 H1477 0.958 . S
C1463 H1478 0.961 . S
C1463 H1479 0.960 . S
H1464 C1448 0.931 . S
H1465 C1453 0.929 . S
H1466 C1454 0.960 . S
H1467 C1454 0.962 . S
H1468 C1454 0.960 . S
H1469 C1455 0.961 . S
H1470 C1455 0.961 . S
H1471 C1455 0.961 . S
H1472 C1456 0.931 . S
H1473 C1461 0.930 . S
H1474 C1462 0.956 . S
H1475 C1462 0.961 . S
H1476 C1462 0.961 . S
H1477 C1463 0.958 . S
H1478 C1463 0.961 . S
H1479 C1463 0.960 . S
C1480 C1481 1.391 . S
C1480 C1482 1.394 . S
C1480 H1496 0.931 . S
C1481 C1480 1.391 . S
C1481 C1485 1.376 . S
C1482 C1480 1.394 . S
C1482 C1483 1.369 . S
C1482 C1486 1.531 . S
C1483 C1482 1.369 . S
C1483 C1484 1.410 . S
C1483 C1491 1.503 . S
C1484 C1483 1.410 . S
C1484 C1485 1.392 . S
C1484 C1487 1.511 . S
C1485 C1481 1.376 . S
C1485 C1484 1.392 . S
C1485 H1497 0.929 . S
C1486 C1482 1.531 . S
C1486 H1498 0.960 . S
C1486 H1499 0.962 . S
C1486 H1500 0.960 . S
C1487 C1484 1.511 . S
C1487 H1501 0.961 . S
C1487 H1502 0.961 . S
C1487 H1503 0.961 . S
C1488 C1489 1.370 . S
C1488 C1490 1.363 . S
C1488 H1504 0.931 . S
C1489 C1488 1.370 . S
C1489 C1493 1.408 . S
C1490 C1488 1.363 . S
C1490 C1491 1.370 . S
C1490 C1494 1.524 . S
C1491 C1483 1.503 . S
C1491 C1490 1.370 . S
C1491 C1492 1.403 . S
C1492 C1491 1.403 . S
C1492 C1493 1.404 . S
C1492 C1495 1.539 . S
C1493 C1489 1.408 . S
C1493 C1492 1.404 . S
C1493 H1505 0.930 . S
C1494 C1490 1.524 . S
C1494 H1506 0.956 . S
C1494 H1507 0.961 . S
C1494 H1508 0.961 . S
C1495 C1492 1.539 . S
C1495 H1509 0.958 . S
C1495 H1510 0.961 . S
C1495 H1511 0.960 . S
H1496 C1480 0.931 . S
H1497 C1485 0.929 . S
H1498 C1486 0.960 . S
H1499 C1486 0.962 . S
H1500 C1486 0.960 . S
H1501 C1487 0.961 . S
H1502 C1487 0.961 . S
H1503 C1487 0.961 . S
H1504 C1488 0.931 . S
H1505 C1493 0.930 . S
H1506 C1494 0.956 . S
H1507 C1494 0.961 . S
H1508 C1494 0.961 . S
H1509 C1495 0.958 . S
H1510 C1495 0.961 . S
H1511 C1495 0.960 . S
C1512 C1513 1.391 . S
C1512 C1514 1.394 . S
C1512 H1528 0.931 . S
C1513 C1512 1.391 . S
C1513 C1517 1.376 1_565 S
C1514 C1512 1.394 . S
C1514 C1515 1.369 1_565 S
C1514 C1518 1.531 . S
C1515 C1514 1.369 1_545 S
C1515 C1516 1.410 . S
C1515 C1523 1.503 . S
C1516 C1515 1.410 . S
C1516 C1517 1.392 . S
C1516 C1519 1.511 . S
C1517 C1513 1.376 1_545 S
C1517 C1516 1.392 . S
C1517 H1529 0.929 1_556 S
C1518 C1514 1.531 . S
C1518 H1530 0.960 . S
C1518 H1531 0.962 . S
C1518 H1532 0.960 . S
C1519 C1516 1.511 . S
C1519 H1533 0.961 . S
C1519 H1534 0.961 . S
C1519 H1535 0.961 . S
C1520 C1521 1.370 . S
C1520 C1522 1.363 . S
C1520 H1536 0.931 . S
C1521 C1520 1.370 . S
C1521 C1525 1.408 . S
C1522 C1520 1.363 . S
C1522 C1523 1.370 . S
C1522 C1526 1.524 . S
C1523 C1515 1.503 . S
C1523 C1522 1.370 . S
C1523 C1524 1.403 . S
C1524 C1523 1.403 . S
C1524 C1525 1.404 . S
C1524 C1527 1.539 . S
C1525 C1521 1.408 . S
C1525 C1524 1.404 . S
C1525 H1537 0.930 . S
C1526 C1522 1.524 . S
C1526 H1538 0.956 1_545 S
C1526 H1539 0.961 1_556 S
C1526 H1540 0.961 . S
C1527 C1524 1.539 . S
C1527 H1541 0.958 . S
C1527 H1542 0.961 . S
C1527 H1543 0.960 . S
H1528 C1512 0.931 . S
H1529 C1517 0.929 1_554 S
H1530 C1518 0.960 . S
H1531 C1518 0.962 . S
H1532 C1518 0.960 . S
H1533 C1519 0.961 . S
H1534 C1519 0.961 . S
H1535 C1519 0.961 . S
H1536 C1520 0.931 . S
H1537 C1525 0.930 . S
H1538 C1526 0.956 1_565 S
H1539 C1526 0.961 1_554 S
H1540 C1526 0.961 . S
H1541 C1527 0.958 . S
H1542 C1527 0.961 . S
H1543 C1527 0.960 . S
C1544 C1545 1.391 . S
C1544 C1546 1.394 . S
C1544 H1560 0.931 . S
C1545 C1544 1.391 . S
C1545 C1549 1.376 . S
C1546 C1544 1.394 . S
C1546 C1547 1.369 . S
C1546 C1550 1.531 . S
C1547 C1546 1.369 . S
C1547 C1548 1.410 . S
C1547 C1555 1.503 . S
C1548 C1547 1.410 . S
C1548 C1549 1.392 . S
C1548 C1551 1.511 . S
C1549 C1545 1.376 . S
C1549 C1548 1.392 . S
C1549 H1561 0.929 . S
C1550 C1546 1.531 . S
C1550 H1562 0.960 1_556 S
C1550 H1563 0.962 . S
C1550 H1564 0.960 1_556 S
C1551 C1548 1.511 . S
C1551 H1565 0.961 . S
C1551 H1566 0.961 . S
C1551 H1567 0.961 . S
C1552 C1553 1.370 1_556 S
C1552 C1554 1.363 . S
C1552 H1568 0.931 . S
C1553 C1552 1.370 1_554 S
C1553 C1557 1.408 . S
C1554 C1552 1.363 . S
C1554 C1555 1.370 . S
C1554 C1558 1.524 . S
C1555 C1547 1.503 . S
C1555 C1554 1.370 . S
C1555 C1556 1.403 . S
C1556 C1555 1.403 . S
C1556 C1557 1.404 1_556 S
C1556 C1559 1.539 . S
C1557 C1553 1.408 . S
C1557 C1556 1.404 1_554 S
C1557 H1569 0.930 . S
C1558 C1554 1.524 . S
C1558 H1570 0.956 . S
C1558 H1571 0.961 . S
C1558 H1572 0.961 . S
C1559 C1556 1.539 . S
C1559 H1573 0.958 1_556 S
C1559 H1574 0.961 . S
C1559 H1575 0.960 . S
H1560 C1544 0.931 . S
H1561 C1549 0.929 . S
H1562 C1550 0.960 1_554 S
H1563 C1550 0.962 . S
H1564 C1550 0.960 1_554 S
H1565 C1551 0.961 . S
H1566 C1551 0.961 . S
H1567 C1551 0.961 . S
H1568 C1552 0.931 . S
H1569 C1557 0.930 . S
H1570 C1558 0.956 . S
H1571 C1558 0.961 . S
H1572 C1558 0.961 . S
H1573 C1559 0.958 1_554 S
H1574 C1559 0.961 . S
H1575 C1559 0.960 . S
C1576 C1577 1.391 . S
C1576 C1578 1.394 . S
C1576 H1592 0.931 . S
C1577 C1576 1.391 . S
C1577 C1581 1.376 . S
C1578 C1576 1.394 . S
C1578 C1579 1.369 . S
C1578 C1582 1.531 . S
C1579 C1578 1.369 . S
C1579 C1580 1.410 . S
C1579 C1587 1.503 . S
C1580 C1579 1.410 . S
C1580 C1581 1.392 . S
C1580 C1583 1.511 . S
C1581 C1577 1.376 . S
C1581 C1580 1.392 . S
C1581 H1593 0.929 . S
C1582 C1578 1.531 . S
C1582 H1594 0.960 . S
C1582 H1595 0.962 . S
C1582 H1596 0.960 . S
C1583 C1580 1.511 . S
C1583 H1597 0.961 . S
C1583 H1598 0.961 . S
C1583 H1599 0.961 . S
C1584 C1585 1.370 . S
C1584 C1586 1.363 . S
C1584 H1600 0.931 1_556 S
C1585 C1584 1.370 . S
C1585 C1589 1.408 . S
C1586 C1584 1.363 . S
C1586 C1587 1.370 . S
C1586 C1590 1.524 . S
C1587 C1579 1.503 . S
C1587 C1586 1.370 . S
C1587 C1588 1.403 . S
C1588 C1587 1.403 . S
C1588 C1589 1.404 . S
C1588 C1591 1.539 . S
C1589 C1585 1.408 . S
C1589 C1588 1.404 . S
C1589 H1601 0.930 . S
C1590 C1586 1.524 . S
C1590 H1602 0.956 . S
C1590 H1603 0.961 . S
C1590 H1604 0.961 . S
C1591 C1588 1.539 . S
C1591 H1605 0.958 . S
C1591 H1606 0.961 . S
C1591 H1607 0.960 . S
H1592 C1576 0.931 . S
H1593 C1581 0.929 . S
H1594 C1582 0.960 . S
H1595 C1582 0.962 . S
H1596 C1582 0.960 . S
H1597 C1583 0.961 . S
H1598 C1583 0.961 . S
H1599 C1583 0.961 . S
H1600 C1584 0.931 1_554 S
H1601 C1589 0.930 . S
H1602 C1590 0.956 . S
H1603 C1590 0.961 . S
H1604 C1590 0.961 . S
H1605 C1591 0.958 . S
H1606 C1591 0.961 . S
H1607 C1591 0.960 . S
C1608 C1609 1.391 . S
C1608 C1610 1.394 . S
C1608 H1624 0.931 . S
C1609 C1608 1.391 . S
C1609 C1613 1.376 . S
C1610 C1608 1.394 . S
C1610 C1611 1.369 . S
C1610 C1614 1.531 . S
C1611 C1610 1.369 . S
C1611 C1612 1.410 . S
C1611 C1619 1.503 . S
C1612 C1611 1.410 . S
C1612 C1613 1.392 . S
C1612 C1615 1.511 . S
C1613 C1609 1.376 . S
C1613 C1612 1.392 . S
C1613 H1625 0.929 . S
C1614 C1610 1.531 . S
C1614 H1626 0.960 . S
C1614 H1627 0.962 . S
C1614 H1628 0.960 . S
C1615 C1612 1.511 . S
C1615 H1629 0.961 . S
C1615 H1630 0.961 . S
C1615 H1631 0.961 . S
C1616 C1617 1.370 . S
C1616 C1618 1.363 . S
C1616 H1632 0.931 . S
C1617 C1616 1.370 . S
C1617 C1621 1.408 . S
C1618 C1616 1.363 . S
C1618 C1619 1.370 . S
C1618 C1622 1.524 . S
C1619 C1611 1.503 . S
C1619 C1618 1.370 . S
C1619 C1620 1.403 . S
C1620 C1619 1.403 . S
C1620 C1621 1.404 . S
C1620 C1623 1.539 . S
C1621 C1617 1.408 . S
C1621 C1620 1.404 . S
C1621 H1633 0.930 . S
C1622 C1618 1.524 . S
C1622 H1634 0.956 . S
C1622 H1635 0.961 . S
C1622 H1636 0.961 . S
C1623 C1620 1.539 . S
C1623 H1637 0.958 . S
C1623 H1638 0.961 . S
C1623 H1639 0.960 . S
H1624 C1608 0.931 . S
H1625 C1613 0.929 . S
H1626 C1614 0.960 . S
H1627 C1614 0.962 . S
H1628 C1614 0.960 . S
H1629 C1615 0.961 . S
H1630 C1615 0.961 . S
H1631 C1615 0.961 . S
H1632 C1616 0.931 . S
H1633 C1621 0.930 . S
H1634 C1622 0.956 . S
H1635 C1622 0.961 . S
H1636 C1622 0.961 . S
H1637 C1623 0.958 . S
H1638 C1623 0.961 . S
H1639 C1623 0.960 . S
C1640 C1641 1.391 . S
C1640 C1642 1.394 . S
C1640 H1656 0.931 . S
C1641 C1640 1.391 . S
C1641 C1645 1.376 . S
C1642 C1640 1.394 . S
C1642 C1643 1.369 . S
C1642 C1646 1.531 . S
C1643 C1642 1.369 . S
C1643 C1644 1.410 . S
C1643 C1651 1.503 . S
C1644 C1643 1.410 . S
C1644 C1645 1.392 . S
C1644 C1647 1.511 . S
C1645 C1641 1.376 . S
C1645 C1644 1.392 . S
C1645 H1657 0.929 . S
C1646 C1642 1.531 . S
C1646 H1658 0.960 . S
C1646 H1659 0.962 . S
C1646 H1660 0.960 . S
C1647 C1644 1.511 . S
C1647 H1661 0.961 . S
C1647 H1662 0.961 . S
C1647 H1663 0.961 . S
C1648 C1649 1.370 . S
C1648 C1650 1.363 . S
C1648 H1664 0.931 . S
C1649 C1648 1.370 . S
C1649 C1653 1.408 . S
C1650 C1648 1.363 . S
C1650 C1651 1.370 . S
C1650 C1654 1.524 . S
C1651 C1643 1.503 . S
C1651 C1650 1.370 . S
C1651 C1652 1.403 . S
C1652 C1651 1.403 . S
C1652 C1653 1.404 . S
C1652 C1655 1.539 . S
C1653 C1649 1.408 . S
C1653 C1652 1.404 . S
C1653 H1665 0.930 . S
C1654 C1650 1.524 . S
C1654 H1666 0.956 . S
C1654 H1667 0.961 . S
C1654 H1668 0.961 . S
C1655 C1652 1.539 . S
C1655 H1669 0.958 . S
C1655 H1670 0.961 . S
C1655 H1671 0.960 . S
H1656 C1640 0.931 . S
H1657 C1645 0.929 . S
H1658 C1646 0.960 . S
H1659 C1646 0.962 . S
H1660 C1646 0.960 . S
H1661 C1647 0.961 . S
H1662 C1647 0.961 . S
H1663 C1647 0.961 . S
H1664 C1648 0.931 . S
H1665 C1653 0.930 . S
H1666 C1654 0.956 . S
H1667 C1654 0.961 . S
H1668 C1654 0.961 . S
H1669 C1655 0.958 . S
H1670 C1655 0.961 . S
H1671 C1655 0.960 . S
C1672 C1673 1.391 . S
C1672 C1674 1.394 . S
C1672 H1688 0.931 . S
C1673 C1672 1.391 . S
C1673 C1677 1.376 . S
C1674 C1672 1.394 . S
C1674 C1675 1.369 . S
C1674 C1678 1.531 . S
C1675 C1674 1.369 . S
C1675 C1676 1.410 . S
C1675 C1683 1.503 . S
C1676 C1675 1.410 . S
C1676 C1677 1.392 . S
C1676 C1679 1.511 . S
C1677 C1673 1.376 . S
C1677 C1676 1.392 . S
C1677 H1689 0.929 . S
C1678 C1674 1.531 . S
C1678 H1690 0.960 . S
C1678 H1691 0.962 . S
C1678 H1692 0.960 . S
C1679 C1676 1.511 . S
C1679 H1693 0.961 . S
C1679 H1694 0.961 . S
C1679 H1695 0.961 . S
C1680 C1681 1.370 . S
C1680 C1682 1.363 . S
C1680 H1696 0.931 . S
C1681 C1680 1.370 . S
C1681 C1685 1.408 . S
C1682 C1680 1.363 . S
C1682 C1683 1.370 . S
C1682 C1686 1.524 . S
C1683 C1675 1.503 . S
C1683 C1682 1.370 . S
C1683 C1684 1.403 . S
C1684 C1683 1.403 . S
C1684 C1685 1.404 . S
C1684 C1687 1.539 . S
C1685 C1681 1.408 . S
C1685 C1684 1.404 . S
C1685 H1697 0.930 . S
C1686 C1682 1.524 . S
C1686 H1698 0.956 . S
C1686 H1699 0.961 . S
C1686 H1700 0.961 . S
C1687 C1684 1.539 . S
C1687 H1701 0.958 . S
C1687 H1702 0.961 . S
C1687 H1703 0.960 . S
H1688 C1672 0.931 . S
H1689 C1677 0.929 . S
H1690 C1678 0.960 . S
H1691 C1678 0.962 . S
H1692 C1678 0.960 . S
H1693 C1679 0.961 . S
H1694 C1679 0.961 . S
H1695 C1679 0.961 . S
H1696 C1680 0.931 . S
H1697 C1685 0.930 . S
H1698 C1686 0.956 . S
H1699 C1686 0.961 . S
H1700 C1686 0.961 . S
H1701 C1687 0.958 . S
H1702 C1687 0.961 . S
H1703 C1687 0.960 . S
C1704 C1705 1.391 . S
C1704 C1706 1.394 . S
C1704 H1720 0.931 . S
C1705 C1704 1.391 . S
C1705 C1709 1.376 . S
C1706 C1704 1.394 . S
C1706 C1707 1.369 . S
C1706 C1710 1.531 . S
C1707 C1706 1.369 . S
C1707 C1708 1.410 . S
C1707 C1715 1.503 . S
C1708 C1707 1.410 . S
C1708 C1709 1.392 . S
C1708 C1711 1.511 . S
C1709 C1705 1.376 . S
C1709 C1708 1.392 . S
C1709 H1721 0.929 . S
C1710 C1706 1.531 . S
C1710 H1722 0.960 . S
C1710 H1723 0.962 . S
C1710 H1724 0.960 . S
C1711 C1708 1.511 . S
C1711 H1725 0.961 . S
C1711 H1726 0.961 . S
C1711 H1727 0.961 . S
C1712 C1713 1.370 . S
C1712 C1714 1.363 . S
C1712 H1728 0.931 . S
C1713 C1712 1.370 . S
C1713 C1717 1.408 . S
C1714 C1712 1.363 . S
C1714 C1715 1.370 . S
C1714 C1718 1.524 . S
C1715 C1707 1.503 . S
C1715 C1714 1.370 . S
C1715 C1716 1.403 . S
C1716 C1715 1.403 . S
C1716 C1717 1.404 . S
C1716 C1719 1.539 . S
C1717 C1713 1.408 . S
C1717 C1716 1.404 . S
C1717 H1729 0.930 . S
C1718 C1714 1.524 . S
C1718 H1730 0.956 . S
C1718 H1731 0.961 . S
C1718 H1732 0.961 . S
C1719 C1716 1.539 . S
C1719 H1733 0.958 . S
C1719 H1734 0.961 . S
C1719 H1735 0.960 . S
H1720 C1704 0.931 . S
H1721 C1709 0.929 . S
H1722 C1710 0.960 . S
H1723 C1710 0.962 . S
H1724 C1710 0.960 . S
H1725 C1711 0.961 . S
H1726 C1711 0.961 . S
H1727 C1711 0.961 . S
H1728 C1712 0.931 . S
H1729 C1717 0.930 . S
H1730 C1718 0.956 . S
H1731 C1718 0.961 . S
H1732 C1718 0.961 . S
H1733 C1719 0.958 . S
H1734 C1719 0.961 . S
H1735 C1719 0.960 . S
C1736 C1737 1.391 . S
C1736 C1738 1.394 . S
C1736 H1752 0.931 . S
C1737 C1736 1.391 . S
C1737 C1741 1.376 . S
C1738 C1736 1.394 . S
C1738 C1739 1.369 . S
C1738 C1742 1.531 . S
C1739 C1738 1.369 . S
C1739 C1740 1.410 . S
C1739 C1747 1.503 . S
C1740 C1739 1.410 . S
C1740 C1741 1.392 . S
C1740 C1743 1.511 . S
C1741 C1737 1.376 . S
C1741 C1740 1.392 . S
C1741 H1753 0.929 . S
C1742 C1738 1.531 . S
C1742 H1754 0.960 . S
C1742 H1755 0.962 . S
C1742 H1756 0.960 . S
C1743 C1740 1.511 . S
C1743 H1757 0.961 . S
C1743 H1758 0.961 . S
C1743 H1759 0.961 . S
C1744 C1745 1.370 . S
C1744 C1746 1.363 . S
C1744 H1760 0.931 . S
C1745 C1744 1.370 . S
C1745 C1749 1.408 . S
C1746 C1744 1.363 . S
C1746 C1747 1.370 . S
C1746 C1750 1.524 . S
C1747 C1739 1.503 . S
C1747 C1746 1.370 . S
C1747 C1748 1.403 . S
C1748 C1747 1.403 . S
C1748 C1749 1.404 . S
C1748 C1751 1.539 . S
C1749 C1745 1.408 . S
C1749 C1748 1.404 . S
C1749 H1761 0.930 . S
C1750 C1746 1.524 . S
C1750 H1762 0.956 . S
C1750 H1763 0.961 . S
C1750 H1764 0.961 . S
C1751 C1748 1.539 . S
C1751 H1765 0.958 . S
C1751 H1766 0.961 . S
C1751 H1767 0.960 . S
H1752 C1736 0.931 . S
H1753 C1741 0.929 . S
H1754 C1742 0.960 . S
H1755 C1742 0.962 . S
H1756 C1742 0.960 . S
H1757 C1743 0.961 . S
H1758 C1743 0.961 . S
H1759 C1743 0.961 . S
H1760 C1744 0.931 . S
H1761 C1749 0.930 . S
H1762 C1750 0.956 . S
H1763 C1750 0.961 . S
H1764 C1750 0.961 . S
H1765 C1751 0.958 . S
H1766 C1751 0.961 . S
H1767 C1751 0.960 . S
C1768 C1769 1.391 . S
C1768 C1770 1.394 . S
C1768 H1784 0.931 . S
C1769 C1768 1.391 . S
C1769 C1773 1.376 . S
C1770 C1768 1.394 . S
C1770 C1771 1.369 . S
C1770 C1774 1.531 . S
C1771 C1770 1.369 . S
C1771 C1772 1.410 . S
C1771 C1779 1.503 . S
C1772 C1771 1.410 . S
C1772 C1773 1.392 . S
C1772 C1775 1.511 . S
C1773 C1769 1.376 . S
C1773 C1772 1.392 . S
C1773 H1785 0.929 . S
C1774 C1770 1.531 . S
C1774 H1786 0.960 . S
C1774 H1787 0.962 . S
C1774 H1788 0.960 . S
C1775 C1772 1.511 . S
C1775 H1789 0.961 . S
C1775 H1790 0.961 . S
C1775 H1791 0.961 . S
C1776 C1777 1.370 . S
C1776 C1778 1.363 . S
C1776 H1792 0.931 . S
C1777 C1776 1.370 . S
C1777 C1781 1.408 . S
C1778 C1776 1.363 . S
C1778 C1779 1.370 . S
C1778 C1782 1.524 . S
C1779 C1771 1.503 . S
C1779 C1778 1.370 . S
C1779 C1780 1.403 . S
C1780 C1779 1.403 . S
C1780 C1781 1.404 . S
C1780 C1783 1.539 . S
C1781 C1777 1.408 . S
C1781 C1780 1.404 . S
C1781 H1793 0.930 . S
C1782 C1778 1.524 . S
C1782 H1794 0.956 . S
C1782 H1795 0.961 . S
C1782 H1796 0.961 . S
C1783 C1780 1.539 . S
C1783 H1797 0.958 . S
C1783 H1798 0.961 . S
C1783 H1799 0.960 . S
H1784 C1768 0.931 . S
H1785 C1773 0.929 . S
H1786 C1774 0.960 . S
H1787 C1774 0.962 . S
H1788 C1774 0.960 . S
H1789 C1775 0.961 . S
H1790 C1775 0.961 . S
H1791 C1775 0.961 . S
H1792 C1776 0.931 . S
H1793 C1781 0.930 . S
H1794 C1782 0.956 . S
H1795 C1782 0.961 . S
H1796 C1782 0.961 . S
H1797 C1783 0.958 . S
H1798 C1783 0.961 . S
H1799 C1783 0.960 . S
C649 C122 1.267 . S
C657 C4 1.277 . S
C681 C148 1.276 . S
C689 C50 1.285 . S
C713 C76 1.253 . S
C721 C184 1.293 . S
C745 C86 1.264 . S
C753 C194 1.257 . S
C777 C14 1.269 . S
C785 C112 1.292 . S
C809 C158 1.299 . S
C817 C40 1.271 . S
C841 C328 1.277 . S
C849 C220 1.293 . S
C873 C266 1.302 . S
C881 C364 1.253 . S
C905 C302 1.277 . S
C913 C400 1.245 . S
C937 C410 1.294 1_556 S
C945 C292 1.279 . S
C969 C338 1.246 . S
C977 C230 1.282 . S
C1001 C374 1.271 1_556 S
C1009 C256 1.280 . S
C1033 C436 1.308 . S
C1041 C554 1.291 . S
C1065 C482 1.298 . S
C1073 C580 1.254 . S
C1097 C508 1.310 . S
C1105 C616 1.258 . S
C1129 C626 1.241 . S
C1137 C518 1.278 1_554 S
C1161 C544 1.235 . S
C1169 C446 1.297 1_554 S
C1193 C590 1.275 . S
C1201 C472 1.256 . S
C1225 C3 1.258 . S
C1233 C255 1.255 . S
C1257 C38 1.217 . S
C1265 C291 1.236 . S
C1289 C218 1.238 . S
C1297 C75 1.246 . S
C1321 C74 1.192 . S
C1329 C470 1.213 1_554 S
C1353 C507 1.227 . S
C1361 C2 1.215 . S
C1385 C435 1.267 . S
C1393 C39 1.246 . S
C1417 C578 1.231 . S
C1425 C110 1.197 . S
C1449 C147 1.221 . S
C1457 C614 1.198 . S
C1481 C543 1.275 . S
C1489 C183 1.255 . S
C1513 C363 1.231 1_556 S
C1521 C182 1.218 . S
C1545 C111 1.244 . S
C1553 C399 1.250 . S
C1577 C146 1.241 . S
C1585 C327 1.240 1_556 S
C1609 C219 1.256 . S
C1617 C471 1.248 . S
C1641 C254 1.204 . S
C1649 C506 1.185 . S
C1673 C290 1.183 . S
C1681 C434 1.204 . S
C1705 C579 1.227 . S
C1713 C398 1.214 . S
C1737 C615 1.236 . S
C1745 C326 1.240 . S
C1769 C362 1.142 1_545 S
C1777 C542 1.178 . S
