# Generated by pormake.
# Topology ukb, (4)-cn, num edge types: 1
# Building blocks:
#     Node 0, Type 0, BuildingBlock: ICAMEG_clean_sbu_1, # of connection points: 4
#     Node 1, Type 0, BuildingBlock: ICAMEG_clean_sbu_1, # of connection points: 4
#     Node 2, Type 0, BuildingBlock: ICAMEG_clean_sbu_1, # of connection points: 4
#     Node 3, Type 0, BuildingBlock: ICAMEG_clean_sbu_1, # of connection points: 4
#     Node 4, Type 0, BuildingBlock: ICAMEG_clean_sbu_1, # of connection points: 4
#     Node 5, Type 0, BuildingBlock: ICAMEG_clean_sbu_1, # of connection points: 4
#     Node 6, Type 0, BuildingBlock: ICAMEG_clean_sbu_1, # of connection points: 4
#     Node 7, Type 0, BuildingBlock: ICAMEG_clean_sbu_1, # of connection points: 4
#     Node 8, Type 0, BuildingBlock: ICAMEG_clean_sbu_1, # of connection points: 4
#     Node 9, Type 0, BuildingBlock: ICAMEG_clean_sbu_1, # of connection points: 4
#     Node 10, Type 0, BuildingBlock: ICAMEG_clean_sbu_1, # of connection points: 4
#     Node 11, Type 0, BuildingBlock: ICAMEG_clean_sbu_1, # of connection points: 4
#     Node 12, Type 0, BuildingBlock: ICAMEG_clean_sbu_1, # of connection points: 4
#     Node 13, Type 0, BuildingBlock: ICAMEG_clean_sbu_1, # of connection points: 4
#     Node 14, Type 0, BuildingBlock: ICAMEG_clean_sbu_1, # of connection points: 4
#     Node 15, Type 0, BuildingBlock: ICAMEG_clean_sbu_1, # of connection points: 4
#     Edge 16, Type (0, 0), BuildingBlock: EZIPEK_clean_linker_0, # of connection points: 2
#     Edge 17, Type (0, 0), BuildingBlock: EZIPEK_clean_linker_0, # of connection points: 2
#     Edge 18, Type (0, 0), BuildingBlock: EZIPEK_clean_linker_0, # of connection points: 2
#     Edge 19, Type (0, 0), BuildingBlock: EZIPEK_clean_linker_0, # of connection points: 2
#     Edge 20, Type (0, 0), BuildingBlock: EZIPEK_clean_linker_0, # of connection points: 2
#     Edge 21, Type (0, 0), BuildingBlock: EZIPEK_clean_linker_0, # of connection points: 2
#     Edge 22, Type (0, 0), BuildingBlock: EZIPEK_clean_linker_0, # of connection points: 2
#     Edge 23, Type (0, 0), BuildingBlock: EZIPEK_clean_linker_0, # of connection points: 2
#     Edge 24, Type (0, 0), BuildingBlock: EZIPEK_clean_linker_0, # of connection points: 2
#     Edge 25, Type (0, 0), BuildingBlock: EZIPEK_clean_linker_0, # of connection points: 2
#     Edge 26, Type (0, 0), BuildingBlock: EZIPEK_clean_linker_0, # of connection points: 2
#     Edge 27, Type (0, 0), BuildingBlock: EZIPEK_clean_linker_0, # of connection points: 2
#     Edge 28, Type (0, 0), BuildingBlock: EZIPEK_clean_linker_0, # of connection points: 2
#     Edge 29, Type (0, 0), BuildingBlock: EZIPEK_clean_linker_0, # of connection points: 2
#     Edge 30, Type (0, 0), BuildingBlock: EZIPEK_clean_linker_0, # of connection points: 2
#     Edge 31, Type (0, 0), BuildingBlock: EZIPEK_clean_linker_0, # of connection points: 2
#     Edge 32, Type (0, 0), BuildingBlock: EZIPEK_clean_linker_0, # of connection points: 2
#     Edge 33, Type (0, 0), BuildingBlock: EZIPEK_clean_linker_0, # of connection points: 2
#     Edge 34, Type (0, 0), BuildingBlock: EZIPEK_clean_linker_0, # of connection points: 2
#     Edge 35, Type (0, 0), BuildingBlock: EZIPEK_clean_linker_0, # of connection points: 2
#     Edge 36, Type (0, 0), BuildingBlock: EZIPEK_clean_linker_0, # of connection points: 2
#     Edge 37, Type (0, 0), BuildingBlock: EZIPEK_clean_linker_0, # of connection points: 2
#     Edge 38, Type (0, 0), BuildingBlock: EZIPEK_clean_linker_0, # of connection points: 2
#     Edge 39, Type (0, 0), BuildingBlock: EZIPEK_clean_linker_0, # of connection points: 2
#     Edge 40, Type (0, 0), BuildingBlock: EZIPEK_clean_linker_0, # of connection points: 2
#     Edge 41, Type (0, 0), BuildingBlock: EZIPEK_clean_linker_0, # of connection points: 2
#     Edge 42, Type (0, 0), BuildingBlock: EZIPEK_clean_linker_0, # of connection points: 2
#     Edge 43, Type (0, 0), BuildingBlock: EZIPEK_clean_linker_0, # of connection points: 2
#     Edge 44, Type (0, 0), BuildingBlock: EZIPEK_clean_linker_0, # of connection points: 2
#     Edge 45, Type (0, 0), BuildingBlock: EZIPEK_clean_linker_0, # of connection points: 2
#     Edge 46, Type (0, 0), BuildingBlock: EZIPEK_clean_linker_0, # of connection points: 2
#     Edge 47, Type (0, 0), BuildingBlock: EZIPEK_clean_linker_0, # of connection points: 2
# Relax obj value: 0.075
# Max RMSD: 0.090
# Mean RMSD: 0.090
data_MOF--net-ukb--node1-ICAMEG_clean_sbu_1--edge1-EZIPEK_clean_linker_0
_symmetry_space_group_name_H-M    P1
_symmetry_Int_Tables_number       1
_symmetry_cell_setting            triclinic
loop_
_symmetry_equiv_pos_as_xyz
'x, y, z'
_cell_length_a     34.64522
_cell_length_b     34.650321
_cell_length_c     32.162326
_cell_angle_alpha  89.984172
_cell_angle_beta   89.986853
_cell_angle_gamma 89.989205
loop_
_atom_site_label
_atom_site_type_symbol
_atom_site_fract_x
_atom_site_fract_y
_atom_site_fract_z
_atom_type_partial_charge
Co0 Co 0.59207 0.17913 0.15632 0.0
Co1 Co 0.52692 0.19054 0.23785 0.0
O2 O 0.5409 0.17218 0.18177 0.0
C3 C 0.54162 0.21981 0.09573 0.0
O4 O 0.52098 0.23275 0.12702 0.0
C5 C 0.5092 0.10584 0.23936 0.0
O6 O 0.53895 0.09944 0.21508 0.0
O7 O 0.57627 0.17057 0.2623 0.0
O8 O 0.61758 0.16364 0.20896 0.0
H9 H 0.55102 0.26184 0.3713 0.0
H10 H 0.53377 0.12948 0.11581 0.0
O11 O 0.56858 0.19547 0.10197 0.0
H12 H 0.64551 0.04467 0.14168 0.0
H13 H 0.69075 0.16954 0.04161 0.0
H14 H 0.66597 0.21317 0.18504 0.0
H15 H 0.64743 0.11329 0.16186 0.0
H16 H 0.62673 0.16027 0.07368 0.0
O17 O 0.501 0.13994 0.25118 0.0
H18 H 0.56691 0.2378 0.30124 0.0
H19 H 0.4581 0.18168 0.29363 0.0
H20 H 0.73053 0.22253 0.1544 0.0
H21 H 0.53066 0.06107 0.09465 0.0
H22 H 0.74323 0.20067 0.0821 0.0
H23 H 0.58683 0.01815 0.10768 0.0
O24 O 0.59361 0.2343 0.17347 0.0
H25 H 0.40871 0.18194 0.14786 0.0
H26 H 0.47836 0.26114 0.25058 0.0
H27 H 0.41722 0.28509 0.22117 0.0
H28 H 0.38192 0.24537 0.16934 0.0
H29 H 0.47011 0.15934 0.17783 0.0
H30 H 0.44142 0.20442 0.36399 0.0
H31 H 0.48789 0.24509 0.40319 0.0
O32 O 0.55146 0.24214 0.22551 0.0
C33 C 0.60907 0.16134 0.24729 0.0
C34 C 0.53047 0.24425 0.35448 0.0
C35 C 0.46899 0.21195 0.35041 0.0
N36 N 0.51335 0.20867 0.29312 0.0
C37 C 0.53922 0.2307 0.31469 0.0
C38 C 0.47871 0.19897 0.31064 0.0
C39 C 0.49507 0.2348 0.37237 0.0
C40 C 0.55849 0.11109 0.12086 0.0
N41 N 0.5909 0.12546 0.13937 0.0
C42 C 0.5565 0.07234 0.10914 0.0
C43 C 0.58799 0.04826 0.11657 0.0
C44 C 0.62091 0.0631 0.13566 0.0
C45 C 0.62181 0.10198 0.14704 0.0
C46 C 0.68558 0.17911 0.07315 0.0
C47 C 0.67136 0.20322 0.15374 0.0
C48 C 0.64935 0.17404 0.09144 0.0
N49 N 0.64266 0.18591 0.13133 0.0
C50 C 0.70794 0.20877 0.13647 0.0
C51 C 0.71503 0.19657 0.0959 0.0
C52 C 0.57625 0.25564 0.1997 0.0
C53 C 0.42395 0.19967 0.17016 0.0
C54 C 0.46355 0.24397 0.22759 0.0
C55 C 0.42875 0.25755 0.21126 0.0
C56 C 0.40893 0.23524 0.18224 0.0
N57 N 0.47841 0.20931 0.21521 0.0
C58 C 0.45883 0.18706 0.18719 0.0
Co59 Co 0.33546 0.61655 0.65464 0.0
Co60 Co 0.3201 0.54635 0.73099 0.0
O61 O 0.33688 0.56289 0.67523 0.0
C62 C 0.28995 0.57329 0.59083 0.0
O63 O 0.27633 0.55154 0.62079 0.0
C64 C 0.40095 0.51322 0.72576 0.0
O65 O 0.41224 0.54294 0.70365 0.0
O66 O 0.35055 0.58884 0.75776 0.0
O67 O 0.35575 0.63536 0.70903 0.0
H68 H 0.26393 0.56676 0.87359 0.0
H69 H 0.37766 0.55457 0.61027 0.0
O70 O 0.31502 0.5991 0.59891 0.0
H71 H 0.4742 0.65622 0.63639 0.0
H72 H 0.34911 0.71954 0.5447 0.0
H73 H 0.32298 0.69478 0.69267 0.0
H74 H 0.40697 0.66422 0.65982 0.0
H75 H 0.35032 0.65331 0.57197 0.0
O76 O 0.36573 0.51019 0.73692 0.0
H77 H 0.28503 0.58619 0.80355 0.0
H78 H 0.3192 0.47116 0.77689 0.0
H79 H 0.32207 0.76131 0.66683 0.0
H80 H 0.44454 0.54547 0.58574 0.0
H81 H 0.33484 0.77423 0.59217 0.0
H82 H 0.49337 0.59652 0.59888 0.0
O83 O 0.28093 0.62358 0.67476 0.0
H84 H 0.2968 0.43996 0.62774 0.0
H85 H 0.24127 0.51362 0.74443 0.0
H86 H 0.20318 0.46167 0.71201 0.0
H87 H 0.23098 0.42427 0.65332 0.0
H88 H 0.33363 0.49252 0.66081 0.0
H89 H 0.29892 0.45053 0.84685 0.0
H90 H 0.27087 0.49842 0.89572 0.0
O91 O 0.27369 0.5806 0.7269 0.0
C92 C 0.36087 0.62245 0.7457 0.0
C93 C 0.27619 0.54562 0.85262 0.0
C94 C 0.29587 0.48042 0.83763 0.0
N95 N 0.30358 0.53005 0.78609 0.0
C96 C 0.28821 0.55651 0.81286 0.0
C97 C 0.30755 0.49237 0.7981 0.0
C98 C 0.28009 0.50729 0.86502 0.0
C99 C 0.39855 0.57722 0.61523 0.0
N100 N 0.38815 0.61028 0.63539 0.0
C101 C 0.43647 0.57178 0.60165 0.0
C102 C 0.46387 0.60039 0.60913 0.0
C103 C 0.45314 0.63389 0.63013 0.0
C104 C 0.41496 0.63831 0.64322 0.0
C105 C 0.3428 0.71424 0.57717 0.0
C106 C 0.32776 0.69966 0.66011 0.0
C107 C 0.34292 0.67661 0.5928 0.0
N108 N 0.33487 0.66951 0.63378 0.0
C109 C 0.32763 0.73767 0.64565 0.0
C110 C 0.33491 0.74492 0.60381 0.0
C111 C 0.26122 0.608 0.704 0.0
C112 C 0.28454 0.45569 0.65364 0.0
C113 C 0.25381 0.49718 0.71926 0.0
C114 C 0.232 0.4679 0.70089 0.0
C115 C 0.24759 0.44697 0.66793 0.0
N116 N 0.29026 0.50525 0.70544 0.0
C117 C 0.30547 0.48519 0.67279 0.0
Co118 Co 0.91544 0.32315 0.13481 0.0
Co119 Co 0.96107 0.32359 0.23047 0.0
O120 O 0.96062 0.33295 0.17012 0.0
C121 C 0.97375 0.27837 0.08606 0.0
O122 O 0.9882 0.26415 0.12053 0.0
C123 C 0.9925 0.40507 0.22735 0.0
O124 O 0.9647 0.41541 0.20196 0.0
O125 O 0.91276 0.35517 0.23771 0.0
O126 O 0.87951 0.34153 0.17966 0.0
H127 H 0.90141 0.29124 0.36869 0.0
H128 H 0.97942 0.37108 0.10294 0.0
O129 O 0.94838 0.30488 0.08747 0.0
H130 H 0.86569 0.45662 0.10255 0.0
H131 H 0.83967 0.33319 1.00131 0.0
H132 H 0.84481 0.27253 0.13945 0.0
H133 H 0.85998 0.38893 0.12538 0.0
H134 H 0.8941 0.34612 0.04826 0.0
O135 O 0.99524 0.37017 0.2396 0.0
H136 H 0.90186 0.3015 0.29291 0.0
H137 H 0.02143 0.32826 0.29664 0.0
H138 H 0.78961 0.25964 0.09404 0.0
H139 H 0.98633 0.43842 0.07906 0.0
H140 H 0.78652 0.29007 0.02421 0.0
H141 H 0.92917 0.48172 0.07892 0.0
O142 O 0.91218 0.26905 0.1568 0.0
H143 H 0.08972 0.28842 0.16852 0.0
H144 H 0.98632 0.24734 0.26406 0.0
H145 H 0.04303 0.20548 0.25399 0.0
H146 H 0.09546 0.22608 0.20619 0.0
H147 H 0.03199 0.32883 0.17892 0.0
H148 H 0.02219 0.31844 0.37255 0.0
H149 H 0.96189 0.29955 0.40907 0.0
O150 O 0.92897 0.27634 0.22395 0.0
C151 C 0.88124 0.35469 0.21673 0.0
C152 C 0.9279 0.29919 0.3531 0.0
C153 C 0.99566 0.31458 0.35529 0.0
N154 N 0.96167 0.31512 0.2902 0.0
C155 C 0.92835 0.30496 0.31013 0.0
C156 C 0.99502 0.32022 0.31229 0.0
C157 C 0.96184 0.30396 0.37575 0.0
C158 C 0.95434 0.38959 0.10227 0.0
N159 N 0.91929 0.37592 0.11492 0.0
C160 C 0.95846 0.42776 0.08902 0.0
C161 C 0.9264 0.45206 0.08905 0.0
C162 C 0.89078 0.43801 0.10233 0.0
C163 C 0.88776 0.39968 0.11538 0.0
C164 C 0.84008 0.32062 0.03212 0.0
C165 C 0.84309 0.28762 0.1103 0.0
C166 C 0.87068 0.32821 0.0592 0.0
N167 N 0.87135 0.31291 0.09848 0.0
C168 C 0.81197 0.27943 0.08413 0.0
C169 C 0.81034 0.29634 0.04491 0.0
C170 C 0.91537 0.25652 0.19405 0.0
C171 C 0.06741 0.27941 0.18999 0.0
C172 C 0.00917 0.25678 0.24355 0.0
C173 C 0.04117 0.23284 0.23786 0.0
C174 C 0.07054 0.24438 0.21101 0.0
N175 N 0.00663 0.29148 0.22343 0.0
C176 C 0.03494 0.30255 0.19645 0.0
Co177 Co 0.19065 0.88307 0.65403 0.0
Co178 Co 0.18738 0.95122 0.73216 0.0
O179 O 0.18016 0.93598 0.67359 0.0
C180 C 0.21593 0.93495 0.58193 0.0
O181 O 0.20708 0.96656 0.6022 0.0
C182 C 0.1078 0.9837 0.71612 0.0
O183 O 0.09796 0.95236 0.69589 0.0
O184 O 0.15244 0.90829 0.75035 0.0
O185 O 0.17091 0.86067 0.70734 0.0
H186 H 0.2072 0.92689 0.88486 0.0
H187 H 0.13923 0.93708 0.60753 0.0
O188 O 0.21088 0.90187 0.59857 0.0
H189 H 0.06035 0.82135 0.63335 0.0
H190 H 0.19106 0.77309 0.55104 0.0
H191 H 0.23032 0.81525 0.69096 0.0
H192 H 0.12796 0.82398 0.65694 0.0
H193 H 0.17648 0.83894 0.57537 0.0
O194 O 0.14218 0.98795 0.72944 0.0
H195 H 0.19943 0.9087 0.81128 0.0
H196 H 0.18635 0.02639 0.77755 0.0
H197 H 0.24405 0.7487 0.66878 0.0
H198 H 0.07212 0.9353 0.58285 0.0
H199 H 0.22485 0.72728 0.59808 0.0
H200 H 0.03209 0.87707 0.5957 0.0
O201 O 0.24411 0.88636 0.67717 0.0
H202 H 0.22761 0.06188 0.64104 0.0
H203 H 0.26535 0.97894 0.75879 0.0
H204 H 0.31001 0.02948 0.73443 0.0
H205 H 0.29117 0.07155 0.67526 0.0
H206 H 0.18427 0.01035 0.66607 0.0
H207 H 0.19341 0.04591 0.85084 0.0
H208 H 0.2042 0.99601 0.90508 0.0
O209 O 0.23364 0.9166 0.73793 0.0
C210 C 0.15343 0.87274 0.73971 0.0
C211 C 0.20293 0.94895 0.86147 0.0
C212 C 0.19511 0.01573 0.84239 0.0
N213 N 0.19359 0.96641 0.78992 0.0
C214 C 0.19887 0.93879 0.81967 0.0
C215 C 0.19118 0.00447 0.80091 0.0
C216 C 0.20115 0.98772 0.8728 0.0
C217 C 0.12248 0.91132 0.61256 0.0
N218 N 0.1382 0.88024 0.63247 0.0
C219 C 0.08427 0.91059 0.59874 0.0
C220 C 0.06181 0.87796 0.60603 0.0
C221 C 0.0777 0.84663 0.62706 0.0
C222 C 0.11607 0.84832 0.64024 0.0
C223 C 0.19951 0.78202 0.58198 0.0
C224 C 0.22094 0.80598 0.66066 0.0
C225 C 0.19144 0.81938 0.59586 0.0
N226 N 0.20176 0.83087 0.63498 0.0
C227 C 0.22922 0.76832 0.64802 0.0
C228 C 0.21843 0.75632 0.60837 0.0
C229 C 0.25504 0.89721 0.71326 0.0
C230 C 0.23605 0.04397 0.66707 0.0
C231 C 0.25691 0.99708 0.733 0.0
C232 C 0.28233 0.02571 0.71939 0.0
C233 C 0.27173 0.0493 0.68621 0.0
N234 N 0.22185 0.99216 0.71419 0.0
C235 C 0.21142 0.01503 0.68156 0.0
Co236 Co 0.59858 0.32328 0.86935 0.0
Co237 Co 0.53405 0.31055 0.78721 0.0
O238 O 0.54763 0.32992 0.843 0.0
C239 C 0.54689 0.28323 0.92894 0.0
O240 O 0.52782 0.2697 0.89684 0.0
C241 C 0.50361 0.39309 0.78994 0.0
O242 O 0.5205 0.3989 0.82584 0.0
O243 O 0.58302 0.33122 0.76306 0.0
O244 O 0.62463 0.33759 0.81639 0.0
H245 H 0.56232 0.23803 0.65545 0.0
H246 H 0.5406 0.37325 0.91017 0.0
O247 O 0.57406 0.30757 0.92361 0.0
H248 H 0.65158 0.45808 0.88117 0.0
H249 H 0.6953 0.33446 0.9858 0.0
H250 H 0.67339 0.28981 0.84224 0.0
H251 H 0.65336 0.38928 0.8617 0.0
H252 H 0.63175 0.34304 0.9524 0.0
O253 O 0.50701 0.36058 0.77148 0.0
H254 H 0.57661 0.26428 0.72493 0.0
H255 H 0.46509 0.31494 0.73075 0.0
H256 H 0.73749 0.28129 0.87412 0.0
H257 H 0.5378 0.44173 0.93116 0.0
H258 H 0.74874 0.30348 0.94655 0.0
H259 H 0.59354 0.4847 0.91637 0.0
O260 O 0.60094 0.26798 0.85322 0.0
H261 H 0.41719 0.31312 0.88037 0.0
H262 H 0.48841 0.2382 0.77516 0.0
H263 H 0.42888 0.2114 0.80531 0.0
H264 H 0.39272 0.24894 0.85833 0.0
H265 H 0.47678 0.33883 0.84945 0.0
H266 H 0.4499 0.28997 0.66092 0.0
H267 H 0.49857 0.25086 0.62292 0.0
O268 O 0.55978 0.26007 0.80029 0.0
C269 C 0.61609 0.33956 0.77796 0.0
C270 C 0.54081 0.25494 0.67173 0.0
C271 C 0.47777 0.28416 0.67478 0.0
N272 N 0.5216 0.29092 0.73216 0.0
C273 C 0.54866 0.26976 0.71121 0.0
C274 C 0.48662 0.29847 0.71425 0.0
C275 C 0.50507 0.26219 0.65349 0.0
C276 C 0.5652 0.39161 0.90456 0.0
N277 N 0.59721 0.3772 0.88531 0.0
C278 C 0.56335 0.43043 0.91609 0.0
C279 C 0.59459 0.45454 0.90768 0.0
C280 C 0.62714 0.43964 0.88789 0.0
C281 C 0.62793 0.40068 0.87682 0.0
C282 C 0.69075 0.32466 0.95423 0.0
C283 C 0.67813 0.29999 0.87355 0.0
C284 C 0.65479 0.32933 0.93519 0.0
N285 N 0.64886 0.31711 0.89529 0.0
C286 C 0.71446 0.29488 0.89154 0.0
C287 C 0.72074 0.30731 0.93218 0.0
C288 C 0.58454 0.24688 0.82613 0.0
C289 C 0.43262 0.2965 0.85721 0.0
C290 C 0.4729 0.25484 0.79809 0.0
C291 C 0.43915 0.23946 0.81509 0.0
C292 C 0.41891 0.26051 0.84485 0.0
N293 N 0.48615 0.29026 0.81015 0.0
C294 C 0.46649 0.31094 0.83952 0.0
Co295 Co 0.17384 0.61577 0.36452 0.0
Co296 Co 0.1867 0.54691 0.28611 0.0
O297 O 0.17112 0.56255 0.34261 0.0
C298 C 0.22419 0.57217 0.42405 0.0
O299 O 0.23787 0.55209 0.39275 0.0
C300 C 0.10728 0.5103 0.29716 0.0
O301 O 0.10131 0.52939 0.33174 0.0
O302 O 0.15814 0.59124 0.26101 0.0
O303 O 0.15025 0.63528 0.31205 0.0
H304 H 0.24338 0.56915 0.14398 0.0
H305 H 0.1346 0.55308 0.41076 0.0
O306 O 0.19752 0.59688 0.41812 0.0
H307 H 0.03664 0.65498 0.39401 0.0
H308 H 0.1721 0.71604 0.47845 0.0
H309 H 0.18011 0.69539 0.32738 0.0
H310 H 0.10207 0.66327 0.36534 0.0
H311 H 0.16656 0.65072 0.44954 0.0
O312 O 0.1392 0.51382 0.27774 0.0
H313 H 0.22293 0.58751 0.21452 0.0
H314 H 0.18623 0.47284 0.23847 0.0
H315 H 0.18628 0.76089 0.35509 0.0
H316 H 0.06975 0.54377 0.44092 0.0
H317 H 0.18247 0.77182 0.43125 0.0
H318 H 0.02014 0.59494 0.43236 0.0
O319 O 0.22708 0.624 0.34077 0.0
H320 H 0.20389 0.43482 0.38366 0.0
H321 H 0.2655 0.51393 0.27486 0.0
H322 H 0.30205 0.46073 0.30708 0.0
H323 H 0.27119 0.42062 0.36181 0.0
H324 H 0.16854 0.48853 0.35084 0.0
H325 H 0.20591 0.45319 0.168 0.0
H326 H 0.23485 0.50149 0.12018 0.0
O327 O 0.23396 0.57907 0.29079 0.0
C328 C 0.14616 0.62371 0.2747 0.0
C329 C 0.23063 0.54786 0.16443 0.0
C330 C 0.20958 0.48281 0.1779 0.0
N331 N 0.20284 0.53152 0.23058 0.0
C332 C 0.21888 0.55817 0.20446 0.0
C333 C 0.19821 0.49419 0.21773 0.0
C334 C 0.22585 0.50991 0.15111 0.0
C335 C 0.11354 0.57585 0.40812 0.0
N336 N 0.12249 0.60903 0.38744 0.0
C337 C 0.0767 0.57026 0.42472 0.0
C338 C 0.04885 0.59892 0.41979 0.0
C339 C 0.05808 0.6326 0.39829 0.0
C340 C 0.09524 0.63716 0.38219 0.0
C341 C 0.17465 0.71159 0.44525 0.0
C342 C 0.17969 0.69923 0.36053 0.0
C343 C 0.17205 0.67443 0.42858 0.0
N344 N 0.1756 0.66835 0.38668 0.0
C345 C 0.18255 0.73676 0.37609 0.0
C346 C 0.18033 0.74289 0.41878 0.0
C347 C 0.24638 0.60758 0.31179 0.0
C348 C 0.21757 0.4519 0.35964 0.0
C349 C 0.25178 0.49652 0.29852 0.0
C350 C 0.27266 0.46645 0.31669 0.0
C351 C 0.25534 0.44399 0.34741 0.0
N352 N 0.21463 0.50391 0.31042 0.0
C353 C 0.19761 0.48225 0.3408 0.0
Co354 Co 0.91828 0.17595 0.86297 0.0
Co355 Co 0.97803 0.18893 0.77668 0.0
O356 O 0.96776 0.16959 0.83337 0.0
C357 C 0.97341 0.2153 0.91995 0.0
O358 O 0.99222 0.22779 0.88718 0.0
C359 C 0.00804 0.10638 0.77755 0.0
O360 O 0.99314 0.10104 0.81455 0.0
O361 O 0.92781 0.16838 0.75587 0.0
O362 O 0.88934 0.16163 0.81179 0.0
H363 H 0.94192 0.26178 0.64735 0.0
H364 H 0.97857 0.12624 0.90002 0.0
O365 O 0.94546 0.19167 0.91568 0.0
H366 H 0.86673 0.04081 0.87776 0.0
H367 H 0.82836 0.16481 0.98561 0.0
H368 H 0.84196 0.2091 0.84069 0.0
H369 H 0.86349 0.10967 0.85867 0.0
H370 H 0.88979 0.15597 0.94798 0.0
O371 O 0.00392 0.13881 0.75907 0.0
H372 H 0.93182 0.23529 0.71759 0.0
H373 H 0.04352 0.18482 0.71552 0.0
H374 H 0.77989 0.21787 0.87686 0.0
H375 H 0.98288 0.05772 0.92061 0.0
H376 H 0.77284 0.19591 0.94999 0.0
H377 H 0.9267 0.01445 0.90918 0.0
O378 O 0.91491 0.23124 0.84713 0.0
H379 H 0.10104 0.18541 0.85999 0.0
H380 H 0.02238 0.2616 0.76225 0.0
H381 H 0.0838 0.28822 0.7879 0.0
H382 H 0.12371 0.25 0.8371 0.0
H383 H 0.03942 0.16001 0.83376 0.0
H384 H 0.05451 0.21003 0.64487 0.0
H385 H 0.00363 0.24916 0.61044 0.0
O386 O 0.95311 0.23932 0.79165 0.0
C387 C 0.89568 0.15991 0.77286 0.0
C388 C 0.96437 0.24485 0.66206 0.0
C389 C 0.02751 0.21573 0.66064 0.0
N390 N 0.98717 0.20869 0.72091 0.0
C391 C 0.9589 0.22988 0.70194 0.0
C392 C 0.02104 0.20129 0.7006 0.0
C393 C 0.99897 0.23772 0.64135 0.0
C394 C 0.9538 0.10775 0.89594 0.0
N395 N 0.92074 0.12201 0.87874 0.0
C396 C 0.95649 0.06891 0.90721 0.0
C397 C 0.92501 0.04462 0.90068 0.0
C398 C 0.89137 0.05938 0.883 0.0
C399 C 0.88975 0.09838 0.87213 0.0
C400 C 0.83107 0.17451 0.95375 0.0
C401 C 0.83903 0.19898 0.87229 0.0
C402 C 0.86583 0.16969 0.93232 0.0
N403 N 0.86948 0.18188 0.89208 0.0
C404 C 0.80384 0.20424 0.89271 0.0
C405 C 0.79992 0.19194 0.93375 0.0
C406 C 0.92974 0.25237 0.81903 0.0
C407 C 0.08397 0.20232 0.83848 0.0
C408 C 0.03948 0.24475 0.78364 0.0
C409 C 0.07431 0.25999 0.79805 0.0
C410 C 0.09667 0.23855 0.82565 0.0
N411 N 0.02722 0.20911 0.79618 0.0
C412 C 0.04897 0.18804 0.82343 0.0
Co413 Co 0.31469 0.89181 0.34439 0.0
Co414 Co 0.31255 0.96944 0.27632 0.0
O415 O 0.3241 0.94624 0.33071 0.0
C416 C 0.27255 0.93281 0.41169 0.0
O417 O 0.25815 0.95606 0.38346 0.0
C418 C 0.39533 0.99172 0.28781 0.0
O419 O 0.40262 0.95767 0.30386 0.0
O420 O 0.34135 0.9271 0.24691 0.0
O421 O 0.33325 0.87569 0.28876 0.0
H422 H 0.28546 0.97014 0.12217 0.0
H423 H 0.36218 0.93985 0.40094 0.0
O424 O 0.29607 0.90627 0.40145 0.0
H425 H 0.44715 0.83318 0.35684 0.0
H426 H 0.31467 0.77481 0.43763 0.0
H427 H 0.28016 0.82562 0.29936 0.0
H428 H 0.37999 0.83689 0.33186 0.0
H429 H 0.32833 0.84263 0.41938 0.0
O430 O 0.36108 1.00115 0.27778 0.0
H431 H 0.29811 0.94021 0.18997 0.0
H432 H 0.31038 0.05065 0.24546 0.0
H433 H 0.26608 0.75773 0.31628 0.0
H434 H 0.42919 0.93719 0.42682 0.0
H435 H 0.2833 0.73184 0.38583 0.0
H436 H 0.47216 0.88358 0.40471 0.0
O437 O 0.26085 0.89446 0.32229 0.0
H438 H 0.29624 0.07017 0.38714 0.0
H439 H 0.23417 0.00512 0.26829 0.0
H440 H 0.19815 0.05467 0.30732 0.0
H441 H 0.22923 0.08765 0.36714 0.0
H442 H 0.3311 0.02015 0.34752 0.0
H443 H 0.29843 0.08181 0.17798 0.0
H444 H 0.28537 0.04154 0.1157 0.0
O445 O 0.26277 0.93941 0.27226 0.0
C446 C 0.34464 0.89116 0.25504 0.0
C447 C 0.29009 0.98805 0.14927 0.0
C448 C 0.29742 0.05068 0.18056 0.0
N449 N 0.3021 0.99347 0.22266 0.0
C450 C 0.29661 0.9712 0.1881 0.0
C451 C 0.30376 0.03279 0.21887 0.0
C452 C 0.29021 0.02809 0.14562 0.0
C453 C 0.38065 0.91629 0.39146 0.0
N454 N 0.36714 0.88847 0.36515 0.0
C455 C 0.41859 0.915 0.40609 0.0
C456 C 0.4427 0.88494 0.39361 0.0
C457 C 0.42871 0.85667 0.36673 0.0
C458 C 0.39066 0.85897 0.35264 0.0
C459 C 0.30713 0.7857 0.40715 0.0
C460 C 0.28809 0.81455 0.32957 0.0
C461 C 0.31477 0.82409 0.39664 0.0
N462 N 0.30537 0.83802 0.35819 0.0
C463 C 0.27995 0.77606 0.33901 0.0
C464 C 0.28957 0.76159 0.37808 0.0
C465 C 0.24511 0.91272 0.29222 0.0
C466 C 0.28245 0.05613 0.36102 0.0
C467 C 0.24785 0.0192 0.29441 0.0
C468 C 0.22735 0.04734 0.3163 0.0
C469 C 0.24482 0.06586 0.34984 0.0
N470 N 0.28481 0.00992 0.30548 0.0
C471 C 0.30211 0.02793 0.33835 0.0
Co472 Co 0.42911 0.82805 0.86665 0.0
Co473 Co 0.48114 0.81012 0.7759 0.0
O474 O 0.47657 0.82944 0.83324 0.0
C475 C 0.48377 0.78452 0.9206 0.0
O476 O 0.49994 0.76982 0.88727 0.0
C477 C 0.51157 0.89148 0.77373 0.0
O478 O 0.49124 0.89875 0.80716 0.0
O479 O 0.43186 0.83522 0.75863 0.0
O480 O 0.39805 0.84443 0.81747 0.0
H481 H 0.43175 0.74162 0.64897 0.0
H482 H 0.49611 0.8718 0.89873 0.0
O483 O 0.4581 0.81063 0.91724 0.0
H484 H 0.39242 0.96797 0.88197 0.0
H485 H 0.35134 0.85215 0.99651 0.0
H486 H 0.34874 0.80062 0.85404 0.0
H487 H 0.38113 0.89959 0.86449 0.0
H488 H 0.40979 0.85346 0.95285 0.0
O489 O 0.51024 0.85793 0.75734 0.0
H490 H 0.42789 0.76812 0.71995 0.0
H491 H 0.54281 0.81 0.71045 0.0
H492 H 0.28927 0.79932 0.896 0.0
H493 H 0.50842 0.9397 0.91776 0.0
H494 H 0.29041 0.82508 0.9681 0.0
H495 H 0.45639 0.98837 0.90904 0.0
O496 O 0.4198 0.77269 0.8519 0.0
H497 H 0.60889 0.80217 0.84974 0.0
H498 H 0.51748 0.73367 0.75847 0.0
H499 H 0.57785 0.70155 0.77948 0.0
H500 H 0.62411 0.73585 0.82546 0.0
H501 H 0.54823 0.83324 0.82788 0.0
H502 H 0.54763 0.7846 0.63901 0.0
H503 H 0.49197 0.74979 0.60797 0.0
O504 O 0.45269 0.76218 0.7927 0.0
C505 C 0.40181 0.84626 0.77803 0.0
C506 C 0.45626 0.75662 0.6622 0.0
C507 C 0.52126 0.78082 0.65659 0.0
N508 N 0.48521 0.79034 0.71953 0.0
C509 C 0.45432 0.77157 0.70246 0.0
C510 C 0.51829 0.79535 0.69699 0.0
C511 C 0.49003 0.76126 0.6392 0.0
C512 C 0.47312 0.89267 0.8959 0.0
N513 N 0.43788 0.88168 0.88104 0.0
C514 C 0.48035 0.93113 0.90625 0.0
C515 C 0.45118 0.95844 0.90123 0.0
C516 C 0.4153 0.94702 0.88598 0.0
C517 C 0.40913 0.90829 0.87597 0.0
C518 C 0.35041 0.84094 0.96511 0.0
C519 C 0.34919 0.8125 0.88481 0.0
C520 C 0.38346 0.84151 0.94022 0.0
N521 N 0.38255 0.82747 0.90048 0.0
C522 C 0.31554 0.81142 0.90871 0.0
C523 C 0.31623 0.82579 0.94916 0.0
C524 C 0.43054 0.7508 0.82213 0.0
C525 C 0.58901 0.78694 0.82964 0.0
C526 C 0.53748 0.74888 0.77834 0.0
C527 C 0.57163 0.7305 0.79018 0.0
C528 C 0.59754 0.74974 0.81601 0.0
N529 N 0.52934 0.78543 0.79169 0.0
C530 C 0.55456 0.80437 0.81717 0.0
Co531 Co 0.67386 0.39553 0.35604 0.0
Co532 Co 0.67865 0.46941 0.28284 0.0
O533 O 0.66681 0.44944 0.33854 0.0
C534 C 0.72144 0.43747 0.41861 0.0
O535 O 0.73563 0.45887 0.3886 0.0
C536 C 0.59688 0.49629 0.29522 0.0
O537 O 0.58812 0.46389 0.31401 0.0
O538 O 0.6478 0.42648 0.25641 0.0
O539 O 0.65161 0.37698 0.30215 0.0
H540 H 0.73229 0.46436 0.13685 0.0
H541 H 0.62891 0.45222 0.40536 0.0
O542 O 0.69546 0.41255 0.41097 0.0
H543 H 0.54124 0.34199 0.38409 0.0
H544 H 0.67291 0.28756 0.46092 0.0
H545 H 0.70356 0.32363 0.31644 0.0
H546 H 0.60702 0.34127 0.35483 0.0
H547 H 0.66042 0.35352 0.43569 0.0
O548 O 0.63138 0.50309 0.28379 0.0
H549 H 0.71854 0.4391 0.20647 0.0
H550 H 0.6682 0.54609 0.24143 0.0
H551 H 0.718 0.2578 0.34102 0.0
H552 H 0.56347 0.45415 0.43549 0.0
H553 H 0.70202 0.23914 0.41338 0.0
H554 H 0.51909 0.39871 0.42487 0.0
O555 O 0.72729 0.39382 0.33184 0.0
H556 H 0.70395 0.57289 0.38872 0.0
H557 H 0.75635 0.50379 0.26718 0.0
H558 H 0.79514 0.55476 0.30044 0.0
H559 H 0.76889 0.58989 0.36155 0.0
H560 H 0.66649 0.52117 0.35481 0.0
H561 H 0.68153 0.57244 0.17205 0.0
H562 H 0.71366 0.53153 0.11897 0.0
O563 O 0.72615 0.43736 0.2801 0.0
C564 C 0.64136 0.39136 0.26723 0.0
C565 C 0.71756 0.48225 0.15942 0.0
C566 C 0.6891 0.54286 0.17917 0.0
N567 N 0.69044 0.49005 0.22775 0.0
C568 C 0.70913 0.46783 0.19896 0.0
C569 C 0.68114 0.52747 0.21839 0.0
C570 C 0.70721 0.51995 0.14944 0.0
C571 C 0.61002 0.42778 0.40127 0.0
N572 N 0.6221 0.39638 0.37919 0.0
C573 C 0.57288 0.42913 0.4181 0.0
C574 C 0.54798 0.39805 0.41206 0.0
C575 C 0.56039 0.3662 0.38923 0.0
C576 C 0.59771 0.36593 0.37282 0.0
C577 C 0.6797 0.29522 0.42912 0.0
C578 C 0.69664 0.31587 0.34799 0.0
C579 C 0.67266 0.33255 0.41458 0.0
N580 N 0.68103 0.34249 0.37439 0.0
C581 C 0.7047 0.27845 0.36168 0.0
C582 C 0.69598 0.26806 0.40244 0.0
C583 C 0.74274 0.41097 0.30086 0.0
C584 C 0.71554 0.55811 0.36183 0.0
C585 C 0.74458 0.51909 0.29358 0.0
C586 C 0.76674 0.54788 0.31234 0.0
C587 C 0.75201 0.56756 0.34664 0.0
N588 N 0.70865 0.51027 0.3084 0.0
C589 C 0.69424 0.52911 0.34227 0.0
Co590 Co 0.09309 0.66772 0.86227 0.0
Co591 Co 0.03301 0.68318 0.77684 0.0
O592 O 0.04328 0.6632 0.83321 0.0
C593 C 0.03901 0.70689 0.9199 0.0
O594 O 0.02027 0.71974 0.88726 0.0
C595 C 1.0 0.60206 0.77842 0.0
O596 O 0.01564 0.59602 0.81491 0.0
O597 O 0.08238 0.66091 0.75507 0.0
O598 O 0.12118 0.65369 0.81057 0.0
H599 H 0.07075 0.75148 0.64533 0.0
H600 H 0.03218 0.61889 0.89957 0.0
O601 O 0.06678 0.68314 0.91543 0.0
H602 H 0.14144 0.53106 0.87341 0.0
H603 H 0.18372 0.6515 0.98358 0.0
H604 H 0.17091 0.69705 0.83903 0.0
H605 H 0.14609 0.60009 0.85553 0.0
H606 H 0.1214 0.64655 0.94697 0.0
O607 O 0.00503 0.63421 0.75972 0.0
H608 H 0.0802 0.72686 0.71639 0.0
H609 H 0.96607 0.68227 0.71751 0.0
H610 H 0.23384 0.70189 0.87421 0.0
H611 H 0.02654 0.5502 0.91904 0.0
H612 H 0.24055 0.6792 0.94713 0.0
H613 H 0.08138 0.50571 0.90561 0.0
O614 O 0.0973 0.72333 0.84746 0.0
H615 H 0.91127 0.68479 0.86258 0.0
H616 H 0.99196 0.75787 0.76395 0.0
H617 H 0.93222 0.78715 0.79088 0.0
H618 H 0.8913 0.75053 0.84053 0.0
H619 H 0.9712 0.65666 0.83497 0.0
H620 H 0.95526 0.70657 0.64645 0.0
H621 H 0.00779 0.74169 0.6099 0.0
O622 O 0.05975 0.73261 0.7915 0.0
C623 C 0.11459 0.65211 0.77174 0.0
C624 C 0.0475 0.73654 0.66101 0.0
C625 C 0.98278 0.71116 0.66159 0.0
N626 N 0.02367 0.70323 0.72128 0.0
C627 C 0.05269 0.72251 0.70131 0.0
C628 C 0.98911 0.69729 0.70181 0.0
C629 C 0.01224 0.7309 0.64112 0.0
C630 C 0.05642 0.59986 0.89466 0.0
N631 N 0.08951 0.61357 0.87698 0.0
C632 C 0.05295 0.56093 0.90528 0.0
C633 C 0.08369 0.53597 0.89763 0.0
C634 C 0.11737 0.55016 0.87951 0.0
C635 C 0.11978 0.58927 0.86932 0.0
C636 C 0.18113 0.66159 0.95185 0.0
C637 C 0.17356 0.68681 0.87062 0.0
C638 C 0.14584 0.65907 0.93101 0.0
N639 N 0.14235 0.67169 0.8909 0.0
C640 C 0.2093 0.68977 0.89045 0.0
C641 C 0.21303 0.67708 0.93137 0.0
C642 C 0.08298 0.74495 0.81935 0.0
C643 C 0.92873 0.70098 0.84079 0.0
C644 C 0.97427 0.74159 0.78534 0.0
C645 C 0.94047 0.75839 0.80056 0.0
C646 C 0.91756 0.73786 0.82844 0.0
N647 N 0.98497 0.70526 0.79729 0.0
C648 C 0.96276 0.68513 0.82493 0.0
Co649 Co 0.83195 0.11346 0.35459 0.0
Co650 Co 0.80738 0.04665 0.27766 0.0
O651 O 0.82865 0.06059 0.33254 0.0
C652 C 0.78615 0.07219 0.41928 0.0
O653 O 0.77031 0.05148 0.38973 0.0
C654 C 0.88587 0.00828 0.28168 0.0
O655 O 0.89406 0.02798 0.31524 0.0
O656 O 0.83544 0.08937 0.24934 0.0
O657 O 0.85089 0.13164 0.29967 0.0
H658 H 0.73856 0.07437 0.14334 0.0
H659 H 0.87074 0.04956 0.39912 0.0
O660 O 0.81264 0.09632 0.41066 0.0
H661 H 0.97419 0.14167 0.36445 0.0
H662 H 0.85525 0.21271 0.4666 0.0
H663 H 0.82581 0.19338 0.31842 0.0
H664 H 0.90691 0.15464 0.34382 0.0
H665 H 0.85178 0.14726 0.43758 0.0
O666 O 0.85279 0.01179 0.26448 0.0
H667 H 0.76759 0.09053 0.21108 0.0
H668 H 0.80041 0.9736 0.2287 0.0
H669 H 0.82902 0.25909 0.34619 0.0
H670 H 0.93748 0.03587 0.42161 0.0
H671 H 0.8435 0.26931 0.42101 0.0
H672 H 0.98983 0.08203 0.40389 0.0
O673 O 0.77706 0.12473 0.33789 0.0
H674 H 0.79399 0.93408 0.37537 0.0
H675 H 0.72702 0.01629 0.27315 0.0
H676 H 0.69139 0.96371 0.30768 0.0
H677 H 0.72492 0.9221 0.35918 0.0
H678 H 0.82842 0.98709 0.34025 0.0
H679 H 0.77241 0.95626 0.16076 0.0
H680 H 0.7409 0.00679 0.11772 0.0
O681 O 0.762 0.0813 0.28828 0.0
C682 C 0.85101 0.12044 0.26198 0.0
C683 C 0.75219 0.05208 0.16181 0.0
C684 C 0.77124 0.98581 0.17157 0.0
N685 N 0.78561 0.03305 0.22395 0.0
C686 C 0.7686 0.06105 0.20027 0.0
C687 C 0.78726 0.99584 0.20992 0.0
C688 C 0.75354 0.01417 0.14745 0.0
C689 C 0.89317 0.07028 0.39261 0.0
N690 N 0.88478 0.10318 0.37111 0.0
C691 C 0.93099 0.06216 0.40482 0.0
C692 C 0.96036 0.088 0.39473 0.0
C693 C 0.95162 0.12144 0.37257 0.0
C694 C 0.91345 0.12859 0.36092 0.0
C695 C 0.84807 0.20861 0.43415 0.0
C696 C 0.83108 0.19707 0.3511 0.0
C697 C 0.84555 0.17145 0.41751 0.0
N698 N 0.83622 0.16587 0.37657 0.0
C699 C 0.83334 0.23464 0.36664 0.0
C700 C 0.84158 0.24036 0.40855 0.0
C701 C 0.75362 0.11019 0.31133 0.0
C702 C 0.77909 0.95189 0.35285 0.0
C703 C 0.74188 0.9982 0.29536 0.0
C704 C 0.72153 0.9685 0.31486 0.0
C705 C 0.74034 0.9452 0.34378 0.0
N706 N 0.77994 0.0045 0.30427 0.0
C707 C 0.7985 0.98189 0.33275 0.0
Co708 Co 0.41307 0.68374 0.13532 0.0
Co709 Co 0.45848 0.69422 0.23141 0.0
O710 O 0.45815 0.67882 0.17243 0.0
C711 C 0.47382 0.72618 0.08728 0.0
O712 O 0.48823 0.73949 0.12218 0.0
C713 C 0.49602 0.61522 0.22949 0.0
O714 O 0.48424 0.61039 0.19118 0.0
O715 O 0.40956 0.66575 0.24176 0.0
O716 O 0.37771 0.6656 0.18096 0.0
H717 H 0.39766 0.74927 0.36023 0.0
H718 H 0.48035 0.63797 0.10732 0.0
O719 O 0.44632 0.70181 0.08794 0.0
H720 H 0.37145 0.54655 0.10914 0.0
H721 H 0.34364 0.6652 0.99906 0.0
H722 H 0.33646 0.72375 0.13816 0.0
H723 H 0.36192 0.61455 0.1292 0.0
H724 H 0.39732 0.6578 0.04852 0.0
O725 O 0.48833 0.6465 0.24878 0.0
H726 H 0.39922 0.72745 0.2873 0.0
H727 H 0.51673 0.69461 0.30022 0.0
H728 H 0.28209 0.7318 0.08993 0.0
H729 H 0.49105 0.5705 0.08554 0.0
H730 H 0.28529 0.7022 0.01968 0.0
H731 H 0.43635 0.52417 0.08677 0.0
O732 O 0.40499 0.73869 0.15273 0.0
H733 H 0.59126 0.71247 0.17133 0.0
H734 H 0.48719 0.77277 0.25328 0.0
H735 H 0.54655 0.80958 0.2388 0.0
H736 H 0.5992 0.77938 0.19768 0.0
H737 H 0.53127 0.67684 0.18625 0.0
H738 H 0.51625 0.7154 0.37354 0.0
H739 H 0.4565 0.74331 0.40389 0.0
O740 O 0.429 0.74185 0.21763 0.0
C741 C 0.37989 0.65798 0.21981 0.0
C742 C 0.4239 0.73721 0.34735 0.0
C743 C 0.49044 0.71816 0.35482 0.0
N744 N 0.45813 0.70996 0.28939 0.0
C745 C 0.42501 0.72489 0.30602 0.0
C746 C 0.4905 0.70624 0.31333 0.0
C747 C 0.45691 0.73383 0.37183 0.0
C748 C 0.45629 0.61824 0.10666 0.0
N749 N 0.42055 0.63035 0.11881 0.0
C750 C 0.46257 0.57995 0.09488 0.0
C751 C 0.4319 0.55395 0.09573 0.0
C752 C 0.3955 0.56647 0.10835 0.0
C753 C 0.39034 0.60498 0.1199 0.0
C754 C 0.34156 0.67767 0.02984 0.0
C755 C 0.33789 0.71007 0.10826 0.0
C756 C 0.37179 0.67332 0.05821 0.0
N757 N 0.3694 0.68867 0.09736 0.0
C758 C 0.30705 0.71502 0.08078 0.0
C759 C 0.30889 0.6985 0.04136 0.0
C760 C 0.41122 0.75646 0.18685 0.0
C761 C 0.56866 0.72584 0.18957 0.0
C762 C 0.51005 0.75929 0.2356 0.0
C763 C 0.54358 0.78033 0.22742 0.0
C764 C 0.57308 0.76339 0.20431 0.0
N765 N 0.50607 0.72231 0.2214 0.0
C766 C 0.53469 0.70571 0.1983 0.0
Co767 Co 0.82949 0.38217 0.64851 0.0
Co768 Co 0.8143 0.45188 0.72518 0.0
O769 O 0.83009 0.43561 0.66924 0.0
C770 C 0.78258 0.42615 0.58651 0.0
O771 O 0.76874 0.44659 0.61739 0.0
C772 C 0.89434 0.48413 0.71766 0.0
O773 O 0.90459 0.45313 0.69713 0.0
O774 O 0.84635 0.4102 0.75105 0.0
O775 O 0.85156 0.36354 0.70231 0.0
H776 H 0.76071 0.43231 0.86923 0.0
H777 H 0.87095 0.44661 0.60689 0.0
O778 O 0.80768 0.40004 0.59352 0.0
H779 H 0.96772 0.34355 0.62383 0.0
H780 H 0.84142 0.28038 0.53709 0.0
H781 H 0.81893 0.30346 0.68603 0.0
H782 H 0.90122 0.33455 0.64903 0.0
H783 H 0.84298 0.34634 0.56512 0.0
O784 O 0.85938 0.48865 0.72905 0.0
H785 H 0.78053 0.41239 0.799 0.0
H786 H 0.8138 0.52724 0.77039 0.0
H787 H 0.81701 0.23722 0.65935 0.0
H788 H 0.93705 0.45675 0.5807 0.0
H789 H 0.82824 0.22515 0.58422 0.0
H790 H 0.98603 0.40498 0.58917 0.0
O791 O 0.77567 0.37383 0.67027 0.0
H792 H 0.7862 0.55833 0.62333 0.0
H793 H 0.73461 0.48169 0.73992 0.0
H794 H 0.69424 0.53239 0.70834 0.0
H795 H 0.72008 0.57133 0.64974 0.0
H796 H 0.82516 0.5067 0.65538 0.0
H797 H 0.7947 0.54841 0.84052 0.0
H798 H 0.76778 0.50085 0.8905 0.0
O799 O 0.76885 0.41643 0.72286 0.0
C800 C 0.85737 0.37687 0.73876 0.0
C801 C 0.77259 0.45329 0.84782 0.0
C802 C 0.79169 0.51842 0.83172 0.0
N803 N 0.79886 0.46833 0.78061 0.0
C804 C 0.78399 0.44208 0.80796 0.0
C805 C 0.80275 0.50615 0.7921 0.0
C806 C 0.77654 0.49174 0.85973 0.0
C807 C 0.89175 0.42356 0.60957 0.0
N808 N 0.8817 0.38949 0.62795 0.0
C809 C 0.92929 0.42963 0.59517 0.0
C810 C 0.95679 0.40062 0.60004 0.0
C811 C 0.94653 0.36615 0.61942 0.0
C812 C 0.9087 0.36113 0.6334 0.0
C813 C 0.83586 0.28531 0.56978 0.0
C814 C 0.82281 0.29893 0.65331 0.0
C815 C 0.83624 0.32277 0.58587 0.0
N816 N 0.82922 0.32938 0.62715 0.0
C817 C 0.82217 0.26109 0.63834 0.0
C818 C 0.82856 0.25433 0.59623 0.0
C819 C 0.75659 0.38863 0.70046 0.0
C820 C 0.7748 0.54195 0.64922 0.0
C821 C 0.74623 0.49873 0.7147 0.0
C822 C 0.72316 0.52734 0.69685 0.0
C823 C 0.73767 0.54914 0.66397 0.0
N824 N 0.78281 0.49214 0.70039 0.0
C825 C 0.797 0.51308 0.66785 0.0
Co826 Co 0.08474 0.82189 0.13891 0.0
Co827 Co 0.02193 0.8137 0.22309 0.0
O828 O 0.03386 0.82764 0.16507 0.0
C829 C 0.03575 0.77227 0.08491 0.0
O830 O 0.01793 0.75954 0.11821 0.0
C831 C 0.9968 0.89669 0.21743 0.0
O832 O 0.0266 0.9045 0.19369 0.0
O833 O 0.06953 0.84145 0.24391 0.0
O834 O 0.1095 0.84517 0.18882 0.0
H835 H 0.04892 0.75274 0.36242 0.0
H836 H 0.01995 0.86446 0.10013 0.0
O837 O 0.06117 0.79867 0.08779 0.0
H838 H 0.13024 0.95419 0.09598 0.0
H839 H 0.17999 0.82156 0.02016 0.0
H840 H 0.16172 0.79848 0.17016 0.0
H841 H 0.1373 0.88939 0.12667 0.0
H842 H 0.11625 0.8313 0.05266 0.0
O843 O 0.99094 0.86241 0.23026 0.0
H844 H 0.06286 0.76993 0.28992 0.0
H845 H 0.95418 0.82617 0.2799 0.0
H846 H 0.22605 0.78899 0.13902 0.0
H847 H 0.01154 0.92895 0.06902 0.0
H848 H 0.23547 0.80039 0.06345 0.0
H849 H 0.06696 0.97439 0.06687 0.0
O850 O 0.091 0.76928 0.16236 0.0
H851 H 0.90658 0.79509 0.12991 0.0
H852 H 0.97956 0.74168 0.2481 0.0
H853 H 0.92117 0.70838 0.22386 0.0
H854 H 0.88407 0.73503 0.16436 0.0
H855 H 0.96521 0.82743 0.15498 0.0
H856 H 0.93945 0.80997 0.35256 0.0
H857 H 0.98688 0.77289 0.39445 0.0
O858 O 0.05114 0.76404 0.2167 0.0
C859 C 0.10157 0.85133 0.22703 0.0
C860 C 0.02817 0.76928 0.34464 0.0
C861 C 0.9668 0.80144 0.33912 0.0
N862 N 0.01004 0.8002 0.28062 0.0
C863 C 0.036 0.77934 0.30345 0.0
C864 C 0.9756 0.81098 0.29799 0.0
C865 C 0.99337 0.78055 0.36258 0.0
C866 C 0.04423 0.88393 0.09903 0.0
N867 N 0.0791 0.87303 0.11499 0.0
C868 C 0.03928 0.92048 0.0815 0.0
C869 C 0.07038 0.94596 0.08032 0.0
C870 C 0.10588 0.93464 0.09662 0.0
C871 C 0.10971 0.89787 0.11393 0.0
C872 C 0.17625 0.81655 0.05314 0.0
C873 C 0.16567 0.80404 0.13736 0.0
C874 C 0.14017 0.82186 0.0717 0.0
N875 N 0.13526 0.81576 0.11338 0.0
C876 C 0.20214 0.79839 0.11986 0.0
C877 C 0.20739 0.80472 0.07745 0.0
C878 C 0.07613 0.74986 0.19179 0.0
C879 C 0.92229 0.78333 0.1561 0.0
C880 C 0.96353 0.75391 0.22251 0.0
C881 C 0.93047 0.73471 0.20878 0.0
C882 C 0.90971 0.74963 0.17538 0.0
N883 N 0.97566 0.78718 0.2037 0.0
C884 C 0.9555 0.80172 0.1707 0.0
Co885 Co 0.67795 0.11955 0.65155 0.0
Co886 Co 0.69489 0.04728 0.72501 0.0
O887 O 0.67784 0.06546 0.67019 0.0
C888 C 0.72456 0.07855 0.58749 0.0
O889 O 0.73925 0.05766 0.61756 0.0
C890 C 0.61496 0.01391 0.71735 0.0
O891 O 0.60385 0.04518 0.69779 0.0
O892 O 0.66333 0.08803 0.75333 0.0
O893 O 0.65721 0.13631 0.70654 0.0
H894 H 0.75104 0.06203 0.86856 0.0
H895 H 0.63633 0.05712 0.60694 0.0
O896 O 0.69874 0.10363 0.59554 0.0
H897 H 0.5388 0.15774 0.63329 0.0
H898 H 0.66337 0.22453 0.54405 0.0
H899 H 0.6891 0.19719 0.69155 0.0
H900 H 0.60585 0.16623 0.65702 0.0
H901 H 0.6623 0.15781 0.56998 0.0
O902 O 0.65006 0.01005 0.72852 0.0
H903 H 0.72999 0.08427 0.79956 0.0
H904 H 0.69649 0.97037 0.76718 0.0
H905 H 0.69079 0.26417 0.66685 0.0
H906 H 0.56971 0.0476 0.58198 0.0
H907 H 0.67788 0.27836 0.59254 0.0
H908 H 0.52034 0.09813 0.59525 0.0
O909 O 0.73217 0.12729 0.67221 0.0
H910 H 0.72176 0.94567 0.61719 0.0
H911 H 0.77457 0.01646 0.7373 0.0
H912 H 0.8144 0.96703 0.70275 0.0
H913 H 0.78795 0.93104 0.64235 0.0
H914 H 0.68328 0.99587 0.6523 0.0
H915 H 0.71681 0.94689 0.83602 0.0
H916 H 0.74447 0.99279 0.88728 0.0
O917 O 0.74026 0.08295 0.72292 0.0
C918 C 0.65228 0.12185 0.74262 0.0
C919 C 0.73886 0.04175 0.84658 0.0
C920 C 0.71962 0.97717 0.82834 0.0
N921 N 0.71149 0.02895 0.77937 0.0
C922 C 0.72677 0.05428 0.80741 0.0
C923 C 0.70787 0.99075 0.78946 0.0
C924 C 0.73518 0.00292 0.85706 0.0
C925 C 0.61531 0.07966 0.61171 0.0
N926 N 0.62537 0.11274 0.63205 0.0
C927 C 0.57749 0.07393 0.598 0.0
C928 C 0.54979 0.10224 0.60557 0.0
C929 C 0.56012 0.13569 0.62686 0.0
C930 C 0.59822 0.14041 0.64007 0.0
C931 C 0.66967 0.21867 0.57641 0.0
C932 C 0.68457 0.20265 0.65908 0.0
C933 C 0.66956 0.18078 0.59129 0.0
N934 N 0.67757 0.17298 0.63212 0.0
C935 C 0.68502 0.2409 0.6453 0.0
C936 C 0.67771 0.24886 0.60362 0.0
C937 C 0.75198 0.11152 0.70125 0.0
C938 C 0.73341 0.96071 0.64387 0.0
C939 C 0.76263 1.00061 0.71138 0.0
C940 C 0.78542 0.97276 0.69181 0.0
C941 C 0.77058 0.95262 0.65791 0.0
N942 N 0.72597 0.00803 0.6978 0.0
C943 C 0.7115 0.98878 0.66422 0.0
C944 C 0.47943 0.06314 0.29398 0.0
C945 C 0.48307 0.07362 0.25143 0.0
C946 C 0.434 0.02545 0.23273 0.0
C947 C 0.42743 0.01795 0.27563 0.0
N948 N 0.44124 0.03152 0.34752 0.0
N949 N 0.46125 0.06792 0.18047 0.0
C950 C 0.44969 0.03704 0.30641 0.0
C951 C 0.45992 0.05537 0.22078 0.0
N952 N 0.50506 0.07753 0.32235 0.0
N953 N 0.41605 0.00331 0.20331 0.0
H954 H 0.48025 0.08917 0.17012 0.0
H955 H 0.44166 0.05938 0.15773 0.0
H956 H 0.39643 0.98154 0.21062 0.0
H957 H 0.42289 0.00419 0.17181 0.0
H958 H 0.50669 0.06816 0.35304 0.0
H959 H 0.527 0.09677 0.31435 0.0
H960 H 0.4532 0.04779 0.37146 0.0
H961 H 0.42012 0.01225 0.3577 0.0
C962 C 0.41982 0.44325 0.73404 0.0
C963 C 0.42922 0.48282 0.73913 0.0
C964 C 0.49087 0.4631 0.77079 0.0
C965 C 0.47837 0.42398 0.77171 0.0
N966 N 0.42502 0.37951 0.76321 0.0
N967 N 0.47117 0.5301 0.77096 0.0
C968 C 0.44122 0.41473 0.75574 0.0
C969 C 0.46417 0.49276 0.75973 0.0
N970 N 0.39126 0.43254 0.70727 0.0
N971 N 0.52847 0.47208 0.77917 0.0
H972 H 0.45159 0.55235 0.76567 0.0
H973 H 0.49443 0.53817 0.78957 0.0
H974 H 0.54934 0.4513 0.78579 0.0
H975 H 0.53975 0.4997 0.77506 0.0
H976 H 0.38547 0.40384 0.69982 0.0
H977 H 0.37707 0.45239 0.6885 0.0
H978 H 0.39655 0.37294 0.75545 0.0
H979 H 0.4381 0.35861 0.78156 0.0
C980 C 0.06119 0.42602 0.2393 0.0
C981 C 0.02124 0.43397 0.24296 0.0
C982 C 0.03754 0.49486 0.27815 0.0
C983 C 0.07706 0.48362 0.28016 0.0
N984 N 0.12341 0.43189 0.27205 0.0
N985 N 0.97136 0.473 0.27427 0.0
C986 C 0.08804 0.44727 0.26344 0.0
C987 C 0.00933 0.46762 0.26471 0.0
N988 N 0.07383 0.3994 0.21123 0.0
N989 N 0.02682 0.53184 0.28718 0.0
H990 H 0.95016 0.45309 0.26644 0.0
H991 H 0.9617 0.49507 0.29369 0.0
H992 H 0.04641 0.55328 0.29528 0.0
H993 H 0.99896 0.5422 0.28219 0.0
H994 H 0.10301 0.39448 0.20525 0.0
H995 H 0.05515 0.38667 0.18996 0.0
H996 H 0.13131 0.40406 0.26311 0.0
H997 H 0.14281 0.44484 0.29243 0.0
C998 C 0.0446 0.00548 0.74891 0.0
C999 C 0.07869 0.01423 0.72616 0.0
C1000 C 0.06763 0.08309 0.73877 0.0
C1001 C 0.03158 0.07484 0.75806 0.0
N1002 N 0.98148 0.02764 0.77071 0.0
N1003 N 0.11467 0.06204 0.68818 0.0
C1004 C 0.01869 0.03585 0.7598 0.0
C1005 C 0.08762 0.05328 0.7175 0.0
N1006 N 0.03775 0.96871 0.76229 0.0
N1007 N 0.08446 0.11848 0.74299 0.0
H1008 H 0.12745 0.0408 0.66986 0.0
H1009 H 0.12027 0.09019 0.67842 0.0
H1010 H 0.07292 0.14022 0.76144 0.0
H1011 H 0.11227 0.12449 0.73245 0.0
H1012 H 0.01544 0.96176 0.78271 0.0
H1013 H 0.05641 0.94583 0.7564 0.0
H1014 H 0.96979 0.99999 0.7687 0.0
H1015 H 0.96111 0.04891 0.77727 0.0
C1016 C 0.52414 0.96168 0.75611 0.0
C1017 C 0.53678 0.92254 0.75572 0.0
C1018 C 0.59581 0.94371 0.72012 0.0
C1019 C 0.58652 0.9829 0.72797 0.0
N1020 N 0.54394 0.02832 0.76201 0.0
N1021 N 0.59039 0.87844 0.74468 0.0
C1022 C 0.55117 0.99176 0.74821 0.0
C1023 C 0.57415 0.91402 0.7396 0.0
N1024 N 0.48613 0.97038 0.76244 0.0
N1025 N 0.6245 0.93457 0.69283 0.0
H1026 H 0.57732 0.85618 0.76095 0.0
H1027 H 0.619 0.87253 0.7369 0.0
H1028 H 0.63877 0.9555 0.67557 0.0
H1029 H 0.63024 0.90637 0.68334 0.0
H1030 H 0.47524 0.99829 0.75948 0.0
H1031 H 0.46478 0.9494 0.76543 0.0
H1032 H 0.52011 0.03516 0.78038 0.0
H1033 H 0.56373 0.05078 0.75924 0.0
C1034 C 0.50903 0.54474 0.24528 0.0
C1035 C 0.51942 0.58428 0.2501 0.0
C1036 C 0.57241 0.56416 0.29586 0.0
C1037 C 0.56662 0.52516 0.28445 0.0
N1038 N 0.5318 0.47872 0.24277 0.0
N1039 N 0.56735 0.63032 0.27386 0.0
C1040 C 0.53539 0.5154 0.25787 0.0
C1041 C 0.55268 0.59376 0.27402 0.0
N1042 N 0.47359 0.53496 0.22992 0.0
N1043 N 0.59638 0.57295 0.32815 0.0
H1044 H 0.5561 0.65246 0.2558 0.0
H1045 H 0.59358 0.63744 0.28775 0.0
H1046 H 0.6092 0.55161 0.34631 0.0
H1047 H 0.59934 0.6008 0.34 0.0
H1048 H 0.46339 0.50666 0.22952 0.0
H1049 H 0.4527 0.55526 0.22193 0.0
H1050 H 0.51209 0.47134 0.21963 0.0
H1051 H 0.55061 0.4564 0.25052 0.0
C1052 C 0.93803 0.5819 0.7424 0.0
C1053 C 0.97436 0.57183 0.75995 0.0
C1054 C 0.9578 0.50331 0.7512 0.0
C1055 C 0.92363 0.51378 0.72947 0.0
N1056 N 0.88845 0.56373 0.69362 0.0
N1057 N 0.02259 0.5223 0.77051 0.0
C1058 C 0.916 0.5533 0.72174 0.0
C1059 C 0.98545 0.5323 0.76114 0.0
N1060 N 0.92304 0.61801 0.74752 0.0
N1061 N 0.96312 0.46625 0.7645 0.0
H1062 H 0.0442 0.54259 0.77604 0.0
H1063 H 0.03283 0.4941 0.76811 0.0
H1064 H 0.94279 0.44452 0.75998 0.0
H1065 H 0.98579 0.45814 0.78393 0.0
H1066 H 0.89507 0.6253 0.73851 0.0
H1067 H 0.93641 0.6392 0.76516 0.0
H1068 H 0.88397 0.59222 0.68436 0.0
H1069 H 0.87389 0.54349 0.67568 0.0
C1070 C 0.95476 0.99057 0.26177 0.0
C1071 C 0.91487 0.98057 0.26431 0.0
C1072 C 0.92899 0.9208 0.22669 0.0
C1073 C 0.96919 0.9276 0.23027 0.0
N1074 N 0.02042 0.96669 0.25906 0.0
N1075 N 0.86695 0.9299 0.2588 0.0
C1076 C 0.98221 0.96194 0.24988 0.0
C1077 C 0.90273 0.94393 0.24943 0.0
N1078 N 0.96659 0.02755 0.26909 0.0
N1079 N 0.91558 0.89312 0.20029 0.0
H1080 H 0.84783 0.94409 0.27849 0.0
H1081 H 0.85834 0.9019 0.25138 0.0
H1082 H 0.93391 0.87828 0.18032 0.0
H1083 H 0.88631 0.889 0.1942 0.0
H1084 H 0.99471 0.03687 0.26349 0.0
H1085 H 0.94777 0.04994 0.27643 0.0
H1086 H 0.03063 0.98938 0.27727 0.0
H1087 H 0.04143 0.94616 0.25213 0.0
C1088 C 0.56421 0.32259 0.2274 0.0
C1089 C 0.58742 0.29778 0.20308 0.0
C1090 C 0.6379 0.34777 0.20409 0.0
C1091 C 0.61958 0.36496 0.23896 0.0
N1092 N 0.56205 0.37158 0.2806 0.0
N1093 N 0.64138 0.29474 0.15518 0.0
C1094 C 0.5816 0.35336 0.24951 0.0
C1095 C 0.62274 0.31285 0.18706 0.0
N1096 N 0.52515 0.31872 0.22608 0.0
N1097 N 0.66863 0.36579 0.18622 0.0
H1098 H 0.62716 0.27682 0.13421 0.0
H1099 H 0.67032 0.29933 0.14801 0.0
H1100 H 0.679 0.39177 0.19754 0.0
H1101 H 0.68164 0.35709 0.1586 0.0
H1102 H 0.50615 0.33746 0.24104 0.0
H1103 H 0.51233 0.30031 0.20446 0.0
H1104 H 0.53599 0.36139 0.29252 0.0
H1105 H 0.57296 0.39584 0.29558 0.0
C1106 C 0.21513 0.65999 0.72855 0.0
C1107 C 0.2213 0.62215 0.71285 0.0
C1108 C 0.15401 0.60536 0.72952 0.0
C1109 C 0.14817 0.64317 0.74489 0.0
N1110 N 0.16898 0.70937 0.74801 0.0
N1111 N 0.19371 0.5627 0.68782 0.0
C1112 C 0.17736 0.67147 0.74047 0.0
C1113 C 0.18973 0.59604 0.70998 0.0
N1114 N 0.24567 0.68402 0.73518 0.0
N1115 N 0.1261 0.57801 0.73511 0.0
H1116 H 0.21919 0.55567 0.6724 0.0
H1117 H 0.17092 0.54405 0.68139 0.0
H1118 H 0.09918 0.58439 0.74795 0.0
H1119 H 0.13039 0.54877 0.7292 0.0
H1120 H 0.24355 0.71027 0.75079 0.0
H1121 H 0.27384 0.67591 0.72866 0.0
H1122 H 0.1879 0.73184 0.74112 0.0
H1123 H 0.14163 0.71858 0.75723 0.0
C1124 C 0.90341 0.14886 0.21713 0.0
C1125 C 0.8647 0.14893 0.23131 0.0
C1126 C 0.86083 0.21785 0.22241 0.0
C1127 C 0.89827 0.21871 0.205 0.0
N1128 N 0.95524 0.18432 0.18303 0.0
N1129 N 0.80302 0.18035 0.23023 0.0
C1130 C 0.9195 0.18377 0.20081 0.0
C1131 C 0.84217 0.18231 0.22734 0.0
N1132 N 0.9248 0.11599 0.22077 0.0
N1133 N 0.84472 0.25007 0.2392 0.0
H1134 H 0.78863 0.15414 0.23413 0.0
H1135 H 0.7855 0.20424 0.22428 0.0
H1136 H 0.85964 0.27601 0.24144 0.0
H1137 H 0.81881 0.24931 0.25576 0.0
H1138 H 0.95438 0.11467 0.21528 0.0
H1139 H 0.91245 0.09001 0.23038 0.0
H1140 H 0.97091 0.15954 0.17599 0.0
H1141 H 0.96849 0.20988 0.17362 0.0
C1142 C 0.29724 0.85654 0.75913 0.0
C1143 C 0.29403 0.88534 0.72817 0.0
C1144 C 0.36507 0.88918 0.7268 0.0
C1145 C 0.36675 0.8569 0.75403 0.0
N1146 N 0.33339 0.80033 0.77844 0.0
N1147 N 0.32593 0.92706 0.6788 0.0
C1148 C 0.33248 0.83736 0.7642 0.0
C1149 C 0.32836 0.9008 0.71034 0.0
N1150 N 0.26822 0.84955 0.7865 0.0
N1151 N 0.39783 0.90945 0.71803 0.0
H1152 H 0.29962 0.93768 0.6679 0.0
H1153 H 0.34985 0.93663 0.6621 0.0
H1154 H 0.4249 0.90112 0.72898 0.0
H1155 H 0.39779 0.93555 0.70196 0.0
H1156 H 0.27129 0.83024 0.81122 0.0
H1157 H 0.24368 0.86665 0.7878 0.0
H1158 H 0.30823 0.78458 0.78408 0.0
H1159 H 0.35911 0.78471 0.78057 0.0
C1160 C 0.63648 0.19505 0.8293 0.0
C1161 C 0.59802 0.20606 0.8202 0.0
C1162 C 0.59223 0.15234 0.77133 0.0
C1163 C 0.63276 0.14668 0.77369 0.0
N1164 N 0.6941 0.16302 0.80469 0.0
N1165 N 0.53568 0.18139 0.80301 0.0
C1166 C 0.655 0.16759 0.80324 0.0
C1167 C 0.57464 0.18035 0.79734 0.0
N1168 N 0.65418 0.20843 0.86435 0.0
N1169 N 0.57087 0.13248 0.74282 0.0
H1170 H 0.52345 0.19919 0.82565 0.0
H1171 H 0.5166 0.16171 0.78975 0.0
H1172 H 0.58267 0.11119 0.72385 0.0
H1173 H 0.5421 0.13873 0.73625 0.0
H1174 H 0.68148 0.19949 0.8739 0.0
H1175 H 0.63925 0.22359 0.88724 0.0
H1176 H 0.71231 0.18089 0.8218 0.0
H1177 H 0.70861 0.14324 0.78607 0.0
C1178 C 0.35006 0.61197 0.27262 0.0
C1179 C 0.3455 0.64142 0.24198 0.0
C1180 C 0.28223 0.65648 0.27081 0.0
C1181 C 0.28378 0.62405 0.29728 0.0
N1182 N 0.31859 0.56814 0.32106 0.0
N1183 N 0.29821 0.67707 0.20205 0.0
C1184 C 0.31772 0.60101 0.29767 0.0
C1185 C 0.30907 0.65965 0.23812 0.0
N1186 N 0.38469 0.59358 0.27679 0.0
N1187 N 0.25459 0.68389 0.27598 0.0
H1188 H 0.31258 0.67201 0.17435 0.0
H1189 H 0.27142 0.69017 0.19803 0.0
H1190 H 0.23578 0.68308 0.30097 0.0
H1191 H 0.25385 0.70929 0.25857 0.0
H1192 H 0.3913 0.57546 0.30163 0.0
H1193 H 0.40724 0.59717 0.25568 0.0
H1194 H 0.34042 0.54756 0.3191 0.0
H1195 H 0.29618 0.56064 0.34111 0.0
C1196 C 0.91876 0.34626 0.76406 0.0
C1197 C 0.87827 0.35153 0.76832 0.0
C1198 C 0.87739 0.30353 0.82446 0.0
C1199 C 0.91562 0.29301 0.81375 0.0
N1200 N 0.97689 0.31819 0.79333 0.0
N1201 N 0.81842 0.33459 0.80222 0.0
C1202 C 0.93772 0.31877 0.78955 0.0
C1203 C 0.85749 0.33054 0.79902 0.0
N1204 N 0.93875 0.36599 0.73431 0.0
N1205 N 0.86126 0.29018 0.8604 0.0
H1206 H 0.80291 0.35397 0.78404 0.0
H1207 H 0.80114 0.31663 0.82034 0.0
H1208 H 0.87732 0.27537 0.88268 0.0
H1209 H 0.83424 0.29881 0.87114 0.0
H1210 H 0.96728 0.35993 0.72645 0.0
H1211 H 0.92599 0.38687 0.7156 0.0
H1212 H 0.99518 0.33803 0.77906 0.0
H1213 H 0.99029 0.30055 0.81535 0.0
C1214 C 0.15045 0.9038 0.23035 0.0
C1215 C 0.13158 0.87325 0.25101 0.0
C1216 C 0.17945 0.88087 0.30661 0.0
C1217 C 0.2045 0.90154 0.27919 0.0
N1218 N 0.21313 0.92182 0.20727 0.0
N1219 N 0.1314 0.8305 0.31055 0.0
C1220 C 0.1897 0.91079 0.23903 0.0
C1221 C 0.14678 0.86113 0.28992 0.0
N1222 N 0.1313 0.92554 0.20178 0.0
N1223 N 0.18505 0.88183 0.34851 0.0
H1224 H 0.10813 0.81501 0.2991 0.0
H1225 H 0.14394 0.81898 0.33729 0.0
H1226 H 0.20447 0.90089 0.3622 0.0
H1227 H 0.16623 0.86865 0.36947 0.0
H1228 H 0.14398 0.94942 0.18744 0.0
H1229 H 0.10179 0.922 0.19651 0.0
H1230 H 0.20271 0.92747 0.17743 0.0
H1231 H 0.24264 0.91745 0.20853 0.0
C1232 C 0.42075 0.6534 0.77422 0.0
C1233 C 0.38006 0.64883 0.77559 0.0
C1234 C 0.37579 0.70169 0.8264 0.0
C1235 C 0.41511 0.71041 0.81868 0.0
N1236 N 0.47716 0.68286 0.8056 0.0
N1237 N 0.31826 0.66831 0.80303 0.0
C1238 C 0.43832 0.68245 0.79883 0.0
C1239 C 0.35744 0.67244 0.80234 0.0
N1240 N 0.44236 0.63169 0.74752 0.0
N1241 N 0.35692 0.71907 0.85857 0.0
H1242 H 0.30406 0.64673 0.78653 0.0
H1243 H 0.29968 0.68771 0.81757 0.0
H1244 H 0.37146 0.73539 0.88074 0.0
H1245 H 0.32874 0.71251 0.86727 0.0
H1246 H 0.47144 0.63693 0.74158 0.0
H1247 H 0.43049 0.61004 0.72911 0.0
H1248 H 0.49589 0.66154 0.79491 0.0
H1249 H 0.48959 0.70244 0.82634 0.0
C1250 C 0.84604 0.40395 0.26137 0.0
C1251 C 0.84457 0.36997 0.23652 0.0
C1252 C 0.77494 0.36484 0.25267 0.0
C1253 C 0.77846 0.39492 0.28214 0.0
N1254 N 0.8178 0.44194 0.31703 0.0
N1255 N 0.805 0.31767 0.20909 0.0
C1256 C 0.81425 0.41394 0.28742 0.0
C1257 C 0.80826 0.35047 0.23214 0.0
N1258 N 0.87628 0.42879 0.25697 0.0
N1259 N 0.73918 0.35089 0.24276 0.0
H1260 H 0.82679 0.30658 0.19107 0.0
H1261 H 0.78147 0.29902 0.21049 0.0
H1262 H 0.71409 0.35965 0.25771 0.0
H1263 H 0.73365 0.33301 0.21746 0.0
H1264 H 0.87747 0.45576 0.27121 0.0
H1265 H 0.89745 0.42473 0.23442 0.0
H1266 H 0.84419 0.45402 0.32549 0.0
H1267 H 0.79468 0.45086 0.33544 0.0
C1268 C 0.07498 0.81344 0.79464 0.0
C1269 C 0.09811 0.7851 0.81421 0.0
C1270 C 0.15608 0.81562 0.78826 0.0
C1271 C 0.1338 0.84334 0.76624 0.0
N1272 N 0.0711 0.86657 0.74543 0.0
N1273 N 0.15858 0.77619 0.84972 0.0
C1274 C 0.0928 0.84235 0.76939 0.0
C1275 C 0.13802 0.79152 0.81759 0.0
N1276 N 0.03627 0.81338 0.8023 0.0
N1277 N 0.1939 0.8097 0.77909 0.0
H1278 H 0.14509 0.7632 0.87508 0.0
H1279 H 0.18782 0.78204 0.85426 0.0
H1280 H 0.20752 0.82378 0.7548 0.0
H1281 H 0.20998 0.78724 0.79204 0.0
H1282 H 0.01713 0.83419 0.79145 0.0
H1283 H 0.02418 0.79402 0.82353 0.0
H1284 H 0.04117 0.86541 0.74339 0.0
H1285 H 0.08342 0.8862 0.72484 0.0
C1286 C 0.64598 0.11264 0.28956 0.0
C1287 C 0.64118 0.15107 0.27565 0.0
C1288 C 0.70795 0.16613 0.29485 0.0
C1289 C 0.71379 0.12681 0.30648 0.0
N1290 N 0.68487 0.06692 0.32824 0.0
N1291 N 0.66273 0.21685 0.27524 0.0
C1292 C 0.68157 0.10142 0.30806 0.0
C1293 C 0.67064 0.17866 0.28205 0.0
N1294 N 0.61711 0.08645 0.28345 0.0
N1295 N 0.73833 0.19102 0.29368 0.0
H1296 H 0.63544 0.22656 0.26633 0.0
H1297 H 0.68185 0.23926 0.28128 0.0
H1298 H 0.76556 0.18346 0.30389 0.0
H1299 H 0.73735 0.21836 0.28037 0.0
H1300 H 0.62048 0.05685 0.28768 0.0
H1301 H 0.59004 0.09443 0.27234 0.0
H1302 H 0.66172 0.04849 0.33385 0.0
H1303 H 0.71022 0.05854 0.34309 0.0
C1304 C 0.35313 0.79628 0.20406 0.0
C1305 C 0.39293 0.79456 0.19399 0.0
C1306 C 0.40014 0.86247 0.2145 0.0
C1307 C 0.36007 0.86385 0.22365 0.0
N1308 N 0.29695 0.83668 0.21352 0.0
N1309 N 0.45327 0.82735 0.18268 0.0
C1310 C 0.33611 0.83236 0.21309 0.0
C1311 C 0.41604 0.82831 0.19655 0.0
N1312 N 0.33241 0.76318 0.20947 0.0
N1313 N 0.42327 0.89269 0.22534 0.0
H1314 H 0.46588 0.80232 0.17088 0.0
H1315 H 0.47067 0.85173 0.18009 0.0
H1316 H 0.41219 0.91847 0.2368 0.0
H1317 H 0.45329 0.89172 0.22452 0.0
H1318 H 0.30429 0.7628 0.22099 0.0
H1319 H 0.34491 0.73596 0.20711 0.0
H1320 H 0.27803 0.81541 0.20303 0.0
H1321 H 0.2839 0.86303 0.22053 0.0
C1322 C 0.68498 0.39684 0.70935 0.0
C1323 C 0.71802 0.37259 0.71168 0.0
C1324 C 0.67849 0.32233 0.74454 0.0
C1325 C 0.648 0.34919 0.74915 0.0
N1326 N 0.6216 0.41243 0.73696 0.0
N1327 N 0.74706 0.31339 0.73591 0.0
C1328 C 0.6508 0.38645 0.7313 0.0
C1329 C 0.71487 0.3353 0.7298 0.0
N1330 N 0.68624 0.42953 0.6857 0.0
N1331 N 0.67261 0.28442 0.75452 0.0
H1332 H 0.77436 0.32285 0.72748 0.0
H1333 H 0.74728 0.28786 0.753 0.0
H1334 H 0.64606 0.27412 0.76511 0.0
H1335 H 0.69266 0.26271 0.74852 0.0
H1336 H 0.66225 0.44673 0.67964 0.0
H1337 H 0.71073 0.4375 0.66896 0.0
H1338 H 0.62379 0.44152 0.72916 0.0
H1339 H 0.59577 0.40526 0.75174 0.0
C1340 C 0.14768 0.67085 0.21538 0.0
C1341 C 0.1262 0.65015 0.24568 0.0
C1342 C 0.06771 0.68437 0.22433 0.0
C1343 C 0.09055 0.70969 0.20018 0.0
N1344 N 0.14524 0.71056 0.15357 0.0
N1345 N 0.06522 0.63581 0.27843 0.0
C1346 C 0.1286 0.69818 0.18968 0.0
C1347 C 0.08587 0.65615 0.24964 0.0
N1348 N 0.18667 0.66608 0.2127 0.0
N1349 N 0.02863 0.68526 0.21974 0.0
H1350 H 0.07737 0.61383 0.2963 0.0
H1351 H 0.03674 0.64216 0.28621 0.0
H1352 H 0.01591 0.70222 0.19669 0.0
H1353 H 0.00984 0.66593 0.23404 0.0
H1354 H 0.20427 0.68367 0.19459 0.0
H1355 H 0.20175 0.64674 0.23136 0.0
H1356 H 0.17208 0.70106 0.14317 0.0
H1357 H 0.12974 0.72493 0.13057 0.0
C1358 C 0.85872 0.11299 0.72844 0.0
C1359 C 0.86234 0.15024 0.74608 0.0
C1360 C 0.79488 0.16438 0.72966 0.0
C1361 C 0.79093 0.12713 0.71163 0.0
N1362 N 0.82173 0.07031 0.68398 0.0
N1363 N 0.83822 0.21515 0.75223 0.0
C1364 C 0.82379 0.10279 0.70787 0.0
C1365 C 0.83182 0.17722 0.74276 0.0
N1366 N 0.88798 0.08687 0.73285 0.0
N1367 N 0.76303 0.18638 0.73725 0.0
H1368 H 0.86513 0.22537 0.76177 0.0
H1369 H 0.8181 0.23692 0.74671 0.0
H1370 H 0.7354 0.17697 0.73017 0.0
H1371 H 0.76359 0.21191 0.75434 0.0
H1372 H 0.88534 0.05779 0.72521 0.0
H1373 H 0.91436 0.09394 0.74647 0.0
H1374 H 0.8455 0.05314 0.67687 0.0
H1375 H 0.79678 0.06261 0.66796 0.0
C1376 C 0.53904 0.27702 0.04678 0.0
C1377 C 0.53711 0.23644 0.05324 0.0
C1378 C 0.54212 0.22629 0.9779 0.0
C1379 C 0.54035 0.26684 0.97125 0.0
N1380 N 0.52664 0.32984 0.99939 0.0
N1381 N 0.52641 0.17331 0.02393 0.0
C1382 C 0.53549 0.29191 0.00573 0.0
C1383 C 0.5353 0.21136 0.01842 0.0
N1384 N 0.54681 0.30141 0.07912 0.0
N1385 N 0.55278 0.20201 0.94642 0.0
H1386 H 0.51968 0.16182 0.05298 0.0
H1387 H 0.52139 0.15445 0.99928 0.0
H1388 H 0.56017 0.21147 0.91673 0.0
H1389 H 0.55833 0.17276 0.95106 0.0
H1390 H 0.55254 0.33068 0.07497 0.0
H1391 H 0.5516 0.29208 0.10946 0.0
H1392 H 0.5194 0.34863 0.02346 0.0
H1393 H 0.52214 0.34124 0.96982 0.0
C1394 C 0.28206 0.57419 0.47212 0.0
C1395 C 0.24175 0.56887 0.46633 0.0
C1396 C 0.23285 0.57029 0.54202 0.0
C1397 C 0.27349 0.57055 0.54794 0.0
N1398 N 0.3368 0.56362 0.51729 0.0
N1399 N 0.18056 0.55147 0.49677 0.0
C1400 C 0.29815 0.56977 0.51258 0.0
C1401 C 0.21768 0.56375 0.50162 0.0
N1402 N 0.30486 0.58559 0.4397 0.0
N1403 N 0.20853 0.57862 0.57425 0.0
H1404 H 0.16948 0.54382 0.46789 0.0
H1405 H 0.16276 0.54426 0.52172 0.0
H1406 H 0.21828 0.58678 0.60359 0.0
H1407 H 0.17887 0.58211 0.57039 0.0
H1408 H 0.33367 0.59354 0.44339 0.0
H1409 H 0.29413 0.59123 0.41006 0.0
H1410 H 0.35543 0.55926 0.49228 0.0
H1411 H 0.34939 0.55849 0.5461 0.0
C1412 C 0.98899 0.28584 0.01024 0.0
C1413 C 0.9825 0.26098 0.04461 0.0
C1414 C 0.9834 0.20586 0.99671 0.0
C1415 C 0.98159 0.23129 0.96219 0.0
N1416 N 0.9759 0.29723 0.93756 0.0
N1417 N 0.96613 0.19667 0.06863 0.0
C1418 C 0.98306 0.27183 0.96916 0.0
C1419 C 0.97819 0.22067 0.03753 0.0
N1420 N 1.00087 0.3229 0.01684 0.0
N1421 N 0.99044 0.16753 0.99061 0.0
H1422 H 0.95929 0.20615 0.09838 0.0
H1423 H 0.95883 0.16788 0.06352 0.0
H1424 H 0.99627 0.15619 0.96128 0.0
H1425 H 0.99513 0.14824 0.01498 0.0
H1426 H 0.00905 0.34135 0.99281 0.0
H1427 H 0.00679 0.3335 0.04652 0.0
H1428 H 0.97274 0.3268 0.9424 0.0
H1429 H 0.96896 0.28882 0.9074 0.0
C1430 C 0.23103 0.90661 0.46886 0.0
C1431 C 0.25819 0.93437 0.45514 0.0
C1432 C 0.26006 0.96184 0.52559 0.0
C1433 C 0.2294 0.93689 0.53776 0.0
N1434 N 0.17807 0.89445 0.51546 0.0
N1435 N 0.29492 0.99208 0.46863 0.0
C1436 C 0.21274 0.91175 0.50784 0.0
C1437 C 0.27135 0.96337 0.48288 0.0
N1438 N 0.22286 0.87492 0.44515 0.0
N1439 N 0.27996 0.98231 0.5549 0.0
H1440 H 0.305 0.99312 0.43808 0.0
H1441 H 0.30211 0.01625 0.48627 0.0
H1442 H 0.2739 0.98078 0.58659 0.0
H1443 H 0.30491 0.9979 0.54827 0.0
H1444 H 0.20601 0.85208 0.45593 0.0
H1445 H 0.23598 0.86947 0.41661 0.0
H1446 H 0.16313 0.87857 0.49314 0.0
H1447 H 0.16202 0.90004 0.5421 0.0
C1448 C 0.49549 0.7946 0.99662 0.0
C1449 C 0.49153 0.76856 0.96286 0.0
C1450 C 0.49205 0.71514 0.01277 0.0
C1451 C 0.48648 0.74146 0.04602 0.0
N1452 N 0.47728 0.80793 0.0675 0.0
N1453 N 0.48005 0.70273 0.94017 0.0
C1454 C 0.48727 0.78176 0.03764 0.0
C1455 C 0.48874 0.72833 0.97109 0.0
N1456 N 0.50711 0.83164 0.98949 0.0
N1457 N 0.50084 0.67754 0.02099 0.0
H1458 H 0.47519 0.71064 0.90941 0.0
H1459 H 0.47377 0.67381 0.94602 0.0
H1460 H 0.50589 0.66784 0.05116 0.0
H1461 H 0.50796 0.6577 0.99787 0.0
H1462 H 0.51329 0.85103 0.01335 0.0
H1463 H 0.51506 0.8412 0.95998 0.0
H1464 H 0.47363 0.83722 0.06122 0.0
H1465 H 0.46867 0.80023 0.09731 0.0
C1466 C 0.79293 0.434 0.50894 0.0
C1467 C 0.7673 0.43173 0.54344 0.0
C1468 C 0.71303 0.44288 0.49598 0.0
C1469 C 0.738 0.43897 0.46128 0.0
N1470 N 0.80138 0.42221 0.43545 0.0
N1471 N 0.70141 0.42464 0.56732 0.0
C1472 C 0.77793 0.43227 0.46786 0.0
C1473 C 0.72685 0.43376 0.53637 0.0
N1474 N 0.83151 0.43927 0.5151 0.0
N1475 N 0.67632 0.45621 0.49055 0.0
H1476 H 0.71007 0.41469 0.59642 0.0
H1477 H 0.67176 0.42241 0.56241 0.0
H1478 H 0.66617 0.46531 0.46169 0.0
H1479 H 0.65791 0.46262 0.51524 0.0
H1480 H 0.85086 0.44461 0.49096 0.0
H1481 H 0.84329 0.44299 0.54448 0.0
H1482 H 0.82982 0.41314 0.43955 0.0
H1483 H 0.7915 0.41892 0.40507 0.0
C1484 C 0.03338 0.71396 0.03756 0.0
C1485 C 0.02908 0.75437 0.04348 0.0
C1486 C 0.03042 0.76398 0.96803 0.0
C1487 C 0.03152 0.72334 0.96193 0.0
N1488 N 0.02262 0.65992 0.9914 0.0
N1489 N 0.01133 0.81578 0.01396 0.0
C1490 C 0.0293 0.6984 0.9969 0.0
C1491 C 0.02356 0.77868 0.00853 0.0
N1492 N 0.04386 0.69056 0.06987 0.0
N1493 N 0.03871 0.78878 0.93619 0.0
H1494 H 0.00414 0.82668 0.04315 0.0
H1495 H 0.00389 0.83383 0.98929 0.0
H1496 H 0.04672 0.7798 0.90653 0.0
H1497 H 0.04193 0.81841 0.94057 0.0
H1498 H 0.05134 0.66167 0.06584 0.0
H1499 H 0.04884 0.70054 0.09993 0.0
H1500 H 0.01751 0.64101 0.01599 0.0
H1501 H 0.01763 0.64797 0.96219 0.0
C1502 C 0.71484 0.07332 0.50972 0.0
C1503 C 0.7402 0.07525 0.5444 0.0
C1504 C 0.79518 0.06802 0.49701 0.0
C1505 C 0.77013 0.07144 0.46227 0.0
N1506 N 0.70659 0.08835 0.43698 0.0
N1507 N 0.80549 0.08507 0.56894 0.0
C1508 C 0.73002 0.07709 0.46892 0.0
C1509 C 0.78071 0.07547 0.53755 0.0
N1510 N 0.67642 0.0666 0.51537 0.0
N1511 N 0.83254 0.05667 0.49161 0.0
H1512 H 0.79617 0.0938 0.59826 0.0
H1513 H 0.83501 0.08898 0.5643 0.0
H1514 H 0.84358 0.04913 0.46267 0.0
H1515 H 0.85098 0.05046 0.51633 0.0
H1516 H 0.65744 0.06153 0.49082 0.0
H1517 H 0.66452 0.06154 0.54449 0.0
H1518 H 0.67783 0.09623 0.44131 0.0
H1519 H 0.71688 0.09442 0.40726 0.0
loop_
_geom_bond_atom_site_label_1
_geom_bond_atom_site_label_2
_geom_bond_distance
_geom_bond_site_symmetry_2
_ccdc_geom_bond_type
Co0 O2 2.143 . S
Co0 O8 2.074 . S
Co0 O11 2.093 . S
Co0 O24 2.097 . S
Co0 N41 2.151 . S
Co0 N49 2.214 . S
Co1 O2 2.160 . S
Co1 O7 2.058 . S
Co1 O17 2.057 . S
Co1 O32 2.037 . S
Co1 N36 2.145 . S
Co1 N57 2.257 . S
O2 Co0 2.143 . S
O2 Co1 2.160 . S
C3 O4 1.278 . S
C3 O11 1.224 . S
O4 C3 1.278 . S
C5 O6 1.245 . S
C5 O17 1.232 . S
O6 C5 1.245 . S
O7 Co1 2.058 . S
O7 C33 1.269 . S
O8 Co0 2.074 . S
O8 C33 1.257 . S
H9 C34 0.930 . S
H10 C40 0.930 . S
O11 Co0 2.093 . S
O11 C3 1.224 . S
H12 C44 0.929 . S
H13 C46 0.930 . S
H14 C47 0.930 . S
H15 C45 0.929 . S
H16 C48 0.928 . S
O17 Co1 2.057 . S
O17 C5 1.232 . S
H18 C37 0.929 . S
H19 C38 0.929 . S
H20 C50 0.931 . S
H21 C42 0.929 . S
H22 C51 0.930 . S
H23 C43 0.931 . S
O24 Co0 2.097 . S
O24 C52 1.214 . S
H25 C53 0.929 . S
H26 C54 0.929 . S
H27 C55 0.930 . S
H28 C56 0.929 . S
H29 C58 0.930 . S
H30 C35 0.930 . S
H31 C39 0.930 . S
O32 Co1 2.037 . S
O32 C52 1.234 . S
C33 O7 1.269 . S
C33 O8 1.257 . S
C34 H9 0.930 . S
C34 C37 1.388 . S
C34 C39 1.418 . S
C35 H30 0.930 . S
C35 C38 1.404 . S
C35 C39 1.353 . S
N36 Co1 2.145 . S
N36 C37 1.397 . S
N36 C38 1.334 . S
C37 H18 0.929 . S
C37 C34 1.388 . S
C37 N36 1.397 . S
C38 H19 0.929 . S
C38 C35 1.404 . S
C38 N36 1.334 . S
C39 H31 0.930 . S
C39 C34 1.418 . S
C39 C35 1.353 . S
C40 H10 0.930 . S
C40 N41 1.330 . S
C40 C42 1.446 . S
N41 Co0 2.151 . S
N41 C40 1.330 . S
N41 C45 1.418 . S
C42 H21 0.929 . S
C42 C40 1.446 . S
C42 C43 1.332 . S
C43 H23 0.931 . S
C43 C42 1.332 . S
C43 C44 1.267 . S
C44 H12 0.929 . S
C44 C43 1.267 . S
C44 C45 1.251 . S
C45 H15 0.929 . S
C45 N41 1.418 . S
C45 C44 1.251 . S
C46 H13 0.930 . S
C46 C48 1.406 . S
C46 C51 1.261 . S
C47 H14 0.930 . S
C47 N49 1.325 . S
C47 C50 1.357 . S
C48 H16 0.928 . S
C48 C46 1.406 . S
C48 N49 1.261 . S
N49 Co0 2.214 . S
N49 C47 1.325 . S
N49 C48 1.261 . S
C50 H20 0.931 . S
C50 C47 1.357 . S
C50 C51 1.312 . S
C51 H22 0.930 . S
C51 C46 1.261 . S
C51 C50 1.312 . S
C52 O24 1.214 . S
C52 O32 1.234 . S
C53 H25 0.929 . S
C53 C56 1.391 . S
C53 C58 1.391 . S
C54 H26 0.929 . S
C54 C55 1.390 . S
C54 N57 1.391 . S
C55 H27 0.930 . S
C55 C54 1.390 . S
C55 C56 1.392 . S
C56 H28 0.929 . S
C56 C53 1.391 . S
C56 C55 1.392 . S
N57 Co1 2.257 . S
N57 C54 1.391 . S
N57 C58 1.388 . S
C58 H29 0.930 . S
C58 C53 1.391 . S
C58 N57 1.388 . S
Co59 O61 2.143 . S
Co59 O67 2.074 . S
Co59 O70 2.093 . S
Co59 O83 2.097 . S
Co59 N100 2.151 . S
Co59 N108 2.214 . S
Co60 O61 2.160 . S
Co60 O66 2.058 . S
Co60 O76 2.057 . S
Co60 O91 2.037 . S
Co60 N95 2.145 . S
Co60 N116 2.257 . S
O61 Co59 2.143 . S
O61 Co60 2.160 . S
C62 O63 1.278 . S
C62 O70 1.224 . S
O63 C62 1.278 . S
C64 O65 1.245 . S
C64 O76 1.232 . S
O65 C64 1.245 . S
O66 Co60 2.058 . S
O66 C92 1.269 . S
O67 Co59 2.074 . S
O67 C92 1.257 . S
H68 C93 0.930 . S
H69 C99 0.930 . S
O70 Co59 2.093 . S
O70 C62 1.224 . S
H71 C103 0.929 . S
H72 C105 0.930 . S
H73 C106 0.930 . S
H74 C104 0.929 . S
H75 C107 0.928 . S
O76 Co60 2.057 . S
O76 C64 1.232 . S
H77 C96 0.929 . S
H78 C97 0.929 . S
H79 C109 0.931 . S
H80 C101 0.929 . S
H81 C110 0.930 . S
H82 C102 0.931 . S
O83 Co59 2.097 . S
O83 C111 1.214 . S
H84 C112 0.929 . S
H85 C113 0.929 . S
H86 C114 0.930 . S
H87 C115 0.929 . S
H88 C117 0.930 . S
H89 C94 0.930 . S
H90 C98 0.930 . S
O91 Co60 2.037 . S
O91 C111 1.234 . S
C92 O66 1.269 . S
C92 O67 1.257 . S
C93 H68 0.930 . S
C93 C96 1.388 . S
C93 C98 1.418 . S
C94 H89 0.930 . S
C94 C97 1.404 . S
C94 C98 1.353 . S
N95 Co60 2.145 . S
N95 C96 1.397 . S
N95 C97 1.334 . S
C96 H77 0.929 . S
C96 C93 1.388 . S
C96 N95 1.397 . S
C97 H78 0.929 . S
C97 C94 1.404 . S
C97 N95 1.334 . S
C98 H90 0.930 . S
C98 C93 1.418 . S
C98 C94 1.353 . S
C99 H69 0.930 . S
C99 N100 1.330 . S
C99 C101 1.446 . S
N100 Co59 2.151 . S
N100 C99 1.330 . S
N100 C104 1.418 . S
C101 H80 0.929 . S
C101 C99 1.446 . S
C101 C102 1.332 . S
C102 H82 0.931 . S
C102 C101 1.332 . S
C102 C103 1.267 . S
C103 H71 0.929 . S
C103 C102 1.267 . S
C103 C104 1.251 . S
C104 H74 0.929 . S
C104 N100 1.418 . S
C104 C103 1.251 . S
C105 H72 0.930 . S
C105 C107 1.406 . S
C105 C110 1.261 . S
C106 H73 0.930 . S
C106 N108 1.325 . S
C106 C109 1.357 . S
C107 H75 0.928 . S
C107 C105 1.406 . S
C107 N108 1.261 . S
N108 Co59 2.214 . S
N108 C106 1.325 . S
N108 C107 1.261 . S
C109 H79 0.931 . S
C109 C106 1.357 . S
C109 C110 1.312 . S
C110 H81 0.930 . S
C110 C105 1.261 . S
C110 C109 1.312 . S
C111 O83 1.214 . S
C111 O91 1.234 . S
C112 H84 0.929 . S
C112 C115 1.391 . S
C112 C117 1.391 . S
C113 H85 0.929 . S
C113 C114 1.390 . S
C113 N116 1.391 . S
C114 H86 0.930 . S
C114 C113 1.390 . S
C114 C115 1.392 . S
C115 H87 0.929 . S
C115 C112 1.391 . S
C115 C114 1.392 . S
N116 Co60 2.257 . S
N116 C113 1.391 . S
N116 C117 1.388 . S
C117 H88 0.930 . S
C117 C112 1.391 . S
C117 N116 1.388 . S
Co118 O120 2.143 . S
Co118 O126 2.074 . S
Co118 O129 2.093 . S
Co118 O142 2.097 . S
Co118 N159 2.151 . S
Co118 N167 2.214 . S
Co119 O120 2.160 . S
Co119 O125 2.058 . S
Co119 O135 2.057 1_655 S
Co119 O150 2.037 . S
Co119 N154 2.145 . S
Co119 N175 2.257 1_655 S
O120 Co118 2.143 . S
O120 Co119 2.160 . S
C121 O122 1.278 1_655 S
C121 O129 1.224 . S
O122 C121 1.278 1_455 S
C123 O124 1.245 . S
C123 O135 1.232 . S
O124 C123 1.245 . S
O125 Co119 2.058 . S
O125 C151 1.269 . S
O126 Co118 2.074 . S
O126 C151 1.257 . S
H127 C152 0.930 . S
H128 C158 0.930 . S
O129 Co118 2.093 . S
O129 C121 1.224 . S
H130 C162 0.929 . S
H131 C164 0.930 . S
H132 C165 0.930 . S
H133 C163 0.929 . S
H134 C166 0.928 . S
O135 Co119 2.057 1_455 S
O135 C123 1.232 . S
H136 C155 0.929 . S
H137 C156 0.929 . S
H138 C168 0.931 . S
H139 C160 0.929 . S
H140 C169 0.930 . S
H141 C161 0.931 . S
O142 Co118 2.097 . S
O142 C170 1.214 . S
H143 C171 0.929 . S
H144 C172 0.929 . S
H145 C173 0.930 . S
H146 C174 0.929 . S
H147 C176 0.930 . S
H148 C153 0.930 . S
H149 C157 0.930 . S
O150 Co119 2.037 . S
O150 C170 1.234 . S
C151 O125 1.269 . S
C151 O126 1.257 . S
C152 H127 0.930 . S
C152 C155 1.388 . S
C152 C157 1.418 1_655 S
C153 H148 0.930 . S
C153 C156 1.404 . S
C153 C157 1.353 . S
N154 Co119 2.145 . S
N154 C155 1.397 . S
N154 C156 1.334 1_655 S
C155 H136 0.929 . S
C155 C152 1.388 . S
C155 N154 1.397 . S
C156 H137 0.929 . S
C156 C153 1.404 . S
C156 N154 1.334 1_455 S
C157 H149 0.930 . S
C157 C152 1.418 1_455 S
C157 C153 1.353 . S
C158 H128 0.930 . S
C158 N159 1.330 . S
C158 C160 1.446 . S
N159 Co118 2.151 . S
N159 C158 1.330 . S
N159 C163 1.418 . S
C160 H139 0.929 . S
C160 C158 1.446 . S
C160 C161 1.332 . S
C161 H141 0.931 . S
C161 C160 1.332 . S
C161 C162 1.267 . S
C162 H130 0.929 . S
C162 C161 1.267 . S
C162 C163 1.251 . S
C163 H133 0.929 . S
C163 N159 1.418 . S
C163 C162 1.251 . S
C164 H131 0.930 . S
C164 C166 1.406 . S
C164 C169 1.261 . S
C165 H132 0.930 . S
C165 N167 1.325 . S
C165 C168 1.357 . S
C166 H134 0.928 . S
C166 C164 1.406 . S
C166 N167 1.261 . S
N167 Co118 2.214 . S
N167 C165 1.325 . S
N167 C166 1.261 . S
C168 H138 0.931 . S
C168 C165 1.357 . S
C168 C169 1.312 . S
C169 H140 0.930 . S
C169 C164 1.261 . S
C169 C168 1.312 . S
C170 O142 1.214 . S
C170 O150 1.234 . S
C171 H143 0.929 . S
C171 C174 1.391 . S
C171 C176 1.391 . S
C172 H144 0.929 . S
C172 C173 1.390 . S
C172 N175 1.391 . S
C173 H145 0.930 . S
C173 C172 1.390 . S
C173 C174 1.392 . S
C174 H146 0.929 . S
C174 C171 1.391 . S
C174 C173 1.392 . S
N175 Co119 2.257 1_455 S
N175 C172 1.391 . S
N175 C176 1.388 . S
C176 H147 0.930 . S
C176 C171 1.391 . S
C176 N175 1.388 . S
Co177 O179 2.143 . S
Co177 O185 2.074 . S
Co177 O188 2.093 . S
Co177 O201 2.097 . S
Co177 N218 2.151 . S
Co177 N226 2.214 . S
Co178 O179 2.160 . S
Co178 O184 2.058 . S
Co178 O194 2.057 1_565 S
Co178 O209 2.037 . S
Co178 N213 2.145 . S
Co178 N234 2.257 1_565 S
O179 Co177 2.143 . S
O179 Co178 2.160 . S
C180 O181 1.278 1_565 S
C180 O188 1.224 . S
O181 C180 1.278 1_545 S
C182 O183 1.245 . S
C182 O194 1.232 . S
O183 C182 1.245 . S
O184 Co178 2.058 . S
O184 C210 1.269 . S
O185 Co177 2.074 . S
O185 C210 1.257 . S
H186 C211 0.930 . S
H187 C217 0.930 . S
O188 Co177 2.093 . S
O188 C180 1.224 . S
H189 C221 0.929 . S
H190 C223 0.930 . S
H191 C224 0.930 . S
H192 C222 0.929 . S
H193 C225 0.928 . S
O194 Co178 2.057 1_545 S
O194 C182 1.232 . S
H195 C214 0.929 . S
H196 C215 0.929 . S
H197 C227 0.931 . S
H198 C219 0.929 . S
H199 C228 0.930 . S
H200 C220 0.931 . S
O201 Co177 2.097 . S
O201 C229 1.214 . S
H202 C230 0.929 . S
H203 C231 0.929 . S
H204 C232 0.930 . S
H205 C233 0.929 . S
H206 C235 0.930 . S
H207 C212 0.930 . S
H208 C216 0.930 . S
O209 Co178 2.037 . S
O209 C229 1.234 . S
C210 O184 1.269 . S
C210 O185 1.257 . S
C211 H186 0.930 . S
C211 C214 1.388 . S
C211 C216 1.418 1_565 S
C212 H207 0.930 . S
C212 C215 1.404 . S
C212 C216 1.353 . S
N213 Co178 2.145 . S
N213 C214 1.397 . S
N213 C215 1.334 1_565 S
C214 H195 0.929 . S
C214 C211 1.388 . S
C214 N213 1.397 . S
C215 H196 0.929 . S
C215 C212 1.404 . S
C215 N213 1.334 1_545 S
C216 H208 0.930 . S
C216 C211 1.418 1_545 S
C216 C212 1.353 . S
C217 H187 0.930 . S
C217 N218 1.330 . S
C217 C219 1.446 . S
N218 Co177 2.151 . S
N218 C217 1.330 . S
N218 C222 1.418 . S
C219 H198 0.929 . S
C219 C217 1.446 . S
C219 C220 1.332 . S
C220 H200 0.931 . S
C220 C219 1.332 . S
C220 C221 1.267 . S
C221 H189 0.929 . S
C221 C220 1.267 . S
C221 C222 1.251 . S
C222 H192 0.929 . S
C222 N218 1.418 . S
C222 C221 1.251 . S
C223 H190 0.930 . S
C223 C225 1.406 . S
C223 C228 1.261 . S
C224 H191 0.930 . S
C224 N226 1.325 . S
C224 C227 1.357 . S
C225 H193 0.928 . S
C225 C223 1.406 . S
C225 N226 1.261 . S
N226 Co177 2.214 . S
N226 C224 1.325 . S
N226 C225 1.261 . S
C227 H197 0.931 . S
C227 C224 1.357 . S
C227 C228 1.312 . S
C228 H199 0.930 . S
C228 C223 1.261 . S
C228 C227 1.312 . S
C229 O201 1.214 . S
C229 O209 1.234 . S
C230 H202 0.929 . S
C230 C233 1.391 . S
C230 C235 1.391 . S
C231 H203 0.929 . S
C231 C232 1.390 . S
C231 N234 1.391 . S
C232 H204 0.930 . S
C232 C231 1.390 . S
C232 C233 1.392 . S
C233 H205 0.929 . S
C233 C230 1.391 . S
C233 C232 1.392 . S
N234 Co178 2.257 1_545 S
N234 C231 1.391 . S
N234 C235 1.388 . S
C235 H206 0.930 . S
C235 C230 1.391 . S
C235 N234 1.388 . S
Co236 O238 2.143 . S
Co236 O244 2.074 . S
Co236 O247 2.093 . S
Co236 O260 2.097 . S
Co236 N277 2.151 . S
Co236 N285 2.214 . S
Co237 O238 2.160 . S
Co237 O243 2.058 . S
Co237 O253 2.057 . S
Co237 O268 2.037 . S
Co237 N272 2.145 . S
Co237 N293 2.257 . S
O238 Co236 2.143 . S
O238 Co237 2.160 . S
C239 O240 1.278 . S
C239 O247 1.224 . S
O240 C239 1.278 . S
C241 O242 1.245 . S
C241 O253 1.232 . S
O242 C241 1.245 . S
O243 Co237 2.058 . S
O243 C269 1.269 . S
O244 Co236 2.074 . S
O244 C269 1.257 . S
H245 C270 0.930 . S
H246 C276 0.930 . S
O247 Co236 2.093 . S
O247 C239 1.224 . S
H248 C280 0.929 . S
H249 C282 0.930 . S
H250 C283 0.930 . S
H251 C281 0.929 . S
H252 C284 0.928 . S
O253 Co237 2.057 . S
O253 C241 1.232 . S
H254 C273 0.929 . S
H255 C274 0.929 . S
H256 C286 0.931 . S
H257 C278 0.929 . S
H258 C287 0.930 . S
H259 C279 0.931 . S
O260 Co236 2.097 . S
O260 C288 1.214 . S
H261 C289 0.929 . S
H262 C290 0.929 . S
H263 C291 0.930 . S
H264 C292 0.929 . S
H265 C294 0.930 . S
H266 C271 0.930 . S
H267 C275 0.930 . S
O268 Co237 2.037 . S
O268 C288 1.234 . S
C269 O243 1.269 . S
C269 O244 1.257 . S
C270 H245 0.930 . S
C270 C273 1.388 . S
C270 C275 1.418 . S
C271 H266 0.930 . S
C271 C274 1.404 . S
C271 C275 1.353 . S
N272 Co237 2.145 . S
N272 C273 1.397 . S
N272 C274 1.334 . S
C273 H254 0.929 . S
C273 C270 1.388 . S
C273 N272 1.397 . S
C274 H255 0.929 . S
C274 C271 1.404 . S
C274 N272 1.334 . S
C275 H267 0.930 . S
C275 C270 1.418 . S
C275 C271 1.353 . S
C276 H246 0.930 . S
C276 N277 1.330 . S
C276 C278 1.446 . S
N277 Co236 2.151 . S
N277 C276 1.330 . S
N277 C281 1.418 . S
C278 H257 0.929 . S
C278 C276 1.446 . S
C278 C279 1.332 . S
C279 H259 0.931 . S
C279 C278 1.332 . S
C279 C280 1.267 . S
C280 H248 0.929 . S
C280 C279 1.267 . S
C280 C281 1.251 . S
C281 H251 0.929 . S
C281 N277 1.418 . S
C281 C280 1.251 . S
C282 H249 0.930 . S
C282 C284 1.406 . S
C282 C287 1.261 . S
C283 H250 0.930 . S
C283 N285 1.325 . S
C283 C286 1.357 . S
C284 H252 0.928 . S
C284 C282 1.406 . S
C284 N285 1.261 . S
N285 Co236 2.214 . S
N285 C283 1.325 . S
N285 C284 1.261 . S
C286 H256 0.931 . S
C286 C283 1.357 . S
C286 C287 1.312 . S
C287 H258 0.930 . S
C287 C282 1.261 . S
C287 C286 1.312 . S
C288 O260 1.214 . S
C288 O268 1.234 . S
C289 H261 0.929 . S
C289 C292 1.391 . S
C289 C294 1.391 . S
C290 H262 0.929 . S
C290 C291 1.390 . S
C290 N293 1.391 . S
C291 H263 0.930 . S
C291 C290 1.390 . S
C291 C292 1.392 . S
C292 H264 0.929 . S
C292 C289 1.391 . S
C292 C291 1.392 . S
N293 Co237 2.257 . S
N293 C290 1.391 . S
N293 C294 1.388 . S
C294 H265 0.930 . S
C294 C289 1.391 . S
C294 N293 1.388 . S
Co295 O297 2.143 . S
Co295 O303 2.074 . S
Co295 O306 2.093 . S
Co295 O319 2.097 . S
Co295 N336 2.151 . S
Co295 N344 2.214 . S
Co296 O297 2.160 . S
Co296 O302 2.058 . S
Co296 O312 2.057 . S
Co296 O327 2.037 . S
Co296 N331 2.145 . S
Co296 N352 2.257 . S
O297 Co295 2.143 . S
O297 Co296 2.160 . S
C298 O299 1.278 . S
C298 O306 1.224 . S
O299 C298 1.278 . S
C300 O301 1.245 . S
C300 O312 1.232 . S
O301 C300 1.245 . S
O302 Co296 2.058 . S
O302 C328 1.269 . S
O303 Co295 2.074 . S
O303 C328 1.257 . S
H304 C329 0.930 . S
H305 C335 0.930 . S
O306 Co295 2.093 . S
O306 C298 1.224 . S
H307 C339 0.929 . S
H308 C341 0.930 . S
H309 C342 0.930 . S
H310 C340 0.929 . S
H311 C343 0.928 . S
O312 Co296 2.057 . S
O312 C300 1.232 . S
H313 C332 0.929 . S
H314 C333 0.929 . S
H315 C345 0.931 . S
H316 C337 0.929 . S
H317 C346 0.930 . S
H318 C338 0.931 . S
O319 Co295 2.097 . S
O319 C347 1.214 . S
H320 C348 0.929 . S
H321 C349 0.929 . S
H322 C350 0.930 . S
H323 C351 0.929 . S
H324 C353 0.930 . S
H325 C330 0.930 . S
H326 C334 0.930 . S
O327 Co296 2.037 . S
O327 C347 1.234 . S
C328 O302 1.269 . S
C328 O303 1.257 . S
C329 H304 0.930 . S
C329 C332 1.388 . S
C329 C334 1.418 . S
C330 H325 0.930 . S
C330 C333 1.404 . S
C330 C334 1.353 . S
N331 Co296 2.145 . S
N331 C332 1.397 . S
N331 C333 1.334 . S
C332 H313 0.929 . S
C332 C329 1.388 . S
C332 N331 1.397 . S
C333 H314 0.929 . S
C333 C330 1.404 . S
C333 N331 1.334 . S
C334 H326 0.930 . S
C334 C329 1.418 . S
C334 C330 1.353 . S
C335 H305 0.930 . S
C335 N336 1.330 . S
C335 C337 1.446 . S
N336 Co295 2.151 . S
N336 C335 1.330 . S
N336 C340 1.418 . S
C337 H316 0.929 . S
C337 C335 1.446 . S
C337 C338 1.332 . S
C338 H318 0.931 . S
C338 C337 1.332 . S
C338 C339 1.267 . S
C339 H307 0.929 . S
C339 C338 1.267 . S
C339 C340 1.251 . S
C340 H310 0.929 . S
C340 N336 1.418 . S
C340 C339 1.251 . S
C341 H308 0.930 . S
C341 C343 1.406 . S
C341 C346 1.261 . S
C342 H309 0.930 . S
C342 N344 1.325 . S
C342 C345 1.357 . S
C343 H311 0.928 . S
C343 C341 1.406 . S
C343 N344 1.261 . S
N344 Co295 2.214 . S
N344 C342 1.325 . S
N344 C343 1.261 . S
C345 H315 0.931 . S
C345 C342 1.357 . S
C345 C346 1.312 . S
C346 H317 0.930 . S
C346 C341 1.261 . S
C346 C345 1.312 . S
C347 O319 1.214 . S
C347 O327 1.234 . S
C348 H320 0.929 . S
C348 C351 1.391 . S
C348 C353 1.391 . S
C349 H321 0.929 . S
C349 C350 1.390 . S
C349 N352 1.391 . S
C350 H322 0.930 . S
C350 C349 1.390 . S
C350 C351 1.392 . S
C351 H323 0.929 . S
C351 C348 1.391 . S
C351 C350 1.392 . S
N352 Co296 2.257 . S
N352 C349 1.391 . S
N352 C353 1.388 . S
C353 H324 0.930 . S
C353 C348 1.391 . S
C353 N352 1.388 . S
Co354 O356 2.143 . S
Co354 O362 2.074 . S
Co354 O365 2.093 . S
Co354 O378 2.097 . S
Co354 N395 2.151 . S
Co354 N403 2.214 . S
Co355 O356 2.160 . S
Co355 O361 2.058 . S
Co355 O371 2.057 1_655 S
Co355 O386 2.037 . S
Co355 N390 2.145 . S
Co355 N411 2.257 1_655 S
O356 Co354 2.143 . S
O356 Co355 2.160 . S
C357 O358 1.278 1_655 S
C357 O365 1.224 . S
O358 C357 1.278 1_455 S
C359 O360 1.245 . S
C359 O371 1.232 . S
O360 C359 1.245 . S
O361 Co355 2.058 . S
O361 C387 1.269 . S
O362 Co354 2.074 . S
O362 C387 1.257 . S
H363 C388 0.930 . S
H364 C394 0.930 . S
O365 Co354 2.093 . S
O365 C357 1.224 . S
H366 C398 0.929 . S
H367 C400 0.930 . S
H368 C401 0.930 . S
H369 C399 0.929 . S
H370 C402 0.928 . S
O371 Co355 2.057 1_455 S
O371 C359 1.232 . S
H372 C391 0.929 . S
H373 C392 0.929 . S
H374 C404 0.931 . S
H375 C396 0.929 . S
H376 C405 0.930 . S
H377 C397 0.931 . S
O378 Co354 2.097 . S
O378 C406 1.214 . S
H379 C407 0.929 . S
H380 C408 0.929 . S
H381 C409 0.930 . S
H382 C410 0.929 . S
H383 C412 0.930 . S
H384 C389 0.930 . S
H385 C393 0.930 . S
O386 Co355 2.037 . S
O386 C406 1.234 . S
C387 O361 1.269 . S
C387 O362 1.257 . S
C388 H363 0.930 . S
C388 C391 1.388 . S
C388 C393 1.418 1_655 S
C389 H384 0.930 . S
C389 C392 1.404 . S
C389 C393 1.353 . S
N390 Co355 2.145 . S
N390 C391 1.397 . S
N390 C392 1.334 1_655 S
C391 H372 0.929 . S
C391 C388 1.388 . S
C391 N390 1.397 . S
C392 H373 0.929 . S
C392 C389 1.404 . S
C392 N390 1.334 1_455 S
C393 H385 0.930 . S
C393 C388 1.418 1_455 S
C393 C389 1.353 . S
C394 H364 0.930 . S
C394 N395 1.330 . S
C394 C396 1.446 . S
N395 Co354 2.151 . S
N395 C394 1.330 . S
N395 C399 1.418 . S
C396 H375 0.929 . S
C396 C394 1.446 . S
C396 C397 1.332 . S
C397 H377 0.931 . S
C397 C396 1.332 . S
C397 C398 1.267 . S
C398 H366 0.929 . S
C398 C397 1.267 . S
C398 C399 1.251 . S
C399 H369 0.929 . S
C399 N395 1.418 . S
C399 C398 1.251 . S
C400 H367 0.930 . S
C400 C402 1.406 . S
C400 C405 1.261 . S
C401 H368 0.930 . S
C401 N403 1.325 . S
C401 C404 1.357 . S
C402 H370 0.928 . S
C402 C400 1.406 . S
C402 N403 1.261 . S
N403 Co354 2.214 . S
N403 C401 1.325 . S
N403 C402 1.261 . S
C404 H374 0.931 . S
C404 C401 1.357 . S
C404 C405 1.312 . S
C405 H376 0.930 . S
C405 C400 1.261 . S
C405 C404 1.312 . S
C406 O378 1.214 . S
C406 O386 1.234 . S
C407 H379 0.929 . S
C407 C410 1.391 . S
C407 C412 1.391 . S
C408 H380 0.929 . S
C408 C409 1.390 . S
C408 N411 1.391 . S
C409 H381 0.930 . S
C409 C408 1.390 . S
C409 C410 1.392 . S
C410 H382 0.929 . S
C410 C407 1.391 . S
C410 C409 1.392 . S
N411 Co355 2.257 1_455 S
N411 C408 1.391 . S
N411 C412 1.388 . S
C412 H383 0.930 . S
C412 C407 1.391 . S
C412 N411 1.388 . S
Co413 O415 2.143 . S
Co413 O421 2.074 . S
Co413 O424 2.093 . S
Co413 O437 2.097 . S
Co413 N454 2.151 . S
Co413 N462 2.214 . S
Co414 O415 2.160 . S
Co414 O420 2.058 . S
Co414 O430 2.057 1_565 S
Co414 O445 2.037 . S
Co414 N449 2.145 . S
Co414 N470 2.257 1_565 S
O415 Co413 2.143 . S
O415 Co414 2.160 . S
C416 O417 1.278 1_565 S
C416 O424 1.224 . S
O417 C416 1.278 1_545 S
C418 O419 1.245 . S
C418 O430 1.232 . S
O419 C418 1.245 . S
O420 Co414 2.058 . S
O420 C446 1.269 . S
O421 Co413 2.074 . S
O421 C446 1.257 . S
H422 C447 0.930 . S
H423 C453 0.930 . S
O424 Co413 2.093 . S
O424 C416 1.224 . S
H425 C457 0.929 . S
H426 C459 0.930 . S
H427 C460 0.930 . S
H428 C458 0.929 . S
H429 C461 0.928 . S
O430 Co414 2.057 1_545 S
O430 C418 1.232 . S
H431 C450 0.929 . S
H432 C451 0.929 . S
H433 C463 0.931 . S
H434 C455 0.929 . S
H435 C464 0.930 . S
H436 C456 0.931 . S
O437 Co413 2.097 . S
O437 C465 1.214 . S
H438 C466 0.929 . S
H439 C467 0.929 . S
H440 C468 0.930 . S
H441 C469 0.929 . S
H442 C471 0.930 . S
H443 C448 0.930 . S
H444 C452 0.930 . S
O445 Co414 2.037 . S
O445 C465 1.234 . S
C446 O420 1.269 . S
C446 O421 1.257 . S
C447 H422 0.930 . S
C447 C450 1.388 . S
C447 C452 1.418 1_565 S
C448 H443 0.930 . S
C448 C451 1.404 . S
C448 C452 1.353 . S
N449 Co414 2.145 . S
N449 C450 1.397 . S
N449 C451 1.334 1_565 S
C450 H431 0.929 . S
C450 C447 1.388 . S
C450 N449 1.397 . S
C451 H432 0.929 . S
C451 C448 1.404 . S
C451 N449 1.334 1_545 S
C452 H444 0.930 . S
C452 C447 1.418 1_545 S
C452 C448 1.353 . S
C453 H423 0.930 . S
C453 N454 1.330 . S
C453 C455 1.446 . S
N454 Co413 2.151 . S
N454 C453 1.330 . S
N454 C458 1.418 . S
C455 H434 0.929 . S
C455 C453 1.446 . S
C455 C456 1.332 . S
C456 H436 0.931 . S
C456 C455 1.332 . S
C456 C457 1.267 . S
C457 H425 0.929 . S
C457 C456 1.267 . S
C457 C458 1.251 . S
C458 H428 0.929 . S
C458 N454 1.418 . S
C458 C457 1.251 . S
C459 H426 0.930 . S
C459 C461 1.406 . S
C459 C464 1.261 . S
C460 H427 0.930 . S
C460 N462 1.325 . S
C460 C463 1.357 . S
C461 H429 0.928 . S
C461 C459 1.406 . S
C461 N462 1.261 . S
N462 Co413 2.214 . S
N462 C460 1.325 . S
N462 C461 1.261 . S
C463 H433 0.931 . S
C463 C460 1.357 . S
C463 C464 1.312 . S
C464 H435 0.930 . S
C464 C459 1.261 . S
C464 C463 1.312 . S
C465 O437 1.214 . S
C465 O445 1.234 . S
C466 H438 0.929 . S
C466 C469 1.391 . S
C466 C471 1.391 . S
C467 H439 0.929 . S
C467 C468 1.390 . S
C467 N470 1.391 . S
C468 H440 0.930 . S
C468 C467 1.390 . S
C468 C469 1.392 . S
C469 H441 0.929 . S
C469 C466 1.391 . S
C469 C468 1.392 . S
N470 Co414 2.257 1_545 S
N470 C467 1.391 . S
N470 C471 1.388 . S
C471 H442 0.930 . S
C471 C466 1.391 . S
C471 N470 1.388 . S
Co472 O474 2.143 . S
Co472 O480 2.074 . S
Co472 O483 2.093 . S
Co472 O496 2.097 . S
Co472 N513 2.151 . S
Co472 N521 2.214 . S
Co473 O474 2.160 . S
Co473 O479 2.058 . S
Co473 O489 2.057 . S
Co473 O504 2.037 . S
Co473 N508 2.145 . S
Co473 N529 2.257 . S
O474 Co472 2.143 . S
O474 Co473 2.160 . S
C475 O476 1.278 . S
C475 O483 1.224 . S
O476 C475 1.278 . S
C477 O478 1.245 . S
C477 O489 1.232 . S
O478 C477 1.245 . S
O479 Co473 2.058 . S
O479 C505 1.269 . S
O480 Co472 2.074 . S
O480 C505 1.257 . S
H481 C506 0.930 . S
H482 C512 0.930 . S
O483 Co472 2.093 . S
O483 C475 1.224 . S
H484 C516 0.929 . S
H485 C518 0.930 . S
H486 C519 0.930 . S
H487 C517 0.929 . S
H488 C520 0.928 . S
O489 Co473 2.057 . S
O489 C477 1.232 . S
H490 C509 0.929 . S
H491 C510 0.929 . S
H492 C522 0.931 . S
H493 C514 0.929 . S
H494 C523 0.930 . S
H495 C515 0.931 . S
O496 Co472 2.097 . S
O496 C524 1.214 . S
H497 C525 0.929 . S
H498 C526 0.929 . S
H499 C527 0.930 . S
H500 C528 0.929 . S
H501 C530 0.930 . S
H502 C507 0.930 . S
H503 C511 0.930 . S
O504 Co473 2.037 . S
O504 C524 1.234 . S
C505 O479 1.269 . S
C505 O480 1.257 . S
C506 H481 0.930 . S
C506 C509 1.388 . S
C506 C511 1.418 . S
C507 H502 0.930 . S
C507 C510 1.404 . S
C507 C511 1.353 . S
N508 Co473 2.145 . S
N508 C509 1.397 . S
N508 C510 1.334 . S
C509 H490 0.929 . S
C509 C506 1.388 . S
C509 N508 1.397 . S
C510 H491 0.929 . S
C510 C507 1.404 . S
C510 N508 1.334 . S
C511 H503 0.930 . S
C511 C506 1.418 . S
C511 C507 1.353 . S
C512 H482 0.930 . S
C512 N513 1.330 . S
C512 C514 1.446 . S
N513 Co472 2.151 . S
N513 C512 1.330 . S
N513 C517 1.418 . S
C514 H493 0.929 . S
C514 C512 1.446 . S
C514 C515 1.332 . S
C515 H495 0.931 . S
C515 C514 1.332 . S
C515 C516 1.267 . S
C516 H484 0.929 . S
C516 C515 1.267 . S
C516 C517 1.251 . S
C517 H487 0.929 . S
C517 N513 1.418 . S
C517 C516 1.251 . S
C518 H485 0.930 . S
C518 C520 1.406 . S
C518 C523 1.261 . S
C519 H486 0.930 . S
C519 N521 1.325 . S
C519 C522 1.357 . S
C520 H488 0.928 . S
C520 C518 1.406 . S
C520 N521 1.261 . S
N521 Co472 2.214 . S
N521 C519 1.325 . S
N521 C520 1.261 . S
C522 H492 0.931 . S
C522 C519 1.357 . S
C522 C523 1.312 . S
C523 H494 0.930 . S
C523 C518 1.261 . S
C523 C522 1.312 . S
C524 O496 1.214 . S
C524 O504 1.234 . S
C525 H497 0.929 . S
C525 C528 1.391 . S
C525 C530 1.391 . S
C526 H498 0.929 . S
C526 C527 1.390 . S
C526 N529 1.391 . S
C527 H499 0.930 . S
C527 C526 1.390 . S
C527 C528 1.392 . S
C528 H500 0.929 . S
C528 C525 1.391 . S
C528 C527 1.392 . S
N529 Co473 2.257 . S
N529 C526 1.391 . S
N529 C530 1.388 . S
C530 H501 0.930 . S
C530 C525 1.391 . S
C530 N529 1.388 . S
Co531 O533 2.143 . S
Co531 O539 2.074 . S
Co531 O542 2.093 . S
Co531 O555 2.097 . S
Co531 N572 2.151 . S
Co531 N580 2.214 . S
Co532 O533 2.160 . S
Co532 O538 2.058 . S
Co532 O548 2.057 . S
Co532 O563 2.037 . S
Co532 N567 2.145 . S
Co532 N588 2.257 . S
O533 Co531 2.143 . S
O533 Co532 2.160 . S
C534 O535 1.278 . S
C534 O542 1.224 . S
O535 C534 1.278 . S
C536 O537 1.245 . S
C536 O548 1.232 . S
O537 C536 1.245 . S
O538 Co532 2.058 . S
O538 C564 1.269 . S
O539 Co531 2.074 . S
O539 C564 1.257 . S
H540 C565 0.930 . S
H541 C571 0.930 . S
O542 Co531 2.093 . S
O542 C534 1.224 . S
H543 C575 0.929 . S
H544 C577 0.930 . S
H545 C578 0.930 . S
H546 C576 0.929 . S
H547 C579 0.928 . S
O548 Co532 2.057 . S
O548 C536 1.232 . S
H549 C568 0.929 . S
H550 C569 0.929 . S
H551 C581 0.931 . S
H552 C573 0.929 . S
H553 C582 0.930 . S
H554 C574 0.931 . S
O555 Co531 2.097 . S
O555 C583 1.214 . S
H556 C584 0.929 . S
H557 C585 0.929 . S
H558 C586 0.930 . S
H559 C587 0.929 . S
H560 C589 0.930 . S
H561 C566 0.930 . S
H562 C570 0.930 . S
O563 Co532 2.037 . S
O563 C583 1.234 . S
C564 O538 1.269 . S
C564 O539 1.257 . S
C565 H540 0.930 . S
C565 C568 1.388 . S
C565 C570 1.418 . S
C566 H561 0.930 . S
C566 C569 1.404 . S
C566 C570 1.353 . S
N567 Co532 2.145 . S
N567 C568 1.397 . S
N567 C569 1.334 . S
C568 H549 0.929 . S
C568 C565 1.388 . S
C568 N567 1.397 . S
C569 H550 0.929 . S
C569 C566 1.404 . S
C569 N567 1.334 . S
C570 H562 0.930 . S
C570 C565 1.418 . S
C570 C566 1.353 . S
C571 H541 0.930 . S
C571 N572 1.330 . S
C571 C573 1.446 . S
N572 Co531 2.151 . S
N572 C571 1.330 . S
N572 C576 1.418 . S
C573 H552 0.929 . S
C573 C571 1.446 . S
C573 C574 1.332 . S
C574 H554 0.931 . S
C574 C573 1.332 . S
C574 C575 1.267 . S
C575 H543 0.929 . S
C575 C574 1.267 . S
C575 C576 1.251 . S
C576 H546 0.929 . S
C576 N572 1.418 . S
C576 C575 1.251 . S
C577 H544 0.930 . S
C577 C579 1.406 . S
C577 C582 1.261 . S
C578 H545 0.930 . S
C578 N580 1.325 . S
C578 C581 1.357 . S
C579 H547 0.928 . S
C579 C577 1.406 . S
C579 N580 1.261 . S
N580 Co531 2.214 . S
N580 C578 1.325 . S
N580 C579 1.261 . S
C581 H551 0.931 . S
C581 C578 1.357 . S
C581 C582 1.312 . S
C582 H553 0.930 . S
C582 C577 1.261 . S
C582 C581 1.312 . S
C583 O555 1.214 . S
C583 O563 1.234 . S
C584 H556 0.929 . S
C584 C587 1.391 . S
C584 C589 1.391 . S
C585 H557 0.929 . S
C585 C586 1.390 . S
C585 N588 1.391 . S
C586 H558 0.930 . S
C586 C585 1.390 . S
C586 C587 1.392 . S
C587 H559 0.929 . S
C587 C584 1.391 . S
C587 C586 1.392 . S
N588 Co532 2.257 . S
N588 C585 1.391 . S
N588 C589 1.388 . S
C589 H560 0.930 . S
C589 C584 1.391 . S
C589 N588 1.388 . S
Co590 O592 2.143 . S
Co590 O598 2.074 . S
Co590 O601 2.093 . S
Co590 O614 2.097 . S
Co590 N631 2.151 . S
Co590 N639 2.214 . S
Co591 O592 2.160 . S
Co591 O597 2.058 . S
Co591 O607 2.057 1_455 S
Co591 O622 2.037 . S
Co591 N626 2.145 . S
Co591 N647 2.257 1_455 S
O592 Co590 2.143 . S
O592 Co591 2.160 . S
C593 O594 1.278 1_455 S
C593 O601 1.224 . S
O594 C593 1.278 1_655 S
C595 O596 1.245 . S
C595 O607 1.232 . S
O596 C595 1.245 . S
O597 Co591 2.058 . S
O597 C623 1.269 . S
O598 Co590 2.074 . S
O598 C623 1.257 . S
H599 C624 0.930 . S
H600 C630 0.930 . S
O601 Co590 2.093 . S
O601 C593 1.224 . S
H602 C634 0.929 . S
H603 C636 0.930 . S
H604 C637 0.930 . S
H605 C635 0.929 . S
H606 C638 0.928 . S
O607 Co591 2.057 1_655 S
O607 C595 1.232 . S
H608 C627 0.929 . S
H609 C628 0.929 . S
H610 C640 0.931 . S
H611 C632 0.929 . S
H612 C641 0.930 . S
H613 C633 0.931 . S
O614 Co590 2.097 . S
O614 C642 1.214 . S
H615 C643 0.929 . S
H616 C644 0.929 . S
H617 C645 0.930 . S
H618 C646 0.929 . S
H619 C648 0.930 . S
H620 C625 0.930 . S
H621 C629 0.930 . S
O622 Co591 2.037 . S
O622 C642 1.234 . S
C623 O597 1.269 . S
C623 O598 1.257 . S
C624 H599 0.930 . S
C624 C627 1.388 . S
C624 C629 1.418 1_455 S
C625 H620 0.930 . S
C625 C628 1.404 . S
C625 C629 1.353 . S
N626 Co591 2.145 . S
N626 C627 1.397 . S
N626 C628 1.334 1_455 S
C627 H608 0.929 . S
C627 C624 1.388 . S
C627 N626 1.397 . S
C628 H609 0.929 . S
C628 C625 1.404 . S
C628 N626 1.334 1_655 S
C629 H621 0.930 . S
C629 C624 1.418 1_655 S
C629 C625 1.353 . S
C630 H600 0.930 . S
C630 N631 1.330 . S
C630 C632 1.446 . S
N631 Co590 2.151 . S
N631 C630 1.330 . S
N631 C635 1.418 . S
C632 H611 0.929 . S
C632 C630 1.446 . S
C632 C633 1.332 . S
C633 H613 0.931 . S
C633 C632 1.332 . S
C633 C634 1.267 . S
C634 H602 0.929 . S
C634 C633 1.267 . S
C634 C635 1.251 . S
C635 H605 0.929 . S
C635 N631 1.418 . S
C635 C634 1.251 . S
C636 H603 0.930 . S
C636 C638 1.406 . S
C636 C641 1.261 . S
C637 H604 0.930 . S
C637 N639 1.325 . S
C637 C640 1.357 . S
C638 H606 0.928 . S
C638 C636 1.406 . S
C638 N639 1.261 . S
N639 Co590 2.214 . S
N639 C637 1.325 . S
N639 C638 1.261 . S
C640 H610 0.931 . S
C640 C637 1.357 . S
C640 C641 1.312 . S
C641 H612 0.930 . S
C641 C636 1.261 . S
C641 C640 1.312 . S
C642 O614 1.214 . S
C642 O622 1.234 . S
C643 H615 0.929 . S
C643 C646 1.391 . S
C643 C648 1.391 . S
C644 H616 0.929 . S
C644 C645 1.390 . S
C644 N647 1.391 . S
C645 H617 0.930 . S
C645 C644 1.390 . S
C645 C646 1.392 . S
C646 H618 0.929 . S
C646 C643 1.391 . S
C646 C645 1.392 . S
N647 Co591 2.257 1_655 S
N647 C644 1.391 . S
N647 C648 1.388 . S
C648 H619 0.930 . S
C648 C643 1.391 . S
C648 N647 1.388 . S
Co649 O651 2.143 . S
Co649 O657 2.074 . S
Co649 O660 2.093 . S
Co649 O673 2.097 . S
Co649 N690 2.151 . S
Co649 N698 2.214 . S
Co650 O651 2.160 . S
Co650 O656 2.058 . S
Co650 O666 2.057 1_545 S
Co650 O681 2.037 . S
Co650 N685 2.145 . S
Co650 N706 2.257 1_545 S
O651 Co649 2.143 . S
O651 Co650 2.160 . S
C652 O653 1.278 1_545 S
C652 O660 1.224 . S
O653 C652 1.278 1_565 S
C654 O655 1.245 . S
C654 O666 1.232 . S
O655 C654 1.245 . S
O656 Co650 2.058 . S
O656 C682 1.269 . S
O657 Co649 2.074 . S
O657 C682 1.257 . S
H658 C683 0.930 . S
H659 C689 0.930 . S
O660 Co649 2.093 . S
O660 C652 1.224 . S
H661 C693 0.929 . S
H662 C695 0.930 . S
H663 C696 0.930 . S
H664 C694 0.929 . S
H665 C697 0.928 . S
O666 Co650 2.057 1_565 S
O666 C654 1.232 . S
H667 C686 0.929 . S
H668 C687 0.929 . S
H669 C699 0.931 . S
H670 C691 0.929 . S
H671 C700 0.930 . S
H672 C692 0.931 . S
O673 Co649 2.097 . S
O673 C701 1.214 . S
H674 C702 0.929 . S
H675 C703 0.929 . S
H676 C704 0.930 . S
H677 C705 0.929 . S
H678 C707 0.930 . S
H679 C684 0.930 . S
H680 C688 0.930 . S
O681 Co650 2.037 . S
O681 C701 1.234 . S
C682 O656 1.269 . S
C682 O657 1.257 . S
C683 H658 0.930 . S
C683 C686 1.388 . S
C683 C688 1.418 1_545 S
C684 H679 0.930 . S
C684 C687 1.404 . S
C684 C688 1.353 . S
N685 Co650 2.145 . S
N685 C686 1.397 . S
N685 C687 1.334 1_545 S
C686 H667 0.929 . S
C686 C683 1.388 . S
C686 N685 1.397 . S
C687 H668 0.929 . S
C687 C684 1.404 . S
C687 N685 1.334 1_565 S
C688 H680 0.930 . S
C688 C683 1.418 1_565 S
C688 C684 1.353 . S
C689 H659 0.930 . S
C689 N690 1.330 . S
C689 C691 1.446 . S
N690 Co649 2.151 . S
N690 C689 1.330 . S
N690 C694 1.418 . S
C691 H670 0.929 . S
C691 C689 1.446 . S
C691 C692 1.332 . S
C692 H672 0.931 . S
C692 C691 1.332 . S
C692 C693 1.267 . S
C693 H661 0.929 . S
C693 C692 1.267 . S
C693 C694 1.251 . S
C694 H664 0.929 . S
C694 N690 1.418 . S
C694 C693 1.251 . S
C695 H662 0.930 . S
C695 C697 1.406 . S
C695 C700 1.261 . S
C696 H663 0.930 . S
C696 N698 1.325 . S
C696 C699 1.357 . S
C697 H665 0.928 . S
C697 C695 1.406 . S
C697 N698 1.261 . S
N698 Co649 2.214 . S
N698 C696 1.325 . S
N698 C697 1.261 . S
C699 H669 0.931 . S
C699 C696 1.357 . S
C699 C700 1.312 . S
C700 H671 0.930 . S
C700 C695 1.261 . S
C700 C699 1.312 . S
C701 O673 1.214 . S
C701 O681 1.234 . S
C702 H674 0.929 . S
C702 C705 1.391 . S
C702 C707 1.391 . S
C703 H675 0.929 . S
C703 C704 1.390 . S
C703 N706 1.391 . S
C704 H676 0.930 . S
C704 C703 1.390 . S
C704 C705 1.392 . S
C705 H677 0.929 . S
C705 C702 1.391 . S
C705 C704 1.392 . S
N706 Co650 2.257 1_565 S
N706 C703 1.391 . S
N706 C707 1.388 . S
C707 H678 0.930 . S
C707 C702 1.391 . S
C707 N706 1.388 . S
Co708 O710 2.143 . S
Co708 O716 2.074 . S
Co708 O719 2.093 . S
Co708 O732 2.097 . S
Co708 N749 2.151 . S
Co708 N757 2.214 . S
Co709 O710 2.160 . S
Co709 O715 2.058 . S
Co709 O725 2.057 . S
Co709 O740 2.037 . S
Co709 N744 2.145 . S
Co709 N765 2.257 . S
O710 Co708 2.143 . S
O710 Co709 2.160 . S
C711 O712 1.278 . S
C711 O719 1.224 . S
O712 C711 1.278 . S
C713 O714 1.245 . S
C713 O725 1.232 . S
O714 C713 1.245 . S
O715 Co709 2.058 . S
O715 C741 1.269 . S
O716 Co708 2.074 . S
O716 C741 1.257 . S
H717 C742 0.930 . S
H718 C748 0.930 . S
O719 Co708 2.093 . S
O719 C711 1.224 . S
H720 C752 0.929 . S
H721 C754 0.930 . S
H722 C755 0.930 . S
H723 C753 0.929 . S
H724 C756 0.928 . S
O725 Co709 2.057 . S
O725 C713 1.232 . S
H726 C745 0.929 . S
H727 C746 0.929 . S
H728 C758 0.931 . S
H729 C750 0.929 . S
H730 C759 0.930 . S
H731 C751 0.931 . S
O732 Co708 2.097 . S
O732 C760 1.214 . S
H733 C761 0.929 . S
H734 C762 0.929 . S
H735 C763 0.930 . S
H736 C764 0.929 . S
H737 C766 0.930 . S
H738 C743 0.930 . S
H739 C747 0.930 . S
O740 Co709 2.037 . S
O740 C760 1.234 . S
C741 O715 1.269 . S
C741 O716 1.257 . S
C742 H717 0.930 . S
C742 C745 1.388 . S
C742 C747 1.418 . S
C743 H738 0.930 . S
C743 C746 1.404 . S
C743 C747 1.353 . S
N744 Co709 2.145 . S
N744 C745 1.397 . S
N744 C746 1.334 . S
C745 H726 0.929 . S
C745 C742 1.388 . S
C745 N744 1.397 . S
C746 H727 0.929 . S
C746 C743 1.404 . S
C746 N744 1.334 . S
C747 H739 0.930 . S
C747 C742 1.418 . S
C747 C743 1.353 . S
C748 H718 0.930 . S
C748 N749 1.330 . S
C748 C750 1.446 . S
N749 Co708 2.151 . S
N749 C748 1.330 . S
N749 C753 1.418 . S
C750 H729 0.929 . S
C750 C748 1.446 . S
C750 C751 1.332 . S
C751 H731 0.931 . S
C751 C750 1.332 . S
C751 C752 1.267 . S
C752 H720 0.929 . S
C752 C751 1.267 . S
C752 C753 1.251 . S
C753 H723 0.929 . S
C753 N749 1.418 . S
C753 C752 1.251 . S
C754 H721 0.930 . S
C754 C756 1.406 . S
C754 C759 1.261 . S
C755 H722 0.930 . S
C755 N757 1.325 . S
C755 C758 1.357 . S
C756 H724 0.928 . S
C756 C754 1.406 . S
C756 N757 1.261 . S
N757 Co708 2.214 . S
N757 C755 1.325 . S
N757 C756 1.261 . S
C758 H728 0.931 . S
C758 C755 1.357 . S
C758 C759 1.312 . S
C759 H730 0.930 . S
C759 C754 1.261 . S
C759 C758 1.312 . S
C760 O732 1.214 . S
C760 O740 1.234 . S
C761 H733 0.929 . S
C761 C764 1.391 . S
C761 C766 1.391 . S
C762 H734 0.929 . S
C762 C763 1.390 . S
C762 N765 1.391 . S
C763 H735 0.930 . S
C763 C762 1.390 . S
C763 C764 1.392 . S
C764 H736 0.929 . S
C764 C761 1.391 . S
C764 C763 1.392 . S
N765 Co709 2.257 . S
N765 C762 1.391 . S
N765 C766 1.388 . S
C766 H737 0.930 . S
C766 C761 1.391 . S
C766 N765 1.388 . S
Co767 O769 2.143 . S
Co767 O775 2.074 . S
Co767 O778 2.093 . S
Co767 O791 2.097 . S
Co767 N808 2.151 . S
Co767 N816 2.214 . S
Co768 O769 2.160 . S
Co768 O774 2.058 . S
Co768 O784 2.057 . S
Co768 O799 2.037 . S
Co768 N803 2.145 . S
Co768 N824 2.257 . S
O769 Co767 2.143 . S
O769 Co768 2.160 . S
C770 O771 1.278 . S
C770 O778 1.224 . S
O771 C770 1.278 . S
C772 O773 1.245 . S
C772 O784 1.232 . S
O773 C772 1.245 . S
O774 Co768 2.058 . S
O774 C800 1.269 . S
O775 Co767 2.074 . S
O775 C800 1.257 . S
H776 C801 0.930 . S
H777 C807 0.930 . S
O778 Co767 2.093 . S
O778 C770 1.224 . S
H779 C811 0.929 . S
H780 C813 0.930 . S
H781 C814 0.930 . S
H782 C812 0.929 . S
H783 C815 0.928 . S
O784 Co768 2.057 . S
O784 C772 1.232 . S
H785 C804 0.929 . S
H786 C805 0.929 . S
H787 C817 0.931 . S
H788 C809 0.929 . S
H789 C818 0.930 . S
H790 C810 0.931 . S
O791 Co767 2.097 . S
O791 C819 1.214 . S
H792 C820 0.929 . S
H793 C821 0.929 . S
H794 C822 0.930 . S
H795 C823 0.929 . S
H796 C825 0.930 . S
H797 C802 0.930 . S
H798 C806 0.930 . S
O799 Co768 2.037 . S
O799 C819 1.234 . S
C800 O774 1.269 . S
C800 O775 1.257 . S
C801 H776 0.930 . S
C801 C804 1.388 . S
C801 C806 1.418 . S
C802 H797 0.930 . S
C802 C805 1.404 . S
C802 C806 1.353 . S
N803 Co768 2.145 . S
N803 C804 1.397 . S
N803 C805 1.334 . S
C804 H785 0.929 . S
C804 C801 1.388 . S
C804 N803 1.397 . S
C805 H786 0.929 . S
C805 C802 1.404 . S
C805 N803 1.334 . S
C806 H798 0.930 . S
C806 C801 1.418 . S
C806 C802 1.353 . S
C807 H777 0.930 . S
C807 N808 1.330 . S
C807 C809 1.446 . S
N808 Co767 2.151 . S
N808 C807 1.330 . S
N808 C812 1.418 . S
C809 H788 0.929 . S
C809 C807 1.446 . S
C809 C810 1.332 . S
C810 H790 0.931 . S
C810 C809 1.332 . S
C810 C811 1.267 . S
C811 H779 0.929 . S
C811 C810 1.267 . S
C811 C812 1.251 . S
C812 H782 0.929 . S
C812 N808 1.418 . S
C812 C811 1.251 . S
C813 H780 0.930 . S
C813 C815 1.406 . S
C813 C818 1.261 . S
C814 H781 0.930 . S
C814 N816 1.325 . S
C814 C817 1.357 . S
C815 H783 0.928 . S
C815 C813 1.406 . S
C815 N816 1.261 . S
N816 Co767 2.214 . S
N816 C814 1.325 . S
N816 C815 1.261 . S
C817 H787 0.931 . S
C817 C814 1.357 . S
C817 C818 1.312 . S
C818 H789 0.930 . S
C818 C813 1.261 . S
C818 C817 1.312 . S
C819 O791 1.214 . S
C819 O799 1.234 . S
C820 H792 0.929 . S
C820 C823 1.391 . S
C820 C825 1.391 . S
C821 H793 0.929 . S
C821 C822 1.390 . S
C821 N824 1.391 . S
C822 H794 0.930 . S
C822 C821 1.390 . S
C822 C823 1.392 . S
C823 H795 0.929 . S
C823 C820 1.391 . S
C823 C822 1.392 . S
N824 Co768 2.257 . S
N824 C821 1.391 . S
N824 C825 1.388 . S
C825 H796 0.930 . S
C825 C820 1.391 . S
C825 N824 1.388 . S
Co826 O828 2.143 . S
Co826 O834 2.074 . S
Co826 O837 2.093 . S
Co826 O850 2.097 . S
Co826 N867 2.151 . S
Co826 N875 2.214 . S
Co827 O828 2.160 . S
Co827 O833 2.058 . S
Co827 O843 2.057 1_455 S
Co827 O858 2.037 . S
Co827 N862 2.145 . S
Co827 N883 2.257 1_455 S
O828 Co826 2.143 . S
O828 Co827 2.160 . S
C829 O830 1.278 1_455 S
C829 O837 1.224 . S
O830 C829 1.278 1_655 S
C831 O832 1.245 . S
C831 O843 1.232 . S
O832 C831 1.245 . S
O833 Co827 2.058 . S
O833 C859 1.269 . S
O834 Co826 2.074 . S
O834 C859 1.257 . S
H835 C860 0.930 . S
H836 C866 0.930 . S
O837 Co826 2.093 . S
O837 C829 1.224 . S
H838 C870 0.929 . S
H839 C872 0.930 . S
H840 C873 0.930 . S
H841 C871 0.929 . S
H842 C874 0.928 . S
O843 Co827 2.057 1_655 S
O843 C831 1.232 . S
H844 C863 0.929 . S
H845 C864 0.929 . S
H846 C876 0.931 . S
H847 C868 0.929 . S
H848 C877 0.930 . S
H849 C869 0.931 . S
O850 Co826 2.097 . S
O850 C878 1.214 . S
H851 C879 0.929 . S
H852 C880 0.929 . S
H853 C881 0.930 . S
H854 C882 0.929 . S
H855 C884 0.930 . S
H856 C861 0.930 . S
H857 C865 0.930 . S
O858 Co827 2.037 . S
O858 C878 1.234 . S
C859 O833 1.269 . S
C859 O834 1.257 . S
C860 H835 0.930 . S
C860 C863 1.388 . S
C860 C865 1.418 1_455 S
C861 H856 0.930 . S
C861 C864 1.404 . S
C861 C865 1.353 . S
N862 Co827 2.145 . S
N862 C863 1.397 . S
N862 C864 1.334 1_455 S
C863 H844 0.929 . S
C863 C860 1.388 . S
C863 N862 1.397 . S
C864 H845 0.929 . S
C864 C861 1.404 . S
C864 N862 1.334 1_655 S
C865 H857 0.930 . S
C865 C860 1.418 1_655 S
C865 C861 1.353 . S
C866 H836 0.930 . S
C866 N867 1.330 . S
C866 C868 1.446 . S
N867 Co826 2.151 . S
N867 C866 1.330 . S
N867 C871 1.418 . S
C868 H847 0.929 . S
C868 C866 1.446 . S
C868 C869 1.332 . S
C869 H849 0.931 . S
C869 C868 1.332 . S
C869 C870 1.267 . S
C870 H838 0.929 . S
C870 C869 1.267 . S
C870 C871 1.251 . S
C871 H841 0.929 . S
C871 N867 1.418 . S
C871 C870 1.251 . S
C872 H839 0.930 . S
C872 C874 1.406 . S
C872 C877 1.261 . S
C873 H840 0.930 . S
C873 N875 1.325 . S
C873 C876 1.357 . S
C874 H842 0.928 . S
C874 C872 1.406 . S
C874 N875 1.261 . S
N875 Co826 2.214 . S
N875 C873 1.325 . S
N875 C874 1.261 . S
C876 H846 0.931 . S
C876 C873 1.357 . S
C876 C877 1.312 . S
C877 H848 0.930 . S
C877 C872 1.261 . S
C877 C876 1.312 . S
C878 O850 1.214 . S
C878 O858 1.234 . S
C879 H851 0.929 . S
C879 C882 1.391 . S
C879 C884 1.391 . S
C880 H852 0.929 . S
C880 C881 1.390 . S
C880 N883 1.391 . S
C881 H853 0.930 . S
C881 C880 1.390 . S
C881 C882 1.392 . S
C882 H854 0.929 . S
C882 C879 1.391 . S
C882 C881 1.392 . S
N883 Co827 2.257 1_655 S
N883 C880 1.391 . S
N883 C884 1.388 . S
C884 H855 0.930 . S
C884 C879 1.391 . S
C884 N883 1.388 . S
Co885 O887 2.143 . S
Co885 O893 2.074 . S
Co885 O896 2.093 . S
Co885 O909 2.097 . S
Co885 N926 2.151 . S
Co885 N934 2.214 . S
Co886 O887 2.160 . S
Co886 O892 2.058 . S
Co886 O902 2.057 1_545 S
Co886 O917 2.037 . S
Co886 N921 2.145 . S
Co886 N942 2.257 1_545 S
O887 Co885 2.143 . S
O887 Co886 2.160 . S
C888 O889 1.278 1_545 S
C888 O896 1.224 . S
O889 C888 1.278 1_565 S
C890 O891 1.245 . S
C890 O902 1.232 . S
O891 C890 1.245 . S
O892 Co886 2.058 . S
O892 C918 1.269 . S
O893 Co885 2.074 . S
O893 C918 1.257 . S
H894 C919 0.930 . S
H895 C925 0.930 . S
O896 Co885 2.093 . S
O896 C888 1.224 . S
H897 C929 0.929 . S
H898 C931 0.930 . S
H899 C932 0.930 . S
H900 C930 0.929 . S
H901 C933 0.928 . S
O902 Co886 2.057 1_565 S
O902 C890 1.232 . S
H903 C922 0.929 . S
H904 C923 0.929 . S
H905 C935 0.931 . S
H906 C927 0.929 . S
H907 C936 0.930 . S
H908 C928 0.931 . S
O909 Co885 2.097 . S
O909 C937 1.214 . S
H910 C938 0.929 . S
H911 C939 0.929 . S
H912 C940 0.930 . S
H913 C941 0.929 . S
H914 C943 0.930 . S
H915 C920 0.930 . S
H916 C924 0.930 . S
O917 Co886 2.037 . S
O917 C937 1.234 . S
C918 O892 1.269 . S
C918 O893 1.257 . S
C919 H894 0.930 . S
C919 C922 1.388 . S
C919 C924 1.418 1_545 S
C920 H915 0.930 . S
C920 C923 1.404 . S
C920 C924 1.353 . S
N921 Co886 2.145 . S
N921 C922 1.397 . S
N921 C923 1.334 1_545 S
C922 H903 0.929 . S
C922 C919 1.388 . S
C922 N921 1.397 . S
C923 H904 0.929 . S
C923 C920 1.404 . S
C923 N921 1.334 1_565 S
C924 H916 0.930 . S
C924 C919 1.418 1_565 S
C924 C920 1.353 . S
C925 H895 0.930 . S
C925 N926 1.330 . S
C925 C927 1.446 . S
N926 Co885 2.151 . S
N926 C925 1.330 . S
N926 C930 1.418 . S
C927 H906 0.929 . S
C927 C925 1.446 . S
C927 C928 1.332 . S
C928 H908 0.931 . S
C928 C927 1.332 . S
C928 C929 1.267 . S
C929 H897 0.929 . S
C929 C928 1.267 . S
C929 C930 1.251 . S
C930 H900 0.929 . S
C930 N926 1.418 . S
C930 C929 1.251 . S
C931 H898 0.930 . S
C931 C933 1.406 . S
C931 C936 1.261 . S
C932 H899 0.930 . S
C932 N934 1.325 . S
C932 C935 1.357 . S
C933 H901 0.928 . S
C933 C931 1.406 . S
C933 N934 1.261 . S
N934 Co885 2.214 . S
N934 C932 1.325 . S
N934 C933 1.261 . S
C935 H905 0.931 . S
C935 C932 1.357 . S
C935 C936 1.312 . S
C936 H907 0.930 . S
C936 C931 1.261 . S
C936 C935 1.312 . S
C937 O909 1.214 . S
C937 O917 1.234 . S
C938 H910 0.929 . S
C938 C941 1.391 . S
C938 C943 1.391 . S
C939 H911 0.929 . S
C939 C940 1.390 . S
C939 N942 1.391 . S
C940 H912 0.930 . S
C940 C939 1.390 . S
C940 C941 1.392 . S
C941 H913 0.929 . S
C941 C938 1.391 . S
C941 C940 1.392 . S
N942 Co886 2.257 1_565 S
N942 C939 1.391 . S
N942 C943 1.388 . S
C943 H914 0.930 . S
C943 C938 1.391 . S
C943 N942 1.388 . S
C944 C945 1.363 . S
C944 C950 1.379 . S
C944 N952 1.356 . S
C945 C944 1.363 . S
C945 C951 1.363 . S
C946 C947 1.363 . S
C946 C951 1.379 . S
C946 N953 1.356 . S
C947 C946 1.363 . S
C947 C950 1.363 . S
N948 C950 1.356 . S
N948 H960 0.984 . S
N948 H961 0.985 . S
N949 C951 1.356 . S
N949 H954 0.984 . S
N949 H955 0.985 . S
C950 C944 1.379 . S
C950 C947 1.363 . S
C950 N948 1.356 . S
C951 C945 1.363 . S
C951 C946 1.379 . S
C951 N949 1.356 . S
N952 C944 1.356 . S
N952 H958 0.984 . S
N952 H959 0.984 . S
N953 C946 1.356 . S
N953 H956 0.984 . S
N953 H957 0.985 . S
H954 N949 0.984 . S
H955 N949 0.985 . S
H956 N953 0.984 . S
H957 N953 0.985 . S
H958 N952 0.984 . S
H959 N952 0.984 . S
H960 N948 0.984 . S
H961 N948 0.985 . S
C962 C963 1.363 . S
C962 C968 1.379 . S
C962 N970 1.356 . S
C963 C962 1.363 . S
C963 C969 1.363 . S
C964 C965 1.363 . S
C964 C969 1.379 . S
C964 N971 1.356 . S
C965 C964 1.363 . S
C965 C968 1.363 . S
N966 C968 1.356 . S
N966 H978 0.984 . S
N966 H979 0.985 . S
N967 C969 1.356 . S
N967 H972 0.984 . S
N967 H973 0.985 . S
C968 C962 1.379 . S
C968 C965 1.363 . S
C968 N966 1.356 . S
C969 C963 1.363 . S
C969 C964 1.379 . S
C969 N967 1.356 . S
N970 C962 1.356 . S
N970 H976 0.984 . S
N970 H977 0.984 . S
N971 C964 1.356 . S
N971 H974 0.984 . S
N971 H975 0.985 . S
H972 N967 0.984 . S
H973 N967 0.985 . S
H974 N971 0.984 . S
H975 N971 0.985 . S
H976 N970 0.984 . S
H977 N970 0.984 . S
H978 N966 0.984 . S
H979 N966 0.985 . S
C980 C981 1.363 . S
C980 C986 1.379 . S
C980 N988 1.356 . S
C981 C980 1.363 . S
C981 C987 1.363 . S
C982 C983 1.363 . S
C982 C987 1.379 . S
C982 N989 1.356 . S
C983 C982 1.363 . S
C983 C986 1.363 . S
N984 C986 1.356 . S
N984 H996 0.984 . S
N984 H997 0.985 . S
N985 C987 1.356 . S
N985 H990 0.984 . S
N985 H991 0.985 . S
C986 C980 1.379 . S
C986 C983 1.363 . S
C986 N984 1.356 . S
C987 C981 1.363 . S
C987 C982 1.379 . S
C987 N985 1.356 . S
N988 C980 1.356 . S
N988 H994 0.984 . S
N988 H995 0.984 . S
N989 C982 1.356 . S
N989 H992 0.984 . S
N989 H993 0.985 . S
H990 N985 0.984 . S
H991 N985 0.985 . S
H992 N989 0.984 . S
H993 N989 0.985 . S
H994 N988 0.984 . S
H995 N988 0.984 . S
H996 N984 0.984 . S
H997 N984 0.985 . S
C998 C999 1.363 . S
C998 C1004 1.379 . S
C998 N1006 1.356 . S
C999 C998 1.363 . S
C999 C1005 1.363 . S
C1000 C1001 1.363 . S
C1000 C1005 1.379 . S
C1000 N1007 1.356 . S
C1001 C1000 1.363 . S
C1001 C1004 1.363 . S
N1002 C1004 1.356 . S
N1002 H1014 0.984 . S
N1002 H1015 0.985 . S
N1003 C1005 1.356 . S
N1003 H1008 0.984 . S
N1003 H1009 0.985 . S
C1004 C998 1.379 . S
C1004 C1001 1.363 . S
C1004 N1002 1.356 . S
C1005 C999 1.363 . S
C1005 C1000 1.379 . S
C1005 N1003 1.356 . S
N1006 C998 1.356 . S
N1006 H1012 0.984 . S
N1006 H1013 0.984 . S
N1007 C1000 1.356 . S
N1007 H1010 0.984 . S
N1007 H1011 0.985 . S
H1008 N1003 0.984 . S
H1009 N1003 0.985 . S
H1010 N1007 0.984 . S
H1011 N1007 0.985 . S
H1012 N1006 0.984 . S
H1013 N1006 0.984 . S
H1014 N1002 0.984 . S
H1015 N1002 0.985 . S
C1016 C1017 1.363 . S
C1016 C1022 1.379 . S
C1016 N1024 1.356 . S
C1017 C1016 1.363 . S
C1017 C1023 1.363 . S
C1018 C1019 1.363 . S
C1018 C1023 1.379 . S
C1018 N1025 1.356 . S
C1019 C1018 1.363 . S
C1019 C1022 1.363 . S
N1020 C1022 1.356 . S
N1020 H1032 0.984 . S
N1020 H1033 0.985 . S
N1021 C1023 1.356 . S
N1021 H1026 0.984 . S
N1021 H1027 0.985 . S
C1022 C1016 1.379 . S
C1022 C1019 1.363 . S
C1022 N1020 1.356 . S
C1023 C1017 1.363 . S
C1023 C1018 1.379 . S
C1023 N1021 1.356 . S
N1024 C1016 1.356 . S
N1024 H1030 0.984 . S
N1024 H1031 0.984 . S
N1025 C1018 1.356 . S
N1025 H1028 0.984 . S
N1025 H1029 0.985 . S
H1026 N1021 0.984 . S
H1027 N1021 0.985 . S
H1028 N1025 0.984 . S
H1029 N1025 0.985 . S
H1030 N1024 0.984 . S
H1031 N1024 0.984 . S
H1032 N1020 0.984 . S
H1033 N1020 0.985 . S
C1034 C1035 1.363 . S
C1034 C1040 1.379 . S
C1034 N1042 1.356 . S
C1035 C1034 1.363 . S
C1035 C1041 1.363 . S
C1036 C1037 1.363 . S
C1036 C1041 1.379 . S
C1036 N1043 1.356 . S
C1037 C1036 1.363 . S
C1037 C1040 1.363 . S
N1038 C1040 1.356 . S
N1038 H1050 0.984 . S
N1038 H1051 0.985 . S
N1039 C1041 1.356 . S
N1039 H1044 0.984 . S
N1039 H1045 0.985 . S
C1040 C1034 1.379 . S
C1040 C1037 1.363 . S
C1040 N1038 1.356 . S
C1041 C1035 1.363 . S
C1041 C1036 1.379 . S
C1041 N1039 1.356 . S
N1042 C1034 1.356 . S
N1042 H1048 0.984 . S
N1042 H1049 0.984 . S
N1043 C1036 1.356 . S
N1043 H1046 0.984 . S
N1043 H1047 0.985 . S
H1044 N1039 0.984 . S
H1045 N1039 0.985 . S
H1046 N1043 0.984 . S
H1047 N1043 0.985 . S
H1048 N1042 0.984 . S
H1049 N1042 0.984 . S
H1050 N1038 0.984 . S
H1051 N1038 0.985 . S
C1052 C1053 1.363 . S
C1052 C1058 1.379 . S
C1052 N1060 1.356 . S
C1053 C1052 1.363 . S
C1053 C1059 1.363 . S
C1054 C1055 1.363 . S
C1054 C1059 1.379 . S
C1054 N1061 1.356 . S
C1055 C1054 1.363 . S
C1055 C1058 1.363 . S
N1056 C1058 1.356 . S
N1056 H1068 0.984 . S
N1056 H1069 0.985 . S
N1057 C1059 1.356 . S
N1057 H1062 0.984 . S
N1057 H1063 0.985 . S
C1058 C1052 1.379 . S
C1058 C1055 1.363 . S
C1058 N1056 1.356 . S
C1059 C1053 1.363 . S
C1059 C1054 1.379 . S
C1059 N1057 1.356 . S
N1060 C1052 1.356 . S
N1060 H1066 0.984 . S
N1060 H1067 0.984 . S
N1061 C1054 1.356 . S
N1061 H1064 0.984 . S
N1061 H1065 0.985 . S
H1062 N1057 0.984 . S
H1063 N1057 0.985 . S
H1064 N1061 0.984 . S
H1065 N1061 0.985 . S
H1066 N1060 0.984 . S
H1067 N1060 0.984 . S
H1068 N1056 0.984 . S
H1069 N1056 0.985 . S
C1070 C1071 1.363 . S
C1070 C1076 1.379 . S
C1070 N1078 1.356 . S
C1071 C1070 1.363 . S
C1071 C1077 1.363 . S
C1072 C1073 1.363 . S
C1072 C1077 1.379 . S
C1072 N1079 1.356 . S
C1073 C1072 1.363 . S
C1073 C1076 1.363 . S
N1074 C1076 1.356 . S
N1074 H1086 0.984 . S
N1074 H1087 0.985 . S
N1075 C1077 1.356 . S
N1075 H1080 0.984 . S
N1075 H1081 0.985 . S
C1076 C1070 1.379 . S
C1076 C1073 1.363 . S
C1076 N1074 1.356 . S
C1077 C1071 1.363 . S
C1077 C1072 1.379 . S
C1077 N1075 1.356 . S
N1078 C1070 1.356 . S
N1078 H1084 0.984 . S
N1078 H1085 0.984 . S
N1079 C1072 1.356 . S
N1079 H1082 0.984 . S
N1079 H1083 0.985 . S
H1080 N1075 0.984 . S
H1081 N1075 0.985 . S
H1082 N1079 0.984 . S
H1083 N1079 0.985 . S
H1084 N1078 0.984 . S
H1085 N1078 0.984 . S
H1086 N1074 0.984 . S
H1087 N1074 0.985 . S
C1088 C1089 1.363 . S
C1088 C1094 1.379 . S
C1088 N1096 1.356 . S
C1089 C1088 1.363 . S
C1089 C1095 1.363 . S
C1090 C1091 1.363 . S
C1090 C1095 1.379 . S
C1090 N1097 1.356 . S
C1091 C1090 1.363 . S
C1091 C1094 1.363 . S
N1092 C1094 1.356 . S
N1092 H1104 0.984 . S
N1092 H1105 0.985 . S
N1093 C1095 1.356 . S
N1093 H1098 0.984 . S
N1093 H1099 0.985 . S
C1094 C1088 1.379 . S
C1094 C1091 1.363 . S
C1094 N1092 1.356 . S
C1095 C1089 1.363 . S
C1095 C1090 1.379 . S
C1095 N1093 1.356 . S
N1096 C1088 1.356 . S
N1096 H1102 0.984 . S
N1096 H1103 0.984 . S
N1097 C1090 1.356 . S
N1097 H1100 0.984 . S
N1097 H1101 0.985 . S
H1098 N1093 0.984 . S
H1099 N1093 0.985 . S
H1100 N1097 0.984 . S
H1101 N1097 0.985 . S
H1102 N1096 0.984 . S
H1103 N1096 0.984 . S
H1104 N1092 0.984 . S
H1105 N1092 0.985 . S
C1106 C1107 1.363 . S
C1106 C1112 1.379 . S
C1106 N1114 1.356 . S
C1107 C1106 1.363 . S
C1107 C1113 1.363 . S
C1108 C1109 1.363 . S
C1108 C1113 1.379 . S
C1108 N1115 1.356 . S
C1109 C1108 1.363 . S
C1109 C1112 1.363 . S
N1110 C1112 1.356 . S
N1110 H1122 0.984 . S
N1110 H1123 0.985 . S
N1111 C1113 1.356 . S
N1111 H1116 0.984 . S
N1111 H1117 0.985 . S
C1112 C1106 1.379 . S
C1112 C1109 1.363 . S
C1112 N1110 1.356 . S
C1113 C1107 1.363 . S
C1113 C1108 1.379 . S
C1113 N1111 1.356 . S
N1114 C1106 1.356 . S
N1114 H1120 0.984 . S
N1114 H1121 0.984 . S
N1115 C1108 1.356 . S
N1115 H1118 0.984 . S
N1115 H1119 0.985 . S
H1116 N1111 0.984 . S
H1117 N1111 0.985 . S
H1118 N1115 0.984 . S
H1119 N1115 0.985 . S
H1120 N1114 0.984 . S
H1121 N1114 0.984 . S
H1122 N1110 0.984 . S
H1123 N1110 0.985 . S
C1124 C1125 1.363 . S
C1124 C1130 1.379 . S
C1124 N1132 1.356 . S
C1125 C1124 1.363 . S
C1125 C1131 1.363 . S
C1126 C1127 1.363 . S
C1126 C1131 1.379 . S
C1126 N1133 1.356 . S
C1127 C1126 1.363 . S
C1127 C1130 1.363 . S
N1128 C1130 1.356 . S
N1128 H1140 0.984 . S
N1128 H1141 0.985 . S
N1129 C1131 1.356 . S
N1129 H1134 0.984 . S
N1129 H1135 0.985 . S
C1130 C1124 1.379 . S
C1130 C1127 1.363 . S
C1130 N1128 1.356 . S
C1131 C1125 1.363 . S
C1131 C1126 1.379 . S
C1131 N1129 1.356 . S
N1132 C1124 1.356 . S
N1132 H1138 0.984 . S
N1132 H1139 0.984 . S
N1133 C1126 1.356 . S
N1133 H1136 0.984 . S
N1133 H1137 0.985 . S
H1134 N1129 0.984 . S
H1135 N1129 0.985 . S
H1136 N1133 0.984 . S
H1137 N1133 0.985 . S
H1138 N1132 0.984 . S
H1139 N1132 0.984 . S
H1140 N1128 0.984 . S
H1141 N1128 0.985 . S
C1142 C1143 1.363 . S
C1142 C1148 1.379 . S
C1142 N1150 1.356 . S
C1143 C1142 1.363 . S
C1143 C1149 1.363 . S
C1144 C1145 1.363 . S
C1144 C1149 1.379 . S
C1144 N1151 1.356 . S
C1145 C1144 1.363 . S
C1145 C1148 1.363 . S
N1146 C1148 1.356 . S
N1146 H1158 0.984 . S
N1146 H1159 0.985 . S
N1147 C1149 1.356 . S
N1147 H1152 0.984 . S
N1147 H1153 0.985 . S
C1148 C1142 1.379 . S
C1148 C1145 1.363 . S
C1148 N1146 1.356 . S
C1149 C1143 1.363 . S
C1149 C1144 1.379 . S
C1149 N1147 1.356 . S
N1150 C1142 1.356 . S
N1150 H1156 0.984 . S
N1150 H1157 0.984 . S
N1151 C1144 1.356 . S
N1151 H1154 0.984 . S
N1151 H1155 0.985 . S
H1152 N1147 0.984 . S
H1153 N1147 0.985 . S
H1154 N1151 0.984 . S
H1155 N1151 0.985 . S
H1156 N1150 0.984 . S
H1157 N1150 0.984 . S
H1158 N1146 0.984 . S
H1159 N1146 0.985 . S
C1160 C1161 1.363 . S
C1160 C1166 1.379 . S
C1160 N1168 1.356 . S
C1161 C1160 1.363 . S
C1161 C1167 1.363 . S
C1162 C1163 1.363 . S
C1162 C1167 1.379 . S
C1162 N1169 1.356 . S
C1163 C1162 1.363 . S
C1163 C1166 1.363 . S
N1164 C1166 1.356 . S
N1164 H1176 0.984 . S
N1164 H1177 0.985 . S
N1165 C1167 1.356 . S
N1165 H1170 0.984 . S
N1165 H1171 0.985 . S
C1166 C1160 1.379 . S
C1166 C1163 1.363 . S
C1166 N1164 1.356 . S
C1167 C1161 1.363 . S
C1167 C1162 1.379 . S
C1167 N1165 1.356 . S
N1168 C1160 1.356 . S
N1168 H1174 0.984 . S
N1168 H1175 0.984 . S
N1169 C1162 1.356 . S
N1169 H1172 0.984 . S
N1169 H1173 0.985 . S
H1170 N1165 0.984 . S
H1171 N1165 0.985 . S
H1172 N1169 0.984 . S
H1173 N1169 0.985 . S
H1174 N1168 0.984 . S
H1175 N1168 0.984 . S
H1176 N1164 0.984 . S
H1177 N1164 0.985 . S
C1178 C1179 1.363 . S
C1178 C1184 1.379 . S
C1178 N1186 1.356 . S
C1179 C1178 1.363 . S
C1179 C1185 1.363 . S
C1180 C1181 1.363 . S
C1180 C1185 1.379 . S
C1180 N1187 1.356 . S
C1181 C1180 1.363 . S
C1181 C1184 1.363 . S
N1182 C1184 1.356 . S
N1182 H1194 0.984 . S
N1182 H1195 0.985 . S
N1183 C1185 1.356 . S
N1183 H1188 0.984 . S
N1183 H1189 0.985 . S
C1184 C1178 1.379 . S
C1184 C1181 1.363 . S
C1184 N1182 1.356 . S
C1185 C1179 1.363 . S
C1185 C1180 1.379 . S
C1185 N1183 1.356 . S
N1186 C1178 1.356 . S
N1186 H1192 0.984 . S
N1186 H1193 0.984 . S
N1187 C1180 1.356 . S
N1187 H1190 0.984 . S
N1187 H1191 0.985 . S
H1188 N1183 0.984 . S
H1189 N1183 0.985 . S
H1190 N1187 0.984 . S
H1191 N1187 0.985 . S
H1192 N1186 0.984 . S
H1193 N1186 0.984 . S
H1194 N1182 0.984 . S
H1195 N1182 0.985 . S
C1196 C1197 1.363 . S
C1196 C1202 1.379 . S
C1196 N1204 1.356 . S
C1197 C1196 1.363 . S
C1197 C1203 1.363 . S
C1198 C1199 1.363 . S
C1198 C1203 1.379 . S
C1198 N1205 1.356 . S
C1199 C1198 1.363 . S
C1199 C1202 1.363 . S
N1200 C1202 1.356 . S
N1200 H1212 0.984 . S
N1200 H1213 0.985 . S
N1201 C1203 1.356 . S
N1201 H1206 0.984 . S
N1201 H1207 0.985 . S
C1202 C1196 1.379 . S
C1202 C1199 1.363 . S
C1202 N1200 1.356 . S
C1203 C1197 1.363 . S
C1203 C1198 1.379 . S
C1203 N1201 1.356 . S
N1204 C1196 1.356 . S
N1204 H1210 0.984 . S
N1204 H1211 0.984 . S
N1205 C1198 1.356 . S
N1205 H1208 0.984 . S
N1205 H1209 0.985 . S
H1206 N1201 0.984 . S
H1207 N1201 0.985 . S
H1208 N1205 0.984 . S
H1209 N1205 0.985 . S
H1210 N1204 0.984 . S
H1211 N1204 0.984 . S
H1212 N1200 0.984 . S
H1213 N1200 0.985 . S
C1214 C1215 1.363 . S
C1214 C1220 1.379 . S
C1214 N1222 1.356 . S
C1215 C1214 1.363 . S
C1215 C1221 1.363 . S
C1216 C1217 1.363 . S
C1216 C1221 1.379 . S
C1216 N1223 1.356 . S
C1217 C1216 1.363 . S
C1217 C1220 1.363 . S
N1218 C1220 1.356 . S
N1218 H1230 0.984 . S
N1218 H1231 0.985 . S
N1219 C1221 1.356 . S
N1219 H1224 0.984 . S
N1219 H1225 0.985 . S
C1220 C1214 1.379 . S
C1220 C1217 1.363 . S
C1220 N1218 1.356 . S
C1221 C1215 1.363 . S
C1221 C1216 1.379 . S
C1221 N1219 1.356 . S
N1222 C1214 1.356 . S
N1222 H1228 0.984 . S
N1222 H1229 0.984 . S
N1223 C1216 1.356 . S
N1223 H1226 0.984 . S
N1223 H1227 0.985 . S
H1224 N1219 0.984 . S
H1225 N1219 0.985 . S
H1226 N1223 0.984 . S
H1227 N1223 0.985 . S
H1228 N1222 0.984 . S
H1229 N1222 0.984 . S
H1230 N1218 0.984 . S
H1231 N1218 0.985 . S
C1232 C1233 1.363 . S
C1232 C1238 1.379 . S
C1232 N1240 1.356 . S
C1233 C1232 1.363 . S
C1233 C1239 1.363 . S
C1234 C1235 1.363 . S
C1234 C1239 1.379 . S
C1234 N1241 1.356 . S
C1235 C1234 1.363 . S
C1235 C1238 1.363 . S
N1236 C1238 1.356 . S
N1236 H1248 0.984 . S
N1236 H1249 0.985 . S
N1237 C1239 1.356 . S
N1237 H1242 0.984 . S
N1237 H1243 0.985 . S
C1238 C1232 1.379 . S
C1238 C1235 1.363 . S
C1238 N1236 1.356 . S
C1239 C1233 1.363 . S
C1239 C1234 1.379 . S
C1239 N1237 1.356 . S
N1240 C1232 1.356 . S
N1240 H1246 0.984 . S
N1240 H1247 0.984 . S
N1241 C1234 1.356 . S
N1241 H1244 0.984 . S
N1241 H1245 0.985 . S
H1242 N1237 0.984 . S
H1243 N1237 0.985 . S
H1244 N1241 0.984 . S
H1245 N1241 0.985 . S
H1246 N1240 0.984 . S
H1247 N1240 0.984 . S
H1248 N1236 0.984 . S
H1249 N1236 0.985 . S
C1250 C1251 1.363 . S
C1250 C1256 1.379 . S
C1250 N1258 1.356 . S
C1251 C1250 1.363 . S
C1251 C1257 1.363 . S
C1252 C1253 1.363 . S
C1252 C1257 1.379 . S
C1252 N1259 1.356 . S
C1253 C1252 1.363 . S
C1253 C1256 1.363 . S
N1254 C1256 1.356 . S
N1254 H1266 0.984 . S
N1254 H1267 0.985 . S
N1255 C1257 1.356 . S
N1255 H1260 0.984 . S
N1255 H1261 0.985 . S
C1256 C1250 1.379 . S
C1256 C1253 1.363 . S
C1256 N1254 1.356 . S
C1257 C1251 1.363 . S
C1257 C1252 1.379 . S
C1257 N1255 1.356 . S
N1258 C1250 1.356 . S
N1258 H1264 0.984 . S
N1258 H1265 0.984 . S
N1259 C1252 1.356 . S
N1259 H1262 0.984 . S
N1259 H1263 0.985 . S
H1260 N1255 0.984 . S
H1261 N1255 0.985 . S
H1262 N1259 0.984 . S
H1263 N1259 0.985 . S
H1264 N1258 0.984 . S
H1265 N1258 0.984 . S
H1266 N1254 0.984 . S
H1267 N1254 0.985 . S
C1268 C1269 1.363 . S
C1268 C1274 1.379 . S
C1268 N1276 1.356 . S
C1269 C1268 1.363 . S
C1269 C1275 1.363 . S
C1270 C1271 1.363 . S
C1270 C1275 1.379 . S
C1270 N1277 1.356 . S
C1271 C1270 1.363 . S
C1271 C1274 1.363 . S
N1272 C1274 1.356 . S
N1272 H1284 0.984 . S
N1272 H1285 0.985 . S
N1273 C1275 1.356 . S
N1273 H1278 0.984 . S
N1273 H1279 0.985 . S
C1274 C1268 1.379 . S
C1274 C1271 1.363 . S
C1274 N1272 1.356 . S
C1275 C1269 1.363 . S
C1275 C1270 1.379 . S
C1275 N1273 1.356 . S
N1276 C1268 1.356 . S
N1276 H1282 0.984 . S
N1276 H1283 0.984 . S
N1277 C1270 1.356 . S
N1277 H1280 0.984 . S
N1277 H1281 0.985 . S
H1278 N1273 0.984 . S
H1279 N1273 0.985 . S
H1280 N1277 0.984 . S
H1281 N1277 0.985 . S
H1282 N1276 0.984 . S
H1283 N1276 0.984 . S
H1284 N1272 0.984 . S
H1285 N1272 0.985 . S
C1286 C1287 1.363 . S
C1286 C1292 1.379 . S
C1286 N1294 1.356 . S
C1287 C1286 1.363 . S
C1287 C1293 1.363 . S
C1288 C1289 1.363 . S
C1288 C1293 1.379 . S
C1288 N1295 1.356 . S
C1289 C1288 1.363 . S
C1289 C1292 1.363 . S
N1290 C1292 1.356 . S
N1290 H1302 0.984 . S
N1290 H1303 0.985 . S
N1291 C1293 1.356 . S
N1291 H1296 0.984 . S
N1291 H1297 0.985 . S
C1292 C1286 1.379 . S
C1292 C1289 1.363 . S
C1292 N1290 1.356 . S
C1293 C1287 1.363 . S
C1293 C1288 1.379 . S
C1293 N1291 1.356 . S
N1294 C1286 1.356 . S
N1294 H1300 0.984 . S
N1294 H1301 0.984 . S
N1295 C1288 1.356 . S
N1295 H1298 0.984 . S
N1295 H1299 0.985 . S
H1296 N1291 0.984 . S
H1297 N1291 0.985 . S
H1298 N1295 0.984 . S
H1299 N1295 0.985 . S
H1300 N1294 0.984 . S
H1301 N1294 0.984 . S
H1302 N1290 0.984 . S
H1303 N1290 0.985 . S
C1304 C1305 1.363 . S
C1304 C1310 1.379 . S
C1304 N1312 1.356 . S
C1305 C1304 1.363 . S
C1305 C1311 1.363 . S
C1306 C1307 1.363 . S
C1306 C1311 1.379 . S
C1306 N1313 1.356 . S
C1307 C1306 1.363 . S
C1307 C1310 1.363 . S
N1308 C1310 1.356 . S
N1308 H1320 0.984 . S
N1308 H1321 0.985 . S
N1309 C1311 1.356 . S
N1309 H1314 0.984 . S
N1309 H1315 0.985 . S
C1310 C1304 1.379 . S
C1310 C1307 1.363 . S
C1310 N1308 1.356 . S
C1311 C1305 1.363 . S
C1311 C1306 1.379 . S
C1311 N1309 1.356 . S
N1312 C1304 1.356 . S
N1312 H1318 0.984 . S
N1312 H1319 0.984 . S
N1313 C1306 1.356 . S
N1313 H1316 0.984 . S
N1313 H1317 0.985 . S
H1314 N1309 0.984 . S
H1315 N1309 0.985 . S
H1316 N1313 0.984 . S
H1317 N1313 0.985 . S
H1318 N1312 0.984 . S
H1319 N1312 0.984 . S
H1320 N1308 0.984 . S
H1321 N1308 0.985 . S
C1322 C1323 1.363 . S
C1322 C1328 1.379 . S
C1322 N1330 1.356 . S
C1323 C1322 1.363 . S
C1323 C1329 1.363 . S
C1324 C1325 1.363 . S
C1324 C1329 1.379 . S
C1324 N1331 1.356 . S
C1325 C1324 1.363 . S
C1325 C1328 1.363 . S
N1326 C1328 1.356 . S
N1326 H1338 0.984 . S
N1326 H1339 0.985 . S
N1327 C1329 1.356 . S
N1327 H1332 0.984 . S
N1327 H1333 0.985 . S
C1328 C1322 1.379 . S
C1328 C1325 1.363 . S
C1328 N1326 1.356 . S
C1329 C1323 1.363 . S
C1329 C1324 1.379 . S
C1329 N1327 1.356 . S
N1330 C1322 1.356 . S
N1330 H1336 0.984 . S
N1330 H1337 0.984 . S
N1331 C1324 1.356 . S
N1331 H1334 0.984 . S
N1331 H1335 0.985 . S
H1332 N1327 0.984 . S
H1333 N1327 0.985 . S
H1334 N1331 0.984 . S
H1335 N1331 0.985 . S
H1336 N1330 0.984 . S
H1337 N1330 0.984 . S
H1338 N1326 0.984 . S
H1339 N1326 0.985 . S
C1340 C1341 1.363 . S
C1340 C1346 1.379 . S
C1340 N1348 1.356 . S
C1341 C1340 1.363 . S
C1341 C1347 1.363 . S
C1342 C1343 1.363 . S
C1342 C1347 1.379 . S
C1342 N1349 1.356 . S
C1343 C1342 1.363 . S
C1343 C1346 1.363 . S
N1344 C1346 1.356 . S
N1344 H1356 0.984 . S
N1344 H1357 0.985 . S
N1345 C1347 1.356 . S
N1345 H1350 0.984 . S
N1345 H1351 0.985 . S
C1346 C1340 1.379 . S
C1346 C1343 1.363 . S
C1346 N1344 1.356 . S
C1347 C1341 1.363 . S
C1347 C1342 1.379 . S
C1347 N1345 1.356 . S
N1348 C1340 1.356 . S
N1348 H1354 0.984 . S
N1348 H1355 0.984 . S
N1349 C1342 1.356 . S
N1349 H1352 0.984 . S
N1349 H1353 0.985 . S
H1350 N1345 0.984 . S
H1351 N1345 0.985 . S
H1352 N1349 0.984 . S
H1353 N1349 0.985 . S
H1354 N1348 0.984 . S
H1355 N1348 0.984 . S
H1356 N1344 0.984 . S
H1357 N1344 0.985 . S
C1358 C1359 1.363 . S
C1358 C1364 1.379 . S
C1358 N1366 1.356 . S
C1359 C1358 1.363 . S
C1359 C1365 1.363 . S
C1360 C1361 1.363 . S
C1360 C1365 1.379 . S
C1360 N1367 1.356 . S
C1361 C1360 1.363 . S
C1361 C1364 1.363 . S
N1362 C1364 1.356 . S
N1362 H1374 0.984 . S
N1362 H1375 0.985 . S
N1363 C1365 1.356 . S
N1363 H1368 0.984 . S
N1363 H1369 0.985 . S
C1364 C1358 1.379 . S
C1364 C1361 1.363 . S
C1364 N1362 1.356 . S
C1365 C1359 1.363 . S
C1365 C1360 1.379 . S
C1365 N1363 1.356 . S
N1366 C1358 1.356 . S
N1366 H1372 0.984 . S
N1366 H1373 0.984 . S
N1367 C1360 1.356 . S
N1367 H1370 0.984 . S
N1367 H1371 0.985 . S
H1368 N1363 0.984 . S
H1369 N1363 0.985 . S
H1370 N1367 0.984 . S
H1371 N1367 0.985 . S
H1372 N1366 0.984 . S
H1373 N1366 0.984 . S
H1374 N1362 0.984 . S
H1375 N1362 0.985 . S
C1376 C1377 1.363 . S
C1376 C1382 1.379 1_554 S
C1376 N1384 1.356 . S
C1377 C1376 1.363 . S
C1377 C1383 1.363 . S
C1378 C1379 1.363 . S
C1378 C1383 1.379 1_556 S
C1378 N1385 1.356 . S
C1379 C1378 1.363 . S
C1379 C1382 1.363 . S
N1380 C1382 1.356 . S
N1380 H1392 0.984 . S
N1380 H1393 0.985 . S
N1381 C1383 1.356 . S
N1381 H1386 0.984 . S
N1381 H1387 0.985 . S
C1382 C1376 1.379 1_556 S
C1382 C1379 1.363 . S
C1382 N1380 1.356 . S
C1383 C1377 1.363 . S
C1383 C1378 1.379 1_554 S
C1383 N1381 1.356 . S
N1384 C1376 1.356 . S
N1384 H1390 0.984 . S
N1384 H1391 0.984 . S
N1385 C1378 1.356 . S
N1385 H1388 0.984 . S
N1385 H1389 0.985 . S
H1386 N1381 0.984 . S
H1387 N1381 0.985 . S
H1388 N1385 0.984 . S
H1389 N1385 0.985 . S
H1390 N1384 0.984 . S
H1391 N1384 0.984 . S
H1392 N1380 0.984 . S
H1393 N1380 0.985 . S
C1394 C1395 1.363 . S
C1394 C1400 1.379 . S
C1394 N1402 1.356 . S
C1395 C1394 1.363 . S
C1395 C1401 1.363 . S
C1396 C1397 1.363 . S
C1396 C1401 1.379 . S
C1396 N1403 1.356 . S
C1397 C1396 1.363 . S
C1397 C1400 1.363 . S
N1398 C1400 1.356 . S
N1398 H1410 0.984 . S
N1398 H1411 0.985 . S
N1399 C1401 1.356 . S
N1399 H1404 0.984 . S
N1399 H1405 0.985 . S
C1400 C1394 1.379 . S
C1400 C1397 1.363 . S
C1400 N1398 1.356 . S
C1401 C1395 1.363 . S
C1401 C1396 1.379 . S
C1401 N1399 1.356 . S
N1402 C1394 1.356 . S
N1402 H1408 0.984 . S
N1402 H1409 0.984 . S
N1403 C1396 1.356 . S
N1403 H1406 0.984 . S
N1403 H1407 0.985 . S
H1404 N1399 0.984 . S
H1405 N1399 0.985 . S
H1406 N1403 0.984 . S
H1407 N1403 0.985 . S
H1408 N1402 0.984 . S
H1409 N1402 0.984 . S
H1410 N1398 0.984 . S
H1411 N1398 0.985 . S
C1412 C1413 1.363 . S
C1412 C1418 1.379 1_554 S
C1412 N1420 1.356 . S
C1413 C1412 1.363 . S
C1413 C1419 1.363 1_655 S
C1414 C1415 1.363 1_455 S
C1414 C1419 1.379 1_556 S
C1414 N1421 1.356 . S
C1415 C1414 1.363 1_655 S
C1415 C1418 1.363 . S
N1416 C1418 1.356 . S
N1416 H1428 0.984 . S
N1416 H1429 0.985 . S
N1417 C1419 1.356 . S
N1417 H1422 0.984 . S
N1417 H1423 0.985 . S
C1418 C1412 1.379 1_556 S
C1418 C1415 1.363 . S
C1418 N1416 1.356 . S
C1419 C1413 1.363 1_455 S
C1419 C1414 1.379 1_554 S
C1419 N1417 1.356 . S
N1420 C1412 1.356 . S
N1420 H1426 0.984 . S
N1420 H1427 0.984 . S
N1421 C1414 1.356 . S
N1421 H1424 0.984 . S
N1421 H1425 0.985 . S
H1422 N1417 0.984 . S
H1423 N1417 0.985 . S
H1424 N1421 0.984 . S
H1425 N1421 0.985 . S
H1426 N1420 0.984 . S
H1427 N1420 0.984 . S
H1428 N1416 0.984 . S
H1429 N1416 0.985 . S
C1430 C1431 1.363 . S
C1430 C1436 1.379 . S
C1430 N1438 1.356 . S
C1431 C1430 1.363 . S
C1431 C1437 1.363 1_565 S
C1432 C1433 1.363 1_545 S
C1432 C1437 1.379 . S
C1432 N1439 1.356 . S
C1433 C1432 1.363 1_565 S
C1433 C1436 1.363 . S
N1434 C1436 1.356 . S
N1434 H1446 0.984 . S
N1434 H1447 0.985 . S
N1435 C1437 1.356 . S
N1435 H1440 0.984 . S
N1435 H1441 0.985 . S
C1436 C1430 1.379 . S
C1436 C1433 1.363 . S
C1436 N1434 1.356 . S
C1437 C1431 1.363 1_545 S
C1437 C1432 1.379 . S
C1437 N1435 1.356 . S
N1438 C1430 1.356 . S
N1438 H1444 0.984 . S
N1438 H1445 0.984 . S
N1439 C1432 1.356 . S
N1439 H1442 0.984 . S
N1439 H1443 0.985 . S
H1440 N1435 0.984 . S
H1441 N1435 0.985 . S
H1442 N1439 0.984 . S
H1443 N1439 0.985 . S
H1444 N1438 0.984 . S
H1445 N1438 0.984 . S
H1446 N1434 0.984 . S
H1447 N1434 0.985 . S
C1448 C1449 1.363 . S
C1448 C1454 1.379 1_556 S
C1448 N1456 1.356 . S
C1449 C1448 1.363 . S
C1449 C1455 1.363 . S
C1450 C1451 1.363 . S
C1450 C1455 1.379 1_554 S
C1450 N1457 1.356 . S
C1451 C1450 1.363 . S
C1451 C1454 1.363 . S
N1452 C1454 1.356 . S
N1452 H1464 0.984 . S
N1452 H1465 0.985 . S
N1453 C1455 1.356 . S
N1453 H1458 0.984 . S
N1453 H1459 0.985 . S
C1454 C1448 1.379 1_554 S
C1454 C1451 1.363 . S
C1454 N1452 1.356 . S
C1455 C1449 1.363 . S
C1455 C1450 1.379 1_556 S
C1455 N1453 1.356 . S
N1456 C1448 1.356 . S
N1456 H1462 0.984 . S
N1456 H1463 0.984 . S
N1457 C1450 1.356 . S
N1457 H1460 0.984 . S
N1457 H1461 0.985 . S
H1458 N1453 0.984 . S
H1459 N1453 0.985 . S
H1460 N1457 0.984 . S
H1461 N1457 0.985 . S
H1462 N1456 0.984 . S
H1463 N1456 0.984 . S
H1464 N1452 0.984 . S
H1465 N1452 0.985 . S
C1466 C1467 1.363 . S
C1466 C1472 1.379 . S
C1466 N1474 1.356 . S
C1467 C1466 1.363 . S
C1467 C1473 1.363 . S
C1468 C1469 1.363 . S
C1468 C1473 1.379 . S
C1468 N1475 1.356 . S
C1469 C1468 1.363 . S
C1469 C1472 1.363 . S
N1470 C1472 1.356 . S
N1470 H1482 0.984 . S
N1470 H1483 0.985 . S
N1471 C1473 1.356 . S
N1471 H1476 0.984 . S
N1471 H1477 0.985 . S
C1472 C1466 1.379 . S
C1472 C1469 1.363 . S
C1472 N1470 1.356 . S
C1473 C1467 1.363 . S
C1473 C1468 1.379 . S
C1473 N1471 1.356 . S
N1474 C1466 1.356 . S
N1474 H1480 0.984 . S
N1474 H1481 0.984 . S
N1475 C1468 1.356 . S
N1475 H1478 0.984 . S
N1475 H1479 0.985 . S
H1476 N1471 0.984 . S
H1477 N1471 0.985 . S
H1478 N1475 0.984 . S
H1479 N1475 0.985 . S
H1480 N1474 0.984 . S
H1481 N1474 0.984 . S
H1482 N1470 0.984 . S
H1483 N1470 0.985 . S
C1484 C1485 1.363 . S
C1484 C1490 1.379 1_554 S
C1484 N1492 1.356 . S
C1485 C1484 1.363 . S
C1485 C1491 1.363 1_455 S
C1486 C1487 1.363 1_655 S
C1486 C1491 1.379 1_556 S
C1486 N1493 1.356 . S
C1487 C1486 1.363 1_455 S
C1487 C1490 1.363 . S
N1488 C1490 1.356 . S
N1488 H1500 0.984 . S
N1488 H1501 0.985 . S
N1489 C1491 1.356 . S
N1489 H1494 0.984 . S
N1489 H1495 0.985 . S
C1490 C1484 1.379 1_556 S
C1490 C1487 1.363 . S
C1490 N1488 1.356 . S
C1491 C1485 1.363 1_655 S
C1491 C1486 1.379 1_554 S
C1491 N1489 1.356 . S
N1492 C1484 1.356 . S
N1492 H1498 0.984 . S
N1492 H1499 0.984 . S
N1493 C1486 1.356 . S
N1493 H1496 0.984 . S
N1493 H1497 0.985 . S
H1494 N1489 0.984 . S
H1495 N1489 0.985 . S
H1496 N1493 0.984 . S
H1497 N1493 0.985 . S
H1498 N1492 0.984 . S
H1499 N1492 0.984 . S
H1500 N1488 0.984 . S
H1501 N1488 0.985 . S
C1502 C1503 1.363 . S
C1502 C1508 1.379 . S
C1502 N1510 1.356 . S
C1503 C1502 1.363 . S
C1503 C1509 1.363 1_545 S
C1504 C1505 1.363 1_565 S
C1504 C1509 1.379 . S
C1504 N1511 1.356 . S
C1505 C1504 1.363 1_545 S
C1505 C1508 1.363 . S
N1506 C1508 1.356 . S
N1506 H1518 0.984 . S
N1506 H1519 0.985 . S
N1507 C1509 1.356 . S
N1507 H1512 0.984 . S
N1507 H1513 0.985 . S
C1508 C1502 1.379 . S
C1508 C1505 1.363 . S
C1508 N1506 1.356 . S
C1509 C1503 1.363 1_565 S
C1509 C1504 1.379 . S
C1509 N1507 1.356 . S
N1510 C1502 1.356 . S
N1510 H1516 0.984 . S
N1510 H1517 0.984 . S
N1511 C1504 1.356 . S
N1511 H1514 0.984 . S
N1511 H1515 0.985 . S
H1512 N1507 0.984 . S
H1513 N1507 0.985 . S
H1514 N1511 0.984 . S
H1515 N1511 0.985 . S
H1516 N1510 0.984 . S
H1517 N1510 0.984 . S
H1518 N1506 0.984 . S
H1519 N1506 0.985 . S
C945 C5 1.493 . S
C947 C418 1.493 . S
C963 C64 1.493 . S
C965 C241 1.493 . S
C981 C123 1.493 . S
C983 C300 1.493 . S
C999 C182 1.493 . S
C1001 C359 1.493 . S
C1017 C477 1.493 . S
C1019 C890 1.493 . S
C1035 C713 1.493 . S
C1037 C536 1.493 . S
C1053 C595 1.493 . S
C1055 C772 1.493 . S
C1071 C654 1.493 . S
C1073 C831 1.493 . S
C1089 C52 1.592 . S
C1091 C564 1.589 . S
C1107 C111 1.592 . S
C1109 C623 1.589 . S
C1125 C682 1.589 . S
C1127 C170 1.592 . S
C1143 C229 1.592 . S
C1145 C505 1.589 . S
C1161 C288 1.592 . S
C1163 C918 1.589 . S
C1179 C741 1.589 . S
C1181 C347 1.592 . S
C1197 C800 1.589 . S
C1199 C406 1.592 . S
C1215 C859 1.589 . S
C1217 C465 1.592 . S
C1233 C92 1.589 . S
C1235 C524 1.592 . S
C1251 C151 1.589 . S
C1253 C583 1.592 . S
C1269 C642 1.592 . S
C1271 C210 1.589 . S
C1287 C33 1.589 . S
C1289 C701 1.592 . S
C1305 C760 1.592 . S
C1307 C446 1.589 . S
C1323 C819 1.592 . S
C1325 C269 1.589 . S
C1341 C328 1.589 . S
C1343 C878 1.592 . S
C1359 C387 1.589 . S
C1361 C937 1.592 . S
C1377 C3 1.656 . S
C1379 C239 1.656 . S
C1395 C298 1.656 . S
C1397 C62 1.656 . S
C1413 C121 1.656 . S
C1415 C357 1.656 . S
C1431 C416 1.656 . S
C1433 C180 1.656 . S
C1449 C475 1.656 . S
C1451 C711 1.656 . S
C1467 C770 1.656 . S
C1469 C534 1.656 . S
C1485 C829 1.656 . S
C1487 C593 1.656 . S
C1503 C888 1.656 . S
C1505 C652 1.656 . S
