# Generated by pormake.
# Topology gme, (4)-cn, num edge types: 1
# Building blocks:
#     Node 0, Type 0, BuildingBlock: NAHDIM_clean_sbu_0, # of connection points: 4
#     Node 1, Type 0, BuildingBlock: NAHDIM_clean_sbu_0, # of connection points: 4
#     Node 2, Type 0, BuildingBlock: NAHDIM_clean_sbu_0, # of connection points: 4
#     Node 3, Type 0, BuildingBlock: NAHDIM_clean_sbu_0, # of connection points: 4
#     Node 4, Type 0, BuildingBlock: NAHDIM_clean_sbu_0, # of connection points: 4
#     Node 5, Type 0, BuildingBlock: NAHDIM_clean_sbu_0, # of connection points: 4
#     Node 6, Type 0, BuildingBlock: NAHDIM_clean_sbu_0, # of connection points: 4
#     Node 7, Type 0, BuildingBlock: NAHDIM_clean_sbu_0, # of connection points: 4
#     Node 8, Type 0, BuildingBlock: NAHDIM_clean_sbu_0, # of connection points: 4
#     Node 9, Type 0, BuildingBlock: NAHDIM_clean_sbu_0, # of connection points: 4
#     Node 10, Type 0, BuildingBlock: NAHDIM_clean_sbu_0, # of connection points: 4
#     Node 11, Type 0, BuildingBlock: NAHDIM_clean_sbu_0, # of connection points: 4
#     Node 12, Type 0, BuildingBlock: NAHDIM_clean_sbu_0, # of connection points: 4
#     Node 13, Type 0, BuildingBlock: NAHDIM_clean_sbu_0, # of connection points: 4
#     Node 14, Type 0, BuildingBlock: NAHDIM_clean_sbu_0, # of connection points: 4
#     Node 15, Type 0, BuildingBlock: NAHDIM_clean_sbu_0, # of connection points: 4
#     Node 16, Type 0, BuildingBlock: NAHDIM_clean_sbu_0, # of connection points: 4
#     Node 17, Type 0, BuildingBlock: NAHDIM_clean_sbu_0, # of connection points: 4
#     Node 18, Type 0, BuildingBlock: NAHDIM_clean_sbu_0, # of connection points: 4
#     Node 19, Type 0, BuildingBlock: NAHDIM_clean_sbu_0, # of connection points: 4
#     Node 20, Type 0, BuildingBlock: NAHDIM_clean_sbu_0, # of connection points: 4
#     Node 21, Type 0, BuildingBlock: NAHDIM_clean_sbu_0, # of connection points: 4
#     Node 22, Type 0, BuildingBlock: NAHDIM_clean_sbu_0, # of connection points: 4
#     Node 23, Type 0, BuildingBlock: NAHDIM_clean_sbu_0, # of connection points: 4
#     Edge 24, Type (0, 0), BuildingBlock: MIFKUJ_clean_linker_0, # of connection points: 2
#     Edge 25, Type (0, 0), BuildingBlock: MIFKUJ_clean_linker_0, # of connection points: 2
#     Edge 26, Type (0, 0), BuildingBlock: MIFKUJ_clean_linker_0, # of connection points: 2
#     Edge 27, Type (0, 0), BuildingBlock: MIFKUJ_clean_linker_0, # of connection points: 2
#     Edge 28, Type (0, 0), BuildingBlock: MIFKUJ_clean_linker_0, # of connection points: 2
#     Edge 29, Type (0, 0), BuildingBlock: MIFKUJ_clean_linker_0, # of connection points: 2
#     Edge 30, Type (0, 0), BuildingBlock: MIFKUJ_clean_linker_0, # of connection points: 2
#     Edge 31, Type (0, 0), BuildingBlock: MIFKUJ_clean_linker_0, # of connection points: 2
#     Edge 32, Type (0, 0), BuildingBlock: MIFKUJ_clean_linker_0, # of connection points: 2
#     Edge 33, Type (0, 0), BuildingBlock: MIFKUJ_clean_linker_0, # of connection points: 2
#     Edge 34, Type (0, 0), BuildingBlock: MIFKUJ_clean_linker_0, # of connection points: 2
#     Edge 35, Type (0, 0), BuildingBlock: MIFKUJ_clean_linker_0, # of connection points: 2
#     Edge 36, Type (0, 0), BuildingBlock: MIFKUJ_clean_linker_0, # of connection points: 2
#     Edge 37, Type (0, 0), BuildingBlock: MIFKUJ_clean_linker_0, # of connection points: 2
#     Edge 38, Type (0, 0), BuildingBlock: MIFKUJ_clean_linker_0, # of connection points: 2
#     Edge 39, Type (0, 0), BuildingBlock: MIFKUJ_clean_linker_0, # of connection points: 2
#     Edge 40, Type (0, 0), BuildingBlock: MIFKUJ_clean_linker_0, # of connection points: 2
#     Edge 41, Type (0, 0), BuildingBlock: MIFKUJ_clean_linker_0, # of connection points: 2
#     Edge 42, Type (0, 0), BuildingBlock: MIFKUJ_clean_linker_0, # of connection points: 2
#     Edge 43, Type (0, 0), BuildingBlock: MIFKUJ_clean_linker_0, # of connection points: 2
#     Edge 44, Type (0, 0), BuildingBlock: MIFKUJ_clean_linker_0, # of connection points: 2
#     Edge 45, Type (0, 0), BuildingBlock: MIFKUJ_clean_linker_0, # of connection points: 2
#     Edge 46, Type (0, 0), BuildingBlock: MIFKUJ_clean_linker_0, # of connection points: 2
#     Edge 47, Type (0, 0), BuildingBlock: MIFKUJ_clean_linker_0, # of connection points: 2
#     Edge 48, Type (0, 0), BuildingBlock: MIFKUJ_clean_linker_0, # of connection points: 2
#     Edge 49, Type (0, 0), BuildingBlock: MIFKUJ_clean_linker_0, # of connection points: 2
#     Edge 50, Type (0, 0), BuildingBlock: MIFKUJ_clean_linker_0, # of connection points: 2
#     Edge 51, Type (0, 0), BuildingBlock: MIFKUJ_clean_linker_0, # of connection points: 2
#     Edge 52, Type (0, 0), BuildingBlock: MIFKUJ_clean_linker_0, # of connection points: 2
#     Edge 53, Type (0, 0), BuildingBlock: MIFKUJ_clean_linker_0, # of connection points: 2
#     Edge 54, Type (0, 0), BuildingBlock: MIFKUJ_clean_linker_0, # of connection points: 2
#     Edge 55, Type (0, 0), BuildingBlock: MIFKUJ_clean_linker_0, # of connection points: 2
#     Edge 56, Type (0, 0), BuildingBlock: MIFKUJ_clean_linker_0, # of connection points: 2
#     Edge 57, Type (0, 0), BuildingBlock: MIFKUJ_clean_linker_0, # of connection points: 2
#     Edge 58, Type (0, 0), BuildingBlock: MIFKUJ_clean_linker_0, # of connection points: 2
#     Edge 59, Type (0, 0), BuildingBlock: MIFKUJ_clean_linker_0, # of connection points: 2
#     Edge 60, Type (0, 0), BuildingBlock: MIFKUJ_clean_linker_0, # of connection points: 2
#     Edge 61, Type (0, 0), BuildingBlock: MIFKUJ_clean_linker_0, # of connection points: 2
#     Edge 62, Type (0, 0), BuildingBlock: MIFKUJ_clean_linker_0, # of connection points: 2
#     Edge 63, Type (0, 0), BuildingBlock: MIFKUJ_clean_linker_0, # of connection points: 2
#     Edge 64, Type (0, 0), BuildingBlock: MIFKUJ_clean_linker_0, # of connection points: 2
#     Edge 65, Type (0, 0), BuildingBlock: MIFKUJ_clean_linker_0, # of connection points: 2
#     Edge 66, Type (0, 0), BuildingBlock: MIFKUJ_clean_linker_0, # of connection points: 2
#     Edge 67, Type (0, 0), BuildingBlock: MIFKUJ_clean_linker_0, # of connection points: 2
#     Edge 68, Type (0, 0), BuildingBlock: MIFKUJ_clean_linker_0, # of connection points: 2
#     Edge 69, Type (0, 0), BuildingBlock: MIFKUJ_clean_linker_0, # of connection points: 2
#     Edge 70, Type (0, 0), BuildingBlock: MIFKUJ_clean_linker_0, # of connection points: 2
#     Edge 71, Type (0, 0), BuildingBlock: MIFKUJ_clean_linker_0, # of connection points: 2
# Relax obj value: 0.157
# Max RMSD: 0.150
# Mean RMSD: 0.150
data_MOF--net-gme--node1-NAHDIM_clean_sbu_0--edge1-MIFKUJ_clean_linker_0
_symmetry_space_group_name_H-M    P1
_symmetry_Int_Tables_number       1
_symmetry_cell_setting            triclinic
loop_
_symmetry_equiv_pos_as_xyz
'x, y, z'
_cell_length_a     80.190618
_cell_length_b     80.211121
_cell_length_c     65.686164
_cell_angle_alpha  90.026509
_cell_angle_beta   89.979792
_cell_angle_gamma 119.9937
loop_
_atom_site_label
_atom_site_type_symbol
_atom_site_fract_x
_atom_site_fract_y
_atom_site_fract_z
_atom_type_partial_charge
C0 C 0.39625 0.07655 0.08736 0.0
O1 O 0.39726 0.09338 0.08847 0.0
O2 O 0.43632 0.12084 0.09986 0.0
Zn3 Zn 0.43179 0.09544 0.1103 0.0
O4 O 0.45477 0.09222 0.10566 0.0
C5 C 0.41648 0.1007 0.14772 0.0
O6 O 0.40964 0.1089 0.13563 0.0
O7 O 0.4092 0.07422 0.0958 0.0
C8 C 0.47199 0.10594 0.10759 0.0
O9 O 0.47514 0.12314 0.11261 0.0
C10 C 0.44463 0.12866 0.08322 0.0
O11 O 0.45169 0.12025 0.07173 0.0
O12 O 0.42629 0.09375 0.14018 0.0
C13 C 0.34594 0.42616 0.57685 0.0
O14 O 0.3543 0.44498 0.57531 0.0
O15 O 0.31046 0.43658 0.60977 0.0
Zn16 Zn 0.33389 0.43415 0.61465 0.0
O17 O 0.35773 0.46023 0.6147 0.0
C18 C 0.3154 0.40803 0.64795 0.0
O19 O 0.30042 0.40109 0.63576 0.0
O20 O 0.33621 0.41795 0.59272 0.0
C21 C 0.35768 0.47579 0.61812 0.0
O22 O 0.34133 0.47516 0.6222 0.0
C23 C 0.30522 0.43865 0.59215 0.0
O24 O 0.31549 0.43946 0.57623 0.0
O25 O 0.33137 0.42198 0.64193 0.0
C26 C 0.9215 0.33134 0.06719 0.0
O27 O 0.90401 0.32647 0.06124 0.0
O28 O 0.88076 0.3149 0.09907 0.0
Zn29 Zn 0.90749 0.33587 0.10577 0.0
O30 O 0.90835 0.36141 0.10568 0.0
C31 C 0.90868 0.31296 0.13837 0.0
O32 O 0.89987 0.29918 0.12487 0.0
O33 O 0.92624 0.336 0.08564 0.0
C34 C 0.90647 0.36878 0.12205 0.0
O35 O 0.90451 0.35983 0.13939 0.0
C36 C 0.86712 0.31252 0.11074 0.0
O37 O 0.87087 0.32438 0.12609 0.0
O38 O 0.91387 0.33019 0.13344 0.0
C39 C 0.58547 0.92548 0.56497 0.0
O40 O 0.56767 0.91179 0.56157 0.0
O41 O 0.57655 0.8814 0.59567 0.0
Zn42 Zn 0.57723 0.90604 0.60271 0.0
O43 O 0.55042 0.90193 0.60291 0.0
C44 C 0.60003 0.90983 0.6383 0.0
O45 O 0.60572 0.89988 0.62734 0.0
O46 O 0.59311 0.92615 0.5821 0.0
C47 C 0.53748 0.889 0.61407 0.0
O48 O 0.54183 0.87823 0.62542 0.0
C49 C 0.56395 0.86858 0.58412 0.0
O50 O 0.5505 0.87129 0.57608 0.0
O51 O 0.58834 0.91443 0.63064 0.0
C52 C 0.67337 0.60517 0.07329 0.0
O53 O 0.69137 0.60921 0.07218 0.0
O54 O 0.69147 0.57496 0.08957 0.0
Zn55 Zn 0.6688 0.57542 0.10172 0.0
O56 O 0.64616 0.54865 0.10188 0.0
C57 C 0.69059 0.59158 0.13895 0.0
O58 O 0.70517 0.59318 0.12826 0.0
O59 O 0.66176 0.59179 0.08502 0.0
C60 C 0.64611 0.53537 0.11246 0.0
O61 O 0.66128 0.53927 0.12353 0.0
C62 C 0.68959 0.56325 0.07551 0.0
O63 O 0.67233 0.55123 0.06845 0.0
O64 O 0.6742 0.58489 0.13055 0.0
C65 C 0.06719 0.67335 0.57699 0.0
O66 O 0.08216 0.69078 0.57573 0.0
O67 O 0.11257 0.69145 0.60114 0.0
Zn68 Zn 0.08837 0.66793 0.60989 0.0
O69 O 0.09304 0.6456 0.61008 0.0
C70 C 0.0853 0.68841 0.64436 0.0
O71 O 0.09296 0.70305 0.63171 0.0
O72 O 0.06684 0.66188 0.59052 0.0
C73 C 0.07884 0.62856 0.61111 0.0
O74 O 0.06134 0.62596 0.61242 0.0
C75 C 0.1238 0.69085 0.5879 0.0
O76 O 0.11926 0.67437 0.57918 0.0
O77 O 0.08163 0.67192 0.63814 0.0
C78 C 0.92302 0.57792 0.42434 0.0
O79 O 0.9105 0.55981 0.42822 0.0
O80 O 0.87521 0.56603 0.40167 0.0
Zn81 Zn 0.89936 0.56845 0.38963 0.0
O82 O 0.89705 0.5424 0.38777 0.0
C83 C 0.88978 0.57885 0.35127 0.0
O84 O 0.87269 0.57139 0.35976 0.0
O85 O 0.92149 0.58534 0.40788 0.0
C86 C 0.8829 0.52843 0.37885 0.0
O87 O 0.86949 0.53111 0.37063 0.0
C88 C 0.86449 0.55291 0.41417 0.0
O89 O 0.86916 0.54008 0.41985 0.0
O90 O 0.90363 0.57957 0.36138 0.0
C91 C 0.32938 0.93778 0.93583 0.0
O92 O 0.33163 0.92304 0.94025 0.0
O93 O 0.3077 0.89655 0.90205 0.0
Zn94 Zn 0.32839 0.92369 0.89615 0.0
O95 O 0.35396 0.9248 0.89578 0.0
C96 C 0.307 0.92264 0.8607 0.0
O97 O 0.29236 0.91052 0.87192 0.0
O98 O 0.3278 0.9413 0.91732 0.0
C99 C 0.35688 0.91593 0.88142 0.0
O100 O 0.34335 0.90693 0.8677 0.0
C101 C 0.31059 0.88389 0.91034 0.0
O102 O 0.32806 0.8885 0.91611 0.0
O103 O 0.32381 0.93087 0.86832 0.0
C104 C 0.3838 0.32493 0.4213 0.0
O105 O 0.37956 0.30698 0.4238 0.0
O106 O 0.41114 0.30372 0.40677 0.0
Zn107 Zn 0.41168 0.32613 0.3926 0.0
O108 O 0.43914 0.34788 0.39078 0.0
C109 C 0.4079 0.30877 0.35455 0.0
O110 O 0.4202 0.30493 0.36362 0.0
O111 O 0.39653 0.33539 0.40835 0.0
C112 C 0.4465 0.35747 0.37459 0.0
O113 O 0.43592 0.3533 0.35807 0.0
C114 C 0.42453 0.30544 0.41845 0.0
O115 O 0.43919 0.32265 0.42221 0.0
O116 O 0.40124 0.31781 0.36438 0.0
C117 C 0.0681 0.39448 0.91671 0.0
O118 O 0.07798 0.38646 0.91033 0.0
O119 O 0.11553 0.42499 0.89356 0.0
Zn120 Zn 0.09089 0.42462 0.88755 0.0
O121 O 0.09552 0.45158 0.88665 0.0
C122 C 0.08411 0.39962 0.8531 0.0
O123 O 0.09455 0.3942 0.86354 0.0
O124 O 0.07141 0.4104 0.90913 0.0
C125 C 0.10734 0.46408 0.87429 0.0
O126 O 0.11703 0.45935 0.86171 0.0
C127 C 0.12805 0.4371 0.90571 0.0
O128 O 0.12469 0.44965 0.91496 0.0
O129 O 0.08062 0.41218 0.86053 0.0
C130 C 0.6737 0.07545 0.41695 0.0
O131 O 0.6916 0.08966 0.41751 0.0
O132 O 0.69161 0.12262 0.39817 0.0
Zn133 Zn 0.66804 0.09937 0.38775 0.0
O134 O 0.64569 0.10393 0.38878 0.0
C135 C 0.68882 0.09838 0.35238 0.0
O136 O 0.70373 0.10694 0.36462 0.0
O137 O 0.66169 0.07661 0.40529 0.0
C138 C 0.64465 0.11636 0.37772 0.0
O139 O 0.65873 0.12677 0.36501 0.0
C140 C 0.69142 0.13156 0.41405 0.0
O141 O 0.6752 0.12557 0.42403 0.0
O142 O 0.67219 0.09381 0.35903 0.0
C143 C 0.57731 0.66395 0.9323 0.0
O144 O 0.55889 0.65685 0.93599 0.0
O145 O 0.56418 0.69853 0.90383 0.0
Zn146 Zn 0.56643 0.6755 0.89628 0.0
O147 O 0.54065 0.65134 0.89743 0.0
C148 C 0.57453 0.68984 0.85541 0.0
O149 O 0.56568 0.69895 0.8617 0.0
O150 O 0.58431 0.67296 0.91575 0.0
C151 C 0.52585 0.64934 0.8882 0.0
O152 O 0.5271 0.66373 0.87745 0.0
C153 C 0.55596 0.70031 0.91955 0.0
O154 O 0.54792 0.68612 0.93271 0.0
O155 O 0.57675 0.67887 0.86771 0.0
C156 C 0.59948 0.9296 0.91465 0.0
O157 O 0.59983 0.91347 0.91288 0.0
O158 O 0.56282 0.88538 0.89463 0.0
Zn159 Zn 0.56718 0.91137 0.88681 0.0
O160 O 0.54247 0.91185 0.8887 0.0
C161 C 0.58942 0.91244 0.85239 0.0
O162 O 0.59584 0.90461 0.86551 0.0
O163 O 0.58688 0.93166 0.90504 0.0
C164 C 0.52917 0.90276 0.87576 0.0
O165 O 0.53178 0.89292 0.86135 0.0
C166 C 0.55659 0.87751 0.91186 0.0
O167 O 0.55217 0.88648 0.92572 0.0
O168 O 0.57695 0.91681 0.85813 0.0
C169 C 0.67459 0.59006 0.42116 0.0
O170 O 0.69209 0.59265 0.42008 0.0
O171 O 0.68835 0.55811 0.40151 0.0
Zn172 Zn 0.6658 0.56007 0.39163 0.0
O173 O 0.64202 0.53384 0.3913 0.0
C174 C 0.68759 0.57988 0.35541 0.0
O175 O 0.70252 0.58226 0.36601 0.0
O176 O 0.6613 0.57711 0.41033 0.0
C177 C 0.63521 0.52457 0.37482 0.0
O178 O 0.64411 0.53209 0.35758 0.0
C179 C 0.68719 0.54642 0.41522 0.0
O180 O 0.67037 0.53453 0.42332 0.0
O181 O 0.67096 0.57127 0.36345 0.0
C182 C 0.08435 0.66124 0.92963 0.0
O183 O 0.09701 0.65563 0.93257 0.0
O184 O 0.12957 0.69677 0.89876 0.0
Zn185 Zn 0.10442 0.67336 0.89207 0.0
O186 O 0.10713 0.64982 0.89111 0.0
C187 C 0.09973 0.69335 0.85798 0.0
O188 O 0.1093 0.70852 0.86969 0.0
O189 O 0.08478 0.66963 0.91308 0.0
C190 C 0.11805 0.64808 0.87834 0.0
O191 O 0.1282 0.66222 0.8656 0.0
C192 C 0.14344 0.69676 0.90807 0.0
O193 O 0.1417 0.68039 0.91427 0.0
O194 O 0.09578 0.67688 0.86458 0.0
C195 C 0.40078 0.0764 0.43369 0.0
O196 O 0.39916 0.0915 0.43808 0.0
O197 O 0.42584 0.12342 0.41431 0.0
Zn198 Zn 0.42777 0.10128 0.403 0.0
O199 O 0.45516 0.10707 0.40331 0.0
C200 C 0.41082 0.10483 0.3652 0.0
O201 O 0.40704 0.11651 0.37566 0.0
O202 O 0.41186 0.0774 0.41933 0.0
C203 C 0.46726 0.11855 0.39041 0.0
O204 O 0.46183 0.12719 0.3772 0.0
C205 C 0.43863 0.13671 0.42527 0.0
O206 O 0.45437 0.13633 0.42991 0.0
O207 O 0.41896 0.09666 0.37396 0.0
C208 C 0.33451 0.40794 0.93555 0.0
O209 O 0.33477 0.42343 0.94248 0.0
O210 O 0.30699 0.42398 0.90309 0.0
Zn211 Zn 0.33106 0.42304 0.89736 0.0
O212 O 0.35422 0.44949 0.89966 0.0
C213 C 0.31395 0.39992 0.86184 0.0
O214 O 0.29891 0.39127 0.87389 0.0
O215 O 0.33308 0.40476 0.91652 0.0
C216 C 0.355 0.46283 0.88855 0.0
O217 O 0.34059 0.4589 0.87622 0.0
C218 C 0.30628 0.43652 0.9143 0.0
O219 O 0.32201 0.4497 0.9233 0.0
O220 O 0.32953 0.41379 0.86875 0.0
C221 C 0.92288 0.31938 0.41461 0.0
O222 O 0.90839 0.30164 0.41556 0.0
O223 O 0.87535 0.30276 0.39702 0.0
Zn224 Zn 0.89892 0.32558 0.38595 0.0
O225 O 0.89565 0.34875 0.3861 0.0
C226 C 0.89931 0.30379 0.35103 0.0
O227 O 0.89118 0.28907 0.36355 0.0
O228 O 0.92177 0.33147 0.40304 0.0
C229 C 0.88096 0.34854 0.37858 0.0
O230 O 0.86721 0.33254 0.37056 0.0
C231 C 0.86665 0.30363 0.4128 0.0
O232 O 0.87314 0.32014 0.42232 0.0
O233 O 0.90374 0.32046 0.3574 0.0
C234 C 0.06817 0.41183 0.5654 0.0
O235 O 0.07877 0.43063 0.56376 0.0
O236 O 0.11294 0.4246 0.60108 0.0
Zn237 Zn 0.08614 0.42032 0.6042 0.0
O238 O 0.08636 0.44552 0.60425 0.0
C239 C 0.07952 0.39556 0.63883 0.0
O240 O 0.09025 0.39036 0.62857 0.0
O241 O 0.06898 0.40374 0.58168 0.0
C242 C 0.1015 0.46195 0.60326 0.0
O243 O 0.11839 0.46309 0.60215 0.0
C244 C 0.12091 0.42576 0.58401 0.0
O245 O 0.11143 0.42411 0.56715 0.0
O246 O 0.07562 0.40772 0.63109 0.0
C247 C 0.67339 0.07405 0.06335 0.0
O248 O 0.67182 0.08916 0.05879 0.0
O249 O 0.69607 0.11458 0.09958 0.0
Zn250 Zn 0.67375 0.08795 0.10292 0.0
O251 O 0.64965 0.08942 0.09992 0.0
C252 C 0.69098 0.08234 0.13821 0.0
O253 O 0.70635 0.09065 0.12658 0.0
O254 O 0.67464 0.07043 0.08191 0.0
C255 C 0.63299 0.07464 0.09874 0.0
O256 O 0.63121 0.05745 0.09932 0.0
C257 C 0.69757 0.12703 0.11251 0.0
O258 O 0.68459 0.12184 0.12699 0.0
O259 O 0.67488 0.07894 0.13099 0.0
C260 C 0.59222 0.65797 0.56684 0.0
O261 O 0.57461 0.6537 0.56207 0.0
O262 O 0.58183 0.69443 0.5901 0.0
Zn263 Zn 0.582 0.67134 0.60149 0.0
O264 O 0.55521 0.64846 0.60172 0.0
C265 C 0.58939 0.68913 0.64066 0.0
O266 O 0.58188 0.69852 0.63176 0.0
O267 O 0.59906 0.66574 0.58397 0.0
C268 C 0.54102 0.64972 0.60846 0.0
O269 O 0.54388 0.66636 0.61523 0.0
C270 C 0.56996 0.6941 0.57707 0.0
O271 O 0.55667 0.67756 0.56956 0.0
O272 O 0.59147 0.67681 0.63045 0.0
C273 C 0.92091 0.58451 0.06198 0.0
O274 O 0.90711 0.56699 0.05763 0.0
O275 O 0.87398 0.57343 0.08554 0.0
Zn276 Zn 0.89813 0.5756 0.09714 0.0
O277 O 0.89606 0.5496 0.09878 0.0
C278 C 0.88941 0.58674 0.13559 0.0
O279 O 0.87231 0.57978 0.12728 0.0
O280 O 0.92026 0.59204 0.07876 0.0
C281 C 0.88952 0.53869 0.11425 0.0
O282 O 0.88318 0.54415 0.12988 0.0
C283 C 0.86169 0.5592 0.07514 0.0
O284 O 0.86463 0.54481 0.07129 0.0
O285 O 0.90295 0.58696 0.1253 0.0
C286 C 0.34092 0.91894 0.57177 0.0
O287 O 0.34312 0.90428 0.56687 0.0
O288 O 0.30821 0.87501 0.6008 0.0
Zn289 Zn 0.33178 0.89936 0.60938 0.0
O290 O 0.355 0.89611 0.609 0.0
C291 C 0.31478 0.89377 0.64903 0.0
O292 O 0.30406 0.87619 0.64207 0.0
O293 O 0.33597 0.92019 0.58982 0.0
C294 C 0.35593 0.88317 0.61925 0.0
O295 O 0.34117 0.87135 0.63052 0.0
C296 C 0.30778 0.86179 0.58977 0.0
O297 O 0.32392 0.86368 0.58257 0.0
O298 O 0.32782 0.90641 0.63769 0.0
C299 C 0.40315 0.31811 0.06997 0.0
O300 O 0.40307 0.30183 0.06744 0.0
O301 O 0.43418 0.30319 0.09086 0.0
Zn302 Zn 0.43301 0.32644 0.09995 0.0
O303 O 0.45918 0.3499 0.09792 0.0
C304 C 0.41539 0.30724 0.13792 0.0
O305 O 0.41065 0.29147 0.12755 0.0
O306 O 0.41455 0.33031 0.08284 0.0
C307 C 0.47314 0.35104 0.10819 0.0
O308 O 0.47029 0.33647 0.11973 0.0
C309 C 0.44464 0.30343 0.07619 0.0
O310 O 0.45532 0.31957 0.06627 0.0
O311 O 0.42468 0.32347 0.12914 0.0
H312 H 0.41772 0.08228 0.33949 0.0
H313 H 0.41574 0.08125 0.30245 0.0
H314 H 0.39476 0.12136 0.30334 0.0
H315 H 0.39663 0.12249 0.34062 0.0
H316 H 0.37605 0.09089 0.27424 0.0
H317 H 0.43977 0.139 0.29444 0.0
H318 H 0.46995 0.15128 0.31391 0.0
H319 H 0.48078 0.10935 0.28559 0.0
H320 H 0.45048 0.09661 0.26619 0.0
H321 H 0.3992 0.11712 0.16937 0.0
H322 H 0.39568 0.11739 0.20635 0.0
H323 H 0.42318 0.08321 0.21322 0.0
H324 H 0.42706 0.08317 0.1764 0.0
H325 H 0.43823 0.1128 0.23867 0.0
H326 H 0.37434 0.0638 0.21944 0.0
H327 H 0.34363 0.05034 0.20077 0.0
H328 H 0.33281 0.09298 0.22726 0.0
H329 H 0.36361 0.10686 0.24589 0.0
C330 C 0.41246 0.09073 0.33189 0.0
C331 C 0.40753 0.10263 0.34299 0.0
C332 C 0.41135 0.09012 0.31071 0.0
C333 C 0.40536 0.10143 0.30023 0.0
C334 C 0.39946 0.11257 0.31123 0.0
C335 C 0.4006 0.11323 0.33249 0.0
C336 C 0.40657 0.1025 0.27778 0.0
C337 C 0.38965 0.09595 0.26638 0.0
C338 C 0.42432 0.10883 0.26768 0.0
C339 C 0.44277 0.11674 0.27899 0.0
C340 C 0.44852 0.13232 0.29246 0.0
C341 C 0.46566 0.13937 0.30348 0.0
C342 C 0.47725 0.13107 0.30103 0.0
C343 C 0.47178 0.11575 0.28749 0.0
C344 C 0.45463 0.10862 0.27646 0.0
C345 C 0.40439 0.10957 0.17876 0.0
C346 C 0.41345 0.10016 0.16996 0.0
C347 C 0.4023 0.10967 0.19988 0.0
C348 C 0.40906 0.10021 0.21252 0.0
C349 C 0.4179 0.09064 0.20374 0.0
C350 C 0.42006 0.09059 0.18268 0.0
C351 C 0.40762 0.10082 0.23497 0.0
C352 C 0.42459 0.10781 0.24642 0.0
C353 C 0.38991 0.09483 0.24506 0.0
C354 C 0.37138 0.0865 0.23388 0.0
C355 C 0.3655 0.07041 0.22115 0.0
C356 C 0.34805 0.06268 0.2106 0.0
C357 C 0.3363 0.07083 0.21278 0.0
C358 C 0.34194 0.0867 0.22556 0.0
C359 C 0.35938 0.09449 0.23613 0.0
H360 H 0.3228 0.06483 0.2046 0.0
H361 H 0.4905 0.13653 0.30959 0.0
H362 H 0.34373 0.41885 0.67643 0.0
H363 H 0.34008 0.40963 0.71217 0.0
H364 H 0.27909 0.37197 0.70327 0.0
H365 H 0.28258 0.38133 0.66736 0.0
H366 H 0.28602 0.39513 0.73521 0.0
H367 H 0.30796 0.35309 0.71333 0.0
H368 H 0.32857 0.34319 0.69529 0.0
H369 H 0.37724 0.38299 0.73089 0.0
H370 H 0.357 0.39335 0.74895 0.0
H371 H 0.28185 0.37387 0.84094 0.0
H372 H 0.27896 0.3677 0.80424 0.0
H373 H 0.33955 0.40818 0.79689 0.0
H374 H 0.34262 0.41429 0.83345 0.0
H375 H 0.32769 0.3763 0.77286 0.0
H376 H 0.3066 0.422 0.78964 0.0
H377 H 0.28616 0.43232 0.80738 0.0
H378 H 0.23566 0.38516 0.7808 0.0
H379 H 0.25581 0.37441 0.76312 0.0
C380 C 0.32956 0.40841 0.68196 0.0
C381 C 0.31342 0.4009 0.66907 0.0
C382 C 0.32751 0.40305 0.7024 0.0
C383 C 0.30933 0.38996 0.71035 0.0
C384 C 0.29325 0.38203 0.69741 0.0
C385 C 0.29529 0.38738 0.6769 0.0
C386 C 0.30707 0.38602 0.73251 0.0
C387 C 0.29476 0.39052 0.74339 0.0
C388 C 0.31868 0.38028 0.74321 0.0
C389 C 0.33096 0.37407 0.73243 0.0
C390 C 0.32309 0.35984 0.71722 0.0
C391 C 0.33471 0.35412 0.707 0.0
C392 C 0.35421 0.36247 0.71193 0.0
C393 C 0.36213 0.37653 0.7271 0.0
C394 C 0.35058 0.38231 0.73736 0.0
C395 C 0.2946 0.38127 0.83154 0.0
C396 C 0.31243 0.39472 0.84006 0.0
C397 C 0.29291 0.37775 0.81059 0.0
C398 C 0.309 0.38764 0.79786 0.0
C399 C 0.32696 0.40039 0.80646 0.0
C400 C 0.32866 0.40393 0.82735 0.0
C401 C 0.30708 0.38592 0.77544 0.0
C402 C 0.31861 0.38042 0.76457 0.0
C403 C 0.29476 0.39074 0.76472 0.0
C404 C 0.28268 0.39727 0.77527 0.0
C405 C 0.29113 0.41375 0.78772 0.0
C406 C 0.2796 0.41969 0.79774 0.0
C407 C 0.25962 0.40936 0.79527 0.0
C408 C 0.25113 0.39312 0.78273 0.0
C409 C 0.2626 0.38709 0.77271 0.0
H410 H 0.25071 0.41398 0.80301 0.0
H411 H 0.36318 0.35803 0.704 0.0
H412 H 0.92783 0.33817 0.16912 0.0
H413 H 0.92901 0.33075 0.20484 0.0
H414 H 0.89595 0.26999 0.19154 0.0
H415 H 0.89446 0.27733 0.15563 0.0
H416 H 0.88095 0.27923 0.22276 0.0
H417 H 0.94295 0.28994 0.20612 0.0
H418 H 0.97537 0.30639 0.19084 0.0
H419 H 0.99113 0.35592 0.22837 0.0
H420 H 0.95872 0.3399 0.24368 0.0
H421 H 0.88746 0.26984 0.33063 0.0
H422 H 0.89165 0.26576 0.29433 0.0
H423 H 0.92292 0.32743 0.28669 0.0
H424 H 0.91893 0.33165 0.32274 0.0
H425 H 0.93962 0.31 0.2658 0.0
H426 H 0.87554 0.30151 0.27603 0.0
H427 H 0.84281 0.28561 0.29061 0.0
H428 H 0.83116 0.23178 0.26439 0.0
H429 H 0.86394 0.24734 0.24989 0.0
C430 C 0.92102 0.32321 0.1737 0.0
C431 C 0.91102 0.30834 0.15956 0.0
C432 C 0.92184 0.31898 0.19412 0.0
C433 C 0.91278 0.2998 0.20081 0.0
C434 C 0.90314 0.28488 0.18665 0.0
C435 C 0.90234 0.28911 0.16616 0.0
C436 C 0.91197 0.29566 0.22286 0.0
C437 C 0.89381 0.28549 0.23213 0.0
C438 C 0.92874 0.304 0.23508 0.0
C439 C 0.94834 0.31372 0.226 0.0
C440 C 0.95328 0.30439 0.21103 0.0
C441 C 0.97167 0.31363 0.20237 0.0
C442 C 0.98529 0.3322 0.20862 0.0
C443 C 0.98056 0.34154 0.22356 0.0
C444 C 0.96219 0.33236 0.23226 0.0
C445 C 0.89538 0.28252 0.32124 0.0
C446 C 0.90273 0.30107 0.32951 0.0
C447 C 0.89774 0.28015 0.30053 0.0
C448 C 0.9075 0.2963 0.28785 0.0
C449 C 0.9154 0.31479 0.29624 0.0
C450 C 0.91299 0.31716 0.31684 0.0
C451 C 0.90863 0.29425 0.2656 0.0
C452 C 0.92683 0.30325 0.25634 0.0
C453 C 0.89191 0.28484 0.25336 0.0
C454 C 0.87226 0.27551 0.26214 0.0
C455 C 0.86606 0.28625 0.27355 0.0
C456 C 0.84749 0.27731 0.28176 0.0
C457 C 0.83494 0.25768 0.2785 0.0
C458 C 0.84092 0.24697 0.26696 0.0
C459 C 0.85948 0.25583 0.25875 0.0
H460 H 0.82057 0.25079 0.28486 0.0
H461 H -0.00048 0.33933 0.20189 0.0
H462 H 0.59182 0.93116 0.66446 0.0
H463 H 0.59744 0.93484 0.70104 0.0
H464 H 0.62608 0.90148 0.69802 0.0
H465 H 0.62031 0.89753 0.66127 0.0
H466 H 0.59869 0.88805 0.72668 0.0
H467 H 0.65164 0.94906 0.70959 0.0
H468 H 0.66897 0.98061 0.69252 0.0
H469 H 0.63269 0.99834 0.72226 0.0
H470 H 0.61494 0.96679 0.73929 0.0
H471 H 0.61222 0.90048 0.83395 0.0
H472 H 0.62081 0.90311 0.79787 0.0
H473 H 0.58965 0.93308 0.78635 0.0
H474 H 0.58104 0.93059 0.82233 0.0
H475 H 0.62442 0.94904 0.76559 0.0
H476 H 0.56849 0.88618 0.77754 0.0
H477 H 0.55067 0.85446 0.79422 0.0
H478 H 0.59296 0.84037 0.77358 0.0
H479 H 0.61118 0.87215 0.75701 0.0
C480 C 0.59957 0.92483 0.67148 0.0
C481 C 0.60551 0.91395 0.65998 0.0
C482 C 0.60289 0.92707 0.6924 0.0
C483 C 0.61232 0.91856 0.70223 0.0
C484 C 0.61883 0.9082 0.6907 0.0
C485 C 0.61555 0.90599 0.66971 0.0
C486 C 0.61361 0.91902 0.72473 0.0
C487 C 0.60478 0.90142 0.7352 0.0
C488 C 0.62124 0.93644 0.73582 0.0
C489 C 0.63188 0.95549 0.72563 0.0
C490 C 0.64726 0.95963 0.71238 0.0
C491 C 0.65717 0.97753 0.70273 0.0
C492 C 0.65191 0.99146 0.70628 0.0
C493 C 0.63674 0.98753 0.71953 0.0
C494 C 0.62677 0.96965 0.72921 0.0
C495 C 0.60735 0.9078 0.82377 0.0
C496 C 0.59581 0.91519 0.83095 0.0
C497 C 0.61227 0.90927 0.80318 0.0
C498 C 0.60574 0.91816 0.78947 0.0
C499 C 0.59485 0.9262 0.79673 0.0
C500 C 0.58985 0.92466 0.81727 0.0
C501 C 0.60915 0.9181 0.76735 0.0
C502 C 0.61878 0.93574 0.75702 0.0
C503 C 0.60227 0.90072 0.75635 0.0
C504 C 0.59132 0.88162 0.76627 0.0
C505 C 0.57408 0.87639 0.77672 0.0
C506 C 0.56389 0.85839 0.78612 0.0
C507 C 0.57072 0.84543 0.78502 0.0
C508 C 0.58772 0.85044 0.77446 0.0
C509 C 0.59798 0.86844 0.76506 0.0
H510 H 0.56281 0.8315 0.7923 0.0
H511 H 0.65961 0.00531 0.6988 0.0
H512 H 0.71985 0.59366 0.3316 0.0
H513 H 0.72223 0.59989 0.29497 0.0
H514 H 0.66266 0.58537 0.29372 0.0
H515 H 0.66006 0.57877 0.33017 0.0
H516 H 0.66968 0.56623 0.26537 0.0
H517 H 0.69968 0.63204 0.2876 0.0
H518 H 0.72312 0.66087 0.30652 0.0
H519 H 0.76967 0.66038 0.27473 0.0
H520 H 0.7465 0.63137 0.25581 0.0
H521 H 0.66358 0.59067 0.1649 0.0
H522 H 0.66532 0.5931 0.20193 0.0
H523 H 0.72349 0.6034 0.2003 0.0
H524 H 0.72199 0.60121 0.16309 0.0
H525 H 0.7182 0.62539 0.22989 0.0
H526 H 0.68848 0.55938 0.20849 0.0
H527 H 0.66523 0.53064 0.1893 0.0
H528 H 0.61834 0.53147 0.21992 0.0
H529 H 0.64132 0.56042 0.23907 0.0
C530 C 0.70733 0.59203 0.32357 0.0
C531 C 0.68973 0.5856 0.33376 0.0
C532 C 0.70874 0.59569 0.30265 0.0
C533 C 0.69263 0.59317 0.29163 0.0
C534 C 0.67524 0.58736 0.30192 0.0
C535 C 0.6738 0.58361 0.32277 0.0
C536 C 0.6934 0.59514 0.26918 0.0
C537 C 0.6801 0.5793 0.25766 0.0
C538 C 0.7074 0.61196 0.25909 0.0
C539 C 0.72136 0.62941 0.27043 0.0
C540 C 0.71492 0.63798 0.28477 0.0
C541 C 0.72816 0.65438 0.29547 0.0
C542 C 0.74788 0.66242 0.29187 0.0
C543 C 0.75439 0.65412 0.27752 0.0
C544 C 0.74121 0.63771 0.26679 0.0
C545 C 0.67685 0.59371 0.17235 0.0
C546 C 0.69256 0.59547 0.16107 0.0
C547 C 0.67781 0.5951 0.19352 0.0
C548 C 0.69441 0.59811 0.20382 0.0
C549 C 0.71053 0.60101 0.19259 0.0
C550 C 0.70961 0.59968 0.17135 0.0
C551 C 0.69429 0.59662 0.22627 0.0
C552 C 0.70775 0.61242 0.23771 0.0
C553 C 0.68047 0.57974 0.23637 0.0
C554 C 0.66662 0.56218 0.22507 0.0
C555 C 0.67321 0.55351 0.21103 0.0
C556 C 0.66008 0.53718 0.20017 0.0
C557 C 0.64032 0.52926 0.20335 0.0
C558 C 0.63365 0.53763 0.21745 0.0
C559 C 0.64672 0.554 0.22832 0.0
H560 H 0.63018 0.51662 0.19492 0.0
H561 H 0.7581 0.67512 0.30017 0.0
H562 H 0.0961 0.72245 0.66404 0.0
H563 H 0.09504 0.72735 0.70071 0.0
H564 H 0.06811 0.66609 0.71044 0.0
H565 H 0.0689 0.66103 0.67393 0.0
H566 H 0.05261 0.68237 0.73486 0.0
H567 H 0.1164 0.6949 0.71497 0.0
H568 H 0.14682 0.71175 0.69569 0.0
H569 H 0.15808 0.76574 0.7211 0.0
H570 H 0.12756 0.74922 0.74031 0.0
H571 H 0.07905 0.66481 0.83056 0.0
H572 H 0.07318 0.66828 0.79486 0.0
H573 H 0.10329 0.73006 0.80158 0.0
H574 H 0.10946 0.72672 0.83744 0.0
H575 H 0.11596 0.71938 0.76916 0.0
H576 H 0.05495 0.7058 0.794 0.0
H577 H 0.02483 0.68879 0.81371 0.0
H578 H 0.00824 0.63714 0.77961 0.0
H579 H 0.0384 0.65375 0.75988 0.0
C580 C 0.0897 0.71 0.67396 0.0
C581 C 0.08277 0.69136 0.66611 0.0
C582 C 0.08915 0.71284 0.6949 0.0
C583 C 0.08171 0.6971 0.70828 0.0
C584 C 0.07392 0.67843 0.70037 0.0
C585 C 0.07447 0.67558 0.67949 0.0
C586 C 0.08324 0.69994 0.73062 0.0
C587 C 0.06644 0.69044 0.74241 0.0
C588 C 0.10125 0.71097 0.74038 0.0
C589 C 0.11959 0.72087 0.72886 0.0
C590 C 0.12529 0.71038 0.71631 0.0
C591 C 0.14256 0.71987 0.70541 0.0
C592 C 0.15434 0.73981 0.70712 0.0
C593 C 0.14891 0.7503 0.71975 0.0
C594 C 0.13163 0.74089 0.73065 0.0
C595 C 0.08425 0.67914 0.82455 0.0
C596 C 0.09478 0.69549 0.83683 0.0
C597 C 0.08077 0.6811 0.80415 0.0
C598 C 0.08761 0.69943 0.79561 0.0
C599 C 0.09781 0.71579 0.80791 0.0
C600 C 0.10129 0.71384 0.82839 0.0
C601 C 0.08537 0.70133 0.77349 0.0
C602 C 0.10205 0.71169 0.7617 0.0
C603 C 0.06724 0.6911 0.76375 0.0
C604 C 0.04901 0.68102 0.77552 0.0
C605 C 0.04495 0.69078 0.79079 0.0
C606 C 0.02785 0.68121 0.80195 0.0
C607 C 0.01464 0.66189 0.79793 0.0
C608 C 0.01849 0.65211 0.78271 0.0
C609 C 0.03557 0.6616 0.7715 0.0
H610 H 0.00142 0.65451 0.8066 0.0
H611 H 0.16772 0.74714 0.69871 0.0
H612 H 0.9225 0.60033 0.15792 0.0
H613 H 0.92592 0.60481 0.19479 0.0
H614 H 0.8661 0.58885 0.1996 0.0
H615 H 0.86261 0.58464 0.16273 0.0
H616 H 0.88841 0.6177 0.22602 0.0
H617 H 0.87938 0.55574 0.20655 0.0
H618 H 0.88705 0.53393 0.18748 0.0
H619 H 0.94323 0.5607 0.21475 0.0
H620 H 0.93599 0.58291 0.23372 0.0
H621 H 0.86294 0.57836 0.32531 0.0
H622 H 0.86648 0.58542 0.28893 0.0
H623 H 0.92598 0.59993 0.29186 0.0
H624 H 0.92252 0.59264 0.32828 0.0
H625 H 0.90721 0.57502 0.26163 0.0
H626 H 0.91417 0.63483 0.28429 0.0
H627 H 0.90551 0.65595 0.30325 0.0
H628 H 0.85217 0.63242 0.27043 0.0
H629 H 0.86039 0.61095 0.25146 0.0
C630 C 0.91014 0.59806 0.16677 0.0
C631 C 0.89221 0.59188 0.15743 0.0
C632 C 0.91212 0.6006 0.18784 0.0
C633 C 0.89618 0.59685 0.19993 0.0
C634 C 0.87857 0.59177 0.19054 0.0
C635 C 0.87658 0.58929 0.16946 0.0
C636 C 0.89738 0.59666 0.22241 0.0
C637 C 0.89243 0.60832 0.23385 0.0
C638 C 0.90295 0.58464 0.23256 0.0
C639 C 0.90723 0.57113 0.22137 0.0
C640 C 0.89342 0.55707 0.20837 0.0
C641 C 0.89768 0.54462 0.19759 0.0
C642 C 0.91563 0.54596 0.19986 0.0
C643 C 0.92934 0.55971 0.21297 0.0
C644 C 0.92517 0.57223 0.22374 0.0
C645 C 0.87686 0.58327 0.31829 0.0
C646 C 0.89243 0.58486 0.32968 0.0
C647 C 0.87888 0.58741 0.2975 0.0
C648 C 0.89654 0.59335 0.28772 0.0
C649 C 0.91224 0.59539 0.29913 0.0
C650 C 0.91024 0.59125 0.31995 0.0
C651 C 0.89814 0.59601 0.26534 0.0
C652 C 0.90351 0.58468 0.25387 0.0
C653 C 0.89281 0.60823 0.25522 0.0
C654 C 0.88785 0.62117 0.26655 0.0
C655 C 0.90053 0.63405 0.28122 0.0
C656 C 0.89571 0.64611 0.29195 0.0
C657 C 0.87828 0.6455 0.28808 0.0
C658 C 0.86566 0.63287 0.27342 0.0
C659 C 0.87041 0.62077 0.26265 0.0
H660 H 0.87458 0.65484 0.2964 0.0
H661 H 0.91891 0.53632 0.1915 0.0
H662 H 0.27605 0.89866 0.83736 0.0
H663 H 0.27491 0.89666 0.80023 0.0
H664 H 0.33134 0.94707 0.79676 0.0
H665 H 0.33278 0.94907 0.83397 0.0
H666 H 0.30276 0.94291 0.7646 0.0
H667 H 0.33286 0.91004 0.79641 0.0
H668 H 0.33415 0.88783 0.82146 0.0
H669 H 0.28212 0.84114 0.79676 0.0
H670 H 0.28035 0.8632 0.77178 0.0
H671 H 0.33615 0.92778 0.66946 0.0
H672 H 0.33216 0.93494 0.70472 0.0
H673 H 0.28291 0.87795 0.71111 0.0
H674 H 0.28699 0.87057 0.67606 0.0
H675 H 0.30678 0.88595 0.74194 0.0
H676 H 0.27785 0.91794 0.70808 0.0
H677 H 0.27577 0.94008 0.68355 0.0
H678 H 0.32445 0.98803 0.71169 0.0
H679 H 0.32699 0.96614 0.73623 0.0
C680 C 0.28802 0.90963 0.82873 0.0
C681 C 0.30463 0.92387 0.83857 0.0
C682 C 0.28732 0.90846 0.80752 0.0
C683 C 0.30311 0.92163 0.79588 0.0
C684 C 0.31902 0.93682 0.80556 0.0
C685 C 0.31985 0.93786 0.82679 0.0
C686 C 0.30411 0.91793 0.77404 0.0
C687 C 0.3038 0.93058 0.75954 0.0
C688 C 0.30515 0.90166 0.76763 0.0
C689 C 0.30635 0.88831 0.7824 0.0
C690 C 0.32161 0.89508 0.79644 0.0
C691 C 0.32244 0.88251 0.81061 0.0
C692 C 0.3082 0.86309 0.81074 0.0
C693 C 0.29313 0.85619 0.79666 0.0
C694 C 0.2922 0.86872 0.7825 0.0
C695 C 0.32439 0.91682 0.67833 0.0
C696 C 0.31193 0.89858 0.66999 0.0
C697 C 0.32206 0.92097 0.69844 0.0
C698 C 0.30714 0.90703 0.71049 0.0
C699 C 0.29453 0.88892 0.70208 0.0
C700 C 0.29688 0.88473 0.68203 0.0
C701 C 0.30531 0.91087 0.7322 0.0
C702 C 0.30559 0.89825 0.74681 0.0
C703 C 0.30419 0.92715 0.73862 0.0
C704 C 0.30272 0.94036 0.72388 0.0
C705 C 0.28822 0.93318 0.70893 0.0
C706 C 0.28693 0.94569 0.69504 0.0
C707 C 0.3 0.96544 0.69602 0.0
C708 C 0.31435 0.97273 0.71093 0.0
C709 C 0.31571 0.96028 0.72485 0.0
H710 H 0.29898 0.97511 0.68526 0.0
H711 H 0.30886 0.85338 0.82172 0.0
H712 H 0.42443 0.29495 0.32832 0.0
H713 H 0.42154 0.29294 0.29132 0.0
H714 H 0.38006 0.31216 0.29378 0.0
H715 H 0.38293 0.31436 0.33096 0.0
H716 H 0.37171 0.28207 0.26407 0.0
H717 H 0.42201 0.34452 0.28485 0.0
H718 H 0.45094 0.36686 0.30436 0.0
H719 H 0.48327 0.34441 0.27462 0.0
H720 H 0.4544 0.32167 0.25519 0.0
H721 H 0.4208 0.33681 0.16275 0.0
H722 H 0.41524 0.33572 0.19937 0.0
H723 H 0.39489 0.27472 0.19953 0.0
H724 H 0.40005 0.27561 0.16276 0.0
H725 H 0.43226 0.32731 0.22831 0.0
H726 H 0.36273 0.25331 0.2383 0.0
H727 H 0.3329 0.23205 0.21944 0.0
H728 H 0.33753 0.28079 0.18728 0.0
H729 H 0.36723 0.30237 0.20614 0.0
C730 C 0.41445 0.29846 0.32108 0.0
C731 C 0.40408 0.30504 0.33255 0.0
C732 C 0.41282 0.29729 0.29993 0.0
C733 C 0.40073 0.30258 0.28991 0.0
C734 C 0.38946 0.30802 0.30133 0.0
C735 C 0.39119 0.30935 0.32252 0.0
C736 C 0.40136 0.30414 0.2675 0.0
C737 C 0.38489 0.29193 0.25616 0.0
C738 C 0.41849 0.31735 0.25736 0.0
C739 C 0.43599 0.33127 0.26871 0.0
C740 C 0.43525 0.34425 0.28258 0.0
C741 C 0.45164 0.35699 0.29362 0.0
C742 C 0.46892 0.35703 0.29077 0.0
C743 C 0.46986 0.34435 0.27683 0.0
C744 C 0.45349 0.33154 0.26579 0.0
C745 C 0.41496 0.32312 0.17052 0.0
C746 C 0.41092 0.3063 0.15986 0.0
C747 C 0.41182 0.32253 0.19146 0.0
C748 C 0.40456 0.30514 0.20217 0.0
C749 C 0.40021 0.28825 0.19153 0.0
C750 C 0.40326 0.2888 0.17053 0.0
C751 C 0.40266 0.30495 0.22462 0.0
C752 C 0.41898 0.31745 0.23606 0.0
C753 C 0.38528 0.29224 0.23478 0.0
C754 C 0.36731 0.27942 0.22351 0.0
C755 C 0.35734 0.2595 0.22726 0.0
C756 C 0.34046 0.24739 0.21656 0.0
C757 C 0.33336 0.25506 0.20213 0.0
C758 C 0.34309 0.27486 0.19841 0.0
C759 C 0.35996 0.28703 0.20908 0.0
H760 H 0.3203 0.24566 0.19385 0.0
H761 H 0.48159 0.3669 0.29934 0.0
H762 H 0.09131 0.37553 0.66293 0.0
H763 H 0.08637 0.37012 0.69962 0.0
H764 H 0.05067 0.39629 0.69964 0.0
H765 H 0.05572 0.40199 0.6631 0.0
H766 H 0.07953 0.41325 0.72619 0.0
H767 H 0.03172 0.34846 0.70976 0.0
H768 H 0.01881 0.31674 0.6933 0.0
H769 H 0.06062 0.30763 0.72452 0.0
H770 H 0.07397 0.33943 0.74096 0.0
H771 H 0.05873 0.40422 0.82955 0.0
H772 H 0.05246 0.39727 0.7933 0.0
H773 H 0.09004 0.37323 0.79251 0.0
H774 H 0.09611 0.37979 0.82897 0.0
H775 H 0.05873 0.35377 0.76655 0.0
H776 H 0.10808 0.41896 0.78048 0.0
H777 H 0.12172 0.45073 0.79701 0.0
H778 H 0.07785 0.45921 0.76975 0.0
H779 H 0.06377 0.42733 0.7533 0.0
C780 C 0.08209 0.37978 0.67067 0.0
C781 C 0.07412 0.38942 0.66017 0.0
C782 C 0.07921 0.37659 0.69163 0.0
C783 C 0.06816 0.38283 0.70234 0.0
C784 C 0.0593 0.39144 0.69166 0.0
C785 C 0.06222 0.39469 0.67077 0.0
C786 C 0.06773 0.38252 0.72487 0.0
C787 C 0.0746 0.40016 0.73499 0.0
C788 C 0.06195 0.36555 0.73631 0.0
C789 C 0.05396 0.34641 0.72645 0.0
C790 C 0.03828 0.33977 0.71298 0.0
C791 C 0.03085 0.32176 0.70368 0.0
C792 C 0.03892 0.3102 0.70782 0.0
C793 C 0.0544 0.31661 0.72131 0.0
C794 C 0.06188 0.33462 0.73064 0.0
C795 C 0.06542 0.39716 0.82176 0.0
C796 C 0.07819 0.39286 0.83202 0.0
C797 C 0.06179 0.39317 0.80106 0.0
C798 C 0.07108 0.38508 0.79019 0.0
C799 C 0.08278 0.37954 0.80065 0.0
C800 C 0.0863 0.38338 0.82145 0.0
C801 C 0.07025 0.38443 0.7677 0.0
C802 C 0.06339 0.36675 0.75765 0.0
C803 C 0.07616 0.40138 0.75619 0.0
C804 C 0.08476 0.42068 0.76584 0.0
C805 C 0.10127 0.42754 0.77812 0.0
C806 C 0.10908 0.44557 0.78746 0.0
C807 C 0.10063 0.45696 0.78447 0.0
C808 C 0.08437 0.45036 0.77208 0.0
C809 C 0.07647 0.43232 0.76274 0.0
H810 H 0.10669 0.47091 0.79173 0.0
H811 H 0.03315 0.29625 0.70061 0.0
H812 H 0.6607 0.07799 0.32445 0.0
H813 H 0.66471 0.07252 0.28871 0.0
H814 H 0.72644 0.10444 0.29585 0.0
H815 H 0.72257 0.11007 0.33177 0.0
H816 H 0.71428 0.11581 0.26242 0.0
H817 H 0.70466 0.05684 0.29022 0.0
H818 H 0.68882 0.0273 0.31097 0.0
H819 H 0.63708 0.0068 0.2758 0.0
H820 H 0.65251 0.03636 0.25502 0.0
H821 H 0.72402 0.09422 0.16015 0.0
H822 H 0.72697 0.09383 0.19719 0.0
H823 H 0.66512 0.06424 0.20292 0.0
H824 H 0.662 0.06445 0.16597 0.0
H825 H 0.68201 0.05107 0.23041 0.0
H826 H 0.68988 0.11168 0.20645 0.0
H827 H 0.70505 0.14118 0.18556 0.0
H828 H 0.75961 0.15859 0.21384 0.0
H829 H 0.74482 0.129 0.23465 0.0
C830 C 0.67514 0.08376 0.31849 0.0
C831 C 0.69132 0.09448 0.33094 0.0
C832 C 0.67741 0.08052 0.29808 0.0
C833 C 0.69587 0.0879 0.28972 0.0
C834 C 0.71207 0.09855 0.30208 0.0
C835 C 0.70982 0.10172 0.32258 0.0
C836 C 0.69807 0.08523 0.26778 0.0
C837 C 0.70763 0.10165 0.25547 0.0
C838 C 0.68906 0.06675 0.25873 0.0
C839 C 0.67972 0.04889 0.27114 0.0
C840 C 0.68985 0.0461 0.287 0.0
C841 C 0.68095 0.02934 0.29876 0.0
C842 C 0.66194 0.0152 0.29473 0.0
C843 C 0.6518 0.01777 0.27891 0.0
C844 C 0.66063 0.03452 0.26712 0.0
C845 C 0.71103 0.08731 0.16926 0.0
C846 C 0.69277 0.07958 0.16016 0.0
C847 C 0.71276 0.08714 0.19041 0.0
C848 C 0.69627 0.07924 0.20274 0.0
C849 C 0.67801 0.07043 0.19364 0.0
C850 C 0.67627 0.07064 0.17252 0.0
C851 C 0.69791 0.08163 0.2251 0.0
C852 C 0.68902 0.0652 0.23745 0.0
C853 C 0.70745 0.1001 0.23421 0.0
C854 C 0.7163 0.11802 0.22192 0.0
C855 C 0.70515 0.12173 0.2081 0.0
C856 C 0.71367 0.13847 0.19629 0.0
C857 C 0.73329 0.15172 0.19833 0.0
C858 C 0.74442 0.14829 0.21224 0.0
C859 C 0.73598 0.13153 0.22404 0.0
H860 H 0.73987 0.16467 0.18916 0.0
H861 H 0.65508 0.00223 0.30384 0.0
H862 H 0.58488 0.71303 0.66674 0.0
H863 H 0.58868 0.71486 0.70359 0.0
H864 H 0.60735 0.67291 0.70151 0.0
H865 H 0.60323 0.6707 0.6645 0.0
H866 H 0.5799 0.66337 0.72914 0.0
H867 H 0.63906 0.72007 0.71383 0.0
H868 H 0.66043 0.75127 0.69739 0.0
H869 H 0.62994 0.77599 0.72661 0.0
H870 H 0.6082 0.74487 0.74302 0.0
H871 H 0.59168 0.67171 0.8367 0.0
H872 H 0.60031 0.67339 0.80071 0.0
H873 H 0.58033 0.71354 0.78983 0.0
H874 H 0.57191 0.71216 0.82571 0.0
H875 H 0.61349 0.72374 0.76931 0.0
H876 H 0.5517 0.66609 0.77983 0.0
H877 H 0.52958 0.63483 0.79579 0.0
H878 H 0.56497 0.61205 0.77499 0.0
H879 H 0.58744 0.64328 0.75913 0.0
C880 C 0.59004 0.70436 0.67405 0.0
C881 C 0.59367 0.69165 0.6627 0.0
C882 C 0.59233 0.70552 0.69514 0.0
C883 C 0.59849 0.69417 0.7053 0.0
C884 C 0.60263 0.68184 0.69396 0.0
C885 C 0.60029 0.68062 0.67282 0.0
C886 C 0.599 0.69407 0.72785 0.0
C887 C 0.58764 0.67652 0.73795 0.0
C888 C 0.60879 0.71127 0.73931 0.0
C889 C 0.62192 0.73008 0.72957 0.0
C890 C 0.63682 0.73212 0.71665 0.0
C891 C 0.64902 0.7498 0.70735 0.0
C892 C 0.64653 0.76559 0.71093 0.0
C893 C 0.63186 0.76374 0.72386 0.0
C894 C 0.61961 0.74609 0.73319 0.0
C895 C 0.58928 0.68102 0.82668 0.0
C896 C 0.58094 0.69167 0.83402 0.0
C897 C 0.5942 0.68194 0.80613 0.0
C898 C 0.59077 0.69343 0.79259 0.0
C899 C 0.58311 0.70459 0.80003 0.0
C900 C 0.5782 0.7037 0.82054 0.0
C901 C 0.5941 0.69312 0.77045 0.0
C902 C 0.60612 0.71057 0.76048 0.0
C903 C 0.58489 0.67584 0.75906 0.0
C904 C 0.57136 0.65707 0.76852 0.0
C905 C 0.55484 0.65445 0.77881 0.0
C906 C 0.54223 0.63674 0.78781 0.0
C907 C 0.5459 0.62149 0.78646 0.0
C908 C 0.56216 0.62389 0.77606 0.0
C909 C 0.57484 0.64159 0.76706 0.0
H910 H 0.53612 0.60778 0.79344 0.0
H911 H 0.65598 0.77926 0.70371 0.0
H912 H 0.42462 0.14473 0.09899 0.0
H913 H 0.42597 0.17453 0.08877 0.0
H914 H 0.46806 0.18359 0.04275 0.0
H915 H 0.46672 0.15342 0.05286 0.0
H916 H 0.4777 0.2163 0.06765 0.0
H917 H 0.42604 0.17229 0.02614 0.0
H918 H 0.39598 0.14241 0.01785 0.0
H919 H 0.36504 0.15719 0.06074 0.0
H920 H 0.39497 0.18703 0.06955 0.0
H921 H 0.46765 0.29915 0.04822 0.0
H922 H 0.46887 0.2698 0.04077 0.0
H923 H 0.4237 0.23859 0.08462 0.0
H924 H 0.42226 0.26758 0.09198 0.0
H925 H 0.41821 0.21772 0.0502 0.0
H926 H 0.47083 0.25672 0.09702 0.0
H927 H 0.5008 0.28604 0.10701 0.0
H928 H 0.52969 0.28015 0.05479 0.0
H929 H 0.49978 0.2509 0.04436 0.0
C930 C 0.43416 0.15299 0.08666 0.0
C931 C 0.44559 0.14674 0.07673 0.0
C932 C 0.43482 0.16996 0.08075 0.0
C933 C 0.44694 0.1811 0.06486 0.0
C934 C 0.45853 0.17507 0.05497 0.0
C935 C 0.45772 0.15787 0.06074 0.0
C936 C 0.44777 0.19938 0.05944 0.0
C937 C 0.46486 0.21669 0.06324 0.0
C938 C 0.43093 0.19977 0.0539 0.0
C939 C 0.4128 0.1819 0.04856 0.0
C940 C 0.41286 0.16912 0.03391 0.0
C941 C 0.39583 0.15219 0.0291 0.0
C942 C 0.37862 0.1479 0.03877 0.0
C943 C 0.37839 0.16055 0.05325 0.0
C944 C 0.39538 0.1775 0.05813 0.0
C945 C 0.45789 0.28598 0.05614 0.0
C946 C 0.44495 0.28571 0.07079 0.0
C947 C 0.45862 0.26926 0.05189 0.0
C948 C 0.44644 0.25207 0.06223 0.0
C949 C 0.43318 0.25169 0.07641 0.0
C950 C 0.43246 0.26833 0.08069 0.0
C951 C 0.44791 0.23455 0.0593 0.0
C952 C 0.43122 0.21739 0.05393 0.0
C953 C 0.46509 0.23429 0.06348 0.0
C954 C 0.48303 0.25181 0.06977 0.0
C955 C 0.48354 0.26178 0.08759 0.0
C956 C 0.50051 0.27836 0.09334 0.0
C957 C 0.51712 0.28499 0.0815 0.0
C958 C 0.5168 0.27502 0.06391 0.0
C959 C 0.49985 0.25845 0.05808 0.0
H960 H 0.53025 0.29782 0.08598 0.0
H961 H 0.36545 0.13478 0.03503 0.0
H962 H 0.14222 0.42865 0.55027 0.0
H963 H 0.17474 0.43319 0.54927 0.0
H964 H 0.17662 0.43415 0.61492 0.0
H965 H 0.14429 0.42986 0.61608 0.0
H966 H 0.20987 0.46221 0.59877 0.0
H967 H 0.16744 0.39404 0.58886 0.0
H968 H 0.14151 0.3653 0.57193 0.0
H969 H 0.17329 0.38181 0.51586 0.0
H970 H 0.19931 0.41081 0.5324 0.0
H971 H 0.28197 0.43942 0.62204 0.0
H972 H 0.25195 0.43985 0.61792 0.0
H973 H 0.25804 0.44044 0.55263 0.0
H974 H 0.28811 0.43987 0.55659 0.0
H975 H 0.22193 0.41379 0.56522 0.0
H976 H 0.26593 0.48055 0.5764 0.0
H977 H 0.29191 0.50885 0.59385 0.0
H978 H 0.25734 0.49483 0.6479 0.0
H979 H 0.23124 0.46627 0.63088 0.0
C980 C 0.14957 0.42987 0.56449 0.0
C981 C 0.14065 0.42881 0.58326 0.0
C982 C 0.16812 0.43242 0.56389 0.0
C983 C 0.17799 0.43384 0.58203 0.0
C984 C 0.16924 0.4331 0.60075 0.0
C985 C 0.15073 0.43057 0.60138 0.0
C986 C 0.19733 0.43578 0.58164 0.0
C987 C 0.2125 0.45156 0.59158 0.0
C988 C 0.20082 0.42214 0.57175 0.0
C989 C 0.18521 0.4047 0.5618 0.0
C990 C 0.16882 0.39163 0.57287 0.0
C991 C 0.15412 0.37527 0.56336 0.0
C992 C 0.15572 0.37176 0.54282 0.0
C993 C 0.17205 0.38457 0.53176 0.0
C994 C 0.18678 0.40096 0.5412 0.0
C995 C 0.277 0.43974 0.60679 0.0
C996 C 0.28742 0.43961 0.58963 0.0
C997 C 0.25989 0.44008 0.60447 0.0
C998 C 0.25291 0.44037 0.58498 0.0
C999 C 0.26326 0.44028 0.5678 0.0
C1000 C 0.28044 0.44 0.5701 0.0
C1001 C 0.23441 0.44005 0.58265 0.0
C1002 C 0.21939 0.42458 0.5722 0.0
C1003 C 0.23105 0.45394 0.59212 0.0
C1004 C 0.24668 0.47117 0.6024 0.0
C1005 C 0.26391 0.48341 0.59206 0.0
C1006 C 0.27866 0.49952 0.60186 0.0
C1007 C 0.27629 0.50361 0.62198 0.0
C1008 C 0.25916 0.49163 0.63232 0.0
C1009 C 0.24438 0.47549 0.62259 0.0
H1010 H 0.28772 0.51609 0.62955 0.0
H1011 H 0.14433 0.35909 0.53548 0.0
H1012 H 0.83555 0.30209 0.13462 0.0
H1013 H 0.80493 0.27183 0.13355 0.0
H1014 H 0.8245 0.25376 0.08131 0.0
H1015 H 0.85514 0.28406 0.08212 0.0
H1016 H 0.7863 0.24378 0.07825 0.0
H1017 H 0.82857 0.23922 0.12711 0.0
H1018 H 0.85009 0.24964 0.15697 0.0
H1019 H 0.80358 0.24282 0.19511 0.0
H1020 H 0.78187 0.2327 0.16538 0.0
H1021 H 0.72639 0.14253 0.08423 0.0
H1022 H 0.75357 0.1754 0.08301 0.0
H1023 H 0.73268 0.18954 0.13713 0.0
H1024 H 0.7056 0.15659 0.13866 0.0
H1025 H 0.77057 0.20235 0.13951 0.0
H1026 H 0.72777 0.20528 0.09062 0.0
H1027 H 0.70653 0.19504 0.06055 0.0
H1028 H 0.754 0.20463 0.02237 0.0
H1029 H 0.77548 0.21468 0.05227 0.0
C1030 C 0.83327 0.2918 0.12273 0.0
C1031 C 0.84784 0.29535 0.1086 0.0
C1032 C 0.81578 0.27452 0.12218 0.0
C1033 C 0.81263 0.26049 0.10755 0.0
C1034 C 0.82672 0.26441 0.09275 0.0
C1035 C 0.84423 0.28169 0.09329 0.0
C1036 C 0.79518 0.24127 0.10848 0.0
C1037 C 0.7829 0.23462 0.09155 0.0
C1038 C 0.79067 0.22955 0.12602 0.0
C1039 C 0.80365 0.2354 0.14397 0.0
C1040 C 0.82297 0.24009 0.14183 0.0
C1041 C 0.8352 0.24593 0.15874 0.0
C1042 C 0.82822 0.24694 0.17792 0.0
C1043 C 0.80898 0.24206 0.18024 0.0
C1044 C 0.7967 0.23627 0.16336 0.0
C1045 C 0.72754 0.15264 0.09584 0.0
C1046 C 0.71382 0.14698 0.11151 0.0
C1047 C 0.74302 0.17145 0.09506 0.0
C1048 C 0.74498 0.18496 0.10984 0.0
C1049 C 0.73137 0.17934 0.12554 0.0
C1050 C 0.71588 0.16052 0.12635 0.0
C1051 C 0.76161 0.20478 0.10926 0.0
C1052 C 0.77382 0.21154 0.12625 0.0
C1053 C 0.76606 0.21656 0.09176 0.0
C1054 C 0.75319 0.21058 0.07373 0.0
C1055 C 0.73365 0.20507 0.07584 0.0
C1056 C 0.72157 0.19932 0.05882 0.0
C1057 C 0.7289 0.19914 0.03957 0.0
C1058 C 0.74834 0.20476 0.03729 0.0
C1059 C 0.76048 0.2105 0.05427 0.0
H1060 H 0.71953 0.19469 0.02641 0.0
H1061 H 0.83771 0.25147 0.19099 0.0
H1062 H 0.59728 0.73059 0.58724 0.0
H1063 H 0.59515 0.75973 0.58421 0.0
H1064 H 0.54031 0.72764 0.55395 0.0
H1065 H 0.54239 0.69823 0.55671 0.0
H1066 H 0.56424 0.76554 0.53808 0.0
H1067 H 0.53918 0.734 0.6021 0.0
H1068 H 0.54018 0.71808 0.63381 0.0
H1069 H 0.59073 0.76989 0.65293 0.0
H1070 H 0.59022 0.78604 0.62115 0.0
H1071 H 0.53808 0.83705 0.56229 0.0
H1072 H 0.53809 0.80677 0.55756 0.0
H1073 H 0.59047 0.82927 0.59259 0.0
H1074 H 0.59044 0.85934 0.59763 0.0
H1075 H 0.56433 0.79411 0.60518 0.0
H1076 H 0.59058 0.82522 0.54085 0.0
H1077 H 0.59082 0.84104 0.50859 0.0
H1078 H 0.5388 0.79048 0.48993 0.0
H1079 H 0.53811 0.77443 0.52222 0.0
C1080 C 0.58488 0.72972 0.57965 0.0
C1081 C 0.56985 0.71205 0.57249 0.0
C1082 C 0.5837 0.7464 0.57793 0.0
C1083 C 0.56742 0.7457 0.56919 0.0
C1084 C 0.55295 0.72839 0.56081 0.0
C1085 C 0.55414 0.71163 0.56246 0.0
C1086 C 0.56489 0.76267 0.57061 0.0
C1087 C 0.56395 0.77167 0.55271 0.0
C1088 C 0.56472 0.77067 0.58975 0.0
C1089 C 0.56474 0.76118 0.60917 0.0
C1090 C 0.55056 0.74197 0.61302 0.0
C1091 C 0.55105 0.73291 0.631 0.0
C1092 C 0.56554 0.74295 0.64535 0.0
C1093 C 0.57952 0.76212 0.64179 0.0
C1094 C 0.57913 0.77125 0.6238 0.0
C1095 C 0.54965 0.83557 0.56889 0.0
C1096 C 0.56423 0.85056 0.58039 0.0
C1097 C 0.54967 0.81829 0.5661 0.0
C1098 C 0.56433 0.81583 0.57465 0.0
C1099 C 0.57899 0.83087 0.58591 0.0
C1100 C 0.57896 0.84807 0.58874 0.0
C1101 C 0.56418 0.79738 0.57262 0.0
C1102 C 0.56448 0.78798 0.59049 0.0
C1103 C 0.56378 0.78909 0.55346 0.0
C1104 C 0.56417 0.79871 0.53405 0.0
C1105 C 0.5791 0.81754 0.52994 0.0
C1106 C 0.57933 0.82653 0.51164 0.0
C1107 C 0.5648 0.8168 0.49724 0.0
C1108 C 0.55003 0.79802 0.50111 0.0
C1109 C 0.54971 0.78896 0.5194 0.0
H1110 H 0.56501 0.82378 0.48308 0.0
H1111 H 0.56591 0.7359 0.65925 0.0
H1112 H 0.69036 0.53601 0.05097 0.0
H1113 H 0.71858 0.53338 0.04173 0.0
H1114 H 0.7552 0.58582 0.07454 0.0
H1115 H 0.72725 0.58862 0.08374 0.0
H1116 H 0.77125 0.58351 0.03799 0.0
H1117 H 0.73891 0.54297 0.09726 0.0
H1118 H 0.71082 0.51642 0.11444 0.0
H1119 H 0.70905 0.4766 0.06957 0.0
H1120 H 0.737 0.50301 0.05199 0.0
H1121 H 0.85147 0.58649 0.08125 0.0
H1122 H 0.82137 0.58495 0.07208 0.0
H1123 H 0.80128 0.52933 0.04437 0.0
H1124 H 0.83147 0.53061 0.05385 0.0
H1125 H 0.77461 0.52881 0.06886 0.0
H1126 H 0.81201 0.56835 0.01451 0.0
H1127 H 0.84013 0.59484 0.99738 0.0
H1128 H 0.83252 0.63621 0.03153 0.0
H1129 H 0.80452 0.60999 0.0491 0.0
C1130 C 0.70446 0.54711 0.05598 0.0
C1131 C 0.70658 0.56243 0.06825 0.0
C1132 C 0.72053 0.54556 0.0507 0.0
C1133 C 0.73891 0.55934 0.05759 0.0
C1134 C 0.74113 0.57507 0.06904 0.0
C1135 C 0.72512 0.57658 0.07439 0.0
C1136 C 0.75578 0.55683 0.05441 0.0
C1137 C 0.77204 0.57155 0.04466 0.0
C1138 C 0.75648 0.54084 0.06247 0.0
C1139 C 0.73986 0.52497 0.07319 0.0
C1140 C 0.73244 0.52857 0.091 0.0
C1141 C 0.71656 0.51355 0.10081 0.0
C1142 C 0.70811 0.49484 0.09306 0.0
C1143 C 0.71558 0.49111 0.07553 0.0
C1144 C 0.73144 0.50609 0.06564 0.0
C1145 C 0.84077 0.57398 0.07302 0.0
C1146 C 0.84386 0.55865 0.06831 0.0
C1147 C 0.8236 0.5732 0.06764 0.0
C1148 C 0.80919 0.55716 0.05724 0.0
C1149 C 0.81228 0.5419 0.05226 0.0
C1150 C 0.82952 0.54266 0.05768 0.0
C1151 C 0.79045 0.55595 0.05318 0.0
C1152 C 0.77378 0.54051 0.06158 0.0
C1153 C 0.78936 0.57126 0.04377 0.0
C1154 C 0.80617 0.58716 0.03319 0.0
C1155 C 0.81639 0.58309 0.01847 0.0
C1156 C 0.83231 0.59807 0.00866 0.0
C1157 C 0.83812 0.61719 0.01337 0.0
C1158 C 0.828 0.62139 0.02788 0.0
C1159 C 0.81207 0.60647 0.03774 0.0
H1160 H 0.85045 0.62877 0.00577 0.0
H1161 H 0.69581 0.48324 0.10067 0.0
H1162 H 0.30102 0.82988 0.5678 0.0
H1163 H 0.27027 0.79979 0.56398 0.0
H1164 H 0.24209 0.82357 0.59989 0.0
H1165 H 0.27253 0.85344 0.60388 0.0
H1166 H 0.23406 0.7882 0.61321 0.0
H1167 H 0.23585 0.81897 0.54925 0.0
H1168 H 0.24995 0.83414 0.51625 0.0
H1169 H 0.24906 0.78261 0.49668 0.0
H1170 H 0.23519 0.76723 0.52969 0.0
H1171 H 0.13597 0.72729 0.60124 0.0
H1172 H 0.168 0.75536 0.59782 0.0
H1173 H 0.18626 0.72206 0.56236 0.0
H1174 H 0.154 0.69377 0.56548 0.0
H1175 H 0.20109 0.75962 0.54781 0.0
H1176 H 0.1975 0.72809 0.61069 0.0
H1177 H 0.18309 0.71263 0.64348 0.0
H1178 H 0.18778 0.76532 0.66513 0.0
H1179 H 0.20197 0.78104 0.63234 0.0
C1180 C 0.28823 0.82872 0.57474 0.0
C1181 C 0.28923 0.84401 0.58621 0.0
C1182 C 0.2707 0.81157 0.5725 0.0
C1183 C 0.25395 0.80951 0.58166 0.0
C1184 C 0.25488 0.82487 0.59278 0.0
C1185 C 0.27231 0.84195 0.59499 0.0
C1186 C 0.2355 0.79115 0.58056 0.0
C1187 C 0.22679 0.78203 0.59891 0.0
C1188 C 0.22638 0.7828 0.56186 0.0
C1189 C 0.23471 0.79204 0.54203 0.0
C1190 C 0.23883 0.81094 0.53798 0.0
C1191 C 0.24674 0.81956 0.51926 0.0
C1192 C 0.25046 0.80937 0.5044 0.0
C1193 C 0.24622 0.79051 0.50822 0.0
C1194 C 0.23832 0.78182 0.52692 0.0
C1195 C 0.14671 0.72593 0.59252 0.0
C1196 C 0.14254 0.70824 0.58386 0.0
C1197 C 0.16501 0.74199 0.59061 0.0
C1198 C 0.17954 0.74064 0.58017 0.0
C1199 C 0.17521 0.72331 0.57056 0.0
C1200 C 0.15681 0.70719 0.57241 0.0
C1201 C 0.19946 0.75706 0.58049 0.0
C1202 C 0.20848 0.76571 0.56206 0.0
C1203 C 0.20897 0.76501 0.59913 0.0
C1204 C 0.20068 0.7557 0.619 0.0
C1205 C 0.19535 0.73635 0.6224 0.0
C1206 C 0.18723 0.72754 0.64099 0.0
C1207 C 0.18449 0.73797 0.65636 0.0
C1208 C 0.1899 0.75725 0.6532 0.0
C1209 C 0.19801 0.76613 0.63462 0.0
H1210 H 0.17821 0.73112 0.67074 0.0
H1211 H 0.25658 0.81607 0.48992 0.0
H1212 H 0.85196 0.57828 0.40692 0.0
H1213 H 0.82126 0.57521 0.41661 0.0
H1214 H 0.80533 0.52178 0.44737 0.0
H1215 H 0.83614 0.52464 0.43753 0.0
H1216 H 0.77739 0.51829 0.42218 0.0
H1217 H 0.81376 0.56069 0.47523 0.0
H1218 H 0.8411 0.58875 0.49145 0.0
H1219 H 0.82967 0.62683 0.45588 0.0
H1220 H 0.80243 0.59901 0.43921 0.0
H1221 H 0.68983 0.52003 0.43954 0.0
H1222 H 0.71914 0.51924 0.4485 0.0
H1223 H 0.75324 0.57158 0.41452 0.0
H1224 H 0.72426 0.57253 0.40559 0.0
H1225 H 0.7701 0.57144 0.45114 0.0
H1226 H 0.73944 0.52875 0.39298 0.0
H1227 H 0.71256 0.50077 0.37602 0.0
H1228 H 0.71375 0.46327 0.4219 0.0
H1229 H 0.74051 0.49109 0.43927 0.0
C1230 C 0.84205 0.56596 0.41594 0.0
C1231 C 0.84646 0.55166 0.42139 0.0
C1232 C 0.82455 0.56431 0.42161 0.0
C1233 C 0.81112 0.54839 0.43295 0.0
C1234 C 0.81557 0.53423 0.43874 0.0
C1235 C 0.83316 0.5359 0.4331 0.0
C1236 C 0.79187 0.54596 0.43702 0.0
C1237 C 0.77571 0.52966 0.42906 0.0
C1238 C 0.78971 0.56086 0.44586 0.0
C1239 C 0.80606 0.57772 0.4559 0.0
C1240 C 0.81714 0.57504 0.47076 0.0
C1241 C 0.83262 0.59091 0.48006 0.0
C1242 C 0.83713 0.60956 0.47469 0.0
C1243 C 0.82615 0.61237 0.46004 0.0
C1244 C 0.81066 0.59655 0.45068 0.0
C1245 C 0.70361 0.53144 0.43414 0.0
C1246 C 0.70473 0.54624 0.4217 0.0
C1247 C 0.7203 0.53097 0.43928 0.0
C1248 C 0.7383 0.54532 0.43209 0.0
C1249 C 0.73948 0.56042 0.42028 0.0
C1250 C 0.72287 0.56085 0.41506 0.0
C1251 C 0.75593 0.5442 0.43553 0.0
C1252 C 0.77175 0.55982 0.44489 0.0
C1253 C 0.75779 0.52868 0.42801 0.0
C1254 C 0.74177 0.512 0.41755 0.0
C1255 C 0.73385 0.51455 0.39953 0.0
C1256 C 0.71867 0.49873 0.38983 0.0
C1257 C 0.7114 0.48026 0.39792 0.0
C1258 C 0.71936 0.47758 0.41569 0.0
C1259 C 0.73453 0.49337 0.42546 0.0
H1260 H 0.69965 0.46803 0.39039 0.0
H1261 H 0.84913 0.62183 0.4819 0.0
H1262 H 0.15015 0.73283 0.89988 0.0
H1263 H 0.18052 0.763 0.90226 0.0
H1264 H 0.20852 0.73265 0.92469 0.0
H1265 H 0.17789 0.70216 0.92263 0.0
H1266 H 0.22015 0.76707 0.94508 0.0
H1267 H 0.21465 0.74574 0.87636 0.0
H1268 H 0.19847 0.73315 0.84341 0.0
H1269 H 0.19291 0.78327 0.83531 0.0
H1270 H 0.20881 0.79604 0.86837 0.0
H1271 H 0.31175 0.85242 0.92478 0.0
H1272 H 0.28512 0.81911 0.92629 0.0
H1273 H 0.24654 0.83712 0.90227 0.0
H1274 H 0.27297 0.87023 0.90047 0.0
H1275 H 0.24335 0.80641 0.88218 0.0
H1276 H 0.246 0.82598 0.95252 0.0
H1277 H 0.26177 0.8383 0.98572 0.0
H1278 H 0.273 0.79142 0.99058 0.0
H1279 H 0.2575 0.77895 0.95726 0.0
C1280 C 0.1627 0.73251 0.90543 0.0
C1281 C 0.16166 0.71507 0.91087 0.0
C1282 C 0.18007 0.74978 0.90673 0.0
C1283 C 0.19681 0.74998 0.91329 0.0
C1284 C 0.19574 0.73274 0.91949 0.0
C1285 C 0.17827 0.71537 0.91826 0.0
C1286 C 0.21539 0.76826 0.91297 0.0
C1287 C 0.22547 0.77555 0.93128 0.0
C1288 C 0.22219 0.77931 0.89496 0.0
C1289 C 0.21283 0.77179 0.87492 0.0
C1290 C 0.20988 0.75403 0.86762 0.0
C1291 C 0.20076 0.74686 0.84891 0.0
C1292 C 0.19464 0.75739 0.83729 0.0
C1293 C 0.19766 0.77513 0.84433 0.0
C1294 C 0.20675 0.78235 0.86304 0.0
C1295 C 0.29756 0.84929 0.91995 0.0
C1296 C 0.29448 0.86395 0.91245 0.0
C1297 C 0.28237 0.83027 0.92088 0.0
C1298 C 0.26387 0.82569 0.91443 0.0
C1299 C 0.26074 0.84036 0.90724 0.0
C1300 C 0.27586 0.85929 0.90628 0.0
C1301 C 0.24775 0.80558 0.91442 0.0
C1302 C 0.2382 0.79786 0.89596 0.0
C1303 C 0.24153 0.79419 0.93227 0.0
C1304 C 0.2508 0.80167 0.9523 0.0
C1305 C 0.25198 0.81839 0.96059 0.0
C1306 C 0.26084 0.82538 0.97944 0.0
C1307 C 0.26844 0.81569 0.99022 0.0
C1308 C 0.26714 0.79894 0.9822 0.0
C1309 C 0.25831 0.7919 0.96334 0.0
H1310 H 0.27529 0.82112 0.00482 0.0
H1311 H 0.18757 0.75181 0.82281 0.0
H1312 H 0.40592 0.13895 0.42359 0.0
H1313 H 0.40292 0.16745 0.42861 0.0
H1314 H 0.46305 0.20044 0.44462 0.0
H1315 H 0.46615 0.17177 0.43997 0.0
H1316 H 0.43994 0.21088 0.46726 0.0
H1317 H 0.45113 0.20166 0.39731 0.0
H1318 H 0.44496 0.18282 0.36573 0.0
H1319 H 0.38776 0.17442 0.36284 0.0
H1320 H 0.3935 0.19295 0.39461 0.0
H1321 H 0.45406 0.30317 0.43661 0.0
H1322 H 0.45546 0.27395 0.44367 0.0
H1323 H 0.39665 0.23924 0.4235 0.0
H1324 H 0.39523 0.2683 0.4161 0.0
H1325 H 0.41983 0.2299 0.40405 0.0
H1326 H 0.40925 0.24049 0.47365 0.0
H1327 H 0.4156 0.25899 0.50549 0.0
H1328 H 0.47197 0.26536 0.50898 0.0
H1329 H 0.46606 0.24712 0.47699 0.0
C1330 C 0.41846 0.15218 0.42848 0.0
C1331 C 0.43636 0.15323 0.43105 0.0
C1332 C 0.4167 0.16843 0.43138 0.0
C1333 C 0.43285 0.18608 0.43661 0.0
C1334 C 0.45045 0.18692 0.44052 0.0
C1335 C 0.4522 0.17057 0.43778 0.0
C1336 C 0.4317 0.20389 0.43585 0.0
C1337 C 0.43574 0.21521 0.45343 0.0
C1338 C 0.42602 0.20932 0.41782 0.0
C1339 C 0.42269 0.19854 0.39844 0.0
C1340 C 0.4372 0.1957 0.39001 0.0
C1341 C 0.43378 0.18508 0.37207 0.0
C1342 C 0.41596 0.17738 0.36232 0.0
C1343 C 0.40155 0.18036 0.37043 0.0
C1344 C 0.40488 0.19094 0.3884 0.0
C1345 C 0.44131 0.28931 0.43403 0.0
C1346 C 0.4246 0.28802 0.42558 0.0
C1347 C 0.44211 0.27262 0.43816 0.0
C1348 C 0.42615 0.25444 0.4341 0.0
C1349 C 0.40915 0.25315 0.42665 0.0
C1350 C 0.40837 0.26977 0.42243 0.0
C1351 C 0.42769 0.23684 0.43559 0.0
C1352 C 0.42391 0.2256 0.41799 0.0
C1353 C 0.43369 0.23162 0.45357 0.0
C1354 C 0.43728 0.2426 0.47281 0.0
C1355 C 0.42306 0.24598 0.48111 0.0
C1356 C 0.42657 0.25639 0.49921 0.0
C1357 C 0.44419 0.26339 0.50922 0.0
C1358 C 0.45833 0.25995 0.50119 0.0
C1359 C 0.4549 0.24956 0.48308 0.0
H1360 H 0.44688 0.27145 0.52324 0.0
H1361 H 0.41333 0.16913 0.34845 0.0
H1362 H 0.27137 0.41084 0.89823 0.0
H1363 H 0.24181 0.41241 0.899 0.0
H1364 H 0.27024 0.46448 0.93468 0.0
H1365 H 0.29999 0.46292 0.9342 0.0
H1366 H 0.2333 0.43955 0.94817 0.0
H1367 H 0.2646 0.46791 0.88516 0.0
H1368 H 0.28086 0.4696 0.85273 0.0
H1369 H 0.23022 0.41904 0.8314 0.0
H1370 H 0.21374 0.41688 0.86384 0.0
H1371 H 0.1593 0.46281 0.92797 0.0
H1372 H 0.19024 0.46393 0.93145 0.0
H1373 H 0.16926 0.41326 0.89382 0.0
H1374 H 0.1385 0.41219 0.89 0.0
H1375 H 0.20417 0.4406 0.88188 0.0
H1376 H 0.17353 0.4112 0.9455 0.0
H1377 H 0.15736 0.40909 0.97812 0.0
H1378 H 0.20669 0.46148 -0.00171 0.0
H1379 H 0.22306 0.46403 0.96565 0.0
C1380 C 0.27136 0.42259 0.90636 0.0
C1381 C 0.28809 0.43686 0.91601 0.0
C1382 C 0.25446 0.42348 0.90673 0.0
C1383 C 0.25397 0.43873 0.91661 0.0
C1384 C 0.27039 0.45265 0.9269 0.0
C1385 C 0.28737 0.45175 0.92657 0.0
C1386 C 0.23639 0.44033 0.91556 0.0
C1387 C 0.22706 0.4401 0.93371 0.0
C1388 C 0.22819 0.44077 0.89665 0.0
C1389 C 0.23798 0.44215 0.87701 0.0
C1390 C 0.25697 0.45708 0.87361 0.0
C1391 C 0.26623 0.45813 0.85522 0.0
C1392 C 0.2566 0.44442 0.84003 0.0
C1393 C 0.23767 0.42965 0.84319 0.0
C1394 C 0.22835 0.42851 0.86157 0.0
C1395 C 0.16125 0.45185 0.92053 0.0
C1396 C 0.14647 0.43743 0.90869 0.0
C1397 C 0.17891 0.45248 0.92259 0.0
C1398 C 0.18199 0.43861 0.91298 0.0
C1399 C 0.16719 0.42412 0.90132 0.0
C1400 C 0.1496 0.42351 0.8992 0.0
C1401 C 0.20079 0.43939 0.91448 0.0
C1402 C 0.21044 0.44017 0.89637 0.0
C1403 C 0.20924 0.43945 0.93342 0.0
C1404 C 0.19943 0.43792 0.95305 0.0
C1405 C 0.18086 0.42236 0.95682 0.0
C1406 C 0.17167 0.42106 0.97533 0.0
C1407 C 0.18096 0.43517 0.99024 0.0
C1408 C 0.19949 0.45058 0.9867 0.0
C1409 C 0.20874 0.45195 0.96821 0.0
H1410 H 0.17383 0.43415 0.00456 0.0
H1411 H 0.26379 0.44527 0.8258 0.0
H1412 H 0.69582 0.1569 0.44449 0.0
H1413 H 0.7255 0.18631 0.45415 0.0
H1414 H 0.75685 0.17431 0.40859 0.0
H1415 H 0.72752 0.14502 0.399 0.0
H1416 H 0.77707 0.18714 0.44423 0.0
H1417 H 0.7397 0.20448 0.39868 0.0
H1418 H 0.71082 0.20632 0.38953 0.0
H1419 H 0.71674 0.23825 0.44417 0.0
H1420 H 0.74554 0.23638 0.45374 0.0
H1421 H 0.85221 0.26706 0.39878 0.0
H1422 H 0.82266 0.23842 0.40912 0.0
H1423 H 0.81186 0.27171 0.45332 0.0
H1424 H 0.84158 0.30074 0.44288 0.0
H1425 H 0.7804 0.24948 0.42997 0.0
H1426 H 0.8232 0.23916 0.47021 0.0
H1427 H 0.85248 0.23776 0.47837 0.0
H1428 H 0.83689 0.19294 0.43413 0.0
H1429 H 0.80767 0.19425 0.42546 0.0
C1430 C 0.70909 0.16046 0.43668 0.0
C1431 C 0.70931 0.14874 0.42086 0.0
C1432 C 0.726 0.17725 0.44221 0.0
C1433 C 0.74332 0.18249 0.432 0.0
C1434 C 0.74365 0.17046 0.41671 0.0
C1435 C 0.72682 0.15379 0.41115 0.0
C1436 C 0.761 0.20105 0.43605 0.0
C1437 C 0.77785 0.2008 0.44122 0.0
C1438 C 0.7618 0.21887 0.43288 0.0
C1439 C 0.74459 0.22007 0.42705 0.0
C1440 C 0.73475 0.21176 0.40881 0.0
C1441 C 0.71842 0.21283 0.40354 0.0
C1442 C 0.71191 0.22233 0.4163 0.0
C1443 C 0.72177 0.23085 0.43433 0.0
C1444 C 0.73809 0.22979 0.43968 0.0
C1445 C 0.84367 0.26833 0.41082 0.0
C1446 C 0.84921 0.28619 0.41998 0.0
C1447 C 0.82685 0.25189 0.41684 0.0
C1448 C 0.81523 0.25289 0.4322 0.0
C1449 C 0.82074 0.27064 0.44154 0.0
C1450 C 0.8377 0.28717 0.43556 0.0
C1451 C 0.79668 0.2355 0.43715 0.0
C1452 C 0.77964 0.23593 0.4337 0.0
C1453 C 0.79572 0.21784 0.44192 0.0
C1454 C 0.81323 0.21685 0.44716 0.0
C1455 C 0.82606 0.22907 0.46213 0.0
C1456 C 0.84265 0.22829 0.46686 0.0
C1457 C 0.84655 0.21528 0.45677 0.0
C1458 C 0.83384 0.203 0.44195 0.0
C1459 C 0.81724 0.20373 0.43716 0.0
H1460 H 0.85941 0.2147 0.46044 0.0
H1461 H 0.69926 0.22314 0.4122 0.0
H1462 H 0.56748 0.73009 0.89302 0.0
H1463 H 0.56758 0.76015 0.89811 0.0
H1464 H 0.54413 0.74194 0.95842 0.0
H1465 H 0.54362 0.71137 0.95327 0.0
H1466 H 0.52658 0.75846 0.93852 0.0
H1467 H 0.59114 0.77564 0.95305 0.0
H1468 H 0.6223 0.7771 0.94797 0.0
H1469 H 0.63064 0.80792 0.89199 0.0
H1470 H 0.5994 0.80642 0.89657 0.0
H1471 H 0.54514 0.85667 0.94739 0.0
H1472 H 0.54492 0.82657 0.95485 0.0
H1473 H 0.56548 0.8266 0.89414 0.0
H1474 H 0.56587 0.85648 0.88662 0.0
H1475 H 0.58596 0.82018 0.92325 0.0
H1476 H 0.51855 0.79761 0.90681 0.0
H1477 H 0.48725 0.79583 0.91216 0.0
H1478 H 0.48487 0.77545 0.97313 0.0
H1479 H 0.51629 0.77733 0.9682 0.0
C1480 C 0.56237 0.73242 0.90741 0.0
C1481 C 0.55567 0.71839 0.9228 0.0
C1482 C 0.56252 0.74968 0.91033 0.0
C1483 C 0.55624 0.75344 0.92881 0.0
C1484 C 0.54918 0.73935 0.94411 0.0
C1485 C 0.54891 0.72193 0.94115 0.0
C1486 C 0.55687 0.77207 0.93164 0.0
C1487 C 0.53965 0.77202 0.93566 0.0
C1488 C 0.57394 0.78974 0.9279 0.0
C1489 C 0.59286 0.79084 0.92513 0.0
C1490 C 0.59956 0.78264 0.9396 0.0
C1491 C 0.61725 0.78348 0.93681 0.0
C1492 C 0.62843 0.79258 0.91966 0.0
C1493 C 0.62197 0.80089 0.90528 0.0
C1494 C 0.60428 0.80008 0.90798 0.0
C1495 C 0.54953 0.85019 0.93563 0.0
C1496 C 0.55555 0.85897 0.91642 0.0
C1497 C 0.54937 0.83301 0.93991 0.0
C1498 C 0.5552 0.8244 0.92504 0.0
C1499 C 0.56104 0.83309 0.90586 0.0
C1500 C 0.56118 0.85014 0.90157 0.0
C1501 C 0.55551 0.80643 0.92914 0.0
C1502 C 0.57298 0.80666 0.92656 0.0
C1503 C 0.53873 0.78901 0.93433 0.0
C1504 C 0.51986 0.78784 0.93723 0.0
C1505 C 0.51143 0.7929 0.92141 0.0
C1506 C 0.49365 0.79184 0.92436 0.0
C1507 C 0.48411 0.78559 0.943 0.0
C1508 C 0.49229 0.78033 0.95872 0.0
C1509 C 0.51008 0.78138 0.95585 0.0
H1510 H 0.47035 0.78478 0.94525 0.0
H1511 H 0.64212 0.79321 0.91752 0.0
H1512 H 0.32076 0.96665 0.93265 0.0
H1513 H 0.32324 0.98911 0.95927 0.0
H1514 H 0.3412 0.96045 0.00218 0.0
H1515 H 0.33824 0.93766 0.97587 0.0
H1516 H 0.31816 0.971 0.0203 0.0
H1517 H 0.37401 0.00101 0.97559 0.0
H1518 H 0.39029 0.01238 0.94244 0.0
H1519 H 0.36547 0.04868 0.93555 0.0
H1520 H 0.34886 0.03734 0.96858 0.0
H1521 H 0.387 0.03896 0.08635 0.0
H1522 H 0.36634 0.01453 0.06183 0.0
H1523 H 0.35173 0.05453 0.03466 0.0
H1524 H 0.37252 0.07921 0.05923 0.0
H1525 H 0.36591 0.0396 0.00725 0.0
H1526 H 0.31676 0.01462 0.05717 0.0
H1527 H 0.30233 0.00365 0.09115 0.0
H1528 H 0.31591 0.95824 0.08936 0.0
H1529 H 0.33068 0.96909 0.05549 0.0
C1530 C 0.32506 0.96503 0.94781 0.0
C1531 C 0.32955 0.95055 0.95212 0.0
C1532 C 0.32645 0.97786 0.963 0.0
C1533 C 0.33267 0.97661 0.98262 0.0
C1534 C 0.33636 0.96166 0.98715 0.0
C1535 C 0.33478 0.94872 0.97205 0.0
C1536 C 0.33687 0.99165 0.99809 0.0
C1537 C 0.32858 0.98602 0.0175 0.0
C1538 C 0.35001 0.01132 0.9942 0.0
C1539 C 0.36001 0.01815 0.97439 0.0
C1540 C 0.37192 0.01131 0.96692 0.0
C1541 C 0.38122 0.01776 0.94818 0.0
C1542 C 0.37886 0.03119 0.93686 0.0
C1543 C 0.36724 0.03824 0.94431 0.0
C1544 C 0.35789 0.03182 0.96304 0.0
C1545 C 0.37911 0.04248 0.07541 0.0
C1546 C 0.38153 0.06106 0.07457 0.0
C1547 C 0.36716 0.02843 0.06152 0.0
C1548 C 0.3574 0.03269 0.04651 0.0
C1549 C 0.35907 0.05096 0.0462 0.0
C1550 C 0.37095 0.06502 0.06024 0.0
C1551 C 0.34773 0.01888 0.02971 0.0
C1552 C 0.35502 0.02472 0.00998 0.0
C1553 C 0.33385 -0.00059 0.03341 0.0
C1554 C 0.32491 0.99273 0.05378 0.0
C1555 C 0.31679 0.00237 0.06406 0.0
C1556 C 0.30853 0.99616 0.08331 0.0
C1557 C 0.30822 0.98027 0.09241 0.0
C1558 C 0.31615 0.97054 0.08228 0.0
C1559 C 0.32443 0.97669 0.06303 0.0
H1560 H 0.30182 0.97549 0.10731 0.0
H1561 H 0.38607 0.03617 0.92235 0.0
H1562 H 0.36064 0.30857 0.45452 0.0
H1563 H 0.35109 0.32464 0.47975 0.0
H1564 H 0.3792 0.37703 0.44456 0.0
H1565 H 0.38902 0.36121 0.41945 0.0
H1566 H 0.39088 0.38309 0.48338 0.0
H1567 H 0.33025 0.35086 0.44824 0.0
H1568 H 0.30151 0.323 0.4336 0.0
H1569 H 0.28566 0.29676 0.49268 0.0
H1570 H 0.31446 0.32435 0.50764 0.0
H1571 H 0.36241 0.43905 0.53963 0.0
H1572 H 0.36597 0.42048 0.5123 0.0
H1573 H 0.33726 0.36907 0.54894 0.0
H1574 H 0.33325 0.38751 0.57631 0.0
H1575 H 0.32528 0.3618 0.5098 0.0
H1576 H 0.38582 0.39325 0.54485 0.0
H1577 H 0.41462 0.42075 0.55988 0.0
H1578 H 0.43085 0.44787 0.50123 0.0
H1579 H 0.40198 0.42064 0.4859 0.0
C1580 C 0.36452 0.32342 0.45198 0.0
C1581 C 0.37573 0.33367 0.43508 0.0
C1582 C 0.35899 0.33256 0.46638 0.0
C1583 C 0.36443 0.35202 0.464 0.0
C1584 C 0.37492 0.36202 0.44671 0.0
C1585 C 0.38049 0.35293 0.43236 0.0
C1586 C 0.36066 0.36245 0.4803 0.0
C1587 C 0.3765 0.37861 0.48892 0.0
C1588 C 0.34196 0.35618 0.48798 0.0
C1589 C 0.32462 0.33959 0.47902 0.0
C1590 C 0.32072 0.33907 0.45808 0.0
C1591 C 0.3044 0.32335 0.44973 0.0
C1592 C 0.29179 0.3081 0.46219 0.0
C1593 C 0.29545 0.30857 0.48304 0.0
C1594 C 0.31176 0.32426 0.49147 0.0
C1595 C 0.35681 0.42379 0.5419 0.0
C1596 C 0.3477 0.41477 0.5602 0.0
C1597 C 0.35889 0.41321 0.52626 0.0
C1598 C 0.35213 0.39347 0.52873 0.0
C1599 C 0.3426 0.3843 0.54678 0.0
C1600 C 0.34041 0.39487 0.56241 0.0
C1601 C 0.35549 0.38256 0.51263 0.0
C1602 C 0.33963 0.36629 0.50416 0.0
C1603 C 0.37419 0.38864 0.5051 0.0
C1604 C 0.39164 0.40498 0.51426 0.0
C1605 C 0.39545 0.40514 0.53518 0.0
C1606 C 0.4118 0.42067 0.54375 0.0
C1607 C 0.42453 0.43607 0.53153 0.0
C1608 C 0.42096 0.43594 0.51069 0.0
C1609 C 0.40462 0.42045 0.50205 0.0
H1610 H 0.43718 0.44808 0.53819 0.0
H1611 H 0.27917 0.29593 0.4557 0.0
H1612 H 0.05748 0.3609 0.93747 0.0
H1613 H 0.03292 0.34632 0.96418 0.0
H1614 H 0.02055 0.39262 0.95824 0.0
H1615 H 0.04502 0.40732 0.93195 0.0
H1616 H 0.02425 0.38597 0.99714 0.0
H1617 H 0.99111 0.34856 0.93755 0.0
H1618 H 0.98643 0.32737 0.90829 0.0
H1619 H 0.98458 0.28435 0.94862 0.0
H1620 H 0.9895 0.30541 0.97811 0.0
H1621 H 0.91829 0.32857 0.02575 0.0
H1622 H 0.94371 0.33491 0.00122 0.0
H1623 H 0.9827 0.34323 0.0505 0.0
H1624 H 0.95751 0.33732 0.07513 0.0
H1625 H 0.96707 0.32056 0.99161 0.0
H1626 H 0.02604 0.38194 0.03909 0.0
H1627 H 0.02921 0.40447 0.06644 0.0
H1628 H 0.9769 0.40188 0.04676 0.0
H1629 H 0.97358 0.37955 0.01916 0.0
C1630 C 0.0495 0.36794 0.94187 0.0
C1631 C 0.05321 0.38528 0.93262 0.0
C1632 C 0.03546 0.35957 0.95707 0.0
C1633 C 0.02492 0.36839 0.96313 0.0
C1634 C 0.0286 0.38564 0.95386 0.0
C1635 C 0.04258 0.39399 0.93878 0.0
C1636 C 0.0101 0.35999 0.97925 0.0
C1637 C 0.01185 0.37159 0.99602 0.0
C1638 C 0.99388 0.3413 0.9777 0.0
C1639 C 0.9909 0.32864 0.96 0.0
C1640 C 0.98987 0.33465 0.94016 0.0
C1641 C 0.98714 0.32265 0.92354 0.0
C1642 C 0.98527 0.30455 0.92659 0.0
C1643 C 0.98607 0.29839 0.94627 0.0
C1644 C 0.98882 0.31034 0.96295 0.0
C1645 C 0.9322 0.33151 0.03137 0.0
C1646 C 0.93601 0.3328 0.05236 0.0
C1647 C 0.94667 0.33501 0.01733 0.0
C1648 C 0.96514 0.33979 0.02407 0.0
C1649 C 0.9686 0.33983 0.04501 0.0
C1650 C 0.9542 0.33649 0.05905 0.0
C1651 C 0.98116 0.34665 0.00931 0.0
C1652 C 0.97967 0.33478 0.99288 0.0
C1653 C 0.99748 0.36528 0.01089 0.0
C1654 C -0.00054 0.37891 0.02725 0.0
C1655 C 0.01526 0.38623 0.04059 0.0
C1656 C 0.01707 0.39896 0.05613 0.0
C1657 C 0.00323 0.40454 0.05838 0.0
C1658 C 0.98758 0.39749 0.04505 0.0
C1659 C 0.98571 0.38479 0.02947 0.0
H1660 H 0.00465 0.41437 0.07044 0.0
H1661 H 0.98316 0.29528 0.9137 0.0
H1662 H 0.63885 0.0425 0.41679 0.0
H1663 H 0.62634 0.01667 0.44185 0.0
H1664 H 0.68045 0.04509 0.47405 0.0
H1665 H 0.69328 0.07103 0.44875 0.0
H1666 H 0.66479 0.00559 0.47284 0.0
H1667 H 0.64467 0.05056 0.49093 0.0
H1668 H 0.63054 0.07129 0.48514 0.0
H1669 H 0.57621 0.02165 0.4703 0.0
H1670 H 0.59011 0.00064 0.4757 0.0
H1671 H 0.62315 0.9543 0.566 0.0
H1672 H 0.64034 0.97933 0.54041 0.0
H1673 H 0.58928 0.95494 0.50304 0.0
H1674 H 0.57199 0.92994 0.52849 0.0
H1675 H 0.60531 0.99386 0.50855 0.0
H1676 H 0.6262 0.94901 0.48999 0.0
H1677 H 0.64076 0.92871 0.49614 0.0
H1678 H 0.69408 0.97869 0.51297 0.0
H1679 H 0.67975 -0.00073 0.50719 0.0
C1680 C 0.64819 0.04321 0.42908 0.0
C1681 C 0.66698 0.05894 0.43095 0.0
C1682 C 0.641 0.02844 0.4434 0.0
C1683 C 0.65236 0.02919 0.45999 0.0
C1684 C 0.67145 0.04434 0.46138 0.0
C1685 C 0.67872 0.05914 0.44696 0.0
C1686 C 0.64381 0.01467 0.47635 0.0
C1687 C 0.65195 0.00318 0.48089 0.0
C1688 C 0.62696 0.01147 0.48666 0.0
C1689 C 0.61849 0.02405 0.48355 0.0
C1690 C 0.62975 0.04408 0.48628 0.0
C1691 C 0.62178 0.05588 0.48309 0.0
C1692 C 0.6025 0.0478 0.47731 0.0
C1693 C 0.59115 0.02789 0.47476 0.0
C1694 C 0.59906 0.01603 0.4779 0.0
C1695 C 0.61561 0.95421 0.55229 0.0
C1696 C 0.59619 0.94019 0.54928 0.0
C1697 C 0.62548 0.96846 0.53766 0.0
C1698 C 0.61608 0.96889 0.51983 0.0
C1699 C 0.59677 0.95482 0.51673 0.0
C1700 C 0.58693 0.94054 0.53127 0.0
C1701 C 0.62602 0.98447 0.50476 0.0
C1702 C 0.61818 0.99628 0.50056 0.0
C1703 C 0.64319 0.988 0.49492 0.0
C1704 C 0.65183 0.97565 0.49838 0.0
C1705 C 0.64097 0.95565 0.49519 0.0
C1706 C 0.6492 0.9441 0.49857 0.0
C1707 C 0.66832 0.9524 0.505 0.0
C1708 C 0.67927 0.97228 0.50802 0.0
C1709 C 0.6711 0.98389 0.50468 0.0
H1710 H 0.67466 0.94343 0.50761 0.0
H1711 H 0.59635 0.05696 0.47484 0.0
H1712 H 0.69272 0.63145 0.04305 0.0
H1713 H 0.6792 0.64462 0.01864 0.0
H1714 H 0.62407 0.6137 0.04861 0.0
H1715 H 0.6373 0.60043 0.07285 0.0
H1716 H 0.62141 0.60717 0.00794 0.0
H1717 H 0.65148 0.66184 0.0533 0.0
H1718 H 0.67862 0.68784 0.07215 0.0
H1719 H 0.70839 0.71183 0.01595 0.0
H1720 H 0.68152 0.6858 0.99677 0.0
H1721 H 0.56611 0.64412 0.96801 0.0
H1722 H 0.58553 0.6371 0.99119 0.0
H1723 H 0.63529 0.66922 0.95291 0.0
H1724 H 0.61593 0.67647 0.92954 0.0
H1725 H 0.64356 0.67605 0.99465 0.0
H1726 H 0.6129 0.6226 0.94917 0.0
H1727 H 0.58582 0.59672 0.93015 0.0
H1728 H 0.55757 0.57031 0.98632 0.0
H1729 H 0.58437 0.5962 0.0057 0.0
C1730 C 0.67778 0.62766 0.04457 0.0
C1731 C 0.66604 0.61478 0.05977 0.0
C1732 C 0.67011 0.63523 0.03066 0.0
C1733 C 0.65064 0.63008 0.03183 0.0
C1734 C 0.63911 0.61775 0.0474 0.0
C1735 C 0.64672 0.61021 0.06125 0.0
C1736 C 0.64177 0.63645 0.0162 0.0
C1737 C 0.62614 0.62223 0.00518 0.0
C1738 C 0.64844 0.65611 0.01211 0.0
C1739 C 0.66459 0.67175 0.02362 0.0
C1740 C 0.66389 0.67256 0.04498 0.0
C1741 C 0.67921 0.68732 0.05572 0.0
C1742 C 0.69524 0.70144 0.04526 0.0
C1743 C 0.69597 0.70086 0.02403 0.0
C1744 C 0.6807 0.68611 0.01322 0.0
C1745 C 0.5812 0.64981 0.96452 0.0
C1746 C 0.58944 0.6607 0.94683 0.0
C1747 C 0.59227 0.64576 0.97778 0.0
C1748 C 0.61175 0.65245 0.97358 0.0
C1749 C 0.62025 0.6639 0.95634 0.0
C1750 C 0.60915 0.66795 0.94299 0.0
C1751 C 0.62288 0.64673 0.98691 0.0
C1752 C 0.63896 0.66101 0.99735 0.0
C1753 C 0.6167 0.6271 0.99047 0.0
C1754 C 0.60058 0.61143 0.97888 0.0
C1755 C 0.60085 0.61136 0.95747 0.0
C1756 C 0.58556 0.59667 0.94662 0.0
C1757 C 0.56997 0.5819 0.95702 0.0
C1758 C 0.56965 0.58177 0.97829 0.0
C1759 C 0.5849 0.59643 0.98921 0.0
H1760 H 0.55814 0.57055 0.94859 0.0
H1761 H 0.70708 0.71287 0.0536 0.0
H1762 H 0.03446 0.63832 0.5759 0.0
H1763 H 0.01072 0.62506 0.54867 0.0
H1764 H 0.04104 0.67861 0.51575 0.0
H1765 H 0.06498 0.69218 0.54314 0.0
H1766 H 0.00053 0.66165 0.51424 0.0
H1767 H 0.04861 0.64411 0.50181 0.0
H1768 H 0.06995 0.63134 0.51077 0.0
H1769 H 0.02077 0.57625 0.52418 0.0
H1770 H -0.00088 0.58877 0.51557 0.0
H1771 H 0.95079 0.61599 0.42173 0.0
H1772 H 0.97607 0.63484 0.44659 0.0
H1773 H 0.95507 0.58483 0.48522 0.0
H1774 H 0.92999 0.5659 0.46047 0.0
H1775 H 0.9935 0.6028 0.48119 0.0
H1776 H 0.94555 0.62067 0.49591 0.0
H1777 H 0.92392 0.63333 0.48781 0.0
H1778 H 0.9725 0.68751 0.47046 0.0
H1779 H 0.99441 0.67508 0.4782 0.0
C1780 C 0.03603 0.6474 0.563 0.0
C1781 C 0.05174 0.66624 0.56156 0.0
C1782 C 0.02245 0.63977 0.54744 0.0
C1783 C 0.02436 0.65076 0.5301 0.0
C1784 C 0.03942 0.6699 0.52902 0.0
C1785 C 0.05308 0.67759 0.54464 0.0
C1786 C 0.01112 0.64174 0.51274 0.0
C1787 C -0.00082 0.64898 0.50673 0.0
C1788 C 0.00928 0.62509 0.5032 0.0
C1789 C 0.02225 0.61743 0.50818 0.0
C1790 C 0.04234 0.62931 0.5068 0.0
C1791 C 0.0545 0.62211 0.51179 0.0
C1792 C 0.04672 0.60301 0.51807 0.0
C1793 C 0.02677 0.59104 0.51932 0.0
C1794 C 0.01455 0.59818 0.51436 0.0
C1795 C 0.95157 0.60902 0.43552 0.0
C1796 C 0.93839 0.58945 0.43914 0.0
C1797 C 0.96596 0.61983 0.44973 0.0
C1798 C 0.96733 0.61125 0.46779 0.0
C1799 C 0.95425 0.59171 0.47136 0.0
C1800 C 0.9399 0.58093 0.4572 0.0
C1801 C 0.98253 0.62239 0.48296 0.0
C1802 C 0.99493 0.61558 0.48852 0.0
C1803 C 0.98474 0.63939 0.49206 0.0
C1804 C 0.97159 0.64687 0.4874 0.0
C1805 C 0.9516 0.63523 0.49019 0.0
C1806 C 0.9393 0.64237 0.4857 0.0
C1807 C 0.94683 0.66119 0.47856 0.0
C1808 C 0.96669 0.67293 0.47595 0.0
C1809 C 0.97905 0.66584 0.4804 0.0
H1810 H 0.93728 0.6667 0.4751 0.0
H1811 H 0.05615 0.59747 0.5219 0.0
H1812 H 0.60753 0.96681 0.91583 0.0
H1813 H 0.62772 0.9916 0.94034 0.0
H1814 H 0.64195 0.95207 0.96931 0.0
H1815 H 0.62176 0.92707 0.94467 0.0
H1816 H 0.62805 0.96912 0.99593 0.0
H1817 H 0.67666 0.98922 0.94534 0.0
H1818 H 0.69062 0.99792 0.91091 0.0
H1819 H 0.68016 0.04544 0.90972 0.0
H1820 H 0.66587 0.03687 0.94404 0.0
H1821 H 0.67957 0.04362 0.06708 0.0
H1822 H 0.67443 0.01962 0.04116 0.0
H1823 H 0.6588 0.0498 0.9977 0.0
H1824 H 0.6644 0.0741 0.02332 0.0
H1825 H 0.67906 0.03581 0.97958 0.0
H1826 H 0.62465 0.01181 0.0257 0.0
H1827 H 0.60888 0.00297 0.05934 0.0
H1828 H 0.62862 0.96258 0.06786 0.0
H1829 H 0.64472 0.97138 0.03436 0.0
C1830 C 0.61513 0.96343 0.92726 0.0
C1831 C 0.61298 0.94497 0.92842 0.0
C1832 C 0.62677 0.97766 0.94115 0.0
C1833 C 0.63643 0.97368 0.9565 0.0
C1834 C 0.63468 0.9554 0.95746 0.0
C1835 C 0.62317 0.94118 0.9434 0.0
C1836 C 0.64672 0.98813 0.97258 0.0
C1837 C 0.63958 0.98357 0.9925 0.0
C1838 C 0.66143 0.00705 0.96791 0.0
C1839 C 0.67009 0.01233 0.94726 0.0
C1840 C 0.6772 0.00145 0.93769 0.0
C1841 C 0.6852 0.00637 0.91819 0.0
C1842 C 0.68625 0.0222 0.90812 0.0
C1843 C 0.67934 0.03318 0.91755 0.0
C1844 C 0.67132 0.02831 0.93704 0.0
C1845 C 0.67527 0.04527 0.05192 0.0
C1846 C 0.67214 0.06061 0.04729 0.0
C1847 C 0.67234 0.03155 0.03715 0.0
C1848 C 0.66594 0.03277 0.01762 0.0
C1849 C 0.66374 0.04858 0.01269 0.0
C1850 C 0.66684 0.06241 0.02738 0.0
C1851 C 0.66 0.0169 0.00277 0.0
C1852 C 0.6679 0.02122 0.98311 0.0
C1853 C 0.64581 0.99777 0.00759 0.0
C1854 C 0.63608 0.99243 0.02767 0.0
C1855 C 0.62574 0.00115 0.03483 0.0
C1856 C 0.61673 0.99613 0.05385 0.0
C1857 C 0.6178 0.98227 0.06576 0.0
C1858 C 0.62784 0.97335 0.05864 0.0
C1859 C 0.63691 0.97834 0.03964 0.0
H1860 H 0.61081 0.97839 0.08048 0.0
H1861 H 0.69245 0.02599 0.89303 0.0
H1862 H 0.64109 0.5908 0.42394 0.0
H1863 H 0.63275 0.60806 0.44869 0.0
H1864 H 0.68925 0.63235 0.47554 0.0
H1865 H 0.69777 0.61496 0.45075 0.0
H1866 H 0.66037 0.61665 0.50392 0.0
H1867 H 0.67846 0.66129 0.44945 0.0
H1868 H 0.67948 0.6721 0.41411 0.0
H1869 H 0.61862 0.65093 0.41578 0.0
H1870 H 0.61715 0.63974 0.45104 0.0
H1871 H 0.63 0.6674 0.57046 0.0
H1872 H 0.64915 0.6611 0.54585 0.0
H1873 H 0.59994 0.63346 0.50592 0.0
H1874 H 0.58087 0.63997 0.53015 0.0
H1875 H 0.63191 0.65702 0.48508 0.0
H1876 H 0.61327 0.60749 0.53679 0.0
H1877 H 0.61167 0.59568 0.57181 0.0
H1878 H 0.67343 0.62568 0.5749 0.0
H1879 H 0.67537 0.63786 0.53996 0.0
C1880 C 0.65184 0.59993 0.43498 0.0
C1881 C 0.67008 0.60148 0.43542 0.0
C1882 C 0.64708 0.60988 0.44904 0.0
C1883 C 0.66047 0.62164 0.46378 0.0
C1884 C 0.67878 0.62341 0.46419 0.0
C1885 C 0.68361 0.61351 0.45001 0.0
C1886 C 0.65467 0.63099 0.47945 0.0
C1887 C 0.65458 0.62588 0.49989 0.0
C1888 C 0.64689 0.64279 0.47409 0.0
C1889 C 0.64769 0.64958 0.45289 0.0
C1890 C 0.66526 0.65882 0.44224 0.0
C1891 C 0.66593 0.66503 0.42223 0.0
C1892 C 0.64912 0.66218 0.4127 0.0
C1893 C 0.63162 0.65314 0.42318 0.0
C1894 C 0.63087 0.64688 0.4432 0.0
C1895 C 0.62327 0.65998 0.55643 0.0
C1896 C 0.6039 0.65411 0.55227 0.0
C1897 C 0.63423 0.65639 0.54241 0.0
C1898 C 0.62592 0.64672 0.52413 0.0
C1899 C 0.60665 0.64102 0.51991 0.0
C1900 C 0.59574 0.64466 0.53383 0.0
C1901 C 0.63699 0.6421 0.5094 0.0
C1902 C 0.6381 0.64815 0.48916 0.0
C1903 C 0.64564 0.63111 0.51492 0.0
C1904 C 0.64446 0.62377 0.53589 0.0
C1905 C 0.6265 0.61169 0.54501 0.0
C1906 C 0.62553 0.60491 0.56482 0.0
C1907 C 0.64244 0.60998 0.5756 0.0
C1908 C 0.66034 0.6218 0.56655 0.0
C1909 C 0.66139 0.62864 0.54675 0.0
H1910 H 0.64166 0.60472 0.59094 0.0
H1911 H 0.64967 0.667 0.3972 0.0
H1912 H 0.92865 0.57042 0.02775 0.0
H1913 H 0.95695 0.58648 0.00593 0.0
H1914 H 0.9787 0.63792 0.04247 0.0
H1915 H 0.95057 0.62173 0.06477 0.0
H1916 H 0.97131 0.61672 0.98224 0.0
H1917 H 0.02774 0.65984 0.04416 0.0
H1918 H 0.03272 0.65814 0.08101 0.0
H1919 H 0.99696 0.59662 0.07934 0.0
H1920 H 0.99197 0.59794 0.04246 0.0
H1921 H 0.05929 0.67497 0.93111 0.0
H1922 H 0.0324 0.66543 0.95466 0.0
H1923 H 0.0474 0.62708 0.98517 0.0
H1924 H 0.07464 0.63701 0.96214 0.0
H1925 H 0.0366 0.6437 0.01212 0.0
H1926 H 0.01155 0.61095 0.94834 0.0
H1927 H 0.00619 0.60867 0.91123 0.0
H1928 H 0.97841 0.64245 0.91618 0.0
H1929 H 0.98384 0.64513 0.95332 0.0
C1930 C 0.9394 0.58518 0.03112 0.0
C1931 C 0.93745 0.59476 0.04808 0.0
C1932 C 0.95554 0.59437 0.01858 0.0
C1933 C 0.97003 0.61332 0.0227 0.0
C1934 C 0.96783 0.62317 0.03922 0.0
C1935 C 0.95173 0.61392 0.0519 0.0
C1936 C 0.98763 0.62242 0.00997 0.0
C1937 C 0.9856 0.62274 0.98879 0.0
C1938 C 0.00625 0.63002 0.01849 0.0
C1939 C 0.00931 0.62903 0.04062 0.0
C1940 C 0.02098 0.64596 0.05166 0.0
C1941 C 0.0238 0.64506 0.07255 0.0
C1942 C 0.0151 0.62729 0.08252 0.0
C1943 C 0.00362 0.61038 0.07161 0.0
C1944 C 0.00078 0.6112 0.05073 0.0
C1945 C 0.05695 0.66463 0.94296 0.0
C1946 C 0.06896 0.6566 0.94467 0.0
C1947 C 0.04156 0.65916 0.95637 0.0
C1948 C 0.0377 0.6453 0.97145 0.0
C1949 C 0.0501 0.63779 0.97364 0.0
C1950 C 0.06563 0.64343 0.96041 0.0
C1951 C 0.02027 0.63787 0.98438 0.0
C1952 C 0.02234 0.63792 0.0056 0.0
C1953 C 0.00162 0.63006 0.97586 0.0
C1954 C -0.00171 0.62842 0.95356 0.0
C1955 C 0.00443 0.618 0.94149 0.0
C1956 C 0.00135 0.61662 0.92046 0.0
C1957 C 0.99202 0.62546 0.91134 0.0
C1958 C 0.98568 0.63565 0.92326 0.0
C1959 C 0.98874 0.63709 0.9443 0.0
H1960 H 0.98965 0.62437 0.89506 0.0
H1961 H 0.01728 0.62663 0.0987 0.0
H1962 H 0.33644 0.95037 0.57647 0.0
H1963 H 0.34378 0.97585 0.55166 0.0
H1964 H 0.36098 0.94704 0.5081 0.0
H1965 H 0.35382 0.92157 0.53282 0.0
H1966 H 0.38745 0.98496 0.51184 0.0
H1967 H 0.31912 0.94652 0.50215 0.0
H1968 H 0.28508 0.92913 0.51279 0.0
H1969 H 0.29032 0.98178 0.5354 0.0
H1970 H 0.32449 -0.00055 0.52514 0.0
H1971 H 0.39877 0.04194 0.42664 0.0
H1972 H 0.38561 0.01399 0.44908 0.0
H1973 H 0.3681 0.04317 0.49184 0.0
H1974 H 0.38096 0.07117 0.46926 0.0
H1975 H 0.34121 0.00498 0.48849 0.0
H1976 H 0.40938 0.04321 0.4994 0.0
H1977 H 0.44354 0.06094 0.4892 0.0
H1978 H 0.43873 0.00893 0.46515 0.0
H1979 H 0.40444 0.99093 0.47496 0.0
C1980 C 0.34168 0.9494 0.56157 0.0
C1981 C 0.34461 0.93399 0.55661 0.0
C1982 C 0.34577 0.96391 0.54739 0.0
C1983 C 0.35278 0.96322 0.52803 0.0
C1984 C 0.35555 0.94779 0.52298 0.0
C1985 C 0.35143 0.93325 0.53711 0.0
C1986 C 0.35816 0.97908 0.51336 0.0
C1987 C 0.37726 0.98914 0.50649 0.0
C1988 C 0.34498 0.98486 0.5069 0.0
C1989 C 0.32443 0.97427 0.51306 0.0
C1990 C 0.31307 0.95436 0.50955 0.0
C1991 C 0.29374 0.94446 0.51548 0.0
C1992 C 0.28556 0.95434 0.52481 0.0
C1993 C 0.29669 0.97415 0.52819 0.0
C1994 C 0.31603 0.98412 0.5223 0.0
C1995 C 0.39196 0.04237 0.44072 0.0
C1996 C 0.39112 0.05886 0.44632 0.0
C1997 C 0.38447 0.02639 0.45353 0.0
C1998 C 0.37622 0.02669 0.47226 0.0
C1999 C 0.3745 0.04272 0.47746 0.0
C2000 C 0.3819 0.05871 0.46458 0.0
C2001 C 0.37044 0.0107 0.48687 0.0
C2002 C 0.35134 0.00071 0.4938 0.0
C2003 C 0.38364 0.00501 0.49351 0.0
C2004 C 0.4043 0.01576 0.48774 0.0
C2005 C 0.41557 0.03558 0.49181 0.0
C2006 C 0.43496 0.04568 0.48611 0.0
C2007 C 0.44329 0.03608 0.47648 0.0
C2008 C 0.43225 0.01635 0.47259 0.0
C2009 C 0.41284 0.00619 0.47823 0.0
H2010 H 0.4583 0.04392 0.47208 0.0
H2011 H 0.27059 0.94665 0.52939 0.0
H2012 H 0.38271 0.29925 0.03592 0.0
H2013 H 0.36515 0.30918 0.01304 0.0
H2014 H 0.37861 0.35756 0.05209 0.0
H2015 H 0.39614 0.34779 0.07499 0.0
H2016 H 0.34086 0.3396 0.03697 0.0
H2017 H 0.40632 0.36416 0.01255 0.0
H2018 H 0.43373 0.36078 0.00091 0.0
H2019 H 0.39931 0.32393 0.95218 0.0
H2020 H 0.3716 0.3269 0.96372 0.0
H2021 H 0.34192 0.41255 0.97637 0.0
H2022 H 0.34766 0.39182 -0.001 0.0
H2023 H 0.33739 0.35263 0.94929 0.0
H2024 H 0.33204 0.37353 0.92642 0.0
H2025 H 0.36923 0.36062 0.96814 0.0
H2026 H 0.3052 0.34011 0.98909 0.0
H2027 H 0.27766 0.34335 0.00049 0.0
H2028 H 0.30811 0.37155 0.05512 0.0
H2029 H 0.33596 0.36874 0.04393 0.0
C2030 C 0.38172 0.31186 0.03977 0.0
C2031 C 0.39099 0.32287 0.05713 0.0
C2032 C 0.37169 0.3175 0.02669 0.0
C2033 C 0.37075 0.33417 0.03084 0.0
C2034 C 0.37918 0.34463 0.04866 0.0
C2035 C 0.38929 0.3391 0.06165 0.0
C2036 C 0.3624 0.34173 0.01591 0.0
C2037 C 0.34703 0.34425 0.02192 0.0
C2038 C 0.37017 0.34727 0.99612 0.0
C2039 C 0.38684 0.34555 0.98914 0.0
C2040 C 0.40456 0.35521 -0.00054 0.0
C2041 C 0.42015 0.35339 0.99286 0.0
C2042 C 0.41824 0.34209 0.97586 0.0
C2043 C 0.40075 0.33264 0.96538 0.0
C2044 C 0.3851 0.33439 0.97193 0.0
C2045 C 0.34069 0.39943 0.97028 0.0
C2046 C 0.33664 0.39474 0.94958 0.0
C2047 C 0.34383 0.38751 0.98328 0.0
C2048 C 0.34274 0.37056 0.97588 0.0
C2049 C 0.33827 0.36563 0.95531 0.0
C2050 C 0.33523 0.37759 0.94228 0.0
C2051 C 0.34781 0.35888 0.98925 0.0
C2052 C 0.36267 0.35562 0.98299 0.0
C2053 C 0.33947 0.3526 0.00875 0.0
C2054 C 0.32274 0.35432 0.01559 0.0
C2055 C 0.30609 0.34713 0.00347 0.0
C2056 C 0.29041 0.34887 0.00991 0.0
C2057 C 0.29115 0.35768 0.0285 0.0
C2058 C 0.30756 0.36474 0.04072 0.0
C2059 C 0.32329 0.36305 0.03434 0.0
H2060 H 0.27899 0.35901 0.03346 0.0
H2061 H 0.43033 0.3407 0.97077 0.0
H2062 H 0.042 0.37322 0.56504 0.0
H2063 H 0.0187 0.35503 0.53828 0.0
H2064 H 0.04149 0.40636 0.50147 0.0
H2065 H 0.06457 0.42468 0.52819 0.0
H2066 H 0.00327 0.38914 0.50472 0.0
H2067 H 0.04973 0.36961 0.48951 0.0
H2068 H 0.07058 0.35596 0.49714 0.0
H2069 H 0.021 0.30206 0.51327 0.0
H2070 H -0.00014 0.31548 0.506 0.0
H2071 H 0.95667 0.35333 0.41277 0.0
H2072 H 0.98272 0.36617 0.43759 0.0
H2073 H 0.95325 0.31353 0.47218 0.0
H2074 H 0.92704 0.30036 0.44714 0.0
H2075 H 0.99369 0.32951 0.47118 0.0
H2076 H 0.94739 0.34899 0.48646 0.0
H2077 H 0.92643 0.36249 0.47866 0.0
H2078 H 0.97592 0.41656 0.46281 0.0
H2079 H 0.99717 0.40328 0.47022 0.0
C2080 C 0.04216 0.38059 0.55116 0.0
C2081 C 0.05503 0.40042 0.54877 0.0
C2082 C 0.02891 0.37015 0.53585 0.0
C2083 C 0.02845 0.37934 0.51788 0.0
C2084 C 0.0416 0.39901 0.51526 0.0
C2085 C 0.05479 0.40945 0.53055 0.0
C2086 C 0.01343 0.3689 0.50233 0.0
C2087 C 0.00137 0.37625 0.4972 0.0
C2088 C 0.01054 0.35172 0.49307 0.0
C2089 C 0.02323 0.34362 0.49741 0.0
C2090 C 0.04328 0.3549 0.49485 0.0
C2091 C 0.05515 0.34719 0.49908 0.0
C2092 C 0.04713 0.32817 0.50574 0.0
C2093 C 0.0272 0.3168 0.50814 0.0
C2094 C 0.01527 0.32444 0.50395 0.0
C2095 C 0.9558 0.34435 0.4255 0.0
C2096 C 0.93966 0.32595 0.4282 0.0
C2097 C 0.97072 0.35171 0.43964 0.0
C2098 C 0.96969 0.34091 0.45685 0.0
C2099 C 0.95421 0.32208 0.45899 0.0
C2100 C 0.93926 0.31462 0.44473 0.0
C2101 C 0.98394 0.35005 0.47334 0.0
C2102 C 0.99567 0.3424 0.47875 0.0
C2103 C 0.98658 0.36698 0.48297 0.0
C2104 C 0.97385 0.37508 0.47873 0.0
C2105 C 0.95379 0.36372 0.48118 0.0
C2106 C 0.94186 0.37133 0.47684 0.0
C2107 C 0.94983 0.39036 0.4702 0.0
C2108 C 0.96976 0.40182 0.46793 0.0
C2109 C 0.98176 0.39426 0.47222 0.0
H2110 H 0.94057 0.39623 0.46685 0.0
H2111 H 0.05634 0.32223 0.509 0.0
H2112 H 0.47019 0.07131 0.10226 0.0
H2113 H 0.49702 0.06523 0.09877 0.0
H2114 H 0.53726 0.12615 0.10298 0.0
H2115 H 0.51048 0.13241 0.10651 0.0
H2116 H 0.54626 0.10784 0.07207 0.0
H2117 H 0.53015 0.09944 0.14338 0.0
H2118 H 0.50843 0.08584 0.17289 0.0
H2119 H 0.49518 0.02892 0.15542 0.0
H2120 H 0.51662 0.04217 0.12562 0.0
H2121 H 0.63214 0.1082 0.09689 0.0
H2122 H 0.60394 0.11218 0.09598 0.0
H2123 H 0.56681 0.0505 0.09653 0.0
H2124 H 0.59505 0.04635 0.0977 0.0
H2125 H 0.55514 0.0677 0.12361 0.0
H2126 H 0.57242 0.07589 0.05336 0.0
H2127 H 0.59393 0.08918 0.02366 0.0
H2128 H 0.60467 0.14586 0.03849 0.0
H2129 H 0.58343 0.13295 0.06847 0.0
C2130 C 0.48474 0.08344 0.10237 0.0
C2131 C 0.48822 0.10235 0.10478 0.0
C2132 C 0.50004 0.07992 0.10042 0.0
C2133 C 0.51909 0.09523 0.10079 0.0
C2134 C 0.52264 0.11415 0.10268 0.0
C2135 C 0.50733 0.11768 0.10478 0.0
C2136 C 0.53533 0.09144 0.09966 0.0
C2137 C 0.54836 0.09925 0.08343 0.0
C2138 C 0.53768 0.07976 0.11421 0.0
C2139 C 0.52482 0.07177 0.13215 0.0
C2140 C 0.52247 0.08401 0.14573 0.0
C2141 C 0.51024 0.07637 0.16253 0.0
C2142 C 0.50039 0.05653 0.16599 0.0
C2143 C 0.50279 0.04428 0.15269 0.0
C2144 C 0.515 0.05185 0.13585 0.0
C2145 C 0.61799 0.09544 0.0967 0.0
C2146 C 0.61584 0.07694 0.09737 0.0
C2147 C 0.60188 0.09776 0.09608 0.0
C2148 C 0.58328 0.08164 0.09597 0.0
C2149 C 0.58105 0.06313 0.09656 0.0
C2150 C 0.59719 0.06079 0.09718 0.0
C2151 C 0.56622 0.08422 0.09606 0.0
C2152 C 0.55301 0.07619 0.11212 0.0
C2153 C 0.56369 0.09563 0.08131 0.0
C2154 C 0.57646 0.10347 0.06327 0.0
C2155 C 0.57949 0.09122 0.05039 0.0
C2156 C 0.59161 0.09868 0.03349 0.0
C2157 C 0.6007 0.11836 0.02922 0.0
C2158 C 0.59764 0.13062 0.04183 0.0
C2159 C 0.58554 0.12323 0.05877 0.0
H2160 H 0.61007 0.12411 0.01612 0.0
H2161 H 0.49093 0.05064 0.17901 0.0
H2162 H 0.50692 0.64816 0.61725 0.0
H2163 H 0.4748 0.61965 0.61805 0.0
H2164 H 0.49902 0.58406 0.60165 0.0
H2165 H 0.53106 0.61251 0.60028 0.0
H2166 H 0.46731 0.57364 0.58074 0.0
H2167 H 0.48572 0.58709 0.65131 0.0
H2168 H 0.49666 0.60709 0.68232 0.0
H2169 H 0.44699 0.6141 0.68008 0.0
H2170 H 0.43589 0.59433 0.64889 0.0
H2171 H 0.39365 0.48171 0.61021 0.0
H2172 H 0.42367 0.51235 0.60795 0.0
H2173 H 0.39316 0.5427 0.6211 0.0
H2174 H 0.36295 0.51198 0.62369 0.0
H2175 H 0.42655 0.557 0.64263 0.0
H2176 H 0.40719 0.54129 0.57298 0.0
H2177 H 0.39634 0.52048 0.54257 0.0
H2178 H 0.44808 0.51705 0.54356 0.0
H2179 H 0.45913 0.53764 0.57416 0.0
C2180 C 0.5054 0.63426 0.6138 0.0
C2181 C 0.52154 0.63257 0.60879 0.0
C2182 C 0.48704 0.61797 0.61433 0.0
C2183 C 0.48453 0.59968 0.61017 0.0
C2184 C 0.5006 0.59802 0.60492 0.0
C2185 C 0.51892 0.6143 0.6042 0.0
C2186 C 0.46521 0.5822 0.6113 0.0
C2187 C 0.45849 0.56992 0.59435 0.0
C2188 C 0.45347 0.57759 0.62886 0.0
C2189 C 0.46009 0.58941 0.64765 0.0
C2190 C 0.47721 0.59302 0.65735 0.0
C2191 C 0.48343 0.60429 0.67497 0.0
C2192 C 0.47256 0.61191 0.68313 0.0
C2193 C 0.45542 0.60822 0.67372 0.0
C2194 C 0.44915 0.59697 0.65608 0.0
C2195 C 0.39327 0.49488 0.61264 0.0
C2196 C 0.37588 0.49441 0.61706 0.0
C2197 C 0.41045 0.51239 0.61125 0.0
C2198 C 0.41058 0.52979 0.61406 0.0
C2199 C 0.39332 0.52941 0.61879 0.0
C2200 C 0.37609 0.51185 0.62023 0.0
C2201 C 0.42883 0.54834 0.61219 0.0
C2202 C 0.43533 0.56082 0.62898 0.0
C2203 C 0.44042 0.55309 0.59452 0.0
C2204 C 0.43392 0.5409 0.57596 0.0
C2205 C 0.4162 0.536 0.56679 0.0
C2206 C 0.41002 0.52426 0.54951 0.0
C2207 C 0.42149 0.51742 0.54116 0.0
C2208 C 0.4392 0.52236 0.55005 0.0
C2209 C 0.44544 0.53408 0.56735 0.0
H2210 H 0.41668 0.50832 0.52779 0.0
H2211 H 0.47739 0.62063 0.69678 0.0
H2212 H 0.89621 0.38467 0.15289 0.0
H2213 H 0.89311 0.41346 0.15152 0.0
H2214 H 0.91115 0.42209 0.0887 0.0
H2215 H 0.91425 0.39324 0.08988 0.0
H2216 H 0.92913 0.45579 0.11193 0.0
H2217 H 0.86534 0.40363 0.09849 0.0
H2218 H 0.83614 0.37243 0.10514 0.0
H2219 H 0.82781 0.39397 0.16182 0.0
H2220 H 0.85716 0.42523 0.15566 0.0
H2221 H 0.90109 0.52316 0.08423 0.0
H2222 H 0.90367 0.49414 0.08599 0.0
H2223 H 0.88223 0.48431 0.14762 0.0
H2224 H 0.87939 0.51328 0.14595 0.0
H2225 H 0.86605 0.45119 0.12546 0.0
H2226 H 0.92955 0.50333 0.13906 0.0
H2227 H 0.9588 0.53458 0.13269 0.0
H2228 H 0.96783 0.5132 0.07626 0.0
H2229 H 0.93847 0.48189 0.08215 0.0
C2230 C 0.89961 0.39273 0.1388 0.0
C2231 C 0.90541 0.38665 0.12146 0.0
C2232 C 0.89775 0.40912 0.13803 0.0
C2233 C 0.90173 0.41976 0.11996 0.0
C2234 C 0.90798 0.41402 0.10277 0.0
C2235 C 0.90968 0.39752 0.10346 0.0
C2236 C 0.89921 0.4368 0.11896 0.0
C2237 C 0.9153 0.45478 0.11462 0.0
C2238 C 0.88125 0.43546 0.12299 0.0
C2239 C 0.86357 0.4167 0.12671 0.0
C2240 C 0.85739 0.40166 0.11247 0.0
C2241 C 0.84079 0.38398 0.11613 0.0
C2242 C 0.83016 0.3812 0.13392 0.0
C2243 C 0.83608 0.39613 0.14806 0.0
C2244 C 0.85269 0.41384 0.14449 0.0
C2245 C 0.89683 0.5148 0.09815 0.0
C2246 C 0.89013 0.52058 0.115 0.0
C2247 C 0.89839 0.49826 0.09914 0.0
C2248 C 0.8934 0.48724 0.11703 0.0
C2249 C 0.88621 0.49266 0.13369 0.0
C2250 C 0.88462 0.50922 0.13272 0.0
C2251 C 0.89596 0.47022 0.11837 0.0
C2252 C 0.87989 0.45223 0.12279 0.0
C2253 C 0.91396 0.47156 0.11449 0.0
C2254 C 0.9317 0.49033 0.11096 0.0
C2255 C 0.93769 0.50534 0.12521 0.0
C2256 C 0.9543 0.52305 0.1217 0.0
C2257 C 0.96514 0.52589 0.10406 0.0
C2258 C 0.95941 0.51099 0.08991 0.0
C2259 C 0.94279 0.49325 0.09334 0.0
H2260 H 0.97799 0.53962 0.10136 0.0
H2261 H 0.8173 0.3675 0.13673 0.0
H2262 H 0.36287 0.85709 0.63883 0.0
H2263 H 0.39234 0.85509 0.63776 0.0
H2264 H 0.41824 0.90385 0.59713 0.0
H2265 H 0.38884 0.90576 0.59784 0.0
H2266 H 0.42518 0.87604 0.58468 0.0
H2267 H 0.42911 0.90869 0.64789 0.0
H2268 H 0.4177 0.91224 0.68161 0.0
H2269 H 0.4168 0.86103 0.70236 0.0
H2270 H 0.42797 0.85705 0.66865 0.0
H2271 H 0.52446 0.90993 0.5937 0.0
H2272 H 0.49221 0.9058 0.59451 0.0
H2273 H 0.47362 0.85768 0.63547 0.0
H2274 H 0.50605 0.86193 0.63505 0.0
H2275 H 0.46127 0.88142 0.648 0.0
H2276 H 0.46017 0.85042 0.5855 0.0
H2277 H 0.47202 0.84731 0.55188 0.0
H2278 H 0.46774 0.89538 0.5297 0.0
H2279 H 0.45613 0.89897 0.56329 0.0
C2280 C 0.37483 0.86736 0.62964 0.0
C2281 C 0.37354 0.88164 0.6185 0.0
C2282 C 0.39167 0.86623 0.6291 0.0
C2283 C 0.40753 0.87944 0.61752 0.0
C2284 C 0.40616 0.8935 0.60615 0.0
C2285 C 0.38935 0.89462 0.60665 0.0
C2286 C 0.42572 0.87887 0.61732 0.0
C2287 C 0.43316 0.87737 0.59851 0.0
C2288 C 0.43583 0.88004 0.63542 0.0
C2289 C 0.42916 0.88246 0.65569 0.0
C2290 C 0.42633 0.89811 0.65959 0.0
C2291 C 0.41994 0.90021 0.67871 0.0
C2292 C 0.41647 0.88684 0.6941 0.0
C2293 C 0.41945 0.87136 0.69042 0.0
C2294 C 0.42583 0.86918 0.67132 0.0
C2295 C 0.51352 0.89841 0.60284 0.0
C2296 C 0.51782 0.88623 0.61429 0.0
C2297 C 0.49505 0.89601 0.6032 0.0
C2298 C 0.48044 0.88126 0.61482 0.0
C2299 C 0.48468 0.86911 0.62635 0.0
C2300 C 0.5032 0.87155 0.62606 0.0
C2301 C 0.46091 0.87893 0.61532 0.0
C2302 C 0.4532 0.87987 0.63419 0.0
C2303 C 0.45055 0.87725 0.59726 0.0
C2304 C 0.45741 0.87505 0.57698 0.0
C2305 C 0.46188 0.86042 0.5735 0.0
C2306 C 0.46853 0.85855 0.55444 0.0
C2307 C 0.47066 0.87116 0.53867 0.0
C2308 C 0.46609 0.88563 0.54193 0.0
C2309 C 0.45945 0.88757 0.56097 0.0
H2310 H 0.47582 0.8697 0.52393 0.0
H2311 H 0.41153 0.88849 0.7089 0.0
H2312 H 0.64068 0.50366 0.13374 0.0
H2313 H 0.61213 0.47148 0.13362 0.0
H2314 H 0.58461 0.49071 0.09069 0.0
H2315 H 0.61289 0.52286 0.09087 0.0
H2316 H 0.56075 0.47061 0.12138 0.0
H2317 H 0.60354 0.46316 0.07551 0.0
H2318 H 0.63397 0.46475 0.06563 0.0
H2319 H 0.62667 0.42506 0.11333 0.0
H2320 H 0.59632 0.42346 0.12369 0.0
H2321 H 0.48342 0.38371 0.08631 0.0
H2322 H 0.51381 0.41411 0.08773 0.0
H2323 H 0.5359 0.38974 0.13126 0.0
H2324 H 0.50553 0.3591 0.12979 0.0
H2325 H 0.56296 0.41179 0.10263 0.0
H2326 H 0.51971 0.41832 0.14777 0.0
H2327 H 0.48939 0.41683 0.15793 0.0
H2328 H 0.49774 0.4584 0.11202 0.0
H2329 H 0.52799 0.45993 0.10138 0.0
C2330 C 0.62857 0.50102 0.12424 0.0
C2331 C 0.62906 0.51581 0.11231 0.0
C2332 C 0.6123 0.48261 0.12414 0.0
C2333 C 0.59632 0.47869 0.11203 0.0
C2334 C 0.59678 0.49344 0.10016 0.0
C2335 C 0.61299 0.5118 0.10025 0.0
C2336 C 0.5789 0.45933 0.11189 0.0
C2337 C 0.56121 0.45778 0.11706 0.0
C2338 C 0.57961 0.44254 0.10684 0.0
C2339 C 0.59777 0.44335 0.10051 0.0
C2340 C 0.6085 0.45489 0.084 0.0
C2341 C 0.62573 0.45578 0.07829 0.0
C2342 C 0.63229 0.44506 0.08889 0.0
C2343 C 0.62159 0.43338 0.10516 0.0
C2344 C 0.60437 0.43247 0.11095 0.0
C2345 C 0.49476 0.38474 0.09611 0.0
C2346 C 0.49199 0.36903 0.10808 0.0
C2347 C 0.5121 0.40215 0.09694 0.0
C2348 C 0.52698 0.40425 0.10984 0.0
C2349 C 0.52456 0.38842 0.12127 0.0
C2350 C 0.50718 0.37095 0.12044 0.0
C2351 C 0.5448 0.42317 0.11176 0.0
C2352 C 0.56254 0.42462 0.10701 0.0
C2353 C 0.54418 0.43991 0.11724 0.0
C2354 C 0.52604 0.43911 0.12367 0.0
C2355 C 0.51501 0.42703 0.13974 0.0
C2356 C 0.49785 0.4262 0.1456 0.0
C2357 C 0.49162 0.43748 0.13559 0.0
C2358 C 0.50258 0.44965 0.11974 0.0
C2359 C 0.51974 0.45053 0.1138 0.0
H2360 H 0.47833 0.43681 0.14015 0.0
H2361 H 0.64563 0.44578 0.08445 0.0
H2362 H 0.13072 0.49943 0.6013 0.0
H2363 H 0.12794 0.52844 0.60196 0.0
H2364 H 0.06616 0.49337 0.60658 0.0
H2365 H 0.06876 0.46434 0.60564 0.0
H2366 H 0.07642 0.52189 0.57923 0.0
H2367 H 0.09354 0.51599 0.64821 0.0
H2368 H 0.11355 0.51296 0.67483 0.0
H2369 H 0.162 0.56671 0.65617 0.0
H2370 H 0.14233 0.56993 0.62925 0.0
H2371 H 0.05163 0.59039 0.61226 0.0
H2372 H 0.05676 0.56288 0.61027 0.0
H2373 H 0.11807 0.60138 0.60592 0.0
H2374 H 0.1131 0.62903 0.60814 0.0
H2375 H 0.10957 0.57214 0.63204 0.0
H2376 H 0.0931 0.57871 0.56377 0.0
H2377 H 0.07382 0.58223 0.53672 0.0
H2378 H 0.025 0.52797 0.55344 0.0
H2379 H 0.04401 0.52418 0.58072 0.0
C2380 C 0.11654 0.49789 0.60244 0.0
C2381 C 0.09997 0.47957 0.6035 0.0
C2382 C 0.11499 0.51448 0.60289 0.0
C2383 C 0.09685 0.51305 0.60453 0.0
C2384 C 0.08029 0.49479 0.60532 0.0
C2385 C 0.08182 0.47821 0.60484 0.0
C2386 C 0.09504 0.53053 0.60545 0.0
C2387 C 0.08349 0.53277 0.59091 0.0
C2388 C 0.10472 0.54498 0.62035 0.0
C2389 C 0.11652 0.5431 0.63659 0.0
C2390 C 0.1085 0.52709 0.64968 0.0
C2391 C 0.11977 0.52535 0.66484 0.0
C2392 C 0.13905 0.53961 0.66715 0.0
C2393 C 0.14708 0.55566 0.65434 0.0
C2394 C 0.13587 0.55746 0.63915 0.0
C2395 C 0.06621 0.59303 0.61091 0.0
C2396 C 0.08195 0.6119 0.61029 0.0
C2397 C 0.06911 0.57729 0.60968 0.0
C2398 C 0.08778 0.58011 0.60769 0.0
C2399 C 0.10355 0.59891 0.60741 0.0
C2400 C 0.10067 0.61468 0.60863 0.0
C2401 C 0.09079 0.56338 0.60596 0.0
C2402 C 0.10256 0.56129 0.62032 0.0
C2403 C 0.08141 0.54911 0.59084 0.0
C2404 C 0.06993 0.55125 0.5744 0.0
C2405 C 0.07822 0.56759 0.56177 0.0
C2406 C 0.06734 0.56963 0.54638 0.0
C2407 C 0.04816 0.55538 0.54341 0.0
C2408 C 0.03985 0.53901 0.55578 0.0
C2409 C 0.05068 0.53689 0.57118 0.0
H2410 H 0.03976 0.55699 0.53149 0.0
H2411 H 0.14775 0.53824 0.67889 0.0
H2412 H 0.90876 0.51867 0.39337 0.0
H2413 H 0.90666 0.48729 0.39188 0.0
H2414 H 0.85202 0.46362 0.361 0.0
H2415 H 0.85391 0.49504 0.36255 0.0
H2416 H 0.85163 0.43991 0.39143 0.0
H2417 H 0.89109 0.47339 0.33421 0.0
H2418 H 0.91802 0.50043 0.31622 0.0
H2419 H 0.95854 0.49446 0.35378 0.0
H2420 H 0.93184 0.46755 0.3722 0.0
H2421 H 0.85184 0.35353 0.36362 0.0
H2422 H 0.85056 0.38338 0.36265 0.0
H2423 H 0.9059 0.4135 0.39231 0.0
H2424 H 0.90741 0.38389 0.39317 0.0
H2425 H 0.90423 0.43322 0.35992 0.0
H2426 H 0.86489 0.40108 0.41836 0.0
H2427 H 0.83808 0.3743 0.43675 0.0
H2428 H 0.79741 0.37781 0.39707 0.0
H2429 H 0.82402 0.40446 0.37824 0.0
C2430 C 0.89629 0.50682 0.38624 0.0
C2431 C 0.88154 0.50937 0.37798 0.0
C2432 C 0.89514 0.48891 0.38535 0.0
C2433 C 0.87929 0.47321 0.37611 0.0
C2434 C 0.86439 0.47559 0.36813 0.0
C2435 C 0.86554 0.49356 0.36898 0.0
C2436 C 0.87838 0.45434 0.37489 0.0
C2437 C 0.86294 0.43834 0.38423 0.0
C2438 C 0.89334 0.45243 0.36581 0.0
C2439 C 0.90945 0.46855 0.35469 0.0
C2440 C 0.90574 0.47794 0.33874 0.0
C2441 C 0.92097 0.49322 0.32845 0.0
C2442 C 0.93998 0.49918 0.33388 0.0
C2443 C 0.94381 0.48983 0.34959 0.0
C2444 C 0.92863 0.47455 0.35995 0.0
C2445 C 0.86371 0.36649 0.36999 0.0
C2446 C 0.87974 0.36634 0.37845 0.0
C2447 C 0.86292 0.38352 0.36949 0.0
C2448 C 0.8781 0.40062 0.3775 0.0
C2449 C 0.89406 0.40047 0.386 0.0
C2450 C 0.89486 0.3835 0.38653 0.0
C2451 C 0.87764 0.41884 0.37675 0.0
C2452 C 0.89283 0.43474 0.36698 0.0
C2453 C 0.86246 0.42063 0.38545 0.0
C2454 C 0.84645 0.40461 0.39675 0.0
C2455 C 0.85024 0.39603 0.41344 0.0
C2456 C 0.83508 0.3809 0.42396 0.0
C2457 C 0.81606 0.37432 0.41804 0.0
C2458 C 0.81216 0.3829 0.40161 0.0
C2459 C 0.82727 0.39802 0.39102 0.0
H2460 H 0.80434 0.36261 0.42622 0.0
H2461 H 0.95175 0.51102 0.3259 0.0
H2462 H 0.49871 0.88657 0.8494 0.0
H2463 H 0.46944 0.88883 0.85046 0.0
H2464 H 0.48976 0.92337 0.90492 0.0
H2465 H 0.51899 0.92104 0.90411 0.0
H2466 H 0.45204 0.89595 0.90792 0.0
H2467 H 0.49263 0.94433 0.85966 0.0
H2468 H 0.51321 0.95691 0.82919 0.0
H2469 H 0.46586 0.91826 0.79134 0.0
H2470 H 0.44506 0.90526 0.82163 0.0
H2471 H 0.38714 0.93175 0.90809 0.0
H2472 H 0.4164 0.92944 0.90702 0.0
H2473 H 0.3964 0.89562 0.85205 0.0
H2474 H 0.36723 0.89807 0.85283 0.0
H2475 H 0.43393 0.9226 0.84929 0.0
H2476 H 0.39327 0.87423 0.89735 0.0
H2477 H 0.37257 0.86156 0.92771 0.0
H2478 H 0.41984 0.89988 0.96584 0.0
H2479 H 0.44076 0.91299 0.93565 0.0
C2480 C 0.49695 0.89462 0.86163 0.0
C2481 C 0.51122 0.9037 0.87662 0.0
C2482 C 0.48024 0.89595 0.86217 0.0
C2483 C 0.47754 0.90645 0.87764 0.0
C2484 C 0.49159 0.91523 0.89283 0.0
C2485 C 0.50831 0.91392 0.8923 0.0
C2486 C 0.46009 0.90835 0.87796 0.0
C2487 C 0.4482 0.902 0.89522 0.0
C2488 C 0.45489 0.91586 0.86118 0.0
C2489 C 0.46735 0.92369 0.84294 0.0
C2490 C 0.48665 0.93841 0.84486 0.0
C2491 C 0.49835 0.94563 0.82762 0.0
C2492 C 0.49086 0.93835 0.80835 0.0
C2493 C 0.47165 0.92386 0.80628 0.0
C2494 C 0.4599 0.91657 0.82348 0.0
C2495 C 0.38899 0.92387 0.89574 0.0
C2496 C 0.37483 0.91503 0.88059 0.0
C2497 C 0.40567 0.92249 0.8952 0.0
C2498 C 0.40845 0.91216 0.87959 0.0
C2499 C 0.39451 0.90363 0.86425 0.0
C2500 C 0.37783 0.905 0.86476 0.0
C2501 C 0.42587 0.9102 0.87926 0.0
C2502 C 0.43776 0.91654 0.862 0.0
C2503 C 0.43105 0.90266 0.89602 0.0
C2504 C 0.41853 0.89473 0.91421 0.0
C2505 C 0.39921 0.88007 0.91219 0.0
C2506 C 0.38745 0.87279 0.92937 0.0
C2507 C 0.39487 0.87995 0.94869 0.0
C2508 C 0.4141 0.89437 0.95087 0.0
C2509 C 0.42592 0.90172 0.93373 0.0
H2510 H 0.38574 0.87429 0.96197 0.0
H2511 H 0.49994 0.94396 0.79502 0.0
H2512 H 0.47099 0.37229 0.407 0.0
H2513 H 0.50389 0.39951 0.40704 0.0
H2514 H 0.50057 0.40608 0.34225 0.0
H2515 H 0.46764 0.37878 0.34201 0.0
H2516 H 0.53525 0.40925 0.35421 0.0
H2517 H 0.49483 0.43528 0.37353 0.0
H2518 H 0.47002 0.43711 0.39401 0.0
H2519 H 0.50387 0.44678 0.44799 0.0
H2520 H 0.52877 0.44473 0.42785 0.0
H2521 H 0.61358 0.50425 0.3421 0.0
H2522 H 0.58243 0.4746 0.34242 0.0
H2523 H 0.58443 0.47305 0.40801 0.0
H2524 H 0.61537 0.50303 0.40784 0.0
H2525 H 0.55058 0.46659 0.39623 0.0
H2526 H 0.59154 0.44167 0.37742 0.0
H2527 H 0.61643 0.43949 0.35747 0.0
H2528 H 0.58208 0.42728 0.30346 0.0
H2529 H 0.55708 0.42964 0.32304 0.0
C2530 C 0.47726 0.37947 0.39273 0.0
C2531 C 0.46665 0.37348 0.37452 0.0
C2532 C 0.49605 0.39504 0.3928 0.0
C2533 C 0.50456 0.40491 0.37469 0.0
C2534 C 0.49422 0.39866 0.35639 0.0
C2535 C 0.47538 0.38313 0.35631 0.0
C2536 C 0.52408 0.42207 0.37494 0.0
C2537 C 0.5386 0.4219 0.3632 0.0
C2538 C 0.52848 0.43832 0.38711 0.0
C2539 C 0.51357 0.43965 0.39921 0.0
C2540 C 0.49691 0.43764 0.38979 0.0
C2541 C 0.48285 0.43875 0.40133 0.0
C2542 C 0.48534 0.44201 0.4223 0.0
C2543 C 0.50194 0.44423 0.43175 0.0
C2544 C 0.51604 0.44311 0.42028 0.0
C2545 C 0.60747 0.49752 0.35659 0.0
C2546 C 0.61693 0.506 0.37495 0.0
C2547 C 0.58969 0.48051 0.35674 0.0
C2548 C 0.58117 0.47147 0.37523 0.0
C2549 C 0.59072 0.47978 0.39357 0.0
C2550 C 0.60842 0.49689 0.39344 0.0
C2551 C 0.5619 0.45386 0.37549 0.0
C2552 C 0.54735 0.45394 0.3873 0.0
C2553 C 0.55753 0.4375 0.36348 0.0
C2554 C 0.57251 0.43601 0.35167 0.0
C2555 C 0.58935 0.43867 0.36126 0.0
C2556 C 0.60347 0.43737 0.35002 0.0
C2557 C 0.60086 0.4333 0.3292 0.0
C2558 C 0.5841 0.43046 0.31958 0.0
C2559 C 0.56994 0.43175 0.33075 0.0
H2560 H 0.61181 0.4323 0.32053 0.0
H2561 H 0.47444 0.44286 0.43121 0.0
H2562 H 0.13134 0.49453 0.85 0.0
H2563 H 0.13472 0.52661 0.84925 0.0
H2564 H 0.0924 0.50986 0.89704 0.0
H2565 H 0.08881 0.47783 0.89778 0.0
H2566 H 0.08543 0.52792 0.8664 0.0
H2567 H 0.13982 0.53839 0.9071 0.0
H2568 H 0.1697 0.53784 0.91443 0.0
H2569 H 0.19733 0.57479 0.86323 0.0
H2570 H 0.1675 0.57534 0.85543 0.0
H2571 H 0.09784 0.61593 0.90166 0.0
H2572 H 0.09769 0.58552 0.8992 0.0
H2573 H 0.13927 0.60856 0.8505 0.0
H2574 H 0.13965 0.63923 0.85294 0.0
H2575 H 0.14754 0.58792 0.87842 0.0
H2576 H 0.09353 0.57888 0.83896 0.0
H2577 H 0.06368 0.57958 0.83201 0.0
H2578 H 0.03527 0.53988 0.881 0.0
H2579 H 0.06505 0.53915 0.88844 0.0
C2580 C 0.12279 0.4977 0.86038 0.0
C2581 C 0.10981 0.48363 0.87395 0.0
C2582 C 0.12479 0.51605 0.85998 0.0
C2583 C 0.11389 0.52063 0.87318 0.0
C2584 C 0.10093 0.5066 0.8867 0.0
C2585 C 0.09894 0.48831 0.88714 0.0
C2586 C 0.11563 0.5399 0.87278 0.0
C2587 C 0.09897 0.54102 0.86922 0.0
C2588 C 0.13343 0.55702 0.87586 0.0
C2589 C 0.15136 0.55672 0.88054 0.0
C2590 C 0.15221 0.54626 0.89729 0.0
C2591 C 0.16915 0.54598 0.90156 0.0
C2592 C 0.18538 0.55623 0.88926 0.0
C2593 C 0.18473 0.56683 0.87272 0.0
C2594 C 0.16782 0.56714 0.86837 0.0
C2595 C 0.10702 0.61461 0.89045 0.0
C2596 C 0.11866 0.62997 0.87738 0.0
C2597 C 0.10686 0.59718 0.88903 0.0
C2598 C 0.11826 0.59472 0.87448 0.0
C2599 C 0.13032 0.61017 0.86178 0.0
C2600 C 0.13047 0.62765 0.86316 0.0
C2601 C 0.11726 0.57586 0.87242 0.0
C2602 C 0.13404 0.57482 0.87545 0.0
C2603 C 0.09957 0.55877 0.86885 0.0
C2604 C 0.08158 0.55909 0.86436 0.0
C2605 C 0.08096 0.57041 0.84835 0.0
C2606 C 0.06404 0.57079 0.84431 0.0
C2607 C 0.0476 0.55982 0.85608 0.0
C2608 C 0.04802 0.54839 0.8719 0.0
C2609 C 0.06491 0.54797 0.87602 0.0
H2610 H 0.03451 0.56013 0.85293 0.0
H2611 H 0.19848 0.556 0.89259 0.0
H2612 H 0.63604 0.13934 0.35429 0.0
H2613 H 0.60689 0.14191 0.35572 0.0
H2614 H 0.58553 0.10133 0.40541 0.0
H2615 H 0.61435 0.09844 0.40389 0.0
H2616 H 0.55851 0.0922 0.37725 0.0
H2617 H 0.60368 0.14968 0.41308 0.0
H2618 H 0.63384 0.18059 0.41736 0.0
H2619 H 0.61926 0.20397 0.36606 0.0
H2620 H 0.58912 0.17309 0.3613 0.0
H2621 H 0.48263 0.10247 0.41528 0.0
H2622 H 0.5139 0.10449 0.41215 0.0
H2623 H 0.52738 0.14195 0.36019 0.0
H2624 H 0.49605 0.14012 0.36326 0.0
H2625 H 0.55851 0.15358 0.38672 0.0
H2626 H 0.51272 0.09635 0.35182 0.0
H2627 H 0.48247 0.06548 0.34787 0.0
H2628 H 0.49836 0.04162 0.39768 0.0
H2629 H 0.5286 0.07246 0.40213 0.0
C2630 C 0.62517 0.13104 0.36558 0.0
C2631 C 0.62748 0.11864 0.37893 0.0
C2632 C 0.60856 0.13258 0.36642 0.0
C2633 C 0.5941 0.12189 0.38075 0.0
C2634 C 0.59649 0.10967 0.3942 0.0
C2635 C 0.613 0.10807 0.39332 0.0
C2636 C 0.57612 0.12285 0.38143 0.0
C2637 C 0.55853 0.1056 0.37954 0.0
C2638 C 0.57617 0.14042 0.3838 0.0
C2639 C 0.59425 0.15901 0.38669 0.0
C2640 C 0.60698 0.16136 0.40261 0.0
C2641 C 0.62406 0.17889 0.40514 0.0
C2642 C 0.6285 0.19422 0.39195 0.0
C2643 C 0.61583 0.19207 0.37624 0.0
C2644 C 0.59874 0.17457 0.37363 0.0
C2645 C 0.49227 0.11126 0.40326 0.0
C2646 C 0.48679 0.12101 0.38941 0.0
C2647 C 0.51012 0.11237 0.40148 0.0
C2648 C 0.52281 0.12315 0.38577 0.0
C2649 C 0.51774 0.13351 0.37238 0.0
C2650 C 0.49983 0.1324 0.37414 0.0
C2651 C 0.54099 0.12289 0.38296 0.0
C2652 C 0.55856 0.14022 0.38434 0.0
C2653 C 0.54097 0.1054 0.38014 0.0
C2654 C 0.52286 0.08678 0.37741 0.0
C2655 C 0.50971 0.08457 0.36203 0.0
C2656 C 0.49257 0.06707 0.35969 0.0
C2657 C 0.48848 0.05161 0.37255 0.0
C2658 C 0.50154 0.05361 0.38775 0.0
C2659 C 0.51869 0.0711 0.39017 0.0
H2660 H 0.4752 0.03807 0.37071 0.0
H2661 H 0.64173 0.20777 0.39394 0.0
H2662 H 0.49182 0.63923 0.86885 0.0
H2663 H 0.46218 0.60794 0.86952 0.0
H2664 H 0.48899 0.58613 0.91027 0.0
H2665 H 0.51869 0.61721 0.90949 0.0
H2666 H 0.47081 0.56139 0.87992 0.0
H2667 H 0.45575 0.59737 0.92752 0.0
H2668 H 0.45211 0.6246 0.93922 0.0
H2669 H 0.41024 0.61267 0.89241 0.0
H2670 H 0.41383 0.58552 0.88024 0.0
H2671 H 0.38805 0.4752 0.91061 0.0
H2672 H 0.41647 0.50737 0.91088 0.0
H2673 H 0.38896 0.52692 0.86832 0.0
H2674 H 0.3604 0.49481 0.86806 0.0
H2675 H 0.40715 0.5529 0.89907 0.0
H2676 H 0.42223 0.51683 0.85163 0.0
H2677 H 0.42587 0.48956 0.84008 0.0
H2678 H 0.46785 0.50175 0.88684 0.0
H2679 H 0.46425 0.52893 0.89886 0.0
C2680 C 0.49138 0.6278 0.87803 0.0
C2681 C 0.50762 0.63071 0.8891 0.0
C2682 C 0.47441 0.60995 0.87845 0.0
C2683 C 0.47334 0.59475 0.89007 0.0
C2684 C 0.48951 0.59766 0.9012 0.0
C2685 C 0.50646 0.61546 0.90076 0.0
C2686 C 0.45559 0.57562 0.89022 0.0
C2687 C 0.45694 0.5595 0.88437 0.0
C2688 C 0.43741 0.57324 0.89553 0.0
C2689 C 0.43521 0.58954 0.90284 0.0
C2690 C 0.44588 0.60065 0.91961 0.0
C2691 C 0.44381 0.61605 0.92635 0.0
C2692 C 0.431 0.6204 0.91653 0.0
C2693 C 0.42019 0.60931 0.89998 0.0
C2694 C 0.42222 0.5939 0.89317 0.0
C2695 C 0.38801 0.48634 0.90135 0.0
C2696 C 0.372 0.48242 0.88922 0.0
C2697 C 0.40428 0.5047 0.90147 0.0
C2698 C 0.40489 0.51945 0.88944 0.0
C2699 C 0.38878 0.51571 0.87768 0.0
C2700 C 0.37251 0.49734 0.8775 0.0
C2701 C 0.42244 0.53871 0.88892 0.0
C2702 C 0.42104 0.55482 0.89463 0.0
C2703 C 0.44059 0.5411 0.8835 0.0
C2704 C 0.44283 0.5248 0.87627 0.0
C2705 C 0.43212 0.5136 0.85956 0.0
C2706 C 0.43419 0.49817 0.8529 0.0
C2707 C 0.44704 0.49389 0.86275 0.0
C2708 C 0.45788 0.50506 0.87924 0.0
C2709 C 0.45584 0.52049 0.88597 0.0
H2710 H 0.44863 0.48195 0.85757 0.0
H2711 H 0.42941 0.63232 0.92177 0.0
loop_
_geom_bond_atom_site_label_1
_geom_bond_atom_site_label_2
_geom_bond_distance
_geom_bond_site_symmetry_2
_ccdc_geom_bond_type
C0 O1 1.160 . S
C0 O7 1.185 . S
O1 C0 1.160 . S
O2 Zn3 1.899 . S
O2 C10 1.284 . S
Zn3 O2 1.899 . S
Zn3 O4 2.032 . S
Zn3 O7 2.086 . S
Zn3 O12 1.977 . S
O4 Zn3 2.032 . S
O4 C8 1.278 . S
C5 O6 1.203 . S
C5 O12 1.267 . S
O6 C5 1.203 . S
O7 C0 1.185 . S
O7 Zn3 2.086 . S
C8 O4 1.278 . S
C8 O9 1.211 . S
O9 C8 1.211 . S
C10 O2 1.284 . S
C10 O11 1.273 . S
O11 C10 1.273 . S
O12 Zn3 1.977 . S
O12 C5 1.267 . S
C13 O14 1.160 . S
C13 O20 1.185 . S
O14 C13 1.160 . S
O15 Zn16 1.899 . S
O15 C23 1.284 . S
Zn16 O15 1.899 . S
Zn16 O17 2.032 . S
Zn16 O20 2.086 . S
Zn16 O25 1.977 . S
O17 Zn16 2.032 . S
O17 C21 1.278 . S
C18 O19 1.203 . S
C18 O25 1.267 . S
O19 C18 1.203 . S
O20 C13 1.185 . S
O20 Zn16 2.086 . S
C21 O17 1.278 . S
C21 O22 1.211 . S
O22 C21 1.211 . S
C23 O15 1.284 . S
C23 O24 1.273 . S
O24 C23 1.273 . S
O25 Zn16 1.977 . S
O25 C18 1.267 . S
C26 O27 1.160 . S
C26 O33 1.185 . S
O27 C26 1.160 . S
O28 Zn29 1.899 . S
O28 C36 1.284 . S
Zn29 O28 1.899 . S
Zn29 O30 2.032 . S
Zn29 O33 2.086 . S
Zn29 O38 1.977 . S
O30 Zn29 2.032 . S
O30 C34 1.278 . S
C31 O32 1.203 . S
C31 O38 1.267 . S
O32 C31 1.203 . S
O33 C26 1.185 . S
O33 Zn29 2.086 . S
C34 O30 1.278 . S
C34 O35 1.211 . S
O35 C34 1.211 . S
C36 O28 1.284 . S
C36 O37 1.273 . S
O37 C36 1.273 . S
O38 Zn29 1.977 . S
O38 C31 1.267 . S
C39 O40 1.160 . S
C39 O46 1.185 . S
O40 C39 1.160 . S
O41 Zn42 1.899 . S
O41 C49 1.284 . S
Zn42 O41 1.899 . S
Zn42 O43 2.032 . S
Zn42 O46 2.086 . S
Zn42 O51 1.977 . S
O43 Zn42 2.032 . S
O43 C47 1.278 . S
C44 O45 1.203 . S
C44 O51 1.267 . S
O45 C44 1.203 . S
O46 C39 1.185 . S
O46 Zn42 2.086 . S
C47 O43 1.278 . S
C47 O48 1.211 . S
O48 C47 1.211 . S
C49 O41 1.284 . S
C49 O50 1.273 . S
O50 C49 1.273 . S
O51 Zn42 1.977 . S
O51 C44 1.267 . S
C52 O53 1.160 . S
C52 O59 1.185 . S
O53 C52 1.160 . S
O54 Zn55 1.899 . S
O54 C62 1.284 . S
Zn55 O54 1.899 . S
Zn55 O56 2.032 . S
Zn55 O59 2.086 . S
Zn55 O64 1.977 . S
O56 Zn55 2.032 . S
O56 C60 1.278 . S
C57 O58 1.203 . S
C57 O64 1.267 . S
O58 C57 1.203 . S
O59 C52 1.185 . S
O59 Zn55 2.086 . S
C60 O56 1.278 . S
C60 O61 1.211 . S
O61 C60 1.211 . S
C62 O54 1.284 . S
C62 O63 1.273 . S
O63 C62 1.273 . S
O64 Zn55 1.977 . S
O64 C57 1.267 . S
C65 O66 1.160 . S
C65 O72 1.185 . S
O66 C65 1.160 . S
O67 Zn68 1.899 . S
O67 C75 1.284 . S
Zn68 O67 1.899 . S
Zn68 O69 2.032 . S
Zn68 O72 2.086 . S
Zn68 O77 1.977 . S
O69 Zn68 2.032 . S
O69 C73 1.278 . S
C70 O71 1.203 . S
C70 O77 1.267 . S
O71 C70 1.203 . S
O72 C65 1.185 . S
O72 Zn68 2.086 . S
C73 O69 1.278 . S
C73 O74 1.211 . S
O74 C73 1.211 . S
C75 O67 1.284 . S
C75 O76 1.273 . S
O76 C75 1.273 . S
O77 Zn68 1.977 . S
O77 C70 1.267 . S
C78 O79 1.160 . S
C78 O85 1.185 . S
O79 C78 1.160 . S
O80 Zn81 1.899 . S
O80 C88 1.284 . S
Zn81 O80 1.899 . S
Zn81 O82 2.032 . S
Zn81 O85 2.086 . S
Zn81 O90 1.977 . S
O82 Zn81 2.032 . S
O82 C86 1.278 . S
C83 O84 1.203 . S
C83 O90 1.267 . S
O84 C83 1.203 . S
O85 C78 1.185 . S
O85 Zn81 2.086 . S
C86 O82 1.278 . S
C86 O87 1.211 . S
O87 C86 1.211 . S
C88 O80 1.284 . S
C88 O89 1.273 . S
O89 C88 1.273 . S
O90 Zn81 1.977 . S
O90 C83 1.267 . S
C91 O92 1.160 . S
C91 O98 1.185 . S
O92 C91 1.160 . S
O93 Zn94 1.899 . S
O93 C101 1.284 . S
Zn94 O93 1.899 . S
Zn94 O95 2.032 . S
Zn94 O98 2.086 . S
Zn94 O103 1.977 . S
O95 Zn94 2.032 . S
O95 C99 1.278 . S
C96 O97 1.203 . S
C96 O103 1.267 . S
O97 C96 1.203 . S
O98 C91 1.185 . S
O98 Zn94 2.086 . S
C99 O95 1.278 . S
C99 O100 1.211 . S
O100 C99 1.211 . S
C101 O93 1.284 . S
C101 O102 1.273 . S
O102 C101 1.273 . S
O103 Zn94 1.977 . S
O103 C96 1.267 . S
C104 O105 1.160 . S
C104 O111 1.185 . S
O105 C104 1.160 . S
O106 Zn107 1.899 . S
O106 C114 1.284 . S
Zn107 O106 1.899 . S
Zn107 O108 2.032 . S
Zn107 O111 2.086 . S
Zn107 O116 1.977 . S
O108 Zn107 2.032 . S
O108 C112 1.278 . S
C109 O110 1.203 . S
C109 O116 1.267 . S
O110 C109 1.203 . S
O111 C104 1.185 . S
O111 Zn107 2.086 . S
C112 O108 1.278 . S
C112 O113 1.211 . S
O113 C112 1.211 . S
C114 O106 1.284 . S
C114 O115 1.273 . S
O115 C114 1.273 . S
O116 Zn107 1.977 . S
O116 C109 1.267 . S
C117 O118 1.160 . S
C117 O124 1.185 . S
O118 C117 1.160 . S
O119 Zn120 1.899 . S
O119 C127 1.284 . S
Zn120 O119 1.899 . S
Zn120 O121 2.032 . S
Zn120 O124 2.086 . S
Zn120 O129 1.977 . S
O121 Zn120 2.032 . S
O121 C125 1.278 . S
C122 O123 1.203 . S
C122 O129 1.267 . S
O123 C122 1.203 . S
O124 C117 1.185 . S
O124 Zn120 2.086 . S
C125 O121 1.278 . S
C125 O126 1.211 . S
O126 C125 1.211 . S
C127 O119 1.284 . S
C127 O128 1.273 . S
O128 C127 1.273 . S
O129 Zn120 1.977 . S
O129 C122 1.267 . S
C130 O131 1.160 . S
C130 O137 1.185 . S
O131 C130 1.160 . S
O132 Zn133 1.899 . S
O132 C140 1.284 . S
Zn133 O132 1.899 . S
Zn133 O134 2.032 . S
Zn133 O137 2.086 . S
Zn133 O142 1.977 . S
O134 Zn133 2.032 . S
O134 C138 1.278 . S
C135 O136 1.203 . S
C135 O142 1.267 . S
O136 C135 1.203 . S
O137 C130 1.185 . S
O137 Zn133 2.086 . S
C138 O134 1.278 . S
C138 O139 1.211 . S
O139 C138 1.211 . S
C140 O132 1.284 . S
C140 O141 1.273 . S
O141 C140 1.273 . S
O142 Zn133 1.977 . S
O142 C135 1.267 . S
C143 O144 1.160 . S
C143 O150 1.185 . S
O144 C143 1.160 . S
O145 Zn146 1.899 . S
O145 C153 1.284 . S
Zn146 O145 1.899 . S
Zn146 O147 2.032 . S
Zn146 O150 2.086 . S
Zn146 O155 1.977 . S
O147 Zn146 2.032 . S
O147 C151 1.278 . S
C148 O149 1.203 . S
C148 O155 1.267 . S
O149 C148 1.203 . S
O150 C143 1.185 . S
O150 Zn146 2.086 . S
C151 O147 1.278 . S
C151 O152 1.211 . S
O152 C151 1.211 . S
C153 O145 1.284 . S
C153 O154 1.273 . S
O154 C153 1.273 . S
O155 Zn146 1.977 . S
O155 C148 1.267 . S
C156 O157 1.160 . S
C156 O163 1.185 . S
O157 C156 1.160 . S
O158 Zn159 1.899 . S
O158 C166 1.284 . S
Zn159 O158 1.899 . S
Zn159 O160 2.032 . S
Zn159 O163 2.086 . S
Zn159 O168 1.977 . S
O160 Zn159 2.032 . S
O160 C164 1.278 . S
C161 O162 1.203 . S
C161 O168 1.267 . S
O162 C161 1.203 . S
O163 C156 1.185 . S
O163 Zn159 2.086 . S
C164 O160 1.278 . S
C164 O165 1.211 . S
O165 C164 1.211 . S
C166 O158 1.284 . S
C166 O167 1.273 . S
O167 C166 1.273 . S
O168 Zn159 1.977 . S
O168 C161 1.267 . S
C169 O170 1.160 . S
C169 O176 1.185 . S
O170 C169 1.160 . S
O171 Zn172 1.899 . S
O171 C179 1.284 . S
Zn172 O171 1.899 . S
Zn172 O173 2.032 . S
Zn172 O176 2.086 . S
Zn172 O181 1.977 . S
O173 Zn172 2.032 . S
O173 C177 1.278 . S
C174 O175 1.203 . S
C174 O181 1.267 . S
O175 C174 1.203 . S
O176 C169 1.185 . S
O176 Zn172 2.086 . S
C177 O173 1.278 . S
C177 O178 1.211 . S
O178 C177 1.211 . S
C179 O171 1.284 . S
C179 O180 1.273 . S
O180 C179 1.273 . S
O181 Zn172 1.977 . S
O181 C174 1.267 . S
C182 O183 1.160 . S
C182 O189 1.185 . S
O183 C182 1.160 . S
O184 Zn185 1.899 . S
O184 C192 1.284 . S
Zn185 O184 1.899 . S
Zn185 O186 2.032 . S
Zn185 O189 2.086 . S
Zn185 O194 1.977 . S
O186 Zn185 2.032 . S
O186 C190 1.278 . S
C187 O188 1.203 . S
C187 O194 1.267 . S
O188 C187 1.203 . S
O189 C182 1.185 . S
O189 Zn185 2.086 . S
C190 O186 1.278 . S
C190 O191 1.211 . S
O191 C190 1.211 . S
C192 O184 1.284 . S
C192 O193 1.273 . S
O193 C192 1.273 . S
O194 Zn185 1.977 . S
O194 C187 1.267 . S
C195 O196 1.160 . S
C195 O202 1.185 . S
O196 C195 1.160 . S
O197 Zn198 1.899 . S
O197 C205 1.284 . S
Zn198 O197 1.899 . S
Zn198 O199 2.032 . S
Zn198 O202 2.086 . S
Zn198 O207 1.977 . S
O199 Zn198 2.032 . S
O199 C203 1.278 . S
C200 O201 1.203 . S
C200 O207 1.267 . S
O201 C200 1.203 . S
O202 C195 1.185 . S
O202 Zn198 2.086 . S
C203 O199 1.278 . S
C203 O204 1.211 . S
O204 C203 1.211 . S
C205 O197 1.284 . S
C205 O206 1.273 . S
O206 C205 1.273 . S
O207 Zn198 1.977 . S
O207 C200 1.267 . S
C208 O209 1.160 . S
C208 O215 1.185 . S
O209 C208 1.160 . S
O210 Zn211 1.899 . S
O210 C218 1.284 . S
Zn211 O210 1.899 . S
Zn211 O212 2.032 . S
Zn211 O215 2.086 . S
Zn211 O220 1.977 . S
O212 Zn211 2.032 . S
O212 C216 1.278 . S
C213 O214 1.203 . S
C213 O220 1.267 . S
O214 C213 1.203 . S
O215 C208 1.185 . S
O215 Zn211 2.086 . S
C216 O212 1.278 . S
C216 O217 1.211 . S
O217 C216 1.211 . S
C218 O210 1.284 . S
C218 O219 1.273 . S
O219 C218 1.273 . S
O220 Zn211 1.977 . S
O220 C213 1.267 . S
C221 O222 1.160 . S
C221 O228 1.185 . S
O222 C221 1.160 . S
O223 Zn224 1.899 . S
O223 C231 1.284 . S
Zn224 O223 1.899 . S
Zn224 O225 2.032 . S
Zn224 O228 2.086 . S
Zn224 O233 1.977 . S
O225 Zn224 2.032 . S
O225 C229 1.278 . S
C226 O227 1.203 . S
C226 O233 1.267 . S
O227 C226 1.203 . S
O228 C221 1.185 . S
O228 Zn224 2.086 . S
C229 O225 1.278 . S
C229 O230 1.211 . S
O230 C229 1.211 . S
C231 O223 1.284 . S
C231 O232 1.273 . S
O232 C231 1.273 . S
O233 Zn224 1.977 . S
O233 C226 1.267 . S
C234 O235 1.160 . S
C234 O241 1.185 . S
O235 C234 1.160 . S
O236 Zn237 1.899 . S
O236 C244 1.284 . S
Zn237 O236 1.899 . S
Zn237 O238 2.032 . S
Zn237 O241 2.086 . S
Zn237 O246 1.977 . S
O238 Zn237 2.032 . S
O238 C242 1.278 . S
C239 O240 1.203 . S
C239 O246 1.267 . S
O240 C239 1.203 . S
O241 C234 1.185 . S
O241 Zn237 2.086 . S
C242 O238 1.278 . S
C242 O243 1.211 . S
O243 C242 1.211 . S
C244 O236 1.284 . S
C244 O245 1.273 . S
O245 C244 1.273 . S
O246 Zn237 1.977 . S
O246 C239 1.267 . S
C247 O248 1.160 . S
C247 O254 1.185 . S
O248 C247 1.160 . S
O249 Zn250 1.899 . S
O249 C257 1.284 . S
Zn250 O249 1.899 . S
Zn250 O251 2.032 . S
Zn250 O254 2.086 . S
Zn250 O259 1.977 . S
O251 Zn250 2.032 . S
O251 C255 1.278 . S
C252 O253 1.203 . S
C252 O259 1.267 . S
O253 C252 1.203 . S
O254 C247 1.185 . S
O254 Zn250 2.086 . S
C255 O251 1.278 . S
C255 O256 1.211 . S
O256 C255 1.211 . S
C257 O249 1.284 . S
C257 O258 1.273 . S
O258 C257 1.273 . S
O259 Zn250 1.977 . S
O259 C252 1.267 . S
C260 O261 1.160 . S
C260 O267 1.185 . S
O261 C260 1.160 . S
O262 Zn263 1.899 . S
O262 C270 1.284 . S
Zn263 O262 1.899 . S
Zn263 O264 2.032 . S
Zn263 O267 2.086 . S
Zn263 O272 1.977 . S
O264 Zn263 2.032 . S
O264 C268 1.278 . S
C265 O266 1.203 . S
C265 O272 1.267 . S
O266 C265 1.203 . S
O267 C260 1.185 . S
O267 Zn263 2.086 . S
C268 O264 1.278 . S
C268 O269 1.211 . S
O269 C268 1.211 . S
C270 O262 1.284 . S
C270 O271 1.273 . S
O271 C270 1.273 . S
O272 Zn263 1.977 . S
O272 C265 1.267 . S
C273 O274 1.160 . S
C273 O280 1.185 . S
O274 C273 1.160 . S
O275 Zn276 1.899 . S
O275 C283 1.284 . S
Zn276 O275 1.899 . S
Zn276 O277 2.032 . S
Zn276 O280 2.086 . S
Zn276 O285 1.977 . S
O277 Zn276 2.032 . S
O277 C281 1.278 . S
C278 O279 1.203 . S
C278 O285 1.267 . S
O279 C278 1.203 . S
O280 C273 1.185 . S
O280 Zn276 2.086 . S
C281 O277 1.278 . S
C281 O282 1.211 . S
O282 C281 1.211 . S
C283 O275 1.284 . S
C283 O284 1.273 . S
O284 C283 1.273 . S
O285 Zn276 1.977 . S
O285 C278 1.267 . S
C286 O287 1.160 . S
C286 O293 1.185 . S
O287 C286 1.160 . S
O288 Zn289 1.899 . S
O288 C296 1.284 . S
Zn289 O288 1.899 . S
Zn289 O290 2.032 . S
Zn289 O293 2.086 . S
Zn289 O298 1.977 . S
O290 Zn289 2.032 . S
O290 C294 1.278 . S
C291 O292 1.203 . S
C291 O298 1.267 . S
O292 C291 1.203 . S
O293 C286 1.185 . S
O293 Zn289 2.086 . S
C294 O290 1.278 . S
C294 O295 1.211 . S
O295 C294 1.211 . S
C296 O288 1.284 . S
C296 O297 1.273 . S
O297 C296 1.273 . S
O298 Zn289 1.977 . S
O298 C291 1.267 . S
C299 O300 1.160 . S
C299 O306 1.185 . S
O300 C299 1.160 . S
O301 Zn302 1.899 . S
O301 C309 1.284 . S
Zn302 O301 1.899 . S
Zn302 O303 2.032 . S
Zn302 O306 2.086 . S
Zn302 O311 1.977 . S
O303 Zn302 2.032 . S
O303 C307 1.278 . S
C304 O305 1.203 . S
C304 O311 1.267 . S
O305 C304 1.203 . S
O306 C299 1.185 . S
O306 Zn302 2.086 . S
C307 O303 1.278 . S
C307 O308 1.211 . S
O308 C307 1.211 . S
C309 O301 1.284 . S
C309 O310 1.273 . S
O310 C309 1.273 . S
O311 Zn302 1.977 . S
O311 C304 1.267 . S
H312 C330 0.951 . S
H313 C332 0.951 . S
H314 C334 0.950 . S
H315 C335 0.950 . S
H316 C337 0.950 . S
H317 C340 0.950 . S
H318 C341 0.950 . S
H319 C343 0.950 . S
H320 C344 0.950 . S
H321 C345 0.951 . S
H322 C347 0.951 . S
H323 C349 0.950 . S
H324 C350 0.950 . S
H325 C352 0.950 . S
H326 C355 0.950 . S
H327 C356 0.950 . S
H328 C358 0.950 . S
H329 C359 0.950 . S
C330 H312 0.951 . S
C330 C331 1.366 . S
C330 C332 1.388 . S
C331 C330 1.366 . S
C331 C335 1.385 . S
C332 H313 0.951 . S
C332 C330 1.388 . S
C332 C333 1.366 . S
C333 C332 1.366 . S
C333 C334 1.414 . S
C333 C336 1.499 . S
C334 H314 0.950 . S
C334 C333 1.414 . S
C334 C335 1.374 . S
C335 H315 0.950 . S
C335 C331 1.385 . S
C335 C334 1.374 . S
C336 C333 1.499 . S
C336 C337 1.373 . S
C336 C338 1.389 . S
C337 H316 0.950 . S
C337 C336 1.373 . S
C337 C353 1.377 . S
C338 C336 1.389 . S
C338 C339 1.524 . S
C338 C352 1.377 . S
C339 C338 1.524 . S
C339 C340 1.397 . S
C339 C344 1.363 . S
C340 H317 0.950 . S
C340 C339 1.397 . S
C340 C341 1.334 . S
C341 H318 0.950 . S
C341 C340 1.334 . S
C341 C342 1.287 . S
C342 C341 1.287 . S
C342 C343 1.524 . S
C342 H361 0.913 . S
C343 H319 0.950 . S
C343 C342 1.524 . S
C343 C344 1.415 . S
C344 H320 0.950 . S
C344 C339 1.363 . S
C344 C343 1.415 . S
C345 H321 0.951 . S
C345 C346 1.366 . S
C345 C347 1.388 . S
C346 C345 1.366 . S
C346 C350 1.385 . S
C347 H322 0.951 . S
C347 C345 1.388 . S
C347 C348 1.366 . S
C348 C347 1.366 . S
C348 C349 1.414 . S
C348 C351 1.499 . S
C349 H323 0.950 . S
C349 C348 1.414 . S
C349 C350 1.374 . S
C350 H324 0.950 . S
C350 C346 1.385 . S
C350 C349 1.374 . S
C351 C348 1.499 . S
C351 C352 1.373 . S
C351 C353 1.389 . S
C352 H325 0.950 . S
C352 C338 1.377 . S
C352 C351 1.373 . S
C353 C337 1.377 . S
C353 C351 1.389 . S
C353 C354 1.524 . S
C354 C353 1.524 . S
C354 C355 1.397 . S
C354 C359 1.363 . S
C355 H326 0.950 . S
C355 C354 1.397 . S
C355 C356 1.334 . S
C356 H327 0.950 . S
C356 C355 1.334 . S
C356 C357 1.287 . S
C357 C356 1.287 . S
C357 C358 1.524 . S
C357 H360 0.999 . S
C358 H328 0.950 . S
C358 C357 1.524 . S
C358 C359 1.415 . S
C359 H329 0.950 . S
C359 C354 1.363 . S
C359 C358 1.415 . S
H360 C357 0.999 . S
H361 C342 0.913 . S
H362 C380 0.951 . S
H363 C382 0.951 . S
H364 C384 0.950 . S
H365 C385 0.950 . S
H366 C387 0.950 . S
H367 C390 0.950 . S
H368 C391 0.950 . S
H369 C393 0.950 . S
H370 C394 0.950 . S
H371 C395 0.951 . S
H372 C397 0.951 . S
H373 C399 0.950 . S
H374 C400 0.950 . S
H375 C402 0.950 . S
H376 C405 0.950 . S
H377 C406 0.950 . S
H378 C408 0.950 . S
H379 C409 0.950 . S
C380 H362 0.951 . S
C380 C381 1.366 . S
C380 C382 1.388 . S
C381 C380 1.366 . S
C381 C385 1.385 . S
C382 H363 0.951 . S
C382 C380 1.388 . S
C382 C383 1.366 . S
C383 C382 1.366 . S
C383 C384 1.414 . S
C383 C386 1.499 . S
C384 H364 0.950 . S
C384 C383 1.414 . S
C384 C385 1.374 . S
C385 H365 0.950 . S
C385 C381 1.385 . S
C385 C384 1.374 . S
C386 C383 1.499 . S
C386 C387 1.373 . S
C386 C388 1.389 . S
C387 H366 0.950 . S
C387 C386 1.373 . S
C387 C403 1.377 . S
C388 C386 1.389 . S
C388 C389 1.524 . S
C388 C402 1.377 . S
C389 C388 1.524 . S
C389 C390 1.397 . S
C389 C394 1.363 . S
C390 H367 0.950 . S
C390 C389 1.397 . S
C390 C391 1.334 . S
C391 H368 0.950 . S
C391 C390 1.334 . S
C391 C392 1.287 . S
C392 C391 1.287 . S
C392 C393 1.524 . S
C392 H411 0.913 . S
C393 H369 0.950 . S
C393 C392 1.524 . S
C393 C394 1.415 . S
C394 H370 0.950 . S
C394 C389 1.363 . S
C394 C393 1.415 . S
C395 H371 0.951 . S
C395 C396 1.366 . S
C395 C397 1.388 . S
C396 C395 1.366 . S
C396 C400 1.385 . S
C397 H372 0.951 . S
C397 C395 1.388 . S
C397 C398 1.366 . S
C398 C397 1.366 . S
C398 C399 1.414 . S
C398 C401 1.499 . S
C399 H373 0.950 . S
C399 C398 1.414 . S
C399 C400 1.374 . S
C400 H374 0.950 . S
C400 C396 1.385 . S
C400 C399 1.374 . S
C401 C398 1.499 . S
C401 C402 1.373 . S
C401 C403 1.389 . S
C402 H375 0.950 . S
C402 C388 1.377 . S
C402 C401 1.373 . S
C403 C387 1.377 . S
C403 C401 1.389 . S
C403 C404 1.524 . S
C404 C403 1.524 . S
C404 C405 1.397 . S
C404 C409 1.363 . S
C405 H376 0.950 . S
C405 C404 1.397 . S
C405 C406 1.334 . S
C406 H377 0.950 . S
C406 C405 1.334 . S
C406 C407 1.287 . S
C407 C406 1.287 . S
C407 C408 1.524 . S
C407 H410 0.999 . S
C408 H378 0.950 . S
C408 C407 1.524 . S
C408 C409 1.415 . S
C409 H379 0.950 . S
C409 C404 1.363 . S
C409 C408 1.415 . S
H410 C407 0.999 . S
H411 C392 0.913 . S
H412 C430 0.951 . S
H413 C432 0.951 . S
H414 C434 0.950 . S
H415 C435 0.950 . S
H416 C437 0.950 . S
H417 C440 0.950 . S
H418 C441 0.950 . S
H419 C443 0.950 . S
H420 C444 0.950 . S
H421 C445 0.951 . S
H422 C447 0.951 . S
H423 C449 0.950 . S
H424 C450 0.950 . S
H425 C452 0.950 . S
H426 C455 0.950 . S
H427 C456 0.950 . S
H428 C458 0.950 . S
H429 C459 0.950 . S
C430 H412 0.951 . S
C430 C431 1.366 . S
C430 C432 1.388 . S
C431 C430 1.366 . S
C431 C435 1.385 . S
C432 H413 0.951 . S
C432 C430 1.388 . S
C432 C433 1.366 . S
C433 C432 1.366 . S
C433 C434 1.414 . S
C433 C436 1.499 . S
C434 H414 0.950 . S
C434 C433 1.414 . S
C434 C435 1.374 . S
C435 H415 0.950 . S
C435 C431 1.385 . S
C435 C434 1.374 . S
C436 C433 1.499 . S
C436 C437 1.373 . S
C436 C438 1.389 . S
C437 H416 0.950 . S
C437 C436 1.373 . S
C437 C453 1.377 . S
C438 C436 1.389 . S
C438 C439 1.524 . S
C438 C452 1.377 . S
C439 C438 1.524 . S
C439 C440 1.397 . S
C439 C444 1.363 . S
C440 H417 0.950 . S
C440 C439 1.397 . S
C440 C441 1.334 . S
C441 H418 0.950 . S
C441 C440 1.334 . S
C441 C442 1.287 . S
C442 C441 1.287 . S
C442 C443 1.524 . S
C442 H461 0.913 . S
C443 H419 0.950 . S
C443 C442 1.524 . S
C443 C444 1.415 . S
C444 H420 0.950 . S
C444 C439 1.363 . S
C444 C443 1.415 . S
C445 H421 0.951 . S
C445 C446 1.366 . S
C445 C447 1.388 . S
C446 C445 1.366 . S
C446 C450 1.385 . S
C447 H422 0.951 . S
C447 C445 1.388 . S
C447 C448 1.366 . S
C448 C447 1.366 . S
C448 C449 1.414 . S
C448 C451 1.499 . S
C449 H423 0.950 . S
C449 C448 1.414 . S
C449 C450 1.374 . S
C450 H424 0.950 . S
C450 C446 1.385 . S
C450 C449 1.374 . S
C451 C448 1.499 . S
C451 C452 1.373 . S
C451 C453 1.389 . S
C452 H425 0.950 . S
C452 C438 1.377 . S
C452 C451 1.373 . S
C453 C437 1.377 . S
C453 C451 1.389 . S
C453 C454 1.524 . S
C454 C453 1.524 . S
C454 C455 1.397 . S
C454 C459 1.363 . S
C455 H426 0.950 . S
C455 C454 1.397 . S
C455 C456 1.334 . S
C456 H427 0.950 . S
C456 C455 1.334 . S
C456 C457 1.287 . S
C457 C456 1.287 . S
C457 C458 1.524 . S
C457 H460 0.999 . S
C458 H428 0.950 . S
C458 C457 1.524 . S
C458 C459 1.415 . S
C459 H429 0.950 . S
C459 C454 1.363 . S
C459 C458 1.415 . S
H460 C457 0.999 . S
H461 C442 0.913 . S
H462 C480 0.951 . S
H463 C482 0.951 . S
H464 C484 0.950 . S
H465 C485 0.950 . S
H466 C487 0.950 . S
H467 C490 0.950 . S
H468 C491 0.950 . S
H469 C493 0.950 . S
H470 C494 0.950 . S
H471 C495 0.951 . S
H472 C497 0.951 . S
H473 C499 0.950 . S
H474 C500 0.950 . S
H475 C502 0.950 . S
H476 C505 0.950 . S
H477 C506 0.950 . S
H478 C508 0.950 . S
H479 C509 0.950 . S
C480 H462 0.951 . S
C480 C481 1.366 . S
C480 C482 1.388 . S
C481 C480 1.366 . S
C481 C485 1.385 . S
C482 H463 0.951 . S
C482 C480 1.388 . S
C482 C483 1.366 . S
C483 C482 1.366 . S
C483 C484 1.414 . S
C483 C486 1.499 . S
C484 H464 0.950 . S
C484 C483 1.414 . S
C484 C485 1.374 . S
C485 H465 0.950 . S
C485 C481 1.385 . S
C485 C484 1.374 . S
C486 C483 1.499 . S
C486 C487 1.373 . S
C486 C488 1.389 . S
C487 H466 0.950 . S
C487 C486 1.373 . S
C487 C503 1.377 . S
C488 C486 1.389 . S
C488 C489 1.524 . S
C488 C502 1.377 . S
C489 C488 1.524 . S
C489 C490 1.397 . S
C489 C494 1.363 . S
C490 H467 0.950 . S
C490 C489 1.397 . S
C490 C491 1.334 . S
C491 H468 0.950 . S
C491 C490 1.334 . S
C491 C492 1.287 . S
C492 C491 1.287 . S
C492 C493 1.524 . S
C492 H511 0.913 . S
C493 H469 0.950 . S
C493 C492 1.524 . S
C493 C494 1.415 . S
C494 H470 0.950 . S
C494 C489 1.363 . S
C494 C493 1.415 . S
C495 H471 0.951 . S
C495 C496 1.366 . S
C495 C497 1.388 . S
C496 C495 1.366 . S
C496 C500 1.385 . S
C497 H472 0.951 . S
C497 C495 1.388 . S
C497 C498 1.366 . S
C498 C497 1.366 . S
C498 C499 1.414 . S
C498 C501 1.499 . S
C499 H473 0.950 . S
C499 C498 1.414 . S
C499 C500 1.374 . S
C500 H474 0.950 . S
C500 C496 1.385 . S
C500 C499 1.374 . S
C501 C498 1.499 . S
C501 C502 1.373 . S
C501 C503 1.389 . S
C502 H475 0.950 . S
C502 C488 1.377 . S
C502 C501 1.373 . S
C503 C487 1.377 . S
C503 C501 1.389 . S
C503 C504 1.524 . S
C504 C503 1.524 . S
C504 C505 1.397 . S
C504 C509 1.363 . S
C505 H476 0.950 . S
C505 C504 1.397 . S
C505 C506 1.334 . S
C506 H477 0.950 . S
C506 C505 1.334 . S
C506 C507 1.287 . S
C507 C506 1.287 . S
C507 C508 1.524 . S
C507 H510 0.999 . S
C508 H478 0.950 . S
C508 C507 1.524 . S
C508 C509 1.415 . S
C509 H479 0.950 . S
C509 C504 1.363 . S
C509 C508 1.415 . S
H510 C507 0.999 . S
H511 C492 0.913 . S
H512 C530 0.951 . S
H513 C532 0.951 . S
H514 C534 0.950 . S
H515 C535 0.950 . S
H516 C537 0.950 . S
H517 C540 0.950 . S
H518 C541 0.950 . S
H519 C543 0.950 . S
H520 C544 0.950 . S
H521 C545 0.951 . S
H522 C547 0.951 . S
H523 C549 0.950 . S
H524 C550 0.950 . S
H525 C552 0.950 . S
H526 C555 0.950 . S
H527 C556 0.950 . S
H528 C558 0.950 . S
H529 C559 0.950 . S
C530 H512 0.951 . S
C530 C531 1.366 . S
C530 C532 1.388 . S
C531 C530 1.366 . S
C531 C535 1.385 . S
C532 H513 0.951 . S
C532 C530 1.388 . S
C532 C533 1.366 . S
C533 C532 1.366 . S
C533 C534 1.414 . S
C533 C536 1.499 . S
C534 H514 0.950 . S
C534 C533 1.414 . S
C534 C535 1.374 . S
C535 H515 0.950 . S
C535 C531 1.385 . S
C535 C534 1.374 . S
C536 C533 1.499 . S
C536 C537 1.373 . S
C536 C538 1.389 . S
C537 H516 0.950 . S
C537 C536 1.373 . S
C537 C553 1.377 . S
C538 C536 1.389 . S
C538 C539 1.524 . S
C538 C552 1.377 . S
C539 C538 1.524 . S
C539 C540 1.397 . S
C539 C544 1.363 . S
C540 H517 0.950 . S
C540 C539 1.397 . S
C540 C541 1.334 . S
C541 H518 0.950 . S
C541 C540 1.334 . S
C541 C542 1.287 . S
C542 C541 1.287 . S
C542 C543 1.524 . S
C542 H561 0.913 . S
C543 H519 0.950 . S
C543 C542 1.524 . S
C543 C544 1.415 . S
C544 H520 0.950 . S
C544 C539 1.363 . S
C544 C543 1.415 . S
C545 H521 0.951 . S
C545 C546 1.366 . S
C545 C547 1.388 . S
C546 C545 1.366 . S
C546 C550 1.385 . S
C547 H522 0.951 . S
C547 C545 1.388 . S
C547 C548 1.366 . S
C548 C547 1.366 . S
C548 C549 1.414 . S
C548 C551 1.499 . S
C549 H523 0.950 . S
C549 C548 1.414 . S
C549 C550 1.374 . S
C550 H524 0.950 . S
C550 C546 1.385 . S
C550 C549 1.374 . S
C551 C548 1.499 . S
C551 C552 1.373 . S
C551 C553 1.389 . S
C552 H525 0.950 . S
C552 C538 1.377 . S
C552 C551 1.373 . S
C553 C537 1.377 . S
C553 C551 1.389 . S
C553 C554 1.524 . S
C554 C553 1.524 . S
C554 C555 1.397 . S
C554 C559 1.363 . S
C555 H526 0.950 . S
C555 C554 1.397 . S
C555 C556 1.334 . S
C556 H527 0.950 . S
C556 C555 1.334 . S
C556 C557 1.287 . S
C557 C556 1.287 . S
C557 C558 1.524 . S
C557 H560 0.999 . S
C558 H528 0.950 . S
C558 C557 1.524 . S
C558 C559 1.415 . S
C559 H529 0.950 . S
C559 C554 1.363 . S
C559 C558 1.415 . S
H560 C557 0.999 . S
H561 C542 0.913 . S
H562 C580 0.951 . S
H563 C582 0.951 . S
H564 C584 0.950 . S
H565 C585 0.950 . S
H566 C587 0.950 . S
H567 C590 0.950 . S
H568 C591 0.950 . S
H569 C593 0.950 . S
H570 C594 0.950 . S
H571 C595 0.951 . S
H572 C597 0.951 . S
H573 C599 0.950 . S
H574 C600 0.950 . S
H575 C602 0.950 . S
H576 C605 0.950 . S
H577 C606 0.950 . S
H578 C608 0.950 . S
H579 C609 0.950 . S
C580 H562 0.951 . S
C580 C581 1.366 . S
C580 C582 1.388 . S
C581 C580 1.366 . S
C581 C585 1.385 . S
C582 H563 0.951 . S
C582 C580 1.388 . S
C582 C583 1.366 . S
C583 C582 1.366 . S
C583 C584 1.414 . S
C583 C586 1.499 . S
C584 H564 0.950 . S
C584 C583 1.414 . S
C584 C585 1.374 . S
C585 H565 0.950 . S
C585 C581 1.385 . S
C585 C584 1.374 . S
C586 C583 1.499 . S
C586 C587 1.373 . S
C586 C588 1.389 . S
C587 H566 0.950 . S
C587 C586 1.373 . S
C587 C603 1.377 . S
C588 C586 1.389 . S
C588 C589 1.524 . S
C588 C602 1.377 . S
C589 C588 1.524 . S
C589 C590 1.397 . S
C589 C594 1.363 . S
C590 H567 0.950 . S
C590 C589 1.397 . S
C590 C591 1.334 . S
C591 H568 0.950 . S
C591 C590 1.334 . S
C591 C592 1.287 . S
C592 C591 1.287 . S
C592 C593 1.524 . S
C592 H611 0.913 . S
C593 H569 0.950 . S
C593 C592 1.524 . S
C593 C594 1.415 . S
C594 H570 0.950 . S
C594 C589 1.363 . S
C594 C593 1.415 . S
C595 H571 0.951 . S
C595 C596 1.366 . S
C595 C597 1.388 . S
C596 C595 1.366 . S
C596 C600 1.385 . S
C597 H572 0.951 . S
C597 C595 1.388 . S
C597 C598 1.366 . S
C598 C597 1.366 . S
C598 C599 1.414 . S
C598 C601 1.499 . S
C599 H573 0.950 . S
C599 C598 1.414 . S
C599 C600 1.374 . S
C600 H574 0.950 . S
C600 C596 1.385 . S
C600 C599 1.374 . S
C601 C598 1.499 . S
C601 C602 1.373 . S
C601 C603 1.389 . S
C602 H575 0.950 . S
C602 C588 1.377 . S
C602 C601 1.373 . S
C603 C587 1.377 . S
C603 C601 1.389 . S
C603 C604 1.524 . S
C604 C603 1.524 . S
C604 C605 1.397 . S
C604 C609 1.363 . S
C605 H576 0.950 . S
C605 C604 1.397 . S
C605 C606 1.334 . S
C606 H577 0.950 . S
C606 C605 1.334 . S
C606 C607 1.287 . S
C607 C606 1.287 . S
C607 C608 1.524 . S
C607 H610 0.999 . S
C608 H578 0.950 . S
C608 C607 1.524 . S
C608 C609 1.415 . S
C609 H579 0.950 . S
C609 C604 1.363 . S
C609 C608 1.415 . S
H610 C607 0.999 . S
H611 C592 0.913 . S
H612 C630 0.951 . S
H613 C632 0.951 . S
H614 C634 0.950 . S
H615 C635 0.950 . S
H616 C637 0.950 . S
H617 C640 0.950 . S
H618 C641 0.950 . S
H619 C643 0.950 . S
H620 C644 0.950 . S
H621 C645 0.951 . S
H622 C647 0.951 . S
H623 C649 0.950 . S
H624 C650 0.950 . S
H625 C652 0.950 . S
H626 C655 0.950 . S
H627 C656 0.950 . S
H628 C658 0.950 . S
H629 C659 0.950 . S
C630 H612 0.951 . S
C630 C631 1.366 . S
C630 C632 1.388 . S
C631 C630 1.366 . S
C631 C635 1.385 . S
C632 H613 0.951 . S
C632 C630 1.388 . S
C632 C633 1.366 . S
C633 C632 1.366 . S
C633 C634 1.414 . S
C633 C636 1.499 . S
C634 H614 0.950 . S
C634 C633 1.414 . S
C634 C635 1.374 . S
C635 H615 0.950 . S
C635 C631 1.385 . S
C635 C634 1.374 . S
C636 C633 1.499 . S
C636 C637 1.373 . S
C636 C638 1.389 . S
C637 H616 0.950 . S
C637 C636 1.373 . S
C637 C653 1.377 . S
C638 C636 1.389 . S
C638 C639 1.524 . S
C638 C652 1.377 . S
C639 C638 1.524 . S
C639 C640 1.397 . S
C639 C644 1.363 . S
C640 H617 0.950 . S
C640 C639 1.397 . S
C640 C641 1.334 . S
C641 H618 0.950 . S
C641 C640 1.334 . S
C641 C642 1.287 . S
C642 C641 1.287 . S
C642 C643 1.524 . S
C642 H661 0.913 . S
C643 H619 0.950 . S
C643 C642 1.524 . S
C643 C644 1.415 . S
C644 H620 0.950 . S
C644 C639 1.363 . S
C644 C643 1.415 . S
C645 H621 0.951 . S
C645 C646 1.366 . S
C645 C647 1.388 . S
C646 C645 1.366 . S
C646 C650 1.385 . S
C647 H622 0.951 . S
C647 C645 1.388 . S
C647 C648 1.366 . S
C648 C647 1.366 . S
C648 C649 1.414 . S
C648 C651 1.499 . S
C649 H623 0.950 . S
C649 C648 1.414 . S
C649 C650 1.374 . S
C650 H624 0.950 . S
C650 C646 1.385 . S
C650 C649 1.374 . S
C651 C648 1.499 . S
C651 C652 1.373 . S
C651 C653 1.389 . S
C652 H625 0.950 . S
C652 C638 1.377 . S
C652 C651 1.373 . S
C653 C637 1.377 . S
C653 C651 1.389 . S
C653 C654 1.524 . S
C654 C653 1.524 . S
C654 C655 1.397 . S
C654 C659 1.363 . S
C655 H626 0.950 . S
C655 C654 1.397 . S
C655 C656 1.334 . S
C656 H627 0.950 . S
C656 C655 1.334 . S
C656 C657 1.287 . S
C657 C656 1.287 . S
C657 C658 1.524 . S
C657 H660 0.999 . S
C658 H628 0.950 . S
C658 C657 1.524 . S
C658 C659 1.415 . S
C659 H629 0.950 . S
C659 C654 1.363 . S
C659 C658 1.415 . S
H660 C657 0.999 . S
H661 C642 0.913 . S
H662 C680 0.951 . S
H663 C682 0.951 . S
H664 C684 0.950 . S
H665 C685 0.950 . S
H666 C687 0.950 . S
H667 C690 0.950 . S
H668 C691 0.950 . S
H669 C693 0.950 . S
H670 C694 0.950 . S
H671 C695 0.951 . S
H672 C697 0.951 . S
H673 C699 0.950 . S
H674 C700 0.950 . S
H675 C702 0.950 . S
H676 C705 0.950 . S
H677 C706 0.950 . S
H678 C708 0.950 . S
H679 C709 0.950 . S
C680 H662 0.951 . S
C680 C681 1.366 . S
C680 C682 1.388 . S
C681 C680 1.366 . S
C681 C685 1.385 . S
C682 H663 0.951 . S
C682 C680 1.388 . S
C682 C683 1.366 . S
C683 C682 1.366 . S
C683 C684 1.414 . S
C683 C686 1.499 . S
C684 H664 0.950 . S
C684 C683 1.414 . S
C684 C685 1.374 . S
C685 H665 0.950 . S
C685 C681 1.385 . S
C685 C684 1.374 . S
C686 C683 1.499 . S
C686 C687 1.373 . S
C686 C688 1.389 . S
C687 H666 0.950 . S
C687 C686 1.373 . S
C687 C703 1.377 . S
C688 C686 1.389 . S
C688 C689 1.524 . S
C688 C702 1.377 . S
C689 C688 1.524 . S
C689 C690 1.397 . S
C689 C694 1.363 . S
C690 H667 0.950 . S
C690 C689 1.397 . S
C690 C691 1.334 . S
C691 H668 0.950 . S
C691 C690 1.334 . S
C691 C692 1.287 . S
C692 C691 1.287 . S
C692 C693 1.524 . S
C692 H711 0.913 . S
C693 H669 0.950 . S
C693 C692 1.524 . S
C693 C694 1.415 . S
C694 H670 0.950 . S
C694 C689 1.363 . S
C694 C693 1.415 . S
C695 H671 0.951 . S
C695 C696 1.366 . S
C695 C697 1.388 . S
C696 C695 1.366 . S
C696 C700 1.385 . S
C697 H672 0.951 . S
C697 C695 1.388 . S
C697 C698 1.366 . S
C698 C697 1.366 . S
C698 C699 1.414 . S
C698 C701 1.499 . S
C699 H673 0.950 . S
C699 C698 1.414 . S
C699 C700 1.374 . S
C700 H674 0.950 . S
C700 C696 1.385 . S
C700 C699 1.374 . S
C701 C698 1.499 . S
C701 C702 1.373 . S
C701 C703 1.389 . S
C702 H675 0.950 . S
C702 C688 1.377 . S
C702 C701 1.373 . S
C703 C687 1.377 . S
C703 C701 1.389 . S
C703 C704 1.524 . S
C704 C703 1.524 . S
C704 C705 1.397 . S
C704 C709 1.363 . S
C705 H676 0.950 . S
C705 C704 1.397 . S
C705 C706 1.334 . S
C706 H677 0.950 . S
C706 C705 1.334 . S
C706 C707 1.287 . S
C707 C706 1.287 . S
C707 C708 1.524 . S
C707 H710 0.999 . S
C708 H678 0.950 . S
C708 C707 1.524 . S
C708 C709 1.415 . S
C709 H679 0.950 . S
C709 C704 1.363 . S
C709 C708 1.415 . S
H710 C707 0.999 . S
H711 C692 0.913 . S
H712 C730 0.951 . S
H713 C732 0.951 . S
H714 C734 0.950 . S
H715 C735 0.950 . S
H716 C737 0.950 . S
H717 C740 0.950 . S
H718 C741 0.950 . S
H719 C743 0.950 . S
H720 C744 0.950 . S
H721 C745 0.951 . S
H722 C747 0.951 . S
H723 C749 0.950 . S
H724 C750 0.950 . S
H725 C752 0.950 . S
H726 C755 0.950 . S
H727 C756 0.950 . S
H728 C758 0.950 . S
H729 C759 0.950 . S
C730 H712 0.951 . S
C730 C731 1.366 . S
C730 C732 1.388 . S
C731 C730 1.366 . S
C731 C735 1.385 . S
C732 H713 0.951 . S
C732 C730 1.388 . S
C732 C733 1.366 . S
C733 C732 1.366 . S
C733 C734 1.414 . S
C733 C736 1.499 . S
C734 H714 0.950 . S
C734 C733 1.414 . S
C734 C735 1.374 . S
C735 H715 0.950 . S
C735 C731 1.385 . S
C735 C734 1.374 . S
C736 C733 1.499 . S
C736 C737 1.373 . S
C736 C738 1.389 . S
C737 H716 0.950 . S
C737 C736 1.373 . S
C737 C753 1.377 . S
C738 C736 1.389 . S
C738 C739 1.524 . S
C738 C752 1.377 . S
C739 C738 1.524 . S
C739 C740 1.397 . S
C739 C744 1.363 . S
C740 H717 0.950 . S
C740 C739 1.397 . S
C740 C741 1.334 . S
C741 H718 0.950 . S
C741 C740 1.334 . S
C741 C742 1.287 . S
C742 C741 1.287 . S
C742 C743 1.524 . S
C742 H761 0.913 . S
C743 H719 0.950 . S
C743 C742 1.524 . S
C743 C744 1.415 . S
C744 H720 0.950 . S
C744 C739 1.363 . S
C744 C743 1.415 . S
C745 H721 0.951 . S
C745 C746 1.366 . S
C745 C747 1.388 . S
C746 C745 1.366 . S
C746 C750 1.385 . S
C747 H722 0.951 . S
C747 C745 1.388 . S
C747 C748 1.366 . S
C748 C747 1.366 . S
C748 C749 1.414 . S
C748 C751 1.499 . S
C749 H723 0.950 . S
C749 C748 1.414 . S
C749 C750 1.374 . S
C750 H724 0.950 . S
C750 C746 1.385 . S
C750 C749 1.374 . S
C751 C748 1.499 . S
C751 C752 1.373 . S
C751 C753 1.389 . S
C752 H725 0.950 . S
C752 C738 1.377 . S
C752 C751 1.373 . S
C753 C737 1.377 . S
C753 C751 1.389 . S
C753 C754 1.524 . S
C754 C753 1.524 . S
C754 C755 1.397 . S
C754 C759 1.363 . S
C755 H726 0.950 . S
C755 C754 1.397 . S
C755 C756 1.334 . S
C756 H727 0.950 . S
C756 C755 1.334 . S
C756 C757 1.287 . S
C757 C756 1.287 . S
C757 C758 1.524 . S
C757 H760 0.999 . S
C758 H728 0.950 . S
C758 C757 1.524 . S
C758 C759 1.415 . S
C759 H729 0.950 . S
C759 C754 1.363 . S
C759 C758 1.415 . S
H760 C757 0.999 . S
H761 C742 0.913 . S
H762 C780 0.951 . S
H763 C782 0.951 . S
H764 C784 0.950 . S
H765 C785 0.950 . S
H766 C787 0.950 . S
H767 C790 0.950 . S
H768 C791 0.950 . S
H769 C793 0.950 . S
H770 C794 0.950 . S
H771 C795 0.951 . S
H772 C797 0.951 . S
H773 C799 0.950 . S
H774 C800 0.950 . S
H775 C802 0.950 . S
H776 C805 0.950 . S
H777 C806 0.950 . S
H778 C808 0.950 . S
H779 C809 0.950 . S
C780 H762 0.951 . S
C780 C781 1.366 . S
C780 C782 1.388 . S
C781 C780 1.366 . S
C781 C785 1.385 . S
C782 H763 0.951 . S
C782 C780 1.388 . S
C782 C783 1.366 . S
C783 C782 1.366 . S
C783 C784 1.414 . S
C783 C786 1.499 . S
C784 H764 0.950 . S
C784 C783 1.414 . S
C784 C785 1.374 . S
C785 H765 0.950 . S
C785 C781 1.385 . S
C785 C784 1.374 . S
C786 C783 1.499 . S
C786 C787 1.373 . S
C786 C788 1.389 . S
C787 H766 0.950 . S
C787 C786 1.373 . S
C787 C803 1.377 . S
C788 C786 1.389 . S
C788 C789 1.524 . S
C788 C802 1.377 . S
C789 C788 1.524 . S
C789 C790 1.397 . S
C789 C794 1.363 . S
C790 H767 0.950 . S
C790 C789 1.397 . S
C790 C791 1.334 . S
C791 H768 0.950 . S
C791 C790 1.334 . S
C791 C792 1.287 . S
C792 C791 1.287 . S
C792 C793 1.524 . S
C792 H811 0.913 . S
C793 H769 0.950 . S
C793 C792 1.524 . S
C793 C794 1.415 . S
C794 H770 0.950 . S
C794 C789 1.363 . S
C794 C793 1.415 . S
C795 H771 0.951 . S
C795 C796 1.366 . S
C795 C797 1.388 . S
C796 C795 1.366 . S
C796 C800 1.385 . S
C797 H772 0.951 . S
C797 C795 1.388 . S
C797 C798 1.366 . S
C798 C797 1.366 . S
C798 C799 1.414 . S
C798 C801 1.499 . S
C799 H773 0.950 . S
C799 C798 1.414 . S
C799 C800 1.374 . S
C800 H774 0.950 . S
C800 C796 1.385 . S
C800 C799 1.374 . S
C801 C798 1.499 . S
C801 C802 1.373 . S
C801 C803 1.389 . S
C802 H775 0.950 . S
C802 C788 1.377 . S
C802 C801 1.373 . S
C803 C787 1.377 . S
C803 C801 1.389 . S
C803 C804 1.524 . S
C804 C803 1.524 . S
C804 C805 1.397 . S
C804 C809 1.363 . S
C805 H776 0.950 . S
C805 C804 1.397 . S
C805 C806 1.334 . S
C806 H777 0.950 . S
C806 C805 1.334 . S
C806 C807 1.287 . S
C807 C806 1.287 . S
C807 C808 1.524 . S
C807 H810 0.999 . S
C808 H778 0.950 . S
C808 C807 1.524 . S
C808 C809 1.415 . S
C809 H779 0.950 . S
C809 C804 1.363 . S
C809 C808 1.415 . S
H810 C807 0.999 . S
H811 C792 0.913 . S
H812 C830 0.951 . S
H813 C832 0.951 . S
H814 C834 0.950 . S
H815 C835 0.950 . S
H816 C837 0.950 . S
H817 C840 0.950 . S
H818 C841 0.950 . S
H819 C843 0.950 . S
H820 C844 0.950 . S
H821 C845 0.951 . S
H822 C847 0.951 . S
H823 C849 0.950 . S
H824 C850 0.950 . S
H825 C852 0.950 . S
H826 C855 0.950 . S
H827 C856 0.950 . S
H828 C858 0.950 . S
H829 C859 0.950 . S
C830 H812 0.951 . S
C830 C831 1.366 . S
C830 C832 1.388 . S
C831 C830 1.366 . S
C831 C835 1.385 . S
C832 H813 0.951 . S
C832 C830 1.388 . S
C832 C833 1.366 . S
C833 C832 1.366 . S
C833 C834 1.414 . S
C833 C836 1.499 . S
C834 H814 0.950 . S
C834 C833 1.414 . S
C834 C835 1.374 . S
C835 H815 0.950 . S
C835 C831 1.385 . S
C835 C834 1.374 . S
C836 C833 1.499 . S
C836 C837 1.373 . S
C836 C838 1.389 . S
C837 H816 0.950 . S
C837 C836 1.373 . S
C837 C853 1.377 . S
C838 C836 1.389 . S
C838 C839 1.524 . S
C838 C852 1.377 . S
C839 C838 1.524 . S
C839 C840 1.397 . S
C839 C844 1.363 . S
C840 H817 0.950 . S
C840 C839 1.397 . S
C840 C841 1.334 . S
C841 H818 0.950 . S
C841 C840 1.334 . S
C841 C842 1.287 . S
C842 C841 1.287 . S
C842 C843 1.524 . S
C842 H861 0.913 . S
C843 H819 0.950 . S
C843 C842 1.524 . S
C843 C844 1.415 . S
C844 H820 0.950 . S
C844 C839 1.363 . S
C844 C843 1.415 . S
C845 H821 0.951 . S
C845 C846 1.366 . S
C845 C847 1.388 . S
C846 C845 1.366 . S
C846 C850 1.385 . S
C847 H822 0.951 . S
C847 C845 1.388 . S
C847 C848 1.366 . S
C848 C847 1.366 . S
C848 C849 1.414 . S
C848 C851 1.499 . S
C849 H823 0.950 . S
C849 C848 1.414 . S
C849 C850 1.374 . S
C850 H824 0.950 . S
C850 C846 1.385 . S
C850 C849 1.374 . S
C851 C848 1.499 . S
C851 C852 1.373 . S
C851 C853 1.389 . S
C852 H825 0.950 . S
C852 C838 1.377 . S
C852 C851 1.373 . S
C853 C837 1.377 . S
C853 C851 1.389 . S
C853 C854 1.524 . S
C854 C853 1.524 . S
C854 C855 1.397 . S
C854 C859 1.363 . S
C855 H826 0.950 . S
C855 C854 1.397 . S
C855 C856 1.334 . S
C856 H827 0.950 . S
C856 C855 1.334 . S
C856 C857 1.287 . S
C857 C856 1.287 . S
C857 C858 1.524 . S
C857 H860 0.999 . S
C858 H828 0.950 . S
C858 C857 1.524 . S
C858 C859 1.415 . S
C859 H829 0.950 . S
C859 C854 1.363 . S
C859 C858 1.415 . S
H860 C857 0.999 . S
H861 C842 0.913 . S
H862 C880 0.951 . S
H863 C882 0.951 . S
H864 C884 0.950 . S
H865 C885 0.950 . S
H866 C887 0.950 . S
H867 C890 0.950 . S
H868 C891 0.950 . S
H869 C893 0.950 . S
H870 C894 0.950 . S
H871 C895 0.951 . S
H872 C897 0.951 . S
H873 C899 0.950 . S
H874 C900 0.950 . S
H875 C902 0.950 . S
H876 C905 0.950 . S
H877 C906 0.950 . S
H878 C908 0.950 . S
H879 C909 0.950 . S
C880 H862 0.951 . S
C880 C881 1.366 . S
C880 C882 1.388 . S
C881 C880 1.366 . S
C881 C885 1.385 . S
C882 H863 0.951 . S
C882 C880 1.388 . S
C882 C883 1.366 . S
C883 C882 1.366 . S
C883 C884 1.414 . S
C883 C886 1.499 . S
C884 H864 0.950 . S
C884 C883 1.414 . S
C884 C885 1.374 . S
C885 H865 0.950 . S
C885 C881 1.385 . S
C885 C884 1.374 . S
C886 C883 1.499 . S
C886 C887 1.373 . S
C886 C888 1.389 . S
C887 H866 0.950 . S
C887 C886 1.373 . S
C887 C903 1.377 . S
C888 C886 1.389 . S
C888 C889 1.524 . S
C888 C902 1.377 . S
C889 C888 1.524 . S
C889 C890 1.397 . S
C889 C894 1.363 . S
C890 H867 0.950 . S
C890 C889 1.397 . S
C890 C891 1.334 . S
C891 H868 0.950 . S
C891 C890 1.334 . S
C891 C892 1.287 . S
C892 C891 1.287 . S
C892 C893 1.524 . S
C892 H911 0.913 . S
C893 H869 0.950 . S
C893 C892 1.524 . S
C893 C894 1.415 . S
C894 H870 0.950 . S
C894 C889 1.363 . S
C894 C893 1.415 . S
C895 H871 0.951 . S
C895 C896 1.366 . S
C895 C897 1.388 . S
C896 C895 1.366 . S
C896 C900 1.385 . S
C897 H872 0.951 . S
C897 C895 1.388 . S
C897 C898 1.366 . S
C898 C897 1.366 . S
C898 C899 1.414 . S
C898 C901 1.499 . S
C899 H873 0.950 . S
C899 C898 1.414 . S
C899 C900 1.374 . S
C900 H874 0.950 . S
C900 C896 1.385 . S
C900 C899 1.374 . S
C901 C898 1.499 . S
C901 C902 1.373 . S
C901 C903 1.389 . S
C902 H875 0.950 . S
C902 C888 1.377 . S
C902 C901 1.373 . S
C903 C887 1.377 . S
C903 C901 1.389 . S
C903 C904 1.524 . S
C904 C903 1.524 . S
C904 C905 1.397 . S
C904 C909 1.363 . S
C905 H876 0.950 . S
C905 C904 1.397 . S
C905 C906 1.334 . S
C906 H877 0.950 . S
C906 C905 1.334 . S
C906 C907 1.287 . S
C907 C906 1.287 . S
C907 C908 1.524 . S
C907 H910 0.999 . S
C908 H878 0.950 . S
C908 C907 1.524 . S
C908 C909 1.415 . S
C909 H879 0.950 . S
C909 C904 1.363 . S
C909 C908 1.415 . S
H910 C907 0.999 . S
H911 C892 0.913 . S
H912 C930 0.951 . S
H913 C932 0.951 . S
H914 C934 0.950 . S
H915 C935 0.950 . S
H916 C937 0.950 . S
H917 C940 0.950 . S
H918 C941 0.950 . S
H919 C943 0.950 . S
H920 C944 0.950 . S
H921 C945 0.951 . S
H922 C947 0.951 . S
H923 C949 0.950 . S
H924 C950 0.950 . S
H925 C952 0.950 . S
H926 C955 0.950 . S
H927 C956 0.950 . S
H928 C958 0.950 . S
H929 C959 0.950 . S
C930 H912 0.951 . S
C930 C931 1.366 . S
C930 C932 1.388 . S
C931 C930 1.366 . S
C931 C935 1.385 . S
C932 H913 0.951 . S
C932 C930 1.388 . S
C932 C933 1.366 . S
C933 C932 1.366 . S
C933 C934 1.414 . S
C933 C936 1.499 . S
C934 H914 0.950 . S
C934 C933 1.414 . S
C934 C935 1.374 . S
C935 H915 0.950 . S
C935 C931 1.385 . S
C935 C934 1.374 . S
C936 C933 1.499 . S
C936 C937 1.373 . S
C936 C938 1.389 . S
C937 H916 0.950 . S
C937 C936 1.373 . S
C937 C953 1.377 . S
C938 C936 1.389 . S
C938 C939 1.524 . S
C938 C952 1.377 . S
C939 C938 1.524 . S
C939 C940 1.397 . S
C939 C944 1.363 . S
C940 H917 0.950 . S
C940 C939 1.397 . S
C940 C941 1.334 . S
C941 H918 0.950 . S
C941 C940 1.334 . S
C941 C942 1.287 . S
C942 C941 1.287 . S
C942 C943 1.524 . S
C942 H961 0.913 . S
C943 H919 0.950 . S
C943 C942 1.524 . S
C943 C944 1.415 . S
C944 H920 0.950 . S
C944 C939 1.363 . S
C944 C943 1.415 . S
C945 H921 0.951 . S
C945 C946 1.366 . S
C945 C947 1.388 . S
C946 C945 1.366 . S
C946 C950 1.385 . S
C947 H922 0.951 . S
C947 C945 1.388 . S
C947 C948 1.366 . S
C948 C947 1.366 . S
C948 C949 1.414 . S
C948 C951 1.499 . S
C949 H923 0.950 . S
C949 C948 1.414 . S
C949 C950 1.374 . S
C950 H924 0.950 . S
C950 C946 1.385 . S
C950 C949 1.374 . S
C951 C948 1.499 . S
C951 C952 1.373 . S
C951 C953 1.389 . S
C952 H925 0.950 . S
C952 C938 1.377 . S
C952 C951 1.373 . S
C953 C937 1.377 . S
C953 C951 1.389 . S
C953 C954 1.524 . S
C954 C953 1.524 . S
C954 C955 1.397 . S
C954 C959 1.363 . S
C955 H926 0.950 . S
C955 C954 1.397 . S
C955 C956 1.334 . S
C956 H927 0.950 . S
C956 C955 1.334 . S
C956 C957 1.287 . S
C957 C956 1.287 . S
C957 C958 1.524 . S
C957 H960 0.999 . S
C958 H928 0.950 . S
C958 C957 1.524 . S
C958 C959 1.415 . S
C959 H929 0.950 . S
C959 C954 1.363 . S
C959 C958 1.415 . S
H960 C957 0.999 . S
H961 C942 0.913 . S
H962 C980 0.951 . S
H963 C982 0.951 . S
H964 C984 0.950 . S
H965 C985 0.950 . S
H966 C987 0.950 . S
H967 C990 0.950 . S
H968 C991 0.950 . S
H969 C993 0.950 . S
H970 C994 0.950 . S
H971 C995 0.951 . S
H972 C997 0.951 . S
H973 C999 0.950 . S
H974 C1000 0.950 . S
H975 C1002 0.950 . S
H976 C1005 0.950 . S
H977 C1006 0.950 . S
H978 C1008 0.950 . S
H979 C1009 0.950 . S
C980 H962 0.951 . S
C980 C981 1.366 . S
C980 C982 1.388 . S
C981 C980 1.366 . S
C981 C985 1.385 . S
C982 H963 0.951 . S
C982 C980 1.388 . S
C982 C983 1.366 . S
C983 C982 1.366 . S
C983 C984 1.414 . S
C983 C986 1.499 . S
C984 H964 0.950 . S
C984 C983 1.414 . S
C984 C985 1.374 . S
C985 H965 0.950 . S
C985 C981 1.385 . S
C985 C984 1.374 . S
C986 C983 1.499 . S
C986 C987 1.373 . S
C986 C988 1.389 . S
C987 H966 0.950 . S
C987 C986 1.373 . S
C987 C1003 1.377 . S
C988 C986 1.389 . S
C988 C989 1.524 . S
C988 C1002 1.377 . S
C989 C988 1.524 . S
C989 C990 1.397 . S
C989 C994 1.363 . S
C990 H967 0.950 . S
C990 C989 1.397 . S
C990 C991 1.334 . S
C991 H968 0.950 . S
C991 C990 1.334 . S
C991 C992 1.287 . S
C992 C991 1.287 . S
C992 C993 1.524 . S
C992 H1011 0.913 . S
C993 H969 0.950 . S
C993 C992 1.524 . S
C993 C994 1.415 . S
C994 H970 0.950 . S
C994 C989 1.363 . S
C994 C993 1.415 . S
C995 H971 0.951 . S
C995 C996 1.366 . S
C995 C997 1.388 . S
C996 C995 1.366 . S
C996 C1000 1.385 . S
C997 H972 0.951 . S
C997 C995 1.388 . S
C997 C998 1.366 . S
C998 C997 1.366 . S
C998 C999 1.414 . S
C998 C1001 1.499 . S
C999 H973 0.950 . S
C999 C998 1.414 . S
C999 C1000 1.374 . S
C1000 H974 0.950 . S
C1000 C996 1.385 . S
C1000 C999 1.374 . S
C1001 C998 1.499 . S
C1001 C1002 1.373 . S
C1001 C1003 1.389 . S
C1002 H975 0.950 . S
C1002 C988 1.377 . S
C1002 C1001 1.373 . S
C1003 C987 1.377 . S
C1003 C1001 1.389 . S
C1003 C1004 1.524 . S
C1004 C1003 1.524 . S
C1004 C1005 1.397 . S
C1004 C1009 1.363 . S
C1005 H976 0.950 . S
C1005 C1004 1.397 . S
C1005 C1006 1.334 . S
C1006 H977 0.950 . S
C1006 C1005 1.334 . S
C1006 C1007 1.287 . S
C1007 C1006 1.287 . S
C1007 C1008 1.524 . S
C1007 H1010 0.999 . S
C1008 H978 0.950 . S
C1008 C1007 1.524 . S
C1008 C1009 1.415 . S
C1009 H979 0.950 . S
C1009 C1004 1.363 . S
C1009 C1008 1.415 . S
H1010 C1007 0.999 . S
H1011 C992 0.913 . S
H1012 C1030 0.951 . S
H1013 C1032 0.951 . S
H1014 C1034 0.950 . S
H1015 C1035 0.950 . S
H1016 C1037 0.950 . S
H1017 C1040 0.950 . S
H1018 C1041 0.950 . S
H1019 C1043 0.950 . S
H1020 C1044 0.950 . S
H1021 C1045 0.951 . S
H1022 C1047 0.951 . S
H1023 C1049 0.950 . S
H1024 C1050 0.950 . S
H1025 C1052 0.950 . S
H1026 C1055 0.950 . S
H1027 C1056 0.950 . S
H1028 C1058 0.950 . S
H1029 C1059 0.950 . S
C1030 H1012 0.951 . S
C1030 C1031 1.366 . S
C1030 C1032 1.388 . S
C1031 C1030 1.366 . S
C1031 C1035 1.385 . S
C1032 H1013 0.951 . S
C1032 C1030 1.388 . S
C1032 C1033 1.366 . S
C1033 C1032 1.366 . S
C1033 C1034 1.414 . S
C1033 C1036 1.499 . S
C1034 H1014 0.950 . S
C1034 C1033 1.414 . S
C1034 C1035 1.374 . S
C1035 H1015 0.950 . S
C1035 C1031 1.385 . S
C1035 C1034 1.374 . S
C1036 C1033 1.499 . S
C1036 C1037 1.373 . S
C1036 C1038 1.389 . S
C1037 H1016 0.950 . S
C1037 C1036 1.373 . S
C1037 C1053 1.377 . S
C1038 C1036 1.389 . S
C1038 C1039 1.524 . S
C1038 C1052 1.377 . S
C1039 C1038 1.524 . S
C1039 C1040 1.397 . S
C1039 C1044 1.363 . S
C1040 H1017 0.950 . S
C1040 C1039 1.397 . S
C1040 C1041 1.334 . S
C1041 H1018 0.950 . S
C1041 C1040 1.334 . S
C1041 C1042 1.287 . S
C1042 C1041 1.287 . S
C1042 C1043 1.524 . S
C1042 H1061 0.913 . S
C1043 H1019 0.950 . S
C1043 C1042 1.524 . S
C1043 C1044 1.415 . S
C1044 H1020 0.950 . S
C1044 C1039 1.363 . S
C1044 C1043 1.415 . S
C1045 H1021 0.951 . S
C1045 C1046 1.366 . S
C1045 C1047 1.388 . S
C1046 C1045 1.366 . S
C1046 C1050 1.385 . S
C1047 H1022 0.951 . S
C1047 C1045 1.388 . S
C1047 C1048 1.366 . S
C1048 C1047 1.366 . S
C1048 C1049 1.414 . S
C1048 C1051 1.499 . S
C1049 H1023 0.950 . S
C1049 C1048 1.414 . S
C1049 C1050 1.374 . S
C1050 H1024 0.950 . S
C1050 C1046 1.385 . S
C1050 C1049 1.374 . S
C1051 C1048 1.499 . S
C1051 C1052 1.373 . S
C1051 C1053 1.389 . S
C1052 H1025 0.950 . S
C1052 C1038 1.377 . S
C1052 C1051 1.373 . S
C1053 C1037 1.377 . S
C1053 C1051 1.389 . S
C1053 C1054 1.524 . S
C1054 C1053 1.524 . S
C1054 C1055 1.397 . S
C1054 C1059 1.363 . S
C1055 H1026 0.950 . S
C1055 C1054 1.397 . S
C1055 C1056 1.334 . S
C1056 H1027 0.950 . S
C1056 C1055 1.334 . S
C1056 C1057 1.287 . S
C1057 C1056 1.287 . S
C1057 C1058 1.524 . S
C1057 H1060 0.999 . S
C1058 H1028 0.950 . S
C1058 C1057 1.524 . S
C1058 C1059 1.415 . S
C1059 H1029 0.950 . S
C1059 C1054 1.363 . S
C1059 C1058 1.415 . S
H1060 C1057 0.999 . S
H1061 C1042 0.913 . S
H1062 C1080 0.951 . S
H1063 C1082 0.951 . S
H1064 C1084 0.950 . S
H1065 C1085 0.950 . S
H1066 C1087 0.950 . S
H1067 C1090 0.950 . S
H1068 C1091 0.950 . S
H1069 C1093 0.950 . S
H1070 C1094 0.950 . S
H1071 C1095 0.951 . S
H1072 C1097 0.951 . S
H1073 C1099 0.950 . S
H1074 C1100 0.950 . S
H1075 C1102 0.950 . S
H1076 C1105 0.950 . S
H1077 C1106 0.950 . S
H1078 C1108 0.950 . S
H1079 C1109 0.950 . S
C1080 H1062 0.951 . S
C1080 C1081 1.366 . S
C1080 C1082 1.388 . S
C1081 C1080 1.366 . S
C1081 C1085 1.385 . S
C1082 H1063 0.951 . S
C1082 C1080 1.388 . S
C1082 C1083 1.366 . S
C1083 C1082 1.366 . S
C1083 C1084 1.414 . S
C1083 C1086 1.499 . S
C1084 H1064 0.950 . S
C1084 C1083 1.414 . S
C1084 C1085 1.374 . S
C1085 H1065 0.950 . S
C1085 C1081 1.385 . S
C1085 C1084 1.374 . S
C1086 C1083 1.499 . S
C1086 C1087 1.373 . S
C1086 C1088 1.389 . S
C1087 H1066 0.950 . S
C1087 C1086 1.373 . S
C1087 C1103 1.377 . S
C1088 C1086 1.389 . S
C1088 C1089 1.524 . S
C1088 C1102 1.377 . S
C1089 C1088 1.524 . S
C1089 C1090 1.397 . S
C1089 C1094 1.363 . S
C1090 H1067 0.950 . S
C1090 C1089 1.397 . S
C1090 C1091 1.334 . S
C1091 H1068 0.950 . S
C1091 C1090 1.334 . S
C1091 C1092 1.287 . S
C1092 C1091 1.287 . S
C1092 C1093 1.524 . S
C1092 H1111 0.913 . S
C1093 H1069 0.950 . S
C1093 C1092 1.524 . S
C1093 C1094 1.415 . S
C1094 H1070 0.950 . S
C1094 C1089 1.363 . S
C1094 C1093 1.415 . S
C1095 H1071 0.951 . S
C1095 C1096 1.366 . S
C1095 C1097 1.388 . S
C1096 C1095 1.366 . S
C1096 C1100 1.385 . S
C1097 H1072 0.951 . S
C1097 C1095 1.388 . S
C1097 C1098 1.366 . S
C1098 C1097 1.366 . S
C1098 C1099 1.414 . S
C1098 C1101 1.499 . S
C1099 H1073 0.950 . S
C1099 C1098 1.414 . S
C1099 C1100 1.374 . S
C1100 H1074 0.950 . S
C1100 C1096 1.385 . S
C1100 C1099 1.374 . S
C1101 C1098 1.499 . S
C1101 C1102 1.373 . S
C1101 C1103 1.389 . S
C1102 H1075 0.950 . S
C1102 C1088 1.377 . S
C1102 C1101 1.373 . S
C1103 C1087 1.377 . S
C1103 C1101 1.389 . S
C1103 C1104 1.524 . S
C1104 C1103 1.524 . S
C1104 C1105 1.397 . S
C1104 C1109 1.363 . S
C1105 H1076 0.950 . S
C1105 C1104 1.397 . S
C1105 C1106 1.334 . S
C1106 H1077 0.950 . S
C1106 C1105 1.334 . S
C1106 C1107 1.287 . S
C1107 C1106 1.287 . S
C1107 C1108 1.524 . S
C1107 H1110 0.999 . S
C1108 H1078 0.950 . S
C1108 C1107 1.524 . S
C1108 C1109 1.415 . S
C1109 H1079 0.950 . S
C1109 C1104 1.363 . S
C1109 C1108 1.415 . S
H1110 C1107 0.999 . S
H1111 C1092 0.913 . S
H1112 C1130 0.951 . S
H1113 C1132 0.951 . S
H1114 C1134 0.950 . S
H1115 C1135 0.950 . S
H1116 C1137 0.950 . S
H1117 C1140 0.950 . S
H1118 C1141 0.950 . S
H1119 C1143 0.950 . S
H1120 C1144 0.950 . S
H1121 C1145 0.951 . S
H1122 C1147 0.951 . S
H1123 C1149 0.950 . S
H1124 C1150 0.950 . S
H1125 C1152 0.950 . S
H1126 C1155 0.950 . S
H1127 C1156 0.950 . S
H1128 C1158 0.950 . S
H1129 C1159 0.950 . S
C1130 H1112 0.951 . S
C1130 C1131 1.366 . S
C1130 C1132 1.388 . S
C1131 C1130 1.366 . S
C1131 C1135 1.385 . S
C1132 H1113 0.951 . S
C1132 C1130 1.388 . S
C1132 C1133 1.366 . S
C1133 C1132 1.366 . S
C1133 C1134 1.414 . S
C1133 C1136 1.499 . S
C1134 H1114 0.950 . S
C1134 C1133 1.414 . S
C1134 C1135 1.374 . S
C1135 H1115 0.950 . S
C1135 C1131 1.385 . S
C1135 C1134 1.374 . S
C1136 C1133 1.499 . S
C1136 C1137 1.373 . S
C1136 C1138 1.389 . S
C1137 H1116 0.950 . S
C1137 C1136 1.373 . S
C1137 C1153 1.377 . S
C1138 C1136 1.389 . S
C1138 C1139 1.524 . S
C1138 C1152 1.377 . S
C1139 C1138 1.524 . S
C1139 C1140 1.397 . S
C1139 C1144 1.363 . S
C1140 H1117 0.950 . S
C1140 C1139 1.397 . S
C1140 C1141 1.334 . S
C1141 H1118 0.950 . S
C1141 C1140 1.334 . S
C1141 C1142 1.287 . S
C1142 C1141 1.287 . S
C1142 C1143 1.524 . S
C1142 H1161 0.913 . S
C1143 H1119 0.950 . S
C1143 C1142 1.524 . S
C1143 C1144 1.415 . S
C1144 H1120 0.950 . S
C1144 C1139 1.363 . S
C1144 C1143 1.415 . S
C1145 H1121 0.951 . S
C1145 C1146 1.366 . S
C1145 C1147 1.388 . S
C1146 C1145 1.366 . S
C1146 C1150 1.385 . S
C1147 H1122 0.951 . S
C1147 C1145 1.388 . S
C1147 C1148 1.366 . S
C1148 C1147 1.366 . S
C1148 C1149 1.414 . S
C1148 C1151 1.499 . S
C1149 H1123 0.950 . S
C1149 C1148 1.414 . S
C1149 C1150 1.374 . S
C1150 H1124 0.950 . S
C1150 C1146 1.385 . S
C1150 C1149 1.374 . S
C1151 C1148 1.499 . S
C1151 C1152 1.373 . S
C1151 C1153 1.389 . S
C1152 H1125 0.950 . S
C1152 C1138 1.377 . S
C1152 C1151 1.373 . S
C1153 C1137 1.377 . S
C1153 C1151 1.389 . S
C1153 C1154 1.524 . S
C1154 C1153 1.524 . S
C1154 C1155 1.397 . S
C1154 C1159 1.363 . S
C1155 H1126 0.950 . S
C1155 C1154 1.397 . S
C1155 C1156 1.334 . S
C1156 H1127 0.950 . S
C1156 C1155 1.334 . S
C1156 C1157 1.287 . S
C1157 C1156 1.287 . S
C1157 C1158 1.524 . S
C1157 H1160 0.999 . S
C1158 H1128 0.950 . S
C1158 C1157 1.524 . S
C1158 C1159 1.415 . S
C1159 H1129 0.950 . S
C1159 C1154 1.363 . S
C1159 C1158 1.415 . S
H1160 C1157 0.999 . S
H1161 C1142 0.913 . S
H1162 C1180 0.951 . S
H1163 C1182 0.951 . S
H1164 C1184 0.950 . S
H1165 C1185 0.950 . S
H1166 C1187 0.950 . S
H1167 C1190 0.950 . S
H1168 C1191 0.950 . S
H1169 C1193 0.950 . S
H1170 C1194 0.950 . S
H1171 C1195 0.951 . S
H1172 C1197 0.951 . S
H1173 C1199 0.950 . S
H1174 C1200 0.950 . S
H1175 C1202 0.950 . S
H1176 C1205 0.950 . S
H1177 C1206 0.950 . S
H1178 C1208 0.950 . S
H1179 C1209 0.950 . S
C1180 H1162 0.951 . S
C1180 C1181 1.366 . S
C1180 C1182 1.388 . S
C1181 C1180 1.366 . S
C1181 C1185 1.385 . S
C1182 H1163 0.951 . S
C1182 C1180 1.388 . S
C1182 C1183 1.366 . S
C1183 C1182 1.366 . S
C1183 C1184 1.414 . S
C1183 C1186 1.499 . S
C1184 H1164 0.950 . S
C1184 C1183 1.414 . S
C1184 C1185 1.374 . S
C1185 H1165 0.950 . S
C1185 C1181 1.385 . S
C1185 C1184 1.374 . S
C1186 C1183 1.499 . S
C1186 C1187 1.373 . S
C1186 C1188 1.389 . S
C1187 H1166 0.950 . S
C1187 C1186 1.373 . S
C1187 C1203 1.377 . S
C1188 C1186 1.389 . S
C1188 C1189 1.524 . S
C1188 C1202 1.377 . S
C1189 C1188 1.524 . S
C1189 C1190 1.397 . S
C1189 C1194 1.363 . S
C1190 H1167 0.950 . S
C1190 C1189 1.397 . S
C1190 C1191 1.334 . S
C1191 H1168 0.950 . S
C1191 C1190 1.334 . S
C1191 C1192 1.287 . S
C1192 C1191 1.287 . S
C1192 C1193 1.524 . S
C1192 H1211 0.913 . S
C1193 H1169 0.950 . S
C1193 C1192 1.524 . S
C1193 C1194 1.415 . S
C1194 H1170 0.950 . S
C1194 C1189 1.363 . S
C1194 C1193 1.415 . S
C1195 H1171 0.951 . S
C1195 C1196 1.366 . S
C1195 C1197 1.388 . S
C1196 C1195 1.366 . S
C1196 C1200 1.385 . S
C1197 H1172 0.951 . S
C1197 C1195 1.388 . S
C1197 C1198 1.366 . S
C1198 C1197 1.366 . S
C1198 C1199 1.414 . S
C1198 C1201 1.499 . S
C1199 H1173 0.950 . S
C1199 C1198 1.414 . S
C1199 C1200 1.374 . S
C1200 H1174 0.950 . S
C1200 C1196 1.385 . S
C1200 C1199 1.374 . S
C1201 C1198 1.499 . S
C1201 C1202 1.373 . S
C1201 C1203 1.389 . S
C1202 H1175 0.950 . S
C1202 C1188 1.377 . S
C1202 C1201 1.373 . S
C1203 C1187 1.377 . S
C1203 C1201 1.389 . S
C1203 C1204 1.524 . S
C1204 C1203 1.524 . S
C1204 C1205 1.397 . S
C1204 C1209 1.363 . S
C1205 H1176 0.950 . S
C1205 C1204 1.397 . S
C1205 C1206 1.334 . S
C1206 H1177 0.950 . S
C1206 C1205 1.334 . S
C1206 C1207 1.287 . S
C1207 C1206 1.287 . S
C1207 C1208 1.524 . S
C1207 H1210 0.999 . S
C1208 H1178 0.950 . S
C1208 C1207 1.524 . S
C1208 C1209 1.415 . S
C1209 H1179 0.950 . S
C1209 C1204 1.363 . S
C1209 C1208 1.415 . S
H1210 C1207 0.999 . S
H1211 C1192 0.913 . S
H1212 C1230 0.951 . S
H1213 C1232 0.951 . S
H1214 C1234 0.950 . S
H1215 C1235 0.950 . S
H1216 C1237 0.950 . S
H1217 C1240 0.950 . S
H1218 C1241 0.950 . S
H1219 C1243 0.950 . S
H1220 C1244 0.950 . S
H1221 C1245 0.951 . S
H1222 C1247 0.951 . S
H1223 C1249 0.950 . S
H1224 C1250 0.950 . S
H1225 C1252 0.950 . S
H1226 C1255 0.950 . S
H1227 C1256 0.950 . S
H1228 C1258 0.950 . S
H1229 C1259 0.950 . S
C1230 H1212 0.951 . S
C1230 C1231 1.366 . S
C1230 C1232 1.388 . S
C1231 C1230 1.366 . S
C1231 C1235 1.385 . S
C1232 H1213 0.951 . S
C1232 C1230 1.388 . S
C1232 C1233 1.366 . S
C1233 C1232 1.366 . S
C1233 C1234 1.414 . S
C1233 C1236 1.499 . S
C1234 H1214 0.950 . S
C1234 C1233 1.414 . S
C1234 C1235 1.374 . S
C1235 H1215 0.950 . S
C1235 C1231 1.385 . S
C1235 C1234 1.374 . S
C1236 C1233 1.499 . S
C1236 C1237 1.373 . S
C1236 C1238 1.389 . S
C1237 H1216 0.950 . S
C1237 C1236 1.373 . S
C1237 C1253 1.377 . S
C1238 C1236 1.389 . S
C1238 C1239 1.524 . S
C1238 C1252 1.377 . S
C1239 C1238 1.524 . S
C1239 C1240 1.397 . S
C1239 C1244 1.363 . S
C1240 H1217 0.950 . S
C1240 C1239 1.397 . S
C1240 C1241 1.334 . S
C1241 H1218 0.950 . S
C1241 C1240 1.334 . S
C1241 C1242 1.287 . S
C1242 C1241 1.287 . S
C1242 C1243 1.524 . S
C1242 H1261 0.913 . S
C1243 H1219 0.950 . S
C1243 C1242 1.524 . S
C1243 C1244 1.415 . S
C1244 H1220 0.950 . S
C1244 C1239 1.363 . S
C1244 C1243 1.415 . S
C1245 H1221 0.951 . S
C1245 C1246 1.366 . S
C1245 C1247 1.388 . S
C1246 C1245 1.366 . S
C1246 C1250 1.385 . S
C1247 H1222 0.951 . S
C1247 C1245 1.388 . S
C1247 C1248 1.366 . S
C1248 C1247 1.366 . S
C1248 C1249 1.414 . S
C1248 C1251 1.499 . S
C1249 H1223 0.950 . S
C1249 C1248 1.414 . S
C1249 C1250 1.374 . S
C1250 H1224 0.950 . S
C1250 C1246 1.385 . S
C1250 C1249 1.374 . S
C1251 C1248 1.499 . S
C1251 C1252 1.373 . S
C1251 C1253 1.389 . S
C1252 H1225 0.950 . S
C1252 C1238 1.377 . S
C1252 C1251 1.373 . S
C1253 C1237 1.377 . S
C1253 C1251 1.389 . S
C1253 C1254 1.524 . S
C1254 C1253 1.524 . S
C1254 C1255 1.397 . S
C1254 C1259 1.363 . S
C1255 H1226 0.950 . S
C1255 C1254 1.397 . S
C1255 C1256 1.334 . S
C1256 H1227 0.950 . S
C1256 C1255 1.334 . S
C1256 C1257 1.287 . S
C1257 C1256 1.287 . S
C1257 C1258 1.524 . S
C1257 H1260 0.999 . S
C1258 H1228 0.950 . S
C1258 C1257 1.524 . S
C1258 C1259 1.415 . S
C1259 H1229 0.950 . S
C1259 C1254 1.363 . S
C1259 C1258 1.415 . S
H1260 C1257 0.999 . S
H1261 C1242 0.913 . S
H1262 C1280 0.951 . S
H1263 C1282 0.951 . S
H1264 C1284 0.950 . S
H1265 C1285 0.950 . S
H1266 C1287 0.950 . S
H1267 C1290 0.950 . S
H1268 C1291 0.950 . S
H1269 C1293 0.950 . S
H1270 C1294 0.950 . S
H1271 C1295 0.951 . S
H1272 C1297 0.951 . S
H1273 C1299 0.950 . S
H1274 C1300 0.950 . S
H1275 C1302 0.950 . S
H1276 C1305 0.950 . S
H1277 C1306 0.950 . S
H1278 C1308 0.950 . S
H1279 C1309 0.950 . S
C1280 H1262 0.951 . S
C1280 C1281 1.366 . S
C1280 C1282 1.388 . S
C1281 C1280 1.366 . S
C1281 C1285 1.385 . S
C1282 H1263 0.951 . S
C1282 C1280 1.388 . S
C1282 C1283 1.366 . S
C1283 C1282 1.366 . S
C1283 C1284 1.414 . S
C1283 C1286 1.499 . S
C1284 H1264 0.950 . S
C1284 C1283 1.414 . S
C1284 C1285 1.374 . S
C1285 H1265 0.950 . S
C1285 C1281 1.385 . S
C1285 C1284 1.374 . S
C1286 C1283 1.499 . S
C1286 C1287 1.373 . S
C1286 C1288 1.389 . S
C1287 H1266 0.950 . S
C1287 C1286 1.373 . S
C1287 C1303 1.377 . S
C1288 C1286 1.389 . S
C1288 C1289 1.524 . S
C1288 C1302 1.377 . S
C1289 C1288 1.524 . S
C1289 C1290 1.397 . S
C1289 C1294 1.363 . S
C1290 H1267 0.950 . S
C1290 C1289 1.397 . S
C1290 C1291 1.334 . S
C1291 H1268 0.950 . S
C1291 C1290 1.334 . S
C1291 C1292 1.287 . S
C1292 C1291 1.287 . S
C1292 C1293 1.524 . S
C1292 H1311 0.913 . S
C1293 H1269 0.950 . S
C1293 C1292 1.524 . S
C1293 C1294 1.415 . S
C1294 H1270 0.950 . S
C1294 C1289 1.363 . S
C1294 C1293 1.415 . S
C1295 H1271 0.951 . S
C1295 C1296 1.366 . S
C1295 C1297 1.388 . S
C1296 C1295 1.366 . S
C1296 C1300 1.385 . S
C1297 H1272 0.951 . S
C1297 C1295 1.388 . S
C1297 C1298 1.366 . S
C1298 C1297 1.366 . S
C1298 C1299 1.414 . S
C1298 C1301 1.499 . S
C1299 H1273 0.950 . S
C1299 C1298 1.414 . S
C1299 C1300 1.374 . S
C1300 H1274 0.950 . S
C1300 C1296 1.385 . S
C1300 C1299 1.374 . S
C1301 C1298 1.499 . S
C1301 C1302 1.373 . S
C1301 C1303 1.389 . S
C1302 H1275 0.950 . S
C1302 C1288 1.377 . S
C1302 C1301 1.373 . S
C1303 C1287 1.377 . S
C1303 C1301 1.389 . S
C1303 C1304 1.524 . S
C1304 C1303 1.524 . S
C1304 C1305 1.397 . S
C1304 C1309 1.363 . S
C1305 H1276 0.950 . S
C1305 C1304 1.397 . S
C1305 C1306 1.334 . S
C1306 H1277 0.950 . S
C1306 C1305 1.334 . S
C1306 C1307 1.287 . S
C1307 C1306 1.287 . S
C1307 C1308 1.524 . S
C1307 H1310 0.999 . S
C1308 H1278 0.950 . S
C1308 C1307 1.524 . S
C1308 C1309 1.415 . S
C1309 H1279 0.950 . S
C1309 C1304 1.363 . S
C1309 C1308 1.415 . S
H1310 C1307 0.999 . S
H1311 C1292 0.913 . S
H1312 C1330 0.951 . S
H1313 C1332 0.951 . S
H1314 C1334 0.950 . S
H1315 C1335 0.950 . S
H1316 C1337 0.950 . S
H1317 C1340 0.950 . S
H1318 C1341 0.950 . S
H1319 C1343 0.950 . S
H1320 C1344 0.950 . S
H1321 C1345 0.951 . S
H1322 C1347 0.951 . S
H1323 C1349 0.950 . S
H1324 C1350 0.950 . S
H1325 C1352 0.950 . S
H1326 C1355 0.950 . S
H1327 C1356 0.950 . S
H1328 C1358 0.950 . S
H1329 C1359 0.950 . S
C1330 H1312 0.951 . S
C1330 C1331 1.366 . S
C1330 C1332 1.388 . S
C1331 C1330 1.366 . S
C1331 C1335 1.385 . S
C1332 H1313 0.951 . S
C1332 C1330 1.388 . S
C1332 C1333 1.366 . S
C1333 C1332 1.366 . S
C1333 C1334 1.414 . S
C1333 C1336 1.499 . S
C1334 H1314 0.950 . S
C1334 C1333 1.414 . S
C1334 C1335 1.374 . S
C1335 H1315 0.950 . S
C1335 C1331 1.385 . S
C1335 C1334 1.374 . S
C1336 C1333 1.499 . S
C1336 C1337 1.373 . S
C1336 C1338 1.389 . S
C1337 H1316 0.950 . S
C1337 C1336 1.373 . S
C1337 C1353 1.377 . S
C1338 C1336 1.389 . S
C1338 C1339 1.524 . S
C1338 C1352 1.377 . S
C1339 C1338 1.524 . S
C1339 C1340 1.397 . S
C1339 C1344 1.363 . S
C1340 H1317 0.950 . S
C1340 C1339 1.397 . S
C1340 C1341 1.334 . S
C1341 H1318 0.950 . S
C1341 C1340 1.334 . S
C1341 C1342 1.287 . S
C1342 C1341 1.287 . S
C1342 C1343 1.524 . S
C1342 H1361 0.913 . S
C1343 H1319 0.950 . S
C1343 C1342 1.524 . S
C1343 C1344 1.415 . S
C1344 H1320 0.950 . S
C1344 C1339 1.363 . S
C1344 C1343 1.415 . S
C1345 H1321 0.951 . S
C1345 C1346 1.366 . S
C1345 C1347 1.388 . S
C1346 C1345 1.366 . S
C1346 C1350 1.385 . S
C1347 H1322 0.951 . S
C1347 C1345 1.388 . S
C1347 C1348 1.366 . S
C1348 C1347 1.366 . S
C1348 C1349 1.414 . S
C1348 C1351 1.499 . S
C1349 H1323 0.950 . S
C1349 C1348 1.414 . S
C1349 C1350 1.374 . S
C1350 H1324 0.950 . S
C1350 C1346 1.385 . S
C1350 C1349 1.374 . S
C1351 C1348 1.499 . S
C1351 C1352 1.373 . S
C1351 C1353 1.389 . S
C1352 H1325 0.950 . S
C1352 C1338 1.377 . S
C1352 C1351 1.373 . S
C1353 C1337 1.377 . S
C1353 C1351 1.389 . S
C1353 C1354 1.524 . S
C1354 C1353 1.524 . S
C1354 C1355 1.397 . S
C1354 C1359 1.363 . S
C1355 H1326 0.950 . S
C1355 C1354 1.397 . S
C1355 C1356 1.334 . S
C1356 H1327 0.950 . S
C1356 C1355 1.334 . S
C1356 C1357 1.287 . S
C1357 C1356 1.287 . S
C1357 C1358 1.524 . S
C1357 H1360 0.999 . S
C1358 H1328 0.950 . S
C1358 C1357 1.524 . S
C1358 C1359 1.415 . S
C1359 H1329 0.950 . S
C1359 C1354 1.363 . S
C1359 C1358 1.415 . S
H1360 C1357 0.999 . S
H1361 C1342 0.913 . S
H1362 C1380 0.951 . S
H1363 C1382 0.951 . S
H1364 C1384 0.950 . S
H1365 C1385 0.950 . S
H1366 C1387 0.950 . S
H1367 C1390 0.950 . S
H1368 C1391 0.950 . S
H1369 C1393 0.950 . S
H1370 C1394 0.950 . S
H1371 C1395 0.951 . S
H1372 C1397 0.951 . S
H1373 C1399 0.950 . S
H1374 C1400 0.950 . S
H1375 C1402 0.950 . S
H1376 C1405 0.950 . S
H1377 C1406 0.950 . S
H1378 C1408 0.950 . S
H1379 C1409 0.950 . S
C1380 H1362 0.951 . S
C1380 C1381 1.366 . S
C1380 C1382 1.388 . S
C1381 C1380 1.366 . S
C1381 C1385 1.385 . S
C1382 H1363 0.951 . S
C1382 C1380 1.388 . S
C1382 C1383 1.366 . S
C1383 C1382 1.366 . S
C1383 C1384 1.414 . S
C1383 C1386 1.499 . S
C1384 H1364 0.950 . S
C1384 C1383 1.414 . S
C1384 C1385 1.374 . S
C1385 H1365 0.950 . S
C1385 C1381 1.385 . S
C1385 C1384 1.374 . S
C1386 C1383 1.499 . S
C1386 C1387 1.373 . S
C1386 C1388 1.389 . S
C1387 H1366 0.950 . S
C1387 C1386 1.373 . S
C1387 C1403 1.377 . S
C1388 C1386 1.389 . S
C1388 C1389 1.524 . S
C1388 C1402 1.377 . S
C1389 C1388 1.524 . S
C1389 C1390 1.397 . S
C1389 C1394 1.363 . S
C1390 H1367 0.950 . S
C1390 C1389 1.397 . S
C1390 C1391 1.334 . S
C1391 H1368 0.950 . S
C1391 C1390 1.334 . S
C1391 C1392 1.287 . S
C1392 C1391 1.287 . S
C1392 C1393 1.524 . S
C1392 H1411 0.913 . S
C1393 H1369 0.950 . S
C1393 C1392 1.524 . S
C1393 C1394 1.415 . S
C1394 H1370 0.950 . S
C1394 C1389 1.363 . S
C1394 C1393 1.415 . S
C1395 H1371 0.951 . S
C1395 C1396 1.366 . S
C1395 C1397 1.388 . S
C1396 C1395 1.366 . S
C1396 C1400 1.385 . S
C1397 H1372 0.951 . S
C1397 C1395 1.388 . S
C1397 C1398 1.366 . S
C1398 C1397 1.366 . S
C1398 C1399 1.414 . S
C1398 C1401 1.499 . S
C1399 H1373 0.950 . S
C1399 C1398 1.414 . S
C1399 C1400 1.374 . S
C1400 H1374 0.950 . S
C1400 C1396 1.385 . S
C1400 C1399 1.374 . S
C1401 C1398 1.499 . S
C1401 C1402 1.373 . S
C1401 C1403 1.389 . S
C1402 H1375 0.950 . S
C1402 C1388 1.377 . S
C1402 C1401 1.373 . S
C1403 C1387 1.377 . S
C1403 C1401 1.389 . S
C1403 C1404 1.524 . S
C1404 C1403 1.524 . S
C1404 C1405 1.397 . S
C1404 C1409 1.363 . S
C1405 H1376 0.950 . S
C1405 C1404 1.397 . S
C1405 C1406 1.334 . S
C1406 H1377 0.950 . S
C1406 C1405 1.334 . S
C1406 C1407 1.287 . S
C1407 C1406 1.287 . S
C1407 C1408 1.524 . S
C1407 H1410 0.999 . S
C1408 H1378 0.950 . S
C1408 C1407 1.524 . S
C1408 C1409 1.415 . S
C1409 H1379 0.950 . S
C1409 C1404 1.363 . S
C1409 C1408 1.415 . S
H1410 C1407 0.999 . S
H1411 C1392 0.913 . S
H1412 C1430 0.951 . S
H1413 C1432 0.951 . S
H1414 C1434 0.950 . S
H1415 C1435 0.950 . S
H1416 C1437 0.950 . S
H1417 C1440 0.950 . S
H1418 C1441 0.950 . S
H1419 C1443 0.950 . S
H1420 C1444 0.950 . S
H1421 C1445 0.951 . S
H1422 C1447 0.951 . S
H1423 C1449 0.950 . S
H1424 C1450 0.950 . S
H1425 C1452 0.950 . S
H1426 C1455 0.950 . S
H1427 C1456 0.950 . S
H1428 C1458 0.950 . S
H1429 C1459 0.950 . S
C1430 H1412 0.951 . S
C1430 C1431 1.366 . S
C1430 C1432 1.388 . S
C1431 C1430 1.366 . S
C1431 C1435 1.385 . S
C1432 H1413 0.951 . S
C1432 C1430 1.388 . S
C1432 C1433 1.366 . S
C1433 C1432 1.366 . S
C1433 C1434 1.414 . S
C1433 C1436 1.499 . S
C1434 H1414 0.950 . S
C1434 C1433 1.414 . S
C1434 C1435 1.374 . S
C1435 H1415 0.950 . S
C1435 C1431 1.385 . S
C1435 C1434 1.374 . S
C1436 C1433 1.499 . S
C1436 C1437 1.373 . S
C1436 C1438 1.389 . S
C1437 H1416 0.950 . S
C1437 C1436 1.373 . S
C1437 C1453 1.377 . S
C1438 C1436 1.389 . S
C1438 C1439 1.524 . S
C1438 C1452 1.377 . S
C1439 C1438 1.524 . S
C1439 C1440 1.397 . S
C1439 C1444 1.363 . S
C1440 H1417 0.950 . S
C1440 C1439 1.397 . S
C1440 C1441 1.334 . S
C1441 H1418 0.950 . S
C1441 C1440 1.334 . S
C1441 C1442 1.287 . S
C1442 C1441 1.287 . S
C1442 C1443 1.524 . S
C1442 H1461 0.913 . S
C1443 H1419 0.950 . S
C1443 C1442 1.524 . S
C1443 C1444 1.415 . S
C1444 H1420 0.950 . S
C1444 C1439 1.363 . S
C1444 C1443 1.415 . S
C1445 H1421 0.951 . S
C1445 C1446 1.366 . S
C1445 C1447 1.388 . S
C1446 C1445 1.366 . S
C1446 C1450 1.385 . S
C1447 H1422 0.951 . S
C1447 C1445 1.388 . S
C1447 C1448 1.366 . S
C1448 C1447 1.366 . S
C1448 C1449 1.414 . S
C1448 C1451 1.499 . S
C1449 H1423 0.950 . S
C1449 C1448 1.414 . S
C1449 C1450 1.374 . S
C1450 H1424 0.950 . S
C1450 C1446 1.385 . S
C1450 C1449 1.374 . S
C1451 C1448 1.499 . S
C1451 C1452 1.373 . S
C1451 C1453 1.389 . S
C1452 H1425 0.950 . S
C1452 C1438 1.377 . S
C1452 C1451 1.373 . S
C1453 C1437 1.377 . S
C1453 C1451 1.389 . S
C1453 C1454 1.524 . S
C1454 C1453 1.524 . S
C1454 C1455 1.397 . S
C1454 C1459 1.363 . S
C1455 H1426 0.950 . S
C1455 C1454 1.397 . S
C1455 C1456 1.334 . S
C1456 H1427 0.950 . S
C1456 C1455 1.334 . S
C1456 C1457 1.287 . S
C1457 C1456 1.287 . S
C1457 C1458 1.524 . S
C1457 H1460 0.999 . S
C1458 H1428 0.950 . S
C1458 C1457 1.524 . S
C1458 C1459 1.415 . S
C1459 H1429 0.950 . S
C1459 C1454 1.363 . S
C1459 C1458 1.415 . S
H1460 C1457 0.999 . S
H1461 C1442 0.913 . S
H1462 C1480 0.951 . S
H1463 C1482 0.951 . S
H1464 C1484 0.950 . S
H1465 C1485 0.950 . S
H1466 C1487 0.950 . S
H1467 C1490 0.950 . S
H1468 C1491 0.950 . S
H1469 C1493 0.950 . S
H1470 C1494 0.950 . S
H1471 C1495 0.951 . S
H1472 C1497 0.951 . S
H1473 C1499 0.950 . S
H1474 C1500 0.950 . S
H1475 C1502 0.950 . S
H1476 C1505 0.950 . S
H1477 C1506 0.950 . S
H1478 C1508 0.950 . S
H1479 C1509 0.950 . S
C1480 H1462 0.951 . S
C1480 C1481 1.366 . S
C1480 C1482 1.388 . S
C1481 C1480 1.366 . S
C1481 C1485 1.385 . S
C1482 H1463 0.951 . S
C1482 C1480 1.388 . S
C1482 C1483 1.366 . S
C1483 C1482 1.366 . S
C1483 C1484 1.414 . S
C1483 C1486 1.499 . S
C1484 H1464 0.950 . S
C1484 C1483 1.414 . S
C1484 C1485 1.374 . S
C1485 H1465 0.950 . S
C1485 C1481 1.385 . S
C1485 C1484 1.374 . S
C1486 C1483 1.499 . S
C1486 C1487 1.373 . S
C1486 C1488 1.389 . S
C1487 H1466 0.950 . S
C1487 C1486 1.373 . S
C1487 C1503 1.377 . S
C1488 C1486 1.389 . S
C1488 C1489 1.524 . S
C1488 C1502 1.377 . S
C1489 C1488 1.524 . S
C1489 C1490 1.397 . S
C1489 C1494 1.363 . S
C1490 H1467 0.950 . S
C1490 C1489 1.397 . S
C1490 C1491 1.334 . S
C1491 H1468 0.950 . S
C1491 C1490 1.334 . S
C1491 C1492 1.287 . S
C1492 C1491 1.287 . S
C1492 C1493 1.524 . S
C1492 H1511 0.913 . S
C1493 H1469 0.950 . S
C1493 C1492 1.524 . S
C1493 C1494 1.415 . S
C1494 H1470 0.950 . S
C1494 C1489 1.363 . S
C1494 C1493 1.415 . S
C1495 H1471 0.951 . S
C1495 C1496 1.366 . S
C1495 C1497 1.388 . S
C1496 C1495 1.366 . S
C1496 C1500 1.385 . S
C1497 H1472 0.951 . S
C1497 C1495 1.388 . S
C1497 C1498 1.366 . S
C1498 C1497 1.366 . S
C1498 C1499 1.414 . S
C1498 C1501 1.499 . S
C1499 H1473 0.950 . S
C1499 C1498 1.414 . S
C1499 C1500 1.374 . S
C1500 H1474 0.950 . S
C1500 C1496 1.385 . S
C1500 C1499 1.374 . S
C1501 C1498 1.499 . S
C1501 C1502 1.373 . S
C1501 C1503 1.389 . S
C1502 H1475 0.950 . S
C1502 C1488 1.377 . S
C1502 C1501 1.373 . S
C1503 C1487 1.377 . S
C1503 C1501 1.389 . S
C1503 C1504 1.524 . S
C1504 C1503 1.524 . S
C1504 C1505 1.397 . S
C1504 C1509 1.363 . S
C1505 H1476 0.950 . S
C1505 C1504 1.397 . S
C1505 C1506 1.334 . S
C1506 H1477 0.950 . S
C1506 C1505 1.334 . S
C1506 C1507 1.287 . S
C1507 C1506 1.287 . S
C1507 C1508 1.524 . S
C1507 H1510 0.999 . S
C1508 H1478 0.950 . S
C1508 C1507 1.524 . S
C1508 C1509 1.415 . S
C1509 H1479 0.950 . S
C1509 C1504 1.363 . S
C1509 C1508 1.415 . S
H1510 C1507 0.999 . S
H1511 C1492 0.913 . S
H1512 C1530 0.951 . S
H1513 C1532 0.951 . S
H1514 C1534 0.950 . S
H1515 C1535 0.950 . S
H1516 C1537 0.950 . S
H1517 C1540 0.950 . S
H1518 C1541 0.950 . S
H1519 C1543 0.950 . S
H1520 C1544 0.950 . S
H1521 C1545 0.951 . S
H1522 C1547 0.951 . S
H1523 C1549 0.950 . S
H1524 C1550 0.950 . S
H1525 C1552 0.950 . S
H1526 C1555 0.950 . S
H1527 C1556 0.950 . S
H1528 C1558 0.950 . S
H1529 C1559 0.950 . S
C1530 H1512 0.951 . S
C1530 C1531 1.366 . S
C1530 C1532 1.388 . S
C1531 C1530 1.366 . S
C1531 C1535 1.385 . S
C1532 H1513 0.951 . S
C1532 C1530 1.388 . S
C1532 C1533 1.366 . S
C1533 C1532 1.366 . S
C1533 C1534 1.414 . S
C1533 C1536 1.499 . S
C1534 H1514 0.950 . S
C1534 C1533 1.414 . S
C1534 C1535 1.374 . S
C1535 H1515 0.950 . S
C1535 C1531 1.385 . S
C1535 C1534 1.374 . S
C1536 C1533 1.499 . S
C1536 C1537 1.373 1_556 S
C1536 C1538 1.389 1_565 S
C1537 H1516 0.950 . S
C1537 C1536 1.373 1_554 S
C1537 C1553 1.377 . S
C1538 C1536 1.389 1_545 S
C1538 C1539 1.524 . S
C1538 C1552 1.377 . S
C1539 C1538 1.524 . S
C1539 C1540 1.397 . S
C1539 C1544 1.363 . S
C1540 H1517 0.950 . S
C1540 C1539 1.397 . S
C1540 C1541 1.334 . S
C1541 H1518 0.950 . S
C1541 C1540 1.334 . S
C1541 C1542 1.287 . S
C1542 C1541 1.287 . S
C1542 C1543 1.524 . S
C1542 H1561 0.913 . S
C1543 H1519 0.950 . S
C1543 C1542 1.524 . S
C1543 C1544 1.415 . S
C1544 H1520 0.950 . S
C1544 C1539 1.363 . S
C1544 C1543 1.415 . S
C1545 H1521 0.951 . S
C1545 C1546 1.366 . S
C1545 C1547 1.388 . S
C1546 C1545 1.366 . S
C1546 C1550 1.385 . S
C1547 H1522 0.951 . S
C1547 C1545 1.388 . S
C1547 C1548 1.366 . S
C1548 C1547 1.366 . S
C1548 C1549 1.414 . S
C1548 C1551 1.499 . S
C1549 H1523 0.950 . S
C1549 C1548 1.414 . S
C1549 C1550 1.374 . S
C1550 H1524 0.950 . S
C1550 C1546 1.385 . S
C1550 C1549 1.374 . S
C1551 C1548 1.499 . S
C1551 C1552 1.373 1_554 S
C1551 C1553 1.389 1_545 S
C1552 H1525 0.950 . S
C1552 C1538 1.377 . S
C1552 C1551 1.373 1_556 S
C1553 C1537 1.377 . S
C1553 C1551 1.389 1_565 S
C1553 C1554 1.524 . S
C1554 C1553 1.524 . S
C1554 C1555 1.397 . S
C1554 C1559 1.363 . S
C1555 H1526 0.950 . S
C1555 C1554 1.397 . S
C1555 C1556 1.334 . S
C1556 H1527 0.950 . S
C1556 C1555 1.334 . S
C1556 C1557 1.287 . S
C1557 C1556 1.287 . S
C1557 C1558 1.524 . S
C1557 H1560 0.999 . S
C1558 H1528 0.950 . S
C1558 C1557 1.524 . S
C1558 C1559 1.415 . S
C1559 H1529 0.950 . S
C1559 C1554 1.363 . S
C1559 C1558 1.415 . S
H1560 C1557 0.999 . S
H1561 C1542 0.913 . S
H1562 C1580 0.951 . S
H1563 C1582 0.951 . S
H1564 C1584 0.950 . S
H1565 C1585 0.950 . S
H1566 C1587 0.950 . S
H1567 C1590 0.950 . S
H1568 C1591 0.950 . S
H1569 C1593 0.950 . S
H1570 C1594 0.950 . S
H1571 C1595 0.951 . S
H1572 C1597 0.951 . S
H1573 C1599 0.950 . S
H1574 C1600 0.950 . S
H1575 C1602 0.950 . S
H1576 C1605 0.950 . S
H1577 C1606 0.950 . S
H1578 C1608 0.950 . S
H1579 C1609 0.950 . S
C1580 H1562 0.951 . S
C1580 C1581 1.366 . S
C1580 C1582 1.388 . S
C1581 C1580 1.366 . S
C1581 C1585 1.385 . S
C1582 H1563 0.951 . S
C1582 C1580 1.388 . S
C1582 C1583 1.366 . S
C1583 C1582 1.366 . S
C1583 C1584 1.414 . S
C1583 C1586 1.499 . S
C1584 H1564 0.950 . S
C1584 C1583 1.414 . S
C1584 C1585 1.374 . S
C1585 H1565 0.950 . S
C1585 C1581 1.385 . S
C1585 C1584 1.374 . S
C1586 C1583 1.499 . S
C1586 C1587 1.373 . S
C1586 C1588 1.389 . S
C1587 H1566 0.950 . S
C1587 C1586 1.373 . S
C1587 C1603 1.377 . S
C1588 C1586 1.389 . S
C1588 C1589 1.524 . S
C1588 C1602 1.377 . S
C1589 C1588 1.524 . S
C1589 C1590 1.397 . S
C1589 C1594 1.363 . S
C1590 H1567 0.950 . S
C1590 C1589 1.397 . S
C1590 C1591 1.334 . S
C1591 H1568 0.950 . S
C1591 C1590 1.334 . S
C1591 C1592 1.287 . S
C1592 C1591 1.287 . S
C1592 C1593 1.524 . S
C1592 H1611 0.913 . S
C1593 H1569 0.950 . S
C1593 C1592 1.524 . S
C1593 C1594 1.415 . S
C1594 H1570 0.950 . S
C1594 C1589 1.363 . S
C1594 C1593 1.415 . S
C1595 H1571 0.951 . S
C1595 C1596 1.366 . S
C1595 C1597 1.388 . S
C1596 C1595 1.366 . S
C1596 C1600 1.385 . S
C1597 H1572 0.951 . S
C1597 C1595 1.388 . S
C1597 C1598 1.366 . S
C1598 C1597 1.366 . S
C1598 C1599 1.414 . S
C1598 C1601 1.499 . S
C1599 H1573 0.950 . S
C1599 C1598 1.414 . S
C1599 C1600 1.374 . S
C1600 H1574 0.950 . S
C1600 C1596 1.385 . S
C1600 C1599 1.374 . S
C1601 C1598 1.499 . S
C1601 C1602 1.373 . S
C1601 C1603 1.389 . S
C1602 H1575 0.950 . S
C1602 C1588 1.377 . S
C1602 C1601 1.373 . S
C1603 C1587 1.377 . S
C1603 C1601 1.389 . S
C1603 C1604 1.524 . S
C1604 C1603 1.524 . S
C1604 C1605 1.397 . S
C1604 C1609 1.363 . S
C1605 H1576 0.950 . S
C1605 C1604 1.397 . S
C1605 C1606 1.334 . S
C1606 H1577 0.950 . S
C1606 C1605 1.334 . S
C1606 C1607 1.287 . S
C1607 C1606 1.287 . S
C1607 C1608 1.524 . S
C1607 H1610 0.999 . S
C1608 H1578 0.950 . S
C1608 C1607 1.524 . S
C1608 C1609 1.415 . S
C1609 H1579 0.950 . S
C1609 C1604 1.363 . S
C1609 C1608 1.415 . S
H1610 C1607 0.999 . S
H1611 C1592 0.913 . S
H1612 C1630 0.951 . S
H1613 C1632 0.951 . S
H1614 C1634 0.950 . S
H1615 C1635 0.950 . S
H1616 C1637 0.950 . S
H1617 C1640 0.950 . S
H1618 C1641 0.950 . S
H1619 C1643 0.950 . S
H1620 C1644 0.950 . S
H1621 C1645 0.951 . S
H1622 C1647 0.951 . S
H1623 C1649 0.950 . S
H1624 C1650 0.950 . S
H1625 C1652 0.950 . S
H1626 C1655 0.950 . S
H1627 C1656 0.950 . S
H1628 C1658 0.950 . S
H1629 C1659 0.950 . S
C1630 H1612 0.951 . S
C1630 C1631 1.366 . S
C1630 C1632 1.388 . S
C1631 C1630 1.366 . S
C1631 C1635 1.385 . S
C1632 H1613 0.951 . S
C1632 C1630 1.388 . S
C1632 C1633 1.366 . S
C1633 C1632 1.366 . S
C1633 C1634 1.414 . S
C1633 C1636 1.499 . S
C1634 H1614 0.950 . S
C1634 C1633 1.414 . S
C1634 C1635 1.374 . S
C1635 H1615 0.950 . S
C1635 C1631 1.385 . S
C1635 C1634 1.374 . S
C1636 C1633 1.499 . S
C1636 C1637 1.373 1_556 S
C1636 C1638 1.389 1_455 S
C1637 H1616 0.950 . S
C1637 C1636 1.373 1_554 S
C1637 C1653 1.377 . S
C1638 C1636 1.389 1_655 S
C1638 C1639 1.524 . S
C1638 C1652 1.377 . S
C1639 C1638 1.524 . S
C1639 C1640 1.397 . S
C1639 C1644 1.363 . S
C1640 H1617 0.950 . S
C1640 C1639 1.397 . S
C1640 C1641 1.334 . S
C1641 H1618 0.950 . S
C1641 C1640 1.334 . S
C1641 C1642 1.287 . S
C1642 C1641 1.287 . S
C1642 C1643 1.524 . S
C1642 H1661 0.913 . S
C1643 H1619 0.950 . S
C1643 C1642 1.524 . S
C1643 C1644 1.415 . S
C1644 H1620 0.950 . S
C1644 C1639 1.363 . S
C1644 C1643 1.415 . S
C1645 H1621 0.951 . S
C1645 C1646 1.366 . S
C1645 C1647 1.388 . S
C1646 C1645 1.366 . S
C1646 C1650 1.385 . S
C1647 H1622 0.951 . S
C1647 C1645 1.388 . S
C1647 C1648 1.366 . S
C1648 C1647 1.366 . S
C1648 C1649 1.414 . S
C1648 C1651 1.499 . S
C1649 H1623 0.950 . S
C1649 C1648 1.414 . S
C1649 C1650 1.374 . S
C1650 H1624 0.950 . S
C1650 C1646 1.385 . S
C1650 C1649 1.374 . S
C1651 C1648 1.499 . S
C1651 C1652 1.373 1_554 S
C1651 C1653 1.389 1_655 S
C1652 H1625 0.950 . S
C1652 C1638 1.377 . S
C1652 C1651 1.373 1_556 S
C1653 C1637 1.377 . S
C1653 C1651 1.389 1_455 S
C1653 C1654 1.524 . S
C1654 C1653 1.524 . S
C1654 C1655 1.397 . S
C1654 C1659 1.363 . S
C1655 H1626 0.950 . S
C1655 C1654 1.397 . S
C1655 C1656 1.334 . S
C1656 H1627 0.950 . S
C1656 C1655 1.334 . S
C1656 C1657 1.287 . S
C1657 C1656 1.287 . S
C1657 C1658 1.524 . S
C1657 H1660 0.999 . S
C1658 H1628 0.950 . S
C1658 C1657 1.524 . S
C1658 C1659 1.415 . S
C1659 H1629 0.950 . S
C1659 C1654 1.363 . S
C1659 C1658 1.415 . S
H1660 C1657 0.999 . S
H1661 C1642 0.913 . S
H1662 C1680 0.951 . S
H1663 C1682 0.951 . S
H1664 C1684 0.950 . S
H1665 C1685 0.950 . S
H1666 C1687 0.950 . S
H1667 C1690 0.950 . S
H1668 C1691 0.950 . S
H1669 C1693 0.950 . S
H1670 C1694 0.950 . S
H1671 C1695 0.951 . S
H1672 C1697 0.951 . S
H1673 C1699 0.950 . S
H1674 C1700 0.950 . S
H1675 C1702 0.950 . S
H1676 C1705 0.950 . S
H1677 C1706 0.950 . S
H1678 C1708 0.950 . S
H1679 C1709 0.950 . S
C1680 H1662 0.951 . S
C1680 C1681 1.366 . S
C1680 C1682 1.388 . S
C1681 C1680 1.366 . S
C1681 C1685 1.385 . S
C1682 H1663 0.951 . S
C1682 C1680 1.388 . S
C1682 C1683 1.366 . S
C1683 C1682 1.366 . S
C1683 C1684 1.414 . S
C1683 C1686 1.499 . S
C1684 H1664 0.950 . S
C1684 C1683 1.414 . S
C1684 C1685 1.374 . S
C1685 H1665 0.950 . S
C1685 C1681 1.385 . S
C1685 C1684 1.374 . S
C1686 C1683 1.499 . S
C1686 C1687 1.373 . S
C1686 C1688 1.389 . S
C1687 H1666 0.950 . S
C1687 C1686 1.373 . S
C1687 C1703 1.377 1_545 S
C1688 C1686 1.389 . S
C1688 C1689 1.524 . S
C1688 C1702 1.377 1_545 S
C1689 C1688 1.524 . S
C1689 C1690 1.397 . S
C1689 C1694 1.363 . S
C1690 H1667 0.950 . S
C1690 C1689 1.397 . S
C1690 C1691 1.334 . S
C1691 H1668 0.950 . S
C1691 C1690 1.334 . S
C1691 C1692 1.287 . S
C1692 C1691 1.287 . S
C1692 C1693 1.524 . S
C1692 H1711 0.913 . S
C1693 H1669 0.950 . S
C1693 C1692 1.524 . S
C1693 C1694 1.415 . S
C1694 H1670 0.950 . S
C1694 C1689 1.363 . S
C1694 C1693 1.415 . S
C1695 H1671 0.951 . S
C1695 C1696 1.366 . S
C1695 C1697 1.388 . S
C1696 C1695 1.366 . S
C1696 C1700 1.385 . S
C1697 H1672 0.951 . S
C1697 C1695 1.388 . S
C1697 C1698 1.366 . S
C1698 C1697 1.366 . S
C1698 C1699 1.414 . S
C1698 C1701 1.499 . S
C1699 H1673 0.950 . S
C1699 C1698 1.414 . S
C1699 C1700 1.374 . S
C1700 H1674 0.950 . S
C1700 C1696 1.385 . S
C1700 C1699 1.374 . S
C1701 C1698 1.499 . S
C1701 C1702 1.373 . S
C1701 C1703 1.389 . S
C1702 H1675 0.950 . S
C1702 C1688 1.377 1_565 S
C1702 C1701 1.373 . S
C1703 C1687 1.377 1_565 S
C1703 C1701 1.389 . S
C1703 C1704 1.524 . S
C1704 C1703 1.524 . S
C1704 C1705 1.397 . S
C1704 C1709 1.363 . S
C1705 H1676 0.950 . S
C1705 C1704 1.397 . S
C1705 C1706 1.334 . S
C1706 H1677 0.950 . S
C1706 C1705 1.334 . S
C1706 C1707 1.287 . S
C1707 C1706 1.287 . S
C1707 C1708 1.524 . S
C1707 H1710 0.999 . S
C1708 H1678 0.950 . S
C1708 C1707 1.524 . S
C1708 C1709 1.415 . S
C1709 H1679 0.950 . S
C1709 C1704 1.363 . S
C1709 C1708 1.415 . S
H1710 C1707 0.999 . S
H1711 C1692 0.913 . S
H1712 C1730 0.951 . S
H1713 C1732 0.951 . S
H1714 C1734 0.950 . S
H1715 C1735 0.950 . S
H1716 C1737 0.950 . S
H1717 C1740 0.950 . S
H1718 C1741 0.950 . S
H1719 C1743 0.950 . S
H1720 C1744 0.950 1_556 S
H1721 C1745 0.951 . S
H1722 C1747 0.951 . S
H1723 C1749 0.950 . S
H1724 C1750 0.950 . S
H1725 C1752 0.950 . S
H1726 C1755 0.950 . S
H1727 C1756 0.950 . S
H1728 C1758 0.950 . S
H1729 C1759 0.950 1_554 S
C1730 H1712 0.951 . S
C1730 C1731 1.366 . S
C1730 C1732 1.388 . S
C1731 C1730 1.366 . S
C1731 C1735 1.385 . S
C1732 H1713 0.951 . S
C1732 C1730 1.388 . S
C1732 C1733 1.366 . S
C1733 C1732 1.366 . S
C1733 C1734 1.414 . S
C1733 C1736 1.499 . S
C1734 H1714 0.950 . S
C1734 C1733 1.414 . S
C1734 C1735 1.374 . S
C1735 H1715 0.950 . S
C1735 C1731 1.385 . S
C1735 C1734 1.374 . S
C1736 C1733 1.499 . S
C1736 C1737 1.373 . S
C1736 C1738 1.389 . S
C1737 H1716 0.950 . S
C1737 C1736 1.373 . S
C1737 C1753 1.377 1_554 S
C1738 C1736 1.389 . S
C1738 C1739 1.524 . S
C1738 C1752 1.377 1_554 S
C1739 C1738 1.524 . S
C1739 C1740 1.397 . S
C1739 C1744 1.363 . S
C1740 H1717 0.950 . S
C1740 C1739 1.397 . S
C1740 C1741 1.334 . S
C1741 H1718 0.950 . S
C1741 C1740 1.334 . S
C1741 C1742 1.287 . S
C1742 C1741 1.287 . S
C1742 C1743 1.524 . S
C1742 H1761 0.913 . S
C1743 H1719 0.950 . S
C1743 C1742 1.524 . S
C1743 C1744 1.415 . S
C1744 H1720 0.950 1_554 S
C1744 C1739 1.363 . S
C1744 C1743 1.415 . S
C1745 H1721 0.951 . S
C1745 C1746 1.366 . S
C1745 C1747 1.388 . S
C1746 C1745 1.366 . S
C1746 C1750 1.385 . S
C1747 H1722 0.951 . S
C1747 C1745 1.388 . S
C1747 C1748 1.366 . S
C1748 C1747 1.366 . S
C1748 C1749 1.414 . S
C1748 C1751 1.499 . S
C1749 H1723 0.950 . S
C1749 C1748 1.414 . S
C1749 C1750 1.374 . S
C1750 H1724 0.950 . S
C1750 C1746 1.385 . S
C1750 C1749 1.374 . S
C1751 C1748 1.499 . S
C1751 C1752 1.373 . S
C1751 C1753 1.389 . S
C1752 H1725 0.950 . S
C1752 C1738 1.377 1_556 S
C1752 C1751 1.373 . S
C1753 C1737 1.377 1_556 S
C1753 C1751 1.389 . S
C1753 C1754 1.524 . S
C1754 C1753 1.524 . S
C1754 C1755 1.397 . S
C1754 C1759 1.363 . S
C1755 H1726 0.950 . S
C1755 C1754 1.397 . S
C1755 C1756 1.334 . S
C1756 H1727 0.950 . S
C1756 C1755 1.334 . S
C1756 C1757 1.287 . S
C1757 C1756 1.287 . S
C1757 C1758 1.524 . S
C1757 H1760 0.999 . S
C1758 H1728 0.950 . S
C1758 C1757 1.524 . S
C1758 C1759 1.415 . S
C1759 H1729 0.950 1_556 S
C1759 C1754 1.363 . S
C1759 C1758 1.415 . S
H1760 C1757 0.999 . S
H1761 C1742 0.913 . S
H1762 C1780 0.951 . S
H1763 C1782 0.951 . S
H1764 C1784 0.950 . S
H1765 C1785 0.950 . S
H1766 C1787 0.950 . S
H1767 C1790 0.950 . S
H1768 C1791 0.950 . S
H1769 C1793 0.950 . S
H1770 C1794 0.950 . S
H1771 C1795 0.951 . S
H1772 C1797 0.951 . S
H1773 C1799 0.950 . S
H1774 C1800 0.950 . S
H1775 C1802 0.950 . S
H1776 C1805 0.950 . S
H1777 C1806 0.950 . S
H1778 C1808 0.950 . S
H1779 C1809 0.950 . S
C1780 H1762 0.951 . S
C1780 C1781 1.366 . S
C1780 C1782 1.388 . S
C1781 C1780 1.366 . S
C1781 C1785 1.385 . S
C1782 H1763 0.951 . S
C1782 C1780 1.388 . S
C1782 C1783 1.366 . S
C1783 C1782 1.366 . S
C1783 C1784 1.414 . S
C1783 C1786 1.499 . S
C1784 H1764 0.950 . S
C1784 C1783 1.414 . S
C1784 C1785 1.374 . S
C1785 H1765 0.950 . S
C1785 C1781 1.385 . S
C1785 C1784 1.374 . S
C1786 C1783 1.499 . S
C1786 C1787 1.373 . S
C1786 C1788 1.389 . S
C1787 H1766 0.950 . S
C1787 C1786 1.373 . S
C1787 C1803 1.377 1_455 S
C1788 C1786 1.389 . S
C1788 C1789 1.524 . S
C1788 C1802 1.377 1_455 S
C1789 C1788 1.524 . S
C1789 C1790 1.397 . S
C1789 C1794 1.363 . S
C1790 H1767 0.950 . S
C1790 C1789 1.397 . S
C1790 C1791 1.334 . S
C1791 H1768 0.950 . S
C1791 C1790 1.334 . S
C1791 C1792 1.287 . S
C1792 C1791 1.287 . S
C1792 C1793 1.524 . S
C1792 H1811 0.913 . S
C1793 H1769 0.950 . S
C1793 C1792 1.524 . S
C1793 C1794 1.415 . S
C1794 H1770 0.950 . S
C1794 C1789 1.363 . S
C1794 C1793 1.415 . S
C1795 H1771 0.951 . S
C1795 C1796 1.366 . S
C1795 C1797 1.388 . S
C1796 C1795 1.366 . S
C1796 C1800 1.385 . S
C1797 H1772 0.951 . S
C1797 C1795 1.388 . S
C1797 C1798 1.366 . S
C1798 C1797 1.366 . S
C1798 C1799 1.414 . S
C1798 C1801 1.499 . S
C1799 H1773 0.950 . S
C1799 C1798 1.414 . S
C1799 C1800 1.374 . S
C1800 H1774 0.950 . S
C1800 C1796 1.385 . S
C1800 C1799 1.374 . S
C1801 C1798 1.499 . S
C1801 C1802 1.373 . S
C1801 C1803 1.389 . S
C1802 H1775 0.950 . S
C1802 C1788 1.377 1_655 S
C1802 C1801 1.373 . S
C1803 C1787 1.377 1_655 S
C1803 C1801 1.389 . S
C1803 C1804 1.524 . S
C1804 C1803 1.524 . S
C1804 C1805 1.397 . S
C1804 C1809 1.363 . S
C1805 H1776 0.950 . S
C1805 C1804 1.397 . S
C1805 C1806 1.334 . S
C1806 H1777 0.950 . S
C1806 C1805 1.334 . S
C1806 C1807 1.287 . S
C1807 C1806 1.287 . S
C1807 C1808 1.524 . S
C1807 H1810 0.999 . S
C1808 H1778 0.950 . S
C1808 C1807 1.524 . S
C1808 C1809 1.415 . S
C1809 H1779 0.950 . S
C1809 C1804 1.363 . S
C1809 C1808 1.415 . S
H1810 C1807 0.999 . S
H1811 C1792 0.913 . S
H1812 C1830 0.951 . S
H1813 C1832 0.951 . S
H1814 C1834 0.950 . S
H1815 C1835 0.950 . S
H1816 C1837 0.950 . S
H1817 C1840 0.950 . S
H1818 C1841 0.950 1_565 S
H1819 C1843 0.950 . S
H1820 C1844 0.950 . S
H1821 C1845 0.951 . S
H1822 C1847 0.951 . S
H1823 C1849 0.950 . S
H1824 C1850 0.950 . S
H1825 C1852 0.950 . S
H1826 C1855 0.950 . S
H1827 C1856 0.950 1_545 S
H1828 C1858 0.950 . S
H1829 C1859 0.950 . S
C1830 H1812 0.951 . S
C1830 C1831 1.366 . S
C1830 C1832 1.388 . S
C1831 C1830 1.366 . S
C1831 C1835 1.385 . S
C1832 H1813 0.951 . S
C1832 C1830 1.388 . S
C1832 C1833 1.366 . S
C1833 C1832 1.366 . S
C1833 C1834 1.414 . S
C1833 C1836 1.499 . S
C1834 H1814 0.950 . S
C1834 C1833 1.414 . S
C1834 C1835 1.374 . S
C1835 H1815 0.950 . S
C1835 C1831 1.385 . S
C1835 C1834 1.374 . S
C1836 C1833 1.499 . S
C1836 C1837 1.373 1_556 S
C1836 C1838 1.389 1_565 S
C1837 H1816 0.950 . S
C1837 C1836 1.373 1_554 S
C1837 C1853 1.377 . S
C1838 C1836 1.389 1_545 S
C1838 C1839 1.524 . S
C1838 C1852 1.377 . S
C1839 C1838 1.524 . S
C1839 C1840 1.397 1_545 S
C1839 C1844 1.363 . S
C1840 H1817 0.950 . S
C1840 C1839 1.397 1_565 S
C1840 C1841 1.334 1_565 S
C1841 H1818 0.950 1_545 S
C1841 C1840 1.334 1_545 S
C1841 C1842 1.287 . S
C1842 C1841 1.287 . S
C1842 C1843 1.524 . S
C1842 H1861 0.913 . S
C1843 H1819 0.950 . S
C1843 C1842 1.524 . S
C1843 C1844 1.415 . S
C1844 H1820 0.950 . S
C1844 C1839 1.363 . S
C1844 C1843 1.415 . S
C1845 H1821 0.951 . S
C1845 C1846 1.366 . S
C1845 C1847 1.388 . S
C1846 C1845 1.366 . S
C1846 C1850 1.385 . S
C1847 H1822 0.951 . S
C1847 C1845 1.388 . S
C1847 C1848 1.366 . S
C1848 C1847 1.366 . S
C1848 C1849 1.414 . S
C1848 C1851 1.499 . S
C1849 H1823 0.950 . S
C1849 C1848 1.414 . S
C1849 C1850 1.374 . S
C1850 H1824 0.950 . S
C1850 C1846 1.385 . S
C1850 C1849 1.374 . S
C1851 C1848 1.499 . S
C1851 C1852 1.373 1_554 S
C1851 C1853 1.389 1_545 S
C1852 H1825 0.950 . S
C1852 C1838 1.377 . S
C1852 C1851 1.373 1_556 S
C1853 C1837 1.377 . S
C1853 C1851 1.389 1_565 S
C1853 C1854 1.524 . S
C1854 C1853 1.524 . S
C1854 C1855 1.397 1_565 S
C1854 C1859 1.363 . S
C1855 H1826 0.950 . S
C1855 C1854 1.397 1_545 S
C1855 C1856 1.334 1_545 S
C1856 H1827 0.950 1_565 S
C1856 C1855 1.334 1_565 S
C1856 C1857 1.287 . S
C1857 C1856 1.287 . S
C1857 C1858 1.524 . S
C1857 H1860 0.999 . S
C1858 H1828 0.950 . S
C1858 C1857 1.524 . S
C1858 C1859 1.415 . S
C1859 H1829 0.950 . S
C1859 C1854 1.363 . S
C1859 C1858 1.415 . S
H1860 C1857 0.999 . S
H1861 C1842 0.913 . S
H1862 C1880 0.951 . S
H1863 C1882 0.951 . S
H1864 C1884 0.950 . S
H1865 C1885 0.950 . S
H1866 C1887 0.950 . S
H1867 C1890 0.950 . S
H1868 C1891 0.950 . S
H1869 C1893 0.950 . S
H1870 C1894 0.950 . S
H1871 C1895 0.951 . S
H1872 C1897 0.951 . S
H1873 C1899 0.950 . S
H1874 C1900 0.950 . S
H1875 C1902 0.950 . S
H1876 C1905 0.950 . S
H1877 C1906 0.950 . S
H1878 C1908 0.950 . S
H1879 C1909 0.950 . S
C1880 H1862 0.951 . S
C1880 C1881 1.366 . S
C1880 C1882 1.388 . S
C1881 C1880 1.366 . S
C1881 C1885 1.385 . S
C1882 H1863 0.951 . S
C1882 C1880 1.388 . S
C1882 C1883 1.366 . S
C1883 C1882 1.366 . S
C1883 C1884 1.414 . S
C1883 C1886 1.499 . S
C1884 H1864 0.950 . S
C1884 C1883 1.414 . S
C1884 C1885 1.374 . S
C1885 H1865 0.950 . S
C1885 C1881 1.385 . S
C1885 C1884 1.374 . S
C1886 C1883 1.499 . S
C1886 C1887 1.373 . S
C1886 C1888 1.389 . S
C1887 H1866 0.950 . S
C1887 C1886 1.373 . S
C1887 C1903 1.377 . S
C1888 C1886 1.389 . S
C1888 C1889 1.524 . S
C1888 C1902 1.377 . S
C1889 C1888 1.524 . S
C1889 C1890 1.397 . S
C1889 C1894 1.363 . S
C1890 H1867 0.950 . S
C1890 C1889 1.397 . S
C1890 C1891 1.334 . S
C1891 H1868 0.950 . S
C1891 C1890 1.334 . S
C1891 C1892 1.287 . S
C1892 C1891 1.287 . S
C1892 C1893 1.524 . S
C1892 H1911 0.913 . S
C1893 H1869 0.950 . S
C1893 C1892 1.524 . S
C1893 C1894 1.415 . S
C1894 H1870 0.950 . S
C1894 C1889 1.363 . S
C1894 C1893 1.415 . S
C1895 H1871 0.951 . S
C1895 C1896 1.366 . S
C1895 C1897 1.388 . S
C1896 C1895 1.366 . S
C1896 C1900 1.385 . S
C1897 H1872 0.951 . S
C1897 C1895 1.388 . S
C1897 C1898 1.366 . S
C1898 C1897 1.366 . S
C1898 C1899 1.414 . S
C1898 C1901 1.499 . S
C1899 H1873 0.950 . S
C1899 C1898 1.414 . S
C1899 C1900 1.374 . S
C1900 H1874 0.950 . S
C1900 C1896 1.385 . S
C1900 C1899 1.374 . S
C1901 C1898 1.499 . S
C1901 C1902 1.373 . S
C1901 C1903 1.389 . S
C1902 H1875 0.950 . S
C1902 C1888 1.377 . S
C1902 C1901 1.373 . S
C1903 C1887 1.377 . S
C1903 C1901 1.389 . S
C1903 C1904 1.524 . S
C1904 C1903 1.524 . S
C1904 C1905 1.397 . S
C1904 C1909 1.363 . S
C1905 H1876 0.950 . S
C1905 C1904 1.397 . S
C1905 C1906 1.334 . S
C1906 H1877 0.950 . S
C1906 C1905 1.334 . S
C1906 C1907 1.287 . S
C1907 C1906 1.287 . S
C1907 C1908 1.524 . S
C1907 H1910 0.999 . S
C1908 H1878 0.950 . S
C1908 C1907 1.524 . S
C1908 C1909 1.415 . S
C1909 H1879 0.950 . S
C1909 C1904 1.363 . S
C1909 C1908 1.415 . S
H1910 C1907 0.999 . S
H1911 C1892 0.913 . S
H1912 C1930 0.951 . S
H1913 C1932 0.951 . S
H1914 C1934 0.950 . S
H1915 C1935 0.950 . S
H1916 C1937 0.950 . S
H1917 C1940 0.950 . S
H1918 C1941 0.950 . S
H1919 C1943 0.950 . S
H1920 C1944 0.950 . S
H1921 C1945 0.951 . S
H1922 C1947 0.951 . S
H1923 C1949 0.950 . S
H1924 C1950 0.950 . S
H1925 C1952 0.950 . S
H1926 C1955 0.950 . S
H1927 C1956 0.950 . S
H1928 C1958 0.950 . S
H1929 C1959 0.950 . S
C1930 H1912 0.951 . S
C1930 C1931 1.366 . S
C1930 C1932 1.388 . S
C1931 C1930 1.366 . S
C1931 C1935 1.385 . S
C1932 H1913 0.951 . S
C1932 C1930 1.388 . S
C1932 C1933 1.366 . S
C1933 C1932 1.366 . S
C1933 C1934 1.414 . S
C1933 C1936 1.499 . S
C1934 H1914 0.950 . S
C1934 C1933 1.414 . S
C1934 C1935 1.374 . S
C1935 H1915 0.950 . S
C1935 C1931 1.385 . S
C1935 C1934 1.374 . S
C1936 C1933 1.499 . S
C1936 C1937 1.373 1_554 S
C1936 C1938 1.389 1_655 S
C1937 H1916 0.950 . S
C1937 C1936 1.373 1_556 S
C1937 C1953 1.377 . S
C1938 C1936 1.389 1_455 S
C1938 C1939 1.524 . S
C1938 C1952 1.377 . S
C1939 C1938 1.524 . S
C1939 C1940 1.397 . S
C1939 C1944 1.363 . S
C1940 H1917 0.950 . S
C1940 C1939 1.397 . S
C1940 C1941 1.334 . S
C1941 H1918 0.950 . S
C1941 C1940 1.334 . S
C1941 C1942 1.287 . S
C1942 C1941 1.287 . S
C1942 C1943 1.524 . S
C1942 H1961 0.913 . S
C1943 H1919 0.950 . S
C1943 C1942 1.524 . S
C1943 C1944 1.415 . S
C1944 H1920 0.950 . S
C1944 C1939 1.363 . S
C1944 C1943 1.415 . S
C1945 H1921 0.951 . S
C1945 C1946 1.366 . S
C1945 C1947 1.388 . S
C1946 C1945 1.366 . S
C1946 C1950 1.385 . S
C1947 H1922 0.951 . S
C1947 C1945 1.388 . S
C1947 C1948 1.366 . S
C1948 C1947 1.366 . S
C1948 C1949 1.414 . S
C1948 C1951 1.499 . S
C1949 H1923 0.950 . S
C1949 C1948 1.414 . S
C1949 C1950 1.374 . S
C1950 H1924 0.950 . S
C1950 C1946 1.385 . S
C1950 C1949 1.374 . S
C1951 C1948 1.499 . S
C1951 C1952 1.373 1_556 S
C1951 C1953 1.389 1_455 S
C1952 H1925 0.950 . S
C1952 C1938 1.377 . S
C1952 C1951 1.373 1_554 S
C1953 C1937 1.377 . S
C1953 C1951 1.389 1_655 S
C1953 C1954 1.524 . S
C1954 C1953 1.524 . S
C1954 C1955 1.397 . S
C1954 C1959 1.363 . S
C1955 H1926 0.950 . S
C1955 C1954 1.397 . S
C1955 C1956 1.334 . S
C1956 H1927 0.950 . S
C1956 C1955 1.334 . S
C1956 C1957 1.287 . S
C1957 C1956 1.287 . S
C1957 C1958 1.524 . S
C1957 H1960 0.999 . S
C1958 H1928 0.950 . S
C1958 C1957 1.524 . S
C1958 C1959 1.415 . S
C1959 H1929 0.950 . S
C1959 C1954 1.363 . S
C1959 C1958 1.415 . S
H1960 C1957 0.999 . S
H1961 C1942 0.913 . S
H1962 C1980 0.951 . S
H1963 C1982 0.951 . S
H1964 C1984 0.950 . S
H1965 C1985 0.950 . S
H1966 C1987 0.950 . S
H1967 C1990 0.950 . S
H1968 C1991 0.950 . S
H1969 C1993 0.950 . S
H1970 C1994 0.950 1_545 S
H1971 C1995 0.951 . S
H1972 C1997 0.951 . S
H1973 C1999 0.950 . S
H1974 C2000 0.950 . S
H1975 C2002 0.950 . S
H1976 C2005 0.950 . S
H1977 C2006 0.950 . S
H1978 C2008 0.950 . S
H1979 C2009 0.950 1_565 S
C1980 H1962 0.951 . S
C1980 C1981 1.366 . S
C1980 C1982 1.388 . S
C1981 C1980 1.366 . S
C1981 C1985 1.385 . S
C1982 H1963 0.951 . S
C1982 C1980 1.388 . S
C1982 C1983 1.366 . S
C1983 C1982 1.366 . S
C1983 C1984 1.414 . S
C1983 C1986 1.499 . S
C1984 H1964 0.950 . S
C1984 C1983 1.414 . S
C1984 C1985 1.374 . S
C1985 H1965 0.950 . S
C1985 C1981 1.385 . S
C1985 C1984 1.374 . S
C1986 C1983 1.499 . S
C1986 C1987 1.373 . S
C1986 C1988 1.389 . S
C1987 H1966 0.950 . S
C1987 C1986 1.373 . S
C1987 C2003 1.377 1_565 S
C1988 C1986 1.389 . S
C1988 C1989 1.524 . S
C1988 C2002 1.377 1_565 S
C1989 C1988 1.524 . S
C1989 C1990 1.397 . S
C1989 C1994 1.363 . S
C1990 H1967 0.950 . S
C1990 C1989 1.397 . S
C1990 C1991 1.334 . S
C1991 H1968 0.950 . S
C1991 C1990 1.334 . S
C1991 C1992 1.287 . S
C1992 C1991 1.287 . S
C1992 C1993 1.524 . S
C1992 H2011 0.913 . S
C1993 H1969 0.950 . S
C1993 C1992 1.524 . S
C1993 C1994 1.415 . S
C1994 H1970 0.950 1_565 S
C1994 C1989 1.363 . S
C1994 C1993 1.415 . S
C1995 H1971 0.951 . S
C1995 C1996 1.366 . S
C1995 C1997 1.388 . S
C1996 C1995 1.366 . S
C1996 C2000 1.385 . S
C1997 H1972 0.951 . S
C1997 C1995 1.388 . S
C1997 C1998 1.366 . S
C1998 C1997 1.366 . S
C1998 C1999 1.414 . S
C1998 C2001 1.499 . S
C1999 H1973 0.950 . S
C1999 C1998 1.414 . S
C1999 C2000 1.374 . S
C2000 H1974 0.950 . S
C2000 C1996 1.385 . S
C2000 C1999 1.374 . S
C2001 C1998 1.499 . S
C2001 C2002 1.373 . S
C2001 C2003 1.389 . S
C2002 H1975 0.950 . S
C2002 C1988 1.377 1_545 S
C2002 C2001 1.373 . S
C2003 C1987 1.377 1_545 S
C2003 C2001 1.389 . S
C2003 C2004 1.524 . S
C2004 C2003 1.524 . S
C2004 C2005 1.397 . S
C2004 C2009 1.363 . S
C2005 H1976 0.950 . S
C2005 C2004 1.397 . S
C2005 C2006 1.334 . S
C2006 H1977 0.950 . S
C2006 C2005 1.334 . S
C2006 C2007 1.287 . S
C2007 C2006 1.287 . S
C2007 C2008 1.524 . S
C2007 H2010 0.999 . S
C2008 H1978 0.950 . S
C2008 C2007 1.524 . S
C2008 C2009 1.415 . S
C2009 H1979 0.950 1_545 S
C2009 C2004 1.363 . S
C2009 C2008 1.415 . S
H2010 C2007 0.999 . S
H2011 C1992 0.913 . S
H2012 C2030 0.951 . S
H2013 C2032 0.951 . S
H2014 C2034 0.950 . S
H2015 C2035 0.950 . S
H2016 C2037 0.950 . S
H2017 C2040 0.950 . S
H2018 C2041 0.950 . S
H2019 C2043 0.950 . S
H2020 C2044 0.950 . S
H2021 C2045 0.951 . S
H2022 C2047 0.951 . S
H2023 C2049 0.950 . S
H2024 C2050 0.950 . S
H2025 C2052 0.950 . S
H2026 C2055 0.950 . S
H2027 C2056 0.950 . S
H2028 C2058 0.950 . S
H2029 C2059 0.950 . S
C2030 H2012 0.951 . S
C2030 C2031 1.366 . S
C2030 C2032 1.388 . S
C2031 C2030 1.366 . S
C2031 C2035 1.385 . S
C2032 H2013 0.951 . S
C2032 C2030 1.388 . S
C2032 C2033 1.366 . S
C2033 C2032 1.366 . S
C2033 C2034 1.414 . S
C2033 C2036 1.499 . S
C2034 H2014 0.950 . S
C2034 C2033 1.414 . S
C2034 C2035 1.374 . S
C2035 H2015 0.950 . S
C2035 C2031 1.385 . S
C2035 C2034 1.374 . S
C2036 C2033 1.499 . S
C2036 C2037 1.373 . S
C2036 C2038 1.389 1_554 S
C2037 H2016 0.950 . S
C2037 C2036 1.373 . S
C2037 C2053 1.377 . S
C2038 C2036 1.389 1_556 S
C2038 C2039 1.524 . S
C2038 C2052 1.377 . S
C2039 C2038 1.524 . S
C2039 C2040 1.397 1_556 S
C2039 C2044 1.363 . S
C2040 H2017 0.950 . S
C2040 C2039 1.397 1_554 S
C2040 C2041 1.334 . S
C2041 H2018 0.950 . S
C2041 C2040 1.334 . S
C2041 C2042 1.287 1_554 S
C2042 C2041 1.287 1_556 S
C2042 C2043 1.524 . S
C2042 H2061 0.913 . S
C2043 H2019 0.950 . S
C2043 C2042 1.524 . S
C2043 C2044 1.415 . S
C2044 H2020 0.950 . S
C2044 C2039 1.363 . S
C2044 C2043 1.415 . S
C2045 H2021 0.951 . S
C2045 C2046 1.366 . S
C2045 C2047 1.388 . S
C2046 C2045 1.366 . S
C2046 C2050 1.385 . S
C2047 H2022 0.951 . S
C2047 C2045 1.388 . S
C2047 C2048 1.366 . S
C2048 C2047 1.366 . S
C2048 C2049 1.414 . S
C2048 C2051 1.499 . S
C2049 H2023 0.950 . S
C2049 C2048 1.414 . S
C2049 C2050 1.374 . S
C2050 H2024 0.950 . S
C2050 C2046 1.385 . S
C2050 C2049 1.374 . S
C2051 C2048 1.499 . S
C2051 C2052 1.373 . S
C2051 C2053 1.389 1_556 S
C2052 H2025 0.950 . S
C2052 C2038 1.377 . S
C2052 C2051 1.373 . S
C2053 C2037 1.377 . S
C2053 C2051 1.389 1_554 S
C2053 C2054 1.524 . S
C2054 C2053 1.524 . S
C2054 C2055 1.397 1_554 S
C2054 C2059 1.363 . S
C2055 H2026 0.950 . S
C2055 C2054 1.397 1_556 S
C2055 C2056 1.334 . S
C2056 H2027 0.950 . S
C2056 C2055 1.334 . S
C2056 C2057 1.287 1_556 S
C2057 C2056 1.287 1_554 S
C2057 C2058 1.524 . S
C2057 H2060 0.999 . S
C2058 H2028 0.950 . S
C2058 C2057 1.524 . S
C2058 C2059 1.415 . S
C2059 H2029 0.950 . S
C2059 C2054 1.363 . S
C2059 C2058 1.415 . S
H2060 C2057 0.999 . S
H2061 C2042 0.913 . S
H2062 C2080 0.951 . S
H2063 C2082 0.951 . S
H2064 C2084 0.950 . S
H2065 C2085 0.950 . S
H2066 C2087 0.950 . S
H2067 C2090 0.950 . S
H2068 C2091 0.950 . S
H2069 C2093 0.950 1_655 S
H2070 C2094 0.950 . S
H2071 C2095 0.951 . S
H2072 C2097 0.951 . S
H2073 C2099 0.950 . S
H2074 C2100 0.950 . S
H2075 C2102 0.950 . S
H2076 C2105 0.950 . S
H2077 C2106 0.950 . S
H2078 C2108 0.950 1_455 S
H2079 C2109 0.950 . S
C2080 H2062 0.951 . S
C2080 C2081 1.366 . S
C2080 C2082 1.388 . S
C2081 C2080 1.366 . S
C2081 C2085 1.385 . S
C2082 H2063 0.951 . S
C2082 C2080 1.388 . S
C2082 C2083 1.366 . S
C2083 C2082 1.366 . S
C2083 C2084 1.414 . S
C2083 C2086 1.499 . S
C2084 H2064 0.950 . S
C2084 C2083 1.414 . S
C2084 C2085 1.374 . S
C2085 H2065 0.950 . S
C2085 C2081 1.385 . S
C2085 C2084 1.374 . S
C2086 C2083 1.499 . S
C2086 C2087 1.373 . S
C2086 C2088 1.389 . S
C2087 H2066 0.950 . S
C2087 C2086 1.373 . S
C2087 C2103 1.377 1_455 S
C2088 C2086 1.389 . S
C2088 C2089 1.524 . S
C2088 C2102 1.377 1_455 S
C2089 C2088 1.524 . S
C2089 C2090 1.397 . S
C2089 C2094 1.363 1_455 S
C2090 H2067 0.950 . S
C2090 C2089 1.397 . S
C2090 C2091 1.334 . S
C2091 H2068 0.950 . S
C2091 C2090 1.334 . S
C2091 C2092 1.287 . S
C2092 C2091 1.287 . S
C2092 C2093 1.524 . S
C2092 H2111 0.913 . S
C2093 H2069 0.950 1_455 S
C2093 C2092 1.524 . S
C2093 C2094 1.415 1_455 S
C2094 H2070 0.950 . S
C2094 C2089 1.363 1_655 S
C2094 C2093 1.415 1_655 S
C2095 H2071 0.951 . S
C2095 C2096 1.366 . S
C2095 C2097 1.388 . S
C2096 C2095 1.366 . S
C2096 C2100 1.385 . S
C2097 H2072 0.951 . S
C2097 C2095 1.388 . S
C2097 C2098 1.366 . S
C2098 C2097 1.366 . S
C2098 C2099 1.414 . S
C2098 C2101 1.499 . S
C2099 H2073 0.950 . S
C2099 C2098 1.414 . S
C2099 C2100 1.374 . S
C2100 H2074 0.950 . S
C2100 C2096 1.385 . S
C2100 C2099 1.374 . S
C2101 C2098 1.499 . S
C2101 C2102 1.373 . S
C2101 C2103 1.389 . S
C2102 H2075 0.950 . S
C2102 C2088 1.377 1_655 S
C2102 C2101 1.373 . S
C2103 C2087 1.377 1_655 S
C2103 C2101 1.389 . S
C2103 C2104 1.524 . S
C2104 C2103 1.524 . S
C2104 C2105 1.397 . S
C2104 C2109 1.363 1_655 S
C2105 H2076 0.950 . S
C2105 C2104 1.397 . S
C2105 C2106 1.334 . S
C2106 H2077 0.950 . S
C2106 C2105 1.334 . S
C2106 C2107 1.287 . S
C2107 C2106 1.287 . S
C2107 C2108 1.524 . S
C2107 H2110 0.999 . S
C2108 H2078 0.950 1_655 S
C2108 C2107 1.524 . S
C2108 C2109 1.415 1_655 S
C2109 H2079 0.950 . S
C2109 C2104 1.363 1_455 S
C2109 C2108 1.415 1_455 S
H2110 C2107 0.999 . S
H2111 C2092 0.913 . S
H2112 C2130 0.951 . S
H2113 C2132 0.951 . S
H2114 C2134 0.950 . S
H2115 C2135 0.950 . S
H2116 C2137 0.950 . S
H2117 C2140 0.950 . S
H2118 C2141 0.950 . S
H2119 C2143 0.950 . S
H2120 C2144 0.950 . S
H2121 C2145 0.951 . S
H2122 C2147 0.951 . S
H2123 C2149 0.950 . S
H2124 C2150 0.950 . S
H2125 C2152 0.950 . S
H2126 C2155 0.950 . S
H2127 C2156 0.950 . S
H2128 C2158 0.950 . S
H2129 C2159 0.950 . S
C2130 H2112 0.951 . S
C2130 C2131 1.366 . S
C2130 C2132 1.388 . S
C2131 C2130 1.366 . S
C2131 C2135 1.385 . S
C2132 H2113 0.951 . S
C2132 C2130 1.388 . S
C2132 C2133 1.366 . S
C2133 C2132 1.366 . S
C2133 C2134 1.414 . S
C2133 C2136 1.499 . S
C2134 H2114 0.950 . S
C2134 C2133 1.414 . S
C2134 C2135 1.374 . S
C2135 H2115 0.950 . S
C2135 C2131 1.385 . S
C2135 C2134 1.374 . S
C2136 C2133 1.499 . S
C2136 C2137 1.373 . S
C2136 C2138 1.389 . S
C2137 H2116 0.950 . S
C2137 C2136 1.373 . S
C2137 C2153 1.377 . S
C2138 C2136 1.389 . S
C2138 C2139 1.524 . S
C2138 C2152 1.377 . S
C2139 C2138 1.524 . S
C2139 C2140 1.397 . S
C2139 C2144 1.363 . S
C2140 H2117 0.950 . S
C2140 C2139 1.397 . S
C2140 C2141 1.334 . S
C2141 H2118 0.950 . S
C2141 C2140 1.334 . S
C2141 C2142 1.287 . S
C2142 C2141 1.287 . S
C2142 C2143 1.524 . S
C2142 H2161 0.913 . S
C2143 H2119 0.950 . S
C2143 C2142 1.524 . S
C2143 C2144 1.415 . S
C2144 H2120 0.950 . S
C2144 C2139 1.363 . S
C2144 C2143 1.415 . S
C2145 H2121 0.951 . S
C2145 C2146 1.366 . S
C2145 C2147 1.388 . S
C2146 C2145 1.366 . S
C2146 C2150 1.385 . S
C2147 H2122 0.951 . S
C2147 C2145 1.388 . S
C2147 C2148 1.366 . S
C2148 C2147 1.366 . S
C2148 C2149 1.414 . S
C2148 C2151 1.499 . S
C2149 H2123 0.950 . S
C2149 C2148 1.414 . S
C2149 C2150 1.374 . S
C2150 H2124 0.950 . S
C2150 C2146 1.385 . S
C2150 C2149 1.374 . S
C2151 C2148 1.499 . S
C2151 C2152 1.373 . S
C2151 C2153 1.389 . S
C2152 H2125 0.950 . S
C2152 C2138 1.377 . S
C2152 C2151 1.373 . S
C2153 C2137 1.377 . S
C2153 C2151 1.389 . S
C2153 C2154 1.524 . S
C2154 C2153 1.524 . S
C2154 C2155 1.397 . S
C2154 C2159 1.363 . S
C2155 H2126 0.950 . S
C2155 C2154 1.397 . S
C2155 C2156 1.334 . S
C2156 H2127 0.950 . S
C2156 C2155 1.334 . S
C2156 C2157 1.287 . S
C2157 C2156 1.287 . S
C2157 C2158 1.524 . S
C2157 H2160 0.999 . S
C2158 H2128 0.950 . S
C2158 C2157 1.524 . S
C2158 C2159 1.415 . S
C2159 H2129 0.950 . S
C2159 C2154 1.363 . S
C2159 C2158 1.415 . S
H2160 C2157 0.999 . S
H2161 C2142 0.913 . S
H2162 C2180 0.951 . S
H2163 C2182 0.951 . S
H2164 C2184 0.950 . S
H2165 C2185 0.950 . S
H2166 C2187 0.950 . S
H2167 C2190 0.950 . S
H2168 C2191 0.950 . S
H2169 C2193 0.950 . S
H2170 C2194 0.950 . S
H2171 C2195 0.951 . S
H2172 C2197 0.951 . S
H2173 C2199 0.950 . S
H2174 C2200 0.950 . S
H2175 C2202 0.950 . S
H2176 C2205 0.950 . S
H2177 C2206 0.950 . S
H2178 C2208 0.950 . S
H2179 C2209 0.950 . S
C2180 H2162 0.951 . S
C2180 C2181 1.366 . S
C2180 C2182 1.388 . S
C2181 C2180 1.366 . S
C2181 C2185 1.385 . S
C2182 H2163 0.951 . S
C2182 C2180 1.388 . S
C2182 C2183 1.366 . S
C2183 C2182 1.366 . S
C2183 C2184 1.414 . S
C2183 C2186 1.499 . S
C2184 H2164 0.950 . S
C2184 C2183 1.414 . S
C2184 C2185 1.374 . S
C2185 H2165 0.950 . S
C2185 C2181 1.385 . S
C2185 C2184 1.374 . S
C2186 C2183 1.499 . S
C2186 C2187 1.373 . S
C2186 C2188 1.389 . S
C2187 H2166 0.950 . S
C2187 C2186 1.373 . S
C2187 C2203 1.377 . S
C2188 C2186 1.389 . S
C2188 C2189 1.524 . S
C2188 C2202 1.377 . S
C2189 C2188 1.524 . S
C2189 C2190 1.397 . S
C2189 C2194 1.363 . S
C2190 H2167 0.950 . S
C2190 C2189 1.397 . S
C2190 C2191 1.334 . S
C2191 H2168 0.950 . S
C2191 C2190 1.334 . S
C2191 C2192 1.287 . S
C2192 C2191 1.287 . S
C2192 C2193 1.524 . S
C2192 H2211 0.913 . S
C2193 H2169 0.950 . S
C2193 C2192 1.524 . S
C2193 C2194 1.415 . S
C2194 H2170 0.950 . S
C2194 C2189 1.363 . S
C2194 C2193 1.415 . S
C2195 H2171 0.951 . S
C2195 C2196 1.366 . S
C2195 C2197 1.388 . S
C2196 C2195 1.366 . S
C2196 C2200 1.385 . S
C2197 H2172 0.951 . S
C2197 C2195 1.388 . S
C2197 C2198 1.366 . S
C2198 C2197 1.366 . S
C2198 C2199 1.414 . S
C2198 C2201 1.499 . S
C2199 H2173 0.950 . S
C2199 C2198 1.414 . S
C2199 C2200 1.374 . S
C2200 H2174 0.950 . S
C2200 C2196 1.385 . S
C2200 C2199 1.374 . S
C2201 C2198 1.499 . S
C2201 C2202 1.373 . S
C2201 C2203 1.389 . S
C2202 H2175 0.950 . S
C2202 C2188 1.377 . S
C2202 C2201 1.373 . S
C2203 C2187 1.377 . S
C2203 C2201 1.389 . S
C2203 C2204 1.524 . S
C2204 C2203 1.524 . S
C2204 C2205 1.397 . S
C2204 C2209 1.363 . S
C2205 H2176 0.950 . S
C2205 C2204 1.397 . S
C2205 C2206 1.334 . S
C2206 H2177 0.950 . S
C2206 C2205 1.334 . S
C2206 C2207 1.287 . S
C2207 C2206 1.287 . S
C2207 C2208 1.524 . S
C2207 H2210 0.999 . S
C2208 H2178 0.950 . S
C2208 C2207 1.524 . S
C2208 C2209 1.415 . S
C2209 H2179 0.950 . S
C2209 C2204 1.363 . S
C2209 C2208 1.415 . S
H2210 C2207 0.999 . S
H2211 C2192 0.913 . S
H2212 C2230 0.951 . S
H2213 C2232 0.951 . S
H2214 C2234 0.950 . S
H2215 C2235 0.950 . S
H2216 C2237 0.950 . S
H2217 C2240 0.950 . S
H2218 C2241 0.950 . S
H2219 C2243 0.950 . S
H2220 C2244 0.950 . S
H2221 C2245 0.951 . S
H2222 C2247 0.951 . S
H2223 C2249 0.950 . S
H2224 C2250 0.950 . S
H2225 C2252 0.950 . S
H2226 C2255 0.950 . S
H2227 C2256 0.950 . S
H2228 C2258 0.950 . S
H2229 C2259 0.950 . S
C2230 H2212 0.951 . S
C2230 C2231 1.366 . S
C2230 C2232 1.388 . S
C2231 C2230 1.366 . S
C2231 C2235 1.385 . S
C2232 H2213 0.951 . S
C2232 C2230 1.388 . S
C2232 C2233 1.366 . S
C2233 C2232 1.366 . S
C2233 C2234 1.414 . S
C2233 C2236 1.499 . S
C2234 H2214 0.950 . S
C2234 C2233 1.414 . S
C2234 C2235 1.374 . S
C2235 H2215 0.950 . S
C2235 C2231 1.385 . S
C2235 C2234 1.374 . S
C2236 C2233 1.499 . S
C2236 C2237 1.373 . S
C2236 C2238 1.389 . S
C2237 H2216 0.950 . S
C2237 C2236 1.373 . S
C2237 C2253 1.377 . S
C2238 C2236 1.389 . S
C2238 C2239 1.524 . S
C2238 C2252 1.377 . S
C2239 C2238 1.524 . S
C2239 C2240 1.397 . S
C2239 C2244 1.363 . S
C2240 H2217 0.950 . S
C2240 C2239 1.397 . S
C2240 C2241 1.334 . S
C2241 H2218 0.950 . S
C2241 C2240 1.334 . S
C2241 C2242 1.287 . S
C2242 C2241 1.287 . S
C2242 C2243 1.524 . S
C2242 H2261 0.913 . S
C2243 H2219 0.950 . S
C2243 C2242 1.524 . S
C2243 C2244 1.415 . S
C2244 H2220 0.950 . S
C2244 C2239 1.363 . S
C2244 C2243 1.415 . S
C2245 H2221 0.951 . S
C2245 C2246 1.366 . S
C2245 C2247 1.388 . S
C2246 C2245 1.366 . S
C2246 C2250 1.385 . S
C2247 H2222 0.951 . S
C2247 C2245 1.388 . S
C2247 C2248 1.366 . S
C2248 C2247 1.366 . S
C2248 C2249 1.414 . S
C2248 C2251 1.499 . S
C2249 H2223 0.950 . S
C2249 C2248 1.414 . S
C2249 C2250 1.374 . S
C2250 H2224 0.950 . S
C2250 C2246 1.385 . S
C2250 C2249 1.374 . S
C2251 C2248 1.499 . S
C2251 C2252 1.373 . S
C2251 C2253 1.389 . S
C2252 H2225 0.950 . S
C2252 C2238 1.377 . S
C2252 C2251 1.373 . S
C2253 C2237 1.377 . S
C2253 C2251 1.389 . S
C2253 C2254 1.524 . S
C2254 C2253 1.524 . S
C2254 C2255 1.397 . S
C2254 C2259 1.363 . S
C2255 H2226 0.950 . S
C2255 C2254 1.397 . S
C2255 C2256 1.334 . S
C2256 H2227 0.950 . S
C2256 C2255 1.334 . S
C2256 C2257 1.287 . S
C2257 C2256 1.287 . S
C2257 C2258 1.524 . S
C2257 H2260 0.999 . S
C2258 H2228 0.950 . S
C2258 C2257 1.524 . S
C2258 C2259 1.415 . S
C2259 H2229 0.950 . S
C2259 C2254 1.363 . S
C2259 C2258 1.415 . S
H2260 C2257 0.999 . S
H2261 C2242 0.913 . S
H2262 C2280 0.951 . S
H2263 C2282 0.951 . S
H2264 C2284 0.950 . S
H2265 C2285 0.950 . S
H2266 C2287 0.950 . S
H2267 C2290 0.950 . S
H2268 C2291 0.950 . S
H2269 C2293 0.950 . S
H2270 C2294 0.950 . S
H2271 C2295 0.951 . S
H2272 C2297 0.951 . S
H2273 C2299 0.950 . S
H2274 C2300 0.950 . S
H2275 C2302 0.950 . S
H2276 C2305 0.950 . S
H2277 C2306 0.950 . S
H2278 C2308 0.950 . S
H2279 C2309 0.950 . S
C2280 H2262 0.951 . S
C2280 C2281 1.366 . S
C2280 C2282 1.388 . S
C2281 C2280 1.366 . S
C2281 C2285 1.385 . S
C2282 H2263 0.951 . S
C2282 C2280 1.388 . S
C2282 C2283 1.366 . S
C2283 C2282 1.366 . S
C2283 C2284 1.414 . S
C2283 C2286 1.499 . S
C2284 H2264 0.950 . S
C2284 C2283 1.414 . S
C2284 C2285 1.374 . S
C2285 H2265 0.950 . S
C2285 C2281 1.385 . S
C2285 C2284 1.374 . S
C2286 C2283 1.499 . S
C2286 C2287 1.373 . S
C2286 C2288 1.389 . S
C2287 H2266 0.950 . S
C2287 C2286 1.373 . S
C2287 C2303 1.377 . S
C2288 C2286 1.389 . S
C2288 C2289 1.524 . S
C2288 C2302 1.377 . S
C2289 C2288 1.524 . S
C2289 C2290 1.397 . S
C2289 C2294 1.363 . S
C2290 H2267 0.950 . S
C2290 C2289 1.397 . S
C2290 C2291 1.334 . S
C2291 H2268 0.950 . S
C2291 C2290 1.334 . S
C2291 C2292 1.287 . S
C2292 C2291 1.287 . S
C2292 C2293 1.524 . S
C2292 H2311 0.913 . S
C2293 H2269 0.950 . S
C2293 C2292 1.524 . S
C2293 C2294 1.415 . S
C2294 H2270 0.950 . S
C2294 C2289 1.363 . S
C2294 C2293 1.415 . S
C2295 H2271 0.951 . S
C2295 C2296 1.366 . S
C2295 C2297 1.388 . S
C2296 C2295 1.366 . S
C2296 C2300 1.385 . S
C2297 H2272 0.951 . S
C2297 C2295 1.388 . S
C2297 C2298 1.366 . S
C2298 C2297 1.366 . S
C2298 C2299 1.414 . S
C2298 C2301 1.499 . S
C2299 H2273 0.950 . S
C2299 C2298 1.414 . S
C2299 C2300 1.374 . S
C2300 H2274 0.950 . S
C2300 C2296 1.385 . S
C2300 C2299 1.374 . S
C2301 C2298 1.499 . S
C2301 C2302 1.373 . S
C2301 C2303 1.389 . S
C2302 H2275 0.950 . S
C2302 C2288 1.377 . S
C2302 C2301 1.373 . S
C2303 C2287 1.377 . S
C2303 C2301 1.389 . S
C2303 C2304 1.524 . S
C2304 C2303 1.524 . S
C2304 C2305 1.397 . S
C2304 C2309 1.363 . S
C2305 H2276 0.950 . S
C2305 C2304 1.397 . S
C2305 C2306 1.334 . S
C2306 H2277 0.950 . S
C2306 C2305 1.334 . S
C2306 C2307 1.287 . S
C2307 C2306 1.287 . S
C2307 C2308 1.524 . S
C2307 H2310 0.999 . S
C2308 H2278 0.950 . S
C2308 C2307 1.524 . S
C2308 C2309 1.415 . S
C2309 H2279 0.950 . S
C2309 C2304 1.363 . S
C2309 C2308 1.415 . S
H2310 C2307 0.999 . S
H2311 C2292 0.913 . S
H2312 C2330 0.951 . S
H2313 C2332 0.951 . S
H2314 C2334 0.950 . S
H2315 C2335 0.950 . S
H2316 C2337 0.950 . S
H2317 C2340 0.950 . S
H2318 C2341 0.950 . S
H2319 C2343 0.950 . S
H2320 C2344 0.950 . S
H2321 C2345 0.951 . S
H2322 C2347 0.951 . S
H2323 C2349 0.950 . S
H2324 C2350 0.950 . S
H2325 C2352 0.950 . S
H2326 C2355 0.950 . S
H2327 C2356 0.950 . S
H2328 C2358 0.950 . S
H2329 C2359 0.950 . S
C2330 H2312 0.951 . S
C2330 C2331 1.366 . S
C2330 C2332 1.388 . S
C2331 C2330 1.366 . S
C2331 C2335 1.385 . S
C2332 H2313 0.951 . S
C2332 C2330 1.388 . S
C2332 C2333 1.366 . S
C2333 C2332 1.366 . S
C2333 C2334 1.414 . S
C2333 C2336 1.499 . S
C2334 H2314 0.950 . S
C2334 C2333 1.414 . S
C2334 C2335 1.374 . S
C2335 H2315 0.950 . S
C2335 C2331 1.385 . S
C2335 C2334 1.374 . S
C2336 C2333 1.499 . S
C2336 C2337 1.373 . S
C2336 C2338 1.389 . S
C2337 H2316 0.950 . S
C2337 C2336 1.373 . S
C2337 C2353 1.377 . S
C2338 C2336 1.389 . S
C2338 C2339 1.524 . S
C2338 C2352 1.377 . S
C2339 C2338 1.524 . S
C2339 C2340 1.397 . S
C2339 C2344 1.363 . S
C2340 H2317 0.950 . S
C2340 C2339 1.397 . S
C2340 C2341 1.334 . S
C2341 H2318 0.950 . S
C2341 C2340 1.334 . S
C2341 C2342 1.287 . S
C2342 C2341 1.287 . S
C2342 C2343 1.524 . S
C2342 H2361 0.913 . S
C2343 H2319 0.950 . S
C2343 C2342 1.524 . S
C2343 C2344 1.415 . S
C2344 H2320 0.950 . S
C2344 C2339 1.363 . S
C2344 C2343 1.415 . S
C2345 H2321 0.951 . S
C2345 C2346 1.366 . S
C2345 C2347 1.388 . S
C2346 C2345 1.366 . S
C2346 C2350 1.385 . S
C2347 H2322 0.951 . S
C2347 C2345 1.388 . S
C2347 C2348 1.366 . S
C2348 C2347 1.366 . S
C2348 C2349 1.414 . S
C2348 C2351 1.499 . S
C2349 H2323 0.950 . S
C2349 C2348 1.414 . S
C2349 C2350 1.374 . S
C2350 H2324 0.950 . S
C2350 C2346 1.385 . S
C2350 C2349 1.374 . S
C2351 C2348 1.499 . S
C2351 C2352 1.373 . S
C2351 C2353 1.389 . S
C2352 H2325 0.950 . S
C2352 C2338 1.377 . S
C2352 C2351 1.373 . S
C2353 C2337 1.377 . S
C2353 C2351 1.389 . S
C2353 C2354 1.524 . S
C2354 C2353 1.524 . S
C2354 C2355 1.397 . S
C2354 C2359 1.363 . S
C2355 H2326 0.950 . S
C2355 C2354 1.397 . S
C2355 C2356 1.334 . S
C2356 H2327 0.950 . S
C2356 C2355 1.334 . S
C2356 C2357 1.287 . S
C2357 C2356 1.287 . S
C2357 C2358 1.524 . S
C2357 H2360 0.999 . S
C2358 H2328 0.950 . S
C2358 C2357 1.524 . S
C2358 C2359 1.415 . S
C2359 H2329 0.950 . S
C2359 C2354 1.363 . S
C2359 C2358 1.415 . S
H2360 C2357 0.999 . S
H2361 C2342 0.913 . S
H2362 C2380 0.951 . S
H2363 C2382 0.951 . S
H2364 C2384 0.950 . S
H2365 C2385 0.950 . S
H2366 C2387 0.950 . S
H2367 C2390 0.950 . S
H2368 C2391 0.950 . S
H2369 C2393 0.950 . S
H2370 C2394 0.950 . S
H2371 C2395 0.951 . S
H2372 C2397 0.951 . S
H2373 C2399 0.950 . S
H2374 C2400 0.950 . S
H2375 C2402 0.950 . S
H2376 C2405 0.950 . S
H2377 C2406 0.950 . S
H2378 C2408 0.950 . S
H2379 C2409 0.950 . S
C2380 H2362 0.951 . S
C2380 C2381 1.366 . S
C2380 C2382 1.388 . S
C2381 C2380 1.366 . S
C2381 C2385 1.385 . S
C2382 H2363 0.951 . S
C2382 C2380 1.388 . S
C2382 C2383 1.366 . S
C2383 C2382 1.366 . S
C2383 C2384 1.414 . S
C2383 C2386 1.499 . S
C2384 H2364 0.950 . S
C2384 C2383 1.414 . S
C2384 C2385 1.374 . S
C2385 H2365 0.950 . S
C2385 C2381 1.385 . S
C2385 C2384 1.374 . S
C2386 C2383 1.499 . S
C2386 C2387 1.373 . S
C2386 C2388 1.389 . S
C2387 H2366 0.950 . S
C2387 C2386 1.373 . S
C2387 C2403 1.377 . S
C2388 C2386 1.389 . S
C2388 C2389 1.524 . S
C2388 C2402 1.377 . S
C2389 C2388 1.524 . S
C2389 C2390 1.397 . S
C2389 C2394 1.363 . S
C2390 H2367 0.950 . S
C2390 C2389 1.397 . S
C2390 C2391 1.334 . S
C2391 H2368 0.950 . S
C2391 C2390 1.334 . S
C2391 C2392 1.287 . S
C2392 C2391 1.287 . S
C2392 C2393 1.524 . S
C2392 H2411 0.913 . S
C2393 H2369 0.950 . S
C2393 C2392 1.524 . S
C2393 C2394 1.415 . S
C2394 H2370 0.950 . S
C2394 C2389 1.363 . S
C2394 C2393 1.415 . S
C2395 H2371 0.951 . S
C2395 C2396 1.366 . S
C2395 C2397 1.388 . S
C2396 C2395 1.366 . S
C2396 C2400 1.385 . S
C2397 H2372 0.951 . S
C2397 C2395 1.388 . S
C2397 C2398 1.366 . S
C2398 C2397 1.366 . S
C2398 C2399 1.414 . S
C2398 C2401 1.499 . S
C2399 H2373 0.950 . S
C2399 C2398 1.414 . S
C2399 C2400 1.374 . S
C2400 H2374 0.950 . S
C2400 C2396 1.385 . S
C2400 C2399 1.374 . S
C2401 C2398 1.499 . S
C2401 C2402 1.373 . S
C2401 C2403 1.389 . S
C2402 H2375 0.950 . S
C2402 C2388 1.377 . S
C2402 C2401 1.373 . S
C2403 C2387 1.377 . S
C2403 C2401 1.389 . S
C2403 C2404 1.524 . S
C2404 C2403 1.524 . S
C2404 C2405 1.397 . S
C2404 C2409 1.363 . S
C2405 H2376 0.950 . S
C2405 C2404 1.397 . S
C2405 C2406 1.334 . S
C2406 H2377 0.950 . S
C2406 C2405 1.334 . S
C2406 C2407 1.287 . S
C2407 C2406 1.287 . S
C2407 C2408 1.524 . S
C2407 H2410 0.999 . S
C2408 H2378 0.950 . S
C2408 C2407 1.524 . S
C2408 C2409 1.415 . S
C2409 H2379 0.950 . S
C2409 C2404 1.363 . S
C2409 C2408 1.415 . S
H2410 C2407 0.999 . S
H2411 C2392 0.913 . S
H2412 C2430 0.951 . S
H2413 C2432 0.951 . S
H2414 C2434 0.950 . S
H2415 C2435 0.950 . S
H2416 C2437 0.950 . S
H2417 C2440 0.950 . S
H2418 C2441 0.950 . S
H2419 C2443 0.950 . S
H2420 C2444 0.950 . S
H2421 C2445 0.951 . S
H2422 C2447 0.951 . S
H2423 C2449 0.950 . S
H2424 C2450 0.950 . S
H2425 C2452 0.950 . S
H2426 C2455 0.950 . S
H2427 C2456 0.950 . S
H2428 C2458 0.950 . S
H2429 C2459 0.950 . S
C2430 H2412 0.951 . S
C2430 C2431 1.366 . S
C2430 C2432 1.388 . S
C2431 C2430 1.366 . S
C2431 C2435 1.385 . S
C2432 H2413 0.951 . S
C2432 C2430 1.388 . S
C2432 C2433 1.366 . S
C2433 C2432 1.366 . S
C2433 C2434 1.414 . S
C2433 C2436 1.499 . S
C2434 H2414 0.950 . S
C2434 C2433 1.414 . S
C2434 C2435 1.374 . S
C2435 H2415 0.950 . S
C2435 C2431 1.385 . S
C2435 C2434 1.374 . S
C2436 C2433 1.499 . S
C2436 C2437 1.373 . S
C2436 C2438 1.389 . S
C2437 H2416 0.950 . S
C2437 C2436 1.373 . S
C2437 C2453 1.377 . S
C2438 C2436 1.389 . S
C2438 C2439 1.524 . S
C2438 C2452 1.377 . S
C2439 C2438 1.524 . S
C2439 C2440 1.397 . S
C2439 C2444 1.363 . S
C2440 H2417 0.950 . S
C2440 C2439 1.397 . S
C2440 C2441 1.334 . S
C2441 H2418 0.950 . S
C2441 C2440 1.334 . S
C2441 C2442 1.287 . S
C2442 C2441 1.287 . S
C2442 C2443 1.524 . S
C2442 H2461 0.913 . S
C2443 H2419 0.950 . S
C2443 C2442 1.524 . S
C2443 C2444 1.415 . S
C2444 H2420 0.950 . S
C2444 C2439 1.363 . S
C2444 C2443 1.415 . S
C2445 H2421 0.951 . S
C2445 C2446 1.366 . S
C2445 C2447 1.388 . S
C2446 C2445 1.366 . S
C2446 C2450 1.385 . S
C2447 H2422 0.951 . S
C2447 C2445 1.388 . S
C2447 C2448 1.366 . S
C2448 C2447 1.366 . S
C2448 C2449 1.414 . S
C2448 C2451 1.499 . S
C2449 H2423 0.950 . S
C2449 C2448 1.414 . S
C2449 C2450 1.374 . S
C2450 H2424 0.950 . S
C2450 C2446 1.385 . S
C2450 C2449 1.374 . S
C2451 C2448 1.499 . S
C2451 C2452 1.373 . S
C2451 C2453 1.389 . S
C2452 H2425 0.950 . S
C2452 C2438 1.377 . S
C2452 C2451 1.373 . S
C2453 C2437 1.377 . S
C2453 C2451 1.389 . S
C2453 C2454 1.524 . S
C2454 C2453 1.524 . S
C2454 C2455 1.397 . S
C2454 C2459 1.363 . S
C2455 H2426 0.950 . S
C2455 C2454 1.397 . S
C2455 C2456 1.334 . S
C2456 H2427 0.950 . S
C2456 C2455 1.334 . S
C2456 C2457 1.287 . S
C2457 C2456 1.287 . S
C2457 C2458 1.524 . S
C2457 H2460 0.999 . S
C2458 H2428 0.950 . S
C2458 C2457 1.524 . S
C2458 C2459 1.415 . S
C2459 H2429 0.950 . S
C2459 C2454 1.363 . S
C2459 C2458 1.415 . S
H2460 C2457 0.999 . S
H2461 C2442 0.913 . S
H2462 C2480 0.951 . S
H2463 C2482 0.951 . S
H2464 C2484 0.950 . S
H2465 C2485 0.950 . S
H2466 C2487 0.950 . S
H2467 C2490 0.950 . S
H2468 C2491 0.950 . S
H2469 C2493 0.950 . S
H2470 C2494 0.950 . S
H2471 C2495 0.951 . S
H2472 C2497 0.951 . S
H2473 C2499 0.950 . S
H2474 C2500 0.950 . S
H2475 C2502 0.950 . S
H2476 C2505 0.950 . S
H2477 C2506 0.950 . S
H2478 C2508 0.950 . S
H2479 C2509 0.950 . S
C2480 H2462 0.951 . S
C2480 C2481 1.366 . S
C2480 C2482 1.388 . S
C2481 C2480 1.366 . S
C2481 C2485 1.385 . S
C2482 H2463 0.951 . S
C2482 C2480 1.388 . S
C2482 C2483 1.366 . S
C2483 C2482 1.366 . S
C2483 C2484 1.414 . S
C2483 C2486 1.499 . S
C2484 H2464 0.950 . S
C2484 C2483 1.414 . S
C2484 C2485 1.374 . S
C2485 H2465 0.950 . S
C2485 C2481 1.385 . S
C2485 C2484 1.374 . S
C2486 C2483 1.499 . S
C2486 C2487 1.373 . S
C2486 C2488 1.389 . S
C2487 H2466 0.950 . S
C2487 C2486 1.373 . S
C2487 C2503 1.377 . S
C2488 C2486 1.389 . S
C2488 C2489 1.524 . S
C2488 C2502 1.377 . S
C2489 C2488 1.524 . S
C2489 C2490 1.397 . S
C2489 C2494 1.363 . S
C2490 H2467 0.950 . S
C2490 C2489 1.397 . S
C2490 C2491 1.334 . S
C2491 H2468 0.950 . S
C2491 C2490 1.334 . S
C2491 C2492 1.287 . S
C2492 C2491 1.287 . S
C2492 C2493 1.524 . S
C2492 H2511 0.913 . S
C2493 H2469 0.950 . S
C2493 C2492 1.524 . S
C2493 C2494 1.415 . S
C2494 H2470 0.950 . S
C2494 C2489 1.363 . S
C2494 C2493 1.415 . S
C2495 H2471 0.951 . S
C2495 C2496 1.366 . S
C2495 C2497 1.388 . S
C2496 C2495 1.366 . S
C2496 C2500 1.385 . S
C2497 H2472 0.951 . S
C2497 C2495 1.388 . S
C2497 C2498 1.366 . S
C2498 C2497 1.366 . S
C2498 C2499 1.414 . S
C2498 C2501 1.499 . S
C2499 H2473 0.950 . S
C2499 C2498 1.414 . S
C2499 C2500 1.374 . S
C2500 H2474 0.950 . S
C2500 C2496 1.385 . S
C2500 C2499 1.374 . S
C2501 C2498 1.499 . S
C2501 C2502 1.373 . S
C2501 C2503 1.389 . S
C2502 H2475 0.950 . S
C2502 C2488 1.377 . S
C2502 C2501 1.373 . S
C2503 C2487 1.377 . S
C2503 C2501 1.389 . S
C2503 C2504 1.524 . S
C2504 C2503 1.524 . S
C2504 C2505 1.397 . S
C2504 C2509 1.363 . S
C2505 H2476 0.950 . S
C2505 C2504 1.397 . S
C2505 C2506 1.334 . S
C2506 H2477 0.950 . S
C2506 C2505 1.334 . S
C2506 C2507 1.287 . S
C2507 C2506 1.287 . S
C2507 C2508 1.524 . S
C2507 H2510 0.999 . S
C2508 H2478 0.950 . S
C2508 C2507 1.524 . S
C2508 C2509 1.415 . S
C2509 H2479 0.950 . S
C2509 C2504 1.363 . S
C2509 C2508 1.415 . S
H2510 C2507 0.999 . S
H2511 C2492 0.913 . S
H2512 C2530 0.951 . S
H2513 C2532 0.951 . S
H2514 C2534 0.950 . S
H2515 C2535 0.950 . S
H2516 C2537 0.950 . S
H2517 C2540 0.950 . S
H2518 C2541 0.950 . S
H2519 C2543 0.950 . S
H2520 C2544 0.950 . S
H2521 C2545 0.951 . S
H2522 C2547 0.951 . S
H2523 C2549 0.950 . S
H2524 C2550 0.950 . S
H2525 C2552 0.950 . S
H2526 C2555 0.950 . S
H2527 C2556 0.950 . S
H2528 C2558 0.950 . S
H2529 C2559 0.950 . S
C2530 H2512 0.951 . S
C2530 C2531 1.366 . S
C2530 C2532 1.388 . S
C2531 C2530 1.366 . S
C2531 C2535 1.385 . S
C2532 H2513 0.951 . S
C2532 C2530 1.388 . S
C2532 C2533 1.366 . S
C2533 C2532 1.366 . S
C2533 C2534 1.414 . S
C2533 C2536 1.499 . S
C2534 H2514 0.950 . S
C2534 C2533 1.414 . S
C2534 C2535 1.374 . S
C2535 H2515 0.950 . S
C2535 C2531 1.385 . S
C2535 C2534 1.374 . S
C2536 C2533 1.499 . S
C2536 C2537 1.373 . S
C2536 C2538 1.389 . S
C2537 H2516 0.950 . S
C2537 C2536 1.373 . S
C2537 C2553 1.377 . S
C2538 C2536 1.389 . S
C2538 C2539 1.524 . S
C2538 C2552 1.377 . S
C2539 C2538 1.524 . S
C2539 C2540 1.397 . S
C2539 C2544 1.363 . S
C2540 H2517 0.950 . S
C2540 C2539 1.397 . S
C2540 C2541 1.334 . S
C2541 H2518 0.950 . S
C2541 C2540 1.334 . S
C2541 C2542 1.287 . S
C2542 C2541 1.287 . S
C2542 C2543 1.524 . S
C2542 H2561 0.913 . S
C2543 H2519 0.950 . S
C2543 C2542 1.524 . S
C2543 C2544 1.415 . S
C2544 H2520 0.950 . S
C2544 C2539 1.363 . S
C2544 C2543 1.415 . S
C2545 H2521 0.951 . S
C2545 C2546 1.366 . S
C2545 C2547 1.388 . S
C2546 C2545 1.366 . S
C2546 C2550 1.385 . S
C2547 H2522 0.951 . S
C2547 C2545 1.388 . S
C2547 C2548 1.366 . S
C2548 C2547 1.366 . S
C2548 C2549 1.414 . S
C2548 C2551 1.499 . S
C2549 H2523 0.950 . S
C2549 C2548 1.414 . S
C2549 C2550 1.374 . S
C2550 H2524 0.950 . S
C2550 C2546 1.385 . S
C2550 C2549 1.374 . S
C2551 C2548 1.499 . S
C2551 C2552 1.373 . S
C2551 C2553 1.389 . S
C2552 H2525 0.950 . S
C2552 C2538 1.377 . S
C2552 C2551 1.373 . S
C2553 C2537 1.377 . S
C2553 C2551 1.389 . S
C2553 C2554 1.524 . S
C2554 C2553 1.524 . S
C2554 C2555 1.397 . S
C2554 C2559 1.363 . S
C2555 H2526 0.950 . S
C2555 C2554 1.397 . S
C2555 C2556 1.334 . S
C2556 H2527 0.950 . S
C2556 C2555 1.334 . S
C2556 C2557 1.287 . S
C2557 C2556 1.287 . S
C2557 C2558 1.524 . S
C2557 H2560 0.999 . S
C2558 H2528 0.950 . S
C2558 C2557 1.524 . S
C2558 C2559 1.415 . S
C2559 H2529 0.950 . S
C2559 C2554 1.363 . S
C2559 C2558 1.415 . S
H2560 C2557 0.999 . S
H2561 C2542 0.913 . S
H2562 C2580 0.951 . S
H2563 C2582 0.951 . S
H2564 C2584 0.950 . S
H2565 C2585 0.950 . S
H2566 C2587 0.950 . S
H2567 C2590 0.950 . S
H2568 C2591 0.950 . S
H2569 C2593 0.950 . S
H2570 C2594 0.950 . S
H2571 C2595 0.951 . S
H2572 C2597 0.951 . S
H2573 C2599 0.950 . S
H2574 C2600 0.950 . S
H2575 C2602 0.950 . S
H2576 C2605 0.950 . S
H2577 C2606 0.950 . S
H2578 C2608 0.950 . S
H2579 C2609 0.950 . S
C2580 H2562 0.951 . S
C2580 C2581 1.366 . S
C2580 C2582 1.388 . S
C2581 C2580 1.366 . S
C2581 C2585 1.385 . S
C2582 H2563 0.951 . S
C2582 C2580 1.388 . S
C2582 C2583 1.366 . S
C2583 C2582 1.366 . S
C2583 C2584 1.414 . S
C2583 C2586 1.499 . S
C2584 H2564 0.950 . S
C2584 C2583 1.414 . S
C2584 C2585 1.374 . S
C2585 H2565 0.950 . S
C2585 C2581 1.385 . S
C2585 C2584 1.374 . S
C2586 C2583 1.499 . S
C2586 C2587 1.373 . S
C2586 C2588 1.389 . S
C2587 H2566 0.950 . S
C2587 C2586 1.373 . S
C2587 C2603 1.377 . S
C2588 C2586 1.389 . S
C2588 C2589 1.524 . S
C2588 C2602 1.377 . S
C2589 C2588 1.524 . S
C2589 C2590 1.397 . S
C2589 C2594 1.363 . S
C2590 H2567 0.950 . S
C2590 C2589 1.397 . S
C2590 C2591 1.334 . S
C2591 H2568 0.950 . S
C2591 C2590 1.334 . S
C2591 C2592 1.287 . S
C2592 C2591 1.287 . S
C2592 C2593 1.524 . S
C2592 H2611 0.913 . S
C2593 H2569 0.950 . S
C2593 C2592 1.524 . S
C2593 C2594 1.415 . S
C2594 H2570 0.950 . S
C2594 C2589 1.363 . S
C2594 C2593 1.415 . S
C2595 H2571 0.951 . S
C2595 C2596 1.366 . S
C2595 C2597 1.388 . S
C2596 C2595 1.366 . S
C2596 C2600 1.385 . S
C2597 H2572 0.951 . S
C2597 C2595 1.388 . S
C2597 C2598 1.366 . S
C2598 C2597 1.366 . S
C2598 C2599 1.414 . S
C2598 C2601 1.499 . S
C2599 H2573 0.950 . S
C2599 C2598 1.414 . S
C2599 C2600 1.374 . S
C2600 H2574 0.950 . S
C2600 C2596 1.385 . S
C2600 C2599 1.374 . S
C2601 C2598 1.499 . S
C2601 C2602 1.373 . S
C2601 C2603 1.389 . S
C2602 H2575 0.950 . S
C2602 C2588 1.377 . S
C2602 C2601 1.373 . S
C2603 C2587 1.377 . S
C2603 C2601 1.389 . S
C2603 C2604 1.524 . S
C2604 C2603 1.524 . S
C2604 C2605 1.397 . S
C2604 C2609 1.363 . S
C2605 H2576 0.950 . S
C2605 C2604 1.397 . S
C2605 C2606 1.334 . S
C2606 H2577 0.950 . S
C2606 C2605 1.334 . S
C2606 C2607 1.287 . S
C2607 C2606 1.287 . S
C2607 C2608 1.524 . S
C2607 H2610 0.999 . S
C2608 H2578 0.950 . S
C2608 C2607 1.524 . S
C2608 C2609 1.415 . S
C2609 H2579 0.950 . S
C2609 C2604 1.363 . S
C2609 C2608 1.415 . S
H2610 C2607 0.999 . S
H2611 C2592 0.913 . S
H2612 C2630 0.951 . S
H2613 C2632 0.951 . S
H2614 C2634 0.950 . S
H2615 C2635 0.950 . S
H2616 C2637 0.950 . S
H2617 C2640 0.950 . S
H2618 C2641 0.950 . S
H2619 C2643 0.950 . S
H2620 C2644 0.950 . S
H2621 C2645 0.951 . S
H2622 C2647 0.951 . S
H2623 C2649 0.950 . S
H2624 C2650 0.950 . S
H2625 C2652 0.950 . S
H2626 C2655 0.950 . S
H2627 C2656 0.950 . S
H2628 C2658 0.950 . S
H2629 C2659 0.950 . S
C2630 H2612 0.951 . S
C2630 C2631 1.366 . S
C2630 C2632 1.388 . S
C2631 C2630 1.366 . S
C2631 C2635 1.385 . S
C2632 H2613 0.951 . S
C2632 C2630 1.388 . S
C2632 C2633 1.366 . S
C2633 C2632 1.366 . S
C2633 C2634 1.414 . S
C2633 C2636 1.499 . S
C2634 H2614 0.950 . S
C2634 C2633 1.414 . S
C2634 C2635 1.374 . S
C2635 H2615 0.950 . S
C2635 C2631 1.385 . S
C2635 C2634 1.374 . S
C2636 C2633 1.499 . S
C2636 C2637 1.373 . S
C2636 C2638 1.389 . S
C2637 H2616 0.950 . S
C2637 C2636 1.373 . S
C2637 C2653 1.377 . S
C2638 C2636 1.389 . S
C2638 C2639 1.524 . S
C2638 C2652 1.377 . S
C2639 C2638 1.524 . S
C2639 C2640 1.397 . S
C2639 C2644 1.363 . S
C2640 H2617 0.950 . S
C2640 C2639 1.397 . S
C2640 C2641 1.334 . S
C2641 H2618 0.950 . S
C2641 C2640 1.334 . S
C2641 C2642 1.287 . S
C2642 C2641 1.287 . S
C2642 C2643 1.524 . S
C2642 H2661 0.913 . S
C2643 H2619 0.950 . S
C2643 C2642 1.524 . S
C2643 C2644 1.415 . S
C2644 H2620 0.950 . S
C2644 C2639 1.363 . S
C2644 C2643 1.415 . S
C2645 H2621 0.951 . S
C2645 C2646 1.366 . S
C2645 C2647 1.388 . S
C2646 C2645 1.366 . S
C2646 C2650 1.385 . S
C2647 H2622 0.951 . S
C2647 C2645 1.388 . S
C2647 C2648 1.366 . S
C2648 C2647 1.366 . S
C2648 C2649 1.414 . S
C2648 C2651 1.499 . S
C2649 H2623 0.950 . S
C2649 C2648 1.414 . S
C2649 C2650 1.374 . S
C2650 H2624 0.950 . S
C2650 C2646 1.385 . S
C2650 C2649 1.374 . S
C2651 C2648 1.499 . S
C2651 C2652 1.373 . S
C2651 C2653 1.389 . S
C2652 H2625 0.950 . S
C2652 C2638 1.377 . S
C2652 C2651 1.373 . S
C2653 C2637 1.377 . S
C2653 C2651 1.389 . S
C2653 C2654 1.524 . S
C2654 C2653 1.524 . S
C2654 C2655 1.397 . S
C2654 C2659 1.363 . S
C2655 H2626 0.950 . S
C2655 C2654 1.397 . S
C2655 C2656 1.334 . S
C2656 H2627 0.950 . S
C2656 C2655 1.334 . S
C2656 C2657 1.287 . S
C2657 C2656 1.287 . S
C2657 C2658 1.524 . S
C2657 H2660 0.999 . S
C2658 H2628 0.950 . S
C2658 C2657 1.524 . S
C2658 C2659 1.415 . S
C2659 H2629 0.950 . S
C2659 C2654 1.363 . S
C2659 C2658 1.415 . S
H2660 C2657 0.999 . S
H2661 C2642 0.913 . S
H2662 C2680 0.951 . S
H2663 C2682 0.951 . S
H2664 C2684 0.950 . S
H2665 C2685 0.950 . S
H2666 C2687 0.950 . S
H2667 C2690 0.950 . S
H2668 C2691 0.950 . S
H2669 C2693 0.950 . S
H2670 C2694 0.950 . S
H2671 C2695 0.951 . S
H2672 C2697 0.951 . S
H2673 C2699 0.950 . S
H2674 C2700 0.950 . S
H2675 C2702 0.950 . S
H2676 C2705 0.950 . S
H2677 C2706 0.950 . S
H2678 C2708 0.950 . S
H2679 C2709 0.950 . S
C2680 H2662 0.951 . S
C2680 C2681 1.366 . S
C2680 C2682 1.388 . S
C2681 C2680 1.366 . S
C2681 C2685 1.385 . S
C2682 H2663 0.951 . S
C2682 C2680 1.388 . S
C2682 C2683 1.366 . S
C2683 C2682 1.366 . S
C2683 C2684 1.414 . S
C2683 C2686 1.499 . S
C2684 H2664 0.950 . S
C2684 C2683 1.414 . S
C2684 C2685 1.374 . S
C2685 H2665 0.950 . S
C2685 C2681 1.385 . S
C2685 C2684 1.374 . S
C2686 C2683 1.499 . S
C2686 C2687 1.373 . S
C2686 C2688 1.389 . S
C2687 H2666 0.950 . S
C2687 C2686 1.373 . S
C2687 C2703 1.377 . S
C2688 C2686 1.389 . S
C2688 C2689 1.524 . S
C2688 C2702 1.377 . S
C2689 C2688 1.524 . S
C2689 C2690 1.397 . S
C2689 C2694 1.363 . S
C2690 H2667 0.950 . S
C2690 C2689 1.397 . S
C2690 C2691 1.334 . S
C2691 H2668 0.950 . S
C2691 C2690 1.334 . S
C2691 C2692 1.287 . S
C2692 C2691 1.287 . S
C2692 C2693 1.524 . S
C2692 H2711 0.913 . S
C2693 H2669 0.950 . S
C2693 C2692 1.524 . S
C2693 C2694 1.415 . S
C2694 H2670 0.950 . S
C2694 C2689 1.363 . S
C2694 C2693 1.415 . S
C2695 H2671 0.951 . S
C2695 C2696 1.366 . S
C2695 C2697 1.388 . S
C2696 C2695 1.366 . S
C2696 C2700 1.385 . S
C2697 H2672 0.951 . S
C2697 C2695 1.388 . S
C2697 C2698 1.366 . S
C2698 C2697 1.366 . S
C2698 C2699 1.414 . S
C2698 C2701 1.499 . S
C2699 H2673 0.950 . S
C2699 C2698 1.414 . S
C2699 C2700 1.374 . S
C2700 H2674 0.950 . S
C2700 C2696 1.385 . S
C2700 C2699 1.374 . S
C2701 C2698 1.499 . S
C2701 C2702 1.373 . S
C2701 C2703 1.389 . S
C2702 H2675 0.950 . S
C2702 C2688 1.377 . S
C2702 C2701 1.373 . S
C2703 C2687 1.377 . S
C2703 C2701 1.389 . S
C2703 C2704 1.524 . S
C2704 C2703 1.524 . S
C2704 C2705 1.397 . S
C2704 C2709 1.363 . S
C2705 H2676 0.950 . S
C2705 C2704 1.397 . S
C2705 C2706 1.334 . S
C2706 H2677 0.950 . S
C2706 C2705 1.334 . S
C2706 C2707 1.287 . S
C2707 C2706 1.287 . S
C2707 C2708 1.524 . S
C2707 H2710 0.999 . S
C2708 H2678 0.950 . S
C2708 C2707 1.524 . S
C2708 C2709 1.415 . S
C2709 H2679 0.950 . S
C2709 C2704 1.363 . S
C2709 C2708 1.415 . S
H2710 C2707 0.999 . S
H2711 C2692 0.913 . S
C331 C200 1.277 . S
C346 C5 1.276 . S
C381 C18 1.276 . S
C396 C213 1.277 . S
C431 C31 1.276 . S
C446 C226 1.278 . S
C481 C44 1.276 . S
C496 C161 1.277 . S
C531 C174 1.276 . S
C546 C57 1.277 . S
C581 C70 1.278 . S
C596 C187 1.276 . S
C631 C278 1.277 . S
C646 C83 1.277 . S
C681 C96 1.277 . S
C696 C291 1.277 . S
C731 C109 1.276 . S
C746 C304 1.277 . S
C781 C239 1.276 . S
C796 C122 1.277 . S
C831 C135 1.276 . S
C846 C252 1.277 . S
C881 C265 1.277 . S
C896 C148 1.277 . S
C931 C10 1.073 . S
C946 C309 1.073 . S
C981 C244 1.073 . S
C996 C23 1.074 . S
C1031 C36 1.073 . S
C1046 C257 1.074 . S
C1081 C270 1.074 . S
C1096 C49 1.073 . S
C1131 C62 1.074 . S
C1146 C283 1.073 . S
C1181 C296 1.073 . S
C1196 C75 1.074 . S
C1231 C88 1.073 . S
C1246 C179 1.073 . S
C1281 C192 1.073 . S
C1296 C101 1.073 . S
C1331 C205 1.074 . S
C1346 C114 1.073 . S
C1381 C218 1.074 . S
C1396 C127 1.073 . S
C1431 C140 1.074 . S
C1446 C231 1.073 . S
C1481 C153 1.073 . S
C1496 C166 1.074 . S
C1531 C91 1.019 . S
C1546 C0 1.019 . S
C1581 C104 1.020 . S
C1596 C13 1.019 . S
C1631 C117 1.020 . S
C1646 C26 1.019 . S
C1681 C130 1.020 . S
C1696 C39 1.020 . S
C1731 C52 1.020 . S
C1746 C143 1.019 . S
C1781 C65 1.020 . S
C1796 C78 1.020 . S
C1831 C156 1.020 . S
C1846 C247 1.020 . S
C1881 C169 1.019 . S
C1896 C260 1.019 . S
C1931 C273 1.019 . S
C1946 C182 1.019 . S
C1981 C286 1.020 . S
C1996 C195 1.020 . S
C2031 C299 1.020 . S
C2046 C208 1.020 . S
C2081 C234 1.020 . S
C2096 C221 1.020 . S
C2131 C8 1.375 . S
C2146 C255 1.374 . S
C2181 C268 1.375 . S
C2196 C21 1.374 . S
C2231 C34 1.374 . S
C2246 C281 1.375 . S
C2281 C294 1.375 . S
C2296 C47 1.374 . S
C2331 C60 1.374 . S
C2346 C307 1.375 . S
C2381 C242 1.375 . S
C2396 C73 1.375 . S
C2431 C86 1.375 . S
C2446 C229 1.374 . S
C2481 C164 1.375 . S
C2496 C99 1.374 . S
C2531 C112 1.375 . S
C2546 C177 1.375 . S
C2581 C125 1.374 . S
C2596 C190 1.375 . S
C2631 C138 1.375 . S
C2646 C203 1.375 . S
C2681 C151 1.374 . S
C2696 C216 1.375 . S
