# Generated by pormake.
# Topology wkj, (6)-cn, num edge types: 1
# Building blocks:
#     Node 0, Type 0, BuildingBlock: KUMBOL_clean_sbu_0, # of connection points: 6
#     Node 1, Type 0, BuildingBlock: KUMBOL_clean_sbu_0, # of connection points: 6
#     Node 2, Type 0, BuildingBlock: KUMBOL_clean_sbu_0, # of connection points: 6
#     Node 3, Type 0, BuildingBlock: KUMBOL_clean_sbu_0, # of connection points: 6
#     Node 4, Type 0, BuildingBlock: KUMBOL_clean_sbu_0, # of connection points: 6
#     Node 5, Type 0, BuildingBlock: KUMBOL_clean_sbu_0, # of connection points: 6
#     Node 6, Type 0, BuildingBlock: KUMBOL_clean_sbu_0, # of connection points: 6
#     Node 7, Type 0, BuildingBlock: KUMBOL_clean_sbu_0, # of connection points: 6
#     Node 8, Type 0, BuildingBlock: KUMBOL_clean_sbu_0, # of connection points: 6
#     Node 9, Type 0, BuildingBlock: KUMBOL_clean_sbu_0, # of connection points: 6
#     Node 10, Type 0, BuildingBlock: KUMBOL_clean_sbu_0, # of connection points: 6
#     Node 11, Type 0, BuildingBlock: KUMBOL_clean_sbu_0, # of connection points: 6
#     Edge 12, Type (0, 0), BuildingBlock: ZUJKAS_clean_linker_0, # of connection points: 2
#     Edge 13, Type (0, 0), BuildingBlock: ZUJKAS_clean_linker_0, # of connection points: 2
#     Edge 14, Type (0, 0), BuildingBlock: ZUJKAS_clean_linker_0, # of connection points: 2
#     Edge 15, Type (0, 0), BuildingBlock: ZUJKAS_clean_linker_0, # of connection points: 2
#     Edge 16, Type (0, 0), BuildingBlock: ZUJKAS_clean_linker_0, # of connection points: 2
#     Edge 17, Type (0, 0), BuildingBlock: ZUJKAS_clean_linker_0, # of connection points: 2
#     Edge 18, Type (0, 0), BuildingBlock: ZUJKAS_clean_linker_0, # of connection points: 2
#     Edge 19, Type (0, 0), BuildingBlock: ZUJKAS_clean_linker_0, # of connection points: 2
#     Edge 20, Type (0, 0), BuildingBlock: ZUJKAS_clean_linker_0, # of connection points: 2
#     Edge 21, Type (0, 0), BuildingBlock: ZUJKAS_clean_linker_0, # of connection points: 2
#     Edge 22, Type (0, 0), BuildingBlock: ZUJKAS_clean_linker_0, # of connection points: 2
#     Edge 23, Type (0, 0), BuildingBlock: ZUJKAS_clean_linker_0, # of connection points: 2
#     Edge 24, Type (0, 0), BuildingBlock: ZUJKAS_clean_linker_0, # of connection points: 2
#     Edge 25, Type (0, 0), BuildingBlock: ZUJKAS_clean_linker_0, # of connection points: 2
#     Edge 26, Type (0, 0), BuildingBlock: ZUJKAS_clean_linker_0, # of connection points: 2
#     Edge 27, Type (0, 0), BuildingBlock: ZUJKAS_clean_linker_0, # of connection points: 2
#     Edge 28, Type (0, 0), BuildingBlock: ZUJKAS_clean_linker_0, # of connection points: 2
#     Edge 29, Type (0, 0), BuildingBlock: ZUJKAS_clean_linker_0, # of connection points: 2
#     Edge 30, Type (0, 0), BuildingBlock: ZUJKAS_clean_linker_0, # of connection points: 2
#     Edge 31, Type (0, 0), BuildingBlock: ZUJKAS_clean_linker_0, # of connection points: 2
#     Edge 32, Type (0, 0), BuildingBlock: ZUJKAS_clean_linker_0, # of connection points: 2
#     Edge 33, Type (0, 0), BuildingBlock: ZUJKAS_clean_linker_0, # of connection points: 2
#     Edge 34, Type (0, 0), BuildingBlock: ZUJKAS_clean_linker_0, # of connection points: 2
#     Edge 35, Type (0, 0), BuildingBlock: ZUJKAS_clean_linker_0, # of connection points: 2
#     Edge 36, Type (0, 0), BuildingBlock: ZUJKAS_clean_linker_0, # of connection points: 2
#     Edge 37, Type (0, 0), BuildingBlock: ZUJKAS_clean_linker_0, # of connection points: 2
#     Edge 38, Type (0, 0), BuildingBlock: ZUJKAS_clean_linker_0, # of connection points: 2
#     Edge 39, Type (0, 0), BuildingBlock: ZUJKAS_clean_linker_0, # of connection points: 2
#     Edge 40, Type (0, 0), BuildingBlock: ZUJKAS_clean_linker_0, # of connection points: 2
#     Edge 41, Type (0, 0), BuildingBlock: ZUJKAS_clean_linker_0, # of connection points: 2
#     Edge 42, Type (0, 0), BuildingBlock: ZUJKAS_clean_linker_0, # of connection points: 2
#     Edge 43, Type (0, 0), BuildingBlock: ZUJKAS_clean_linker_0, # of connection points: 2
#     Edge 44, Type (0, 0), BuildingBlock: ZUJKAS_clean_linker_0, # of connection points: 2
#     Edge 45, Type (0, 0), BuildingBlock: ZUJKAS_clean_linker_0, # of connection points: 2
#     Edge 46, Type (0, 0), BuildingBlock: ZUJKAS_clean_linker_0, # of connection points: 2
#     Edge 47, Type (0, 0), BuildingBlock: ZUJKAS_clean_linker_0, # of connection points: 2
# Relax obj value: 0.444
# Max RMSD: 0.215
# Mean RMSD: 0.215
data_MOF--net-wkj--node1-KUMBOL_clean_sbu_0--edge1-ZUJKAS_clean_linker_0
_symmetry_space_group_name_H-M    P1
_symmetry_Int_Tables_number       1
_symmetry_cell_setting            triclinic
loop_
_symmetry_equiv_pos_as_xyz
'x, y, z'
_cell_length_a     64.824428
_cell_length_b     64.812075
_cell_length_c     37.275193
_cell_angle_alpha  90.124239
_cell_angle_beta   89.899324
_cell_angle_gamma 120.09855
loop_
_atom_site_label
_atom_site_type_symbol
_atom_site_fract_x
_atom_site_fract_y
_atom_site_fract_z
_atom_type_partial_charge
Gd0 Gd 0.53311 0.10986 0.30775 0.0
Gd1 Gd 0.47323 0.08769 0.32748 0.0
C2 C 0.41842 0.01662 0.2771 0.0
C3 C 0.41476 0.02843 0.21678 0.0
C4 C 0.44135 0.0583 0.25986 0.0
C5 C 0.43529 0.04058 0.28537 0.0
C6 C 0.43065 0.05236 0.22552 0.0
C7 C 0.40871 0.0106 0.24247 0.0
C8 C 0.4111 -0.00052 0.30423 0.0
C9 C 0.41959 0.00654 0.33903 0.0
N10 N 0.4447 0.04689 0.31886 0.0
C11 C 0.43598 0.03047 0.34605 0.0
H12 H 0.44174 0.03587 0.37327 0.0
C13 C 0.46221 0.09926 0.24479 0.0
N14 N 0.45734 0.08132 0.26863 0.0
C15 C 0.4518 0.09419 0.21074 0.0
C16 C 0.43612 0.07064 0.20092 0.0
H17 H 0.47437 0.11758 0.25127 0.0
H18 H 0.39598 0.99227 0.23558 0.0
H19 H 0.53838 0.15489 0.35887 0.0
H20 H 0.39821 0.98094 0.2989 0.0
H21 H 0.41329 0.99361 0.36057 0.0
H22 H 0.40675 0.02357 0.19037 0.0
H23 H 0.55288 0.07213 0.28805 0.0
H24 H 0.59314 0.17161 0.4365 0.0
H25 H 0.56267 0.17924 0.40987 0.0
H26 H 0.61937 0.11606 0.40969 0.0
H27 H 0.45606 0.10849 0.19195 0.0
H28 H 0.42828 0.06678 0.17436 0.0
H29 H 0.61416 0.14794 0.43624 0.0
H30 H 0.58263 0.06226 0.31087 0.0
N31 N 0.5547 0.13347 0.35692 0.0
C32 C 0.58261 0.16094 0.41398 0.0
C33 C 0.5654 0.16527 0.39908 0.0
C34 C 0.58611 0.14297 0.39957 0.0
C35 C 0.57185 0.12951 0.37038 0.0
C36 C 0.55167 0.15144 0.37018 0.0
N37 N 0.56063 0.09882 0.32754 0.0
C38 C 0.57481 0.11156 0.35541 0.0
C39 C 0.58055 0.0761 0.32372 0.0
C40 C 0.59467 0.08844 0.3532 0.0
C41 C 0.5637 0.08172 0.31089 0.0
C42 C 0.59205 0.10654 0.36927 0.0
H43 H 0.60768 0.08402 0.36311 0.0
O44 O 0.55519 0.11393 0.26142 0.0
O45 O 0.49668 0.09122 0.27896 0.0
O46 O 0.48282 0.0601 0.34667 0.0
O47 O 0.52425 0.07894 0.3441 0.0
O48 O 0.5187 0.07759 0.26971 0.0
O49 O 0.56056 0.14506 0.29087 0.0
O50 O 0.46218 0.11208 0.34831 0.0
O51 O 0.50937 0.10692 0.35449 0.0
O52 O 0.52537 0.14037 0.29441 0.0
O53 O 0.48655 0.12646 0.3122 0.0
O54 O 0.48152 0.08827 0.3879 0.0
O55 O 0.43654 0.07457 0.34338 0.0
C56 C 0.49817 0.07464 0.26076 0.0
C57 C 0.60611 0.11973 0.39857 0.0
C58 C 0.60317 0.13791 0.41366 0.0
C59 C 0.56555 0.13714 0.26201 0.0
C60 C 0.56487 0.14883 0.22874 0.0
C61 C 0.54547 0.13728 0.20526 0.0
C62 C 0.58296 0.17228 0.22155 0.0
C63 C 0.58215 0.18407 0.19034 0.0
C64 C 0.54446 0.14871 0.17433 0.0
C65 C 0.5627 0.17179 0.16667 0.0
C66 C 0.50336 0.06141 0.35494 0.0
C67 C 0.50452 0.10158 0.3888 0.0
C68 C 0.44094 0.09496 0.3566 0.0
C69 C 0.43336 0.09471 0.39389 0.0
C70 C 0.42948 0.11289 0.40641 0.0
C71 C 0.43035 0.07652 0.41739 0.0
C72 C 0.42273 0.07582 0.45285 0.0
C73 C 0.42244 0.11269 0.44193 0.0
C74 C 0.41896 0.09423 0.46503 0.0
C75 C 0.50695 0.14374 0.29935 0.0
H76 H 0.5311 0.11945 0.21096 0.0
H77 H 0.59747 0.1813 0.24049 0.0
H78 H 0.52959 0.13958 0.15605 0.0
H79 H 0.56171 0.17972 0.14168 0.0
H80 H 0.43192 0.1272 0.38875 0.0
H81 H 0.43397 0.06283 0.40805 0.0
H82 H 0.4194 0.12672 0.45147 0.0
H83 H 0.41281 0.09412 0.4921 0.0
Gd84 Gd 0.41247 0.52932 0.6402 0.0
Gd85 Gd 0.37395 0.46973 0.65751 0.0
C86 C 0.38476 0.40832 0.62146 0.0
C87 C 0.37348 0.40398 0.55867 0.0
C88 C 0.37152 0.43404 0.59559 0.0
C89 C 0.37984 0.42715 0.62474 0.0
C90 C 0.36722 0.4217 0.56267 0.0
C91 C 0.38237 0.3974 0.58798 0.0
C92 C 0.39085 0.40026 0.65226 0.0
C93 C 0.3906 0.40998 0.68557 0.0
N94 N 0.38112 0.43742 0.65702 0.0
C95 C 0.38514 0.42825 0.68756 0.0
H96 H 0.38445 0.43533 0.71344 0.0
C97 C 0.35404 0.45589 0.5736 0.0
N98 N 0.36586 0.45145 0.60016 0.0
C99 C 0.34857 0.44343 0.54109 0.0
C100 C 0.35572 0.42669 0.53524 0.0
H101 H 0.349 0.46927 0.57668 0.0
H102 H 0.38635 0.38313 0.58485 0.0
H103 H 0.36845 0.53201 0.68726 0.0
H104 H 0.39479 0.38589 0.65081 0.0
H105 H 0.39439 0.40328 0.70976 0.0
H106 H 0.37071 0.39467 0.53339 0.0
H107 H 0.47164 0.55184 0.63008 0.0
H108 H 0.40023 0.57807 0.77688 0.0
H109 H 0.36471 0.55174 0.74068 0.0
H110 H 0.48315 0.60403 0.76544 0.0
H111 H 0.33939 0.44723 0.52019 0.0
H112 H 0.35183 0.4174 0.50977 0.0
H113 H 0.4442 0.59718 0.78611 0.0
H114 H 0.50887 0.5783 0.66282 0.0
N115 N 0.40619 0.54714 0.69163 0.0
C116 C 0.40215 0.56967 0.75293 0.0
C117 C 0.38207 0.55485 0.73255 0.0
C118 C 0.42447 0.57356 0.74214 0.0
C119 C 0.42604 0.56208 0.71082 0.0
C120 C 0.3844 0.54382 0.7018 0.0
N121 N 0.4492 0.55541 0.66838 0.0
C122 C 0.44809 0.56618 0.699 0.0
C123 C 0.49192 0.57504 0.67331 0.0
C124 C 0.49098 0.58562 0.70541 0.0
C125 C 0.47083 0.56011 0.65486 0.0
C126 C 0.46898 0.58151 0.71843 0.0
H127 H 0.50736 0.59715 0.71971 0.0
O128 O 0.40048 0.54481 0.59902 0.0
O129 O 0.39544 0.4935 0.60965 0.0
O130 O 0.40978 0.47494 0.67295 0.0
O131 O 0.43482 0.51578 0.66631 0.0
O132 O 0.43124 0.51626 0.60193 0.0
O133 O 0.43705 0.56343 0.61577 0.0
O134 O 0.34094 0.46572 0.67858 0.0
O135 O 0.3912 0.50567 0.68645 0.0
O136 O 0.37472 0.52345 0.62784 0.0
O137 O 0.34999 0.48299 0.63502 0.0
O138 O 0.38657 0.47747 0.71654 0.0
O139 O 0.34526 0.43494 0.67458 0.0
C140 C 0.41399 0.49573 0.59197 0.0
C141 C 0.46733 0.59238 0.75005 0.0
C142 C 0.44516 0.58849 0.7618 0.0
C143 C 0.42067 0.56472 0.5978 0.0
C144 C 0.41956 0.58676 0.60247 0.0
C145 C 0.42242 0.59727 0.63643 0.0
C146 C 0.41569 0.59754 0.57269 0.0
C147 C 0.41473 0.61869 0.57668 0.0
C148 C 0.4212 0.61802 0.64066 0.0
C149 C 0.4174 0.62874 0.61098 0.0
C150 C 0.43053 0.49456 0.67698 0.0
C151 C 0.39542 0.5003 0.71856 0.0
C152 C 0.33202 0.44335 0.68632 0.0
C153 C 0.3224 0.4367 0.72277 0.0
C154 C 0.29994 0.43376 0.7307 0.0
C155 C 0.33597 0.43459 0.75018 0.0
C156 C 0.32718 0.42925 0.7854 0.0
C157 C 0.29112 0.42864 0.76572 0.0
C158 C 0.30462 0.42639 0.793 0.0
C159 C 0.35311 0.50416 0.62666 0.0
H160 H 0.42583 0.58965 0.65965 0.0
H161 H 0.41399 0.58972 0.54635 0.0
H162 H 0.42336 0.62589 0.66702 0.0
H163 H 0.41653 0.64486 0.61484 0.0
H164 H 0.28934 0.43561 0.70986 0.0
H165 H 0.35347 0.43729 0.74419 0.0
H166 H 0.27375 0.42634 0.77173 0.0
H167 H 0.29721 0.42194 0.8198 0.0
Gd168 Gd 0.88229 0.4218 0.9786 0.0
Gd169 Gd 0.9018 0.3816 0.99658 0.0
C170 C 0.97284 0.40015 0.9436 0.0
C171 C 0.96035 0.38463 0.88334 0.0
C172 C 0.93091 0.38045 0.92785 0.0
C173 C 0.94888 0.39237 0.95289 0.0
C174 C 0.93646 0.37577 0.89316 0.0
C175 C 0.97851 0.39692 0.90845 0.0
C176 C 0.9903 0.40999 0.9703 0.0
C177 C 0.98355 0.41048 1.00567 0.0
N178 N 0.94281 0.39471 0.98695 0.0
C179 C 0.95959 0.40209 1.01371 0.0
H180 H 0.95448 0.40179 1.0414 0.0
C181 C 0.88967 0.35786 0.9154 0.0
N182 N 0.90793 0.37245 0.93775 0.0
C183 C 0.8943 0.35278 0.88084 0.0
C184 C 0.91781 0.36207 0.86945 0.0
H185 H 0.87145 0.34985 0.92397 0.0
H186 H -0.00317 0.4031 0.90076 0.0
H187 H 0.85581 0.44205 1.03693 0.0
H188 H 0.00886 0.41624 0.96419 0.0
H189 H -0.00325 0.41703 1.02683 0.0
H190 H 0.96494 0.38165 0.85661 0.0
H191 H 0.94053 0.44429 0.95842 0.0
H192 H 0.8781 0.51441 1.01142 0.0
H193 H 0.85242 0.47767 1.04584 0.0
H194 H 0.94657 0.53724 0.93727 0.0
H195 H 0.87971 0.34158 0.86308 0.0
H196 H 0.92134 0.35816 0.84262 0.0
H197 H 0.91297 0.53646 0.96952 0.0
H198 H 0.97393 0.48091 0.93251 0.0
N199 N 0.88195 0.45728 0.99534 0.0
C200 C 0.87933 0.49856 1.00673 0.0
C201 C 0.8649 0.4779 1.02629 0.0
C202 C 0.89632 0.49894 0.98322 0.0
C203 C 0.89713 0.47777 0.9782 0.0
C204 C 0.8668 0.45755 1.02079 0.0
N205 N 0.91696 0.45809 0.96087 0.0
C206 C 0.9156 0.47819 0.96006 0.0
C207 C 0.9574 0.4803 0.93938 0.0
C208 C 0.95514 0.50042 0.93472 0.0
C209 C 0.93829 0.45944 0.95355 0.0
C210 C 0.9344 0.49985 0.94659 0.0
H211 H 0.97003 0.51669 0.92433 0.0
O212 O 0.85082 0.42256 0.95994 0.0
O213 O 0.90023 0.404 0.95007 0.0
O214 O 0.92956 0.41772 1.01895 0.0
O215 O 0.90956 0.43896 1.02341 0.0
O216 O 0.89391 0.42655 0.91912 0.0
O217 O 0.85027 0.40513 1.01045 0.0
O218 O 0.87777 0.34349 1.00389 0.0
O219 O 0.88495 0.40064 1.02449 0.0
O220 O 0.85591 0.38579 0.95031 0.0
O221 O 0.86185 0.35989 0.98469 0.0
O222 O 0.89592 0.38391 1.05766 0.0
O223 O 0.91501 0.35936 1.01775 0.0
C224 C 0.90439 0.41382 0.91783 0.0
C225 C 0.93261 0.52055 0.94819 0.0
C226 C 0.9135 0.5201 0.96655 0.0
C227 C 0.83787 0.4093 0.98685 0.0
C228 C 0.81329 0.38963 0.98006 0.0
C229 C 0.80101 0.37247 1.00681 0.0
C230 C 0.80144 0.38851 0.948 0.0
C231 C 0.77756 0.37052 0.94255 0.0
C232 C 0.77744 0.35453 1.00152 0.0
C233 C 0.76571 0.35356 0.96971 0.0
C234 C 0.9278 0.43589 1.03159 0.0
C235 C 0.88563 0.39667 1.0589 0.0
C236 C 0.8939 0.34056 1.0201 0.0
C237 C 0.88714 0.32865 1.05534 0.0
C238 C 0.86616 0.30656 1.05918 0.0
C239 C 0.90133 0.3396 0.08561 0.0
C240 C 0.89471 0.32891 0.11956 0.0
C241 C 0.85951 0.29568 0.09286 0.0
C242 C 0.87369 0.30674 0.12296 0.0
C243 C 0.84814 0.36382 0.96288 0.0
H244 H 0.80955 0.373 1.03202 0.0
H245 H 0.81095 0.40146 0.92711 0.0
H246 H 0.76817 0.34141 1.02228 0.0
H247 H 0.74731 0.33962 0.96655 0.0
H248 H 0.85489 0.2978 1.03619 0.0
H249 H 0.91779 0.35646 0.08276 0.0
H250 H 0.84328 0.27865 0.09567 0.0
H251 H 0.86814 0.2981 0.14884 0.0
Gd252 Gd 0.45134 0.87904 0.30486 0.0
Gd253 Gd 0.50925 0.90316 0.32762 0.0
C254 C 0.56797 0.97746 0.29421 0.0
C255 C 0.57631 0.97086 0.23306 0.0
C256 C 0.54654 0.93769 0.26853 0.0
C257 C 0.55064 0.95304 0.29704 0.0
C258 C 0.55994 0.94639 0.23662 0.0
C259 C 0.58027 0.98637 0.26176 0.0
C260 C 0.57299 0.99206 0.32444 0.0
C261 C 0.56155 0.98209 0.35684 0.0
N262 N 0.53881 0.94386 0.32828 0.0
C263 C 0.54467 0.95779 0.35845 0.0
H264 H 0.53583 0.95032 0.38362 0.0
C265 C 0.5282 0.89812 0.24672 0.0
N266 N 0.53041 0.9141 0.27263 0.0
C267 C 0.54147 0.90588 0.21501 0.0
C268 C 0.55708 0.93015 0.20964 0.0
H269 H 0.51589 0.87935 0.24967 0.0
H270 H 0.59342 0.00511 0.25896 0.0
H271 H 0.4471 0.83202 0.34936 0.0
H272 H 0.58613 0.01089 0.32329 0.0
H273 H 0.56564 0.99312 0.38058 0.0
H274 H 0.58647 0.97786 0.20855 0.0
H275 H 0.42803 0.91431 0.28896 0.0
H276 H 0.3867 0.8053 0.41909 0.0
H277 H 0.41958 0.80165 0.39194 0.0
H278 H 0.35936 0.86102 0.40458 0.0
H279 H 0.53933 0.89314 0.19445 0.0
H280 H 0.56713 0.93612 0.18485 0.0
H281 H 0.36516 0.82824 0.42499 0.0
H282 H 0.39586 0.92039 0.3129 0.0
N283 N 0.42977 0.85253 0.35144 0.0
C284 C 0.39862 0.8186 0.4001 0.0
C285 C 0.41716 0.81648 0.38484 0.0
C286 C 0.39571 0.83789 0.39071 0.0
C287 C 0.41148 0.85454 0.36539 0.0
C288 C 0.43279 0.83381 0.36071 0.0
N289 N 0.42189 0.88706 0.32643 0.0
C290 C 0.40772 0.87259 0.35306 0.0
C291 C 0.39907 0.90696 0.32453 0.0
C292 C 0.3849 0.89282 0.35277 0.0
C293 C 0.41724 0.90349 0.31107 0.0
C294 C 0.3888 0.87506 0.3669 0.0
H295 H 0.37062 0.89534 0.36283 0.0
O296 O 0.42863 0.87593 0.25996 0.0
O297 O 0.48785 0.89822 0.27633 0.0
O298 O 0.4991 0.93206 0.3338 0.0
O299 O 0.45812 0.91031 0.33784 0.0
O300 O 0.46542 0.9113 0.26688 0.0
O301 O 0.42541 0.84421 0.28419 0.0
O302 O 0.51599 0.87674 0.352 0.0
O303 O 0.47298 0.88219 0.35636 0.0
O304 O 0.46053 0.85004 0.28931 0.0
O305 O 0.49929 0.86571 0.30756 0.0
O306 O 0.50018 0.90989 0.38398 0.0
O307 O 0.54445 0.91336 0.34839 0.0
C308 C 0.48594 0.91432 0.25758 0.0
C309 C 0.37392 0.85933 0.39355 0.0
C310 C 0.37723 0.84066 0.40519 0.0
C311 C 0.41942 0.85292 0.25746 0.0
C312 C 0.42033 0.84336 0.22215 0.0
C313 C 0.43876 0.85714 0.19791 0.0
C314 C 0.40342 0.81969 0.21347 0.0
C315 C 0.40464 0.80977 0.18048 0.0
C316 C 0.44002 0.84753 0.16509 0.0
C317 C 0.42308 0.8241 0.15629 0.0
C318 C 0.47839 0.93012 0.34266 0.0
C319 C 0.47812 0.89354 0.38769 0.0
C320 C 0.53761 0.8923 0.36146 0.0
C321 C 0.54373 0.89084 0.39898 0.0
C322 C 0.54431 0.87053 0.4104 0.0
C323 C 0.54842 0.90906 0.42371 0.0
C324 C 0.55396 0.90718 0.45956 0.0
C325 C 0.54957 0.86846 0.44604 0.0
C326 C 0.55443 0.88667 0.47052 0.0
C327 C 0.47963 0.84789 0.2937 0.0
H328 H 0.45222 0.87527 0.20438 0.0
H329 H 0.38956 0.80896 0.23266 0.0
H330 H 0.45414 0.8583 0.14634 0.0
H331 H 0.42423 0.8174 0.13017 0.0
H332 H 0.54058 0.85623 0.39174 0.0
H333 H 0.54821 0.92487 0.41496 0.0
H334 H 0.54992 0.85271 0.4547 0.0
H335 H 0.55843 0.88467 0.49806 0.0
Gd336 Gd 0.56696 0.46197 0.64221 0.0
Gd337 Gd 0.60708 0.51945 0.66139 0.0
C338 C 0.61443 0.59248 0.64147 0.0
C339 C 0.62925 0.60108 0.58038 0.0
C340 C 0.62085 0.56375 0.60872 0.0
C341 C 0.61368 0.57033 0.63964 0.0
C342 C 0.62923 0.57943 0.57903 0.0
C343 C 0.6218 0.60756 0.61148 0.0
C344 C 0.60836 0.59919 0.67371 0.0
C345 C 0.60231 0.58426 0.70342 0.0
N346 N 0.60705 0.55564 0.66853 0.0
C347 C 0.60189 0.56257 0.70044 0.0
H348 H 0.59683 0.55122 0.72364 0.0
C349 C 0.62918 0.53664 0.57859 0.0
N350 N 0.62058 0.5426 0.60808 0.0
C351 C 0.63838 0.55202 0.54921 0.0
C352 C 0.63803 0.5733 0.54914 0.0
H353 H 0.62845 0.51974 0.57641 0.0
H354 H 0.62233 0.62454 0.61237 0.0
H355 H 0.60633 0.45428 0.69403 0.0
H356 H 0.60872 0.61603 0.67612 0.0
H357 H 0.59784 0.58938 0.72865 0.0
H358 H 0.63544 0.61317 0.55773 0.0
H359 H 0.50951 0.4442 0.62464 0.0
H360 H 0.56699 0.40643 0.77863 0.0
H361 H 0.6051 0.43175 0.74726 0.0
H362 H 0.4866 0.38707 0.7572 0.0
H363 H 0.64505 0.54704 0.52609 0.0
H364 H 0.64479 0.58495 0.52603 0.0
H365 H 0.52304 0.39016 0.78234 0.0
H366 H 0.47007 0.41907 0.65254 0.0
N367 N 0.5689 0.44182 0.69391 0.0
C368 C 0.56727 0.4161 0.75478 0.0
C369 C 0.5888 0.43035 0.73714 0.0
C370 C 0.54633 0.41437 0.7414 0.0
C371 C 0.54762 0.42744 0.71034 0.0
C372 C 0.58932 0.443 0.70652 0.0
N373 N 0.52842 0.43768 0.66554 0.0
C374 C 0.52692 0.42555 0.69604 0.0
C375 C 0.48591 0.4208 0.66509 0.0
C376 C 0.48411 0.40877 0.69698 0.0
C377 C 0.50827 0.43504 0.64941 0.0
C378 C 0.50466 0.4108 0.71262 0.0
H379 H 0.46673 0.39768 0.70901 0.0
O380 O 0.57764 0.44865 0.59624 0.0
O381 O 0.58589 0.4976 0.6113 0.0
O382 O 0.57232 0.51882 0.6612 0.0
O383 O 0.54626 0.47831 0.66692 0.0
O384 O 0.54981 0.47581 0.60299 0.0
O385 O 0.54408 0.42588 0.62229 0.0
O386 O 0.63503 0.51555 0.68668 0.0
O387 O 0.58755 0.4835 0.6905 0.0
O388 O 0.60429 0.46551 0.63488 0.0
O389 O 0.62917 0.50603 0.63269 0.0
O390 O 0.58915 0.51148 0.71744 0.0
O391 O 0.63805 0.55021 0.68491 0.0
C392 C 0.56771 0.49589 0.59285 0.0
C393 C 0.50351 0.39833 0.74399 0.0
C394 C 0.52426 0.40006 0.75827 0.0
C395 C 0.56021 0.42691 0.6005 0.0
C396 C 0.56733 0.40867 0.60522 0.0
C397 C 0.56468 0.39741 0.63852 0.0
C398 C 0.57858 0.40375 0.57706 0.0
C399 C 0.58756 0.38819 0.58224 0.0
C400 C 0.57389 0.38226 0.64388 0.0
C401 C 0.58549 0.37779 0.61595 0.0
C402 C 0.55135 0.50077 0.67004 0.0
C403 C 0.5809 0.48887 0.72065 0.0
C404 C 0.6466 0.53743 0.69802 0.0
C405 C 0.6526 0.54003 0.73646 0.0
C406 C 0.66971 0.53458 0.74891 0.0
C407 C 0.64013 0.54602 0.76123 0.0
C408 C 0.6444 0.5464 0.79823 0.0
C409 C 0.67421 0.53507 0.78563 0.0
C410 C 0.66163 0.54089 0.81023 0.0
C411 C 0.62572 0.48428 0.62868 0.0
H412 H 0.55568 0.40039 0.66057 0.0
H413 H 0.58066 0.41226 0.55124 0.0
H414 H 0.57196 0.3739 0.66973 0.0
H415 H 0.59226 0.36574 0.62036 0.0
H416 H 0.67932 0.52962 0.73024 0.0
H417 H 0.62717 0.5505 0.75176 0.0
H418 H 0.68735 0.53072 0.79508 0.0
H419 H 0.6652 0.54085 0.83859 0.0
Gd420 Gd 0.09884 0.57027 0.97373 0.0
Gd421 Gd 0.07832 0.60953 0.99289 0.0
C422 C 0.01006 0.59596 0.93579 0.0
C423 C 0.02493 0.61322 0.87708 0.0
C424 C 0.05226 0.61401 0.9226 0.0
C425 C 0.03342 0.6022 0.94631 0.0
C426 C 0.04823 0.62016 0.888 0.0
C427 C 0.00587 0.60103 0.90086 0.0
C428 C -0.00834 0.58549 0.96101 0.0
C429 C -0.00312 0.58243 0.99616 0.0
N430 N 0.03805 0.59785 0.98013 0.0
C431 C 0.02031 0.58925 1.00548 0.0
H432 H 0.02425 0.58772 1.03314 0.0
C433 C 0.09368 0.63278 0.9114 0.0
N434 N 0.07453 0.61973 0.93337 0.0
C435 C 0.09059 0.63963 0.87722 0.0
C436 C 0.06776 0.63317 0.86534 0.0
H437 H 0.11146 0.63791 0.91973 0.0
H438 H 0.98803 0.59615 0.89226 0.0
H439 H 0.14388 0.60663 1.02792 0.0
H440 H 0.97354 0.58054 0.95397 0.0
H441 H 0.98293 0.57517 1.01624 0.0
H442 H 0.0215 0.61745 0.85043 0.0
H443 H 0.05988 0.51357 0.94872 0.0
H444 H 0.1587 0.56389 0.09873 0.0
H445 H 0.16748 0.60353 1.07709 0.0
H446 H 0.10132 0.48393 1.0647 0.0
H447 H 0.10585 0.64974 0.85994 0.0
H448 H 0.06539 0.63827 0.83867 0.0
H449 H 0.13391 0.51933 0.09395 0.0
H450 H 0.04837 0.4729 0.96746 0.0
N451 N 0.1218 0.56909 1.02156 0.0
C452 C 0.14837 0.56513 1.07688 0.0
C453 C 0.15335 0.58753 1.06479 0.0
C454 C 0.13008 0.54459 1.06069 0.0
C455 C 0.11709 0.54718 1.03245 0.0
C456 C 0.13993 0.5892 1.03681 0.0
N457 N 0.08653 0.53047 0.98906 0.0
C458 C 0.09874 0.52727 1.01599 0.0
C459 C 0.06249 0.48804 0.98148 0.0
C460 C 0.07435 0.48448 1.00987 0.0
C461 C 0.06901 0.51125 0.97108 0.0
C462 C 0.09286 0.5042 1.02733 0.0
H463 H 0.06926 0.46647 1.01783 0.0
O464 O 0.10229 0.55887 0.92016 0.0
O465 O 0.08041 0.58829 0.94512 0.0
O466 O 0.0503 0.57267 1.01252 0.0
O467 O 0.06819 0.54912 1.01132 0.0
O468 O 0.06496 0.55203 0.93951 0.0
O469 O 0.1324 0.57378 0.9561 0.0
O470 O 0.10078 0.64788 0.99845 0.0
O471 O 0.09732 0.59236 1.01957 0.0
O472 O 0.13109 0.60863 0.96566 0.0
O473 O 0.11802 0.63427 0.98269 0.0
O474 O 0.08036 0.60321 1.05342 0.0
O475 O 0.06513 0.63022 1.02031 0.0
C476 C 0.063 0.56985 0.9287 0.0
C477 C 0.10563 0.50152 1.05557 0.0
C478 C 0.12422 0.52167 1.07218 0.0
C479 C 0.12526 0.56813 0.92314 0.0
C480 C 0.1401 0.58636 0.89657 0.0
C481 C 0.13354 0.60282 0.88455 0.0
C482 C 0.16224 0.58923 0.88644 0.0
C483 C 0.17794 0.60864 0.86492 0.0
C484 C 0.14911 0.62216 0.86339 0.0
C485 C 0.17126 0.62517 0.85377 0.0
C486 C 0.05121 0.55342 1.02202 0.0
C487 C 0.09262 0.59245 1.05401 0.0
C488 C 0.08573 0.64983 1.01928 0.0
C489 C 0.09555 0.66239 1.05361 0.0
C490 C 0.11792 0.68339 1.05454 0.0
C491 C 0.08331 0.65294 0.08592 0.0
C492 C 0.0934 0.66393 0.1187 0.0
C493 C 0.12799 0.69439 0.08732 0.0
C494 C 0.11585 0.68462 0.11945 0.0
C495 C 0.13518 0.63066 0.97099 0.0
H496 H 0.11667 0.60114 0.89239 0.0
H497 H 0.16737 0.57658 0.89565 0.0
H498 H 0.14402 0.63488 0.85456 0.0
H499 H 0.18288 0.64004 0.83671 0.0
H500 H 0.12774 0.6911 1.02998 0.0
H501 H 0.06605 0.63674 0.08589 0.0
H502 H 0.1453 0.71045 0.08782 0.0
H503 H 0.12381 0.69321 0.1447 0.0
Gd504 Gd 0.88501 0.46023 0.52205 0.0
Gd505 Gd 0.906 0.52028 0.5088 0.0
C506 C 0.9721 0.56888 0.5789 0.0
C507 C 0.9582 0.59177 0.61203 0.0
C508 C 0.93181 0.5609 0.56991 0.0
C509 C 0.94976 0.5562 0.56118 0.0
C510 C 0.93589 0.57879 0.59543 0.0
C511 C 0.97627 0.58683 0.60376 0.0
C512 C 0.98935 0.56252 0.57251 0.0
C513 C 0.98374 0.543 0.55087 0.0
N514 N 0.94493 0.53819 0.53761 0.0
C515 C 0.96136 0.53068 0.53462 0.0
H516 H 0.95738 0.51428 0.52206 0.0
C517 C 0.89258 0.55307 0.56082 0.0
N518 N 0.91021 0.54782 0.55405 0.0
C519 C 0.89572 0.5704 0.58595 0.0
C520 C 0.91743 0.58322 0.60357 0.0
H521 H 0.87622 0.54463 0.54592 0.0
H522 H -0.00672 0.59667 0.61735 0.0
H523 H 0.83796 0.4488 0.4674 0.0
H524 H 0.00657 0.57173 0.58566 0.0
H525 H -0.00362 0.53684 0.54763 0.0
H526 H 0.96158 0.60551 0.63158 0.0
H527 H 0.92907 0.44788 0.5415 0.0
H528 H 0.82947 0.39571 0.39201 0.0
H529 H 0.81639 0.42247 0.41742 0.0
H530 H 0.89316 0.38134 0.41899 0.0
H531 H 0.8815 0.57416 0.59115 0.0
H532 H 0.9199 0.59677 0.62294 0.0
H533 H 0.85819 0.38073 0.39258 0.0
H534 H 0.94436 0.42286 0.51788 0.0
N535 N 0.86339 0.43709 0.47201 0.0
C536 C 0.839 0.40706 0.41458 0.0
C537 C 0.83158 0.42215 0.42883 0.0
C538 C 0.85873 0.40693 0.42937 0.0
C539 C 0.87064 0.42214 0.45871 0.0
C540 C 0.84394 0.43705 0.45765 0.0
N541 N 0.90155 0.437 0.50219 0.0
C542 C 0.89042 0.42238 0.47375 0.0
C543 C 0.92923 0.4226 0.50519 0.0
C544 C 0.91842 0.40801 0.47551 0.0
C545 C 0.92041 0.43685 0.5185 0.0
C546 C 0.89868 0.40758 0.45961 0.0
H547 H 0.92532 0.39698 0.46531 0.0
O548 O 0.86093 0.44818 0.56792 0.0
O549 O 0.90251 0.49536 0.55474 0.0
O550 O 0.93239 0.51484 0.47749 0.0
O551 O 0.91742 0.47385 0.48481 0.0
O552 O 0.91555 0.47303 0.56284 0.0
O553 O 0.86962 0.42387 0.54184 0.0
O554 O 0.88277 0.53217 0.48723 0.0
O555 O 0.88437 0.48435 0.47983 0.0
O556 O 0.85186 0.46501 0.5236 0.0
O557 O 0.86982 0.50469 0.53771 0.0
O558 O 0.90332 0.51243 0.44758 0.0
O559 O 0.92124 0.55579 0.48621 0.0
C560 C 0.91799 0.49296 0.574 0.0
C561 C 0.88698 0.39272 0.43023 0.0
C562 C 0.86703 0.39234 0.41524 0.0
C563 C 0.8553 0.42605 0.56384 0.0
C564 C 0.82958 0.40877 0.56009 0.0
C565 C 0.82006 0.39598 0.52808 0.0
C566 C 0.81415 0.40584 0.58843 0.0
C567 C 0.78935 0.3905 0.58503 0.0
C568 C 0.79548 0.38116 0.52419 0.0
C569 C 0.78016 0.37844 0.55242 0.0
C570 C 0.93247 0.49486 0.47019 0.0
C571 C 0.88911 0.48964 0.44558 0.0
C572 C 0.90054 0.55174 0.47422 0.0
C573 C 0.89874 0.55532 0.43551 0.0
C574 C 0.87692 0.55093 0.42095 0.0
C575 C 0.91762 0.55989 0.41228 0.0
C576 C 0.91448 0.55897 0.37505 0.0
C577 C 0.87384 0.55031 0.38378 0.0
C578 C 0.89244 0.554 0.36082 0.0
C579 C 0.85024 0.48358 0.535 0.0
H580 H 0.83149 0.39738 0.50601 0.0
H581 H 0.82165 0.41514 0.61346 0.0
H582 H 0.78831 0.37159 0.49929 0.0
H583 H 0.76116 0.3667 0.54888 0.0
H584 H 0.86202 0.54721 0.43831 0.0
H585 H 0.93453 0.56309 0.42298 0.0
H586 H 0.85688 0.54661 0.37275 0.0
H587 H 0.88976 0.55333 0.33207 0.0
Gd588 Gd 0.41896 0.89304 0.85839 0.0
Gd589 Gd 0.37713 0.91035 0.84275 0.0
C590 C 0.39042 0.97848 0.90048 0.0
C591 C 0.37696 0.96423 0.96095 0.0
C592 C 0.37425 0.93658 0.91426 0.0
C593 C 0.38435 0.95516 0.88977 0.0
C594 C 0.37005 0.94093 0.94997 0.0
C595 C 0.38716 0.98297 0.93629 0.0
C596 C 0.39897 -0.00344 0.87471 0.0
C597 C 0.40022 0.99101 0.83894 0.0
N598 N 0.38721 0.95033 0.85521 0.0
C599 C 0.39373 0.96766 0.82952 0.0
H600 H 0.39394 0.96346 0.80155 0.0
C601 C 0.35666 0.89535 0.92613 0.0
N602 N 0.36841 0.91425 0.90328 0.0
C603 C 0.35206 0.89882 0.96159 0.0
C604 C 0.359 0.92173 0.97371 0.0
H605 H 0.35085 0.87748 0.91757 0.0
H606 H 0.392 0.0008 0.94501 0.0
H607 H 0.37861 0.84496 0.81247 0.0
H608 H 0.40385 0.01465 0.88192 0.0
H609 H 0.40594 0.00466 0.81853 0.0
H610 H 0.3742 0.96791 0.98837 0.0
H611 H 0.47624 0.93607 0.86792 0.0
H612 H 0.41573 0.82705 0.73484 0.0
H613 H 0.37804 0.81885 0.76391 0.0
H614 H 0.49736 0.8877 0.75096 0.0
H615 H 0.34313 0.88376 0.97958 0.0
H616 H 0.35552 0.92437 1.00129 0.0
H617 H 0.4602 0.85274 0.73034 0.0
H618 H 0.51535 0.94731 0.84116 0.0
N619 N 0.41621 0.8679 0.81093 0.0
C620 C 0.41611 0.83851 0.75634 0.0
C621 C 0.39479 0.83386 0.77261 0.0
C622 C 0.43765 0.85795 0.7679 0.0
C623 C 0.43715 0.87241 0.79587 0.0
C624 C 0.39518 0.84871 0.80018 0.0
N625 N 0.45691 0.90607 0.83366 0.0
C626 C 0.4581 0.89215 0.80742 0.0
C627 C 0.49938 0.93181 0.83134 0.0
C628 C 0.50083 0.91807 0.80361 0.0
C629 C 0.4772 0.9254 0.8464 0.0
C630 C 0.48008 0.89792 0.79139 0.0
H631 H 0.51804 0.92311 0.79194 0.0
O632 O 0.44228 0.89317 0.90011 0.0
O633 O 0.40028 0.90989 0.88952 0.0
O634 O 0.41222 0.93978 0.82118 0.0
O635 O 0.4367 0.92317 0.81846 0.0
O636 O 0.43664 0.92636 0.89408 0.0
O637 O 0.41396 0.85965 0.87923 0.0
O638 O 0.33927 0.88535 0.83518 0.0
O639 O 0.39551 0.89311 0.81373 0.0
O640 O 0.38201 0.86143 0.87665 0.0
O641 O 0.3547 0.87053 0.85331 0.0
O642 O 0.38199 0.908 0.78138 0.0
O643 O 0.35382 0.92242 0.82166 0.0
C644 C 0.41859 0.92767 0.90571 0.0
C645 C 0.48065 0.88352 0.76364 0.0
C646 C 0.4595 0.86359 0.75194 0.0
C647 C 0.43019 0.87007 0.9039 0.0
C648 C 0.42312 0.86066 0.94059 0.0
C649 C 0.43009 0.87607 0.97038 0.0
C650 C 0.40923 0.83588 0.94594 0.0
C651 C 0.40245 0.82654 0.98064 0.0
C652 C 0.42332 0.86685 1.00489 0.0
C653 C 0.40963 0.84227 1.01007 0.0
C654 C 0.43137 0.93969 0.80934 0.0
C655 C 0.39369 0.89669 0.77933 0.0
C656 C 0.3357 0.90094 0.81867 0.0
C657 C 0.32473 0.89382 0.78283 0.0
C658 C 0.30249 0.87308 0.77861 0.0
C659 C 0.3371 0.90685 0.75234 0.0
C660 C 0.32763 0.89938 0.71781 0.0
C661 C 0.29288 0.86549 0.74434 0.0
C662 C 0.30537 0.87848 0.71404 0.0
C663 C 0.35955 0.85529 0.86907 0.0
H664 H 0.4407 0.89523 0.96712 0.0
H665 H 0.40388 0.82385 0.92315 0.0
H666 H 0.42865 0.8788 1.0277 0.0
H667 H 0.40434 0.83558 1.03712 0.0
H668 H 0.29272 0.86265 0.80176 0.0
H669 H 0.35445 0.92268 0.75535 0.0
H670 H 0.27571 0.84947 0.74123 0.0
H671 H 0.29743 0.87241 0.68781 0.0
Gd672 Gd 0.52259 0.42521 0.18782 0.0
Gd673 Gd 0.46381 0.38173 0.17223 0.0
C674 C 0.40689 0.3931 0.22667 0.0
C675 C 0.40631 0.37895 0.28705 0.0
C676 C 0.43308 0.37776 0.2421 0.0
C677 C 0.42482 0.38776 0.21704 0.0
C678 C 0.42313 0.37242 0.27697 0.0
C679 C 0.39836 0.38944 0.26204 0.0
C680 C 0.39718 0.40089 0.20009 0.0
C681 C 0.40413 0.40164 0.16452 0.0
N682 N 0.43284 0.39049 0.18268 0.0
C683 C 0.42148 0.39566 0.15614 0.0
H684 H 0.42592 0.39526 0.12838 0.0
C685 C 0.45653 0.36015 0.25516 0.0
N686 N 0.4501 0.3724 0.23216 0.0
C687 C 0.44669 0.354 0.28955 0.0
C688 C 0.43013 0.3604 0.30068 0.0
H689 H 0.4692 0.35492 0.24759 0.0
H690 H 0.38488 0.39377 0.26996 0.0
H691 H 0.53309 0.38667 0.14223 0.0
H692 H 0.38349 0.40525 0.20649 0.0
H693 H 0.39587 0.40647 0.14345 0.0
H694 H 0.39895 0.37547 0.31394 0.0
H695 H 0.53584 0.482 0.19944 0.0
H696 H 0.58482 0.42511 1.06084 0.0
H697 H 0.55805 0.38722 0.09195 0.0
H698 H 0.60179 0.50553 1.07678 0.0
H699 H 0.45206 0.34449 0.30758 0.0
H700 H 0.42278 0.35587 0.32753 0.0
H701 H 0.60101 0.46921 1.05536 0.0
H702 H 0.56156 0.52137 0.17181 0.0
N703 N 0.5455 0.42387 0.13986 0.0
C704 C 0.57404 0.42502 0.08315 0.0
C705 C 0.55893 0.40359 0.10061 0.0
C706 C 0.57506 0.44607 0.0947 0.0
C707 C 0.56054 0.44494 0.12374 0.0
C708 C 0.54484 0.40337 0.12922 0.0
N709 N 0.54647 0.46354 0.16334 0.0
C710 C 0.56098 0.46538 0.13575 0.0
C711 C 0.56151 0.50576 0.16133 0.0
C712 C 0.57594 0.50781 0.13214 0.0
C713 C 0.54697 0.48341 0.17692 0.0
C714 C 0.57592 0.48752 0.1191 0.0
H715 H 0.58713 0.52513 0.12004 0.0
O716 O 0.54432 0.44839 0.231 0.0
O717 O 0.48711 0.40511 0.21921 0.0
O718 O 0.46799 0.41623 0.15091 0.0
O719 O 0.50888 0.44246 0.1491 0.0
O720 O 0.50547 0.44175 0.22225 0.0
O721 O 0.55165 0.42167 0.20959 0.0
O722 O 0.4547 0.34594 0.15527 0.0
O723 O 0.4996 0.40078 0.14398 0.0
O724 O 0.51909 0.38872 0.20449 0.0
O725 O 0.48141 0.3602 0.18642 0.0
O726 O 0.47129 0.38821 0.11099 0.0
O727 O 0.42741 0.35556 0.1584 0.0
C728 C 0.48704 0.42322 0.23502 0.0
C729 C 0.59028 0.48871 0.09002 0.0
C730 C 0.58986 0.46803 1.07786 0.0
C731 C 0.55538 0.43649 0.23572 0.0
C732 C 0.5544 0.42702 0.27191 0.0
C733 C 0.53889 0.42728 0.29812 0.0
C734 C 0.56761 0.41576 0.27938 0.0
C735 C 0.56522 0.40458 0.31257 0.0
C736 C 0.53664 0.41643 0.33124 0.0
C737 C 0.54967 0.40515 0.3385 0.0
C738 C 0.48675 0.43614 0.13987 0.0
C739 C 0.49438 0.39994 0.10976 0.0
C740 C 0.43282 0.33981 0.14756 0.0
C741 C 0.4246 0.33007 0.11146 0.0
C742 C 0.41922 0.30682 0.1031 0.0
C743 C 0.422 0.34401 0.08515 0.0
C744 C 0.4132 0.33471 1.05095 0.0
C745 C 0.41099 0.29754 1.06886 0.0
C746 C 0.40783 0.31129 1.04295 0.0
C747 C 0.50243 0.36591 0.19972 0.0
H748 H 0.52828 0.43558 0.29298 0.0
H749 H 0.57926 0.41518 0.25899 0.0
H750 H 0.52469 0.41672 0.35132 0.0
H751 H 0.54785 0.39722 0.36469 0.0
H752 H 0.42128 0.29586 0.12306 0.0
H753 H 0.42672 0.36216 0.09148 0.0
H754 H 0.40672 0.27951 1.06253 0.0
H755 H 0.40067 0.30336 1.01704 0.0
Gd756 Gd 0.09125 0.52516 0.52057 0.0
Gd757 Gd 0.07204 0.46611 0.50073 0.0
C758 C 0.00329 0.41149 0.55745 0.0
C759 C 0.01823 0.40689 0.61472 0.0
C760 C 0.0457 0.43444 0.57003 0.0
C761 C 0.02678 0.42842 0.54685 0.0
C762 C 0.04161 0.42301 0.60372 0.0
C763 C -0.0009 0.40134 0.59179 0.0
C764 C 0.98475 0.40446 0.53274 0.0
C765 C 0.98995 0.41299 0.49774 0.0
N766 N 0.0314 0.4379 0.51328 0.0
C767 C 0.0135 0.42913 0.48815 0.0
H768 H 0.01732 0.43449 0.46044 0.0
C769 C 0.08727 0.45543 0.5804 0.0
N770 N 0.06814 0.45085 0.5594 0.0
C771 C 0.08408 0.4442 0.61357 0.0
C772 C 0.06115 0.42805 0.62544 0.0
H773 H 0.10516 0.46741 0.57183 0.0
H774 H 0.98119 0.38853 0.60041 0.0
H775 H 0.13896 0.53341 0.47334 0.0
H776 H 0.96651 0.39164 0.53997 0.0
H777 H 0.9759 0.4068 0.4779 0.0
H778 H 0.01478 0.39838 0.64076 0.0
H779 H 0.04972 0.541 0.53447 0.0
H780 H 0.1593 0.59224 0.40234 0.0
H781 H 0.1659 0.56061 0.42694 0.0
H782 H 0.10058 0.61502 0.42432 0.0
H783 H 0.09936 0.44807 0.63 0.0
H784 H 0.05873 0.41956 0.65133 0.0
H785 H 0.1349 0.61246 0.40164 0.0
H786 H 0.03995 0.57082 0.51198 0.0
N787 N 0.11719 0.54933 0.47513 0.0
C788 C 0.14749 0.58044 0.42294 0.0
C789 C 0.15124 0.56257 0.43669 0.0
C790 C 0.12847 0.58278 0.43578 0.0
C791 C 0.11355 0.56688 0.46251 0.0
C792 C 0.13592 0.54718 0.46306 0.0
N793 N 0.0798 0.55228 0.50018 0.0
C794 C 0.09417 0.56828 0.47519 0.0
C795 C 0.0552 0.57025 0.50132 0.0
C796 C 0.06943 0.58642 0.47492 0.0
C797 C 0.06078 0.55333 0.51395 0.0
C798 C 0.08924 0.58565 0.4616 0.0
H799 H 0.06504 0.59948 0.46513 0.0
O800 O 0.09126 0.5454 0.56705 0.0
O801 O 0.07309 0.48863 0.54958 0.0
O802 O 0.04437 0.4748 0.47949 0.0
O803 O 0.06277 0.51609 0.47906 0.0
O804 O 0.05685 0.5088 0.55342 0.0
O805 O 0.12465 0.55243 0.54321 0.0
O806 O 0.09441 0.45028 0.49296 0.0
O807 O 0.09089 0.5024 0.47433 0.0
O808 O 0.12207 0.51844 0.53654 0.0
O809 O 0.11197 0.48235 0.51068 0.0
O810 O 0.07641 0.47474 0.44006 0.0
O811 O 0.05774 0.43152 0.4753 0.0
C812 C 0.05542 0.48949 0.56541 0.0
C813 C 0.10411 0.60158 0.43512 0.0
C814 C 0.12368 0.60016 0.42225 0.0
C815 C 0.1143 0.55555 0.57101 0.0
C816 C 0.12313 0.55303 0.60629 0.0
C817 C 0.10743 0.54274 0.63539 0.0
C818 C 0.14733 0.55996 0.61051 0.0
C819 C 0.1559 0.55657 0.64331 0.0
C820 C 0.11577 0.53946 0.66804 0.0
C821 C 0.13976 0.54637 0.67212 0.0
C822 C 0.04583 0.49485 0.46824 0.0
C823 C 0.08818 0.49782 0.43961 0.0
C824 C 0.07839 0.43274 0.47381 0.0
C825 C 0.08632 0.42938 0.43823 0.0
C826 C 0.10772 0.42907 0.43468 0.0
C827 C 0.07303 0.42734 0.40738 0.0
C828 C 0.08093 0.42517 0.37326 0.0
C829 C 0.11568 0.42684 0.40079 0.0
C830 C 0.10237 0.42484 0.37017 0.0
C831 C 0.12758 0.50193 0.52757 0.0
H832 H 0.08868 0.53708 0.63295 0.0
H833 H 0.15934 0.56754 0.58791 0.0
H834 H 0.1036 0.53164 0.6904 0.0
H835 H 0.14567 0.5442 0.69826 0.0
H836 H 0.11834 0.43072 0.45808 0.0
H837 H 0.05627 0.42713 0.40986 0.0
H838 H 0.13222 0.42665 0.39824 0.0
H839 H 0.10882 0.42312 0.34416 0.0
Gd840 Gd 0.5659 0.0973 0.85559 0.0
Gd841 Gd 0.6074 0.07971 0.8381 0.0
C842 C 0.59802 0.01229 0.89314 0.0
C843 C 0.61107 0.02616 0.9539 0.0
C844 C 0.61185 0.0536 0.90854 0.0
C845 C 0.60268 0.03533 0.88345 0.0
C846 C 0.61635 0.04918 0.94399 0.0
C847 C 0.60192 0.00776 0.92855 0.0
C848 C 0.58999 0.99453 0.86682 0.0
C849 C 0.58765 9e-05 0.83154 0.0
N850 N 0.59907 0.04018 0.84935 0.0
C851 C 0.59272 0.02315 0.82312 0.0
H852 H 0.59162 0.02742 0.79546 0.0
C853 C 0.62677 0.09427 0.92218 0.0
N854 N 0.61638 0.07564 0.89844 0.0
C855 C 0.63142 0.09069 0.95751 0.0
C856 C 0.62601 0.06801 0.96857 0.0
H857 H 0.63107 0.11192 0.91459 0.0
H858 H 0.59822 0.99015 0.93648 0.0
H859 H 0.60431 0.14665 0.8102 0.0
H860 H 0.58618 0.97666 0.87326 0.0
H861 H 0.58218 0.98669 0.81072 0.0
H862 H 0.61418 0.02244 0.98106 0.0
H863 H 0.50863 0.055 0.86876 0.0
H864 H 0.5665 0.15792 0.72588 0.0
H865 H 0.60402 0.17018 0.75874 0.0
H866 H 0.48612 0.0942 0.7414 0.0
H867 H 0.63917 0.10546 0.97621 0.0
H868 H 0.62957 0.06528 0.99603 0.0
H869 H 0.52259 0.12941 0.71947 0.0
H870 H 0.46939 0.04097 0.84056 0.0
N871 N 0.56729 0.12109 0.80685 0.0
C872 C 0.56646 0.1476 0.74873 0.0
C873 C 0.58767 0.15456 0.76719 0.0
C874 C 0.54543 0.12748 0.76012 0.0
C875 C 0.54638 0.11456 0.78989 0.0
C876 C 0.58773 0.14116 0.7965 0.0
N877 N 0.52752 0.08286 0.83091 0.0
C878 C 0.52588 0.09479 0.8022 0.0
C879 C 0.48515 0.05608 0.82942 0.0
C880 C 0.48337 0.06756 0.79893 0.0
C881 C 0.50742 0.06412 0.84536 0.0
C882 C 0.50383 0.0873 0.78512 0.0
H883 H 0.46612 0.06124 0.78654 0.0
O884 O 0.54222 0.09805 0.89604 0.0
O885 O 0.58439 0.07981 0.88542 0.0
O886 O 0.57234 0.04972 0.81784 0.0
O887 O 0.54734 0.06576 0.81805 0.0
O888 O 0.54862 0.06478 0.89296 0.0
O889 O 0.57274 0.13096 0.87862 0.0
O890 O 0.64496 0.10538 0.82946 0.0
O891 O 0.59011 0.0987 0.81088 0.0
O892 O 0.6033 0.12976 0.87053 0.0
O893 O 0.63037 0.11932 0.85004 0.0
O894 O 0.59889 0.07961 0.77756 0.0
O895 O 0.63093 0.06879 0.81385 0.0
C896 C 0.56633 0.06232 0.90251 0.0
C897 C 0.50286 0.0998 0.75504 0.0
C898 C 0.52361 0.11986 0.74259 0.0
C899 C 0.5554 0.12085 0.90169 0.0
C900 C 0.56113 0.12884 0.93934 0.0
C901 C 0.55019 0.11271 0.9678 0.0
C902 C 0.57724 0.15298 0.94705 0.0
C903 C 0.58232 0.16096 0.98273 0.0
C904 C 0.5553 0.12055 1.00325 0.0
C905 C 0.57121 0.1445 1.01074 0.0
C906 C 0.55245 0.04914 0.80854 0.0
C907 C 0.58907 0.09274 0.77692 0.0
C908 C 0.64874 0.09044 0.81139 0.0
C909 C 0.65935 0.09852 0.77549 0.0
C910 C 0.68161 0.11932 0.77189 0.0
C911 C 0.64686 0.08624 0.74453 0.0
C912 C 0.65632 0.09461 0.71024 0.0
C913 C 0.69124 0.12766 0.73782 0.0
C914 C 0.67871 0.11538 0.7071 0.0
C915 C 0.62576 0.13533 0.86384 0.0
H916 H 0.53766 0.09404 0.96279 0.0
H917 H 0.58558 0.16563 0.92535 0.0
H918 H 0.5469 0.10801 1.025 0.0
H919 H 0.57507 0.1501 1.03851 0.0
H920 H 0.69146 0.12918 0.7954 0.0
H921 H 0.62985 0.06991 0.747 0.0
H922 H 0.70843 0.14372 0.73523 0.0
H923 H 0.68644 0.12214 0.68095 0.0
Gd924 Gd 0.4577 0.56371 0.18582 0.0
Gd925 Gd 0.51825 0.60513 0.16719 0.0
C926 C 0.57198 0.59048 0.22514 0.0
C927 C 0.57313 0.60638 0.28455 0.0
C928 C 0.54802 0.60877 0.238 0.0
C929 C 0.5553 0.59721 0.21416 0.0
C930 C 0.55742 0.614 0.27321 0.0
C931 C 0.58031 0.59455 0.26063 0.0
C932 C 0.5805 0.5806 0.19984 0.0
C933 C 0.57348 0.57886 0.16417 0.0
N934 N 0.54724 0.59379 0.1798 0.0
C935 C 0.55733 0.58614 0.1544 0.0
H936 H 0.55271 0.58542 0.12641 0.0
C937 C 0.52653 0.62875 0.24868 0.0
N938 N 0.53221 0.61538 0.22675 0.0
C939 C 0.53549 0.63443 0.28359 0.0
C940 C 0.55081 0.62682 0.29606 0.0
H941 H 0.5152 0.63531 0.23975 0.0
H942 H 0.59283 0.5892 0.26957 0.0
H943 H 0.4305 0.56702 0.11147 0.0
H944 H 0.59321 0.57515 0.2073 0.0
H945 H 0.58071 0.57215 0.14406 0.0
H946 H 0.58011 0.60984 0.31166 0.0
H947 H 0.476 0.52804 0.22819 0.0
H948 H 0.38053 0.49618 1.07723 0.0
H949 H 0.39848 0.5398 1.07064 0.0
H950 H 0.39564 0.44705 0.15591 0.0
H951 H 0.53058 0.64473 0.30085 0.0
H952 H 0.55761 0.63114 0.32322 0.0
H953 H 0.37923 0.46174 0.10967 0.0
H954 H 0.46137 0.48579 0.2369 0.0
N955 N 0.4307 0.53916 0.14137 0.0
C956 C 0.39442 0.50804 0.09555 0.0
C957 C 0.40453 0.53264 0.0917 0.0
C958 C 0.40249 0.49903 0.12279 0.0
C959 C 0.42061 0.51522 0.14601 0.0
C960 C 0.4227 0.548 0.11497 0.0
N961 N 0.44766 0.52318 0.19364 0.0
C962 C 0.4294 0.50696 0.17284 0.0
C963 C 0.45188 0.49141 0.21928 0.0
C964 C 0.43205 0.47457 0.2003 0.0
C965 C 0.45981 0.51567 0.21492 0.0
C966 C 0.42096 0.48224 0.17596 0.0
H967 H 0.42616 0.45579 0.20341 0.0
O968 O 0.42315 0.5488 0.21264 0.0
O969 O 0.49406 0.58116 0.21266 0.0
O970 O 0.51165 0.5696 0.14684 0.0
O971 O 0.47048 0.54752 0.14333 0.0
O972 O 0.46605 0.55807 0.24399 0.0
O973 O 0.43491 0.57816 0.1745 0.0
O974 O 0.53328 0.64334 0.15933 0.0
O975 O 0.48161 0.58632 0.14037 0.0
O976 O 0.46538 0.60146 0.20439 0.0
O977 O 0.50118 0.62793 0.1778 0.0
O978 O 0.5093 0.60081 0.10625 0.0
O979 O 0.55293 0.62619 0.14251 0.0
C980 C 0.48916 0.57089 0.24441 0.0
C981 C 0.40248 0.46605 0.15358 0.0
C982 C 0.39321 0.47442 0.12715 0.0
C983 C 0.4176 0.56269 0.1947 0.0
C984 C 0.40237 0.57073 0.21121 0.0
C985 C 0.37905 0.5613 0.19838 0.0
C986 C 0.41139 0.58931 0.23624 0.0
C987 C 0.39731 0.59889 0.24816 0.0
C988 C 0.36488 0.57051 0.21031 0.0
C989 C 0.37394 0.58927 0.23494 0.0
C990 C 0.49191 0.55103 0.13525 0.0
C991 C 0.48621 0.58895 0.10572 0.0
C992 C 0.55126 0.64534 0.14084 0.0
C993 C 0.55516 0.65671 0.10528 0.0
C994 C 0.55789 0.67952 0.10212 0.0
C995 C 0.55599 0.64482 1.0742 0.0
C996 C 0.55976 0.65557 1.04036 0.0
C997 C 0.56158 0.6903 1.06844 0.0
C998 C 0.56266 0.67848 1.03768 0.0
C999 C 0.48161 0.62365 0.19501 0.0
H1000 H 0.37197 0.54713 0.17857 0.0
H1001 H 0.42939 0.5964 0.24593 0.0
H1002 H 0.34687 0.56317 0.2003 0.0
H1003 H 0.36246 0.59586 0.2442 0.0
H1004 H 0.55721 0.68898 0.12568 0.0
H1005 H 0.55424 0.62733 1.07629 0.0
H1006 H 0.56373 0.70792 1.0662 0.0
H1007 H 0.56572 0.68718 1.01186 0.0
H1008 H 0.47796 0.16145 0.32146 0.0
H1009 H 0.47944 0.19882 0.30673 0.0
H1010 H 0.54038 0.21861 0.23892 0.0
H1011 H 0.53967 0.18143 0.25536 0.0
H1012 H 0.54741 0.25799 0.26535 0.0
H1013 H 0.45307 0.21545 0.22631 0.0
H1014 H 0.45537 0.20873 0.27214 0.0
H1015 H 0.46686 0.19808 0.2369 0.0
C1016 C 0.49175 0.17359 0.30328 0.0
C1017 C 0.50855 0.16768 0.28967 0.0
C1018 C 0.49243 0.19525 0.29434 0.0
C1019 C 0.5095 0.21211 0.27032 0.0
C1020 C 0.52668 0.20644 0.25719 0.0
H1021 H 0.48066 0.32049 0.17145 0.0
H1022 H 0.48411 0.28599 0.18771 0.0
C1023 C 0.52626 0.18484 0.26667 0.0
C1024 C 0.50949 0.23532 0.25951 0.0
H1025 H 0.47278 0.25738 0.2353 0.0
C1026 C 0.53098 0.25761 0.2586 0.0
C1027 C 0.48846 0.23587 0.24968 0.0
C1028 C 0.46472 0.21323 0.2459 0.0
C1029 C 0.53197 0.27956 0.24909 0.0
C1030 C 0.51073 0.28024 0.24099 0.0
C1031 C 0.48933 0.25787 0.24158 0.0
C1032 C 0.51001 0.30314 0.23021 0.0
C1033 C 0.5562 0.30167 0.24663 0.0
C1034 C 0.5234 0.32563 0.24768 0.0
C1035 C 0.52188 0.34612 0.23741 0.0
C1036 C 0.50635 0.34503 0.20984 0.0
C1037 C 0.49289 0.32259 0.19277 0.0
C1038 C 0.49479 0.30241 0.20241 0.0
H1039 H 0.5704 0.29716 0.24177 0.0
H1040 H 0.55689 0.31357 0.22472 0.0
H1041 H 0.56029 0.31152 0.27243 0.0
H1042 H 0.53475 0.32743 0.27008 0.0
H1043 H 0.53233 0.36265 0.252 0.0
H1044 H 0.30553 0.47076 0.63753 0.0
H1045 H 0.26966 0.47213 0.62282 0.0
H1046 H 0.31259 0.54197 0.57699 0.0
H1047 H 0.34898 0.54115 0.59369 0.0
H1048 H 0.27698 0.54277 0.60467 0.0
H1049 H 0.23312 0.45629 0.53496 0.0
H1050 H 0.23895 0.45231 0.58055 0.0
H1051 H 0.26345 0.46964 0.5503 0.0
C1052 C 0.30763 0.48652 0.62415 0.0
C1053 C 0.33081 0.50572 0.61668 0.0
C1054 C 0.28666 0.48717 0.61519 0.0
C1055 C 0.28745 0.50678 0.5972 0.0
C1056 C 0.31067 0.52628 0.59035 0.0
H1057 H 0.15367 0.48491 0.49207 0.0
H1058 H 0.19162 0.48783 0.50813 0.0
C1059 C 0.3318 0.5258 0.59993 0.0
C1060 C 0.26435 0.50692 0.58628 0.0
H1061 H 0.20818 0.47218 0.55002 0.0
C1062 C 0.26209 0.52727 0.59246 0.0
C1063 C 0.24435 0.48719 0.56952 0.0
C1064 C 0.24516 0.46526 0.55808 0.0
C1065 C 0.24113 0.52832 0.5833 0.0
C1066 C 0.22064 0.50809 0.56819 0.0
C1067 C 0.22311 0.48789 0.56169 0.0
C1068 C 0.19701 0.50743 0.55776 0.0
C1069 C 0.24186 0.55172 0.58896 0.0
C1070 C 0.18603 0.51731 0.57944 0.0
C1071 C 0.16428 0.51626 0.56937 0.0
C1072 C 0.15185 0.50462 0.5377 0.0
C1073 C 0.16241 0.49424 0.51652 0.0
C1074 C 0.18442 0.49582 0.52604 0.0
H1075 H 0.26045 0.56696 0.58851 0.0
H1076 H 0.23153 0.55482 0.56807 0.0
H1077 H 0.23429 0.55167 0.61571 0.0
H1078 H 0.19386 0.52545 0.60489 0.0
H1079 H 0.1567 0.52386 0.58724 0.0
H1080 H 0.82253 0.32082 0.99792 0.0
H1081 H 0.7854 0.28506 0.98202 0.0
H1082 H 0.78064 0.31939 0.88624 0.0
H1083 H 0.81766 0.35614 0.90338 0.0
H1084 H 0.73722 0.29158 0.90516 0.0
H1085 H 0.77448 0.23246 0.92037 0.0
H1086 H 0.77642 0.24699 0.96211 0.0
H1087 H 0.79299 0.26433 0.92364 0.0
C1088 C 0.81381 0.32103 0.97327 0.0
C1089 C 0.82399 0.34195 0.95197 0.0
C1090 C 0.79228 0.30001 0.96379 0.0
C1091 C 0.77976 0.29817 0.93175 0.0
C1092 C 0.78946 0.31938 0.91086 0.0
H1093 H 0.67393 0.15247 0.85136 0.0
H1094 H 0.70869 0.19073 0.86604 0.0
C1095 C 0.81097 0.34073 0.92073 0.0
C1096 C 0.75688 0.2745 0.92075 0.0
H1097 H 0.73219 0.21324 0.91708 0.0
C1098 C 0.73642 0.27461 0.90772 0.0
C1099 C 0.75485 0.25151 0.92277 0.0
C1100 C 0.77593 0.24879 0.93258 0.0
C1101 C 0.71479 0.25338 0.89772 0.0
C1102 C 0.71237 0.23029 0.90156 0.0
C1103 C 0.73299 0.23026 0.91411 0.0
C1104 C 0.68956 0.20625 0.89149 0.0
C1105 C 0.6951 0.25637 0.88178 0.0
C1106 C 0.66591 0.20072 0.90004 0.0
C1107 C 0.6454 0.17838 0.89072 0.0
C1108 C 0.64737 0.16006 0.87321 0.0
C1109 C 0.67097 0.16555 0.86491 0.0
C1110 C 0.69132 0.18787 0.87366 0.0
H1111 H 0.70217 0.27432 0.8696 0.0
H1112 H 0.68519 0.24276 0.86082 0.0
H1113 H 0.6825 0.25463 0.90334 0.0
H1114 H 0.66309 0.21353 0.91457 0.0
H1115 H 0.62787 0.17536 0.89755 0.0
H1116 H 0.49659 0.6656 0.15763 0.0
H1117 H 0.49498 0.70135 0.17374 0.0
H1118 H 0.46111 0.66888 0.2738 0.0
H1119 H 0.46243 0.63276 0.25719 0.0
H1120 H 0.44225 0.69415 0.25489 0.0
H1121 H 0.53789 0.75584 0.23271 0.0
H1122 H 0.52416 0.74017 0.19213 0.0
H1123 H 0.52532 0.72401 0.23074 0.0
C1124 C 0.48863 0.66583 0.18309 0.0
C1125 C 0.47918 0.64545 0.20546 0.0
C1126 C 0.48798 0.68677 0.19269 0.0
C1127 C 0.47845 0.68897 0.22579 0.0
C1128 C 0.46866 0.66844 0.24807 0.0
H1129 H 0.51314 0.83374 0.30674 0.0
H1130 H 0.51192 0.79628 0.29201 0.0
C1131 C 0.46913 0.64731 0.23825 0.0
C1132 C 0.47867 0.71231 0.23678 0.0
H1133 H 0.51379 0.77383 0.23866 0.0
C1134 C 0.45805 0.71148 0.25128 0.0
C1135 C 0.49914 0.73561 0.23348 0.0
C1136 C 0.52293 0.739 0.22182 0.0
C1137 C 0.45713 0.73241 0.2613 0.0
C1138 C 0.47723 0.75579 0.25612 0.0
C1139 C 0.49799 0.75653 0.24243 0.0
C1140 C 0.47755 0.77942 0.26557 0.0
C1141 C 0.43458 0.72892 0.27864 0.0
C1142 C 0.45896 0.78389 0.2558 0.0
C1143 C 0.45955 0.80564 0.26471 0.0
C1144 C 0.47897 0.82441 0.28336 0.0
C1145 C 0.49775 0.82017 0.29246 0.0
C1146 C 0.49705 0.79837 0.28383 0.0
H1147 H 0.42457 0.71119 0.29179 0.0
H1148 H 0.43842 0.74286 0.29908 0.0
H1149 H 0.42286 0.72974 0.25774 0.0
H1150 H 0.44389 0.77063 0.24066 0.0
H1151 H 0.4447 0.80779 0.2566 0.0
H1152 H 0.67339 0.51915 0.62451 0.0
H1153 H 0.70842 0.51596 0.60952 0.0
H1154 H 0.66366 0.44023 0.59484 0.0
H1155 H 0.62828 0.44334 0.6101 0.0
H1156 H 0.72983 0.49368 0.64019 0.0
H1157 H 0.7028 0.4553 0.50413 0.0
H1158 H 0.6871 0.46738 0.52829 0.0
H1159 H 0.68198 0.43814 0.5389 0.0
C1160 C 0.6707 0.50169 0.61795 0.0
C1161 C 0.64736 0.48157 0.61856 0.0
C1162 C 0.69111 0.49987 0.60934 0.0
C1163 C 0.68943 0.4779 0.60023 0.0
C1164 C 0.6661 0.45766 0.60083 0.0
H1165 H 0.80353 0.44389 0.53102 0.0
H1166 H 0.76533 0.44122 0.54736 0.0
C1167 C 0.64559 0.45943 0.60989 0.0
C1168 C 0.71207 0.47651 0.59116 0.0
H1169 H 0.73875 0.45931 0.52635 0.0
C1170 C 0.73159 0.48614 0.61516 0.0
C1171 C 0.71514 0.46655 0.55879 0.0
C1172 C 0.69578 0.45641 0.53082 0.0
C1173 C 0.7532 0.48594 0.60821 0.0
C1174 C 0.75662 0.47666 0.57531 0.0
C1175 C 0.73693 0.46665 0.55152 0.0
C1176 C 0.78046 0.47789 0.56494 0.0
C1177 C 0.77186 0.49509 0.63731 0.0
C1178 C 0.80257 0.49924 0.56843 0.0
C1179 C 0.82455 0.50069 0.55946 0.0
C1180 C 0.82595 0.48108 0.54549 0.0
C1181 C 0.80381 0.45963 0.5415 0.0
C1182 C 0.78164 0.4581 0.55086 0.0
H1183 H 0.76367 0.49295 0.66425 0.0
H1184 H 0.78218 0.48565 0.63722 0.0
H1185 H 0.78432 0.51442 0.63318 0.0
H1186 H 0.80301 0.51524 0.57791 0.0
H1187 H 0.84057 0.51751 0.56372 0.0
H1188 H 0.31618 0.82933 0.83492 0.0
H1189 H 0.28096 0.79179 0.8517 0.0
H1190 H 0.31731 0.78792 0.9458 0.0
H1191 H 0.35336 0.8253 0.92764 0.0
H1192 H 0.29023 0.7446 0.9277 0.0
H1193 H 0.22929 0.78001 0.91575 0.0
H1194 H 0.24307 0.78206 0.87328 0.0
H1195 H 0.26101 0.79898 0.91114 0.0
C1196 C 0.31692 0.82057 0.8592 0.0
C1197 C 0.3382 0.83085 0.87958 0.0
C1198 C 0.29627 0.79888 0.86927 0.0
C1199 C 0.29524 0.78651 0.90112 0.0
C1200 C 0.31677 0.79652 0.92122 0.0
H1201 H 0.15154 0.67849 0.98561 0.0
H1202 H 0.18941 0.71393 0.9708 0.0
C1203 C 0.33772 0.81811 0.91068 0.0
C1204 C 0.27209 0.76346 0.91291 0.0
H1205 H 0.21083 0.73773 0.9189 0.0
C1206 C 0.27296 0.74335 0.9258 0.0
C1207 C 0.24888 0.76097 0.91192 0.0
C1208 C 0.2455 0.78174 0.90269 0.0
C1209 C 0.25214 0.72156 0.93644 0.0
C1210 C 0.22879 0.71863 0.93337 0.0
C1211 C 0.22806 0.73893 0.92115 0.0
C1212 C 0.20518 0.69554 0.94377 0.0
C1213 C 0.2558 0.70224 0.95222 0.0
C1214 C 0.20002 0.67215 0.9343 0.0
C1215 C 0.17805 0.65133 0.94378 0.0
C1216 C 0.15968 0.65272 0.96231 0.0
C1217 C 0.16475 0.67605 0.97142 0.0
C1218 C 0.18679 0.69674 0.96259 0.0
H1219 H 0.2739 0.70971 0.96401 0.0
H1220 H 0.24247 0.6922 0.97344 0.0
H1221 H 0.2541 0.68965 0.93065 0.0
H1222 H 0.21278 0.66977 0.91879 0.0
H1223 H 0.17534 0.63407 0.93592 0.0
H1224 H 0.62702 0.18917 0.95515 0.0
H1225 H 0.65784 0.2282 0.97752 0.0
H1226 H 0.60724 0.2276 1.05364 0.0
H1227 H 0.57648 0.18957 1.03 0.0
H1228 H 0.64429 0.27588 1.0347 0.0
H1229 H 0.68653 0.2226 1.06961 0.0
H1230 H 0.68308 0.22951 1.02399 0.0
H1231 H 0.65818 0.20581 1.04751 0.0
C1232 C 0.62234 0.19798 0.9755 0.0
C1233 C 0.59954 0.18624 0.99122 0.0
C1234 C 0.63999 0.22021 0.98844 0.0
C1235 C 0.63507 0.23076 1.01768 0.0
C1236 C 0.61158 0.22002 1.03092 0.0
H1237 H 0.5796 0.21963 0.15453 0.0
H1238 H 0.61117 0.25125 0.12132 0.0
C1239 C 0.59403 0.19802 1.01783 0.0
C1240 C 0.65425 0.24891 1.04073 0.0
H1241 H 0.67289 0.23644 0.118 0.0
C1242 C 0.65161 0.26804 1.05267 0.0
C1243 C 0.66652 0.24112 1.06328 0.0
C1244 C 0.67409 0.22385 1.05043 0.0
C1245 C 0.65357 0.27357 0.08943 0.0
C1246 C 0.65671 0.25859 0.11367 0.0
C1247 C 0.66757 0.24605 0.10007 0.0
C1248 C 0.63986 0.24728 0.14454 0.0
C1249 C 0.6491 0.29303 0.10226 0.0
C1250 C 0.64468 0.23489 0.17121 0.0
C1251 C 0.62597 0.21521 0.18847 0.0
C1252 C 0.6021 0.20829 0.18073 0.0
C1253 C 0.59765 0.22352 0.15955 0.0
C1254 C 0.61617 0.24245 0.14118 0.0
H1255 H 0.66247 0.31019 0.08996 0.0
H1256 H 0.6313 0.28944 0.09313 0.0
H1257 H 0.65034 0.29495 0.13192 0.0
H1258 H 0.66272 0.23861 0.17578 0.0
H1259 H 0.63032 0.20434 0.20529 0.0
H1260 H 0.39128 0.63793 0.2521 0.0
H1261 H 0.40057 0.66494 0.30339 0.0
H1262 H 0.43297 0.62948 0.35743 0.0
H1263 H 0.42348 0.60251 0.30721 0.0
H1264 H 0.38067 0.64874 0.36708 0.0
H1265 H 0.47702 0.69666 0.38891 0.0
H1266 H 0.46416 0.68507 0.34528 0.0
H1267 H 0.46867 0.6667 0.37707 0.0
C1268 C 0.40075 0.63623 0.27476 0.0
C1269 C 0.40639 0.61789 0.27583 0.0
C1270 C 0.40629 0.65185 0.30378 0.0
C1271 C 0.41783 0.64955 0.334 0.0
C1272 C 0.42477 0.6322 0.33399 0.0
H1273 H 0.38439 0.59795 0.52045 0.0
H1274 H 0.38427 0.61639 0.46386 0.0
C1275 C 0.41915 0.61658 0.30525 0.0
C1276 C 0.41844 0.66126 0.36838 0.0
H1277 H 0.45211 0.67665 0.44402 0.0
C1278 C 0.39651 0.65589 0.38371 0.0
C1279 C 0.43912 0.67164 0.38994 0.0
C1280 C 0.46358 0.6806 0.37416 0.0
C1281 C 0.39408 0.65643 0.421 0.0
C1282 C 0.41391 0.66188 0.44303 0.0
C1283 C 0.4366 0.67153 0.42729 0.0
C1284 C 0.41078 0.65227 0.47991 0.0
C1285 C 0.36985 0.64907 0.43645 0.0
C1286 C 0.4258 0.66617 0.50793 0.0
C1287 C 0.42629 0.65544 0.54019 0.0
C1288 C 0.41187 0.63064 0.54479 0.0
C1289 C 0.39593 0.61704 0.51749 0.0
C1290 C 0.39551 0.6277 0.48533 0.0
H1291 H 0.36076 0.65644 0.42002 0.0
H1292 H 0.35861 0.62935 0.43561 0.0
H1293 H 0.37105 0.65522 0.46461 0.0
H1294 H 0.43795 0.68507 0.5042 0.0
H1295 H 0.43888 0.66637 0.56072 0.0
H1296 H 0.78125 0.4071 0.90078 0.0
H1297 H 0.76726 0.40431 0.83936 0.0
H1298 H 0.73178 0.32754 0.84487 0.0
H1299 H 0.74664 0.3303 0.90572 0.0
H1300 H 0.76346 0.3451 0.79195 0.0
H1301 H 0.7132 0.37653 0.82613 0.0
H1302 H 0.70699 0.38635 0.78424 0.0
H1303 H 0.73424 0.40521 0.8077 0.0
C1304 C 0.77027 0.3896 0.88908 0.0
C1305 C 0.76554 0.36888 0.90789 0.0
C1306 C 0.76185 0.38802 0.85418 0.0
C1307 C 0.74824 0.3657 0.83764 0.0
C1308 C 0.74208 0.34494 0.85724 0.0
H1309 H 0.75198 0.34759 0.60655 0.0
H1310 H 0.73294 0.33819 0.66542 0.0
C1311 C 0.75062 0.34654 0.89204 0.0
C1312 C 0.7446 0.36434 0.79837 0.0
H1313 H 0.72809 0.38747 0.72933 0.0
C1314 C 0.7551 0.35375 0.7782 0.0
C1315 C 0.73384 0.37579 0.78059 0.0
C1316 C 0.72122 0.38639 0.80087 0.0
C1317 C 0.75681 0.35585 0.74085 0.0
C1318 C 0.74714 0.36838 0.72308 0.0
C1319 C 0.73539 0.37781 0.74304 0.0
C1320 C 0.75222 0.37456 0.68473 0.0
C1321 C 0.77061 0.34621 0.72113 0.0
C1322 C 0.76773 0.39838 0.67519 0.0
C1323 C 0.77828 0.40391 0.64131 0.0
C1324 C 0.77367 0.38564 0.61666 0.0
C1325 C 0.75606 0.3621 0.62494 0.0
C1326 C 0.74525 0.35664 0.65868 0.0
H1327 H 0.78359 0.3597 0.70221 0.0
H1328 H 0.7805 0.34088 0.73971 0.0
H1329 H 0.75806 0.33023 0.70544 0.0
H1330 H 0.77312 0.41251 0.69485 0.0
H1331 H 0.79119 0.42232 0.63526 0.0
H1332 H 0.36164 0.79436 0.94514 0.0
H1333 H 0.33241 0.7541 0.9656 0.0
H1334 H 0.38098 0.76013 1.04959 0.0
H1335 H 0.4097 0.79985 1.02936 0.0
H1336 H 0.34786 0.71014 1.02893 0.0
H1337 H 0.30283 0.74869 1.00906 0.0
H1338 H 0.32447 0.77464 1.03342 0.0
H1339 H 0.29603 0.7548 1.05349 0.0
C1340 C 0.36618 0.78673 0.96738 0.0
C1341 C 0.38747 0.80051 0.98665 0.0
C1342 C 0.34953 0.76366 0.9789 0.0
C1343 C 0.35418 0.75412 1.0096 0.0
C1344 C 0.37678 0.76691 1.02585 0.0
H1345 H 0.41131 0.77715 0.14363 0.0
H1346 H 0.38159 0.74309 0.11157 0.0
C1347 C 0.39316 0.78986 1.01464 0.0
C1348 C 0.33477 0.73485 1.03099 0.0
H1349 H 0.31508 0.74916 0.10557 0.0
C1350 C 0.33947 0.71763 1.04551 0.0
C1351 C 0.32088 0.74158 1.05185 0.0
C1352 C 0.31035 0.75564 1.03605 0.0
C1353 C 0.33884 0.71459 0.08292 0.0
C1354 C 0.3343 0.72977 0.10481 0.0
C1355 C 0.3213 0.73952 0.08926 0.0
C1356 C 0.35099 0.74374 0.13466 0.0
C1357 C 0.34624 0.6979 0.09859 0.0
C1358 C 0.3445 0.75539 0.16047 0.0
C1359 C 0.36198 0.77606 0.17763 0.0
C1360 C 0.38629 0.78506 0.1701 0.0
C1361 C 0.39274 0.7713 0.14884 0.0
C1362 C 0.3754 0.75112 0.13106 0.0
H1363 H 0.33429 0.67961 0.08818 0.0
H1364 H 0.36458 0.70314 0.08971 0.0
H1365 H 0.34537 0.69753 0.12836 0.0
H1366 H 0.32593 0.74995 0.16479 0.0
H1367 H 0.3563 0.78596 0.19439 0.0
H1368 H 0.61229 0.42058 0.29693 0.0
H1369 H 0.63755 0.40704 0.32453 0.0
H1370 H 0.57554 0.3503 0.37703 0.0
H1371 H 0.55043 0.36257 0.34742 0.0
H1372 H 0.64542 0.41435 0.38791 0.0
H1373 H 0.61385 0.32019 0.38461 0.0
H1374 H 0.60607 0.3337 0.34864 0.0
H1375 H 0.58634 0.32018 0.38667 0.0
C1376 C 0.60397 0.4045 0.31296 0.0
C1377 C 0.5795 0.39313 0.32115 0.0
C1378 C 0.61845 0.39674 0.32876 0.0
C1379 C 0.60875 0.37777 0.35343 0.0
C1380 C 0.58382 0.36472 0.35786 0.0
H1381 H 0.5665 0.3694 0.51897 0.0
H1382 H 0.58438 0.36273 0.46589 0.0
C1383 C 0.56936 0.37217 0.3416 0.0
C1384 C 0.62392 0.37608 0.38192 0.0
H1385 H 0.61132 0.33648 0.44963 0.0
C1386 C 0.63906 0.3972 0.4007 0.0
C1387 C 0.6174 0.35403 0.39853 0.0
C1388 C 0.60525 0.33084 0.3781 0.0
C1389 C 0.64217 0.39672 0.43779 0.0
C1390 C 0.62971 0.3747 0.45593 0.0
C1391 C 0.61989 0.35351 0.43586 0.0
C1392 C 0.6186 0.37404 0.49085 0.0
C1393 C 0.65525 0.41995 0.45802 0.0
C1394 C 0.63182 0.38228 0.52271 0.0
C1395 C 0.6215 0.38613 0.55323 0.0
C1396 C 0.59807 0.38208 0.55182 0.0
C1397 C 0.58466 0.37286 0.52046 0.0
C1398 C 0.59478 0.36877 0.49036 0.0
H1399 H 0.66603 0.43527 0.43992 0.0
H1400 H 0.64229 0.42335 0.47259 0.0
H1401 H 0.66727 0.41883 0.47804 0.0
H1402 H 0.65027 0.38663 0.52351 0.0
H1403 H 0.63209 0.39324 0.57732 0.0
H1404 H 0.22326 0.64748 0.86495 0.0
H1405 H 0.25651 0.65263 0.82701 0.0
H1406 H 0.21455 0.57922 0.79295 0.0
H1407 H 0.18231 0.5738 0.83207 0.0
H1408 H 0.26278 0.59536 0.78401 0.0
H1409 H 0.25849 0.66793 0.77053 0.0
H1410 H 0.22693 0.64776 0.76514 0.0
H1411 H 0.24483 0.66428 0.72737 0.0
C1412 C 0.22164 0.63229 0.85025 0.0
C1413 C 0.20007 0.61039 0.85062 0.0
C1414 C 0.24059 0.63526 0.82852 0.0
C1415 C 0.23776 0.61662 0.80593 0.0
C1416 C 0.2173 0.594 0.8099 0.0
H1417 H 0.17608 0.53669 0.68535 0.0
H1418 H 0.21537 0.55758 0.7107 0.0
C1419 C 0.19868 0.59089 0.83216 0.0
C1420 C 0.25187 0.6211 0.77245 0.0
H1421 H 0.24144 0.63453 0.68912 0.0
C1422 C 0.2591 0.60464 0.76305 0.0
C1423 C 0.24932 0.63457 0.7447 0.0
C1424 C 0.24465 0.65477 0.75223 0.0
C1425 C 0.25728 0.59689 0.72735 0.0
C1426 C 0.24723 0.60525 0.70155 0.0
C1427 C 0.24718 0.62648 0.70928 0.0
C1428 C 0.22874 0.58853 0.67568 0.0
C1429 C 0.26349 0.57797 0.71851 0.0
C1430 C 0.22293 0.59751 0.64537 0.0
C1431 C 0.19949 0.58616 0.6325 0.0
C1432 C 0.18176 0.565 0.64865 0.0
C1433 C 0.18888 0.55369 0.67378 0.0
C1434 C 0.21195 0.56547 0.68761 0.0
H1435 H 0.28203 0.58405 0.72727 0.0
H1436 H 0.2517 0.56143 0.73371 0.0
H1437 H 0.26198 0.57393 0.68933 0.0
H1438 H 0.23562 0.61483 0.63459 0.0
H1439 H 0.19501 0.59528 0.61239 0.0
H1440 H 0.44088 0.97708 0.91982 0.0
H1441 H 0.45134 -0.00013 0.97631 0.0
H1442 H 0.41611 0.93425 1.03544 0.0
H1443 H 0.40579 0.91156 0.97877 0.0
H1444 H 0.4342 0.01112 1.0331 0.0
H1445 H 0.47114 0.96105 0.09988 0.0
H1446 H 0.46404 0.9573 1.05261 0.0
H1447 H 0.44088 0.94266 0.08573 0.0
C1448 C 0.4348 0.96717 0.94465 0.0
C1449 C 0.42135 0.94169 0.94259 0.0
C1450 C 0.44113 0.98061 0.97801 0.0
C1451 C 0.43548 0.96989 1.01281 0.0
C1452 C 0.42192 0.9443 1.01076 0.0
H1453 H 0.4749 0.02511 0.24689 0.0
H1454 H 0.46009 0.00191 0.19121 0.0
C1455 C 0.41533 0.93084 0.97727 0.0
C1456 C 0.44366 0.98524 1.04976 0.0
H1457 H 0.46886 0.98979 0.13459 0.0
C1458 C 0.44182 0.00612 1.05493 0.0
C1459 C 0.45377 0.98009 1.08055 0.0
C1460 C 0.45784 0.95921 1.07953 0.0
C1461 C 0.44861 0.02051 0.08771 0.0
C1462 C 0.45926 0.01569 0.11829 0.0
C1463 C 0.4611 0.99478 0.11299 0.0
C1464 C 0.46808 0.03123 0.15517 0.0
C1465 C 0.44294 0.04036 0.0893 0.0
C1466 C 0.47835 0.05667 0.15752 0.0
C1467 C 0.48653 0.07029 0.19074 0.0
C1468 C 0.4854 0.05987 0.22497 0.0
C1469 C 0.47578 0.03464 0.22259 0.0
C1470 C 0.4673 0.02098 0.18954 0.0
H1471 H 0.4281 0.03696 1.07087 0.0
H1472 H 0.43781 0.04263 0.11682 0.0
H1473 H 0.45882 0.05724 1.08067 0.0
H1474 H 0.48102 0.0667 0.13319 0.0
H1475 H 0.49439 0.08942 0.18916 0.0
H1476 H 0.47934 0.40163 0.30596 0.0
H1477 H 0.46491 0.41068 0.36174 0.0
H1478 H 0.4609 0.46682 0.30685 0.0
H1479 H 0.47238 0.45571 0.25116 0.0
H1480 H 0.47029 0.43448 0.41298 0.0
H1481 H 0.40748 0.45872 0.3562 0.0
H1482 H 0.42003 0.44487 0.32901 0.0
H1483 H 0.43613 0.47686 0.33628 0.0
C1484 C 0.4739 0.41489 0.30489 0.0
C1485 C 0.47558 0.42627 0.27135 0.0
C1486 C 0.46601 0.42079 0.33806 0.0
C1487 C 0.46 0.43929 0.34115 0.0
C1488 C 0.46312 0.45142 0.30777 0.0
H1489 H 0.45028 0.48623 0.57514 0.0
H1490 H 0.46185 0.47505 0.51972 0.0
C1491 C 0.47028 0.44507 0.27468 0.0
C1492 C 0.45189 0.44639 0.37832 0.0
H1493 H 0.42017 0.472 0.41528 0.0
C1494 C 0.45913 0.44251 0.41266 0.0
C1495 C 0.43656 0.4566 0.38143 0.0
C1496 C 0.42436 0.45926 0.34886 0.0
C1497 C 0.45237 0.44821 0.4471 0.0
C1498 C 0.43851 0.46007 0.45011 0.0
C1499 C 0.43102 0.46365 0.41574 0.0
C1500 C 0.43119 0.46814 0.48719 0.0
C1501 C 0.45956 0.43995 0.48006 0.0
C1502 C 0.41066 0.47098 0.49102 0.0
C1503 C 0.4045 0.47896 0.52386 0.0
C1504 C 0.41749 0.48363 0.55664 0.0
C1505 C 0.43827 0.48152 0.55253 0.0
C1506 C 0.44495 0.47448 0.51957 0.0
H1507 H 0.46217 0.42462 0.47398 0.0
H1508 H 0.47683 0.45464 0.49011 0.0
H1509 H 0.44585 0.43428 0.50144 0.0
H1510 H 0.39914 0.46741 0.46811 0.0
H1511 H 0.38987 0.48244 0.52282 0.0
H1512 H 0.06527 0.47319 0.63318 0.0
H1513 H 0.04071 0.45761 0.68765 0.0
H1514 H 0.98889 0.4721 0.64019 0.0
H1515 H 0.01138 0.48353 0.58493 0.0
H1516 H 0.02404 0.45843 0.7418 0.0
H1517 H 0.93551 0.4245 0.68293 0.0
H1518 H 0.96092 0.43255 0.655 0.0
H1519 H 0.95377 0.45493 0.67009 0.0
C1520 C 0.04777 0.47135 0.63307 0.0
C1521 C 0.0402 0.47802 0.60136 0.0
C1522 C 0.03345 0.46289 0.66576 0.0
C1523 C 0.01075 0.46157 0.67064 0.0
C1524 C 0.00438 0.47009 0.6395 0.0
H1525 H 0.95571 0.43688 0.9089 0.0
H1526 H 0.97966 0.44922 0.85502 0.0
C1527 C 0.0181 0.47744 0.60661 0.0
C1528 C -0.00502 0.45275 0.70747 0.0
H1529 H 0.93829 0.43235 0.74457 0.0
C1530 C 0.0052 0.45252 0.7414 0.0
C1531 C 0.96956 0.44374 0.71058 0.0
C1532 C 0.95423 0.43864 0.67772 0.0
C1533 C -0.00786 0.44455 0.77532 0.0
C1534 C 0.96721 0.43764 0.77888 0.0
C1535 C 0.95698 0.43765 0.7449 0.0
C1536 C 0.95148 0.43004 0.81573 0.0
C1537 C 0.00574 0.44285 0.80677 0.0
C1538 C 0.92593 0.4158 0.81627 0.0
C1539 C 0.91147 0.4098 0.8486 0.0
C1540 C 0.92096 0.41631 0.88406 0.0
C1541 C 0.94642 0.43038 0.88379 0.0
C1542 C 0.96085 0.43726 0.85138 0.0
H1543 H 0.02101 0.44083 0.7979 0.0
H1544 H 0.01318 0.45955 0.8227 0.0
H1545 H -0.00586 0.42735 0.82402 0.0
H1546 H 0.91652 0.4092 0.79118 0.0
H1547 H 0.89228 0.39988 0.84555 0.0
H1548 H 0.50156 0.96226 0.24064 0.0
H1549 H 0.51576 0.98509 0.18465 0.0
H1550 H 0.51294 0.92436 0.13322 0.0
H1551 H 0.4976 0.90129 0.18888 0.0
H1552 H 0.54885 0.00602 0.14018 0.0
H1553 H 0.488 0.93524 1.04753 0.0
H1554 H 0.48472 0.93112 0.09537 0.0
H1555 H 0.50701 0.92754 1.07171 0.0
C1556 C 0.50416 0.95351 0.21773 0.0
C1557 C 0.49882 0.92936 0.22194 0.0
C1558 C 0.51246 0.96699 0.18453 0.0
C1559 C 0.5157 0.95754 0.1516 0.0
C1560 C 0.51049 0.93331 0.15588 0.0
H1561 H 0.55345 0.0141 0.91681 0.0
H1562 H 0.54344 0.9913 0.97297 0.0
C1563 C 0.50209 0.91978 0.18922 0.0
C1564 C 0.52439 0.97293 0.11456 0.0
H1565 H 0.51696 0.97096 1.02114 0.0
C1566 C 0.54148 -0.00211 0.11444 0.0
C1567 C 0.51618 0.96398 1.07872 0.0
C1568 C 0.49785 0.93809 1.07311 0.0
C1569 C 0.55036 0.01289 0.0824 0.0
C1570 C 0.54158 0.00418 1.0466 0.0
C1571 C 0.52447 0.97915 1.04676 0.0
C1572 C 0.54977 0.01992 1.0097 0.0
C1573 C 0.57038 0.03808 0.08799 0.0
C1574 C 0.55745 0.04493 1.00728 0.0
C1575 C 0.56442 0.05861 0.97407 0.0
C1576 C 0.5642 0.04876 0.93964 0.0
C1577 C 0.55564 0.02367 0.94164 0.0
C1578 C 0.54922 0.01007 0.97492 0.0
H1579 H 0.58051 0.03974 0.11288 0.0
H1580 H 0.58311 0.0442 1.06519 0.0
H1581 H 0.56284 0.05003 0.09095 0.0
H1582 H 0.55728 0.05429 1.03111 0.0
H1583 H 0.56919 0.07717 0.9754 0.0
H1584 H 0.59612 0.51792 0.52726 0.0
H1585 H 0.58636 0.53332 0.47365 0.0
H1586 H 0.51631 0.50867 0.51668 0.0
H1587 H 0.52777 0.49764 0.57179 0.0
H1588 H 0.56813 0.52975 0.41786 0.0
H1589 H 0.50651 0.55496 0.47743 0.0
H1590 H 0.5249 0.54831 0.5053 0.0
H1591 H 0.49667 0.52457 0.48811 0.0
C1592 C 0.5795 0.51787 0.52727 0.0
C1593 C 0.56416 0.50828 0.55778 0.0
C1594 C 0.57313 0.52597 0.49472 0.0
C1595 C 0.55031 0.52417 0.48872 0.0
C1596 C 0.53464 0.51305 0.51853 0.0
H1597 H 0.49195 0.58498 0.31661 0.0
H1598 H 0.50717 0.57538 0.37026 0.0
C1599 C 0.54136 0.50599 0.5513 0.0
C1600 C 0.54279 0.53246 0.45204 0.0
H1601 H 0.50377 0.54941 0.41519 0.0
C1602 C 0.55409 0.53416 0.41823 0.0
C1603 C 0.52478 0.5394 0.44902 0.0
C1604 C 0.5127 0.542 0.4819 0.0
C1605 C 0.54837 0.54167 0.38445 0.0
C1606 C 0.52925 0.54697 0.38109 0.0
C1607 C 0.51812 0.54546 0.41491 0.0
C1608 C 0.521 0.55467 0.34461 0.0
C1609 C 0.56422 0.54485 0.35289 0.0
C1610 C 0.52291 0.54753 0.30873 0.0
C1611 C 0.51488 0.5543 0.2767 0.0
C1612 C 0.50375 0.56856 0.27732 0.0
C1613 C 0.50115 0.57505 0.31301 0.0
C1614 C 0.50977 0.56891 0.34486 0.0
H1615 H 0.58195 0.548 0.36163 0.0
H1616 H 0.55588 0.52833 0.33647 0.0
H1617 H 0.56711 0.56017 0.33603 0.0
H1618 H 0.52982 0.53564 0.30479 0.0
H1619 H 0.51661 0.54733 0.25117 0.0
H1620 H 0.07666 0.59178 0.85826 0.0
H1621 H 0.05331 0.58219 0.80207 0.0
H1622 H -0.00792 0.52758 0.85726 0.0
H1623 H 0.01511 0.53782 0.91324 0.0
H1624 H 0.01243 0.58085 0.77099 0.0
H1625 H 0.99127 0.48782 0.77371 0.0
H1626 H 0.9792 0.49437 0.81259 0.0
H1627 H 0.01105 0.50896 0.80623 0.0
C1628 C 0.05797 0.57837 0.85926 0.0
C1629 C 0.04819 0.56681 0.89274 0.0
C1630 C 0.0443 0.5724 0.82604 0.0
C1631 C 0.01997 0.5536 0.82299 0.0
C1632 C 0.01041 0.54197 0.85646 0.0
H1633 H 0.9524 0.48586 0.60656 0.0
H1634 H 0.97508 0.50032 0.66225 0.0
C1635 C 0.0239 0.5482 0.88957 0.0
C1636 C 0.00507 0.54577 0.78594 0.0
H1637 H 0.96977 0.49669 0.73088 0.0
C1638 C 0.00317 0.5623 0.76278 0.0
C1639 C -0.00756 0.52171 0.77241 0.0
C1640 C -0.0063 0.5022 0.79233 0.0
C1641 C 0.98954 0.55582 0.72934 0.0
C1642 C 0.97644 0.53161 0.71629 0.0
C1643 C 0.97883 0.51524 0.7391 0.0
C1644 C 0.96144 0.52307 0.67928 0.0
C1645 C 0.99004 0.57558 0.7075 0.0
C1646 C 0.94485 0.53009 0.6668 0.0
C1647 C 0.9311 0.52133 0.63366 0.0
C1648 C 0.93308 0.50509 0.60982 0.0
C1649 C 0.94968 0.49829 0.62247 0.0
C1650 C 0.96305 0.50672 0.65547 0.0
H1651 H 0.00552 0.59322 0.71461 0.0
H1652 H 0.99083 0.57246 0.67836 0.0
H1653 H 0.97356 0.57627 0.71285 0.0
H1654 H 0.9418 0.54205 0.68327 0.0
H1655 H 0.91849 0.52707 0.62722 0.0
H1656 H 0.47242 0.04797 0.4109 0.0
H1657 H 0.47877 0.03988 0.47076 0.0
H1658 H 0.54288 0.04015 0.43628 0.0
H1659 H 0.53704 0.05027 0.37627 0.0
H1660 H 0.47722 0.01748 0.51831 0.0
H1661 H 0.55656 0.02516 0.52873 0.0
H1662 H 0.55709 0.05133 0.51074 0.0
H1663 H 0.56318 0.03224 0.48228 0.0
C1664 C 0.48754 0.04568 0.41557 0.0
C1665 C 0.5038 0.04909 0.38808 0.0
C1666 C 0.49156 0.04145 0.45069 0.0
C1667 C 0.51104 0.03845 0.45948 0.0
C1668 C 0.52739 0.04188 0.43162 0.0
H1669 H 0.51317 0.97606 0.35561 0.0
H1670 H 0.51987 -0.00371 0.41259 0.0
C1671 C 0.52374 0.04701 0.39651 0.0
C1672 C 0.51115 0.02709 0.49492 0.0
H1673 H 0.52886 0.98803 0.47431 0.0
C1674 C 0.48804 0.01081 0.50682 0.0
C1675 C 0.52621 0.01733 0.49663 0.0
C1676 C 0.55226 0.0326 0.50497 0.0
C1677 C 0.47714 0.98801 0.49097 0.0
C1678 C 0.49241 0.9814 0.47295 0.0
C1679 C 0.51683 0.99414 0.48275 0.0
C1680 C 0.4864 0.96962 0.43701 0.0
C1681 C 0.45034 0.97336 0.49038 0.0
C1682 C 0.46449 0.9491 0.42954 0.0
C1683 C 0.46045 0.93798 0.39613 0.0
C1684 C 0.4786 0.94665 0.37001 0.0
C1685 C 0.4993 0.96851 0.37578 0.0
C1686 C 0.50316 0.97987 0.40884 0.0
H1687 H 0.44201 0.98113 0.50772 0.0
H1688 H 0.44372 0.97239 0.46264 0.0
H1689 H 0.44445 0.95509 0.50014 0.0
H1690 H 0.45116 0.94023 0.45002 0.0
H1691 H 0.44412 0.9211 0.39254 0.0
H1692 H 0.47843 0.52384 0.68336 0.0
H1693 H 0.49972 0.53513 0.73941 0.0
H1694 H 0.43845 0.4781 0.79333 0.0
H1695 H 0.41783 0.46643 0.73677 0.0
H1696 H 0.49757 0.55414 0.8015 0.0
H1697 H 0.47784 0.46948 0.85881 0.0
H1698 H 0.46491 0.46325 0.81473 0.0
H1699 H 0.45522 0.47701 0.84789 0.0
C1700 C 0.46986 0.51326 0.70696 0.0
C1701 C 0.44629 0.49459 0.7055 0.0
C1702 C 0.48185 0.51993 0.73959 0.0
C1703 C 0.47065 0.50798 0.77182 0.0
C1704 C 0.44785 0.4878 0.76958 0.0
H1705 H 0.5554 0.54412 0.68541 0.0
H1706 H 0.55238 0.55558 0.74587 0.0
C1707 C 0.436 0.48092 0.73667 0.0
C1708 C 0.48387 0.51606 0.80653 0.0
H1709 H 0.51852 0.49368 0.83445 0.0
C1710 C 0.50168 0.54031 0.80805 0.0
C1711 C 0.48951 0.50026 0.82456 0.0
C1712 C 0.47077 0.47613 0.83736 0.0
C1713 C 0.52553 0.54565 0.8077 0.0
C1714 C 0.52947 0.52614 0.80473 0.0
C1715 C 0.51373 0.50676 0.8262 0.0
C1716 C 0.53275 0.5194 0.76709 0.0
C1717 C 0.54543 0.57107 0.80657 0.0
C1718 C 0.52119 0.49516 0.75599 0.0
C1719 C 0.52318 0.48883 0.72093 0.0
C1720 C 0.53775 0.50634 0.69635 0.0
C1721 C 0.54579 0.53025 0.70503 0.0
C1722 C 0.54421 0.5368 0.7402 0.0
H1723 H 0.54472 0.58031 0.83124 0.0
H1724 H 0.56311 0.57231 0.80477 0.0
H1725 H 0.54296 0.58041 0.78346 0.0
H1726 H 0.51076 0.48062 0.77421 0.0
H1727 H 0.51523 0.47011 0.71424 0.0
H1728 H 0.94713 0.48195 1.05497 0.0
H1729 H 0.96653 0.49801 0.1124 0.0
H1730 H 0.95118 0.42764 0.14468 0.0
H1731 H 0.93534 0.41275 0.08592 0.0
H1732 H 0.9616 0.49733 0.18209 0.0
H1733 H 0.01206 0.45065 0.18331 0.0
H1734 H -0.00586 0.4424 0.14347 0.0
H1735 H 0.98011 0.43589 0.18724 0.0
C1736 C 0.94856 0.47019 1.07415 0.0
C1737 C 0.94057 0.44641 1.06537 0.0
C1738 C 0.95914 0.47912 0.10754 0.0
C1739 C 0.96092 0.46414 0.13354 0.0
C1740 C 0.95132 0.43999 0.12525 0.0
H1741 H 0.03862 0.57289 1.07659 0.0
H1742 H 0.03041 0.55956 0.13727 0.0
C1743 C 0.94208 0.43144 0.09128 0.0
C1744 C 0.97587 0.47481 0.16625 0.0
H1745 H 0.03467 0.49251 0.16855 0.0
C1746 C 0.97753 0.49599 0.17906 0.0
C1747 C -0.00357 0.47262 0.17121 0.0
C1748 C -0.00439 0.44903 0.17136 0.0
C1749 C -1e-05 0.51678 0.17932 0.0
C1750 C 0.01936 0.51525 0.16469 0.0
C1751 C 0.01869 0.49369 0.17201 0.0
C1752 C 0.02778 0.52524 0.12764 0.0
C1753 C 0.00221 0.53982 0.19181 0.0
C1754 C 0.02983 0.51111 0.10019 0.0
C1755 C 0.03547 0.51931 1.06493 0.0
C1756 C 0.0387 0.54162 1.0556 0.0
C1757 C 0.0356 0.55525 0.08226 0.0
C1758 C 0.03094 0.54754 0.11777 0.0
H1759 H 0.99132 0.5368 0.21637 0.0
H1760 H 0.02104 0.55333 0.19775 0.0
H1761 H -0.00497 0.54659 0.17081 0.0
H1762 H 0.02712 0.49352 0.10549 0.0
H1763 H 0.03816 0.50855 1.04523 0.0
H1764 H 0.0352 0.46196 0.41543 0.0
H1765 H 0.02777 0.46533 0.35339 0.0
H1766 H 0.0241 0.52874 0.37792 0.0
H1767 H 0.03429 0.52665 0.43964 0.0
H1768 H -0.00174 0.45783 0.31239 0.0
H1769 H 0.02652 0.54741 0.28228 0.0
H1770 H 0.04699 0.53643 0.28955 0.0
H1771 H 0.03971 0.55018 0.32555 0.0
C1772 C 0.0326 0.47656 0.40786 0.0
C1773 C 0.03491 0.49384 0.43299 0.0
C1774 C 0.02878 0.47873 0.37169 0.0
C1775 C 0.02548 0.49733 0.35947 0.0
C1776 C 0.02717 0.51437 0.38508 0.0
H1777 H 0.95036 0.46584 0.45236 0.0
H1778 H 0.96552 0.46285 0.39413 0.0
C1779 C 0.03215 0.51279 0.42115 0.0
C1780 C 0.01543 0.49581 0.32254 0.0
H1781 H 0.98793 0.52784 0.32244 0.0
C1782 C -0.00415 0.47314 0.31504 0.0
C1783 C 0.01188 0.51467 0.31225 0.0
C1784 C 0.03248 0.53849 0.30168 0.0
C1785 C 0.97313 0.46945 0.32346 0.0
C1786 C 0.97148 0.48969 0.33362 0.0
C1787 C 0.98954 0.51203 0.32058 0.0
C1788 C 0.95976 0.48967 0.36804 0.0
C1789 C 0.95256 0.44434 0.32676 0.0
C1790 C 0.9533 0.507 0.3745 0.0
C1791 C 0.94674 0.5101 0.40878 0.0
C1792 C 0.94511 0.49503 0.4372 0.0
C1793 C 0.95149 0.47769 0.43104 0.0
C1794 C 0.9593 0.47543 0.3971 0.0
H1795 H 0.94858 0.43564 0.3 0.0
H1796 H 0.95752 0.43379 0.34456 0.0
H1797 H 0.93631 0.44376 0.33739 0.0
H1798 H 0.95365 0.51846 0.35318 0.0
H1799 H 0.94178 0.52362 0.41235 0.0
H1800 H 0.47587 0.95537 0.78232 0.0
H1801 H 0.48958 0.96965 0.72219 0.0
H1802 H 0.42106 0.96218 0.69642 0.0
H1803 H 0.40827 0.94986 0.75728 0.0
H1804 H 0.48076 0.957 0.65211 0.0
H1805 H 0.45473 0.02535 0.65684 0.0
H1806 H 0.44855 0.01027 0.69919 0.0
H1807 H 0.43313 0.99399 0.65953 0.0
C1808 C 0.46408 0.95754 0.76414 0.0
C1809 C 0.4414 0.95235 0.77525 0.0
C1810 C 0.47158 0.96512 0.72915 0.0
C1811 C 0.45645 0.96742 0.70403 0.0
C1812 C 0.43351 0.96153 0.715 0.0
H1813 H 0.57213 0.03744 0.75276 0.0
H1814 H 0.55645 0.02726 0.69257 0.0
C1815 C 0.4263 0.95465 0.75033 0.0
C1816 C 0.46632 0.97912 0.66877 0.0
H1817 H 0.49693 0.03935 0.66506 0.0
C1818 C 0.48408 0.9751 0.65443 0.0
C1819 C 0.46981 0.00239 0.66369 0.0
C1820 C 0.4504 0.00826 0.66996 0.0
C1821 C 0.50774 0.99411 0.65519 0.0
C1822 C 0.51168 0.0162 0.66874 0.0
C1823 C 0.49347 0.0213 0.66134 0.0
C1824 C 0.52204 0.02305 0.70568 0.0
C1825 C 0.52784 0.9894 0.64836 0.0
C1826 C 0.50785 0.02338 0.73447 0.0
C1827 C 0.51683 0.02922 0.76921 0.0
C1828 C 0.54024 0.03498 0.77635 0.0
C1829 C 0.55385 0.03288 0.74848 0.0
C1830 C 0.54498 0.02734 0.71351 0.0
H1831 H 0.52251 0.97472 0.62862 0.0
H1832 H 0.54369 0.00569 0.63801 0.0
H1833 H 0.53262 0.9839 0.67376 0.0
H1834 H 0.48972 0.01942 0.73046 0.0
H1835 H 0.50592 0.03063 0.78999 0.0
H1836 H 0.46329 0.50527 0.11334 0.0
H1837 H 0.46006 0.49016 1.05317 0.0
H1838 H 0.51974 0.55799 1.01993 0.0
H1839 H 0.52352 0.5724 1.08072 0.0
H1840 H 0.45037 0.49502 0.98569 0.0
H1841 H 0.54256 0.52775 0.95732 0.0
H1842 H 0.54256 0.53805 1.00205 0.0
H1843 H 0.53052 0.54715 0.96552 0.0
C1844 C 0.47618 0.51658 0.09339 0.0
C1845 C 0.49385 0.53976 0.10204 0.0
C1846 C 0.47403 0.50829 1.0583 0.0
C1847 C 0.48957 0.52297 1.03071 0.0
C1848 C 0.50766 0.54599 1.03994 0.0
H1849 H 0.45425 0.41233 0.08705 0.0
H1850 H 0.45578 0.42439 1.02596 0.0
C1851 C 0.51002 0.55414 1.07523 0.0
C1852 C 0.48839 0.51291 0.99401 0.0
H1853 H 0.52176 0.48656 0.98528 0.0
C1854 C 0.46615 0.49326 0.98489 0.0
C1855 C 0.50828 0.51089 0.98337 0.0
C1856 C 0.53234 0.53227 0.97659 0.0
C1857 C 0.46356 0.47044 0.98777 0.0
C1858 C 0.48411 0.4692 0.99727 0.0
C1859 C 0.50588 0.48813 0.98487 0.0
C1860 C 0.48475 0.46048 1.03408 0.0
C1861 C 0.43898 0.44889 0.98766 0.0
C1862 C 0.50073 0.47646 1.06016 0.0
C1863 C 0.50018 0.46935 0.09564 0.0
C1864 C 0.48353 0.44617 0.10615 0.0
C1865 C 0.46699 0.43057 1.08056 0.0
C1866 C 0.46796 0.43742 1.04494 0.0
H1867 H 0.4268 0.4518 0.9702 0.0
H1868 H 0.43957 0.43302 0.97795 0.0
H1869 H 0.43158 0.44543 1.01529 0.0
H1870 H 0.51377 0.49467 1.05341 0.0
H1871 H 0.51337 0.48166 0.11442 0.0
H1872 H 0.35242 0.94787 0.71256 0.0
H1873 H 0.37381 0.97203 0.66087 0.0
H1874 H 0.35407 0.90847 0.59916 0.0
H1875 H 0.33314 0.88382 0.65161 0.0
H1876 H 0.41175 0.97009 0.61309 0.0
H1877 H 0.32581 0.94862 0.54814 0.0
H1878 H 0.32745 0.94481 0.59581 0.0
H1879 H 0.33004 0.92495 0.56503 0.0
C1880 C 0.35297 0.93891 0.68833 0.0
C1881 C 0.34095 0.91387 0.6862 0.0
C1882 C 0.36518 0.95278 0.6588 0.0
C1883 C 0.36539 0.94197 0.62638 0.0
C1884 C 0.35394 0.91704 0.62408 0.0
H1885 H 0.40221 0.02885 0.43367 0.0
H1886 H 0.39224 0.9948 0.47211 0.0
C1887 C 0.34183 0.90305 0.65388 0.0
C1888 C 0.37598 0.95722 0.59464 0.0
H1889 H 0.36067 0.98073 0.52498 0.0
C1890 C 0.40074 0.97245 0.59363 0.0
C1891 C 0.36142 0.95967 0.56891 0.0
C1892 C 0.33467 0.94375 0.56927 0.0
C1893 C 0.41125 0.9913 0.56901 0.0
C1894 C 0.39653 0.99461 0.54447 0.0
C1895 C 0.37193 0.97822 0.54387 0.0
C1896 C 0.40572 0.01566 0.52067 0.0
C1897 C 0.43785 0.00786 0.57053 0.0
C1898 C 0.41691 0.0388 0.53515 0.0
C1899 C 0.42303 0.05846 0.51309 0.0
C1900 C 0.41773 0.05528 0.47623 0.0
C1901 C 0.40691 0.03207 0.4618 0.0
C1902 C 0.40104 0.01251 0.48378 0.0
H1903 H 0.44192 0.02171 0.59123 0.0
H1904 H 0.44715 -0.00194 0.57828 0.0
H1905 H 0.44503 0.01693 0.54454 0.0
H1906 H 0.42029 0.04162 0.56369 0.0
H1907 H 0.43163 0.07609 0.52498 0.0
H1908 H 0.39726 0.36597 1.06452 0.0
H1909 H 0.38867 0.38877 1.02157 0.0
H1910 H 0.40848 0.35821 0.93459 0.0
H1911 H 0.41897 0.33654 0.97767 0.0
H1912 H 0.42374 0.4058 0.92417 0.0
H1913 H 0.32813 0.35637 0.96294 0.0
H1914 H 0.34785 0.37154 0.99969 0.0
H1915 H 0.34903 0.34746 0.97752 0.0
C1916 C 0.40038 0.36441 1.03636 0.0
C1917 C 0.40867 0.34917 1.0246 0.0
C1918 C 0.3951 0.37725 1.01181 0.0
C1919 C 0.39731 0.37463 0.97495 0.0
C1920 C 0.40639 0.36021 0.96301 0.0
H1921 H 0.35227 0.40597 0.77929 0.0
H1922 H 0.3728 0.39743 0.82654 0.0
C1923 C 0.41209 0.34761 0.98763 0.0
C1924 C 0.38911 0.3861 0.94887 0.0
H1925 H 0.33979 0.3878 0.92157 0.0
C1926 C 0.40542 0.40198 0.9237 0.0
C1927 C 0.36516 0.38096 0.94827 0.0
C1928 C 0.34646 0.36299 0.9733 0.0
C1929 C 0.39843 0.41304 0.89804 0.0
C1930 C 0.37445 0.40766 0.89717 0.0
C1931 C 0.35824 0.39207 0.92265 0.0
C1932 C 0.36509 0.41599 0.86802 0.0
C1933 C 0.41672 0.43042 0.87214 0.0
C1934 C 0.35397 0.4293 0.87577 0.0
C1935 C 0.34218 0.43425 0.84875 0.0
C1936 C 0.34118 0.42576 0.81367 0.0
C1937 C 0.35297 0.41304 0.8059 0.0
C1938 C 0.36479 0.40819 0.83285 0.0
H1939 H 0.43505 0.43787 0.883 0.0
H1940 H 0.41568 0.42107 0.84664 0.0
H1941 H 0.41344 0.4453 0.86608 0.0
H1942 H 0.35398 0.43537 0.90288 0.0
H1943 H 0.3336 0.44443 0.85539 0.0
H1944 H 0.90813 0.30881 0.17249 0.0
H1945 H 0.93907 0.32983 0.21789 0.0
H1946 H 0.94779 0.39688 0.18215 0.0
H1947 H 0.91765 0.37636 0.13621 0.0
H1948 H 0.99001 0.39373 0.18057 0.0
H1949 H 0.94321 0.36696 0.3118 0.0
H1950 H 0.93555 0.34273 0.28107 0.0
H1951 H 0.9281 0.3652 0.27023 0.0
C1952 C 0.91621 0.32798 0.17491 0.0
C1953 C 0.91043 0.34091 0.1507 0.0
C1954 C 0.93386 0.33995 0.20082 0.0
C1955 C 0.94569 0.36492 0.20311 0.0
C1956 C 0.93897 0.37768 0.18043 0.0
H1957 H 0.05794 0.44955 0.35651 0.0
H1958 H 0.0268 0.43852 0.31104 0.0
C1959 C 0.92161 0.36584 0.15437 0.0
C1960 C 0.96684 0.37791 0.22617 0.0
H1961 H 0.9856 0.38504 0.31298 0.0
C1962 C 0.98907 0.39201 0.20955 0.0
C1963 C 0.96538 0.37592 0.26389 0.0
C1964 C 0.94177 0.36207 0.28294 0.0
C1965 C 0.01011 0.40328 0.22976 0.0
C1966 C 0.00872 0.4002 0.26724 0.0
C1967 C 0.98645 0.38704 0.28403 0.0
C1968 C 0.03023 0.40949 0.28961 0.0
C1969 C 0.03371 0.41818 0.21114 0.0
C1970 C 0.04285 0.39719 0.29125 0.0
C1971 C 0.06058 0.40334 0.31706 0.0
C1972 C 0.06576 0.42178 0.34163 0.0
C1973 C 0.0541 0.43506 0.33822 0.0
C1974 C 0.03639 0.42888 0.31241 0.0
H1975 H 0.03149 0.42113 0.1824 0.0
H1976 H 0.044 0.43575 0.22471 0.0
H1977 H 0.04432 0.40908 0.21293 0.0
H1978 H 0.0381 0.38205 0.27384 0.0
H1979 H 0.06912 0.39269 0.31924 0.0
H1980 H 0.60894 0.07588 0.69527 0.0
H1981 H 0.58613 0.0475 0.64751 0.0
H1982 H 0.65075 0.05265 0.6065 0.0
H1983 H 0.6738 0.08156 0.65345 0.0
H1984 H 0.61462 0.04826 0.55256 0.0
H1985 H 0.57936 0.97975 0.66108 0.0
H1986 H 0.57948 0.00726 0.6683 0.0
H1987 H 0.60715 0.0075 0.6658 0.0
C1988 C 0.61834 0.07135 0.67559 0.0
C1989 C 0.64312 0.08073 0.67823 0.0
C1990 C 0.60528 0.05511 0.64851 0.0
C1991 C 0.61674 0.04767 0.62417 0.0
C1992 C 0.64164 0.05821 0.62519 0.0
H1993 H 0.5906 0.92621 0.50747 0.0
H1994 H 0.60222 0.96023 0.54747 0.0
C1995 C 0.65477 0.0747 0.65197 0.0
C1996 C 0.60277 0.02697 0.6005 0.0
H1997 H 0.57016 0.96615 0.60186 0.0
C1998 C 0.60447 0.03032 0.56322 0.0
C1999 C 0.58995 0.00363 0.61474 0.0
C2000 C 0.58882 -0.00092 0.65461 0.0
C2001 C 0.5942 0.01076 0.53969 0.0
C2002 C 0.58182 0.98745 0.55398 0.0
C2003 C 0.57944 0.98414 0.5912 0.0
C2004 C 0.57375 0.96629 0.53087 0.0
C2005 C 0.59795 0.01493 0.49983 0.0
C2006 C 0.55364 0.95829 0.5089 0.0
C2007 C 0.54695 0.93886 0.48595 0.0
C2008 C 0.56016 0.92703 0.48504 0.0
C2009 C 0.57993 0.93478 0.50786 0.0
C2010 C 0.58665 0.95425 0.53057 0.0
H2011 H 0.60738 0.0342 0.49295 0.0
H2012 H 0.60854 0.00699 0.48965 0.0
H2013 H 0.58055 0.00595 0.48571 0.0
H2014 H 0.54328 0.96717 0.5094 0.0
H2015 H 0.53146 0.93308 0.46898 0.0
H2016 H 0.5953 0.67359 0.99065 0.0
H2017 H 0.60317 0.65135 0.94481 0.0
H2018 H 0.53778 0.58748 0.97266 0.0
H2019 H 0.53012 0.60947 1.01938 0.0
H2020 H 0.57887 0.58304 0.97616 0.0
H2021 H 0.57502 0.62309 0.84654 0.0
H2022 H 0.59155 0.64426 0.88116 0.0
H2023 H 0.56001 0.62463 0.88653 0.0
C2024 C 0.5823 0.65495 0.98634 0.0
C2025 C 0.56218 0.64321 1.0086 0.0
C2026 C 0.58678 0.64227 0.96012 0.0
C2027 C 0.57102 0.61776 0.95536 0.0
C2028 C 0.55023 0.60631 0.97619 0.0
H2029 H 0.59686 0.5326 0.7978 0.0
H2030 H 0.57637 0.54697 0.83706 0.0
C2031 C 0.54586 0.6189 1.00271 0.0
C2032 C 0.57776 0.6037 0.93176 0.0
H2033 H 0.59487 0.60042 0.84634 0.0
C2034 C 0.58193 0.58649 0.94763 0.0
C2035 C 0.58174 0.60828 0.8946 0.0
C2036 C 0.57666 0.62591 0.87604 0.0
C2037 C 0.59086 0.57438 0.9275 0.0
C2038 C 0.59579 0.57971 0.89072 0.0
C2039 C 0.5909 0.59632 0.87457 0.0
C2040 C 0.6075 0.5694 0.86905 0.0
C2041 C 0.5954 0.55625 0.94563 0.0
C2042 C 0.63166 0.57703 0.87459 0.0
C2043 C 0.64346 0.56895 0.85228 0.0
C2044 C 0.63129 0.55318 0.8239 0.0
C2045 C 0.60684 0.54503 0.81909 0.0
C2046 C 0.59507 0.55315 0.84147 0.0
H2047 H 0.58764 0.55177 0.97303 0.0
H2048 H 0.5878 0.53967 0.92934 0.0
H2049 H 0.6149 0.56341 0.94779 0.0
H2050 H 0.64157 0.58979 0.89557 0.0
H2051 H 0.66232 0.57577 0.85642 0.0
H2052 H 0.10035 0.6367 0.16695 0.0
H2053 H 0.07114 0.61005 0.21157 0.0
H2054 H 0.02804 0.64227 0.19055 0.0
H2055 H 0.05594 0.66691 0.14367 0.0
H2056 H 0.05283 0.61357 0.27103 0.0
H2057 H 0.97951 0.57504 0.17275 0.0
H2058 H 0.01024 0.59353 0.15938 0.0
H2059 H -0.00729 0.60675 0.17317 0.0
C2060 C 0.08452 0.63783 0.172 0.0
C2061 C 0.07988 0.6532 0.15165 0.0
C2062 C 0.06794 0.62276 0.19743 0.0
C2063 C 0.04686 0.6234 0.20316 0.0
C2064 C 0.04356 0.64059 0.18525 0.0
H2065 H 0.95843 0.5979 0.37562 0.0
H2066 H 0.99147 0.6072 0.33515 0.0
C2067 C 0.05968 0.65501 0.15908 0.0
C2068 C 0.02811 0.60625 0.22764 0.0
H2069 H 0.96772 0.57261 0.23505 0.0
C2070 C 0.03425 0.60422 0.26301 0.0
C2071 C 0.00393 0.59308 0.21687 0.0
C2072 C -0.00371 0.59198 0.17833 0.0
C2073 C 0.0166 0.5914 0.28876 0.0
C2074 C -0.00769 0.5811 0.27899 0.0
C2075 C 0.98632 0.58101 0.24284 0.0
C2076 C 0.97316 0.57373 0.30605 0.0
C2077 C 0.02418 0.5897 0.32636 0.0
C2078 C 0.95147 0.55217 0.30244 0.0
C2079 C 0.93223 0.54721 0.32491 0.0
C2080 C 0.93457 0.56367 0.35139 0.0
C2081 C 0.95636 0.58489 0.35552 0.0
C2082 C 0.97537 0.59001 0.33277 0.0
H2083 H 0.04124 0.58956 0.32607 0.0
H2084 H 0.02727 0.60559 0.34196 0.0
H2085 H 0.01042 0.57342 0.34026 0.0
H2086 H 0.94929 0.53944 0.28179 0.0
H2087 H 0.91557 0.53059 0.32164 0.0
H2088 H 0.54314 0.09369 0.41405 0.0
H2089 H 0.55623 0.09277 0.47548 0.0
H2090 H 0.50944 0.1167 0.51485 0.0
H2091 H 0.49553 0.11604 0.45408 0.0
H2092 H 0.57671 0.10928 0.53122 0.0
H2093 H 0.48939 0.07549 0.59374 0.0
H2094 H 0.49275 0.07781 0.54587 0.0
H2095 H 0.49725 0.10319 0.57249 0.0
C2096 C 0.53578 0.09929 0.43527 0.0
C2097 C 0.51823 0.10565 0.42639 0.0
C2098 C 0.54329 0.09847 0.4719 0.0
C2099 C 0.53376 0.10368 0.50327 0.0
C2100 C 0.51699 0.111 0.49393 0.0
H2101 H 0.54218 0.07506 0.74595 0.0
H2102 H 0.53045 0.07666 0.68418 0.0
C2103 C 0.50926 0.11136 0.45763 0.0
C2104 C 0.54134 0.10193 0.54424 0.0
H2105 H 0.52217 0.09261 0.63379 0.0
C2106 C 0.56438 0.10557 0.55317 0.0
C2107 C 0.52612 0.096 0.57552 0.0
C2108 C 0.49995 0.08759 0.57147 0.0
C2109 C 0.57227 0.10423 0.58938 0.0
C2110 C 0.55784 0.10063 0.62104 0.0
C2111 C 0.53456 0.0963 0.61193 0.0
C2112 C 0.56571 0.10025 0.66239 0.0
C2113 C 0.59598 0.10535 0.59232 0.0
C2114 C 0.58971 0.11331 0.67562 0.0
C2115 C 0.59659 0.11189 0.71218 0.0
C2116 C 0.58016 0.0983 0.73994 0.0
C2117 C 0.55611 0.08602 0.72733 0.0
C2118 C 0.5492 0.08701 0.69053 0.0
H2119 H 0.60059 0.09944 0.56706 0.0
H2120 H 0.61015 0.12407 0.59722 0.0
H2121 H 0.59597 0.09385 0.61435 0.0
H2122 H 0.60382 0.12507 0.65774 0.0
H2123 H 0.61541 0.12148 0.71862 0.0
H2124 H 0.44238 0.5301 0.74712 0.0
H2125 H 0.45557 0.54336 0.80883 0.0
H2126 H 0.38252 0.51382 0.84129 0.0
H2127 H 0.36958 0.49952 0.78005 0.0
H2128 H 0.4626 0.56871 0.85986 0.0
H2129 H 0.39255 0.48913 0.92697 0.0
H2130 H 0.39565 0.49035 0.879 0.0
H2131 H 0.37915 0.5025 0.90102 0.0
C2132 C 0.42888 0.52648 0.76701 0.0
C2133 C 0.40448 0.51393 0.75606 0.0
C2134 C 0.43663 0.53416 0.80361 0.0
C2135 C 0.42069 0.52951 0.83309 0.0
C2136 C 0.39625 0.51744 0.8218 0.0
H2137 H 0.45411 0.54083 1.07712 0.0
H2138 H 0.44059 0.52788 1.01567 0.0
C2139 C 0.38855 0.50958 0.78529 0.0
C2140 C 0.42956 0.53739 0.87405 0.0
H2141 H 0.41495 0.52264 0.96456 0.0
C2142 C 0.45177 0.55826 0.88227 0.0
C2143 C 0.41713 0.52439 0.90594 0.0
C2144 C 0.39498 0.50023 0.90291 0.0
C2145 C 0.46098 0.56626 0.91841 0.0
C2146 C 0.44764 0.55433 0.95033 0.0
C2147 C 0.42575 0.53308 0.94212 0.0
C2148 C 0.45606 0.56289 0.99123 0.0
C2149 C 0.48601 0.5871 0.92132 0.0
C2150 C 0.46943 0.5873 1.00234 0.0
C2151 C 0.4776 0.59486 1.03872 0.0
C2152 C 0.47241 0.57898 1.06827 0.0
C2153 C 0.45863 0.55454 1.05742 0.0
C2154 C 0.45066 0.54687 1.02081 0.0
H2155 H 0.49674 0.58851 0.89719 0.0
H2156 H 0.48538 0.60386 0.92319 0.0
H2157 H 0.49536 0.58554 0.94518 0.0
H2158 H 0.47379 0.60116 0.9828 0.0
H2159 H 0.48853 0.61382 1.04368 0.0
H2160 H 0.88158 0.43864 1.08057 0.0
H2161 H 0.88099 0.45354 0.14181 0.0
H2162 H 0.88557 0.39518 0.18719 0.0
H2163 H 0.88456 0.37973 0.12699 0.0
H2164 H 0.85107 0.43567 0.20804 0.0
H2165 H 0.93988 0.45101 0.24292 0.0
H2166 H 0.92817 0.44298 0.19808 0.0
H2167 H 0.91996 0.42029 0.23165 0.0
C2168 C 0.88195 0.42849 0.10323 0.0
C2169 C 0.88314 0.40736 0.09658 0.0
C2170 C 0.88185 0.43735 0.13934 0.0
C2171 C 0.88356 0.42622 0.17168 0.0
C2172 C 0.88461 0.40518 0.16466 0.0
H2173 H 0.90177 0.45545 0.41614 0.0
H2174 H 0.8991 0.44077 0.35469 0.0
C2175 C 0.88412 0.39614 0.12905 0.0
C2176 C 0.88417 0.43581 0.21187 0.0
H2177 H 0.91656 0.45217 0.29202 0.0
C2178 C 0.86565 0.43929 0.22596 0.0
C2179 C 0.90257 0.44081 0.23779 0.0
C2180 C 0.92389 0.43882 0.2269 0.0
C2181 C 0.86464 0.44635 0.26288 0.0
C2182 C 0.88317 0.45157 0.28891 0.0
C2183 C 0.90181 0.44833 0.27447 0.0
C2184 C 0.88353 0.46004 0.33 0.0
C2185 C 0.8426 0.44701 0.27377 0.0
C2186 C 0.87591 0.47637 0.34081 0.0
C2187 C 0.87651 0.4841 0.37754 0.0
C2188 C 0.88462 0.47632 0.40747 0.0
C2189 C 0.89325 0.46083 0.39653 0.0
C2190 C 0.8924 0.45278 0.35974 0.0
H2191 H 0.82714 0.43518 0.25653 0.0
H2192 H 0.83769 0.44141 0.30209 0.0
H2193 H 0.8459 0.46544 0.27057 0.0
H2194 H 0.87008 0.48419 0.32051 0.0
H2195 H 0.87101 0.49713 0.38237 0.0
H2196 H 0.49232 0.92693 0.44236 0.0
H2197 H 0.47846 0.92658 0.50345 0.0
H2198 H 0.42499 0.85302 0.49067 0.0
H2199 H 0.43921 0.85372 0.42899 0.0
H2200 H 0.4369 0.92029 0.5395 0.0
H2201 H 0.45054 0.84772 0.58865 0.0
H2202 H 0.46269 0.86244 0.54637 0.0
H2203 H 0.43167 0.84029 0.54984 0.0
C2204 C 0.477 0.91054 0.45145 0.0
C2205 C 0.46616 0.89085 0.42684 0.0
C2206 C 0.469 0.91036 0.48783 0.0
C2207 C 0.44994 0.8899 0.50447 0.0
C2208 C 0.4395 0.86966 0.48068 0.0
H2209 H 0.44041 0.90579 0.75197 0.0
H2210 H 0.45284 0.90284 0.69054 0.0
C2211 C 0.44734 0.87013 0.44367 0.0
C2212 C 0.44189 0.89008 0.54559 0.0
H2213 H 0.43317 0.86253 0.62958 0.0
C2214 C 0.43613 0.90738 0.55865 0.0
C2215 C 0.44057 0.87395 0.57328 0.0
C2216 C 0.44685 0.85513 0.56423 0.0
C2217 C 0.429 0.9085 0.59551 0.0
C2218 C 0.42756 0.8923 0.62309 0.0
C2219 C 0.43381 0.87532 0.6103 0.0
C2220 C 0.41934 0.8926 0.66398 0.0
C2221 C 0.42307 0.92758 0.6048 0.0
C2222 C 0.39601 0.88783 0.67333 0.0
C2223 C 0.38842 0.88821 0.70984 0.0
C2224 C 0.40325 0.89342 0.74091 0.0
C2225 C 0.42697 0.89918 0.73142 0.0
C2226 C 0.4345 0.8982 0.69479 0.0
H2227 H 0.43021 0.94213 0.58461 0.0
H2228 H 0.40341 0.91951 0.60583 0.0
H2229 H 0.43022 0.93534 0.63161 0.0
H2230 H 0.38319 0.88371 0.65201 0.0
H2231 H 0.37035 0.88463 0.71366 0.0
H2232 H 0.53513 0.45883 0.75232 0.0
H2233 H 0.52331 0.44679 0.81439 0.0
H2234 H 0.59714 0.47752 0.84327 0.0
H2235 H 0.60871 0.49131 0.78142 0.0
H2236 H 0.51717 0.42189 0.86447 0.0
H2237 H 0.58887 0.50058 0.93174 0.0
H2238 H 0.58472 0.50006 0.88399 0.0
H2239 H 0.60115 0.48709 0.90351 0.0
C2240 C 0.54915 0.46344 0.7715 0.0
C2241 C 0.57326 0.47627 0.75922 0.0
C2242 C 0.54218 0.45614 0.80839 0.0
C2243 C 0.5587 0.46115 0.83707 0.0
C2244 C 0.58295 0.47354 0.82454 0.0
H2245 H 0.5265 0.44813 0.08249 0.0
H2246 H 0.5403 0.46173 1.02113 0.0
C2247 C 0.58987 0.48114 0.78763 0.0
C2248 C 0.55043 0.4531 0.87827 0.0
H2249 H 0.56593 0.46724 0.96881 0.0
C2250 C 0.52825 0.43225 0.88675 0.0
C2251 C 0.56326 0.46581 0.91016 0.0
C2252 C 0.58565 0.48975 0.90706 0.0
C2253 C 0.51935 0.42409 0.92296 0.0
C2254 C 0.53297 0.43579 0.95479 0.0
C2255 C 0.55489 0.45698 0.94642 0.0
C2256 C 0.52477 0.42695 0.99571 0.0
C2257 C 0.49431 0.40329 0.92609 0.0
C2258 C 0.51142 0.40244 1.00625 0.0
C2259 C 0.50315 0.39453 1.04248 0.0
C2260 C 0.50824 0.41013 1.07244 0.0
C2261 C 0.52219 0.43467 1.06233 0.0
C2262 C 0.53021 0.4427 1.0258 0.0
H2263 H 0.48341 0.40205 0.90233 0.0
H2264 H 0.49489 0.38649 0.92732 0.0
H2265 H 0.48518 0.40477 0.95034 0.0
H2266 H 0.50712 0.38877 0.98633 0.0
H2267 H 0.49223 0.37552 1.04699 0.0
H2268 H 0.08318 0.53856 0.4149 0.0
H2269 H 0.08575 0.55413 0.35382 0.0
H2270 H 0.09926 0.50019 0.31242 0.0
H2271 H 0.09832 0.4859 0.37339 0.0
H2272 H 0.1181 0.57448 0.29581 0.0
H2273 H 0.04783 0.48887 0.24221 0.0
H2274 H 0.05478 0.493 0.28942 0.0
H2275 H 0.0725 0.48661 0.25918 0.0
C2276 C 0.08823 0.53074 0.39364 0.0
C2277 C 0.09203 0.51136 0.40193 0.0
C2278 C 0.08901 0.53943 0.35728 0.0
C2279 C 0.09262 0.52883 0.32579 0.0
C2280 C 0.09612 0.50936 0.33417 0.0
H2281 H 0.08597 0.54591 1.07849 0.0
H2282 H 0.08761 0.5324 0.13954 0.0
C2283 C 0.09583 0.50112 0.3703 0.0
C2284 C 0.09285 0.53774 0.28531 0.0
H2285 H 0.07017 0.51899 0.19878 0.0
C2286 C 0.10728 0.56205 0.275 0.0
C2287 C 0.07944 0.52255 0.25573 0.0
C2288 C 0.06259 0.49636 0.26209 0.0
C2289 C 0.10926 0.57098 0.23851 0.0
C2290 C 0.09539 0.55596 0.20882 0.0
C2291 C 0.08091 0.53156 0.21936 0.0
C2292 C 0.09566 0.5649 0.168 0.0
C2293 C 0.12778 0.59674 0.23247 0.0
C2294 C 0.09923 0.58793 0.15931 0.0
C2295 C 0.09964 0.59617 0.12318 0.0
C2296 C 0.09603 0.58232 0.09155 0.0
C2297 C 0.09121 0.55875 0.09987 0.0
C2298 C 0.09136 0.55054 0.13634 0.0
H2299 H 0.14233 0.60306 0.2526 0.0
H2300 H 0.13595 0.59954 0.20544 0.0
H2301 H 0.11938 0.60793 0.23556 0.0
H2302 H 0.10104 0.59989 0.18075 0.0
H2303 H 0.10226 0.6139 0.11994 0.0
loop_
_geom_bond_atom_site_label_1
_geom_bond_atom_site_label_2
_geom_bond_distance
_geom_bond_site_symmetry_2
_ccdc_geom_bond_type
Gd0 N31 2.661 . S
Gd0 N37 2.601 . S
Gd0 O44 2.545 . S
Gd0 O45 2.606 . S
Gd0 O47 2.429 . S
Gd0 O48 2.545 . S
Gd0 O49 2.412 . S
Gd0 O51 2.362 . S
Gd0 O52 2.324 . S
Gd0 C59 2.828 . S
Gd1 N10 2.661 . S
Gd1 N14 2.601 . S
Gd1 O45 2.362 . S
Gd1 O46 2.324 . S
Gd1 O50 2.545 . S
Gd1 O51 2.606 . S
Gd1 O53 2.429 . S
Gd1 O54 2.545 . S
Gd1 O55 2.412 . S
Gd1 C68 2.828 . S
C2 C5 1.417 . S
C2 C7 1.431 . S
C2 C8 1.412 . S
C3 C6 1.437 . S
C3 C7 1.317 . S
C3 H22 0.929 . S
C4 C5 1.426 . S
C4 C6 1.413 . S
C4 N14 1.359 . S
C5 C2 1.417 . S
C5 C4 1.426 . S
C5 N10 1.350 . S
C6 C3 1.437 . S
C6 C4 1.413 . S
C6 C16 1.391 . S
C7 C2 1.431 . S
C7 C3 1.317 . S
C7 H18 0.930 . S
C8 C2 1.412 . S
C8 C9 1.355 . S
C8 H20 0.930 . S
C9 C8 1.355 . S
C9 C11 1.402 . S
C9 H21 0.930 . S
N10 Gd1 2.661 . S
N10 C5 1.350 . S
N10 C11 1.307 . S
C11 C9 1.402 . S
C11 N10 1.307 . S
C11 H12 0.930 . S
H12 C11 0.930 . S
C13 N14 1.334 . S
C13 C15 1.394 . S
C13 H17 0.930 . S
N14 Gd1 2.601 . S
N14 C4 1.359 . S
N14 C13 1.334 . S
C15 C13 1.394 . S
C15 C16 1.359 . S
C15 H27 0.930 . S
C16 C6 1.391 . S
C16 C15 1.359 . S
C16 H28 0.929 . S
H17 C13 0.930 . S
H18 C7 0.930 . S
H19 C36 0.930 . S
H20 C8 0.930 . S
H21 C9 0.930 . S
H22 C3 0.929 . S
H23 C41 0.930 . S
H24 C32 0.930 . S
H25 C33 0.930 . S
H26 C57 0.929 . S
H27 C15 0.930 . S
H28 C16 0.929 . S
H29 C58 0.930 . S
H30 C39 0.930 . S
N31 Gd0 2.661 . S
N31 C35 1.350 . S
N31 C36 1.307 . S
C32 H24 0.930 . S
C32 C33 1.355 . S
C32 C34 1.412 . S
C33 H25 0.930 . S
C33 C32 1.355 . S
C33 C36 1.402 . S
C34 C32 1.412 . S
C34 C35 1.417 . S
C34 C58 1.431 . S
C35 N31 1.350 . S
C35 C34 1.417 . S
C35 C38 1.426 . S
C36 H19 0.930 . S
C36 N31 1.307 . S
C36 C33 1.402 . S
N37 Gd0 2.601 . S
N37 C38 1.359 . S
N37 C41 1.334 . S
C38 C35 1.426 . S
C38 N37 1.359 . S
C38 C42 1.413 . S
C39 H30 0.930 . S
C39 C40 1.359 . S
C39 C41 1.394 . S
C40 C39 1.359 . S
C40 C42 1.391 . S
C40 H43 0.929 . S
C41 H23 0.930 . S
C41 N37 1.334 . S
C41 C39 1.394 . S
C42 C38 1.413 . S
C42 C40 1.391 . S
C42 C57 1.437 . S
H43 C40 0.929 . S
O44 Gd0 2.545 . S
O44 C59 1.258 . S
O45 Gd0 2.606 . S
O45 Gd1 2.362 . S
O45 C56 1.284 . S
O46 Gd1 2.324 . S
O46 C66 1.254 . S
O47 Gd0 2.429 . S
O47 C66 1.268 . S
O48 Gd0 2.545 . S
O48 C56 1.250 . S
O49 Gd0 2.412 . S
O49 C59 1.252 . S
O50 Gd1 2.545 . S
O50 C68 1.258 . S
O51 Gd0 2.362 . S
O51 Gd1 2.606 . S
O51 C67 1.284 . S
O52 Gd0 2.324 . S
O52 C75 1.254 . S
O53 Gd1 2.429 . S
O53 C75 1.268 . S
O54 Gd1 2.545 . S
O54 C67 1.250 . S
O55 Gd1 2.412 . S
O55 C68 1.252 . S
C56 O45 1.284 . S
C56 O48 1.250 . S
C57 H26 0.929 . S
C57 C42 1.437 . S
C57 C58 1.317 . S
C58 H29 0.930 . S
C58 C34 1.431 . S
C58 C57 1.317 . S
C59 Gd0 2.828 . S
C59 O44 1.258 . S
C59 O49 1.252 . S
C59 C60 1.497 . S
C60 C59 1.497 . S
C60 C61 1.395 . S
C60 C62 1.380 . S
C61 C60 1.395 . S
C61 C64 1.398 . S
C61 H76 0.930 . S
C62 C60 1.380 . S
C62 C63 1.391 . S
C62 H77 0.930 . S
C63 C62 1.391 . S
C63 C65 1.387 . S
C64 C61 1.398 . S
C64 C65 1.380 . S
C64 H78 0.930 . S
C65 C63 1.387 . S
C65 C64 1.380 . S
C65 H79 0.930 . S
C66 O46 1.254 . S
C66 O47 1.268 . S
C67 O51 1.284 . S
C67 O54 1.250 . S
C68 Gd1 2.828 . S
C68 O50 1.258 . S
C68 O55 1.252 . S
C68 C69 1.497 . S
C69 C68 1.497 . S
C69 C70 1.395 . S
C69 C71 1.380 . S
C70 C69 1.395 . S
C70 C73 1.398 . S
C70 H80 0.930 . S
C71 C69 1.380 . S
C71 C72 1.391 . S
C71 H81 0.930 . S
C72 C71 1.391 . S
C72 C74 1.387 . S
C73 C70 1.398 . S
C73 C74 1.380 . S
C73 H82 0.930 . S
C74 C72 1.387 . S
C74 C73 1.380 . S
C74 H83 0.930 . S
C75 O52 1.254 . S
C75 O53 1.268 . S
H76 C61 0.930 . S
H77 C62 0.930 . S
H78 C64 0.930 . S
H79 C65 0.930 . S
H80 C70 0.930 . S
H81 C71 0.930 . S
H82 C73 0.930 . S
H83 C74 0.930 . S
Gd84 N115 2.661 . S
Gd84 N121 2.601 . S
Gd84 O128 2.545 . S
Gd84 O129 2.606 . S
Gd84 O131 2.429 . S
Gd84 O132 2.545 . S
Gd84 O133 2.412 . S
Gd84 O135 2.362 . S
Gd84 O136 2.324 . S
Gd84 C143 2.828 . S
Gd85 N94 2.661 . S
Gd85 N98 2.601 . S
Gd85 O129 2.362 . S
Gd85 O130 2.324 . S
Gd85 O134 2.545 . S
Gd85 O135 2.606 . S
Gd85 O137 2.429 . S
Gd85 O138 2.545 . S
Gd85 O139 2.412 . S
Gd85 C152 2.828 . S
C86 C89 1.417 . S
C86 C91 1.431 . S
C86 C92 1.412 . S
C87 C90 1.437 . S
C87 C91 1.317 . S
C87 H106 0.929 . S
C88 C89 1.426 . S
C88 C90 1.413 . S
C88 N98 1.359 . S
C89 C86 1.417 . S
C89 C88 1.426 . S
C89 N94 1.350 . S
C90 C87 1.437 . S
C90 C88 1.413 . S
C90 C100 1.391 . S
C91 C86 1.431 . S
C91 C87 1.317 . S
C91 H102 0.930 . S
C92 C86 1.412 . S
C92 C93 1.355 . S
C92 H104 0.930 . S
C93 C92 1.355 . S
C93 C95 1.402 . S
C93 H105 0.930 . S
N94 Gd85 2.661 . S
N94 C89 1.350 . S
N94 C95 1.307 . S
C95 C93 1.402 . S
C95 N94 1.307 . S
C95 H96 0.930 . S
H96 C95 0.930 . S
C97 N98 1.334 . S
C97 C99 1.394 . S
C97 H101 0.930 . S
N98 Gd85 2.601 . S
N98 C88 1.359 . S
N98 C97 1.334 . S
C99 C97 1.394 . S
C99 C100 1.359 . S
C99 H111 0.930 . S
C100 C90 1.391 . S
C100 C99 1.359 . S
C100 H112 0.929 . S
H101 C97 0.930 . S
H102 C91 0.930 . S
H103 C120 0.930 . S
H104 C92 0.930 . S
H105 C93 0.930 . S
H106 C87 0.929 . S
H107 C125 0.930 . S
H108 C116 0.930 . S
H109 C117 0.930 . S
H110 C141 0.929 . S
H111 C99 0.930 . S
H112 C100 0.929 . S
H113 C142 0.930 . S
H114 C123 0.930 . S
N115 Gd84 2.661 . S
N115 C119 1.350 . S
N115 C120 1.307 . S
C116 H108 0.930 . S
C116 C117 1.355 . S
C116 C118 1.412 . S
C117 H109 0.930 . S
C117 C116 1.355 . S
C117 C120 1.402 . S
C118 C116 1.412 . S
C118 C119 1.417 . S
C118 C142 1.431 . S
C119 N115 1.350 . S
C119 C118 1.417 . S
C119 C122 1.426 . S
C120 H103 0.930 . S
C120 N115 1.307 . S
C120 C117 1.402 . S
N121 Gd84 2.601 . S
N121 C122 1.359 . S
N121 C125 1.334 . S
C122 C119 1.426 . S
C122 N121 1.359 . S
C122 C126 1.413 . S
C123 H114 0.930 . S
C123 C124 1.359 . S
C123 C125 1.394 . S
C124 C123 1.359 . S
C124 C126 1.391 . S
C124 H127 0.929 . S
C125 H107 0.930 . S
C125 N121 1.334 . S
C125 C123 1.394 . S
C126 C122 1.413 . S
C126 C124 1.391 . S
C126 C141 1.437 . S
H127 C124 0.929 . S
O128 Gd84 2.545 . S
O128 C143 1.258 . S
O129 Gd84 2.606 . S
O129 Gd85 2.362 . S
O129 C140 1.284 . S
O130 Gd85 2.324 . S
O130 C150 1.254 . S
O131 Gd84 2.429 . S
O131 C150 1.268 . S
O132 Gd84 2.545 . S
O132 C140 1.250 . S
O133 Gd84 2.412 . S
O133 C143 1.252 . S
O134 Gd85 2.545 . S
O134 C152 1.258 . S
O135 Gd84 2.362 . S
O135 Gd85 2.606 . S
O135 C151 1.284 . S
O136 Gd84 2.324 . S
O136 C159 1.254 . S
O137 Gd85 2.429 . S
O137 C159 1.268 . S
O138 Gd85 2.545 . S
O138 C151 1.250 . S
O139 Gd85 2.412 . S
O139 C152 1.252 . S
C140 O129 1.284 . S
C140 O132 1.250 . S
C141 H110 0.929 . S
C141 C126 1.437 . S
C141 C142 1.317 . S
C142 H113 0.930 . S
C142 C118 1.431 . S
C142 C141 1.317 . S
C143 Gd84 2.828 . S
C143 O128 1.258 . S
C143 O133 1.252 . S
C143 C144 1.497 . S
C144 C143 1.497 . S
C144 C145 1.395 . S
C144 C146 1.380 . S
C145 C144 1.395 . S
C145 C148 1.398 . S
C145 H160 0.930 . S
C146 C144 1.380 . S
C146 C147 1.391 . S
C146 H161 0.930 . S
C147 C146 1.391 . S
C147 C149 1.387 . S
C148 C145 1.398 . S
C148 C149 1.380 . S
C148 H162 0.930 . S
C149 C147 1.387 . S
C149 C148 1.380 . S
C149 H163 0.930 . S
C150 O130 1.254 . S
C150 O131 1.268 . S
C151 O135 1.284 . S
C151 O138 1.250 . S
C152 Gd85 2.828 . S
C152 O134 1.258 . S
C152 O139 1.252 . S
C152 C153 1.497 . S
C153 C152 1.497 . S
C153 C154 1.395 . S
C153 C155 1.380 . S
C154 C153 1.395 . S
C154 C157 1.398 . S
C154 H164 0.930 . S
C155 C153 1.380 . S
C155 C156 1.391 . S
C155 H165 0.930 . S
C156 C155 1.391 . S
C156 C158 1.387 . S
C157 C154 1.398 . S
C157 C158 1.380 . S
C157 H166 0.930 . S
C158 C156 1.387 . S
C158 C157 1.380 . S
C158 H167 0.930 . S
C159 O136 1.254 . S
C159 O137 1.268 . S
H160 C145 0.930 . S
H161 C146 0.930 . S
H162 C148 0.930 . S
H163 C149 0.930 . S
H164 C154 0.930 . S
H165 C155 0.930 . S
H166 C157 0.930 . S
H167 C158 0.930 . S
Gd168 N199 2.661 . S
Gd168 N205 2.601 . S
Gd168 O212 2.545 . S
Gd168 O213 2.606 . S
Gd168 O215 2.429 . S
Gd168 O216 2.545 . S
Gd168 O217 2.412 . S
Gd168 O219 2.362 . S
Gd168 O220 2.324 . S
Gd168 C227 2.828 . S
Gd169 N178 2.661 . S
Gd169 N182 2.601 . S
Gd169 O213 2.362 . S
Gd169 O214 2.324 . S
Gd169 O218 2.545 . S
Gd169 O219 2.606 . S
Gd169 O221 2.429 . S
Gd169 O222 2.545 . S
Gd169 O223 2.412 . S
Gd169 C236 2.828 1_556 S
C170 C173 1.417 . S
C170 C175 1.431 . S
C170 C176 1.412 . S
C171 C174 1.437 . S
C171 C175 1.317 . S
C171 H190 0.929 . S
C172 C173 1.426 . S
C172 C174 1.413 . S
C172 N182 1.359 . S
C173 C170 1.417 . S
C173 C172 1.426 . S
C173 N178 1.350 . S
C174 C171 1.437 . S
C174 C172 1.413 . S
C174 C184 1.391 . S
C175 C170 1.431 . S
C175 C171 1.317 . S
C175 H186 0.930 . S
C176 C170 1.412 . S
C176 C177 1.355 . S
C176 H188 0.930 . S
C177 C176 1.355 . S
C177 C179 1.402 . S
C177 H189 0.930 . S
N178 Gd169 2.661 . S
N178 C173 1.350 . S
N178 C179 1.307 . S
C179 C177 1.402 . S
C179 N178 1.307 . S
C179 H180 0.930 . S
H180 C179 0.930 . S
C181 N182 1.334 . S
C181 C183 1.394 . S
C181 H185 0.930 . S
N182 Gd169 2.601 . S
N182 C172 1.359 . S
N182 C181 1.334 . S
C183 C181 1.394 . S
C183 C184 1.359 . S
C183 H195 0.930 . S
C184 C174 1.391 . S
C184 C183 1.359 . S
C184 H196 0.929 . S
H185 C181 0.930 . S
H186 C175 0.930 . S
H187 C204 0.930 . S
H188 C176 0.930 . S
H189 C177 0.930 . S
H190 C171 0.929 . S
H191 C209 0.930 . S
H192 C200 0.930 . S
H193 C201 0.930 . S
H194 C225 0.929 . S
H195 C183 0.930 . S
H196 C184 0.929 . S
H197 C226 0.930 . S
H198 C207 0.930 . S
N199 Gd168 2.661 . S
N199 C203 1.350 . S
N199 C204 1.307 . S
C200 H192 0.930 . S
C200 C201 1.355 . S
C200 C202 1.412 . S
C201 H193 0.930 . S
C201 C200 1.355 . S
C201 C204 1.402 . S
C202 C200 1.412 . S
C202 C203 1.417 . S
C202 C226 1.431 . S
C203 N199 1.350 . S
C203 C202 1.417 . S
C203 C206 1.426 . S
C204 H187 0.930 . S
C204 N199 1.307 . S
C204 C201 1.402 . S
N205 Gd168 2.601 . S
N205 C206 1.359 . S
N205 C209 1.334 . S
C206 C203 1.426 . S
C206 N205 1.359 . S
C206 C210 1.413 . S
C207 H198 0.930 . S
C207 C208 1.359 . S
C207 C209 1.394 . S
C208 C207 1.359 . S
C208 C210 1.391 . S
C208 H211 0.929 . S
C209 H191 0.930 . S
C209 N205 1.334 . S
C209 C207 1.394 . S
C210 C206 1.413 . S
C210 C208 1.391 . S
C210 C225 1.437 . S
H211 C208 0.929 . S
O212 Gd168 2.545 . S
O212 C227 1.258 . S
O213 Gd168 2.606 . S
O213 Gd169 2.362 . S
O213 C224 1.284 . S
O214 Gd169 2.324 . S
O214 C234 1.254 . S
O215 Gd168 2.429 . S
O215 C234 1.268 . S
O216 Gd168 2.545 . S
O216 C224 1.250 . S
O217 Gd168 2.412 . S
O217 C227 1.252 . S
O218 Gd169 2.545 . S
O218 C236 1.258 1_556 S
O219 Gd168 2.362 . S
O219 Gd169 2.606 . S
O219 C235 1.284 . S
O220 Gd168 2.324 . S
O220 C243 1.254 . S
O221 Gd169 2.429 . S
O221 C243 1.268 . S
O222 Gd169 2.545 . S
O222 C235 1.250 . S
O223 Gd169 2.412 . S
O223 C236 1.252 1_556 S
C224 O213 1.284 . S
C224 O216 1.250 . S
C225 H194 0.929 . S
C225 C210 1.437 . S
C225 C226 1.317 . S
C226 H197 0.930 . S
C226 C202 1.431 . S
C226 C225 1.317 . S
C227 Gd168 2.828 . S
C227 O212 1.258 . S
C227 O217 1.252 . S
C227 C228 1.497 . S
C228 C227 1.497 . S
C228 C229 1.395 . S
C228 C230 1.380 . S
C229 C228 1.395 . S
C229 C232 1.398 . S
C229 H244 0.930 . S
C230 C228 1.380 . S
C230 C231 1.391 . S
C230 H245 0.930 . S
C231 C230 1.391 . S
C231 C233 1.387 . S
C232 C229 1.398 . S
C232 C233 1.380 . S
C232 H246 0.930 . S
C233 C231 1.387 . S
C233 C232 1.380 . S
C233 H247 0.930 . S
C234 O214 1.254 . S
C234 O215 1.268 . S
C235 O219 1.284 . S
C235 O222 1.250 . S
C236 Gd169 2.828 1_554 S
C236 O218 1.258 1_554 S
C236 O223 1.252 1_554 S
C236 C237 1.497 . S
C237 C236 1.497 . S
C237 C238 1.395 . S
C237 C239 1.380 . S
C238 C237 1.395 . S
C238 C241 1.398 . S
C238 H248 0.930 . S
C239 C237 1.380 . S
C239 C240 1.391 . S
C239 H249 0.930 . S
C240 C239 1.391 . S
C240 C242 1.387 . S
C241 C238 1.398 . S
C241 C242 1.380 . S
C241 H250 0.930 . S
C242 C240 1.387 . S
C242 C241 1.380 . S
C242 H251 0.930 . S
C243 O220 1.254 . S
C243 O221 1.268 . S
H244 C229 0.930 . S
H245 C230 0.930 . S
H246 C232 0.930 . S
H247 C233 0.930 . S
H248 C238 0.930 . S
H249 C239 0.930 . S
H250 C241 0.930 . S
H251 C242 0.930 . S
Gd252 N283 2.661 . S
Gd252 N289 2.601 . S
Gd252 O296 2.545 . S
Gd252 O297 2.606 . S
Gd252 O299 2.429 . S
Gd252 O300 2.545 . S
Gd252 O301 2.412 . S
Gd252 O303 2.362 . S
Gd252 O304 2.324 . S
Gd252 C311 2.828 . S
Gd253 N262 2.661 . S
Gd253 N266 2.601 . S
Gd253 O297 2.362 . S
Gd253 O298 2.324 . S
Gd253 O302 2.545 . S
Gd253 O303 2.606 . S
Gd253 O305 2.429 . S
Gd253 O306 2.545 . S
Gd253 O307 2.412 . S
Gd253 C320 2.828 . S
C254 C257 1.417 . S
C254 C259 1.431 . S
C254 C260 1.412 . S
C255 C258 1.437 . S
C255 C259 1.317 . S
C255 H274 0.929 . S
C256 C257 1.426 . S
C256 C258 1.413 . S
C256 N266 1.359 . S
C257 C254 1.417 . S
C257 C256 1.426 . S
C257 N262 1.350 . S
C258 C255 1.437 . S
C258 C256 1.413 . S
C258 C268 1.391 . S
C259 C254 1.431 . S
C259 C255 1.317 . S
C259 H270 0.930 . S
C260 C254 1.412 . S
C260 C261 1.355 . S
C260 H272 0.930 . S
C261 C260 1.355 . S
C261 C263 1.402 . S
C261 H273 0.930 . S
N262 Gd253 2.661 . S
N262 C257 1.350 . S
N262 C263 1.307 . S
C263 C261 1.402 . S
C263 N262 1.307 . S
C263 H264 0.930 . S
H264 C263 0.930 . S
C265 N266 1.334 . S
C265 C267 1.394 . S
C265 H269 0.930 . S
N266 Gd253 2.601 . S
N266 C256 1.359 . S
N266 C265 1.334 . S
C267 C265 1.394 . S
C267 C268 1.359 . S
C267 H279 0.930 . S
C268 C258 1.391 . S
C268 C267 1.359 . S
C268 H280 0.929 . S
H269 C265 0.930 . S
H270 C259 0.930 . S
H271 C288 0.930 . S
H272 C260 0.930 . S
H273 C261 0.930 . S
H274 C255 0.929 . S
H275 C293 0.930 . S
H276 C284 0.930 . S
H277 C285 0.930 . S
H278 C309 0.929 . S
H279 C267 0.930 . S
H280 C268 0.929 . S
H281 C310 0.930 . S
H282 C291 0.930 . S
N283 Gd252 2.661 . S
N283 C287 1.350 . S
N283 C288 1.307 . S
C284 H276 0.930 . S
C284 C285 1.355 . S
C284 C286 1.412 . S
C285 H277 0.930 . S
C285 C284 1.355 . S
C285 C288 1.402 . S
C286 C284 1.412 . S
C286 C287 1.417 . S
C286 C310 1.431 . S
C287 N283 1.350 . S
C287 C286 1.417 . S
C287 C290 1.426 . S
C288 H271 0.930 . S
C288 N283 1.307 . S
C288 C285 1.402 . S
N289 Gd252 2.601 . S
N289 C290 1.359 . S
N289 C293 1.334 . S
C290 C287 1.426 . S
C290 N289 1.359 . S
C290 C294 1.413 . S
C291 H282 0.930 . S
C291 C292 1.359 . S
C291 C293 1.394 . S
C292 C291 1.359 . S
C292 C294 1.391 . S
C292 H295 0.929 . S
C293 H275 0.930 . S
C293 N289 1.334 . S
C293 C291 1.394 . S
C294 C290 1.413 . S
C294 C292 1.391 . S
C294 C309 1.437 . S
H295 C292 0.929 . S
O296 Gd252 2.545 . S
O296 C311 1.258 . S
O297 Gd252 2.606 . S
O297 Gd253 2.362 . S
O297 C308 1.284 . S
O298 Gd253 2.324 . S
O298 C318 1.254 . S
O299 Gd252 2.429 . S
O299 C318 1.268 . S
O300 Gd252 2.545 . S
O300 C308 1.250 . S
O301 Gd252 2.412 . S
O301 C311 1.252 . S
O302 Gd253 2.545 . S
O302 C320 1.258 . S
O303 Gd252 2.362 . S
O303 Gd253 2.606 . S
O303 C319 1.284 . S
O304 Gd252 2.324 . S
O304 C327 1.254 . S
O305 Gd253 2.429 . S
O305 C327 1.268 . S
O306 Gd253 2.545 . S
O306 C319 1.250 . S
O307 Gd253 2.412 . S
O307 C320 1.252 . S
C308 O297 1.284 . S
C308 O300 1.250 . S
C309 H278 0.929 . S
C309 C294 1.437 . S
C309 C310 1.317 . S
C310 H281 0.930 . S
C310 C286 1.431 . S
C310 C309 1.317 . S
C311 Gd252 2.828 . S
C311 O296 1.258 . S
C311 O301 1.252 . S
C311 C312 1.497 . S
C312 C311 1.497 . S
C312 C313 1.395 . S
C312 C314 1.380 . S
C313 C312 1.395 . S
C313 C316 1.398 . S
C313 H328 0.930 . S
C314 C312 1.380 . S
C314 C315 1.391 . S
C314 H329 0.930 . S
C315 C314 1.391 . S
C315 C317 1.387 . S
C316 C313 1.398 . S
C316 C317 1.380 . S
C316 H330 0.930 . S
C317 C315 1.387 . S
C317 C316 1.380 . S
C317 H331 0.930 . S
C318 O298 1.254 . S
C318 O299 1.268 . S
C319 O303 1.284 . S
C319 O306 1.250 . S
C320 Gd253 2.828 . S
C320 O302 1.258 . S
C320 O307 1.252 . S
C320 C321 1.497 . S
C321 C320 1.497 . S
C321 C322 1.395 . S
C321 C323 1.380 . S
C322 C321 1.395 . S
C322 C325 1.398 . S
C322 H332 0.930 . S
C323 C321 1.380 . S
C323 C324 1.391 . S
C323 H333 0.930 . S
C324 C323 1.391 . S
C324 C326 1.387 . S
C325 C322 1.398 . S
C325 C326 1.380 . S
C325 H334 0.930 . S
C326 C324 1.387 . S
C326 C325 1.380 . S
C326 H335 0.930 . S
C327 O304 1.254 . S
C327 O305 1.268 . S
H328 C313 0.930 . S
H329 C314 0.930 . S
H330 C316 0.930 . S
H331 C317 0.930 . S
H332 C322 0.930 . S
H333 C323 0.930 . S
H334 C325 0.930 . S
H335 C326 0.930 . S
Gd336 N367 2.661 . S
Gd336 N373 2.601 . S
Gd336 O380 2.545 . S
Gd336 O381 2.606 . S
Gd336 O383 2.429 . S
Gd336 O384 2.545 . S
Gd336 O385 2.412 . S
Gd336 O387 2.362 . S
Gd336 O388 2.324 . S
Gd336 C395 2.828 . S
Gd337 N346 2.661 . S
Gd337 N350 2.601 . S
Gd337 O381 2.362 . S
Gd337 O382 2.324 . S
Gd337 O386 2.545 . S
Gd337 O387 2.606 . S
Gd337 O389 2.429 . S
Gd337 O390 2.545 . S
Gd337 O391 2.412 . S
Gd337 C404 2.828 . S
C338 C341 1.417 . S
C338 C343 1.431 . S
C338 C344 1.412 . S
C339 C342 1.437 . S
C339 C343 1.317 . S
C339 H358 0.929 . S
C340 C341 1.426 . S
C340 C342 1.413 . S
C340 N350 1.359 . S
C341 C338 1.417 . S
C341 C340 1.426 . S
C341 N346 1.350 . S
C342 C339 1.437 . S
C342 C340 1.413 . S
C342 C352 1.391 . S
C343 C338 1.431 . S
C343 C339 1.317 . S
C343 H354 0.930 . S
C344 C338 1.412 . S
C344 C345 1.355 . S
C344 H356 0.930 . S
C345 C344 1.355 . S
C345 C347 1.402 . S
C345 H357 0.930 . S
N346 Gd337 2.661 . S
N346 C341 1.350 . S
N346 C347 1.307 . S
C347 C345 1.402 . S
C347 N346 1.307 . S
C347 H348 0.930 . S
H348 C347 0.930 . S
C349 N350 1.334 . S
C349 C351 1.394 . S
C349 H353 0.930 . S
N350 Gd337 2.601 . S
N350 C340 1.359 . S
N350 C349 1.334 . S
C351 C349 1.394 . S
C351 C352 1.359 . S
C351 H363 0.930 . S
C352 C342 1.391 . S
C352 C351 1.359 . S
C352 H364 0.929 . S
H353 C349 0.930 . S
H354 C343 0.930 . S
H355 C372 0.930 . S
H356 C344 0.930 . S
H357 C345 0.930 . S
H358 C339 0.929 . S
H359 C377 0.930 . S
H360 C368 0.930 . S
H361 C369 0.930 . S
H362 C393 0.929 . S
H363 C351 0.930 . S
H364 C352 0.929 . S
H365 C394 0.930 . S
H366 C375 0.930 . S
N367 Gd336 2.661 . S
N367 C371 1.350 . S
N367 C372 1.307 . S
C368 H360 0.930 . S
C368 C369 1.355 . S
C368 C370 1.412 . S
C369 H361 0.930 . S
C369 C368 1.355 . S
C369 C372 1.402 . S
C370 C368 1.412 . S
C370 C371 1.417 . S
C370 C394 1.431 . S
C371 N367 1.350 . S
C371 C370 1.417 . S
C371 C374 1.426 . S
C372 H355 0.930 . S
C372 N367 1.307 . S
C372 C369 1.402 . S
N373 Gd336 2.601 . S
N373 C374 1.359 . S
N373 C377 1.334 . S
C374 C371 1.426 . S
C374 N373 1.359 . S
C374 C378 1.413 . S
C375 H366 0.930 . S
C375 C376 1.359 . S
C375 C377 1.394 . S
C376 C375 1.359 . S
C376 C378 1.391 . S
C376 H379 0.929 . S
C377 H359 0.930 . S
C377 N373 1.334 . S
C377 C375 1.394 . S
C378 C374 1.413 . S
C378 C376 1.391 . S
C378 C393 1.437 . S
H379 C376 0.929 . S
O380 Gd336 2.545 . S
O380 C395 1.258 . S
O381 Gd336 2.606 . S
O381 Gd337 2.362 . S
O381 C392 1.284 . S
O382 Gd337 2.324 . S
O382 C402 1.254 . S
O383 Gd336 2.429 . S
O383 C402 1.268 . S
O384 Gd336 2.545 . S
O384 C392 1.250 . S
O385 Gd336 2.412 . S
O385 C395 1.252 . S
O386 Gd337 2.545 . S
O386 C404 1.258 . S
O387 Gd336 2.362 . S
O387 Gd337 2.606 . S
O387 C403 1.284 . S
O388 Gd336 2.324 . S
O388 C411 1.254 . S
O389 Gd337 2.429 . S
O389 C411 1.268 . S
O390 Gd337 2.545 . S
O390 C403 1.250 . S
O391 Gd337 2.412 . S
O391 C404 1.252 . S
C392 O381 1.284 . S
C392 O384 1.250 . S
C393 H362 0.929 . S
C393 C378 1.437 . S
C393 C394 1.317 . S
C394 H365 0.930 . S
C394 C370 1.431 . S
C394 C393 1.317 . S
C395 Gd336 2.828 . S
C395 O380 1.258 . S
C395 O385 1.252 . S
C395 C396 1.497 . S
C396 C395 1.497 . S
C396 C397 1.395 . S
C396 C398 1.380 . S
C397 C396 1.395 . S
C397 C400 1.398 . S
C397 H412 0.930 . S
C398 C396 1.380 . S
C398 C399 1.391 . S
C398 H413 0.930 . S
C399 C398 1.391 . S
C399 C401 1.387 . S
C400 C397 1.398 . S
C400 C401 1.380 . S
C400 H414 0.930 . S
C401 C399 1.387 . S
C401 C400 1.380 . S
C401 H415 0.930 . S
C402 O382 1.254 . S
C402 O383 1.268 . S
C403 O387 1.284 . S
C403 O390 1.250 . S
C404 Gd337 2.828 . S
C404 O386 1.258 . S
C404 O391 1.252 . S
C404 C405 1.497 . S
C405 C404 1.497 . S
C405 C406 1.395 . S
C405 C407 1.380 . S
C406 C405 1.395 . S
C406 C409 1.398 . S
C406 H416 0.930 . S
C407 C405 1.380 . S
C407 C408 1.391 . S
C407 H417 0.930 . S
C408 C407 1.391 . S
C408 C410 1.387 . S
C409 C406 1.398 . S
C409 C410 1.380 . S
C409 H418 0.930 . S
C410 C408 1.387 . S
C410 C409 1.380 . S
C410 H419 0.930 . S
C411 O388 1.254 . S
C411 O389 1.268 . S
H412 C397 0.930 . S
H413 C398 0.930 . S
H414 C400 0.930 . S
H415 C401 0.930 . S
H416 C406 0.930 . S
H417 C407 0.930 . S
H418 C409 0.930 . S
H419 C410 0.930 . S
Gd420 N451 2.661 . S
Gd420 N457 2.601 . S
Gd420 O464 2.545 . S
Gd420 O465 2.606 . S
Gd420 O467 2.429 . S
Gd420 O468 2.545 . S
Gd420 O469 2.412 . S
Gd420 O471 2.362 . S
Gd420 O472 2.324 . S
Gd420 C479 2.828 . S
Gd421 N430 2.661 . S
Gd421 N434 2.601 . S
Gd421 O465 2.362 . S
Gd421 O466 2.324 . S
Gd421 O470 2.545 . S
Gd421 O471 2.606 . S
Gd421 O473 2.429 . S
Gd421 O474 2.545 . S
Gd421 O475 2.412 . S
Gd421 C488 2.828 1_556 S
C422 C425 1.417 . S
C422 C427 1.431 . S
C422 C428 1.412 . S
C423 C426 1.437 . S
C423 C427 1.317 . S
C423 H442 0.929 . S
C424 C425 1.426 . S
C424 C426 1.413 . S
C424 N434 1.359 . S
C425 C422 1.417 . S
C425 C424 1.426 . S
C425 N430 1.350 . S
C426 C423 1.437 . S
C426 C424 1.413 . S
C426 C436 1.391 . S
C427 C422 1.431 . S
C427 C423 1.317 . S
C427 H438 0.930 . S
C428 C422 1.412 . S
C428 C429 1.355 . S
C428 H440 0.930 . S
C429 C428 1.355 . S
C429 C431 1.402 . S
C429 H441 0.930 . S
N430 Gd421 2.661 . S
N430 C425 1.350 . S
N430 C431 1.307 . S
C431 C429 1.402 . S
C431 N430 1.307 . S
C431 H432 0.930 . S
H432 C431 0.930 . S
C433 N434 1.334 . S
C433 C435 1.394 . S
C433 H437 0.930 . S
N434 Gd421 2.601 . S
N434 C424 1.359 . S
N434 C433 1.334 . S
C435 C433 1.394 . S
C435 C436 1.359 . S
C435 H447 0.930 . S
C436 C426 1.391 . S
C436 C435 1.359 . S
C436 H448 0.929 . S
H437 C433 0.930 . S
H438 C427 0.930 . S
H439 C456 0.930 . S
H440 C428 0.930 . S
H441 C429 0.930 . S
H442 C423 0.929 . S
H443 C461 0.930 . S
H444 C452 0.930 . S
H445 C453 0.930 . S
H446 C477 0.929 . S
H447 C435 0.930 . S
H448 C436 0.929 . S
H449 C478 0.930 . S
H450 C459 0.930 . S
N451 Gd420 2.661 . S
N451 C455 1.350 . S
N451 C456 1.307 . S
C452 H444 0.930 . S
C452 C453 1.355 . S
C452 C454 1.412 . S
C453 H445 0.930 . S
C453 C452 1.355 . S
C453 C456 1.402 . S
C454 C452 1.412 . S
C454 C455 1.417 . S
C454 C478 1.431 . S
C455 N451 1.350 . S
C455 C454 1.417 . S
C455 C458 1.426 . S
C456 H439 0.930 . S
C456 N451 1.307 . S
C456 C453 1.402 . S
N457 Gd420 2.601 . S
N457 C458 1.359 . S
N457 C461 1.334 . S
C458 C455 1.426 . S
C458 N457 1.359 . S
C458 C462 1.413 . S
C459 H450 0.930 . S
C459 C460 1.359 . S
C459 C461 1.394 . S
C460 C459 1.359 . S
C460 C462 1.391 . S
C460 H463 0.929 . S
C461 H443 0.930 . S
C461 N457 1.334 . S
C461 C459 1.394 . S
C462 C458 1.413 . S
C462 C460 1.391 . S
C462 C477 1.437 . S
H463 C460 0.929 . S
O464 Gd420 2.545 . S
O464 C479 1.258 . S
O465 Gd420 2.606 . S
O465 Gd421 2.362 . S
O465 C476 1.284 . S
O466 Gd421 2.324 . S
O466 C486 1.254 . S
O467 Gd420 2.429 . S
O467 C486 1.268 . S
O468 Gd420 2.545 . S
O468 C476 1.250 . S
O469 Gd420 2.412 . S
O469 C479 1.252 . S
O470 Gd421 2.545 . S
O470 C488 1.258 1_556 S
O471 Gd420 2.362 . S
O471 Gd421 2.606 . S
O471 C487 1.284 . S
O472 Gd420 2.324 . S
O472 C495 1.254 . S
O473 Gd421 2.429 . S
O473 C495 1.268 . S
O474 Gd421 2.545 . S
O474 C487 1.250 . S
O475 Gd421 2.412 . S
O475 C488 1.252 1_556 S
C476 O465 1.284 . S
C476 O468 1.250 . S
C477 H446 0.929 . S
C477 C462 1.437 . S
C477 C478 1.317 . S
C478 H449 0.930 . S
C478 C454 1.431 . S
C478 C477 1.317 . S
C479 Gd420 2.828 . S
C479 O464 1.258 . S
C479 O469 1.252 . S
C479 C480 1.497 . S
C480 C479 1.497 . S
C480 C481 1.395 . S
C480 C482 1.380 . S
C481 C480 1.395 . S
C481 C484 1.398 . S
C481 H496 0.930 . S
C482 C480 1.380 . S
C482 C483 1.391 . S
C482 H497 0.930 . S
C483 C482 1.391 . S
C483 C485 1.387 . S
C484 C481 1.398 . S
C484 C485 1.380 . S
C484 H498 0.930 . S
C485 C483 1.387 . S
C485 C484 1.380 . S
C485 H499 0.930 . S
C486 O466 1.254 . S
C486 O467 1.268 . S
C487 O471 1.284 . S
C487 O474 1.250 . S
C488 Gd421 2.828 1_554 S
C488 O470 1.258 1_554 S
C488 O475 1.252 1_554 S
C488 C489 1.497 . S
C489 C488 1.497 . S
C489 C490 1.395 . S
C489 C491 1.380 . S
C490 C489 1.395 . S
C490 C493 1.398 . S
C490 H500 0.930 . S
C491 C489 1.380 . S
C491 C492 1.391 . S
C491 H501 0.930 . S
C492 C491 1.391 . S
C492 C494 1.387 . S
C493 C490 1.398 . S
C493 C494 1.380 . S
C493 H502 0.930 . S
C494 C492 1.387 . S
C494 C493 1.380 . S
C494 H503 0.930 . S
C495 O472 1.254 . S
C495 O473 1.268 . S
H496 C481 0.930 . S
H497 C482 0.930 . S
H498 C484 0.930 . S
H499 C485 0.930 . S
H500 C490 0.930 . S
H501 C491 0.930 . S
H502 C493 0.930 . S
H503 C494 0.930 . S
Gd504 N535 2.661 . S
Gd504 N541 2.601 . S
Gd504 O548 2.545 . S
Gd504 O549 2.606 . S
Gd504 O551 2.429 . S
Gd504 O552 2.545 . S
Gd504 O553 2.412 . S
Gd504 O555 2.362 . S
Gd504 O556 2.324 . S
Gd504 C563 2.828 . S
Gd505 N514 2.661 . S
Gd505 N518 2.601 . S
Gd505 O549 2.362 . S
Gd505 O550 2.324 . S
Gd505 O554 2.545 . S
Gd505 O555 2.606 . S
Gd505 O557 2.429 . S
Gd505 O558 2.545 . S
Gd505 O559 2.412 . S
Gd505 C572 2.828 . S
C506 C509 1.417 . S
C506 C511 1.431 . S
C506 C512 1.412 . S
C507 C510 1.437 . S
C507 C511 1.317 . S
C507 H526 0.929 . S
C508 C509 1.426 . S
C508 C510 1.413 . S
C508 N518 1.359 . S
C509 C506 1.417 . S
C509 C508 1.426 . S
C509 N514 1.350 . S
C510 C507 1.437 . S
C510 C508 1.413 . S
C510 C520 1.391 . S
C511 C506 1.431 . S
C511 C507 1.317 . S
C511 H522 0.930 . S
C512 C506 1.412 . S
C512 C513 1.355 . S
C512 H524 0.930 . S
C513 C512 1.355 . S
C513 C515 1.402 . S
C513 H525 0.930 . S
N514 Gd505 2.661 . S
N514 C509 1.350 . S
N514 C515 1.307 . S
C515 C513 1.402 . S
C515 N514 1.307 . S
C515 H516 0.930 . S
H516 C515 0.930 . S
C517 N518 1.334 . S
C517 C519 1.394 . S
C517 H521 0.930 . S
N518 Gd505 2.601 . S
N518 C508 1.359 . S
N518 C517 1.334 . S
C519 C517 1.394 . S
C519 C520 1.359 . S
C519 H531 0.930 . S
C520 C510 1.391 . S
C520 C519 1.359 . S
C520 H532 0.929 . S
H521 C517 0.930 . S
H522 C511 0.930 . S
H523 C540 0.930 . S
H524 C512 0.930 . S
H525 C513 0.930 . S
H526 C507 0.929 . S
H527 C545 0.930 . S
H528 C536 0.930 . S
H529 C537 0.930 . S
H530 C561 0.929 . S
H531 C519 0.930 . S
H532 C520 0.929 . S
H533 C562 0.930 . S
H534 C543 0.930 . S
N535 Gd504 2.661 . S
N535 C539 1.350 . S
N535 C540 1.307 . S
C536 H528 0.930 . S
C536 C537 1.355 . S
C536 C538 1.412 . S
C537 H529 0.930 . S
C537 C536 1.355 . S
C537 C540 1.402 . S
C538 C536 1.412 . S
C538 C539 1.417 . S
C538 C562 1.431 . S
C539 N535 1.350 . S
C539 C538 1.417 . S
C539 C542 1.426 . S
C540 H523 0.930 . S
C540 N535 1.307 . S
C540 C537 1.402 . S
N541 Gd504 2.601 . S
N541 C542 1.359 . S
N541 C545 1.334 . S
C542 C539 1.426 . S
C542 N541 1.359 . S
C542 C546 1.413 . S
C543 H534 0.930 . S
C543 C544 1.359 . S
C543 C545 1.394 . S
C544 C543 1.359 . S
C544 C546 1.391 . S
C544 H547 0.929 . S
C545 H527 0.930 . S
C545 N541 1.334 . S
C545 C543 1.394 . S
C546 C542 1.413 . S
C546 C544 1.391 . S
C546 C561 1.437 . S
H547 C544 0.929 . S
O548 Gd504 2.545 . S
O548 C563 1.258 . S
O549 Gd504 2.606 . S
O549 Gd505 2.362 . S
O549 C560 1.284 . S
O550 Gd505 2.324 . S
O550 C570 1.254 . S
O551 Gd504 2.429 . S
O551 C570 1.268 . S
O552 Gd504 2.545 . S
O552 C560 1.250 . S
O553 Gd504 2.412 . S
O553 C563 1.252 . S
O554 Gd505 2.545 . S
O554 C572 1.258 . S
O555 Gd504 2.362 . S
O555 Gd505 2.606 . S
O555 C571 1.284 . S
O556 Gd504 2.324 . S
O556 C579 1.254 . S
O557 Gd505 2.429 . S
O557 C579 1.268 . S
O558 Gd505 2.545 . S
O558 C571 1.250 . S
O559 Gd505 2.412 . S
O559 C572 1.252 . S
C560 O549 1.284 . S
C560 O552 1.250 . S
C561 H530 0.929 . S
C561 C546 1.437 . S
C561 C562 1.317 . S
C562 H533 0.930 . S
C562 C538 1.431 . S
C562 C561 1.317 . S
C563 Gd504 2.828 . S
C563 O548 1.258 . S
C563 O553 1.252 . S
C563 C564 1.497 . S
C564 C563 1.497 . S
C564 C565 1.395 . S
C564 C566 1.380 . S
C565 C564 1.395 . S
C565 C568 1.398 . S
C565 H580 0.930 . S
C566 C564 1.380 . S
C566 C567 1.391 . S
C566 H581 0.930 . S
C567 C566 1.391 . S
C567 C569 1.387 . S
C568 C565 1.398 . S
C568 C569 1.380 . S
C568 H582 0.930 . S
C569 C567 1.387 . S
C569 C568 1.380 . S
C569 H583 0.930 . S
C570 O550 1.254 . S
C570 O551 1.268 . S
C571 O555 1.284 . S
C571 O558 1.250 . S
C572 Gd505 2.828 . S
C572 O554 1.258 . S
C572 O559 1.252 . S
C572 C573 1.497 . S
C573 C572 1.497 . S
C573 C574 1.395 . S
C573 C575 1.380 . S
C574 C573 1.395 . S
C574 C577 1.398 . S
C574 H584 0.930 . S
C575 C573 1.380 . S
C575 C576 1.391 . S
C575 H585 0.930 . S
C576 C575 1.391 . S
C576 C578 1.387 . S
C577 C574 1.398 . S
C577 C578 1.380 . S
C577 H586 0.930 . S
C578 C576 1.387 . S
C578 C577 1.380 . S
C578 H587 0.930 . S
C579 O556 1.254 . S
C579 O557 1.268 . S
H580 C565 0.930 . S
H581 C566 0.930 . S
H582 C568 0.930 . S
H583 C569 0.930 . S
H584 C574 0.930 . S
H585 C575 0.930 . S
H586 C577 0.930 . S
H587 C578 0.930 . S
Gd588 N619 2.661 . S
Gd588 N625 2.601 . S
Gd588 O632 2.545 . S
Gd588 O633 2.606 . S
Gd588 O635 2.429 . S
Gd588 O636 2.545 . S
Gd588 O637 2.412 . S
Gd588 O639 2.362 . S
Gd588 O640 2.324 . S
Gd588 C647 2.828 . S
Gd589 N598 2.661 . S
Gd589 N602 2.601 . S
Gd589 O633 2.362 . S
Gd589 O634 2.324 . S
Gd589 O638 2.545 . S
Gd589 O639 2.606 . S
Gd589 O641 2.429 . S
Gd589 O642 2.545 . S
Gd589 O643 2.412 . S
Gd589 C656 2.828 . S
C590 C593 1.417 . S
C590 C595 1.431 . S
C590 C596 1.412 . S
C591 C594 1.437 . S
C591 C595 1.317 . S
C591 H610 0.929 . S
C592 C593 1.426 . S
C592 C594 1.413 . S
C592 N602 1.359 . S
C593 C590 1.417 . S
C593 C592 1.426 . S
C593 N598 1.350 . S
C594 C591 1.437 . S
C594 C592 1.413 . S
C594 C604 1.391 . S
C595 C590 1.431 . S
C595 C591 1.317 . S
C595 H606 0.930 . S
C596 C590 1.412 . S
C596 C597 1.355 . S
C596 H608 0.930 . S
C597 C596 1.355 . S
C597 C599 1.402 . S
C597 H609 0.930 . S
N598 Gd589 2.661 . S
N598 C593 1.350 . S
N598 C599 1.307 . S
C599 C597 1.402 . S
C599 N598 1.307 . S
C599 H600 0.930 . S
H600 C599 0.930 . S
C601 N602 1.334 . S
C601 C603 1.394 . S
C601 H605 0.930 . S
N602 Gd589 2.601 . S
N602 C592 1.359 . S
N602 C601 1.334 . S
C603 C601 1.394 . S
C603 C604 1.359 . S
C603 H615 0.930 . S
C604 C594 1.391 . S
C604 C603 1.359 . S
C604 H616 0.929 . S
H605 C601 0.930 . S
H606 C595 0.930 . S
H607 C624 0.930 . S
H608 C596 0.930 . S
H609 C597 0.930 . S
H610 C591 0.929 . S
H611 C629 0.930 . S
H612 C620 0.930 . S
H613 C621 0.930 . S
H614 C645 0.929 . S
H615 C603 0.930 . S
H616 C604 0.929 . S
H617 C646 0.930 . S
H618 C627 0.930 . S
N619 Gd588 2.661 . S
N619 C623 1.350 . S
N619 C624 1.307 . S
C620 H612 0.930 . S
C620 C621 1.355 . S
C620 C622 1.412 . S
C621 H613 0.930 . S
C621 C620 1.355 . S
C621 C624 1.402 . S
C622 C620 1.412 . S
C622 C623 1.417 . S
C622 C646 1.431 . S
C623 N619 1.350 . S
C623 C622 1.417 . S
C623 C626 1.426 . S
C624 H607 0.930 . S
C624 N619 1.307 . S
C624 C621 1.402 . S
N625 Gd588 2.601 . S
N625 C626 1.359 . S
N625 C629 1.334 . S
C626 C623 1.426 . S
C626 N625 1.359 . S
C626 C630 1.413 . S
C627 H618 0.930 . S
C627 C628 1.359 . S
C627 C629 1.394 . S
C628 C627 1.359 . S
C628 C630 1.391 . S
C628 H631 0.929 . S
C629 H611 0.930 . S
C629 N625 1.334 . S
C629 C627 1.394 . S
C630 C626 1.413 . S
C630 C628 1.391 . S
C630 C645 1.437 . S
H631 C628 0.929 . S
O632 Gd588 2.545 . S
O632 C647 1.258 . S
O633 Gd588 2.606 . S
O633 Gd589 2.362 . S
O633 C644 1.284 . S
O634 Gd589 2.324 . S
O634 C654 1.254 . S
O635 Gd588 2.429 . S
O635 C654 1.268 . S
O636 Gd588 2.545 . S
O636 C644 1.250 . S
O637 Gd588 2.412 . S
O637 C647 1.252 . S
O638 Gd589 2.545 . S
O638 C656 1.258 . S
O639 Gd588 2.362 . S
O639 Gd589 2.606 . S
O639 C655 1.284 . S
O640 Gd588 2.324 . S
O640 C663 1.254 . S
O641 Gd589 2.429 . S
O641 C663 1.268 . S
O642 Gd589 2.545 . S
O642 C655 1.250 . S
O643 Gd589 2.412 . S
O643 C656 1.252 . S
C644 O633 1.284 . S
C644 O636 1.250 . S
C645 H614 0.929 . S
C645 C630 1.437 . S
C645 C646 1.317 . S
C646 H617 0.930 . S
C646 C622 1.431 . S
C646 C645 1.317 . S
C647 Gd588 2.828 . S
C647 O632 1.258 . S
C647 O637 1.252 . S
C647 C648 1.497 . S
C648 C647 1.497 . S
C648 C649 1.395 . S
C648 C650 1.380 . S
C649 C648 1.395 . S
C649 C652 1.398 . S
C649 H664 0.930 . S
C650 C648 1.380 . S
C650 C651 1.391 . S
C650 H665 0.930 . S
C651 C650 1.391 . S
C651 C653 1.387 . S
C652 C649 1.398 . S
C652 C653 1.380 . S
C652 H666 0.930 . S
C653 C651 1.387 . S
C653 C652 1.380 . S
C653 H667 0.930 . S
C654 O634 1.254 . S
C654 O635 1.268 . S
C655 O639 1.284 . S
C655 O642 1.250 . S
C656 Gd589 2.828 . S
C656 O638 1.258 . S
C656 O643 1.252 . S
C656 C657 1.497 . S
C657 C656 1.497 . S
C657 C658 1.395 . S
C657 C659 1.380 . S
C658 C657 1.395 . S
C658 C661 1.398 . S
C658 H668 0.930 . S
C659 C657 1.380 . S
C659 C660 1.391 . S
C659 H669 0.930 . S
C660 C659 1.391 . S
C660 C662 1.387 . S
C661 C658 1.398 . S
C661 C662 1.380 . S
C661 H670 0.930 . S
C662 C660 1.387 . S
C662 C661 1.380 . S
C662 H671 0.930 . S
C663 O640 1.254 . S
C663 O641 1.268 . S
H664 C649 0.930 . S
H665 C650 0.930 . S
H666 C652 0.930 . S
H667 C653 0.930 . S
H668 C658 0.930 . S
H669 C659 0.930 . S
H670 C661 0.930 . S
H671 C662 0.930 . S
Gd672 N703 2.661 . S
Gd672 N709 2.601 . S
Gd672 O716 2.545 . S
Gd672 O717 2.606 . S
Gd672 O719 2.429 . S
Gd672 O720 2.545 . S
Gd672 O721 2.412 . S
Gd672 O723 2.362 . S
Gd672 O724 2.324 . S
Gd672 C731 2.828 . S
Gd673 N682 2.661 . S
Gd673 N686 2.601 . S
Gd673 O717 2.362 . S
Gd673 O718 2.324 . S
Gd673 O722 2.545 . S
Gd673 O723 2.606 . S
Gd673 O725 2.429 . S
Gd673 O726 2.545 . S
Gd673 O727 2.412 . S
Gd673 C740 2.828 1_554 S
C674 C677 1.417 . S
C674 C679 1.431 . S
C674 C680 1.412 . S
C675 C678 1.437 . S
C675 C679 1.317 . S
C675 H694 0.929 . S
C676 C677 1.426 . S
C676 C678 1.413 . S
C676 N686 1.359 . S
C677 C674 1.417 . S
C677 C676 1.426 . S
C677 N682 1.350 . S
C678 C675 1.437 . S
C678 C676 1.413 . S
C678 C688 1.391 . S
C679 C674 1.431 . S
C679 C675 1.317 . S
C679 H690 0.930 . S
C680 C674 1.412 . S
C680 C681 1.355 . S
C680 H692 0.930 . S
C681 C680 1.355 . S
C681 C683 1.402 . S
C681 H693 0.930 . S
N682 Gd673 2.661 . S
N682 C677 1.350 . S
N682 C683 1.307 . S
C683 C681 1.402 . S
C683 N682 1.307 . S
C683 H684 0.930 . S
H684 C683 0.930 . S
C685 N686 1.334 . S
C685 C687 1.394 . S
C685 H689 0.930 . S
N686 Gd673 2.601 . S
N686 C676 1.359 . S
N686 C685 1.334 . S
C687 C685 1.394 . S
C687 C688 1.359 . S
C687 H699 0.930 . S
C688 C678 1.391 . S
C688 C687 1.359 . S
C688 H700 0.929 . S
H689 C685 0.930 . S
H690 C679 0.930 . S
H691 C708 0.930 . S
H692 C680 0.930 . S
H693 C681 0.930 . S
H694 C675 0.929 . S
H695 C713 0.930 . S
H696 C704 0.930 . S
H697 C705 0.930 . S
H698 C729 0.929 . S
H699 C687 0.930 . S
H700 C688 0.929 . S
H701 C730 0.930 . S
H702 C711 0.930 . S
N703 Gd672 2.661 . S
N703 C707 1.350 . S
N703 C708 1.307 . S
C704 H696 0.930 . S
C704 C705 1.355 . S
C704 C706 1.412 . S
C705 H697 0.930 . S
C705 C704 1.355 . S
C705 C708 1.402 . S
C706 C704 1.412 . S
C706 C707 1.417 . S
C706 C730 1.431 . S
C707 N703 1.350 . S
C707 C706 1.417 . S
C707 C710 1.426 . S
C708 H691 0.930 . S
C708 N703 1.307 . S
C708 C705 1.402 . S
N709 Gd672 2.601 . S
N709 C710 1.359 . S
N709 C713 1.334 . S
C710 C707 1.426 . S
C710 N709 1.359 . S
C710 C714 1.413 . S
C711 H702 0.930 . S
C711 C712 1.359 . S
C711 C713 1.394 . S
C712 C711 1.359 . S
C712 C714 1.391 . S
C712 H715 0.929 . S
C713 H695 0.930 . S
C713 N709 1.334 . S
C713 C711 1.394 . S
C714 C710 1.413 . S
C714 C712 1.391 . S
C714 C729 1.437 . S
H715 C712 0.929 . S
O716 Gd672 2.545 . S
O716 C731 1.258 . S
O717 Gd672 2.606 . S
O717 Gd673 2.362 . S
O717 C728 1.284 . S
O718 Gd673 2.324 . S
O718 C738 1.254 . S
O719 Gd672 2.429 . S
O719 C738 1.268 . S
O720 Gd672 2.545 . S
O720 C728 1.250 . S
O721 Gd672 2.412 . S
O721 C731 1.252 . S
O722 Gd673 2.545 . S
O722 C740 1.258 1_554 S
O723 Gd672 2.362 . S
O723 Gd673 2.606 . S
O723 C739 1.284 . S
O724 Gd672 2.324 . S
O724 C747 1.254 . S
O725 Gd673 2.429 . S
O725 C747 1.268 . S
O726 Gd673 2.545 . S
O726 C739 1.250 . S
O727 Gd673 2.412 . S
O727 C740 1.252 1_554 S
C728 O717 1.284 . S
C728 O720 1.250 . S
C729 H698 0.929 . S
C729 C714 1.437 . S
C729 C730 1.317 . S
C730 H701 0.930 . S
C730 C706 1.431 . S
C730 C729 1.317 . S
C731 Gd672 2.828 . S
C731 O716 1.258 . S
C731 O721 1.252 . S
C731 C732 1.497 . S
C732 C731 1.497 . S
C732 C733 1.395 . S
C732 C734 1.380 . S
C733 C732 1.395 . S
C733 C736 1.398 . S
C733 H748 0.930 . S
C734 C732 1.380 . S
C734 C735 1.391 . S
C734 H749 0.930 . S
C735 C734 1.391 . S
C735 C737 1.387 . S
C736 C733 1.398 . S
C736 C737 1.380 . S
C736 H750 0.930 . S
C737 C735 1.387 . S
C737 C736 1.380 . S
C737 H751 0.930 . S
C738 O718 1.254 . S
C738 O719 1.268 . S
C739 O723 1.284 . S
C739 O726 1.250 . S
C740 Gd673 2.828 1_556 S
C740 O722 1.258 1_556 S
C740 O727 1.252 1_556 S
C740 C741 1.497 . S
C741 C740 1.497 . S
C741 C742 1.395 . S
C741 C743 1.380 . S
C742 C741 1.395 . S
C742 C745 1.398 . S
C742 H752 0.930 . S
C743 C741 1.380 . S
C743 C744 1.391 . S
C743 H753 0.930 . S
C744 C743 1.391 . S
C744 C746 1.387 . S
C745 C742 1.398 . S
C745 C746 1.380 . S
C745 H754 0.930 . S
C746 C744 1.387 . S
C746 C745 1.380 . S
C746 H755 0.930 . S
C747 O724 1.254 . S
C747 O725 1.268 . S
H748 C733 0.930 . S
H749 C734 0.930 . S
H750 C736 0.930 . S
H751 C737 0.930 . S
H752 C742 0.930 . S
H753 C743 0.930 . S
H754 C745 0.930 . S
H755 C746 0.930 . S
Gd756 N787 2.661 . S
Gd756 N793 2.601 . S
Gd756 O800 2.545 . S
Gd756 O801 2.606 . S
Gd756 O803 2.429 . S
Gd756 O804 2.545 . S
Gd756 O805 2.412 . S
Gd756 O807 2.362 . S
Gd756 O808 2.324 . S
Gd756 C815 2.828 . S
Gd757 N766 2.661 . S
Gd757 N770 2.601 . S
Gd757 O801 2.362 . S
Gd757 O802 2.324 . S
Gd757 O806 2.545 . S
Gd757 O807 2.606 . S
Gd757 O809 2.429 . S
Gd757 O810 2.545 . S
Gd757 O811 2.412 . S
Gd757 C824 2.828 . S
C758 C761 1.417 . S
C758 C763 1.431 . S
C758 C764 1.412 . S
C759 C762 1.437 . S
C759 C763 1.317 . S
C759 H778 0.929 . S
C760 C761 1.426 . S
C760 C762 1.413 . S
C760 N770 1.359 . S
C761 C758 1.417 . S
C761 C760 1.426 . S
C761 N766 1.350 . S
C762 C759 1.437 . S
C762 C760 1.413 . S
C762 C772 1.391 . S
C763 C758 1.431 . S
C763 C759 1.317 . S
C763 H774 0.930 . S
C764 C758 1.412 . S
C764 C765 1.355 . S
C764 H776 0.930 . S
C765 C764 1.355 . S
C765 C767 1.402 . S
C765 H777 0.930 . S
N766 Gd757 2.661 . S
N766 C761 1.350 . S
N766 C767 1.307 . S
C767 C765 1.402 . S
C767 N766 1.307 . S
C767 H768 0.930 . S
H768 C767 0.930 . S
C769 N770 1.334 . S
C769 C771 1.394 . S
C769 H773 0.930 . S
N770 Gd757 2.601 . S
N770 C760 1.359 . S
N770 C769 1.334 . S
C771 C769 1.394 . S
C771 C772 1.359 . S
C771 H783 0.930 . S
C772 C762 1.391 . S
C772 C771 1.359 . S
C772 H784 0.929 . S
H773 C769 0.930 . S
H774 C763 0.930 . S
H775 C792 0.930 . S
H776 C764 0.930 . S
H777 C765 0.930 . S
H778 C759 0.929 . S
H779 C797 0.930 . S
H780 C788 0.930 . S
H781 C789 0.930 . S
H782 C813 0.929 . S
H783 C771 0.930 . S
H784 C772 0.929 . S
H785 C814 0.930 . S
H786 C795 0.930 . S
N787 Gd756 2.661 . S
N787 C791 1.350 . S
N787 C792 1.307 . S
C788 H780 0.930 . S
C788 C789 1.355 . S
C788 C790 1.412 . S
C789 H781 0.930 . S
C789 C788 1.355 . S
C789 C792 1.402 . S
C790 C788 1.412 . S
C790 C791 1.417 . S
C790 C814 1.431 . S
C791 N787 1.350 . S
C791 C790 1.417 . S
C791 C794 1.426 . S
C792 H775 0.930 . S
C792 N787 1.307 . S
C792 C789 1.402 . S
N793 Gd756 2.601 . S
N793 C794 1.359 . S
N793 C797 1.334 . S
C794 C791 1.426 . S
C794 N793 1.359 . S
C794 C798 1.413 . S
C795 H786 0.930 . S
C795 C796 1.359 . S
C795 C797 1.394 . S
C796 C795 1.359 . S
C796 C798 1.391 . S
C796 H799 0.929 . S
C797 H779 0.930 . S
C797 N793 1.334 . S
C797 C795 1.394 . S
C798 C794 1.413 . S
C798 C796 1.391 . S
C798 C813 1.437 . S
H799 C796 0.929 . S
O800 Gd756 2.545 . S
O800 C815 1.258 . S
O801 Gd756 2.606 . S
O801 Gd757 2.362 . S
O801 C812 1.284 . S
O802 Gd757 2.324 . S
O802 C822 1.254 . S
O803 Gd756 2.429 . S
O803 C822 1.268 . S
O804 Gd756 2.545 . S
O804 C812 1.250 . S
O805 Gd756 2.412 . S
O805 C815 1.252 . S
O806 Gd757 2.545 . S
O806 C824 1.258 . S
O807 Gd756 2.362 . S
O807 Gd757 2.606 . S
O807 C823 1.284 . S
O808 Gd756 2.324 . S
O808 C831 1.254 . S
O809 Gd757 2.429 . S
O809 C831 1.268 . S
O810 Gd757 2.545 . S
O810 C823 1.250 . S
O811 Gd757 2.412 . S
O811 C824 1.252 . S
C812 O801 1.284 . S
C812 O804 1.250 . S
C813 H782 0.929 . S
C813 C798 1.437 . S
C813 C814 1.317 . S
C814 H785 0.930 . S
C814 C790 1.431 . S
C814 C813 1.317 . S
C815 Gd756 2.828 . S
C815 O800 1.258 . S
C815 O805 1.252 . S
C815 C816 1.497 . S
C816 C815 1.497 . S
C816 C817 1.395 . S
C816 C818 1.380 . S
C817 C816 1.395 . S
C817 C820 1.398 . S
C817 H832 0.930 . S
C818 C816 1.380 . S
C818 C819 1.391 . S
C818 H833 0.930 . S
C819 C818 1.391 . S
C819 C821 1.387 . S
C820 C817 1.398 . S
C820 C821 1.380 . S
C820 H834 0.930 . S
C821 C819 1.387 . S
C821 C820 1.380 . S
C821 H835 0.930 . S
C822 O802 1.254 . S
C822 O803 1.268 . S
C823 O807 1.284 . S
C823 O810 1.250 . S
C824 Gd757 2.828 . S
C824 O806 1.258 . S
C824 O811 1.252 . S
C824 C825 1.497 . S
C825 C824 1.497 . S
C825 C826 1.395 . S
C825 C827 1.380 . S
C826 C825 1.395 . S
C826 C829 1.398 . S
C826 H836 0.930 . S
C827 C825 1.380 . S
C827 C828 1.391 . S
C827 H837 0.930 . S
C828 C827 1.391 . S
C828 C830 1.387 . S
C829 C826 1.398 . S
C829 C830 1.380 . S
C829 H838 0.930 . S
C830 C828 1.387 . S
C830 C829 1.380 . S
C830 H839 0.930 . S
C831 O808 1.254 . S
C831 O809 1.268 . S
H832 C817 0.930 . S
H833 C818 0.930 . S
H834 C820 0.930 . S
H835 C821 0.930 . S
H836 C826 0.930 . S
H837 C827 0.930 . S
H838 C829 0.930 . S
H839 C830 0.930 . S
Gd840 N871 2.661 . S
Gd840 N877 2.601 . S
Gd840 O884 2.545 . S
Gd840 O885 2.606 . S
Gd840 O887 2.429 . S
Gd840 O888 2.545 . S
Gd840 O889 2.412 . S
Gd840 O891 2.362 . S
Gd840 O892 2.324 . S
Gd840 C899 2.828 . S
Gd841 N850 2.661 . S
Gd841 N854 2.601 . S
Gd841 O885 2.362 . S
Gd841 O886 2.324 . S
Gd841 O890 2.545 . S
Gd841 O891 2.606 . S
Gd841 O893 2.429 . S
Gd841 O894 2.545 . S
Gd841 O895 2.412 . S
Gd841 C908 2.828 . S
C842 C845 1.417 . S
C842 C847 1.431 . S
C842 C848 1.412 . S
C843 C846 1.437 . S
C843 C847 1.317 . S
C843 H862 0.929 . S
C844 C845 1.426 . S
C844 C846 1.413 . S
C844 N854 1.359 . S
C845 C842 1.417 . S
C845 C844 1.426 . S
C845 N850 1.350 . S
C846 C843 1.437 . S
C846 C844 1.413 . S
C846 C856 1.391 . S
C847 C842 1.431 . S
C847 C843 1.317 . S
C847 H858 0.930 . S
C848 C842 1.412 . S
C848 C849 1.355 . S
C848 H860 0.930 . S
C849 C848 1.355 . S
C849 C851 1.402 . S
C849 H861 0.930 . S
N850 Gd841 2.661 . S
N850 C845 1.350 . S
N850 C851 1.307 . S
C851 C849 1.402 . S
C851 N850 1.307 . S
C851 H852 0.930 . S
H852 C851 0.930 . S
C853 N854 1.334 . S
C853 C855 1.394 . S
C853 H857 0.930 . S
N854 Gd841 2.601 . S
N854 C844 1.359 . S
N854 C853 1.334 . S
C855 C853 1.394 . S
C855 C856 1.359 . S
C855 H867 0.930 . S
C856 C846 1.391 . S
C856 C855 1.359 . S
C856 H868 0.929 . S
H857 C853 0.930 . S
H858 C847 0.930 . S
H859 C876 0.930 . S
H860 C848 0.930 . S
H861 C849 0.930 . S
H862 C843 0.929 . S
H863 C881 0.930 . S
H864 C872 0.930 . S
H865 C873 0.930 . S
H866 C897 0.929 . S
H867 C855 0.930 . S
H868 C856 0.929 . S
H869 C898 0.930 . S
H870 C879 0.930 . S
N871 Gd840 2.661 . S
N871 C875 1.350 . S
N871 C876 1.307 . S
C872 H864 0.930 . S
C872 C873 1.355 . S
C872 C874 1.412 . S
C873 H865 0.930 . S
C873 C872 1.355 . S
C873 C876 1.402 . S
C874 C872 1.412 . S
C874 C875 1.417 . S
C874 C898 1.431 . S
C875 N871 1.350 . S
C875 C874 1.417 . S
C875 C878 1.426 . S
C876 H859 0.930 . S
C876 N871 1.307 . S
C876 C873 1.402 . S
N877 Gd840 2.601 . S
N877 C878 1.359 . S
N877 C881 1.334 . S
C878 C875 1.426 . S
C878 N877 1.359 . S
C878 C882 1.413 . S
C879 H870 0.930 . S
C879 C880 1.359 . S
C879 C881 1.394 . S
C880 C879 1.359 . S
C880 C882 1.391 . S
C880 H883 0.929 . S
C881 H863 0.930 . S
C881 N877 1.334 . S
C881 C879 1.394 . S
C882 C878 1.413 . S
C882 C880 1.391 . S
C882 C897 1.437 . S
H883 C880 0.929 . S
O884 Gd840 2.545 . S
O884 C899 1.258 . S
O885 Gd840 2.606 . S
O885 Gd841 2.362 . S
O885 C896 1.284 . S
O886 Gd841 2.324 . S
O886 C906 1.254 . S
O887 Gd840 2.429 . S
O887 C906 1.268 . S
O888 Gd840 2.545 . S
O888 C896 1.250 . S
O889 Gd840 2.412 . S
O889 C899 1.252 . S
O890 Gd841 2.545 . S
O890 C908 1.258 . S
O891 Gd840 2.362 . S
O891 Gd841 2.606 . S
O891 C907 1.284 . S
O892 Gd840 2.324 . S
O892 C915 1.254 . S
O893 Gd841 2.429 . S
O893 C915 1.268 . S
O894 Gd841 2.545 . S
O894 C907 1.250 . S
O895 Gd841 2.412 . S
O895 C908 1.252 . S
C896 O885 1.284 . S
C896 O888 1.250 . S
C897 H866 0.929 . S
C897 C882 1.437 . S
C897 C898 1.317 . S
C898 H869 0.930 . S
C898 C874 1.431 . S
C898 C897 1.317 . S
C899 Gd840 2.828 . S
C899 O884 1.258 . S
C899 O889 1.252 . S
C899 C900 1.497 . S
C900 C899 1.497 . S
C900 C901 1.395 . S
C900 C902 1.380 . S
C901 C900 1.395 . S
C901 C904 1.398 . S
C901 H916 0.930 . S
C902 C900 1.380 . S
C902 C903 1.391 . S
C902 H917 0.930 . S
C903 C902 1.391 . S
C903 C905 1.387 . S
C904 C901 1.398 . S
C904 C905 1.380 . S
C904 H918 0.930 . S
C905 C903 1.387 . S
C905 C904 1.380 . S
C905 H919 0.930 . S
C906 O886 1.254 . S
C906 O887 1.268 . S
C907 O891 1.284 . S
C907 O894 1.250 . S
C908 Gd841 2.828 . S
C908 O890 1.258 . S
C908 O895 1.252 . S
C908 C909 1.497 . S
C909 C908 1.497 . S
C909 C910 1.395 . S
C909 C911 1.380 . S
C910 C909 1.395 . S
C910 C913 1.398 . S
C910 H920 0.930 . S
C911 C909 1.380 . S
C911 C912 1.391 . S
C911 H921 0.930 . S
C912 C911 1.391 . S
C912 C914 1.387 . S
C913 C910 1.398 . S
C913 C914 1.380 . S
C913 H922 0.930 . S
C914 C912 1.387 . S
C914 C913 1.380 . S
C914 H923 0.930 . S
C915 O892 1.254 . S
C915 O893 1.268 . S
H916 C901 0.930 . S
H917 C902 0.930 . S
H918 C904 0.930 . S
H919 C905 0.930 . S
H920 C910 0.930 . S
H921 C911 0.930 . S
H922 C913 0.930 . S
H923 C914 0.930 . S
Gd924 N955 2.661 . S
Gd924 N961 2.601 . S
Gd924 O968 2.545 . S
Gd924 O969 2.606 . S
Gd924 O971 2.429 . S
Gd924 O972 2.545 . S
Gd924 O973 2.412 . S
Gd924 O975 2.362 . S
Gd924 O976 2.324 . S
Gd924 C983 2.828 . S
Gd925 N934 2.661 . S
Gd925 N938 2.601 . S
Gd925 O969 2.362 . S
Gd925 O970 2.324 . S
Gd925 O974 2.545 . S
Gd925 O975 2.606 . S
Gd925 O977 2.429 . S
Gd925 O978 2.545 . S
Gd925 O979 2.412 . S
Gd925 C992 2.828 1_554 S
C926 C929 1.417 . S
C926 C931 1.431 . S
C926 C932 1.412 . S
C927 C930 1.437 . S
C927 C931 1.317 . S
C927 H946 0.929 . S
C928 C929 1.426 . S
C928 C930 1.413 . S
C928 N938 1.359 . S
C929 C926 1.417 . S
C929 C928 1.426 . S
C929 N934 1.350 . S
C930 C927 1.437 . S
C930 C928 1.413 . S
C930 C940 1.391 . S
C931 C926 1.431 . S
C931 C927 1.317 . S
C931 H942 0.930 . S
C932 C926 1.412 . S
C932 C933 1.355 . S
C932 H944 0.930 . S
C933 C932 1.355 . S
C933 C935 1.402 . S
C933 H945 0.930 . S
N934 Gd925 2.661 . S
N934 C929 1.350 . S
N934 C935 1.307 . S
C935 C933 1.402 . S
C935 N934 1.307 . S
C935 H936 0.930 . S
H936 C935 0.930 . S
C937 N938 1.334 . S
C937 C939 1.394 . S
C937 H941 0.930 . S
N938 Gd925 2.601 . S
N938 C928 1.359 . S
N938 C937 1.334 . S
C939 C937 1.394 . S
C939 C940 1.359 . S
C939 H951 0.930 . S
C940 C930 1.391 . S
C940 C939 1.359 . S
C940 H952 0.929 . S
H941 C937 0.930 . S
H942 C931 0.930 . S
H943 C960 0.930 . S
H944 C932 0.930 . S
H945 C933 0.930 . S
H946 C927 0.929 . S
H947 C965 0.930 . S
H948 C956 0.930 . S
H949 C957 0.930 . S
H950 C981 0.929 . S
H951 C939 0.930 . S
H952 C940 0.929 . S
H953 C982 0.930 . S
H954 C963 0.930 . S
N955 Gd924 2.661 . S
N955 C959 1.350 . S
N955 C960 1.307 . S
C956 H948 0.930 . S
C956 C957 1.355 . S
C956 C958 1.412 . S
C957 H949 0.930 . S
C957 C956 1.355 . S
C957 C960 1.402 . S
C958 C956 1.412 . S
C958 C959 1.417 . S
C958 C982 1.431 . S
C959 N955 1.350 . S
C959 C958 1.417 . S
C959 C962 1.426 . S
C960 H943 0.930 . S
C960 N955 1.307 . S
C960 C957 1.402 . S
N961 Gd924 2.601 . S
N961 C962 1.359 . S
N961 C965 1.334 . S
C962 C959 1.426 . S
C962 N961 1.359 . S
C962 C966 1.413 . S
C963 H954 0.930 . S
C963 C964 1.359 . S
C963 C965 1.394 . S
C964 C963 1.359 . S
C964 C966 1.391 . S
C964 H967 0.929 . S
C965 H947 0.930 . S
C965 N961 1.334 . S
C965 C963 1.394 . S
C966 C962 1.413 . S
C966 C964 1.391 . S
C966 C981 1.437 . S
H967 C964 0.929 . S
O968 Gd924 2.545 . S
O968 C983 1.258 . S
O969 Gd924 2.606 . S
O969 Gd925 2.362 . S
O969 C980 1.284 . S
O970 Gd925 2.324 . S
O970 C990 1.254 . S
O971 Gd924 2.429 . S
O971 C990 1.268 . S
O972 Gd924 2.545 . S
O972 C980 1.250 . S
O973 Gd924 2.412 . S
O973 C983 1.252 . S
O974 Gd925 2.545 . S
O974 C992 1.258 1_554 S
O975 Gd924 2.362 . S
O975 Gd925 2.606 . S
O975 C991 1.284 . S
O976 Gd924 2.324 . S
O976 C999 1.254 . S
O977 Gd925 2.429 . S
O977 C999 1.268 . S
O978 Gd925 2.545 . S
O978 C991 1.250 . S
O979 Gd925 2.412 . S
O979 C992 1.252 1_554 S
C980 O969 1.284 . S
C980 O972 1.250 . S
C981 H950 0.929 . S
C981 C966 1.437 . S
C981 C982 1.317 . S
C982 H953 0.930 . S
C982 C958 1.431 . S
C982 C981 1.317 . S
C983 Gd924 2.828 . S
C983 O968 1.258 . S
C983 O973 1.252 . S
C983 C984 1.497 . S
C984 C983 1.497 . S
C984 C985 1.395 . S
C984 C986 1.380 . S
C985 C984 1.395 . S
C985 C988 1.398 . S
C985 H1000 0.930 . S
C986 C984 1.380 . S
C986 C987 1.391 . S
C986 H1001 0.930 . S
C987 C986 1.391 . S
C987 C989 1.387 . S
C988 C985 1.398 . S
C988 C989 1.380 . S
C988 H1002 0.930 . S
C989 C987 1.387 . S
C989 C988 1.380 . S
C989 H1003 0.930 . S
C990 O970 1.254 . S
C990 O971 1.268 . S
C991 O975 1.284 . S
C991 O978 1.250 . S
C992 Gd925 2.828 1_556 S
C992 O974 1.258 1_556 S
C992 O979 1.252 1_556 S
C992 C993 1.497 . S
C993 C992 1.497 . S
C993 C994 1.395 . S
C993 C995 1.380 . S
C994 C993 1.395 . S
C994 C997 1.398 . S
C994 H1004 0.930 . S
C995 C993 1.380 . S
C995 C996 1.391 . S
C995 H1005 0.930 . S
C996 C995 1.391 . S
C996 C998 1.387 . S
C997 C994 1.398 . S
C997 C998 1.380 . S
C997 H1006 0.930 . S
C998 C996 1.387 . S
C998 C997 1.380 . S
C998 H1007 0.930 . S
C999 O976 1.254 . S
C999 O977 1.268 . S
H1000 C985 0.930 . S
H1001 C986 0.930 . S
H1002 C988 0.930 . S
H1003 C989 0.930 . S
H1004 C994 0.930 . S
H1005 C995 0.930 . S
H1006 C997 0.930 . S
H1007 C998 0.930 . S
H1008 C1016 0.929 . S
H1009 C1018 0.930 . S
H1010 C1020 0.930 . S
H1011 C1023 0.929 . S
H1012 C1026 0.930 . S
H1013 C1028 0.960 . S
H1014 C1028 0.960 . S
H1015 C1028 0.960 . S
C1016 H1008 0.929 . S
C1016 C1017 1.377 . S
C1016 C1018 1.384 . S
C1017 C1016 1.377 . S
C1017 C1023 1.390 . S
C1018 H1009 0.930 . S
C1018 C1016 1.384 . S
C1018 C1019 1.372 . S
C1019 C1018 1.372 . S
C1019 C1020 1.400 . S
C1019 C1024 1.490 . S
C1020 H1010 0.930 . S
C1020 C1019 1.400 . S
C1020 C1023 1.386 . S
H1021 C1037 0.930 . S
H1022 C1038 0.931 . S
C1023 H1011 0.929 . S
C1023 C1017 1.390 . S
C1023 C1020 1.386 . S
C1024 C1019 1.490 . S
C1024 C1026 1.395 . S
C1024 C1027 1.403 . S
H1025 C1031 0.930 . S
C1026 H1012 0.930 . S
C1026 C1024 1.395 . S
C1026 C1029 1.403 . S
C1027 C1024 1.403 . S
C1027 C1028 1.524 . S
C1027 C1031 1.400 . S
C1028 H1013 0.960 . S
C1028 H1014 0.960 . S
C1028 H1015 0.960 . S
C1028 C1027 1.524 . S
C1029 C1026 1.403 . S
C1029 C1030 1.392 . S
C1029 C1033 1.495 . S
C1030 C1029 1.392 . S
C1030 C1031 1.385 . S
C1030 C1032 1.478 . S
C1031 H1025 0.930 . S
C1031 C1027 1.400 . S
C1031 C1030 1.385 . S
C1032 C1030 1.478 . S
C1032 C1034 1.381 . S
C1032 C1038 1.383 . S
C1033 C1029 1.495 . S
C1033 H1039 0.959 . S
C1033 H1040 0.961 . S
C1033 H1041 0.960 . S
C1034 C1032 1.381 . S
C1034 C1035 1.394 . S
C1034 H1042 0.930 . S
C1035 C1034 1.394 . S
C1035 C1036 1.383 . S
C1035 H1043 0.929 . S
C1036 C1035 1.383 . S
C1036 C1037 1.377 . S
C1037 H1021 0.930 . S
C1037 C1036 1.377 . S
C1037 C1038 1.379 . S
C1038 H1022 0.931 . S
C1038 C1032 1.383 . S
C1038 C1037 1.379 . S
H1039 C1033 0.959 . S
H1040 C1033 0.961 . S
H1041 C1033 0.960 . S
H1042 C1034 0.930 . S
H1043 C1035 0.929 . S
H1044 C1052 0.929 . S
H1045 C1054 0.930 . S
H1046 C1056 0.930 . S
H1047 C1059 0.929 . S
H1048 C1062 0.930 . S
H1049 C1064 0.960 . S
H1050 C1064 0.960 . S
H1051 C1064 0.960 . S
C1052 H1044 0.929 . S
C1052 C1053 1.377 . S
C1052 C1054 1.384 . S
C1053 C1052 1.377 . S
C1053 C1059 1.390 . S
C1054 H1045 0.930 . S
C1054 C1052 1.384 . S
C1054 C1055 1.372 . S
C1055 C1054 1.372 . S
C1055 C1056 1.400 . S
C1055 C1060 1.490 . S
C1056 H1046 0.930 . S
C1056 C1055 1.400 . S
C1056 C1059 1.386 . S
H1057 C1073 0.930 . S
H1058 C1074 0.931 . S
C1059 H1047 0.929 . S
C1059 C1053 1.390 . S
C1059 C1056 1.386 . S
C1060 C1055 1.490 . S
C1060 C1062 1.395 . S
C1060 C1063 1.403 . S
H1061 C1067 0.930 . S
C1062 H1048 0.930 . S
C1062 C1060 1.395 . S
C1062 C1065 1.403 . S
C1063 C1060 1.403 . S
C1063 C1064 1.524 . S
C1063 C1067 1.400 . S
C1064 H1049 0.960 . S
C1064 H1050 0.960 . S
C1064 H1051 0.960 . S
C1064 C1063 1.524 . S
C1065 C1062 1.403 . S
C1065 C1066 1.392 . S
C1065 C1069 1.495 . S
C1066 C1065 1.392 . S
C1066 C1067 1.385 . S
C1066 C1068 1.478 . S
C1067 H1061 0.930 . S
C1067 C1063 1.400 . S
C1067 C1066 1.385 . S
C1068 C1066 1.478 . S
C1068 C1070 1.381 . S
C1068 C1074 1.383 . S
C1069 C1065 1.495 . S
C1069 H1075 0.959 . S
C1069 H1076 0.961 . S
C1069 H1077 0.960 . S
C1070 C1068 1.381 . S
C1070 C1071 1.394 . S
C1070 H1078 0.930 . S
C1071 C1070 1.394 . S
C1071 C1072 1.383 . S
C1071 H1079 0.929 . S
C1072 C1071 1.383 . S
C1072 C1073 1.377 . S
C1073 H1057 0.930 . S
C1073 C1072 1.377 . S
C1073 C1074 1.379 . S
C1074 H1058 0.931 . S
C1074 C1068 1.383 . S
C1074 C1073 1.379 . S
H1075 C1069 0.959 . S
H1076 C1069 0.961 . S
H1077 C1069 0.960 . S
H1078 C1070 0.930 . S
H1079 C1071 0.929 . S
H1080 C1088 0.929 . S
H1081 C1090 0.930 . S
H1082 C1092 0.930 . S
H1083 C1095 0.929 . S
H1084 C1098 0.930 . S
H1085 C1100 0.960 . S
H1086 C1100 0.960 . S
H1087 C1100 0.960 . S
C1088 H1080 0.929 . S
C1088 C1089 1.377 . S
C1088 C1090 1.384 . S
C1089 C1088 1.377 . S
C1089 C1095 1.390 . S
C1090 H1081 0.930 . S
C1090 C1088 1.384 . S
C1090 C1091 1.372 . S
C1091 C1090 1.372 . S
C1091 C1092 1.400 . S
C1091 C1096 1.490 . S
C1092 H1082 0.930 . S
C1092 C1091 1.400 . S
C1092 C1095 1.386 . S
H1093 C1109 0.930 . S
H1094 C1110 0.931 . S
C1095 H1083 0.929 . S
C1095 C1089 1.390 . S
C1095 C1092 1.386 . S
C1096 C1091 1.490 . S
C1096 C1098 1.395 . S
C1096 C1099 1.403 . S
H1097 C1103 0.930 . S
C1098 H1084 0.930 . S
C1098 C1096 1.395 . S
C1098 C1101 1.403 . S
C1099 C1096 1.403 . S
C1099 C1100 1.524 . S
C1099 C1103 1.400 . S
C1100 H1085 0.960 . S
C1100 H1086 0.960 . S
C1100 H1087 0.960 . S
C1100 C1099 1.524 . S
C1101 C1098 1.403 . S
C1101 C1102 1.392 . S
C1101 C1105 1.495 . S
C1102 C1101 1.392 . S
C1102 C1103 1.385 . S
C1102 C1104 1.478 . S
C1103 H1097 0.930 . S
C1103 C1099 1.400 . S
C1103 C1102 1.385 . S
C1104 C1102 1.478 . S
C1104 C1106 1.381 . S
C1104 C1110 1.383 . S
C1105 C1101 1.495 . S
C1105 H1111 0.959 . S
C1105 H1112 0.961 . S
C1105 H1113 0.960 . S
C1106 C1104 1.381 . S
C1106 C1107 1.394 . S
C1106 H1114 0.930 . S
C1107 C1106 1.394 . S
C1107 C1108 1.383 . S
C1107 H1115 0.929 . S
C1108 C1107 1.383 . S
C1108 C1109 1.377 . S
C1109 H1093 0.930 . S
C1109 C1108 1.377 . S
C1109 C1110 1.379 . S
C1110 H1094 0.931 . S
C1110 C1104 1.383 . S
C1110 C1109 1.379 . S
H1111 C1105 0.959 . S
H1112 C1105 0.961 . S
H1113 C1105 0.960 . S
H1114 C1106 0.930 . S
H1115 C1107 0.929 . S
H1116 C1124 0.929 . S
H1117 C1126 0.930 . S
H1118 C1128 0.930 . S
H1119 C1131 0.929 . S
H1120 C1134 0.930 . S
H1121 C1136 0.960 . S
H1122 C1136 0.960 . S
H1123 C1136 0.960 . S
C1124 H1116 0.929 . S
C1124 C1125 1.377 . S
C1124 C1126 1.384 . S
C1125 C1124 1.377 . S
C1125 C1131 1.390 . S
C1126 H1117 0.930 . S
C1126 C1124 1.384 . S
C1126 C1127 1.372 . S
C1127 C1126 1.372 . S
C1127 C1128 1.400 . S
C1127 C1132 1.490 . S
C1128 H1118 0.930 . S
C1128 C1127 1.400 . S
C1128 C1131 1.386 . S
H1129 C1145 0.930 . S
H1130 C1146 0.931 . S
C1131 H1119 0.929 . S
C1131 C1125 1.390 . S
C1131 C1128 1.386 . S
C1132 C1127 1.490 . S
C1132 C1134 1.395 . S
C1132 C1135 1.403 . S
H1133 C1139 0.930 . S
C1134 H1120 0.930 . S
C1134 C1132 1.395 . S
C1134 C1137 1.403 . S
C1135 C1132 1.403 . S
C1135 C1136 1.524 . S
C1135 C1139 1.400 . S
C1136 H1121 0.960 . S
C1136 H1122 0.960 . S
C1136 H1123 0.960 . S
C1136 C1135 1.524 . S
C1137 C1134 1.403 . S
C1137 C1138 1.392 . S
C1137 C1141 1.495 . S
C1138 C1137 1.392 . S
C1138 C1139 1.385 . S
C1138 C1140 1.478 . S
C1139 H1133 0.930 . S
C1139 C1135 1.400 . S
C1139 C1138 1.385 . S
C1140 C1138 1.478 . S
C1140 C1142 1.381 . S
C1140 C1146 1.383 . S
C1141 C1137 1.495 . S
C1141 H1147 0.959 . S
C1141 H1148 0.961 . S
C1141 H1149 0.960 . S
C1142 C1140 1.381 . S
C1142 C1143 1.394 . S
C1142 H1150 0.930 . S
C1143 C1142 1.394 . S
C1143 C1144 1.383 . S
C1143 H1151 0.929 . S
C1144 C1143 1.383 . S
C1144 C1145 1.377 . S
C1145 H1129 0.930 . S
C1145 C1144 1.377 . S
C1145 C1146 1.379 . S
C1146 H1130 0.931 . S
C1146 C1140 1.383 . S
C1146 C1145 1.379 . S
H1147 C1141 0.959 . S
H1148 C1141 0.961 . S
H1149 C1141 0.960 . S
H1150 C1142 0.930 . S
H1151 C1143 0.929 . S
H1152 C1160 0.929 . S
H1153 C1162 0.930 . S
H1154 C1164 0.930 . S
H1155 C1167 0.929 . S
H1156 C1170 0.930 . S
H1157 C1172 0.960 . S
H1158 C1172 0.960 . S
H1159 C1172 0.960 . S
C1160 H1152 0.929 . S
C1160 C1161 1.377 . S
C1160 C1162 1.384 . S
C1161 C1160 1.377 . S
C1161 C1167 1.390 . S
C1162 H1153 0.930 . S
C1162 C1160 1.384 . S
C1162 C1163 1.372 . S
C1163 C1162 1.372 . S
C1163 C1164 1.400 . S
C1163 C1168 1.490 . S
C1164 H1154 0.930 . S
C1164 C1163 1.400 . S
C1164 C1167 1.386 . S
H1165 C1181 0.930 . S
H1166 C1182 0.931 . S
C1167 H1155 0.929 . S
C1167 C1161 1.390 . S
C1167 C1164 1.386 . S
C1168 C1163 1.490 . S
C1168 C1170 1.395 . S
C1168 C1171 1.403 . S
H1169 C1175 0.930 . S
C1170 H1156 0.930 . S
C1170 C1168 1.395 . S
C1170 C1173 1.403 . S
C1171 C1168 1.403 . S
C1171 C1172 1.524 . S
C1171 C1175 1.400 . S
C1172 H1157 0.960 . S
C1172 H1158 0.960 . S
C1172 H1159 0.960 . S
C1172 C1171 1.524 . S
C1173 C1170 1.403 . S
C1173 C1174 1.392 . S
C1173 C1177 1.495 . S
C1174 C1173 1.392 . S
C1174 C1175 1.385 . S
C1174 C1176 1.478 . S
C1175 H1169 0.930 . S
C1175 C1171 1.400 . S
C1175 C1174 1.385 . S
C1176 C1174 1.478 . S
C1176 C1178 1.381 . S
C1176 C1182 1.383 . S
C1177 C1173 1.495 . S
C1177 H1183 0.959 . S
C1177 H1184 0.961 . S
C1177 H1185 0.960 . S
C1178 C1176 1.381 . S
C1178 C1179 1.394 . S
C1178 H1186 0.930 . S
C1179 C1178 1.394 . S
C1179 C1180 1.383 . S
C1179 H1187 0.929 . S
C1180 C1179 1.383 . S
C1180 C1181 1.377 . S
C1181 H1165 0.930 . S
C1181 C1180 1.377 . S
C1181 C1182 1.379 . S
C1182 H1166 0.931 . S
C1182 C1176 1.383 . S
C1182 C1181 1.379 . S
H1183 C1177 0.959 . S
H1184 C1177 0.961 . S
H1185 C1177 0.960 . S
H1186 C1178 0.930 . S
H1187 C1179 0.929 . S
H1188 C1196 0.929 . S
H1189 C1198 0.930 . S
H1190 C1200 0.930 . S
H1191 C1203 0.929 . S
H1192 C1206 0.930 . S
H1193 C1208 0.960 . S
H1194 C1208 0.960 . S
H1195 C1208 0.960 . S
C1196 H1188 0.929 . S
C1196 C1197 1.377 . S
C1196 C1198 1.384 . S
C1197 C1196 1.377 . S
C1197 C1203 1.390 . S
C1198 H1189 0.930 . S
C1198 C1196 1.384 . S
C1198 C1199 1.372 . S
C1199 C1198 1.372 . S
C1199 C1200 1.400 . S
C1199 C1204 1.490 . S
C1200 H1190 0.930 . S
C1200 C1199 1.400 . S
C1200 C1203 1.386 . S
H1201 C1217 0.930 . S
H1202 C1218 0.931 . S
C1203 H1191 0.929 . S
C1203 C1197 1.390 . S
C1203 C1200 1.386 . S
C1204 C1199 1.490 . S
C1204 C1206 1.395 . S
C1204 C1207 1.403 . S
H1205 C1211 0.930 . S
C1206 H1192 0.930 . S
C1206 C1204 1.395 . S
C1206 C1209 1.403 . S
C1207 C1204 1.403 . S
C1207 C1208 1.524 . S
C1207 C1211 1.400 . S
C1208 H1193 0.960 . S
C1208 H1194 0.960 . S
C1208 H1195 0.960 . S
C1208 C1207 1.524 . S
C1209 C1206 1.403 . S
C1209 C1210 1.392 . S
C1209 C1213 1.495 . S
C1210 C1209 1.392 . S
C1210 C1211 1.385 . S
C1210 C1212 1.478 . S
C1211 H1205 0.930 . S
C1211 C1207 1.400 . S
C1211 C1210 1.385 . S
C1212 C1210 1.478 . S
C1212 C1214 1.381 . S
C1212 C1218 1.383 . S
C1213 C1209 1.495 . S
C1213 H1219 0.959 . S
C1213 H1220 0.961 . S
C1213 H1221 0.960 . S
C1214 C1212 1.381 . S
C1214 C1215 1.394 . S
C1214 H1222 0.930 . S
C1215 C1214 1.394 . S
C1215 C1216 1.383 . S
C1215 H1223 0.929 . S
C1216 C1215 1.383 . S
C1216 C1217 1.377 . S
C1217 H1201 0.930 . S
C1217 C1216 1.377 . S
C1217 C1218 1.379 . S
C1218 H1202 0.931 . S
C1218 C1212 1.383 . S
C1218 C1217 1.379 . S
H1219 C1213 0.959 . S
H1220 C1213 0.961 . S
H1221 C1213 0.960 . S
H1222 C1214 0.930 . S
H1223 C1215 0.929 . S
H1224 C1232 0.929 . S
H1225 C1234 0.930 . S
H1226 C1236 0.930 . S
H1227 C1239 0.929 . S
H1228 C1242 0.930 . S
H1229 C1244 0.960 . S
H1230 C1244 0.960 . S
H1231 C1244 0.960 . S
C1232 H1224 0.929 . S
C1232 C1233 1.377 . S
C1232 C1234 1.384 . S
C1233 C1232 1.377 . S
C1233 C1239 1.390 . S
C1234 H1225 0.930 . S
C1234 C1232 1.384 . S
C1234 C1235 1.372 . S
C1235 C1234 1.372 . S
C1235 C1236 1.400 . S
C1235 C1240 1.490 . S
C1236 H1226 0.930 . S
C1236 C1235 1.400 . S
C1236 C1239 1.386 . S
H1237 C1253 0.930 . S
H1238 C1254 0.931 . S
C1239 H1227 0.929 . S
C1239 C1233 1.390 . S
C1239 C1236 1.386 . S
C1240 C1235 1.490 . S
C1240 C1242 1.395 . S
C1240 C1243 1.403 . S
H1241 C1247 0.930 . S
C1242 H1228 0.930 . S
C1242 C1240 1.395 . S
C1242 C1245 1.403 1_556 S
C1243 C1240 1.403 . S
C1243 C1244 1.524 . S
C1243 C1247 1.400 1_556 S
C1244 H1229 0.960 . S
C1244 H1230 0.960 . S
C1244 H1231 0.960 . S
C1244 C1243 1.524 . S
C1245 C1242 1.403 1_554 S
C1245 C1246 1.392 . S
C1245 C1249 1.495 . S
C1246 C1245 1.392 . S
C1246 C1247 1.385 . S
C1246 C1248 1.478 . S
C1247 H1241 0.930 . S
C1247 C1243 1.400 1_554 S
C1247 C1246 1.385 . S
C1248 C1246 1.478 . S
C1248 C1250 1.381 . S
C1248 C1254 1.383 . S
C1249 C1245 1.495 . S
C1249 H1255 0.959 . S
C1249 H1256 0.961 . S
C1249 H1257 0.960 . S
C1250 C1248 1.381 . S
C1250 C1251 1.394 . S
C1250 H1258 0.930 . S
C1251 C1250 1.394 . S
C1251 C1252 1.383 . S
C1251 H1259 0.929 . S
C1252 C1251 1.383 . S
C1252 C1253 1.377 . S
C1253 H1237 0.930 . S
C1253 C1252 1.377 . S
C1253 C1254 1.379 . S
C1254 H1238 0.931 . S
C1254 C1248 1.383 . S
C1254 C1253 1.379 . S
H1255 C1249 0.959 . S
H1256 C1249 0.961 . S
H1257 C1249 0.960 . S
H1258 C1250 0.930 . S
H1259 C1251 0.929 . S
H1260 C1268 0.929 . S
H1261 C1270 0.930 . S
H1262 C1272 0.930 . S
H1263 C1275 0.929 . S
H1264 C1278 0.930 . S
H1265 C1280 0.960 . S
H1266 C1280 0.960 . S
H1267 C1280 0.960 . S
C1268 H1260 0.929 . S
C1268 C1269 1.377 . S
C1268 C1270 1.384 . S
C1269 C1268 1.377 . S
C1269 C1275 1.390 . S
C1270 H1261 0.930 . S
C1270 C1268 1.384 . S
C1270 C1271 1.372 . S
C1271 C1270 1.372 . S
C1271 C1272 1.400 . S
C1271 C1276 1.490 . S
C1272 H1262 0.930 . S
C1272 C1271 1.400 . S
C1272 C1275 1.386 . S
H1273 C1289 0.930 . S
H1274 C1290 0.931 . S
C1275 H1263 0.929 . S
C1275 C1269 1.390 . S
C1275 C1272 1.386 . S
C1276 C1271 1.490 . S
C1276 C1278 1.395 . S
C1276 C1279 1.403 . S
H1277 C1283 0.930 . S
C1278 H1264 0.930 . S
C1278 C1276 1.395 . S
C1278 C1281 1.403 . S
C1279 C1276 1.403 . S
C1279 C1280 1.524 . S
C1279 C1283 1.400 . S
C1280 H1265 0.960 . S
C1280 H1266 0.960 . S
C1280 H1267 0.960 . S
C1280 C1279 1.524 . S
C1281 C1278 1.403 . S
C1281 C1282 1.392 . S
C1281 C1285 1.495 . S
C1282 C1281 1.392 . S
C1282 C1283 1.385 . S
C1282 C1284 1.478 . S
C1283 H1277 0.930 . S
C1283 C1279 1.400 . S
C1283 C1282 1.385 . S
C1284 C1282 1.478 . S
C1284 C1286 1.381 . S
C1284 C1290 1.383 . S
C1285 C1281 1.495 . S
C1285 H1291 0.959 . S
C1285 H1292 0.961 . S
C1285 H1293 0.960 . S
C1286 C1284 1.381 . S
C1286 C1287 1.394 . S
C1286 H1294 0.930 . S
C1287 C1286 1.394 . S
C1287 C1288 1.383 . S
C1287 H1295 0.929 . S
C1288 C1287 1.383 . S
C1288 C1289 1.377 . S
C1289 H1273 0.930 . S
C1289 C1288 1.377 . S
C1289 C1290 1.379 . S
C1290 H1274 0.931 . S
C1290 C1284 1.383 . S
C1290 C1289 1.379 . S
H1291 C1285 0.959 . S
H1292 C1285 0.961 . S
H1293 C1285 0.960 . S
H1294 C1286 0.930 . S
H1295 C1287 0.929 . S
H1296 C1304 0.929 . S
H1297 C1306 0.930 . S
H1298 C1308 0.930 . S
H1299 C1311 0.929 . S
H1300 C1314 0.930 . S
H1301 C1316 0.960 . S
H1302 C1316 0.960 . S
H1303 C1316 0.960 . S
C1304 H1296 0.929 . S
C1304 C1305 1.377 . S
C1304 C1306 1.384 . S
C1305 C1304 1.377 . S
C1305 C1311 1.390 . S
C1306 H1297 0.930 . S
C1306 C1304 1.384 . S
C1306 C1307 1.372 . S
C1307 C1306 1.372 . S
C1307 C1308 1.400 . S
C1307 C1312 1.490 . S
C1308 H1298 0.930 . S
C1308 C1307 1.400 . S
C1308 C1311 1.386 . S
H1309 C1325 0.930 . S
H1310 C1326 0.931 . S
C1311 H1299 0.929 . S
C1311 C1305 1.390 . S
C1311 C1308 1.386 . S
C1312 C1307 1.490 . S
C1312 C1314 1.395 . S
C1312 C1315 1.403 . S
H1313 C1319 0.930 . S
C1314 H1300 0.930 . S
C1314 C1312 1.395 . S
C1314 C1317 1.403 . S
C1315 C1312 1.403 . S
C1315 C1316 1.524 . S
C1315 C1319 1.400 . S
C1316 H1301 0.960 . S
C1316 H1302 0.960 . S
C1316 H1303 0.960 . S
C1316 C1315 1.524 . S
C1317 C1314 1.403 . S
C1317 C1318 1.392 . S
C1317 C1321 1.495 . S
C1318 C1317 1.392 . S
C1318 C1319 1.385 . S
C1318 C1320 1.478 . S
C1319 H1313 0.930 . S
C1319 C1315 1.400 . S
C1319 C1318 1.385 . S
C1320 C1318 1.478 . S
C1320 C1322 1.381 . S
C1320 C1326 1.383 . S
C1321 C1317 1.495 . S
C1321 H1327 0.959 . S
C1321 H1328 0.961 . S
C1321 H1329 0.960 . S
C1322 C1320 1.381 . S
C1322 C1323 1.394 . S
C1322 H1330 0.930 . S
C1323 C1322 1.394 . S
C1323 C1324 1.383 . S
C1323 H1331 0.929 . S
C1324 C1323 1.383 . S
C1324 C1325 1.377 . S
C1325 H1309 0.930 . S
C1325 C1324 1.377 . S
C1325 C1326 1.379 . S
C1326 H1310 0.931 . S
C1326 C1320 1.383 . S
C1326 C1325 1.379 . S
H1327 C1321 0.959 . S
H1328 C1321 0.961 . S
H1329 C1321 0.960 . S
H1330 C1322 0.930 . S
H1331 C1323 0.929 . S
H1332 C1340 0.929 . S
H1333 C1342 0.930 . S
H1334 C1344 0.930 . S
H1335 C1347 0.929 . S
H1336 C1350 0.930 . S
H1337 C1352 0.960 . S
H1338 C1352 0.960 . S
H1339 C1352 0.960 . S
C1340 H1332 0.929 . S
C1340 C1341 1.377 . S
C1340 C1342 1.384 . S
C1341 C1340 1.377 . S
C1341 C1347 1.390 . S
C1342 H1333 0.930 . S
C1342 C1340 1.384 . S
C1342 C1343 1.372 . S
C1343 C1342 1.372 . S
C1343 C1344 1.400 . S
C1343 C1348 1.490 . S
C1344 H1334 0.930 . S
C1344 C1343 1.400 . S
C1344 C1347 1.386 . S
H1345 C1361 0.930 . S
H1346 C1362 0.931 . S
C1347 H1335 0.929 . S
C1347 C1341 1.390 . S
C1347 C1344 1.386 . S
C1348 C1343 1.490 . S
C1348 C1350 1.395 . S
C1348 C1351 1.403 . S
H1349 C1355 0.930 . S
C1350 H1336 0.930 . S
C1350 C1348 1.395 . S
C1350 C1353 1.403 1_556 S
C1351 C1348 1.403 . S
C1351 C1352 1.524 . S
C1351 C1355 1.400 1_556 S
C1352 H1337 0.960 . S
C1352 H1338 0.960 . S
C1352 H1339 0.960 . S
C1352 C1351 1.524 . S
C1353 C1350 1.403 1_554 S
C1353 C1354 1.392 . S
C1353 C1357 1.495 . S
C1354 C1353 1.392 . S
C1354 C1355 1.385 . S
C1354 C1356 1.478 . S
C1355 H1349 0.930 . S
C1355 C1351 1.400 1_554 S
C1355 C1354 1.385 . S
C1356 C1354 1.478 . S
C1356 C1358 1.381 . S
C1356 C1362 1.383 . S
C1357 C1353 1.495 . S
C1357 H1363 0.959 . S
C1357 H1364 0.961 . S
C1357 H1365 0.960 . S
C1358 C1356 1.381 . S
C1358 C1359 1.394 . S
C1358 H1366 0.930 . S
C1359 C1358 1.394 . S
C1359 C1360 1.383 . S
C1359 H1367 0.929 . S
C1360 C1359 1.383 . S
C1360 C1361 1.377 . S
C1361 H1345 0.930 . S
C1361 C1360 1.377 . S
C1361 C1362 1.379 . S
C1362 H1346 0.931 . S
C1362 C1356 1.383 . S
C1362 C1361 1.379 . S
H1363 C1357 0.959 . S
H1364 C1357 0.961 . S
H1365 C1357 0.960 . S
H1366 C1358 0.930 . S
H1367 C1359 0.929 . S
H1368 C1376 0.929 . S
H1369 C1378 0.930 . S
H1370 C1380 0.930 . S
H1371 C1383 0.929 . S
H1372 C1386 0.930 . S
H1373 C1388 0.960 . S
H1374 C1388 0.960 . S
H1375 C1388 0.960 . S
C1376 H1368 0.929 . S
C1376 C1377 1.377 . S
C1376 C1378 1.384 . S
C1377 C1376 1.377 . S
C1377 C1383 1.390 . S
C1378 H1369 0.930 . S
C1378 C1376 1.384 . S
C1378 C1379 1.372 . S
C1379 C1378 1.372 . S
C1379 C1380 1.400 . S
C1379 C1384 1.490 . S
C1380 H1370 0.930 . S
C1380 C1379 1.400 . S
C1380 C1383 1.386 . S
H1381 C1397 0.930 . S
H1382 C1398 0.931 . S
C1383 H1371 0.929 . S
C1383 C1377 1.390 . S
C1383 C1380 1.386 . S
C1384 C1379 1.490 . S
C1384 C1386 1.395 . S
C1384 C1387 1.403 . S
H1385 C1391 0.930 . S
C1386 H1372 0.930 . S
C1386 C1384 1.395 . S
C1386 C1389 1.403 . S
C1387 C1384 1.403 . S
C1387 C1388 1.524 . S
C1387 C1391 1.400 . S
C1388 H1373 0.960 . S
C1388 H1374 0.960 . S
C1388 H1375 0.960 . S
C1388 C1387 1.524 . S
C1389 C1386 1.403 . S
C1389 C1390 1.392 . S
C1389 C1393 1.495 . S
C1390 C1389 1.392 . S
C1390 C1391 1.385 . S
C1390 C1392 1.478 . S
C1391 H1385 0.930 . S
C1391 C1387 1.400 . S
C1391 C1390 1.385 . S
C1392 C1390 1.478 . S
C1392 C1394 1.381 . S
C1392 C1398 1.383 . S
C1393 C1389 1.495 . S
C1393 H1399 0.959 . S
C1393 H1400 0.961 . S
C1393 H1401 0.960 . S
C1394 C1392 1.381 . S
C1394 C1395 1.394 . S
C1394 H1402 0.930 . S
C1395 C1394 1.394 . S
C1395 C1396 1.383 . S
C1395 H1403 0.929 . S
C1396 C1395 1.383 . S
C1396 C1397 1.377 . S
C1397 H1381 0.930 . S
C1397 C1396 1.377 . S
C1397 C1398 1.379 . S
C1398 H1382 0.931 . S
C1398 C1392 1.383 . S
C1398 C1397 1.379 . S
H1399 C1393 0.959 . S
H1400 C1393 0.961 . S
H1401 C1393 0.960 . S
H1402 C1394 0.930 . S
H1403 C1395 0.929 . S
H1404 C1412 0.929 . S
H1405 C1414 0.930 . S
H1406 C1416 0.930 . S
H1407 C1419 0.929 . S
H1408 C1422 0.930 . S
H1409 C1424 0.960 . S
H1410 C1424 0.960 . S
H1411 C1424 0.960 . S
C1412 H1404 0.929 . S
C1412 C1413 1.377 . S
C1412 C1414 1.384 . S
C1413 C1412 1.377 . S
C1413 C1419 1.390 . S
C1414 H1405 0.930 . S
C1414 C1412 1.384 . S
C1414 C1415 1.372 . S
C1415 C1414 1.372 . S
C1415 C1416 1.400 . S
C1415 C1420 1.490 . S
C1416 H1406 0.930 . S
C1416 C1415 1.400 . S
C1416 C1419 1.386 . S
H1417 C1433 0.930 . S
H1418 C1434 0.931 . S
C1419 H1407 0.929 . S
C1419 C1413 1.390 . S
C1419 C1416 1.386 . S
C1420 C1415 1.490 . S
C1420 C1422 1.395 . S
C1420 C1423 1.403 . S
H1421 C1427 0.930 . S
C1422 H1408 0.930 . S
C1422 C1420 1.395 . S
C1422 C1425 1.403 . S
C1423 C1420 1.403 . S
C1423 C1424 1.524 . S
C1423 C1427 1.400 . S
C1424 H1409 0.960 . S
C1424 H1410 0.960 . S
C1424 H1411 0.960 . S
C1424 C1423 1.524 . S
C1425 C1422 1.403 . S
C1425 C1426 1.392 . S
C1425 C1429 1.495 . S
C1426 C1425 1.392 . S
C1426 C1427 1.385 . S
C1426 C1428 1.478 . S
C1427 H1421 0.930 . S
C1427 C1423 1.400 . S
C1427 C1426 1.385 . S
C1428 C1426 1.478 . S
C1428 C1430 1.381 . S
C1428 C1434 1.383 . S
C1429 C1425 1.495 . S
C1429 H1435 0.959 . S
C1429 H1436 0.961 . S
C1429 H1437 0.960 . S
C1430 C1428 1.381 . S
C1430 C1431 1.394 . S
C1430 H1438 0.930 . S
C1431 C1430 1.394 . S
C1431 C1432 1.383 . S
C1431 H1439 0.929 . S
C1432 C1431 1.383 . S
C1432 C1433 1.377 . S
C1433 H1417 0.930 . S
C1433 C1432 1.377 . S
C1433 C1434 1.379 . S
C1434 H1418 0.931 . S
C1434 C1428 1.383 . S
C1434 C1433 1.379 . S
H1435 C1429 0.959 . S
H1436 C1429 0.961 . S
H1437 C1429 0.960 . S
H1438 C1430 0.930 . S
H1439 C1431 0.929 . S
H1440 C1448 0.929 . S
H1441 C1450 0.930 . S
H1442 C1452 0.930 . S
H1443 C1455 0.929 . S
H1444 C1458 0.930 . S
H1445 C1460 0.960 . S
H1446 C1460 0.950 1_556 S
H1447 C1460 0.960 1_556 S
C1448 H1440 0.929 . S
C1448 C1449 1.377 . S
C1448 C1450 1.384 . S
C1449 C1448 1.377 . S
C1449 C1455 1.390 . S
C1450 H1441 0.930 . S
C1450 C1448 1.384 . S
C1450 C1451 1.372 . S
C1451 C1450 1.372 . S
C1451 C1452 1.400 . S
C1451 C1456 1.490 . S
C1452 H1442 0.930 . S
C1452 C1451 1.400 . S
C1452 C1455 1.386 . S
H1453 C1469 0.930 . S
H1454 C1470 0.931 . S
C1455 H1443 0.929 . S
C1455 C1449 1.390 . S
C1455 C1452 1.386 . S
C1456 C1451 1.490 . S
C1456 C1458 1.395 1_565 S
C1456 C1459 1.403 1_556 S
H1457 C1463 0.930 . S
C1458 H1444 0.930 . S
C1458 C1456 1.395 1_545 S
C1458 C1461 1.403 . S
C1459 C1456 1.403 1_554 S
C1459 C1460 1.524 . S
C1459 C1463 1.400 . S
C1460 H1445 0.960 . S
C1460 H1446 0.950 1_554 S
C1460 H1447 0.960 1_554 S
C1460 C1459 1.524 . S
C1461 C1458 1.403 . S
C1461 C1462 1.392 1_556 S
C1461 C1465 1.495 . S
C1462 C1461 1.392 1_554 S
C1462 C1463 1.385 1_545 S
C1462 C1464 1.478 . S
C1463 H1457 0.930 . S
C1463 C1459 1.400 . S
C1463 C1462 1.385 1_565 S
C1464 C1462 1.478 . S
C1464 C1466 1.381 . S
C1464 C1470 1.383 . S
C1465 C1461 1.495 . S
C1465 H1471 0.959 . S
C1465 H1472 0.961 . S
C1465 H1473 0.960 1_556 S
C1466 C1464 1.381 . S
C1466 C1467 1.394 . S
C1466 H1474 0.930 . S
C1467 C1466 1.394 . S
C1467 C1468 1.383 . S
C1467 H1475 0.929 . S
C1468 C1467 1.383 . S
C1468 C1469 1.377 . S
C1469 H1453 0.930 . S
C1469 C1468 1.377 . S
C1469 C1470 1.379 . S
C1470 H1454 0.931 . S
C1470 C1464 1.383 . S
C1470 C1469 1.379 . S
H1471 C1465 0.959 . S
H1472 C1465 0.961 . S
H1473 C1465 0.960 1_554 S
H1474 C1466 0.930 . S
H1475 C1467 0.929 . S
H1476 C1484 0.929 . S
H1477 C1486 0.930 . S
H1478 C1488 0.930 . S
H1479 C1491 0.929 . S
H1480 C1494 0.930 . S
H1481 C1496 0.960 . S
H1482 C1496 0.960 . S
H1483 C1496 0.960 . S
C1484 H1476 0.929 . S
C1484 C1485 1.377 . S
C1484 C1486 1.384 . S
C1485 C1484 1.377 . S
C1485 C1491 1.390 . S
C1486 H1477 0.930 . S
C1486 C1484 1.384 . S
C1486 C1487 1.372 . S
C1487 C1486 1.372 . S
C1487 C1488 1.400 . S
C1487 C1492 1.490 . S
C1488 H1478 0.930 . S
C1488 C1487 1.400 . S
C1488 C1491 1.386 . S
H1489 C1505 0.930 . S
H1490 C1506 0.931 . S
C1491 H1479 0.929 . S
C1491 C1485 1.390 . S
C1491 C1488 1.386 . S
C1492 C1487 1.490 . S
C1492 C1494 1.395 . S
C1492 C1495 1.403 . S
H1493 C1499 0.930 . S
C1494 H1480 0.930 . S
C1494 C1492 1.395 . S
C1494 C1497 1.403 . S
C1495 C1492 1.403 . S
C1495 C1496 1.524 . S
C1495 C1499 1.400 . S
C1496 H1481 0.960 . S
C1496 H1482 0.960 . S
C1496 H1483 0.960 . S
C1496 C1495 1.524 . S
C1497 C1494 1.403 . S
C1497 C1498 1.392 . S
C1497 C1501 1.495 . S
C1498 C1497 1.392 . S
C1498 C1499 1.385 . S
C1498 C1500 1.478 . S
C1499 H1493 0.930 . S
C1499 C1495 1.400 . S
C1499 C1498 1.385 . S
C1500 C1498 1.478 . S
C1500 C1502 1.381 . S
C1500 C1506 1.383 . S
C1501 C1497 1.495 . S
C1501 H1507 0.959 . S
C1501 H1508 0.961 . S
C1501 H1509 0.960 . S
C1502 C1500 1.381 . S
C1502 C1503 1.394 . S
C1502 H1510 0.930 . S
C1503 C1502 1.394 . S
C1503 C1504 1.383 . S
C1503 H1511 0.929 . S
C1504 C1503 1.383 . S
C1504 C1505 1.377 . S
C1505 H1489 0.930 . S
C1505 C1504 1.377 . S
C1505 C1506 1.379 . S
C1506 H1490 0.931 . S
C1506 C1500 1.383 . S
C1506 C1505 1.379 . S
H1507 C1501 0.959 . S
H1508 C1501 0.961 . S
H1509 C1501 0.960 . S
H1510 C1502 0.930 . S
H1511 C1503 0.929 . S
H1512 C1520 0.929 . S
H1513 C1522 0.930 . S
H1514 C1524 0.930 . S
H1515 C1527 0.929 . S
H1516 C1530 0.930 . S
H1517 C1532 0.960 . S
H1518 C1532 0.960 . S
H1519 C1532 0.960 . S
C1520 H1512 0.929 . S
C1520 C1521 1.377 . S
C1520 C1522 1.384 . S
C1521 C1520 1.377 . S
C1521 C1527 1.390 . S
C1522 H1513 0.930 . S
C1522 C1520 1.384 . S
C1522 C1523 1.372 . S
C1523 C1522 1.372 . S
C1523 C1524 1.400 . S
C1523 C1528 1.490 . S
C1524 H1514 0.930 . S
C1524 C1523 1.400 . S
C1524 C1527 1.386 . S
H1525 C1541 0.930 . S
H1526 C1542 0.931 . S
C1527 H1515 0.929 . S
C1527 C1521 1.390 . S
C1527 C1524 1.386 . S
C1528 C1523 1.490 . S
C1528 C1530 1.395 . S
C1528 C1531 1.403 1_455 S
H1529 C1535 0.930 . S
C1530 H1516 0.930 . S
C1530 C1528 1.395 . S
C1530 C1533 1.403 . S
C1531 C1528 1.403 1_655 S
C1531 C1532 1.524 . S
C1531 C1535 1.400 . S
C1532 H1517 0.960 . S
C1532 H1518 0.960 . S
C1532 H1519 0.960 . S
C1532 C1531 1.524 . S
C1533 C1530 1.403 . S
C1533 C1534 1.392 1_455 S
C1533 C1537 1.495 . S
C1534 C1533 1.392 1_655 S
C1534 C1535 1.385 . S
C1534 C1536 1.478 . S
C1535 H1529 0.930 . S
C1535 C1531 1.400 . S
C1535 C1534 1.385 . S
C1536 C1534 1.478 . S
C1536 C1538 1.381 . S
C1536 C1542 1.383 . S
C1537 C1533 1.495 . S
C1537 H1543 0.959 . S
C1537 H1544 0.961 . S
C1537 H1545 0.960 . S
C1538 C1536 1.381 . S
C1538 C1539 1.394 . S
C1538 H1546 0.930 . S
C1539 C1538 1.394 . S
C1539 C1540 1.383 . S
C1539 H1547 0.929 . S
C1540 C1539 1.383 . S
C1540 C1541 1.377 . S
C1541 H1525 0.930 . S
C1541 C1540 1.377 . S
C1541 C1542 1.379 . S
C1542 H1526 0.931 . S
C1542 C1536 1.383 . S
C1542 C1541 1.379 . S
H1543 C1537 0.959 . S
H1544 C1537 0.961 . S
H1545 C1537 0.960 . S
H1546 C1538 0.930 . S
H1547 C1539 0.929 . S
H1548 C1556 0.929 . S
H1549 C1558 0.930 1_545 S
H1550 C1560 0.930 . S
H1551 C1563 0.929 . S
H1552 C1566 0.930 . S
H1553 C1568 0.960 1_556 S
H1554 C1568 0.960 . S
H1555 C1568 0.960 . S
C1556 H1548 0.929 . S
C1556 C1557 1.377 . S
C1556 C1558 1.384 . S
C1557 C1556 1.377 . S
C1557 C1563 1.390 . S
C1558 H1549 0.930 1_565 S
C1558 C1556 1.384 . S
C1558 C1559 1.372 . S
C1559 C1558 1.372 . S
C1559 C1560 1.400 . S
C1559 C1564 1.490 . S
C1560 H1550 0.930 . S
C1560 C1559 1.400 . S
C1560 C1563 1.386 . S
H1561 C1577 0.930 . S
H1562 C1578 0.931 . S
C1563 H1551 0.929 . S
C1563 C1557 1.390 . S
C1563 C1560 1.386 . S
C1564 C1559 1.490 . S
C1564 C1566 1.395 1_565 S
C1564 C1567 1.403 . S
H1565 C1571 0.949 . S
C1566 H1552 0.930 . S
C1566 C1564 1.395 1_545 S
C1566 C1569 1.403 1_554 S
C1567 C1564 1.403 . S
C1567 C1568 1.524 . S
C1567 C1571 1.377 1_564 S
C1568 H1553 0.960 1_554 S
C1568 H1554 0.960 . S
C1568 H1555 0.960 . S
C1568 C1567 1.524 . S
C1569 C1566 1.403 1_556 S
C1569 C1570 1.392 . S
C1569 C1573 1.495 . S
C1570 C1569 1.392 . S
C1570 C1571 1.394 . S
C1570 C1572 1.478 . S
C1571 H1565 0.949 . S
C1571 C1567 1.377 1_546 S
C1571 C1570 1.394 . S
C1572 C1570 1.478 . S
C1572 C1574 1.381 . S
C1572 C1578 1.383 . S
C1573 C1569 1.495 . S
C1573 H1579 0.959 1_556 S
C1573 H1580 0.961 . S
C1573 H1581 0.960 . S
C1574 C1572 1.381 . S
C1574 C1575 1.394 . S
C1574 H1582 0.930 . S
C1575 C1574 1.394 . S
C1575 C1576 1.383 . S
C1575 H1583 0.929 . S
C1576 C1575 1.383 . S
C1576 C1577 1.377 . S
C1577 H1561 0.930 . S
C1577 C1576 1.377 . S
C1577 C1578 1.379 . S
C1578 H1562 0.931 . S
C1578 C1572 1.383 . S
C1578 C1577 1.379 . S
H1579 C1573 0.959 1_554 S
H1580 C1573 0.961 . S
H1581 C1573 0.960 . S
H1582 C1574 0.930 . S
H1583 C1575 0.929 . S
H1584 C1592 0.929 . S
H1585 C1594 0.930 . S
H1586 C1596 0.930 . S
H1587 C1599 0.929 . S
H1588 C1602 0.930 . S
H1589 C1604 0.960 . S
H1590 C1604 0.960 . S
H1591 C1604 0.960 . S
C1592 H1584 0.929 . S
C1592 C1593 1.377 . S
C1592 C1594 1.384 . S
C1593 C1592 1.377 . S
C1593 C1599 1.390 . S
C1594 H1585 0.930 . S
C1594 C1592 1.384 . S
C1594 C1595 1.372 . S
C1595 C1594 1.372 . S
C1595 C1596 1.400 . S
C1595 C1600 1.490 . S
C1596 H1586 0.930 . S
C1596 C1595 1.400 . S
C1596 C1599 1.386 . S
H1597 C1613 0.930 . S
H1598 C1614 0.931 . S
C1599 H1587 0.929 . S
C1599 C1593 1.390 . S
C1599 C1596 1.386 . S
C1600 C1595 1.490 . S
C1600 C1602 1.395 . S
C1600 C1603 1.403 . S
H1601 C1607 0.930 . S
C1602 H1588 0.930 . S
C1602 C1600 1.395 . S
C1602 C1605 1.403 . S
C1603 C1600 1.403 . S
C1603 C1604 1.524 . S
C1603 C1607 1.400 . S
C1604 H1589 0.960 . S
C1604 H1590 0.960 . S
C1604 H1591 0.960 . S
C1604 C1603 1.524 . S
C1605 C1602 1.403 . S
C1605 C1606 1.392 . S
C1605 C1609 1.495 . S
C1606 C1605 1.392 . S
C1606 C1607 1.385 . S
C1606 C1608 1.478 . S
C1607 H1601 0.930 . S
C1607 C1603 1.400 . S
C1607 C1606 1.385 . S
C1608 C1606 1.478 . S
C1608 C1610 1.381 . S
C1608 C1614 1.383 . S
C1609 C1605 1.495 . S
C1609 H1615 0.959 . S
C1609 H1616 0.961 . S
C1609 H1617 0.960 . S
C1610 C1608 1.381 . S
C1610 C1611 1.394 . S
C1610 H1618 0.930 . S
C1611 C1610 1.394 . S
C1611 C1612 1.383 . S
C1611 H1619 0.929 . S
C1612 C1611 1.383 . S
C1612 C1613 1.377 . S
C1613 H1597 0.930 . S
C1613 C1612 1.377 . S
C1613 C1614 1.379 . S
C1614 H1598 0.931 . S
C1614 C1608 1.383 . S
C1614 C1613 1.379 . S
H1615 C1609 0.959 . S
H1616 C1609 0.961 . S
H1617 C1609 0.960 . S
H1618 C1610 0.930 . S
H1619 C1611 0.929 . S
H1620 C1628 0.929 . S
H1621 C1630 0.930 . S
H1622 C1632 0.930 . S
H1623 C1635 0.929 . S
H1624 C1638 0.930 . S
H1625 C1640 0.960 . S
H1626 C1640 0.960 . S
H1627 C1640 0.960 . S
C1628 H1620 0.929 . S
C1628 C1629 1.377 . S
C1628 C1630 1.384 . S
C1629 C1628 1.377 . S
C1629 C1635 1.390 . S
C1630 H1621 0.930 . S
C1630 C1628 1.384 . S
C1630 C1631 1.372 . S
C1631 C1630 1.372 . S
C1631 C1632 1.400 . S
C1631 C1636 1.490 . S
C1632 H1622 0.930 . S
C1632 C1631 1.400 . S
C1632 C1635 1.386 . S
H1633 C1649 0.930 . S
H1634 C1650 0.931 . S
C1635 H1623 0.929 . S
C1635 C1629 1.390 . S
C1635 C1632 1.386 . S
C1636 C1631 1.490 . S
C1636 C1638 1.395 . S
C1636 C1639 1.403 1_455 S
H1637 C1643 0.930 . S
C1638 H1624 0.930 . S
C1638 C1636 1.395 . S
C1638 C1641 1.403 . S
C1639 C1636 1.403 1_655 S
C1639 C1640 1.524 . S
C1639 C1643 1.400 . S
C1640 H1625 0.960 . S
C1640 H1626 0.960 . S
C1640 H1627 0.960 . S
C1640 C1639 1.524 . S
C1641 C1638 1.403 . S
C1641 C1642 1.392 1_455 S
C1641 C1645 1.495 . S
C1642 C1641 1.392 1_655 S
C1642 C1643 1.385 . S
C1642 C1644 1.478 . S
C1643 H1637 0.930 . S
C1643 C1639 1.400 . S
C1643 C1642 1.385 . S
C1644 C1642 1.478 . S
C1644 C1646 1.381 . S
C1644 C1650 1.383 . S
C1645 C1641 1.495 . S
C1645 H1651 0.959 . S
C1645 H1652 0.961 . S
C1645 H1653 0.960 . S
C1646 C1644 1.381 . S
C1646 C1647 1.394 . S
C1646 H1654 0.930 . S
C1647 C1646 1.394 . S
C1647 C1648 1.383 . S
C1647 H1655 0.929 . S
C1648 C1647 1.383 . S
C1648 C1649 1.377 . S
C1649 H1633 0.930 . S
C1649 C1648 1.377 . S
C1649 C1650 1.379 . S
C1650 H1634 0.931 . S
C1650 C1644 1.383 . S
C1650 C1649 1.379 . S
H1651 C1645 0.959 . S
H1652 C1645 0.961 . S
H1653 C1645 0.960 . S
H1654 C1646 0.930 . S
H1655 C1647 0.929 . S
H1656 C1664 0.929 . S
H1657 C1666 0.930 . S
H1658 C1668 0.930 . S
H1659 C1671 0.929 . S
H1660 C1674 0.930 . S
H1661 C1676 0.960 . S
H1662 C1676 0.960 . S
H1663 C1676 0.960 . S
C1664 H1656 0.929 . S
C1664 C1665 1.377 . S
C1664 C1666 1.384 . S
C1665 C1664 1.377 . S
C1665 C1671 1.390 . S
C1666 H1657 0.930 . S
C1666 C1664 1.384 . S
C1666 C1667 1.372 . S
C1667 C1666 1.372 . S
C1667 C1668 1.400 . S
C1667 C1672 1.490 . S
C1668 H1658 0.930 . S
C1668 C1667 1.400 . S
C1668 C1671 1.386 . S
H1669 C1685 0.930 . S
H1670 C1686 0.931 . S
C1671 H1659 0.929 . S
C1671 C1665 1.390 . S
C1671 C1668 1.386 . S
C1672 C1667 1.490 . S
C1672 C1674 1.395 1_545 S
C1672 C1675 1.403 . S
H1673 C1679 0.930 . S
C1674 H1660 0.930 . S
C1674 C1672 1.395 1_565 S
C1674 C1677 1.403 . S
C1675 C1672 1.403 . S
C1675 C1676 1.524 . S
C1675 C1679 1.400 1_545 S
C1676 H1661 0.960 . S
C1676 H1662 0.960 . S
C1676 H1663 0.960 . S
C1676 C1675 1.524 . S
C1677 C1674 1.403 . S
C1677 C1678 1.392 . S
C1677 C1681 1.495 . S
C1678 C1677 1.392 . S
C1678 C1679 1.385 . S
C1678 C1680 1.478 . S
C1679 H1673 0.930 . S
C1679 C1675 1.400 1_565 S
C1679 C1678 1.385 . S
C1680 C1678 1.478 . S
C1680 C1682 1.381 . S
C1680 C1686 1.383 . S
C1681 C1677 1.495 . S
C1681 H1687 0.959 . S
C1681 H1688 0.961 . S
C1681 H1689 0.960 . S
C1682 C1680 1.381 . S
C1682 C1683 1.394 . S
C1682 H1690 0.930 . S
C1683 C1682 1.394 . S
C1683 C1684 1.383 . S
C1683 H1691 0.929 . S
C1684 C1683 1.383 . S
C1684 C1685 1.377 . S
C1685 H1669 0.930 . S
C1685 C1684 1.377 . S
C1685 C1686 1.379 . S
C1686 H1670 0.931 . S
C1686 C1680 1.383 . S
C1686 C1685 1.379 . S
H1687 C1681 0.959 . S
H1688 C1681 0.961 . S
H1689 C1681 0.960 . S
H1690 C1682 0.930 . S
H1691 C1683 0.929 . S
H1692 C1700 0.929 . S
H1693 C1702 0.930 . S
H1694 C1704 0.930 . S
H1695 C1707 0.929 . S
H1696 C1710 0.930 . S
H1697 C1712 0.960 . S
H1698 C1712 0.960 . S
H1699 C1712 0.960 . S
C1700 H1692 0.929 . S
C1700 C1701 1.377 . S
C1700 C1702 1.384 . S
C1701 C1700 1.377 . S
C1701 C1707 1.390 . S
C1702 H1693 0.930 . S
C1702 C1700 1.384 . S
C1702 C1703 1.372 . S
C1703 C1702 1.372 . S
C1703 C1704 1.400 . S
C1703 C1708 1.490 . S
C1704 H1694 0.930 . S
C1704 C1703 1.400 . S
C1704 C1707 1.386 . S
H1705 C1721 0.930 . S
H1706 C1722 0.931 . S
C1707 H1695 0.929 . S
C1707 C1701 1.390 . S
C1707 C1704 1.386 . S
C1708 C1703 1.490 . S
C1708 C1710 1.395 . S
C1708 C1711 1.403 . S
H1709 C1715 0.930 . S
C1710 H1696 0.930 . S
C1710 C1708 1.395 . S
C1710 C1713 1.403 . S
C1711 C1708 1.403 . S
C1711 C1712 1.524 . S
C1711 C1715 1.400 . S
C1712 H1697 0.960 . S
C1712 H1698 0.960 . S
C1712 H1699 0.960 . S
C1712 C1711 1.524 . S
C1713 C1710 1.403 . S
C1713 C1714 1.392 . S
C1713 C1717 1.495 . S
C1714 C1713 1.392 . S
C1714 C1715 1.385 . S
C1714 C1716 1.478 . S
C1715 H1709 0.930 . S
C1715 C1711 1.400 . S
C1715 C1714 1.385 . S
C1716 C1714 1.478 . S
C1716 C1718 1.381 . S
C1716 C1722 1.383 . S
C1717 C1713 1.495 . S
C1717 H1723 0.959 . S
C1717 H1724 0.961 . S
C1717 H1725 0.960 . S
C1718 C1716 1.381 . S
C1718 C1719 1.394 . S
C1718 H1726 0.930 . S
C1719 C1718 1.394 . S
C1719 C1720 1.383 . S
C1719 H1727 0.929 . S
C1720 C1719 1.383 . S
C1720 C1721 1.377 . S
C1721 H1705 0.930 . S
C1721 C1720 1.377 . S
C1721 C1722 1.379 . S
C1722 H1706 0.931 . S
C1722 C1716 1.383 . S
C1722 C1721 1.379 . S
H1723 C1717 0.959 . S
H1724 C1717 0.961 . S
H1725 C1717 0.960 . S
H1726 C1718 0.930 . S
H1727 C1719 0.929 . S
H1728 C1736 0.929 . S
H1729 C1738 0.930 . S
H1730 C1740 0.930 . S
H1731 C1743 0.929 . S
H1732 C1746 0.930 . S
H1733 C1748 0.960 . S
H1734 C1748 0.960 1_655 S
H1735 C1748 0.960 . S
C1736 H1728 0.929 . S
C1736 C1737 1.377 . S
C1736 C1738 1.384 . S
C1737 C1736 1.377 . S
C1737 C1743 1.390 . S
C1738 H1729 0.930 . S
C1738 C1736 1.384 . S
C1738 C1739 1.372 . S
C1739 C1738 1.372 . S
C1739 C1740 1.400 . S
C1739 C1744 1.490 . S
C1740 H1730 0.930 . S
C1740 C1739 1.400 . S
C1740 C1743 1.386 . S
H1741 C1757 0.930 . S
H1742 C1758 0.931 . S
C1743 H1731 0.929 . S
C1743 C1737 1.390 . S
C1743 C1740 1.386 . S
C1744 C1739 1.490 . S
C1744 C1746 1.395 . S
C1744 C1747 1.403 1_655 S
H1745 C1751 0.930 . S
C1746 H1732 0.930 . S
C1746 C1744 1.395 . S
C1746 C1749 1.403 . S
C1747 C1744 1.403 1_455 S
C1747 C1748 1.524 . S
C1747 C1751 1.400 . S
C1748 H1733 0.960 . S
C1748 H1734 0.960 1_455 S
C1748 H1735 0.960 . S
C1748 C1747 1.524 . S
C1749 C1746 1.403 . S
C1749 C1750 1.392 1_655 S
C1749 C1753 1.495 . S
C1750 C1749 1.392 1_455 S
C1750 C1751 1.385 . S
C1750 C1752 1.478 . S
C1751 H1745 0.930 . S
C1751 C1747 1.400 . S
C1751 C1750 1.385 . S
C1752 C1750 1.478 . S
C1752 C1754 1.381 . S
C1752 C1758 1.383 . S
C1753 C1749 1.495 . S
C1753 H1759 0.959 . S
C1753 H1760 0.961 . S
C1753 H1761 0.960 . S
C1754 C1752 1.381 . S
C1754 C1755 1.394 . S
C1754 H1762 0.930 . S
C1755 C1754 1.394 . S
C1755 C1756 1.383 . S
C1755 H1763 0.929 . S
C1756 C1755 1.383 . S
C1756 C1757 1.377 . S
C1757 H1741 0.930 . S
C1757 C1756 1.377 . S
C1757 C1758 1.379 . S
C1758 H1742 0.931 . S
C1758 C1752 1.383 . S
C1758 C1757 1.379 . S
H1759 C1753 0.959 . S
H1760 C1753 0.961 . S
H1761 C1753 0.960 . S
H1762 C1754 0.930 . S
H1763 C1755 0.929 . S
H1764 C1772 0.929 . S
H1765 C1774 0.930 . S
H1766 C1776 0.930 . S
H1767 C1779 0.929 . S
H1768 C1782 0.903 1_455 S
H1769 C1784 0.960 . S
H1770 C1784 0.960 . S
H1771 C1784 0.960 . S
C1772 H1764 0.929 . S
C1772 C1773 1.377 . S
C1772 C1774 1.384 . S
C1773 C1772 1.377 . S
C1773 C1779 1.390 . S
C1774 H1765 0.930 . S
C1774 C1772 1.384 . S
C1774 C1775 1.372 . S
C1775 C1774 1.372 . S
C1775 C1776 1.400 . S
C1775 C1780 1.490 . S
C1776 H1766 0.930 . S
C1776 C1775 1.400 . S
C1776 C1779 1.386 . S
H1777 C1793 0.930 . S
H1778 C1794 0.931 . S
C1779 H1767 0.929 . S
C1779 C1773 1.390 . S
C1779 C1776 1.386 . S
C1780 C1775 1.490 . S
C1780 C1782 1.383 1_455 S
C1780 C1783 1.403 . S
H1781 C1787 0.930 . S
C1782 H1768 0.903 1_655 S
C1782 C1780 1.383 1_655 S
C1782 C1785 1.426 . S
C1783 C1780 1.403 . S
C1783 C1784 1.524 . S
C1783 C1787 1.400 1_455 S
C1784 H1769 0.960 . S
C1784 H1770 0.960 . S
C1784 H1771 0.960 . S
C1784 C1783 1.524 . S
C1785 C1782 1.426 . S
C1785 C1786 1.392 . S
C1785 C1789 1.495 . S
C1786 C1785 1.392 . S
C1786 C1787 1.385 . S
C1786 C1788 1.478 . S
C1787 H1781 0.930 . S
C1787 C1783 1.400 1_655 S
C1787 C1786 1.385 . S
C1788 C1786 1.478 . S
C1788 C1790 1.381 . S
C1788 C1794 1.383 . S
C1789 C1785 1.495 . S
C1789 H1795 0.959 . S
C1789 H1796 0.961 . S
C1789 H1797 0.960 . S
C1790 C1788 1.381 . S
C1790 C1791 1.394 . S
C1790 H1798 0.930 . S
C1791 C1790 1.394 . S
C1791 C1792 1.383 . S
C1791 H1799 0.929 . S
C1792 C1791 1.383 . S
C1792 C1793 1.377 . S
C1793 H1777 0.930 . S
C1793 C1792 1.377 . S
C1793 C1794 1.379 . S
C1794 H1778 0.931 . S
C1794 C1788 1.383 . S
C1794 C1793 1.379 . S
H1795 C1789 0.959 . S
H1796 C1789 0.961 . S
H1797 C1789 0.960 . S
H1798 C1790 0.930 . S
H1799 C1791 0.929 . S
H1800 C1808 0.929 . S
H1801 C1810 0.930 . S
H1802 C1812 0.930 . S
H1803 C1815 0.929 . S
H1804 C1818 0.930 . S
H1805 C1820 0.960 . S
H1806 C1820 0.960 . S
H1807 C1820 0.960 . S
C1808 H1800 0.929 . S
C1808 C1809 1.377 . S
C1808 C1810 1.384 . S
C1809 C1808 1.377 . S
C1809 C1815 1.390 . S
C1810 H1801 0.930 . S
C1810 C1808 1.384 . S
C1810 C1811 1.372 . S
C1811 C1810 1.372 . S
C1811 C1812 1.400 . S
C1811 C1816 1.490 . S
C1812 H1802 0.930 . S
C1812 C1811 1.400 . S
C1812 C1815 1.386 . S
H1813 C1829 0.930 . S
H1814 C1830 0.931 . S
C1815 H1803 0.929 . S
C1815 C1809 1.390 . S
C1815 C1812 1.386 . S
C1816 C1811 1.490 . S
C1816 C1818 1.395 . S
C1816 C1819 1.403 1_565 S
H1817 C1823 0.930 . S
C1818 H1804 0.930 . S
C1818 C1816 1.395 . S
C1818 C1821 1.403 . S
C1819 C1816 1.403 1_545 S
C1819 C1820 1.524 . S
C1819 C1823 1.400 . S
C1820 H1805 0.960 . S
C1820 H1806 0.960 . S
C1820 H1807 0.960 . S
C1820 C1819 1.524 . S
C1821 C1818 1.403 . S
C1821 C1822 1.392 1_565 S
C1821 C1825 1.495 . S
C1822 C1821 1.392 1_545 S
C1822 C1823 1.385 . S
C1822 C1824 1.478 . S
C1823 H1817 0.930 . S
C1823 C1819 1.400 . S
C1823 C1822 1.385 . S
C1824 C1822 1.478 . S
C1824 C1826 1.381 . S
C1824 C1830 1.383 . S
C1825 C1821 1.495 . S
C1825 H1831 0.959 . S
C1825 H1832 0.961 . S
C1825 H1833 0.960 . S
C1826 C1824 1.381 . S
C1826 C1827 1.394 . S
C1826 H1834 0.930 . S
C1827 C1826 1.394 . S
C1827 C1828 1.383 . S
C1827 H1835 0.929 . S
C1828 C1827 1.383 . S
C1828 C1829 1.377 . S
C1829 H1813 0.930 . S
C1829 C1828 1.377 . S
C1829 C1830 1.379 . S
C1830 H1814 0.931 . S
C1830 C1824 1.383 . S
C1830 C1829 1.379 . S
H1831 C1825 0.959 . S
H1832 C1825 0.961 . S
H1833 C1825 0.960 . S
H1834 C1826 0.930 . S
H1835 C1827 0.929 . S
H1836 C1844 0.929 . S
H1837 C1846 0.930 . S
H1838 C1848 0.930 . S
H1839 C1851 0.929 . S
H1840 C1854 0.930 . S
H1841 C1856 0.960 . S
H1842 C1856 0.960 . S
H1843 C1856 0.960 . S
C1844 H1836 0.929 . S
C1844 C1845 1.377 . S
C1844 C1846 1.384 . S
C1845 C1844 1.377 . S
C1845 C1851 1.390 . S
C1846 H1837 0.930 . S
C1846 C1844 1.384 . S
C1846 C1847 1.372 . S
C1847 C1846 1.372 . S
C1847 C1848 1.400 . S
C1847 C1852 1.490 . S
C1848 H1838 0.930 . S
C1848 C1847 1.400 . S
C1848 C1851 1.386 . S
H1849 C1865 0.930 . S
H1850 C1866 0.931 . S
C1851 H1839 0.929 . S
C1851 C1845 1.390 . S
C1851 C1848 1.386 . S
C1852 C1847 1.490 . S
C1852 C1854 1.395 . S
C1852 C1855 1.403 . S
H1853 C1859 0.930 . S
C1854 H1840 0.930 . S
C1854 C1852 1.395 . S
C1854 C1857 1.403 . S
C1855 C1852 1.403 . S
C1855 C1856 1.524 . S
C1855 C1859 1.400 . S
C1856 H1841 0.960 . S
C1856 H1842 0.960 . S
C1856 H1843 0.960 . S
C1856 C1855 1.524 . S
C1857 C1854 1.403 . S
C1857 C1858 1.392 . S
C1857 C1861 1.495 . S
C1858 C1857 1.392 . S
C1858 C1859 1.385 . S
C1858 C1860 1.478 . S
C1859 H1853 0.930 . S
C1859 C1855 1.400 . S
C1859 C1858 1.385 . S
C1860 C1858 1.478 . S
C1860 C1862 1.381 . S
C1860 C1866 1.383 . S
C1861 C1857 1.495 . S
C1861 H1867 0.959 1_554 S
C1861 H1868 0.961 1_554 S
C1861 H1869 0.960 . S
C1862 C1860 1.381 . S
C1862 C1863 1.394 . S
C1862 H1870 0.930 . S
C1863 C1862 1.394 . S
C1863 C1864 1.383 . S
C1863 H1871 0.929 . S
C1864 C1863 1.383 . S
C1864 C1865 1.377 . S
C1865 H1849 0.930 . S
C1865 C1864 1.377 . S
C1865 C1866 1.379 . S
C1866 H1850 0.931 . S
C1866 C1860 1.383 . S
C1866 C1865 1.379 . S
H1867 C1861 0.959 1_556 S
H1868 C1861 0.961 1_556 S
H1869 C1861 0.960 . S
H1870 C1862 0.930 . S
H1871 C1863 0.929 . S
H1872 C1880 0.929 . S
H1873 C1882 0.930 . S
H1874 C1884 0.930 . S
H1875 C1887 0.929 . S
H1876 C1890 0.930 . S
H1877 C1892 0.960 . S
H1878 C1892 0.960 . S
H1879 C1892 0.960 1_565 S
C1880 H1872 0.929 . S
C1880 C1881 1.377 . S
C1880 C1882 1.384 . S
C1881 C1880 1.377 . S
C1881 C1887 1.390 . S
C1882 H1873 0.930 . S
C1882 C1880 1.384 . S
C1882 C1883 1.372 . S
C1883 C1882 1.372 . S
C1883 C1884 1.400 . S
C1883 C1888 1.490 . S
C1884 H1874 0.930 . S
C1884 C1883 1.400 . S
C1884 C1887 1.386 . S
H1885 C1901 0.930 . S
H1886 C1902 0.931 . S
C1887 H1875 0.929 . S
C1887 C1881 1.390 . S
C1887 C1884 1.386 . S
C1888 C1883 1.490 . S
C1888 C1890 1.395 . S
C1888 C1891 1.362 1_565 S
H1889 C1895 0.930 . S
C1890 H1876 0.930 . S
C1890 C1888 1.395 . S
C1890 C1893 1.423 . S
C1891 C1888 1.362 1_545 S
C1891 C1892 1.546 . S
C1891 C1895 1.420 . S
C1892 H1877 0.960 . S
C1892 H1878 0.960 . S
C1892 H1879 0.960 1_545 S
C1892 C1891 1.546 . S
C1893 C1890 1.423 . S
C1893 C1894 1.354 1_565 S
C1893 C1897 1.515 . S
C1894 C1893 1.354 1_545 S
C1894 C1895 1.385 . S
C1894 C1896 1.478 . S
C1895 H1889 0.930 . S
C1895 C1891 1.420 . S
C1895 C1894 1.385 . S
C1896 C1894 1.478 . S
C1896 C1898 1.381 . S
C1896 C1902 1.383 . S
C1897 C1893 1.515 . S
C1897 H1903 0.959 . S
C1897 H1904 0.961 . S
C1897 H1905 0.960 1_565 S
C1898 C1896 1.381 . S
C1898 C1899 1.394 . S
C1898 H1906 0.930 . S
C1899 C1898 1.394 . S
C1899 C1900 1.383 . S
C1899 H1907 0.929 . S
C1900 C1899 1.383 . S
C1900 C1901 1.377 . S
C1901 H1885 0.930 . S
C1901 C1900 1.377 . S
C1901 C1902 1.379 . S
C1902 H1886 0.931 . S
C1902 C1896 1.383 . S
C1902 C1901 1.379 . S
H1903 C1897 0.959 . S
H1904 C1897 0.961 . S
H1905 C1897 0.960 1_545 S
H1906 C1898 0.930 . S
H1907 C1899 0.929 . S
H1908 C1916 0.929 . S
H1909 C1918 0.930 . S
H1910 C1920 0.930 . S
H1911 C1923 0.929 . S
H1912 C1926 0.930 . S
H1913 C1928 0.960 . S
H1914 C1928 0.960 . S
H1915 C1928 0.960 . S
C1916 H1908 0.929 . S
C1916 C1917 1.377 . S
C1916 C1918 1.384 . S
C1917 C1916 1.377 . S
C1917 C1923 1.390 . S
C1918 H1909 0.930 . S
C1918 C1916 1.384 . S
C1918 C1919 1.372 . S
C1919 C1918 1.372 . S
C1919 C1920 1.400 . S
C1919 C1924 1.490 . S
C1920 H1910 0.930 . S
C1920 C1919 1.400 . S
C1920 C1923 1.386 . S
H1921 C1937 0.930 . S
H1922 C1938 0.931 . S
C1923 H1911 0.929 . S
C1923 C1917 1.390 . S
C1923 C1920 1.386 . S
C1924 C1919 1.490 . S
C1924 C1926 1.395 . S
C1924 C1927 1.403 . S
H1925 C1931 0.930 . S
C1926 H1912 0.930 . S
C1926 C1924 1.395 . S
C1926 C1929 1.403 . S
C1927 C1924 1.403 . S
C1927 C1928 1.524 . S
C1927 C1931 1.400 . S
C1928 H1913 0.960 . S
C1928 H1914 0.960 . S
C1928 H1915 0.960 . S
C1928 C1927 1.524 . S
C1929 C1926 1.403 . S
C1929 C1930 1.392 . S
C1929 C1933 1.495 . S
C1930 C1929 1.392 . S
C1930 C1931 1.385 . S
C1930 C1932 1.478 . S
C1931 H1925 0.930 . S
C1931 C1927 1.400 . S
C1931 C1930 1.385 . S
C1932 C1930 1.478 . S
C1932 C1934 1.381 . S
C1932 C1938 1.383 . S
C1933 C1929 1.495 . S
C1933 H1939 0.959 . S
C1933 H1940 0.961 . S
C1933 H1941 0.960 . S
C1934 C1932 1.381 . S
C1934 C1935 1.394 . S
C1934 H1942 0.930 . S
C1935 C1934 1.394 . S
C1935 C1936 1.383 . S
C1935 H1943 0.929 . S
C1936 C1935 1.383 . S
C1936 C1937 1.377 . S
C1937 H1921 0.930 . S
C1937 C1936 1.377 . S
C1937 C1938 1.379 . S
C1938 H1922 0.931 . S
C1938 C1932 1.383 . S
C1938 C1937 1.379 . S
H1939 C1933 0.959 . S
H1940 C1933 0.961 . S
H1941 C1933 0.960 . S
H1942 C1934 0.930 . S
H1943 C1935 0.929 . S
H1944 C1952 0.929 . S
H1945 C1954 0.930 . S
H1946 C1956 0.930 . S
H1947 C1959 0.929 . S
H1948 C1962 0.930 . S
H1949 C1964 0.960 . S
H1950 C1964 0.960 . S
H1951 C1964 0.960 . S
C1952 H1944 0.929 . S
C1952 C1953 1.377 . S
C1952 C1954 1.384 . S
C1953 C1952 1.377 . S
C1953 C1959 1.390 . S
C1954 H1945 0.930 . S
C1954 C1952 1.384 . S
C1954 C1955 1.372 . S
C1955 C1954 1.372 . S
C1955 C1956 1.400 . S
C1955 C1960 1.490 . S
C1956 H1946 0.930 . S
C1956 C1955 1.400 . S
C1956 C1959 1.386 . S
H1957 C1973 0.930 . S
H1958 C1974 0.931 . S
C1959 H1947 0.929 . S
C1959 C1953 1.390 . S
C1959 C1956 1.386 . S
C1960 C1955 1.490 . S
C1960 C1962 1.395 1_655 S
C1960 C1963 1.403 . S
H1961 C1967 0.919 . S
C1962 H1948 0.930 . S
C1962 C1960 1.395 1_455 S
C1962 C1965 1.403 . S
C1963 C1960 1.403 . S
C1963 C1964 1.524 . S
C1963 C1967 1.398 . S
C1964 H1949 0.960 . S
C1964 H1950 0.960 . S
C1964 H1951 0.960 . S
C1964 C1963 1.524 . S
C1965 C1962 1.403 . S
C1965 C1966 1.392 . S
C1965 C1969 1.495 . S
C1966 C1965 1.392 . S
C1966 C1967 1.388 1_455 S
C1966 C1968 1.478 . S
C1967 H1961 0.919 . S
C1967 C1963 1.398 . S
C1967 C1966 1.388 1_655 S
C1968 C1966 1.478 . S
C1968 C1970 1.381 . S
C1968 C1974 1.383 . S
C1969 C1965 1.495 . S
C1969 H1975 0.959 . S
C1969 H1976 0.961 . S
C1969 H1977 0.960 . S
C1970 C1968 1.381 . S
C1970 C1971 1.394 . S
C1970 H1978 0.930 . S
C1971 C1970 1.394 . S
C1971 C1972 1.383 . S
C1971 H1979 0.929 . S
C1972 C1971 1.383 . S
C1972 C1973 1.377 . S
C1973 H1957 0.930 . S
C1973 C1972 1.377 . S
C1973 C1974 1.379 . S
C1974 H1958 0.931 . S
C1974 C1968 1.383 . S
C1974 C1973 1.379 . S
H1975 C1969 0.959 . S
H1976 C1969 0.961 . S
H1977 C1969 0.960 . S
H1978 C1970 0.930 . S
H1979 C1971 0.929 . S
H1980 C1988 0.929 . S
H1981 C1990 0.930 . S
H1982 C1992 0.930 . S
H1983 C1995 0.929 . S
H1984 C1998 0.930 . S
H1985 C2000 0.960 . S
H1986 C2000 0.960 . S
H1987 C2000 0.960 . S
C1988 H1980 0.929 . S
C1988 C1989 1.377 . S
C1988 C1990 1.384 . S
C1989 C1988 1.377 . S
C1989 C1995 1.390 . S
C1990 H1981 0.930 . S
C1990 C1988 1.384 . S
C1990 C1991 1.372 . S
C1991 C1990 1.372 . S
C1991 C1992 1.400 . S
C1991 C1996 1.490 . S
C1992 H1982 0.930 . S
C1992 C1991 1.400 . S
C1992 C1995 1.386 . S
H1993 C2009 0.930 . S
H1994 C2010 0.931 . S
C1995 H1983 0.929 . S
C1995 C1989 1.390 . S
C1995 C1992 1.386 . S
C1996 C1991 1.490 . S
C1996 C1998 1.395 . S
C1996 C1999 1.403 1_545 S
H1997 C2003 0.930 . S
C1998 H1984 0.930 . S
C1998 C1996 1.395 . S
C1998 C2001 1.403 . S
C1999 C1996 1.403 1_565 S
C1999 C2000 1.524 . S
C1999 C2003 1.400 . S
C2000 H1985 0.960 . S
C2000 H1986 0.960 . S
C2000 H1987 0.960 . S
C2000 C1999 1.524 . S
C2001 C1998 1.403 . S
C2001 C2002 1.392 1_545 S
C2001 C2005 1.495 . S
C2002 C2001 1.392 1_565 S
C2002 C2003 1.385 . S
C2002 C2004 1.478 . S
C2003 H1997 0.930 . S
C2003 C1999 1.400 . S
C2003 C2002 1.385 . S
C2004 C2002 1.478 . S
C2004 C2006 1.381 . S
C2004 C2010 1.383 . S
C2005 C2001 1.495 . S
C2005 H2011 0.959 . S
C2005 H2012 0.961 . S
C2005 H2013 0.960 . S
C2006 C2004 1.381 . S
C2006 C2007 1.394 . S
C2006 H2014 0.930 . S
C2007 C2006 1.394 . S
C2007 C2008 1.383 . S
C2007 H2015 0.929 . S
C2008 C2007 1.383 . S
C2008 C2009 1.377 . S
C2009 H1993 0.930 . S
C2009 C2008 1.377 . S
C2009 C2010 1.379 . S
C2010 H1994 0.931 . S
C2010 C2004 1.383 . S
C2010 C2009 1.379 . S
H2011 C2005 0.959 . S
H2012 C2005 0.961 . S
H2013 C2005 0.960 . S
H2014 C2006 0.930 . S
H2015 C2007 0.929 . S
H2016 C2024 0.929 . S
H2017 C2026 0.930 . S
H2018 C2028 0.930 . S
H2019 C2031 0.929 . S
H2020 C2034 0.930 . S
H2021 C2036 0.960 . S
H2022 C2036 0.960 . S
H2023 C2036 0.960 . S
C2024 H2016 0.929 . S
C2024 C2025 1.377 . S
C2024 C2026 1.384 . S
C2025 C2024 1.377 . S
C2025 C2031 1.390 . S
C2026 H2017 0.930 . S
C2026 C2024 1.384 . S
C2026 C2027 1.372 . S
C2027 C2026 1.372 . S
C2027 C2028 1.400 . S
C2027 C2032 1.490 . S
C2028 H2018 0.930 . S
C2028 C2027 1.400 . S
C2028 C2031 1.386 . S
H2029 C2045 0.930 . S
H2030 C2046 0.931 . S
C2031 H2019 0.929 . S
C2031 C2025 1.390 . S
C2031 C2028 1.386 . S
C2032 C2027 1.490 . S
C2032 C2034 1.395 . S
C2032 C2035 1.403 . S
H2033 C2039 0.930 . S
C2034 H2020 0.930 . S
C2034 C2032 1.395 . S
C2034 C2037 1.403 . S
C2035 C2032 1.403 . S
C2035 C2036 1.524 . S
C2035 C2039 1.400 . S
C2036 H2021 0.960 . S
C2036 H2022 0.960 . S
C2036 H2023 0.960 . S
C2036 C2035 1.524 . S
C2037 C2034 1.403 . S
C2037 C2038 1.392 . S
C2037 C2041 1.495 . S
C2038 C2037 1.392 . S
C2038 C2039 1.385 . S
C2038 C2040 1.478 . S
C2039 H2033 0.930 . S
C2039 C2035 1.400 . S
C2039 C2038 1.385 . S
C2040 C2038 1.478 . S
C2040 C2042 1.381 . S
C2040 C2046 1.383 . S
C2041 C2037 1.495 . S
C2041 H2047 0.959 . S
C2041 H2048 0.961 . S
C2041 H2049 0.960 . S
C2042 C2040 1.381 . S
C2042 C2043 1.394 . S
C2042 H2050 0.930 . S
C2043 C2042 1.394 . S
C2043 C2044 1.383 . S
C2043 H2051 0.929 . S
C2044 C2043 1.383 . S
C2044 C2045 1.377 . S
C2045 H2029 0.930 . S
C2045 C2044 1.377 . S
C2045 C2046 1.379 . S
C2046 H2030 0.931 . S
C2046 C2040 1.383 . S
C2046 C2045 1.379 . S
H2047 C2041 0.959 . S
H2048 C2041 0.961 . S
H2049 C2041 0.960 . S
H2050 C2042 0.930 . S
H2051 C2043 0.929 . S
H2052 C2060 0.929 . S
H2053 C2062 0.930 . S
H2054 C2064 0.930 . S
H2055 C2067 0.929 . S
H2056 C2070 0.930 . S
H2057 C2072 0.960 . S
H2058 C2072 0.960 . S
H2059 C2072 0.960 . S
C2060 H2052 0.929 . S
C2060 C2061 1.377 . S
C2060 C2062 1.384 . S
C2061 C2060 1.377 . S
C2061 C2067 1.390 . S
C2062 H2053 0.930 . S
C2062 C2060 1.384 . S
C2062 C2063 1.372 . S
C2063 C2062 1.372 . S
C2063 C2064 1.400 . S
C2063 C2068 1.490 . S
C2064 H2054 0.930 . S
C2064 C2063 1.400 . S
C2064 C2067 1.386 . S
H2065 C2081 0.930 . S
H2066 C2082 0.931 . S
C2067 H2055 0.929 . S
C2067 C2061 1.390 . S
C2067 C2064 1.386 . S
C2068 C2063 1.490 . S
C2068 C2070 1.395 . S
C2068 C2071 1.403 1_455 S
H2069 C2075 0.930 . S
C2070 H2056 0.930 . S
C2070 C2068 1.395 . S
C2070 C2073 1.403 . S
C2071 C2068 1.403 1_655 S
C2071 C2072 1.524 . S
C2071 C2075 1.400 . S
C2072 H2057 0.960 . S
C2072 H2058 0.960 . S
C2072 H2059 0.960 . S
C2072 C2071 1.524 . S
C2073 C2070 1.403 . S
C2073 C2074 1.392 1_455 S
C2073 C2077 1.495 . S
C2074 C2073 1.392 1_655 S
C2074 C2075 1.385 . S
C2074 C2076 1.478 . S
C2075 H2069 0.930 . S
C2075 C2071 1.400 . S
C2075 C2074 1.385 . S
C2076 C2074 1.478 . S
C2076 C2078 1.381 . S
C2076 C2082 1.383 . S
C2077 C2073 1.495 . S
C2077 H2083 0.959 . S
C2077 H2084 0.961 . S
C2077 H2085 0.960 . S
C2078 C2076 1.381 . S
C2078 C2079 1.394 . S
C2078 H2086 0.930 . S
C2079 C2078 1.394 . S
C2079 C2080 1.383 . S
C2079 H2087 0.929 . S
C2080 C2079 1.383 . S
C2080 C2081 1.377 . S
C2081 H2065 0.930 . S
C2081 C2080 1.377 . S
C2081 C2082 1.379 . S
C2082 H2066 0.931 . S
C2082 C2076 1.383 . S
C2082 C2081 1.379 . S
H2083 C2077 0.959 . S
H2084 C2077 0.961 . S
H2085 C2077 0.960 . S
H2086 C2078 0.930 . S
H2087 C2079 0.929 . S
H2088 C2096 0.929 . S
H2089 C2098 0.930 . S
H2090 C2100 0.930 . S
H2091 C2103 0.929 . S
H2092 C2106 0.930 . S
H2093 C2108 0.960 . S
H2094 C2108 0.960 . S
H2095 C2108 0.960 . S
C2096 H2088 0.929 . S
C2096 C2097 1.377 . S
C2096 C2098 1.384 . S
C2097 C2096 1.377 . S
C2097 C2103 1.390 . S
C2098 H2089 0.930 . S
C2098 C2096 1.384 . S
C2098 C2099 1.372 . S
C2099 C2098 1.372 . S
C2099 C2100 1.400 . S
C2099 C2104 1.490 . S
C2100 H2090 0.930 . S
C2100 C2099 1.400 . S
C2100 C2103 1.386 . S
H2101 C2117 0.930 . S
H2102 C2118 0.931 . S
C2103 H2091 0.929 . S
C2103 C2097 1.390 . S
C2103 C2100 1.386 . S
C2104 C2099 1.490 . S
C2104 C2106 1.395 . S
C2104 C2107 1.403 . S
H2105 C2111 0.930 . S
C2106 H2092 0.930 . S
C2106 C2104 1.395 . S
C2106 C2109 1.403 . S
C2107 C2104 1.403 . S
C2107 C2108 1.524 . S
C2107 C2111 1.400 . S
C2108 H2093 0.960 . S
C2108 H2094 0.960 . S
C2108 H2095 0.960 . S
C2108 C2107 1.524 . S
C2109 C2106 1.403 . S
C2109 C2110 1.392 . S
C2109 C2113 1.495 . S
C2110 C2109 1.392 . S
C2110 C2111 1.385 . S
C2110 C2112 1.478 . S
C2111 H2105 0.930 . S
C2111 C2107 1.400 . S
C2111 C2110 1.385 . S
C2112 C2110 1.478 . S
C2112 C2114 1.381 . S
C2112 C2118 1.383 . S
C2113 C2109 1.495 . S
C2113 H2119 0.959 . S
C2113 H2120 0.961 . S
C2113 H2121 0.960 . S
C2114 C2112 1.381 . S
C2114 C2115 1.394 . S
C2114 H2122 0.930 . S
C2115 C2114 1.394 . S
C2115 C2116 1.383 . S
C2115 H2123 0.929 . S
C2116 C2115 1.383 . S
C2116 C2117 1.377 . S
C2117 H2101 0.930 . S
C2117 C2116 1.377 . S
C2117 C2118 1.379 . S
C2118 H2102 0.931 . S
C2118 C2112 1.383 . S
C2118 C2117 1.379 . S
H2119 C2113 0.959 . S
H2120 C2113 0.961 . S
H2121 C2113 0.960 . S
H2122 C2114 0.930 . S
H2123 C2115 0.929 . S
H2124 C2132 0.929 . S
H2125 C2134 0.930 . S
H2126 C2136 0.930 . S
H2127 C2139 0.929 . S
H2128 C2142 0.930 . S
H2129 C2144 0.960 . S
H2130 C2144 0.960 . S
H2131 C2144 0.960 . S
C2132 H2124 0.929 . S
C2132 C2133 1.377 . S
C2132 C2134 1.384 . S
C2133 C2132 1.377 . S
C2133 C2139 1.390 . S
C2134 H2125 0.930 . S
C2134 C2132 1.384 . S
C2134 C2135 1.372 . S
C2135 C2134 1.372 . S
C2135 C2136 1.400 . S
C2135 C2140 1.490 . S
C2136 H2126 0.930 . S
C2136 C2135 1.400 . S
C2136 C2139 1.386 . S
H2137 C2153 0.930 . S
H2138 C2154 0.931 . S
C2139 H2127 0.929 . S
C2139 C2133 1.390 . S
C2139 C2136 1.386 . S
C2140 C2135 1.490 . S
C2140 C2142 1.395 . S
C2140 C2143 1.403 . S
H2141 C2147 0.930 . S
C2142 H2128 0.930 . S
C2142 C2140 1.395 . S
C2142 C2145 1.403 . S
C2143 C2140 1.403 . S
C2143 C2144 1.524 . S
C2143 C2147 1.400 . S
C2144 H2129 0.960 . S
C2144 H2130 0.960 . S
C2144 H2131 0.960 . S
C2144 C2143 1.524 . S
C2145 C2142 1.403 . S
C2145 C2146 1.392 . S
C2145 C2149 1.495 . S
C2146 C2145 1.392 . S
C2146 C2147 1.385 . S
C2146 C2148 1.478 . S
C2147 H2141 0.930 . S
C2147 C2143 1.400 . S
C2147 C2146 1.385 . S
C2148 C2146 1.478 . S
C2148 C2150 1.381 . S
C2148 C2154 1.383 . S
C2149 C2145 1.495 . S
C2149 H2155 0.959 . S
C2149 H2156 0.961 . S
C2149 H2157 0.960 . S
C2150 C2148 1.381 . S
C2150 C2151 1.394 . S
C2150 H2158 0.930 . S
C2151 C2150 1.394 . S
C2151 C2152 1.383 . S
C2151 H2159 0.929 . S
C2152 C2151 1.383 . S
C2152 C2153 1.377 . S
C2153 H2137 0.930 . S
C2153 C2152 1.377 . S
C2153 C2154 1.379 . S
C2154 H2138 0.931 . S
C2154 C2148 1.383 . S
C2154 C2153 1.379 . S
H2155 C2149 0.959 . S
H2156 C2149 0.961 . S
H2157 C2149 0.960 . S
H2158 C2150 0.930 . S
H2159 C2151 0.929 . S
H2160 C2168 0.929 . S
H2161 C2170 0.930 . S
H2162 C2172 0.930 . S
H2163 C2175 0.929 . S
H2164 C2178 0.930 . S
H2165 C2180 0.960 . S
H2166 C2180 0.960 . S
H2167 C2180 0.960 . S
C2168 H2160 0.929 . S
C2168 C2169 1.377 . S
C2168 C2170 1.384 . S
C2169 C2168 1.377 . S
C2169 C2175 1.390 . S
C2170 H2161 0.930 . S
C2170 C2168 1.384 . S
C2170 C2171 1.372 . S
C2171 C2170 1.372 . S
C2171 C2172 1.400 . S
C2171 C2176 1.490 . S
C2172 H2162 0.930 . S
C2172 C2171 1.400 . S
C2172 C2175 1.386 . S
H2173 C2189 0.930 . S
H2174 C2190 0.931 . S
C2175 H2163 0.929 . S
C2175 C2169 1.390 . S
C2175 C2172 1.386 . S
C2176 C2171 1.490 . S
C2176 C2178 1.395 . S
C2176 C2179 1.403 . S
H2177 C2183 0.930 . S
C2178 H2164 0.930 . S
C2178 C2176 1.395 . S
C2178 C2181 1.403 . S
C2179 C2176 1.403 . S
C2179 C2180 1.524 . S
C2179 C2183 1.400 . S
C2180 H2165 0.960 . S
C2180 H2166 0.960 . S
C2180 H2167 0.960 . S
C2180 C2179 1.524 . S
C2181 C2178 1.403 . S
C2181 C2182 1.392 . S
C2181 C2185 1.495 . S
C2182 C2181 1.392 . S
C2182 C2183 1.385 . S
C2182 C2184 1.478 . S
C2183 H2177 0.930 . S
C2183 C2179 1.400 . S
C2183 C2182 1.385 . S
C2184 C2182 1.478 . S
C2184 C2186 1.381 . S
C2184 C2190 1.383 . S
C2185 C2181 1.495 . S
C2185 H2191 0.959 . S
C2185 H2192 0.961 . S
C2185 H2193 0.960 . S
C2186 C2184 1.381 . S
C2186 C2187 1.394 . S
C2186 H2194 0.930 . S
C2187 C2186 1.394 . S
C2187 C2188 1.383 . S
C2187 H2195 0.929 . S
C2188 C2187 1.383 . S
C2188 C2189 1.377 . S
C2189 H2173 0.930 . S
C2189 C2188 1.377 . S
C2189 C2190 1.379 . S
C2190 H2174 0.931 . S
C2190 C2184 1.383 . S
C2190 C2189 1.379 . S
H2191 C2185 0.959 . S
H2192 C2185 0.961 . S
H2193 C2185 0.960 . S
H2194 C2186 0.930 . S
H2195 C2187 0.929 . S
H2196 C2204 0.929 . S
H2197 C2206 0.930 . S
H2198 C2208 0.930 . S
H2199 C2211 0.929 . S
H2200 C2214 0.930 . S
H2201 C2216 0.960 . S
H2202 C2216 0.960 . S
H2203 C2216 0.960 . S
C2204 H2196 0.929 . S
C2204 C2205 1.377 . S
C2204 C2206 1.384 . S
C2205 C2204 1.377 . S
C2205 C2211 1.390 . S
C2206 H2197 0.930 . S
C2206 C2204 1.384 . S
C2206 C2207 1.372 . S
C2207 C2206 1.372 . S
C2207 C2208 1.400 . S
C2207 C2212 1.490 . S
C2208 H2198 0.930 . S
C2208 C2207 1.400 . S
C2208 C2211 1.386 . S
H2209 C2225 0.930 . S
H2210 C2226 0.931 . S
C2211 H2199 0.929 . S
C2211 C2205 1.390 . S
C2211 C2208 1.386 . S
C2212 C2207 1.490 . S
C2212 C2214 1.395 . S
C2212 C2215 1.403 . S
H2213 C2219 0.930 . S
C2214 H2200 0.930 . S
C2214 C2212 1.395 . S
C2214 C2217 1.403 . S
C2215 C2212 1.403 . S
C2215 C2216 1.524 . S
C2215 C2219 1.400 . S
C2216 H2201 0.960 . S
C2216 H2202 0.960 . S
C2216 H2203 0.960 . S
C2216 C2215 1.524 . S
C2217 C2214 1.403 . S
C2217 C2218 1.392 . S
C2217 C2221 1.495 . S
C2218 C2217 1.392 . S
C2218 C2219 1.385 . S
C2218 C2220 1.478 . S
C2219 H2213 0.930 . S
C2219 C2215 1.400 . S
C2219 C2218 1.385 . S
C2220 C2218 1.478 . S
C2220 C2222 1.381 . S
C2220 C2226 1.383 . S
C2221 C2217 1.495 . S
C2221 H2227 0.959 . S
C2221 H2228 0.961 . S
C2221 H2229 0.960 . S
C2222 C2220 1.381 . S
C2222 C2223 1.394 . S
C2222 H2230 0.930 . S
C2223 C2222 1.394 . S
C2223 C2224 1.383 . S
C2223 H2231 0.929 . S
C2224 C2223 1.383 . S
C2224 C2225 1.377 . S
C2225 H2209 0.930 . S
C2225 C2224 1.377 . S
C2225 C2226 1.379 . S
C2226 H2210 0.931 . S
C2226 C2220 1.383 . S
C2226 C2225 1.379 . S
H2227 C2221 0.959 . S
H2228 C2221 0.961 . S
H2229 C2221 0.960 . S
H2230 C2222 0.930 . S
H2231 C2223 0.929 . S
H2232 C2240 0.929 . S
H2233 C2242 0.930 . S
H2234 C2244 0.930 . S
H2235 C2247 0.929 . S
H2236 C2250 0.930 . S
H2237 C2252 0.960 . S
H2238 C2252 0.960 . S
H2239 C2252 0.960 . S
C2240 H2232 0.929 . S
C2240 C2241 1.377 . S
C2240 C2242 1.384 . S
C2241 C2240 1.377 . S
C2241 C2247 1.390 . S
C2242 H2233 0.930 . S
C2242 C2240 1.384 . S
C2242 C2243 1.372 . S
C2243 C2242 1.372 . S
C2243 C2244 1.400 . S
C2243 C2248 1.490 . S
C2244 H2234 0.930 . S
C2244 C2243 1.400 . S
C2244 C2247 1.386 . S
H2245 C2261 0.930 . S
H2246 C2262 0.931 . S
C2247 H2235 0.929 . S
C2247 C2241 1.390 . S
C2247 C2244 1.386 . S
C2248 C2243 1.490 . S
C2248 C2250 1.395 . S
C2248 C2251 1.403 . S
H2249 C2255 0.930 . S
C2250 H2236 0.930 . S
C2250 C2248 1.395 . S
C2250 C2253 1.403 . S
C2251 C2248 1.403 . S
C2251 C2252 1.524 . S
C2251 C2255 1.400 . S
C2252 H2237 0.960 . S
C2252 H2238 0.960 . S
C2252 H2239 0.960 . S
C2252 C2251 1.524 . S
C2253 C2250 1.403 . S
C2253 C2254 1.392 . S
C2253 C2257 1.495 . S
C2254 C2253 1.392 . S
C2254 C2255 1.385 . S
C2254 C2256 1.478 . S
C2255 H2249 0.930 . S
C2255 C2251 1.400 . S
C2255 C2254 1.385 . S
C2256 C2254 1.478 . S
C2256 C2258 1.381 . S
C2256 C2262 1.383 . S
C2257 C2253 1.495 . S
C2257 H2263 0.959 . S
C2257 H2264 0.961 . S
C2257 H2265 0.960 . S
C2258 C2256 1.381 . S
C2258 C2259 1.394 . S
C2258 H2266 0.930 . S
C2259 C2258 1.394 . S
C2259 C2260 1.383 . S
C2259 H2267 0.929 . S
C2260 C2259 1.383 . S
C2260 C2261 1.377 . S
C2261 H2245 0.930 . S
C2261 C2260 1.377 . S
C2261 C2262 1.379 . S
C2262 H2246 0.931 . S
C2262 C2256 1.383 . S
C2262 C2261 1.379 . S
H2263 C2257 0.959 . S
H2264 C2257 0.961 . S
H2265 C2257 0.960 . S
H2266 C2258 0.930 . S
H2267 C2259 0.929 . S
H2268 C2276 0.929 . S
H2269 C2278 0.930 . S
H2270 C2280 0.930 . S
H2271 C2283 0.929 . S
H2272 C2286 0.930 . S
H2273 C2288 0.960 . S
H2274 C2288 0.960 . S
H2275 C2288 0.960 . S
C2276 H2268 0.929 . S
C2276 C2277 1.377 . S
C2276 C2278 1.384 . S
C2277 C2276 1.377 . S
C2277 C2283 1.390 . S
C2278 H2269 0.930 . S
C2278 C2276 1.384 . S
C2278 C2279 1.372 . S
C2279 C2278 1.372 . S
C2279 C2280 1.400 . S
C2279 C2284 1.490 . S
C2280 H2270 0.930 . S
C2280 C2279 1.400 . S
C2280 C2283 1.386 . S
H2281 C2297 0.930 . S
H2282 C2298 0.931 . S
C2283 H2271 0.929 . S
C2283 C2277 1.390 . S
C2283 C2280 1.386 . S
C2284 C2279 1.490 . S
C2284 C2286 1.395 . S
C2284 C2287 1.403 . S
H2285 C2291 0.930 . S
C2286 H2272 0.930 . S
C2286 C2284 1.395 . S
C2286 C2289 1.403 . S
C2287 C2284 1.403 . S
C2287 C2288 1.524 . S
C2287 C2291 1.400 . S
C2288 H2273 0.960 . S
C2288 H2274 0.960 . S
C2288 H2275 0.960 . S
C2288 C2287 1.524 . S
C2289 C2286 1.403 . S
C2289 C2290 1.392 . S
C2289 C2293 1.495 . S
C2290 C2289 1.392 . S
C2290 C2291 1.385 . S
C2290 C2292 1.478 . S
C2291 H2285 0.930 . S
C2291 C2287 1.400 . S
C2291 C2290 1.385 . S
C2292 C2290 1.478 . S
C2292 C2294 1.381 . S
C2292 C2298 1.383 . S
C2293 C2289 1.495 . S
C2293 H2299 0.959 . S
C2293 H2300 0.961 . S
C2293 H2301 0.960 . S
C2294 C2292 1.381 . S
C2294 C2295 1.394 . S
C2294 H2302 0.930 . S
C2295 C2294 1.394 . S
C2295 C2296 1.383 . S
C2295 H2303 0.929 . S
C2296 C2295 1.383 . S
C2296 C2297 1.377 . S
C2297 H2281 0.930 . S
C2297 C2296 1.377 . S
C2297 C2298 1.379 . S
C2298 H2282 0.931 . S
C2298 C2292 1.383 . S
C2298 C2297 1.379 . S
H2299 C2293 0.959 . S
H2300 C2293 0.961 . S
H2301 C2293 0.960 . S
H2302 C2294 0.930 . S
H2303 C2295 0.929 . S
C1017 C75 0.920 . S
C1036 C747 0.904 . S
C1053 C159 0.926 . S
C1072 C831 0.932 . S
C1089 C243 0.923 . S
C1108 C915 0.922 . S
C1125 C999 0.922 . S
C1144 C327 0.913 . S
C1161 C411 0.927 . S
C1180 C579 0.944 . S
C1197 C663 0.916 . S
C1216 C495 0.894 . S
C1233 C903 1.354 . S
C1252 C63 1.388 . S
C1269 C987 1.358 . S
C1288 C147 1.407 . S
C1305 C231 1.337 . S
C1324 C567 1.307 . S
C1341 C651 1.343 . S
C1360 C315 1.336 . S
C1377 C735 1.353 . S
C1396 C399 1.381 . S
C1413 C483 1.351 . S
C1432 C819 1.376 . S
C1449 C644 4.607 . S
C1468 C56 4.603 . S
C1485 C728 4.611 . S
C1504 C140 4.615 . S
C1521 C812 4.612 . S
C1540 C224 4.610 . S
C1557 C308 4.608 . S
C1576 C896 4.616 . S
C1593 C392 4.613 . S
C1612 C980 4.606 . S
C1629 C476 4.612 . S
C1648 C560 4.607 . S
C1665 C66 0.782 . S
C1684 C318 0.754 . S
C1701 C150 0.760 . S
C1720 C402 0.733 . S
C1737 C234 0.755 . S
C1756 C486 0.796 . S
C1773 C822 0.780 . S
C1792 C570 0.739 . S
C1809 C654 0.755 . S
C1828 C906 0.778 . S
C1845 C990 0.757 . S
C1864 C738 0.820 . S
C1881 C660 0.946 . S
C1900 C72 0.997 . S
C1917 C744 0.941 . S
C1936 C156 1.002 . S
C1953 C240 0.943 . S
C1972 C828 0.920 . S
C1989 C912 0.952 . S
C2008 C324 0.975 . S
C2025 C996 0.938 . S
C2044 C408 0.945 . S
C2061 C492 0.955 . S
C2080 C576 0.958 . S
C2097 C67 3.461 . S
C2116 C907 3.449 . S
C2133 C151 3.460 . S
C2152 C991 3.446 1_556 S
C2169 C235 3.464 1_554 S
C2188 C571 3.464 . S
C2205 C319 3.460 . S
C2224 C655 3.443 . S
C2241 C403 3.462 . S
C2260 C739 3.453 1_556 S
C2277 C823 3.463 . S
C2296 C487 3.460 1_554 S
