# Generated by pormake.
# Topology pbz, (3)-cn, num edge types: 1
# Building blocks:
#     Node 0, Type 0, BuildingBlock: WUSLED_clean_sbu_0, # of connection points: 3
#     Node 1, Type 0, BuildingBlock: WUSLED_clean_sbu_0, # of connection points: 3
#     Node 2, Type 0, BuildingBlock: WUSLED_clean_sbu_0, # of connection points: 3
#     Node 3, Type 0, BuildingBlock: WUSLED_clean_sbu_0, # of connection points: 3
#     Node 4, Type 0, BuildingBlock: WUSLED_clean_sbu_0, # of connection points: 3
#     Node 5, Type 0, BuildingBlock: WUSLED_clean_sbu_0, # of connection points: 3
#     Node 6, Type 0, BuildingBlock: WUSLED_clean_sbu_0, # of connection points: 3
#     Node 7, Type 0, BuildingBlock: WUSLED_clean_sbu_0, # of connection points: 3
#     Node 8, Type 0, BuildingBlock: WUSLED_clean_sbu_0, # of connection points: 3
#     Node 9, Type 0, BuildingBlock: WUSLED_clean_sbu_0, # of connection points: 3
#     Node 10, Type 0, BuildingBlock: WUSLED_clean_sbu_0, # of connection points: 3
#     Node 11, Type 0, BuildingBlock: WUSLED_clean_sbu_0, # of connection points: 3
#     Node 12, Type 0, BuildingBlock: WUSLED_clean_sbu_0, # of connection points: 3
#     Node 13, Type 0, BuildingBlock: WUSLED_clean_sbu_0, # of connection points: 3
#     Node 14, Type 0, BuildingBlock: WUSLED_clean_sbu_0, # of connection points: 3
#     Node 15, Type 0, BuildingBlock: WUSLED_clean_sbu_0, # of connection points: 3
#     Node 16, Type 0, BuildingBlock: WUSLED_clean_sbu_0, # of connection points: 3
#     Node 17, Type 0, BuildingBlock: WUSLED_clean_sbu_0, # of connection points: 3
#     Node 18, Type 0, BuildingBlock: WUSLED_clean_sbu_0, # of connection points: 3
#     Node 19, Type 0, BuildingBlock: WUSLED_clean_sbu_0, # of connection points: 3
#     Node 20, Type 0, BuildingBlock: WUSLED_clean_sbu_0, # of connection points: 3
#     Node 21, Type 0, BuildingBlock: WUSLED_clean_sbu_0, # of connection points: 3
#     Node 22, Type 0, BuildingBlock: WUSLED_clean_sbu_0, # of connection points: 3
#     Node 23, Type 0, BuildingBlock: WUSLED_clean_sbu_0, # of connection points: 3
#     Edge 24, Type (0, 0), BuildingBlock: TEMPAE_clean_linker_10, # of connection points: 2
#     Edge 25, Type (0, 0), BuildingBlock: TEMPAE_clean_linker_10, # of connection points: 2
#     Edge 26, Type (0, 0), BuildingBlock: TEMPAE_clean_linker_10, # of connection points: 2
#     Edge 27, Type (0, 0), BuildingBlock: TEMPAE_clean_linker_10, # of connection points: 2
#     Edge 28, Type (0, 0), BuildingBlock: TEMPAE_clean_linker_10, # of connection points: 2
#     Edge 29, Type (0, 0), BuildingBlock: TEMPAE_clean_linker_10, # of connection points: 2
#     Edge 30, Type (0, 0), BuildingBlock: TEMPAE_clean_linker_10, # of connection points: 2
#     Edge 31, Type (0, 0), BuildingBlock: TEMPAE_clean_linker_10, # of connection points: 2
#     Edge 32, Type (0, 0), BuildingBlock: TEMPAE_clean_linker_10, # of connection points: 2
#     Edge 33, Type (0, 0), BuildingBlock: TEMPAE_clean_linker_10, # of connection points: 2
#     Edge 34, Type (0, 0), BuildingBlock: TEMPAE_clean_linker_10, # of connection points: 2
#     Edge 35, Type (0, 0), BuildingBlock: TEMPAE_clean_linker_10, # of connection points: 2
#     Edge 36, Type (0, 0), BuildingBlock: TEMPAE_clean_linker_10, # of connection points: 2
#     Edge 37, Type (0, 0), BuildingBlock: TEMPAE_clean_linker_10, # of connection points: 2
#     Edge 38, Type (0, 0), BuildingBlock: TEMPAE_clean_linker_10, # of connection points: 2
#     Edge 39, Type (0, 0), BuildingBlock: TEMPAE_clean_linker_10, # of connection points: 2
#     Edge 40, Type (0, 0), BuildingBlock: TEMPAE_clean_linker_10, # of connection points: 2
#     Edge 41, Type (0, 0), BuildingBlock: TEMPAE_clean_linker_10, # of connection points: 2
#     Edge 42, Type (0, 0), BuildingBlock: TEMPAE_clean_linker_10, # of connection points: 2
#     Edge 43, Type (0, 0), BuildingBlock: TEMPAE_clean_linker_10, # of connection points: 2
#     Edge 44, Type (0, 0), BuildingBlock: TEMPAE_clean_linker_10, # of connection points: 2
#     Edge 45, Type (0, 0), BuildingBlock: TEMPAE_clean_linker_10, # of connection points: 2
#     Edge 46, Type (0, 0), BuildingBlock: TEMPAE_clean_linker_10, # of connection points: 2
#     Edge 47, Type (0, 0), BuildingBlock: TEMPAE_clean_linker_10, # of connection points: 2
#     Edge 48, Type (0, 0), BuildingBlock: TEMPAE_clean_linker_10, # of connection points: 2
#     Edge 49, Type (0, 0), BuildingBlock: TEMPAE_clean_linker_10, # of connection points: 2
#     Edge 50, Type (0, 0), BuildingBlock: TEMPAE_clean_linker_10, # of connection points: 2
#     Edge 51, Type (0, 0), BuildingBlock: TEMPAE_clean_linker_10, # of connection points: 2
#     Edge 52, Type (0, 0), BuildingBlock: TEMPAE_clean_linker_10, # of connection points: 2
#     Edge 53, Type (0, 0), BuildingBlock: TEMPAE_clean_linker_10, # of connection points: 2
#     Edge 54, Type (0, 0), BuildingBlock: TEMPAE_clean_linker_10, # of connection points: 2
#     Edge 55, Type (0, 0), BuildingBlock: TEMPAE_clean_linker_10, # of connection points: 2
#     Edge 56, Type (0, 0), BuildingBlock: TEMPAE_clean_linker_10, # of connection points: 2
#     Edge 57, Type (0, 0), BuildingBlock: TEMPAE_clean_linker_10, # of connection points: 2
#     Edge 58, Type (0, 0), BuildingBlock: TEMPAE_clean_linker_10, # of connection points: 2
#     Edge 59, Type (0, 0), BuildingBlock: TEMPAE_clean_linker_10, # of connection points: 2
# Relax obj value: 0.000
# Max RMSD: 0.013
# Mean RMSD: 0.009
data_MOF--net-pbz--node1-WUSLED_clean_sbu_0--edge1-TEMPAE_clean_linker_10
_symmetry_space_group_name_H-M    P1
_symmetry_Int_Tables_number       1
_symmetry_cell_setting            triclinic
loop_
_symmetry_equiv_pos_as_xyz
'x, y, z'
_cell_length_a     99.316961
_cell_length_b     99.33434
_cell_length_c     99.424598
_cell_angle_alpha  89.477604
_cell_angle_beta   89.981735
_cell_angle_gamma 90.009729
loop_
_atom_site_label
_atom_site_type_symbol
_atom_site_fract_x
_atom_site_fract_y
_atom_site_fract_z
_atom_type_partial_charge
C0 C 1.00436 0.21573 0.71412 0.0
C1 C 0.01651 0.2228 0.71582 0.0
C2 C 1.00756 0.234 0.73576 0.0
C3 C 0.01808 0.23183 0.72651 0.0
C4 C 0.99552 0.2267 0.73413 0.0
C5 C 0.99395 0.21774 0.72345 0.0
U6 U 1.01128 0.18576 0.68986 0.0
O7 O 0.99648 0.17207 0.68065 0.0
O8 O 1.00901 0.18508 0.66783 0.0
C9 C 0.999 0.17642 0.66837 0.0
C10 C 1.00177 0.20711 0.70223 0.0
C11 C 0.98715 0.17894 0.65953 0.0
C12 C 0.97516 0.19229 0.64261 0.0
C13 C 0.9857 0.19088 0.65194 0.0
C14 C 0.96718 0.16999 0.64845 0.0
C15 C 0.96586 0.18177 0.64058 0.0
C16 C 0.97769 0.16859 0.65775 0.0
C17 C 0.04155 0.16148 0.69665 0.0
C18 C 0.05897 0.15005 0.68366 0.0
C19 C 0.05185 0.14075 0.70507 0.0
C20 C 0.04266 0.15133 0.70652 0.0
C21 C 0.06031 0.14006 0.69373 0.0
C22 C 0.04973 0.16065 0.68511 0.0
C23 C 0.03279 0.17334 0.69928 0.0
O24 O 1.01037 0.20779 0.69217 0.0
O25 O 0.99752 0.1948 0.70469 0.0
O26 O 0.02052 0.17081 0.70357 0.0
O27 O 0.03334 0.18351 0.69073 0.0
H28 H 0.02474 0.22154 0.7088 0.0
H29 H 0.02755 0.23713 0.72752 0.0
H30 H 0.98711 0.22822 0.74089 0.0
H31 H 0.98441 0.21257 0.72231 0.0
H32 H 0.97456 0.20146 0.63668 0.0
H33 H 0.99285 0.19903 0.65298 0.0
H34 H 0.96012 0.16177 0.64737 0.0
H35 H 0.97859 0.15924 0.66338 0.0
H36 H 0.06537 0.14994 0.67485 0.0
H37 H 0.05241 0.13316 0.71293 0.0
H38 H 0.03658 0.15173 0.71556 0.0
H39 H 0.04925 0.16834 0.67734 0.0
C40 C 0.81613 0.513 0.21309 0.0
C41 C 0.82009 0.51115 0.22658 0.0
C42 C 0.79723 0.51589 0.2344 0.0
C43 C 0.81077 0.5126 0.23709 0.0
C44 C 0.7934 0.51807 0.22092 0.0
C45 C 0.8027 0.5166 0.21043 0.0
U46 U 0.84742 0.51931 0.19015 0.0
O47 O 0.86151 0.50446 0.18161 0.0
O48 O 0.84921 0.51709 0.1682 0.0
C49 C 0.8578 0.50705 0.16916 0.0
C50 C 0.82536 0.51 0.20168 0.0
C51 C 0.85555 0.49526 0.16034 0.0
C52 C 0.84151 0.48179 0.14543 0.0
C53 C 0.84291 0.49232 0.15469 0.0
C54 C 0.86525 0.47679 0.14758 0.0
C55 C 0.85272 0.47401 0.14158 0.0
C56 C 0.86663 0.48728 0.15679 0.0
C57 C 0.87074 0.54992 0.198 0.0
C58 C 0.88979 0.55824 0.18488 0.0
C59 C 0.88452 0.56835 0.20629 0.0
C60 C 0.87366 0.55949 0.20786 0.0
C61 C 0.89277 0.56787 0.1948 0.0
C62 C 0.87889 0.54933 0.18648 0.0
C63 C 0.85903 0.54093 0.20007 0.0
O64 O 0.82524 0.51846 0.19143 0.0
O65 O 0.83752 0.50565 0.20465 0.0
O66 O 0.86163 0.52865 0.20433 0.0
O67 O 0.84954 0.54137 0.19086 0.0
H68 H 0.83031 0.50825 0.22904 0.0
H69 H 0.8141 0.51069 0.2473 0.0
H70 H 0.78314 0.52082 0.21843 0.0
H71 H 0.79929 0.51799 0.20016 0.0
H72 H 0.83173 0.48002 0.14099 0.0
H73 H 0.83417 0.49831 0.1572 0.0
H74 H 0.87406 0.47089 0.1451 0.0
H75 H 0.87649 0.48933 0.16099 0.0
H76 H 0.89599 0.55747 0.17595 0.0
H77 H 0.8863 0.57574 0.21404 0.0
H78 H 0.86747 0.56017 0.2168 0.0
H79 H 0.87681 0.542 0.17874 0.0
C80 C 0.48896 0.38465 0.68049 0.0
C81 C 0.47789 0.38112 0.68858 0.0
C82 C 0.46723 0.40289 0.68382 0.0
C83 C 0.46712 0.39014 0.69021 0.0
C84 C 0.4784 0.40632 0.67578 0.0
C85 C 0.48911 0.39731 0.67415 0.0
U86 U 0.51166 0.35366 0.68871 0.0
O87 O 0.52116 0.33956 0.67462 0.0
O88 O 0.53381 0.35226 0.68739 0.0
C89 C 0.53344 0.34355 0.67752 0.0
C90 C 0.50038 0.37537 0.67821 0.0
C91 C 0.5428 0.34604 0.6661 0.0
C92 C 0.54742 0.34973 0.64223 0.0
C93 C 0.53823 0.3485 0.65292 0.0
C94 C 0.56589 0.34635 0.65774 0.0
C95 C 0.56139 0.34851 0.64447 0.0
C96 C 0.55672 0.34511 0.66839 0.0
C97 C 0.50359 0.33101 0.71993 0.0
C98 C 0.51319 0.30912 0.72573 0.0
C99 C 0.49843 0.3203 0.74145 0.0
C100 C 0.49704 0.33111 0.73242 0.0
C101 C 0.5064 0.30908 0.73821 0.0
C102 C 0.51177 0.31998 0.71666 0.0
C103 C 0.50132 0.34241 0.7105 0.0
O104 O 0.51022 0.37578 0.68704 0.0
O105 O 0.49738 0.36306 0.6745 0.0
O106 O 0.49754 0.33936 0.69822 0.0
O107 O 0.51016 0.35225 0.71082 0.0
H108 H 0.47757 0.3714 0.6936 0.0
H109 H 0.45876 0.38719 0.69659 0.0
H110 H 0.4788 0.41591 0.67052 0.0
H111 H 0.49752 0.40023 0.6678 0.0
H112 H 0.54355 0.35129 0.63215 0.0
H113 H 0.52755 0.34925 0.65082 0.0
H114 H 0.57654 0.3456 0.65994 0.0
H115 H 0.56052 0.34321 0.67844 0.0
H116 H 0.51934 0.30062 0.72285 0.0
H117 H 0.49325 0.32078 0.75102 0.0
H118 H 0.49073 0.33954 0.73517 0.0
H119 H 0.51693 0.31969 0.70707 0.0
C120 C 0.67494 0.04193 0.15546 0.0
C121 C 0.6779 0.05493 0.1601 0.0
C122 C 0.67748 0.06385 0.13706 0.0
C123 C 0.67918 0.06577 0.151 0.0
C124 C 0.67486 0.05074 0.13249 0.0
C125 C 0.67359 0.03995 0.14157 0.0
U126 U 0.68142 0.019 0.18694 0.0
O127 O 0.66648 1.00953 0.20039 0.0
O128 O 0.67988 0.99685 0.18838 0.0
C129 C 0.66949 0.99725 0.19657 0.0
C130 C 0.67228 0.03043 0.16473 0.0
C131 C 0.65811 0.98804 0.19356 0.0
C132 C 0.63423 0.98369 0.18973 0.0
C133 C 0.64493 0.99277 0.19139 0.0
C134 C 0.6497 0.96502 0.19209 0.0
C135 C 0.63644 0.96967 0.19018 0.0
C136 C 0.66036 0.97408 0.19379 0.0
C137 C 0.71103 0.02694 0.21142 0.0
C138 C 0.72448 1.01246 0.22614 0.0
C139 C 0.72436 0.03654 0.22955 0.0
C140 C 0.71546 0.03812 0.21872 0.0
C141 C 0.7291 0.02371 0.23337 0.0
C142 C 0.71553 0.01405 0.2153 0.0
C143 C 0.70243 0.02923 0.1994 0.0
O144 O 0.68114 0.0206 0.16477 0.0
O145 O 0.66772 0.03325 0.1768 0.0
O146 O 0.69 0.03318 0.20162 0.0
O147 O 0.70337 0.02047 0.18961 0.0
H148 H 0.67898 0.05677 0.17077 0.0
H149 H 0.68112 0.07571 0.15493 0.0
H150 H 0.67374 0.04879 0.12185 0.0
H151 H 0.6713 0.03004 0.13772 0.0
H152 H 0.6242 0.98765 0.18811 0.0
H153 H 0.64284 1.00346 0.19114 0.0
H154 H 0.6518 0.95433 0.19267 0.0
H155 H 0.67039 0.97015 0.19558 0.0
H156 H 0.72778 1.00241 0.22888 0.0
H157 H 0.72781 0.04546 0.2347 0.0
H158 H 0.71224 0.04817 0.21587 0.0
H159 H 0.71226 1.00523 0.20986 0.0
C160 C 1.00581 0.32172 0.83212 0.0
C161 C 1.00228 0.32568 0.81895 0.0
C162 C 1.00868 0.30362 0.81025 0.0
C163 C 1.00372 0.31676 0.80817 0.0
C164 C 1.01249 0.29979 0.82338 0.0
C165 C 1.01102 0.30869 0.83415 0.0
U166 U 1.01184 0.35191 0.85637 0.0
O167 O 0.9969 0.36507 0.866 0.0
O168 O 1.00996 0.35227 0.87849 0.0
C169 C 0.99977 0.36071 0.87821 0.0
C170 C 1.0028 0.33039 0.84392 0.0
C171 C 0.98832 0.35772 0.8874 0.0
C172 C 0.96436 0.3544 0.89185 0.0
C173 C 0.97508 0.35595 0.88273 0.0
C174 C 0.97996 0.35611 0.91044 0.0
C175 C 0.96664 0.35458 0.90585 0.0
C176 C 0.99062 0.35768 0.90134 0.0
C177 C 0.04221 0.37621 0.85017 0.0
C178 C 0.04668 0.4004 0.85052 0.0
C179 C 0.06482 0.38469 0.85475 0.0
C180 C 0.05586 0.37392 0.85316 0.0
C181 C 0.0604 0.39809 0.8533 0.0
C182 C 0.0377 0.38961 0.84897 0.0
C183 C 0.03333 0.36455 0.84713 0.0
O184 O 1.01128 0.32984 0.85407 0.0
O185 O 0.99832 0.34264 0.84152 0.0
O186 O 0.02101 0.36713 0.84296 0.0
O187 O 0.03393 0.35419 0.85544 0.0
H188 H 0.99812 0.33558 0.81696 0.0
H189 H 1.00083 0.32014 0.79819 0.0
H190 H 0.01616 0.28972 0.82544 0.0
H191 H 0.01361 0.30521 0.84418 0.0
H192 H 0.95428 0.35308 0.88793 0.0
H193 H 0.97295 0.35595 0.87205 0.0
H194 H 0.98213 0.35649 0.9211 0.0
H195 H 1.0007 0.35918 0.90522 0.0
H196 H 0.04287 0.41057 0.84949 0.0
H197 H 0.07532 0.38249 0.8567 0.0
H198 H 0.0597 0.36374 0.85394 0.0
H199 H 0.02728 0.39178 0.8466 0.0
C200 C 0.67243 0.49375 0.38624 0.0
C201 C 0.68502 0.49133 0.39228 0.0
C202 C 0.67586 0.47204 0.40475 0.0
C203 C 0.68671 0.48061 0.40144 0.0
C204 C 0.66336 0.47438 0.39848 0.0
C205 C 0.66168 0.48509 0.38939 0.0
U206 U 0.67939 0.51785 0.35577 0.0
O207 O 0.66457 0.52728 0.3421 0.0
O208 O 0.67745 0.53993 0.35468 0.0
C209 C 0.66725 0.53952 0.34626 0.0
C210 C 0.66988 0.50565 0.37742 0.0
C211 C 0.65549 0.54839 0.34904 0.0
C212 C 0.64424 0.56567 0.36227 0.0
C213 C 0.6548 0.55645 0.36059 0.0
C214 C 0.63469 0.55883 0.34104 0.0
C215 C 0.63409 0.56709 0.35245 0.0
C216 C 0.64527 0.54966 0.33934 0.0
C217 C 0.7095 0.51037 0.33159 0.0
C218 C 0.72485 0.52432 0.31825 0.0
C219 C 0.72188 0.50084 0.31275 0.0
C220 C 0.71266 0.49943 0.32332 0.0
C221 C 0.72828 0.51325 0.31016 0.0
C222 C 0.71559 0.5229 0.32886 0.0
C223 C 0.70069 0.50802 0.34346 0.0
O224 O 0.67861 0.5156 0.37782 0.0
O225 O 0.66551 0.50319 0.36521 0.0
O226 O 0.68833 0.50398 0.34102 0.0
O227 O 0.70141 0.51667 0.35337 0.0
H228 H 0.69353 0.49781 0.39007 0.0
H229 H 0.69652 0.47903 0.40592 0.0
H230 H 0.65473 0.46814 0.40089 0.0
H231 H 0.65184 0.4868 0.38499 0.0
H232 H 0.64403 0.57173 0.37127 0.0
H233 H 0.66253 0.5558 0.36826 0.0
H234 H 0.6272 0.55974 0.33317 0.0
H235 H 0.64561 0.54374 0.33025 0.0
H236 H 0.72962 0.53401 0.31663 0.0
H237 H 0.72403 0.49215 0.30661 0.0
H238 H 0.70815 0.48966 0.3252 0.0
H239 H 0.71341 0.53152 0.33508 0.0
C240 C 0.4892 0.15509 0.86179 0.0
C241 C 0.47609 0.1596 0.85889 0.0
C242 C 0.46773 0.13641 0.85888 0.0
C243 C 0.46548 0.15036 0.85745 0.0
C244 C 0.48096 0.13197 0.86146 0.0
C245 C 0.49152 0.14119 0.86292 0.0
U246 U 0.51182 0.18647 0.85473 0.0
O247 O 0.52034 0.2008 0.8693 0.0
O248 O 0.53378 0.1884 0.85704 0.0
C249 C 0.53281 0.19705 0.86693 0.0
C250 C 0.50046 0.16452 0.86459 0.0
C251 C 0.54158 0.19482 0.87886 0.0
C252 C 0.5571 0.18103 0.89216 0.0
C253 C 0.54791 0.1824 0.88149 0.0
C254 C 0.55356 0.20435 0.89796 0.0
C255 C 0.5602 0.19205 0.90045 0.0
C256 C 0.54442 0.20571 0.8873 0.0
C257 C 0.50409 0.20902 0.82327 0.0
C258 C 0.51598 0.22926 0.81588 0.0
C259 C 0.49708 0.22102 0.803 0.0
C260 C 0.49549 0.21038 0.81217 0.0
C261 C 0.50736 0.23062 0.80466 0.0
C262 C 0.51438 0.21854 0.8251 0.0
C263 C 0.50196 0.19756 0.83265 0.0
O264 O 0.51071 0.16429 0.85622 0.0
O265 O 0.49726 0.17675 0.86841 0.0
O266 O 0.49769 0.20048 0.84479 0.0
O267 O 0.51116 0.18805 0.83261 0.0
H268 H 0.47396 0.17027 0.85799 0.0
H269 H 0.45544 0.15419 0.85558 0.0
H270 H 0.48317 0.12133 0.86238 0.0
H271 H 0.50152 0.13743 0.86515 0.0
H272 H 0.56207 0.17144 0.89366 0.0
H273 H 0.54598 0.1738 0.87515 0.0
H274 H 0.55546 0.213 0.90424 0.0
H275 H 0.53971 0.2154 0.88551 0.0
H276 H 0.52407 0.23638 0.81746 0.0
H277 H 0.49008 0.22183 0.79468 0.0
H278 H 0.48745 0.20318 0.81061 0.0
H279 H 0.52114 0.21767 0.8336 0.0
C280 C 0.81659 0.02382 0.33057 0.0
C281 C 0.82127 0.02412 0.3172 0.0
C282 C 0.79839 0.02084 0.30871 0.0
C283 C 0.81228 0.02265 0.30642 0.0
C284 C 0.79381 0.02022 0.3221 0.0
C285 C 0.80278 0.02173 0.33286 0.0
U286 U 0.84725 0.01818 0.35467 0.0
O287 O 0.86042 0.03341 0.36387 0.0
O288 O 0.84785 0.02048 0.37671 0.0
C289 C 0.85608 0.03084 0.37614 0.0
C290 C 0.82549 0.02693 0.34217 0.0
C291 C 0.85286 0.04254 0.38489 0.0
C292 C 0.85479 0.06645 0.39016 0.0
C293 C 0.85637 0.05579 0.38113 0.0
C294 C 0.84593 0.05097 0.40684 0.0
C295 C 0.84971 0.06417 0.40322 0.0
C296 C 0.84754 0.04031 0.39783 0.0
C297 C 0.87172 0.98786 0.34898 0.0
C298 C 0.89589 0.98328 0.34849 0.0
C299 C 0.88035 0.96538 0.3542 0.0
C300 C 0.86954 0.97434 0.35268 0.0
C301 C 0.89368 0.96967 0.35196 0.0
C302 C 0.88506 0.99225 0.347 0.0
C303 C 0.85994 0.99666 0.34589 0.0
O304 O 0.82513 0.01853 0.35246 0.0
O305 O 0.83769 0.03139 0.33953 0.0
O306 O 0.86237 1.00893 0.34143 0.0
O307 O 0.84973 0.99611 0.3543 0.0
H308 H 0.83184 0.02576 0.31505 0.0
H309 H 0.81621 0.02301 0.29626 0.0
H310 H 0.78319 0.01904 0.32429 0.0
H311 H 0.79884 0.02163 0.34302 0.0
H312 H 0.85767 0.07649 0.38694 0.0
H313 H 0.86063 0.05791 0.37131 0.0
H314 H 0.84218 0.04875 0.41685 0.0
H315 H 0.84497 0.03022 0.40117 0.0
H316 H 0.90601 0.987 0.34685 0.0
H317 H 0.8782 0.95497 0.3567 0.0
H318 H 0.85939 0.97057 0.35405 0.0
H319 H 0.88715 1.00256 0.34405 0.0
C320 C 0.17256 0.65548 0.99681 0.0
C321 C 0.18455 0.64806 0.99547 0.0
C322 C 0.17582 0.63699 0.97538 0.0
C323 C 0.18615 0.63893 0.98489 0.0
C324 C 0.16396 0.64464 0.97662 0.0
C325 C 0.16235 0.65371 0.98721 0.0
U326 U 0.17997 0.68521 0.02116 0.0
O327 O 0.16552 0.6994 0.0302 0.0
O328 O 0.17738 0.68588 0.04314 0.0
C329 C 0.16775 0.69494 0.04249 0.0
C330 C 0.16992 0.66423 1.00859 0.0
C331 C 0.15577 0.69284 0.05121 0.0
C332 C 0.14174 0.67889 0.06594 0.0
C333 C 0.15236 0.68016 0.05666 0.0
C334 C 0.13758 0.70284 0.06421 0.0
C335 C 0.13435 0.69027 0.07002 0.0
C336 C 0.14815 0.70409 0.05496 0.0
C337 C 0.21143 0.70811 0.01545 0.0
C338 C 0.21619 0.73215 0.01726 0.0
C339 C 0.23439 0.71607 0.01903 0.0
C340 C 0.22521 0.70551 0.0173 0.0
C341 C 0.23005 0.72956 0.01888 0.0
C342 C 0.20699 0.72156 0.01558 0.0
C343 C 0.20222 0.69673 1.01231 0.0
O344 O 0.1782 0.66324 0.01888 0.0
O345 O 0.16624 0.6767 1.00598 0.0
O346 O 0.19015 0.69976 1.00778 0.0
O347 O 0.20217 0.68649 0.02079 0.0
H348 H 0.19262 0.64914 1.0027 0.0
H349 H 0.19549 0.63335 0.98417 0.0
H350 H 0.15572 0.64332 0.96963 0.0
H351 H 0.15294 0.65916 0.98806 0.0
H352 H 0.13961 0.66907 0.07024 0.0
H353 H 0.15807 0.67129 0.05398 0.0
H354 H 0.13198 0.71178 0.06688 0.0
H355 H 0.15057 0.71398 0.05094 0.0
H356 H 0.21244 0.74239 0.01726 0.0
H357 H 0.24497 0.71366 0.02008 0.0
H358 H 0.22895 0.69527 0.01709 0.0
H359 H 0.19644 0.72395 0.01416 0.0
C360 C 0.14822 0.86064 0.49817 0.0
C361 C 0.15207 0.85302 0.48696 0.0
C362 C 0.13037 0.85758 0.47611 0.0
C363 C 0.14321 0.85148 0.47604 0.0
C364 C 0.12657 0.865 0.48749 0.0
C365 C 0.13539 0.8665 0.49835 0.0
U366 U 0.17913 0.85351 0.52152 0.0
O367 O 0.19275 0.86828 0.53076 0.0
O368 O 0.18008 0.85544 0.54359 0.0
C369 C 0.18851 0.86564 0.54305 0.0
C370 C 0.1574 0.86312 0.50961 0.0
C371 C 0.18555 0.87727 0.55193 0.0
C372 C 0.1856 0.9014 0.55648 0.0
C373 C 0.18712 0.89068 0.5475 0.0
C374 C 0.18069 0.8856 0.57445 0.0
C375 C 0.18249 0.89901 0.57012 0.0
C376 C 0.18225 0.8749 0.5655 0.0
C377 C 0.20308 0.82299 0.51527 0.0
C378 C 0.22708 0.81784 0.51356 0.0
C379 C 0.21163 0.80073 0.52152 0.0
C380 C 0.2009 0.8098 0.52006 0.0
C381 C 0.22486 0.80455 0.51811 0.0
C382 C 0.21634 0.82693 0.51214 0.0
C383 C 0.19133 0.8319 0.51231 0.0
O384 O 0.157 0.85438 0.51961 0.0
O385 O 0.16968 0.86713 0.50668 0.0
O386 O 0.19386 0.84417 0.5079 0.0
O387 O 0.18118 0.8314 0.52079 0.0
H388 H 0.16194 0.84841 0.48659 0.0
H389 H 0.14653 0.84577 0.46743 0.0
H390 H 0.11672 0.86963 0.48805 0.0
H391 H 0.13219 0.87239 0.5069 0.0
H392 H 0.18691 0.91159 0.55273 0.0
H393 H 0.18974 0.89292 0.53715 0.0
H394 H 0.17847 0.88332 0.5849 0.0
H395 H 0.18118 0.86469 0.56928 0.0
H396 H 0.23713 0.82121 0.51098 0.0
H397 H 0.20947 0.79055 0.52487 0.0
H398 H 0.1908 0.80635 0.52235 0.0
H399 H 0.21843 0.83696 0.50831 0.0
C400 C 0.32109 0.71585 0.51388 0.0
C401 C 0.31906 0.72253 0.52614 0.0
C402 C 0.29931 0.73417 0.51698 0.0
C403 C 0.3083 0.73158 0.52766 0.0
C404 C 0.30124 0.72724 0.50484 0.0
C405 C 0.31198 0.71825 0.50331 0.0
U406 U 0.3458 0.68591 0.52072 0.0
O407 O 0.35576 0.67285 0.50597 0.0
O408 O 0.36797 0.68574 0.51895 0.0
C409 C 0.36787 0.6774 0.50875 0.0
C410 C 0.33314 0.70734 0.51135 0.0
C411 C 0.37691 0.68067 0.49721 0.0
C412 C 0.38171 0.68137 0.47311 0.0
C413 C 0.37257 0.67972 0.48378 0.0
C414 C 0.39966 0.68527 0.48903 0.0
C415 C 0.39542 0.68401 0.47559 0.0
C416 C 0.39054 0.68357 0.49968 0.0
C417 C 0.33924 0.66095 0.55067 0.0
C418 C 0.35191 0.64993 0.56873 0.0
C419 C 0.3317 0.63947 0.56018 0.0
C420 C 0.33005 0.65018 0.55105 0.0
C421 C 0.34256 0.63926 0.56928 0.0
C422 C 0.35027 0.66064 0.55956 0.0
C423 C 0.33635 0.67287 0.54193 0.0
O424 O 0.34306 0.70791 0.52009 0.0
O425 O 0.33094 0.69511 0.50691 0.0
O426 O 0.33239 0.67047 0.52956 0.0
O427 O 0.34454 0.68324 0.54271 0.0
H428 H 0.3259 0.72096 0.53449 0.0
H429 H 0.30706 0.73659 0.53721 0.0
H430 H 0.29468 0.72908 0.49632 0.0
H431 H 0.31338 0.71339 0.4937 0.0
H432 H 0.37803 0.6805 0.4629 0.0
H433 H 0.36217 0.67744 0.48147 0.0
H434 H 0.41014 0.68712 0.49137 0.0
H435 H 0.39424 0.68418 0.50991 0.0
H436 H 0.36048 0.65005 0.57545 0.0
H437 H 0.3242 0.63156 0.5604 0.0
H438 H 0.32133 0.65021 0.5445 0.0
H439 H 0.35752 0.66878 0.55963 0.0
C440 C 0.32282 0.8213 0.02951 0.0
C441 C 0.31911 0.81711 0.01656 0.0
C442 C 0.30119 0.80294 0.02599 0.0
C443 C 0.30842 0.80801 0.01483 0.0
C444 C 0.30484 0.80739 0.03889 0.0
C445 C 0.3155 0.81644 0.04061 0.0
U446 U 0.34717 0.85124 0.02178 0.0
O447 O 0.35651 0.86521 0.03619 0.0
O448 O 0.36922 0.85195 0.02406 0.0
C449 C 0.36875 0.86075 0.03385 0.0
C450 C 0.33465 0.83008 0.03194 0.0
C451 C 0.37749 0.85829 0.04578 0.0
C452 C 0.3938 0.84471 0.05832 0.0
C453 C 0.38457 0.84615 0.0477 0.0
C454 C 0.38886 0.86738 0.06548 0.0
C455 C 0.39622 0.85539 0.06725 0.0
C456 C 0.37966 0.86881 0.05488 0.0
C457 C 0.34108 0.87455 0.99054 0.0
C458 C 0.34362 0.89863 0.98604 0.0
C459 C 0.34347 0.883 0.96753 0.0
C460 C 0.3419 0.87226 0.97664 0.0
C461 C 0.34418 0.89636 0.97207 0.0
C462 C 0.3421 0.88786 0.99516 0.0
C463 C 0.33806 0.86305 0.99974 0.0
O464 O 0.34473 0.82925 0.0234 0.0
O465 O 0.33212 0.84248 0.03567 0.0
O466 O 0.33373 0.86591 1.01189 0.0
O467 O 0.34652 0.85286 0.99961 0.0
H468 H 0.32456 0.82072 1.00781 0.0
H469 H 0.30582 0.80495 1.00473 0.0
H470 H 0.29969 0.8036 0.04775 0.0
H471 H 0.31822 0.81944 0.0507 0.0
H472 H 0.39935 0.83537 0.05927 0.0
H473 H 0.38321 0.83786 0.04084 0.0
H474 H 0.39024 0.87574 0.07226 0.0
H475 H 0.37441 0.8783 0.05363 0.0
H476 H 0.34431 0.90875 0.98993 0.0
H477 H 0.3437 0.88084 0.95688 0.0
H478 H 0.341 0.86214 0.97278 0.0
H479 H 0.3415 0.89 1.00581 0.0
C480 C 1.00891 0.82819 0.32272 0.0
C481 C 1.00747 0.81482 0.32733 0.0
C482 C 1.01159 0.80625 0.30469 0.0
C483 C 1.0088 0.80401 0.31843 0.0
C484 C 0.01333 0.81962 0.30019 0.0
C485 C 1.01195 0.83042 0.30907 0.0
U486 U 0.01563 0.85224 0.35286 0.0
O487 O 0.01384 0.87439 0.35333 0.0
O488 O 1.00103 0.8619 0.36638 0.0
C489 C 1.00378 0.8741 0.36192 0.0
C490 C 1.00607 0.83993 0.33152 0.0
C491 C 0.99225 0.88327 0.35907 0.0
C492 C 0.96812 0.88794 0.35779 0.0
C493 C 0.97881 0.87875 0.35913 0.0
C494 C 0.98406 0.90627 0.35603 0.0
C495 C 0.97059 0.90186 0.35642 0.0
C496 C 0.99472 0.89711 0.35738 0.0
C497 C 0.04661 0.84555 0.37615 0.0
C498 C 0.05122 0.85357 0.3988 0.0
C499 C 0.06902 0.84325 0.38588 0.0
C500 C 0.06008 0.84141 0.37517 0.0
C501 C 0.06474 0.8493 0.39789 0.0
C502 C 0.04225 0.85173 0.38803 0.0
C503 C 0.03739 0.84274 0.3648 0.0
O504 O 1.00189 0.83743 0.34385 0.0
O505 O 0.01456 0.85007 0.33082 0.0
O506 O 0.03777 0.85122 0.35459 0.0
O507 O 0.02511 0.8388 0.36784 0.0
H508 H 1.00506 0.8127 0.33776 0.0
H509 H 1.00756 0.79386 0.32231 0.0
H510 H 0.01529 0.8218 0.28968 0.0
H511 H 0.01293 0.84059 0.30515 0.0
H512 H 0.95791 0.88415 0.35826 0.0
H513 H 0.97652 0.86817 0.3605 0.0
H514 H 0.98641 0.91685 0.35476 0.0
H515 H 1.00495 0.9009 0.35736 0.0
H516 H 0.04758 0.85841 0.40782 0.0
H517 H 0.07926 0.83965 0.38483 0.0
H518 H 0.06366 0.83654 0.36614 0.0
H519 H 0.03191 0.85505 0.38903 0.0
C520 C 0.1471 0.49612 0.86173 0.0
C521 C 0.15152 0.48269 0.86089 0.0
C522 C 0.12829 0.47476 0.85868 0.0
C523 C 0.14222 0.47215 0.85937 0.0
C524 C 0.12397 0.48825 0.85918 0.0
C525 C 0.13324 0.49876 0.86072 0.0
U526 U 0.17864 0.51886 0.85573 0.0
O527 O 0.18049 0.5408 0.85814 0.0
O528 O 0.19258 0.52724 0.8708 0.0
C529 C 0.18895 0.53973 0.86827 0.0
C530 C 0.15644 0.50739 0.86478 0.0
C531 C 0.18659 0.54848 0.88009 0.0
C532 C 0.17263 0.56377 0.89318 0.0
C533 C 0.17408 0.55459 0.8826 0.0
C534 C 0.19605 0.56063 0.89908 0.0
C535 C 0.18365 0.56707 0.90146 0.0
C536 C 0.19749 0.5515 0.88853 0.0
C537 C 0.2026 0.51167 0.8255 0.0
C538 C 0.21673 0.5262 0.81148 0.0
C539 C 0.22086 0.50221 0.81219 0.0
C540 C 0.21019 0.50057 0.82128 0.0
C541 C 0.22421 0.51502 0.80703 0.0
C542 C 0.20606 0.52455 0.82062 0.0
C543 C 0.19065 0.50929 0.8342 0.0
O544 O 0.16856 0.50424 0.86912 0.0
O545 O 0.15644 0.51767 0.85635 0.0
O546 O 0.18096 0.51831 0.83372 0.0
O547 O 0.19298 0.50472 0.84643 0.0
H548 H 0.16212 0.48027 0.8617 0.0
H549 H 0.14595 0.46191 0.85914 0.0
H550 H 0.11337 0.49072 0.85844 0.0
H551 H 0.12954 0.50899 0.86139 0.0
H552 H 0.16296 0.56858 0.89462 0.0
H553 H 0.16549 0.55251 0.87625 0.0
H554 H 0.2047 0.56269 0.90536 0.0
H555 H 0.20725 0.54695 0.88681 0.0
H556 H 0.21912 0.53624 0.80787 0.0
H557 H 0.22623 0.49334 0.8089 0.0
H558 H 0.20767 0.49052 0.82479 0.0
H559 H 0.2004 0.53332 0.82371 0.0
C560 C 0.53828 0.65597 0.36294 0.0
C561 C 0.54038 0.64922 0.35073 0.0
C562 C 0.5599 0.63742 0.36017 0.0
C563 C 0.55107 0.64007 0.34936 0.0
C564 C 0.55793 0.64446 0.37224 0.0
C565 C 0.54725 0.65357 0.3736 0.0
U566 U 0.51431 0.68627 0.35541 0.0
O567 O 0.49211 0.68701 0.35663 0.0
O568 O 0.50433 0.6997 0.36982 0.0
C569 C 0.49219 0.69543 0.36676 0.0
C570 C 0.52631 0.66467 0.36525 0.0
C571 C 0.48281 0.69244 0.37808 0.0
C572 C 0.4779 0.69005 0.40206 0.0
C573 C 0.48722 0.69153 0.39151 0.0
C574 C 0.45966 0.69005 0.38596 0.0
C575 C 0.46396 0.68949 0.39945 0.0
C576 C 0.46895 0.69155 0.37545 0.0
C577 C 0.52258 0.71047 0.32527 0.0
C578 C 0.50832 0.72508 0.31147 0.0
C579 C 0.53251 0.72787 0.31096 0.0
C580 C 0.5339 0.71736 0.32033 0.0
C581 C 0.51972 0.73178 0.30624 0.0
C582 C 0.50973 0.71451 0.32087 0.0
C583 C 0.52471 0.6987 0.3343 0.0
O584 O 0.52863 0.67689 0.36965 0.0
O585 O 0.51653 0.66422 0.35634 0.0
O586 O 0.51608 0.6887 0.33344 0.0
O587 O 0.52833 0.70126 0.34673 0.0
H588 H 0.53362 0.65077 0.34231 0.0
H589 H 0.55216 0.63478 0.33996 0.0
H590 H 0.56462 0.6429 0.38071 0.0
H591 H 0.54586 0.65857 0.38314 0.0
H592 H 0.48162 0.68977 0.4123 0.0
H593 H 0.49783 0.69224 0.39391 0.0
H594 H 0.44906 0.68941 0.3835 0.0
H595 H 0.46526 0.69227 0.36521 0.0
H596 H 0.49832 0.72777 0.30803 0.0
H597 H 0.54151 0.73293 0.3074 0.0
H598 H 0.54391 0.71445 0.32357 0.0
H599 H 0.50081 0.70936 0.32451 0.0
C600 C 0.31469 0.01384 0.83161 0.0
C601 C 0.31909 1.01211 0.81827 0.0
C602 C 0.29646 0.01679 0.8097 0.0
C603 C 0.31009 0.01358 0.80747 0.0
C604 C 0.29217 0.01881 0.82303 0.0
C605 C 0.30114 0.01731 0.83382 0.0
U606 U 0.34509 0.02006 0.85571 0.0
O607 O 0.34574 0.01797 0.87783 0.0
O608 O 0.35858 1.00521 0.86529 0.0
C609 C 0.35433 1.00791 0.87751 0.0
C610 C 0.32355 1.01082 0.84335 0.0
C611 C 0.35158 0.99634 0.88667 0.0
C612 C 0.34772 0.9724 0.89096 0.0
C613 C 0.34902 0.98329 0.88192 0.0
C614 C 0.35123 0.98746 0.90962 0.0
C615 C 0.349 0.97431 0.90494 0.0
C616 C 0.35252 0.9983 0.9006 0.0
C617 C 0.36882 0.05085 0.84948 0.0
C618 C 0.3929 0.05506 0.85212 0.0
C619 C 0.37729 0.07374 0.85212 0.0
C620 C 0.36655 0.06476 0.85043 0.0
C621 C 0.39064 0.06904 0.85286 0.0
C622 C 0.38213 0.04606 0.85047 0.0
C623 C 0.35728 0.04183 0.84645 0.0
O624 O 0.33584 1.00656 0.84087 0.0
O625 O 0.323 0.0192 0.8535 0.0
O626 O 0.34703 0.04219 0.85481 0.0
O627 O 0.36003 0.0296 0.84229 0.0
H628 H 0.32942 1.00937 0.81616 0.0
H629 H 0.31381 1.0121 0.79735 0.0
H630 H 0.28173 0.02111 0.82519 0.0
H631 H 0.29738 0.01851 0.84396 0.0
H632 H 0.3461 0.96243 0.88697 0.0
H633 H 0.34828 0.98145 0.87123 0.0
H634 H 0.35202 0.9894 0.92029 0.0
H635 H 0.35451 1.00824 0.90454 0.0
H636 H 0.40302 0.05105 0.85282 0.0
H637 H 0.37514 0.08441 0.85246 0.0
H638 H 0.35643 0.06875 0.84955 0.0
H639 H 0.38425 0.0354 0.84977 0.0
C640 C 1.00582 0.70913 0.21795 0.0
C641 C 0.01857 0.71224 0.22328 0.0
C642 C 1.00901 0.73097 0.23597 0.0
C643 C 0.02013 0.72303 0.2322 0.0
C644 C 0.99634 0.72792 0.23042 0.0
C645 C 0.99478 0.71715 0.22157 0.0
U646 U 0.01339 0.6853 0.18792 0.0
O647 O 1.01205 0.66316 0.18718 0.0
O648 O 0.99894 0.67551 0.17432 0.0
C649 C 1.00218 0.6633 0.17837 0.0
C650 C 1.00349 0.6972 0.20935 0.0
C651 C 0.99091 0.65387 0.18086 0.0
C652 C 0.97111 0.64637 0.19334 0.0
C653 C 0.98171 0.65559 0.19143 0.0
C654 C 0.97882 0.63369 0.17415 0.0
C655 C 0.96955 0.63525 0.18473 0.0
C656 C 0.98936 0.64287 0.17227 0.0
C657 C 0.04332 0.69301 0.1637 0.0
C658 C 0.05873 0.67889 0.15089 0.0
C659 C 0.05512 0.70205 0.14409 0.0
C660 C 0.0461 0.70369 0.15478 0.0
C661 C 0.06168 0.68967 0.14206 0.0
C662 C 0.04963 0.68053 0.16158 0.0
C663 C 0.03455 0.69554 0.17553 0.0
O664 O 0.99912 0.69959 0.19708 0.0
O665 O 1.01242 0.68743 0.20993 0.0
O666 O 0.03539 0.68704 0.18572 0.0
O667 O 0.02213 0.69936 0.17297 0.0
H668 H 0.02729 0.70626 0.22068 0.0
H669 H 0.03007 0.72515 0.23613 0.0
H670 H 0.98751 0.73365 0.2332 0.0
H671 H 0.98483 0.71491 0.21771 0.0
H672 H 0.96424 0.64785 0.20166 0.0
H673 H 0.98273 0.66402 0.19819 0.0
H674 H 0.97786 0.62544 0.16717 0.0
H675 H 0.9963 0.64139 0.164 0.0
H676 H 0.06346 0.66918 0.14956 0.0
H677 H 0.05726 0.71064 0.13765 0.0
H678 H 0.04148 0.71345 0.15624 0.0
H679 H 0.0477 0.67209 0.16827 0.0
C680 C 0.31369 0.5247 0.7117 0.0
C681 C 0.31809 0.52527 0.72515 0.0
C682 C 0.29514 0.52152 0.73331 0.0
C683 C 0.30893 0.5237 0.73581 0.0
C684 C 0.29083 0.5207 0.71985 0.0
C685 C 0.29998 0.52232 0.70921 0.0
U686 U 0.34456 0.5182 0.68834 0.0
O687 O 0.346 0.52065 0.66635 0.0
O688 O 0.35869 0.53296 0.67945 0.0
C689 C 0.35465 0.53064 0.66709 0.0
C690 C 0.32285 0.52771 0.70019 0.0
C691 C 0.35226 0.54263 0.65831 0.0
C692 C 0.33906 0.55492 0.64148 0.0
C693 C 0.3404 0.5442 0.65069 0.0
C694 C 0.36124 0.56289 0.64751 0.0
C695 C 0.34954 0.56433 0.63962 0.0
C696 C 0.36258 0.55218 0.65667 0.0
C697 C 0.3674 0.48698 0.69575 0.0
C698 C 0.38844 0.4809 0.68472 0.0
C699 C 0.37904 0.46625 0.70189 0.0
C700 C 0.36822 0.47512 0.70345 0.0
C701 C 0.38938 0.46902 0.69258 0.0
C702 C 0.37756 0.48981 0.68631 0.0
C703 C 0.35594 0.49619 0.69806 0.0
O704 O 0.33514 0.53175 0.70301 0.0
O705 O 0.32242 0.51942 0.68996 0.0
O706 O 0.34623 0.49606 0.68908 0.0
O707 O 0.35889 0.50837 0.7022 0.0
H708 H 0.32857 0.52714 0.72748 0.0
H709 H 0.31265 0.52422 0.74602 0.0
H710 H 0.28029 0.51922 0.7175 0.0
H711 H 0.29624 0.52202 0.69898 0.0
H712 H 0.32996 0.5556 0.63553 0.0
H713 H 0.33227 0.53699 0.65162 0.0
H714 H 0.36944 0.57003 0.64656 0.0
H715 H 0.37186 0.5512 0.66234 0.0
H716 H 0.39625 0.48343 0.67752 0.0
H717 H 0.37924 0.45713 0.70794 0.0
H718 H 0.36046 0.47271 0.71075 0.0
H719 H 0.37714 0.49893 0.68027 0.0
C720 C 0.53751 0.88414 0.1808 0.0
C721 C 0.55035 0.87959 0.1847 0.0
C722 C 0.55911 0.90263 0.18382 0.0
C723 C 0.56103 0.88874 0.1862 0.0
C724 C 0.54614 0.90712 0.18025 0.0
C725 C 0.53551 0.89799 0.17874 0.0
U726 U 0.51507 0.85251 0.18731 0.0
O727 O 0.4931 0.85053 0.18511 0.0
O728 O 0.5065 0.83859 0.17239 0.0
C729 C 0.49404 0.84225 0.1749 0.0
C730 C 0.52626 0.87475 0.17794 0.0
C731 C 0.48521 0.84488 0.16305 0.0
C732 C 0.46767 0.85784 0.15157 0.0
C733 C 0.47685 0.85631 0.16221 0.0
C734 C 0.47517 0.83674 0.14223 0.0
C735 C 0.4666 0.848 0.1415 0.0
C736 C 0.48431 0.83518 0.15289 0.0
C737 C 0.52309 0.82898 0.21801 0.0
C738 C 0.5089 0.81235 0.22937 0.0
C739 C 0.53266 0.81353 0.23458 0.0
C740 C 0.53417 0.82407 0.22527 0.0
C741 C 0.51999 0.80761 0.23691 0.0
C742 C 0.51043 0.82297 0.22003 0.0
C743 C 0.52508 0.84075 0.20897 0.0
O744 O 0.52948 0.86264 0.17378 0.0
O745 O 0.51613 0.87472 0.18645 0.0
O746 O 0.51589 0.85026 0.20935 0.0
O747 O 0.52938 0.83827 0.19674 0.0
H748 H 0.55221 0.86896 0.18633 0.0
H749 H 0.57088 0.88488 0.18887 0.0
H750 H 0.54417 0.91772 0.17858 0.0
H751 H 0.52571 0.90175 0.17574 0.0
H752 H 0.46137 0.86673 0.15125 0.0
H753 H 0.47723 0.86397 0.16987 0.0
H754 H 0.47455 0.82887 0.13479 0.0
H755 H 0.49047 0.82619 0.15334 0.0
H756 H 0.49898 0.80809 0.23093 0.0
H757 H 0.54148 0.81001 0.23996 0.0
H758 H 0.54404 0.82853 0.22386 0.0
H759 H 0.50171 0.82659 0.21454 0.0
C760 C 0.17386 0.99654 0.65643 0.0
C761 C 0.17429 0.98306 0.6609 0.0
C762 C 0.17703 0.97522 0.63778 0.0
C763 C 0.17588 0.97254 0.65168 0.0
C764 C 0.17696 0.98875 0.63343 0.0
C765 C 0.17536 0.99924 0.64262 0.0
U766 U 0.17917 0.01934 0.68784 0.0
O767 O 0.17664 0.04131 0.68932 0.0
O768 O 0.16371 0.02787 0.70125 0.0
C769 C 0.16621 0.04033 0.69743 0.0
C770 C 0.17066 1.00783 0.66562 0.0
C771 C 0.15434 0.04908 0.69455 0.0
C772 C 0.14376 0.06779 0.68242 0.0
C773 C 0.15439 0.0586 0.68396 0.0
C774 C 0.13264 0.05802 0.70181 0.0
C775 C 0.13281 0.06775 0.69143 0.0
C776 C 0.14328 0.04886 0.70337 0.0
C777 C 0.20892 1.01212 0.71258 0.0
C778 C 0.22352 0.02627 0.72627 0.0
C779 C 0.22102 1.00264 0.73179 0.0
C780 C 0.21216 1.00114 0.72095 0.0
C781 C 0.22696 0.01519 0.73454 0.0
C782 C 0.2146 0.02476 0.71542 0.0
C783 C 0.20048 1.00977 0.70048 0.0
O784 O 0.16608 1.00473 0.67767 0.0
O785 O 0.17907 0.01805 0.66567 0.0
O786 O 0.20115 0.01873 0.69067 0.0
O787 O 0.18821 1.00524 0.70257 0.0
H788 H 0.17309 0.98059 0.67146 0.0
H789 H 0.17577 0.96227 0.65543 0.0
H790 H 0.17806 0.99127 0.62286 0.0
H791 H 0.175 1.00951 0.63887 0.0
H792 H 0.14417 0.07503 0.67421 0.0
H793 H 0.16277 0.05915 0.677 0.0
H794 H 0.12451 0.05777 0.70907 0.0
H795 H 0.14302 0.04183 0.71176 0.0
H796 H 0.22776 0.03612 0.72816 0.0
H797 H 0.22354 0.99383 0.73778 0.0
H798 H 0.20805 0.99126 0.71892 0.0
H799 H 0.21232 0.03344 0.70915 0.0
C800 C 0.81576 0.32934 0.03176 0.0
C801 C 0.81212 0.32541 0.01871 0.0
C802 C 0.7974 0.30779 0.02787 0.0
C803 C 0.80302 0.31476 0.01679 0.0
C804 C 0.80127 0.31168 0.04089 0.0
C805 C 0.81031 0.32231 0.04279 0.0
U806 U 0.84629 0.35298 0.02452 0.0
O807 O 0.84757 0.37501 0.02661 0.0
O808 O 0.8603 0.36196 0.03916 0.0
C809 C 0.8562 0.37431 0.03662 0.0
C810 C 0.82466 0.34104 0.03431 0.0
C811 C 0.85374 0.38304 0.04846 0.0
C812 C 0.84012 0.39919 0.06091 0.0
C813 C 0.84159 0.39008 0.05027 0.0
C814 C 0.86279 0.3942 0.06828 0.0
C815 C 0.85075 0.40147 0.07 0.0
C816 C 0.86426 0.38514 0.05765 0.0
C817 C 0.86988 0.34532 0.99397 0.0
C818 C 0.88426 0.35959 0.97993 0.0
C819 C 0.8873 0.33543 0.97989 0.0
C820 C 0.87685 0.33403 0.98925 0.0
C821 C 0.89106 0.34821 0.97494 0.0
C822 C 0.87376 0.35817 0.98933 0.0
C823 C 0.85816 0.34317 1.00301 0.0
O824 O 0.83693 0.33829 0.03845 0.0
O825 O 0.82422 0.35107 0.02559 0.0
O826 O 0.84837 0.35208 1.00249 0.0
O827 O 0.86079 0.33896 0.0153 0.0
H828 H 0.81621 0.33063 1.01001 0.0
H829 H 0.80042 0.31196 1.00661 0.0
H830 H 0.79704 0.30672 0.04967 0.0
H831 H 0.81289 0.3252 0.05295 0.0
H832 H 0.83066 0.40448 0.06198 0.0
H833 H 0.83327 0.38872 0.04337 0.0
H834 H 0.87128 0.3958 0.07491 0.0
H835 H 0.87379 0.37999 0.05643 0.0
H836 H 0.88681 0.36959 0.97631 0.0
H837 H 0.89244 0.32646 0.97652 0.0
H838 H 0.87406 0.32402 0.99267 0.0
H839 H 0.86854 0.36707 0.99278 0.0
C840 C 0.81619 0.20959 0.51391 0.0
C841 C 0.81149 0.21276 0.52684 0.0
C842 C 0.79785 0.23119 0.51765 0.0
C843 C 0.8024 0.22342 0.52868 0.0
C844 C 0.80283 0.22814 0.50478 0.0
C845 C 0.81186 0.21747 0.50295 0.0
U846 U 0.84628 0.1852 0.52078 0.0
O847 O 0.84668 0.16304 0.51922 0.0
O848 O 0.85951 0.17537 0.50605 0.0
C849 C 0.85506 0.16322 0.50898 0.0
C850 C 0.82481 0.19767 0.51132 0.0
C851 C 0.85196 0.15409 0.49758 0.0
C852 C 0.85215 0.14889 0.47359 0.0
C853 C 0.85355 0.15818 0.48407 0.0
C854 C 0.84725 0.13131 0.48983 0.0
C855 C 0.84921 0.13526 0.47634 0.0
C856 C 0.84866 0.14057 0.50029 0.0
C857 C 0.87083 0.19188 0.55074 0.0
C858 C 0.8818 0.1791 0.56877 0.0
C859 C 0.89197 0.19968 0.56051 0.0
C860 C 0.88139 0.20128 0.55131 0.0
C861 C 0.89225 0.18866 0.5695 0.0
C862 C 0.87122 0.18068 0.55952 0.0
C863 C 0.859 0.1947 0.54194 0.0
O864 O 0.83706 0.20005 0.5069 0.0
O865 O 0.82426 0.18771 0.52012 0.0
O866 O 0.84868 0.18643 0.54276 0.0
O867 O 0.86154 0.19868 0.52954 0.0
H868 H 0.81466 0.20688 0.5355 0.0
H869 H 0.79893 0.22558 0.53876 0.0
H870 H 0.79945 0.23374 0.49601 0.0
H871 H 0.81524 0.21518 0.49286 0.0
H872 H 0.85386 0.15231 0.46336 0.0
H873 H 0.85622 0.16847 0.48158 0.0
H874 H 0.84475 0.12098 0.49236 0.0
H875 H 0.84748 0.13707 0.51057 0.0
H876 H 0.88175 0.17039 0.57541 0.0
H877 H 0.89971 0.20735 0.56087 0.0
H878 H 0.88129 0.21012 0.54484 0.0
H879 H 0.86324 0.17326 0.55945 0.0
C880 C 0.64811 0.35714 0.54641 0.0
C881 C 0.65261 0.35633 0.55982 0.0
C882 C 0.62945 0.35385 0.5679 0.0
C883 C 0.64339 0.35472 0.57042 0.0
C884 C 0.62504 0.35435 0.55444 0.0
C885 C 0.63424 0.35601 0.54387 0.0
U886 U 0.67953 0.35121 0.52363 0.0
O887 O 0.68134 0.35378 0.50168 0.0
O888 O 0.69354 0.36629 0.51506 0.0
C889 C 0.68991 0.36382 0.50261 0.0
C890 C 0.6574 0.36025 0.53505 0.0
C891 C 0.68766 0.37569 0.49372 0.0
C892 C 0.67331 0.38995 0.47966 0.0
C893 C 0.67482 0.37929 0.48893 0.0
C894 C 0.69737 0.39374 0.48007 0.0
C895 C 0.6846 0.39722 0.47496 0.0
C896 C 0.69886 0.38312 0.4893 0.0
C897 C 0.70342 0.32091 0.53103 0.0
C898 C 0.7186 0.30864 0.51623 0.0
C899 C 0.72089 0.30635 0.54037 0.0
C900 C 0.71013 0.31526 0.54215 0.0
C901 C 0.72523 0.3028 0.52739 0.0
C902 C 0.70783 0.31762 0.51803 0.0
C903 C 0.69149 0.32956 0.53341 0.0
O904 O 0.66953 0.36457 0.53808 0.0
O905 O 0.65733 0.35188 0.52488 0.0
O906 O 0.68181 0.32917 0.52441 0.0
O907 O 0.69386 0.34176 0.53783 0.0
H908 H 0.66322 0.35717 0.56216 0.0
H909 H 0.64718 0.35419 0.58062 0.0
H910 H 0.61441 0.35388 0.55209 0.0
H911 H 0.63047 0.35674 0.53366 0.0
H912 H 0.66333 0.39226 0.4759 0.0
H913 H 0.666 0.37372 0.49215 0.0
H914 H 0.70626 0.39923 0.47691 0.0
H915 H 0.70886 0.38055 0.49284 0.0
H916 H 0.72176 0.3063 0.5061 0.0
H917 H 0.72558 0.30195 0.5492 0.0
H918 H 0.70687 0.31757 0.55227 0.0
H919 H 0.70286 0.32185 0.50927 0.0
C920 C 0.64904 0.1809 0.99634 0.0
C921 C 0.64136 0.19276 0.99509 0.0
C922 C 0.63049 0.18427 0.97477 0.0
C923 C 0.63221 0.19441 0.98444 0.0
C924 C 0.63839 0.17256 0.97591 0.0
C925 C 0.6475 0.17089 0.98657 0.0
U926 U 0.6793 0.1874 0.02058 0.0
O927 O 0.67987 0.18554 0.04273 0.0
O928 O 0.69262 0.17255 0.03036 0.0
C929 C 0.68829 0.17534 0.04252 0.0
C930 C 0.65772 0.17816 1.00827 0.0
C931 C 0.68526 0.16379 0.05166 0.0
C932 C 0.68243 0.13972 0.05601 0.0
C933 C 0.68395 0.15054 0.04694 0.0
C934 C 0.68317 0.15519 0.07464 0.0
C935 C 0.68215 0.14188 0.07 0.0
C936 C 0.68473 0.16597 0.06559 0.0
C937 C 0.70377 0.21737 0.01344 0.0
C938 C 0.71781 0.23075 0.02839 0.0
C939 C 0.72209 0.23109 1.00444 0.0
C940 C 0.71142 0.22209 1.00251 0.0
C941 C 0.72538 0.23566 0.01739 0.0
C942 C 0.70713 0.22169 0.02645 0.0
C943 C 0.69193 0.20867 1.01078 0.0
O944 O 0.66995 0.17369 1.00592 0.0
O945 O 0.65725 0.18678 0.01823 0.0
O946 O 0.68177 0.2094 0.01924 0.0
O947 O 0.69445 0.19631 1.00689 0.0
H948 H 0.64223 0.20068 1.00245 0.0
H949 H 0.62643 0.20364 0.98381 0.0
H950 H 0.63725 0.16445 0.96879 0.0
H951 H 0.65312 0.16157 0.98735 0.0
H952 H 0.68149 0.12965 0.05205 0.0
H953 H 0.68432 0.1485 0.03627 0.0
H954 H 0.68317 0.15726 0.08531 0.0
H955 H 0.68586 0.17605 0.06952 0.0
H956 H 0.72014 0.2339 0.03853 0.0
H957 H 0.72752 0.23476 0.9957 0.0
H958 H 0.70898 0.21899 0.99238 0.0
H959 H 0.70142 0.2182 0.03508 0.0
C960 C 0.99886 0.29297 0.78951 0.0
C961 C 1.00936 0.29376 0.79894 0.0
C962 C 0.99904 0.2834 0.77915 0.0
C963 C 1.00999 0.27432 0.77811 0.0
C964 C 0.02072 0.27517 0.78747 0.0
C965 C 0.02026 0.28484 0.79775 0.0
C966 C 0.98736 0.28284 0.76945 0.0
C967 C 0.03263 0.26577 0.78669 0.0
C968 C 1.00356 0.24136 0.75967 0.0
C969 C 1.00888 0.24407 0.74683 0.0
C970 C 1.00405 0.251 0.76995 0.0
C971 C 1.01002 0.26374 0.76743 0.0
C972 C 0.01565 0.26646 0.75458 0.0
C973 C 0.01502 0.25662 0.74447 0.0
C974 C 0.99799 0.24761 0.7835 0.0
C975 C 0.0221 0.27988 0.75143 0.0
H976 H 0.99028 0.29965 0.79041 0.0
H977 H 0.02851 0.28544 0.80485 0.0
H978 H 0.99105 0.28391 0.75896 0.0
H979 H 0.9823 0.27291 0.77028 0.0
H980 H 0.97981 0.29085 0.77135 0.0
H981 H 0.04031 0.26793 0.7945 0.0
H982 H 0.02921 0.25521 0.78796 0.0
H983 H 0.03744 0.2666 0.77665 0.0
H984 H 0.99898 0.23165 0.7617 0.0
H985 H 0.01902 0.25893 0.73457 0.0
H986 H 0.98964 0.25467 0.78571 0.0
H987 H 1.00565 0.24884 0.79151 0.0
H988 H 0.99404 0.23716 0.78398 0.0
H989 H 0.01448 0.288 0.75221 0.0
H990 H 0.02656 0.28023 0.74118 0.0
H991 H 0.03012 0.28206 0.75886 0.0
C992 C 0.73925 0.52583 0.29082 0.0
C993 C 0.73867 0.51443 0.29927 0.0
C994 C 0.74879 0.52681 0.28035 0.0
C995 C 0.75804 0.51616 0.27824 0.0
C996 C 0.75763 0.50473 0.28686 0.0
C997 C 0.748 0.50402 0.29723 0.0
C998 C 0.74885 0.53917 0.2714 0.0
C999 C 0.76732 0.49317 0.28507 0.0
C1000 C 0.77402 0.51129 0.2437 0.0
C1001 C 0.78704 0.51651 0.24552 0.0
C1002 C 0.76445 0.51136 0.25415 0.0
C1003 C 0.76792 0.51674 0.26684 0.0
C1004 C 0.78097 0.52218 0.26872 0.0
C1005 C 0.79034 0.52201 0.25808 0.0
C1006 C 0.75069 0.50541 0.25167 0.0
C1007 C 0.78509 0.52806 0.28205 0.0
H1008 H 0.73204 0.53389 0.2922 0.0
H1009 H 0.74786 0.49528 0.30383 0.0
H1010 H 0.75898 0.54388 0.27141 0.0
H1011 H 0.7466 0.53627 0.26089 0.0
H1012 H 0.74134 0.54678 0.27462 0.0
H1013 H 0.76587 0.48511 0.29275 0.0
H1014 H 0.76598 0.48874 0.27495 0.0
H1015 H 0.77784 0.49685 0.28569 0.0
H1016 H 0.77138 0.50681 0.23417 0.0
H1017 H 0.80028 0.52625 0.25959 0.0
H1018 H 0.74277 0.51288 0.25406 0.0
H1019 H 0.74911 0.49659 0.25841 0.0
H1020 H 0.74937 0.50214 0.2411 0.0
H1021 H 0.778 0.53616 0.28495 0.0
H1022 H 0.79545 0.53226 0.2818 0.0
H1023 H 0.7846 0.52017 0.29001 0.0
C1024 C 0.49589 0.29281 0.75473 0.0
C1025 C 0.50736 0.29735 0.74777 0.0
C1026 C 0.49655 0.282 0.76394 0.0
C1027 C 0.50901 0.27545 0.76633 0.0
C1028 C 0.52063 0.27991 0.75931 0.0
C1029 C 0.51967 0.29077 0.75011 0.0
C1030 C 0.48387 0.27755 0.77109 0.0
C1031 C 0.53411 0.27325 0.76156 0.0
C1032 C 0.51164 0.25514 0.79909 0.0
C1033 C 0.50885 0.24201 0.79477 0.0
C1034 C 0.5121 0.26605 0.78992 0.0
C1035 C 0.50972 0.26383 0.77605 0.0
C1036 C 0.5073 0.25055 0.77158 0.0
C1037 C 0.50692 0.23984 0.78094 0.0
C1038 C 0.51475 0.28002 0.79515 0.0
C1039 C 0.50477 0.24767 0.75691 0.0
H1040 H 0.48627 0.29764 0.75285 0.0
H1041 H 0.52863 0.29425 0.74491 0.0
H1042 H 0.48168 0.26688 0.76873 0.0
H1043 H 0.48528 0.27818 0.78214 0.0
H1044 H 0.475 0.28375 0.76822 0.0
H1045 H 0.54219 0.27786 0.75531 0.0
H1046 H 0.537 0.274 0.77231 0.0
H1047 H 0.53345 0.26239 0.75917 0.0
H1048 H 0.51303 0.25699 0.80972 0.0
H1049 H 0.50503 0.22973 0.77742 0.0
H1050 H 0.5057 0.28639 0.79357 0.0
H1051 H 0.52314 0.28478 0.78948 0.0
H1052 H 0.51729 0.27997 0.80603 0.0
H1053 H 0.49544 0.25285 0.75357 0.0
H1054 H 0.50368 0.23673 0.75494 0.0
H1055 H 0.51316 0.25167 0.75067 0.0
C1056 C 0.77762 1.01126 0.29766 0.0
C1057 C 0.78861 0.02017 0.29725 0.0
C1058 C 0.76796 1.01106 0.2873 0.0
C1059 C 0.76922 0.02002 0.27619 0.0
C1060 C 0.78041 0.02887 0.27558 0.0
C1061 C 0.78994 0.02883 0.28607 0.0
C1062 C 0.75626 1.0014 0.28833 0.0
C1063 C 0.78216 0.03861 0.26397 0.0
C1064 C 0.74999 0.01331 0.2436 0.0
C1065 C 0.73904 0.02221 0.24463 0.0
C1066 C 0.75977 1.01236 0.25384 0.0
C1067 C 0.75864 0.02048 0.26544 0.0
C1068 C 0.74749 0.02929 0.26664 0.0
C1069 C 0.73786 0.03004 0.25627 0.0
C1070 C 0.77147 1.00283 0.25212 0.0
C1071 C 0.74581 0.03807 0.27884 0.0
H1072 H 0.77657 1.00439 0.30613 0.0
H1073 H 0.79825 0.03589 0.28569 0.0
H1074 H 0.74668 1.0071 0.28881 0.0
H1075 H 0.75582 0.99501 0.27925 0.0
H1076 H 0.75696 0.99475 0.29736 0.0
H1077 H 0.79167 0.04445 0.26469 0.0
H1078 H 0.78214 0.03311 0.25431 0.0
H1079 H 0.77359 0.04577 0.26369 0.0
H1080 H 0.75112 1.00733 0.23462 0.0
H1081 H 0.72936 0.03678 0.25731 0.0
H1082 H 0.77211 0.99584 0.26086 0.0
H1083 H 0.78103 1.00861 0.25176 0.0
H1084 H 0.77064 0.99682 0.24279 0.0
H1085 H 0.74555 0.03175 0.2881 0.0
H1086 H 0.73646 0.0442 0.27839 0.0
H1087 H 0.75454 0.04497 0.27973 0.0
C1088 C 0.25083 0.7399 0.0291 0.0
C1089 C 0.24 0.74083 0.02005 0.0
C1090 C 0.26053 0.7502 0.02998 0.0
C1091 C 0.25946 0.76177 0.02159 0.0
C1092 C 0.2485 0.76283 1.01252 0.0
C1093 C 0.23892 0.75239 1.01187 0.0
C1094 C 0.27197 0.74867 0.03987 0.0
C1095 C 0.24698 0.77494 1.00336 0.0
C1096 C 0.27844 0.79339 0.03223 0.0
C1097 C 0.29017 0.79278 0.02433 0.0
C1098 C 0.26832 0.78351 0.03131 0.0
C1099 C 0.26988 0.77268 0.02226 0.0
C1100 C 0.28156 0.77212 0.01409 0.0
C1101 C 0.29153 0.78214 0.01521 0.0
C1102 C 0.25603 0.78457 0.04017 0.0
C1103 C 0.28365 0.76077 1.00431 0.0
H1104 H 0.25169 0.73113 0.0356 0.0
H1105 H 0.23072 0.75316 1.00472 0.0
H1106 H 0.28174 0.74888 0.03444 0.0
H1107 H 0.27198 0.75724 0.04695 0.0
H1108 H 0.27132 0.73914 0.04577 0.0
H1109 H 0.23776 0.77439 0.99706 0.0
H1110 H 0.24657 0.78427 1.00939 0.0
H1111 H 0.25586 0.77577 0.99663 0.0
H1112 H 0.27715 0.80165 0.03916 0.0
H1113 H 0.30059 0.78143 1.00918 0.0
H1114 H 0.25539 0.77563 0.04691 0.0
H1115 H 0.24678 0.78469 0.03391 0.0
H1116 H 0.25616 0.79376 0.04645 0.0
H1117 H 0.28421 0.75105 1.00987 0.0
H1118 H 0.29301 0.76203 0.99831 0.0
H1119 H 0.27498 0.76014 0.99732 0.0
C1120 C 0.2755 0.74194 0.51259 0.0
C1121 C 0.28823 0.74433 0.51826 0.0
C1122 C 0.26521 0.75168 0.51307 0.0
C1123 C 0.26763 0.76418 0.51937 0.0
C1124 C 0.28036 0.76658 0.52534 0.0
C1125 C 0.29047 0.75665 0.52471 0.0
C1126 C 0.25179 0.74864 0.50664 0.0
C1127 C 0.28339 0.77975 0.53215 0.0
C1128 C 0.24581 0.79401 0.50847 0.0
C1129 C 0.23615 0.79455 0.51877 0.0
C1130 C 0.25616 0.78432 0.50863 0.0
C1131 C 0.25695 0.77487 0.51937 0.0
C1132 C 0.24736 0.77547 0.52991 0.0
C1133 C 0.23709 0.78526 0.52947 0.0
C1134 C 0.26612 0.78405 0.49716 0.0
C1135 C 0.24786 0.76567 0.54159 0.0
H1136 H 0.27355 0.7324 0.50776 0.0
H1137 H 0.30029 0.75871 0.52898 0.0
H1138 H 0.2436 0.74969 0.51415 0.0
H1139 H 0.24977 0.75599 0.49843 0.0
H1140 H 0.25139 0.73833 0.50243 0.0
H1141 H 0.29356 0.77985 0.53681 0.0
H1142 H 0.28278 0.78812 0.52471 0.0
H1143 H 0.27579 0.78176 0.54006 0.0
H1144 H 0.24511 0.80098 0.50005 0.0
H1145 H 0.22981 0.78566 0.53758 0.0
H1146 H 0.26539 0.7743 0.49186 0.0
H1147 H 0.27654 0.78489 0.50109 0.0
H1148 H 0.26439 0.79232 0.48977 0.0
H1149 H 0.24666 0.75524 0.5379 0.0
H1150 H 0.23989 0.76766 0.54915 0.0
H1151 H 0.25782 0.76623 0.54662 0.0
C1152 C 1.0028 0.78424 0.29577 0.0
C1153 C 1.01218 0.79481 0.29498 0.0
C1154 C 1.00278 0.77376 0.28632 0.0
C1155 C 1.01238 0.77375 0.27577 0.0
C1156 C 0.02203 0.78425 0.27504 0.0
C1157 C 0.0218 0.79463 0.28461 0.0
C1158 C 0.99228 0.76282 0.28748 0.0
C1159 C 0.03251 0.78462 0.26404 0.0
C1160 C 0.01851 0.74065 0.25739 0.0
C1161 C 1.01045 0.74219 0.24586 0.0
C1162 C 0.01939 0.75087 0.26709 0.0
C1163 C 1.01204 0.76299 0.26528 0.0
C1164 C 1.0041 0.76471 0.25356 0.0
C1165 C 1.0034 0.75433 0.24403 0.0
C1166 C 0.02797 0.74859 0.27943 0.0
C1167 C 0.99617 0.77747 0.25114 0.0
H1168 H 0.9952 0.78433 0.30359 0.0
H1169 H 0.02921 0.80262 0.28399 0.0
H1170 H 0.98576 0.76296 0.27842 0.0
H1171 H 0.99721 0.7528 0.28795 0.0
H1172 H 0.98583 0.76398 0.29652 0.0
H1173 H 0.03956 0.79323 0.2651 0.0
H1174 H 0.0384 0.77514 0.26413 0.0
H1175 H 0.0275 0.78541 0.25409 0.0
H1176 H 0.02388 0.73128 0.25902 0.0
H1177 H 0.99732 0.75575 0.23508 0.0
H1178 H 0.02155 0.74866 0.28856 0.0
H1179 H 0.03539 0.75687 0.28045 0.0
H1180 H 0.03349 0.73887 0.27911 0.0
H1181 H 0.98875 0.77886 0.25936 0.0
H1182 H 0.9907 0.77738 0.2414 0.0
H1183 H 1.00301 0.7863 0.25124 0.0
C1184 C 0.27467 0.51102 0.74421 0.0
C1185 C 0.2852 0.52045 0.74462 0.0
C1186 C 0.265 0.51021 0.75455 0.0
C1187 C 0.26579 0.51906 0.76563 0.0
C1188 C 0.27646 0.52852 0.76617 0.0
C1189 C 0.28601 0.52909 0.7557 0.0
C1190 C 0.25387 0.4999 0.75358 0.0
C1191 C 0.27768 0.53818 0.77774 0.0
C1192 C 0.23355 0.52523 0.78563 0.0
C1193 C 0.23518 0.51657 0.79677 0.0
C1194 C 0.24347 0.52627 0.77555 0.0
C1195 C 0.25539 0.51846 0.77656 0.0
C1196 C 0.25721 0.50988 0.78787 0.0
C1197 C 0.24712 0.50904 0.7978 0.0
C1198 C 0.24109 0.53553 0.76367 0.0
C1199 C 0.26976 0.50144 0.78942 0.0
H1200 H 0.27402 0.50417 0.73581 0.0
H1201 H 0.29397 0.53654 0.75606 0.0
H1202 H 0.25407 0.49315 0.76252 0.0
H1203 H 0.24395 0.50502 0.75349 0.0
H1204 H 0.25472 0.49367 0.7444 0.0
H1205 H 0.2867 0.54474 0.77684 0.0
H1206 H 0.26859 0.54465 0.77821 0.0
H1207 H 0.27825 0.53251 0.78739 0.0
H1208 H 0.22432 0.53097 0.7846 0.0
H1209 H 0.2486 0.50247 0.80643 0.0
H1210 H 0.24073 0.52959 0.75428 0.0
H1211 H 0.24953 0.54278 0.76265 0.0
H1212 H 0.23153 0.54127 0.76459 0.0
H1213 H 0.27062 0.4944 0.78086 0.0
H1214 H 0.2698 0.4955 0.79894 0.0
H1215 H 0.27881 0.50799 0.7892 0.0
C1216 C 0.52535 0.79748 0.2596 0.0
C1217 C 0.51847 0.79667 0.24728 0.0
C1218 C 0.52468 0.78703 0.26922 0.0
C1219 C 0.51692 0.77539 0.26655 0.0
C1220 C 0.50965 0.77463 0.2543 0.0
C1221 C 0.5105 0.78527 0.24484 0.0
C1222 C 0.53253 0.78833 0.28214 0.0
C1223 C 0.50126 0.76243 0.25104 0.0
C1224 C 0.52763 0.74329 0.28498 0.0
C1225 C 0.51846 0.74263 0.29573 0.0
C1226 C 0.52704 0.7537 0.27531 0.0
C1227 C 0.51701 0.76378 0.27631 0.0
C1228 C 0.50751 0.76302 0.28694 0.0
C1229 C 0.50834 0.75247 0.2965 0.0
C1230 C 0.53734 0.75403 0.26413 0.0
C1231 C 0.49666 0.77354 0.2884 0.0
H1232 H 0.53132 0.80634 0.26174 0.0
H1233 H 0.50521 0.78447 0.23535 0.0
H1234 H 0.52573 0.78698 0.29091 0.0
H1235 H 0.54028 0.78031 0.28276 0.0
H1236 H 0.53761 0.79826 0.28296 0.0
H1237 H 0.49558 0.7637 0.24148 0.0
H1238 H 0.50786 0.75347 0.25017 0.0
H1239 H 0.494 0.76034 0.25928 0.0
H1240 H 0.53533 0.73562 0.2841 0.0
H1241 H 0.50125 0.75214 0.30479 0.0
H1242 H 0.54349 0.76331 0.26485 0.0
H1243 H 0.53221 0.75429 0.25422 0.0
H1244 H 0.54418 0.74519 0.26447 0.0
H1245 H 0.50132 0.78349 0.29031 0.0
H1246 H 0.48961 0.77116 0.29677 0.0
H1247 H 0.49082 0.77447 0.27893 0.0
C1248 C 0.27653 0.02742 0.7979 0.0
C1249 C 0.28661 0.0175 0.79829 0.0
C1250 C 0.26685 0.02779 0.78755 0.0
C1251 C 0.26717 0.01798 0.77729 0.0
C1252 C 0.27743 1.00807 0.7775 0.0
C1253 C 0.287 1.00795 0.78795 0.0
C1254 C 0.25616 0.0386 0.78768 0.0
C1255 C 0.27815 0.99739 0.76682 0.0
C1256 C 0.23498 1.00972 0.75805 0.0
C1257 C 0.23695 0.01652 0.74575 0.0
C1258 C 0.24461 1.01027 0.76842 0.0
C1259 C 0.25657 0.01783 0.76654 0.0
C1260 C 0.25853 0.02494 0.75426 0.0
C1261 C 0.24872 0.0242 0.74405 0.0
C1262 C 0.24204 1.0026 0.78135 0.0
C1263 C 0.27112 0.03311 0.7518 0.0
H1264 H 0.27622 0.03495 0.80571 0.0
H1265 H 0.2946 1.00013 0.78821 0.0
H1266 H 0.25636 0.04437 0.77808 0.0
H1267 H 0.24606 0.03391 0.78856 0.0
H1268 H 0.25751 0.04572 0.79612 0.0
H1269 H 0.287 0.99066 0.76814 0.0
H1270 H 0.26888 0.99117 0.7671 0.0
H1271 H 0.27871 1.00216 0.7567 0.0
H1272 H 0.22585 1.00393 0.75959 0.0
H1273 H 0.25046 0.02938 0.73456 0.0
H1274 H 0.24244 1.00955 0.79001 0.0
H1275 H 0.25003 0.99494 0.78291 0.0
H1276 H 0.23212 0.99745 0.78137 0.0
H1277 H 0.27245 0.04059 0.75991 0.0
H1278 H 0.27088 0.03851 0.74197 0.0
H1279 H 0.28005 0.02641 0.75202 0.0
C1280 C 0.73483 0.25652 0.02824 0.0
C1281 C 0.73641 0.24578 0.01928 0.0
C1282 C 0.74488 0.26642 0.02967 0.0
C1283 C 0.75687 0.26562 0.02198 0.0
C1284 C 0.75861 0.25472 1.01305 0.0
C1285 C 0.7484 0.24497 1.01181 0.0
C1286 C 0.74257 0.27786 0.03929 0.0
C1287 C 0.77125 0.2534 1.00472 0.0
C1288 C 0.77712 0.2979 0.01625 0.0
C1289 C 0.78734 0.29672 0.02596 0.0
C1290 C 0.76724 0.28784 0.01478 0.0
C1291 C 0.76752 0.27625 0.0232 0.0
C1292 C 0.77791 0.2749 0.03289 0.0
C1293 C 0.78765 0.28511 0.03415 0.0
C1294 C 0.75636 0.28972 1.00433 0.0
C1295 C 0.77868 0.26269 0.04202 0.0
H1296 H 0.72557 0.25738 0.03393 0.0
H1297 H 0.74985 0.23663 1.005 0.0
H1298 H 0.75083 0.27821 0.04679 0.0
H1299 H 0.74267 0.28758 0.03372 0.0
H1300 H 0.73283 0.27692 0.04473 0.0
H1301 H 0.77116 0.24425 0.99838 0.0
H1302 H 0.77242 0.26236 0.99808 0.0
H1303 H 0.7802 0.253 1.01138 0.0
H1304 H 0.77665 0.30687 1.00998 0.0
H1305 H 0.79559 0.28397 0.04155 0.0
H1306 H 0.74636 0.28999 1.00929 0.0
H1307 H 0.75632 0.28108 0.99734 0.0
H1308 H 0.75769 0.29914 0.99838 0.0
H1309 H 0.76938 0.26193 0.04817 0.0
H1310 H 0.78749 0.26304 0.04888 0.0
H1311 H 0.77932 0.25341 0.03593 0.0
C1312 C 0.74773 0.29297 0.53406 0.0
C1313 C 0.73639 0.29282 0.5256 0.0
C1314 C 0.75801 0.28329 0.53289 0.0
C1315 C 0.75701 0.27313 0.52303 0.0
C1316 C 0.74569 0.27302 0.51434 0.0
C1317 C 0.73556 0.28283 0.51572 0.0
C1318 C 0.76991 0.28386 0.54231 0.0
C1319 C 0.74418 0.26238 0.5037 0.0
C1320 C 0.78869 0.25431 0.51212 0.0
C1321 C 0.78765 0.24216 0.51942 0.0
C1322 C 0.77888 0.26448 0.51327 0.0
C1323 C 0.76769 0.26252 0.52191 0.0
C1324 C 0.76665 0.25036 0.52942 0.0
C1325 C 0.77661 0.24037 0.52809 0.0
C1326 C 0.78046 0.27729 0.50514 0.0
C1327 C 0.7549 0.24782 0.53873 0.0
H1328 H 0.74861 0.30073 0.5416 0.0
H1329 H 0.7268 0.28248 0.50924 0.0
H1330 H 0.77048 0.27444 0.54836 0.0
H1331 H 0.7794 0.28465 0.53646 0.0
H1332 H 0.76933 0.29252 0.54928 0.0
H1333 H 0.73496 0.26383 0.49754 0.0
H1334 H 0.75306 0.2625 0.49692 0.0
H1335 H 0.74376 0.25226 0.50851 0.0
H1336 H 0.79725 0.25591 0.50553 0.0
H1337 H 0.77558 0.23099 0.53364 0.0
H1338 H 0.78063 0.28609 0.51193 0.0
H1339 H 0.77172 0.27859 0.49831 0.0
H1340 H 0.78982 0.27736 0.49902 0.0
H1341 H 0.75428 0.25591 0.54633 0.0
H1342 H 0.75566 0.23797 0.54404 0.0
H1343 H 0.74536 0.24805 0.53292 0.0
C1344 C 0.12503 0.09166 0.68761 0.0
C1345 C 0.12189 0.07813 0.69042 0.0
C1346 C 0.115 0.10168 0.68744 0.0
C1347 C 0.10143 0.09816 0.69015 0.0
C1348 C 0.09814 0.08448 0.69268 0.0
C1349 C 0.10837 0.07467 0.6928 0.0
C1350 C 0.11899 0.11612 0.68473 0.0
C1351 C 0.08381 0.08024 0.69552 0.0
C1352 C 0.07817 0.12523 0.70412 0.0
C1353 C 0.07078 0.12924 0.69271 0.0
C1354 C 0.08809 0.11515 0.70341 0.0
C1355 C 0.0908 0.10885 0.69097 0.0
C1356 C 0.08342 0.11283 0.6794 0.0
C1357 C 0.07353 0.12296 0.6804 0.0
C1358 C 0.09573 0.11129 0.71599 0.0
C1359 C 0.08595 0.10637 0.66595 0.0
H1360 H 0.13543 0.09452 0.68593 0.0
H1361 H 0.10578 0.06424 0.69479 0.0
H1362 H 0.1129 0.12036 0.67636 0.0
H1363 H 0.11691 0.12228 0.69375 0.0
H1364 H 0.12982 0.11713 0.68213 0.0
H1365 H 0.08279 0.06915 0.69667 0.0
H1366 H 0.08023 0.08505 0.7049 0.0
H1367 H 0.0771 0.08369 0.68727 0.0
H1368 H 0.07635 0.13015 0.71363 0.0
H1369 H 0.06783 0.12585 0.67154 0.0
H1370 H 0.10665 0.11307 0.71448 0.0
H1371 H 0.09439 0.1004 0.71817 0.0
H1372 H 0.09237 0.11707 0.7249 0.0
H1373 H 0.09662 0.10783 0.66296 0.0
H1374 H 0.07939 0.11058 0.65791 0.0
H1375 H 0.08418 0.09536 0.66671 0.0
C1376 C 0.94529 0.62956 0.19003 0.0
C1377 C 0.95834 0.6253 0.18664 0.0
C1378 C 0.93461 0.6203 0.19137 0.0
C1379 C 0.93696 0.60639 0.18929 0.0
C1380 C 0.95012 0.60201 0.18599 0.0
C1381 C 0.9606 0.61148 0.18473 0.0
C1382 C 0.92076 0.62542 0.19492 0.0
C1383 C 0.95313 0.5873 0.18375 0.0
C1384 C 0.91235 0.58084 0.20436 0.0
C1385 C 0.90433 0.57748 0.19324 0.0
C1386 C 0.92294 0.5902 0.20322 0.0
C1387 C 0.9257 0.5964 0.19063 0.0
C1388 C 0.91774 0.59298 0.17933 0.0
C1389 C 0.90719 0.58358 0.18076 0.0
C1390 C 0.93118 0.59347 0.21552 0.0
C1391 C 0.92032 0.59932 0.16572 0.0
H1392 H 0.94336 0.6402 0.19138 0.0
H1393 H 0.97065 0.608 0.18233 0.0
H1394 H 0.91353 0.62282 0.18684 0.0
H1395 H 0.91717 0.62047 0.2043 0.0
H1396 H 0.92059 0.6365 0.19634 0.0
H1397 H 0.96387 0.58552 0.18122 0.0
H1398 H 0.95058 0.58138 0.19291 0.0
H1399 H 0.94679 0.58342 0.17545 0.0
H1400 H 0.91042 0.57605 0.21401 0.0
H1401 H 0.90099 0.58121 0.17212 0.0
H1402 H 0.93058 0.6044 0.21762 0.0
H1403 H 0.94193 0.59106 0.2137 0.0
H1404 H 0.92775 0.58782 0.22459 0.0
H1405 H 0.9192 0.61041 0.16634 0.0
H1406 H 0.91333 0.59553 0.15789 0.0
H1407 H 0.93081 0.59726 0.16249 0.0
C1408 C 0.44236 0.4081 0.68523 0.0
C1409 C 0.45578 0.41258 0.6854 0.0
C1410 C 0.43153 0.4172 0.6863 0.0
C1411 C 0.43411 0.43117 0.68759 0.0
C1412 C 0.44762 0.43575 0.68786 0.0
C1413 C 0.45824 0.42644 0.68677 0.0
C1414 C 0.4173 0.41187 0.68596 0.0
C1415 C 0.45086 0.45052 0.6893 0.0
C1416 C 0.40632 0.45634 0.67855 0.0
C1417 C 0.40105 0.45956 0.69123 0.0
C1418 C 0.41704 0.44715 0.67721 0.0
C1419 C 0.4227 0.44099 0.68882 0.0
C1420 C 0.41751 0.44428 0.70165 0.0
C1421 C 0.4068 0.45349 0.70269 0.0
C1422 C 0.42224 0.44393 0.66334 0.0
C1423 C 0.42327 0.43805 0.71431 0.0
H1424 H 0.4403 0.39747 0.68401 0.0
H1425 H 0.46854 0.43003 0.68712 0.0
H1426 H 0.41192 0.41468 0.6953 0.0
H1427 H 0.41175 0.41649 0.67741 0.0
H1428 H 0.41696 0.40075 0.68494 0.0
H1429 H 0.46188 0.45248 0.68927 0.0
H1430 H 0.44619 0.45635 0.68096 0.0
H1431 H 0.44657 0.45435 0.69883 0.0
H1432 H 0.40189 0.46083 0.66961 0.0
H1433 H 0.40299 0.45603 0.71256 0.0
H1434 H 0.42115 0.433 0.66141 0.0
H1435 H 0.43312 0.44635 0.66266 0.0
H1436 H 0.41683 0.44961 0.65532 0.0
H1437 H 0.42237 0.42693 0.71391 0.0
H1438 H 0.41811 0.44164 0.72352 0.0
H1439 H 0.43414 0.44047 0.7151 0.0
C1440 C 0.62641 0.94806 0.18153 0.0
C1441 C 0.625 0.95992 0.18899 0.0
C1442 C 0.61586 0.93864 0.18062 0.0
C1443 C 0.60353 0.94105 0.18735 0.0
C1444 C 0.602 0.95302 0.19486 0.0
C1445 C 0.61271 0.96229 0.19557 0.0
C1446 C 0.61791 0.92608 0.17243 0.0
C1447 C 0.58907 0.956 0.20224 0.0
C1448 C 0.57186 0.92297 0.17533 0.0
C1449 C 0.57058 0.9124 0.18474 0.0
C1450 C 0.58249 0.93231 0.17606 0.0
C1451 C 0.59218 0.93113 0.18645 0.0
C1452 C 0.59102 0.92046 0.19595 0.0
C1453 C 0.58027 0.91125 0.19499 0.0
C1454 C 0.58335 0.94346 0.16567 0.0
C1455 C 0.6011 0.91882 0.2072 0.0
H1456 H 0.63577 0.94618 0.17626 0.0
H1457 H 0.61154 0.9713 0.20153 0.0
H1458 H 0.61651 0.91702 0.17888 0.0
H1459 H 0.61027 0.92561 0.1643 0.0
H1460 H 0.62809 0.92566 0.16781 0.0
H1461 H 0.58945 0.96575 0.20761 0.0
H1462 H 0.58053 0.95628 0.19504 0.0
H1463 H 0.58693 0.94786 0.20965 0.0
H1464 H 0.56461 0.92386 0.16723 0.0
H1465 H 0.57934 0.90324 0.2024 0.0
H1466 H 0.59306 0.94285 0.1602 0.0
H1467 H 0.58305 0.95339 0.17068 0.0
H1468 H 0.57501 0.94303 0.15824 0.0
H1469 H 0.61137 0.91764 0.20299 0.0
H1470 H 0.59886 0.90997 0.21374 0.0
H1471 H 0.60118 0.92798 0.21351 0.0
C1472 C 0.06951 0.42049 0.84527 0.0
C1473 C 0.07017 0.40955 0.8543 0.0
C1474 C 0.07887 0.43113 0.84583 0.0
C1475 C 0.08918 0.43091 0.85567 0.0
C1476 C 0.08986 0.41995 0.86487 0.0
C1477 C 0.08039 0.40943 0.86407 0.0
C1478 C 0.07777 0.44258 0.83579 0.0
C1479 C 0.10062 0.41932 0.87558 0.0
C1480 C 0.12078 0.45218 0.84983 0.0
C1481 C 0.11826 0.46351 0.85781 0.0
C1482 C 0.11144 0.44154 0.84903 0.0
C1483 C 0.09922 0.44216 0.85638 0.0
C1484 C 0.09661 0.45355 0.86445 0.0
C1485 C 0.10613 0.46403 0.86508 0.0
C1486 C 0.11463 0.42961 0.84029 0.0
C1487 C 0.08377 0.45465 0.87249 0.0
H1488 H 0.06181 0.42062 0.83755 0.0
H1489 H 0.08092 0.40114 0.87121 0.0
H1490 H 0.07657 0.45225 0.84115 0.0
H1491 H 0.08716 0.4433 0.82978 0.0
H1492 H 0.06913 0.44132 0.82882 0.0
H1493 H 0.09979 0.41013 0.88198 0.0
H1494 H 0.11074 0.41948 0.87083 0.0
H1495 H 0.09993 0.42828 0.88212 0.0
H1496 H 0.13001 0.4517 0.84404 0.0
H1497 H 0.10414 0.47258 0.87148 0.0
H1498 H 0.10674 0.42846 0.83249 0.0
H1499 H 0.11465 0.42024 0.84645 0.0
H1500 H 0.12456 0.43061 0.83523 0.0
H1501 H 0.07493 0.45406 0.8657 0.0
H1502 H 0.08318 0.46419 0.8782 0.0
H1503 H 0.08301 0.44609 0.8797 0.0
C1504 C 0.57839 0.62586 0.34713 0.0
C1505 C 0.57088 0.62712 0.35903 0.0
C1506 C 0.58868 0.61616 0.34598 0.0
C1507 C 0.59159 0.60746 0.35698 0.0
C1508 C 0.58406 0.60868 0.36901 0.0
C1509 C 0.57383 0.61844 0.36988 0.0
C1510 C 0.59646 0.61525 0.33297 0.0
C1511 C 0.58678 0.59961 0.38097 0.0
C1512 C 0.60982 0.57433 0.35021 0.0
C1513 C 0.62314 0.57735 0.35389 0.0
C1514 C 0.5995 0.58399 0.35117 0.0
C1515 C 0.60249 0.59707 0.35591 0.0
C1516 C 0.61588 0.60018 0.35969 0.0
C1517 C 0.62601 0.59031 0.35865 0.0
C1518 C 0.58536 0.58019 0.3471 0.0
C1519 C 0.61955 0.61398 0.36476 0.0
H1520 H 0.57634 0.63258 0.33873 0.0
H1521 H 0.56798 0.61912 0.37905 0.0
H1522 H 0.60733 0.61695 0.33489 0.0
H1523 H 0.59542 0.60501 0.32873 0.0
H1524 H 0.59296 0.62271 0.32534 0.0
H1525 H 0.58012 0.60189 0.38964 0.0
H1526 H 0.58528 0.58894 0.37814 0.0
H1527 H 0.5974 0.60069 0.38422 0.0
H1528 H 0.60743 0.56432 0.34667 0.0
H1529 H 0.63627 0.59285 0.36134 0.0
H1530 H 0.58182 0.58696 0.3389 0.0
H1531 H 0.57841 0.5815 0.35573 0.0
H1532 H 0.58467 0.56962 0.34362 0.0
H1533 H 0.61715 0.6217 0.35699 0.0
H1534 H 0.6304 0.6148 0.36736 0.0
H1535 H 0.6135 0.61637 0.37381 0.0
C1536 C 0.45579 0.11534 0.86678 0.0
C1537 C 0.45636 0.12651 0.85801 0.0
C1538 C 0.44524 0.10591 0.86609 0.0
C1539 C 0.43489 0.10762 0.85643 0.0
C1540 C 0.43535 0.11889 0.84758 0.0
C1541 C 0.44604 0.12817 0.84847 0.0
C1542 C 0.44515 0.0941 0.87577 0.0
C1543 C 0.42455 0.12111 0.83711 0.0
C1544 C 0.41399 0.07695 0.84655 0.0
C1545 C 0.40213 0.07875 0.85403 0.0
C1546 C 0.42468 0.08623 0.84723 0.0
C1547 C 0.42358 0.09765 0.85561 0.0
C1548 C 0.41169 0.09948 0.86326 0.0
C1549 C 0.40114 0.09005 0.86238 0.0
C1550 C 0.43714 0.08388 0.83887 0.0
C1551 C 0.4101 0.11144 0.87239 0.0
H1552 H 0.46353 0.11404 0.87435 0.0
H1553 H 0.44642 0.13664 0.84153 0.0
H1554 H 0.43582 0.09426 0.8819 0.0
H1555 H 0.44517 0.08453 0.87011 0.0
H1556 H 0.45396 0.09415 0.88265 0.0
H1557 H 0.4263 0.13038 0.83102 0.0
H1558 H 0.42413 0.11238 0.83025 0.0
H1559 H 0.41456 0.1219 0.84204 0.0
H1560 H 0.41481 0.06838 0.83993 0.0
H1561 H 0.39213 0.09148 0.86834 0.0
H1562 H 0.44613 0.08326 0.84548 0.0
H1563 H 0.43873 0.09248 0.83186 0.0
H1564 H 0.43649 0.07448 0.83293 0.0
H1565 H 0.41826 0.11147 0.88001 0.0
H1566 H 0.40025 0.11143 0.87769 0.0
H1567 H 0.411 0.12091 0.86647 0.0
C1568 C 0.9156 0.96021 0.34331 0.0
C1569 C 0.90514 0.95987 0.35283 0.0
C1570 C 0.92623 0.95083 0.34376 0.0
C1571 C 0.9265 0.9408 0.354 0.0
C1572 C 0.91602 0.94044 0.36368 0.0
C1573 C 0.90551 0.94993 0.36298 0.0
C1574 C 0.93714 0.95159 0.33321 0.0
C1575 C 0.91593 0.93 0.37481 0.0
C1576 C 0.94747 0.90904 0.34844 0.0
C1577 C 0.95924 0.91181 0.35576 0.0
C1578 C 0.93677 0.91834 0.34778 0.0
C1579 C 0.93778 0.93077 0.35462 0.0
C1580 C 0.94959 0.93361 0.36205 0.0
C1581 C 0.96012 0.92413 0.36255 0.0
C1582 C 0.92439 0.91489 0.33971 0.0
C1583 C 0.9511 0.94668 0.36954 0.0
H1584 H 0.91535 0.96768 0.3353 0.0
H1585 H 0.8976 0.94964 0.37049 0.0
H1586 H 0.94709 0.95294 0.33809 0.0
H1587 H 0.93754 0.94202 0.32756 0.0
H1588 H 0.93553 0.96001 0.32595 0.0
H1589 H 0.90707 0.93104 0.38155 0.0
H1590 H 0.91584 0.91975 0.37046 0.0
H1591 H 0.92522 0.93087 0.38093 0.0
H1592 H 0.9467 0.89965 0.34303 0.0
H1593 H 0.96902 0.92632 0.36844 0.0
H1594 H 0.92284 0.92253 0.33165 0.0
H1595 H 0.91536 0.9151 0.34628 0.0
H1596 H 0.92511 0.90481 0.33503 0.0
H1597 H 0.9502 0.95531 0.36244 0.0
H1598 H 0.96093 0.94741 0.37483 0.0
H1599 H 0.94291 0.94766 0.37705 0.0
C1600 C 0.66904 0.07629 0.11651 0.0
C1601 C 0.67813 0.07545 0.12732 0.0
C1602 C 0.66954 0.08701 0.10717 0.0
C1603 C 0.67935 0.09725 0.10861 0.0
C1604 C 0.68851 0.09653 0.11953 0.0
C1605 C 0.68778 0.08568 0.12873 0.0
C1606 C 0.65952 0.08738 0.09574 0.0
C1607 C 0.69914 0.1072 0.12144 0.0
C1608 C 0.68853 0.11843 0.07765 0.0
C1609 C 0.6812 0.13032 0.07976 0.0
C1610 C 0.68805 0.10765 0.08693 0.0
C1611 C 0.68002 0.10869 0.09867 0.0
C1612 C 0.67253 0.12062 0.10083 0.0
C1613 C 0.67322 0.13126 0.09139 0.0
C1614 C 0.69622 0.09515 0.08423 0.0
C1615 C 0.66376 0.12215 0.11313 0.0
H1616 H 0.66138 0.06861 0.11541 0.0
H1617 H 0.69494 0.08509 0.13694 0.0
H1618 H 0.65352 0.09679 0.09616 0.0
H1619 H 0.66492 0.08742 0.08597 0.0
H1620 H 0.65252 0.07866 0.09601 0.0
H1621 H 0.70546 0.10525 0.13047 0.0
H1622 H 0.70578 0.10768 0.11247 0.0
H1623 H 0.69433 0.11722 0.12245 0.0
H1624 H 0.69488 0.11764 0.06883 0.0
H1625 H 0.66738 0.14031 0.09306 0.0
H1626 H 0.6895 0.08624 0.08379 0.0
H1627 H 0.70344 0.09337 0.09257 0.0
H1628 H 0.70194 0.09588 0.07464 0.0
H1629 H 0.65604 0.11408 0.11341 0.0
H1630 H 0.65859 0.13206 0.11337 0.0
H1631 H 0.66995 0.12105 0.12236 0.0
C1632 C 0.94803 0.19498 0.62798 0.0
C1633 C 0.95507 0.18287 0.63009 0.0
C1634 C 0.93786 0.19605 0.61815 0.0
C1635 C 0.93459 0.18477 0.61015 0.0
C1636 C 0.94168 0.17254 0.61218 0.0
C1637 C 0.95179 0.17175 0.62207 0.0
C1638 C 0.93055 0.20927 0.61636 0.0
C1639 C 0.9386 0.16027 0.60387 0.0
C1640 C 0.90015 0.18336 0.59309 0.0
C1641 C 0.90317 0.1874 0.57985 0.0
C1642 C 0.91023 0.18249 0.60302 0.0
C1643 C 0.92374 0.18571 0.59969 0.0
C1644 C 0.92688 0.18973 0.58634 0.0
C1645 C 0.91659 0.19054 0.57661 0.0
C1646 C 0.9064 0.1782 0.61712 0.0
C1647 C 0.94113 0.19317 0.58231 0.0
H1648 H 0.95034 0.2036 0.63417 0.0
H1649 H 0.95729 0.16241 0.6234 0.0
H1650 H 0.93172 0.21297 0.60586 0.0
H1651 H 0.91962 0.20782 0.61817 0.0
H1652 H 0.93432 0.21713 0.62329 0.0
H1653 H 0.94499 0.15152 0.60668 0.0
H1654 H 0.92788 0.15739 0.60515 0.0
H1655 H 0.94016 0.1626 0.59305 0.0
H1656 H 0.88981 0.18111 0.59578 0.0
H1657 H 0.91909 0.19351 0.5664 0.0
H1658 H 0.90909 0.18624 0.62431 0.0
H1659 H 0.91214 0.16907 0.62009 0.0
H1660 H 0.89548 0.17601 0.61809 0.0
H1661 H 0.94494 0.20156 0.58854 0.0
H1662 H 0.94193 0.19614 0.57154 0.0
H1663 H 0.94781 0.18439 0.58417 0.0
C1664 C 0.86172 0.46166 0.12145 0.0
C1665 C 0.85155 0.46328 0.13113 0.0
C1666 C 0.86096 0.45155 0.11166 0.0
C1667 C 0.84973 0.44276 0.11142 0.0
C1668 C 0.83935 0.44439 0.12106 0.0
C1669 C 0.84037 0.45461 0.13077 0.0
C1670 C 0.87224 0.45026 0.10156 0.0
C1671 C 0.82721 0.43525 0.1212 0.0
C1672 C 0.84345 0.42423 0.07847 0.0
C1673 C 0.84957 0.4117 0.08094 0.0
C1674 C 0.8431 0.43428 0.08838 0.0
C1675 C 0.84901 0.4318 0.10114 0.0
C1676 C 0.85488 0.41905 0.10383 0.0
C1677 C 0.85509 0.4092 0.09373 0.0
C1678 C 0.83675 0.4477 0.08506 0.0
C1679 C 0.86123 0.41591 0.11729 0.0
H1680 H 0.87028 0.46842 0.12143 0.0
H1681 H 0.8325 0.45566 0.13824 0.0
H1682 H 0.87686 0.44011 0.10239 0.0
H1683 H 0.86821 0.45132 0.0912 0.0
H1684 H 0.88023 0.45793 0.10302 0.0
H1685 H 0.81988 0.43797 0.12916 0.0
H1686 H 0.82204 0.43569 0.11131 0.0
H1687 H 0.83044 0.42467 0.12286 0.0
H1688 H 0.83928 0.42638 0.06861 0.0
H1689 H 0.85966 0.3995 0.09586 0.0
H1690 H 0.84454 0.4557 0.08521 0.0
H1691 H 0.8291 0.4503 0.09275 0.0
H1692 H 0.83186 0.44779 0.07501 0.0
H1693 H 0.86995 0.42268 0.11895 0.0
H1694 H 0.86476 0.40532 0.11805 0.0
H1695 H 0.85391 0.41777 0.1255 0.0
C1696 C 0.56959 0.3585 0.62245 0.0
C1697 C 0.57126 0.3492 0.63305 0.0
C1698 C 0.57891 0.35929 0.61177 0.0
C1699 C 0.59021 0.35057 0.61161 0.0
C1700 C 0.5919 0.34111 0.62223 0.0
C1701 C 0.58244 0.34054 0.63276 0.0
C1702 C 0.5767 0.36953 0.60068 0.0
C1703 C 0.60374 0.33158 0.62247 0.0
C1704 C 0.60823 0.34431 0.57827 0.0
C1705 C 0.61951 0.3528 0.57921 0.0
C1706 C 0.59865 0.34349 0.5887 0.0
C1707 C 0.6003 0.35137 0.6004 0.0
C1708 C 0.61167 0.35992 0.60143 0.0
C1709 C 0.62111 0.36052 0.59087 0.0
C1710 C 0.58675 0.33417 0.58719 0.0
C1711 C 0.61382 0.36853 0.61368 0.0
H1712 H 0.5611 0.36535 0.6226 0.0
H1713 H 0.58374 0.33314 0.64073 0.0
H1714 H 0.58538 0.37655 0.60017 0.0
H1715 H 0.57607 0.36441 0.59083 0.0
H1716 H 0.56736 0.37549 0.60218 0.0
H1717 H 0.60363 0.3248 0.63141 0.0
H1718 H 0.60372 0.32533 0.61328 0.0
H1719 H 0.61329 0.33737 0.62247 0.0
H1720 H 0.60696 0.33818 0.5694 0.0
H1721 H 0.62965 0.36726 0.59165 0.0
H1722 H 0.57724 0.33998 0.58786 0.0
H1723 H 0.58668 0.32665 0.59551 0.0
H1724 H 0.58689 0.32874 0.57747 0.0
H1725 H 0.60513 0.37541 0.61501 0.0
H1726 H 0.62316 0.37464 0.61297 0.0
H1727 H 0.61441 0.36207 0.62282 0.0
C1728 C 0.68476 0.46292 0.42681 0.0
C1729 C 0.67742 0.46091 0.41492 0.0
C1730 C 0.68593 0.45269 0.43664 0.0
C1731 C 0.67964 0.44006 0.43459 0.0
C1732 C 0.6723 0.43793 0.42258 0.0
C1733 C 0.67127 0.44834 0.41293 0.0
C1734 C 0.69384 0.45543 0.44929 0.0
C1735 C 0.66551 0.42462 0.41991 0.0
C1736 C 0.69269 0.40949 0.45416 0.0
C1737 C 0.6832 0.40818 0.46458 0.0
C1738 C 0.69166 0.41978 0.44439 0.0
C1739 C 0.68084 0.42905 0.44495 0.0
C1740 C 0.67118 0.42776 0.45539 0.0
C1741 C 0.67246 0.41736 0.46504 0.0
C1742 C 0.70215 0.4207 0.43342 0.0
C1743 C 0.65951 0.43743 0.45639 0.0
H1744 H 0.68939 0.47263 0.42857 0.0
H1745 H 0.66572 0.44659 0.40373 0.0
H1746 H 0.68723 0.45418 0.45822 0.0
H1747 H 0.70216 0.44805 0.45033 0.0
H1748 H 0.69817 0.46574 0.44937 0.0
H1749 H 0.66016 0.42455 0.4101 0.0
H1750 H 0.67309 0.41641 0.41998 0.0
H1751 H 0.65815 0.42233 0.42801 0.0
H1752 H 0.7009 0.40234 0.45353 0.0
H1753 H 0.66515 0.41657 0.4731 0.0
H1754 H 0.70716 0.43067 0.43368 0.0
H1755 H 0.69728 0.41979 0.42343 0.0
H1756 H 0.70996 0.41275 0.4344 0.0
H1757 H 0.66332 0.44787 0.45747 0.0
H1758 H 0.65282 0.43507 0.46506 0.0
H1759 H 0.65345 0.43716 0.44703 0.0
C1760 C 0.57142 0.17921 0.91946 0.0
C1761 C 0.57052 0.19088 0.91141 0.0
C1762 C 0.58111 0.17804 0.92976 0.0
C1763 C 0.59018 0.18878 0.93215 0.0
C1764 C 0.58933 0.20057 0.92407 0.0
C1765 C 0.57957 0.20147 0.91383 0.0
C1766 C 0.58162 0.1653 0.93814 0.0
C1767 C 0.5988 0.21226 0.9262 0.0
C1768 C 0.60746 0.1911 0.96641 0.0
C1769 C 0.62025 0.18569 0.96377 0.0
C1770 C 0.5976 0.19214 0.95626 0.0
C1771 C 0.60056 0.1877 0.94307 0.0
C1772 C 0.61347 0.18231 0.94031 0.0
C1773 C 0.62312 0.18136 0.95066 0.0
C1774 C 0.58398 0.19791 0.95968 0.0
C1775 C 0.6171 0.17754 0.9264 0.0
H1776 H 0.56441 0.17102 0.91783 0.0
H1777 H 0.57918 0.21044 0.90757 0.0
H1778 H 0.59171 0.1606 0.93732 0.0
H1779 H 0.57999 0.1677 0.94889 0.0
H1780 H 0.57392 0.15784 0.93501 0.0
H1781 H 0.5968 0.22076 0.91914 0.0
H1782 H 0.59784 0.21597 0.93665 0.0
H1783 H 0.60936 0.20891 0.92485 0.0
H1784 H 0.60503 0.19429 0.97651 0.0
H1785 H 0.633 0.17733 0.94843 0.0
H1786 H 0.57601 0.19037 0.95765 0.0
H1787 H 0.58188 0.20682 0.95321 0.0
H1788 H 0.58327 0.20097 0.97038 0.0
H1789 H 0.61006 0.16948 0.92326 0.0
H1790 H 0.62755 0.17359 0.92588 0.0
H1791 H 0.61607 0.18594 0.91905 0.0
C1792 C 0.84283 0.12824 0.45277 0.0
C1793 C 0.84869 0.1251 0.46528 0.0
C1794 C 0.84251 0.11878 0.44228 0.0
C1795 C 0.8482 0.10582 0.44428 0.0
C1796 C 0.85409 0.10259 0.45688 0.0
C1797 C 0.85428 0.11222 0.46717 0.0
C1798 C 0.8361 0.12266 0.42905 0.0
C1799 C 0.86032 0.08894 0.45947 0.0
C1800 C 0.83795 0.07629 0.42213 0.0
C1801 C 0.8489 0.07535 0.41323 0.0
C1802 C 0.83745 0.08631 0.43206 0.0
C1803 C 0.84815 0.09566 0.43321 0.0
C1804 C 0.8591 0.09494 0.42409 0.0
C1805 C 0.85934 0.08483 0.41425 0.0
C1806 C 0.82554 0.08673 0.44149 0.0
C1807 C 0.87075 0.10466 0.42494 0.0
H1808 H 0.83835 0.13808 0.4512 0.0
H1809 H 0.85905 0.10972 0.47666 0.0
H1810 H 0.84359 0.12186 0.42082 0.0
H1811 H 0.82777 0.11561 0.42671 0.0
H1812 H 0.83204 0.13308 0.42909 0.0
H1813 H 0.86434 0.08792 0.46986 0.0
H1814 H 0.85273 0.08092 0.45785 0.0
H1815 H 0.86866 0.08721 0.45226 0.0
H1816 H 0.82973 0.06917 0.42134 0.0
H1817 H 0.86794 0.08413 0.40759 0.0
H1818 H 0.82085 0.09686 0.4412 0.0
H1819 H 0.82896 0.08487 0.45197 0.0
H1820 H 0.81777 0.07913 0.43895 0.0
H1821 H 0.86703 0.11518 0.42445 0.0
H1822 H 0.8782 0.10318 0.41675 0.0
H1823 H 0.87596 0.10336 0.43474 0.0
C1824 C 0.94301 0.36028 0.91333 0.0
C1825 C 0.95522 0.3535 0.91568 0.0
C1826 C 0.93239 0.35972 0.92272 0.0
C1827 C 0.93392 0.3522 0.9348 0.0
C1828 C 0.94617 0.34525 0.93719 0.0
C1829 C 0.95662 0.34598 0.92764 0.0
C1830 C 0.91953 0.36729 0.91975 0.0
C1831 C 0.94824 0.33703 0.94987 0.0
C1832 C 0.91148 0.35989 0.96506 0.0
C1833 C 0.90187 0.34953 0.96448 0.0
C1834 C 0.92186 0.36096 0.95543 0.0
C1835 C 0.92271 0.35146 0.9449 0.0
C1836 C 0.91295 0.34109 0.94416 0.0
C1837 C 0.90269 0.34026 0.9539 0.0
C1838 C 0.93205 0.37216 0.95664 0.0
C1839 C 0.91339 0.33079 0.93309 0.0
H1840 H 0.94185 0.36628 0.90425 0.0
H1841 H 0.9659 0.34054 0.92951 0.0
H1842 H 0.91087 0.36025 0.91982 0.0
H1843 H 0.91767 0.37483 0.92771 0.0
H1844 H 0.91984 0.37257 0.90986 0.0
H1845 H 0.95836 0.33229 0.95028 0.0
H1846 H 0.94701 0.34352 0.95882 0.0
H1847 H 0.94051 0.329 0.95057 0.0
H1848 H 0.91105 0.36704 0.97322 0.0
H1849 H 0.89521 0.33236 0.95317 0.0
H1850 H 0.93229 0.37823 0.94722 0.0
H1851 H 0.94226 0.36784 0.95808 0.0
H1852 H 0.92983 0.37894 0.96518 0.0
H1853 H 0.91293 0.3359 0.92313 0.0
H1854 H 0.90496 0.32346 0.9338 0.0
H1855 H 0.92303 0.32518 0.93353 0.0
C1856 C 0.12244 0.69914 0.09047 0.0
C1857 C 0.1236 0.68922 0.08056 0.0
C1858 C 0.11231 0.69853 0.10034 0.0
C1859 C 0.10301 0.68771 0.10041 0.0
C1860 C 0.10419 0.67756 0.09054 0.0
C1861 C 0.11446 0.67842 0.08077 0.0
C1862 C 0.11152 0.70954 0.11069 0.0
C1863 C 0.0945 0.66587 0.09022 0.0
C1864 C 0.08405 0.68142 0.13332 0.0
C1865 C 0.07187 0.68825 0.13104 0.0
C1866 C 0.09411 0.68083 0.12334 0.0
C1867 C 0.09199 0.68722 0.11071 0.0
C1868 C 0.07956 0.69379 0.1082 0.0
C1869 C 0.0697 0.69424 0.11836 0.0
C1870 C 0.10719 0.67373 0.12647 0.0
C1871 C 0.07681 0.70066 0.09488 0.0
H1872 H 0.12958 0.70739 0.09061 0.0
H1873 H 0.11517 0.67075 0.07312 0.0
H1874 H 0.10162 0.71469 0.11 0.0
H1875 H 0.11231 0.70514 0.12096 0.0
H1876 H 0.1196 0.71718 0.10938 0.0
H1877 H 0.09693 0.65864 0.08211 0.0
H1878 H 0.09463 0.66043 0.10001 0.0
H1879 H 0.08409 0.66963 0.08865 0.0
H1880 H 0.08593 0.67688 0.14309 0.0
H1881 H 0.06026 0.69935 0.11639 0.0
H1882 H 0.11556 0.68113 0.12646 0.0
H1883 H 0.10946 0.66621 0.11861 0.0
H1884 H 0.10696 0.66854 0.13641 0.0
H1885 H 0.08399 0.70909 0.09336 0.0
H1886 H 0.0664 0.7047 0.09424 0.0
H1887 H 0.07836 0.6935 0.08652 0.0
C1888 C 0.07018 0.84839 0.42271 0.0
C1889 C 0.07433 0.85091 0.40941 0.0
C1890 C 0.07924 0.8494 0.43356 0.0
C1891 C 0.09283 0.85305 0.43112 0.0
C1892 C 0.09706 0.85571 0.41775 0.0
C1893 C 0.0878 0.85462 0.4071 0.0
C1894 C 0.07428 0.84647 0.44763 0.0
C1895 C 0.11141 0.85971 0.41468 0.0
C1896 C 0.11335 0.86755 0.46006 0.0
C1897 C 0.12098 0.8564 0.46438 0.0
C1898 C 0.10421 0.8666 0.44929 0.0
C1899 C 0.1026 0.8542 0.44257 0.0
C1900 C 0.11034 0.84293 0.44677 0.0
C1901 C 0.11943 0.84416 0.45758 0.0
C1902 C 0.09626 0.8789 0.44512 0.0
C1903 C 0.10894 0.82951 0.43991 0.0
H1904 H 0.05987 0.84534 0.42463 0.0
H1905 H 0.0911 0.85679 0.39692 0.0
H1906 H 0.0801 0.83801 0.45209 0.0
H1907 H 0.07593 0.85537 0.4541 0.0
H1908 H 0.06341 0.84384 0.44788 0.0
H1909 H 0.11314 0.8614 0.40375 0.0
H1910 H 0.11401 0.86906 0.4201 0.0
H1911 H 0.11841 0.85174 0.41826 0.0
H1912 H 0.1146 0.87712 0.46505 0.0
H1913 H 0.12514 0.83545 0.46088 0.0
H1914 H 0.08532 0.87681 0.44597 0.0
H1915 H 0.09835 0.88143 0.43443 0.0
H1916 H 0.09868 0.88781 0.45135 0.0
H1917 H 0.0984 0.82588 0.44076 0.0
H1918 H 0.11574 0.82174 0.44428 0.0
H1919 H 0.11123 0.83062 0.42903 0.0
C1920 C 0.17255 0.62965 0.95135 0.0
C1921 C 0.17722 0.62683 0.96442 0.0
C1922 C 0.17346 0.62006 0.94105 0.0
C1923 C 0.17916 0.60725 0.94381 0.0
C1924 C 0.18394 0.60434 0.95695 0.0
C1925 C 0.18293 0.61413 0.96706 0.0
C1926 C 0.16832 0.62364 0.92718 0.0
C1927 C 0.19005 0.59082 0.96036 0.0
C1928 C 0.17084 0.57803 0.92043 0.0
C1929 C 0.1824 0.57738 0.91231 0.0
C1930 C 0.16965 0.58767 0.93068 0.0
C1931 C 0.18025 0.59695 0.93292 0.0
C1932 C 0.19191 0.59638 0.92473 0.0
C1933 C 0.19283 0.58666 0.91456 0.0
C1934 C 0.15705 0.58788 0.93918 0.0
C1935 C 0.20343 0.60609 0.9267 0.0
H1936 H 0.16827 0.63946 0.94913 0.0
H1937 H 0.18639 0.61174 0.97713 0.0
H1938 H 0.1766 0.62282 0.91974 0.0
H1939 H 0.16036 0.61644 0.92417 0.0
H1940 H 0.16414 0.634 0.92666 0.0
H1941 H 0.19332 0.59012 0.97103 0.0
H1942 H 0.18264 0.58271 0.95844 0.0
H1943 H 0.19889 0.58893 0.95382 0.0
H1944 H 0.16278 0.57086 0.91891 0.0
H1945 H 0.20171 0.58645 0.90823 0.0
H1946 H 0.15214 0.59788 0.93837 0.0
H1947 H 0.15969 0.58625 0.94991 0.0
H1948 H 0.1497 0.58004 0.93615 0.0
H1949 H 0.19982 0.61659 0.92536 0.0
H1950 H 0.21182 0.60433 0.91953 0.0
H1951 H 0.20738 0.60516 0.9371 0.0
C1952 C 0.41566 0.69473 0.46443 0.0
C1953 C 0.40536 0.68504 0.46427 0.0
C1954 C 0.42526 0.69557 0.45402 0.0
C1955 C 0.42463 0.68647 0.44313 0.0
C1956 C 0.41424 0.67669 0.44288 0.0
C1957 C 0.40476 0.6761 0.45341 0.0
C1958 C 0.43609 0.7062 0.45467 0.0
C1959 C 0.41319 0.66677 0.43152 0.0
C1960 C 0.44186 0.69606 0.41005 0.0
C1961 C 0.45391 0.68867 0.41069 0.0
C1962 C 0.43229 0.69543 0.42049 0.0
C1963 C 0.43477 0.68725 0.43196 0.0
C1964 C 0.44693 0.67979 0.43273 0.0
C1965 C 0.45632 0.68059 0.42212 0.0
C1966 C 0.41951 0.70359 0.41924 0.0
C1967 C 0.44998 0.67092 0.44474 0.0
H1968 H 0.41616 0.70179 0.47266 0.0
H1969 H 0.39699 0.66844 0.45325 0.0
H1970 H 0.44617 0.70139 0.45462 0.0
H1971 H 0.43552 0.71285 0.44567 0.0
H1972 H 0.43523 0.71251 0.46381 0.0
H1973 H 0.40452 0.65981 0.43276 0.0
H1974 H 0.4121 0.67224 0.4218 0.0
H1975 H 0.42256 0.66072 0.43092 0.0
H1976 H 0.43995 0.70252 0.40142 0.0
H1977 H 0.4655 0.67472 0.4227 0.0
H1978 H 0.41874 0.7107 0.42775 0.0
H1979 H 0.41063 0.69684 0.41978 0.0
H1980 H 0.41906 0.70943 0.40967 0.0
H1981 H 0.44994 0.677 0.45405 0.0
H1982 H 0.4599 0.66583 0.44387 0.0
H1983 H 0.44205 0.66313 0.44589 0.0
C1984 C 0.3572 0.962 0.92567 0.0
C1985 C 0.34836 0.96268 0.91464 0.0
C1986 C 0.35669 0.95125 0.93498 0.0
C1987 C 0.34711 0.94084 0.93331 0.0
C1988 C 0.33821 0.94139 0.92217 0.0
C1989 C 0.33895 0.95227 0.91298 0.0
C1990 C 0.36643 0.95106 0.94665 0.0
C1991 C 0.32782 0.93054 0.92 0.0
C1992 C 0.35339 0.90699 0.95081 0.0
C1993 C 0.34513 0.90786 0.96225 0.0
C1994 C 0.35412 0.9176 0.94134 0.0
C1995 C 0.34638 0.92942 0.94326 0.0
C1996 C 0.33805 0.93037 0.95479 0.0
C1997 C 0.33754 0.91963 0.96412 0.0
C1998 C 0.36321 0.91617 0.92926 0.0
C1999 C 0.32959 0.94274 0.95724 0.0
H2000 H 0.36468 0.96982 0.92695 0.0
H2001 H 0.33198 0.95272 0.9046 0.0
H2002 H 0.3608 0.95098 0.95629 0.0
H2003 H 0.37257 0.94174 0.94641 0.0
H2004 H 0.3733 0.95988 0.94652 0.0
H2005 H 0.32172 0.93235 0.91079 0.0
H2006 H 0.33283 0.9206 0.91915 0.0
H2007 H 0.32095 0.92996 0.92879 0.0
H2008 H 0.35942 0.89804 0.94932 0.0
H2009 H 0.33097 0.92035 0.97279 0.0
H2010 H 0.37081 0.92436 0.92915 0.0
H2011 H 0.35723 0.91716 0.91987 0.0
H2012 H 0.36854 0.90634 0.92918 0.0
H2013 H 0.33614 0.95176 0.95784 0.0
H2014 H 0.32362 0.94193 0.96667 0.0
H2015 H 0.32258 0.94438 0.9487 0.0
C2016 C 0.44325 0.85376 0.13328 0.0
C2017 C 0.45636 0.84927 0.13049 0.0
C2018 C 0.43341 0.85469 0.12311 0.0
C2019 C 0.43671 0.8511 0.10974 0.0
C2020 C 0.44994 0.84662 0.10684 0.0
C2021 C 0.45957 0.84575 0.11721 0.0
C2022 C 0.41944 0.85946 0.12669 0.0
C2023 C 0.45394 0.84277 0.09274 0.0
C2024 C 0.4082 0.84219 0.08555 0.0
C2025 C 0.40661 0.8542 0.07815 0.0
C2026 C 0.41794 0.84102 0.0958 0.0
C2027 C 0.42636 0.85213 0.0988 0.0
C2028 C 0.42485 0.86426 0.09135 0.0
C2029 C 0.41505 0.86514 0.08115 0.0
C2030 C 0.41917 0.82791 0.1035 0.0
C2031 C 0.43362 0.87633 0.09413 0.0
H2032 H 0.44057 0.85632 0.14351 0.0
H2033 H 0.46969 0.84242 0.11488 0.0
H2034 H 0.41687 0.86857 0.12068 0.0
H2035 H 0.41195 0.85159 0.12418 0.0
H2036 H 0.41847 0.86189 0.13753 0.0
H2037 H 0.46461 0.83947 0.09211 0.0
H2038 H 0.4474 0.8345 0.08913 0.0
H2039 H 0.45248 0.85146 0.0858 0.0
H2040 H 0.40168 0.83372 0.08345 0.0
H2041 H 0.41413 0.8744 0.07537 0.0
H2042 H 0.41734 0.82963 0.11436 0.0
H2043 H 0.42954 0.82388 0.10251 0.0
H2044 H 0.41195 0.82019 0.09991 0.0
H2045 H 0.43239 0.87947 0.10474 0.0
H2046 H 0.43119 0.88503 0.08747 0.0
H2047 H 0.44437 0.87366 0.09271 0.0
C2048 C 0.17095 0.96484 0.61553 0.0
C2049 C 0.17792 0.96401 0.62782 0.0
C2050 C 0.1716 0.95441 0.60606 0.0
C2051 C 0.17937 0.94277 0.60887 0.0
C2052 C 0.18642 0.94183 0.62125 0.0
C2053 C 0.1856 0.95243 0.63055 0.0
C2054 C 0.16389 0.95584 0.59303 0.0
C2055 C 0.19485 0.92963 0.62466 0.0
C2056 C 0.1715 0.91043 0.58988 0.0
C2057 C 0.18151 0.91037 0.57989 0.0
C2058 C 0.17068 0.92088 0.59933 0.0
C2059 C 0.18012 0.93158 0.59887 0.0
C2060 C 0.19022 0.93161 0.58879 0.0
C2061 C 0.19078 0.92105 0.57945 0.0
C2062 C 0.1597 0.92046 0.60982 0.0
C2063 C 0.20051 0.94278 0.58794 0.0
H2064 H 0.16478 0.97359 0.61337 0.0
H2065 H 0.19115 0.95171 0.63991 0.0
H2066 H 0.17089 0.95514 0.58438 0.0
H2067 H 0.15653 0.94749 0.59211 0.0
H2068 H 0.15837 0.96554 0.59231 0.0
H2069 H 0.19968 0.93041 0.6347 0.0
H2070 H 0.1885 0.92045 0.62454 0.0
H2071 H 0.20283 0.92832 0.61697 0.0
H2072 H 0.16418 0.90234 0.59023 0.0
H2073 H 0.19868 0.92104 0.57193 0.0
H2074 H 0.15334 0.92961 0.60897 0.0
H2075 H 0.1642 0.92041 0.62003 0.0
H2076 H 0.15314 0.91145 0.60885 0.0
H2077 H 0.19537 0.95262 0.5866 0.0
H2078 H 0.20768 0.94139 0.57949 0.0
H2079 H 0.20629 0.94326 0.59746 0.0
C2080 C 0.3363 0.58227 0.62717 0.0
C2081 C 0.34848 0.57538 0.62928 0.0
C2082 C 0.33522 0.59263 0.61744 0.0
C2083 C 0.34659 0.59625 0.60958 0.0
C2084 C 0.3589 0.58933 0.61164 0.0
C2085 C 0.35969 0.57901 0.62141 0.0
C2086 C 0.32191 0.59974 0.61561 0.0
C2087 C 0.37127 0.59281 0.60348 0.0
C2088 C 0.34106 0.61476 0.57616 0.0
C2089 C 0.34387 0.62818 0.57953 0.0
C2090 C 0.34191 0.60431 0.58579 0.0
C2091 C 0.34564 0.60728 0.59921 0.0
C2092 C 0.34852 0.62078 0.60268 0.0
C2093 C 0.34762 0.63103 0.59283 0.0
C2094 C 0.33882 0.59007 0.58161 0.0
C2095 C 0.35249 0.62443 0.61684 0.0
H2096 H 0.32761 0.57969 0.63326 0.0
H2097 H 0.3691 0.57364 0.62274 0.0
H2098 H 0.32314 0.61066 0.61752 0.0
H2099 H 0.31841 0.59869 0.60508 0.0
H2100 H 0.314 0.59571 0.62245 0.0
H2101 H 0.3801 0.58655 0.60633 0.0
H2102 H 0.36919 0.59137 0.59262 0.0
H2103 H 0.37391 0.60356 0.60486 0.0
H2104 H 0.33831 0.61239 0.5659 0.0
H2105 H 0.34961 0.64136 0.59564 0.0
H2106 H 0.33039 0.58599 0.58773 0.0
H2107 H 0.34769 0.58353 0.58349 0.0
H2108 H 0.33606 0.58941 0.57081 0.0
H2109 H 0.34437 0.62148 0.62395 0.0
H2110 H 0.35447 0.63537 0.61793 0.0
H2111 H 0.36167 0.61879 0.61985 0.0
loop_
_geom_bond_atom_site_label_1
_geom_bond_atom_site_label_2
_geom_bond_distance
_geom_bond_site_symmetry_2
_ccdc_geom_bond_type
C0 C1 1.246 1_655 S
C0 C5 1.495 . S
C0 C10 1.469 . S
C1 C0 1.246 1_455 S
C1 C3 1.339 . S
C1 H28 0.931 . S
C2 C3 1.395 . S
C2 C4 1.320 1_455 S
C3 C1 1.339 . S
C3 C2 1.395 . S
C3 H29 0.929 . S
C4 C2 1.320 1_655 S
C4 C5 1.405 . S
C4 H30 0.930 . S
C5 C0 1.495 . S
C5 C4 1.405 . S
C5 H31 0.931 . S
U6 O7 2.454 . S
U6 O8 2.458 . S
U6 C9 2.984 . S
U6 C10 2.847 . S
U6 C23 2.882 1_655 S
U6 O24 2.441 . S
U6 O25 2.420 1_655 S
U6 O26 2.455 1_655 S
U6 O27 2.449 1_655 S
O7 U6 2.454 . S
O7 C9 1.353 . S
O8 U6 2.458 . S
O8 C9 1.286 . S
C9 U6 2.984 . S
C9 O7 1.353 . S
C9 O8 1.286 . S
C9 C11 1.363 . S
C10 C0 1.469 . S
C10 U6 2.847 . S
C10 O24 1.249 . S
C10 O25 1.202 1_655 S
C11 C9 1.363 . S
C11 C13 1.408 . S
C11 C16 1.342 . S
C12 C13 1.310 . S
C12 C15 1.461 . S
C12 H32 0.932 . S
C13 C11 1.408 . S
C13 C12 1.310 . S
C13 H33 0.930 . S
C14 C15 1.474 . S
C14 C16 1.285 . S
C14 H34 0.929 . S
C15 C12 1.461 . S
C15 C14 1.474 . S
C16 C11 1.342 . S
C16 C14 1.285 . S
C16 H35 0.930 . S
C17 C20 1.424 . S
C17 C22 1.245 . S
C17 C23 1.428 . S
C18 C21 1.260 . S
C18 C22 1.477 . S
C18 H36 0.932 . S
C19 C20 1.384 . S
C19 C21 1.479 . S
C19 H37 0.929 . S
C20 C17 1.424 . S
C20 C19 1.384 . S
C20 H38 0.928 . S
C21 C18 1.260 . S
C21 C19 1.479 . S
C22 C17 1.245 . S
C22 C18 1.477 . S
C22 H39 0.932 . S
C23 U6 2.882 1_455 S
C23 C17 1.428 . S
C23 O26 1.301 . S
C23 O27 1.282 . S
O24 U6 2.441 . S
O24 C10 1.249 . S
O25 U6 2.420 1_455 S
O25 C10 1.202 1_455 S
O26 U6 2.455 1_455 S
O26 C23 1.301 . S
O27 U6 2.449 1_455 S
O27 C23 1.282 . S
H28 C1 0.931 . S
H29 C3 0.929 . S
H30 C4 0.930 . S
H31 C5 0.931 . S
H32 C12 0.932 . S
H33 C13 0.930 . S
H34 C14 0.929 . S
H35 C16 0.930 . S
H36 C18 0.932 . S
H37 C19 0.929 . S
H38 C20 0.928 . S
H39 C22 0.932 . S
C40 C41 1.264 . S
C40 C45 1.479 . S
C40 C50 1.465 . S
C41 C40 1.264 . S
C41 C43 1.339 . S
C41 H68 0.931 . S
C42 C43 1.395 . S
C42 C44 1.320 . S
C43 C41 1.339 . S
C43 C42 1.395 . S
C43 H69 0.929 . S
C44 C42 1.320 . S
C44 C45 1.405 . S
C44 H70 0.930 . S
C45 C40 1.479 . S
C45 C44 1.405 . S
C45 H71 0.931 . S
U46 O47 2.454 . S
U46 O48 2.458 . S
U46 C49 2.984 . S
U46 C50 2.847 . S
U46 C63 2.882 . S
U46 O64 2.441 . S
U46 O65 2.420 . S
U46 O66 2.455 . S
U46 O67 2.449 . S
O47 U46 2.454 . S
O47 C49 1.353 . S
O48 U46 2.458 . S
O48 C49 1.286 . S
C49 U46 2.984 . S
C49 O47 1.353 . S
C49 O48 1.286 . S
C49 C51 1.363 . S
C50 C40 1.465 . S
C50 U46 2.847 . S
C50 O64 1.249 . S
C50 O65 1.202 . S
C51 C49 1.363 . S
C51 C53 1.408 . S
C51 C56 1.342 . S
C52 C53 1.310 . S
C52 C55 1.461 . S
C52 H72 0.932 . S
C53 C51 1.408 . S
C53 C52 1.310 . S
C53 H73 0.930 . S
C54 C55 1.474 . S
C54 C56 1.285 . S
C54 H74 0.929 . S
C55 C52 1.461 . S
C55 C54 1.474 . S
C56 C51 1.342 . S
C56 C54 1.285 . S
C56 H75 0.930 . S
C57 C60 1.424 . S
C57 C62 1.245 . S
C57 C63 1.428 . S
C58 C61 1.260 . S
C58 C62 1.477 . S
C58 H76 0.932 . S
C59 C60 1.384 . S
C59 C61 1.479 . S
C59 H77 0.929 . S
C60 C57 1.424 . S
C60 C59 1.384 . S
C60 H78 0.928 . S
C61 C58 1.260 . S
C61 C59 1.479 . S
C62 C57 1.245 . S
C62 C58 1.477 . S
C62 H79 0.932 . S
C63 U46 2.882 . S
C63 C57 1.428 . S
C63 O66 1.301 . S
C63 O67 1.282 . S
O64 U46 2.441 . S
O64 C50 1.249 . S
O65 U46 2.420 . S
O65 C50 1.202 . S
O66 U46 2.455 . S
O66 C63 1.301 . S
O67 U46 2.449 . S
O67 C63 1.282 . S
H68 C41 0.931 . S
H69 C43 0.929 . S
H70 C44 0.930 . S
H71 C45 0.931 . S
H72 C52 0.932 . S
H73 C53 0.930 . S
H74 C54 0.929 . S
H75 C56 0.930 . S
H76 C58 0.932 . S
H77 C59 0.929 . S
H78 C60 0.928 . S
H79 C62 0.932 . S
C80 C81 1.264 . S
C80 C85 1.479 . S
C80 C90 1.465 . S
C81 C80 1.264 . S
C81 C83 1.339 . S
C81 H108 0.931 . S
C82 C83 1.395 . S
C82 C84 1.320 . S
C83 C81 1.339 . S
C83 C82 1.395 . S
C83 H109 0.929 . S
C84 C82 1.320 . S
C84 C85 1.405 . S
C84 H110 0.930 . S
C85 C80 1.479 . S
C85 C84 1.405 . S
C85 H111 0.931 . S
U86 O87 2.454 . S
U86 O88 2.458 . S
U86 C89 2.984 . S
U86 C90 2.847 . S
U86 C103 2.882 . S
U86 O104 2.441 . S
U86 O105 2.420 . S
U86 O106 2.455 . S
U86 O107 2.449 . S
O87 U86 2.454 . S
O87 C89 1.353 . S
O88 U86 2.458 . S
O88 C89 1.286 . S
C89 U86 2.984 . S
C89 O87 1.353 . S
C89 O88 1.286 . S
C89 C91 1.363 . S
C90 C80 1.465 . S
C90 U86 2.847 . S
C90 O104 1.249 . S
C90 O105 1.202 . S
C91 C89 1.363 . S
C91 C93 1.408 . S
C91 C96 1.342 . S
C92 C93 1.310 . S
C92 C95 1.461 . S
C92 H112 0.932 . S
C93 C91 1.408 . S
C93 C92 1.310 . S
C93 H113 0.930 . S
C94 C95 1.474 . S
C94 C96 1.285 . S
C94 H114 0.929 . S
C95 C92 1.461 . S
C95 C94 1.474 . S
C96 C91 1.342 . S
C96 C94 1.285 . S
C96 H115 0.930 . S
C97 C100 1.424 . S
C97 C102 1.245 . S
C97 C103 1.428 . S
C98 C101 1.260 . S
C98 C102 1.477 . S
C98 H116 0.932 . S
C99 C100 1.384 . S
C99 C101 1.479 . S
C99 H117 0.929 . S
C100 C97 1.424 . S
C100 C99 1.384 . S
C100 H118 0.928 . S
C101 C98 1.260 . S
C101 C99 1.479 . S
C102 C97 1.245 . S
C102 C98 1.477 . S
C102 H119 0.932 . S
C103 U86 2.882 . S
C103 C97 1.428 . S
C103 O106 1.301 . S
C103 O107 1.282 . S
O104 U86 2.441 . S
O104 C90 1.249 . S
O105 U86 2.420 . S
O105 C90 1.202 . S
O106 U86 2.455 . S
O106 C103 1.301 . S
O107 U86 2.449 . S
O107 C103 1.282 . S
H108 C81 0.931 . S
H109 C83 0.929 . S
H110 C84 0.930 . S
H111 C85 0.931 . S
H112 C92 0.932 . S
H113 C93 0.930 . S
H114 C94 0.929 . S
H115 C96 0.930 . S
H116 C98 0.932 . S
H117 C99 0.929 . S
H118 C100 0.928 . S
H119 C102 0.932 . S
C120 C121 1.264 . S
C120 C125 1.479 . S
C120 C130 1.465 . S
C121 C120 1.264 . S
C121 C123 1.339 . S
C121 H148 0.931 . S
C122 C123 1.395 . S
C122 C124 1.320 . S
C123 C121 1.339 . S
C123 C122 1.395 . S
C123 H149 0.929 . S
C124 C122 1.320 . S
C124 C125 1.405 . S
C124 H150 0.930 . S
C125 C120 1.479 . S
C125 C124 1.405 . S
C125 H151 0.931 . S
U126 O127 2.454 1_545 S
U126 O128 2.458 1_545 S
U126 C129 2.984 1_545 S
U126 C130 2.847 . S
U126 C143 2.882 . S
U126 O144 2.441 . S
U126 O145 2.420 . S
U126 O146 2.455 1_545 S
U126 O147 2.449 . S
O127 U126 2.454 1_565 S
O127 C129 1.353 . S
O128 U126 2.458 1_565 S
O128 C129 1.286 . S
C129 U126 2.984 1_565 S
C129 O127 1.353 . S
C129 O128 1.286 . S
C129 C131 1.363 . S
C130 C120 1.465 . S
C130 U126 2.847 . S
C130 O144 1.249 . S
C130 O145 1.202 . S
C131 C129 1.363 . S
C131 C133 1.408 . S
C131 C136 1.342 . S
C132 C133 1.310 . S
C132 C135 1.461 . S
C132 H152 0.932 . S
C133 C131 1.408 . S
C133 C132 1.310 . S
C133 H153 0.930 . S
C134 C135 1.474 . S
C134 C136 1.285 . S
C134 H154 0.929 . S
C135 C132 1.461 . S
C135 C134 1.474 . S
C136 C131 1.342 . S
C136 C134 1.285 . S
C136 H155 0.930 . S
C137 C140 1.424 . S
C137 C142 1.245 1_545 S
C137 C143 1.428 . S
C138 C141 1.260 1_565 S
C138 C142 1.477 . S
C138 H156 0.932 . S
C139 C140 1.384 . S
C139 C141 1.479 . S
C139 H157 0.929 . S
C140 C137 1.424 . S
C140 C139 1.384 . S
C140 H158 0.928 . S
C141 C138 1.260 1_545 S
C141 C139 1.479 . S
C142 C137 1.245 1_565 S
C142 C138 1.477 . S
C142 H159 0.932 . S
C143 U126 2.882 . S
C143 C137 1.428 . S
C143 O146 1.301 1_545 S
C143 O147 1.282 . S
O144 U126 2.441 . S
O144 C130 1.249 . S
O145 U126 2.420 . S
O145 C130 1.202 . S
O146 U126 2.455 1_565 S
O146 C143 1.301 1_565 S
O147 U126 2.449 . S
O147 C143 1.282 . S
H148 C121 0.931 . S
H149 C123 0.929 . S
H150 C124 0.930 . S
H151 C125 0.931 . S
H152 C132 0.932 . S
H153 C133 0.930 . S
H154 C134 0.929 . S
H155 C136 0.930 . S
H156 C138 0.932 . S
H157 C139 0.929 . S
H158 C140 0.928 . S
H159 C142 0.932 . S
C160 C161 1.255 1_655 S
C160 C165 1.487 . S
C160 C170 1.467 . S
C161 C160 1.255 1_455 S
C161 C163 1.339 . S
C161 H188 0.931 . S
C162 C163 1.395 . S
C162 C164 1.320 1_455 S
C163 C161 1.339 . S
C163 C162 1.395 . S
C163 H189 0.929 . S
C164 C162 1.320 1_655 S
C164 C165 1.405 . S
C164 H190 0.930 . S
C165 C160 1.487 . S
C165 C164 1.405 . S
C165 H191 0.931 . S
U166 O167 2.454 . S
U166 O168 2.458 . S
U166 C169 2.984 . S
U166 C170 2.847 . S
U166 C183 2.882 1_655 S
U166 O184 2.441 . S
U166 O185 2.420 1_655 S
U166 O186 2.455 1_655 S
U166 O187 2.449 1_655 S
O167 U166 2.454 . S
O167 C169 1.353 . S
O168 U166 2.458 . S
O168 C169 1.286 . S
C169 U166 2.984 . S
C169 O167 1.353 . S
C169 O168 1.286 . S
C169 C171 1.363 . S
C170 C160 1.467 . S
C170 U166 2.847 . S
C170 O184 1.249 . S
C170 O185 1.202 1_655 S
C171 C169 1.363 . S
C171 C173 1.408 . S
C171 C176 1.342 . S
C172 C173 1.310 . S
C172 C175 1.461 . S
C172 H192 0.932 . S
C173 C171 1.408 . S
C173 C172 1.310 . S
C173 H193 0.930 . S
C174 C175 1.474 . S
C174 C176 1.285 . S
C174 H194 0.929 . S
C175 C172 1.461 . S
C175 C174 1.474 . S
C176 C171 1.342 . S
C176 C174 1.285 . S
C176 H195 0.930 . S
C177 C180 1.424 . S
C177 C182 1.245 . S
C177 C183 1.428 . S
C178 C181 1.260 . S
C178 C182 1.477 . S
C178 H196 0.932 . S
C179 C180 1.384 . S
C179 C181 1.479 . S
C179 H197 0.929 . S
C180 C177 1.424 . S
C180 C179 1.384 . S
C180 H198 0.928 . S
C181 C178 1.260 . S
C181 C179 1.479 . S
C182 C177 1.245 . S
C182 C178 1.477 . S
C182 H199 0.932 . S
C183 U166 2.882 1_455 S
C183 C177 1.428 . S
C183 O186 1.301 . S
C183 O187 1.282 . S
O184 U166 2.441 . S
O184 C170 1.249 . S
O185 U166 2.420 1_455 S
O185 C170 1.202 1_455 S
O186 U166 2.455 1_455 S
O186 C183 1.301 . S
O187 U166 2.449 1_455 S
O187 C183 1.282 . S
H188 C161 0.931 . S
H189 C163 0.929 . S
H190 C164 0.930 . S
H191 C165 0.931 . S
H192 C172 0.932 . S
H193 C173 0.930 . S
H194 C174 0.929 . S
H195 C176 0.930 . S
H196 C178 0.932 . S
H197 C179 0.929 . S
H198 C180 0.928 . S
H199 C182 0.932 . S
C200 C201 1.264 . S
C200 C205 1.479 . S
C200 C210 1.465 . S
C201 C200 1.264 . S
C201 C203 1.339 . S
C201 H228 0.931 . S
C202 C203 1.395 . S
C202 C204 1.320 . S
C203 C201 1.339 . S
C203 C202 1.395 . S
C203 H229 0.929 . S
C204 C202 1.320 . S
C204 C205 1.405 . S
C204 H230 0.930 . S
C205 C200 1.479 . S
C205 C204 1.405 . S
C205 H231 0.931 . S
U206 O207 2.454 . S
U206 O208 2.458 . S
U206 C209 2.984 . S
U206 C210 2.847 . S
U206 C223 2.882 . S
U206 O224 2.441 . S
U206 O225 2.420 . S
U206 O226 2.455 . S
U206 O227 2.449 . S
O207 U206 2.454 . S
O207 C209 1.353 . S
O208 U206 2.458 . S
O208 C209 1.286 . S
C209 U206 2.984 . S
C209 O207 1.353 . S
C209 O208 1.286 . S
C209 C211 1.363 . S
C210 C200 1.465 . S
C210 U206 2.847 . S
C210 O224 1.249 . S
C210 O225 1.202 . S
C211 C209 1.363 . S
C211 C213 1.408 . S
C211 C216 1.342 . S
C212 C213 1.310 . S
C212 C215 1.461 . S
C212 H232 0.932 . S
C213 C211 1.408 . S
C213 C212 1.310 . S
C213 H233 0.930 . S
C214 C215 1.474 . S
C214 C216 1.285 . S
C214 H234 0.929 . S
C215 C212 1.461 . S
C215 C214 1.474 . S
C216 C211 1.342 . S
C216 C214 1.285 . S
C216 H235 0.930 . S
C217 C220 1.424 . S
C217 C222 1.245 . S
C217 C223 1.428 . S
C218 C221 1.260 . S
C218 C222 1.477 . S
C218 H236 0.932 . S
C219 C220 1.384 . S
C219 C221 1.479 . S
C219 H237 0.929 . S
C220 C217 1.424 . S
C220 C219 1.384 . S
C220 H238 0.928 . S
C221 C218 1.260 . S
C221 C219 1.479 . S
C222 C217 1.245 . S
C222 C218 1.477 . S
C222 H239 0.932 . S
C223 U206 2.882 . S
C223 C217 1.428 . S
C223 O226 1.301 . S
C223 O227 1.282 . S
O224 U206 2.441 . S
O224 C210 1.249 . S
O225 U206 2.420 . S
O225 C210 1.202 . S
O226 U206 2.455 . S
O226 C223 1.301 . S
O227 U206 2.449 . S
O227 C223 1.282 . S
H228 C201 0.931 . S
H229 C203 0.929 . S
H230 C204 0.930 . S
H231 C205 0.931 . S
H232 C212 0.932 . S
H233 C213 0.930 . S
H234 C214 0.929 . S
H235 C216 0.930 . S
H236 C218 0.932 . S
H237 C219 0.929 . S
H238 C220 0.928 . S
H239 C222 0.932 . S
C240 C241 1.264 . S
C240 C245 1.479 . S
C240 C250 1.465 . S
C241 C240 1.264 . S
C241 C243 1.339 . S
C241 H268 0.931 . S
C242 C243 1.395 . S
C242 C244 1.320 . S
C243 C241 1.339 . S
C243 C242 1.395 . S
C243 H269 0.929 . S
C244 C242 1.320 . S
C244 C245 1.405 . S
C244 H270 0.930 . S
C245 C240 1.479 . S
C245 C244 1.405 . S
C245 H271 0.931 . S
U246 O247 2.454 . S
U246 O248 2.458 . S
U246 C249 2.984 . S
U246 C250 2.847 . S
U246 C263 2.882 . S
U246 O264 2.441 . S
U246 O265 2.420 . S
U246 O266 2.455 . S
U246 O267 2.449 . S
O247 U246 2.454 . S
O247 C249 1.353 . S
O248 U246 2.458 . S
O248 C249 1.286 . S
C249 U246 2.984 . S
C249 O247 1.353 . S
C249 O248 1.286 . S
C249 C251 1.363 . S
C250 C240 1.465 . S
C250 U246 2.847 . S
C250 O264 1.249 . S
C250 O265 1.202 . S
C251 C249 1.363 . S
C251 C253 1.408 . S
C251 C256 1.342 . S
C252 C253 1.310 . S
C252 C255 1.461 . S
C252 H272 0.932 . S
C253 C251 1.408 . S
C253 C252 1.310 . S
C253 H273 0.930 . S
C254 C255 1.474 . S
C254 C256 1.285 . S
C254 H274 0.929 . S
C255 C252 1.461 . S
C255 C254 1.474 . S
C256 C251 1.342 . S
C256 C254 1.285 . S
C256 H275 0.930 . S
C257 C260 1.424 . S
C257 C262 1.245 . S
C257 C263 1.428 . S
C258 C261 1.260 . S
C258 C262 1.477 . S
C258 H276 0.932 . S
C259 C260 1.384 . S
C259 C261 1.479 . S
C259 H277 0.929 . S
C260 C257 1.424 . S
C260 C259 1.384 . S
C260 H278 0.928 . S
C261 C258 1.260 . S
C261 C259 1.479 . S
C262 C257 1.245 . S
C262 C258 1.477 . S
C262 H279 0.932 . S
C263 U246 2.882 . S
C263 C257 1.428 . S
C263 O266 1.301 . S
C263 O267 1.282 . S
O264 U246 2.441 . S
O264 C250 1.249 . S
O265 U246 2.420 . S
O265 C250 1.202 . S
O266 U246 2.455 . S
O266 C263 1.301 . S
O267 U246 2.449 . S
O267 C263 1.282 . S
H268 C241 0.931 . S
H269 C243 0.929 . S
H270 C244 0.930 . S
H271 C245 0.931 . S
H272 C252 0.932 . S
H273 C253 0.930 . S
H274 C254 0.929 . S
H275 C256 0.930 . S
H276 C258 0.932 . S
H277 C259 0.929 . S
H278 C260 0.928 . S
H279 C262 0.932 . S
C280 C281 1.264 . S
C280 C285 1.479 . S
C280 C290 1.465 . S
C281 C280 1.264 . S
C281 C283 1.339 . S
C281 H308 0.909 1_545 S
C282 C283 1.395 . S
C282 C284 1.320 . S
C283 C281 1.339 . S
C283 C282 1.395 . S
C283 H309 0.929 1_545 S
C284 C282 1.320 . S
C284 C285 1.405 . S
C284 H310 0.930 . S
C285 C280 1.479 . S
C285 C284 1.405 . S
C285 H311 0.931 . S
U286 O287 2.454 . S
U286 O288 2.458 . S
U286 C289 2.984 . S
U286 C290 2.847 . S
U286 C303 2.882 1_545 S
U286 O304 2.441 . S
U286 O305 2.420 . S
U286 O306 2.455 . S
U286 O307 2.449 1_545 S
O287 U286 2.454 . S
O287 C289 1.353 . S
O288 U286 2.458 . S
O288 C289 1.286 . S
C289 U286 2.984 . S
C289 O287 1.353 . S
C289 O288 1.286 . S
C289 C291 1.363 . S
C290 C280 1.465 . S
C290 U286 2.847 . S
C290 O304 1.249 . S
C290 O305 1.202 . S
C291 C289 1.363 . S
C291 C293 1.408 . S
C291 C296 1.342 . S
C292 C293 1.310 . S
C292 C295 1.461 . S
C292 H312 0.932 . S
C293 C291 1.408 . S
C293 C292 1.310 . S
C293 H313 0.930 . S
C294 C295 1.474 . S
C294 C296 1.285 . S
C294 H314 0.929 . S
C295 C292 1.461 . S
C295 C294 1.474 . S
C296 C291 1.342 . S
C296 C294 1.285 . S
C296 H315 0.930 . S
C297 C300 1.424 . S
C297 C302 1.245 . S
C297 C303 1.428 . S
C298 C301 1.260 . S
C298 C302 1.477 . S
C298 H316 0.932 . S
C299 C300 1.384 . S
C299 C301 1.479 . S
C299 H317 0.929 . S
C300 C297 1.424 . S
C300 C299 1.384 . S
C300 H318 0.928 . S
C301 C298 1.260 . S
C301 C299 1.479 . S
C302 C297 1.245 . S
C302 C298 1.477 . S
C302 H319 0.932 . S
C303 U286 2.882 1_565 S
C303 C297 1.428 . S
C303 O306 1.301 1_565 S
C303 O307 1.282 . S
O304 U286 2.441 . S
O304 C290 1.249 . S
O305 U286 2.420 . S
O305 C290 1.202 . S
O306 U286 2.455 . S
O306 C303 1.301 1_545 S
O307 U286 2.449 1_565 S
O307 C303 1.282 . S
H308 C281 0.909 1_565 S
H309 C283 0.929 1_565 S
H310 C284 0.930 . S
H311 C285 0.931 . S
H312 C292 0.932 . S
H313 C293 0.930 . S
H314 C294 0.929 . S
H315 C296 0.930 . S
H316 C298 0.932 . S
H317 C299 0.929 . S
H318 C300 0.928 . S
H319 C302 0.932 . S
C320 C321 1.264 . S
C320 C325 1.479 . S
C320 C330 1.465 . S
C321 C320 1.264 . S
C321 C323 1.339 . S
C321 H348 0.931 . S
C322 C323 1.395 . S
C322 C324 1.320 . S
C323 C321 1.339 . S
C323 C322 1.395 . S
C323 H349 0.929 . S
C324 C322 1.320 . S
C324 C325 1.405 . S
C324 H350 0.930 . S
C325 C320 1.479 . S
C325 C324 1.405 . S
C325 H351 0.931 . S
U326 O327 2.491 . S
U326 O328 2.515 . S
U326 C329 3.036 . S
U326 C330 2.802 1_554 S
U326 C343 2.880 1_554 S
U326 O344 2.414 1_554 S
U326 O345 2.364 1_554 S
U326 O346 2.476 . S
U326 O347 2.421 1_554 S
O327 U326 2.491 . S
O327 C329 1.353 . S
O328 U326 2.515 . S
O328 C329 1.286 . S
C329 U326 3.036 . S
C329 O327 1.353 . S
C329 O328 1.286 . S
C329 C331 1.363 . S
C330 C320 1.465 . S
C330 U326 2.802 1_556 S
C330 O344 1.249 . S
C330 O345 1.202 . S
C331 C329 1.363 . S
C331 C333 1.408 . S
C331 C336 1.342 . S
C332 C333 1.310 . S
C332 C335 1.461 . S
C332 H352 0.932 . S
C333 C331 1.408 . S
C333 C332 1.310 . S
C333 H353 0.930 . S
C334 C335 1.474 . S
C334 C336 1.285 . S
C334 H354 0.929 . S
C335 C332 1.461 . S
C335 C334 1.474 . S
C336 C331 1.342 . S
C336 C334 1.285 . S
C336 H355 0.930 . S
C337 C340 1.421 1_554 S
C337 C342 1.249 . S
C337 C343 1.425 1_554 S
C338 C341 1.260 . S
C338 C342 1.477 . S
C338 H356 0.932 . S
C339 C340 1.384 . S
C339 C341 1.479 1_556 S
C339 H357 0.929 . S
C340 C337 1.421 1_556 S
C340 C339 1.384 . S
C340 H358 0.928 . S
C341 C338 1.260 . S
C341 C339 1.479 1_554 S
C342 C337 1.249 . S
C342 C338 1.477 . S
C342 H359 0.932 . S
C343 U326 2.880 1_556 S
C343 C337 1.425 1_556 S
C343 O346 1.259 1_556 S
C343 O347 1.329 . S
O344 U326 2.414 1_556 S
O344 C330 1.249 . S
O345 U326 2.364 1_556 S
O345 C330 1.202 . S
O346 U326 2.476 . S
O346 C343 1.259 1_554 S
O347 U326 2.421 1_556 S
O347 C343 1.329 . S
H348 C321 0.931 . S
H349 C323 0.929 . S
H350 C324 0.930 . S
H351 C325 0.931 . S
H352 C332 0.932 . S
H353 C333 0.930 . S
H354 C334 0.929 . S
H355 C336 0.930 . S
H356 C338 0.932 . S
H357 C339 0.929 . S
H358 C340 0.928 . S
H359 C342 0.932 . S
C360 C361 1.264 . S
C360 C365 1.479 . S
C360 C370 1.465 . S
C361 C360 1.264 . S
C361 C363 1.339 . S
C361 H388 0.931 . S
C362 C363 1.395 . S
C362 C364 1.320 . S
C363 C361 1.339 . S
C363 C362 1.395 . S
C363 H389 0.929 . S
C364 C362 1.320 . S
C364 C365 1.405 . S
C364 H390 0.930 . S
C365 C360 1.479 . S
C365 C364 1.405 . S
C365 H391 0.931 . S
U366 O367 2.454 . S
U366 O368 2.458 . S
U366 C369 2.984 . S
U366 C370 2.847 . S
U366 C383 2.882 . S
U366 O384 2.441 . S
U366 O385 2.420 . S
U366 O386 2.455 . S
U366 O387 2.449 . S
O367 U366 2.454 . S
O367 C369 1.353 . S
O368 U366 2.458 . S
O368 C369 1.286 . S
C369 U366 2.984 . S
C369 O367 1.353 . S
C369 O368 1.286 . S
C369 C371 1.363 . S
C370 C360 1.465 . S
C370 U366 2.847 . S
C370 O384 1.249 . S
C370 O385 1.202 . S
C371 C369 1.363 . S
C371 C373 1.408 . S
C371 C376 1.342 . S
C372 C373 1.310 . S
C372 C375 1.461 . S
C372 H392 0.932 . S
C373 C371 1.408 . S
C373 C372 1.310 . S
C373 H393 0.930 . S
C374 C375 1.474 . S
C374 C376 1.285 . S
C374 H394 0.929 . S
C375 C372 1.461 . S
C375 C374 1.474 . S
C376 C371 1.342 . S
C376 C374 1.285 . S
C376 H395 0.930 . S
C377 C380 1.424 . S
C377 C382 1.245 . S
C377 C383 1.428 . S
C378 C381 1.260 . S
C378 C382 1.477 . S
C378 H396 0.932 . S
C379 C380 1.384 . S
C379 C381 1.479 . S
C379 H397 0.929 . S
C380 C377 1.424 . S
C380 C379 1.384 . S
C380 H398 0.928 . S
C381 C378 1.260 . S
C381 C379 1.479 . S
C382 C377 1.245 . S
C382 C378 1.477 . S
C382 H399 0.932 . S
C383 U366 2.882 . S
C383 C377 1.428 . S
C383 O386 1.301 . S
C383 O387 1.282 . S
O384 U366 2.441 . S
O384 C370 1.249 . S
O385 U366 2.420 . S
O385 C370 1.202 . S
O386 U366 2.455 . S
O386 C383 1.301 . S
O387 U366 2.449 . S
O387 C383 1.282 . S
H388 C361 0.931 . S
H389 C363 0.929 . S
H390 C364 0.930 . S
H391 C365 0.931 . S
H392 C372 0.932 . S
H393 C373 0.930 . S
H394 C374 0.929 . S
H395 C376 0.930 . S
H396 C378 0.932 . S
H397 C379 0.929 . S
H398 C380 0.928 . S
H399 C382 0.932 . S
C400 C401 1.264 . S
C400 C405 1.479 . S
C400 C410 1.465 . S
C401 C400 1.264 . S
C401 C403 1.339 . S
C401 H428 0.931 . S
C402 C403 1.395 . S
C402 C404 1.320 . S
C403 C401 1.339 . S
C403 C402 1.395 . S
C403 H429 0.929 . S
C404 C402 1.320 . S
C404 C405 1.405 . S
C404 H430 0.930 . S
C405 C400 1.479 . S
C405 C404 1.405 . S
C405 H431 0.931 . S
U406 O407 2.454 . S
U406 O408 2.458 . S
U406 C409 2.984 . S
U406 C410 2.847 . S
U406 C423 2.882 . S
U406 O424 2.441 . S
U406 O425 2.420 . S
U406 O426 2.455 . S
U406 O427 2.449 . S
O407 U406 2.454 . S
O407 C409 1.353 . S
O408 U406 2.458 . S
O408 C409 1.286 . S
C409 U406 2.984 . S
C409 O407 1.353 . S
C409 O408 1.286 . S
C409 C411 1.363 . S
C410 C400 1.465 . S
C410 U406 2.847 . S
C410 O424 1.249 . S
C410 O425 1.202 . S
C411 C409 1.363 . S
C411 C413 1.408 . S
C411 C416 1.342 . S
C412 C413 1.310 . S
C412 C415 1.461 . S
C412 H432 0.932 . S
C413 C411 1.408 . S
C413 C412 1.310 . S
C413 H433 0.930 . S
C414 C415 1.474 . S
C414 C416 1.285 . S
C414 H434 0.929 . S
C415 C412 1.461 . S
C415 C414 1.474 . S
C416 C411 1.342 . S
C416 C414 1.285 . S
C416 H435 0.930 . S
C417 C420 1.424 . S
C417 C422 1.245 . S
C417 C423 1.428 . S
C418 C421 1.260 . S
C418 C422 1.477 . S
C418 H436 0.932 . S
C419 C420 1.384 . S
C419 C421 1.479 . S
C419 H437 0.929 . S
C420 C417 1.424 . S
C420 C419 1.384 . S
C420 H438 0.928 . S
C421 C418 1.260 . S
C421 C419 1.479 . S
C422 C417 1.245 . S
C422 C418 1.477 . S
C422 H439 0.932 . S
C423 U406 2.882 . S
C423 C417 1.428 . S
C423 O426 1.301 . S
C423 O427 1.282 . S
O424 U406 2.441 . S
O424 C410 1.249 . S
O425 U406 2.420 . S
O425 C410 1.202 . S
O426 U406 2.455 . S
O426 C423 1.301 . S
O427 U406 2.449 . S
O427 C423 1.282 . S
H428 C401 0.931 . S
H429 C403 0.929 . S
H430 C404 0.930 . S
H431 C405 0.931 . S
H432 C412 0.932 . S
H433 C413 0.930 . S
H434 C414 0.929 . S
H435 C416 0.930 . S
H436 C418 0.932 . S
H437 C419 0.929 . S
H438 C420 0.928 . S
H439 C422 0.932 . S
C440 C441 1.244 1_554 S
C440 C445 1.479 . S
C440 C450 1.465 . S
C441 C440 1.244 1_556 S
C441 C443 1.343 . S
C441 H468 0.947 . S
C442 C443 1.395 1_554 S
C442 C444 1.320 . S
C443 C441 1.343 . S
C443 C442 1.395 1_556 S
C443 H469 0.929 . S
C444 C442 1.320 . S
C444 C445 1.405 . S
C444 H470 0.930 . S
C445 C440 1.479 . S
C445 C444 1.405 . S
C445 H471 0.931 . S
U446 O447 2.454 . S
U446 O448 2.458 . S
U446 C449 2.984 . S
U446 C450 2.847 . S
U446 C463 2.882 1_554 S
U446 O464 2.441 . S
U446 O465 2.420 . S
U446 O466 2.458 1_554 S
U446 O467 2.449 1_554 S
O447 U446 2.454 . S
O447 C449 1.353 . S
O448 U446 2.458 . S
O448 C449 1.286 . S
C449 U446 2.984 . S
C449 O447 1.353 . S
C449 O448 1.286 . S
C449 C451 1.363 . S
C450 C440 1.465 . S
C450 U446 2.847 . S
C450 O464 1.249 . S
C450 O465 1.202 . S
C451 C449 1.363 . S
C451 C453 1.408 . S
C451 C456 1.342 . S
C452 C453 1.310 . S
C452 C455 1.461 . S
C452 H472 0.932 . S
C453 C451 1.408 . S
C453 C452 1.310 . S
C453 H473 0.930 . S
C454 C455 1.474 . S
C454 C456 1.285 . S
C454 H474 0.929 . S
C455 C452 1.461 . S
C455 C454 1.474 . S
C456 C451 1.342 . S
C456 C454 1.285 . S
C456 H475 0.930 . S
C457 C460 1.424 . S
C457 C462 1.245 . S
C457 C463 1.428 . S
C458 C461 1.260 . S
C458 C462 1.477 . S
C458 H476 0.932 . S
C459 C460 1.384 . S
C459 C461 1.479 . S
C459 H477 0.929 . S
C460 C457 1.424 . S
C460 C459 1.384 . S
C460 H478 0.928 . S
C461 C458 1.260 . S
C461 C459 1.479 . S
C462 C457 1.245 . S
C462 C458 1.477 . S
C462 H479 0.932 . S
C463 U446 2.882 1_556 S
C463 C457 1.428 . S
C463 O466 1.297 . S
C463 O467 1.282 . S
O464 U446 2.441 . S
O464 C450 1.249 . S
O465 U446 2.420 . S
O465 C450 1.202 . S
O466 U446 2.458 1_556 S
O466 C463 1.297 . S
O467 U446 2.449 1_556 S
O467 C463 1.282 . S
H468 C441 0.947 . S
H469 C443 0.929 . S
H470 C444 0.930 . S
H471 C445 0.931 . S
H472 C452 0.932 . S
H473 C453 0.930 . S
H474 C454 0.929 . S
H475 C456 0.930 . S
H476 C458 0.932 . S
H477 C459 0.929 . S
H478 C460 0.928 . S
H479 C462 0.932 . S
C480 C481 1.264 . S
C480 C485 1.537 . S
C480 C490 1.465 . S
C481 C480 1.264 . S
C481 C483 1.339 . S
C481 H508 0.931 . S
C482 C483 1.395 . S
C482 C484 1.349 . S
C483 C481 1.339 . S
C483 C482 1.395 . S
C483 H509 0.929 . S
C484 C482 1.349 . S
C484 C485 1.404 . S
C484 H510 0.901 1_455 S
C485 C480 1.537 . S
C485 C484 1.404 . S
C485 H511 0.881 1_455 S
U486 O487 2.454 1_455 S
U486 O488 2.458 1_455 S
U486 C489 2.984 1_455 S
U486 C490 2.847 . S
U486 C503 2.882 . S
U486 O504 2.441 . S
U486 O505 2.420 . S
U486 O506 2.455 . S
U486 O507 2.449 . S
O487 U486 2.454 1_655 S
O487 C489 1.353 . S
O488 U486 2.458 1_655 S
O488 C489 1.286 . S
C489 U486 2.984 1_655 S
C489 O487 1.353 . S
C489 O488 1.286 . S
C489 C491 1.363 . S
C490 C480 1.465 . S
C490 U486 2.847 . S
C490 O504 1.249 . S
C490 O505 1.202 . S
C491 C489 1.363 . S
C491 C493 1.408 . S
C491 C496 1.342 . S
C492 C493 1.310 . S
C492 C495 1.461 . S
C492 H512 0.932 . S
C493 C491 1.408 . S
C493 C492 1.310 . S
C493 H513 0.930 . S
C494 C495 1.474 . S
C494 C496 1.285 . S
C494 H514 0.929 . S
C495 C492 1.461 . S
C495 C494 1.474 . S
C496 C491 1.342 . S
C496 C494 1.285 . S
C496 H515 0.930 . S
C497 C500 1.424 . S
C497 C502 1.245 . S
C497 C503 1.428 . S
C498 C501 1.260 . S
C498 C502 1.477 . S
C498 H516 0.932 . S
C499 C500 1.384 . S
C499 C501 1.479 . S
C499 H517 0.929 . S
C500 C497 1.424 . S
C500 C499 1.384 . S
C500 H518 0.928 . S
C501 C498 1.260 . S
C501 C499 1.479 . S
C502 C497 1.245 . S
C502 C498 1.477 . S
C502 H519 0.932 . S
C503 U486 2.882 . S
C503 C497 1.428 . S
C503 O506 1.301 . S
C503 O507 1.282 . S
O504 U486 2.441 . S
O504 C490 1.249 . S
O505 U486 2.420 . S
O505 C490 1.202 . S
O506 U486 2.455 . S
O506 C503 1.301 . S
O507 U486 2.449 . S
O507 C503 1.282 . S
H508 C481 0.931 . S
H509 C483 0.929 . S
H510 C484 0.901 1_655 S
H511 C485 0.881 1_655 S
H512 C492 0.932 . S
H513 C493 0.930 . S
H514 C494 0.929 . S
H515 C496 0.930 . S
H516 C498 0.932 . S
H517 C499 0.929 . S
H518 C500 0.928 . S
H519 C502 0.932 . S
C520 C521 1.264 . S
C520 C525 1.479 . S
C520 C530 1.465 . S
C521 C520 1.264 . S
C521 C523 1.339 . S
C521 H548 0.931 . S
C522 C523 1.395 . S
C522 C524 1.320 . S
C523 C521 1.339 . S
C523 C522 1.395 . S
C523 H549 0.929 . S
C524 C522 1.320 . S
C524 C525 1.405 . S
C524 H550 0.930 . S
C525 C520 1.479 . S
C525 C524 1.405 . S
C525 H551 0.931 . S
U526 O527 2.454 . S
U526 O528 2.458 . S
U526 C529 2.984 . S
U526 C530 2.847 . S
U526 C543 2.882 . S
U526 O544 2.441 . S
U526 O545 2.420 . S
U526 O546 2.455 . S
U526 O547 2.449 . S
O527 U526 2.454 . S
O527 C529 1.353 . S
O528 U526 2.458 . S
O528 C529 1.286 . S
C529 U526 2.984 . S
C529 O527 1.353 . S
C529 O528 1.286 . S
C529 C531 1.363 . S
C530 C520 1.465 . S
C530 U526 2.847 . S
C530 O544 1.249 . S
C530 O545 1.202 . S
C531 C529 1.363 . S
C531 C533 1.408 . S
C531 C536 1.342 . S
C532 C533 1.310 . S
C532 C535 1.461 . S
C532 H552 0.932 . S
C533 C531 1.408 . S
C533 C532 1.310 . S
C533 H553 0.930 . S
C534 C535 1.474 . S
C534 C536 1.285 . S
C534 H554 0.929 . S
C535 C532 1.461 . S
C535 C534 1.474 . S
C536 C531 1.342 . S
C536 C534 1.285 . S
C536 H555 0.930 . S
C537 C540 1.424 . S
C537 C542 1.245 . S
C537 C543 1.428 . S
C538 C541 1.260 . S
C538 C542 1.477 . S
C538 H556 0.932 . S
C539 C540 1.384 . S
C539 C541 1.479 . S
C539 H557 0.929 . S
C540 C537 1.424 . S
C540 C539 1.384 . S
C540 H558 0.928 . S
C541 C538 1.260 . S
C541 C539 1.479 . S
C542 C537 1.245 . S
C542 C538 1.477 . S
C542 H559 0.932 . S
C543 U526 2.882 . S
C543 C537 1.428 . S
C543 O546 1.301 . S
C543 O547 1.282 . S
O544 U526 2.441 . S
O544 C530 1.249 . S
O545 U526 2.420 . S
O545 C530 1.202 . S
O546 U526 2.455 . S
O546 C543 1.301 . S
O547 U526 2.449 . S
O547 C543 1.282 . S
H548 C521 0.931 . S
H549 C523 0.929 . S
H550 C524 0.930 . S
H551 C525 0.931 . S
H552 C532 0.932 . S
H553 C533 0.930 . S
H554 C534 0.929 . S
H555 C536 0.930 . S
H556 C538 0.932 . S
H557 C539 0.929 . S
H558 C540 0.928 . S
H559 C542 0.932 . S
C560 C561 1.264 . S
C560 C565 1.479 . S
C560 C570 1.465 . S
C561 C560 1.264 . S
C561 C563 1.339 . S
C561 H588 0.931 . S
C562 C563 1.395 . S
C562 C564 1.320 . S
C563 C561 1.339 . S
C563 C562 1.395 . S
C563 H589 0.929 . S
C564 C562 1.320 . S
C564 C565 1.405 . S
C564 H590 0.930 . S
C565 C560 1.479 . S
C565 C564 1.405 . S
C565 H591 0.931 . S
U566 O567 2.454 . S
U566 O568 2.458 . S
U566 C569 2.984 . S
U566 C570 2.847 . S
U566 C583 2.882 . S
U566 O584 2.441 . S
U566 O585 2.420 . S
U566 O586 2.455 . S
U566 O587 2.449 . S
O567 U566 2.454 . S
O567 C569 1.353 . S
O568 U566 2.458 . S
O568 C569 1.286 . S
C569 U566 2.984 . S
C569 O567 1.353 . S
C569 O568 1.286 . S
C569 C571 1.363 . S
C570 C560 1.465 . S
C570 U566 2.847 . S
C570 O584 1.249 . S
C570 O585 1.202 . S
C571 C569 1.363 . S
C571 C573 1.408 . S
C571 C576 1.342 . S
C572 C573 1.310 . S
C572 C575 1.461 . S
C572 H592 0.932 . S
C573 C571 1.408 . S
C573 C572 1.310 . S
C573 H593 0.930 . S
C574 C575 1.474 . S
C574 C576 1.285 . S
C574 H594 0.929 . S
C575 C572 1.461 . S
C575 C574 1.474 . S
C576 C571 1.342 . S
C576 C574 1.285 . S
C576 H595 0.930 . S
C577 C580 1.424 . S
C577 C582 1.245 . S
C577 C583 1.428 . S
C578 C581 1.260 . S
C578 C582 1.477 . S
C578 H596 0.932 . S
C579 C580 1.384 . S
C579 C581 1.479 . S
C579 H597 0.929 . S
C580 C577 1.424 . S
C580 C579 1.384 . S
C580 H598 0.928 . S
C581 C578 1.260 . S
C581 C579 1.479 . S
C582 C577 1.245 . S
C582 C578 1.477 . S
C582 H599 0.932 . S
C583 U566 2.882 . S
C583 C577 1.428 . S
C583 O586 1.301 . S
C583 O587 1.282 . S
O584 U566 2.441 . S
O584 C570 1.249 . S
O585 U566 2.420 . S
O585 C570 1.202 . S
O586 U566 2.455 . S
O586 C583 1.301 . S
O587 U566 2.449 . S
O587 C583 1.282 . S
H588 C561 0.931 . S
H589 C563 0.929 . S
H590 C564 0.930 . S
H591 C565 0.931 . S
H592 C572 0.932 . S
H593 C573 0.930 . S
H594 C574 0.929 . S
H595 C576 0.930 . S
H596 C578 0.932 . S
H597 C579 0.929 . S
H598 C580 0.928 . S
H599 C582 0.932 . S
C600 C601 1.264 . S
C600 C605 1.479 1_545 S
C600 C610 1.465 . S
C601 C600 1.264 . S
C601 C603 1.339 . S
C601 H628 0.931 . S
C602 C603 1.395 . S
C602 C604 1.320 1_545 S
C603 C601 1.339 . S
C603 C602 1.395 . S
C603 H629 0.929 . S
C604 C602 1.320 1_565 S
C604 C605 1.405 . S
C604 H630 0.930 . S
C605 C600 1.479 1_565 S
C605 C604 1.405 . S
C605 H631 0.931 . S
U606 O607 2.454 1_545 S
U606 O608 2.458 1_545 S
U606 C609 2.984 1_545 S
U606 C610 2.847 . S
U606 C623 2.882 . S
U606 O624 2.441 1_545 S
U606 O625 2.420 . S
U606 O626 2.455 . S
U606 O627 2.449 . S
O607 U606 2.454 1_565 S
O607 C609 1.353 . S
O608 U606 2.458 1_565 S
O608 C609 1.286 . S
C609 U606 2.984 1_565 S
C609 O607 1.353 . S
C609 O608 1.286 . S
C609 C611 1.363 . S
C610 C600 1.465 . S
C610 U606 2.847 . S
C610 O624 1.249 1_545 S
C610 O625 1.202 . S
C611 C609 1.363 . S
C611 C613 1.408 . S
C611 C616 1.342 . S
C612 C613 1.310 . S
C612 C615 1.461 . S
C612 H632 0.932 . S
C613 C611 1.408 . S
C613 C612 1.310 . S
C613 H633 0.930 . S
C614 C615 1.474 . S
C614 C616 1.285 . S
C614 H634 0.929 . S
C615 C612 1.461 . S
C615 C614 1.474 . S
C616 C611 1.342 . S
C616 C614 1.285 . S
C616 H635 0.930 . S
C617 C620 1.424 . S
C617 C622 1.245 . S
C617 C623 1.428 . S
C618 C621 1.260 . S
C618 C622 1.477 . S
C618 H636 0.932 . S
C619 C620 1.384 . S
C619 C621 1.479 . S
C619 H637 0.929 . S
C620 C617 1.424 . S
C620 C619 1.384 . S
C620 H638 0.928 . S
C621 C618 1.260 . S
C621 C619 1.479 . S
C622 C617 1.245 . S
C622 C618 1.477 . S
C622 H639 0.932 . S
C623 U606 2.882 . S
C623 C617 1.428 . S
C623 O626 1.301 . S
C623 O627 1.282 . S
O624 U606 2.441 1_565 S
O624 C610 1.249 1_565 S
O625 U606 2.420 . S
O625 C610 1.202 . S
O626 U606 2.455 . S
O626 C623 1.301 . S
O627 U606 2.449 . S
O627 C623 1.282 . S
H628 C601 0.931 . S
H629 C603 0.929 . S
H630 C604 0.930 . S
H631 C605 0.931 . S
H632 C612 0.932 . S
H633 C613 0.930 . S
H634 C614 0.929 . S
H635 C616 0.930 . S
H636 C618 0.932 . S
H637 C619 0.929 . S
H638 C620 0.928 . S
H639 C622 0.932 . S
C640 C641 1.264 . S
C640 C645 1.528 . S
C640 C650 1.465 . S
C641 C640 1.264 . S
C641 C643 1.339 . S
C641 H668 0.931 . S
C642 C643 1.395 . S
C642 C644 1.342 . S
C643 C641 1.339 . S
C643 C642 1.395 . S
C643 H669 0.929 . S
C644 C642 1.342 . S
C644 C645 1.404 . S
C644 H670 0.908 1_455 S
C645 C640 1.528 . S
C645 C644 1.404 . S
C645 H671 0.888 1_455 S
U646 O647 2.454 1_455 S
U646 O648 2.458 1_455 S
U646 C649 2.984 1_455 S
U646 C650 2.847 . S
U646 C663 2.882 . S
U646 O664 2.441 . S
U646 O665 2.420 . S
U646 O666 2.455 . S
U646 O667 2.449 . S
O647 U646 2.454 1_655 S
O647 C649 1.353 . S
O648 U646 2.458 1_655 S
O648 C649 1.286 . S
C649 U646 2.984 1_655 S
C649 O647 1.353 . S
C649 O648 1.286 . S
C649 C651 1.363 . S
C650 C640 1.465 . S
C650 U646 2.847 . S
C650 O664 1.249 . S
C650 O665 1.202 . S
C651 C649 1.363 . S
C651 C653 1.408 . S
C651 C656 1.342 . S
C652 C653 1.310 . S
C652 C655 1.461 . S
C652 H672 0.932 . S
C653 C651 1.408 . S
C653 C652 1.310 . S
C653 H673 0.930 . S
C654 C655 1.474 . S
C654 C656 1.285 . S
C654 H674 0.929 . S
C655 C652 1.461 . S
C655 C654 1.474 . S
C656 C651 1.342 . S
C656 C654 1.285 . S
C656 H675 0.930 . S
C657 C660 1.424 . S
C657 C662 1.245 . S
C657 C663 1.428 . S
C658 C661 1.260 . S
C658 C662 1.477 . S
C658 H676 0.932 . S
C659 C660 1.384 . S
C659 C661 1.479 . S
C659 H677 0.929 . S
C660 C657 1.424 . S
C660 C659 1.384 . S
C660 H678 0.928 . S
C661 C658 1.260 . S
C661 C659 1.479 . S
C662 C657 1.245 . S
C662 C658 1.477 . S
C662 H679 0.932 . S
C663 U646 2.882 . S
C663 C657 1.428 . S
C663 O666 1.301 . S
C663 O667 1.282 . S
O664 U646 2.441 . S
O664 C650 1.249 . S
O665 U646 2.420 . S
O665 C650 1.202 . S
O666 U646 2.455 . S
O666 C663 1.301 . S
O667 U646 2.449 . S
O667 C663 1.282 . S
H668 C641 0.931 . S
H669 C643 0.929 . S
H670 C644 0.908 1_655 S
H671 C645 0.888 1_655 S
H672 C652 0.932 . S
H673 C653 0.930 . S
H674 C654 0.929 . S
H675 C656 0.930 . S
H676 C658 0.932 . S
H677 C659 0.929 . S
H678 C660 0.928 . S
H679 C662 0.932 . S
C680 C681 1.264 . S
C680 C685 1.479 . S
C680 C690 1.465 . S
C681 C680 1.264 . S
C681 C683 1.339 . S
C681 H708 0.931 . S
C682 C683 1.395 . S
C682 C684 1.320 . S
C683 C681 1.339 . S
C683 C682 1.395 . S
C683 H709 0.929 . S
C684 C682 1.320 . S
C684 C685 1.405 . S
C684 H710 0.930 . S
C685 C680 1.479 . S
C685 C684 1.405 . S
C685 H711 0.931 . S
U686 O687 2.454 . S
U686 O688 2.458 . S
U686 C689 2.984 . S
U686 C690 2.847 . S
U686 C703 2.882 . S
U686 O704 2.441 . S
U686 O705 2.420 . S
U686 O706 2.455 . S
U686 O707 2.449 . S
O687 U686 2.454 . S
O687 C689 1.353 . S
O688 U686 2.458 . S
O688 C689 1.286 . S
C689 U686 2.984 . S
C689 O687 1.353 . S
C689 O688 1.286 . S
C689 C691 1.363 . S
C690 C680 1.465 . S
C690 U686 2.847 . S
C690 O704 1.249 . S
C690 O705 1.202 . S
C691 C689 1.363 . S
C691 C693 1.408 . S
C691 C696 1.342 . S
C692 C693 1.310 . S
C692 C695 1.461 . S
C692 H712 0.932 . S
C693 C691 1.408 . S
C693 C692 1.310 . S
C693 H713 0.930 . S
C694 C695 1.474 . S
C694 C696 1.285 . S
C694 H714 0.929 . S
C695 C692 1.461 . S
C695 C694 1.474 . S
C696 C691 1.342 . S
C696 C694 1.285 . S
C696 H715 0.930 . S
C697 C700 1.424 . S
C697 C702 1.245 . S
C697 C703 1.428 . S
C698 C701 1.260 . S
C698 C702 1.477 . S
C698 H716 0.932 . S
C699 C700 1.384 . S
C699 C701 1.479 . S
C699 H717 0.929 . S
C700 C697 1.424 . S
C700 C699 1.384 . S
C700 H718 0.928 . S
C701 C698 1.260 . S
C701 C699 1.479 . S
C702 C697 1.245 . S
C702 C698 1.477 . S
C702 H719 0.932 . S
C703 U686 2.882 . S
C703 C697 1.428 . S
C703 O706 1.301 . S
C703 O707 1.282 . S
O704 U686 2.441 . S
O704 C690 1.249 . S
O705 U686 2.420 . S
O705 C690 1.202 . S
O706 U686 2.455 . S
O706 C703 1.301 . S
O707 U686 2.449 . S
O707 C703 1.282 . S
H708 C681 0.931 . S
H709 C683 0.929 . S
H710 C684 0.930 . S
H711 C685 0.931 . S
H712 C692 0.932 . S
H713 C693 0.930 . S
H714 C694 0.929 . S
H715 C696 0.930 . S
H716 C698 0.932 . S
H717 C699 0.929 . S
H718 C700 0.928 . S
H719 C702 0.932 . S
C720 C721 1.264 . S
C720 C725 1.479 . S
C720 C730 1.465 . S
C721 C720 1.264 . S
C721 C723 1.339 . S
C721 H748 0.931 . S
C722 C723 1.395 . S
C722 C724 1.320 . S
C723 C721 1.339 . S
C723 C722 1.395 . S
C723 H749 0.929 . S
C724 C722 1.320 . S
C724 C725 1.405 . S
C724 H750 0.930 . S
C725 C720 1.479 . S
C725 C724 1.405 . S
C725 H751 0.931 . S
U726 O727 2.454 . S
U726 O728 2.458 . S
U726 C729 2.984 . S
U726 C730 2.847 . S
U726 C743 2.882 . S
U726 O744 2.441 . S
U726 O745 2.420 . S
U726 O746 2.455 . S
U726 O747 2.449 . S
O727 U726 2.454 . S
O727 C729 1.353 . S
O728 U726 2.458 . S
O728 C729 1.286 . S
C729 U726 2.984 . S
C729 O727 1.353 . S
C729 O728 1.286 . S
C729 C731 1.363 . S
C730 C720 1.465 . S
C730 U726 2.847 . S
C730 O744 1.249 . S
C730 O745 1.202 . S
C731 C729 1.363 . S
C731 C733 1.408 . S
C731 C736 1.342 . S
C732 C733 1.310 . S
C732 C735 1.461 . S
C732 H752 0.932 . S
C733 C731 1.408 . S
C733 C732 1.310 . S
C733 H753 0.930 . S
C734 C735 1.474 . S
C734 C736 1.285 . S
C734 H754 0.929 . S
C735 C732 1.461 . S
C735 C734 1.474 . S
C736 C731 1.342 . S
C736 C734 1.285 . S
C736 H755 0.930 . S
C737 C740 1.424 . S
C737 C742 1.245 . S
C737 C743 1.428 . S
C738 C741 1.260 . S
C738 C742 1.477 . S
C738 H756 0.932 . S
C739 C740 1.384 . S
C739 C741 1.479 . S
C739 H757 0.929 . S
C740 C737 1.424 . S
C740 C739 1.384 . S
C740 H758 0.928 . S
C741 C738 1.260 . S
C741 C739 1.479 . S
C742 C737 1.245 . S
C742 C738 1.477 . S
C742 H759 0.932 . S
C743 U726 2.882 . S
C743 C737 1.428 . S
C743 O746 1.301 . S
C743 O747 1.282 . S
O744 U726 2.441 . S
O744 C730 1.249 . S
O745 U726 2.420 . S
O745 C730 1.202 . S
O746 U726 2.455 . S
O746 C743 1.301 . S
O747 U726 2.449 . S
O747 C743 1.282 . S
H748 C721 0.931 . S
H749 C723 0.929 . S
H750 C724 0.930 . S
H751 C725 0.931 . S
H752 C732 0.932 . S
H753 C733 0.930 . S
H754 C734 0.929 . S
H755 C736 0.930 . S
H756 C738 0.932 . S
H757 C739 0.929 . S
H758 C740 0.928 . S
H759 C742 0.932 . S
C760 C761 1.264 . S
C760 C765 1.479 . S
C760 C770 1.465 . S
C761 C760 1.264 . S
C761 C763 1.339 . S
C761 H788 0.931 . S
C762 C763 1.395 . S
C762 C764 1.320 . S
C763 C761 1.339 . S
C763 C762 1.395 . S
C763 H789 0.929 . S
C764 C762 1.320 . S
C764 C765 1.405 . S
C764 H790 0.930 . S
C765 C760 1.479 . S
C765 C764 1.405 . S
C765 H791 0.931 . S
U766 O767 2.454 . S
U766 O768 2.458 . S
U766 C769 2.984 . S
U766 C770 2.847 1_545 S
U766 C783 2.882 . S
U766 O784 2.441 . S
U766 O785 2.420 1_545 S
U766 O786 2.455 . S
U766 O787 2.449 . S
O767 U766 2.454 . S
O767 C769 1.353 . S
O768 U766 2.458 . S
O768 C769 1.286 . S
C769 U766 2.984 . S
C769 O767 1.353 . S
C769 O768 1.286 . S
C769 C771 1.363 . S
C770 C760 1.465 . S
C770 U766 2.847 1_565 S
C770 O784 1.249 1_565 S
C770 O785 1.202 . S
C771 C769 1.363 . S
C771 C773 1.408 . S
C771 C776 1.342 . S
C772 C773 1.310 . S
C772 C775 1.461 . S
C772 H792 0.932 . S
C773 C771 1.408 . S
C773 C772 1.310 . S
C773 H793 0.930 . S
C774 C775 1.474 . S
C774 C776 1.285 . S
C774 H794 0.929 . S
C775 C772 1.461 . S
C775 C774 1.474 . S
C776 C771 1.342 . S
C776 C774 1.285 . S
C776 H795 0.930 . S
C777 C780 1.424 . S
C777 C782 1.245 . S
C777 C783 1.428 . S
C778 C781 1.260 . S
C778 C782 1.477 . S
C778 H796 0.932 . S
C779 C780 1.384 . S
C779 C781 1.479 . S
C779 H797 0.929 1_545 S
C780 C777 1.424 . S
C780 C779 1.384 . S
C780 H798 0.928 1_545 S
C781 C778 1.260 . S
C781 C779 1.479 . S
C782 C777 1.245 . S
C782 C778 1.477 . S
C782 H799 0.932 . S
C783 U766 2.882 . S
C783 C777 1.428 . S
C783 O786 1.301 . S
C783 O787 1.282 . S
O784 U766 2.441 . S
O784 C770 1.249 1_545 S
O785 U766 2.420 1_565 S
O785 C770 1.202 . S
O786 U766 2.455 . S
O786 C783 1.301 . S
O787 U766 2.449 . S
O787 C783 1.282 . S
H788 C761 0.931 . S
H789 C763 0.929 . S
H790 C764 0.930 . S
H791 C765 0.931 . S
H792 C772 0.932 . S
H793 C773 0.930 . S
H794 C774 0.929 . S
H795 C776 0.930 . S
H796 C778 0.932 . S
H797 C779 0.929 1_565 S
H798 C780 0.928 1_565 S
H799 C782 0.932 . S
C800 C801 1.288 . S
C800 C805 1.455 1_556 S
C800 C810 1.464 1_556 S
C801 C800 1.288 . S
C801 C803 1.339 . S
C801 H828 0.931 . S
C802 C803 1.395 1_554 S
C802 C804 1.320 . S
C803 C801 1.339 . S
C803 C802 1.395 1_556 S
C803 H829 0.929 . S
C804 C802 1.320 . S
C804 C805 1.405 . S
C804 H830 0.930 . S
C805 C800 1.455 1_554 S
C805 C804 1.405 . S
C805 H831 0.931 . S
U806 O807 2.492 . S
U806 O808 2.481 . S
U806 C809 3.018 . S
U806 C810 2.846 . S
U806 C823 2.852 1_554 S
U806 O824 2.456 . S
U806 O825 2.403 1_554 S
U806 O826 2.436 1_554 S
U806 O827 2.411 1_554 S
O807 U806 2.492 . S
O807 C809 1.353 . S
O808 U806 2.481 . S
O808 C809 1.286 . S
C809 U806 3.018 . S
C809 O807 1.353 . S
C809 O808 1.286 . S
C809 C811 1.363 . S
C810 C800 1.464 1_554 S
C810 U806 2.846 . S
C810 O824 1.243 . S
C810 O825 1.209 1_554 S
C811 C809 1.363 . S
C811 C813 1.408 . S
C811 C816 1.342 . S
C812 C813 1.310 . S
C812 C815 1.461 . S
C812 H832 0.932 . S
C813 C811 1.408 . S
C813 C812 1.310 . S
C813 H833 0.930 . S
C814 C815 1.474 . S
C814 C816 1.285 . S
C814 H834 0.929 . S
C815 C812 1.461 . S
C815 C814 1.474 . S
C816 C811 1.342 . S
C816 C814 1.285 . S
C816 H835 0.930 . S
C817 C820 1.424 . S
C817 C822 1.245 . S
C817 C823 1.428 . S
C818 C821 1.260 . S
C818 C822 1.477 . S
C818 H836 0.932 . S
C819 C820 1.384 . S
C819 C821 1.479 . S
C819 H837 0.929 . S
C820 C817 1.424 . S
C820 C819 1.384 . S
C820 H838 0.928 . S
C821 C818 1.260 . S
C821 C819 1.479 . S
C822 C817 1.245 . S
C822 C818 1.477 . S
C822 H839 0.932 . S
C823 U806 2.852 1_556 S
C823 C817 1.428 . S
C823 O826 1.301 . S
C823 O827 1.282 . S
O824 U806 2.456 . S
O824 C810 1.243 . S
O825 U806 2.403 1_556 S
O825 C810 1.209 1_556 S
O826 U806 2.436 1_556 S
O826 C823 1.301 . S
O827 U806 2.411 1_556 S
O827 C823 1.282 . S
H828 C801 0.931 . S
H829 C803 0.929 . S
H830 C804 0.930 . S
H831 C805 0.931 . S
H832 C812 0.932 . S
H833 C813 0.930 . S
H834 C814 0.929 . S
H835 C816 0.930 . S
H836 C818 0.932 . S
H837 C819 0.929 . S
H838 C820 0.928 . S
H839 C822 0.932 . S
C840 C841 1.264 . S
C840 C845 1.479 . S
C840 C850 1.465 . S
C841 C840 1.264 . S
C841 C843 1.339 . S
C841 H868 0.931 . S
C842 C843 1.395 . S
C842 C844 1.320 . S
C843 C841 1.339 . S
C843 C842 1.395 . S
C843 H869 0.929 . S
C844 C842 1.320 . S
C844 C845 1.405 . S
C844 H870 0.930 . S
C845 C840 1.479 . S
C845 C844 1.405 . S
C845 H871 0.931 . S
U846 O847 2.454 . S
U846 O848 2.458 . S
U846 C849 2.984 . S
U846 C850 2.847 . S
U846 C863 2.882 . S
U846 O864 2.441 . S
U846 O865 2.420 . S
U846 O866 2.455 . S
U846 O867 2.449 . S
O847 U846 2.454 . S
O847 C849 1.353 . S
O848 U846 2.458 . S
O848 C849 1.286 . S
C849 U846 2.984 . S
C849 O847 1.353 . S
C849 O848 1.286 . S
C849 C851 1.363 . S
C850 C840 1.465 . S
C850 U846 2.847 . S
C850 O864 1.249 . S
C850 O865 1.202 . S
C851 C849 1.363 . S
C851 C853 1.408 . S
C851 C856 1.342 . S
C852 C853 1.310 . S
C852 C855 1.461 . S
C852 H872 0.932 . S
C853 C851 1.408 . S
C853 C852 1.310 . S
C853 H873 0.930 . S
C854 C855 1.474 . S
C854 C856 1.285 . S
C854 H874 0.929 . S
C855 C852 1.461 . S
C855 C854 1.474 . S
C856 C851 1.342 . S
C856 C854 1.285 . S
C856 H875 0.930 . S
C857 C860 1.424 . S
C857 C862 1.245 . S
C857 C863 1.428 . S
C858 C861 1.260 . S
C858 C862 1.477 . S
C858 H876 0.932 . S
C859 C860 1.384 . S
C859 C861 1.479 . S
C859 H877 0.929 . S
C860 C857 1.424 . S
C860 C859 1.384 . S
C860 H878 0.928 . S
C861 C858 1.260 . S
C861 C859 1.479 . S
C862 C857 1.245 . S
C862 C858 1.477 . S
C862 H879 0.932 . S
C863 U846 2.882 . S
C863 C857 1.428 . S
C863 O866 1.301 . S
C863 O867 1.282 . S
O864 U846 2.441 . S
O864 C850 1.249 . S
O865 U846 2.420 . S
O865 C850 1.202 . S
O866 U846 2.455 . S
O866 C863 1.301 . S
O867 U846 2.449 . S
O867 C863 1.282 . S
H868 C841 0.931 . S
H869 C843 0.929 . S
H870 C844 0.930 . S
H871 C845 0.931 . S
H872 C852 0.932 . S
H873 C853 0.930 . S
H874 C854 0.929 . S
H875 C856 0.930 . S
H876 C858 0.932 . S
H877 C859 0.929 . S
H878 C860 0.928 . S
H879 C862 0.932 . S
C880 C881 1.264 . S
C880 C885 1.479 . S
C880 C890 1.465 . S
C881 C880 1.264 . S
C881 C883 1.339 . S
C881 H908 0.931 . S
C882 C883 1.395 . S
C882 C884 1.320 . S
C883 C881 1.339 . S
C883 C882 1.395 . S
C883 H909 0.929 . S
C884 C882 1.320 . S
C884 C885 1.405 . S
C884 H910 0.930 . S
C885 C880 1.479 . S
C885 C884 1.405 . S
C885 H911 0.931 . S
U886 O887 2.454 . S
U886 O888 2.458 . S
U886 C889 2.984 . S
U886 C890 2.847 . S
U886 C903 2.882 . S
U886 O904 2.441 . S
U886 O905 2.420 . S
U886 O906 2.455 . S
U886 O907 2.449 . S
O887 U886 2.454 . S
O887 C889 1.353 . S
O888 U886 2.458 . S
O888 C889 1.286 . S
C889 U886 2.984 . S
C889 O887 1.353 . S
C889 O888 1.286 . S
C889 C891 1.363 . S
C890 C880 1.465 . S
C890 U886 2.847 . S
C890 O904 1.249 . S
C890 O905 1.202 . S
C891 C889 1.363 . S
C891 C893 1.408 . S
C891 C896 1.342 . S
C892 C893 1.310 . S
C892 C895 1.461 . S
C892 H912 0.932 . S
C893 C891 1.408 . S
C893 C892 1.310 . S
C893 H913 0.930 . S
C894 C895 1.474 . S
C894 C896 1.285 . S
C894 H914 0.929 . S
C895 C892 1.461 . S
C895 C894 1.474 . S
C896 C891 1.342 . S
C896 C894 1.285 . S
C896 H915 0.930 . S
C897 C900 1.424 . S
C897 C902 1.245 . S
C897 C903 1.428 . S
C898 C901 1.260 . S
C898 C902 1.477 . S
C898 H916 0.932 . S
C899 C900 1.384 . S
C899 C901 1.479 . S
C899 H917 0.929 . S
C900 C897 1.424 . S
C900 C899 1.384 . S
C900 H918 0.928 . S
C901 C898 1.260 . S
C901 C899 1.479 . S
C902 C897 1.245 . S
C902 C898 1.477 . S
C902 H919 0.932 . S
C903 U886 2.882 . S
C903 C897 1.428 . S
C903 O906 1.301 . S
C903 O907 1.282 . S
O904 U886 2.441 . S
O904 C890 1.249 . S
O905 U886 2.420 . S
O905 C890 1.202 . S
O906 U886 2.455 . S
O906 C903 1.301 . S
O907 U886 2.449 . S
O907 C903 1.282 . S
H908 C881 0.931 . S
H909 C883 0.929 . S
H910 C884 0.930 . S
H911 C885 0.931 . S
H912 C892 0.932 . S
H913 C893 0.930 . S
H914 C894 0.929 . S
H915 C896 0.930 . S
H916 C898 0.932 . S
H917 C899 0.929 . S
H918 C900 0.928 . S
H919 C902 0.932 . S
C920 C921 1.264 . S
C920 C925 1.479 . S
C920 C930 1.465 . S
C921 C920 1.264 . S
C921 C923 1.339 . S
C921 H948 0.931 . S
C922 C923 1.395 . S
C922 C924 1.320 . S
C923 C921 1.339 . S
C923 C922 1.395 . S
C923 H949 0.929 . S
C924 C922 1.320 . S
C924 C925 1.405 . S
C924 H950 0.930 . S
C925 C920 1.479 . S
C925 C924 1.405 . S
C925 H951 0.931 . S
U926 O927 2.454 . S
U926 O928 2.458 . S
U926 C929 2.984 . S
U926 C930 2.847 1_554 S
U926 C943 2.882 . S
U926 O944 2.441 1_554 S
U926 O945 2.420 1_554 S
U926 O946 2.455 . S
U926 O947 2.449 . S
O927 U926 2.454 . S
O927 C929 1.353 . S
O928 U926 2.458 . S
O928 C929 1.286 . S
C929 U926 2.984 . S
C929 O927 1.353 . S
C929 O928 1.286 . S
C929 C931 1.363 . S
C930 C920 1.465 . S
C930 U926 2.847 1_556 S
C930 O944 1.249 . S
C930 O945 1.202 . S
C931 C929 1.363 . S
C931 C933 1.408 . S
C931 C936 1.342 . S
C932 C933 1.310 . S
C932 C935 1.461 . S
C932 H952 0.932 . S
C933 C931 1.408 . S
C933 C932 1.310 . S
C933 H953 0.930 . S
C934 C935 1.474 . S
C934 C936 1.285 . S
C934 H954 0.929 . S
C935 C932 1.461 . S
C935 C934 1.474 . S
C936 C931 1.342 . S
C936 C934 1.285 . S
C936 H955 0.930 . S
C937 C940 1.424 1_554 S
C937 C942 1.245 . S
C937 C943 1.428 . S
C938 C941 1.260 . S
C938 C942 1.477 . S
C938 H956 0.932 . S
C939 C940 1.384 . S
C939 C941 1.479 1_556 S
C939 H957 0.929 . S
C940 C937 1.424 1_556 S
C940 C939 1.384 . S
C940 H958 0.928 . S
C941 C938 1.260 . S
C941 C939 1.479 1_554 S
C942 C937 1.245 . S
C942 C938 1.477 . S
C942 H959 0.932 . S
C943 U926 2.882 . S
C943 C937 1.428 . S
C943 O946 1.301 . S
C943 O947 1.282 . S
O944 U926 2.441 1_556 S
O944 C930 1.249 . S
O945 U926 2.420 1_556 S
O945 C930 1.202 . S
O946 U926 2.455 . S
O946 C943 1.301 . S
O947 U926 2.449 . S
O947 C943 1.282 . S
H948 C921 0.931 . S
H949 C923 0.929 . S
H950 C924 0.930 . S
H951 C925 0.931 . S
H952 C932 0.932 . S
H953 C933 0.930 . S
H954 C934 0.929 . S
H955 C936 0.930 . S
H956 C938 0.932 . S
H957 C939 0.929 . S
H958 C940 0.928 . S
H959 C942 0.932 . S
C960 C961 1.359 1_655 S
C960 C962 1.391 . S
C960 H976 0.969 . S
C961 C960 1.359 1_455 S
C961 C965 1.376 . S
C962 C960 1.391 . S
C962 C963 1.373 1_655 S
C962 C966 1.527 . S
C963 C962 1.373 1_455 S
C963 C964 1.410 . S
C963 C971 1.503 . S
C964 C963 1.410 . S
C964 C965 1.392 . S
C964 C967 1.511 . S
C965 C961 1.376 . S
C965 C964 1.392 . S
C965 H977 0.929 . S
C966 C962 1.527 . S
C966 H978 0.960 . S
C966 H979 0.962 . S
C966 H980 0.960 . S
C967 C964 1.511 . S
C967 H981 0.961 . S
C967 H982 0.961 . S
C967 H983 0.961 . S
C968 C969 1.370 1_655 S
C968 C970 1.363 . S
C968 H984 0.931 . S
C969 C968 1.370 1_455 S
C969 C973 1.408 . S
C970 C968 1.363 . S
C970 C971 1.370 1_655 S
C970 C974 1.524 . S
C971 C963 1.503 . S
C971 C970 1.370 1_455 S
C971 C972 1.403 . S
C972 C971 1.403 . S
C972 C973 1.404 . S
C972 C975 1.539 . S
C973 C969 1.408 . S
C973 C972 1.404 . S
C973 H985 0.930 . S
C974 C970 1.524 . S
C974 H986 0.956 . S
C974 H987 0.961 . S
C974 H988 0.961 . S
C975 C972 1.539 . S
C975 H989 0.958 . S
C975 H990 0.961 . S
C975 H991 0.960 . S
H976 C960 0.969 . S
H977 C965 0.929 . S
H978 C966 0.960 . S
H979 C966 0.962 . S
H980 C966 0.960 . S
H981 C967 0.961 . S
H982 C967 0.961 . S
H983 C967 0.961 . S
H984 C968 0.931 . S
H985 C973 0.930 . S
H986 C974 0.956 . S
H987 C974 0.961 . S
H988 C974 0.961 . S
H989 C975 0.958 . S
H990 C975 0.961 . S
H991 C975 0.960 . S
C992 C993 1.391 . S
C992 C994 1.394 . S
C992 H1008 0.931 . S
C993 C992 1.391 . S
C993 C997 1.376 . S
C994 C992 1.394 . S
C994 C995 1.369 . S
C994 C998 1.531 . S
C995 C994 1.369 . S
C995 C996 1.410 . S
C995 C1003 1.503 . S
C996 C995 1.410 . S
C996 C997 1.392 . S
C996 C999 1.511 . S
C997 C993 1.376 . S
C997 C996 1.392 . S
C997 H1009 0.929 . S
C998 C994 1.531 . S
C998 H1010 0.960 . S
C998 H1011 0.962 . S
C998 H1012 0.960 . S
C999 C996 1.511 . S
C999 H1013 0.961 . S
C999 H1014 0.961 . S
C999 H1015 0.961 . S
C1000 C1001 1.370 . S
C1000 C1002 1.363 . S
C1000 H1016 0.931 . S
C1001 C1000 1.370 . S
C1001 C1005 1.408 . S
C1002 C1000 1.363 . S
C1002 C1003 1.370 . S
C1002 C1006 1.524 . S
C1003 C995 1.503 . S
C1003 C1002 1.370 . S
C1003 C1004 1.403 . S
C1004 C1003 1.403 . S
C1004 C1005 1.404 . S
C1004 C1007 1.539 . S
C1005 C1001 1.408 . S
C1005 C1004 1.404 . S
C1005 H1017 0.930 . S
C1006 C1002 1.524 . S
C1006 H1018 0.956 . S
C1006 H1019 0.961 . S
C1006 H1020 0.961 . S
C1007 C1004 1.539 . S
C1007 H1021 0.958 . S
C1007 H1022 0.961 . S
C1007 H1023 0.960 . S
H1008 C992 0.931 . S
H1009 C997 0.929 . S
H1010 C998 0.960 . S
H1011 C998 0.962 . S
H1012 C998 0.960 . S
H1013 C999 0.961 . S
H1014 C999 0.961 . S
H1015 C999 0.961 . S
H1016 C1000 0.931 . S
H1017 C1005 0.930 . S
H1018 C1006 0.956 . S
H1019 C1006 0.961 . S
H1020 C1006 0.961 . S
H1021 C1007 0.958 . S
H1022 C1007 0.961 . S
H1023 C1007 0.960 . S
C1024 C1025 1.391 . S
C1024 C1026 1.394 . S
C1024 H1040 0.931 . S
C1025 C1024 1.391 . S
C1025 C1029 1.376 . S
C1026 C1024 1.394 . S
C1026 C1027 1.369 . S
C1026 C1030 1.531 . S
C1027 C1026 1.369 . S
C1027 C1028 1.410 . S
C1027 C1035 1.503 . S
C1028 C1027 1.410 . S
C1028 C1029 1.392 . S
C1028 C1031 1.511 . S
C1029 C1025 1.376 . S
C1029 C1028 1.392 . S
C1029 H1041 0.929 . S
C1030 C1026 1.531 . S
C1030 H1042 0.960 . S
C1030 H1043 0.962 . S
C1030 H1044 0.960 . S
C1031 C1028 1.511 . S
C1031 H1045 0.961 . S
C1031 H1046 0.961 . S
C1031 H1047 0.961 . S
C1032 C1033 1.370 . S
C1032 C1034 1.363 . S
C1032 H1048 0.931 . S
C1033 C1032 1.370 . S
C1033 C1037 1.408 . S
C1034 C1032 1.363 . S
C1034 C1035 1.370 . S
C1034 C1038 1.524 . S
C1035 C1027 1.503 . S
C1035 C1034 1.370 . S
C1035 C1036 1.403 . S
C1036 C1035 1.403 . S
C1036 C1037 1.404 . S
C1036 C1039 1.539 . S
C1037 C1033 1.408 . S
C1037 C1036 1.404 . S
C1037 H1049 0.930 . S
C1038 C1034 1.524 . S
C1038 H1050 0.956 . S
C1038 H1051 0.961 . S
C1038 H1052 0.961 . S
C1039 C1036 1.539 . S
C1039 H1053 0.958 . S
C1039 H1054 0.961 . S
C1039 H1055 0.960 . S
H1040 C1024 0.931 . S
H1041 C1029 0.929 . S
H1042 C1030 0.960 . S
H1043 C1030 0.962 . S
H1044 C1030 0.960 . S
H1045 C1031 0.961 . S
H1046 C1031 0.961 . S
H1047 C1031 0.961 . S
H1048 C1032 0.931 . S
H1049 C1037 0.930 . S
H1050 C1038 0.956 . S
H1051 C1038 0.961 . S
H1052 C1038 0.961 . S
H1053 C1039 0.958 . S
H1054 C1039 0.961 . S
H1055 C1039 0.960 . S
C1056 C1057 1.391 . S
C1056 C1058 1.394 . S
C1056 H1072 0.931 . S
C1057 C1056 1.391 . S
C1057 C1061 1.376 . S
C1058 C1056 1.394 . S
C1058 C1059 1.369 . S
C1058 C1062 1.531 . S
C1059 C1058 1.369 . S
C1059 C1060 1.410 . S
C1059 C1067 1.503 . S
C1060 C1059 1.410 . S
C1060 C1061 1.392 . S
C1060 C1063 1.511 . S
C1061 C1057 1.376 . S
C1061 C1060 1.392 . S
C1061 H1073 0.929 . S
C1062 C1058 1.531 . S
C1062 H1074 0.960 . S
C1062 H1075 0.962 1_545 S
C1062 H1076 0.960 . S
C1063 C1060 1.511 . S
C1063 H1077 0.961 . S
C1063 H1078 0.961 . S
C1063 H1079 0.961 . S
C1064 C1065 1.370 1_565 S
C1064 C1066 1.363 . S
C1064 H1080 0.931 . S
C1065 C1064 1.370 1_545 S
C1065 C1069 1.408 . S
C1066 C1064 1.363 . S
C1066 C1067 1.370 1_565 S
C1066 C1070 1.524 . S
C1067 C1059 1.503 . S
C1067 C1066 1.370 1_545 S
C1067 C1068 1.403 . S
C1068 C1067 1.403 . S
C1068 C1069 1.404 . S
C1068 C1071 1.539 . S
C1069 C1065 1.408 . S
C1069 C1068 1.404 . S
C1069 H1081 0.930 . S
C1070 C1066 1.524 . S
C1070 H1082 0.956 . S
C1070 H1083 0.961 . S
C1070 H1084 0.961 . S
C1071 C1068 1.539 . S
C1071 H1085 0.958 . S
C1071 H1086 0.961 . S
C1071 H1087 0.960 . S
H1072 C1056 0.931 . S
H1073 C1061 0.929 . S
H1074 C1062 0.960 . S
H1075 C1062 0.962 1_565 S
H1076 C1062 0.960 . S
H1077 C1063 0.961 . S
H1078 C1063 0.961 . S
H1079 C1063 0.961 . S
H1080 C1064 0.931 . S
H1081 C1069 0.930 . S
H1082 C1070 0.956 . S
H1083 C1070 0.961 . S
H1084 C1070 0.961 . S
H1085 C1071 0.958 . S
H1086 C1071 0.961 . S
H1087 C1071 0.960 . S
C1088 C1089 1.391 . S
C1088 C1090 1.394 . S
C1088 H1104 0.931 . S
C1089 C1088 1.391 . S
C1089 C1093 1.369 1_554 S
C1090 C1088 1.394 . S
C1090 C1091 1.366 1_554 S
C1090 C1094 1.531 . S
C1091 C1090 1.366 1_556 S
C1091 C1092 1.412 . S
C1091 C1099 1.499 1_556 S
C1092 C1091 1.412 . S
C1092 C1093 1.398 . S
C1092 C1095 1.511 . S
C1093 C1089 1.369 1_556 S
C1093 C1092 1.398 . S
C1093 H1105 0.936 . S
C1094 C1090 1.531 . S
C1094 H1106 0.960 1_554 S
C1094 H1107 0.962 . S
C1094 H1108 0.960 1_554 S
C1095 C1092 1.511 . S
C1095 H1109 0.967 . S
C1095 H1110 0.937 1_556 S
C1095 H1111 0.961 . S
C1096 C1097 1.370 . S
C1096 C1098 1.363 . S
C1096 H1112 0.931 . S
C1097 C1096 1.370 . S
C1097 C1101 1.408 1_554 S
C1098 C1096 1.363 . S
C1098 C1099 1.424 . S
C1098 C1102 1.524 . S
C1099 C1091 1.499 1_554 S
C1099 C1098 1.424 . S
C1099 C1100 1.354 1_554 S
C1100 C1099 1.354 1_556 S
C1100 C1101 1.404 . S
C1100 C1103 1.539 . S
C1101 C1097 1.408 1_556 S
C1101 C1100 1.404 . S
C1101 H1113 0.930 . S
C1102 C1098 1.524 . S
C1102 H1114 0.956 . S
C1102 H1115 0.961 . S
C1102 H1116 0.961 . S
C1103 C1100 1.539 . S
C1103 H1117 0.958 . S
C1103 H1118 0.961 . S
C1103 H1119 0.960 . S
H1104 C1088 0.931 . S
H1105 C1093 0.936 . S
H1106 C1094 0.960 1_556 S
H1107 C1094 0.962 . S
H1108 C1094 0.960 1_556 S
H1109 C1095 0.967 . S
H1110 C1095 0.937 1_554 S
H1111 C1095 0.961 . S
H1112 C1096 0.931 . S
H1113 C1101 0.930 . S
H1114 C1102 0.956 . S
H1115 C1102 0.961 . S
H1116 C1102 0.961 . S
H1117 C1103 0.958 . S
H1118 C1103 0.961 . S
H1119 C1103 0.960 . S
C1120 C1121 1.391 . S
C1120 C1122 1.394 . S
C1120 H1136 0.931 . S
C1121 C1120 1.391 . S
C1121 C1125 1.376 . S
C1122 C1120 1.394 . S
C1122 C1123 1.369 . S
C1122 C1126 1.531 . S
C1123 C1122 1.369 . S
C1123 C1124 1.410 . S
C1123 C1131 1.503 . S
C1124 C1123 1.410 . S
C1124 C1125 1.392 . S
C1124 C1127 1.511 . S
C1125 C1121 1.376 . S
C1125 C1124 1.392 . S
C1125 H1137 0.929 . S
C1126 C1122 1.531 . S
C1126 H1138 0.960 . S
C1126 H1139 0.962 . S
C1126 H1140 0.960 . S
C1127 C1124 1.511 . S
C1127 H1141 0.961 . S
C1127 H1142 0.961 . S
C1127 H1143 0.961 . S
C1128 C1129 1.370 . S
C1128 C1130 1.363 . S
C1128 H1144 0.931 . S
C1129 C1128 1.370 . S
C1129 C1133 1.408 . S
C1130 C1128 1.363 . S
C1130 C1131 1.370 . S
C1130 C1134 1.524 . S
C1131 C1123 1.503 . S
C1131 C1130 1.370 . S
C1131 C1132 1.403 . S
C1132 C1131 1.403 . S
C1132 C1133 1.404 . S
C1132 C1135 1.539 . S
C1133 C1129 1.408 . S
C1133 C1132 1.404 . S
C1133 H1145 0.930 . S
C1134 C1130 1.524 . S
C1134 H1146 0.956 . S
C1134 H1147 0.961 . S
C1134 H1148 0.961 . S
C1135 C1132 1.539 . S
C1135 H1149 0.958 . S
C1135 H1150 0.961 . S
C1135 H1151 0.960 . S
H1136 C1120 0.931 . S
H1137 C1125 0.929 . S
H1138 C1126 0.960 . S
H1139 C1126 0.962 . S
H1140 C1126 0.960 . S
H1141 C1127 0.961 . S
H1142 C1127 0.961 . S
H1143 C1127 0.961 . S
H1144 C1128 0.931 . S
H1145 C1133 0.930 . S
H1146 C1134 0.956 . S
H1147 C1134 0.961 . S
H1148 C1134 0.961 . S
H1149 C1135 0.958 . S
H1150 C1135 0.961 . S
H1151 C1135 0.960 . S
C1152 C1153 1.391 . S
C1152 C1154 1.394 . S
C1152 H1168 0.931 . S
C1153 C1152 1.391 . S
C1153 C1157 1.376 . S
C1154 C1152 1.394 . S
C1154 C1155 1.369 . S
C1154 C1158 1.510 1_455 S
C1155 C1154 1.369 . S
C1155 C1156 1.410 . S
C1155 C1163 1.503 . S
C1156 C1155 1.410 . S
C1156 C1157 1.392 . S
C1156 C1159 1.511 . S
C1157 C1153 1.376 . S
C1157 C1156 1.392 . S
C1157 H1169 0.929 . S
C1158 C1154 1.510 1_655 S
C1158 H1170 0.996 . S
C1158 H1171 0.904 1_655 S
C1158 H1172 1.009 . S
C1159 C1156 1.511 . S
C1159 H1173 0.961 . S
C1159 H1174 0.961 . S
C1159 H1175 0.961 . S
C1160 C1161 1.370 . S
C1160 C1162 1.363 . S
C1160 H1176 0.931 . S
C1161 C1160 1.370 . S
C1161 C1165 1.408 1_455 S
C1162 C1160 1.363 . S
C1162 C1163 1.370 . S
C1162 C1166 1.524 . S
C1163 C1155 1.503 . S
C1163 C1162 1.370 . S
C1163 C1164 1.403 1_455 S
C1164 C1163 1.403 1_655 S
C1164 C1165 1.404 . S
C1164 C1167 1.539 . S
C1165 C1161 1.408 1_655 S
C1165 C1164 1.404 . S
C1165 H1177 0.930 . S
C1166 C1162 1.524 . S
C1166 H1178 0.956 . S
C1166 H1179 0.961 . S
C1166 H1180 0.961 . S
C1167 C1164 1.539 . S
C1167 H1181 0.958 . S
C1167 H1182 0.961 . S
C1167 H1183 0.960 . S
H1168 C1152 0.931 . S
H1169 C1157 0.929 . S
H1170 C1158 0.996 . S
H1171 C1158 0.904 1_455 S
H1172 C1158 1.009 . S
H1173 C1159 0.961 . S
H1174 C1159 0.961 . S
H1175 C1159 0.961 . S
H1176 C1160 0.931 . S
H1177 C1165 0.930 . S
H1178 C1166 0.956 . S
H1179 C1166 0.961 . S
H1180 C1166 0.961 . S
H1181 C1167 0.958 . S
H1182 C1167 0.961 . S
H1183 C1167 0.960 . S
C1184 C1185 1.391 . S
C1184 C1186 1.394 . S
C1184 H1200 0.931 . S
C1185 C1184 1.391 . S
C1185 C1189 1.376 . S
C1186 C1184 1.394 . S
C1186 C1187 1.369 . S
C1186 C1190 1.531 . S
C1187 C1186 1.369 . S
C1187 C1188 1.410 . S
C1187 C1195 1.503 . S
C1188 C1187 1.410 . S
C1188 C1189 1.392 . S
C1188 C1191 1.511 . S
C1189 C1185 1.376 . S
C1189 C1188 1.392 . S
C1189 H1201 0.929 . S
C1190 C1186 1.531 . S
C1190 H1202 0.960 . S
C1190 H1203 0.962 . S
C1190 H1204 0.960 . S
C1191 C1188 1.511 . S
C1191 H1205 0.961 . S
C1191 H1206 0.961 . S
C1191 H1207 0.961 . S
C1192 C1193 1.370 . S
C1192 C1194 1.363 . S
C1192 H1208 0.931 . S
C1193 C1192 1.370 . S
C1193 C1197 1.408 . S
C1194 C1192 1.363 . S
C1194 C1195 1.370 . S
C1194 C1198 1.524 . S
C1195 C1187 1.503 . S
C1195 C1194 1.370 . S
C1195 C1196 1.403 . S
C1196 C1195 1.403 . S
C1196 C1197 1.404 . S
C1196 C1199 1.539 . S
C1197 C1193 1.408 . S
C1197 C1196 1.404 . S
C1197 H1209 0.930 . S
C1198 C1194 1.524 . S
C1198 H1210 0.956 . S
C1198 H1211 0.961 . S
C1198 H1212 0.961 . S
C1199 C1196 1.539 . S
C1199 H1213 0.958 . S
C1199 H1214 0.961 . S
C1199 H1215 0.960 . S
H1200 C1184 0.931 . S
H1201 C1189 0.929 . S
H1202 C1190 0.960 . S
H1203 C1190 0.962 . S
H1204 C1190 0.960 . S
H1205 C1191 0.961 . S
H1206 C1191 0.961 . S
H1207 C1191 0.961 . S
H1208 C1192 0.931 . S
H1209 C1197 0.930 . S
H1210 C1198 0.956 . S
H1211 C1198 0.961 . S
H1212 C1198 0.961 . S
H1213 C1199 0.958 . S
H1214 C1199 0.961 . S
H1215 C1199 0.960 . S
C1216 C1217 1.391 . S
C1216 C1218 1.394 . S
C1216 H1232 0.931 . S
C1217 C1216 1.391 . S
C1217 C1221 1.376 . S
C1218 C1216 1.394 . S
C1218 C1219 1.369 . S
C1218 C1222 1.531 . S
C1219 C1218 1.369 . S
C1219 C1220 1.410 . S
C1219 C1227 1.503 . S
C1220 C1219 1.410 . S
C1220 C1221 1.392 . S
C1220 C1223 1.511 . S
C1221 C1217 1.376 . S
C1221 C1220 1.392 . S
C1221 H1233 0.929 . S
C1222 C1218 1.531 . S
C1222 H1234 0.960 . S
C1222 H1235 0.962 . S
C1222 H1236 0.960 . S
C1223 C1220 1.511 . S
C1223 H1237 0.961 . S
C1223 H1238 0.961 . S
C1223 H1239 0.961 . S
C1224 C1225 1.370 . S
C1224 C1226 1.363 . S
C1224 H1240 0.931 . S
C1225 C1224 1.370 . S
C1225 C1229 1.408 . S
C1226 C1224 1.363 . S
C1226 C1227 1.370 . S
C1226 C1230 1.524 . S
C1227 C1219 1.503 . S
C1227 C1226 1.370 . S
C1227 C1228 1.403 . S
C1228 C1227 1.403 . S
C1228 C1229 1.404 . S
C1228 C1231 1.539 . S
C1229 C1225 1.408 . S
C1229 C1228 1.404 . S
C1229 H1241 0.930 . S
C1230 C1226 1.524 . S
C1230 H1242 0.956 . S
C1230 H1243 0.961 . S
C1230 H1244 0.961 . S
C1231 C1228 1.539 . S
C1231 H1245 0.958 . S
C1231 H1246 0.961 . S
C1231 H1247 0.960 . S
H1232 C1216 0.931 . S
H1233 C1221 0.929 . S
H1234 C1222 0.960 . S
H1235 C1222 0.962 . S
H1236 C1222 0.960 . S
H1237 C1223 0.961 . S
H1238 C1223 0.961 . S
H1239 C1223 0.961 . S
H1240 C1224 0.931 . S
H1241 C1229 0.930 . S
H1242 C1230 0.956 . S
H1243 C1230 0.961 . S
H1244 C1230 0.961 . S
H1245 C1231 0.958 . S
H1246 C1231 0.961 . S
H1247 C1231 0.960 . S
C1248 C1249 1.391 . S
C1248 C1250 1.394 . S
C1248 H1264 0.931 . S
C1249 C1248 1.391 . S
C1249 C1253 1.376 . S
C1250 C1248 1.394 . S
C1250 C1251 1.369 . S
C1250 C1254 1.531 . S
C1251 C1250 1.369 . S
C1251 C1252 1.410 . S
C1251 C1259 1.503 . S
C1252 C1251 1.410 . S
C1252 C1253 1.392 . S
C1252 C1255 1.511 . S
C1253 C1249 1.376 . S
C1253 C1252 1.392 . S
C1253 H1265 0.929 . S
C1254 C1250 1.531 . S
C1254 H1266 0.960 . S
C1254 H1267 0.962 . S
C1254 H1268 0.960 . S
C1255 C1252 1.511 . S
C1255 H1269 0.961 1_545 S
C1255 H1270 0.958 . S
C1255 H1271 0.961 . S
C1256 C1257 1.337 1_565 S
C1256 C1258 1.363 . S
C1256 H1272 0.966 . S
C1257 C1256 1.337 1_545 S
C1257 C1261 1.408 . S
C1258 C1256 1.363 . S
C1258 C1259 1.337 1_565 S
C1258 C1262 1.558 . S
C1259 C1251 1.503 . S
C1259 C1258 1.337 1_545 S
C1259 C1260 1.403 . S
C1260 C1259 1.403 . S
C1260 C1261 1.404 . S
C1260 C1263 1.539 . S
C1261 C1257 1.408 . S
C1261 C1260 1.404 . S
C1261 H1273 0.930 . S
C1262 C1258 1.558 . S
C1262 H1274 0.956 . S
C1262 H1275 0.961 . S
C1262 H1276 0.961 . S
C1263 C1260 1.539 . S
C1263 H1277 0.958 . S
C1263 H1278 0.961 . S
C1263 H1279 0.960 . S
H1264 C1248 0.931 . S
H1265 C1253 0.929 . S
H1266 C1254 0.960 . S
H1267 C1254 0.962 . S
H1268 C1254 0.960 . S
H1269 C1255 0.961 1_565 S
H1270 C1255 0.958 . S
H1271 C1255 0.961 . S
H1272 C1256 0.966 . S
H1273 C1261 0.930 . S
H1274 C1262 0.956 . S
H1275 C1262 0.961 . S
H1276 C1262 0.961 . S
H1277 C1263 0.958 . S
H1278 C1263 0.961 . S
H1279 C1263 0.960 . S
C1280 C1281 1.391 . S
C1280 C1282 1.394 . S
C1280 H1296 0.931 . S
C1281 C1280 1.391 . S
C1281 C1285 1.376 1_554 S
C1282 C1280 1.394 . S
C1282 C1283 1.369 . S
C1282 C1286 1.531 . S
C1283 C1282 1.369 . S
C1283 C1284 1.410 1_554 S
C1283 C1291 1.503 . S
C1284 C1283 1.410 1_556 S
C1284 C1285 1.392 . S
C1284 C1287 1.511 . S
C1285 C1281 1.376 1_556 S
C1285 C1284 1.392 . S
C1285 H1297 0.929 . S
C1286 C1282 1.531 . S
C1286 H1298 0.960 . S
C1286 H1299 0.962 . S
C1286 H1300 0.960 . S
C1287 C1284 1.511 . S
C1287 H1301 0.961 . S
C1287 H1302 0.961 . S
C1287 H1303 0.961 . S
C1288 C1289 1.370 1_556 S
C1288 C1290 1.363 . S
C1288 H1304 0.931 . S
C1289 C1288 1.370 1_554 S
C1289 C1293 1.408 . S
C1290 C1288 1.363 . S
C1290 C1291 1.370 1_556 S
C1290 C1294 1.524 . S
C1291 C1283 1.503 . S
C1291 C1290 1.370 1_554 S
C1291 C1292 1.403 . S
C1292 C1291 1.403 . S
C1292 C1293 1.404 . S
C1292 C1295 1.539 . S
C1293 C1289 1.408 . S
C1293 C1292 1.404 . S
C1293 H1305 0.930 . S
C1294 C1290 1.524 . S
C1294 H1306 0.956 . S
C1294 H1307 0.961 . S
C1294 H1308 0.961 . S
C1295 C1292 1.539 . S
C1295 H1309 0.958 . S
C1295 H1310 0.961 . S
C1295 H1311 0.960 . S
H1296 C1280 0.931 . S
H1297 C1285 0.929 . S
H1298 C1286 0.960 . S
H1299 C1286 0.962 . S
H1300 C1286 0.960 . S
H1301 C1287 0.961 . S
H1302 C1287 0.961 . S
H1303 C1287 0.961 . S
H1304 C1288 0.931 . S
H1305 C1293 0.930 . S
H1306 C1294 0.956 . S
H1307 C1294 0.961 . S
H1308 C1294 0.961 . S
H1309 C1295 0.958 . S
H1310 C1295 0.961 . S
H1311 C1295 0.960 . S
C1312 C1313 1.391 . S
C1312 C1314 1.394 . S
C1312 H1328 0.931 . S
C1313 C1312 1.391 . S
C1313 C1317 1.376 . S
C1314 C1312 1.394 . S
C1314 C1315 1.369 . S
C1314 C1318 1.531 . S
C1315 C1314 1.369 . S
C1315 C1316 1.410 . S
C1315 C1323 1.503 . S
C1316 C1315 1.410 . S
C1316 C1317 1.392 . S
C1316 C1319 1.511 . S
C1317 C1313 1.376 . S
C1317 C1316 1.392 . S
C1317 H1329 0.929 . S
C1318 C1314 1.531 . S
C1318 H1330 0.960 . S
C1318 H1331 0.962 . S
C1318 H1332 0.960 . S
C1319 C1316 1.511 . S
C1319 H1333 0.961 . S
C1319 H1334 0.961 . S
C1319 H1335 0.961 . S
C1320 C1321 1.370 . S
C1320 C1322 1.363 . S
C1320 H1336 0.931 . S
C1321 C1320 1.370 . S
C1321 C1325 1.408 . S
C1322 C1320 1.363 . S
C1322 C1323 1.370 . S
C1322 C1326 1.524 . S
C1323 C1315 1.503 . S
C1323 C1322 1.370 . S
C1323 C1324 1.403 . S
C1324 C1323 1.403 . S
C1324 C1325 1.404 . S
C1324 C1327 1.539 . S
C1325 C1321 1.408 . S
C1325 C1324 1.404 . S
C1325 H1337 0.930 . S
C1326 C1322 1.524 . S
C1326 H1338 0.956 . S
C1326 H1339 0.961 . S
C1326 H1340 0.961 . S
C1327 C1324 1.539 . S
C1327 H1341 0.958 . S
C1327 H1342 0.961 . S
C1327 H1343 0.960 . S
H1328 C1312 0.931 . S
H1329 C1317 0.929 . S
H1330 C1318 0.960 . S
H1331 C1318 0.962 . S
H1332 C1318 0.960 . S
H1333 C1319 0.961 . S
H1334 C1319 0.961 . S
H1335 C1319 0.961 . S
H1336 C1320 0.931 . S
H1337 C1325 0.930 . S
H1338 C1326 0.956 . S
H1339 C1326 0.961 . S
H1340 C1326 0.961 . S
H1341 C1327 0.958 . S
H1342 C1327 0.961 . S
H1343 C1327 0.960 . S
C1344 C1345 1.391 . S
C1344 C1346 1.394 . S
C1344 H1360 0.931 . S
C1345 C1344 1.391 . S
C1345 C1349 1.376 . S
C1346 C1344 1.394 . S
C1346 C1347 1.369 . S
C1346 C1350 1.531 . S
C1347 C1346 1.369 . S
C1347 C1348 1.410 . S
C1347 C1355 1.503 . S
C1348 C1347 1.410 . S
C1348 C1349 1.392 . S
C1348 C1351 1.511 . S
C1349 C1345 1.376 . S
C1349 C1348 1.392 . S
C1349 H1361 0.929 . S
C1350 C1346 1.531 . S
C1350 H1362 0.960 . S
C1350 H1363 0.962 . S
C1350 H1364 0.960 . S
C1351 C1348 1.511 . S
C1351 H1365 0.961 . S
C1351 H1366 0.961 . S
C1351 H1367 0.961 . S
C1352 C1353 1.370 . S
C1352 C1354 1.363 . S
C1352 H1368 0.931 . S
C1353 C1352 1.370 . S
C1353 C1357 1.408 . S
C1354 C1352 1.363 . S
C1354 C1355 1.370 . S
C1354 C1358 1.524 . S
C1355 C1347 1.503 . S
C1355 C1354 1.370 . S
C1355 C1356 1.403 . S
C1356 C1355 1.403 . S
C1356 C1357 1.404 . S
C1356 C1359 1.539 . S
C1357 C1353 1.408 . S
C1357 C1356 1.404 . S
C1357 H1369 0.930 . S
C1358 C1354 1.524 . S
C1358 H1370 0.956 . S
C1358 H1371 0.961 . S
C1358 H1372 0.961 . S
C1359 C1356 1.539 . S
C1359 H1373 0.958 . S
C1359 H1374 0.961 . S
C1359 H1375 0.960 . S
H1360 C1344 0.931 . S
H1361 C1349 0.929 . S
H1362 C1350 0.960 . S
H1363 C1350 0.962 . S
H1364 C1350 0.960 . S
H1365 C1351 0.961 . S
H1366 C1351 0.961 . S
H1367 C1351 0.961 . S
H1368 C1352 0.931 . S
H1369 C1357 0.930 . S
H1370 C1358 0.956 . S
H1371 C1358 0.961 . S
H1372 C1358 0.961 . S
H1373 C1359 0.958 . S
H1374 C1359 0.961 . S
H1375 C1359 0.960 . S
C1376 C1377 1.391 . S
C1376 C1378 1.394 . S
C1376 H1392 0.931 . S
C1377 C1376 1.391 . S
C1377 C1381 1.376 . S
C1378 C1376 1.394 . S
C1378 C1379 1.369 . S
C1378 C1382 1.531 . S
C1379 C1378 1.369 . S
C1379 C1380 1.410 . S
C1379 C1387 1.503 . S
C1380 C1379 1.410 . S
C1380 C1381 1.392 . S
C1380 C1383 1.511 . S
C1381 C1377 1.376 . S
C1381 C1380 1.392 . S
C1381 H1393 0.929 . S
C1382 C1378 1.531 . S
C1382 H1394 0.960 . S
C1382 H1395 0.962 . S
C1382 H1396 0.960 . S
C1383 C1380 1.511 . S
C1383 H1397 0.961 . S
C1383 H1398 0.961 . S
C1383 H1399 0.961 . S
C1384 C1385 1.370 . S
C1384 C1386 1.363 . S
C1384 H1400 0.931 . S
C1385 C1384 1.370 . S
C1385 C1389 1.408 . S
C1386 C1384 1.363 . S
C1386 C1387 1.370 . S
C1386 C1390 1.524 . S
C1387 C1379 1.503 . S
C1387 C1386 1.370 . S
C1387 C1388 1.403 . S
C1388 C1387 1.403 . S
C1388 C1389 1.404 . S
C1388 C1391 1.539 . S
C1389 C1385 1.408 . S
C1389 C1388 1.404 . S
C1389 H1401 0.930 . S
C1390 C1386 1.524 . S
C1390 H1402 0.956 . S
C1390 H1403 0.961 . S
C1390 H1404 0.961 . S
C1391 C1388 1.539 . S
C1391 H1405 0.958 . S
C1391 H1406 0.961 . S
C1391 H1407 0.960 . S
H1392 C1376 0.931 . S
H1393 C1381 0.929 . S
H1394 C1382 0.960 . S
H1395 C1382 0.962 . S
H1396 C1382 0.960 . S
H1397 C1383 0.961 . S
H1398 C1383 0.961 . S
H1399 C1383 0.961 . S
H1400 C1384 0.931 . S
H1401 C1389 0.930 . S
H1402 C1390 0.956 . S
H1403 C1390 0.961 . S
H1404 C1390 0.961 . S
H1405 C1391 0.958 . S
H1406 C1391 0.961 . S
H1407 C1391 0.960 . S
C1408 C1409 1.391 . S
C1408 C1410 1.394 . S
C1408 H1424 0.931 . S
C1409 C1408 1.391 . S
C1409 C1413 1.376 . S
C1410 C1408 1.394 . S
C1410 C1411 1.369 . S
C1410 C1414 1.531 . S
C1411 C1410 1.369 . S
C1411 C1412 1.410 . S
C1411 C1419 1.503 . S
C1412 C1411 1.410 . S
C1412 C1413 1.392 . S
C1412 C1415 1.511 . S
C1413 C1409 1.376 . S
C1413 C1412 1.392 . S
C1413 H1425 0.929 . S
C1414 C1410 1.531 . S
C1414 H1426 0.960 . S
C1414 H1427 0.962 . S
C1414 H1428 0.960 . S
C1415 C1412 1.511 . S
C1415 H1429 0.961 . S
C1415 H1430 0.961 . S
C1415 H1431 0.961 . S
C1416 C1417 1.370 . S
C1416 C1418 1.363 . S
C1416 H1432 0.931 . S
C1417 C1416 1.370 . S
C1417 C1421 1.408 . S
C1418 C1416 1.363 . S
C1418 C1419 1.370 . S
C1418 C1422 1.524 . S
C1419 C1411 1.503 . S
C1419 C1418 1.370 . S
C1419 C1420 1.403 . S
C1420 C1419 1.403 . S
C1420 C1421 1.404 . S
C1420 C1423 1.539 . S
C1421 C1417 1.408 . S
C1421 C1420 1.404 . S
C1421 H1433 0.930 . S
C1422 C1418 1.524 . S
C1422 H1434 0.956 . S
C1422 H1435 0.961 . S
C1422 H1436 0.961 . S
C1423 C1420 1.539 . S
C1423 H1437 0.958 . S
C1423 H1438 0.961 . S
C1423 H1439 0.960 . S
H1424 C1408 0.931 . S
H1425 C1413 0.929 . S
H1426 C1414 0.960 . S
H1427 C1414 0.962 . S
H1428 C1414 0.960 . S
H1429 C1415 0.961 . S
H1430 C1415 0.961 . S
H1431 C1415 0.961 . S
H1432 C1416 0.931 . S
H1433 C1421 0.930 . S
H1434 C1422 0.956 . S
H1435 C1422 0.961 . S
H1436 C1422 0.961 . S
H1437 C1423 0.958 . S
H1438 C1423 0.961 . S
H1439 C1423 0.960 . S
C1440 C1441 1.391 . S
C1440 C1442 1.394 . S
C1440 H1456 0.931 . S
C1441 C1440 1.391 . S
C1441 C1445 1.376 . S
C1442 C1440 1.394 . S
C1442 C1443 1.369 . S
C1442 C1446 1.531 . S
C1443 C1442 1.369 . S
C1443 C1444 1.410 . S
C1443 C1451 1.503 . S
C1444 C1443 1.410 . S
C1444 C1445 1.392 . S
C1444 C1447 1.511 . S
C1445 C1441 1.376 . S
C1445 C1444 1.392 . S
C1445 H1457 0.929 . S
C1446 C1442 1.531 . S
C1446 H1458 0.960 . S
C1446 H1459 0.962 . S
C1446 H1460 0.960 . S
C1447 C1444 1.511 . S
C1447 H1461 0.961 . S
C1447 H1462 0.961 . S
C1447 H1463 0.961 . S
C1448 C1449 1.370 . S
C1448 C1450 1.363 . S
C1448 H1464 0.931 . S
C1449 C1448 1.370 . S
C1449 C1453 1.408 . S
C1450 C1448 1.363 . S
C1450 C1451 1.370 . S
C1450 C1454 1.524 . S
C1451 C1443 1.503 . S
C1451 C1450 1.370 . S
C1451 C1452 1.403 . S
C1452 C1451 1.403 . S
C1452 C1453 1.404 . S
C1452 C1455 1.539 . S
C1453 C1449 1.408 . S
C1453 C1452 1.404 . S
C1453 H1465 0.930 . S
C1454 C1450 1.524 . S
C1454 H1466 0.956 . S
C1454 H1467 0.961 . S
C1454 H1468 0.961 . S
C1455 C1452 1.539 . S
C1455 H1469 0.958 . S
C1455 H1470 0.961 . S
C1455 H1471 0.960 . S
H1456 C1440 0.931 . S
H1457 C1445 0.929 . S
H1458 C1446 0.960 . S
H1459 C1446 0.962 . S
H1460 C1446 0.960 . S
H1461 C1447 0.961 . S
H1462 C1447 0.961 . S
H1463 C1447 0.961 . S
H1464 C1448 0.931 . S
H1465 C1453 0.930 . S
H1466 C1454 0.956 . S
H1467 C1454 0.961 . S
H1468 C1454 0.961 . S
H1469 C1455 0.958 . S
H1470 C1455 0.961 . S
H1471 C1455 0.960 . S
C1472 C1473 1.391 . S
C1472 C1474 1.394 . S
C1472 H1488 0.931 . S
C1473 C1472 1.391 . S
C1473 C1477 1.376 . S
C1474 C1472 1.394 . S
C1474 C1475 1.369 . S
C1474 C1478 1.531 . S
C1475 C1474 1.369 . S
C1475 C1476 1.410 . S
C1475 C1483 1.503 . S
C1476 C1475 1.410 . S
C1476 C1477 1.392 . S
C1476 C1479 1.511 . S
C1477 C1473 1.376 . S
C1477 C1476 1.392 . S
C1477 H1489 0.929 . S
C1478 C1474 1.531 . S
C1478 H1490 0.960 . S
C1478 H1491 0.962 . S
C1478 H1492 0.960 . S
C1479 C1476 1.511 . S
C1479 H1493 0.961 . S
C1479 H1494 0.961 . S
C1479 H1495 0.961 . S
C1480 C1481 1.370 . S
C1480 C1482 1.363 . S
C1480 H1496 0.931 . S
C1481 C1480 1.370 . S
C1481 C1485 1.408 . S
C1482 C1480 1.363 . S
C1482 C1483 1.370 . S
C1482 C1486 1.524 . S
C1483 C1475 1.503 . S
C1483 C1482 1.370 . S
C1483 C1484 1.403 . S
C1484 C1483 1.403 . S
C1484 C1485 1.404 . S
C1484 C1487 1.539 . S
C1485 C1481 1.408 . S
C1485 C1484 1.404 . S
C1485 H1497 0.930 . S
C1486 C1482 1.524 . S
C1486 H1498 0.956 . S
C1486 H1499 0.961 . S
C1486 H1500 0.961 . S
C1487 C1484 1.539 . S
C1487 H1501 0.958 . S
C1487 H1502 0.961 . S
C1487 H1503 0.960 . S
H1488 C1472 0.931 . S
H1489 C1477 0.929 . S
H1490 C1478 0.960 . S
H1491 C1478 0.962 . S
H1492 C1478 0.960 . S
H1493 C1479 0.961 . S
H1494 C1479 0.961 . S
H1495 C1479 0.961 . S
H1496 C1480 0.931 . S
H1497 C1485 0.930 . S
H1498 C1486 0.956 . S
H1499 C1486 0.961 . S
H1500 C1486 0.961 . S
H1501 C1487 0.958 . S
H1502 C1487 0.961 . S
H1503 C1487 0.960 . S
C1504 C1505 1.391 . S
C1504 C1506 1.394 . S
C1504 H1520 0.931 . S
C1505 C1504 1.391 . S
C1505 C1509 1.376 . S
C1506 C1504 1.394 . S
C1506 C1507 1.369 . S
C1506 C1510 1.531 . S
C1507 C1506 1.369 . S
C1507 C1508 1.410 . S
C1507 C1515 1.503 . S
C1508 C1507 1.410 . S
C1508 C1509 1.392 . S
C1508 C1511 1.511 . S
C1509 C1505 1.376 . S
C1509 C1508 1.392 . S
C1509 H1521 0.929 . S
C1510 C1506 1.531 . S
C1510 H1522 0.960 . S
C1510 H1523 0.962 . S
C1510 H1524 0.960 . S
C1511 C1508 1.511 . S
C1511 H1525 0.961 . S
C1511 H1526 0.961 . S
C1511 H1527 0.961 . S
C1512 C1513 1.370 . S
C1512 C1514 1.363 . S
C1512 H1528 0.931 . S
C1513 C1512 1.370 . S
C1513 C1517 1.408 . S
C1514 C1512 1.363 . S
C1514 C1515 1.370 . S
C1514 C1518 1.524 . S
C1515 C1507 1.503 . S
C1515 C1514 1.370 . S
C1515 C1516 1.403 . S
C1516 C1515 1.403 . S
C1516 C1517 1.404 . S
C1516 C1519 1.539 . S
C1517 C1513 1.408 . S
C1517 C1516 1.404 . S
C1517 H1529 0.930 . S
C1518 C1514 1.524 . S
C1518 H1530 0.956 . S
C1518 H1531 0.961 . S
C1518 H1532 0.961 . S
C1519 C1516 1.539 . S
C1519 H1533 0.958 . S
C1519 H1534 0.961 . S
C1519 H1535 0.960 . S
H1520 C1504 0.931 . S
H1521 C1509 0.929 . S
H1522 C1510 0.960 . S
H1523 C1510 0.962 . S
H1524 C1510 0.960 . S
H1525 C1511 0.961 . S
H1526 C1511 0.961 . S
H1527 C1511 0.961 . S
H1528 C1512 0.931 . S
H1529 C1517 0.930 . S
H1530 C1518 0.956 . S
H1531 C1518 0.961 . S
H1532 C1518 0.961 . S
H1533 C1519 0.958 . S
H1534 C1519 0.961 . S
H1535 C1519 0.960 . S
C1536 C1537 1.391 . S
C1536 C1538 1.394 . S
C1536 H1552 0.931 . S
C1537 C1536 1.391 . S
C1537 C1541 1.376 . S
C1538 C1536 1.394 . S
C1538 C1539 1.369 . S
C1538 C1542 1.531 . S
C1539 C1538 1.369 . S
C1539 C1540 1.410 . S
C1539 C1547 1.503 . S
C1540 C1539 1.410 . S
C1540 C1541 1.392 . S
C1540 C1543 1.511 . S
C1541 C1537 1.376 . S
C1541 C1540 1.392 . S
C1541 H1553 0.929 . S
C1542 C1538 1.531 . S
C1542 H1554 0.960 . S
C1542 H1555 0.962 . S
C1542 H1556 0.960 . S
C1543 C1540 1.511 . S
C1543 H1557 0.961 . S
C1543 H1558 0.961 . S
C1543 H1559 0.961 . S
C1544 C1545 1.370 . S
C1544 C1546 1.363 . S
C1544 H1560 0.931 . S
C1545 C1544 1.370 . S
C1545 C1549 1.408 . S
C1546 C1544 1.363 . S
C1546 C1547 1.370 . S
C1546 C1550 1.524 . S
C1547 C1539 1.503 . S
C1547 C1546 1.370 . S
C1547 C1548 1.403 . S
C1548 C1547 1.403 . S
C1548 C1549 1.404 . S
C1548 C1551 1.539 . S
C1549 C1545 1.408 . S
C1549 C1548 1.404 . S
C1549 H1561 0.930 . S
C1550 C1546 1.524 . S
C1550 H1562 0.956 . S
C1550 H1563 0.961 . S
C1550 H1564 0.961 . S
C1551 C1548 1.539 . S
C1551 H1565 0.958 . S
C1551 H1566 0.961 . S
C1551 H1567 0.960 . S
H1552 C1536 0.931 . S
H1553 C1541 0.929 . S
H1554 C1542 0.960 . S
H1555 C1542 0.962 . S
H1556 C1542 0.960 . S
H1557 C1543 0.961 . S
H1558 C1543 0.961 . S
H1559 C1543 0.961 . S
H1560 C1544 0.931 . S
H1561 C1549 0.930 . S
H1562 C1550 0.956 . S
H1563 C1550 0.961 . S
H1564 C1550 0.961 . S
H1565 C1551 0.958 . S
H1566 C1551 0.961 . S
H1567 C1551 0.960 . S
C1568 C1569 1.391 . S
C1568 C1570 1.394 . S
C1568 H1584 0.931 . S
C1569 C1568 1.391 . S
C1569 C1573 1.376 . S
C1570 C1568 1.394 . S
C1570 C1571 1.369 . S
C1570 C1574 1.531 . S
C1571 C1570 1.369 . S
C1571 C1572 1.410 . S
C1571 C1579 1.503 . S
C1572 C1571 1.410 . S
C1572 C1573 1.392 . S
C1572 C1575 1.511 . S
C1573 C1569 1.376 . S
C1573 C1572 1.392 . S
C1573 H1585 0.929 . S
C1574 C1570 1.531 . S
C1574 H1586 0.960 . S
C1574 H1587 0.962 . S
C1574 H1588 0.960 . S
C1575 C1572 1.511 . S
C1575 H1589 0.961 . S
C1575 H1590 0.961 . S
C1575 H1591 0.961 . S
C1576 C1577 1.370 . S
C1576 C1578 1.363 . S
C1576 H1592 0.931 . S
C1577 C1576 1.370 . S
C1577 C1581 1.408 . S
C1578 C1576 1.363 . S
C1578 C1579 1.370 . S
C1578 C1582 1.524 . S
C1579 C1571 1.503 . S
C1579 C1578 1.370 . S
C1579 C1580 1.403 . S
C1580 C1579 1.403 . S
C1580 C1581 1.404 . S
C1580 C1583 1.539 . S
C1581 C1577 1.408 . S
C1581 C1580 1.404 . S
C1581 H1593 0.930 . S
C1582 C1578 1.524 . S
C1582 H1594 0.956 . S
C1582 H1595 0.961 . S
C1582 H1596 0.961 . S
C1583 C1580 1.539 . S
C1583 H1597 0.958 . S
C1583 H1598 0.961 . S
C1583 H1599 0.960 . S
H1584 C1568 0.931 . S
H1585 C1573 0.929 . S
H1586 C1574 0.960 . S
H1587 C1574 0.962 . S
H1588 C1574 0.960 . S
H1589 C1575 0.961 . S
H1590 C1575 0.961 . S
H1591 C1575 0.961 . S
H1592 C1576 0.931 . S
H1593 C1581 0.930 . S
H1594 C1582 0.956 . S
H1595 C1582 0.961 . S
H1596 C1582 0.961 . S
H1597 C1583 0.958 . S
H1598 C1583 0.961 . S
H1599 C1583 0.960 . S
C1600 C1601 1.391 . S
C1600 C1602 1.394 . S
C1600 H1616 0.931 . S
C1601 C1600 1.391 . S
C1601 C1605 1.376 . S
C1602 C1600 1.394 . S
C1602 C1603 1.369 . S
C1602 C1606 1.531 . S
C1603 C1602 1.369 . S
C1603 C1604 1.410 . S
C1603 C1611 1.503 . S
C1604 C1603 1.410 . S
C1604 C1605 1.392 . S
C1604 C1607 1.511 . S
C1605 C1601 1.376 . S
C1605 C1604 1.392 . S
C1605 H1617 0.929 . S
C1606 C1602 1.531 . S
C1606 H1618 0.960 . S
C1606 H1619 0.962 . S
C1606 H1620 0.960 . S
C1607 C1604 1.511 . S
C1607 H1621 0.961 . S
C1607 H1622 0.961 . S
C1607 H1623 0.961 . S
C1608 C1609 1.370 . S
C1608 C1610 1.363 . S
C1608 H1624 0.931 . S
C1609 C1608 1.370 . S
C1609 C1613 1.408 . S
C1610 C1608 1.363 . S
C1610 C1611 1.370 . S
C1610 C1614 1.524 . S
C1611 C1603 1.503 . S
C1611 C1610 1.370 . S
C1611 C1612 1.403 . S
C1612 C1611 1.403 . S
C1612 C1613 1.404 . S
C1612 C1615 1.539 . S
C1613 C1609 1.408 . S
C1613 C1612 1.404 . S
C1613 H1625 0.930 . S
C1614 C1610 1.524 . S
C1614 H1626 0.956 . S
C1614 H1627 0.961 . S
C1614 H1628 0.961 . S
C1615 C1612 1.539 . S
C1615 H1629 0.958 . S
C1615 H1630 0.961 . S
C1615 H1631 0.960 . S
H1616 C1600 0.931 . S
H1617 C1605 0.929 . S
H1618 C1606 0.960 . S
H1619 C1606 0.962 . S
H1620 C1606 0.960 . S
H1621 C1607 0.961 . S
H1622 C1607 0.961 . S
H1623 C1607 0.961 . S
H1624 C1608 0.931 . S
H1625 C1613 0.930 . S
H1626 C1614 0.956 . S
H1627 C1614 0.961 . S
H1628 C1614 0.961 . S
H1629 C1615 0.958 . S
H1630 C1615 0.961 . S
H1631 C1615 0.960 . S
C1632 C1633 1.391 . S
C1632 C1634 1.394 . S
C1632 H1648 0.931 . S
C1633 C1632 1.391 . S
C1633 C1637 1.376 . S
C1634 C1632 1.394 . S
C1634 C1635 1.369 . S
C1634 C1638 1.531 . S
C1635 C1634 1.369 . S
C1635 C1636 1.410 . S
C1635 C1643 1.503 . S
C1636 C1635 1.410 . S
C1636 C1637 1.392 . S
C1636 C1639 1.511 . S
C1637 C1633 1.376 . S
C1637 C1636 1.392 . S
C1637 H1649 0.929 . S
C1638 C1634 1.531 . S
C1638 H1650 0.960 . S
C1638 H1651 0.962 . S
C1638 H1652 0.960 . S
C1639 C1636 1.511 . S
C1639 H1653 0.961 . S
C1639 H1654 0.961 . S
C1639 H1655 0.961 . S
C1640 C1641 1.370 . S
C1640 C1642 1.363 . S
C1640 H1656 0.931 . S
C1641 C1640 1.370 . S
C1641 C1645 1.408 . S
C1642 C1640 1.363 . S
C1642 C1643 1.370 . S
C1642 C1646 1.524 . S
C1643 C1635 1.503 . S
C1643 C1642 1.370 . S
C1643 C1644 1.403 . S
C1644 C1643 1.403 . S
C1644 C1645 1.404 . S
C1644 C1647 1.539 . S
C1645 C1641 1.408 . S
C1645 C1644 1.404 . S
C1645 H1657 0.930 . S
C1646 C1642 1.524 . S
C1646 H1658 0.956 . S
C1646 H1659 0.961 . S
C1646 H1660 0.961 . S
C1647 C1644 1.539 . S
C1647 H1661 0.958 . S
C1647 H1662 0.961 . S
C1647 H1663 0.960 . S
H1648 C1632 0.931 . S
H1649 C1637 0.929 . S
H1650 C1638 0.960 . S
H1651 C1638 0.962 . S
H1652 C1638 0.960 . S
H1653 C1639 0.961 . S
H1654 C1639 0.961 . S
H1655 C1639 0.961 . S
H1656 C1640 0.931 . S
H1657 C1645 0.930 . S
H1658 C1646 0.956 . S
H1659 C1646 0.961 . S
H1660 C1646 0.961 . S
H1661 C1647 0.958 . S
H1662 C1647 0.961 . S
H1663 C1647 0.960 . S
C1664 C1665 1.391 . S
C1664 C1666 1.394 . S
C1664 H1680 0.931 . S
C1665 C1664 1.391 . S
C1665 C1669 1.376 . S
C1666 C1664 1.394 . S
C1666 C1667 1.369 . S
C1666 C1670 1.531 . S
C1667 C1666 1.369 . S
C1667 C1668 1.410 . S
C1667 C1675 1.503 . S
C1668 C1667 1.410 . S
C1668 C1669 1.392 . S
C1668 C1671 1.511 . S
C1669 C1665 1.376 . S
C1669 C1668 1.392 . S
C1669 H1681 0.929 . S
C1670 C1666 1.531 . S
C1670 H1682 0.960 . S
C1670 H1683 0.962 . S
C1670 H1684 0.960 . S
C1671 C1668 1.511 . S
C1671 H1685 0.961 . S
C1671 H1686 0.961 . S
C1671 H1687 0.961 . S
C1672 C1673 1.370 . S
C1672 C1674 1.363 . S
C1672 H1688 0.931 . S
C1673 C1672 1.370 . S
C1673 C1677 1.408 . S
C1674 C1672 1.363 . S
C1674 C1675 1.370 . S
C1674 C1678 1.524 . S
C1675 C1667 1.503 . S
C1675 C1674 1.370 . S
C1675 C1676 1.403 . S
C1676 C1675 1.403 . S
C1676 C1677 1.404 . S
C1676 C1679 1.539 . S
C1677 C1673 1.408 . S
C1677 C1676 1.404 . S
C1677 H1689 0.930 . S
C1678 C1674 1.524 . S
C1678 H1690 0.956 . S
C1678 H1691 0.961 . S
C1678 H1692 0.961 . S
C1679 C1676 1.539 . S
C1679 H1693 0.958 . S
C1679 H1694 0.961 . S
C1679 H1695 0.960 . S
H1680 C1664 0.931 . S
H1681 C1669 0.929 . S
H1682 C1670 0.960 . S
H1683 C1670 0.962 . S
H1684 C1670 0.960 . S
H1685 C1671 0.961 . S
H1686 C1671 0.961 . S
H1687 C1671 0.961 . S
H1688 C1672 0.931 . S
H1689 C1677 0.930 . S
H1690 C1678 0.956 . S
H1691 C1678 0.961 . S
H1692 C1678 0.961 . S
H1693 C1679 0.958 . S
H1694 C1679 0.961 . S
H1695 C1679 0.960 . S
C1696 C1697 1.391 . S
C1696 C1698 1.394 . S
C1696 H1712 0.931 . S
C1697 C1696 1.391 . S
C1697 C1701 1.376 . S
C1698 C1696 1.394 . S
C1698 C1699 1.369 . S
C1698 C1702 1.531 . S
C1699 C1698 1.369 . S
C1699 C1700 1.410 . S
C1699 C1707 1.503 . S
C1700 C1699 1.410 . S
C1700 C1701 1.392 . S
C1700 C1703 1.511 . S
C1701 C1697 1.376 . S
C1701 C1700 1.392 . S
C1701 H1713 0.929 . S
C1702 C1698 1.531 . S
C1702 H1714 0.960 . S
C1702 H1715 0.962 . S
C1702 H1716 0.960 . S
C1703 C1700 1.511 . S
C1703 H1717 0.961 . S
C1703 H1718 0.961 . S
C1703 H1719 0.961 . S
C1704 C1705 1.370 . S
C1704 C1706 1.363 . S
C1704 H1720 0.931 . S
C1705 C1704 1.370 . S
C1705 C1709 1.408 . S
C1706 C1704 1.363 . S
C1706 C1707 1.370 . S
C1706 C1710 1.524 . S
C1707 C1699 1.503 . S
C1707 C1706 1.370 . S
C1707 C1708 1.403 . S
C1708 C1707 1.403 . S
C1708 C1709 1.404 . S
C1708 C1711 1.539 . S
C1709 C1705 1.408 . S
C1709 C1708 1.404 . S
C1709 H1721 0.930 . S
C1710 C1706 1.524 . S
C1710 H1722 0.956 . S
C1710 H1723 0.961 . S
C1710 H1724 0.961 . S
C1711 C1708 1.539 . S
C1711 H1725 0.958 . S
C1711 H1726 0.961 . S
C1711 H1727 0.960 . S
H1712 C1696 0.931 . S
H1713 C1701 0.929 . S
H1714 C1702 0.960 . S
H1715 C1702 0.962 . S
H1716 C1702 0.960 . S
H1717 C1703 0.961 . S
H1718 C1703 0.961 . S
H1719 C1703 0.961 . S
H1720 C1704 0.931 . S
H1721 C1709 0.930 . S
H1722 C1710 0.956 . S
H1723 C1710 0.961 . S
H1724 C1710 0.961 . S
H1725 C1711 0.958 . S
H1726 C1711 0.961 . S
H1727 C1711 0.960 . S
C1728 C1729 1.391 . S
C1728 C1730 1.394 . S
C1728 H1744 0.931 . S
C1729 C1728 1.391 . S
C1729 C1733 1.376 . S
C1730 C1728 1.394 . S
C1730 C1731 1.369 . S
C1730 C1734 1.531 . S
C1731 C1730 1.369 . S
C1731 C1732 1.410 . S
C1731 C1739 1.503 . S
C1732 C1731 1.410 . S
C1732 C1733 1.392 . S
C1732 C1735 1.511 . S
C1733 C1729 1.376 . S
C1733 C1732 1.392 . S
C1733 H1745 0.929 . S
C1734 C1730 1.531 . S
C1734 H1746 0.960 . S
C1734 H1747 0.962 . S
C1734 H1748 0.960 . S
C1735 C1732 1.511 . S
C1735 H1749 0.961 . S
C1735 H1750 0.961 . S
C1735 H1751 0.961 . S
C1736 C1737 1.370 . S
C1736 C1738 1.363 . S
C1736 H1752 0.931 . S
C1737 C1736 1.370 . S
C1737 C1741 1.408 . S
C1738 C1736 1.363 . S
C1738 C1739 1.370 . S
C1738 C1742 1.524 . S
C1739 C1731 1.503 . S
C1739 C1738 1.370 . S
C1739 C1740 1.403 . S
C1740 C1739 1.403 . S
C1740 C1741 1.404 . S
C1740 C1743 1.539 . S
C1741 C1737 1.408 . S
C1741 C1740 1.404 . S
C1741 H1753 0.930 . S
C1742 C1738 1.524 . S
C1742 H1754 0.956 . S
C1742 H1755 0.961 . S
C1742 H1756 0.961 . S
C1743 C1740 1.539 . S
C1743 H1757 0.958 . S
C1743 H1758 0.961 . S
C1743 H1759 0.960 . S
H1744 C1728 0.931 . S
H1745 C1733 0.929 . S
H1746 C1734 0.960 . S
H1747 C1734 0.962 . S
H1748 C1734 0.960 . S
H1749 C1735 0.961 . S
H1750 C1735 0.961 . S
H1751 C1735 0.961 . S
H1752 C1736 0.931 . S
H1753 C1741 0.930 . S
H1754 C1742 0.956 . S
H1755 C1742 0.961 . S
H1756 C1742 0.961 . S
H1757 C1743 0.958 . S
H1758 C1743 0.961 . S
H1759 C1743 0.960 . S
C1760 C1761 1.391 . S
C1760 C1762 1.394 . S
C1760 H1776 0.931 . S
C1761 C1760 1.391 . S
C1761 C1765 1.376 . S
C1762 C1760 1.394 . S
C1762 C1763 1.369 . S
C1762 C1766 1.531 . S
C1763 C1762 1.369 . S
C1763 C1764 1.410 . S
C1763 C1771 1.503 . S
C1764 C1763 1.410 . S
C1764 C1765 1.392 . S
C1764 C1767 1.511 . S
C1765 C1761 1.376 . S
C1765 C1764 1.392 . S
C1765 H1777 0.929 . S
C1766 C1762 1.531 . S
C1766 H1778 0.960 . S
C1766 H1779 0.962 . S
C1766 H1780 0.960 . S
C1767 C1764 1.511 . S
C1767 H1781 0.961 . S
C1767 H1782 0.961 . S
C1767 H1783 0.961 . S
C1768 C1769 1.370 . S
C1768 C1770 1.363 . S
C1768 H1784 0.931 . S
C1769 C1768 1.370 . S
C1769 C1773 1.408 . S
C1770 C1768 1.363 . S
C1770 C1771 1.370 . S
C1770 C1774 1.524 . S
C1771 C1763 1.503 . S
C1771 C1770 1.370 . S
C1771 C1772 1.403 . S
C1772 C1771 1.403 . S
C1772 C1773 1.404 . S
C1772 C1775 1.539 . S
C1773 C1769 1.408 . S
C1773 C1772 1.404 . S
C1773 H1785 0.930 . S
C1774 C1770 1.524 . S
C1774 H1786 0.956 . S
C1774 H1787 0.961 . S
C1774 H1788 0.961 . S
C1775 C1772 1.539 . S
C1775 H1789 0.958 . S
C1775 H1790 0.961 . S
C1775 H1791 0.960 . S
H1776 C1760 0.931 . S
H1777 C1765 0.929 . S
H1778 C1766 0.960 . S
H1779 C1766 0.962 . S
H1780 C1766 0.960 . S
H1781 C1767 0.961 . S
H1782 C1767 0.961 . S
H1783 C1767 0.961 . S
H1784 C1768 0.931 . S
H1785 C1773 0.930 . S
H1786 C1774 0.956 . S
H1787 C1774 0.961 . S
H1788 C1774 0.961 . S
H1789 C1775 0.958 . S
H1790 C1775 0.961 . S
H1791 C1775 0.960 . S
C1792 C1793 1.391 . S
C1792 C1794 1.394 . S
C1792 H1808 0.931 . S
C1793 C1792 1.391 . S
C1793 C1797 1.376 . S
C1794 C1792 1.394 . S
C1794 C1795 1.369 . S
C1794 C1798 1.531 . S
C1795 C1794 1.369 . S
C1795 C1796 1.410 . S
C1795 C1803 1.503 . S
C1796 C1795 1.410 . S
C1796 C1797 1.392 . S
C1796 C1799 1.511 . S
C1797 C1793 1.376 . S
C1797 C1796 1.392 . S
C1797 H1809 0.929 . S
C1798 C1794 1.531 . S
C1798 H1810 0.960 . S
C1798 H1811 0.962 . S
C1798 H1812 0.960 . S
C1799 C1796 1.511 . S
C1799 H1813 0.961 . S
C1799 H1814 0.961 . S
C1799 H1815 0.961 . S
C1800 C1801 1.370 . S
C1800 C1802 1.363 . S
C1800 H1816 0.931 . S
C1801 C1800 1.370 . S
C1801 C1805 1.408 . S
C1802 C1800 1.363 . S
C1802 C1803 1.370 . S
C1802 C1806 1.524 . S
C1803 C1795 1.503 . S
C1803 C1802 1.370 . S
C1803 C1804 1.403 . S
C1804 C1803 1.403 . S
C1804 C1805 1.404 . S
C1804 C1807 1.539 . S
C1805 C1801 1.408 . S
C1805 C1804 1.404 . S
C1805 H1817 0.930 . S
C1806 C1802 1.524 . S
C1806 H1818 0.956 . S
C1806 H1819 0.961 . S
C1806 H1820 0.961 . S
C1807 C1804 1.539 . S
C1807 H1821 0.958 . S
C1807 H1822 0.961 . S
C1807 H1823 0.960 . S
H1808 C1792 0.931 . S
H1809 C1797 0.929 . S
H1810 C1798 0.960 . S
H1811 C1798 0.962 . S
H1812 C1798 0.960 . S
H1813 C1799 0.961 . S
H1814 C1799 0.961 . S
H1815 C1799 0.961 . S
H1816 C1800 0.931 . S
H1817 C1805 0.930 . S
H1818 C1806 0.956 . S
H1819 C1806 0.961 . S
H1820 C1806 0.961 . S
H1821 C1807 0.958 . S
H1822 C1807 0.961 . S
H1823 C1807 0.960 . S
C1824 C1825 1.391 . S
C1824 C1826 1.394 . S
C1824 H1840 0.931 . S
C1825 C1824 1.391 . S
C1825 C1829 1.376 . S
C1826 C1824 1.394 . S
C1826 C1827 1.369 . S
C1826 C1830 1.531 . S
C1827 C1826 1.369 . S
C1827 C1828 1.410 . S
C1827 C1835 1.503 . S
C1828 C1827 1.410 . S
C1828 C1829 1.392 . S
C1828 C1831 1.511 . S
C1829 C1825 1.376 . S
C1829 C1828 1.392 . S
C1829 H1841 0.929 . S
C1830 C1826 1.531 . S
C1830 H1842 0.960 . S
C1830 H1843 0.962 . S
C1830 H1844 0.960 . S
C1831 C1828 1.511 . S
C1831 H1845 0.961 . S
C1831 H1846 0.961 . S
C1831 H1847 0.961 . S
C1832 C1833 1.370 . S
C1832 C1834 1.363 . S
C1832 H1848 0.931 . S
C1833 C1832 1.370 . S
C1833 C1837 1.408 . S
C1834 C1832 1.363 . S
C1834 C1835 1.370 . S
C1834 C1838 1.524 . S
C1835 C1827 1.503 . S
C1835 C1834 1.370 . S
C1835 C1836 1.403 . S
C1836 C1835 1.403 . S
C1836 C1837 1.404 . S
C1836 C1839 1.539 . S
C1837 C1833 1.408 . S
C1837 C1836 1.404 . S
C1837 H1849 0.930 . S
C1838 C1834 1.524 . S
C1838 H1850 0.956 . S
C1838 H1851 0.961 . S
C1838 H1852 0.961 . S
C1839 C1836 1.539 . S
C1839 H1853 0.958 . S
C1839 H1854 0.961 . S
C1839 H1855 0.960 . S
H1840 C1824 0.931 . S
H1841 C1829 0.929 . S
H1842 C1830 0.960 . S
H1843 C1830 0.962 . S
H1844 C1830 0.960 . S
H1845 C1831 0.961 . S
H1846 C1831 0.961 . S
H1847 C1831 0.961 . S
H1848 C1832 0.931 . S
H1849 C1837 0.930 . S
H1850 C1838 0.956 . S
H1851 C1838 0.961 . S
H1852 C1838 0.961 . S
H1853 C1839 0.958 . S
H1854 C1839 0.961 . S
H1855 C1839 0.960 . S
C1856 C1857 1.391 . S
C1856 C1858 1.394 . S
C1856 H1872 0.931 . S
C1857 C1856 1.391 . S
C1857 C1861 1.376 . S
C1858 C1856 1.394 . S
C1858 C1859 1.369 . S
C1858 C1862 1.531 . S
C1859 C1858 1.369 . S
C1859 C1860 1.410 . S
C1859 C1867 1.503 . S
C1860 C1859 1.410 . S
C1860 C1861 1.392 . S
C1860 C1863 1.511 . S
C1861 C1857 1.376 . S
C1861 C1860 1.392 . S
C1861 H1873 0.929 . S
C1862 C1858 1.531 . S
C1862 H1874 0.960 . S
C1862 H1875 0.962 . S
C1862 H1876 0.960 . S
C1863 C1860 1.511 . S
C1863 H1877 0.961 . S
C1863 H1878 0.961 . S
C1863 H1879 0.961 . S
C1864 C1865 1.370 . S
C1864 C1866 1.363 . S
C1864 H1880 0.931 . S
C1865 C1864 1.370 . S
C1865 C1869 1.408 . S
C1866 C1864 1.363 . S
C1866 C1867 1.370 . S
C1866 C1870 1.524 . S
C1867 C1859 1.503 . S
C1867 C1866 1.370 . S
C1867 C1868 1.403 . S
C1868 C1867 1.403 . S
C1868 C1869 1.404 . S
C1868 C1871 1.539 . S
C1869 C1865 1.408 . S
C1869 C1868 1.404 . S
C1869 H1881 0.930 . S
C1870 C1866 1.524 . S
C1870 H1882 0.956 . S
C1870 H1883 0.961 . S
C1870 H1884 0.961 . S
C1871 C1868 1.539 . S
C1871 H1885 0.958 . S
C1871 H1886 0.961 . S
C1871 H1887 0.960 . S
H1872 C1856 0.931 . S
H1873 C1861 0.929 . S
H1874 C1862 0.960 . S
H1875 C1862 0.962 . S
H1876 C1862 0.960 . S
H1877 C1863 0.961 . S
H1878 C1863 0.961 . S
H1879 C1863 0.961 . S
H1880 C1864 0.931 . S
H1881 C1869 0.930 . S
H1882 C1870 0.956 . S
H1883 C1870 0.961 . S
H1884 C1870 0.961 . S
H1885 C1871 0.958 . S
H1886 C1871 0.961 . S
H1887 C1871 0.960 . S
C1888 C1889 1.391 . S
C1888 C1890 1.394 . S
C1888 H1904 0.931 . S
C1889 C1888 1.391 . S
C1889 C1893 1.376 . S
C1890 C1888 1.394 . S
C1890 C1891 1.369 . S
C1890 C1894 1.531 . S
C1891 C1890 1.369 . S
C1891 C1892 1.410 . S
C1891 C1899 1.503 . S
C1892 C1891 1.410 . S
C1892 C1893 1.392 . S
C1892 C1895 1.511 . S
C1893 C1889 1.376 . S
C1893 C1892 1.392 . S
C1893 H1905 0.929 . S
C1894 C1890 1.531 . S
C1894 H1906 0.960 . S
C1894 H1907 0.962 . S
C1894 H1908 0.960 . S
C1895 C1892 1.511 . S
C1895 H1909 0.961 . S
C1895 H1910 0.961 . S
C1895 H1911 0.961 . S
C1896 C1897 1.370 . S
C1896 C1898 1.363 . S
C1896 H1912 0.931 . S
C1897 C1896 1.370 . S
C1897 C1901 1.408 . S
C1898 C1896 1.363 . S
C1898 C1899 1.370 . S
C1898 C1902 1.524 . S
C1899 C1891 1.503 . S
C1899 C1898 1.370 . S
C1899 C1900 1.403 . S
C1900 C1899 1.403 . S
C1900 C1901 1.404 . S
C1900 C1903 1.539 . S
C1901 C1897 1.408 . S
C1901 C1900 1.404 . S
C1901 H1913 0.930 . S
C1902 C1898 1.524 . S
C1902 H1914 0.956 . S
C1902 H1915 0.961 . S
C1902 H1916 0.961 . S
C1903 C1900 1.539 . S
C1903 H1917 0.958 . S
C1903 H1918 0.961 . S
C1903 H1919 0.960 . S
H1904 C1888 0.931 . S
H1905 C1893 0.929 . S
H1906 C1894 0.960 . S
H1907 C1894 0.962 . S
H1908 C1894 0.960 . S
H1909 C1895 0.961 . S
H1910 C1895 0.961 . S
H1911 C1895 0.961 . S
H1912 C1896 0.931 . S
H1913 C1901 0.930 . S
H1914 C1902 0.956 . S
H1915 C1902 0.961 . S
H1916 C1902 0.961 . S
H1917 C1903 0.958 . S
H1918 C1903 0.961 . S
H1919 C1903 0.960 . S
C1920 C1921 1.391 . S
C1920 C1922 1.394 . S
C1920 H1936 0.931 . S
C1921 C1920 1.391 . S
C1921 C1925 1.376 . S
C1922 C1920 1.394 . S
C1922 C1923 1.369 . S
C1922 C1926 1.531 . S
C1923 C1922 1.369 . S
C1923 C1924 1.410 . S
C1923 C1931 1.503 . S
C1924 C1923 1.410 . S
C1924 C1925 1.392 . S
C1924 C1927 1.511 . S
C1925 C1921 1.376 . S
C1925 C1924 1.392 . S
C1925 H1937 0.929 . S
C1926 C1922 1.531 . S
C1926 H1938 0.960 . S
C1926 H1939 0.962 . S
C1926 H1940 0.960 . S
C1927 C1924 1.511 . S
C1927 H1941 0.961 . S
C1927 H1942 0.961 . S
C1927 H1943 0.961 . S
C1928 C1929 1.370 . S
C1928 C1930 1.363 . S
C1928 H1944 0.931 . S
C1929 C1928 1.370 . S
C1929 C1933 1.408 . S
C1930 C1928 1.363 . S
C1930 C1931 1.370 . S
C1930 C1934 1.524 . S
C1931 C1923 1.503 . S
C1931 C1930 1.370 . S
C1931 C1932 1.403 . S
C1932 C1931 1.403 . S
C1932 C1933 1.404 . S
C1932 C1935 1.539 . S
C1933 C1929 1.408 . S
C1933 C1932 1.404 . S
C1933 H1945 0.930 . S
C1934 C1930 1.524 . S
C1934 H1946 0.956 . S
C1934 H1947 0.961 . S
C1934 H1948 0.961 . S
C1935 C1932 1.539 . S
C1935 H1949 0.958 . S
C1935 H1950 0.961 . S
C1935 H1951 0.960 . S
H1936 C1920 0.931 . S
H1937 C1925 0.929 . S
H1938 C1926 0.960 . S
H1939 C1926 0.962 . S
H1940 C1926 0.960 . S
H1941 C1927 0.961 . S
H1942 C1927 0.961 . S
H1943 C1927 0.961 . S
H1944 C1928 0.931 . S
H1945 C1933 0.930 . S
H1946 C1934 0.956 . S
H1947 C1934 0.961 . S
H1948 C1934 0.961 . S
H1949 C1935 0.958 . S
H1950 C1935 0.961 . S
H1951 C1935 0.960 . S
C1952 C1953 1.391 . S
C1952 C1954 1.394 . S
C1952 H1968 0.931 . S
C1953 C1952 1.391 . S
C1953 C1957 1.376 . S
C1954 C1952 1.394 . S
C1954 C1955 1.369 . S
C1954 C1958 1.531 . S
C1955 C1954 1.369 . S
C1955 C1956 1.410 . S
C1955 C1963 1.503 . S
C1956 C1955 1.410 . S
C1956 C1957 1.392 . S
C1956 C1959 1.511 . S
C1957 C1953 1.376 . S
C1957 C1956 1.392 . S
C1957 H1969 0.929 . S
C1958 C1954 1.531 . S
C1958 H1970 0.960 . S
C1958 H1971 0.962 . S
C1958 H1972 0.960 . S
C1959 C1956 1.511 . S
C1959 H1973 0.961 . S
C1959 H1974 0.961 . S
C1959 H1975 0.961 . S
C1960 C1961 1.370 . S
C1960 C1962 1.363 . S
C1960 H1976 0.931 . S
C1961 C1960 1.370 . S
C1961 C1965 1.408 . S
C1962 C1960 1.363 . S
C1962 C1963 1.370 . S
C1962 C1966 1.524 . S
C1963 C1955 1.503 . S
C1963 C1962 1.370 . S
C1963 C1964 1.403 . S
C1964 C1963 1.403 . S
C1964 C1965 1.404 . S
C1964 C1967 1.539 . S
C1965 C1961 1.408 . S
C1965 C1964 1.404 . S
C1965 H1977 0.930 . S
C1966 C1962 1.524 . S
C1966 H1978 0.956 . S
C1966 H1979 0.961 . S
C1966 H1980 0.961 . S
C1967 C1964 1.539 . S
C1967 H1981 0.958 . S
C1967 H1982 0.961 . S
C1967 H1983 0.960 . S
H1968 C1952 0.931 . S
H1969 C1957 0.929 . S
H1970 C1958 0.960 . S
H1971 C1958 0.962 . S
H1972 C1958 0.960 . S
H1973 C1959 0.961 . S
H1974 C1959 0.961 . S
H1975 C1959 0.961 . S
H1976 C1960 0.931 . S
H1977 C1965 0.930 . S
H1978 C1966 0.956 . S
H1979 C1966 0.961 . S
H1980 C1966 0.961 . S
H1981 C1967 0.958 . S
H1982 C1967 0.961 . S
H1983 C1967 0.960 . S
C1984 C1985 1.391 . S
C1984 C1986 1.394 . S
C1984 H2000 0.931 . S
C1985 C1984 1.391 . S
C1985 C1989 1.376 . S
C1986 C1984 1.394 . S
C1986 C1987 1.369 . S
C1986 C1990 1.531 . S
C1987 C1986 1.369 . S
C1987 C1988 1.410 . S
C1987 C1995 1.503 . S
C1988 C1987 1.410 . S
C1988 C1989 1.392 . S
C1988 C1991 1.511 . S
C1989 C1985 1.376 . S
C1989 C1988 1.392 . S
C1989 H2001 0.929 . S
C1990 C1986 1.531 . S
C1990 H2002 0.960 . S
C1990 H2003 0.962 . S
C1990 H2004 0.960 . S
C1991 C1988 1.511 . S
C1991 H2005 0.961 . S
C1991 H2006 0.961 . S
C1991 H2007 0.961 . S
C1992 C1993 1.370 . S
C1992 C1994 1.363 . S
C1992 H2008 0.931 . S
C1993 C1992 1.370 . S
C1993 C1997 1.408 . S
C1994 C1992 1.363 . S
C1994 C1995 1.370 . S
C1994 C1998 1.524 . S
C1995 C1987 1.503 . S
C1995 C1994 1.370 . S
C1995 C1996 1.403 . S
C1996 C1995 1.403 . S
C1996 C1997 1.404 . S
C1996 C1999 1.539 . S
C1997 C1993 1.408 . S
C1997 C1996 1.404 . S
C1997 H2009 0.930 . S
C1998 C1994 1.524 . S
C1998 H2010 0.956 . S
C1998 H2011 0.961 . S
C1998 H2012 0.961 . S
C1999 C1996 1.539 . S
C1999 H2013 0.958 . S
C1999 H2014 0.961 . S
C1999 H2015 0.960 . S
H2000 C1984 0.931 . S
H2001 C1989 0.929 . S
H2002 C1990 0.960 . S
H2003 C1990 0.962 . S
H2004 C1990 0.960 . S
H2005 C1991 0.961 . S
H2006 C1991 0.961 . S
H2007 C1991 0.961 . S
H2008 C1992 0.931 . S
H2009 C1997 0.930 . S
H2010 C1998 0.956 . S
H2011 C1998 0.961 . S
H2012 C1998 0.961 . S
H2013 C1999 0.958 . S
H2014 C1999 0.961 . S
H2015 C1999 0.960 . S
C2016 C2017 1.391 . S
C2016 C2018 1.394 . S
C2016 H2032 0.931 . S
C2017 C2016 1.391 . S
C2017 C2021 1.376 . S
C2018 C2016 1.394 . S
C2018 C2019 1.369 . S
C2018 C2022 1.531 . S
C2019 C2018 1.369 . S
C2019 C2020 1.410 . S
C2019 C2027 1.503 . S
C2020 C2019 1.410 . S
C2020 C2021 1.392 . S
C2020 C2023 1.511 . S
C2021 C2017 1.376 . S
C2021 C2020 1.392 . S
C2021 H2033 0.929 . S
C2022 C2018 1.531 . S
C2022 H2034 0.960 . S
C2022 H2035 0.962 . S
C2022 H2036 0.960 . S
C2023 C2020 1.511 . S
C2023 H2037 0.961 . S
C2023 H2038 0.961 . S
C2023 H2039 0.961 . S
C2024 C2025 1.370 . S
C2024 C2026 1.363 . S
C2024 H2040 0.931 . S
C2025 C2024 1.370 . S
C2025 C2029 1.408 . S
C2026 C2024 1.363 . S
C2026 C2027 1.370 . S
C2026 C2030 1.524 . S
C2027 C2019 1.503 . S
C2027 C2026 1.370 . S
C2027 C2028 1.403 . S
C2028 C2027 1.403 . S
C2028 C2029 1.404 . S
C2028 C2031 1.539 . S
C2029 C2025 1.408 . S
C2029 C2028 1.404 . S
C2029 H2041 0.930 . S
C2030 C2026 1.524 . S
C2030 H2042 0.956 . S
C2030 H2043 0.961 . S
C2030 H2044 0.961 . S
C2031 C2028 1.539 . S
C2031 H2045 0.958 . S
C2031 H2046 0.961 . S
C2031 H2047 0.960 . S
H2032 C2016 0.931 . S
H2033 C2021 0.929 . S
H2034 C2022 0.960 . S
H2035 C2022 0.962 . S
H2036 C2022 0.960 . S
H2037 C2023 0.961 . S
H2038 C2023 0.961 . S
H2039 C2023 0.961 . S
H2040 C2024 0.931 . S
H2041 C2029 0.930 . S
H2042 C2030 0.956 . S
H2043 C2030 0.961 . S
H2044 C2030 0.961 . S
H2045 C2031 0.958 . S
H2046 C2031 0.961 . S
H2047 C2031 0.960 . S
C2048 C2049 1.391 . S
C2048 C2050 1.394 . S
C2048 H2064 0.931 . S
C2049 C2048 1.391 . S
C2049 C2053 1.376 . S
C2050 C2048 1.394 . S
C2050 C2051 1.369 . S
C2050 C2054 1.531 . S
C2051 C2050 1.369 . S
C2051 C2052 1.410 . S
C2051 C2059 1.503 . S
C2052 C2051 1.410 . S
C2052 C2053 1.392 . S
C2052 C2055 1.511 . S
C2053 C2049 1.376 . S
C2053 C2052 1.392 . S
C2053 H2065 0.929 . S
C2054 C2050 1.531 . S
C2054 H2066 0.960 . S
C2054 H2067 0.962 . S
C2054 H2068 0.960 . S
C2055 C2052 1.511 . S
C2055 H2069 0.961 . S
C2055 H2070 0.961 . S
C2055 H2071 0.961 . S
C2056 C2057 1.370 . S
C2056 C2058 1.363 . S
C2056 H2072 0.931 . S
C2057 C2056 1.370 . S
C2057 C2061 1.408 . S
C2058 C2056 1.363 . S
C2058 C2059 1.370 . S
C2058 C2062 1.524 . S
C2059 C2051 1.503 . S
C2059 C2058 1.370 . S
C2059 C2060 1.403 . S
C2060 C2059 1.403 . S
C2060 C2061 1.404 . S
C2060 C2063 1.539 . S
C2061 C2057 1.408 . S
C2061 C2060 1.404 . S
C2061 H2073 0.930 . S
C2062 C2058 1.524 . S
C2062 H2074 0.956 . S
C2062 H2075 0.961 . S
C2062 H2076 0.961 . S
C2063 C2060 1.539 . S
C2063 H2077 0.958 . S
C2063 H2078 0.961 . S
C2063 H2079 0.960 . S
H2064 C2048 0.931 . S
H2065 C2053 0.929 . S
H2066 C2054 0.960 . S
H2067 C2054 0.962 . S
H2068 C2054 0.960 . S
H2069 C2055 0.961 . S
H2070 C2055 0.961 . S
H2071 C2055 0.961 . S
H2072 C2056 0.931 . S
H2073 C2061 0.930 . S
H2074 C2062 0.956 . S
H2075 C2062 0.961 . S
H2076 C2062 0.961 . S
H2077 C2063 0.958 . S
H2078 C2063 0.961 . S
H2079 C2063 0.960 . S
C2080 C2081 1.391 . S
C2080 C2082 1.394 . S
C2080 H2096 0.931 . S
C2081 C2080 1.391 . S
C2081 C2085 1.376 . S
C2082 C2080 1.394 . S
C2082 C2083 1.369 . S
C2082 C2086 1.531 . S
C2083 C2082 1.369 . S
C2083 C2084 1.410 . S
C2083 C2091 1.503 . S
C2084 C2083 1.410 . S
C2084 C2085 1.392 . S
C2084 C2087 1.511 . S
C2085 C2081 1.376 . S
C2085 C2084 1.392 . S
C2085 H2097 0.929 . S
C2086 C2082 1.531 . S
C2086 H2098 0.960 . S
C2086 H2099 0.962 . S
C2086 H2100 0.960 . S
C2087 C2084 1.511 . S
C2087 H2101 0.961 . S
C2087 H2102 0.961 . S
C2087 H2103 0.961 . S
C2088 C2089 1.370 . S
C2088 C2090 1.363 . S
C2088 H2104 0.931 . S
C2089 C2088 1.370 . S
C2089 C2093 1.408 . S
C2090 C2088 1.363 . S
C2090 C2091 1.370 . S
C2090 C2094 1.524 . S
C2091 C2083 1.503 . S
C2091 C2090 1.370 . S
C2091 C2092 1.403 . S
C2092 C2091 1.403 . S
C2092 C2093 1.404 . S
C2092 C2095 1.539 . S
C2093 C2089 1.408 . S
C2093 C2092 1.404 . S
C2093 H2105 0.930 . S
C2094 C2090 1.524 . S
C2094 H2106 0.956 . S
C2094 H2107 0.961 . S
C2094 H2108 0.961 . S
C2095 C2092 1.539 . S
C2095 H2109 0.958 . S
C2095 H2110 0.961 . S
C2095 H2111 0.960 . S
H2096 C2080 0.931 . S
H2097 C2085 0.929 . S
H2098 C2086 0.960 . S
H2099 C2086 0.962 . S
H2100 C2086 0.960 . S
H2101 C2087 0.961 . S
H2102 C2087 0.961 . S
H2103 C2087 0.961 . S
H2104 C2088 0.931 . S
H2105 C2093 0.930 . S
H2106 C2094 0.956 . S
H2107 C2094 0.961 . S
H2108 C2094 0.961 . S
H2109 C2095 0.958 . S
H2110 C2095 0.961 . S
H2111 C2095 0.960 . S
C961 C162 1.484 . S
C969 C2 1.491 . S
C993 C221 1.475 . S
C1001 C42 1.471 . S
C1025 C101 1.482 . S
C1033 C261 1.497 . S
C1057 C282 1.455 . S
C1065 C141 1.459 . S
C1089 C341 1.485 . S
C1097 C442 1.489 . S
C1121 C402 1.479 . S
C1129 C381 1.482 . S
C1153 C482 1.502 . S
C1161 C642 1.511 . S
C1185 C682 1.481 . S
C1193 C541 1.480 . S
C1217 C741 1.436 . S
C1225 C581 1.453 . S
C1249 C602 1.474 . S
C1257 C781 1.477 . S
C1281 C941 1.487 . S
C1289 C802 1.502 . S
C1313 C901 1.470 . S
C1321 C842 1.494 . S
C1345 C775 1.499 . S
C1353 C21 1.486 . S
C1377 C655 1.515 . S
C1385 C61 1.514 . S
C1409 C82 1.541 . S
C1417 C701 1.534 . S
C1441 C135 1.493 . S
C1449 C722 1.487 . S
C1473 C181 1.494 . S
C1481 C522 1.491 . S
C1505 C562 1.492 . S
C1513 C215 1.498 . S
C1537 C242 1.534 . S
C1545 C621 1.524 . S
C1569 C301 1.518 . S
C1577 C495 1.525 . S
C1601 C122 1.467 . S
C1609 C935 1.494 . S
C1633 C15 1.549 . S
C1641 C861 1.549 . S
C1665 C55 1.547 . S
C1673 C815 1.544 . S
C1697 C95 1.511 . S
C1705 C882 1.505 . S
C1729 C202 1.472 . S
C1737 C895 1.491 . S
C1761 C255 1.517 . S
C1769 C922 1.510 . S
C1793 C855 1.536 . S
C1801 C295 1.549 . S
C1825 C175 1.544 . S
C1833 C821 1.550 . S
C1857 C335 1.531 . S
C1865 C661 1.531 . S
C1889 C501 1.531 . S
C1897 C362 1.512 . S
C1921 C322 1.513 . S
C1929 C535 1.514 . S
C1953 C415 1.515 . S
C1961 C575 1.517 . S
C1985 C615 1.535 . S
C1993 C461 1.518 . S
C2017 C735 1.513 . S
C2025 C455 1.519 . S
C2049 C762 1.494 . S
C2057 C375 1.507 . S
C2081 C695 1.536 . S
C2089 C421 1.534 . S
