# Generated by pormake.
# Topology fcn, (5)-cn, num edge types: 1
# Building blocks:
#     Node 0, Type 0, BuildingBlock: XOMCOT_clean_sbu_1, # of connection points: 5
#     Node 1, Type 0, BuildingBlock: XOMCOT_clean_sbu_1, # of connection points: 5
#     Node 2, Type 0, BuildingBlock: XOMCOT_clean_sbu_1, # of connection points: 5
#     Node 3, Type 0, BuildingBlock: XOMCOT_clean_sbu_1, # of connection points: 5
#     Node 4, Type 0, BuildingBlock: XOMCOT_clean_sbu_1, # of connection points: 5
#     Node 5, Type 0, BuildingBlock: XOMCOT_clean_sbu_1, # of connection points: 5
#     Node 6, Type 0, BuildingBlock: XOMCOT_clean_sbu_1, # of connection points: 5
#     Node 7, Type 0, BuildingBlock: XOMCOT_clean_sbu_1, # of connection points: 5
#     Node 8, Type 0, BuildingBlock: XOMCOT_clean_sbu_1, # of connection points: 5
#     Node 9, Type 0, BuildingBlock: XOMCOT_clean_sbu_1, # of connection points: 5
#     Node 10, Type 0, BuildingBlock: XOMCOT_clean_sbu_1, # of connection points: 5
#     Node 11, Type 0, BuildingBlock: XOMCOT_clean_sbu_1, # of connection points: 5
#     Node 12, Type 0, BuildingBlock: XOMCOT_clean_sbu_1, # of connection points: 5
#     Node 13, Type 0, BuildingBlock: XOMCOT_clean_sbu_1, # of connection points: 5
#     Node 14, Type 0, BuildingBlock: XOMCOT_clean_sbu_1, # of connection points: 5
#     Node 15, Type 0, BuildingBlock: XOMCOT_clean_sbu_1, # of connection points: 5
#     Node 16, Type 0, BuildingBlock: XOMCOT_clean_sbu_1, # of connection points: 5
#     Node 17, Type 0, BuildingBlock: XOMCOT_clean_sbu_1, # of connection points: 5
#     Node 18, Type 0, BuildingBlock: XOMCOT_clean_sbu_1, # of connection points: 5
#     Node 19, Type 0, BuildingBlock: XOMCOT_clean_sbu_1, # of connection points: 5
#     Node 20, Type 0, BuildingBlock: XOMCOT_clean_sbu_1, # of connection points: 5
#     Node 21, Type 0, BuildingBlock: XOMCOT_clean_sbu_1, # of connection points: 5
#     Node 22, Type 0, BuildingBlock: XOMCOT_clean_sbu_1, # of connection points: 5
#     Node 23, Type 0, BuildingBlock: XOMCOT_clean_sbu_1, # of connection points: 5
#     Node 24, Type 0, BuildingBlock: XOMCOT_clean_sbu_1, # of connection points: 5
#     Node 25, Type 0, BuildingBlock: XOMCOT_clean_sbu_1, # of connection points: 5
#     Node 26, Type 0, BuildingBlock: XOMCOT_clean_sbu_1, # of connection points: 5
#     Node 27, Type 0, BuildingBlock: XOMCOT_clean_sbu_1, # of connection points: 5
#     Node 28, Type 0, BuildingBlock: XOMCOT_clean_sbu_1, # of connection points: 5
#     Node 29, Type 0, BuildingBlock: XOMCOT_clean_sbu_1, # of connection points: 5
#     Node 30, Type 0, BuildingBlock: XOMCOT_clean_sbu_1, # of connection points: 5
#     Node 31, Type 0, BuildingBlock: XOMCOT_clean_sbu_1, # of connection points: 5
#     Node 32, Type 0, BuildingBlock: XOMCOT_clean_sbu_1, # of connection points: 5
#     Node 33, Type 0, BuildingBlock: XOMCOT_clean_sbu_1, # of connection points: 5
#     Node 34, Type 0, BuildingBlock: XOMCOT_clean_sbu_1, # of connection points: 5
#     Node 35, Type 0, BuildingBlock: XOMCOT_clean_sbu_1, # of connection points: 5
#     Node 36, Type 0, BuildingBlock: XOMCOT_clean_sbu_1, # of connection points: 5
#     Node 37, Type 0, BuildingBlock: XOMCOT_clean_sbu_1, # of connection points: 5
#     Node 38, Type 0, BuildingBlock: XOMCOT_clean_sbu_1, # of connection points: 5
#     Node 39, Type 0, BuildingBlock: XOMCOT_clean_sbu_1, # of connection points: 5
#     Node 40, Type 0, BuildingBlock: XOMCOT_clean_sbu_1, # of connection points: 5
#     Node 41, Type 0, BuildingBlock: XOMCOT_clean_sbu_1, # of connection points: 5
#     Node 42, Type 0, BuildingBlock: XOMCOT_clean_sbu_1, # of connection points: 5
#     Node 43, Type 0, BuildingBlock: XOMCOT_clean_sbu_1, # of connection points: 5
#     Node 44, Type 0, BuildingBlock: XOMCOT_clean_sbu_1, # of connection points: 5
#     Node 45, Type 0, BuildingBlock: XOMCOT_clean_sbu_1, # of connection points: 5
#     Node 46, Type 0, BuildingBlock: XOMCOT_clean_sbu_1, # of connection points: 5
#     Node 47, Type 0, BuildingBlock: XOMCOT_clean_sbu_1, # of connection points: 5
#     Edge 48, Type (0, 0), None
#     Edge 49, Type (0, 0), None
#     Edge 50, Type (0, 0), None
#     Edge 51, Type (0, 0), None
#     Edge 52, Type (0, 0), None
#     Edge 53, Type (0, 0), None
#     Edge 54, Type (0, 0), None
#     Edge 55, Type (0, 0), None
#     Edge 56, Type (0, 0), None
#     Edge 57, Type (0, 0), None
#     Edge 58, Type (0, 0), None
#     Edge 59, Type (0, 0), None
#     Edge 60, Type (0, 0), None
#     Edge 61, Type (0, 0), None
#     Edge 62, Type (0, 0), None
#     Edge 63, Type (0, 0), None
#     Edge 64, Type (0, 0), None
#     Edge 65, Type (0, 0), None
#     Edge 66, Type (0, 0), None
#     Edge 67, Type (0, 0), None
#     Edge 68, Type (0, 0), None
#     Edge 69, Type (0, 0), None
#     Edge 70, Type (0, 0), None
#     Edge 71, Type (0, 0), None
#     Edge 72, Type (0, 0), None
#     Edge 73, Type (0, 0), None
#     Edge 74, Type (0, 0), None
#     Edge 75, Type (0, 0), None
#     Edge 76, Type (0, 0), None
#     Edge 77, Type (0, 0), None
#     Edge 78, Type (0, 0), None
#     Edge 79, Type (0, 0), None
#     Edge 80, Type (0, 0), None
#     Edge 81, Type (0, 0), None
#     Edge 82, Type (0, 0), None
#     Edge 83, Type (0, 0), None
#     Edge 84, Type (0, 0), None
#     Edge 85, Type (0, 0), None
#     Edge 86, Type (0, 0), None
#     Edge 87, Type (0, 0), None
#     Edge 88, Type (0, 0), None
#     Edge 89, Type (0, 0), None
#     Edge 90, Type (0, 0), None
#     Edge 91, Type (0, 0), None
#     Edge 92, Type (0, 0), None
#     Edge 93, Type (0, 0), None
#     Edge 94, Type (0, 0), None
#     Edge 95, Type (0, 0), None
#     Edge 96, Type (0, 0), None
#     Edge 97, Type (0, 0), None
#     Edge 98, Type (0, 0), None
#     Edge 99, Type (0, 0), None
#     Edge 100, Type (0, 0), None
#     Edge 101, Type (0, 0), None
#     Edge 102, Type (0, 0), None
#     Edge 103, Type (0, 0), None
#     Edge 104, Type (0, 0), None
#     Edge 105, Type (0, 0), None
#     Edge 106, Type (0, 0), None
#     Edge 107, Type (0, 0), None
#     Edge 108, Type (0, 0), None
#     Edge 109, Type (0, 0), None
#     Edge 110, Type (0, 0), None
#     Edge 111, Type (0, 0), None
#     Edge 112, Type (0, 0), None
#     Edge 113, Type (0, 0), None
#     Edge 114, Type (0, 0), None
#     Edge 115, Type (0, 0), None
#     Edge 116, Type (0, 0), None
#     Edge 117, Type (0, 0), None
#     Edge 118, Type (0, 0), None
#     Edge 119, Type (0, 0), None
#     Edge 120, Type (0, 0), None
#     Edge 121, Type (0, 0), None
#     Edge 122, Type (0, 0), None
#     Edge 123, Type (0, 0), None
#     Edge 124, Type (0, 0), None
#     Edge 125, Type (0, 0), None
#     Edge 126, Type (0, 0), None
#     Edge 127, Type (0, 0), None
#     Edge 128, Type (0, 0), None
#     Edge 129, Type (0, 0), None
#     Edge 130, Type (0, 0), None
#     Edge 131, Type (0, 0), None
#     Edge 132, Type (0, 0), None
#     Edge 133, Type (0, 0), None
#     Edge 134, Type (0, 0), None
#     Edge 135, Type (0, 0), None
#     Edge 136, Type (0, 0), None
#     Edge 137, Type (0, 0), None
#     Edge 138, Type (0, 0), None
#     Edge 139, Type (0, 0), None
#     Edge 140, Type (0, 0), None
#     Edge 141, Type (0, 0), None
#     Edge 142, Type (0, 0), None
#     Edge 143, Type (0, 0), None
#     Edge 144, Type (0, 0), None
#     Edge 145, Type (0, 0), None
#     Edge 146, Type (0, 0), None
#     Edge 147, Type (0, 0), None
#     Edge 148, Type (0, 0), None
#     Edge 149, Type (0, 0), None
#     Edge 150, Type (0, 0), None
#     Edge 151, Type (0, 0), None
#     Edge 152, Type (0, 0), None
#     Edge 153, Type (0, 0), None
#     Edge 154, Type (0, 0), None
#     Edge 155, Type (0, 0), None
#     Edge 156, Type (0, 0), None
#     Edge 157, Type (0, 0), None
#     Edge 158, Type (0, 0), None
#     Edge 159, Type (0, 0), None
#     Edge 160, Type (0, 0), None
#     Edge 161, Type (0, 0), None
#     Edge 162, Type (0, 0), None
#     Edge 163, Type (0, 0), None
#     Edge 164, Type (0, 0), None
#     Edge 165, Type (0, 0), None
#     Edge 166, Type (0, 0), None
#     Edge 167, Type (0, 0), None
# Relax obj value: 0.281
# Max RMSD: 0.227
# Mean RMSD: 0.227
data_MOF--net-fcn--node1-XOMCOT_clean_sbu_1--edge1-none
_symmetry_space_group_name_H-M    P1
_symmetry_Int_Tables_number       1
_symmetry_cell_setting            triclinic
loop_
_symmetry_equiv_pos_as_xyz
'x, y, z'
_cell_length_a     39.596424
_cell_length_b     39.596478
_cell_length_c     39.596397
_cell_angle_alpha  89.999717
_cell_angle_beta   90.000563
_cell_angle_gamma 90.000234
loop_
_atom_site_label
_atom_site_type_symbol
_atom_site_fract_x
_atom_site_fract_y
_atom_site_fract_z
_atom_type_partial_charge
C0 C 0.0702 0.24532 0.27533 0.0
C1 C 0.04177 0.26398 0.28285 0.0
N2 N 0.01497 0.2431 0.28156 0.0
N3 N 0.06108 0.21314 0.26884 0.0
C4 C 0.02724 0.2125 0.2733 0.0
H5 H 0.09569 0.25488 0.27327 0.0
Co6 Co 0.08939 0.17944 0.25275 0.0
C7 C 0.03488 0.12525 0.23685 0.0
O8 O 0.04886 0.09873 0.25109 0.0
N9 N 0.11852 0.14586 0.2361 0.0
C10 C 0.14154 0.10379 0.20672 0.0
C11 C 0.11218 0.12067 0.21389 0.0
C12 C 0.15238 0.1447 0.24059 0.0
N13 N 0.1668 0.11921 0.22319 0.0
O14 O 0.08944 0.19914 0.20954 0.0
H15 H 0.08854 0.11618 0.20125 0.0
H16 H 0.16646 0.16336 0.25472 0.0
O17 O 0.04968 0.15386 0.23788 0.0
C18 C 0.11373 0.21802 0.20028 0.0
O19 O 0.13583 0.2284 0.22276 0.0
N20 N 0.09198 0.16091 0.29577 0.0
C21 C 0.11504 0.12613 0.35203 0.0
C22 C 0.08203 0.12091 0.3398 0.0
C23 C 0.07069 0.13914 0.31172 0.0
C24 C 0.1218 0.16988 0.31037 0.0
C25 C 0.13417 0.1524 0.33822 0.0
H26 H 0.04556 0.13476 0.30229 0.0
H27 H 0.13722 0.18916 0.2987 0.0
H28 H 0.01153 0.19067 0.26877 0.0
H29 H 0.04073 0.29088 0.28754 0.0
H30 H 0.14468 0.08372 0.18848 0.0
H31 H 0.06591 0.10149 0.35034 0.0
H32 H 0.15912 0.1583 0.34776 0.0
C33 C 0.0003 0.82022 0.52531 0.0
C34 C 0.98163 0.79178 0.53283 0.0
N35 N 0.00252 0.76499 0.53155 0.0
N36 N 0.03247 0.8111 0.51884 0.0
C37 C 0.03311 0.77726 0.5233 0.0
H38 H 0.99073 0.84571 0.52324 0.0
Co39 Co 0.06617 0.8394 0.50276 0.0
C40 C 0.12036 0.78486 0.48688 0.0
O41 O 0.14688 0.79882 0.50114 0.0
N42 N 0.09977 0.86853 0.48611 0.0
C43 C 0.14187 0.89155 0.45679 0.0
C44 C 0.125 0.86219 0.46396 0.0
C45 C 0.10089 0.90239 0.49058 0.0
N46 N 0.1264 0.91682 0.47321 0.0
O47 O 0.04649 0.83945 0.45954 0.0
H48 H 0.12953 0.83854 0.45134 0.0
H49 H 0.08221 0.91647 0.50467 0.0
O50 O 0.09176 0.79969 0.48789 0.0
C51 C 0.0276 0.86374 0.45027 0.0
O52 O 0.0172 0.88583 0.47275 0.0
N53 N 0.0847 0.84199 0.54578 0.0
C54 C 0.11948 0.86504 0.60205 0.0
C55 C 0.12468 0.83203 0.58982 0.0
C56 C 0.10645 0.82069 0.56174 0.0
C57 C 0.07573 0.87181 0.56037 0.0
C58 C 0.09321 0.88418 0.58823 0.0
H59 H 0.11082 0.79556 0.55231 0.0
H60 H 0.05647 0.88724 0.5487 0.0
H61 H 0.05494 0.76154 0.51879 0.0
H62 H 0.95473 0.79075 0.53751 0.0
H63 H 0.16198 0.89469 0.43859 0.0
H64 H 0.14409 0.8159 0.60036 0.0
H65 H 0.08732 0.90913 0.59777 0.0
C66 C 0.42542 0.75031 0.77533 0.0
C67 C 0.45385 0.73165 0.78286 0.0
N68 N 0.48064 0.75254 0.78156 0.0
N69 N 0.43453 0.78249 0.76885 0.0
C70 C 0.46837 0.78313 0.7733 0.0
H71 H 0.39993 0.74075 0.77328 0.0
Co72 Co 0.40623 0.81618 0.75276 0.0
C73 C 0.46074 0.87037 0.73686 0.0
O74 O 0.44675 0.8969 0.75109 0.0
N75 N 0.37709 0.84977 0.7361 0.0
C76 C 0.35408 0.89183 0.70671 0.0
C77 C 0.38344 0.87495 0.71389 0.0
C78 C 0.34324 0.85092 0.74058 0.0
N79 N 0.32881 0.87641 0.72318 0.0
O80 O 0.40618 0.79648 0.70954 0.0
H81 H 0.40708 0.87945 0.70125 0.0
H82 H 0.32916 0.83226 0.75471 0.0
O83 O 0.44593 0.84176 0.73789 0.0
C84 C 0.3819 0.77759 0.70028 0.0
O85 O 0.35981 0.76719 0.72276 0.0
N86 N 0.40363 0.83472 0.79577 0.0
C87 C 0.38057 0.86949 0.85204 0.0
C88 C 0.41359 0.87471 0.8398 0.0
C89 C 0.42493 0.85648 0.81172 0.0
C90 C 0.37382 0.82574 0.81037 0.0
C91 C 0.36144 0.84322 0.83822 0.0
H92 H 0.45005 0.86086 0.8023 0.0
H93 H 0.35839 0.80646 0.7987 0.0
H94 H 0.48409 0.80496 0.76878 0.0
H95 H 0.45489 0.70475 0.78754 0.0
H96 H 0.35093 0.9119 0.68848 0.0
H97 H 0.4297 0.89413 0.85035 0.0
H98 H 0.33649 0.83732 0.84776 0.0
C99 C 0.49532 0.17539 0.02531 0.0
C100 C 0.51399 0.20382 0.03283 0.0
N101 N 0.4931 0.23061 0.03156 0.0
N102 N 0.46314 0.18451 0.01885 0.0
C103 C 0.46251 0.21835 0.02331 0.0
H104 H 0.50488 0.14989 0.02325 0.0
Co105 Co 0.42944 0.15621 0.00277 0.0
C106 C 0.37526 0.21074 0.98688 0.0
O107 O 0.34874 0.19678 0.00114 0.0
N108 N 0.39584 0.12708 0.98612 0.0
C109 C 0.35374 0.10406 0.95679 0.0
C110 C 0.37062 0.13343 0.96396 0.0
C111 C 0.39472 0.09322 0.99059 0.0
N112 N 0.36921 0.07879 0.97321 0.0
O113 O 0.44912 0.15616 0.95955 0.0
H114 H 0.36609 0.15707 0.95134 0.0
H115 H 0.4134 0.07914 0.00468 0.0
O116 O 0.40386 0.19592 0.9879 0.0
C117 C 0.46801 0.13187 0.95028 0.0
O118 O 0.47841 0.10978 0.97276 0.0
N119 N 0.41091 0.15362 0.04579 0.0
C120 C 0.37614 0.13057 0.10206 0.0
C121 C 0.37093 0.16358 0.08983 0.0
C122 C 0.38916 0.17492 0.06174 0.0
C123 C 0.41988 0.1238 0.06038 0.0
C124 C 0.4024 0.11143 0.08824 0.0
H125 H 0.38479 0.20005 0.05232 0.0
H126 H 0.43915 0.10837 0.04871 0.0
H127 H 0.44067 0.23407 0.0188 0.0
H128 H 0.54089 0.20485 0.0375 0.0
H129 H 0.33364 0.10092 0.93859 0.0
H130 H 0.35152 0.1797 0.10037 0.0
H131 H 0.4083 0.08648 0.09778 0.0
C132 C 0.07021 0.7503 0.22028 0.0
C133 C 0.04177 0.73164 0.21276 0.0
N134 N 0.01498 0.75252 0.21404 0.0
N135 N 0.06109 0.78248 0.22676 0.0
C136 C 0.02725 0.78311 0.2223 0.0
H137 H 0.0957 0.74074 0.22234 0.0
Co138 Co 0.08939 0.81617 0.24285 0.0
C139 C 0.03488 0.87038 0.25872 0.0
O140 O 0.04888 0.8969 0.24449 0.0
N141 N 0.11852 0.84977 0.2595 0.0
C142 C 0.14154 0.89184 0.28887 0.0
C143 C 0.11217 0.87496 0.28169 0.0
C144 C 0.15238 0.85091 0.25502 0.0
N145 N 0.1668 0.87641 0.27242 0.0
O146 O 0.08943 0.7965 0.28607 0.0
H147 H 0.08853 0.87946 0.29433 0.0
H148 H 0.16646 0.83225 0.2409 0.0
O149 O 0.04969 0.84176 0.2577 0.0
C150 C 0.11369 0.77758 0.29534 0.0
O151 O 0.13576 0.76714 0.27286 0.0
N152 N 0.092 0.8347 0.19982 0.0
C153 C 0.11506 0.86948 0.14356 0.0
C154 C 0.08204 0.8747 0.1558 0.0
C155 C 0.0707 0.85646 0.18387 0.0
C156 C 0.12181 0.82573 0.18523 0.0
C157 C 0.13419 0.84321 0.15738 0.0
H158 H 0.04557 0.86083 0.1933 0.0
H159 H 0.13724 0.80646 0.1969 0.0
H160 H 0.01153 0.80494 0.22682 0.0
H161 H 0.04074 0.70473 0.20808 0.0
H162 H 0.14468 0.91193 0.30709 0.0
H163 H 0.06592 0.89411 0.14526 0.0
H164 H 0.15914 0.83731 0.14784 0.0
C165 C 0.4953 0.8202 0.47026 0.0
C166 C 0.51396 0.79176 0.46274 0.0
N167 N 0.49308 0.76497 0.46404 0.0
N168 N 0.46313 0.81108 0.47676 0.0
C169 C 0.46249 0.77724 0.47231 0.0
H170 H 0.50487 0.84569 0.47231 0.0
Co171 Co 0.42944 0.83938 0.49286 0.0
C172 C 0.37523 0.7849 0.50874 0.0
O173 O 0.3487 0.79892 0.49454 0.0
N174 N 0.39585 0.86852 0.50952 0.0
C175 C 0.35381 0.89153 0.53894 0.0
C176 C 0.3707 0.86217 0.53176 0.0
C177 C 0.39467 0.90237 0.50502 0.0
N178 N 0.3692 0.91679 0.52244 0.0
O179 O 0.44913 0.83942 0.53607 0.0
H180 H 0.36624 0.83853 0.54443 0.0
H181 H 0.41331 0.91646 0.49086 0.0
O182 O 0.40385 0.79968 0.50771 0.0
C183 C 0.46805 0.86368 0.54534 0.0
O184 O 0.47849 0.88575 0.52285 0.0
N185 N 0.4109 0.842 0.44984 0.0
C186 C 0.37612 0.86506 0.39358 0.0
C187 C 0.37089 0.83205 0.40582 0.0
C188 C 0.38913 0.82071 0.43389 0.0
C189 C 0.41988 0.87181 0.43524 0.0
C190 C 0.4024 0.88419 0.40739 0.0
H191 H 0.38475 0.79558 0.44332 0.0
H192 H 0.43916 0.88723 0.4469 0.0
H193 H 0.44066 0.76152 0.47684 0.0
H194 H 0.54086 0.79073 0.45805 0.0
H195 H 0.33376 0.89467 0.5572 0.0
H196 H 0.35147 0.81593 0.39528 0.0
H197 H 0.4083 0.90913 0.39784 0.0
C198 C 0.4254 0.24532 0.72028 0.0
C199 C 0.45383 0.26399 0.71276 0.0
N200 N 0.48063 0.24311 0.71405 0.0
N201 N 0.43452 0.21314 0.72676 0.0
C202 C 0.46837 0.21251 0.7223 0.0
H203 H 0.39991 0.25488 0.72234 0.0
Co204 Co 0.40623 0.17944 0.74285 0.0
C205 C 0.46074 0.12524 0.75872 0.0
O206 O 0.44673 0.09872 0.74449 0.0
N207 N 0.3771 0.14585 0.7595 0.0
C208 C 0.35409 0.10378 0.78887 0.0
C209 C 0.38345 0.12066 0.7817 0.0
C210 C 0.34324 0.1447 0.75501 0.0
N211 N 0.32882 0.1192 0.77241 0.0
O212 O 0.40619 0.19912 0.78607 0.0
H213 H 0.40709 0.11617 0.79434 0.0
H214 H 0.32916 0.16335 0.74089 0.0
O215 O 0.44594 0.15386 0.75769 0.0
C216 C 0.38192 0.21803 0.79534 0.0
O217 O 0.35985 0.22847 0.77286 0.0
N218 N 0.40362 0.16092 0.69982 0.0
C219 C 0.38056 0.12613 0.64356 0.0
C220 C 0.41357 0.12092 0.6558 0.0
C221 C 0.42492 0.13915 0.68387 0.0
C222 C 0.37381 0.16989 0.68523 0.0
C223 C 0.36143 0.15241 0.65737 0.0
H224 H 0.45005 0.13478 0.6933 0.0
H225 H 0.35838 0.18916 0.69689 0.0
H226 H 0.48409 0.19068 0.72682 0.0
H227 H 0.45487 0.29089 0.70808 0.0
H228 H 0.35095 0.0837 0.8071 0.0
H229 H 0.42969 0.1015 0.64526 0.0
H230 H 0.33648 0.15831 0.64783 0.0
C231 C 0.00033 0.1754 0.97027 0.0
C232 C 0.98166 0.20384 0.96275 0.0
N233 N 0.00254 0.23063 0.96404 0.0
N234 N 0.0325 0.18452 0.97675 0.0
C235 C 0.03314 0.21837 0.9723 0.0
H236 H 0.99076 0.14991 0.97232 0.0
Co237 Co 0.0662 0.15623 0.99285 0.0
C238 C 0.12041 0.21071 0.00873 0.0
O239 O 0.14693 0.19668 0.99453 0.0
N240 N 0.09978 0.1271 0.00951 0.0
C241 C 0.14182 0.10409 0.03894 0.0
C242 C 0.12493 0.13344 0.03176 0.0
C243 C 0.10096 0.09324 0.00501 0.0
N244 N 0.12643 0.07882 0.02244 0.0
O245 O 0.04651 0.15619 0.03606 0.0
H246 H 0.12939 0.15708 0.04442 0.0
H247 H 0.08232 0.07916 0.99085 0.0
O248 O 0.09178 0.19593 0.00769 0.0
C249 C 0.02758 0.13194 0.04533 0.0
O250 O 0.01713 0.10988 0.02285 0.0
N251 N 0.08473 0.15361 0.94983 0.0
C252 C 0.11951 0.13055 0.89357 0.0
C253 C 0.12473 0.16356 0.90581 0.0
C254 C 0.1065 0.1749 0.93388 0.0
C255 C 0.07574 0.1238 0.93523 0.0
C256 C 0.09323 0.11142 0.90738 0.0
H257 H 0.11088 0.20003 0.94331 0.0
H258 H 0.05647 0.10838 0.94689 0.0
H259 H 0.05496 0.23409 0.97683 0.0
H260 H 0.95476 0.20487 0.95807 0.0
H261 H 0.16186 0.10094 0.0572 0.0
H262 H 0.14416 0.17967 0.89527 0.0
H263 H 0.08732 0.08648 0.89783 0.0
C264 C 0.2753 0.07021 0.2453 0.0
C265 C 0.28282 0.04178 0.26396 0.0
N266 N 0.28146 0.01498 0.24309 0.0
N267 N 0.26873 0.06108 0.21314 0.0
C268 C 0.27314 0.02724 0.21251 0.0
H269 H 0.27333 0.09571 0.25485 0.0
Co270 Co 0.2527 0.08939 0.17942 0.0
C271 C 0.23696 0.03474 0.12527 0.0
O272 O 0.25137 0.04854 0.09875 0.0
N273 N 0.23612 0.11853 0.14581 0.0
C274 C 0.2071 0.14156 0.10351 0.0
C275 C 0.21425 0.11217 0.12035 0.0
C276 C 0.24044 0.15241 0.14485 0.0
N277 N 0.22324 0.16685 0.11923 0.0
O278 O 0.20944 0.08945 0.19902 0.0
H279 H 0.20179 0.08849 0.11559 0.0
H280 H 0.25431 0.16649 0.16371 0.0
O281 O 0.23788 0.04971 0.1538 0.0
C282 C 0.20018 0.11356 0.21813 0.0
O283 O 0.22269 0.13545 0.22888 0.0
N284 N 0.29576 0.092 0.16097 0.0
C285 C 0.35201 0.11507 0.1262 0.0
C286 C 0.33985 0.08202 0.12105 0.0
C287 C 0.31177 0.07068 0.13929 0.0
C288 C 0.31029 0.12186 0.16989 0.0
C289 C 0.33814 0.13424 0.15242 0.0
H290 H 0.3024 0.04552 0.13497 0.0
H291 H 0.29857 0.13732 0.18911 0.0
H292 H 0.26857 0.01151 0.1907 0.0
H293 H 0.28757 0.04075 0.29085 0.0
H294 H 0.18913 0.14469 0.0832 0.0
H295 H 0.35044 0.06588 0.10169 0.0
H296 H 0.34763 0.15922 0.15827 0.0
C297 C 0.1754 0.02531 0.4953 0.0
C298 C 0.20384 0.03282 0.51396 0.0
N299 N 0.23063 0.03146 0.49309 0.0
N300 N 0.18453 0.01875 0.46314 0.0
C301 C 0.21837 0.02316 0.46251 0.0
H302 H 0.1499 0.02333 0.50485 0.0
Co303 Co 0.15622 0.00271 0.42943 0.0
C304 C 0.21085 0.98694 0.37527 0.0
O305 O 0.19702 0.00132 0.34875 0.0
N306 N 0.12708 0.98612 0.39582 0.0
C307 C 0.10406 0.95703 0.35355 0.0
C308 C 0.13344 0.96418 0.3704 0.0
C309 C 0.0932 0.99047 0.39481 0.0
N310 N 0.07877 0.97324 0.36921 0.0
O311 O 0.15617 0.95945 0.44904 0.0
H312 H 0.15712 0.95168 0.3657 0.0
H313 H 0.07913 0.00438 0.41364 0.0
O314 O 0.19591 0.98787 0.40381 0.0
C315 C 0.13204 0.95019 0.46813 0.0
O316 O 0.11012 0.9727 0.47884 0.0
N317 N 0.15361 0.04575 0.41096 0.0
C318 C 0.13054 0.10201 0.37618 0.0
C319 C 0.16358 0.08983 0.37102 0.0
C320 C 0.17493 0.06176 0.38925 0.0
C321 C 0.12376 0.0603 0.41989 0.0
C322 C 0.11137 0.08815 0.4024 0.0
H323 H 0.20009 0.05238 0.38493 0.0
H324 H 0.10831 0.04859 0.43912 0.0
H325 H 0.2341 0.01859 0.4407 0.0
H326 H 0.20487 0.03756 0.54086 0.0
H327 H 0.10093 0.93902 0.33328 0.0
H328 H 0.17972 0.10042 0.35165 0.0
H329 H 0.0864 0.09764 0.40826 0.0
C330 C 0.22032 0.9254 0.74528 0.0
C331 C 0.2128 0.95383 0.76395 0.0
N332 N 0.21417 0.98063 0.74308 0.0
N333 N 0.22689 0.93453 0.71313 0.0
C334 C 0.22248 0.96837 0.7125 0.0
H335 H 0.22228 0.8999 0.75483 0.0
Co336 Co 0.24291 0.90621 0.67941 0.0
C337 C 0.25865 0.96088 0.62526 0.0
O338 O 0.24423 0.94709 0.59874 0.0
N339 N 0.25949 0.87707 0.6458 0.0
C340 C 0.2885 0.85404 0.60349 0.0
C341 C 0.28135 0.88343 0.62032 0.0
C342 C 0.25518 0.84319 0.64486 0.0
N343 N 0.27237 0.82875 0.61923 0.0
O344 O 0.28618 0.90616 0.69901 0.0
H345 H 0.2938 0.90712 0.61555 0.0
H346 H 0.24133 0.82912 0.66373 0.0
O347 O 0.25774 0.9459 0.65379 0.0
C348 C 0.29544 0.88205 0.71812 0.0
O349 O 0.27293 0.86016 0.72887 0.0
N350 N 0.19986 0.9036 0.66096 0.0
C351 C 0.1436 0.88053 0.62619 0.0
C352 C 0.15576 0.91358 0.62105 0.0
C353 C 0.18384 0.92493 0.63928 0.0
C354 C 0.18533 0.87374 0.66988 0.0
C355 C 0.15748 0.86136 0.65241 0.0
H356 H 0.19322 0.95009 0.63497 0.0
H357 H 0.19705 0.85829 0.6891 0.0
H358 H 0.22705 0.9841 0.69069 0.0
H359 H 0.20804 0.95486 0.79084 0.0
H360 H 0.30646 0.85091 0.58317 0.0
H361 H 0.14517 0.92973 0.60169 0.0
H362 H 0.14799 0.83638 0.65826 0.0
C363 C 0.32022 0.97031 0.9953 0.0
C364 C 0.29178 0.96279 0.01397 0.0
N365 N 0.26499 0.96416 0.9931 0.0
N366 N 0.31109 0.97687 0.96314 0.0
C367 C 0.27724 0.97246 0.96252 0.0
H368 H 0.34572 0.97228 0.00485 0.0
Co369 Co 0.3394 0.99291 0.92943 0.0
C370 C 0.28477 0.00867 0.87527 0.0
O371 O 0.2986 0.99429 0.84875 0.0
N372 N 0.36854 0.0095 0.89582 0.0
C373 C 0.39156 0.03859 0.85355 0.0
C374 C 0.36218 0.03144 0.8704 0.0
C375 C 0.40241 0.00515 0.89482 0.0
N376 N 0.41685 0.02238 0.86922 0.0
O377 O 0.33945 0.03616 0.94904 0.0
H378 H 0.3385 0.04393 0.8657 0.0
H379 H 0.41649 0.99124 0.91364 0.0
O380 O 0.29971 0.00774 0.90381 0.0
C381 C 0.36357 0.04542 0.96813 0.0
O382 O 0.38549 0.02291 0.97885 0.0
N383 N 0.342 0.94986 0.91096 0.0
C384 C 0.36508 0.89361 0.87618 0.0
C385 C 0.33203 0.90578 0.87103 0.0
C386 C 0.32069 0.93385 0.88926 0.0
C387 C 0.37186 0.93532 0.91989 0.0
C388 C 0.38424 0.90747 0.90241 0.0
H389 H 0.29553 0.94324 0.88494 0.0
H390 H 0.38731 0.94703 0.93912 0.0
H391 H 0.26151 0.97703 0.9407 0.0
H392 H 0.29075 0.95805 0.04086 0.0
H393 H 0.39468 0.0566 0.83328 0.0
H394 H 0.31589 0.89519 0.85165 0.0
H395 H 0.40922 0.89797 0.90826 0.0
C396 C 0.27535 0.92541 0.25037 0.0
C397 C 0.28287 0.95384 0.2317 0.0
N398 N 0.28138 0.98065 0.25254 0.0
N399 N 0.2687 0.93455 0.28251 0.0
C400 C 0.27305 0.9684 0.28312 0.0
H401 H 0.27348 0.89989 0.24084 0.0
Co402 Co 0.25268 0.90623 0.31622 0.0
C403 C 0.23695 0.96092 0.37035 0.0
O404 O 0.25144 0.94722 0.39688 0.0
N405 N 0.23612 0.87707 0.34983 0.0
C406 C 0.20718 0.85404 0.39219 0.0
C407 C 0.21433 0.88344 0.37537 0.0
C408 C 0.24038 0.84318 0.35074 0.0
N409 N 0.22323 0.82874 0.37639 0.0
O410 O 0.20943 0.90616 0.29662 0.0
H411 H 0.20193 0.90714 0.38021 0.0
H412 H 0.25418 0.82912 0.33182 0.0
O413 O 0.23784 0.9459 0.34185 0.0
C414 C 0.20017 0.88206 0.27749 0.0
O415 O 0.22269 0.86018 0.26673 0.0
N416 N 0.29573 0.90363 0.33467 0.0
C417 C 0.352 0.88055 0.36944 0.0
C418 C 0.33985 0.91361 0.37457 0.0
C419 C 0.31177 0.92496 0.35634 0.0
C420 C 0.31025 0.87376 0.32576 0.0
C421 C 0.33811 0.86138 0.34323 0.0
H422 H 0.30241 0.95013 0.36063 0.0
H423 H 0.29853 0.8583 0.30655 0.0
H424 H 0.26844 0.98413 0.30492 0.0
H425 H 0.28773 0.95486 0.20483 0.0
H426 H 0.18927 0.85092 0.41256 0.0
H427 H 0.35045 0.92976 0.39392 0.0
H428 H 0.34759 0.83639 0.33739 0.0
C429 C 0.3202 0.02535 0.50038 0.0
C430 C 0.29177 0.03287 0.48171 0.0
N431 N 0.26496 0.03137 0.50255 0.0
N432 N 0.31106 0.01869 0.53251 0.0
C433 C 0.27721 0.02303 0.53312 0.0
H434 H 0.34572 0.02349 0.49085 0.0
Co435 Co 0.33939 0.00268 0.56623 0.0
C436 C 0.28466 0.98698 0.62035 0.0
O437 O 0.29833 0.00149 0.64689 0.0
N438 N 0.36854 0.98613 0.59984 0.0
C439 C 0.39159 0.95726 0.64224 0.0
C440 C 0.36218 0.96441 0.62544 0.0
C441 C 0.40244 0.99035 0.6007 0.0
N442 N 0.41689 0.97324 0.62637 0.0
O443 O 0.33945 0.95941 0.54665 0.0
H444 H 0.33847 0.95205 0.63034 0.0
H445 H 0.4165 0.0041 0.58174 0.0
O446 O 0.29972 0.98785 0.59186 0.0
C447 C 0.36354 0.95016 0.5275 0.0
O448 O 0.3854 0.97268 0.5167 0.0
N449 N 0.34199 0.04574 0.58466 0.0
C450 C 0.36507 0.10201 0.61942 0.0
C451 C 0.332 0.08987 0.62454 0.0
C452 C 0.32066 0.06179 0.60632 0.0
C453 C 0.37187 0.06025 0.57576 0.0
C454 C 0.38425 0.08811 0.59323 0.0
H455 H 0.29548 0.05243 0.6106 0.0
H456 H 0.38733 0.04851 0.55656 0.0
H457 H 0.26147 0.01842 0.55492 0.0
H458 H 0.29076 0.03774 0.45483 0.0
H459 H 0.39471 0.9394 0.66266 0.0
H460 H 0.31585 0.10048 0.64388 0.0
H461 H 0.40924 0.09758 0.58739 0.0
C462 C 0.22027 0.0702 0.75036 0.0
C463 C 0.21276 0.04177 0.73169 0.0
N464 N 0.21425 0.01496 0.75253 0.0
N465 N 0.22692 0.06106 0.7825 0.0
C466 C 0.22257 0.02721 0.78311 0.0
H467 H 0.22215 0.09572 0.74083 0.0
Co468 Co 0.24294 0.08938 0.81621 0.0
C469 C 0.25867 0.03469 0.87034 0.0
O470 O 0.24418 0.0484 0.89687 0.0
N471 N 0.25951 0.11854 0.84982 0.0
C472 C 0.28845 0.14157 0.89218 0.0
C473 C 0.2813 0.11217 0.87536 0.0
C474 C 0.25524 0.15242 0.85073 0.0
N475 N 0.27239 0.16687 0.87638 0.0
O476 O 0.2862 0.08945 0.79661 0.0
H477 H 0.2937 0.08847 0.88019 0.0
H478 H 0.24144 0.16649 0.83182 0.0
O479 O 0.25779 0.04971 0.84184 0.0
C480 C 0.29545 0.11355 0.77748 0.0
O481 O 0.27293 0.13543 0.76672 0.0
N482 N 0.19989 0.09198 0.83466 0.0
C483 C 0.14363 0.11506 0.86942 0.0
C484 C 0.15577 0.082 0.87455 0.0
C485 C 0.18385 0.07065 0.85633 0.0
C486 C 0.18537 0.12185 0.82575 0.0
C487 C 0.15751 0.13423 0.84322 0.0
H488 H 0.19322 0.04548 0.86062 0.0
H489 H 0.19709 0.13731 0.80654 0.0
H490 H 0.22718 0.01147 0.80491 0.0
H491 H 0.2079 0.04075 0.70481 0.0
H492 H 0.30636 0.14468 0.91254 0.0
H493 H 0.14517 0.06584 0.89391 0.0
H494 H 0.14803 0.15922 0.83738 0.0
C495 C 0.17541 0.97026 0.00038 0.0
C496 C 0.20385 0.96274 0.98171 0.0
N497 N 0.23066 0.96425 0.00255 0.0
N498 N 0.18456 0.97693 0.03252 0.0
C499 C 0.21841 0.97259 0.03313 0.0
H500 H 0.14989 0.97212 0.99086 0.0
Co501 Co 0.15623 0.99293 0.06623 0.0
C502 C 0.21096 0.00863 0.12036 0.0
O503 O 0.19729 0.99412 0.14689 0.0
N504 N 0.12707 0.00949 0.09984 0.0
C505 C 0.10402 0.03835 0.14225 0.0
C506 C 0.13344 0.0312 0.12545 0.0
C507 C 0.09318 0.00527 0.1007 0.0
N508 N 0.07872 0.02237 0.12637 0.0
O509 O 0.15617 0.0362 0.04665 0.0
H510 H 0.15715 0.04355 0.13035 0.0
H511 H 0.07911 0.99153 0.08173 0.0
O512 O 0.1959 0.00777 0.09187 0.0
C513 C 0.13209 0.04545 0.0275 0.0
O514 O 0.11023 0.02293 0.0167 0.0
N515 N 0.15362 0.94987 0.08467 0.0
C516 C 0.13055 0.89361 0.11942 0.0
C517 C 0.16361 0.90574 0.12454 0.0
C518 C 0.17496 0.93383 0.10632 0.0
C519 C 0.12374 0.93537 0.07576 0.0
C520 C 0.11136 0.90751 0.09323 0.0
H521 H 0.20013 0.94318 0.1106 0.0
H522 H 0.10828 0.94711 0.05657 0.0
H523 H 0.23415 0.9772 0.05493 0.0
H524 H 0.20486 0.95787 0.95484 0.0
H525 H 0.10091 0.0562 0.16267 0.0
H526 H 0.17977 0.89513 0.14388 0.0
H527 H 0.08638 0.89804 0.08739 0.0
C528 C 0.24528 0.27529 0.0702 0.0
C529 C 0.26395 0.2828 0.04177 0.0
N530 N 0.24308 0.28144 0.01497 0.0
N531 N 0.21312 0.26873 0.06107 0.0
C532 C 0.2125 0.27313 0.02722 0.0
H533 H 0.25482 0.27331 0.09571 0.0
Co534 Co 0.17942 0.25269 0.08939 0.0
C535 C 0.12534 0.23692 0.03464 0.0
O536 O 0.0988 0.25151 0.04823 0.0
N537 N 0.14581 0.23611 0.11856 0.0
C538 C 0.10338 0.20727 0.14161 0.0
C539 C 0.12017 0.21443 0.11219 0.0
C540 C 0.14497 0.2403 0.15246 0.0
N541 N 0.1193 0.2232 0.16691 0.0
O542 O 0.19906 0.20947 0.08947 0.0
H543 H 0.11522 0.20213 0.08847 0.0
H544 H 0.16394 0.25403 0.16653 0.0
O545 O 0.1538 0.23779 0.04973 0.0
C546 C 0.21807 0.20022 0.11366 0.0
O547 O 0.22863 0.22271 0.13566 0.0
N548 N 0.16094 0.29573 0.09199 0.0
C549 C 0.12617 0.35198 0.11506 0.0
C550 C 0.12106 0.33985 0.08199 0.0
C551 C 0.1393 0.31178 0.07064 0.0
C552 C 0.16982 0.31023 0.12187 0.0
C553 C 0.15235 0.33808 0.13425 0.0
H554 H 0.13503 0.30243 0.04546 0.0
H555 H 0.18902 0.29849 0.13734 0.0
H556 H 0.19068 0.26856 0.01149 0.0
H557 H 0.29084 0.28755 0.04074 0.0
H558 H 0.08294 0.18944 0.14471 0.0
H559 H 0.10173 0.35047 0.06583 0.0
H560 H 0.15817 0.34754 0.15925 0.0
C561 C 0.74531 0.22035 0.92537 0.0
C562 C 0.76399 0.21287 0.9538 0.0
N563 N 0.74311 0.21416 0.9806 0.0
N564 N 0.71313 0.22682 0.93449 0.0
C565 C 0.71251 0.22238 0.96833 0.0
H566 H 0.75486 0.2224 0.89987 0.0
Co567 Co 0.67942 0.24287 0.90619 0.0
C568 C 0.62529 0.25872 0.96081 0.0
O569 O 0.59877 0.24432 0.947 0.0
N570 N 0.64582 0.25948 0.87705 0.0
C571 C 0.60357 0.28861 0.85403 0.0
C572 C 0.62043 0.28145 0.88341 0.0
C573 C 0.64479 0.25511 0.84317 0.0
N574 N 0.61921 0.27237 0.82874 0.0
O575 O 0.69909 0.28609 0.90612 0.0
H576 H 0.61574 0.29396 0.90708 0.0
H577 H 0.66359 0.24116 0.8291 0.0
O578 O 0.65384 0.25776 0.94588 0.0
C579 C 0.71802 0.29536 0.88187 0.0
O580 O 0.72845 0.27289 0.85979 0.0
N581 N 0.66092 0.19984 0.9036 0.0
C582 C 0.62612 0.14359 0.88054 0.0
C583 C 0.62096 0.15579 0.91358 0.0
C584 C 0.6392 0.18386 0.92492 0.0
C585 C 0.66985 0.18528 0.87376 0.0
C586 C 0.65237 0.15743 0.86138 0.0
H587 H 0.63488 0.19325 0.95007 0.0
H588 H 0.68909 0.19697 0.85831 0.0
H589 H 0.69068 0.2269 0.98406 0.0
H590 H 0.79089 0.20821 0.95483 0.0
H591 H 0.58333 0.30666 0.8509 0.0
H592 H 0.60157 0.14523 0.92972 0.0
H593 H 0.65824 0.14791 0.83642 0.0
C594 C 0.02532 0.49533 0.17539 0.0
C595 C 0.03282 0.514 0.20383 0.0
N596 N 0.03157 0.4931 0.23062 0.0
N597 N 0.01889 0.46314 0.1845 0.0
C598 C 0.02336 0.4625 0.21834 0.0
H599 H 0.02321 0.5049 0.14991 0.0
Co600 Co 0.00277 0.42946 0.15621 0.0
C601 C 0.98679 0.37526 0.21066 0.0
O602 O 0.00098 0.34874 0.19662 0.0
N603 N 0.98608 0.39588 0.12707 0.0
C604 C 0.95657 0.35389 0.10407 0.0
C605 C 0.96375 0.3708 0.13342 0.0
C606 C 0.99064 0.39464 0.09323 0.0
N607 N 0.97317 0.36919 0.07881 0.0
O608 O 0.95959 0.44921 0.15617 0.0
H609 H 0.95103 0.36642 0.15704 0.0
H610 H 0.00488 0.4132 0.07914 0.0
O611 O 0.98787 0.4039 0.19591 0.0
C612 C 0.95032 0.46799 0.13181 0.0
O613 O 0.97278 0.47819 0.10959 0.0
N614 N 0.04577 0.41089 0.15361 0.0
C615 C 0.10202 0.37609 0.13056 0.0
C616 C 0.08976 0.37084 0.16356 0.0
C617 C 0.06169 0.38908 0.1749 0.0
C618 C 0.06039 0.41988 0.12382 0.0
C619 C 0.08823 0.40239 0.11144 0.0
H620 H 0.05224 0.38469 0.20002 0.0
H621 H 0.04874 0.43918 0.10841 0.0
H622 H 0.01886 0.44066 0.23406 0.0
H623 H 0.03745 0.54091 0.20487 0.0
H624 H 0.93823 0.33391 0.10093 0.0
H625 H 0.10027 0.35141 0.17966 0.0
H626 H 0.0978 0.40831 0.08651 0.0
C627 C 0.75031 0.77529 0.42538 0.0
C628 C 0.73164 0.7828 0.45381 0.0
N629 N 0.75252 0.78152 0.48061 0.0
N630 N 0.78249 0.76883 0.4345 0.0
C631 C 0.78312 0.77328 0.46834 0.0
H632 H 0.74075 0.77323 0.39989 0.0
Co633 Co 0.81618 0.75276 0.4062 0.0
C634 C 0.87033 0.73687 0.46078 0.0
O635 O 0.89686 0.75122 0.44692 0.0
N636 N 0.84978 0.73613 0.37706 0.0
C637 C 0.89197 0.70691 0.35403 0.0
C638 C 0.8751 0.71407 0.38341 0.0
C639 C 0.85086 0.74054 0.34319 0.0
N640 N 0.87641 0.72324 0.32876 0.0
O641 O 0.7965 0.70955 0.40613 0.0
H642 H 0.87972 0.70152 0.40707 0.0
H643 H 0.83211 0.75456 0.32911 0.0
O644 O 0.84176 0.73786 0.44589 0.0
C645 C 0.77761 0.70028 0.38185 0.0
O646 O 0.76723 0.72275 0.35974 0.0
N647 N 0.83471 0.79578 0.40361 0.0
C648 C 0.86951 0.85203 0.38055 0.0
C649 C 0.8747 0.83981 0.41357 0.0
C650 C 0.85645 0.81174 0.42492 0.0
C651 C 0.82576 0.81036 0.37378 0.0
C652 C 0.84325 0.8382 0.3614 0.0
H653 H 0.86079 0.80234 0.45006 0.0
H654 H 0.8065 0.79868 0.35834 0.0
H655 H 0.80495 0.76877 0.48406 0.0
H656 H 0.70473 0.78746 0.45485 0.0
H657 H 0.91215 0.6888 0.35091 0.0
H658 H 0.89409 0.85036 0.4297 0.0
H659 H 0.83736 0.84773 0.33645 0.0
C660 C 0.97032 0.00036 0.17538 0.0
C661 C 0.96282 0.98169 0.20381 0.0
N662 N 0.96416 0.00255 0.23061 0.0
N663 N 0.97683 0.03253 0.18451 0.0
C664 C 0.97242 0.03315 0.21836 0.0
H665 H 0.97233 0.99082 0.14988 0.0
Co666 Co 0.99289 0.06623 0.15619 0.0
C667 C 0.00871 0.12033 0.2109 0.0
O668 O 0.9942 0.14686 0.19723 0.0
N669 N 0.0095 0.09983 0.12704 0.0
C670 C 0.03848 0.14216 0.10399 0.0
C671 C 0.0313 0.12536 0.1334 0.0
C672 C 0.00525 0.10073 0.09314 0.0
N673 N 0.02243 0.12635 0.0787 0.0
O674 O 0.0361 0.04655 0.15613 0.0
H675 H 0.04367 0.13022 0.1571 0.0
H676 H 0.99142 0.08183 0.07908 0.0
O677 O 0.00779 0.09183 0.19587 0.0
C678 C 0.04536 0.0276 0.13189 0.0
O679 O 0.02289 0.01717 0.10981 0.0
N680 N 0.94986 0.08474 0.15359 0.0
C681 C 0.89359 0.11951 0.13054 0.0
C682 C 0.90577 0.12465 0.16359 0.0
C683 C 0.93385 0.10641 0.17493 0.0
C684 C 0.93533 0.07583 0.12373 0.0
C685 C 0.90746 0.0933 0.11137 0.0
H686 H 0.94322 0.1107 0.2001 0.0
H687 H 0.94704 0.05661 0.10827 0.0
H688 H 0.97698 0.05497 0.23408 0.0
H689 H 0.95812 0.95479 0.20484 0.0
H690 H 0.0564 0.16252 0.10088 0.0
H691 H 0.89519 0.14401 0.17975 0.0
H692 H 0.89796 0.08744 0.0864 0.0
C693 C 0.25035 0.72031 0.57021 0.0
C694 C 0.23168 0.7128 0.54177 0.0
N695 N 0.25254 0.71417 0.51497 0.0
N696 N 0.28251 0.72686 0.56108 0.0
C697 C 0.28313 0.72247 0.52723 0.0
H698 H 0.24081 0.72229 0.59571 0.0
Co699 Co 0.31621 0.74291 0.5894 0.0
C700 C 0.3703 0.7587 0.53466 0.0
O701 O 0.39683 0.74412 0.54827 0.0
N702 N 0.34982 0.7595 0.61857 0.0
C703 C 0.39222 0.78837 0.64161 0.0
C704 C 0.37543 0.7812 0.6122 0.0
C705 C 0.35067 0.75529 0.65247 0.0
N706 N 0.37633 0.77242 0.66692 0.0
O707 O 0.29656 0.78613 0.58947 0.0
H708 H 0.38036 0.79352 0.58848 0.0
H709 H 0.33171 0.74154 0.66653 0.0
O710 O 0.34182 0.75781 0.54973 0.0
C711 C 0.27755 0.79538 0.61366 0.0
O712 O 0.26701 0.77289 0.63568 0.0
N713 N 0.3347 0.69987 0.592 0.0
C714 C 0.36948 0.64362 0.61506 0.0
C715 C 0.3746 0.65577 0.582 0.0
C716 C 0.35635 0.68384 0.57065 0.0
C717 C 0.32581 0.68536 0.62188 0.0
C718 C 0.34329 0.65751 0.63425 0.0
H719 H 0.36062 0.69319 0.54548 0.0
H720 H 0.30661 0.69709 0.63734 0.0
H721 H 0.30494 0.72704 0.5115 0.0
H722 H 0.20479 0.70805 0.54075 0.0
H723 H 0.41264 0.80622 0.64472 0.0
H724 H 0.39394 0.64516 0.56583 0.0
H725 H 0.33745 0.64803 0.65923 0.0
C726 C 0.02538 0.50035 0.32019 0.0
C727 C 0.03292 0.48169 0.29176 0.0
N728 N 0.03145 0.50254 0.26495 0.0
N729 N 0.01874 0.5325 0.31106 0.0
C730 C 0.02312 0.53312 0.27721 0.0
H731 H 0.02348 0.49081 0.34571 0.0
Co732 Co 0.00271 0.5662 0.33939 0.0
C733 C 0.9869 0.62032 0.28471 0.0
O734 O 0.0014 0.64685 0.29841 0.0
N735 N 0.98613 0.5998 0.36856 0.0
C736 C 0.95717 0.64215 0.39159 0.0
C737 C 0.96431 0.62532 0.36219 0.0
C738 C 0.99041 0.60073 0.40244 0.0
N739 N 0.97326 0.62637 0.41689 0.0
O740 O 0.95947 0.54657 0.33946 0.0
H741 H 0.9519 0.63014 0.3385 0.0
H742 H 0.00424 0.58183 0.41651 0.0
O743 O 0.98783 0.59181 0.29973 0.0
C744 C 0.95022 0.52753 0.36364 0.0
O745 O 0.97273 0.51691 0.38559 0.0
N746 N 0.04575 0.58467 0.34199 0.0
C747 C 0.102 0.61947 0.36506 0.0
C748 C 0.08983 0.62461 0.33201 0.0
C749 C 0.06176 0.60636 0.32066 0.0
C750 C 0.06028 0.57576 0.37185 0.0
C751 C 0.08813 0.59325 0.38423 0.0
H752 H 0.05239 0.61066 0.2955 0.0
H753 H 0.04857 0.55654 0.38731 0.0
H754 H 0.01853 0.55493 0.26149 0.0
H755 H 0.03778 0.45482 0.29074 0.0
H756 H 0.93924 0.6625 0.39471 0.0
H757 H 0.10041 0.64397 0.31585 0.0
H758 H 0.09763 0.5874 0.4092 0.0
C759 C 0.47032 0.4953 0.82022 0.0
C760 C 0.4628 0.51397 0.79179 0.0
N761 N 0.46412 0.49309 0.76499 0.0
N762 N 0.47684 0.46314 0.8111 0.0
C763 C 0.4724 0.4625 0.77726 0.0
H764 H 0.47233 0.50486 0.84572 0.0
Co765 Co 0.49289 0.42943 0.83941 0.0
C766 C 0.50873 0.37531 0.78476 0.0
O767 O 0.49429 0.34878 0.79853 0.0
N768 N 0.5095 0.39583 0.86856 0.0
C769 C 0.53856 0.35354 0.89159 0.0
C770 C 0.53141 0.37039 0.8622 0.0
C771 C 0.50516 0.39484 0.90244 0.0
N772 N 0.52238 0.36923 0.91688 0.0
O773 O 0.53611 0.44909 0.83948 0.0
H774 H 0.54388 0.36566 0.83852 0.0
H775 H 0.49125 0.41367 0.91652 0.0
O776 O 0.50778 0.40384 0.79973 0.0
C777 C 0.54538 0.46807 0.86369 0.0
O778 O 0.52289 0.47859 0.88572 0.0
N779 N 0.44986 0.41093 0.842 0.0
C780 C 0.39361 0.37614 0.86507 0.0
C781 C 0.4058 0.37098 0.83202 0.0
C782 C 0.43387 0.38923 0.82068 0.0
C783 C 0.43531 0.41986 0.87185 0.0
C784 C 0.40746 0.40237 0.88423 0.0
H785 H 0.44325 0.38492 0.79552 0.0
H786 H 0.44701 0.43909 0.8873 0.0
H787 H 0.47695 0.44068 0.76153 0.0
H788 H 0.45808 0.54087 0.79075 0.0
H789 H 0.55656 0.33326 0.8947 0.0
H790 H 0.39523 0.35161 0.81588 0.0
H791 H 0.39795 0.40823 0.9092 0.0
C792 C 0.57022 0.74528 0.77538 0.0
C793 C 0.54178 0.76395 0.7829 0.0
N794 N 0.51498 0.74309 0.78147 0.0
N795 N 0.56109 0.71313 0.7688 0.0
C796 C 0.52724 0.71251 0.77319 0.0
H797 H 0.59573 0.75483 0.77342 0.0
Co798 Co 0.5894 0.67943 0.75274 0.0
C799 C 0.53481 0.62527 0.7369 0.0
O800 O 0.54865 0.59875 0.75127 0.0
N801 N 0.61855 0.64583 0.73613 0.0
C802 C 0.64159 0.60362 0.70697 0.0
C803 C 0.6122 0.62047 0.71413 0.0
C804 C 0.65242 0.6448 0.74052 0.0
N805 N 0.66686 0.61923 0.72324 0.0
O806 O 0.58947 0.69909 0.70952 0.0
H807 H 0.58854 0.61581 0.7016 0.0
H808 H 0.66649 0.66358 0.75449 0.0
O809 O 0.54972 0.65383 0.73787 0.0
C810 C 0.6137 0.71804 0.70026 0.0
O811 O 0.63574 0.72854 0.72275 0.0
N812 N 0.59199 0.66093 0.79578 0.0
C813 C 0.61504 0.62615 0.85205 0.0
C814 C 0.58201 0.62097 0.83984 0.0
C815 C 0.57068 0.63921 0.81176 0.0
C816 C 0.62183 0.66987 0.81035 0.0
C817 C 0.6342 0.6524 0.8382 0.0
H818 H 0.54553 0.63487 0.80235 0.0
H819 H 0.63727 0.68912 0.79865 0.0
H820 H 0.51151 0.69069 0.76863 0.0
H821 H 0.54076 0.79084 0.7877 0.0
H822 H 0.64472 0.58341 0.68889 0.0
H823 H 0.56588 0.60159 0.8504 0.0
H824 H 0.65916 0.65827 0.84773 0.0
C825 C 0.50036 0.32018 0.0254 0.0
C826 C 0.4817 0.29175 0.03293 0.0
N827 N 0.50255 0.26495 0.03147 0.0
N828 N 0.53251 0.31105 0.01878 0.0
C829 C 0.53313 0.2772 0.02315 0.0
H830 H 0.49082 0.3457 0.02348 0.0
Co831 Co 0.5662 0.33937 0.00271 0.0
C832 C 0.62036 0.28479 0.98687 0.0
O833 O 0.64689 0.29863 0.00123 0.0
N834 N 0.59979 0.36852 0.98609 0.0
C835 C 0.64198 0.39155 0.95689 0.0
C836 C 0.62513 0.36217 0.96406 0.0
C837 C 0.60083 0.40239 0.99048 0.0
N838 N 0.62639 0.41683 0.97319 0.0
O839 O 0.54653 0.33943 0.95949 0.0
H840 H 0.62978 0.33851 0.95153 0.0
H841 H 0.58207 0.41647 0.00447 0.0
O842 O 0.5918 0.29969 0.98784 0.0
C843 C 0.52753 0.36363 0.95024 0.0
O844 O 0.51697 0.38563 0.97274 0.0
N845 N 0.58471 0.34196 0.04574 0.0
C846 C 0.61947 0.36502 0.10202 0.0
C847 C 0.62465 0.33199 0.08982 0.0
C848 C 0.60643 0.32065 0.06173 0.0
C849 C 0.57576 0.3718 0.06031 0.0
C850 C 0.59323 0.38418 0.08816 0.0
H851 H 0.61077 0.29551 0.05233 0.0
H852 H 0.55651 0.38724 0.04861 0.0
H853 H 0.55494 0.26147 0.01856 0.0
H854 H 0.45482 0.29073 0.03777 0.0
H855 H 0.66217 0.39468 0.93879 0.0
H856 H 0.64404 0.31586 0.10039 0.0
H857 H 0.58736 0.40914 0.09768 0.0
C858 C 0.9254 0.25035 0.27535 0.0
C859 C 0.95384 0.23168 0.28287 0.0
N860 N 0.98064 0.25254 0.28148 0.0
N861 N 0.93453 0.28251 0.26881 0.0
C862 C 0.96838 0.28313 0.27322 0.0
H863 H 0.8999 0.2408 0.27336 0.0
Co864 Co 0.90622 0.3162 0.25274 0.0
C865 C 0.96083 0.37031 0.23682 0.0
O866 O 0.94707 0.39684 0.25126 0.0
N867 N 0.87706 0.34979 0.23611 0.0
C868 C 0.85403 0.39202 0.20696 0.0
C869 C 0.88341 0.37517 0.21413 0.0
C870 C 0.84319 0.35082 0.24048 0.0
N871 N 0.82875 0.3764 0.22322 0.0
O872 O 0.90613 0.29648 0.20955 0.0
H873 H 0.90708 0.37987 0.20162 0.0
H874 H 0.82911 0.33204 0.25445 0.0
O875 O 0.94589 0.34177 0.2378 0.0
C876 C 0.88181 0.27765 0.2003 0.0
O877 O 0.85963 0.26739 0.22276 0.0
N878 N 0.90365 0.33474 0.29575 0.0
C879 C 0.8806 0.3695 0.35202 0.0
C880 C 0.91364 0.37468 0.33982 0.0
C881 C 0.92497 0.35645 0.31173 0.0
C882 C 0.87381 0.32579 0.31032 0.0
C883 C 0.86145 0.34326 0.33818 0.0
H884 H 0.95012 0.36078 0.30233 0.0
H885 H 0.85837 0.30655 0.29863 0.0
H886 H 0.9841 0.30496 0.26868 0.0
H887 H 0.95486 0.20479 0.28764 0.0
H888 H 0.85091 0.41223 0.18887 0.0
H889 H 0.92977 0.39407 0.35038 0.0
H890 H 0.83649 0.33738 0.3477 0.0
C891 C 0.99526 0.67542 0.52539 0.0
C892 C 0.01393 0.70386 0.53292 0.0
N893 N 0.99307 0.73066 0.53147 0.0
N894 N 0.96311 0.68455 0.51879 0.0
C895 C 0.96249 0.7184 0.52317 0.0
H896 H 0.0048 0.64991 0.52346 0.0
Co897 Co 0.92942 0.65623 0.50272 0.0
C898 C 0.87527 0.71082 0.48685 0.0
O899 O 0.84873 0.69699 0.50123 0.0
N900 N 0.89583 0.62708 0.48609 0.0
C901 C 0.85363 0.60405 0.45691 0.0
C902 C 0.87048 0.63343 0.46407 0.0
C903 C 0.89478 0.59321 0.49049 0.0
N904 N 0.86922 0.57877 0.4732 0.0
O905 O 0.9491 0.65617 0.4595 0.0
H906 H 0.86583 0.6571 0.45154 0.0
H907 H 0.91355 0.57913 0.50448 0.0
O908 O 0.90382 0.69591 0.48783 0.0
C909 C 0.96807 0.63194 0.45025 0.0
O910 O 0.97856 0.6099 0.47274 0.0
N911 N 0.9109 0.65364 0.54574 0.0
C912 C 0.87613 0.63058 0.60201 0.0
C913 C 0.87094 0.66361 0.5898 0.0
C914 C 0.88918 0.67495 0.56172 0.0
C915 C 0.91985 0.6238 0.56031 0.0
C916 C 0.90237 0.61143 0.58816 0.0
H917 H 0.88484 0.7001 0.55232 0.0
H918 H 0.9391 0.60836 0.54862 0.0
H919 H 0.94067 0.73412 0.51859 0.0
H920 H 0.04081 0.70488 0.53774 0.0
H921 H 0.83343 0.60092 0.43881 0.0
H922 H 0.85156 0.67974 0.60037 0.0
H923 H 0.90825 0.58646 0.59768 0.0
C924 C 0.5702 0.25037 0.72018 0.0
C925 C 0.54177 0.23171 0.71265 0.0
N926 N 0.51496 0.25256 0.71413 0.0
N927 N 0.56107 0.28252 0.72682 0.0
C928 C 0.52722 0.28313 0.72246 0.0
H929 H 0.59572 0.24084 0.72209 0.0
Co930 Co 0.58939 0.3162 0.7429 0.0
C931 C 0.53482 0.37038 0.75874 0.0
O932 O 0.5487 0.39692 0.74441 0.0
N933 N 0.61855 0.34979 0.75954 0.0
C934 C 0.64156 0.39196 0.78877 0.0
C935 C 0.61219 0.3751 0.7816 0.0
C936 C 0.65241 0.35086 0.75514 0.0
N937 N 0.66684 0.3764 0.77245 0.0
O938 O 0.58943 0.29654 0.78612 0.0
H939 H 0.58852 0.37972 0.79414 0.0
H940 H 0.66649 0.33211 0.74112 0.0
O941 O 0.54971 0.34181 0.75776 0.0
C942 C 0.6136 0.27751 0.79537 0.0
O943 O 0.63559 0.26692 0.77288 0.0
N944 N 0.59201 0.33472 0.69988 0.0
C945 C 0.61508 0.36949 0.64362 0.0
C946 C 0.58205 0.37468 0.65582 0.0
C947 C 0.5707 0.35645 0.6839 0.0
C948 C 0.62184 0.32577 0.68531 0.0
C949 C 0.63422 0.34325 0.65746 0.0
H950 H 0.54556 0.36079 0.6933 0.0
H951 H 0.63728 0.30651 0.697 0.0
H952 H 0.51149 0.30494 0.72707 0.0
H953 H 0.54075 0.20483 0.7078 0.0
H954 H 0.64469 0.41214 0.80689 0.0
H955 H 0.56592 0.39408 0.64526 0.0
H956 H 0.65918 0.33736 0.64794 0.0
C957 C 0.99528 0.32021 0.97018 0.0
C958 C 0.01394 0.29177 0.96265 0.0
N959 N 0.9931 0.26496 0.96415 0.0
N960 N 0.96314 0.31107 0.97686 0.0
C961 C 0.96253 0.27721 0.9725 0.0
H962 H 0.00481 0.34572 0.97206 0.0
Co963 Co 0.92943 0.33939 0.99291 0.0
C964 C 0.87521 0.28484 0.00865 0.0
O965 O 0.84868 0.2988 0.99439 0.0
N966 N 0.89584 0.36853 0.00952 0.0
C967 C 0.85367 0.39154 0.03875 0.0
C968 C 0.87054 0.36217 0.03159 0.0
C969 C 0.89477 0.40239 0.00511 0.0
N970 N 0.86923 0.41682 0.02243 0.0
O971 O 0.94902 0.3394 0.03618 0.0
H972 H 0.86594 0.33851 0.04416 0.0
H973 H 0.91352 0.41647 0.9911 0.0
O974 O 0.90379 0.29969 0.00769 0.0
C975 C 0.96817 0.36349 0.04544 0.0
O976 O 0.979 0.38533 0.02292 0.0
N977 N 0.91097 0.34202 0.94985 0.0
C978 C 0.87619 0.36509 0.8936 0.0
C979 C 0.871 0.33206 0.9058 0.0
C980 C 0.88924 0.32072 0.93387 0.0
C981 C 0.91992 0.37186 0.93529 0.0
C982 C 0.90244 0.38424 0.90744 0.0
H983 H 0.88489 0.29557 0.94327 0.0
H984 H 0.93917 0.3873 0.94698 0.0
H985 H 0.94073 0.26148 0.97712 0.0
H986 H 0.04081 0.29076 0.95777 0.0
H987 H 0.83349 0.39468 0.05686 0.0
H988 H 0.85161 0.31593 0.89524 0.0
H989 H 0.90831 0.4092 0.89792 0.0
C990 C 0.92541 0.74527 0.22018 0.0
C991 C 0.95385 0.76393 0.21265 0.0
N992 N 0.98065 0.74308 0.21413 0.0
N993 N 0.93454 0.71312 0.22683 0.0
C994 C 0.96839 0.7125 0.22246 0.0
H995 H 0.8999 0.75481 0.22209 0.0
Co996 Co 0.90622 0.67943 0.2429 0.0
C997 C 0.96078 0.62524 0.25872 0.0
O998 O 0.94688 0.59871 0.24441 0.0
N999 N 0.87707 0.64585 0.25953 0.0
C1000 C 0.85406 0.60367 0.28876 0.0
C1001 C 0.88343 0.62054 0.2816 0.0
C1002 C 0.8432 0.64477 0.25512 0.0
N1003 N 0.82878 0.61922 0.27243 0.0
O1004 O 0.90619 0.69908 0.28613 0.0
H1005 H 0.90709 0.61593 0.29416 0.0
H1006 H 0.82912 0.66351 0.2411 0.0
O1007 O 0.9459 0.65381 0.25774 0.0
C1008 C 0.88203 0.71814 0.29539 0.0
O1009 O 0.86008 0.72878 0.27289 0.0
N1010 N 0.90359 0.66093 0.19987 0.0
C1011 C 0.88053 0.62613 0.14361 0.0
C1012 C 0.91355 0.62095 0.15583 0.0
C1013 C 0.9249 0.63919 0.1839 0.0
C1014 C 0.87376 0.66988 0.18529 0.0
C1015 C 0.86138 0.65239 0.15745 0.0
H1016 H 0.95004 0.63485 0.1933 0.0
H1017 H 0.85833 0.68913 0.19698 0.0
H1018 H 0.98412 0.69069 0.22706 0.0
H1019 H 0.95487 0.7908 0.2078 0.0
H1020 H 0.85093 0.5835 0.30688 0.0
H1021 H 0.92969 0.60155 0.14529 0.0
H1022 H 0.83643 0.65828 0.14792 0.0
C1023 C 0.50033 0.6754 0.47023 0.0
C1024 C 0.48166 0.70383 0.4627 0.0
N1025 N 0.50252 0.73064 0.46413 0.0
N1026 N 0.53249 0.68453 0.47682 0.0
C1027 C 0.53311 0.71838 0.47243 0.0
H1028 H 0.49079 0.64989 0.47217 0.0
Co1029 Co 0.56618 0.65622 0.49288 0.0
C1030 C 0.62036 0.71079 0.50871 0.0
O1031 O 0.64689 0.69691 0.49438 0.0
N1032 N 0.59978 0.62707 0.5095 0.0
C1033 C 0.64197 0.60405 0.5387 0.0
C1034 C 0.62511 0.63343 0.53154 0.0
C1035 C 0.60084 0.5932 0.5051 0.0
N1036 N 0.6264 0.57877 0.5224 0.0
O1037 O 0.54653 0.65617 0.53611 0.0
H1038 H 0.62973 0.65709 0.54409 0.0
H1039 H 0.58208 0.57913 0.4911 0.0
O1040 O 0.59179 0.69591 0.50773 0.0
C1041 C 0.52756 0.63195 0.54537 0.0
O1042 O 0.51701 0.60995 0.52288 0.0
N1043 N 0.58468 0.65361 0.44985 0.0
C1044 C 0.61947 0.63055 0.39359 0.0
C1045 C 0.62465 0.66358 0.4058 0.0
C1046 C 0.60642 0.67492 0.43387 0.0
C1047 C 0.57573 0.62378 0.43528 0.0
C1048 C 0.59322 0.6114 0.40742 0.0
H1049 H 0.61076 0.70007 0.44328 0.0
H1050 H 0.55648 0.60834 0.44696 0.0
H1051 H 0.55492 0.73411 0.47699 0.0
H1052 H 0.45478 0.70486 0.45789 0.0
H1053 H 0.66216 0.60092 0.55681 0.0
H1054 H 0.64405 0.67971 0.39525 0.0
H1055 H 0.58733 0.58645 0.3979 0.0
C1056 C 0.77533 0.57023 0.74531 0.0
C1057 C 0.78284 0.5418 0.76398 0.0
N1058 N 0.78149 0.515 0.74311 0.0
N1059 N 0.76879 0.5611 0.71314 0.0
C1060 C 0.7732 0.52726 0.71252 0.0
H1061 H 0.77333 0.59573 0.75486 0.0
Co1062 Co 0.75273 0.58941 0.67944 0.0
C1063 C 0.73691 0.53481 0.62528 0.0
O1064 O 0.75126 0.54867 0.59876 0.0
N1065 N 0.73612 0.61855 0.64584 0.0
C1066 C 0.70696 0.64157 0.60362 0.0
C1067 C 0.71411 0.61219 0.62048 0.0
C1068 C 0.74051 0.65242 0.64479 0.0
N1069 N 0.72324 0.66685 0.61921 0.0
O1070 O 0.70949 0.58946 0.69908 0.0
H1071 H 0.70158 0.58852 0.61583 0.0
H1072 H 0.75448 0.6665 0.66357 0.0
O1073 O 0.73787 0.54972 0.65384 0.0
C1074 C 0.70023 0.61363 0.71811 0.0
O1075 O 0.72273 0.63562 0.72872 0.0
N1076 N 0.79576 0.59201 0.66095 0.0
C1077 C 0.85201 0.61508 0.62615 0.0
C1078 C 0.83982 0.58205 0.62098 0.0
C1079 C 0.81175 0.5707 0.63922 0.0
C1080 C 0.81032 0.62185 0.66988 0.0
C1081 C 0.83817 0.63424 0.65239 0.0
H1082 H 0.80235 0.54555 0.63489 0.0
H1083 H 0.79863 0.63729 0.68913 0.0
H1084 H 0.76864 0.51153 0.69071 0.0
H1085 H 0.78757 0.54077 0.79087 0.0
H1086 H 0.68889 0.64469 0.58339 0.0
H1087 H 0.85038 0.56591 0.60159 0.0
H1088 H 0.84768 0.6592 0.65826 0.0
C1089 C 0.67539 0.52528 0.9953 0.0
C1090 C 0.70383 0.53278 0.01398 0.0
N1091 N 0.73063 0.53143 0.99312 0.0
N1092 N 0.68453 0.51875 0.96314 0.0
C1093 C 0.71837 0.52316 0.96253 0.0
H1094 H 0.64989 0.5233 0.00485 0.0
Co1095 Co 0.65622 0.50272 0.92942 0.0
C1096 C 0.71089 0.48698 0.87528 0.0
O1097 O 0.6971 0.50139 0.84875 0.0
N1098 N 0.62708 0.48613 0.89582 0.0
C1099 C 0.60403 0.4571 0.85352 0.0
C1100 C 0.63344 0.46427 0.87033 0.0
C1101 C 0.59319 0.49042 0.89489 0.0
N1102 N 0.57874 0.4732 0.86929 0.0
O1103 O 0.65617 0.45946 0.94903 0.0
H1104 H 0.65713 0.45184 0.86554 0.0
H1105 H 0.57912 0.50427 0.91376 0.0
O1106 O 0.69591 0.48789 0.90381 0.0
C1107 C 0.632 0.4502 0.96808 0.0
O1108 O 0.61004 0.4727 0.97871 0.0
N1109 N 0.65361 0.54577 0.91096 0.0
C1110 C 0.63053 0.60202 0.87619 0.0
C1111 C 0.66358 0.58986 0.87104 0.0
C1112 C 0.67493 0.56178 0.88928 0.0
C1113 C 0.62374 0.5603 0.91988 0.0
C1114 C 0.61136 0.58815 0.9024 0.0
H1115 H 0.70009 0.55241 0.88497 0.0
H1116 H 0.60829 0.54858 0.9391 0.0
H1117 H 0.73411 0.5186 0.94071 0.0
H1118 H 0.70485 0.5375 0.04088 0.0
H1119 H 0.60091 0.43915 0.83319 0.0
H1120 H 0.67973 0.60045 0.85168 0.0
H1121 H 0.58638 0.59764 0.90825 0.0
C1122 C 0.72028 0.42539 0.24533 0.0
C1123 C 0.71277 0.45382 0.264 0.0
N1124 N 0.71408 0.48062 0.24313 0.0
N1125 N 0.72678 0.43451 0.21316 0.0
C1126 C 0.72234 0.46836 0.21254 0.0
H1127 H 0.72231 0.39989 0.25489 0.0
Co1128 Co 0.74287 0.40622 0.17945 0.0
C1129 C 0.7587 0.46068 0.12521 0.0
O1130 O 0.74459 0.44657 0.09869 0.0
N1131 N 0.75953 0.37711 0.14586 0.0
C1132 C 0.78901 0.35411 0.10386 0.0
C1133 C 0.78183 0.38345 0.12077 0.0
C1134 C 0.75498 0.34326 0.14464 0.0
N1135 N 0.77244 0.32884 0.11918 0.0
O1136 O 0.78611 0.4062 0.19911 0.0
H1137 H 0.79455 0.40708 0.11637 0.0
H1138 H 0.74078 0.32917 0.16323 0.0
O1139 O 0.75767 0.44594 0.15386 0.0
C1140 C 0.79538 0.382 0.2181 0.0
O1141 O 0.77289 0.36 0.22867 0.0
N1142 N 0.69984 0.4036 0.16094 0.0
C1143 C 0.6436 0.38052 0.12614 0.0
C1144 C 0.65583 0.41353 0.12092 0.0
C1145 C 0.6839 0.42488 0.13915 0.0
C1146 C 0.68524 0.37379 0.16993 0.0
C1147 C 0.6574 0.3614 0.15243 0.0
H1148 H 0.69333 0.45 0.13476 0.0
H1149 H 0.6969 0.35837 0.18921 0.0
H1150 H 0.72688 0.48408 0.19071 0.0
H1151 H 0.70808 0.45485 0.29091 0.0
H1152 H 0.8073 0.35096 0.08385 0.0
H1153 H 0.6453 0.42964 0.10149 0.0
H1154 H 0.64786 0.33645 0.15833 0.0
C1155 C 0.82021 0.47029 0.4953 0.0
C1156 C 0.79178 0.46277 0.51397 0.0
N1157 N 0.76498 0.46412 0.49309 0.0
N1158 N 0.81109 0.47684 0.46314 0.0
C1159 C 0.77724 0.47242 0.46251 0.0
H1160 H 0.84571 0.47229 0.50486 0.0
Co1161 Co 0.8394 0.4929 0.42944 0.0
C1162 C 0.78479 0.50867 0.37526 0.0
O1163 O 0.79867 0.49433 0.34873 0.0
N1164 N 0.86854 0.50952 0.39584 0.0
C1165 C 0.89157 0.53867 0.35362 0.0
C1166 C 0.86218 0.5315 0.37046 0.0
C1167 C 0.90241 0.50516 0.39483 0.0
N1168 N 0.91685 0.52244 0.36927 0.0
O1169 O 0.83943 0.53614 0.44907 0.0
H1170 H 0.8385 0.544 0.36578 0.0
H1171 H 0.91649 0.4912 0.41362 0.0
O1172 O 0.7997 0.50772 0.40382 0.0
C1173 C 0.8636 0.5454 0.4681 0.0
O1174 O 0.88557 0.52291 0.47872 0.0
N1175 N 0.84202 0.44986 0.41096 0.0
C1176 C 0.86511 0.39363 0.37616 0.0
C1177 C 0.83207 0.4058 0.371 0.0
C1178 C 0.82071 0.43387 0.38924 0.0
C1179 C 0.87187 0.43532 0.41989 0.0
C1180 C 0.88427 0.40748 0.4024 0.0
H1181 H 0.79556 0.44325 0.38491 0.0
H1182 H 0.88731 0.44702 0.43913 0.0
H1183 H 0.76152 0.47698 0.44069 0.0
H1184 H 0.79075 0.45804 0.54086 0.0
H1185 H 0.8947 0.55671 0.33337 0.0
H1186 H 0.81593 0.39523 0.35161 0.0
H1187 H 0.90924 0.39798 0.40826 0.0
C1188 C 0.77538 0.42543 0.7504 0.0
C1189 C 0.78289 0.45386 0.73172 0.0
N1190 N 0.78141 0.48067 0.75256 0.0
N1191 N 0.76874 0.43457 0.78254 0.0
C1192 C 0.77309 0.46842 0.78315 0.0
H1193 H 0.77349 0.39991 0.74087 0.0
Co1194 Co 0.75272 0.40624 0.81625 0.0
C1195 C 0.73699 0.46097 0.87037 0.0
O1196 O 0.75151 0.4473 0.8969 0.0
N1197 N 0.73615 0.37708 0.84985 0.0
C1198 C 0.70725 0.35402 0.89223 0.0
C1199 C 0.71442 0.38344 0.87545 0.0
C1200 C 0.74035 0.34319 0.85069 0.0
N1201 N 0.72321 0.32872 0.87633 0.0
O1202 O 0.70946 0.40618 0.79664 0.0
H1203 H 0.70209 0.40715 0.88037 0.0
H1204 H 0.7541 0.32913 0.83173 0.0
O1205 O 0.73787 0.44591 0.84188 0.0
C1206 C 0.70021 0.38203 0.77756 0.0
O1207 O 0.72272 0.3601 0.76688 0.0
N1208 N 0.79577 0.40364 0.83471 0.0
C1209 C 0.85205 0.38058 0.86946 0.0
C1210 C 0.8399 0.41364 0.87458 0.0
C1211 C 0.81181 0.42498 0.85636 0.0
C1212 C 0.81028 0.37376 0.82581 0.0
C1213 C 0.83815 0.36139 0.84327 0.0
H1214 H 0.80245 0.45015 0.86064 0.0
H1215 H 0.79855 0.3583 0.80661 0.0
H1216 H 0.76849 0.48416 0.80495 0.0
H1217 H 0.78774 0.45487 0.70485 0.0
H1218 H 0.68939 0.3509 0.91264 0.0
H1219 H 0.85051 0.4298 0.89392 0.0
H1220 H 0.84763 0.33641 0.83742 0.0
C1221 C 0.8202 0.52534 0.00042 0.0
C1222 C 0.79177 0.53285 0.98174 0.0
N1223 N 0.76496 0.53134 0.00258 0.0
N1224 N 0.81106 0.51867 0.03255 0.0
C1225 C 0.7772 0.523 0.03316 0.0
H1226 H 0.84572 0.52349 0.9909 0.0
Co1227 Co 0.8394 0.50269 0.06626 0.0
C1228 C 0.78452 0.48698 0.12029 0.0
O1229 O 0.79793 0.50173 0.14683 0.0
N1230 N 0.86857 0.48616 0.09988 0.0
C1231 C 0.89165 0.45759 0.14247 0.0
C1232 C 0.8622 0.46474 0.12574 0.0
C1233 C 0.90249 0.49021 0.10055 0.0
N1234 N 0.91696 0.47326 0.12631 0.0
O1235 O 0.83949 0.45943 0.04667 0.0
H1236 H 0.83845 0.4526 0.13091 0.0
H1237 H 0.91654 0.50373 0.08142 0.0
O1238 O 0.79975 0.48778 0.0919 0.0
C1239 C 0.86361 0.45019 0.02755 0.0
O1240 O 0.88552 0.4727 0.01684 0.0
N1241 N 0.84198 0.54574 0.0847 0.0
C1242 C 0.86504 0.60201 0.11946 0.0
C1243 C 0.83195 0.58991 0.12452 0.0
C1244 C 0.82061 0.56183 0.10629 0.0
C1245 C 0.87189 0.56021 0.07585 0.0
C1246 C 0.88426 0.58807 0.09331 0.0
H1247 H 0.79541 0.55251 0.1105 0.0
H1248 H 0.88738 0.54844 0.05669 0.0
H1249 H 0.76146 0.51838 0.05495 0.0
H1250 H 0.79076 0.53773 0.95487 0.0
H1251 H 0.89474 0.43997 0.16309 0.0
H1252 H 0.81577 0.60055 0.14382 0.0
H1253 H 0.90927 0.59752 0.08751 0.0
C1254 C 0.72022 0.57019 0.2504 0.0
C1255 C 0.71269 0.54175 0.23174 0.0
N1256 N 0.71419 0.51495 0.25258 0.0
N1257 N 0.72689 0.56105 0.28254 0.0
C1258 C 0.72254 0.52719 0.28315 0.0
H1259 H 0.7221 0.59571 0.24087 0.0
Co1260 Co 0.74291 0.58938 0.31624 0.0
C1261 C 0.75864 0.53463 0.37034 0.0
O1262 O 0.74407 0.54824 0.39688 0.0
N1263 N 0.75948 0.61855 0.34984 0.0
C1264 C 0.7883 0.64162 0.39227 0.0
C1265 C 0.78114 0.61219 0.3755 0.0
C1266 C 0.75531 0.65245 0.35064 0.0
N1267 N 0.77241 0.66692 0.37631 0.0
O1268 O 0.78616 0.58945 0.29662 0.0
H1269 H 0.79343 0.58847 0.38047 0.0
H1270 H 0.74161 0.66651 0.33164 0.0
O1271 O 0.75778 0.54972 0.34187 0.0
C1272 C 0.79541 0.61358 0.27754 0.0
O1273 O 0.7729 0.6355 0.26685 0.0
N1274 N 0.69987 0.59199 0.33469 0.0
C1275 C 0.6436 0.61506 0.36945 0.0
C1276 C 0.65574 0.58199 0.37456 0.0
C1277 C 0.68382 0.57065 0.35633 0.0
C1278 C 0.68537 0.62188 0.3258 0.0
C1279 C 0.65751 0.63425 0.34327 0.0
H1280 H 0.69316 0.54547 0.3606 0.0
H1281 H 0.69711 0.63734 0.30661 0.0
H1282 H 0.72715 0.51146 0.30496 0.0
H1283 H 0.70781 0.54074 0.20487 0.0
H1284 H 0.80611 0.64473 0.41273 0.0
H1285 H 0.64512 0.56583 0.3939 0.0
H1286 H 0.64804 0.65924 0.33743 0.0
C1287 C 0.67541 0.47024 0.50037 0.0
C1288 C 0.70384 0.46273 0.4817 0.0
N1289 N 0.73065 0.4642 0.50255 0.0
N1290 N 0.68455 0.47688 0.53251 0.0
C1291 C 0.7184 0.47252 0.53313 0.0
H1292 H 0.64989 0.47214 0.49084 0.0
Co1293 Co 0.65623 0.49292 0.56622 0.0
C1294 C 0.71089 0.50871 0.62035 0.0
O1295 O 0.69715 0.49425 0.64688 0.0
N1296 N 0.62708 0.5095 0.59982 0.0
C1297 C 0.60404 0.53852 0.64213 0.0
C1298 C 0.63344 0.53137 0.6253 0.0
C1299 C 0.59319 0.50519 0.60078 0.0
N1300 N 0.57875 0.52238 0.6264 0.0
O1301 O 0.65616 0.53615 0.54658 0.0
H1302 H 0.65712 0.54381 0.63008 0.0
H1303 H 0.57912 0.49133 0.58191 0.0
O1304 O 0.6959 0.50779 0.59183 0.0
C1305 C 0.63201 0.54541 0.52752 0.0
O1306 O 0.61007 0.5229 0.51687 0.0
N1307 N 0.65364 0.44987 0.58469 0.0
C1308 C 0.63057 0.39362 0.61948 0.0
C1309 C 0.66362 0.40579 0.62462 0.0
C1310 C 0.67496 0.43386 0.60639 0.0
C1311 C 0.62378 0.43534 0.57577 0.0
C1312 C 0.6114 0.40748 0.59325 0.0
H1313 H 0.70012 0.44324 0.61069 0.0
H1314 H 0.60833 0.44705 0.55655 0.0
H1315 H 0.73414 0.47712 0.55493 0.0
H1316 H 0.70486 0.45788 0.45482 0.0
H1317 H 0.60092 0.55648 0.66245 0.0
H1318 H 0.67976 0.3952 0.64399 0.0
H1319 H 0.58643 0.39799 0.5874 0.0
C1320 C 0.74526 0.7754 0.57018 0.0
C1321 C 0.76392 0.78292 0.54175 0.0
N1322 N 0.74307 0.78142 0.51494 0.0
N1323 N 0.71312 0.76874 0.56105 0.0
C1324 C 0.7125 0.77309 0.52719 0.0
H1325 H 0.75479 0.77351 0.5957 0.0
Co1326 Co 0.67942 0.75269 0.58938 0.0
C1327 C 0.62529 0.73692 0.53471 0.0
O1328 O 0.59876 0.7514 0.54841 0.0
N1329 N 0.64583 0.7361 0.61855 0.0
C1330 C 0.6035 0.70712 0.6416 0.0
C1331 C 0.6203 0.71429 0.61219 0.0
C1332 C 0.64493 0.74036 0.65244 0.0
N1333 N 0.6193 0.72317 0.66689 0.0
O1334 O 0.69906 0.70946 0.58944 0.0
H1335 H 0.61546 0.7019 0.58849 0.0
H1336 H 0.66382 0.75419 0.66651 0.0
O1337 O 0.6538 0.73782 0.54972 0.0
C1338 C 0.71812 0.70021 0.6136 0.0
O1339 O 0.72875 0.72272 0.63555 0.0
N1340 N 0.66094 0.79573 0.59199 0.0
C1341 C 0.62615 0.85198 0.61506 0.0
C1342 C 0.62102 0.83982 0.58201 0.0
C1343 C 0.63926 0.81175 0.57066 0.0
C1344 C 0.66985 0.81026 0.62186 0.0
C1345 C 0.65236 0.83811 0.63424 0.0
H1346 H 0.63498 0.80238 0.54549 0.0
H1347 H 0.68906 0.79854 0.63732 0.0
H1348 H 0.69069 0.76847 0.51147 0.0
H1349 H 0.79079 0.78778 0.54073 0.0
H1350 H 0.58314 0.6892 0.64471 0.0
H1351 H 0.60166 0.8504 0.56585 0.0
H1352 H 0.65821 0.8476 0.65922 0.0
C1353 C 0.24524 0.72026 0.4254 0.0
C1354 C 0.26392 0.71277 0.45383 0.0
N1355 N 0.24308 0.71424 0.48064 0.0
N1356 N 0.21309 0.72687 0.43454 0.0
C1357 C 0.21249 0.72252 0.4684 0.0
H1358 H 0.25476 0.72218 0.39988 0.0
Co1359 Co 0.17939 0.74291 0.40622 0.0
C1360 C 0.12528 0.7587 0.46092 0.0
O1361 O 0.09875 0.74418 0.44726 0.0
N1362 N 0.14579 0.7595 0.37705 0.0
C1363 C 0.10344 0.78845 0.354 0.0
C1364 C 0.12023 0.78128 0.38341 0.0
C1365 C 0.14491 0.75526 0.34316 0.0
N1366 N 0.11928 0.77243 0.32871 0.0
O1367 O 0.19904 0.78613 0.40615 0.0
H1368 H 0.11536 0.79364 0.40712 0.0
H1369 H 0.16382 0.74146 0.32909 0.0
O1370 O 0.15378 0.7578 0.44588 0.0
C1371 C 0.21803 0.79538 0.38194 0.0
O1372 O 0.22853 0.77289 0.3599 0.0
N1373 N 0.1609 0.69987 0.40362 0.0
C1374 C 0.12613 0.64361 0.38054 0.0
C1375 C 0.12099 0.65577 0.4136 0.0
C1376 C 0.13923 0.68385 0.42495 0.0
C1377 C 0.16981 0.68535 0.37375 0.0
C1378 C 0.15234 0.6575 0.36137 0.0
H1379 H 0.13494 0.69321 0.45012 0.0
H1380 H 0.18902 0.69707 0.35829 0.0
H1381 H 0.19068 0.72711 0.48413 0.0
H1382 H 0.2908 0.70796 0.45484 0.0
H1383 H 0.08306 0.80635 0.35089 0.0
H1384 H 0.10164 0.64518 0.42976 0.0
H1385 H 0.15819 0.64801 0.33639 0.0
C1386 C 0.52529 0.99526 0.67539 0.0
C1387 C 0.53279 0.01394 0.70382 0.0
N1388 N 0.53146 0.99307 0.73062 0.0
N1389 N 0.51878 0.96309 0.68452 0.0
C1390 C 0.52319 0.96248 0.71837 0.0
H1391 H 0.52328 0.00481 0.64989 0.0
Co1392 Co 0.50273 0.9294 0.6562 0.0
C1393 C 0.48691 0.8753 0.71091 0.0
O1394 O 0.50143 0.84877 0.69725 0.0
N1395 N 0.48612 0.8958 0.62704 0.0
C1396 C 0.45716 0.85344 0.604 0.0
C1397 C 0.46434 0.87025 0.63341 0.0
C1398 C 0.49037 0.8949 0.59315 0.0
N1399 N 0.47319 0.86927 0.5787 0.0
O1400 O 0.45951 0.94907 0.65614 0.0
H1401 H 0.45197 0.86538 0.65711 0.0
H1402 H 0.50418 0.9138 0.57908 0.0
O1403 O 0.48782 0.9038 0.69588 0.0
C1404 C 0.45025 0.96802 0.6319 0.0
O1405 O 0.47273 0.97846 0.60982 0.0
N1406 N 0.54575 0.91089 0.65361 0.0
C1407 C 0.60201 0.87611 0.63054 0.0
C1408 C 0.58985 0.87098 0.6636 0.0
C1409 C 0.56177 0.88922 0.67494 0.0
C1410 C 0.56028 0.9198 0.62374 0.0
C1411 C 0.58813 0.90232 0.61137 0.0
H1412 H 0.55241 0.88494 0.70011 0.0
H1413 H 0.54856 0.93901 0.60828 0.0
H1414 H 0.51864 0.94066 0.73409 0.0
H1415 H 0.5375 0.04084 0.70485 0.0
H1416 H 0.43925 0.83308 0.60089 0.0
H1417 H 0.60044 0.85163 0.67976 0.0
H1418 H 0.59763 0.90817 0.58639 0.0
C1419 C 0.25038 0.27534 0.92539 0.0
C1420 C 0.2317 0.28283 0.95383 0.0
N1421 N 0.25254 0.28137 0.98064 0.0
N1422 N 0.28253 0.26874 0.93454 0.0
C1423 C 0.28313 0.27309 0.96839 0.0
H1424 H 0.24086 0.27342 0.89988 0.0
Co1425 Co 0.31623 0.2527 0.90621 0.0
C1426 C 0.37033 0.23691 0.96093 0.0
O1427 O 0.39687 0.25144 0.94727 0.0
N1428 N 0.34983 0.23611 0.87705 0.0
C1429 C 0.39219 0.20717 0.854 0.0
C1430 C 0.3754 0.21434 0.88341 0.0
C1431 C 0.35071 0.24034 0.84316 0.0
N1432 N 0.37634 0.22318 0.8287 0.0
O1433 O 0.29658 0.20948 0.90615 0.0
H1434 H 0.38028 0.20198 0.90712 0.0
H1435 H 0.33179 0.25414 0.82909 0.0
O1436 O 0.34184 0.23781 0.94588 0.0
C1437 C 0.27759 0.20023 0.88194 0.0
O1438 O 0.26709 0.22272 0.8599 0.0
N1439 N 0.33472 0.29573 0.90362 0.0
C1440 C 0.36948 0.352 0.88055 0.0
C1441 C 0.37461 0.33984 0.91361 0.0
C1442 C 0.35638 0.31176 0.92495 0.0
C1443 C 0.32581 0.31025 0.87375 0.0
C1444 C 0.34328 0.33811 0.86137 0.0
H1445 H 0.36067 0.3024 0.95012 0.0
H1446 H 0.3066 0.29853 0.85829 0.0
H1447 H 0.30494 0.2685 0.98413 0.0
H1448 H 0.20482 0.28764 0.95484 0.0
H1449 H 0.41257 0.18928 0.85089 0.0
H1450 H 0.39396 0.35044 0.92977 0.0
H1451 H 0.33743 0.3476 0.83639 0.0
C1452 C 0.47024 0.50036 0.67542 0.0
C1453 C 0.46273 0.48169 0.70385 0.0
N1454 N 0.46419 0.50254 0.73066 0.0
N1455 N 0.47685 0.53251 0.68455 0.0
C1456 C 0.47249 0.53312 0.7184 0.0
H1457 H 0.47216 0.49082 0.6499 0.0
Co1458 Co 0.49291 0.5662 0.65623 0.0
C1459 C 0.50871 0.62034 0.71087 0.0
O1460 O 0.49428 0.64688 0.69712 0.0
N1461 N 0.50952 0.59979 0.62707 0.0
C1462 C 0.53858 0.64207 0.60403 0.0
C1463 C 0.53141 0.62525 0.63343 0.0
C1464 C 0.50521 0.60074 0.59318 0.0
N1465 N 0.52245 0.62634 0.57874 0.0
O1466 O 0.53613 0.54654 0.65618 0.0
H1467 H 0.54385 0.63003 0.65711 0.0
H1468 H 0.49132 0.5819 0.57911 0.0
O1469 O 0.50778 0.59182 0.6959 0.0
C1470 C 0.54539 0.52755 0.63198 0.0
O1471 O 0.5229 0.51701 0.60996 0.0
N1472 N 0.44988 0.5847 0.65362 0.0
C1473 C 0.39363 0.61949 0.63055 0.0
C1474 C 0.40581 0.62464 0.66359 0.0
C1475 C 0.43388 0.6064 0.67494 0.0
C1476 C 0.43534 0.57578 0.62376 0.0
C1477 C 0.40749 0.59326 0.61138 0.0
H1478 H 0.44325 0.6107 0.7001 0.0
H1479 H 0.44704 0.55654 0.60831 0.0
H1480 H 0.47708 0.55494 0.73413 0.0
H1481 H 0.45791 0.45481 0.70487 0.0
H1482 H 0.55656 0.66237 0.60091 0.0
H1483 H 0.39523 0.64401 0.67974 0.0
H1484 H 0.39798 0.58739 0.58641 0.0
C1485 C 0.75039 0.22025 0.07017 0.0
C1486 C 0.73172 0.21273 0.04174 0.0
N1487 N 0.75256 0.21428 0.01493 0.0
N1488 N 0.78252 0.22697 0.06103 0.0
C1489 C 0.78313 0.22265 0.02717 0.0
H1490 H 0.74087 0.22207 0.0957 0.0
Co1491 Co 0.81623 0.24296 0.08938 0.0
C1492 C 0.87029 0.25861 0.03453 0.0
O1493 O 0.89683 0.24391 0.04799 0.0
N1494 N 0.84984 0.25948 0.11856 0.0
C1495 C 0.89243 0.28807 0.14162 0.0
C1496 C 0.87568 0.28092 0.11218 0.0
C1497 C 0.85054 0.25542 0.15247 0.0
N1498 N 0.87629 0.27238 0.16694 0.0
O1499 O 0.79667 0.28623 0.08945 0.0
H1500 H 0.88082 0.29308 0.08843 0.0
H1501 H 0.83142 0.24188 0.16653 0.0
O1502 O 0.84188 0.25781 0.04973 0.0
C1503 C 0.77748 0.29547 0.1135 0.0
O1504 O 0.76661 0.27295 0.13532 0.0
N1505 N 0.83464 0.19989 0.09199 0.0
C1506 C 0.86943 0.14364 0.11507 0.0
C1507 C 0.87449 0.15574 0.08197 0.0
C1508 C 0.85624 0.18381 0.07062 0.0
C1509 C 0.8258 0.18543 0.12191 0.0
C1510 C 0.84328 0.15757 0.13428 0.0
H1511 H 0.86046 0.19312 0.04542 0.0
H1512 H 0.80664 0.19719 0.13739 0.0
H1513 H 0.80492 0.22729 0.01144 0.0
H1514 H 0.70486 0.20781 0.04072 0.0
H1515 H 0.91305 0.3057 0.14471 0.0
H1516 H 0.89379 0.14511 0.06578 0.0
H1517 H 0.83747 0.14813 0.15929 0.0
C1518 C 0.52536 0.00037 0.8202 0.0
C1519 C 0.53286 0.98169 0.79177 0.0
N1520 N 0.53137 0.00253 0.76495 0.0
N1521 N 0.51871 0.03251 0.81105 0.0
C1522 C 0.52305 0.03311 0.7772 0.0
H1523 H 0.52348 0.99085 0.84572 0.0
Co1524 Co 0.50269 0.06621 0.83939 0.0
C1525 C 0.48692 0.12031 0.78465 0.0
O1526 O 0.5015 0.14684 0.79825 0.0
N1527 N 0.48611 0.09981 0.86856 0.0
C1528 C 0.45725 0.14222 0.89161 0.0
C1529 C 0.46442 0.12544 0.86219 0.0
C1530 C 0.49031 0.10065 0.90246 0.0
N1531 N 0.47319 0.12631 0.91691 0.0
O1532 O 0.45946 0.04658 0.83945 0.0
H1533 H 0.4521 0.13038 0.83848 0.0
H1534 H 0.50404 0.08168 0.91652 0.0
O1535 O 0.4878 0.09184 0.79973 0.0
C1536 C 0.45021 0.02753 0.86362 0.0
O1537 O 0.47271 0.01693 0.8856 0.0
N1538 N 0.54573 0.08468 0.84198 0.0
C1539 C 0.60199 0.11945 0.86506 0.0
C1540 C 0.58985 0.12457 0.83199 0.0
C1541 C 0.56177 0.10633 0.82064 0.0
C1542 C 0.56023 0.07579 0.87187 0.0
C1543 C 0.58809 0.09326 0.88424 0.0
H1544 H 0.55242 0.1106 0.79546 0.0
H1545 H 0.5485 0.05659 0.88733 0.0
H1546 H 0.51844 0.05492 0.76146 0.0
H1547 H 0.53772 0.95482 0.79075 0.0
H1548 H 0.43941 0.16265 0.89472 0.0
H1549 H 0.60046 0.1439 0.81582 0.0
H1550 H 0.59757 0.08742 0.90923 0.0
C1551 C 0.97026 0.99525 0.32019 0.0
C1552 C 0.96275 0.01393 0.29176 0.0
N1553 N 0.96425 0.99309 0.26495 0.0
N1554 N 0.9769 0.96311 0.31105 0.0
C1555 C 0.97257 0.96251 0.27719 0.0
H1556 H 0.97214 0.00477 0.34571 0.0
Co1557 Co 0.99293 0.92941 0.33938 0.0
C1558 C 0.00869 0.87531 0.28464 0.0
O1559 O 0.99412 0.84878 0.29826 0.0
N1560 N 0.00951 0.89581 0.36855 0.0
C1561 C 0.03838 0.8534 0.39161 0.0
C1562 C 0.03121 0.87018 0.36219 0.0
C1563 C 0.00531 0.89497 0.40245 0.0
N1564 N 0.02243 0.86931 0.41691 0.0
O1565 O 0.03616 0.94904 0.33945 0.0
H1566 H 0.04353 0.86525 0.33847 0.0
H1567 H 0.99156 0.91393 0.41651 0.0
O1568 O 0.00782 0.90378 0.29972 0.0
C1569 C 0.04541 0.96809 0.36361 0.0
O1570 O 0.0229 0.97869 0.38559 0.0
N1571 N 0.94989 0.91094 0.34198 0.0
C1572 C 0.89364 0.87617 0.36506 0.0
C1573 C 0.90577 0.87105 0.33199 0.0
C1574 C 0.93385 0.88929 0.32064 0.0
C1575 C 0.93539 0.91983 0.37186 0.0
C1576 C 0.90753 0.90236 0.38424 0.0
H1577 H 0.9432 0.88502 0.29546 0.0
H1578 H 0.94712 0.93903 0.38732 0.0
H1579 H 0.97718 0.94071 0.26145 0.0
H1580 H 0.9579 0.0408 0.29075 0.0
H1581 H 0.05622 0.83297 0.39471 0.0
H1582 H 0.89516 0.85171 0.31583 0.0
H1583 H 0.89806 0.90819 0.40923 0.0
loop_
_geom_bond_atom_site_label_1
_geom_bond_atom_site_label_2
_geom_bond_distance
_geom_bond_site_symmetry_2
_ccdc_geom_bond_type
C0 C1 1.351 . S
C0 N3 1.368 . S
C0 H5 0.931 . S
C1 C0 1.351 . S
C1 N2 1.373 . S
C1 H29 0.930 . S
N2 C1 1.373 . S
N2 C4 1.340 . S
N3 C0 1.368 . S
N3 C4 1.321 . S
N3 Co6 2.135 . S
C4 N2 1.340 . S
C4 N3 1.321 . S
C4 H28 0.930 . S
H5 C0 0.931 . S
Co6 N3 2.135 . S
Co6 N9 2.121 . S
Co6 O14 2.055 . S
Co6 O17 2.039 . S
Co6 N20 2.140 . S
C7 O8 1.227 . S
C7 O17 1.265 . S
O8 C7 1.227 . S
N9 Co6 2.121 . S
N9 C11 1.375 . S
N9 C12 1.313 . S
C10 C11 1.338 . S
C10 N13 1.377 . S
C10 H30 0.930 . S
C11 N9 1.375 . S
C11 C10 1.338 . S
C11 H15 0.931 . S
C12 N9 1.313 . S
C12 N13 1.344 . S
C12 H16 0.930 . S
N13 C10 1.377 . S
N13 C12 1.344 . S
O14 Co6 2.055 . S
O14 C18 1.253 . S
H15 C11 0.931 . S
H16 C12 0.930 . S
O17 Co6 2.039 . S
O17 C7 1.265 . S
C18 O14 1.253 . S
C18 O19 1.227 . S
O19 C18 1.227 . S
N20 Co6 2.140 . S
N20 C23 1.346 . S
N20 C24 1.345 . S
C21 C22 1.387 . S
C21 C25 1.391 . S
C22 C21 1.387 . S
C22 C23 1.369 . S
C22 H31 0.929 . S
C23 N20 1.346 . S
C23 C22 1.369 . S
C23 H26 0.928 . S
C24 N20 1.345 . S
C24 C25 1.371 . S
C24 H27 0.931 . S
C25 C21 1.391 . S
C25 C24 1.371 . S
C25 H32 0.930 . S
H26 C23 0.928 . S
H27 C24 0.931 . S
H28 C4 0.930 . S
H29 C1 0.930 . S
H30 C10 0.930 . S
H31 C22 0.929 . S
H32 C25 0.930 . S
C33 C34 1.351 . S
C33 N36 1.368 1_655 S
C33 H38 0.931 . S
C34 C33 1.351 . S
C34 N35 1.373 1_655 S
C34 H62 0.930 . S
N35 C34 1.373 1_455 S
N35 C37 1.340 . S
N36 C33 1.368 1_455 S
N36 C37 1.321 . S
N36 Co39 2.135 . S
C37 N35 1.340 . S
C37 N36 1.321 . S
C37 H61 0.930 . S
H38 C33 0.931 . S
Co39 N36 2.135 . S
Co39 N42 2.121 . S
Co39 O47 2.055 . S
Co39 O50 2.039 . S
Co39 N53 2.140 . S
C40 O41 1.227 . S
C40 O50 1.265 . S
O41 C40 1.227 . S
N42 Co39 2.121 . S
N42 C44 1.375 . S
N42 C45 1.313 . S
C43 C44 1.338 . S
C43 N46 1.377 . S
C43 H63 0.930 . S
C44 N42 1.375 . S
C44 C43 1.338 . S
C44 H48 0.931 . S
C45 N42 1.313 . S
C45 N46 1.344 . S
C45 H49 0.930 . S
N46 C43 1.377 . S
N46 C45 1.344 . S
O47 Co39 2.055 . S
O47 C51 1.253 . S
H48 C44 0.931 . S
H49 C45 0.930 . S
O50 Co39 2.039 . S
O50 C40 1.265 . S
C51 O47 1.253 . S
C51 O52 1.227 . S
O52 C51 1.227 . S
N53 Co39 2.140 . S
N53 C56 1.346 . S
N53 C57 1.345 . S
C54 C55 1.387 . S
C54 C58 1.391 . S
C55 C54 1.387 . S
C55 C56 1.369 . S
C55 H64 0.929 . S
C56 N53 1.346 . S
C56 C55 1.369 . S
C56 H59 0.928 . S
C57 N53 1.345 . S
C57 C58 1.371 . S
C57 H60 0.931 . S
C58 C54 1.391 . S
C58 C57 1.371 . S
C58 H65 0.930 . S
H59 C56 0.928 . S
H60 C57 0.931 . S
H61 C37 0.930 . S
H62 C34 0.930 . S
H63 C43 0.930 . S
H64 C55 0.929 . S
H65 C58 0.930 . S
C66 C67 1.351 . S
C66 N69 1.368 . S
C66 H71 0.931 . S
C67 C66 1.351 . S
C67 N68 1.373 . S
C67 H95 0.930 . S
N68 C67 1.373 . S
N68 C70 1.340 . S
N69 C66 1.368 . S
N69 C70 1.321 . S
N69 Co72 2.135 . S
C70 N68 1.340 . S
C70 N69 1.321 . S
C70 H94 0.930 . S
H71 C66 0.931 . S
Co72 N69 2.135 . S
Co72 N75 2.121 . S
Co72 O80 2.055 . S
Co72 O83 2.039 . S
Co72 N86 2.140 . S
C73 O74 1.227 . S
C73 O83 1.265 . S
O74 C73 1.227 . S
N75 Co72 2.121 . S
N75 C77 1.375 . S
N75 C78 1.313 . S
C76 C77 1.338 . S
C76 N79 1.377 . S
C76 H96 0.930 . S
C77 N75 1.375 . S
C77 C76 1.338 . S
C77 H81 0.931 . S
C78 N75 1.313 . S
C78 N79 1.344 . S
C78 H82 0.930 . S
N79 C76 1.377 . S
N79 C78 1.344 . S
O80 Co72 2.055 . S
O80 C84 1.253 . S
H81 C77 0.931 . S
H82 C78 0.930 . S
O83 Co72 2.039 . S
O83 C73 1.265 . S
C84 O80 1.253 . S
C84 O85 1.227 . S
O85 C84 1.227 . S
N86 Co72 2.140 . S
N86 C89 1.346 . S
N86 C90 1.345 . S
C87 C88 1.387 . S
C87 C91 1.391 . S
C88 C87 1.387 . S
C88 C89 1.369 . S
C88 H97 0.929 . S
C89 N86 1.346 . S
C89 C88 1.369 . S
C89 H92 0.928 . S
C90 N86 1.345 . S
C90 C91 1.371 . S
C90 H93 0.931 . S
C91 C87 1.391 . S
C91 C90 1.371 . S
C91 H98 0.930 . S
H92 C89 0.928 . S
H93 C90 0.931 . S
H94 C70 0.930 . S
H95 C67 0.930 . S
H96 C76 0.930 . S
H97 C88 0.929 . S
H98 C91 0.930 . S
C99 C100 1.351 . S
C99 N102 1.368 . S
C99 H104 0.931 . S
C100 C99 1.351 . S
C100 N101 1.373 . S
C100 H128 0.930 . S
N101 C100 1.373 . S
N101 C103 1.340 . S
N102 C99 1.368 . S
N102 C103 1.321 . S
N102 Co105 2.135 . S
C103 N101 1.340 . S
C103 N102 1.321 . S
C103 H127 0.930 . S
H104 C99 0.931 . S
Co105 N102 2.135 . S
Co105 N108 2.121 1_554 S
Co105 O113 2.055 1_554 S
Co105 O116 2.039 1_554 S
Co105 N119 2.140 . S
C106 O107 1.227 1_556 S
C106 O116 1.265 . S
O107 C106 1.227 1_554 S
N108 Co105 2.121 1_556 S
N108 C110 1.375 . S
N108 C111 1.313 . S
C109 C110 1.338 . S
C109 N112 1.377 . S
C109 H129 0.930 . S
C110 N108 1.375 . S
C110 C109 1.338 . S
C110 H114 0.931 . S
C111 N108 1.313 . S
C111 N112 1.344 . S
C111 H115 0.930 . S
N112 C109 1.377 . S
N112 C111 1.344 . S
O113 Co105 2.055 1_556 S
O113 C117 1.253 . S
H114 C110 0.931 . S
H115 C111 0.930 . S
O116 Co105 2.039 1_556 S
O116 C106 1.265 . S
C117 O113 1.253 . S
C117 O118 1.227 1_556 S
O118 C117 1.227 1_554 S
N119 Co105 2.140 . S
N119 C122 1.346 . S
N119 C123 1.345 . S
C120 C121 1.387 . S
C120 C124 1.391 . S
C121 C120 1.387 . S
C121 C122 1.369 . S
C121 H130 0.929 . S
C122 N119 1.346 . S
C122 C121 1.369 . S
C122 H125 0.928 . S
C123 N119 1.345 . S
C123 C124 1.371 . S
C123 H126 0.931 . S
C124 C120 1.391 . S
C124 C123 1.371 . S
C124 H131 0.930 . S
H125 C122 0.928 . S
H126 C123 0.931 . S
H127 C103 0.930 . S
H128 C100 0.930 . S
H129 C109 0.930 . S
H130 C121 0.929 . S
H131 C124 0.930 . S
C132 C133 1.351 . S
C132 N135 1.368 . S
C132 H137 0.931 . S
C133 C132 1.351 . S
C133 N134 1.373 . S
C133 H161 0.930 . S
N134 C133 1.373 . S
N134 C136 1.340 . S
N135 C132 1.368 . S
N135 C136 1.321 . S
N135 Co138 2.135 . S
C136 N134 1.340 . S
C136 N135 1.321 . S
C136 H160 0.930 . S
H137 C132 0.931 . S
Co138 N135 2.135 . S
Co138 N141 2.121 . S
Co138 O146 2.055 . S
Co138 O149 2.039 . S
Co138 N152 2.140 . S
C139 O140 1.227 . S
C139 O149 1.265 . S
O140 C139 1.227 . S
N141 Co138 2.121 . S
N141 C143 1.375 . S
N141 C144 1.313 . S
C142 C143 1.338 . S
C142 N145 1.377 . S
C142 H162 0.930 . S
C143 N141 1.375 . S
C143 C142 1.338 . S
C143 H147 0.931 . S
C144 N141 1.313 . S
C144 N145 1.344 . S
C144 H148 0.930 . S
N145 C142 1.377 . S
N145 C144 1.344 . S
O146 Co138 2.055 . S
O146 C150 1.253 . S
H147 C143 0.931 . S
H148 C144 0.930 . S
O149 Co138 2.039 . S
O149 C139 1.265 . S
C150 O146 1.253 . S
C150 O151 1.227 . S
O151 C150 1.227 . S
N152 Co138 2.140 . S
N152 C155 1.346 . S
N152 C156 1.345 . S
C153 C154 1.387 . S
C153 C157 1.391 . S
C154 C153 1.387 . S
C154 C155 1.369 . S
C154 H163 0.929 . S
C155 N152 1.346 . S
C155 C154 1.369 . S
C155 H158 0.928 . S
C156 N152 1.345 . S
C156 C157 1.371 . S
C156 H159 0.931 . S
C157 C153 1.391 . S
C157 C156 1.371 . S
C157 H164 0.930 . S
H158 C155 0.928 . S
H159 C156 0.931 . S
H160 C136 0.930 . S
H161 C133 0.930 . S
H162 C142 0.930 . S
H163 C154 0.929 . S
H164 C157 0.930 . S
C165 C166 1.351 . S
C165 N168 1.368 . S
C165 H170 0.931 . S
C166 C165 1.351 . S
C166 N167 1.373 . S
C166 H194 0.930 . S
N167 C166 1.373 . S
N167 C169 1.340 . S
N168 C165 1.368 . S
N168 C169 1.321 . S
N168 Co171 2.135 . S
C169 N167 1.340 . S
C169 N168 1.321 . S
C169 H193 0.930 . S
H170 C165 0.931 . S
Co171 N168 2.135 . S
Co171 N174 2.121 . S
Co171 O179 2.055 . S
Co171 O182 2.039 . S
Co171 N185 2.140 . S
C172 O173 1.227 . S
C172 O182 1.265 . S
O173 C172 1.227 . S
N174 Co171 2.121 . S
N174 C176 1.375 . S
N174 C177 1.313 . S
C175 C176 1.338 . S
C175 N178 1.377 . S
C175 H195 0.930 . S
C176 N174 1.375 . S
C176 C175 1.338 . S
C176 H180 0.931 . S
C177 N174 1.313 . S
C177 N178 1.344 . S
C177 H181 0.930 . S
N178 C175 1.377 . S
N178 C177 1.344 . S
O179 Co171 2.055 . S
O179 C183 1.253 . S
H180 C176 0.931 . S
H181 C177 0.930 . S
O182 Co171 2.039 . S
O182 C172 1.265 . S
C183 O179 1.253 . S
C183 O184 1.227 . S
O184 C183 1.227 . S
N185 Co171 2.140 . S
N185 C188 1.346 . S
N185 C189 1.345 . S
C186 C187 1.387 . S
C186 C190 1.391 . S
C187 C186 1.387 . S
C187 C188 1.369 . S
C187 H196 0.929 . S
C188 N185 1.346 . S
C188 C187 1.369 . S
C188 H191 0.928 . S
C189 N185 1.345 . S
C189 C190 1.371 . S
C189 H192 0.931 . S
C190 C186 1.391 . S
C190 C189 1.371 . S
C190 H197 0.930 . S
H191 C188 0.928 . S
H192 C189 0.931 . S
H193 C169 0.930 . S
H194 C166 0.930 . S
H195 C175 0.930 . S
H196 C187 0.929 . S
H197 C190 0.930 . S
C198 C199 1.351 . S
C198 N201 1.368 . S
C198 H203 0.931 . S
C199 C198 1.351 . S
C199 N200 1.373 . S
C199 H227 0.930 . S
N200 C199 1.373 . S
N200 C202 1.340 . S
N201 C198 1.368 . S
N201 C202 1.321 . S
N201 Co204 2.135 . S
C202 N200 1.340 . S
C202 N201 1.321 . S
C202 H226 0.930 . S
H203 C198 0.931 . S
Co204 N201 2.135 . S
Co204 N207 2.121 . S
Co204 O212 2.055 . S
Co204 O215 2.039 . S
Co204 N218 2.140 . S
C205 O206 1.227 . S
C205 O215 1.265 . S
O206 C205 1.227 . S
N207 Co204 2.121 . S
N207 C209 1.375 . S
N207 C210 1.313 . S
C208 C209 1.338 . S
C208 N211 1.377 . S
C208 H228 0.930 . S
C209 N207 1.375 . S
C209 C208 1.338 . S
C209 H213 0.931 . S
C210 N207 1.313 . S
C210 N211 1.344 . S
C210 H214 0.930 . S
N211 C208 1.377 . S
N211 C210 1.344 . S
O212 Co204 2.055 . S
O212 C216 1.253 . S
H213 C209 0.931 . S
H214 C210 0.930 . S
O215 Co204 2.039 . S
O215 C205 1.265 . S
C216 O212 1.253 . S
C216 O217 1.227 . S
O217 C216 1.227 . S
N218 Co204 2.140 . S
N218 C221 1.346 . S
N218 C222 1.345 . S
C219 C220 1.387 . S
C219 C223 1.391 . S
C220 C219 1.387 . S
C220 C221 1.369 . S
C220 H229 0.929 . S
C221 N218 1.346 . S
C221 C220 1.369 . S
C221 H224 0.928 . S
C222 N218 1.345 . S
C222 C223 1.371 . S
C222 H225 0.931 . S
C223 C219 1.391 . S
C223 C222 1.371 . S
C223 H230 0.930 . S
H224 C221 0.928 . S
H225 C222 0.931 . S
H226 C202 0.930 . S
H227 C199 0.930 . S
H228 C208 0.930 . S
H229 C220 0.929 . S
H230 C223 0.930 . S
C231 C232 1.351 . S
C231 N234 1.368 1_655 S
C231 H236 0.931 . S
C232 C231 1.351 . S
C232 N233 1.373 1_655 S
C232 H260 0.930 . S
N233 C232 1.373 1_455 S
N233 C235 1.340 . S
N234 C231 1.368 1_455 S
N234 C235 1.321 . S
N234 Co237 2.135 . S
C235 N233 1.340 . S
C235 N234 1.321 . S
C235 H259 0.930 . S
H236 C231 0.931 . S
Co237 N234 2.135 . S
Co237 N240 2.121 1_556 S
Co237 O245 2.055 1_556 S
Co237 O248 2.039 1_556 S
Co237 N251 2.140 . S
C238 O239 1.227 1_554 S
C238 O248 1.265 . S
O239 C238 1.227 1_556 S
N240 Co237 2.121 1_554 S
N240 C242 1.375 . S
N240 C243 1.313 . S
C241 C242 1.338 . S
C241 N244 1.377 . S
C241 H261 0.930 . S
C242 N240 1.375 . S
C242 C241 1.338 . S
C242 H246 0.931 . S
C243 N240 1.313 . S
C243 N244 1.344 . S
C243 H247 0.930 . S
N244 C241 1.377 . S
N244 C243 1.344 . S
O245 Co237 2.055 1_554 S
O245 C249 1.253 . S
H246 C242 0.931 . S
H247 C243 0.930 . S
O248 Co237 2.039 1_554 S
O248 C238 1.265 . S
C249 O245 1.253 . S
C249 O250 1.227 1_554 S
O250 C249 1.227 1_556 S
N251 Co237 2.140 . S
N251 C254 1.346 . S
N251 C255 1.345 . S
C252 C253 1.387 . S
C252 C256 1.391 . S
C253 C252 1.387 . S
C253 C254 1.369 . S
C253 H262 0.929 . S
C254 N251 1.346 . S
C254 C253 1.369 . S
C254 H257 0.928 . S
C255 N251 1.345 . S
C255 C256 1.371 . S
C255 H258 0.931 . S
C256 C252 1.391 . S
C256 C255 1.371 . S
C256 H263 0.930 . S
H257 C254 0.928 . S
H258 C255 0.931 . S
H259 C235 0.930 . S
H260 C232 0.930 . S
H261 C241 0.930 . S
H262 C253 0.929 . S
H263 C256 0.930 . S
C264 C265 1.351 . S
C264 N267 1.368 . S
C264 H269 0.931 . S
C265 C264 1.351 . S
C265 N266 1.373 . S
C265 H293 0.930 . S
N266 C265 1.373 . S
N266 C268 1.340 . S
N267 C264 1.368 . S
N267 C268 1.321 . S
N267 Co270 2.135 . S
C268 N266 1.340 . S
C268 N267 1.321 . S
C268 H292 0.930 . S
H269 C264 0.931 . S
Co270 N267 2.135 . S
Co270 N273 2.121 . S
Co270 O278 2.055 . S
Co270 O281 2.039 . S
Co270 N284 2.140 . S
C271 O272 1.227 . S
C271 O281 1.265 . S
O272 C271 1.227 . S
N273 Co270 2.121 . S
N273 C275 1.375 . S
N273 C276 1.313 . S
C274 C275 1.338 . S
C274 N277 1.377 . S
C274 H294 0.930 . S
C275 N273 1.375 . S
C275 C274 1.338 . S
C275 H279 0.931 . S
C276 N273 1.313 . S
C276 N277 1.344 . S
C276 H280 0.930 . S
N277 C274 1.377 . S
N277 C276 1.344 . S
O278 Co270 2.055 . S
O278 C282 1.253 . S
H279 C275 0.931 . S
H280 C276 0.930 . S
O281 Co270 2.039 . S
O281 C271 1.265 . S
C282 O278 1.253 . S
C282 O283 1.227 . S
O283 C282 1.227 . S
N284 Co270 2.140 . S
N284 C287 1.346 . S
N284 C288 1.345 . S
C285 C286 1.387 . S
C285 C289 1.391 . S
C286 C285 1.387 . S
C286 C287 1.369 . S
C286 H295 0.929 . S
C287 N284 1.346 . S
C287 C286 1.369 . S
C287 H290 0.928 . S
C288 N284 1.345 . S
C288 C289 1.371 . S
C288 H291 0.931 . S
C289 C285 1.391 . S
C289 C288 1.371 . S
C289 H296 0.930 . S
H290 C287 0.928 . S
H291 C288 0.931 . S
H292 C268 0.930 . S
H293 C265 0.930 . S
H294 C274 0.930 . S
H295 C286 0.929 . S
H296 C289 0.930 . S
C297 C298 1.351 . S
C297 N300 1.368 . S
C297 H302 0.931 . S
C298 C297 1.351 . S
C298 N299 1.373 . S
C298 H326 0.930 . S
N299 C298 1.373 . S
N299 C301 1.340 . S
N300 C297 1.368 . S
N300 C301 1.321 . S
N300 Co303 2.135 . S
C301 N299 1.340 . S
C301 N300 1.321 . S
C301 H325 0.930 . S
H302 C297 0.931 . S
Co303 N300 2.135 . S
Co303 N306 2.121 1_545 S
Co303 O311 2.055 1_545 S
Co303 O314 2.039 1_545 S
Co303 N317 2.140 . S
C304 O305 1.227 1_565 S
C304 O314 1.265 . S
O305 C304 1.227 1_545 S
N306 Co303 2.121 1_565 S
N306 C308 1.375 . S
N306 C309 1.313 . S
C307 C308 1.338 . S
C307 N310 1.377 . S
C307 H327 0.930 . S
C308 N306 1.375 . S
C308 C307 1.338 . S
C308 H312 0.931 . S
C309 N306 1.313 . S
C309 N310 1.344 . S
C309 H313 0.930 . S
N310 C307 1.377 . S
N310 C309 1.344 . S
O311 Co303 2.055 1_565 S
O311 C315 1.253 . S
H312 C308 0.931 . S
H313 C309 0.930 . S
O314 Co303 2.039 1_565 S
O314 C304 1.265 . S
C315 O311 1.253 . S
C315 O316 1.227 1_565 S
O316 C315 1.227 1_545 S
N317 Co303 2.140 . S
N317 C320 1.346 . S
N317 C321 1.345 . S
C318 C319 1.387 . S
C318 C322 1.391 . S
C319 C318 1.387 . S
C319 C320 1.369 . S
C319 H328 0.929 . S
C320 N317 1.346 . S
C320 C319 1.369 . S
C320 H323 0.928 . S
C321 N317 1.345 . S
C321 C322 1.371 . S
C321 H324 0.931 . S
C322 C318 1.391 . S
C322 C321 1.371 . S
C322 H329 0.930 . S
H323 C320 0.928 . S
H324 C321 0.931 . S
H325 C301 0.930 . S
H326 C298 0.930 . S
H327 C307 0.930 . S
H328 C319 0.929 . S
H329 C322 0.930 . S
C330 C331 1.351 . S
C330 N333 1.368 . S
C330 H335 0.931 . S
C331 C330 1.351 . S
C331 N332 1.373 . S
C331 H359 0.930 . S
N332 C331 1.373 . S
N332 C334 1.340 . S
N333 C330 1.368 . S
N333 C334 1.321 . S
N333 Co336 2.135 . S
C334 N332 1.340 . S
C334 N333 1.321 . S
C334 H358 0.930 . S
H335 C330 0.931 . S
Co336 N333 2.135 . S
Co336 N339 2.121 . S
Co336 O344 2.055 . S
Co336 O347 2.039 . S
Co336 N350 2.140 . S
C337 O338 1.227 . S
C337 O347 1.265 . S
O338 C337 1.227 . S
N339 Co336 2.121 . S
N339 C341 1.375 . S
N339 C342 1.313 . S
C340 C341 1.338 . S
C340 N343 1.377 . S
C340 H360 0.930 . S
C341 N339 1.375 . S
C341 C340 1.338 . S
C341 H345 0.931 . S
C342 N339 1.313 . S
C342 N343 1.344 . S
C342 H346 0.930 . S
N343 C340 1.377 . S
N343 C342 1.344 . S
O344 Co336 2.055 . S
O344 C348 1.253 . S
H345 C341 0.931 . S
H346 C342 0.930 . S
O347 Co336 2.039 . S
O347 C337 1.265 . S
C348 O344 1.253 . S
C348 O349 1.227 . S
O349 C348 1.227 . S
N350 Co336 2.140 . S
N350 C353 1.346 . S
N350 C354 1.345 . S
C351 C352 1.387 . S
C351 C355 1.391 . S
C352 C351 1.387 . S
C352 C353 1.369 . S
C352 H361 0.929 . S
C353 N350 1.346 . S
C353 C352 1.369 . S
C353 H356 0.928 . S
C354 N350 1.345 . S
C354 C355 1.371 . S
C354 H357 0.931 . S
C355 C351 1.391 . S
C355 C354 1.371 . S
C355 H362 0.930 . S
H356 C353 0.928 . S
H357 C354 0.931 . S
H358 C334 0.930 . S
H359 C331 0.930 . S
H360 C340 0.930 . S
H361 C352 0.929 . S
H362 C355 0.930 . S
C363 C364 1.351 . S
C363 N366 1.368 1_554 S
C363 H368 0.931 . S
C364 C363 1.351 . S
C364 N365 1.373 1_554 S
C364 H392 0.930 . S
N365 C364 1.373 1_556 S
N365 C367 1.340 . S
N366 C363 1.368 1_556 S
N366 C367 1.321 . S
N366 Co369 2.135 . S
C367 N365 1.340 . S
C367 N366 1.321 . S
C367 H391 0.930 . S
H368 C363 0.931 . S
Co369 N366 2.135 . S
Co369 N372 2.121 1_565 S
Co369 O377 2.055 1_565 S
Co369 O380 2.039 1_565 S
Co369 N383 2.140 . S
C370 O371 1.227 1_545 S
C370 O380 1.265 . S
O371 C370 1.227 1_565 S
N372 Co369 2.121 1_545 S
N372 C374 1.375 . S
N372 C375 1.313 . S
C373 C374 1.338 . S
C373 N376 1.377 . S
C373 H393 0.930 . S
C374 N372 1.375 . S
C374 C373 1.338 . S
C374 H378 0.931 . S
C375 N372 1.313 . S
C375 N376 1.344 . S
C375 H379 0.930 . S
N376 C373 1.377 . S
N376 C375 1.344 . S
O377 Co369 2.055 1_545 S
O377 C381 1.253 . S
H378 C374 0.931 . S
H379 C375 0.930 . S
O380 Co369 2.039 1_545 S
O380 C370 1.265 . S
C381 O377 1.253 . S
C381 O382 1.227 1_545 S
O382 C381 1.227 1_565 S
N383 Co369 2.140 . S
N383 C386 1.346 . S
N383 C387 1.345 . S
C384 C385 1.387 . S
C384 C388 1.391 . S
C385 C384 1.387 . S
C385 C386 1.369 . S
C385 H394 0.929 . S
C386 N383 1.346 . S
C386 C385 1.369 . S
C386 H389 0.928 . S
C387 N383 1.345 . S
C387 C388 1.371 . S
C387 H390 0.931 . S
C388 C384 1.391 . S
C388 C387 1.371 . S
C388 H395 0.930 . S
H389 C386 0.928 . S
H390 C387 0.931 . S
H391 C367 0.930 . S
H392 C364 0.930 . S
H393 C373 0.930 . S
H394 C385 0.929 . S
H395 C388 0.930 . S
C396 C397 1.351 . S
C396 N399 1.368 . S
C396 H401 0.931 . S
C397 C396 1.351 . S
C397 N398 1.373 . S
C397 H425 0.930 . S
N398 C397 1.373 . S
N398 C400 1.340 . S
N399 C396 1.368 . S
N399 C400 1.321 . S
N399 Co402 2.135 . S
C400 N398 1.340 . S
C400 N399 1.321 . S
C400 H424 0.930 . S
H401 C396 0.931 . S
Co402 N399 2.135 . S
Co402 N405 2.121 . S
Co402 O410 2.055 . S
Co402 O413 2.039 . S
Co402 N416 2.140 . S
C403 O404 1.227 . S
C403 O413 1.265 . S
O404 C403 1.227 . S
N405 Co402 2.121 . S
N405 C407 1.375 . S
N405 C408 1.313 . S
C406 C407 1.338 . S
C406 N409 1.377 . S
C406 H426 0.930 . S
C407 N405 1.375 . S
C407 C406 1.338 . S
C407 H411 0.931 . S
C408 N405 1.313 . S
C408 N409 1.344 . S
C408 H412 0.930 . S
N409 C406 1.377 . S
N409 C408 1.344 . S
O410 Co402 2.055 . S
O410 C414 1.253 . S
H411 C407 0.931 . S
H412 C408 0.930 . S
O413 Co402 2.039 . S
O413 C403 1.265 . S
C414 O410 1.253 . S
C414 O415 1.227 . S
O415 C414 1.227 . S
N416 Co402 2.140 . S
N416 C419 1.346 . S
N416 C420 1.345 . S
C417 C418 1.387 . S
C417 C421 1.391 . S
C418 C417 1.387 . S
C418 C419 1.369 . S
C418 H427 0.929 . S
C419 N416 1.346 . S
C419 C418 1.369 . S
C419 H422 0.928 . S
C420 N416 1.345 . S
C420 C421 1.371 . S
C420 H423 0.931 . S
C421 C417 1.391 . S
C421 C420 1.371 . S
C421 H428 0.930 . S
H422 C419 0.928 . S
H423 C420 0.931 . S
H424 C400 0.930 . S
H425 C397 0.930 . S
H426 C406 0.930 . S
H427 C418 0.929 . S
H428 C421 0.930 . S
C429 C430 1.351 . S
C429 N432 1.368 . S
C429 H434 0.931 . S
C430 C429 1.351 . S
C430 N431 1.373 . S
C430 H458 0.930 . S
N431 C430 1.373 . S
N431 C433 1.340 . S
N432 C429 1.368 . S
N432 C433 1.321 . S
N432 Co435 2.135 . S
C433 N431 1.340 . S
C433 N432 1.321 . S
C433 H457 0.930 . S
H434 C429 0.931 . S
Co435 N432 2.135 . S
Co435 N438 2.121 1_545 S
Co435 O443 2.055 1_545 S
Co435 O446 2.039 1_545 S
Co435 N449 2.140 . S
C436 O437 1.227 1_565 S
C436 O446 1.265 . S
O437 C436 1.227 1_545 S
N438 Co435 2.121 1_565 S
N438 C440 1.375 . S
N438 C441 1.313 . S
C439 C440 1.338 . S
C439 N442 1.377 . S
C439 H459 0.930 . S
C440 N438 1.375 . S
C440 C439 1.338 . S
C440 H444 0.931 . S
C441 N438 1.313 . S
C441 N442 1.344 . S
C441 H445 0.930 . S
N442 C439 1.377 . S
N442 C441 1.344 . S
O443 Co435 2.055 1_565 S
O443 C447 1.253 . S
H444 C440 0.931 . S
H445 C441 0.930 . S
O446 Co435 2.039 1_565 S
O446 C436 1.265 . S
C447 O443 1.253 . S
C447 O448 1.227 1_565 S
O448 C447 1.227 1_545 S
N449 Co435 2.140 . S
N449 C452 1.346 . S
N449 C453 1.345 . S
C450 C451 1.387 . S
C450 C454 1.391 . S
C451 C450 1.387 . S
C451 C452 1.369 . S
C451 H460 0.929 . S
C452 N449 1.346 . S
C452 C451 1.369 . S
C452 H455 0.928 . S
C453 N449 1.345 . S
C453 C454 1.371 . S
C453 H456 0.931 . S
C454 C450 1.391 . S
C454 C453 1.371 . S
C454 H461 0.930 . S
H455 C452 0.928 . S
H456 C453 0.931 . S
H457 C433 0.930 . S
H458 C430 0.930 . S
H459 C439 0.930 . S
H460 C451 0.929 . S
H461 C454 0.930 . S
C462 C463 1.351 . S
C462 N465 1.368 . S
C462 H467 0.931 . S
C463 C462 1.351 . S
C463 N464 1.373 . S
C463 H491 0.930 . S
N464 C463 1.373 . S
N464 C466 1.340 . S
N465 C462 1.368 . S
N465 C466 1.321 . S
N465 Co468 2.135 . S
C466 N464 1.340 . S
C466 N465 1.321 . S
C466 H490 0.930 . S
H467 C462 0.931 . S
Co468 N465 2.135 . S
Co468 N471 2.121 . S
Co468 O476 2.055 . S
Co468 O479 2.039 . S
Co468 N482 2.140 . S
C469 O470 1.227 . S
C469 O479 1.265 . S
O470 C469 1.227 . S
N471 Co468 2.121 . S
N471 C473 1.375 . S
N471 C474 1.313 . S
C472 C473 1.338 . S
C472 N475 1.377 . S
C472 H492 0.930 . S
C473 N471 1.375 . S
C473 C472 1.338 . S
C473 H477 0.931 . S
C474 N471 1.313 . S
C474 N475 1.344 . S
C474 H478 0.930 . S
N475 C472 1.377 . S
N475 C474 1.344 . S
O476 Co468 2.055 . S
O476 C480 1.253 . S
H477 C473 0.931 . S
H478 C474 0.930 . S
O479 Co468 2.039 . S
O479 C469 1.265 . S
C480 O476 1.253 . S
C480 O481 1.227 . S
O481 C480 1.227 . S
N482 Co468 2.140 . S
N482 C485 1.346 . S
N482 C486 1.345 . S
C483 C484 1.387 . S
C483 C487 1.391 . S
C484 C483 1.387 . S
C484 C485 1.369 . S
C484 H493 0.929 . S
C485 N482 1.346 . S
C485 C484 1.369 . S
C485 H488 0.928 . S
C486 N482 1.345 . S
C486 C487 1.371 . S
C486 H489 0.931 . S
C487 C483 1.391 . S
C487 C486 1.371 . S
C487 H494 0.930 . S
H488 C485 0.928 . S
H489 C486 0.931 . S
H490 C466 0.930 . S
H491 C463 0.930 . S
H492 C472 0.930 . S
H493 C484 0.929 . S
H494 C487 0.930 . S
C495 C496 1.351 . S
C495 N498 1.368 1_556 S
C495 H500 0.931 . S
C496 C495 1.351 . S
C496 N497 1.373 1_556 S
C496 H524 0.930 . S
N497 C496 1.373 1_554 S
N497 C499 1.340 . S
N498 C495 1.368 1_554 S
N498 C499 1.321 . S
N498 Co501 2.135 . S
C499 N497 1.340 . S
C499 N498 1.321 . S
C499 H523 0.930 . S
H500 C495 0.931 . S
Co501 N498 2.135 . S
Co501 N504 2.121 1_565 S
Co501 O509 2.055 1_565 S
Co501 O512 2.039 1_565 S
Co501 N515 2.140 . S
C502 O503 1.227 1_545 S
C502 O512 1.265 . S
O503 C502 1.227 1_565 S
N504 Co501 2.121 1_545 S
N504 C506 1.375 . S
N504 C507 1.313 . S
C505 C506 1.338 . S
C505 N508 1.377 . S
C505 H525 0.930 . S
C506 N504 1.375 . S
C506 C505 1.338 . S
C506 H510 0.931 . S
C507 N504 1.313 . S
C507 N508 1.344 . S
C507 H511 0.930 . S
N508 C505 1.377 . S
N508 C507 1.344 . S
O509 Co501 2.055 1_545 S
O509 C513 1.253 . S
H510 C506 0.931 . S
H511 C507 0.930 . S
O512 Co501 2.039 1_545 S
O512 C502 1.265 . S
C513 O509 1.253 . S
C513 O514 1.227 1_545 S
O514 C513 1.227 1_565 S
N515 Co501 2.140 . S
N515 C518 1.346 . S
N515 C519 1.345 . S
C516 C517 1.387 . S
C516 C520 1.391 . S
C517 C516 1.387 . S
C517 C518 1.369 . S
C517 H526 0.929 . S
C518 N515 1.346 . S
C518 C517 1.369 . S
C518 H521 0.928 . S
C519 N515 1.345 . S
C519 C520 1.371 . S
C519 H522 0.931 . S
C520 C516 1.391 . S
C520 C519 1.371 . S
C520 H527 0.930 . S
H521 C518 0.928 . S
H522 C519 0.931 . S
H523 C499 0.930 . S
H524 C496 0.930 . S
H525 C505 0.930 . S
H526 C517 0.929 . S
H527 C520 0.930 . S
C528 C529 1.351 . S
C528 N531 1.368 . S
C528 H533 0.931 . S
C529 C528 1.351 . S
C529 N530 1.373 . S
C529 H557 0.930 . S
N530 C529 1.373 . S
N530 C532 1.340 . S
N531 C528 1.368 . S
N531 C532 1.321 . S
N531 Co534 2.135 . S
C532 N530 1.340 . S
C532 N531 1.321 . S
C532 H556 0.930 . S
H533 C528 0.931 . S
Co534 N531 2.135 . S
Co534 N537 2.121 . S
Co534 O542 2.055 . S
Co534 O545 2.039 . S
Co534 N548 2.140 . S
C535 O536 1.227 . S
C535 O545 1.265 . S
O536 C535 1.227 . S
N537 Co534 2.121 . S
N537 C539 1.375 . S
N537 C540 1.313 . S
C538 C539 1.338 . S
C538 N541 1.377 . S
C538 H558 0.930 . S
C539 N537 1.375 . S
C539 C538 1.338 . S
C539 H543 0.931 . S
C540 N537 1.313 . S
C540 N541 1.344 . S
C540 H544 0.930 . S
N541 C538 1.377 . S
N541 C540 1.344 . S
O542 Co534 2.055 . S
O542 C546 1.253 . S
H543 C539 0.931 . S
H544 C540 0.930 . S
O545 Co534 2.039 . S
O545 C535 1.265 . S
C546 O542 1.253 . S
C546 O547 1.227 . S
O547 C546 1.227 . S
N548 Co534 2.140 . S
N548 C551 1.346 . S
N548 C552 1.345 . S
C549 C550 1.387 . S
C549 C553 1.391 . S
C550 C549 1.387 . S
C550 C551 1.369 . S
C550 H559 0.929 . S
C551 N548 1.346 . S
C551 C550 1.369 . S
C551 H554 0.928 . S
C552 N548 1.345 . S
C552 C553 1.371 . S
C552 H555 0.931 . S
C553 C549 1.391 . S
C553 C552 1.371 . S
C553 H560 0.930 . S
H554 C551 0.928 . S
H555 C552 0.931 . S
H556 C532 0.930 . S
H557 C529 0.930 . S
H558 C538 0.930 . S
H559 C550 0.929 . S
H560 C553 0.930 . S
C561 C562 1.351 . S
C561 N564 1.368 . S
C561 H566 0.931 . S
C562 C561 1.351 . S
C562 N563 1.373 . S
C562 H590 0.930 . S
N563 C562 1.373 . S
N563 C565 1.340 . S
N564 C561 1.368 . S
N564 C565 1.321 . S
N564 Co567 2.135 . S
C565 N563 1.340 . S
C565 N564 1.321 . S
C565 H589 0.930 . S
H566 C561 0.931 . S
Co567 N564 2.135 . S
Co567 N570 2.121 . S
Co567 O575 2.055 . S
Co567 O578 2.039 . S
Co567 N581 2.140 . S
C568 O569 1.227 . S
C568 O578 1.265 . S
O569 C568 1.227 . S
N570 Co567 2.121 . S
N570 C572 1.375 . S
N570 C573 1.313 . S
C571 C572 1.338 . S
C571 N574 1.377 . S
C571 H591 0.930 . S
C572 N570 1.375 . S
C572 C571 1.338 . S
C572 H576 0.931 . S
C573 N570 1.313 . S
C573 N574 1.344 . S
C573 H577 0.930 . S
N574 C571 1.377 . S
N574 C573 1.344 . S
O575 Co567 2.055 . S
O575 C579 1.253 . S
H576 C572 0.931 . S
H577 C573 0.930 . S
O578 Co567 2.039 . S
O578 C568 1.265 . S
C579 O575 1.253 . S
C579 O580 1.227 . S
O580 C579 1.227 . S
N581 Co567 2.140 . S
N581 C584 1.346 . S
N581 C585 1.345 . S
C582 C583 1.387 . S
C582 C586 1.391 . S
C583 C582 1.387 . S
C583 C584 1.369 . S
C583 H592 0.929 . S
C584 N581 1.346 . S
C584 C583 1.369 . S
C584 H587 0.928 . S
C585 N581 1.345 . S
C585 C586 1.371 . S
C585 H588 0.931 . S
C586 C582 1.391 . S
C586 C585 1.371 . S
C586 H593 0.930 . S
H587 C584 0.928 . S
H588 C585 0.931 . S
H589 C565 0.930 . S
H590 C562 0.930 . S
H591 C571 0.930 . S
H592 C583 0.929 . S
H593 C586 0.930 . S
C594 C595 1.351 . S
C594 N597 1.368 . S
C594 H599 0.931 . S
C595 C594 1.351 . S
C595 N596 1.373 . S
C595 H623 0.930 . S
N596 C595 1.373 . S
N596 C598 1.340 . S
N597 C594 1.368 . S
N597 C598 1.321 . S
N597 Co600 2.135 . S
C598 N596 1.340 . S
C598 N597 1.321 . S
C598 H622 0.930 . S
H599 C594 0.931 . S
Co600 N597 2.135 . S
Co600 N603 2.121 1_455 S
Co600 O608 2.055 1_455 S
Co600 O611 2.039 1_455 S
Co600 N614 2.140 . S
C601 O602 1.227 1_655 S
C601 O611 1.265 . S
O602 C601 1.227 1_455 S
N603 Co600 2.121 1_655 S
N603 C605 1.375 . S
N603 C606 1.313 . S
C604 C605 1.338 . S
C604 N607 1.377 . S
C604 H624 0.930 . S
C605 N603 1.375 . S
C605 C604 1.338 . S
C605 H609 0.931 . S
C606 N603 1.313 . S
C606 N607 1.344 . S
C606 H610 0.930 . S
N607 C604 1.377 . S
N607 C606 1.344 . S
O608 Co600 2.055 1_655 S
O608 C612 1.253 . S
H609 C605 0.931 . S
H610 C606 0.930 . S
O611 Co600 2.039 1_655 S
O611 C601 1.265 . S
C612 O608 1.253 . S
C612 O613 1.227 1_655 S
O613 C612 1.227 1_455 S
N614 Co600 2.140 . S
N614 C617 1.346 . S
N614 C618 1.345 . S
C615 C616 1.387 . S
C615 C619 1.391 . S
C616 C615 1.387 . S
C616 C617 1.369 . S
C616 H625 0.929 . S
C617 N614 1.346 . S
C617 C616 1.369 . S
C617 H620 0.928 . S
C618 N614 1.345 . S
C618 C619 1.371 . S
C618 H621 0.931 . S
C619 C615 1.391 . S
C619 C618 1.371 . S
C619 H626 0.930 . S
H620 C617 0.928 . S
H621 C618 0.931 . S
H622 C598 0.930 . S
H623 C595 0.930 . S
H624 C604 0.930 . S
H625 C616 0.929 . S
H626 C619 0.930 . S
C627 C628 1.351 . S
C627 N630 1.368 . S
C627 H632 0.931 . S
C628 C627 1.351 . S
C628 N629 1.373 . S
C628 H656 0.930 . S
N629 C628 1.373 . S
N629 C631 1.340 . S
N630 C627 1.368 . S
N630 C631 1.321 . S
N630 Co633 2.135 . S
C631 N629 1.340 . S
C631 N630 1.321 . S
C631 H655 0.930 . S
H632 C627 0.931 . S
Co633 N630 2.135 . S
Co633 N636 2.121 . S
Co633 O641 2.055 . S
Co633 O644 2.039 . S
Co633 N647 2.140 . S
C634 O635 1.227 . S
C634 O644 1.265 . S
O635 C634 1.227 . S
N636 Co633 2.121 . S
N636 C638 1.375 . S
N636 C639 1.313 . S
C637 C638 1.338 . S
C637 N640 1.377 . S
C637 H657 0.930 . S
C638 N636 1.375 . S
C638 C637 1.338 . S
C638 H642 0.931 . S
C639 N636 1.313 . S
C639 N640 1.344 . S
C639 H643 0.930 . S
N640 C637 1.377 . S
N640 C639 1.344 . S
O641 Co633 2.055 . S
O641 C645 1.253 . S
H642 C638 0.931 . S
H643 C639 0.930 . S
O644 Co633 2.039 . S
O644 C634 1.265 . S
C645 O641 1.253 . S
C645 O646 1.227 . S
O646 C645 1.227 . S
N647 Co633 2.140 . S
N647 C650 1.346 . S
N647 C651 1.345 . S
C648 C649 1.387 . S
C648 C652 1.391 . S
C649 C648 1.387 . S
C649 C650 1.369 . S
C649 H658 0.929 . S
C650 N647 1.346 . S
C650 C649 1.369 . S
C650 H653 0.928 . S
C651 N647 1.345 . S
C651 C652 1.371 . S
C651 H654 0.931 . S
C652 C648 1.391 . S
C652 C651 1.371 . S
C652 H659 0.930 . S
H653 C650 0.928 . S
H654 C651 0.931 . S
H655 C631 0.930 . S
H656 C628 0.930 . S
H657 C637 0.930 . S
H658 C649 0.929 . S
H659 C652 0.930 . S
C660 C661 1.351 . S
C660 N663 1.368 1_565 S
C660 H665 0.931 . S
C661 C660 1.351 . S
C661 N662 1.373 1_565 S
C661 H689 0.930 . S
N662 C661 1.373 1_545 S
N662 C664 1.340 . S
N663 C660 1.368 1_545 S
N663 C664 1.321 . S
N663 Co666 2.135 . S
C664 N662 1.340 . S
C664 N663 1.321 . S
C664 H688 0.930 . S
H665 C660 0.931 . S
Co666 N663 2.135 . S
Co666 N669 2.121 1_655 S
Co666 O674 2.055 1_655 S
Co666 O677 2.039 1_655 S
Co666 N680 2.140 . S
C667 O668 1.227 1_455 S
C667 O677 1.265 . S
O668 C667 1.227 1_655 S
N669 Co666 2.121 1_455 S
N669 C671 1.375 . S
N669 C672 1.313 . S
C670 C671 1.338 . S
C670 N673 1.377 . S
C670 H690 0.930 . S
C671 N669 1.375 . S
C671 C670 1.338 . S
C671 H675 0.931 . S
C672 N669 1.313 . S
C672 N673 1.344 . S
C672 H676 0.930 . S
N673 C670 1.377 . S
N673 C672 1.344 . S
O674 Co666 2.055 1_455 S
O674 C678 1.253 . S
H675 C671 0.931 . S
H676 C672 0.930 . S
O677 Co666 2.039 1_455 S
O677 C667 1.265 . S
C678 O674 1.253 . S
C678 O679 1.227 1_455 S
O679 C678 1.227 1_655 S
N680 Co666 2.140 . S
N680 C683 1.346 . S
N680 C684 1.345 . S
C681 C682 1.387 . S
C681 C685 1.391 . S
C682 C681 1.387 . S
C682 C683 1.369 . S
C682 H691 0.929 . S
C683 N680 1.346 . S
C683 C682 1.369 . S
C683 H686 0.928 . S
C684 N680 1.345 . S
C684 C685 1.371 . S
C684 H687 0.931 . S
C685 C681 1.391 . S
C685 C684 1.371 . S
C685 H692 0.930 . S
H686 C683 0.928 . S
H687 C684 0.931 . S
H688 C664 0.930 . S
H689 C661 0.930 . S
H690 C670 0.930 . S
H691 C682 0.929 . S
H692 C685 0.930 . S
C693 C694 1.351 . S
C693 N696 1.368 . S
C693 H698 0.931 . S
C694 C693 1.351 . S
C694 N695 1.373 . S
C694 H722 0.930 . S
N695 C694 1.373 . S
N695 C697 1.340 . S
N696 C693 1.368 . S
N696 C697 1.321 . S
N696 Co699 2.135 . S
C697 N695 1.340 . S
C697 N696 1.321 . S
C697 H721 0.930 . S
H698 C693 0.931 . S
Co699 N696 2.135 . S
Co699 N702 2.121 . S
Co699 O707 2.055 . S
Co699 O710 2.039 . S
Co699 N713 2.140 . S
C700 O701 1.227 . S
C700 O710 1.265 . S
O701 C700 1.227 . S
N702 Co699 2.121 . S
N702 C704 1.375 . S
N702 C705 1.313 . S
C703 C704 1.338 . S
C703 N706 1.377 . S
C703 H723 0.930 . S
C704 N702 1.375 . S
C704 C703 1.338 . S
C704 H708 0.931 . S
C705 N702 1.313 . S
C705 N706 1.344 . S
C705 H709 0.930 . S
N706 C703 1.377 . S
N706 C705 1.344 . S
O707 Co699 2.055 . S
O707 C711 1.253 . S
H708 C704 0.931 . S
H709 C705 0.930 . S
O710 Co699 2.039 . S
O710 C700 1.265 . S
C711 O707 1.253 . S
C711 O712 1.227 . S
O712 C711 1.227 . S
N713 Co699 2.140 . S
N713 C716 1.346 . S
N713 C717 1.345 . S
C714 C715 1.387 . S
C714 C718 1.391 . S
C715 C714 1.387 . S
C715 C716 1.369 . S
C715 H724 0.929 . S
C716 N713 1.346 . S
C716 C715 1.369 . S
C716 H719 0.928 . S
C717 N713 1.345 . S
C717 C718 1.371 . S
C717 H720 0.931 . S
C718 C714 1.391 . S
C718 C717 1.371 . S
C718 H725 0.930 . S
H719 C716 0.928 . S
H720 C717 0.931 . S
H721 C697 0.930 . S
H722 C694 0.930 . S
H723 C703 0.930 . S
H724 C715 0.929 . S
H725 C718 0.930 . S
C726 C727 1.351 . S
C726 N729 1.368 . S
C726 H731 0.931 . S
C727 C726 1.351 . S
C727 N728 1.373 . S
C727 H755 0.930 . S
N728 C727 1.373 . S
N728 C730 1.340 . S
N729 C726 1.368 . S
N729 C730 1.321 . S
N729 Co732 2.135 . S
C730 N728 1.340 . S
C730 N729 1.321 . S
C730 H754 0.930 . S
H731 C726 0.931 . S
Co732 N729 2.135 . S
Co732 N735 2.121 1_455 S
Co732 O740 2.055 1_455 S
Co732 O743 2.039 1_455 S
Co732 N746 2.140 . S
C733 O734 1.227 1_655 S
C733 O743 1.265 . S
O734 C733 1.227 1_455 S
N735 Co732 2.121 1_655 S
N735 C737 1.375 . S
N735 C738 1.313 . S
C736 C737 1.338 . S
C736 N739 1.377 . S
C736 H756 0.930 . S
C737 N735 1.375 . S
C737 C736 1.338 . S
C737 H741 0.931 . S
C738 N735 1.313 . S
C738 N739 1.344 . S
C738 H742 0.930 . S
N739 C736 1.377 . S
N739 C738 1.344 . S
O740 Co732 2.055 1_655 S
O740 C744 1.253 . S
H741 C737 0.931 . S
H742 C738 0.930 . S
O743 Co732 2.039 1_655 S
O743 C733 1.265 . S
C744 O740 1.253 . S
C744 O745 1.227 1_655 S
O745 C744 1.227 1_455 S
N746 Co732 2.140 . S
N746 C749 1.346 . S
N746 C750 1.345 . S
C747 C748 1.387 . S
C747 C751 1.391 . S
C748 C747 1.387 . S
C748 C749 1.369 . S
C748 H757 0.929 . S
C749 N746 1.346 . S
C749 C748 1.369 . S
C749 H752 0.928 . S
C750 N746 1.345 . S
C750 C751 1.371 . S
C750 H753 0.931 . S
C751 C747 1.391 . S
C751 C750 1.371 . S
C751 H758 0.930 . S
H752 C749 0.928 . S
H753 C750 0.931 . S
H754 C730 0.930 . S
H755 C727 0.930 . S
H756 C736 0.930 . S
H757 C748 0.929 . S
H758 C751 0.930 . S
C759 C760 1.351 . S
C759 N762 1.368 . S
C759 H764 0.931 . S
C760 C759 1.351 . S
C760 N761 1.373 . S
C760 H788 0.930 . S
N761 C760 1.373 . S
N761 C763 1.340 . S
N762 C759 1.368 . S
N762 C763 1.321 . S
N762 Co765 2.135 . S
C763 N761 1.340 . S
C763 N762 1.321 . S
C763 H787 0.930 . S
H764 C759 0.931 . S
Co765 N762 2.135 . S
Co765 N768 2.121 . S
Co765 O773 2.055 . S
Co765 O776 2.039 . S
Co765 N779 2.140 . S
C766 O767 1.227 . S
C766 O776 1.265 . S
O767 C766 1.227 . S
N768 Co765 2.121 . S
N768 C770 1.375 . S
N768 C771 1.313 . S
C769 C770 1.338 . S
C769 N772 1.377 . S
C769 H789 0.930 . S
C770 N768 1.375 . S
C770 C769 1.338 . S
C770 H774 0.931 . S
C771 N768 1.313 . S
C771 N772 1.344 . S
C771 H775 0.930 . S
N772 C769 1.377 . S
N772 C771 1.344 . S
O773 Co765 2.055 . S
O773 C777 1.253 . S
H774 C770 0.931 . S
H775 C771 0.930 . S
O776 Co765 2.039 . S
O776 C766 1.265 . S
C777 O773 1.253 . S
C777 O778 1.227 . S
O778 C777 1.227 . S
N779 Co765 2.140 . S
N779 C782 1.346 . S
N779 C783 1.345 . S
C780 C781 1.387 . S
C780 C784 1.391 . S
C781 C780 1.387 . S
C781 C782 1.369 . S
C781 H790 0.929 . S
C782 N779 1.346 . S
C782 C781 1.369 . S
C782 H785 0.928 . S
C783 N779 1.345 . S
C783 C784 1.371 . S
C783 H786 0.931 . S
C784 C780 1.391 . S
C784 C783 1.371 . S
C784 H791 0.930 . S
H785 C782 0.928 . S
H786 C783 0.931 . S
H787 C763 0.930 . S
H788 C760 0.930 . S
H789 C769 0.930 . S
H790 C781 0.929 . S
H791 C784 0.930 . S
C792 C793 1.351 . S
C792 N795 1.368 . S
C792 H797 0.931 . S
C793 C792 1.351 . S
C793 N794 1.373 . S
C793 H821 0.930 . S
N794 C793 1.373 . S
N794 C796 1.340 . S
N795 C792 1.368 . S
N795 C796 1.321 . S
N795 Co798 2.135 . S
C796 N794 1.340 . S
C796 N795 1.321 . S
C796 H820 0.930 . S
H797 C792 0.931 . S
Co798 N795 2.135 . S
Co798 N801 2.121 . S
Co798 O806 2.055 . S
Co798 O809 2.039 . S
Co798 N812 2.140 . S
C799 O800 1.227 . S
C799 O809 1.265 . S
O800 C799 1.227 . S
N801 Co798 2.121 . S
N801 C803 1.375 . S
N801 C804 1.313 . S
C802 C803 1.338 . S
C802 N805 1.377 . S
C802 H822 0.930 . S
C803 N801 1.375 . S
C803 C802 1.338 . S
C803 H807 0.931 . S
C804 N801 1.313 . S
C804 N805 1.344 . S
C804 H808 0.930 . S
N805 C802 1.377 . S
N805 C804 1.344 . S
O806 Co798 2.055 . S
O806 C810 1.253 . S
H807 C803 0.931 . S
H808 C804 0.930 . S
O809 Co798 2.039 . S
O809 C799 1.265 . S
C810 O806 1.253 . S
C810 O811 1.227 . S
O811 C810 1.227 . S
N812 Co798 2.140 . S
N812 C815 1.346 . S
N812 C816 1.345 . S
C813 C814 1.387 . S
C813 C817 1.391 . S
C814 C813 1.387 . S
C814 C815 1.369 . S
C814 H823 0.929 . S
C815 N812 1.346 . S
C815 C814 1.369 . S
C815 H818 0.928 . S
C816 N812 1.345 . S
C816 C817 1.371 . S
C816 H819 0.931 . S
C817 C813 1.391 . S
C817 C816 1.371 . S
C817 H824 0.930 . S
H818 C815 0.928 . S
H819 C816 0.931 . S
H820 C796 0.930 . S
H821 C793 0.930 . S
H822 C802 0.930 . S
H823 C814 0.929 . S
H824 C817 0.930 . S
C825 C826 1.351 . S
C825 N828 1.368 . S
C825 H830 0.931 . S
C826 C825 1.351 . S
C826 N827 1.373 . S
C826 H854 0.930 . S
N827 C826 1.373 . S
N827 C829 1.340 . S
N828 C825 1.368 . S
N828 C829 1.321 . S
N828 Co831 2.135 . S
C829 N827 1.340 . S
C829 N828 1.321 . S
C829 H853 0.930 . S
H830 C825 0.931 . S
Co831 N828 2.135 . S
Co831 N834 2.121 1_554 S
Co831 O839 2.055 1_554 S
Co831 O842 2.039 1_554 S
Co831 N845 2.140 . S
C832 O833 1.227 1_556 S
C832 O842 1.265 . S
O833 C832 1.227 1_554 S
N834 Co831 2.121 1_556 S
N834 C836 1.375 . S
N834 C837 1.313 . S
C835 C836 1.338 . S
C835 N838 1.377 . S
C835 H855 0.930 . S
C836 N834 1.375 . S
C836 C835 1.338 . S
C836 H840 0.931 . S
C837 N834 1.313 . S
C837 N838 1.344 . S
C837 H841 0.930 . S
N838 C835 1.377 . S
N838 C837 1.344 . S
O839 Co831 2.055 1_556 S
O839 C843 1.253 . S
H840 C836 0.931 . S
H841 C837 0.930 . S
O842 Co831 2.039 1_556 S
O842 C832 1.265 . S
C843 O839 1.253 . S
C843 O844 1.227 1_556 S
O844 C843 1.227 1_554 S
N845 Co831 2.140 . S
N845 C848 1.346 . S
N845 C849 1.345 . S
C846 C847 1.387 . S
C846 C850 1.391 . S
C847 C846 1.387 . S
C847 C848 1.369 . S
C847 H856 0.929 . S
C848 N845 1.346 . S
C848 C847 1.369 . S
C848 H851 0.928 . S
C849 N845 1.345 . S
C849 C850 1.371 . S
C849 H852 0.931 . S
C850 C846 1.391 . S
C850 C849 1.371 . S
C850 H857 0.930 . S
H851 C848 0.928 . S
H852 C849 0.931 . S
H853 C829 0.930 . S
H854 C826 0.930 . S
H855 C835 0.930 . S
H856 C847 0.929 . S
H857 C850 0.930 . S
C858 C859 1.351 . S
C858 N861 1.368 . S
C858 H863 0.931 . S
C859 C858 1.351 . S
C859 N860 1.373 . S
C859 H887 0.930 . S
N860 C859 1.373 . S
N860 C862 1.340 . S
N861 C858 1.368 . S
N861 C862 1.321 . S
N861 Co864 2.135 . S
C862 N860 1.340 . S
C862 N861 1.321 . S
C862 H886 0.930 . S
H863 C858 0.931 . S
Co864 N861 2.135 . S
Co864 N867 2.121 . S
Co864 O872 2.055 . S
Co864 O875 2.039 . S
Co864 N878 2.140 . S
C865 O866 1.227 . S
C865 O875 1.265 . S
O866 C865 1.227 . S
N867 Co864 2.121 . S
N867 C869 1.375 . S
N867 C870 1.313 . S
C868 C869 1.338 . S
C868 N871 1.377 . S
C868 H888 0.930 . S
C869 N867 1.375 . S
C869 C868 1.338 . S
C869 H873 0.931 . S
C870 N867 1.313 . S
C870 N871 1.344 . S
C870 H874 0.930 . S
N871 C868 1.377 . S
N871 C870 1.344 . S
O872 Co864 2.055 . S
O872 C876 1.253 . S
H873 C869 0.931 . S
H874 C870 0.930 . S
O875 Co864 2.039 . S
O875 C865 1.265 . S
C876 O872 1.253 . S
C876 O877 1.227 . S
O877 C876 1.227 . S
N878 Co864 2.140 . S
N878 C881 1.346 . S
N878 C882 1.345 . S
C879 C880 1.387 . S
C879 C883 1.391 . S
C880 C879 1.387 . S
C880 C881 1.369 . S
C880 H889 0.929 . S
C881 N878 1.346 . S
C881 C880 1.369 . S
C881 H884 0.928 . S
C882 N878 1.345 . S
C882 C883 1.371 . S
C882 H885 0.931 . S
C883 C879 1.391 . S
C883 C882 1.371 . S
C883 H890 0.930 . S
H884 C881 0.928 . S
H885 C882 0.931 . S
H886 C862 0.930 . S
H887 C859 0.930 . S
H888 C868 0.930 . S
H889 C880 0.929 . S
H890 C883 0.930 . S
C891 C892 1.351 . S
C891 N894 1.368 1_455 S
C891 H896 0.931 . S
C892 C891 1.351 . S
C892 N893 1.373 1_455 S
C892 H920 0.930 . S
N893 C892 1.373 1_655 S
N893 C895 1.340 . S
N894 C891 1.368 1_655 S
N894 C895 1.321 . S
N894 Co897 2.135 . S
C895 N893 1.340 . S
C895 N894 1.321 . S
C895 H919 0.930 . S
H896 C891 0.931 . S
Co897 N894 2.135 . S
Co897 N900 2.121 . S
Co897 O905 2.055 . S
Co897 O908 2.039 . S
Co897 N911 2.140 . S
C898 O899 1.227 . S
C898 O908 1.265 . S
O899 C898 1.227 . S
N900 Co897 2.121 . S
N900 C902 1.375 . S
N900 C903 1.313 . S
C901 C902 1.338 . S
C901 N904 1.377 . S
C901 H921 0.930 . S
C902 N900 1.375 . S
C902 C901 1.338 . S
C902 H906 0.931 . S
C903 N900 1.313 . S
C903 N904 1.344 . S
C903 H907 0.930 . S
N904 C901 1.377 . S
N904 C903 1.344 . S
O905 Co897 2.055 . S
O905 C909 1.253 . S
H906 C902 0.931 . S
H907 C903 0.930 . S
O908 Co897 2.039 . S
O908 C898 1.265 . S
C909 O905 1.253 . S
C909 O910 1.227 . S
O910 C909 1.227 . S
N911 Co897 2.140 . S
N911 C914 1.346 . S
N911 C915 1.345 . S
C912 C913 1.387 . S
C912 C916 1.391 . S
C913 C912 1.387 . S
C913 C914 1.369 . S
C913 H922 0.929 . S
C914 N911 1.346 . S
C914 C913 1.369 . S
C914 H917 0.928 . S
C915 N911 1.345 . S
C915 C916 1.371 . S
C915 H918 0.931 . S
C916 C912 1.391 . S
C916 C915 1.371 . S
C916 H923 0.930 . S
H917 C914 0.928 . S
H918 C915 0.931 . S
H919 C895 0.930 . S
H920 C892 0.930 . S
H921 C901 0.930 . S
H922 C913 0.929 . S
H923 C916 0.930 . S
C924 C925 1.351 . S
C924 N927 1.368 . S
C924 H929 0.931 . S
C925 C924 1.351 . S
C925 N926 1.373 . S
C925 H953 0.930 . S
N926 C925 1.373 . S
N926 C928 1.340 . S
N927 C924 1.368 . S
N927 C928 1.321 . S
N927 Co930 2.135 . S
C928 N926 1.340 . S
C928 N927 1.321 . S
C928 H952 0.930 . S
H929 C924 0.931 . S
Co930 N927 2.135 . S
Co930 N933 2.121 . S
Co930 O938 2.055 . S
Co930 O941 2.039 . S
Co930 N944 2.140 . S
C931 O932 1.227 . S
C931 O941 1.265 . S
O932 C931 1.227 . S
N933 Co930 2.121 . S
N933 C935 1.375 . S
N933 C936 1.313 . S
C934 C935 1.338 . S
C934 N937 1.377 . S
C934 H954 0.930 . S
C935 N933 1.375 . S
C935 C934 1.338 . S
C935 H939 0.931 . S
C936 N933 1.313 . S
C936 N937 1.344 . S
C936 H940 0.930 . S
N937 C934 1.377 . S
N937 C936 1.344 . S
O938 Co930 2.055 . S
O938 C942 1.253 . S
H939 C935 0.931 . S
H940 C936 0.930 . S
O941 Co930 2.039 . S
O941 C931 1.265 . S
C942 O938 1.253 . S
C942 O943 1.227 . S
O943 C942 1.227 . S
N944 Co930 2.140 . S
N944 C947 1.346 . S
N944 C948 1.345 . S
C945 C946 1.387 . S
C945 C949 1.391 . S
C946 C945 1.387 . S
C946 C947 1.369 . S
C946 H955 0.929 . S
C947 N944 1.346 . S
C947 C946 1.369 . S
C947 H950 0.928 . S
C948 N944 1.345 . S
C948 C949 1.371 . S
C948 H951 0.931 . S
C949 C945 1.391 . S
C949 C948 1.371 . S
C949 H956 0.930 . S
H950 C947 0.928 . S
H951 C948 0.931 . S
H952 C928 0.930 . S
H953 C925 0.930 . S
H954 C934 0.930 . S
H955 C946 0.929 . S
H956 C949 0.930 . S
C957 C958 1.351 . S
C957 N960 1.368 1_455 S
C957 H962 0.931 . S
C958 C957 1.351 . S
C958 N959 1.373 1_455 S
C958 H986 0.930 . S
N959 C958 1.373 1_655 S
N959 C961 1.340 . S
N960 C957 1.368 1_655 S
N960 C961 1.321 . S
N960 Co963 2.135 . S
C961 N959 1.340 . S
C961 N960 1.321 . S
C961 H985 0.930 . S
H962 C957 0.931 . S
Co963 N960 2.135 . S
Co963 N966 2.121 1_556 S
Co963 O971 2.055 1_556 S
Co963 O974 2.039 1_556 S
Co963 N977 2.140 . S
C964 O965 1.227 1_554 S
C964 O974 1.265 . S
O965 C964 1.227 1_556 S
N966 Co963 2.121 1_554 S
N966 C968 1.375 . S
N966 C969 1.313 . S
C967 C968 1.338 . S
C967 N970 1.377 . S
C967 H987 0.930 . S
C968 N966 1.375 . S
C968 C967 1.338 . S
C968 H972 0.931 . S
C969 N966 1.313 . S
C969 N970 1.344 . S
C969 H973 0.930 . S
N970 C967 1.377 . S
N970 C969 1.344 . S
O971 Co963 2.055 1_554 S
O971 C975 1.253 . S
H972 C968 0.931 . S
H973 C969 0.930 . S
O974 Co963 2.039 1_554 S
O974 C964 1.265 . S
C975 O971 1.253 . S
C975 O976 1.227 1_554 S
O976 C975 1.227 1_556 S
N977 Co963 2.140 . S
N977 C980 1.346 . S
N977 C981 1.345 . S
C978 C979 1.387 . S
C978 C982 1.391 . S
C979 C978 1.387 . S
C979 C980 1.369 . S
C979 H988 0.929 . S
C980 N977 1.346 . S
C980 C979 1.369 . S
C980 H983 0.928 . S
C981 N977 1.345 . S
C981 C982 1.371 . S
C981 H984 0.931 . S
C982 C978 1.391 . S
C982 C981 1.371 . S
C982 H989 0.930 . S
H983 C980 0.928 . S
H984 C981 0.931 . S
H985 C961 0.930 . S
H986 C958 0.930 . S
H987 C967 0.930 . S
H988 C979 0.929 . S
H989 C982 0.930 . S
C990 C991 1.351 . S
C990 N993 1.368 . S
C990 H995 0.931 . S
C991 C990 1.351 . S
C991 N992 1.373 . S
C991 H1019 0.930 . S
N992 C991 1.373 . S
N992 C994 1.340 . S
N993 C990 1.368 . S
N993 C994 1.321 . S
N993 Co996 2.135 . S
C994 N992 1.340 . S
C994 N993 1.321 . S
C994 H1018 0.930 . S
H995 C990 0.931 . S
Co996 N993 2.135 . S
Co996 N999 2.121 . S
Co996 O1004 2.055 . S
Co996 O1007 2.039 . S
Co996 N1010 2.140 . S
C997 O998 1.227 . S
C997 O1007 1.265 . S
O998 C997 1.227 . S
N999 Co996 2.121 . S
N999 C1001 1.375 . S
N999 C1002 1.313 . S
C1000 C1001 1.338 . S
C1000 N1003 1.377 . S
C1000 H1020 0.930 . S
C1001 N999 1.375 . S
C1001 C1000 1.338 . S
C1001 H1005 0.931 . S
C1002 N999 1.313 . S
C1002 N1003 1.344 . S
C1002 H1006 0.930 . S
N1003 C1000 1.377 . S
N1003 C1002 1.344 . S
O1004 Co996 2.055 . S
O1004 C1008 1.253 . S
H1005 C1001 0.931 . S
H1006 C1002 0.930 . S
O1007 Co996 2.039 . S
O1007 C997 1.265 . S
C1008 O1004 1.253 . S
C1008 O1009 1.227 . S
O1009 C1008 1.227 . S
N1010 Co996 2.140 . S
N1010 C1013 1.346 . S
N1010 C1014 1.345 . S
C1011 C1012 1.387 . S
C1011 C1015 1.391 . S
C1012 C1011 1.387 . S
C1012 C1013 1.369 . S
C1012 H1021 0.929 . S
C1013 N1010 1.346 . S
C1013 C1012 1.369 . S
C1013 H1016 0.928 . S
C1014 N1010 1.345 . S
C1014 C1015 1.371 . S
C1014 H1017 0.931 . S
C1015 C1011 1.391 . S
C1015 C1014 1.371 . S
C1015 H1022 0.930 . S
H1016 C1013 0.928 . S
H1017 C1014 0.931 . S
H1018 C994 0.930 . S
H1019 C991 0.930 . S
H1020 C1000 0.930 . S
H1021 C1012 0.929 . S
H1022 C1015 0.930 . S
C1023 C1024 1.351 . S
C1023 N1026 1.368 . S
C1023 H1028 0.931 . S
C1024 C1023 1.351 . S
C1024 N1025 1.373 . S
C1024 H1052 0.930 . S
N1025 C1024 1.373 . S
N1025 C1027 1.340 . S
N1026 C1023 1.368 . S
N1026 C1027 1.321 . S
N1026 Co1029 2.135 . S
C1027 N1025 1.340 . S
C1027 N1026 1.321 . S
C1027 H1051 0.930 . S
H1028 C1023 0.931 . S
Co1029 N1026 2.135 . S
Co1029 N1032 2.121 . S
Co1029 O1037 2.055 . S
Co1029 O1040 2.039 . S
Co1029 N1043 2.140 . S
C1030 O1031 1.227 . S
C1030 O1040 1.265 . S
O1031 C1030 1.227 . S
N1032 Co1029 2.121 . S
N1032 C1034 1.375 . S
N1032 C1035 1.313 . S
C1033 C1034 1.338 . S
C1033 N1036 1.377 . S
C1033 H1053 0.930 . S
C1034 N1032 1.375 . S
C1034 C1033 1.338 . S
C1034 H1038 0.931 . S
C1035 N1032 1.313 . S
C1035 N1036 1.344 . S
C1035 H1039 0.930 . S
N1036 C1033 1.377 . S
N1036 C1035 1.344 . S
O1037 Co1029 2.055 . S
O1037 C1041 1.253 . S
H1038 C1034 0.931 . S
H1039 C1035 0.930 . S
O1040 Co1029 2.039 . S
O1040 C1030 1.265 . S
C1041 O1037 1.253 . S
C1041 O1042 1.227 . S
O1042 C1041 1.227 . S
N1043 Co1029 2.140 . S
N1043 C1046 1.346 . S
N1043 C1047 1.345 . S
C1044 C1045 1.387 . S
C1044 C1048 1.391 . S
C1045 C1044 1.387 . S
C1045 C1046 1.369 . S
C1045 H1054 0.929 . S
C1046 N1043 1.346 . S
C1046 C1045 1.369 . S
C1046 H1049 0.928 . S
C1047 N1043 1.345 . S
C1047 C1048 1.371 . S
C1047 H1050 0.931 . S
C1048 C1044 1.391 . S
C1048 C1047 1.371 . S
C1048 H1055 0.930 . S
H1049 C1046 0.928 . S
H1050 C1047 0.931 . S
H1051 C1027 0.930 . S
H1052 C1024 0.930 . S
H1053 C1033 0.930 . S
H1054 C1045 0.929 . S
H1055 C1048 0.930 . S
C1056 C1057 1.351 . S
C1056 N1059 1.368 . S
C1056 H1061 0.931 . S
C1057 C1056 1.351 . S
C1057 N1058 1.373 . S
C1057 H1085 0.930 . S
N1058 C1057 1.373 . S
N1058 C1060 1.340 . S
N1059 C1056 1.368 . S
N1059 C1060 1.321 . S
N1059 Co1062 2.135 . S
C1060 N1058 1.340 . S
C1060 N1059 1.321 . S
C1060 H1084 0.930 . S
H1061 C1056 0.931 . S
Co1062 N1059 2.135 . S
Co1062 N1065 2.121 . S
Co1062 O1070 2.055 . S
Co1062 O1073 2.039 . S
Co1062 N1076 2.140 . S
C1063 O1064 1.227 . S
C1063 O1073 1.265 . S
O1064 C1063 1.227 . S
N1065 Co1062 2.121 . S
N1065 C1067 1.375 . S
N1065 C1068 1.313 . S
C1066 C1067 1.338 . S
C1066 N1069 1.377 . S
C1066 H1086 0.930 . S
C1067 N1065 1.375 . S
C1067 C1066 1.338 . S
C1067 H1071 0.931 . S
C1068 N1065 1.313 . S
C1068 N1069 1.344 . S
C1068 H1072 0.930 . S
N1069 C1066 1.377 . S
N1069 C1068 1.344 . S
O1070 Co1062 2.055 . S
O1070 C1074 1.253 . S
H1071 C1067 0.931 . S
H1072 C1068 0.930 . S
O1073 Co1062 2.039 . S
O1073 C1063 1.265 . S
C1074 O1070 1.253 . S
C1074 O1075 1.227 . S
O1075 C1074 1.227 . S
N1076 Co1062 2.140 . S
N1076 C1079 1.346 . S
N1076 C1080 1.345 . S
C1077 C1078 1.387 . S
C1077 C1081 1.391 . S
C1078 C1077 1.387 . S
C1078 C1079 1.369 . S
C1078 H1087 0.929 . S
C1079 N1076 1.346 . S
C1079 C1078 1.369 . S
C1079 H1082 0.928 . S
C1080 N1076 1.345 . S
C1080 C1081 1.371 . S
C1080 H1083 0.931 . S
C1081 C1077 1.391 . S
C1081 C1080 1.371 . S
C1081 H1088 0.930 . S
H1082 C1079 0.928 . S
H1083 C1080 0.931 . S
H1084 C1060 0.930 . S
H1085 C1057 0.930 . S
H1086 C1066 0.930 . S
H1087 C1078 0.929 . S
H1088 C1081 0.930 . S
C1089 C1090 1.351 . S
C1089 N1092 1.368 1_554 S
C1089 H1094 0.931 . S
C1090 C1089 1.351 . S
C1090 N1091 1.373 1_554 S
C1090 H1118 0.930 . S
N1091 C1090 1.373 1_556 S
N1091 C1093 1.340 . S
N1092 C1089 1.368 1_556 S
N1092 C1093 1.321 . S
N1092 Co1095 2.135 . S
C1093 N1091 1.340 . S
C1093 N1092 1.321 . S
C1093 H1117 0.930 . S
H1094 C1089 0.931 . S
Co1095 N1092 2.135 . S
Co1095 N1098 2.121 . S
Co1095 O1103 2.055 . S
Co1095 O1106 2.039 . S
Co1095 N1109 2.140 . S
C1096 O1097 1.227 . S
C1096 O1106 1.265 . S
O1097 C1096 1.227 . S
N1098 Co1095 2.121 . S
N1098 C1100 1.375 . S
N1098 C1101 1.313 . S
C1099 C1100 1.338 . S
C1099 N1102 1.377 . S
C1099 H1119 0.930 . S
C1100 N1098 1.375 . S
C1100 C1099 1.338 . S
C1100 H1104 0.931 . S
C1101 N1098 1.313 . S
C1101 N1102 1.344 . S
C1101 H1105 0.930 . S
N1102 C1099 1.377 . S
N1102 C1101 1.344 . S
O1103 Co1095 2.055 . S
O1103 C1107 1.253 . S
H1104 C1100 0.931 . S
H1105 C1101 0.930 . S
O1106 Co1095 2.039 . S
O1106 C1096 1.265 . S
C1107 O1103 1.253 . S
C1107 O1108 1.227 . S
O1108 C1107 1.227 . S
N1109 Co1095 2.140 . S
N1109 C1112 1.346 . S
N1109 C1113 1.345 . S
C1110 C1111 1.387 . S
C1110 C1114 1.391 . S
C1111 C1110 1.387 . S
C1111 C1112 1.369 . S
C1111 H1120 0.929 . S
C1112 N1109 1.346 . S
C1112 C1111 1.369 . S
C1112 H1115 0.928 . S
C1113 N1109 1.345 . S
C1113 C1114 1.371 . S
C1113 H1116 0.931 . S
C1114 C1110 1.391 . S
C1114 C1113 1.371 . S
C1114 H1121 0.930 . S
H1115 C1112 0.928 . S
H1116 C1113 0.931 . S
H1117 C1093 0.930 . S
H1118 C1090 0.930 . S
H1119 C1099 0.930 . S
H1120 C1111 0.929 . S
H1121 C1114 0.930 . S
C1122 C1123 1.351 . S
C1122 N1125 1.368 . S
C1122 H1127 0.931 . S
C1123 C1122 1.351 . S
C1123 N1124 1.373 . S
C1123 H1151 0.930 . S
N1124 C1123 1.373 . S
N1124 C1126 1.340 . S
N1125 C1122 1.368 . S
N1125 C1126 1.321 . S
N1125 Co1128 2.135 . S
C1126 N1124 1.340 . S
C1126 N1125 1.321 . S
C1126 H1150 0.930 . S
H1127 C1122 0.931 . S
Co1128 N1125 2.135 . S
Co1128 N1131 2.121 . S
Co1128 O1136 2.055 . S
Co1128 O1139 2.039 . S
Co1128 N1142 2.140 . S
C1129 O1130 1.227 . S
C1129 O1139 1.265 . S
O1130 C1129 1.227 . S
N1131 Co1128 2.121 . S
N1131 C1133 1.375 . S
N1131 C1134 1.313 . S
C1132 C1133 1.338 . S
C1132 N1135 1.377 . S
C1132 H1152 0.930 . S
C1133 N1131 1.375 . S
C1133 C1132 1.338 . S
C1133 H1137 0.931 . S
C1134 N1131 1.313 . S
C1134 N1135 1.344 . S
C1134 H1138 0.930 . S
N1135 C1132 1.377 . S
N1135 C1134 1.344 . S
O1136 Co1128 2.055 . S
O1136 C1140 1.253 . S
H1137 C1133 0.931 . S
H1138 C1134 0.930 . S
O1139 Co1128 2.039 . S
O1139 C1129 1.265 . S
C1140 O1136 1.253 . S
C1140 O1141 1.227 . S
O1141 C1140 1.227 . S
N1142 Co1128 2.140 . S
N1142 C1145 1.346 . S
N1142 C1146 1.345 . S
C1143 C1144 1.387 . S
C1143 C1147 1.391 . S
C1144 C1143 1.387 . S
C1144 C1145 1.369 . S
C1144 H1153 0.929 . S
C1145 N1142 1.346 . S
C1145 C1144 1.369 . S
C1145 H1148 0.928 . S
C1146 N1142 1.345 . S
C1146 C1147 1.371 . S
C1146 H1149 0.931 . S
C1147 C1143 1.391 . S
C1147 C1146 1.371 . S
C1147 H1154 0.930 . S
H1148 C1145 0.928 . S
H1149 C1146 0.931 . S
H1150 C1126 0.930 . S
H1151 C1123 0.930 . S
H1152 C1132 0.930 . S
H1153 C1144 0.929 . S
H1154 C1147 0.930 . S
C1155 C1156 1.351 . S
C1155 N1158 1.368 . S
C1155 H1160 0.931 . S
C1156 C1155 1.351 . S
C1156 N1157 1.373 . S
C1156 H1184 0.930 . S
N1157 C1156 1.373 . S
N1157 C1159 1.340 . S
N1158 C1155 1.368 . S
N1158 C1159 1.321 . S
N1158 Co1161 2.135 . S
C1159 N1157 1.340 . S
C1159 N1158 1.321 . S
C1159 H1183 0.930 . S
H1160 C1155 0.931 . S
Co1161 N1158 2.135 . S
Co1161 N1164 2.121 . S
Co1161 O1169 2.055 . S
Co1161 O1172 2.039 . S
Co1161 N1175 2.140 . S
C1162 O1163 1.227 . S
C1162 O1172 1.265 . S
O1163 C1162 1.227 . S
N1164 Co1161 2.121 . S
N1164 C1166 1.375 . S
N1164 C1167 1.313 . S
C1165 C1166 1.338 . S
C1165 N1168 1.377 . S
C1165 H1185 0.930 . S
C1166 N1164 1.375 . S
C1166 C1165 1.338 . S
C1166 H1170 0.931 . S
C1167 N1164 1.313 . S
C1167 N1168 1.344 . S
C1167 H1171 0.930 . S
N1168 C1165 1.377 . S
N1168 C1167 1.344 . S
O1169 Co1161 2.055 . S
O1169 C1173 1.253 . S
H1170 C1166 0.931 . S
H1171 C1167 0.930 . S
O1172 Co1161 2.039 . S
O1172 C1162 1.265 . S
C1173 O1169 1.253 . S
C1173 O1174 1.227 . S
O1174 C1173 1.227 . S
N1175 Co1161 2.140 . S
N1175 C1178 1.346 . S
N1175 C1179 1.345 . S
C1176 C1177 1.387 . S
C1176 C1180 1.391 . S
C1177 C1176 1.387 . S
C1177 C1178 1.369 . S
C1177 H1186 0.929 . S
C1178 N1175 1.346 . S
C1178 C1177 1.369 . S
C1178 H1181 0.928 . S
C1179 N1175 1.345 . S
C1179 C1180 1.371 . S
C1179 H1182 0.931 . S
C1180 C1176 1.391 . S
C1180 C1179 1.371 . S
C1180 H1187 0.930 . S
H1181 C1178 0.928 . S
H1182 C1179 0.931 . S
H1183 C1159 0.930 . S
H1184 C1156 0.930 . S
H1185 C1165 0.930 . S
H1186 C1177 0.929 . S
H1187 C1180 0.930 . S
C1188 C1189 1.351 . S
C1188 N1191 1.368 . S
C1188 H1193 0.931 . S
C1189 C1188 1.351 . S
C1189 N1190 1.373 . S
C1189 H1217 0.930 . S
N1190 C1189 1.373 . S
N1190 C1192 1.340 . S
N1191 C1188 1.368 . S
N1191 C1192 1.321 . S
N1191 Co1194 2.135 . S
C1192 N1190 1.340 . S
C1192 N1191 1.321 . S
C1192 H1216 0.930 . S
H1193 C1188 0.931 . S
Co1194 N1191 2.135 . S
Co1194 N1197 2.121 . S
Co1194 O1202 2.055 . S
Co1194 O1205 2.039 . S
Co1194 N1208 2.140 . S
C1195 O1196 1.227 . S
C1195 O1205 1.265 . S
O1196 C1195 1.227 . S
N1197 Co1194 2.121 . S
N1197 C1199 1.375 . S
N1197 C1200 1.313 . S
C1198 C1199 1.338 . S
C1198 N1201 1.377 . S
C1198 H1218 0.930 . S
C1199 N1197 1.375 . S
C1199 C1198 1.338 . S
C1199 H1203 0.931 . S
C1200 N1197 1.313 . S
C1200 N1201 1.344 . S
C1200 H1204 0.930 . S
N1201 C1198 1.377 . S
N1201 C1200 1.344 . S
O1202 Co1194 2.055 . S
O1202 C1206 1.253 . S
H1203 C1199 0.931 . S
H1204 C1200 0.930 . S
O1205 Co1194 2.039 . S
O1205 C1195 1.265 . S
C1206 O1202 1.253 . S
C1206 O1207 1.227 . S
O1207 C1206 1.227 . S
N1208 Co1194 2.140 . S
N1208 C1211 1.346 . S
N1208 C1212 1.345 . S
C1209 C1210 1.387 . S
C1209 C1213 1.391 . S
C1210 C1209 1.387 . S
C1210 C1211 1.369 . S
C1210 H1219 0.929 . S
C1211 N1208 1.346 . S
C1211 C1210 1.369 . S
C1211 H1214 0.928 . S
C1212 N1208 1.345 . S
C1212 C1213 1.371 . S
C1212 H1215 0.931 . S
C1213 C1209 1.391 . S
C1213 C1212 1.371 . S
C1213 H1220 0.930 . S
H1214 C1211 0.928 . S
H1215 C1212 0.931 . S
H1216 C1192 0.930 . S
H1217 C1189 0.930 . S
H1218 C1198 0.930 . S
H1219 C1210 0.929 . S
H1220 C1213 0.930 . S
C1221 C1222 1.351 . S
C1221 N1224 1.368 1_556 S
C1221 H1226 0.931 . S
C1222 C1221 1.351 . S
C1222 N1223 1.373 1_556 S
C1222 H1250 0.930 . S
N1223 C1222 1.373 1_554 S
N1223 C1225 1.340 . S
N1224 C1221 1.368 1_554 S
N1224 C1225 1.321 . S
N1224 Co1227 2.135 . S
C1225 N1223 1.340 . S
C1225 N1224 1.321 . S
C1225 H1249 0.930 . S
H1226 C1221 0.931 . S
Co1227 N1224 2.135 . S
Co1227 N1230 2.121 . S
Co1227 O1235 2.055 . S
Co1227 O1238 2.039 . S
Co1227 N1241 2.140 . S
C1228 O1229 1.227 . S
C1228 O1238 1.265 . S
O1229 C1228 1.227 . S
N1230 Co1227 2.121 . S
N1230 C1232 1.375 . S
N1230 C1233 1.313 . S
C1231 C1232 1.338 . S
C1231 N1234 1.377 . S
C1231 H1251 0.930 . S
C1232 N1230 1.375 . S
C1232 C1231 1.338 . S
C1232 H1236 0.931 . S
C1233 N1230 1.313 . S
C1233 N1234 1.344 . S
C1233 H1237 0.930 . S
N1234 C1231 1.377 . S
N1234 C1233 1.344 . S
O1235 Co1227 2.055 . S
O1235 C1239 1.253 . S
H1236 C1232 0.931 . S
H1237 C1233 0.930 . S
O1238 Co1227 2.039 . S
O1238 C1228 1.265 . S
C1239 O1235 1.253 . S
C1239 O1240 1.227 . S
O1240 C1239 1.227 . S
N1241 Co1227 2.140 . S
N1241 C1244 1.346 . S
N1241 C1245 1.345 . S
C1242 C1243 1.387 . S
C1242 C1246 1.391 . S
C1243 C1242 1.387 . S
C1243 C1244 1.369 . S
C1243 H1252 0.929 . S
C1244 N1241 1.346 . S
C1244 C1243 1.369 . S
C1244 H1247 0.928 . S
C1245 N1241 1.345 . S
C1245 C1246 1.371 . S
C1245 H1248 0.931 . S
C1246 C1242 1.391 . S
C1246 C1245 1.371 . S
C1246 H1253 0.930 . S
H1247 C1244 0.928 . S
H1248 C1245 0.931 . S
H1249 C1225 0.930 . S
H1250 C1222 0.930 . S
H1251 C1231 0.930 . S
H1252 C1243 0.929 . S
H1253 C1246 0.930 . S
C1254 C1255 1.351 . S
C1254 N1257 1.368 . S
C1254 H1259 0.931 . S
C1255 C1254 1.351 . S
C1255 N1256 1.373 . S
C1255 H1283 0.930 . S
N1256 C1255 1.373 . S
N1256 C1258 1.340 . S
N1257 C1254 1.368 . S
N1257 C1258 1.321 . S
N1257 Co1260 2.135 . S
C1258 N1256 1.340 . S
C1258 N1257 1.321 . S
C1258 H1282 0.930 . S
H1259 C1254 0.931 . S
Co1260 N1257 2.135 . S
Co1260 N1263 2.121 . S
Co1260 O1268 2.055 . S
Co1260 O1271 2.039 . S
Co1260 N1274 2.140 . S
C1261 O1262 1.227 . S
C1261 O1271 1.265 . S
O1262 C1261 1.227 . S
N1263 Co1260 2.121 . S
N1263 C1265 1.375 . S
N1263 C1266 1.313 . S
C1264 C1265 1.338 . S
C1264 N1267 1.377 . S
C1264 H1284 0.930 . S
C1265 N1263 1.375 . S
C1265 C1264 1.338 . S
C1265 H1269 0.931 . S
C1266 N1263 1.313 . S
C1266 N1267 1.344 . S
C1266 H1270 0.930 . S
N1267 C1264 1.377 . S
N1267 C1266 1.344 . S
O1268 Co1260 2.055 . S
O1268 C1272 1.253 . S
H1269 C1265 0.931 . S
H1270 C1266 0.930 . S
O1271 Co1260 2.039 . S
O1271 C1261 1.265 . S
C1272 O1268 1.253 . S
C1272 O1273 1.227 . S
O1273 C1272 1.227 . S
N1274 Co1260 2.140 . S
N1274 C1277 1.346 . S
N1274 C1278 1.345 . S
C1275 C1276 1.387 . S
C1275 C1279 1.391 . S
C1276 C1275 1.387 . S
C1276 C1277 1.369 . S
C1276 H1285 0.929 . S
C1277 N1274 1.346 . S
C1277 C1276 1.369 . S
C1277 H1280 0.928 . S
C1278 N1274 1.345 . S
C1278 C1279 1.371 . S
C1278 H1281 0.931 . S
C1279 C1275 1.391 . S
C1279 C1278 1.371 . S
C1279 H1286 0.930 . S
H1280 C1277 0.928 . S
H1281 C1278 0.931 . S
H1282 C1258 0.930 . S
H1283 C1255 0.930 . S
H1284 C1264 0.930 . S
H1285 C1276 0.929 . S
H1286 C1279 0.930 . S
C1287 C1288 1.351 . S
C1287 N1290 1.368 . S
C1287 H1292 0.931 . S
C1288 C1287 1.351 . S
C1288 N1289 1.373 . S
C1288 H1316 0.930 . S
N1289 C1288 1.373 . S
N1289 C1291 1.340 . S
N1290 C1287 1.368 . S
N1290 C1291 1.321 . S
N1290 Co1293 2.135 . S
C1291 N1289 1.340 . S
C1291 N1290 1.321 . S
C1291 H1315 0.930 . S
H1292 C1287 0.931 . S
Co1293 N1290 2.135 . S
Co1293 N1296 2.121 . S
Co1293 O1301 2.055 . S
Co1293 O1304 2.039 . S
Co1293 N1307 2.140 . S
C1294 O1295 1.227 . S
C1294 O1304 1.265 . S
O1295 C1294 1.227 . S
N1296 Co1293 2.121 . S
N1296 C1298 1.375 . S
N1296 C1299 1.313 . S
C1297 C1298 1.338 . S
C1297 N1300 1.377 . S
C1297 H1317 0.930 . S
C1298 N1296 1.375 . S
C1298 C1297 1.338 . S
C1298 H1302 0.931 . S
C1299 N1296 1.313 . S
C1299 N1300 1.344 . S
C1299 H1303 0.930 . S
N1300 C1297 1.377 . S
N1300 C1299 1.344 . S
O1301 Co1293 2.055 . S
O1301 C1305 1.253 . S
H1302 C1298 0.931 . S
H1303 C1299 0.930 . S
O1304 Co1293 2.039 . S
O1304 C1294 1.265 . S
C1305 O1301 1.253 . S
C1305 O1306 1.227 . S
O1306 C1305 1.227 . S
N1307 Co1293 2.140 . S
N1307 C1310 1.346 . S
N1307 C1311 1.345 . S
C1308 C1309 1.387 . S
C1308 C1312 1.391 . S
C1309 C1308 1.387 . S
C1309 C1310 1.369 . S
C1309 H1318 0.929 . S
C1310 N1307 1.346 . S
C1310 C1309 1.369 . S
C1310 H1313 0.928 . S
C1311 N1307 1.345 . S
C1311 C1312 1.371 . S
C1311 H1314 0.931 . S
C1312 C1308 1.391 . S
C1312 C1311 1.371 . S
C1312 H1319 0.930 . S
H1313 C1310 0.928 . S
H1314 C1311 0.931 . S
H1315 C1291 0.930 . S
H1316 C1288 0.930 . S
H1317 C1297 0.930 . S
H1318 C1309 0.929 . S
H1319 C1312 0.930 . S
C1320 C1321 1.351 . S
C1320 N1323 1.368 . S
C1320 H1325 0.931 . S
C1321 C1320 1.351 . S
C1321 N1322 1.373 . S
C1321 H1349 0.930 . S
N1322 C1321 1.373 . S
N1322 C1324 1.340 . S
N1323 C1320 1.368 . S
N1323 C1324 1.321 . S
N1323 Co1326 2.135 . S
C1324 N1322 1.340 . S
C1324 N1323 1.321 . S
C1324 H1348 0.930 . S
H1325 C1320 0.931 . S
Co1326 N1323 2.135 . S
Co1326 N1329 2.121 . S
Co1326 O1334 2.055 . S
Co1326 O1337 2.039 . S
Co1326 N1340 2.140 . S
C1327 O1328 1.227 . S
C1327 O1337 1.265 . S
O1328 C1327 1.227 . S
N1329 Co1326 2.121 . S
N1329 C1331 1.375 . S
N1329 C1332 1.313 . S
C1330 C1331 1.338 . S
C1330 N1333 1.377 . S
C1330 H1350 0.930 . S
C1331 N1329 1.375 . S
C1331 C1330 1.338 . S
C1331 H1335 0.931 . S
C1332 N1329 1.313 . S
C1332 N1333 1.344 . S
C1332 H1336 0.930 . S
N1333 C1330 1.377 . S
N1333 C1332 1.344 . S
O1334 Co1326 2.055 . S
O1334 C1338 1.253 . S
H1335 C1331 0.931 . S
H1336 C1332 0.930 . S
O1337 Co1326 2.039 . S
O1337 C1327 1.265 . S
C1338 O1334 1.253 . S
C1338 O1339 1.227 . S
O1339 C1338 1.227 . S
N1340 Co1326 2.140 . S
N1340 C1343 1.346 . S
N1340 C1344 1.345 . S
C1341 C1342 1.387 . S
C1341 C1345 1.391 . S
C1342 C1341 1.387 . S
C1342 C1343 1.369 . S
C1342 H1351 0.929 . S
C1343 N1340 1.346 . S
C1343 C1342 1.369 . S
C1343 H1346 0.928 . S
C1344 N1340 1.345 . S
C1344 C1345 1.371 . S
C1344 H1347 0.931 . S
C1345 C1341 1.391 . S
C1345 C1344 1.371 . S
C1345 H1352 0.930 . S
H1346 C1343 0.928 . S
H1347 C1344 0.931 . S
H1348 C1324 0.930 . S
H1349 C1321 0.930 . S
H1350 C1330 0.930 . S
H1351 C1342 0.929 . S
H1352 C1345 0.930 . S
C1353 C1354 1.351 . S
C1353 N1356 1.368 . S
C1353 H1358 0.931 . S
C1354 C1353 1.351 . S
C1354 N1355 1.373 . S
C1354 H1382 0.930 . S
N1355 C1354 1.373 . S
N1355 C1357 1.340 . S
N1356 C1353 1.368 . S
N1356 C1357 1.321 . S
N1356 Co1359 2.135 . S
C1357 N1355 1.340 . S
C1357 N1356 1.321 . S
C1357 H1381 0.930 . S
H1358 C1353 0.931 . S
Co1359 N1356 2.135 . S
Co1359 N1362 2.121 . S
Co1359 O1367 2.055 . S
Co1359 O1370 2.039 . S
Co1359 N1373 2.140 . S
C1360 O1361 1.227 . S
C1360 O1370 1.265 . S
O1361 C1360 1.227 . S
N1362 Co1359 2.121 . S
N1362 C1364 1.375 . S
N1362 C1365 1.313 . S
C1363 C1364 1.338 . S
C1363 N1366 1.377 . S
C1363 H1383 0.930 . S
C1364 N1362 1.375 . S
C1364 C1363 1.338 . S
C1364 H1368 0.931 . S
C1365 N1362 1.313 . S
C1365 N1366 1.344 . S
C1365 H1369 0.930 . S
N1366 C1363 1.377 . S
N1366 C1365 1.344 . S
O1367 Co1359 2.055 . S
O1367 C1371 1.253 . S
H1368 C1364 0.931 . S
H1369 C1365 0.930 . S
O1370 Co1359 2.039 . S
O1370 C1360 1.265 . S
C1371 O1367 1.253 . S
C1371 O1372 1.227 . S
O1372 C1371 1.227 . S
N1373 Co1359 2.140 . S
N1373 C1376 1.346 . S
N1373 C1377 1.345 . S
C1374 C1375 1.387 . S
C1374 C1378 1.391 . S
C1375 C1374 1.387 . S
C1375 C1376 1.369 . S
C1375 H1384 0.929 . S
C1376 N1373 1.346 . S
C1376 C1375 1.369 . S
C1376 H1379 0.928 . S
C1377 N1373 1.345 . S
C1377 C1378 1.371 . S
C1377 H1380 0.931 . S
C1378 C1374 1.391 . S
C1378 C1377 1.371 . S
C1378 H1385 0.930 . S
H1379 C1376 0.928 . S
H1380 C1377 0.931 . S
H1381 C1357 0.930 . S
H1382 C1354 0.930 . S
H1383 C1363 0.930 . S
H1384 C1375 0.929 . S
H1385 C1378 0.930 . S
C1386 C1387 1.351 . S
C1386 N1389 1.368 1_545 S
C1386 H1391 0.931 . S
C1387 C1386 1.351 . S
C1387 N1388 1.373 1_545 S
C1387 H1415 0.930 . S
N1388 C1387 1.373 1_565 S
N1388 C1390 1.340 . S
N1389 C1386 1.368 1_565 S
N1389 C1390 1.321 . S
N1389 Co1392 2.135 . S
C1390 N1388 1.340 . S
C1390 N1389 1.321 . S
C1390 H1414 0.930 . S
H1391 C1386 0.931 . S
Co1392 N1389 2.135 . S
Co1392 N1395 2.121 . S
Co1392 O1400 2.055 . S
Co1392 O1403 2.039 . S
Co1392 N1406 2.140 . S
C1393 O1394 1.227 . S
C1393 O1403 1.265 . S
O1394 C1393 1.227 . S
N1395 Co1392 2.121 . S
N1395 C1397 1.375 . S
N1395 C1398 1.313 . S
C1396 C1397 1.338 . S
C1396 N1399 1.377 . S
C1396 H1416 0.930 . S
C1397 N1395 1.375 . S
C1397 C1396 1.338 . S
C1397 H1401 0.931 . S
C1398 N1395 1.313 . S
C1398 N1399 1.344 . S
C1398 H1402 0.930 . S
N1399 C1396 1.377 . S
N1399 C1398 1.344 . S
O1400 Co1392 2.055 . S
O1400 C1404 1.253 . S
H1401 C1397 0.931 . S
H1402 C1398 0.930 . S
O1403 Co1392 2.039 . S
O1403 C1393 1.265 . S
C1404 O1400 1.253 . S
C1404 O1405 1.227 . S
O1405 C1404 1.227 . S
N1406 Co1392 2.140 . S
N1406 C1409 1.346 . S
N1406 C1410 1.345 . S
C1407 C1408 1.387 . S
C1407 C1411 1.391 . S
C1408 C1407 1.387 . S
C1408 C1409 1.369 . S
C1408 H1417 0.929 . S
C1409 N1406 1.346 . S
C1409 C1408 1.369 . S
C1409 H1412 0.928 . S
C1410 N1406 1.345 . S
C1410 C1411 1.371 . S
C1410 H1413 0.931 . S
C1411 C1407 1.391 . S
C1411 C1410 1.371 . S
C1411 H1418 0.930 . S
H1412 C1409 0.928 . S
H1413 C1410 0.931 . S
H1414 C1390 0.930 . S
H1415 C1387 0.930 . S
H1416 C1396 0.930 . S
H1417 C1408 0.929 . S
H1418 C1411 0.930 . S
C1419 C1420 1.351 . S
C1419 N1422 1.368 . S
C1419 H1424 0.931 . S
C1420 C1419 1.351 . S
C1420 N1421 1.373 . S
C1420 H1448 0.930 . S
N1421 C1420 1.373 . S
N1421 C1423 1.340 . S
N1422 C1419 1.368 . S
N1422 C1423 1.321 . S
N1422 Co1425 2.135 . S
C1423 N1421 1.340 . S
C1423 N1422 1.321 . S
C1423 H1447 0.930 . S
H1424 C1419 0.931 . S
Co1425 N1422 2.135 . S
Co1425 N1428 2.121 . S
Co1425 O1433 2.055 . S
Co1425 O1436 2.039 . S
Co1425 N1439 2.140 . S
C1426 O1427 1.227 . S
C1426 O1436 1.265 . S
O1427 C1426 1.227 . S
N1428 Co1425 2.121 . S
N1428 C1430 1.375 . S
N1428 C1431 1.313 . S
C1429 C1430 1.338 . S
C1429 N1432 1.377 . S
C1429 H1449 0.930 . S
C1430 N1428 1.375 . S
C1430 C1429 1.338 . S
C1430 H1434 0.931 . S
C1431 N1428 1.313 . S
C1431 N1432 1.344 . S
C1431 H1435 0.930 . S
N1432 C1429 1.377 . S
N1432 C1431 1.344 . S
O1433 Co1425 2.055 . S
O1433 C1437 1.253 . S
H1434 C1430 0.931 . S
H1435 C1431 0.930 . S
O1436 Co1425 2.039 . S
O1436 C1426 1.265 . S
C1437 O1433 1.253 . S
C1437 O1438 1.227 . S
O1438 C1437 1.227 . S
N1439 Co1425 2.140 . S
N1439 C1442 1.346 . S
N1439 C1443 1.345 . S
C1440 C1441 1.387 . S
C1440 C1444 1.391 . S
C1441 C1440 1.387 . S
C1441 C1442 1.369 . S
C1441 H1450 0.929 . S
C1442 N1439 1.346 . S
C1442 C1441 1.369 . S
C1442 H1445 0.928 . S
C1443 N1439 1.345 . S
C1443 C1444 1.371 . S
C1443 H1446 0.931 . S
C1444 C1440 1.391 . S
C1444 C1443 1.371 . S
C1444 H1451 0.930 . S
H1445 C1442 0.928 . S
H1446 C1443 0.931 . S
H1447 C1423 0.930 . S
H1448 C1420 0.930 . S
H1449 C1429 0.930 . S
H1450 C1441 0.929 . S
H1451 C1444 0.930 . S
C1452 C1453 1.351 . S
C1452 N1455 1.368 . S
C1452 H1457 0.931 . S
C1453 C1452 1.351 . S
C1453 N1454 1.373 . S
C1453 H1481 0.930 . S
N1454 C1453 1.373 . S
N1454 C1456 1.340 . S
N1455 C1452 1.368 . S
N1455 C1456 1.321 . S
N1455 Co1458 2.135 . S
C1456 N1454 1.340 . S
C1456 N1455 1.321 . S
C1456 H1480 0.930 . S
H1457 C1452 0.931 . S
Co1458 N1455 2.135 . S
Co1458 N1461 2.121 . S
Co1458 O1466 2.055 . S
Co1458 O1469 2.039 . S
Co1458 N1472 2.140 . S
C1459 O1460 1.227 . S
C1459 O1469 1.265 . S
O1460 C1459 1.227 . S
N1461 Co1458 2.121 . S
N1461 C1463 1.375 . S
N1461 C1464 1.313 . S
C1462 C1463 1.338 . S
C1462 N1465 1.377 . S
C1462 H1482 0.930 . S
C1463 N1461 1.375 . S
C1463 C1462 1.338 . S
C1463 H1467 0.931 . S
C1464 N1461 1.313 . S
C1464 N1465 1.344 . S
C1464 H1468 0.930 . S
N1465 C1462 1.377 . S
N1465 C1464 1.344 . S
O1466 Co1458 2.055 . S
O1466 C1470 1.253 . S
H1467 C1463 0.931 . S
H1468 C1464 0.930 . S
O1469 Co1458 2.039 . S
O1469 C1459 1.265 . S
C1470 O1466 1.253 . S
C1470 O1471 1.227 . S
O1471 C1470 1.227 . S
N1472 Co1458 2.140 . S
N1472 C1475 1.346 . S
N1472 C1476 1.345 . S
C1473 C1474 1.387 . S
C1473 C1477 1.391 . S
C1474 C1473 1.387 . S
C1474 C1475 1.369 . S
C1474 H1483 0.929 . S
C1475 N1472 1.346 . S
C1475 C1474 1.369 . S
C1475 H1478 0.928 . S
C1476 N1472 1.345 . S
C1476 C1477 1.371 . S
C1476 H1479 0.931 . S
C1477 C1473 1.391 . S
C1477 C1476 1.371 . S
C1477 H1484 0.930 . S
H1478 C1475 0.928 . S
H1479 C1476 0.931 . S
H1480 C1456 0.930 . S
H1481 C1453 0.930 . S
H1482 C1462 0.930 . S
H1483 C1474 0.929 . S
H1484 C1477 0.930 . S
C1485 C1486 1.351 . S
C1485 N1488 1.368 . S
C1485 H1490 0.931 . S
C1486 C1485 1.351 . S
C1486 N1487 1.373 . S
C1486 H1514 0.930 . S
N1487 C1486 1.373 . S
N1487 C1489 1.340 . S
N1488 C1485 1.368 . S
N1488 C1489 1.321 . S
N1488 Co1491 2.135 . S
C1489 N1487 1.340 . S
C1489 N1488 1.321 . S
C1489 H1513 0.930 . S
H1490 C1485 0.931 . S
Co1491 N1488 2.135 . S
Co1491 N1494 2.121 . S
Co1491 O1499 2.055 . S
Co1491 O1502 2.039 . S
Co1491 N1505 2.140 . S
C1492 O1493 1.227 . S
C1492 O1502 1.265 . S
O1493 C1492 1.227 . S
N1494 Co1491 2.121 . S
N1494 C1496 1.375 . S
N1494 C1497 1.313 . S
C1495 C1496 1.338 . S
C1495 N1498 1.377 . S
C1495 H1515 0.930 . S
C1496 N1494 1.375 . S
C1496 C1495 1.338 . S
C1496 H1500 0.931 . S
C1497 N1494 1.313 . S
C1497 N1498 1.344 . S
C1497 H1501 0.930 . S
N1498 C1495 1.377 . S
N1498 C1497 1.344 . S
O1499 Co1491 2.055 . S
O1499 C1503 1.253 . S
H1500 C1496 0.931 . S
H1501 C1497 0.930 . S
O1502 Co1491 2.039 . S
O1502 C1492 1.265 . S
C1503 O1499 1.253 . S
C1503 O1504 1.227 . S
O1504 C1503 1.227 . S
N1505 Co1491 2.140 . S
N1505 C1508 1.346 . S
N1505 C1509 1.345 . S
C1506 C1507 1.387 . S
C1506 C1510 1.391 . S
C1507 C1506 1.387 . S
C1507 C1508 1.369 . S
C1507 H1516 0.929 . S
C1508 N1505 1.346 . S
C1508 C1507 1.369 . S
C1508 H1511 0.928 . S
C1509 N1505 1.345 . S
C1509 C1510 1.371 . S
C1509 H1512 0.931 . S
C1510 C1506 1.391 . S
C1510 C1509 1.371 . S
C1510 H1517 0.930 . S
H1511 C1508 0.928 . S
H1512 C1509 0.931 . S
H1513 C1489 0.930 . S
H1514 C1486 0.930 . S
H1515 C1495 0.930 . S
H1516 C1507 0.929 . S
H1517 C1510 0.930 . S
C1518 C1519 1.351 . S
C1518 N1521 1.368 1_565 S
C1518 H1523 0.931 . S
C1519 C1518 1.351 . S
C1519 N1520 1.373 1_565 S
C1519 H1547 0.930 . S
N1520 C1519 1.373 1_545 S
N1520 C1522 1.340 . S
N1521 C1518 1.368 1_545 S
N1521 C1522 1.321 . S
N1521 Co1524 2.135 . S
C1522 N1520 1.340 . S
C1522 N1521 1.321 . S
C1522 H1546 0.930 . S
H1523 C1518 0.931 . S
Co1524 N1521 2.135 . S
Co1524 N1527 2.121 . S
Co1524 O1532 2.055 . S
Co1524 O1535 2.039 . S
Co1524 N1538 2.140 . S
C1525 O1526 1.227 . S
C1525 O1535 1.265 . S
O1526 C1525 1.227 . S
N1527 Co1524 2.121 . S
N1527 C1529 1.375 . S
N1527 C1530 1.313 . S
C1528 C1529 1.338 . S
C1528 N1531 1.377 . S
C1528 H1548 0.930 . S
C1529 N1527 1.375 . S
C1529 C1528 1.338 . S
C1529 H1533 0.931 . S
C1530 N1527 1.313 . S
C1530 N1531 1.344 . S
C1530 H1534 0.930 . S
N1531 C1528 1.377 . S
N1531 C1530 1.344 . S
O1532 Co1524 2.055 . S
O1532 C1536 1.253 . S
H1533 C1529 0.931 . S
H1534 C1530 0.930 . S
O1535 Co1524 2.039 . S
O1535 C1525 1.265 . S
C1536 O1532 1.253 . S
C1536 O1537 1.227 . S
O1537 C1536 1.227 . S
N1538 Co1524 2.140 . S
N1538 C1541 1.346 . S
N1538 C1542 1.345 . S
C1539 C1540 1.387 . S
C1539 C1543 1.391 . S
C1540 C1539 1.387 . S
C1540 C1541 1.369 . S
C1540 H1549 0.929 . S
C1541 N1538 1.346 . S
C1541 C1540 1.369 . S
C1541 H1544 0.928 . S
C1542 N1538 1.345 . S
C1542 C1543 1.371 . S
C1542 H1545 0.931 . S
C1543 C1539 1.391 . S
C1543 C1542 1.371 . S
C1543 H1550 0.930 . S
H1544 C1541 0.928 . S
H1545 C1542 0.931 . S
H1546 C1522 0.930 . S
H1547 C1519 0.930 . S
H1548 C1528 0.930 . S
H1549 C1540 0.929 . S
H1550 C1543 0.930 . S
C1551 C1552 1.351 . S
C1551 N1554 1.368 1_545 S
C1551 H1556 0.931 . S
C1552 C1551 1.351 . S
C1552 N1553 1.373 1_545 S
C1552 H1580 0.930 . S
N1553 C1552 1.373 1_565 S
N1553 C1555 1.340 . S
N1554 C1551 1.368 1_565 S
N1554 C1555 1.321 . S
N1554 Co1557 2.135 . S
C1555 N1553 1.340 . S
C1555 N1554 1.321 . S
C1555 H1579 0.930 . S
H1556 C1551 0.931 . S
Co1557 N1554 2.135 . S
Co1557 N1560 2.121 1_655 S
Co1557 O1565 2.055 1_655 S
Co1557 O1568 2.039 1_655 S
Co1557 N1571 2.140 . S
C1558 O1559 1.227 1_455 S
C1558 O1568 1.265 . S
O1559 C1558 1.227 1_655 S
N1560 Co1557 2.121 1_455 S
N1560 C1562 1.375 . S
N1560 C1563 1.313 . S
C1561 C1562 1.338 . S
C1561 N1564 1.377 . S
C1561 H1581 0.930 . S
C1562 N1560 1.375 . S
C1562 C1561 1.338 . S
C1562 H1566 0.931 . S
C1563 N1560 1.313 . S
C1563 N1564 1.344 . S
C1563 H1567 0.930 . S
N1564 C1561 1.377 . S
N1564 C1563 1.344 . S
O1565 Co1557 2.055 1_455 S
O1565 C1569 1.253 . S
H1566 C1562 0.931 . S
H1567 C1563 0.930 . S
O1568 Co1557 2.039 1_455 S
O1568 C1558 1.265 . S
C1569 O1565 1.253 . S
C1569 O1570 1.227 1_455 S
O1570 C1569 1.227 1_655 S
N1571 Co1557 2.140 . S
N1571 C1574 1.346 . S
N1571 C1575 1.345 . S
C1572 C1573 1.387 . S
C1572 C1576 1.391 . S
C1573 C1572 1.387 . S
C1573 C1574 1.369 . S
C1573 H1582 0.929 . S
C1574 N1571 1.346 . S
C1574 C1573 1.369 . S
C1574 H1577 0.928 . S
C1575 N1571 1.345 . S
C1575 C1576 1.371 . S
C1575 H1578 0.931 . S
C1576 C1572 1.391 . S
C1576 C1575 1.371 . S
C1576 H1583 0.930 . S
H1577 C1574 0.928 . S
H1578 C1575 0.931 . S
H1579 C1555 0.930 . S
H1580 C1552 0.930 . S
H1581 C1561 0.930 . S
H1582 C1573 0.929 . S
H1583 C1576 0.930 . S
C7 C667 2.593 . S
C1360 C40 2.593 . S
C1393 C73 2.593 . S
C106 C1426 2.593 . S
C139 C1558 2.593 . S
C700 C172 2.593 . S
C205 C1525 2.593 . S
C238 C535 2.593 . S
C271 C502 2.593 . S
C304 C403 2.593 . S
C436 C337 2.593 . S
C469 C370 2.593 . S
C832 C568 2.593 . S
C601 C865 2.593 . S
C898 C634 2.593 . S
C733 C997 2.593 . S
C766 C931 2.593 . S
C1459 C799 2.593 . S
C1492 C964 2.593 . S
C1030 C1327 2.593 . S
C1294 C1063 2.593 . S
C1195 C1096 2.593 . S
C1129 C1228 2.593 . S
C1162 C1261 2.593 . S
N541 C18 2.257 . S
N1564 C51 2.257 . S
N706 C84 2.257 . S
C117 N1531 2.257 . S
N1366 C150 2.257 . S
C183 N1399 2.257 . S
N1432 C216 2.257 . S
C249 N673 2.257 . S
C282 N13 2.257 . S
N46 C315 2.257 . S
N79 C348 2.257 . S
N112 C381 2.257 . S
C414 N145 2.257 . S
C447 N178 2.257 . S
C480 N211 2.257 . S
C513 N244 2.257 . S
N277 C546 2.257 . S
C579 N1201 2.257 . S
C612 N1234 2.257 . S
N1267 C645 2.257 . S
C678 N508 2.257 . S
C711 N343 2.257 . S
N1168 C744 2.257 . S
C777 N1102 2.257 . S
C810 N1333 2.257 . S
C843 N772 2.257 . S
C876 N1498 2.257 . S
C909 N739 2.257 . S
N574 C942 2.257 . S
C975 N607 2.257 . S
C1008 N640 2.257 . S
C1041 N1465 2.257 . S
N805 C1074 2.257 . S
C1107 N838 2.257 . S
N871 C1140 2.257 . S
N904 C1173 2.257 . S
N937 C1206 2.257 . S
N970 C1239 2.257 . S
C1272 N1003 2.257 . S
C1305 N1036 2.257 . S
N1069 C1338 2.257 . S
C1371 N409 2.257 . S
C1404 N442 2.257 . S
C1437 N475 2.257 . S
N1300 C1470 2.257 . S
N1135 C1503 2.257 . S
N376 C1536 2.257 . S
C1569 N310 2.257 . S
C318 C21 1.693 . S
C351 C54 1.693 . S
C87 C384 1.693 . S
C120 C285 1.693 . S
C153 C516 1.693 . S
C417 C186 1.693 . S
C450 C219 1.693 . S
C252 C483 1.693 . S
C549 C615 1.693 . S
C1539 C582 1.693 . S
C1572 C648 1.693 . S
C1506 C681 1.693 . S
C714 C1473 1.693 . S
C1374 C747 1.693 . S
C1440 C780 1.693 . S
C1110 C813 1.693 . S
C1143 C846 1.693 . S
C879 C1176 1.693 . S
C1077 C912 1.693 . S
C1308 C945 1.693 . S
C978 C1209 1.693 . S
C1242 C1011 1.693 . S
C1044 C1275 1.693 . S
C1341 C1407 1.693 . S
N860 N2 1.466 1_655 S
N35 N893 1.466 1_455 S
N794 N68 1.466 . S
N827 N101 1.466 . S
N992 N134 1.466 1_655 S
N1025 N167 1.466 . S
N926 N200 1.466 . S
N233 N959 1.466 1_455 S
N266 N398 1.466 1_545 S
N299 N431 1.466 . S
N332 N464 1.466 1_565 S
N365 N497 1.466 1_556 S
N1421 N530 1.466 1_556 S
N1487 N563 1.466 1_554 S
N596 N728 1.466 . S
N1322 N629 1.466 . S
N662 N1553 1.466 1_545 S
N695 N1355 1.466 . S
N761 N1454 1.466 . S
N1058 N1190 1.466 . S
N1223 N1091 1.466 1_554 S
N1256 N1124 1.466 . S
N1157 N1289 1.466 . S
N1388 N1520 1.466 1_565 S
