# Generated by pormake.
# Topology afi, (4)-cn, num edge types: 1
# Building blocks:
#     Node 0, Type 0, BuildingBlock: QUQFOY_clean_sbu_1, # of connection points: 4
#     Node 1, Type 0, BuildingBlock: QUQFOY_clean_sbu_1, # of connection points: 4
#     Node 2, Type 0, BuildingBlock: QUQFOY_clean_sbu_1, # of connection points: 4
#     Node 3, Type 0, BuildingBlock: QUQFOY_clean_sbu_1, # of connection points: 4
#     Node 4, Type 0, BuildingBlock: QUQFOY_clean_sbu_1, # of connection points: 4
#     Node 5, Type 0, BuildingBlock: QUQFOY_clean_sbu_1, # of connection points: 4
#     Node 6, Type 0, BuildingBlock: QUQFOY_clean_sbu_1, # of connection points: 4
#     Node 7, Type 0, BuildingBlock: QUQFOY_clean_sbu_1, # of connection points: 4
#     Node 8, Type 0, BuildingBlock: QUQFOY_clean_sbu_1, # of connection points: 4
#     Node 9, Type 0, BuildingBlock: QUQFOY_clean_sbu_1, # of connection points: 4
#     Node 10, Type 0, BuildingBlock: QUQFOY_clean_sbu_1, # of connection points: 4
#     Node 11, Type 0, BuildingBlock: QUQFOY_clean_sbu_1, # of connection points: 4
#     Node 12, Type 0, BuildingBlock: QUQFOY_clean_sbu_1, # of connection points: 4
#     Node 13, Type 0, BuildingBlock: QUQFOY_clean_sbu_1, # of connection points: 4
#     Node 14, Type 0, BuildingBlock: QUQFOY_clean_sbu_1, # of connection points: 4
#     Node 15, Type 0, BuildingBlock: QUQFOY_clean_sbu_1, # of connection points: 4
#     Node 16, Type 0, BuildingBlock: QUQFOY_clean_sbu_1, # of connection points: 4
#     Node 17, Type 0, BuildingBlock: QUQFOY_clean_sbu_1, # of connection points: 4
#     Node 18, Type 0, BuildingBlock: QUQFOY_clean_sbu_1, # of connection points: 4
#     Node 19, Type 0, BuildingBlock: QUQFOY_clean_sbu_1, # of connection points: 4
#     Node 20, Type 0, BuildingBlock: QUQFOY_clean_sbu_1, # of connection points: 4
#     Node 21, Type 0, BuildingBlock: QUQFOY_clean_sbu_1, # of connection points: 4
#     Node 22, Type 0, BuildingBlock: QUQFOY_clean_sbu_1, # of connection points: 4
#     Node 23, Type 0, BuildingBlock: QUQFOY_clean_sbu_1, # of connection points: 4
#     Edge 24, Type (0, 0), BuildingBlock: TEMPAE_clean_linker_10, # of connection points: 2
#     Edge 25, Type (0, 0), BuildingBlock: TEMPAE_clean_linker_10, # of connection points: 2
#     Edge 26, Type (0, 0), BuildingBlock: TEMPAE_clean_linker_10, # of connection points: 2
#     Edge 27, Type (0, 0), BuildingBlock: TEMPAE_clean_linker_10, # of connection points: 2
#     Edge 28, Type (0, 0), BuildingBlock: TEMPAE_clean_linker_10, # of connection points: 2
#     Edge 29, Type (0, 0), BuildingBlock: TEMPAE_clean_linker_10, # of connection points: 2
#     Edge 30, Type (0, 0), BuildingBlock: TEMPAE_clean_linker_10, # of connection points: 2
#     Edge 31, Type (0, 0), BuildingBlock: TEMPAE_clean_linker_10, # of connection points: 2
#     Edge 32, Type (0, 0), BuildingBlock: TEMPAE_clean_linker_10, # of connection points: 2
#     Edge 33, Type (0, 0), BuildingBlock: TEMPAE_clean_linker_10, # of connection points: 2
#     Edge 34, Type (0, 0), BuildingBlock: TEMPAE_clean_linker_10, # of connection points: 2
#     Edge 35, Type (0, 0), BuildingBlock: TEMPAE_clean_linker_10, # of connection points: 2
#     Edge 36, Type (0, 0), BuildingBlock: TEMPAE_clean_linker_10, # of connection points: 2
#     Edge 37, Type (0, 0), BuildingBlock: TEMPAE_clean_linker_10, # of connection points: 2
#     Edge 38, Type (0, 0), BuildingBlock: TEMPAE_clean_linker_10, # of connection points: 2
#     Edge 39, Type (0, 0), BuildingBlock: TEMPAE_clean_linker_10, # of connection points: 2
#     Edge 40, Type (0, 0), BuildingBlock: TEMPAE_clean_linker_10, # of connection points: 2
#     Edge 41, Type (0, 0), BuildingBlock: TEMPAE_clean_linker_10, # of connection points: 2
#     Edge 42, Type (0, 0), BuildingBlock: TEMPAE_clean_linker_10, # of connection points: 2
#     Edge 43, Type (0, 0), BuildingBlock: TEMPAE_clean_linker_10, # of connection points: 2
#     Edge 44, Type (0, 0), BuildingBlock: TEMPAE_clean_linker_10, # of connection points: 2
#     Edge 45, Type (0, 0), BuildingBlock: TEMPAE_clean_linker_10, # of connection points: 2
#     Edge 46, Type (0, 0), BuildingBlock: TEMPAE_clean_linker_10, # of connection points: 2
#     Edge 47, Type (0, 0), BuildingBlock: TEMPAE_clean_linker_10, # of connection points: 2
#     Edge 48, Type (0, 0), BuildingBlock: TEMPAE_clean_linker_10, # of connection points: 2
#     Edge 49, Type (0, 0), BuildingBlock: TEMPAE_clean_linker_10, # of connection points: 2
#     Edge 50, Type (0, 0), BuildingBlock: TEMPAE_clean_linker_10, # of connection points: 2
#     Edge 51, Type (0, 0), BuildingBlock: TEMPAE_clean_linker_10, # of connection points: 2
#     Edge 52, Type (0, 0), BuildingBlock: TEMPAE_clean_linker_10, # of connection points: 2
#     Edge 53, Type (0, 0), BuildingBlock: TEMPAE_clean_linker_10, # of connection points: 2
#     Edge 54, Type (0, 0), BuildingBlock: TEMPAE_clean_linker_10, # of connection points: 2
#     Edge 55, Type (0, 0), BuildingBlock: TEMPAE_clean_linker_10, # of connection points: 2
#     Edge 56, Type (0, 0), BuildingBlock: TEMPAE_clean_linker_10, # of connection points: 2
#     Edge 57, Type (0, 0), BuildingBlock: TEMPAE_clean_linker_10, # of connection points: 2
#     Edge 58, Type (0, 0), BuildingBlock: TEMPAE_clean_linker_10, # of connection points: 2
#     Edge 59, Type (0, 0), BuildingBlock: TEMPAE_clean_linker_10, # of connection points: 2
#     Edge 60, Type (0, 0), BuildingBlock: TEMPAE_clean_linker_10, # of connection points: 2
#     Edge 61, Type (0, 0), BuildingBlock: TEMPAE_clean_linker_10, # of connection points: 2
#     Edge 62, Type (0, 0), BuildingBlock: TEMPAE_clean_linker_10, # of connection points: 2
#     Edge 63, Type (0, 0), BuildingBlock: TEMPAE_clean_linker_10, # of connection points: 2
#     Edge 64, Type (0, 0), BuildingBlock: TEMPAE_clean_linker_10, # of connection points: 2
#     Edge 65, Type (0, 0), BuildingBlock: TEMPAE_clean_linker_10, # of connection points: 2
#     Edge 66, Type (0, 0), BuildingBlock: TEMPAE_clean_linker_10, # of connection points: 2
#     Edge 67, Type (0, 0), BuildingBlock: TEMPAE_clean_linker_10, # of connection points: 2
#     Edge 68, Type (0, 0), BuildingBlock: TEMPAE_clean_linker_10, # of connection points: 2
#     Edge 69, Type (0, 0), BuildingBlock: TEMPAE_clean_linker_10, # of connection points: 2
#     Edge 70, Type (0, 0), BuildingBlock: TEMPAE_clean_linker_10, # of connection points: 2
#     Edge 71, Type (0, 0), BuildingBlock: TEMPAE_clean_linker_10, # of connection points: 2
# Relax obj value: 0.129
# Max RMSD: 0.169
# Mean RMSD: 0.169
data_MOF--net-afi--node1-QUQFOY_clean_sbu_1--edge1-TEMPAE_clean_linker_10
_symmetry_space_group_name_H-M    P1
_symmetry_Int_Tables_number       1
_symmetry_cell_setting            triclinic
loop_
_symmetry_equiv_pos_as_xyz
'x, y, z'
_cell_length_a     69.185138
_cell_length_b     69.174563
_cell_length_c     45.469221
_cell_angle_alpha  89.994757
_cell_angle_beta   90.00716
_cell_angle_gamma 119.98399
loop_
_atom_site_label
_atom_site_type_symbol
_atom_site_fract_x
_atom_site_fract_y
_atom_site_fract_z
_atom_type_partial_charge
O0 O 0.48361 0.12859 0.2333 0.0
Cd1 Cd 0.45202 0.12199 0.22168 0.0
Cd2 Cd 0.46118 0.10613 0.17074 0.0
O3 O 0.49172 0.11852 0.19112 0.0
O4 O 0.44387 0.13789 0.25137 0.0
O5 O 0.44865 0.14688 0.20414 0.0
C6 C 0.44424 0.15062 0.23044 0.0
C7 C 0.46102 0.11283 0.12024 0.0
C8 C 0.49721 0.12617 0.21706 0.0
C9 C 0.42378 0.07284 0.20887 0.0
O10 O 0.43616 0.07601 0.18663 0.0
O11 O 0.42654 0.08921 0.22464 0.0
O12 O 0.46753 0.09963 0.13027 0.0
O13 O 0.45446 0.12243 0.13891 0.0
O14 O 0.35823 0.48999 0.21359 0.0
Cd15 Cd 0.33187 0.45763 0.21133 0.0
Cd16 Cd 0.35571 0.45847 0.16104 0.0
O17 O 0.3785 0.48987 0.1762 0.0
O18 O 0.31242 0.45796 0.24333 0.0
O19 O 0.30137 0.45051 0.19704 0.0
C20 C 0.29715 0.45318 0.22392 0.0
C21 C 0.34719 0.45486 0.11079 0.0
C22 C 0.37583 0.49972 0.19809 0.0
C23 C 0.34781 0.42437 0.20809 0.0
O24 O 0.35537 0.43209 0.18266 0.0
O25 O 0.33784 0.43224 0.22315 0.0
O26 O 0.36549 0.45654 0.12042 0.0
O27 O 0.33342 0.45509 0.12978 0.0
O28 O 0.87353 0.35253 0.23337 0.0
Cd29 Cd 0.87895 0.32738 0.21873 0.0
Cd30 Cd 0.89421 0.35389 0.16956 0.0
O31 O 0.88184 0.37141 0.19175 0.0
O32 O 0.86289 0.30253 0.24728 0.0
O33 O 0.853 0.30035 0.20053 0.0
C34 C 0.84939 0.29132 0.22631 0.0
C35 C 0.887 0.3473 0.11913 0.0
C36 C 0.8752 0.36877 0.21829 0.0
C37 C 0.92772 0.3481 0.20483 0.0
O38 O 0.92447 0.35868 0.18438 0.0
O39 O 0.9114 0.33352 0.21979 0.0
O40 O 0.90009 0.36703 0.12925 0.0
O41 O 0.87766 0.33106 0.13771 0.0
O42 O 0.5175 0.86873 0.2285 0.0
Cd43 Cd 0.54906 0.87559 0.21626 0.0
Cd44 Cd 0.53943 0.89296 0.16658 0.0
O45 O 0.50904 0.88004 0.18759 0.0
O46 O 0.55726 0.85977 0.246 0.0
O47 O 0.55238 0.85062 0.19886 0.0
C48 C 0.55681 0.84694 0.22518 0.0
C49 C 0.5393 0.88699 0.11582 0.0
C50 C 0.50375 0.87156 0.21316 0.0
C51 C 0.57746 0.92508 0.20492 0.0
O52 O 0.56479 0.92261 0.18325 0.0
O53 O 0.57471 0.90828 0.21967 0.0
O54 O 0.53293 0.90013 0.12655 0.0
O55 O 0.54587 0.87707 0.13393 0.0
O56 O 0.64007 0.50688 0.21429 0.0
Cd57 Cd 0.66643 0.53925 0.21237 0.0
Cd58 Cd 0.64268 0.53862 0.1619 0.0
O59 O 0.61989 0.50715 0.17686 0.0
O60 O 0.68571 0.53879 0.24452 0.0
O61 O 0.69704 0.54652 0.19836 0.0
C62 C 0.70112 0.54373 0.22526 0.0
C63 C 0.65108 0.54253 0.11161 0.0
C64 C 0.6225 0.49722 0.1987 0.0
C65 C 0.65046 0.57249 0.20926 0.0
O66 O 0.643 0.5649 0.18375 0.0
O67 O 0.66037 0.56457 0.22431 0.0
O68 O 0.6328 0.54076 0.12143 0.0
O69 O 0.66489 0.54218 0.13042 0.0
O70 O 0.12599 0.64626 0.2293 0.0
Cd71 Cd 0.11944 0.67151 0.21922 0.0
Cd72 Cd 0.10211 0.64531 0.1685 0.0
O73 O 0.11405 0.6266 0.18846 0.0
O74 O 0.13638 0.69319 0.25105 0.0
O75 O 0.14377 0.70116 0.20384 0.0
C76 C 0.14861 0.70706 0.231 0.0
C77 C 0.1081 0.65147 0.1178 0.0
C78 C 0.12269 0.62957 0.21389 0.0
C79 C 0.07019 0.6511 0.20811 0.0
O80 O 0.07284 0.64168 0.18567 0.0
O81 O 0.08683 0.6645 0.22368 0.0
O82 O 0.09441 0.63205 0.12829 0.0
O83 O 0.11848 0.66774 0.13611 0.0
O84 O 0.86626 0.5088 0.29703 0.0
Cd85 Cd 0.87206 0.54109 0.2996 0.0
Cd86 Cd 0.89423 0.5397 0.35067 0.0
O87 O 0.88575 0.5084 0.33524 0.0
O88 O 0.85279 0.541 0.26703 0.0
O89 O 0.84826 0.54784 0.31325 0.0
C90 C 0.84184 0.5454 0.28616 0.0
C91 C 0.88925 0.54305 0.40097 0.0
C92 C 0.87374 0.49885 0.31284 0.0
C93 C 0.92117 0.57424 0.30438 0.0
O94 O 0.92058 0.56615 0.32968 0.0
O95 O 0.90359 0.5667 0.28884 0.0
O96 O 0.9058 0.54129 0.3913 0.0
O97 O 0.87531 0.54298 0.38202 0.0
O98 O 0.35472 0.86357 0.29013 0.0
Cd99 Cd 0.33001 0.87178 0.29521 0.0
Cd100 Cd 0.35475 0.89208 0.34629 0.0
O101 O 0.37445 0.88007 0.32978 0.0
O102 O 0.30871 0.85338 0.26373 0.0
O103 O 0.29942 0.84981 0.3108 0.0
C104 C 0.29394 0.84341 0.2839 0.0
C105 C 0.34774 0.88783 0.39697 0.0
C106 C 0.37159 0.86893 0.30639 0.0
C107 C 0.35018 0.92168 0.30128 0.0
O108 O 0.35806 0.92027 0.32597 0.0
O109 O 0.33827 0.90429 0.28599 0.0
O110 O 0.36719 0.90161 0.38666 0.0
O111 O 0.33187 0.87648 0.37848 0.0
O112 O 0.47678 0.35015 0.27728 0.0
Cd113 Cd 0.44611 0.32515 0.29179 0.0
Cd114 Cd 0.45729 0.35169 0.34103 0.0
O115 O 0.48719 0.3691 0.31885 0.0
O116 O 0.43737 0.30011 0.26355 0.0
O117 O 0.44471 0.29811 0.3105 0.0
C118 C 0.43943 0.28894 0.28479 0.0
C119 C 0.45817 0.34572 0.39164 0.0
C120 C 0.49128 0.36641 0.29238 0.0
C121 C 0.41825 0.34617 0.30522 0.0
O122 O 0.4319 0.35653 0.32595 0.0
O123 O 0.42001 0.33161 0.29024 0.0
O124 O 0.46469 0.3653 0.38107 0.0
O125 O 0.45116 0.32924 0.37342 0.0
O126 O 0.13206 0.48916 0.29196 0.0
Cd127 Cd 0.12627 0.45694 0.29526 0.0
Cd128 Cd 0.10385 0.45873 0.34588 0.0
O129 O 0.11255 0.48997 0.32986 0.0
O130 O 0.14573 0.45682 0.26311 0.0
O131 O 0.14993 0.45021 0.30957 0.0
C132 C 0.15653 0.45249 0.28258 0.0
C133 C 0.10839 0.45555 0.3964 0.0
C134 C 0.12457 0.49928 0.30738 0.0
C135 C 0.07715 0.42396 0.29958 0.0
O136 O 0.07763 0.43216 0.32477 0.0
O137 O 0.09482 0.43139 0.28426 0.0
O138 O 0.09196 0.45733 0.38628 0.0
O139 O 0.12248 0.45553 0.37778 0.0
O140 O 0.64594 0.1302 0.28918 0.0
Cd141 Cd 0.67182 0.12378 0.29502 0.0
Cd142 Cd 0.64739 0.10299 0.3459 0.0
O143 O 0.62627 0.11314 0.3288 0.0
O144 O 0.69392 0.14154 0.26392 0.0
O145 O 0.70098 0.1481 0.31147 0.0
C146 C 0.70753 0.15319 0.28455 0.0
C147 C 0.65466 0.10776 0.3965 0.0
C148 C 0.62884 0.12414 0.30529 0.0
C149 C 0.65408 0.07432 0.30161 0.0
O150 O 0.64595 0.07546 0.32617 0.0
O151 O 0.66539 0.09178 0.28625 0.0
O152 O 0.6361 0.09191 0.38634 0.0
O153 O 0.66937 0.12118 0.37791 0.0
O154 O 0.52132 0.64678 0.27696 0.0
Cd155 Cd 0.55205 0.67179 0.29132 0.0
Cd156 Cd 0.54067 0.64546 0.34089 0.0
O157 O 0.51081 0.62799 0.31864 0.0
O158 O 0.561 0.69641 0.26234 0.0
O159 O 0.55375 0.69925 0.30906 0.0
C160 C 0.55913 0.70801 0.28314 0.0
C161 C 0.53976 0.65185 0.39136 0.0
C162 C 0.50677 0.6306 0.29212 0.0
C163 C 0.57975 0.65069 0.30554 0.0
O164 O 0.56604 0.64044 0.32624 0.0
O165 O 0.57804 0.66517 0.29029 0.0
O166 O 0.53319 0.63217 0.38111 0.0
O167 O 0.54683 0.66818 0.37289 0.0
O168 O 0.51279 0.87048 0.78763 0.0
Cd169 Cd 0.5445 0.87534 0.79338 0.0
Cd170 Cd 0.54076 0.89621 0.84439 0.0
O171 O 0.51001 0.88777 0.82681 0.0
O172 O 0.54553 0.85627 0.76132 0.0
O173 O 0.54974 0.85082 0.80824 0.0
C174 C 0.54849 0.84472 0.78114 0.0
C175 C 0.54282 0.89117 0.89505 0.0
C176 C 0.50188 0.87711 0.80301 0.0
C177 C 0.5773 0.92414 0.80049 0.0
O178 O 0.56779 0.92298 0.82488 0.0
O179 O 0.57084 0.90686 0.78462 0.0
O180 O 0.541 0.90755 0.88484 0.0
O181 O 0.54335 0.87732 0.87648 0.0
O182 O 0.64819 0.52275 0.7764 0.0
Cd183 Cd 0.67302 0.55349 0.79106 0.0
Cd184 Cd 0.64665 0.5417 0.84059 0.0
O185 O 0.62946 0.51191 0.81811 0.0
O186 O 0.69797 0.56264 0.76255 0.0
O187 O 0.70032 0.55518 0.80934 0.0
C188 C 0.70936 0.56067 0.78357 0.0
C189 C 0.65269 0.54053 0.89112 0.0
C190 C 0.6321 0.50804 0.79152 0.0
C191 C 0.6516 0.58083 0.80552 0.0
O192 O 0.6414 0.56697 0.82609 0.0
O193 O 0.66621 0.57937 0.79023 0.0
O194 O 0.63307 0.53387 0.88062 0.0
O195 O 0.66917 0.54785 0.87287 0.0
O196 O 0.13277 0.64069 0.79444 0.0
Cd197 Cd 0.12619 0.6667 0.79648 0.0
Cd198 Cd 0.10337 0.643 0.84679 0.0
O199 O 0.11242 0.62045 0.83189 0.0
O200 O 0.14648 0.68705 0.76548 0.0
O201 O 0.14853 0.69716 0.81205 0.0
C202 C 0.15604 0.70206 0.78549 0.0
C203 C 0.10723 0.65111 0.89718 0.0
C204 C 0.125 0.62314 0.81007 0.0
C205 C 0.07698 0.65019 0.7992 0.0
O206 O 0.07731 0.64299 0.82482 0.0
O207 O 0.09475 0.66015 0.78404 0.0
O208 O 0.09098 0.63279 0.88705 0.0
O209 O 0.12154 0.66511 0.87866 0.0
O210 O 0.48489 0.12972 0.79259 0.0
Cd211 Cd 0.45301 0.12451 0.79832 0.0
Cd212 Cd 0.45731 0.1036 0.84928 0.0
O213 O 0.48806 0.1124 0.83149 0.0
O214 O 0.45173 0.14301 0.76569 0.0
O215 O 0.44779 0.14922 0.8124 0.0
C216 C 0.44889 0.15489 0.78512 0.0
C217 C 0.45545 0.10879 0.89987 0.0
C218 C 0.49604 0.12329 0.80781 0.0
C219 C 0.42031 0.0756 0.80606 0.0
O220 O 0.43023 0.07674 0.83007 0.0
O221 O 0.42651 0.09288 0.79026 0.0
O222 O 0.4574 0.09247 0.88971 0.0
O223 O 0.45467 0.1225 0.88127 0.0
O224 O 0.35041 0.47699 0.77554 0.0
Cd225 Cd 0.32557 0.44623 0.79012 0.0
Cd226 Cd 0.35171 0.45826 0.83989 0.0
O227 O 0.3686 0.48816 0.8176 0.0
O228 O 0.30079 0.43688 0.76125 0.0
O229 O 0.29804 0.44438 0.80789 0.0
C230 C 0.2892 0.43877 0.78203 0.0
C231 C 0.34549 0.45908 0.89044 0.0
C232 C 0.36621 0.4919 0.79085 0.0
C233 C 0.34736 0.41933 0.80491 0.0
O234 O 0.3575 0.43335 0.82535 0.0
O235 O 0.33256 0.42048 0.78966 0.0
O236 O 0.36519 0.46612 0.87999 0.0
O237 O 0.32903 0.45161 0.87214 0.0
O238 O 0.86641 0.35709 0.79704 0.0
Cd239 Cd 0.87302 0.33109 0.79851 0.0
Cd240 Cd 0.89634 0.35473 0.84851 0.0
O241 O 0.88765 0.37755 0.83375 0.0
O242 O 0.85267 0.3111 0.7673 0.0
O243 O 0.85064 0.30047 0.81361 0.0
C244 C 0.84309 0.29589 0.78704 0.0
C245 C 0.8918 0.34638 0.89882 0.0
C246 C 0.87463 0.37478 0.81243 0.0
C247 C 0.92229 0.34736 0.80065 0.0
O248 O 0.92223 0.35444 0.82643 0.0
O249 O 0.9044 0.33766 0.78566 0.0
O250 O 0.9084 0.36459 0.88899 0.0
O251 O 0.87764 0.33256 0.88001 0.0
O252 O 0.12595 0.47724 0.73139 0.0
Cd253 Cd 0.1199 0.44633 0.71725 0.0
Cd254 Cd 0.10472 0.45774 0.66762 0.0
O255 O 0.11733 0.48764 0.68985 0.0
O256 O 0.13548 0.43731 0.74633 0.0
O257 O 0.14544 0.44417 0.69954 0.0
C258 C 0.14882 0.43887 0.72552 0.0
C259 C 0.11173 0.45862 0.61704 0.0
C260 C 0.12423 0.49176 0.71627 0.0
C261 C 0.07097 0.41881 0.70336 0.0
O262 O 0.07438 0.43245 0.68257 0.0
O263 O 0.08719 0.42052 0.71853 0.0
O264 O 0.09873 0.46525 0.6275 0.0
O265 O 0.12103 0.45148 0.63535 0.0
O266 O 0.64441 0.12874 0.72775 0.0
Cd267 Cd 0.67027 0.12298 0.71824 0.0
Cd268 Cd 0.64457 0.10509 0.66729 0.0
O269 O 0.62494 0.11612 0.68685 0.0
O270 O 0.69143 0.14005 0.75051 0.0
O271 O 0.69989 0.14774 0.70346 0.0
C272 C 0.70547 0.15247 0.73074 0.0
C273 C 0.65161 0.11145 0.6168 0.0
C274 C 0.6276 0.12483 0.71219 0.0
C275 C 0.65124 0.07387 0.70705 0.0
O276 O 0.64172 0.07615 0.68445 0.0
O277 O 0.66411 0.09066 0.72277 0.0
O278 O 0.63209 0.09741 0.62667 0.0
O279 O 0.66745 0.12206 0.63562 0.0
O280 O 0.50696 0.6407 0.71372 0.0
Cd281 Cd 0.53942 0.66699 0.71236 0.0
Cd282 Cd 0.5394 0.64355 0.66211 0.0
O283 O 0.50802 0.62043 0.67692 0.0
O284 O 0.53878 0.68662 0.74391 0.0
O285 O 0.5471 0.69756 0.69767 0.0
C286 C 0.5441 0.7019 0.72435 0.0
C287 C 0.54324 0.65187 0.61179 0.0
C288 C 0.49769 0.62303 0.69828 0.0
C289 C 0.57293 0.65133 0.70988 0.0
O290 O 0.56577 0.64422 0.68411 0.0
O291 O 0.56457 0.66083 0.72496 0.0
O292 O 0.54178 0.63374 0.62169 0.0
O293 O 0.54265 0.6656 0.63054 0.0
O294 O 0.87221 0.52043 0.73585 0.0
Cd295 Cd 0.8781 0.55124 0.72147 0.0
Cd296 Cd 0.8922 0.53953 0.67154 0.0
O297 O 0.87976 0.50969 0.69382 0.0
O298 O 0.86259 0.56053 0.75027 0.0
O299 O 0.85253 0.55318 0.70354 0.0
C300 C 0.84921 0.55876 0.72938 0.0
C301 C 0.88458 0.53859 0.62118 0.0
C302 C 0.87346 0.50574 0.72048 0.0
C303 C 0.92673 0.57853 0.70633 0.0
O304 O 0.92288 0.5647 0.68563 0.0
O305 O 0.91082 0.57704 0.72197 0.0
O306 O 0.89755 0.53179 0.63125 0.0
O307 O 0.87562 0.54589 0.63977 0.0
O308 O 0.35352 0.87318 0.72563 0.0
Cd309 Cd 0.32679 0.87812 0.719 0.0
Cd310 Cd 0.35182 0.89821 0.66798 0.0
O311 O 0.37368 0.88937 0.68609 0.0
O312 O 0.30646 0.85934 0.75105 0.0
O313 O 0.29724 0.85334 0.70401 0.0
C314 C 0.29222 0.84747 0.73115 0.0
C315 C 0.34488 0.89294 0.61735 0.0
C316 C 0.37096 0.87913 0.71031 0.0
C317 C 0.34326 0.92689 0.71072 0.0
O318 O 0.35195 0.92536 0.68684 0.0
O319 O 0.33192 0.90978 0.7267 0.0
O320 O 0.36315 0.90921 0.62754 0.0
O321 O 0.33032 0.8793 0.63593 0.0
O322 O 0.492 0.35885 0.71417 0.0
Cd323 Cd 0.45952 0.33267 0.71283 0.0
Cd324 Cd 0.45971 0.35598 0.66235 0.0
O325 O 0.49123 0.37893 0.67694 0.0
O326 O 0.46006 0.31316 0.74463 0.0
O327 O 0.45163 0.30195 0.69849 0.0
C328 C 0.45462 0.29774 0.72524 0.0
C329 C 0.45561 0.34736 0.61212 0.0
C330 C 0.50145 0.37639 0.6985 0.0
C331 C 0.42632 0.34867 0.71016 0.0
O332 O 0.43351 0.3557 0.68438 0.0
O333 O 0.43453 0.33906 0.7253 0.0
O334 O 0.45731 0.36564 0.62183 0.0
O335 O 0.4561 0.33366 0.631 0.0
C336 C 0.39181 0.04572 0.24015 0.0
C337 C 0.40797 0.04977 0.21866 0.0
C338 C 0.37912 0.02448 0.25287 0.0
C339 C 0.38305 0.00706 0.24434 0.0
C340 C 0.39853 0.01077 0.22162 0.0
C341 C 0.41062 0.03201 0.20885 0.0
C342 C 0.36232 0.02101 0.27644 0.0
C343 C 0.40341 0.99272 0.21209 0.0
C344 C 0.37561 0.96296 0.29985 0.0
C345 C 0.35671 0.94395 0.28894 0.0
C346 C 0.38392 0.98375 0.28604 0.0
C347 C 0.37281 0.9857 0.26102 0.0
C348 C 0.353 0.96686 0.25089 0.0
C349 C 0.34531 0.94612 0.26478 0.0
C350 C 0.40525 0.00337 0.29734 0.0
C351 C 0.34038 0.96841 0.22477 0.0
H352 H 0.38951 0.05931 0.24766 0.0
H353 H 0.4231 0.03499 0.19232 0.0
H354 H 0.3464 0.00527 0.27254 0.0
H355 H 0.36876 0.01952 0.29817 0.0
H356 H 0.35888 0.03505 0.27746 0.0
H357 H 0.41479 0.99782 0.19282 0.0
H358 H 0.41127 0.98865 0.23054 0.0
H359 H 0.38772 0.97725 0.20642 0.0
H360 H 0.38457 0.96144 0.31844 0.0
H361 H 0.33059 0.93153 0.25636 0.0
H362 H 0.40272 0.01769 0.30194 0.0
H363 H 0.41844 0.00882 0.28029 0.0
H364 H 0.41135 0.9993 0.31773 0.0
H365 H 0.33778 0.98292 0.22715 0.0
H366 H 0.32389 0.95307 0.22198 0.0
H367 H 0.35027 0.97105 0.20446 0.0
C368 C 0.40596 0.37448 0.30377 0.0
C369 C 0.40227 0.35331 0.29579 0.0
C370 C 0.39386 0.38347 0.29061 0.0
C371 C 0.37729 0.37078 0.26944 0.0
C372 C 0.37221 0.34869 0.26309 0.0
C373 C 0.38496 0.3403 0.27608 0.0
C374 C 0.40001 0.40719 0.29778 0.0
C375 C 0.35419 0.33439 0.24135 0.0
C376 C 0.3418 0.39612 0.24696 0.0
C377 C 0.35295 0.40794 0.22153 0.0
C378 C 0.34864 0.38276 0.26192 0.0
C379 C 0.36739 0.3817 0.2516 0.0
C380 C 0.3781 0.39286 0.22527 0.0
C381 C 0.37058 0.40561 0.2104 0.0
C382 C 0.33638 0.37054 0.28939 0.0
C383 C 0.39835 0.39243 0.21369 0.0
H384 H 0.41931 0.38466 0.31895 0.0
H385 H 0.38185 0.32383 0.27003 0.0
H386 H 0.40759 0.41788 0.27813 0.0
H387 H 0.38491 0.40808 0.30358 0.0
H388 H 0.41207 0.4142 0.31627 0.0
H389 H 0.34972 0.31659 0.24264 0.0
H390 H 0.33897 0.33556 0.24519 0.0
H391 H 0.36006 0.34045 0.2187 0.0
H392 H 0.32803 0.39768 0.25555 0.0
H393 H 0.37934 0.41473 0.19083 0.0
H394 H 0.34685 0.37884 0.30895 0.0
H395 H 0.33308 0.35311 0.28908 0.0
H396 H 0.32027 0.37026 0.29195 0.0
H397 H 0.41221 0.40054 0.22979 0.0
H398 H 0.40415 0.40119 0.19227 0.0
H399 H 0.39461 0.37497 0.2109 0.0
C400 C 0.95503 0.34142 0.23293 0.0
C401 C 0.95081 0.35488 0.21394 0.0
C402 C 0.97622 0.34937 0.24556 0.0
C403 C 0.99336 0.37147 0.2396 0.0
C404 C 0.98952 0.38464 0.21916 0.0
C405 C 0.96837 0.37608 0.20633 0.0
C406 C 0.97988 0.33457 0.26651 0.0
C407 C 0.00724 0.40839 0.21245 0.0
C408 C 0.0356 0.40524 0.29844 0.0
C409 C 0.05537 0.40757 0.28659 0.0
C410 C 0.01515 0.39275 0.2839 0.0
C411 C 0.01431 0.38188 0.25715 0.0
C412 C 0.03391 0.38286 0.24612 0.0
C413 C 0.0543 0.39592 0.26079 0.0
C414 C 0.99469 0.39237 0.29629 0.0
C415 C 0.03355 0.37094 0.21814 0.0
H416 H 0.94159 0.32492 0.23868 0.0
H417 H 0.96527 0.38661 0.19171 0.0
H418 H 0.99613 0.33557 0.26212 0.0
H419 H 0.98032 0.34031 0.28941 0.0
H420 H 0.96639 0.31686 0.26489 0.0
H421 H 0.00216 0.41584 0.19452 0.0
H422 H 0.01068 0.41879 0.23248 0.0
H423 H 0.02306 0.40915 0.20603 0.0
H424 H 0.03624 0.41418 0.31833 0.0
H425 H 0.06947 0.39748 0.25163 0.0
H426 H 0.98086 0.37493 0.29872 0.0
H427 H 0.98896 0.40091 0.28084 0.0
H428 H 0.99791 0.40076 0.31803 0.0
H429 H 0.01923 0.35361 0.21817 0.0
H430 H 0.04921 0.37041 0.21506 0.0
H431 H 0.03144 0.37967 0.19901 0.0
C432 C 0.59114 0.96598 0.20741 0.0
C433 C 0.59376 0.94783 0.2153 0.0
C434 C 0.6039 0.98688 0.22086 0.0
C435 C 0.62003 0.98985 0.24228 0.0
C436 C 0.62387 0.97204 0.2488 0.0
C437 C 0.6105 0.95114 0.23548 0.0
C438 C 0.59908 0.00536 0.2135 0.0
C439 C 0.64133 0.97472 0.27089 0.0
C440 C 0.65861 0.05035 0.26393 0.0
C441 C 0.64786 0.05217 0.28909 0.0
C442 C 0.65056 0.02981 0.24936 0.0
C443 C 0.63105 0.01081 0.25984 0.0
C444 C 0.62078 0.01233 0.28601 0.0
C445 C 0.62945 0.03291 0.30046 0.0
C446 C 0.66234 0.0287 0.22202 0.0
C447 C 0.5998 0.99253 0.2978 0.0
H448 H 0.57822 0.96357 0.1919 0.0
H449 H 0.61277 0.93724 0.2415 0.0
H450 H 0.59207 0.00923 0.2331 0.0
H451 H 0.6147 0.0208 0.2075 0.0
H452 H 0.58703 0.00082 0.19507 0.0
H453 H 0.6446 0.96055 0.27016 0.0
H454 H 0.65722 0.99047 0.26688 0.0
H455 H 0.63565 0.97569 0.29337 0.0
H456 H 0.67296 0.06511 0.25512 0.0
H457 H 0.621 0.03413 0.31984 0.0
H458 H 0.65207 0.027 0.2024 0.0
H459 H 0.6645 0.01386 0.22269 0.0
H460 H 0.67896 0.04388 0.21927 0.0
H461 H 0.58601 0.98759 0.28177 0.0
H462 H 0.59455 0.99617 0.31921 0.0
H463 H 0.60232 0.97802 0.30067 0.0
C464 C 0.59195 0.62232 0.30445 0.0
C465 C 0.59576 0.64352 0.29642 0.0
C466 C 0.6041 0.6133 0.29151 0.0
C467 C 0.62083 0.626 0.27052 0.0
C468 C 0.62603 0.64812 0.26417 0.0
C469 C 0.61323 0.65653 0.27693 0.0
C470 C 0.59783 0.58954 0.29866 0.0
C471 C 0.64421 0.66243 0.24262 0.0
C472 C 0.65629 0.60056 0.24832 0.0
C473 C 0.64527 0.58887 0.22276 0.0
C474 C 0.64941 0.61389 0.26326 0.0
C475 C 0.63075 0.61505 0.25278 0.0
C476 C 0.62016 0.60401 0.22635 0.0
C477 C 0.62772 0.59128 0.2115 0.0
C478 C 0.66154 0.62598 0.29087 0.0
C479 C 0.60001 0.60455 0.21459 0.0
H480 H 0.57848 0.61213 0.31946 0.0
H481 H 0.61643 0.67303 0.27086 0.0
H482 H 0.59029 0.57889 0.27897 0.0
H483 H 0.61286 0.58856 0.30457 0.0
H484 H 0.58568 0.58255 0.31707 0.0
H485 H 0.64876 0.68024 0.24396 0.0
H486 H 0.65937 0.66117 0.24664 0.0
H487 H 0.63846 0.65645 0.21992 0.0
H488 H 0.66999 0.59892 0.25701 0.0
H489 H 0.61906 0.58227 0.19182 0.0
H490 H 0.65093 0.61765 0.31032 0.0
H491 H 0.66492 0.64344 0.2906 0.0
H492 H 0.67759 0.62617 0.29359 0.0
H493 H 0.58607 0.59646 0.23058 0.0
H494 H 0.59427 0.59582 0.19313 0.0
H495 H 0.60384 0.62204 0.21179 0.0
C496 C 0.04358 0.65718 0.23883 0.0
C497 C 0.04733 0.64426 0.2183 0.0
C498 C 0.02251 0.64912 0.25189 0.0
C499 C 0.00504 0.62742 0.24484 0.0
C500 C 0.00845 0.61479 0.22305 0.0
C501 C 0.02946 0.62349 0.20979 0.0
C502 C 0.01931 0.66338 0.27428 0.0
C503 C 0.99038 0.59143 0.2152 0.0
C504 C 0.96262 0.59221 0.30275 0.0
C505 C 0.943 0.59066 0.29159 0.0
C506 C 0.98309 0.60485 0.28831 0.0
C507 C 0.98411 0.61673 0.26245 0.0
C508 C 0.96467 0.6165 0.25219 0.0
C509 C 0.94424 0.60319 0.26666 0.0
C510 C 0.00334 0.60434 0.29976 0.0
C511 C 0.96525 0.62952 0.22525 0.0
H512 H 0.05727 0.67335 0.24529 0.0
H513 H 0.03222 0.61337 0.19401 0.0
H514 H 0.00324 0.66294 0.27056 0.0
H515 H 0.01872 0.65672 0.29666 0.0
H516 H 0.03307 0.68101 0.27361 0.0
H517 H 0.99523 0.58439 0.19652 0.0
H518 H 0.98673 0.58033 0.23453 0.0
H519 H 0.97474 0.59125 0.20935 0.0
H520 H 0.96182 0.58253 0.32194 0.0
H521 H 0.92916 0.60222 0.25806 0.0
H522 H 0.0174 0.62155 0.3031 0.0
H523 H 0.0088 0.59619 0.28333 0.0
H524 H -2e-05 0.59512 0.32088 0.0
H525 H 0.97977 0.64672 0.22613 0.0
H526 H 0.94976 0.63047 0.22292 0.0
H527 H 0.96716 0.62139 0.20532 0.0
C528 C 0.60711 0.94827 0.7643 0.0
C529 C 0.59388 0.94632 0.78877 0.0
C530 C 0.62023 0.96898 0.75037 0.0
C531 C 0.6196 0.98796 0.76071 0.0
C532 C 0.60718 0.98628 0.78628 0.0
C533 C 0.59472 0.96556 0.80019 0.0
C534 C 0.63388 0.97028 0.72377 0.0
C535 C 0.60578 0.00603 0.79784 0.0
C536 C 0.6584 0.04801 0.73784 0.0
C537 C 0.64519 0.05118 0.71715 0.0
C538 C 0.65105 0.02699 0.7507 0.0
C539 C 0.62974 0.00897 0.74328 0.0
C540 C 0.61687 0.01183 0.72132 0.0
C541 C 0.62489 0.03283 0.70826 0.0
C542 C 0.66557 0.02439 0.7733 0.0
C543 C 0.59391 0.99315 0.71305 0.0
H544 H 0.60671 0.93351 0.75551 0.0
H545 H 0.58455 0.96424 0.81906 0.0
H546 H 0.62564 0.9717 0.70361 0.0
H547 H 0.65073 0.98532 0.72489 0.0
H548 H 0.6357 0.95527 0.72166 0.0
H549 H 0.59638 0.00224 0.81885 0.0
H550 H 0.62273 0.02048 0.80139 0.0
H551 H 0.59735 0.01114 0.78136 0.0
H552 H 0.67423 0.06209 0.74457 0.0
H553 H 0.61456 0.03514 0.69233 0.0
H554 H 0.66582 0.00866 0.76963 0.0
H555 H 0.65866 0.0235 0.79559 0.0
H556 H 0.68299 0.0386 0.7728 0.0
H557 H 0.59454 0.97794 0.70709 0.0
H558 H 0.58665 0.99768 0.69431 0.0
H559 H 0.58255 0.9889 0.73221 0.0
C560 C 0.65733 0.61458 0.77762 0.0
C561 C 0.64426 0.59676 0.79662 0.0
C562 C 0.64882 0.62738 0.76511 0.0
C563 C 0.62655 0.62182 0.77116 0.0
C564 C 0.61377 0.6047 0.79164 0.0
C565 C 0.62288 0.59256 0.80439 0.0
C566 C 0.66322 0.64599 0.74413 0.0
C567 C 0.58986 0.59801 0.79843 0.0
C568 C 0.60058 0.65691 0.74947 0.0
C569 C 0.58931 0.64621 0.72353 0.0
C570 C 0.61395 0.65008 0.7644 0.0
C571 C 0.61557 0.63176 0.75352 0.0
C572 C 0.60494 0.6215 0.72675 0.0
C573 C 0.59218 0.62902 0.71192 0.0
C574 C 0.62561 0.66188 0.79239 0.0
C575 C 0.60597 0.60171 0.71455 0.0
H576 H 0.67396 0.61807 0.77176 0.0
H577 H 0.61265 0.57881 0.81902 0.0
H578 H 0.65757 0.64057 0.72124 0.0
H579 H 0.66166 0.66094 0.74848 0.0
H580 H 0.68108 0.65075 0.74577 0.0
H581 H 0.58278 0.58555 0.81648 0.0
H582 H 0.58858 0.61282 0.8047 0.0
H583 H 0.57947 0.5907 0.77847 0.0
H584 H 0.59859 0.67033 0.75843 0.0
H585 H 0.58349 0.62061 0.69195 0.0
H586 H 0.64314 0.66549 0.79239 0.0
H587 H 0.61714 0.65093 0.81152 0.0
H588 H 0.62552 0.67777 0.79543 0.0
H589 H 0.62356 0.60585 0.71198 0.0
H590 H 0.59749 0.59619 0.69291 0.0
H591 H 0.59789 0.58752 0.73018 0.0
C592 C 0.95496 0.6123 0.73392 0.0
C593 C 0.95007 0.59449 0.71483 0.0
C594 C 0.9764 0.62519 0.746 0.0
C595 C 0.9931 0.61974 0.73941 0.0
C596 C 0.9886 0.60262 0.71885 0.0
C597 C 0.96722 0.59038 0.70655 0.0
C598 C 0.98076 0.64378 0.76711 0.0
C599 C 0.00584 0.59604 0.71149 0.0
C600 C 0.05433 0.65531 0.76001 0.0
C601 C 0.05529 0.64471 0.78585 0.0
C602 C 0.03395 0.64823 0.74543 0.0
C603 C 0.01423 0.6298 0.75658 0.0
C604 C 0.01501 0.61962 0.78323 0.0
C605 C 0.03545 0.62736 0.79768 0.0
C606 C 0.03366 0.65993 0.71756 0.0
C607 C 0.99443 0.59971 0.79569 0.0
H608 H 0.94184 0.61573 0.74017 0.0
H609 H 0.96359 0.57664 0.69186 0.0
H610 H 0.98138 0.63841 0.78991 0.0
H611 H 0.99713 0.65881 0.76243 0.0
H612 H 0.96754 0.64841 0.76598 0.0
H613 H 0.00031 0.58361 0.6934 0.0
H614 H 0.02181 0.61091 0.70503 0.0
H615 H 0.00918 0.58875 0.73125 0.0
H616 H 0.06957 0.66885 0.75086 0.0
H617 H 0.03602 0.61902 0.81758 0.0
H618 H 0.0197 0.66349 0.718 0.0
H619 H 0.03094 0.64893 0.69839 0.0
H620 H 0.04956 0.67584 0.71419 0.0
H621 H 0.98091 0.6037 0.7987 0.0
H622 H 0.99771 0.59423 0.81717 0.0
H623 H 0.98825 0.58554 0.78003 0.0
C624 C 0.40349 0.03431 0.80442 0.0
C625 C 0.40333 0.05347 0.79474 0.0
C626 C 0.3903 0.01364 0.79068 0.0
C627 C 0.37608 0.01193 0.7672 0.0
C628 C 0.37454 0.03083 0.75883 0.0
C629 C 0.38848 0.05151 0.77238 0.0
C630 C 0.39281 0.99403 0.79997 0.0
C631 C 0.35897 0.02947 0.73463 0.0
C632 C 0.36836 0.96812 0.71138 0.0
C633 C 0.34906 0.94928 0.72184 0.0
C634 C 0.37671 0.98892 0.7251 0.0
C635 C 0.36515 0.99111 0.74939 0.0
C636 C 0.34467 0.97261 0.75851 0.0
C637 C 0.33702 0.95177 0.74492 0.0
C638 C 0.39882 0.00809 0.71495 0.0
C639 C 0.33144 0.97451 0.78359 0.0
H640 H 0.41497 0.03568 0.82162 0.0
H641 H 0.38811 0.06623 0.76501 0.0
H642 H 0.37628 0.97939 0.80501 0.0
H643 H 0.40015 0.98922 0.78164 0.0
H644 H 0.40369 0.99783 0.8196 0.0
H645 H 0.35666 0.04425 0.73452 0.0
H646 H 0.36589 0.02854 0.71302 0.0
H647 H 0.34242 0.01417 0.73702 0.0
H648 H 0.3778 0.96636 0.6936 0.0
H649 H 0.32197 0.93732 0.7529 0.0
H650 H 0.41146 0.01251 0.73257 0.0
H651 H 0.39736 0.02307 0.7106 0.0
H652 H 0.40503 0.004 0.6947 0.0
H653 H 0.33972 0.97513 0.80474 0.0
H654 H 0.31414 0.96011 0.78429 0.0
H655 H 0.33073 0.99015 0.78177 0.0
C656 C 0.37646 0.40811 0.80368 0.0
C657 C 0.35493 0.40357 0.79613 0.0
C658 C 0.38569 0.39605 0.79107 0.0
C659 C 0.37288 0.37865 0.77093 0.0
C660 C 0.35051 0.37279 0.76507 0.0
C661 C 0.34187 0.38552 0.77746 0.0
C662 C 0.40972 0.40306 0.79763 0.0
C663 C 0.3361 0.3539 0.74446 0.0
C664 C 0.40701 0.37095 0.71181 0.0
C665 C 0.41002 0.35394 0.72374 0.0
C666 C 0.39429 0.37858 0.72651 0.0
C667 C 0.38388 0.36863 0.75352 0.0
C668 C 0.38567 0.3505 0.76477 0.0
C669 C 0.39896 0.34353 0.74993 0.0
C670 C 0.39306 0.39815 0.71391 0.0
C671 C 0.37428 0.33906 0.79305 0.0
H672 H 0.38669 0.42205 0.81805 0.0
H673 H 0.32513 0.38177 0.77176 0.0
H674 H 0.41122 0.38842 0.80418 0.0
H675 H 0.41992 0.4102 0.7775 0.0
H676 H 0.41683 0.41574 0.81541 0.0
H677 H 0.31821 0.34906 0.7461 0.0
H678 H 0.34165 0.35906 0.72147 0.0
H679 H 0.33777 0.33906 0.74917 0.0
H680 H 0.41553 0.37913 0.69165 0.0
H681 H 0.40106 0.33025 0.75916 0.0
H682 H 0.40121 0.41255 0.7292 0.0
H683 H 0.37542 0.39389 0.71148 0.0
H684 H 0.40135 0.40341 0.69212 0.0
H685 H 0.38278 0.35033 0.8119 0.0
H686 H 0.37458 0.32331 0.79654 0.0
H687 H 0.35668 0.33524 0.79311 0.0
C688 C 0.03047 0.40684 0.70504 0.0
C689 C 0.04782 0.40285 0.71263 0.0
C690 C 0.00934 0.39465 0.71807 0.0
C691 C 0.0053 0.37769 0.73869 0.0
C692 C 0.02218 0.37236 0.74462 0.0
C693 C 0.04336 0.3852 0.73181 0.0
C694 C 0.99191 0.4011 0.71139 0.0
C695 C 0.01829 0.35393 0.76576 0.0
C696 C 0.9638 0.37016 0.79823 0.0
C697 C 0.94382 0.35275 0.78683 0.0
C698 C 0.98404 0.37789 0.78323 0.0
C699 C 0.98445 0.36762 0.75648 0.0
C700 C 0.9646 0.34909 0.7458 0.0
C701 C 0.94443 0.34205 0.76091 0.0
C702 C 0.00477 0.39789 0.79521 0.0
C703 C 0.9645 0.33728 0.71785 0.0
H704 H 0.03376 0.42047 0.69029 0.0
H705 H 0.05663 0.38187 0.73755 0.0
H706 H 0.97588 0.38617 0.7053 0.0
H707 H 0.98884 0.40841 0.73135 0.0
H708 H 0.99708 0.41347 0.69326 0.0
H709 H 0.03154 0.34937 0.76414 0.0
H710 H 0.01806 0.35942 0.78861 0.0
H711 H 0.00187 0.33883 0.76156 0.0
H712 H 0.9635 0.37858 0.81818 0.0
H713 H 0.92907 0.32845 0.7521 0.0
H714 H 0.01062 0.41201 0.7795 0.0
H715 H 0.0184 0.394 0.7977 0.0
H716 H 0.00181 0.40341 0.81686 0.0
H717 H 0.96683 0.34815 0.69867 0.0
H718 H 0.9486 0.32131 0.71489 0.0
H719 H 0.97853 0.33382 0.71782 0.0
C720 C 0.42676 0.16806 0.26023 0.0
C721 C 0.44076 0.16955 0.237 0.0
C722 C 0.42455 0.18645 0.26829 0.0
C723 C 0.43729 0.20702 0.25345 0.0
C724 C 0.45132 0.20853 0.22978 0.0
C725 C 0.45259 0.18963 0.22151 0.0
C726 C 0.40882 0.18394 0.29291 0.0
C727 C 0.46561 0.23032 0.2139 0.0
C728 C 0.42274 0.25315 0.25693 0.0
C729 C 0.43717 0.26692 0.27904 0.0
C730 C 0.42193 0.23311 0.24921 0.0
C731 C 0.4365 0.22716 0.2632 0.0
C732 C 0.45089 0.24089 0.28585 0.0
C733 C 0.45078 0.26045 0.29384 0.0
C734 C 0.40578 0.21853 0.22571 0.0
C735 C 0.46708 0.23543 0.30078 0.0
H736 H 0.41751 0.15246 0.27211 0.0
H737 H 0.4636 0.19084 0.20375 0.0
H738 H 0.41842 0.19446 0.31186 0.0
H739 H 0.3973 0.18978 0.2856 0.0
H740 H 0.39877 0.16638 0.30054 0.0
H741 H 0.47566 0.2287 0.19602 0.0
H742 H 0.455 0.23652 0.20428 0.0
H743 H 0.47712 0.24312 0.22973 0.0
H744 H 0.41214 0.25812 0.24557 0.0
H745 H 0.46212 0.27124 0.31071 0.0
H746 H 0.3958 0.20109 0.23372 0.0
H747 H 0.41513 0.21825 0.20605 0.0
H748 H 0.39422 0.22448 0.21894 0.0
H749 H 0.45798 0.21861 0.3109 0.0
H750 H 0.47703 0.24774 0.31812 0.0
H751 H 0.4787 0.23508 0.28424 0.0
C752 C 0.18224 0.43714 0.28909 0.0
C753 C 0.17634 0.45108 0.27399 0.0
C754 C 0.20105 0.43575 0.28058 0.0
C755 C 0.21461 0.44922 0.25716 0.0
C756 C 0.20875 0.46345 0.24205 0.0
C757 C 0.18948 0.46391 0.25034 0.0
C758 C 0.20642 0.41991 0.29663 0.0
C759 C 0.22315 0.47864 0.21764 0.0
C760 C 0.27543 0.46454 0.25591 0.0
C761 C 0.27584 0.45161 0.23245 0.0
C762 C 0.2556 0.46387 0.26419 0.0
C763 C 0.23553 0.44935 0.24926 0.0
C764 C 0.23574 0.4358 0.22602 0.0
C765 C 0.25602 0.43739 0.21752 0.0
C766 C 0.25625 0.47913 0.28841 0.0
C767 C 0.21456 0.41966 0.21016 0.0
H768 H 0.17196 0.42708 0.30722 0.0
H769 H 0.185 0.47483 0.23879 0.0
H770 H 0.20828 0.40881 0.28067 0.0
H771 H 0.22255 0.42945 0.30838 0.0
H772 H 0.19333 0.40943 0.31286 0.0
H773 H 0.21631 0.48882 0.20827 0.0
H774 H 0.2402 0.49008 0.22608 0.0
H775 H 0.22475 0.46868 0.19969 0.0
H776 H 0.29081 0.47568 0.26734 0.0
H777 H 0.25633 0.42725 0.19954 0.0
H778 H 0.24483 0.46921 0.30649 0.0
H779 H 0.25038 0.49034 0.27983 0.0
H780 H 0.27327 0.48956 0.29764 0.0
H781 H 0.20173 0.40855 0.22625 0.0
H782 H 0.21729 0.40919 0.19404 0.0
H783 H 0.20773 0.42895 0.19831 0.0
C784 C 0.73864 0.19196 0.29342 0.0
C785 C 0.72964 0.17217 0.27712 0.0
C786 C 0.75857 0.21091 0.28459 0.0
C787 C 0.77011 0.20968 0.25954 0.0
C788 C 0.76153 0.18937 0.24382 0.0
C789 C 0.74115 0.17098 0.25247 0.0
C790 C 0.76684 0.23244 0.30144 0.0
C791 C 0.77375 0.18714 0.21769 0.0
C792 C 0.80916 0.26346 0.21921 0.0
C793 C 0.82965 0.26941 0.23245 0.0
C794 C 0.78961 0.24401 0.22779 0.0
C795 C 0.79082 0.22983 0.24934 0.0
C796 C 0.81172 0.23528 0.2617 0.0
C797 C 0.83084 0.25526 0.25352 0.0
C798 C 0.76756 0.23911 0.2147 0.0
C799 C 0.81385 0.2202 0.28387 0.0
H800 H 0.72958 0.19291 0.3123 0.0
H801 H 0.73421 0.15559 0.23998 0.0
H802 H 0.78391 0.23827 0.30991 0.0
H803 H 0.76782 0.2456 0.28653 0.0
H804 H 0.75583 0.23064 0.32027 0.0
H805 H 0.76577 0.16972 0.20938 0.0
H806 H 0.77419 0.19809 0.19958 0.0
H807 H 0.7913 0.19264 0.22371 0.0
H808 H 0.80823 0.27458 0.20319 0.0
H809 H 0.84675 0.25987 0.26368 0.0
H810 H 0.75627 0.23859 0.23241 0.0
H811 H 0.7593 0.2225 0.20396 0.0
H812 H 0.76949 0.25182 0.19822 0.0
H813 H 0.80498 0.21973 0.30441 0.0
H814 H 0.83153 0.22583 0.28937 0.0
H815 H 0.80593 0.20288 0.27527 0.0
C816 C 0.54801 0.80774 0.21678 0.0
C817 C 0.56011 0.82794 0.23194 0.0
C818 C 0.54894 0.78874 0.22547 0.0
C819 C 0.56291 0.79025 0.24923 0.0
C820 C 0.57597 0.81094 0.26367 0.0
C821 C 0.5741 0.82945 0.2552 0.0
C822 C 0.53432 0.76685 0.20999 0.0
C823 C 0.59164 0.81344 0.28838 0.0
C824 C 0.54844 0.73712 0.29105 0.0
C825 C 0.56176 0.73009 0.27666 0.0
C826 C 0.54873 0.75676 0.28243 0.0
C827 C 0.56324 0.77 0.25955 0.0
C828 C 0.57749 0.76348 0.24595 0.0
C829 C 0.57628 0.74338 0.25431 0.0
C830 C 0.53287 0.76285 0.29697 0.0
C831 C 0.59374 0.77754 0.22223 0.0
H832 H 0.53701 0.80653 0.19901 0.0
H833 H 0.58356 0.84513 0.26683 0.0
H834 H 0.54466 0.76018 0.20077 0.0
H835 H 0.52262 0.75438 0.226 0.0
H836 H 0.52447 0.76851 0.19187 0.0
H837 H 0.60204 0.83107 0.29556 0.0
H838 H 0.58195 0.80333 0.30755 0.0
H839 H 0.60283 0.8071 0.2814 0.0
H840 H 0.53703 0.72671 0.30811 0.0
H841 H 0.58666 0.73797 0.24327 0.0
H842 H 0.52141 0.76329 0.28026 0.0
H843 H 0.54227 0.77975 0.30678 0.0
H844 H 0.52274 0.75083 0.31449 0.0
H845 H 0.58448 0.77781 0.20247 0.0
H846 H 0.605 0.77115 0.21574 0.0
H847 H 0.60405 0.79504 0.22987 0.0
C848 C 0.74233 0.55984 0.21938 0.0
C849 C 0.72243 0.5454 0.234 0.0
C850 C 0.76263 0.56159 0.22815 0.0
C851 C 0.76279 0.54796 0.25133 0.0
C852 C 0.74264 0.5332 0.26592 0.0
C853 C 0.72278 0.53238 0.25738 0.0
C854 C 0.78389 0.57798 0.21266 0.0
C855 C 0.74194 0.51786 0.29007 0.0
C856 C 0.80925 0.53399 0.25321 0.0
C857 C 0.82205 0.54673 0.27712 0.0
C858 C 0.78997 0.53431 0.24454 0.0
C859 C 0.78376 0.5483 0.25957 0.0
C860 C 0.797 0.5617 0.28325 0.0
C861 C 0.81582 0.56045 0.29211 0.0
C862 C 0.77592 0.51921 0.21984 0.0
C863 C 0.79125 0.57729 0.29924 0.0
H864 H 0.74208 0.57006 0.20147 0.0
H865 H 0.70734 0.52107 0.26856 0.0
H866 H 0.79649 0.5891 0.22898 0.0
H867 H 0.79101 0.5689 0.20094 0.0
H868 H 0.78116 0.58842 0.19649 0.0
H869 H 0.72485 0.5072 0.29897 0.0
H870 H 0.74809 0.50687 0.28155 0.0
H871 H 0.7531 0.52774 0.30837 0.0
H872 H 0.81397 0.52323 0.24174 0.0
H873 H 0.82584 0.57045 0.31045 0.0
H874 H 0.77434 0.5292 0.20192 0.0
H875 H 0.75884 0.50755 0.22797 0.0
H876 H 0.78305 0.50927 0.21051 0.0
H877 H 0.78936 0.58837 0.28327 0.0
H878 H 0.80415 0.58779 0.31567 0.0
H879 H 0.77504 0.56754 0.31074 0.0
C880 C 0.17587 0.74753 0.2222 0.0
C881 C 0.16855 0.72827 0.23928 0.0
C882 C 0.19527 0.76749 0.22988 0.0
C883 C 0.20806 0.76781 0.25445 0.0
C884 C 0.20066 0.74832 0.27169 0.0
C885 C 0.18077 0.72893 0.26421 0.0
C886 C 0.20222 0.78815 0.2116 0.0
C887 C 0.21419 0.74766 0.29735 0.0
C888 C 0.27012 0.80959 0.25425 0.0
C889 C 0.27182 0.82456 0.2762 0.0
C890 C 0.24946 0.79108 0.24696 0.0
C891 C 0.22989 0.78798 0.26115 0.0
C892 C 0.23144 0.8035 0.2827 0.0
C893 C 0.25251 0.8214 0.29045 0.0
C894 C 0.24868 0.77448 0.2247 0.0
C895 C 0.21087 0.80118 0.29755 0.0
H896 H 0.1663 0.74703 0.20303 0.0
H897 H 0.17521 0.71395 0.27726 0.0
H898 H 0.20553 0.80243 0.22601 0.0
H899 H 0.21794 0.7927 0.19975 0.0
H900 H 0.18931 0.78576 0.19517 0.0
H901 H 0.20606 0.73118 0.30853 0.0
H902 H 0.23092 0.75138 0.28958 0.0
H903 H 0.2168 0.76063 0.31371 0.0
H904 H 0.28512 0.81199 0.2434 0.0
H905 H 0.25386 0.83315 0.30723 0.0
H906 H 0.2378 0.77311 0.20596 0.0
H907 H 0.24136 0.75771 0.23492 0.0
H908 H 0.26547 0.77919 0.21601 0.0
H909 H 0.1985 0.79958 0.28077 0.0
H910 H 0.21474 0.81565 0.31195 0.0
H911 H 0.2029 0.78579 0.31109 0.0
C912 C 0.53256 0.72413 0.75502 0.0
C913 C 0.54602 0.72343 0.7325 0.0
C914 C 0.5337 0.74425 0.76302 0.0
C915 C 0.54925 0.76428 0.74883 0.0
C916 C 0.5633 0.76375 0.72653 0.0
C917 C 0.56122 0.74321 0.71824 0.0
C918 C 0.51789 0.74395 0.78616 0.0
C919 C 0.58052 0.78486 0.71153 0.0
C920 C 0.53712 0.81203 0.74841 0.0
C921 C 0.54937 0.82458 0.77277 0.0
C922 C 0.53697 0.79239 0.74039 0.0
C923 C 0.55002 0.78556 0.75652 0.0
C924 C 0.56295 0.79853 0.78068 0.0
C925 C 0.56214 0.81772 0.78888 0.0
C926 C 0.52235 0.77865 0.71514 0.0
C927 C 0.57758 0.79212 0.79785 0.0
H928 H 0.52068 0.70879 0.76592 0.0
H929 H 0.57177 0.74268 0.70101 0.0
H930 H 0.52742 0.7549 0.80482 0.0
H931 H 0.50757 0.75061 0.77679 0.0
H932 H 0.50659 0.7269 0.79478 0.0
H933 H 0.59115 0.78179 0.6961 0.0
H934 H 0.57216 0.79241 0.69908 0.0
H935 H 0.5914 0.79726 0.72821 0.0
H936 H 0.52709 0.81724 0.73609 0.0
H937 H 0.57175 0.82754 0.80758 0.0
H938 H 0.51013 0.76165 0.723 0.0
H939 H 0.53262 0.77676 0.6979 0.0
H940 H 0.51307 0.78622 0.70503 0.0
H941 H 0.56711 0.77595 0.80915 0.0
H942 H 0.58783 0.80485 0.8146 0.0
H943 H 0.58886 0.78987 0.78268 0.0
C944 C 0.73867 0.55043 0.79277 0.0
C945 C 0.73152 0.56332 0.77753 0.0
C946 C 0.75842 0.55075 0.78471 0.0
C947 C 0.77164 0.56484 0.76149 0.0
C948 C 0.76498 0.57867 0.74699 0.0
C949 C 0.74478 0.57745 0.75485 0.0
C950 C 0.76468 0.53536 0.80024 0.0
C951 C 0.77897 0.59446 0.72283 0.0
C952 C 0.83133 0.57629 0.75815 0.0
C953 C 0.83 0.56186 0.73561 0.0
C954 C 0.81267 0.57807 0.76607 0.0
C955 C 0.79202 0.5645 0.75177 0.0
C956 C 0.79068 0.55008 0.72873 0.0
C957 C 0.80982 0.5492 0.7206 0.0
C958 C 0.81497 0.59421 0.79002 0.0
C959 C 0.76885 0.53495 0.71343 0.0
H960 H 0.72829 0.53932 0.81009 0.0
H961 H 0.7393 0.58752 0.74315 0.0
H962 H 0.76525 0.52358 0.78415 0.0
H963 H 0.78157 0.54509 0.81001 0.0
H964 H 0.7527 0.52555 0.81796 0.0
H965 H 0.77243 0.60543 0.71553 0.0
H966 H 0.79643 0.60508 0.73044 0.0
H967 H 0.77939 0.58482 0.70359 0.0
H968 H 0.84699 0.58618 0.76967 0.0
H969 H 0.80873 0.53786 0.70337 0.0
H970 H 0.80483 0.58487 0.80936 0.0
H971 H 0.80853 0.60514 0.78225 0.0
H972 H 0.83256 0.60486 0.79721 0.0
H973 H 0.75642 0.52353 0.7297 0.0
H974 H 0.77065 0.52477 0.6959 0.0
H975 H 0.76205 0.54495 0.70347 0.0
C976 C 0.25186 0.8196 0.72293 0.0
C977 C 0.2714 0.82708 0.73945 0.0
C978 C 0.23215 0.80004 0.73088 0.0
C979 C 0.23234 0.7873 0.75519 0.0
C980 C 0.25213 0.79479 0.77179 0.0
C981 C 0.27129 0.81479 0.76402 0.0
C982 C 0.21118 0.79293 0.71321 0.0
C983 C 0.25328 0.78133 0.79721 0.0
C984 C 0.17898 0.74341 0.79225 0.0
C985 C 0.17535 0.72395 0.77793 0.0
C986 C 0.19707 0.76432 0.78438 0.0
C987 C 0.21224 0.76557 0.76249 0.0
C988 C 0.20873 0.74586 0.7483 0.0
C989 C 0.1901 0.72534 0.75584 0.0
C990 C 0.1999 0.78506 0.79934 0.0
C991 C 0.22493 0.74634 0.72562 0.0
H992 H 0.25192 0.82921 0.70405 0.0
H993 H 0.28648 0.82047 0.77665 0.0
H994 H 0.20628 0.77698 0.70177 0.0
H995 H 0.19723 0.78998 0.72805 0.0
H996 H 0.21334 0.80559 0.69653 0.0
H997 H 0.26999 0.78947 0.80779 0.0
H998 H 0.24066 0.77884 0.81408 0.0
H999 H 0.24934 0.76455 0.78938 0.0
H1000 H 0.16742 0.74233 0.80914 0.0
H1001 H 0.18734 0.71024 0.7449 0.0
H1002 H 0.20108 0.79729 0.78262 0.0
H1003 H 0.21566 0.79311 0.81211 0.0
H1004 H 0.18586 0.78139 0.81447 0.0
H1005 H 0.22609 0.75712 0.70686 0.0
H1006 H 0.21997 0.72945 0.71705 0.0
H1007 H 0.24185 0.75362 0.73539 0.0
C1008 C 0.43695 0.25633 0.71991 0.0
C1009 C 0.45251 0.27619 0.73368 0.0
C1010 C 0.43463 0.23576 0.72859 0.0
C1011 C 0.4488 0.23528 0.75075 0.0
C1012 C 0.46472 0.25539 0.76441 0.0
C1013 C 0.4661 0.27555 0.75606 0.0
C1014 C 0.41701 0.21457 0.71416 0.0
C1015 C 0.48066 0.25572 0.78738 0.0
C1016 C 0.43564 0.18228 0.79214 0.0
C1017 C 0.44805 0.17494 0.77614 0.0
C1018 C 0.43499 0.20146 0.78345 0.0
C1019 C 0.44773 0.21393 0.75888 0.0
C1020 C 0.46038 0.20659 0.7428 0.0
C1021 C 0.46007 0.18698 0.75134 0.0
C1022 C 0.42078 0.20841 0.80058 0.0
C1023 C 0.47478 0.2198 0.71711 0.0
H1024 H 0.42629 0.25683 0.7028 0.0
H1025 H 0.47825 0.29096 0.76657 0.0
H1026 H 0.42501 0.20661 0.70182 0.0
H1027 H 0.40618 0.20251 0.73118 0.0
H1028 H 0.40639 0.21766 0.69873 0.0
H1029 H 0.49229 0.27284 0.79552 0.0
H1030 H 0.47123 0.24514 0.80637 0.0
H1031 H 0.49062 0.24864 0.77805 0.0
H1032 H 0.42621 0.17286 0.81119 0.0
H1033 H 0.46984 0.1814 0.73909 0.0
H1034 H 0.40951 0.21073 0.78545 0.0
H1035 H 0.43156 0.22466 0.81154 0.0
H1036 H 0.41053 0.19596 0.81762 0.0
H1037 H 0.46444 0.22168 0.69997 0.0
H1038 H 0.48368 0.21182 0.70701 0.0
H1039 H 0.48733 0.23683 0.72449 0.0
C1040 C 0.16688 0.42183 0.75497 0.0
C1041 C 0.16808 0.43591 0.732 0.0
C1042 C 0.18562 0.42029 0.7632 0.0
C1043 C 0.20623 0.43374 0.74876 0.0
C1044 C 0.20744 0.44778 0.72526 0.0
C1045 C 0.18823 0.44841 0.71684 0.0
C1046 C 0.18346 0.40456 0.78766 0.0
C1047 C 0.22922 0.46277 0.70977 0.0
C1048 C 0.25967 0.44885 0.79025 0.0
C1049 C 0.26698 0.43586 0.77562 0.0
C1050 C 0.23984 0.44825 0.78182 0.0
C1051 C 0.22671 0.43376 0.75886 0.0
C1052 C 0.23354 0.41984 0.74498 0.0
C1053 C 0.25382 0.42136 0.75318 0.0
C1054 C 0.23341 0.46374 0.79668 0.0
C1055 C 0.21963 0.40362 0.72114 0.0
H1056 H 0.15125 0.41206 0.76661 0.0
H1057 H 0.18922 0.45948 0.69928 0.0
H1058 H 0.19006 0.39366 0.78041 0.0
H1059 H 0.19352 0.41424 0.80687 0.0
H1060 H 0.16588 0.39388 0.79487 0.0
H1061 H 0.22731 0.47259 0.69182 0.0
H1062 H 0.24161 0.47453 0.72582 0.0
H1063 H 0.23614 0.45273 0.70033 0.0
H1064 H 0.26998 0.46025 0.80739 0.0
H1065 H 0.25943 0.41122 0.74195 0.0
H1066 H 0.21655 0.45404 0.80652 0.0
H1067 H 0.2327 0.47518 0.78015 0.0
H1068 H 0.24538 0.47391 0.81422 0.0
H1069 H 0.20219 0.393 0.72882 0.0
H1070 H 0.22631 0.39266 0.71436 0.0
H1071 H 0.21912 0.41291 0.70156 0.0
C1072 C 0.82016 0.25442 0.79251 0.0
C1073 C 0.82365 0.27417 0.77922 0.0
C1074 C 0.80193 0.23369 0.78433 0.0
C1075 C 0.78645 0.23293 0.76326 0.0
C1076 C 0.78983 0.25294 0.75014 0.0
C1077 C 0.80862 0.27326 0.75788 0.0
C1078 C 0.79927 0.21264 0.79809 0.0
C1079 C 0.77332 0.25297 0.7284 0.0
C1080 C 0.7459 0.17999 0.72233 0.0
C1081 C 0.72662 0.17232 0.73945 0.0
C1082 C 0.76586 0.19919 0.73055 0.0
C1083 C 0.76618 0.21139 0.75577 0.0
C1084 C 0.74667 0.20367 0.77303 0.0
C1085 C 0.72725 0.18401 0.76494 0.0
C1086 C 0.78654 0.20651 0.71216 0.0
C1087 C 0.74604 0.2166 0.79944 0.0
H1088 H 0.83195 0.25514 0.8088 0.0
H1089 H 0.81127 0.2886 0.74775 0.0
H1090 H 0.78372 0.20437 0.81129 0.0
H1091 H 0.79775 0.20072 0.78065 0.0
H1092 H 0.81354 0.21596 0.81257 0.0
H1093 H 0.77819 0.27004 0.72068 0.0
H1094 H 0.77186 0.2426 0.70901 0.0
H1095 H 0.75655 0.2455 0.73867 0.0
H1096 H 0.74543 0.17084 0.70273 0.0
H1097 H 0.71225 0.17819 0.77804 0.0
H1098 H 0.80071 0.20919 0.72637 0.0
H1099 H 0.79131 0.22264 0.70131 0.0
H1100 H 0.78407 0.1941 0.69491 0.0
H1101 H 0.75894 0.2187 0.81563 0.0
H1102 H 0.72953 0.20827 0.81054 0.0
H1103 H 0.7499 0.23355 0.79253 0.0
C1104 C 0.44395 0.11894 0.07514 0.0
C1105 C 0.46084 0.11631 0.0882 0.0
C1106 C 0.44227 0.11951 0.04433 0.0
C1107 C 0.45828 0.11812 0.02635 0.0
C1108 C 0.47608 0.11676 0.03964 0.0
C1109 C 0.47691 0.11549 0.07036 0.0
C1110 C 0.42273 0.12037 0.03104 0.0
C1111 C 0.49385 0.11586 0.02138 0.0
C1112 C 0.44459 0.09258 0.95005 0.0
C1113 C 0.45437 0.1115 0.93196 0.0
C1114 C 0.44468 0.09457 0.98075 0.0
C1115 C 0.4555 0.11605 0.99377 0.0
C1116 C 0.46503 0.13526 0.97557 0.0
C1117 C 0.46404 0.13274 0.94478 0.0
C1118 C 0.43378 0.07364 0.99926 0.0
C1119 C 0.47722 0.15841 0.98858 0.0
H1120 H 0.43142 0.11941 0.08894 0.0
H1121 H 0.49011 0.11366 0.08046 0.0
H1122 H 0.42853 0.13376 0.01426 0.0
H1123 H 0.41164 0.10435 0.01972 0.0
H1124 H 0.4128 0.12326 0.04787 0.0
H1125 H 0.50787 0.11741 0.03505 0.0
H1126 H 0.48647 0.09978 0.00933 0.0
H1127 H 0.50061 0.12942 1.00476 0.0
H1128 H 0.4369 0.07613 0.94014 0.0
H1129 H 0.47174 0.14739 0.93079 0.0
H1130 H 0.42246 0.07463 0.01572 0.0
H1131 H 0.44673 0.07197 0.01151 0.0
H1132 H 0.42405 0.05838 0.98576 0.0
H1133 H 0.46666 0.16051 1.00516 0.0
H1134 H 0.48224 0.1716 0.97157 0.0
H1135 H 0.49244 0.16088 1.00009 0.0
C1136 C 0.35914 0.47538 0.94008 0.0
C1137 C 0.34217 0.45907 0.92256 0.0
C1138 C 0.35744 0.47462 0.97085 0.0
C1139 C 0.33862 0.45668 0.98451 0.0
C1140 C 0.32112 0.44046 0.96688 0.0
C1141 C 0.32296 0.44204 0.93602 0.0
C1142 C 0.37621 0.49261 0.98875 0.0
C1143 C 0.30104 0.4208 0.98056 0.0
C1144 C 0.35175 0.44356 0.06044 0.0
C1145 C 0.34273 0.4533 0.07882 0.0
C1146 C 0.34941 0.44349 0.02979 0.0
C1147 C 0.33837 0.45404 0.01709 0.0
C1148 C 0.32875 0.46346 0.0356 0.0
C1149 C 0.33077 0.46269 0.06633 0.0
C1150 C 0.35942 0.43272 0.01096 0.0
C1151 C 0.31734 0.47533 0.02294 0.0
H1152 H 0.37393 0.48868 0.92968 0.0
H1153 H 0.30989 0.42932 0.92248 0.0
H1154 H 0.36947 0.49928 1.00557 0.0
H1155 H 0.38523 0.48545 1.00054 0.0
H1156 H 0.38838 0.50665 0.97485 0.0
H1157 H 0.28806 0.41071 0.96399 0.0
H1158 H 0.30634 0.4099 0.99162 0.0
H1159 H 0.29355 0.4265 0.9976 0.0
H1160 H 0.36083 0.43611 0.07007 0.0
H1161 H 0.32392 0.47037 0.08052 0.0
H1162 H 0.37379 0.44575 0.99841 0.0
H1163 H 0.34698 0.42124 0.99475 0.0
H1164 H 0.36532 0.42321 0.02425 0.0
H1165 H 0.32981 0.49062 0.01128 0.0
H1166 H 0.30921 0.4802 0.04018 0.0
H1167 H 0.30458 0.46461 0.00656 0.0
C1168 C 0.86774 0.33084 0.94356 0.0
C1169 C 0.88902 0.34212 0.93083 0.0
C1170 C 0.86513 0.32923 0.97433 0.0
C1171 C 0.88429 0.33856 0.99263 0.0
C1172 C 0.90578 0.34885 0.9797 0.0
C1173 C 0.90788 0.35082 0.949 0.0
C1174 C 0.84196 0.31863 0.98723 0.0
C1175 C 0.92664 0.35849 0.99831 0.0
C1176 C 0.88485 0.36074 0.06911 0.0
C1177 C 0.8836 0.34369 0.08706 0.0
C1178 C 0.88378 0.35866 0.03838 0.0
C1179 C 0.88214 0.33935 0.02519 0.0
C1180 C 0.8803 0.3218 0.04326 0.0
C1181 C 0.88072 0.32405 0.07406 0.0
C1182 C 0.88517 0.37751 0.02001 0.0
C1183 C 0.87911 0.3012 0.03009 0.0
H1184 H 0.85314 0.32425 0.92952 0.0
H1185 H 0.92437 0.35939 0.93918 0.0
H1186 H 0.83961 0.30597 1.00395 0.0
H1187 H 0.8397 0.33158 0.99853 0.0
H1188 H 0.8288 0.31055 0.97017 0.0
H1189 H 0.94188 0.3637 0.9849 0.0
H1190 H 0.92861 0.37327 0.01048 0.0
H1191 H 0.92533 0.34609 0.01485 0.0
H1192 H 0.88688 0.37587 0.07914 0.0
H1193 H 0.87993 0.31092 0.08793 0.0
H1194 H 0.87167 0.37094 1.00331 0.0
H1195 H 0.9013 0.38591 0.00805 0.0
H1196 H 0.88389 0.39018 0.03359 0.0
H1197 H 0.86579 0.29382 0.01319 0.0
H1198 H 0.87591 0.28832 0.04696 0.0
H1199 H 0.89512 0.30585 0.01893 0.0
C1200 C 0.55587 0.88112 0.07003 0.0
C1201 C 0.53925 0.8839 0.08364 0.0
C1202 C 0.55722 0.88067 0.03916 0.0
C1203 C 0.54115 0.88233 0.02166 0.0
C1204 C 0.52365 0.88393 0.03549 0.0
C1205 C 0.52315 0.88508 0.06626 0.0
C1206 C 0.57647 0.87958 0.0253 0.0
C1207 C 0.5058 0.8851 0.01776 0.0
C1208 C 0.55417 0.90756 0.94511 0.0
C1209 C 0.54407 0.88857 0.92716 0.0
C1210 C 0.55435 0.90568 0.97582 0.0
C1211 C 0.54347 0.88427 0.98901 0.0
C1212 C 0.53356 0.86499 0.97093 0.0
C1213 C 0.53429 0.86738 0.94013 0.0
C1214 C 0.56567 0.92668 0.99416 0.0
C1215 C 0.52128 0.84189 0.98413 0.0
H1216 H 0.56842 0.88037 0.08346 0.0
H1217 H 0.51015 0.88702 0.07678 0.0
H1218 H 0.57031 0.86605 0.00869 0.0
H1219 H 0.58743 0.89549 0.01366 0.0
H1220 H 0.58663 0.87675 0.04182 0.0
H1221 H 0.49207 0.88381 0.03181 0.0
H1222 H 0.51323 0.90116 1.00565 0.0
H1223 H 0.49864 0.8715 1.0012 0.0
H1224 H 0.56193 0.92398 0.93509 0.0
H1225 H 0.52634 0.85268 0.92625 0.0
H1226 H 0.57713 0.92562 0.01032 0.0
H1227 H 0.55297 0.92855 0.00676 0.0
H1228 H 0.57533 0.94187 0.9805 0.0
H1229 H 0.532 0.83965 1.0003 0.0
H1230 H 0.51576 0.82861 0.96717 0.0
H1231 H 0.50637 0.83973 0.99617 0.0
C1232 C 0.66711 0.53477 0.06671 0.0
C1233 C 0.6555 0.54437 0.07962 0.0
C1234 C 0.66906 0.5343 0.03594 0.0
C1235 C 0.65974 0.54425 0.01783 0.0
C1236 C 0.64907 0.55501 0.03097 0.0
C1237 C 0.64677 0.55462 0.06165 0.0
C1238 C 0.68005 0.52217 0.02278 0.0
C1239 C 0.63942 0.56633 0.01259 0.0
C1240 C 0.67526 0.55687 0.93687 0.0
C1241 C 0.6559 0.54022 0.92322 0.0
C1242 C 0.6771 0.55812 0.96773 0.0
C1243 C 0.65942 0.54195 0.98519 0.0
C1244 C 0.6404 0.52439 0.97133 0.0
C1245 C 0.63873 0.52396 0.94056 0.0
C1246 C 0.69738 0.57741 0.98164 0.0
C1247 C 0.62143 0.50645 0.98902 0.0
H1248 H 0.67373 0.5267 0.08059 0.0
H1249 H 0.63795 0.56223 0.07162 0.0
H1250 H 0.66738 0.50715 0.01087 0.0
H1251 H 0.69292 0.53292 0.00653 0.0
H1252 H 0.68797 0.51684 0.03977 0.0
H1253 H 0.63382 0.57595 0.02623 0.0
H1254 H 0.65196 0.57784 0.9965 0.0
H1255 H 0.6249 0.55364 0.99992 0.0
H1256 H 0.68849 0.56955 0.92347 0.0
H1257 H 0.62382 0.51095 0.93002 0.0
H1258 H 0.7047 0.57128 0.9984 0.0
H1259 H 0.69239 0.5884 0.99311 0.0
H1260 H 0.71042 0.58752 0.96517 0.0
H1261 H 0.62793 0.49934 1.00557 0.0
H1262 H 0.60906 0.49269 0.97493 0.0
H1263 H 0.61271 0.51378 1.00112 0.0
C1264 C 0.13029 0.66639 0.94277 0.0
C1265 C 0.10932 0.65542 0.92918 0.0
C1266 C 0.13216 0.66811 0.97362 0.0
C1267 C 0.11258 0.65925 0.99107 0.0
C1268 C 0.09142 0.64928 0.9772 0.0
C1269 C 0.09005 0.64715 0.94649 0.0
C1270 C 0.15497 0.67829 0.98754 0.0
C1271 C 0.07015 0.64018 0.99486 0.0
C1272 C 0.10988 0.63722 0.06825 0.0
C1273 C 0.11145 0.65465 0.08568 0.0
C1274 C 0.11145 0.63906 0.03752 0.0
C1275 C 0.11388 0.65852 0.02376 0.0
C1276 C 0.11589 0.67638 0.04131 0.0
C1277 C 0.11501 0.67436 0.07216 0.0
C1278 C 0.10987 0.61987 0.01975 0.0
C1279 C 0.11787 0.69713 0.02748 0.0
H1280 H 0.1452 0.67265 0.92939 0.0
H1281 H 0.07381 0.63882 0.93596 0.0
H1282 H 0.15725 0.69118 1.00385 0.0
H1283 H 0.15655 0.66517 0.99955 0.0
H1284 H 0.16858 0.68597 0.97101 0.0
H1285 H 0.05532 0.63531 0.9807 0.0
H1286 H 0.06745 0.62528 0.0074 0.0
H1287 H 0.07141 0.65277 0.01104 0.0
H1288 H 0.10734 0.62203 0.07872 0.0
H1289 H 0.11607 0.68779 0.08564 0.0
H1290 H 0.12375 0.62604 1.00363 0.0
H1291 H 0.09403 0.61182 0.00713 0.0
H1292 H 0.1104 0.60701 0.03383 0.0
H1293 H 0.13169 0.70429 0.01127 0.0
H1294 H 0.12081 0.7101 0.04409 0.0
H1295 H 0.10227 0.69274 0.01538 0.0
C1296 C 0.87837 0.55543 0.57593 0.0
C1297 C 0.88092 0.53854 0.58915 0.0
C1298 C 0.87783 0.55703 0.5451 0.0
C1299 C 0.87923 0.54096 0.52727 0.0
C1300 C 0.88046 0.52313 0.5407 0.0
C1301 C 0.88165 0.52235 0.57143 0.0
C1302 C 0.87705 0.57657 0.53166 0.0
C1303 C 0.88138 0.50531 0.52258 0.0
C1304 C 0.86508 0.53497 0.44554 0.0
C1305 C 0.88639 0.54457 0.43295 0.0
C1306 C 0.86238 0.53415 0.47629 0.0
C1307 C 0.88148 0.54372 0.49469 0.0
C1308 C 0.90303 0.5545 0.48189 0.0
C1309 C 0.9052 0.55447 0.45122 0.0
C1310 C 0.83915 0.52203 0.48908 0.0
C1311 C 0.92385 0.56543 0.5006 0.0
H1312 H 0.87796 0.56806 0.58962 0.0
H1313 H 0.88343 0.50916 0.58165 0.0
H1314 H 0.89317 0.5877 0.52059 0.0
H1315 H 0.86382 0.57078 0.51466 0.0
H1316 H 0.87399 0.58646 0.54837 0.0
H1317 H 0.87973 0.49128 0.53634 0.0
H1318 H 0.8679 0.49856 0.50586 0.0
H1319 H 0.89751 0.51264 0.51067 0.0
H1320 H 0.85051 0.52717 0.43143 0.0
H1321 H 0.92171 0.56209 0.4415 0.0
H1322 H 0.83704 0.53259 0.50566 0.0
H1323 H 0.83652 0.50673 0.50054 0.0
H1324 H 0.82608 0.51714 0.47194 0.0
H1325 H 0.92277 0.57677 0.51694 0.0
H1326 H 0.93919 0.57514 0.48724 0.0
H1327 H 0.92544 0.55249 0.513 0.0
C1328 C 0.33045 0.869 0.57234 0.0
C1329 C 0.34113 0.89022 0.58527 0.0
C1330 C 0.3292 0.86658 0.54154 0.0
C1331 C 0.33818 0.88583 0.52343 0.0
C1332 C 0.34784 0.90723 0.53657 0.0
C1333 C 0.34956 0.90917 0.56729 0.0
C1334 C 0.31936 0.84352 0.52842 0.0
C1335 C 0.35704 0.92817 0.51817 0.0
C1336 C 0.36141 0.88736 0.44737 0.0
C1337 C 0.34416 0.88525 0.4291 0.0
C1338 C 0.35913 0.88634 0.47806 0.0
C1339 C 0.3394 0.88395 0.49088 0.0
C1340 C 0.32173 0.88145 0.47249 0.0
C1341 C 0.32419 0.88175 0.44172 0.0
C1342 C 0.37812 0.88842 0.49677 0.0
C1343 C 0.30072 0.87953 0.48528 0.0
H1344 H 0.32408 0.85435 0.58627 0.0
H1345 H 0.35764 0.92559 0.57731 0.0
H1346 H 0.30666 0.84084 0.51159 0.0
H1347 H 0.33271 0.84187 0.5172 0.0
H1348 H 0.31154 0.83021 0.54533 0.0
H1349 H 0.36158 0.94321 0.53171 0.0
H1350 H 0.37217 0.93078 0.5063 0.0
H1351 H 0.34465 0.9265 0.50139 0.0
H1352 H 0.37679 0.88983 0.4376 0.0
H1353 H 0.3109 0.88026 0.42756 0.0
H1354 H 0.37182 0.87485 0.51336 0.0
H1355 H 0.38589 0.90449 0.50888 0.0
H1356 H 0.39124 0.88776 0.48344 0.0
H1357 H 0.29339 0.86598 0.50187 0.0
H1358 H 0.28797 0.8762 0.46814 0.0
H1359 H 0.30482 0.8953 0.49672 0.0
C1360 C 0.46358 0.33144 0.56729 0.0
C1361 C 0.45374 0.34283 0.58016 0.0
C1362 C 0.4641 0.32949 0.53651 0.0
C1363 C 0.45396 0.33859 0.51837 0.0
C1364 C 0.44293 0.34901 0.53148 0.0
C1365 C 0.44328 0.35133 0.56216 0.0
C1366 C 0.4765 0.31877 0.52341 0.0
C1367 C 0.43139 0.35841 0.51306 0.0
C1368 C 0.47436 0.35985 0.44121 0.0
C1369 C 0.45834 0.34255 0.42377 0.0
C1370 C 0.4738 0.35816 0.47198 0.0
C1371 C 0.45636 0.339 0.48574 0.0
C1372 C 0.44041 0.32122 0.4682 0.0
C1373 C 0.44179 0.32308 0.43733 0.0
C1374 C 0.49151 0.37725 0.48977 0.0
C1375 C 0.42124 0.30078 0.482 0.0
H1376 H 0.47181 0.325 0.58119 0.0
H1377 H 0.43549 0.35998 0.5721 0.0
H1378 H 0.46591 0.30588 0.50709 0.0
H1379 H 0.49148 0.33159 0.51158 0.0
H1380 H 0.48193 0.31095 0.54041 0.0
H1381 H 0.42155 0.36376 0.52667 0.0
H1382 H 0.44397 0.37306 0.50047 0.0
H1383 H 0.42005 0.34581 0.4969 0.0
H1384 H 0.48729 0.37485 0.43074 0.0
H1385 H 0.42929 0.30976 0.42387 0.0
H1386 H 0.49874 0.3709 0.50635 0.0
H1387 H 0.48392 0.38575 0.50185 0.0
H1388 H 0.50521 0.38978 0.47576 0.0
H1389 H 0.42746 0.29357 0.49877 0.0
H1390 H 0.41128 0.28772 0.46546 0.0
H1391 H 0.41008 0.30556 0.49343 0.0
C1392 C 0.11413 0.47492 0.56744 0.0
C1393 C 0.11518 0.45879 0.58493 0.0
C1394 C 0.1154 0.47439 0.53668 0.0
C1395 C 0.11702 0.45687 0.52297 0.0
C1396 C 0.11862 0.44081 0.54058 0.0
C1397 C 0.11802 0.44216 0.57143 0.0
C1398 C 0.11427 0.49222 0.51883 0.0
C1399 C 0.11976 0.42155 0.52684 0.0
C1400 C 0.09191 0.44381 0.44636 0.0
C1401 C 0.11092 0.45401 0.42846 0.0
C1402 C 0.09374 0.44359 0.47707 0.0
C1403 C 0.11513 0.45448 0.49032 0.0
C1404 C 0.13444 0.46443 0.4723 0.0
C1405 C 0.13209 0.46377 0.44149 0.0
C1406 C 0.07272 0.43224 0.49536 0.0
C1407 C 0.15751 0.47672 0.48556 0.0
H1408 H 0.11214 0.48792 0.57786 0.0
H1409 H 0.11866 0.42958 0.58494 0.0
H1410 H 0.1279 0.49935 0.50233 0.0
H1411 H 0.09824 0.48477 0.50666 0.0
H1412 H 0.11553 0.50597 0.53281 0.0
H1413 H 0.12267 0.41148 0.54343 0.0
H1414 H 0.10385 0.4105 0.51526 0.0
H1415 H 0.13327 0.42769 0.5102 0.0
H1416 H 0.07551 0.43607 0.43629 0.0
H1417 H 0.14681 0.47181 0.42767 0.0
H1418 H 0.07079 0.44493 0.50789 0.0
H1419 H 0.07378 0.42081 0.51157 0.0
H1420 H 0.05757 0.42254 0.48166 0.0
H1421 H 0.1597 0.4917 0.49742 0.0
H1422 H 0.17081 0.48213 0.46864 0.0
H1423 H 0.15969 0.46605 0.50188 0.0
C1424 C 0.64957 0.09137 0.44652 0.0
C1425 C 0.65848 0.11036 0.42858 0.0
C1426 C 0.65127 0.09326 0.47725 0.0
C1427 C 0.6614 0.11467 0.49043 0.0
C1428 C 0.67087 0.13395 0.47236 0.0
C1429 C 0.66961 0.13156 0.44155 0.0
C1430 C 0.64154 0.07227 0.49561 0.0
C1431 C 0.68123 0.15703 0.48552 0.0
C1432 C 0.63842 0.11338 0.56659 0.0
C1433 C 0.65542 0.11479 0.58477 0.0
C1434 C 0.64078 0.11466 0.5359 0.0
C1435 C 0.66029 0.11657 0.52299 0.0
C1436 C 0.67775 0.11847 0.54131 0.0
C1437 C 0.67524 0.11793 0.57209 0.0
C1438 C 0.62203 0.11324 0.51727 0.0
C1439 C 0.69851 0.11987 0.52844 0.0
H1440 H 0.64112 0.07496 0.43647 0.0
H1441 H 0.67634 0.14625 0.42765 0.0
H1442 H 0.65379 0.07355 0.51237 0.0
H1443 H 0.62658 0.07009 0.5075 0.0
H1444 H 0.63659 0.05714 0.48203 0.0
H1445 H 0.68937 0.17032 0.46863 0.0
H1446 H 0.66813 0.15911 0.4967 0.0
H1447 H 0.69379 0.15935 0.50238 0.0
H1448 H 0.62316 0.11115 0.57642 0.0
H1449 H 0.68832 0.11884 0.58617 0.0
H1450 H 0.61381 0.09717 0.50516 0.0
H1451 H 0.62868 0.12683 0.50069 0.0
H1452 H 0.60921 0.11437 0.53068 0.0
H1453 H 0.69404 0.10397 0.51708 0.0
H1454 H 0.71123 0.12298 0.54552 0.0
H1455 H 0.70603 0.13335 0.51177 0.0
C1456 C 0.55617 0.67491 0.43673 0.0
C1457 C 0.53964 0.65529 0.42343 0.0
C1458 C 0.55765 0.67703 0.46756 0.0
C1459 C 0.54181 0.65935 0.48534 0.0
C1460 C 0.52436 0.64005 0.47184 0.0
C1461 C 0.52371 0.63812 0.4411 0.0
C1462 C 0.5768 0.69762 0.48109 0.0
C1463 C 0.50678 0.62105 0.48988 0.0
C1464 C 0.55538 0.64766 0.56183 0.0
C1465 C 0.54493 0.65618 0.57978 0.0
C1466 C 0.55556 0.64976 0.53113 0.0
C1467 C 0.54438 0.66 0.51796 0.0
C1468 C 0.53425 0.66913 0.53604 0.0
C1469 C 0.53493 0.6674 0.56683 0.0
C1470 C 0.5671 0.64032 0.51277 0.0
C1471 C 0.52169 0.67967 0.52287 0.0
H1472 H 0.5686 0.68815 0.42309 0.0
H1473 H 0.51079 0.623 0.43083 0.0
H1474 H 0.5706 0.70487 0.49783 0.0
H1475 H 0.58811 0.69302 0.4925 0.0
H1476 H 0.58661 0.7106 0.46439 0.0
H1477 H 0.49304 0.6084 0.47605 0.0
H1478 H 0.51447 0.61269 0.50203 0.0
H1479 H 0.49959 0.62748 0.50641 0.0
H1480 H 0.5633 0.63915 0.57183 0.0
H1481 H 0.5267 0.67386 0.5807 0.0
H1482 H 0.57832 0.65284 0.49645 0.0
H1483 H 0.55449 0.62557 0.50035 0.0
H1484 H 0.57705 0.63512 0.5264 0.0
H1485 H 0.53214 0.69245 0.50636 0.0
H1486 H 0.51631 0.68757 0.53981 0.0
H1487 H 0.50666 0.66671 0.51126 0.0
C1488 C 0.52773 0.14311 0.25474 0.0
C1489 C 0.51874 0.13019 0.2293 0.0
C1490 C 0.54702 0.14513 0.26799 0.0
C1491 C 0.55715 0.13349 0.2559 0.0
C1492 C 0.54846 0.12092 0.22978 0.0
C1493 C 0.52954 0.11965 0.21663 0.0
C1494 C 0.55617 0.15918 0.29535 0.0
C1495 C 0.55854 0.10796 0.21644 0.0
C1496 C 0.61551 0.14537 0.2749 0.0
C1497 C 0.61095 0.12841 0.29533 0.0
C1498 C 0.59825 0.14809 0.26311 0.0
C1499 C 0.5759 0.13312 0.27137 0.0
C1500 C 0.5713 0.11644 0.2927 0.0
C1501 C 0.58892 0.11446 0.30467 0.0
C1502 C 0.60386 0.16645 0.24103 0.0
C1503 C 0.54767 0.09989 0.30171 0.0
H1504 H 0.51954 0.15142 0.26452 0.0
H1505 H 0.52263 0.10953 0.19707 0.0
H1506 H 0.55371 0.14825 0.31451 0.0
H1507 H 0.57439 0.17075 0.29306 0.0
H1508 H 0.54791 0.16908 0.30007 0.0
H1509 H 0.55017 0.09951 0.19563 0.0
H1510 H 0.57653 0.11922 0.21191 0.0
H1511 H 0.5572 0.09512 0.23225 0.0
H1512 H 0.63255 0.15633 0.26782 0.0
H1513 H 0.58528 0.10126 0.32035 0.0
H1514 H 0.59524 0.17583 0.24676 0.0
H1515 H 0.59794 0.15909 0.21891 0.0
H1516 H 0.6221 0.17835 0.23979 0.0
H1517 H 0.5389 0.10875 0.30914 0.0
H1518 H 0.547 0.08867 0.31964 0.0
H1519 H 0.53837 0.0895 0.28248 0.0
C1520 C 0.47861 0.61801 0.25135 0.0
C1521 C 0.48579 0.61357 0.27807 0.0
C1522 C 0.45981 0.60126 0.23665 0.0
C1523 C 0.44826 0.57947 0.24865 0.0
C1524 C 0.45514 0.57504 0.27593 0.0
C1525 C 0.47367 0.59219 0.29044 0.0
C1526 C 0.45261 0.60673 0.20798 0.0
C1527 C 0.44346 0.55196 0.28931 0.0
C1528 C 0.38976 0.53525 0.22637 0.0
C1529 C 0.39413 0.52184 0.2075 0.0
C1530 C 0.40723 0.55487 0.23857 0.0
C1531 C 0.42959 0.56091 0.23227 0.0
C1532 C 0.43407 0.54795 0.21226 0.0
C1533 C 0.41627 0.52869 0.19986 0.0
C1534 C 0.40177 0.56855 0.25923 0.0
C1535 C 0.45769 0.55366 0.20528 0.0
H1536 H 0.48783 0.63454 0.24176 0.0
H1537 H 0.47917 0.58858 0.31099 0.0
H1538 H 0.45514 0.59759 0.18973 0.0
H1539 H 0.43455 0.60122 0.20867 0.0
H1540 H 0.46209 0.62487 0.20296 0.0
H1541 H 0.45066 0.55138 0.31091 0.0
H1542 H 0.42547 0.54614 0.29238 0.0
H1543 H 0.4447 0.54002 0.27419 0.0
H1544 H 0.37267 0.53015 0.23214 0.0
H1545 H 0.41976 0.51835 0.18539 0.0
H1546 H 0.41159 0.58651 0.25345 0.0
H1547 H 0.40635 0.56673 0.28203 0.0
H1548 H 0.38374 0.56329 0.25883 0.0
H1549 H 0.4677 0.5713 0.19812 0.0
H1550 H 0.45836 0.54279 0.1878 0.0
H1551 H 0.46568 0.55176 0.22539 0.0
C1552 C 0.85265 0.46358 0.2839 0.0
C1553 C 0.87013 0.47685 0.30324 0.0
C1554 C 0.85075 0.44409 0.27159 0.0
C1555 C 0.86701 0.43805 0.27825 0.0
C1556 C 0.88416 0.45087 0.2987 0.0
C1557 C 0.88536 0.46999 0.31121 0.0
C1558 C 0.8319 0.43054 0.25046 0.0
C1559 C 0.90201 0.44517 0.30606 0.0
C1560 C 0.85929 0.38111 0.25889 0.0
C1561 C 0.8712 0.38574 0.23239 0.0
C1562 C 0.85705 0.39776 0.2736 0.0
C1563 C 0.8674 0.41963 0.26185 0.0
C1564 C 0.87904 0.42426 0.23482 0.0
C1565 C 0.88059 0.40721 0.22028 0.0
C1566 C 0.84403 0.39207 0.30199 0.0
C1567 C 0.89058 0.44744 0.22173 0.0
H1568 H 0.84071 0.4687 0.27788 0.0
H1569 H 0.89896 0.48023 0.32603 0.0
H1570 H 0.83862 0.43253 0.22782 0.0
H1571 H 0.82373 0.41254 0.25604 0.0
H1572 H 0.81911 0.43577 0.25057 0.0
H1573 H 0.91331 0.45592 0.32381 0.0
H1574 H 0.89435 0.42748 0.31302 0.0
H1575 H 0.91217 0.44724 0.28616 0.0
H1576 H 0.85187 0.36451 0.26827 0.0
H1577 H 0.88994 0.41097 0.19991 0.0
H1578 H 0.83142 0.3975 0.30101 0.0
H1579 H 0.85544 0.40115 0.32049 0.0
H1580 H 0.83539 0.3739 0.30684 0.0
H1581 H 0.87842 0.45325 0.21836 0.0
H1582 H 0.89868 0.44819 0.20034 0.0
H1583 H 0.90351 0.45928 0.23718 0.0
C1584 C 0.47318 0.85247 0.25039 0.0
C1585 C 0.48215 0.86674 0.22608 0.0
C1586 C 0.45372 0.84945 0.26431 0.0
C1587 C 0.44338 0.86143 0.25412 0.0
C1588 C 0.45206 0.87539 0.22912 0.0
C1589 C 0.47116 0.87765 0.21521 0.0
C1590 C 0.44459 0.83394 0.29039 0.0
C1591 C 0.44177 0.88876 0.21784 0.0
C1592 C 0.38485 0.84838 0.27442 0.0
C1593 C 0.38929 0.86443 0.29621 0.0
C1594 C 0.40219 0.84618 0.26178 0.0
C1595 C 0.42449 0.86077 0.27062 0.0
C1596 C 0.42893 0.87634 0.2935 0.0
C1597 C 0.41125 0.87779 0.30625 0.0
C1598 C 0.39673 0.82895 0.23805 0.0
C1599 C 0.45251 0.89246 0.30325 0.0
H1600 H 0.48151 0.84385 0.25874 0.0
H1601 H 0.47806 0.88879 0.19653 0.0
H1602 H 0.44693 0.84378 0.31068 0.0
H1603 H 0.4264 0.8224 0.28773 0.0
H1604 H 0.45297 0.82395 0.29343 0.0
H1605 H 0.45016 0.89835 0.19766 0.0
H1606 H 0.42383 0.87756 0.2129 0.0
H1607 H 0.44285 0.90065 0.23504 0.0
H1608 H 0.36789 0.83787 0.26675 0.0
H1609 H 0.41483 0.8903 0.32299 0.0
H1610 H 0.40566 0.81961 0.24207 0.0
H1611 H 0.40238 0.83737 0.21643 0.0
H1612 H 0.37854 0.81688 0.2367 0.0
H1613 H 0.46136 0.88333 0.30901 0.0
H1614 H 0.45303 0.90257 0.32253 0.0
H1615 H 0.46181 0.90396 0.28489 0.0
C1616 C 0.60844 0.46162 0.22688 0.0
C1617 C 0.60416 0.47508 0.20798 0.0
C1618 C 0.59091 0.44202 0.23902 0.0
C1619 C 0.56858 0.43602 0.23261 0.0
C1620 C 0.56419 0.44903 0.21255 0.0
C1621 C 0.58205 0.46828 0.20023 0.0
C1622 C 0.59629 0.4283 0.25974 0.0
C1623 C 0.54061 0.44337 0.20546 0.0
C1624 C 0.51947 0.37897 0.25165 0.0
C1625 C 0.51227 0.38343 0.27833 0.0
C1626 C 0.5383 0.3957 0.23696 0.0
C1627 C 0.54985 0.41749 0.24895 0.0
C1628 C 0.54294 0.42195 0.27619 0.0
C1629 C 0.52439 0.40482 0.29067 0.0
C1630 C 0.54552 0.3902 0.20834 0.0
C1631 C 0.55464 0.44504 0.28954 0.0
H1632 H 0.62551 0.46669 0.23274 0.0
H1633 H 0.57862 0.47865 0.18574 0.0
H1634 H 0.59167 0.43013 0.28251 0.0
H1635 H 0.58643 0.41033 0.25395 0.0
H1636 H 0.6143 0.43351 0.25941 0.0
H1637 H 0.54 0.45424 0.18792 0.0
H1638 H 0.53057 0.42573 0.19832 0.0
H1639 H 0.53259 0.44532 0.22551 0.0
H1640 H 0.51025 0.36243 0.24208 0.0
H1641 H 0.51888 0.40846 0.31119 0.0
H1642 H 0.56356 0.39566 0.2091 0.0
H1643 H 0.54306 0.39937 0.19006 0.0
H1644 H 0.53599 0.37207 0.20331 0.0
H1645 H 0.57261 0.45082 0.29269 0.0
H1646 H 0.5474 0.44564 0.3111 0.0
H1647 H 0.55346 0.45698 0.27438 0.0
C1648 C 0.14004 0.61708 0.25233 0.0
C1649 C 0.12703 0.61245 0.22682 0.0
C1650 C 0.1423 0.60029 0.26654 0.0
C1651 C 0.13095 0.57828 0.25526 0.0
C1652 C 0.11833 0.57366 0.22904 0.0
C1653 C 0.1167 0.59084 0.215 0.0
C1654 C 0.1563 0.60595 0.29407 0.0
C1655 C 0.1058 0.55035 0.21645 0.0
C1656 C 0.14507 0.53376 0.27676 0.0
C1657 C 0.1282 0.52119 0.29722 0.0
C1658 C 0.14691 0.55309 0.26401 0.0
C1659 C 0.13124 0.55975 0.27149 0.0
C1660 C 0.11473 0.54764 0.293 0.0
C1661 C 0.11355 0.52861 0.30582 0.0
C1662 C 0.16506 0.56586 0.24167 0.0
C1663 C 0.09757 0.55407 0.30135 0.0
H1664 H 0.1482 0.63378 0.26149 0.0
H1665 H 0.10653 0.58708 0.19538 0.0
H1666 H 0.14543 0.59746 0.31325 0.0
H1667 H 0.16836 0.59986 0.29226 0.0
H1668 H 0.16568 0.62419 0.29844 0.0
H1669 H 0.09728 0.54967 0.19544 0.0
H1670 H 0.11739 0.54391 0.21251 0.0
H1671 H 0.09308 0.53897 0.23246 0.0
H1672 H 0.15658 0.52822 0.2702 0.0
H1673 H 0.10041 0.51894 0.32151 0.0
H1674 H 0.17396 0.58396 0.24682 0.0
H1675 H 0.15753 0.56377 0.21953 0.0
H1676 H 0.1774 0.56006 0.24081 0.0
H1677 H 0.10588 0.57186 0.30801 0.0
H1678 H 0.08665 0.54371 0.31963 0.0
H1679 H 0.08693 0.55209 0.28202 0.0
C1680 C 0.47189 0.88729 0.80196 0.0
C1681 C 0.48046 0.874 0.79154 0.0
C1682 C 0.45319 0.88654 0.78872 0.0
C1683 C 0.44261 0.87189 0.76477 0.0
C1684 C 0.45054 0.85768 0.75504 0.0
C1685 C 0.46947 0.85902 0.7684 0.0
C1686 C 0.44531 0.90207 0.79959 0.0
C1687 C 0.43944 0.84154 0.72996 0.0
C1688 C 0.38447 0.86068 0.74557 0.0
C1689 C 0.38888 0.87554 0.72214 0.0
C1690 C 0.40168 0.85873 0.75902 0.0
C1691 C 0.42389 0.87222 0.74912 0.0
C1692 C 0.42838 0.88679 0.72495 0.0
C1693 C 0.41079 0.88815 0.7116 0.0
C1694 C 0.39617 0.84269 0.78435 0.0
C1695 C 0.45188 0.90158 0.71388 0.0
H1696 H 0.48033 0.89898 0.81973 0.0
H1697 H 0.4759 0.84858 0.76034 0.0
H1698 H 0.44714 0.91387 0.78183 0.0
H1699 H 0.42736 0.89245 0.80543 0.0
H1700 H 0.45483 0.91185 0.81912 0.0
H1701 H 0.44651 0.83038 0.72665 0.0
H1702 H 0.42126 0.83111 0.73406 0.0
H1703 H 0.44155 0.85093 0.70931 0.0
H1704 H 0.36755 0.85075 0.75371 0.0
H1705 H 0.41436 0.89974 0.69361 0.0
H1706 H 0.40384 0.85214 0.80485 0.0
H1707 H 0.40326 0.83165 0.78038 0.0
H1708 H 0.3779 0.83215 0.78787 0.0
H1709 H 0.46221 0.91331 0.73151 0.0
H1710 H 0.45247 0.91144 0.69426 0.0
H1711 H 0.45959 0.89136 0.70812 0.0
C1712 C 0.61963 0.48007 0.7505 0.0
C1713 C 0.61518 0.48703 0.7774 0.0
C1714 C 0.60297 0.46119 0.73581 0.0
C1715 C 0.58126 0.44934 0.748 0.0
C1716 C 0.57684 0.45601 0.77544 0.0
C1717 C 0.5939 0.47462 0.78992 0.0
C1718 C 0.60845 0.45423 0.70696 0.0
C1719 C 0.55383 0.444 0.78902 0.0
C1720 C 0.5302 0.4169 0.69985 0.0
C1721 C 0.52364 0.39482 0.70744 0.0
C1722 C 0.54949 0.43484 0.71198 0.0
C1723 C 0.56277 0.43056 0.73168 0.0
C1724 C 0.55703 0.40826 0.73786 0.0
C1725 C 0.53739 0.39065 0.72593 0.0
C1726 C 0.55485 0.45838 0.70515 0.0
C1727 C 0.57106 0.40301 0.75817 0.0
H1728 H 0.63609 0.48951 0.74078 0.0
H1729 H 0.59027 0.47994 0.8106 0.0
H1730 H 0.6032 0.43623 0.7075 0.0
H1731 H 0.59909 0.45664 0.68888 0.0
H1732 H 0.62655 0.46395 0.70178 0.0
H1733 H 0.55324 0.4511 0.8107 0.0
H1734 H 0.54169 0.44504 0.77409 0.0
H1735 H 0.5483 0.42606 0.79199 0.0
H1736 H 0.51961 0.42025 0.68567 0.0
H1737 H 0.53251 0.3736 0.73166 0.0
H1738 H 0.57244 0.46861 0.69787 0.0
H1739 H 0.5529 0.46624 0.72536 0.0
H1740 H 0.54382 0.45892 0.6878 0.0
H1741 H 0.58897 0.41309 0.75221 0.0
H1742 H 0.56607 0.38505 0.75756 0.0
H1743 H 0.56929 0.40742 0.78107 0.0
C1744 C 0.14656 0.60915 0.78174 0.0
C1745 C 0.12889 0.60485 0.80078 0.0
C1746 C 0.14866 0.59164 0.76956 0.0
C1747 C 0.1324 0.56929 0.77606 0.0
C1748 C 0.1151 0.56488 0.79628 0.0
C1749 C 0.11369 0.58273 0.80864 0.0
C1750 C 0.16767 0.59703 0.7487 0.0
C1751 C 0.09725 0.54129 0.80348 0.0
C1752 C 0.11909 0.52498 0.71803 0.0
C1753 C 0.12837 0.51284 0.73027 0.0
C1754 C 0.12064 0.5436 0.73251 0.0
C1755 C 0.13216 0.55056 0.75965 0.0
C1756 C 0.14243 0.53899 0.77151 0.0
C1757 C 0.1402 0.52009 0.75683 0.0
C1758 C 0.10919 0.55529 0.7193 0.0
C1759 C 0.15531 0.54626 0.8 0.0
H1760 H 0.15849 0.62623 0.7758 0.0
H1761 H 0.09994 0.57927 0.82324 0.0
H1762 H 0.17581 0.58718 0.75435 0.0
H1763 H 0.16113 0.59244 0.72596 0.0
H1764 H 0.18045 0.61505 0.74902 0.0
H1765 H 0.08585 0.54067 0.82112 0.0
H1766 H 0.08721 0.53323 0.78349 0.0
H1767 H 0.10493 0.53129 0.81051 0.0
H1768 H 0.10981 0.51943 0.6976 0.0
H1769 H 0.14753 0.51086 0.76633 0.0
H1770 H 0.12136 0.57327 0.7161 0.0
H1771 H 0.09614 0.55413 0.73458 0.0
H1772 H 0.10125 0.54804 0.69779 0.0
H1773 H 0.16785 0.56432 0.79919 0.0
H1774 H 0.164 0.53678 0.80486 0.0
H1775 H 0.14378 0.54376 0.81842 0.0
C1776 C 0.58822 0.11701 0.71357 0.0
C1777 C 0.60997 0.12849 0.72491 0.0
C1778 C 0.57067 0.118 0.7276 0.0
C1779 C 0.57506 0.13115 0.75327 0.0
C1780 C 0.59716 0.14364 0.76401 0.0
C1781 C 0.61433 0.14199 0.74987 0.0
C1782 C 0.54728 0.10423 0.71562 0.0
C1783 C 0.60257 0.15825 0.79091 0.0
C1784 C 0.52923 0.1434 0.77486 0.0
C1785 C 0.51772 0.12709 0.79642 0.0
C1786 C 0.54855 0.14561 0.76155 0.0
C1787 C 0.55626 0.13086 0.76956 0.0
C1788 C 0.54511 0.11483 0.79196 0.0
C1789 C 0.5261 0.11328 0.80533 0.0
C1790 C 0.56026 0.16325 0.73825 0.0
C1791 C 0.55266 0.09861 0.80087 0.0
H1792 H 0.58468 0.10644 0.6944 0.0
H1793 H 0.63114 0.15103 0.75865 0.0
H1794 H 0.53655 0.09164 0.73219 0.0
H1795 H 0.53996 0.11501 0.71128 0.0
H1796 H 0.54678 0.09542 0.69496 0.0
H1797 H 0.62083 0.16844 0.79485 0.0
H1798 H 0.59566 0.1696 0.78859 0.0
H1799 H 0.59468 0.14771 0.81057 0.0
H1800 H 0.52294 0.15425 0.76805 0.0
H1801 H 0.51723 0.10057 0.82186 0.0
H1802 H 0.55831 0.15517 0.71653 0.0
H1803 H 0.57841 0.17312 0.74297 0.0
H1804 H 0.55353 0.17482 0.73668 0.0
H1805 H 0.55102 0.08779 0.7819 0.0
H1806 H 0.54278 0.0878 0.81952 0.0
H1807 H 0.57052 0.10775 0.80725 0.0
C1808 C 0.37937 0.51909 0.74886 0.0
C1809 C 0.38313 0.51296 0.77679 0.0
C1810 C 0.39622 0.53788 0.73422 0.0
C1811 C 0.41741 0.55053 0.74761 0.0
C1812 C 0.42108 0.54478 0.77613 0.0
C1813 C 0.40385 0.52621 0.79046 0.0
C1814 C 0.39153 0.54382 0.70414 0.0
C1815 C 0.44352 0.5577 0.79106 0.0
C1816 C 0.46972 0.5824 0.70145 0.0
C1817 C 0.47555 0.60457 0.70723 0.0
C1818 C 0.45036 0.56459 0.71364 0.0
C1819 C 0.43624 0.56907 0.73141 0.0
C1820 C 0.44131 0.59139 0.73573 0.0
C1821 C 0.46109 0.6089 0.72392 0.0
C1822 C 0.44576 0.54105 0.70892 0.0
C1823 C 0.42635 0.59681 0.75386 0.0
H1824 H 0.36336 0.50902 0.73822 0.0
H1825 H 0.40695 0.52158 0.81198 0.0
H1826 H 0.39651 0.56175 0.7033 0.0
H1827 H 0.40157 0.54107 0.6874 0.0
H1828 H 0.37363 0.53369 0.69804 0.0
H1829 H 0.44348 0.55139 0.81355 0.0
H1830 H 0.45638 0.55656 0.77779 0.0
H1831 H 0.44857 0.57561 0.7926 0.0
H1832 H 0.48092 0.57897 0.68872 0.0
H1833 H 0.46545 0.62603 0.72823 0.0
H1834 H 0.42853 0.53029 0.70066 0.0
H1835 H 0.4471 0.53395 0.73021 0.0
H1836 H 0.45761 0.5403 0.6931 0.0
H1837 H 0.40869 0.58625 0.747 0.0
H1838 H 0.43103 0.61463 0.75188 0.0
H1839 H 0.42745 0.59315 0.77735 0.0
C1840 C 0.88627 0.41524 0.81053 0.0
C1841 C 0.87066 0.39308 0.80348 0.0
C1842 C 0.88458 0.43303 0.79849 0.0
C1843 C 0.86658 0.4285 0.77948 0.0
C1844 C 0.84998 0.40612 0.77384 0.0
C1845 C 0.85236 0.38866 0.78563 0.0
C1846 C 0.90282 0.45665 0.80469 0.0
C1847 C 0.83024 0.40062 0.75431 0.0
C1848 C 0.85866 0.47783 0.76163 0.0
C1849 C 0.86954 0.48471 0.73438 0.0
C1850 C 0.85675 0.459 0.77612 0.0
C1851 C 0.86638 0.44711 0.76334 0.0
C1852 C 0.87689 0.45367 0.73553 0.0
C1853 C 0.87813 0.47223 0.72127 0.0
C1854 C 0.84494 0.45216 0.8054 0.0
C1855 C 0.88762 0.44162 0.7213 0.0
H1856 H 0.9005 0.41877 0.8242 0.0
H1857 H 0.84013 0.37154 0.78033 0.0
H1858 H 0.91209 0.4644 0.7841 0.0
H1859 H 0.89556 0.46685 0.81247 0.0
H1860 H 0.91486 0.45739 0.82145 0.0
H1861 H 0.81738 0.38264 0.75529 0.0
H1862 H 0.82244 0.41065 0.7607 0.0
H1863 H 0.83591 0.4049 0.73119 0.0
H1864 H 0.85186 0.48731 0.7718 0.0
H1865 H 0.88667 0.47748 0.7003 0.0
H1866 H 0.85712 0.45481 0.82301 0.0
H1867 H 0.8323 0.43412 0.80525 0.0
H1868 H 0.83654 0.4618 0.811 0.0
H1869 H 0.90119 0.44285 0.73561 0.0
H1870 H 0.89475 0.44856 0.69934 0.0
H1871 H 0.87522 0.42365 0.71875 0.0
loop_
_geom_bond_atom_site_label_1
_geom_bond_atom_site_label_2
_geom_bond_distance
_geom_bond_site_symmetry_2
_ccdc_geom_bond_type
O0 Cd1 2.223 . S
O0 C8 1.315 . S
Cd1 O0 2.223 . S
Cd1 O4 2.297 . S
Cd1 O5 2.439 . S
Cd1 O11 2.240 . S
Cd2 O3 2.240 . S
Cd2 O10 2.223 . S
Cd2 O12 2.297 . S
Cd2 O13 2.439 . S
O3 Cd2 2.240 . S
O3 C8 1.279 . S
O4 Cd1 2.297 . S
O4 C6 1.247 . S
O5 Cd1 2.439 . S
O5 C6 1.208 . S
C6 O4 1.247 . S
C6 O5 1.208 . S
C7 O12 1.247 . S
C7 O13 1.208 . S
C8 O0 1.315 . S
C8 O3 1.279 . S
C9 O10 1.315 . S
C9 O11 1.279 . S
O10 Cd2 2.223 . S
O10 C9 1.315 . S
O11 Cd1 2.240 . S
O11 C9 1.279 . S
O12 Cd2 2.297 . S
O12 C7 1.247 . S
O13 Cd2 2.439 . S
O13 C7 1.208 . S
O14 Cd15 2.223 . S
O14 C22 1.315 . S
Cd15 O14 2.223 . S
Cd15 O18 2.297 . S
Cd15 O19 2.439 . S
Cd15 O25 2.240 . S
Cd16 O17 2.240 . S
Cd16 O24 2.223 . S
Cd16 O26 2.297 . S
Cd16 O27 2.439 . S
O17 Cd16 2.240 . S
O17 C22 1.279 . S
O18 Cd15 2.297 . S
O18 C20 1.247 . S
O19 Cd15 2.439 . S
O19 C20 1.208 . S
C20 O18 1.247 . S
C20 O19 1.208 . S
C21 O26 1.247 . S
C21 O27 1.208 . S
C22 O14 1.315 . S
C22 O17 1.279 . S
C23 O24 1.315 . S
C23 O25 1.279 . S
O24 Cd16 2.223 . S
O24 C23 1.315 . S
O25 Cd15 2.240 . S
O25 C23 1.279 . S
O26 Cd16 2.297 . S
O26 C21 1.247 . S
O27 Cd16 2.439 . S
O27 C21 1.208 . S
O28 Cd29 2.223 . S
O28 C36 1.315 . S
Cd29 O28 2.223 . S
Cd29 O32 2.297 . S
Cd29 O33 2.439 . S
Cd29 O39 2.240 . S
Cd30 O31 2.240 . S
Cd30 O38 2.223 . S
Cd30 O40 2.297 . S
Cd30 O41 2.439 . S
O31 Cd30 2.240 . S
O31 C36 1.279 . S
O32 Cd29 2.297 . S
O32 C34 1.247 . S
O33 Cd29 2.439 . S
O33 C34 1.208 . S
C34 O32 1.247 . S
C34 O33 1.208 . S
C35 O40 1.247 . S
C35 O41 1.208 . S
C36 O28 1.315 . S
C36 O31 1.279 . S
C37 O38 1.315 . S
C37 O39 1.279 . S
O38 Cd30 2.223 . S
O38 C37 1.315 . S
O39 Cd29 2.240 . S
O39 C37 1.279 . S
O40 Cd30 2.297 . S
O40 C35 1.247 . S
O41 Cd30 2.439 . S
O41 C35 1.208 . S
O42 Cd43 2.223 . S
O42 C50 1.315 . S
Cd43 O42 2.223 . S
Cd43 O46 2.297 . S
Cd43 O47 2.439 . S
Cd43 O53 2.240 . S
Cd44 O45 2.240 . S
Cd44 O52 2.223 . S
Cd44 O54 2.297 . S
Cd44 O55 2.439 . S
O45 Cd44 2.240 . S
O45 C50 1.279 . S
O46 Cd43 2.297 . S
O46 C48 1.247 . S
O47 Cd43 2.439 . S
O47 C48 1.208 . S
C48 O46 1.247 . S
C48 O47 1.208 . S
C49 O54 1.247 . S
C49 O55 1.208 . S
C50 O42 1.315 . S
C50 O45 1.279 . S
C51 O52 1.315 . S
C51 O53 1.279 . S
O52 Cd44 2.223 . S
O52 C51 1.315 . S
O53 Cd43 2.240 . S
O53 C51 1.279 . S
O54 Cd44 2.297 . S
O54 C49 1.247 . S
O55 Cd44 2.439 . S
O55 C49 1.208 . S
O56 Cd57 2.223 . S
O56 C64 1.315 . S
Cd57 O56 2.223 . S
Cd57 O60 2.297 . S
Cd57 O61 2.439 . S
Cd57 O67 2.240 . S
Cd58 O59 2.240 . S
Cd58 O66 2.223 . S
Cd58 O68 2.297 . S
Cd58 O69 2.439 . S
O59 Cd58 2.240 . S
O59 C64 1.279 . S
O60 Cd57 2.297 . S
O60 C62 1.247 . S
O61 Cd57 2.439 . S
O61 C62 1.208 . S
C62 O60 1.247 . S
C62 O61 1.208 . S
C63 O68 1.247 . S
C63 O69 1.208 . S
C64 O56 1.315 . S
C64 O59 1.279 . S
C65 O66 1.315 . S
C65 O67 1.279 . S
O66 Cd58 2.223 . S
O66 C65 1.315 . S
O67 Cd57 2.240 . S
O67 C65 1.279 . S
O68 Cd58 2.297 . S
O68 C63 1.247 . S
O69 Cd58 2.439 . S
O69 C63 1.208 . S
O70 Cd71 2.223 . S
O70 C78 1.315 . S
Cd71 O70 2.223 . S
Cd71 O74 2.297 . S
Cd71 O75 2.439 . S
Cd71 O81 2.240 . S
Cd72 O73 2.240 . S
Cd72 O80 2.223 . S
Cd72 O82 2.297 . S
Cd72 O83 2.439 . S
O73 Cd72 2.240 . S
O73 C78 1.279 . S
O74 Cd71 2.297 . S
O74 C76 1.247 . S
O75 Cd71 2.439 . S
O75 C76 1.208 . S
C76 O74 1.247 . S
C76 O75 1.208 . S
C77 O82 1.247 . S
C77 O83 1.208 . S
C78 O70 1.315 . S
C78 O73 1.279 . S
C79 O80 1.315 . S
C79 O81 1.279 . S
O80 Cd72 2.223 . S
O80 C79 1.315 . S
O81 Cd71 2.240 . S
O81 C79 1.279 . S
O82 Cd72 2.297 . S
O82 C77 1.247 . S
O83 Cd72 2.439 . S
O83 C77 1.208 . S
O84 Cd85 2.223 . S
O84 C92 1.315 . S
Cd85 O84 2.223 . S
Cd85 O88 2.297 . S
Cd85 O89 2.439 . S
Cd85 O95 2.240 . S
Cd86 O87 2.240 . S
Cd86 O94 2.223 . S
Cd86 O96 2.297 . S
Cd86 O97 2.439 . S
O87 Cd86 2.240 . S
O87 C92 1.279 . S
O88 Cd85 2.297 . S
O88 C90 1.247 . S
O89 Cd85 2.439 . S
O89 C90 1.208 . S
C90 O88 1.247 . S
C90 O89 1.208 . S
C91 O96 1.247 . S
C91 O97 1.208 . S
C92 O84 1.315 . S
C92 O87 1.279 . S
C93 O94 1.315 . S
C93 O95 1.279 . S
O94 Cd86 2.223 . S
O94 C93 1.315 . S
O95 Cd85 2.240 . S
O95 C93 1.279 . S
O96 Cd86 2.297 . S
O96 C91 1.247 . S
O97 Cd86 2.439 . S
O97 C91 1.208 . S
O98 Cd99 2.223 . S
O98 C106 1.315 . S
Cd99 O98 2.223 . S
Cd99 O102 2.297 . S
Cd99 O103 2.439 . S
Cd99 O109 2.240 . S
Cd100 O101 2.240 . S
Cd100 O108 2.223 . S
Cd100 O110 2.297 . S
Cd100 O111 2.439 . S
O101 Cd100 2.240 . S
O101 C106 1.279 . S
O102 Cd99 2.297 . S
O102 C104 1.247 . S
O103 Cd99 2.439 . S
O103 C104 1.208 . S
C104 O102 1.247 . S
C104 O103 1.208 . S
C105 O110 1.247 . S
C105 O111 1.208 . S
C106 O98 1.315 . S
C106 O101 1.279 . S
C107 O108 1.315 . S
C107 O109 1.279 . S
O108 Cd100 2.223 . S
O108 C107 1.315 . S
O109 Cd99 2.240 . S
O109 C107 1.279 . S
O110 Cd100 2.297 . S
O110 C105 1.247 . S
O111 Cd100 2.439 . S
O111 C105 1.208 . S
O112 Cd113 2.223 . S
O112 C120 1.315 . S
Cd113 O112 2.223 . S
Cd113 O116 2.297 . S
Cd113 O117 2.439 . S
Cd113 O123 2.240 . S
Cd114 O115 2.240 . S
Cd114 O122 2.223 . S
Cd114 O124 2.297 . S
Cd114 O125 2.439 . S
O115 Cd114 2.240 . S
O115 C120 1.279 . S
O116 Cd113 2.297 . S
O116 C118 1.247 . S
O117 Cd113 2.439 . S
O117 C118 1.208 . S
C118 O116 1.247 . S
C118 O117 1.208 . S
C119 O124 1.247 . S
C119 O125 1.208 . S
C120 O112 1.315 . S
C120 O115 1.279 . S
C121 O122 1.315 . S
C121 O123 1.279 . S
O122 Cd114 2.223 . S
O122 C121 1.315 . S
O123 Cd113 2.240 . S
O123 C121 1.279 . S
O124 Cd114 2.297 . S
O124 C119 1.247 . S
O125 Cd114 2.439 . S
O125 C119 1.208 . S
O126 Cd127 2.223 . S
O126 C134 1.315 . S
Cd127 O126 2.223 . S
Cd127 O130 2.297 . S
Cd127 O131 2.439 . S
Cd127 O137 2.240 . S
Cd128 O129 2.240 . S
Cd128 O136 2.223 . S
Cd128 O138 2.297 . S
Cd128 O139 2.439 . S
O129 Cd128 2.240 . S
O129 C134 1.279 . S
O130 Cd127 2.297 . S
O130 C132 1.247 . S
O131 Cd127 2.439 . S
O131 C132 1.208 . S
C132 O130 1.247 . S
C132 O131 1.208 . S
C133 O138 1.247 . S
C133 O139 1.208 . S
C134 O126 1.315 . S
C134 O129 1.279 . S
C135 O136 1.315 . S
C135 O137 1.279 . S
O136 Cd128 2.223 . S
O136 C135 1.315 . S
O137 Cd127 2.240 . S
O137 C135 1.279 . S
O138 Cd128 2.297 . S
O138 C133 1.247 . S
O139 Cd128 2.439 . S
O139 C133 1.208 . S
O140 Cd141 2.223 . S
O140 C148 1.315 . S
Cd141 O140 2.223 . S
Cd141 O144 2.297 . S
Cd141 O145 2.439 . S
Cd141 O151 2.240 . S
Cd142 O143 2.240 . S
Cd142 O150 2.223 . S
Cd142 O152 2.297 . S
Cd142 O153 2.439 . S
O143 Cd142 2.240 . S
O143 C148 1.279 . S
O144 Cd141 2.297 . S
O144 C146 1.247 . S
O145 Cd141 2.439 . S
O145 C146 1.208 . S
C146 O144 1.247 . S
C146 O145 1.208 . S
C147 O152 1.247 . S
C147 O153 1.208 . S
C148 O140 1.315 . S
C148 O143 1.279 . S
C149 O150 1.315 . S
C149 O151 1.279 . S
O150 Cd142 2.223 . S
O150 C149 1.315 . S
O151 Cd141 2.240 . S
O151 C149 1.279 . S
O152 Cd142 2.297 . S
O152 C147 1.247 . S
O153 Cd142 2.439 . S
O153 C147 1.208 . S
O154 Cd155 2.223 . S
O154 C162 1.315 . S
Cd155 O154 2.223 . S
Cd155 O158 2.297 . S
Cd155 O159 2.439 . S
Cd155 O165 2.240 . S
Cd156 O157 2.240 . S
Cd156 O164 2.223 . S
Cd156 O166 2.297 . S
Cd156 O167 2.439 . S
O157 Cd156 2.240 . S
O157 C162 1.279 . S
O158 Cd155 2.297 . S
O158 C160 1.247 . S
O159 Cd155 2.439 . S
O159 C160 1.208 . S
C160 O158 1.247 . S
C160 O159 1.208 . S
C161 O166 1.247 . S
C161 O167 1.208 . S
C162 O154 1.315 . S
C162 O157 1.279 . S
C163 O164 1.315 . S
C163 O165 1.279 . S
O164 Cd156 2.223 . S
O164 C163 1.315 . S
O165 Cd155 2.240 . S
O165 C163 1.279 . S
O166 Cd156 2.297 . S
O166 C161 1.247 . S
O167 Cd156 2.439 . S
O167 C161 1.208 . S
O168 Cd169 2.223 . S
O168 C176 1.315 . S
Cd169 O168 2.223 . S
Cd169 O172 2.297 . S
Cd169 O173 2.439 . S
Cd169 O179 2.240 . S
Cd170 O171 2.240 . S
Cd170 O178 2.223 . S
Cd170 O180 2.297 . S
Cd170 O181 2.439 . S
O171 Cd170 2.240 . S
O171 C176 1.279 . S
O172 Cd169 2.297 . S
O172 C174 1.247 . S
O173 Cd169 2.439 . S
O173 C174 1.208 . S
C174 O172 1.247 . S
C174 O173 1.208 . S
C175 O180 1.247 . S
C175 O181 1.208 . S
C176 O168 1.315 . S
C176 O171 1.279 . S
C177 O178 1.315 . S
C177 O179 1.279 . S
O178 Cd170 2.223 . S
O178 C177 1.315 . S
O179 Cd169 2.240 . S
O179 C177 1.279 . S
O180 Cd170 2.297 . S
O180 C175 1.247 . S
O181 Cd170 2.439 . S
O181 C175 1.208 . S
O182 Cd183 2.223 . S
O182 C190 1.315 . S
Cd183 O182 2.223 . S
Cd183 O186 2.297 . S
Cd183 O187 2.439 . S
Cd183 O193 2.240 . S
Cd184 O185 2.240 . S
Cd184 O192 2.223 . S
Cd184 O194 2.297 . S
Cd184 O195 2.439 . S
O185 Cd184 2.240 . S
O185 C190 1.279 . S
O186 Cd183 2.297 . S
O186 C188 1.247 . S
O187 Cd183 2.439 . S
O187 C188 1.208 . S
C188 O186 1.247 . S
C188 O187 1.208 . S
C189 O194 1.247 . S
C189 O195 1.208 . S
C190 O182 1.315 . S
C190 O185 1.279 . S
C191 O192 1.315 . S
C191 O193 1.279 . S
O192 Cd184 2.223 . S
O192 C191 1.315 . S
O193 Cd183 2.240 . S
O193 C191 1.279 . S
O194 Cd184 2.297 . S
O194 C189 1.247 . S
O195 Cd184 2.439 . S
O195 C189 1.208 . S
O196 Cd197 2.223 . S
O196 C204 1.315 . S
Cd197 O196 2.223 . S
Cd197 O200 2.297 . S
Cd197 O201 2.439 . S
Cd197 O207 2.240 . S
Cd198 O199 2.240 . S
Cd198 O206 2.223 . S
Cd198 O208 2.297 . S
Cd198 O209 2.439 . S
O199 Cd198 2.240 . S
O199 C204 1.279 . S
O200 Cd197 2.297 . S
O200 C202 1.247 . S
O201 Cd197 2.439 . S
O201 C202 1.208 . S
C202 O200 1.247 . S
C202 O201 1.208 . S
C203 O208 1.247 . S
C203 O209 1.208 . S
C204 O196 1.315 . S
C204 O199 1.279 . S
C205 O206 1.315 . S
C205 O207 1.279 . S
O206 Cd198 2.223 . S
O206 C205 1.315 . S
O207 Cd197 2.240 . S
O207 C205 1.279 . S
O208 Cd198 2.297 . S
O208 C203 1.247 . S
O209 Cd198 2.439 . S
O209 C203 1.208 . S
O210 Cd211 2.223 . S
O210 C218 1.315 . S
Cd211 O210 2.223 . S
Cd211 O214 2.297 . S
Cd211 O215 2.439 . S
Cd211 O221 2.240 . S
Cd212 O213 2.240 . S
Cd212 O220 2.223 . S
Cd212 O222 2.297 . S
Cd212 O223 2.439 . S
O213 Cd212 2.240 . S
O213 C218 1.279 . S
O214 Cd211 2.297 . S
O214 C216 1.247 . S
O215 Cd211 2.439 . S
O215 C216 1.208 . S
C216 O214 1.247 . S
C216 O215 1.208 . S
C217 O222 1.247 . S
C217 O223 1.208 . S
C218 O210 1.315 . S
C218 O213 1.279 . S
C219 O220 1.315 . S
C219 O221 1.279 . S
O220 Cd212 2.223 . S
O220 C219 1.315 . S
O221 Cd211 2.240 . S
O221 C219 1.279 . S
O222 Cd212 2.297 . S
O222 C217 1.247 . S
O223 Cd212 2.439 . S
O223 C217 1.208 . S
O224 Cd225 2.223 . S
O224 C232 1.315 . S
Cd225 O224 2.223 . S
Cd225 O228 2.297 . S
Cd225 O229 2.439 . S
Cd225 O235 2.240 . S
Cd226 O227 2.240 . S
Cd226 O234 2.223 . S
Cd226 O236 2.297 . S
Cd226 O237 2.439 . S
O227 Cd226 2.240 . S
O227 C232 1.279 . S
O228 Cd225 2.297 . S
O228 C230 1.247 . S
O229 Cd225 2.439 . S
O229 C230 1.208 . S
C230 O228 1.247 . S
C230 O229 1.208 . S
C231 O236 1.247 . S
C231 O237 1.208 . S
C232 O224 1.315 . S
C232 O227 1.279 . S
C233 O234 1.315 . S
C233 O235 1.279 . S
O234 Cd226 2.223 . S
O234 C233 1.315 . S
O235 Cd225 2.240 . S
O235 C233 1.279 . S
O236 Cd226 2.297 . S
O236 C231 1.247 . S
O237 Cd226 2.439 . S
O237 C231 1.208 . S
O238 Cd239 2.223 . S
O238 C246 1.315 . S
Cd239 O238 2.223 . S
Cd239 O242 2.297 . S
Cd239 O243 2.439 . S
Cd239 O249 2.240 . S
Cd240 O241 2.240 . S
Cd240 O248 2.223 . S
Cd240 O250 2.297 . S
Cd240 O251 2.439 . S
O241 Cd240 2.240 . S
O241 C246 1.279 . S
O242 Cd239 2.297 . S
O242 C244 1.247 . S
O243 Cd239 2.439 . S
O243 C244 1.208 . S
C244 O242 1.247 . S
C244 O243 1.208 . S
C245 O250 1.247 . S
C245 O251 1.208 . S
C246 O238 1.315 . S
C246 O241 1.279 . S
C247 O248 1.315 . S
C247 O249 1.279 . S
O248 Cd240 2.223 . S
O248 C247 1.315 . S
O249 Cd239 2.240 . S
O249 C247 1.279 . S
O250 Cd240 2.297 . S
O250 C245 1.247 . S
O251 Cd240 2.439 . S
O251 C245 1.208 . S
O252 Cd253 2.223 . S
O252 C260 1.315 . S
Cd253 O252 2.223 . S
Cd253 O256 2.297 . S
Cd253 O257 2.439 . S
Cd253 O263 2.240 . S
Cd254 O255 2.240 . S
Cd254 O262 2.223 . S
Cd254 O264 2.297 . S
Cd254 O265 2.439 . S
O255 Cd254 2.240 . S
O255 C260 1.279 . S
O256 Cd253 2.297 . S
O256 C258 1.247 . S
O257 Cd253 2.439 . S
O257 C258 1.208 . S
C258 O256 1.247 . S
C258 O257 1.208 . S
C259 O264 1.247 . S
C259 O265 1.208 . S
C260 O252 1.315 . S
C260 O255 1.279 . S
C261 O262 1.315 . S
C261 O263 1.279 . S
O262 Cd254 2.223 . S
O262 C261 1.315 . S
O263 Cd253 2.240 . S
O263 C261 1.279 . S
O264 Cd254 2.297 . S
O264 C259 1.247 . S
O265 Cd254 2.439 . S
O265 C259 1.208 . S
O266 Cd267 2.223 . S
O266 C274 1.315 . S
Cd267 O266 2.223 . S
Cd267 O270 2.297 . S
Cd267 O271 2.439 . S
Cd267 O277 2.240 . S
Cd268 O269 2.240 . S
Cd268 O276 2.223 . S
Cd268 O278 2.297 . S
Cd268 O279 2.439 . S
O269 Cd268 2.240 . S
O269 C274 1.279 . S
O270 Cd267 2.297 . S
O270 C272 1.247 . S
O271 Cd267 2.439 . S
O271 C272 1.208 . S
C272 O270 1.247 . S
C272 O271 1.208 . S
C273 O278 1.247 . S
C273 O279 1.208 . S
C274 O266 1.315 . S
C274 O269 1.279 . S
C275 O276 1.315 . S
C275 O277 1.279 . S
O276 Cd268 2.223 . S
O276 C275 1.315 . S
O277 Cd267 2.240 . S
O277 C275 1.279 . S
O278 Cd268 2.297 . S
O278 C273 1.247 . S
O279 Cd268 2.439 . S
O279 C273 1.208 . S
O280 Cd281 2.223 . S
O280 C288 1.315 . S
Cd281 O280 2.223 . S
Cd281 O284 2.297 . S
Cd281 O285 2.439 . S
Cd281 O291 2.240 . S
Cd282 O283 2.240 . S
Cd282 O290 2.223 . S
Cd282 O292 2.297 . S
Cd282 O293 2.439 . S
O283 Cd282 2.240 . S
O283 C288 1.279 . S
O284 Cd281 2.297 . S
O284 C286 1.247 . S
O285 Cd281 2.439 . S
O285 C286 1.208 . S
C286 O284 1.247 . S
C286 O285 1.208 . S
C287 O292 1.247 . S
C287 O293 1.208 . S
C288 O280 1.315 . S
C288 O283 1.279 . S
C289 O290 1.315 . S
C289 O291 1.279 . S
O290 Cd282 2.223 . S
O290 C289 1.315 . S
O291 Cd281 2.240 . S
O291 C289 1.279 . S
O292 Cd282 2.297 . S
O292 C287 1.247 . S
O293 Cd282 2.439 . S
O293 C287 1.208 . S
O294 Cd295 2.223 . S
O294 C302 1.315 . S
Cd295 O294 2.223 . S
Cd295 O298 2.297 . S
Cd295 O299 2.439 . S
Cd295 O305 2.240 . S
Cd296 O297 2.240 . S
Cd296 O304 2.223 . S
Cd296 O306 2.297 . S
Cd296 O307 2.439 . S
O297 Cd296 2.240 . S
O297 C302 1.279 . S
O298 Cd295 2.297 . S
O298 C300 1.247 . S
O299 Cd295 2.439 . S
O299 C300 1.208 . S
C300 O298 1.247 . S
C300 O299 1.208 . S
C301 O306 1.247 . S
C301 O307 1.208 . S
C302 O294 1.315 . S
C302 O297 1.279 . S
C303 O304 1.315 . S
C303 O305 1.279 . S
O304 Cd296 2.223 . S
O304 C303 1.315 . S
O305 Cd295 2.240 . S
O305 C303 1.279 . S
O306 Cd296 2.297 . S
O306 C301 1.247 . S
O307 Cd296 2.439 . S
O307 C301 1.208 . S
O308 Cd309 2.223 . S
O308 C316 1.315 . S
Cd309 O308 2.223 . S
Cd309 O312 2.297 . S
Cd309 O313 2.439 . S
Cd309 O319 2.240 . S
Cd310 O311 2.240 . S
Cd310 O318 2.223 . S
Cd310 O320 2.297 . S
Cd310 O321 2.439 . S
O311 Cd310 2.240 . S
O311 C316 1.279 . S
O312 Cd309 2.297 . S
O312 C314 1.247 . S
O313 Cd309 2.439 . S
O313 C314 1.208 . S
C314 O312 1.247 . S
C314 O313 1.208 . S
C315 O320 1.247 . S
C315 O321 1.208 . S
C316 O308 1.315 . S
C316 O311 1.279 . S
C317 O318 1.315 . S
C317 O319 1.279 . S
O318 Cd310 2.223 . S
O318 C317 1.315 . S
O319 Cd309 2.240 . S
O319 C317 1.279 . S
O320 Cd310 2.297 . S
O320 C315 1.247 . S
O321 Cd310 2.439 . S
O321 C315 1.208 . S
O322 Cd323 2.223 . S
O322 C330 1.315 . S
Cd323 O322 2.223 . S
Cd323 O326 2.297 . S
Cd323 O327 2.439 . S
Cd323 O333 2.240 . S
Cd324 O325 2.240 . S
Cd324 O332 2.223 . S
Cd324 O334 2.297 . S
Cd324 O335 2.439 . S
O325 Cd324 2.240 . S
O325 C330 1.279 . S
O326 Cd323 2.297 . S
O326 C328 1.247 . S
O327 Cd323 2.439 . S
O327 C328 1.208 . S
C328 O326 1.247 . S
C328 O327 1.208 . S
C329 O334 1.247 . S
C329 O335 1.208 . S
C330 O322 1.315 . S
C330 O325 1.279 . S
C331 O332 1.315 . S
C331 O333 1.279 . S
O332 Cd324 2.223 . S
O332 C331 1.315 . S
O333 Cd323 2.240 . S
O333 C331 1.279 . S
O334 Cd324 2.297 . S
O334 C329 1.247 . S
O335 Cd324 2.439 . S
O335 C329 1.208 . S
C336 C337 1.391 . S
C336 C338 1.394 . S
C336 H352 0.931 . S
C337 C336 1.391 . S
C337 C341 1.376 . S
C338 C336 1.394 . S
C338 C339 1.369 . S
C338 C342 1.531 1_545 S
C339 C338 1.369 . S
C339 C340 1.410 . S
C339 C347 1.503 1_545 S
C340 C339 1.410 . S
C340 C341 1.392 . S
C340 C343 1.511 . S
C341 C337 1.376 . S
C341 C340 1.392 . S
C341 H353 0.929 . S
C342 C338 1.531 1_565 S
C342 H354 0.960 . S
C342 H355 0.962 . S
C342 H356 0.960 . S
C343 C340 1.511 . S
C343 H357 0.961 . S
C343 H358 0.961 . S
C343 H359 0.961 . S
C344 C345 1.370 . S
C344 C346 1.363 . S
C344 H360 0.931 . S
C345 C344 1.370 . S
C345 C349 1.408 . S
C346 C344 1.363 . S
C346 C347 1.370 . S
C346 C350 1.524 1_565 S
C347 C339 1.503 1_565 S
C347 C346 1.370 . S
C347 C348 1.403 . S
C348 C347 1.403 . S
C348 C349 1.404 . S
C348 C351 1.539 . S
C349 C345 1.408 . S
C349 C348 1.404 . S
C349 H361 0.930 . S
C350 C346 1.524 1_545 S
C350 H362 0.956 . S
C350 H363 0.961 . S
C350 H364 0.961 . S
C351 C348 1.539 . S
C351 H365 0.958 . S
C351 H366 0.961 . S
C351 H367 0.960 . S
H352 C336 0.931 . S
H353 C341 0.929 . S
H354 C342 0.960 . S
H355 C342 0.962 . S
H356 C342 0.960 . S
H357 C343 0.961 . S
H358 C343 0.961 . S
H359 C343 0.961 . S
H360 C344 0.931 . S
H361 C349 0.930 . S
H362 C350 0.956 . S
H363 C350 0.961 . S
H364 C350 0.961 . S
H365 C351 0.958 . S
H366 C351 0.961 . S
H367 C351 0.960 . S
C368 C369 1.391 . S
C368 C370 1.394 . S
C368 H384 0.931 . S
C369 C368 1.391 . S
C369 C373 1.376 . S
C370 C368 1.394 . S
C370 C371 1.369 . S
C370 C374 1.531 . S
C371 C370 1.369 . S
C371 C372 1.410 . S
C371 C379 1.503 . S
C372 C371 1.410 . S
C372 C373 1.392 . S
C372 C375 1.511 . S
C373 C369 1.376 . S
C373 C372 1.392 . S
C373 H385 0.929 . S
C374 C370 1.531 . S
C374 H386 0.960 . S
C374 H387 0.962 . S
C374 H388 0.960 . S
C375 C372 1.511 . S
C375 H389 0.961 . S
C375 H390 0.961 . S
C375 H391 0.961 . S
C376 C377 1.370 . S
C376 C378 1.363 . S
C376 H392 0.931 . S
C377 C376 1.370 . S
C377 C381 1.408 . S
C378 C376 1.363 . S
C378 C379 1.370 . S
C378 C382 1.524 . S
C379 C371 1.503 . S
C379 C378 1.370 . S
C379 C380 1.403 . S
C380 C379 1.403 . S
C380 C381 1.404 . S
C380 C383 1.539 . S
C381 C377 1.408 . S
C381 C380 1.404 . S
C381 H393 0.930 . S
C382 C378 1.524 . S
C382 H394 0.956 . S
C382 H395 0.961 . S
C382 H396 0.961 . S
C383 C380 1.539 . S
C383 H397 0.958 . S
C383 H398 0.961 . S
C383 H399 0.960 . S
H384 C368 0.931 . S
H385 C373 0.929 . S
H386 C374 0.960 . S
H387 C374 0.962 . S
H388 C374 0.960 . S
H389 C375 0.961 . S
H390 C375 0.961 . S
H391 C375 0.961 . S
H392 C376 0.931 . S
H393 C381 0.930 . S
H394 C382 0.956 . S
H395 C382 0.961 . S
H396 C382 0.961 . S
H397 C383 0.958 . S
H398 C383 0.961 . S
H399 C383 0.960 . S
C400 C401 1.391 . S
C400 C402 1.394 . S
C400 H416 0.931 . S
C401 C400 1.391 . S
C401 C405 1.376 . S
C402 C400 1.394 . S
C402 C403 1.369 . S
C402 C406 1.531 1_655 S
C403 C402 1.369 . S
C403 C404 1.410 . S
C403 C411 1.503 1_655 S
C404 C403 1.410 . S
C404 C405 1.392 . S
C404 C407 1.511 . S
C405 C401 1.376 . S
C405 C404 1.392 . S
C405 H417 0.929 . S
C406 C402 1.531 1_455 S
C406 H418 0.960 . S
C406 H419 0.962 . S
C406 H420 0.960 . S
C407 C404 1.511 . S
C407 H421 0.961 . S
C407 H422 0.961 . S
C407 H423 0.961 . S
C408 C409 1.370 . S
C408 C410 1.363 . S
C408 H424 0.931 . S
C409 C408 1.370 . S
C409 C413 1.408 . S
C410 C408 1.363 . S
C410 C411 1.370 . S
C410 C414 1.524 1_455 S
C411 C403 1.503 1_455 S
C411 C410 1.370 . S
C411 C412 1.403 . S
C412 C411 1.403 . S
C412 C413 1.404 . S
C412 C415 1.539 . S
C413 C409 1.408 . S
C413 C412 1.404 . S
C413 H425 0.930 . S
C414 C410 1.524 1_655 S
C414 H426 0.956 . S
C414 H427 0.961 . S
C414 H428 0.961 . S
C415 C412 1.539 . S
C415 H429 0.958 . S
C415 H430 0.961 . S
C415 H431 0.960 . S
H416 C400 0.931 . S
H417 C405 0.929 . S
H418 C406 0.960 . S
H419 C406 0.962 . S
H420 C406 0.960 . S
H421 C407 0.961 . S
H422 C407 0.961 . S
H423 C407 0.961 . S
H424 C408 0.931 . S
H425 C413 0.930 . S
H426 C414 0.956 . S
H427 C414 0.961 . S
H428 C414 0.961 . S
H429 C415 0.958 . S
H430 C415 0.961 . S
H431 C415 0.960 . S
C432 C433 1.391 . S
C432 C434 1.394 . S
C432 H448 0.931 . S
C433 C432 1.391 . S
C433 C437 1.376 . S
C434 C432 1.394 . S
C434 C435 1.369 . S
C434 C438 1.531 . S
C435 C434 1.369 . S
C435 C436 1.410 . S
C435 C443 1.503 1_565 S
C436 C435 1.410 . S
C436 C437 1.392 . S
C436 C439 1.511 1_565 S
C437 C433 1.376 . S
C437 C436 1.392 . S
C437 H449 0.929 . S
C438 C434 1.531 . S
C438 H450 0.960 . S
C438 H451 0.962 . S
C438 H452 0.960 . S
C439 C436 1.511 1_545 S
C439 H453 0.961 . S
C439 H454 0.961 . S
C439 H455 0.988 . S
C440 C441 1.370 . S
C440 C442 1.363 . S
C440 H456 0.931 . S
C441 C440 1.370 . S
C441 C445 1.408 . S
C442 C440 1.363 . S
C442 C443 1.370 . S
C442 C446 1.524 . S
C443 C435 1.503 1_545 S
C443 C442 1.370 . S
C443 C444 1.403 . S
C444 C443 1.403 . S
C444 C445 1.404 . S
C444 C447 1.539 1_545 S
C445 C441 1.408 . S
C445 C444 1.404 . S
C445 H457 0.930 . S
C446 C442 1.524 . S
C446 H458 0.956 . S
C446 H459 0.961 . S
C446 H460 0.961 . S
C447 C444 1.539 1_565 S
C447 H461 0.958 . S
C447 H462 0.961 1_565 S
C447 H463 0.960 . S
H448 C432 0.931 . S
H449 C437 0.929 . S
H450 C438 0.960 . S
H451 C438 0.962 . S
H452 C438 0.960 . S
H453 C439 0.961 . S
H454 C439 0.961 . S
H455 C439 0.988 . S
H456 C440 0.931 . S
H457 C445 0.930 . S
H458 C446 0.956 . S
H459 C446 0.961 . S
H460 C446 0.961 . S
H461 C447 0.958 . S
H462 C447 0.961 1_545 S
H463 C447 0.960 . S
C464 C465 1.391 . S
C464 C466 1.394 . S
C464 H480 0.931 . S
C465 C464 1.391 . S
C465 C469 1.376 . S
C466 C464 1.394 . S
C466 C467 1.369 . S
C466 C470 1.531 . S
C467 C466 1.369 . S
C467 C468 1.410 . S
C467 C475 1.503 . S
C468 C467 1.410 . S
C468 C469 1.392 . S
C468 C471 1.511 . S
C469 C465 1.376 . S
C469 C468 1.392 . S
C469 H481 0.929 . S
C470 C466 1.531 . S
C470 H482 0.960 . S
C470 H483 0.962 . S
C470 H484 0.960 . S
C471 C468 1.511 . S
C471 H485 0.961 . S
C471 H486 0.961 . S
C471 H487 0.961 . S
C472 C473 1.370 . S
C472 C474 1.363 . S
C472 H488 0.931 . S
C473 C472 1.370 . S
C473 C477 1.408 . S
C474 C472 1.363 . S
C474 C475 1.370 . S
C474 C478 1.524 . S
C475 C467 1.503 . S
C475 C474 1.370 . S
C475 C476 1.403 . S
C476 C475 1.403 . S
C476 C477 1.404 . S
C476 C479 1.539 . S
C477 C473 1.408 . S
C477 C476 1.404 . S
C477 H489 0.930 . S
C478 C474 1.524 . S
C478 H490 0.956 . S
C478 H491 0.961 . S
C478 H492 0.961 . S
C479 C476 1.539 . S
C479 H493 0.958 . S
C479 H494 0.961 . S
C479 H495 0.960 . S
H480 C464 0.931 . S
H481 C469 0.929 . S
H482 C470 0.960 . S
H483 C470 0.962 . S
H484 C470 0.960 . S
H485 C471 0.961 . S
H486 C471 0.961 . S
H487 C471 0.961 . S
H488 C472 0.931 . S
H489 C477 0.930 . S
H490 C478 0.956 . S
H491 C478 0.961 . S
H492 C478 0.961 . S
H493 C479 0.958 . S
H494 C479 0.961 . S
H495 C479 0.960 . S
C496 C497 1.391 . S
C496 C498 1.394 . S
C496 H512 0.931 . S
C497 C496 1.391 . S
C497 C501 1.376 . S
C498 C496 1.394 . S
C498 C499 1.369 . S
C498 C502 1.531 . S
C499 C498 1.369 . S
C499 C500 1.410 . S
C499 C507 1.503 1_455 S
C500 C499 1.410 . S
C500 C501 1.392 . S
C500 C503 1.511 . S
C501 C497 1.376 . S
C501 C500 1.392 . S
C501 H513 0.929 . S
C502 C498 1.531 . S
C502 H514 0.960 1_455 S
C502 H515 0.962 . S
C502 H516 0.960 . S
C503 C500 1.511 . S
C503 H517 0.961 . S
C503 H518 0.970 . S
C503 H519 0.954 1_455 S
C504 C505 1.370 . S
C504 C506 1.363 . S
C504 H520 0.931 . S
C505 C504 1.370 . S
C505 C509 1.408 . S
C506 C504 1.363 . S
C506 C507 1.370 . S
C506 C510 1.524 1_655 S
C507 C499 1.503 1_655 S
C507 C506 1.370 . S
C507 C508 1.403 . S
C508 C507 1.403 . S
C508 C509 1.404 . S
C508 C511 1.539 . S
C509 C505 1.408 . S
C509 C508 1.404 . S
C509 H521 0.930 . S
C510 C506 1.524 1_455 S
C510 H522 0.956 . S
C510 H523 0.961 . S
C510 H524 0.961 . S
C511 C508 1.539 . S
C511 H525 0.958 . S
C511 H526 0.961 . S
C511 H527 0.960 . S
H512 C496 0.931 . S
H513 C501 0.929 . S
H514 C502 0.960 1_655 S
H515 C502 0.962 . S
H516 C502 0.960 . S
H517 C503 0.961 . S
H518 C503 0.970 . S
H519 C503 0.954 1_655 S
H520 C504 0.931 . S
H521 C509 0.930 . S
H522 C510 0.956 . S
H523 C510 0.961 . S
H524 C510 0.961 . S
H525 C511 0.958 . S
H526 C511 0.961 . S
H527 C511 0.960 . S
C528 C529 1.391 . S
C528 C530 1.394 . S
C528 H544 0.931 . S
C529 C528 1.391 . S
C529 C533 1.376 . S
C530 C528 1.394 . S
C530 C531 1.369 . S
C530 C534 1.531 . S
C531 C530 1.369 . S
C531 C532 1.410 . S
C531 C539 1.503 1_565 S
C532 C531 1.410 . S
C532 C533 1.392 . S
C532 C535 1.511 . S
C533 C529 1.376 . S
C533 C532 1.392 . S
C533 H545 0.929 . S
C534 C530 1.531 . S
C534 H546 0.960 . S
C534 H547 0.962 . S
C534 H548 0.960 . S
C535 C532 1.511 . S
C535 H549 0.961 . S
C535 H550 0.961 1_565 S
C535 H551 0.961 . S
C536 C537 1.370 . S
C536 C538 1.363 . S
C536 H552 0.931 . S
C537 C536 1.370 . S
C537 C541 1.408 . S
C538 C536 1.363 . S
C538 C539 1.370 . S
C538 C542 1.524 . S
C539 C531 1.503 1_545 S
C539 C538 1.370 . S
C539 C540 1.403 . S
C540 C539 1.403 . S
C540 C541 1.404 . S
C540 C543 1.539 1_545 S
C541 C537 1.408 . S
C541 C540 1.404 . S
C541 H553 0.930 . S
C542 C538 1.524 . S
C542 H554 0.956 . S
C542 H555 0.961 . S
C542 H556 0.961 . S
C543 C540 1.539 1_565 S
C543 H557 0.958 . S
C543 H558 0.961 . S
C543 H559 0.960 . S
H544 C528 0.931 . S
H545 C533 0.929 . S
H546 C534 0.960 . S
H547 C534 0.962 . S
H548 C534 0.960 . S
H549 C535 0.961 . S
H550 C535 0.961 1_545 S
H551 C535 0.961 . S
H552 C536 0.931 . S
H553 C541 0.930 . S
H554 C542 0.956 . S
H555 C542 0.961 . S
H556 C542 0.961 . S
H557 C543 0.958 . S
H558 C543 0.961 . S
H559 C543 0.960 . S
C560 C561 1.391 . S
C560 C562 1.394 . S
C560 H576 0.931 . S
C561 C560 1.391 . S
C561 C565 1.376 . S
C562 C560 1.394 . S
C562 C563 1.369 . S
C562 C566 1.531 . S
C563 C562 1.369 . S
C563 C564 1.410 . S
C563 C571 1.503 . S
C564 C563 1.410 . S
C564 C565 1.392 . S
C564 C567 1.511 . S
C565 C561 1.376 . S
C565 C564 1.392 . S
C565 H577 0.929 . S
C566 C562 1.531 . S
C566 H578 0.960 . S
C566 H579 0.962 . S
C566 H580 0.960 . S
C567 C564 1.511 . S
C567 H581 0.961 . S
C567 H582 0.961 . S
C567 H583 0.961 . S
C568 C569 1.370 . S
C568 C570 1.363 . S
C568 H584 0.931 . S
C569 C568 1.370 . S
C569 C573 1.408 . S
C570 C568 1.363 . S
C570 C571 1.370 . S
C570 C574 1.524 . S
C571 C563 1.503 . S
C571 C570 1.370 . S
C571 C572 1.403 . S
C572 C571 1.403 . S
C572 C573 1.404 . S
C572 C575 1.539 . S
C573 C569 1.408 . S
C573 C572 1.404 . S
C573 H585 0.930 . S
C574 C570 1.524 . S
C574 H586 0.956 . S
C574 H587 0.961 . S
C574 H588 0.961 . S
C575 C572 1.539 . S
C575 H589 0.958 . S
C575 H590 0.961 . S
C575 H591 0.960 . S
H576 C560 0.931 . S
H577 C565 0.929 . S
H578 C566 0.960 . S
H579 C566 0.962 . S
H580 C566 0.960 . S
H581 C567 0.961 . S
H582 C567 0.961 . S
H583 C567 0.961 . S
H584 C568 0.931 . S
H585 C573 0.930 . S
H586 C574 0.956 . S
H587 C574 0.961 . S
H588 C574 0.961 . S
H589 C575 0.958 . S
H590 C575 0.961 . S
H591 C575 0.960 . S
C592 C593 1.391 . S
C592 C594 1.394 . S
C592 H608 0.931 . S
C593 C592 1.391 . S
C593 C597 1.376 . S
C594 C592 1.394 . S
C594 C595 1.369 . S
C594 C598 1.531 . S
C595 C594 1.369 . S
C595 C596 1.410 . S
C595 C603 1.503 1_655 S
C596 C595 1.410 . S
C596 C597 1.392 . S
C596 C599 1.564 . S
C597 C593 1.376 . S
C597 C596 1.392 . S
C597 H609 0.929 . S
C598 C594 1.531 . S
C598 H610 0.960 . S
C598 H611 0.962 . S
C598 H612 0.960 . S
C599 C596 1.564 . S
C599 H613 0.957 . S
C599 H614 0.925 1_655 S
C599 H615 0.952 . S
C600 C601 1.370 . S
C600 C602 1.363 . S
C600 H616 0.931 . S
C601 C600 1.370 . S
C601 C605 1.408 . S
C602 C600 1.363 . S
C602 C603 1.370 . S
C602 C606 1.524 . S
C603 C595 1.503 1_455 S
C603 C602 1.370 . S
C603 C604 1.403 . S
C604 C603 1.403 . S
C604 C605 1.404 . S
C604 C607 1.539 1_455 S
C605 C601 1.408 . S
C605 C604 1.404 . S
C605 H617 0.930 . S
C606 C602 1.524 . S
C606 H618 0.956 . S
C606 H619 0.961 . S
C606 H620 0.961 . S
C607 C604 1.539 1_655 S
C607 H621 0.958 . S
C607 H622 0.985 . S
C607 H623 0.960 . S
H608 C592 0.931 . S
H609 C597 0.929 . S
H610 C598 0.960 . S
H611 C598 0.962 . S
H612 C598 0.960 . S
H613 C599 0.957 . S
H614 C599 0.925 1_455 S
H615 C599 0.952 . S
H616 C600 0.931 . S
H617 C605 0.930 . S
H618 C606 0.956 . S
H619 C606 0.961 . S
H620 C606 0.961 . S
H621 C607 0.958 . S
H622 C607 0.985 . S
H623 C607 0.960 . S
C624 C625 1.391 . S
C624 C626 1.394 . S
C624 H640 0.931 . S
C625 C624 1.391 . S
C625 C629 1.376 . S
C626 C624 1.394 . S
C626 C627 1.369 . S
C626 C630 1.531 1_545 S
C627 C626 1.369 . S
C627 C628 1.410 . S
C627 C635 1.503 1_545 S
C628 C627 1.410 . S
C628 C629 1.392 . S
C628 C631 1.511 . S
C629 C625 1.376 . S
C629 C628 1.392 . S
C629 H641 0.929 . S
C630 C626 1.531 1_565 S
C630 H642 0.960 . S
C630 H643 0.962 . S
C630 H644 0.960 . S
C631 C628 1.511 . S
C631 H645 0.961 . S
C631 H646 0.961 . S
C631 H647 0.961 . S
C632 C633 1.370 . S
C632 C634 1.363 . S
C632 H648 0.931 . S
C633 C632 1.370 . S
C633 C637 1.408 . S
C634 C632 1.363 . S
C634 C635 1.370 . S
C634 C638 1.524 1_565 S
C635 C627 1.503 1_565 S
C635 C634 1.370 . S
C635 C636 1.403 . S
C636 C635 1.403 . S
C636 C637 1.404 . S
C636 C639 1.539 . S
C637 C633 1.408 . S
C637 C636 1.404 . S
C637 H649 0.930 . S
C638 C634 1.524 1_545 S
C638 H650 0.956 . S
C638 H651 0.961 . S
C638 H652 0.961 . S
C639 C636 1.539 . S
C639 H653 0.958 . S
C639 H654 0.961 . S
C639 H655 0.960 . S
H640 C624 0.931 . S
H641 C629 0.929 . S
H642 C630 0.960 . S
H643 C630 0.962 . S
H644 C630 0.960 . S
H645 C631 0.961 . S
H646 C631 0.961 . S
H647 C631 0.961 . S
H648 C632 0.931 . S
H649 C637 0.930 . S
H650 C638 0.956 . S
H651 C638 0.961 . S
H652 C638 0.961 . S
H653 C639 0.958 . S
H654 C639 0.961 . S
H655 C639 0.960 . S
C656 C657 1.391 . S
C656 C658 1.394 . S
C656 H672 0.931 . S
C657 C656 1.391 . S
C657 C661 1.376 . S
C658 C656 1.394 . S
C658 C659 1.369 . S
C658 C662 1.531 . S
C659 C658 1.369 . S
C659 C660 1.410 . S
C659 C667 1.503 . S
C660 C659 1.410 . S
C660 C661 1.392 . S
C660 C663 1.511 . S
C661 C657 1.376 . S
C661 C660 1.392 . S
C661 H673 0.929 . S
C662 C658 1.531 . S
C662 H674 0.960 . S
C662 H675 0.962 . S
C662 H676 0.960 . S
C663 C660 1.511 . S
C663 H677 0.961 . S
C663 H678 0.961 . S
C663 H679 0.961 . S
C664 C665 1.370 . S
C664 C666 1.363 . S
C664 H680 0.931 . S
C665 C664 1.370 . S
C665 C669 1.408 . S
C666 C664 1.363 . S
C666 C667 1.370 . S
C666 C670 1.524 . S
C667 C659 1.503 . S
C667 C666 1.370 . S
C667 C668 1.403 . S
C668 C667 1.403 . S
C668 C669 1.404 . S
C668 C671 1.539 . S
C669 C665 1.408 . S
C669 C668 1.404 . S
C669 H681 0.930 . S
C670 C666 1.524 . S
C670 H682 0.956 . S
C670 H683 0.961 . S
C670 H684 0.961 . S
C671 C668 1.539 . S
C671 H685 0.958 . S
C671 H686 0.961 . S
C671 H687 0.960 . S
H672 C656 0.931 . S
H673 C661 0.929 . S
H674 C662 0.960 . S
H675 C662 0.962 . S
H676 C662 0.960 . S
H677 C663 0.961 . S
H678 C663 0.961 . S
H679 C663 0.961 . S
H680 C664 0.931 . S
H681 C669 0.930 . S
H682 C670 0.956 . S
H683 C670 0.961 . S
H684 C670 0.961 . S
H685 C671 0.958 . S
H686 C671 0.961 . S
H687 C671 0.960 . S
C688 C689 1.391 . S
C688 C690 1.394 . S
C688 H704 0.931 . S
C689 C688 1.391 . S
C689 C693 1.376 . S
C690 C688 1.394 . S
C690 C691 1.369 . S
C690 C694 1.531 1_455 S
C691 C690 1.369 . S
C691 C692 1.410 . S
C691 C699 1.503 1_455 S
C692 C691 1.410 . S
C692 C693 1.392 . S
C692 C695 1.511 . S
C693 C689 1.376 . S
C693 C692 1.392 . S
C693 H705 0.929 . S
C694 C690 1.531 1_655 S
C694 H706 0.960 . S
C694 H707 0.962 . S
C694 H708 0.960 . S
C695 C692 1.511 . S
C695 H709 0.961 . S
C695 H710 0.961 . S
C695 H711 0.961 . S
C696 C697 1.370 . S
C696 C698 1.363 . S
C696 H712 0.931 . S
C697 C696 1.370 . S
C697 C701 1.408 . S
C698 C696 1.363 . S
C698 C699 1.370 . S
C698 C702 1.524 . S
C699 C691 1.503 1_655 S
C699 C698 1.370 . S
C699 C700 1.403 . S
C700 C699 1.403 . S
C700 C701 1.404 . S
C700 C703 1.539 . S
C701 C697 1.408 . S
C701 C700 1.404 . S
C701 H713 0.930 . S
C702 C698 1.524 . S
C702 H714 0.956 . S
C702 H715 0.961 1_655 S
C702 H716 0.961 . S
C703 C700 1.539 . S
C703 H717 0.958 . S
C703 H718 0.961 . S
C703 H719 0.960 1_655 S
H704 C688 0.931 . S
H705 C693 0.929 . S
H706 C694 0.960 . S
H707 C694 0.962 . S
H708 C694 0.960 . S
H709 C695 0.961 . S
H710 C695 0.961 . S
H711 C695 0.961 . S
H712 C696 0.931 . S
H713 C701 0.930 . S
H714 C702 0.956 . S
H715 C702 0.961 1_455 S
H716 C702 0.961 . S
H717 C703 0.958 . S
H718 C703 0.961 . S
H719 C703 0.960 1_455 S
C720 C721 1.391 . S
C720 C722 1.394 . S
C720 H736 0.931 . S
C721 C720 1.391 . S
C721 C725 1.376 . S
C722 C720 1.394 . S
C722 C723 1.369 . S
C722 C726 1.531 . S
C723 C722 1.369 . S
C723 C724 1.410 . S
C723 C731 1.503 . S
C724 C723 1.410 . S
C724 C725 1.392 . S
C724 C727 1.511 . S
C725 C721 1.376 . S
C725 C724 1.392 . S
C725 H737 0.929 . S
C726 C722 1.531 . S
C726 H738 0.960 . S
C726 H739 0.962 . S
C726 H740 0.960 . S
C727 C724 1.511 . S
C727 H741 0.961 . S
C727 H742 0.961 . S
C727 H743 0.961 . S
C728 C729 1.370 . S
C728 C730 1.363 . S
C728 H744 0.931 . S
C729 C728 1.370 . S
C729 C733 1.408 . S
C730 C728 1.363 . S
C730 C731 1.370 . S
C730 C734 1.524 . S
C731 C723 1.503 . S
C731 C730 1.370 . S
C731 C732 1.403 . S
C732 C731 1.403 . S
C732 C733 1.404 . S
C732 C735 1.539 . S
C733 C729 1.408 . S
C733 C732 1.404 . S
C733 H745 0.930 . S
C734 C730 1.524 . S
C734 H746 0.956 . S
C734 H747 0.961 . S
C734 H748 0.961 . S
C735 C732 1.539 . S
C735 H749 0.958 . S
C735 H750 0.961 . S
C735 H751 0.960 . S
H736 C720 0.931 . S
H737 C725 0.929 . S
H738 C726 0.960 . S
H739 C726 0.962 . S
H740 C726 0.960 . S
H741 C727 0.961 . S
H742 C727 0.961 . S
H743 C727 0.961 . S
H744 C728 0.931 . S
H745 C733 0.930 . S
H746 C734 0.956 . S
H747 C734 0.961 . S
H748 C734 0.961 . S
H749 C735 0.958 . S
H750 C735 0.961 . S
H751 C735 0.960 . S
C752 C753 1.391 . S
C752 C754 1.394 . S
C752 H768 0.931 . S
C753 C752 1.391 . S
C753 C757 1.376 . S
C754 C752 1.394 . S
C754 C755 1.369 . S
C754 C758 1.531 . S
C755 C754 1.369 . S
C755 C756 1.410 . S
C755 C763 1.503 . S
C756 C755 1.410 . S
C756 C757 1.392 . S
C756 C759 1.511 . S
C757 C753 1.376 . S
C757 C756 1.392 . S
C757 H769 0.929 . S
C758 C754 1.531 . S
C758 H770 0.960 . S
C758 H771 0.962 . S
C758 H772 0.960 . S
C759 C756 1.511 . S
C759 H773 0.961 . S
C759 H774 0.961 . S
C759 H775 0.961 . S
C760 C761 1.370 . S
C760 C762 1.363 . S
C760 H776 0.931 . S
C761 C760 1.370 . S
C761 C765 1.408 . S
C762 C760 1.363 . S
C762 C763 1.370 . S
C762 C766 1.524 . S
C763 C755 1.503 . S
C763 C762 1.370 . S
C763 C764 1.403 . S
C764 C763 1.403 . S
C764 C765 1.404 . S
C764 C767 1.539 . S
C765 C761 1.408 . S
C765 C764 1.404 . S
C765 H777 0.930 . S
C766 C762 1.524 . S
C766 H778 0.956 . S
C766 H779 0.961 . S
C766 H780 0.961 . S
C767 C764 1.539 . S
C767 H781 0.958 . S
C767 H782 0.961 . S
C767 H783 0.960 . S
H768 C752 0.931 . S
H769 C757 0.929 . S
H770 C758 0.960 . S
H771 C758 0.962 . S
H772 C758 0.960 . S
H773 C759 0.961 . S
H774 C759 0.961 . S
H775 C759 0.961 . S
H776 C760 0.931 . S
H777 C765 0.930 . S
H778 C766 0.956 . S
H779 C766 0.961 . S
H780 C766 0.961 . S
H781 C767 0.958 . S
H782 C767 0.961 . S
H783 C767 0.960 . S
C784 C785 1.391 . S
C784 C786 1.394 . S
C784 H800 0.931 . S
C785 C784 1.391 . S
C785 C789 1.376 . S
C786 C784 1.394 . S
C786 C787 1.369 . S
C786 C790 1.531 . S
C787 C786 1.369 . S
C787 C788 1.410 . S
C787 C795 1.503 . S
C788 C787 1.410 . S
C788 C789 1.392 . S
C788 C791 1.511 . S
C789 C785 1.376 . S
C789 C788 1.392 . S
C789 H801 0.929 . S
C790 C786 1.531 . S
C790 H802 0.960 . S
C790 H803 0.962 . S
C790 H804 0.960 . S
C791 C788 1.511 . S
C791 H805 0.961 . S
C791 H806 0.961 . S
C791 H807 0.961 . S
C792 C793 1.370 . S
C792 C794 1.363 . S
C792 H808 0.931 . S
C793 C792 1.370 . S
C793 C797 1.408 . S
C794 C792 1.363 . S
C794 C795 1.370 . S
C794 C798 1.524 . S
C795 C787 1.503 . S
C795 C794 1.370 . S
C795 C796 1.403 . S
C796 C795 1.403 . S
C796 C797 1.404 . S
C796 C799 1.539 . S
C797 C793 1.408 . S
C797 C796 1.404 . S
C797 H809 0.930 . S
C798 C794 1.524 . S
C798 H810 0.956 . S
C798 H811 0.961 . S
C798 H812 0.961 . S
C799 C796 1.539 . S
C799 H813 0.958 . S
C799 H814 0.961 . S
C799 H815 0.960 . S
H800 C784 0.931 . S
H801 C789 0.929 . S
H802 C790 0.960 . S
H803 C790 0.962 . S
H804 C790 0.960 . S
H805 C791 0.961 . S
H806 C791 0.961 . S
H807 C791 0.961 . S
H808 C792 0.931 . S
H809 C797 0.930 . S
H810 C798 0.956 . S
H811 C798 0.961 . S
H812 C798 0.961 . S
H813 C799 0.958 . S
H814 C799 0.961 . S
H815 C799 0.960 . S
C816 C817 1.391 . S
C816 C818 1.394 . S
C816 H832 0.931 . S
C817 C816 1.391 . S
C817 C821 1.376 . S
C818 C816 1.394 . S
C818 C819 1.369 . S
C818 C822 1.531 . S
C819 C818 1.369 . S
C819 C820 1.410 . S
C819 C827 1.503 . S
C820 C819 1.410 . S
C820 C821 1.392 . S
C820 C823 1.511 . S
C821 C817 1.376 . S
C821 C820 1.392 . S
C821 H833 0.929 . S
C822 C818 1.531 . S
C822 H834 0.960 . S
C822 H835 0.962 . S
C822 H836 0.960 . S
C823 C820 1.511 . S
C823 H837 0.961 . S
C823 H838 0.961 . S
C823 H839 0.961 . S
C824 C825 1.370 . S
C824 C826 1.363 . S
C824 H840 0.931 . S
C825 C824 1.370 . S
C825 C829 1.408 . S
C826 C824 1.363 . S
C826 C827 1.370 . S
C826 C830 1.524 . S
C827 C819 1.503 . S
C827 C826 1.370 . S
C827 C828 1.403 . S
C828 C827 1.403 . S
C828 C829 1.404 . S
C828 C831 1.539 . S
C829 C825 1.408 . S
C829 C828 1.404 . S
C829 H841 0.930 . S
C830 C826 1.524 . S
C830 H842 0.956 . S
C830 H843 0.961 . S
C830 H844 0.961 . S
C831 C828 1.539 . S
C831 H845 0.958 . S
C831 H846 0.961 . S
C831 H847 0.960 . S
H832 C816 0.931 . S
H833 C821 0.929 . S
H834 C822 0.960 . S
H835 C822 0.962 . S
H836 C822 0.960 . S
H837 C823 0.961 . S
H838 C823 0.961 . S
H839 C823 0.961 . S
H840 C824 0.931 . S
H841 C829 0.930 . S
H842 C830 0.956 . S
H843 C830 0.961 . S
H844 C830 0.961 . S
H845 C831 0.958 . S
H846 C831 0.961 . S
H847 C831 0.960 . S
C848 C849 1.391 . S
C848 C850 1.394 . S
C848 H864 0.931 . S
C849 C848 1.391 . S
C849 C853 1.376 . S
C850 C848 1.394 . S
C850 C851 1.369 . S
C850 C854 1.531 . S
C851 C850 1.369 . S
C851 C852 1.410 . S
C851 C859 1.503 . S
C852 C851 1.410 . S
C852 C853 1.392 . S
C852 C855 1.511 . S
C853 C849 1.376 . S
C853 C852 1.392 . S
C853 H865 0.929 . S
C854 C850 1.531 . S
C854 H866 0.960 . S
C854 H867 0.962 . S
C854 H868 0.960 . S
C855 C852 1.511 . S
C855 H869 0.961 . S
C855 H870 0.961 . S
C855 H871 0.961 . S
C856 C857 1.370 . S
C856 C858 1.363 . S
C856 H872 0.931 . S
C857 C856 1.370 . S
C857 C861 1.408 . S
C858 C856 1.363 . S
C858 C859 1.370 . S
C858 C862 1.524 . S
C859 C851 1.503 . S
C859 C858 1.370 . S
C859 C860 1.403 . S
C860 C859 1.403 . S
C860 C861 1.404 . S
C860 C863 1.539 . S
C861 C857 1.408 . S
C861 C860 1.404 . S
C861 H873 0.930 . S
C862 C858 1.524 . S
C862 H874 0.956 . S
C862 H875 0.961 . S
C862 H876 0.961 . S
C863 C860 1.539 . S
C863 H877 0.958 . S
C863 H878 0.961 . S
C863 H879 0.960 . S
H864 C848 0.931 . S
H865 C853 0.929 . S
H866 C854 0.960 . S
H867 C854 0.962 . S
H868 C854 0.960 . S
H869 C855 0.961 . S
H870 C855 0.961 . S
H871 C855 0.961 . S
H872 C856 0.931 . S
H873 C861 0.930 . S
H874 C862 0.956 . S
H875 C862 0.961 . S
H876 C862 0.961 . S
H877 C863 0.958 . S
H878 C863 0.961 . S
H879 C863 0.960 . S
C880 C881 1.391 . S
C880 C882 1.394 . S
C880 H896 0.931 . S
C881 C880 1.391 . S
C881 C885 1.376 . S
C882 C880 1.394 . S
C882 C883 1.369 . S
C882 C886 1.531 . S
C883 C882 1.369 . S
C883 C884 1.410 . S
C883 C891 1.503 . S
C884 C883 1.410 . S
C884 C885 1.392 . S
C884 C887 1.511 . S
C885 C881 1.376 . S
C885 C884 1.392 . S
C885 H897 0.929 . S
C886 C882 1.531 . S
C886 H898 0.960 . S
C886 H899 0.962 . S
C886 H900 0.960 . S
C887 C884 1.511 . S
C887 H901 0.961 . S
C887 H902 0.961 . S
C887 H903 0.961 . S
C888 C889 1.370 . S
C888 C890 1.363 . S
C888 H904 0.931 . S
C889 C888 1.370 . S
C889 C893 1.408 . S
C890 C888 1.363 . S
C890 C891 1.370 . S
C890 C894 1.524 . S
C891 C883 1.503 . S
C891 C890 1.370 . S
C891 C892 1.403 . S
C892 C891 1.403 . S
C892 C893 1.404 . S
C892 C895 1.539 . S
C893 C889 1.408 . S
C893 C892 1.404 . S
C893 H905 0.930 . S
C894 C890 1.524 . S
C894 H906 0.956 . S
C894 H907 0.961 . S
C894 H908 0.961 . S
C895 C892 1.539 . S
C895 H909 0.958 . S
C895 H910 0.961 . S
C895 H911 0.960 . S
H896 C880 0.931 . S
H897 C885 0.929 . S
H898 C886 0.960 . S
H899 C886 0.962 . S
H900 C886 0.960 . S
H901 C887 0.961 . S
H902 C887 0.961 . S
H903 C887 0.961 . S
H904 C888 0.931 . S
H905 C893 0.930 . S
H906 C894 0.956 . S
H907 C894 0.961 . S
H908 C894 0.961 . S
H909 C895 0.958 . S
H910 C895 0.961 . S
H911 C895 0.960 . S
C912 C913 1.391 . S
C912 C914 1.394 . S
C912 H928 0.931 . S
C913 C912 1.391 . S
C913 C917 1.376 . S
C914 C912 1.394 . S
C914 C915 1.369 . S
C914 C918 1.531 . S
C915 C914 1.369 . S
C915 C916 1.410 . S
C915 C923 1.503 . S
C916 C915 1.410 . S
C916 C917 1.392 . S
C916 C919 1.511 . S
C917 C913 1.376 . S
C917 C916 1.392 . S
C917 H929 0.929 . S
C918 C914 1.531 . S
C918 H930 0.960 . S
C918 H931 0.962 . S
C918 H932 0.960 . S
C919 C916 1.511 . S
C919 H933 0.961 . S
C919 H934 0.961 . S
C919 H935 0.961 . S
C920 C921 1.370 . S
C920 C922 1.363 . S
C920 H936 0.931 . S
C921 C920 1.370 . S
C921 C925 1.408 . S
C922 C920 1.363 . S
C922 C923 1.370 . S
C922 C926 1.524 . S
C923 C915 1.503 . S
C923 C922 1.370 . S
C923 C924 1.403 . S
C924 C923 1.403 . S
C924 C925 1.404 . S
C924 C927 1.539 . S
C925 C921 1.408 . S
C925 C924 1.404 . S
C925 H937 0.930 . S
C926 C922 1.524 . S
C926 H938 0.956 . S
C926 H939 0.961 . S
C926 H940 0.961 . S
C927 C924 1.539 . S
C927 H941 0.958 . S
C927 H942 0.961 . S
C927 H943 0.960 . S
H928 C912 0.931 . S
H929 C917 0.929 . S
H930 C918 0.960 . S
H931 C918 0.962 . S
H932 C918 0.960 . S
H933 C919 0.961 . S
H934 C919 0.961 . S
H935 C919 0.961 . S
H936 C920 0.931 . S
H937 C925 0.930 . S
H938 C926 0.956 . S
H939 C926 0.961 . S
H940 C926 0.961 . S
H941 C927 0.958 . S
H942 C927 0.961 . S
H943 C927 0.960 . S
C944 C945 1.391 . S
C944 C946 1.394 . S
C944 H960 0.931 . S
C945 C944 1.391 . S
C945 C949 1.376 . S
C946 C944 1.394 . S
C946 C947 1.369 . S
C946 C950 1.531 . S
C947 C946 1.369 . S
C947 C948 1.410 . S
C947 C955 1.503 . S
C948 C947 1.410 . S
C948 C949 1.392 . S
C948 C951 1.511 . S
C949 C945 1.376 . S
C949 C948 1.392 . S
C949 H961 0.929 . S
C950 C946 1.531 . S
C950 H962 0.960 . S
C950 H963 0.962 . S
C950 H964 0.960 . S
C951 C948 1.511 . S
C951 H965 0.961 . S
C951 H966 0.961 . S
C951 H967 0.961 . S
C952 C953 1.370 . S
C952 C954 1.363 . S
C952 H968 0.931 . S
C953 C952 1.370 . S
C953 C957 1.408 . S
C954 C952 1.363 . S
C954 C955 1.370 . S
C954 C958 1.524 . S
C955 C947 1.503 . S
C955 C954 1.370 . S
C955 C956 1.403 . S
C956 C955 1.403 . S
C956 C957 1.404 . S
C956 C959 1.539 . S
C957 C953 1.408 . S
C957 C956 1.404 . S
C957 H969 0.930 . S
C958 C954 1.524 . S
C958 H970 0.956 . S
C958 H971 0.961 . S
C958 H972 0.961 . S
C959 C956 1.539 . S
C959 H973 0.958 . S
C959 H974 0.961 . S
C959 H975 0.960 . S
H960 C944 0.931 . S
H961 C949 0.929 . S
H962 C950 0.960 . S
H963 C950 0.962 . S
H964 C950 0.960 . S
H965 C951 0.961 . S
H966 C951 0.961 . S
H967 C951 0.961 . S
H968 C952 0.931 . S
H969 C957 0.930 . S
H970 C958 0.956 . S
H971 C958 0.961 . S
H972 C958 0.961 . S
H973 C959 0.958 . S
H974 C959 0.961 . S
H975 C959 0.960 . S
C976 C977 1.391 . S
C976 C978 1.394 . S
C976 H992 0.931 . S
C977 C976 1.391 . S
C977 C981 1.376 . S
C978 C976 1.394 . S
C978 C979 1.369 . S
C978 C982 1.531 . S
C979 C978 1.369 . S
C979 C980 1.410 . S
C979 C987 1.503 . S
C980 C979 1.410 . S
C980 C981 1.392 . S
C980 C983 1.511 . S
C981 C977 1.376 . S
C981 C980 1.392 . S
C981 H993 0.929 . S
C982 C978 1.531 . S
C982 H994 0.960 . S
C982 H995 0.962 . S
C982 H996 0.960 . S
C983 C980 1.511 . S
C983 H997 0.961 . S
C983 H998 0.961 . S
C983 H999 0.961 . S
C984 C985 1.370 . S
C984 C986 1.363 . S
C984 H1000 0.931 . S
C985 C984 1.370 . S
C985 C989 1.408 . S
C986 C984 1.363 . S
C986 C987 1.370 . S
C986 C990 1.524 . S
C987 C979 1.503 . S
C987 C986 1.370 . S
C987 C988 1.403 . S
C988 C987 1.403 . S
C988 C989 1.404 . S
C988 C991 1.539 . S
C989 C985 1.408 . S
C989 C988 1.404 . S
C989 H1001 0.930 . S
C990 C986 1.524 . S
C990 H1002 0.956 . S
C990 H1003 0.961 . S
C990 H1004 0.961 . S
C991 C988 1.539 . S
C991 H1005 0.958 . S
C991 H1006 0.961 . S
C991 H1007 0.960 . S
H992 C976 0.931 . S
H993 C981 0.929 . S
H994 C982 0.960 . S
H995 C982 0.962 . S
H996 C982 0.960 . S
H997 C983 0.961 . S
H998 C983 0.961 . S
H999 C983 0.961 . S
H1000 C984 0.931 . S
H1001 C989 0.930 . S
H1002 C990 0.956 . S
H1003 C990 0.961 . S
H1004 C990 0.961 . S
H1005 C991 0.958 . S
H1006 C991 0.961 . S
H1007 C991 0.960 . S
C1008 C1009 1.391 . S
C1008 C1010 1.394 . S
C1008 H1024 0.931 . S
C1009 C1008 1.391 . S
C1009 C1013 1.376 . S
C1010 C1008 1.394 . S
C1010 C1011 1.369 . S
C1010 C1014 1.531 . S
C1011 C1010 1.369 . S
C1011 C1012 1.410 . S
C1011 C1019 1.503 . S
C1012 C1011 1.410 . S
C1012 C1013 1.392 . S
C1012 C1015 1.511 . S
C1013 C1009 1.376 . S
C1013 C1012 1.392 . S
C1013 H1025 0.929 . S
C1014 C1010 1.531 . S
C1014 H1026 0.960 . S
C1014 H1027 0.962 . S
C1014 H1028 0.960 . S
C1015 C1012 1.511 . S
C1015 H1029 0.961 . S
C1015 H1030 0.961 . S
C1015 H1031 0.961 . S
C1016 C1017 1.370 . S
C1016 C1018 1.363 . S
C1016 H1032 0.931 . S
C1017 C1016 1.370 . S
C1017 C1021 1.408 . S
C1018 C1016 1.363 . S
C1018 C1019 1.370 . S
C1018 C1022 1.524 . S
C1019 C1011 1.503 . S
C1019 C1018 1.370 . S
C1019 C1020 1.403 . S
C1020 C1019 1.403 . S
C1020 C1021 1.404 . S
C1020 C1023 1.539 . S
C1021 C1017 1.408 . S
C1021 C1020 1.404 . S
C1021 H1033 0.930 . S
C1022 C1018 1.524 . S
C1022 H1034 0.956 . S
C1022 H1035 0.961 . S
C1022 H1036 0.961 . S
C1023 C1020 1.539 . S
C1023 H1037 0.958 . S
C1023 H1038 0.961 . S
C1023 H1039 0.960 . S
H1024 C1008 0.931 . S
H1025 C1013 0.929 . S
H1026 C1014 0.960 . S
H1027 C1014 0.962 . S
H1028 C1014 0.960 . S
H1029 C1015 0.961 . S
H1030 C1015 0.961 . S
H1031 C1015 0.961 . S
H1032 C1016 0.931 . S
H1033 C1021 0.930 . S
H1034 C1022 0.956 . S
H1035 C1022 0.961 . S
H1036 C1022 0.961 . S
H1037 C1023 0.958 . S
H1038 C1023 0.961 . S
H1039 C1023 0.960 . S
C1040 C1041 1.391 . S
C1040 C1042 1.394 . S
C1040 H1056 0.931 . S
C1041 C1040 1.391 . S
C1041 C1045 1.376 . S
C1042 C1040 1.394 . S
C1042 C1043 1.369 . S
C1042 C1046 1.531 . S
C1043 C1042 1.369 . S
C1043 C1044 1.410 . S
C1043 C1051 1.503 . S
C1044 C1043 1.410 . S
C1044 C1045 1.392 . S
C1044 C1047 1.511 . S
C1045 C1041 1.376 . S
C1045 C1044 1.392 . S
C1045 H1057 0.929 . S
C1046 C1042 1.531 . S
C1046 H1058 0.960 . S
C1046 H1059 0.962 . S
C1046 H1060 0.960 . S
C1047 C1044 1.511 . S
C1047 H1061 0.961 . S
C1047 H1062 0.961 . S
C1047 H1063 0.961 . S
C1048 C1049 1.370 . S
C1048 C1050 1.363 . S
C1048 H1064 0.931 . S
C1049 C1048 1.370 . S
C1049 C1053 1.408 . S
C1050 C1048 1.363 . S
C1050 C1051 1.370 . S
C1050 C1054 1.524 . S
C1051 C1043 1.503 . S
C1051 C1050 1.370 . S
C1051 C1052 1.403 . S
C1052 C1051 1.403 . S
C1052 C1053 1.404 . S
C1052 C1055 1.539 . S
C1053 C1049 1.408 . S
C1053 C1052 1.404 . S
C1053 H1065 0.930 . S
C1054 C1050 1.524 . S
C1054 H1066 0.956 . S
C1054 H1067 0.961 . S
C1054 H1068 0.961 . S
C1055 C1052 1.539 . S
C1055 H1069 0.958 . S
C1055 H1070 0.961 . S
C1055 H1071 0.960 . S
H1056 C1040 0.931 . S
H1057 C1045 0.929 . S
H1058 C1046 0.960 . S
H1059 C1046 0.962 . S
H1060 C1046 0.960 . S
H1061 C1047 0.961 . S
H1062 C1047 0.961 . S
H1063 C1047 0.961 . S
H1064 C1048 0.931 . S
H1065 C1053 0.930 . S
H1066 C1054 0.956 . S
H1067 C1054 0.961 . S
H1068 C1054 0.961 . S
H1069 C1055 0.958 . S
H1070 C1055 0.961 . S
H1071 C1055 0.960 . S
C1072 C1073 1.391 . S
C1072 C1074 1.394 . S
C1072 H1088 0.931 . S
C1073 C1072 1.391 . S
C1073 C1077 1.376 . S
C1074 C1072 1.394 . S
C1074 C1075 1.369 . S
C1074 C1078 1.531 . S
C1075 C1074 1.369 . S
C1075 C1076 1.410 . S
C1075 C1083 1.503 . S
C1076 C1075 1.410 . S
C1076 C1077 1.392 . S
C1076 C1079 1.511 . S
C1077 C1073 1.376 . S
C1077 C1076 1.392 . S
C1077 H1089 0.929 . S
C1078 C1074 1.531 . S
C1078 H1090 0.960 . S
C1078 H1091 0.962 . S
C1078 H1092 0.960 . S
C1079 C1076 1.511 . S
C1079 H1093 0.961 . S
C1079 H1094 0.961 . S
C1079 H1095 0.961 . S
C1080 C1081 1.370 . S
C1080 C1082 1.363 . S
C1080 H1096 0.931 . S
C1081 C1080 1.370 . S
C1081 C1085 1.408 . S
C1082 C1080 1.363 . S
C1082 C1083 1.370 . S
C1082 C1086 1.524 . S
C1083 C1075 1.503 . S
C1083 C1082 1.370 . S
C1083 C1084 1.403 . S
C1084 C1083 1.403 . S
C1084 C1085 1.404 . S
C1084 C1087 1.539 . S
C1085 C1081 1.408 . S
C1085 C1084 1.404 . S
C1085 H1097 0.930 . S
C1086 C1082 1.524 . S
C1086 H1098 0.956 . S
C1086 H1099 0.961 . S
C1086 H1100 0.961 . S
C1087 C1084 1.539 . S
C1087 H1101 0.958 . S
C1087 H1102 0.961 . S
C1087 H1103 0.960 . S
H1088 C1072 0.931 . S
H1089 C1077 0.929 . S
H1090 C1078 0.960 . S
H1091 C1078 0.962 . S
H1092 C1078 0.960 . S
H1093 C1079 0.961 . S
H1094 C1079 0.961 . S
H1095 C1079 0.961 . S
H1096 C1080 0.931 . S
H1097 C1085 0.930 . S
H1098 C1086 0.956 . S
H1099 C1086 0.961 . S
H1100 C1086 0.961 . S
H1101 C1087 0.958 . S
H1102 C1087 0.961 . S
H1103 C1087 0.960 . S
C1104 C1105 1.391 . S
C1104 C1106 1.394 . S
C1104 H1120 0.931 . S
C1105 C1104 1.391 . S
C1105 C1109 1.376 . S
C1106 C1104 1.394 . S
C1106 C1107 1.369 . S
C1106 C1110 1.531 . S
C1107 C1106 1.369 . S
C1107 C1108 1.410 . S
C1107 C1115 1.503 1_554 S
C1108 C1107 1.410 . S
C1108 C1109 1.392 . S
C1108 C1111 1.511 . S
C1109 C1105 1.376 . S
C1109 C1108 1.392 . S
C1109 H1121 0.929 . S
C1110 C1106 1.531 . S
C1110 H1122 0.960 1_554 S
C1110 H1123 0.962 . S
C1110 H1124 0.960 . S
C1111 C1108 1.511 . S
C1111 H1125 0.961 . S
C1111 H1126 0.961 1_554 S
C1111 H1127 0.961 . S
C1112 C1113 1.370 . S
C1112 C1114 1.363 . S
C1112 H1128 0.931 . S
C1113 C1112 1.370 . S
C1113 C1117 1.408 . S
C1114 C1112 1.363 . S
C1114 C1115 1.370 . S
C1114 C1118 1.524 . S
C1115 C1107 1.503 1_556 S
C1115 C1114 1.370 . S
C1115 C1116 1.403 . S
C1116 C1115 1.403 . S
C1116 C1117 1.404 . S
C1116 C1119 1.539 . S
C1117 C1113 1.408 . S
C1117 C1116 1.404 . S
C1117 H1129 0.930 . S
C1118 C1114 1.524 . S
C1118 H1130 0.956 . S
C1118 H1131 0.961 1_556 S
C1118 H1132 0.961 . S
C1119 C1116 1.539 . S
C1119 H1133 0.958 . S
C1119 H1134 0.961 . S
C1119 H1135 0.971 . S
H1120 C1104 0.931 . S
H1121 C1109 0.929 . S
H1122 C1110 0.960 1_556 S
H1123 C1110 0.962 . S
H1124 C1110 0.960 . S
H1125 C1111 0.961 . S
H1126 C1111 0.961 1_556 S
H1127 C1111 0.961 . S
H1128 C1112 0.931 . S
H1129 C1117 0.930 . S
H1130 C1118 0.956 . S
H1131 C1118 0.961 1_554 S
H1132 C1118 0.961 . S
H1133 C1119 0.958 . S
H1134 C1119 0.961 . S
H1135 C1119 0.971 . S
C1136 C1137 1.391 . S
C1136 C1138 1.394 . S
C1136 H1152 0.931 . S
C1137 C1136 1.391 . S
C1137 C1141 1.376 . S
C1138 C1136 1.394 . S
C1138 C1139 1.369 . S
C1138 C1142 1.531 . S
C1139 C1138 1.369 . S
C1139 C1140 1.410 . S
C1139 C1147 1.503 1_556 S
C1140 C1139 1.410 . S
C1140 C1141 1.392 . S
C1140 C1143 1.511 . S
C1141 C1137 1.376 . S
C1141 C1140 1.392 . S
C1141 H1153 0.929 . S
C1142 C1138 1.531 . S
C1142 H1154 0.960 1_556 S
C1142 H1155 0.962 . S
C1142 H1156 0.960 . S
C1143 C1140 1.511 . S
C1143 H1157 0.961 . S
C1143 H1158 0.961 1_556 S
C1143 H1159 0.961 . S
C1144 C1145 1.370 . S
C1144 C1146 1.363 . S
C1144 H1160 0.931 . S
C1145 C1144 1.370 . S
C1145 C1149 1.408 . S
C1146 C1144 1.363 . S
C1146 C1147 1.370 . S
C1146 C1150 1.524 . S
C1147 C1139 1.503 1_554 S
C1147 C1146 1.370 . S
C1147 C1148 1.403 . S
C1148 C1147 1.403 . S
C1148 C1149 1.404 . S
C1148 C1151 1.539 . S
C1149 C1145 1.408 . S
C1149 C1148 1.404 . S
C1149 H1161 0.930 . S
C1150 C1146 1.524 . S
C1150 H1162 0.956 . S
C1150 H1163 0.961 1_554 S
C1150 H1164 0.961 . S
C1151 C1148 1.539 . S
C1151 H1165 0.958 . S
C1151 H1166 0.961 . S
C1151 H1167 0.971 . S
H1152 C1136 0.931 . S
H1153 C1141 0.929 . S
H1154 C1142 0.960 1_554 S
H1155 C1142 0.962 . S
H1156 C1142 0.960 . S
H1157 C1143 0.961 . S
H1158 C1143 0.961 1_554 S
H1159 C1143 0.961 . S
H1160 C1144 0.931 . S
H1161 C1149 0.930 . S
H1162 C1150 0.956 . S
H1163 C1150 0.961 1_556 S
H1164 C1150 0.961 . S
H1165 C1151 0.958 . S
H1166 C1151 0.961 . S
H1167 C1151 0.971 . S
C1168 C1169 1.391 . S
C1168 C1170 1.394 . S
C1168 H1184 0.931 . S
C1169 C1168 1.391 . S
C1169 C1173 1.376 . S
C1170 C1168 1.394 . S
C1170 C1171 1.369 . S
C1170 C1174 1.531 . S
C1171 C1170 1.369 . S
C1171 C1172 1.410 . S
C1171 C1179 1.503 1_556 S
C1172 C1171 1.410 . S
C1172 C1173 1.392 . S
C1172 C1175 1.511 . S
C1173 C1169 1.376 . S
C1173 C1172 1.392 . S
C1173 H1185 0.929 . S
C1174 C1170 1.531 . S
C1174 H1186 0.960 1_556 S
C1174 H1187 0.962 . S
C1174 H1188 0.960 . S
C1175 C1172 1.511 . S
C1175 H1189 0.961 . S
C1175 H1190 0.961 1_556 S
C1175 H1191 0.961 . S
C1176 C1177 1.370 . S
C1176 C1178 1.363 . S
C1176 H1192 0.931 . S
C1177 C1176 1.370 . S
C1177 C1181 1.408 . S
C1178 C1176 1.363 . S
C1178 C1179 1.370 . S
C1178 C1182 1.524 . S
C1179 C1171 1.503 1_554 S
C1179 C1178 1.370 . S
C1179 C1180 1.403 . S
C1180 C1179 1.403 . S
C1180 C1181 1.404 . S
C1180 C1183 1.539 . S
C1181 C1177 1.408 . S
C1181 C1180 1.404 . S
C1181 H1193 0.930 . S
C1182 C1178 1.524 . S
C1182 H1194 0.956 . S
C1182 H1195 0.961 1_554 S
C1182 H1196 0.961 . S
C1183 C1180 1.539 . S
C1183 H1197 0.958 . S
C1183 H1198 0.961 . S
C1183 H1199 0.971 . S
H1184 C1168 0.931 . S
H1185 C1173 0.929 . S
H1186 C1174 0.960 1_554 S
H1187 C1174 0.962 . S
H1188 C1174 0.960 . S
H1189 C1175 0.961 . S
H1190 C1175 0.961 1_554 S
H1191 C1175 0.961 . S
H1192 C1176 0.931 . S
H1193 C1181 0.930 . S
H1194 C1182 0.956 . S
H1195 C1182 0.961 1_556 S
H1196 C1182 0.961 . S
H1197 C1183 0.958 . S
H1198 C1183 0.961 . S
H1199 C1183 0.971 . S
C1200 C1201 1.391 . S
C1200 C1202 1.394 . S
C1200 H1216 0.931 . S
C1201 C1200 1.391 . S
C1201 C1205 1.376 . S
C1202 C1200 1.394 . S
C1202 C1203 1.369 . S
C1202 C1206 1.531 . S
C1203 C1202 1.369 . S
C1203 C1204 1.410 . S
C1203 C1211 1.503 1_554 S
C1204 C1203 1.410 . S
C1204 C1205 1.392 . S
C1204 C1207 1.511 . S
C1205 C1201 1.376 . S
C1205 C1204 1.392 . S
C1205 H1217 0.929 . S
C1206 C1202 1.531 . S
C1206 H1218 0.960 1_554 S
C1206 H1219 0.962 . S
C1206 H1220 0.960 . S
C1207 C1204 1.511 . S
C1207 H1221 0.961 . S
C1207 H1222 0.961 1_554 S
C1207 H1223 0.961 . S
C1208 C1209 1.370 . S
C1208 C1210 1.363 . S
C1208 H1224 0.931 . S
C1209 C1208 1.370 . S
C1209 C1213 1.408 . S
C1210 C1208 1.363 . S
C1210 C1211 1.370 . S
C1210 C1214 1.524 . S
C1211 C1203 1.503 1_556 S
C1211 C1210 1.370 . S
C1211 C1212 1.403 . S
C1212 C1211 1.403 . S
C1212 C1213 1.404 . S
C1212 C1215 1.539 . S
C1213 C1209 1.408 . S
C1213 C1212 1.404 . S
C1213 H1225 0.930 . S
C1214 C1210 1.524 . S
C1214 H1226 0.956 . S
C1214 H1227 0.961 1_556 S
C1214 H1228 0.961 . S
C1215 C1212 1.539 . S
C1215 H1229 0.958 . S
C1215 H1230 0.961 . S
C1215 H1231 0.971 . S
H1216 C1200 0.931 . S
H1217 C1205 0.929 . S
H1218 C1206 0.960 1_556 S
H1219 C1206 0.962 . S
H1220 C1206 0.960 . S
H1221 C1207 0.961 . S
H1222 C1207 0.961 1_556 S
H1223 C1207 0.961 . S
H1224 C1208 0.931 . S
H1225 C1213 0.930 . S
H1226 C1214 0.956 . S
H1227 C1214 0.961 1_554 S
H1228 C1214 0.961 . S
H1229 C1215 0.958 . S
H1230 C1215 0.961 . S
H1231 C1215 0.971 . S
C1232 C1233 1.391 . S
C1232 C1234 1.394 . S
C1232 H1248 0.931 . S
C1233 C1232 1.391 . S
C1233 C1237 1.376 . S
C1234 C1232 1.394 . S
C1234 C1235 1.369 . S
C1234 C1238 1.531 . S
C1235 C1234 1.369 . S
C1235 C1236 1.410 . S
C1235 C1243 1.503 1_554 S
C1236 C1235 1.410 . S
C1236 C1237 1.392 . S
C1236 C1239 1.511 . S
C1237 C1233 1.376 . S
C1237 C1236 1.392 . S
C1237 H1249 0.929 . S
C1238 C1234 1.531 . S
C1238 H1250 0.960 1_554 S
C1238 H1251 0.962 . S
C1238 H1252 0.960 . S
C1239 C1236 1.511 . S
C1239 H1253 0.961 . S
C1239 H1254 0.961 1_554 S
C1239 H1255 0.961 . S
C1240 C1241 1.370 . S
C1240 C1242 1.363 . S
C1240 H1256 0.931 . S
C1241 C1240 1.370 . S
C1241 C1245 1.408 . S
C1242 C1240 1.363 . S
C1242 C1243 1.370 . S
C1242 C1246 1.524 . S
C1243 C1235 1.503 1_556 S
C1243 C1242 1.370 . S
C1243 C1244 1.403 . S
C1244 C1243 1.403 . S
C1244 C1245 1.404 . S
C1244 C1247 1.539 . S
C1245 C1241 1.408 . S
C1245 C1244 1.404 . S
C1245 H1257 0.930 . S
C1246 C1242 1.524 . S
C1246 H1258 0.956 . S
C1246 H1259 0.961 1_556 S
C1246 H1260 0.961 . S
C1247 C1244 1.539 . S
C1247 H1261 0.958 . S
C1247 H1262 0.961 . S
C1247 H1263 0.971 . S
H1248 C1232 0.931 . S
H1249 C1237 0.929 . S
H1250 C1238 0.960 1_556 S
H1251 C1238 0.962 . S
H1252 C1238 0.960 . S
H1253 C1239 0.961 . S
H1254 C1239 0.961 1_556 S
H1255 C1239 0.961 . S
H1256 C1240 0.931 . S
H1257 C1245 0.930 . S
H1258 C1246 0.956 . S
H1259 C1246 0.961 1_554 S
H1260 C1246 0.961 . S
H1261 C1247 0.958 . S
H1262 C1247 0.961 . S
H1263 C1247 0.971 . S
C1264 C1265 1.391 . S
C1264 C1266 1.394 . S
C1264 H1280 0.931 . S
C1265 C1264 1.391 . S
C1265 C1269 1.376 . S
C1266 C1264 1.394 . S
C1266 C1267 1.369 . S
C1266 C1270 1.531 . S
C1267 C1266 1.369 . S
C1267 C1268 1.410 . S
C1267 C1275 1.503 1_556 S
C1268 C1267 1.410 . S
C1268 C1269 1.392 . S
C1268 C1271 1.511 . S
C1269 C1265 1.376 . S
C1269 C1268 1.392 . S
C1269 H1281 0.929 . S
C1270 C1266 1.531 . S
C1270 H1282 0.960 1_556 S
C1270 H1283 0.962 . S
C1270 H1284 0.960 . S
C1271 C1268 1.511 . S
C1271 H1285 0.961 . S
C1271 H1286 0.961 1_556 S
C1271 H1287 0.961 . S
C1272 C1273 1.370 . S
C1272 C1274 1.363 . S
C1272 H1288 0.931 . S
C1273 C1272 1.370 . S
C1273 C1277 1.408 . S
C1274 C1272 1.363 . S
C1274 C1275 1.370 . S
C1274 C1278 1.524 . S
C1275 C1267 1.503 1_554 S
C1275 C1274 1.370 . S
C1275 C1276 1.403 . S
C1276 C1275 1.403 . S
C1276 C1277 1.404 . S
C1276 C1279 1.539 . S
C1277 C1273 1.408 . S
C1277 C1276 1.404 . S
C1277 H1289 0.930 . S
C1278 C1274 1.524 . S
C1278 H1290 0.956 . S
C1278 H1291 0.961 1_554 S
C1278 H1292 0.961 . S
C1279 C1276 1.539 . S
C1279 H1293 0.958 . S
C1279 H1294 0.961 . S
C1279 H1295 0.971 . S
H1280 C1264 0.931 . S
H1281 C1269 0.929 . S
H1282 C1270 0.960 1_554 S
H1283 C1270 0.962 . S
H1284 C1270 0.960 . S
H1285 C1271 0.961 . S
H1286 C1271 0.961 1_554 S
H1287 C1271 0.961 . S
H1288 C1272 0.931 . S
H1289 C1277 0.930 . S
H1290 C1278 0.956 . S
H1291 C1278 0.961 1_556 S
H1292 C1278 0.961 . S
H1293 C1279 0.958 . S
H1294 C1279 0.961 . S
H1295 C1279 0.971 . S
C1296 C1297 1.391 . S
C1296 C1298 1.394 . S
C1296 H1312 0.931 . S
C1297 C1296 1.391 . S
C1297 C1301 1.376 . S
C1298 C1296 1.394 . S
C1298 C1299 1.369 . S
C1298 C1302 1.531 . S
C1299 C1298 1.369 . S
C1299 C1300 1.410 . S
C1299 C1307 1.503 . S
C1300 C1299 1.410 . S
C1300 C1301 1.392 . S
C1300 C1303 1.511 . S
C1301 C1297 1.376 . S
C1301 C1300 1.392 . S
C1301 H1313 0.929 . S
C1302 C1298 1.531 . S
C1302 H1314 0.960 . S
C1302 H1315 0.962 . S
C1302 H1316 0.960 . S
C1303 C1300 1.511 . S
C1303 H1317 0.961 . S
C1303 H1318 0.961 . S
C1303 H1319 0.961 . S
C1304 C1305 1.370 . S
C1304 C1306 1.363 . S
C1304 H1320 0.931 . S
C1305 C1304 1.370 . S
C1305 C1309 1.408 . S
C1306 C1304 1.363 . S
C1306 C1307 1.370 . S
C1306 C1310 1.524 . S
C1307 C1299 1.503 . S
C1307 C1306 1.370 . S
C1307 C1308 1.403 . S
C1308 C1307 1.403 . S
C1308 C1309 1.404 . S
C1308 C1311 1.539 . S
C1309 C1305 1.408 . S
C1309 C1308 1.404 . S
C1309 H1321 0.930 . S
C1310 C1306 1.524 . S
C1310 H1322 0.956 . S
C1310 H1323 0.961 . S
C1310 H1324 0.961 . S
C1311 C1308 1.539 . S
C1311 H1325 0.958 . S
C1311 H1326 0.961 . S
C1311 H1327 0.960 . S
H1312 C1296 0.931 . S
H1313 C1301 0.929 . S
H1314 C1302 0.960 . S
H1315 C1302 0.962 . S
H1316 C1302 0.960 . S
H1317 C1303 0.961 . S
H1318 C1303 0.961 . S
H1319 C1303 0.961 . S
H1320 C1304 0.931 . S
H1321 C1309 0.930 . S
H1322 C1310 0.956 . S
H1323 C1310 0.961 . S
H1324 C1310 0.961 . S
H1325 C1311 0.958 . S
H1326 C1311 0.961 . S
H1327 C1311 0.960 . S
C1328 C1329 1.391 . S
C1328 C1330 1.394 . S
C1328 H1344 0.931 . S
C1329 C1328 1.391 . S
C1329 C1333 1.376 . S
C1330 C1328 1.394 . S
C1330 C1331 1.369 . S
C1330 C1334 1.531 . S
C1331 C1330 1.369 . S
C1331 C1332 1.410 . S
C1331 C1339 1.503 . S
C1332 C1331 1.410 . S
C1332 C1333 1.392 . S
C1332 C1335 1.511 . S
C1333 C1329 1.376 . S
C1333 C1332 1.392 . S
C1333 H1345 0.929 . S
C1334 C1330 1.531 . S
C1334 H1346 0.960 . S
C1334 H1347 0.962 . S
C1334 H1348 0.960 . S
C1335 C1332 1.511 . S
C1335 H1349 0.961 . S
C1335 H1350 0.961 . S
C1335 H1351 0.961 . S
C1336 C1337 1.370 . S
C1336 C1338 1.363 . S
C1336 H1352 0.931 . S
C1337 C1336 1.370 . S
C1337 C1341 1.408 . S
C1338 C1336 1.363 . S
C1338 C1339 1.370 . S
C1338 C1342 1.524 . S
C1339 C1331 1.503 . S
C1339 C1338 1.370 . S
C1339 C1340 1.403 . S
C1340 C1339 1.403 . S
C1340 C1341 1.404 . S
C1340 C1343 1.539 . S
C1341 C1337 1.408 . S
C1341 C1340 1.404 . S
C1341 H1353 0.930 . S
C1342 C1338 1.524 . S
C1342 H1354 0.956 . S
C1342 H1355 0.961 . S
C1342 H1356 0.961 . S
C1343 C1340 1.539 . S
C1343 H1357 0.958 . S
C1343 H1358 0.961 . S
C1343 H1359 0.960 . S
H1344 C1328 0.931 . S
H1345 C1333 0.929 . S
H1346 C1334 0.960 . S
H1347 C1334 0.962 . S
H1348 C1334 0.960 . S
H1349 C1335 0.961 . S
H1350 C1335 0.961 . S
H1351 C1335 0.961 . S
H1352 C1336 0.931 . S
H1353 C1341 0.930 . S
H1354 C1342 0.956 . S
H1355 C1342 0.961 . S
H1356 C1342 0.961 . S
H1357 C1343 0.958 . S
H1358 C1343 0.961 . S
H1359 C1343 0.960 . S
C1360 C1361 1.391 . S
C1360 C1362 1.394 . S
C1360 H1376 0.931 . S
C1361 C1360 1.391 . S
C1361 C1365 1.376 . S
C1362 C1360 1.394 . S
C1362 C1363 1.369 . S
C1362 C1366 1.531 . S
C1363 C1362 1.369 . S
C1363 C1364 1.410 . S
C1363 C1371 1.503 . S
C1364 C1363 1.410 . S
C1364 C1365 1.392 . S
C1364 C1367 1.511 . S
C1365 C1361 1.376 . S
C1365 C1364 1.392 . S
C1365 H1377 0.929 . S
C1366 C1362 1.531 . S
C1366 H1378 0.960 . S
C1366 H1379 0.962 . S
C1366 H1380 0.960 . S
C1367 C1364 1.511 . S
C1367 H1381 0.961 . S
C1367 H1382 0.961 . S
C1367 H1383 0.961 . S
C1368 C1369 1.370 . S
C1368 C1370 1.363 . S
C1368 H1384 0.931 . S
C1369 C1368 1.370 . S
C1369 C1373 1.408 . S
C1370 C1368 1.363 . S
C1370 C1371 1.370 . S
C1370 C1374 1.524 . S
C1371 C1363 1.503 . S
C1371 C1370 1.370 . S
C1371 C1372 1.403 . S
C1372 C1371 1.403 . S
C1372 C1373 1.404 . S
C1372 C1375 1.539 . S
C1373 C1369 1.408 . S
C1373 C1372 1.404 . S
C1373 H1385 0.930 . S
C1374 C1370 1.524 . S
C1374 H1386 0.956 . S
C1374 H1387 0.961 . S
C1374 H1388 0.961 . S
C1375 C1372 1.539 . S
C1375 H1389 0.958 . S
C1375 H1390 0.961 . S
C1375 H1391 0.960 . S
H1376 C1360 0.931 . S
H1377 C1365 0.929 . S
H1378 C1366 0.960 . S
H1379 C1366 0.962 . S
H1380 C1366 0.960 . S
H1381 C1367 0.961 . S
H1382 C1367 0.961 . S
H1383 C1367 0.961 . S
H1384 C1368 0.931 . S
H1385 C1373 0.930 . S
H1386 C1374 0.956 . S
H1387 C1374 0.961 . S
H1388 C1374 0.961 . S
H1389 C1375 0.958 . S
H1390 C1375 0.961 . S
H1391 C1375 0.960 . S
C1392 C1393 1.391 . S
C1392 C1394 1.394 . S
C1392 H1408 0.931 . S
C1393 C1392 1.391 . S
C1393 C1397 1.376 . S
C1394 C1392 1.394 . S
C1394 C1395 1.369 . S
C1394 C1398 1.531 . S
C1395 C1394 1.369 . S
C1395 C1396 1.410 . S
C1395 C1403 1.503 . S
C1396 C1395 1.410 . S
C1396 C1397 1.392 . S
C1396 C1399 1.511 . S
C1397 C1393 1.376 . S
C1397 C1396 1.392 . S
C1397 H1409 0.929 . S
C1398 C1394 1.531 . S
C1398 H1410 0.960 . S
C1398 H1411 0.962 . S
C1398 H1412 0.960 . S
C1399 C1396 1.511 . S
C1399 H1413 0.961 . S
C1399 H1414 0.961 . S
C1399 H1415 0.961 . S
C1400 C1401 1.370 . S
C1400 C1402 1.363 . S
C1400 H1416 0.931 . S
C1401 C1400 1.370 . S
C1401 C1405 1.408 . S
C1402 C1400 1.363 . S
C1402 C1403 1.370 . S
C1402 C1406 1.524 . S
C1403 C1395 1.503 . S
C1403 C1402 1.370 . S
C1403 C1404 1.403 . S
C1404 C1403 1.403 . S
C1404 C1405 1.404 . S
C1404 C1407 1.539 . S
C1405 C1401 1.408 . S
C1405 C1404 1.404 . S
C1405 H1417 0.930 . S
C1406 C1402 1.524 . S
C1406 H1418 0.956 . S
C1406 H1419 0.961 . S
C1406 H1420 0.961 . S
C1407 C1404 1.539 . S
C1407 H1421 0.958 . S
C1407 H1422 0.961 . S
C1407 H1423 0.960 . S
H1408 C1392 0.931 . S
H1409 C1397 0.929 . S
H1410 C1398 0.960 . S
H1411 C1398 0.962 . S
H1412 C1398 0.960 . S
H1413 C1399 0.961 . S
H1414 C1399 0.961 . S
H1415 C1399 0.961 . S
H1416 C1400 0.931 . S
H1417 C1405 0.930 . S
H1418 C1406 0.956 . S
H1419 C1406 0.961 . S
H1420 C1406 0.961 . S
H1421 C1407 0.958 . S
H1422 C1407 0.961 . S
H1423 C1407 0.960 . S
C1424 C1425 1.391 . S
C1424 C1426 1.394 . S
C1424 H1440 0.931 . S
C1425 C1424 1.391 . S
C1425 C1429 1.376 . S
C1426 C1424 1.394 . S
C1426 C1427 1.369 . S
C1426 C1430 1.531 . S
C1427 C1426 1.369 . S
C1427 C1428 1.410 . S
C1427 C1435 1.503 . S
C1428 C1427 1.410 . S
C1428 C1429 1.392 . S
C1428 C1431 1.511 . S
C1429 C1425 1.376 . S
C1429 C1428 1.392 . S
C1429 H1441 0.929 . S
C1430 C1426 1.531 . S
C1430 H1442 0.960 . S
C1430 H1443 0.962 . S
C1430 H1444 0.960 . S
C1431 C1428 1.511 . S
C1431 H1445 0.961 . S
C1431 H1446 0.961 . S
C1431 H1447 0.961 . S
C1432 C1433 1.370 . S
C1432 C1434 1.363 . S
C1432 H1448 0.931 . S
C1433 C1432 1.370 . S
C1433 C1437 1.408 . S
C1434 C1432 1.363 . S
C1434 C1435 1.370 . S
C1434 C1438 1.524 . S
C1435 C1427 1.503 . S
C1435 C1434 1.370 . S
C1435 C1436 1.403 . S
C1436 C1435 1.403 . S
C1436 C1437 1.404 . S
C1436 C1439 1.539 . S
C1437 C1433 1.408 . S
C1437 C1436 1.404 . S
C1437 H1449 0.930 . S
C1438 C1434 1.524 . S
C1438 H1450 0.956 . S
C1438 H1451 0.961 . S
C1438 H1452 0.961 . S
C1439 C1436 1.539 . S
C1439 H1453 0.958 . S
C1439 H1454 0.961 . S
C1439 H1455 0.960 . S
H1440 C1424 0.931 . S
H1441 C1429 0.929 . S
H1442 C1430 0.960 . S
H1443 C1430 0.962 . S
H1444 C1430 0.960 . S
H1445 C1431 0.961 . S
H1446 C1431 0.961 . S
H1447 C1431 0.961 . S
H1448 C1432 0.931 . S
H1449 C1437 0.930 . S
H1450 C1438 0.956 . S
H1451 C1438 0.961 . S
H1452 C1438 0.961 . S
H1453 C1439 0.958 . S
H1454 C1439 0.961 . S
H1455 C1439 0.960 . S
C1456 C1457 1.391 . S
C1456 C1458 1.394 . S
C1456 H1472 0.931 . S
C1457 C1456 1.391 . S
C1457 C1461 1.376 . S
C1458 C1456 1.394 . S
C1458 C1459 1.369 . S
C1458 C1462 1.531 . S
C1459 C1458 1.369 . S
C1459 C1460 1.410 . S
C1459 C1467 1.503 . S
C1460 C1459 1.410 . S
C1460 C1461 1.392 . S
C1460 C1463 1.511 . S
C1461 C1457 1.376 . S
C1461 C1460 1.392 . S
C1461 H1473 0.929 . S
C1462 C1458 1.531 . S
C1462 H1474 0.960 . S
C1462 H1475 0.962 . S
C1462 H1476 0.960 . S
C1463 C1460 1.511 . S
C1463 H1477 0.961 . S
C1463 H1478 0.961 . S
C1463 H1479 0.961 . S
C1464 C1465 1.370 . S
C1464 C1466 1.363 . S
C1464 H1480 0.931 . S
C1465 C1464 1.370 . S
C1465 C1469 1.408 . S
C1466 C1464 1.363 . S
C1466 C1467 1.370 . S
C1466 C1470 1.524 . S
C1467 C1459 1.503 . S
C1467 C1466 1.370 . S
C1467 C1468 1.403 . S
C1468 C1467 1.403 . S
C1468 C1469 1.404 . S
C1468 C1471 1.539 . S
C1469 C1465 1.408 . S
C1469 C1468 1.404 . S
C1469 H1481 0.930 . S
C1470 C1466 1.524 . S
C1470 H1482 0.956 . S
C1470 H1483 0.961 . S
C1470 H1484 0.961 . S
C1471 C1468 1.539 . S
C1471 H1485 0.958 . S
C1471 H1486 0.961 . S
C1471 H1487 0.960 . S
H1472 C1456 0.931 . S
H1473 C1461 0.929 . S
H1474 C1462 0.960 . S
H1475 C1462 0.962 . S
H1476 C1462 0.960 . S
H1477 C1463 0.961 . S
H1478 C1463 0.961 . S
H1479 C1463 0.961 . S
H1480 C1464 0.931 . S
H1481 C1469 0.930 . S
H1482 C1470 0.956 . S
H1483 C1470 0.961 . S
H1484 C1470 0.961 . S
H1485 C1471 0.958 . S
H1486 C1471 0.961 . S
H1487 C1471 0.960 . S
C1488 C1489 1.391 . S
C1488 C1490 1.394 . S
C1488 H1504 0.931 . S
C1489 C1488 1.391 . S
C1489 C1493 1.376 . S
C1490 C1488 1.394 . S
C1490 C1491 1.369 . S
C1490 C1494 1.531 . S
C1491 C1490 1.369 . S
C1491 C1492 1.410 . S
C1491 C1499 1.503 . S
C1492 C1491 1.410 . S
C1492 C1493 1.392 . S
C1492 C1495 1.511 . S
C1493 C1489 1.376 . S
C1493 C1492 1.392 . S
C1493 H1505 0.929 . S
C1494 C1490 1.531 . S
C1494 H1506 0.960 . S
C1494 H1507 0.962 . S
C1494 H1508 0.960 . S
C1495 C1492 1.511 . S
C1495 H1509 0.961 . S
C1495 H1510 0.961 . S
C1495 H1511 0.961 . S
C1496 C1497 1.370 . S
C1496 C1498 1.363 . S
C1496 H1512 0.931 . S
C1497 C1496 1.370 . S
C1497 C1501 1.408 . S
C1498 C1496 1.363 . S
C1498 C1499 1.370 . S
C1498 C1502 1.524 . S
C1499 C1491 1.503 . S
C1499 C1498 1.370 . S
C1499 C1500 1.403 . S
C1500 C1499 1.403 . S
C1500 C1501 1.404 . S
C1500 C1503 1.539 . S
C1501 C1497 1.408 . S
C1501 C1500 1.404 . S
C1501 H1513 0.930 . S
C1502 C1498 1.524 . S
C1502 H1514 0.956 . S
C1502 H1515 0.961 . S
C1502 H1516 0.961 . S
C1503 C1500 1.539 . S
C1503 H1517 0.958 . S
C1503 H1518 0.961 . S
C1503 H1519 0.960 . S
H1504 C1488 0.931 . S
H1505 C1493 0.929 . S
H1506 C1494 0.960 . S
H1507 C1494 0.962 . S
H1508 C1494 0.960 . S
H1509 C1495 0.961 . S
H1510 C1495 0.961 . S
H1511 C1495 0.961 . S
H1512 C1496 0.931 . S
H1513 C1501 0.930 . S
H1514 C1502 0.956 . S
H1515 C1502 0.961 . S
H1516 C1502 0.961 . S
H1517 C1503 0.958 . S
H1518 C1503 0.961 . S
H1519 C1503 0.960 . S
C1520 C1521 1.391 . S
C1520 C1522 1.394 . S
C1520 H1536 0.931 . S
C1521 C1520 1.391 . S
C1521 C1525 1.376 . S
C1522 C1520 1.394 . S
C1522 C1523 1.369 . S
C1522 C1526 1.531 . S
C1523 C1522 1.369 . S
C1523 C1524 1.410 . S
C1523 C1531 1.503 . S
C1524 C1523 1.410 . S
C1524 C1525 1.392 . S
C1524 C1527 1.511 . S
C1525 C1521 1.376 . S
C1525 C1524 1.392 . S
C1525 H1537 0.929 . S
C1526 C1522 1.531 . S
C1526 H1538 0.960 . S
C1526 H1539 0.962 . S
C1526 H1540 0.960 . S
C1527 C1524 1.511 . S
C1527 H1541 0.961 . S
C1527 H1542 0.961 . S
C1527 H1543 0.961 . S
C1528 C1529 1.370 . S
C1528 C1530 1.363 . S
C1528 H1544 0.931 . S
C1529 C1528 1.370 . S
C1529 C1533 1.408 . S
C1530 C1528 1.363 . S
C1530 C1531 1.370 . S
C1530 C1534 1.524 . S
C1531 C1523 1.503 . S
C1531 C1530 1.370 . S
C1531 C1532 1.403 . S
C1532 C1531 1.403 . S
C1532 C1533 1.404 . S
C1532 C1535 1.539 . S
C1533 C1529 1.408 . S
C1533 C1532 1.404 . S
C1533 H1545 0.930 . S
C1534 C1530 1.524 . S
C1534 H1546 0.956 . S
C1534 H1547 0.961 . S
C1534 H1548 0.961 . S
C1535 C1532 1.539 . S
C1535 H1549 0.958 . S
C1535 H1550 0.961 . S
C1535 H1551 0.960 . S
H1536 C1520 0.931 . S
H1537 C1525 0.929 . S
H1538 C1526 0.960 . S
H1539 C1526 0.962 . S
H1540 C1526 0.960 . S
H1541 C1527 0.961 . S
H1542 C1527 0.961 . S
H1543 C1527 0.961 . S
H1544 C1528 0.931 . S
H1545 C1533 0.930 . S
H1546 C1534 0.956 . S
H1547 C1534 0.961 . S
H1548 C1534 0.961 . S
H1549 C1535 0.958 . S
H1550 C1535 0.961 . S
H1551 C1535 0.960 . S
C1552 C1553 1.391 . S
C1552 C1554 1.394 . S
C1552 H1568 0.931 . S
C1553 C1552 1.391 . S
C1553 C1557 1.376 . S
C1554 C1552 1.394 . S
C1554 C1555 1.369 . S
C1554 C1558 1.531 . S
C1555 C1554 1.369 . S
C1555 C1556 1.410 . S
C1555 C1563 1.503 . S
C1556 C1555 1.410 . S
C1556 C1557 1.392 . S
C1556 C1559 1.511 . S
C1557 C1553 1.376 . S
C1557 C1556 1.392 . S
C1557 H1569 0.929 . S
C1558 C1554 1.531 . S
C1558 H1570 0.960 . S
C1558 H1571 0.962 . S
C1558 H1572 0.960 . S
C1559 C1556 1.511 . S
C1559 H1573 0.961 . S
C1559 H1574 0.961 . S
C1559 H1575 0.961 . S
C1560 C1561 1.370 . S
C1560 C1562 1.363 . S
C1560 H1576 0.931 . S
C1561 C1560 1.370 . S
C1561 C1565 1.408 . S
C1562 C1560 1.363 . S
C1562 C1563 1.370 . S
C1562 C1566 1.524 . S
C1563 C1555 1.503 . S
C1563 C1562 1.370 . S
C1563 C1564 1.403 . S
C1564 C1563 1.403 . S
C1564 C1565 1.404 . S
C1564 C1567 1.539 . S
C1565 C1561 1.408 . S
C1565 C1564 1.404 . S
C1565 H1577 0.930 . S
C1566 C1562 1.524 . S
C1566 H1578 0.956 . S
C1566 H1579 0.961 . S
C1566 H1580 0.961 . S
C1567 C1564 1.539 . S
C1567 H1581 0.958 . S
C1567 H1582 0.961 . S
C1567 H1583 0.960 . S
H1568 C1552 0.931 . S
H1569 C1557 0.929 . S
H1570 C1558 0.960 . S
H1571 C1558 0.962 . S
H1572 C1558 0.960 . S
H1573 C1559 0.961 . S
H1574 C1559 0.961 . S
H1575 C1559 0.961 . S
H1576 C1560 0.931 . S
H1577 C1565 0.930 . S
H1578 C1566 0.956 . S
H1579 C1566 0.961 . S
H1580 C1566 0.961 . S
H1581 C1567 0.958 . S
H1582 C1567 0.961 . S
H1583 C1567 0.960 . S
C1584 C1585 1.391 . S
C1584 C1586 1.394 . S
C1584 H1600 0.931 . S
C1585 C1584 1.391 . S
C1585 C1589 1.376 . S
C1586 C1584 1.394 . S
C1586 C1587 1.369 . S
C1586 C1590 1.531 . S
C1587 C1586 1.369 . S
C1587 C1588 1.410 . S
C1587 C1595 1.503 . S
C1588 C1587 1.410 . S
C1588 C1589 1.392 . S
C1588 C1591 1.511 . S
C1589 C1585 1.376 . S
C1589 C1588 1.392 . S
C1589 H1601 0.929 . S
C1590 C1586 1.531 . S
C1590 H1602 0.960 . S
C1590 H1603 0.962 . S
C1590 H1604 0.960 . S
C1591 C1588 1.511 . S
C1591 H1605 0.961 . S
C1591 H1606 0.961 . S
C1591 H1607 0.961 . S
C1592 C1593 1.370 . S
C1592 C1594 1.363 . S
C1592 H1608 0.931 . S
C1593 C1592 1.370 . S
C1593 C1597 1.408 . S
C1594 C1592 1.363 . S
C1594 C1595 1.370 . S
C1594 C1598 1.524 . S
C1595 C1587 1.503 . S
C1595 C1594 1.370 . S
C1595 C1596 1.403 . S
C1596 C1595 1.403 . S
C1596 C1597 1.404 . S
C1596 C1599 1.539 . S
C1597 C1593 1.408 . S
C1597 C1596 1.404 . S
C1597 H1609 0.930 . S
C1598 C1594 1.524 . S
C1598 H1610 0.956 . S
C1598 H1611 0.961 . S
C1598 H1612 0.961 . S
C1599 C1596 1.539 . S
C1599 H1613 0.958 . S
C1599 H1614 0.961 . S
C1599 H1615 0.960 . S
H1600 C1584 0.931 . S
H1601 C1589 0.929 . S
H1602 C1590 0.960 . S
H1603 C1590 0.962 . S
H1604 C1590 0.960 . S
H1605 C1591 0.961 . S
H1606 C1591 0.961 . S
H1607 C1591 0.961 . S
H1608 C1592 0.931 . S
H1609 C1597 0.930 . S
H1610 C1598 0.956 . S
H1611 C1598 0.961 . S
H1612 C1598 0.961 . S
H1613 C1599 0.958 . S
H1614 C1599 0.961 . S
H1615 C1599 0.960 . S
C1616 C1617 1.391 . S
C1616 C1618 1.394 . S
C1616 H1632 0.931 . S
C1617 C1616 1.391 . S
C1617 C1621 1.376 . S
C1618 C1616 1.394 . S
C1618 C1619 1.369 . S
C1618 C1622 1.531 . S
C1619 C1618 1.369 . S
C1619 C1620 1.410 . S
C1619 C1627 1.503 . S
C1620 C1619 1.410 . S
C1620 C1621 1.392 . S
C1620 C1623 1.511 . S
C1621 C1617 1.376 . S
C1621 C1620 1.392 . S
C1621 H1633 0.929 . S
C1622 C1618 1.531 . S
C1622 H1634 0.960 . S
C1622 H1635 0.962 . S
C1622 H1636 0.960 . S
C1623 C1620 1.511 . S
C1623 H1637 0.961 . S
C1623 H1638 0.961 . S
C1623 H1639 0.961 . S
C1624 C1625 1.370 . S
C1624 C1626 1.363 . S
C1624 H1640 0.931 . S
C1625 C1624 1.370 . S
C1625 C1629 1.408 . S
C1626 C1624 1.363 . S
C1626 C1627 1.370 . S
C1626 C1630 1.524 . S
C1627 C1619 1.503 . S
C1627 C1626 1.370 . S
C1627 C1628 1.403 . S
C1628 C1627 1.403 . S
C1628 C1629 1.404 . S
C1628 C1631 1.539 . S
C1629 C1625 1.408 . S
C1629 C1628 1.404 . S
C1629 H1641 0.930 . S
C1630 C1626 1.524 . S
C1630 H1642 0.956 . S
C1630 H1643 0.961 . S
C1630 H1644 0.961 . S
C1631 C1628 1.539 . S
C1631 H1645 0.958 . S
C1631 H1646 0.961 . S
C1631 H1647 0.960 . S
H1632 C1616 0.931 . S
H1633 C1621 0.929 . S
H1634 C1622 0.960 . S
H1635 C1622 0.962 . S
H1636 C1622 0.960 . S
H1637 C1623 0.961 . S
H1638 C1623 0.961 . S
H1639 C1623 0.961 . S
H1640 C1624 0.931 . S
H1641 C1629 0.930 . S
H1642 C1630 0.956 . S
H1643 C1630 0.961 . S
H1644 C1630 0.961 . S
H1645 C1631 0.958 . S
H1646 C1631 0.961 . S
H1647 C1631 0.960 . S
C1648 C1649 1.391 . S
C1648 C1650 1.394 . S
C1648 H1664 0.931 . S
C1649 C1648 1.391 . S
C1649 C1653 1.376 . S
C1650 C1648 1.394 . S
C1650 C1651 1.369 . S
C1650 C1654 1.531 . S
C1651 C1650 1.369 . S
C1651 C1652 1.410 . S
C1651 C1659 1.503 . S
C1652 C1651 1.410 . S
C1652 C1653 1.392 . S
C1652 C1655 1.511 . S
C1653 C1649 1.376 . S
C1653 C1652 1.392 . S
C1653 H1665 0.929 . S
C1654 C1650 1.531 . S
C1654 H1666 0.960 . S
C1654 H1667 0.962 . S
C1654 H1668 0.960 . S
C1655 C1652 1.511 . S
C1655 H1669 0.961 . S
C1655 H1670 0.961 . S
C1655 H1671 0.961 . S
C1656 C1657 1.370 . S
C1656 C1658 1.363 . S
C1656 H1672 0.931 . S
C1657 C1656 1.370 . S
C1657 C1661 1.408 . S
C1658 C1656 1.363 . S
C1658 C1659 1.370 . S
C1658 C1662 1.524 . S
C1659 C1651 1.503 . S
C1659 C1658 1.370 . S
C1659 C1660 1.403 . S
C1660 C1659 1.403 . S
C1660 C1661 1.404 . S
C1660 C1663 1.539 . S
C1661 C1657 1.408 . S
C1661 C1660 1.404 . S
C1661 H1673 0.930 . S
C1662 C1658 1.524 . S
C1662 H1674 0.956 . S
C1662 H1675 0.961 . S
C1662 H1676 0.961 . S
C1663 C1660 1.539 . S
C1663 H1677 0.958 . S
C1663 H1678 0.961 . S
C1663 H1679 0.960 . S
H1664 C1648 0.931 . S
H1665 C1653 0.929 . S
H1666 C1654 0.960 . S
H1667 C1654 0.962 . S
H1668 C1654 0.960 . S
H1669 C1655 0.961 . S
H1670 C1655 0.961 . S
H1671 C1655 0.961 . S
H1672 C1656 0.931 . S
H1673 C1661 0.930 . S
H1674 C1662 0.956 . S
H1675 C1662 0.961 . S
H1676 C1662 0.961 . S
H1677 C1663 0.958 . S
H1678 C1663 0.961 . S
H1679 C1663 0.960 . S
C1680 C1681 1.391 . S
C1680 C1682 1.394 . S
C1680 H1696 0.931 . S
C1681 C1680 1.391 . S
C1681 C1685 1.376 . S
C1682 C1680 1.394 . S
C1682 C1683 1.369 . S
C1682 C1686 1.531 . S
C1683 C1682 1.369 . S
C1683 C1684 1.410 . S
C1683 C1691 1.503 . S
C1684 C1683 1.410 . S
C1684 C1685 1.392 . S
C1684 C1687 1.511 . S
C1685 C1681 1.376 . S
C1685 C1684 1.392 . S
C1685 H1697 0.929 . S
C1686 C1682 1.531 . S
C1686 H1698 0.960 . S
C1686 H1699 0.962 . S
C1686 H1700 0.960 . S
C1687 C1684 1.511 . S
C1687 H1701 0.961 . S
C1687 H1702 0.961 . S
C1687 H1703 0.961 . S
C1688 C1689 1.370 . S
C1688 C1690 1.363 . S
C1688 H1704 0.931 . S
C1689 C1688 1.370 . S
C1689 C1693 1.408 . S
C1690 C1688 1.363 . S
C1690 C1691 1.370 . S
C1690 C1694 1.524 . S
C1691 C1683 1.503 . S
C1691 C1690 1.370 . S
C1691 C1692 1.403 . S
C1692 C1691 1.403 . S
C1692 C1693 1.404 . S
C1692 C1695 1.539 . S
C1693 C1689 1.408 . S
C1693 C1692 1.404 . S
C1693 H1705 0.930 . S
C1694 C1690 1.524 . S
C1694 H1706 0.956 . S
C1694 H1707 0.961 . S
C1694 H1708 0.961 . S
C1695 C1692 1.539 . S
C1695 H1709 0.958 . S
C1695 H1710 0.961 . S
C1695 H1711 0.960 . S
H1696 C1680 0.931 . S
H1697 C1685 0.929 . S
H1698 C1686 0.960 . S
H1699 C1686 0.962 . S
H1700 C1686 0.960 . S
H1701 C1687 0.961 . S
H1702 C1687 0.961 . S
H1703 C1687 0.961 . S
H1704 C1688 0.931 . S
H1705 C1693 0.930 . S
H1706 C1694 0.956 . S
H1707 C1694 0.961 . S
H1708 C1694 0.961 . S
H1709 C1695 0.958 . S
H1710 C1695 0.961 . S
H1711 C1695 0.960 . S
C1712 C1713 1.391 . S
C1712 C1714 1.394 . S
C1712 H1728 0.931 . S
C1713 C1712 1.391 . S
C1713 C1717 1.376 . S
C1714 C1712 1.394 . S
C1714 C1715 1.369 . S
C1714 C1718 1.531 . S
C1715 C1714 1.369 . S
C1715 C1716 1.410 . S
C1715 C1723 1.503 . S
C1716 C1715 1.410 . S
C1716 C1717 1.392 . S
C1716 C1719 1.511 . S
C1717 C1713 1.376 . S
C1717 C1716 1.392 . S
C1717 H1729 0.929 . S
C1718 C1714 1.531 . S
C1718 H1730 0.960 . S
C1718 H1731 0.962 . S
C1718 H1732 0.960 . S
C1719 C1716 1.511 . S
C1719 H1733 0.961 . S
C1719 H1734 0.961 . S
C1719 H1735 0.961 . S
C1720 C1721 1.370 . S
C1720 C1722 1.363 . S
C1720 H1736 0.931 . S
C1721 C1720 1.370 . S
C1721 C1725 1.408 . S
C1722 C1720 1.363 . S
C1722 C1723 1.370 . S
C1722 C1726 1.524 . S
C1723 C1715 1.503 . S
C1723 C1722 1.370 . S
C1723 C1724 1.403 . S
C1724 C1723 1.403 . S
C1724 C1725 1.404 . S
C1724 C1727 1.539 . S
C1725 C1721 1.408 . S
C1725 C1724 1.404 . S
C1725 H1737 0.930 . S
C1726 C1722 1.524 . S
C1726 H1738 0.956 . S
C1726 H1739 0.961 . S
C1726 H1740 0.961 . S
C1727 C1724 1.539 . S
C1727 H1741 0.958 . S
C1727 H1742 0.961 . S
C1727 H1743 0.960 . S
H1728 C1712 0.931 . S
H1729 C1717 0.929 . S
H1730 C1718 0.960 . S
H1731 C1718 0.962 . S
H1732 C1718 0.960 . S
H1733 C1719 0.961 . S
H1734 C1719 0.961 . S
H1735 C1719 0.961 . S
H1736 C1720 0.931 . S
H1737 C1725 0.930 . S
H1738 C1726 0.956 . S
H1739 C1726 0.961 . S
H1740 C1726 0.961 . S
H1741 C1727 0.958 . S
H1742 C1727 0.961 . S
H1743 C1727 0.960 . S
C1744 C1745 1.391 . S
C1744 C1746 1.394 . S
C1744 H1760 0.931 . S
C1745 C1744 1.391 . S
C1745 C1749 1.376 . S
C1746 C1744 1.394 . S
C1746 C1747 1.369 . S
C1746 C1750 1.531 . S
C1747 C1746 1.369 . S
C1747 C1748 1.410 . S
C1747 C1755 1.503 . S
C1748 C1747 1.410 . S
C1748 C1749 1.392 . S
C1748 C1751 1.511 . S
C1749 C1745 1.376 . S
C1749 C1748 1.392 . S
C1749 H1761 0.929 . S
C1750 C1746 1.531 . S
C1750 H1762 0.960 . S
C1750 H1763 0.962 . S
C1750 H1764 0.960 . S
C1751 C1748 1.511 . S
C1751 H1765 0.961 . S
C1751 H1766 0.961 . S
C1751 H1767 0.961 . S
C1752 C1753 1.370 . S
C1752 C1754 1.363 . S
C1752 H1768 0.931 . S
C1753 C1752 1.370 . S
C1753 C1757 1.408 . S
C1754 C1752 1.363 . S
C1754 C1755 1.370 . S
C1754 C1758 1.524 . S
C1755 C1747 1.503 . S
C1755 C1754 1.370 . S
C1755 C1756 1.403 . S
C1756 C1755 1.403 . S
C1756 C1757 1.404 . S
C1756 C1759 1.539 . S
C1757 C1753 1.408 . S
C1757 C1756 1.404 . S
C1757 H1769 0.930 . S
C1758 C1754 1.524 . S
C1758 H1770 0.956 . S
C1758 H1771 0.961 . S
C1758 H1772 0.961 . S
C1759 C1756 1.539 . S
C1759 H1773 0.958 . S
C1759 H1774 0.961 . S
C1759 H1775 0.960 . S
H1760 C1744 0.931 . S
H1761 C1749 0.929 . S
H1762 C1750 0.960 . S
H1763 C1750 0.962 . S
H1764 C1750 0.960 . S
H1765 C1751 0.961 . S
H1766 C1751 0.961 . S
H1767 C1751 0.961 . S
H1768 C1752 0.931 . S
H1769 C1757 0.930 . S
H1770 C1758 0.956 . S
H1771 C1758 0.961 . S
H1772 C1758 0.961 . S
H1773 C1759 0.958 . S
H1774 C1759 0.961 . S
H1775 C1759 0.960 . S
C1776 C1777 1.391 . S
C1776 C1778 1.394 . S
C1776 H1792 0.931 . S
C1777 C1776 1.391 . S
C1777 C1781 1.376 . S
C1778 C1776 1.394 . S
C1778 C1779 1.369 . S
C1778 C1782 1.531 . S
C1779 C1778 1.369 . S
C1779 C1780 1.410 . S
C1779 C1787 1.503 . S
C1780 C1779 1.410 . S
C1780 C1781 1.392 . S
C1780 C1783 1.511 . S
C1781 C1777 1.376 . S
C1781 C1780 1.392 . S
C1781 H1793 0.929 . S
C1782 C1778 1.531 . S
C1782 H1794 0.960 . S
C1782 H1795 0.962 . S
C1782 H1796 0.960 . S
C1783 C1780 1.511 . S
C1783 H1797 0.961 . S
C1783 H1798 0.961 . S
C1783 H1799 0.961 . S
C1784 C1785 1.370 . S
C1784 C1786 1.363 . S
C1784 H1800 0.931 . S
C1785 C1784 1.370 . S
C1785 C1789 1.408 . S
C1786 C1784 1.363 . S
C1786 C1787 1.370 . S
C1786 C1790 1.524 . S
C1787 C1779 1.503 . S
C1787 C1786 1.370 . S
C1787 C1788 1.403 . S
C1788 C1787 1.403 . S
C1788 C1789 1.404 . S
C1788 C1791 1.539 . S
C1789 C1785 1.408 . S
C1789 C1788 1.404 . S
C1789 H1801 0.930 . S
C1790 C1786 1.524 . S
C1790 H1802 0.956 . S
C1790 H1803 0.961 . S
C1790 H1804 0.961 . S
C1791 C1788 1.539 . S
C1791 H1805 0.958 . S
C1791 H1806 0.961 . S
C1791 H1807 0.960 . S
H1792 C1776 0.931 . S
H1793 C1781 0.929 . S
H1794 C1782 0.960 . S
H1795 C1782 0.962 . S
H1796 C1782 0.960 . S
H1797 C1783 0.961 . S
H1798 C1783 0.961 . S
H1799 C1783 0.961 . S
H1800 C1784 0.931 . S
H1801 C1789 0.930 . S
H1802 C1790 0.956 . S
H1803 C1790 0.961 . S
H1804 C1790 0.961 . S
H1805 C1791 0.958 . S
H1806 C1791 0.961 . S
H1807 C1791 0.960 . S
C1808 C1809 1.391 . S
C1808 C1810 1.394 . S
C1808 H1824 0.931 . S
C1809 C1808 1.391 . S
C1809 C1813 1.376 . S
C1810 C1808 1.394 . S
C1810 C1811 1.369 . S
C1810 C1814 1.531 . S
C1811 C1810 1.369 . S
C1811 C1812 1.410 . S
C1811 C1819 1.503 . S
C1812 C1811 1.410 . S
C1812 C1813 1.392 . S
C1812 C1815 1.511 . S
C1813 C1809 1.376 . S
C1813 C1812 1.392 . S
C1813 H1825 0.929 . S
C1814 C1810 1.531 . S
C1814 H1826 0.960 . S
C1814 H1827 0.962 . S
C1814 H1828 0.960 . S
C1815 C1812 1.511 . S
C1815 H1829 0.961 . S
C1815 H1830 0.961 . S
C1815 H1831 0.961 . S
C1816 C1817 1.370 . S
C1816 C1818 1.363 . S
C1816 H1832 0.931 . S
C1817 C1816 1.370 . S
C1817 C1821 1.408 . S
C1818 C1816 1.363 . S
C1818 C1819 1.370 . S
C1818 C1822 1.524 . S
C1819 C1811 1.503 . S
C1819 C1818 1.370 . S
C1819 C1820 1.403 . S
C1820 C1819 1.403 . S
C1820 C1821 1.404 . S
C1820 C1823 1.539 . S
C1821 C1817 1.408 . S
C1821 C1820 1.404 . S
C1821 H1833 0.930 . S
C1822 C1818 1.524 . S
C1822 H1834 0.956 . S
C1822 H1835 0.961 . S
C1822 H1836 0.961 . S
C1823 C1820 1.539 . S
C1823 H1837 0.958 . S
C1823 H1838 0.961 . S
C1823 H1839 0.960 . S
H1824 C1808 0.931 . S
H1825 C1813 0.929 . S
H1826 C1814 0.960 . S
H1827 C1814 0.962 . S
H1828 C1814 0.960 . S
H1829 C1815 0.961 . S
H1830 C1815 0.961 . S
H1831 C1815 0.961 . S
H1832 C1816 0.931 . S
H1833 C1821 0.930 . S
H1834 C1822 0.956 . S
H1835 C1822 0.961 . S
H1836 C1822 0.961 . S
H1837 C1823 0.958 . S
H1838 C1823 0.961 . S
H1839 C1823 0.960 . S
C1840 C1841 1.391 . S
C1840 C1842 1.394 . S
C1840 H1856 0.931 . S
C1841 C1840 1.391 . S
C1841 C1845 1.376 . S
C1842 C1840 1.394 . S
C1842 C1843 1.369 . S
C1842 C1846 1.531 . S
C1843 C1842 1.369 . S
C1843 C1844 1.410 . S
C1843 C1851 1.503 . S
C1844 C1843 1.410 . S
C1844 C1845 1.392 . S
C1844 C1847 1.511 . S
C1845 C1841 1.376 . S
C1845 C1844 1.392 . S
C1845 H1857 0.929 . S
C1846 C1842 1.531 . S
C1846 H1858 0.960 . S
C1846 H1859 0.962 . S
C1846 H1860 0.960 . S
C1847 C1844 1.511 . S
C1847 H1861 0.961 . S
C1847 H1862 0.961 . S
C1847 H1863 0.961 . S
C1848 C1849 1.370 . S
C1848 C1850 1.363 . S
C1848 H1864 0.931 . S
C1849 C1848 1.370 . S
C1849 C1853 1.408 . S
C1850 C1848 1.363 . S
C1850 C1851 1.370 . S
C1850 C1854 1.524 . S
C1851 C1843 1.503 . S
C1851 C1850 1.370 . S
C1851 C1852 1.403 . S
C1852 C1851 1.403 . S
C1852 C1853 1.404 . S
C1852 C1855 1.539 . S
C1853 C1849 1.408 . S
C1853 C1852 1.404 . S
C1853 H1865 0.930 . S
C1854 C1850 1.524 . S
C1854 H1866 0.956 . S
C1854 H1867 0.961 . S
C1854 H1868 0.961 . S
C1855 C1852 1.539 . S
C1855 H1869 0.958 . S
C1855 H1870 0.961 . S
C1855 H1871 0.960 . S
H1856 C1840 0.931 . S
H1857 C1845 0.929 . S
H1858 C1846 0.960 . S
H1859 C1846 0.962 . S
H1860 C1846 0.960 . S
H1861 C1847 0.961 . S
H1862 C1847 0.961 . S
H1863 C1847 0.961 . S
H1864 C1848 0.931 . S
H1865 C1853 0.930 . S
H1866 C1854 0.956 . S
H1867 C1854 0.961 . S
H1868 C1854 0.961 . S
H1869 C1855 0.958 . S
H1870 C1855 0.961 . S
H1871 C1855 0.960 . S
C337 C9 1.792 . S
C345 C107 1.800 . S
C369 C121 1.788 . S
C377 C23 1.799 . S
C401 C37 1.790 . S
C409 C135 1.799 . S
C433 C51 1.806 . S
C441 C149 1.806 . S
C465 C163 1.788 . S
C473 C65 1.798 . S
C497 C79 1.797 . S
C505 C93 1.802 . S
C529 C177 1.796 . S
C537 C275 1.801 . S
C561 C191 1.787 . S
C569 C289 1.798 . S
C593 C303 1.792 . S
C601 C205 1.800 . S
C625 C219 1.804 . S
C633 C317 1.806 . S
C657 C233 1.802 . S
C665 C331 1.805 . S
C689 C261 1.809 . S
C697 C247 1.807 . S
C721 C6 1.488 . S
C729 C118 1.500 . S
C753 C132 1.464 . S
C761 C20 1.496 . S
C785 C146 1.503 . S
C793 C34 1.482 . S
C817 C48 1.507 . S
C825 C160 1.482 . S
C849 C62 1.464 . S
C857 C90 1.497 . S
C881 C76 1.476 . S
C889 C104 1.488 . S
C913 C286 1.463 . S
C921 C174 1.495 . S
C945 C188 1.484 . S
C953 C300 1.502 . S
C977 C314 1.513 . S
C985 C202 1.490 . S
C1009 C328 1.512 . S
C1017 C216 1.486 . S
C1041 C258 1.480 . S
C1049 C230 1.484 . S
C1073 C244 1.512 . S
C1081 C272 1.493 . S
C1105 C7 1.545 . S
C1113 C217 1.558 . S
C1137 C231 1.543 . S
C1145 C21 1.560 . S
C1169 C245 1.592 . S
C1177 C35 1.579 . S
C1201 C49 1.552 . S
C1209 C175 1.560 . S
C1233 C63 1.538 . S
C1241 C189 1.555 . S
C1265 C203 1.590 . S
C1273 C77 1.579 . S
C1297 C301 1.553 . S
C1305 C91 1.561 . S
C1329 C315 1.590 . S
C1337 C105 1.579 . S
C1361 C329 1.592 . S
C1369 C119 1.579 . S
C1393 C259 1.552 . S
C1401 C133 1.564 . S
C1425 C147 1.585 . S
C1433 C273 1.577 . S
C1457 C161 1.577 . S
C1465 C287 1.571 . S
C1489 C8 1.370 . S
C1497 C148 1.373 . S
C1521 C162 1.369 . S
C1529 C22 1.372 . S
C1553 C92 1.370 . S
C1561 C36 1.373 . S
C1585 C50 1.370 . S
C1593 C106 1.373 . S
C1617 C64 1.369 . S
C1625 C120 1.372 . S
C1649 C78 1.368 . S
C1657 C134 1.372 . S
C1681 C176 1.370 . S
C1689 C316 1.373 . S
C1713 C190 1.366 . S
C1721 C330 1.371 . S
C1745 C204 1.366 . S
C1753 C260 1.371 . S
C1777 C274 1.369 . S
C1785 C218 1.372 . S
C1809 C232 1.366 . S
C1817 C288 1.371 . S
C1841 C246 1.366 . S
C1849 C302 1.371 . S
