# Generated by pormake.
# Topology acs-f, (3)-cn, num edge types: 1
# Building blocks:
#     Node 0, Type 0, BuildingBlock: WUSLED_clean_sbu_0, # of connection points: 3
#     Node 1, Type 0, BuildingBlock: WUSLED_clean_sbu_0, # of connection points: 3
#     Node 2, Type 0, BuildingBlock: WUSLED_clean_sbu_0, # of connection points: 3
#     Node 3, Type 0, BuildingBlock: WUSLED_clean_sbu_0, # of connection points: 3
#     Node 4, Type 0, BuildingBlock: WUSLED_clean_sbu_0, # of connection points: 3
#     Node 5, Type 0, BuildingBlock: WUSLED_clean_sbu_0, # of connection points: 3
#     Node 6, Type 0, BuildingBlock: WUSLED_clean_sbu_0, # of connection points: 3
#     Node 7, Type 0, BuildingBlock: WUSLED_clean_sbu_0, # of connection points: 3
#     Node 8, Type 0, BuildingBlock: WUSLED_clean_sbu_0, # of connection points: 3
#     Node 9, Type 0, BuildingBlock: WUSLED_clean_sbu_0, # of connection points: 3
#     Node 10, Type 0, BuildingBlock: WUSLED_clean_sbu_0, # of connection points: 3
#     Node 11, Type 0, BuildingBlock: WUSLED_clean_sbu_0, # of connection points: 3
#     Edge 12, Type (0, 0), BuildingBlock: AJUNOK_clean_linker_0, # of connection points: 2
#     Edge 13, Type (0, 0), BuildingBlock: AJUNOK_clean_linker_0, # of connection points: 2
#     Edge 14, Type (0, 0), BuildingBlock: AJUNOK_clean_linker_0, # of connection points: 2
#     Edge 15, Type (0, 0), BuildingBlock: AJUNOK_clean_linker_0, # of connection points: 2
#     Edge 16, Type (0, 0), BuildingBlock: AJUNOK_clean_linker_0, # of connection points: 2
#     Edge 17, Type (0, 0), BuildingBlock: AJUNOK_clean_linker_0, # of connection points: 2
#     Edge 18, Type (0, 0), BuildingBlock: AJUNOK_clean_linker_0, # of connection points: 2
#     Edge 19, Type (0, 0), BuildingBlock: AJUNOK_clean_linker_0, # of connection points: 2
#     Edge 20, Type (0, 0), BuildingBlock: AJUNOK_clean_linker_0, # of connection points: 2
#     Edge 21, Type (0, 0), BuildingBlock: AJUNOK_clean_linker_0, # of connection points: 2
#     Edge 22, Type (0, 0), BuildingBlock: AJUNOK_clean_linker_0, # of connection points: 2
#     Edge 23, Type (0, 0), BuildingBlock: AJUNOK_clean_linker_0, # of connection points: 2
#     Edge 24, Type (0, 0), BuildingBlock: AJUNOK_clean_linker_0, # of connection points: 2
#     Edge 25, Type (0, 0), BuildingBlock: AJUNOK_clean_linker_0, # of connection points: 2
#     Edge 26, Type (0, 0), BuildingBlock: AJUNOK_clean_linker_0, # of connection points: 2
#     Edge 27, Type (0, 0), BuildingBlock: AJUNOK_clean_linker_0, # of connection points: 2
#     Edge 28, Type (0, 0), BuildingBlock: AJUNOK_clean_linker_0, # of connection points: 2
#     Edge 29, Type (0, 0), BuildingBlock: AJUNOK_clean_linker_0, # of connection points: 2
# Relax obj value: 0.266
# Max RMSD: 0.159
# Mean RMSD: 0.148
data_MOF--net-acs-f--node1-WUSLED_clean_sbu_0--edge1-AJUNOK_clean_linker_0
_symmetry_space_group_name_H-M    P1
_symmetry_Int_Tables_number       1
_symmetry_cell_setting            triclinic
loop_
_symmetry_equiv_pos_as_xyz
'x, y, z'
_cell_length_a     44.024292
_cell_length_b     44.019159
_cell_length_c     54.743788
_cell_angle_alpha  89.85448
_cell_angle_beta   89.826239
_cell_angle_gamma 114.63752
loop_
_atom_site_label
_atom_site_type_symbol
_atom_site_fract_x
_atom_site_fract_y
_atom_site_fract_z
_atom_type_partial_charge
C0 C 0.13782 0.3729 0.1626 0.0
C1 C 0.14031 0.39358 0.18269 0.0
C2 C 0.16311 0.3623 0.2077 0.0
C3 C 0.153 0.38849 0.20491 0.0
C4 C 0.15953 0.34089 0.18778 0.0
C5 C 0.14717 0.34628 0.16537 0.0
U6 U 0.08229 0.40405 0.12863 0.0
O7 O 0.09436 0.43816 0.09723 0.0
O8 O 0.05288 0.38826 0.09464 0.0
C9 C 0.06976 0.41728 0.08389 0.0
C10 C 0.12554 0.37924 0.1389 0.0
C11 C 0.05074 0.43173 0.06932 0.0
C12 C 0.02249 0.43152 0.03112 0.0
C13 C 0.03607 0.41605 0.04742 0.0
C14 C 0.03679 0.47819 0.05882 0.0
C15 C 0.02353 0.4632 0.03631 0.0
C16 C 0.05036 0.46266 0.07516 0.0
C17 C 0.03239 0.42903 0.18056 0.0
C18 C 0.02442 0.47617 0.19749 0.0
C19 C 0.00021 0.42239 0.21792 0.0
C20 C 0.01248 0.40871 0.19943 0.0
C21 C 0.00745 0.45655 0.21765 0.0
C22 C 0.03701 0.46255 0.17907 0.0
C23 C 0.05384 0.41675 0.1669 0.0
O24 O 0.09404 0.36034 0.13403 0.0
O25 O 0.13418 0.41093 0.13374 0.0
O26 O 0.08186 0.4386 0.15724 0.0
O27 O 0.04045 0.3882 0.15515 0.0
H28 H 0.13283 0.41406 0.18114 0.0
H29 H 0.1555 0.40551 0.21979 0.0
H30 H 0.16618 0.3199 0.1895 0.0
H31 H 0.14502 0.32976 0.15021 0.0
H32 H 0.01169 0.41894 0.01424 0.0
H33 H 0.03614 0.39224 0.04249 0.0
H34 H 0.03782 0.50254 0.06336 0.0
H35 H 0.06156 0.47537 0.09192 0.0
H36 H 0.03043 0.50268 0.19706 0.0
H37 H 0.98725 0.40689 0.23335 0.0
H38 H 0.00887 0.38288 0.20108 0.0
H39 H 0.05244 0.47881 0.16479 0.0
C40 C 0.62371 0.73658 0.16737 0.0
C41 C 0.61053 0.71784 0.18869 0.0
C42 C 0.6318 0.76853 0.21299 0.0
C43 C 0.61434 0.73368 0.21126 0.0
C44 C 0.64603 0.7872 0.19177 0.0
C45 C 0.64189 0.77131 0.16906 0.0
U46 U 0.59257 0.6559 0.13313 0.0
O47 O 0.55718 0.63915 0.10272 0.0
O48 O 0.60728 0.64013 0.09838 0.0
C49 C 0.57778 0.63254 0.08852 0.0
C50 C 0.61682 0.71978 0.14347 0.0
C51 C 0.56315 0.60168 0.07385 0.0
C52 C 0.56075 0.57507 0.03455 0.0
C53 C 0.57684 0.60143 0.05072 0.0
C54 C 0.51756 0.54787 0.06478 0.0
C55 C 0.53043 0.54845 0.04112 0.0
C56 C 0.53371 0.57431 0.081 0.0
C57 C 0.57081 0.58493 0.18421 0.0
C58 C 0.53013 0.52791 0.19098 0.0
C59 C 0.56868 0.55767 0.22312 0.0
C60 C 0.58344 0.58517 0.20767 0.0
C61 C 0.54124 0.52896 0.21525 0.0
C62 C 0.54465 0.55586 0.17559 0.0
C63 C 0.58218 0.6171 0.17142 0.0
O64 O 0.63586 0.7045 0.13759 0.0
O65 O 0.585 0.70152 0.13934 0.0
O66 O 0.55943 0.62604 0.16246 0.0
O67 O 0.61016 0.62791 0.15878 0.0
H68 H 0.59653 0.69097 0.18779 0.0
H69 H 0.60323 0.71876 0.22735 0.0
H70 H 0.65931 0.81415 0.19264 0.0
H71 H 0.6522 0.78616 0.1528 0.0
H72 H 0.57173 0.57582 0.0167 0.0
H73 H 0.59947 0.62229 0.04479 0.0
H74 H 0.49431 0.5276 0.0704 0.0
H75 H 0.52258 0.57389 0.09874 0.0
H76 H 0.50913 0.50611 0.18431 0.0
H77 H 0.5773 0.56006 0.24181 0.0
H78 H 0.60336 0.60762 0.21473 0.0
H79 H 0.53446 0.55534 0.15753 0.0
C80 C 0.25651 0.86262 0.16703 0.0
C81 C 0.27556 0.86723 0.18836 0.0
C82 C 0.22521 0.83618 0.21202 0.0
C83 C 0.26006 0.85398 0.21062 0.0
C84 C 0.206 0.83269 0.19088 0.0
C85 C 0.2216 0.84568 0.16847 0.0
U86 U 0.33459 0.91755 0.13336 0.0
O87 O 0.3591 0.90523 0.10242 0.0
O88 O 0.34408 0.94684 0.09909 0.0
C89 C 0.35919 0.92989 0.08877 0.0
C90 C 0.27338 0.8745 0.14336 0.0
C91 C 0.38987 0.94888 0.07441 0.0
C92 C 0.41444 0.97937 0.03698 0.0
C93 C 0.38737 0.96551 0.05312 0.0
C94 C 0.44752 0.96112 0.0635 0.0
C95 C 0.44468 0.9769 0.04177 0.0
C96 C 0.42042 0.9473 0.0797 0.0
C97 C 0.40058 0.96771 0.18503 0.0
C98 C 0.45608 0.97821 0.19973 0.0
C99 C 0.42119 -0.0015 0.22264 0.0
C100 C 0.3965 0.98587 0.20483 0.0
C101 C 0.45056 0.99358 0.22072 0.0
C102 C 0.43112 0.96513 0.18201 0.0
C103 C 0.37034 0.94606 0.17172 0.0
O104 O 0.28106 0.90601 0.13809 0.0
O105 O 0.29796 0.86575 0.13892 0.0
O106 O 0.36894 0.918 0.16239 0.0
O107 O 0.35318 0.95943 0.15959 0.0
H108 H 0.30253 0.88051 0.1877 0.0
H109 H 0.27533 0.85734 0.22674 0.0
H110 H 0.17907 0.81906 0.19156 0.0
H111 H 0.2065 0.842 0.15222 0.0
H112 H 0.41152 0.99155 0.0205 0.0
H113 H 0.364 0.96678 0.04851 0.0
H114 H 0.47026 0.95827 0.06755 0.0
H115 H 0.42304 0.93439 0.09587 0.0
H116 H 0.47847 0.97384 0.19806 0.0
H117 H 0.41639 0.0101 0.23875 0.0
H118 H 0.37301 0.98784 0.20765 0.0
H119 H 0.43473 0.951 0.16698 0.0
C120 C 0.62399 0.85943 0.35096 0.0
C121 C 0.60868 0.86468 0.32989 0.0
C122 C 0.63151 0.83281 0.30573 0.0
C123 C 0.61222 0.85129 0.30753 0.0
C124 C 0.64776 0.82846 0.32666 0.0
C125 C 0.6439 0.8416 0.34919 0.0
U126 U 0.59252 0.91457 0.38449 0.0
O127 O 0.55869 0.90293 0.41603 0.0
O128 O 0.60836 0.94488 0.41807 0.0
C129 C 0.57953 0.92797 0.42906 0.0
C130 C 0.61785 0.87156 0.37472 0.0
C131 C 0.56492 0.94703 0.44341 0.0
C132 C 0.5641 0.97455 0.48173 0.0
C133 C 0.57985 0.96098 0.46568 0.0
C134 C 0.5187 0.96175 0.45305 0.0
C135 C 0.53289 0.97424 0.47592 0.0
C136 C 0.53452 0.94815 0.43694 0.0
C137 C 0.56646 0.96288 0.3325 0.0
C138 C 0.52377 0.98323 0.32536 0.0
C139 C 0.56241 0.98586 0.29297 0.0
C140 C 0.57847 0.97249 0.30873 0.0
C141 C 0.53426 0.99057 0.30082 0.0
C142 C 0.53959 0.96916 0.34107 0.0
C143 C 0.57919 0.94164 0.34573 0.0
O144 O 0.63646 0.9032 0.37938 0.0
O145 O 0.58612 0.86272 0.37981 0.0
O146 O 0.55744 0.91403 0.35594 0.0
O147 O 0.60778 0.95555 0.35734 0.0
H148 H 0.59336 0.87855 0.33084 0.0
H149 H 0.59957 0.85509 0.29164 0.0
H150 H 0.66253 0.81402 0.32574 0.0
H151 H 0.6559 0.83732 0.36526 0.0
H152 H 0.57606 0.98476 0.49893 0.0
H153 H 0.60325 0.96035 0.47106 0.0
H154 H 0.49474 0.96131 0.44803 0.0
H155 H 0.52243 0.93752 0.41987 0.0
H156 H 0.50225 0.98669 0.33203 0.0
H157 H 0.57065 0.99 0.27412 0.0
H158 H 0.59892 0.96737 0.30171 0.0
H159 H 0.52987 0.96171 0.35937 0.0
C160 C 0.13553 0.7428 0.34869 0.0
C161 C 0.13257 0.72357 0.32766 0.0
C162 C 0.16258 0.77397 0.30378 0.0
C163 C 0.14611 0.73901 0.30544 0.0
C164 C 0.16444 0.79329 0.3246 0.0
C165 C 0.15115 0.77777 0.34698 0.0
U166 U 0.08165 0.66423 0.38214 0.0
O167 O 0.09364 0.64098 0.41396 0.0
O168 O 0.05052 0.65396 0.41554 0.0
C169 C 0.06801 0.64016 0.4268 0.0
C170 C 0.12319 0.72608 0.37235 0.0
C171 C 0.04957 0.6097 0.44148 0.0
C172 C 0.02116 0.58602 0.47974 0.0
C173 C 0.0341 0.6127 0.46321 0.0
C174 C 0.03762 0.55218 0.45258 0.0
C175 C 0.02364 0.55578 0.47494 0.0
C176 C 0.05059 0.57894 0.436 0.0
C177 C 0.03645 0.59722 0.33006 0.0
C178 C 0.01629 0.53742 0.32383 0.0
C179 C 0.0163 0.57343 0.29029 0.0
C180 C 0.0286 0.60089 0.3058 0.0
C181 C 0.01124 0.54152 0.29881 0.0
C182 C 0.02932 0.56523 0.33932 0.0
C183 C 0.05646 0.62789 0.34339 0.0
O184 O 0.09125 0.7172 0.37677 0.0
O185 O 0.13298 0.70243 0.3776 0.0
O186 O 0.08417 0.63015 0.35384 0.0
O187 O 0.04137 0.644 0.3548 0.0
H188 H 0.1203 0.69654 0.32853 0.0
H189 H 0.14399 0.72362 0.28956 0.0
H190 H 0.17702 0.8203 0.3237 0.0
H191 H 0.15354 0.79301 0.36299 0.0
H192 H 0.00978 0.58928 0.49651 0.0
H193 H 0.03308 0.63618 0.46786 0.0
H194 H 0.03973 0.52911 0.44834 0.0
H195 H 0.06244 0.57594 0.41937 0.0
H196 H 0.01162 0.51301 0.33119 0.0
H197 H 0.01297 0.57773 0.2712 0.0
H198 H 0.0341 0.62548 0.29833 0.0
H199 H 0.03514 0.56198 0.35809 0.0
C200 C 0.25861 0.3722 0.34677 0.0
C201 C 0.2765 0.38714 0.32548 0.0
C202 C 0.22608 0.36105 0.30109 0.0
C203 C 0.26037 0.38192 0.30295 0.0
C204 C 0.20832 0.3456 0.32242 0.0
C205 C 0.22447 0.35115 0.3451 0.0
U206 U 0.33943 0.40268 0.38092 0.0
O207 O 0.35699 0.43878 0.41087 0.0
O208 O 0.3547 0.38829 0.41597 0.0
C209 C 0.36316 0.41819 0.42538 0.0
C210 C 0.27562 0.37948 0.3706 0.0
C211 C 0.39427 0.43251 0.43984 0.0
C212 C 0.42197 0.43312 0.47839 0.0
C213 C 0.39535 0.41758 0.46231 0.0
C214 C 0.4476 0.47846 0.44946 0.0
C215 C 0.44814 0.46401 0.47234 0.0
C216 C 0.42097 0.46283 0.43333 0.0
C217 C 0.41005 0.42157 0.32957 0.0
C218 C 0.46202 0.46589 0.31543 0.0
C219 C 0.43623 0.4148 0.2921 0.0
C220 C 0.41099 0.40195 0.30966 0.0
C221 C 0.4612 0.44728 0.29443 0.0
C222 C 0.43642 0.45317 0.3329 0.0
C223 C 0.37816 0.41123 0.34279 0.0
O224 O 0.29026 0.36002 0.37688 0.0
O225 O 0.29447 0.41129 0.37437 0.0
O226 O 0.36962 0.43455 0.3512 0.0
O227 O 0.36673 0.3835 0.35576 0.0
H228 H 0.3029 0.40352 0.32635 0.0
H229 H 0.27463 0.39505 0.28711 0.0
H230 H 0.18188 0.3294 0.3216 0.0
H231 H 0.21027 0.33935 0.36132 0.0
H232 H 0.42133 0.42163 0.49602 0.0
H233 H 0.37485 0.39446 0.46789 0.0
H234 H 0.46751 0.50217 0.44426 0.0
H235 H 0.42076 0.47501 0.41615 0.0
H236 H 0.48095 0.4912 0.31734 0.0
H237 H 0.43505 0.40024 0.27591 0.0
H238 H 0.39067 0.37766 0.30662 0.0
H239 H 0.43605 0.46886 0.34801 0.0
C240 C 0.86364 0.63842 0.84926 0.0
C241 C 0.88256 0.64436 0.82765 0.0
C242 C 0.83771 0.64977 0.80474 0.0
C243 C 0.86977 0.6501 0.80564 0.0
C244 C 0.81906 0.64435 0.82652 0.0
C245 C 0.83197 0.63877 0.84859 0.0
U246 U 0.91745 0.60119 0.87859 0.0
O247 O 0.90533 0.5642 0.90819 0.0
O248 O 0.94743 0.61344 0.91237 0.0
C249 C 0.93022 0.5837 0.92197 0.0
C250 C 0.87547 0.62866 0.87183 0.0
C251 C 0.949 0.56794 0.93543 0.0
C252 C 0.97794 0.5659 0.97278 0.0
C253 C 0.96422 0.58236 0.95752 0.0
C254 C 0.96252 0.52059 0.94373 0.0
C255 C 0.97679 0.53458 0.96628 0.0
C256 C 0.94874 0.53712 0.92842 0.0
C257 C 0.96522 0.57702 0.82593 0.0
C258 C 0.98713 0.53504 0.82149 0.0
C259 C 0.98683 0.5692 0.7868 0.0
C260 C 0.97332 0.58629 0.80148 0.0
C261 C 0.99312 0.54274 0.79639 0.0
C262 C 0.97301 0.55192 0.83615 0.0
C263 C 0.94413 0.59056 0.83849 0.0
O264 O 0.86593 0.59632 0.8744 0.0
O265 O 0.90718 0.64604 0.8771 0.0
O266 O 0.95859 0.61786 0.85153 0.0
O267 O 0.91579 0.56886 0.84778 0.0
H268 H 0.9069 0.64374 0.82768 0.0
H269 H 0.88475 0.65424 0.78919 0.0
H270 H 0.79399 0.64315 0.82636 0.0
H271 H 0.81678 0.63371 0.865 0.0
H272 H 0.98898 0.57742 0.98992 0.0
H273 H 0.96448 0.60596 0.9634 0.0
H274 H 0.96086 0.49629 0.93835 0.0
H275 H 0.93693 0.5253 0.91155 0.0
H276 H 0.99178 0.51485 0.82947 0.0
H277 H 0.98993 0.57522 0.76751 0.0
H278 H 0.96705 0.60535 0.79323 0.0
H279 H 0.9667 0.54432 0.85501 0.0
C280 C 0.35256 0.24998 0.85001 0.0
C281 C 0.35315 0.26677 0.82804 0.0
C282 C 0.34418 0.21659 0.80491 0.0
C283 C 0.34893 0.2502 0.8057 0.0
C284 C 0.343 0.19971 0.827 0.0
C285 C 0.34712 0.21628 0.84937 0.0
U286 U 0.39032 0.33268 0.88232 0.0
O287 O 0.37693 0.35113 0.91637 0.0
O288 O 0.4252 0.34768 0.91314 0.0
C289 C 0.40567 0.35665 0.92674 0.0
C290 C 0.36094 0.26842 0.87322 0.0
C291 C 0.42198 0.38776 0.9409 0.0
C292 C 0.42666 0.41616 0.97969 0.0
C293 C 0.40965 0.38908 0.96433 0.0
C294 C 0.46829 0.44174 0.94813 0.0
C295 C 0.45641 0.4426 0.97192 0.0
C296 C 0.45121 0.41454 0.93272 0.0
C297 C 0.42197 0.40526 0.8327 0.0
C298 C 0.47317 0.45231 0.82067 0.0
C299 C 0.4225 0.43929 0.79752 0.0
C300 C 0.40514 0.41308 0.81366 0.0
C301 C 0.45701 0.45814 0.80022 0.0
C302 C 0.45579 0.42603 0.83681 0.0
C303 C 0.40587 0.37174 0.84378 0.0
O304 O 0.39314 0.28442 0.87715 0.0
O305 O 0.3443 0.2865 0.8782 0.0
O306 O 0.37759 0.3635 0.85577 0.0
O307 O 0.4254 0.35875 0.85294 0.0
H308 H 0.35791 0.29298 0.82814 0.0
H309 H 0.35069 0.26407 0.78898 0.0
H310 H 0.33942 0.17382 0.82692 0.0
H311 H 0.34695 0.20304 0.86612 0.0
H312 H 0.41675 0.41622 0.99782 0.0
H313 H 0.38726 0.36861 0.97106 0.0
H314 H 0.49139 0.46152 0.94173 0.0
H315 H 0.46134 0.41398 0.91475 0.0
H316 H 0.49975 0.46668 0.82325 0.0
H317 H 0.40947 0.44286 0.78178 0.0
H318 H 0.37914 0.39715 0.80999 0.0
H319 H 0.46938 0.42054 0.85136 0.0
C320 C 0.74745 0.12928 0.84823 0.0
C321 C 0.73403 0.11473 0.82572 0.0
C322 C 0.7823 0.15581 0.80433 0.0
C323 C 0.7513 0.12786 0.80397 0.0
C324 C 0.79583 0.17008 0.82696 0.0
C325 C 0.77854 0.15687 0.84875 0.0
U326 U 0.66479 0.07699 0.87784 0.0
O327 O 0.6393 0.08942 0.90817 0.0
O328 O 0.65147 0.04588 0.91127 0.0
C329 C 0.63733 0.06378 0.92153 0.0
C330 C 0.72786 0.11725 0.87085 0.0
C331 C 0.60625 0.04582 0.93572 0.0
C332 C 0.58098 0.01553 0.97304 0.0
C333 C 0.60777 0.02796 0.9566 0.0
C334 C 0.54977 0.03721 0.94745 0.0
C335 C 0.55207 0.02087 0.96903 0.0
C336 C 0.57669 0.04974 0.93096 0.0
C337 C 0.59977 0.03303 0.82506 0.0
C338 C 0.53944 0.01099 0.82141 0.0
C339 C 0.57352 0.01483 0.7857 0.0
C340 C 0.60205 0.02721 0.80015 0.0
C341 C 0.54195 0.00773 0.79593 0.0
C342 C 0.56828 0.024 0.83588 0.0
C343 C 0.63106 0.05267 0.8378 0.0
O344 O 0.70434 0.12787 0.87398 0.0
O345 O 0.71762 0.08518 0.8755 0.0
O346 O 0.64547 0.03685 0.85034 0.0
O347 O 0.63406 0.08099 0.84764 0.0
H348 H 0.7098 0.09371 0.82493 0.0
H349 H 0.73988 0.1168 0.78681 0.0
H350 H 0.81965 0.19165 0.82777 0.0
H351 H 0.78912 0.16859 0.86594 0.0
H352 H 0.58317 0.00236 0.9892 0.0
H353 H 0.63031 0.02474 0.96073 0.0
H354 H 0.5277 0.04152 0.94384 0.0
H355 H 0.57482 0.0635 0.91504 0.0
H356 H 0.51539 0.00481 0.82999 0.0
H357 H 0.57657 0.01294 0.76621 0.0
H358 H 0.62623 0.03419 0.7915 0.0
H359 H 0.56613 0.02828 0.85516 0.0
C360 C 0.35815 0.13186 0.66534 0.0
C361 C 0.35364 0.11285 0.68678 0.0
C362 C 0.34739 0.1566 0.71057 0.0
C363 C 0.34822 0.12506 0.70915 0.0
C364 C 0.35138 0.17533 0.68897 0.0
C365 C 0.35668 0.16302 0.66654 0.0
U366 U 0.39461 0.0787 0.63403 0.0
O367 O 0.43159 0.09192 0.60435 0.0
O368 O 0.38224 0.05024 0.59954 0.0
C369 C 0.41206 0.06764 0.59012 0.0
C370 C 0.3676 0.12074 0.64233 0.0
C371 C 0.42774 0.04911 0.57629 0.0
C372 C 0.43036 0.02152 0.53838 0.0
C373 C 0.41396 0.03525 0.55371 0.0
C374 C 0.47434 0.03431 0.56829 0.0
C375 C 0.46098 0.0213 0.54532 0.0
C376 C 0.45787 0.04809 0.58367 0.0
C377 C 0.41851 0.02847 0.68547 0.0
C378 C 0.46689 0.02002 0.69912 0.0
C379 C 0.41533 0.99657 0.72242 0.0
C380 C 0.40003 0.00891 0.70515 0.0
C381 C 0.44931 0.00347 0.72015 0.0
C382 C 0.45163 0.03262 0.68189 0.0
C383 C 0.40519 0.05 0.67307 0.0
O384 O 0.39989 0.13014 0.63956 0.0
O385 O 0.34999 0.08927 0.63651 0.0
O386 O 0.37775 0.03623 0.66008 0.0
O387 O 0.42678 0.07889 0.66447 0.0
H388 H 0.35515 0.08891 0.68631 0.0
H389 H 0.3452 0.11003 0.72545 0.0
H390 H 0.35166 0.20003 0.68952 0.0
H391 H 0.36063 0.17827 0.65026 0.0
H392 H 0.41932 0.01147 0.5209 0.0
H393 H 0.39089 0.03598 0.54755 0.0
H394 H 0.49812 0.03494 0.57401 0.0
H395 H 0.46919 0.05883 0.60093 0.0
H396 H 0.49321 0.02573 0.69708 0.0
H397 H 0.40133 0.98379 0.73848 0.0
H398 H 0.37453 0.00561 0.70834 0.0
H399 H 0.46645 0.04773 0.6669 0.0
C400 C 0.86899 0.25218 0.6676 0.0
C401 C 0.88514 0.26539 0.6897 0.0
C402 C 0.84389 0.21832 0.7121 0.0
C403 C 0.87272 0.2486 0.71174 0.0
C404 C 0.82802 0.20497 0.68986 0.0
C405 C 0.84051 0.22178 0.66779 0.0
U406 U 0.92211 0.33367 0.63668 0.0
O407 O 0.95107 0.34535 0.60223 0.0
O408 O 0.90911 0.35961 0.60696 0.0
C409 C 0.93361 0.36048 0.59275 0.0
C410 C 0.88033 0.27135 0.64475 0.0
C411 C 0.95202 0.39152 0.57864 0.0
C412 C 0.98078 0.41679 0.54082 0.0
C413 C 0.9674 0.38934 0.55664 0.0
C414 C 0.9646 0.44965 0.56911 0.0
C415 C 0.97909 0.44711 0.54667 0.0
C416 C 0.95118 0.4221 0.58497 0.0
C417 C 0.97153 0.39913 0.68816 0.0
C418 C 0.98229 0.45594 0.69975 0.0
C419 C 0.00146 0.42275 0.72558 0.0
C420 C 0.98899 0.39656 0.70888 0.0
C421 C 0.99699 0.4521 0.72164 0.0
C422 C 0.96944 0.4295 0.68312 0.0
C423 C 0.95015 0.36792 0.67579 0.0
O424 O 0.87076 0.2957 0.64215 0.0
O425 O 0.91195 0.28031 0.63905 0.0
O426 O 0.96416 0.35211 0.66278 0.0
O427 O 0.92142 0.36552 0.66712 0.0
H428 H 0.90699 0.28903 0.68994 0.0
H429 H 0.88549 0.25947 0.72855 0.0
H430 H 0.80536 0.18208 0.6896 0.0
H431 H 0.82748 0.21145 0.65095 0.0
H432 H 0.99198 0.41413 0.52378 0.0
H433 H 0.96808 0.36596 0.55126 0.0
H434 H 0.96249 0.47252 0.57398 0.0
H435 H 0.93922 0.42443 0.60174 0.0
H436 H 0.97826 0.47827 0.69649 0.0
H437 H 0.0126 0.41925 0.74236 0.0
H438 H 0.99061 0.37324 0.71321 0.0
H439 H 0.95585 0.43196 0.66733 0.0
C440 C 0.74175 0.6452 0.6666 0.0
C441 C 0.72486 0.64315 0.68877 0.0
C442 C 0.77577 0.65369 0.71142 0.0
C443 C 0.74174 0.64744 0.71098 0.0
C444 C 0.79274 0.6564 0.68913 0.0
C445 C 0.77585 0.65223 0.6669 0.0
U446 U 0.65907 0.6049 0.63443 0.0
O447 O 0.63945 0.61798 0.60082 0.0
O448 O 0.64552 0.57093 0.60306 0.0
C449 C 0.63531 0.58992 0.58993 0.0
C450 C 0.72317 0.63666 0.64346 0.0
C451 C 0.60446 0.57277 0.57563 0.0
C452 C 0.57558 0.5686 0.53712 0.0
C453 C 0.60205 0.58618 0.55283 0.0
C454 C 0.55265 0.52425 0.56714 0.0
C455 C 0.55096 0.5371 0.54383 0.0
C456 C 0.57922 0.5419 0.5829 0.0
C457 C 0.58658 0.56904 0.684 0.0
C458 C 0.5501 0.56877 0.71755 0.0
C459 C 0.54294 0.51674 0.69833 0.0
C460 C 0.56882 0.53423 0.68195 0.0
C461 C 0.53439 0.53373 0.71696 0.0
C462 C 0.576 0.58625 0.7012 0.0
C463 C 0.62004 0.58663 0.67298 0.0
O464 O 0.70847 0.60447 0.63909 0.0
O465 O 0.70384 0.65213 0.63902 0.0
O466 O 0.62718 0.61509 0.66151 0.0
O467 O 0.63425 0.56843 0.66335 0.0
H468 H 0.69837 0.63718 0.68892 0.0
H469 H 0.72783 0.64451 0.72785 0.0
H470 H 0.81895 0.66117 0.68895 0.0
H471 H 0.7892 0.65355 0.64999 0.0
H472 H 0.57504 0.57916 0.51931 0.0
H473 H 0.62134 0.60983 0.54679 0.0
H474 H 0.53364 0.50038 0.57305 0.0
H475 H 0.58047 0.53105 0.60044 0.0
H476 H 0.54432 0.58247 0.73189 0.0
H477 H 0.53099 0.48971 0.69741 0.0
H478 H 0.57642 0.52025 0.66891 0.0
H479 H 0.58958 0.61304 0.70334 0.0
C480 C 0.17841 0.36101 0.27605 0.0
C481 C 0.20864 0.35735 0.27723 0.0
C482 C 0.16333 0.36139 0.25359 0.0
C483 C 0.17785 0.3582 0.23132 0.0
H484 H 0.16687 0.36484 0.29257 0.0
H485 H 0.14037 0.36485 0.25366 0.0
S486 S 0.25564 0.3454 0.22446 0.0
N487 N 0.25119 0.34779 0.25425 0.0
N488 N 0.22367 0.34993 0.21201 0.0
C489 C 0.20746 0.35331 0.23228 0.0
C490 C 0.22267 0.35264 0.25519 0.0
C491 C 0.6028 0.77954 0.24886 0.0
C492 C 0.63288 0.78526 0.23667 0.0
C493 C 0.60272 0.79506 0.27115 0.0
C494 C 0.63275 0.81651 0.28229 0.0
H495 H 0.57908 0.76321 0.24093 0.0
H496 H 0.57896 0.79008 0.27983 0.0
S497 S 0.71823 0.83933 0.25807 0.0
N498 N 0.69348 0.81369 0.23739 0.0
N499 N 0.69335 0.84262 0.27958 0.0
C500 C 0.66303 0.82221 0.27046 0.0
C501 C 0.66309 0.80673 0.24754 0.0
C502 C 0.16985 0.81345 0.26877 0.0
C503 C 0.17888 0.78998 0.28053 0.0
C504 C 0.18456 0.82804 0.24639 0.0
C505 C 0.20923 0.82011 0.23534 0.0
H506 H 0.15099 0.8202 0.27678 0.0
H507 H 0.17691 0.84591 0.23781 0.0
S508 S 0.24186 0.76053 0.25896 0.0
N509 N 0.21402 0.75965 0.27956 0.0
N510 N 0.2419 0.78731 0.23776 0.0
C511 C 0.21859 0.79689 0.24704 0.0
C512 C 0.20334 0.78175 0.26956 0.0
C513 C 0.81036 0.63472 0.73837 0.0
C514 C 0.79283 0.65479 0.73502 0.0
C515 C 0.8251 0.63366 0.76083 0.0
C516 C 0.82301 0.65271 0.78086 0.0
H517 H 0.81197 0.61899 0.72369 0.0
H518 H 0.83756 0.61713 0.76267 0.0
S519 S 0.7826 0.71174 0.78089 0.0
N520 N 0.7759 0.6957 0.75313 0.0
N521 N 0.80386 0.69394 0.79534 0.0
C522 C 0.80624 0.67353 0.77758 0.0
C523 C 0.79112 0.67452 0.75469 0.0
C524 C 0.364 0.18365 0.77694 0.0
C525 C 0.34297 0.19996 0.78108 0.0
C526 C 0.36488 0.16937 0.75424 0.0
C527 C 0.34468 0.17074 0.73474 0.0
H528 H 0.38061 0.18266 0.79118 0.0
H529 H 0.38214 0.15786 0.75177 0.0
S530 S 0.28291 0.2078 0.73688 0.0
N531 N 0.29995 0.21489 0.76431 0.0
N532 N 0.3014 0.18784 0.72164 0.0
C533 C 0.32292 0.18626 0.73882 0.0
C534 C 0.3221 0.2009 0.76196 0.0
C535 C 0.82506 0.22079 0.75502 0.0
C536 C 0.82943 0.20182 0.73577 0.0
C537 C 0.8104 0.20581 0.77723 0.0
C538 C 0.79948 0.17123 0.78108 0.0
H539 H 0.83234 0.24737 0.75271 0.0
H540 H 0.80683 0.22131 0.79128 0.0
S541 S 0.80807 0.11092 0.73744 0.0
N542 N 0.82367 0.14697 0.72264 0.0
N543 N 0.79601 0.11878 0.76438 0.0
C544 C 0.80439 0.15208 0.76222 0.0
C545 C 0.81937 0.16736 0.73959 0.0
C546 C 0.99019 0.49566 0.02522 0.0
C547 C 0.01169 0.48096 0.01804 0.0
C548 C 0.97903 0.51282 0.00837 0.0
C549 C 0.98897 0.51605 0.98365 0.0
H550 H 0.98164 0.49361 0.04398 0.0
H551 H 0.96218 0.52338 0.01471 0.0
S552 S 0.04712 0.48443 0.95592 0.0
N553 N 0.0439 0.4723 0.98475 0.0
N554 N 0.02285 0.50445 0.95313 0.0
C555 C 0.01071 0.50175 0.97627 0.0
C556 C 0.0221 0.48429 0.99343 0.0
C557 C 0.48194 0.4626 0.01306 0.0
C558 C 0.47552 0.47013 0.98911 0.0
C559 C 0.49968 0.48796 0.02973 0.0
C560 C 0.51181 0.5219 0.02311 0.0
H561 H 0.47345 0.43682 0.01891 0.0
H562 H 0.50425 0.48094 0.04787 0.0
S563 S 0.49942 0.55504 0.96333 0.0
N564 N 0.48126 0.51404 0.96008 0.0
N565 N 0.51454 0.56169 0.99134 0.0
C566 C 0.50524 0.52979 0.99932 0.0
C567 C 0.48717 0.50395 0.98235 0.0
C568 C 0.46578 0.98104 0.99861 0.0
C569 C 0.47243 0.98918 0.0235 0.0
C570 C 0.49153 0.99153 0.98108 0.0
C571 C 0.52498 0.01043 0.98776 0.0
H572 H 0.4405 0.96591 0.99266 0.0
H573 H 0.48528 0.98429 0.96222 0.0
S574 S 0.55539 0.04115 0.05002 0.0
N575 N 0.51475 0.01925 0.05356 0.0
N576 N 0.56309 0.03877 0.02072 0.0
C577 C 0.5319 0.01932 0.01248 0.0
C578 C 0.50569 0.00873 0.0303 0.0
C579 C 0.48387 0.01963 0.5035 0.0
C580 C 0.47944 0.00887 0.52805 0.0
C581 C 0.50113 0.00838 0.48679 0.0
C582 C 0.51475 0.98598 0.49396 0.0
H583 H 0.47422 0.03723 0.49719 0.0
H584 H 0.50418 0.01759 0.46816 0.0
S585 S 0.50775 0.94808 0.55556 0.0
N586 N 0.48859 0.97314 0.55831 0.0
N587 N 0.52099 0.95198 0.52698 0.0
C588 C 0.51015 0.97469 0.51837 0.0
C589 C 0.49255 0.98615 0.53538 0.0
C590 C 0.98124 0.46941 0.50411 0.0
C591 C 0.99096 0.4753 0.52877 0.0
C592 C 0.99188 0.49546 0.48684 0.0
C593 C 0.01259 0.52848 0.49355 0.0
H594 H 0.96491 0.44448 0.49814 0.0
H595 H 0.98348 0.48978 0.46814 0.0
S596 S 0.04741 0.55674 0.5553 0.0
N597 N 0.02401 0.51635 0.55869 0.0
N598 N 0.04401 0.56528 0.52631 0.0
C599 C 0.02287 0.53464 0.51808 0.0
C600 C 0.01205 0.50811 0.53565 0.0
C601 C 0.48279 0.51582 0.49577 0.0
C602 C 0.47476 0.48207 0.49044 0.0
C603 C 0.50704 0.53322 0.51325 0.0
C604 C 0.52429 0.5176 0.52614 0.0
H605 H 0.46986 0.5288 0.48659 0.0
H606 H 0.51218 0.5591 0.51682 0.0
S607 S 0.51436 0.43031 0.51768 0.0
N608 N 0.48709 0.43412 0.49867 0.0
N609 N 0.53276 0.46681 0.53141 0.0
C610 C 0.51673 0.48394 0.52081 0.0
C611 C 0.492 0.46622 0.50301 0.0
C612 C 0.98401 0.5109 0.2605 0.0
C613 C 0.00505 0.51432 0.28071 0.0
C614 C 0.98357 0.49093 0.24043 0.0
C615 C 0.00346 0.473 0.24016 0.0
H616 H 0.96891 0.525 0.25968 0.0
H617 H 0.96842 0.49034 0.22473 0.0
S618 S 0.06161 0.47166 0.28851 0.0
N619 N 0.04572 0.49703 0.29906 0.0
N620 N 0.04352 0.45845 0.26188 0.0
C621 C 0.02302 0.47449 0.26072 0.0
C622 C 0.02404 0.49529 0.28092 0.0
C623 C 0.46703 0.4724 0.25319 0.0
C624 C 0.48205 0.46393 0.27308 0.0
C625 C 0.48626 0.49173 0.23381 0.0
C626 C 0.52128 0.50304 0.23346 0.0
H627 H 0.44031 0.46532 0.25319 0.0
H628 H 0.47367 0.49938 0.21971 0.0
S629 S 0.57171 0.48282 0.27974 0.0
N630 N 0.53312 0.46533 0.29055 0.0
N631 N 0.56954 0.50053 0.25354 0.0
C632 C 0.53627 0.49269 0.25259 0.0
C633 C 0.51661 0.47346 0.27257 0.0
C634 C 0.45805 0.97865 0.2633 0.0
C635 C 0.4719 -0.0018 0.24242 0.0
C636 C 0.4782 0.97814 0.28287 0.0
C637 C 0.51299 0.99747 0.28243 0.0
H638 H 0.43166 0.96213 0.26393 0.0
H639 H 0.46658 0.96081 0.29771 0.0
S640 S 0.56026 0.05738 0.23352 0.0
N641 N 0.52152 0.03992 0.22327 0.0
N642 N 0.55953 0.04038 0.26059 0.0
C643 C 0.52668 0.01914 0.26235 0.0
C644 C 0.50613 0.0191 0.24219 0.0
C645 C 0.98208 0.48532 0.78184 0.0
C646 C 0.00037 0.52013 0.77943 0.0
C647 C 0.98282 0.46346 0.76358 0.0
C648 C 0.00158 0.47551 0.74208 0.0
H649 H 0.96535 0.47489 0.7972 0.0
H650 H 0.96701 0.43704 0.76567 0.0
S651 S 0.05813 0.56351 0.72838 0.0
N652 N 0.04157 0.56506 0.75522 0.0
N653 N 0.04164 0.52374 0.72038 0.0
C654 C 0.02154 0.50988 0.73997 0.0
C655 C 0.02131 0.53221 0.75879 0.0
C656 C 0.52183 0.49116 0.74993 0.0
C657 C 0.51344 0.51482 0.73785 0.0
C658 C 0.50399 0.47387 0.77047 0.0
C659 C 0.47692 0.4794 0.77977 0.0
H660 H 0.54267 0.48621 0.74361 0.0
H661 H 0.51107 0.45544 0.77883 0.0
S662 S 0.44501 0.53898 0.755 0.0
N663 N 0.47647 0.54319 0.73672 0.0
N664 N 0.44273 0.51049 0.77552 0.0
C665 C 0.46826 0.50308 0.76796 0.0
C666 C 0.48665 0.52092 0.74703 0.0
C667 C 0.50895 0.98127 0.7583 0.0
C668 C 0.51315 0.00119 0.77929 0.0
C669 C 0.48702 0.98069 0.73957 0.0
C670 C 0.46792 -0.00064 0.74143 0.0
H671 H 0.52389 0.96721 0.75582 0.0
H672 H 0.48579 0.96646 0.7232 0.0
S673 S 0.46815 0.05435 0.79266 0.0
N674 N 0.49539 0.03945 0.80076 0.0
N675 N 0.45332 0.03713 0.76604 0.0
C676 C 0.47031 0.01777 0.76282 0.0
C677 C 0.49303 0.01888 0.78168 0.0
loop_
_geom_bond_atom_site_label_1
_geom_bond_atom_site_label_2
_geom_bond_distance
_geom_bond_site_symmetry_2
_ccdc_geom_bond_type
C0 C1 1.264 . S
C0 C5 1.479 . S
C0 C10 1.465 . S
C1 C0 1.264 . S
C1 C3 1.339 . S
C1 H28 0.931 . S
C2 C3 1.395 . S
C2 C4 1.320 . S
C3 C1 1.339 . S
C3 C2 1.395 . S
C3 H29 0.929 . S
C4 C2 1.320 . S
C4 C5 1.405 . S
C4 H30 0.930 . S
C5 C0 1.479 . S
C5 C4 1.405 . S
C5 H31 0.931 . S
U6 O7 2.454 . S
U6 O8 2.458 1_455 S
U6 C9 2.984 1_455 S
U6 C10 2.847 . S
U6 C23 2.882 1_455 S
U6 O24 2.441 . S
U6 O25 2.420 . S
U6 O26 2.455 1_455 S
U6 O27 2.449 . S
O7 U6 2.454 . S
O7 C9 1.353 1_455 S
O8 U6 2.458 1_655 S
O8 C9 1.286 . S
C9 U6 2.984 1_655 S
C9 O7 1.353 1_655 S
C9 O8 1.286 . S
C9 C11 1.363 . S
C10 C0 1.465 . S
C10 U6 2.847 . S
C10 O24 1.249 . S
C10 O25 1.202 . S
C11 C9 1.363 . S
C11 C13 1.408 1_655 S
C11 C16 1.342 . S
C12 C13 1.310 1_655 S
C12 C15 1.461 . S
C12 H32 0.932 1_655 S
C13 C11 1.408 1_455 S
C13 C12 1.310 1_455 S
C13 H33 0.930 . S
C14 C15 1.474 . S
C14 C16 1.285 . S
C14 H34 0.929 . S
C15 C12 1.461 . S
C15 C14 1.474 . S
C16 C11 1.342 . S
C16 C14 1.285 . S
C16 H35 0.930 . S
C17 C20 1.424 . S
C17 C22 1.245 . S
C17 C23 1.428 . S
C18 C21 1.260 . S
C18 C22 1.477 . S
C18 H36 0.932 . S
C19 C20 1.384 . S
C19 C21 1.479 . S
C19 H37 0.929 . S
C20 C17 1.424 . S
C20 C19 1.384 . S
C20 H38 0.928 . S
C21 C18 1.260 . S
C21 C19 1.479 . S
C22 C17 1.245 . S
C22 C18 1.477 . S
C22 H39 0.932 . S
C23 U6 2.882 1_655 S
C23 C17 1.428 . S
C23 O26 1.301 . S
C23 O27 1.282 1_655 S
O24 U6 2.441 . S
O24 C10 1.249 . S
O25 U6 2.420 . S
O25 C10 1.202 . S
O26 U6 2.455 1_655 S
O26 C23 1.301 . S
O27 U6 2.449 . S
O27 C23 1.282 1_455 S
H28 C1 0.931 . S
H29 C3 0.929 . S
H30 C4 0.930 . S
H31 C5 0.931 . S
H32 C12 0.932 1_455 S
H33 C13 0.930 . S
H34 C14 0.929 . S
H35 C16 0.930 . S
H36 C18 0.932 . S
H37 C19 0.929 . S
H38 C20 0.928 . S
H39 C22 0.932 . S
C40 C41 1.264 . S
C40 C45 1.479 . S
C40 C50 1.465 . S
C41 C40 1.264 . S
C41 C43 1.339 . S
C41 H68 0.931 . S
C42 C43 1.395 . S
C42 C44 1.320 . S
C43 C41 1.339 . S
C43 C42 1.395 . S
C43 H69 0.929 . S
C44 C42 1.320 . S
C44 C45 1.405 . S
C44 H70 0.930 . S
C45 C40 1.479 . S
C45 C44 1.405 . S
C45 H71 0.931 . S
U46 O47 2.454 . S
U46 O48 2.458 . S
U46 C49 2.984 . S
U46 C50 2.847 . S
U46 C63 2.882 . S
U46 O64 2.441 . S
U46 O65 2.420 . S
U46 O66 2.455 . S
U46 O67 2.449 . S
O47 U46 2.454 . S
O47 C49 1.353 . S
O48 U46 2.458 . S
O48 C49 1.286 . S
C49 U46 2.984 . S
C49 O47 1.353 . S
C49 O48 1.286 . S
C49 C51 1.363 . S
C50 C40 1.465 . S
C50 U46 2.847 . S
C50 O64 1.249 . S
C50 O65 1.202 . S
C51 C49 1.363 . S
C51 C53 1.408 . S
C51 C56 1.342 . S
C52 C53 1.310 . S
C52 C55 1.461 . S
C52 H72 0.932 . S
C53 C51 1.408 . S
C53 C52 1.310 . S
C53 H73 0.930 . S
C54 C55 1.474 . S
C54 C56 1.285 . S
C54 H74 0.929 . S
C55 C52 1.461 . S
C55 C54 1.474 . S
C56 C51 1.342 . S
C56 C54 1.285 . S
C56 H75 0.930 . S
C57 C60 1.424 . S
C57 C62 1.245 . S
C57 C63 1.428 . S
C58 C61 1.260 . S
C58 C62 1.477 . S
C58 H76 0.932 . S
C59 C60 1.384 . S
C59 C61 1.479 . S
C59 H77 0.929 . S
C60 C57 1.424 . S
C60 C59 1.384 . S
C60 H78 0.928 . S
C61 C58 1.260 . S
C61 C59 1.479 . S
C62 C57 1.245 . S
C62 C58 1.477 . S
C62 H79 0.932 . S
C63 U46 2.882 . S
C63 C57 1.428 . S
C63 O66 1.301 . S
C63 O67 1.282 . S
O64 U46 2.441 . S
O64 C50 1.249 . S
O65 U46 2.420 . S
O65 C50 1.202 . S
O66 U46 2.455 . S
O66 C63 1.301 . S
O67 U46 2.449 . S
O67 C63 1.282 . S
H68 C41 0.931 . S
H69 C43 0.929 . S
H70 C44 0.930 . S
H71 C45 0.931 . S
H72 C52 0.932 . S
H73 C53 0.930 . S
H74 C54 0.929 . S
H75 C56 0.930 . S
H76 C58 0.932 . S
H77 C59 0.929 . S
H78 C60 0.928 . S
H79 C62 0.932 . S
C80 C81 1.264 . S
C80 C85 1.479 . S
C80 C90 1.465 . S
C81 C80 1.264 . S
C81 C83 1.339 . S
C81 H108 0.931 . S
C82 C83 1.395 . S
C82 C84 1.320 . S
C83 C81 1.339 . S
C83 C82 1.395 . S
C83 H109 0.929 . S
C84 C82 1.320 . S
C84 C85 1.405 . S
C84 H110 0.930 . S
C85 C80 1.479 . S
C85 C84 1.405 . S
C85 H111 0.931 . S
U86 O87 2.454 . S
U86 O88 2.458 1_565 S
U86 C89 2.984 1_565 S
U86 C90 2.847 . S
U86 C103 2.882 1_565 S
U86 O104 2.441 . S
U86 O105 2.420 . S
U86 O106 2.455 1_565 S
U86 O107 2.449 . S
O87 U86 2.454 . S
O87 C89 1.353 1_565 S
O88 U86 2.458 1_545 S
O88 C89 1.286 . S
C89 U86 2.984 1_545 S
C89 O87 1.353 1_545 S
C89 O88 1.286 . S
C89 C91 1.363 . S
C90 C80 1.465 . S
C90 U86 2.847 . S
C90 O104 1.249 . S
C90 O105 1.202 . S
C91 C89 1.363 . S
C91 C93 1.408 1_545 S
C91 C96 1.342 . S
C92 C93 1.310 1_545 S
C92 C95 1.461 . S
C92 H112 0.932 1_545 S
C93 C91 1.408 1_565 S
C93 C92 1.310 1_565 S
C93 H113 0.930 . S
C94 C95 1.474 . S
C94 C96 1.285 . S
C94 H114 0.929 . S
C95 C92 1.461 . S
C95 C94 1.474 . S
C96 C91 1.342 . S
C96 C94 1.285 . S
C96 H115 0.930 . S
C97 C100 1.424 . S
C97 C102 1.245 . S
C97 C103 1.428 . S
C98 C101 1.260 . S
C98 C102 1.477 . S
C98 H116 0.932 . S
C99 C100 1.384 . S
C99 C101 1.479 . S
C99 H117 0.929 . S
C100 C97 1.424 . S
C100 C99 1.384 . S
C100 H118 0.928 . S
C101 C98 1.260 . S
C101 C99 1.479 . S
C102 C97 1.245 . S
C102 C98 1.477 . S
C102 H119 0.932 . S
C103 U86 2.882 1_545 S
C103 C97 1.428 . S
C103 O106 1.301 . S
C103 O107 1.282 1_545 S
O104 U86 2.441 . S
O104 C90 1.249 . S
O105 U86 2.420 . S
O105 C90 1.202 . S
O106 U86 2.455 1_545 S
O106 C103 1.301 . S
O107 U86 2.449 . S
O107 C103 1.282 1_565 S
H108 C81 0.931 . S
H109 C83 0.929 . S
H110 C84 0.930 . S
H111 C85 0.931 . S
H112 C92 0.932 1_565 S
H113 C93 0.930 . S
H114 C94 0.929 . S
H115 C96 0.930 . S
H116 C98 0.932 . S
H117 C99 0.929 . S
H118 C100 0.928 . S
H119 C102 0.932 . S
C120 C121 1.264 . S
C120 C125 1.479 . S
C120 C130 1.465 . S
C121 C120 1.264 . S
C121 C123 1.339 . S
C121 H148 0.931 . S
C122 C123 1.395 . S
C122 C124 1.320 . S
C123 C121 1.339 . S
C123 C122 1.395 . S
C123 H149 0.929 . S
C124 C122 1.320 . S
C124 C125 1.405 . S
C124 H150 0.930 . S
C125 C120 1.479 . S
C125 C124 1.405 . S
C125 H151 0.931 . S
U126 O127 2.454 . S
U126 O128 2.458 1_565 S
U126 C129 2.984 1_565 S
U126 C130 2.847 . S
U126 C143 2.882 1_565 S
U126 O144 2.441 . S
U126 O145 2.420 . S
U126 O146 2.455 1_565 S
U126 O147 2.449 . S
O127 U126 2.454 . S
O127 C129 1.353 1_565 S
O128 U126 2.458 1_545 S
O128 C129 1.286 . S
C129 U126 2.984 1_545 S
C129 O127 1.353 1_545 S
C129 O128 1.286 . S
C129 C131 1.363 . S
C130 C120 1.465 . S
C130 U126 2.847 . S
C130 O144 1.249 . S
C130 O145 1.202 . S
C131 C129 1.363 . S
C131 C133 1.408 1_545 S
C131 C136 1.342 . S
C132 C133 1.310 1_545 S
C132 C135 1.461 . S
C132 H152 0.932 1_545 S
C133 C131 1.408 1_565 S
C133 C132 1.310 1_565 S
C133 H153 0.930 . S
C134 C135 1.474 . S
C134 C136 1.285 . S
C134 H154 0.929 . S
C135 C132 1.461 . S
C135 C134 1.474 . S
C136 C131 1.342 . S
C136 C134 1.285 . S
C136 H155 0.930 . S
C137 C140 1.424 . S
C137 C142 1.245 . S
C137 C143 1.428 . S
C138 C141 1.260 . S
C138 C142 1.477 . S
C138 H156 0.932 . S
C139 C140 1.384 . S
C139 C141 1.479 . S
C139 H157 0.929 . S
C140 C137 1.424 . S
C140 C139 1.384 . S
C140 H158 0.928 . S
C141 C138 1.260 . S
C141 C139 1.479 . S
C142 C137 1.245 . S
C142 C138 1.477 . S
C142 H159 0.932 . S
C143 U126 2.882 1_545 S
C143 C137 1.428 . S
C143 O146 1.301 . S
C143 O147 1.282 1_545 S
O144 U126 2.441 . S
O144 C130 1.249 . S
O145 U126 2.420 . S
O145 C130 1.202 . S
O146 U126 2.455 1_545 S
O146 C143 1.301 . S
O147 U126 2.449 . S
O147 C143 1.282 1_565 S
H148 C121 0.931 . S
H149 C123 0.929 . S
H150 C124 0.930 . S
H151 C125 0.931 . S
H152 C132 0.932 1_565 S
H153 C133 0.930 . S
H154 C134 0.929 . S
H155 C136 0.930 . S
H156 C138 0.932 . S
H157 C139 0.929 . S
H158 C140 0.928 . S
H159 C142 0.932 . S
C160 C161 1.264 . S
C160 C165 1.479 . S
C160 C170 1.465 . S
C161 C160 1.264 . S
C161 C163 1.339 . S
C161 H188 0.931 . S
C162 C163 1.395 . S
C162 C164 1.320 . S
C163 C161 1.339 . S
C163 C162 1.395 . S
C163 H189 0.929 . S
C164 C162 1.320 . S
C164 C165 1.405 . S
C164 H190 0.930 . S
C165 C160 1.479 . S
C165 C164 1.405 . S
C165 H191 0.931 . S
U166 O167 2.454 . S
U166 O168 2.458 1_455 S
U166 C169 2.984 1_455 S
U166 C170 2.847 . S
U166 C183 2.882 1_455 S
U166 O184 2.441 . S
U166 O185 2.420 . S
U166 O186 2.455 1_455 S
U166 O187 2.449 . S
O167 U166 2.454 . S
O167 C169 1.353 1_455 S
O168 U166 2.458 1_655 S
O168 C169 1.286 . S
C169 U166 2.984 1_655 S
C169 O167 1.353 1_655 S
C169 O168 1.286 . S
C169 C171 1.363 . S
C170 C160 1.465 . S
C170 U166 2.847 . S
C170 O184 1.249 . S
C170 O185 1.202 . S
C171 C169 1.363 . S
C171 C173 1.408 1_655 S
C171 C176 1.342 . S
C172 C173 1.310 1_655 S
C172 C175 1.461 . S
C172 H192 0.932 1_655 S
C173 C171 1.408 1_455 S
C173 C172 1.310 1_455 S
C173 H193 0.930 . S
C174 C175 1.474 . S
C174 C176 1.285 . S
C174 H194 0.929 . S
C175 C172 1.461 . S
C175 C174 1.474 . S
C176 C171 1.342 . S
C176 C174 1.285 . S
C176 H195 0.930 . S
C177 C180 1.424 . S
C177 C182 1.245 . S
C177 C183 1.428 . S
C178 C181 1.260 . S
C178 C182 1.477 . S
C178 H196 0.932 . S
C179 C180 1.384 . S
C179 C181 1.479 . S
C179 H197 0.929 . S
C180 C177 1.424 . S
C180 C179 1.384 . S
C180 H198 0.928 . S
C181 C178 1.260 . S
C181 C179 1.479 . S
C182 C177 1.245 . S
C182 C178 1.477 . S
C182 H199 0.932 . S
C183 U166 2.882 1_655 S
C183 C177 1.428 . S
C183 O186 1.301 . S
C183 O187 1.282 1_655 S
O184 U166 2.441 . S
O184 C170 1.249 . S
O185 U166 2.420 . S
O185 C170 1.202 . S
O186 U166 2.455 1_655 S
O186 C183 1.301 . S
O187 U166 2.449 . S
O187 C183 1.282 1_455 S
H188 C161 0.931 . S
H189 C163 0.929 . S
H190 C164 0.930 . S
H191 C165 0.931 . S
H192 C172 0.932 1_455 S
H193 C173 0.930 . S
H194 C174 0.929 . S
H195 C176 0.930 . S
H196 C178 0.932 . S
H197 C179 0.929 . S
H198 C180 0.928 . S
H199 C182 0.932 . S
C200 C201 1.264 . S
C200 C205 1.479 . S
C200 C210 1.465 . S
C201 C200 1.264 . S
C201 C203 1.339 . S
C201 H228 0.931 . S
C202 C203 1.395 . S
C202 C204 1.320 . S
C203 C201 1.339 . S
C203 C202 1.395 . S
C203 H229 0.929 . S
C204 C202 1.320 . S
C204 C205 1.405 . S
C204 H230 0.930 . S
C205 C200 1.479 . S
C205 C204 1.405 . S
C205 H231 0.931 . S
U206 O207 2.454 . S
U206 O208 2.458 . S
U206 C209 2.984 . S
U206 C210 2.847 . S
U206 C223 2.882 . S
U206 O224 2.441 . S
U206 O225 2.420 . S
U206 O226 2.455 . S
U206 O227 2.449 . S
O207 U206 2.454 . S
O207 C209 1.353 . S
O208 U206 2.458 . S
O208 C209 1.286 . S
C209 U206 2.984 . S
C209 O207 1.353 . S
C209 O208 1.286 . S
C209 C211 1.363 . S
C210 C200 1.465 . S
C210 U206 2.847 . S
C210 O224 1.249 . S
C210 O225 1.202 . S
C211 C209 1.363 . S
C211 C213 1.408 . S
C211 C216 1.342 . S
C212 C213 1.310 . S
C212 C215 1.461 . S
C212 H232 0.932 . S
C213 C211 1.408 . S
C213 C212 1.310 . S
C213 H233 0.930 . S
C214 C215 1.474 . S
C214 C216 1.285 . S
C214 H234 0.929 . S
C215 C212 1.461 . S
C215 C214 1.474 . S
C216 C211 1.342 . S
C216 C214 1.285 . S
C216 H235 0.930 . S
C217 C220 1.424 . S
C217 C222 1.245 . S
C217 C223 1.428 . S
C218 C221 1.260 . S
C218 C222 1.477 . S
C218 H236 0.932 . S
C219 C220 1.384 . S
C219 C221 1.479 . S
C219 H237 0.929 . S
C220 C217 1.424 . S
C220 C219 1.384 . S
C220 H238 0.928 . S
C221 C218 1.260 . S
C221 C219 1.479 . S
C222 C217 1.245 . S
C222 C218 1.477 . S
C222 H239 0.932 . S
C223 U206 2.882 . S
C223 C217 1.428 . S
C223 O226 1.301 . S
C223 O227 1.282 . S
O224 U206 2.441 . S
O224 C210 1.249 . S
O225 U206 2.420 . S
O225 C210 1.202 . S
O226 U206 2.455 . S
O226 C223 1.301 . S
O227 U206 2.449 . S
O227 C223 1.282 . S
H228 C201 0.931 . S
H229 C203 0.929 . S
H230 C204 0.930 . S
H231 C205 0.931 . S
H232 C212 0.932 . S
H233 C213 0.930 . S
H234 C214 0.929 . S
H235 C216 0.930 . S
H236 C218 0.932 . S
H237 C219 0.929 . S
H238 C220 0.928 . S
H239 C222 0.932 . S
C240 C241 1.264 . S
C240 C245 1.479 . S
C240 C250 1.465 . S
C241 C240 1.264 . S
C241 C243 1.339 . S
C241 H268 0.931 . S
C242 C243 1.395 . S
C242 C244 1.320 . S
C243 C241 1.339 . S
C243 C242 1.395 . S
C243 H269 0.929 . S
C244 C242 1.320 . S
C244 C245 1.405 . S
C244 H270 0.930 . S
C245 C240 1.479 . S
C245 C244 1.405 . S
C245 H271 0.931 . S
U246 O247 2.454 1_455 S
U246 O248 2.458 . S
U246 C249 2.984 . S
U246 C250 2.847 1_455 S
U246 C263 2.882 . S
U246 O264 2.441 1_455 S
U246 O265 2.420 1_455 S
U246 O266 2.455 . S
U246 O267 2.449 . S
O247 U246 2.454 1_655 S
O247 C249 1.353 1_655 S
O248 U246 2.458 . S
O248 C249 1.286 . S
C249 U246 2.984 . S
C249 O247 1.353 1_455 S
C249 O248 1.286 . S
C249 C251 1.363 . S
C250 C240 1.465 . S
C250 U246 2.847 1_655 S
C250 O264 1.249 . S
C250 O265 1.202 . S
C251 C249 1.363 . S
C251 C253 1.408 . S
C251 C256 1.342 . S
C252 C253 1.310 . S
C252 C255 1.461 . S
C252 H272 0.932 1_455 S
C253 C251 1.408 . S
C253 C252 1.310 . S
C253 H273 0.930 1_455 S
C254 C255 1.474 . S
C254 C256 1.285 . S
C254 H274 0.929 . S
C255 C252 1.461 . S
C255 C254 1.474 . S
C256 C251 1.342 . S
C256 C254 1.285 . S
C256 H275 0.930 . S
C257 C260 1.424 . S
C257 C262 1.245 . S
C257 C263 1.428 . S
C258 C261 1.260 . S
C258 C262 1.477 . S
C258 H276 0.932 . S
C259 C260 1.384 . S
C259 C261 1.479 . S
C259 H277 0.929 . S
C260 C257 1.424 . S
C260 C259 1.384 . S
C260 H278 0.928 . S
C261 C258 1.260 . S
C261 C259 1.479 . S
C262 C257 1.245 . S
C262 C258 1.477 . S
C262 H279 0.932 . S
C263 U246 2.882 . S
C263 C257 1.428 . S
C263 O266 1.301 . S
C263 O267 1.282 . S
O264 U246 2.441 1_655 S
O264 C250 1.249 . S
O265 U246 2.420 1_655 S
O265 C250 1.202 . S
O266 U246 2.455 . S
O266 C263 1.301 . S
O267 U246 2.449 . S
O267 C263 1.282 . S
H268 C241 0.931 . S
H269 C243 0.929 . S
H270 C244 0.930 . S
H271 C245 0.931 . S
H272 C252 0.932 1_655 S
H273 C253 0.930 1_655 S
H274 C254 0.929 . S
H275 C256 0.930 . S
H276 C258 0.932 . S
H277 C259 0.929 . S
H278 C260 0.928 . S
H279 C262 0.932 . S
C280 C281 1.264 . S
C280 C285 1.479 . S
C280 C290 1.465 . S
C281 C280 1.264 . S
C281 C283 1.339 . S
C281 H308 0.931 . S
C282 C283 1.395 . S
C282 C284 1.320 . S
C283 C281 1.339 . S
C283 C282 1.395 . S
C283 H309 0.929 . S
C284 C282 1.320 . S
C284 C285 1.405 . S
C284 H310 0.930 . S
C285 C280 1.479 . S
C285 C284 1.405 . S
C285 H311 0.931 . S
U286 O287 2.454 . S
U286 O288 2.458 . S
U286 C289 2.984 . S
U286 C290 2.847 . S
U286 C303 2.882 . S
U286 O304 2.441 . S
U286 O305 2.420 . S
U286 O306 2.455 . S
U286 O307 2.449 . S
O287 U286 2.454 . S
O287 C289 1.353 . S
O288 U286 2.458 . S
O288 C289 1.286 . S
C289 U286 2.984 . S
C289 O287 1.353 . S
C289 O288 1.286 . S
C289 C291 1.363 . S
C290 C280 1.465 . S
C290 U286 2.847 . S
C290 O304 1.249 . S
C290 O305 1.202 . S
C291 C289 1.363 . S
C291 C293 1.408 . S
C291 C296 1.342 . S
C292 C293 1.310 . S
C292 C295 1.461 . S
C292 H312 0.932 . S
C293 C291 1.408 . S
C293 C292 1.310 . S
C293 H313 0.930 . S
C294 C295 1.474 . S
C294 C296 1.285 . S
C294 H314 0.929 . S
C295 C292 1.461 . S
C295 C294 1.474 . S
C296 C291 1.342 . S
C296 C294 1.285 . S
C296 H315 0.930 . S
C297 C300 1.424 . S
C297 C302 1.245 . S
C297 C303 1.428 . S
C298 C301 1.260 . S
C298 C302 1.477 . S
C298 H316 0.932 . S
C299 C300 1.384 . S
C299 C301 1.479 . S
C299 H317 0.929 . S
C300 C297 1.424 . S
C300 C299 1.384 . S
C300 H318 0.928 . S
C301 C298 1.260 . S
C301 C299 1.479 . S
C302 C297 1.245 . S
C302 C298 1.477 . S
C302 H319 0.932 . S
C303 U286 2.882 . S
C303 C297 1.428 . S
C303 O306 1.301 . S
C303 O307 1.282 . S
O304 U286 2.441 . S
O304 C290 1.249 . S
O305 U286 2.420 . S
O305 C290 1.202 . S
O306 U286 2.455 . S
O306 C303 1.301 . S
O307 U286 2.449 . S
O307 C303 1.282 . S
H308 C281 0.931 . S
H309 C283 0.929 . S
H310 C284 0.930 . S
H311 C285 0.931 . S
H312 C292 0.932 . S
H313 C293 0.930 . S
H314 C294 0.929 . S
H315 C296 0.930 . S
H316 C298 0.932 . S
H317 C299 0.929 . S
H318 C300 0.928 . S
H319 C302 0.932 . S
C320 C321 1.264 . S
C320 C325 1.479 . S
C320 C330 1.465 . S
C321 C320 1.264 . S
C321 C323 1.339 . S
C321 H348 0.931 . S
C322 C323 1.395 . S
C322 C324 1.320 . S
C323 C321 1.339 . S
C323 C322 1.395 . S
C323 H349 0.929 . S
C324 C322 1.320 . S
C324 C325 1.405 . S
C324 H350 0.930 . S
C325 C320 1.479 . S
C325 C324 1.405 . S
C325 H351 0.931 . S
U326 O327 2.456 . S
U326 O328 2.458 . S
U326 C329 2.984 . S
U326 C330 2.847 1_565 S
U326 C343 2.882 . S
U326 O344 2.441 1_565 S
U326 O345 2.420 1_565 S
U326 O346 2.455 . S
U326 O347 2.449 . S
O327 U326 2.456 . S
O327 C329 1.355 . S
O328 U326 2.458 . S
O328 C329 1.286 . S
C329 U326 2.984 . S
C329 O327 1.355 . S
C329 O328 1.286 . S
C329 C331 1.363 . S
C330 C320 1.465 . S
C330 U326 2.847 1_545 S
C330 O344 1.249 . S
C330 O345 1.202 . S
C331 C329 1.363 . S
C331 C333 1.408 . S
C331 C336 1.342 . S
C332 C333 1.310 . S
C332 C335 1.461 . S
C332 H352 0.933 . S
C333 C331 1.408 . S
C333 C332 1.310 . S
C333 H353 0.930 1_565 S
C334 C335 1.474 . S
C334 C336 1.285 . S
C334 H354 0.929 . S
C335 C332 1.461 . S
C335 C334 1.474 . S
C336 C331 1.342 . S
C336 C334 1.285 . S
C336 H355 0.930 . S
C337 C340 1.424 . S
C337 C342 1.245 . S
C337 C343 1.428 . S
C338 C341 1.260 . S
C338 C342 1.477 . S
C338 H356 0.932 . S
C339 C340 1.384 . S
C339 C341 1.479 . S
C339 H357 0.929 . S
C340 C337 1.424 . S
C340 C339 1.384 . S
C340 H358 0.928 . S
C341 C338 1.260 . S
C341 C339 1.479 . S
C342 C337 1.245 . S
C342 C338 1.477 . S
C342 H359 0.932 . S
C343 U326 2.882 . S
C343 C337 1.428 . S
C343 O346 1.301 . S
C343 O347 1.282 . S
O344 U326 2.441 1_545 S
O344 C330 1.249 . S
O345 U326 2.420 1_545 S
O345 C330 1.202 . S
O346 U326 2.455 . S
O346 C343 1.301 . S
O347 U326 2.449 . S
O347 C343 1.282 . S
H348 C321 0.931 . S
H349 C323 0.929 . S
H350 C324 0.930 . S
H351 C325 0.931 . S
H352 C332 0.933 . S
H353 C333 0.930 1_545 S
H354 C334 0.929 . S
H355 C336 0.930 . S
H356 C338 0.932 . S
H357 C339 0.929 . S
H358 C340 0.928 . S
H359 C342 0.932 . S
C360 C361 1.264 . S
C360 C365 1.479 . S
C360 C370 1.465 . S
C361 C360 1.264 . S
C361 C363 1.339 . S
C361 H388 0.931 . S
C362 C363 1.395 . S
C362 C364 1.320 . S
C363 C361 1.339 . S
C363 C362 1.395 . S
C363 H389 0.929 . S
C364 C362 1.320 . S
C364 C365 1.405 . S
C364 H390 0.930 . S
C365 C360 1.479 . S
C365 C364 1.405 . S
C365 H391 0.931 . S
U366 O367 2.454 1_565 S
U366 O368 2.458 . S
U366 C369 2.984 . S
U366 C370 2.847 1_565 S
U366 C383 2.882 . S
U366 O384 2.441 1_565 S
U366 O385 2.420 1_565 S
U366 O386 2.455 . S
U366 O387 2.449 . S
O367 U366 2.454 1_545 S
O367 C369 1.353 1_545 S
O368 U366 2.458 . S
O368 C369 1.286 . S
C369 U366 2.984 . S
C369 O367 1.353 1_565 S
C369 O368 1.286 . S
C369 C371 1.363 . S
C370 C360 1.465 . S
C370 U366 2.847 1_545 S
C370 O384 1.249 . S
C370 O385 1.202 . S
C371 C369 1.363 . S
C371 C373 1.408 . S
C371 C376 1.342 . S
C372 C373 1.310 . S
C372 C375 1.461 . S
C372 H392 0.932 1_565 S
C373 C371 1.408 . S
C373 C372 1.310 . S
C373 H393 0.930 1_565 S
C374 C375 1.474 . S
C374 C376 1.285 . S
C374 H394 0.929 . S
C375 C372 1.461 . S
C375 C374 1.474 . S
C376 C371 1.342 . S
C376 C374 1.285 . S
C376 H395 0.930 . S
C377 C380 1.424 . S
C377 C382 1.245 . S
C377 C383 1.428 . S
C378 C381 1.260 . S
C378 C382 1.477 . S
C378 H396 0.932 . S
C379 C380 1.384 . S
C379 C381 1.479 . S
C379 H397 0.929 . S
C380 C377 1.424 . S
C380 C379 1.384 . S
C380 H398 0.928 . S
C381 C378 1.260 . S
C381 C379 1.479 . S
C382 C377 1.245 . S
C382 C378 1.477 . S
C382 H399 0.932 . S
C383 U366 2.882 . S
C383 C377 1.428 . S
C383 O386 1.301 . S
C383 O387 1.282 . S
O384 U366 2.441 1_545 S
O384 C370 1.249 . S
O385 U366 2.420 1_545 S
O385 C370 1.202 . S
O386 U366 2.455 . S
O386 C383 1.301 . S
O387 U366 2.449 . S
O387 C383 1.282 . S
H388 C361 0.931 . S
H389 C363 0.929 . S
H390 C364 0.930 . S
H391 C365 0.931 . S
H392 C372 0.932 1_545 S
H393 C373 0.930 1_545 S
H394 C374 0.929 . S
H395 C376 0.930 . S
H396 C378 0.932 . S
H397 C379 0.929 . S
H398 C380 0.928 . S
H399 C382 0.932 . S
C400 C401 1.264 . S
C400 C405 1.479 . S
C400 C410 1.465 . S
C401 C400 1.264 . S
C401 C403 1.339 . S
C401 H428 0.931 . S
C402 C403 1.395 . S
C402 C404 1.320 . S
C403 C401 1.339 . S
C403 C402 1.395 . S
C403 H429 0.929 . S
C404 C402 1.320 . S
C404 C405 1.405 . S
C404 H430 0.930 . S
C405 C400 1.479 . S
C405 C404 1.405 . S
C405 H431 0.931 . S
U406 O407 2.456 . S
U406 O408 2.458 . S
U406 C409 2.984 . S
U406 C410 2.847 1_455 S
U406 C423 2.882 . S
U406 O424 2.441 1_455 S
U406 O425 2.420 1_455 S
U406 O426 2.455 . S
U406 O427 2.449 . S
O407 U406 2.456 . S
O407 C409 1.355 . S
O408 U406 2.458 . S
O408 C409 1.286 . S
C409 U406 2.984 . S
C409 O407 1.355 . S
C409 O408 1.286 . S
C409 C411 1.363 . S
C410 C400 1.465 . S
C410 U406 2.847 1_655 S
C410 O424 1.249 . S
C410 O425 1.202 . S
C411 C409 1.363 . S
C411 C413 1.408 . S
C411 C416 1.342 . S
C412 C413 1.310 . S
C412 C415 1.461 . S
C412 H432 0.933 . S
C413 C411 1.408 . S
C413 C412 1.310 . S
C413 H433 0.930 1_455 S
C414 C415 1.474 . S
C414 C416 1.285 . S
C414 H434 0.929 . S
C415 C412 1.461 . S
C415 C414 1.474 . S
C416 C411 1.342 . S
C416 C414 1.285 . S
C416 H435 0.930 . S
C417 C420 1.424 . S
C417 C422 1.245 . S
C417 C423 1.428 . S
C418 C421 1.260 . S
C418 C422 1.477 . S
C418 H436 0.932 . S
C419 C420 1.384 . S
C419 C421 1.479 . S
C419 H437 0.929 . S
C420 C417 1.424 . S
C420 C419 1.384 . S
C420 H438 0.928 . S
C421 C418 1.260 . S
C421 C419 1.479 . S
C422 C417 1.245 . S
C422 C418 1.477 . S
C422 H439 0.932 . S
C423 U406 2.882 . S
C423 C417 1.428 . S
C423 O426 1.301 . S
C423 O427 1.282 . S
O424 U406 2.441 1_655 S
O424 C410 1.249 . S
O425 U406 2.420 1_655 S
O425 C410 1.202 . S
O426 U406 2.455 . S
O426 C423 1.301 . S
O427 U406 2.449 . S
O427 C423 1.282 . S
H428 C401 0.931 . S
H429 C403 0.929 . S
H430 C404 0.930 . S
H431 C405 0.931 . S
H432 C412 0.933 . S
H433 C413 0.930 1_655 S
H434 C414 0.929 . S
H435 C416 0.930 . S
H436 C418 0.932 . S
H437 C419 0.929 . S
H438 C420 0.928 . S
H439 C422 0.932 . S
C440 C441 1.264 . S
C440 C445 1.479 . S
C440 C450 1.465 . S
C441 C440 1.264 . S
C441 C443 1.339 . S
C441 H468 0.931 . S
C442 C443 1.395 . S
C442 C444 1.320 . S
C443 C441 1.339 . S
C443 C442 1.395 . S
C443 H469 0.929 . S
C444 C442 1.320 . S
C444 C445 1.405 . S
C444 H470 0.930 . S
C445 C440 1.479 . S
C445 C444 1.405 . S
C445 H471 0.931 . S
U446 O447 2.454 . S
U446 O448 2.458 . S
U446 C449 2.984 . S
U446 C450 2.847 . S
U446 C463 2.882 . S
U446 O464 2.441 . S
U446 O465 2.420 . S
U446 O466 2.455 . S
U446 O467 2.449 . S
O447 U446 2.454 . S
O447 C449 1.353 . S
O448 U446 2.458 . S
O448 C449 1.286 . S
C449 U446 2.984 . S
C449 O447 1.353 . S
C449 O448 1.286 . S
C449 C451 1.363 . S
C450 C440 1.465 . S
C450 U446 2.847 . S
C450 O464 1.249 . S
C450 O465 1.202 . S
C451 C449 1.363 . S
C451 C453 1.408 . S
C451 C456 1.342 . S
C452 C453 1.310 . S
C452 C455 1.461 . S
C452 H472 0.932 . S
C453 C451 1.408 . S
C453 C452 1.310 . S
C453 H473 0.930 . S
C454 C455 1.474 . S
C454 C456 1.285 . S
C454 H474 0.929 . S
C455 C452 1.461 . S
C455 C454 1.474 . S
C456 C451 1.342 . S
C456 C454 1.285 . S
C456 H475 0.930 . S
C457 C460 1.424 . S
C457 C462 1.245 . S
C457 C463 1.428 . S
C458 C461 1.260 . S
C458 C462 1.477 . S
C458 H476 0.932 . S
C459 C460 1.384 . S
C459 C461 1.479 . S
C459 H477 0.929 . S
C460 C457 1.424 . S
C460 C459 1.384 . S
C460 H478 0.928 . S
C461 C458 1.260 . S
C461 C459 1.479 . S
C462 C457 1.245 . S
C462 C458 1.477 . S
C462 H479 0.932 . S
C463 U446 2.882 . S
C463 C457 1.428 . S
C463 O466 1.301 . S
C463 O467 1.282 . S
O464 U446 2.441 . S
O464 C450 1.249 . S
O465 U446 2.420 . S
O465 C450 1.202 . S
O466 U446 2.455 . S
O466 C463 1.301 . S
O467 U446 2.449 . S
O467 C463 1.282 . S
H468 C441 0.931 . S
H469 C443 0.929 . S
H470 C444 0.930 . S
H471 C445 0.931 . S
H472 C452 0.932 . S
H473 C453 0.930 . S
H474 C454 0.929 . S
H475 C456 0.930 . S
H476 C458 0.932 . S
H477 C459 0.929 . S
H478 C460 0.928 . S
H479 C462 0.932 . S
C480 C481 1.369 . S
C480 C482 1.419 . S
C480 H484 0.930 . S
C481 C480 1.369 . S
C481 C490 1.429 . S
C482 C480 1.419 . S
C482 C483 1.363 . S
C482 H485 0.929 . S
C483 C482 1.363 . S
C483 C489 1.428 . S
H484 C480 0.930 . S
H485 C482 0.929 . S
S486 N487 1.613 . S
S486 N488 1.610 . S
N487 S486 1.613 . S
N487 C490 1.350 . S
N488 S486 1.610 . S
N488 C489 1.351 . S
C489 C483 1.428 . S
C489 N488 1.351 . S
C489 C490 1.434 . S
C490 C481 1.429 . S
C490 N487 1.350 . S
C490 C489 1.434 . S
C491 C492 1.369 . S
C491 C493 1.419 . S
C491 H495 0.930 . S
C492 C491 1.369 . S
C492 C501 1.429 . S
C493 C491 1.419 . S
C493 C494 1.363 . S
C493 H496 0.929 . S
C494 C493 1.363 . S
C494 C500 1.428 . S
H495 C491 0.930 . S
H496 C493 0.929 . S
S497 N498 1.613 . S
S497 N499 1.610 . S
N498 S497 1.613 . S
N498 C501 1.350 . S
N499 S497 1.610 . S
N499 C500 1.351 . S
C500 C494 1.428 . S
C500 N499 1.351 . S
C500 C501 1.434 . S
C501 C492 1.429 . S
C501 N498 1.350 . S
C501 C500 1.434 . S
C502 C503 1.369 . S
C502 C504 1.419 . S
C502 H506 0.930 . S
C503 C502 1.369 . S
C503 C512 1.429 . S
C504 C502 1.419 . S
C504 C505 1.363 . S
C504 H507 0.929 . S
C505 C504 1.363 . S
C505 C511 1.428 . S
H506 C502 0.930 . S
H507 C504 0.929 . S
S508 N509 1.613 . S
S508 N510 1.610 . S
N509 S508 1.613 . S
N509 C512 1.350 . S
N510 S508 1.610 . S
N510 C511 1.351 . S
C511 C505 1.428 . S
C511 N510 1.351 . S
C511 C512 1.434 . S
C512 C503 1.429 . S
C512 N509 1.350 . S
C512 C511 1.434 . S
C513 C514 1.369 . S
C513 C515 1.419 . S
C513 H517 0.930 . S
C514 C513 1.369 . S
C514 C523 1.429 . S
C515 C513 1.419 . S
C515 C516 1.363 . S
C515 H518 0.929 . S
C516 C515 1.363 . S
C516 C522 1.428 . S
H517 C513 0.930 . S
H518 C515 0.929 . S
S519 N520 1.613 . S
S519 N521 1.610 . S
N520 S519 1.613 . S
N520 C523 1.350 . S
N521 S519 1.610 . S
N521 C522 1.351 . S
C522 C516 1.428 . S
C522 N521 1.351 . S
C522 C523 1.434 . S
C523 C514 1.429 . S
C523 N520 1.350 . S
C523 C522 1.434 . S
C524 C525 1.369 . S
C524 C526 1.419 . S
C524 H528 0.930 . S
C525 C524 1.369 . S
C525 C534 1.429 . S
C526 C524 1.419 . S
C526 C527 1.363 . S
C526 H529 0.929 . S
C527 C526 1.363 . S
C527 C533 1.428 . S
H528 C524 0.930 . S
H529 C526 0.929 . S
S530 N531 1.613 . S
S530 N532 1.610 . S
N531 S530 1.613 . S
N531 C534 1.350 . S
N532 S530 1.610 . S
N532 C533 1.351 . S
C533 C527 1.428 . S
C533 N532 1.351 . S
C533 C534 1.434 . S
C534 C525 1.429 . S
C534 N531 1.350 . S
C534 C533 1.434 . S
C535 C536 1.369 . S
C535 C537 1.419 . S
C535 H539 0.930 . S
C536 C535 1.369 . S
C536 C545 1.429 . S
C537 C535 1.419 . S
C537 C538 1.363 . S
C537 H540 0.929 . S
C538 C537 1.363 . S
C538 C544 1.428 . S
H539 C535 0.930 . S
H540 C537 0.929 . S
S541 N542 1.613 . S
S541 N543 1.610 . S
N542 S541 1.613 . S
N542 C545 1.350 . S
N543 S541 1.610 . S
N543 C544 1.351 . S
C544 C538 1.428 . S
C544 N543 1.351 . S
C544 C545 1.434 . S
C545 C536 1.429 . S
C545 N542 1.350 . S
C545 C544 1.434 . S
C546 C547 1.369 . S
C546 C548 1.419 . S
C546 H550 0.930 . S
C547 C546 1.369 . S
C547 C556 1.429 1_654 S
C548 C546 1.419 . S
C548 C549 1.363 1_654 S
C548 H551 0.929 . S
C549 C548 1.363 1_456 S
C549 C555 1.428 . S
H550 C546 0.930 . S
H551 C548 0.929 . S
S552 N553 1.613 . S
S552 N554 1.610 . S
N553 S552 1.613 . S
N553 C556 1.350 . S
N554 S552 1.610 . S
N554 C555 1.351 . S
C555 C549 1.428 . S
C555 N554 1.351 . S
C555 C556 1.434 . S
C556 C547 1.429 1_456 S
C556 N553 1.350 . S
C556 C555 1.434 . S
C557 C558 1.369 . S
C557 C559 1.419 . S
C557 H561 0.930 . S
C558 C557 1.369 . S
C558 C567 1.429 1_556 S
C559 C557 1.419 . S
C559 C560 1.363 1_556 S
C559 H562 0.929 . S
C560 C559 1.363 1_554 S
C560 C566 1.428 . S
H561 C557 0.930 . S
H562 C559 0.929 . S
S563 N564 1.613 . S
S563 N565 1.610 . S
N564 S563 1.613 . S
N564 C567 1.350 . S
N565 S563 1.610 . S
N565 C566 1.351 . S
C566 C560 1.428 . S
C566 N565 1.351 . S
C566 C567 1.434 . S
C567 C558 1.429 1_554 S
C567 N564 1.350 . S
C567 C566 1.434 . S
C568 C569 1.369 1_566 S
C568 C570 1.419 . S
C568 H572 0.930 . S
C569 C568 1.369 1_544 S
C569 C578 1.429 . S
C570 C568 1.419 . S
C570 C571 1.363 . S
C570 H573 0.929 . S
C571 C570 1.363 . S
C571 C577 1.428 1_566 S
H572 C568 0.930 . S
H573 C570 0.929 . S
S574 N575 1.613 . S
S574 N576 1.610 . S
N575 S574 1.613 . S
N575 C578 1.350 . S
N576 S574 1.610 . S
N576 C577 1.351 . S
C577 C571 1.428 1_544 S
C577 N576 1.351 . S
C577 C578 1.434 . S
C578 C569 1.429 . S
C578 N575 1.350 . S
C578 C577 1.434 . S
C579 C580 1.369 1_545 S
C579 C581 1.419 . S
C579 H583 0.930 . S
C580 C579 1.369 1_565 S
C580 C589 1.429 . S
C581 C579 1.419 . S
C581 C582 1.363 . S
C581 H584 0.929 . S
C582 C581 1.363 . S
C582 C588 1.428 1_545 S
H583 C579 0.930 . S
H584 C581 0.929 . S
S585 N586 1.613 . S
S585 N587 1.610 . S
N586 S585 1.613 . S
N586 C589 1.350 . S
N587 S585 1.610 . S
N587 C588 1.351 . S
C588 C582 1.428 1_565 S
C588 N587 1.351 . S
C588 C589 1.434 . S
C589 C580 1.429 . S
C589 N586 1.350 . S
C589 C588 1.434 . S
C590 C591 1.369 1_655 S
C590 C592 1.419 . S
C590 H594 0.930 . S
C591 C590 1.369 1_455 S
C591 C600 1.429 . S
C592 C590 1.419 . S
C592 C593 1.363 . S
C592 H595 0.929 . S
C593 C592 1.363 . S
C593 C599 1.428 1_655 S
H594 C590 0.930 . S
H595 C592 0.929 . S
S596 N597 1.613 . S
S596 N598 1.610 . S
N597 S596 1.613 . S
N597 C600 1.350 . S
N598 S596 1.610 . S
N598 C599 1.351 . S
C599 C593 1.428 1_455 S
C599 N598 1.351 . S
C599 C600 1.434 . S
C600 C591 1.429 . S
C600 N597 1.350 . S
C600 C599 1.434 . S
C601 C602 1.369 . S
C601 C603 1.419 . S
C601 H605 0.930 . S
C602 C601 1.369 . S
C602 C611 1.429 . S
C603 C601 1.419 . S
C603 C604 1.363 . S
C603 H606 0.929 . S
C604 C603 1.363 . S
C604 C610 1.428 . S
H605 C601 0.930 . S
H606 C603 0.929 . S
S607 N608 1.613 . S
S607 N609 1.610 . S
N608 S607 1.613 . S
N608 C611 1.350 . S
N609 S607 1.610 . S
N609 C610 1.351 . S
C610 C604 1.428 . S
C610 N609 1.351 . S
C610 C611 1.434 . S
C611 C602 1.429 . S
C611 N608 1.350 . S
C611 C610 1.434 . S
C612 C613 1.369 . S
C612 C614 1.419 . S
C612 H616 0.930 . S
C613 C612 1.369 . S
C613 C622 1.429 . S
C614 C612 1.419 . S
C614 C615 1.363 . S
C614 H617 0.929 . S
C615 C614 1.363 . S
C615 C621 1.428 . S
H616 C612 0.930 . S
H617 C614 0.929 . S
S618 N619 1.613 1_455 S
S618 N620 1.610 1_455 S
N619 S618 1.613 1_655 S
N619 C622 1.350 . S
N620 S618 1.610 1_655 S
N620 C621 1.351 . S
C621 C615 1.428 . S
C621 N620 1.351 . S
C621 C622 1.434 . S
C622 C613 1.429 . S
C622 N619 1.350 . S
C622 C621 1.434 . S
C623 C624 1.369 . S
C623 C625 1.419 . S
C623 H627 0.930 . S
C624 C623 1.369 . S
C624 C633 1.429 . S
C625 C623 1.419 . S
C625 C626 1.363 . S
C625 H628 0.929 . S
C626 C625 1.363 . S
C626 C632 1.428 . S
H627 C623 0.930 . S
H628 C625 0.929 . S
S629 N630 1.613 . S
S629 N631 1.610 . S
N630 S629 1.613 . S
N630 C633 1.350 . S
N631 S629 1.610 . S
N631 C632 1.351 . S
C632 C626 1.428 . S
C632 N631 1.351 . S
C632 C633 1.434 . S
C633 C624 1.429 . S
C633 N630 1.350 . S
C633 C632 1.434 . S
C634 C635 1.369 . S
C634 C636 1.419 . S
C634 H638 0.930 . S
C635 C634 1.369 . S
C635 C644 1.429 . S
C636 C634 1.419 . S
C636 C637 1.363 . S
C636 H639 0.929 . S
C637 C636 1.363 . S
C637 C643 1.428 . S
H638 C634 0.930 . S
H639 C636 0.929 . S
S640 N641 1.613 . S
S640 N642 1.610 . S
N641 S640 1.613 . S
N641 C644 1.350 . S
N642 S640 1.610 . S
N642 C643 1.351 . S
C643 C637 1.428 . S
C643 N642 1.351 . S
C643 C644 1.434 . S
C644 C635 1.429 . S
C644 N641 1.350 . S
C644 C643 1.434 . S
C645 C646 1.369 . S
C645 C647 1.419 . S
C645 H649 0.930 . S
C646 C645 1.369 . S
C646 C655 1.429 . S
C647 C645 1.419 . S
C647 C648 1.363 . S
C647 H650 0.929 . S
C648 C647 1.363 . S
C648 C654 1.428 . S
H649 C645 0.930 . S
H650 C647 0.929 . S
S651 N652 1.613 . S
S651 N653 1.610 . S
N652 S651 1.613 . S
N652 C655 1.350 . S
N653 S651 1.610 . S
N653 C654 1.351 . S
C654 C648 1.428 . S
C654 N653 1.351 . S
C654 C655 1.434 . S
C655 C646 1.429 . S
C655 N652 1.350 . S
C655 C654 1.434 . S
C656 C657 1.369 . S
C656 C658 1.419 . S
C656 H660 0.930 . S
C657 C656 1.369 . S
C657 C666 1.429 . S
C658 C656 1.419 . S
C658 C659 1.363 . S
C658 H661 0.929 . S
C659 C658 1.363 . S
C659 C665 1.428 . S
H660 C656 0.930 . S
H661 C658 0.929 . S
S662 N663 1.613 . S
S662 N664 1.610 . S
N663 S662 1.613 . S
N663 C666 1.350 . S
N664 S662 1.610 . S
N664 C665 1.351 . S
C665 C659 1.428 . S
C665 N664 1.351 . S
C665 C666 1.434 . S
C666 C657 1.429 . S
C666 N663 1.350 . S
C666 C665 1.434 . S
C667 C668 1.369 . S
C667 C669 1.419 . S
C667 H671 0.930 . S
C668 C667 1.369 . S
C668 C677 1.429 . S
C669 C667 1.419 . S
C669 C670 1.363 . S
C669 H672 0.929 . S
C670 C669 1.363 . S
C670 C676 1.428 . S
H671 C667 0.930 . S
H672 C669 0.929 . S
S673 N674 1.613 . S
S673 N675 1.610 . S
N674 S673 1.613 . S
N674 C677 1.350 . S
N675 S673 1.610 . S
N675 C676 1.351 . S
C676 C670 1.428 . S
C676 N675 1.351 . S
C676 C677 1.434 . S
C677 C668 1.429 . S
C677 N674 1.350 . S
C677 C676 1.434 . S
C481 C202 2.812 . S
C483 C2 2.805 . S
C492 C42 2.816 . S
C494 C122 2.807 . S
C503 C162 2.592 . S
C505 C82 2.588 . S
C514 C442 2.893 . S
C516 C242 2.874 . S
C525 C282 2.893 . S
C527 C362 2.874 . S
C536 C402 2.647 . S
C538 C322 2.642 . S
C547 C15 3.552 . S
C549 C255 3.579 . S
C558 C295 3.579 . S
C560 C55 3.551 . S
C569 C95 3.229 . S
C571 C335 3.245 . S
C580 C375 3.576 . S
C582 C135 3.555 . S
C591 C415 3.250 . S
C593 C175 3.224 . S
C602 C215 3.556 . S
C604 C455 3.575 . S
C613 C181 0.835 . S
C615 C21 0.799 . S
C624 C221 0.890 . S
C626 C61 0.904 . S
C635 C101 0.831 . S
C637 C141 0.820 . S
C646 C261 0.872 . S
C648 C421 0.865 . S
C657 C461 0.947 . S
C659 C301 0.961 . S
C668 C341 0.864 . S
C670 C381 0.864 . S
