# Generated by pormake.
# Topology wjm, (5)-cn, num edge types: 1
# Building blocks:
#     Node 0, Type 0, BuildingBlock: XOMCOT_clean_sbu_1, # of connection points: 5
#     Node 1, Type 0, BuildingBlock: XOMCOT_clean_sbu_1, # of connection points: 5
#     Node 2, Type 0, BuildingBlock: XOMCOT_clean_sbu_1, # of connection points: 5
#     Node 3, Type 0, BuildingBlock: XOMCOT_clean_sbu_1, # of connection points: 5
#     Node 4, Type 0, BuildingBlock: XOMCOT_clean_sbu_1, # of connection points: 5
#     Node 5, Type 0, BuildingBlock: XOMCOT_clean_sbu_1, # of connection points: 5
#     Node 6, Type 0, BuildingBlock: XOMCOT_clean_sbu_1, # of connection points: 5
#     Node 7, Type 0, BuildingBlock: XOMCOT_clean_sbu_1, # of connection points: 5
#     Node 8, Type 0, BuildingBlock: XOMCOT_clean_sbu_1, # of connection points: 5
#     Node 9, Type 0, BuildingBlock: XOMCOT_clean_sbu_1, # of connection points: 5
#     Node 10, Type 0, BuildingBlock: XOMCOT_clean_sbu_1, # of connection points: 5
#     Node 11, Type 0, BuildingBlock: XOMCOT_clean_sbu_1, # of connection points: 5
#     Edge 12, Type (0, 0), BuildingBlock: ZUJKAS_clean_linker_0, # of connection points: 2
#     Edge 13, Type (0, 0), BuildingBlock: ZUJKAS_clean_linker_0, # of connection points: 2
#     Edge 14, Type (0, 0), BuildingBlock: ZUJKAS_clean_linker_0, # of connection points: 2
#     Edge 15, Type (0, 0), BuildingBlock: ZUJKAS_clean_linker_0, # of connection points: 2
#     Edge 16, Type (0, 0), BuildingBlock: ZUJKAS_clean_linker_0, # of connection points: 2
#     Edge 17, Type (0, 0), BuildingBlock: ZUJKAS_clean_linker_0, # of connection points: 2
#     Edge 18, Type (0, 0), BuildingBlock: ZUJKAS_clean_linker_0, # of connection points: 2
#     Edge 19, Type (0, 0), BuildingBlock: ZUJKAS_clean_linker_0, # of connection points: 2
#     Edge 20, Type (0, 0), BuildingBlock: ZUJKAS_clean_linker_0, # of connection points: 2
#     Edge 21, Type (0, 0), BuildingBlock: ZUJKAS_clean_linker_0, # of connection points: 2
#     Edge 22, Type (0, 0), BuildingBlock: ZUJKAS_clean_linker_0, # of connection points: 2
#     Edge 23, Type (0, 0), BuildingBlock: ZUJKAS_clean_linker_0, # of connection points: 2
#     Edge 24, Type (0, 0), BuildingBlock: ZUJKAS_clean_linker_0, # of connection points: 2
#     Edge 25, Type (0, 0), BuildingBlock: ZUJKAS_clean_linker_0, # of connection points: 2
#     Edge 26, Type (0, 0), BuildingBlock: ZUJKAS_clean_linker_0, # of connection points: 2
#     Edge 27, Type (0, 0), BuildingBlock: ZUJKAS_clean_linker_0, # of connection points: 2
#     Edge 28, Type (0, 0), BuildingBlock: ZUJKAS_clean_linker_0, # of connection points: 2
#     Edge 29, Type (0, 0), BuildingBlock: ZUJKAS_clean_linker_0, # of connection points: 2
#     Edge 30, Type (0, 0), BuildingBlock: ZUJKAS_clean_linker_0, # of connection points: 2
#     Edge 31, Type (0, 0), BuildingBlock: ZUJKAS_clean_linker_0, # of connection points: 2
#     Edge 32, Type (0, 0), BuildingBlock: ZUJKAS_clean_linker_0, # of connection points: 2
#     Edge 33, Type (0, 0), BuildingBlock: ZUJKAS_clean_linker_0, # of connection points: 2
#     Edge 34, Type (0, 0), BuildingBlock: ZUJKAS_clean_linker_0, # of connection points: 2
#     Edge 35, Type (0, 0), BuildingBlock: ZUJKAS_clean_linker_0, # of connection points: 2
#     Edge 36, Type (0, 0), BuildingBlock: ZUJKAS_clean_linker_0, # of connection points: 2
#     Edge 37, Type (0, 0), BuildingBlock: ZUJKAS_clean_linker_0, # of connection points: 2
#     Edge 38, Type (0, 0), BuildingBlock: ZUJKAS_clean_linker_0, # of connection points: 2
#     Edge 39, Type (0, 0), BuildingBlock: ZUJKAS_clean_linker_0, # of connection points: 2
#     Edge 40, Type (0, 0), BuildingBlock: ZUJKAS_clean_linker_0, # of connection points: 2
#     Edge 41, Type (0, 0), BuildingBlock: ZUJKAS_clean_linker_0, # of connection points: 2
# Relax obj value: 0.676
# Max RMSD: 0.277
# Mean RMSD: 0.277
data_MOF--net-wjm--node1-XOMCOT_clean_sbu_1--edge1-ZUJKAS_clean_linker_0
_symmetry_space_group_name_H-M    P1
_symmetry_Int_Tables_number       1
_symmetry_cell_setting            triclinic
loop_
_symmetry_equiv_pos_as_xyz
'x, y, z'
_cell_length_a     42.71703
_cell_length_b     42.695103
_cell_length_c     52.407951
_cell_angle_alpha  89.950164
_cell_angle_beta   90.05307
_cell_angle_gamma 120.0341
loop_
_atom_site_label
_atom_site_type_symbol
_atom_site_fract_x
_atom_site_fract_y
_atom_site_fract_z
_atom_type_partial_charge
C0 C 0.31705 0.48318 0.19909 0.0
C1 C 0.34219 0.50695 0.2161 0.0
N2 N 0.33203 0.49309 0.2397 0.0
N3 N 0.29151 0.45421 0.21187 0.0
C4 C 0.30108 0.46128 0.23668 0.0
H5 H 0.31745 0.48669 0.17864 0.0
Co6 Co 0.25335 0.41462 0.19617 0.0
C7 C 0.23224 0.35222 0.23213 0.0
O8 O 0.22105 0.33023 0.21245 0.0
N9 N 0.21425 0.37514 0.17897 0.0
C10 C 0.15872 0.33501 0.16541 0.0
C11 C 0.17883 0.35721 0.18538 0.0
C12 C 0.21465 0.36334 0.15507 0.0
N13 N 0.1816 0.33895 0.1464 0.0
O14 O 0.22226 0.43372 0.20544 0.0
H15 H 0.16813 0.3612 0.203 0.0
H16 H 0.23812 0.37414 0.14307 0.0
O17 O 0.24369 0.38602 0.22847 0.0
C18 C 0.22013 0.45032 0.18573 0.0
O19 O 0.23454 0.44744 0.16435 0.0
N20 N 0.28616 0.40065 0.18472 0.0
C21 C 0.34257 0.39603 0.16182 0.0
C22 C 0.33074 0.38211 0.18642 0.0
C23 C 0.30283 0.3853 0.19778 0.0
C24 C 0.29844 0.41536 0.16126 0.0
C25 C 0.32572 0.41248 0.14918 0.0
H26 H 0.29686 0.37768 0.21749 0.0
H27 H 0.28728 0.43026 0.15201 0.0
H28 H 0.28614 0.44336 0.25223 0.0
H29 H 0.3659 0.53261 0.21155 0.0
H30 H 0.12958 0.31827 0.16465 0.0
H31 H 0.34429 0.37076 0.19729 0.0
H32 H 0.33524 0.42548 0.13081 0.0
C33 C 0.87413 0.32197 0.53155 0.0
C34 C 0.87756 0.34841 0.54812 0.0
N35 N 0.86395 0.33283 0.57087 0.0
N36 N 0.8589 0.28998 0.5439 0.0
C37 C 0.85253 0.29732 0.56773 0.0
H38 H 0.88222 0.32575 0.51172 0.0
Co39 Co 0.84893 0.24636 0.52941 0.0
C40 C 0.88265 0.2209 0.56872 0.0
O41 O 0.8974 0.21191 0.55023 0.0
N42 N 0.8373 0.20237 0.51323 0.0
C43 C 0.82617 0.14877 0.49833 0.0
C44 C 0.83415 0.17027 0.51982 0.0
C45 C 0.8279 0.19814 0.48834 0.0
N46 N 0.82233 0.16665 0.47853 0.0
O47 O 0.79805 0.22618 0.5376 0.0
H48 H 0.83698 0.16243 0.53889 0.0
H49 H 0.82611 0.21851 0.47721 0.0
O50 O 0.86037 0.23181 0.56303 0.0
C51 C 0.78399 0.2364 0.52023 0.0
O52 O 0.80549 0.25799 0.50231 0.0
N53 N 0.89823 0.26831 0.51909 0.0
C54 C 0.96718 0.31707 0.50022 0.0
C55 C 0.96129 0.31052 0.52651 0.0
C56 C 0.92644 0.28733 0.53555 0.0
C57 C 0.90431 0.27242 0.49344 0.0
C58 C 0.93839 0.29613 0.48365 0.0
H59 H 0.92184 0.28763 0.55575 0.0
H60 H 0.88227 0.26096 0.48019 0.0
H61 H 0.83985 0.27704 0.58247 0.0
H62 H 0.88853 0.37676 0.54363 0.0
H63 H 0.82333 0.12214 0.49735 0.0
H64 H 0.98254 0.32586 0.5402 0.0
H65 H 0.94071 0.30083 0.46326 0.0
C66 C 0.54399 0.8606 0.85816 0.0
C67 C 0.51942 0.86261 0.87403 0.0
N68 N 0.52445 0.85392 0.89779 0.0
N69 N 0.56489 0.85152 0.87203 0.0
C70 C 0.55191 0.84699 0.89603 0.0
H71 H 0.54694 0.86602 0.83787 0.0
Co72 Co 0.60277 0.84621 0.85955 0.0
C73 C 0.66046 0.89175 0.8971 0.0
O74 O 0.68209 0.90787 0.87768 0.0
N75 N 0.63932 0.83845 0.8458 0.0
C76 C 0.68825 0.83656 0.83328 0.0
C77 C 0.67143 0.84274 0.85361 0.0
C78 C 0.63593 0.82605 0.82168 0.0
N79 N 0.66575 0.82634 0.8131 0.0
O80 O 0.57694 0.79613 0.87056 0.0
H81 H 0.68264 0.85058 0.87253 0.0
H82 H 0.61311 0.82028 0.80962 0.0
O83 O 0.62868 0.86464 0.89295 0.0
C84 C 0.55462 0.77861 0.8526 0.0
O85 O 0.55388 0.79685 0.83262 0.0
N86 N 0.62514 0.89459 0.84628 0.0
C87 C 0.62794 0.95375 0.82158 0.0
C88 C 0.6256 0.95109 0.84826 0.0
C89 C 0.62446 0.92136 0.86028 0.0
C90 C 0.63271 0.89996 0.82078 0.0
C91 C 0.63533 0.92988 0.80824 0.0
H92 H 0.61799 0.91758 0.88037 0.0
H93 H 0.63263 0.87962 0.80892 0.0
H94 H 0.56272 0.83928 0.91198 0.0
H95 H 0.49924 0.86959 0.86853 0.0
H96 H 0.71534 0.84053 0.8331 0.0
H97 H 0.61985 0.9689 0.85948 0.0
H98 H 0.63811 0.93147 0.78766 0.0
C99 C 0.69196 0.55237 0.18671 0.0
C100 C 0.66492 0.52691 0.20188 0.0
N101 N 0.67611 0.5337 0.22633 0.0
N102 N 0.71977 0.57543 0.20161 0.0
C103 C 0.70956 0.5631 0.22561 0.0
H104 H 0.6914 0.55422 0.16614 0.0
Co105 Co 0.76288 0.61439 0.18997 0.0
C106 C 0.76978 0.67122 0.22633 0.0
O107 O 0.77443 0.69172 0.20634 0.0
N108 N 0.80731 0.65204 0.17703 0.0
C109 C 0.85653 0.70252 0.16429 0.0
C110 C 0.83338 0.68529 0.18453 0.0
C111 C 0.81762 0.6487 0.15333 0.0
N112 N 0.84577 0.67955 0.14434 0.0
O113 O 0.78787 0.59005 0.20257 0.0
H114 H 0.83506 0.69714 0.20301 0.0
H115 H 0.80221 0.62478 0.14187 0.0
O116 O 0.76779 0.6404 0.22308 0.0
C117 C 0.78472 0.56758 0.18518 0.0
O118 O 0.76713 0.56612 0.16423 0.0
N119 N 0.73602 0.63504 0.17508 0.0
C120 C 0.68031 0.63564 0.14763 0.0
C121 C 0.67799 0.63131 0.17426 0.0
C122 C 0.70638 0.63164 0.18767 0.0
C123 C 0.74062 0.64476 0.14989 0.0
C124 C 0.7137 0.6465 0.1361 0.0
H125 H 0.70224 0.62444 0.20765 0.0
H126 H 0.76305 0.64768 0.13909 0.0
H127 H 0.7262 0.57563 0.24225 0.0
H128 H 0.6393 0.50476 0.19537 0.0
H129 H 0.87794 0.73051 0.16384 0.0
H130 H 0.65305 0.62328 0.18442 0.0
H131 H 0.7175 0.65184 0.1158 0.0
C132 C 0.15606 0.67893 0.52741 0.0
C133 C 0.15605 0.65414 0.54418 0.0
N134 N 0.15472 0.66494 0.56813 0.0
N135 N 0.15437 0.70505 0.54069 0.0
C136 C 0.15409 0.6961 0.56544 0.0
H137 H 0.15683 0.67786 0.50681 0.0
Co138 Co 0.1536 0.74452 0.52616 0.0
C139 C 0.09934 0.74836 0.5598 0.0
O140 O 0.08218 0.74814 0.53892 0.0
N141 N 0.15562 0.78558 0.51045 0.0
C142 C 0.14967 0.83134 0.49562 0.0
C143 C 0.14572 0.81012 0.5167 0.0
C144 C 0.1687 0.79504 0.4865 0.0
N145 N 0.16331 0.82098 0.47637 0.0
O146 O 0.20226 0.77505 0.53893 0.0
H147 H 0.13516 0.81204 0.53497 0.0
H148 H 0.17891 0.7805 0.47572 0.0
O149 O 0.12998 0.74961 0.55787 0.0
C150 C 0.2234 0.77367 0.52221 0.0
O151 O 0.20903 0.75447 0.5015 0.0
N152 N 0.10704 0.71203 0.51127 0.0
C153 C 0.05778 0.65015 0.48475 0.0
C154 C 0.05898 0.65005 0.51154 0.0
C155 C 0.08327 0.6816 0.52448 0.0
C156 C 0.10151 0.71375 0.48571 0.0
C157 C 0.07628 0.68348 0.47229 0.0
H158 H 0.08613 0.67989 0.54483 0.0
H159 H 0.1185 0.73688 0.47446 0.0
H160 H 0.15272 0.71178 0.58114 0.0
H161 H 0.15722 0.6302 0.53906 0.0
H162 H 0.14093 0.85109 0.49416 0.0
H163 H 0.0447 0.6252 0.52236 0.0
H164 H 0.07474 0.68539 0.45176 0.0
C165 C 0.46308 0.16463 0.85218 0.0
C166 C 0.48861 0.16332 0.86741 0.0
N167 N 0.48127 0.167 0.89184 0.0
N168 N 0.43945 0.16847 0.86702 0.0
C169 C 0.45153 0.1704 0.89109 0.0
H170 H 0.46134 0.16223 0.83162 0.0
Co171 Co 0.39937 0.16994 0.85487 0.0
C172 C 0.34286 0.11901 0.89155 0.0
O173 O 0.32244 0.10227 0.87171 0.0
N174 N 0.36018 0.17364 0.84123 0.0
C175 C 0.30879 0.17129 0.82944 0.0
C176 C 0.32708 0.16617 0.84934 0.0
C177 C 0.36224 0.18641 0.81732 0.0
N178 N 0.33115 0.18389 0.80923 0.0
O179 O 0.42057 0.21909 0.86727 0.0
H180 H 0.31636 0.1572 0.86826 0.0
H181 H 0.38567 0.19531 0.80523 0.0
O182 O 0.37337 0.14813 0.88795 0.0
C183 C 0.44195 0.23957 0.84979 0.0
O184 O 0.44483 0.22443 0.82879 0.0
N185 N 0.38191 0.12305 0.84033 0.0
C186 C 0.38164 0.06547 0.81497 0.0
C187 C 0.38268 0.0671 0.84167 0.0
C188 C 0.38316 0.09629 0.85397 0.0
C189 C 0.3777 0.11978 0.81444 0.0
C190 C 0.37662 0.09083 0.80149 0.0
H191 H 0.38868 0.09929 0.8742 0.0
H192 H 0.37936 0.14124 0.80295 0.0
H193 H 0.43833 0.17336 0.90778 0.0
H194 H 0.51087 0.15998 0.86105 0.0
H195 H 0.28106 0.16551 0.82968 0.0
H196 H 0.38746 0.04853 0.85283 0.0
H197 H 0.37606 0.09064 0.78082 0.0
C198 C 0.56277 0.68519 0.50031 0.0
C199 C 0.53838 0.65731 0.48512 0.0
N200 N 0.53677 0.67138 0.4625 0.0
N201 N 0.57705 0.71642 0.48699 0.0
C202 C 0.56027 0.7072 0.46415 0.0
H203 H 0.56978 0.68292 0.5198 0.0
Co204 Co 0.61048 0.76246 0.49871 0.0
C205 C 0.66637 0.78396 0.45809 0.0
O206 O 0.69074 0.7946 0.47631 0.0
N207 N 0.64182 0.80882 0.51191 0.0
C208 C 0.68427 0.86355 0.52485 0.0
C209 C 0.67068 0.84027 0.50423 0.0
C210 C 0.63659 0.81517 0.5363 0.0
N211 N 0.66271 0.84734 0.54508 0.0
O212 O 0.57648 0.77858 0.4902 0.0
H213 H 0.68184 0.84605 0.48521 0.0
H214 H 0.61591 0.79463 0.54832 0.0
O215 O 0.63346 0.77403 0.46401 0.0
C216 C 0.55283 0.7684 0.50799 0.0
O217 O 0.55527 0.74946 0.52688 0.0
N218 N 0.64202 0.74475 0.50934 0.0
C219 C 0.66745 0.70143 0.5304 0.0
C220 C 0.65741 0.69807 0.50456 0.0
C221 C 0.6451 0.72013 0.49441 0.0
C222 C 0.65628 0.7514 0.53344 0.0
C223 C 0.67034 0.73103 0.54391 0.0
H224 H 0.63435 0.71451 0.47523 0.0
H225 H 0.65439 0.77012 0.54596 0.0
H226 H 0.56512 0.72641 0.44903 0.0
H227 H 0.52244 0.62908 0.49045 0.0
H228 H 0.70866 0.88976 0.52513 0.0
H229 H 0.65476 0.67599 0.49289 0.0
H230 H 0.67941 0.73589 0.56356 0.0
C231 C 0.78955 0.52256 0.81567 0.0
C232 C 0.78907 0.49658 0.79995 0.0
N233 N 0.81518 0.51327 0.78228 0.0
N234 N 0.81571 0.55543 0.80786 0.0
C235 C 0.831 0.54892 0.78755 0.0
H236 H 0.77223 0.51783 0.83197 0.0
Co237 Co 0.82766 0.59814 0.82445 0.0
C238 C 0.87877 0.65813 0.78891 0.0
O239 O 0.89205 0.68068 0.8082 0.0
N240 N 0.83884 0.64082 0.84265 0.0
C241 C 0.83675 0.68795 0.85911 0.0
C242 C 0.82934 0.66608 0.83787 0.0
C243 C 0.85165 0.64792 0.8668 0.0
N244 N 0.85041 0.67601 0.8774 0.0
O245 O 0.78158 0.59192 0.81391 0.0
H246 H 0.8161 0.6673 0.8206 0.0
H247 H 0.86023 0.63177 0.87716 0.0
O248 O 0.85287 0.62573 0.7929 0.0
C249 C 0.75929 0.58017 0.8326 0.0
O250 O 0.7723 0.58255 0.8557 0.0
N251 N 0.86895 0.59913 0.8369 0.0
C252 C 0.91774 0.58379 0.86098 0.0
C253 C 0.92836 0.60671 0.83962 0.0
C254 C 0.90335 0.61391 0.82764 0.0
C255 C 0.85837 0.57668 0.85749 0.0
C256 C 0.88235 0.5691 0.87004 0.0
H257 H 0.91157 0.62981 0.81049 0.0
H258 H 0.83067 0.56427 0.86401 0.0
H259 H 0.85401 0.56973 0.77731 0.0
H260 H 0.77076 0.4677 0.80132 0.0
H261 H 0.83036 0.70932 0.86147 0.0
H262 H 0.95529 0.61787 0.83173 0.0
H263 H 0.87256 0.55024 0.88587 0.0
C264 C 0.32639 0.86667 0.16285 0.0
C265 C 0.3523 0.86725 0.14698 0.0
N266 N 0.33882 0.86001 0.12311 0.0
N267 N 0.29711 0.85996 0.14889 0.0
C268 C 0.30525 0.8554 0.1248 0.0
H269 H 0.32883 0.87137 0.18323 0.0
Co270 Co 0.25475 0.85672 0.16146 0.0
C271 C 0.24575 0.90473 0.12447 0.0
O272 O 0.24193 0.92127 0.14435 0.0
N273 N 0.21118 0.85079 0.17523 0.0
C274 C 0.16057 0.84973 0.18724 0.0
C275 C 0.18413 0.85617 0.16722 0.0
C276 C 0.20138 0.83792 0.1992 0.0
N277 N 0.17185 0.83851 0.20744 0.0
O278 O 0.22868 0.80648 0.15052 0.0
H279 H 0.18156 0.86469 0.14832 0.0
H280 H 0.21786 0.83151 0.21138 0.0
O281 O 0.24821 0.87618 0.12804 0.0
C282 C 0.23324 0.78875 0.16848 0.0
O283 O 0.25286 0.80705 0.18823 0.0
N284 N 0.28255 0.90505 0.17487 0.0
C285 C 0.34137 0.9595 0.20098 0.0
C286 C 0.34201 0.9574 0.17425 0.0
C287 C 0.31193 0.93031 0.16148 0.0
C288 C 0.27938 0.91136 0.20006 0.0
C289 C 0.30808 0.9392 0.21325 0.0
H290 H 0.3147 0.92653 0.14139 0.0
H291 H 0.25668 0.89311 0.2113 0.0
H292 H 0.28711 0.84926 0.10877 0.0
H293 H 0.37879 0.87215 0.15256 0.0
H294 H 0.13753 0.85383 0.18711 0.0
H295 H 0.36674 0.97292 0.16352 0.0
H296 H 0.3056 0.94129 0.23366 0.0
C297 C 0.48755 0.28971 0.4802 0.0
C298 C 0.51253 0.31458 0.46361 0.0
N299 N 0.4946 0.31834 0.44376 0.0
N300 N 0.45409 0.27785 0.47087 0.0
C301 C 0.45919 0.29578 0.44863 0.0
H302 H 0.49332 0.28092 0.49807 0.0
Co303 Co 0.41251 0.24539 0.48795 0.0
C304 C 0.35066 0.23449 0.45454 0.0
O305 O 0.33125 0.22888 0.47525 0.0
N306 N 0.3708 0.21194 0.50651 0.0
C307 C 0.32489 0.1604 0.52147 0.0
C308 C 0.34749 0.17689 0.50089 0.0
C309 C 0.36163 0.2159 0.53052 0.0
N310 N 0.33392 0.18521 0.54008 0.0
O311 O 0.42206 0.20741 0.47798 0.0
H312 H 0.34795 0.16374 0.48337 0.0
H313 H 0.37638 0.23999 0.54181 0.0
O314 O 0.38298 0.23991 0.45669 0.0
C315 C 0.43578 0.19965 0.49702 0.0
O316 O 0.43362 0.21164 0.51966 0.0
N317 N 0.40877 0.28447 0.49987 0.0
C318 C 0.42688 0.35131 0.52081 0.0
C319 C 0.40694 0.33966 0.49804 0.0
C320 C 0.39865 0.30625 0.48757 0.0
C321 C 0.42795 0.29553 0.522 0.0
C322 C 0.43654 0.32829 0.53311 0.0
H323 H 0.38699 0.2999 0.46878 0.0
H324 H 0.4382 0.27931 0.53046 0.0
H325 H 0.43747 0.29314 0.43656 0.0
H326 H 0.54161 0.32849 0.46584 0.0
H327 H 0.30427 0.13217 0.52291 0.0
H328 H 0.39996 0.35719 0.48758 0.0
H329 H 0.45329 0.33672 0.55008 0.0
C330 C 0.13825 0.45129 0.83383 0.0
C331 C 0.13622 0.47639 0.81852 0.0
N332 N 0.14427 0.47191 0.7944 0.0
N333 N 0.14711 0.43077 0.8194 0.0
C334 C 0.15103 0.44421 0.79557 0.0
H335 H 0.13362 0.44812 0.8542 0.0
Co336 Co 0.15452 0.39387 0.83137 0.0
C337 C 0.11211 0.33693 0.79249 0.0
O338 O 0.09626 0.31413 0.81139 0.0
N339 N 0.16454 0.35864 0.84472 0.0
C340 C 0.16942 0.31125 0.85709 0.0
C341 C 0.16184 0.32721 0.83684 0.0
C342 C 0.1772 0.36257 0.86883 0.0
N343 N 0.17887 0.33367 0.87725 0.0
O344 O 0.20484 0.42251 0.82118 0.0
H345 H 0.15422 0.31591 0.81794 0.0
H346 H 0.18139 0.38475 0.88105 0.0
O347 O 0.13818 0.36903 0.79739 0.0
C348 C 0.22114 0.44519 0.83921 0.0
O349 O 0.20187 0.44447 0.85897 0.0
N350 N 0.10563 0.36836 0.84375 0.0
C351 C 0.0412 0.35434 0.86735 0.0
C352 C 0.04663 0.36225 0.84115 0.0
C353 C 0.07878 0.36874 0.8297 0.0
C354 C 0.09861 0.35633 0.86842 0.0
C355 C 0.06615 0.34792 0.88021 0.0
H356 H 0.08349 0.37791 0.81012 0.0
H357 H 0.11874 0.35602 0.88034 0.0
H358 H 0.15867 0.43378 0.77941 0.0
H359 H 0.12997 0.49677 0.82482 0.0
H360 H 0.16706 0.28479 0.8572 0.0
H361 H 0.02837 0.36746 0.83003 0.0
H362 H 0.0626 0.34032 0.90017 0.0
C363 C 0.67529 0.13685 0.15316 0.0
C364 C 0.64971 0.13412 0.13601 0.0
N365 N 0.66632 0.14792 0.11359 0.0
N366 N 0.70771 0.15165 0.14144 0.0
C367 C 0.70153 0.1587 0.11743 0.0
H368 H 0.67055 0.12821 0.17287 0.0
Co369 Co 0.75017 0.15951 0.15679 0.0
C370 C 0.77586 0.12531 0.11832 0.0
O371 O 0.78361 0.11002 0.13718 0.0
N372 N 0.79315 0.16908 0.17385 0.0
C373 C 0.8461 0.17851 0.18894 0.0
C374 C 0.82537 0.17259 0.16725 0.0
C375 C 0.79667 0.17641 0.19909 0.0
N376 N 0.82769 0.1808 0.20898 0.0
O377 O 0.77225 0.21071 0.14916 0.0
H378 H 0.83377 0.17131 0.14804 0.0
H379 H 0.77631 0.17793 0.21033 0.0
O380 O 0.76534 0.14805 0.1235 0.0
C381 C 0.76328 0.22508 0.16705 0.0
O382 O 0.74179 0.20372 0.18506 0.0
N383 N 0.72615 0.10975 0.16643 0.0
C384 C 0.67426 0.04091 0.1837 0.0
C385 C 0.68237 0.04749 0.15763 0.0
C386 C 0.70723 0.08233 0.14936 0.0
C387 C 0.72037 0.10283 0.19191 0.0
C388 C 0.69516 0.06875 0.20093 0.0
H389 H 0.70821 0.08772 0.12919 0.0
H390 H 0.73157 0.12436 0.20554 0.0
H391 H 0.72229 0.17099 0.10297 0.0
H392 H 0.62119 0.12319 0.13976 0.0
H393 H 0.87257 0.18099 0.18989 0.0
H394 H 0.667 0.02698 0.14348 0.0
H395 H 0.68928 0.0659 0.22117 0.0
H396 H 0.61526 0.63239 0.15768 0.0
H397 H 0.55685 0.58454 0.1423 0.0
H398 H 0.61012 0.5543 0.08583 0.0
H399 H 0.66834 0.59997 0.10187 0.0
H400 H 0.51564 0.55361 0.0969 0.0
H401 H 0.57172 0.47164 0.13863 0.0
H402 H 0.59399 0.52002 0.14245 0.0
H403 H 0.59582 0.50089 0.11236 0.0
C404 C 0.61465 0.6162 0.14159 0.0
C405 C 0.64673 0.61918 0.13193 0.0
C406 C 0.58119 0.58906 0.13264 0.0
C407 C 0.57948 0.56516 0.1136 0.0
C408 C 0.61109 0.57201 0.10099 0.0
H409 H 0.35686 0.38536 0.11264 0.0
H410 H 0.41688 0.41706 0.09289 0.0
C411 C 0.64454 0.59866 0.11017 0.0
C412 C 0.54619 0.52976 0.11098 0.0
H413 H 0.50973 0.44232 0.13114 0.0
C414 C 0.51429 0.52893 0.10363 0.0
C415 C 0.54484 0.49778 0.12 0.0
C416 C 0.57828 0.49739 0.12898 0.0
C417 C 0.48058 0.49761 0.10694 0.0
C418 C 0.4791 0.46631 0.1175 0.0
C419 C 0.5112 0.4663 0.12282 0.0
C420 C 0.44525 0.4373 0.12864 0.0
C421 C 0.44678 0.49934 0.10138 0.0
C422 C 0.44198 0.43544 0.15531 0.0
C423 C 0.40795 0.41734 0.1666 0.0
C424 C 0.37683 0.401 0.15128 0.0
C425 C 0.38052 0.39837 0.1248 0.0
C426 C 0.41468 0.41652 0.11349 0.0
H427 H 0.45288 0.52682 0.09545 0.0
H428 H 0.43138 0.4802 0.08578 0.0
H429 H 0.42914 0.49131 0.11851 0.0
H430 H 0.46541 0.45113 0.16732 0.0
H431 H 0.40604 0.4199 0.18702 0.0
H432 H 1.00371 0.38232 0.52478 0.0
H433 H 0.03546 0.44042 0.50435 0.0
H434 H 0.03231 0.38971 0.43259 0.0
H435 H 1.00157 0.33033 0.45333 0.0
H436 H 0.09461 0.48372 0.46978 0.0
H437 H 0.95705 0.4254 0.42665 0.0
H438 H 0.96538 0.40246 0.45239 0.0
H439 H 0.98354 0.40392 0.42126 0.0
C440 C 0.01132 0.38299 0.50503 0.0
C441 C 0.99858 0.35114 0.49054 0.0
C442 C 0.02949 0.41663 0.49326 0.0
C443 C 0.03506 0.41914 0.46684 0.0
C444 C 0.02744 0.38809 0.45296 0.0
H445 H 0.08805 0.64109 0.44127 0.0
H446 H 0.08144 0.58486 0.42542 0.0
C447 C 0.00967 0.35421 0.46485 0.0
C448 C 0.04113 0.45259 0.4542 0.0
H449 H 0.99013 0.48805 0.43228 0.0
C450 C 0.0725 0.48492 0.46055 0.0
C451 C 0.01188 0.45374 0.44238 0.0
C452 C 0.97744 0.41964 0.43523 0.0
C453 C 0.07389 0.51827 0.45806 0.0
C454 C 0.04324 0.51904 0.44849 0.0
C455 C 0.0134 0.48713 0.43963 0.0
C456 C 0.03943 0.55122 0.45209 0.0
C457 C 0.1066 0.55185 0.46815 0.0
C458 C 0.01561 0.55048 0.47084 0.0
C459 C 0.01861 0.5827 0.47974 0.0
C460 C 0.04578 0.6161 0.47017 0.0
C461 C 0.06663 0.61613 0.44924 0.0
C462 C 0.06328 0.58392 0.4402 0.0
H463 H 0.12626 0.54573 0.47755 0.0
H464 H 0.12061 0.57084 0.45217 0.0
H465 H 0.09827 0.56582 0.48215 0.0
H466 H 0.99666 0.52527 0.48004 0.0
H467 H 1.00147 0.58152 0.49535 0.0
H468 H 0.43346 0.0904 0.77859 0.0
H469 H 0.4712 0.06521 0.76754 0.0
H470 H 0.40157 0.96882 0.81065 0.0
H471 H 0.36396 0.99483 0.82268 0.0
H472 H 0.46563 1.00011 0.82923 0.0
H473 H 0.48135 0.99421 0.72542 0.0
H474 H 0.48845 0.03796 0.73374 0.0
H475 H 0.44481 0.99837 0.73908 0.0
C476 C 0.42498 0.06306 0.78472 0.0
C477 C 0.39586 0.04465 0.80169 0.0
C478 C 0.44667 0.04856 0.77824 0.0
C479 C 0.43928 0.01507 0.78818 0.0
C480 C 0.4078 0.99478 0.80279 0.0
H481 H 0.58115 0.92821 0.78161 0.0
H482 H 0.53902 0.94773 0.76938 0.0
C483 C 0.38633 0.00959 0.80966 0.0
C484 C 0.46827 0.00571 0.78825 0.0
H485 H 0.53342 0.00457 0.75124 0.0
C486 C 0.47996 1.00042 0.81206 0.0
C487 C 0.48712 0.00619 0.76593 0.0
C488 C 0.47444 0.00911 0.73962 0.0
C489 C 0.51044 0.99656 0.8143 0.0
C490 C 0.53079 0.99964 0.7922 0.0
C491 C 0.5185 0.00362 0.76824 0.0
C492 C 0.5627 0.99495 0.79369 0.0
C493 C 0.52009 0.9886 0.84033 0.0
C494 C 0.59182 0.01677 0.80988 0.0
C495 C 0.61618 0.00557 0.81714 0.0
C496 C 0.6119 0.97275 0.80793 0.0
C497 C 0.58557 0.95376 0.78905 0.0
C498 C 0.56115 0.96476 0.78205 0.0
H499 H 0.49692 0.97831 0.85378 0.0
H500 H 0.52897 0.96824 0.83907 0.0
H501 H 0.54258 0.01383 0.84851 0.0
H502 H 0.59391 0.04078 0.81851 0.0
H503 H 0.63651 0.02102 0.83138 0.0
H504 H 0.68192 0.64845 0.51347 0.0
H505 H 0.64418 0.58526 0.52584 0.0
H506 H 0.60801 0.61759 0.59218 0.0
H507 H 0.64339 0.68004 0.57958 0.0
H508 H 0.61399 0.53254 0.57221 0.0
H509 H 0.52892 0.58601 0.53192 0.0
H510 H 0.57747 0.61017 0.52899 0.0
H511 H 0.5568 0.60939 0.55896 0.0
C512 C 0.66698 0.64234 0.5312 0.0
C513 C 0.66375 0.66931 0.54438 0.0
C514 C 0.64577 0.60614 0.53841 0.0
C515 C 0.62234 0.59705 0.55931 0.0
C516 C 0.62552 0.6243 0.57569 0.0
H517 H 0.43487 0.37721 0.56962 0.0
H518 H 0.47907 0.43858 0.58356 0.0
C519 C 0.64611 0.66035 0.56828 0.0
C520 C 0.58846 0.56205 0.55917 0.0
H521 H 0.50062 0.52386 0.53966 0.0
C522 C 0.58898 0.53051 0.56558 0.0
C523 C 0.55616 0.55984 0.55005 0.0
C524 C 0.55458 0.59303 0.5419 0.0
C525 C 0.55798 0.49641 0.56248 0.0
C526 C 0.52593 0.49425 0.55293 0.0
C527 C 0.52519 0.52588 0.54728 0.0
C528 C 0.49468 0.45947 0.54525 0.0
C529 C 0.56019 0.46289 0.56805 0.0
C530 C 0.48738 0.45194 0.5192 0.0
C531 C 0.4623 0.41714 0.5112 0.0
C532 C 0.44412 0.38942 0.5292 0.0
C533 C 0.44892 0.39801 0.55537 0.0
C534 C 0.47419 0.43287 0.56336 0.0
H535 H 0.58827 0.46926 0.57227 0.0
H536 H 0.54303 0.44871 0.58481 0.0
H537 H 0.54984 0.44401 0.55158 0.0
H538 H 0.50288 0.47237 0.505 0.0
H539 H 0.45955 0.41138 0.49094 0.0
H540 H 0.97536 0.34609 0.85237 0.0
H541 H 0.95205 0.38449 0.86746 0.0
H542 H 0.02512 0.41807 0.93145 0.0
H543 H 0.05047 0.38235 0.91587 0.0
H544 H 0.92781 0.40623 0.91184 0.0
H545 H 0.06882 0.50578 0.8823 0.0
H546 H 0.04888 0.45802 0.87628 0.0
H547 H 0.06388 0.47557 0.90785 0.0
C548 C 0.98597 0.36093 0.86999 0.0
C549 C 0.01622 0.3625 0.88197 0.0
C550 C 0.97226 0.38254 0.87877 0.0
C551 C 0.98804 0.40511 0.89996 0.0
C552 C 0.01332 0.40143 0.91467 0.0
H553 H 0.92889 0.57467 0.91122 0.0
H554 H 0.95177 0.53603 0.92747 0.0
C555 C 0.02759 0.38051 0.90566 0.0
C556 C 0.98438 0.43747 0.90278 0.0
H557 H 0.02967 0.52792 0.88958 0.0
C558 C 0.95016 0.43303 0.90762 0.0
C559 C 0.01375 0.47226 0.89686 0.0
C560 C 0.05088 0.47839 0.89034 0.0
C561 C 0.94404 0.46227 0.90541 0.0
C562 C 0.9731 0.49668 0.89851 0.0
C563 C 0.00771 0.50151 0.89513 0.0
C564 C 0.96672 0.52599 0.89025 0.0
C565 C 0.90606 0.45561 0.90861 0.0
C566 C 0.97 0.53493 0.86425 0.0
C567 C 0.95713 0.55693 0.85495 0.0
C568 C 0.94079 0.57025 0.87158 0.0
C569 C 0.9409 0.56422 0.89798 0.0
C570 C 0.95379 0.54214 0.90728 0.0
H571 H 0.88595 0.42644 0.91105 0.0
H572 H 0.9049 0.47033 0.92569 0.0
H573 H 0.89818 0.46597 0.89179 0.0
H574 H 0.98013 0.52277 0.85087 0.0
H575 H 0.95718 0.56086 0.83453 0.0
H576 H 0.40904 0.0175 0.19025 0.0
H577 H 0.46584 0.02221 0.20409 0.0
H578 H 0.40857 0.93774 0.2594 0.0
H579 H 0.35184 0.93133 0.24512 0.0
H580 H 0.50579 0.02637 0.2512 0.0
H581 H 0.4416 0.89239 0.20217 0.0
H582 H 0.42341 0.92233 0.19962 0.0
H583 H 0.41801 0.89783 0.22866 0.0
C584 C 0.40853 1.00057 0.20583 0.0
C585 C 0.37553 0.97317 0.21578 0.0
C586 C 0.44108 0.00351 0.21387 0.0
C587 C 0.441 0.9795 0.2322 0.0
C588 C 0.40894 0.95604 0.24491 0.0
H589 H 0.65705 0.00415 0.22975 0.0
H590 H 0.59693 0.97612 0.24926 0.0
C591 C 0.3764 0.95277 0.23674 0.0
C592 C 0.47252 0.97428 0.23404 0.0
H593 H 0.50359 0.92066 0.20995 0.0
C594 C 0.50531 0.00283 0.24296 0.0
C595 C 0.47145 0.94339 0.22315 0.0
C596 C 0.43687 0.91222 0.2127 0.0
C597 C 0.53774 1.00264 0.23944 0.0
C598 C 0.53701 0.97295 0.22681 0.0
C599 C 0.50382 0.94304 0.2199 0.0
C600 C 0.56998 0.97717 0.21461 0.0
C601 C 0.57287 0.03574 0.24695 0.0
C602 C 0.57387 0.98382 0.18831 0.0
C603 C 0.60799 1.00037 0.17724 0.0
C604 C 0.63887 0.0104 0.19234 0.0
C605 C 0.634 0.99806 0.2178 0.0
C606 C 0.5997 0.9819 0.22899 0.0
H607 H 0.56864 0.05706 0.25563 0.0
H608 H 0.58736 0.02806 0.26095 0.0
H609 H 0.59053 0.04732 0.22996 0.0
H610 H 0.55108 0.98001 0.17685 0.0
H611 H 0.61011 0.00908 0.15761 0.0
H612 H 0.12141 0.3219 0.11836 0.0
H613 H 0.11327 0.30834 0.07254 0.0
H614 H 0.21691 0.31399 0.06988 0.0
H615 H 0.22421 0.32563 0.11554 0.0
H616 H 0.15302 0.35245 0.03627 0.0
H617 H 0.16088 0.22818 0.02554 0.0
H618 H 0.15442 0.24336 0.05619 0.0
H619 H 0.19919 0.26141 0.04304 0.0
C620 C 0.14184 0.31904 0.10815 0.0
C621 C 0.1736 0.32517 0.12059 0.0
C622 C 0.13732 0.31154 0.0819 0.0
C623 C 0.16432 0.30978 0.06765 0.0
C624 C 0.19524 0.31432 0.08036 0.0
H625 H 0.22348 0.38016 0.91277 0.0
H626 H 0.21875 0.37109 0.95905 0.0
C627 C 0.19964 0.32154 0.1065 0.0
C628 C 0.16246 0.30751 0.03923 0.0
H629 H 0.17689 0.26665 0.98803 0.0
C630 C 0.15767 0.33327 0.02577 0.0
C631 C 0.16803 0.28224 0.02532 0.0
C632 C 0.17051 0.25202 0.03831 0.0
C633 C 0.15994 0.33555 0.99904 0.0
C634 C 0.16836 0.31215 0.9853 0.0
C635 C 0.17132 0.28517 0.99857 0.0
C636 C 0.17453 0.3158 0.95722 0.0
C637 C 0.15325 0.36309 0.98582 0.0
C638 C 0.15303 0.28698 0.94071 0.0
C639 C 0.15626 0.29196 0.91417 0.0
C640 C 0.18097 0.32588 0.90377 0.0
C641 C 0.20405 0.35387 0.92032 0.0
C642 C 0.20109 0.34879 0.94674 0.0
H643 H 0.13643 0.37051 0.99772 0.0
H644 H 0.17951 0.38809 0.98238 0.0
H645 H 0.13953 0.35282 0.96717 0.0
H646 H 0.13258 0.26116 0.94833 0.0
H647 H 0.13788 0.27004 0.90188 0.0
H648 H 0.80929 0.2124 0.2461 0.0
H649 H 0.81148 0.20418 0.29207 0.0
H650 H 0.86525 0.14294 0.27923 0.0
H651 H 0.86273 0.15077 0.23294 0.0
H652 H 0.77729 0.13157 0.31439 0.0
H653 H 0.92353 0.21551 0.33851 0.0
H654 H 0.90442 0.22375 0.31027 0.0
H655 H 0.91117 0.18558 0.31148 0.0
C656 C 0.82202 0.19759 0.25305 0.0
C657 C 0.83556 0.18197 0.23586 0.0
C658 C 0.82329 0.19295 0.27932 0.0
C659 C 0.83841 0.17287 0.28906 0.0
C660 C 0.85375 0.15882 0.27211 0.0
H661 H 0.85121 0.13208 0.45273 0.0
H662 H 0.85328 0.12681 0.40611 0.0
C663 C 0.85246 0.16346 0.24569 0.0
C664 C 0.83525 0.16446 0.31675 0.0
H665 H 0.88339 0.18504 0.37231 0.0
C666 C 0.80052 0.143 0.32704 0.0
C667 C 0.86559 0.17898 0.33314 0.0
C668 C 0.90337 0.20242 0.32298 0.0
C669 C 0.7952 0.13654 0.35338 0.0
C670 C 0.82536 0.1526 0.36998 0.0
C671 C 0.86027 0.17277 0.35958 0.0
C672 C 0.82099 0.15179 0.39816 0.0
C673 C 0.75724 0.11281 0.36319 0.0
C674 C 0.80174 0.16702 0.40918 0.0
C675 C 0.80041 0.16985 0.43564 0.0
C676 C 0.8185 0.15774 0.45175 0.0
C677 C 0.83661 0.14117 0.4408 0.0
C678 C 0.83809 0.13847 0.4142 0.0
H679 H 0.73958 0.09333 0.34839 0.0
H680 H 0.75693 0.09745 0.38039 0.0
H681 H 0.74553 0.13001 0.36836 0.0
H682 H 0.78886 0.17806 0.39726 0.0
H683 H 0.78616 0.18262 0.44352 0.0
H684 H 0.7297 0.86926 0.78935 0.0
H685 H 0.73886 0.87823 0.74304 0.0
H686 H 0.62918 0.7931 0.73027 0.0
H687 H 0.61997 0.78381 0.7764 0.0
H688 H 0.70928 0.81134 0.69635 0.0
H689 H 0.6562 0.90658 0.70392 0.0
H690 H 0.68189 0.90158 0.72941 0.0
H691 H 0.63646 0.8663 0.72336 0.0
C692 C 0.708 0.8516 0.77664 0.0
C693 C 0.67405 0.82588 0.78649 0.0
C694 C 0.71318 0.85695 0.75023 0.0
C695 C 0.68458 0.83651 0.73336 0.0
C696 C 0.65152 0.80918 0.74304 0.0
H697 H 0.61338 0.83291 0.58196 0.0
H698 H 0.62374 0.83564 0.628 0.0
C699 C 0.64631 0.8039 0.76935 0.0
C700 C 0.68765 0.84571 0.70589 0.0
H701 H 0.66504 0.89086 0.66254 0.0
C702 C 0.7002 0.82915 0.68888 0.0
C703 C 0.67549 0.86875 0.69637 0.0
C704 C 0.66179 0.88706 0.71409 0.0
C705 C 0.69972 0.83408 0.66236 0.0
C706 C 0.68682 0.8566 0.65273 0.0
C707 C 0.67518 0.87388 0.66991 0.0
C708 C 0.68179 0.85961 0.62494 0.0
C709 C 0.71128 0.81372 0.64481 0.0
C710 C 0.71113 0.87371 0.60792 0.0
C711 C 0.70521 0.87221 0.58151 0.0
C712 C 0.66985 0.85657 0.57175 0.0
C713 C 0.64086 0.84481 0.58894 0.0
C714 C 0.64677 0.84637 0.61524 0.0
H715 H 0.71386 0.79231 0.65504 0.0
H716 H 0.69164 0.80099 0.62895 0.0
H717 H 0.73797 0.83288 0.63638 0.0
H718 H 0.73847 0.88472 0.61501 0.0
H719 H 0.72805 0.88124 0.56875 0.0
H720 H 0.80281 0.64638 0.10331 0.0
H721 H 0.81653 0.6616 0.05884 0.0
H722 H 0.92228 0.74921 0.07879 0.0
H723 H 0.90907 0.73329 0.12425 0.0
H724 H 0.83494 0.72835 0.03512 0.0
H725 H 0.94163 0.69063 0.02363 0.0
H726 H 0.91121 0.67533 0.05056 0.0
H727 H 0.94666 0.72164 0.0487 0.0
C728 C 0.8294 0.66842 0.0986 0.0
C729 C 0.85508 0.68818 0.11768 0.0
C730 C 0.83698 0.67742 0.07294 0.0
C731 C 0.8704 0.70645 0.06542 0.0
C732 C 0.89636 0.72647 0.08418 0.0
H733 H 0.87301 0.74275 0.89766 0.0
H734 H 0.88471 0.75975 0.94305 0.0
C735 C 0.88873 0.71743 0.11013 0.0
C736 C 0.87701 0.71476 0.03775 0.0
H737 H 0.91832 0.70174 0.98642 0.0
C738 C 0.8538 0.72345 0.02443 0.0
C739 C 0.90153 0.70819 0.02392 0.0
C740 C 0.92668 0.69827 0.03726 0.0
C741 C 0.85266 0.72327 0.99762 0.0
C742 C 0.87575 0.71465 0.98377 0.0
C743 C 0.90071 0.70843 0.9971 0.0
C744 C 0.87037 0.70606 0.95608 0.0
C745 C 0.82489 0.72955 0.98439 0.0
C746 C 0.85874 0.67049 0.94834 0.0
C747 C 0.8521 0.66084 0.92269 0.0
C748 C 0.85712 0.68657 0.90393 0.0
C749 C 0.86873 0.72232 0.91164 0.0
C750 C 0.87546 0.73204 0.93753 0.0
H751 H 0.80599 0.73134 0.99807 0.0
H752 H 0.83882 0.75526 0.97349 0.0
H753 H 0.80891 0.70738 0.97066 0.0
H754 H 0.85418 0.64988 0.9623 0.0
H755 H 0.84231 0.63287 0.9177 0.0
H756 H 0.15238 0.77514 0.43718 0.0
H757 H 0.14957 0.7857 0.39203 0.0
H758 H 0.16892 0.89294 0.40804 0.0
H759 H 0.17225 0.88268 0.45404 0.0
H760 H 0.09985 0.80633 0.3677 0.0
H761 H 0.24652 0.90375 0.35243 0.0
H762 H 0.23072 0.87328 0.37938 0.0
H763 H 0.22363 0.91123 0.37857 0.0
C764 C 0.15673 0.80131 0.43135 0.0
C765 C 0.16314 0.82832 0.44942 0.0
C766 C 0.15467 0.80711 0.40539 0.0
C767 C 0.15911 0.84007 0.39666 0.0
C768 C 0.16559 0.86732 0.41443 0.0
H769 H 0.14618 0.87733 0.23165 0.0
H770 H 0.1388 0.88011 0.27799 0.0
C771 C 0.16742 0.86142 0.44065 0.0
C772 C 0.15686 0.84507 0.36883 0.0
H773 H 0.20961 0.88198 0.31601 0.0
C774 C 0.12367 0.82347 0.3564 0.0
C775 C 0.18806 0.86717 0.35417 0.0
C776 C 0.22441 0.89018 0.36663 0.0
C777 C 0.12118 0.82248 0.32963 0.0
C778 C 0.15263 0.84341 0.31502 0.0
C779 C 0.18552 0.86611 0.32739 0.0
C780 C 0.15279 0.8392 0.28698 0.0
C781 C 0.0854 0.7979 0.31697 0.0
C782 C 0.16206 0.81458 0.27682 0.0
C783 C 0.16604 0.81278 0.2505 0.0
C784 C 0.16095 0.83566 0.2338 0.0
C785 C 0.14986 0.85906 0.24397 0.0
C786 C 0.14596 0.86092 0.27041 0.0
H787 H 0.06291 0.78504 0.33096 0.0
H788 H 0.07911 0.81347 0.30293 0.0
H789 H 0.08714 0.77634 0.30635 0.0
H790 H 0.16729 0.79751 0.28934 0.0
H791 H 0.17431 0.7943 0.24323 0.0
H792 H 0.26755 0.14194 0.78464 0.0
H793 H 0.258 0.13851 0.73825 0.0
H794 H 0.36638 0.22767 0.72784 0.0
H795 H 0.37597 0.23125 0.77402 0.0
H796 H 0.26599 0.19021 0.69861 0.0
H797 H 0.36383 0.14144 0.68906 0.0
H798 H 0.34418 0.14262 0.71927 0.0
H799 H 0.38117 0.18328 0.70623 0.0
C800 C 0.28894 0.16145 0.7725 0.0
C801 C 0.32267 0.18663 0.78295 0.0
C802 C 0.28354 0.1593 0.74599 0.0
C803 C 0.31177 0.1823 0.72959 0.0
C804 C 0.34448 0.20916 0.74012 0.0
H805 H 0.33122 0.23461 0.57081 0.0
H806 H 0.31968 0.22943 0.61664 0.0
C807 C 0.3499 0.21125 0.7665 0.0
C808 C 0.30826 0.1769 0.70149 0.0
H809 H 0.34617 0.15816 0.65068 0.0
C810 C 0.28326 0.1829 0.6881 0.0
C811 C 0.33025 0.16658 0.68786 0.0
C812 C 0.35614 0.15774 0.70131 0.0
C813 C 0.28089 0.18046 0.6613 0.0
C814 C 0.30443 0.17223 0.64757 0.0
C815 C 0.32826 0.16468 0.66112 0.0
C816 C 0.30673 0.1736 0.61919 0.0
C817 C 0.25323 0.18678 0.64796 0.0
C818 C 0.30337 0.14399 0.60518 0.0
C819 C 0.31038 0.14704 0.57889 0.0
C820 C 0.32133 0.17995 0.56616 0.0
C821 C 0.32321 0.20902 0.58008 0.0
C822 C 0.31617 0.20595 0.60628 0.0
H823 H 0.23013 0.18074 0.66074 0.0
H824 H 0.26602 0.21565 0.64231 0.0
H825 H 0.24271 0.16991 0.63052 0.0
H826 H 0.29638 0.11882 0.61476 0.0
H827 H 0.30901 0.12427 0.56882 0.0
H828 H 0.2876 0.23474 0.4468 0.0
H829 H 0.26822 0.25416 0.40941 0.0
H830 H 0.36405 0.27292 0.36916 0.0
H831 H 0.38451 0.25451 0.40726 0.0
H832 H 0.35171 0.32745 0.36062 0.0
H833 H 0.22254 0.20076 0.34559 0.0
H834 H 0.22493 0.21786 0.37716 0.0
H835 H 0.25635 0.20355 0.36754 0.0
C836 C 0.30457 0.24252 0.42997 0.0
C837 C 0.33767 0.24271 0.43021 0.0
C838 C 0.2932 0.25352 0.40839 0.0
C839 C 0.31411 0.26441 0.38603 0.0
C840 C 0.34715 0.26446 0.38603 0.0
H841 H 0.2269 0.28666 0.2411 0.0
H842 H 0.24771 0.26743 0.27786 0.0
C843 C 0.35879 0.2537 0.40783 0.0
C844 C 0.30177 0.27676 0.36319 0.0
H845 H 0.22871 0.2532 0.32443 0.0
C846 C 0.32491 0.31105 0.35259 0.0
C847 C 0.26693 0.25541 0.35227 0.0
C848 C 0.24145 0.21722 0.36106 0.0
C849 C 0.31407 0.32471 0.33189 0.0
C850 C 0.27856 0.30406 0.32182 0.0
C851 C 0.2557 0.26953 0.3322 0.0
C852 C 0.26511 0.3165 0.29961 0.0
C853 C 0.34128 0.36077 0.32066 0.0
C854 C 0.26686 0.35039 0.29938 0.0
C855 C 0.25518 0.36181 0.27796 0.0
C856 C 0.24081 0.33935 0.25639 0.0
C857 C 0.23768 0.30488 0.25721 0.0
C858 C 0.24973 0.29375 0.27837 0.0
H859 H 0.36945 0.36776 0.32524 0.0
H860 H 0.33848 0.36091 0.2996 0.0
H861 H 0.33687 0.38222 0.32883 0.0
H862 H 0.27738 0.36816 0.31572 0.0
H863 H 0.25778 0.38835 0.27821 0.0
H864 H 0.88006 0.26312 0.60789 0.0
H865 H 0.91959 0.28534 0.6455 0.0
H866 H 0.96681 0.22035 0.62475 0.0
H867 H 0.92779 0.19828 0.58724 0.0
H868 H 0.93146 0.25195 0.68765 0.0
H869 H 0.05539 0.32203 0.62875 0.0
H870 H 0.01066 0.305 0.61563 0.0
H871 H 0.02796 0.27487 0.6212 0.0
C872 C 0.89832 0.25298 0.61156 0.0
C873 C 0.90072 0.22897 0.59429 0.0
C874 C 0.92117 0.26595 0.63303 0.0
C875 C 0.94703 0.25537 0.63767 0.0
C876 C 0.94791 0.2298 0.6213 0.0
H877 H 0.06535 0.26931 0.7749 0.0
H878 H 0.02683 0.25226 0.73717 0.0
C879 C 0.92519 0.21687 0.59992 0.0
C880 C 0.97343 0.27116 0.6593 0.0
H881 H 0.06407 0.31627 0.67318 0.0
C882 C 0.96043 0.26621 0.68444 0.0
C883 C 0.01139 0.29047 0.65526 0.0
C884 C 0.02726 0.29878 0.62875 0.0
C885 C 0.98415 0.27864 0.70553 0.0
C886 C 0.02207 0.29617 0.70153 0.0
C887 C 0.03511 0.30245 0.67637 0.0
C888 C 0.04827 0.30693 0.72329 0.0
C889 C 0.9683 0.27295 0.73198 0.0
C890 C 0.07485 0.34331 0.72753 0.0
C891 C 0.09743 0.35325 0.74919 0.0
C892 C 0.09397 0.32694 0.76698 0.0
C893 C 0.06871 0.29042 0.7618 0.0
C894 C 0.04632 0.28057 0.74027 0.0
H895 H 0.94053 0.26897 0.73161 0.0
H896 H 0.96671 0.24835 0.74043 0.0
H897 H 0.98543 0.29628 0.74457 0.0
H898 H 0.07722 0.36418 0.71459 0.0
H899 H 0.11632 0.38161 0.75257 0.0
H900 H 0.61663 0.88744 0.93748 0.0
H901 H 0.63448 0.92746 0.97496 0.0
H902 H 0.74575 0.97932 0.9508 0.0
H903 H 0.72826 0.93994 0.91352 0.0
H904 H 0.68327 0.94255 0.01569 0.0
H905 H 0.72751 0.06447 0.95581 0.0
H906 H 0.70074 0.01917 0.94338 0.0
H907 H 0.74883 0.03889 0.94722 0.0
C908 C 0.64497 0.90686 0.94043 0.0
C909 C 0.67094 0.91049 0.92233 0.0
C910 C 0.65514 0.92996 0.96179 0.0
C911 C 0.69141 0.9572 0.96541 0.0
C912 C 0.7175 0.95933 0.94815 0.0
H913 H 0.80007 0.08131 0.10032 0.0
H914 H 0.77868 0.04178 0.06305 0.0
C915 C 0.70742 0.93645 0.92689 0.0
C916 C 0.70228 0.9839 0.98683 0.0
H917 H 0.74537 0.07481 0.9996 0.0
C918 C 0.69661 0.97143 0.01215 0.0
C919 C 0.71918 0.0217 0.98237 0.0
C920 C 0.72413 0.03692 0.95574 0.0
C921 C 0.70857 0.99563 0.03296 0.0
C922 C 0.72724 0.0335 0.02845 0.0
C923 C 0.73162 0.04592 1.00317 0.0
C924 C 0.74287 0.06044 0.04976 0.0
C925 C 0.70085 0.98034 0.05966 0.0
C926 C 0.73167 0.08591 0.05403 0.0
C927 C 0.7443 0.10908 0.07533 0.0
C928 C 0.76851 0.10734 0.09278 0.0
C929 C 0.78129 0.08336 0.08747 0.0
C930 C 0.76876 0.06035 0.06624 0.0
H931 H 0.67793 0.95204 0.06 0.0
H932 H 0.72509 0.98025 0.06719 0.0
H933 H 0.69446 0.99697 0.0726 0.0
H934 H 0.71203 0.08687 0.04146 0.0
H935 H 0.73361 0.12692 0.07881 0.0
H936 H 0.62262 0.75161 0.41572 0.0
H937 H 0.63893 0.7318 0.37637 0.0
H938 H 0.74751 0.77381 0.40475 0.0
H939 H 0.73216 0.7952 0.4429 0.0
H940 H 0.75251 0.7891 0.35817 0.0
H941 H 0.64738 0.64456 0.36518 0.0
H942 H 0.62854 0.67373 0.363 0.0
H943 H 0.65526 0.67638 0.39039 0.0
C944 C 0.6501 0.7571 0.41335 0.0
C945 C 0.67597 0.77513 0.43265 0.0
C946 C 0.6593 0.74517 0.39097 0.0
C947 C 0.69436 0.75031 0.3876 0.0
C948 C 0.72025 0.76917 0.40663 0.0
H949 H 0.75633 0.63734 0.27377 0.0
H950 H 0.73903 0.65574 0.31349 0.0
C951 C 0.71132 0.78151 0.42862 0.0
C952 C 0.705 0.73711 0.36434 0.0
H953 H 0.68233 0.66275 0.32701 0.0
C954 C 0.73708 0.76136 0.35154 0.0
C955 C 0.68561 0.70071 0.35568 0.0
C956 C 0.65251 0.67224 0.36942 0.0
C957 C 0.75008 0.75063 0.33057 0.0
C958 C 0.72973 0.71481 0.32105 0.0
C959 C 0.69789 0.69029 0.33399 0.0
C960 C 0.74041 0.70305 0.29715 0.0
C961 C 0.78616 0.77783 0.31933 0.0
C962 C 0.74659 0.72298 0.27457 0.0
C963 C 0.75713 0.71301 0.25219 0.0
C964 C 0.76105 0.68214 0.2513 0.0
C965 C 0.75412 0.66153 0.27375 0.0
C966 C 0.74396 0.67192 0.29645 0.0
H967 H 0.80367 0.7981 0.33378 0.0
H968 H 0.80078 0.76453 0.3116 0.0
H969 H 0.78178 0.79269 0.30364 0.0
H970 H 0.7429 0.74628 0.2741 0.0
H971 H 0.76148 0.72938 0.23533 0.0
H972 H 0.94029 0.72148 0.77745 0.0
H973 H 0.97807 0.73672 0.73962 0.0
H974 H 0.90334 0.63348 0.70634 0.0
H975 H 0.86544 0.61748 0.74477 0.0
H976 H 0.97266 0.64904 0.69951 0.0
H977 H 0.96339 0.76891 0.67124 0.0
H978 H 0.97952 0.77254 0.70329 0.0
H979 H 0.93437 0.73754 0.69524 0.0
C980 C 0.93143 0.70199 0.76205 0.0
C981 C 0.89946 0.66821 0.76432 0.0
C982 C 0.95319 0.71091 0.74024 0.0
C983 C 0.9435 0.68664 0.71973 0.0
C984 C 0.91149 0.65287 0.72178 0.0
H985 H 0.03521 0.74578 0.56817 0.0
H986 H 0.99968 0.73046 0.60702 0.0
C987 C 0.88967 0.64379 0.74377 0.0
C988 C 0.9673 0.69642 0.69656 0.0
H989 H 0.00947 0.76199 0.65104 0.0
C990 C 0.98055 0.67365 0.68884 0.0
C991 C 0.97755 0.72839 0.68233 0.0
C992 C 0.96268 0.75305 0.68827 0.0
C993 C 0.00382 0.68208 0.66762 0.0
C994 C 0.01502 0.71468 0.65392 0.0
C995 C 1.00152 0.73726 0.6616 0.0
C996 C 0.03825 0.7247 0.63041 0.0
C997 C 0.0153 0.65536 0.65967 0.0
C998 C 0.07256 0.72742 0.6303 0.0
C999 C 0.09323 0.73608 0.6077 0.0
C1000 C 0.08017 0.74259 0.58478 0.0
C1001 C 0.04637 0.74093 0.58529 0.0
C1002 C 0.02582 0.73212 0.60766 0.0
H1003 H 0.99719 0.62802 0.66772 0.0
H1004 H 0.01549 0.65313 0.63857 0.0
H1005 H 0.04305 0.66468 0.66681 0.0
H1006 H 0.08342 0.72281 0.64766 0.0
H1007 H 0.11907 0.73713 0.60812 0.0
H1008 H 0.26634 0.88774 0.07843 0.0
H1009 H 0.28281 0.92312 0.03863 0.0
H1010 H 0.25975 1.00045 0.0741 0.0
H1011 H 0.242 0.96492 0.11297 0.0
H1012 H 0.23471 0.98943 0.02868 0.0
H1013 H 0.37465 0.01393 0.022 0.0
H1014 H 0.34099 0.96681 0.02163 0.0
H1015 H 0.34665 0.99347 0.04968 0.0
C1016 C 0.26438 0.91204 0.0776 0.0
C1017 C 0.25279 0.92328 0.09909 0.0
C1018 C 0.27435 0.93264 0.05489 0.0
C1019 C 0.27344 0.9652 0.0533 0.0
C1020 C 0.26099 0.97573 0.07459 0.0
H1021 H 0.38142 0.13727 0.93717 0.0
H1022 H 0.36515 0.10142 0.97679 0.0
C1023 C 0.25078 0.95516 0.097 0.0
C1024 C 0.28459 0.9884 0.02966 0.0
H1025 H 0.35396 0.03453 0.98722 0.0
C1026 C 0.26086 0.99924 0.01972 0.0
C1027 C 0.31901 1.00211 0.01801 0.0
C1028 C 0.34697 0.99383 0.02849 0.0
C1029 C 0.27025 0.02287 0.99871 0.0
C1030 C 0.30401 0.03536 0.98637 0.0
C1031 C 0.32799 0.02491 0.99641 0.0
C1032 C 0.31412 0.05809 0.96258 0.0
C1033 C 0.24406 0.03492 0.99045 0.0
C1034 C 0.2912 0.04594 0.94123 0.0
C1035 C 0.30014 0.06656 0.91885 0.0
C1036 C 0.33272 0.09984 0.91677 0.0
C1037 C 0.35593 0.11209 0.93809 0.0
C1038 C 0.34674 0.0914 0.96073 0.0
H1039 H 0.22651 0.03367 1.00652 0.0
H1040 H 0.2584 0.06299 0.98289 0.0
H1041 H 0.2262 0.01657 0.97526 0.0
H1042 H 0.26644 0.02002 0.94165 0.0
H1043 H 0.28161 0.05576 0.90289 0.0
H1044 H 0.30238 0.49276 0.28528 0.0
H1045 H 0.33488 0.52301 0.32451 0.0
H1046 H 0.43651 0.55761 0.28628 0.0
H1047 H 0.40407 0.5288 0.24693 0.0
H1048 H 0.37896 0.51506 0.35497 0.0
H1049 H 0.45401 0.65209 0.31311 0.0
H1050 H 0.41782 0.61457 0.29636 0.0
H1051 H 0.46289 0.62106 0.29601 0.0
C1052 C 0.33165 0.50688 0.28538 0.0
C1053 C 0.35083 0.50899 0.26309 0.0
C1054 C 0.3502 0.52416 0.30771 0.0
C1055 C 0.3882 0.54345 0.30816 0.0
C1056 C 0.40726 0.54411 0.28616 0.0
H1057 H 0.52206 0.60637 0.44437 0.0
H1058 H 0.48443 0.57461 0.40736 0.0
C1059 C 0.38876 0.52749 0.26375 0.0
C1060 C 0.40798 0.56267 0.33162 0.0
H1061 H 0.47568 0.64392 0.35323 0.0
C1062 C 0.39988 0.54334 0.35466 0.0
C1063 C 0.43473 0.59979 0.33138 0.0
C1064 C 0.44258 0.62315 0.30794 0.0
C1065 C 0.41842 0.55985 0.3773 0.0
C1066 C 0.44683 0.59633 0.37665 0.0
C1067 C 0.45429 0.61583 0.35373 0.0
C1068 C 0.46918 0.61503 0.39941 0.0
C1069 C 0.40676 0.53812 0.40168 0.0
C1070 C 0.47438 0.64898 0.40673 0.0
C1071 C 0.49676 0.66756 0.42734 0.0
C1072 C 0.51391 0.65231 0.44125 0.0
C1073 C 0.50862 0.61833 0.43409 0.0
C1074 C 0.4869 0.6001 0.41311 0.0
H1075 H 0.37799 0.5163 0.40072 0.0
H1076 H 0.42334 0.52507 0.40465 0.0
H1077 H 0.41022 0.55548 0.41843 0.0
H1078 H 0.46114 0.66116 0.39645 0.0
H1079 H 0.5003 0.69364 0.43266 0.0
H1080 H 0.81253 0.3041 0.60756 0.0
H1081 H 0.80703 0.33547 0.64496 0.0
H1082 H 0.90402 0.43293 0.62268 0.0
H1083 H 0.90991 0.4017 0.58542 0.0
H1084 H 0.89644 0.40999 0.67796 0.0
H1085 H 0.78066 0.41901 0.63735 0.0
H1086 H 0.77757 0.37539 0.63642 0.0
H1087 H 0.81128 0.41189 0.6177 0.0
C1088 C 0.83289 0.33206 0.6108 0.0
C1089 C 0.86151 0.35054 0.59349 0.0
C1090 C 0.8296 0.34996 0.63204 0.0
C1091 C 0.85497 0.3865 0.63633 0.0
C1092 C 0.88412 0.40474 0.61954 0.0
H1093 H 0.8418 0.54162 0.73577 0.0
H1094 H 0.85424 0.51179 0.70049 0.0
C1095 C 0.88729 0.38696 0.59822 0.0
C1096 C 0.85057 0.40606 0.65795 0.0
H1097 H 0.79834 0.44019 0.67947 0.0
C1098 C 0.87503 0.41662 0.67837 0.0
C1099 C 0.82284 0.41492 0.65812 0.0
C1100 C 0.79664 0.40501 0.63619 0.0
C1101 C 0.87202 0.43542 0.69931 0.0
C1102 C 0.84388 0.4437 0.69966 0.0
C1103 C 0.8198 0.43362 0.67906 0.0
C1104 C 0.83859 0.46244 0.72143 0.0
C1105 C 0.899 0.4466 0.72081 0.0
C1106 C 0.82573 0.44444 0.74475 0.0
C1107 C 0.81846 0.4613 0.76484 0.0
C1108 C 0.82406 0.49648 0.76193 0.0
C1109 C 0.83757 0.51466 0.73864 0.0
C1110 C 0.84453 0.49765 0.71848 0.0
H1111 H 0.9227 0.44382 0.7156 0.0
H1112 H 0.90864 0.47509 0.72639 0.0
H1113 H 0.88571 0.42927 0.7377 0.0
H1114 H 0.82071 0.41711 0.74724 0.0
H1115 H 0.80847 0.44682 0.78265 0.0
H1116 H 0.30877 0.81293 0.08411 0.0
H1117 H 0.33962 0.80861 0.046 0.0
H1118 H 0.43966 0.89947 0.07246 0.0
H1119 H 0.40912 0.90265 0.11102 0.0
H1120 H 0.37133 0.85246 1.00842 0.0
H1121 H 0.47423 0.83105 0.05663 0.0
H1122 H 0.43671 0.82935 0.07359 0.0
H1123 H 0.47672 0.87217 0.0671 0.0
C1124 C 0.33737 0.83182 0.08174 0.0
C1125 C 0.35671 0.85789 0.10052 0.0
C1126 C 0.355 0.82934 0.06003 0.0
C1127 C 0.39221 0.85318 0.05658 0.0
C1128 C 0.41129 0.87991 0.07507 0.0
H1129 H 0.50128 0.90016 0.91024 0.0
H1130 H 0.46855 0.89902 0.94883 0.0
C1131 C 0.39381 0.8819 0.097 0.0
C1132 C 0.41073 0.85087 0.03326 0.0
H1133 H 0.48498 0.84794 0.01255 0.0
C1134 C 0.396 0.85112 1.00935 0.0
C1135 C 0.44256 0.8484 0.03439 0.0
C1136 C 0.45822 0.84481 0.05932 0.0
C1137 C 0.41257 0.84979 0.98658 0.0
C1138 C 0.44565 0.84969 0.98771 0.0
C1139 C 0.45993 0.84858 0.01163 0.0
C1140 C 0.46592 0.85073 0.96439 0.0
C1141 C 0.39394 0.84776 0.96164 0.0
C1142 C 0.47685 0.82499 0.96076 0.0
C1143 C 0.49639 0.82623 0.93902 0.0
C1144 C 0.50497 0.85297 0.92039 0.0
C1145 C 0.49434 0.87888 0.92411 0.0
C1146 C 0.47545 0.87808 0.94607 0.0
H1147 H 0.36431 0.83578 0.96429 0.0
H1148 H 0.4046 0.8755 0.95396 0.0
H1149 H 0.3986 0.83139 0.94731 0.0
H1150 H 0.47003 0.80375 0.97468 0.0
H1151 H 0.50421 0.80591 0.93651 0.0
H1152 H 0.60356 0.49769 0.23302 0.0
H1153 H 0.57021 0.46203 0.27037 0.0
H1154 H 0.67072 0.48824 0.30714 0.0
H1155 H 0.70427 0.52375 0.26981 0.0
H1156 H 0.61127 0.40939 0.30426 0.0
H1157 H 0.56997 0.504 0.34458 0.0
H1158 H 0.56413 0.4951 0.3108 0.0
H1159 H 0.60883 0.51918 0.32397 0.0
C1160 C 0.61853 0.49578 0.24903 0.0
C1161 C 0.65653 0.51349 0.2485 0.0
C1162 C 0.59948 0.47567 0.27039 0.0
C1163 C 0.6181 0.47281 0.29147 0.0
C1164 C 0.65597 0.49039 0.29104 0.0
H1165 H 0.55705 0.38252 0.44219 0.0
H1166 H 0.58536 0.42008 0.40449 0.0
C1167 C 0.67507 0.51077 0.2698 0.0
C1168 C 0.59804 0.45046 0.31366 0.0
H1169 H 0.54822 0.44775 0.36541 0.0
C1170 C 0.59738 0.41765 0.31761 0.0
C1171 C 0.58013 0.46155 0.33097 0.0
C1172 C 0.58079 0.49697 0.32761 0.0
C1173 C 0.57908 0.39547 0.33852 0.0
C1174 C 0.56114 0.40652 0.35581 0.0
C1175 C 0.56186 0.43938 0.35192 0.0
C1176 C 0.54277 0.38479 0.37862 0.0
C1177 C 0.57942 0.36062 0.34232 0.0
C1178 C 0.50928 0.35287 0.37645 0.0
C1179 C 0.49302 0.33138 0.39795 0.0
C1180 C 0.51022 0.34139 0.42186 0.0
C1181 C 0.54346 0.37384 0.42396 0.0
C1182 C 0.55951 0.39543 0.40253 0.0
H1183 H 0.59761 0.35769 0.32861 0.0
H1184 H 0.58821 0.35926 0.36204 0.0
H1185 H 0.55163 0.33738 0.3398 0.0
H1186 H 0.49602 0.34437 0.35808 0.0
H1187 H 0.46755 0.30645 0.39571 0.0
H1188 H 0.18187 0.48091 0.75054 0.0
H1189 H 0.18318 0.51516 0.71286 0.0
H1190 H 0.11177 0.54486 0.75 0.0
H1191 H 0.10913 0.50951 0.78742 0.0
H1192 H 0.09139 0.52222 0.70073 0.0
H1193 H 0.2373 0.62477 0.70496 0.0
H1194 H 0.2286 0.57905 0.70472 0.0
H1195 H 0.21365 0.59488 0.73126 0.0
C1196 C 0.16621 0.49446 0.75071 0.0
C1197 C 0.1455 0.49249 0.77216 0.0
C1198 C 0.16738 0.51445 0.72923 0.0
C1199 C 0.14811 0.53311 0.72881 0.0
C1200 C 0.12712 0.53093 0.75002 0.0
H1201 H 0.17591 0.69458 0.61531 0.0
H1202 H 0.17267 0.66292 0.655 0.0
C1203 C 0.12586 0.5109 0.77149 0.0
C1204 C 0.14905 0.55412 0.70599 0.0
H1205 H 0.20607 0.62333 0.66687 0.0
C1206 C 0.11643 0.54445 0.69339 0.0
C1207 C 0.18167 0.58347 0.69669 0.0
C1208 C 0.21726 0.59645 0.71023 0.0
C1209 C 0.11567 0.56278 0.67136 0.0
C1210 C 0.14849 0.59109 0.66143 0.0
C1211 C 0.18099 0.60136 0.67438 0.0
C1212 C 0.14976 0.61011 0.63745 0.0
C1213 C 0.07968 0.55192 0.65908 0.0
C1214 C 0.13827 0.59098 0.61439 0.0
C1215 C 0.13986 0.60893 0.59172 0.0
C1216 C 0.15323 0.64649 0.59158 0.0
C1217 C 0.165 0.66562 0.61473 0.0
C1218 C 0.16339 0.6476 0.63742 0.0
H1219 H 0.05695 0.53732 0.67269 0.0
H1220 H 0.07893 0.57592 0.65168 0.0
H1221 H 0.07533 0.53355 0.64282 0.0
H1222 H 0.12827 0.56213 0.6139 0.0
H1223 H 0.13022 0.59324 0.57437 0.0
H1224 H 0.5115 0.12532 0.89885 0.0
H1225 H 0.5435 0.12275 0.9368 0.0
H1226 H 0.52754 0.20468 0.97265 0.0
H1227 H 0.4943 0.20624 0.93497 0.0
H1228 H 0.60363 0.17134 0.95859 0.0
H1229 H 0.49163 0.13008 0.02766 0.0
H1230 H 0.48501 0.13033 0.99371 0.0
H1231 H 0.50299 0.17165 0.01178 0.0
C1232 C 0.51484 0.14273 0.91487 0.0
C1233 C 0.50033 0.16585 0.9141 0.0
C1234 C 0.53306 0.14123 0.93654 0.0
C1235 C 0.53743 0.16307 0.95778 0.0
C1236 C 0.52359 0.18678 0.95683 0.0
H1237 H 0.69371 0.20237 0.07919 0.0
H1238 H 0.66339 0.2071 0.04084 0.0
C1239 C 0.50478 0.18781 0.93529 0.0
C1240 C 0.55698 0.1613 0.98067 0.0
H1241 H 0.54952 0.14774 0.04507 0.0
C1242 C 0.59174 0.16602 0.9775 0.0
C1243 C 0.54126 0.15383 1.00528 0.0
C1244 C 0.50304 0.1458 0.00982 0.0
C1245 C 0.61124 0.16355 0.99822 0.0
C1246 C 0.59608 0.15749 0.02298 0.0
C1247 C 0.5613 0.15274 0.02613 0.0
C1248 C 0.61514 0.15479 0.04584 0.0
C1249 C 0.64734 0.16634 0.99317 0.0
C1250 C 0.59781 0.12435 0.06178 0.0
C1251 C 0.61474 0.12207 0.08391 0.0
C1252 C 0.64951 0.15001 0.09041 0.0
C1253 C 0.6671 0.18029 0.07435 0.0
C1254 C 0.64986 0.18288 0.05241 0.0
H1255 H 0.64973 0.15976 0.97301 0.0
H1256 H 0.66923 0.1945 0.99681 0.0
H1257 H 0.65164 0.14792 1.00578 0.0
H1258 H 0.57105 0.10232 0.05713 0.0
H1259 H 0.60079 0.09833 0.09589 0.0
H1260 H 0.21667 0.7423 0.12714 0.0
H1261 H 0.20274 0.67879 0.12874 0.0
H1262 H 0.20624 0.68344 0.21095 0.0
H1263 H 0.21911 0.74556 0.20948 0.0
H1264 H 0.24611 0.65502 0.14835 0.0
H1265 H 0.11702 0.58723 0.20113 0.0
H1266 H 0.13454 0.6316 0.18722 0.0
H1267 H 0.15032 0.62633 0.21795 0.0
C1268 C 0.21336 0.72931 0.14549 0.0
C1269 C 0.21893 0.74901 0.16816 0.0
C1270 C 0.20566 0.69311 0.14642 0.0
C1271 C 0.20286 0.67593 0.17002 0.0
C1272 C 0.20724 0.69543 0.19253 0.0
H1273 H 0.2215 0.49335 0.22565 0.0
H1274 H 0.21357 0.5466 0.22206 0.0
C1275 C 0.21497 0.73127 0.19161 0.0
C1276 C 0.19895 0.63912 0.17155 0.0
H1277 H 0.15202 0.55702 0.20167 0.0
C1278 C 0.22516 0.63345 0.15967 0.0
C1279 C 0.17184 0.61085 0.18654 0.0
C1280 C 0.14165 0.61418 0.19871 0.0
C1281 C 0.22574 0.60102 0.16303 0.0
C1282 C 0.1992 0.57317 0.17851 0.0
C1283 C 0.1726 0.57848 0.19005 0.0
C1284 C 0.19847 0.53815 0.18215 0.0
C1285 C 0.2554 0.59711 0.1505 0.0
C1286 C 0.19096 0.51485 0.16135 0.0
C1287 C 0.19525 0.48458 0.16341 0.0
C1288 C 0.207 0.47665 0.18637 0.0
C1289 C 0.21201 0.49847 0.20781 0.0
C1290 C 0.20777 0.52904 0.2057 0.0
H1291 H 0.27786 0.62347 0.14367 0.0
H1292 H 0.26653 0.58502 0.16395 0.0
H1293 H 0.24412 0.57877 0.13382 0.0
H1294 H 0.18325 0.52097 0.14312 0.0
H1295 H 0.19104 0.46827 0.14654 0.0
H1296 H 0.48554 0.21561 0.45881 0.0
H1297 H 0.54055 0.21124 0.46205 0.0
H1298 H 0.50247 0.15349 0.53316 0.0
H1299 H 0.44802 0.15841 0.53018 0.0
H1300 H 0.56854 0.2122 0.53839 0.0
H1301 H 0.5693 0.13454 0.45409 0.0
H1302 H 0.56243 0.17153 0.44602 0.0
H1303 H 0.52903 0.13445 0.46468 0.0
C1304 C 0.48817 0.20054 0.4745 0.0
C1305 C 0.46223 0.18701 0.4941 0.0
C1306 C 0.5198 0.19823 0.47646 0.0
C1307 C 0.52583 0.18195 0.49788 0.0
C1308 C 0.49864 0.16621 0.51648 0.0
H1309 H 0.72847 0.19372 0.554 0.0
H1310 H 0.66418 0.17626 0.55019 0.0
C1311 C 0.4673 0.16875 0.51463 0.0
C1312 C 0.56181 0.18496 0.50251 0.0
H1313 H 0.62556 0.16873 0.47618 0.0
C1314 C 0.58077 0.20221 0.52493 0.0
C1315 C 0.57795 0.17202 0.48502 0.0
C1316 C 0.55851 0.15178 0.46122 0.0
C1317 C 0.61577 0.20816 0.52983 0.0
C1318 C 0.63227 0.19601 0.51204 0.0
C1319 C 0.61297 0.17796 0.48991 0.0
C1320 C 0.67073 0.20494 0.51468 0.0
C1321 C 0.63545 0.22892 0.55344 0.0
C1322 C 0.69568 0.22619 0.49589 0.0
C1323 C 0.73204 0.23601 0.498 0.0
C1324 C 0.74474 0.22478 0.51895 0.0
C1325 C 0.71971 0.203 0.53772 0.0
C1326 C 0.68299 0.19315 0.53558 0.0
H1327 H 0.62187 0.24247 0.56253 0.0
H1328 H 0.63633 0.20998 0.56754 0.0
H1329 H 0.66372 0.24974 0.54881 0.0
H1330 H 0.6871 0.23569 0.47961 0.0
H1331 H 0.75025 0.25264 0.48302 0.0
H1332 H 0.26259 0.481 0.87986 0.0
H1333 H 0.32362 0.53252 0.88043 0.0
H1334 H 0.33045 0.525 0.79878 0.0
H1335 H 0.26816 0.47314 0.79801 0.0
H1336 H 0.38983 0.544 0.86642 0.0
H1337 H 0.35174 0.62853 0.80796 0.0
H1338 H 0.31852 0.58547 0.82106 0.0
H1339 H 0.34373 0.58725 0.79312 0.0
C1340 C 0.27699 0.49002 0.86193 0.0
C1341 C 0.2602 0.47314 0.8388 0.0
C1342 C 0.31211 0.51953 0.86234 0.0
C1343 C 0.33159 0.53323 0.83966 0.0
C1344 C 0.31572 0.5154 0.81653 0.0
H1345 H 0.53205 0.73358 0.81229 0.0
H1346 H 0.48079 0.6722 0.80991 0.0
C1347 C 0.28026 0.48555 0.8161 0.0
C1348 C 0.36759 0.56714 0.84062 0.0
H1349 H 0.41208 0.65571 0.8218 0.0
C1350 C 0.39479 0.56838 0.85652 0.0
C1351 C 0.37402 0.59917 0.82801 0.0
C1352 C 0.34544 0.60035 0.81175 0.0
C1353 C 0.42812 0.60054 0.85998 0.0
C1354 C 0.43437 0.63256 0.8475 0.0
C1355 C 0.40736 0.6312 0.8314 0.0
C1356 C 0.46882 0.66779 0.85026 0.0
C1357 C 0.4565 0.59989 0.87673 0.0
C1358 C 0.48018 0.68566 0.87396 0.0
C1359 C 0.51006 0.72104 0.87543 0.0
C1360 C 0.52865 0.73911 0.85316 0.0
C1361 C 0.51823 0.72042 0.8298 0.0
C1362 C 0.4888 0.68529 0.82837 0.0
H1363 H 0.45124 0.5719 0.87975 0.0
H1364 H 0.48386 0.61644 0.86833 0.0
H1365 H 0.45636 0.61147 0.89565 0.0
H1366 H 0.4649 0.67302 0.89111 0.0
H1367 H 0.5171 0.73498 0.89361 0.0
H1368 H 0.81933 0.55152 0.14925 0.0
H1369 H 0.82558 0.49777 0.14709 0.0
H1370 H 0.78246 0.46807 0.22321 0.0
H1371 H 0.7766 0.52264 0.22557 0.0
H1372 H 0.84093 0.45282 0.21029 0.0
H1373 H 0.731 0.39975 0.13804 0.0
H1374 H 0.7689 0.44351 0.13082 0.0
H1375 H 0.74113 0.43802 0.1581 0.0
C1376 C 0.81226 0.53416 0.16587 0.0
C1377 C 0.79766 0.54136 0.18763 0.0
C1378 C 0.81552 0.50324 0.1645 0.0
C1379 C 0.80371 0.47839 0.18472 0.0
C1380 C 0.79158 0.48679 0.2073 0.0
H1381 H 0.76145 0.26162 0.20866 0.0
H1382 H 0.7755 0.32404 0.21187 0.0
C1383 C 0.78856 0.51812 0.20877 0.0
C1384 C 0.80137 0.44257 0.18121 0.0
H1385 H 0.75892 0.36492 0.14574 0.0
C1386 C 0.82298 0.43359 0.19621 0.0
C1387 C 0.77812 0.41748 0.16269 0.0
C1388 C 0.7532 0.4249 0.14661 0.0
C1389 C 0.82211 0.40036 0.19308 0.0
C1390 C 0.79851 0.37507 0.17477 0.0
C1391 C 0.77727 0.38432 0.15958 0.0
C1392 C 0.79288 0.33769 0.17269 0.0
C1393 C 0.8468 0.3928 0.20927 0.0
C1394 C 0.79742 0.32395 0.14938 0.0
C1395 C 0.78918 0.28768 0.14739 0.0
C1396 C 0.77567 0.26443 0.16859 0.0
C1397 C 0.77171 0.27859 0.19187 0.0
C1398 C 0.7801 0.31457 0.19386 0.0
H1399 H 0.87083 0.41827 0.21576 0.0
H1400 H 0.83191 0.37745 0.22649 0.0
H1401 H 0.85614 0.37645 0.19871 0.0
H1402 H 0.80691 0.34116 0.13267 0.0
H1403 H 0.79231 0.27761 0.12917 0.0
H1404 H 0.50417 0.75289 0.54601 0.0
H1405 H 0.45383 0.76402 0.5479 0.0
H1406 H 0.48249 0.81474 0.47386 0.0
H1407 H 0.53343 0.80308 0.47158 0.0
H1408 H 0.45129 0.82701 0.54685 0.0
H1409 H 0.37582 0.73869 0.46484 0.0
H1410 H 0.41378 0.73797 0.47934 0.0
H1411 H 0.42115 0.77402 0.45804 0.0
C1412 C 0.5 0.76641 0.52997 0.0
C1413 C 0.5229 0.77683 0.50849 0.0
C1414 C 0.4711 0.77289 0.5312 0.0
C1415 C 0.46396 0.78989 0.51099 0.0
C1416 C 0.48705 0.80103 0.48958 0.0
H1417 H 0.27491 0.81339 0.48786 0.0
H1418 H 0.33641 0.82342 0.48645 0.0
C1419 C 0.51628 0.79452 0.48832 0.0
C1420 C 0.43184 0.79498 0.51263 0.0
H1421 H 0.34908 0.76786 0.48601 0.0
C1422 C 0.42904 0.81431 0.53342 0.0
C1423 C 0.40262 0.77822 0.49527 0.0
C1424 C 0.40314 0.75579 0.47321 0.0
C1425 C 0.39796 0.81725 0.53731 0.0
C1426 C 0.3685 0.79996 0.5202 0.0
C1427 C 0.3716 0.78121 0.49916 0.0
C1428 C 0.33389 0.80027 0.52364 0.0
C1429 C 0.3971 0.8391 0.55962 0.0
C1430 C 0.31223 0.78532 0.54553 0.0
C1431 C 0.27702 0.78018 0.54656 0.0
C1432 C 0.26288 0.78957 0.5256 0.0
C1433 C 0.28535 0.80643 0.50446 0.0
C1434 C 0.32042 0.81185 0.50352 0.0
H1435 H 0.4248 0.85885 0.5663 0.0
H1436 H 0.38281 0.85397 0.55459 0.0
H1437 H 0.38249 0.82058 0.5757 0.0
H1438 H 0.32158 0.77545 0.56112 0.0
H1439 H 0.25993 0.76612 0.56274 0.0
H1440 H 0.70482 0.56934 0.86436 0.0
H1441 H 0.64502 0.51513 0.86678 0.0
H1442 H 0.66597 0.47616 0.79668 0.0
H1443 H 0.72602 0.53067 0.79409 0.0
H1444 H 0.58254 0.47733 0.83331 0.0
H1445 H 0.65385 0.40085 0.85279 0.0
H1446 H 0.67645 0.44962 0.85403 0.0
H1447 H 0.66639 0.42689 0.82379 0.0
C1448 C 0.69617 0.54987 0.84893 0.0
C1449 C 0.72015 0.55434 0.82902 0.0
C1450 C 0.66203 0.51876 0.85044 0.0
C1451 C 0.65126 0.49122 0.83222 0.0
C1452 C 0.67391 0.49689 0.81114 0.0
H1453 H 0.45339 0.2889 0.81362 0.0
H1454 H 0.50193 0.3519 0.81197 0.0
C1455 C 0.70805 0.5283 0.80947 0.0
C1456 C 0.61813 0.4555 0.83675 0.0
H1457 H 0.59009 0.36711 0.85103 0.0
C1458 C 0.58416 0.45321 0.83712 0.0
C1459 C 0.62029 0.42418 0.84238 0.0
C1460 C 0.65616 0.42532 0.84348 0.0
C1461 C 0.55228 0.42026 0.84223 0.0
C1462 C 0.55437 0.38872 0.84712 0.0
C1463 C 0.58844 0.39125 0.84736 0.0
C1464 C 0.52152 0.35231 0.8501 0.0
C1465 C 0.5166 0.41947 0.84253 0.0
C1466 C 0.51575 0.33147 0.87231 0.0
C1467 C 0.48746 0.29528 0.87343 0.0
C1468 C 0.46502 0.27931 0.85214 0.0
C1469 C 0.46999 0.30069 0.83043 0.0
C1470 C 0.49776 0.33676 0.82946 0.0
H1471 H 0.52031 0.44689 0.84554 0.0
H1472 H 0.50289 0.40926 0.82389 0.0
H1473 H 0.49862 0.40115 0.85771 0.0
H1474 H 0.53395 0.3428 0.88841 0.0
H1475 H 0.48476 0.27919 0.89015 0.0
loop_
_geom_bond_atom_site_label_1
_geom_bond_atom_site_label_2
_geom_bond_distance
_geom_bond_site_symmetry_2
_ccdc_geom_bond_type
C0 C1 1.351 . S
C0 N3 1.368 . S
C0 H5 0.931 . S
C1 C0 1.351 . S
C1 N2 1.373 . S
C1 H29 0.930 . S
N2 C1 1.373 . S
N2 C4 1.340 . S
N3 C0 1.368 . S
N3 C4 1.321 . S
N3 Co6 2.135 . S
C4 N2 1.340 . S
C4 N3 1.321 . S
C4 H28 0.930 . S
H5 C0 0.931 . S
Co6 N3 2.135 . S
Co6 N9 2.121 . S
Co6 O14 2.055 . S
Co6 O17 2.039 . S
Co6 N20 2.140 . S
C7 O8 1.227 . S
C7 O17 1.265 . S
O8 C7 1.227 . S
N9 Co6 2.121 . S
N9 C11 1.375 . S
N9 C12 1.313 . S
C10 C11 1.338 . S
C10 N13 1.377 . S
C10 H30 0.930 . S
C11 N9 1.375 . S
C11 C10 1.338 . S
C11 H15 0.931 . S
C12 N9 1.313 . S
C12 N13 1.344 . S
C12 H16 0.930 . S
N13 C10 1.377 . S
N13 C12 1.344 . S
O14 Co6 2.055 . S
O14 C18 1.253 . S
H15 C11 0.931 . S
H16 C12 0.930 . S
O17 Co6 2.039 . S
O17 C7 1.265 . S
C18 O14 1.253 . S
C18 O19 1.227 . S
O19 C18 1.227 . S
N20 Co6 2.140 . S
N20 C23 1.346 . S
N20 C24 1.345 . S
C21 C22 1.387 . S
C21 C25 1.391 . S
C22 C21 1.387 . S
C22 C23 1.369 . S
C22 H31 0.929 . S
C23 N20 1.346 . S
C23 C22 1.369 . S
C23 H26 0.928 . S
C24 N20 1.345 . S
C24 C25 1.371 . S
C24 H27 0.931 . S
C25 C21 1.391 . S
C25 C24 1.371 . S
C25 H32 0.930 . S
H26 C23 0.928 . S
H27 C24 0.931 . S
H28 C4 0.930 . S
H29 C1 0.930 . S
H30 C10 0.930 . S
H31 C22 0.929 . S
H32 C25 0.930 . S
C33 C34 1.351 . S
C33 N36 1.368 . S
C33 H38 0.931 . S
C34 C33 1.351 . S
C34 N35 1.373 . S
C34 H62 0.930 . S
N35 C34 1.373 . S
N35 C37 1.340 . S
N36 C33 1.368 . S
N36 C37 1.321 . S
N36 Co39 2.135 . S
C37 N35 1.340 . S
C37 N36 1.321 . S
C37 H61 0.930 . S
H38 C33 0.931 . S
Co39 N36 2.135 . S
Co39 N42 2.121 . S
Co39 O47 2.055 . S
Co39 O50 2.039 . S
Co39 N53 2.140 . S
C40 O41 1.227 . S
C40 O50 1.265 . S
O41 C40 1.227 . S
N42 Co39 2.121 . S
N42 C44 1.375 . S
N42 C45 1.313 . S
C43 C44 1.338 . S
C43 N46 1.377 . S
C43 H63 0.930 . S
C44 N42 1.375 . S
C44 C43 1.338 . S
C44 H48 0.931 . S
C45 N42 1.313 . S
C45 N46 1.344 . S
C45 H49 0.930 . S
N46 C43 1.377 . S
N46 C45 1.344 . S
O47 Co39 2.055 . S
O47 C51 1.253 . S
H48 C44 0.931 . S
H49 C45 0.930 . S
O50 Co39 2.039 . S
O50 C40 1.265 . S
C51 O47 1.253 . S
C51 O52 1.227 . S
O52 C51 1.227 . S
N53 Co39 2.140 . S
N53 C56 1.346 . S
N53 C57 1.345 . S
C54 C55 1.387 . S
C54 C58 1.391 . S
C55 C54 1.387 . S
C55 C56 1.369 . S
C55 H64 0.929 . S
C56 N53 1.346 . S
C56 C55 1.369 . S
C56 H59 0.928 . S
C57 N53 1.345 . S
C57 C58 1.371 . S
C57 H60 0.931 . S
C58 C54 1.391 . S
C58 C57 1.371 . S
C58 H65 0.930 . S
H59 C56 0.928 . S
H60 C57 0.931 . S
H61 C37 0.930 . S
H62 C34 0.930 . S
H63 C43 0.930 . S
H64 C55 0.929 . S
H65 C58 0.930 . S
C66 C67 1.351 . S
C66 N69 1.368 . S
C66 H71 0.931 . S
C67 C66 1.351 . S
C67 N68 1.373 . S
C67 H95 0.930 . S
N68 C67 1.373 . S
N68 C70 1.340 . S
N69 C66 1.368 . S
N69 C70 1.321 . S
N69 Co72 2.135 . S
C70 N68 1.340 . S
C70 N69 1.321 . S
C70 H94 0.930 . S
H71 C66 0.931 . S
Co72 N69 2.135 . S
Co72 N75 2.121 . S
Co72 O80 2.055 . S
Co72 O83 2.039 . S
Co72 N86 2.140 . S
C73 O74 1.227 . S
C73 O83 1.265 . S
O74 C73 1.227 . S
N75 Co72 2.121 . S
N75 C77 1.375 . S
N75 C78 1.313 . S
C76 C77 1.338 . S
C76 N79 1.377 . S
C76 H96 0.930 . S
C77 N75 1.375 . S
C77 C76 1.338 . S
C77 H81 0.931 . S
C78 N75 1.313 . S
C78 N79 1.344 . S
C78 H82 0.930 . S
N79 C76 1.377 . S
N79 C78 1.344 . S
O80 Co72 2.055 . S
O80 C84 1.253 . S
H81 C77 0.931 . S
H82 C78 0.930 . S
O83 Co72 2.039 . S
O83 C73 1.265 . S
C84 O80 1.253 . S
C84 O85 1.227 . S
O85 C84 1.227 . S
N86 Co72 2.140 . S
N86 C89 1.346 . S
N86 C90 1.345 . S
C87 C88 1.387 . S
C87 C91 1.391 . S
C88 C87 1.387 . S
C88 C89 1.369 . S
C88 H97 0.929 . S
C89 N86 1.346 . S
C89 C88 1.369 . S
C89 H92 0.928 . S
C90 N86 1.345 . S
C90 C91 1.371 . S
C90 H93 0.931 . S
C91 C87 1.391 . S
C91 C90 1.371 . S
C91 H98 0.930 . S
H92 C89 0.928 . S
H93 C90 0.931 . S
H94 C70 0.930 . S
H95 C67 0.930 . S
H96 C76 0.930 . S
H97 C88 0.929 . S
H98 C91 0.930 . S
C99 C100 1.351 . S
C99 N102 1.368 . S
C99 H104 0.931 . S
C100 C99 1.351 . S
C100 N101 1.373 . S
C100 H128 0.930 . S
N101 C100 1.373 . S
N101 C103 1.340 . S
N102 C99 1.368 . S
N102 C103 1.321 . S
N102 Co105 2.135 . S
C103 N101 1.340 . S
C103 N102 1.321 . S
C103 H127 0.930 . S
H104 C99 0.931 . S
Co105 N102 2.135 . S
Co105 N108 2.121 . S
Co105 O113 2.055 . S
Co105 O116 2.039 . S
Co105 N119 2.140 . S
C106 O107 1.227 . S
C106 O116 1.265 . S
O107 C106 1.227 . S
N108 Co105 2.121 . S
N108 C110 1.375 . S
N108 C111 1.313 . S
C109 C110 1.338 . S
C109 N112 1.377 . S
C109 H129 0.930 . S
C110 N108 1.375 . S
C110 C109 1.338 . S
C110 H114 0.931 . S
C111 N108 1.313 . S
C111 N112 1.344 . S
C111 H115 0.930 . S
N112 C109 1.377 . S
N112 C111 1.344 . S
O113 Co105 2.055 . S
O113 C117 1.253 . S
H114 C110 0.931 . S
H115 C111 0.930 . S
O116 Co105 2.039 . S
O116 C106 1.265 . S
C117 O113 1.253 . S
C117 O118 1.227 . S
O118 C117 1.227 . S
N119 Co105 2.140 . S
N119 C122 1.346 . S
N119 C123 1.345 . S
C120 C121 1.387 . S
C120 C124 1.391 . S
C121 C120 1.387 . S
C121 C122 1.369 . S
C121 H130 0.929 . S
C122 N119 1.346 . S
C122 C121 1.369 . S
C122 H125 0.928 . S
C123 N119 1.345 . S
C123 C124 1.371 . S
C123 H126 0.931 . S
C124 C120 1.391 . S
C124 C123 1.371 . S
C124 H131 0.930 . S
H125 C122 0.928 . S
H126 C123 0.931 . S
H127 C103 0.930 . S
H128 C100 0.930 . S
H129 C109 0.930 . S
H130 C121 0.929 . S
H131 C124 0.930 . S
C132 C133 1.351 . S
C132 N135 1.368 . S
C132 H137 0.931 . S
C133 C132 1.351 . S
C133 N134 1.373 . S
C133 H161 0.930 . S
N134 C133 1.373 . S
N134 C136 1.340 . S
N135 C132 1.368 . S
N135 C136 1.321 . S
N135 Co138 2.135 . S
C136 N134 1.340 . S
C136 N135 1.321 . S
C136 H160 0.930 . S
H137 C132 0.931 . S
Co138 N135 2.135 . S
Co138 N141 2.121 . S
Co138 O146 2.055 . S
Co138 O149 2.039 . S
Co138 N152 2.140 . S
C139 O140 1.227 . S
C139 O149 1.265 . S
O140 C139 1.227 . S
N141 Co138 2.121 . S
N141 C143 1.375 . S
N141 C144 1.313 . S
C142 C143 1.338 . S
C142 N145 1.377 . S
C142 H162 0.930 . S
C143 N141 1.375 . S
C143 C142 1.338 . S
C143 H147 0.931 . S
C144 N141 1.313 . S
C144 N145 1.344 . S
C144 H148 0.930 . S
N145 C142 1.377 . S
N145 C144 1.344 . S
O146 Co138 2.055 . S
O146 C150 1.253 . S
H147 C143 0.931 . S
H148 C144 0.930 . S
O149 Co138 2.039 . S
O149 C139 1.265 . S
C150 O146 1.253 . S
C150 O151 1.227 . S
O151 C150 1.227 . S
N152 Co138 2.140 . S
N152 C155 1.346 . S
N152 C156 1.345 . S
C153 C154 1.387 . S
C153 C157 1.391 . S
C154 C153 1.387 . S
C154 C155 1.369 . S
C154 H163 0.929 . S
C155 N152 1.346 . S
C155 C154 1.369 . S
C155 H158 0.928 . S
C156 N152 1.345 . S
C156 C157 1.371 . S
C156 H159 0.931 . S
C157 C153 1.391 . S
C157 C156 1.371 . S
C157 H164 0.930 . S
H158 C155 0.928 . S
H159 C156 0.931 . S
H160 C136 0.930 . S
H161 C133 0.930 . S
H162 C142 0.930 . S
H163 C154 0.929 . S
H164 C157 0.930 . S
C165 C166 1.351 . S
C165 N168 1.368 . S
C165 H170 0.931 . S
C166 C165 1.351 . S
C166 N167 1.373 . S
C166 H194 0.930 . S
N167 C166 1.373 . S
N167 C169 1.340 . S
N168 C165 1.368 . S
N168 C169 1.321 . S
N168 Co171 2.135 . S
C169 N167 1.340 . S
C169 N168 1.321 . S
C169 H193 0.930 . S
H170 C165 0.931 . S
Co171 N168 2.135 . S
Co171 N174 2.121 . S
Co171 O179 2.055 . S
Co171 O182 2.039 . S
Co171 N185 2.140 . S
C172 O173 1.227 . S
C172 O182 1.265 . S
O173 C172 1.227 . S
N174 Co171 2.121 . S
N174 C176 1.375 . S
N174 C177 1.313 . S
C175 C176 1.338 . S
C175 N178 1.377 . S
C175 H195 0.930 . S
C176 N174 1.375 . S
C176 C175 1.338 . S
C176 H180 0.931 . S
C177 N174 1.313 . S
C177 N178 1.344 . S
C177 H181 0.930 . S
N178 C175 1.377 . S
N178 C177 1.344 . S
O179 Co171 2.055 . S
O179 C183 1.253 . S
H180 C176 0.931 . S
H181 C177 0.930 . S
O182 Co171 2.039 . S
O182 C172 1.265 . S
C183 O179 1.253 . S
C183 O184 1.227 . S
O184 C183 1.227 . S
N185 Co171 2.140 . S
N185 C188 1.346 . S
N185 C189 1.345 . S
C186 C187 1.387 . S
C186 C190 1.391 . S
C187 C186 1.387 . S
C187 C188 1.369 . S
C187 H196 0.929 . S
C188 N185 1.346 . S
C188 C187 1.369 . S
C188 H191 0.928 . S
C189 N185 1.345 . S
C189 C190 1.371 . S
C189 H192 0.931 . S
C190 C186 1.391 . S
C190 C189 1.371 . S
C190 H197 0.930 . S
H191 C188 0.928 . S
H192 C189 0.931 . S
H193 C169 0.930 . S
H194 C166 0.930 . S
H195 C175 0.930 . S
H196 C187 0.929 . S
H197 C190 0.930 . S
C198 C199 1.351 . S
C198 N201 1.368 . S
C198 H203 0.931 . S
C199 C198 1.351 . S
C199 N200 1.373 . S
C199 H227 0.930 . S
N200 C199 1.373 . S
N200 C202 1.340 . S
N201 C198 1.368 . S
N201 C202 1.321 . S
N201 Co204 2.135 . S
C202 N200 1.340 . S
C202 N201 1.321 . S
C202 H226 0.930 . S
H203 C198 0.931 . S
Co204 N201 2.135 . S
Co204 N207 2.121 . S
Co204 O212 2.055 . S
Co204 O215 2.039 . S
Co204 N218 2.140 . S
C205 O206 1.227 . S
C205 O215 1.265 . S
O206 C205 1.227 . S
N207 Co204 2.121 . S
N207 C209 1.375 . S
N207 C210 1.313 . S
C208 C209 1.338 . S
C208 N211 1.377 . S
C208 H228 0.930 . S
C209 N207 1.375 . S
C209 C208 1.338 . S
C209 H213 0.931 . S
C210 N207 1.313 . S
C210 N211 1.344 . S
C210 H214 0.930 . S
N211 C208 1.377 . S
N211 C210 1.344 . S
O212 Co204 2.055 . S
O212 C216 1.253 . S
H213 C209 0.931 . S
H214 C210 0.930 . S
O215 Co204 2.039 . S
O215 C205 1.265 . S
C216 O212 1.253 . S
C216 O217 1.227 . S
O217 C216 1.227 . S
N218 Co204 2.140 . S
N218 C221 1.346 . S
N218 C222 1.345 . S
C219 C220 1.387 . S
C219 C223 1.391 . S
C220 C219 1.387 . S
C220 C221 1.369 . S
C220 H229 0.929 . S
C221 N218 1.346 . S
C221 C220 1.369 . S
C221 H224 0.928 . S
C222 N218 1.345 . S
C222 C223 1.371 . S
C222 H225 0.931 . S
C223 C219 1.391 . S
C223 C222 1.371 . S
C223 H230 0.930 . S
H224 C221 0.928 . S
H225 C222 0.931 . S
H226 C202 0.930 . S
H227 C199 0.930 . S
H228 C208 0.930 . S
H229 C220 0.929 . S
H230 C223 0.930 . S
C231 C232 1.351 . S
C231 N234 1.368 . S
C231 H236 0.931 . S
C232 C231 1.351 . S
C232 N233 1.373 . S
C232 H260 0.930 . S
N233 C232 1.373 . S
N233 C235 1.340 . S
N234 C231 1.368 . S
N234 C235 1.321 . S
N234 Co237 2.135 . S
C235 N233 1.340 . S
C235 N234 1.321 . S
C235 H259 0.930 . S
H236 C231 0.931 . S
Co237 N234 2.135 . S
Co237 N240 2.121 . S
Co237 O245 2.055 . S
Co237 O248 2.039 . S
Co237 N251 2.140 . S
C238 O239 1.227 . S
C238 O248 1.265 . S
O239 C238 1.227 . S
N240 Co237 2.121 . S
N240 C242 1.375 . S
N240 C243 1.313 . S
C241 C242 1.338 . S
C241 N244 1.377 . S
C241 H261 0.930 . S
C242 N240 1.375 . S
C242 C241 1.338 . S
C242 H246 0.931 . S
C243 N240 1.313 . S
C243 N244 1.344 . S
C243 H247 0.930 . S
N244 C241 1.377 . S
N244 C243 1.344 . S
O245 Co237 2.055 . S
O245 C249 1.253 . S
H246 C242 0.931 . S
H247 C243 0.930 . S
O248 Co237 2.039 . S
O248 C238 1.265 . S
C249 O245 1.253 . S
C249 O250 1.227 . S
O250 C249 1.227 . S
N251 Co237 2.140 . S
N251 C254 1.346 . S
N251 C255 1.345 . S
C252 C253 1.387 . S
C252 C256 1.391 . S
C253 C252 1.387 . S
C253 C254 1.369 . S
C253 H262 0.929 . S
C254 N251 1.346 . S
C254 C253 1.369 . S
C254 H257 0.928 . S
C255 N251 1.345 . S
C255 C256 1.371 . S
C255 H258 0.931 . S
C256 C252 1.391 . S
C256 C255 1.371 . S
C256 H263 0.930 . S
H257 C254 0.928 . S
H258 C255 0.931 . S
H259 C235 0.930 . S
H260 C232 0.930 . S
H261 C241 0.930 . S
H262 C253 0.929 . S
H263 C256 0.930 . S
C264 C265 1.351 . S
C264 N267 1.368 . S
C264 H269 0.931 . S
C265 C264 1.351 . S
C265 N266 1.373 . S
C265 H293 0.930 . S
N266 C265 1.373 . S
N266 C268 1.340 . S
N267 C264 1.368 . S
N267 C268 1.321 . S
N267 Co270 2.135 . S
C268 N266 1.340 . S
C268 N267 1.321 . S
C268 H292 0.930 . S
H269 C264 0.931 . S
Co270 N267 2.135 . S
Co270 N273 2.121 . S
Co270 O278 2.055 . S
Co270 O281 2.039 . S
Co270 N284 2.140 . S
C271 O272 1.227 . S
C271 O281 1.265 . S
O272 C271 1.227 . S
N273 Co270 2.121 . S
N273 C275 1.375 . S
N273 C276 1.313 . S
C274 C275 1.338 . S
C274 N277 1.377 . S
C274 H294 0.930 . S
C275 N273 1.375 . S
C275 C274 1.338 . S
C275 H279 0.931 . S
C276 N273 1.313 . S
C276 N277 1.344 . S
C276 H280 0.930 . S
N277 C274 1.377 . S
N277 C276 1.344 . S
O278 Co270 2.055 . S
O278 C282 1.253 . S
H279 C275 0.931 . S
H280 C276 0.930 . S
O281 Co270 2.039 . S
O281 C271 1.265 . S
C282 O278 1.253 . S
C282 O283 1.227 . S
O283 C282 1.227 . S
N284 Co270 2.140 . S
N284 C287 1.346 . S
N284 C288 1.345 . S
C285 C286 1.387 . S
C285 C289 1.391 . S
C286 C285 1.387 . S
C286 C287 1.369 . S
C286 H295 0.929 . S
C287 N284 1.346 . S
C287 C286 1.369 . S
C287 H290 0.928 . S
C288 N284 1.345 . S
C288 C289 1.371 . S
C288 H291 0.931 . S
C289 C285 1.391 . S
C289 C288 1.371 . S
C289 H296 0.930 . S
H290 C287 0.928 . S
H291 C288 0.931 . S
H292 C268 0.930 . S
H293 C265 0.930 . S
H294 C274 0.930 . S
H295 C286 0.929 . S
H296 C289 0.930 . S
C297 C298 1.351 . S
C297 N300 1.368 . S
C297 H302 0.931 . S
C298 C297 1.351 . S
C298 N299 1.373 . S
C298 H326 0.930 . S
N299 C298 1.373 . S
N299 C301 1.340 . S
N300 C297 1.368 . S
N300 C301 1.321 . S
N300 Co303 2.135 . S
C301 N299 1.340 . S
C301 N300 1.321 . S
C301 H325 0.930 . S
H302 C297 0.931 . S
Co303 N300 2.135 . S
Co303 N306 2.121 . S
Co303 O311 2.055 . S
Co303 O314 2.039 . S
Co303 N317 2.140 . S
C304 O305 1.227 . S
C304 O314 1.265 . S
O305 C304 1.227 . S
N306 Co303 2.121 . S
N306 C308 1.375 . S
N306 C309 1.313 . S
C307 C308 1.338 . S
C307 N310 1.377 . S
C307 H327 0.930 . S
C308 N306 1.375 . S
C308 C307 1.338 . S
C308 H312 0.931 . S
C309 N306 1.313 . S
C309 N310 1.344 . S
C309 H313 0.930 . S
N310 C307 1.377 . S
N310 C309 1.344 . S
O311 Co303 2.055 . S
O311 C315 1.253 . S
H312 C308 0.931 . S
H313 C309 0.930 . S
O314 Co303 2.039 . S
O314 C304 1.265 . S
C315 O311 1.253 . S
C315 O316 1.227 . S
O316 C315 1.227 . S
N317 Co303 2.140 . S
N317 C320 1.346 . S
N317 C321 1.345 . S
C318 C319 1.387 . S
C318 C322 1.391 . S
C319 C318 1.387 . S
C319 C320 1.369 . S
C319 H328 0.929 . S
C320 N317 1.346 . S
C320 C319 1.369 . S
C320 H323 0.928 . S
C321 N317 1.345 . S
C321 C322 1.371 . S
C321 H324 0.931 . S
C322 C318 1.391 . S
C322 C321 1.371 . S
C322 H329 0.930 . S
H323 C320 0.928 . S
H324 C321 0.931 . S
H325 C301 0.930 . S
H326 C298 0.930 . S
H327 C307 0.930 . S
H328 C319 0.929 . S
H329 C322 0.930 . S
C330 C331 1.351 . S
C330 N333 1.368 . S
C330 H335 0.931 . S
C331 C330 1.351 . S
C331 N332 1.373 . S
C331 H359 0.930 . S
N332 C331 1.373 . S
N332 C334 1.340 . S
N333 C330 1.368 . S
N333 C334 1.321 . S
N333 Co336 2.135 . S
C334 N332 1.340 . S
C334 N333 1.321 . S
C334 H358 0.930 . S
H335 C330 0.931 . S
Co336 N333 2.135 . S
Co336 N339 2.121 . S
Co336 O344 2.055 . S
Co336 O347 2.039 . S
Co336 N350 2.140 . S
C337 O338 1.227 . S
C337 O347 1.265 . S
O338 C337 1.227 . S
N339 Co336 2.121 . S
N339 C341 1.375 . S
N339 C342 1.313 . S
C340 C341 1.338 . S
C340 N343 1.377 . S
C340 H360 0.930 . S
C341 N339 1.375 . S
C341 C340 1.338 . S
C341 H345 0.931 . S
C342 N339 1.313 . S
C342 N343 1.344 . S
C342 H346 0.930 . S
N343 C340 1.377 . S
N343 C342 1.344 . S
O344 Co336 2.055 . S
O344 C348 1.253 . S
H345 C341 0.931 . S
H346 C342 0.930 . S
O347 Co336 2.039 . S
O347 C337 1.265 . S
C348 O344 1.253 . S
C348 O349 1.227 . S
O349 C348 1.227 . S
N350 Co336 2.140 . S
N350 C353 1.346 . S
N350 C354 1.345 . S
C351 C352 1.387 . S
C351 C355 1.391 . S
C352 C351 1.387 . S
C352 C353 1.369 . S
C352 H361 0.929 . S
C353 N350 1.346 . S
C353 C352 1.369 . S
C353 H356 0.928 . S
C354 N350 1.345 . S
C354 C355 1.371 . S
C354 H357 0.931 . S
C355 C351 1.391 . S
C355 C354 1.371 . S
C355 H362 0.930 . S
H356 C353 0.928 . S
H357 C354 0.931 . S
H358 C334 0.930 . S
H359 C331 0.930 . S
H360 C340 0.930 . S
H361 C352 0.929 . S
H362 C355 0.930 . S
C363 C364 1.351 . S
C363 N366 1.368 . S
C363 H368 0.931 . S
C364 C363 1.351 . S
C364 N365 1.373 . S
C364 H392 0.930 . S
N365 C364 1.373 . S
N365 C367 1.340 . S
N366 C363 1.368 . S
N366 C367 1.321 . S
N366 Co369 2.135 . S
C367 N365 1.340 . S
C367 N366 1.321 . S
C367 H391 0.930 . S
H368 C363 0.931 . S
Co369 N366 2.135 . S
Co369 N372 2.121 . S
Co369 O377 2.055 . S
Co369 O380 2.039 . S
Co369 N383 2.140 . S
C370 O371 1.227 . S
C370 O380 1.265 . S
O371 C370 1.227 . S
N372 Co369 2.121 . S
N372 C374 1.375 . S
N372 C375 1.313 . S
C373 C374 1.338 . S
C373 N376 1.377 . S
C373 H393 0.930 . S
C374 N372 1.375 . S
C374 C373 1.338 . S
C374 H378 0.931 . S
C375 N372 1.313 . S
C375 N376 1.344 . S
C375 H379 0.930 . S
N376 C373 1.377 . S
N376 C375 1.344 . S
O377 Co369 2.055 . S
O377 C381 1.253 . S
H378 C374 0.931 . S
H379 C375 0.930 . S
O380 Co369 2.039 . S
O380 C370 1.265 . S
C381 O377 1.253 . S
C381 O382 1.227 . S
O382 C381 1.227 . S
N383 Co369 2.140 . S
N383 C386 1.346 . S
N383 C387 1.345 . S
C384 C385 1.387 . S
C384 C388 1.391 . S
C385 C384 1.387 . S
C385 C386 1.369 . S
C385 H394 0.929 . S
C386 N383 1.346 . S
C386 C385 1.369 . S
C386 H389 0.928 . S
C387 N383 1.345 . S
C387 C388 1.371 . S
C387 H390 0.931 . S
C388 C384 1.391 . S
C388 C387 1.371 . S
C388 H395 0.930 . S
H389 C386 0.928 . S
H390 C387 0.931 . S
H391 C367 0.930 . S
H392 C364 0.930 . S
H393 C373 0.930 . S
H394 C385 0.929 . S
H395 C388 0.930 . S
H396 C404 0.929 . S
H397 C406 0.930 . S
H398 C408 0.930 . S
H399 C411 0.929 . S
H400 C414 0.930 . S
H401 C416 0.960 . S
H402 C416 0.960 . S
H403 C416 0.960 . S
C404 H396 0.929 . S
C404 C405 1.377 . S
C404 C406 1.384 . S
C405 C404 1.377 . S
C405 C411 1.390 . S
C406 H397 0.930 . S
C406 C404 1.384 . S
C406 C407 1.372 . S
C407 C406 1.372 . S
C407 C408 1.400 . S
C407 C412 1.490 . S
C408 H398 0.930 . S
C408 C407 1.400 . S
C408 C411 1.386 . S
H409 C425 0.930 . S
H410 C426 0.931 . S
C411 H399 0.929 . S
C411 C405 1.390 . S
C411 C408 1.386 . S
C412 C407 1.490 . S
C412 C414 1.395 . S
C412 C415 1.403 . S
H413 C419 0.930 . S
C414 H400 0.930 . S
C414 C412 1.395 . S
C414 C417 1.403 . S
C415 C412 1.403 . S
C415 C416 1.524 . S
C415 C419 1.400 . S
C416 H401 0.960 . S
C416 H402 0.960 . S
C416 H403 0.960 . S
C416 C415 1.524 . S
C417 C414 1.403 . S
C417 C418 1.392 . S
C417 C421 1.495 . S
C418 C417 1.392 . S
C418 C419 1.385 . S
C418 C420 1.478 . S
C419 H413 0.930 . S
C419 C415 1.400 . S
C419 C418 1.385 . S
C420 C418 1.478 . S
C420 C422 1.381 . S
C420 C426 1.383 . S
C421 C417 1.495 . S
C421 H427 0.959 . S
C421 H428 0.961 . S
C421 H429 0.960 . S
C422 C420 1.381 . S
C422 C423 1.394 . S
C422 H430 0.930 . S
C423 C422 1.394 . S
C423 C424 1.383 . S
C423 H431 0.929 . S
C424 C423 1.383 . S
C424 C425 1.377 . S
C425 H409 0.930 . S
C425 C424 1.377 . S
C425 C426 1.379 . S
C426 H410 0.931 . S
C426 C420 1.383 . S
C426 C425 1.379 . S
H427 C421 0.959 . S
H428 C421 0.961 . S
H429 C421 0.960 . S
H430 C422 0.930 . S
H431 C423 0.929 . S
H432 C440 0.929 . S
H433 C442 0.930 . S
H434 C444 0.930 . S
H435 C447 0.929 . S
H436 C450 0.930 . S
H437 C452 0.960 . S
H438 C452 0.960 . S
H439 C452 0.960 . S
C440 H432 0.929 . S
C440 C441 1.377 . S
C440 C442 1.384 . S
C441 C440 1.377 . S
C441 C447 1.390 . S
C442 H433 0.930 . S
C442 C440 1.384 . S
C442 C443 1.372 . S
C443 C442 1.372 . S
C443 C444 1.400 . S
C443 C448 1.490 . S
C444 H434 0.930 . S
C444 C443 1.400 . S
C444 C447 1.386 . S
H445 C461 0.930 . S
H446 C462 0.931 . S
C447 H435 0.929 . S
C447 C441 1.390 . S
C447 C444 1.386 . S
C448 C443 1.490 . S
C448 C450 1.395 1_655 S
C448 C451 1.403 . S
H449 C455 0.930 . S
C450 H436 0.930 . S
C450 C448 1.395 1_455 S
C450 C453 1.403 . S
C451 C448 1.403 . S
C451 C452 1.524 . S
C451 C455 1.400 . S
C452 H437 0.960 . S
C452 H438 0.960 . S
C452 H439 0.960 . S
C452 C451 1.524 . S
C453 C450 1.403 . S
C453 C454 1.392 . S
C453 C457 1.495 . S
C454 C453 1.392 . S
C454 C455 1.385 1_455 S
C454 C456 1.478 . S
C455 H449 0.930 . S
C455 C451 1.400 . S
C455 C454 1.385 1_655 S
C456 C454 1.478 . S
C456 C458 1.381 . S
C456 C462 1.383 . S
C457 C453 1.495 . S
C457 H463 0.959 . S
C457 H464 0.961 . S
C457 H465 0.960 . S
C458 C456 1.381 . S
C458 C459 1.394 . S
C458 H466 0.930 . S
C459 C458 1.394 . S
C459 C460 1.383 . S
C459 H467 0.929 . S
C460 C459 1.383 . S
C460 C461 1.377 . S
C461 H445 0.930 . S
C461 C460 1.377 . S
C461 C462 1.379 . S
C462 H446 0.931 . S
C462 C456 1.383 . S
C462 C461 1.379 . S
H463 C457 0.959 . S
H464 C457 0.961 . S
H465 C457 0.960 . S
H466 C458 0.930 . S
H467 C459 0.929 . S
H468 C476 0.929 . S
H469 C478 0.930 . S
H470 C480 0.930 1_565 S
H471 C483 0.929 . S
H472 C486 0.930 . S
H473 C488 0.960 . S
H474 C488 0.960 1_545 S
H475 C488 0.960 . S
C476 H468 0.929 . S
C476 C477 1.377 . S
C476 C478 1.384 . S
C477 C476 1.377 . S
C477 C483 1.390 . S
C478 H469 0.930 . S
C478 C476 1.384 . S
C478 C479 1.372 . S
C479 C478 1.372 . S
C479 C480 1.400 . S
C479 C484 1.490 . S
C480 H470 0.930 1_545 S
C480 C479 1.400 . S
C480 C483 1.386 . S
H481 C497 0.930 . S
H482 C498 0.931 . S
C483 H471 0.929 . S
C483 C477 1.390 . S
C483 C480 1.386 . S
C484 C479 1.490 . S
C484 C486 1.395 . S
C484 C487 1.403 1_545 S
H485 C491 0.930 . S
C486 H472 0.930 . S
C486 C484 1.395 . S
C486 C489 1.403 . S
C487 C484 1.403 1_565 S
C487 C488 1.524 . S
C487 C491 1.400 . S
C488 H473 0.960 . S
C488 H474 0.960 1_565 S
C488 H475 0.960 . S
C488 C487 1.524 . S
C489 C486 1.403 . S
C489 C490 1.392 1_545 S
C489 C493 1.495 . S
C490 C489 1.392 1_565 S
C490 C491 1.385 . S
C490 C492 1.478 . S
C491 H485 0.930 . S
C491 C487 1.400 . S
C491 C490 1.385 . S
C492 C490 1.478 . S
C492 C494 1.381 . S
C492 C498 1.383 . S
C493 C489 1.495 . S
C493 H499 0.959 . S
C493 H500 0.961 . S
C493 H501 0.960 . S
C494 C492 1.381 . S
C494 C495 1.394 . S
C494 H502 0.930 1_565 S
C495 C494 1.394 . S
C495 C496 1.383 . S
C495 H503 0.929 . S
C496 C495 1.383 . S
C496 C497 1.377 . S
C497 H481 0.930 . S
C497 C496 1.377 . S
C497 C498 1.379 . S
C498 H482 0.931 . S
C498 C492 1.383 . S
C498 C497 1.379 . S
H499 C493 0.959 . S
H500 C493 0.961 . S
H501 C493 0.960 . S
H502 C494 0.930 1_545 S
H503 C495 0.929 . S
H504 C512 0.929 . S
H505 C514 0.930 . S
H506 C516 0.930 . S
H507 C519 0.929 . S
H508 C522 0.930 . S
H509 C524 0.960 . S
H510 C524 0.960 . S
H511 C524 0.960 . S
C512 H504 0.929 . S
C512 C513 1.377 . S
C512 C514 1.384 . S
C513 C512 1.377 . S
C513 C519 1.390 . S
C514 H505 0.930 . S
C514 C512 1.384 . S
C514 C515 1.372 . S
C515 C514 1.372 . S
C515 C516 1.400 . S
C515 C520 1.490 . S
C516 H506 0.930 . S
C516 C515 1.400 . S
C516 C519 1.386 . S
H517 C533 0.930 . S
H518 C534 0.931 . S
C519 H507 0.929 . S
C519 C513 1.390 . S
C519 C516 1.386 . S
C520 C515 1.490 . S
C520 C522 1.395 . S
C520 C523 1.403 . S
H521 C527 0.930 . S
C522 H508 0.930 . S
C522 C520 1.395 . S
C522 C525 1.403 . S
C523 C520 1.403 . S
C523 C524 1.524 . S
C523 C527 1.400 . S
C524 H509 0.960 . S
C524 H510 0.960 . S
C524 H511 0.960 . S
C524 C523 1.524 . S
C525 C522 1.403 . S
C525 C526 1.392 . S
C525 C529 1.495 . S
C526 C525 1.392 . S
C526 C527 1.385 . S
C526 C528 1.478 . S
C527 H521 0.930 . S
C527 C523 1.400 . S
C527 C526 1.385 . S
C528 C526 1.478 . S
C528 C530 1.381 . S
C528 C534 1.383 . S
C529 C525 1.495 . S
C529 H535 0.959 . S
C529 H536 0.961 . S
C529 H537 0.960 . S
C530 C528 1.381 . S
C530 C531 1.394 . S
C530 H538 0.930 . S
C531 C530 1.394 . S
C531 C532 1.383 . S
C531 H539 0.929 . S
C532 C531 1.383 . S
C532 C533 1.377 . S
C533 H517 0.930 . S
C533 C532 1.377 . S
C533 C534 1.379 . S
C534 H518 0.931 . S
C534 C528 1.383 . S
C534 C533 1.379 . S
H535 C529 0.959 . S
H536 C529 0.961 . S
H537 C529 0.960 . S
H538 C530 0.930 . S
H539 C531 0.929 . S
H540 C548 0.929 . S
H541 C550 0.930 . S
H542 C552 0.930 . S
H543 C555 0.929 . S
H544 C558 0.930 . S
H545 C560 0.960 . S
H546 C560 0.960 . S
H547 C560 0.960 . S
C548 H540 0.929 . S
C548 C549 1.377 . S
C548 C550 1.384 . S
C549 C548 1.377 . S
C549 C555 1.390 . S
C550 H541 0.930 . S
C550 C548 1.384 . S
C550 C551 1.372 . S
C551 C550 1.372 . S
C551 C552 1.400 . S
C551 C556 1.490 . S
C552 H542 0.930 . S
C552 C551 1.400 . S
C552 C555 1.386 . S
H553 C569 0.930 . S
H554 C570 0.931 . S
C555 H543 0.929 . S
C555 C549 1.390 . S
C555 C552 1.386 . S
C556 C551 1.490 . S
C556 C558 1.395 1_455 S
C556 C559 1.403 . S
H557 C563 0.930 . S
C558 H544 0.930 . S
C558 C556 1.395 1_655 S
C558 C561 1.403 . S
C559 C556 1.403 . S
C559 C560 1.524 . S
C559 C563 1.400 . S
C560 H545 0.960 . S
C560 H546 0.960 . S
C560 H547 0.960 . S
C560 C559 1.524 . S
C561 C558 1.403 . S
C561 C562 1.392 . S
C561 C565 1.495 . S
C562 C561 1.392 . S
C562 C563 1.385 1_655 S
C562 C564 1.478 . S
C563 H557 0.930 . S
C563 C559 1.400 . S
C563 C562 1.385 1_455 S
C564 C562 1.478 . S
C564 C566 1.381 . S
C564 C570 1.383 . S
C565 C561 1.495 . S
C565 H571 0.959 . S
C565 H572 0.961 . S
C565 H573 0.960 . S
C566 C564 1.381 . S
C566 C567 1.394 . S
C566 H574 0.930 . S
C567 C566 1.394 . S
C567 C568 1.383 . S
C567 H575 0.929 . S
C568 C567 1.383 . S
C568 C569 1.377 . S
C569 H553 0.930 . S
C569 C568 1.377 . S
C569 C570 1.379 . S
C570 H554 0.931 . S
C570 C564 1.383 . S
C570 C569 1.379 . S
H571 C565 0.959 . S
H572 C565 0.961 . S
H573 C565 0.960 . S
H574 C566 0.930 . S
H575 C567 0.929 . S
H576 C584 0.929 . S
H577 C586 0.930 . S
H578 C588 0.930 . S
H579 C591 0.929 . S
H580 C594 0.930 . S
H581 C596 0.960 . S
H582 C596 0.960 . S
H583 C596 0.960 . S
C584 H576 0.929 . S
C584 C585 1.377 . S
C584 C586 1.384 . S
C585 C584 1.377 . S
C585 C591 1.390 . S
C586 H577 0.930 . S
C586 C584 1.384 . S
C586 C587 1.372 . S
C587 C586 1.372 . S
C587 C588 1.400 . S
C587 C592 1.490 . S
C588 H578 0.930 . S
C588 C587 1.400 . S
C588 C591 1.386 . S
H589 C605 0.930 . S
H590 C606 0.931 . S
C591 H579 0.929 . S
C591 C585 1.390 . S
C591 C588 1.386 . S
C592 C587 1.490 . S
C592 C594 1.395 1_565 S
C592 C595 1.403 . S
H593 C599 0.930 . S
C594 H580 0.930 . S
C594 C592 1.395 1_545 S
C594 C597 1.403 . S
C595 C592 1.403 . S
C595 C596 1.524 . S
C595 C599 1.400 . S
C596 H581 0.960 . S
C596 H582 0.960 . S
C596 H583 0.960 . S
C596 C595 1.524 . S
C597 C594 1.403 . S
C597 C598 1.392 . S
C597 C601 1.495 . S
C598 C597 1.392 . S
C598 C599 1.385 1_545 S
C598 C600 1.478 . S
C599 H593 0.930 . S
C599 C595 1.400 . S
C599 C598 1.385 1_565 S
C600 C598 1.478 . S
C600 C602 1.381 . S
C600 C606 1.383 . S
C601 C597 1.495 . S
C601 H607 0.959 . S
C601 H608 0.961 . S
C601 H609 0.960 . S
C602 C600 1.381 . S
C602 C603 1.394 . S
C602 H610 0.930 . S
C603 C602 1.394 . S
C603 C604 1.383 . S
C603 H611 0.929 . S
C604 C603 1.383 . S
C604 C605 1.377 . S
C605 H589 0.930 . S
C605 C604 1.377 . S
C605 C606 1.379 . S
C606 H590 0.931 . S
C606 C600 1.383 . S
C606 C605 1.379 . S
H607 C601 0.959 . S
H608 C601 0.961 . S
H609 C601 0.960 . S
H610 C602 0.930 . S
H611 C603 0.929 . S
H612 C620 0.929 . S
H613 C622 0.930 . S
H614 C624 0.930 . S
H615 C627 0.929 . S
H616 C630 0.930 . S
H617 C632 0.960 . S
H618 C632 0.960 . S
H619 C632 0.960 . S
C620 H612 0.929 . S
C620 C621 1.377 . S
C620 C622 1.384 . S
C621 C620 1.377 . S
C621 C627 1.390 . S
C622 H613 0.930 . S
C622 C620 1.384 . S
C622 C623 1.372 . S
C623 C622 1.372 . S
C623 C624 1.400 . S
C623 C628 1.490 . S
C624 H614 0.930 . S
C624 C623 1.400 . S
C624 C627 1.386 . S
H625 C641 0.930 . S
H626 C642 0.931 . S
C627 H615 0.929 . S
C627 C621 1.390 . S
C627 C624 1.386 . S
C628 C623 1.490 . S
C628 C630 1.395 . S
C628 C631 1.403 . S
H629 C635 0.930 . S
C630 H616 0.930 . S
C630 C628 1.395 . S
C630 C633 1.403 1_554 S
C631 C628 1.403 . S
C631 C632 1.524 . S
C631 C635 1.400 1_554 S
C632 H617 0.960 . S
C632 H618 0.960 . S
C632 H619 0.960 . S
C632 C631 1.524 . S
C633 C630 1.403 1_556 S
C633 C634 1.392 . S
C633 C637 1.495 . S
C634 C633 1.392 . S
C634 C635 1.385 . S
C634 C636 1.478 . S
C635 H629 0.930 . S
C635 C631 1.400 1_556 S
C635 C634 1.385 . S
C636 C634 1.478 . S
C636 C638 1.381 . S
C636 C642 1.383 . S
C637 C633 1.495 . S
C637 H643 0.959 . S
C637 H644 0.961 . S
C637 H645 0.960 . S
C638 C636 1.381 . S
C638 C639 1.394 . S
C638 H646 0.930 . S
C639 C638 1.394 . S
C639 C640 1.383 . S
C639 H647 0.929 . S
C640 C639 1.383 . S
C640 C641 1.377 . S
C641 H625 0.930 . S
C641 C640 1.377 . S
C641 C642 1.379 . S
C642 H626 0.931 . S
C642 C636 1.383 . S
C642 C641 1.379 . S
H643 C637 0.959 . S
H644 C637 0.961 . S
H645 C637 0.960 . S
H646 C638 0.930 . S
H647 C639 0.929 . S
H648 C656 0.929 . S
H649 C658 0.930 . S
H650 C660 0.930 . S
H651 C663 0.929 . S
H652 C666 0.930 . S
H653 C668 0.960 . S
H654 C668 0.960 . S
H655 C668 0.960 . S
C656 H648 0.929 . S
C656 C657 1.377 . S
C656 C658 1.384 . S
C657 C656 1.377 . S
C657 C663 1.390 . S
C658 H649 0.930 . S
C658 C656 1.384 . S
C658 C659 1.372 . S
C659 C658 1.372 . S
C659 C660 1.400 . S
C659 C664 1.490 . S
C660 H650 0.930 . S
C660 C659 1.400 . S
C660 C663 1.386 . S
H661 C677 0.930 . S
H662 C678 0.931 . S
C663 H651 0.929 . S
C663 C657 1.390 . S
C663 C660 1.386 . S
C664 C659 1.490 . S
C664 C666 1.395 . S
C664 C667 1.403 . S
H665 C671 0.930 . S
C666 H652 0.930 . S
C666 C664 1.395 . S
C666 C669 1.403 . S
C667 C664 1.403 . S
C667 C668 1.524 . S
C667 C671 1.400 . S
C668 H653 0.960 . S
C668 H654 0.960 . S
C668 H655 0.960 . S
C668 C667 1.524 . S
C669 C666 1.403 . S
C669 C670 1.392 . S
C669 C673 1.495 . S
C670 C669 1.392 . S
C670 C671 1.385 . S
C670 C672 1.478 . S
C671 H665 0.930 . S
C671 C667 1.400 . S
C671 C670 1.385 . S
C672 C670 1.478 . S
C672 C674 1.381 . S
C672 C678 1.383 . S
C673 C669 1.495 . S
C673 H679 0.959 . S
C673 H680 0.961 . S
C673 H681 0.960 . S
C674 C672 1.381 . S
C674 C675 1.394 . S
C674 H682 0.930 . S
C675 C674 1.394 . S
C675 C676 1.383 . S
C675 H683 0.929 . S
C676 C675 1.383 . S
C676 C677 1.377 . S
C677 H661 0.930 . S
C677 C676 1.377 . S
C677 C678 1.379 . S
C678 H662 0.931 . S
C678 C672 1.383 . S
C678 C677 1.379 . S
H679 C673 0.959 . S
H680 C673 0.961 . S
H681 C673 0.960 . S
H682 C674 0.930 . S
H683 C675 0.929 . S
H684 C692 0.929 . S
H685 C694 0.930 . S
H686 C696 0.930 . S
H687 C699 0.929 . S
H688 C702 0.930 . S
H689 C704 0.960 . S
H690 C704 0.960 . S
H691 C704 0.960 . S
C692 H684 0.929 . S
C692 C693 1.377 . S
C692 C694 1.384 . S
C693 C692 1.377 . S
C693 C699 1.390 . S
C694 H685 0.930 . S
C694 C692 1.384 . S
C694 C695 1.372 . S
C695 C694 1.372 . S
C695 C696 1.400 . S
C695 C700 1.490 . S
C696 H686 0.930 . S
C696 C695 1.400 . S
C696 C699 1.386 . S
H697 C713 0.930 . S
H698 C714 0.931 . S
C699 H687 0.929 . S
C699 C693 1.390 . S
C699 C696 1.386 . S
C700 C695 1.490 . S
C700 C702 1.395 . S
C700 C703 1.403 . S
H701 C707 0.930 . S
C702 H688 0.930 . S
C702 C700 1.395 . S
C702 C705 1.403 . S
C703 C700 1.403 . S
C703 C704 1.524 . S
C703 C707 1.400 . S
C704 H689 0.960 . S
C704 H690 0.960 . S
C704 H691 0.960 . S
C704 C703 1.524 . S
C705 C702 1.403 . S
C705 C706 1.392 . S
C705 C709 1.495 . S
C706 C705 1.392 . S
C706 C707 1.385 . S
C706 C708 1.478 . S
C707 H701 0.930 . S
C707 C703 1.400 . S
C707 C706 1.385 . S
C708 C706 1.478 . S
C708 C710 1.381 . S
C708 C714 1.383 . S
C709 C705 1.495 . S
C709 H715 0.959 . S
C709 H716 0.961 . S
C709 H717 0.960 . S
C710 C708 1.381 . S
C710 C711 1.394 . S
C710 H718 0.930 . S
C711 C710 1.394 . S
C711 C712 1.383 . S
C711 H719 0.929 . S
C712 C711 1.383 . S
C712 C713 1.377 . S
C713 H697 0.930 . S
C713 C712 1.377 . S
C713 C714 1.379 . S
C714 H698 0.931 . S
C714 C708 1.383 . S
C714 C713 1.379 . S
H715 C709 0.959 . S
H716 C709 0.961 . S
H717 C709 0.960 . S
H718 C710 0.930 . S
H719 C711 0.929 . S
H720 C728 0.929 . S
H721 C730 0.930 . S
H722 C732 0.930 . S
H723 C735 0.929 . S
H724 C738 0.930 . S
H725 C740 0.960 . S
H726 C740 0.960 . S
H727 C740 0.960 . S
C728 H720 0.929 . S
C728 C729 1.377 . S
C728 C730 1.384 . S
C729 C728 1.377 . S
C729 C735 1.390 . S
C730 H721 0.930 . S
C730 C728 1.384 . S
C730 C731 1.372 . S
C731 C730 1.372 . S
C731 C732 1.400 . S
C731 C736 1.490 . S
C732 H722 0.930 . S
C732 C731 1.400 . S
C732 C735 1.386 . S
H733 C749 0.930 . S
H734 C750 0.931 . S
C735 H723 0.929 . S
C735 C729 1.390 . S
C735 C732 1.386 . S
C736 C731 1.490 . S
C736 C738 1.395 . S
C736 C739 1.403 . S
H737 C743 0.930 . S
C738 H724 0.930 . S
C738 C736 1.395 . S
C738 C741 1.403 1_554 S
C739 C736 1.403 . S
C739 C740 1.524 . S
C739 C743 1.400 1_554 S
C740 H725 0.960 . S
C740 H726 0.960 . S
C740 H727 0.960 . S
C740 C739 1.524 . S
C741 C738 1.403 1_556 S
C741 C742 1.392 . S
C741 C745 1.495 . S
C742 C741 1.392 . S
C742 C743 1.385 . S
C742 C744 1.478 . S
C743 H737 0.930 . S
C743 C739 1.400 1_556 S
C743 C742 1.385 . S
C744 C742 1.478 . S
C744 C746 1.381 . S
C744 C750 1.383 . S
C745 C741 1.495 . S
C745 H751 0.959 . S
C745 H752 0.961 . S
C745 H753 0.960 . S
C746 C744 1.381 . S
C746 C747 1.394 . S
C746 H754 0.930 . S
C747 C746 1.394 . S
C747 C748 1.383 . S
C747 H755 0.929 . S
C748 C747 1.383 . S
C748 C749 1.377 . S
C749 H733 0.930 . S
C749 C748 1.377 . S
C749 C750 1.379 . S
C750 H734 0.931 . S
C750 C744 1.383 . S
C750 C749 1.379 . S
H751 C745 0.959 . S
H752 C745 0.961 . S
H753 C745 0.960 . S
H754 C746 0.930 . S
H755 C747 0.929 . S
H756 C764 0.929 . S
H757 C766 0.930 . S
H758 C768 0.930 . S
H759 C771 0.929 . S
H760 C774 0.930 . S
H761 C776 0.960 . S
H762 C776 0.960 . S
H763 C776 0.960 . S
C764 H756 0.929 . S
C764 C765 1.377 . S
C764 C766 1.384 . S
C765 C764 1.377 . S
C765 C771 1.390 . S
C766 H757 0.930 . S
C766 C764 1.384 . S
C766 C767 1.372 . S
C767 C766 1.372 . S
C767 C768 1.400 . S
C767 C772 1.490 . S
C768 H758 0.930 . S
C768 C767 1.400 . S
C768 C771 1.386 . S
H769 C785 0.930 . S
H770 C786 0.931 . S
C771 H759 0.929 . S
C771 C765 1.390 . S
C771 C768 1.386 . S
C772 C767 1.490 . S
C772 C774 1.395 . S
C772 C775 1.403 . S
H773 C779 0.930 . S
C774 H760 0.930 . S
C774 C772 1.395 . S
C774 C777 1.403 . S
C775 C772 1.403 . S
C775 C776 1.524 . S
C775 C779 1.400 . S
C776 H761 0.960 . S
C776 H762 0.960 . S
C776 H763 0.960 . S
C776 C775 1.524 . S
C777 C774 1.403 . S
C777 C778 1.392 . S
C777 C781 1.495 . S
C778 C777 1.392 . S
C778 C779 1.385 . S
C778 C780 1.478 . S
C779 H773 0.930 . S
C779 C775 1.400 . S
C779 C778 1.385 . S
C780 C778 1.478 . S
C780 C782 1.381 . S
C780 C786 1.383 . S
C781 C777 1.495 . S
C781 H787 0.959 . S
C781 H788 0.961 . S
C781 H789 0.960 . S
C782 C780 1.381 . S
C782 C783 1.394 . S
C782 H790 0.930 . S
C783 C782 1.394 . S
C783 C784 1.383 . S
C783 H791 0.929 . S
C784 C783 1.383 . S
C784 C785 1.377 . S
C785 H769 0.930 . S
C785 C784 1.377 . S
C785 C786 1.379 . S
C786 H770 0.931 . S
C786 C780 1.383 . S
C786 C785 1.379 . S
H787 C781 0.959 . S
H788 C781 0.961 . S
H789 C781 0.960 . S
H790 C782 0.930 . S
H791 C783 0.929 . S
H792 C800 0.929 . S
H793 C802 0.930 . S
H794 C804 0.930 . S
H795 C807 0.929 . S
H796 C810 0.930 . S
H797 C812 0.960 . S
H798 C812 0.960 . S
H799 C812 0.960 . S
C800 H792 0.929 . S
C800 C801 1.377 . S
C800 C802 1.384 . S
C801 C800 1.377 . S
C801 C807 1.390 . S
C802 H793 0.930 . S
C802 C800 1.384 . S
C802 C803 1.372 . S
C803 C802 1.372 . S
C803 C804 1.400 . S
C803 C808 1.490 . S
C804 H794 0.930 . S
C804 C803 1.400 . S
C804 C807 1.386 . S
H805 C821 0.930 . S
H806 C822 0.931 . S
C807 H795 0.929 . S
C807 C801 1.390 . S
C807 C804 1.386 . S
C808 C803 1.490 . S
C808 C810 1.395 . S
C808 C811 1.403 . S
H809 C815 0.930 . S
C810 H796 0.930 . S
C810 C808 1.395 . S
C810 C813 1.403 . S
C811 C808 1.403 . S
C811 C812 1.524 . S
C811 C815 1.400 . S
C812 H797 0.960 . S
C812 H798 0.960 . S
C812 H799 0.960 . S
C812 C811 1.524 . S
C813 C810 1.403 . S
C813 C814 1.392 . S
C813 C817 1.495 . S
C814 C813 1.392 . S
C814 C815 1.385 . S
C814 C816 1.478 . S
C815 H809 0.930 . S
C815 C811 1.400 . S
C815 C814 1.385 . S
C816 C814 1.478 . S
C816 C818 1.381 . S
C816 C822 1.383 . S
C817 C813 1.495 . S
C817 H823 0.959 . S
C817 H824 0.961 . S
C817 H825 0.960 . S
C818 C816 1.381 . S
C818 C819 1.394 . S
C818 H826 0.930 . S
C819 C818 1.394 . S
C819 C820 1.383 . S
C819 H827 0.929 . S
C820 C819 1.383 . S
C820 C821 1.377 . S
C821 H805 0.930 . S
C821 C820 1.377 . S
C821 C822 1.379 . S
C822 H806 0.931 . S
C822 C816 1.383 . S
C822 C821 1.379 . S
H823 C817 0.959 . S
H824 C817 0.961 . S
H825 C817 0.960 . S
H826 C818 0.930 . S
H827 C819 0.929 . S
H828 C836 0.929 . S
H829 C838 0.930 . S
H830 C840 0.930 . S
H831 C843 0.929 . S
H832 C846 0.930 . S
H833 C848 0.960 . S
H834 C848 0.960 . S
H835 C848 0.960 . S
C836 H828 0.929 . S
C836 C837 1.377 . S
C836 C838 1.384 . S
C837 C836 1.377 . S
C837 C843 1.390 . S
C838 H829 0.930 . S
C838 C836 1.384 . S
C838 C839 1.372 . S
C839 C838 1.372 . S
C839 C840 1.400 . S
C839 C844 1.490 . S
C840 H830 0.930 . S
C840 C839 1.400 . S
C840 C843 1.386 . S
H841 C857 0.930 . S
H842 C858 0.931 . S
C843 H831 0.929 . S
C843 C837 1.390 . S
C843 C840 1.386 . S
C844 C839 1.490 . S
C844 C846 1.395 . S
C844 C847 1.403 . S
H845 C851 0.930 . S
C846 H832 0.930 . S
C846 C844 1.395 . S
C846 C849 1.403 . S
C847 C844 1.403 . S
C847 C848 1.524 . S
C847 C851 1.400 . S
C848 H833 0.960 . S
C848 H834 0.960 . S
C848 H835 0.960 . S
C848 C847 1.524 . S
C849 C846 1.403 . S
C849 C850 1.392 . S
C849 C853 1.495 . S
C850 C849 1.392 . S
C850 C851 1.385 . S
C850 C852 1.478 . S
C851 H845 0.930 . S
C851 C847 1.400 . S
C851 C850 1.385 . S
C852 C850 1.478 . S
C852 C854 1.381 . S
C852 C858 1.383 . S
C853 C849 1.495 . S
C853 H859 0.959 . S
C853 H860 0.961 . S
C853 H861 0.960 . S
C854 C852 1.381 . S
C854 C855 1.394 . S
C854 H862 0.930 . S
C855 C854 1.394 . S
C855 C856 1.383 . S
C855 H863 0.929 . S
C856 C855 1.383 . S
C856 C857 1.377 . S
C857 H841 0.930 . S
C857 C856 1.377 . S
C857 C858 1.379 . S
C858 H842 0.931 . S
C858 C852 1.383 . S
C858 C857 1.379 . S
H859 C853 0.959 . S
H860 C853 0.961 . S
H861 C853 0.960 . S
H862 C854 0.930 . S
H863 C855 0.929 . S
H864 C872 0.929 . S
H865 C874 0.930 . S
H866 C876 0.930 . S
H867 C879 0.929 . S
H868 C882 0.930 . S
H869 C884 0.960 . S
H870 C884 0.960 . S
H871 C884 0.960 . S
C872 H864 0.929 . S
C872 C873 1.377 . S
C872 C874 1.384 . S
C873 C872 1.377 . S
C873 C879 1.390 . S
C874 H865 0.930 . S
C874 C872 1.384 . S
C874 C875 1.372 . S
C875 C874 1.372 . S
C875 C876 1.400 . S
C875 C880 1.490 . S
C876 H866 0.930 . S
C876 C875 1.400 . S
C876 C879 1.386 . S
H877 C893 0.930 . S
H878 C894 0.931 . S
C879 H867 0.929 . S
C879 C873 1.390 . S
C879 C876 1.386 . S
C880 C875 1.490 . S
C880 C882 1.395 . S
C880 C883 1.403 1_655 S
H881 C887 0.930 . S
C882 H868 0.930 . S
C882 C880 1.395 . S
C882 C885 1.403 . S
C883 C880 1.403 1_455 S
C883 C884 1.524 . S
C883 C887 1.400 . S
C884 H869 0.960 . S
C884 H870 0.960 . S
C884 H871 0.960 . S
C884 C883 1.524 . S
C885 C882 1.403 . S
C885 C886 1.392 1_655 S
C885 C889 1.495 . S
C886 C885 1.392 1_455 S
C886 C887 1.385 . S
C886 C888 1.478 . S
C887 H881 0.930 . S
C887 C883 1.400 . S
C887 C886 1.385 . S
C888 C886 1.478 . S
C888 C890 1.381 . S
C888 C894 1.383 . S
C889 C885 1.495 . S
C889 H895 0.959 . S
C889 H896 0.961 . S
C889 H897 0.960 . S
C890 C888 1.381 . S
C890 C891 1.394 . S
C890 H898 0.930 . S
C891 C890 1.394 . S
C891 C892 1.383 . S
C891 H899 0.929 . S
C892 C891 1.383 . S
C892 C893 1.377 . S
C893 H877 0.930 . S
C893 C892 1.377 . S
C893 C894 1.379 . S
C894 H878 0.931 . S
C894 C888 1.383 . S
C894 C893 1.379 . S
H895 C889 0.959 . S
H896 C889 0.961 . S
H897 C889 0.960 . S
H898 C890 0.930 . S
H899 C891 0.929 . S
H900 C908 0.929 . S
H901 C910 0.930 . S
H902 C912 0.930 . S
H903 C915 0.929 . S
H904 C918 0.930 . S
H905 C920 0.960 . S
H906 C920 0.960 . S
H907 C920 0.960 . S
C908 H900 0.929 . S
C908 C909 1.377 . S
C908 C910 1.384 . S
C909 C908 1.377 . S
C909 C915 1.390 . S
C910 H901 0.930 . S
C910 C908 1.384 . S
C910 C911 1.372 . S
C911 C910 1.372 . S
C911 C912 1.400 . S
C911 C916 1.490 . S
C912 H902 0.930 . S
C912 C911 1.400 . S
C912 C915 1.386 . S
H913 C929 0.930 . S
H914 C930 0.931 . S
C915 H903 0.929 . S
C915 C909 1.390 . S
C915 C912 1.386 . S
C916 C911 1.490 . S
C916 C918 1.395 1_556 S
C916 C919 1.403 1_565 S
H917 C923 0.930 . S
C918 H904 0.930 . S
C918 C916 1.395 1_554 S
C918 C921 1.403 . S
C919 C916 1.403 1_545 S
C919 C920 1.524 . S
C919 C923 1.400 . S
C920 H905 0.960 . S
C920 H906 0.960 . S
C920 H907 0.960 . S
C920 C919 1.524 . S
C921 C918 1.403 . S
C921 C922 1.392 1_565 S
C921 C925 1.495 . S
C922 C921 1.392 1_545 S
C922 C923 1.385 1_554 S
C922 C924 1.478 . S
C923 H917 0.930 . S
C923 C919 1.400 . S
C923 C922 1.385 1_556 S
C924 C922 1.478 . S
C924 C926 1.381 . S
C924 C930 1.383 . S
C925 C921 1.495 . S
C925 H931 0.959 . S
C925 H932 0.961 . S
C925 H933 0.960 . S
C926 C924 1.381 . S
C926 C927 1.394 . S
C926 H934 0.930 . S
C927 C926 1.394 . S
C927 C928 1.383 . S
C927 H935 0.929 . S
C928 C927 1.383 . S
C928 C929 1.377 . S
C929 H913 0.930 . S
C929 C928 1.377 . S
C929 C930 1.379 . S
C930 H914 0.931 . S
C930 C924 1.383 . S
C930 C929 1.379 . S
H931 C925 0.959 . S
H932 C925 0.961 . S
H933 C925 0.960 . S
H934 C926 0.930 . S
H935 C927 0.929 . S
H936 C944 0.929 . S
H937 C946 0.930 . S
H938 C948 0.930 . S
H939 C951 0.929 . S
H940 C954 0.930 . S
H941 C956 0.960 . S
H942 C956 0.960 . S
H943 C956 0.960 . S
C944 H936 0.929 . S
C944 C945 1.377 . S
C944 C946 1.384 . S
C945 C944 1.377 . S
C945 C951 1.390 . S
C946 H937 0.930 . S
C946 C944 1.384 . S
C946 C947 1.372 . S
C947 C946 1.372 . S
C947 C948 1.400 . S
C947 C952 1.490 . S
C948 H938 0.930 . S
C948 C947 1.400 . S
C948 C951 1.386 . S
H949 C965 0.930 . S
H950 C966 0.931 . S
C951 H939 0.929 . S
C951 C945 1.390 . S
C951 C948 1.386 . S
C952 C947 1.490 . S
C952 C954 1.395 . S
C952 C955 1.403 . S
H953 C959 0.930 . S
C954 H940 0.930 . S
C954 C952 1.395 . S
C954 C957 1.403 . S
C955 C952 1.403 . S
C955 C956 1.524 . S
C955 C959 1.400 . S
C956 H941 0.960 . S
C956 H942 0.960 . S
C956 H943 0.960 . S
C956 C955 1.524 . S
C957 C954 1.403 . S
C957 C958 1.392 . S
C957 C961 1.495 . S
C958 C957 1.392 . S
C958 C959 1.385 . S
C958 C960 1.478 . S
C959 H953 0.930 . S
C959 C955 1.400 . S
C959 C958 1.385 . S
C960 C958 1.478 . S
C960 C962 1.381 . S
C960 C966 1.383 . S
C961 C957 1.495 . S
C961 H967 0.959 . S
C961 H968 0.961 . S
C961 H969 0.960 . S
C962 C960 1.381 . S
C962 C963 1.394 . S
C962 H970 0.930 . S
C963 C962 1.394 . S
C963 C964 1.383 . S
C963 H971 0.929 . S
C964 C963 1.383 . S
C964 C965 1.377 . S
C965 H949 0.930 . S
C965 C964 1.377 . S
C965 C966 1.379 . S
C966 H950 0.931 . S
C966 C960 1.383 . S
C966 C965 1.379 . S
H967 C961 0.959 . S
H968 C961 0.961 . S
H969 C961 0.960 . S
H970 C962 0.930 . S
H971 C963 0.929 . S
H972 C980 0.929 . S
H973 C982 0.930 . S
H974 C984 0.930 . S
H975 C987 0.929 . S
H976 C990 0.930 . S
H977 C992 0.960 . S
H978 C992 0.960 . S
H979 C992 0.960 . S
C980 H972 0.929 . S
C980 C981 1.377 . S
C980 C982 1.384 . S
C981 C980 1.377 . S
C981 C987 1.390 . S
C982 H973 0.930 . S
C982 C980 1.384 . S
C982 C983 1.372 . S
C983 C982 1.372 . S
C983 C984 1.400 . S
C983 C988 1.490 . S
C984 H974 0.930 . S
C984 C983 1.400 . S
C984 C987 1.386 . S
H985 C1001 0.930 . S
H986 C1002 0.931 . S
C987 H975 0.929 . S
C987 C981 1.390 . S
C987 C984 1.386 . S
C988 C983 1.490 . S
C988 C990 1.395 1_655 S
C988 C991 1.403 . S
H989 C995 0.930 . S
C990 H976 0.930 . S
C990 C988 1.395 1_455 S
C990 C993 1.403 . S
C991 C988 1.403 . S
C991 C992 1.524 . S
C991 C995 1.400 . S
C992 H977 0.960 . S
C992 H978 0.960 . S
C992 H979 0.960 . S
C992 C991 1.524 . S
C993 C990 1.403 . S
C993 C994 1.392 . S
C993 C997 1.495 . S
C994 C993 1.392 . S
C994 C995 1.385 1_455 S
C994 C996 1.478 . S
C995 H989 0.930 . S
C995 C991 1.400 . S
C995 C994 1.385 1_655 S
C996 C994 1.478 . S
C996 C998 1.381 . S
C996 C1002 1.383 . S
C997 C993 1.495 . S
C997 H1003 0.959 . S
C997 H1004 0.961 . S
C997 H1005 0.960 . S
C998 C996 1.381 . S
C998 C999 1.394 . S
C998 H1006 0.930 . S
C999 C998 1.394 . S
C999 C1000 1.383 . S
C999 H1007 0.929 . S
C1000 C999 1.383 . S
C1000 C1001 1.377 . S
C1001 H985 0.930 . S
C1001 C1000 1.377 . S
C1001 C1002 1.379 . S
C1002 H986 0.931 . S
C1002 C996 1.383 . S
C1002 C1001 1.379 . S
H1003 C997 0.959 . S
H1004 C997 0.961 . S
H1005 C997 0.960 . S
H1006 C998 0.930 . S
H1007 C999 0.929 . S
H1008 C1016 0.929 . S
H1009 C1018 0.930 . S
H1010 C1020 0.930 . S
H1011 C1023 0.929 . S
H1012 C1026 0.930 . S
H1013 C1028 0.960 1_556 S
H1014 C1028 0.960 . S
H1015 C1028 0.960 . S
C1016 H1008 0.929 . S
C1016 C1017 1.377 . S
C1016 C1018 1.384 . S
C1017 C1016 1.377 . S
C1017 C1023 1.390 . S
C1018 H1009 0.930 . S
C1018 C1016 1.384 . S
C1018 C1019 1.372 . S
C1019 C1018 1.372 . S
C1019 C1020 1.400 . S
C1019 C1024 1.490 . S
C1020 H1010 0.930 . S
C1020 C1019 1.400 . S
C1020 C1023 1.386 . S
H1021 C1037 0.930 . S
H1022 C1038 0.931 . S
C1023 H1011 0.929 . S
C1023 C1017 1.390 . S
C1023 C1020 1.386 . S
C1024 C1019 1.490 . S
C1024 C1026 1.395 . S
C1024 C1027 1.403 . S
H1025 C1031 0.930 . S
C1026 H1012 0.930 . S
C1026 C1024 1.395 . S
C1026 C1029 1.403 1_564 S
C1027 C1024 1.403 . S
C1027 C1028 1.524 . S
C1027 C1031 1.400 1_564 S
C1028 H1013 0.960 1_554 S
C1028 H1014 0.960 . S
C1028 H1015 0.960 . S
C1028 C1027 1.524 . S
C1029 C1026 1.403 1_546 S
C1029 C1030 1.392 . S
C1029 C1033 1.495 . S
C1030 C1029 1.392 . S
C1030 C1031 1.385 . S
C1030 C1032 1.478 . S
C1031 H1025 0.930 . S
C1031 C1027 1.400 1_546 S
C1031 C1030 1.385 . S
C1032 C1030 1.478 . S
C1032 C1034 1.381 . S
C1032 C1038 1.383 . S
C1033 C1029 1.495 . S
C1033 H1039 0.959 1_556 S
C1033 H1040 0.961 . S
C1033 H1041 0.960 . S
C1034 C1032 1.381 . S
C1034 C1035 1.394 . S
C1034 H1042 0.930 . S
C1035 C1034 1.394 . S
C1035 C1036 1.383 . S
C1035 H1043 0.929 . S
C1036 C1035 1.383 . S
C1036 C1037 1.377 . S
C1037 H1021 0.930 . S
C1037 C1036 1.377 . S
C1037 C1038 1.379 . S
C1038 H1022 0.931 . S
C1038 C1032 1.383 . S
C1038 C1037 1.379 . S
H1039 C1033 0.959 1_554 S
H1040 C1033 0.961 . S
H1041 C1033 0.960 . S
H1042 C1034 0.930 . S
H1043 C1035 0.929 . S
H1044 C1052 0.929 . S
H1045 C1054 0.930 . S
H1046 C1056 0.930 . S
H1047 C1059 0.929 . S
H1048 C1062 0.930 . S
H1049 C1064 0.960 . S
H1050 C1064 0.960 . S
H1051 C1064 0.960 . S
C1052 H1044 0.929 . S
C1052 C1053 1.377 . S
C1052 C1054 1.384 . S
C1053 C1052 1.377 . S
C1053 C1059 1.390 . S
C1054 H1045 0.930 . S
C1054 C1052 1.384 . S
C1054 C1055 1.372 . S
C1055 C1054 1.372 . S
C1055 C1056 1.400 . S
C1055 C1060 1.490 . S
C1056 H1046 0.930 . S
C1056 C1055 1.400 . S
C1056 C1059 1.386 . S
H1057 C1073 0.930 . S
H1058 C1074 0.931 . S
C1059 H1047 0.929 . S
C1059 C1053 1.390 . S
C1059 C1056 1.386 . S
C1060 C1055 1.490 . S
C1060 C1062 1.395 . S
C1060 C1063 1.403 . S
H1061 C1067 0.930 . S
C1062 H1048 0.930 . S
C1062 C1060 1.395 . S
C1062 C1065 1.403 . S
C1063 C1060 1.403 . S
C1063 C1064 1.524 . S
C1063 C1067 1.400 . S
C1064 H1049 0.960 . S
C1064 H1050 0.960 . S
C1064 H1051 0.960 . S
C1064 C1063 1.524 . S
C1065 C1062 1.403 . S
C1065 C1066 1.392 . S
C1065 C1069 1.495 . S
C1066 C1065 1.392 . S
C1066 C1067 1.385 . S
C1066 C1068 1.478 . S
C1067 H1061 0.930 . S
C1067 C1063 1.400 . S
C1067 C1066 1.385 . S
C1068 C1066 1.478 . S
C1068 C1070 1.381 . S
C1068 C1074 1.383 . S
C1069 C1065 1.495 . S
C1069 H1075 0.959 . S
C1069 H1076 0.961 . S
C1069 H1077 0.960 . S
C1070 C1068 1.381 . S
C1070 C1071 1.394 . S
C1070 H1078 0.930 . S
C1071 C1070 1.394 . S
C1071 C1072 1.383 . S
C1071 H1079 0.929 . S
C1072 C1071 1.383 . S
C1072 C1073 1.377 . S
C1073 H1057 0.930 . S
C1073 C1072 1.377 . S
C1073 C1074 1.379 . S
C1074 H1058 0.931 . S
C1074 C1068 1.383 . S
C1074 C1073 1.379 . S
H1075 C1069 0.959 . S
H1076 C1069 0.961 . S
H1077 C1069 0.960 . S
H1078 C1070 0.930 . S
H1079 C1071 0.929 . S
H1080 C1088 0.929 . S
H1081 C1090 0.930 . S
H1082 C1092 0.930 . S
H1083 C1095 0.929 . S
H1084 C1098 0.930 . S
H1085 C1100 0.960 . S
H1086 C1100 0.960 . S
H1087 C1100 0.960 . S
C1088 H1080 0.929 . S
C1088 C1089 1.377 . S
C1088 C1090 1.384 . S
C1089 C1088 1.377 . S
C1089 C1095 1.390 . S
C1090 H1081 0.930 . S
C1090 C1088 1.384 . S
C1090 C1091 1.372 . S
C1091 C1090 1.372 . S
C1091 C1092 1.400 . S
C1091 C1096 1.490 . S
C1092 H1082 0.930 . S
C1092 C1091 1.400 . S
C1092 C1095 1.386 . S
H1093 C1109 0.930 . S
H1094 C1110 0.931 . S
C1095 H1083 0.929 . S
C1095 C1089 1.390 . S
C1095 C1092 1.386 . S
C1096 C1091 1.490 . S
C1096 C1098 1.395 . S
C1096 C1099 1.403 . S
H1097 C1103 0.930 . S
C1098 H1084 0.930 . S
C1098 C1096 1.395 . S
C1098 C1101 1.403 . S
C1099 C1096 1.403 . S
C1099 C1100 1.524 . S
C1099 C1103 1.400 . S
C1100 H1085 0.960 . S
C1100 H1086 0.960 . S
C1100 H1087 0.960 . S
C1100 C1099 1.524 . S
C1101 C1098 1.403 . S
C1101 C1102 1.392 . S
C1101 C1105 1.495 . S
C1102 C1101 1.392 . S
C1102 C1103 1.385 . S
C1102 C1104 1.478 . S
C1103 H1097 0.930 . S
C1103 C1099 1.400 . S
C1103 C1102 1.385 . S
C1104 C1102 1.478 . S
C1104 C1106 1.381 . S
C1104 C1110 1.383 . S
C1105 C1101 1.495 . S
C1105 H1111 0.959 . S
C1105 H1112 0.961 . S
C1105 H1113 0.960 . S
C1106 C1104 1.381 . S
C1106 C1107 1.394 . S
C1106 H1114 0.930 . S
C1107 C1106 1.394 . S
C1107 C1108 1.383 . S
C1107 H1115 0.929 . S
C1108 C1107 1.383 . S
C1108 C1109 1.377 . S
C1109 H1093 0.930 . S
C1109 C1108 1.377 . S
C1109 C1110 1.379 . S
C1110 H1094 0.931 . S
C1110 C1104 1.383 . S
C1110 C1109 1.379 . S
H1111 C1105 0.959 . S
H1112 C1105 0.961 . S
H1113 C1105 0.960 . S
H1114 C1106 0.930 . S
H1115 C1107 0.929 . S
H1116 C1124 0.929 . S
H1117 C1126 0.930 1_556 S
H1118 C1128 0.930 . S
H1119 C1131 0.929 . S
H1120 C1134 0.930 . S
H1121 C1136 0.960 . S
H1122 C1136 0.960 . S
H1123 C1136 0.960 . S
C1124 H1116 0.929 . S
C1124 C1125 1.377 . S
C1124 C1126 1.384 . S
C1125 C1124 1.377 . S
C1125 C1131 1.390 . S
C1126 H1117 0.930 1_554 S
C1126 C1124 1.384 . S
C1126 C1127 1.372 . S
C1127 C1126 1.372 . S
C1127 C1128 1.400 . S
C1127 C1132 1.490 . S
C1128 H1118 0.930 . S
C1128 C1127 1.400 . S
C1128 C1131 1.386 . S
H1129 C1145 0.930 . S
H1130 C1146 0.931 . S
C1131 H1119 0.929 . S
C1131 C1125 1.390 . S
C1131 C1128 1.386 . S
C1132 C1127 1.490 . S
C1132 C1134 1.395 1_554 S
C1132 C1135 1.403 . S
H1133 C1139 0.930 . S
C1134 H1120 0.930 . S
C1134 C1132 1.395 1_556 S
C1134 C1137 1.403 . S
C1135 C1132 1.403 . S
C1135 C1136 1.524 . S
C1135 C1139 1.400 . S
C1136 H1121 0.960 . S
C1136 H1122 0.960 . S
C1136 H1123 0.960 . S
C1136 C1135 1.524 . S
C1137 C1134 1.403 . S
C1137 C1138 1.392 . S
C1137 C1141 1.495 . S
C1138 C1137 1.392 . S
C1138 C1139 1.385 1_556 S
C1138 C1140 1.478 . S
C1139 H1133 0.930 . S
C1139 C1135 1.400 . S
C1139 C1138 1.385 1_554 S
C1140 C1138 1.478 . S
C1140 C1142 1.381 . S
C1140 C1146 1.383 . S
C1141 C1137 1.495 . S
C1141 H1147 0.959 . S
C1141 H1148 0.961 . S
C1141 H1149 0.960 . S
C1142 C1140 1.381 . S
C1142 C1143 1.394 . S
C1142 H1150 0.930 . S
C1143 C1142 1.394 . S
C1143 C1144 1.383 . S
C1143 H1151 0.929 . S
C1144 C1143 1.383 . S
C1144 C1145 1.377 . S
C1145 H1129 0.930 . S
C1145 C1144 1.377 . S
C1145 C1146 1.379 . S
C1146 H1130 0.931 . S
C1146 C1140 1.383 . S
C1146 C1145 1.379 . S
H1147 C1141 0.959 . S
H1148 C1141 0.961 . S
H1149 C1141 0.960 . S
H1150 C1142 0.930 . S
H1151 C1143 0.929 . S
H1152 C1160 0.929 . S
H1153 C1162 0.930 . S
H1154 C1164 0.930 . S
H1155 C1167 0.929 . S
H1156 C1170 0.930 . S
H1157 C1172 0.960 . S
H1158 C1172 0.960 . S
H1159 C1172 0.960 . S
C1160 H1152 0.929 . S
C1160 C1161 1.377 . S
C1160 C1162 1.384 . S
C1161 C1160 1.377 . S
C1161 C1167 1.390 . S
C1162 H1153 0.930 . S
C1162 C1160 1.384 . S
C1162 C1163 1.372 . S
C1163 C1162 1.372 . S
C1163 C1164 1.400 . S
C1163 C1168 1.490 . S
C1164 H1154 0.930 . S
C1164 C1163 1.400 . S
C1164 C1167 1.386 . S
H1165 C1181 0.930 . S
H1166 C1182 0.931 . S
C1167 H1155 0.929 . S
C1167 C1161 1.390 . S
C1167 C1164 1.386 . S
C1168 C1163 1.490 . S
C1168 C1170 1.395 . S
C1168 C1171 1.403 . S
H1169 C1175 0.930 . S
C1170 H1156 0.930 . S
C1170 C1168 1.395 . S
C1170 C1173 1.403 . S
C1171 C1168 1.403 . S
C1171 C1172 1.524 . S
C1171 C1175 1.400 . S
C1172 H1157 0.960 . S
C1172 H1158 0.960 . S
C1172 H1159 0.960 . S
C1172 C1171 1.524 . S
C1173 C1170 1.403 . S
C1173 C1174 1.392 . S
C1173 C1177 1.495 . S
C1174 C1173 1.392 . S
C1174 C1175 1.385 . S
C1174 C1176 1.478 . S
C1175 H1169 0.930 . S
C1175 C1171 1.400 . S
C1175 C1174 1.385 . S
C1176 C1174 1.478 . S
C1176 C1178 1.381 . S
C1176 C1182 1.383 . S
C1177 C1173 1.495 . S
C1177 H1183 0.959 . S
C1177 H1184 0.961 . S
C1177 H1185 0.960 . S
C1178 C1176 1.381 . S
C1178 C1179 1.394 . S
C1178 H1186 0.930 . S
C1179 C1178 1.394 . S
C1179 C1180 1.383 . S
C1179 H1187 0.929 . S
C1180 C1179 1.383 . S
C1180 C1181 1.377 . S
C1181 H1165 0.930 . S
C1181 C1180 1.377 . S
C1181 C1182 1.379 . S
C1182 H1166 0.931 . S
C1182 C1176 1.383 . S
C1182 C1181 1.379 . S
H1183 C1177 0.959 . S
H1184 C1177 0.961 . S
H1185 C1177 0.960 . S
H1186 C1178 0.930 . S
H1187 C1179 0.929 . S
H1188 C1196 0.929 . S
H1189 C1198 0.930 . S
H1190 C1200 0.930 . S
H1191 C1203 0.929 . S
H1192 C1206 0.930 . S
H1193 C1208 0.960 . S
H1194 C1208 0.960 . S
H1195 C1208 0.960 . S
C1196 H1188 0.929 . S
C1196 C1197 1.377 . S
C1196 C1198 1.384 . S
C1197 C1196 1.377 . S
C1197 C1203 1.390 . S
C1198 H1189 0.930 . S
C1198 C1196 1.384 . S
C1198 C1199 1.372 . S
C1199 C1198 1.372 . S
C1199 C1200 1.400 . S
C1199 C1204 1.490 . S
C1200 H1190 0.930 . S
C1200 C1199 1.400 . S
C1200 C1203 1.386 . S
H1201 C1217 0.930 . S
H1202 C1218 0.931 . S
C1203 H1191 0.929 . S
C1203 C1197 1.390 . S
C1203 C1200 1.386 . S
C1204 C1199 1.490 . S
C1204 C1206 1.395 . S
C1204 C1207 1.403 . S
H1205 C1211 0.930 . S
C1206 H1192 0.930 . S
C1206 C1204 1.395 . S
C1206 C1209 1.403 . S
C1207 C1204 1.403 . S
C1207 C1208 1.524 . S
C1207 C1211 1.400 . S
C1208 H1193 0.960 . S
C1208 H1194 0.960 . S
C1208 H1195 0.960 . S
C1208 C1207 1.524 . S
C1209 C1206 1.403 . S
C1209 C1210 1.392 . S
C1209 C1213 1.495 . S
C1210 C1209 1.392 . S
C1210 C1211 1.385 . S
C1210 C1212 1.478 . S
C1211 H1205 0.930 . S
C1211 C1207 1.400 . S
C1211 C1210 1.385 . S
C1212 C1210 1.478 . S
C1212 C1214 1.381 . S
C1212 C1218 1.383 . S
C1213 C1209 1.495 . S
C1213 H1219 0.959 . S
C1213 H1220 0.961 . S
C1213 H1221 0.960 . S
C1214 C1212 1.381 . S
C1214 C1215 1.394 . S
C1214 H1222 0.930 . S
C1215 C1214 1.394 . S
C1215 C1216 1.383 . S
C1215 H1223 0.929 . S
C1216 C1215 1.383 . S
C1216 C1217 1.377 . S
C1217 H1201 0.930 . S
C1217 C1216 1.377 . S
C1217 C1218 1.379 . S
C1218 H1202 0.931 . S
C1218 C1212 1.383 . S
C1218 C1217 1.379 . S
H1219 C1213 0.959 . S
H1220 C1213 0.961 . S
H1221 C1213 0.960 . S
H1222 C1214 0.930 . S
H1223 C1215 0.929 . S
H1224 C1232 0.929 . S
H1225 C1234 0.930 . S
H1226 C1236 0.930 1_554 S
H1227 C1239 0.929 . S
H1228 C1242 0.930 . S
H1229 C1244 0.960 . S
H1230 C1244 0.960 . S
H1231 C1244 0.960 . S
C1232 H1224 0.929 . S
C1232 C1233 1.377 . S
C1232 C1234 1.384 . S
C1233 C1232 1.377 . S
C1233 C1239 1.390 . S
C1234 H1225 0.930 . S
C1234 C1232 1.384 . S
C1234 C1235 1.372 . S
C1235 C1234 1.372 . S
C1235 C1236 1.400 . S
C1235 C1240 1.490 . S
C1236 H1226 0.930 1_556 S
C1236 C1235 1.400 . S
C1236 C1239 1.386 . S
H1237 C1253 0.930 . S
H1238 C1254 0.931 . S
C1239 H1227 0.929 . S
C1239 C1233 1.390 . S
C1239 C1236 1.386 . S
C1240 C1235 1.490 . S
C1240 C1242 1.395 . S
C1240 C1243 1.403 1_556 S
H1241 C1247 0.930 . S
C1242 H1228 0.930 . S
C1242 C1240 1.395 . S
C1242 C1245 1.403 . S
C1243 C1240 1.403 1_554 S
C1243 C1244 1.524 . S
C1243 C1247 1.400 . S
C1244 H1229 0.960 . S
C1244 H1230 0.960 . S
C1244 H1231 0.960 . S
C1244 C1243 1.524 . S
C1245 C1242 1.403 . S
C1245 C1246 1.392 1_556 S
C1245 C1249 1.495 . S
C1246 C1245 1.392 1_554 S
C1246 C1247 1.385 . S
C1246 C1248 1.478 . S
C1247 H1241 0.930 . S
C1247 C1243 1.400 . S
C1247 C1246 1.385 . S
C1248 C1246 1.478 . S
C1248 C1250 1.381 . S
C1248 C1254 1.383 . S
C1249 C1245 1.495 . S
C1249 H1255 0.959 . S
C1249 H1256 0.961 . S
C1249 H1257 0.960 . S
C1250 C1248 1.381 . S
C1250 C1251 1.394 . S
C1250 H1258 0.930 1_554 S
C1251 C1250 1.394 . S
C1251 C1252 1.383 . S
C1251 H1259 0.929 . S
C1252 C1251 1.383 . S
C1252 C1253 1.377 . S
C1253 H1237 0.930 . S
C1253 C1252 1.377 . S
C1253 C1254 1.379 . S
C1254 H1238 0.931 . S
C1254 C1248 1.383 . S
C1254 C1253 1.379 . S
H1255 C1249 0.959 . S
H1256 C1249 0.961 . S
H1257 C1249 0.960 . S
H1258 C1250 0.930 1_556 S
H1259 C1251 0.929 . S
H1260 C1268 0.929 . S
H1261 C1270 0.930 . S
H1262 C1272 0.930 . S
H1263 C1275 0.929 . S
H1264 C1278 0.930 . S
H1265 C1280 0.960 . S
H1266 C1280 0.960 . S
H1267 C1280 0.960 . S
C1268 H1260 0.929 . S
C1268 C1269 1.377 . S
C1268 C1270 1.384 . S
C1269 C1268 1.377 . S
C1269 C1275 1.390 . S
C1270 H1261 0.930 . S
C1270 C1268 1.384 . S
C1270 C1271 1.372 . S
C1271 C1270 1.372 . S
C1271 C1272 1.400 . S
C1271 C1276 1.490 . S
C1272 H1262 0.930 . S
C1272 C1271 1.400 . S
C1272 C1275 1.386 . S
H1273 C1289 0.930 . S
H1274 C1290 0.931 . S
C1275 H1263 0.929 . S
C1275 C1269 1.390 . S
C1275 C1272 1.386 . S
C1276 C1271 1.490 . S
C1276 C1278 1.395 . S
C1276 C1279 1.403 . S
H1277 C1283 0.930 . S
C1278 H1264 0.930 . S
C1278 C1276 1.395 . S
C1278 C1281 1.403 . S
C1279 C1276 1.403 . S
C1279 C1280 1.524 . S
C1279 C1283 1.400 . S
C1280 H1265 0.960 . S
C1280 H1266 0.960 . S
C1280 H1267 0.960 . S
C1280 C1279 1.524 . S
C1281 C1278 1.403 . S
C1281 C1282 1.392 . S
C1281 C1285 1.495 . S
C1282 C1281 1.392 . S
C1282 C1283 1.385 . S
C1282 C1284 1.478 . S
C1283 H1277 0.930 . S
C1283 C1279 1.400 . S
C1283 C1282 1.385 . S
C1284 C1282 1.478 . S
C1284 C1286 1.381 . S
C1284 C1290 1.383 . S
C1285 C1281 1.495 . S
C1285 H1291 0.959 . S
C1285 H1292 0.961 . S
C1285 H1293 0.960 . S
C1286 C1284 1.381 . S
C1286 C1287 1.394 . S
C1286 H1294 0.930 . S
C1287 C1286 1.394 . S
C1287 C1288 1.383 . S
C1287 H1295 0.929 . S
C1288 C1287 1.383 . S
C1288 C1289 1.377 . S
C1289 H1273 0.930 . S
C1289 C1288 1.377 . S
C1289 C1290 1.379 . S
C1290 H1274 0.931 . S
C1290 C1284 1.383 . S
C1290 C1289 1.379 . S
H1291 C1285 0.959 . S
H1292 C1285 0.961 . S
H1293 C1285 0.960 . S
H1294 C1286 0.930 . S
H1295 C1287 0.929 . S
H1296 C1304 0.929 . S
H1297 C1306 0.930 . S
H1298 C1308 0.930 . S
H1299 C1311 0.929 . S
H1300 C1314 0.930 . S
H1301 C1316 0.960 . S
H1302 C1316 0.960 . S
H1303 C1316 0.960 . S
C1304 H1296 0.929 . S
C1304 C1305 1.377 . S
C1304 C1306 1.384 . S
C1305 C1304 1.377 . S
C1305 C1311 1.390 . S
C1306 H1297 0.930 . S
C1306 C1304 1.384 . S
C1306 C1307 1.372 . S
C1307 C1306 1.372 . S
C1307 C1308 1.400 . S
C1307 C1312 1.490 . S
C1308 H1298 0.930 . S
C1308 C1307 1.400 . S
C1308 C1311 1.386 . S
H1309 C1325 0.930 . S
H1310 C1326 0.931 . S
C1311 H1299 0.929 . S
C1311 C1305 1.390 . S
C1311 C1308 1.386 . S
C1312 C1307 1.490 . S
C1312 C1314 1.395 . S
C1312 C1315 1.403 . S
H1313 C1319 0.930 . S
C1314 H1300 0.930 . S
C1314 C1312 1.395 . S
C1314 C1317 1.403 . S
C1315 C1312 1.403 . S
C1315 C1316 1.524 . S
C1315 C1319 1.400 . S
C1316 H1301 0.960 . S
C1316 H1302 0.960 . S
C1316 H1303 0.960 . S
C1316 C1315 1.524 . S
C1317 C1314 1.403 . S
C1317 C1318 1.392 . S
C1317 C1321 1.495 . S
C1318 C1317 1.392 . S
C1318 C1319 1.385 . S
C1318 C1320 1.478 . S
C1319 H1313 0.930 . S
C1319 C1315 1.400 . S
C1319 C1318 1.385 . S
C1320 C1318 1.478 . S
C1320 C1322 1.381 . S
C1320 C1326 1.383 . S
C1321 C1317 1.495 . S
C1321 H1327 0.959 . S
C1321 H1328 0.961 . S
C1321 H1329 0.960 . S
C1322 C1320 1.381 . S
C1322 C1323 1.394 . S
C1322 H1330 0.930 . S
C1323 C1322 1.394 . S
C1323 C1324 1.383 . S
C1323 H1331 0.929 . S
C1324 C1323 1.383 . S
C1324 C1325 1.377 . S
C1325 H1309 0.930 . S
C1325 C1324 1.377 . S
C1325 C1326 1.379 . S
C1326 H1310 0.931 . S
C1326 C1320 1.383 . S
C1326 C1325 1.379 . S
H1327 C1321 0.959 . S
H1328 C1321 0.961 . S
H1329 C1321 0.960 . S
H1330 C1322 0.930 . S
H1331 C1323 0.929 . S
H1332 C1340 0.929 . S
H1333 C1342 0.930 . S
H1334 C1344 0.930 . S
H1335 C1347 0.929 . S
H1336 C1350 0.930 . S
H1337 C1352 0.960 . S
H1338 C1352 0.960 . S
H1339 C1352 0.960 . S
C1340 H1332 0.929 . S
C1340 C1341 1.377 . S
C1340 C1342 1.384 . S
C1341 C1340 1.377 . S
C1341 C1347 1.390 . S
C1342 H1333 0.930 . S
C1342 C1340 1.384 . S
C1342 C1343 1.372 . S
C1343 C1342 1.372 . S
C1343 C1344 1.400 . S
C1343 C1348 1.490 . S
C1344 H1334 0.930 . S
C1344 C1343 1.400 . S
C1344 C1347 1.386 . S
H1345 C1361 0.930 . S
H1346 C1362 0.931 . S
C1347 H1335 0.929 . S
C1347 C1341 1.390 . S
C1347 C1344 1.386 . S
C1348 C1343 1.490 . S
C1348 C1350 1.395 . S
C1348 C1351 1.403 . S
H1349 C1355 0.930 . S
C1350 H1336 0.930 . S
C1350 C1348 1.395 . S
C1350 C1353 1.403 . S
C1351 C1348 1.403 . S
C1351 C1352 1.524 . S
C1351 C1355 1.400 . S
C1352 H1337 0.960 . S
C1352 H1338 0.960 . S
C1352 H1339 0.960 . S
C1352 C1351 1.524 . S
C1353 C1350 1.403 . S
C1353 C1354 1.392 . S
C1353 C1357 1.495 . S
C1354 C1353 1.392 . S
C1354 C1355 1.385 . S
C1354 C1356 1.478 . S
C1355 H1349 0.930 . S
C1355 C1351 1.400 . S
C1355 C1354 1.385 . S
C1356 C1354 1.478 . S
C1356 C1358 1.381 . S
C1356 C1362 1.383 . S
C1357 C1353 1.495 . S
C1357 H1363 0.959 . S
C1357 H1364 0.961 . S
C1357 H1365 0.960 . S
C1358 C1356 1.381 . S
C1358 C1359 1.394 . S
C1358 H1366 0.930 . S
C1359 C1358 1.394 . S
C1359 C1360 1.383 . S
C1359 H1367 0.929 . S
C1360 C1359 1.383 . S
C1360 C1361 1.377 . S
C1361 H1345 0.930 . S
C1361 C1360 1.377 . S
C1361 C1362 1.379 . S
C1362 H1346 0.931 . S
C1362 C1356 1.383 . S
C1362 C1361 1.379 . S
H1363 C1357 0.959 . S
H1364 C1357 0.961 . S
H1365 C1357 0.960 . S
H1366 C1358 0.930 . S
H1367 C1359 0.929 . S
H1368 C1376 0.929 . S
H1369 C1378 0.930 . S
H1370 C1380 0.930 . S
H1371 C1383 0.929 . S
H1372 C1386 0.930 . S
H1373 C1388 0.960 . S
H1374 C1388 0.960 . S
H1375 C1388 0.960 . S
C1376 H1368 0.929 . S
C1376 C1377 1.377 . S
C1376 C1378 1.384 . S
C1377 C1376 1.377 . S
C1377 C1383 1.390 . S
C1378 H1369 0.930 . S
C1378 C1376 1.384 . S
C1378 C1379 1.372 . S
C1379 C1378 1.372 . S
C1379 C1380 1.400 . S
C1379 C1384 1.490 . S
C1380 H1370 0.930 . S
C1380 C1379 1.400 . S
C1380 C1383 1.386 . S
H1381 C1397 0.930 . S
H1382 C1398 0.931 . S
C1383 H1371 0.929 . S
C1383 C1377 1.390 . S
C1383 C1380 1.386 . S
C1384 C1379 1.490 . S
C1384 C1386 1.395 . S
C1384 C1387 1.403 . S
H1385 C1391 0.930 . S
C1386 H1372 0.930 . S
C1386 C1384 1.395 . S
C1386 C1389 1.403 . S
C1387 C1384 1.403 . S
C1387 C1388 1.524 . S
C1387 C1391 1.400 . S
C1388 H1373 0.960 . S
C1388 H1374 0.960 . S
C1388 H1375 0.960 . S
C1388 C1387 1.524 . S
C1389 C1386 1.403 . S
C1389 C1390 1.392 . S
C1389 C1393 1.495 . S
C1390 C1389 1.392 . S
C1390 C1391 1.385 . S
C1390 C1392 1.478 . S
C1391 H1385 0.930 . S
C1391 C1387 1.400 . S
C1391 C1390 1.385 . S
C1392 C1390 1.478 . S
C1392 C1394 1.381 . S
C1392 C1398 1.383 . S
C1393 C1389 1.495 . S
C1393 H1399 0.959 . S
C1393 H1400 0.961 . S
C1393 H1401 0.960 . S
C1394 C1392 1.381 . S
C1394 C1395 1.394 . S
C1394 H1402 0.930 . S
C1395 C1394 1.394 . S
C1395 C1396 1.383 . S
C1395 H1403 0.929 . S
C1396 C1395 1.383 . S
C1396 C1397 1.377 . S
C1397 H1381 0.930 . S
C1397 C1396 1.377 . S
C1397 C1398 1.379 . S
C1398 H1382 0.931 . S
C1398 C1392 1.383 . S
C1398 C1397 1.379 . S
H1399 C1393 0.959 . S
H1400 C1393 0.961 . S
H1401 C1393 0.960 . S
H1402 C1394 0.930 . S
H1403 C1395 0.929 . S
H1404 C1412 0.929 . S
H1405 C1414 0.930 . S
H1406 C1416 0.930 . S
H1407 C1419 0.929 . S
H1408 C1422 0.930 . S
H1409 C1424 0.960 . S
H1410 C1424 0.960 . S
H1411 C1424 0.960 . S
C1412 H1404 0.929 . S
C1412 C1413 1.377 . S
C1412 C1414 1.384 . S
C1413 C1412 1.377 . S
C1413 C1419 1.390 . S
C1414 H1405 0.930 . S
C1414 C1412 1.384 . S
C1414 C1415 1.372 . S
C1415 C1414 1.372 . S
C1415 C1416 1.400 . S
C1415 C1420 1.490 . S
C1416 H1406 0.930 . S
C1416 C1415 1.400 . S
C1416 C1419 1.386 . S
H1417 C1433 0.930 . S
H1418 C1434 0.931 . S
C1419 H1407 0.929 . S
C1419 C1413 1.390 . S
C1419 C1416 1.386 . S
C1420 C1415 1.490 . S
C1420 C1422 1.395 . S
C1420 C1423 1.403 . S
H1421 C1427 0.930 . S
C1422 H1408 0.930 . S
C1422 C1420 1.395 . S
C1422 C1425 1.403 . S
C1423 C1420 1.403 . S
C1423 C1424 1.524 . S
C1423 C1427 1.400 . S
C1424 H1409 0.960 . S
C1424 H1410 0.960 . S
C1424 H1411 0.960 . S
C1424 C1423 1.524 . S
C1425 C1422 1.403 . S
C1425 C1426 1.392 . S
C1425 C1429 1.495 . S
C1426 C1425 1.392 . S
C1426 C1427 1.385 . S
C1426 C1428 1.478 . S
C1427 H1421 0.930 . S
C1427 C1423 1.400 . S
C1427 C1426 1.385 . S
C1428 C1426 1.478 . S
C1428 C1430 1.381 . S
C1428 C1434 1.383 . S
C1429 C1425 1.495 . S
C1429 H1435 0.959 . S
C1429 H1436 0.961 . S
C1429 H1437 0.960 . S
C1430 C1428 1.381 . S
C1430 C1431 1.394 . S
C1430 H1438 0.930 . S
C1431 C1430 1.394 . S
C1431 C1432 1.383 . S
C1431 H1439 0.929 . S
C1432 C1431 1.383 . S
C1432 C1433 1.377 . S
C1433 H1417 0.930 . S
C1433 C1432 1.377 . S
C1433 C1434 1.379 . S
C1434 H1418 0.931 . S
C1434 C1428 1.383 . S
C1434 C1433 1.379 . S
H1435 C1429 0.959 . S
H1436 C1429 0.961 . S
H1437 C1429 0.960 . S
H1438 C1430 0.930 . S
H1439 C1431 0.929 . S
H1440 C1448 0.929 . S
H1441 C1450 0.930 . S
H1442 C1452 0.930 . S
H1443 C1455 0.929 . S
H1444 C1458 0.930 . S
H1445 C1460 0.960 . S
H1446 C1460 0.960 . S
H1447 C1460 0.960 . S
C1448 H1440 0.929 . S
C1448 C1449 1.377 . S
C1448 C1450 1.384 . S
C1449 C1448 1.377 . S
C1449 C1455 1.390 . S
C1450 H1441 0.930 . S
C1450 C1448 1.384 . S
C1450 C1451 1.372 . S
C1451 C1450 1.372 . S
C1451 C1452 1.400 . S
C1451 C1456 1.490 . S
C1452 H1442 0.930 . S
C1452 C1451 1.400 . S
C1452 C1455 1.386 . S
H1453 C1469 0.930 . S
H1454 C1470 0.931 . S
C1455 H1443 0.929 . S
C1455 C1449 1.390 . S
C1455 C1452 1.386 . S
C1456 C1451 1.490 . S
C1456 C1458 1.395 . S
C1456 C1459 1.403 . S
H1457 C1463 0.930 . S
C1458 H1444 0.930 . S
C1458 C1456 1.395 . S
C1458 C1461 1.403 . S
C1459 C1456 1.403 . S
C1459 C1460 1.524 . S
C1459 C1463 1.400 . S
C1460 H1445 0.960 . S
C1460 H1446 0.960 . S
C1460 H1447 0.960 . S
C1460 C1459 1.524 . S
C1461 C1458 1.403 . S
C1461 C1462 1.392 . S
C1461 C1465 1.495 . S
C1462 C1461 1.392 . S
C1462 C1463 1.385 . S
C1462 C1464 1.478 . S
C1463 H1457 0.930 . S
C1463 C1459 1.400 . S
C1463 C1462 1.385 . S
C1464 C1462 1.478 . S
C1464 C1466 1.381 . S
C1464 C1470 1.383 . S
C1465 C1461 1.495 . S
C1465 H1471 0.959 . S
C1465 H1472 0.961 . S
C1465 H1473 0.960 . S
C1466 C1464 1.381 . S
C1466 C1467 1.394 . S
C1466 H1474 0.930 . S
C1467 C1466 1.394 . S
C1467 C1468 1.383 . S
C1467 H1475 0.929 . S
C1468 C1467 1.383 . S
C1468 C1469 1.377 . S
C1469 H1453 0.930 . S
C1469 C1468 1.377 . S
C1469 C1470 1.379 . S
C1470 H1454 0.931 . S
C1470 C1464 1.383 . S
C1470 C1469 1.379 . S
H1471 C1465 0.959 . S
H1472 C1465 0.961 . S
H1473 C1465 0.960 . S
H1474 C1466 0.930 . S
H1475 C1467 0.929 . S
C405 C120 0.416 . S
C424 C21 0.406 . S
C441 C54 0.418 . S
C460 C153 0.372 . S
C477 C186 0.437 . S
C496 C87 0.426 . S
C513 C219 0.416 . S
C532 C318 0.388 . S
C549 C351 0.420 . S
C568 C252 0.438 . S
C585 C285 0.419 . S
C604 C384 0.427 . S
C621 N13 1.917 . S
C640 N343 1.898 . S
C657 N376 1.917 . S
C676 N46 1.926 . S
C693 N79 1.913 . S
C712 N211 1.905 . S
C729 N112 1.915 . S
C748 N244 1.925 . S
C765 N145 1.915 . S
C784 N277 1.925 . S
C801 N178 1.913 . S
C820 N310 1.911 . S
C837 C304 1.408 . S
C856 C7 1.384 . S
C873 C40 1.391 . S
C892 C337 1.372 . S
C909 C73 1.390 . S
C928 C370 1.377 . S
C945 C205 1.389 . S
C964 C106 1.394 . S
C981 C238 1.407 . S
C1000 C139 1.396 . S
C1017 C271 1.398 . S
C1036 C172 1.440 . S
C1053 N2 0.737 . S
C1072 N200 0.676 . S
C1089 N35 0.760 . S
C1108 N233 0.780 . S
C1125 N266 0.743 . S
C1144 N68 0.699 . S
C1161 N101 0.738 . S
C1180 N299 0.707 . S
C1197 N332 0.757 . S
C1216 N134 0.766 . S
C1233 N167 0.756 . S
C1252 N365 0.792 . S
C1269 C282 1.145 . S
C1288 C18 1.126 . S
C1305 C315 1.137 . S
C1324 C51 1.117 . S
C1341 C348 1.138 . S
C1360 C84 1.164 . S
C1377 C117 1.142 . S
C1396 C381 1.161 . S
C1413 C216 1.135 . S
C1432 C150 1.140 . S
C1449 C249 1.141 . S
C1468 C183 1.163 . S
