# Generated by pormake.
# Topology ukg, (4)-cn, num edge types: 1
# Building blocks:
#     Node 0, Type 0, BuildingBlock: MUDLON_clean_sbu_0, # of connection points: 4
#     Node 1, Type 0, BuildingBlock: MUDLON_clean_sbu_0, # of connection points: 4
#     Node 2, Type 0, BuildingBlock: MUDLON_clean_sbu_0, # of connection points: 4
#     Node 3, Type 0, BuildingBlock: MUDLON_clean_sbu_0, # of connection points: 4
#     Node 4, Type 0, BuildingBlock: MUDLON_clean_sbu_0, # of connection points: 4
#     Node 5, Type 0, BuildingBlock: MUDLON_clean_sbu_0, # of connection points: 4
#     Node 6, Type 0, BuildingBlock: MUDLON_clean_sbu_0, # of connection points: 4
#     Node 7, Type 0, BuildingBlock: MUDLON_clean_sbu_0, # of connection points: 4
#     Edge 8, Type (0, 0), BuildingBlock: XUDNAN_clean_linker_2, # of connection points: 2
#     Edge 9, Type (0, 0), BuildingBlock: XUDNAN_clean_linker_2, # of connection points: 2
#     Edge 10, Type (0, 0), BuildingBlock: XUDNAN_clean_linker_2, # of connection points: 2
#     Edge 11, Type (0, 0), BuildingBlock: XUDNAN_clean_linker_2, # of connection points: 2
#     Edge 12, Type (0, 0), BuildingBlock: XUDNAN_clean_linker_2, # of connection points: 2
#     Edge 13, Type (0, 0), BuildingBlock: XUDNAN_clean_linker_2, # of connection points: 2
#     Edge 14, Type (0, 0), BuildingBlock: XUDNAN_clean_linker_2, # of connection points: 2
#     Edge 15, Type (0, 0), BuildingBlock: XUDNAN_clean_linker_2, # of connection points: 2
#     Edge 16, Type (0, 0), BuildingBlock: XUDNAN_clean_linker_2, # of connection points: 2
#     Edge 17, Type (0, 0), BuildingBlock: XUDNAN_clean_linker_2, # of connection points: 2
#     Edge 18, Type (0, 0), BuildingBlock: XUDNAN_clean_linker_2, # of connection points: 2
#     Edge 19, Type (0, 0), BuildingBlock: XUDNAN_clean_linker_2, # of connection points: 2
#     Edge 20, Type (0, 0), BuildingBlock: XUDNAN_clean_linker_2, # of connection points: 2
#     Edge 21, Type (0, 0), BuildingBlock: XUDNAN_clean_linker_2, # of connection points: 2
#     Edge 22, Type (0, 0), BuildingBlock: XUDNAN_clean_linker_2, # of connection points: 2
#     Edge 23, Type (0, 0), BuildingBlock: XUDNAN_clean_linker_2, # of connection points: 2
# Relax obj value: 0.086
# Max RMSD: 0.240
# Mean RMSD: 0.240
data_MOF--net-ukg--node1-MUDLON_clean_sbu_0--edge1-XUDNAN_clean_linker_2
_symmetry_space_group_name_H-M    P1
_symmetry_Int_Tables_number       1
_symmetry_cell_setting            triclinic
loop_
_symmetry_equiv_pos_as_xyz
'x, y, z'
_cell_length_a     32.687683
_cell_length_b     32.5149
_cell_length_c     37.463375
_cell_angle_alpha  89.777803
_cell_angle_beta   90.063464
_cell_angle_gamma 89.836211
loop_
_atom_site_label
_atom_site_type_symbol
_atom_site_fract_x
_atom_site_fract_y
_atom_site_fract_z
_atom_type_partial_charge
Mg0 Mg 0.04721 0.67096 0.16832 0.0
C1 C 0.98331 0.62594 0.20763 0.0
O2 O 0.96962 0.626 0.17465 0.0
C3 C 0.13032 0.70711 0.18423 0.0
O4 O 0.10713 0.73649 0.19728 0.0
C5 C 0.04804 0.60228 0.11489 0.0
O6 O 0.07602 0.58931 0.13752 0.0
O7 O 0.03083 0.63686 0.12038 0.0
O8 O 0.01847 0.64088 0.21393 0.0
O9 O 0.02399 0.73395 0.16855 0.0
C10 C 0.98652 0.74162 0.17479 0.0
O11 O 0.96064 0.71095 0.17711 0.0
O12 O 0.11348 0.67491 0.17187 0.0
Mg13 Mg 0.36285 0.55208 0.66621 0.0
C14 C 0.42108 0.49459 0.70194 0.0
O15 O 0.42421 0.48373 0.66832 0.0
C16 C 0.31956 0.63437 0.67445 0.0
O17 O 0.28823 0.61001 0.67999 0.0
C18 C 0.42466 0.55827 0.60718 0.0
O19 O 0.43549 0.58954 0.62715 0.0
O20 O 0.39357 0.53719 0.61623 0.0
O21 O 0.39882 0.52541 0.70973 0.0
O22 O 0.30334 0.52295 0.67167 0.0
C23 C 0.29179 0.51972 0.70397 0.0
O24 O 0.3158 0.53401 0.72917 0.0
O25 O 0.35475 0.61863 0.6692 0.0
Mg26 Mg 0.48166 0.86223 0.17018 0.0
C27 C 0.51921 0.93084 0.21408 0.0
O28 O 0.51401 0.95109 0.18401 0.0
C29 C 0.41043 0.811 0.15459 0.0
O30 O 0.43925 0.79714 0.13332 0.0
C31 C 0.52642 0.90818 0.11133 0.0
O32 O 0.55795 0.89168 0.12788 0.0
O33 O 0.49061 0.8999 0.12241 0.0
O34 O 0.50507 0.89457 0.21677 0.0
O35 O 0.51658 0.80511 0.17116 0.0
C36 C 0.50653 0.7828 0.19771 0.0
O37 O 0.47821 0.79659 0.21952 0.0
O38 O 0.41825 0.84197 0.17409 0.0
Mg39 Mg 0.16676 0.98903 0.66575 0.0
C40 C 0.10061 0.02972 0.70895 0.0
O41 O 0.08435 0.03218 0.67693 0.0
C42 C 0.21741 0.91766 0.64795 0.0
O43 O 0.23328 0.94806 0.62943 0.0
C44 C 0.11108 0.97979 0.60075 0.0
O45 O 0.11319 0.94083 0.61005 0.0
O46 O 0.13178 1.00606 0.61819 0.0
O47 O 0.13373 1.00962 0.71296 0.0
O48 O 0.22442 0.02157 0.6708 0.0
C49 C 0.24391 1.01023 0.69858 0.0
O50 O 0.22735 0.98221 0.71936 0.0
O51 O 0.18515 0.9245 0.66601 0.0
Mg52 Mg 0.98394 0.35525 0.8541 0.0
C53 C 1.00052 0.27329 0.82987 0.0
O54 O 0.97701 0.29116 0.80589 0.0
C55 C 1.00854 0.39432 0.9275 0.0
O56 O 0.0378 0.36656 0.92891 0.0
C57 C 0.89842 0.32983 0.86372 0.0
O58 O 0.91392 0.32589 0.89594 0.0
O59 O 0.92084 0.3444 0.83907 0.0
O60 O 1.01063 0.29383 0.85737 0.0
O61 O 0.01855 0.3868 0.81289 0.0
C62 C 0.05372 0.39863 0.82299 0.0
O63 O 0.06466 0.3919 0.85625 0.0
O64 O 0.98366 0.39432 0.90137 0.0
Mg65 Mg 0.6806 0.48846 0.35417 0.0
C66 C 0.74357 0.55445 0.34733 0.0
O67 O 0.71158 0.57293 0.33325 0.0
C68 C 0.63177 0.51911 0.41955 0.0
O69 O 0.65226 0.55334 0.41449 0.0
C70 C 0.72641 0.4183 0.32067 0.0
O71 O 0.74413 0.44946 0.30453 0.0
O72 O 0.69707 0.42535 0.34207 0.0
O73 O 0.73869 0.51966 0.36232 0.0
O74 O 0.65199 0.51911 0.30867 0.0
C75 C 0.61721 0.53627 0.31186 0.0
O76 O 0.59675 0.53129 0.34171 0.0
O77 O 0.6388 0.48842 0.39949 0.0
Mg78 Mg 0.54229 0.17371 0.85689 0.0
C79 C 0.52226 0.25224 0.82829 0.0
O80 O 0.54232 0.23113 0.80407 0.0
C81 C 0.51674 0.12319 0.92508 0.0
O82 O 0.47873 0.13273 0.91706 0.0
C83 C 0.62719 0.20154 0.86536 0.0
O84 O 0.61182 0.20595 0.89752 0.0
O85 O 0.60491 0.18591 0.84116 0.0
O86 O 0.51561 0.23518 0.85839 0.0
O87 O 0.50849 0.14291 0.81476 0.0
C88 C 0.49014 0.10887 0.81907 0.0
O89 O 0.49445 0.08888 0.84937 0.0
O90 O 0.54572 0.13717 0.90593 0.0
Mg91 Mg 0.85127 0.04704 0.34984 0.0
C92 C 0.76737 0.03405 0.32468 0.0
O93 O 0.78422 0.05751 0.30017 0.0
C94 C 0.9059 1.01405 0.40998 0.0
O95 O 0.90432 0.98029 0.39088 0.0
C96 C 0.81862 0.13233 0.34906 0.0
O97 O 0.79696 0.11504 0.37453 0.0
O98 O 0.84579 0.111 0.33334 0.0
O99 O 0.78877 0.02362 0.35167 0.0
O100 O 0.88424 1.01099 0.31028 0.0
C101 C 0.8709 0.97524 0.3031 0.0
O102 O 0.83803 0.96194 0.31959 0.0
O103 O 0.88527 0.04532 0.4 0.0
H104 H 0.0595 0.40773 0.98504 0.0
H105 H 0.95291 0.4573 0.93033 0.0
H106 H 0.95136 0.51556 0.97218 0.0
H107 H 0.02789 0.43654 0.07465 0.0
H108 H 0.07907 0.44911 0.08875 0.0
H109 H 0.07114 0.41061 0.05501 0.0
H110 H 0.11879 0.45065 0.01203 0.0
H111 H 0.12666 0.4894 0.04554 0.0
H112 H 0.10788 0.50383 1.00199 0.0
H113 H 0.96278 0.57006 0.01857 0.0
H114 H 0.98466 0.61505 0.06801 0.0
H115 H 0.08319 0.52981 0.09303 0.0
C116 C 0.0356 0.43061 0.98202 0.0
C117 C 1.00633 0.4278 0.9543 0.0
C118 C 0.97569 0.45862 0.9513 0.0
C119 C 0.97456 0.49194 0.97494 0.0
C120 C 1.00415 0.49407 1.00161 0.0
C121 C 0.03394 0.46411 1.00547 0.0
C122 C 0.06235 0.47395 0.03628 0.0
C123 C 0.05995 0.44057 0.0654 0.0
C124 C 0.10653 0.47981 0.02316 0.0
C125 C 0.044 0.51419 0.04896 0.0
C126 C 1.01051 0.52531 0.02855 0.0
C127 C 0.98887 0.56158 0.03485 0.0
C128 C 1.00161 0.58701 0.06293 0.0
C129 C 0.0356 0.57602 0.08447 0.0
C130 C 0.05701 0.5391 0.07717 0.0
H131 H 0.48948 0.60013 0.57817 0.0
H132 H 0.41848 0.48828 0.56685 0.0
H133 H 0.46405 0.46593 0.518 0.0
H134 H 0.50907 0.61545 0.48381 0.0
H135 H 0.56011 0.6346 0.49097 0.0
H136 H 0.52146 0.64194 0.52459 0.0
H137 H 0.56827 0.60634 0.57133 0.0
H138 H 0.60695 0.59863 0.53781 0.0
H139 H 0.58753 0.55534 0.56268 0.0
H140 H 0.51894 0.45464 0.47188 0.0
H141 H 0.57652 0.45694 0.42944 0.0
H142 H 0.61103 0.57688 0.47003 0.0
C143 C 0.48331 0.57103 0.56531 0.0
C144 C 0.45035 0.54594 0.57639 0.0
C145 C 0.4434 0.5081 0.55878 0.0
C146 C 0.46921 0.49508 0.53107 0.0
C147 C 0.5017 0.52034 0.52113 0.0
C148 C 0.50861 0.55768 0.5375 0.0
C149 C 0.54559 0.5791 0.52171 0.0
C150 C 0.53331 0.6202 0.50423 0.0
C151 C 0.57906 0.58519 0.55008 0.0
C152 C 0.55857 0.54785 0.49401 0.0
C153 C 0.53294 0.51412 0.49423 0.0
C154 C 0.53908 0.48099 0.47137 0.0
C155 C 0.57201 0.48255 0.44742 0.0
C156 C 0.59837 0.51711 0.44631 0.0
C157 C 0.59147 0.55006 0.47011 0.0
H158 H 0.46816 0.95347 0.07493 0.0
H159 H 0.59924 0.93308 0.08273 0.0
H160 H 0.61071 0.98672 0.03716 0.0
H161 H 0.46517 0.97141 0.97957 0.0
H162 H 0.42641 1.01081 0.98235 0.0
H163 H 0.42841 0.97047 0.0154 0.0
H164 H 0.43276 0.02511 0.0654 0.0
H165 H 0.43108 0.06562 0.03249 0.0
H166 H 0.47276 0.06314 0.06397 0.0
H167 H 0.60834 0.04315 0.99158 0.0
H168 H 0.59221 0.09658 0.94691 0.0
H169 H 0.46255 0.08077 0.96808 0.0
C170 C 0.49927 0.96008 0.0669 0.0
C171 C 0.53281 0.93893 0.08247 0.0
C172 C 0.57303 0.94873 0.07126 0.0
C173 C 0.57989 0.97925 0.04541 0.0
C174 C 0.54625 0.99979 0.03094 0.0
C175 C 0.50671 0.99053 0.0411 0.0
C176 C 0.476 0.01729 0.02127 0.0
C177 C 0.44731 0.99091 0.99828 0.0
C178 C 0.45172 0.04439 0.04734 0.0
C179 C 0.50448 0.04292 0.99831 0.0
C180 C 0.54487 0.03239 1.00447 0.0
C181 C 0.57682 0.05162 0.98648 0.0
C182 C 0.56729 0.08205 0.96116 0.0
C183 C 0.52608 0.09301 0.95387 0.0
C184 C 0.49436 0.07328 0.97304 0.0
H185 H 0.94839 0.95138 0.44299 0.0
H186 H 0.92852 0.08339 0.44629 0.0
H187 H 0.97962 0.08909 0.49457 0.0
H188 H 0.96068 0.93762 0.53869 0.0
H189 H 0.99939 0.89842 0.53406 0.0
H190 H 0.96095 0.90482 0.5 0.0
H191 H 0.0178 0.91362 0.45246 0.0
H192 H 0.05641 0.90761 0.48642 0.0
H193 H 0.05609 0.95281 0.4584 0.0
H194 H 0.03515 0.08085 0.54081 0.0
H195 H 0.08681 0.05856 0.58503 0.0
H196 H 0.06905 0.93167 0.55298 0.0
C197 C 0.95458 0.98147 0.45399 0.0
C198 C 0.93442 0.01696 0.44074 0.0
C199 C 0.9434 0.05573 0.45601 0.0
C200 C 0.97253 0.05932 0.48337 0.0
C201 C 0.99223 0.02383 0.49545 0.0
C202 C 0.9833 0.98558 0.48156 0.0
C203 C 1.00847 0.95221 0.49961 0.0
C204 C 0.98071 0.92146 0.51926 0.0
C205 C 0.03634 0.93028 0.47261 0.0
C206 C 0.03317 0.9777 0.52564 0.0
C207 C 0.02353 0.01897 0.52264 0.0
C208 C 0.04279 0.04858 0.54352 0.0
C209 C 0.07225 0.03562 0.56847 0.0
C210 C 0.08202 0.99336 0.57256 0.0
C211 C 0.06225 0.96418 0.55062 0.0
H212 H 0.17557 0.77382 0.20563 0.0
H213 H 0.18604 0.65522 0.1534 0.0
H214 H 0.25912 0.66848 0.14195 0.0
H215 H 0.23943 0.82877 0.14664 0.0
H216 H 0.26264 0.86032 0.18049 0.0
H217 H 0.21174 0.84065 0.18691 0.0
H218 H 0.23404 0.8069 0.24662 0.0
H219 H 0.28498 0.82677 0.24054 0.0
H220 H 0.27732 0.77241 0.24729 0.0
H221 H 0.32917 0.69639 0.1322 0.0
H222 H 0.39342 0.73528 0.12778 0.0
H223 H 0.33873 0.83562 0.18743 0.0
C224 C 0.19333 0.75035 0.19223 0.0
C225 C 0.17499 0.71342 0.18042 0.0
C226 C 0.19934 0.68367 0.16279 0.0
C227 C 0.24089 0.69095 0.15611 0.0
C228 C 0.25775 0.72798 0.16745 0.0
C229 C 0.23492 0.75704 0.18546 0.0
C230 C 0.26037 0.79474 0.19395 0.0
C231 C 0.24247 0.83339 0.17591 0.0
C232 C 0.26442 0.80053 0.23451 0.0
C233 C 0.3009 0.78257 0.17738 0.0
C234 C 0.29859 0.74393 0.16225 0.0
C235 C 0.33148 0.7265 0.14422 0.0
C236 C 0.36782 0.749 0.14173 0.0
C237 C 0.37119 0.78853 0.15729 0.0
C238 C 0.3372 0.80541 0.17545 0.0
H239 H 0.24955 0.67795 0.68915 0.0
H240 H 0.37448 0.69244 0.65189 0.0
H241 H 0.36178 0.7665 0.642 0.0
H242 H 0.20309 0.74644 0.62741 0.0
H243 H 0.16656 0.76705 0.65865 0.0
H244 H 0.18574 0.71548 0.66442 0.0
H245 H 0.20974 0.73316 0.72846 0.0
H246 H 0.19033 0.78473 0.72301 0.0
H247 H 0.24306 0.77652 0.73533 0.0
H248 H 0.33443 0.83751 0.63242 0.0
H249 H 0.29593 0.90248 0.6278 0.0
H250 H 0.18902 0.84298 0.6731 0.0
C251 C 0.2744 0.69674 0.67923 0.0
C252 C 0.31304 0.67934 0.67124 0.0
C253 C 0.34469 0.70504 0.65831 0.0
C254 C 0.33773 0.74713 0.65252 0.0
C255 C 0.29911 0.76311 0.66009 0.0
C256 C 0.26808 0.73887 0.67355 0.0
C257 C 0.22927 0.76371 0.67915 0.0
C258 C 0.1941 0.74718 0.65602 0.0
C259 C 0.21741 0.76458 0.71885 0.0
C260 C 0.24318 0.80564 0.6663 0.0
C261 C 0.28353 0.80447 0.65531 0.0
C262 C 0.30294 0.8389 0.64123 0.0
C263 C 0.28067 0.87564 0.63856 0.0
C264 C 0.23943 0.87787 0.65013 0.0
C265 C 0.22054 0.8423 0.66424 0.0
H266 H 0.68475 0.22799 0.91276 0.0
H267 H 0.66195 0.21346 0.79935 0.0
H268 H 0.72841 0.24645 0.78611 0.0
H269 H 0.7318 0.32629 0.90795 0.0
H270 H 0.76881 0.31534 0.94243 0.0
H271 H 0.71995 0.2899 0.94285 0.0
H272 H 0.75614 0.21884 0.94359 0.0
H273 H 0.8051 0.24406 0.94357 0.0
H274 H 0.7932 0.20692 0.90953 0.0
H275 H 0.79674 0.28361 0.78564 0.0
H276 H 0.86338 0.3166 0.79805 0.0
H277 H 0.84068 0.30523 0.91179 0.0
C278 C 0.69376 0.23149 0.88511 0.0
C279 C 0.66816 0.2182 0.85708 0.0
C280 C 0.68118 0.22326 0.82127 0.0
C281 C 0.71876 0.24214 0.81349 0.0
C282 C 0.74296 0.25549 0.84183 0.0
C283 C 0.73111 0.24997 0.87691 0.0
C284 C 0.76267 0.26662 0.90258 0.0
C285 C 0.74472 0.30162 0.92528 0.0
C286 C 0.78032 0.23204 0.9262 0.0
C287 C 0.79415 0.28257 0.8765 0.0
C288 C 0.78222 0.27616 0.84156 0.0
C289 C 0.80643 0.28865 0.8129 0.0
C290 C 0.84411 0.30754 0.8202 0.0
C291 C 0.85723 0.31346 0.85588 0.0
C292 C 0.83159 0.30109 0.88423 0.0
H293 H 0.70411 0.34881 0.35755 0.0
H294 H 0.78718 0.3926 0.27553 0.0
H295 H 0.81874 0.32359 0.2724 0.0
H296 H 0.77588 0.28707 0.40351 0.0
H297 H 0.7402 0.24671 0.41419 0.0
H298 H 0.72218 0.29863 0.40815 0.0
H299 H 0.67138 0.27412 0.35954 0.0
H300 H 0.68905 0.22203 0.36562 0.0
H301 H 0.69028 0.24538 0.32192 0.0
H302 H 0.84343 0.2503 0.28037 0.0
H303 H 0.85833 0.17846 0.2982 0.0
H304 H 0.75953 0.18362 0.37544 0.0
C305 C 0.72854 0.34381 0.33855 0.0
C306 C 0.74306 0.37613 0.31669 0.0
C307 C 0.77544 0.36832 0.29249 0.0
C308 C 0.79359 0.32921 0.29051 0.0
C309 C 0.779 0.29824 0.31289 0.0
C310 C 0.74708 0.30507 0.33633 0.0
C311 C 0.73805 0.26709 0.3584 0.0
C312 C 0.74448 0.27539 0.39843 0.0
C313 C 0.69461 0.25122 0.35091 0.0
C314 C 0.77018 0.23795 0.34404 0.0
C315 C 0.79339 0.25635 0.31768 0.0
C316 C 0.82531 0.23552 0.30087 0.0
C317 C 0.83361 0.19477 0.31122 0.0
C318 C 0.81017 0.17539 0.33824 0.0
C319 C 0.77807 0.19747 0.35472 0.0
H320 H 0.76402 0.60821 0.2946 0.0
H321 H 0.81709 0.53073 0.37709 0.0
H322 H 0.88635 0.5464 0.35399 0.0
H323 H 0.82521 0.57331 0.22733 0.0
H324 H 0.82935 0.62172 0.20403 0.0
H325 H 0.78522 0.61135 0.23113 0.0
H326 H 0.79849 0.6775 0.26774 0.0
H327 H 0.84251 0.68845 0.24042 0.0
H328 H 0.84779 0.6852 0.28823 0.0
H329 H 0.94991 0.56662 0.31797 0.0
H330 H 1.00006 0.58592 0.27092 0.0
H331 H 0.90276 0.64404 0.21023 0.0
C332 C 0.7902 0.5956 0.30866 0.0
C333 C 0.78519 0.56873 0.338 0.0
C334 C 0.82028 0.55179 0.35482 0.0
C335 C 0.85971 0.56056 0.34188 0.0
C336 C 0.86344 0.58608 0.31202 0.0
C337 C 0.82947 0.60333 0.2957 0.0
C338 C 0.84075 0.6256 0.26163 0.0
C339 C 0.81884 0.60685 0.22913 0.0
C340 C 0.83186 0.67193 0.26471 0.0
C341 C 0.88619 0.61721 0.26065 0.0
C342 C 0.89911 0.59533 0.29031 0.0
C343 C 0.94006 0.58386 0.29473 0.0
C344 C 0.96828 0.59482 0.26797 0.0
C345 C 0.95499 0.61587 0.23693 0.0
C346 C 0.91357 0.6274 0.23354 0.0
H347 H 0.47788 0.43433 0.69317 0.0
H348 H 0.40202 0.49216 0.77363 0.0
H349 H 0.42365 0.43909 0.81751 0.0
H350 H 0.45468 0.33404 0.71496 0.0
H351 H 0.50507 0.31376 0.70637 0.0
H352 H 0.48781 0.35913 0.68324 0.0
H353 H 0.55094 0.39939 0.7061 0.0
H354 H 0.56867 0.35392 0.72908 0.0
H355 H 0.56142 0.40115 0.75333 0.0
H356 H 0.4483 0.37376 0.85047 0.0
H357 H 0.47552 0.30555 0.86916 0.0
H358 H 0.53461 0.29325 0.76607 0.0
C359 C 0.46645 0.43647 0.72023 0.0
C360 C 0.43837 0.46743 0.73 0.0
C361 C 0.42392 0.46891 0.76564 0.0
C362 C 0.43594 0.43881 0.7907 0.0
C363 C 0.46276 0.40784 0.77976 0.0
C364 C 0.47819 0.40696 0.7454 0.0
C365 C 0.50452 0.36942 0.73926 0.0
C366 C 0.48695 0.34252 0.7092 0.0
C367 C 0.54903 0.38172 0.7315 0.0
C368 C 0.50072 0.34858 0.77518 0.0
C369 C 0.47682 0.37107 0.79844 0.0
C370 C 0.46753 0.35626 0.83257 0.0
C371 C 0.48301 0.31748 0.84295 0.0
C372 C 0.50726 0.29405 0.81916 0.0
C373 C 0.51638 0.31031 0.78509 0.0
H374 H 0.56775 0.9989 0.20926 0.0
H375 H 0.53764 0.89715 0.27966 0.0
H376 H 0.5939 0.91736 0.32007 0.0
H377 H 0.67173 0.98664 0.2139 0.0
H378 H 0.6841 0.04061 0.21249 0.0
H379 H 0.63742 0.02268 0.1926 0.0
H380 H 0.59552 0.07323 0.23158 0.0
H381 H 0.64222 0.09165 0.25143 0.0
H382 H 0.60171 0.07233 0.2794 0.0
H383 H 0.65912 0.94393 0.34889 0.0
H384 H 0.72663 0.97433 0.36303 0.0
H385 H 0.71362 0.05731 0.27272 0.0
C386 C 0.57207 0.98156 0.23371 0.0
C387 C 0.54802 0.94661 0.24138 0.0
C388 C 0.55544 0.92424 0.27331 0.0
C389 C 0.58734 0.93551 0.29646 0.0
C390 C 0.61142 0.96932 0.2874 0.0
C391 C 0.60387 0.99218 0.25687 0.0
C392 C 0.63634 0.0246 0.25117 0.0
C393 C 0.65871 0.01821 0.21544 0.0
C394 C 0.61783 0.06803 0.25355 0.0
C395 C 0.66408 0.01565 0.2826 0.0
C396 C 0.64903 0.9841 0.30356 0.0
C397 C 0.67085 0.96907 0.33293 0.0
C398 C 0.70918 0.98648 0.34077 0.0
C399 C 0.72541 0.01822 0.31904 0.0
C400 C 0.70207 0.03323 0.28999 0.0
H401 H 0.97674 0.22225 0.77662 0.0
H402 H 0.0599 0.22953 0.86669 0.0
H403 H 0.08938 0.16188 0.84994 0.0
H404 H 0.96079 0.10987 0.77873 0.0
H405 H 0.9596 0.10698 0.7307 0.0
H406 H 0.94187 0.15277 0.75287 0.0
H407 H 0.99258 0.19666 0.71571 0.0
H408 H 1.01039 0.15115 0.69349 0.0
H409 H 0.04627 0.18381 0.71636 0.0
H410 H 0.11467 0.09687 0.81852 0.0
H411 H 0.13409 0.0427 0.7755 0.0
H412 H 0.03335 0.07953 0.70685 0.0
C413 C 1.00065 0.20942 0.79334 0.0
C414 C 0.016 0.23118 0.82302 0.0
C415 C 0.0475 0.21328 0.84395 0.0
C416 C 0.06435 0.17486 0.83465 0.0
C417 C 0.049 0.15468 0.80462 0.0
C418 C 0.01761 0.1714 0.78449 0.0
C419 C 1.00852 0.14576 0.75187 0.0
C420 C 0.96512 0.12777 0.75367 0.0
C421 C 0.01484 0.17084 0.71734 0.0
C422 C 0.04057 0.11252 0.75598 0.0
C423 C 0.06334 0.1177 0.78677 0.0
C424 C 0.09658 0.09222 0.79467 0.0
C425 C 0.10735 0.06146 0.77007 0.0
C426 C 0.08515 0.0567 0.73781 0.0
C427 C 0.05071 0.08197 0.73138 0.0
H428 H 0.12593 0.43514 0.83976 0.0
H429 H 0.04803 0.40521 0.74973 0.0
H430 H 0.1 0.43397 0.70849 0.0
H431 H 0.16443 0.53121 0.80454 0.0
H432 H 0.21467 0.5233 0.82326 0.0
H433 H 0.17056 0.50167 0.84502 0.0
H434 H 0.20386 0.42926 0.84219 0.0
H435 H 0.24795 0.45061 0.82024 0.0
H436 H 0.22011 0.40918 0.79969 0.0
H437 H 0.16327 0.46366 0.67718 0.0
H438 H 0.22984 0.49381 0.6593 0.0
H439 H 0.26382 0.5039 0.77094 0.0
C440 C 0.11954 0.43478 0.81139 0.0
C441 C 0.08297 0.41786 0.79793 0.0
C442 C 0.07583 0.41816 0.76062 0.0
C443 C 0.1052 0.43432 0.73702 0.0
C444 C 0.14127 0.45028 0.75128 0.0
C445 C 0.14823 0.45086 0.78767 0.0
C446 C 0.18938 0.46919 0.79655 0.0
C447 C 0.18445 0.50869 0.81864 0.0
C448 C 0.21694 0.43767 0.81579 0.0
C449 C 0.20487 0.4785 0.75946 0.0
C450 C 0.17688 0.46747 0.73357 0.0
C451 C 0.18526 0.47261 0.69729 0.0
C452 C 0.22314 0.48964 0.68738 0.0
C453 C 0.25198 0.50131 0.7137 0.0
C454 C 0.24245 0.49554 0.7501 0.0
H455 H 0.5478 0.58313 0.31428 0.0
H456 H 0.65533 0.55964 0.24955 0.0
H457 H 0.63576 0.61707 0.20951 0.0
H458 H 0.47898 0.61528 0.24083 0.0
H459 H 0.45506 0.65414 0.26799 0.0
H460 H 0.47491 0.60795 0.28842 0.0
H461 H 0.51935 0.65208 0.33086 0.0
H462 H 0.49996 0.69831 0.31042 0.0
H463 H 0.55433 0.68914 0.3122 0.0
H464 H 0.60745 0.68205 0.17994 0.0
H465 H 0.57279 0.7475 0.16381 0.0
H466 H 0.4851 0.72742 0.24896 0.0
C467 C 0.5668 0.58933 0.29122 0.0
C468 C 0.60298 0.56668 0.28498 0.0
C469 C 0.62727 0.57634 0.25476 0.0
C470 C 0.61641 0.60895 0.23185 0.0
C471 C 0.58108 0.63141 0.23942 0.0
C472 C 0.55651 0.62173 0.26827 0.0
C473 C 0.52185 0.65221 0.27232 0.0
C474 C 0.48024 0.63113 0.26706 0.0
C475 C 0.52404 0.67423 0.30859 0.0
C476 C 0.53126 0.68124 0.24183 0.0
C477 C 0.56522 0.66866 0.22282 0.0
C478 C 0.58054 0.6919 0.19442 0.0
C479 C 0.56073 0.72903 0.18546 0.0
C480 C 0.52627 0.74261 0.2051 0.0
C481 C 0.51131 0.71797 0.23332 0.0
H482 H 0.43495 0.04619 0.82571 0.0
H483 H 0.4754 0.14161 0.75261 0.0
H484 H 0.41911 0.12397 0.71138 0.0
H485 H 0.40065 0.97222 0.75782 0.0
H486 H 0.35739 0.95646 0.78429 0.0
H487 H 0.40351 0.97373 0.80586 0.0
H488 H 0.36161 0.02846 0.84037 0.0
H489 H 0.31549 1.01164 0.81871 0.0
H490 H 0.33062 0.06481 0.81583 0.0
H491 H 0.35441 0.09954 0.68052 0.0
H492 H 0.28801 0.06938 0.66251 0.0
H493 H 0.29071 0.991 0.75656 0.0
C494 C 0.43262 0.0628 0.80068 0.0
C495 C 0.45975 0.09513 0.79233 0.0
C496 C 0.45509 0.11657 0.75953 0.0
C497 C 0.4232 0.10678 0.73593 0.0
C498 C 0.39632 0.07542 0.74545 0.0
C499 C 0.40093 0.05359 0.77696 0.0
C500 C 0.36658 0.0231 0.78217 0.0
C501 C 0.38303 0.97875 0.78254 0.0
C502 C 0.34214 0.0326 0.81628 0.0
C503 C 0.34153 0.03165 0.74899 0.0
C504 C 0.35919 0.06169 0.72795 0.0
C505 C 0.34052 0.07568 0.69663 0.0
C506 C 0.30279 0.05848 0.68665 0.0
C507 C 0.28417 0.02782 0.70807 0.0
C508 C 0.30414 1.01424 0.73946 0.0
H509 H 0.91317 0.7643 0.20357 0.0
H510 H 0.03093 0.8132 0.17128 0.0
H511 H 0.01178 0.88087 0.19625 0.0
H512 H 0.85247 0.85904 0.18883 0.0
H513 H 0.82145 0.84958 0.22773 0.0
H514 H 0.84241 0.807 0.20303 0.0
H515 H 0.8762 0.77907 0.26084 0.0
H516 H 0.85577 0.82164 0.28567 0.0
H517 H 0.91007 0.81182 0.28589 0.0
H518 H 0.98197 0.94139 0.22989 0.0
H519 H 0.9442 0.98922 0.26921 0.0
H520 H 0.84709 0.89929 0.2802 0.0
C521 C 0.9346 0.78946 0.20087 0.0
C522 C 0.97345 0.78352 0.1852 0.0
C523 C 1.00088 0.8171 0.18295 0.0
C524 C 0.99026 0.85565 0.19704 0.0
C525 C 0.95211 0.8601 0.21322 0.0
C526 C 0.92464 0.8279 0.215 0.0
C527 C 0.88699 0.83945 0.23622 0.0
C528 C 0.84856 0.83873 0.21253 0.0
C529 C 0.882 0.81133 0.26909 0.0
C530 C 0.89793 0.88287 0.24687 0.0
C531 C 0.93535 0.89449 0.23303 0.0
C532 C 0.95244 0.93276 0.24054 0.0
C533 C 0.9308 0.9597 0.26294 0.0
C534 C 0.89269 0.94804 0.27779 0.0
C535 C 0.87607 0.90924 0.26923 0.0
loop_
_geom_bond_atom_site_label_1
_geom_bond_atom_site_label_2
_geom_bond_distance
_geom_bond_site_symmetry_2
_ccdc_geom_bond_type
Mg0 O7 2.141 . S
Mg0 O8 2.048 1_455 S
Mg0 O9 2.048 . S
Mg0 O12 2.141 . S
C1 O2 1.313 . S
C1 O8 1.195 . S
O2 C1 1.313 . S
C3 O4 1.245 . S
C3 O12 1.289 . S
O4 C3 1.245 . S
C5 O6 1.245 . S
C5 O7 1.289 . S
O6 C5 1.245 . S
O7 Mg0 2.141 . S
O7 C5 1.289 . S
O8 Mg0 2.048 1_655 S
O8 C1 1.195 . S
O9 Mg0 2.048 . S
O9 C10 1.195 . S
C10 O9 1.195 . S
C10 O11 1.313 1_455 S
O11 C10 1.313 1_655 S
O12 Mg0 2.141 . S
O12 C3 1.289 . S
Mg13 O20 2.141 . S
Mg13 O21 2.048 . S
Mg13 O22 2.048 . S
Mg13 O25 2.141 . S
C14 O15 1.313 . S
C14 O21 1.195 . S
O15 C14 1.313 . S
C16 O17 1.245 . S
C16 O25 1.289 . S
O17 C16 1.245 . S
C18 O19 1.245 . S
C18 O20 1.289 . S
O19 C18 1.245 . S
O20 Mg13 2.141 . S
O20 C18 1.289 . S
O21 Mg13 2.048 . S
O21 C14 1.195 . S
O22 Mg13 2.048 . S
O22 C23 1.195 . S
C23 O22 1.195 . S
C23 O24 1.313 . S
O24 C23 1.313 . S
O25 Mg13 2.141 . S
O25 C16 1.289 . S
Mg26 O33 2.141 . S
Mg26 O34 2.048 . S
Mg26 O35 2.048 . S
Mg26 O38 2.141 . S
C27 O28 1.313 . S
C27 O34 1.195 . S
O28 C27 1.313 . S
C29 O30 1.245 . S
C29 O38 1.289 . S
O30 C29 1.245 . S
C31 O32 1.245 . S
C31 O33 1.289 . S
O32 C31 1.245 . S
O33 Mg26 2.141 . S
O33 C31 1.289 . S
O34 Mg26 2.048 . S
O34 C27 1.195 . S
O35 Mg26 2.048 . S
O35 C36 1.195 . S
C36 O35 1.195 . S
C36 O37 1.313 . S
O37 C36 1.313 . S
O38 Mg26 2.141 . S
O38 C29 1.289 . S
Mg39 O46 2.141 . S
Mg39 O47 2.048 1_565 S
Mg39 O48 2.048 . S
Mg39 O51 2.141 . S
C40 O41 1.313 . S
C40 O47 1.195 . S
O41 C40 1.313 . S
C42 O43 1.245 . S
C42 O51 1.289 . S
O43 C42 1.245 . S
C44 O45 1.245 . S
C44 O46 1.289 . S
O45 C44 1.245 . S
O46 Mg39 2.141 . S
O46 C44 1.289 . S
O47 Mg39 2.048 1_545 S
O47 C40 1.195 . S
O48 Mg39 2.048 . S
O48 C49 1.195 . S
C49 O48 1.195 . S
C49 O50 1.313 1_565 S
O50 C49 1.313 1_545 S
O51 Mg39 2.141 . S
O51 C42 1.289 . S
Mg52 O59 2.141 . S
Mg52 O60 2.048 . S
Mg52 O61 2.048 1_655 S
Mg52 O64 2.141 . S
C53 O54 1.313 1_655 S
C53 O60 1.195 . S
O54 C53 1.313 1_455 S
C55 O56 1.245 . S
C55 O64 1.289 . S
O56 C55 1.245 . S
C57 O58 1.245 . S
C57 O59 1.289 . S
O58 C57 1.245 . S
O59 Mg52 2.141 . S
O59 C57 1.289 . S
O60 Mg52 2.048 . S
O60 C53 1.195 . S
O61 Mg52 2.048 1_455 S
O61 C62 1.195 . S
C62 O61 1.195 . S
C62 O63 1.313 . S
O63 C62 1.313 . S
O64 Mg52 2.141 . S
O64 C55 1.289 . S
Mg65 O72 2.141 . S
Mg65 O73 2.048 . S
Mg65 O74 2.048 . S
Mg65 O77 2.141 . S
C66 O67 1.313 . S
C66 O73 1.195 . S
O67 C66 1.313 . S
C68 O69 1.245 . S
C68 O77 1.289 . S
O69 C68 1.245 . S
C70 O71 1.245 . S
C70 O72 1.289 . S
O71 C70 1.245 . S
O72 Mg65 2.141 . S
O72 C70 1.289 . S
O73 Mg65 2.048 . S
O73 C66 1.195 . S
O74 Mg65 2.048 . S
O74 C75 1.195 . S
C75 O74 1.195 . S
C75 O76 1.313 . S
O76 C75 1.313 . S
O77 Mg65 2.141 . S
O77 C68 1.289 . S
Mg78 O85 2.141 . S
Mg78 O86 2.048 . S
Mg78 O87 2.048 . S
Mg78 O90 2.141 . S
C79 O80 1.313 . S
C79 O86 1.195 . S
O80 C79 1.313 . S
C81 O82 1.245 . S
C81 O90 1.289 . S
O82 C81 1.245 . S
C83 O84 1.245 . S
C83 O85 1.289 . S
O84 C83 1.245 . S
O85 Mg78 2.141 . S
O85 C83 1.289 . S
O86 Mg78 2.048 . S
O86 C79 1.195 . S
O87 Mg78 2.048 . S
O87 C88 1.195 . S
C88 O87 1.195 . S
C88 O89 1.313 . S
O89 C88 1.313 . S
O90 Mg78 2.141 . S
O90 C81 1.289 . S
Mg91 O98 2.141 . S
Mg91 O99 2.048 . S
Mg91 O100 2.048 1_545 S
Mg91 O103 2.141 . S
C92 O93 1.313 1_545 S
C92 O99 1.195 . S
O93 C92 1.313 1_565 S
C94 O95 1.245 . S
C94 O103 1.289 . S
O95 C94 1.245 . S
C96 O97 1.245 . S
C96 O98 1.289 . S
O97 C96 1.245 . S
O98 Mg91 2.141 . S
O98 C96 1.289 . S
O99 Mg91 2.048 . S
O99 C92 1.195 . S
O100 Mg91 2.048 1_565 S
O100 C101 1.195 . S
C101 O100 1.195 . S
C101 O102 1.313 . S
O102 C101 1.313 . S
O103 Mg91 2.141 . S
O103 C94 1.289 . S
H104 C116 0.930 . S
H105 C118 0.930 . S
H106 C119 0.930 . S
H107 C123 0.959 . S
H108 C123 0.959 . S
H109 C123 0.961 . S
H110 C124 0.960 . S
H111 C124 0.961 . S
H112 C124 0.959 . S
H113 C127 0.929 . S
H114 C128 0.931 . S
H115 C130 0.930 . S
C116 H104 0.930 . S
C116 C117 1.399 1_455 S
C116 C121 1.399 . S
C117 C116 1.399 1_655 S
C117 C118 1.376 . S
C118 H105 0.930 . S
C118 C117 1.376 . S
C118 C119 1.388 . S
C119 H106 0.930 . S
C119 C118 1.388 . S
C119 C120 1.390 . S
C120 C119 1.390 . S
C120 C121 1.394 1_655 S
C120 C126 1.465 1_556 S
C121 C116 1.399 . S
C121 C120 1.394 1_455 S
C121 C122 1.495 1_556 S
C122 C121 1.495 1_554 S
C122 C123 1.518 . S
C122 C124 1.546 1_554 S
C122 C125 1.546 . S
C123 H107 0.959 . S
C123 H108 0.959 . S
C123 H109 0.961 . S
C123 C122 1.518 . S
C124 H110 0.960 . S
C124 H111 0.961 . S
C124 H112 0.959 . S
C124 C122 1.546 1_556 S
C125 C122 1.546 . S
C125 C126 1.396 1_455 S
C125 C130 1.390 . S
C126 C120 1.465 1_554 S
C126 C125 1.396 1_655 S
C126 C127 1.399 . S
C127 H113 0.929 . S
C127 C126 1.399 . S
C127 C128 1.385 . S
C128 H114 0.931 . S
C128 C127 1.385 . S
C128 C129 1.389 1_655 S
C129 C128 1.389 1_455 S
C129 C130 1.387 . S
C130 H115 0.930 . S
C130 C125 1.390 . S
C130 C129 1.387 . S
H131 C143 0.930 . S
H132 C145 0.930 . S
H133 C146 0.930 . S
H134 C150 0.959 . S
H135 C150 0.959 . S
H136 C150 0.961 . S
H137 C151 0.960 . S
H138 C151 0.961 . S
H139 C151 0.959 . S
H140 C154 0.929 . S
H141 C155 0.931 . S
H142 C157 0.930 . S
C143 H131 0.930 . S
C143 C144 1.399 . S
C143 C148 1.399 . S
C144 C143 1.399 . S
C144 C145 1.376 . S
C145 H132 0.930 . S
C145 C144 1.376 . S
C145 C146 1.388 . S
C146 H133 0.930 . S
C146 C145 1.388 . S
C146 C147 1.390 . S
C147 C146 1.390 . S
C147 C148 1.394 . S
C147 C153 1.465 . S
C148 C143 1.399 . S
C148 C147 1.394 . S
C148 C149 1.516 . S
C149 C148 1.516 . S
C149 C150 1.502 . S
C149 C151 1.561 . S
C149 C152 1.526 . S
C150 H134 0.959 . S
C150 H135 0.959 . S
C150 H136 0.961 . S
C150 C149 1.502 . S
C151 H137 0.960 . S
C151 H138 0.961 . S
C151 H139 0.959 . S
C151 C149 1.561 . S
C152 C149 1.526 . S
C152 C153 1.396 . S
C152 C157 1.390 . S
C153 C147 1.465 . S
C153 C152 1.396 . S
C153 C154 1.399 . S
C154 H140 0.929 . S
C154 C153 1.399 . S
C154 C155 1.385 . S
C155 H141 0.931 . S
C155 C154 1.385 . S
C155 C156 1.389 . S
C156 C155 1.389 . S
C156 C157 1.387 . S
C157 H142 0.930 . S
C157 C152 1.390 . S
C157 C156 1.387 . S
H158 C170 0.931 1_545 S
H159 C172 0.930 . S
H160 C173 0.930 . S
H161 C177 0.959 1_556 S
H162 C177 0.959 . S
H163 C177 0.961 . S
H164 C178 0.960 . S
H165 C178 0.961 . S
H166 C178 0.959 . S
H167 C181 0.929 . S
H168 C182 0.931 . S
H169 C184 0.930 . S
C170 H158 0.931 1_565 S
C170 C171 1.399 . S
C170 C175 1.399 . S
C171 C170 1.399 . S
C171 C172 1.376 . S
C172 H159 0.930 . S
C172 C171 1.376 . S
C172 C173 1.388 . S
C173 H160 0.930 . S
C173 C172 1.388 . S
C173 C174 1.390 . S
C174 C173 1.390 . S
C174 C175 1.394 . S
C174 C180 1.465 1_554 S
C175 C170 1.399 . S
C175 C174 1.394 . S
C175 C176 1.516 1_565 S
C176 C175 1.516 1_545 S
C176 C177 1.502 . S
C176 C178 1.561 . S
C176 C179 1.526 1_554 S
C177 H161 0.959 1_554 S
C177 H162 0.959 . S
C177 H163 0.961 . S
C177 C176 1.502 . S
C178 H164 0.960 . S
C178 H165 0.961 . S
C178 H166 0.959 . S
C178 C176 1.561 . S
C179 C176 1.526 1_556 S
C179 C180 1.396 1_545 S
C179 C184 1.390 . S
C180 C174 1.465 1_556 S
C180 C179 1.396 1_565 S
C180 C181 1.399 . S
C181 H167 0.929 . S
C181 C180 1.399 . S
C181 C182 1.385 1_565 S
C182 H168 0.931 . S
C182 C181 1.385 1_545 S
C182 C183 1.389 . S
C183 C182 1.389 . S
C183 C184 1.387 . S
C184 H169 0.930 . S
C184 C179 1.390 . S
C184 C183 1.387 . S
H185 C197 0.930 . S
H186 C199 0.930 . S
H187 C200 0.930 . S
H188 C204 0.959 . S
H189 C204 0.959 . S
H190 C204 0.961 . S
H191 C205 0.960 . S
H192 C205 0.961 . S
H193 C205 0.959 . S
H194 C208 0.929 . S
H195 C209 0.931 . S
H196 C211 0.930 . S
C197 H185 0.930 . S
C197 C198 1.399 1_565 S
C197 C202 1.399 . S
C198 C197 1.399 1_545 S
C198 C199 1.376 . S
C199 H186 0.930 . S
C199 C198 1.376 . S
C199 C200 1.388 . S
C200 H187 0.930 . S
C200 C199 1.388 . S
C200 C201 1.390 . S
C201 C200 1.390 . S
C201 C202 1.394 1_545 S
C201 C207 1.465 1_655 S
C202 C197 1.399 . S
C202 C201 1.394 1_565 S
C202 C203 1.516 . S
C203 C202 1.516 . S
C203 C204 1.502 . S
C203 C205 1.561 1_655 S
C203 C206 1.526 1_655 S
C204 H188 0.959 . S
C204 H189 0.959 . S
C204 H190 0.961 . S
C204 C203 1.502 . S
C205 H191 0.960 . S
C205 H192 0.961 . S
C205 H193 0.959 . S
C205 C203 1.561 1_455 S
C206 C203 1.526 1_455 S
C206 C207 1.396 1_565 S
C206 C211 1.390 . S
C207 C201 1.465 1_455 S
C207 C206 1.396 1_545 S
C207 C208 1.399 . S
C208 H194 0.929 . S
C208 C207 1.399 . S
C208 C209 1.385 . S
C209 H195 0.931 . S
C209 C208 1.385 . S
C209 C210 1.389 1_545 S
C210 C209 1.389 1_565 S
C210 C211 1.387 . S
C211 H196 0.930 . S
C211 C206 1.390 . S
C211 C210 1.387 . S
H212 C224 0.930 . S
H213 C226 0.930 . S
H214 C227 0.930 . S
H215 C231 0.959 . S
H216 C231 0.959 . S
H217 C231 0.961 . S
H218 C232 0.960 . S
H219 C232 0.961 . S
H220 C232 0.959 . S
H221 C235 0.929 . S
H222 C236 0.931 . S
H223 C238 0.930 . S
C224 H212 0.930 . S
C224 C225 1.399 . S
C224 C229 1.399 . S
C225 C224 1.399 . S
C225 C226 1.376 . S
C226 H213 0.930 . S
C226 C225 1.376 . S
C226 C227 1.388 . S
C227 H214 0.930 . S
C227 C226 1.388 . S
C227 C228 1.390 . S
C228 C227 1.390 . S
C228 C229 1.394 . S
C228 C234 1.465 . S
C229 C224 1.399 . S
C229 C228 1.394 . S
C229 C230 1.516 . S
C230 C229 1.516 . S
C230 C231 1.502 . S
C230 C232 1.561 . S
C230 C233 1.526 . S
C231 H215 0.959 . S
C231 H216 0.959 . S
C231 H217 0.961 . S
C231 C230 1.502 . S
C232 H218 0.960 . S
C232 H219 0.961 . S
C232 H220 0.959 . S
C232 C230 1.561 . S
C233 C230 1.526 . S
C233 C234 1.396 . S
C233 C238 1.390 . S
C234 C228 1.465 . S
C234 C233 1.396 . S
C234 C235 1.399 . S
C235 H221 0.929 . S
C235 C234 1.399 . S
C235 C236 1.385 . S
C236 H222 0.931 . S
C236 C235 1.385 . S
C236 C237 1.389 . S
C237 C236 1.389 . S
C237 C238 1.387 . S
C238 H223 0.930 . S
C238 C233 1.390 . S
C238 C237 1.387 . S
H239 C251 0.930 . S
H240 C253 0.930 . S
H241 C254 0.930 . S
H242 C258 0.959 . S
H243 C258 0.959 . S
H244 C258 0.961 . S
H245 C259 0.960 . S
H246 C259 0.961 . S
H247 C259 0.959 . S
H248 C262 0.929 . S
H249 C263 0.931 . S
H250 C265 0.930 . S
C251 H239 0.930 . S
C251 C252 1.399 . S
C251 C256 1.399 . S
C252 C251 1.399 . S
C252 C253 1.376 . S
C253 H240 0.930 . S
C253 C252 1.376 . S
C253 C254 1.388 . S
C254 H241 0.930 . S
C254 C253 1.388 . S
C254 C255 1.390 . S
C255 C254 1.390 . S
C255 C256 1.394 . S
C255 C261 1.465 . S
C256 C251 1.399 . S
C256 C255 1.394 . S
C256 C257 1.516 . S
C257 C256 1.516 . S
C257 C258 1.502 . S
C257 C259 1.561 . S
C257 C260 1.526 . S
C258 H242 0.959 . S
C258 H243 0.959 . S
C258 H244 0.961 . S
C258 C257 1.502 . S
C259 H245 0.960 . S
C259 H246 0.961 . S
C259 H247 0.959 . S
C259 C257 1.561 . S
C260 C257 1.526 . S
C260 C261 1.396 . S
C260 C265 1.390 . S
C261 C255 1.465 . S
C261 C260 1.396 . S
C261 C262 1.399 . S
C262 H248 0.929 . S
C262 C261 1.399 . S
C262 C263 1.385 . S
C263 H249 0.931 . S
C263 C262 1.385 . S
C263 C264 1.389 . S
C264 C263 1.389 . S
C264 C265 1.387 . S
C265 H250 0.930 . S
C265 C260 1.390 . S
C265 C264 1.387 . S
H266 C278 0.930 . S
H267 C280 0.930 . S
H268 C281 0.930 . S
H269 C285 0.959 . S
H270 C285 0.959 . S
H271 C285 0.961 . S
H272 C286 0.960 . S
H273 C286 0.961 . S
H274 C286 0.959 . S
H275 C289 0.929 . S
H276 C290 0.931 . S
H277 C292 0.930 . S
C278 H266 0.930 . S
C278 C279 1.399 . S
C278 C283 1.399 . S
C279 C278 1.399 . S
C279 C280 1.376 . S
C280 H267 0.930 . S
C280 C279 1.376 . S
C280 C281 1.388 . S
C281 H268 0.930 . S
C281 C280 1.388 . S
C281 C282 1.390 . S
C282 C281 1.390 . S
C282 C283 1.394 . S
C282 C288 1.465 . S
C283 C278 1.399 . S
C283 C282 1.394 . S
C283 C284 1.516 . S
C284 C283 1.516 . S
C284 C285 1.502 . S
C284 C286 1.561 . S
C284 C287 1.526 . S
C285 H269 0.959 . S
C285 H270 0.959 . S
C285 H271 0.961 . S
C285 C284 1.502 . S
C286 H272 0.960 . S
C286 H273 0.961 . S
C286 H274 0.959 . S
C286 C284 1.561 . S
C287 C284 1.526 . S
C287 C288 1.396 . S
C287 C292 1.390 . S
C288 C282 1.465 . S
C288 C287 1.396 . S
C288 C289 1.399 . S
C289 H275 0.929 . S
C289 C288 1.399 . S
C289 C290 1.385 . S
C290 H276 0.931 . S
C290 C289 1.385 . S
C290 C291 1.389 . S
C291 C290 1.389 . S
C291 C292 1.387 . S
C292 H277 0.930 . S
C292 C287 1.390 . S
C292 C291 1.387 . S
H293 C305 0.930 . S
H294 C307 0.930 . S
H295 C308 0.930 . S
H296 C312 0.959 . S
H297 C312 0.959 . S
H298 C312 0.961 . S
H299 C313 0.960 . S
H300 C313 0.961 . S
H301 C313 0.959 . S
H302 C316 0.929 . S
H303 C317 0.931 . S
H304 C319 0.930 . S
C305 H293 0.930 . S
C305 C306 1.399 . S
C305 C310 1.399 . S
C306 C305 1.399 . S
C306 C307 1.376 . S
C307 H294 0.930 . S
C307 C306 1.376 . S
C307 C308 1.388 . S
C308 H295 0.930 . S
C308 C307 1.388 . S
C308 C309 1.390 . S
C309 C308 1.390 . S
C309 C310 1.394 . S
C309 C315 1.465 . S
C310 C305 1.399 . S
C310 C309 1.394 . S
C310 C311 1.516 . S
C311 C310 1.516 . S
C311 C312 1.502 . S
C311 C313 1.561 . S
C311 C314 1.526 . S
C312 H296 0.959 . S
C312 H297 0.959 . S
C312 H298 0.961 . S
C312 C311 1.502 . S
C313 H299 0.960 . S
C313 H300 0.961 . S
C313 H301 0.959 . S
C313 C311 1.561 . S
C314 C311 1.526 . S
C314 C315 1.396 . S
C314 C319 1.390 . S
C315 C309 1.465 . S
C315 C314 1.396 . S
C315 C316 1.399 . S
C316 H302 0.929 . S
C316 C315 1.399 . S
C316 C317 1.385 . S
C317 H303 0.931 . S
C317 C316 1.385 . S
C317 C318 1.389 . S
C318 C317 1.389 . S
C318 C319 1.387 . S
C319 H304 0.930 . S
C319 C314 1.390 . S
C319 C318 1.387 . S
H320 C332 0.930 . S
H321 C334 0.930 . S
H322 C335 0.930 . S
H323 C339 0.959 . S
H324 C339 0.959 . S
H325 C339 0.961 . S
H326 C340 0.960 . S
H327 C340 0.961 . S
H328 C340 0.959 . S
H329 C343 0.929 . S
H330 C344 0.931 . S
H331 C346 0.930 . S
C332 H320 0.930 . S
C332 C333 1.399 . S
C332 C337 1.399 . S
C333 C332 1.399 . S
C333 C334 1.376 . S
C334 H321 0.930 . S
C334 C333 1.376 . S
C334 C335 1.388 . S
C335 H322 0.930 . S
C335 C334 1.388 . S
C335 C336 1.390 . S
C336 C335 1.390 . S
C336 C337 1.394 . S
C336 C342 1.465 . S
C337 C332 1.399 . S
C337 C336 1.394 . S
C337 C338 1.516 . S
C338 C337 1.516 . S
C338 C339 1.502 . S
C338 C340 1.561 . S
C338 C341 1.526 . S
C339 H323 0.959 . S
C339 H324 0.959 . S
C339 H325 0.961 . S
C339 C338 1.502 . S
C340 H326 0.960 . S
C340 H327 0.961 . S
C340 H328 0.959 . S
C340 C338 1.561 . S
C341 C338 1.526 . S
C341 C342 1.396 . S
C341 C346 1.390 . S
C342 C336 1.465 . S
C342 C341 1.396 . S
C342 C343 1.399 . S
C343 H329 0.929 . S
C343 C342 1.399 . S
C343 C344 1.385 . S
C344 H330 0.931 . S
C344 C343 1.385 . S
C344 C345 1.389 . S
C345 C344 1.389 . S
C345 C346 1.387 . S
C346 H331 0.930 . S
C346 C341 1.390 . S
C346 C345 1.387 . S
H347 C359 0.930 . S
H348 C361 0.930 . S
H349 C362 0.930 . S
H350 C366 0.959 . S
H351 C366 0.959 . S
H352 C366 0.961 . S
H353 C367 0.960 . S
H354 C367 0.961 . S
H355 C367 0.959 . S
H356 C370 0.929 . S
H357 C371 0.931 . S
H358 C373 0.930 . S
C359 H347 0.930 . S
C359 C360 1.399 . S
C359 C364 1.399 . S
C360 C359 1.399 . S
C360 C361 1.376 . S
C361 H348 0.930 . S
C361 C360 1.376 . S
C361 C362 1.388 . S
C362 H349 0.930 . S
C362 C361 1.388 . S
C362 C363 1.390 . S
C363 C362 1.390 . S
C363 C364 1.394 . S
C363 C369 1.465 . S
C364 C359 1.399 . S
C364 C363 1.394 . S
C364 C365 1.516 . S
C365 C364 1.516 . S
C365 C366 1.502 . S
C365 C367 1.561 . S
C365 C368 1.526 . S
C366 H350 0.959 . S
C366 H351 0.959 . S
C366 H352 0.961 . S
C366 C365 1.502 . S
C367 H353 0.960 . S
C367 H354 0.961 . S
C367 H355 0.959 . S
C367 C365 1.561 . S
C368 C365 1.526 . S
C368 C369 1.396 . S
C368 C373 1.390 . S
C369 C363 1.465 . S
C369 C368 1.396 . S
C369 C370 1.399 . S
C370 H356 0.929 . S
C370 C369 1.399 . S
C370 C371 1.385 . S
C371 H357 0.931 . S
C371 C370 1.385 . S
C371 C372 1.389 . S
C372 C371 1.389 . S
C372 C373 1.387 . S
C373 H358 0.930 . S
C373 C368 1.390 . S
C373 C372 1.387 . S
H374 C386 0.930 . S
H375 C388 0.930 . S
H376 C389 0.930 . S
H377 C393 0.952 1_565 S
H378 C393 0.970 . S
H379 C393 0.961 . S
H380 C394 0.960 . S
H381 C394 0.961 . S
H382 C394 0.959 . S
H383 C397 0.929 . S
H384 C398 0.931 . S
H385 C400 0.930 . S
C386 H374 0.930 . S
C386 C387 1.399 . S
C386 C391 1.399 . S
C387 C386 1.399 . S
C387 C388 1.376 . S
C388 H375 0.930 . S
C388 C387 1.376 . S
C388 C389 1.388 . S
C389 H376 0.930 . S
C389 C388 1.388 . S
C389 C390 1.390 . S
C390 C389 1.390 . S
C390 C391 1.394 . S
C390 C396 1.465 . S
C391 C386 1.399 . S
C391 C390 1.394 . S
C391 C392 1.516 . S
C392 C391 1.516 . S
C392 C393 1.498 1_565 S
C392 C394 1.561 1_565 S
C392 C395 1.526 . S
C393 H377 0.952 1_545 S
C393 H378 0.970 . S
C393 H379 0.961 . S
C393 C392 1.498 1_545 S
C394 H380 0.960 . S
C394 H381 0.961 . S
C394 H382 0.959 . S
C394 C392 1.561 1_545 S
C395 C392 1.526 . S
C395 C396 1.396 . S
C395 C400 1.390 1_565 S
C396 C390 1.465 . S
C396 C395 1.396 . S
C396 C397 1.399 . S
C397 H383 0.929 . S
C397 C396 1.399 . S
C397 C398 1.385 . S
C398 H384 0.931 . S
C398 C397 1.385 . S
C398 C399 1.389 . S
C399 C398 1.389 . S
C399 C400 1.387 1_565 S
C400 H385 0.930 . S
C400 C395 1.390 1_545 S
C400 C399 1.387 1_545 S
H401 C413 0.932 . S
H402 C415 0.930 . S
H403 C416 0.930 . S
H404 C420 0.959 . S
H405 C420 0.959 . S
H406 C420 0.961 . S
H407 C421 0.960 . S
H408 C421 0.961 . S
H409 C421 0.959 . S
H410 C424 0.929 . S
H411 C425 0.931 . S
H412 C427 0.930 . S
C413 H401 0.932 . S
C413 C414 1.399 1_655 S
C413 C418 1.398 1_655 S
C414 C413 1.399 1_455 S
C414 C415 1.376 . S
C415 H402 0.930 . S
C415 C414 1.376 . S
C415 C416 1.388 . S
C416 H403 0.930 . S
C416 C415 1.388 . S
C416 C417 1.390 . S
C417 C416 1.390 . S
C417 C418 1.394 . S
C417 C423 1.465 . S
C418 C413 1.398 1_455 S
C418 C417 1.394 . S
C418 C419 1.516 . S
C419 C418 1.516 . S
C419 C420 1.502 1_455 S
C419 C421 1.561 . S
C419 C422 1.526 . S
C420 H404 0.959 . S
C420 H405 0.959 . S
C420 H406 0.961 . S
C420 C419 1.502 1_655 S
C421 H407 0.960 . S
C421 H408 0.961 . S
C421 H409 0.959 . S
C421 C419 1.561 . S
C422 C419 1.526 . S
C422 C423 1.396 . S
C422 C427 1.390 . S
C423 C417 1.465 . S
C423 C422 1.396 . S
C423 C424 1.399 . S
C424 H410 0.929 . S
C424 C423 1.399 . S
C424 C425 1.385 . S
C425 H411 0.931 . S
C425 C424 1.385 . S
C425 C426 1.389 . S
C426 C425 1.389 . S
C426 C427 1.387 . S
C427 H412 0.930 . S
C427 C422 1.390 . S
C427 C426 1.387 . S
H428 C440 0.930 . S
H429 C442 0.930 . S
H430 C443 0.930 . S
H431 C447 0.959 . S
H432 C447 0.959 . S
H433 C447 0.961 . S
H434 C448 0.960 . S
H435 C448 0.961 . S
H436 C448 0.959 . S
H437 C451 0.929 . S
H438 C452 0.931 . S
H439 C454 0.930 . S
C440 H428 0.930 . S
C440 C441 1.399 . S
C440 C445 1.399 . S
C441 C440 1.399 . S
C441 C442 1.376 . S
C442 H429 0.930 . S
C442 C441 1.376 . S
C442 C443 1.388 . S
C443 H430 0.930 . S
C443 C442 1.388 . S
C443 C444 1.390 . S
C444 C443 1.390 . S
C444 C445 1.394 . S
C444 C450 1.465 . S
C445 C440 1.399 . S
C445 C444 1.394 . S
C445 C446 1.516 . S
C446 C445 1.516 . S
C446 C447 1.502 . S
C446 C448 1.561 . S
C446 C449 1.526 . S
C447 H431 0.959 . S
C447 H432 0.959 . S
C447 H433 0.961 . S
C447 C446 1.502 . S
C448 H434 0.960 . S
C448 H435 0.961 . S
C448 H436 0.959 . S
C448 C446 1.561 . S
C449 C446 1.526 . S
C449 C450 1.396 . S
C449 C454 1.390 . S
C450 C444 1.465 . S
C450 C449 1.396 . S
C450 C451 1.399 . S
C451 H437 0.929 . S
C451 C450 1.399 . S
C451 C452 1.385 . S
C452 H438 0.931 . S
C452 C451 1.385 . S
C452 C453 1.389 . S
C453 C452 1.389 . S
C453 C454 1.387 . S
C454 H439 0.930 . S
C454 C449 1.390 . S
C454 C453 1.387 . S
H455 C467 0.930 . S
H456 C469 0.930 . S
H457 C470 0.930 . S
H458 C474 0.959 . S
H459 C474 0.959 . S
H460 C474 0.961 . S
H461 C475 0.960 . S
H462 C475 0.961 . S
H463 C475 0.959 . S
H464 C478 0.929 . S
H465 C479 0.931 . S
H466 C481 0.930 . S
C467 H455 0.930 . S
C467 C468 1.399 . S
C467 C472 1.399 . S
C468 C467 1.399 . S
C468 C469 1.376 . S
C469 H456 0.930 . S
C469 C468 1.376 . S
C469 C470 1.388 . S
C470 H457 0.930 . S
C470 C469 1.388 . S
C470 C471 1.390 . S
C471 C470 1.390 . S
C471 C472 1.394 . S
C471 C477 1.465 . S
C472 C467 1.399 . S
C472 C471 1.394 . S
C472 C473 1.516 . S
C473 C472 1.516 . S
C473 C474 1.502 . S
C473 C475 1.561 . S
C473 C476 1.526 . S
C474 H458 0.959 . S
C474 H459 0.959 . S
C474 H460 0.961 . S
C474 C473 1.502 . S
C475 H461 0.960 . S
C475 H462 0.961 . S
C475 H463 0.959 . S
C475 C473 1.561 . S
C476 C473 1.526 . S
C476 C477 1.396 . S
C476 C481 1.390 . S
C477 C471 1.465 . S
C477 C476 1.396 . S
C477 C478 1.399 . S
C478 H464 0.929 . S
C478 C477 1.399 . S
C478 C479 1.385 . S
C479 H465 0.931 . S
C479 C478 1.385 . S
C479 C480 1.389 . S
C480 C479 1.389 . S
C480 C481 1.387 . S
C481 H466 0.930 . S
C481 C476 1.390 . S
C481 C480 1.387 . S
H482 C494 0.930 . S
H483 C496 0.930 . S
H484 C497 0.930 . S
H485 C501 0.959 . S
H486 C501 0.959 . S
H487 C501 0.961 . S
H488 C502 0.960 . S
H489 C502 0.961 . S
H490 C502 0.959 . S
H491 C505 0.929 . S
H492 C506 0.931 . S
H493 C508 0.930 1_565 S
C494 H482 0.930 . S
C494 C495 1.399 . S
C494 C499 1.399 . S
C495 C494 1.399 . S
C495 C496 1.376 . S
C496 H483 0.930 . S
C496 C495 1.376 . S
C496 C497 1.388 . S
C497 H484 0.930 . S
C497 C496 1.388 . S
C497 C498 1.390 . S
C498 C497 1.390 . S
C498 C499 1.394 . S
C498 C504 1.465 . S
C499 C494 1.399 . S
C499 C498 1.394 . S
C499 C500 1.516 . S
C500 C499 1.516 . S
C500 C501 1.502 1_545 S
C500 C502 1.561 . S
C500 C503 1.526 . S
C501 H485 0.959 . S
C501 H486 0.959 . S
C501 H487 0.961 . S
C501 C500 1.502 1_565 S
C502 H488 0.960 . S
C502 H489 0.961 . S
C502 H490 0.959 . S
C502 C500 1.561 . S
C503 C500 1.526 . S
C503 C504 1.396 . S
C503 C508 1.390 . S
C504 C498 1.465 . S
C504 C503 1.396 . S
C504 C505 1.399 . S
C505 H491 0.929 . S
C505 C504 1.399 . S
C505 C506 1.385 . S
C506 H492 0.931 . S
C506 C505 1.385 . S
C506 C507 1.389 . S
C507 C506 1.389 . S
C507 C508 1.387 . S
C508 H493 0.930 1_545 S
C508 C503 1.390 . S
C508 C507 1.387 . S
H509 C521 0.930 . S
H510 C523 0.930 . S
H511 C524 0.930 1_455 S
H512 C528 0.959 . S
H513 C528 0.959 . S
H514 C528 0.961 . S
H515 C529 0.960 . S
H516 C529 0.961 . S
H517 C529 0.959 . S
H518 C532 0.929 . S
H519 C533 0.931 . S
H520 C535 0.930 . S
C521 H509 0.930 . S
C521 C522 1.399 . S
C521 C526 1.399 . S
C522 C521 1.399 . S
C522 C523 1.376 1_655 S
C523 H510 0.930 . S
C523 C522 1.376 1_455 S
C523 C524 1.388 1_455 S
C524 H511 0.930 1_655 S
C524 C523 1.388 1_655 S
C524 C525 1.390 . S
C525 C524 1.390 . S
C525 C526 1.394 . S
C525 C531 1.465 . S
C526 C521 1.399 . S
C526 C525 1.394 . S
C526 C527 1.516 . S
C527 C526 1.516 . S
C527 C528 1.502 . S
C527 C529 1.561 . S
C527 C530 1.526 . S
C528 H512 0.959 . S
C528 H513 0.959 . S
C528 H514 0.961 . S
C528 C527 1.502 . S
C529 H515 0.960 . S
C529 H516 0.961 . S
C529 H517 0.959 . S
C529 C527 1.561 . S
C530 C527 1.526 . S
C530 C531 1.396 . S
C530 C535 1.390 . S
C531 C525 1.465 . S
C531 C530 1.396 . S
C531 C532 1.399 . S
C532 H518 0.929 . S
C532 C531 1.399 . S
C532 C533 1.385 . S
C533 H519 0.931 . S
C533 C532 1.385 . S
C533 C534 1.389 . S
C534 C533 1.389 . S
C534 C535 1.387 . S
C535 H520 0.930 . S
C535 C530 1.390 . S
C535 C534 1.387 . S
C117 C55 1.847 . S
C129 C5 1.767 . S
C144 C18 1.824 . S
C156 C68 1.802 . S
C171 C31 1.767 . S
C183 C81 1.847 . S
C198 C94 1.843 . S
C210 C44 1.778 . S
C225 C3 1.930 . S
C237 C29 1.929 . S
C252 C16 1.930 . S
C264 C42 1.928 . S
C279 C83 1.929 . S
C291 C57 1.925 . S
C306 C70 1.927 . S
C318 C96 1.930 . S
C333 C66 1.460 . S
C345 C1 1.496 . S
C360 C14 1.482 . S
C372 C79 1.405 . S
C387 C27 1.482 . S
C399 C92 1.405 1_565 S
C414 C53 1.407 1_455 S
C426 C40 1.484 . S
C441 C62 1.489 . S
C453 C23 1.409 . S
C468 C75 1.484 . S
C480 C36 1.405 . S
C495 C88 1.484 . S
C507 C49 1.405 1_545 S
C522 C10 1.474 1_655 S
C534 C101 1.503 . S
