# Generated by pormake.
# Topology uoc, (4)-cn, num edge types: 1
# Building blocks:
#     Node 0, Type 0, BuildingBlock: ESEHIV_clean_sbu_0, # of connection points: 4
#     Node 1, Type 0, BuildingBlock: ESEHIV_clean_sbu_0, # of connection points: 4
#     Node 2, Type 0, BuildingBlock: ESEHIV_clean_sbu_0, # of connection points: 4
#     Node 3, Type 0, BuildingBlock: ESEHIV_clean_sbu_0, # of connection points: 4
#     Node 4, Type 0, BuildingBlock: ESEHIV_clean_sbu_0, # of connection points: 4
#     Node 5, Type 0, BuildingBlock: ESEHIV_clean_sbu_0, # of connection points: 4
#     Node 6, Type 0, BuildingBlock: ESEHIV_clean_sbu_0, # of connection points: 4
#     Node 7, Type 0, BuildingBlock: ESEHIV_clean_sbu_0, # of connection points: 4
#     Edge 8, Type (0, 0), BuildingBlock: XUDNAN_clean_linker_2, # of connection points: 2
#     Edge 9, Type (0, 0), BuildingBlock: XUDNAN_clean_linker_2, # of connection points: 2
#     Edge 10, Type (0, 0), BuildingBlock: XUDNAN_clean_linker_2, # of connection points: 2
#     Edge 11, Type (0, 0), BuildingBlock: XUDNAN_clean_linker_2, # of connection points: 2
#     Edge 12, Type (0, 0), BuildingBlock: XUDNAN_clean_linker_2, # of connection points: 2
#     Edge 13, Type (0, 0), BuildingBlock: XUDNAN_clean_linker_2, # of connection points: 2
#     Edge 14, Type (0, 0), BuildingBlock: XUDNAN_clean_linker_2, # of connection points: 2
#     Edge 15, Type (0, 0), BuildingBlock: XUDNAN_clean_linker_2, # of connection points: 2
#     Edge 16, Type (0, 0), BuildingBlock: XUDNAN_clean_linker_2, # of connection points: 2
#     Edge 17, Type (0, 0), BuildingBlock: XUDNAN_clean_linker_2, # of connection points: 2
#     Edge 18, Type (0, 0), BuildingBlock: XUDNAN_clean_linker_2, # of connection points: 2
#     Edge 19, Type (0, 0), BuildingBlock: XUDNAN_clean_linker_2, # of connection points: 2
#     Edge 20, Type (0, 0), BuildingBlock: XUDNAN_clean_linker_2, # of connection points: 2
#     Edge 21, Type (0, 0), BuildingBlock: XUDNAN_clean_linker_2, # of connection points: 2
#     Edge 22, Type (0, 0), BuildingBlock: XUDNAN_clean_linker_2, # of connection points: 2
#     Edge 23, Type (0, 0), BuildingBlock: XUDNAN_clean_linker_2, # of connection points: 2
# Relax obj value: 0.054
# Max RMSD: 0.264
# Mean RMSD: 0.264
data_MOF--net-uoc--node1-ESEHIV_clean_sbu_0--edge1-XUDNAN_clean_linker_2
_symmetry_space_group_name_H-M    P1
_symmetry_Int_Tables_number       1
_symmetry_cell_setting            triclinic
loop_
_symmetry_equiv_pos_as_xyz
'x, y, z'
_cell_length_a     32.837246
_cell_length_b     32.891286
_cell_length_c     52.341933
_cell_angle_alpha  89.647616
_cell_angle_beta   89.827771
_cell_angle_gamma 91.571329
loop_
_atom_site_label
_atom_site_type_symbol
_atom_site_fract_x
_atom_site_fract_y
_atom_site_fract_z
_atom_type_partial_charge
Cu0 Cu 0.1062 0.26155 0.14779 0.0
N1 N 0.07594 0.2138 0.15451 0.0
N2 N 0.05834 0.14808 0.15909 0.0
C3 C 0.08886 0.17532 0.1539 0.0
C4 C 0.02509 0.17038 0.1632 0.0
C5 C 0.03607 0.21087 0.16043 0.0
O6 O 0.14179 0.25424 0.11857 0.0
C7 C 0.12176 0.28046 0.19924 0.0
O8 O 0.08217 0.27456 0.20146 0.0
H9 H 0.1198 0.1675 0.14924 0.0
H10 H 1.01636 0.23644 0.16257 0.0
N11 N 0.07094 0.30336 0.14028 0.0
N12 N 0.04271 0.36438 0.13886 0.0
C13 C 0.07289 0.34198 0.14869 0.0
C14 C 0.03857 0.30116 0.12464 0.0
C15 C 0.02105 0.33868 0.12375 0.0
C16 C 0.1293 0.23647 0.09841 0.0
O17 O 0.0917 0.22184 0.09757 0.0
H18 H 0.09647 0.35351 0.16133 0.0
H19 H 0.02847 0.27411 0.11459 0.0
O20 O 0.13844 0.27615 0.17749 0.0
H21 H 0.99507 0.15834 0.16816 0.0
H22 H 0.99423 0.34625 0.11295 0.0
Cu23 Cu 0.77048 0.60871 0.40756 0.0
N24 N 0.7244 0.5755 0.4013 0.0
N25 N 0.66069 0.55466 0.39224 0.0
C26 C 0.68758 0.58651 0.39276 0.0
C27 C 0.68165 0.52233 0.40032 0.0
C28 C 0.72084 0.53523 0.4058 0.0
O29 O 0.76192 0.64123 0.43794 0.0
C30 C 0.78556 0.62561 0.35592 0.0
O31 O 0.77701 0.58649 0.35394 0.0
H32 H 0.68035 0.61739 0.38769 0.0
H33 H 0.7449 0.5165 0.41287 0.0
N34 N 0.81421 0.57579 0.41503 0.0
N35 N 0.87587 0.54873 0.41553 0.0
C36 C 0.85091 0.57465 0.40351 0.0
C37 C 0.81602 0.54995 0.43495 0.0
C38 C 0.85383 0.53305 0.43525 0.0
C39 C 0.73055 0.66198 0.44227 0.0
O40 O 0.70224 0.6644 0.42473 0.0
H41 H 0.85951 0.5935 0.38724 0.0
H42 H 0.79162 0.54432 0.44856 0.0
O43 O 0.78389 0.64209 0.37782 0.0
H44 H 0.66954 0.49152 0.40225 0.0
H45 H 0.86424 0.51105 0.44904 0.0
Cu46 Cu 0.43213 0.26459 0.64499 0.0
N47 N 0.47372 0.29977 0.65585 0.0
N48 N 0.50999 0.35771 0.65978 0.0
C49 C 0.48401 0.33583 0.64504 0.0
C50 C 0.51646 0.33444 0.68062 0.0
C51 C 0.49409 0.29856 0.67809 0.0
O52 O 0.40658 0.2917 0.61652 0.0
C53 C 0.37741 0.22203 0.67943 0.0
O54 O 0.37916 0.19155 0.6634 0.0
H55 H 0.47043 0.34704 0.62763 0.0
H56 H 0.49104 0.27432 0.69209 0.0
N57 N 0.45419 0.21637 0.63339 0.0
N58 N 0.47899 0.15389 0.63176 0.0
C59 C 0.46751 0.18453 0.64705 0.0
C60 C 0.45807 0.20581 0.60874 0.0
C61 C 0.47319 0.16727 0.60766 0.0
C62 C 0.37855 0.27731 0.60221 0.0
O63 O 0.36139 0.24174 0.60764 0.0
H64 H 0.46732 0.18329 0.66772 0.0
H65 H 0.44985 0.22464 0.59265 0.0
O66 O 0.39592 0.25549 0.67406 0.0
H67 H 0.53479 0.34338 0.69691 0.0
H68 H 0.47933 0.15036 0.59046 0.0
Cu69 Cu 0.78118 0.94061 0.90415 0.0
N70 N 0.82829 0.96951 0.89458 0.0
N71 N 0.89433 0.98552 0.88932 0.0
C72 C 0.86669 0.95742 0.8979 0.0
C73 C 0.87217 0.01651 0.88032 0.0
C74 C 0.83146 1.00656 0.88366 0.0
O75 O 0.79365 0.91044 0.93495 0.0
C76 C 0.76024 0.91979 0.85417 0.0
O77 O 0.76727 0.95892 0.85056 0.0
H78 H 0.87401 0.92885 0.9069 0.0
H79 H 0.80594 0.025 0.87852 0.0
N80 N 0.74034 0.97703 0.91113 0.0
N81 N 0.68 1.00656 0.91205 0.0
C82 C 0.70192 0.97618 0.90224 0.0
C83 C 0.74296 1.00896 0.927 0.0
C84 C 0.70574 0.02724 0.92765 0.0
C85 C 0.76687 0.89847 0.95113 0.0
O86 O 0.72821 0.90434 0.94637 0.0
H87 H 0.69006 0.95311 0.88939 0.0
H88 H 0.77 0.018 0.93751 0.0
O89 O 0.7643 0.90493 0.8765 0.0
H90 H 0.88435 0.04427 0.87171 0.0
H91 H 0.69828 0.05377 0.93867 0.0
Cu92 Cu 0.60637 0.76408 0.65889 0.0
N93 N 0.57616 0.71627 0.66486 0.0
N94 N 0.55588 0.65098 0.66487 0.0
C95 C 0.58108 0.67952 0.65425 0.0
C96 C 0.53428 0.67057 0.68273 0.0
C97 C 0.54685 0.71086 0.68265 0.0
O98 O 0.64138 0.75675 0.62933 0.0
C99 C 0.66385 0.80313 0.69245 0.0
O100 O 0.67371 0.82661 0.67287 0.0
H101 H 0.60364 0.67355 0.63973 0.0
H102 H 0.53604 0.73448 0.69504 0.0
N103 N 0.57049 0.80621 0.6529 0.0
N104 N 0.54354 0.86775 0.65055 0.0
C105 C 0.57588 0.84612 0.65795 0.0
C106 C 0.53335 0.80247 0.64224 0.0
C107 C 0.51674 0.84038 0.64062 0.0
C108 C 0.62501 0.75085 0.60759 0.0
O109 O 0.58511 0.75068 0.60584 0.0
H110 H 0.60311 0.8592 0.66648 0.0
H111 H 0.51938 0.77407 0.63601 0.0
O112 O 0.63708 0.77485 0.68978 0.0
H113 H 0.51119 0.65672 0.69504 0.0
H114 H 0.48708 0.84722 0.63299 0.0
Cu115 Cu 0.27926 0.11037 0.90196 0.0
N116 N 0.24576 0.065 0.89576 0.0
N117 N 0.19012 0.02484 0.89218 0.0
C118 C 0.20486 0.06276 0.89714 0.0
C119 C 0.22328 1.00255 0.88755 0.0
C120 C 0.2575 0.02736 0.88989 0.0
O121 O 0.25375 0.14242 0.92822 0.0
C122 C 0.29561 0.12343 0.84969 0.0
O123 O 0.29728 0.08358 0.84968 0.0
H124 H 0.18654 0.08834 0.90222 0.0
H125 H 0.2888 0.01862 0.88752 0.0
N126 N 0.32853 0.09266 0.91483 0.0
N127 N 0.39275 0.07285 0.91816 0.0
C128 C 0.36334 0.08544 0.90219 0.0
C129 C 0.33604 0.08416 0.9395 0.0
C130 C 0.37565 0.07206 0.94165 0.0
C131 C 0.27344 0.17066 0.93969 0.0
O132 O 0.31066 0.18034 0.93209 0.0
H133 H 0.36714 0.08979 0.8818 0.0
H134 H 0.31409 0.08657 0.95483 0.0
O135 O 0.28816 0.14151 0.87057 0.0
H136 H 0.22304 0.97066 0.88262 0.0
H137 H 0.39047 0.06275 0.95909 0.0
Cu138 Cu 0.93185 0.76312 0.14973 0.0
N139 N 0.97792 0.79714 0.15261 0.0
N140 N 0.01802 0.85287 0.15617 0.0
C141 C 0.97929 0.83771 0.15598 0.0
C142 C 0.0417 0.82035 0.15283 0.0
C143 C 1.01691 0.78612 0.15064 0.0
O144 O 0.89349 0.78682 0.12604 0.0
C145 C 0.88317 0.72602 0.18877 0.0
O146 O 0.87284 0.69996 0.17085 0.0
H147 H 0.95235 0.85559 0.15816 0.0
H148 H 0.02655 0.75539 0.1474 0.0
N149 N 0.9475 0.71335 0.13641 0.0
N150 N 0.96877 0.64963 0.13273 0.0
C151 C 0.96039 0.6802 0.14896 0.0
C152 C 0.94801 0.70358 0.11152 0.0
C153 C 0.96111 0.66446 0.10917 0.0
C154 C 0.90643 0.80333 0.10538 0.0
O155 O 0.94586 0.80566 0.10104 0.0
H156 H 0.96282 0.6784 0.16954 0.0
H157 H 0.93942 0.7235 0.09607 0.0
O158 O 0.90756 0.75558 0.18337 0.0
H159 H 0.07459 0.82122 0.15137 0.0
H160 H 0.96506 0.64843 0.09138 0.0
Cu161 Cu 0.27389 0.43805 0.395 0.0
N162 N 0.30849 0.48107 0.38517 0.0
N163 N 0.36572 0.51762 0.37771 0.0
C164 C 0.34945 0.48136 0.38539 0.0
C165 C 0.3335 0.54091 0.37241 0.0
C166 C 0.29825 0.51827 0.37706 0.0
O167 O 0.30142 0.40887 0.42188 0.0
C168 C 0.23136 0.38254 0.36173 0.0
O169 O 0.20395 0.37914 0.38 0.0
H170 H 0.36682 0.4553 0.39099 0.0
H171 H 0.26733 0.52829 0.37497 0.0
N172 N 0.22647 0.4593 0.4085 0.0
N173 N 0.16359 0.48253 0.41316 0.0
C174 C 0.1912 0.4676 0.39671 0.0
C175 C 0.22127 0.46986 0.43303 0.0
C176 C 0.18259 0.48409 0.436 0.0
C177 C 0.28435 0.38285 0.43679 0.0
O178 O 0.24621 0.37152 0.43289 0.0
H179 H 0.18573 0.46206 0.37664 0.0
H180 H 0.24415 0.46729 0.44774 0.0
O181 O 0.26313 0.40486 0.36509 0.0
H182 H 0.33513 0.57233 0.36617 0.0
H183 H 0.16966 0.49508 0.45361 0.0
H184 H 0.11583 0.19167 0.05503 0.0
H185 H 0.20434 0.2733 0.09091 0.0
H186 H 0.24926 0.26808 0.0532 0.0
H187 H 0.18828 0.12568 0.02729 0.0
H188 H 0.15929 0.11715 0.99854 0.0
H189 H 0.13354 0.12862 0.02794 0.0
H190 H 0.09913 0.18941 1.00582 0.0
H191 H 0.12496 0.17822 0.97638 0.0
H192 H 0.13033 0.22813 0.99021 0.0
H193 H 0.28489 0.25337 1.01174 0.0
H194 H 0.31025 0.22742 0.97068 0.0
H195 H 0.19886 0.15457 0.96216 0.0
C196 C 0.14457 0.20862 0.05494 0.0
C197 C 0.15649 0.23303 0.07592 0.0
C198 C 0.19454 0.2544 0.07509 0.0
C199 C 0.22021 0.25175 0.05371 0.0
C200 C 0.20747 0.2275 0.03334 0.0
C201 C 0.17066 0.20613 0.03383 0.0
C202 C 0.16478 0.1811 1.00984 0.0
C203 C 0.16128 0.13544 1.0163 0.0
C204 C 0.12759 0.19507 0.99467 0.0
C205 C 0.20414 0.19159 0.99582 0.0
C206 C 0.2282 0.21863 1.00961 0.0
C207 C 0.26626 0.23226 1.00075 0.0
C208 C 0.28037 0.21738 0.97736 0.0
C209 C 0.25658 0.18898 0.96313 0.0
C210 C 0.21775 0.17639 0.97247 0.0
H211 H 0.78821 0.59985 0.30626 0.0
H212 H 0.81386 0.70495 0.35394 0.0
H213 H 0.8395 0.74311 0.31607 0.0
H214 H 0.87566 0.61031 0.26669 0.0
H215 H 0.84985 0.59434 0.23796 0.0
H216 H 0.83194 0.57605 0.26858 0.0
H217 H 0.7602 0.6032 0.25895 0.0
H218 H 0.77788 0.62151 0.22825 0.0
H219 H 0.75489 0.65595 0.25036 0.0
H220 H 0.86585 0.76844 0.2732 0.0
H221 H 0.88876 0.77963 0.22862 0.0
H222 H 0.84429 0.65831 0.20906 0.0
C223 C 0.79891 0.631 0.30877 0.0
C224 C 0.79901 0.6494 0.33311 0.0
C225 C 0.81337 0.69022 0.33549 0.0
C226 C 0.82802 0.71214 0.31409 0.0
C227 C 0.82785 0.6929 0.29042 0.0
C228 C 0.81342 0.65333 0.28763 0.0
C229 C 0.81718 0.63936 0.26022 0.0
C230 C 0.84534 0.60286 0.25826 0.0
C231 C 0.77503 0.62943 0.24877 0.0
C232 C 0.83643 0.6771 0.24804 0.0
C233 C 0.84237 0.70766 0.26576 0.0
C234 C 0.86101 0.74484 0.25914 0.0
C235 C 0.87399 0.75088 0.23377 0.0
C236 C 0.86812 0.71996 0.21529 0.0
C237 C 0.84883 0.68274 0.22263 0.0
H238 H 0.31485 0.26239 0.56881 0.0
H239 H 0.42215 0.34024 0.58045 0.0
H240 H 0.41075 0.37332 0.53893 0.0
H241 H 0.32719 0.24887 0.50117 0.0
H242 H 0.27362 0.25127 0.49408 0.0
H243 H 0.28991 0.23299 0.52481 0.0
H244 H 0.24688 0.28716 0.5473 0.0
H245 H 0.23018 0.30536 0.51665 0.0
H246 H 0.25437 0.34005 0.5388 0.0
H247 H 0.38988 0.39646 0.4958 0.0
H248 H 0.35653 0.41338 0.45521 0.0
H249 H 0.26066 0.32321 0.47155 0.0
C250 C 0.33582 0.2865 0.56265 0.0
C251 C 0.36946 0.29859 0.57793 0.0
C252 C 0.39609 0.33044 0.56921 0.0
C253 C 0.39002 0.34935 0.54555 0.0
C254 C 0.35696 0.33643 0.53085 0.0
C255 C 0.32993 0.30617 0.53913 0.0
C256 C 0.29621 0.29905 0.51975 0.0
C257 C 0.29679 0.25545 0.50934 0.0
C258 C 0.25444 0.30848 0.53132 0.0
C259 C 0.30868 0.32996 0.49934 0.0
C260 C 0.34408 0.35081 0.50609 0.0
C261 C 0.36201 0.38052 0.49033 0.0
C262 C 0.34288 0.38978 0.46723 0.0
C263 C 0.30588 0.36973 0.46016 0.0
C264 C 0.28885 0.33914 0.47641 0.0
H265 H 0.75594 0.94159 0.8037 0.0
H266 H 0.73501 0.83948 0.85549 0.0
H267 H 0.7115 0.79723 0.81921 0.0
H268 H 0.66935 0.9239 0.76475 0.0
H269 H 0.69465 0.93879 0.73541 0.0
H270 H 0.71146 0.96023 0.76525 0.0
H271 H 0.78455 0.9358 0.75649 0.0
H272 H 0.76793 0.9142 0.72661 0.0
H273 H 0.79241 0.88282 0.75002 0.0
H274 H 0.6865 0.76752 0.77765 0.0
H275 H 0.66292 0.75215 0.73392 0.0
H276 H 0.70214 0.87322 0.70918 0.0
C277 C 0.74665 0.91027 0.80745 0.0
C278 C 0.74729 0.89384 0.83247 0.0
C279 C 0.73486 0.85271 0.8365 0.0
C280 C 0.72149 0.82848 0.81601 0.0
C281 C 0.72106 0.84575 0.79161 0.0
C282 C 0.7335 0.88565 0.78724 0.0
C283 C 0.72926 0.8972 0.75933 0.0
C284 C 0.6994 0.93208 0.756 0.0
C285 C 0.77103 0.90814 0.74742 0.0
C286 C 0.71189 0.85773 0.7487 0.0
C287 C 0.70744 0.82841 0.76762 0.0
C288 C 0.69024 0.7901 0.76264 0.0
C289 C 0.67689 0.78169 0.73775 0.0
C290 C 0.68097 0.81137 0.71809 0.0
C291 C 0.69919 0.84968 0.72368 0.0
H292 H 0.15952 0.34956 0.34344 0.0
H293 H 0.286 0.37382 0.32269 0.0
H294 H 0.27247 0.34715 0.27946 0.0
H295 H 0.14506 0.25614 0.30635 0.0
H296 H 0.09384 0.26818 0.29731 0.0
H297 H 0.11427 0.28614 0.32722 0.0
H298 H 0.09793 0.3601 0.31431 0.0
H299 H 0.07766 0.34242 0.28433 0.0
H300 H 0.1179 0.3808 0.2847 0.0
H301 H 0.24444 0.32116 0.23782 0.0
H302 H 0.20385 0.29802 0.20076 0.0
H303 H 0.09539 0.29186 0.24846 0.0
C304 C 0.18455 0.34862 0.32996 0.0
C305 C 0.2239 0.36356 0.33652 0.0
C306 C 0.25563 0.36246 0.31814 0.0
C307 C 0.24827 0.34731 0.29354 0.0
C308 C 0.20899 0.33344 0.28757 0.0
C309 C 0.17767 0.33389 0.30525 0.0
C310 C 0.13779 0.31916 0.29358 0.0
C311 C 0.12181 0.28008 0.30691 0.0
C312 C 0.10596 0.35262 0.29427 0.0
C313 C 0.15149 0.31082 0.2665 0.0
C314 C 0.19272 0.31897 0.26347 0.0
C315 C 0.21217 0.31443 0.24 0.0
C316 C 0.18882 0.30131 0.21904 0.0
C317 C 0.14642 0.29306 0.22166 0.0
C318 C 0.12773 0.29777 0.2458 0.0
H319 H 0.5985 0.74159 0.55844 0.0
H320 H 0.70763 0.73954 0.60499 0.0
H321 H 0.74778 0.72072 0.56697 0.0
H322 H 0.61979 0.65625 0.52107 0.0
H323 H 0.59912 0.67672 0.49199 0.0
H324 H 0.57983 0.69269 0.52243 0.0
H325 H 0.59608 0.76795 0.51033 0.0
H326 H 0.61542 0.7522 0.4798 0.0
H327 H 0.64706 0.78293 0.50061 0.0
H328 H 0.7748 0.69709 0.52432 0.0
H329 H 0.78673 0.67206 0.48057 0.0
H330 H 0.65991 0.69135 0.4621 0.0
C331 C 0.63093 0.73764 0.56066 0.0
C332 C 0.64993 0.74207 0.58473 0.0
C333 C 0.69242 0.73645 0.58674 0.0
C334 C 0.71547 0.72576 0.56525 0.0
C335 C 0.69562 0.72116 0.54188 0.0
C336 C 0.65434 0.72719 0.53946 0.0
C337 C 0.63992 0.71904 0.51247 0.0
C338 C 0.60778 0.6841 0.51198 0.0
C339 C 0.62367 0.75785 0.50007 0.0
C340 C 0.6794 0.70674 0.50012 0.0
C341 C 0.71123 0.70825 0.51734 0.0
C342 C 0.75019 0.69626 0.51061 0.0
C343 C 0.75665 0.68203 0.48572 0.0
C344 C 0.72435 0.68002 0.46782 0.0
C345 C 0.6854 0.69306 0.47516 0.0
H346 H 0.35402 0.14998 0.70249 0.0
H347 H 0.36006 0.2804 0.71471 0.0
H348 H 0.33576 0.26981 0.75903 0.0
H349 H 0.26359 0.12765 0.7424 0.0
H350 H 0.28361 0.08064 0.75417 0.0
H351 H 0.29743 0.09893 0.72272 0.0
H352 H 0.37381 0.09574 0.73468 0.0
H353 H 0.36026 0.07774 0.76619 0.0
H354 H 0.3923 0.12276 0.76237 0.0
H355 H 0.31515 0.2445 0.80307 0.0
H356 H 0.29996 0.20646 0.84305 0.0
H357 H 0.30896 0.09278 0.80196 0.0
C358 C 0.34939 0.1764 0.71428 0.0
C359 C 0.35865 0.21605 0.70503 0.0
C360 C 0.35299 0.24974 0.72131 0.0
C361 C 0.33917 0.24403 0.74653 0.0
C362 C 0.33118 0.20447 0.75521 0.0
C363 C 0.33595 0.17124 0.73953 0.0
C364 C 0.32774 0.13177 0.75393 0.0
C365 C 0.29089 0.10838 0.74263 0.0
C366 C 0.3658 0.10547 0.75431 0.0
C367 C 0.31821 0.14793 0.78024 0.0
C368 C 0.31999 0.18993 0.78058 0.0
C369 C 0.31337 0.21159 0.80297 0.0
C370 C 0.30482 0.18973 0.8256 0.0
C371 C 0.30323 0.14663 0.82569 0.0
C372 C 0.30984 0.12569 0.80259 0.0
H373 H 0.92535 0.8366 0.05866 0.0
H374 H 0.82263 0.80008 0.10676 0.0
H375 H 0.77538 0.81967 0.07236 0.0
H376 H 0.87922 0.9237 0.02968 0.0
H377 H 0.90233 0.91546 0.99893 0.0
H378 H 0.92758 0.89925 0.02758 0.0
H379 H 0.93042 0.82602 1.00976 0.0
H380 H 0.90492 0.84194 0.98113 0.0
H381 H 0.88395 0.80026 0.99993 0.0
H382 H 0.73944 0.84268 0.03209 0.0
H383 H 0.7179 0.8687 0.98996 0.0
H384 H 0.84472 0.88913 0.96859 0.0
C385 C 0.89292 0.83289 0.0621 0.0
C386 C 0.87771 0.81683 0.08546 0.0
C387 C 0.83502 0.8124 0.08906 0.0
C388 C 0.80795 0.82337 0.0696 0.0
C389 C 0.82406 0.83869 0.0467 0.0
C390 C 0.86558 0.84357 0.04294 0.0
C391 C 0.87527 0.86047 1.01658 0.0
C392 C 0.8974 0.9022 1.01831 0.0
C393 C 0.9001 0.83037 1.00093 0.0
C394 C 0.83271 0.8643 1.00602 0.0
C395 C 0.80354 0.85162 1.02364 0.0
C396 C 0.76205 0.85268 1.01817 0.0
C397 C 0.75012 0.86745 0.99416 0.0
C398 C 0.77957 0.88089 0.97591 0.0
C399 C 0.82138 0.87894 0.98201 0.0
H400 H 0.99768 0.09312 0.14812 0.0
H401 H 0.12387 0.10388 0.172 0.0
H402 H 0.12726 0.02894 0.17406 0.0
H403 H 0.9693 1.00762 0.18796 0.0
H404 H 0.93654 0.98427 0.16435 0.0
H405 H 0.94421 0.0387 0.16464 0.0
H406 H 0.96799 0.03741 0.1174 0.0
H407 H 0.96029 0.983 0.11694 0.0
H408 H 1.00924 1.00533 0.10841 0.0
H409 H 0.11623 0.95282 0.17437 0.0
H410 H 0.09265 0.88127 0.17148 0.0
H411 H 0.97396 0.92046 0.14636 0.0
C412 C 0.02594 0.07975 0.15397 0.0
C413 C 0.06052 0.10438 0.15997 0.0
C414 C 0.09715 0.08563 0.16709 0.0
C415 C 0.09928 0.04311 0.16845 0.0
C416 C 0.06455 0.01977 0.16251 0.0
C417 C 0.02865 0.03742 0.15527 0.0
C418 C 0.99588 1.00551 0.1495 0.0
C419 C 0.95933 1.00926 0.1677 0.0
C420 C 0.98258 1.00796 0.12139 0.0
C421 C 0.01888 0.9671 0.1548 0.0
C422 C 0.0584 0.97599 0.16232 0.0
C423 C 0.08541 0.9455 0.16835 0.0
C424 C 0.07174 0.90485 0.1665 0.0
C425 C 0.03142 0.89489 0.15857 0.0
C426 C 1.00477 0.92672 0.15275 0.0
H427 H 0.10066 0.48331 0.44692 0.0
H428 H 0.13214 0.50636 0.36747 0.0
H429 H 0.06111 0.52546 0.35893 0.0
H430 H 1.0009 0.44085 0.43621 0.0
H431 H 0.97929 0.46398 0.4641 0.0
H432 H 0.03239 0.45172 0.46362 0.0
H433 H 0.05216 0.5266 0.4742 0.0
H434 H 0.99913 0.53907 0.47478 0.0
H435 H 0.03404 0.56689 0.45407 0.0
H436 H 0.98596 0.54324 0.3596 0.0
H437 H 0.91377 0.55666 0.36928 0.0
H438 H 0.93379 0.52334 0.44851 0.0
C439 C 0.09291 0.49272 0.42775 0.0
C440 C 0.12218 0.49345 0.4079 0.0
C441 C 0.11026 0.50518 0.38296 0.0
C442 C 0.07001 0.51629 0.37795 0.0
C443 C 0.04206 0.51543 0.39807 0.0
C444 C 0.05309 0.50386 0.42246 0.0
C445 C 1.01759 0.50545 0.44084 0.0
C446 C 1.00692 0.46297 0.45183 0.0
C447 C 0.02626 0.53635 0.46223 0.0
C448 C 0.98475 0.51984 0.42304 0.0
C449 C 0.9993 0.52548 0.39845 0.0
C450 C 0.9743 0.53892 0.37882 0.0
C451 C 0.93338 0.54669 0.38452 0.0
C452 C 0.9179 0.54094 0.40964 0.0
C453 C 0.94424 0.52742 0.42903 0.0
H454 H 0.5158 0.41666 0.69559 0.0
H455 H 0.53077 0.39344 0.61478 0.0
H456 H 0.54759 0.46647 0.60731 0.0
H457 H 0.46603 0.50964 0.68798 0.0
H458 H 0.48921 0.53363 0.71539 0.0
H459 H 0.48218 0.47918 0.71466 0.0
H460 H 0.55933 0.47055 0.72267 0.0
H461 H 0.56657 0.52502 0.72361 0.0
H462 H 0.59591 0.49548 0.70167 0.0
H463 H 0.56105 0.54254 0.60877 0.0
H464 H 0.56674 0.61601 0.61868 0.0
H465 H 0.53998 0.5892 0.69826 0.0
C466 C 0.52352 0.42685 0.67644 0.0
C467 C 0.52257 0.39949 0.65577 0.0
C468 C 0.53153 0.41407 0.63082 0.0
C469 C 0.5412 0.45537 0.62645 0.0
C470 C 0.54137 0.48169 0.64723 0.0
C471 C 0.53259 0.46802 0.67172 0.0
C472 C 0.53219 0.50283 0.69048 0.0
C473 C 0.48989 0.50652 0.70284 0.0
C474 C 0.56549 0.49819 0.71081 0.0
C475 C 0.54186 0.53828 0.67272 0.0
C476 C 0.54754 0.52548 0.6479 0.0
C477 C 0.55674 0.55289 0.62815 0.0
C478 C 0.56004 0.59447 0.63394 0.0
C479 C 0.55361 0.60822 0.65918 0.0
C480 C 0.54455 0.5796 0.67874 0.0
H481 H 0.62722 0.04081 0.94502 0.0
H482 H 0.63657 0.98967 0.86912 0.0
H483 H 0.56362 1.00239 0.86183 0.0
H484 H 0.52846 0.99966 0.95952 0.0
H485 H 0.51257 0.0438 0.97676 0.0
H486 H 0.56566 0.03163 0.97558 0.0
H487 H 0.58332 0.10342 0.9573 0.0
H488 H 0.53027 0.11585 0.95847 0.0
H489 H 0.55808 0.12057 0.92882 0.0
H490 H 0.48923 0.02094 0.86306 0.0
H491 H 0.41911 0.04125 0.87339 0.0
H492 H 0.45942 0.08008 0.94843 0.0
C493 C 0.61411 0.03274 0.92674 0.0
C494 C 0.63765 1.01438 0.9076 0.0
C495 C 0.61904 1.00346 0.88413 0.0
C496 C 0.57771 1.01079 0.87977 0.0
C497 C 0.55541 0.02893 0.8991 0.0
C498 C 0.57298 0.03962 0.92215 0.0
C499 C 0.54225 0.05773 0.94008 0.0
C500 C 0.53693 0.03163 0.96442 0.0
C501 C 0.5542 0.10202 0.94654 0.0
C502 C 0.50456 0.05544 0.92357 0.0
C503 C 0.51274 0.039 0.89994 0.0
C504 C 0.48251 0.03392 0.8815 0.0
C505 C 0.44284 0.04573 0.88747 0.0
C506 C 0.43376 0.06214 0.91173 0.0
C507 C 0.46524 0.06715 0.92986 0.0
H508 H 0.9593 0.58148 0.10396 0.0
H509 H 1.00909 0.62591 0.17559 0.0
H510 H 0.03304 0.55701 0.18553 0.0
H511 H 0.92527 0.48352 0.12653 0.0
H512 H 0.9389 0.45798 0.09748 0.0
H513 H 0.92512 0.51057 0.09646 0.0
H514 H 0.99376 0.52961 0.07425 0.0
H515 H 1.00772 0.47707 0.07515 0.0
H516 H 0.04081 0.51546 0.0891 0.0
H517 H 0.0527 0.48264 0.18699 0.0
H518 H 0.06514 0.40971 0.18017 0.0
H519 H 1.00399 0.416 0.10692 0.0
C520 C 0.97552 0.57705 0.12166 0.0
C521 C 0.98235 0.60937 0.13894 0.0
C522 C 1.00306 0.60168 0.16213 0.0
C523 C 1.017 0.56265 0.16788 0.0
C524 C 1.00995 0.53164 0.15026 0.0
C525 C 0.98964 0.5385 0.12764 0.0
C526 C 0.98608 0.50032 0.11175 0.0
C527 C 0.94117 0.48734 0.10784 0.0
C528 C 1.00843 0.50596 0.08605 0.0
C529 C 1.00759 0.47077 0.12894 0.0
C530 C 0.02121 0.48929 0.15107 0.0
C531 C 0.04218 0.46788 0.1697 0.0
C532 C 0.04932 0.4265 0.16559 0.0
C533 C 0.03551 0.40693 0.14302 0.0
C534 C 1.01444 0.42967 0.12455 0.0
H535 H 0.42858 0.48339 0.4032 0.0
H536 H 0.40031 0.5783 0.34856 0.0
H537 H 0.47318 0.59841 0.34622 0.0
H538 H 0.50643 0.5385 0.4367 0.0
H539 H 0.53773 0.4949 0.44124 0.0
H540 H 0.48331 0.48821 0.43859 0.0
H541 H 0.49281 0.43814 0.40113 0.0
H542 H 0.54728 0.44467 0.40365 0.0
H543 H 0.52243 0.45419 0.37363 0.0
H544 H 0.54973 0.60838 0.35019 0.0
H545 H 0.62338 0.60668 0.35983 0.0
H546 H 0.60067 0.5045 0.4112 0.0
C547 C 0.43754 0.5081 0.39049 0.0
C548 C 0.40842 0.5292 0.37606 0.0
C549 C 0.42178 0.56191 0.36006 0.0
C550 C 0.4632 0.57344 0.35848 0.0
C551 C 0.49098 0.55192 0.37297 0.0
C552 C 0.47867 0.51989 0.38862 0.0
C553 C 0.51447 0.50173 0.4023 0.0
C554 C 0.51022 0.50612 0.43143 0.0
C555 C 0.51954 0.45704 0.39471 0.0
C556 C 0.54891 0.52852 0.39189 0.0
C557 C 0.53482 0.55737 0.37505 0.0
C558 C 0.56109 0.58587 0.36333 0.0
C559 C 0.60284 0.5848 0.369 0.0
C560 C 0.6179 0.55536 0.38617 0.0
C561 C 0.59035 0.52694 0.39766 0.0
H562 H 0.46528 0.08306 0.60666 0.0
H563 H 0.52232 0.13472 0.6741 0.0
H564 H 0.54575 0.06643 0.68656 0.0
H565 H 0.42991 0.98993 0.63609 0.0
H566 H 0.43913 0.95966 0.60817 0.0
H567 H 0.42746 1.01258 0.60469 0.0
H568 H 0.49406 0.02512 0.57876 0.0
H569 H 0.50594 0.97224 0.58214 0.0
H570 H 0.54202 1.011 0.59242 0.0
H571 H 0.56457 0.99212 0.69066 0.0
H572 H 0.57363 0.91782 0.68743 0.0
H573 H 0.50283 0.91577 0.61766 0.0
C574 C 0.483 0.08012 0.62394 0.0
C575 C 0.49228 0.11423 0.63933 0.0
C576 C 0.51475 0.10893 0.66211 0.0
C577 C 0.52832 0.07033 0.66925 0.0
C578 C 0.51881 0.03737 0.6535 0.0
C579 C 0.49639 0.04191 0.63141 0.0
C580 C 0.48947 1.00171 0.618 0.0
C581 C 0.44378 0.99031 0.61667 0.0
C582 C 0.50905 1.00259 0.59125 0.0
C583 C 0.51164 0.97374 0.63591 0.0
C584 C 0.52862 0.99481 0.65619 0.0
C585 C 0.55125 0.97533 0.6749 0.0
C586 C 0.55642 0.93321 0.67286 0.0
C587 C 0.53874 0.91103 0.65238 0.0
C588 C 0.51615 0.93178 0.63373 0.0
H589 H 0.95009 0.04853 0.88711 0.0
H590 H 0.93866 0.91689 0.89288 0.0
H591 H 1.01332 0.91281 0.89479 0.0
H592 H 0.03852 0.05092 0.84615 0.0
H593 H 0.06091 0.09546 0.861 0.0
H594 H 1.00637 0.08803 0.86057 0.0
H595 H 1.00434 0.09441 0.9099 0.0
H596 H 0.05889 0.10168 0.91049 0.0
H597 H 0.03489 0.06149 0.92919 0.0
H598 H 0.08933 0.92303 0.89641 0.0
H599 H 0.16107 0.94665 0.89681 0.0
H600 H 0.12279 0.07133 0.88774 0.0
C601 C 0.9631 0.01876 0.88853 0.0
C602 C 0.93815 0.98306 0.88997 0.0
C603 C 0.95681 0.9448 0.89217 0.0
C604 C 0.99931 0.94211 0.89312 0.0
C605 C 0.02284 0.9779 0.89172 0.0
C606 C 1.00544 1.01549 0.88937 0.0
C607 C 0.03762 0.0493 0.88806 0.0
C608 C 0.03574 0.07227 0.86242 0.0
C609 C 0.03369 0.07843 0.91076 0.0
C610 C 0.07585 0.02481 0.89003 0.0
C611 C 0.06667 0.98373 0.89221 0.0
C612 C 0.09693 0.95514 0.89454 0.0
C613 C 0.13771 0.96892 0.89459 0.0
C614 C 0.14799 1.01096 0.89218 0.0
C615 C 0.11634 0.03909 0.88988 0.0
loop_
_geom_bond_atom_site_label_1
_geom_bond_atom_site_label_2
_geom_bond_distance
_geom_bond_site_symmetry_2
_ccdc_geom_bond_type
Cu0 N1 1.999 . S
Cu0 O6 1.974 . S
Cu0 N11 1.985 . S
Cu0 O20 1.959 . S
N1 Cu0 1.999 . S
N1 C3 1.263 . S
N1 C5 1.389 . S
N2 C3 1.358 . S
N2 C4 1.400 . S
C3 N1 1.263 . S
C3 N2 1.358 . S
C3 H9 0.930 . S
C4 N2 1.400 . S
C4 C5 1.351 . S
C4 H21 0.930 . S
C5 N1 1.389 . S
C5 C4 1.351 . S
C5 H10 0.930 . S
O6 Cu0 1.974 . S
O6 C16 1.282 . S
C7 O8 1.261 . S
C7 O20 1.251 . S
O8 C7 1.261 . S
H9 C3 0.930 . S
H10 C5 0.930 . S
N11 Cu0 1.985 . S
N11 C13 1.335 . S
N11 C14 1.390 . S
N12 C13 1.345 . S
N12 C15 1.336 . S
C13 N11 1.335 . S
C13 N12 1.345 . S
C13 H18 0.930 . S
C14 N11 1.390 . S
C14 C15 1.346 . S
C14 H19 0.930 . S
C15 N12 1.336 . S
C15 C14 1.346 . S
C15 H22 0.929 . S
C16 O6 1.282 . S
C16 O17 1.216 . S
O17 C16 1.216 . S
H18 C13 0.930 . S
H19 C14 0.930 . S
O20 Cu0 1.959 . S
O20 C7 1.251 . S
H21 C4 0.930 . S
H22 C15 0.929 . S
Cu23 N24 1.999 . S
Cu23 O29 1.974 . S
Cu23 N34 1.985 . S
Cu23 O43 1.959 . S
N24 Cu23 1.999 . S
N24 C26 1.263 . S
N24 C28 1.389 . S
N25 C26 1.358 . S
N25 C27 1.400 . S
C26 N24 1.263 . S
C26 N25 1.358 . S
C26 H32 0.930 . S
C27 N25 1.400 . S
C27 C28 1.351 . S
C27 H44 0.930 . S
C28 N24 1.389 . S
C28 C27 1.351 . S
C28 H33 0.930 . S
O29 Cu23 1.974 . S
O29 C39 1.282 . S
C30 O31 1.261 . S
C30 O43 1.251 . S
O31 C30 1.261 . S
H32 C26 0.930 . S
H33 C28 0.930 . S
N34 Cu23 1.985 . S
N34 C36 1.335 . S
N34 C37 1.390 . S
N35 C36 1.345 . S
N35 C38 1.336 . S
C36 N34 1.335 . S
C36 N35 1.345 . S
C36 H41 0.930 . S
C37 N34 1.390 . S
C37 C38 1.346 . S
C37 H42 0.930 . S
C38 N35 1.336 . S
C38 C37 1.346 . S
C38 H45 0.929 . S
C39 O29 1.282 . S
C39 O40 1.216 . S
O40 C39 1.216 . S
H41 C36 0.930 . S
H42 C37 0.930 . S
O43 Cu23 1.959 . S
O43 C30 1.251 . S
H44 C27 0.930 . S
H45 C38 0.929 . S
Cu46 N47 1.999 . S
Cu46 O52 1.974 . S
Cu46 N57 1.985 . S
Cu46 O66 1.959 . S
N47 Cu46 1.999 . S
N47 C49 1.263 . S
N47 C51 1.389 . S
N48 C49 1.358 . S
N48 C50 1.400 . S
C49 N47 1.263 . S
C49 N48 1.358 . S
C49 H55 0.930 . S
C50 N48 1.400 . S
C50 C51 1.351 . S
C50 H67 0.930 . S
C51 N47 1.389 . S
C51 C50 1.351 . S
C51 H56 0.930 . S
O52 Cu46 1.974 . S
O52 C62 1.282 . S
C53 O54 1.261 . S
C53 O66 1.251 . S
O54 C53 1.261 . S
H55 C49 0.930 . S
H56 C51 0.930 . S
N57 Cu46 1.985 . S
N57 C59 1.335 . S
N57 C60 1.390 . S
N58 C59 1.345 . S
N58 C61 1.336 . S
C59 N57 1.335 . S
C59 N58 1.345 . S
C59 H64 0.930 . S
C60 N57 1.390 . S
C60 C61 1.346 . S
C60 H65 0.930 . S
C61 N58 1.336 . S
C61 C60 1.346 . S
C61 H68 0.929 . S
C62 O52 1.282 . S
C62 O63 1.216 . S
O63 C62 1.216 . S
H64 C59 0.930 . S
H65 C60 0.930 . S
O66 Cu46 1.959 . S
O66 C53 1.251 . S
H67 C50 0.930 . S
H68 C61 0.929 . S
Cu69 N70 1.999 . S
Cu69 O75 1.974 . S
Cu69 N80 1.985 . S
Cu69 O89 1.959 . S
N70 Cu69 1.999 . S
N70 C72 1.263 . S
N70 C74 1.389 . S
N71 C72 1.358 . S
N71 C73 1.400 . S
C72 N70 1.263 . S
C72 N71 1.358 . S
C72 H78 0.930 . S
C73 N71 1.400 . S
C73 C74 1.351 . S
C73 H90 0.930 . S
C74 N70 1.389 . S
C74 C73 1.351 . S
C74 H79 0.930 . S
O75 Cu69 1.974 . S
O75 C85 1.282 . S
C76 O77 1.261 . S
C76 O89 1.251 . S
O77 C76 1.261 . S
H78 C72 0.930 . S
H79 C74 0.930 . S
N80 Cu69 1.985 . S
N80 C82 1.335 . S
N80 C83 1.390 . S
N81 C82 1.345 . S
N81 C84 1.336 . S
C82 N80 1.335 . S
C82 N81 1.345 . S
C82 H87 0.930 . S
C83 N80 1.390 . S
C83 C84 1.346 . S
C83 H88 0.930 . S
C84 N81 1.336 . S
C84 C83 1.346 . S
C84 H91 0.929 . S
C85 O75 1.282 . S
C85 O86 1.216 . S
O86 C85 1.216 . S
H87 C82 0.930 . S
H88 C83 0.930 . S
O89 Cu69 1.959 . S
O89 C76 1.251 . S
H90 C73 0.930 . S
H91 C84 0.929 . S
Cu92 N93 1.999 . S
Cu92 O98 1.974 . S
Cu92 N103 1.985 . S
Cu92 O112 1.959 . S
N93 Cu92 1.999 . S
N93 C95 1.263 . S
N93 C97 1.389 . S
N94 C95 1.358 . S
N94 C96 1.400 . S
C95 N93 1.263 . S
C95 N94 1.358 . S
C95 H101 0.930 . S
C96 N94 1.400 . S
C96 C97 1.351 . S
C96 H113 0.930 . S
C97 N93 1.389 . S
C97 C96 1.351 . S
C97 H102 0.930 . S
O98 Cu92 1.974 . S
O98 C108 1.282 . S
C99 O100 1.261 . S
C99 O112 1.251 . S
O100 C99 1.261 . S
H101 C95 0.930 . S
H102 C97 0.930 . S
N103 Cu92 1.985 . S
N103 C105 1.335 . S
N103 C106 1.390 . S
N104 C105 1.345 . S
N104 C107 1.336 . S
C105 N103 1.335 . S
C105 N104 1.345 . S
C105 H110 0.930 . S
C106 N103 1.390 . S
C106 C107 1.346 . S
C106 H111 0.930 . S
C107 N104 1.336 . S
C107 C106 1.346 . S
C107 H114 0.929 . S
C108 O98 1.282 . S
C108 O109 1.216 . S
O109 C108 1.216 . S
H110 C105 0.930 . S
H111 C106 0.930 . S
O112 Cu92 1.959 . S
O112 C99 1.251 . S
H113 C96 0.930 . S
H114 C107 0.929 . S
Cu115 N116 1.999 . S
Cu115 O121 1.974 . S
Cu115 N126 1.985 . S
Cu115 O135 1.959 . S
N116 Cu115 1.999 . S
N116 C118 1.263 . S
N116 C120 1.389 . S
N117 C118 1.358 . S
N117 C119 1.400 . S
C118 N116 1.263 . S
C118 N117 1.358 . S
C118 H124 0.930 . S
C119 N117 1.400 . S
C119 C120 1.351 . S
C119 H136 0.930 . S
C120 N116 1.389 . S
C120 C119 1.351 . S
C120 H125 0.930 . S
O121 Cu115 1.974 . S
O121 C131 1.282 . S
C122 O123 1.261 . S
C122 O135 1.251 . S
O123 C122 1.261 . S
H124 C118 0.930 . S
H125 C120 0.930 . S
N126 Cu115 1.985 . S
N126 C128 1.335 . S
N126 C129 1.390 . S
N127 C128 1.345 . S
N127 C130 1.336 . S
C128 N126 1.335 . S
C128 N127 1.345 . S
C128 H133 0.930 . S
C129 N126 1.390 . S
C129 C130 1.346 . S
C129 H134 0.930 . S
C130 N127 1.336 . S
C130 C129 1.346 . S
C130 H137 0.929 . S
C131 O121 1.282 . S
C131 O132 1.216 . S
O132 C131 1.216 . S
H133 C128 0.930 . S
H134 C129 0.930 . S
O135 Cu115 1.959 . S
O135 C122 1.251 . S
H136 C119 0.930 . S
H137 C130 0.929 . S
Cu138 N139 1.999 . S
Cu138 O144 1.974 . S
Cu138 N149 1.985 . S
Cu138 O158 1.959 . S
N139 Cu138 1.999 . S
N139 C141 1.263 . S
N139 C143 1.389 . S
N140 C141 1.358 . S
N140 C142 1.400 . S
C141 N139 1.263 . S
C141 N140 1.358 . S
C141 H147 0.930 . S
C142 N140 1.400 . S
C142 C143 1.351 . S
C142 H159 0.930 . S
C143 N139 1.389 . S
C143 C142 1.351 . S
C143 H148 0.930 . S
O144 Cu138 1.974 . S
O144 C154 1.282 . S
C145 O146 1.261 . S
C145 O158 1.251 . S
O146 C145 1.261 . S
H147 C141 0.930 . S
H148 C143 0.930 . S
N149 Cu138 1.985 . S
N149 C151 1.335 . S
N149 C152 1.390 . S
N150 C151 1.345 . S
N150 C153 1.336 . S
C151 N149 1.335 . S
C151 N150 1.345 . S
C151 H156 0.930 . S
C152 N149 1.390 . S
C152 C153 1.346 . S
C152 H157 0.930 . S
C153 N150 1.336 . S
C153 C152 1.346 . S
C153 H160 0.929 . S
C154 O144 1.282 . S
C154 O155 1.216 . S
O155 C154 1.216 . S
H156 C151 0.930 . S
H157 C152 0.930 . S
O158 Cu138 1.959 . S
O158 C145 1.251 . S
H159 C142 0.930 . S
H160 C153 0.929 . S
Cu161 N162 1.999 . S
Cu161 O167 1.974 . S
Cu161 N172 1.985 . S
Cu161 O181 1.959 . S
N162 Cu161 1.999 . S
N162 C164 1.263 . S
N162 C166 1.389 . S
N163 C164 1.358 . S
N163 C165 1.400 . S
C164 N162 1.263 . S
C164 N163 1.358 . S
C164 H170 0.930 . S
C165 N163 1.400 . S
C165 C166 1.351 . S
C165 H182 0.930 . S
C166 N162 1.389 . S
C166 C165 1.351 . S
C166 H171 0.930 . S
O167 Cu161 1.974 . S
O167 C177 1.282 . S
C168 O169 1.261 . S
C168 O181 1.251 . S
O169 C168 1.261 . S
H170 C164 0.930 . S
H171 C166 0.930 . S
N172 Cu161 1.985 . S
N172 C174 1.335 . S
N172 C175 1.390 . S
N173 C174 1.345 . S
N173 C176 1.336 . S
C174 N172 1.335 . S
C174 N173 1.345 . S
C174 H179 0.930 . S
C175 N172 1.390 . S
C175 C176 1.346 . S
C175 H180 0.930 . S
C176 N173 1.336 . S
C176 C175 1.346 . S
C176 H183 0.929 . S
C177 O167 1.282 . S
C177 O178 1.216 . S
O178 C177 1.216 . S
H179 C174 0.930 . S
H180 C175 0.930 . S
O181 Cu161 1.959 . S
O181 C168 1.251 . S
H182 C165 0.930 . S
H183 C176 0.929 . S
H184 C196 0.930 . S
H185 C198 0.930 . S
H186 C199 0.930 1_556 S
H187 C203 0.959 . S
H188 C203 0.959 . S
H189 C203 0.961 . S
H190 C204 0.960 . S
H191 C204 0.974 . S
H192 C204 0.959 1_556 S
H193 C207 0.929 . S
H194 C208 0.931 . S
H195 C210 0.930 . S
C196 H184 0.930 . S
C196 C197 1.399 . S
C196 C201 1.399 . S
C197 C196 1.399 . S
C197 C198 1.376 . S
C198 H185 0.930 . S
C198 C197 1.376 . S
C198 C199 1.388 . S
C199 H186 0.930 1_554 S
C199 C198 1.388 . S
C199 C200 1.390 . S
C200 C199 1.390 . S
C200 C201 1.394 . S
C200 C206 1.465 1_554 S
C201 C196 1.399 . S
C201 C200 1.394 . S
C201 C202 1.516 . S
C202 C201 1.516 . S
C202 C203 1.502 . S
C202 C204 1.561 . S
C202 C205 1.526 1_554 S
C203 H187 0.959 . S
C203 H188 0.959 . S
C203 H189 0.961 . S
C203 C202 1.502 . S
C204 H190 0.960 . S
C204 H191 0.974 . S
C204 H192 0.959 1_554 S
C204 C202 1.561 . S
C205 C202 1.526 1_556 S
C205 C206 1.396 . S
C205 C210 1.390 . S
C206 C200 1.465 1_556 S
C206 C205 1.396 . S
C206 C207 1.399 . S
C207 H193 0.929 . S
C207 C206 1.399 . S
C207 C208 1.385 . S
C208 H194 0.931 . S
C208 C207 1.385 . S
C208 C209 1.389 . S
C209 C208 1.389 . S
C209 C210 1.387 . S
C210 H195 0.930 . S
C210 C205 1.390 . S
C210 C209 1.387 . S
H211 C223 0.930 . S
H212 C225 0.930 . S
H213 C226 0.930 . S
H214 C230 0.959 . S
H215 C230 0.959 . S
H216 C230 0.961 . S
H217 C231 0.960 . S
H218 C231 0.961 . S
H219 C231 0.959 . S
H220 C234 0.929 . S
H221 C235 0.931 . S
H222 C237 0.930 . S
C223 H211 0.930 . S
C223 C224 1.399 . S
C223 C228 1.399 . S
C224 C223 1.399 . S
C224 C225 1.376 . S
C225 H212 0.930 . S
C225 C224 1.376 . S
C225 C226 1.388 . S
C226 H213 0.930 . S
C226 C225 1.388 . S
C226 C227 1.390 . S
C227 C226 1.390 . S
C227 C228 1.394 . S
C227 C233 1.465 . S
C228 C223 1.399 . S
C228 C227 1.394 . S
C228 C229 1.516 . S
C229 C228 1.516 . S
C229 C230 1.502 . S
C229 C231 1.561 . S
C229 C232 1.526 . S
C230 H214 0.959 . S
C230 H215 0.959 . S
C230 H216 0.961 . S
C230 C229 1.502 . S
C231 H217 0.960 . S
C231 H218 0.961 . S
C231 H219 0.959 . S
C231 C229 1.561 . S
C232 C229 1.526 . S
C232 C233 1.396 . S
C232 C237 1.390 . S
C233 C227 1.465 . S
C233 C232 1.396 . S
C233 C234 1.399 . S
C234 H220 0.929 . S
C234 C233 1.399 . S
C234 C235 1.385 . S
C235 H221 0.931 . S
C235 C234 1.385 . S
C235 C236 1.389 . S
C236 C235 1.389 . S
C236 C237 1.387 . S
C237 H222 0.930 . S
C237 C232 1.390 . S
C237 C236 1.387 . S
H238 C250 0.930 . S
H239 C252 0.930 . S
H240 C253 0.930 . S
H241 C257 0.959 . S
H242 C257 0.959 . S
H243 C257 0.961 . S
H244 C258 0.960 . S
H245 C258 0.961 . S
H246 C258 0.959 . S
H247 C261 0.929 . S
H248 C262 0.931 . S
H249 C264 0.930 . S
C250 H238 0.930 . S
C250 C251 1.399 . S
C250 C255 1.399 . S
C251 C250 1.399 . S
C251 C252 1.376 . S
C252 H239 0.930 . S
C252 C251 1.376 . S
C252 C253 1.388 . S
C253 H240 0.930 . S
C253 C252 1.388 . S
C253 C254 1.390 . S
C254 C253 1.390 . S
C254 C255 1.394 . S
C254 C260 1.465 . S
C255 C250 1.399 . S
C255 C254 1.394 . S
C255 C256 1.516 . S
C256 C255 1.516 . S
C256 C257 1.502 . S
C256 C258 1.561 . S
C256 C259 1.526 . S
C257 H241 0.959 . S
C257 H242 0.959 . S
C257 H243 0.961 . S
C257 C256 1.502 . S
C258 H244 0.960 . S
C258 H245 0.961 . S
C258 H246 0.959 . S
C258 C256 1.561 . S
C259 C256 1.526 . S
C259 C260 1.396 . S
C259 C264 1.390 . S
C260 C254 1.465 . S
C260 C259 1.396 . S
C260 C261 1.399 . S
C261 H247 0.929 . S
C261 C260 1.399 . S
C261 C262 1.385 . S
C262 H248 0.931 . S
C262 C261 1.385 . S
C262 C263 1.389 . S
C263 C262 1.389 . S
C263 C264 1.387 . S
C264 H249 0.930 . S
C264 C259 1.390 . S
C264 C263 1.387 . S
H265 C277 0.930 . S
H266 C279 0.930 . S
H267 C280 0.930 . S
H268 C284 0.959 . S
H269 C284 0.959 . S
H270 C284 0.961 . S
H271 C285 0.960 . S
H272 C285 0.961 . S
H273 C285 0.959 . S
H274 C288 0.929 . S
H275 C289 0.931 . S
H276 C291 0.930 . S
C277 H265 0.930 . S
C277 C278 1.399 . S
C277 C282 1.399 . S
C278 C277 1.399 . S
C278 C279 1.376 . S
C279 H266 0.930 . S
C279 C278 1.376 . S
C279 C280 1.388 . S
C280 H267 0.930 . S
C280 C279 1.388 . S
C280 C281 1.390 . S
C281 C280 1.390 . S
C281 C282 1.394 . S
C281 C287 1.465 . S
C282 C277 1.399 . S
C282 C281 1.394 . S
C282 C283 1.516 . S
C283 C282 1.516 . S
C283 C284 1.502 . S
C283 C285 1.561 . S
C283 C286 1.526 . S
C284 H268 0.959 . S
C284 H269 0.959 . S
C284 H270 0.961 . S
C284 C283 1.502 . S
C285 H271 0.960 . S
C285 H272 0.961 . S
C285 H273 0.959 . S
C285 C283 1.561 . S
C286 C283 1.526 . S
C286 C287 1.396 . S
C286 C291 1.390 . S
C287 C281 1.465 . S
C287 C286 1.396 . S
C287 C288 1.399 . S
C288 H274 0.929 . S
C288 C287 1.399 . S
C288 C289 1.385 . S
C289 H275 0.931 . S
C289 C288 1.385 . S
C289 C290 1.389 . S
C290 C289 1.389 . S
C290 C291 1.387 . S
C291 H276 0.930 . S
C291 C286 1.390 . S
C291 C290 1.387 . S
H292 C304 0.930 . S
H293 C306 0.930 . S
H294 C307 0.930 . S
H295 C311 0.959 . S
H296 C311 0.959 . S
H297 C311 0.961 . S
H298 C312 0.960 . S
H299 C312 0.961 . S
H300 C312 0.959 . S
H301 C315 0.929 . S
H302 C316 0.931 . S
H303 C318 0.930 . S
C304 H292 0.930 . S
C304 C305 1.399 . S
C304 C309 1.399 . S
C305 C304 1.399 . S
C305 C306 1.376 . S
C306 H293 0.930 . S
C306 C305 1.376 . S
C306 C307 1.388 . S
C307 H294 0.930 . S
C307 C306 1.388 . S
C307 C308 1.390 . S
C308 C307 1.390 . S
C308 C309 1.394 . S
C308 C314 1.465 . S
C309 C304 1.399 . S
C309 C308 1.394 . S
C309 C310 1.516 . S
C310 C309 1.516 . S
C310 C311 1.502 . S
C310 C312 1.561 . S
C310 C313 1.526 . S
C311 H295 0.959 . S
C311 H296 0.959 . S
C311 H297 0.961 . S
C311 C310 1.502 . S
C312 H298 0.960 . S
C312 H299 0.961 . S
C312 H300 0.959 . S
C312 C310 1.561 . S
C313 C310 1.526 . S
C313 C314 1.396 . S
C313 C318 1.390 . S
C314 C308 1.465 . S
C314 C313 1.396 . S
C314 C315 1.399 . S
C315 H301 0.929 . S
C315 C314 1.399 . S
C315 C316 1.385 . S
C316 H302 0.931 . S
C316 C315 1.385 . S
C316 C317 1.389 . S
C317 C316 1.389 . S
C317 C318 1.387 . S
C318 H303 0.930 . S
C318 C313 1.390 . S
C318 C317 1.387 . S
H319 C331 0.930 . S
H320 C333 0.930 . S
H321 C334 0.930 . S
H322 C338 0.959 . S
H323 C338 0.959 . S
H324 C338 0.961 . S
H325 C339 0.960 . S
H326 C339 0.961 . S
H327 C339 0.959 . S
H328 C342 0.929 . S
H329 C343 0.931 . S
H330 C345 0.930 . S
C331 H319 0.930 . S
C331 C332 1.399 . S
C331 C336 1.399 . S
C332 C331 1.399 . S
C332 C333 1.376 . S
C333 H320 0.930 . S
C333 C332 1.376 . S
C333 C334 1.388 . S
C334 H321 0.930 . S
C334 C333 1.388 . S
C334 C335 1.390 . S
C335 C334 1.390 . S
C335 C336 1.394 . S
C335 C341 1.465 . S
C336 C331 1.399 . S
C336 C335 1.394 . S
C336 C337 1.516 . S
C337 C336 1.516 . S
C337 C338 1.502 . S
C337 C339 1.561 . S
C337 C340 1.526 . S
C338 H322 0.959 . S
C338 H323 0.959 . S
C338 H324 0.961 . S
C338 C337 1.502 . S
C339 H325 0.960 . S
C339 H326 0.961 . S
C339 H327 0.959 . S
C339 C337 1.561 . S
C340 C337 1.526 . S
C340 C341 1.396 . S
C340 C345 1.390 . S
C341 C335 1.465 . S
C341 C340 1.396 . S
C341 C342 1.399 . S
C342 H328 0.929 . S
C342 C341 1.399 . S
C342 C343 1.385 . S
C343 H329 0.931 . S
C343 C342 1.385 . S
C343 C344 1.389 . S
C344 C343 1.389 . S
C344 C345 1.387 . S
C345 H330 0.930 . S
C345 C340 1.390 . S
C345 C344 1.387 . S
H346 C358 0.930 . S
H347 C360 0.930 . S
H348 C361 0.930 . S
H349 C365 0.959 . S
H350 C365 0.959 . S
H351 C365 0.961 . S
H352 C366 0.960 . S
H353 C366 0.961 . S
H354 C366 0.959 . S
H355 C369 0.929 . S
H356 C370 0.931 . S
H357 C372 0.930 . S
C358 H346 0.930 . S
C358 C359 1.399 . S
C358 C363 1.399 . S
C359 C358 1.399 . S
C359 C360 1.376 . S
C360 H347 0.930 . S
C360 C359 1.376 . S
C360 C361 1.388 . S
C361 H348 0.930 . S
C361 C360 1.388 . S
C361 C362 1.390 . S
C362 C361 1.390 . S
C362 C363 1.394 . S
C362 C368 1.465 . S
C363 C358 1.399 . S
C363 C362 1.394 . S
C363 C364 1.516 . S
C364 C363 1.516 . S
C364 C365 1.502 . S
C364 C366 1.561 . S
C364 C367 1.526 . S
C365 H349 0.959 . S
C365 H350 0.959 . S
C365 H351 0.961 . S
C365 C364 1.502 . S
C366 H352 0.960 . S
C366 H353 0.961 . S
C366 H354 0.959 . S
C366 C364 1.561 . S
C367 C364 1.526 . S
C367 C368 1.396 . S
C367 C372 1.390 . S
C368 C362 1.465 . S
C368 C367 1.396 . S
C368 C369 1.399 . S
C369 H355 0.929 . S
C369 C368 1.399 . S
C369 C370 1.385 . S
C370 H356 0.931 . S
C370 C369 1.385 . S
C370 C371 1.389 . S
C371 C370 1.389 . S
C371 C372 1.387 . S
C372 H357 0.930 . S
C372 C367 1.390 . S
C372 C371 1.387 . S
H373 C385 0.930 . S
H374 C387 0.930 . S
H375 C388 0.930 1_556 S
H376 C392 0.959 . S
H377 C392 0.959 . S
H378 C392 0.961 . S
H379 C393 0.960 . S
H380 C393 0.961 . S
H381 C393 0.959 . S
H382 C396 0.929 . S
H383 C397 0.931 . S
H384 C399 0.930 . S
C385 H373 0.930 . S
C385 C386 1.399 . S
C385 C390 1.399 . S
C386 C385 1.399 . S
C386 C387 1.376 . S
C387 H374 0.930 . S
C387 C386 1.376 . S
C387 C388 1.388 . S
C388 H375 0.930 1_554 S
C388 C387 1.388 . S
C388 C389 1.390 . S
C389 C388 1.390 . S
C389 C390 1.394 . S
C389 C395 1.465 1_554 S
C390 C385 1.399 . S
C390 C389 1.394 . S
C390 C391 1.516 . S
C391 C390 1.516 . S
C391 C392 1.502 . S
C391 C393 1.561 . S
C391 C394 1.526 1_554 S
C392 H376 0.959 . S
C392 H377 0.959 . S
C392 H378 0.961 . S
C392 C391 1.502 . S
C393 H379 0.960 . S
C393 H380 0.961 . S
C393 H381 0.959 . S
C393 C391 1.561 . S
C394 C391 1.526 1_556 S
C394 C395 1.396 . S
C394 C399 1.390 . S
C395 C389 1.465 1_556 S
C395 C394 1.396 . S
C395 C396 1.399 . S
C396 H382 0.929 . S
C396 C395 1.399 . S
C396 C397 1.385 . S
C397 H383 0.931 . S
C397 C396 1.385 . S
C397 C398 1.389 . S
C398 C397 1.389 . S
C398 C399 1.387 . S
C399 H384 0.930 . S
C399 C394 1.390 . S
C399 C398 1.387 . S
H400 C412 0.930 . S
H401 C414 0.930 . S
H402 C415 0.930 . S
H403 C419 0.959 . S
H404 C419 0.959 . S
H405 C419 0.961 . S
H406 C420 0.960 1_545 S
H407 C420 0.961 1_655 S
H408 C420 0.959 . S
H409 C423 0.929 1_455 S
H410 C424 0.931 . S
H411 C426 0.930 . S
C412 H400 0.930 . S
C412 C413 1.399 . S
C412 C417 1.399 . S
C413 C412 1.399 . S
C413 C414 1.376 . S
C414 H401 0.930 . S
C414 C413 1.376 . S
C414 C415 1.388 . S
C415 H402 0.930 . S
C415 C414 1.388 . S
C415 C416 1.390 . S
C416 C415 1.390 . S
C416 C417 1.394 . S
C416 C422 1.465 1_445 S
C417 C412 1.399 . S
C417 C416 1.394 . S
C417 C418 1.516 1_455 S
C418 C417 1.516 1_655 S
C418 C419 1.502 . S
C418 C420 1.561 1_645 S
C418 C421 1.526 1_545 S
C419 H403 0.959 . S
C419 H404 0.959 . S
C419 H405 0.961 . S
C419 C418 1.502 . S
C420 H406 0.960 1_565 S
C420 H407 0.961 1_455 S
C420 H408 0.959 . S
C420 C418 1.561 1_465 S
C421 C418 1.526 1_565 S
C421 C422 1.396 . S
C421 C426 1.390 . S
C422 C416 1.465 1_665 S
C422 C421 1.396 . S
C422 C423 1.399 . S
C423 H409 0.929 1_655 S
C423 C422 1.399 . S
C423 C424 1.385 . S
C424 H410 0.931 . S
C424 C423 1.385 . S
C424 C425 1.389 . S
C425 C424 1.389 . S
C425 C426 1.387 . S
C426 H411 0.930 . S
C426 C421 1.390 . S
C426 C425 1.387 . S
H427 C439 0.930 . S
H428 C441 0.930 . S
H429 C442 0.930 . S
H430 C446 0.959 . S
H431 C446 0.959 . S
H432 C446 0.961 . S
H433 C447 0.960 . S
H434 C447 0.961 1_655 S
H435 C447 0.959 . S
H436 C450 0.929 . S
H437 C451 0.931 . S
H438 C453 0.930 . S
C439 H427 0.930 . S
C439 C440 1.399 . S
C439 C444 1.399 . S
C440 C439 1.399 . S
C440 C441 1.376 . S
C441 H428 0.930 . S
C441 C440 1.376 . S
C441 C442 1.388 . S
C442 H429 0.930 . S
C442 C441 1.388 . S
C442 C443 1.390 . S
C443 C442 1.390 . S
C443 C444 1.394 . S
C443 C449 1.465 1_455 S
C444 C439 1.399 . S
C444 C443 1.394 . S
C444 C445 1.516 1_455 S
C445 C444 1.516 1_655 S
C445 C446 1.502 . S
C445 C447 1.561 1_655 S
C445 C448 1.526 . S
C446 H430 0.959 . S
C446 H431 0.959 . S
C446 H432 0.961 . S
C446 C445 1.502 . S
C447 H433 0.960 . S
C447 H434 0.961 1_455 S
C447 H435 0.959 . S
C447 C445 1.561 1_455 S
C448 C445 1.526 . S
C448 C449 1.396 . S
C448 C453 1.390 . S
C449 C443 1.465 1_655 S
C449 C448 1.396 . S
C449 C450 1.399 . S
C450 H436 0.929 . S
C450 C449 1.399 . S
C450 C451 1.385 . S
C451 H437 0.931 . S
C451 C450 1.385 . S
C451 C452 1.389 . S
C452 C451 1.389 . S
C452 C453 1.387 . S
C453 H438 0.930 . S
C453 C448 1.390 . S
C453 C452 1.387 . S
H454 C466 0.930 . S
H455 C468 0.930 . S
H456 C469 0.930 . S
H457 C473 0.959 . S
H458 C473 0.959 . S
H459 C473 0.961 . S
H460 C474 0.960 . S
H461 C474 0.961 . S
H462 C474 0.959 . S
H463 C477 0.929 . S
H464 C478 0.931 . S
H465 C480 0.930 . S
C466 H454 0.930 . S
C466 C467 1.399 . S
C466 C471 1.399 . S
C467 C466 1.399 . S
C467 C468 1.376 . S
C468 H455 0.930 . S
C468 C467 1.376 . S
C468 C469 1.388 . S
C469 H456 0.930 . S
C469 C468 1.388 . S
C469 C470 1.390 . S
C470 C469 1.390 . S
C470 C471 1.394 . S
C470 C476 1.465 . S
C471 C466 1.399 . S
C471 C470 1.394 . S
C471 C472 1.516 . S
C472 C471 1.516 . S
C472 C473 1.502 . S
C472 C474 1.561 . S
C472 C475 1.526 . S
C473 H457 0.959 . S
C473 H458 0.959 . S
C473 H459 0.961 . S
C473 C472 1.502 . S
C474 H460 0.960 . S
C474 H461 0.961 . S
C474 H462 0.959 . S
C474 C472 1.561 . S
C475 C472 1.526 . S
C475 C476 1.396 . S
C475 C480 1.390 . S
C476 C470 1.465 . S
C476 C475 1.396 . S
C476 C477 1.399 . S
C477 H463 0.929 . S
C477 C476 1.399 . S
C477 C478 1.385 . S
C478 H464 0.931 . S
C478 C477 1.385 . S
C478 C479 1.389 . S
C479 C478 1.389 . S
C479 C480 1.387 . S
C480 H465 0.930 . S
C480 C475 1.390 . S
C480 C479 1.387 . S
H481 C493 0.930 . S
H482 C495 0.930 . S
H483 C496 0.930 . S
H484 C500 0.959 . S
H485 C500 0.959 . S
H486 C500 0.961 1_565 S
H487 C501 0.960 . S
H488 C501 0.961 . S
H489 C501 0.959 . S
H490 C504 0.929 . S
H491 C505 0.931 . S
H492 C507 0.930 . S
C493 H481 0.930 . S
C493 C494 1.399 . S
C493 C498 1.399 . S
C494 C493 1.399 . S
C494 C495 1.376 . S
C495 H482 0.930 . S
C495 C494 1.376 . S
C495 C496 1.388 . S
C496 H483 0.930 . S
C496 C495 1.388 . S
C496 C497 1.390 . S
C497 C496 1.390 . S
C497 C498 1.394 . S
C497 C503 1.465 1_565 S
C498 C493 1.399 . S
C498 C497 1.394 . S
C498 C499 1.516 . S
C499 C498 1.516 . S
C499 C500 1.502 1_565 S
C499 C501 1.561 . S
C499 C502 1.526 1_565 S
C500 H484 0.959 . S
C500 H485 0.959 . S
C500 H486 0.961 1_545 S
C500 C499 1.502 1_545 S
C501 H487 0.960 . S
C501 H488 0.961 . S
C501 H489 0.959 . S
C501 C499 1.561 . S
C502 C499 1.526 1_545 S
C502 C503 1.396 . S
C502 C507 1.390 . S
C503 C497 1.465 1_545 S
C503 C502 1.396 . S
C503 C504 1.399 . S
C504 H490 0.929 . S
C504 C503 1.399 . S
C504 C505 1.385 . S
C505 H491 0.931 . S
C505 C504 1.385 . S
C505 C506 1.389 . S
C506 C505 1.389 . S
C506 C507 1.387 . S
C507 H492 0.930 . S
C507 C502 1.390 . S
C507 C506 1.387 . S
H508 C520 0.930 . S
H509 C522 0.930 . S
H510 C523 0.930 . S
H511 C527 0.959 . S
H512 C527 0.959 . S
H513 C527 0.961 . S
H514 C528 0.960 . S
H515 C528 0.961 . S
H516 C528 0.959 . S
H517 C531 0.929 . S
H518 C532 0.931 . S
H519 C534 0.930 . S
C520 H508 0.930 . S
C520 C521 1.399 . S
C520 C525 1.399 . S
C521 C520 1.399 . S
C521 C522 1.376 . S
C522 H509 0.930 . S
C522 C521 1.376 . S
C522 C523 1.388 . S
C523 H510 0.930 . S
C523 C522 1.388 . S
C523 C524 1.390 . S
C524 C523 1.390 . S
C524 C525 1.394 . S
C524 C530 1.465 1_655 S
C525 C520 1.399 . S
C525 C524 1.394 . S
C525 C526 1.518 . S
C526 C525 1.518 . S
C526 C527 1.504 . S
C526 C528 1.559 1_655 S
C526 C529 1.524 1_655 S
C527 H511 0.959 . S
C527 H512 0.959 . S
C527 H513 0.961 . S
C527 C526 1.504 . S
C528 H514 0.960 . S
C528 H515 0.961 . S
C528 H516 0.959 . S
C528 C526 1.559 1_455 S
C529 C526 1.524 1_455 S
C529 C530 1.396 . S
C529 C534 1.390 . S
C530 C524 1.465 1_455 S
C530 C529 1.396 . S
C530 C531 1.399 . S
C531 H517 0.929 . S
C531 C530 1.399 . S
C531 C532 1.385 . S
C532 H518 0.931 . S
C532 C531 1.385 . S
C532 C533 1.389 . S
C533 C532 1.389 . S
C533 C534 1.387 . S
C534 H519 0.930 . S
C534 C529 1.390 . S
C534 C533 1.387 . S
H535 C547 0.930 . S
H536 C549 0.930 . S
H537 C550 0.930 . S
H538 C554 0.959 . S
H539 C554 0.959 . S
H540 C554 0.961 . S
H541 C555 0.960 . S
H542 C555 0.961 . S
H543 C555 0.959 . S
H544 C558 0.929 . S
H545 C559 0.931 . S
H546 C561 0.930 . S
C547 H535 0.930 . S
C547 C548 1.399 . S
C547 C552 1.399 . S
C548 C547 1.399 . S
C548 C549 1.376 . S
C549 H536 0.930 . S
C549 C548 1.376 . S
C549 C550 1.388 . S
C550 H537 0.930 . S
C550 C549 1.388 . S
C550 C551 1.390 . S
C551 C550 1.390 . S
C551 C552 1.394 . S
C551 C557 1.465 . S
C552 C547 1.399 . S
C552 C551 1.394 . S
C552 C553 1.516 . S
C553 C552 1.516 . S
C553 C554 1.502 . S
C553 C555 1.561 . S
C553 C556 1.526 . S
C554 H538 0.959 . S
C554 H539 0.959 . S
C554 H540 0.961 . S
C554 C553 1.502 . S
C555 H541 0.960 . S
C555 H542 0.961 . S
C555 H543 0.959 . S
C555 C553 1.561 . S
C556 C553 1.526 . S
C556 C557 1.396 . S
C556 C561 1.390 . S
C557 C551 1.465 . S
C557 C556 1.396 . S
C557 C558 1.399 . S
C558 H544 0.929 . S
C558 C557 1.399 . S
C558 C559 1.385 . S
C559 H545 0.931 . S
C559 C558 1.385 . S
C559 C560 1.389 . S
C560 C559 1.389 . S
C560 C561 1.387 . S
C561 H546 0.930 . S
C561 C556 1.390 . S
C561 C560 1.387 . S
H562 C574 0.930 . S
H563 C576 0.930 . S
H564 C577 0.930 . S
H565 C581 0.959 . S
H566 C581 0.959 . S
H567 C581 0.961 . S
H568 C582 0.960 . S
H569 C582 0.980 . S
H570 C582 0.959 . S
H571 C585 0.929 . S
H572 C586 0.931 . S
H573 C588 0.930 . S
C574 H562 0.930 . S
C574 C575 1.399 . S
C574 C579 1.399 . S
C575 C574 1.399 . S
C575 C576 1.376 . S
C576 H563 0.930 . S
C576 C575 1.376 . S
C576 C577 1.388 . S
C577 H564 0.930 . S
C577 C576 1.388 . S
C577 C578 1.390 . S
C578 C577 1.390 . S
C578 C579 1.394 . S
C578 C584 1.465 1_545 S
C579 C574 1.399 . S
C579 C578 1.394 . S
C579 C580 1.516 1_545 S
C580 C579 1.516 1_565 S
C580 C581 1.502 . S
C580 C582 1.561 1_565 S
C580 C583 1.526 . S
C581 H565 0.959 . S
C581 H566 0.959 . S
C581 H567 0.961 . S
C581 C580 1.502 . S
C582 H568 0.960 . S
C582 H569 0.980 . S
C582 H570 0.959 . S
C582 C580 1.561 1_545 S
C583 C580 1.526 . S
C583 C584 1.396 . S
C583 C588 1.390 . S
C584 C578 1.465 1_565 S
C584 C583 1.396 . S
C584 C585 1.399 . S
C585 H571 0.929 . S
C585 C584 1.399 . S
C585 C586 1.385 . S
C586 H572 0.931 . S
C586 C585 1.385 . S
C586 C587 1.389 . S
C587 C586 1.389 . S
C587 C588 1.387 . S
C588 H573 0.930 . S
C588 C583 1.390 . S
C588 C587 1.387 . S
H589 C601 0.930 . S
H590 C603 0.930 . S
H591 C604 0.930 . S
H592 C608 0.959 . S
H593 C608 0.959 . S
H594 C608 0.961 . S
H595 C609 0.960 1_565 S
H596 C609 0.961 1_455 S
H597 C609 0.959 1_465 S
H598 C612 0.929 1_565 S
H599 C613 0.931 . S
H600 C615 0.930 . S
C601 H589 0.930 . S
C601 C602 1.399 . S
C601 C606 1.399 . S
C602 C601 1.399 . S
C602 C603 1.376 . S
C603 H590 0.930 . S
C603 C602 1.376 . S
C603 C604 1.388 . S
C604 H591 0.930 . S
C604 C603 1.388 . S
C604 C605 1.390 . S
C605 C604 1.390 . S
C605 C606 1.394 . S
C605 C611 1.456 1_665 S
C606 C601 1.399 . S
C606 C605 1.394 . S
C606 C607 1.516 1_565 S
C607 C606 1.516 1_545 S
C607 C608 1.502 . S
C607 C609 1.561 . S
C607 C610 1.526 1_655 S
C608 H592 0.959 . S
C608 H593 0.959 . S
C608 H594 0.961 . S
C608 C607 1.502 . S
C609 H595 0.960 1_545 S
C609 H596 0.961 1_655 S
C609 H597 0.959 1_645 S
C609 C607 1.561 . S
C610 C607 1.526 1_455 S
C610 C611 1.406 . S
C610 C615 1.390 . S
C611 C605 1.456 1_445 S
C611 C610 1.406 . S
C611 C612 1.399 . S
C612 H598 0.929 1_545 S
C612 C611 1.399 . S
C612 C613 1.385 . S
C613 H599 0.931 . S
C613 C612 1.385 . S
C613 C614 1.389 . S
C614 C613 1.389 . S
C614 C615 1.387 . S
C615 H600 0.930 . S
C615 C610 1.390 . S
C615 C614 1.387 . S
C197 C16 1.862 . S
C209 C131 1.812 . S
C224 C30 1.873 . S
C236 C145 1.897 . S
C251 C62 1.857 . S
C263 C177 1.872 . S
C278 C76 1.890 . S
C290 C99 1.920 . S
C305 C168 1.905 . S
C317 C7 1.871 . S
C332 C108 1.817 . S
C344 C39 1.874 . S
C359 C53 1.909 . S
C371 C122 1.871 . S
C386 C154 1.874 . S
C398 C85 1.818 . S
C413 N2 1.710 . S
C425 N140 1.638 . S
C440 N173 1.818 . S
C452 N35 1.854 . S
C467 N48 1.714 . S
C479 N94 1.659 . S
C494 N81 1.810 . S
C506 N127 1.805 . S
C521 N150 1.827 . S
C533 N12 1.850 . S
C548 N163 1.692 . S
C560 N25 1.653 . S
C575 N58 1.825 . S
C587 N104 1.851 . S
C602 N71 1.716 . S
C614 N117 1.633 . S
