# Generated by pormake.
# Topology tfs, (6)-cn, num edge types: 1
# Building blocks:
#     Node 0, Type 0, BuildingBlock: MIFKUJ_clean_sbu_0, # of connection points: 6
#     Node 1, Type 0, BuildingBlock: MIFKUJ_clean_sbu_0, # of connection points: 6
#     Node 2, Type 0, BuildingBlock: MIFKUJ_clean_sbu_0, # of connection points: 6
#     Node 3, Type 0, BuildingBlock: MIFKUJ_clean_sbu_0, # of connection points: 6
#     Node 4, Type 0, BuildingBlock: MIFKUJ_clean_sbu_0, # of connection points: 6
#     Node 5, Type 0, BuildingBlock: MIFKUJ_clean_sbu_0, # of connection points: 6
#     Edge 6, Type (0, 0), BuildingBlock: ZUJKAS_clean_linker_0, # of connection points: 2
#     Edge 7, Type (0, 0), BuildingBlock: ZUJKAS_clean_linker_0, # of connection points: 2
#     Edge 8, Type (0, 0), BuildingBlock: ZUJKAS_clean_linker_0, # of connection points: 2
#     Edge 9, Type (0, 0), BuildingBlock: ZUJKAS_clean_linker_0, # of connection points: 2
#     Edge 10, Type (0, 0), BuildingBlock: ZUJKAS_clean_linker_0, # of connection points: 2
#     Edge 11, Type (0, 0), BuildingBlock: ZUJKAS_clean_linker_0, # of connection points: 2
#     Edge 12, Type (0, 0), BuildingBlock: ZUJKAS_clean_linker_0, # of connection points: 2
#     Edge 13, Type (0, 0), BuildingBlock: ZUJKAS_clean_linker_0, # of connection points: 2
#     Edge 14, Type (0, 0), BuildingBlock: ZUJKAS_clean_linker_0, # of connection points: 2
#     Edge 15, Type (0, 0), BuildingBlock: ZUJKAS_clean_linker_0, # of connection points: 2
#     Edge 16, Type (0, 0), BuildingBlock: ZUJKAS_clean_linker_0, # of connection points: 2
#     Edge 17, Type (0, 0), BuildingBlock: ZUJKAS_clean_linker_0, # of connection points: 2
#     Edge 18, Type (0, 0), BuildingBlock: ZUJKAS_clean_linker_0, # of connection points: 2
#     Edge 19, Type (0, 0), BuildingBlock: ZUJKAS_clean_linker_0, # of connection points: 2
#     Edge 20, Type (0, 0), BuildingBlock: ZUJKAS_clean_linker_0, # of connection points: 2
#     Edge 21, Type (0, 0), BuildingBlock: ZUJKAS_clean_linker_0, # of connection points: 2
#     Edge 22, Type (0, 0), BuildingBlock: ZUJKAS_clean_linker_0, # of connection points: 2
#     Edge 23, Type (0, 0), BuildingBlock: ZUJKAS_clean_linker_0, # of connection points: 2
# Relax obj value: 0.401
# Max RMSD: 0.242
# Mean RMSD: 0.242
data_MOF--net-tfs--node1-MIFKUJ_clean_sbu_0--edge1-ZUJKAS_clean_linker_0
_symmetry_space_group_name_H-M    P1
_symmetry_Int_Tables_number       1
_symmetry_cell_setting            triclinic
loop_
_symmetry_equiv_pos_as_xyz
'x, y, z'
_cell_length_a     59.094006
_cell_length_b     59.121215
_cell_length_c     18.621021
_cell_angle_alpha  89.929408
_cell_angle_beta   90.12785
_cell_angle_gamma 119.97085
loop_
_atom_site_label
_atom_site_type_symbol
_atom_site_fract_x
_atom_site_fract_y
_atom_site_fract_z
_atom_type_partial_charge
Zn0 Zn 0.21207 0.45224 0.90178 0.0
Zn1 Zn 0.20605 0.38644 0.92253 0.0
C2 C 0.26143 0.48607 0.96849 0.0
O3 O 0.24617 0.48368 0.02263 0.0
C4 C 0.15263 0.34537 0.92217 0.0
O5 O 0.16036 0.33885 0.86359 0.0
O6 O 0.20023 0.47871 0.89449 0.0
O7 O 0.20326 0.43193 0.8092 0.0
O8 O 0.20369 0.39457 0.81923 0.0
C9 C 0.21058 0.4966 0.8474 0.0
O10 O 0.22752 0.4963 0.80238 0.0
O11 O 0.25124 0.47347 0.91095 0.0
C12 C 0.21931 0.34877 0.97767 0.0
O13 O 0.20225 0.34562 0.02744 0.0
O14 O 0.22413 0.36525 0.92777 0.0
O15 O 0.22449 0.41759 0.98569 0.0
O16 O 0.19701 0.43205 0.99237 0.0
O17 O 0.16912 0.365 0.9581 0.0
C18 C 0.20152 0.4114 0.78172 0.0
C19 C 0.20822 0.42091 0.02176 0.0
Zn20 Zn 0.76678 0.21709 0.02443 0.0
Zn21 Zn 0.8227 0.20113 0.00402 0.0
C22 C 0.78798 0.27086 0.06371 0.0
O23 O 0.78204 0.26043 0.12813 0.0
C24 C 0.81211 0.14897 0.00529 0.0
O25 O 0.83187 0.15993 0.05029 0.0
O26 O 0.7288 0.20573 0.03871 0.0
O27 O 0.76927 0.20035 0.93339 0.0
O28 O 0.81176 0.22133 0.94185 0.0
C29 C 0.71564 0.20517 0.98395 0.0
O30 O 0.72699 0.21088 0.92073 0.0
O31 O 0.78434 0.25615 0.00999 0.0
C32 C 0.87734 0.23274 0.03982 0.0
O33 O 0.86798 0.24034 0.0926 0.0
O34 O 0.86161 0.21615 -0.00521 0.0
O35 O 0.81368 0.20158 0.10726 0.0
O36 O 0.78033 0.20905 0.11547 0.0
O37 O 0.8044 0.16319 0.9748 0.0
C38 C 0.7913 0.20701 0.90589 0.0
C39 C 0.79696 0.20405 0.14417 0.0
Zn40 Zn 0.55596 0.76202 -0.00448 0.0
Zn41 Zn 0.61051 0.81862 0.99221 0.0
C42 C 0.52356 0.7826 0.04201 0.0
O43 O 0.52433 0.77122 0.1019 0.0
C44 C 0.64761 0.80183 0.94944 0.0
O45 O 0.6524 0.8178 0.89513 0.0
O46 O 0.52744 0.72443 0.00143 0.0
O47 O 0.57668 0.76663 0.90747 0.0
O48 O 0.58883 0.80829 0.90307 0.0
C49 C 0.51546 0.71179 0.94548 0.0
O50 O 0.52273 0.72319 0.88247 0.0
O51 O 0.53691 0.78252 0.9886 0.0
C52 C 0.6576 0.86897 0.01521 0.0
O53 O 0.66483 0.85537 0.05529 0.0
O54 O 0.63556 0.85735 0.98373 0.0
O55 O 0.59207 0.81238 0.08619 0.0
O56 O 0.57669 0.76986 0.08528 0.0
O57 O 0.63081 0.79928 -0.00391 0.0
C58 C 0.58546 0.78771 0.8723 0.0
C59 C 0.58666 0.7914 0.11876 0.0
Zn60 Zn 0.80087 0.56346 0.01049 0.0
Zn61 Zn 0.79806 0.61861 0.00426 0.0
C62 C 0.74847 0.52992 0.05719 0.0
O63 O 0.76111 0.53045 0.1159 0.0
C64 C 0.85217 0.6564 0.96223 0.0
O65 O 0.84128 0.66165 0.90797 0.0
O66 O 0.81054 0.53526 0.01869 0.0
O67 O 0.81655 0.58372 0.92133 0.0
O68 O 0.787 0.5959 0.91713 0.0
C69 C 0.80662 0.51996 0.96625 0.0
O70 O 0.79756 0.52372 0.9056 0.0
O71 O 0.7614 0.54395 0.00407 0.0
C72 C 0.78379 0.65814 0.04104 0.0
O73 O 0.79467 0.65878 0.10319 0.0
O74 O 0.7835 0.64302 0.99205 0.0
O75 O 0.78643 0.60068 0.09928 0.0
O76 O 0.81333 0.58488 0.09931 0.0
O77 O 0.83767 0.63933 0.00806 0.0
C78 C 0.80438 0.59276 0.88642 0.0
C79 C 0.80192 0.59518 0.13215 0.0
Zn80 Zn 0.24331 0.79004 -0.00138 0.0
Zn81 Zn 0.18604 0.80224 0.01276 0.0
C82 C 0.20973 0.73371 0.9751 0.0
O83 O 0.1947 0.73516 0.02457 0.0
C84 C 0.20393 0.85594 0.96742 0.0
O85 O 0.18358 0.84497 0.9244 0.0
O86 O 0.28247 0.80542 0.00654 0.0
O87 O 0.23418 0.81059 0.93036 0.0
O88 O 0.19152 0.78638 0.92401 0.0
C89 C 0.29534 0.80451 0.95303 0.0
O90 O 0.28324 0.7958 0.8913 0.0
O91 O 0.23034 0.75433 0.95592 0.0
C92 C 0.1307 0.77188 0.04532 0.0
O93 O 0.1385 0.75819 0.08285 0.0
O94 O 0.14763 0.79208 0.01192 0.0
O95 O 0.19415 0.79082 0.10666 0.0
O96 O 0.22896 0.78563 0.09924 0.0
O97 O 0.20863 0.84158 0.00847 0.0
C98 C 0.21377 0.79562 0.89478 0.0
C99 C 0.21064 0.78563 0.13516 0.0
Zn100 Zn 0.45709 0.24988 0.03354 0.0
Zn101 Zn 0.39294 0.18973 0.0134 0.0
C102 C 0.4897 0.22924 0.07201 0.0
O103 O 0.4884 0.23902 0.13417 0.0
C104 C 0.35114 0.20036 0.02473 0.0
O105 O 0.34577 0.18456 0.07976 0.0
O106 O 0.48518 0.28785 0.04324 0.0
O107 O 0.43581 0.24579 0.94535 0.0
O108 O 0.42376 0.20428 0.94736 0.0
C109 C 0.49737 0.30065 0.98768 0.0
O110 O 0.49038 0.28928 0.92456 0.0
O111 O 0.47682 0.23067 0.01917 0.0
C112 C 0.36022 0.13475 0.05214 0.0
O113 O 0.36204 0.14423 0.11701 0.0
O114 O 0.37186 0.15038 0.00045 0.0
O115 O 0.40137 0.19901 0.11786 0.0
O116 O 0.43755 0.23797 0.1269 0.0
O117 O 0.37052 0.20515 0.98509 0.0
C118 C 0.42607 0.22395 0.91356 0.0
C119 C 0.41781 0.21842 0.15486 0.0
H120 H 0.35886 0.23667 0.92146 0.0
H121 H 0.3361 0.2616 0.90943 0.0
H122 H 0.28697 0.21991 0.08923 0.0
H123 H 0.30962 0.19509 0.10215 0.0
H124 H 0.28154 0.24419 0.88986 0.0
H125 H 0.32027 0.29755 0.1467 0.0
H126 H 0.33413 0.28 0.1031 0.0
H127 H 0.30453 0.26264 0.15423 0.0
C128 C 0.34311 0.2327 0.9582 0.0
C129 C 0.3362 0.21405 0.01318 0.0
C130 C 0.33015 0.24696 0.95122 0.0
C131 C 0.3102 0.2429 -0.00073 0.0
C132 C 0.30267 0.22368 0.05252 0.0
H133 H 0.21239 0.31089 0.07406 0.0
H134 H 0.23423 0.28501 0.07608 0.0
C135 C 0.31557 0.20943 0.05955 0.0
C136 C 0.29744 0.25897 -0.00535 0.0
H137 H 0.28728 0.3026 0.08886 0.0
C138 C 0.28288 0.25709 0.93308 0.0
C139 C 0.29929 0.27576 0.05122 0.0
C140 C 0.31558 0.27937 0.11733 0.0
C141 C 0.26949 0.27108 0.92737 0.0
C142 C 0.27117 0.28772 0.98425 0.0
C143 C 0.28595 0.28975 0.04549 0.0
C144 C 0.25767 0.30315 0.98165 0.0
C145 C 0.25311 0.26738 0.86142 0.0
C146 C 0.26382 0.32214 0.92835 0.0
C147 C 0.25134 0.33693 0.92694 0.0
C148 C 0.2326 0.33315 0.97921 0.0
C149 C 0.22667 0.31427 0.03294 0.0
C150 C 0.23914 0.29946 0.0342 0.0
H151 H 0.24846 0.2492 0.83209 0.0
H152 H 0.23454 0.26667 0.87579 0.0
H153 H 0.26408 0.28409 0.82444 0.0
H154 H 0.27849 0.32571 0.88825 0.0
H155 H 0.25648 0.35142 0.88506 0.0
H156 H 0.13012 0.35437 0.03883 0.0
H157 H 0.08358 0.33317 0.06783 0.0
H158 H 0.06553 0.2841 0.8808 0.0
H159 H 0.11196 0.30487 0.85189 0.0
H160 H 0.04539 0.33306 0.98153 0.0
H161 H 0.02262 0.23165 0.0366 0.0
H162 H 0.05565 0.25885 0.03431 0.0
H163 H 0.03863 0.24413 0.95209 0.0
C164 C 0.11628 0.33883 0.00436 0.0
C165 C 0.12474 0.33131 0.94299 0.0
C166 C 0.0897 0.32675 0.02103 0.0
C167 C 0.07114 0.30685 0.97698 0.0
C168 C 0.07956 0.29902 0.91639 0.0
H169 H 0.90322 0.22215 0.93526 0.0
H170 H 0.95041 0.24038 0.92322 0.0
C171 C 0.10612 0.31105 0.8997 0.0
C172 C 0.04286 0.29558 0.99133 0.0
H173 H 0.98622 0.23817 0.01994 0.0
C174 C 0.03247 0.31236 0.99069 0.0
C175 C 0.02608 0.26855 0.00293 0.0
C176 C 0.03631 0.24976 0.00724 0.0
C177 C 0.00561 0.30274 -0.00067 0.0
C178 C 0.98878 0.27567 0.01005 0.0
C179 C 0.99919 0.25891 0.01152 0.0
C180 C 0.96022 0.26433 0.01864 0.0
C181 C 0.99537 0.32153 -0.00534 0.0
C182 C 0.95012 0.27151 0.07684 0.0
C183 C 0.92319 0.26121 0.08378 0.0
C184 C 0.90585 0.2434 0.03285 0.0
C185 C 0.91603 0.2359 0.97527 0.0
C186 C 0.94298 0.24624 0.96836 0.0
H187 H 0.00971 0.3403 0.96922 0.0
H188 H 0.97687 0.31294 0.9635 0.0
H189 H 0.99134 0.32585 0.0496 0.0
H190 H 0.96308 0.28507 0.11697 0.0
H191 H 0.91599 0.26725 0.12907 0.0
H192 H 0.82456 0.11391 0.06126 0.0
H193 H 0.79943 0.06636 0.05362 0.0
H194 H 0.742 0.07122 0.92143 0.0
H195 H 0.76725 0.11897 0.92795 0.0
H196 H 0.74874 0.03575 0.10268 0.0
H197 H 0.75501 0.01874 0.81198 0.0
H198 H 0.77664 0.0495 0.8551 0.0
H199 H 0.74389 0.04131 0.8318 0.0
C200 C 0.80676 0.10494 0.02974 0.0
C201 C 0.79789 0.12026 -0.00469 0.0
C202 C 0.79241 0.07773 0.02548 0.0
C203 C 0.76897 0.06524 0.98647 0.0
C204 C 0.76029 0.08045 0.95073 0.0
H205 H 0.64751 0.90299 0.94104 0.0
H206 H 0.67482 0.95049 0.93344 0.0
C207 C 0.77468 0.10774 0.95484 0.0
C208 C 0.75281 0.03634 0.98772 0.0
H209 H 0.72584 0.98194 0.88159 0.0
C210 C 0.74385 0.02396 0.05438 0.0
C211 C 0.74633 0.02105 0.92458 0.0
C212 C 0.75612 0.03324 0.8518 0.0
C213 C 0.72831 0.99673 0.05965 0.0
C214 C 0.72198 0.98139 -0.00337 0.0
C215 C 0.7308 0.99375 0.92983 0.0
C216 C 0.706 0.95249 -0.00087 0.0
C217 C 0.71834 0.98467 0.13253 0.0
C218 C 0.7147 0.93781 0.03751 0.0
C219 C 0.6991 0.91065 0.04225 0.0
C220 C 0.67457 0.89765 0.00821 0.0
C221 C 0.66623 0.91238 0.96821 0.0
C222 C 0.68184 0.93953 0.96364 0.0
H223 H 0.71919 0.99921 0.1718 0.0
H224 H 0.69788 0.96831 0.12908 0.0
H225 H 0.73065 0.97683 0.15348 0.0
H226 H 0.73353 0.94738 0.06411 0.0
H227 H 0.70622 0.8999 0.07296 0.0
H228 H 0.7574 0.65944 0.92135 0.0
H229 H 0.73536 0.68471 0.90301 0.0
H230 H 0.75878 0.71775 0.11486 0.0
H231 H 0.78105 0.69271 0.1336 0.0
H232 H 0.6945 0.6828 0.9841 0.0
H233 H 0.78156 0.78223 0.98656 0.0
H234 H 0.78388 0.75312 0.97521 0.0
H235 H 0.77903 0.76254 0.06302 0.0
C236 C 0.75805 0.67222 0.96394 0.0
C237 C 0.77109 0.67408 0.02893 0.0
C238 C 0.74539 0.68662 0.95336 0.0
C239 C 0.74567 0.70335 0.0072 0.0
C240 C 0.7587 0.70532 0.07206 0.0
H241 H 0.64174 0.76668 0.05402 0.0
H242 H 0.66531 0.74266 0.06633 0.0
C243 C 0.77132 0.69087 0.0828 0.0
C244 C 0.73159 0.71805 -0.00364 0.0
H245 H 0.7401 0.7796 0.98949 0.0
C246 C 0.70447 0.70397 0.98505 0.0
C247 C 0.74467 0.74567 -0.00323 0.0
C248 C 0.77392 0.76185 0.00538 0.0
C249 C 0.69001 0.71674 0.97552 0.0
C250 C 0.70297 0.74434 0.97821 0.0
C251 C 0.73016 0.75844 0.98809 0.0
C252 C 0.68865 0.75893 0.97068 0.0
C253 C 0.66102 0.70059 0.96171 0.0
C254 C 0.69429 0.77648 0.9136 0.0
C255 C 0.6809 0.79033 0.90646 0.0
C256 C 0.66173 0.78705 0.95667 0.0
C257 C 0.65629 0.7696 0.01417 0.0
C258 C 0.66966 0.75574 0.02114 0.0
H259 H 0.65531 0.68057 0.94328 0.0
H260 H 0.65034 0.69886 0.01222 0.0
H261 H 0.65471 0.70998 0.92074 0.0
H262 H 0.70895 0.77933 0.87422 0.0
H263 H 0.68563 0.80363 0.86165 0.0
H264 H 0.10663 0.79003 0.95447 0.0
H265 H 0.05959 0.77325 0.94048 0.0
H266 H 0.04376 0.71656 0.10702 0.0
H267 H 0.09056 0.73309 0.12135 0.0
H268 H 0.02079 0.71974 0.90575 0.0
H269 H 1.00095 0.75193 0.16633 0.0
H270 H 0.03336 0.76607 0.12867 0.0
H271 H 0.01895 0.73489 0.17272 0.0
C272 C 0.09315 0.77416 0.98862 0.0
C273 C 0.10239 0.76293 0.03912 0.0
C274 C 0.06628 0.76457 0.98041 0.0
C275 C 0.0482 0.74384 0.02322 0.0
C276 C 0.05738 0.73282 0.07418 0.0
H277 H 0.8808 0.64825 0.06415 0.0
H278 H 0.92833 0.67023 0.07587 0.0
C279 C 0.08416 0.74224 0.08204 0.0
C280 C 0.01967 0.73287 0.01268 0.0
H281 H 0.96401 0.72185 0.09835 0.0
C282 C 0.00836 0.72039 0.94751 0.0
C283 C 1.00353 0.73365 0.06742 0.0
C284 C 0.01476 0.74754 0.13758 0.0
C285 C 0.98121 0.70794 0.9364 0.0
C286 C 0.96499 0.70852 0.99143 0.0
C287 C 0.97641 0.72137 0.05622 0.0
C288 C 0.93607 0.69536 0.98368 0.0
C289 C 0.97008 0.69347 0.86688 0.0
C290 C 0.92452 0.70235 0.92841 0.0
C291 C 0.8973 0.6897 0.9213 0.0
C292 C 0.88105 0.66998 0.9698 0.0
C293 C 0.89269 0.6633 0.02574 0.0
C294 C 0.91989 0.67589 0.03261 0.0
H295 H 0.98403 0.68905 0.83902 0.0
H296 H 0.95161 0.67486 0.87632 0.0
H297 H 0.96579 0.70574 0.8305 0.0
H298 H 0.93656 0.71772 0.89097 0.0
H299 H 0.88901 0.69547 0.87792 0.0
H300 H 0.19812 0.89255 0.89195 0.0
H301 H 0.22531 0.94013 0.89884 0.0
H302 H 0.2746 0.93222 0.05603 0.0
H303 H 0.24775 0.8847 0.04905 0.0
H304 H 0.23513 0.97178 0.01884 0.0
H305 H 0.32729 0.98272 0.9095 0.0
H306 H 0.29623 0.95307 0.89958 0.0
H307 H 0.31404 0.95999 0.98268 0.0
C308 C 0.21486 0.90091 0.9276 0.0
C309 C 0.22078 0.88477 0.96982 0.0
C310 C 0.23036 0.92811 0.93151 0.0
C311 C 0.25218 0.93973 0.97721 0.0
C312 C 0.25817 0.92369 0.01932 0.0
H313 H 0.33232 0.09637 0.1504 0.0
H314 H 0.30592 0.0494 0.12939 0.0
C315 C 0.24268 0.8965 0.01555 0.0
C316 C 0.26806 0.9686 0.98317 0.0
H317 H 0.33006 0.02023 0.9658 0.0
C318 C 0.25585 0.9824 0.00683 0.0
C319 C 0.29502 0.98247 0.96662 0.0
C320 C 0.30892 0.96887 0.93751 0.0
C321 C 0.27002 0.00961 0.01624 0.0
C322 C 0.2972 0.02333 0.00257 0.0
C323 C 0.30928 0.00964 0.97698 0.0
C324 C 0.31347 0.05187 0.01518 0.0
C325 C 0.25571 0.02344 0.04022 0.0
C326 C 0.32706 0.06884 0.95827 0.0
C327 C 0.3423 0.09576 0.97014 0.0
C328 C 0.3444 0.10619 0.03934 0.0
C329 C 0.33105 0.08906 0.09637 0.0
C330 C 0.31581 0.06218 0.08442 0.0
H331 H 0.23439 0.01153 0.02974 0.0
H332 H 0.25855 0.02712 0.09886 0.0
H333 H 0.26337 0.04254 0.01257 0.0
H334 H 0.32565 0.06127 0.90449 0.0
H335 H 0.35238 0.10837 0.92503 0.0
H336 H 0.23438 0.72432 0.86503 0.0
H337 H 0.22976 0.68244 0.82969 0.0
H338 H 0.1697 0.64334 0.98926 0.0
H339 H 0.17386 0.68511 0.02414 0.0
H340 H 0.23979 0.65225 0.91986 0.0
H341 H 0.13829 0.59518 0.8174 0.0
H342 H 0.15477 0.63018 0.82884 0.0
H343 H 0.14059 0.60892 0.90486 0.0
C344 C 0.21986 0.70676 0.89181 0.0
C345 C 0.20459 0.70806 0.94773 0.0
C346 C 0.21723 0.68284 0.87146 0.0
C347 C 0.19925 0.65973 0.9064 0.0
C348 C 0.18332 0.66083 0.9605 0.0
H349 H 0.17882 0.50472 0.93791 0.0
H350 H 0.17489 0.54393 0.94705 0.0
C351 C 0.18584 0.68477 0.98069 0.0
C352 C 0.19916 0.63505 0.89133 0.0
H353 H 0.16028 0.5713 0.84181 0.0
C354 C 0.22247 0.63464 0.90204 0.0
C355 C 0.17648 0.61203 0.86864 0.0
C356 C 0.15116 0.61157 0.85359 0.0
C357 C 0.22364 0.61175 0.89204 0.0
C358 C 0.20096 0.58871 0.86974 0.0
C359 C 0.17763 0.58905 0.85879 0.0
C360 C 0.20121 0.56403 0.85906 0.0
C361 C 0.24898 0.61222 0.90728 0.0
C362 C 0.21673 0.56212 0.80522 0.0
C363 C 0.21906 0.53979 0.79985 0.0
C364 C 0.20584 0.51894 0.8482 0.0
C365 C 0.18936 0.52047 0.90004 0.0
C366 C 0.18703 0.54282 0.90529 0.0
H367 H 0.26278 0.62973 0.93868 0.0
H368 H 0.24537 0.59449 0.93735 0.0
H369 H 0.2585 0.61253 0.85571 0.0
H370 H 0.22754 0.57817 0.76841 0.0
H371 H 0.23177 0.5392 0.759 0.0
H372 H 0.52045 0.22439 0.17349 0.0
H373 H 0.55488 0.21361 0.15406 0.0
H374 H 0.53549 0.20147 0.9288 0.0
H375 H 0.50108 0.21242 0.94744 0.0
H376 H 0.55467 0.16847 0.09013 0.0
H377 H 0.61328 0.26076 0.93734 0.0
H378 H 0.58589 0.25507 0.99266 0.0
H379 H 0.58044 0.23987 0.90606 0.0
C380 C 0.52328 0.21914 0.1199 0.0
C381 C 0.50824 0.21958 0.06182 0.0
C382 C 0.54291 0.21292 0.109 0.0
C383 C 0.54792 0.20713 0.03989 0.0
C384 C 0.53212 0.20625 0.98239 0.0
H385 H 0.68148 0.19929 0.87703 0.0
H386 H 0.63877 0.19597 0.88921 0.0
C387 C 0.51243 0.21243 -0.00678 0.0
C388 C 0.57077 0.20376 0.02749 0.0
H389 H 0.63103 0.23317 0.94972 0.0
C390 C 0.57135 0.1825 0.05917 0.0
C391 C 0.59246 0.22218 0.98723 0.0
C392 C 0.59324 0.24589 0.95422 0.0
C393 C 0.59311 0.17911 0.0513 0.0
C394 C 0.61499 0.19778 0.01197 0.0
C395 C 0.6142 0.21883 0.97961 0.0
C396 C 0.63936 0.19658 0.00539 0.0
C397 C 0.59237 0.15547 0.08452 0.0
C398 C 0.65377 0.19776 0.06674 0.0
C399 C 0.67817 0.19954 0.05999 0.0
C400 C 0.68873 0.20052 0.99168 0.0
C401 C 0.67394 0.19866 0.93042 0.0
C402 C 0.64952 0.19674 0.93724 0.0
H403 H 0.57199 0.13948 0.09338 0.0
H404 H 0.60257 0.14801 0.05023 0.0
H405 H 0.60232 0.16092 0.13748 0.0
H406 H 0.6466 0.19829 0.11983 0.0
H407 H 0.68913 0.20109 0.10822 0.0
H408 H 0.4909 0.68576 0.06836 0.0
H409 H 0.45014 0.64402 0.0781 0.0
H410 H 0.44627 0.63671 0.84746 0.0
H411 H 0.48701 0.67842 0.83701 0.0
H412 H 0.40213 0.635 0.01209 0.0
H413 H 0.43153 0.56394 0.92108 0.0
H414 H 0.45478 0.59619 0.95336 0.0
H415 H 0.44164 0.59196 0.86418 0.0
C416 C 0.48161 0.67511 0.01969 0.0
C417 C 0.49217 0.68545 0.95184 0.0
C418 C 0.45832 0.65128 0.02542 0.0
C419 C 0.44538 0.63721 0.96356 0.0
C420 C 0.45621 0.64709 0.89588 0.0
H421 H 0.29642 0.50406 0.85765 0.0
H422 H 0.34173 0.53974 0.86099 0.0
C423 C 0.47941 0.67101 0.89003 0.0
C424 C 0.41945 0.61337 0.96941 0.0
H425 H 0.38598 0.54807 0.93275 0.0
C426 C 0.39859 0.61591 -0.00451 0.0
C427 C 0.41498 0.58863 0.94708 0.0
C428 C 0.43692 0.58483 0.92033 0.0
C429 C 0.37313 0.59448 -0.00207 0.0
C430 C 0.36857 0.56966 0.9755 0.0
C431 C 0.38953 0.56707 0.95018 0.0
C432 C 0.34196 0.54646 0.97528 0.0
C433 C 0.35123 0.59888 0.02187 0.0
C434 C 0.32734 0.53782 0.03882 0.0
C435 C 0.30136 0.51761 0.037 0.0
C436 C 0.28967 0.5054 0.97171 0.0
C437 C 0.30483 0.51311 0.90879 0.0
C438 C 0.33073 0.5335 0.91059 0.0
H439 H 0.35688 0.61983 0.01899 0.0
H440 H 0.33348 0.58746 0.98849 0.0
H441 H 0.34622 0.59248 0.07849 0.0
H442 H 0.33584 0.5471 0.08965 0.0
H443 H 0.2903 0.51191 0.08653 0.0
H444 H 0.81811 0.50242 0.0896 0.0
H445 H 0.82009 0.46235 0.10581 0.0
H446 H 0.80435 0.445 0.88034 0.0
H447 H 0.80237 0.48502 0.86346 0.0
H448 H 0.77767 0.41135 0.073 0.0
H449 H 0.86728 0.43397 0.92068 0.0
H450 H 0.86068 0.45901 0.95202 0.0
H451 H 0.84433 0.44018 0.87366 0.0
C452 C 0.81543 0.49029 0.04321 0.0
C453 C 0.81006 0.49693 0.9752 0.0
C454 C 0.81655 0.46739 0.05263 0.0
C455 C 0.81265 0.45087 -0.00584 0.0
C456 C 0.80787 0.45771 0.92594 0.0
H457 H 0.79245 0.29649 0.93711 0.0
H458 H 0.79998 0.34086 0.92187 0.0
C459 C 0.8066 0.48053 0.91651 0.0
C460 C 0.81158 0.42552 0.0055 0.0
H461 H 0.84046 0.39002 0.95856 0.0
C462 C 0.79152 0.40673 0.04853 0.0
C463 C 0.82953 0.41952 0.97289 0.0
C464 C 0.85183 0.43926 0.92764 0.0
C465 C 0.78855 0.38187 0.05866 0.0
C466 C 0.80658 0.37584 0.02637 0.0
C467 C 0.82673 0.39469 0.9835 0.0
C468 C 0.80439 0.34986 0.03541 0.0
C469 C 0.76559 0.36201 0.10195 0.0
C470 C 0.80524 0.34048 0.10407 0.0
C471 C 0.80077 0.31509 0.11302 0.0
C472 C 0.79568 0.29866 0.05333 0.0
C473 C 0.79623 0.30859 0.98424 0.0
C474 C 0.80053 0.33396 0.97541 0.0
H475 H 0.75002 0.36724 0.10629 0.0
H476 H 0.75705 0.34226 0.0777 0.0
H477 H 0.77225 0.36114 0.15712 0.0
H478 H 0.80885 0.35264 0.15099 0.0
H479 H 0.80077 0.30817 0.1669 0.0
H480 H 0.32817 0.80422 0.85003 0.0
H481 H 0.37042 0.80676 0.86812 0.0
H482 H 0.36606 0.81833 0.09502 0.0
H483 H 0.32377 0.81578 0.07768 0.0
H484 H 0.41954 0.84669 0.93824 0.0
H485 H 0.37087 0.75013 0.0753 0.0
H486 H 0.35311 0.76131 0.02068 0.0
H487 H 0.36351 0.77416 0.1095 0.0
C488 C 0.33633 0.80766 0.90371 0.0
C489 C 0.32243 0.80954 0.96251 0.0
C490 C 0.36051 0.80915 0.91387 0.0
C491 C 0.37118 0.81239 0.98299 0.0
C492 C 0.358 0.81553 0.04133 0.0
H493 H 0.49645 0.79036 0.14842 0.0
H494 H 0.46175 0.8011 0.1352 0.0
C495 C 0.33386 0.81415 0.03123 0.0
C496 C 0.39518 0.81077 -0.00545 0.0
H497 H 0.41665 0.77179 0.06704 0.0
C498 C 0.41901 0.83039 0.96655 0.0
C499 C 0.39435 0.78945 0.03143 0.0
C500 C 0.36911 0.76741 0.06062 0.0
C501 C 0.44216 0.82939 0.97523 0.0
C502 C 0.44128 0.80786 0.01138 0.0
C503 C 0.4174 0.78835 0.03962 0.0
C504 C 0.46457 0.80462 0.01943 0.0
C505 C 0.46738 0.85163 0.94673 0.0
C506 C 0.47808 0.8034 0.95888 0.0
C507 C 0.49816 0.79749 0.96637 0.0
C508 C 0.50483 0.79226 0.0345 0.0
C509 C 0.49177 0.79421 0.09516 0.0
C510 C 0.47189 0.80033 0.08768 0.0
H511 H 0.46634 0.86981 0.94142 0.0
H512 H 0.48411 0.8556 0.98213 0.0
H513 H 0.47118 0.84643 0.8926 0.0
H514 H 0.47243 0.80598 0.90549 0.0
H515 H 0.50766 0.79594 0.91848 0.0
H516 H 0.71819 0.51632 0.93564 0.0
H517 H 0.67299 0.48077 0.92227 0.0
H518 H 0.66986 0.46411 0.14864 0.0
H519 H 0.71492 0.49955 0.16263 0.0
H520 H 0.65703 0.42789 0.95733 0.0
H521 H 0.60058 0.46358 0.11056 0.0
H522 H 0.63323 0.48515 0.07783 0.0
H523 H 0.62834 0.46595 0.15723 0.0
C524 C 0.70774 0.50542 0.98285 0.0
C525 C 0.7202 0.51075 0.0502 0.0
C526 C 0.68193 0.48509 0.97506 0.0
C527 C 0.668 0.46996 0.03456 0.0
C528 C 0.68008 0.47581 0.10224 0.0
H529 H 0.52293 0.32645 0.11042 0.0
H530 H 0.56366 0.36833 0.11936 0.0
C531 C 0.70592 0.49601 0.11002 0.0
C532 C 0.64177 0.4466 0.02496 0.0
H533 H 0.57806 0.41862 0.07799 0.0
C534 C 0.63969 0.42595 0.98303 0.0
C535 C 0.61927 0.44405 0.05921 0.0
C536 C 0.6203 0.46592 0.1033 0.0
C537 C 0.61586 0.4025 0.9759 0.0
C538 C 0.5933 0.39988 0.01018 0.0
C539 C 0.59533 0.42066 0.05163 0.0
C540 C 0.5676 0.37546 0.00482 0.0
C541 C 0.61535 0.38042 0.93388 0.0
C542 C 0.55586 0.3659 0.93766 0.0
C543 C 0.53271 0.3419 0.93233 0.0
C544 C 0.52061 0.32711 -0.00581 0.0
C545 C 0.53176 0.3373 0.06171 0.0
C546 C 0.55505 0.36125 0.06693 0.0
H547 H 0.63521 0.38299 0.92793 0.0
H548 H 0.60259 0.36132 0.96017 0.0
H549 H 0.60755 0.37988 0.87926 0.0
H550 H 0.56482 0.37683 0.88916 0.0
H551 H 0.5245 0.33477 0.87956 0.0
H552 H 0.1922 0.3682 0.70427 0.0
H553 H 0.18958 0.36327 0.57348 0.0
H554 H 0.20015 0.44054 0.55094 0.0
H555 H 0.2028 0.44579 0.6813 0.0
H556 H 0.15459 0.37142 0.46744 0.0
H557 H 0.26165 0.43793 0.43784 0.0
H558 H 0.24688 0.42166 0.52128 0.0
H559 H 0.24487 0.44969 0.49352 0.0
C560 C 0.1938 0.38411 0.67157 0.0
C561 C 0.19797 0.40751 0.70321 0.0
C562 C 0.1922 0.38118 0.597 0.0
C563 C 0.1949 0.40163 0.55313 0.0
C564 C 0.19821 0.42464 0.58435 0.0
H565 H 0.17423 0.42483 0.11296 0.0
H566 H 0.16874 0.41501 0.2412 0.0
C567 C 0.19969 0.42757 0.6588 0.0
C568 C 0.19562 0.39961 0.47445 0.0
H569 H 0.23634 0.42587 0.33123 0.0
C570 C 0.17245 0.38309 0.43741 0.0
C571 C 0.21907 0.41459 0.43608 0.0
C572 C 0.24463 0.43185 0.474 0.0
C573 C 0.17196 0.382 0.36209 0.0
C574 C 0.1952 0.398 0.32357 0.0
C575 C 0.21854 0.41368 0.36099 0.0
C576 C 0.19566 0.40023 0.24455 0.0
C577 C 0.14663 0.36392 0.32438 0.0
C578 C 0.2126 0.39515 0.20403 0.0
C579 C 0.21597 0.40096 0.13082 0.0
C580 C 0.20258 0.41215 0.09714 0.0
C581 C 0.18485 0.41627 0.13736 0.0
C582 C 0.18151 0.41045 0.21054 0.0
H583 H 0.13303 0.34778 0.36013 0.0
H584 H 0.13695 0.3751 0.30815 0.0
H585 H 0.1501 0.35544 0.2753 0.0
H586 H 0.22381 0.38742 0.22956 0.0
H587 H 0.2297 0.39748 0.10124 0.0
H588 H 0.75134 0.17981 0.81118 0.0
H589 H 0.75486 0.1745 0.68239 0.0
H590 H 0.83883 0.21453 0.70044 0.0
H591 H 0.83557 0.2201 0.82939 0.0
H592 H 0.82002 0.23622 0.60004 0.0
H593 H 0.7749 0.12935 0.55984 0.0
H594 H 0.75544 0.13856 0.61286 0.0
H595 H 0.7866 0.14476 0.64625 0.0
C596 C 0.77055 0.18705 0.78807 0.0
C597 C 0.7932 0.20062 0.83031 0.0
C598 C 0.7725 0.18383 0.71454 0.0
C599 C 0.79709 0.19395 0.68218 0.0
C600 C 0.81968 0.2065 0.72466 0.0
H601 H 0.82459 0.1871 0.22385 0.0
H602 H 0.82566 0.18394 0.35475 0.0
C603 C 0.81777 0.2097 0.79823 0.0
C604 C 0.79923 0.19417 0.60316 0.0
H605 H 0.77966 0.15495 0.45497 0.0
C606 C 0.81149 0.21846 0.56833 0.0
C607 C 0.78817 0.17095 0.56214 0.0
C608 C 0.77574 0.14441 0.59712 0.0
C609 C 0.81216 0.22016 0.4933 0.0
C610 C 0.80007 0.19698 0.45235 0.0
C611 C 0.78866 0.17266 0.48692 0.0
C612 C 0.79856 0.19779 0.37348 0.0
C613 C 0.82553 0.24672 0.4582 0.0
C614 C 0.78267 0.2063 0.34124 0.0
C615 C 0.78191 0.20807 0.26665 0.0
C616 C 0.79713 0.20142 0.2231 0.0
C617 C 0.81275 0.19251 0.25582 0.0
C618 C 0.81334 0.1906 0.33048 0.0
H619 H 0.8384 0.26235 0.49638 0.0
H620 H 0.83738 0.24701 0.41164 0.0
H621 H 0.81052 0.25122 0.43805 0.0
H622 H 0.77099 0.21174 0.37391 0.0
H623 H 0.76965 0.21496 0.24327 0.0
H624 H 0.58278 0.74793 0.79198 0.0
H625 H 0.5918 0.74869 0.66381 0.0
H626 H 0.61227 0.82964 0.65317 0.0
H627 H 0.60374 0.82926 0.78132 0.0
H628 H 0.56332 0.75931 0.56565 0.0
H629 H 0.66936 0.82816 0.53229 0.0
H630 H 0.65503 0.81319 0.61742 0.0
H631 H 0.65316 0.84099 0.58604 0.0
C632 C 0.58954 0.76599 0.76255 0.0
C633 C 0.59225 0.78846 0.79628 0.0
C634 C 0.59486 0.76642 0.68965 0.0
C635 C 0.60304 0.78931 0.64978 0.0
C636 C 0.60657 0.81198 0.68369 0.0
H637 H 0.60012 0.8313 0.21399 0.0
H638 H 0.60721 0.83043 0.34341 0.0
C639 C 0.60134 0.81161 0.75661 0.0
C640 C 0.60409 0.78851 0.57122 0.0
H641 H 0.64272 0.81865 0.42639 0.0
C642 C 0.58077 0.77192 0.53506 0.0
C643 C 0.62689 0.80525 0.53215 0.0
C644 C 0.6526 0.82274 0.56895 0.0
C645 C 0.57932 0.7723 0.46035 0.0
C646 C 0.60195 0.78942 0.42125 0.0
C647 C 0.62548 0.80562 0.45713 0.0
C648 C 0.60103 0.79114 0.34296 0.0
C649 C 0.55335 0.75515 0.42404 0.0
C650 C 0.59584 0.76953 0.30073 0.0
C651 C 0.59144 0.7698 0.22752 0.0
C652 C 0.59247 0.79184 0.19551 0.0
C653 C 0.59898 0.81399 0.23749 0.0
C654 C 0.60319 0.81361 0.31104 0.0
H655 H 0.53685 0.74732 0.4627 0.0
H656 H 0.54968 0.76612 0.3815 0.0
H657 H 0.55361 0.73836 0.39836 0.0
H658 H 0.59444 0.75218 0.32485 0.0
H659 H 0.58693 0.75261 0.19624 0.0
H660 H 0.84094 0.58949 0.80497 0.0
H661 H 0.84895 0.59857 0.67667 0.0
H662 H 0.78943 0.62046 0.66818 0.0
H663 H 0.78153 0.61186 0.79638 0.0
H664 H 0.80947 0.57077 0.57886 0.0
H665 H 0.84817 0.67713 0.54682 0.0
H666 H 0.84872 0.66249 0.63162 0.0
H667 H 0.81922 0.66122 0.60092 0.0
C668 C 0.8298 0.59657 0.77599 0.0
C669 C 0.81037 0.59964 0.81035 0.0
C670 C 0.83454 0.60192 0.703 0.0
C671 C 0.82002 0.61052 0.66367 0.0
C672 C 0.80123 0.61443 0.69824 0.0
H673 H 0.77575 0.60922 0.22672 0.0
H674 H 0.78342 0.61604 0.35632 0.0
C675 C 0.79651 0.60916 0.77121 0.0
C676 C 0.8217 0.61168 0.58503 0.0
H677 H 0.83076 0.65083 0.44071 0.0
C678 C 0.81455 0.58835 0.54852 0.0
C679 C 0.82807 0.63465 0.54626 0.0
C680 C 0.83672 0.66036 0.58339 0.0
C681 C 0.81269 0.5871 0.47379 0.0
C682 C 0.81859 0.60993 0.43499 0.0
C683 C 0.82625 0.63343 0.47121 0.0
C684 C 0.81618 0.60927 0.3566 0.0
C685 C 0.8035 0.56115 0.43712 0.0
C686 C 0.83253 0.60388 0.3147 0.0
C687 C 0.82802 0.59964 0.24139 0.0
C688 C 0.80724 0.60103 0.20893 0.0
C689 C 0.79172 0.6078 0.25056 0.0
C690 C 0.79616 0.61185 0.32423 0.0
H691 H 0.79452 0.54457 0.47555 0.0
H692 H 0.78902 0.55787 0.39443 0.0
H693 H 0.82042 0.56111 0.41159 0.0
H694 H 0.84826 0.60217 0.33914 0.0
H695 H 0.84062 0.59494 0.21043 0.0
H696 H 0.22889 0.75803 0.20945 0.0
H697 H 0.22782 0.75139 0.33957 0.0
H698 H 0.18998 0.79716 0.36692 0.0
H699 H 0.18972 0.80258 0.23728 0.0
H700 H 0.2503 0.78362 0.44252 0.0
H701 H 0.14463 0.73774 0.49173 0.0
H702 H 0.15776 0.74211 0.40223 0.0
H703 H 0.15559 0.76815 0.44629 0.0
C704 C 0.22001 0.76632 0.24333 0.0
C705 C 0.20919 0.78064 0.21323 0.0
C706 C 0.21942 0.76254 0.31763 0.0
C707 C 0.2083 0.77328 0.3632 0.0
C708 C 0.19777 0.78782 0.33301 0.0
H709 H 0.24929 0.82637 0.79467 0.0
H710 H 0.2488 0.81734 0.66658 0.0
C711 C 0.19783 0.7911 0.25878 0.0
C712 C 0.20912 0.77081 0.44247 0.0
H713 H 0.17263 0.76006 0.59349 0.0
C714 C 0.23319 0.77799 0.47551 0.0
C715 C 0.18674 0.76275 0.48587 0.0
C716 C 0.15971 0.75196 0.45448 0.0
C717 C 0.23576 0.77878 0.55058 0.0
C718 C 0.21394 0.77336 0.59381 0.0
C719 C 0.18957 0.76474 0.56074 0.0
C720 C 0.216 0.77782 0.67274 0.0
C721 C 0.26186 0.78533 0.58233 0.0
C722 C 0.19745 0.75891 0.71915 0.0
C723 C 0.19714 0.76446 0.79191 0.0
C724 C 0.21568 0.78884 0.81987 0.0
C725 C 0.23496 0.80732 0.77442 0.0
C726 C 0.23483 0.80205 0.70125 0.0
H727 H 0.27235 0.77854 0.54676 0.0
H728 H 0.2742 0.80684 0.58738 0.0
H729 H 0.25971 0.77637 0.63613 0.0
H730 H 0.18273 0.74007 0.69869 0.0
H731 H 0.18218 0.74981 0.82616 0.0
H732 H 0.40902 0.2529 0.84157 0.0
H733 H 0.39775 0.25006 0.71392 0.0
H734 H 0.4153 0.18787 0.68757 0.0
H735 H 0.42488 0.18957 0.81537 0.0
H736 H 0.42688 0.26056 0.60642 0.0
H737 H 0.35104 0.1578 0.57275 0.0
H738 H 0.36159 0.17227 0.66044 0.0
H739 H 0.3789 0.15875 0.61377 0.0
C740 C 0.40997 0.23833 0.80851 0.0
C741 C 0.41774 0.22141 0.83805 0.0
C742 C 0.40351 0.23668 0.73571 0.0
C743 C 0.40516 0.2184 0.69107 0.0
C744 C 0.41285 0.20145 0.72102 0.0
H745 H 0.45523 0.24122 0.25756 0.0
H746 H 0.44904 0.2415 0.3869 0.0
C747 C 0.41863 0.20263 0.79403 0.0
C748 C 0.40163 0.21878 0.61219 0.0
H749 H 0.37737 0.17888 0.46615 0.0
C750 C 0.41557 0.24272 0.57596 0.0
C751 C 0.38632 0.19572 0.57194 0.0
C752 C 0.3684 0.16979 0.60706 0.0
C753 C 0.416 0.24399 0.50081 0.0
C754 C 0.40321 0.22055 0.46067 0.0
C755 C 0.38781 0.19682 0.49674 0.0
C756 C 0.40673 0.22007 0.38193 0.0
C757 C 0.43027 0.27052 0.46559 0.0
C758 C 0.38508 0.20668 0.33619 0.0
C759 C 0.38864 0.20571 0.26229 0.0
C760 C 0.4139 0.21845 0.23293 0.0
C761 C 0.43553 0.2316 0.27873 0.0
C762 C 0.43198 0.232 0.3526 0.0
H763 H 0.42963 0.28557 0.49982 0.0
H764 H 0.45112 0.27631 0.4586 0.0
H765 H 0.42182 0.27053 0.41229 0.0
H766 H 0.36542 0.1971 0.35758 0.0
H767 H 0.37164 0.19546 0.228 0.0
loop_
_geom_bond_atom_site_label_1
_geom_bond_atom_site_label_2
_geom_bond_distance
_geom_bond_site_symmetry_2
_ccdc_geom_bond_type
Zn0 O6 1.969 . S
Zn0 O7 1.965 1_554 S
Zn0 O11 2.024 1_554 S
Zn0 O16 1.969 . S
Zn1 O8 1.969 . S
Zn1 O14 1.969 . S
Zn1 O15 1.965 1_556 S
Zn1 O17 2.024 1_556 S
C2 O3 1.229 . S
C2 O11 1.058 1_554 S
O3 C2 1.229 . S
C4 O5 1.229 . S
C4 O17 1.058 1_556 S
O5 C4 1.229 . S
O6 Zn0 1.969 . S
O6 C9 1.267 1_554 S
O7 Zn0 1.965 1_556 S
O7 C18 1.260 . S
O8 Zn1 1.969 . S
O8 C18 1.258 . S
C9 O6 1.267 1_556 S
C9 O10 1.228 . S
O10 C9 1.228 . S
O11 Zn0 2.024 1_556 S
O11 C2 1.058 1_556 S
C12 O13 1.228 . S
C12 O14 1.267 1_554 S
O13 C12 1.228 . S
O14 Zn1 1.969 . S
O14 C12 1.267 1_556 S
O15 Zn1 1.965 1_554 S
O15 C19 1.260 . S
O16 Zn0 1.969 . S
O16 C19 1.258 . S
O17 Zn1 2.024 1_554 S
O17 C4 1.058 1_554 S
C18 O7 1.260 . S
C18 O8 1.258 . S
C19 O15 1.260 . S
C19 O16 1.258 . S
Zn20 O26 1.969 . S
Zn20 O27 1.965 1_554 S
Zn20 O31 2.024 1_554 S
Zn20 O36 1.969 . S
Zn21 O28 1.969 . S
Zn21 O34 1.969 . S
Zn21 O35 1.965 1_556 S
Zn21 O37 2.024 1_556 S
C22 O23 1.229 . S
C22 O31 1.058 1_554 S
O23 C22 1.229 . S
C24 O25 1.229 . S
C24 O37 1.058 1_556 S
O25 C24 1.229 . S
O26 Zn20 1.969 . S
O26 C29 1.267 1_554 S
O27 Zn20 1.965 1_556 S
O27 C38 1.260 . S
O28 Zn21 1.969 . S
O28 C38 1.258 . S
C29 O26 1.267 1_556 S
C29 O30 1.228 . S
O30 C29 1.228 . S
O31 Zn20 2.024 1_556 S
O31 C22 1.058 1_556 S
C32 O33 1.228 . S
C32 O34 1.267 1_554 S
O33 C32 1.228 . S
O34 Zn21 1.969 . S
O34 C32 1.267 1_556 S
O35 Zn21 1.965 1_554 S
O35 C39 1.260 . S
O36 Zn20 1.969 . S
O36 C39 1.258 . S
O37 Zn21 2.024 1_554 S
O37 C24 1.058 1_554 S
C38 O27 1.260 . S
C38 O28 1.258 . S
C39 O35 1.260 . S
C39 O36 1.258 . S
Zn40 O46 1.969 . S
Zn40 O47 1.965 1_554 S
Zn40 O51 2.024 1_554 S
Zn40 O56 1.969 . S
Zn41 O48 1.969 . S
Zn41 O54 1.969 . S
Zn41 O55 1.965 1_556 S
Zn41 O57 2.024 1_556 S
C42 O43 1.229 . S
C42 O51 1.058 1_554 S
O43 C42 1.229 . S
C44 O45 1.229 . S
C44 O57 1.058 1_556 S
O45 C44 1.229 . S
O46 Zn40 1.969 . S
O46 C49 1.267 1_554 S
O47 Zn40 1.965 1_556 S
O47 C58 1.260 . S
O48 Zn41 1.969 . S
O48 C58 1.258 . S
C49 O46 1.267 1_556 S
C49 O50 1.228 . S
O50 C49 1.228 . S
O51 Zn40 2.024 1_556 S
O51 C42 1.058 1_556 S
C52 O53 1.228 . S
C52 O54 1.267 1_554 S
O53 C52 1.228 . S
O54 Zn41 1.969 . S
O54 C52 1.267 1_556 S
O55 Zn41 1.965 1_554 S
O55 C59 1.260 . S
O56 Zn40 1.969 . S
O56 C59 1.258 . S
O57 Zn41 2.024 1_554 S
O57 C44 1.058 1_554 S
C58 O47 1.260 . S
C58 O48 1.258 . S
C59 O55 1.260 . S
C59 O56 1.258 . S
Zn60 O66 1.969 . S
Zn60 O67 1.965 1_554 S
Zn60 O71 2.024 1_554 S
Zn60 O76 1.969 . S
Zn61 O68 1.969 . S
Zn61 O74 1.969 . S
Zn61 O75 1.965 1_556 S
Zn61 O77 2.024 1_556 S
C62 O63 1.229 . S
C62 O71 1.058 1_554 S
O63 C62 1.229 . S
C64 O65 1.229 . S
C64 O77 1.058 1_556 S
O65 C64 1.229 . S
O66 Zn60 1.969 . S
O66 C69 1.267 1_554 S
O67 Zn60 1.965 1_556 S
O67 C78 1.260 . S
O68 Zn61 1.969 . S
O68 C78 1.258 . S
C69 O66 1.267 1_556 S
C69 O70 1.228 . S
O70 C69 1.228 . S
O71 Zn60 2.024 1_556 S
O71 C62 1.058 1_556 S
C72 O73 1.228 . S
C72 O74 1.267 1_554 S
O73 C72 1.228 . S
O74 Zn61 1.969 . S
O74 C72 1.267 1_556 S
O75 Zn61 1.965 1_554 S
O75 C79 1.260 . S
O76 Zn60 1.969 . S
O76 C79 1.258 . S
O77 Zn61 2.024 1_554 S
O77 C64 1.058 1_554 S
C78 O67 1.260 . S
C78 O68 1.258 . S
C79 O75 1.260 . S
C79 O76 1.258 . S
Zn80 O86 1.969 . S
Zn80 O87 1.965 1_554 S
Zn80 O91 2.024 1_554 S
Zn80 O96 1.969 . S
Zn81 O88 1.969 . S
Zn81 O94 1.969 . S
Zn81 O95 1.965 1_556 S
Zn81 O97 2.024 1_556 S
C82 O83 1.229 . S
C82 O91 1.058 1_554 S
O83 C82 1.229 . S
C84 O85 1.229 . S
C84 O97 1.058 1_556 S
O85 C84 1.229 . S
O86 Zn80 1.969 . S
O86 C89 1.267 1_554 S
O87 Zn80 1.965 1_556 S
O87 C98 1.260 . S
O88 Zn81 1.969 . S
O88 C98 1.258 . S
C89 O86 1.267 1_556 S
C89 O90 1.228 . S
O90 C89 1.228 . S
O91 Zn80 2.024 1_556 S
O91 C82 1.058 1_556 S
C92 O93 1.228 . S
C92 O94 1.267 1_554 S
O93 C92 1.228 . S
O94 Zn81 1.969 . S
O94 C92 1.267 1_556 S
O95 Zn81 1.965 1_554 S
O95 C99 1.260 . S
O96 Zn80 1.969 . S
O96 C99 1.258 . S
O97 Zn81 2.024 1_554 S
O97 C84 1.058 1_554 S
C98 O87 1.260 . S
C98 O88 1.258 . S
C99 O95 1.260 . S
C99 O96 1.258 . S
Zn100 O106 1.969 . S
Zn100 O107 1.965 1_554 S
Zn100 O111 2.024 1_554 S
Zn100 O116 1.969 . S
Zn101 O108 1.969 . S
Zn101 O114 1.969 . S
Zn101 O115 1.965 1_556 S
Zn101 O117 2.024 1_556 S
C102 O103 1.229 . S
C102 O111 1.058 1_554 S
O103 C102 1.229 . S
C104 O105 1.229 . S
C104 O117 1.058 1_556 S
O105 C104 1.229 . S
O106 Zn100 1.969 . S
O106 C109 1.267 1_554 S
O107 Zn100 1.965 1_556 S
O107 C118 1.260 . S
O108 Zn101 1.969 . S
O108 C118 1.258 . S
C109 O106 1.267 1_556 S
C109 O110 1.228 . S
O110 C109 1.228 . S
O111 Zn100 2.024 1_556 S
O111 C102 1.058 1_556 S
C112 O113 1.228 . S
C112 O114 1.267 1_554 S
O113 C112 1.228 . S
O114 Zn101 1.969 . S
O114 C112 1.267 1_556 S
O115 Zn101 1.965 1_554 S
O115 C119 1.260 . S
O116 Zn100 1.969 . S
O116 C119 1.258 . S
O117 Zn101 2.024 1_554 S
O117 C104 1.058 1_554 S
C118 O107 1.260 . S
C118 O108 1.258 . S
C119 O115 1.260 . S
C119 O116 1.258 . S
H120 C128 0.929 . S
H121 C130 0.930 . S
H122 C132 0.930 . S
H123 C135 0.929 . S
H124 C138 0.930 . S
H125 C140 0.960 . S
H126 C140 0.960 . S
H127 C140 0.960 . S
C128 H120 0.929 . S
C128 C129 1.377 . S
C128 C130 1.384 . S
C129 C128 1.377 . S
C129 C135 1.390 1_556 S
C130 H121 0.930 . S
C130 C128 1.384 . S
C130 C131 1.372 1_556 S
C131 C130 1.372 1_554 S
C131 C132 1.400 . S
C131 C136 1.490 . S
C132 H122 0.930 . S
C132 C131 1.400 . S
C132 C135 1.386 . S
H133 C149 0.930 . S
H134 C150 0.931 . S
C135 H123 0.929 . S
C135 C129 1.390 1_554 S
C135 C132 1.386 . S
C136 C131 1.490 . S
C136 C138 1.395 1_554 S
C136 C139 1.403 . S
H137 C143 0.930 . S
C138 H124 0.930 . S
C138 C136 1.395 1_556 S
C138 C141 1.403 . S
C139 C136 1.403 . S
C139 C140 1.524 . S
C139 C143 1.400 . S
C140 H125 0.960 . S
C140 H126 0.960 . S
C140 H127 0.960 . S
C140 C139 1.524 . S
C141 C138 1.403 . S
C141 C142 1.394 . S
C141 C145 1.495 . S
C142 C141 1.394 . S
C142 C143 1.383 1_556 S
C142 C144 1.477 1_556 S
C143 H137 0.930 . S
C143 C139 1.400 . S
C143 C142 1.383 1_554 S
C144 C142 1.477 1_554 S
C144 C146 1.381 1_554 S
C144 C150 1.383 . S
C145 C141 1.495 . S
C145 H151 0.959 . S
C145 H152 0.961 . S
C145 H153 0.960 . S
C146 C144 1.381 1_556 S
C146 C147 1.394 . S
C146 H154 0.930 . S
C147 C146 1.394 . S
C147 C148 1.383 1_556 S
C147 H155 0.929 . S
C148 C147 1.383 1_554 S
C148 C149 1.377 . S
C149 H133 0.930 . S
C149 C148 1.377 . S
C149 C150 1.379 . S
C150 H134 0.931 . S
C150 C144 1.383 . S
C150 C149 1.379 . S
H151 C145 0.959 . S
H152 C145 0.961 . S
H153 C145 0.960 . S
H154 C146 0.930 . S
H155 C147 0.929 . S
H156 C164 0.929 . S
H157 C166 0.930 . S
H158 C168 0.930 . S
H159 C171 0.929 . S
H160 C174 0.930 . S
H161 C176 0.960 . S
H162 C176 0.960 . S
H163 C176 0.960 . S
C164 H156 0.929 . S
C164 C165 1.363 1_554 S
C164 C166 1.384 . S
C165 C164 1.363 1_556 S
C165 C171 1.403 . S
C166 H157 0.930 . S
C166 C164 1.384 . S
C166 C167 1.372 . S
C167 C166 1.372 . S
C167 C168 1.400 1_554 S
C167 C172 1.490 . S
C168 H158 0.930 . S
C168 C167 1.400 1_556 S
C168 C171 1.386 . S
H169 C185 0.930 . S
H170 C186 0.931 . S
C171 H159 0.929 . S
C171 C165 1.403 . S
C171 C168 1.386 . S
C172 C167 1.490 . S
C172 C174 1.395 . S
C172 C175 1.403 1_554 S
H173 C179 0.930 . S
C174 H160 0.930 . S
C174 C172 1.395 . S
C174 C177 1.403 1_455 S
C175 C172 1.403 1_556 S
C175 C176 1.524 . S
C175 C179 1.400 1_455 S
C176 H161 0.960 . S
C176 H162 0.960 . S
C176 H163 0.960 . S
C176 C175 1.524 . S
C177 C174 1.403 1_655 S
C177 C178 1.392 . S
C177 C181 1.495 . S
C178 C177 1.392 . S
C178 C179 1.385 1_554 S
C178 C180 1.478 . S
C179 H173 0.930 . S
C179 C175 1.400 1_655 S
C179 C178 1.385 1_556 S
C180 C178 1.478 . S
C180 C182 1.381 . S
C180 C186 1.383 1_554 S
C181 C177 1.495 . S
C181 H187 0.959 . S
C181 H188 0.961 . S
C181 H189 0.960 . S
C182 C180 1.381 . S
C182 C183 1.394 . S
C182 H190 0.930 . S
C183 C182 1.394 . S
C183 C184 1.383 . S
C183 H191 0.929 . S
C184 C183 1.383 . S
C184 C185 1.377 1_554 S
C185 H169 0.930 . S
C185 C184 1.377 1_556 S
C185 C186 1.379 . S
C186 H170 0.931 . S
C186 C180 1.383 1_556 S
C186 C185 1.379 . S
H187 C181 0.959 . S
H188 C181 0.961 . S
H189 C181 0.960 . S
H190 C182 0.930 . S
H191 C183 0.929 . S
H192 C200 0.929 . S
H193 C202 0.930 . S
H194 C204 0.930 . S
H195 C207 0.929 . S
H196 C210 0.930 . S
H197 C212 0.960 . S
H198 C212 0.960 . S
H199 C212 0.960 . S
C200 H192 0.929 . S
C200 C201 1.377 . S
C200 C202 1.384 . S
C201 C200 1.377 . S
C201 C207 1.390 1_556 S
C202 H193 0.930 . S
C202 C200 1.384 . S
C202 C203 1.372 1_556 S
C203 C202 1.372 1_554 S
C203 C204 1.400 . S
C203 C208 1.490 . S
C204 H194 0.930 . S
C204 C203 1.400 . S
C204 C207 1.386 . S
H205 C221 0.930 . S
H206 C222 0.931 . S
C207 H195 0.929 . S
C207 C201 1.390 1_554 S
C207 C204 1.386 . S
C208 C203 1.490 . S
C208 C210 1.395 . S
C208 C211 1.403 1_554 S
H209 C215 0.930 . S
C210 H196 0.930 . S
C210 C208 1.395 . S
C210 C213 1.403 1_545 S
C211 C208 1.403 1_556 S
C211 C212 1.524 . S
C211 C215 1.400 1_545 S
C212 H197 0.960 . S
C212 H198 0.960 . S
C212 H199 0.960 . S
C212 C211 1.524 . S
C213 C210 1.403 1_565 S
C213 C214 1.392 . S
C213 C217 1.495 . S
C214 C213 1.392 . S
C214 C215 1.385 1_554 S
C214 C216 1.478 . S
C215 H209 0.930 . S
C215 C211 1.400 1_565 S
C215 C214 1.385 1_556 S
C216 C214 1.478 . S
C216 C218 1.381 . S
C216 C222 1.383 . S
C217 C213 1.495 . S
C217 H223 0.959 . S
C217 H224 0.961 . S
C217 H225 0.960 . S
C218 C216 1.381 . S
C218 C219 1.394 . S
C218 H226 0.930 1_554 S
C219 C218 1.394 . S
C219 C220 1.383 . S
C219 H227 0.929 1_554 S
C220 C219 1.383 . S
C220 C221 1.377 . S
C221 H205 0.930 . S
C221 C220 1.377 . S
C221 C222 1.379 . S
C222 H206 0.931 . S
C222 C216 1.383 . S
C222 C221 1.379 . S
H223 C217 0.959 . S
H224 C217 0.961 . S
H225 C217 0.960 . S
H226 C218 0.930 1_556 S
H227 C219 0.929 1_556 S
H228 C236 0.929 . S
H229 C238 0.930 . S
H230 C240 0.930 . S
H231 C243 0.929 . S
H232 C246 0.929 1_556 S
H233 C248 0.960 . S
H234 C248 0.960 1_556 S
H235 C248 0.960 . S
C236 H228 0.929 . S
C236 C237 1.377 1_556 S
C236 C238 1.384 . S
C237 C236 1.377 1_554 S
C237 C243 1.390 . S
C238 H229 0.930 . S
C238 C236 1.384 . S
C238 C239 1.372 1_556 S
C239 C238 1.372 1_554 S
C239 C240 1.400 . S
C239 C244 1.490 . S
C240 H230 0.930 . S
C240 C239 1.400 . S
C240 C243 1.386 . S
H241 C257 0.930 . S
H242 C258 0.931 . S
C243 H231 0.929 . S
C243 C237 1.390 . S
C243 C240 1.386 . S
C244 C239 1.490 . S
C244 C246 1.395 . S
C244 C247 1.403 . S
H245 C251 0.930 . S
C246 H232 0.929 1_554 S
C246 C244 1.395 . S
C246 C249 1.403 1_554 S
C247 C244 1.403 . S
C247 C248 1.524 . S
C247 C251 1.400 . S
C248 H233 0.960 . S
C248 H234 0.960 1_554 S
C248 H235 0.960 . S
C248 C247 1.524 . S
C249 C246 1.403 1_556 S
C249 C250 1.392 1_556 S
C249 C253 1.495 . S
C250 C249 1.392 1_554 S
C250 C251 1.385 . S
C250 C252 1.478 . S
C251 H245 0.930 . S
C251 C247 1.400 . S
C251 C250 1.385 . S
C252 C250 1.478 . S
C252 C254 1.381 1_554 S
C252 C258 1.383 . S
C253 C249 1.495 . S
C253 H259 0.959 . S
C253 H260 0.961 1_556 S
C253 H261 0.960 . S
C254 C252 1.381 1_556 S
C254 C255 1.394 . S
C254 H262 0.930 . S
C255 C254 1.394 . S
C255 C256 1.383 . S
C255 H263 0.929 . S
C256 C255 1.383 . S
C256 C257 1.377 1_556 S
C257 H241 0.930 . S
C257 C256 1.377 1_554 S
C257 C258 1.379 . S
C258 H242 0.931 . S
C258 C252 1.383 . S
C258 C257 1.379 . S
H259 C253 0.959 . S
H260 C253 0.961 1_554 S
H261 C253 0.960 . S
H262 C254 0.930 . S
H263 C255 0.929 . S
H264 C272 0.929 . S
H265 C274 0.930 . S
H266 C276 0.930 . S
H267 C279 0.929 . S
H268 C282 0.930 . S
H269 C284 0.960 . S
H270 C284 0.960 . S
H271 C284 0.960 . S
C272 H264 0.929 . S
C272 C273 1.377 1_556 S
C272 C274 1.384 . S
C273 C272 1.377 1_554 S
C273 C279 1.390 . S
C274 H265 0.930 . S
C274 C272 1.384 . S
C274 C275 1.372 1_556 S
C275 C274 1.372 1_554 S
C275 C276 1.400 . S
C275 C280 1.490 . S
C276 H266 0.930 . S
C276 C275 1.400 . S
C276 C279 1.386 . S
H277 C293 0.930 . S
H278 C294 0.931 . S
C279 H267 0.929 . S
C279 C273 1.390 . S
C279 C276 1.386 . S
C280 C275 1.490 . S
C280 C282 1.395 1_554 S
C280 C283 1.403 . S
H281 C287 0.930 . S
C282 H268 0.930 . S
C282 C280 1.395 1_556 S
C282 C285 1.403 1_455 S
C283 C280 1.403 . S
C283 C284 1.524 . S
C283 C287 1.400 1_455 S
C284 H269 0.960 . S
C284 H270 0.960 . S
C284 H271 0.960 . S
C284 C283 1.524 . S
C285 C282 1.403 1_655 S
C285 C286 1.392 . S
C285 C289 1.495 . S
C286 C285 1.392 . S
C286 C287 1.385 1_556 S
C286 C288 1.478 . S
C287 H281 0.930 . S
C287 C283 1.400 1_655 S
C287 C286 1.385 1_554 S
C288 C286 1.478 . S
C288 C290 1.381 . S
C288 C294 1.383 1_556 S
C289 C285 1.495 . S
C289 H295 0.959 . S
C289 H296 0.961 . S
C289 H297 0.960 . S
C290 C288 1.381 . S
C290 C291 1.394 . S
C290 H298 0.930 . S
C291 C290 1.394 . S
C291 C292 1.383 . S
C291 H299 0.929 . S
C292 C291 1.383 . S
C292 C293 1.377 1_556 S
C293 H277 0.930 . S
C293 C292 1.377 1_554 S
C293 C294 1.379 . S
C294 H278 0.931 . S
C294 C288 1.383 1_554 S
C294 C293 1.379 . S
H295 C289 0.959 . S
H296 C289 0.961 . S
H297 C289 0.960 . S
H298 C290 0.930 . S
H299 C291 0.929 . S
H300 C308 0.929 . S
H301 C310 0.930 . S
H302 C312 0.930 . S
H303 C315 0.929 . S
H304 C318 0.930 . S
H305 C320 0.960 . S
H306 C320 0.960 . S
H307 C320 0.960 . S
C308 H300 0.929 . S
C308 C309 1.377 . S
C308 C310 1.384 . S
C309 C308 1.377 . S
C309 C315 1.390 1_556 S
C310 H301 0.930 . S
C310 C308 1.384 . S
C310 C311 1.372 1_556 S
C311 C310 1.372 1_554 S
C311 C312 1.400 . S
C311 C316 1.490 . S
C312 H302 0.930 . S
C312 C311 1.400 . S
C312 C315 1.386 . S
H313 C329 0.930 . S
H314 C330 0.931 . S
C315 H303 0.929 . S
C315 C309 1.390 1_554 S
C315 C312 1.386 . S
C316 C311 1.490 . S
C316 C318 1.395 . S
C316 C319 1.403 1_554 S
H317 C323 0.930 . S
C318 H304 0.930 . S
C318 C316 1.395 . S
C318 C321 1.403 1_565 S
C319 C316 1.403 1_556 S
C319 C320 1.524 . S
C319 C323 1.400 1_565 S
C320 H305 0.960 . S
C320 H306 0.960 . S
C320 H307 0.960 . S
C320 C319 1.524 . S
C321 C318 1.403 1_545 S
C321 C322 1.392 . S
C321 C325 1.495 . S
C322 C321 1.392 . S
C322 C323 1.385 1_554 S
C322 C324 1.478 . S
C323 H317 0.930 . S
C323 C319 1.400 1_545 S
C323 C322 1.385 1_556 S
C324 C322 1.478 . S
C324 C326 1.381 1_554 S
C324 C330 1.383 . S
C325 C321 1.495 . S
C325 H331 0.959 . S
C325 H332 0.961 . S
C325 H333 0.960 . S
C326 C324 1.381 1_556 S
C326 C327 1.394 . S
C326 H334 0.930 . S
C327 C326 1.394 . S
C327 C328 1.383 1_556 S
C327 H335 0.929 . S
C328 C327 1.383 1_554 S
C328 C329 1.377 . S
C329 H313 0.930 . S
C329 C328 1.377 . S
C329 C330 1.379 . S
C330 H314 0.931 . S
C330 C324 1.383 . S
C330 C329 1.379 . S
H331 C325 0.959 . S
H332 C325 0.961 . S
H333 C325 0.960 . S
H334 C326 0.930 . S
H335 C327 0.929 . S
H336 C344 0.929 . S
H337 C346 0.930 . S
H338 C348 0.930 . S
H339 C351 0.929 . S
H340 C354 0.930 . S
H341 C356 0.960 . S
H342 C356 0.960 . S
H343 C356 0.960 . S
C344 H336 0.929 . S
C344 C345 1.377 . S
C344 C346 1.384 . S
C345 C344 1.377 . S
C345 C351 1.390 1_556 S
C346 H337 0.930 . S
C346 C344 1.384 . S
C346 C347 1.372 . S
C347 C346 1.372 . S
C347 C348 1.400 1_556 S
C347 C352 1.490 . S
C348 H338 0.930 . S
C348 C347 1.400 1_554 S
C348 C351 1.386 . S
H349 C365 0.930 . S
H350 C366 0.931 . S
C351 H339 0.929 . S
C351 C345 1.390 1_554 S
C351 C348 1.386 . S
C352 C347 1.490 . S
C352 C354 1.395 1_556 S
C352 C355 1.403 . S
H353 C359 0.930 . S
C354 H340 0.930 . S
C354 C352 1.395 1_554 S
C354 C357 1.403 . S
C355 C352 1.403 . S
C355 C356 1.524 . S
C355 C359 1.400 . S
C356 H341 0.960 . S
C356 H342 0.960 . S
C356 H343 0.960 . S
C356 C355 1.524 . S
C357 C354 1.403 . S
C357 C358 1.392 1_554 S
C357 C361 1.495 . S
C358 C357 1.392 1_556 S
C358 C359 1.385 . S
C358 C360 1.478 . S
C359 H353 0.930 . S
C359 C355 1.400 . S
C359 C358 1.385 . S
C360 C358 1.478 . S
C360 C362 1.381 . S
C360 C366 1.383 1_556 S
C361 C357 1.495 . S
C361 H367 0.959 . S
C361 H368 0.961 . S
C361 H369 0.960 . S
C362 C360 1.381 . S
C362 C363 1.394 . S
C362 H370 0.930 . S
C363 C362 1.394 . S
C363 C364 1.383 . S
C363 H371 0.929 . S
C364 C363 1.383 . S
C364 C365 1.377 1_556 S
C365 H349 0.930 . S
C365 C364 1.377 1_554 S
C365 C366 1.379 . S
C366 H350 0.931 . S
C366 C360 1.383 1_554 S
C366 C365 1.379 . S
H367 C361 0.959 . S
H368 C361 0.961 . S
H369 C361 0.960 . S
H370 C362 0.930 . S
H371 C363 0.929 . S
H372 C380 0.929 . S
H373 C382 0.930 . S
H374 C384 0.930 . S
H375 C387 0.929 . S
H376 C390 0.930 . S
H377 C392 0.960 . S
H378 C392 0.960 . S
H379 C392 0.960 . S
C380 H372 0.929 . S
C380 C381 1.377 . S
C380 C382 1.384 . S
C381 C380 1.377 . S
C381 C387 1.390 1_554 S
C382 H373 0.930 . S
C382 C380 1.384 . S
C382 C383 1.358 1_554 S
C383 C382 1.358 1_556 S
C383 C384 1.413 . S
C383 C388 1.490 . S
C384 H374 0.930 . S
C384 C383 1.413 . S
C384 C387 1.386 . S
H385 C401 0.930 . S
H386 C402 0.931 . S
C387 H375 0.929 . S
C387 C381 1.390 1_556 S
C387 C384 1.386 . S
C388 C383 1.490 . S
C388 C390 1.395 1_556 S
C388 C391 1.403 . S
H389 C395 0.930 . S
C390 H376 0.930 . S
C390 C388 1.395 1_554 S
C390 C393 1.403 . S
C391 C388 1.403 . S
C391 C392 1.524 . S
C391 C395 1.400 . S
C392 H377 0.960 . S
C392 H378 0.960 . S
C392 H379 0.960 . S
C392 C391 1.524 . S
C393 C390 1.403 . S
C393 C394 1.392 1_554 S
C393 C397 1.495 . S
C394 C393 1.392 1_556 S
C394 C395 1.385 . S
C394 C396 1.478 . S
C395 H389 0.930 . S
C395 C391 1.400 . S
C395 C394 1.385 . S
C396 C394 1.478 . S
C396 C398 1.381 1_556 S
C396 C402 1.383 . S
C397 C393 1.495 . S
C397 H403 0.959 . S
C397 H404 0.961 . S
C397 H405 0.960 . S
C398 C396 1.381 1_554 S
C398 C399 1.394 . S
C398 H406 0.930 . S
C399 C398 1.394 . S
C399 C400 1.383 1_554 S
C399 H407 0.929 . S
C400 C399 1.383 1_556 S
C400 C401 1.377 . S
C401 H385 0.930 . S
C401 C400 1.377 . S
C401 C402 1.379 . S
C402 H386 0.931 . S
C402 C396 1.383 . S
C402 C401 1.379 . S
H403 C397 0.959 . S
H404 C397 0.961 . S
H405 C397 0.960 . S
H406 C398 0.930 . S
H407 C399 0.929 . S
H408 C416 0.929 . S
H409 C418 0.930 . S
H410 C420 0.930 . S
H411 C423 0.929 . S
H412 C426 0.930 . S
H413 C428 0.960 . S
H414 C428 0.960 . S
H415 C428 0.960 . S
C416 H408 0.929 . S
C416 C417 1.377 1_554 S
C416 C418 1.384 . S
C417 C416 1.377 1_556 S
C417 C423 1.390 . S
C418 H409 0.930 . S
C418 C416 1.384 . S
C418 C419 1.372 1_554 S
C419 C418 1.372 1_556 S
C419 C420 1.400 . S
C419 C424 1.490 . S
C420 H410 0.930 . S
C420 C419 1.400 . S
C420 C423 1.386 . S
H421 C437 0.930 . S
H422 C438 0.931 . S
C423 H411 0.929 . S
C423 C417 1.390 . S
C423 C420 1.386 . S
C424 C419 1.490 . S
C424 C426 1.395 1_556 S
C424 C427 1.403 . S
H425 C431 0.930 . S
C426 H412 0.930 . S
C426 C424 1.395 1_554 S
C426 C429 1.403 . S
C427 C424 1.403 . S
C427 C428 1.524 . S
C427 C431 1.400 . S
C428 H413 0.960 . S
C428 H414 0.960 . S
C428 H415 0.960 . S
C428 C427 1.524 . S
C429 C426 1.403 . S
C429 C430 1.392 . S
C429 C433 1.495 . S
C430 C429 1.392 . S
C430 C431 1.385 1_554 S
C430 C432 1.478 . S
C431 H425 0.930 . S
C431 C427 1.400 . S
C431 C430 1.385 1_556 S
C432 C430 1.478 . S
C432 C434 1.381 . S
C432 C438 1.383 1_554 S
C433 C429 1.495 . S
C433 H439 0.959 . S
C433 H440 0.961 . S
C433 H441 0.960 . S
C434 C432 1.381 . S
C434 C435 1.394 . S
C434 H442 0.930 . S
C435 C434 1.394 . S
C435 C436 1.383 . S
C435 H443 0.929 . S
C436 C435 1.383 . S
C436 C437 1.377 1_554 S
C437 H421 0.930 . S
C437 C436 1.377 1_556 S
C437 C438 1.379 . S
C438 H422 0.931 . S
C438 C432 1.383 1_556 S
C438 C437 1.379 . S
H439 C433 0.959 . S
H440 C433 0.961 . S
H441 C433 0.960 . S
H442 C434 0.930 . S
H443 C435 0.929 . S
H444 C452 0.929 . S
H445 C454 0.930 . S
H446 C456 0.930 . S
H447 C459 0.929 . S
H448 C462 0.930 . S
H449 C464 0.960 . S
H450 C464 0.960 . S
H451 C464 0.960 . S
C452 H444 0.929 . S
C452 C453 1.377 1_554 S
C452 C454 1.384 . S
C453 C452 1.377 1_556 S
C453 C459 1.390 . S
C454 H445 0.930 . S
C454 C452 1.384 . S
C454 C455 1.372 1_554 S
C455 C454 1.372 1_556 S
C455 C456 1.400 . S
C455 C460 1.490 . S
C456 H446 0.930 . S
C456 C455 1.400 . S
C456 C459 1.386 . S
H457 C473 0.930 . S
H458 C474 0.931 . S
C459 H447 0.929 . S
C459 C453 1.390 . S
C459 C456 1.386 . S
C460 C455 1.490 . S
C460 C462 1.395 1_556 S
C460 C463 1.403 . S
H461 C467 0.930 . S
C462 H448 0.930 . S
C462 C460 1.395 1_554 S
C462 C465 1.403 . S
C463 C460 1.403 . S
C463 C464 1.524 . S
C463 C467 1.400 . S
C464 H449 0.960 . S
C464 H450 0.960 . S
C464 H451 0.960 . S
C464 C463 1.524 . S
C465 C462 1.403 . S
C465 C466 1.392 . S
C465 C469 1.495 . S
C466 C465 1.392 . S
C466 C467 1.386 1_554 S
C466 C468 1.478 . S
C467 H461 0.930 . S
C467 C463 1.400 . S
C467 C466 1.386 1_556 S
C468 C466 1.478 . S
C468 C470 1.381 . S
C468 C474 1.383 1_554 S
C469 C465 1.495 . S
C469 H475 0.959 . S
C469 H476 0.961 . S
C469 H477 0.960 . S
C470 C468 1.381 . S
C470 C471 1.394 . S
C470 H478 0.930 . S
C471 C470 1.394 . S
C471 C472 1.383 . S
C471 H479 0.929 . S
C472 C471 1.383 . S
C472 C473 1.377 1_554 S
C473 H457 0.930 . S
C473 C472 1.377 1_556 S
C473 C474 1.379 . S
C474 H458 0.931 . S
C474 C468 1.383 1_556 S
C474 C473 1.379 . S
H475 C469 0.959 . S
H476 C469 0.961 . S
H477 C469 0.960 . S
H478 C470 0.930 . S
H479 C471 0.929 . S
H480 C488 0.929 . S
H481 C490 0.930 . S
H482 C492 0.930 . S
H483 C495 0.929 . S
H484 C498 0.930 . S
H485 C500 0.960 . S
H486 C500 0.960 . S
H487 C500 0.960 . S
C488 H480 0.929 . S
C488 C489 1.377 . S
C488 C490 1.384 . S
C489 C488 1.377 . S
C489 C495 1.390 1_556 S
C490 H481 0.930 . S
C490 C488 1.384 . S
C490 C491 1.372 . S
C491 C490 1.372 . S
C491 C492 1.400 1_556 S
C491 C496 1.490 . S
C492 H482 0.930 . S
C492 C491 1.400 1_554 S
C492 C495 1.386 . S
H493 C509 0.930 . S
H494 C510 0.931 . S
C495 H483 0.929 . S
C495 C489 1.390 1_554 S
C495 C492 1.386 . S
C496 C491 1.490 . S
C496 C498 1.395 . S
C496 C499 1.403 1_556 S
H497 C503 0.930 . S
C498 H484 0.930 . S
C498 C496 1.395 . S
C498 C501 1.403 . S
C499 C496 1.403 1_554 S
C499 C500 1.524 . S
C499 C503 1.400 . S
C500 H485 0.960 . S
C500 H486 0.960 . S
C500 H487 0.960 . S
C500 C499 1.524 . S
C501 C498 1.403 . S
C501 C502 1.392 . S
C501 C505 1.495 . S
C502 C501 1.392 . S
C502 C503 1.385 1_556 S
C502 C504 1.478 . S
C503 H497 0.930 . S
C503 C499 1.400 . S
C503 C502 1.385 1_554 S
C504 C502 1.478 . S
C504 C506 1.381 . S
C504 C510 1.383 1_556 S
C505 C501 1.495 . S
C505 H511 0.959 . S
C505 H512 0.961 . S
C505 H513 0.960 . S
C506 C504 1.381 . S
C506 C507 1.394 . S
C506 H514 0.930 . S
C507 C506 1.394 . S
C507 C508 1.383 . S
C507 H515 0.929 . S
C508 C507 1.383 . S
C508 C509 1.377 1_556 S
C509 H493 0.930 . S
C509 C508 1.377 1_554 S
C509 C510 1.379 . S
C510 H494 0.931 . S
C510 C504 1.383 1_554 S
C510 C509 1.379 . S
H511 C505 0.959 . S
H512 C505 0.961 . S
H513 C505 0.960 . S
H514 C506 0.930 . S
H515 C507 0.929 . S
H516 C524 0.929 . S
H517 C526 0.930 . S
H518 C528 0.930 . S
H519 C531 0.929 . S
H520 C534 0.930 . S
H521 C536 0.960 . S
H522 C536 0.960 . S
H523 C536 0.960 . S
C524 H516 0.929 . S
C524 C525 1.373 1_556 S
C524 C526 1.384 . S
C525 C524 1.373 1_554 S
C525 C531 1.394 . S
C526 H517 0.930 . S
C526 C524 1.384 . S
C526 C527 1.372 . S
C527 C526 1.372 . S
C527 C528 1.400 1_556 S
C527 C532 1.490 . S
C528 H518 0.930 . S
C528 C527 1.400 1_554 S
C528 C531 1.386 . S
H529 C545 0.930 . S
H530 C546 0.931 . S
C531 H519 0.929 . S
C531 C525 1.394 . S
C531 C528 1.386 . S
C532 C527 1.490 . S
C532 C534 1.395 . S
C532 C535 1.403 1_556 S
H533 C539 0.930 . S
C534 H520 0.930 . S
C534 C532 1.395 . S
C534 C537 1.403 . S
C535 C532 1.403 1_554 S
C535 C536 1.524 . S
C535 C539 1.400 . S
C536 H521 0.960 . S
C536 H522 0.960 . S
C536 H523 0.960 . S
C536 C535 1.524 . S
C537 C534 1.403 . S
C537 C538 1.392 . S
C537 C541 1.495 . S
C538 C537 1.392 . S
C538 C539 1.385 1_556 S
C538 C540 1.478 . S
C539 H533 0.930 . S
C539 C535 1.400 . S
C539 C538 1.385 1_554 S
C540 C538 1.478 . S
C540 C542 1.381 . S
C540 C546 1.383 1_556 S
C541 C537 1.495 . S
C541 H547 0.959 . S
C541 H548 0.961 . S
C541 H549 0.960 . S
C542 C540 1.381 . S
C542 C543 1.394 . S
C542 H550 0.930 . S
C543 C542 1.394 . S
C543 C544 1.383 . S
C543 H551 0.929 . S
C544 C543 1.383 . S
C544 C545 1.377 1_556 S
C545 H529 0.930 . S
C545 C544 1.377 1_554 S
C545 C546 1.379 . S
C546 H530 0.931 . S
C546 C540 1.383 1_554 S
C546 C545 1.379 . S
H547 C541 0.959 . S
H548 C541 0.961 . S
H549 C541 0.960 . S
H550 C542 0.930 . S
H551 C543 0.929 . S
H552 C560 0.929 . S
H553 C562 0.930 . S
H554 C564 0.930 . S
H555 C567 0.929 . S
H556 C570 0.930 . S
H557 C572 0.960 . S
H558 C572 0.960 . S
H559 C572 0.960 . S
C560 H552 0.929 . S
C560 C561 1.377 . S
C560 C562 1.384 . S
C561 C560 1.377 . S
C561 C567 1.390 . S
C562 H553 0.930 . S
C562 C560 1.384 . S
C562 C563 1.372 . S
C563 C562 1.372 . S
C563 C564 1.400 . S
C563 C568 1.490 . S
C564 H554 0.930 . S
C564 C563 1.400 . S
C564 C567 1.386 . S
H565 C581 0.930 . S
H566 C582 0.931 . S
C567 H555 0.929 . S
C567 C561 1.390 . S
C567 C564 1.386 . S
C568 C563 1.490 . S
C568 C570 1.395 . S
C568 C571 1.403 . S
H569 C575 0.930 . S
C570 H556 0.930 . S
C570 C568 1.395 . S
C570 C573 1.403 . S
C571 C568 1.403 . S
C571 C572 1.524 . S
C571 C575 1.400 . S
C572 H557 0.960 . S
C572 H558 0.960 . S
C572 H559 0.960 . S
C572 C571 1.524 . S
C573 C570 1.403 . S
C573 C574 1.392 . S
C573 C577 1.495 . S
C574 C573 1.392 . S
C574 C575 1.385 . S
C574 C576 1.478 . S
C575 H569 0.930 . S
C575 C571 1.400 . S
C575 C574 1.385 . S
C576 C574 1.478 . S
C576 C578 1.381 . S
C576 C582 1.383 . S
C577 C573 1.495 . S
C577 H583 0.959 . S
C577 H584 0.961 . S
C577 H585 0.960 . S
C578 C576 1.381 . S
C578 C579 1.394 . S
C578 H586 0.930 . S
C579 C578 1.394 . S
C579 C580 1.383 . S
C579 H587 0.929 . S
C580 C579 1.383 . S
C580 C581 1.377 . S
C581 H565 0.930 . S
C581 C580 1.377 . S
C581 C582 1.379 . S
C582 H566 0.931 . S
C582 C576 1.383 . S
C582 C581 1.379 . S
H583 C577 0.959 . S
H584 C577 0.961 . S
H585 C577 0.960 . S
H586 C578 0.930 . S
H587 C579 0.929 . S
H588 C596 0.929 . S
H589 C598 0.930 . S
H590 C600 0.930 . S
H591 C603 0.929 . S
H592 C606 0.930 . S
H593 C608 0.960 . S
H594 C608 0.960 . S
H595 C608 0.960 . S
C596 H588 0.929 . S
C596 C597 1.377 . S
C596 C598 1.384 . S
C597 C596 1.377 . S
C597 C603 1.390 . S
C598 H589 0.930 . S
C598 C596 1.384 . S
C598 C599 1.372 . S
C599 C598 1.372 . S
C599 C600 1.400 . S
C599 C604 1.490 . S
C600 H590 0.930 . S
C600 C599 1.400 . S
C600 C603 1.386 . S
H601 C617 0.930 . S
H602 C618 0.931 . S
C603 H591 0.929 . S
C603 C597 1.390 . S
C603 C600 1.386 . S
C604 C599 1.490 . S
C604 C606 1.395 . S
C604 C607 1.403 . S
H605 C611 0.930 . S
C606 H592 0.930 . S
C606 C604 1.395 . S
C606 C609 1.403 . S
C607 C604 1.403 . S
C607 C608 1.524 . S
C607 C611 1.400 . S
C608 H593 0.960 . S
C608 H594 0.960 . S
C608 H595 0.960 . S
C608 C607 1.524 . S
C609 C606 1.403 . S
C609 C610 1.392 . S
C609 C613 1.495 . S
C610 C609 1.392 . S
C610 C611 1.385 . S
C610 C612 1.478 . S
C611 H605 0.930 . S
C611 C607 1.400 . S
C611 C610 1.385 . S
C612 C610 1.478 . S
C612 C614 1.381 . S
C612 C618 1.383 . S
C613 C609 1.495 . S
C613 H619 0.959 . S
C613 H620 0.961 . S
C613 H621 0.960 . S
C614 C612 1.381 . S
C614 C615 1.394 . S
C614 H622 0.930 . S
C615 C614 1.394 . S
C615 C616 1.383 . S
C615 H623 0.929 . S
C616 C615 1.383 . S
C616 C617 1.377 . S
C617 H601 0.930 . S
C617 C616 1.377 . S
C617 C618 1.379 . S
C618 H602 0.931 . S
C618 C612 1.383 . S
C618 C617 1.379 . S
H619 C613 0.959 . S
H620 C613 0.961 . S
H621 C613 0.960 . S
H622 C614 0.930 . S
H623 C615 0.929 . S
H624 C632 0.929 . S
H625 C634 0.930 . S
H626 C636 0.930 . S
H627 C639 0.929 . S
H628 C642 0.930 . S
H629 C644 0.960 . S
H630 C644 0.960 . S
H631 C644 0.960 . S
C632 H624 0.929 . S
C632 C633 1.377 . S
C632 C634 1.384 . S
C633 C632 1.377 . S
C633 C639 1.390 . S
C634 H625 0.930 . S
C634 C632 1.384 . S
C634 C635 1.372 . S
C635 C634 1.372 . S
C635 C636 1.400 . S
C635 C640 1.490 . S
C636 H626 0.930 . S
C636 C635 1.400 . S
C636 C639 1.386 . S
H637 C653 0.930 . S
H638 C654 0.931 . S
C639 H627 0.929 . S
C639 C633 1.390 . S
C639 C636 1.386 . S
C640 C635 1.490 . S
C640 C642 1.395 . S
C640 C643 1.403 . S
H641 C647 0.930 . S
C642 H628 0.930 . S
C642 C640 1.395 . S
C642 C645 1.403 . S
C643 C640 1.403 . S
C643 C644 1.524 . S
C643 C647 1.400 . S
C644 H629 0.960 . S
C644 H630 0.960 . S
C644 H631 0.960 . S
C644 C643 1.524 . S
C645 C642 1.403 . S
C645 C646 1.392 . S
C645 C649 1.495 . S
C646 C645 1.392 . S
C646 C647 1.385 . S
C646 C648 1.478 . S
C647 H641 0.930 . S
C647 C643 1.400 . S
C647 C646 1.385 . S
C648 C646 1.478 . S
C648 C650 1.381 . S
C648 C654 1.383 . S
C649 C645 1.495 . S
C649 H655 0.959 . S
C649 H656 0.961 . S
C649 H657 0.960 . S
C650 C648 1.381 . S
C650 C651 1.394 . S
C650 H658 0.930 . S
C651 C650 1.394 . S
C651 C652 1.383 . S
C651 H659 0.929 . S
C652 C651 1.383 . S
C652 C653 1.377 . S
C653 H637 0.930 . S
C653 C652 1.377 . S
C653 C654 1.379 . S
C654 H638 0.931 . S
C654 C648 1.383 . S
C654 C653 1.379 . S
H655 C649 0.959 . S
H656 C649 0.961 . S
H657 C649 0.960 . S
H658 C650 0.930 . S
H659 C651 0.929 . S
H660 C668 0.929 . S
H661 C670 0.930 . S
H662 C672 0.930 . S
H663 C675 0.929 . S
H664 C678 0.930 . S
H665 C680 0.960 . S
H666 C680 0.960 . S
H667 C680 0.960 . S
C668 H660 0.929 . S
C668 C669 1.377 . S
C668 C670 1.384 . S
C669 C668 1.377 . S
C669 C675 1.390 . S
C670 H661 0.930 . S
C670 C668 1.384 . S
C670 C671 1.372 . S
C671 C670 1.372 . S
C671 C672 1.400 . S
C671 C676 1.490 . S
C672 H662 0.930 . S
C672 C671 1.400 . S
C672 C675 1.386 . S
H673 C689 0.930 . S
H674 C690 0.931 . S
C675 H663 0.929 . S
C675 C669 1.390 . S
C675 C672 1.386 . S
C676 C671 1.490 . S
C676 C678 1.395 . S
C676 C679 1.403 . S
H677 C683 0.930 . S
C678 H664 0.930 . S
C678 C676 1.395 . S
C678 C681 1.403 . S
C679 C676 1.403 . S
C679 C680 1.524 . S
C679 C683 1.400 . S
C680 H665 0.960 . S
C680 H666 0.960 . S
C680 H667 0.960 . S
C680 C679 1.524 . S
C681 C678 1.403 . S
C681 C682 1.392 . S
C681 C685 1.495 . S
C682 C681 1.392 . S
C682 C683 1.385 . S
C682 C684 1.478 . S
C683 H677 0.930 . S
C683 C679 1.400 . S
C683 C682 1.385 . S
C684 C682 1.478 . S
C684 C686 1.381 . S
C684 C690 1.383 . S
C685 C681 1.495 . S
C685 H691 0.959 . S
C685 H692 0.961 . S
C685 H693 0.960 . S
C686 C684 1.381 . S
C686 C687 1.394 . S
C686 H694 0.930 . S
C687 C686 1.394 . S
C687 C688 1.383 . S
C687 H695 0.929 . S
C688 C687 1.383 . S
C688 C689 1.377 . S
C689 H673 0.930 . S
C689 C688 1.377 . S
C689 C690 1.379 . S
C690 H674 0.931 . S
C690 C684 1.383 . S
C690 C689 1.379 . S
H691 C685 0.959 . S
H692 C685 0.961 . S
H693 C685 0.960 . S
H694 C686 0.930 . S
H695 C687 0.929 . S
H696 C704 0.929 . S
H697 C706 0.930 . S
H698 C708 0.930 . S
H699 C711 0.929 . S
H700 C714 0.930 . S
H701 C716 0.960 . S
H702 C716 0.960 . S
H703 C716 0.960 . S
C704 H696 0.929 . S
C704 C705 1.377 . S
C704 C706 1.384 . S
C705 C704 1.377 . S
C705 C711 1.390 . S
C706 H697 0.930 . S
C706 C704 1.384 . S
C706 C707 1.372 . S
C707 C706 1.372 . S
C707 C708 1.400 . S
C707 C712 1.490 . S
C708 H698 0.930 . S
C708 C707 1.400 . S
C708 C711 1.386 . S
H709 C725 0.930 . S
H710 C726 0.931 . S
C711 H699 0.929 . S
C711 C705 1.390 . S
C711 C708 1.386 . S
C712 C707 1.490 . S
C712 C714 1.395 . S
C712 C715 1.403 . S
H713 C719 0.930 . S
C714 H700 0.930 . S
C714 C712 1.395 . S
C714 C717 1.403 . S
C715 C712 1.403 . S
C715 C716 1.524 . S
C715 C719 1.400 . S
C716 H701 0.960 . S
C716 H702 0.960 . S
C716 H703 0.960 . S
C716 C715 1.524 . S
C717 C714 1.403 . S
C717 C718 1.392 . S
C717 C721 1.495 . S
C718 C717 1.392 . S
C718 C719 1.385 . S
C718 C720 1.478 . S
C719 H713 0.930 . S
C719 C715 1.400 . S
C719 C718 1.385 . S
C720 C718 1.478 . S
C720 C722 1.381 . S
C720 C726 1.383 . S
C721 C717 1.495 . S
C721 H727 0.959 . S
C721 H728 0.961 . S
C721 H729 0.960 . S
C722 C720 1.381 . S
C722 C723 1.394 . S
C722 H730 0.930 . S
C723 C722 1.394 . S
C723 C724 1.383 . S
C723 H731 0.929 . S
C724 C723 1.383 . S
C724 C725 1.377 . S
C725 H709 0.930 . S
C725 C724 1.377 . S
C725 C726 1.379 . S
C726 H710 0.931 . S
C726 C720 1.383 . S
C726 C725 1.379 . S
H727 C721 0.959 . S
H728 C721 0.961 . S
H729 C721 0.960 . S
H730 C722 0.930 . S
H731 C723 0.929 . S
H732 C740 0.929 . S
H733 C742 0.930 . S
H734 C744 0.930 . S
H735 C747 0.929 . S
H736 C750 0.930 . S
H737 C752 0.960 . S
H738 C752 0.960 . S
H739 C752 0.960 . S
C740 H732 0.929 . S
C740 C741 1.377 . S
C740 C742 1.384 . S
C741 C740 1.377 . S
C741 C747 1.390 . S
C742 H733 0.930 . S
C742 C740 1.384 . S
C742 C743 1.372 . S
C743 C742 1.372 . S
C743 C744 1.400 . S
C743 C748 1.490 . S
C744 H734 0.930 . S
C744 C743 1.400 . S
C744 C747 1.386 . S
H745 C761 0.930 . S
H746 C762 0.931 . S
C747 H735 0.929 . S
C747 C741 1.390 . S
C747 C744 1.386 . S
C748 C743 1.490 . S
C748 C750 1.395 . S
C748 C751 1.403 . S
H749 C755 0.930 . S
C750 H736 0.930 . S
C750 C748 1.395 . S
C750 C753 1.403 . S
C751 C748 1.403 . S
C751 C752 1.524 . S
C751 C755 1.400 . S
C752 H737 0.960 . S
C752 H738 0.960 . S
C752 H739 0.960 . S
C752 C751 1.524 . S
C753 C750 1.403 . S
C753 C754 1.392 . S
C753 C757 1.495 . S
C754 C753 1.392 . S
C754 C755 1.385 . S
C754 C756 1.478 . S
C755 H749 0.930 . S
C755 C751 1.400 . S
C755 C754 1.385 . S
C756 C754 1.478 . S
C756 C758 1.381 . S
C756 C762 1.383 . S
C757 C753 1.495 . S
C757 H763 0.959 . S
C757 H764 0.961 . S
C757 H765 0.960 . S
C758 C756 1.381 . S
C758 C759 1.394 . S
C758 H766 0.930 . S
C759 C758 1.394 . S
C759 C760 1.383 . S
C759 H767 0.929 . S
C760 C759 1.383 . S
C760 C761 1.377 . S
C761 H745 0.930 . S
C761 C760 1.377 . S
C761 C762 1.379 . S
C762 H746 0.931 . S
C762 C756 1.383 . S
C762 C761 1.379 . S
H763 C757 0.959 . S
H764 C757 0.961 . S
H765 C757 0.960 . S
H766 C758 0.930 . S
H767 C759 0.929 . S
C129 C104 1.298 . S
C148 C12 1.303 . S
C165 C4 1.295 . S
C184 C32 1.295 . S
C201 C24 1.294 . S
C220 C52 1.300 . S
C237 C72 1.303 . S
C256 C44 1.305 . S
C273 C92 1.303 . S
C292 C64 1.301 . S
C309 C84 1.294 . S
C328 C112 1.301 . S
C345 C82 1.656 1_556 S
C364 C9 1.703 . S
C381 C102 1.654 . S
C400 C29 1.733 . S
C417 C49 1.720 . S
C436 C2 1.640 . S
C453 C69 1.719 . S
C472 C22 1.626 . S
C489 C89 1.713 . S
C508 C42 1.660 1_556 S
C525 C62 1.665 . S
C544 C109 1.695 . S
C561 C18 1.495 . S
C580 C19 1.504 . S
C597 C38 1.491 . S
C616 C39 1.471 . S
C633 C58 1.488 . S
C652 C59 1.480 . S
C669 C78 1.489 . S
C688 C79 1.471 . S
C705 C99 1.490 . S
C724 C98 1.499 . S
C741 C118 1.488 . S
C760 C119 1.484 . S
