# Generated by pormake.
# Topology sxa, (6)-cn, num edge types: 1
# Building blocks:
#     Node 0, Type 0, BuildingBlock: IZENUY_clean_sbu_0, # of connection points: 6
#     Node 1, Type 0, BuildingBlock: IZENUY_clean_sbu_0, # of connection points: 6
#     Node 2, Type 0, BuildingBlock: IZENUY_clean_sbu_0, # of connection points: 6
#     Node 3, Type 0, BuildingBlock: IZENUY_clean_sbu_0, # of connection points: 6
#     Edge 4, Type (0, 0), BuildingBlock: FUNLAD_clean_linker_1, # of connection points: 2
#     Edge 5, Type (0, 0), BuildingBlock: FUNLAD_clean_linker_1, # of connection points: 2
#     Edge 6, Type (0, 0), BuildingBlock: FUNLAD_clean_linker_1, # of connection points: 2
#     Edge 7, Type (0, 0), BuildingBlock: FUNLAD_clean_linker_1, # of connection points: 2
#     Edge 8, Type (0, 0), BuildingBlock: FUNLAD_clean_linker_1, # of connection points: 2
#     Edge 9, Type (0, 0), BuildingBlock: FUNLAD_clean_linker_1, # of connection points: 2
#     Edge 10, Type (0, 0), BuildingBlock: FUNLAD_clean_linker_1, # of connection points: 2
#     Edge 11, Type (0, 0), BuildingBlock: FUNLAD_clean_linker_1, # of connection points: 2
#     Edge 12, Type (0, 0), BuildingBlock: FUNLAD_clean_linker_1, # of connection points: 2
#     Edge 13, Type (0, 0), BuildingBlock: FUNLAD_clean_linker_1, # of connection points: 2
#     Edge 14, Type (0, 0), BuildingBlock: FUNLAD_clean_linker_1, # of connection points: 2
#     Edge 15, Type (0, 0), BuildingBlock: FUNLAD_clean_linker_1, # of connection points: 2
# Relax obj value: 0.274
# Max RMSD: 0.267
# Mean RMSD: 0.267
data_MOF--net-sxa--node1-IZENUY_clean_sbu_0--edge1-FUNLAD_clean_linker_1
_symmetry_space_group_name_H-M    P1
_symmetry_Int_Tables_number       1
_symmetry_cell_setting            triclinic
loop_
_symmetry_equiv_pos_as_xyz
'x, y, z'
_cell_length_a     24.386432
_cell_length_b     27.966431
_cell_length_c     18.706022
_cell_angle_alpha  89.591336
_cell_angle_beta   89.959606
_cell_angle_gamma 90.864374
loop_
_atom_site_label
_atom_site_type_symbol
_atom_site_fract_x
_atom_site_fract_y
_atom_site_fract_z
_atom_type_partial_charge
Fe0 Fe 0.05355 0.84899 0.30861 0.0
Fe1 Fe 0.01566 0.74258 0.29957 0.0
O2 O 0.03301 0.7983 0.25748 0.0
Fe3 Fe 0.02917 0.8033 0.16289 0.0
O4 O 0.10194 0.81594 0.15654 0.0
O5 O 0.10443 0.87009 0.24223 0.0
O6 O 0.10909 0.81681 0.35104 0.0
C7 C 0.10689 0.77632 0.38109 0.0
C8 C 0.99603 0.89611 0.20464 0.0
O9 O 0.06665 0.74802 0.37152 0.0
C10 C 0.93556 0.75285 0.19081 0.0
O11 O 0.00593 0.83631 0.38338 0.0
O12 O 0.96243 0.76978 0.35332 0.0
O13 O 0.01433 0.86731 0.15925 0.0
O14 O 1.00037 0.88695 0.27051 0.0
C15 C 0.06519 0.70739 0.1804 0.0
O16 O 0.9614 0.72756 0.23547 0.0
O17 O 0.95616 0.791 0.16495 0.0
C18 C 0.96556 0.80746 0.38993 0.0
O19 O 0.06674 0.7095 0.2479 0.0
O20 O 0.04291 0.74036 0.14508 0.0
C21 C 0.12546 0.85058 0.18783 0.0
Fe22 Fe 0.52339 0.30606 0.15162 0.0
Fe23 Fe 0.54247 0.37048 0.28264 0.0
O24 O 0.52995 0.31241 0.24573 0.0
Fe25 Fe 0.52402 0.26057 0.30199 0.0
O26 O 0.57811 0.22862 0.25533 0.0
O27 O 0.54957 0.24518 0.14725 0.0
O28 O 0.59251 0.32825 0.13762 0.0
C29 C 0.60974 0.36869 0.15834 0.0
C30 C 0.44009 0.24756 0.19813 0.0
O31 O 0.58659 0.39084 0.20854 0.0
C32 C 0.46577 0.3274 0.37935 0.0
O33 O 0.49545 0.36547 0.1347 0.0
O34 O 0.48239 0.39692 0.24026 0.0
O35 O 0.47025 0.23177 0.24776 0.0
O36 O 0.45403 0.28358 0.16079 0.0
C37 C 0.61157 0.31453 0.36546 0.0
O38 O 0.50031 0.3601 0.36351 0.0
O39 O 0.46857 0.2864 0.3524 0.0
C40 C 0.47452 0.39706 0.17347 0.0
O41 O 0.60441 0.35096 0.32685 0.0
O42 O 0.57676 0.28035 0.36692 0.0
C43 C 0.57698 0.21947 0.18935 0.0
Fe44 Fe 0.02831 0.3036 0.91359 0.0
Fe45 Fe 0.01545 0.35523 0.77018 0.0
O46 O 0.03108 0.30242 0.81905 0.0
Fe47 Fe 0.04978 0.24884 0.77556 0.0
O48 O 0.99588 0.21339 0.81982 0.0
O49 O 0.01408 0.23943 0.92696 0.0
O50 O 0.95554 0.31301 0.9104 0.0
C51 C 0.93456 0.34825 0.8787 0.0
C52 C 0.12421 0.25856 0.89148 0.0
O53 O 0.9616 0.3733 0.83349 0.0
C54 C 0.10521 0.31689 0.69305 0.0
O55 O 0.04213 0.36803 0.92302 0.0
O56 O 0.06866 0.39033 0.81629 0.0
O57 O 0.10087 0.23278 0.84438 0.0
O58 O 0.10107 0.29427 0.91835 0.0
C59 C 0.96252 0.28568 0.68956 0.0
O60 O 0.06555 0.3454 0.69799 0.0
O61 O 0.10597 0.27843 0.72845 0.0
C62 C 0.06777 0.39713 0.88292 0.0
O63 O 0.96119 0.32533 0.72112 0.0
O64 O 0.00147 0.25669 0.69997 0.0
C65 C 0.99347 0.20792 0.88672 0.0
Fe66 Fe 0.52399 0.86188 0.76697 0.0
Fe67 Fe 0.53201 0.75105 0.79279 0.0
O68 O 0.52372 0.81063 0.82471 0.0
Fe69 Fe 0.51506 0.81988 0.91816 0.0
O70 O 0.44498 0.83586 0.90262 0.0
O71 O 0.4646 0.88785 0.81481 0.0
O72 O 0.47439 0.83606 0.70656 0.0
C73 C 0.4608 0.79393 0.69026 0.0
C74 C 0.5677 0.90708 0.88319 0.0
O75 O 0.48272 0.7576 0.7188 0.0
C76 C 0.60564 0.76481 0.91064 0.0
O77 O 0.58193 0.84314 0.7111 0.0
O78 O 0.59025 0.76654 0.73666 0.0
O79 O 0.53501 0.88313 0.9213 0.0
O80 O 0.57497 0.89488 0.81958 0.0
C81 C 0.4715 0.7257 0.91075 0.0
O82 O 0.58247 0.73806 0.86393 0.0
O83 O 0.58507 0.80348 0.93253 0.0
C84 C 0.60662 0.80391 0.70497 0.0
O85 O 0.47495 0.72479 0.84389 0.0
O86 O 0.49289 0.75973 0.94408 0.0
C87 C 0.43112 0.8689 0.85985 0.0
H88 H 0.12244 0.46171 0.88498 0.0
C89 C 0.09057 0.44218 0.91401 0.0
H90 H 0.03934 0.43899 1.00448 0.0
H91 H 0.13595 0.56559 0.23808 0.0
H92 H 0.14406 0.4864 0.29012 0.0
H93 H 0.131 0.41433 0.21647 0.0
H94 H 0.10875 0.42093 0.09058 0.0
C95 C 0.07117 0.45938 0.97655 0.0
C96 C 0.09225 0.50333 1.01447 0.0
C97 C 0.10776 0.49927 0.08761 0.0
C98 C 0.11698 0.541 0.12987 0.0
C99 C 0.12938 0.53532 0.20333 0.0
C100 C 0.1342 0.49002 0.23394 0.0
C101 C 0.12673 0.44943 0.19252 0.0
C102 C 0.11364 0.45377 0.12033 0.0
H103 H 0.03649 0.65306 0.10549 0.0
C104 C 0.06949 0.66105 0.14285 0.0
H105 H 0.1461 0.63839 0.18149 0.0
H106 H 0.0609 0.52689 0.87729 0.0
H107 H 0.06604 0.60517 0.82216 0.0
H108 H 0.0973 0.67547 0.89071 0.0
H109 H 0.12121 0.66788 1.0162 0.0
C110 C 0.11221 0.63112 0.14534 0.0
C111 C 0.11259 0.58716 0.09872 0.0
C112 C 0.10411 0.591 1.02361 0.0
C113 C 0.09099 0.54956 0.98231 0.0
C114 C 0.0753 0.55604 0.91005 0.0
C115 C 0.07745 0.60108 0.87776 0.0
C116 C 0.09471 0.64071 0.91645 0.0
C117 C 0.10781 0.63595 0.98853 0.0
H118 H 0.43065 0.43194 0.0849 0.0
C119 C 0.45083 0.43886 0.13567 0.0
H120 H 0.49185 0.49084 0.1971 0.0
H121 H 0.56327 0.62294 0.94007 0.0
H122 H 0.64889 0.58586 0.97234 0.0
H123 H 0.65092 0.51909 0.05909 0.0
H124 H 0.56744 0.48962 0.11522 0.0
C125 C 0.46655 0.48417 0.15029 0.0
C126 C 0.46365 0.52315 0.09449 0.0
C127 C 0.51275 0.53973 0.0609 0.0
C128 C 0.51137 0.57742 1.00905 0.0
C129 C 0.56149 0.59377 0.97833 0.0
C130 C 0.6111 0.57288 0.99652 0.0
C131 C 0.61227 0.53543 0.04556 0.0
C132 C 0.56392 0.51895 0.07756 0.0
H133 H 0.43985 0.69074 1.00864 0.0
C134 C 0.45189 0.68383 0.95373 0.0
H135 H 0.47742 0.63101 0.8821 0.0
H136 H 0.36238 0.50158 0.14899 0.0
H137 H 0.27592 0.53674 0.11364 0.0
H138 H 0.27301 0.59946 1.02043 0.0
H139 H 0.35655 0.62789 0.96225 0.0
C140 C 0.46048 0.63817 0.93464 0.0
C141 C 0.46075 0.5984 0.98945 0.0
C142 C 0.41152 0.58136 1.02224 0.0
C143 C 0.41304 0.54411 0.07506 0.0
C144 C 0.36339 0.52894 0.10782 0.0
C145 C 0.31355 0.54892 0.08816 0.0
C146 C 0.31192 0.58433 1.03574 0.0
C147 C 0.36018 0.60046 1.00296 0.0
H148 H 0.6079 0.97861 0.87053 0.0
C149 C 0.58824 0.95442 0.90873 0.0
H150 H 0.55925 0.94547 1.01462 0.0
H151 H 0.6893 0.12464 0.1418 0.0
H152 H 0.75534 0.0634 0.17051 0.0
H153 H 0.74466 0.98176 0.12307 0.0
H154 H 0.66881 0.96117 0.04436 0.0
C155 C 0.57829 0.96966 0.97592 0.0
C156 C 0.58775 1.02026 0.99955 0.0
C157 C 0.63131 1.03171 0.04702 0.0
C158 C 0.63636 0.07857 0.07664 0.0
C159 C 0.68217 0.0893 0.12036 0.0
C160 C 0.72062 0.05456 0.13681 0.0
C161 C 0.71468 1.00859 0.10993 0.0
C162 C 0.67086 0.99718 0.06515 0.0
H163 H 0.59822 0.14292 0.20165 0.0
C164 C 0.59533 0.17209 0.16323 0.0
H165 H 0.59663 0.19293 0.05517 0.0
H166 H 0.49998 1.01128 0.90915 0.0
H167 H 0.4346 0.07232 0.87905 0.0
H168 H 0.4408 0.15222 0.93345 0.0
H169 H 0.5123 0.17162 1.01795 0.0
C170 C 0.59951 0.16308 0.09244 0.0
C171 C 0.59647 0.11367 0.06107 0.0
C172 C 0.55337 0.10236 1.01234 0.0
C173 C 0.54931 0.05593 0.98135 0.0
C174 C 0.50557 1.0459 0.93363 0.0
C175 C 0.46754 0.08062 0.91592 0.0
C176 C 0.47105 0.1256 0.94651 0.0
C177 C 0.51283 0.13635 0.99472 0.0
H178 H 0.97354 0.97211 0.22069 0.0
C179 C 0.98044 0.94499 0.1805 0.0
H180 H 0.98754 0.93075 0.06995 0.0
H181 H 0.87954 0.12303 0.9602 0.0
H182 H 0.80012 0.07007 0.95124 0.0
H183 H 0.80195 0.98841 1.00164 0.0
H184 H 0.88254 0.95964 0.06382 0.0
C185 C 0.98123 0.95772 0.11052 0.0
C186 C 0.97865 1.00857 0.08472 0.0
C187 C 0.93164 1.02497 0.04774 0.0
C188 C 0.93121 0.0718 1.01663 0.0
C189 C 0.88277 0.08747 0.98272 0.0
C190 C 0.83677 0.05753 0.97758 0.0
C191 C 0.8377 1.01158 1.00624 0.0
C192 C 0.88431 0.99542 0.04139 0.0
H193 H 0.97065 0.13074 0.88116 0.0
C194 C 0.97812 0.16021 0.91759 0.0
H195 H 0.98802 0.18101 1.02494 0.0
H196 H 0.0773 0.98781 0.14679 0.0
H197 H 0.15666 1.04035 0.15565 0.0
H198 H 0.1552 0.12193 0.10534 0.0
H199 H 0.07489 0.15116 0.04403 0.0
C200 C 0.97926 0.15157 0.98889 0.0
C201 C 0.97835 0.10211 1.02108 0.0
C202 C 0.02515 0.08589 0.0591 0.0
C203 C 0.02557 1.03904 0.08992 0.0
C204 C 0.07402 1.02328 0.12399 0.0
C205 C 0.1201 1.05303 0.12923 0.0
C206 C 0.11934 0.09893 0.10068 0.0
C207 C 0.07274 0.11528 0.06577 0.0
H208 H 0.40702 0.8215 0.6062 0.0
C209 C 0.41609 0.78946 0.63709 0.0
H210 H 0.38771 0.71955 0.6631 0.0
H211 H 0.16749 0.83833 0.55353 0.0
H212 H 0.17436 0.87603 0.66978 0.0
H213 H 0.25133 0.85834 0.75078 0.0
H214 H 0.32207 0.80307 0.71598 0.0
C215 C 0.38112 0.75199 0.63222 0.0
C216 C 0.33003 0.7565 0.58821 0.0
C217 C 0.288 0.78789 0.61004 0.0
C218 C 0.24309 0.79757 0.56369 0.0
C219 C 0.2025 0.8298 0.58651 0.0
C220 C 0.20583 0.85156 0.65319 0.0
C221 C 0.24919 0.84164 0.69878 0.0
C222 C 0.28977 0.81009 0.67788 0.0
H223 H 0.14823 0.72638 0.45543 0.0
C224 C 0.15145 0.76148 0.43034 0.0
H225 H 0.19836 0.82537 0.42185 0.0
H226 H 0.39968 0.69068 0.53369 0.0
H227 H 0.39163 0.65111 0.41882 0.0
H228 H 0.31432 0.66816 0.33804 0.0
H229 H 0.24443 0.72464 0.37144 0.0
C230 C 0.19536 0.78962 0.44479 0.0
C231 C 0.23933 0.77509 0.49607 0.0
C232 C 0.27974 0.74168 0.47594 0.0
C233 C 0.32486 0.73219 0.52227 0.0
C234 C 0.36485 0.69922 0.50039 0.0
C235 C 0.36069 0.67629 0.43469 0.0
C236 C 0.31712 0.68587 0.38922 0.0
C237 C 0.27713 0.71826 0.40917 0.0
H238 H 0.13963 0.34628 0.59171 0.0
C239 C 0.14958 0.32666 0.64021 0.0
H240 H 0.21009 0.29194 0.70013 0.0
H241 H 0.37604 0.22506 0.47264 0.0
H242 H 0.34454 0.15082 0.52664 0.0
H243 H 0.26619 0.14913 0.60997 0.0
H244 H 0.21952 0.22172 0.64074 0.0
C245 C 0.20105 0.3109 0.65067 0.0
C246 C 0.24536 0.31277 0.59464 0.0
C247 C 0.27115 0.26958 0.57478 0.0
C248 C 0.31495 0.27024 0.52422 0.0
C249 C 0.34137 0.22668 0.50858 0.0
C250 C 0.32393 0.18367 0.53955 0.0
C251 C 0.27997 0.18275 0.58662 0.0
C252 C 0.25373 0.22495 0.60415 0.0
H253 H 0.43082 0.36229 0.47532 0.0
C254 C 0.4227 0.33619 0.43377 0.0
H255 H 0.36694 0.28658 0.38964 0.0
H256 H 0.21343 0.40338 0.62893 0.0
H257 H 0.24021 0.47694 0.5684 0.0
H258 H 0.30599 0.47638 0.46823 0.0
H259 H 0.34695 0.40253 0.42981 0.0
C260 C 0.37426 0.31209 0.43232 0.0
C261 C 0.33172 0.31373 0.49043 0.0
C262 C 0.3052 0.35685 0.50903 0.0
C263 C 0.26376 0.35665 0.56323 0.0
C264 C 0.24215 0.40089 0.58516 0.0
C265 C 0.25761 0.44351 0.55131 0.0
C266 C 0.29489 0.44324 0.49518 0.0
C267 C 0.3185 0.40055 0.47405 0.0
H268 H 0.91794 0.23841 0.61298 0.0
C269 C 0.91727 0.27297 0.63908 0.0
H270 H 0.87324 0.33638 0.65522 0.0
H271 H 0.75099 0.26878 0.35561 0.0
H272 H 0.84058 0.27384 0.29953 0.0
H273 H 0.92388 0.28779 0.37155 0.0
H274 H 0.91834 0.2959 0.50017 0.0
C275 C 0.87478 0.30258 0.62701 0.0
C276 C 0.82546 0.29 0.58234 0.0
C277 C 0.82918 0.28639 0.50676 0.0
C278 C 0.78066 0.28032 0.46466 0.0
C279 C 0.78607 0.27513 0.38977 0.0
C280 C 0.83731 0.27768 0.35692 0.0
C281 C 0.88424 0.28539 0.39751 0.0
C282 C 0.88047 0.28979 0.47148 0.0
H283 H 0.68885 0.34511 0.4077 0.0
C284 C 0.66187 0.31384 0.41062 0.0
H285 H 0.64968 0.246 0.45891 0.0
H286 H 0.80314 0.2921 0.72553 0.0
H287 H 0.7134 0.28841 0.78122 0.0
H288 H 0.62957 0.28119 0.70823 0.0
H289 H 0.63491 0.27692 0.57894 0.0
C290 C 0.67654 0.27715 0.45335 0.0
C291 C 0.72807 0.27957 0.49762 0.0
C292 C 0.72453 0.28186 0.57325 0.0
C293 C 0.77303 0.28694 0.61544 0.0
C294 C 0.7678 0.28903 0.6908 0.0
C295 C 0.71652 0.28676 0.72355 0.0
C296 C 0.66932 0.28261 0.68245 0.0
C297 C 0.673 0.28016 0.60823 0.0
H298 H 0.92524 0.85141 0.47271 0.0
C299 C 0.92098 0.81891 0.44156 0.0
H300 H 0.86913 0.76067 0.41511 0.0
H301 H 0.75439 0.8278 0.7216 0.0
H302 H 0.84062 0.80786 0.778 0.0
H303 H 0.92069 0.78556 0.70563 0.0
H304 H 0.91549 0.78408 0.57624 0.0
C305 C 0.87463 0.79208 0.44837 0.0
C306 C 0.82665 0.80639 0.49382 0.0
C307 C 0.8299 0.80625 0.56971 0.0
C308 C 0.78281 0.81722 0.61185 0.0
C309 C 0.7881 0.81824 0.6872 0.0
C310 C 0.83747 0.80709 0.72029 0.0
C311 C 0.88262 0.79471 0.6795 0.0
C312 C 0.87914 0.79423 0.60515 0.0
H313 H 0.67596 0.76467 0.6593 0.0
C314 C 0.65705 0.79964 0.66046 0.0
H315 H 0.66233 0.8704 0.62048 0.0
H316 H 0.80537 0.81078 0.35036 0.0
H317 H 0.71812 0.82754 0.2944 0.0
H318 H 0.63649 0.8446 0.36727 0.0
H319 H 0.64151 0.84483 0.49677 0.0
C320 C 0.68103 0.83541 0.62253 0.0
C321 C 0.73173 0.82691 0.57851 0.0
C322 C 0.72863 0.82737 0.50273 0.0
C323 C 0.77584 0.81707 0.46056 0.0
C324 C 0.77091 0.81769 0.38508 0.0
C325 C 0.72107 0.82745 0.35216 0.0
C326 C 0.67512 0.83708 0.3932 0.0
C327 C 0.6786 0.83713 0.46753 0.0
H328 H 0.34255 0.86544 0.86425 0.0
C329 C 0.37737 0.88963 0.87195 0.0
H330 H 0.40869 0.94752 0.93087 0.0
H331 H 0.13845 0.90316 0.99313 0.0
H332 H 0.12199 0.94133 0.87816 0.0
H333 H 0.19911 0.97194 0.80456 0.0
H334 H 0.29336 0.96496 0.84619 0.0
C335 C 0.37273 0.92575 0.91826 0.0
C336 C 0.32663 0.92323 0.97022 0.0
C337 C 0.27211 0.92831 0.94614 0.0
C338 C 0.22792 0.91032 0.98836 0.0
C339 C 0.1737 0.91557 0.96267 0.0
C340 C 0.16369 0.93757 0.89696 0.0
C341 C 0.20711 0.95483 0.85551 0.0
C342 C 0.26084 0.95037 0.87963 0.0
H343 H 0.19328 0.90369 0.18263 0.0
C344 C 0.17414 0.87366 0.15515 0.0
H345 H 0.1725 0.83227 0.06136 0.0
H346 H 0.42582 0.91787 0.03885 0.0
H347 H 0.44283 0.88119 0.15413 0.0
H348 H 0.36703 0.8452 0.22447 0.0
H349 H 0.27394 0.84622 0.18034 0.0
C350 C 0.1932 0.86051 0.09104 0.0
C351 C 0.23858 0.88694 0.05435 0.0
C352 C 0.29292 0.88568 0.08139 0.0
C353 C 0.33689 0.90507 0.03986 0.0
C354 C 0.3909 0.90316 0.06755 0.0
C355 C 0.4013 0.88224 0.13381 0.0
C356 C 0.35862 0.8621 0.17347 0.0
C357 C 0.30511 0.86335 0.14764 0.0
H358 H 0.20443 0.26937 0.93968 0.0
C359 C 0.1735 0.24221 0.92737 0.0
H360 H 0.1423 0.17315 0.95342 0.0
H361 H 0.38459 0.13573 0.079 0.0
H362 H 0.37159 0.06593 1.00244 0.0
H363 H 0.28717 0.05575 0.93109 0.0
H364 H 0.21381 0.1141 0.93824 0.0
C365 C 0.17398 0.20015 0.96237 0.0
C366 C 0.21401 0.19385 1.02115 0.0
C367 C 0.25578 0.15978 1.01554 0.0
C368 C 0.30479 0.16623 0.05539 0.0
C369 C 0.34681 0.13235 0.04893 0.0
C370 C 0.33986 0.09247 1.00523 0.0
C371 C 0.29212 0.08659 0.96527 0.0
C372 C 0.25054 0.12016 0.96956 0.0
H373 H 0.36866 0.20046 0.22283 0.0
C374 C 0.38892 0.22164 0.18134 0.0
H375 H 0.38793 0.24467 0.07382 0.0
H376 H 0.13078 0.25024 0.06686 0.0
H377 H 0.13781 0.31333 0.15597 0.0
H378 H 0.225 0.32857 0.21953 0.0
H379 H 0.30497 0.28043 0.19574 0.0
C380 C 0.36663 0.22518 0.11625 0.0
C381 C 0.31109 0.20675 0.09966 0.0
C382 C 0.26525 0.2353 0.11519 0.0
C383 C 0.21584 0.22778 0.07702 0.0
C384 C 0.16983 0.25598 0.09322 0.0
C385 C 0.17328 0.29189 0.14435 0.0
C386 C 0.22236 0.30042 0.18018 0.0
C387 C 0.26802 0.27261 0.1659 0.0
H388 H 0.66251 0.43086 0.1308 0.0
C389 C 0.65323 0.39373 0.11801 0.0
H390 H 0.66996 0.33566 0.05083 0.0
H391 H 0.78629 0.41844 0.79017 0.0
H392 H 0.6966 0.39888 0.73905 0.0
H393 H 0.61754 0.37998 0.81744 0.0
H394 H 0.62751 0.38014 0.94699 0.0
C395 C 0.6806 0.37216 0.06564 0.0
C396 C 0.72248 0.39738 1.02148 0.0
C397 C 0.71477 0.39945 0.94634 0.0
C398 C 0.75976 0.41095 0.90112 0.0
C399 C 0.75266 0.41003 0.82621 0.0
C400 C 0.70162 0.39913 0.79655 0.0
C401 C 0.6571 0.38845 0.84072 0.0
C402 C 0.66338 0.38846 0.91484 0.0
H403 H 0.85966 0.33996 0.94125 0.0
C404 C 0.88141 0.36401 0.90457 0.0
H405 H 0.88148 0.43312 0.85593 0.0
H406 H 0.75168 0.40159 0.16461 0.0
H407 H 0.83824 0.43004 0.21198 0.0
H408 H 0.91291 0.45701 0.13139 0.0
H409 H 0.90098 0.4544 1.00188 0.0
C410 C 0.86103 0.40745 0.89114 0.0
C411 C 0.81151 0.42081 0.93135 0.0
C412 C 0.8167 0.42713 1.00588 0.0
C413 C 0.7728 0.41358 0.05179 0.0
C414 C 0.78212 0.41383 0.12658 0.0
C415 C 0.83208 0.42969 0.15468 0.0
C416 C 0.8742 0.44474 0.10936 0.0
C417 C 0.86696 0.4431 1.03561 0.0
H418 H 0.87261 0.69663 0.17743 0.0
C419 C 0.88591 0.73195 0.15915 0.0
H420 H 0.87411 0.78742 0.0842 0.0
H421 H 0.7505 0.6841 0.84301 0.0
H422 H 0.83958 0.69922 0.78684 0.0
H423 H 0.91892 0.72601 0.85891 0.0
H424 H 0.90981 0.73841 0.98692 0.0
C425 C 0.85952 0.75321 0.10532 0.0
C426 C 0.81531 0.72801 0.06597 0.0
C427 C 0.8226 0.71885 0.99205 0.0
C428 C 0.77747 0.70273 0.9506 0.0
C429 C 0.78418 0.69626 0.87628 0.0
C430 C 0.8349 0.70457 0.84377 0.0
C431 C 0.87957 0.71968 0.88438 0.0
C432 C 0.87375 0.72682 0.9577 0.0
H433 H 0.67501 0.77524 0.98186 0.0
C434 C 0.65543 0.74942 0.94635 0.0
H435 H 0.65889 0.67864 0.90548 0.0
H436 H 0.78676 0.73924 0.20808 0.0
H437 H 0.70035 0.71602 0.26276 0.0
H438 H 0.62546 0.68071 0.19057 0.0
H439 H 0.63682 0.6699 0.06197 0.0
C440 C 0.67645 0.7056 0.94054 0.0
C441 C 0.7259 0.69578 0.98331 0.0
C442 C 0.72102 0.69724 0.05851 0.0
C443 C 0.76504 0.7154 0.10011 0.0
C444 C 0.7561 0.72301 0.17404 0.0
C445 C 0.70628 0.71028 0.20611 0.0
C446 C 0.66405 0.69057 0.16548 0.0
C447 C 0.67095 0.6845 0.09222 0.0
loop_
_geom_bond_atom_site_label_1
_geom_bond_atom_site_label_2
_geom_bond_distance
_geom_bond_site_symmetry_2
_ccdc_geom_bond_type
Fe0 O2 1.918 . S
Fe0 O5 1.997 . S
Fe0 O6 2.002 . S
Fe0 O11 1.976 . S
Fe0 O14 1.996 . S
Fe1 O2 1.918 1_655 S
Fe1 O9 1.997 1_655 S
Fe1 O12 1.996 . S
Fe1 O16 1.976 . S
Fe1 O19 2.002 1_655 S
O2 Fe0 1.918 . S
O2 Fe1 1.918 1_455 S
O2 Fe3 1.918 . S
Fe3 O2 1.918 . S
Fe3 O4 2.002 . S
Fe3 O13 1.976 . S
Fe3 O17 1.996 1_455 S
Fe3 O20 1.997 . S
O4 Fe3 2.002 . S
O4 C21 1.295 . S
O5 Fe0 1.997 . S
O5 C21 1.235 . S
O6 Fe0 2.002 . S
O6 C7 1.295 . S
C7 O6 1.295 . S
C7 O9 1.235 . S
C8 O13 1.287 . S
C8 O14 1.255 . S
O9 Fe1 1.997 1_455 S
O9 C7 1.235 . S
C10 O16 1.287 . S
C10 O17 1.255 . S
O11 Fe0 1.976 . S
O11 C18 1.287 1_455 S
O12 Fe1 1.996 . S
O12 C18 1.255 . S
O13 Fe3 1.976 . S
O13 C8 1.287 . S
O14 Fe0 1.996 . S
O14 C8 1.255 . S
C15 O19 1.295 . S
C15 O20 1.235 . S
O16 Fe1 1.976 . S
O16 C10 1.287 . S
O17 Fe3 1.996 1_655 S
O17 C10 1.255 . S
C18 O11 1.287 1_655 S
C18 O12 1.255 . S
O19 Fe1 2.002 1_455 S
O19 C15 1.295 . S
O20 Fe3 1.997 . S
O20 C15 1.235 . S
C21 O4 1.295 . S
C21 O5 1.235 . S
Fe22 O24 1.918 . S
Fe22 O27 1.997 . S
Fe22 O28 2.002 . S
Fe22 O33 1.976 . S
Fe22 O36 1.996 . S
Fe23 O24 1.918 . S
Fe23 O31 1.997 . S
Fe23 O34 1.996 . S
Fe23 O38 1.976 . S
Fe23 O41 2.002 . S
O24 Fe22 1.918 . S
O24 Fe23 1.918 . S
O24 Fe25 1.918 . S
Fe25 O24 1.918 . S
Fe25 O26 2.002 . S
Fe25 O35 1.976 . S
Fe25 O39 1.996 . S
Fe25 O42 1.997 . S
O26 Fe25 2.002 . S
O26 C43 1.295 . S
O27 Fe22 1.997 . S
O27 C43 1.235 . S
O28 Fe22 2.002 . S
O28 C29 1.295 . S
C29 O28 1.295 . S
C29 O31 1.235 . S
C30 O35 1.287 . S
C30 O36 1.255 . S
O31 Fe23 1.997 . S
O31 C29 1.235 . S
C32 O38 1.287 . S
C32 O39 1.255 . S
O33 Fe22 1.976 . S
O33 C40 1.287 . S
O34 Fe23 1.996 . S
O34 C40 1.255 . S
O35 Fe25 1.976 . S
O35 C30 1.287 . S
O36 Fe22 1.996 . S
O36 C30 1.255 . S
C37 O41 1.295 . S
C37 O42 1.235 . S
O38 Fe23 1.976 . S
O38 C32 1.287 . S
O39 Fe25 1.996 . S
O39 C32 1.255 . S
C40 O33 1.287 . S
C40 O34 1.255 . S
O41 Fe23 2.002 . S
O41 C37 1.295 . S
O42 Fe25 1.997 . S
O42 C37 1.235 . S
C43 O26 1.295 . S
C43 O27 1.235 . S
Fe44 O46 1.918 . S
Fe44 O49 1.997 . S
Fe44 O50 2.002 1_455 S
Fe44 O55 1.976 . S
Fe44 O58 1.996 . S
Fe45 O46 1.918 1_655 S
Fe45 O53 1.997 . S
Fe45 O56 1.996 1_655 S
Fe45 O60 1.976 1_655 S
Fe45 O63 2.002 . S
O46 Fe44 1.918 . S
O46 Fe45 1.918 1_455 S
O46 Fe47 1.918 . S
Fe47 O46 1.918 . S
Fe47 O48 2.002 . S
Fe47 O57 1.976 . S
Fe47 O61 1.996 . S
Fe47 O64 1.997 . S
O48 Fe47 2.002 . S
O48 C65 1.295 . S
O49 Fe44 1.997 . S
O49 C65 1.235 . S
O50 Fe44 2.002 1_655 S
O50 C51 1.295 . S
C51 O50 1.295 . S
C51 O53 1.235 . S
C52 O57 1.287 . S
C52 O58 1.255 . S
O53 Fe45 1.997 . S
O53 C51 1.235 . S
C54 O60 1.287 . S
C54 O61 1.255 . S
O55 Fe44 1.976 . S
O55 C62 1.287 . S
O56 Fe45 1.996 1_455 S
O56 C62 1.255 . S
O57 Fe47 1.976 . S
O57 C52 1.287 . S
O58 Fe44 1.996 . S
O58 C52 1.255 . S
C59 O63 1.295 . S
C59 O64 1.235 1_655 S
O60 Fe45 1.976 1_455 S
O60 C54 1.287 . S
O61 Fe47 1.996 . S
O61 C54 1.255 . S
C62 O55 1.287 . S
C62 O56 1.255 . S
O63 Fe45 2.002 . S
O63 C59 1.295 . S
O64 Fe47 1.997 . S
O64 C59 1.235 1_455 S
C65 O48 1.295 . S
C65 O49 1.235 . S
Fe66 O68 1.918 . S
Fe66 O71 1.997 . S
Fe66 O72 2.002 . S
Fe66 O77 1.976 . S
Fe66 O80 1.996 . S
Fe67 O68 1.918 . S
Fe67 O75 1.997 . S
Fe67 O78 1.996 . S
Fe67 O82 1.976 . S
Fe67 O85 2.002 . S
O68 Fe66 1.918 . S
O68 Fe67 1.918 . S
O68 Fe69 1.918 . S
Fe69 O68 1.918 . S
Fe69 O70 2.002 . S
Fe69 O79 1.976 . S
Fe69 O83 1.996 . S
Fe69 O86 1.997 . S
O70 Fe69 2.002 . S
O70 C87 1.295 . S
O71 Fe66 1.997 . S
O71 C87 1.235 . S
O72 Fe66 2.002 . S
O72 C73 1.295 . S
C73 O72 1.295 . S
C73 O75 1.235 . S
C74 O79 1.287 . S
C74 O80 1.255 . S
O75 Fe67 1.997 . S
O75 C73 1.235 . S
C76 O82 1.287 . S
C76 O83 1.255 . S
O77 Fe66 1.976 . S
O77 C84 1.287 . S
O78 Fe67 1.996 . S
O78 C84 1.255 . S
O79 Fe69 1.976 . S
O79 C74 1.287 . S
O80 Fe66 1.996 . S
O80 C74 1.255 . S
C81 O85 1.295 . S
C81 O86 1.235 . S
O82 Fe67 1.976 . S
O82 C76 1.287 . S
O83 Fe69 1.996 . S
O83 C76 1.255 . S
C84 O77 1.287 . S
C84 O78 1.255 . S
O85 Fe67 2.002 . S
O85 C81 1.295 . S
O86 Fe69 1.997 . S
O86 C81 1.235 . S
C87 O70 1.295 . S
C87 O71 1.235 . S
H88 C89 0.951 . S
C89 H88 0.951 . S
C89 C95 1.265 . S
H90 C95 0.950 1_655 S
H91 C99 0.949 . S
H92 C100 0.950 . S
H93 C101 0.951 . S
H94 C102 0.951 . S
C95 C89 1.265 . S
C95 H90 0.950 1_455 S
C95 C96 1.478 . S
C96 C95 1.478 . S
C96 C97 1.397 1_556 S
C96 C113 1.394 . S
C97 C96 1.397 1_554 S
C97 C98 1.438 . S
C97 C102 1.429 1_455 S
C98 C97 1.438 . S
C98 C99 1.428 1_455 S
C98 C111 1.394 . S
C99 H91 0.949 . S
C99 C98 1.428 1_655 S
C99 C100 1.345 . S
C100 H92 0.950 . S
C100 C99 1.345 . S
C100 C101 1.424 . S
C101 H93 0.951 . S
C101 C100 1.424 . S
C101 C102 1.347 . S
C102 H94 0.951 . S
C102 C97 1.429 1_655 S
C102 C101 1.347 . S
H103 C104 0.950 1_655 S
C104 H103 0.950 1_455 S
C104 C110 1.265 . S
H105 C110 0.950 . S
H106 C114 0.949 . S
H107 C115 0.950 . S
H108 C116 0.951 . S
H109 C117 0.951 . S
C110 C104 1.265 . S
C110 H105 0.950 . S
C110 C111 1.478 . S
C111 C98 1.394 . S
C111 C110 1.478 . S
C111 C112 1.397 1_554 S
C112 C111 1.397 1_556 S
C112 C113 1.438 . S
C112 C117 1.429 . S
C113 C96 1.394 . S
C113 C112 1.438 . S
C113 C114 1.428 . S
C114 H106 0.949 . S
C114 C113 1.428 . S
C114 C115 1.345 . S
C115 H107 0.950 . S
C115 C114 1.345 . S
C115 C116 1.424 . S
C116 H108 0.951 . S
C116 C115 1.424 . S
C116 C117 1.347 . S
C117 H109 0.951 . S
C117 C112 1.429 . S
C117 C116 1.347 . S
H118 C119 0.951 . S
C119 H118 0.951 . S
C119 C125 1.265 . S
H120 C125 0.950 . S
H121 C129 0.949 . S
H122 C130 0.950 . S
H123 C131 0.951 . S
H124 C132 0.951 . S
C125 C119 1.265 . S
C125 H120 0.950 . S
C125 C126 1.478 . S
C126 C125 1.478 . S
C126 C127 1.397 . S
C126 C143 1.394 1_554 S
C127 C126 1.397 . S
C127 C128 1.438 . S
C127 C132 1.429 . S
C128 C127 1.438 . S
C128 C129 1.428 . S
C128 C141 1.394 1_554 S
C129 H121 0.949 . S
C129 C128 1.428 . S
C129 C130 1.345 . S
C130 H122 0.950 . S
C130 C129 1.345 . S
C130 C131 1.424 . S
C131 H123 0.951 . S
C131 C130 1.424 . S
C131 C132 1.347 . S
C132 H124 0.951 . S
C132 C127 1.429 . S
C132 C131 1.347 . S
H133 C134 0.951 . S
C134 H133 0.951 . S
C134 C140 1.265 . S
H135 C140 0.950 . S
H136 C144 0.949 . S
H137 C145 0.950 . S
H138 C146 0.951 . S
H139 C147 0.951 . S
C140 C134 1.265 . S
C140 H135 0.950 . S
C140 C141 1.478 . S
C141 C128 1.394 1_556 S
C141 C140 1.478 . S
C141 C142 1.397 . S
C142 C141 1.397 . S
C142 C143 1.438 . S
C142 C147 1.429 . S
C143 C126 1.394 1_556 S
C143 C142 1.438 . S
C143 C144 1.428 . S
C144 H136 0.949 . S
C144 C143 1.428 . S
C144 C145 1.345 . S
C145 H137 0.950 . S
C145 C144 1.345 . S
C145 C146 1.424 . S
C146 H138 0.951 . S
C146 C145 1.424 . S
C146 C147 1.347 . S
C147 H139 0.951 . S
C147 C142 1.429 . S
C147 C146 1.347 . S
H148 C149 0.951 . S
C149 H148 0.951 . S
C149 C155 1.265 . S
H150 C155 0.950 . S
H151 C159 0.949 . S
H152 C160 0.950 . S
H153 C161 0.951 . S
H154 C162 0.951 . S
C155 C149 1.265 . S
C155 H150 0.950 . S
C155 C156 1.478 . S
C156 C155 1.478 . S
C156 C157 1.397 1_556 S
C156 C173 1.394 . S
C157 C156 1.397 1_554 S
C157 C158 1.438 1_565 S
C157 C162 1.429 . S
C158 C157 1.438 1_545 S
C158 C159 1.428 . S
C158 C171 1.394 . S
C159 H151 0.949 . S
C159 C158 1.428 . S
C159 C160 1.345 1_545 S
C160 H152 0.950 . S
C160 C159 1.345 1_565 S
C160 C161 1.424 . S
C161 H153 0.951 . S
C161 C160 1.424 . S
C161 C162 1.347 . S
C162 H154 0.951 . S
C162 C157 1.429 . S
C162 C161 1.347 . S
H163 C164 0.951 . S
C164 H163 0.951 . S
C164 C170 1.265 . S
H165 C170 0.950 . S
H166 C174 0.949 . S
H167 C175 0.950 . S
H168 C176 0.951 . S
H169 C177 0.951 . S
C170 C164 1.265 . S
C170 H165 0.950 . S
C170 C171 1.478 . S
C171 C158 1.394 . S
C171 C170 1.478 . S
C171 C172 1.397 1_554 S
C172 C171 1.397 1_556 S
C172 C173 1.438 1_545 S
C172 C177 1.429 . S
C173 C156 1.394 . S
C173 C172 1.438 1_565 S
C173 C174 1.428 . S
C174 H166 0.949 . S
C174 C173 1.428 . S
C174 C175 1.345 1_565 S
C175 H167 0.950 . S
C175 C174 1.345 1_545 S
C175 C176 1.424 . S
C176 H168 0.951 . S
C176 C175 1.424 . S
C176 C177 1.347 . S
C177 H169 0.951 . S
C177 C172 1.429 . S
C177 C176 1.347 . S
H178 C179 0.951 1_655 S
C179 H178 0.951 1_455 S
C179 C185 1.265 . S
H180 C185 0.950 . S
H181 C189 0.949 . S
H182 C190 0.950 . S
H183 C191 0.951 . S
H184 C192 0.951 . S
C185 C179 1.265 . S
C185 H180 0.950 . S
C185 C186 1.478 . S
C186 C185 1.478 . S
C186 C187 1.397 1_554 S
C186 C203 1.394 . S
C187 C186 1.397 1_556 S
C187 C188 1.438 1_465 S
C187 C192 1.429 1_455 S
C188 C187 1.438 1_645 S
C188 C189 1.428 . S
C188 C201 1.394 1_655 S
C189 H181 0.949 . S
C189 C188 1.428 . S
C189 C190 1.345 1_545 S
C190 H182 0.950 . S
C190 C189 1.345 1_565 S
C190 C191 1.424 . S
C191 H183 0.951 . S
C191 C190 1.424 . S
C191 C192 1.347 . S
C192 H184 0.951 . S
C192 C187 1.429 1_655 S
C192 C191 1.347 . S
H193 C194 0.951 . S
C194 H193 0.951 . S
C194 C200 1.265 1_455 S
H195 C200 0.950 . S
H196 C204 0.949 . S
H197 C205 0.950 . S
H198 C206 0.951 . S
H199 C207 0.951 . S
C200 C194 1.265 1_655 S
C200 H195 0.950 . S
C200 C201 1.478 1_655 S
C201 C188 1.394 1_455 S
C201 C200 1.478 1_455 S
C201 C202 1.397 1_556 S
C202 C201 1.397 1_554 S
C202 C203 1.438 1_545 S
C202 C207 1.429 . S
C203 C186 1.394 . S
C203 C202 1.438 1_565 S
C203 C204 1.428 . S
C204 H196 0.949 . S
C204 C203 1.428 . S
C204 C205 1.345 1_565 S
C205 H197 0.950 . S
C205 C204 1.345 1_545 S
C205 C206 1.424 . S
C206 H198 0.951 . S
C206 C205 1.424 . S
C206 C207 1.347 . S
C207 H199 0.951 . S
C207 C202 1.429 . S
C207 C206 1.347 . S
H208 C209 0.951 . S
C209 H208 0.951 . S
C209 C215 1.265 . S
H210 C215 0.950 . S
H211 C219 0.949 . S
H212 C220 0.950 . S
H213 C221 0.951 . S
H214 C222 0.951 . S
C215 C209 1.265 . S
C215 H210 0.950 . S
C215 C216 1.478 . S
C216 C215 1.478 . S
C216 C217 1.397 . S
C216 C233 1.394 . S
C217 C216 1.397 . S
C217 C218 1.438 . S
C217 C222 1.429 . S
C218 C217 1.438 . S
C218 C219 1.428 . S
C218 C231 1.394 . S
C219 H211 0.949 . S
C219 C218 1.428 . S
C219 C220 1.345 . S
C220 H212 0.950 . S
C220 C219 1.345 . S
C220 C221 1.424 . S
C221 H213 0.951 . S
C221 C220 1.424 . S
C221 C222 1.347 . S
C222 H214 0.951 . S
C222 C217 1.429 . S
C222 C221 1.347 . S
H223 C224 0.951 . S
C224 H223 0.951 . S
C224 C230 1.265 . S
H225 C230 0.950 . S
H226 C234 0.949 . S
H227 C235 0.950 . S
H228 C236 0.951 . S
H229 C237 0.951 . S
C230 C224 1.265 . S
C230 H225 0.950 . S
C230 C231 1.478 . S
C231 C218 1.394 . S
C231 C230 1.478 . S
C231 C232 1.397 . S
C232 C231 1.397 . S
C232 C233 1.438 . S
C232 C237 1.429 . S
C233 C216 1.394 . S
C233 C232 1.438 . S
C233 C234 1.428 . S
C234 H226 0.949 . S
C234 C233 1.428 . S
C234 C235 1.345 . S
C235 H227 0.950 . S
C235 C234 1.345 . S
C235 C236 1.424 . S
C236 H228 0.951 . S
C236 C235 1.424 . S
C236 C237 1.347 . S
C237 H229 0.951 . S
C237 C232 1.429 . S
C237 C236 1.347 . S
H238 C239 0.951 . S
C239 H238 0.951 . S
C239 C245 1.265 . S
H240 C245 0.950 . S
H241 C249 0.949 . S
H242 C250 0.950 . S
H243 C251 0.951 . S
H244 C252 0.951 . S
C245 C239 1.265 . S
C245 H240 0.950 . S
C245 C246 1.478 . S
C246 C245 1.478 . S
C246 C247 1.397 . S
C246 C263 1.394 . S
C247 C246 1.397 . S
C247 C248 1.438 . S
C247 C252 1.429 . S
C248 C247 1.438 . S
C248 C249 1.428 . S
C248 C261 1.394 . S
C249 H241 0.949 . S
C249 C248 1.428 . S
C249 C250 1.345 . S
C250 H242 0.950 . S
C250 C249 1.345 . S
C250 C251 1.424 . S
C251 H243 0.951 . S
C251 C250 1.424 . S
C251 C252 1.347 . S
C252 H244 0.951 . S
C252 C247 1.429 . S
C252 C251 1.347 . S
H253 C254 0.951 . S
C254 H253 0.951 . S
C254 C260 1.265 . S
H255 C260 0.950 . S
H256 C264 0.949 . S
H257 C265 0.950 . S
H258 C266 0.951 . S
H259 C267 0.951 . S
C260 C254 1.265 . S
C260 H255 0.950 . S
C260 C261 1.478 . S
C261 C248 1.394 . S
C261 C260 1.478 . S
C261 C262 1.397 . S
C262 C261 1.397 . S
C262 C263 1.438 . S
C262 C267 1.429 . S
C263 C246 1.394 . S
C263 C262 1.438 . S
C263 C264 1.428 . S
C264 H256 0.949 . S
C264 C263 1.428 . S
C264 C265 1.345 . S
C265 H257 0.950 . S
C265 C264 1.345 . S
C265 C266 1.424 . S
C266 H258 0.951 . S
C266 C265 1.424 . S
C266 C267 1.347 . S
C267 H259 0.951 . S
C267 C262 1.429 . S
C267 C266 1.347 . S
H268 C269 0.951 . S
C269 H268 0.951 . S
C269 C275 1.265 . S
H270 C275 0.950 . S
H271 C279 0.949 . S
H272 C280 0.950 . S
H273 C281 0.951 . S
H274 C282 0.951 . S
C275 C269 1.265 . S
C275 H270 0.950 . S
C275 C276 1.478 . S
C276 C275 1.478 . S
C276 C277 1.397 . S
C276 C293 1.394 . S
C277 C276 1.397 . S
C277 C278 1.438 . S
C277 C282 1.429 . S
C278 C277 1.438 . S
C278 C279 1.428 . S
C278 C291 1.394 . S
C279 H271 0.949 . S
C279 C278 1.428 . S
C279 C280 1.345 . S
C280 H272 0.950 . S
C280 C279 1.345 . S
C280 C281 1.424 . S
C281 H273 0.951 . S
C281 C280 1.424 . S
C281 C282 1.347 . S
C282 H274 0.951 . S
C282 C277 1.429 . S
C282 C281 1.347 . S
H283 C284 0.951 . S
C284 H283 0.951 . S
C284 C290 1.265 . S
H285 C290 0.950 . S
H286 C294 0.949 . S
H287 C295 0.950 . S
H288 C296 0.951 . S
H289 C297 0.951 . S
C290 C284 1.265 . S
C290 H285 0.950 . S
C290 C291 1.478 . S
C291 C278 1.394 . S
C291 C290 1.478 . S
C291 C292 1.397 . S
C292 C291 1.397 . S
C292 C293 1.438 . S
C292 C297 1.429 . S
C293 C276 1.394 . S
C293 C292 1.438 . S
C293 C294 1.428 . S
C294 H286 0.949 . S
C294 C293 1.428 . S
C294 C295 1.345 . S
C295 H287 0.950 . S
C295 C294 1.345 . S
C295 C296 1.424 . S
C296 H288 0.951 . S
C296 C295 1.424 . S
C296 C297 1.347 . S
C297 H289 0.951 . S
C297 C292 1.429 . S
C297 C296 1.347 . S
H298 C299 0.951 . S
C299 H298 0.951 . S
C299 C305 1.265 . S
H300 C305 0.950 . S
H301 C309 0.949 . S
H302 C310 0.950 . S
H303 C311 0.951 . S
H304 C312 0.951 . S
C305 C299 1.265 . S
C305 H300 0.950 . S
C305 C306 1.478 . S
C306 C305 1.478 . S
C306 C307 1.397 . S
C306 C323 1.394 . S
C307 C306 1.397 . S
C307 C308 1.438 . S
C307 C312 1.429 . S
C308 C307 1.438 . S
C308 C309 1.428 . S
C308 C321 1.394 . S
C309 H301 0.949 . S
C309 C308 1.428 . S
C309 C310 1.345 . S
C310 H302 0.950 . S
C310 C309 1.345 . S
C310 C311 1.424 . S
C311 H303 0.951 . S
C311 C310 1.424 . S
C311 C312 1.347 . S
C312 H304 0.951 . S
C312 C307 1.429 . S
C312 C311 1.347 . S
H313 C314 0.951 . S
C314 H313 0.951 . S
C314 C320 1.265 . S
H315 C320 0.950 . S
H316 C324 0.949 . S
H317 C325 0.950 . S
H318 C326 0.951 . S
H319 C327 0.951 . S
C320 C314 1.265 . S
C320 H315 0.950 . S
C320 C321 1.478 . S
C321 C308 1.394 . S
C321 C320 1.478 . S
C321 C322 1.397 . S
C322 C321 1.397 . S
C322 C323 1.438 . S
C322 C327 1.429 . S
C323 C306 1.394 . S
C323 C322 1.438 . S
C323 C324 1.428 . S
C324 H316 0.949 . S
C324 C323 1.428 . S
C324 C325 1.345 . S
C325 H317 0.950 . S
C325 C324 1.345 . S
C325 C326 1.424 . S
C326 H318 0.951 . S
C326 C325 1.424 . S
C326 C327 1.347 . S
C327 H319 0.951 . S
C327 C322 1.429 . S
C327 C326 1.347 . S
H328 C329 0.951 . S
C329 H328 0.951 . S
C329 C335 1.265 . S
H330 C335 0.950 . S
H331 C339 0.949 . S
H332 C340 0.950 1_554 S
H333 C341 0.951 . S
H334 C342 0.951 . S
C335 C329 1.265 . S
C335 H330 0.950 . S
C335 C336 1.478 . S
C336 C335 1.478 . S
C336 C337 1.397 . S
C336 C353 1.394 . S
C337 C336 1.397 . S
C337 C338 1.438 1_556 S
C337 C342 1.429 . S
C338 C337 1.438 1_554 S
C338 C339 1.428 . S
C338 C351 1.394 . S
C339 H331 0.949 . S
C339 C338 1.428 . S
C339 C340 1.345 1_554 S
C340 H332 0.950 1_556 S
C340 C339 1.345 1_556 S
C340 C341 1.424 . S
C341 H333 0.951 . S
C341 C340 1.424 . S
C341 C342 1.347 . S
C342 H334 0.951 . S
C342 C337 1.429 . S
C342 C341 1.347 . S
H343 C344 0.951 . S
C344 H343 0.951 . S
C344 C350 1.265 . S
H345 C350 0.950 . S
H346 C354 0.949 . S
H347 C355 0.950 1_556 S
H348 C356 0.951 . S
H349 C357 0.951 . S
C350 C344 1.265 . S
C350 H345 0.950 . S
C350 C351 1.478 . S
C351 C338 1.394 . S
C351 C350 1.478 . S
C351 C352 1.397 . S
C352 C351 1.397 . S
C352 C353 1.438 1_554 S
C352 C357 1.429 . S
C353 C336 1.394 . S
C353 C352 1.438 1_556 S
C353 C354 1.428 . S
C354 H346 0.949 . S
C354 C353 1.428 . S
C354 C355 1.345 1_556 S
C355 H347 0.950 1_554 S
C355 C354 1.345 1_554 S
C355 C356 1.424 . S
C356 H348 0.951 . S
C356 C355 1.424 . S
C356 C357 1.347 . S
C357 H349 0.951 . S
C357 C352 1.429 . S
C357 C356 1.347 . S
H358 C359 0.951 . S
C359 H358 0.951 . S
C359 C365 1.265 . S
H360 C365 0.950 . S
H361 C369 0.949 . S
H362 C370 0.950 . S
H363 C371 0.951 . S
H364 C372 0.951 . S
C365 C359 1.265 . S
C365 H360 0.950 . S
C365 C366 1.478 . S
C366 C365 1.478 . S
C366 C367 1.397 . S
C366 C383 1.394 . S
C367 C366 1.397 . S
C367 C368 1.438 1_556 S
C367 C372 1.429 . S
C368 C367 1.438 1_554 S
C368 C369 1.428 . S
C368 C381 1.394 . S
C369 H361 0.949 . S
C369 C368 1.428 . S
C369 C370 1.345 . S
C370 H362 0.950 . S
C370 C369 1.345 . S
C370 C371 1.424 1_554 S
C371 H363 0.951 . S
C371 C370 1.424 1_556 S
C371 C372 1.347 . S
C372 H364 0.951 . S
C372 C367 1.429 . S
C372 C371 1.347 . S
H373 C374 0.951 . S
C374 H373 0.951 . S
C374 C380 1.265 . S
H375 C380 0.950 . S
H376 C384 0.949 . S
H377 C385 0.950 . S
H378 C386 0.951 . S
H379 C387 0.951 . S
C380 C374 1.265 . S
C380 H375 0.950 . S
C380 C381 1.478 . S
C381 C368 1.394 . S
C381 C380 1.478 . S
C381 C382 1.397 . S
C382 C381 1.397 . S
C382 C383 1.438 1_554 S
C382 C387 1.429 . S
C383 C366 1.394 . S
C383 C382 1.438 1_556 S
C383 C384 1.428 . S
C384 H376 0.949 . S
C384 C383 1.428 . S
C384 C385 1.345 . S
C385 H377 0.950 . S
C385 C384 1.345 . S
C385 C386 1.424 1_556 S
C386 H378 0.951 . S
C386 C385 1.424 1_554 S
C386 C387 1.347 . S
C387 H379 0.951 . S
C387 C382 1.429 . S
C387 C386 1.347 . S
H388 C389 0.951 . S
C389 H388 0.951 . S
C389 C395 1.265 . S
H390 C395 0.950 . S
H391 C399 0.949 . S
H392 C400 0.950 . S
H393 C401 0.951 . S
H394 C402 0.951 1_554 S
C395 C389 1.265 . S
C395 H390 0.950 . S
C395 C396 1.478 . S
C396 C395 1.478 . S
C396 C397 1.397 1_554 S
C396 C413 1.394 . S
C397 C396 1.397 1_556 S
C397 C398 1.438 . S
C397 C402 1.429 . S
C398 C397 1.438 . S
C398 C399 1.428 . S
C398 C411 1.394 . S
C399 H391 0.949 . S
C399 C398 1.428 . S
C399 C400 1.345 . S
C400 H392 0.950 . S
C400 C399 1.345 . S
C400 C401 1.424 . S
C401 H393 0.951 . S
C401 C400 1.424 . S
C401 C402 1.347 . S
C402 H394 0.951 1_556 S
C402 C397 1.429 . S
C402 C401 1.347 . S
H403 C404 0.951 . S
C404 H403 0.951 . S
C404 C410 1.265 . S
H405 C410 0.950 . S
H406 C414 0.949 . S
H407 C415 0.950 . S
H408 C416 0.951 . S
H409 C417 0.951 1_556 S
C410 C404 1.265 . S
C410 H405 0.950 . S
C410 C411 1.478 . S
C411 C398 1.394 . S
C411 C410 1.478 . S
C411 C412 1.397 1_556 S
C412 C411 1.397 1_554 S
C412 C413 1.438 . S
C412 C417 1.429 . S
C413 C396 1.394 . S
C413 C412 1.438 . S
C413 C414 1.428 . S
C414 H406 0.949 . S
C414 C413 1.428 . S
C414 C415 1.345 . S
C415 H407 0.950 . S
C415 C414 1.345 . S
C415 C416 1.424 . S
C416 H408 0.951 . S
C416 C415 1.424 . S
C416 C417 1.347 . S
C417 H409 0.951 1_554 S
C417 C412 1.429 . S
C417 C416 1.347 . S
H418 C419 0.951 . S
C419 H418 0.951 . S
C419 C425 1.265 . S
H420 C425 0.950 . S
H421 C429 0.949 . S
H422 C430 0.950 . S
H423 C431 0.951 . S
H424 C432 0.951 1_554 S
C425 C419 1.265 . S
C425 H420 0.950 . S
C425 C426 1.478 . S
C426 C425 1.478 . S
C426 C427 1.397 1_554 S
C426 C443 1.394 . S
C427 C426 1.397 1_556 S
C427 C428 1.438 . S
C427 C432 1.429 . S
C428 C427 1.438 . S
C428 C429 1.428 . S
C428 C441 1.394 . S
C429 H421 0.949 . S
C429 C428 1.428 . S
C429 C430 1.345 . S
C430 H422 0.950 . S
C430 C429 1.345 . S
C430 C431 1.424 . S
C431 H423 0.951 . S
C431 C430 1.424 . S
C431 C432 1.347 . S
C432 H424 0.951 1_556 S
C432 C427 1.429 . S
C432 C431 1.347 . S
H433 C434 0.951 . S
C434 H433 0.951 . S
C434 C440 1.265 . S
H435 C440 0.950 . S
H436 C444 0.949 . S
H437 C445 0.950 . S
H438 C446 0.951 . S
H439 C447 0.951 1_556 S
C440 C434 1.265 . S
C440 H435 0.950 . S
C440 C441 1.478 . S
C441 C428 1.394 . S
C441 C440 1.478 . S
C441 C442 1.397 1_556 S
C442 C441 1.397 1_554 S
C442 C443 1.438 . S
C442 C447 1.429 . S
C443 C426 1.394 . S
C443 C442 1.438 . S
C443 C444 1.428 . S
C444 H436 0.949 . S
C444 C443 1.428 . S
C444 C445 1.345 . S
C445 H437 0.950 . S
C445 C444 1.345 . S
C445 C446 1.424 . S
C446 H438 0.951 . S
C446 C445 1.424 . S
C446 C447 1.347 . S
C447 H439 0.951 1_554 S
C447 C442 1.429 . S
C447 C446 1.347 . S
C89 C62 1.592 . S
C104 C15 1.533 . S
C119 C40 1.564 . S
C134 C81 1.584 . S
C149 C74 1.596 . S
C164 C43 1.538 . S
C179 C8 1.594 . S
C194 C65 1.548 . S
C209 C73 2.214 . S
C224 C7 2.220 . S
C239 C54 2.165 . S
C254 C32 2.163 . S
C269 C59 2.206 . S
C284 C37 2.206 . S
C299 C18 2.142 . S
C314 C84 2.125 . S
C329 C87 0.272 . S
C344 C21 0.275 . S
C359 C52 0.408 . S
C374 C30 0.444 . S
C389 C29 0.527 . S
C404 C51 0.526 . S
C419 C10 0.437 . S
C434 C76 0.443 . S
