# Generated by pormake.
# Topology ukf, (4)-cn, num edge types: 1
# Building blocks:
#     Node 0, Type 0, BuildingBlock: QUQFOY_clean_sbu_1, # of connection points: 4
#     Node 1, Type 0, BuildingBlock: QUQFOY_clean_sbu_1, # of connection points: 4
#     Node 2, Type 0, BuildingBlock: QUQFOY_clean_sbu_1, # of connection points: 4
#     Node 3, Type 0, BuildingBlock: QUQFOY_clean_sbu_1, # of connection points: 4
#     Node 4, Type 0, BuildingBlock: QUQFOY_clean_sbu_1, # of connection points: 4
#     Node 5, Type 0, BuildingBlock: QUQFOY_clean_sbu_1, # of connection points: 4
#     Node 6, Type 0, BuildingBlock: QUQFOY_clean_sbu_1, # of connection points: 4
#     Node 7, Type 0, BuildingBlock: QUQFOY_clean_sbu_1, # of connection points: 4
#     Node 8, Type 0, BuildingBlock: QUQFOY_clean_sbu_1, # of connection points: 4
#     Node 9, Type 0, BuildingBlock: QUQFOY_clean_sbu_1, # of connection points: 4
#     Node 10, Type 0, BuildingBlock: QUQFOY_clean_sbu_1, # of connection points: 4
#     Node 11, Type 0, BuildingBlock: QUQFOY_clean_sbu_1, # of connection points: 4
#     Edge 12, Type (0, 0), BuildingBlock: KIFKEQ_clean_linker_1, # of connection points: 2
#     Edge 13, Type (0, 0), BuildingBlock: KIFKEQ_clean_linker_1, # of connection points: 2
#     Edge 14, Type (0, 0), BuildingBlock: KIFKEQ_clean_linker_1, # of connection points: 2
#     Edge 15, Type (0, 0), BuildingBlock: KIFKEQ_clean_linker_1, # of connection points: 2
#     Edge 16, Type (0, 0), BuildingBlock: KIFKEQ_clean_linker_1, # of connection points: 2
#     Edge 17, Type (0, 0), BuildingBlock: KIFKEQ_clean_linker_1, # of connection points: 2
#     Edge 18, Type (0, 0), BuildingBlock: KIFKEQ_clean_linker_1, # of connection points: 2
#     Edge 19, Type (0, 0), BuildingBlock: KIFKEQ_clean_linker_1, # of connection points: 2
#     Edge 20, Type (0, 0), BuildingBlock: KIFKEQ_clean_linker_1, # of connection points: 2
#     Edge 21, Type (0, 0), BuildingBlock: KIFKEQ_clean_linker_1, # of connection points: 2
#     Edge 22, Type (0, 0), BuildingBlock: KIFKEQ_clean_linker_1, # of connection points: 2
#     Edge 23, Type (0, 0), BuildingBlock: KIFKEQ_clean_linker_1, # of connection points: 2
#     Edge 24, Type (0, 0), BuildingBlock: KIFKEQ_clean_linker_1, # of connection points: 2
#     Edge 25, Type (0, 0), BuildingBlock: KIFKEQ_clean_linker_1, # of connection points: 2
#     Edge 26, Type (0, 0), BuildingBlock: KIFKEQ_clean_linker_1, # of connection points: 2
#     Edge 27, Type (0, 0), BuildingBlock: KIFKEQ_clean_linker_1, # of connection points: 2
#     Edge 28, Type (0, 0), BuildingBlock: KIFKEQ_clean_linker_1, # of connection points: 2
#     Edge 29, Type (0, 0), BuildingBlock: KIFKEQ_clean_linker_1, # of connection points: 2
#     Edge 30, Type (0, 0), BuildingBlock: KIFKEQ_clean_linker_1, # of connection points: 2
#     Edge 31, Type (0, 0), BuildingBlock: KIFKEQ_clean_linker_1, # of connection points: 2
#     Edge 32, Type (0, 0), BuildingBlock: KIFKEQ_clean_linker_1, # of connection points: 2
#     Edge 33, Type (0, 0), BuildingBlock: KIFKEQ_clean_linker_1, # of connection points: 2
#     Edge 34, Type (0, 0), BuildingBlock: KIFKEQ_clean_linker_1, # of connection points: 2
#     Edge 35, Type (0, 0), BuildingBlock: KIFKEQ_clean_linker_1, # of connection points: 2
# Relax obj value: 0.115
# Max RMSD: 0.130
# Mean RMSD: 0.130
data_MOF--net-ukf--node1-QUQFOY_clean_sbu_1--edge1-KIFKEQ_clean_linker_1
_symmetry_space_group_name_H-M    P1
_symmetry_Int_Tables_number       1
_symmetry_cell_setting            triclinic
loop_
_symmetry_equiv_pos_as_xyz
'x, y, z'
_cell_length_a     32.490002
_cell_length_b     32.460496
_cell_length_c     74.584178
_cell_angle_alpha  90.012373
_cell_angle_beta   90.044886
_cell_angle_gamma 120.00397
loop_
_atom_site_label
_atom_site_type_symbol
_atom_site_fract_x
_atom_site_fract_y
_atom_site_fract_z
_atom_type_partial_charge
O0 O 0.45997 0.31224 0.07178 0.0
Cd1 Cd 0.44469 0.2439 0.07769 0.0
Cd2 Cd 0.393 0.23204 0.04674 0.0
O3 O 0.40333 0.29915 0.05243 0.0
O4 O 0.47915 0.25562 0.10097 0.0
O5 O 0.40152 0.20929 0.09882 0.0
C6 C 0.43904 0.22948 0.10879 0.0
C7 C 0.3221 0.16445 0.03829 0.0
C8 C 0.43808 0.32763 0.06226 0.0
C9 C 0.47759 0.2187 0.04459 0.0
O10 O 0.45077 0.23043 0.03635 0.0
O11 O 0.47628 0.21562 0.0616 0.0
O12 O 0.34336 0.20068 0.02776 0.0
O13 O 0.33879 0.16847 0.05435 0.0
O14 O 0.15918 0.46361 0.40488 0.0
Cd15 Cd 0.20961 0.44442 0.41062 0.0
Cd16 Cd 0.1687 0.39294 0.38054 0.0
O17 O 0.11337 0.40508 0.38654 0.0
O18 O 0.23507 0.4756 0.43429 0.0
O19 O 0.19594 0.39763 0.43092 0.0
C20 C 0.21712 0.43404 0.44141 0.0
C21 C 0.16371 0.32087 0.37289 0.0
C22 C 0.12111 0.44124 0.39579 0.0
C23 C 0.26702 0.47496 0.37743 0.0
O24 O 0.22782 0.44935 0.3694 0.0
O25 O 0.26928 0.47334 0.39441 0.0
O26 O 0.1484 0.34153 0.36219 0.0
O27 O 0.17763 0.33892 0.38871 0.0
O28 O 0.69735 0.15409 0.73789 0.0
Cd29 Cd 0.76489 0.20781 0.74445 0.0
Cd30 Cd 0.77906 0.16872 0.71304 0.0
O31 O 0.71118 0.11249 0.71781 0.0
O32 O 0.75143 0.22881 0.76779 0.0
O33 O 0.7995 0.19953 0.76568 0.0
C34 C 0.7782 0.21563 0.77564 0.0
C35 C 0.84391 0.16244 0.70294 0.0
C36 C 0.6824 0.11782 0.72779 0.0
C37 C 0.79169 0.26746 0.71174 0.0
O38 O 0.78249 0.2297 0.7034 0.0
O39 O 0.79243 0.26844 0.72879 0.0
O40 O 0.80788 0.15177 0.69274 0.0
O41 O 0.84125 0.1725 0.71952 0.0
O42 O 0.54502 0.69857 0.07249 0.0
Cd43 Cd 0.56393 0.76811 0.07833 0.0
Cd44 Cd 0.61571 0.77889 0.04827 0.0
O45 O 0.60375 0.71142 0.05429 0.0
O46 O 0.53269 0.76203 0.102 0.0
O47 O 0.61059 0.80114 0.09869 0.0
C48 C 0.5742 0.78565 0.10917 0.0
C49 C 0.68736 0.84587 0.04016 0.0
C50 C 0.56749 0.68291 0.06345 0.0
C51 C 0.53327 0.79471 0.04512 0.0
O52 O 0.55907 0.78124 0.03718 0.0
O53 O 0.53481 0.79874 0.06211 0.0
O54 O 0.66638 0.8095 0.02966 0.0
O55 O 0.66997 0.84224 0.05606 0.0
O56 O 0.85682 0.5467 0.40477 0.0
Cd57 Cd 0.80331 0.56126 0.41062 0.0
Cd58 Cd 0.84311 0.61349 0.3798 0.0
O59 O 0.90011 0.60365 0.38551 0.0
O60 O 0.78079 0.52686 0.43391 0.0
O61 O 0.81146 0.60445 0.43173 0.0
C62 C 0.79449 0.56701 0.44172 0.0
C63 C 0.8464 0.68457 0.37161 0.0
C64 C 0.89411 0.56894 0.39529 0.0
C65 C 0.74564 0.52803 0.37737 0.0
O66 O 0.78412 0.5555 0.36922 0.0
O67 O 0.74367 0.52905 0.39438 0.0
O68 O 0.86145 0.66354 0.361 0.0
O69 O 0.83345 0.66743 0.38759 0.0
O70 O 0.31325 0.85266 0.7374 0.0
Cd71 Cd 0.24508 0.79992 0.7437 0.0
Cd72 Cd 0.23167 0.84024 0.71323 0.0
O73 O 0.29914 0.89655 0.71857 0.0
O74 O 0.2571 0.77716 0.76692 0.0
O75 O 0.21113 0.80892 0.76495 0.0
C76 C 0.23129 0.79142 0.77484 0.0
C77 C 0.16463 0.84503 0.70526 0.0
C78 C 0.32813 0.89003 0.72796 0.0
C79 C 0.21771 0.74204 0.71046 0.0
O80 O 0.22897 0.78071 0.7024 0.0
O81 O 0.21575 0.74011 0.7275 0.0
O82 O 0.20043 0.85952 0.69457 0.0
O83 O 0.16878 0.83187 0.72121 0.0
O84 O 0.69835 0.55766 0.61343 0.0
Cd85 Cd 0.765 0.56682 0.60846 0.0
Cd86 Cd 0.77714 0.61733 0.64091 0.0
O87 O 0.71011 0.60713 0.63575 0.0
O88 O 0.75135 0.53115 0.58537 0.0
O89 O 0.80253 0.60791 0.58723 0.0
C90 C 0.78006 0.57031 0.57741 0.0
C91 C 0.8446 0.68805 0.64956 0.0
C92 C 0.68276 0.57719 0.62413 0.0
C93 C 0.78729 0.53049 0.642 0.0
O94 O 0.77869 0.55911 0.65058 0.0
O95 O 0.78856 0.53116 0.62494 0.0
O96 O 0.80869 0.66606 0.66017 0.0
O97 O 0.84037 0.67211 0.63336 0.0
O98 O 0.15638 0.69624 0.94842 0.0
Cd99 Cd 0.20926 0.76409 0.94178 0.0
Cd100 Cd 0.17033 0.77857 0.97278 0.0
O101 O 0.11391 0.71079 0.96779 0.0
O102 O 0.23082 0.75098 0.9185 0.0
O103 O 0.20012 0.79789 0.92048 0.0
C104 C 0.21688 0.77707 0.91057 0.0
C105 C 0.16542 0.84523 0.98146 0.0
C106 C 0.1197 0.68159 0.95822 0.0
C107 C 0.26872 0.79219 0.97463 0.0
O108 O 0.23066 0.78175 0.98297 0.0
O109 O 0.2697 0.79324 0.95758 0.0
O110 O 0.15191 0.80922 0.992 0.0
O111 O 0.17761 0.84151 0.9653 0.0
O112 O 0.45086 0.14207 0.28047 0.0
Cd113 Cd 0.44224 0.1999 0.27544 0.0
Cd114 Cd 0.39285 0.1629 0.30826 0.0
O115 O 0.40296 0.10584 0.3033 0.0
O116 O 0.47717 0.221 0.25221 0.0
O117 O 0.40076 0.19652 0.25434 0.0
C118 C 0.43796 0.211 0.24439 0.0
C119 C 0.32228 0.1595 0.31718 0.0
C120 C 0.43195 0.10756 0.29145 0.0
C121 C 0.48016 0.25984 0.30866 0.0
O122 O 0.45134 0.22321 0.31748 0.0
O123 O 0.4792 0.25957 0.29159 0.0
O124 O 0.34494 0.14628 0.32776 0.0
O125 O 0.33752 0.17069 0.30089 0.0
O126 O 0.30965 0.45609 0.61271 0.0
Cd127 Cd 0.24104 0.44155 0.60761 0.0
Cd128 Cd 0.23148 0.39283 0.63996 0.0
O129 O 0.29989 0.40685 0.63489 0.0
O130 O 0.2488 0.47352 0.58397 0.0
O131 O 0.20504 0.39581 0.58724 0.0
C132 C 0.22256 0.43242 0.5768 0.0
C133 C 0.1675 0.32155 0.65028 0.0
C134 C 0.3266 0.43791 0.62347 0.0
C135 C 0.21627 0.47684 0.64057 0.0
O136 O 0.2267 0.44962 0.64919 0.0
O137 O 0.21463 0.47556 0.62352 0.0
O138 O 0.20363 0.34741 0.66039 0.0
O139 O 0.16982 0.33373 0.63364 0.0
O140 O 0.85475 0.3122 0.94895 0.0
Cd141 Cd 0.80157 0.2443 0.94251 0.0
Cd142 Cd 0.84036 0.23061 0.97376 0.0
O143 O 0.89702 0.2981 0.96859 0.0
O144 O 0.77992 0.25717 0.9192 0.0
O145 O 0.81021 0.20994 0.92128 0.0
C146 C 0.79354 0.23078 0.91133 0.0
C147 C 0.84492 0.16397 0.98277 0.0
C148 C 0.8914 0.32706 0.95881 0.0
C149 C 0.74221 0.21772 0.97533 0.0
O150 O 0.78021 0.22815 0.98374 0.0
O151 O 0.7412 0.21606 0.95829 0.0
O152 O 0.85854 0.20025 0.99318 0.0
O153 O 0.83275 0.16734 0.96656 0.0
O154 O 0.55125 0.85379 0.28021 0.0
Cd155 Cd 0.56671 0.80024 0.27535 0.0
Cd156 Cd 0.61501 0.83944 0.30726 0.0
O157 O 0.60191 0.89439 0.30186 0.0
O158 O 0.5348 0.77521 0.25174 0.0
O159 O 0.61255 0.81039 0.25503 0.0
C160 C 0.57596 0.79069 0.24458 0.0
C161 C 0.68674 0.84485 0.31571 0.0
C162 C 0.57015 0.88953 0.29067 0.0
C163 C 0.53186 0.74089 0.30856 0.0
O164 O 0.55827 0.7789 0.31716 0.0
O165 O 0.53377 0.74023 0.29153 0.0
O166 O 0.66447 0.85844 0.32633 0.0
O167 O 0.67055 0.83252 0.29957 0.0
H168 H 0.13744 0.86233 0.01389 0.0
H169 H 0.21267 0.9328 0.96553 0.0
H170 H 0.16366 0.93932 0.02796 0.0
H171 H 0.24026 0.00969 0.97974 0.0
H172 H 0.2759 0.14627 1.00604 0.0
H173 H 0.22639 0.06893 0.99201 0.0
H174 H 0.23635 0.99985 0.04002 0.0
H175 H 0.28437 0.07702 0.05418 0.0
C176 C 0.15894 0.89426 1.00614 0.0
C177 C 0.1732 0.89133 0.98861 0.0
C178 C 0.17439 0.93851 0.01429 0.0
C179 C 0.2048 0.98101 1.00516 0.0
C180 C 0.21655 0.97796 0.98721 0.0
C181 C 0.2008 0.9337 0.97902 0.0
C182 C 0.26654 0.11451 0.01376 0.0
C183 C 0.28441 0.11792 0.03121 0.0
C184 C 0.23847 0.07008 1.00564 0.0
C185 C 0.22782 0.02787 0.01471 0.0
C186 C 0.24327 0.03133 0.0326 0.0
C187 C 0.27104 0.07576 0.04076 0.0
H188 H 0.13378 0.27239 0.34114 0.0
H189 H 0.21334 0.28349 0.38907 0.0
H190 H 0.16053 0.22161 0.32749 0.0
H191 H 0.24138 0.23417 0.37527 0.0
H192 H 0.2784 0.13341 0.34986 0.0
H193 H 0.22832 0.16056 0.36379 0.0
H194 H 0.23316 0.23474 0.31501 0.0
H195 H 0.28178 0.20622 0.30097 0.0
C196 C 0.15632 0.26332 0.3489 0.0
C197 C 0.17167 0.28233 0.36617 0.0
C198 C 0.17206 0.23452 0.34099 0.0
C199 C 0.20383 0.22424 0.3501 0.0
C200 C 0.21664 0.24079 0.36783 0.0
C201 C 0.20062 0.26931 0.37578 0.0
C202 C 0.26782 0.15458 0.34197 0.0
C203 C 0.28443 0.16791 0.32432 0.0
C204 C 0.2394 0.17055 0.35003 0.0
C205 C 0.22714 0.20057 0.34069 0.0
C206 C 0.24135 0.21136 0.32264 0.0
C207 C 0.26947 0.19508 0.31455 0.0
H208 H 0.86921 0.17443 0.66779 0.0
H209 H 0.92137 0.16864 0.72041 0.0
H210 H 0.94738 0.20264 0.65532 0.0
H211 H 0.99956 0.19355 0.70775 0.0
H212 H 0.14268 0.3096 0.68549 0.0
H213 H 0.06439 0.26104 0.69809 0.0
H214 H 0.0113 0.19795 0.64596 0.0
H215 H 0.08964 0.24984 0.63314 0.0
C216 C 0.89715 0.17766 0.67663 0.0
C217 C 0.88911 0.16974 0.69515 0.0
C218 C 0.94235 0.19368 0.66942 0.0
C219 C 0.98078 0.20128 0.68044 0.0
C220 C 0.97161 0.18974 0.69881 0.0
C221 C 0.92653 0.17483 0.70611 0.0
C222 C 0.11452 0.28474 0.67675 0.0
C223 C 0.12236 0.28401 0.65825 0.0
C224 C 0.06924 0.2564 0.68404 0.0
C225 C 0.03052 0.22558 0.67312 0.0
C226 C 0.03948 0.22217 0.65481 0.0
C227 C 0.08465 0.25152 0.64743 0.0
H228 H 0.72501 0.93353 0.0559 0.0
H229 H 0.73443 0.86346 1.00816 0.0
H230 H 0.77335 0.01045 0.04166 0.0
H231 H 0.78422 0.94056 0.99405 0.0
H232 H 0.79785 0.07607 0.96702 0.0
H233 H 0.77023 0.99947 0.98144 0.0
H234 H 0.84629 0.07081 0.02969 0.0
H235 H 0.87257 0.14752 0.0154 0.0
C236 C 0.73862 0.93456 0.04256 0.0
C237 C 0.72541 0.89224 0.03314 0.0
C238 C 0.76657 0.97885 0.03435 0.0
C239 C 0.78235 0.982 0.01654 0.0
C240 C 0.77189 0.93964 1.00761 0.0
C241 C 0.74366 0.89534 0.01578 0.0
C242 C 0.8096 0.07545 0.98056 0.0
C243 C 0.83706 0.11801 0.99009 0.0
C244 C 0.79383 0.03136 0.98887 0.0
C245 C 0.80542 0.02866 1.00688 0.0
C246 C 0.8357 0.07135 0.01596 0.0
C247 C 0.85117 0.11543 1.00769 0.0
H248 H 0.72688 0.79785 0.29948 0.0
H249 H 0.73178 0.87204 0.3482 0.0
H250 H 0.77558 0.7694 0.3135 0.0
H251 H 0.78196 0.84492 0.36211 0.0
H252 H 0.79698 0.72233 0.38768 0.0
H253 H 0.76878 0.77143 0.37378 0.0
H254 H 0.84828 0.78232 0.32584 0.0
H255 H 0.87515 0.73175 0.3396 0.0
C256 C 0.73958 0.80934 0.31301 0.0
C257 C 0.72499 0.83687 0.32275 0.0
C258 C 0.76774 0.79308 0.32109 0.0
C259 C 0.78237 0.80423 0.3391 0.0
C260 C 0.77054 0.83465 0.34838 0.0
C261 C 0.74209 0.85061 0.34033 0.0
C262 C 0.80933 0.73607 0.37433 0.0
C263 C 0.83797 0.72267 0.36471 0.0
C264 C 0.79324 0.76447 0.36632 0.0
C265 C 0.80566 0.78053 0.34853 0.0
C266 C 0.83704 0.7698 0.3394 0.0
C267 C 0.85285 0.74111 0.34736 0.0
H268 H 0.93164 0.72728 0.63334 0.0
H269 H 0.86301 0.73296 0.68208 0.0
H270 H 0.00893 0.7755 0.64735 0.0
H271 H 0.94046 0.78265 0.69597 0.0
H272 H 0.0776 0.79639 0.72144 0.0
H273 H 1.00036 0.76882 0.70761 0.0
H274 H 0.0691 0.84819 0.65965 0.0
H275 H 0.14647 0.87445 0.67334 0.0
C276 C 0.93304 0.74003 0.64687 0.0
C277 C 0.89106 0.72582 0.65662 0.0
C278 C 0.97754 0.76792 0.65495 0.0
C279 C 0.98122 0.78264 0.67294 0.0
C280 C 0.93914 0.77116 0.68224 0.0
C281 C 0.89465 0.74297 0.67421 0.0
C282 C 0.07627 0.80888 0.70811 0.0
C283 C 0.11829 0.83726 0.69846 0.0
C284 C 0.03181 0.79314 0.70013 0.0
C285 C 0.02822 0.80567 0.68235 0.0
C286 C 0.07035 0.83688 0.6732 0.0
C287 C 0.11481 0.85232 0.68112 0.0
H288 H 0.73684 0.23201 0.01106 0.0
H289 H 0.65191 0.18611 0.96276 0.0
H290 H 0.66979 0.22606 0.02756 0.0
H291 H 0.58391 0.17837 0.9795 0.0
H292 H 0.49935 0.23645 1.0091 0.0
H293 H 0.55999 0.22991 0.99248 0.0
H294 H 0.59331 0.17504 0.03974 0.0
H295 H 0.53359 0.18335 0.05662 0.0
C296 C 0.70358 0.21989 1.004 0.0
C297 C 0.69987 0.20994 0.98554 0.0
C298 C 0.66491 0.21611 0.01353 0.0
C299 C 0.62138 0.20185 1.00488 0.0
C300 C 0.61716 0.19026 0.98652 0.0
C301 C 0.65605 0.19445 0.97694 0.0
C302 C 0.51934 0.22264 0.01595 0.0
C303 C 0.51191 0.21083 0.03425 0.0
C304 C 0.55394 0.21852 1.00635 0.0
C305 C 0.58172 0.20206 0.01475 0.0
C306 C 0.57314 0.18864 0.03292 0.0
C307 C 0.53875 0.19319 0.04258 0.0
H308 H 0.27077 0.49646 0.3419 0.0
H309 H 0.35875 0.52975 0.38921 0.0
H310 H 0.33791 0.55708 0.32522 0.0
H311 H 0.42667 0.58944 0.37228 0.0
H312 H 0.51182 0.73416 0.34426 0.0
H313 H 0.45112 0.66629 0.36051 0.0
H314 H 0.41361 0.58188 0.31208 0.0
H315 H 0.47362 0.65075 0.29557 0.0
C316 C 0.30469 0.51618 0.34868 0.0
C317 C 0.30927 0.50861 0.36696 0.0
C318 C 0.34338 0.55077 0.33905 0.0
C319 C 0.38772 0.57839 0.34741 0.0
C320 C 0.39279 0.56942 0.36551 0.0
C321 C 0.35393 0.53504 0.3752 0.0
C322 C 0.49094 0.70107 0.33706 0.0
C323 C 0.49735 0.69803 0.31856 0.0
C324 C 0.45629 0.66192 0.34644 0.0
C325 C 0.42735 0.61853 0.33763 0.0
C326 C 0.43479 0.61498 0.31923 0.0
C327 C 0.46932 0.65437 0.30978 0.0
H328 H 0.8227 0.35814 0.72389 0.0
H329 H 0.77629 0.27143 0.67603 0.0
H330 H 0.82901 0.42522 0.70685 0.0
H331 H 0.78061 0.33743 0.65926 0.0
H332 H 0.82034 0.47275 0.62959 0.0
H333 H 0.82924 0.41325 0.64647 0.0
H334 H 0.77711 0.44828 0.69406 0.0
H335 H 0.77016 0.50869 0.67746 0.0
C336 C 0.81392 0.35341 0.70975 0.0
C337 C 0.79875 0.30937 0.70136 0.0
C338 C 0.81726 0.39176 0.69998 0.0
C339 C 0.80498 0.38674 0.68168 0.0
C340 C 0.79106 0.34298 0.67324 0.0
C341 C 0.78823 0.3049 0.68293 0.0
C342 C 0.81114 0.46791 0.64369 0.0
C343 C 0.79438 0.49534 0.65215 0.0
C344 C 0.81604 0.43367 0.65336 0.0
C345 C 0.80378 0.42578 0.67165 0.0
C346 C 0.78775 0.45385 0.68012 0.0
C347 C 0.78337 0.48832 0.67052 0.0
H348 H 0.35919 0.82423 0.96222 0.0
H349 H 0.27432 0.77952 0.01049 0.0
H350 H 0.42752 0.83349 0.97921 0.0
H351 H 0.34171 0.787 0.02724 0.0
H352 H 0.47772 0.8311 0.05662 0.0
H353 H 0.41817 0.83898 0.03939 0.0
H354 H 0.45189 0.78278 0.99263 0.0
H355 H 0.51231 0.77666 1.00959 0.0
C356 C 0.35513 0.81647 0.97645 0.0
C357 C 0.31122 0.80084 0.98496 0.0
C358 C 0.39422 0.82156 0.98618 0.0
C359 C 0.39012 0.81074 1.0046 0.0
C360 C 0.3465 0.79638 0.01316 0.0
C361 C 0.30763 0.7917 1.00349 0.0
C362 C 0.47273 0.82096 0.04261 0.0
C363 C 0.49954 0.80295 0.03453 0.0
C364 C 0.43844 0.82524 0.03275 0.0
C365 C 0.42994 0.81122 0.01463 0.0
C366 C 0.45784 0.7946 1.00645 0.0
C367 C 0.49233 0.79072 0.01625 0.0
H368 H 0.50087 0.26666 0.34431 0.0
H369 H 0.54054 0.34911 0.29542 0.0
H370 H 0.56232 0.33427 0.36048 0.0
H371 H 0.60124 0.41781 0.31185 0.0
H372 H 0.7428 0.50531 0.34201 0.0
H373 H 0.67642 0.44352 0.32532 0.0
H374 H 0.58691 0.41093 0.37211 0.0
H375 H 0.65413 0.4717 0.38906 0.0
C376 C 0.5223 0.2995 0.33703 0.0
C377 C 0.51595 0.30236 0.31852 0.0
C378 C 0.55739 0.33851 0.34638 0.0
C379 C 0.58682 0.38165 0.33751 0.0
C380 C 0.5797 0.38493 0.31906 0.0
C381 C 0.54478 0.34563 0.30964 0.0
C382 C 0.70888 0.48523 0.34873 0.0
C383 C 0.70389 0.49315 0.36693 0.0
C384 C 0.67062 0.44994 0.33909 0.0
C385 C 0.62625 0.42198 0.34736 0.0
C386 C 0.62081 0.43114 0.3654 0.0
C387 C 0.65927 0.46616 0.3751 0.0
H388 H 0.18582 0.53647 0.62773 0.0
H389 H 0.22936 0.49611 0.6763 0.0
H390 H 0.17777 0.59673 0.64449 0.0
H391 H 0.22319 0.55705 0.69276 0.0
H392 H 0.18111 0.65013 0.72201 0.0
H393 H 0.17222 0.5823 0.70478 0.0
H394 H 0.22833 0.67183 0.65793 0.0
H395 H 0.23532 0.73883 0.6749 0.0
C396 C 0.19356 0.54036 0.64196 0.0
C397 C 0.20843 0.51161 0.65064 0.0
C398 C 0.18919 0.57504 0.65156 0.0
C399 C 0.19998 0.58193 0.66999 0.0
C400 C 0.21375 0.55233 0.67868 0.0
C401 C 0.21769 0.51752 0.66916 0.0
C402 C 0.19107 0.65514 0.70798 0.0
C403 C 0.20925 0.69995 0.69988 0.0
C404 C 0.1862 0.61632 0.69811 0.0
C405 C 0.19992 0.6216 0.67998 0.0
C406 C 0.21675 0.66616 0.67177 0.0
C407 C 0.22113 0.70477 0.68158 0.0
H408 H 0.36276 0.16989 0.13002 0.0
H409 H 0.51008 0.28057 0.13249 0.0
H410 H 0.3606 0.16483 0.16283 0.0
H411 H 0.50753 0.27701 0.16491 0.0
H412 H 0.50757 0.22616 0.22072 0.0
H413 H 0.50535 0.22802 0.18832 0.0
H414 H 0.3624 0.20501 0.19035 0.0
H415 H 0.36406 0.20122 0.22315 0.0
C416 C 0.39459 0.19317 0.13755 0.0
C417 C 0.43673 0.22522 0.12862 0.0
C418 C 0.39328 0.19058 0.15636 0.0
C419 C 0.43401 0.22025 0.16661 0.0
C420 C 0.47576 0.25273 0.15756 0.0
C421 C 0.47718 0.25494 0.13888 0.0
C422 C 0.47563 0.22169 0.21433 0.0
C423 C 0.43611 0.21392 0.22458 0.0
C424 C 0.47443 0.22298 0.19566 0.0
C425 C 0.43388 0.21719 0.1866 0.0
C426 C 0.39411 0.20921 0.19683 0.0
C427 C 0.39516 0.20744 0.21564 0.0
H428 H 0.16055 0.35651 0.46246 0.0
H429 H 0.27743 0.50096 0.46493 0.0
H430 H 0.15807 0.35307 0.49527 0.0
H431 H 0.2765 0.49707 0.49742 0.0
H432 H 0.23305 0.5014 0.55361 0.0
H433 H 0.22999 0.49833 0.52111 0.0
H434 H 0.19585 0.35143 0.52264 0.0
H435 H 0.19693 0.35417 0.55547 0.0
C436 C 0.18625 0.38718 0.47001 0.0
C437 C 0.2189 0.42915 0.46112 0.0
C438 C 0.1849 0.38524 0.48882 0.0
C439 C 0.2165 0.42511 0.4991 0.0
C440 C 0.25055 0.46615 0.49006 0.0
C441 C 0.25145 0.46827 0.47136 0.0
C442 C 0.22442 0.46827 0.54704 0.0
C443 C 0.21552 0.42813 0.55711 0.0
C444 C 0.22313 0.46659 0.52834 0.0
C445 C 0.21375 0.42493 0.51912 0.0
C446 C 0.20308 0.38411 0.52923 0.0
C447 C 0.20373 0.38564 0.54805 0.0
H448 H 0.80835 0.16999 0.89001 0.0
H449 H 0.77589 0.28367 0.88771 0.0
H450 H 0.80549 0.16519 0.85719 0.0
H451 H 0.77499 0.28037 0.85528 0.0
H452 H 0.72448 0.23194 0.79929 0.0
H453 H 0.72779 0.23273 0.83172 0.0
H454 H 0.84449 0.20466 0.82976 0.0
H455 H 0.83971 0.20189 0.79695 0.0
C456 C 0.80075 0.194 0.88251 0.0
C457 C 0.7918 0.22681 0.89149 0.0
C458 C 0.79949 0.19155 0.8637 0.0
C459 C 0.7896 0.22212 0.85349 0.0
C460 C 0.78151 0.25538 0.86259 0.0
C461 C 0.78226 0.25745 0.88128 0.0
C462 C 0.75104 0.22607 0.80571 0.0
C463 C 0.78211 0.21725 0.79549 0.0
C464 C 0.7531 0.22676 0.8244 0.0
C465 C 0.7868 0.21933 0.83349 0.0
C466 C 0.8178 0.21014 0.82326 0.0
C467 C 0.81536 0.20893 0.80445 0.0
H468 H 0.65191 0.80703 0.1302 0.0
H469 H 0.50703 0.77783 0.13275 0.0
H470 H 0.6554 0.80742 0.163 0.0
H471 H 0.51094 0.78018 0.16524 0.0
H472 H 0.50736 0.73179 0.22131 0.0
H473 H 0.51038 0.73226 0.1888 0.0
H474 H 0.65658 0.84625 0.19049 0.0
H475 H 0.65391 0.84417 0.22331 0.0
C476 C 0.62113 0.80156 0.13776 0.0
C477 C 0.57905 0.79198 0.12889 0.0
C478 C 0.62311 0.80183 0.15658 0.0
C479 C 0.58315 0.79294 0.16688 0.0
C480 C 0.54195 0.78564 0.15786 0.0
C481 C 0.53981 0.78477 0.13916 0.0
C482 C 0.54034 0.75664 0.21477 0.0
C483 C 0.5803 0.78812 0.22489 0.0
C484 C 0.54198 0.7573 0.19607 0.0
C485 C 0.58341 0.79007 0.18689 0.0
C486 C 0.62408 0.82044 0.19704 0.0
C487 C 0.62259 0.8193 0.21586 0.0
H488 H 0.84305 0.64415 0.5559 0.0
H489 H 0.72589 0.49966 0.55396 0.0
H490 H 0.84768 0.64515 0.52309 0.0
H491 H 0.72909 0.5012 0.52154 0.0
H492 H 0.77548 0.49632 0.46547 0.0
H493 H 0.77519 0.49931 0.4979 0.0
H494 H 0.80853 0.64589 0.49572 0.0
H495 H 0.81075 0.64332 0.46292 0.0
C496 C 0.81831 0.61268 0.54849 0.0
C497 C 0.78446 0.57168 0.55758 0.0
C498 C 0.82065 0.61336 0.52968 0.0
C499 C 0.78897 0.57313 0.51957 0.0
C500 C 0.75488 0.53249 0.52878 0.0
C501 C 0.75288 0.53167 0.54746 0.0
C502 C 0.78258 0.52923 0.47185 0.0
C503 C 0.79275 0.56948 0.46156 0.0
C504 C 0.78221 0.5309 0.49053 0.0
C505 C 0.79133 0.5727 0.49956 0.0
C506 C 0.80176 0.6132 0.48928 0.0
C507 C 0.80263 0.61165 0.47046 0.0
H508 H 0.23324 0.72314 0.88701 0.0
H509 H 0.20281 0.8382 0.88918 0.0
H510 H 0.23377 0.726 0.85457 0.0
H511 H 0.2054 0.84262 0.85637 0.0
H512 H 0.17092 0.80665 0.79619 0.0
H513 H 0.16623 0.80385 0.82899 0.0
H514 H 0.28067 0.77236 0.83087 0.0
H515 H 0.28376 0.77311 0.79844 0.0
C516 C 0.22726 0.74958 0.88054 0.0
C517 C 0.21837 0.78072 0.89072 0.0
C518 C 0.2278 0.7514 0.86185 0.0
C519 C 0.2202 0.78493 0.85271 0.0
C520 C 0.21099 0.81603 0.86289 0.0
C521 C 0.20988 0.81379 0.88171 0.0
C522 C 0.19477 0.79882 0.80367 0.0
C523 C 0.22731 0.78957 0.79468 0.0
C524 C 0.19239 0.7976 0.82249 0.0
C525 C 0.22281 0.78749 0.83269 0.0
C526 C 0.25578 0.77905 0.82357 0.0
C527 C 0.25774 0.77972 0.80489 0.0
H528 H 0.48018 0.61236 0.07409 0.0
H529 H 0.61243 0.63548 0.05138 0.0
H530 H 0.44823 0.52667 0.07282 0.0
H531 H 0.58026 0.54925 0.05031 0.0
H532 H 0.52345 0.39805 0.07446 0.0
H533 H 0.55468 0.48352 0.07385 0.0
H534 H 0.42514 0.46131 0.04898 0.0
H535 H 0.3936 0.37503 0.04939 0.0
C536 C 0.50256 0.59921 0.06888 0.0
C537 C 0.54905 0.63087 0.06292 0.0
C538 C 0.484 0.55005 0.06802 0.0
C539 C 0.51166 0.5313 0.06142 0.0
C540 C 0.55821 0.5628 0.05553 0.0
C541 C 0.5766 0.61211 0.05612 0.0
C542 C 0.5014 0.41117 0.06887 0.0
C543 C 0.45583 0.37957 0.06204 0.0
C544 C 0.51959 0.46026 0.06839 0.0
C545 C 0.49248 0.47908 0.06131 0.0
C546 C 0.44674 0.44767 0.05458 0.0
C547 C 0.42874 0.39836 0.05479 0.0
H548 H 0.87979 0.4837 0.40738 0.0
H549 H 0.98593 0.61416 0.38247 0.0
H550 H 0.9344 0.45298 0.40661 0.0
H551 H 0.04105 0.58315 0.38191 0.0
H552 H 0.13769 0.52842 0.40667 0.0
H553 H 0.08372 0.56007 0.40562 0.0
H554 H 0.97453 0.42802 0.38284 0.0
H555 H 0.02879 0.39616 0.3837 0.0
C556 C 0.9149 0.506 0.40179 0.0
C557 C 0.92856 0.55158 0.39504 0.0
C558 C 0.946 0.48811 0.40123 0.0
C559 C 0.99184 0.51554 0.39413 0.0
C560 C 0.00588 0.5613 0.38751 0.0
C561 C 0.97437 0.57901 0.3878 0.0
C562 C 0.10216 0.50598 0.40145 0.0
C563 C 0.08746 0.45957 0.39535 0.0
C564 C 0.07144 0.52437 0.40071 0.0
C565 C 0.02504 0.4966 0.39411 0.0
C566 C 0.01012 0.45014 0.38806 0.0
C567 C 0.04116 0.43193 0.38854 0.0
H568 H 0.63588 0.02663 0.71427 0.0
H569 H 0.61141 0.13223 0.73962 0.0
H570 H 0.54977 0.97164 0.71332 0.0
H571 H 0.52605 0.07774 0.73845 0.0
H572 H 0.37443 0.98229 0.71562 0.0
H573 H 0.4605 0.03719 0.71455 0.0
H574 H 0.48474 0.92887 0.73727 0.0
H575 H 0.39935 0.87441 0.73856 0.0
C576 C 0.61225 0.03812 0.71959 0.0
C577 C 0.63057 0.08367 0.72712 0.0
C578 C 0.56305 0.0067 0.71907 0.0
C579 C 0.53129 0.02059 0.72575 0.0
C580 C 0.54962 0.06627 0.73304 0.0
C581 C 0.59862 0.09729 0.73384 0.0
C582 C 0.39816 0.97028 0.72039 0.0
C583 C 0.37998 0.92411 0.72728 0.0
C584 C 0.44734 1.00165 0.7198 0.0
C585 C 0.47923 0.98713 0.72576 0.0
C586 C 0.46105 0.94084 0.73241 0.0
C587 C 0.41205 0.90983 0.73328 0.0
H588 H 0.62101 0.53283 0.59666 0.0
H589 H 0.62789 0.58437 0.65061 0.0
H590 H 0.53509 0.49835 0.59666 0.0
H591 H 0.54128 0.54963 0.65057 0.0
H592 H 0.3818 0.4296 0.64957 0.0
H593 H 0.46855 0.4661 0.64983 0.0
H594 H 0.47534 0.52489 0.59728 0.0
H595 H 0.38921 0.48862 0.59695 0.0
C596 C 0.60422 0.53725 0.60847 0.0
C597 C 0.63135 0.56143 0.62364 0.0
C598 C 0.55494 0.51751 0.60845 0.0
C599 C 0.53139 0.52101 0.62365 0.0
C600 C 0.55846 0.54592 0.63873 0.0
C601 C 0.60804 0.56626 0.63868 0.0
C602 C 0.40181 0.4499 0.63801 0.0
C603 C 0.37854 0.45607 0.62322 0.0
C604 C 0.45148 0.47123 0.63825 0.0
C605 C 0.47875 0.49858 0.62361 0.0
C606 C 0.45534 0.50385 0.60871 0.0
C607 C 0.40593 0.48306 0.60855 0.0
H608 H 0.02806 0.63551 0.97115 0.0
H609 H 0.13462 0.61005 0.94739 0.0
H610 H 0.97305 0.54939 0.97236 0.0
H611 H 0.08009 0.52464 0.94883 0.0
H612 H 0.98299 0.3734 0.97188 0.0
H613 H 0.03812 0.45955 0.97281 0.0
H614 H 0.93142 0.48375 0.94855 0.0
H615 H 0.87679 0.39834 0.9474 0.0
C616 C 0.03977 0.61166 0.96624 0.0
C617 C 0.08559 0.62971 0.95907 0.0
C618 C 0.00833 0.56244 0.96692 0.0
C619 C 0.02245 0.53038 0.96076 0.0
C620 C 0.06842 0.54845 0.95384 0.0
C621 C 0.09947 0.59746 0.95289 0.0
C622 C 0.97139 0.39714 0.96675 0.0
C623 C 0.92563 0.37894 0.95946 0.0
C624 C 1.0029 0.44637 0.96726 0.0
C625 C 0.98889 0.47828 0.96082 0.0
C626 C 0.94299 0.46006 0.95378 0.0
C627 C 0.91189 0.41104 0.95299 0.0
H628 H 0.51754 0.89998 0.26451 0.0
H629 H 0.58051 0.95471 0.3164 0.0
H630 H 0.48144 0.95005 0.26489 0.0
H631 H 0.54418 0.00515 0.31672 0.0
H632 H 0.42652 0.04693 0.31826 0.0
H633 H 0.46093 0.99473 0.31817 0.0
H634 H 0.50801 0.03634 0.26366 0.0
H635 H 0.47385 0.08811 0.2637 0.0
C636 C 0.524 0.92298 0.27596 0.0
C637 C 0.55206 0.92341 0.29041 0.0
C638 C 0.50331 0.95171 0.27615 0.0
C639 C 0.50974 0.98133 0.29088 0.0
C640 C 0.53814 0.98222 0.30529 0.0
C641 C 0.55936 0.95377 0.30501 0.0
C642 C 0.44363 0.04436 0.30619 0.0
C643 C 0.44739 0.07162 0.29099 0.0
C644 C 0.46379 0.01493 0.30621 0.0
C645 C 0.48743 0.01169 0.29094 0.0
C646 C 0.48983 0.03786 0.27559 0.0
C647 C 0.47028 0.06759 0.27564 0.0
loop_
_geom_bond_atom_site_label_1
_geom_bond_atom_site_label_2
_geom_bond_distance
_geom_bond_site_symmetry_2
_ccdc_geom_bond_type
O0 Cd1 2.223 . S
O0 C8 1.315 . S
Cd1 O0 2.223 . S
Cd1 O4 2.297 . S
Cd1 O5 2.439 . S
Cd1 O11 2.240 . S
Cd2 O3 2.240 . S
Cd2 O10 2.223 . S
Cd2 O12 2.297 . S
Cd2 O13 2.439 . S
O3 Cd2 2.240 . S
O3 C8 1.279 . S
O4 Cd1 2.297 . S
O4 C6 1.247 . S
O5 Cd1 2.439 . S
O5 C6 1.208 . S
C6 O4 1.247 . S
C6 O5 1.208 . S
C7 O12 1.247 . S
C7 O13 1.208 . S
C8 O0 1.315 . S
C8 O3 1.279 . S
C9 O10 1.315 . S
C9 O11 1.279 . S
O10 Cd2 2.223 . S
O10 C9 1.315 . S
O11 Cd1 2.240 . S
O11 C9 1.279 . S
O12 Cd2 2.297 . S
O12 C7 1.247 . S
O13 Cd2 2.439 . S
O13 C7 1.208 . S
O14 Cd15 2.223 . S
O14 C22 1.315 . S
Cd15 O14 2.223 . S
Cd15 O18 2.297 . S
Cd15 O19 2.439 . S
Cd15 O25 2.240 . S
Cd16 O17 2.240 . S
Cd16 O24 2.223 . S
Cd16 O26 2.297 . S
Cd16 O27 2.439 . S
O17 Cd16 2.240 . S
O17 C22 1.279 . S
O18 Cd15 2.297 . S
O18 C20 1.247 . S
O19 Cd15 2.439 . S
O19 C20 1.208 . S
C20 O18 1.247 . S
C20 O19 1.208 . S
C21 O26 1.247 . S
C21 O27 1.208 . S
C22 O14 1.315 . S
C22 O17 1.279 . S
C23 O24 1.315 . S
C23 O25 1.279 . S
O24 Cd16 2.223 . S
O24 C23 1.315 . S
O25 Cd15 2.240 . S
O25 C23 1.279 . S
O26 Cd16 2.297 . S
O26 C21 1.247 . S
O27 Cd16 2.439 . S
O27 C21 1.208 . S
O28 Cd29 2.223 . S
O28 C36 1.315 . S
Cd29 O28 2.223 . S
Cd29 O32 2.297 . S
Cd29 O33 2.439 . S
Cd29 O39 2.240 . S
Cd30 O31 2.240 . S
Cd30 O38 2.223 . S
Cd30 O40 2.297 . S
Cd30 O41 2.439 . S
O31 Cd30 2.240 . S
O31 C36 1.279 . S
O32 Cd29 2.297 . S
O32 C34 1.247 . S
O33 Cd29 2.439 . S
O33 C34 1.208 . S
C34 O32 1.247 . S
C34 O33 1.208 . S
C35 O40 1.247 . S
C35 O41 1.208 . S
C36 O28 1.315 . S
C36 O31 1.279 . S
C37 O38 1.315 . S
C37 O39 1.279 . S
O38 Cd30 2.223 . S
O38 C37 1.315 . S
O39 Cd29 2.240 . S
O39 C37 1.279 . S
O40 Cd30 2.297 . S
O40 C35 1.247 . S
O41 Cd30 2.439 . S
O41 C35 1.208 . S
O42 Cd43 2.223 . S
O42 C50 1.315 . S
Cd43 O42 2.223 . S
Cd43 O46 2.297 . S
Cd43 O47 2.439 . S
Cd43 O53 2.240 . S
Cd44 O45 2.240 . S
Cd44 O52 2.223 . S
Cd44 O54 2.297 . S
Cd44 O55 2.439 . S
O45 Cd44 2.240 . S
O45 C50 1.279 . S
O46 Cd43 2.297 . S
O46 C48 1.247 . S
O47 Cd43 2.439 . S
O47 C48 1.208 . S
C48 O46 1.247 . S
C48 O47 1.208 . S
C49 O54 1.247 . S
C49 O55 1.208 . S
C50 O42 1.315 . S
C50 O45 1.279 . S
C51 O52 1.315 . S
C51 O53 1.279 . S
O52 Cd44 2.223 . S
O52 C51 1.315 . S
O53 Cd43 2.240 . S
O53 C51 1.279 . S
O54 Cd44 2.297 . S
O54 C49 1.247 . S
O55 Cd44 2.439 . S
O55 C49 1.208 . S
O56 Cd57 2.223 . S
O56 C64 1.315 . S
Cd57 O56 2.223 . S
Cd57 O60 2.297 . S
Cd57 O61 2.439 . S
Cd57 O67 2.240 . S
Cd58 O59 2.240 . S
Cd58 O66 2.223 . S
Cd58 O68 2.297 . S
Cd58 O69 2.439 . S
O59 Cd58 2.240 . S
O59 C64 1.279 . S
O60 Cd57 2.297 . S
O60 C62 1.247 . S
O61 Cd57 2.439 . S
O61 C62 1.208 . S
C62 O60 1.247 . S
C62 O61 1.208 . S
C63 O68 1.247 . S
C63 O69 1.208 . S
C64 O56 1.315 . S
C64 O59 1.279 . S
C65 O66 1.315 . S
C65 O67 1.279 . S
O66 Cd58 2.223 . S
O66 C65 1.315 . S
O67 Cd57 2.240 . S
O67 C65 1.279 . S
O68 Cd58 2.297 . S
O68 C63 1.247 . S
O69 Cd58 2.439 . S
O69 C63 1.208 . S
O70 Cd71 2.223 . S
O70 C78 1.315 . S
Cd71 O70 2.223 . S
Cd71 O74 2.297 . S
Cd71 O75 2.439 . S
Cd71 O81 2.240 . S
Cd72 O73 2.240 . S
Cd72 O80 2.223 . S
Cd72 O82 2.297 . S
Cd72 O83 2.439 . S
O73 Cd72 2.240 . S
O73 C78 1.279 . S
O74 Cd71 2.297 . S
O74 C76 1.247 . S
O75 Cd71 2.439 . S
O75 C76 1.208 . S
C76 O74 1.247 . S
C76 O75 1.208 . S
C77 O82 1.247 . S
C77 O83 1.208 . S
C78 O70 1.315 . S
C78 O73 1.279 . S
C79 O80 1.315 . S
C79 O81 1.279 . S
O80 Cd72 2.223 . S
O80 C79 1.315 . S
O81 Cd71 2.240 . S
O81 C79 1.279 . S
O82 Cd72 2.297 . S
O82 C77 1.247 . S
O83 Cd72 2.439 . S
O83 C77 1.208 . S
O84 Cd85 2.223 . S
O84 C92 1.315 . S
Cd85 O84 2.223 . S
Cd85 O88 2.297 . S
Cd85 O89 2.439 . S
Cd85 O95 2.240 . S
Cd86 O87 2.240 . S
Cd86 O94 2.223 . S
Cd86 O96 2.297 . S
Cd86 O97 2.439 . S
O87 Cd86 2.240 . S
O87 C92 1.279 . S
O88 Cd85 2.297 . S
O88 C90 1.247 . S
O89 Cd85 2.439 . S
O89 C90 1.208 . S
C90 O88 1.247 . S
C90 O89 1.208 . S
C91 O96 1.247 . S
C91 O97 1.208 . S
C92 O84 1.315 . S
C92 O87 1.279 . S
C93 O94 1.315 . S
C93 O95 1.279 . S
O94 Cd86 2.223 . S
O94 C93 1.315 . S
O95 Cd85 2.240 . S
O95 C93 1.279 . S
O96 Cd86 2.297 . S
O96 C91 1.247 . S
O97 Cd86 2.439 . S
O97 C91 1.208 . S
O98 Cd99 2.223 . S
O98 C106 1.315 . S
Cd99 O98 2.223 . S
Cd99 O102 2.297 . S
Cd99 O103 2.439 . S
Cd99 O109 2.240 . S
Cd100 O101 2.240 . S
Cd100 O108 2.223 . S
Cd100 O110 2.297 . S
Cd100 O111 2.439 . S
O101 Cd100 2.240 . S
O101 C106 1.279 . S
O102 Cd99 2.297 . S
O102 C104 1.247 . S
O103 Cd99 2.439 . S
O103 C104 1.208 . S
C104 O102 1.247 . S
C104 O103 1.208 . S
C105 O110 1.247 . S
C105 O111 1.208 . S
C106 O98 1.315 . S
C106 O101 1.279 . S
C107 O108 1.315 . S
C107 O109 1.279 . S
O108 Cd100 2.223 . S
O108 C107 1.315 . S
O109 Cd99 2.240 . S
O109 C107 1.279 . S
O110 Cd100 2.297 . S
O110 C105 1.247 . S
O111 Cd100 2.439 . S
O111 C105 1.208 . S
O112 Cd113 2.223 . S
O112 C120 1.315 . S
Cd113 O112 2.223 . S
Cd113 O116 2.297 . S
Cd113 O117 2.439 . S
Cd113 O123 2.240 . S
Cd114 O115 2.240 . S
Cd114 O122 2.223 . S
Cd114 O124 2.297 . S
Cd114 O125 2.439 . S
O115 Cd114 2.240 . S
O115 C120 1.279 . S
O116 Cd113 2.297 . S
O116 C118 1.247 . S
O117 Cd113 2.439 . S
O117 C118 1.208 . S
C118 O116 1.247 . S
C118 O117 1.208 . S
C119 O124 1.247 . S
C119 O125 1.208 . S
C120 O112 1.315 . S
C120 O115 1.279 . S
C121 O122 1.315 . S
C121 O123 1.279 . S
O122 Cd114 2.223 . S
O122 C121 1.315 . S
O123 Cd113 2.240 . S
O123 C121 1.279 . S
O124 Cd114 2.297 . S
O124 C119 1.247 . S
O125 Cd114 2.439 . S
O125 C119 1.208 . S
O126 Cd127 2.223 . S
O126 C134 1.315 . S
Cd127 O126 2.223 . S
Cd127 O130 2.297 . S
Cd127 O131 2.439 . S
Cd127 O137 2.240 . S
Cd128 O129 2.240 . S
Cd128 O136 2.223 . S
Cd128 O138 2.297 . S
Cd128 O139 2.439 . S
O129 Cd128 2.240 . S
O129 C134 1.279 . S
O130 Cd127 2.297 . S
O130 C132 1.247 . S
O131 Cd127 2.439 . S
O131 C132 1.208 . S
C132 O130 1.247 . S
C132 O131 1.208 . S
C133 O138 1.247 . S
C133 O139 1.208 . S
C134 O126 1.315 . S
C134 O129 1.279 . S
C135 O136 1.315 . S
C135 O137 1.279 . S
O136 Cd128 2.223 . S
O136 C135 1.315 . S
O137 Cd127 2.240 . S
O137 C135 1.279 . S
O138 Cd128 2.297 . S
O138 C133 1.247 . S
O139 Cd128 2.439 . S
O139 C133 1.208 . S
O140 Cd141 2.223 . S
O140 C148 1.315 . S
Cd141 O140 2.223 . S
Cd141 O144 2.297 . S
Cd141 O145 2.439 . S
Cd141 O151 2.240 . S
Cd142 O143 2.240 . S
Cd142 O150 2.223 . S
Cd142 O152 2.297 . S
Cd142 O153 2.439 . S
O143 Cd142 2.240 . S
O143 C148 1.279 . S
O144 Cd141 2.297 . S
O144 C146 1.247 . S
O145 Cd141 2.439 . S
O145 C146 1.208 . S
C146 O144 1.247 . S
C146 O145 1.208 . S
C147 O152 1.247 . S
C147 O153 1.208 . S
C148 O140 1.315 . S
C148 O143 1.279 . S
C149 O150 1.315 . S
C149 O151 1.279 . S
O150 Cd142 2.223 . S
O150 C149 1.315 . S
O151 Cd141 2.240 . S
O151 C149 1.279 . S
O152 Cd142 2.297 . S
O152 C147 1.247 . S
O153 Cd142 2.439 . S
O153 C147 1.208 . S
O154 Cd155 2.223 . S
O154 C162 1.315 . S
Cd155 O154 2.223 . S
Cd155 O158 2.297 . S
Cd155 O159 2.439 . S
Cd155 O165 2.240 . S
Cd156 O157 2.240 . S
Cd156 O164 2.223 . S
Cd156 O166 2.297 . S
Cd156 O167 2.439 . S
O157 Cd156 2.240 . S
O157 C162 1.279 . S
O158 Cd155 2.297 . S
O158 C160 1.247 . S
O159 Cd155 2.439 . S
O159 C160 1.208 . S
C160 O158 1.247 . S
C160 O159 1.208 . S
C161 O166 1.247 . S
C161 O167 1.208 . S
C162 O154 1.315 . S
C162 O157 1.279 . S
C163 O164 1.315 . S
C163 O165 1.279 . S
O164 Cd156 2.223 . S
O164 C163 1.315 . S
O165 Cd155 2.240 . S
O165 C163 1.279 . S
O166 Cd156 2.297 . S
O166 C161 1.247 . S
O167 Cd156 2.439 . S
O167 C161 1.208 . S
H168 C176 0.950 . S
H169 C181 0.950 . S
H170 C178 0.950 1_554 S
H171 C180 0.950 . S
H172 C182 0.950 . S
H173 C184 0.950 1_556 S
H174 C186 0.950 . S
H175 C187 0.950 . S
C176 H168 0.950 . S
C176 C177 1.386 . S
C176 C178 1.391 . S
C177 C176 1.386 . S
C177 C181 1.393 . S
C178 H170 0.950 1_556 S
C178 C176 1.391 . S
C178 C179 1.400 . S
C179 C178 1.400 . S
C179 C180 1.398 . S
C179 C185 1.491 1_566 S
C180 H171 0.950 . S
C180 C179 1.398 . S
C180 C181 1.391 . S
C181 H169 0.950 . S
C181 C177 1.393 . S
C181 C180 1.391 . S
C182 H172 0.950 . S
C182 C183 1.386 . S
C182 C184 1.391 . S
C183 C182 1.386 . S
C183 C187 1.393 . S
C184 H173 0.950 1_554 S
C184 C182 1.391 . S
C184 C185 1.400 . S
C185 C179 1.491 1_544 S
C185 C184 1.400 . S
C185 C186 1.398 . S
C186 H174 0.950 . S
C186 C185 1.398 . S
C186 C187 1.391 . S
C187 H175 0.950 . S
C187 C183 1.393 . S
C187 C186 1.391 . S
H188 C196 0.950 . S
H189 C201 0.950 . S
H190 C198 0.950 . S
H191 C200 0.950 . S
H192 C202 0.950 . S
H193 C204 0.950 . S
H194 C206 0.950 . S
H195 C207 0.950 . S
C196 H188 0.950 . S
C196 C197 1.386 . S
C196 C198 1.391 . S
C197 C196 1.386 . S
C197 C201 1.393 . S
C198 H190 0.950 . S
C198 C196 1.391 . S
C198 C199 1.400 . S
C199 C198 1.400 . S
C199 C200 1.398 . S
C199 C205 1.491 . S
C200 H191 0.950 . S
C200 C199 1.398 . S
C200 C201 1.391 . S
C201 H189 0.950 . S
C201 C197 1.393 . S
C201 C200 1.391 . S
C202 H192 0.950 . S
C202 C203 1.386 . S
C202 C204 1.391 . S
C203 C202 1.386 . S
C203 C207 1.393 . S
C204 H193 0.950 . S
C204 C202 1.391 . S
C204 C205 1.400 . S
C205 C199 1.491 . S
C205 C204 1.400 . S
C205 C206 1.398 . S
C206 H194 0.950 . S
C206 C205 1.398 . S
C206 C207 1.391 . S
C207 H195 0.950 . S
C207 C203 1.393 . S
C207 C206 1.391 . S
H208 C216 0.950 . S
H209 C221 0.950 . S
H210 C218 0.950 . S
H211 C220 0.950 . S
H212 C222 0.950 . S
H213 C224 0.950 . S
H214 C226 0.950 . S
H215 C227 0.950 . S
C216 H208 0.950 . S
C216 C217 1.386 . S
C216 C218 1.391 . S
C217 C216 1.386 . S
C217 C221 1.393 . S
C218 H210 0.950 . S
C218 C216 1.391 . S
C218 C219 1.400 . S
C219 C218 1.400 . S
C219 C220 1.398 . S
C219 C225 1.491 1_655 S
C220 H211 0.950 . S
C220 C219 1.398 . S
C220 C221 1.391 . S
C221 H209 0.950 . S
C221 C217 1.393 . S
C221 C220 1.391 . S
C222 H212 0.950 . S
C222 C223 1.386 . S
C222 C224 1.391 . S
C223 C222 1.386 . S
C223 C227 1.393 . S
C224 H213 0.950 . S
C224 C222 1.391 . S
C224 C225 1.400 . S
C225 C219 1.491 1_455 S
C225 C224 1.400 . S
C225 C226 1.398 . S
C226 H214 0.950 . S
C226 C225 1.398 . S
C226 C227 1.391 . S
C227 H215 0.950 . S
C227 C223 1.393 . S
C227 C226 1.391 . S
H228 C236 0.950 . S
H229 C241 0.959 . S
H230 C238 0.950 1_545 S
H231 C240 0.950 . S
H232 C242 0.950 . S
H233 C244 0.950 1_565 S
H234 C246 0.950 . S
H235 C247 0.959 . S
C236 H228 0.950 . S
C236 C237 1.386 . S
C236 C238 1.391 . S
C237 C236 1.386 . S
C237 C241 1.393 . S
C238 H230 0.950 1_565 S
C238 C236 1.391 . S
C238 C239 1.400 . S
C239 C238 1.400 . S
C239 C240 1.398 1_554 S
C239 C245 1.491 1_564 S
C240 H231 0.950 . S
C240 C239 1.398 1_556 S
C240 C241 1.391 1_556 S
C241 H229 0.959 . S
C241 C237 1.393 . S
C241 C240 1.391 1_554 S
C242 H232 0.950 . S
C242 C243 1.386 . S
C242 C244 1.391 . S
C243 C242 1.386 . S
C243 C247 1.393 . S
C244 H233 0.950 1_545 S
C244 C242 1.391 . S
C244 C245 1.400 . S
C245 C239 1.491 1_546 S
C245 C244 1.400 . S
C245 C246 1.398 1_556 S
C246 H234 0.950 . S
C246 C245 1.398 1_554 S
C246 C247 1.391 1_554 S
C247 H235 0.959 . S
C247 C243 1.393 . S
C247 C246 1.391 1_556 S
H248 C256 0.950 . S
H249 C261 0.950 . S
H250 C258 0.950 . S
H251 C260 0.950 . S
H252 C262 0.950 . S
H253 C264 0.950 . S
H254 C266 0.950 . S
H255 C267 0.950 . S
C256 H248 0.950 . S
C256 C257 1.386 . S
C256 C258 1.391 . S
C257 C256 1.386 . S
C257 C261 1.393 . S
C258 H250 0.950 . S
C258 C256 1.391 . S
C258 C259 1.400 . S
C259 C258 1.400 . S
C259 C260 1.398 . S
C259 C265 1.491 . S
C260 H251 0.950 . S
C260 C259 1.398 . S
C260 C261 1.391 . S
C261 H249 0.950 . S
C261 C257 1.393 . S
C261 C260 1.391 . S
C262 H252 0.950 . S
C262 C263 1.386 . S
C262 C264 1.391 . S
C263 C262 1.386 . S
C263 C267 1.393 . S
C264 H253 0.950 . S
C264 C262 1.391 . S
C264 C265 1.400 . S
C265 C259 1.491 . S
C265 C264 1.400 . S
C265 C266 1.398 . S
C266 H254 0.950 . S
C266 C265 1.398 . S
C266 C267 1.391 . S
C267 H255 0.950 . S
C267 C263 1.393 . S
C267 C266 1.391 . S
H268 C276 0.950 . S
H269 C281 0.950 . S
H270 C278 0.950 1_455 S
H271 C280 0.950 . S
H272 C282 0.950 . S
H273 C284 0.950 1_655 S
H274 C286 0.950 . S
H275 C287 0.950 . S
C276 H268 0.950 . S
C276 C277 1.386 . S
C276 C278 1.391 . S
C277 C276 1.386 . S
C277 C281 1.393 . S
C278 H270 0.950 1_655 S
C278 C276 1.391 . S
C278 C279 1.400 . S
C279 C278 1.400 . S
C279 C280 1.398 . S
C279 C285 1.491 1_655 S
C280 H271 0.950 . S
C280 C279 1.398 . S
C280 C281 1.391 . S
C281 H269 0.950 . S
C281 C277 1.393 . S
C281 C280 1.391 . S
C282 H272 0.950 . S
C282 C283 1.386 . S
C282 C284 1.391 . S
C283 C282 1.386 . S
C283 C287 1.393 . S
C284 H273 0.950 1_455 S
C284 C282 1.391 . S
C284 C285 1.400 . S
C285 C279 1.491 1_455 S
C285 C284 1.400 . S
C285 C286 1.398 . S
C286 H274 0.950 . S
C286 C285 1.398 . S
C286 C287 1.391 . S
C287 H275 0.950 . S
C287 C283 1.393 . S
C287 C286 1.391 . S
H288 C296 0.950 1_554 S
H289 C301 0.950 . S
H290 C298 0.950 . S
H291 C300 0.950 . S
H292 C302 0.950 1_556 S
H293 C304 0.950 . S
H294 C306 0.950 . S
H295 C307 0.950 . S
C296 H288 0.950 1_556 S
C296 C297 1.386 . S
C296 C298 1.391 1_556 S
C297 C296 1.386 . S
C297 C301 1.393 . S
C298 H290 0.950 . S
C298 C296 1.391 1_554 S
C298 C299 1.400 1_554 S
C299 C298 1.400 1_556 S
C299 C300 1.398 . S
C299 C305 1.491 1_556 S
C300 H291 0.950 . S
C300 C299 1.398 . S
C300 C301 1.391 . S
C301 H289 0.950 . S
C301 C297 1.393 . S
C301 C300 1.391 . S
C302 H292 0.950 1_554 S
C302 C303 1.386 . S
C302 C304 1.391 1_554 S
C303 C302 1.386 . S
C303 C307 1.393 . S
C304 H293 0.950 . S
C304 C302 1.391 1_556 S
C304 C305 1.400 1_556 S
C305 C299 1.491 1_554 S
C305 C304 1.400 1_554 S
C305 C306 1.398 . S
C306 H294 0.950 . S
C306 C305 1.398 . S
C306 C307 1.391 . S
C307 H295 0.950 . S
C307 C303 1.393 . S
C307 C306 1.391 . S
H308 C316 0.950 . S
H309 C321 0.950 . S
H310 C318 0.950 . S
H311 C320 0.950 . S
H312 C322 0.950 . S
H313 C324 0.950 . S
H314 C326 0.950 . S
H315 C327 0.950 . S
C316 H308 0.950 . S
C316 C317 1.386 . S
C316 C318 1.391 . S
C317 C316 1.386 . S
C317 C321 1.393 . S
C318 H310 0.950 . S
C318 C316 1.391 . S
C318 C319 1.400 . S
C319 C318 1.400 . S
C319 C320 1.398 . S
C319 C325 1.491 . S
C320 H311 0.950 . S
C320 C319 1.398 . S
C320 C321 1.391 . S
C321 H309 0.950 . S
C321 C317 1.393 . S
C321 C320 1.391 . S
C322 H312 0.950 . S
C322 C323 1.386 . S
C322 C324 1.391 . S
C323 C322 1.386 . S
C323 C327 1.393 . S
C324 H313 0.950 . S
C324 C322 1.391 . S
C324 C325 1.400 . S
C325 C319 1.491 . S
C325 C324 1.400 . S
C325 C326 1.398 . S
C326 H314 0.950 . S
C326 C325 1.398 . S
C326 C327 1.391 . S
C327 H315 0.950 . S
C327 C323 1.393 . S
C327 C326 1.391 . S
H328 C336 0.950 . S
H329 C341 0.950 . S
H330 C338 0.950 . S
H331 C340 0.950 . S
H332 C342 0.950 . S
H333 C344 0.950 . S
H334 C346 0.950 . S
H335 C347 0.950 . S
C336 H328 0.950 . S
C336 C337 1.386 . S
C336 C338 1.391 . S
C337 C336 1.386 . S
C337 C341 1.393 . S
C338 H330 0.950 . S
C338 C336 1.391 . S
C338 C339 1.400 . S
C339 C338 1.400 . S
C339 C340 1.398 . S
C339 C345 1.491 . S
C340 H331 0.950 . S
C340 C339 1.398 . S
C340 C341 1.391 . S
C341 H329 0.950 . S
C341 C337 1.393 . S
C341 C340 1.391 . S
C342 H332 0.950 . S
C342 C343 1.386 . S
C342 C344 1.391 . S
C343 C342 1.386 . S
C343 C347 1.393 . S
C344 H333 0.950 . S
C344 C342 1.391 . S
C344 C345 1.400 . S
C345 C339 1.491 . S
C345 C344 1.400 . S
C345 C346 1.398 . S
C346 H334 0.950 . S
C346 C345 1.398 . S
C346 C347 1.391 . S
C347 H335 0.950 . S
C347 C343 1.393 . S
C347 C346 1.391 . S
H348 C356 0.950 . S
H349 C361 0.950 . S
H350 C358 0.950 . S
H351 C360 0.968 . S
H352 C362 0.950 . S
H353 C364 0.950 . S
H354 C366 0.968 . S
H355 C367 0.950 . S
C356 H348 0.950 . S
C356 C357 1.386 . S
C356 C358 1.391 . S
C357 C356 1.386 . S
C357 C361 1.393 . S
C358 H350 0.950 . S
C358 C356 1.391 . S
C358 C359 1.400 . S
C359 C358 1.400 . S
C359 C360 1.398 . S
C359 C365 1.491 1_556 S
C360 H351 0.968 . S
C360 C359 1.398 . S
C360 C361 1.391 . S
C361 H349 0.950 . S
C361 C357 1.393 . S
C361 C360 1.391 . S
C362 H352 0.950 . S
C362 C363 1.386 . S
C362 C364 1.391 . S
C363 C362 1.386 . S
C363 C367 1.393 . S
C364 H353 0.950 . S
C364 C362 1.391 . S
C364 C365 1.400 . S
C365 C359 1.491 1_554 S
C365 C364 1.400 . S
C365 C366 1.398 . S
C366 H354 0.968 . S
C366 C365 1.398 . S
C366 C367 1.391 . S
C367 H355 0.950 . S
C367 C363 1.393 . S
C367 C366 1.391 . S
H368 C376 0.950 . S
H369 C381 0.950 . S
H370 C378 0.950 . S
H371 C380 0.950 . S
H372 C382 0.950 . S
H373 C384 0.950 . S
H374 C386 0.950 . S
H375 C387 0.950 . S
C376 H368 0.950 . S
C376 C377 1.386 . S
C376 C378 1.391 . S
C377 C376 1.386 . S
C377 C381 1.393 . S
C378 H370 0.950 . S
C378 C376 1.391 . S
C378 C379 1.400 . S
C379 C378 1.400 . S
C379 C380 1.398 . S
C379 C385 1.491 . S
C380 H371 0.950 . S
C380 C379 1.398 . S
C380 C381 1.391 . S
C381 H369 0.950 . S
C381 C377 1.393 . S
C381 C380 1.391 . S
C382 H372 0.950 . S
C382 C383 1.386 . S
C382 C384 1.391 . S
C383 C382 1.386 . S
C383 C387 1.393 . S
C384 H373 0.950 . S
C384 C382 1.391 . S
C384 C385 1.400 . S
C385 C379 1.491 . S
C385 C384 1.400 . S
C385 C386 1.398 . S
C386 H374 0.950 . S
C386 C385 1.398 . S
C386 C387 1.391 . S
C387 H375 0.950 . S
C387 C383 1.393 . S
C387 C386 1.391 . S
H388 C396 0.950 . S
H389 C401 0.950 . S
H390 C398 0.950 . S
H391 C400 0.950 . S
H392 C402 0.950 . S
H393 C404 0.950 . S
H394 C406 0.950 . S
H395 C407 0.950 . S
C396 H388 0.950 . S
C396 C397 1.386 . S
C396 C398 1.391 . S
C397 C396 1.386 . S
C397 C401 1.393 . S
C398 H390 0.950 . S
C398 C396 1.391 . S
C398 C399 1.400 . S
C399 C398 1.400 . S
C399 C400 1.398 . S
C399 C405 1.491 . S
C400 H391 0.950 . S
C400 C399 1.398 . S
C400 C401 1.391 . S
C401 H389 0.950 . S
C401 C397 1.393 . S
C401 C400 1.391 . S
C402 H392 0.950 . S
C402 C403 1.386 . S
C402 C404 1.391 . S
C403 C402 1.386 . S
C403 C407 1.393 . S
C404 H393 0.950 . S
C404 C402 1.391 . S
C404 C405 1.400 . S
C405 C399 1.491 . S
C405 C404 1.400 . S
C405 C406 1.398 . S
C406 H394 0.950 . S
C406 C405 1.398 . S
C406 C407 1.391 . S
C407 H395 0.950 . S
C407 C403 1.393 . S
C407 C406 1.391 . S
H408 C416 0.950 . S
H409 C421 0.950 . S
H410 C418 0.950 . S
H411 C420 0.950 . S
H412 C422 0.950 . S
H413 C424 0.950 . S
H414 C426 0.950 . S
H415 C427 0.950 . S
C416 H408 0.950 . S
C416 C417 1.386 . S
C416 C418 1.391 . S
C417 C416 1.386 . S
C417 C421 1.393 . S
C418 H410 0.950 . S
C418 C416 1.391 . S
C418 C419 1.400 . S
C419 C418 1.400 . S
C419 C420 1.398 . S
C419 C425 1.491 . S
C420 H411 0.950 . S
C420 C419 1.398 . S
C420 C421 1.391 . S
C421 H409 0.950 . S
C421 C417 1.393 . S
C421 C420 1.391 . S
C422 H412 0.950 . S
C422 C423 1.386 . S
C422 C424 1.391 . S
C423 C422 1.386 . S
C423 C427 1.393 . S
C424 H413 0.950 . S
C424 C422 1.391 . S
C424 C425 1.400 . S
C425 C419 1.491 . S
C425 C424 1.400 . S
C425 C426 1.398 . S
C426 H414 0.950 . S
C426 C425 1.398 . S
C426 C427 1.391 . S
C427 H415 0.950 . S
C427 C423 1.393 . S
C427 C426 1.391 . S
H428 C436 0.950 . S
H429 C441 0.950 . S
H430 C438 0.950 . S
H431 C440 0.950 . S
H432 C442 0.950 . S
H433 C444 0.950 . S
H434 C446 0.950 . S
H435 C447 0.950 . S
C436 H428 0.950 . S
C436 C437 1.386 . S
C436 C438 1.391 . S
C437 C436 1.386 . S
C437 C441 1.393 . S
C438 H430 0.950 . S
C438 C436 1.391 . S
C438 C439 1.400 . S
C439 C438 1.400 . S
C439 C440 1.398 . S
C439 C445 1.491 . S
C440 H431 0.950 . S
C440 C439 1.398 . S
C440 C441 1.391 . S
C441 H429 0.950 . S
C441 C437 1.393 . S
C441 C440 1.391 . S
C442 H432 0.950 . S
C442 C443 1.386 . S
C442 C444 1.391 . S
C443 C442 1.386 . S
C443 C447 1.393 . S
C444 H433 0.950 . S
C444 C442 1.391 . S
C444 C445 1.400 . S
C445 C439 1.491 . S
C445 C444 1.400 . S
C445 C446 1.398 . S
C446 H434 0.950 . S
C446 C445 1.398 . S
C446 C447 1.391 . S
C447 H435 0.950 . S
C447 C443 1.393 . S
C447 C446 1.391 . S
H448 C456 0.950 . S
H449 C461 0.950 . S
H450 C458 0.950 . S
H451 C460 0.950 . S
H452 C462 0.950 . S
H453 C464 0.950 . S
H454 C466 0.950 . S
H455 C467 0.950 . S
C456 H448 0.950 . S
C456 C457 1.386 . S
C456 C458 1.391 . S
C457 C456 1.386 . S
C457 C461 1.393 . S
C458 H450 0.950 . S
C458 C456 1.391 . S
C458 C459 1.400 . S
C459 C458 1.400 . S
C459 C460 1.398 . S
C459 C465 1.491 . S
C460 H451 0.950 . S
C460 C459 1.398 . S
C460 C461 1.391 . S
C461 H449 0.950 . S
C461 C457 1.393 . S
C461 C460 1.391 . S
C462 H452 0.950 . S
C462 C463 1.386 . S
C462 C464 1.391 . S
C463 C462 1.386 . S
C463 C467 1.393 . S
C464 H453 0.950 . S
C464 C462 1.391 . S
C464 C465 1.400 . S
C465 C459 1.491 . S
C465 C464 1.400 . S
C465 C466 1.398 . S
C466 H454 0.950 . S
C466 C465 1.398 . S
C466 C467 1.391 . S
C467 H455 0.950 . S
C467 C463 1.393 . S
C467 C466 1.391 . S
H468 C476 0.950 . S
H469 C481 0.950 . S
H470 C478 0.950 . S
H471 C480 0.950 . S
H472 C482 0.950 . S
H473 C484 0.950 . S
H474 C486 0.950 . S
H475 C487 0.950 . S
C476 H468 0.950 . S
C476 C477 1.386 . S
C476 C478 1.391 . S
C477 C476 1.386 . S
C477 C481 1.393 . S
C478 H470 0.950 . S
C478 C476 1.391 . S
C478 C479 1.400 . S
C479 C478 1.400 . S
C479 C480 1.398 . S
C479 C485 1.491 . S
C480 H471 0.950 . S
C480 C479 1.398 . S
C480 C481 1.391 . S
C481 H469 0.950 . S
C481 C477 1.393 . S
C481 C480 1.391 . S
C482 H472 0.950 . S
C482 C483 1.386 . S
C482 C484 1.391 . S
C483 C482 1.386 . S
C483 C487 1.393 . S
C484 H473 0.950 . S
C484 C482 1.391 . S
C484 C485 1.400 . S
C485 C479 1.491 . S
C485 C484 1.400 . S
C485 C486 1.398 . S
C486 H474 0.950 . S
C486 C485 1.398 . S
C486 C487 1.391 . S
C487 H475 0.950 . S
C487 C483 1.393 . S
C487 C486 1.391 . S
H488 C496 0.950 . S
H489 C501 0.950 . S
H490 C498 0.950 . S
H491 C500 0.950 . S
H492 C502 0.950 . S
H493 C504 0.950 . S
H494 C506 0.950 . S
H495 C507 0.950 . S
C496 H488 0.950 . S
C496 C497 1.386 . S
C496 C498 1.391 . S
C497 C496 1.386 . S
C497 C501 1.393 . S
C498 H490 0.950 . S
C498 C496 1.391 . S
C498 C499 1.400 . S
C499 C498 1.400 . S
C499 C500 1.398 . S
C499 C505 1.491 . S
C500 H491 0.950 . S
C500 C499 1.398 . S
C500 C501 1.391 . S
C501 H489 0.950 . S
C501 C497 1.393 . S
C501 C500 1.391 . S
C502 H492 0.950 . S
C502 C503 1.386 . S
C502 C504 1.391 . S
C503 C502 1.386 . S
C503 C507 1.393 . S
C504 H493 0.950 . S
C504 C502 1.391 . S
C504 C505 1.400 . S
C505 C499 1.491 . S
C505 C504 1.400 . S
C505 C506 1.398 . S
C506 H494 0.950 . S
C506 C505 1.398 . S
C506 C507 1.391 . S
C507 H495 0.950 . S
C507 C503 1.393 . S
C507 C506 1.391 . S
H508 C516 0.950 . S
H509 C521 0.950 . S
H510 C518 0.950 . S
H511 C520 0.950 . S
H512 C522 0.950 . S
H513 C524 0.950 . S
H514 C526 0.950 . S
H515 C527 0.950 . S
C516 H508 0.950 . S
C516 C517 1.386 . S
C516 C518 1.391 . S
C517 C516 1.386 . S
C517 C521 1.393 . S
C518 H510 0.950 . S
C518 C516 1.391 . S
C518 C519 1.400 . S
C519 C518 1.400 . S
C519 C520 1.398 . S
C519 C525 1.491 . S
C520 H511 0.950 . S
C520 C519 1.398 . S
C520 C521 1.391 . S
C521 H509 0.950 . S
C521 C517 1.393 . S
C521 C520 1.391 . S
C522 H512 0.950 . S
C522 C523 1.386 . S
C522 C524 1.391 . S
C523 C522 1.386 . S
C523 C527 1.393 . S
C524 H513 0.950 . S
C524 C522 1.391 . S
C524 C525 1.400 . S
C525 C519 1.491 . S
C525 C524 1.400 . S
C525 C526 1.398 . S
C526 H514 0.950 . S
C526 C525 1.398 . S
C526 C527 1.391 . S
C527 H515 0.950 . S
C527 C523 1.393 . S
C527 C526 1.391 . S
H528 C536 0.950 . S
H529 C541 0.950 . S
H530 C538 0.950 . S
H531 C540 0.950 . S
H532 C542 0.950 . S
H533 C544 0.950 . S
H534 C546 0.950 . S
H535 C547 0.950 . S
C536 H528 0.950 . S
C536 C537 1.386 . S
C536 C538 1.391 . S
C537 C536 1.386 . S
C537 C541 1.393 . S
C538 H530 0.950 . S
C538 C536 1.391 . S
C538 C539 1.400 . S
C539 C538 1.400 . S
C539 C540 1.398 . S
C539 C545 1.491 . S
C540 H531 0.950 . S
C540 C539 1.398 . S
C540 C541 1.391 . S
C541 H529 0.950 . S
C541 C537 1.393 . S
C541 C540 1.391 . S
C542 H532 0.950 . S
C542 C543 1.386 . S
C542 C544 1.391 . S
C543 C542 1.386 . S
C543 C547 1.393 . S
C544 H533 0.950 . S
C544 C542 1.391 . S
C544 C545 1.400 . S
C545 C539 1.491 . S
C545 C544 1.400 . S
C545 C546 1.398 . S
C546 H534 0.950 . S
C546 C545 1.398 . S
C546 C547 1.391 . S
C547 H535 0.950 . S
C547 C543 1.393 . S
C547 C546 1.391 . S
H548 C556 0.950 . S
H549 C561 0.950 . S
H550 C558 0.950 . S
H551 C560 0.950 1_455 S
H552 C562 0.950 . S
H553 C564 0.950 . S
H554 C566 0.950 1_655 S
H555 C567 0.950 . S
C556 H548 0.950 . S
C556 C557 1.386 . S
C556 C558 1.391 . S
C557 C556 1.386 . S
C557 C561 1.393 . S
C558 H550 0.950 . S
C558 C556 1.391 . S
C558 C559 1.400 . S
C559 C558 1.400 . S
C559 C560 1.398 . S
C559 C565 1.491 1_655 S
C560 H551 0.950 1_655 S
C560 C559 1.398 . S
C560 C561 1.391 . S
C561 H549 0.950 . S
C561 C557 1.393 . S
C561 C560 1.391 . S
C562 H552 0.950 . S
C562 C563 1.386 . S
C562 C564 1.391 . S
C563 C562 1.386 . S
C563 C567 1.393 . S
C564 H553 0.950 . S
C564 C562 1.391 . S
C564 C565 1.400 . S
C565 C559 1.491 1_455 S
C565 C564 1.400 . S
C565 C566 1.398 . S
C566 H554 0.950 1_455 S
C566 C565 1.398 . S
C566 C567 1.391 . S
C567 H555 0.950 . S
C567 C563 1.393 . S
C567 C566 1.391 . S
H568 C576 0.950 . S
H569 C581 0.950 . S
H570 C578 0.950 1_565 S
H571 C580 0.950 . S
H572 C582 0.950 . S
H573 C584 0.950 1_545 S
H574 C586 0.950 . S
H575 C587 0.950 . S
C576 H568 0.950 . S
C576 C577 1.386 . S
C576 C578 1.391 . S
C577 C576 1.386 . S
C577 C581 1.393 . S
C578 H570 0.950 1_545 S
C578 C576 1.391 . S
C578 C579 1.400 . S
C579 C578 1.400 . S
C579 C580 1.398 . S
C579 C585 1.491 1_545 S
C580 H571 0.950 . S
C580 C579 1.398 . S
C580 C581 1.391 . S
C581 H569 0.950 . S
C581 C577 1.393 . S
C581 C580 1.391 . S
C582 H572 0.950 . S
C582 C583 1.386 . S
C582 C584 1.391 . S
C583 C582 1.386 . S
C583 C587 1.393 . S
C584 H573 0.950 1_565 S
C584 C582 1.391 . S
C584 C585 1.400 . S
C585 C579 1.491 1_565 S
C585 C584 1.400 . S
C585 C586 1.398 . S
C586 H574 0.950 . S
C586 C585 1.398 . S
C586 C587 1.391 . S
C587 H575 0.950 . S
C587 C583 1.393 . S
C587 C586 1.391 . S
H588 C596 0.950 . S
H589 C601 0.950 . S
H590 C598 0.950 . S
H591 C600 0.950 . S
H592 C602 0.950 . S
H593 C604 0.950 . S
H594 C606 0.950 . S
H595 C607 0.950 . S
C596 H588 0.950 . S
C596 C597 1.386 . S
C596 C598 1.391 . S
C597 C596 1.386 . S
C597 C601 1.393 . S
C598 H590 0.950 . S
C598 C596 1.391 . S
C598 C599 1.400 . S
C599 C598 1.400 . S
C599 C600 1.398 . S
C599 C605 1.491 . S
C600 H591 0.950 . S
C600 C599 1.398 . S
C600 C601 1.391 . S
C601 H589 0.950 . S
C601 C597 1.393 . S
C601 C600 1.391 . S
C602 H592 0.950 . S
C602 C603 1.386 . S
C602 C604 1.391 . S
C603 C602 1.386 . S
C603 C607 1.393 . S
C604 H593 0.950 . S
C604 C602 1.391 . S
C604 C605 1.400 . S
C605 C599 1.491 . S
C605 C604 1.400 . S
C605 C606 1.398 . S
C606 H594 0.950 . S
C606 C605 1.398 . S
C606 C607 1.391 . S
C607 H595 0.950 . S
C607 C603 1.393 . S
C607 C606 1.391 . S
H608 C616 0.950 . S
H609 C621 0.950 . S
H610 C618 0.950 1_655 S
H611 C620 0.950 . S
H612 C622 0.950 . S
H613 C624 0.950 1_455 S
H614 C626 0.950 . S
H615 C627 0.950 . S
C616 H608 0.950 . S
C616 C617 1.386 . S
C616 C618 1.391 . S
C617 C616 1.386 . S
C617 C621 1.393 . S
C618 H610 0.950 1_455 S
C618 C616 1.391 . S
C618 C619 1.400 . S
C619 C618 1.400 . S
C619 C620 1.398 . S
C619 C625 1.491 1_455 S
C620 H611 0.950 . S
C620 C619 1.398 . S
C620 C621 1.391 . S
C621 H609 0.950 . S
C621 C617 1.393 . S
C621 C620 1.391 . S
C622 H612 0.950 . S
C622 C623 1.386 . S
C622 C624 1.391 . S
C623 C622 1.386 . S
C623 C627 1.393 . S
C624 H613 0.950 1_655 S
C624 C622 1.391 . S
C624 C625 1.400 . S
C625 C619 1.491 1_655 S
C625 C624 1.400 . S
C625 C626 1.398 . S
C626 H614 0.950 . S
C626 C625 1.398 . S
C626 C627 1.391 . S
C627 H615 0.950 . S
C627 C623 1.393 . S
C627 C626 1.391 . S
H628 C636 0.950 . S
H629 C641 0.950 . S
H630 C638 0.950 1_545 S
H631 C640 0.950 . S
H632 C642 0.950 . S
H633 C644 0.950 1_565 S
H634 C646 0.950 . S
H635 C647 0.950 . S
C636 H628 0.950 . S
C636 C637 1.386 . S
C636 C638 1.391 . S
C637 C636 1.386 . S
C637 C641 1.393 . S
C638 H630 0.950 1_565 S
C638 C636 1.391 . S
C638 C639 1.400 . S
C639 C638 1.400 . S
C639 C640 1.398 . S
C639 C645 1.491 1_565 S
C640 H631 0.950 . S
C640 C639 1.398 . S
C640 C641 1.391 . S
C641 H629 0.950 . S
C641 C637 1.393 . S
C641 C640 1.391 . S
C642 H632 0.950 . S
C642 C643 1.386 . S
C642 C644 1.391 . S
C643 C642 1.386 . S
C643 C647 1.393 . S
C644 H633 0.950 1_545 S
C644 C642 1.391 . S
C644 C645 1.400 . S
C645 C639 1.491 1_545 S
C645 C644 1.400 . S
C645 C646 1.398 . S
C646 H634 0.950 . S
C646 C645 1.398 . S
C646 C647 1.391 . S
C647 H635 0.950 . S
C647 C643 1.393 . S
C647 C646 1.391 . S
C177 C105 1.183 . S
C183 C7 1.185 . S
C197 C21 1.179 . S
C203 C119 1.182 . S
C217 C35 1.185 . S
C223 C133 1.186 . S
C237 C49 1.175 . S
C243 C147 1.171 . S
C257 C161 1.169 . S
C263 C63 1.166 . S
C277 C91 1.176 . S
C283 C77 1.172 . S
C297 C149 1.712 . S
C303 C9 1.698 . S
C317 C23 1.705 . S
C323 C163 1.700 . S
C337 C37 1.698 . S
C343 C93 1.707 . S
C357 C107 1.704 . S
C363 C51 1.710 . S
C377 C121 1.710 . S
C383 C65 1.697 . S
C397 C135 1.700 . S
C403 C79 1.704 . S
C417 C6 1.750 . S
C423 C118 1.750 . S
C437 C20 1.743 . S
C443 C132 1.763 . S
C457 C146 1.744 . S
C463 C34 1.758 . S
C477 C48 1.743 . S
C483 C160 1.761 . S
C497 C90 1.756 . S
C503 C62 1.746 . S
C517 C104 1.753 . S
C523 C76 1.763 . S
C537 C50 1.320 . S
C543 C8 1.302 . S
C557 C64 1.326 . S
C563 C22 1.317 . S
C577 C36 1.304 . S
C583 C78 1.323 . S
C597 C92 1.311 . S
C603 C134 1.303 . S
C617 C106 1.305 . S
C623 C148 1.324 . S
C637 C162 1.303 . S
C643 C120 1.311 . S
