# Generated by pormake.
# Topology snw, (6)-cn, num edge types: 1
# Building blocks:
#     Node 0, Type 0, BuildingBlock: OJICUG_clean_sbu_0, # of connection points: 6
#     Node 1, Type 0, BuildingBlock: OJICUG_clean_sbu_0, # of connection points: 6
#     Node 2, Type 0, BuildingBlock: OJICUG_clean_sbu_0, # of connection points: 6
#     Node 3, Type 0, BuildingBlock: OJICUG_clean_sbu_0, # of connection points: 6
#     Node 4, Type 0, BuildingBlock: OJICUG_clean_sbu_0, # of connection points: 6
#     Node 5, Type 0, BuildingBlock: OJICUG_clean_sbu_0, # of connection points: 6
#     Node 6, Type 0, BuildingBlock: OJICUG_clean_sbu_0, # of connection points: 6
#     Node 7, Type 0, BuildingBlock: OJICUG_clean_sbu_0, # of connection points: 6
#     Edge 8, Type (0, 0), BuildingBlock: MIFKUJ_clean_linker_0, # of connection points: 2
#     Edge 9, Type (0, 0), BuildingBlock: MIFKUJ_clean_linker_0, # of connection points: 2
#     Edge 10, Type (0, 0), BuildingBlock: MIFKUJ_clean_linker_0, # of connection points: 2
#     Edge 11, Type (0, 0), BuildingBlock: MIFKUJ_clean_linker_0, # of connection points: 2
#     Edge 12, Type (0, 0), BuildingBlock: MIFKUJ_clean_linker_0, # of connection points: 2
#     Edge 13, Type (0, 0), BuildingBlock: MIFKUJ_clean_linker_0, # of connection points: 2
#     Edge 14, Type (0, 0), BuildingBlock: MIFKUJ_clean_linker_0, # of connection points: 2
#     Edge 15, Type (0, 0), BuildingBlock: MIFKUJ_clean_linker_0, # of connection points: 2
#     Edge 16, Type (0, 0), BuildingBlock: MIFKUJ_clean_linker_0, # of connection points: 2
#     Edge 17, Type (0, 0), BuildingBlock: MIFKUJ_clean_linker_0, # of connection points: 2
#     Edge 18, Type (0, 0), BuildingBlock: MIFKUJ_clean_linker_0, # of connection points: 2
#     Edge 19, Type (0, 0), BuildingBlock: MIFKUJ_clean_linker_0, # of connection points: 2
#     Edge 20, Type (0, 0), BuildingBlock: MIFKUJ_clean_linker_0, # of connection points: 2
#     Edge 21, Type (0, 0), BuildingBlock: MIFKUJ_clean_linker_0, # of connection points: 2
#     Edge 22, Type (0, 0), BuildingBlock: MIFKUJ_clean_linker_0, # of connection points: 2
#     Edge 23, Type (0, 0), BuildingBlock: MIFKUJ_clean_linker_0, # of connection points: 2
#     Edge 24, Type (0, 0), BuildingBlock: MIFKUJ_clean_linker_0, # of connection points: 2
#     Edge 25, Type (0, 0), BuildingBlock: MIFKUJ_clean_linker_0, # of connection points: 2
#     Edge 26, Type (0, 0), BuildingBlock: MIFKUJ_clean_linker_0, # of connection points: 2
#     Edge 27, Type (0, 0), BuildingBlock: MIFKUJ_clean_linker_0, # of connection points: 2
#     Edge 28, Type (0, 0), BuildingBlock: MIFKUJ_clean_linker_0, # of connection points: 2
#     Edge 29, Type (0, 0), BuildingBlock: MIFKUJ_clean_linker_0, # of connection points: 2
#     Edge 30, Type (0, 0), BuildingBlock: MIFKUJ_clean_linker_0, # of connection points: 2
#     Edge 31, Type (0, 0), BuildingBlock: MIFKUJ_clean_linker_0, # of connection points: 2
# Relax obj value: 0.000
# Max RMSD: 0.008
# Mean RMSD: 0.008
data_MOF--net-snw--node1-OJICUG_clean_sbu_0--edge1-MIFKUJ_clean_linker_0
_symmetry_space_group_name_H-M    P1
_symmetry_Int_Tables_number       1
_symmetry_cell_setting            triclinic
loop_
_symmetry_equiv_pos_as_xyz
'x, y, z'
_cell_length_a     27.745444
_cell_length_b     27.821875
_cell_length_c     94.360559
_cell_angle_alpha  90.025587
_cell_angle_beta   90.040308
_cell_angle_gamma 90.021564
loop_
_atom_site_label
_atom_site_type_symbol
_atom_site_fract_x
_atom_site_fract_y
_atom_site_fract_z
_atom_type_partial_charge
Sc0 Sc 0.0568 0.24122 0.07158 0.0
Sc1 Sc 0.93015 0.24581 0.07232 0.0
Sc2 Sc -0.00405 0.24484 0.10426 0.0
O3 O 0.9943 0.24399 0.08272 0.0
C4 C 0.07963 0.17008 0.09697 0.0
C5 C 0.98852 0.17015 0.05391 0.0
C6 C 0.90729 0.17607 0.09844 0.0
C7 C -0.00438 0.31324 0.05273 0.0
C8 C 0.08302 0.31417 0.09671 0.0
C9 C 0.91164 0.31963 0.09731 0.0
O10 O 0.08444 0.18327 0.08418 0.0
O11 O 0.9491 0.18603 0.05894 0.0
O12 O 0.94363 0.18827 0.10579 0.0
O13 O 0.03561 0.29843 0.05762 0.0
O14 O 0.04865 0.30132 0.10476 0.0
O15 O 0.90528 0.30582 0.08461 0.0
O16 O 0.0913 0.29445 0.08479 0.0
O17 O 0.95527 0.29639 0.05672 0.0
O18 O 0.9411 0.2994 0.10573 0.0
O19 O 0.02936 0.1878 0.05716 0.0
O20 O 0.05092 0.19042 0.10557 0.0
O21 O 0.89683 0.19543 0.08662 0.0
Sc22 Sc -0.00349 0.81066 0.32293 0.0
Sc23 Sc 0.99367 0.68417 0.32099 0.0
Sc24 Sc -0.00289 0.74151 0.35424 0.0
O25 O -0.0042 0.74547 0.33271 0.0
C26 C 0.0715 0.82626 0.3482 0.0
C27 C 0.06462 0.74967 0.30263 0.0
C28 C 0.06667 0.65491 0.34548 0.0
C29 C 0.92129 0.7518 0.30402 0.0
C30 C 0.92721 0.83089 0.3491 0.0
C31 C 0.92256 0.65873 0.34659 0.0
O32 O 0.05301 0.83763 0.33634 0.0
O33 O 0.04677 0.70936 0.30616 0.0
O34 O 0.04972 0.6848 0.35436 0.0
O35 O 0.93993 0.79086 0.3084 0.0
O36 O 0.94402 0.7972 0.35672 0.0
O37 O 0.93976 0.65157 0.33428 0.0
O38 O 0.94222 0.83976 0.33667 0.0
O39 O 0.93626 0.71067 0.30788 0.0
O40 O 0.93881 0.69074 0.35492 0.0
O41 O 0.05105 0.78923 0.30804 0.0
O42 O 0.05589 0.79187 0.35579 0.0
O43 O 0.05118 0.65134 0.33285 0.0
Sc44 Sc 0.55622 0.74182 0.57129 0.0
Sc45 Sc 0.4296 0.74359 0.57101 0.0
Sc46 Sc 0.49229 0.75067 0.60337 0.0
O47 O 0.49268 0.74529 0.58189 0.0
C48 C 0.5779 0.67555 0.59777 0.0
C49 C 0.4909 0.66787 0.55368 0.0
C50 C 0.40566 0.67862 0.59814 0.0
C51 C 0.49559 0.81022 0.55129 0.0
C52 C 0.57951 0.8187 0.59554 0.0
C53 C 0.40656 0.82158 0.59457 0.0
O54 O 0.58243 0.68525 0.58468 0.0
O55 O 0.45087 0.68199 0.55872 0.0
O56 O 0.4409 0.69329 0.6056 0.0
O57 O 0.53549 0.79805 0.55687 0.0
O58 O 0.54309 0.80903 0.60317 0.0
O59 O 0.4019 0.80533 0.58206 0.0
O60 O 0.59022 0.79551 0.58438 0.0
O61 O 0.45548 0.79181 0.55491 0.0
O62 O 0.43575 0.80375 0.60353 0.0
O63 O 0.53082 0.68761 0.55681 0.0
O64 O 0.54905 0.69806 0.60589 0.0
O65 O 0.39642 0.69509 0.58587 0.0
Sc66 Sc 0.49721 0.30669 0.82079 0.0
Sc67 Sc 0.49417 0.18033 0.82311 0.0
Sc68 Sc 0.50029 0.25044 0.85423 0.0
O69 O 0.49722 0.24581 0.83271 0.0
C70 C 0.57327 0.33348 0.8449 0.0
C71 C 0.56494 0.23748 0.80256 0.0
C72 C 0.56923 0.1614 0.84813 0.0
C73 C 0.42147 0.24159 0.80411 0.0
C74 C 0.42903 0.33631 0.8466 0.0
C75 C 0.42535 0.1644 0.84973 0.0
O76 O 0.55605 0.33805 0.83248 0.0
O77 O 0.54886 0.19872 0.80789 0.0
O78 O 0.55586 0.19673 0.8557 0.0
O79 O 0.43865 0.28218 0.80769 0.0
O80 O 0.44541 0.30481 0.85508 0.0
O81 O 0.4393 0.15452 0.83724 0.0
O82 O 0.44457 0.34142 0.83402 0.0
O83 O 0.43804 0.20202 0.80874 0.0
O84 O 0.44412 0.19767 0.85716 0.0
O85 O 0.54955 0.27874 0.80615 0.0
O86 O 0.55643 0.30391 0.85389 0.0
O87 O 0.54983 0.15089 0.83633 0.0
Sc88 Sc 0.00038 0.75241 0.89262 0.0
Sc89 Sc 0.06067 0.74463 0.92543 0.0
Sc90 Sc 0.93376 0.74093 0.92424 0.0
O91 O -0.00174 0.74596 0.9141 0.0
C92 C 0.91111 0.81911 0.90044 0.0
C93 C 0.08467 0.82341 0.90188 0.0
C94 C 0.99341 0.81085 0.94463 0.0
C95 C 0.08707 0.67971 0.89878 0.0
C96 C 0.91598 0.67555 0.89693 0.0
C97 C -0.00278 0.66764 0.94221 0.0
O98 O 0.94531 0.80656 0.89231 0.0
O99 O 0.09288 0.80244 0.91358 0.0
O100 O 0.95413 0.79347 0.9399 0.0
O101 O 0.05641 0.69916 0.89056 0.0
O102 O 0.90702 0.68788 0.90964 0.0
O103 O 0.03716 0.68663 0.93878 0.0
O104 O 0.94831 0.69571 0.88945 0.0
O105 O 0.09215 0.69178 0.91169 0.0
O106 O 0.95701 0.68291 0.93763 0.0
O107 O 0.05183 0.81019 0.89335 0.0
O108 O 0.90224 0.79841 0.91215 0.0
O109 O 0.03463 0.79722 0.94031 0.0
Sc110 Sc 0.49512 0.74344 0.14236 0.0
Sc111 Sc 0.49418 0.80953 0.17417 0.0
Sc112 Sc 0.49699 0.68294 0.17514 0.0
O113 O 0.4954 0.74528 0.1639 0.0
C114 C 0.42459 0.65693 0.14986 0.0
C115 C 0.42064 0.82821 0.14898 0.0
C116 C 0.42508 0.74574 0.19369 0.0
C117 C 0.56493 0.83156 0.14823 0.0
C118 C 0.5693 0.65943 0.1499 0.0
C119 C 0.56846 0.75044 0.19291 0.0
O120 O 0.43889 0.69042 0.14173 0.0
O121 O 0.43527 0.8356 0.16156 0.0
O122 O 0.43972 0.70544 0.18903 0.0
O123 O 0.55153 0.79609 0.14072 0.0
O124 O 0.55471 0.65375 0.16256 0.0
O125 O 0.55277 0.78975 0.18784 0.0
O126 O 0.55022 0.68927 0.1414 0.0
O127 O 0.54621 0.84156 0.16016 0.0
O128 O 0.55092 0.7097 0.18958 0.0
O129 O 0.43993 0.79752 0.14077 0.0
O130 O 0.44308 0.64914 0.16198 0.0
O131 O 0.44233 0.78563 0.18954 0.0
Sc132 Sc 0.49772 0.24104 0.3918 0.0
Sc133 Sc 0.55771 0.24478 0.42473 0.0
Sc134 Sc 0.43077 0.24231 0.42353 0.0
O135 O 0.4954 0.24281 0.41335 0.0
C136 C 0.40957 0.31232 0.39757 0.0
C137 C 0.58211 0.31496 0.39898 0.0
C138 C 0.49134 0.31587 0.44252 0.0
C139 C 0.58419 0.17101 0.40018 0.0
C140 C 0.41211 0.16827 0.39823 0.0
C141 C 0.49318 0.17241 0.4429 0.0
O142 O 0.44204 0.2945 0.38964 0.0
O143 O 0.58919 0.29869 0.41139 0.0
O144 O 0.45197 0.29735 0.43831 0.0
O145 O 0.55285 0.1868 0.39155 0.0
O146 O 0.40149 0.18699 0.41011 0.0
O147 O 0.5333 0.19084 0.43935 0.0
O148 O 0.44646 0.18327 0.39053 0.0
O149 O 0.59027 0.18824 0.41252 0.0
O150 O 0.45307 0.18651 0.43789 0.0
O151 O 0.54989 0.29841 0.39072 0.0
O152 O 0.40202 0.29791 0.41016 0.0
O153 O 0.5323 0.30155 0.43825 0.0
Sc154 Sc 0.99197 0.24966 0.64223 0.0
Sc155 Sc 0.99325 0.30616 0.67568 0.0
Sc156 Sc -0.00237 0.1799 0.67341 0.0
O157 O 0.99432 0.24524 0.66377 0.0
C158 C 0.92364 0.15969 0.64816 0.0
C159 C 0.91869 0.33253 0.65102 0.0
C160 C 0.92416 0.23698 0.69331 0.0
C161 C 0.06281 0.33587 0.65035 0.0
C162 C 0.0681 0.16512 0.64701 0.0
C163 C 0.06776 0.2414 0.69305 0.0
O164 O 0.93803 0.19435 0.64048 0.0
O165 O 0.93673 0.33866 0.66327 0.0
O166 O 0.94242 0.19832 0.68852 0.0
O167 O 0.0452 0.30595 0.64157 0.0
O168 O 0.05324 0.15457 0.65937 0.0
O169 O 0.04918 0.28154 0.68969 0.0
O170 O 0.04941 0.19835 0.63957 0.0
O171 O 0.04849 0.33956 0.6631 0.0
O172 O 0.05351 0.20175 0.68784 0.0
O173 O 0.93446 0.30133 0.64236 0.0
O174 O 0.94193 0.15018 0.66019 0.0
O175 O 0.93837 0.27847 0.6895 0.0
H176 H 0.91837 0.35148 0.03861 0.0
H177 H 0.91959 0.41031 0.01945 0.0
H178 H 0.07458 0.41809 0.02218 0.0
H179 H 0.07388 0.35959 0.04147 0.0
H180 H 0.03384 0.50649 0.0198 0.0
H181 H 0.0225 0.35413 0.99619 0.0
H182 H 0.98814 0.27416 0.99117 0.0
H183 H 0.85363 0.33916 0.97938 0.0
H184 H 0.88697 0.41952 0.98453 0.0
H185 H 0.07531 0.62624 0.95508 0.0
H186 H 0.07514 0.56424 0.97335 0.0
H187 H 0.92008 0.55626 0.97109 0.0
H188 H 0.91972 0.61795 0.95269 0.0
H189 H 0.96141 0.4674 0.97308 0.0
H190 H 0.97215 0.61941 0.99705 0.0
H191 H 0.00621 0.69948 0.00209 0.0
H192 H 0.1416 0.63505 0.01328 0.0
H193 H 0.10853 0.55459 0.00809 0.0
C194 C 0.95278 0.36576 0.0352 0.0
C195 C -0.00392 0.35055 0.04155 0.0
C196 C 0.95337 0.39923 0.0242 0.0
C197 C -0.00278 0.41796 0.01929 0.0
C198 C 0.04038 0.40384 0.0258 0.0
C199 C 0.03987 0.37033 0.0368 0.0
C200 C -0.00196 0.4523 0.00733 0.0
C201 C 0.01863 0.49773 0.00952 0.0
C202 C 0.97719 0.4411 0.99404 0.0
C203 C 0.9571 0.39282 0.99088 0.0
C204 C 0.98546 0.35135 0.99264 0.0
C205 C 0.9662 0.30595 0.98975 0.0
C206 C 0.9187 0.30157 0.985 0.0
C207 C 0.8904 0.3426 0.98308 0.0
C208 C 0.90948 0.38809 0.98598 0.0
C209 C 0.04112 0.61115 0.95837 0.0
C210 C -0.00254 0.62748 0.9525 0.0
C211 C 0.04113 0.5758 0.96885 0.0
C212 C -0.00245 0.5563 0.97371 0.0
C213 C 0.95407 0.57108 0.96751 0.0
C214 C 0.95398 0.60645 0.95702 0.0
C215 C -0.00275 0.52153 0.98555 0.0
C216 C 0.97671 0.47607 0.98335 0.0
C217 C 0.01811 0.53269 -0.00116 0.0
C218 C 0.03801 0.58102 0.00204 0.0
C219 C 0.0093 0.62234 0.00047 0.0
C220 C 0.02841 0.66779 0.00338 0.0
C221 C 0.07608 0.67236 0.00797 0.0
C222 C 0.1047 0.63146 0.0097 0.0
C223 C 0.08579 0.58593 0.00679 0.0
H224 H 0.09081 0.70758 0.01021 0.0
H225 H 0.90385 0.26639 0.98276 0.0
H226 H 0.61239 0.6749 0.20628 0.0
H227 H 0.67251 0.67847 0.22512 0.0
H228 H 0.67291 0.83329 0.22274 0.0
H229 H 0.61322 0.83025 0.20374 0.0
H230 H 0.76364 0.79673 0.22589 0.0
H231 H 0.60879 0.77765 0.24753 0.0
H232 H 0.52993 0.73908 0.251 0.0
H233 H 0.59962 0.60866 0.26412 0.0
H234 H 0.67917 0.64604 0.26025 0.0
H235 H 0.88123 0.83205 0.29192 0.0
H236 H 0.81979 0.83492 0.27338 0.0
H237 H 0.81079 0.68014 0.27367 0.0
H238 H 0.8716 0.67675 0.29229 0.0
H239 H 0.72265 0.72097 0.27196 0.0
H240 H 0.87632 0.73692 0.24913 0.0
H241 H 0.95604 0.77311 0.24512 0.0
H242 H 0.88939 0.90729 0.23408 0.0
H243 H 0.80906 0.8721 0.2384 0.0
C244 C 0.62543 0.70976 0.20966 0.0
C245 C 0.6075 0.75232 0.20359 0.0
C246 C 0.65972 0.7117 0.22046 0.0
C247 C 0.67645 0.75617 0.22546 0.0
C248 C 0.66021 0.79863 0.21906 0.0
C249 C 0.62596 0.79677 0.20823 0.0
C250 C 0.70959 0.75835 0.23772 0.0
C251 C 0.75445 0.78081 0.23603 0.0
C252 C 0.69775 0.73682 0.25086 0.0
C253 C 0.64996 0.71454 0.25347 0.0
C254 C 0.60735 0.74063 0.25105 0.0
C255 C 0.56247 0.71896 0.25311 0.0
C256 C 0.55968 0.67143 0.25782 0.0
C257 C 0.60183 0.64547 0.26047 0.0
C258 C 0.64683 0.66686 0.25832 0.0
C259 C 0.86597 0.79859 0.28813 0.0
C260 C 0.88173 0.75413 0.29352 0.0
C261 C 0.83097 0.80034 0.2775 0.0
C262 C 0.81132 0.75771 0.27204 0.0
C263 C 0.82565 0.71344 0.27773 0.0
C264 C 0.86057 0.71161 0.28835 0.0
C265 C 0.7769 0.75889 0.26008 0.0
C266 C 0.73173 0.73714 0.26184 0.0
C267 C 0.78855 0.78087 0.247 0.0
C268 C 0.83672 0.80203 0.24426 0.0
C269 C 0.87865 0.77426 0.24597 0.0
C270 C 0.92398 0.7946 0.24362 0.0
C271 C 0.92786 0.84253 0.23935 0.0
C272 C 0.88635 0.87019 0.23741 0.0
C273 C 0.8409 0.85008 0.23983 0.0
H274 H 0.96301 0.85822 0.23752 0.0
H275 H 0.52492 0.65467 0.25941 0.0
H276 H 0.41569 0.60938 0.54589 0.0
H277 H 0.41529 0.5483 0.52723 0.0
H278 H 0.56552 0.57628 0.51888 0.0
H279 H 0.56641 0.63729 0.53743 0.0
H280 H 0.51187 0.57635 0.49476 0.0
H281 H 0.53351 0.47742 0.53547 0.0
H282 H 0.51658 0.4428 0.55898 0.0
H283 H 0.3809 0.38893 0.54388 0.0
H284 H 0.39638 0.42438 0.52037 0.0
H285 H 0.56528 0.37332 0.45161 0.0
H286 H 0.56304 0.43373 0.47038 0.0
H287 H 0.41159 0.4062 0.47669 0.0
H288 H 0.41333 0.34557 0.45795 0.0
H289 H 0.46428 0.40608 0.50168 0.0
H290 H 0.44461 0.5063 0.46062 0.0
H291 H 0.46559 0.53785 0.437 0.0
H292 H 0.60233 0.58623 0.45288 0.0
H293 H 0.58247 0.55432 0.47656 0.0
C294 C 0.44876 0.60232 0.54016 0.0
C295 C 0.49104 0.6284 0.54314 0.0
C296 C 0.44847 0.56731 0.52954 0.0
C297 C 0.49039 0.55784 0.52171 0.0
C298 C 0.53277 0.58321 0.52479 0.0
C299 C 0.53321 0.61793 0.53545 0.0
C300 C 0.48974 0.52279 0.50992 0.0
C301 C 0.50198 0.53898 0.4963 0.0
C302 C 0.47591 0.47433 0.51192 0.0
C303 C 0.46584 0.45417 0.52619 0.0
C304 C 0.49971 0.45885 0.53721 0.0
C305 C 0.49044 0.43895 0.55053 0.0
C306 C 0.44767 0.41375 0.55293 0.0
C307 C 0.41402 0.4085 0.54201 0.0
C308 C 0.42296 0.42861 0.5287 0.0
C309 C 0.53139 0.38024 0.45692 0.0
C310 C 0.48949 0.35451 0.45328 0.0
C311 C 0.53017 0.41491 0.4676 0.0
C312 C 0.4871 0.42447 0.47485 0.0
C313 C 0.44515 0.39925 0.47119 0.0
C314 C 0.44622 0.36479 0.46044 0.0
C315 C 0.48627 0.45971 0.48657 0.0
C316 C 0.47384 0.44355 0.50016 0.0
C317 C 0.50027 0.50809 0.48457 0.0
C318 C 0.51221 0.52751 0.47034 0.0
C319 C 0.47932 0.5233 0.45905 0.0
C320 C 0.49099 0.54132 0.44566 0.0
C321 C 0.5353 0.56394 0.44343 0.0
C322 C 0.56803 0.56866 0.45461 0.0
C323 C 0.55656 0.55066 0.46803 0.0
H324 H 0.54423 0.57794 0.43306 0.0
H325 H 0.4406 0.39827 0.56324 0.0
H326 H 0.60458 0.15645 0.79081 0.0
H327 H 0.66422 0.15211 0.77182 0.0
H328 H 0.66984 0.30695 0.77013 0.0
H329 H 0.60987 0.31182 0.78895 0.0
H330 H 0.66245 0.26804 0.744 0.0
H331 H 0.75905 0.24291 0.7859 0.0
H332 H 0.78149 0.20279 0.80825 0.0
H333 H 0.79994 0.06926 0.78607 0.0
H334 H 0.77696 0.10847 0.76361 0.0
H335 H 0.87669 0.31097 0.70631 0.0
H336 H 0.81394 0.30575 0.72427 0.0
H337 H 0.81997 0.15094 0.72248 0.0
H338 H 0.88347 0.15564 0.70458 0.0
H339 H 0.81874 0.18343 0.74954 0.0
H340 H 0.72711 0.20948 0.70738 0.0
H341 H 0.70517 0.24954 0.68499 0.0
H342 H 0.67707 0.38071 0.7075 0.0
H343 H 0.69954 0.34163 0.73002 0.0
C344 C 0.6186 0.18963 0.78645 0.0
C345 C 0.60238 0.23451 0.79142 0.0
C346 C 0.65277 0.18704 0.77562 0.0
C347 C 0.6716 0.22922 0.76965 0.0
C348 C 0.65563 0.27399 0.77459 0.0
C349 C 0.62145 0.27665 0.78539 0.0
C350 C 0.70754 0.22694 0.7581 0.0
C351 C 0.69684 0.24997 0.74525 0.0
C352 C 0.75169 0.20204 0.75961 0.0
C353 C 0.76577 0.17851 0.7731 0.0
C354 C 0.76752 0.2049 0.78581 0.0
C355 C 0.7804 0.18235 0.79849 0.0
C356 C 0.79199 0.13348 0.79859 0.0
C357 C 0.79087 0.1071 0.78599 0.0
C358 C 0.77795 0.12947 0.77327 0.0
C359 C 0.86468 0.27573 0.70966 0.0
C360 C 0.88515 0.23371 0.70396 0.0
C361 C 0.82862 0.27285 0.7199 0.0
C362 C 0.81197 0.22796 0.72457 0.0
C363 C 0.83231 0.18592 0.71897 0.0
C364 C 0.86849 0.18873 0.70872 0.0
C365 C 0.77398 0.22524 0.73553 0.0
C366 C 0.78421 0.20119 0.74825 0.0
C367 C 0.72933 0.24914 0.73389 0.0
C368 C 0.71539 0.2727 0.72038 0.0
C369 C 0.71659 0.24696 0.70755 0.0
C370 C 0.704 0.26949 0.69483 0.0
C371 C 0.68984 0.31767 0.69482 0.0
C372 C 0.68809 0.3434 0.70753 0.0
C373 C 0.70069 0.32106 0.72027 0.0
H374 H 0.68013 0.33505 0.68496 0.0
H375 H 0.80195 0.11608 0.80842 0.0
H376 H 0.38514 0.16304 0.79027 0.0
H377 H 0.3239 0.16182 0.77168 0.0
H378 H 0.30702 0.31538 0.77543 0.0
H379 H 0.36818 0.31714 0.79408 0.0
H380 H 0.21972 0.26675 0.77311 0.0
H381 H 0.37315 0.273 0.74946 0.0
H382 H 0.45589 0.24619 0.74415 0.0
H383 H 0.4019 0.10909 0.73051 0.0
H384 H 0.31883 0.13486 0.73595 0.0
H385 H 0.10257 0.31723 0.70846 0.0
H386 H 0.16194 0.3151 0.72752 0.0
H387 H 0.17898 0.16231 0.72165 0.0
H388 H 0.11979 0.16395 0.70246 0.0
H389 H 0.26544 0.20821 0.72527 0.0
H390 H 0.11202 0.20201 0.7483 0.0
H391 H 0.02914 0.22808 0.75371 0.0
H392 H 0.08255 0.3638 0.76868 0.0
H393 H 0.16575 0.33882 0.76315 0.0
C394 C 0.36819 0.19657 0.78725 0.0
C395 C 0.38189 0.24027 0.7936 0.0
C396 C 0.33333 0.19577 0.77658 0.0
C397 C 0.31149 0.23859 0.7721 0.0
C398 C 0.32368 0.282 0.77874 0.0
C399 C 0.35875 0.28291 0.78935 0.0
C400 C 0.27689 0.23829 0.76018 0.0
C401 C 0.22978 0.2545 0.76261 0.0
C402 C 0.28994 0.22118 0.74659 0.0
C403 C 0.33983 0.20568 0.74326 0.0
C404 C 0.37895 0.23699 0.74545 0.0
C405 C 0.4259 0.22201 0.7424 0.0
C406 C 0.43416 0.17592 0.73704 0.0
C407 C 0.39545 0.14476 0.73469 0.0
C408 C 0.34843 0.15954 0.73774 0.0
C409 C 0.11908 0.28315 0.71113 0.0
C410 C 0.1061 0.24068 0.70397 0.0
C411 C 0.15286 0.28201 0.72208 0.0
C412 C 0.17424 0.23844 0.72611 0.0
C413 C 0.16264 0.19625 0.71872 0.0
C414 C 0.12873 0.19729 0.70778 0.0
C415 C 0.20826 0.23692 0.73817 0.0
C416 C 0.25528 0.22035 0.73578 0.0
C417 C 0.19509 0.25358 0.7518 0.0
C418 C 0.14509 0.26872 0.75517 0.0
C419 C 0.10607 0.23758 0.75263 0.0
C420 C 0.05903 0.25213 0.75574 0.0
C421 C 0.05057 0.29761 0.7615 0.0
C422 C 0.08915 0.3286 0.7642 0.0
C423 C 0.13627 0.31426 0.76108 0.0
H424 H 0.01412 0.3088 0.76391 0.0
H425 H 0.47053 0.16439 0.73468 0.0
H426 H 0.39985 0.82071 0.21083 0.0
H427 H 0.33861 0.82161 0.22938 0.0
H428 H 0.30323 0.67395 0.22013 0.0
H429 H 0.36472 0.67248 0.20153 0.0
H430 H 0.22238 0.73474 0.2227 0.0
H431 H 0.36558 0.69421 0.24881 0.0
H432 H 0.44912 0.703 0.2572 0.0
H433 H 0.41607 0.84278 0.27389 0.0
H434 H 0.33211 0.83478 0.26556 0.0
H435 H 0.08846 0.6776 0.28426 0.0
H436 H 0.14847 0.67975 0.26538 0.0
H437 H 0.1849 0.8256 0.27661 0.0
H438 H 0.1248 0.82395 0.29557 0.0
H439 H 0.26477 0.76787 0.27288 0.0
H440 H 0.12257 0.80959 0.24737 0.0
H441 H 0.0386 0.80274 0.23919 0.0
H442 H 0.06902 0.66398 0.22136 0.0
H443 H 0.15342 0.67005 0.22948 0.0
C444 C 0.37901 0.7884 0.21269 0.0
C445 C 0.3872 0.74647 0.2047 0.0
C446 C 0.34423 0.78896 0.22335 0.0
C447 C 0.31681 0.74775 0.22616 0.0
C448 C 0.32424 0.70605 0.2181 0.0
C449 C 0.35942 0.70526 0.20752 0.0
C450 C 0.28 0.74848 0.23746 0.0
C451 C 0.23164 0.74126 0.23371 0.0
C452 C 0.29211 0.7586 0.25171 0.0
C453 C 0.34277 0.76411 0.25642 0.0
C454 C 0.37626 0.72704 0.25413 0.0
C455 C 0.42367 0.73182 0.25893 0.0
C456 C 0.43804 0.77353 0.26603 0.0
C457 C 0.40494 0.81053 0.26837 0.0
C458 C 0.3574 0.80584 0.26364 0.0
C459 C 0.10926 0.71015 0.28276 0.0
C460 C 0.10181 0.75064 0.29142 0.0
C461 C 0.14329 0.71139 0.2719 0.0
C462 C 0.17064 0.75299 0.26953 0.0
C463 C 0.1639 0.79325 0.27826 0.0
C464 C 0.12952 0.79223 0.28905 0.0
C465 C 0.20715 0.75383 0.25815 0.0
C466 C 0.25545 0.7614 0.26188 0.0
C467 C 0.19494 0.74437 0.24387 0.0
C468 C 0.14413 0.74005 0.23917 0.0
C469 C 0.11124 0.7774 0.24183 0.0
C470 C 0.06358 0.77371 0.23716 0.0
C471 C 0.04834 0.73282 0.22982 0.0
C472 C 0.08084 0.69559 0.22708 0.0
C473 C 0.12863 0.69919 0.23167 0.0
H474 H 0.01142 0.73004 0.2262 0.0
H475 H 0.47474 0.77712 0.26977 0.0
H476 H 0.41739 0.11577 0.45115 0.0
H477 H 0.41779 0.05237 0.46904 0.0
H478 H 0.56913 0.07727 0.47661 0.0
H479 H 0.56943 0.13999 0.45857 0.0
H480 H 0.54978 0.9832 0.47554 0.0
H481 H 0.48331 0.12197 0.49905 0.0
H482 H 0.42671 0.18955 0.50205 0.0
H483 H 0.30777 0.09085 0.5033 0.0
H484 H 0.36364 0.0227 0.50013 0.0
H485 H 0.57164 0.86429 0.54178 0.0
H486 H 0.57095 0.92433 0.52289 0.0
H487 H 0.41931 0.89867 0.5161 0.0
H488 H 0.41932 0.83937 0.53509 0.0
H489 H 0.43805 0.99222 0.51649 0.0
H490 H 0.50439 0.85319 0.49355 0.0
H491 H 0.56071 0.78549 0.4904 0.0
H492 H 0.67951 0.88407 0.4879 0.0
H493 H 0.62397 0.95236 0.49124 0.0
C494 C 0.45079 0.10778 0.4566 0.0
C495 C 0.4933 0.13324 0.45349 0.0
C496 C 0.45091 0.0716 0.46685 0.0
C497 C 0.49335 0.06065 0.47428 0.0
C498 C 0.536 0.08526 0.471 0.0
C499 C 0.53602 0.12121 0.46071 0.0
C500 C 0.49332 0.02392 0.4856 0.0
C501 C 0.52576 0.98541 0.48459 0.0
C502 C 0.4612 0.02637 0.49721 0.0
C503 C 0.42761 0.06729 0.49922 0.0
C504 C 0.44505 0.11471 0.49987 0.0
C505 C 0.41311 0.15311 0.50161 0.0
C506 C 0.36367 0.14451 0.50283 0.0
C507 C 0.34607 0.09746 0.50234 0.0
C508 C 0.37786 0.05894 0.50058 0.0
C509 C 0.53813 0.87136 0.53627 0.0
C510 C 0.49556 0.84689 0.53994 0.0
C511 C 0.53786 0.90554 0.52543 0.0
C512 C 0.4952 0.91548 0.51799 0.0
C513 C 0.45263 0.89147 0.52171 0.0
C514 C 0.45277 0.85751 0.53257 0.0
C515 C 0.4946 0.95148 0.50646 0.0
C516 C 0.46203 0.9899 0.50744 0.0
C517 C 0.52659 0.94889 0.49481 0.0
C518 C 0.56006 0.90787 0.49279 0.0
C519 C 0.54257 0.86042 0.49245 0.0
C520 C 0.57435 0.82194 0.49061 0.0
C521 C 0.62367 0.83047 0.48899 0.0
C522 C 0.64131 0.87751 0.48918 0.0
C523 C 0.60969 0.91612 0.49103 0.0
H524 H 0.64821 0.80063 0.48756 0.0
H525 H 0.33899 0.17428 0.50418 0.0
H526 H 0.90889 0.12543 0.0427 0.0
H527 H 0.90718 0.06286 0.02452 0.0
H528 H 0.06262 0.06162 0.02354 0.0
H529 H 0.06483 0.1244 0.04153 0.0
H530 H 0.02611 0.06713 0.99745 0.0
H531 H -0.00091 0.96975 0.03884 0.0
H532 H 0.95892 0.94264 0.06073 0.0
H533 H 0.82664 0.92236 0.03786 0.0
H534 H 0.86591 0.94978 0.01584 0.0
H535 H 0.06862 0.85565 0.95803 0.0
H536 H 0.06448 0.91643 0.97662 0.0
H537 H 0.90915 0.91219 0.97502 0.0
H538 H 0.91276 0.85083 0.95654 0.0
H539 H 0.9417 0.91068 0.00195 0.0
H540 H 0.96942 0.00529 0.96041 0.0
H541 H 0.01043 0.02916 0.93833 0.0
H542 H 0.14142 0.05422 0.96144 0.0
H543 H 0.10135 0.0299 0.98365 0.0
C544 C 0.94275 0.11165 0.0387 0.0
C545 C 0.98701 0.13023 0.04353 0.0
C546 C 0.94168 0.07572 0.02835 0.0
C547 C 0.98479 0.05751 0.02273 0.0
C548 C 0.02894 0.07532 0.02771 0.0
C549 C 0.03008 0.11121 0.03802 0.0
C550 C 0.98415 0.02151 0.01117 0.0
C551 C 0.00816 0.03266 -0.0015 0.0
C552 C 0.95942 0.97723 0.0124 0.0
C553 C 0.93535 0.9622 0.02571 0.0
C554 C 0.96131 0.95998 0.0385 0.0
C555 C 0.93876 0.94436 0.05092 0.0
C556 C 0.89034 0.93058 0.05066 0.0
C557 C 0.86422 0.93283 0.03802 0.0
C558 C 0.8866 0.94839 0.02557 0.0
C559 C 0.03351 0.86764 0.96158 0.0
C560 C 0.99102 0.84834 0.95575 0.0
C561 C 0.03124 0.90255 0.97218 0.0
C562 C 0.9865 0.91914 0.97708 0.0
C563 C 0.94403 0.89987 0.97136 0.0
C564 C 0.94622 0.86488 0.96077 0.0
C565 C 0.98416 0.9561 0.98833 0.0
C566 C 0.95948 0.94524 0.0009 0.0
C567 C 0.00822 0.0007 0.98702 0.0
C568 C 0.03246 0.0154 0.97368 0.0
C569 C 0.00707 0.01554 0.96078 0.0
C570 C 0.03012 0.02924 0.94824 0.0
C571 C 0.07849 0.04319 0.94849 0.0
C572 C 0.10392 0.04346 0.96128 0.0
C573 C 0.08105 0.02977 0.97384 0.0
H574 H 0.09624 0.05384 0.93877 0.0
H575 H 0.87302 0.91826 0.06027 0.0
H576 H 0.36649 0.89429 0.16343 0.0
H577 H 0.30224 0.94503 0.15407 0.0
H578 H 0.31807 0.87882 0.11299 0.0
H579 H 0.38269 0.82809 0.12219 0.0
H580 H 0.31836 0.97641 0.11162 0.0
H581 H 0.22102 0.85384 0.13288 0.0
H582 H 0.19395 0.80023 0.15209 0.0
H583 H 0.15661 0.92262 0.17755 0.0
H584 H 0.1841 0.97701 0.15856 0.0
H585 H 0.12223 0.09968 0.08122 0.0
H586 H 0.17364 0.03448 0.08966 0.0
H587 H 0.1563 0.08452 0.13266 0.0
H588 H 0.10338 0.14877 0.12435 0.0
H589 H 0.15432 0.99015 0.13213 0.0
H590 H 0.25768 0.11227 0.11242 0.0
H591 H 0.28682 0.1676 0.09389 0.0
H592 H 0.3152 0.04795 0.06637 0.0
H593 H 0.28565 0.99194 0.08469 0.0
C594 C 0.35618 0.89021 0.15243 0.0
C595 C 0.37998 0.85725 0.14355 0.0
C596 C 0.31923 0.91906 0.14712 0.0
C597 C 0.30525 0.91534 0.13288 0.0
C598 C 0.32837 0.88209 0.12403 0.0
C599 C 0.36525 0.85313 0.12932 0.0
C600 C 0.26855 0.94827 0.12702 0.0
C601 C 0.28218 0.97884 0.11592 0.0
C602 C 0.22188 0.95215 0.13292 0.0
C603 C 0.205 0.91951 0.14433 0.0
C604 C 0.20738 0.86934 0.14261 0.0
C605 C 0.19189 0.83881 0.15346 0.0
C606 C 0.17367 0.85801 0.16605 0.0
C607 C 0.17076 0.90779 0.1678 0.0
C608 C 0.18624 0.93849 0.15699 0.0
C609 C 0.12926 0.0967 0.09248 0.0
C610 C 0.10923 0.12964 0.10212 0.0
C611 C 0.15868 0.05948 0.09729 0.0
C612 C 0.16956 0.05522 0.11176 0.0
C613 C 0.14846 0.0872 0.12144 0.0
C614 C 0.11837 0.12399 0.11667 0.0
C615 C 0.20426 0.01857 0.11678 0.0
C616 C 0.19034 0.9874 0.12774 0.0
C617 C 0.25092 0.01437 0.11084 0.0
C618 C 0.26901 0.04798 0.09986 0.0
C619 C 0.26985 0.0978 0.10238 0.0
C620 C 0.28647 0.12927 0.09192 0.0
C621 C 0.30273 0.11131 0.07895 0.0
C622 C 0.30253 0.06182 0.07642 0.0
C623 C 0.28589 0.03019 0.08684 0.0
H624 H 0.31557 0.13573 0.07086 0.0
H625 H 0.16171 0.83431 0.17443 0.0
H626 H 0.09564 0.91766 0.3408 0.0
H627 H 0.16306 0.96538 0.34946 0.0
H628 H 0.20945 0.8467 0.37558 0.0
H629 H 0.14051 0.79925 0.36736 0.0
H630 H 0.21709 0.92334 0.39005 0.0
H631 H 0.27129 0.87928 0.34471 0.0
H632 H 0.26808 0.86581 0.3189 0.0
H633 H 0.25024 0.01729 0.31199 0.0
H634 H 0.25258 0.03164 0.33777 0.0
H635 H 0.43947 0.09803 0.37967 0.0
H636 H 0.39211 0.02882 0.37178 0.0
H637 H 0.27214 0.07745 0.39713 0.0
H638 H 0.31995 0.14527 0.40551 0.0
H639 H 0.31667 0.02027 0.35705 0.0
H640 H 0.20395 0.98889 0.40879 0.0
H641 H 0.21624 0.99341 0.43464 0.0
H642 H 0.36868 0.97543 0.42894 0.0
H643 H 0.35728 0.97002 0.40307 0.0
C644 C 0.12029 0.90159 0.34834 0.0
C645 C 0.11287 0.85467 0.35338 0.0
C646 C 0.15906 0.92882 0.35322 0.0
C647 C 0.19199 0.90932 0.36295 0.0
C648 C 0.18462 0.86245 0.36803 0.0
C649 C 0.14525 0.83541 0.36333 0.0
C650 C 0.2328 0.93891 0.36817 0.0
C651 C 0.23914 0.94424 0.38284 0.0
C652 C 0.26298 0.96476 0.35877 0.0
C653 C 0.26186 0.95649 0.34321 0.0
C654 C 0.26639 0.90971 0.3377 0.0
C655 C 0.26475 0.90191 0.32307 0.0
C656 C 0.2589 0.94066 0.31381 0.0
C657 C 0.25477 0.9873 0.31917 0.0
C658 C 0.25633 -0.0047 0.3338 0.0
C659 C 0.40303 0.09377 0.38359 0.0
C660 C 0.38343 0.12692 0.39325 0.0
C661 C 0.37603 0.05422 0.37909 0.0
C662 C 0.32881 0.0474 0.38404 0.0
C663 C 0.30896 0.08105 0.39348 0.0
C664 C 0.3362 0.12004 0.39819 0.0
C665 C 0.29931 0.00639 0.37893 0.0
C666 C 0.2952 -0.00118 0.36427 0.0
C667 C 0.27272 0.97698 0.38836 0.0
C668 C 0.27974 0.97938 0.40396 0.0
C669 C 0.24006 0.98558 0.41304 0.0
C670 C 0.24689 0.98837 0.42771 0.0
C671 C 0.29322 0.98482 0.43342 0.0
C672 C 0.33282 0.97831 0.42449 0.0
C673 C 0.3262 0.97542 0.40983 0.0
H674 H 0.29843 0.98707 0.44477 0.0
H675 H 0.25762 0.93455 0.30249 0.0
H676 H 0.10204 0.16657 0.61972 0.0
H677 H 0.16531 0.11622 0.60949 0.0
H678 H 0.1881 0.04905 0.65012 0.0
H679 H 0.12518 0.09923 0.66049 0.0
H680 H 0.27392 0.07101 0.63604 0.0
H681 H 0.11931 -0.00494 0.62591 0.0
H682 H 0.03721 0.99285 0.61587 0.0
H683 H 0.09406 0.02244 0.57447 0.0
H684 H 0.17644 0.02549 0.58431 0.0
H685 H 0.38592 0.85041 0.62154 0.0
H686 H 0.33389 0.91634 0.6289 0.0
H687 H 0.30767 0.95266 0.5851 0.0
H688 H 0.35842 0.88543 0.57763 0.0
H689 H 0.22729 0.95455 0.59862 0.0
H690 H 0.38137 0.02265 0.6072 0.0
H691 H 0.46468 0.02622 0.61625 0.0
H692 H 0.41239 0.0162 0.65896 0.0
H693 H 0.32877 0.01181 0.65016 0.0
C694 C 0.12072 0.14137 0.62653 0.0
C695 C 0.10819 0.13668 0.64092 0.0
C696 C 0.15681 0.1126 0.62065 0.0
C697 C 0.18101 0.0787 0.62904 0.0
C698 C 0.16979 0.07504 0.64348 0.0
C699 C 0.13359 0.10358 0.64936 0.0
C700 C 0.21646 0.0453 0.6227 0.0
C701 C 0.26382 0.0453 0.62792 0.0
C702 C 0.20351 0.01304 0.61175 0.0
C703 C 0.15396 0.01102 0.60587 0.0
C704 C 0.11425 0.00148 0.61469 0.0
C705 C 0.06767 2e-05 0.60903 0.0
C706 C 0.06042 0.00762 0.59455 0.0
C707 C 0.09973 0.01663 0.58569 0.0
C708 C 0.14636 0.01822 0.5913 0.0
C709 C 0.36936 0.87259 0.61346 0.0
C710 C 0.37631 0.86268 0.59899 0.0
C711 C 0.33982 0.91052 0.61769 0.0
C712 C 0.3175 0.94007 0.60756 0.0
C713 C 0.32461 0.93044 0.59311 0.0
C714 C 0.35361 0.89201 0.58886 0.0
C715 C 0.28488 0.97942 0.61213 0.0
C716 C 0.23792 0.98061 0.60659 0.0
C717 C 0.29849 0.01325 0.62262 0.0
C718 C 0.34874 0.01655 0.628 0.0
C719 C 0.38762 0.02091 0.61852 0.0
C720 C 0.43492 0.02311 0.62361 0.0
C721 C 0.44383 0.02133 0.63817 0.0
C722 C 0.40544 0.01754 0.64768 0.0
C723 C 0.35806 0.01526 0.64265 0.0
H724 H 0.48048 0.02297 0.64209 0.0
H725 H 0.0244 0.00639 0.59016 0.0
H726 H 0.18009 0.83592 0.90737 0.0
H727 H 0.23148 0.90226 0.89974 0.0
H728 H 0.10845 0.97161 0.88051 0.0
H729 H 0.0577 0.90353 0.88734 0.0
H730 H 0.17596 0.97976 0.86363 0.0
H731 H 0.16544 0.01093 0.91283 0.0
H732 H 0.16853 0.99337 0.93843 0.0
H733 H 0.31971 0.96259 0.93533 0.0
H734 H 0.31741 0.97875 0.90965 0.0
H735 H 0.36898 0.18557 0.87278 0.0
H736 H 0.30358 0.13702 0.88271 0.0
H737 H 0.3291 0.02818 0.85099 0.0
H738 H 0.39303 0.07696 0.84077 0.0
H739 H 0.29995 0.05369 0.89464 0.0
H740 H 0.22947 0.97245 0.84133 0.0
H741 H 0.21952 -0.00214 0.81646 0.0
H742 H 0.21608 0.14572 0.82947 0.0
H743 H 0.22527 0.12122 0.85443 0.0
C744 C 0.16407 0.86551 0.90158 0.0
C745 C 0.11505 0.86471 0.89792 0.0
C746 C 0.19336 0.90366 0.89732 0.0
C747 C 0.17381 0.94262 0.88976 0.0
C748 C 0.12452 0.94207 0.88631 0.0
C749 C 0.09551 0.90323 0.89022 0.0
C750 C 0.20533 0.98245 0.88479 0.0
C751 C 0.20276 -0.00389 0.87048 0.0
C752 C 0.23949 0.00511 0.89377 0.0
C753 C 0.24117 -0.00417 0.90927 0.0
C754 C 0.1993 0.00015 0.91758 0.0
C755 C 0.20091 0.99047 0.93211 0.0
C756 C 0.24427 0.97697 0.9385 0.0
C757 C 0.28614 0.97309 0.93037 0.0
C758 C 0.28471 0.98251 0.91582 0.0
C759 C 0.36047 0.15137 0.8679 0.0
C760 C 0.38596 0.13531 0.85591 0.0
C761 C 0.32314 0.12365 0.8736 0.0
C762 C 0.31084 0.07931 0.86746 0.0
C763 C 0.33699 0.06284 0.85569 0.0
C764 C 0.37375 0.09073 0.84988 0.0
C765 C 0.27145 0.04945 0.87345 0.0
C766 C 0.27258 0.03774 0.88791 0.0
C767 C 0.2347 0.02998 0.86476 0.0
C768 C 0.22842 0.04495 0.84976 0.0
C769 C 0.22631 0.01037 0.8389 0.0
C770 C 0.22086 0.02462 0.82478 0.0
C771 C 0.2173 0.07337 0.82139 0.0
C772 C 0.219 0.10798 0.83211 0.0
C773 C 0.22438 0.09392 0.84624 0.0
H774 H 0.21315 0.08433 0.81045 0.0
H775 H 0.24541 0.96952 0.94975 0.0
H776 H 0.81863 0.83683 0.90868 0.0
H777 H 0.76507 0.89997 0.90004 0.0
H778 H 0.87983 0.95612 0.87397 0.0
H779 H 0.93298 0.89179 0.88213 0.0
H780 H 0.76268 0.99242 0.90109 0.0
H781 H 0.83469 0.00165 0.84363 0.0
H782 H 0.87535 0.94956 0.82616 0.0
H783 H 0.81552 0.82448 0.84618 0.0
H784 H 0.77403 0.87585 0.86364 0.0
H785 H 0.64083 0.18446 0.86687 0.0
H786 H 0.70443 0.13163 0.87584 0.0
H787 H 0.64768 0.01485 0.8507 0.0
H788 H 0.58564 0.06789 0.84126 0.0
H789 H 0.73919 0.01223 0.84929 0.0
H790 H 0.6253 0.02807 0.88747 0.0
H791 H 0.57591 0.07181 0.90496 0.0
H792 H 0.70386 0.13162 0.92357 0.0
H793 H 0.75398 0.08866 0.90607 0.0
C794 C 0.83249 0.86274 0.90114 0.0
C795 C 0.87975 0.85906 0.89593 0.0
C796 C 0.80191 0.89891 0.89625 0.0
C797 C 0.81821 0.93235 0.8862 0.0
C798 C 0.86612 0.93003 0.88148 0.0
C799 C 0.89646 0.89333 0.88616 0.0
C800 C 0.7844 0.96842 0.88033 0.0
C801 C 0.75766 -0.00312 0.88976 0.0
C802 C 0.77735 0.9738 0.86556 0.0
C803 C 0.80177 0.94258 0.85503 0.0
C804 C 0.83013 0.96304 0.84427 0.0
C805 C 0.85332 0.93364 0.83438 0.0
C806 C 0.84817 0.88373 0.83509 0.0
C807 C 0.81964 0.86312 0.84567 0.0
C808 C 0.79632 0.89236 0.85558 0.0
C809 C 0.6421 0.14753 0.86325 0.0
C810 C 0.60822 0.1302 0.85342 0.0
C811 C 0.67832 0.11736 0.86841 0.0
C812 C 0.68041 0.06906 0.8641 0.0
C813 C 0.64691 0.05199 0.85415 0.0
C814 C 0.61137 0.08232 0.84878 0.0
C815 C 0.71687 0.03577 0.87004 0.0
C816 C 0.74443 0.00806 0.86062 0.0
C817 C 0.72336 0.02985 0.88482 0.0
C818 C 0.69332 0.05558 0.89537 0.0
C819 C 0.64286 0.05082 0.89523 0.0
C820 C 0.61474 0.07542 0.90516 0.0
C821 C 0.63672 0.10459 0.91535 0.0
C822 C 0.68688 0.10909 0.91566 0.0
C823 C 0.71515 0.0846 0.90575 0.0
H824 H 0.6149 0.12361 0.92302 0.0
H825 H 0.86619 0.86104 0.82743 0.0
H826 H 0.8882 0.07744 0.66017 0.0
H827 H 0.82583 0.0244 0.65082 0.0
H828 H 0.80649 0.11873 0.61499 0.0
H829 H 0.86953 0.17168 0.6241 0.0
H830 H 0.73285 0.03413 0.64503 0.0
H831 H 0.78456 0.05045 0.58569 0.0
H832 H 0.85655 0.06759 0.57118 0.0
H833 H 0.94788 0.01643 0.60469 0.0
H834 H 0.87656 -0.00177 0.61926 0.0
H835 H 0.55471 0.90507 0.60704 0.0
H836 H 0.60916 0.96906 0.6149 0.0
H837 H 0.73151 0.88192 0.60299 0.0
H838 H 0.67704 0.81976 0.59419 0.0
H839 H 0.75184 0.96642 0.5967 0.0
H840 H 0.6857 0.89486 0.63915 0.0
H841 H 0.62 0.86883 0.65501 0.0
H842 H 0.569 0.01423 0.65785 0.0
H843 H 0.63422 0.04103 0.64192 0.0
C844 C 0.87065 0.0871 0.65032 0.0
C845 C 0.88427 0.12864 0.64282 0.0
C846 C 0.8348 0.05681 0.64503 0.0
C847 C 0.81187 0.0674 0.63216 0.0
C848 C 0.82426 0.10955 0.62485 0.0
C849 C 0.8603 0.13978 0.63009 0.0
C850 C 0.77638 0.03325 0.62614 0.0
C851 C 0.73685 0.0194 0.63445 0.0
C852 C 0.78211 0.01346 0.61244 0.0
C853 C 0.82521 0.02358 0.60363 0.0
C854 C 0.82002 0.04271 0.58993 0.0
C855 C 0.86072 0.05259 0.58169 0.0
C856 C 0.90679 0.04325 0.58702 0.0
C857 C 0.91224 0.02379 0.60057 0.0
C858 C 0.87169 0.01372 0.60883 0.0
C859 C 0.59327 0.89993 0.60606 0.0
C860 C 0.61187 0.8576 0.6001 0.0
C861 C 0.62437 0.9363 0.61062 0.0
C862 C 0.6746 0.93 0.60985 0.0
C863 C 0.69299 0.88781 0.6037 0.0
C864 C 0.66191 0.85221 0.59872 0.0
C865 C 0.70829 0.96662 0.61564 0.0
C866 C 0.74747 0.98127 0.60726 0.0
C867 C 0.70319 0.98575 0.62949 0.0
C868 C 0.66455 0.96984 0.63926 0.0
C869 C 0.66037 0.92122 0.64313 0.0
C870 C 0.62324 0.90635 0.65213 0.0
C871 C 0.59029 0.93984 0.65741 0.0
C872 C 0.59453 0.98833 0.65375 0.0
C873 C 0.63161 0.00339 0.64476 0.0
H874 H 0.56151 0.92825 0.66435 0.0
H875 H 0.93825 0.051 0.58064 0.0
H876 H 0.86155 0.80678 0.36945 0.0
H877 H 0.79539 0.85622 0.37846 0.0
H878 H 0.84066 0.97296 0.35142 0.0
H879 H 0.90523 0.92304 0.34194 0.0
H880 H 0.78989 0.93354 0.39265 0.0
H881 H 0.75004 0.03951 0.34035 0.0
H882 H 0.75074 0.02455 0.31459 0.0
H883 H 0.73362 0.8732 0.32191 0.0
H884 H 0.73207 0.88729 0.3477 0.0
H885 H 0.67624 0.15159 0.40839 0.0
H886 H 0.72757 0.08581 0.40034 0.0
H887 H 0.61122 0.03182 0.37438 0.0
H888 H 0.56071 0.09919 0.38183 0.0
H889 H 0.68607 0.02712 0.35993 0.0
H890 H 0.64937 0.97498 0.4062 0.0
H891 H 0.6392 0.97959 0.43212 0.0
H892 H 0.79099 0.00438 0.43717 0.0
H893 H 0.80201 0.00063 0.41126 0.0
C894 C 0.85723 0.84298 0.36542 0.0
C895 C 0.88824 0.86099 0.35491 0.0
C896 C 0.81947 0.87119 0.37058 0.0
C897 C 0.81248 0.91801 0.36544 0.0
C898 C 0.84441 0.93646 0.35525 0.0
C899 C 0.88148 0.908 0.34989 0.0
C900 C 0.77238 0.94812 0.37082 0.0
C901 C 0.76696 0.9538 0.38551 0.0
C902 C 0.74118 0.97313 0.36152 0.0
C903 C 0.74132 0.96447 0.34598 0.0
C904 C 0.74614 0.00307 0.33647 0.0
C905 C 0.74674 -0.00527 0.32185 0.0
C906 C 0.74235 0.94794 0.31662 0.0
C907 C 0.73717 0.9094 0.32598 0.0
C908 C 0.73647 0.91755 0.3406 0.0
C909 C 0.66164 0.12553 0.40101 0.0
C910 C 0.61465 0.13046 0.39569 0.0
C911 C 0.69083 0.08771 0.39649 0.0
C912 C 0.67305 0.05326 0.38693 0.0
C913 C 0.62582 0.05792 0.38175 0.0
C914 C 0.597 0.09639 0.386 0.0
C915 C 0.70463 0.01392 0.38178 0.0
C916 C 0.70847 0.00645 0.36711 0.0
C917 C 0.73276 0.98564 0.39114 0.0
C918 C 0.72645 0.98784 0.40676 0.0
C919 C 0.68054 0.98174 0.41283 0.0
C920 C 0.67463 0.98416 0.42752 0.0
C921 C 0.71441 0.99235 0.43628 0.0
C922 C 0.76021 -0.00195 0.43037 0.0
C923 C 0.76632 -0.00428 0.41567 0.0
H924 H 0.70976 -0.0058 0.44766 0.0
H925 H 0.7429 0.94156 0.3053 0.0
H926 H 0.63201 0.81039 0.12792 0.0
H927 H 0.69789 0.86159 0.11961 0.0
H928 H 0.65094 0.9744 0.14782 0.0
H929 H 0.58633 0.92299 0.15651 0.0
H930 H 0.7009 0.94183 0.10626 0.0
H931 H 0.74195 0.03977 0.15981 0.0
H932 H 0.74218 0.02087 0.18534 0.0
H933 H 0.76034 0.87097 0.17593 0.0
H934 H 0.76097 0.88901 0.15035 0.0
H935 H 0.81209 0.1622 0.09271 0.0
H936 H 0.76028 0.09765 0.10134 0.0
H937 H 0.88027 0.0369 0.12433 0.0
H938 H 0.93173 0.10279 0.11625 0.0
H939 H 0.80548 0.0311 0.13987 0.0
H940 H 0.8397 0.99207 0.09237 0.0
H941 H 0.8473 0.00644 0.06673 0.0
H942 H 0.69385 0.02187 0.06322 0.0
H943 H 0.68541 0.01018 0.08899 0.0
C944 C 0.63585 0.84608 0.13237 0.0
C945 C 0.60418 0.86257 0.14293 0.0
C946 C 0.67348 0.87528 0.12761 0.0
C947 C 0.67987 0.92152 0.13326 0.0
C948 C 0.64757 0.93837 0.14357 0.0
C949 C 0.61046 0.90902 0.14848 0.0
C950 C 0.71945 0.95288 0.12819 0.0
C951 C 0.72398 0.96118 0.11358 0.0
C952 C 0.75071 0.97682 0.13774 0.0
C953 C 0.75113 0.96576 0.15314 0.0
C954 C 0.74628 0.00281 0.16318 0.0
C955 C 0.7462 0.99223 0.17767 0.0
C956 C 0.75115 0.94474 0.18225 0.0
C957 C 0.75636 0.90773 0.17236 0.0
C958 C 0.75652 0.91811 0.15787 0.0
C959 C 0.82739 0.13508 0.09961 0.0
C960 C 0.87595 0.13732 0.10376 0.0
C961 C 0.79783 0.09809 0.10449 0.0
C962 C 0.81663 0.06185 0.11325 0.0
C963 C 0.86501 0.06439 0.11755 0.0
C964 C 0.89437 0.10198 0.11291 0.0
C965 C 0.78557 0.02157 0.11797 0.0
C966 C 0.78278 0.01145 0.13251 0.0
C967 C 0.75725 -0.00536 0.1083 0.0
C968 C 0.76195 0.00053 0.09269 0.0
C969 C 0.80754 -0.00112 0.08617 0.0
C970 C 0.81202 0.00657 0.0716 0.0
C971 C 0.77108 0.01468 0.06332 0.0
C972 C 0.72555 0.01548 0.06964 0.0
C973 C 0.72091 0.00854 0.08425 0.0
H974 H 0.77465 0.02043 0.05203 0.0
H975 H 0.75101 0.93662 0.19347 0.0
H976 H 0.87914 0.33969 0.62455 0.0
H977 H 0.81709 0.39556 0.61658 0.0
H978 H 0.8053 0.453 0.65888 0.0
H979 H 0.86751 0.3971 0.66704 0.0
H980 H 0.71524 0.43908 0.64514 0.0
H981 H 0.86893 0.51333 0.63642 0.0
H982 H 0.95196 0.51671 0.62717 0.0
H983 H 0.89902 0.49565 0.58484 0.0
H984 H 0.81568 0.4914 0.59388 0.0
H985 H 0.59526 0.65638 0.6258 0.0
H986 H 0.6492 0.59551 0.63563 0.0
H987 H 0.68268 0.54628 0.5934 0.0
H988 H 0.6299 0.60773 0.58348 0.0
H989 H 0.76195 0.55653 0.60804 0.0
H990 H 0.60847 0.48205 0.61634 0.0
H991 H 0.5252 0.47697 0.62533 0.0
H992 H 0.57636 0.49661 0.6679 0.0
H993 H 0.65992 0.50252 0.65914 0.0
C994 C 0.86319 0.36386 0.63222 0.0
C995 C 0.87871 0.36419 0.64642 0.0
C996 C 0.82776 0.39582 0.62763 0.0
C997 C 0.80709 0.42865 0.63712 0.0
C998 C 0.82098 0.42793 0.65141 0.0
C999 C 0.85669 0.39613 0.65602 0.0
C1000 C 0.77272 0.46522 0.63191 0.0
C1001 C 0.72544 0.46522 0.63716 0.0
C1002 C 0.78606 0.49857 0.62132 0.0
C1003 C 0.83611 0.5016 0.61584 0.0
C1004 C 0.87502 0.50905 0.62515 0.0
C1005 C 0.92214 0.51118 0.61995 0.0
C1006 C 0.93077 0.50628 0.60543 0.0
C1007 C 0.89228 0.49938 0.59609 0.0
C1008 C 0.8451 0.49715 0.60124 0.0
C1009 C 0.61381 0.63237 0.61861 0.0
C1010 C 0.60837 0.63705 0.60385 0.0
C1011 C 0.6445 0.59744 0.62425 0.0
C1012 C 0.66968 0.56605 0.61526 0.0
C1013 C 0.66371 0.57019 0.60054 0.0
C1014 C 0.63346 0.60535 0.59489 0.0
C1015 C 0.70391 0.5302 0.62109 0.0
C1016 C 0.75145 0.53044 0.616 0.0
C1017 C 0.69062 0.49698 0.63177 0.0
C1018 C 0.64042 0.49322 0.63706 0.0
C1019 C 0.60194 0.48567 0.62761 0.0
C1020 C 0.55468 0.48258 0.63266 0.0
C1021 C 0.54548 0.4866 0.64717 0.0
C1022 C 0.58354 0.49358 0.65666 0.0
C1023 C 0.63085 0.49677 0.65166 0.0
H1024 H 0.50887 0.4842 0.65106 0.0
H1025 H 0.96727 0.50793 0.60142 0.0
H1026 H 0.856 0.61276 0.91053 0.0
H1027 H 0.80533 0.55063 0.89999 0.0
H1028 H 0.85848 0.58754 0.85847 0.0
H1029 H 0.9095 0.65008 0.86891 0.0
H1030 H 0.7586 0.58083 0.85974 0.0
H1031 H 0.89532 0.48618 0.87298 0.0
H1032 H 0.95845 0.45619 0.88911 0.0
H1033 H 0.85016 0.3992 0.91692 0.0
H1034 H 0.78633 0.42946 0.90106 0.0
H1035 H 0.63219 0.38726 0.82783 0.0
H1036 H 0.69733 0.441 0.83512 0.0
H1037 H 0.67075 0.40519 0.87892 0.0
H1038 H 0.60666 0.35035 0.87171 0.0
H1039 H 0.76371 0.40972 0.87447 0.0
H1040 H 0.62777 0.51074 0.86331 0.0
H1041 H 0.56278 0.54295 0.84821 0.0
H1042 H 0.66726 0.59 0.81766 0.0
H1043 H 0.73286 0.5575 0.8325 0.0
C1044 C 0.85718 0.60764 0.89916 0.0
C1045 C 0.8868 0.63651 0.89056 0.0
C1046 C 0.82835 0.57189 0.89317 0.0
C1047 C 0.82848 0.56429 0.87847 0.0
C1048 C 0.85804 0.59282 0.86984 0.0
C1049 C 0.88725 0.62841 0.87584 0.0
C1050 C 0.79612 0.52779 0.87216 0.0
C1051 C 0.76024 0.5432 0.86273 0.0
C1052 C 0.7977 0.47903 0.87636 0.0
C1053 C 0.83602 0.46042 0.88587 0.0
C1054 C 0.88495 0.46756 0.88259 0.0
C1055 C 0.92086 0.45046 0.89168 0.0
C1056 C 0.90832 0.42589 0.90405 0.0
C1057 C 0.85982 0.41826 0.90734 0.0
C1058 C 0.82376 0.43532 0.89829 0.0
C1059 C 0.6403 0.3907 0.83901 0.0
C1060 C 0.61394 0.36476 0.84919 0.0
C1061 C 0.67748 0.42155 0.84317 0.0
C1062 C 0.68843 0.42775 0.85759 0.0
C1063 C 0.66295 0.40103 0.86773 0.0
C1064 C 0.62619 0.36976 0.86359 0.0
C1065 C 0.72557 0.46284 0.86221 0.0
C1066 C 0.76235 0.4472 0.87133 0.0
C1067 C 0.72453 0.51156 0.85785 0.0
C1068 C 0.68515 0.53121 0.84893 0.0
C1069 C 0.63684 0.52763 0.85332 0.0
C1070 C 0.59991 0.54599 0.84482 0.0
C1071 C 0.61087 0.56837 0.83196 0.0
C1072 C 0.65881 0.57257 0.8276 0.0
C1073 C 0.69589 0.55421 0.83606 0.0
H1074 H 0.58223 0.58257 0.82539 0.0
H1075 H 0.93618 0.41269 0.91107 0.0
H1076 H 0.60476 0.65419 0.12291 0.0
H1077 H 0.66912 0.60249 0.11414 0.0
H1078 H 0.69048 0.5457 0.15619 0.0
H1079 H 0.62608 0.59746 0.16516 0.0
H1080 H 0.77753 0.56509 0.14148 0.0
H1081 H 0.62672 0.48217 0.13424 0.0
H1082 H 0.54344 0.47331 0.12565 0.0
H1083 H 0.59082 0.49744 0.08291 0.0
H1084 H 0.67452 0.50711 0.09132 0.0
H1085 H 0.89694 0.34629 0.12486 0.0
H1086 H 0.84503 0.41052 0.13361 0.0
H1087 H 0.81002 0.45017 0.09061 0.0
H1088 H 0.86076 0.38511 0.08177 0.0
H1089 H 0.73183 0.4431 0.10552 0.0
H1090 H 0.88402 0.51918 0.11213 0.0
H1091 H 0.96783 0.5264 0.12045 0.0
H1092 H 0.92019 0.51705 0.16363 0.0
H1093 H 0.83604 0.50842 0.15557 0.0
C1094 C 0.62324 0.63099 0.13035 0.0
C1095 C 0.60985 0.62964 0.14473 0.0
C1096 C 0.66004 0.6015 0.1253 0.0
C1097 C 0.68417 0.57012 0.13451 0.0
C1098 C 0.6722 0.56977 0.14894 0.0
C1099 C 0.63518 0.59913 0.15401 0.0
C1100 C 0.7199 0.53571 0.12888 0.0
C1101 C 0.76766 0.53804 0.13372 0.0
C1102 C 0.70701 0.5014 0.1185 0.0
C1103 C 0.65674 0.49586 0.11343 0.0
C1104 C 0.6193 0.48603 0.12303 0.0
C1105 C 0.57202 0.48076 0.11818 0.0
C1106 C 0.56174 0.4849 0.10373 0.0
C1107 C 0.5988 0.4943 0.0941 0.0
C1108 C 0.64618 0.49965 0.0989 0.0
C1109 C 0.87855 0.36895 0.11726 0.0
C1110 C 0.88274 0.36042 0.10262 0.0
C1111 C 0.84911 0.40585 0.12228 0.0
C1112 C 0.82402 0.43545 0.11276 0.0
C1113 C 0.82903 0.42771 0.09814 0.0
C1114 C 0.85801 0.39048 0.09311 0.0
C1115 C 0.78993 0.47227 0.11803 0.0
C1116 C 0.74219 0.47033 0.11318 0.0
C1117 C 0.80312 0.50704 0.12831 0.0
C1118 C 0.85367 0.51271 0.13322 0.0
C1119 C 0.89139 0.51826 0.1234 0.0
C1120 C 0.939 0.52267 0.12807 0.0
C1121 C 0.94938 0.52224 0.14256 0.0
C1122 C 0.91211 0.51737 0.15241 0.0
C1123 C 0.86443 0.51268 0.14779 0.0
H1124 H 0.98628 0.52571 0.14615 0.0
H1125 H 0.52514 0.48068 0.09997 0.0
H1126 H 0.87188 0.6656 0.37142 0.0
H1127 H 0.80987 0.61085 0.38021 0.0
H1128 H 0.82042 0.52728 0.34184 0.0
H1129 H 0.88264 0.58145 0.33296 0.0
H1130 H 0.72054 0.58172 0.37024 0.0
H1131 H 0.81668 0.409 0.35145 0.0
H1132 H 0.899 0.38075 0.34611 0.0
H1133 H 0.95749 0.48462 0.37507 0.0
H1134 H 0.87553 0.51298 0.38073 0.0
H1135 H 0.56993 0.37238 0.37562 0.0
H1136 H 0.62446 0.43518 0.36701 0.0
H1137 H 0.72039 0.40825 0.4021 0.0
H1138 H 0.66636 0.34581 0.41082 0.0
H1139 H 0.76698 0.41061 0.3762 0.0
H1140 H 0.65525 0.50435 0.4032 0.0
H1141 H 0.5749 0.53321 0.41036 0.0
H1142 H 0.55109 0.5892 0.36854 0.0
H1143 H 0.63107 0.55989 0.36105 0.0
C1144 C 0.86088 0.63575 0.3648 0.0
C1145 C 0.88271 0.62762 0.35155 0.0
C1146 C 0.82522 0.60471 0.36981 0.0
C1147 C 0.81101 0.56489 0.36172 0.0
C1148 C 0.83135 0.55762 0.34829 0.0
C1149 C 0.8669 0.58866 0.34324 0.0
C1150 C 0.77704 0.52932 0.36767 0.0
C1151 C 0.73053 0.54427 0.3715 0.0
C1152 C 0.79057 0.48072 0.36954 0.0
C1153 C 0.84 0.46342 0.36639 0.0
C1154 C 0.84711 0.42567 0.35671 0.0
C1155 C 0.89371 0.40965 0.35363 0.0
C1156 C 0.93346 0.43099 0.36021 0.0
C1157 C 0.92669 0.46825 0.36994 0.0
C1158 C 0.88018 0.48434 0.37308 0.0
C1159 C 0.60255 0.37993 0.38153 0.0
C1160 C 0.61383 0.35402 0.39389 0.0
C1161 C 0.63351 0.41589 0.37663 0.0
C1162 C 0.67628 0.42623 0.38396 0.0
C1163 C 0.68752 0.40065 0.3963 0.0
C1164 C 0.65646 0.36511 0.40129 0.0
C1165 C 0.71021 0.46278 0.37857 0.0
C1166 C 0.7568 0.44798 0.37484 0.0
C1167 C 0.69696 0.51157 0.37705 0.0
C1168 C 0.64895 0.52946 0.38152 0.0
C1169 C 0.63272 0.52242 0.39549 0.0
C1170 C 0.58727 0.53895 0.39962 0.0
C1171 C 0.55785 0.56294 0.3899 0.0
C1172 C 0.57389 0.57055 0.37605 0.0
C1173 C 0.61929 0.554 0.37186 0.0
H1174 H 0.52268 0.57572 0.39312 0.0
H1175 H 0.9695 0.41858 0.3578 0.0
H1176 H 0.34437 0.36771 0.41189 0.0
H1177 H 0.28954 0.42754 0.4021 0.0
H1178 H 0.34792 0.40312 0.36035 0.0
H1179 H 0.40376 0.34376 0.37009 0.0
H1180 H 0.33279 0.49691 0.3647 0.0
H1181 H 0.24171 0.35268 0.36983 0.0
H1182 H 0.20932 0.28136 0.38206 0.0
H1183 H 0.13704 0.37225 0.41206 0.0
H1184 H 0.16961 0.44416 0.40013 0.0
H1185 H 0.12798 0.60138 0.32908 0.0
H1186 H 0.18998 0.54508 0.33722 0.0
H1187 H 0.15398 0.57729 0.38064 0.0
H1188 H 0.09237 0.6338 0.37268 0.0
H1189 H 0.15779 0.47774 0.37401 0.0
H1190 H 0.25205 0.62247 0.36821 0.0
H1191 H 0.28339 0.69195 0.35487 0.0
H1192 H 0.34796 0.5968 0.32449 0.0
H1193 H 0.31636 0.52672 0.33755 0.0
C1194 C 0.34577 0.3751 0.40063 0.0
C1195 C 0.37817 0.35053 0.39176 0.0
C1196 C 0.31429 0.40925 0.39505 0.0
C1197 C 0.31408 0.41909 0.38046 0.0
C1198 C 0.34739 0.39588 0.37163 0.0
C1199 C 0.37919 0.36188 0.37722 0.0
C1200 C 0.27822 0.45277 0.37444 0.0
C1201 C 0.29448 0.49237 0.36656 0.0
C1202 C 0.22826 0.44696 0.37696 0.0
C1203 C 0.20849 0.40381 0.38416 0.0
C1204 C 0.21923 0.35746 0.3791 0.0
C1205 C 0.20079 0.31693 0.38597 0.0
C1206 C 0.17124 0.32227 0.39785 0.0
C1207 C 0.15999 0.36817 0.40287 0.0
C1208 C 0.1784 0.40883 0.39605 0.0
C1209 C 0.13338 0.5966 0.34036 0.0
C1210 C 0.10523 0.62202 0.35024 0.0
C1211 C 0.16889 0.56461 0.34497 0.0
C1212 C 0.17645 0.55729 0.35951 0.0
C1213 C 0.14856 0.5826 0.36938 0.0
C1214 C 0.11353 0.61497 0.3648 0.0
C1215 C 0.21247 0.52214 0.36451 0.0
C1216 C 0.19613 0.48213 0.37213 0.0
C1217 C 0.26216 0.52728 0.36158 0.0
C1218 C 0.28138 0.56937 0.35377 0.0
C1219 C 0.27255 0.61637 0.35861 0.0
C1220 C 0.29044 0.65586 0.35112 0.0
C1221 C 0.31753 0.6488 0.33881 0.0
C1222 C 0.3269 0.60222 0.33401 0.0
C1223 C 0.30904 0.5626 0.34146 0.0
H1224 H 0.33135 0.67941 0.33303 0.0
H1225 H 0.15699 0.29084 0.40315 0.0
H1226 H 0.0722 0.37206 0.11998 0.0
H1227 H 0.12718 0.43432 0.12845 0.0
H1228 H 0.22149 0.40746 0.093 0.0
H1229 H 0.16698 0.3449 0.08446 0.0
H1230 H 0.27032 0.41003 0.11769 0.0
H1231 H 0.15497 0.50762 0.09345 0.0
H1232 H 0.07443 0.53874 0.0873 0.0
H1233 H 0.0539 0.58561 0.13023 0.0
H1234 H 0.13423 0.55434 0.13667 0.0
H1235 H 0.3699 0.66676 0.12587 0.0
H1236 H 0.30849 0.61181 0.11688 0.0
H1237 H 0.32829 0.52052 0.15334 0.0
H1238 H 0.3901 0.57502 0.16243 0.0
H1239 H 0.22246 0.57889 0.12718 0.0
H1240 H 0.3237 0.40359 0.14154 0.0
H1241 H 0.4072 0.37555 0.14516 0.0
H1242 H 0.45928 0.48754 0.11786 0.0
H1243 H 0.37632 0.51547 0.11386 0.0
C1244 C 0.10453 0.37945 0.11393 0.0
C1245 C 0.11526 0.35328 0.10156 0.0
C1246 C 0.13576 0.41524 0.11876 0.0
C1247 C 0.17822 0.42558 0.11131 0.0
C1248 C 0.18885 0.39993 0.0989 0.0
C1249 C 0.15757 0.36427 0.09402 0.0
C1250 C 0.21261 0.46173 0.11678 0.0
C1251 C 0.25981 0.44692 0.11979 0.0
C1252 C 0.19899 0.50995 0.11934 0.0
C1253 C 0.15045 0.52829 0.11556 0.0
C1254 C 0.13312 0.52419 0.10161 0.0
C1255 C 0.08757 0.54198 0.09806 0.0
C1256 C 0.05911 0.56418 0.10836 0.0
C1257 C 0.07606 0.5685 0.12225 0.0
C1258 C 0.12162 0.5508 0.12586 0.0
C1259 C 0.36114 0.63512 0.13204 0.0
C1260 C 0.38535 0.62509 0.14482 0.0
C1261 C 0.32578 0.60394 0.12691 0.0
C1262 C 0.3142 0.56198 0.13439 0.0
C1263 C 0.33712 0.55254 0.14735 0.0
C1264 C 0.3724 0.58378 0.15253 0.0
C1265 C 0.2799 0.52694 0.12826 0.0
C1266 C 0.23277 0.5419 0.12516 0.0
C1267 C 0.29378 0.47902 0.12535 0.0
C1268 C 0.34385 0.46196 0.12755 0.0
C1269 C 0.35303 0.42206 0.13627 0.0
C1270 C 0.40029 0.40615 0.13838 0.0
C1271 C 0.43862 0.42977 0.13178 0.0
C1272 C 0.42973 0.46923 0.123 0.0
C1273 C 0.38258 0.48516 0.12082 0.0
H1274 H 0.47517 0.4174 0.13343 0.0
H1275 H 0.02396 0.57812 0.10557 0.0
H1276 H 0.14075 0.615 0.91373 0.0
H1277 H 0.19539 0.55416 0.90439 0.0
H1278 H 0.16069 0.5978 0.86171 0.0
H1279 H 0.10477 0.65803 0.87096 0.0
H1280 H 0.16631 0.50281 0.86329 0.0
H1281 H 0.2652 0.63491 0.87789 0.0
H1282 H 0.29608 0.69679 0.89427 0.0
H1283 H 0.34345 0.58695 0.92303 0.0
H1284 H 0.31224 0.52439 0.90691 0.0
H1285 H 0.37501 0.39937 0.83097 0.0
H1286 H 0.31342 0.4549 0.83959 0.0
H1287 H 0.33454 0.40284 0.88219 0.0
H1288 H 0.39622 0.34724 0.87373 0.0
H1289 H 0.33577 0.50218 0.88017 0.0
H1290 H 0.2369 0.36996 0.86463 0.0
H1291 H 0.20765 0.30978 0.84747 0.0
H1292 H 0.16246 0.42252 0.81939 0.0
H1293 H 0.1921 0.4834 0.8363 0.0
C1294 C 0.14464 0.61167 0.90235 0.0
C1295 C 0.11879 0.6417 0.89308 0.0
C1296 C 0.17597 0.57692 0.89703 0.0
C1297 C 0.18278 0.57211 0.88236 0.0
C1298 C 0.15606 0.60107 0.87307 0.0
C1299 C 0.12423 0.63553 0.87837 0.0
C1300 C 0.21855 0.5375 0.87678 0.0
C1301 C 0.20351 0.50304 0.86684 0.0
C1302 C 0.26693 0.53745 0.88156 0.0
C1303 C 0.28597 0.57499 0.89125 0.0
C1304 C 0.28189 0.62396 0.88776 0.0
C1305 C 0.2995 0.65916 0.89699 0.0
C1306 C 0.32161 0.64581 0.9097 0.0
C1307 C 0.32627 0.59723 0.91319 0.0
C1308 C 0.30866 0.56189 0.904 0.0
C1309 C 0.36651 0.39958 0.84217 0.0
C1310 C 0.39066 0.36891 0.85167 0.0
C1311 C 0.33114 0.43116 0.84705 0.0
C1312 C 0.31937 0.43266 0.86149 0.0
C1313 C 0.34319 0.40207 0.87099 0.0
C1314 C 0.37832 0.37027 0.86612 0.0
C1315 C 0.28341 0.46736 0.8668 0.0
C1316 C 0.29852 0.50195 0.87665 0.0
C1317 C 0.23534 0.4678 0.86181 0.0
C1318 C 0.21716 0.43124 0.85168 0.0
C1319 C 0.22109 0.38192 0.85475 0.0
C1320 C 0.20437 0.34768 0.84507 0.0
C1321 C 0.18333 0.36231 0.83233 0.0
C1322 C 0.17883 0.41123 0.82925 0.0
C1323 C 0.19554 0.44563 0.83889 0.0
H1324 H 0.17042 0.33575 0.82485 0.0
H1325 H 0.33522 0.67311 0.91683 0.0
H1326 H 0.13637 0.37391 0.6659 0.0
H1327 H 0.19955 0.42855 0.65772 0.0
H1328 H 0.13724 0.4277 0.61576 0.0
H1329 H 0.07576 0.371 0.62373 0.0
H1330 H 0.2279 0.42486 0.61311 0.0
H1331 H 0.12144 0.52304 0.64085 0.0
H1332 H 0.07531 0.54694 0.66204 0.0
H1333 H 0.20659 0.55839 0.68594 0.0
H1334 H 0.25347 0.53397 0.66491 0.0
H1335 H 0.32496 0.64029 0.58591 0.0
H1336 H 0.27114 0.57962 0.59568 0.0
H1337 H 0.35897 0.57091 0.63332 0.0
H1338 H 0.41301 0.6323 0.62373 0.0
H1339 H 0.26107 0.57644 0.63908 0.0
H1340 H 0.36624 0.48397 0.60848 0.0
H1341 H 0.40634 0.46846 0.58559 0.0
H1342 H 0.26858 0.45383 0.56529 0.0
H1343 H 0.22765 0.46986 0.58799 0.0
C1344 C 0.13633 0.38539 0.65493 0.0
C1345 C 0.10117 0.36846 0.64544 0.0
C1346 C 0.17226 0.41678 0.65028 0.0
C1347 C 0.17269 0.43304 0.63618 0.0
C1348 C 0.13776 0.41568 0.62668 0.0
C1349 C 0.10258 0.38338 0.63124 0.0
C1350 C 0.2093 0.46817 0.63127 0.0
C1351 C 0.23477 0.45816 0.61875 0.0
C1352 C 0.21898 0.51138 0.63871 0.0
C1353 C 0.1909 0.52617 0.65135 0.0
C1354 C 0.14043 0.53032 0.65065 0.0
C1355 C 0.11416 0.54401 0.66262 0.0
C1356 C 0.138 0.55404 0.67534 0.0
C1357 C 0.18817 0.55053 0.67609 0.0
C1358 C 0.21461 0.5368 0.66415 0.0
C1359 C 0.33308 0.6255 0.59626 0.0
C1360 C 0.37348 0.64114 0.60401 0.0
C1361 C 0.30228 0.59069 0.6018 0.0
C1362 C 0.31147 0.57043 0.61513 0.0
C1363 C 0.35144 0.58609 0.62298 0.0
C1364 C 0.3823 0.62106 0.61746 0.0
C1365 C 0.27887 0.53324 0.62089 0.0
C1366 C 0.25436 0.54285 0.63357 0.0
C1367 C 0.26919 0.49024 0.61342 0.0
C1368 C 0.2939 0.47842 0.59992 0.0
C1369 C 0.34452 0.47752 0.59913 0.0
C1370 C 0.36738 0.46867 0.58619 0.0
C1371 C 0.33998 0.46037 0.574 0.0
C1372 C 0.28972 0.46034 0.57474 0.0
C1373 C 0.26668 0.46921 0.58765 0.0
H1374 H 0.35762 0.45409 0.56397 0.0
H1375 H 0.11759 0.56464 0.6846 0.0
loop_
_geom_bond_atom_site_label_1
_geom_bond_atom_site_label_2
_geom_bond_distance
_geom_bond_site_symmetry_2
_ccdc_geom_bond_type
Sc0 O3 2.025 . S
Sc0 O10 2.105 . S
Sc0 O13 2.105 . S
Sc0 O16 2.105 . S
Sc0 O19 2.105 . S
Sc1 O3 2.025 1_655 S
Sc1 O11 2.105 . S
Sc1 O15 2.105 . S
Sc1 O17 2.105 . S
Sc1 O21 2.105 . S
Sc2 O3 2.025 . S
Sc2 O12 2.105 1_455 S
Sc2 O14 2.105 . S
Sc2 O18 2.105 1_455 S
Sc2 O20 2.105 . S
O3 Sc0 2.025 . S
O3 Sc1 2.025 1_455 S
O3 Sc2 2.025 . S
C4 O10 1.268 . S
C4 O20 1.268 . S
C5 O11 1.268 1_455 S
C5 O19 1.268 . S
C6 O12 1.268 . S
C6 O21 1.268 . S
C7 O13 1.268 . S
C7 O17 1.268 1_455 S
C8 O14 1.268 . S
C8 O16 1.268 . S
C9 O15 1.268 . S
C9 O18 1.268 . S
O10 Sc0 2.105 . S
O10 C4 1.268 . S
O11 Sc1 2.105 . S
O11 C5 1.268 1_655 S
O12 Sc2 2.105 1_655 S
O12 C6 1.268 . S
O13 Sc0 2.105 . S
O13 C7 1.268 . S
O14 Sc2 2.105 . S
O14 C8 1.268 . S
O15 Sc1 2.105 . S
O15 C9 1.268 . S
O16 Sc0 2.105 . S
O16 C8 1.268 . S
O17 Sc1 2.105 . S
O17 C7 1.268 1_655 S
O18 Sc2 2.105 1_655 S
O18 C9 1.268 . S
O19 Sc0 2.105 . S
O19 C5 1.268 . S
O20 Sc2 2.105 . S
O20 C4 1.268 . S
O21 Sc1 2.105 . S
O21 C6 1.268 . S
Sc22 O25 2.025 . S
Sc22 O32 2.105 . S
Sc22 O35 2.105 1_455 S
Sc22 O38 2.105 1_455 S
Sc22 O41 2.105 . S
Sc23 O25 2.025 . S
Sc23 O33 2.105 . S
Sc23 O37 2.105 1_455 S
Sc23 O39 2.105 1_455 S
Sc23 O43 2.105 . S
Sc24 O25 2.025 . S
Sc24 O34 2.105 . S
Sc24 O36 2.105 1_455 S
Sc24 O40 2.105 1_455 S
Sc24 O42 2.105 . S
O25 Sc22 2.025 . S
O25 Sc23 2.025 . S
O25 Sc24 2.025 . S
C26 O32 1.268 . S
C26 O42 1.268 . S
C27 O33 1.268 . S
C27 O41 1.268 . S
C28 O34 1.268 . S
C28 O43 1.268 . S
C29 O35 1.268 . S
C29 O39 1.268 . S
C30 O36 1.268 . S
C30 O38 1.268 . S
C31 O37 1.268 . S
C31 O40 1.268 . S
O32 Sc22 2.105 . S
O32 C26 1.268 . S
O33 Sc23 2.105 . S
O33 C27 1.268 . S
O34 Sc24 2.105 . S
O34 C28 1.268 . S
O35 Sc22 2.105 1_655 S
O35 C29 1.268 . S
O36 Sc24 2.105 1_655 S
O36 C30 1.268 . S
O37 Sc23 2.105 1_655 S
O37 C31 1.268 . S
O38 Sc22 2.105 1_655 S
O38 C30 1.268 . S
O39 Sc23 2.105 1_655 S
O39 C29 1.268 . S
O40 Sc24 2.105 1_655 S
O40 C31 1.268 . S
O41 Sc22 2.105 . S
O41 C27 1.268 . S
O42 Sc24 2.105 . S
O42 C26 1.268 . S
O43 Sc23 2.105 . S
O43 C28 1.268 . S
Sc44 O47 2.025 . S
Sc44 O54 2.105 . S
Sc44 O57 2.105 . S
Sc44 O60 2.105 . S
Sc44 O63 2.105 . S
Sc45 O47 2.025 . S
Sc45 O55 2.105 . S
Sc45 O59 2.105 . S
Sc45 O61 2.105 . S
Sc45 O65 2.105 . S
Sc46 O47 2.025 . S
Sc46 O56 2.105 . S
Sc46 O58 2.105 . S
Sc46 O62 2.105 . S
Sc46 O64 2.105 . S
O47 Sc44 2.025 . S
O47 Sc45 2.025 . S
O47 Sc46 2.025 . S
C48 O54 1.268 . S
C48 O64 1.268 . S
C49 O55 1.268 . S
C49 O63 1.268 . S
C50 O56 1.268 . S
C50 O65 1.268 . S
C51 O57 1.268 . S
C51 O61 1.268 . S
C52 O58 1.268 . S
C52 O60 1.268 . S
C53 O59 1.268 . S
C53 O62 1.268 . S
O54 Sc44 2.105 . S
O54 C48 1.268 . S
O55 Sc45 2.105 . S
O55 C49 1.268 . S
O56 Sc46 2.105 . S
O56 C50 1.268 . S
O57 Sc44 2.105 . S
O57 C51 1.268 . S
O58 Sc46 2.105 . S
O58 C52 1.268 . S
O59 Sc45 2.105 . S
O59 C53 1.268 . S
O60 Sc44 2.105 . S
O60 C52 1.268 . S
O61 Sc45 2.105 . S
O61 C51 1.268 . S
O62 Sc46 2.105 . S
O62 C53 1.268 . S
O63 Sc44 2.105 . S
O63 C49 1.268 . S
O64 Sc46 2.105 . S
O64 C48 1.268 . S
O65 Sc45 2.105 . S
O65 C50 1.268 . S
Sc66 O69 2.025 . S
Sc66 O76 2.105 . S
Sc66 O79 2.105 . S
Sc66 O82 2.105 . S
Sc66 O85 2.105 . S
Sc67 O69 2.025 . S
Sc67 O77 2.105 . S
Sc67 O81 2.105 . S
Sc67 O83 2.105 . S
Sc67 O87 2.105 . S
Sc68 O69 2.025 . S
Sc68 O78 2.105 . S
Sc68 O80 2.105 . S
Sc68 O84 2.105 . S
Sc68 O86 2.105 . S
O69 Sc66 2.025 . S
O69 Sc67 2.025 . S
O69 Sc68 2.025 . S
C70 O76 1.268 . S
C70 O86 1.268 . S
C71 O77 1.268 . S
C71 O85 1.268 . S
C72 O78 1.268 . S
C72 O87 1.268 . S
C73 O79 1.268 . S
C73 O83 1.268 . S
C74 O80 1.268 . S
C74 O82 1.268 . S
C75 O81 1.268 . S
C75 O84 1.268 . S
O76 Sc66 2.105 . S
O76 C70 1.268 . S
O77 Sc67 2.105 . S
O77 C71 1.268 . S
O78 Sc68 2.105 . S
O78 C72 1.268 . S
O79 Sc66 2.105 . S
O79 C73 1.268 . S
O80 Sc68 2.105 . S
O80 C74 1.268 . S
O81 Sc67 2.105 . S
O81 C75 1.268 . S
O82 Sc66 2.105 . S
O82 C74 1.268 . S
O83 Sc67 2.105 . S
O83 C73 1.268 . S
O84 Sc68 2.105 . S
O84 C75 1.268 . S
O85 Sc66 2.105 . S
O85 C71 1.268 . S
O86 Sc68 2.105 . S
O86 C70 1.268 . S
O87 Sc67 2.105 . S
O87 C72 1.268 . S
Sc88 O91 2.025 . S
Sc88 O98 2.105 1_455 S
Sc88 O101 2.105 . S
Sc88 O104 2.105 1_455 S
Sc88 O107 2.105 . S
Sc89 O91 2.025 . S
Sc89 O99 2.105 . S
Sc89 O103 2.105 . S
Sc89 O105 2.105 . S
Sc89 O109 2.105 . S
Sc90 O91 2.025 1_655 S
Sc90 O100 2.105 . S
Sc90 O102 2.105 . S
Sc90 O106 2.105 . S
Sc90 O108 2.105 . S
O91 Sc88 2.025 . S
O91 Sc89 2.025 . S
O91 Sc90 2.025 1_455 S
C92 O98 1.268 . S
C92 O108 1.268 . S
C93 O99 1.268 . S
C93 O107 1.268 . S
C94 O100 1.268 1_455 S
C94 O109 1.268 . S
C95 O101 1.268 . S
C95 O105 1.268 . S
C96 O102 1.268 . S
C96 O104 1.268 . S
C97 O103 1.268 . S
C97 O106 1.268 1_455 S
O98 Sc88 2.105 1_655 S
O98 C92 1.268 . S
O99 Sc89 2.105 . S
O99 C93 1.268 . S
O100 Sc90 2.105 . S
O100 C94 1.268 1_655 S
O101 Sc88 2.105 . S
O101 C95 1.268 . S
O102 Sc90 2.105 . S
O102 C96 1.268 . S
O103 Sc89 2.105 . S
O103 C97 1.268 . S
O104 Sc88 2.105 1_655 S
O104 C96 1.268 . S
O105 Sc89 2.105 . S
O105 C95 1.268 . S
O106 Sc90 2.105 . S
O106 C97 1.268 1_655 S
O107 Sc88 2.105 . S
O107 C93 1.268 . S
O108 Sc90 2.105 . S
O108 C92 1.268 . S
O109 Sc89 2.105 . S
O109 C94 1.268 . S
Sc110 O113 2.025 . S
Sc110 O120 2.105 . S
Sc110 O123 2.105 . S
Sc110 O126 2.105 . S
Sc110 O129 2.105 . S
Sc111 O113 2.025 . S
Sc111 O121 2.105 . S
Sc111 O125 2.105 . S
Sc111 O127 2.105 . S
Sc111 O131 2.105 . S
Sc112 O113 2.025 . S
Sc112 O122 2.105 . S
Sc112 O124 2.105 . S
Sc112 O128 2.105 . S
Sc112 O130 2.105 . S
O113 Sc110 2.025 . S
O113 Sc111 2.025 . S
O113 Sc112 2.025 . S
C114 O120 1.268 . S
C114 O130 1.268 . S
C115 O121 1.268 . S
C115 O129 1.268 . S
C116 O122 1.268 . S
C116 O131 1.268 . S
C117 O123 1.268 . S
C117 O127 1.268 . S
C118 O124 1.268 . S
C118 O126 1.268 . S
C119 O125 1.268 . S
C119 O128 1.268 . S
O120 Sc110 2.105 . S
O120 C114 1.268 . S
O121 Sc111 2.105 . S
O121 C115 1.268 . S
O122 Sc112 2.105 . S
O122 C116 1.268 . S
O123 Sc110 2.105 . S
O123 C117 1.268 . S
O124 Sc112 2.105 . S
O124 C118 1.268 . S
O125 Sc111 2.105 . S
O125 C119 1.268 . S
O126 Sc110 2.105 . S
O126 C118 1.268 . S
O127 Sc111 2.105 . S
O127 C117 1.268 . S
O128 Sc112 2.105 . S
O128 C119 1.268 . S
O129 Sc110 2.105 . S
O129 C115 1.268 . S
O130 Sc112 2.105 . S
O130 C114 1.268 . S
O131 Sc111 2.105 . S
O131 C116 1.268 . S
Sc132 O135 2.025 . S
Sc132 O142 2.105 . S
Sc132 O145 2.105 . S
Sc132 O148 2.105 . S
Sc132 O151 2.105 . S
Sc133 O135 2.025 . S
Sc133 O143 2.105 . S
Sc133 O147 2.105 . S
Sc133 O149 2.105 . S
Sc133 O153 2.105 . S
Sc134 O135 2.025 . S
Sc134 O144 2.105 . S
Sc134 O146 2.105 . S
Sc134 O150 2.105 . S
Sc134 O152 2.105 . S
O135 Sc132 2.025 . S
O135 Sc133 2.025 . S
O135 Sc134 2.025 . S
C136 O142 1.268 . S
C136 O152 1.268 . S
C137 O143 1.268 . S
C137 O151 1.268 . S
C138 O144 1.268 . S
C138 O153 1.268 . S
C139 O145 1.268 . S
C139 O149 1.268 . S
C140 O146 1.268 . S
C140 O148 1.268 . S
C141 O147 1.268 . S
C141 O150 1.268 . S
O142 Sc132 2.105 . S
O142 C136 1.268 . S
O143 Sc133 2.105 . S
O143 C137 1.268 . S
O144 Sc134 2.105 . S
O144 C138 1.268 . S
O145 Sc132 2.105 . S
O145 C139 1.268 . S
O146 Sc134 2.105 . S
O146 C140 1.268 . S
O147 Sc133 2.105 . S
O147 C141 1.268 . S
O148 Sc132 2.105 . S
O148 C140 1.268 . S
O149 Sc133 2.105 . S
O149 C139 1.268 . S
O150 Sc134 2.105 . S
O150 C141 1.268 . S
O151 Sc132 2.105 . S
O151 C137 1.268 . S
O152 Sc134 2.105 . S
O152 C136 1.268 . S
O153 Sc133 2.105 . S
O153 C138 1.268 . S
Sc154 O157 2.025 . S
Sc154 O164 2.105 1_455 S
Sc154 O167 2.105 . S
Sc154 O170 2.105 . S
Sc154 O173 2.105 1_455 S
Sc155 O157 2.025 . S
Sc155 O165 2.105 1_455 S
Sc155 O169 2.105 . S
Sc155 O171 2.105 . S
Sc155 O175 2.105 1_455 S
Sc156 O157 2.025 . S
Sc156 O166 2.105 1_455 S
Sc156 O168 2.105 . S
Sc156 O172 2.105 . S
Sc156 O174 2.105 1_455 S
O157 Sc154 2.025 . S
O157 Sc155 2.025 . S
O157 Sc156 2.025 . S
C158 O164 1.268 . S
C158 O174 1.268 . S
C159 O165 1.268 . S
C159 O173 1.268 . S
C160 O166 1.268 . S
C160 O175 1.268 . S
C161 O167 1.268 . S
C161 O171 1.268 . S
C162 O168 1.268 . S
C162 O170 1.268 . S
C163 O169 1.268 . S
C163 O172 1.268 . S
O164 Sc154 2.105 1_655 S
O164 C158 1.268 . S
O165 Sc155 2.105 1_655 S
O165 C159 1.268 . S
O166 Sc156 2.105 1_655 S
O166 C160 1.268 . S
O167 Sc154 2.105 . S
O167 C161 1.268 . S
O168 Sc156 2.105 . S
O168 C162 1.268 . S
O169 Sc155 2.105 . S
O169 C163 1.268 . S
O170 Sc154 2.105 . S
O170 C162 1.268 . S
O171 Sc155 2.105 . S
O171 C161 1.268 . S
O172 Sc156 2.105 . S
O172 C163 1.268 . S
O173 Sc154 2.105 1_655 S
O173 C159 1.268 . S
O174 Sc156 2.105 1_655 S
O174 C158 1.268 . S
O175 Sc155 2.105 1_655 S
O175 C160 1.268 . S
H176 C194 0.951 . S
H177 C196 0.951 . S
H178 C198 0.950 . S
H179 C199 0.950 . S
H180 C201 0.950 . S
H181 C204 0.950 1_455 S
H182 C205 0.950 1_455 S
H183 C207 0.950 . S
H184 C208 0.950 . S
H185 C209 0.951 . S
H186 C211 0.951 . S
H187 C213 0.950 . S
H188 C214 0.950 . S
H189 C216 0.950 . S
H190 C219 0.950 1_655 S
H191 C220 0.950 1_655 S
H192 C222 0.950 . S
H193 C223 0.950 . S
C194 H176 0.951 . S
C194 C195 1.366 1_655 S
C194 C196 1.388 . S
C195 C194 1.366 1_455 S
C195 C199 1.385 . S
C196 H177 0.951 . S
C196 C194 1.388 . S
C196 C197 1.349 1_655 S
C197 C196 1.349 1_455 S
C197 C198 1.431 . S
C197 C200 1.499 . S
C198 H178 0.950 . S
C198 C197 1.431 . S
C198 C199 1.374 . S
C199 H179 0.950 . S
C199 C195 1.385 . S
C199 C198 1.374 . S
C200 C197 1.499 . S
C200 C201 1.373 . S
C200 C202 1.389 1_454 S
C201 H180 0.950 . S
C201 C200 1.373 . S
C201 C217 1.377 . S
C202 C200 1.389 1_656 S
C202 C203 1.524 . S
C202 C216 1.377 . S
C203 C202 1.524 . S
C203 C204 1.397 . S
C203 C208 1.363 . S
C204 H181 0.950 1_655 S
C204 C203 1.397 . S
C204 C205 1.334 . S
C205 H182 0.950 1_655 S
C205 C204 1.334 . S
C205 C206 1.287 . S
C206 C205 1.287 . S
C206 C207 1.524 . S
C206 H225 0.913 . S
C207 H183 0.950 . S
C207 C206 1.524 . S
C207 C208 1.415 . S
C208 H184 0.950 . S
C208 C203 1.363 . S
C208 C207 1.415 . S
C209 H185 0.951 . S
C209 C210 1.366 . S
C209 C211 1.388 . S
C210 C209 1.366 . S
C210 C214 1.385 1_455 S
C211 H186 0.951 . S
C211 C209 1.388 . S
C211 C212 1.353 1_455 S
C212 C211 1.353 1_655 S
C212 C213 1.426 . S
C212 C215 1.499 . S
C213 H187 0.950 . S
C213 C212 1.426 . S
C213 C214 1.374 . S
C214 H188 0.950 . S
C214 C210 1.385 1_655 S
C214 C213 1.374 . S
C215 C212 1.499 . S
C215 C216 1.373 . S
C215 C217 1.389 1_656 S
C216 H189 0.950 . S
C216 C202 1.377 . S
C216 C215 1.373 . S
C217 C201 1.377 . S
C217 C215 1.389 1_454 S
C217 C218 1.524 . S
C218 C217 1.524 . S
C218 C219 1.397 . S
C218 C223 1.363 . S
C219 H190 0.950 1_455 S
C219 C218 1.397 . S
C219 C220 1.334 . S
C220 H191 0.950 1_455 S
C220 C219 1.334 . S
C220 C221 1.287 . S
C221 C220 1.287 . S
C221 C222 1.524 . S
C221 H224 0.999 . S
C222 H192 0.950 . S
C222 C221 1.524 . S
C222 C223 1.415 . S
C223 H193 0.950 . S
C223 C218 1.363 . S
C223 C222 1.415 . S
H224 C221 0.999 . S
H225 C206 0.913 . S
H226 C244 0.951 . S
H227 C246 0.951 . S
H228 C248 0.950 . S
H229 C249 0.950 . S
H230 C251 0.950 . S
H231 C254 0.950 . S
H232 C255 0.950 . S
H233 C257 0.950 . S
H234 C258 0.950 . S
H235 C259 0.951 . S
H236 C261 0.951 . S
H237 C263 0.950 . S
H238 C264 0.950 . S
H239 C266 0.950 . S
H240 C269 0.950 . S
H241 C270 0.950 . S
H242 C272 0.950 . S
H243 C273 0.950 . S
C244 H226 0.951 . S
C244 C245 1.366 . S
C244 C246 1.388 . S
C245 C244 1.366 . S
C245 C249 1.385 . S
C246 H227 0.951 . S
C246 C244 1.388 . S
C246 C247 1.366 . S
C247 C246 1.366 . S
C247 C248 1.414 . S
C247 C250 1.499 . S
C248 H228 0.950 . S
C248 C247 1.414 . S
C248 C249 1.374 . S
C249 H229 0.950 . S
C249 C245 1.385 . S
C249 C248 1.374 . S
C250 C247 1.499 . S
C250 C251 1.373 . S
C250 C252 1.389 . S
C251 H230 0.950 . S
C251 C250 1.373 . S
C251 C267 1.377 . S
C252 C250 1.389 . S
C252 C253 1.524 . S
C252 C266 1.377 . S
C253 C252 1.524 . S
C253 C254 1.397 . S
C253 C258 1.363 . S
C254 H231 0.950 . S
C254 C253 1.397 . S
C254 C255 1.334 . S
C255 H232 0.950 . S
C255 C254 1.334 . S
C255 C256 1.287 . S
C256 C255 1.287 . S
C256 C257 1.524 . S
C256 H275 0.913 . S
C257 H233 0.950 . S
C257 C256 1.524 . S
C257 C258 1.415 . S
C258 H234 0.950 . S
C258 C253 1.363 . S
C258 C257 1.415 . S
C259 H235 0.951 . S
C259 C260 1.366 . S
C259 C261 1.388 . S
C260 C259 1.366 . S
C260 C264 1.385 . S
C261 H236 0.951 . S
C261 C259 1.388 . S
C261 C262 1.366 . S
C262 C261 1.366 . S
C262 C263 1.414 . S
C262 C265 1.499 . S
C263 H237 0.950 . S
C263 C262 1.414 . S
C263 C264 1.374 . S
C264 H238 0.950 . S
C264 C260 1.385 . S
C264 C263 1.374 . S
C265 C262 1.499 . S
C265 C266 1.373 . S
C265 C267 1.389 . S
C266 H239 0.950 . S
C266 C252 1.377 . S
C266 C265 1.373 . S
C267 C251 1.377 . S
C267 C265 1.389 . S
C267 C268 1.524 . S
C268 C267 1.524 . S
C268 C269 1.397 . S
C268 C273 1.363 . S
C269 H240 0.950 . S
C269 C268 1.397 . S
C269 C270 1.334 . S
C270 H241 0.950 . S
C270 C269 1.334 . S
C270 C271 1.287 . S
C271 C270 1.287 . S
C271 C272 1.524 . S
C271 H274 0.999 . S
C272 H242 0.950 . S
C272 C271 1.524 . S
C272 C273 1.415 . S
C273 H243 0.950 . S
C273 C268 1.363 . S
C273 C272 1.415 . S
H274 C271 0.999 . S
H275 C256 0.913 . S
H276 C294 0.951 . S
H277 C296 0.951 . S
H278 C298 0.950 . S
H279 C299 0.950 . S
H280 C301 0.950 . S
H281 C304 0.950 . S
H282 C305 0.950 . S
H283 C307 0.950 . S
H284 C308 0.950 . S
H285 C309 0.951 . S
H286 C311 0.951 . S
H287 C313 0.950 . S
H288 C314 0.950 . S
H289 C316 0.950 . S
H290 C319 0.950 . S
H291 C320 0.950 . S
H292 C322 0.950 . S
H293 C323 0.950 . S
C294 H276 0.951 . S
C294 C295 1.366 . S
C294 C296 1.388 . S
C295 C294 1.366 . S
C295 C299 1.385 . S
C296 H277 0.951 . S
C296 C294 1.388 . S
C296 C297 1.366 . S
C297 C296 1.366 . S
C297 C298 1.414 . S
C297 C300 1.499 . S
C298 H278 0.950 . S
C298 C297 1.414 . S
C298 C299 1.374 . S
C299 H279 0.950 . S
C299 C295 1.385 . S
C299 C298 1.374 . S
C300 C297 1.499 . S
C300 C301 1.373 . S
C300 C302 1.389 . S
C301 H280 0.950 . S
C301 C300 1.373 . S
C301 C317 1.377 . S
C302 C300 1.389 . S
C302 C303 1.524 . S
C302 C316 1.377 . S
C303 C302 1.524 . S
C303 C304 1.397 . S
C303 C308 1.363 . S
C304 H281 0.950 . S
C304 C303 1.397 . S
C304 C305 1.334 . S
C305 H282 0.950 . S
C305 C304 1.334 . S
C305 C306 1.287 . S
C306 C305 1.287 . S
C306 C307 1.524 . S
C306 H325 0.913 . S
C307 H283 0.950 . S
C307 C306 1.524 . S
C307 C308 1.415 . S
C308 H284 0.950 . S
C308 C303 1.363 . S
C308 C307 1.415 . S
C309 H285 0.951 . S
C309 C310 1.366 . S
C309 C311 1.388 . S
C310 C309 1.366 . S
C310 C314 1.385 . S
C311 H286 0.951 . S
C311 C309 1.388 . S
C311 C312 1.366 . S
C312 C311 1.366 . S
C312 C313 1.414 . S
C312 C315 1.499 . S
C313 H287 0.950 . S
C313 C312 1.414 . S
C313 C314 1.374 . S
C314 H288 0.950 . S
C314 C310 1.385 . S
C314 C313 1.374 . S
C315 C312 1.499 . S
C315 C316 1.373 . S
C315 C317 1.389 . S
C316 H289 0.950 . S
C316 C302 1.377 . S
C316 C315 1.373 . S
C317 C301 1.377 . S
C317 C315 1.389 . S
C317 C318 1.524 . S
C318 C317 1.524 . S
C318 C319 1.397 . S
C318 C323 1.363 . S
C319 H290 0.950 . S
C319 C318 1.397 . S
C319 C320 1.334 . S
C320 H291 0.950 . S
C320 C319 1.334 . S
C320 C321 1.287 . S
C321 C320 1.287 . S
C321 C322 1.524 . S
C321 H324 0.999 . S
C322 H292 0.950 . S
C322 C321 1.524 . S
C322 C323 1.415 . S
C323 H293 0.950 . S
C323 C318 1.363 . S
C323 C322 1.415 . S
H324 C321 0.999 . S
H325 C306 0.913 . S
H326 C344 0.951 . S
H327 C346 0.951 . S
H328 C348 0.950 . S
H329 C349 0.950 . S
H330 C351 0.950 . S
H331 C354 0.950 . S
H332 C355 0.950 . S
H333 C357 0.950 . S
H334 C358 0.950 . S
H335 C359 0.951 . S
H336 C361 0.951 . S
H337 C363 0.950 . S
H338 C364 0.950 . S
H339 C366 0.950 . S
H340 C369 0.950 . S
H341 C370 0.950 . S
H342 C372 0.950 . S
H343 C373 0.950 . S
C344 H326 0.951 . S
C344 C345 1.366 . S
C344 C346 1.388 . S
C345 C344 1.366 . S
C345 C349 1.385 . S
C346 H327 0.951 . S
C346 C344 1.388 . S
C346 C347 1.366 . S
C347 C346 1.366 . S
C347 C348 1.414 . S
C347 C350 1.499 . S
C348 H328 0.950 . S
C348 C347 1.414 . S
C348 C349 1.374 . S
C349 H329 0.950 . S
C349 C345 1.385 . S
C349 C348 1.374 . S
C350 C347 1.499 . S
C350 C351 1.373 . S
C350 C352 1.389 . S
C351 H330 0.950 . S
C351 C350 1.373 . S
C351 C367 1.377 . S
C352 C350 1.389 . S
C352 C353 1.524 . S
C352 C366 1.377 . S
C353 C352 1.524 . S
C353 C354 1.397 . S
C353 C358 1.363 . S
C354 H331 0.950 . S
C354 C353 1.397 . S
C354 C355 1.334 . S
C355 H332 0.950 . S
C355 C354 1.334 . S
C355 C356 1.287 . S
C356 C355 1.287 . S
C356 C357 1.524 . S
C356 H375 0.913 . S
C357 H333 0.950 . S
C357 C356 1.524 . S
C357 C358 1.415 . S
C358 H334 0.950 . S
C358 C353 1.363 . S
C358 C357 1.415 . S
C359 H335 0.951 . S
C359 C360 1.366 . S
C359 C361 1.388 . S
C360 C359 1.366 . S
C360 C364 1.385 . S
C361 H336 0.951 . S
C361 C359 1.388 . S
C361 C362 1.366 . S
C362 C361 1.366 . S
C362 C363 1.414 . S
C362 C365 1.499 . S
C363 H337 0.950 . S
C363 C362 1.414 . S
C363 C364 1.374 . S
C364 H338 0.950 . S
C364 C360 1.385 . S
C364 C363 1.374 . S
C365 C362 1.499 . S
C365 C366 1.373 . S
C365 C367 1.389 . S
C366 H339 0.950 . S
C366 C352 1.377 . S
C366 C365 1.373 . S
C367 C351 1.377 . S
C367 C365 1.389 . S
C367 C368 1.524 . S
C368 C367 1.524 . S
C368 C369 1.397 . S
C368 C373 1.363 . S
C369 H340 0.950 . S
C369 C368 1.397 . S
C369 C370 1.334 . S
C370 H341 0.950 . S
C370 C369 1.334 . S
C370 C371 1.287 . S
C371 C370 1.287 . S
C371 C372 1.524 . S
C371 H374 0.999 . S
C372 H342 0.950 . S
C372 C371 1.524 . S
C372 C373 1.415 . S
C373 H343 0.950 . S
C373 C368 1.363 . S
C373 C372 1.415 . S
H374 C371 0.999 . S
H375 C356 0.913 . S
H376 C394 0.951 . S
H377 C396 0.951 . S
H378 C398 0.950 . S
H379 C399 0.950 . S
H380 C401 0.950 . S
H381 C404 0.950 . S
H382 C405 0.950 . S
H383 C407 0.950 . S
H384 C408 0.950 . S
H385 C409 0.951 . S
H386 C411 0.951 . S
H387 C413 0.950 . S
H388 C414 0.950 . S
H389 C416 0.950 . S
H390 C419 0.950 . S
H391 C420 0.950 . S
H392 C422 0.950 . S
H393 C423 0.950 . S
C394 H376 0.951 . S
C394 C395 1.366 . S
C394 C396 1.388 . S
C395 C394 1.366 . S
C395 C399 1.385 . S
C396 H377 0.951 . S
C396 C394 1.388 . S
C396 C397 1.366 . S
C397 C396 1.366 . S
C397 C398 1.414 . S
C397 C400 1.499 . S
C398 H378 0.950 . S
C398 C397 1.414 . S
C398 C399 1.374 . S
C399 H379 0.950 . S
C399 C395 1.385 . S
C399 C398 1.374 . S
C400 C397 1.499 . S
C400 C401 1.373 . S
C400 C402 1.389 . S
C401 H380 0.950 . S
C401 C400 1.373 . S
C401 C417 1.377 . S
C402 C400 1.389 . S
C402 C403 1.524 . S
C402 C416 1.377 . S
C403 C402 1.524 . S
C403 C404 1.397 . S
C403 C408 1.363 . S
C404 H381 0.950 . S
C404 C403 1.397 . S
C404 C405 1.334 . S
C405 H382 0.950 . S
C405 C404 1.334 . S
C405 C406 1.287 . S
C406 C405 1.287 . S
C406 C407 1.524 . S
C406 H425 0.913 . S
C407 H383 0.950 . S
C407 C406 1.524 . S
C407 C408 1.415 . S
C408 H384 0.950 . S
C408 C403 1.363 . S
C408 C407 1.415 . S
C409 H385 0.951 . S
C409 C410 1.366 . S
C409 C411 1.388 . S
C410 C409 1.366 . S
C410 C414 1.385 . S
C411 H386 0.951 . S
C411 C409 1.388 . S
C411 C412 1.366 . S
C412 C411 1.366 . S
C412 C413 1.414 . S
C412 C415 1.499 . S
C413 H387 0.950 . S
C413 C412 1.414 . S
C413 C414 1.374 . S
C414 H388 0.950 . S
C414 C410 1.385 . S
C414 C413 1.374 . S
C415 C412 1.499 . S
C415 C416 1.373 . S
C415 C417 1.389 . S
C416 H389 0.950 . S
C416 C402 1.377 . S
C416 C415 1.373 . S
C417 C401 1.377 . S
C417 C415 1.389 . S
C417 C418 1.524 . S
C418 C417 1.524 . S
C418 C419 1.397 . S
C418 C423 1.363 . S
C419 H390 0.950 . S
C419 C418 1.397 . S
C419 C420 1.334 . S
C420 H391 0.950 . S
C420 C419 1.334 . S
C420 C421 1.287 . S
C421 C420 1.287 . S
C421 C422 1.524 . S
C421 H424 0.999 . S
C422 H392 0.950 . S
C422 C421 1.524 . S
C422 C423 1.415 . S
C423 H393 0.950 . S
C423 C418 1.363 . S
C423 C422 1.415 . S
H424 C421 0.999 . S
H425 C406 0.913 . S
H426 C444 0.951 . S
H427 C446 0.951 . S
H428 C448 0.950 . S
H429 C449 0.950 . S
H430 C451 0.950 . S
H431 C454 0.950 . S
H432 C455 0.950 . S
H433 C457 0.950 . S
H434 C458 0.950 . S
H435 C459 0.951 . S
H436 C461 0.951 . S
H437 C463 0.950 . S
H438 C464 0.950 . S
H439 C466 0.950 . S
H440 C469 0.950 . S
H441 C470 0.950 . S
H442 C472 0.950 . S
H443 C473 0.950 . S
C444 H426 0.951 . S
C444 C445 1.366 . S
C444 C446 1.388 . S
C445 C444 1.366 . S
C445 C449 1.385 . S
C446 H427 0.951 . S
C446 C444 1.388 . S
C446 C447 1.366 . S
C447 C446 1.366 . S
C447 C448 1.414 . S
C447 C450 1.499 . S
C448 H428 0.950 . S
C448 C447 1.414 . S
C448 C449 1.374 . S
C449 H429 0.950 . S
C449 C445 1.385 . S
C449 C448 1.374 . S
C450 C447 1.499 . S
C450 C451 1.373 . S
C450 C452 1.389 . S
C451 H430 0.950 . S
C451 C450 1.373 . S
C451 C467 1.377 . S
C452 C450 1.389 . S
C452 C453 1.524 . S
C452 C466 1.377 . S
C453 C452 1.524 . S
C453 C454 1.397 . S
C453 C458 1.363 . S
C454 H431 0.950 . S
C454 C453 1.397 . S
C454 C455 1.334 . S
C455 H432 0.950 . S
C455 C454 1.334 . S
C455 C456 1.287 . S
C456 C455 1.287 . S
C456 C457 1.524 . S
C456 H475 0.913 . S
C457 H433 0.950 . S
C457 C456 1.524 . S
C457 C458 1.415 . S
C458 H434 0.950 . S
C458 C453 1.363 . S
C458 C457 1.415 . S
C459 H435 0.951 . S
C459 C460 1.366 . S
C459 C461 1.388 . S
C460 C459 1.366 . S
C460 C464 1.385 . S
C461 H436 0.951 . S
C461 C459 1.388 . S
C461 C462 1.366 . S
C462 C461 1.366 . S
C462 C463 1.414 . S
C462 C465 1.499 . S
C463 H437 0.950 . S
C463 C462 1.414 . S
C463 C464 1.374 . S
C464 H438 0.950 . S
C464 C460 1.385 . S
C464 C463 1.374 . S
C465 C462 1.499 . S
C465 C466 1.373 . S
C465 C467 1.389 . S
C466 H439 0.950 . S
C466 C452 1.377 . S
C466 C465 1.373 . S
C467 C451 1.377 . S
C467 C465 1.389 . S
C467 C468 1.524 . S
C468 C467 1.524 . S
C468 C469 1.397 . S
C468 C473 1.363 . S
C469 H440 0.950 . S
C469 C468 1.397 . S
C469 C470 1.334 . S
C470 H441 0.950 . S
C470 C469 1.334 . S
C470 C471 1.287 . S
C471 C470 1.287 . S
C471 C472 1.524 . S
C471 H474 0.999 . S
C472 H442 0.950 . S
C472 C471 1.524 . S
C472 C473 1.415 . S
C473 H443 0.950 . S
C473 C468 1.363 . S
C473 C472 1.415 . S
H474 C471 0.999 . S
H475 C456 0.913 . S
H476 C494 0.951 . S
H477 C496 0.951 . S
H478 C498 0.950 . S
H479 C499 0.950 . S
H480 C501 0.950 . S
H481 C504 0.950 . S
H482 C505 0.950 . S
H483 C507 0.950 . S
H484 C508 0.950 . S
H485 C509 0.951 . S
H486 C511 0.951 . S
H487 C513 0.950 . S
H488 C514 0.950 . S
H489 C516 0.950 . S
H490 C519 0.950 . S
H491 C520 0.950 . S
H492 C522 0.950 . S
H493 C523 0.950 . S
C494 H476 0.951 . S
C494 C495 1.366 . S
C494 C496 1.388 . S
C495 C494 1.366 . S
C495 C499 1.385 . S
C496 H477 0.951 . S
C496 C494 1.388 . S
C496 C497 1.366 . S
C497 C496 1.366 . S
C497 C498 1.414 . S
C497 C500 1.499 . S
C498 H478 0.950 . S
C498 C497 1.414 . S
C498 C499 1.374 . S
C499 H479 0.950 . S
C499 C495 1.385 . S
C499 C498 1.374 . S
C500 C497 1.499 . S
C500 C501 1.373 . S
C500 C502 1.389 . S
C501 H480 0.950 . S
C501 C500 1.373 . S
C501 C517 1.377 1_545 S
C502 C500 1.389 . S
C502 C503 1.524 . S
C502 C516 1.377 1_545 S
C503 C502 1.524 . S
C503 C504 1.397 . S
C503 C508 1.363 1_545 S
C504 H481 0.950 . S
C504 C503 1.397 . S
C504 C505 1.334 . S
C505 H482 0.950 . S
C505 C504 1.334 . S
C505 C506 1.287 . S
C506 C505 1.287 . S
C506 C507 1.524 1_545 S
C506 H525 0.913 . S
C507 H483 0.950 . S
C507 C506 1.524 1_565 S
C507 C508 1.415 . S
C508 H484 0.950 . S
C508 C503 1.363 1_565 S
C508 C507 1.415 . S
C509 H485 0.951 . S
C509 C510 1.366 . S
C509 C511 1.388 . S
C510 C509 1.366 . S
C510 C514 1.385 . S
C511 H486 0.951 . S
C511 C509 1.388 . S
C511 C512 1.366 . S
C512 C511 1.366 . S
C512 C513 1.414 . S
C512 C515 1.499 . S
C513 H487 0.950 . S
C513 C512 1.414 . S
C513 C514 1.374 . S
C514 H488 0.950 . S
C514 C510 1.385 . S
C514 C513 1.374 . S
C515 C512 1.499 . S
C515 C516 1.373 . S
C515 C517 1.389 . S
C516 H489 0.950 . S
C516 C502 1.377 1_565 S
C516 C515 1.373 . S
C517 C501 1.377 1_565 S
C517 C515 1.389 . S
C517 C518 1.524 . S
C518 C517 1.524 . S
C518 C519 1.397 . S
C518 C523 1.363 1_565 S
C519 H490 0.950 . S
C519 C518 1.397 . S
C519 C520 1.334 . S
C520 H491 0.950 . S
C520 C519 1.334 . S
C520 C521 1.287 . S
C521 C520 1.287 . S
C521 C522 1.524 1_565 S
C521 H524 0.999 . S
C522 H492 0.950 . S
C522 C521 1.524 1_545 S
C522 C523 1.415 . S
C523 H493 0.950 . S
C523 C518 1.363 1_545 S
C523 C522 1.415 . S
H524 C521 0.999 . S
H525 C506 0.913 . S
H526 C544 0.951 . S
H527 C546 0.951 . S
H528 C548 0.950 . S
H529 C549 0.950 . S
H530 C551 0.950 . S
H531 C554 0.950 . S
H532 C555 0.950 . S
H533 C557 0.950 . S
H534 C558 0.950 . S
H535 C559 0.951 . S
H536 C561 0.951 . S
H537 C563 0.950 . S
H538 C564 0.950 . S
H539 C566 0.950 . S
H540 C569 0.950 . S
H541 C570 0.950 . S
H542 C572 0.950 . S
H543 C573 0.950 . S
C544 H526 0.951 . S
C544 C545 1.365 1_655 S
C544 C546 1.388 . S
C545 C544 1.365 1_455 S
C545 C549 1.385 . S
C546 H527 0.951 . S
C546 C544 1.388 . S
C546 C547 1.366 . S
C547 C546 1.366 . S
C547 C548 1.414 1_655 S
C547 C550 1.499 . S
C548 H528 0.950 . S
C548 C547 1.414 1_455 S
C548 C549 1.374 . S
C549 H529 0.950 . S
C549 C545 1.385 . S
C549 C548 1.374 . S
C550 C547 1.499 . S
C550 C551 1.373 1_655 S
C550 C552 1.389 . S
C551 H530 0.950 . S
C551 C550 1.373 1_455 S
C551 C567 1.377 1_544 S
C552 C550 1.389 . S
C552 C553 1.524 . S
C552 C566 1.377 1_544 S
C553 C552 1.524 . S
C553 C554 1.397 . S
C553 C558 1.363 1_554 S
C554 H531 0.950 . S
C554 C553 1.397 . S
C554 C555 1.334 . S
C555 H532 0.950 . S
C555 C554 1.334 . S
C555 C556 1.287 . S
C556 C555 1.287 . S
C556 C557 1.524 1_554 S
C556 H575 0.913 . S
C557 H533 0.950 . S
C557 C556 1.524 1_556 S
C557 C558 1.415 . S
C558 H534 0.950 . S
C558 C553 1.363 1_556 S
C558 C557 1.415 . S
C559 H535 0.951 . S
C559 C560 1.365 . S
C559 C561 1.388 . S
C560 C559 1.365 . S
C560 C564 1.385 1_455 S
C561 H536 0.951 . S
C561 C559 1.388 . S
C561 C562 1.366 . S
C562 C561 1.366 . S
C562 C563 1.414 1_455 S
C562 C565 1.499 . S
C563 H537 0.950 . S
C563 C562 1.414 1_655 S
C563 C564 1.374 . S
C564 H538 0.950 . S
C564 C560 1.385 1_655 S
C564 C563 1.374 . S
C565 C562 1.499 . S
C565 C566 1.373 1_455 S
C565 C567 1.389 . S
C566 H539 0.950 . S
C566 C552 1.377 1_566 S
C566 C565 1.373 1_655 S
C567 C551 1.377 1_566 S
C567 C565 1.389 . S
C567 C568 1.524 . S
C568 C567 1.524 . S
C568 C569 1.397 . S
C568 C573 1.363 1_556 S
C569 H540 0.950 . S
C569 C568 1.397 . S
C569 C570 1.334 . S
C570 H541 0.950 . S
C570 C569 1.334 . S
C570 C571 1.287 . S
C571 C570 1.287 . S
C571 C572 1.524 1_556 S
C571 H574 0.999 . S
C572 H542 0.950 . S
C572 C571 1.524 1_554 S
C572 C573 1.415 . S
C573 H543 0.950 . S
C573 C568 1.363 1_554 S
C573 C572 1.415 . S
H574 C571 0.999 . S
H575 C556 0.913 . S
H576 C594 0.951 . S
H577 C596 0.951 . S
H578 C598 0.950 . S
H579 C599 0.950 . S
H580 C601 0.950 . S
H581 C604 0.950 . S
H582 C605 0.950 . S
H583 C607 0.950 . S
H584 C608 0.950 . S
H585 C609 0.951 . S
H586 C611 0.951 . S
H587 C613 0.950 . S
H588 C614 0.950 . S
H589 C616 0.950 . S
H590 C619 0.950 . S
H591 C620 0.950 . S
H592 C622 0.950 . S
H593 C623 0.950 . S
C594 H576 0.951 . S
C594 C595 1.366 . S
C594 C596 1.388 . S
C595 C594 1.366 . S
C595 C599 1.385 . S
C596 H577 0.951 . S
C596 C594 1.388 . S
C596 C597 1.366 . S
C597 C596 1.366 . S
C597 C598 1.414 . S
C597 C600 1.499 . S
C598 H578 0.950 . S
C598 C597 1.414 . S
C598 C599 1.374 . S
C599 H579 0.950 . S
C599 C595 1.385 . S
C599 C598 1.374 . S
C600 C597 1.499 . S
C600 C601 1.373 . S
C600 C602 1.389 1_565 S
C601 H580 0.950 . S
C601 C600 1.373 . S
C601 C617 1.377 . S
C602 C600 1.389 1_545 S
C602 C603 1.524 . S
C602 C616 1.377 . S
C603 C602 1.524 . S
C603 C604 1.397 1_545 S
C603 C608 1.363 . S
C604 H581 0.950 . S
C604 C603 1.397 1_565 S
C604 C605 1.334 . S
C605 H582 0.950 . S
C605 C604 1.334 . S
C605 C606 1.287 1_565 S
C606 C605 1.287 1_545 S
C606 C607 1.524 . S
C606 H625 0.913 . S
C607 H583 0.950 . S
C607 C606 1.524 . S
C607 C608 1.415 . S
C608 H584 0.950 . S
C608 C603 1.363 . S
C608 C607 1.415 . S
C609 H585 0.951 . S
C609 C610 1.366 . S
C609 C611 1.388 . S
C610 C609 1.366 . S
C610 C614 1.385 . S
C611 H586 0.951 . S
C611 C609 1.388 . S
C611 C612 1.366 . S
C612 C611 1.366 . S
C612 C613 1.414 . S
C612 C615 1.499 . S
C613 H587 0.950 . S
C613 C612 1.414 . S
C613 C614 1.374 . S
C614 H588 0.950 . S
C614 C610 1.385 . S
C614 C613 1.374 . S
C615 C612 1.499 . S
C615 C616 1.373 . S
C615 C617 1.389 1_545 S
C616 H589 0.950 . S
C616 C602 1.377 . S
C616 C615 1.373 . S
C617 C601 1.377 . S
C617 C615 1.389 1_565 S
C617 C618 1.524 . S
C618 C617 1.524 . S
C618 C619 1.397 1_565 S
C618 C623 1.363 . S
C619 H590 0.950 . S
C619 C618 1.397 1_545 S
C619 C620 1.334 . S
C620 H591 0.950 . S
C620 C619 1.334 . S
C620 C621 1.287 1_545 S
C621 C620 1.287 1_565 S
C621 C622 1.524 . S
C621 H624 0.999 . S
C622 H592 0.950 . S
C622 C621 1.524 . S
C622 C623 1.415 . S
C623 H593 0.950 . S
C623 C618 1.363 . S
C623 C622 1.415 . S
H624 C621 0.999 . S
H625 C606 0.913 . S
H626 C644 0.951 . S
H627 C646 0.951 . S
H628 C648 0.950 . S
H629 C649 0.950 . S
H630 C651 0.950 . S
H631 C654 0.950 1_565 S
H632 C655 0.950 1_565 S
H633 C657 0.950 . S
H634 C658 0.950 . S
H635 C659 0.951 . S
H636 C661 0.951 . S
H637 C663 0.950 . S
H638 C664 0.950 . S
H639 C666 0.950 . S
H640 C669 0.950 1_545 S
H641 C670 0.952 . S
H642 C672 0.950 . S
H643 C673 0.950 . S
C644 H626 0.951 . S
C644 C645 1.366 . S
C644 C646 1.388 . S
C645 C644 1.366 . S
C645 C649 1.385 . S
C646 H627 0.951 . S
C646 C644 1.388 . S
C646 C647 1.366 . S
C647 C646 1.366 . S
C647 C648 1.414 . S
C647 C650 1.499 . S
C648 H628 0.950 . S
C648 C647 1.414 . S
C648 C649 1.374 . S
C649 H629 0.950 . S
C649 C645 1.385 . S
C649 C648 1.374 . S
C650 C647 1.499 . S
C650 C651 1.373 . S
C650 C652 1.389 1_565 S
C651 H630 0.950 . S
C651 C650 1.373 . S
C651 C667 1.377 . S
C652 C650 1.389 1_545 S
C652 C653 1.524 . S
C652 C666 1.377 . S
C653 C652 1.524 . S
C653 C654 1.397 . S
C653 C658 1.363 . S
C654 H631 0.950 1_545 S
C654 C653 1.397 . S
C654 C655 1.334 . S
C655 H632 0.950 1_545 S
C655 C654 1.334 . S
C655 C656 1.287 . S
C656 C655 1.287 . S
C656 C657 1.524 . S
C656 H675 0.913 . S
C657 H633 0.950 . S
C657 C656 1.524 . S
C657 C658 1.415 . S
C658 H634 0.950 . S
C658 C653 1.363 . S
C658 C657 1.415 . S
C659 H635 0.951 . S
C659 C660 1.366 . S
C659 C661 1.388 . S
C660 C659 1.366 . S
C660 C664 1.385 . S
C661 H636 0.951 . S
C661 C659 1.388 . S
C661 C662 1.366 . S
C662 C661 1.366 . S
C662 C663 1.414 . S
C662 C665 1.499 . S
C663 H637 0.950 . S
C663 C662 1.414 . S
C663 C664 1.374 . S
C664 H638 0.950 . S
C664 C660 1.385 . S
C664 C663 1.374 . S
C665 C662 1.499 . S
C665 C666 1.373 . S
C665 C667 1.389 1_545 S
C666 H639 0.950 . S
C666 C652 1.377 . S
C666 C665 1.373 . S
C667 C651 1.377 . S
C667 C665 1.389 1_565 S
C667 C668 1.524 . S
C668 C667 1.524 . S
C668 C669 1.397 . S
C668 C673 1.363 . S
C669 H640 0.950 1_565 S
C669 C668 1.397 . S
C669 C670 1.334 . S
C670 H641 0.952 . S
C670 C669 1.334 . S
C670 C671 1.287 . S
C671 C670 1.287 . S
C671 C672 1.524 . S
C671 H674 0.999 . S
C672 H642 0.950 . S
C672 C671 1.524 . S
C672 C673 1.415 . S
C673 H643 0.950 . S
C673 C668 1.363 . S
C673 C672 1.415 . S
H674 C671 0.999 . S
H675 C656 0.913 . S
H676 C694 0.951 . S
H677 C696 0.951 . S
H678 C698 0.950 . S
H679 C699 0.950 . S
H680 C701 0.950 . S
H681 C704 0.950 . S
H682 C705 0.950 . S
H683 C707 0.950 . S
H684 C708 0.950 . S
H685 C709 0.951 . S
H686 C711 0.951 . S
H687 C713 0.950 . S
H688 C714 0.950 . S
H689 C716 0.950 . S
H690 C719 0.950 . S
H691 C720 0.950 . S
H692 C722 0.950 . S
H693 C723 0.950 . S
C694 H676 0.951 . S
C694 C695 1.366 . S
C694 C696 1.388 . S
C695 C694 1.366 . S
C695 C699 1.385 . S
C696 H677 0.951 . S
C696 C694 1.388 . S
C696 C697 1.366 . S
C697 C696 1.366 . S
C697 C698 1.414 . S
C697 C700 1.499 . S
C698 H678 0.950 . S
C698 C697 1.414 . S
C698 C699 1.374 . S
C699 H679 0.950 . S
C699 C695 1.385 . S
C699 C698 1.374 . S
C700 C697 1.499 . S
C700 C701 1.388 . S
C700 C702 1.389 . S
C701 H680 0.950 . S
C701 C700 1.388 . S
C701 C717 1.362 1_545 S
C702 C700 1.389 . S
C702 C703 1.524 . S
C702 C716 1.377 . S
C703 C702 1.524 . S
C703 C704 1.397 . S
C703 C708 1.363 . S
C704 H681 0.950 . S
C704 C703 1.397 . S
C704 C705 1.334 . S
C705 H682 0.950 . S
C705 C704 1.334 . S
C705 C706 1.287 . S
C706 C705 1.287 . S
C706 C707 1.524 . S
C706 H725 0.913 . S
C707 H683 0.950 . S
C707 C706 1.524 . S
C707 C708 1.415 . S
C708 H684 0.950 . S
C708 C703 1.363 . S
C708 C707 1.415 . S
C709 H685 0.951 . S
C709 C710 1.366 . S
C709 C711 1.388 . S
C710 C709 1.366 . S
C710 C714 1.385 . S
C711 H686 0.951 . S
C711 C709 1.388 . S
C711 C712 1.366 . S
C712 C711 1.366 . S
C712 C713 1.414 . S
C712 C715 1.499 . S
C713 H687 0.950 . S
C713 C712 1.414 . S
C713 C714 1.374 . S
C714 H688 0.950 . S
C714 C710 1.385 . S
C714 C713 1.374 . S
C715 C712 1.499 . S
C715 C716 1.373 1_565 S
C715 C717 1.389 . S
C716 H689 0.950 . S
C716 C702 1.377 . S
C716 C715 1.373 1_545 S
C717 C701 1.362 1_565 S
C717 C715 1.389 . S
C717 C718 1.524 . S
C718 C717 1.524 . S
C718 C719 1.397 . S
C718 C723 1.363 . S
C719 H690 0.950 . S
C719 C718 1.397 . S
C719 C720 1.334 . S
C720 H691 0.950 . S
C720 C719 1.334 . S
C720 C721 1.287 . S
C721 C720 1.287 . S
C721 C722 1.524 . S
C721 H724 0.999 . S
C722 H692 0.950 . S
C722 C721 1.524 . S
C722 C723 1.415 . S
C723 H693 0.950 . S
C723 C718 1.363 . S
C723 C722 1.415 . S
H724 C721 0.999 . S
H725 C706 0.913 . S
H726 C744 0.951 . S
H727 C746 0.951 . S
H728 C748 0.950 . S
H729 C749 0.950 . S
H730 C751 0.950 . S
H731 C754 0.950 . S
H732 C755 0.950 . S
H733 C757 0.950 . S
H734 C758 0.950 . S
H735 C759 0.951 . S
H736 C761 0.951 . S
H737 C763 0.950 . S
H738 C764 0.950 . S
H739 C766 0.950 . S
H740 C769 0.950 . S
H741 C770 0.950 . S
H742 C772 0.950 . S
H743 C773 0.950 . S
C744 H726 0.951 . S
C744 C745 1.366 . S
C744 C746 1.388 . S
C745 C744 1.366 . S
C745 C749 1.385 . S
C746 H727 0.951 . S
C746 C744 1.388 . S
C746 C747 1.366 . S
C747 C746 1.366 . S
C747 C748 1.414 . S
C747 C750 1.499 . S
C748 H728 0.950 . S
C748 C747 1.414 . S
C748 C749 1.374 . S
C749 H729 0.950 . S
C749 C745 1.385 . S
C749 C748 1.374 . S
C750 C747 1.499 . S
C750 C751 1.373 . S
C750 C752 1.389 . S
C751 H730 0.950 . S
C751 C750 1.373 . S
C751 C767 1.377 1_565 S
C752 C750 1.389 . S
C752 C753 1.524 . S
C752 C766 1.377 1_565 S
C753 C752 1.524 . S
C753 C754 1.397 . S
C753 C758 1.363 . S
C754 H731 0.950 . S
C754 C753 1.397 . S
C754 C755 1.334 . S
C755 H732 0.950 . S
C755 C754 1.334 . S
C755 C756 1.287 . S
C756 C755 1.287 . S
C756 C757 1.524 . S
C756 H775 0.913 . S
C757 H733 0.950 . S
C757 C756 1.524 . S
C757 C758 1.415 . S
C758 H734 0.950 . S
C758 C753 1.363 . S
C758 C757 1.415 . S
C759 H735 0.951 . S
C759 C760 1.366 . S
C759 C761 1.388 . S
C760 C759 1.366 . S
C760 C764 1.385 . S
C761 H736 0.951 . S
C761 C759 1.388 . S
C761 C762 1.366 . S
C762 C761 1.366 . S
C762 C763 1.414 . S
C762 C765 1.499 . S
C763 H737 0.950 . S
C763 C762 1.414 . S
C763 C764 1.374 . S
C764 H738 0.950 . S
C764 C760 1.385 . S
C764 C763 1.374 . S
C765 C762 1.499 . S
C765 C766 1.373 . S
C765 C767 1.389 . S
C766 H739 0.950 . S
C766 C752 1.377 1_545 S
C766 C765 1.373 . S
C767 C751 1.377 1_545 S
C767 C765 1.389 . S
C767 C768 1.524 . S
C768 C767 1.524 . S
C768 C769 1.397 . S
C768 C773 1.363 . S
C769 H740 0.950 . S
C769 C768 1.397 . S
C769 C770 1.334 . S
C770 H741 0.950 . S
C770 C769 1.334 . S
C770 C771 1.287 . S
C771 C770 1.287 . S
C771 C772 1.524 . S
C771 H774 0.999 . S
C772 H742 0.950 . S
C772 C771 1.524 . S
C772 C773 1.415 . S
C773 H743 0.950 . S
C773 C768 1.363 . S
C773 C772 1.415 . S
H774 C771 0.999 . S
H775 C756 0.913 . S
H776 C794 0.951 . S
H777 C796 0.951 . S
H778 C798 0.950 . S
H779 C799 0.950 . S
H780 C801 0.950 . S
H781 C804 0.950 . S
H782 C805 0.950 . S
H783 C807 0.950 . S
H784 C808 0.950 . S
H785 C809 0.951 . S
H786 C811 0.951 . S
H787 C813 0.950 . S
H788 C814 0.950 . S
H789 C816 0.950 . S
H790 C819 0.950 . S
H791 C820 0.950 . S
H792 C822 0.950 . S
H793 C823 0.950 . S
C794 H776 0.951 . S
C794 C795 1.366 . S
C794 C796 1.388 . S
C795 C794 1.366 . S
C795 C799 1.385 . S
C796 H777 0.951 . S
C796 C794 1.388 . S
C796 C797 1.366 . S
C797 C796 1.366 . S
C797 C798 1.414 . S
C797 C800 1.499 . S
C798 H778 0.950 . S
C798 C797 1.414 . S
C798 C799 1.374 . S
C799 H779 0.950 . S
C799 C795 1.385 . S
C799 C798 1.374 . S
C800 C797 1.499 . S
C800 C801 1.373 1_565 S
C800 C802 1.389 . S
C801 H780 0.950 . S
C801 C800 1.373 1_545 S
C801 C817 1.377 . S
C802 C800 1.389 . S
C802 C803 1.524 . S
C802 C816 1.377 . S
C803 C802 1.524 . S
C803 C804 1.397 . S
C803 C808 1.363 . S
C804 H781 0.950 . S
C804 C803 1.397 . S
C804 C805 1.334 . S
C805 H782 0.950 . S
C805 C804 1.334 . S
C805 C806 1.287 . S
C806 C805 1.287 . S
C806 C807 1.524 . S
C806 H825 0.913 . S
C807 H783 0.950 . S
C807 C806 1.524 . S
C807 C808 1.415 . S
C808 H784 0.950 . S
C808 C803 1.363 . S
C808 C807 1.415 . S
C809 H785 0.951 . S
C809 C810 1.366 . S
C809 C811 1.388 . S
C810 C809 1.366 . S
C810 C814 1.385 . S
C811 H786 0.951 . S
C811 C809 1.388 . S
C811 C812 1.366 . S
C812 C811 1.366 . S
C812 C813 1.414 . S
C812 C815 1.499 . S
C813 H787 0.950 . S
C813 C812 1.414 . S
C813 C814 1.374 . S
C814 H788 0.950 . S
C814 C810 1.385 . S
C814 C813 1.374 . S
C815 C812 1.499 . S
C815 C816 1.373 1_545 S
C815 C817 1.389 . S
C816 H789 0.950 . S
C816 C802 1.377 . S
C816 C815 1.373 1_565 S
C817 C801 1.377 . S
C817 C815 1.389 . S
C817 C818 1.524 . S
C818 C817 1.524 . S
C818 C819 1.397 . S
C818 C823 1.363 . S
C819 H790 0.950 . S
C819 C818 1.397 . S
C819 C820 1.334 . S
C820 H791 0.950 . S
C820 C819 1.334 . S
C820 C821 1.287 . S
C821 C820 1.287 . S
C821 C822 1.524 . S
C821 H824 0.999 . S
C822 H792 0.950 . S
C822 C821 1.524 . S
C822 C823 1.415 . S
C823 H793 0.950 . S
C823 C818 1.363 . S
C823 C822 1.415 . S
H824 C821 0.999 . S
H825 C806 0.913 . S
H826 C844 0.951 . S
H827 C846 0.951 . S
H828 C848 0.950 . S
H829 C849 0.950 . S
H830 C851 0.950 . S
H831 C854 0.950 . S
H832 C855 0.950 . S
H833 C857 0.950 . S
H834 C858 0.950 . S
H835 C859 0.951 . S
H836 C861 0.951 . S
H837 C863 0.950 . S
H838 C864 0.950 . S
H839 C866 0.950 . S
H840 C869 0.950 . S
H841 C870 0.950 . S
H842 C872 0.950 . S
H843 C873 0.950 . S
C844 H826 0.951 . S
C844 C845 1.366 . S
C844 C846 1.388 . S
C845 C844 1.366 . S
C845 C849 1.385 . S
C846 H827 0.951 . S
C846 C844 1.388 . S
C846 C847 1.366 . S
C847 C846 1.366 . S
C847 C848 1.414 . S
C847 C850 1.499 . S
C848 H828 0.950 . S
C848 C847 1.414 . S
C848 C849 1.374 . S
C849 H829 0.950 . S
C849 C845 1.385 . S
C849 C848 1.374 . S
C850 C847 1.499 . S
C850 C851 1.373 . S
C850 C852 1.389 . S
C851 H830 0.950 . S
C851 C850 1.373 . S
C851 C867 1.377 1_545 S
C852 C850 1.389 . S
C852 C853 1.524 . S
C852 C866 1.377 1_545 S
C853 C852 1.524 . S
C853 C854 1.397 . S
C853 C858 1.363 1_545 S
C854 H831 0.950 . S
C854 C853 1.397 . S
C854 C855 1.334 . S
C855 H832 0.950 . S
C855 C854 1.334 . S
C855 C856 1.287 . S
C856 C855 1.287 . S
C856 C857 1.524 1_545 S
C856 H875 0.913 . S
C857 H833 0.950 . S
C857 C856 1.524 1_565 S
C857 C858 1.415 . S
C858 H834 0.950 . S
C858 C853 1.363 1_565 S
C858 C857 1.415 . S
C859 H835 0.951 . S
C859 C860 1.366 . S
C859 C861 1.388 . S
C860 C859 1.366 . S
C860 C864 1.385 . S
C861 H836 0.951 . S
C861 C859 1.388 . S
C861 C862 1.366 . S
C862 C861 1.366 . S
C862 C863 1.414 . S
C862 C865 1.499 . S
C863 H837 0.950 . S
C863 C862 1.414 . S
C863 C864 1.374 . S
C864 H838 0.950 . S
C864 C860 1.385 . S
C864 C863 1.374 . S
C865 C862 1.499 . S
C865 C866 1.373 . S
C865 C867 1.389 . S
C866 H839 0.950 . S
C866 C852 1.377 1_565 S
C866 C865 1.373 . S
C867 C851 1.377 1_565 S
C867 C865 1.389 . S
C867 C868 1.524 . S
C868 C867 1.524 . S
C868 C869 1.397 . S
C868 C873 1.363 1_565 S
C869 H840 0.950 . S
C869 C868 1.397 . S
C869 C870 1.334 . S
C870 H841 0.950 . S
C870 C869 1.334 . S
C870 C871 1.287 . S
C871 C870 1.287 . S
C871 C872 1.524 1_565 S
C871 H874 0.999 . S
C872 H842 0.950 . S
C872 C871 1.524 1_545 S
C872 C873 1.415 . S
C873 H843 0.950 . S
C873 C868 1.363 1_545 S
C873 C872 1.415 . S
H874 C871 0.999 . S
H875 C856 0.913 . S
H876 C894 0.951 . S
H877 C896 0.951 . S
H878 C898 0.950 . S
H879 C899 0.950 . S
H880 C901 0.950 . S
H881 C904 0.950 . S
H882 C905 0.950 . S
H883 C907 0.950 . S
H884 C908 0.950 . S
H885 C909 0.951 . S
H886 C911 0.951 . S
H887 C913 0.950 . S
H888 C914 0.950 . S
H889 C916 0.950 . S
H890 C919 0.950 . S
H891 C920 0.950 . S
H892 C922 0.950 . S
H893 C923 0.950 . S
C894 H876 0.951 . S
C894 C895 1.366 . S
C894 C896 1.388 . S
C895 C894 1.366 . S
C895 C899 1.385 . S
C896 H877 0.951 . S
C896 C894 1.388 . S
C896 C897 1.366 . S
C897 C896 1.366 . S
C897 C898 1.414 . S
C897 C900 1.499 . S
C898 H878 0.950 . S
C898 C897 1.414 . S
C898 C899 1.374 . S
C899 H879 0.950 . S
C899 C895 1.385 . S
C899 C898 1.374 . S
C900 C897 1.499 . S
C900 C901 1.373 . S
C900 C902 1.389 . S
C901 H880 0.950 . S
C901 C900 1.373 . S
C901 C917 1.377 1_565 S
C902 C900 1.389 . S
C902 C903 1.524 . S
C902 C916 1.377 1_565 S
C903 C902 1.524 . S
C903 C904 1.397 . S
C903 C908 1.363 . S
C904 H881 0.950 . S
C904 C903 1.397 . S
C904 C905 1.334 . S
C905 H882 0.950 . S
C905 C904 1.334 . S
C905 C906 1.287 . S
C906 C905 1.287 . S
C906 C907 1.524 . S
C906 H925 0.913 . S
C907 H883 0.950 . S
C907 C906 1.524 . S
C907 C908 1.415 . S
C908 H884 0.950 . S
C908 C903 1.363 . S
C908 C907 1.415 . S
C909 H885 0.951 . S
C909 C910 1.366 . S
C909 C911 1.388 . S
C910 C909 1.366 . S
C910 C914 1.385 . S
C911 H886 0.951 . S
C911 C909 1.388 . S
C911 C912 1.366 . S
C912 C911 1.366 . S
C912 C913 1.414 . S
C912 C915 1.499 . S
C913 H887 0.950 . S
C913 C912 1.414 . S
C913 C914 1.374 . S
C914 H888 0.950 . S
C914 C910 1.385 . S
C914 C913 1.374 . S
C915 C912 1.499 . S
C915 C916 1.373 . S
C915 C917 1.389 . S
C916 H889 0.950 . S
C916 C902 1.377 1_545 S
C916 C915 1.373 . S
C917 C901 1.377 1_545 S
C917 C915 1.389 . S
C917 C918 1.524 . S
C918 C917 1.524 . S
C918 C919 1.397 . S
C918 C923 1.363 . S
C919 H890 0.950 . S
C919 C918 1.397 . S
C919 C920 1.334 . S
C920 H891 0.950 . S
C920 C919 1.334 . S
C920 C921 1.287 . S
C921 C920 1.287 . S
C921 C922 1.524 . S
C921 H924 0.999 . S
C922 H892 0.950 . S
C922 C921 1.524 . S
C922 C923 1.415 . S
C923 H893 0.950 . S
C923 C918 1.363 . S
C923 C922 1.415 . S
H924 C921 0.999 . S
H925 C906 0.913 . S
H926 C944 0.951 . S
H927 C946 0.951 . S
H928 C948 0.950 . S
H929 C949 0.950 . S
H930 C951 0.950 . S
H931 C954 0.950 . S
H932 C955 0.950 . S
H933 C957 0.950 . S
H934 C958 0.950 . S
H935 C959 0.951 . S
H936 C961 0.951 . S
H937 C963 0.950 . S
H938 C964 0.950 . S
H939 C966 0.950 . S
H940 C969 0.950 . S
H941 C970 0.950 . S
H942 C972 0.950 . S
H943 C973 0.950 . S
C944 H926 0.951 . S
C944 C945 1.366 . S
C944 C946 1.388 . S
C945 C944 1.366 . S
C945 C949 1.385 . S
C946 H927 0.951 . S
C946 C944 1.388 . S
C946 C947 1.366 . S
C947 C946 1.366 . S
C947 C948 1.414 . S
C947 C950 1.499 . S
C948 H928 0.950 . S
C948 C947 1.414 . S
C948 C949 1.374 . S
C949 H929 0.950 . S
C949 C945 1.385 . S
C949 C948 1.374 . S
C950 C947 1.499 . S
C950 C951 1.373 . S
C950 C952 1.389 . S
C951 H930 0.950 . S
C951 C950 1.373 . S
C951 C967 1.377 1_565 S
C952 C950 1.389 . S
C952 C953 1.524 . S
C952 C966 1.377 1_565 S
C953 C952 1.524 . S
C953 C954 1.397 . S
C953 C958 1.363 . S
C954 H931 0.950 . S
C954 C953 1.397 . S
C954 C955 1.334 . S
C955 H932 0.950 . S
C955 C954 1.334 . S
C955 C956 1.287 . S
C956 C955 1.287 . S
C956 C957 1.524 . S
C956 H975 0.913 . S
C957 H933 0.950 . S
C957 C956 1.524 . S
C957 C958 1.415 . S
C958 H934 0.950 . S
C958 C953 1.363 . S
C958 C957 1.415 . S
C959 H935 0.951 . S
C959 C960 1.366 . S
C959 C961 1.388 . S
C960 C959 1.366 . S
C960 C964 1.385 . S
C961 H936 0.951 . S
C961 C959 1.388 . S
C961 C962 1.366 . S
C962 C961 1.366 . S
C962 C963 1.414 . S
C962 C965 1.499 . S
C963 H937 0.950 . S
C963 C962 1.414 . S
C963 C964 1.374 . S
C964 H938 0.950 . S
C964 C960 1.385 . S
C964 C963 1.374 . S
C965 C962 1.499 . S
C965 C966 1.373 . S
C965 C967 1.389 . S
C966 H939 0.950 . S
C966 C952 1.377 1_545 S
C966 C965 1.373 . S
C967 C951 1.377 1_545 S
C967 C965 1.389 . S
C967 C968 1.524 . S
C968 C967 1.524 . S
C968 C969 1.397 . S
C968 C973 1.363 . S
C969 H940 0.950 . S
C969 C968 1.397 . S
C969 C970 1.334 . S
C970 H941 0.950 . S
C970 C969 1.334 . S
C970 C971 1.287 . S
C971 C970 1.287 . S
C971 C972 1.524 . S
C971 H974 0.999 . S
C972 H942 0.950 . S
C972 C971 1.524 . S
C972 C973 1.415 . S
C973 H943 0.950 . S
C973 C968 1.363 . S
C973 C972 1.415 . S
H974 C971 0.999 . S
H975 C956 0.913 . S
H976 C994 0.951 . S
H977 C996 0.951 . S
H978 C998 0.950 . S
H979 C999 0.950 . S
H980 C1001 0.950 . S
H981 C1004 0.950 . S
H982 C1005 0.950 . S
H983 C1007 0.950 . S
H984 C1008 0.950 . S
H985 C1009 0.951 . S
H986 C1011 0.951 . S
H987 C1013 0.950 . S
H988 C1014 0.950 . S
H989 C1016 0.950 . S
H990 C1019 0.950 . S
H991 C1020 0.950 . S
H992 C1022 0.950 . S
H993 C1023 0.950 . S
C994 H976 0.951 . S
C994 C995 1.366 . S
C994 C996 1.388 . S
C995 C994 1.366 . S
C995 C999 1.385 . S
C996 H977 0.951 . S
C996 C994 1.388 . S
C996 C997 1.366 . S
C997 C996 1.366 . S
C997 C998 1.414 . S
C997 C1000 1.499 . S
C998 H978 0.950 . S
C998 C997 1.414 . S
C998 C999 1.374 . S
C999 H979 0.950 . S
C999 C995 1.385 . S
C999 C998 1.374 . S
C1000 C997 1.499 . S
C1000 C1001 1.373 . S
C1000 C1002 1.389 . S
C1001 H980 0.950 . S
C1001 C1000 1.373 . S
C1001 C1017 1.377 . S
C1002 C1000 1.389 . S
C1002 C1003 1.524 . S
C1002 C1016 1.377 . S
C1003 C1002 1.524 . S
C1003 C1004 1.397 . S
C1003 C1008 1.363 . S
C1004 H981 0.950 . S
C1004 C1003 1.397 . S
C1004 C1005 1.334 . S
C1005 H982 0.950 . S
C1005 C1004 1.334 . S
C1005 C1006 1.287 . S
C1006 C1005 1.287 . S
C1006 C1007 1.524 . S
C1006 H1025 0.913 . S
C1007 H983 0.950 . S
C1007 C1006 1.524 . S
C1007 C1008 1.415 . S
C1008 H984 0.950 . S
C1008 C1003 1.363 . S
C1008 C1007 1.415 . S
C1009 H985 0.951 . S
C1009 C1010 1.366 . S
C1009 C1011 1.388 . S
C1010 C1009 1.366 . S
C1010 C1014 1.385 . S
C1011 H986 0.951 . S
C1011 C1009 1.388 . S
C1011 C1012 1.366 . S
C1012 C1011 1.366 . S
C1012 C1013 1.414 . S
C1012 C1015 1.499 . S
C1013 H987 0.950 . S
C1013 C1012 1.414 . S
C1013 C1014 1.374 . S
C1014 H988 0.950 . S
C1014 C1010 1.385 . S
C1014 C1013 1.374 . S
C1015 C1012 1.499 . S
C1015 C1016 1.373 . S
C1015 C1017 1.389 . S
C1016 H989 0.950 . S
C1016 C1002 1.377 . S
C1016 C1015 1.373 . S
C1017 C1001 1.377 . S
C1017 C1015 1.389 . S
C1017 C1018 1.524 . S
C1018 C1017 1.524 . S
C1018 C1019 1.397 . S
C1018 C1023 1.363 . S
C1019 H990 0.950 . S
C1019 C1018 1.397 . S
C1019 C1020 1.334 . S
C1020 H991 0.950 . S
C1020 C1019 1.334 . S
C1020 C1021 1.287 . S
C1021 C1020 1.287 . S
C1021 C1022 1.524 . S
C1021 H1024 0.999 . S
C1022 H992 0.950 . S
C1022 C1021 1.524 . S
C1022 C1023 1.415 . S
C1023 H993 0.950 . S
C1023 C1018 1.363 . S
C1023 C1022 1.415 . S
H1024 C1021 0.999 . S
H1025 C1006 0.913 . S
H1026 C1044 0.951 . S
H1027 C1046 0.951 . S
H1028 C1048 0.950 . S
H1029 C1049 0.950 . S
H1030 C1051 0.950 . S
H1031 C1054 0.950 . S
H1032 C1055 0.950 . S
H1033 C1057 0.950 . S
H1034 C1058 0.950 . S
H1035 C1059 0.951 . S
H1036 C1061 0.951 . S
H1037 C1063 0.950 . S
H1038 C1064 0.950 . S
H1039 C1066 0.950 . S
H1040 C1069 0.950 . S
H1041 C1070 0.950 . S
H1042 C1072 0.950 . S
H1043 C1073 0.950 . S
C1044 H1026 0.951 . S
C1044 C1045 1.366 . S
C1044 C1046 1.388 . S
C1045 C1044 1.366 . S
C1045 C1049 1.385 . S
C1046 H1027 0.951 . S
C1046 C1044 1.388 . S
C1046 C1047 1.366 . S
C1047 C1046 1.366 . S
C1047 C1048 1.414 . S
C1047 C1050 1.499 . S
C1048 H1028 0.950 . S
C1048 C1047 1.414 . S
C1048 C1049 1.374 . S
C1049 H1029 0.950 . S
C1049 C1045 1.385 . S
C1049 C1048 1.374 . S
C1050 C1047 1.499 . S
C1050 C1051 1.373 . S
C1050 C1052 1.389 . S
C1051 H1030 0.950 . S
C1051 C1050 1.373 . S
C1051 C1067 1.377 . S
C1052 C1050 1.389 . S
C1052 C1053 1.524 . S
C1052 C1066 1.377 . S
C1053 C1052 1.524 . S
C1053 C1054 1.397 . S
C1053 C1058 1.363 . S
C1054 H1031 0.950 . S
C1054 C1053 1.397 . S
C1054 C1055 1.334 . S
C1055 H1032 0.950 . S
C1055 C1054 1.334 . S
C1055 C1056 1.287 . S
C1056 C1055 1.287 . S
C1056 C1057 1.524 . S
C1056 H1075 0.913 . S
C1057 H1033 0.950 . S
C1057 C1056 1.524 . S
C1057 C1058 1.415 . S
C1058 H1034 0.950 . S
C1058 C1053 1.363 . S
C1058 C1057 1.415 . S
C1059 H1035 0.951 . S
C1059 C1060 1.366 . S
C1059 C1061 1.388 . S
C1060 C1059 1.366 . S
C1060 C1064 1.385 . S
C1061 H1036 0.951 . S
C1061 C1059 1.388 . S
C1061 C1062 1.366 . S
C1062 C1061 1.366 . S
C1062 C1063 1.414 . S
C1062 C1065 1.499 . S
C1063 H1037 0.950 . S
C1063 C1062 1.414 . S
C1063 C1064 1.374 . S
C1064 H1038 0.950 . S
C1064 C1060 1.385 . S
C1064 C1063 1.374 . S
C1065 C1062 1.499 . S
C1065 C1066 1.373 . S
C1065 C1067 1.389 . S
C1066 H1039 0.950 . S
C1066 C1052 1.377 . S
C1066 C1065 1.373 . S
C1067 C1051 1.377 . S
C1067 C1065 1.389 . S
C1067 C1068 1.524 . S
C1068 C1067 1.524 . S
C1068 C1069 1.397 . S
C1068 C1073 1.363 . S
C1069 H1040 0.950 . S
C1069 C1068 1.397 . S
C1069 C1070 1.334 . S
C1070 H1041 0.950 . S
C1070 C1069 1.334 . S
C1070 C1071 1.287 . S
C1071 C1070 1.287 . S
C1071 C1072 1.524 . S
C1071 H1074 0.999 . S
C1072 H1042 0.950 . S
C1072 C1071 1.524 . S
C1072 C1073 1.415 . S
C1073 H1043 0.950 . S
C1073 C1068 1.363 . S
C1073 C1072 1.415 . S
H1074 C1071 0.999 . S
H1075 C1056 0.913 . S
H1076 C1094 0.951 . S
H1077 C1096 0.951 . S
H1078 C1098 0.950 . S
H1079 C1099 0.950 . S
H1080 C1101 0.950 . S
H1081 C1104 0.950 . S
H1082 C1105 0.950 . S
H1083 C1107 0.950 . S
H1084 C1108 0.950 . S
H1085 C1109 0.951 . S
H1086 C1111 0.951 . S
H1087 C1113 0.950 . S
H1088 C1114 0.950 . S
H1089 C1116 0.950 . S
H1090 C1119 0.950 . S
H1091 C1120 0.950 . S
H1092 C1122 0.950 . S
H1093 C1123 0.950 . S
C1094 H1076 0.951 . S
C1094 C1095 1.366 . S
C1094 C1096 1.388 . S
C1095 C1094 1.366 . S
C1095 C1099 1.385 . S
C1096 H1077 0.951 . S
C1096 C1094 1.388 . S
C1096 C1097 1.366 . S
C1097 C1096 1.366 . S
C1097 C1098 1.414 . S
C1097 C1100 1.499 . S
C1098 H1078 0.950 . S
C1098 C1097 1.414 . S
C1098 C1099 1.374 . S
C1099 H1079 0.950 . S
C1099 C1095 1.385 . S
C1099 C1098 1.374 . S
C1100 C1097 1.499 . S
C1100 C1101 1.373 . S
C1100 C1102 1.389 . S
C1101 H1080 0.950 . S
C1101 C1100 1.373 . S
C1101 C1117 1.377 . S
C1102 C1100 1.389 . S
C1102 C1103 1.524 . S
C1102 C1116 1.377 . S
C1103 C1102 1.524 . S
C1103 C1104 1.397 . S
C1103 C1108 1.363 . S
C1104 H1081 0.950 . S
C1104 C1103 1.397 . S
C1104 C1105 1.334 . S
C1105 H1082 0.950 . S
C1105 C1104 1.334 . S
C1105 C1106 1.287 . S
C1106 C1105 1.287 . S
C1106 C1107 1.524 . S
C1106 H1125 0.913 . S
C1107 H1083 0.950 . S
C1107 C1106 1.524 . S
C1107 C1108 1.415 . S
C1108 H1084 0.950 . S
C1108 C1103 1.363 . S
C1108 C1107 1.415 . S
C1109 H1085 0.951 . S
C1109 C1110 1.366 . S
C1109 C1111 1.388 . S
C1110 C1109 1.366 . S
C1110 C1114 1.385 . S
C1111 H1086 0.951 . S
C1111 C1109 1.388 . S
C1111 C1112 1.366 . S
C1112 C1111 1.366 . S
C1112 C1113 1.414 . S
C1112 C1115 1.499 . S
C1113 H1087 0.950 . S
C1113 C1112 1.414 . S
C1113 C1114 1.374 . S
C1114 H1088 0.950 . S
C1114 C1110 1.385 . S
C1114 C1113 1.374 . S
C1115 C1112 1.499 . S
C1115 C1116 1.373 . S
C1115 C1117 1.389 . S
C1116 H1089 0.950 . S
C1116 C1102 1.377 . S
C1116 C1115 1.373 . S
C1117 C1101 1.377 . S
C1117 C1115 1.389 . S
C1117 C1118 1.524 . S
C1118 C1117 1.524 . S
C1118 C1119 1.397 . S
C1118 C1123 1.363 . S
C1119 H1090 0.950 . S
C1119 C1118 1.397 . S
C1119 C1120 1.334 . S
C1120 H1091 0.950 . S
C1120 C1119 1.334 . S
C1120 C1121 1.287 . S
C1121 C1120 1.287 . S
C1121 C1122 1.524 . S
C1121 H1124 0.999 . S
C1122 H1092 0.950 . S
C1122 C1121 1.524 . S
C1122 C1123 1.415 . S
C1123 H1093 0.950 . S
C1123 C1118 1.363 . S
C1123 C1122 1.415 . S
H1124 C1121 0.999 . S
H1125 C1106 0.913 . S
H1126 C1144 0.951 . S
H1127 C1146 0.951 . S
H1128 C1148 0.950 . S
H1129 C1149 0.950 . S
H1130 C1151 0.950 . S
H1131 C1154 0.950 . S
H1132 C1155 0.950 . S
H1133 C1157 0.950 . S
H1134 C1158 0.950 . S
H1135 C1159 0.951 . S
H1136 C1161 0.951 . S
H1137 C1163 0.950 . S
H1138 C1164 0.950 . S
H1139 C1166 0.950 . S
H1140 C1169 0.950 . S
H1141 C1170 0.950 . S
H1142 C1172 0.950 . S
H1143 C1173 0.950 . S
C1144 H1126 0.951 . S
C1144 C1145 1.366 . S
C1144 C1146 1.388 . S
C1145 C1144 1.366 . S
C1145 C1149 1.385 . S
C1146 H1127 0.951 . S
C1146 C1144 1.388 . S
C1146 C1147 1.366 . S
C1147 C1146 1.366 . S
C1147 C1148 1.414 . S
C1147 C1150 1.499 . S
C1148 H1128 0.950 . S
C1148 C1147 1.414 . S
C1148 C1149 1.374 . S
C1149 H1129 0.950 . S
C1149 C1145 1.385 . S
C1149 C1148 1.374 . S
C1150 C1147 1.499 . S
C1150 C1151 1.373 . S
C1150 C1152 1.389 . S
C1151 H1130 0.950 . S
C1151 C1150 1.373 . S
C1151 C1167 1.377 . S
C1152 C1150 1.389 . S
C1152 C1153 1.524 . S
C1152 C1166 1.377 . S
C1153 C1152 1.524 . S
C1153 C1154 1.397 . S
C1153 C1158 1.363 . S
C1154 H1131 0.950 . S
C1154 C1153 1.397 . S
C1154 C1155 1.334 . S
C1155 H1132 0.950 . S
C1155 C1154 1.334 . S
C1155 C1156 1.287 . S
C1156 C1155 1.287 . S
C1156 C1157 1.524 . S
C1156 H1175 0.913 . S
C1157 H1133 0.950 . S
C1157 C1156 1.524 . S
C1157 C1158 1.415 . S
C1158 H1134 0.950 . S
C1158 C1153 1.363 . S
C1158 C1157 1.415 . S
C1159 H1135 0.951 . S
C1159 C1160 1.366 . S
C1159 C1161 1.388 . S
C1160 C1159 1.366 . S
C1160 C1164 1.385 . S
C1161 H1136 0.951 . S
C1161 C1159 1.388 . S
C1161 C1162 1.366 . S
C1162 C1161 1.366 . S
C1162 C1163 1.414 . S
C1162 C1165 1.499 . S
C1163 H1137 0.950 . S
C1163 C1162 1.414 . S
C1163 C1164 1.374 . S
C1164 H1138 0.950 . S
C1164 C1160 1.385 . S
C1164 C1163 1.374 . S
C1165 C1162 1.499 . S
C1165 C1166 1.373 . S
C1165 C1167 1.389 . S
C1166 H1139 0.950 . S
C1166 C1152 1.377 . S
C1166 C1165 1.373 . S
C1167 C1151 1.377 . S
C1167 C1165 1.389 . S
C1167 C1168 1.524 . S
C1168 C1167 1.524 . S
C1168 C1169 1.397 . S
C1168 C1173 1.363 . S
C1169 H1140 0.950 . S
C1169 C1168 1.397 . S
C1169 C1170 1.334 . S
C1170 H1141 0.950 . S
C1170 C1169 1.334 . S
C1170 C1171 1.287 . S
C1171 C1170 1.287 . S
C1171 C1172 1.524 . S
C1171 H1174 0.999 . S
C1172 H1142 0.950 . S
C1172 C1171 1.524 . S
C1172 C1173 1.415 . S
C1173 H1143 0.950 . S
C1173 C1168 1.363 . S
C1173 C1172 1.415 . S
H1174 C1171 0.999 . S
H1175 C1156 0.913 . S
H1176 C1194 0.951 . S
H1177 C1196 0.951 . S
H1178 C1198 0.950 . S
H1179 C1199 0.950 . S
H1180 C1201 0.950 . S
H1181 C1204 0.950 . S
H1182 C1205 0.950 . S
H1183 C1207 0.950 . S
H1184 C1208 0.950 . S
H1185 C1209 0.951 . S
H1186 C1211 0.951 . S
H1187 C1213 0.950 . S
H1188 C1214 0.950 . S
H1189 C1216 0.950 . S
H1190 C1219 0.950 . S
H1191 C1220 0.950 . S
H1192 C1222 0.950 . S
H1193 C1223 0.950 . S
C1194 H1176 0.951 . S
C1194 C1195 1.366 . S
C1194 C1196 1.388 . S
C1195 C1194 1.366 . S
C1195 C1199 1.385 . S
C1196 H1177 0.951 . S
C1196 C1194 1.388 . S
C1196 C1197 1.366 . S
C1197 C1196 1.366 . S
C1197 C1198 1.414 . S
C1197 C1200 1.499 . S
C1198 H1178 0.950 . S
C1198 C1197 1.414 . S
C1198 C1199 1.374 . S
C1199 H1179 0.950 . S
C1199 C1195 1.385 . S
C1199 C1198 1.374 . S
C1200 C1197 1.499 . S
C1200 C1201 1.373 . S
C1200 C1202 1.389 . S
C1201 H1180 0.950 . S
C1201 C1200 1.373 . S
C1201 C1217 1.377 . S
C1202 C1200 1.389 . S
C1202 C1203 1.524 . S
C1202 C1216 1.377 . S
C1203 C1202 1.524 . S
C1203 C1204 1.397 . S
C1203 C1208 1.363 . S
C1204 H1181 0.950 . S
C1204 C1203 1.397 . S
C1204 C1205 1.334 . S
C1205 H1182 0.950 . S
C1205 C1204 1.334 . S
C1205 C1206 1.287 . S
C1206 C1205 1.287 . S
C1206 C1207 1.524 . S
C1206 H1225 0.913 . S
C1207 H1183 0.950 . S
C1207 C1206 1.524 . S
C1207 C1208 1.415 . S
C1208 H1184 0.950 . S
C1208 C1203 1.363 . S
C1208 C1207 1.415 . S
C1209 H1185 0.951 . S
C1209 C1210 1.366 . S
C1209 C1211 1.388 . S
C1210 C1209 1.366 . S
C1210 C1214 1.385 . S
C1211 H1186 0.951 . S
C1211 C1209 1.388 . S
C1211 C1212 1.366 . S
C1212 C1211 1.366 . S
C1212 C1213 1.414 . S
C1212 C1215 1.499 . S
C1213 H1187 0.950 . S
C1213 C1212 1.414 . S
C1213 C1214 1.374 . S
C1214 H1188 0.950 . S
C1214 C1210 1.385 . S
C1214 C1213 1.374 . S
C1215 C1212 1.499 . S
C1215 C1216 1.373 . S
C1215 C1217 1.389 . S
C1216 H1189 0.950 . S
C1216 C1202 1.377 . S
C1216 C1215 1.373 . S
C1217 C1201 1.377 . S
C1217 C1215 1.389 . S
C1217 C1218 1.524 . S
C1218 C1217 1.524 . S
C1218 C1219 1.397 . S
C1218 C1223 1.363 . S
C1219 H1190 0.950 . S
C1219 C1218 1.397 . S
C1219 C1220 1.334 . S
C1220 H1191 0.950 . S
C1220 C1219 1.334 . S
C1220 C1221 1.287 . S
C1221 C1220 1.287 . S
C1221 C1222 1.524 . S
C1221 H1224 0.999 . S
C1222 H1192 0.950 . S
C1222 C1221 1.524 . S
C1222 C1223 1.415 . S
C1223 H1193 0.950 . S
C1223 C1218 1.363 . S
C1223 C1222 1.415 . S
H1224 C1221 0.999 . S
H1225 C1206 0.913 . S
H1226 C1244 0.951 . S
H1227 C1246 0.951 . S
H1228 C1248 0.950 . S
H1229 C1249 0.950 . S
H1230 C1251 0.950 . S
H1231 C1254 0.950 . S
H1232 C1255 0.950 . S
H1233 C1257 0.950 . S
H1234 C1258 0.950 . S
H1235 C1259 0.951 . S
H1236 C1261 0.951 . S
H1237 C1263 0.950 . S
H1238 C1264 0.950 . S
H1239 C1266 0.950 . S
H1240 C1269 0.950 . S
H1241 C1270 0.950 . S
H1242 C1272 0.950 . S
H1243 C1273 0.950 . S
C1244 H1226 0.951 . S
C1244 C1245 1.366 . S
C1244 C1246 1.388 . S
C1245 C1244 1.366 . S
C1245 C1249 1.385 . S
C1246 H1227 0.951 . S
C1246 C1244 1.388 . S
C1246 C1247 1.366 . S
C1247 C1246 1.366 . S
C1247 C1248 1.414 . S
C1247 C1250 1.499 . S
C1248 H1228 0.950 . S
C1248 C1247 1.414 . S
C1248 C1249 1.374 . S
C1249 H1229 0.950 . S
C1249 C1245 1.385 . S
C1249 C1248 1.374 . S
C1250 C1247 1.499 . S
C1250 C1251 1.373 . S
C1250 C1252 1.389 . S
C1251 H1230 0.950 . S
C1251 C1250 1.373 . S
C1251 C1267 1.377 . S
C1252 C1250 1.389 . S
C1252 C1253 1.524 . S
C1252 C1266 1.377 . S
C1253 C1252 1.524 . S
C1253 C1254 1.397 . S
C1253 C1258 1.363 . S
C1254 H1231 0.950 . S
C1254 C1253 1.397 . S
C1254 C1255 1.334 . S
C1255 H1232 0.950 . S
C1255 C1254 1.334 . S
C1255 C1256 1.287 . S
C1256 C1255 1.287 . S
C1256 C1257 1.524 . S
C1256 H1275 0.913 . S
C1257 H1233 0.950 . S
C1257 C1256 1.524 . S
C1257 C1258 1.415 . S
C1258 H1234 0.950 . S
C1258 C1253 1.363 . S
C1258 C1257 1.415 . S
C1259 H1235 0.951 . S
C1259 C1260 1.366 . S
C1259 C1261 1.388 . S
C1260 C1259 1.366 . S
C1260 C1264 1.385 . S
C1261 H1236 0.951 . S
C1261 C1259 1.388 . S
C1261 C1262 1.366 . S
C1262 C1261 1.366 . S
C1262 C1263 1.414 . S
C1262 C1265 1.499 . S
C1263 H1237 0.950 . S
C1263 C1262 1.414 . S
C1263 C1264 1.374 . S
C1264 H1238 0.950 . S
C1264 C1260 1.385 . S
C1264 C1263 1.374 . S
C1265 C1262 1.499 . S
C1265 C1266 1.373 . S
C1265 C1267 1.389 . S
C1266 H1239 0.950 . S
C1266 C1252 1.377 . S
C1266 C1265 1.373 . S
C1267 C1251 1.377 . S
C1267 C1265 1.389 . S
C1267 C1268 1.524 . S
C1268 C1267 1.524 . S
C1268 C1269 1.397 . S
C1268 C1273 1.363 . S
C1269 H1240 0.950 . S
C1269 C1268 1.397 . S
C1269 C1270 1.334 . S
C1270 H1241 0.950 . S
C1270 C1269 1.334 . S
C1270 C1271 1.287 . S
C1271 C1270 1.287 . S
C1271 C1272 1.524 . S
C1271 H1274 0.999 . S
C1272 H1242 0.950 . S
C1272 C1271 1.524 . S
C1272 C1273 1.415 . S
C1273 H1243 0.950 . S
C1273 C1268 1.363 . S
C1273 C1272 1.415 . S
H1274 C1271 0.999 . S
H1275 C1256 0.913 . S
H1276 C1294 0.951 . S
H1277 C1296 0.951 . S
H1278 C1298 0.950 . S
H1279 C1299 0.950 . S
H1280 C1301 0.950 . S
H1281 C1304 0.950 . S
H1282 C1305 0.950 . S
H1283 C1307 0.950 . S
H1284 C1308 0.950 . S
H1285 C1309 0.951 . S
H1286 C1311 0.951 . S
H1287 C1313 0.950 . S
H1288 C1314 0.950 . S
H1289 C1316 0.950 . S
H1290 C1319 0.950 . S
H1291 C1320 0.950 . S
H1292 C1322 0.950 . S
H1293 C1323 0.950 . S
C1294 H1276 0.951 . S
C1294 C1295 1.366 . S
C1294 C1296 1.388 . S
C1295 C1294 1.366 . S
C1295 C1299 1.385 . S
C1296 H1277 0.951 . S
C1296 C1294 1.388 . S
C1296 C1297 1.366 . S
C1297 C1296 1.366 . S
C1297 C1298 1.414 . S
C1297 C1300 1.499 . S
C1298 H1278 0.950 . S
C1298 C1297 1.414 . S
C1298 C1299 1.374 . S
C1299 H1279 0.950 . S
C1299 C1295 1.385 . S
C1299 C1298 1.374 . S
C1300 C1297 1.499 . S
C1300 C1301 1.373 . S
C1300 C1302 1.389 . S
C1301 H1280 0.950 . S
C1301 C1300 1.373 . S
C1301 C1317 1.377 . S
C1302 C1300 1.389 . S
C1302 C1303 1.524 . S
C1302 C1316 1.377 . S
C1303 C1302 1.524 . S
C1303 C1304 1.397 . S
C1303 C1308 1.363 . S
C1304 H1281 0.950 . S
C1304 C1303 1.397 . S
C1304 C1305 1.334 . S
C1305 H1282 0.950 . S
C1305 C1304 1.334 . S
C1305 C1306 1.287 . S
C1306 C1305 1.287 . S
C1306 C1307 1.524 . S
C1306 H1325 0.913 . S
C1307 H1283 0.950 . S
C1307 C1306 1.524 . S
C1307 C1308 1.415 . S
C1308 H1284 0.950 . S
C1308 C1303 1.363 . S
C1308 C1307 1.415 . S
C1309 H1285 0.951 . S
C1309 C1310 1.366 . S
C1309 C1311 1.388 . S
C1310 C1309 1.366 . S
C1310 C1314 1.385 . S
C1311 H1286 0.951 . S
C1311 C1309 1.388 . S
C1311 C1312 1.366 . S
C1312 C1311 1.366 . S
C1312 C1313 1.414 . S
C1312 C1315 1.499 . S
C1313 H1287 0.950 . S
C1313 C1312 1.414 . S
C1313 C1314 1.374 . S
C1314 H1288 0.950 . S
C1314 C1310 1.385 . S
C1314 C1313 1.374 . S
C1315 C1312 1.499 . S
C1315 C1316 1.373 . S
C1315 C1317 1.389 . S
C1316 H1289 0.950 . S
C1316 C1302 1.377 . S
C1316 C1315 1.373 . S
C1317 C1301 1.377 . S
C1317 C1315 1.389 . S
C1317 C1318 1.524 . S
C1318 C1317 1.524 . S
C1318 C1319 1.397 . S
C1318 C1323 1.363 . S
C1319 H1290 0.950 . S
C1319 C1318 1.397 . S
C1319 C1320 1.334 . S
C1320 H1291 0.950 . S
C1320 C1319 1.334 . S
C1320 C1321 1.287 . S
C1321 C1320 1.287 . S
C1321 C1322 1.524 . S
C1321 H1324 0.999 . S
C1322 H1292 0.950 . S
C1322 C1321 1.524 . S
C1322 C1323 1.415 . S
C1323 H1293 0.950 . S
C1323 C1318 1.363 . S
C1323 C1322 1.415 . S
H1324 C1321 0.999 . S
H1325 C1306 0.913 . S
H1326 C1344 0.951 . S
H1327 C1346 0.951 . S
H1328 C1348 0.950 . S
H1329 C1349 0.950 . S
H1330 C1351 0.950 . S
H1331 C1354 0.950 . S
H1332 C1355 0.950 . S
H1333 C1357 0.950 . S
H1334 C1358 0.950 . S
H1335 C1359 0.951 . S
H1336 C1361 0.951 . S
H1337 C1363 0.950 . S
H1338 C1364 0.950 . S
H1339 C1366 0.950 . S
H1340 C1369 0.950 . S
H1341 C1370 0.950 . S
H1342 C1372 0.950 . S
H1343 C1373 0.950 . S
C1344 H1326 0.951 . S
C1344 C1345 1.366 . S
C1344 C1346 1.388 . S
C1345 C1344 1.366 . S
C1345 C1349 1.385 . S
C1346 H1327 0.951 . S
C1346 C1344 1.388 . S
C1346 C1347 1.366 . S
C1347 C1346 1.366 . S
C1347 C1348 1.414 . S
C1347 C1350 1.499 . S
C1348 H1328 0.950 . S
C1348 C1347 1.414 . S
C1348 C1349 1.374 . S
C1349 H1329 0.950 . S
C1349 C1345 1.385 . S
C1349 C1348 1.374 . S
C1350 C1347 1.499 . S
C1350 C1351 1.373 . S
C1350 C1352 1.389 . S
C1351 H1330 0.950 . S
C1351 C1350 1.373 . S
C1351 C1367 1.377 . S
C1352 C1350 1.389 . S
C1352 C1353 1.524 . S
C1352 C1366 1.377 . S
C1353 C1352 1.524 . S
C1353 C1354 1.397 . S
C1353 C1358 1.363 . S
C1354 H1331 0.950 . S
C1354 C1353 1.397 . S
C1354 C1355 1.334 . S
C1355 H1332 0.950 . S
C1355 C1354 1.334 . S
C1355 C1356 1.287 . S
C1356 C1355 1.287 . S
C1356 C1357 1.524 . S
C1356 H1375 0.913 . S
C1357 H1333 0.950 . S
C1357 C1356 1.524 . S
C1357 C1358 1.415 . S
C1358 H1334 0.950 . S
C1358 C1353 1.363 . S
C1358 C1357 1.415 . S
C1359 H1335 0.951 . S
C1359 C1360 1.366 . S
C1359 C1361 1.388 . S
C1360 C1359 1.366 . S
C1360 C1364 1.385 . S
C1361 H1336 0.951 . S
C1361 C1359 1.388 . S
C1361 C1362 1.366 . S
C1362 C1361 1.366 . S
C1362 C1363 1.414 . S
C1362 C1365 1.499 . S
C1363 H1337 0.950 . S
C1363 C1362 1.414 . S
C1363 C1364 1.374 . S
C1364 H1338 0.950 . S
C1364 C1360 1.385 . S
C1364 C1363 1.374 . S
C1365 C1362 1.499 . S
C1365 C1366 1.373 . S
C1365 C1367 1.389 . S
C1366 H1339 0.950 . S
C1366 C1352 1.377 . S
C1366 C1365 1.373 . S
C1367 C1351 1.377 . S
C1367 C1365 1.389 . S
C1367 C1368 1.524 . S
C1368 C1367 1.524 . S
C1368 C1369 1.397 . S
C1368 C1373 1.363 . S
C1369 H1340 0.950 . S
C1369 C1368 1.397 . S
C1369 C1370 1.334 . S
C1370 H1341 0.950 . S
C1370 C1369 1.334 . S
C1370 C1371 1.287 . S
C1371 C1370 1.287 . S
C1371 C1372 1.524 . S
C1371 H1374 0.999 . S
C1372 H1342 0.950 . S
C1372 C1371 1.524 . S
C1372 C1373 1.415 . S
C1373 H1343 0.950 . S
C1373 C1368 1.363 . S
C1373 C1372 1.415 . S
H1374 C1371 0.999 . S
H1375 C1356 0.913 . S
C195 C7 1.460 . S
C210 C97 1.460 . S
C245 C119 1.460 . S
C260 C29 1.462 . S
C295 C49 1.459 . S
C310 C138 1.459 . S
C345 C71 1.459 . S
C360 C160 1.461 . S
C395 C73 1.460 . S
C410 C163 1.458 . S
C445 C116 1.460 . S
C460 C27 1.458 . S
C495 C141 1.460 . S
C510 C51 1.460 . S
C545 C5 1.460 . S
C560 C94 1.460 . S
C595 C115 1.503 . S
C610 C4 1.502 . S
C645 C26 1.504 . S
C660 C140 1.502 . S
C695 C162 1.504 . S
C710 C53 1.502 . S
C745 C93 1.504 . S
C760 C75 1.501 . S
C795 C92 1.504 . S
C810 C72 1.506 . S
C845 C158 1.504 . S
C860 C52 1.505 . S
C895 C30 1.503 . S
C910 C139 1.505 . S
C945 C117 1.503 . S
C960 C6 1.505 . S
C995 C159 1.504 . S
C1010 C48 1.505 . S
C1045 C96 1.503 . S
C1060 C70 1.506 . S
C1095 C118 1.504 . S
C1110 C9 1.505 . S
C1145 C31 1.504 . S
C1160 C137 1.505 . S
C1195 C136 1.504 . S
C1210 C28 1.501 . S
C1245 C8 1.503 . S
C1260 C114 1.502 . S
C1295 C95 1.504 . S
C1310 C74 1.501 . S
C1345 C161 1.504 . S
C1360 C50 1.502 . S
