# Generated by pormake.
# Topology uov, (4)-cn, num edge types: 1
# Building blocks:
#     Node 0, Type 0, BuildingBlock: CEKHIL_clean_sbu_0, # of connection points: 4
#     Node 1, Type 0, BuildingBlock: CEKHIL_clean_sbu_0, # of connection points: 4
#     Node 2, Type 0, BuildingBlock: CEKHIL_clean_sbu_0, # of connection points: 4
#     Node 3, Type 0, BuildingBlock: CEKHIL_clean_sbu_0, # of connection points: 4
#     Node 4, Type 0, BuildingBlock: CEKHIL_clean_sbu_0, # of connection points: 4
#     Node 5, Type 0, BuildingBlock: CEKHIL_clean_sbu_0, # of connection points: 4
#     Node 6, Type 0, BuildingBlock: CEKHIL_clean_sbu_0, # of connection points: 4
#     Node 7, Type 0, BuildingBlock: CEKHIL_clean_sbu_0, # of connection points: 4
#     Edge 8, Type (0, 0), BuildingBlock: KIFKEQ_clean_linker_1, # of connection points: 2
#     Edge 9, Type (0, 0), BuildingBlock: KIFKEQ_clean_linker_1, # of connection points: 2
#     Edge 10, Type (0, 0), BuildingBlock: KIFKEQ_clean_linker_1, # of connection points: 2
#     Edge 11, Type (0, 0), BuildingBlock: KIFKEQ_clean_linker_1, # of connection points: 2
#     Edge 12, Type (0, 0), BuildingBlock: KIFKEQ_clean_linker_1, # of connection points: 2
#     Edge 13, Type (0, 0), BuildingBlock: KIFKEQ_clean_linker_1, # of connection points: 2
#     Edge 14, Type (0, 0), BuildingBlock: KIFKEQ_clean_linker_1, # of connection points: 2
#     Edge 15, Type (0, 0), BuildingBlock: KIFKEQ_clean_linker_1, # of connection points: 2
#     Edge 16, Type (0, 0), BuildingBlock: KIFKEQ_clean_linker_1, # of connection points: 2
#     Edge 17, Type (0, 0), BuildingBlock: KIFKEQ_clean_linker_1, # of connection points: 2
#     Edge 18, Type (0, 0), BuildingBlock: KIFKEQ_clean_linker_1, # of connection points: 2
#     Edge 19, Type (0, 0), BuildingBlock: KIFKEQ_clean_linker_1, # of connection points: 2
#     Edge 20, Type (0, 0), BuildingBlock: KIFKEQ_clean_linker_1, # of connection points: 2
#     Edge 21, Type (0, 0), BuildingBlock: KIFKEQ_clean_linker_1, # of connection points: 2
#     Edge 22, Type (0, 0), BuildingBlock: KIFKEQ_clean_linker_1, # of connection points: 2
#     Edge 23, Type (0, 0), BuildingBlock: KIFKEQ_clean_linker_1, # of connection points: 2
# Relax obj value: 0.153
# Max RMSD: 0.151
# Mean RMSD: 0.151
data_MOF--net-uov--node1-CEKHIL_clean_sbu_0--edge1-KIFKEQ_clean_linker_1
_symmetry_space_group_name_H-M    P1
_symmetry_Int_Tables_number       1
_symmetry_cell_setting            triclinic
loop_
_symmetry_equiv_pos_as_xyz
'x, y, z'
_cell_length_a     30.219373
_cell_length_b     30.230806
_cell_length_c     42.441512
_cell_angle_alpha  89.94822
_cell_angle_beta   90.055347
_cell_angle_gamma 89.97929
loop_
_atom_site_label
_atom_site_type_symbol
_atom_site_fract_x
_atom_site_fract_y
_atom_site_fract_z
_atom_type_partial_charge
Co0 Co 0.02073 0.26836 0.61141 0.0
O1 O 0.99467 0.31092 0.63959 0.0
O2 O 0.05634 0.3215 0.61255 0.0
C3 C 0.9578 0.25119 0.58526 0.0
O4 O 0.05608 0.23359 0.5787 0.0
Co5 Co 0.99133 0.16957 0.61137 0.0
O6 O 0.02004 0.16983 0.56943 0.0
C7 C 0.05893 0.20046 0.65715 0.0
C8 C 0.02625 0.33754 0.63125 0.0
C9 C 0.04957 0.19823 0.56238 0.0
O10 O 0.05661 0.24047 0.64671 0.0
O11 O 0.03496 0.16868 0.64687 0.0
O12 O 0.97989 0.28664 0.57824 0.0
O13 O 0.97156 0.23018 0.60993 0.0
Co14 Co 0.26669 0.98707 0.3858 0.0
O15 O 0.31108 0.01049 0.35776 0.0
O16 O 0.32052 0.95278 0.38914 0.0
C17 C 0.24601 0.0528 0.40659 0.0
O18 O 0.23028 0.95496 0.41927 0.0
Co19 Co 0.16722 0.01373 0.38082 0.0
O20 O 0.16448 0.989 0.42406 0.0
C21 C 0.2033 0.94308 0.33956 0.0
C22 C 0.33754 0.98066 0.36919 0.0
C23 C 0.19339 0.96147 0.43376 0.0
O24 O 0.24222 0.94641 0.35188 0.0
O25 O 0.17055 0.96778 0.34703 0.0
O26 O 0.28122 0.03273 0.41676 0.0
O27 O 0.22732 0.03492 0.38239 0.0
Co28 Co 0.99426 0.73951 0.61867 0.0
O29 O 0.02194 0.69418 0.64374 0.0
O30 O 0.9619 0.6845 0.61467 0.0
C31 C 0.05653 0.76529 0.59564 0.0
O32 O 0.95813 0.77791 0.58858 0.0
Co33 Co 0.01752 0.83868 0.63032 0.0
O34 O 0.98778 0.84628 0.58889 0.0
C35 C 0.95671 0.79268 0.67354 0.0
C36 C 0.99197 0.66742 0.63299 0.0
C37 C 0.96165 0.81738 0.57733 0.0
O38 O 0.95573 0.75871 0.65525 0.0
O39 O 0.98238 0.82583 0.66932 0.0
O40 O 0.03741 0.72981 0.58509 0.0
O41 O 0.04064 0.78046 0.62172 0.0
Co42 Co 0.74055 0.01572 0.38659 0.0
O43 O 0.69523 0.98395 0.3641 0.0
O44 O 0.68513 0.0479 0.38836 0.0
C45 C 0.76748 0.9575 0.41405 0.0
O46 O 0.77878 0.05657 0.41351 0.0
Co47 Co 0.83987 0.99166 0.37566 0.0
O48 O 0.84979 0.03388 0.41068 0.0
C49 C 0.7919 0.04368 0.32803 0.0
C50 C 0.66823 0.01516 0.37249 0.0
C51 C 0.81977 0.05911 0.42176 0.0
O52 O 0.75885 0.04853 0.3469 0.0
O53 O 0.82476 0.01822 0.3338 0.0
O54 O 0.73193 0.97769 0.42344 0.0
O55 O 0.78206 0.96967 0.38682 0.0
Co56 Co 0.98424 0.26559 0.1129 0.0
O57 O 0.00947 0.30857 0.14123 0.0
O58 O 0.95125 0.32031 0.11066 0.0
C59 C 0.04862 0.24341 0.09079 0.0
O60 O 0.95053 0.23075 0.07937 0.0
Co61 Co 0.00801 0.16543 0.11725 0.0
O62 O 0.98346 0.16447 0.07394 0.0
C63 C 0.93893 0.20277 0.15906 0.0
C64 C 0.9799 0.33599 0.13063 0.0
C65 C 0.95653 0.1941 0.06449 0.0
O66 O 0.94354 0.24167 0.14698 0.0
O67 O 0.96235 0.16928 0.15122 0.0
O68 O 0.02949 0.27963 0.08155 0.0
O69 O 0.03107 0.22484 0.11518 0.0
Co70 Co 0.26081 0.01327 0.88642 0.0
O71 O 0.30619 0.98408 0.8624 0.0
O72 O 0.31489 0.04759 0.88754 0.0
C73 C 0.23833 0.95274 0.91326 0.0
O74 O 0.22249 0.05163 0.9151 0.0
Co75 Co 0.16188 0.98561 0.87928 0.0
O76 O 0.15579 0.01902 0.91927 0.0
C77 C 0.20405 0.04117 0.8305 0.0
C78 C 0.33241 0.01581 0.87105 0.0
C79 C 0.18422 0.04757 0.92817 0.0
O80 O 0.23889 0.04622 0.84771 0.0
O81 O 0.17213 0.01523 0.83771 0.0
O82 O 0.27315 0.97446 0.92231 0.0
O83 O 0.22148 0.96546 0.88682 0.0
Co84 Co 0.01008 0.73697 0.11712 0.0
O85 O 0.98074 0.69181 0.14127 0.0
O86 O 0.04532 0.6834 0.1175 0.0
C87 C 0.95092 0.75809 0.08822 0.0
O88 O 0.04871 0.77537 0.08874 0.0
Co89 Co 0.98033 0.8353 0.12347 0.0
O90 O 0.0144 0.84117 0.08371 0.0
C91 C 0.03701 0.79553 0.17254 0.0
C92 C 0.01326 0.66588 0.13374 0.0
C93 C 0.04385 0.81334 0.07532 0.0
O94 O 0.04162 0.76016 0.15594 0.0
O95 O 0.01097 0.82725 0.165 0.0
O96 O 0.97336 0.72308 0.08062 0.0
O97 O 0.96141 0.77553 0.11498 0.0
Co98 Co 0.73623 0.98794 0.88429 0.0
O99 O 0.68946 0.01438 0.85994 0.0
O100 O 0.68205 0.95448 0.88947 0.0
C101 C 0.76137 0.05098 0.9065 0.0
O102 O 0.77653 0.95291 0.91379 0.0
Co103 Co 0.83429 0.01357 0.87019 0.0
O104 O 0.84641 0.97794 0.90856 0.0
C105 C 0.78762 0.95208 0.82805 0.0
C106 C 0.6637 0.98401 0.87132 0.0
C107 C 0.81768 0.95328 0.92184 0.0
O108 O 0.755 0.94954 0.8475 0.0
O109 O 0.81976 0.97927 0.83115 0.0
O110 O 0.72679 0.03113 0.91786 0.0
O111 O 0.77595 0.03519 0.88024 0.0
H112 H 0.05991 0.62251 0.66067 0.0
H113 H 0.93162 0.60316 0.61783 0.0
H114 H 0.06933 0.54256 0.665 0.0
H115 H 0.94103 0.523 0.62244 0.0
H116 H 0.95818 0.38209 0.65897 0.0
H117 H 0.94907 0.46204 0.66359 0.0
H118 H 0.07942 0.4814 0.62445 0.0
H119 H 0.08853 0.40131 0.61954 0.0
C120 C 0.0334 0.60123 0.65259 0.0
C121 C 0.995 0.61919 0.63883 0.0
C122 C 0.03899 0.55543 0.65492 0.0
C123 C 0.00604 0.52655 0.64396 0.0
C124 C 0.96687 0.54449 0.63131 0.0
C125 C 0.96152 0.59035 0.62859 0.0
C126 C 0.98526 0.40331 0.65185 0.0
C127 C 0.02408 0.38533 0.6388 0.0
C128 C 0.97984 0.44911 0.65429 0.0
C129 C 0.01335 0.47795 0.64416 0.0
C130 C 0.05309 0.45996 0.63261 0.0
C131 C 0.05831 0.41411 0.62978 0.0
H132 H 0.62379 0.94379 0.34931 0.0
H133 H 0.60356 0.07712 0.3829 0.0
H134 H 0.54395 0.93405 0.3443 0.0
H135 H 0.52349 0.06734 0.37766 0.0
H136 H 0.38372 0.04589 0.33929 0.0
H137 H 0.46394 0.0546 0.33638 0.0
H138 H 0.48104 0.9291 0.38345 0.0
H139 H 0.40073 0.92042 0.38658 0.0
C140 C 0.60235 0.97125 0.35526 0.0
C141 C 0.62004 0.01125 0.36657 0.0
C142 C 0.55659 0.96551 0.35254 0.0
C143 C 0.52745 0.99983 0.36068 0.0
C144 C 0.54515 0.04039 0.37097 0.0
C145 C 0.59098 0.04596 0.37406 0.0
C146 C 0.40454 0.01977 0.34856 0.0
C147 C 0.38582 0.98245 0.36321 0.0
C148 C 0.4505 0.02499 0.34711 0.0
C149 C 0.47877 0.99272 0.35988 0.0
C150 C 0.46009 0.95443 0.37323 0.0
C151 C 0.4141 0.94946 0.37505 0.0
H152 H 0.91955 0.40042 0.11622 0.0
H153 H 0.04676 0.37996 0.16042 0.0
H154 H 0.9287 0.48035 0.12181 0.0
H155 H 0.05596 0.45988 0.16578 0.0
H156 H 0.07604 0.60239 0.12202 0.0
H157 H 0.06713 0.52212 0.12616 0.0
H158 H 0.93534 0.54036 0.16308 0.0
H159 H 0.94418 0.62032 0.15916 0.0
C160 C 0.94911 0.41294 0.12757 0.0
C161 C 0.98241 0.38386 0.13784 0.0
C162 C 0.95434 0.4587 0.13083 0.0
C163 C 0.9932 0.47636 0.14408 0.0
C164 C 0.02587 0.44723 0.15522 0.0
C165 C 0.0204 0.40146 0.15234 0.0
C166 C 0.04549 0.58927 0.13153 0.0
C167 C 0.0108 0.61775 0.14015 0.0
C168 C 0.04041 0.54333 0.13396 0.0
C169 C 1.00038 0.52499 0.14472 0.0
C170 C 0.96635 0.55352 0.15438 0.0
C171 C 0.97159 0.59936 0.1523 0.0
H172 H 0.37849 0.9449 0.84892 0.0
H173 H 0.39567 0.07905 0.88175 0.0
H174 H 0.4586 0.93597 0.84589 0.0
H175 H 0.47604 0.07009 0.87842 0.0
H176 H 0.61704 0.04897 0.84162 0.0
H177 H 0.53689 0.05711 0.83819 0.0
H178 H 0.52019 0.93268 0.88669 0.0
H179 H 0.60062 0.9245 0.89034 0.0
C180 C 0.39933 0.97275 0.85503 0.0
C181 C 0.38071 0.01274 0.86559 0.0
C182 C 0.44523 0.96744 0.85352 0.0
C183 C 0.47356 0.0022 0.86208 0.0
C184 C 0.45498 0.04278 0.87149 0.0
C185 C 0.409 0.04791 0.87344 0.0
C186 C 0.59635 0.02304 0.85126 0.0
C187 C 0.61522 0.98607 0.86631 0.0
C188 C 0.55043 0.02792 0.84946 0.0
C189 C 0.5223 0.9957 0.86231 0.0
C190 C 0.54109 0.95793 0.87638 0.0
C191 C 0.58711 0.95327 0.87852 0.0
H192 H 0.17114 0.09787 0.39107 0.0
H193 H 0.26758 0.08275 0.46551 0.0
H194 H 0.12534 0.14295 0.42569 0.0
H195 H 0.22141 0.12757 0.50031 0.0
H196 H 0.13458 0.22689 0.55219 0.0
H197 H 0.18571 0.20117 0.51126 0.0
H198 H 0.08205 0.11968 0.472 0.0
H199 H 0.03133 0.14534 0.5124 0.0
C200 C 0.18291 0.10477 0.41467 0.0
C201 C 0.22264 0.08625 0.42573 0.0
C202 C 0.15661 0.1305 0.43451 0.0
C203 C 0.1695 0.13832 0.46583 0.0
C204 C 0.21072 0.12234 0.47623 0.0
C205 C 0.23707 0.09651 0.45635 0.0
C206 C 0.12262 0.20415 0.53442 0.0
C207 C 0.07908 0.18784 0.53563 0.0
C208 C 0.15192 0.18923 0.51115 0.0
C209 C 0.13791 0.15837 0.48846 0.0
C210 C 0.09377 0.14384 0.48889 0.0
C211 C 0.06477 0.15828 0.51223 0.0
H212 H 0.13266 0.97939 0.47937 0.0
H213 H 0.2281 0.88097 0.45052 0.0
H214 H 0.10762 0.93083 0.52149 0.0
H215 H 0.20286 0.8322 0.49296 0.0
H216 H 0.09016 0.74326 0.53806 0.0
H217 H 0.13106 0.79102 0.50197 0.0
H218 H 0.13173 0.89474 0.57184 0.0
H219 H 0.09095 0.84701 0.60801 0.0
C220 C 0.14868 0.94757 0.48226 0.0
C221 C 0.18214 0.93389 0.46145 0.0
C222 C 0.13453 0.91988 0.50657 0.0
C223 C 0.15323 0.87769 0.51048 0.0
C224 C 0.18769 0.86447 0.49034 0.0
C225 C 0.20228 0.89247 0.46619 0.0
C226 C 0.09973 0.77597 0.54593 0.0
C227 C 0.08685 0.79158 0.57573 0.0
C228 C 0.12334 0.80323 0.52531 0.0
C229 C 0.13427 0.84672 0.53401 0.0
C230 C 0.12328 0.86154 0.56439 0.0
C231 C 0.10003 0.83415 0.58511 0.0
H232 H 0.74446 0.92723 0.47249 0.0
H233 H 0.84962 0.923 0.40365 0.0
H234 H 0.79112 0.88668 0.50976 0.0
H235 H 0.8962 0.88291 0.44099 0.0
H236 H 0.97905 0.88138 0.53411 0.0
H237 H 0.93073 0.90865 0.49245 0.0
H238 H 0.83178 0.81228 0.51829 0.0
H239 H 0.88053 0.7845 0.56015 0.0
C240 C 0.77728 0.91716 0.46518 0.0
C241 C 0.79354 0.92872 0.43527 0.0
C242 C 0.80387 0.89376 0.48645 0.0
C243 C 0.84734 0.88193 0.47829 0.0
C244 C 0.86295 0.89201 0.44796 0.0
C245 C 0.83623 0.91492 0.4266 0.0
C246 C 0.94715 0.8657 0.53078 0.0
C247 C 0.93347 0.83094 0.5505 0.0
C248 C 0.91962 0.88113 0.50677 0.0
C249 C 0.87753 0.86257 0.50216 0.0
C250 C 0.86403 0.82725 0.52146 0.0
C251 C 0.89198 0.81124 0.54525 0.0
H252 H 0.7721 0.0932 0.47111 0.0
H253 H 0.89892 0.10104 0.42457 0.0
H254 H 0.79849 0.14531 0.51146 0.0
H255 H 0.92467 0.15327 0.46423 0.0
H256 H 0.94463 0.2746 0.52392 0.0
H257 H 0.90473 0.23279 0.48374 0.0
H258 H 0.86334 0.13842 0.55412 0.0
H259 H 0.90379 0.17992 0.59444 0.0
C260 C 0.80526 0.10654 0.46927 0.0
C261 C 0.83355 0.09299 0.44484 0.0
C262 C 0.82034 0.13611 0.49234 0.0
C263 C 0.86348 0.15336 0.49077 0.0
C264 C 0.89111 0.14082 0.46578 0.0
C265 C 0.87646 0.1107 0.44323 0.0
C266 C 0.92629 0.24546 0.53099 0.0
C267 C 0.9276 0.2303 0.56228 0.0
C268 C 0.9036 0.22151 0.50796 0.0
C269 C 0.8812 0.18236 0.51587 0.0
C270 C 0.88012 0.16869 0.54749 0.0
C271 C 0.90339 0.19232 0.57049 0.0
H272 H 0.84088 0.08859 0.89183 0.0
H273 H 0.73998 0.08556 0.96386 0.0
H274 H 0.88801 0.13287 0.92627 0.0
H275 H 0.78719 0.12968 0.99829 0.0
H276 H 0.87508 0.22775 0.04892 0.0
H277 H 0.82606 0.20227 0.00664 0.0
H278 H 0.92704 0.11117 0.97546 0.0
H279 H 0.97578 0.13653 0.01731 0.0
C280 C 0.82849 0.09791 0.91482 0.0
C281 C 0.78701 0.08307 0.92533 0.0
C282 C 0.85551 0.12321 0.93453 0.0
C283 C 0.84143 0.13443 0.96505 0.0
C284 C 0.79882 0.12186 0.97481 0.0
C285 C 0.7719 0.09633 0.95516 0.0
C286 C 0.88703 0.20292 0.03262 0.0
C287 C 0.92907 0.18379 0.03661 0.0
C288 C 0.85891 0.18819 0.00858 0.0
C289 C 0.87266 0.15463 0.98785 0.0
C290 C 0.91562 0.13736 0.99085 0.0
C291 C 0.94342 0.15164 0.01502 0.0
H292 H 0.21771 0.12978 0.94226 0.0
H293 H 0.12222 0.03268 0.97322 0.0
H294 H 0.19288 0.18003 0.9841 0.0
H295 H 0.09784 0.08244 0.01467 0.0
H296 H 0.08708 0.1634 0.10202 0.0
H297 H 0.12706 0.11727 0.06453 0.0
H298 H 0.12003 0.22171 0.99528 0.0
H299 H 0.07976 0.26804 0.03278 0.0
C300 C 0.19182 0.11902 0.95814 0.0
C301 C 0.17174 0.07739 0.95434 0.0
C302 C 0.17754 0.14779 0.98194 0.0
C303 C 0.1436 0.13501 0.00269 0.0
C304 C 0.12444 0.09298 -0.0007 0.0
C305 C 0.13818 0.06462 0.97536 0.0
C306 C 0.09466 0.17687 0.07899 0.0
C307 C 0.07968 0.21911 0.07019 0.0
C308 C 0.11747 0.15039 0.05752 0.0
C309 C 0.12615 0.16573 0.0269 0.0
C310 C 0.11392 0.20912 0.01878 0.0
C311 C 0.09076 0.23556 0.04022 0.0
H312 H 0.1287 0.78498 0.06393 0.0
H313 H 0.02613 0.871 0.028 0.0
H314 H 0.17898 0.81144 0.02257 0.0
H315 H 0.07592 0.89703 0.98703 0.0
H316 H 0.16102 0.90956 0.90156 0.0
H317 H 0.11566 0.86858 0.93899 0.0
H318 H 0.21537 0.88681 0.01072 0.0
H319 H 0.26095 0.92805 0.97323 0.0
C320 C 0.11679 0.80908 0.04703 0.0
C321 C 0.07365 0.82619 0.04931 0.0
C322 C 0.14555 0.82433 0.02353 0.0
C323 C 0.13126 0.85618 0.0016 0.0
C324 C 0.0877 0.87212 0.00338 0.0
C325 C 0.05931 0.85748 0.02703 0.0
C326 C 0.1736 0.90435 0.92517 0.0
C327 C 0.21427 0.92255 0.93459 0.0
C328 C 0.14758 0.88093 0.94659 0.0
C329 C 0.16183 0.87491 0.9778 0.0
C330 C 0.2037 0.89077 0.98675 0.0
C331 C 0.22967 0.91453 0.96533 0.0
H332 H 0.90119 0.9219 0.93013 0.0
H333 H 0.76973 0.91563 0.96993 0.0
H334 H 0.92802 0.87166 0.97074 0.0
H335 H 0.79722 0.8655 0.01118 0.0
H336 H 0.89513 0.82801 0.09804 0.0
H337 H 0.85817 0.87322 0.05781 0.0
H338 H 0.91075 0.78853 0.98513 0.0
H339 H 0.94693 0.74301 0.02507 0.0
C340 C 0.87801 0.90992 0.94762 0.0
C341 C 0.83329 0.92277 0.94681 0.0
C342 C 0.89337 0.88093 0.97074 0.0
C343 C 0.8646 0.86462 0.99391 0.0
C344 C 0.81999 0.87771 0.9935 0.0
C345 C 0.80431 0.90619 0.96989 0.0
C346 C 0.89805 0.81863 0.0735 0.0
C347 C 0.92396 0.78206 0.06468 0.0
C348 C 0.87685 0.84439 0.05057 0.0
C349 C 0.88189 0.83438 0.01846 0.0
C350 C 0.90657 0.797 0.00975 0.0
C351 C 0.92709 0.77088 0.03263 0.0
H352 H 0.07364 0.23278 0.71689 0.0
H353 H 0.1217 0.13918 0.64838 0.0
H354 H 0.12115 0.19849 0.75726 0.0
H355 H 0.16983 0.106 0.68793 0.0
H356 H 0.16911 0.01415 0.77531 0.0
H357 H 0.14446 0.05983 0.73166 0.0
H358 H 0.19778 0.17574 0.77749 0.0
H359 H 0.22288 0.12918 0.82167 0.0
C360 C 0.09548 0.20592 0.7103 0.0
C361 C 0.09377 0.1881 0.67981 0.0
C362 C 0.12273 0.18637 0.73328 0.0
C363 C 0.14866 0.14901 0.72587 0.0
C364 C 0.14962 0.1341 0.69455 0.0
C365 C 0.1222 0.15316 0.67189 0.0
C366 C 0.1766 0.0492 0.77573 0.0
C367 C 0.19801 0.0681 0.80176 0.0
C368 C 0.16259 0.07546 0.75066 0.0
C369 C 0.16914 0.12151 0.75107 0.0
C370 C 0.19216 0.14039 0.77658 0.0
C371 C 0.20692 0.11375 0.80163 0.0
H372 H 0.12486 0.77541 0.17938 0.0
H373 H 0.01364 0.83358 0.22777 0.0
H374 H 0.17435 0.80056 0.22183 0.0
H375 H 0.06239 0.85772 0.27009 0.0
H376 H 0.14815 0.87593 0.35145 0.0
H377 H 0.11289 0.82759 0.31289 0.0
H378 H 0.19668 0.88133 0.23996 0.0
H379 H 0.23241 0.92973 0.27904 0.0
C380 C 0.11087 0.79236 0.19952 0.0
C381 C 0.06544 0.80247 0.20044 0.0
C382 C 0.13919 0.80705 0.22359 0.0
C383 C 0.12222 0.83101 0.24926 0.0
C384 C 0.07641 0.83889 0.25082 0.0
C385 C 0.04846 0.82516 0.22657 0.0
C386 C 0.16013 0.87617 0.32739 0.0
C387 C 0.19289 0.90635 0.31808 0.0
C388 C 0.13982 0.84873 0.30532 0.0
C389 C 0.1516 0.85116 0.27338 0.0
C390 C 0.18714 0.8786 0.26448 0.0
C391 C 0.20764 0.90621 0.28675 0.0
H392 H 0.97028 0.80879 0.73566 0.0
H393 H 0.86763 0.79111 0.66614 0.0
H394 H 0.91532 0.8363 0.77326 0.0
H395 H 0.81284 0.82067 0.70338 0.0
H396 H 0.79521 0.86382 0.837 0.0
H397 H 0.82843 0.81115 0.79986 0.0
H398 H 0.82777 0.91149 0.72758 0.0
H399 H 0.79655 0.96463 0.76506 0.0
C400 C 0.9357 0.80935 0.72889 0.0
C401 C 0.92295 0.79742 0.69827 0.0
C402 C 0.90433 0.82507 0.75031 0.0
C403 C 0.86 0.83038 0.7411 0.0
C404 C 0.84678 0.81634 0.71102 0.0
C405 C 0.878 0.79929 0.68988 0.0
C406 C 0.80044 0.87394 0.81278 0.0
C407 C 0.79299 0.918 0.80364 0.0
C408 C 0.81961 0.84395 0.79168 0.0
C409 C 0.83031 0.85737 0.76095 0.0
C410 C 0.81919 0.9003 0.75106 0.0
C411 C 0.8013 0.93061 0.7724 0.0
H412 H 0.77591 0.13245 0.32271 0.0
H413 H 0.81916 0.01824 0.27023 0.0
H414 H 0.80022 0.18079 0.27941 0.0
H415 H 0.84272 0.06581 0.22719 0.0
H416 H 0.86876 0.15118 0.14743 0.0
H417 H 0.81859 0.11877 0.18608 0.0
H418 H 0.87839 0.19834 0.25907 0.0
H419 H 0.92821 0.2315 0.21986 0.0
C420 C 0.78909 0.11765 0.30146 0.0
C421 C 0.79553 0.07166 0.29964 0.0
C422 C 0.80341 0.14528 0.27689 0.0
C423 C 0.82344 0.12716 0.24991 0.0
C424 C 0.82694 0.08089 0.24742 0.0
C425 C 0.8135 0.05355 0.27208 0.0
C426 C 0.87001 0.16286 0.17156 0.0
C427 C 0.90217 0.19368 0.18082 0.0
C428 C 0.84151 0.14417 0.19369 0.0
C429 C 0.84499 0.15546 0.22569 0.0
C430 C 0.87472 0.18917 0.23454 0.0
C431 C 0.90323 0.20816 0.2122 0.0
loop_
_geom_bond_atom_site_label_1
_geom_bond_atom_site_label_2
_geom_bond_distance
_geom_bond_site_symmetry_2
_ccdc_geom_bond_type
Co0 O1 2.216 . S
Co0 O2 2.091 . S
Co0 O4 2.004 . S
Co0 O10 2.021 . S
Co0 O12 2.137 . S
Co0 O13 2.244 . S
O1 Co0 2.216 . S
O1 C8 1.247 . S
O2 Co0 2.091 . S
O2 C8 1.261 . S
C3 O12 1.247 . S
C3 O13 1.272 . S
O4 Co0 2.004 . S
O4 C9 1.259 . S
Co5 O6 2.061 . S
Co5 O11 2.052 . S
Co5 O13 2.135 . S
O6 Co5 2.061 . S
O6 C9 1.235 . S
C7 O10 1.238 . S
C7 O11 1.241 . S
C8 O1 1.247 . S
C8 O2 1.261 . S
C9 O4 1.259 . S
C9 O6 1.235 . S
O10 Co0 2.021 . S
O10 C7 1.238 . S
O11 Co5 2.052 . S
O11 C7 1.241 . S
O12 Co0 2.137 . S
O12 C3 1.247 . S
O13 Co0 2.244 . S
O13 C3 1.272 . S
O13 Co5 2.135 . S
Co14 O15 2.216 . S
Co14 O16 2.091 . S
Co14 O18 2.004 . S
Co14 O24 2.021 . S
Co14 O26 2.137 . S
Co14 O27 2.244 . S
O15 Co14 2.216 . S
O15 C22 1.247 . S
O16 Co14 2.091 . S
O16 C22 1.261 . S
C17 O26 1.247 . S
C17 O27 1.272 . S
O18 Co14 2.004 . S
O18 C23 1.259 . S
Co19 O20 2.061 . S
Co19 O25 2.052 . S
Co19 O27 2.135 . S
O20 Co19 2.061 . S
O20 C23 1.235 . S
C21 O24 1.238 . S
C21 O25 1.241 . S
C22 O15 1.247 . S
C22 O16 1.261 . S
C23 O18 1.259 . S
C23 O20 1.235 . S
O24 Co14 2.021 . S
O24 C21 1.238 . S
O25 Co19 2.052 . S
O25 C21 1.241 . S
O26 Co14 2.137 . S
O26 C17 1.247 . S
O27 Co14 2.244 . S
O27 C17 1.272 . S
O27 Co19 2.135 . S
Co28 O29 2.216 . S
Co28 O30 2.091 . S
Co28 O32 2.004 . S
Co28 O38 2.021 . S
Co28 O40 2.137 . S
Co28 O41 2.244 . S
O29 Co28 2.216 . S
O29 C36 1.247 . S
O30 Co28 2.091 . S
O30 C36 1.261 . S
C31 O40 1.247 . S
C31 O41 1.272 . S
O32 Co28 2.004 . S
O32 C37 1.259 . S
Co33 O34 2.061 . S
Co33 O39 2.052 . S
Co33 O41 2.135 . S
O34 Co33 2.061 . S
O34 C37 1.235 . S
C35 O38 1.238 . S
C35 O39 1.241 . S
C36 O29 1.247 . S
C36 O30 1.261 . S
C37 O32 1.259 . S
C37 O34 1.235 . S
O38 Co28 2.021 . S
O38 C35 1.238 . S
O39 Co33 2.052 . S
O39 C35 1.241 . S
O40 Co28 2.137 . S
O40 C31 1.247 . S
O41 Co28 2.244 . S
O41 C31 1.272 . S
O41 Co33 2.135 . S
Co42 O43 2.216 . S
Co42 O44 2.091 . S
Co42 O46 2.004 . S
Co42 O52 2.021 . S
Co42 O54 2.137 . S
Co42 O55 2.244 . S
O43 Co42 2.216 . S
O43 C50 1.247 . S
O44 Co42 2.091 . S
O44 C50 1.261 . S
C45 O54 1.247 . S
C45 O55 1.272 . S
O46 Co42 2.004 . S
O46 C51 1.259 . S
Co47 O48 2.061 . S
Co47 O53 2.052 . S
Co47 O55 2.135 . S
O48 Co47 2.061 . S
O48 C51 1.235 . S
C49 O52 1.238 . S
C49 O53 1.241 . S
C50 O43 1.247 . S
C50 O44 1.261 . S
C51 O46 1.259 . S
C51 O48 1.235 . S
O52 Co42 2.021 . S
O52 C49 1.238 . S
O53 Co47 2.052 . S
O53 C49 1.241 . S
O54 Co42 2.137 . S
O54 C45 1.247 . S
O55 Co42 2.244 . S
O55 C45 1.272 . S
O55 Co47 2.135 . S
Co56 O57 2.216 . S
Co56 O58 2.091 . S
Co56 O60 2.004 . S
Co56 O66 2.021 . S
Co56 O68 2.137 . S
Co56 O69 2.244 . S
O57 Co56 2.216 . S
O57 C64 1.247 . S
O58 Co56 2.091 . S
O58 C64 1.261 . S
C59 O68 1.247 . S
C59 O69 1.272 . S
O60 Co56 2.004 . S
O60 C65 1.259 . S
Co61 O62 2.061 . S
Co61 O67 2.052 . S
Co61 O69 2.135 . S
O62 Co61 2.061 . S
O62 C65 1.235 . S
C63 O66 1.238 . S
C63 O67 1.241 . S
C64 O57 1.247 . S
C64 O58 1.261 . S
C65 O60 1.259 . S
C65 O62 1.235 . S
O66 Co56 2.021 . S
O66 C63 1.238 . S
O67 Co61 2.052 . S
O67 C63 1.241 . S
O68 Co56 2.137 . S
O68 C59 1.247 . S
O69 Co56 2.244 . S
O69 C59 1.272 . S
O69 Co61 2.135 . S
Co70 O71 2.216 . S
Co70 O72 2.091 . S
Co70 O74 2.004 . S
Co70 O80 2.021 . S
Co70 O82 2.137 . S
Co70 O83 2.244 . S
O71 Co70 2.216 . S
O71 C78 1.247 . S
O72 Co70 2.091 . S
O72 C78 1.261 . S
C73 O82 1.247 . S
C73 O83 1.272 . S
O74 Co70 2.004 . S
O74 C79 1.259 . S
Co75 O76 2.061 . S
Co75 O81 2.052 . S
Co75 O83 2.135 . S
O76 Co75 2.061 . S
O76 C79 1.235 . S
C77 O80 1.238 . S
C77 O81 1.241 . S
C78 O71 1.247 . S
C78 O72 1.261 . S
C79 O74 1.259 . S
C79 O76 1.235 . S
O80 Co70 2.021 . S
O80 C77 1.238 . S
O81 Co75 2.052 . S
O81 C77 1.241 . S
O82 Co70 2.137 . S
O82 C73 1.247 . S
O83 Co70 2.244 . S
O83 C73 1.272 . S
O83 Co75 2.135 . S
Co84 O85 2.216 . S
Co84 O86 2.091 . S
Co84 O88 2.004 . S
Co84 O94 2.021 . S
Co84 O96 2.137 . S
Co84 O97 2.244 . S
O85 Co84 2.216 . S
O85 C92 1.247 . S
O86 Co84 2.091 . S
O86 C92 1.261 . S
C87 O96 1.247 . S
C87 O97 1.272 . S
O88 Co84 2.004 . S
O88 C93 1.259 . S
Co89 O90 2.061 . S
Co89 O95 2.052 . S
Co89 O97 2.135 . S
O90 Co89 2.061 . S
O90 C93 1.235 . S
C91 O94 1.238 . S
C91 O95 1.241 . S
C92 O85 1.247 . S
C92 O86 1.261 . S
C93 O88 1.259 . S
C93 O90 1.235 . S
O94 Co84 2.021 . S
O94 C91 1.238 . S
O95 Co89 2.052 . S
O95 C91 1.241 . S
O96 Co84 2.137 . S
O96 C87 1.247 . S
O97 Co84 2.244 . S
O97 C87 1.272 . S
O97 Co89 2.135 . S
Co98 O99 2.216 . S
Co98 O100 2.091 . S
Co98 O102 2.004 . S
Co98 O108 2.021 . S
Co98 O110 2.137 . S
Co98 O111 2.244 . S
O99 Co98 2.216 . S
O99 C106 1.247 . S
O100 Co98 2.091 . S
O100 C106 1.261 . S
C101 O110 1.247 . S
C101 O111 1.272 . S
O102 Co98 2.004 . S
O102 C107 1.259 . S
Co103 O104 2.061 . S
Co103 O109 2.052 . S
Co103 O111 2.135 . S
O104 Co103 2.061 . S
O104 C107 1.235 . S
C105 O108 1.238 . S
C105 O109 1.241 . S
C106 O99 1.247 . S
C106 O100 1.261 . S
C107 O102 1.259 . S
C107 O104 1.235 . S
O108 Co98 2.021 . S
O108 C105 1.238 . S
O109 Co103 2.052 . S
O109 C105 1.241 . S
O110 Co98 2.137 . S
O110 C101 1.247 . S
O111 Co98 2.244 . S
O111 C101 1.272 . S
O111 Co103 2.135 . S
H112 C120 0.950 . S
H113 C125 0.950 . S
H114 C122 0.950 1_455 S
H115 C124 0.950 . S
H116 C126 0.950 . S
H117 C128 0.950 1_655 S
H118 C130 0.950 . S
H119 C131 0.950 . S
C120 H112 0.950 . S
C120 C121 1.386 . S
C120 C122 1.391 . S
C121 C120 1.386 . S
C121 C125 1.393 . S
C122 H114 0.950 1_655 S
C122 C120 1.391 . S
C122 C123 1.400 . S
C123 C122 1.400 . S
C123 C124 1.398 . S
C123 C129 1.491 1_655 S
C124 H115 0.950 . S
C124 C123 1.398 . S
C124 C125 1.391 . S
C125 H113 0.950 . S
C125 C121 1.393 . S
C125 C124 1.391 . S
C126 H116 0.950 . S
C126 C127 1.386 . S
C126 C128 1.391 . S
C127 C126 1.386 . S
C127 C131 1.393 . S
C128 H117 0.950 1_455 S
C128 C126 1.391 . S
C128 C129 1.400 . S
C129 C123 1.491 1_455 S
C129 C128 1.400 . S
C129 C130 1.398 . S
C130 H118 0.950 . S
C130 C129 1.398 . S
C130 C131 1.391 . S
C131 H119 0.950 . S
C131 C127 1.393 . S
C131 C130 1.391 . S
H132 C140 0.950 . S
H133 C145 0.950 . S
H134 C142 0.950 1_565 S
H135 C144 0.950 . S
H136 C146 0.950 . S
H137 C148 0.950 1_545 S
H138 C150 0.950 . S
H139 C151 0.950 . S
C140 H132 0.950 . S
C140 C141 1.386 . S
C140 C142 1.391 . S
C141 C140 1.386 . S
C141 C145 1.393 . S
C142 H134 0.950 1_545 S
C142 C140 1.391 . S
C142 C143 1.400 . S
C143 C142 1.400 . S
C143 C144 1.398 . S
C143 C149 1.491 1_545 S
C144 H135 0.950 . S
C144 C143 1.398 . S
C144 C145 1.391 . S
C145 H133 0.950 . S
C145 C141 1.393 . S
C145 C144 1.391 . S
C146 H136 0.950 . S
C146 C147 1.386 . S
C146 C148 1.391 . S
C147 C146 1.386 . S
C147 C151 1.393 . S
C148 H137 0.950 1_565 S
C148 C146 1.391 . S
C148 C149 1.400 . S
C149 C143 1.491 1_565 S
C149 C148 1.400 . S
C149 C150 1.398 . S
C150 H138 0.950 . S
C150 C149 1.398 . S
C150 C151 1.391 . S
C151 H139 0.950 . S
C151 C147 1.393 . S
C151 C150 1.391 . S
H152 C160 0.950 . S
H153 C165 0.950 . S
H154 C162 0.950 . S
H155 C164 0.950 . S
H156 C166 0.950 . S
H157 C168 0.950 . S
H158 C170 0.950 . S
H159 C171 0.950 . S
C160 H152 0.950 . S
C160 C161 1.386 . S
C160 C162 1.391 . S
C161 C160 1.386 . S
C161 C165 1.393 . S
C162 H154 0.950 . S
C162 C160 1.391 . S
C162 C163 1.400 . S
C163 C162 1.400 . S
C163 C164 1.398 1_655 S
C163 C169 1.491 1_655 S
C164 H155 0.950 . S
C164 C163 1.398 1_455 S
C164 C165 1.391 1_455 S
C165 H153 0.950 . S
C165 C161 1.393 . S
C165 C164 1.391 1_655 S
C166 H156 0.950 . S
C166 C167 1.386 . S
C166 C168 1.391 . S
C167 C166 1.386 . S
C167 C171 1.393 . S
C168 H157 0.950 . S
C168 C166 1.391 . S
C168 C169 1.400 . S
C169 C163 1.491 1_455 S
C169 C168 1.400 . S
C169 C170 1.398 1_455 S
C170 H158 0.950 . S
C170 C169 1.398 1_655 S
C170 C171 1.391 1_655 S
C171 H159 0.950 . S
C171 C167 1.393 . S
C171 C170 1.391 1_455 S
H172 C180 0.950 . S
H173 C185 0.950 . S
H174 C182 0.950 . S
H175 C184 0.950 1_565 S
H176 C186 0.950 . S
H177 C188 0.950 . S
H178 C190 0.950 1_545 S
H179 C191 0.950 . S
C180 H172 0.950 . S
C180 C181 1.386 . S
C180 C182 1.391 . S
C181 C180 1.386 . S
C181 C185 1.393 . S
C182 H174 0.950 . S
C182 C180 1.391 . S
C182 C183 1.400 . S
C183 C182 1.400 . S
C183 C184 1.398 . S
C183 C189 1.491 1_545 S
C184 H175 0.950 1_545 S
C184 C183 1.398 . S
C184 C185 1.391 . S
C185 H173 0.950 . S
C185 C181 1.393 . S
C185 C184 1.391 . S
C186 H176 0.950 . S
C186 C187 1.386 . S
C186 C188 1.391 . S
C187 C186 1.386 . S
C187 C191 1.393 . S
C188 H177 0.950 . S
C188 C186 1.391 . S
C188 C189 1.400 . S
C189 C183 1.491 1_565 S
C189 C188 1.400 . S
C189 C190 1.398 . S
C190 H178 0.950 1_565 S
C190 C189 1.398 . S
C190 C191 1.391 . S
C191 H179 0.950 . S
C191 C187 1.393 . S
C191 C190 1.391 . S
H192 C200 0.950 . S
H193 C205 0.955 . S
H194 C202 0.950 . S
H195 C204 0.950 . S
H196 C206 0.950 . S
H197 C208 0.950 . S
H198 C210 0.950 . S
H199 C211 0.950 . S
C200 H192 0.950 . S
C200 C201 1.386 . S
C200 C202 1.391 . S
C201 C200 1.386 . S
C201 C205 1.392 1_545 S
C202 H194 0.950 . S
C202 C200 1.391 . S
C202 C203 1.400 . S
C203 C202 1.400 . S
C203 C204 1.398 . S
C203 C209 1.491 . S
C204 H195 0.950 . S
C204 C203 1.398 . S
C204 C205 1.386 1_545 S
C205 H193 0.955 . S
C205 C201 1.392 1_565 S
C205 C204 1.386 1_565 S
C206 H196 0.950 . S
C206 C207 1.386 . S
C206 C208 1.391 . S
C207 C206 1.386 . S
C207 C211 1.393 . S
C208 H197 0.950 . S
C208 C206 1.391 . S
C208 C209 1.400 . S
C209 C203 1.491 . S
C209 C208 1.400 . S
C209 C210 1.398 . S
C210 H198 0.950 . S
C210 C209 1.398 . S
C210 C211 1.391 . S
C211 H199 0.950 . S
C211 C207 1.393 . S
C211 C210 1.391 . S
H212 C220 0.950 . S
H213 C225 0.950 . S
H214 C222 0.950 . S
H215 C224 0.950 . S
H216 C226 0.950 . S
H217 C228 0.950 . S
H218 C230 0.950 . S
H219 C231 0.950 . S
C220 H212 0.950 . S
C220 C221 1.386 . S
C220 C222 1.391 . S
C221 C220 1.386 . S
C221 C225 1.393 . S
C222 H214 0.950 . S
C222 C220 1.391 . S
C222 C223 1.400 . S
C223 C222 1.400 . S
C223 C224 1.398 . S
C223 C229 1.491 . S
C224 H215 0.950 . S
C224 C223 1.398 . S
C224 C225 1.391 . S
C225 H213 0.950 . S
C225 C221 1.393 . S
C225 C224 1.391 . S
C226 H216 0.950 . S
C226 C227 1.386 1_655 S
C226 C228 1.391 1_655 S
C227 C226 1.386 1_455 S
C227 C231 1.393 . S
C228 H217 0.950 . S
C228 C226 1.391 1_455 S
C228 C229 1.400 . S
C229 C223 1.491 . S
C229 C228 1.400 . S
C229 C230 1.398 . S
C230 H218 0.950 . S
C230 C229 1.398 . S
C230 C231 1.391 . S
C231 H219 0.950 . S
C231 C227 1.393 . S
C231 C230 1.391 . S
H232 C240 0.953 . S
H233 C245 0.950 . S
H234 C242 0.950 . S
H235 C244 0.950 . S
H236 C246 0.950 . S
H237 C248 0.950 . S
H238 C250 0.950 . S
H239 C251 0.950 . S
C240 H232 0.953 . S
C240 C241 1.385 1_545 S
C240 C242 1.388 1_545 S
C241 C240 1.385 1_565 S
C241 C245 1.393 . S
C242 H234 0.950 . S
C242 C240 1.388 1_565 S
C242 C243 1.400 . S
C243 C242 1.400 . S
C243 C244 1.398 . S
C243 C249 1.491 . S
C244 H235 0.950 . S
C244 C243 1.398 . S
C244 C245 1.391 . S
C245 H233 0.950 . S
C245 C241 1.393 . S
C245 C244 1.391 . S
C246 H236 0.950 . S
C246 C247 1.386 . S
C246 C248 1.391 . S
C247 C246 1.386 . S
C247 C251 1.393 . S
C248 H237 0.950 . S
C248 C246 1.391 . S
C248 C249 1.400 . S
C249 C243 1.491 . S
C249 C248 1.400 . S
C249 C250 1.398 . S
C250 H238 0.950 . S
C250 C249 1.398 . S
C250 C251 1.391 . S
C251 H239 0.950 . S
C251 C247 1.393 . S
C251 C250 1.391 . S
H252 C260 0.950 . S
H253 C265 0.950 . S
H254 C262 0.950 . S
H255 C264 0.950 . S
H256 C266 0.950 . S
H257 C268 0.950 . S
H258 C270 0.950 . S
H259 C271 0.950 . S
C260 H252 0.950 . S
C260 C261 1.386 . S
C260 C262 1.391 . S
C261 C260 1.386 . S
C261 C265 1.393 . S
C262 H254 0.950 . S
C262 C260 1.391 . S
C262 C263 1.400 . S
C263 C262 1.400 . S
C263 C264 1.398 . S
C263 C269 1.491 . S
C264 H255 0.950 . S
C264 C263 1.398 . S
C264 C265 1.391 . S
C265 H253 0.950 . S
C265 C261 1.393 . S
C265 C264 1.391 . S
C266 H256 0.950 . S
C266 C267 1.386 . S
C266 C268 1.391 . S
C267 C266 1.386 . S
C267 C271 1.393 . S
C268 H257 0.950 . S
C268 C266 1.391 . S
C268 C269 1.400 . S
C269 C263 1.491 . S
C269 C268 1.400 . S
C269 C270 1.398 . S
C270 H258 0.950 . S
C270 C269 1.398 . S
C270 C271 1.391 . S
C271 H259 0.950 . S
C271 C267 1.393 . S
C271 C270 1.391 . S
H272 C280 0.950 . S
H273 C285 0.950 . S
H274 C282 0.950 . S
H275 C284 0.950 1_554 S
H276 C286 0.950 . S
H277 C288 0.950 . S
H278 C290 0.950 . S
H279 C291 0.960 . S
C280 H272 0.950 . S
C280 C281 1.386 . S
C280 C282 1.391 . S
C281 C280 1.386 . S
C281 C285 1.393 1_545 S
C282 H274 0.950 . S
C282 C280 1.391 . S
C282 C283 1.400 . S
C283 C282 1.400 . S
C283 C284 1.398 . S
C283 C289 1.491 1_556 S
C284 H275 0.950 1_556 S
C284 C283 1.398 . S
C284 C285 1.391 1_545 S
C285 H273 0.950 . S
C285 C281 1.393 1_565 S
C285 C284 1.391 1_565 S
C286 H276 0.950 . S
C286 C287 1.386 . S
C286 C288 1.391 . S
C287 C286 1.386 . S
C287 C291 1.393 . S
C288 H277 0.950 . S
C288 C286 1.391 . S
C288 C289 1.400 . S
C289 C283 1.491 1_554 S
C289 C288 1.400 . S
C289 C290 1.398 1_554 S
C290 H278 0.950 . S
C290 C289 1.398 1_556 S
C290 C291 1.391 1_556 S
C291 H279 0.960 . S
C291 C287 1.393 . S
C291 C290 1.391 1_554 S
H292 C300 0.950 . S
H293 C305 0.950 . S
H294 C302 0.950 . S
H295 C304 0.950 . S
H296 C306 0.950 . S
H297 C308 0.950 . S
H298 C310 0.950 1_556 S
H299 C311 0.950 . S
C300 H292 0.950 . S
C300 C301 1.386 . S
C300 C302 1.391 . S
C301 C300 1.386 . S
C301 C305 1.393 . S
C302 H294 0.950 . S
C302 C300 1.391 . S
C302 C303 1.400 . S
C303 C302 1.400 . S
C303 C304 1.398 1_556 S
C303 C309 1.491 1_556 S
C304 H295 0.950 . S
C304 C303 1.398 1_554 S
C304 C305 1.391 1_554 S
C305 H293 0.950 . S
C305 C301 1.393 . S
C305 C304 1.391 1_556 S
C306 H296 0.950 . S
C306 C307 1.386 . S
C306 C308 1.391 . S
C307 C306 1.386 . S
C307 C311 1.393 1_455 S
C308 H297 0.950 . S
C308 C306 1.391 . S
C308 C309 1.400 . S
C309 C303 1.491 1_554 S
C309 C308 1.400 . S
C309 C310 1.398 . S
C310 H298 0.950 1_554 S
C310 C309 1.398 . S
C310 C311 1.391 1_455 S
C311 H299 0.950 . S
C311 C307 1.393 1_655 S
C311 C310 1.391 1_655 S
H312 C320 0.950 . S
H313 C325 0.958 . S
H314 C322 0.950 . S
H315 C324 0.950 . S
H316 C326 0.950 . S
H317 C328 0.950 . S
H318 C330 0.950 1_554 S
H319 C331 0.950 1_545 S
C320 H312 0.950 . S
C320 C321 1.386 . S
C320 C322 1.391 . S
C321 C320 1.386 . S
C321 C325 1.393 . S
C322 H314 0.950 . S
C322 C320 1.391 . S
C322 C323 1.400 . S
C323 C322 1.400 . S
C323 C324 1.398 1_554 S
C323 C329 1.491 1_554 S
C324 H315 0.950 . S
C324 C323 1.398 1_556 S
C324 C325 1.391 1_556 S
C325 H313 0.958 . S
C325 C321 1.393 . S
C325 C324 1.391 1_554 S
C326 H316 0.950 . S
C326 C327 1.386 . S
C326 C328 1.391 . S
C327 C326 1.386 . S
C327 C331 1.393 . S
C328 H317 0.950 . S
C328 C326 1.391 . S
C328 C329 1.400 . S
C329 C323 1.491 1_556 S
C329 C328 1.400 . S
C329 C330 1.398 . S
C330 H318 0.950 1_556 S
C330 C329 1.398 . S
C330 C331 1.391 . S
C331 H319 0.950 1_565 S
C331 C327 1.393 . S
C331 C330 1.391 . S
H332 C340 0.950 . S
H333 C345 0.950 . S
H334 C342 0.950 . S
H335 C344 0.950 . S
H336 C346 0.950 . S
H337 C348 0.950 . S
H338 C350 0.950 1_556 S
H339 C351 0.950 . S
C340 H332 0.950 . S
C340 C341 1.386 . S
C340 C342 1.391 . S
C341 C340 1.386 . S
C341 C345 1.393 . S
C342 H334 0.950 . S
C342 C340 1.391 . S
C342 C343 1.400 . S
C343 C342 1.400 . S
C343 C344 1.398 1_556 S
C343 C349 1.491 1_556 S
C344 H335 0.950 . S
C344 C343 1.398 1_554 S
C344 C345 1.391 1_554 S
C345 H333 0.950 . S
C345 C341 1.393 . S
C345 C344 1.391 1_556 S
C346 H336 0.950 . S
C346 C347 1.386 . S
C346 C348 1.391 . S
C347 C346 1.386 . S
C347 C351 1.393 1_655 S
C348 H337 0.950 . S
C348 C346 1.391 . S
C348 C349 1.400 . S
C349 C343 1.491 1_554 S
C349 C348 1.400 . S
C349 C350 1.398 . S
C350 H338 0.950 1_554 S
C350 C349 1.398 . S
C350 C351 1.391 1_655 S
C351 H339 0.950 . S
C351 C347 1.393 1_455 S
C351 C350 1.391 1_455 S
H352 C360 0.950 . S
H353 C365 0.950 . S
H354 C362 0.950 . S
H355 C364 0.950 . S
H356 C366 0.950 . S
H357 C368 0.950 . S
H358 C370 0.950 . S
H359 C371 0.950 . S
C360 H352 0.950 . S
C360 C361 1.386 . S
C360 C362 1.391 . S
C361 C360 1.386 . S
C361 C365 1.393 . S
C362 H354 0.950 . S
C362 C360 1.391 . S
C362 C363 1.400 . S
C363 C362 1.400 . S
C363 C364 1.398 . S
C363 C369 1.491 . S
C364 H355 0.950 . S
C364 C363 1.398 . S
C364 C365 1.391 . S
C365 H353 0.950 . S
C365 C361 1.393 . S
C365 C364 1.391 . S
C366 H356 0.950 . S
C366 C367 1.386 . S
C366 C368 1.391 . S
C367 C366 1.386 . S
C367 C371 1.393 . S
C368 H357 0.950 . S
C368 C366 1.391 . S
C368 C369 1.400 . S
C369 C363 1.491 . S
C369 C368 1.400 . S
C369 C370 1.398 . S
C370 H358 0.950 . S
C370 C369 1.398 . S
C370 C371 1.391 . S
C371 H359 0.950 . S
C371 C367 1.393 . S
C371 C370 1.391 . S
H372 C380 0.950 . S
H373 C385 0.950 . S
H374 C382 0.950 . S
H375 C384 0.950 . S
H376 C386 0.950 . S
H377 C388 0.950 . S
H378 C390 0.950 . S
H379 C391 0.950 . S
C380 H372 0.950 . S
C380 C381 1.386 . S
C380 C382 1.391 . S
C381 C380 1.386 . S
C381 C385 1.393 . S
C382 H374 0.950 . S
C382 C380 1.391 . S
C382 C383 1.400 . S
C383 C382 1.400 . S
C383 C384 1.398 . S
C383 C389 1.491 . S
C384 H375 0.950 . S
C384 C383 1.398 . S
C384 C385 1.391 . S
C385 H373 0.950 . S
C385 C381 1.393 . S
C385 C384 1.391 . S
C386 H376 0.950 . S
C386 C387 1.386 . S
C386 C388 1.391 . S
C387 C386 1.386 . S
C387 C391 1.393 . S
C388 H377 0.950 . S
C388 C386 1.391 . S
C388 C389 1.400 . S
C389 C383 1.491 . S
C389 C388 1.400 . S
C389 C390 1.398 . S
C390 H378 0.950 . S
C390 C389 1.398 . S
C390 C391 1.391 . S
C391 H379 0.950 . S
C391 C387 1.393 . S
C391 C390 1.391 . S
H392 C400 0.950 . S
H393 C405 0.950 . S
H394 C402 0.950 . S
H395 C404 0.950 . S
H396 C406 0.950 . S
H397 C408 0.950 . S
H398 C410 0.950 . S
H399 C411 0.950 . S
C400 H392 0.950 . S
C400 C401 1.386 . S
C400 C402 1.391 . S
C401 C400 1.386 . S
C401 C405 1.393 . S
C402 H394 0.950 . S
C402 C400 1.391 . S
C402 C403 1.400 . S
C403 C402 1.400 . S
C403 C404 1.398 . S
C403 C409 1.491 . S
C404 H395 0.950 . S
C404 C403 1.398 . S
C404 C405 1.391 . S
C405 H393 0.950 . S
C405 C401 1.393 . S
C405 C404 1.391 . S
C406 H396 0.950 . S
C406 C407 1.386 . S
C406 C408 1.391 . S
C407 C406 1.386 . S
C407 C411 1.393 . S
C408 H397 0.950 . S
C408 C406 1.391 . S
C408 C409 1.400 . S
C409 C403 1.491 . S
C409 C408 1.400 . S
C409 C410 1.398 . S
C410 H398 0.950 . S
C410 C409 1.398 . S
C410 C411 1.391 . S
C411 H399 0.950 . S
C411 C407 1.393 . S
C411 C410 1.391 . S
H412 C420 0.950 . S
H413 C425 0.950 . S
H414 C422 0.950 . S
H415 C424 0.950 . S
H416 C426 0.950 . S
H417 C428 0.950 . S
H418 C430 0.950 . S
H419 C431 0.950 . S
C420 H412 0.950 . S
C420 C421 1.386 . S
C420 C422 1.391 . S
C421 C420 1.386 . S
C421 C425 1.393 . S
C422 H414 0.950 . S
C422 C420 1.391 . S
C422 C423 1.400 . S
C423 C422 1.400 . S
C423 C424 1.398 . S
C423 C429 1.491 . S
C424 H415 0.950 . S
C424 C423 1.398 . S
C424 C425 1.391 . S
C425 H413 0.950 . S
C425 C421 1.393 . S
C425 C424 1.391 . S
C426 H416 0.950 . S
C426 C427 1.386 . S
C426 C428 1.391 . S
C427 C426 1.386 . S
C427 C431 1.393 . S
C428 H417 0.950 . S
C428 C426 1.391 . S
C428 C429 1.400 . S
C429 C423 1.491 . S
C429 C428 1.400 . S
C429 C430 1.398 . S
C430 H418 0.950 . S
C430 C429 1.398 . S
C430 C431 1.391 . S
C431 H419 0.950 . S
C431 C427 1.393 . S
C431 C430 1.391 . S
C121 C36 1.484 . S
C127 C8 1.480 . S
C141 C50 1.501 . S
C147 C22 1.503 . S
C161 C64 1.487 . S
C167 C92 1.481 . S
C181 C78 1.480 . S
C187 C106 1.483 . S
C201 C17 1.112 1_545 S
C207 C9 1.080 . S
C221 C23 1.040 . S
C227 C31 1.104 1_455 S
C241 C45 1.106 1_565 S
C247 C37 1.036 . S
C261 C51 1.040 . S
C267 C3 1.114 1_655 S
C281 C101 1.103 1_545 S
C287 C65 1.041 . S
C301 C79 1.044 . S
C307 C59 1.102 1_455 S
C321 C93 1.080 . S
C327 C73 1.109 1_565 S
C341 C107 1.051 . S
C347 C87 1.101 1_655 S
C361 C7 1.621 . S
C367 C77 1.639 . S
C381 C91 1.616 . S
C387 C21 1.629 . S
C401 C35 1.618 . S
C407 C105 1.621 . S
C421 C49 1.616 . S
C427 C63 1.627 . S
