# Generated by pormake.
# Topology wiq, (6)-cn, num edge types: 1
# Building blocks:
#     Node 0, Type 0, BuildingBlock: MIDCAF_clean_sbu_0, # of connection points: 6
#     Node 1, Type 0, BuildingBlock: MIDCAF_clean_sbu_0, # of connection points: 6
#     Node 2, Type 0, BuildingBlock: MIDCAF_clean_sbu_0, # of connection points: 6
#     Node 3, Type 0, BuildingBlock: MIDCAF_clean_sbu_0, # of connection points: 6
#     Node 4, Type 0, BuildingBlock: MIDCAF_clean_sbu_0, # of connection points: 6
#     Node 5, Type 0, BuildingBlock: MIDCAF_clean_sbu_0, # of connection points: 6
#     Node 6, Type 0, BuildingBlock: MIDCAF_clean_sbu_0, # of connection points: 6
#     Node 7, Type 0, BuildingBlock: MIDCAF_clean_sbu_0, # of connection points: 6
#     Node 8, Type 0, BuildingBlock: MIDCAF_clean_sbu_0, # of connection points: 6
#     Node 9, Type 0, BuildingBlock: MIDCAF_clean_sbu_0, # of connection points: 6
#     Node 10, Type 0, BuildingBlock: MIDCAF_clean_sbu_0, # of connection points: 6
#     Node 11, Type 0, BuildingBlock: MIDCAF_clean_sbu_0, # of connection points: 6
#     Node 12, Type 0, BuildingBlock: MIDCAF_clean_sbu_0, # of connection points: 6
#     Node 13, Type 0, BuildingBlock: MIDCAF_clean_sbu_0, # of connection points: 6
#     Node 14, Type 0, BuildingBlock: MIDCAF_clean_sbu_0, # of connection points: 6
#     Node 15, Type 0, BuildingBlock: MIDCAF_clean_sbu_0, # of connection points: 6
#     Node 16, Type 0, BuildingBlock: MIDCAF_clean_sbu_0, # of connection points: 6
#     Node 17, Type 0, BuildingBlock: MIDCAF_clean_sbu_0, # of connection points: 6
#     Node 18, Type 0, BuildingBlock: MIDCAF_clean_sbu_0, # of connection points: 6
#     Node 19, Type 0, BuildingBlock: MIDCAF_clean_sbu_0, # of connection points: 6
#     Node 20, Type 0, BuildingBlock: MIDCAF_clean_sbu_0, # of connection points: 6
#     Node 21, Type 0, BuildingBlock: MIDCAF_clean_sbu_0, # of connection points: 6
#     Node 22, Type 0, BuildingBlock: MIDCAF_clean_sbu_0, # of connection points: 6
#     Node 23, Type 0, BuildingBlock: MIDCAF_clean_sbu_0, # of connection points: 6
#     Node 24, Type 0, BuildingBlock: MIDCAF_clean_sbu_0, # of connection points: 6
#     Node 25, Type 0, BuildingBlock: MIDCAF_clean_sbu_0, # of connection points: 6
#     Node 26, Type 0, BuildingBlock: MIDCAF_clean_sbu_0, # of connection points: 6
#     Node 27, Type 0, BuildingBlock: MIDCAF_clean_sbu_0, # of connection points: 6
#     Node 28, Type 0, BuildingBlock: MIDCAF_clean_sbu_0, # of connection points: 6
#     Node 29, Type 0, BuildingBlock: MIDCAF_clean_sbu_0, # of connection points: 6
#     Node 30, Type 0, BuildingBlock: MIDCAF_clean_sbu_0, # of connection points: 6
#     Node 31, Type 0, BuildingBlock: MIDCAF_clean_sbu_0, # of connection points: 6
#     Edge 32, Type (0, 0), None
#     Edge 33, Type (0, 0), None
#     Edge 34, Type (0, 0), None
#     Edge 35, Type (0, 0), None
#     Edge 36, Type (0, 0), None
#     Edge 37, Type (0, 0), None
#     Edge 38, Type (0, 0), None
#     Edge 39, Type (0, 0), None
#     Edge 40, Type (0, 0), None
#     Edge 41, Type (0, 0), None
#     Edge 42, Type (0, 0), None
#     Edge 43, Type (0, 0), None
#     Edge 44, Type (0, 0), None
#     Edge 45, Type (0, 0), None
#     Edge 46, Type (0, 0), None
#     Edge 47, Type (0, 0), None
#     Edge 48, Type (0, 0), None
#     Edge 49, Type (0, 0), None
#     Edge 50, Type (0, 0), None
#     Edge 51, Type (0, 0), None
#     Edge 52, Type (0, 0), None
#     Edge 53, Type (0, 0), None
#     Edge 54, Type (0, 0), None
#     Edge 55, Type (0, 0), None
#     Edge 56, Type (0, 0), None
#     Edge 57, Type (0, 0), None
#     Edge 58, Type (0, 0), None
#     Edge 59, Type (0, 0), None
#     Edge 60, Type (0, 0), None
#     Edge 61, Type (0, 0), None
#     Edge 62, Type (0, 0), None
#     Edge 63, Type (0, 0), None
#     Edge 64, Type (0, 0), None
#     Edge 65, Type (0, 0), None
#     Edge 66, Type (0, 0), None
#     Edge 67, Type (0, 0), None
#     Edge 68, Type (0, 0), None
#     Edge 69, Type (0, 0), None
#     Edge 70, Type (0, 0), None
#     Edge 71, Type (0, 0), None
#     Edge 72, Type (0, 0), None
#     Edge 73, Type (0, 0), None
#     Edge 74, Type (0, 0), None
#     Edge 75, Type (0, 0), None
#     Edge 76, Type (0, 0), None
#     Edge 77, Type (0, 0), None
#     Edge 78, Type (0, 0), None
#     Edge 79, Type (0, 0), None
#     Edge 80, Type (0, 0), None
#     Edge 81, Type (0, 0), None
#     Edge 82, Type (0, 0), None
#     Edge 83, Type (0, 0), None
#     Edge 84, Type (0, 0), None
#     Edge 85, Type (0, 0), None
#     Edge 86, Type (0, 0), None
#     Edge 87, Type (0, 0), None
#     Edge 88, Type (0, 0), None
#     Edge 89, Type (0, 0), None
#     Edge 90, Type (0, 0), None
#     Edge 91, Type (0, 0), None
#     Edge 92, Type (0, 0), None
#     Edge 93, Type (0, 0), None
#     Edge 94, Type (0, 0), None
#     Edge 95, Type (0, 0), None
#     Edge 96, Type (0, 0), None
#     Edge 97, Type (0, 0), None
#     Edge 98, Type (0, 0), None
#     Edge 99, Type (0, 0), None
#     Edge 100, Type (0, 0), None
#     Edge 101, Type (0, 0), None
#     Edge 102, Type (0, 0), None
#     Edge 103, Type (0, 0), None
#     Edge 104, Type (0, 0), None
#     Edge 105, Type (0, 0), None
#     Edge 106, Type (0, 0), None
#     Edge 107, Type (0, 0), None
#     Edge 108, Type (0, 0), None
#     Edge 109, Type (0, 0), None
#     Edge 110, Type (0, 0), None
#     Edge 111, Type (0, 0), None
#     Edge 112, Type (0, 0), None
#     Edge 113, Type (0, 0), None
#     Edge 114, Type (0, 0), None
#     Edge 115, Type (0, 0), None
#     Edge 116, Type (0, 0), None
#     Edge 117, Type (0, 0), None
#     Edge 118, Type (0, 0), None
#     Edge 119, Type (0, 0), None
#     Edge 120, Type (0, 0), None
#     Edge 121, Type (0, 0), None
#     Edge 122, Type (0, 0), None
#     Edge 123, Type (0, 0), None
#     Edge 124, Type (0, 0), None
#     Edge 125, Type (0, 0), None
#     Edge 126, Type (0, 0), None
#     Edge 127, Type (0, 0), None
# Relax obj value: 0.522
# Max RMSD: 0.294
# Mean RMSD: 0.294
data_MOF--net-wiq--node1-MIDCAF_clean_sbu_0--edge1-none
_symmetry_space_group_name_H-M    P1
_symmetry_Int_Tables_number       1
_symmetry_cell_setting            triclinic
loop_
_symmetry_equiv_pos_as_xyz
'x, y, z'
_cell_length_a     23.230144
_cell_length_b     23.043002
_cell_length_c     23.177761
_cell_angle_alpha  90.000007
_cell_angle_beta   89.99989
_cell_angle_gamma 89.916455
loop_
_atom_site_label
_atom_site_type_symbol
_atom_site_fract_x
_atom_site_fract_y
_atom_site_fract_z
_atom_type_partial_charge
Zn0 Zn 0.1969 0.10472 0.14362 0.0
Zn1 Zn 0.07337 0.11946 0.34054 0.0
Zn2 Zn 0.08625 0.12977 0.24816 0.0
C3 C -0.01311 0.06099 0.31601 0.0
C4 C -0.00103 0.20677 0.27679 0.0
O5 O 0.14473 0.2047 0.25051 0.0
O6 O 0.21011 0.18075 0.18404 0.0
C7 C 0.14742 0.0078 0.22524 0.0
O8 O -0.00306 0.09689 0.27461 0.0
O9 O 0.02912 0.04521 0.34626 0.0
O10 O 0.02651 0.19708 0.32281 0.0
O11 O 0.00211 0.16755 0.2381 0.0
O12 O 0.18075 0.02577 0.18539 0.0
O13 O 0.11265 0.04153 0.2519 0.0
O14 O 0.10238 0.13365 0.16354 0.0
O15 O 0.14233 0.12991 0.07988 0.0
C16 C 0.09737 0.13614 0.10948 0.0
O17 O 0.13581 0.18813 0.31165 0.0
O18 O 0.13484 0.14225 0.39549 0.0
C19 C 0.18888 0.21712 0.21879 0.0
C20 C 0.14852 0.18653 0.3661 0.0
Zn21 Zn 0.09267 0.93892 0.404 0.0
Zn22 Zn 0.05449 0.84252 0.60609 0.0
Zn23 Zn 0.05962 0.84831 0.50491 0.0
C24 C 0.14733 0.79407 0.60067 0.0
C25 C -0.0098 0.75148 0.52523 0.0
O26 O 0.01311 0.92799 0.50284 0.0
O27 O 0.04635 -0.0016 0.44576 0.0
C28 C 0.19175 0.8919 0.47761 0.0
O29 O 0.13796 0.8136 0.54932 0.0
O30 O 0.12917 0.82412 0.6422 0.0
O31 O 0.00168 0.77408 0.57399 0.0
O32 O 0.0151 0.77168 0.48065 0.0
O33 O 0.1755 0.92271 0.43505 0.0
O34 O 0.1549 0.86349 0.50849 0.0
O35 O 0.03845 0.79634 0.43156 0.0
O36 O 0.02868 0.87832 0.39021 0.0
C37 C 0.04416 0.82623 0.3859 0.0
O38 O -0.01501 0.8912 0.55638 0.0
O39 O 0.00786 0.90054 0.64827 0.0
C40 C 0.00953 -0.02088 0.4811 0.0
C41 C 0.97082 0.90547 0.60881 0.0
Zn42 Zn 0.37117 0.83267 0.84054 0.0
Zn43 Zn 0.24763 0.84742 0.64362 0.0
Zn44 Zn 0.35828 0.82237 0.74816 0.0
C45 C 0.34716 0.816 0.60948 0.0
C46 C 0.29711 0.94434 0.72525 0.0
O47 O 0.30872 0.76401 0.81165 0.0
O48 O 0.30969 0.80988 0.89549 0.0
C49 C 0.44556 0.74536 0.77679 0.0
O50 O 0.34215 0.81848 0.66354 0.0
O51 O 0.30221 0.82223 0.57988 0.0
O52 O 0.26378 0.92636 0.6854 0.0
O53 O 0.33188 0.9106 0.7519 0.0
O54 O 0.41802 0.75505 0.82281 0.0
O55 O 0.44242 0.78459 0.7381 0.0
O56 O 0.44759 0.85524 0.77461 0.0
O57 O 0.41541 0.90692 0.84626 0.0
C58 C 0.45764 0.89115 0.81601 0.0
O59 O 0.2998 0.74743 0.75051 0.0
O60 O 0.23442 0.77139 0.68404 0.0
C61 C 0.29601 0.76561 0.8661 0.0
C62 C 0.25565 0.73501 0.71879 0.0
Zn63 Zn 0.35186 0.01321 0.904 0.0
Zn64 Zn 0.39004 0.10962 0.10609 0.0
Zn65 Zn 0.38491 0.10382 0.00491 0.0
C66 C 0.2972 0.15806 0.10067 0.0
C67 C 0.45433 0.20066 0.02523 0.0
O68 O 0.43143 0.02414 0.00284 0.0
O69 O 0.39818 0.95374 0.94576 0.0
C70 C 0.25278 0.06023 0.97761 0.0
O71 O 0.30657 0.13853 0.04932 0.0
O72 O 0.31536 0.12801 0.1422 0.0
O73 O 0.44285 0.17806 0.07399 0.0
O74 O 0.42943 0.18045 0.98065 0.0
O75 O 0.26903 0.02942 0.93505 0.0
O76 O 0.28964 0.08864 0.00849 0.0
O77 O 0.40608 0.15579 0.93156 0.0
O78 O 0.41585 0.07382 0.89021 0.0
C79 C 0.40038 0.1259 0.8859 0.0
O80 O 0.45954 0.06093 0.05638 0.0
O81 O 0.43667 0.05159 0.14827 0.0
C82 C 0.43501 0.97302 0.9811 0.0
C83 C 0.47371 0.04666 0.10881 0.0
Zn84 Zn 0.07289 0.83321 0.12668 0.0
Zn85 Zn 0.19809 0.84989 0.32194 0.0
Zn86 Zn 0.08623 0.8235 0.21906 0.0
C87 C 0.09881 0.81948 0.35781 0.0
C88 C 0.14776 0.94576 0.23976 0.0
O89 O 0.13588 0.76493 0.15568 0.0
O90 O 0.1345 0.81062 0.07173 0.0
C91 C -0.00072 0.74573 0.19028 0.0
O92 O 0.10294 0.82112 0.30364 0.0
O93 O 0.14415 0.82643 0.38662 0.0
O94 O 0.1817 0.92815 0.27927 0.0
O95 O 0.1124 0.91186 0.2142 0.0
O96 O 0.02662 0.75548 0.14419 0.0
O97 O 0.00224 0.78506 0.2289 0.0
O98 O -0.00348 0.85549 0.19332 0.0
O99 O 0.02846 0.90758 0.12201 0.0
C100 C -0.01373 0.89154 0.15209 0.0
O101 O 0.14475 0.74861 0.2171 0.0
O102 O 0.21075 0.77318 0.28266 0.0
C103 C 0.1484 0.7664 0.10118 0.0
C104 C 0.1891 0.73642 0.24863 0.0
Zn105 Zn 0.39058 0.84272 0.36134 0.0
Zn106 Zn 0.35406 0.93593 0.56566 0.0
Zn107 Zn 0.38589 0.84758 0.46294 0.0
C108 C 0.40216 0.82295 0.58217 0.0
C109 C 0.25413 0.8913 0.49206 0.0
O110 O 0.46034 0.89058 0.41141 0.0
O111 O 0.4377 0.9004 0.31945 0.0
C112 C 0.4548 0.75066 0.44125 0.0
O113 O 0.40767 0.79454 0.53553 0.0
O114 O 0.41795 0.87503 0.57979 0.0
O115 O 0.27076 0.92072 0.5354 0.0
O116 O 0.2907 0.86358 0.46013 0.0
O117 O 0.44318 0.77375 0.39275 0.0
O118 O 0.43016 0.77058 0.48611 0.0
O119 O 0.3071 0.81421 0.41847 0.0
O120 O 0.31543 0.82539 0.32566 0.0
C121 C 0.29752 0.79502 0.36704 0.0
O122 O 0.43271 0.92669 0.46509 0.0
O123 O 0.39983 -0.00425 0.52401 0.0
C124 C 0.47457 0.90517 0.35908 0.0
C125 C 0.43624 -0.02263 0.48775 0.0
Zn126 Zn 0.37164 0.11892 0.62668 0.0
Zn127 Zn 0.24644 0.10224 0.82194 0.0
Zn128 Zn 0.35831 0.12864 0.71906 0.0
C129 C 0.34572 0.13265 0.85781 0.0
C130 C 0.29677 0.00637 0.73976 0.0
O131 O 0.30865 0.18721 0.65568 0.0
O132 O 0.31003 0.14152 0.57173 0.0
C133 C 0.44525 0.20641 0.69028 0.0
O134 O 0.34159 0.13101 0.80364 0.0
O135 O 0.30039 0.12571 0.88662 0.0
O136 O 0.26283 0.02398 0.77927 0.0
O137 O 0.33213 0.04027 0.7142 0.0
O138 O 0.41791 0.19665 0.64419 0.0
O139 O 0.44229 0.16707 0.7289 0.0
O140 O 0.44801 0.09664 0.69332 0.0
O141 O 0.41607 0.04455 0.62201 0.0
C142 C 0.45826 0.0606 0.65209 0.0
O143 O 0.29979 0.20352 0.7171 0.0
O144 O 0.23379 0.17896 0.78266 0.0
C145 C 0.29613 0.18574 0.60118 0.0
C146 C 0.25544 0.21572 0.74863 0.0
Zn147 Zn 0.05395 0.10941 0.86134 0.0
Zn148 Zn 0.09047 0.01621 0.06566 0.0
Zn149 Zn 0.05864 0.10455 0.96294 0.0
C150 C 0.04237 0.12919 0.08217 0.0
C151 C 0.1904 0.06083 -0.00794 0.0
O152 O -0.0158 0.06155 0.91141 0.0
O153 O 0.00683 0.05173 0.81945 0.0
C154 C -0.01027 0.20147 0.94125 0.0
O155 O 0.03686 0.15759 0.03554 0.0
O156 O 0.02658 0.07711 0.0798 0.0
O157 O 0.17378 0.03142 0.0354 0.0
O158 O 0.15383 0.08855 0.96013 0.0
O159 O 0.00135 0.17838 0.89275 0.0
O160 O 0.01438 0.18156 -0.01389 0.0
O161 O 0.13743 0.13793 0.91847 0.0
O162 O 0.1291 0.12675 0.82566 0.0
C163 C 0.14701 0.15711 0.86704 0.0
O164 O 0.01182 0.02544 0.96509 0.0
O165 O 0.0447 0.95639 0.02401 0.0
C166 C 0.96996 0.04696 0.85908 0.0
C167 C 0.00829 0.97476 -0.01225 0.0
Zn168 Zn 0.84836 0.81481 0.61785 0.0
Zn169 Zn 0.74321 0.8551 0.827 0.0
Zn170 Zn 0.84416 0.81061 0.71927 0.0
C171 C 0.83471 0.80574 0.85384 0.0
C172 C 0.80812 0.94422 0.74385 0.0
O173 O 0.80493 0.73852 0.66083 0.0
O174 O 0.79491 0.76674 0.57042 0.0
C175 C 0.93927 0.74414 0.69181 0.0
O176 O 0.81933 0.7956 0.80252 0.0
O177 O 0.79428 0.81349 0.8892 0.0
O178 O 0.77443 0.9301 0.78513 0.0
O179 O 0.83533 0.90571 0.71379 0.0
O180 O 0.91719 0.76019 0.64422 0.0
O181 O 0.91869 0.76408 0.73837 0.0
O182 O 0.89814 0.88271 0.67751 0.0
O183 O 0.87505 0.88875 0.58558 0.0
C184 C 0.90941 0.90135 0.62583 0.0
O185 O 0.76684 0.76628 0.71373 0.0
O186 O 0.70125 0.79487 0.77895 0.0
C187 C 0.79118 0.72692 0.60771 0.0
C188 C 0.71782 0.76166 0.73868 0.0
Zn189 Zn 0.85147 0.01175 0.57214 0.0
Zn190 Zn 0.86435 0.13685 0.37719 0.0
Zn191 Zn 0.87418 0.11874 0.46973 0.0
C192 C 0.80527 0.22046 0.40673 0.0
C193 C 0.95047 0.20882 0.44427 0.0
O194 O 0.94572 0.05878 0.46402 0.0
O195 O 0.92234 -0.01034 0.52785 0.0
C196 C 0.75285 0.05542 0.48922 0.0
O197 O 0.84179 0.21006 0.44728 0.0
O198 O 0.78799 0.17767 0.37797 0.0
O199 O 0.942 0.18233 0.39733 0.0
O200 O 0.91093 0.20425 0.48233 0.0
O201 O 0.77036 0.02409 0.53125 0.0
O202 O 0.78649 0.09075 0.46323 0.0
O203 O 0.89793 0.10039 0.55371 0.0
O204 O 0.88334 0.06511 0.63768 0.0
C205 C 0.88031 0.10861 0.60486 0.0
O206 O 0.93215 0.07273 0.40144 0.0
O207 O 0.88696 0.07988 0.31743 0.0
C208 C 0.95739 0.01205 0.49247 0.0
C209 C 0.93082 0.06417 0.34602 0.0
Zn210 Zn 0.70132 0.09703 0.32699 0.0
Zn211 Zn 0.59618 0.13732 0.11785 0.0
Zn212 Zn 0.60037 0.14153 0.21927 0.0
C213 C 0.53512 0.05079 0.12583 0.0
C214 C 0.50526 0.20799 0.19181 0.0
O215 O 0.6777 0.18585 0.21373 0.0
O216 O 0.74328 0.15726 0.27895 0.0
C217 C 0.63642 0.00791 0.24385 0.0
O218 O 0.54639 0.06942 0.17751 0.0
O219 O 0.56948 0.06338 0.08558 0.0
O220 O 0.52735 0.19194 0.14422 0.0
O221 O 0.52584 0.18806 0.23837 0.0
O222 O 0.67011 0.02203 0.28513 0.0
O223 O 0.60921 0.04642 0.21379 0.0
O224 O 0.6252 0.15653 0.30252 0.0
O225 O 0.65025 0.13864 0.3892 0.0
C226 C 0.60982 0.14639 0.35384 0.0
O227 O 0.6396 0.21361 0.16083 0.0
O228 O 0.64963 0.18539 0.07042 0.0
C229 C 0.72671 0.19047 0.23868 0.0
C230 C 0.65335 0.22521 0.10771 0.0
Zn231 Zn 0.59306 0.94038 0.07214 0.0
Zn232 Zn 0.58018 0.81528 0.87719 0.0
Zn233 Zn 0.57035 0.83339 0.96973 0.0
C234 C 0.63927 0.73167 0.90673 0.0
C235 C 0.49406 0.74331 0.94427 0.0
O236 O 0.49881 0.89336 0.96402 0.0
O237 O 0.52219 0.96248 0.02785 0.0
C238 C 0.69168 0.89671 -0.01078 0.0
O239 O 0.60274 0.74208 0.94728 0.0
O240 O 0.65654 0.77447 0.87797 0.0
O241 O 0.50253 0.76981 0.89733 0.0
O242 O 0.5336 0.74788 0.98233 0.0
O243 O 0.67418 0.92804 0.03125 0.0
O244 O 0.65804 0.86138 0.96323 0.0
O245 O 0.5466 0.85174 0.05371 0.0
O246 O 0.56119 0.88702 0.13768 0.0
C247 C 0.56422 0.84352 0.10486 0.0
O248 O 0.51238 0.8794 0.90144 0.0
O249 O 0.55757 0.87226 0.81743 0.0
C250 C 0.48714 0.94008 -0.00753 0.0
C251 C 0.51371 0.88797 0.84602 0.0
Zn252 Zn 0.84808 0.13735 0.8491 0.0
Zn253 Zn 0.73865 0.09306 0.64272 0.0
Zn254 Zn 0.8442 0.14021 0.74783 0.0
C255 C 0.82946 0.14291 0.61416 0.0
C256 C 0.80736 0.00601 0.72556 0.0
O257 O 0.80491 0.2131 0.80478 0.0
O258 O 0.79366 0.18573 0.89524 0.0
C259 C 0.93923 0.20695 0.77481 0.0
O260 O 0.81497 0.1531 0.66574 0.0
O261 O 0.78858 0.13414 0.5796 0.0
O262 O 0.77217 0.01955 0.68534 0.0
O263 O 0.83555 0.04488 0.75419 0.0
O264 O 0.91695 0.19163 0.82254 0.0
O265 O 0.91888 0.18631 0.72848 0.0
O266 O 0.89657 0.06716 0.79025 0.0
O267 O 0.87433 0.06374 0.8825 0.0
C268 C 0.9084 0.05002 0.84235 0.0
O269 O 0.76612 0.18457 0.75025 0.0
O270 O 0.69673 0.15366 0.69034 0.0
C271 C 0.79056 0.22526 0.85758 0.0
C272 C 0.7158 0.1886 0.72796 0.0
Zn273 Zn 0.58044 0.13641 0.58964 0.0
Zn274 Zn 0.591 0.01425 0.39263 0.0
Zn275 Zn 0.56948 0.11821 0.49713 0.0
C276 C 0.55958 0.11116 0.36245 0.0
C277 C 0.6909 0.05583 0.47436 0.0
O278 O 0.51245 0.07238 0.56633 0.0
O279 O 0.558 0.08019 0.6501 0.0
C280 C 0.49348 0.20833 0.52253 0.0
O281 O 0.54252 0.10157 0.41355 0.0
O282 O 0.55712 0.06842 0.32861 0.0
O283 O 0.67309 0.02565 0.43168 0.0
O284 O 0.65731 0.09016 0.50182 0.0
O285 O 0.50261 0.18212 0.56956 0.0
O286 O 0.53244 0.20342 0.48394 0.0
O287 O 0.60232 0.20923 0.51974 0.0
O288 O 0.65681 0.1771 0.58879 0.0
C289 C 0.63907 0.21978 0.56003 0.0
O290 O 0.49901 0.05768 0.50444 0.0
O291 O 0.52182 -0.0098 0.43864 0.0
C292 C 0.51413 0.06414 0.6218 0.0
C293 C 0.48749 0.01122 0.4756 0.0
Zn294 Zn 0.59646 0.81479 0.3491 0.0
Zn295 Zn 0.70588 0.85907 0.14271 0.0
Zn296 Zn 0.60033 0.81192 0.24783 0.0
C297 C 0.61507 0.80922 0.11416 0.0
C298 C 0.63717 0.94612 0.22556 0.0
O299 O 0.63962 0.73903 0.30478 0.0
O300 O 0.65087 0.7664 0.39524 0.0
C301 C 0.5053 0.74518 0.27481 0.0
O302 O 0.62956 0.79903 0.16574 0.0
O303 O 0.65595 0.81799 0.0796 0.0
O304 O 0.67237 0.93258 0.18534 0.0
O305 O 0.60898 0.90725 0.25419 0.0
O306 O 0.52758 0.7605 0.32254 0.0
O307 O 0.52565 0.76582 0.22848 0.0
O308 O 0.54796 0.88497 0.29025 0.0
O309 O 0.5702 0.88839 0.3825 0.0
C310 C 0.53614 0.90211 0.34235 0.0
O311 O 0.67842 0.76756 0.25026 0.0
O312 O 0.7478 0.79847 0.19034 0.0
C313 C 0.65397 0.72688 0.35758 0.0
C314 C 0.72873 0.76353 0.22796 0.0
Zn315 Zn 0.86409 0.81573 0.08964 0.0
Zn316 Zn 0.85353 0.93789 0.89263 0.0
Zn317 Zn 0.87505 0.83393 -0.00287 0.0
C318 C 0.88495 0.84098 0.86245 0.0
C319 C 0.75363 0.89631 0.97436 0.0
O320 O 0.93208 0.87976 0.06633 0.0
O321 O 0.88653 0.87194 0.1501 0.0
C322 C 0.95106 0.7438 0.02253 0.0
O323 O 0.90202 0.85057 0.91355 0.0
O324 O 0.88742 0.88371 0.82861 0.0
O325 O 0.77144 0.92648 0.93168 0.0
O326 O 0.78722 0.86198 0.00182 0.0
O327 O 0.94193 0.77001 0.06956 0.0
O328 O 0.91209 0.74871 -0.01606 0.0
O329 O 0.84221 0.7429 0.01974 0.0
O330 O 0.78772 0.77504 0.08879 0.0
C331 C 0.80547 0.73236 0.06003 0.0
O332 O 0.94552 0.89445 0.00444 0.0
O333 O 0.92272 0.96194 0.93864 0.0
C334 C 0.9304 0.888 0.1218 0.0
C335 C 0.95704 0.94091 0.9756 0.0
Zn336 Zn 0.68634 0.60643 0.64292 0.0
Zn337 Zn 0.56167 0.61041 0.83971 0.0
Zn338 Zn 0.5816 0.6257 0.74742 0.0
C339 C 0.48012 0.55295 0.80484 0.0
C340 C 0.49 0.69966 0.77728 0.0
O341 O 0.63977 0.6971 0.75612 0.0
O342 O 0.70627 0.6764 0.68893 0.0
C343 C 0.64736 0.50659 0.72652 0.0
O344 O 0.492 0.59093 0.76591 0.0
O345 O 0.52143 0.53348 0.83415 0.0
O346 O 0.51424 0.68775 0.82461 0.0
O347 O 0.49682 0.66289 0.73656 0.0
O348 O 0.67698 0.52462 0.68367 0.0
O349 O 0.61151 0.53931 0.75277 0.0
O350 O 0.5978 0.65254 0.6643 0.0
O351 O 0.63166 0.64002 0.57955 0.0
C352 C 0.58952 0.63457 0.61331 0.0
O353 O 0.62522 0.68107 0.81862 0.0
O354 O 0.61778 0.63151 0.90047 0.0
C355 C 0.68503 0.70996 0.72656 0.0
C356 C 0.6336 0.67691 0.87397 0.0
Zn357 Zn 0.60766 0.45995 0.8896 0.0
Zn358 Zn 0.56229 0.34604 0.09228 0.0
Zn359 Zn 0.55901 0.34744 -0.0089 0.0
C360 C 0.64958 0.28647 0.08798 0.0
C361 C 0.49497 0.25033 0.02216 0.0
O362 O 0.51586 0.42909 -0.01012 0.0
O363 O 0.5491 0.50371 0.93783 0.0
C364 C 0.69161 0.38706 0.97218 0.0
O365 O 0.63229 0.29608 0.03544 0.0
O366 O 0.63611 0.32268 0.12663 0.0
O367 O 0.51169 0.27369 0.06883 0.0
O368 O 0.51263 0.2712 0.97477 0.0
O369 O 0.67849 0.42446 0.93364 0.0
O370 O 0.6531 0.35649 -0.00152 0.0
O371 O 0.5467 0.38391 0.91255 0.0
O372 O 0.56668 0.40956 0.82656 0.0
C373 C 0.55644 0.36883 0.86118 0.0
O374 O 0.48761 0.38769 0.04363 0.0
O375 O 0.51128 0.40166 0.13453 0.0
C376 C 0.51268 0.48174 0.97213 0.0
C377 C 0.47378 0.40403 0.09506 0.0
Zn378 Zn 0.88286 0.34172 0.33971 0.0
Zn379 Zn 0.75819 0.34571 0.14293 0.0
Zn380 Zn 0.86293 0.32643 0.24742 0.0
C381 C 0.85501 0.31756 0.11331 0.0
C382 C 0.79718 0.44554 0.22652 0.0
O383 O 0.81931 0.27106 0.31862 0.0
O384 O 0.82676 0.32062 0.40047 0.0
C385 C 0.95454 0.25248 0.27728 0.0
O386 O 0.84673 0.2996 0.1643 0.0
O387 O 0.81287 0.31211 0.07956 0.0
O388 O 0.76756 0.42751 0.18367 0.0
O389 O 0.83302 0.41282 0.25277 0.0
O390 O 0.93029 0.26438 0.32461 0.0
O391 O 0.94771 0.28924 0.23656 0.0
O392 O 0.95253 0.3612 0.26591 0.0
O393 O 0.9231 0.41865 0.33415 0.0
C394 C 0.96441 0.39918 0.30484 0.0
O395 O 0.80476 0.25503 0.25612 0.0
O396 O 0.73826 0.27573 0.18893 0.0
C397 C 0.81093 0.27522 0.37397 0.0
C398 C 0.75951 0.24217 0.22656 0.0
Zn399 Zn 0.83687 0.49219 0.3896 0.0
Zn400 Zn 0.88224 0.60609 0.59228 0.0
Zn401 Zn 0.88553 0.60469 0.4911 0.0
C402 C 0.79495 0.66567 0.58798 0.0
C403 C 0.94956 0.7018 0.52216 0.0
O404 O 0.92867 0.52305 0.48988 0.0
O405 O 0.89543 0.44842 0.43783 0.0
C406 C 0.75292 0.56507 0.47218 0.0
O407 O 0.81224 0.65605 0.53544 0.0
O408 O 0.80842 0.62946 0.62663 0.0
O409 O 0.93284 0.67845 0.56883 0.0
O410 O 0.9319 0.68093 0.47477 0.0
O411 O 0.76604 0.52767 0.43364 0.0
O412 O 0.79143 0.59565 0.49848 0.0
O413 O 0.89783 0.56823 0.41255 0.0
O414 O 0.87785 0.54258 0.32656 0.0
C415 C 0.88809 0.5833 0.36118 0.0
O416 O 0.95692 0.56445 0.54363 0.0
O417 O 0.93325 0.55048 0.63453 0.0
C418 C 0.93185 0.4704 0.47213 0.0
C419 C 0.97075 0.5481 0.59506 0.0
Zn420 Zn 0.68494 0.344 0.8237 0.0
Zn421 Zn 0.56102 0.34119 0.62672 0.0
Zn422 Zn 0.58077 0.32598 0.71892 0.0
C423 C 0.47941 0.39905 0.6614 0.0
C424 C 0.48951 0.25219 0.68977 0.0
O425 O 0.63837 0.254 0.7109 0.0
O426 O 0.70556 0.27429 0.77746 0.0
C427 C 0.64708 0.44449 0.74048 0.0
O428 O 0.49124 0.36106 0.70036 0.0
O429 O 0.52071 0.41822 0.63193 0.0
O430 O 0.51389 0.26385 0.64246 0.0
O431 O 0.49596 0.28928 0.73024 0.0
O432 O 0.6763 0.42612 0.78348 0.0
O433 O 0.61124 0.41212 0.71391 0.0
O434 O 0.59654 0.29784 0.80169 0.0
O435 O 0.62984 0.31045 0.88668 0.0
C436 C 0.58793 0.31583 0.85261 0.0
O437 O 0.62461 0.27048 0.64795 0.0
O438 O 0.61725 0.31991 0.56605 0.0
C439 C 0.68379 0.24084 0.74008 0.0
C440 C 0.63317 0.27457 0.59266 0.0
Zn441 Zn 0.88171 0.34677 0.87334 0.0
Zn442 Zn 0.83527 0.46168 0.07495 0.0
Zn443 Zn 0.88464 0.34796 0.97443 0.0
C444 C 0.88633 0.37051 0.10431 0.0
C445 C 0.75205 0.38734 -0.0076 0.0
O446 O 0.95608 0.38823 0.92244 0.0
O447 O 0.93247 0.40293 0.83167 0.0
C448 C 0.94906 0.25117 0.94388 0.0
O449 O 0.89612 0.38507 0.0528 0.0
O450 O 0.87579 0.41153 0.13854 0.0
O451 O 0.76499 0.42531 0.03045 0.0
O452 O 0.79072 0.35654 0.96649 0.0
O453 O 0.93268 0.27457 0.89707 0.0
O454 O 0.93087 0.27189 -0.00886 0.0
O455 O 0.81173 0.29648 0.92954 0.0
O456 O 0.80868 0.32248 0.83811 0.0
C457 C 0.79483 0.28662 0.87691 0.0
O458 O 0.92793 0.42964 0.97711 0.0
O459 O 0.8947 0.50534 0.02769 0.0
C460 C 0.96998 0.40484 0.87115 0.0
C461 C 0.93162 0.48239 -0.00554 0.0
Zn462 Zn 0.88351 0.61094 0.12672 0.0
Zn463 Zn 0.75959 0.60814 0.3237 0.0
Zn464 Zn 0.86376 0.62616 0.21892 0.0
C465 C 0.8566 0.6363 0.35261 0.0
C466 C 0.79745 0.50765 0.24048 0.0
O467 O 0.81992 0.68165 0.14795 0.0
O468 O 0.82729 0.63222 0.06605 0.0
C469 C 0.95503 0.69994 0.18977 0.0
O470 O 0.848 0.65429 0.30169 0.0
O471 O 0.81469 0.64168 0.38668 0.0
O472 O 0.76823 0.52602 0.28348 0.0
O473 O 0.83329 0.54001 0.21391 0.0
O474 O 0.93065 0.68829 0.14246 0.0
O475 O 0.94858 0.66285 0.23024 0.0
O476 O 0.95329 0.59108 0.20036 0.0
O477 O 0.92382 0.53391 0.13193 0.0
C478 C 0.96512 0.55308 0.1614 0.0
O479 O 0.80616 0.69813 0.2109 0.0
O480 O 0.73898 0.67784 0.27746 0.0
C481 C 0.81136 0.67756 0.09266 0.0
C482 C 0.76074 0.71129 0.24008 0.0
Zn483 Zn 0.60926 0.49046 0.57495 0.0
Zn484 Zn 0.56282 0.60537 0.37334 0.0
Zn485 Zn 0.55989 0.60418 0.47443 0.0
C486 C 0.6497 0.66551 0.37691 0.0
C487 C 0.49547 0.70096 0.44388 0.0
O488 O 0.51661 0.5225 0.47711 0.0
O489 O 0.54983 0.4468 0.52769 0.0
C490 C 0.69248 0.5648 0.4924 0.0
O491 O 0.6328 0.65565 0.42954 0.0
O492 O 0.63585 0.62965 0.33811 0.0
O493 O 0.51185 0.67756 0.39707 0.0
O494 O 0.51367 0.68025 0.49114 0.0
O495 O 0.67954 0.52683 0.53045 0.0
O496 O 0.65381 0.5956 0.46649 0.0
O497 O 0.54841 0.56706 0.5528 0.0
O498 O 0.56874 0.54061 0.63854 0.0
C499 C 0.5582 0.58162 0.60431 0.0
O500 O 0.48845 0.5639 0.42244 0.0
O501 O 0.51207 0.5492 0.33167 0.0
C502 C 0.51291 0.46974 0.49446 0.0
C503 C 0.47455 0.5473 0.37115 0.0
Zn504 Zn 0.36253 0.30875 0.10946 0.0
Zn505 Zn 0.27132 0.34356 0.30376 0.0
Zn506 Zn 0.35801 0.31423 0.21079 0.0
C507 C 0.37342 0.28105 0.32892 0.0
C508 C 0.32603 0.44519 0.24015 0.0
O509 O 0.31522 0.23937 0.16199 0.0
O510 O 0.31198 0.25396 0.06766 0.0
C511 C 0.45567 0.24849 0.19064 0.0
O512 O 0.40601 0.29274 0.28652 0.0
O513 O 0.32196 0.27079 0.31621 0.0
O514 O 0.29849 0.428 0.28436 0.0
O515 O 0.34768 0.40834 0.20457 0.0
O516 O 0.43313 0.26142 0.14245 0.0
O517 O 0.43392 0.26991 0.23614 0.0
O518 O 0.40051 0.38831 0.16346 0.0
O519 O 0.37957 0.38335 0.07159 0.0
C520 C 0.4122 0.40215 0.11081 0.0
O521 O 0.27528 0.26974 0.20967 0.0
O522 O 0.2047 0.309 0.26174 0.0
C523 C 0.30337 0.22109 0.11034 0.0
C524 C 0.22304 0.26958 0.22844 0.0
Zn525 Zn 0.35462 0.53399 0.02542 0.0
Zn526 Zn 0.35488 0.62791 0.87231 0.0
Zn527 Zn 0.37205 0.6144 0.96349 0.0
C528 C 0.29272 0.7091 0.89565 0.0
C529 C 0.4473 0.70004 0.94626 0.0
O530 O 0.44254 0.55368 0.94922 0.0
O531 O 0.42736 0.49433 0.02231 0.0
C532 C 0.25408 0.54639 -0.01599 0.0
O533 O 0.32993 0.69935 0.93527 0.0
O534 O 0.27727 0.66656 0.86546 0.0
O535 O 0.42924 0.67957 0.89855 0.0
O536 O 0.42013 0.68677 -0.00766 0.0
O537 O 0.28062 0.50089 -0.00123 0.0
O538 O 0.28188 0.5927 0.97225 0.0
O539 O 0.39956 0.65267 0.04178 0.0
O540 O 0.3511 0.58721 0.09087 0.0
C541 C 0.37873 0.6342 0.08912 0.0
O542 O 0.42823 0.56823 0.89205 0.0
O543 O 0.38165 0.57747 0.80891 0.0
C544 C 0.46003 0.51329 -0.01641 0.0
C545 C 0.42552 0.56042 0.8364 0.0
Zn546 Zn 0.082 0.64338 0.60946 0.0
Zn547 Zn 0.17322 0.60857 0.80376 0.0
Zn548 Zn 0.08652 0.63791 0.71079 0.0
C549 C 0.07111 0.67108 0.82892 0.0
C550 C 0.11851 0.50695 0.74015 0.0
O551 O 0.12931 0.71276 0.66199 0.0
O552 O 0.13256 0.69817 0.56766 0.0
C553 C -0.01114 0.70365 0.69064 0.0
O554 O 0.03852 0.65939 0.78652 0.0
O555 O 0.12257 0.68134 0.81621 0.0
O556 O 0.14604 0.52414 0.78436 0.0
O557 O 0.09685 0.54379 0.70457 0.0
O558 O 0.0114 0.69071 0.64245 0.0
O559 O 0.01061 0.68222 0.73614 0.0
O560 O 0.04402 0.56382 0.66346 0.0
O561 O 0.06496 0.56878 0.57159 0.0
C562 C 0.03233 0.54998 0.61081 0.0
O563 O 0.16925 0.68239 0.70967 0.0
O564 O 0.23983 0.64313 0.76174 0.0
C565 C 0.14116 0.73104 0.61034 0.0
C566 C 0.22149 0.68256 0.72844 0.0
Zn567 Zn 0.08965 0.32422 0.37231 0.0
Zn568 Zn 0.08992 0.41815 0.52542 0.0
Zn569 Zn 0.07248 0.33773 0.46349 0.0
C570 C 0.06581 0.31794 0.58912 0.0
C571 C 0.19045 0.40575 0.48401 0.0
O572 O 0.0163 0.38391 0.39205 0.0
O573 O 0.06288 0.37466 0.30891 0.0
C574 C -0.00277 0.25209 0.44626 0.0
O575 O 0.04497 0.29947 0.54178 0.0
O576 O 0.09343 0.36492 0.59087 0.0
O577 O 0.16391 0.45124 0.49877 0.0
O578 O 0.16266 0.35943 0.47225 0.0
O579 O 0.01529 0.27256 0.39855 0.0
O580 O 0.0244 0.26537 0.49234 0.0
O581 O 0.1146 0.25278 0.43527 0.0
O582 O 0.16726 0.28557 0.36546 0.0
C583 C 0.15181 0.24303 0.39565 0.0
O584 O 0.002 0.39846 0.44922 0.0
O585 O 0.01717 0.4578 0.52231 0.0
C586 C 0.01901 0.39172 0.3364 0.0
C587 C -0.01549 0.43884 0.48359 0.0
Zn588 Zn 0.27066 0.60978 0.16338 0.0
Zn589 Zn 0.36289 0.64402 0.35689 0.0
Zn590 Zn 0.3583 0.63919 0.25576 0.0
C591 C 0.41304 0.55059 0.35529 0.0
C592 C 0.45576 0.70472 0.27562 0.0
O593 O 0.27551 0.68363 0.25752 0.0
O594 O 0.20452 0.64432 0.20615 0.0
C595 C 0.32596 0.50822 0.22665 0.0
O596 O 0.40166 0.56513 0.30275 0.0
O597 O 0.38053 0.56944 0.39462 0.0
O598 O 0.43332 0.69135 0.32372 0.0
O599 O 0.43393 0.68372 0.22998 0.0
O600 O 0.298 0.52541 0.1827 0.0
O601 O 0.34806 0.54504 0.26191 0.0
O602 O 0.40576 0.6609 0.17978 0.0
O603 O 0.32124 0.68239 0.15072 0.0
C604 C 0.37265 0.67218 0.13765 0.0
O605 O 0.31565 0.71407 0.30507 0.0
O606 O 0.31273 0.69886 0.39932 0.0
C607 C 0.2231 0.68376 0.23923 0.0
C608 C 0.304 0.73205 0.35689 0.0
Zn609 Zn 0.09024 0.53322 0.94175 0.0
Zn610 Zn 0.09013 0.62821 0.09473 0.0
Zn611 Zn 0.07336 0.61462 0.00358 0.0
C612 C 0.15176 0.70979 0.07174 0.0
C613 C -0.00206 0.70053 0.02082 0.0
O614 O 0.00192 0.55437 0.01694 0.0
O615 O 0.01833 0.49255 0.94611 0.0
C616 C 0.19149 0.54629 0.98186 0.0
O617 O 0.11472 0.69995 0.03199 0.0
O618 O 0.16735 0.66729 0.10198 0.0
O619 O 0.01549 0.67971 0.06859 0.0
O620 O 0.02577 0.68763 0.97499 0.0
O621 O 0.16525 0.50089 0.96653 0.0
O622 O 0.16341 0.59228 -0.00551 0.0
O623 O 0.04601 0.65307 0.92543 0.0
O624 O 0.09138 0.58578 0.8756 0.0
C625 C 0.06487 0.63349 0.87769 0.0
O626 O 0.01716 0.56837 0.07444 0.0
O627 O 0.06363 0.57709 0.15766 0.0
C628 C -0.01506 0.51299 -0.0165 0.0
C629 C 0.01981 0.56025 0.13001 0.0
Zn630 Zn 0.08164 0.30811 0.85689 0.0
Zn631 Zn 0.17387 0.34235 0.66338 0.0
Zn632 Zn 0.08623 0.31294 0.75576 0.0
C633 C 0.07188 0.27995 0.63765 0.0
C634 C 0.11857 0.44391 0.72665 0.0
O635 O 0.12888 0.23806 0.80507 0.0
O636 O 0.1318 0.25327 0.89932 0.0
C637 C -0.01122 0.24741 0.77562 0.0
O638 O 0.03877 0.29124 0.67978 0.0
O639 O 0.1233 0.26975 0.65072 0.0
O640 O 0.14654 0.42672 0.6827 0.0
O641 O 0.09647 0.40709 0.76191 0.0
O642 O 0.01121 0.26079 0.82372 0.0
O643 O 0.0106 0.26841 0.72998 0.0
O644 O 0.04287 0.387 0.80275 0.0
O645 O 0.06401 0.38269 0.89462 0.0
C646 C 0.03149 0.40155 0.85529 0.0
O647 O 0.16903 0.2685 0.75752 0.0
O648 O 0.24001 0.30781 0.70615 0.0
C649 C 0.14053 0.22008 0.85689 0.0
C650 C 0.22143 0.26837 0.73923 0.0
Zn651 Zn 0.35441 0.32393 0.59473 0.0
Zn652 Zn 0.35429 0.41891 0.44175 0.0
Zn653 Zn 0.37117 0.33751 0.50358 0.0
C654 C 0.37966 0.31865 0.37769 0.0
C655 C 0.25304 0.40584 0.48187 0.0
O656 O 0.42737 0.38376 0.57444 0.0
O657 O 0.38091 0.37504 0.65766 0.0
C658 C 0.44659 0.2516 0.52082 0.0
O659 O 0.39852 0.29907 0.42543 0.0
O660 O 0.35315 0.36635 0.3756 0.0
O661 O 0.27929 0.45124 0.46653 0.0
O662 O 0.28113 0.35985 0.49449 0.0
O663 O 0.42904 0.27242 0.56859 0.0
O664 O 0.41876 0.26451 0.47499 0.0
O665 O 0.32981 0.25218 0.53199 0.0
O666 O 0.27718 0.28484 0.60198 0.0
C667 C 0.29277 0.24234 0.57174 0.0
O668 O 0.44262 0.39777 0.51694 0.0
O669 O 0.4262 0.45959 0.44611 0.0
C670 C 0.42472 0.39188 0.63001 0.0
C671 C 0.45959 0.43915 0.4835 0.0
loop_
_geom_bond_atom_site_label_1
_geom_bond_atom_site_label_2
_geom_bond_distance
_geom_bond_site_symmetry_2
_ccdc_geom_bond_type
Zn0 O6 1.920 . S
Zn0 O12 1.898 . S
Zn0 O15 1.905 . S
Zn1 O9 1.905 1_455 S
Zn1 O10 1.898 1_455 S
Zn1 O18 1.920 . S
Zn2 O5 2.080 . S
Zn2 O8 2.114 . S
Zn2 O11 2.120 . S
Zn2 O13 2.120 . S
Zn2 O14 2.114 . S
Zn2 O17 2.080 . S
C3 O8 1.166 . S
C3 O9 1.182 1_455 S
C4 O10 1.167 1_455 S
C4 O11 1.299 . S
O5 Zn2 2.080 . S
O5 C19 1.305 . S
O6 Zn0 1.920 . S
O6 C19 1.234 . S
C7 O12 1.167 . S
C7 O13 1.299 . S
O8 Zn2 2.114 . S
O8 C3 1.166 . S
O9 Zn1 1.905 1_655 S
O9 C3 1.182 1_655 S
O10 Zn1 1.898 1_655 S
O10 C4 1.167 1_655 S
O11 Zn2 2.120 . S
O11 C4 1.299 . S
O12 Zn0 1.898 . S
O12 C7 1.167 . S
O13 Zn2 2.120 . S
O13 C7 1.299 . S
O14 Zn2 2.114 . S
O14 C16 1.166 . S
O15 Zn0 1.905 . S
O15 C16 1.182 . S
C16 O14 1.166 . S
C16 O15 1.182 . S
O17 Zn2 2.080 . S
O17 C20 1.305 . S
O18 Zn1 1.920 . S
O18 C20 1.234 . S
C19 O5 1.305 . S
C19 O6 1.234 . S
C20 O17 1.305 . S
C20 O18 1.234 . S
Zn21 O27 1.920 1_565 S
Zn21 O33 1.898 . S
Zn21 O36 1.905 . S
Zn22 O30 1.905 . S
Zn22 O31 1.898 1_455 S
Zn22 O39 1.920 1_455 S
Zn23 O26 2.080 . S
Zn23 O29 2.114 . S
Zn23 O32 2.120 . S
Zn23 O34 2.120 . S
Zn23 O35 2.114 . S
Zn23 O38 2.080 . S
C24 O29 1.166 . S
C24 O30 1.182 . S
C25 O31 1.167 . S
C25 O32 1.299 1_655 S
O26 Zn23 2.080 . S
O26 C40 1.305 . S
O27 Zn21 1.920 1_545 S
O27 C40 1.234 1_545 S
C28 O33 1.167 . S
C28 O34 1.299 . S
O29 Zn23 2.114 . S
O29 C24 1.166 . S
O30 Zn22 1.905 . S
O30 C24 1.182 . S
O31 Zn22 1.898 1_655 S
O31 C25 1.167 . S
O32 Zn23 2.120 . S
O32 C25 1.299 1_455 S
O33 Zn21 1.898 . S
O33 C28 1.167 . S
O34 Zn23 2.120 . S
O34 C28 1.299 . S
O35 Zn23 2.114 . S
O35 C37 1.166 . S
O36 Zn21 1.905 . S
O36 C37 1.182 . S
C37 O35 1.166 . S
C37 O36 1.182 . S
O38 Zn23 2.080 . S
O38 C41 1.305 . S
O39 Zn22 1.920 1_655 S
O39 C41 1.234 1_655 S
C40 O26 1.305 . S
C40 O27 1.234 1_565 S
C41 O38 1.305 . S
C41 O39 1.234 1_455 S
Zn42 O48 1.920 . S
Zn42 O54 1.898 . S
Zn42 O57 1.905 . S
Zn43 O51 1.905 . S
Zn43 O52 1.898 . S
Zn43 O60 1.920 . S
Zn44 O47 2.080 . S
Zn44 O50 2.114 . S
Zn44 O53 2.120 . S
Zn44 O55 2.120 . S
Zn44 O56 2.114 . S
Zn44 O59 2.080 . S
C45 O50 1.166 . S
C45 O51 1.182 . S
C46 O52 1.167 . S
C46 O53 1.299 . S
O47 Zn44 2.080 . S
O47 C61 1.305 . S
O48 Zn42 1.920 . S
O48 C61 1.234 . S
C49 O54 1.167 . S
C49 O55 1.299 . S
O50 Zn44 2.114 . S
O50 C45 1.166 . S
O51 Zn43 1.905 . S
O51 C45 1.182 . S
O52 Zn43 1.898 . S
O52 C46 1.167 . S
O53 Zn44 2.120 . S
O53 C46 1.299 . S
O54 Zn42 1.898 . S
O54 C49 1.167 . S
O55 Zn44 2.120 . S
O55 C49 1.299 . S
O56 Zn44 2.114 . S
O56 C58 1.166 . S
O57 Zn42 1.905 . S
O57 C58 1.182 . S
C58 O56 1.166 . S
C58 O57 1.182 . S
O59 Zn44 2.080 . S
O59 C62 1.305 . S
O60 Zn43 1.920 . S
O60 C62 1.234 . S
C61 O47 1.305 . S
C61 O48 1.234 . S
C62 O59 1.305 . S
C62 O60 1.234 . S
Zn63 O69 1.920 1_545 S
Zn63 O75 1.898 . S
Zn63 O78 1.905 . S
Zn64 O72 1.905 . S
Zn64 O73 1.898 . S
Zn64 O81 1.920 . S
Zn65 O68 2.080 1_554 S
Zn65 O71 2.114 . S
Zn65 O74 2.120 . S
Zn65 O76 2.120 . S
Zn65 O77 2.114 1_554 S
Zn65 O80 2.080 . S
C66 O71 1.166 . S
C66 O72 1.182 . S
C67 O73 1.167 . S
C67 O74 1.299 . S
O68 Zn65 2.080 1_556 S
O68 C82 1.305 . S
O69 Zn63 1.920 1_565 S
O69 C82 1.234 1_565 S
C70 O75 1.167 1_554 S
C70 O76 1.299 . S
O71 Zn65 2.114 . S
O71 C66 1.166 . S
O72 Zn64 1.905 . S
O72 C66 1.182 . S
O73 Zn64 1.898 . S
O73 C67 1.167 . S
O74 Zn65 2.120 . S
O74 C67 1.299 . S
O75 Zn63 1.898 . S
O75 C70 1.167 1_556 S
O76 Zn65 2.120 . S
O76 C70 1.299 . S
O77 Zn65 2.114 1_556 S
O77 C79 1.166 . S
O78 Zn63 1.905 . S
O78 C79 1.182 . S
C79 O77 1.166 . S
C79 O78 1.182 . S
O80 Zn65 2.080 . S
O80 C83 1.305 . S
O81 Zn64 1.920 . S
O81 C83 1.234 . S
C82 O68 1.305 . S
C82 O69 1.234 1_545 S
C83 O80 1.305 . S
C83 O81 1.234 . S
Zn84 O90 1.920 . S
Zn84 O96 1.898 1_455 S
Zn84 O99 1.905 1_455 S
Zn85 O93 1.905 . S
Zn85 O94 1.898 . S
Zn85 O102 1.920 . S
Zn86 O89 2.080 . S
Zn86 O92 2.114 . S
Zn86 O95 2.120 . S
Zn86 O97 2.120 . S
Zn86 O98 2.114 . S
Zn86 O101 2.080 . S
C87 O92 1.166 . S
C87 O93 1.182 . S
C88 O94 1.167 . S
C88 O95 1.299 . S
O89 Zn86 2.080 . S
O89 C103 1.305 . S
O90 Zn84 1.920 . S
O90 C103 1.234 . S
C91 O96 1.167 1_455 S
C91 O97 1.299 . S
O92 Zn86 2.114 . S
O92 C87 1.166 . S
O93 Zn85 1.905 . S
O93 C87 1.182 . S
O94 Zn85 1.898 . S
O94 C88 1.167 . S
O95 Zn86 2.120 . S
O95 C88 1.299 . S
O96 Zn84 1.898 1_655 S
O96 C91 1.167 1_655 S
O97 Zn86 2.120 . S
O97 C91 1.299 . S
O98 Zn86 2.114 . S
O98 C100 1.166 . S
O99 Zn84 1.905 1_655 S
O99 C100 1.182 1_655 S
C100 O98 1.166 . S
C100 O99 1.182 1_455 S
O101 Zn86 2.080 . S
O101 C104 1.305 . S
O102 Zn85 1.920 . S
O102 C104 1.234 . S
C103 O89 1.305 . S
C103 O90 1.234 . S
C104 O101 1.305 . S
C104 O102 1.234 . S
Zn105 O111 1.920 . S
Zn105 O117 1.898 . S
Zn105 O120 1.905 . S
Zn106 O114 1.905 . S
Zn106 O115 1.898 . S
Zn106 O123 1.920 1_565 S
Zn107 O110 2.080 . S
Zn107 O113 2.114 . S
Zn107 O116 2.120 . S
Zn107 O118 2.120 . S
Zn107 O119 2.114 . S
Zn107 O122 2.080 . S
C108 O113 1.166 . S
C108 O114 1.182 . S
C109 O115 1.167 . S
C109 O116 1.299 . S
O110 Zn107 2.080 . S
O110 C124 1.305 . S
O111 Zn105 1.920 . S
O111 C124 1.234 . S
C112 O117 1.167 . S
C112 O118 1.299 . S
O113 Zn107 2.114 . S
O113 C108 1.166 . S
O114 Zn106 1.905 . S
O114 C108 1.182 . S
O115 Zn106 1.898 . S
O115 C109 1.167 . S
O116 Zn107 2.120 . S
O116 C109 1.299 . S
O117 Zn105 1.898 . S
O117 C112 1.167 . S
O118 Zn107 2.120 . S
O118 C112 1.299 . S
O119 Zn107 2.114 . S
O119 C121 1.166 . S
O120 Zn105 1.905 . S
O120 C121 1.182 . S
C121 O119 1.166 . S
C121 O120 1.182 . S
O122 Zn107 2.080 . S
O122 C125 1.305 . S
O123 Zn106 1.920 1_545 S
O123 C125 1.234 1_545 S
C124 O110 1.305 . S
C124 O111 1.234 . S
C125 O122 1.305 . S
C125 O123 1.234 1_565 S
Zn126 O132 1.920 . S
Zn126 O138 1.898 . S
Zn126 O141 1.905 . S
Zn127 O135 1.905 . S
Zn127 O136 1.898 . S
Zn127 O144 1.920 . S
Zn128 O131 2.080 . S
Zn128 O134 2.114 . S
Zn128 O137 2.120 . S
Zn128 O139 2.120 . S
Zn128 O140 2.114 . S
Zn128 O143 2.080 . S
C129 O134 1.166 . S
C129 O135 1.182 . S
C130 O136 1.167 . S
C130 O137 1.299 . S
O131 Zn128 2.080 . S
O131 C145 1.305 . S
O132 Zn126 1.920 . S
O132 C145 1.234 . S
C133 O138 1.167 . S
C133 O139 1.299 . S
O134 Zn128 2.114 . S
O134 C129 1.166 . S
O135 Zn127 1.905 . S
O135 C129 1.182 . S
O136 Zn127 1.898 . S
O136 C130 1.167 . S
O137 Zn128 2.120 . S
O137 C130 1.299 . S
O138 Zn126 1.898 . S
O138 C133 1.167 . S
O139 Zn128 2.120 . S
O139 C133 1.299 . S
O140 Zn128 2.114 . S
O140 C142 1.166 . S
O141 Zn126 1.905 . S
O141 C142 1.182 . S
C142 O140 1.166 . S
C142 O141 1.182 . S
O143 Zn128 2.080 . S
O143 C146 1.305 . S
O144 Zn127 1.920 . S
O144 C146 1.234 . S
C145 O131 1.305 . S
C145 O132 1.234 . S
C146 O143 1.305 . S
C146 O144 1.234 . S
Zn147 O153 1.920 1_455 S
Zn147 O159 1.898 1_455 S
Zn147 O162 1.905 . S
Zn148 O156 1.905 . S
Zn148 O157 1.898 . S
Zn148 O165 1.920 1_545 S
Zn149 O152 2.080 . S
Zn149 O155 2.114 1_556 S
Zn149 O158 2.120 . S
Zn149 O160 2.120 . S
Zn149 O161 2.114 . S
Zn149 O164 2.080 1_556 S
C150 O155 1.166 . S
C150 O156 1.182 . S
C151 O157 1.167 1_556 S
C151 O158 1.299 . S
O152 Zn149 2.080 . S
O152 C166 1.305 . S
O153 Zn147 1.920 1_655 S
O153 C166 1.234 1_655 S
C154 O159 1.167 . S
C154 O160 1.299 1_655 S
O155 Zn149 2.114 1_554 S
O155 C150 1.166 . S
O156 Zn148 1.905 . S
O156 C150 1.182 . S
O157 Zn148 1.898 . S
O157 C151 1.167 1_554 S
O158 Zn149 2.120 . S
O158 C151 1.299 . S
O159 Zn147 1.898 1_655 S
O159 C154 1.167 . S
O160 Zn149 2.120 . S
O160 C154 1.299 1_455 S
O161 Zn149 2.114 . S
O161 C163 1.166 . S
O162 Zn147 1.905 . S
O162 C163 1.182 . S
C163 O161 1.166 . S
C163 O162 1.182 . S
O164 Zn149 2.080 1_554 S
O164 C167 1.305 . S
O165 Zn148 1.920 1_565 S
O165 C167 1.234 1_565 S
C166 O152 1.305 . S
C166 O153 1.234 1_455 S
C167 O164 1.305 . S
C167 O165 1.234 1_545 S
Zn168 O174 1.920 . S
Zn168 O180 1.898 1_655 S
Zn168 O183 1.905 1_655 S
Zn169 O177 1.905 . S
Zn169 O178 1.898 . S
Zn169 O186 1.920 . S
Zn170 O173 2.080 . S
Zn170 O176 2.114 . S
Zn170 O179 2.120 . S
Zn170 O181 2.120 . S
Zn170 O182 2.114 . S
Zn170 O185 2.080 . S
C171 O176 1.166 . S
C171 O177 1.182 . S
C172 O178 1.167 . S
C172 O179 1.299 . S
O173 Zn170 2.080 . S
O173 C187 1.305 . S
O174 Zn168 1.920 . S
O174 C187 1.234 . S
C175 O180 1.167 1_655 S
C175 O181 1.299 . S
O176 Zn170 2.114 . S
O176 C171 1.166 . S
O177 Zn169 1.905 . S
O177 C171 1.182 . S
O178 Zn169 1.898 . S
O178 C172 1.167 . S
O179 Zn170 2.120 . S
O179 C172 1.299 . S
O180 Zn168 1.898 1_455 S
O180 C175 1.167 1_455 S
O181 Zn170 2.120 . S
O181 C175 1.299 . S
O182 Zn170 2.114 . S
O182 C184 1.166 . S
O183 Zn168 1.905 1_455 S
O183 C184 1.182 1_455 S
C184 O182 1.166 . S
C184 O183 1.182 1_655 S
O185 Zn170 2.080 . S
O185 C188 1.305 . S
O186 Zn169 1.920 . S
O186 C188 1.234 . S
C187 O173 1.305 . S
C187 O174 1.234 . S
C188 O185 1.305 . S
C188 O186 1.234 . S
Zn189 O195 1.920 1_545 S
Zn189 O201 1.898 . S
Zn189 O204 1.905 . S
Zn190 O198 1.905 . S
Zn190 O199 1.898 1_655 S
Zn190 O207 1.920 1_655 S
Zn191 O194 2.080 . S
Zn191 O197 2.114 . S
Zn191 O200 2.120 . S
Zn191 O202 2.120 . S
Zn191 O203 2.114 . S
Zn191 O206 2.080 . S
C192 O197 1.166 . S
C192 O198 1.182 . S
C193 O199 1.167 . S
C193 O200 1.299 1_455 S
O194 Zn191 2.080 . S
O194 C208 1.305 . S
O195 Zn189 1.920 1_565 S
O195 C208 1.234 1_565 S
C196 O201 1.167 . S
C196 O202 1.299 . S
O197 Zn191 2.114 . S
O197 C192 1.166 . S
O198 Zn190 1.905 . S
O198 C192 1.182 . S
O199 Zn190 1.898 1_455 S
O199 C193 1.167 . S
O200 Zn191 2.120 . S
O200 C193 1.299 1_655 S
O201 Zn189 1.898 . S
O201 C196 1.167 . S
O202 Zn191 2.120 . S
O202 C196 1.299 . S
O203 Zn191 2.114 . S
O203 C205 1.166 . S
O204 Zn189 1.905 . S
O204 C205 1.182 . S
C205 O203 1.166 . S
C205 O204 1.182 . S
O206 Zn191 2.080 . S
O206 C209 1.305 . S
O207 Zn190 1.920 1_455 S
O207 C209 1.234 1_455 S
C208 O194 1.305 . S
C208 O195 1.234 1_545 S
C209 O206 1.305 . S
C209 O207 1.234 1_655 S
Zn210 O216 1.920 . S
Zn210 O222 1.898 . S
Zn210 O225 1.905 . S
Zn211 O219 1.905 . S
Zn211 O220 1.898 . S
Zn211 O228 1.920 . S
Zn212 O215 2.080 . S
Zn212 O218 2.114 . S
Zn212 O221 2.120 . S
Zn212 O223 2.120 . S
Zn212 O224 2.114 . S
Zn212 O227 2.080 . S
C213 O218 1.166 . S
C213 O219 1.182 . S
C214 O220 1.167 . S
C214 O221 1.299 . S
O215 Zn212 2.080 . S
O215 C229 1.305 . S
O216 Zn210 1.920 . S
O216 C229 1.234 . S
C217 O222 1.167 . S
C217 O223 1.299 . S
O218 Zn212 2.114 . S
O218 C213 1.166 . S
O219 Zn211 1.905 . S
O219 C213 1.182 . S
O220 Zn211 1.898 . S
O220 C214 1.167 . S
O221 Zn212 2.120 . S
O221 C214 1.299 . S
O222 Zn210 1.898 . S
O222 C217 1.167 . S
O223 Zn212 2.120 . S
O223 C217 1.299 . S
O224 Zn212 2.114 . S
O224 C226 1.166 . S
O225 Zn210 1.905 . S
O225 C226 1.182 . S
C226 O224 1.166 . S
C226 O225 1.182 . S
O227 Zn212 2.080 . S
O227 C230 1.305 . S
O228 Zn211 1.920 . S
O228 C230 1.234 . S
C229 O215 1.305 . S
C229 O216 1.234 . S
C230 O227 1.305 . S
C230 O228 1.234 . S
Zn231 O237 1.920 1_565 S
Zn231 O243 1.898 . S
Zn231 O246 1.905 . S
Zn232 O240 1.905 . S
Zn232 O241 1.898 . S
Zn232 O249 1.920 . S
Zn233 O236 2.080 1_556 S
Zn233 O239 2.114 . S
Zn233 O242 2.120 . S
Zn233 O244 2.120 . S
Zn233 O245 2.114 1_556 S
Zn233 O248 2.080 . S
C234 O239 1.166 . S
C234 O240 1.182 . S
C235 O241 1.167 . S
C235 O242 1.299 . S
O236 Zn233 2.080 1_554 S
O236 C250 1.305 . S
O237 Zn231 1.920 1_545 S
O237 C250 1.234 1_545 S
C238 O243 1.167 1_556 S
C238 O244 1.299 . S
O239 Zn233 2.114 . S
O239 C234 1.166 . S
O240 Zn232 1.905 . S
O240 C234 1.182 . S
O241 Zn232 1.898 . S
O241 C235 1.167 . S
O242 Zn233 2.120 . S
O242 C235 1.299 . S
O243 Zn231 1.898 . S
O243 C238 1.167 1_554 S
O244 Zn233 2.120 . S
O244 C238 1.299 . S
O245 Zn233 2.114 1_554 S
O245 C247 1.166 . S
O246 Zn231 1.905 . S
O246 C247 1.182 . S
C247 O245 1.166 . S
C247 O246 1.182 . S
O248 Zn233 2.080 . S
O248 C251 1.305 . S
O249 Zn232 1.920 . S
O249 C251 1.234 . S
C250 O236 1.305 . S
C250 O237 1.234 1_565 S
C251 O248 1.305 . S
C251 O249 1.234 . S
Zn252 O258 1.920 . S
Zn252 O264 1.898 1_655 S
Zn252 O267 1.905 1_655 S
Zn253 O261 1.905 . S
Zn253 O262 1.898 . S
Zn253 O270 1.920 . S
Zn254 O257 2.080 . S
Zn254 O260 2.114 . S
Zn254 O263 2.120 . S
Zn254 O265 2.120 . S
Zn254 O266 2.114 . S
Zn254 O269 2.080 . S
C255 O260 1.166 . S
C255 O261 1.182 . S
C256 O262 1.167 . S
C256 O263 1.299 . S
O257 Zn254 2.080 . S
O257 C271 1.305 . S
O258 Zn252 1.920 . S
O258 C271 1.234 . S
C259 O264 1.167 1_655 S
C259 O265 1.299 . S
O260 Zn254 2.114 . S
O260 C255 1.166 . S
O261 Zn253 1.905 . S
O261 C255 1.182 . S
O262 Zn253 1.898 . S
O262 C256 1.167 . S
O263 Zn254 2.120 . S
O263 C256 1.299 . S
O264 Zn252 1.898 1_455 S
O264 C259 1.167 1_455 S
O265 Zn254 2.120 . S
O265 C259 1.299 . S
O266 Zn254 2.114 . S
O266 C268 1.166 . S
O267 Zn252 1.905 1_455 S
O267 C268 1.182 1_455 S
C268 O266 1.166 . S
C268 O267 1.182 1_655 S
O269 Zn254 2.080 . S
O269 C272 1.305 . S
O270 Zn253 1.920 . S
O270 C272 1.234 . S
C271 O257 1.305 . S
C271 O258 1.234 . S
C272 O269 1.305 . S
C272 O270 1.234 . S
Zn273 O279 1.920 . S
Zn273 O285 1.898 . S
Zn273 O288 1.905 . S
Zn274 O282 1.905 . S
Zn274 O283 1.898 . S
Zn274 O291 1.920 1_545 S
Zn275 O278 2.080 . S
Zn275 O281 2.114 . S
Zn275 O284 2.120 . S
Zn275 O286 2.120 . S
Zn275 O287 2.114 . S
Zn275 O290 2.080 . S
C276 O281 1.166 . S
C276 O282 1.182 . S
C277 O283 1.167 . S
C277 O284 1.299 . S
O278 Zn275 2.080 . S
O278 C292 1.305 . S
O279 Zn273 1.920 . S
O279 C292 1.234 . S
C280 O285 1.167 . S
C280 O286 1.299 . S
O281 Zn275 2.114 . S
O281 C276 1.166 . S
O282 Zn274 1.905 . S
O282 C276 1.182 . S
O283 Zn274 1.898 . S
O283 C277 1.167 . S
O284 Zn275 2.120 . S
O284 C277 1.299 . S
O285 Zn273 1.898 . S
O285 C280 1.167 . S
O286 Zn275 2.120 . S
O286 C280 1.299 . S
O287 Zn275 2.114 . S
O287 C289 1.166 . S
O288 Zn273 1.905 . S
O288 C289 1.182 . S
C289 O287 1.166 . S
C289 O288 1.182 . S
O290 Zn275 2.080 . S
O290 C293 1.305 . S
O291 Zn274 1.920 1_565 S
O291 C293 1.234 1_565 S
C292 O278 1.305 . S
C292 O279 1.234 . S
C293 O290 1.305 . S
C293 O291 1.234 1_545 S
Zn294 O300 1.920 . S
Zn294 O306 1.898 . S
Zn294 O309 1.905 . S
Zn295 O303 1.905 . S
Zn295 O304 1.898 . S
Zn295 O312 1.920 . S
Zn296 O299 2.080 . S
Zn296 O302 2.114 . S
Zn296 O305 2.120 . S
Zn296 O307 2.120 . S
Zn296 O308 2.114 . S
Zn296 O311 2.080 . S
C297 O302 1.166 . S
C297 O303 1.182 . S
C298 O304 1.167 . S
C298 O305 1.299 . S
O299 Zn296 2.080 . S
O299 C313 1.305 . S
O300 Zn294 1.920 . S
O300 C313 1.234 . S
C301 O306 1.167 . S
C301 O307 1.299 . S
O302 Zn296 2.114 . S
O302 C297 1.166 . S
O303 Zn295 1.905 . S
O303 C297 1.182 . S
O304 Zn295 1.898 . S
O304 C298 1.167 . S
O305 Zn296 2.120 . S
O305 C298 1.299 . S
O306 Zn294 1.898 . S
O306 C301 1.167 . S
O307 Zn296 2.120 . S
O307 C301 1.299 . S
O308 Zn296 2.114 . S
O308 C310 1.166 . S
O309 Zn294 1.905 . S
O309 C310 1.182 . S
C310 O308 1.166 . S
C310 O309 1.182 . S
O311 Zn296 2.080 . S
O311 C314 1.305 . S
O312 Zn295 1.920 . S
O312 C314 1.234 . S
C313 O299 1.305 . S
C313 O300 1.234 . S
C314 O311 1.305 . S
C314 O312 1.234 . S
Zn315 O321 1.920 1_655 S
Zn315 O327 1.898 1_655 S
Zn315 O330 1.905 . S
Zn316 O324 1.905 . S
Zn316 O325 1.898 . S
Zn316 O333 1.920 1_565 S
Zn317 O320 2.080 . S
Zn317 O323 2.114 1_554 S
Zn317 O326 2.120 . S
Zn317 O328 2.120 . S
Zn317 O329 2.114 . S
Zn317 O332 2.080 1_554 S
C318 O323 1.166 . S
C318 O324 1.182 . S
C319 O325 1.167 1_554 S
C319 O326 1.299 . S
O320 Zn317 2.080 . S
O320 C334 1.305 . S
O321 Zn315 1.920 1_455 S
O321 C334 1.234 1_455 S
C322 O327 1.167 . S
C322 O328 1.299 1_455 S
O323 Zn317 2.114 1_556 S
O323 C318 1.166 . S
O324 Zn316 1.905 . S
O324 C318 1.182 . S
O325 Zn316 1.898 . S
O325 C319 1.167 1_556 S
O326 Zn317 2.120 . S
O326 C319 1.299 . S
O327 Zn315 1.898 1_455 S
O327 C322 1.167 . S
O328 Zn317 2.120 . S
O328 C322 1.299 1_655 S
O329 Zn317 2.114 . S
O329 C331 1.166 . S
O330 Zn315 1.905 . S
O330 C331 1.182 . S
C331 O329 1.166 . S
C331 O330 1.182 . S
O332 Zn317 2.080 1_556 S
O332 C335 1.305 . S
O333 Zn316 1.920 1_545 S
O333 C335 1.234 1_545 S
C334 O320 1.305 . S
C334 O321 1.234 1_655 S
C335 O332 1.305 . S
C335 O333 1.234 1_565 S
Zn336 O342 1.920 . S
Zn336 O348 1.898 . S
Zn336 O351 1.905 . S
Zn337 O345 1.905 . S
Zn337 O346 1.898 . S
Zn337 O354 1.920 . S
Zn338 O341 2.080 . S
Zn338 O344 2.114 . S
Zn338 O347 2.120 . S
Zn338 O349 2.120 . S
Zn338 O350 2.114 . S
Zn338 O353 2.080 . S
C339 O344 1.166 . S
C339 O345 1.182 . S
C340 O346 1.167 . S
C340 O347 1.299 . S
O341 Zn338 2.080 . S
O341 C355 1.305 . S
O342 Zn336 1.920 . S
O342 C355 1.234 . S
C343 O348 1.167 . S
C343 O349 1.299 . S
O344 Zn338 2.114 . S
O344 C339 1.166 . S
O345 Zn337 1.905 . S
O345 C339 1.182 . S
O346 Zn337 1.898 . S
O346 C340 1.167 . S
O347 Zn338 2.120 . S
O347 C340 1.299 . S
O348 Zn336 1.898 . S
O348 C343 1.167 . S
O349 Zn338 2.120 . S
O349 C343 1.299 . S
O350 Zn338 2.114 . S
O350 C352 1.166 . S
O351 Zn336 1.905 . S
O351 C352 1.182 . S
C352 O350 1.166 . S
C352 O351 1.182 . S
O353 Zn338 2.080 . S
O353 C356 1.305 . S
O354 Zn337 1.920 . S
O354 C356 1.234 . S
C355 O341 1.305 . S
C355 O342 1.234 . S
C356 O353 1.305 . S
C356 O354 1.234 . S
Zn357 O363 1.920 . S
Zn357 O369 1.898 . S
Zn357 O372 1.905 . S
Zn358 O366 1.905 . S
Zn358 O367 1.898 . S
Zn358 O375 1.920 . S
Zn359 O362 2.080 1_554 S
Zn359 O365 2.114 . S
Zn359 O368 2.120 . S
Zn359 O370 2.120 . S
Zn359 O371 2.114 1_554 S
Zn359 O374 2.080 . S
C360 O365 1.166 . S
C360 O366 1.182 . S
C361 O367 1.167 . S
C361 O368 1.299 . S
O362 Zn359 2.080 1_556 S
O362 C376 1.305 . S
O363 Zn357 1.920 . S
O363 C376 1.234 . S
C364 O369 1.167 1_554 S
C364 O370 1.299 . S
O365 Zn359 2.114 . S
O365 C360 1.166 . S
O366 Zn358 1.905 . S
O366 C360 1.182 . S
O367 Zn358 1.898 . S
O367 C361 1.167 . S
O368 Zn359 2.120 . S
O368 C361 1.299 . S
O369 Zn357 1.898 . S
O369 C364 1.167 1_556 S
O370 Zn359 2.120 . S
O370 C364 1.299 . S
O371 Zn359 2.114 1_556 S
O371 C373 1.166 . S
O372 Zn357 1.905 . S
O372 C373 1.182 . S
C373 O371 1.166 . S
C373 O372 1.182 . S
O374 Zn359 2.080 . S
O374 C377 1.305 . S
O375 Zn358 1.920 . S
O375 C377 1.234 . S
C376 O362 1.305 . S
C376 O363 1.234 . S
C377 O374 1.305 . S
C377 O375 1.234 . S
Zn378 O384 1.920 . S
Zn378 O390 1.898 1_655 S
Zn378 O393 1.905 1_655 S
Zn379 O387 1.905 . S
Zn379 O388 1.898 . S
Zn379 O396 1.920 . S
Zn380 O383 2.080 . S
Zn380 O386 2.114 . S
Zn380 O389 2.120 . S
Zn380 O391 2.120 . S
Zn380 O392 2.114 . S
Zn380 O395 2.080 . S
C381 O386 1.166 . S
C381 O387 1.182 . S
C382 O388 1.167 . S
C382 O389 1.299 . S
O383 Zn380 2.080 . S
O383 C397 1.305 . S
O384 Zn378 1.920 . S
O384 C397 1.234 . S
C385 O390 1.167 1_655 S
C385 O391 1.299 . S
O386 Zn380 2.114 . S
O386 C381 1.166 . S
O387 Zn379 1.905 . S
O387 C381 1.182 . S
O388 Zn379 1.898 . S
O388 C382 1.167 . S
O389 Zn380 2.120 . S
O389 C382 1.299 . S
O390 Zn378 1.898 1_455 S
O390 C385 1.167 1_455 S
O391 Zn380 2.120 . S
O391 C385 1.299 . S
O392 Zn380 2.114 . S
O392 C394 1.166 . S
O393 Zn378 1.905 1_455 S
O393 C394 1.182 1_455 S
C394 O392 1.166 . S
C394 O393 1.182 1_655 S
O395 Zn380 2.080 . S
O395 C398 1.305 . S
O396 Zn379 1.920 . S
O396 C398 1.234 . S
C397 O383 1.305 . S
C397 O384 1.234 . S
C398 O395 1.305 . S
C398 O396 1.234 . S
Zn399 O405 1.920 . S
Zn399 O411 1.898 . S
Zn399 O414 1.905 . S
Zn400 O408 1.905 . S
Zn400 O409 1.898 1_655 S
Zn400 O417 1.920 1_655 S
Zn401 O404 2.080 . S
Zn401 O407 2.114 . S
Zn401 O410 2.120 . S
Zn401 O412 2.120 . S
Zn401 O413 2.114 . S
Zn401 O416 2.080 . S
C402 O407 1.166 . S
C402 O408 1.182 . S
C403 O409 1.167 . S
C403 O410 1.299 1_455 S
O404 Zn401 2.080 . S
O404 C418 1.305 . S
O405 Zn399 1.920 . S
O405 C418 1.234 . S
C406 O411 1.167 . S
C406 O412 1.299 . S
O407 Zn401 2.114 . S
O407 C402 1.166 . S
O408 Zn400 1.905 . S
O408 C402 1.182 . S
O409 Zn400 1.898 1_455 S
O409 C403 1.167 . S
O410 Zn401 2.120 . S
O410 C403 1.299 1_655 S
O411 Zn399 1.898 . S
O411 C406 1.167 . S
O412 Zn401 2.120 . S
O412 C406 1.299 . S
O413 Zn401 2.114 . S
O413 C415 1.166 . S
O414 Zn399 1.905 . S
O414 C415 1.182 . S
C415 O413 1.166 . S
C415 O414 1.182 . S
O416 Zn401 2.080 . S
O416 C419 1.305 . S
O417 Zn400 1.920 1_455 S
O417 C419 1.234 1_455 S
C418 O404 1.305 . S
C418 O405 1.234 . S
C419 O416 1.305 . S
C419 O417 1.234 1_655 S
Zn420 O426 1.920 . S
Zn420 O432 1.898 . S
Zn420 O435 1.905 . S
Zn421 O429 1.905 . S
Zn421 O430 1.898 . S
Zn421 O438 1.920 . S
Zn422 O425 2.080 . S
Zn422 O428 2.114 . S
Zn422 O431 2.120 . S
Zn422 O433 2.120 . S
Zn422 O434 2.114 . S
Zn422 O437 2.080 . S
C423 O428 1.166 . S
C423 O429 1.182 . S
C424 O430 1.167 . S
C424 O431 1.299 . S
O425 Zn422 2.080 . S
O425 C439 1.305 . S
O426 Zn420 1.920 . S
O426 C439 1.234 . S
C427 O432 1.167 . S
C427 O433 1.299 . S
O428 Zn422 2.114 . S
O428 C423 1.166 . S
O429 Zn421 1.905 . S
O429 C423 1.182 . S
O430 Zn421 1.898 . S
O430 C424 1.167 . S
O431 Zn422 2.120 . S
O431 C424 1.299 . S
O432 Zn420 1.898 . S
O432 C427 1.167 . S
O433 Zn422 2.120 . S
O433 C427 1.299 . S
O434 Zn422 2.114 . S
O434 C436 1.166 . S
O435 Zn420 1.905 . S
O435 C436 1.182 . S
C436 O434 1.166 . S
C436 O435 1.182 . S
O437 Zn422 2.080 . S
O437 C440 1.305 . S
O438 Zn421 1.920 . S
O438 C440 1.234 . S
C439 O425 1.305 . S
C439 O426 1.234 . S
C440 O437 1.305 . S
C440 O438 1.234 . S
Zn441 O447 1.920 1_655 S
Zn441 O453 1.898 1_655 S
Zn441 O456 1.905 . S
Zn442 O450 1.905 . S
Zn442 O451 1.898 . S
Zn442 O459 1.920 . S
Zn443 O446 2.080 . S
Zn443 O449 2.114 1_556 S
Zn443 O452 2.120 . S
Zn443 O454 2.120 . S
Zn443 O455 2.114 . S
Zn443 O458 2.080 1_556 S
C444 O449 1.166 . S
C444 O450 1.182 . S
C445 O451 1.167 1_556 S
C445 O452 1.299 . S
O446 Zn443 2.080 . S
O446 C460 1.305 . S
O447 Zn441 1.920 1_455 S
O447 C460 1.234 1_455 S
C448 O453 1.167 . S
C448 O454 1.299 1_455 S
O449 Zn443 2.114 1_554 S
O449 C444 1.166 . S
O450 Zn442 1.905 . S
O450 C444 1.182 . S
O451 Zn442 1.898 . S
O451 C445 1.167 1_554 S
O452 Zn443 2.120 . S
O452 C445 1.299 . S
O453 Zn441 1.898 1_455 S
O453 C448 1.167 . S
O454 Zn443 2.120 . S
O454 C448 1.299 1_655 S
O455 Zn443 2.114 . S
O455 C457 1.166 . S
O456 Zn441 1.905 . S
O456 C457 1.182 . S
C457 O455 1.166 . S
C457 O456 1.182 . S
O458 Zn443 2.080 1_554 S
O458 C461 1.305 . S
O459 Zn442 1.920 . S
O459 C461 1.234 . S
C460 O446 1.305 . S
C460 O447 1.234 1_655 S
C461 O458 1.305 . S
C461 O459 1.234 . S
Zn462 O468 1.920 . S
Zn462 O474 1.898 1_655 S
Zn462 O477 1.905 1_655 S
Zn463 O471 1.905 . S
Zn463 O472 1.898 . S
Zn463 O480 1.920 . S
Zn464 O467 2.080 . S
Zn464 O470 2.114 . S
Zn464 O473 2.120 . S
Zn464 O475 2.120 . S
Zn464 O476 2.114 . S
Zn464 O479 2.080 . S
C465 O470 1.166 . S
C465 O471 1.182 . S
C466 O472 1.167 . S
C466 O473 1.299 . S
O467 Zn464 2.080 . S
O467 C481 1.305 . S
O468 Zn462 1.920 . S
O468 C481 1.234 . S
C469 O474 1.167 1_655 S
C469 O475 1.299 . S
O470 Zn464 2.114 . S
O470 C465 1.166 . S
O471 Zn463 1.905 . S
O471 C465 1.182 . S
O472 Zn463 1.898 . S
O472 C466 1.167 . S
O473 Zn464 2.120 . S
O473 C466 1.299 . S
O474 Zn462 1.898 1_455 S
O474 C469 1.167 1_455 S
O475 Zn464 2.120 . S
O475 C469 1.299 . S
O476 Zn464 2.114 . S
O476 C478 1.166 . S
O477 Zn462 1.905 1_455 S
O477 C478 1.182 1_455 S
C478 O476 1.166 . S
C478 O477 1.182 1_655 S
O479 Zn464 2.080 . S
O479 C482 1.305 . S
O480 Zn463 1.920 . S
O480 C482 1.234 . S
C481 O467 1.305 . S
C481 O468 1.234 . S
C482 O479 1.305 . S
C482 O480 1.234 . S
Zn483 O489 1.920 . S
Zn483 O495 1.898 . S
Zn483 O498 1.905 . S
Zn484 O492 1.905 . S
Zn484 O493 1.898 . S
Zn484 O501 1.920 . S
Zn485 O488 2.080 . S
Zn485 O491 2.114 . S
Zn485 O494 2.120 . S
Zn485 O496 2.120 . S
Zn485 O497 2.114 . S
Zn485 O500 2.080 . S
C486 O491 1.166 . S
C486 O492 1.182 . S
C487 O493 1.167 . S
C487 O494 1.299 . S
O488 Zn485 2.080 . S
O488 C502 1.305 . S
O489 Zn483 1.920 . S
O489 C502 1.234 . S
C490 O495 1.167 . S
C490 O496 1.299 . S
O491 Zn485 2.114 . S
O491 C486 1.166 . S
O492 Zn484 1.905 . S
O492 C486 1.182 . S
O493 Zn484 1.898 . S
O493 C487 1.167 . S
O494 Zn485 2.120 . S
O494 C487 1.299 . S
O495 Zn483 1.898 . S
O495 C490 1.167 . S
O496 Zn485 2.120 . S
O496 C490 1.299 . S
O497 Zn485 2.114 . S
O497 C499 1.166 . S
O498 Zn483 1.905 . S
O498 C499 1.182 . S
C499 O497 1.166 . S
C499 O498 1.182 . S
O500 Zn485 2.080 . S
O500 C503 1.305 . S
O501 Zn484 1.920 . S
O501 C503 1.234 . S
C502 O488 1.305 . S
C502 O489 1.234 . S
C503 O500 1.305 . S
C503 O501 1.234 . S
Zn504 O510 1.920 . S
Zn504 O516 1.898 . S
Zn504 O519 1.905 . S
Zn505 O513 1.905 . S
Zn505 O514 1.898 . S
Zn505 O522 1.920 . S
Zn506 O509 2.080 . S
Zn506 O512 2.114 . S
Zn506 O515 2.120 . S
Zn506 O517 2.120 . S
Zn506 O518 2.114 . S
Zn506 O521 2.080 . S
C507 O512 1.166 . S
C507 O513 1.182 . S
C508 O514 1.167 . S
C508 O515 1.299 . S
O509 Zn506 2.080 . S
O509 C523 1.305 . S
O510 Zn504 1.920 . S
O510 C523 1.234 . S
C511 O516 1.167 . S
C511 O517 1.299 . S
O512 Zn506 2.114 . S
O512 C507 1.166 . S
O513 Zn505 1.905 . S
O513 C507 1.182 . S
O514 Zn505 1.898 . S
O514 C508 1.167 . S
O515 Zn506 2.120 . S
O515 C508 1.299 . S
O516 Zn504 1.898 . S
O516 C511 1.167 . S
O517 Zn506 2.120 . S
O517 C511 1.299 . S
O518 Zn506 2.114 . S
O518 C520 1.166 . S
O519 Zn504 1.905 . S
O519 C520 1.182 . S
C520 O518 1.166 . S
C520 O519 1.182 . S
O521 Zn506 2.080 . S
O521 C524 1.305 . S
O522 Zn505 1.920 . S
O522 C524 1.234 . S
C523 O509 1.305 . S
C523 O510 1.234 . S
C524 O521 1.305 . S
C524 O522 1.234 . S
Zn525 O531 1.920 . S
Zn525 O537 1.898 . S
Zn525 O540 1.905 . S
Zn526 O534 1.905 . S
Zn526 O535 1.898 . S
Zn526 O543 1.920 . S
Zn527 O530 2.080 1_556 S
Zn527 O533 2.114 . S
Zn527 O536 2.120 . S
Zn527 O538 2.120 . S
Zn527 O539 2.114 1_556 S
Zn527 O542 2.080 . S
C528 O533 1.166 . S
C528 O534 1.182 . S
C529 O535 1.167 . S
C529 O536 1.299 . S
O530 Zn527 2.080 1_554 S
O530 C544 1.305 . S
O531 Zn525 1.920 . S
O531 C544 1.234 . S
C532 O537 1.167 1_556 S
C532 O538 1.299 . S
O533 Zn527 2.114 . S
O533 C528 1.166 . S
O534 Zn526 1.905 . S
O534 C528 1.182 . S
O535 Zn526 1.898 . S
O535 C529 1.167 . S
O536 Zn527 2.120 . S
O536 C529 1.299 . S
O537 Zn525 1.898 . S
O537 C532 1.167 1_554 S
O538 Zn527 2.120 . S
O538 C532 1.299 . S
O539 Zn527 2.114 1_554 S
O539 C541 1.166 . S
O540 Zn525 1.905 . S
O540 C541 1.182 . S
C541 O539 1.166 . S
C541 O540 1.182 . S
O542 Zn527 2.080 . S
O542 C545 1.305 . S
O543 Zn526 1.920 . S
O543 C545 1.234 . S
C544 O530 1.305 . S
C544 O531 1.234 . S
C545 O542 1.305 . S
C545 O543 1.234 . S
Zn546 O552 1.920 . S
Zn546 O558 1.898 1_455 S
Zn546 O561 1.905 1_455 S
Zn547 O555 1.905 . S
Zn547 O556 1.898 . S
Zn547 O564 1.920 . S
Zn548 O551 2.080 . S
Zn548 O554 2.114 . S
Zn548 O557 2.120 . S
Zn548 O559 2.120 . S
Zn548 O560 2.114 . S
Zn548 O563 2.080 . S
C549 O554 1.166 . S
C549 O555 1.182 . S
C550 O556 1.167 . S
C550 O557 1.299 . S
O551 Zn548 2.080 . S
O551 C565 1.305 . S
O552 Zn546 1.920 . S
O552 C565 1.234 . S
C553 O558 1.167 1_455 S
C553 O559 1.299 . S
O554 Zn548 2.114 . S
O554 C549 1.166 . S
O555 Zn547 1.905 . S
O555 C549 1.182 . S
O556 Zn547 1.898 . S
O556 C550 1.167 . S
O557 Zn548 2.120 . S
O557 C550 1.299 . S
O558 Zn546 1.898 1_655 S
O558 C553 1.167 1_655 S
O559 Zn548 2.120 . S
O559 C553 1.299 . S
O560 Zn548 2.114 . S
O560 C562 1.166 . S
O561 Zn546 1.905 1_655 S
O561 C562 1.182 1_655 S
C562 O560 1.166 . S
C562 O561 1.182 1_455 S
O563 Zn548 2.080 . S
O563 C566 1.305 . S
O564 Zn547 1.920 . S
O564 C566 1.234 . S
C565 O551 1.305 . S
C565 O552 1.234 . S
C566 O563 1.305 . S
C566 O564 1.234 . S
Zn567 O573 1.920 1_455 S
Zn567 O579 1.898 1_455 S
Zn567 O582 1.905 . S
Zn568 O576 1.905 . S
Zn568 O577 1.898 . S
Zn568 O585 1.920 . S
Zn569 O572 2.080 . S
Zn569 O575 2.114 . S
Zn569 O578 2.120 . S
Zn569 O580 2.120 . S
Zn569 O581 2.114 . S
Zn569 O584 2.080 . S
C570 O575 1.166 . S
C570 O576 1.182 . S
C571 O577 1.167 . S
C571 O578 1.299 . S
O572 Zn569 2.080 . S
O572 C586 1.305 . S
O573 Zn567 1.920 1_655 S
O573 C586 1.234 1_655 S
C574 O579 1.167 . S
C574 O580 1.299 1_655 S
O575 Zn569 2.114 . S
O575 C570 1.166 . S
O576 Zn568 1.905 . S
O576 C570 1.182 . S
O577 Zn568 1.898 . S
O577 C571 1.167 . S
O578 Zn569 2.120 . S
O578 C571 1.299 . S
O579 Zn567 1.898 1_655 S
O579 C574 1.167 . S
O580 Zn569 2.120 . S
O580 C574 1.299 1_455 S
O581 Zn569 2.114 . S
O581 C583 1.166 . S
O582 Zn567 1.905 . S
O582 C583 1.182 . S
C583 O581 1.166 . S
C583 O582 1.182 . S
O584 Zn569 2.080 . S
O584 C587 1.305 . S
O585 Zn568 1.920 . S
O585 C587 1.234 . S
C586 O572 1.305 . S
C586 O573 1.234 1_455 S
C587 O584 1.305 . S
C587 O585 1.234 . S
Zn588 O594 1.920 . S
Zn588 O600 1.898 . S
Zn588 O603 1.905 . S
Zn589 O597 1.905 . S
Zn589 O598 1.898 . S
Zn589 O606 1.920 . S
Zn590 O593 2.080 . S
Zn590 O596 2.114 . S
Zn590 O599 2.120 . S
Zn590 O601 2.120 . S
Zn590 O602 2.114 . S
Zn590 O605 2.080 . S
C591 O596 1.166 . S
C591 O597 1.182 . S
C592 O598 1.167 . S
C592 O599 1.299 . S
O593 Zn590 2.080 . S
O593 C607 1.305 . S
O594 Zn588 1.920 . S
O594 C607 1.234 . S
C595 O600 1.167 . S
C595 O601 1.299 . S
O596 Zn590 2.114 . S
O596 C591 1.166 . S
O597 Zn589 1.905 . S
O597 C591 1.182 . S
O598 Zn589 1.898 . S
O598 C592 1.167 . S
O599 Zn590 2.120 . S
O599 C592 1.299 . S
O600 Zn588 1.898 . S
O600 C595 1.167 . S
O601 Zn590 2.120 . S
O601 C595 1.299 . S
O602 Zn590 2.114 . S
O602 C604 1.166 . S
O603 Zn588 1.905 . S
O603 C604 1.182 . S
C604 O602 1.166 . S
C604 O603 1.182 . S
O605 Zn590 2.080 . S
O605 C608 1.305 . S
O606 Zn589 1.920 . S
O606 C608 1.234 . S
C607 O593 1.305 . S
C607 O594 1.234 . S
C608 O605 1.305 . S
C608 O606 1.234 . S
Zn609 O615 1.920 . S
Zn609 O621 1.898 . S
Zn609 O624 1.905 . S
Zn610 O618 1.905 . S
Zn610 O619 1.898 1_455 S
Zn610 O627 1.920 1_455 S
Zn611 O614 2.080 1_554 S
Zn611 O617 2.114 . S
Zn611 O620 2.120 . S
Zn611 O622 2.120 . S
Zn611 O623 2.114 1_554 S
Zn611 O626 2.080 . S
C612 O617 1.166 . S
C612 O618 1.182 . S
C613 O619 1.167 . S
C613 O620 1.299 1_655 S
O614 Zn611 2.080 1_556 S
O614 C628 1.305 . S
O615 Zn609 1.920 . S
O615 C628 1.234 . S
C616 O621 1.167 1_554 S
C616 O622 1.299 . S
O617 Zn611 2.114 . S
O617 C612 1.166 . S
O618 Zn610 1.905 . S
O618 C612 1.182 . S
O619 Zn610 1.898 1_655 S
O619 C613 1.167 . S
O620 Zn611 2.120 . S
O620 C613 1.299 1_455 S
O621 Zn609 1.898 . S
O621 C616 1.167 1_556 S
O622 Zn611 2.120 . S
O622 C616 1.299 . S
O623 Zn611 2.114 1_556 S
O623 C625 1.166 . S
O624 Zn609 1.905 . S
O624 C625 1.182 . S
C625 O623 1.166 . S
C625 O624 1.182 . S
O626 Zn611 2.080 . S
O626 C629 1.305 . S
O627 Zn610 1.920 1_655 S
O627 C629 1.234 1_655 S
C628 O614 1.305 . S
C628 O615 1.234 . S
C629 O626 1.305 . S
C629 O627 1.234 1_455 S
Zn630 O636 1.920 . S
Zn630 O642 1.898 1_455 S
Zn630 O645 1.905 1_455 S
Zn631 O639 1.905 . S
Zn631 O640 1.898 . S
Zn631 O648 1.920 . S
Zn632 O635 2.080 . S
Zn632 O638 2.114 . S
Zn632 O641 2.120 . S
Zn632 O643 2.120 . S
Zn632 O644 2.114 . S
Zn632 O647 2.080 . S
C633 O638 1.166 . S
C633 O639 1.182 . S
C634 O640 1.167 . S
C634 O641 1.299 . S
O635 Zn632 2.080 . S
O635 C649 1.305 . S
O636 Zn630 1.920 . S
O636 C649 1.234 . S
C637 O642 1.167 1_455 S
C637 O643 1.299 . S
O638 Zn632 2.114 . S
O638 C633 1.166 . S
O639 Zn631 1.905 . S
O639 C633 1.182 . S
O640 Zn631 1.898 . S
O640 C634 1.167 . S
O641 Zn632 2.120 . S
O641 C634 1.299 . S
O642 Zn630 1.898 1_655 S
O642 C637 1.167 1_655 S
O643 Zn632 2.120 . S
O643 C637 1.299 . S
O644 Zn632 2.114 . S
O644 C646 1.166 . S
O645 Zn630 1.905 1_655 S
O645 C646 1.182 1_655 S
C646 O644 1.166 . S
C646 O645 1.182 1_455 S
O647 Zn632 2.080 . S
O647 C650 1.305 . S
O648 Zn631 1.920 . S
O648 C650 1.234 . S
C649 O635 1.305 . S
C649 O636 1.234 . S
C650 O647 1.305 . S
C650 O648 1.234 . S
Zn651 O657 1.920 . S
Zn651 O663 1.898 . S
Zn651 O666 1.905 . S
Zn652 O660 1.905 . S
Zn652 O661 1.898 . S
Zn652 O669 1.920 . S
Zn653 O656 2.080 . S
Zn653 O659 2.114 . S
Zn653 O662 2.120 . S
Zn653 O664 2.120 . S
Zn653 O665 2.114 . S
Zn653 O668 2.080 . S
C654 O659 1.166 . S
C654 O660 1.182 . S
C655 O661 1.167 . S
C655 O662 1.299 . S
O656 Zn653 2.080 . S
O656 C670 1.305 . S
O657 Zn651 1.920 . S
O657 C670 1.234 . S
C658 O663 1.167 . S
C658 O664 1.299 . S
O659 Zn653 2.114 . S
O659 C654 1.166 . S
O660 Zn652 1.905 . S
O660 C654 1.182 . S
O661 Zn652 1.898 . S
O661 C655 1.167 . S
O662 Zn653 2.120 . S
O662 C655 1.299 . S
O663 Zn651 1.898 . S
O663 C658 1.167 . S
O664 Zn653 2.120 . S
O664 C658 1.299 . S
O665 Zn653 2.114 . S
O665 C667 1.166 . S
O666 Zn651 1.905 . S
O666 C667 1.182 . S
C667 O665 1.166 . S
C667 O666 1.182 . S
O668 Zn653 2.080 . S
O668 C671 1.305 . S
O669 Zn652 1.920 . S
O669 C671 1.234 . S
C670 O656 1.305 . S
C670 O657 1.234 . S
C671 O668 1.305 . S
C671 O669 1.234 . S
C7 C88 1.642 1_545 S
C109 C28 1.642 . S
C130 C46 1.642 1_545 S
C70 C151 1.642 1_554 S
C172 C256 1.642 1_565 S
C196 C277 1.642 . S
C217 C298 1.642 1_545 S
C319 C238 1.642 1_554 S
C343 C427 1.642 . S
C445 C364 1.642 1_556 S
C382 C466 1.642 . S
C490 C406 1.642 . S
C508 C595 1.642 . S
C532 C616 1.642 1_556 S
C550 C634 1.642 . S
C571 C655 1.642 . S
C524 C19 2.524 . S
C208 C40 2.524 1_645 S
C62 C566 2.524 . S
C82 C250 2.524 1_546 S
C104 C607 2.524 . S
C125 C293 2.524 1_565 S
C650 C146 2.524 . S
C335 C167 2.524 1_666 S
C355 C188 2.524 . S
C229 C398 2.524 . S
C272 C439 2.524 . S
C482 C314 2.524 . S
C376 C544 2.524 1_556 S
C587 C418 2.524 1_455 S
C628 C461 2.524 1_456 S
C502 C671 2.524 . S
C20 C583 0.545 . S
C41 C184 0.545 1_455 S
C61 C528 0.545 . S
C213 C83 0.545 . S
C612 C103 0.545 . S
C124 C310 0.545 . S
C667 C145 0.545 . S
C268 C166 0.545 1_655 S
C402 C187 0.545 . S
C209 C3 0.545 1_655 S
C360 C230 0.545 . S
C58 C251 0.545 . S
C457 C271 0.545 . S
C292 C142 0.545 . S
C313 C486 0.545 . S
C100 C334 0.545 1_455 S
C356 C234 0.545 . S
C377 C520 0.545 . S
C192 C397 0.545 . S
C419 C562 0.545 1_655 S
C289 C440 0.545 . S
C460 C646 0.545 1_655 S
C331 C481 0.545 . S
C503 C591 0.545 . S
C66 C523 0.545 . S
C545 C339 0.545 . S
C565 C24 0.545 . S
C394 C586 0.545 1_655 S
C121 C608 0.545 . S
C478 C629 0.545 1_655 S
C649 C163 0.545 . S
C423 C670 0.545 . S
C4 C385 0.869 1_455 S
C25 C403 0.869 1_655 S
C49 C340 0.869 . S
C67 C361 0.869 . S
C469 C91 0.869 1_655 S
C487 C112 0.869 . S
C133 C424 0.869 . S
C448 C154 0.869 1_455 S
C553 C175 0.869 1_455 S
C574 C193 0.869 1_655 S
C511 C214 0.869 . S
C235 C529 0.869 . S
C259 C637 0.869 1_655 S
C658 C280 0.869 . S
C592 C301 0.869 . S
C322 C613 0.869 1_455 S
C150 C16 0.665 . S
C37 C87 0.665 . S
C45 C108 0.665 . S
C129 C79 0.665 . S
C318 C171 0.665 . S
C205 C255 0.665 . S
C276 C226 0.665 . S
C297 C247 0.665 . S
C499 C352 0.665 . S
C436 C373 0.665 . S
C444 C381 0.665 . S
C415 C465 0.665 . S
C654 C507 0.665 . S
C604 C541 0.665 . S
C625 C549 0.665 . S
C570 C633 0.665 . S
