# Generated by pormake.
# Topology afw, (4)-cn, num edge types: 1
# Building blocks:
#     Node 0, Type 0, BuildingBlock: KUFVIS_clean_sbu_0, # of connection points: 4
#     Node 1, Type 0, BuildingBlock: KUFVIS_clean_sbu_0, # of connection points: 4
#     Node 2, Type 0, BuildingBlock: KUFVIS_clean_sbu_0, # of connection points: 4
#     Node 3, Type 0, BuildingBlock: KUFVIS_clean_sbu_0, # of connection points: 4
#     Node 4, Type 0, BuildingBlock: KUFVIS_clean_sbu_0, # of connection points: 4
#     Node 5, Type 0, BuildingBlock: KUFVIS_clean_sbu_0, # of connection points: 4
#     Node 6, Type 0, BuildingBlock: KUFVIS_clean_sbu_0, # of connection points: 4
#     Node 7, Type 0, BuildingBlock: KUFVIS_clean_sbu_0, # of connection points: 4
#     Node 8, Type 0, BuildingBlock: KUFVIS_clean_sbu_0, # of connection points: 4
#     Edge 9, Type (0, 0), BuildingBlock: AJUNOK_clean_linker_0, # of connection points: 2
#     Edge 10, Type (0, 0), BuildingBlock: AJUNOK_clean_linker_0, # of connection points: 2
#     Edge 11, Type (0, 0), BuildingBlock: AJUNOK_clean_linker_0, # of connection points: 2
#     Edge 12, Type (0, 0), BuildingBlock: AJUNOK_clean_linker_0, # of connection points: 2
#     Edge 13, Type (0, 0), BuildingBlock: AJUNOK_clean_linker_0, # of connection points: 2
#     Edge 14, Type (0, 0), BuildingBlock: AJUNOK_clean_linker_0, # of connection points: 2
#     Edge 15, Type (0, 0), BuildingBlock: AJUNOK_clean_linker_0, # of connection points: 2
#     Edge 16, Type (0, 0), BuildingBlock: AJUNOK_clean_linker_0, # of connection points: 2
#     Edge 17, Type (0, 0), BuildingBlock: AJUNOK_clean_linker_0, # of connection points: 2
#     Edge 18, Type (0, 0), BuildingBlock: AJUNOK_clean_linker_0, # of connection points: 2
#     Edge 19, Type (0, 0), BuildingBlock: AJUNOK_clean_linker_0, # of connection points: 2
#     Edge 20, Type (0, 0), BuildingBlock: AJUNOK_clean_linker_0, # of connection points: 2
#     Edge 21, Type (0, 0), BuildingBlock: AJUNOK_clean_linker_0, # of connection points: 2
#     Edge 22, Type (0, 0), BuildingBlock: AJUNOK_clean_linker_0, # of connection points: 2
#     Edge 23, Type (0, 0), BuildingBlock: AJUNOK_clean_linker_0, # of connection points: 2
#     Edge 24, Type (0, 0), BuildingBlock: AJUNOK_clean_linker_0, # of connection points: 2
#     Edge 25, Type (0, 0), BuildingBlock: AJUNOK_clean_linker_0, # of connection points: 2
#     Edge 26, Type (0, 0), BuildingBlock: AJUNOK_clean_linker_0, # of connection points: 2
# Relax obj value: 0.208
# Max RMSD: 0.231
# Mean RMSD: 0.211
data_MOF--net-afw--node1-KUFVIS_clean_sbu_0--edge1-AJUNOK_clean_linker_0
_symmetry_space_group_name_H-M    P1
_symmetry_Int_Tables_number       1
_symmetry_cell_setting            triclinic
loop_
_symmetry_equiv_pos_as_xyz
'x, y, z'
_cell_length_a     30.406174
_cell_length_b     31.54178
_cell_length_c     23.770619
_cell_angle_alpha  91.434998
_cell_angle_beta   90.258914
_cell_angle_gamma 119.09296
loop_
_atom_site_label
_atom_site_type_symbol
_atom_site_fract_x
_atom_site_fract_y
_atom_site_fract_z
_atom_type_partial_charge
Mn0 Mn 0.0173 0.1984 0.01352 0.0
Mn1 Mn 0.12899 0.28953 0.05928 0.0
C2 C 0.08972 0.19199 0.00542 0.0
C3 C 0.94558 0.12456 0.02695 0.0
C4 C 0.07701 0.2928 0.95117 0.0
O5 O 0.99639 0.23696 0.06695 0.0
O6 O 0.07352 0.29414 0.09798 0.0
C7 C 0.12745 0.26278 0.1781 0.0
N8 N 0.1492 0.2712 0.12665 0.0
C9 C 0.21278 0.25274 0.15962 0.0
C10 C 0.19117 0.24407 0.21298 0.0
C11 C 0.14835 0.24914 0.22225 0.0
C12 C 0.19066 0.26679 0.11741 0.0
H13 H 0.0943 0.26624 0.18537 0.0
C14 C 0.02523 0.27354 0.09878 0.0
O15 O 0.947 0.15273 0.98724 0.0
O16 O 0.98415 0.14089 0.06096 0.0
N17 N 0.18466 0.28694 0.02523 0.0
C18 C 0.20016 0.29537 0.97096 0.0
C19 C 0.24223 0.29118 0.95457 0.0
C20 C 0.2678 0.27822 0.99404 0.0
C21 C 0.25125 0.26987 0.04968 0.0
C22 C 0.20949 0.27521 0.06375 0.0
H23 H 0.1804 0.30491 0.9403 0.0
O24 O 0.05136 0.16679 0.97207 0.0
O25 O 0.08477 0.22109 0.04107 0.0
O26 O 0.03915 0.25049 0.95433 0.0
O27 O 0.11204 0.31135 0.98878 0.0
C28 C 0.27412 0.2558 0.09151 0.0
C29 C 0.25491 0.24726 0.14644 0.0
H30 H 0.20687 0.23308 0.247 0.0
H31 H 0.1313 0.24227 0.26324 0.0
H32 H 0.25472 0.29761 0.91152 0.0
H33 H 0.29991 0.27453 0.98108 0.0
H34 H 0.30632 0.25114 0.0818 0.0
H35 H 0.27263 0.23616 0.17814 0.0
Mn36 Mn 0.84127 0.84042 0.03435 0.0
Mn37 Mn 0.84076 0.73925 0.98454 0.0
C38 C 0.91499 0.8345 0.03869 0.0
C39 C 0.85105 0.91786 0.02529 0.0
C40 C 0.79553 0.74472 0.09602 0.0
O41 O 0.77816 0.80937 0.98351 0.0
O42 O 0.78482 0.74517 0.95042 0.0
C43 C 0.86318 0.76367 0.86488 0.0
N44 N 0.87454 0.75029 0.91456 0.0
C45 C 0.93745 0.73579 0.87109 0.0
C46 C 0.92681 0.74985 0.8195 0.0
C47 C 0.88978 0.76422 0.8165 0.0
C48 C 0.91098 0.73765 0.91824 0.0
H49 H 0.83387 0.77358 0.86219 0.0
C50 C 0.76335 0.77136 0.95194 0.0
O51 O 0.8244 0.88977 0.06489 0.0
O52 O 0.87052 0.90027 0.98932 0.0
N53 N 0.89287 0.72841 0.0136 0.0
C54 C 0.89719 0.71442 0.06619 0.0
C55 C 0.92917 0.69486 0.07541 0.0
C56 C 0.95599 0.68959 0.03043 0.0
C57 C 0.95289 0.7064 0.97727 0.0
C58 C 0.92 0.72516 0.9705 0.0
H59 H 0.87482 0.71623 0.10033 0.0
O60 O 0.90793 0.86332 0.0728 0.0
O61 O 0.87822 0.80933 1.00298 0.0
O62 O 0.80718 0.78916 0.09377 0.0
O63 O 0.8052 0.72247 0.05672 0.0
C64 C 0.97916 0.70312 0.93009 0.0
C65 C 0.97226 0.7188 0.87732 0.0
H66 H 0.94653 0.74936 0.78186 0.0
H67 H 0.88119 0.7749 0.77681 0.0
H68 H 0.93172 0.68222 0.11659 0.0
H69 H 0.97774 0.67135 0.03707 0.0
H70 H 0.00447 0.68826 0.93372 0.0
H71 H 0.99292 0.71639 0.8415 0.0
Mn72 Mn 0.20092 0.01103 0.02452 0.0
Mn73 Mn 0.19815 0.91024 0.0721 0.0
C74 C 0.12782 0.93564 0.01344 0.0
C75 C 0.18851 0.07825 0.03341 0.0
C76 C 0.24882 0.9571 0.96387 0.0
O77 O 0.26048 0.03966 0.08038 0.0
O78 O 0.25425 0.96936 0.10793 0.0
C79 C 0.17263 0.91875 0.19061 0.0
N80 N 0.16303 0.89243 0.14141 0.0
C81 C 0.09899 0.82079 0.18413 0.0
C82 C 0.10809 0.84706 0.23531 0.0
C83 C 0.14477 0.89639 0.23841 0.0
C84 C 0.12683 0.84543 0.13758 0.0
H85 H 0.20153 0.95638 0.19341 0.0
C86 C 0.2752 0.01573 0.11037 0.0
O87 O 0.21858 0.07617 0.99629 0.0
O88 O 0.1675 0.04223 0.06715 0.0
N89 N 0.14578 0.84981 0.04252 0.0
C90 C 0.14028 0.83045 0.98945 0.0
C91 C 0.10775 0.78073 0.9797 0.0
C92 C 0.08122 0.75165 0.02461 0.0
C93 C 0.08484 0.77297 0.07813 0.0
C94 C 0.11848 0.82257 0.08541 0.0
H95 H 0.16158 0.85253 0.95523 0.0
O96 O 0.13721 0.97104 0.98032 0.0
O97 O 0.16201 0.94516 0.05217 0.0
O98 O 0.24007 0.99259 0.96819 0.0
O99 O 0.23439 0.92401 1.00011 0.0
C100 C 0.05779 0.74684 0.12496 0.0
C101 C 0.06401 0.77098 0.17761 0.0
H102 H 0.0873 0.8297 0.2725 0.0
H103 H 0.15208 0.91691 0.27776 0.0
H104 H 0.10429 0.76458 0.93807 0.0
H105 H 0.05897 0.71292 0.01751 0.0
H106 H 0.03204 0.70825 0.12102 0.0
H107 H 0.04235 0.75078 0.21304 0.0
Mn108 Mn 0.68863 0.53587 0.35256 0.0
Mn109 Mn 0.79154 0.63387 0.40572 0.0
C110 C 0.76775 0.54213 0.34028 0.0
C111 C 0.6203 0.458 0.36123 0.0
C112 C 0.7359 0.63483 0.29977 0.0
O113 O 0.6599 0.56557 0.40903 0.0
O114 O 0.73205 0.62287 0.44995 0.0
C115 C 0.79956 0.59887 0.51776 0.0
N116 N 0.82057 0.61862 0.46798 0.0
C117 C 0.90231 0.63418 0.50004 0.0
C118 C 0.88169 0.61419 0.55184 0.0
C119 C 0.82996 0.59595 0.56048 0.0
C120 C 0.86982 0.63452 0.45845 0.0
H121 H 0.76 0.58563 0.52476 0.0
C122 C 0.68398 0.59803 0.44739 0.0
O123 O 0.62023 0.48734 0.32403 0.0
O124 O 0.65927 0.47452 0.39491 0.0
N125 N 0.85244 0.64907 0.36777 0.0
C126 C 0.86588 0.66565 0.31476 0.0
C127 C 0.91657 0.68685 0.29972 0.0
C128 C 0.95293 0.69146 0.33955 0.0
C129 C 0.93801 0.67242 0.3932 0.0
C130 C 0.88689 0.65147 0.40565 0.0
H131 H 0.83851 0.66426 0.2847 0.0
O132 O 0.72958 0.51399 0.30784 0.0
O133 O 0.75818 0.56542 0.38007 0.0
O134 O 0.70497 0.58958 0.29701 0.0
O135 O 0.76669 0.65516 0.34102 0.0
C136 C 0.9719 0.67482 0.43548 0.0
C137 C 0.95392 0.65463 0.48836 0.0
H138 H 0.90523 0.61278 0.58528 0.0
H139 H 0.81373 0.58039 0.60028 0.0
H140 H 0.92784 0.70108 0.25812 0.0
H141 H 0.9922 0.71036 0.32849 0.0
H142 H 0.01189 0.69198 0.42783 0.0
H143 H 0.98024 0.65582 0.52005 0.0
Mn144 Mn 0.50492 0.17718 0.36645 0.0
Mn145 Mn 0.52777 0.08948 0.31538 0.0
C146 C 0.58473 0.18553 0.37314 0.0
C147 C 0.50609 0.25096 0.35599 0.0
C148 C 0.47239 0.08103 0.42441 0.0
O149 O 0.44482 0.13866 0.31243 0.0
O150 O 0.46692 0.08444 0.27769 0.0
C151 C 0.55318 0.12227 0.19853 0.0
N152 N 0.56646 0.11125 0.24864 0.0
C153 C 0.64925 0.13306 0.21545 0.0
C154 C 0.63633 0.14433 0.16339 0.0
C155 C 0.58808 0.1389 0.15491 0.0
C156 C 0.61273 0.11617 0.25717 0.0
H157 H 0.51633 0.11865 0.19197 0.0
C158 C 0.43798 0.10349 0.27879 0.0
O159 O 0.47984 0.22163 0.39511 0.0
O160 O 0.52809 0.23573 0.32082 0.0
N161 N 0.58671 0.0922 0.3484 0.0
C162 C 0.5939 0.0816 0.40174 0.0
C163 C 0.64055 0.08595 0.41738 0.0
C164 C 0.67933 0.1013 0.37812 0.0
C165 C 0.67092 0.11163 0.32335 0.0
C166 C 0.62339 0.10589 0.30991 0.0
H167 H 0.56443 0.07026 0.43229 0.0
O168 O 0.57124 0.20929 0.40776 0.0
O169 O 0.55063 0.1569 0.33687 0.0
O170 O 0.47623 0.12319 0.42422 0.0
O171 O 0.48909 0.06457 0.38514 0.0
C172 C 0.70808 0.12816 0.28185 0.0
C173 C 0.69727 0.13888 0.22795 0.0
H174 H 0.66329 0.15759 0.12981 0.0
H175 H 0.57793 0.14779 0.11495 0.0
H176 H 0.64677 0.07798 0.45976 0.0
H177 H 0.71548 0.10527 0.39059 0.0
H178 H 0.74527 0.13318 0.2911 0.0
H179 H 0.72634 0.15205 0.19659 0.0
Mn180 Mn 0.87728 0.36705 0.34423 0.0
Mn181 Mn 0.97629 0.46727 0.2959 0.0
C182 C 0.88013 0.44224 0.35272 0.0
C183 C 0.7974 0.29924 0.33956 0.0
C184 C 0.97931 0.42281 0.4057 0.0
O185 O 0.9076 0.33761 0.28974 0.0
O186 O 0.97406 0.4075 0.26424 0.0
C187 C 0.94452 0.45486 0.17572 0.0
N188 N 0.95952 0.48242 0.22429 0.0
C189 C 0.96428 0.55129 0.17755 0.0
C190 C 0.94882 0.52366 0.12703 0.0
C191 C 0.93854 0.47512 0.12624 0.0
C192 C 0.96839 0.52876 0.22577 0.0
H193 H 0.9374 0.41781 0.17467 0.0
C194 C 0.94781 0.36114 0.26197 0.0
O195 O 0.83139 0.30306 0.37541 0.0
O196 O 0.81084 0.33362 0.30358 0.0
N197 N 0.98351 0.52809 0.32168 0.0
C198 C 0.99821 0.54966 0.37377 0.0
C199 C 0.01384 0.5992 0.38097 0.0
C200 C 0.01366 0.62581 0.33463 0.0
C201 C 0.99556 0.6023 0.28213 0.0
C202 C 0.98183 0.55315 0.27719 0.0
H203 H 0.99959 0.5296 0.40914 0.0
O204 O 0.85443 0.40777 0.38708 0.0
O205 O 0.90444 0.43217 0.31443 0.0
O206 O 0.93544 0.38672 0.39993 0.0
O207 O 0.99835 0.45632 0.37006 0.0
C208 C 0.99249 0.62606 0.23405 0.0
C209 C 0.97609 0.60036 0.18194 0.0
H210 H 0.94475 0.53933 0.08865 0.0
H211 H 0.9266 0.45355 0.08742 0.0
H212 H 0.02744 0.61711 0.42174 0.0
H213 H 0.02891 0.66453 0.33955 0.0
H214 H 0.00261 0.66404 0.23669 0.0
H215 H 0.9734 0.61883 0.14536 0.0
Mn216 Mn 0.35103 0.86473 0.67848 0.0
Mn217 Mn 0.45752 0.95667 0.73433 0.0
C218 C 0.42576 0.86283 0.67281 0.0
C219 C 0.28054 0.78851 0.68619 0.0
C220 C 0.41074 0.96325 0.6238 0.0
O221 O 0.32502 0.89769 0.73314 0.0
O222 O 0.39847 0.956 0.77187 0.0
C223 C 0.45074 0.92158 0.85009 0.0
N224 N 0.47571 0.93523 0.80068 0.0
C225 C 0.53932 0.91685 0.83376 0.0
C226 C 0.51447 0.90296 0.88511 0.0
C227 C 0.47001 0.90537 0.89329 0.0
C228 C 0.51866 0.93324 0.79246 0.0
H229 H 0.41622 0.92277 0.85644 0.0
C230 C 0.35016 0.93244 0.76876 0.0
O231 O 0.28239 0.81795 0.64782 0.0
O232 O 0.31796 0.80455 0.72175 0.0
N233 N 0.51643 0.95922 0.70222 0.0
C234 C 0.53467 0.97187 0.64942 0.0
C235 C 0.57853 0.97052 0.63412 0.0
C236 C 0.60305 0.95598 0.6731 0.0
C237 C 0.58374 0.94336 0.72725 0.0
C238 C 0.54031 0.9461 0.74041 0.0
H239 H 0.51573 0.98253 0.61899 0.0
O240 O 0.38943 0.83816 0.63678 0.0
O241 O 0.41734 0.88875 0.71 0.0
O242 O 0.37403 0.91995 0.62296 0.0
O243 O 0.44263 0.98134 0.66469 0.0
C244 C 0.6054 0.92737 0.76836 0.0
C245 C 0.58321 0.91413 0.82157 0.0
H246 H 0.52895 0.88999 0.91835 0.0
H247 H 0.45045 0.89443 0.93268 0.0
H248 H 0.59311 0.98018 0.59218 0.0
H249 H 0.63648 0.95435 0.66087 0.0
H250 H 0.63886 0.92469 0.75931 0.0
H251 H 0.59994 0.90144 0.85263 0.0
Mn252 Mn 0.1727 0.50376 0.69415 0.0
Mn253 Mn 0.17417 0.4052 0.63881 0.0
C254 C 0.24514 0.497 0.70329 0.0
C255 C 0.18338 0.58157 0.68483 0.0
C256 C 0.12358 0.40499 0.74873 0.0
O257 O 0.11276 0.47529 0.63978 0.0
O258 O 0.1217 0.41446 0.60008 0.0
C259 C 0.20781 0.43942 0.52389 0.0
N260 N 0.21375 0.42086 0.57267 0.0
C261 C 0.28059 0.40993 0.53395 0.0
C262 C 0.27525 0.42889 0.48322 0.0
C263 C 0.23897 0.44408 0.47835 0.0
C264 C 0.24946 0.40746 0.57835 0.0
H265 H 0.17936 0.45032 0.51971 0.0
C266 C 0.10052 0.44087 0.60335 0.0
O267 O 0.15536 0.55342 0.7238 0.0
O268 O 0.2043 0.56421 0.65073 0.0
N269 N 0.22335 0.39149 0.671 0.0
C270 C 0.22411 0.3748 0.72311 0.0
C271 C 0.25639 0.35586 0.73421 0.0
C272 C 0.2871 0.35388 0.6915 0.0
C273 C 0.28717 0.37301 0.63884 0.0
C274 C 0.25396 0.39113 0.63016 0.0
H275 H 0.19912 0.37438 0.75544 0.0
O276 O 0.23644 0.52516 0.73669 0.0
O277 O 0.21101 0.47378 0.66409 0.0
O278 O 0.13634 0.44992 0.75047 0.0
O279 O 0.13332 0.38452 0.7074 0.0
C280 C 0.31755 0.37333 0.59402 0.0
C281 C 0.31504 0.39273 0.54201 0.0
H282 H 0.29867 0.43181 0.44771 0.0
H283 H 0.23459 0.45874 0.43934 0.0
H284 H 0.25649 0.34148 0.77505 0.0
H285 H 0.30971 0.33673 0.69948 0.0
H286 H 0.34297 0.35873 0.59893 0.0
H287 H 0.33914 0.39345 0.5082 0.0
Mn288 Mn 0.53015 0.67687 0.69461 0.0
Mn289 Mn 0.52927 0.57786 0.74673 0.0
C290 C 0.45731 0.6012 0.68692 0.0
C291 C 0.51976 0.74549 0.70045 0.0
C292 C 0.57921 0.62322 0.63793 0.0
O293 O 0.59081 0.70673 0.74954 0.0
O294 O 0.58191 0.63749 0.7846 0.0
C295 C 0.50023 0.58227 0.86464 0.0
N296 N 0.49171 0.55772 0.81427 0.0
C297 C 0.42699 0.48441 0.85345 0.0
C298 C 0.43495 0.50891 0.90573 0.0
C299 C 0.47148 0.55816 0.91122 0.0
C300 C 0.45598 0.51064 0.80825 0.0
H301 H 0.52878 0.6199 0.86928 0.0
C302 C 0.60311 0.68382 0.78435 0.0
O303 O 0.54854 0.74102 0.66356 0.0
O304 O 0.49848 0.7108 0.736 0.0
N305 N 0.47929 0.51735 0.7144 0.0
C306 C 0.47703 0.49894 0.66136 0.0
C307 C 0.44449 0.44952 0.64953 0.0
C308 C 0.41504 0.41961 0.69246 0.0
C309 C 0.41632 0.43971 0.7461 0.0
C310 C 0.44974 0.48915 0.75549 0.0
H311 H 0.50114 0.52136 0.62881 0.0
O312 O 0.46525 0.63556 0.6527 0.0
O313 O 0.49243 0.61197 0.72483 0.0
O314 O 0.56673 0.65615 0.63809 0.0
O315 O 0.56901 0.59348 0.67733 0.0
C316 C 0.38734 0.41231 0.79122 0.0
C317 C 0.39208 0.43482 0.84463 0.0
H318 H 0.41331 0.49026 0.94192 0.0
H319 H 0.47785 0.57733 0.9514 0.0
H320 H 0.44334 0.43419 0.60794 0.0
H321 H 0.39262 0.38106 0.684 0.0
H322 H 0.36155 0.37384 0.78553 0.0
H323 H 0.36939 0.41344 0.87887 0.0
C324 C 0.17635 0.13942 0.98068 0.0
C325 C 0.17277 0.11586 0.03145 0.0
C326 C 0.15163 0.16667 0.97323 0.0
C327 C 0.12412 0.17268 0.01691 0.0
H328 H 0.19544 0.13411 0.94508 0.0
H329 H 0.15246 0.18159 0.93244 0.0
S330 S 0.10629 0.1219 0.15922 0.0
N331 N 0.14204 0.1031 0.12715 0.0
N332 N 0.09602 0.15457 0.11316 0.0
C333 C 0.12271 0.15179 0.06885 0.0
C334 C 0.14719 0.12352 0.07623 0.0
C335 C 0.87692 0.99479 0.97479 0.0
C336 C 0.86398 0.96949 0.02524 0.0
C337 C 0.8982 0.04549 0.97516 0.0
C338 C 0.90845 0.07252 0.02613 0.0
H339 H 0.87272 0.97553 0.93501 0.0
H340 H 0.91067 0.06384 0.93573 0.0
S341 S 0.8771 0.02348 0.16907 0.0
N342 N 0.85822 0.97503 0.12705 0.0
N343 N 0.90026 0.07043 0.12758 0.0
C344 C 0.89277 0.04751 0.07641 0.0
C345 C 0.86996 0.99588 0.07601 0.0
C346 C 1.00039 0.85641 0.07644 0.0
C347 C 0.9676 0.84486 0.02962 0.0
C348 C 0.05296 0.88183 0.07056 0.0
C349 C 0.07489 0.89586 0.01746 0.0
H350 H 0.98533 0.84947 0.11849 0.0
H351 H 0.07617 0.89463 0.10839 0.0
S352 S 0.00614 0.87266 0.88125 0.0
N353 N 0.9614 0.84934 0.92829 0.0
N354 N 0.05971 0.89315 0.91685 0.0
C355 C 0.04255 0.88106 0.96996 0.0
C356 C 0.98907 0.85643 0.97605 0.0
C357 C 0.85692 0.50132 0.3962 0.0
C358 C 0.86699 0.48159 0.34735 0.0
C359 C 0.82918 0.5262 0.3935 0.0
C360 C 0.81149 0.53333 0.34172 0.0
H361 H 0.86665 0.49373 0.43723 0.0
H362 H 0.81709 0.5351 0.43258 0.0
S363 S 0.82981 0.49127 0.20135 0.0
N364 N 0.85715 0.47142 0.24566 0.0
N365 N 0.80962 0.52216 0.24025 0.0
C366 C 0.82525 0.51759 0.29232 0.0
C367 C 0.8519 0.4908 0.29515 0.0
C368 C 0.54058 0.32937 0.40979 0.0
C369 C 0.52124 0.30306 0.3587 0.0
C370 C 0.57051 0.38013 0.41086 0.0
C371 C 0.58089 0.4063 0.36109 0.0
H372 H 0.53633 0.31041 0.4485 0.0
H373 H 0.58754 0.39876 0.45052 0.0
S374 S 0.53319 0.35444 0.21764 0.0
N375 N 0.51082 0.30682 0.25807 0.0
N376 N 0.56504 0.40229 0.26013 0.0
C377 C 0.55798 0.38064 0.31051 0.0
C378 C 0.52866 0.32893 0.3093 0.0
C379 C 0.65736 0.22508 0.30984 0.0
C380 C 0.6386 0.20518 0.36238 0.0
C381 C 0.70923 0.25303 0.30147 0.0
C382 C 0.74405 0.2618 0.34535 0.0
H383 H 0.63169 0.22124 0.27584 0.0
H384 H 0.72197 0.26957 0.26114 0.0
S385 S 0.71329 0.21432 0.48976 0.0
N386 N 0.65801 0.19419 0.45798 0.0
N387 N 0.75571 0.24501 0.44229 0.0
C388 C 0.72558 0.23952 0.39718 0.0
C389 C 0.67273 0.21196 0.40584 0.0
C390 C 0.45913 0.82293 0.7353 0.0
C391 C 0.46143 0.84497 0.68389 0.0
C392 C 0.48117 0.79323 0.7418 0.0
C393 C 0.5065 0.78485 0.6972 0.0
H394 H 0.43708 0.82579 0.76938 0.0
H395 H 0.47603 0.77475 0.78102 0.0
S396 S 0.52781 0.83944 0.55633 0.0
N397 N 0.4937 0.85966 0.58935 0.0
N398 N 0.53709 0.80562 0.60169 0.0
C399 C 0.51243 0.81001 0.64708 0.0
C400 C 0.48909 0.83941 0.64027 0.0
C401 C 0.22933 0.71097 0.73467 0.0
C402 C 0.24317 0.73634 0.68426 0.0
C403 C 0.20559 0.66012 0.73426 0.0
C404 C 0.19637 0.63311 0.68346 0.0
H405 H 0.23949 0.73068 0.77484 0.0
H406 H 0.1981 0.6422 0.77415 0.0
S407 S 0.21997 0.68172 0.53985 0.0
N408 N 0.24092 0.73034 0.58201 0.0
N409 N 0.19798 0.6348 0.58138 0.0
C410 C 0.20689 0.65776 0.63268 0.0
C411 C 0.22982 0.70946 0.63304 0.0
C412 C 0.32162 0.51354 0.64831 0.0
C413 C 0.29778 0.50614 0.70056 0.0
C414 C 0.37437 0.53992 0.64469 0.0
C415 C 0.40506 0.56115 0.69299 0.0
H416 H 0.29963 0.50373 0.60963 0.0
H417 H 0.39093 0.54745 0.60337 0.0
S418 S 0.3606 0.55326 0.83946 0.0
N419 N 0.30904 0.51913 0.80176 0.0
N420 N 0.40699 0.57398 0.79429 0.0
C421 C 0.38171 0.55224 0.74554 0.0
C422 C 0.32838 0.52336 0.74941 0.0
C423 C 0.11103 0.37204 0.90236 0.0
C424 C 0.08236 0.32102 0.89995 0.0
C425 C 0.121 0.39926 0.85359 0.0
C426 C 0.10352 0.3765 0.80024 0.0
H427 H 0.12693 0.39113 0.94211 0.0
H428 H 0.14499 0.43824 0.85744 0.0
S429 S 0.02412 0.24422 0.77103 0.0
N430 N 0.03402 0.24909 0.83982 0.0
N431 N 0.05369 0.30019 0.7483 0.0
C432 C 0.0732 0.32572 0.79746 0.0
C433 C 0.06236 0.29803 0.84721 0.0
C434 C 0.68386 0.70422 0.91458 0.0
C435 C 0.71826 0.75399 0.9154 0.0
C436 C 0.64659 0.68289 0.87287 0.0
C437 C 0.64187 0.71022 0.82945 0.0
H438 H 0.68702 0.68104 0.94542 0.0
H439 H 0.62206 0.64404 0.87433 0.0
S440 S 0.72082 0.8434 0.81544 0.0
N441 N 0.74425 0.83125 0.87182 0.0
N442 N 0.67329 0.7911 0.7926 0.0
C443 C 0.67454 0.76081 0.8314 0.0
C444 C 0.7129 0.78271 0.87456 0.0
C445 C 0.2868 0.90022 0.84401 0.0
C446 C 0.32237 0.94047 0.81493 0.0
C447 C 0.26409 0.90613 0.89251 0.0
C448 C 0.27473 0.95249 0.913 0.0
H449 H 0.27783 0.8638 0.8304 0.0
H450 H 0.23796 0.87389 0.91395 0.0
S451 S 0.36503 0.06973 0.85137 0.0
N452 N 0.36796 0.02826 0.8101 0.0
N453 N 0.32335 0.03958 0.89978 0.0
C454 C 0.30966 0.99312 0.88357 0.0
C455 C 0.33397 0.98706 0.835 0.0
C456 C 0.37873 0.03596 0.21458 0.0
C457 C 0.39522 0.08298 0.23739 0.0
C458 C 0.34095 0.0156 0.17309 0.0
C459 C 0.31755 0.04112 0.15189 0.0
H460 H 0.39511 0.01427 0.22892 0.0
H461 H 0.33009 0.97918 0.15754 0.0
S462 S 0.34679 0.16589 0.19678 0.0
N463 N 0.38542 0.15507 0.23533 0.0
N464 N 0.3137 0.11642 0.15702 0.0
C465 C 0.33357 0.08838 0.17399 0.0
C466 C 0.37231 0.10926 0.21689 0.0
C467 C 0.03439 0.33924 0.16633 0.0
C468 C 0.00299 0.29359 0.14028 0.0
C469 C 0.0162 0.35952 0.20652 0.0
C470 C 0.96563 0.33528 0.22304 0.0
H471 H 0.07366 0.36008 0.15543 0.0
H472 H 0.04233 0.39498 0.22452 0.0
S473 S 0.8675 0.21395 0.16959 0.0
N474 N 0.91858 0.22379 0.13526 0.0
N475 N 0.88424 0.26241 0.21104 0.0
C476 C 0.93367 0.28917 0.1983 0.0
C477 C 0.95229 0.26835 0.1568 0.0
C478 C 0.73039 0.64047 0.19544 0.0
C479 C 0.74245 0.66383 0.249 0.0
C480 C 0.74578 0.66703 0.14616 0.0
C481 C 0.77318 0.7181 0.14822 0.0
H482 H 0.71151 0.60123 0.1914 0.0
H483 H 0.73751 0.64723 0.10613 0.0
S484 S 0.80927 0.79701 0.27765 0.0
N485 N 0.77981 0.74122 0.30094 0.0
N486 N 0.80814 0.79116 0.20837 0.0
C487 C 0.78257 0.74204 0.20132 0.0
C488 C 0.76741 0.71493 0.25163 0.0
C489 C 0.0702 0.47652 0.53062 0.0
C490 C 0.06518 0.43516 0.55732 0.0
C491 C 0.04293 0.47227 0.4811 0.0
C492 C 0.00868 0.42649 0.4573 0.0
H493 H 0.09698 0.5125 0.54675 0.0
H494 H 0.04884 0.50516 0.46147 0.0
S495 S 0.98101 0.30701 0.51233 0.0
N496 N 0.02351 0.34714 0.55695 0.0
N497 N 0.97082 0.33887 0.46502 0.0
C498 C 0.00247 0.38482 0.48454 0.0
C499 C 0.03107 0.38923 0.53423 0.0
C500 C 0.68131 0.62555 0.5463 0.0
C501 C 0.65606 0.60549 0.49431 0.0
C502 C 0.65614 0.6311 0.5927 0.0
C503 C 0.60513 0.61789 0.58853 0.0
H504 H 0.72077 0.63632 0.5518 0.0
H505 H 0.67676 0.64595 0.63205 0.0
S506 S 0.52148 0.56513 0.46294 0.0
N507 N 0.57657 0.57274 0.44211 0.0
N508 N 0.52985 0.58474 0.5293 0.0
C509 C 0.57939 0.59867 0.53706 0.0
C510 C 0.6047 0.59205 0.48995 0.0
C511 C 0.44639 0.04378 0.577 0.0
C512 C 0.4201 0.99267 0.57264 0.0
C513 C 0.46085 0.07219 0.52884 0.0
C514 C 0.45072 0.05062 0.47436 0.0
H515 H 0.45676 0.06203 0.61801 0.0
H516 H 0.48215 0.11132 0.5344 0.0
S517 S 0.38115 0.91854 0.43937 0.0
N518 N 0.38261 0.92187 0.50884 0.0
N519 N 0.41081 0.97518 0.41881 0.0
C520 C 0.42335 0.99968 0.46933 0.0
C521 C 0.40774 0.97076 0.51827 0.0
loop_
_geom_bond_atom_site_label_1
_geom_bond_atom_site_label_2
_geom_bond_distance
_geom_bond_site_symmetry_2
_ccdc_geom_bond_type
Mn0 O5 2.095 1_455 S
Mn0 O15 2.162 1_454 S
Mn0 O16 2.297 1_455 S
Mn0 O24 2.385 1_554 S
Mn0 O25 2.209 . S
Mn0 O26 2.094 1_554 S
Mn1 O6 2.121 . S
Mn1 N8 2.257 . S
Mn1 N17 2.282 . S
Mn1 O25 2.215 . S
Mn1 O27 2.117 1_554 S
C2 O24 1.234 1_554 S
C2 O25 1.283 . S
C3 O15 1.281 1_554 S
C3 O16 1.236 . S
C4 O26 1.240 . S
C4 O27 1.264 . S
O5 Mn0 2.095 1_655 S
O5 C14 1.247 1_655 S
O6 Mn1 2.121 . S
O6 C14 1.274 . S
C7 N8 1.326 . S
C7 C11 1.460 . S
C7 H13 0.929 . S
N8 Mn1 2.257 . S
N8 C7 1.326 . S
N8 C12 1.362 . S
C9 C10 1.258 . S
C9 C12 1.431 . S
C9 C29 1.449 . S
C10 C9 1.258 . S
C10 C11 1.477 . S
C10 H30 0.931 . S
C11 C7 1.460 . S
C11 C10 1.477 . S
C11 H31 0.930 . S
C12 N8 1.362 . S
C12 C9 1.431 . S
C12 C22 1.476 . S
H13 C7 0.929 . S
C14 O5 1.247 1_455 S
C14 O6 1.274 . S
O15 Mn0 2.162 1_656 S
O15 C3 1.281 1_556 S
O16 Mn0 2.297 1_655 S
O16 C3 1.236 . S
N17 Mn1 2.282 . S
N17 C18 1.328 1_554 S
N17 C22 1.318 . S
C18 N17 1.328 1_556 S
C18 C19 1.457 . S
C18 H23 0.929 . S
C19 C18 1.457 . S
C19 C20 1.291 . S
C19 H32 0.931 . S
C20 C19 1.291 . S
C20 C21 1.373 1_556 S
C20 H33 0.929 . S
C21 C20 1.373 1_554 S
C21 C22 1.396 . S
C21 C28 1.403 . S
C22 C12 1.476 . S
C22 N17 1.318 . S
C22 C21 1.396 . S
H23 C18 0.929 . S
O24 Mn0 2.385 1_556 S
O24 C2 1.234 1_556 S
O25 Mn0 2.209 . S
O25 Mn1 2.215 . S
O25 C2 1.283 . S
O26 Mn0 2.094 1_556 S
O26 C4 1.240 . S
O27 Mn1 2.117 1_556 S
O27 C4 1.264 . S
C28 C21 1.403 . S
C28 C29 1.399 . S
C28 H34 0.929 . S
C29 C9 1.449 . S
C29 C28 1.399 . S
C29 H35 0.930 . S
H30 C10 0.931 . S
H31 C11 0.930 . S
H32 C19 0.931 . S
H33 C20 0.929 . S
H34 C28 0.929 . S
H35 C29 0.930 . S
Mn36 O41 2.095 1_554 S
Mn36 O51 2.162 . S
Mn36 O52 2.297 1_554 S
Mn36 O60 2.385 . S
Mn36 O61 2.209 1_554 S
Mn36 O62 2.094 . S
Mn37 O42 2.121 . S
Mn37 N44 2.257 . S
Mn37 N53 2.282 1_556 S
Mn37 O61 2.215 . S
Mn37 O63 2.117 1_556 S
C38 O60 1.234 . S
C38 O61 1.283 1_554 S
C39 O51 1.281 . S
C39 O52 1.236 1_554 S
C40 O62 1.240 . S
C40 O63 1.264 . S
O41 Mn36 2.095 1_556 S
O41 C50 1.250 . S
O42 Mn37 2.121 . S
O42 C50 1.258 . S
C43 N44 1.326 . S
C43 C47 1.460 . S
C43 H49 0.929 . S
N44 Mn37 2.257 . S
N44 C43 1.326 . S
N44 C48 1.362 . S
C45 C46 1.258 . S
C45 C48 1.431 . S
C45 C65 1.449 . S
C46 C45 1.258 . S
C46 C47 1.477 . S
C46 H66 0.931 . S
C47 C43 1.460 . S
C47 C46 1.477 . S
C47 H67 0.930 . S
C48 N44 1.362 . S
C48 C45 1.431 . S
C48 C58 1.476 . S
H49 C43 0.929 . S
C50 O41 1.250 . S
C50 O42 1.258 . S
O51 Mn36 2.162 . S
O51 C39 1.281 . S
O52 Mn36 2.297 1_556 S
O52 C39 1.236 1_556 S
N53 Mn37 2.282 1_554 S
N53 C54 1.328 . S
N53 C58 1.318 1_554 S
C54 N53 1.328 . S
C54 C55 1.457 . S
C54 H59 0.929 . S
C55 C54 1.457 . S
C55 C56 1.291 . S
C55 H68 0.931 . S
C56 C55 1.291 . S
C56 C57 1.373 1_554 S
C56 H69 0.929 1_655 S
C57 C56 1.373 1_556 S
C57 C58 1.396 . S
C57 C64 1.403 1_655 S
C58 C48 1.476 . S
C58 N53 1.318 1_556 S
C58 C57 1.396 . S
H59 C54 0.929 . S
O60 Mn36 2.385 . S
O60 C38 1.234 . S
O61 Mn36 2.209 1_556 S
O61 Mn37 2.215 . S
O61 C38 1.283 1_556 S
O62 Mn36 2.094 . S
O62 C40 1.240 . S
O63 Mn37 2.117 1_554 S
O63 C40 1.264 . S
C64 C57 1.403 1_455 S
C64 C65 1.399 1_455 S
C64 H70 0.929 . S
C65 C45 1.449 . S
C65 C64 1.399 1_655 S
C65 H71 0.930 1_655 S
H66 C46 0.931 . S
H67 C47 0.930 . S
H68 C55 0.931 . S
H69 C56 0.929 1_455 S
H70 C64 0.929 . S
H71 C65 0.930 1_455 S
Mn72 O77 2.095 . S
Mn72 O87 2.162 1_554 S
Mn72 O88 2.297 . S
Mn72 O96 2.385 1_544 S
Mn72 O97 2.209 1_545 S
Mn72 O98 2.094 1_554 S
Mn73 O78 2.121 . S
Mn73 N80 2.257 . S
Mn73 N89 2.282 . S
Mn73 O97 2.215 . S
Mn73 O99 2.117 1_554 S
C74 O96 1.234 1_554 S
C74 O97 1.283 . S
C75 O87 1.281 1_554 S
C75 O88 1.236 . S
C76 O98 1.240 1_565 S
C76 O99 1.264 . S
O77 Mn72 2.095 . S
O77 C86 1.250 . S
O78 Mn73 2.121 . S
O78 C86 1.258 1_565 S
C79 N80 1.326 . S
C79 C83 1.460 . S
C79 H85 0.929 . S
N80 Mn73 2.257 . S
N80 C79 1.326 . S
N80 C84 1.362 . S
C81 C82 1.258 . S
C81 C84 1.431 . S
C81 C101 1.449 . S
C82 C81 1.258 . S
C82 C83 1.477 . S
C82 H102 0.931 . S
C83 C79 1.460 . S
C83 C82 1.477 . S
C83 H103 0.930 . S
C84 N80 1.362 . S
C84 C81 1.431 . S
C84 C94 1.476 . S
H85 C79 0.929 . S
C86 O77 1.250 . S
C86 O78 1.258 1_545 S
O87 Mn72 2.162 1_556 S
O87 C75 1.281 1_556 S
O88 Mn72 2.297 . S
O88 C75 1.236 . S
N89 Mn73 2.282 . S
N89 C90 1.328 1_554 S
N89 C94 1.318 . S
C90 N89 1.328 1_556 S
C90 C91 1.457 . S
C90 H95 0.929 . S
C91 C90 1.457 . S
C91 C92 1.291 . S
C91 H104 0.931 . S
C92 C91 1.291 . S
C92 C93 1.373 1_556 S
C92 H105 0.929 . S
C93 C92 1.373 1_554 S
C93 C94 1.396 . S
C93 C100 1.403 . S
C94 C84 1.476 . S
C94 N89 1.318 . S
C94 C93 1.396 . S
H95 C90 0.929 . S
O96 Mn72 2.385 1_566 S
O96 C74 1.234 1_556 S
O97 Mn72 2.209 1_565 S
O97 Mn73 2.215 . S
O97 C74 1.283 . S
O98 Mn72 2.094 1_556 S
O98 C76 1.240 1_545 S
O99 Mn73 2.117 1_556 S
O99 C76 1.264 . S
C100 C93 1.403 . S
C100 C101 1.399 . S
C100 H106 0.929 . S
C101 C81 1.449 . S
C101 C100 1.399 . S
C101 H107 0.930 . S
H102 C82 0.931 . S
H103 C83 0.930 . S
H104 C91 0.931 . S
H105 C92 0.929 . S
H106 C100 0.929 . S
H107 C101 0.930 . S
Mn108 O113 2.095 . S
Mn108 O123 2.162 . S
Mn108 O124 2.297 . S
Mn108 O132 2.385 . S
Mn108 O133 2.209 . S
Mn108 O134 2.094 . S
Mn109 O114 2.121 . S
Mn109 N116 2.257 . S
Mn109 N125 2.282 . S
Mn109 O133 2.215 . S
Mn109 O135 2.117 . S
C110 O132 1.234 . S
C110 O133 1.283 . S
C111 O123 1.281 . S
C111 O124 1.236 . S
C112 O134 1.240 . S
C112 O135 1.264 . S
O113 Mn108 2.095 . S
O113 C122 1.250 . S
O114 Mn109 2.121 . S
O114 C122 1.258 . S
C115 N116 1.326 . S
C115 C119 1.460 . S
C115 H121 0.929 . S
N116 Mn109 2.257 . S
N116 C115 1.326 . S
N116 C120 1.362 . S
C117 C118 1.258 . S
C117 C120 1.431 . S
C117 C137 1.449 . S
C118 C117 1.258 . S
C118 C119 1.477 . S
C118 H138 0.931 . S
C119 C115 1.460 . S
C119 C118 1.477 . S
C119 H139 0.930 . S
C120 N116 1.362 . S
C120 C117 1.431 . S
C120 C130 1.476 . S
H121 C115 0.929 . S
C122 O113 1.250 . S
C122 O114 1.258 . S
O123 Mn108 2.162 . S
O123 C111 1.281 . S
O124 Mn108 2.297 . S
O124 C111 1.236 . S
N125 Mn109 2.282 . S
N125 C126 1.328 . S
N125 C130 1.318 . S
C126 N125 1.328 . S
C126 C127 1.457 . S
C126 H131 0.929 . S
C127 C126 1.457 . S
C127 C128 1.291 . S
C127 H140 0.931 . S
C128 C127 1.291 . S
C128 C129 1.373 . S
C128 H141 0.929 . S
C129 C128 1.373 . S
C129 C130 1.396 . S
C129 C136 1.403 . S
C130 C120 1.476 . S
C130 N125 1.318 . S
C130 C129 1.396 . S
H131 C126 0.929 . S
O132 Mn108 2.385 . S
O132 C110 1.234 . S
O133 Mn108 2.209 . S
O133 Mn109 2.215 . S
O133 C110 1.283 . S
O134 Mn108 2.094 . S
O134 C112 1.240 . S
O135 Mn109 2.117 . S
O135 C112 1.264 . S
C136 C129 1.403 . S
C136 C137 1.399 . S
C136 H142 0.929 1_655 S
C137 C117 1.449 . S
C137 C136 1.399 . S
C137 H143 0.930 . S
H138 C118 0.931 . S
H139 C119 0.930 . S
H140 C127 0.931 . S
H141 C128 0.929 . S
H142 C136 0.929 1_455 S
H143 C137 0.930 . S
Mn144 O149 2.095 . S
Mn144 O159 2.162 . S
Mn144 O160 2.297 . S
Mn144 O168 2.385 . S
Mn144 O169 2.209 . S
Mn144 O170 2.094 . S
Mn145 O150 2.121 . S
Mn145 N152 2.257 . S
Mn145 N161 2.282 . S
Mn145 O169 2.215 . S
Mn145 O171 2.117 . S
C146 O168 1.234 . S
C146 O169 1.283 . S
C147 O159 1.281 . S
C147 O160 1.236 . S
C148 O170 1.240 . S
C148 O171 1.264 . S
O149 Mn144 2.095 . S
O149 C158 1.250 . S
O150 Mn145 2.121 . S
O150 C158 1.258 . S
C151 N152 1.326 . S
C151 C155 1.460 . S
C151 H157 0.929 . S
N152 Mn145 2.257 . S
N152 C151 1.326 . S
N152 C156 1.362 . S
C153 C154 1.258 . S
C153 C156 1.431 . S
C153 C173 1.449 . S
C154 C153 1.258 . S
C154 C155 1.477 . S
C154 H174 0.931 . S
C155 C151 1.460 . S
C155 C154 1.477 . S
C155 H175 0.930 . S
C156 N152 1.362 . S
C156 C153 1.431 . S
C156 C166 1.476 . S
H157 C151 0.929 . S
C158 O149 1.250 . S
C158 O150 1.258 . S
O159 Mn144 2.162 . S
O159 C147 1.281 . S
O160 Mn144 2.297 . S
O160 C147 1.236 . S
N161 Mn145 2.282 . S
N161 C162 1.328 . S
N161 C166 1.318 . S
C162 N161 1.328 . S
C162 C163 1.457 . S
C162 H167 0.929 . S
C163 C162 1.457 . S
C163 C164 1.291 . S
C163 H176 0.931 . S
C164 C163 1.291 . S
C164 C165 1.373 . S
C164 H177 0.929 . S
C165 C164 1.373 . S
C165 C166 1.396 . S
C165 C172 1.403 . S
C166 C156 1.476 . S
C166 N161 1.318 . S
C166 C165 1.396 . S
H167 C162 0.929 . S
O168 Mn144 2.385 . S
O168 C146 1.234 . S
O169 Mn144 2.209 . S
O169 Mn145 2.215 . S
O169 C146 1.283 . S
O170 Mn144 2.094 . S
O170 C148 1.240 . S
O171 Mn145 2.117 . S
O171 C148 1.264 . S
C172 C165 1.403 . S
C172 C173 1.399 . S
C172 H178 0.929 . S
C173 C153 1.449 . S
C173 C172 1.399 . S
C173 H179 0.930 . S
H174 C154 0.931 . S
H175 C155 0.930 . S
H176 C163 0.931 . S
H177 C164 0.929 . S
H178 C172 0.929 . S
H179 C173 0.930 . S
Mn180 O185 2.095 . S
Mn180 O195 2.162 . S
Mn180 O196 2.297 . S
Mn180 O204 2.385 . S
Mn180 O205 2.209 . S
Mn180 O206 2.094 . S
Mn181 O186 2.121 . S
Mn181 N188 2.257 . S
Mn181 N197 2.282 . S
Mn181 O205 2.215 . S
Mn181 O207 2.117 . S
C182 O204 1.234 . S
C182 O205 1.283 . S
C183 O195 1.281 . S
C183 O196 1.236 . S
C184 O206 1.240 . S
C184 O207 1.264 . S
O185 Mn180 2.095 . S
O185 C194 1.250 . S
O186 Mn181 2.121 . S
O186 C194 1.258 . S
C187 N188 1.326 . S
C187 C191 1.460 . S
C187 H193 0.929 . S
N188 Mn181 2.257 . S
N188 C187 1.326 . S
N188 C192 1.362 . S
C189 C190 1.258 . S
C189 C192 1.431 . S
C189 C209 1.449 . S
C190 C189 1.258 . S
C190 C191 1.477 . S
C190 H210 0.931 . S
C191 C187 1.460 . S
C191 C190 1.477 . S
C191 H211 0.930 . S
C192 N188 1.362 . S
C192 C189 1.431 . S
C192 C202 1.476 . S
H193 C187 0.929 . S
C194 O185 1.250 . S
C194 O186 1.258 . S
O195 Mn180 2.162 . S
O195 C183 1.281 . S
O196 Mn180 2.297 . S
O196 C183 1.236 . S
N197 Mn181 2.282 . S
N197 C198 1.328 . S
N197 C202 1.318 . S
C198 N197 1.328 . S
C198 C199 1.457 . S
C198 H203 0.929 . S
C199 C198 1.457 . S
C199 C200 1.291 . S
C199 H212 0.931 . S
C200 C199 1.291 . S
C200 C201 1.373 . S
C200 H213 0.929 . S
C201 C200 1.373 . S
C201 C202 1.396 . S
C201 C208 1.403 . S
C202 C192 1.476 . S
C202 N197 1.318 . S
C202 C201 1.396 . S
H203 C198 0.929 . S
O204 Mn180 2.385 . S
O204 C182 1.234 . S
O205 Mn180 2.209 . S
O205 Mn181 2.215 . S
O205 C182 1.283 . S
O206 Mn180 2.094 . S
O206 C184 1.240 . S
O207 Mn181 2.117 . S
O207 C184 1.264 . S
C208 C201 1.403 . S
C208 C209 1.399 . S
C208 H214 0.929 . S
C209 C189 1.449 . S
C209 C208 1.399 . S
C209 H215 0.930 . S
H210 C190 0.931 . S
H211 C191 0.930 . S
H212 C199 0.931 . S
H213 C200 0.929 . S
H214 C208 0.929 . S
H215 C209 0.930 . S
Mn216 O221 2.095 . S
Mn216 O231 2.162 . S
Mn216 O232 2.297 . S
Mn216 O240 2.385 . S
Mn216 O241 2.209 . S
Mn216 O242 2.094 . S
Mn217 O222 2.121 . S
Mn217 N224 2.257 . S
Mn217 N233 2.282 . S
Mn217 O241 2.215 . S
Mn217 O243 2.117 . S
C218 O240 1.234 . S
C218 O241 1.283 . S
C219 O231 1.281 . S
C219 O232 1.236 . S
C220 O242 1.240 . S
C220 O243 1.264 . S
O221 Mn216 2.095 . S
O221 C230 1.250 . S
O222 Mn217 2.121 . S
O222 C230 1.258 . S
C223 N224 1.326 . S
C223 C227 1.460 . S
C223 H229 0.929 . S
N224 Mn217 2.257 . S
N224 C223 1.326 . S
N224 C228 1.362 . S
C225 C226 1.258 . S
C225 C228 1.431 . S
C225 C245 1.449 . S
C226 C225 1.258 . S
C226 C227 1.477 . S
C226 H246 0.931 . S
C227 C223 1.460 . S
C227 C226 1.477 . S
C227 H247 0.930 . S
C228 N224 1.362 . S
C228 C225 1.431 . S
C228 C238 1.476 . S
H229 C223 0.929 . S
C230 O221 1.250 . S
C230 O222 1.258 . S
O231 Mn216 2.162 . S
O231 C219 1.281 . S
O232 Mn216 2.297 . S
O232 C219 1.236 . S
N233 Mn217 2.282 . S
N233 C234 1.328 . S
N233 C238 1.318 . S
C234 N233 1.328 . S
C234 C235 1.457 . S
C234 H239 0.929 . S
C235 C234 1.457 . S
C235 C236 1.291 . S
C235 H248 0.931 . S
C236 C235 1.291 . S
C236 C237 1.373 . S
C236 H249 0.929 . S
C237 C236 1.373 . S
C237 C238 1.396 . S
C237 C244 1.403 . S
C238 C228 1.476 . S
C238 N233 1.318 . S
C238 C237 1.396 . S
H239 C234 0.929 . S
O240 Mn216 2.385 . S
O240 C218 1.234 . S
O241 Mn216 2.209 . S
O241 Mn217 2.215 . S
O241 C218 1.283 . S
O242 Mn216 2.094 . S
O242 C220 1.240 . S
O243 Mn217 2.117 . S
O243 C220 1.264 . S
C244 C237 1.403 . S
C244 C245 1.399 . S
C244 H250 0.929 . S
C245 C225 1.449 . S
C245 C244 1.399 . S
C245 H251 0.930 . S
H246 C226 0.931 . S
H247 C227 0.930 . S
H248 C235 0.931 . S
H249 C236 0.929 . S
H250 C244 0.929 . S
H251 C245 0.930 . S
Mn252 O257 2.095 . S
Mn252 O267 2.162 . S
Mn252 O268 2.297 . S
Mn252 O276 2.385 . S
Mn252 O277 2.209 . S
Mn252 O278 2.094 . S
Mn253 O258 2.121 . S
Mn253 N260 2.257 . S
Mn253 N269 2.282 . S
Mn253 O277 2.215 . S
Mn253 O279 2.117 . S
C254 O276 1.234 . S
C254 O277 1.283 . S
C255 O267 1.281 . S
C255 O268 1.236 . S
C256 O278 1.240 . S
C256 O279 1.264 . S
O257 Mn252 2.095 . S
O257 C266 1.250 . S
O258 Mn253 2.121 . S
O258 C266 1.258 . S
C259 N260 1.326 . S
C259 C263 1.460 . S
C259 H265 0.929 . S
N260 Mn253 2.257 . S
N260 C259 1.326 . S
N260 C264 1.362 . S
C261 C262 1.258 . S
C261 C264 1.431 . S
C261 C281 1.449 . S
C262 C261 1.258 . S
C262 C263 1.477 . S
C262 H282 0.931 . S
C263 C259 1.460 . S
C263 C262 1.477 . S
C263 H283 0.930 . S
C264 N260 1.362 . S
C264 C261 1.431 . S
C264 C274 1.476 . S
H265 C259 0.929 . S
C266 O257 1.250 . S
C266 O258 1.258 . S
O267 Mn252 2.162 . S
O267 C255 1.281 . S
O268 Mn252 2.297 . S
O268 C255 1.236 . S
N269 Mn253 2.282 . S
N269 C270 1.328 . S
N269 C274 1.318 . S
C270 N269 1.328 . S
C270 C271 1.457 . S
C270 H275 0.929 . S
C271 C270 1.457 . S
C271 C272 1.291 . S
C271 H284 0.931 . S
C272 C271 1.291 . S
C272 C273 1.373 . S
C272 H285 0.929 . S
C273 C272 1.373 . S
C273 C274 1.396 . S
C273 C280 1.403 . S
C274 C264 1.476 . S
C274 N269 1.318 . S
C274 C273 1.396 . S
H275 C270 0.929 . S
O276 Mn252 2.385 . S
O276 C254 1.234 . S
O277 Mn252 2.209 . S
O277 Mn253 2.215 . S
O277 C254 1.283 . S
O278 Mn252 2.094 . S
O278 C256 1.240 . S
O279 Mn253 2.117 . S
O279 C256 1.264 . S
C280 C273 1.403 . S
C280 C281 1.399 . S
C280 H286 0.929 . S
C281 C261 1.449 . S
C281 C280 1.399 . S
C281 H287 0.930 . S
H282 C262 0.931 . S
H283 C263 0.930 . S
H284 C271 0.931 . S
H285 C272 0.929 . S
H286 C280 0.929 . S
H287 C281 0.930 . S
Mn288 O293 2.095 . S
Mn288 O303 2.162 . S
Mn288 O304 2.297 . S
Mn288 O312 2.385 . S
Mn288 O313 2.209 . S
Mn288 O314 2.094 . S
Mn289 O294 2.121 . S
Mn289 N296 2.257 . S
Mn289 N305 2.282 . S
Mn289 O313 2.215 . S
Mn289 O315 2.117 . S
C290 O312 1.234 . S
C290 O313 1.283 . S
C291 O303 1.281 . S
C291 O304 1.236 . S
C292 O314 1.240 . S
C292 O315 1.264 . S
O293 Mn288 2.095 . S
O293 C302 1.250 . S
O294 Mn289 2.121 . S
O294 C302 1.258 . S
C295 N296 1.326 . S
C295 C299 1.460 . S
C295 H301 0.929 . S
N296 Mn289 2.257 . S
N296 C295 1.326 . S
N296 C300 1.362 . S
C297 C298 1.258 . S
C297 C300 1.431 . S
C297 C317 1.449 . S
C298 C297 1.258 . S
C298 C299 1.477 . S
C298 H318 0.931 . S
C299 C295 1.460 . S
C299 C298 1.477 . S
C299 H319 0.930 . S
C300 N296 1.362 . S
C300 C297 1.431 . S
C300 C310 1.476 . S
H301 C295 0.929 . S
C302 O293 1.250 . S
C302 O294 1.258 . S
O303 Mn288 2.162 . S
O303 C291 1.281 . S
O304 Mn288 2.297 . S
O304 C291 1.236 . S
N305 Mn289 2.282 . S
N305 C306 1.328 . S
N305 C310 1.318 . S
C306 N305 1.328 . S
C306 C307 1.457 . S
C306 H311 0.929 . S
C307 C306 1.457 . S
C307 C308 1.291 . S
C307 H320 0.931 . S
C308 C307 1.291 . S
C308 C309 1.373 . S
C308 H321 0.929 . S
C309 C308 1.373 . S
C309 C310 1.396 . S
C309 C316 1.403 . S
C310 C300 1.476 . S
C310 N305 1.318 . S
C310 C309 1.396 . S
H311 C306 0.929 . S
O312 Mn288 2.385 . S
O312 C290 1.234 . S
O313 Mn288 2.209 . S
O313 Mn289 2.215 . S
O313 C290 1.283 . S
O314 Mn288 2.094 . S
O314 C292 1.240 . S
O315 Mn289 2.117 . S
O315 C292 1.264 . S
C316 C309 1.403 . S
C316 C317 1.399 . S
C316 H322 0.929 . S
C317 C297 1.449 . S
C317 C316 1.399 . S
C317 H323 0.930 . S
H318 C298 0.931 . S
H319 C299 0.930 . S
H320 C307 0.931 . S
H321 C308 0.929 . S
H322 C316 0.929 . S
H323 C317 0.930 . S
C324 C325 1.369 . S
C324 C326 1.419 . S
C324 H328 0.930 . S
C325 C324 1.369 . S
C325 C334 1.429 . S
C326 C324 1.419 . S
C326 C327 1.363 . S
C326 H329 0.929 . S
C327 C326 1.363 . S
C327 C333 1.428 . S
H328 C324 0.930 . S
H329 C326 0.929 . S
S330 N331 1.613 . S
S330 N332 1.610 . S
N331 S330 1.613 . S
N331 C334 1.350 . S
N332 S330 1.610 . S
N332 C333 1.351 . S
C333 C327 1.428 . S
C333 N332 1.351 . S
C333 C334 1.434 . S
C334 C325 1.429 . S
C334 N331 1.350 . S
C334 C333 1.434 . S
C335 C336 1.369 1_556 S
C335 C337 1.419 1_565 S
C335 H339 0.930 . S
C336 C335 1.369 1_554 S
C336 C345 1.429 . S
C337 C335 1.419 1_545 S
C337 C338 1.363 1_556 S
C337 H340 0.929 . S
C338 C337 1.363 1_554 S
C338 C344 1.428 . S
H339 C335 0.930 . S
H340 C337 0.929 . S
S341 N342 1.613 1_545 S
S341 N343 1.610 . S
N342 S341 1.613 1_565 S
N342 C345 1.350 . S
N343 S341 1.610 . S
N343 C344 1.351 . S
C344 C338 1.428 . S
C344 N343 1.351 . S
C344 C345 1.434 1_545 S
C345 C336 1.429 . S
C345 N342 1.350 . S
C345 C344 1.434 1_565 S
C346 C347 1.369 . S
C346 C348 1.419 1_655 S
C346 H350 0.930 . S
C347 C346 1.369 . S
C347 C356 1.429 1_554 S
C348 C346 1.419 1_455 S
C348 C349 1.363 . S
C348 H351 0.929 . S
C349 C348 1.363 . S
C349 C355 1.428 1_554 S
H350 C346 0.930 . S
H351 C348 0.929 . S
S352 N353 1.613 1_455 S
S352 N354 1.610 . S
N353 S352 1.613 1_655 S
N353 C356 1.350 . S
N354 S352 1.610 . S
N354 C355 1.351 . S
C355 C349 1.428 1_556 S
C355 N354 1.351 . S
C355 C356 1.434 1_455 S
C356 C347 1.429 1_556 S
C356 N353 1.350 . S
C356 C355 1.434 1_655 S
C357 C358 1.369 . S
C357 C359 1.419 . S
C357 H361 0.930 . S
C358 C357 1.369 . S
C358 C367 1.429 . S
C359 C357 1.419 . S
C359 C360 1.363 . S
C359 H362 0.929 . S
C360 C359 1.363 . S
C360 C366 1.428 . S
H361 C357 0.930 . S
H362 C359 0.929 . S
S363 N364 1.613 . S
S363 N365 1.610 . S
N364 S363 1.613 . S
N364 C367 1.350 . S
N365 S363 1.610 . S
N365 C366 1.351 . S
C366 C360 1.428 . S
C366 N365 1.351 . S
C366 C367 1.434 . S
C367 C358 1.429 . S
C367 N364 1.350 . S
C367 C366 1.434 . S
C368 C369 1.369 . S
C368 C370 1.419 . S
C368 H372 0.930 . S
C369 C368 1.369 . S
C369 C378 1.429 . S
C370 C368 1.419 . S
C370 C371 1.363 . S
C370 H373 0.929 . S
C371 C370 1.363 . S
C371 C377 1.428 . S
H372 C368 0.930 . S
H373 C370 0.929 . S
S374 N375 1.613 . S
S374 N376 1.610 . S
N375 S374 1.613 . S
N375 C378 1.350 . S
N376 S374 1.610 . S
N376 C377 1.351 . S
C377 C371 1.428 . S
C377 N376 1.351 . S
C377 C378 1.434 . S
C378 C369 1.429 . S
C378 N375 1.350 . S
C378 C377 1.434 . S
C379 C380 1.369 . S
C379 C381 1.419 . S
C379 H383 0.930 . S
C380 C379 1.369 . S
C380 C389 1.429 . S
C381 C379 1.419 . S
C381 C382 1.363 . S
C381 H384 0.929 . S
C382 C381 1.363 . S
C382 C388 1.428 . S
H383 C379 0.930 . S
H384 C381 0.929 . S
S385 N386 1.613 . S
S385 N387 1.610 . S
N386 S385 1.613 . S
N386 C389 1.350 . S
N387 S385 1.610 . S
N387 C388 1.351 . S
C388 C382 1.428 . S
C388 N387 1.351 . S
C388 C389 1.434 . S
C389 C380 1.429 . S
C389 N386 1.350 . S
C389 C388 1.434 . S
C390 C391 1.369 . S
C390 C392 1.419 . S
C390 H394 0.930 . S
C391 C390 1.369 . S
C391 C400 1.429 . S
C392 C390 1.419 . S
C392 C393 1.363 . S
C392 H395 0.929 . S
C393 C392 1.363 . S
C393 C399 1.428 . S
H394 C390 0.930 . S
H395 C392 0.929 . S
S396 N397 1.613 . S
S396 N398 1.610 . S
N397 S396 1.613 . S
N397 C400 1.350 . S
N398 S396 1.610 . S
N398 C399 1.351 . S
C399 C393 1.428 . S
C399 N398 1.351 . S
C399 C400 1.434 . S
C400 C391 1.429 . S
C400 N397 1.350 . S
C400 C399 1.434 . S
C401 C402 1.369 . S
C401 C403 1.419 . S
C401 H405 0.930 . S
C402 C401 1.369 . S
C402 C411 1.429 . S
C403 C401 1.419 . S
C403 C404 1.363 . S
C403 H406 0.929 . S
C404 C403 1.363 . S
C404 C410 1.428 . S
H405 C401 0.930 . S
H406 C403 0.929 . S
S407 N408 1.613 . S
S407 N409 1.610 . S
N408 S407 1.613 . S
N408 C411 1.350 . S
N409 S407 1.610 . S
N409 C410 1.351 . S
C410 C404 1.428 . S
C410 N409 1.351 . S
C410 C411 1.434 . S
C411 C402 1.429 . S
C411 N408 1.350 . S
C411 C410 1.434 . S
C412 C413 1.369 . S
C412 C414 1.419 . S
C412 H416 0.930 . S
C413 C412 1.369 . S
C413 C422 1.429 . S
C414 C412 1.419 . S
C414 C415 1.363 . S
C414 H417 0.929 . S
C415 C414 1.363 . S
C415 C421 1.428 . S
H416 C412 0.930 . S
H417 C414 0.929 . S
S418 N419 1.613 . S
S418 N420 1.610 . S
N419 S418 1.613 . S
N419 C422 1.350 . S
N420 S418 1.610 . S
N420 C421 1.351 . S
C421 C415 1.428 . S
C421 N420 1.351 . S
C421 C422 1.434 . S
C422 C413 1.429 . S
C422 N419 1.350 . S
C422 C421 1.434 . S
C423 C424 1.369 . S
C423 C425 1.419 . S
C423 H427 0.930 . S
C424 C423 1.369 . S
C424 C433 1.429 . S
C425 C423 1.419 . S
C425 C426 1.363 . S
C425 H428 0.929 . S
C426 C425 1.363 . S
C426 C432 1.428 . S
H427 C423 0.930 . S
H428 C425 0.929 . S
S429 N430 1.613 . S
S429 N431 1.610 . S
N430 S429 1.613 . S
N430 C433 1.350 . S
N431 S429 1.610 . S
N431 C432 1.351 . S
C432 C426 1.428 . S
C432 N431 1.351 . S
C432 C433 1.434 . S
C433 C424 1.429 . S
C433 N430 1.350 . S
C433 C432 1.434 . S
C434 C435 1.369 . S
C434 C436 1.419 . S
C434 H438 0.930 . S
C435 C434 1.369 . S
C435 C444 1.429 . S
C436 C434 1.419 . S
C436 C437 1.363 . S
C436 H439 0.929 . S
C437 C436 1.363 . S
C437 C443 1.428 . S
H438 C434 0.930 . S
H439 C436 0.929 . S
S440 N441 1.613 . S
S440 N442 1.610 . S
N441 S440 1.613 . S
N441 C444 1.350 . S
N442 S440 1.610 . S
N442 C443 1.351 . S
C443 C437 1.428 . S
C443 N442 1.351 . S
C443 C444 1.434 . S
C444 C435 1.429 . S
C444 N441 1.350 . S
C444 C443 1.434 . S
C445 C446 1.369 . S
C445 C447 1.419 . S
C445 H449 0.930 . S
C446 C445 1.369 . S
C446 C455 1.429 . S
C447 C445 1.419 . S
C447 C448 1.363 . S
C447 H450 0.929 . S
C448 C447 1.363 . S
C448 C454 1.428 . S
H449 C445 0.930 . S
H450 C447 0.929 . S
S451 N452 1.613 . S
S451 N453 1.610 . S
N452 S451 1.613 . S
N452 C455 1.350 . S
N453 S451 1.610 . S
N453 C454 1.351 . S
C454 C448 1.428 . S
C454 N453 1.351 . S
C454 C455 1.434 . S
C455 C446 1.429 . S
C455 N452 1.350 . S
C455 C454 1.434 . S
C456 C457 1.369 . S
C456 C458 1.419 . S
C456 H460 0.930 . S
C457 C456 1.369 . S
C457 C466 1.429 . S
C458 C456 1.419 . S
C458 C459 1.363 . S
C458 H461 0.929 1_545 S
C459 C458 1.363 . S
C459 C465 1.428 . S
H460 C456 0.930 . S
H461 C458 0.929 1_565 S
S462 N463 1.613 . S
S462 N464 1.610 . S
N463 S462 1.613 . S
N463 C466 1.350 . S
N464 S462 1.610 . S
N464 C465 1.351 . S
C465 C459 1.428 . S
C465 N464 1.351 . S
C465 C466 1.434 . S
C466 C457 1.429 . S
C466 N463 1.350 . S
C466 C465 1.434 . S
C467 C468 1.368 1_455 S
C467 C469 1.416 1_455 S
C467 H471 0.934 . S
C468 C467 1.368 1_655 S
C468 C477 1.429 . S
C469 C467 1.416 1_655 S
C469 C470 1.363 . S
C469 H472 0.929 1_655 S
C470 C469 1.363 . S
C470 C476 1.428 . S
H471 C467 0.934 . S
H472 C469 0.929 1_455 S
S473 N474 1.613 . S
S473 N475 1.610 . S
N474 S473 1.613 . S
N474 C477 1.350 . S
N475 S473 1.610 . S
N475 C476 1.351 . S
C476 C470 1.428 . S
C476 N475 1.351 . S
C476 C477 1.434 . S
C477 C468 1.429 . S
C477 N474 1.350 . S
C477 C476 1.434 . S
C478 C479 1.369 . S
C478 C480 1.419 . S
C478 H482 0.930 . S
C479 C478 1.369 . S
C479 C488 1.429 . S
C480 C478 1.419 . S
C480 C481 1.363 . S
C480 H483 0.929 . S
C481 C480 1.363 . S
C481 C487 1.428 . S
H482 C478 0.930 . S
H483 C480 0.929 . S
S484 N485 1.613 . S
S484 N486 1.610 . S
N485 S484 1.613 . S
N485 C488 1.350 . S
N486 S484 1.610 . S
N486 C487 1.351 . S
C487 C481 1.428 . S
C487 N486 1.351 . S
C487 C488 1.434 . S
C488 C479 1.429 . S
C488 N485 1.350 . S
C488 C487 1.434 . S
C489 C490 1.369 . S
C489 C491 1.419 1_455 S
C489 H493 0.930 . S
C490 C489 1.369 . S
C490 C499 1.429 . S
C491 C489 1.419 1_655 S
C491 C492 1.363 . S
C491 H494 0.929 . S
C492 C491 1.363 . S
C492 C498 1.428 1_655 S
H493 C489 0.930 . S
H494 C491 0.929 . S
S495 N496 1.613 . S
S495 N497 1.610 . S
N496 S495 1.613 . S
N496 C499 1.350 . S
N497 S495 1.610 . S
N497 C498 1.351 . S
C498 C492 1.428 1_455 S
C498 N497 1.351 . S
C498 C499 1.434 . S
C499 C490 1.429 . S
C499 N496 1.350 . S
C499 C498 1.434 . S
C500 C501 1.369 . S
C500 C502 1.419 . S
C500 H504 0.930 . S
C501 C500 1.369 . S
C501 C510 1.429 . S
C502 C500 1.419 . S
C502 C503 1.363 . S
C502 H505 0.929 . S
C503 C502 1.363 . S
C503 C509 1.428 . S
H504 C500 0.930 . S
H505 C502 0.929 . S
S506 N507 1.613 . S
S506 N508 1.610 . S
N507 S506 1.613 . S
N507 C510 1.350 . S
N508 S506 1.610 . S
N508 C509 1.351 . S
C509 C503 1.428 . S
C509 N508 1.351 . S
C509 C510 1.434 . S
C510 C501 1.429 . S
C510 N507 1.350 . S
C510 C509 1.434 . S
C511 C512 1.369 1_545 S
C511 C513 1.419 . S
C511 H515 0.930 . S
C512 C511 1.369 1_565 S
C512 C521 1.429 . S
C513 C511 1.419 . S
C513 C514 1.363 . S
C513 H516 0.929 . S
C514 C513 1.363 . S
C514 C520 1.428 1_545 S
H515 C511 0.930 . S
H516 C513 0.929 . S
S517 N518 1.613 . S
S517 N519 1.610 . S
N518 S517 1.613 . S
N518 C521 1.350 . S
N519 S517 1.610 . S
N519 C520 1.351 . S
C520 C514 1.428 1_565 S
C520 N519 1.351 . S
C520 C521 1.434 . S
C521 C512 1.429 . S
C521 N518 1.350 . S
C521 C520 1.434 . S
C325 C75 1.180 . S
C327 C2 1.130 . S
C336 C39 1.194 . S
C338 C3 1.183 . S
C347 C38 1.206 . S
C349 C74 1.214 . S
C358 C182 1.238 . S
C360 C110 1.222 . S
C369 C147 1.136 . S
C371 C111 1.149 . S
C380 C146 1.135 . S
C382 C183 1.187 . S
C391 C218 1.149 . S
C393 C291 1.203 . S
C402 C219 1.099 . S
C404 C255 1.104 . S
C413 C254 1.218 . S
C415 C290 1.240 . S
C424 C4 1.413 . S
C426 C256 1.421 . S
C435 C50 1.406 . S
C437 C302 1.401 . S
C446 C230 1.366 . S
C448 C76 1.391 . S
C457 C158 1.358 . S
C459 C86 1.354 . S
C468 C14 1.363 1_655 S
C470 C194 1.375 . S
C479 C112 1.426 . S
C481 C40 1.423 . S
C490 C266 1.395 . S
C492 C184 1.417 . S
C501 C122 1.417 . S
C503 C292 1.438 . S
C512 C220 1.405 . S
C514 C148 1.401 . S
