# Generated by pormake.
# Topology wio, (6)-cn, num edge types: 1
# Building blocks:
#     Node 0, Type 0, BuildingBlock: BETDAH_clean_sbu_0, # of connection points: 6
#     Node 1, Type 0, BuildingBlock: BETDAH_clean_sbu_0, # of connection points: 6
#     Node 2, Type 0, BuildingBlock: BETDAH_clean_sbu_0, # of connection points: 6
#     Node 3, Type 0, BuildingBlock: BETDAH_clean_sbu_0, # of connection points: 6
#     Node 4, Type 0, BuildingBlock: BETDAH_clean_sbu_0, # of connection points: 6
#     Node 5, Type 0, BuildingBlock: BETDAH_clean_sbu_0, # of connection points: 6
#     Node 6, Type 0, BuildingBlock: BETDAH_clean_sbu_0, # of connection points: 6
#     Node 7, Type 0, BuildingBlock: BETDAH_clean_sbu_0, # of connection points: 6
#     Node 8, Type 0, BuildingBlock: BETDAH_clean_sbu_0, # of connection points: 6
#     Node 9, Type 0, BuildingBlock: BETDAH_clean_sbu_0, # of connection points: 6
#     Node 10, Type 0, BuildingBlock: BETDAH_clean_sbu_0, # of connection points: 6
#     Node 11, Type 0, BuildingBlock: BETDAH_clean_sbu_0, # of connection points: 6
#     Node 12, Type 0, BuildingBlock: BETDAH_clean_sbu_0, # of connection points: 6
#     Node 13, Type 0, BuildingBlock: BETDAH_clean_sbu_0, # of connection points: 6
#     Node 14, Type 0, BuildingBlock: BETDAH_clean_sbu_0, # of connection points: 6
#     Node 15, Type 0, BuildingBlock: BETDAH_clean_sbu_0, # of connection points: 6
#     Node 16, Type 0, BuildingBlock: BETDAH_clean_sbu_0, # of connection points: 6
#     Node 17, Type 0, BuildingBlock: BETDAH_clean_sbu_0, # of connection points: 6
#     Node 18, Type 0, BuildingBlock: BETDAH_clean_sbu_0, # of connection points: 6
#     Node 19, Type 0, BuildingBlock: BETDAH_clean_sbu_0, # of connection points: 6
#     Node 20, Type 0, BuildingBlock: BETDAH_clean_sbu_0, # of connection points: 6
#     Node 21, Type 0, BuildingBlock: BETDAH_clean_sbu_0, # of connection points: 6
#     Node 22, Type 0, BuildingBlock: BETDAH_clean_sbu_0, # of connection points: 6
#     Node 23, Type 0, BuildingBlock: BETDAH_clean_sbu_0, # of connection points: 6
#     Node 24, Type 0, BuildingBlock: BETDAH_clean_sbu_0, # of connection points: 6
#     Node 25, Type 0, BuildingBlock: BETDAH_clean_sbu_0, # of connection points: 6
#     Node 26, Type 0, BuildingBlock: BETDAH_clean_sbu_0, # of connection points: 6
#     Node 27, Type 0, BuildingBlock: BETDAH_clean_sbu_0, # of connection points: 6
#     Node 28, Type 0, BuildingBlock: BETDAH_clean_sbu_0, # of connection points: 6
#     Node 29, Type 0, BuildingBlock: BETDAH_clean_sbu_0, # of connection points: 6
#     Node 30, Type 0, BuildingBlock: BETDAH_clean_sbu_0, # of connection points: 6
#     Node 31, Type 0, BuildingBlock: BETDAH_clean_sbu_0, # of connection points: 6
#     Edge 32, Type (0, 0), BuildingBlock: EZIPEK_clean_linker_0, # of connection points: 2
#     Edge 33, Type (0, 0), BuildingBlock: EZIPEK_clean_linker_0, # of connection points: 2
#     Edge 34, Type (0, 0), BuildingBlock: EZIPEK_clean_linker_0, # of connection points: 2
#     Edge 35, Type (0, 0), BuildingBlock: EZIPEK_clean_linker_0, # of connection points: 2
#     Edge 36, Type (0, 0), BuildingBlock: EZIPEK_clean_linker_0, # of connection points: 2
#     Edge 37, Type (0, 0), BuildingBlock: EZIPEK_clean_linker_0, # of connection points: 2
#     Edge 38, Type (0, 0), BuildingBlock: EZIPEK_clean_linker_0, # of connection points: 2
#     Edge 39, Type (0, 0), BuildingBlock: EZIPEK_clean_linker_0, # of connection points: 2
#     Edge 40, Type (0, 0), BuildingBlock: EZIPEK_clean_linker_0, # of connection points: 2
#     Edge 41, Type (0, 0), BuildingBlock: EZIPEK_clean_linker_0, # of connection points: 2
#     Edge 42, Type (0, 0), BuildingBlock: EZIPEK_clean_linker_0, # of connection points: 2
#     Edge 43, Type (0, 0), BuildingBlock: EZIPEK_clean_linker_0, # of connection points: 2
#     Edge 44, Type (0, 0), BuildingBlock: EZIPEK_clean_linker_0, # of connection points: 2
#     Edge 45, Type (0, 0), BuildingBlock: EZIPEK_clean_linker_0, # of connection points: 2
#     Edge 46, Type (0, 0), BuildingBlock: EZIPEK_clean_linker_0, # of connection points: 2
#     Edge 47, Type (0, 0), BuildingBlock: EZIPEK_clean_linker_0, # of connection points: 2
#     Edge 48, Type (0, 0), BuildingBlock: EZIPEK_clean_linker_0, # of connection points: 2
#     Edge 49, Type (0, 0), BuildingBlock: EZIPEK_clean_linker_0, # of connection points: 2
#     Edge 50, Type (0, 0), BuildingBlock: EZIPEK_clean_linker_0, # of connection points: 2
#     Edge 51, Type (0, 0), BuildingBlock: EZIPEK_clean_linker_0, # of connection points: 2
#     Edge 52, Type (0, 0), BuildingBlock: EZIPEK_clean_linker_0, # of connection points: 2
#     Edge 53, Type (0, 0), BuildingBlock: EZIPEK_clean_linker_0, # of connection points: 2
#     Edge 54, Type (0, 0), BuildingBlock: EZIPEK_clean_linker_0, # of connection points: 2
#     Edge 55, Type (0, 0), BuildingBlock: EZIPEK_clean_linker_0, # of connection points: 2
#     Edge 56, Type (0, 0), BuildingBlock: EZIPEK_clean_linker_0, # of connection points: 2
#     Edge 57, Type (0, 0), BuildingBlock: EZIPEK_clean_linker_0, # of connection points: 2
#     Edge 58, Type (0, 0), BuildingBlock: EZIPEK_clean_linker_0, # of connection points: 2
#     Edge 59, Type (0, 0), BuildingBlock: EZIPEK_clean_linker_0, # of connection points: 2
#     Edge 60, Type (0, 0), BuildingBlock: EZIPEK_clean_linker_0, # of connection points: 2
#     Edge 61, Type (0, 0), BuildingBlock: EZIPEK_clean_linker_0, # of connection points: 2
#     Edge 62, Type (0, 0), BuildingBlock: EZIPEK_clean_linker_0, # of connection points: 2
#     Edge 63, Type (0, 0), BuildingBlock: EZIPEK_clean_linker_0, # of connection points: 2
#     Edge 64, Type (0, 0), BuildingBlock: EZIPEK_clean_linker_0, # of connection points: 2
#     Edge 65, Type (0, 0), BuildingBlock: EZIPEK_clean_linker_0, # of connection points: 2
#     Edge 66, Type (0, 0), BuildingBlock: EZIPEK_clean_linker_0, # of connection points: 2
#     Edge 67, Type (0, 0), BuildingBlock: EZIPEK_clean_linker_0, # of connection points: 2
#     Edge 68, Type (0, 0), BuildingBlock: EZIPEK_clean_linker_0, # of connection points: 2
#     Edge 69, Type (0, 0), BuildingBlock: EZIPEK_clean_linker_0, # of connection points: 2
#     Edge 70, Type (0, 0), BuildingBlock: EZIPEK_clean_linker_0, # of connection points: 2
#     Edge 71, Type (0, 0), BuildingBlock: EZIPEK_clean_linker_0, # of connection points: 2
#     Edge 72, Type (0, 0), BuildingBlock: EZIPEK_clean_linker_0, # of connection points: 2
#     Edge 73, Type (0, 0), BuildingBlock: EZIPEK_clean_linker_0, # of connection points: 2
#     Edge 74, Type (0, 0), BuildingBlock: EZIPEK_clean_linker_0, # of connection points: 2
#     Edge 75, Type (0, 0), BuildingBlock: EZIPEK_clean_linker_0, # of connection points: 2
#     Edge 76, Type (0, 0), BuildingBlock: EZIPEK_clean_linker_0, # of connection points: 2
#     Edge 77, Type (0, 0), BuildingBlock: EZIPEK_clean_linker_0, # of connection points: 2
#     Edge 78, Type (0, 0), BuildingBlock: EZIPEK_clean_linker_0, # of connection points: 2
#     Edge 79, Type (0, 0), BuildingBlock: EZIPEK_clean_linker_0, # of connection points: 2
#     Edge 80, Type (0, 0), BuildingBlock: EZIPEK_clean_linker_0, # of connection points: 2
#     Edge 81, Type (0, 0), BuildingBlock: EZIPEK_clean_linker_0, # of connection points: 2
#     Edge 82, Type (0, 0), BuildingBlock: EZIPEK_clean_linker_0, # of connection points: 2
#     Edge 83, Type (0, 0), BuildingBlock: EZIPEK_clean_linker_0, # of connection points: 2
#     Edge 84, Type (0, 0), BuildingBlock: EZIPEK_clean_linker_0, # of connection points: 2
#     Edge 85, Type (0, 0), BuildingBlock: EZIPEK_clean_linker_0, # of connection points: 2
#     Edge 86, Type (0, 0), BuildingBlock: EZIPEK_clean_linker_0, # of connection points: 2
#     Edge 87, Type (0, 0), BuildingBlock: EZIPEK_clean_linker_0, # of connection points: 2
#     Edge 88, Type (0, 0), BuildingBlock: EZIPEK_clean_linker_0, # of connection points: 2
#     Edge 89, Type (0, 0), BuildingBlock: EZIPEK_clean_linker_0, # of connection points: 2
#     Edge 90, Type (0, 0), BuildingBlock: EZIPEK_clean_linker_0, # of connection points: 2
#     Edge 91, Type (0, 0), BuildingBlock: EZIPEK_clean_linker_0, # of connection points: 2
#     Edge 92, Type (0, 0), BuildingBlock: EZIPEK_clean_linker_0, # of connection points: 2
#     Edge 93, Type (0, 0), BuildingBlock: EZIPEK_clean_linker_0, # of connection points: 2
#     Edge 94, Type (0, 0), BuildingBlock: EZIPEK_clean_linker_0, # of connection points: 2
#     Edge 95, Type (0, 0), BuildingBlock: EZIPEK_clean_linker_0, # of connection points: 2
#     Edge 96, Type (0, 0), BuildingBlock: EZIPEK_clean_linker_0, # of connection points: 2
#     Edge 97, Type (0, 0), BuildingBlock: EZIPEK_clean_linker_0, # of connection points: 2
#     Edge 98, Type (0, 0), BuildingBlock: EZIPEK_clean_linker_0, # of connection points: 2
#     Edge 99, Type (0, 0), BuildingBlock: EZIPEK_clean_linker_0, # of connection points: 2
#     Edge 100, Type (0, 0), BuildingBlock: EZIPEK_clean_linker_0, # of connection points: 2
#     Edge 101, Type (0, 0), BuildingBlock: EZIPEK_clean_linker_0, # of connection points: 2
#     Edge 102, Type (0, 0), BuildingBlock: EZIPEK_clean_linker_0, # of connection points: 2
#     Edge 103, Type (0, 0), BuildingBlock: EZIPEK_clean_linker_0, # of connection points: 2
#     Edge 104, Type (0, 0), BuildingBlock: EZIPEK_clean_linker_0, # of connection points: 2
#     Edge 105, Type (0, 0), BuildingBlock: EZIPEK_clean_linker_0, # of connection points: 2
#     Edge 106, Type (0, 0), BuildingBlock: EZIPEK_clean_linker_0, # of connection points: 2
#     Edge 107, Type (0, 0), BuildingBlock: EZIPEK_clean_linker_0, # of connection points: 2
#     Edge 108, Type (0, 0), BuildingBlock: EZIPEK_clean_linker_0, # of connection points: 2
#     Edge 109, Type (0, 0), BuildingBlock: EZIPEK_clean_linker_0, # of connection points: 2
#     Edge 110, Type (0, 0), BuildingBlock: EZIPEK_clean_linker_0, # of connection points: 2
#     Edge 111, Type (0, 0), BuildingBlock: EZIPEK_clean_linker_0, # of connection points: 2
#     Edge 112, Type (0, 0), BuildingBlock: EZIPEK_clean_linker_0, # of connection points: 2
#     Edge 113, Type (0, 0), BuildingBlock: EZIPEK_clean_linker_0, # of connection points: 2
#     Edge 114, Type (0, 0), BuildingBlock: EZIPEK_clean_linker_0, # of connection points: 2
#     Edge 115, Type (0, 0), BuildingBlock: EZIPEK_clean_linker_0, # of connection points: 2
#     Edge 116, Type (0, 0), BuildingBlock: EZIPEK_clean_linker_0, # of connection points: 2
#     Edge 117, Type (0, 0), BuildingBlock: EZIPEK_clean_linker_0, # of connection points: 2
#     Edge 118, Type (0, 0), BuildingBlock: EZIPEK_clean_linker_0, # of connection points: 2
#     Edge 119, Type (0, 0), BuildingBlock: EZIPEK_clean_linker_0, # of connection points: 2
#     Edge 120, Type (0, 0), BuildingBlock: EZIPEK_clean_linker_0, # of connection points: 2
#     Edge 121, Type (0, 0), BuildingBlock: EZIPEK_clean_linker_0, # of connection points: 2
#     Edge 122, Type (0, 0), BuildingBlock: EZIPEK_clean_linker_0, # of connection points: 2
#     Edge 123, Type (0, 0), BuildingBlock: EZIPEK_clean_linker_0, # of connection points: 2
#     Edge 124, Type (0, 0), BuildingBlock: EZIPEK_clean_linker_0, # of connection points: 2
#     Edge 125, Type (0, 0), BuildingBlock: EZIPEK_clean_linker_0, # of connection points: 2
#     Edge 126, Type (0, 0), BuildingBlock: EZIPEK_clean_linker_0, # of connection points: 2
#     Edge 127, Type (0, 0), BuildingBlock: EZIPEK_clean_linker_0, # of connection points: 2
# Relax obj value: 0.217
# Max RMSD: 0.246
# Mean RMSD: 0.246
data_MOF--net-wio--node1-BETDAH_clean_sbu_0--edge1-EZIPEK_clean_linker_0
_symmetry_space_group_name_H-M    P1
_symmetry_Int_Tables_number       1
_symmetry_cell_setting            triclinic
loop_
_symmetry_equiv_pos_as_xyz
'x, y, z'
_cell_length_a     48.542173
_cell_length_b     48.63141
_cell_length_c     42.274615
_cell_angle_alpha  89.970924
_cell_angle_beta   89.709953
_cell_angle_gamma 89.957694
loop_
_atom_site_label
_atom_site_type_symbol
_atom_site_fract_x
_atom_site_fract_y
_atom_site_fract_z
_atom_type_partial_charge
Ho0 Ho 0.15437 0.11435 0.29304 0.0
Ho1 Ho 0.0895 0.12141 0.30346 0.0
C2 C 0.11756 0.13487 0.23327 0.0
C3 C 0.2046 0.09825 0.28368 0.0
C4 C 0.22848 0.10671 0.26434 0.0
C5 C 0.2419 0.08674 0.24592 0.0
C6 C 0.26231 0.09432 0.22425 0.0
C7 C 0.2698 0.122 0.22082 0.0
C8 C 0.25739 0.14192 0.24033 0.0
C9 C 0.23664 0.13437 0.26178 0.0
C10 C 0.13694 0.16393 0.31693 0.0
C11 C 0.12487 0.08952 0.35666 0.0
C12 C 0.04358 0.14155 0.32551 0.0
C13 C 0.02756 0.14071 0.35567 0.0
C14 C 0.04038 0.13739 0.38526 0.0
C15 C 0.02456 0.13627 0.41328 0.0
C16 C 0.99566 0.13848 0.41224 0.0
C17 C 0.98297 0.14193 0.38268 0.0
C18 C 0.99873 0.14307 0.35477 0.0
C19 C 0.10175 0.06849 0.28524 0.0
O20 O 0.14139 0.12507 0.24343 0.0
O21 O 0.09563 0.13781 0.25248 0.0
O22 O 0.19721 0.11408 0.30732 0.0
O23 O 0.18362 0.08926 0.26744 0.0
O24 O 0.15772 0.16076 0.29768 0.0
O25 O 0.12733 0.14032 0.32241 0.0
O26 O 0.10133 0.10195 0.3498 0.0
O27 O 0.14721 0.09106 0.33856 0.0
O28 O 0.04509 0.11864 0.3094 0.0
O29 O 0.06702 0.15486 0.32562 0.0
O30 O 0.07707 0.07778 0.29095 0.0
O31 O 0.11773 0.08892 0.2883 0.0
H32 H 0.23586 0.06533 0.24748 0.0
H33 H 0.27166 0.07869 0.20942 0.0
H34 H 0.26296 0.16339 0.23794 0.0
H35 H 0.22646 0.15019 0.27558 0.0
H36 H 0.06256 0.13543 0.3867 0.0
H37 H 0.03482 0.13333 0.43571 0.0
H38 H 0.96075 0.14345 0.38119 0.0
H39 H 0.98832 0.1456 0.33235 0.0
Ho40 Ho 0.15655 0.9035 0.54308 0.0
Ho41 Ho 0.14561 0.84364 0.55102 0.0
C42 C 0.1335 0.86895 0.48187 0.0
C43 C 0.17227 0.95189 0.52506 0.0
C44 C 0.16329 0.97271 0.50181 0.0
C45 C 0.18231 0.98272 0.47949 0.0
C46 C 0.17439 1.00246 0.45727 0.0
C47 C 0.14734 0.01265 0.45716 0.0
C48 C 0.12828 1.00281 0.47953 0.0
C49 C 0.13613 0.98289 0.5016 0.0
C50 C 0.10707 0.89352 0.57098 0.0
C51 C 0.17246 0.87799 0.60883 0.0
C52 C 0.13129 0.79572 0.57392 0.0
C53 C 0.13175 0.78015 0.60453 0.0
C54 C 0.10743 0.77724 0.62256 0.0
C55 C 0.10674 0.76048 0.64964 0.0
C56 C 0.13031 0.74597 0.65932 0.0
C57 C 0.15483 0.74932 0.64186 0.0
C58 C 0.15555 0.76616 0.61479 0.0
C59 C 0.19807 0.85607 0.53086 0.0
O60 O 0.14427 0.8919 0.49316 0.0
O61 O 0.12966 0.8471 0.50039 0.0
O62 O 0.15612 0.94756 0.54941 0.0
O63 O 0.18248 0.92912 0.51343 0.0
O64 O 0.12367 0.91335 0.57796 0.0
O65 O 0.11719 0.87964 0.54803 0.0
O66 O 0.15449 0.85868 0.60116 0.0
O67 O 0.18063 0.89598 0.58735 0.0
O68 O 0.15458 0.80034 0.55936 0.0
O69 O 0.11484 0.81682 0.57208 0.0
O70 O 0.18406 0.83492 0.52133 0.0
O71 O 0.18362 0.86841 0.55093 0.0
H72 H 0.20333 0.97519 0.47921 0.0
H73 H 0.18933 0.00981 0.44013 0.0
H74 H 0.10731 0.01044 0.47971 0.0
H75 H 0.12096 0.97548 0.51843 0.0
H76 H 0.08864 0.78743 0.61529 0.0
H77 H 0.08757 0.75824 0.66262 0.0
H78 H 0.17327 0.73835 0.64877 0.0
H79 H 0.17463 0.7677 0.60151 0.0
Ho80 Ho 0.36029 0.90136 0.79598 0.0
Ho81 Ho 0.42178 0.90196 0.79769 0.0
C82 C 0.39451 0.88696 0.73047 0.0
C83 C 0.30834 0.9069 0.78312 0.0
C84 C 0.28811 0.89968 0.75846 0.0
C85 C 0.2923 0.90675 0.72651 0.0
C86 C 0.27182 0.90153 0.70411 0.0
C87 C 0.24695 0.88911 0.71328 0.0
C88 C 0.24296 0.88147 0.74496 0.0
C89 C 0.26336 0.88681 0.76739 0.0
C90 C 0.38188 0.85849 0.82825 0.0
C91 C 0.38674 0.92555 0.85813 0.0
C92 C 0.47293 0.89418 0.81423 0.0
C93 C 0.4892 0.88982 0.84364 0.0
C94 C 0.48135 0.90169 0.87272 0.0
C95 C 0.49836 0.8993 0.89944 0.0
C96 C 0.5236 0.88514 0.89761 0.0
C97 C 0.53109 0.87273 0.8688 0.0
C98 C 0.51404 0.875 0.84216 0.0
C99 C 0.39948 0.95059 0.77646 0.0
O100 O 0.37066 0.89022 0.7453 0.0
O101 O 0.41816 0.88911 0.74599 0.0
O102 O 0.31819 0.88671 0.80003 0.0
O103 O 0.3271 0.92513 0.7758 0.0
O104 O 0.35907 0.87083 0.83525 0.0
O105 O 0.3915 0.86801 0.8023 0.0
O106 O 0.40992 0.91396 0.84818 0.0
O107 O 0.36464 0.92614 0.84014 0.0
O108 O 0.46162 0.91832 0.81058 0.0
O109 O 0.45669 0.87434 0.805 0.0
O110 O 0.42185 0.93909 0.76561 0.0
O111 O 0.39057 0.93509 0.79814 0.0
H112 H 0.31115 0.91668 0.7189 0.0
H113 H 0.27525 0.90742 0.67969 0.0
H114 H 0.22389 0.8718 0.75237 0.0
H115 H 0.25963 0.88129 0.79187 0.0
H116 H 0.46238 0.91331 0.87464 0.0
H117 H 0.49222 0.9092 0.92132 0.0
H118 H 0.5505 0.86187 0.86672 0.0
H119 H 0.52066 0.86576 0.82007 0.0
Ho120 Ho 0.364 0.11079 0.05001 0.0
Ho121 Ho 0.36497 0.17206 0.05175 0.0
C122 C 0.37975 0.14466 0.98449 0.0
C123 C 0.35775 0.0591 1.03671 0.0
C124 C 0.36428 0.03966 1.01096 0.0
C125 C 0.3602 0.04657 0.97901 0.0
C126 C 0.36529 0.02717 0.95525 0.0
C127 C 0.37467 1.0007 0.96307 0.0
C128 C 0.37933 0.99402 0.99488 0.0
C129 C 0.37406 0.01333 1.01864 0.0
C130 C 0.40783 0.13132 0.08147 0.0
C131 C 0.34041 0.13797 0.11264 0.0
C132 C 0.37572 0.22219 0.0698 0.0
C133 C 0.37812 0.23822 0.09989 0.0
C134 C 0.40115 0.23551 0.11985 0.0
C135 C 0.40366 0.25159 0.14728 0.0
C136 C 0.38386 0.27174 0.15469 0.0
C137 C 0.36087 0.27453 0.13484 0.0
C138 C 0.35796 0.2579 0.1079 0.0
C139 C 0.31539 0.15111 1.03144 0.0
O140 O 0.37434 0.12103 0.99882 0.0
O141 O 0.37907 0.1682 1.00043 0.0
O142 O 0.3786 0.0687 0.05265 0.0
O143 O 0.33924 0.07792 1.03083 0.0
O144 O 0.39492 0.109 0.08891 0.0
O145 O 0.39824 0.14094 0.05566 0.0
O146 O 0.35081 0.16128 0.10173 0.0
O147 O 0.34026 0.11542 0.09528 0.0
O148 O 0.35121 0.21377 0.06167 0.0
O149 O 0.39462 0.20375 0.06367 0.0
O150 O 0.32734 0.17319 1.02047 0.0
O151 O 0.33089 0.14182 0.05284 0.0
H152 H 0.35282 0.06679 0.97243 0.0
H153 H 0.36174 0.03271 0.93077 0.0
H154 H 0.38671 0.97375 1.00129 0.0
H155 H 0.37736 0.00762 0.04311 0.0
H156 H 0.41762 0.22139 0.11398 0.0
H157 H 0.42166 0.24911 0.16206 0.0
H158 H 0.34535 0.28994 0.13995 0.0
H159 H 0.34019 0.26088 0.09289 0.0
Ho160 Ho 0.15111 0.90268 0.28109 0.0
Ho161 Ho 0.0899 0.89976 0.2773 0.0
C162 C 0.11699 0.88463 0.34501 0.0
C163 C 0.20268 0.91006 0.29359 0.0
C164 C 0.2229 0.90356 0.31813 0.0
C165 C 0.21492 0.89773 0.34942 0.0
C166 C 0.23494 0.89219 0.37228 0.0
C167 C 0.26297 0.89232 0.36391 0.0
C168 C 0.27079 0.89754 0.33253 0.0
C169 C 0.25086 0.90311 0.30979 0.0
C170 C 0.13233 0.85948 0.24684 0.0
C171 C 0.12592 0.92857 0.2192 0.0
C172 C 0.04053 0.88703 0.25815 0.0
C173 C 0.02543 0.88523 0.22748 0.0
C174 C 0.02274 0.85988 0.21167 0.0
C175 C 1.00698 0.85773 0.18403 0.0
C176 C 0.99288 0.8807 0.17199 0.0
C177 C 0.99588 0.90612 0.18736 0.0
C178 C 0.01199 0.90839 0.21472 0.0
C179 C 0.10764 0.94931 0.30006 0.0
O180 O 0.14083 0.89114 0.33175 0.0
O181 O 0.09383 0.88474 0.32832 0.0
O182 O 0.19338 0.88913 0.2776 0.0
O183 O 0.18343 0.92788 0.30083 0.0
O184 O 0.15421 0.87346 0.2403 0.0
O185 O 0.12212 0.8678 0.27297 0.0
O186 O 0.10236 0.91684 0.22827 0.0
O187 O 0.14775 0.92812 0.23756 0.0
O188 O 0.04748 0.91139 0.26811 0.0
O189 O 0.05977 0.86887 0.26362 0.0
O190 O 0.08574 0.93635 0.30991 0.0
O191 O 0.11878 0.93462 0.27894 0.0
H192 H 0.19338 0.89781 0.3562 0.0
H193 H 0.22869 0.88837 0.39652 0.0
H194 H 0.29236 0.89788 0.32584 0.0
H195 H 0.2573 0.90742 0.28571 0.0
H196 H 0.03249 0.84155 0.22093 0.0
H197 H 1.00489 0.83787 0.1727 0.0
H198 H 0.9851 0.92409 0.17867 0.0
H199 H 0.01331 0.92819 0.22632 0.0
Ho200 Ho 0.36175 0.90911 0.52885 0.0
Ho201 Ho 0.36757 0.84751 0.52343 0.0
C202 C 0.38127 0.87448 0.59169 0.0
C203 C 0.34903 0.95898 0.54448 0.0
C204 C 0.35965 0.9806 0.56526 0.0
C205 C 0.34154 1.00098 0.57612 0.0
C206 C 0.35025 0.02015 0.59846 0.0
C207 C 0.37723 0.01923 0.61009 0.0
C208 C 0.39579 0.99955 0.59828 0.0
C209 C 0.38698 0.98018 0.57605 0.0
C210 C 0.40793 0.8932 0.49738 0.0
C211 C 0.3403 0.88233 0.46554 0.0
C212 C 0.38091 0.79909 0.50213 0.0
C213 C 0.38232 0.78413 0.47124 0.0
C214 C 0.4058 0.78571 0.45153 0.0
C215 C 0.40819 0.76902 0.42449 0.0
C216 C 0.3872 0.75036 0.41661 0.0
C217 C 0.36334 0.74953 0.43548 0.0
C218 C 0.36095 0.76614 0.46248 0.0
C219 C 0.31707 0.86408 0.54621 0.0
O220 O 0.37524 0.89833 0.57832 0.0
O221 O 0.38154 0.85125 0.57492 0.0
O222 O 0.36403 0.95278 0.51973 0.0
O223 O 0.33921 0.93727 0.55889 0.0
O224 O 0.39547 0.91643 0.4933 0.0
O225 O 0.39751 0.88131 0.52148 0.0
O226 O 0.35525 0.86074 0.47377 0.0
O227 O 0.33559 0.90197 0.48636 0.0
O228 O 0.35648 0.8053 0.51307 0.0
O229 O 0.39882 0.81867 0.50729 0.0
O230 O 0.33037 0.84213 0.55503 0.0
O231 O 0.33151 0.87537 0.52491 0.0
H232 H 0.32037 1.00148 0.56811 0.0
H233 H 0.33565 0.03505 0.60761 0.0
H234 H 0.41657 0.9984 0.6074 0.0
H235 H 0.40116 0.9644 0.56806 0.0
H236 H 0.42276 0.79917 0.45751 0.0
H237 H 0.42688 0.76986 0.41043 0.0
H238 H 0.347 0.73516 0.43003 0.0
H239 H 0.34268 0.76418 0.47712 0.0
Ho240 Ho 0.36327 0.11731 0.77937 0.0
Ho241 Ho 0.42526 0.11812 0.77795 0.0
C242 C 0.39572 0.13233 0.84528 0.0
C243 C 0.31154 0.10975 0.79186 0.0
C244 C 0.29167 0.11555 0.8173 0.0
C245 C 0.29852 0.13267 0.8428 0.0
C246 C 0.27921 0.13785 0.86674 0.0
C247 C 0.25287 0.12592 0.86544 0.0
C248 C 0.246 0.10905 0.83977 0.0
C249 C 0.26528 0.10394 0.81583 0.0
C250 C 0.38464 0.16008 0.74688 0.0
C251 C 0.38994 0.09106 0.71808 0.0
C252 C 0.47498 0.13031 0.75857 0.0
C253 C 0.49003 0.1328 0.72752 0.0
C254 C 0.5004 0.15842 0.7173 0.0
C255 C 0.51706 0.16049 0.68997 0.0
C256 C 0.52398 0.13694 0.67229 0.0
C257 C 0.51282 0.11154 0.68177 0.0
C258 C 0.49601 0.10949 0.70887 0.0
C259 C 0.40498 0.069 0.79883 0.0
O260 O 0.37234 0.13019 0.82957 0.0
O261 O 0.41988 0.12967 0.83034 0.0
O262 O 0.32111 0.13115 0.77669 0.0
O263 O 0.33065 0.09154 0.79807 0.0
O264 O 0.36204 0.14756 0.73971 0.0
O265 O 0.3939 0.15087 0.773 0.0
O266 O 0.41393 0.10037 0.72902 0.0
O267 O 0.36698 0.09409 0.73438 0.0
O268 O 0.46734 0.10583 0.76761 0.0
O269 O 0.45639 0.14884 0.76552 0.0
O270 O 0.42727 0.08065 0.80955 0.0
O271 O 0.39504 0.08464 0.77785 0.0
H272 H 0.31879 0.14186 0.84428 0.0
H273 H 0.28493 0.15068 0.8866 0.0
H274 H 0.22588 0.09947 0.8386 0.0
H275 H 0.25967 0.09072 0.79627 0.0
H276 H 0.49632 0.17678 0.73104 0.0
H277 H 0.52567 0.18027 0.68353 0.0
H278 H 0.51806 0.09301 0.66886 0.0
H279 H 0.48849 0.08939 0.71576 0.0
Ho280 Ho 0.15077 0.11143 1.03535 0.0
Ho281 Ho 0.1467 0.17397 1.02581 0.0
C282 C 0.13195 0.14773 0.09556 0.0
C283 C 0.16372 0.0603 0.04309 0.0
C284 C 0.15449 0.03783 0.064 0.0
C285 C 0.17431 0.02113 0.07849 0.0
C286 C 0.16643 1.0016 0.101 0.0
C287 C 0.13859 0.99836 0.10917 0.0
C288 C 0.11854 0.01415 0.09369 0.0
C289 C 0.12646 0.03396 0.07138 0.0
C290 C 0.10112 0.12991 1.01228 0.0
C291 C 0.17667 0.13676 0.97094 0.0
C292 C 0.13213 0.22148 1.00273 0.0
C293 C 0.12967 0.23606 0.97184 0.0
C294 C 0.11273 0.25943 0.96983 0.0
C295 C 0.11275 0.27593 0.94256 0.0
C296 C 0.12959 0.26935 0.91649 0.0
C297 C 0.1455 0.24514 0.91777 0.0
C298 C 0.14558 0.22866 0.94521 0.0
C299 C 0.19592 0.15731 0.051 0.0
O300 O 0.14377 0.12479 0.08575 0.0
O301 O 0.12732 0.16854 0.07552 0.0
O302 O 0.14632 0.06882 1.02169 0.0
O303 O 0.17651 0.08054 0.05717 0.0
O304 O 0.10399 0.11009 1.03263 0.0
O305 O 0.12497 0.13847 1.00602 0.0
O306 O 0.16786 0.16152 0.97979 0.0
O307 O 0.17242 0.11456 0.98842 0.0
O308 O 0.157 0.2157 1.01238 0.0
O309 O 0.11467 0.20163 1.00883 0.0
O310 O 0.18355 0.18038 0.05796 0.0
O311 O 0.18092 0.14511 1.03128 0.0
H312 H 0.196 0.02385 0.07319 0.0
H313 H 0.18215 0.98967 0.1129 0.0
H314 H 0.09699 0.01205 0.1 0.0
H315 H 0.11078 0.04676 0.0607 0.0
H316 H 0.10034 0.26567 0.98998 0.0
H317 H 0.10065 0.29465 0.94241 0.0
H318 H 0.15904 0.23985 0.89826 0.0
H319 H 0.15892 0.21082 0.94608 0.0
Ho320 Ho 0.92516 0.89838 0.77283 0.0
Ho321 Ho 0.86224 0.90052 0.78059 0.0
C322 C 0.88817 0.92579 0.71627 0.0
C323 C 0.97415 0.8854 0.75198 0.0
C324 C 0.98986 0.88342 0.72174 0.0
C325 C 0.97709 0.88621 0.6921 0.0
C326 C 0.99291 0.88598 0.66405 0.0
C327 C 0.02175 0.88292 0.66517 0.0
C328 C 0.03433 0.87956 0.69477 0.0
C329 C 0.01856 0.8798 0.7227 0.0
C330 C 0.90649 0.94701 0.79746 0.0
C331 C 0.89759 0.88411 0.84194 0.0
C332 C 0.81028 0.91136 0.78732 0.0
C333 C 0.78865 0.90186 0.80919 0.0
C334 C 0.79499 0.88342 0.83366 0.0
C335 C 0.77512 0.87673 0.85646 0.0
C336 C 0.74866 0.88836 0.85502 0.0
C337 C 0.74197 0.90584 0.82976 0.0
C338 C 0.76188 0.91256 0.80697 0.0
C339 C 0.88339 0.8512 0.75938 0.0
O340 O 0.91308 0.91834 0.72613 0.0
O341 O 0.86557 0.92085 0.73299 0.0
O342 O 0.96714 0.91006 0.7612 0.0
O343 O 0.95451 0.86744 0.75701 0.0
O344 O 0.9296 0.93519 0.80523 0.0
O345 O 0.89506 0.93183 0.77723 0.0
O346 O 0.87466 0.89531 0.83139 0.0
O347 O 0.91894 0.87944 0.82251 0.0
O348 O 0.8198 0.89306 0.76747 0.0
O349 O 0.82989 0.92592 0.80025 0.0
O350 O 0.86301 0.85369 0.77923 0.0
O351 O 0.8909 0.87518 0.75255 0.0
H352 H 0.95502 0.8891 0.6907 0.0
H353 H 0.98274 0.88892 0.64155 0.0
H354 H 0.05651 0.8775 0.69631 0.0
H355 H 0.02892 0.87772 0.74522 0.0
H356 H 0.81559 0.87501 0.83577 0.0
H357 H 0.78074 0.86352 0.87604 0.0
H358 H 0.72178 0.91528 0.82857 0.0
H359 H 0.75669 0.92686 0.78826 0.0
Ho360 Ho 0.87031 0.17543 0.52692 0.0
Ho361 Ho 0.8655 0.11262 0.53554 0.0
C362 C 0.847 0.13812 0.46827 0.0
C363 C 0.8829 0.22414 0.50529 0.0
C364 C 0.88523 0.23962 0.47471 0.0
C365 C 0.90947 0.2543 0.46747 0.0
C366 C 0.9107 0.2721 0.44119 0.0
C367 C 0.88785 0.27534 0.42118 0.0
C368 C 0.86407 0.25969 0.42752 0.0
C369 C 0.86263 0.2424 0.45414 0.0
C370 C 0.81978 0.15796 0.54842 0.0
C371 C 0.88341 0.14821 0.5962 0.0
C372 C 0.85174 0.06163 0.54293 0.0
C373 C 0.86041 0.03902 0.56386 0.0
C374 C 0.84089 0.01952 0.5737 0.0
C375 C 0.84782 0.99957 0.59612 0.0
C376 C 0.87443 0.99875 0.60888 0.0
C377 C 0.89433 0.01758 0.59819 0.0
C378 C 0.88732 0.03773 0.57594 0.0
C379 C 0.91654 0.13135 0.51646 0.0
O380 O 0.85656 0.16226 0.4779 0.0
O381 O 0.84622 0.11666 0.48759 0.0
O382 O 0.85826 0.21693 0.51466 0.0
O383 O 0.9013 0.2052 0.51149 0.0
O384 O 0.83158 0.18087 0.55671 0.0
O385 O 0.83572 0.14628 0.52913 0.0
O386 O 0.8706 0.12598 0.58611 0.0
O387 O 0.88913 0.169 0.57648 0.0
O388 O 0.86963 0.06997 0.52176 0.0
O389 O 0.83905 0.08204 0.55702 0.0
O390 O 0.91246 0.11098 0.53583 0.0
O391 O 0.89317 0.13989 0.50864 0.0
H392 H 0.92711 0.25294 0.48297 0.0
H393 H 0.92912 0.28419 0.4372 0.0
H394 H 0.84597 0.26214 0.41289 0.0
H395 H 0.84338 0.23208 0.45929 0.0
H396 H 0.82 0.0203 0.56481 0.0
H397 H 0.83217 0.98537 0.60437 0.0
H398 H 0.91485 0.01745 0.60814 0.0
H399 H 0.90262 0.05277 0.56892 0.0
Ho400 Ho 0.59817 0.11685 0.27484 0.0
Ho401 Ho 0.65851 0.10583 0.28532 0.0
C402 C 0.63396 0.08373 0.22103 0.0
C403 C 0.55203 0.13376 0.25005 0.0
C404 C 0.5356 0.13204 0.22023 0.0
C405 C 0.54261 0.14743 0.19304 0.0
C406 C 0.52493 0.14826 0.16675 0.0
C407 C 0.49984 0.1338 0.16707 0.0
C408 C 0.49323 0.11785 0.19376 0.0
C409 C 0.51085 0.11698 0.21996 0.0
C410 C 0.60885 0.06515 0.29823 0.0
C411 C 0.62242 0.13072 0.3447 0.0
C412 C 0.70669 0.09087 0.30479 0.0
C413 C 0.72779 0.10044 0.32732 0.0
C414 C 0.72155 0.10528 0.35941 0.0
C415 C 0.74236 0.11295 0.38045 0.0
C416 C 0.76957 0.11612 0.36965 0.0
C417 C 0.77568 0.11188 0.33756 0.0
C418 C 0.75497 0.104 0.31661 0.0
C419 C 0.64825 0.15243 0.25112 0.0
O420 O 0.61388 0.10178 0.22645 0.0
O421 O 0.65151 0.07773 0.24387 0.0
O422 O 0.55421 0.11157 0.26724 0.0
O423 O 0.57484 0.14802 0.24971 0.0
O424 O 0.58752 0.08 0.3058 0.0
O425 O 0.62274 0.07883 0.27866 0.0
O426 O 0.64587 0.12011 0.33434 0.0
O427 O 0.60098 0.13391 0.32538 0.0
O428 O 0.70289 0.10613 0.27972 0.0
O429 O 0.68362 0.08139 0.31665 0.0
O430 O 0.66988 0.13705 0.24828 0.0
O431 O 0.63447 0.14398 0.27501 0.0
H432 H 0.56133 0.15953 0.1924 0.0
H433 H 0.53036 0.16094 0.1466 0.0
H434 H 0.47391 0.10673 0.19471 0.0
H435 H 0.50461 0.10519 0.24053 0.0
H436 H 0.70074 0.10282 0.36833 0.0
H437 H 0.73734 0.11616 0.40517 0.0
H438 H 0.79659 0.11419 0.3289 0.0
H439 H 0.76026 0.10035 0.29203 0.0
Ho440 Ho 0.64717 0.84273 1.02107 0.0
Ho441 Ho 0.65001 0.90594 1.02741 0.0
C442 C 0.67791 0.87768 0.96569 0.0
C443 C 0.62824 0.79525 1.00347 0.0
C444 C 0.62468 0.77882 0.97412 0.0
C445 C 0.61254 0.78954 0.94651 0.0
C446 C 0.60963 0.77295 0.9194 0.0
C447 C 0.61901 0.74554 0.91943 0.0
C448 C 0.63118 0.73505 0.94698 0.0
C449 C 0.63395 0.75147 0.97394 0.0
C450 C 0.69755 0.85457 0.04531 0.0
C451 C 0.63354 0.87154 0.09011 0.0
C452 C 0.65911 0.95827 1.03297 0.0
C453 C 0.65631 0.9778 0.0595 0.0
C454 C 0.66253 0.96985 0.09067 0.0
C455 C 0.65864 0.98824 0.11574 0.0
C456 C 0.64822 0.0147 0.11006 0.0
C457 C 0.64194 0.02266 0.07901 0.0
C458 C 0.64603 1.00433 0.05389 0.0
C459 C 0.60266 0.8849 1.00182 0.0
O460 O 0.66929 0.85316 0.97539 0.0
O461 O 0.67248 0.90062 0.98139 0.0
O462 O 0.65365 0.79942 1.01224 0.0
O463 O 0.61252 0.81687 1.00798 0.0
O464 O 0.68796 0.83013 0.03991 0.0
O465 O 0.67866 0.87191 0.03851 0.0
O466 O 0.64171 0.89522 0.07793 0.0
O467 O 0.63103 0.8491 0.07205 0.0
O468 O 0.63612 0.94812 1.0223 0.0
O469 O 0.67829 0.9396 1.03543 0.0
O470 O 0.60354 0.90464 1.02238 0.0
O471 O 0.62712 0.87733 0.99696 0.0
H472 H 0.60527 0.8106 0.94589 0.0
H473 H 0.6 0.78143 0.8985 0.0
H474 H 0.6384 0.71397 0.94767 0.0
H475 H 0.64335 0.74269 0.99484 0.0
H476 H 0.67017 0.94938 0.09568 0.0
H477 H 0.6635 0.98178 0.1396 0.0
H478 H 0.63385 0.04301 0.07429 0.0
H479 H 0.64089 0.01077 1.0301 0.0
Ho480 Ho 0.92363 0.11443 0.8017 0.0
Ho481 Ho 0.86299 0.11619 0.79638 0.0
C482 C 0.88511 0.09417 0.86136 0.0
C483 C 0.97425 0.12003 0.82143 0.0
C484 C 0.98913 0.12363 0.85214 0.0
C485 C 0.98654 0.10438 0.87692 0.0
C486 C 1.00256 0.10664 0.90443 0.0
C487 C 0.02193 0.12794 0.90768 0.0
C488 C 0.02409 0.14757 0.88335 0.0
C489 C 1.00782 0.14548 0.85598 0.0
C490 C 0.90155 0.06605 0.77988 0.0
C491 C 0.89907 0.13175 0.73316 0.0
C492 C 0.81121 0.11079 0.78322 0.0
C493 C 0.79094 0.11782 0.75892 0.0
C494 C 0.79889 0.12553 0.72817 0.0
C495 C 0.77886 0.12985 0.70495 0.0
C496 C 0.75083 0.12649 0.71241 0.0
C497 C 0.74298 0.11975 0.74339 0.0
C498 C 0.76292 0.11546 0.7665 0.0
C499 C 0.88373 0.15907 0.82965 0.0
O500 O 0.90905 0.10454 0.85206 0.0
O501 O 0.86506 0.09178 0.84074 0.0
O502 O 0.9623 0.09643 0.81648 0.0
O503 O 0.95944 0.14052 0.81096 0.0
O504 O 0.9241 0.07745 0.76951 0.0
O505 O 0.89204 0.08155 0.80124 0.0
O506 O 0.87468 0.12671 0.74588 0.0
O507 O 0.92185 0.12998 0.75051 0.0
O508 O 0.82107 0.13114 0.79976 0.0
O509 O 0.83003 0.09279 0.77532 0.0
O510 O 0.86053 0.14704 0.83537 0.0
O511 O 0.89424 0.1493 0.80432 0.0
H512 H 0.97266 0.08709 0.87474 0.0
H513 H 1.00062 0.09111 0.92268 0.0
H514 H 0.03896 0.16408 0.88515 0.0
H515 H 0.01048 0.16054 0.83731 0.0
H516 H 0.82048 0.12749 0.72197 0.0
H517 H 0.78519 0.1349 0.68103 0.0
H518 H 0.72143 0.11696 0.7494 0.0
H519 H 0.75648 0.10956 0.79013 0.0
Ho520 Ho 0.64873 0.16837 0.55282 0.0
Ho521 Ho 0.65537 0.10676 0.54271 0.0
C522 C 0.67405 0.13064 0.60966 0.0
C523 C 0.63368 0.21519 0.57738 0.0
C524 C 0.63447 0.23024 0.6083 0.0
C525 C 0.6121 0.22908 0.62974 0.0
C526 C 0.61108 0.24635 0.65645 0.0
C527 C 0.63239 0.2652 0.66234 0.0
C528 C 0.65523 0.26553 0.64176 0.0
C529 C 0.65627 0.24834 0.61512 0.0
C530 C 0.70027 0.15276 0.53164 0.0
C531 C 0.63472 0.14436 0.4826 0.0
C532 C 0.67021 0.05849 0.5236 0.0
C533 C 0.66112 0.0378 0.5004 0.0
C534 C 0.66216 0.04308 0.46769 0.0
C535 C 0.65454 0.02276 0.44615 0.0
C536 C 0.64565 0.99695 0.45694 0.0
C537 C 0.6441 0.99177 0.48952 0.0
C538 C 0.65199 0.01199 0.51109 0.0
C539 C 0.60858 0.12009 0.5746 0.0
O540 O 0.66118 0.1536 0.60166 0.0
O541 O 0.67836 0.11134 0.58823 0.0
O542 O 0.65689 0.21151 0.56212 0.0
O543 O 0.61745 0.19383 0.57521 0.0
O544 O 0.68768 0.17552 0.52415 0.0
O545 O 0.68482 0.14039 0.55109 0.0
O546 O 0.64264 0.12011 0.49351 0.0
O547 O 0.63336 0.16634 0.50151 0.0
O548 O 0.65396 0.06254 0.54792 0.0
O549 O 0.68064 0.08136 0.51239 0.0
O550 O 0.62027 0.09618 0.5753 0.0
O551 O 0.61953 0.13384 0.55208 0.0
H552 H 0.59479 0.21562 0.62519 0.0
H553 H 0.59303 0.24599 0.67161 0.0
H554 H 0.67174 0.28014 0.64548 0.0
H555 H 0.67369 0.25011 0.59915 0.0
H556 H 0.66904 0.06277 0.45867 0.0
H557 H 0.65568 0.02708 0.42102 0.0
H558 H 0.63714 0.97197 0.49817 0.0
H559 H 0.65112 1.00742 0.53617 0.0
Ho560 Ho 0.59076 0.89287 0.29889 0.0
Ho561 Ho 0.65596 0.89933 0.29117 0.0
C562 C 0.62552 0.92193 0.35487 0.0
C563 C 0.54494 0.87234 0.32021 0.0
C564 C 0.52967 0.8722 0.35102 0.0
C565 C 0.5221 0.84711 0.36529 0.0
C566 C 0.50526 0.84665 0.39249 0.0
C567 C 0.49556 0.8713 0.40591 0.0
C568 C 0.50412 0.89636 0.39252 0.0
C569 C 0.52105 0.89684 0.36552 0.0
C570 C 0.60383 0.94606 0.28326 0.0
C571 C 0.61998 0.88183 0.22924 0.0
C572 C 0.70621 0.91506 0.28163 0.0
C573 C 0.72895 0.9073 0.25992 0.0
C574 C 0.73865 0.92683 0.23805 0.0
C575 C 0.75854 0.91971 0.21551 0.0
C576 C 0.76929 0.89295 0.21457 0.0
C577 C 0.76033 0.87354 0.23699 0.0
C578 C 0.74019 0.88061 0.25944 0.0
C579 C 0.63734 0.84934 0.3123 0.0
O580 O 0.60179 0.91085 0.3462 0.0
O581 O 0.64853 0.92008 0.33797 0.0
O582 O 0.54656 0.89575 0.305 0.0
O583 O 0.56797 0.85836 0.31873 0.0
O584 O 0.57888 0.93686 0.28733 0.0
O585 O 0.61972 0.92549 0.28616 0.0
O586 O 0.64393 0.88909 0.24155 0.0
O587 O 0.59713 0.87942 0.24698 0.0
O588 O 0.69916 0.89765 0.30393 0.0
O589 O 0.68492 0.92633 0.26789 0.0
O590 O 0.65864 0.85277 0.29388 0.0
O591 O 0.62791 0.87293 0.31828 0.0
H592 H 0.52843 0.8278 0.35474 0.0
H593 H 0.49863 0.82708 0.40208 0.0
H594 H 0.49668 0.91562 0.4022 0.0
H595 H 0.52659 0.91656 0.35543 0.0
H596 H 0.73036 0.94753 0.23794 0.0
H597 H 0.76522 0.93494 0.19841 0.0
H598 H 0.76848 0.85281 0.2366 0.0
H599 H 0.73311 0.86508 0.27595 0.0
Ho600 Ho 0.8665 0.84197 0.04707 0.0
Ho601 Ho 0.86416 0.9025 0.04426 0.0
C602 C 0.84069 0.87648 0.10698 0.0
C603 C 0.87626 0.79183 0.06618 0.0
C604 C 0.87962 0.77695 0.09698 0.0
C605 C 0.90309 0.76058 0.10228 0.0
C606 C 0.90501 0.74373 0.12928 0.0
C607 C 0.88342 0.74277 0.15158 0.0
C608 C 0.86054 0.76007 0.1471 0.0
C609 C 0.8587 0.77704 0.12025 0.0
C610 C 0.81632 0.86045 1.02657 0.0
C611 C 0.88129 0.86891 0.97941 0.0
C612 C 0.85915 0.95488 1.03365 0.0
C613 C 0.86414 0.97555 1.0089 0.0
C614 C 0.87309 0.96824 0.97837 0.0
C615 C 0.87757 0.98865 0.95545 0.0
C616 C 0.87325 0.01648 0.96297 0.0
C617 C 0.86458 0.02366 0.99356 0.0
C618 C 0.86006 1.00334 1.01633 0.0
C619 C 0.90717 0.88286 0.07831 0.0
O620 O 0.85344 0.85386 0.0974 0.0
O621 O 0.83837 0.89788 0.088 0.0
O622 O 0.85185 0.80136 0.05964 0.0
O623 O 0.89566 0.80884 0.05738 0.0
O624 O 0.83026 0.84054 1.01368 0.0
O625 O 0.83127 0.87101 0.04763 0.0
O626 O 0.87359 0.89236 0.99271 0.0
O627 O 0.88231 0.84589 0.99634 0.0
O628 O 0.88094 0.94366 0.04614 0.0
O629 O 0.83956 0.93707 1.02861 0.0
O630 O 0.89309 0.90455 0.08521 0.0
O631 O 0.89913 0.87326 0.05191 0.0
H632 H 0.91953 0.75999 0.08487 0.0
H633 H 0.92269 0.73033 0.1319 0.0
H634 H 0.84349 0.75952 0.16371 0.0
H635 H 0.84036 0.78944 0.11718 0.0
H636 H 0.87647 0.94688 0.97227 0.0
H637 H 0.88413 0.98279 0.93186 0.0
H638 H 0.86102 0.04501 0.99966 0.0
H639 H 0.85324 0.00933 0.03978 0.0
Ho640 Ho 0.64833 0.6166 0.79613 0.0
Ho641 Ho 0.5866 0.61454 0.79753 0.0
C642 C 0.61434 0.63084 0.73054 0.0
C643 C 0.70063 0.61576 0.78276 0.0
C644 C 0.71931 0.62175 0.75581 0.0
C645 C 0.71983 0.60493 0.7287 0.0
C646 C 0.73902 0.60968 0.70453 0.0
C647 C 0.75793 0.63134 0.70701 0.0
C648 C 0.75721 0.64845 0.7337 0.0
C649 C 0.73816 0.6436 0.75799 0.0
C650 C 0.6247 0.6574 0.83006 0.0
C651 C 0.62225 0.58782 0.85624 0.0
C652 C 0.53633 0.6226 0.81791 0.0
C653 C 0.52117 0.62188 0.84902 0.0
C654 C 0.51939 0.64505 0.86883 0.0
C655 C 0.50512 0.64396 0.89794 0.0
C656 C 0.4927 0.61935 0.90922 0.0
C657 C 0.49168 0.59754 0.88688 0.0
C658 C 0.50624 0.59846 0.85807 0.0
C659 C 0.60947 0.56694 0.77418 0.0
O660 O 0.6379 0.62729 0.74558 0.0
O661 O 0.59046 0.62878 0.74605 0.0
O662 O 0.68831 0.63664 0.79618 0.0
O663 O 0.68441 0.59457 0.78002 0.0
O664 O 0.6473 0.64502 0.83755 0.0
O665 O 0.61622 0.64869 0.80341 0.0
O666 O 0.59846 0.59799 0.84626 0.0
O667 O 0.64497 0.59002 0.83914 0.0
O668 O 0.54527 0.59923 0.80661 0.0
O669 O 0.55408 0.64242 0.81312 0.0
O670 O 0.58658 0.57817 0.76455 0.0
O671 O 0.6185 0.58212 0.79613 0.0
H672 H 0.7057 0.58784 0.72628 0.0
H673 H 0.73924 0.5964 0.68397 0.0
H674 H 0.77167 0.66529 0.73589 0.0
H675 H 0.73839 0.6567 0.7787 0.0
H676 H 0.52877 0.66429 0.86169 0.0
H677 H 0.50338 0.66301 0.91086 0.0
H678 H 0.47902 0.57964 0.89046 0.0
H679 H 0.50524 0.58082 0.84247 0.0
Ho680 Ho 0.65209 0.39981 0.04537 0.0
Ho681 Ho 0.65103 0.33841 0.04942 0.0
C682 C 0.63533 0.36502 0.98129 0.0
C683 C 0.66007 0.45042 1.02832 0.0
C684 C 0.65171 0.4699 1.00314 0.0
C685 C 0.66891 0.47402 0.97665 0.0
C686 C 0.66225 0.49365 0.9538 0.0
C687 C 0.63833 0.50957 0.95703 0.0
C688 C 0.62091 0.50542 0.98316 0.0
C689 C 0.62761 0.48583 1.00615 0.0
C690 C 0.60914 0.3805 0.0795 0.0
C691 C 0.6766 0.3746 0.10797 0.0
C692 C 0.64151 0.28864 0.07003 0.0
C693 C 0.63754 0.27406 0.10099 0.0
C694 C 0.61798 0.25283 0.10343 0.0
C695 C 0.61642 0.23622 0.13064 0.0
C696 C 0.63433 0.24042 0.15628 0.0
C697 C 0.65295 0.26257 0.15461 0.0
C698 C 0.65453 0.27921 0.12732 0.0
C699 C 0.70041 0.35858 1.02716 0.0
O700 O 0.6379 0.38885 0.99606 0.0
O701 O 0.63844 0.34147 0.99711 0.0
O702 O 0.64145 0.44297 0.04909 0.0
O703 O 0.67591 0.43 1.01967 0.0
O704 O 0.62169 0.40347 0.08483 0.0
O705 O 0.61806 0.36981 0.05382 0.0
O706 O 0.6647 0.35138 0.09901 0.0
O707 O 0.67742 0.39617 0.08912 0.0
O708 O 0.666 0.29841 0.06396 0.0
O709 O 0.62206 0.30523 0.06038 0.0
O710 O 0.68844 0.33613 1.01752 0.0
O711 O 0.68497 0.36858 0.04835 0.0
H712 H 0.68776 0.46233 0.97376 0.0
H713 H 0.67582 0.49656 0.93365 0.0
H714 H 0.60234 0.51757 0.98591 0.0
H715 H 0.61408 0.48342 1.02641 0.0
H716 H 0.60466 0.24827 0.08363 0.0
H717 H 0.60216 0.2191 0.13101 0.0
H718 H 0.6673 0.26606 0.17373 0.0
H719 H 0.66981 0.29542 0.12637 0.0
Ho720 Ho 0.86194 0.40877 0.29391 0.0
Ho721 Ho 0.92431 0.39866 0.30377 0.0
C722 C 0.89854 0.38459 0.23428 0.0
C723 C 0.81441 0.42481 0.27349 0.0
C724 C 0.79346 0.41476 0.25102 0.0
C725 C 0.78325 0.43269 0.22783 0.0
C726 C 0.76324 0.42378 0.20648 0.0
C727 C 0.75303 0.39682 0.20807 0.0
C728 C 0.76307 0.37886 0.23132 0.0
C729 C 0.78325 0.3877 0.25255 0.0
C730 C 0.87325 0.3617 0.32554 0.0
C731 C 0.8886 0.43211 0.3585 0.0
C732 C 0.9693 0.37917 0.32883 0.0
C733 C 0.98726 0.38168 0.3573 0.0
C734 C 0.97637 0.38347 0.38821 0.0
C735 C 0.99388 0.38386 0.41469 0.0
C736 C 0.02268 0.38222 0.4109 0.0
C737 C 0.0335 0.38055 0.38003 0.0
C738 C 0.01603 0.3803 0.35362 0.0
C739 C 0.9119 0.44982 0.2809 0.0
O740 O 0.87473 0.39403 0.24516 0.0
O741 O 0.92063 0.38238 0.25291 0.0
O742 O 0.81775 0.41059 0.29946 0.0
O743 O 0.83778 0.43314 0.26123 0.0
O744 O 0.84984 0.37443 0.32652 0.0
O745 O 0.88766 0.37207 0.3032 0.0
O746 O 0.91194 0.4195 0.35029 0.0
O747 O 0.86701 0.43241 0.33934 0.0
O748 O 0.96906 0.39948 0.30849 0.0
O749 O 0.94485 0.36836 0.33287 0.0
O750 O 0.93453 0.43643 0.27435 0.0
O751 O 0.8982 0.43534 0.30004 0.0
H752 H 0.79078 0.45362 0.22623 0.0
H753 H 0.75574 0.43788 0.18864 0.0
H754 H 0.75543 0.35798 0.23283 0.0
H755 H 0.79081 0.37337 0.2701 0.0
H756 H 0.95433 0.38427 0.39193 0.0
H757 H 0.98496 0.38536 0.43816 0.0
H758 H 0.05557 0.37942 0.37636 0.0
H759 H 0.02504 0.37865 0.3302 0.0
Ho760 Ho 0.86235 0.61313 0.54294 0.0
Ho761 Ho 0.86724 0.67827 0.54879 0.0
C762 C 0.88018 0.64824 0.48001 0.0
C763 C 0.84889 0.56203 0.53552 0.0
C764 C 0.85911 0.53898 0.51623 0.0
C765 C 0.84012 0.51983 0.50458 0.0
C766 C 0.84806 0.50083 0.4815 0.0
C767 C 0.87517 0.50062 0.4699 0.0
C768 C 0.89466 0.51871 0.48281 0.0
C769 C 0.88661 0.53798 0.50569 0.0
C770 C 0.91144 0.63292 0.56519 0.0
C771 C 0.83581 0.64444 0.60412 0.0
C772 C 0.88633 0.7255 0.56762 0.0
C773 C 0.88854 0.7411 0.59783 0.0
C774 C 0.8827 0.72893 0.62735 0.0
C775 C 0.88293 0.74479 0.65526 0.0
C776 C 0.88903 0.77308 0.65417 0.0
C777 C 0.89541 0.785 0.62472 0.0
C778 C 0.89517 0.7692 0.59693 0.0
C779 C 0.81517 0.66379 0.53012 0.0
O780 O 0.87305 0.6244 0.49288 0.0
O781 O 0.88185 0.67134 0.49723 0.0
O782 O 0.86454 0.57068 0.55861 0.0
O783 O 0.83837 0.58217 0.51905 0.0
O784 O 0.90881 0.6117 0.54675 0.0
O785 O 0.88753 0.6421 0.5705 0.0
O786 O 0.84799 0.66777 0.59585 0.0
O787 O 0.8381 0.62135 0.58764 0.0
O788 O 0.86142 0.72191 0.55677 0.0
O789 O 0.90162 0.70344 0.56432 0.0
O790 O 0.82371 0.68897 0.53367 0.0
O791 O 0.83587 0.64852 0.53503 0.0
H792 H 0.81877 0.52051 0.51215 0.0
H793 H 0.83277 0.4871 0.47165 0.0
H794 H 0.91561 0.51894 0.47387 0.0
H795 H 0.90148 0.55287 0.51402 0.0
H796 H 0.87743 0.70733 0.62875 0.0
H797 H 0.8777 0.73514 0.67758 0.0
H798 H 0.89996 0.80677 0.62316 0.0
H799 H 0.89962 0.77913 0.57453 0.0
Ho800 Ho 0.65543 0.40475 0.77981 0.0
Ho801 Ho 0.59399 0.39617 0.77356 0.0
C802 C 0.62081 0.38248 0.84234 0.0
C803 C 0.70492 0.41701 0.79739 0.0
C804 C 0.72471 0.40804 0.82189 0.0
C805 C 0.71942 0.41216 0.85433 0.0
C806 C 0.73918 0.405 0.87689 0.0
C807 C 0.76443 0.39351 0.86743 0.0
C808 C 0.76953 0.38877 0.83522 0.0
C809 C 0.74988 0.3961 0.81263 0.0
C810 C 0.64145 0.35824 0.74824 0.0
C811 C 0.62899 0.42754 0.71657 0.0
C812 C 0.54707 0.38001 0.74994 0.0
C813 C 0.53061 0.38244 0.72026 0.0
C814 C 0.54296 0.3833 0.69 0.0
C815 C 0.52664 0.38429 0.66248 0.0
C816 C 0.49766 0.38432 0.66461 0.0
C817 C 0.48545 0.38364 0.69485 0.0
C818 C 0.5017 0.38268 0.72225 0.0
C819 C 0.60795 0.44779 0.79434 0.0
O820 O 0.64408 0.39159 0.82964 0.0
O821 O 0.59807 0.38027 0.82476 0.0
O822 O 0.69956 0.39939 0.77489 0.0
O823 O 0.68295 0.43034 0.80692 0.0
O824 O 0.66304 0.37298 0.74228 0.0
O825 O 0.62931 0.3676 0.77282 0.0
O826 O 0.60762 0.41169 0.72438 0.0
O827 O 0.6489 0.43174 0.73729 0.0
O828 O 0.54975 0.40195 0.76746 0.0
O829 O 0.56982 0.36567 0.74862 0.0
O830 O 0.58603 0.43441 0.80335 0.0
O831 O 0.62031 0.43284 0.77466 0.0
H832 H 0.70025 0.42128 0.86232 0.0
H833 H 0.73497 0.40883 0.90169 0.0
H834 H 0.78898 0.38003 0.82756 0.0
H835 H 0.75452 0.39282 0.78782 0.0
H836 H 0.56519 0.38309 0.6876 0.0
H837 H 0.53662 0.38507 0.63953 0.0
H838 H 0.46323 0.38385 0.69725 0.0
H839 H 0.49159 0.38193 0.74514 0.0
Ho840 Ho 0.85902 0.40419 1.03626 0.0
Ho841 Ho 0.87132 0.34343 1.02759 0.0
C842 C 0.88371 0.36983 0.0969 0.0
C843 C 0.84185 0.45211 0.0538 0.0
C844 C 0.85173 0.47454 0.07413 0.0
C845 C 0.83354 0.48638 0.09614 0.0
C846 C 0.84257 0.50716 0.11635 0.0
C847 C 0.86985 0.51647 0.11464 0.0
C848 C 0.88801 0.50502 0.09235 0.0
C849 C 0.87905 0.48403 0.07231 0.0
C850 C 0.90721 0.39383 1.00509 0.0
C851 C 0.8386 0.37744 0.97222 0.0
C852 C 0.88986 0.29744 1.00423 0.0
C853 C 0.88843 0.28094 0.9746 0.0
C854 C 0.89432 0.2923 0.94462 0.0
C855 C 0.89488 0.27555 0.91748 0.0
C856 C 0.88939 0.24721 0.91978 0.0
C857 C 0.88305 0.23606 0.9496 0.0
C858 C 0.88258 0.25271 0.97665 0.0
C859 C 0.819 0.35435 0.04918 0.0
O860 O 0.87282 0.39286 0.08582 0.0
O861 O 0.88741 0.34794 0.07829 0.0
O862 O 0.85552 0.44775 1.02752 0.0
O863 O 0.83495 0.42934 0.06832 0.0
O864 O 0.89201 0.4154 1.00102 0.0
O865 O 0.89765 0.38027 1.02848 0.0
O866 O 0.85672 0.35763 0.97847 0.0
O867 O 0.83195 0.39534 0.99453 0.0
O868 O 0.86748 0.29918 1.0214 0.0
O869 O 0.90341 0.32065 1.00327 0.0
O870 O 0.83327 0.33276 0.05705 0.0
O871 O 0.83334 0.36772 1.02989 0.0
H872 H 0.81242 0.47931 0.09792 0.0
H873 H 0.82839 0.51578 0.13357 0.0
H874 H 0.90918 0.51195 0.09095 0.0
H875 H 0.89354 0.4751 0.05567 0.0
H876 H 0.89894 0.31399 0.94221 0.0
H877 H 0.89995 0.2846 0.89478 0.0
H878 H 0.87887 0.21427 0.952 0.0
H879 H 0.87814 0.24337 0.99938 0.0
Ho880 Ho 0.85774 0.61069 0.2796 0.0
Ho881 Ho 0.92034 0.62163 0.27168 0.0
C882 C 0.89309 0.63378 0.34085 0.0
C883 C 0.81126 0.59159 0.30027 0.0
C884 C 0.78847 0.60024 0.32152 0.0
C885 C 0.78461 0.58657 0.35053 0.0
C886 C 0.76316 0.59412 0.37095 0.0
C887 C 0.74508 0.6154 0.36266 0.0
C888 C 0.74863 0.62898 0.33362 0.0
C889 C 0.77015 0.62147 0.31318 0.0
C890 C 0.86826 0.65866 0.24999 0.0
C891 C 0.88736 0.59347 0.21371 0.0
C892 C 0.96732 0.63951 0.24985 0.0
C893 C 0.98295 0.6405 0.2194 0.0
C894 C 1.00219 0.66165 0.21435 0.0
C895 C 0.01964 0.66141 0.18775 0.0
C896 C 0.01821 0.64004 0.16543 0.0
C897 C 0.99804 0.61954 0.1696 0.0
C898 C 0.98055 0.61977 0.1963 0.0
C899 C 0.90649 0.5697 0.29323 0.0
O900 O 0.86937 0.62634 0.32805 0.0
O901 O 0.91613 0.6352 0.32349 0.0
O902 O 0.814 0.60438 0.27313 0.0
O903 O 0.83493 0.58667 0.3139 0.0
O904 O 0.84442 0.64668 0.25054 0.0
O905 O 0.88311 0.64761 0.27139 0.0
O906 O 0.90868 0.60861 0.22213 0.0
O907 O 0.86666 0.58843 0.23355 0.0
O908 O 0.9639 0.61538 0.26292 0.0
O909 O 0.94528 0.65487 0.25228 0.0
O910 O 0.92879 0.58314 0.30056 0.0
O911 O 0.89411 0.58439 0.27321 0.0
H912 H 0.79828 0.57002 0.35748 0.0
H913 H 0.76074 0.58348 0.39331 0.0
H914 H 0.73485 0.64549 0.32691 0.0
H915 H 0.77244 0.63234 0.29096 0.0
H916 H 1.0045 0.67785 0.23172 0.0
H917 H 0.03524 0.6772 0.1854 0.0
H918 H 0.99679 0.6026 0.15305 0.0
H919 H 0.9659 0.60319 0.1995 0.0
Ho920 Ho 0.65201 0.612 0.53061 0.0
Ho921 Ho 0.6446 0.67392 0.52336 0.0
C922 C 0.63331 0.64644 0.59242 0.0
C923 C 0.66714 0.56173 0.54031 0.0
C924 C 0.65993 0.54068 0.56444 0.0
C925 C 0.6658 0.54488 0.59671 0.0
C926 C 0.65926 0.52477 0.61919 0.0
C927 C 0.64659 0.50017 0.60997 0.0
C928 C 0.64039 0.49596 0.57793 0.0
C929 C 0.64713 0.51601 0.55533 0.0
C930 C 0.59974 0.62822 0.51378 0.0
C931 C 0.66951 0.63883 0.46369 0.0
C932 C 0.63122 0.72299 0.50341 0.0
C933 C 0.62949 0.73883 0.47333 0.0
C934 C 0.63305 0.72638 0.44352 0.0
C935 C 0.63346 0.74243 0.41575 0.0
C936 C 0.63019 0.77119 0.41726 0.0
C937 C 0.62604 0.78342 0.44703 0.0
C938 C 0.62572 0.76745 0.47468 0.0
C939 C 0.69592 0.65803 0.54422 0.0
O940 O 0.64699 0.62508 0.58118 0.0
O941 O 0.62625 0.66703 0.57317 0.0
O942 O 0.64793 0.56844 0.5201 0.0
O943 O 0.68095 0.58312 0.55032 0.0
O944 O 0.60543 0.60877 0.53374 0.0
O945 O 0.62235 0.63802 0.50454 0.0
O946 O 0.65846 0.66218 0.47382 0.0
O947 O 0.67055 0.61672 0.48202 0.0
O948 O 0.65585 0.71607 0.51259 0.0
O949 O 0.61339 0.70325 0.5082 0.0
O950 O 0.68275 0.67981 0.55384 0.0
O951 O 0.6807 0.64649 0.52433 0.0
H952 H 0.67553 0.56365 0.6047 0.0
H953 H 0.66413 0.52838 0.64383 0.0
H954 H 0.63061 0.47706 0.57043 0.0
H955 H 0.64237 0.51222 0.53071 0.0
H956 H 0.63599 0.70438 0.44174 0.0
H957 H 0.6369 0.7325 0.39314 0.0
H958 H 0.62365 0.80551 0.44892 0.0
H959 H 0.62307 0.77758 0.49732 0.0
Ho960 Ho 0.42368 0.40078 0.27713 0.0
Ho961 Ho 0.36241 0.40095 0.28076 0.0
C962 C 0.38832 0.4232 0.21712 0.0
C963 C 0.47441 0.39255 0.25882 0.0
C964 C 0.49004 0.38841 0.22857 0.0
C965 C 0.49198 0.36236 0.21407 0.0
C966 C 0.50814 0.35851 0.18674 0.0
C967 C 0.52331 0.38043 0.17368 0.0
C968 C 0.52113 0.40648 0.18783 0.0
C969 C 0.50472 0.41042 0.21489 0.0
C970 C 0.40233 0.45008 0.298 0.0
C971 C 0.39729 0.38557 0.34498 0.0
C972 C 0.31054 0.40668 0.29418 0.0
C973 C 0.29134 0.40085 0.32036 0.0
C974 C 0.2994 0.40342 0.35211 0.0
C975 C 0.28038 0.39865 0.37646 0.0
C976 C 0.2532 0.39104 0.36936 0.0
C977 C 0.24532 0.38802 0.33768 0.0
C978 C 0.26425 0.39301 0.31335 0.0
C979 C 0.38295 0.35788 0.24759 0.0
O980 O 0.41154 0.41192 0.22684 0.0
O981 O 0.3665 0.42471 0.23572 0.0
O982 O 0.46375 0.41682 0.2637 0.0
O983 O 0.45806 0.3729 0.26857 0.0
O984 O 0.42461 0.43834 0.30849 0.0
O985 O 0.39284 0.43444 0.27692 0.0
O986 O 0.37332 0.39133 0.33178 0.0
O987 O 0.42042 0.38592 0.32807 0.0
O988 O 0.32062 0.38537 0.27935 0.0
O989 O 0.32899 0.42571 0.29909 0.0
O990 O 0.3602 0.37051 0.24141 0.0
O991 O 0.39301 0.36711 0.27333 0.0
H992 H 0.48132 0.34481 0.22406 0.0
H993 H 0.50952 0.3382 0.17634 0.0
H994 H 0.53269 0.42368 0.17834 0.0
H995 H 0.50403 0.43066 0.22553 0.0
H996 H 0.32026 0.40929 0.35807 0.0
H997 H 0.28682 0.40089 0.40083 0.0
H998 H 0.22447 0.38201 0.33184 0.0
H999 H 0.25771 0.39087 0.28901 0.0
Ho1000 Ho 0.37042 0.67032 1.02249 0.0
Ho1001 Ho 0.36326 0.60739 1.03682 0.0
C1002 C 0.33977 0.63167 0.97036 0.0
C1003 C 0.39223 0.71403 0.99724 0.0
C1004 C 0.38941 0.73208 0.96884 0.0
C1005 C 0.3951 0.72236 0.93804 0.0
C1006 C 0.39494 0.74035 0.912 0.0
C1007 C 0.38907 0.76843 0.91615 0.0
C1008 C 0.38302 0.77806 0.94675 0.0
C1009 C 0.38321 0.76012 0.97276 0.0
C1010 C 0.317 0.66109 0.04013 0.0
C1011 C 0.38426 0.64539 0.09421 0.0
C1012 C 0.34634 0.55776 0.04712 0.0
C1013 C 0.35463 0.53456 0.06732 0.0
C1014 C 0.33495 0.52259 0.08745 0.0
C1015 C 0.34266 0.50224 0.10892 0.0
C1016 C 0.37013 0.49344 0.11038 0.0
C1017 C 0.38967 0.50451 0.08938 0.0
C1018 C 0.38202 0.52512 0.0681 0.0
C1019 C 0.41393 0.62306 1.01437 0.0
O1020 O 0.34747 0.65696 0.97843 0.0
O1021 O 0.34518 0.61038 0.98849 0.0
O1022 O 0.37281 0.71497 1.01884 0.0
O1023 O 0.40144 0.68907 0.9927 0.0
O1024 O 0.32732 0.68508 1.0334 0.0
O1025 O 0.33665 0.64382 0.03851 0.0
O1026 O 0.37353 0.62159 0.08573 0.0
O1027 O 0.38752 0.66615 0.07354 0.0
O1028 O 0.3629 0.56441 1.02387 0.0
O1029 O 0.33666 0.57922 0.06216 0.0
O1030 O 0.40987 0.60401 1.03556 0.0
O1031 O 0.39057 0.63209 1.0066 0.0
H1032 H 0.40025 0.70097 0.93406 0.0
H1033 H 0.39984 0.73247 0.88868 0.0
H1034 H 0.37858 0.79964 0.95057 0.0
H1035 H 0.3791 0.76833 0.99613 0.0
H1036 H 0.31374 0.52956 0.08717 0.0
H1037 H 0.32738 0.49388 0.12502 0.0
H1038 H 0.41097 0.4979 0.09031 0.0
H1039 H 0.39764 0.53408 0.05289 0.0
Ho1040 Ho 0.08756 0.61484 0.77541 0.0
Ho1041 Ho 0.15229 0.61301 0.78401 0.0
C1042 C 0.12819 0.59051 0.71854 0.0
C1043 C 0.03812 0.62498 0.75458 0.0
C1044 C 0.0235 0.63027 0.72428 0.0
C1045 C 0.03317 0.61976 0.69523 0.0
C1046 C 0.01716 0.6221 0.66768 0.0
C1047 C 0.99111 0.63482 0.66871 0.0
C1048 C 0.98192 0.64609 0.69748 0.0
C1049 C 0.99797 0.6439 0.72492 0.0
C1050 C 0.10687 0.56633 0.79907 0.0
C1051 C 0.11385 0.63069 0.84468 0.0
C1052 C 0.20176 0.59969 0.79996 0.0
C1053 C 0.22324 0.61094 0.82083 0.0
C1054 C 0.21644 0.62297 0.8501 0.0
C1055 C 0.2372 0.63018 0.87136 0.0
C1056 C 0.26499 0.62576 0.86351 0.0
C1057 C 0.27184 0.61556 0.83343 0.0
C1058 C 0.25107 0.60814 0.81225 0.0
C1059 C 0.13592 0.66282 0.7586 0.0
O1060 O 0.10346 0.60004 0.72703 0.0
O1061 O 0.1499 0.59238 0.73712 0.0
O1062 O 0.04828 0.60033 0.75842 0.0
O1063 O 0.05443 0.64413 0.76559 0.0
O1064 O 0.08378 0.57802 0.80729 0.0
O1065 O 0.11865 0.58175 0.77886 0.0
O1066 O 0.13842 0.62399 0.83339 0.0
O1067 O 0.0913 0.63076 0.82654 0.0
O1068 O 0.19619 0.61391 0.77449 0.0
O1069 O 0.17966 0.58988 0.81395 0.0
O1070 O 0.16117 0.65619 0.76496 0.0
O1071 O 0.12173 0.64278 0.76836 0.0
H1072 H 0.0527 0.60902 0.69402 0.0
H1073 H 0.0246 0.61304 0.64585 0.0
H1074 H 0.96186 0.65578 0.69895 0.0
H1075 H 0.98993 0.65201 0.74698 0.0
H1076 H 0.19511 0.62561 0.85713 0.0
H1077 H 0.23155 0.63768 0.89464 0.0
H1078 H 0.29316 0.61162 0.82721 0.0
H1079 H 0.25672 0.59905 0.78974 0.0
Ho1080 Ho 0.14784 0.33919 0.52846 0.0
Ho1081 Ho 0.15159 0.40425 0.53764 0.0
C1082 C 0.17808 0.37546 0.4746 0.0
C1083 C 0.13018 0.29189 0.50775 0.0
C1084 C 0.13069 0.27528 0.47804 0.0
C1085 C 0.13561 0.28716 0.44815 0.0
C1086 C 0.13634 0.27071 0.42066 0.0
C1087 C 0.13212 0.24208 0.4225 0.0
C1088 C 0.12705 0.23036 0.45238 0.0
C1089 C 0.12634 0.24674 0.47975 0.0
C1090 C 0.19995 0.35418 0.54744 0.0
C1091 C 0.13256 0.36717 0.59799 0.0
C1092 C 0.16387 0.45565 0.54535 0.0
C1093 C 0.15295 0.47837 0.56459 0.0
C1094 C 0.13208 0.47357 0.58703 0.0
C1095 C 0.12506 0.49397 0.60895 0.0
C1096 C 0.1388 0.51938 0.60861 0.0
C1097 C 0.15848 0.52472 0.58497 0.0
C1098 C 0.16555 0.50428 0.56309 0.0
C1099 C 0.10282 0.38418 0.51442 0.0
O1100 O 0.16661 0.35156 0.48186 0.0
O1101 O 0.17553 0.3978 0.49236 0.0
O1102 O 0.15362 0.29517 0.52235 0.0
O1103 O 0.11534 0.31438 0.50791 0.0
O1104 O 0.19193 0.32906 0.54233 0.0
O1105 O 0.17879 0.36907 0.54364 0.0
O1106 O 0.14172 0.3912 0.58755 0.0
O1107 O 0.13043 0.34512 0.57904 0.0
O1108 O 0.14821 0.44674 0.52248 0.0
O1109 O 0.17497 0.43564 0.56158 0.0
O1110 O 0.10499 0.40474 0.53392 0.0
O1111 O 0.12696 0.37584 0.50869 0.0
H1112 H 0.13907 0.30908 0.44607 0.0
H1113 H 0.14049 0.28028 0.39799 0.0
H1114 H 0.1239 0.20839 0.45456 0.0
H1115 H 0.12253 0.23702 0.50242 0.0
H1116 H 0.12226 0.4536 0.58863 0.0
H1117 H 0.11009 0.4894 0.6273 0.0
H1118 H 0.16952 0.54407 0.58467 0.0
H1119 H 0.1818 0.50824 0.54603 0.0
Ho1120 Ho 0.42734 0.61775 0.29983 0.0
Ho1121 Ho 0.36573 0.61674 0.29503 0.0
C1122 C 0.38933 0.58965 0.35736 0.0
C1123 C 0.47665 0.6286 0.32098 0.0
C1124 C 0.49129 0.62732 0.35213 0.0
C1125 C 0.49449 0.65083 0.37106 0.0
C1126 C 0.50839 0.64955 0.4002 0.0
C1127 C 0.51901 0.62447 0.41233 0.0
C1128 C 0.51843 0.60191 0.39097 0.0
C1129 C 0.50424 0.60307 0.36214 0.0
C1130 C 0.4081 0.56887 0.27726 0.0
C1131 C 0.40119 0.63319 0.23141 0.0
C1132 C 0.31408 0.6116 0.28149 0.0
C1133 C 0.29477 0.61685 0.25538 0.0
C1134 C 0.29934 0.60649 0.22475 0.0
C1135 C 0.27989 0.61101 0.20097 0.0
C1136 C 0.25584 0.62605 0.20752 0.0
C1137 C 0.2515 0.63677 0.23787 0.0
C1138 C 0.27079 0.63211 0.26166 0.0
C1139 C 0.38582 0.65928 0.32934 0.0
O1140 O 0.41366 0.59987 0.34826 0.0
O1141 O 0.36747 0.59193 0.33918 0.0
O1142 O 0.46978 0.60539 0.30777 0.0
O1143 O 0.45746 0.64717 0.31751 0.0
O1144 O 0.43072 0.58073 0.26767 0.0
O1145 O 0.3972 0.58413 0.29795 0.0
O1146 O 0.37721 0.62636 0.24414 0.0
O1147 O 0.42405 0.63354 0.24881 0.0
O1148 O 0.32446 0.63336 0.29504 0.0
O1149 O 0.33209 0.59174 0.27796 0.0
O1150 O 0.36346 0.64602 0.33579 0.0
O1151 O 0.39585 0.65056 0.30331 0.0
H1152 H 0.48648 0.67047 0.3632 0.0
H1153 H 0.51135 0.66878 0.41244 0.0
H1154 H 0.52962 0.58319 0.39525 0.0
H1155 H 0.50402 0.58492 0.34729 0.0
H1156 H 0.31771 0.59475 0.21924 0.0
H1157 H 0.28347 0.60264 0.17756 0.0
H1158 H 0.23301 0.64839 0.24322 0.0
H1159 H 0.26687 0.64025 0.28511 0.0
Ho1160 Ho 0.14601 0.67137 0.04971 0.0
Ho1161 Ho 0.15575 0.61069 0.04165 0.0
C1162 C 0.17916 0.63708 0.10422 0.0
C1163 C 0.1296 0.71796 0.07383 0.0
C1164 C 0.1306 0.73355 0.10435 0.0
C1165 C 0.10735 0.73433 0.12446 0.0
C1166 C 0.10668 0.75158 0.1511 0.0
C1167 C 0.12917 0.76865 0.15823 0.0
C1168 C 0.1528 0.7672 0.13894 0.0
C1169 C 0.15352 0.7499 0.11231 0.0
C1170 C 0.1974 0.65914 1.02607 0.0
C1171 C 0.1309 0.64522 0.98135 0.0
C1172 C 0.16932 0.56122 1.02547 0.0
C1173 C 0.16023 0.53941 1.00375 0.0
C1174 C 0.15559 0.54463 0.97148 0.0
C1175 C 0.14973 0.52294 0.95089 0.0
C1176 C 0.14819 0.49591 0.96237 0.0
C1177 C 0.1516 0.49085 0.99476 0.0
C1178 C 0.15765 0.51247 1.01529 0.0
C1179 C 0.10953 0.62326 0.07563 0.0
O1180 O 0.16166 0.65747 0.09832 0.0
O1181 O 0.18418 0.61832 0.08235 0.0
O1182 O 0.15241 0.71504 0.05765 0.0
O1183 O 0.11438 0.69582 0.07295 0.0
O1184 O 0.18266 0.68022 1.01748 0.0
O1185 O 0.1836 0.64607 0.04629 0.0
O1186 O 0.14141 0.62199 0.99234 0.0
O1187 O 0.12833 0.66731 0.99982 0.0
O1188 O 0.15299 0.56674 0.04928 0.0
O1189 O 0.18017 0.58328 1.01281 0.0
O1190 O 0.12493 0.60193 0.08018 0.0
O1191 O 0.11811 0.63573 0.05098 0.0
H1192 H 0.08924 0.72227 0.119 0.0
H1193 H 0.08816 0.75245 0.16546 0.0
H1194 H 0.17033 0.78027 0.14381 0.0
H1195 H 0.17172 0.75004 0.09739 0.0
H1196 H 0.15728 0.56526 0.962 0.0
H1197 H 0.14731 0.52709 0.92588 0.0
H1198 H 0.15067 0.47004 1.00386 0.0
H1199 H 0.16114 0.50804 0.04007 0.0
Ho1200 Ho 0.09733 0.39267 0.80739 0.0
Ho1201 Ho 0.15789 0.40498 0.79242 0.0
C1202 C 0.13735 0.41882 0.86165 0.0
C1203 C 0.05236 0.37392 0.83382 0.0
C1204 C 0.0363 0.37493 0.86399 0.0
C1205 C 0.01973 0.35235 0.8724 0.0
C1206 C 1.00179 0.35368 0.89853 0.0
C1207 C 1.00016 0.37757 0.91713 0.0
C1208 C 0.01772 0.39975 0.90971 0.0
C1209 C 0.03553 0.3985 0.88332 0.0
C1210 C 0.10718 0.44584 0.7885 0.0
C1211 C 0.11958 0.38134 0.73521 0.0
C1212 C 0.20431 0.42377 0.77166 0.0
C1213 C 0.22665 0.41533 0.74993 0.0
C1214 C 0.22191 0.4105 0.71759 0.0
C1215 C 0.2438 0.40349 0.69751 0.0
C1216 C 0.27059 0.40104 0.70953 0.0
C1217 C 0.27526 0.40539 0.74182 0.0
C1218 C 0.25347 0.41262 0.76182 0.0
C1219 C 0.14945 0.35551 0.82111 0.0
O1220 O 0.11586 0.4029 0.85554 0.0
O1221 O 0.15297 0.42763 0.83806 0.0
O1222 O 0.05347 0.39627 0.8167 0.0
O1223 O 0.07583 0.36078 0.83398 0.0
O1224 O 0.08507 0.43195 0.78198 0.0
O1225 O 0.12223 0.43084 0.80548 0.0
O1226 O 0.14299 0.39286 0.74391 0.0
O1227 O 0.09911 0.37696 0.75595 0.0
O1228 O 0.20188 0.40934 0.79765 0.0
O1229 O 0.18048 0.43034 0.75926 0.0
O1230 O 0.17251 0.36885 0.82118 0.0
O1231 O 0.13388 0.36693 0.80084 0.0
H1232 H 0.01984 0.33397 0.85792 0.0
H1233 H 0.98825 0.33648 0.9034 0.0
H1234 H 0.01657 0.41857 0.92334 0.0
H1235 H 0.04797 0.41627 0.87739 0.0
H1236 H 0.20143 0.41234 0.70776 0.0
H1237 H 0.23994 0.40017 0.67258 0.0
H1238 H 0.29585 0.40362 0.75139 0.0
H1239 H 0.25762 0.41632 0.78662 0.0
Ho1240 Ho 0.37008 0.34527 0.55129 0.0
Ho1241 Ho 0.36571 0.40716 0.54372 0.0
C1242 C 0.34872 0.38151 0.61131 0.0
C1243 C 0.38144 0.29616 0.57169 0.0
C1244 C 0.38384 0.28143 0.60253 0.0
C1245 C 0.40721 0.28411 0.62197 0.0
C1246 C 0.40993 0.26806 0.64947 0.0
C1247 C 0.38944 0.24896 0.65796 0.0
C1248 C 0.36578 0.24693 0.63918 0.0
C1249 C 0.36304 0.2629 0.6118 0.0
C1250 C 0.31896 0.36263 0.53155 0.0
C1251 C 0.38242 0.37186 0.48233 0.0
C1252 C 0.35312 0.45845 0.53616 0.0
C1253 C 0.36296 0.4797 0.51408 0.0
C1254 C 0.3839 0.47365 0.4921 0.0
C1255 C 0.39106 0.49277 0.46875 0.0
C1256 C 0.37733 0.51816 0.46708 0.0
C1257 C 0.35718 0.52463 0.48984 0.0
C1258 C 0.35003 0.50548 0.51322 0.0
C1259 C 0.41708 0.38842 0.56184 0.0
O1260 O 0.3589 0.35783 0.60121 0.0
O1261 O 0.34686 0.40299 0.59213 0.0
O1262 O 0.35678 0.30415 0.56363 0.0
O1263 O 0.40033 0.31424 0.56405 0.0
O1264 O 0.33132 0.34035 0.52213 0.0
O1265 O 0.33495 0.37426 0.55072 0.0
O1266 O 0.36958 0.39395 0.49287 0.0
O1267 O 0.38882 0.35134 0.50185 0.0
O1268 O 0.37089 0.44984 0.55705 0.0
O1269 O 0.33958 0.43823 0.52301 0.0
O1270 O 0.41274 0.40844 0.54212 0.0
O1271 O 0.39375 0.37995 0.57014 0.0
H1272 H 0.42369 0.29809 0.61558 0.0
H1273 H 0.42842 0.26987 0.66355 0.0
H1274 H 0.34979 0.23228 0.64517 0.0
H1275 H 0.34487 0.26019 0.59736 0.0
H1276 H 0.39398 0.45375 0.49232 0.0
H1277 H 0.40641 0.48733 0.45114 0.0
H1278 H 0.34619 0.54399 0.48865 0.0
H1279 H 0.33375 0.51041 0.5299 0.0
C1280 C 0.31729 0.12198 0.19683 0.0
C1281 C 0.2892 0.12997 0.19507 0.0
C1282 C 0.29746 0.14992 0.14258 0.0
C1283 C 0.32426 0.13819 0.14243 0.0
N1284 N 0.3601 0.11286 0.16872 0.0
N1285 N 0.25147 0.14894 0.16502 0.0
C1286 C 0.33436 0.12425 0.16946 0.0
C1287 C 0.27904 0.14357 0.16776 0.0
N1288 N 0.32767 0.11277 0.22491 0.0
N1289 N 0.28948 0.16697 0.11858 0.0
H1290 H 0.23705 0.14411 0.18251 0.0
H1291 H 0.24237 0.15621 0.14441 0.0
H1292 H 0.30193 0.17156 0.09917 0.0
H1293 H 0.27138 0.17847 0.1191 0.0
H1294 H 0.34849 0.10896 0.22872 0.0
H1295 H 0.31569 0.11117 0.2454 0.0
H1296 H 0.36754 0.09963 0.18607 0.0
H1297 H 0.37372 0.11567 0.14982 0.0
C1298 C 0.11325 0.04595 0.38563 0.0
C1299 C 0.1265 0.07199 0.38535 0.0
C1300 C 0.14893 0.06086 0.43568 0.0
C1301 C 0.13899 0.03349 0.43329 0.0
N1302 N 0.11412 0.99882 0.40429 0.0
N1303 N 0.15685 0.10473 0.40976 0.0
C1304 C 0.12158 0.02575 0.40795 0.0
C1305 C 0.14427 0.0796 0.41038 0.0
N1306 N 0.09262 0.04049 0.36469 0.0
N1307 N 0.16215 0.06907 0.46256 0.0
H1308 H 0.152 0.11974 0.39306 0.0
H1309 H 0.17272 0.11035 0.42491 0.0
H1310 H 0.16571 0.05591 0.4816 0.0
H1311 H 0.16759 0.08936 0.46719 0.0
H1312 H 0.08043 0.0229 0.36567 0.0
H1313 H 0.08582 0.05469 0.34807 0.0
H1314 H 0.10401 0.99132 0.38442 0.0
H1315 H 0.12 0.98331 0.41991 0.0
C1316 C 0.20507 0.90536 0.68403 0.0
C1317 C 0.22488 0.88447 0.68961 0.0
C1318 C 0.20353 0.85551 0.64901 0.0
C1319 C 0.1865 0.87804 0.64006 0.0
N1320 N 0.1696 0.92386 0.64971 0.0
N1321 N 0.24425 0.84018 0.67712 0.0
C1322 C 0.18672 0.90273 0.65802 0.0
C1323 C 0.22425 0.85955 0.67226 0.0
N1324 N 0.20373 0.92756 0.70383 0.0
N1325 N 0.2 0.83024 0.6355 0.0
H1326 H 0.25921 0.84199 0.69463 0.0
H1327 H 0.24724 0.82318 0.66256 0.0
H1328 H 0.1857 0.82617 0.61792 0.0
H1329 H 0.20961 0.81245 0.6436 0.0
H1330 H 0.18815 0.94224 0.70321 0.0
H1331 H 0.21729 0.93042 0.72261 0.0
H1332 H 0.17103 0.94369 0.65879 0.0
H1333 H 0.15418 0.92171 0.63279 0.0
C1334 C 0.36665 0.93706 0.91105 0.0
C1335 C 0.38658 0.94249 0.88726 0.0
C1336 C 0.40183 0.98329 0.91648 0.0
C1337 C 0.37946 0.97991 0.93782 0.0
N1338 N 0.33822 0.95553 0.95325 0.0
N1339 N 0.42048 0.97338 0.86463 0.0
C1340 C 0.36129 0.9572 0.93467 0.0
C1341 C 0.40367 0.96618 0.88933 0.0
N1342 N 0.35322 0.91237 0.91136 0.0
N1343 N 0.4216 1.00258 0.92244 0.0
H1344 H 0.42258 0.96176 0.84409 0.0
H1345 H 0.43058 0.99225 0.86327 0.0
H1346 H 0.42096 0.01549 0.94214 0.0
H1347 H 0.43989 1.00403 0.90955 0.0
H1348 H 0.3404 0.90604 0.9298 0.0
H1349 H 0.35703 0.89705 0.89462 0.0
H1350 H 0.32268 0.94114 0.94967 0.0
H1351 H 0.33338 0.96999 0.97062 0.0
C1352 C 0.31791 0.86075 0.41686 0.0
C1353 C 0.32643 0.88444 0.43401 0.0
C1354 C 0.29554 0.91333 0.40237 0.0
C1355 C 0.28458 0.88935 0.38826 0.0
N1356 N 0.28344 0.8401 0.38284 0.0
N1357 N 0.33265 0.93367 0.43213 0.0
C1358 C 0.29534 0.86301 0.39559 0.0
C1359 C 0.31795 0.91091 0.42353 0.0
N1360 N 0.33262 0.83683 0.41865 0.0
N1361 N 0.28376 0.93839 0.39654 0.0
H1362 H 0.35056 0.93256 0.44555 0.0
H1363 H 0.32927 0.95321 0.42286 0.0
H1364 H 0.26765 0.94121 0.38063 0.0
H1365 H 0.2884 0.95608 0.40931 0.0
H1366 H 0.32829 0.81941 0.40529 0.0
H1367 H 0.35182 0.83549 0.4293 0.0
H1368 H 0.28789 0.82016 0.39018 0.0
H1369 H 0.26741 0.84108 0.36652 0.0
C1370 C 0.39442 0.06369 0.63318 0.0
C1371 C 0.38447 0.03657 0.63764 0.0
C1372 C 0.37857 0.04487 0.6943 0.0
C1373 C 0.38931 0.07205 0.69037 0.0
N1374 N 0.40982 0.10649 0.65664 0.0
N1375 N 0.37268 0.99919 0.67253 0.0
C1376 C 0.39827 0.08107 0.65999 0.0
C1377 C 0.37837 0.02653 0.66825 0.0
N1378 N 0.39912 0.07309 0.60314 0.0
N1379 N 0.36766 0.03657 0.72262 0.0
H1380 H 0.37161 0.98512 0.65399 0.0
H1381 H 0.37134 0.98982 0.69464 0.0
H1382 H 0.36922 0.04759 0.74353 0.0
H1383 H 0.35564 0.01899 0.72531 0.0
H1384 H 0.40334 0.0935 0.59758 0.0
H1385 H 0.39748 0.06051 0.58324 0.0
H1386 H 0.41981 0.11321 0.63622 0.0
H1387 H 0.41033 0.12069 0.67495 0.0
C1388 C 0.18914 0.14569 0.91376 0.0
C1389 C 0.19601 0.13436 0.94366 0.0
C1390 C 0.23879 0.11555 0.92116 0.0
C1391 C 0.23327 0.12917 0.89229 0.0
N1392 N 0.20554 0.16089 0.86231 0.0
N1393 N 0.23095 0.11405 0.97736 0.0
C1394 C 0.2091 0.14536 0.88892 0.0
C1395 C 0.22182 0.1208 0.94782 0.0
N1396 N 0.1632 0.15563 0.90861 0.0
N1397 N 0.25981 0.09685 0.92296 0.0
H1398 H 0.21991 0.11791 0.998 0.0
H1399 H 0.25094 0.10727 0.98179 0.0
H1400 H 0.27279 0.09221 0.90396 0.0
H1401 H 0.26274 0.084 0.94239 0.0
H1402 H 0.15615 0.16167 0.88644 0.0
H1403 H 0.14779 0.15547 0.9259 0.0
H1404 H 0.18984 0.17533 0.8599 0.0
H1405 H 0.2197 0.16105 0.84366 0.0
C1406 C 0.1243 0.93483 0.15985 0.0
C1407 C 0.12687 0.94646 0.19055 0.0
C1408 C 0.13092 0.99256 0.16707 0.0
C1409 C 0.1312 0.98067 0.13655 0.0
N1410 N 0.12899 0.94092 0.10287 0.0
N1411 N 0.1379 0.98618 0.22285 0.0
C1412 C 0.12782 0.9519 0.13262 0.0
C1413 C 0.13151 0.97526 0.19403 0.0
N1414 N 0.11941 0.90731 0.1568 0.0
N1415 N 0.12997 0.02054 0.17037 0.0
H1416 H 0.13844 0.97488 0.24362 0.0
H1417 H 0.14504 1.00619 0.22594 0.0
H1418 H 0.13058 0.0341 0.15128 0.0
H1419 H 0.12604 0.03031 0.19186 0.0
H1420 H 0.11407 0.89781 0.13566 0.0
H1421 H 0.12003 0.89391 0.17596 0.0
H1422 H 0.12965 0.91995 0.09814 0.0
H1423 H 0.13044 0.95305 0.08256 0.0
C1424 C 0.73514 0.90137 0.91001 0.0
C1425 C 0.72967 0.88573 0.88256 0.0
C1426 C 0.68812 0.86689 0.908 0.0
C1427 C 0.69564 0.8799 0.93683 0.0
N1428 N 0.73015 0.90468 0.96648 0.0
N1429 N 0.703 0.85097 0.85616 0.0
C1430 C 0.72015 0.89589 0.93813 0.0
C1431 C 0.70674 0.86766 0.88175 0.0
N1432 N 0.75438 0.92192 0.90916 0.0
N1433 N 0.66272 0.85508 0.90508 0.0
H1434 H 0.71594 0.85148 0.83638 0.0
H1435 H 0.68844 0.83526 0.85559 0.0
H1436 H 0.64805 0.85521 0.92317 0.0
H1437 H 0.65515 0.84758 0.88376 0.0
H1438 H 0.75686 0.93609 0.9274 0.0
H1439 H 0.76604 0.92659 0.88907 0.0
H1440 H 0.74933 0.91397 0.96891 0.0
H1441 H 0.72081 0.90002 0.98797 0.0
C1442 C 0.8752 0.99033 0.66715 0.0
C1443 C 0.8802 0.98035 0.63618 0.0
C1444 C 0.89329 0.93521 0.65778 0.0
C1445 C 0.88581 0.94448 0.68852 0.0
N1446 N 0.86663 0.98015 0.72217 0.0
N1447 N 0.89239 0.9434 0.60096 0.0
C1448 C 0.87595 0.97183 0.69311 0.0
C1449 C 0.88898 0.95283 0.6312 0.0
N1450 N 0.87025 0.01775 0.67185 0.0
N1451 N 0.90423 0.90949 0.65401 0.0
H1452 H 0.89032 0.95605 0.58117 0.0
H1453 H 0.89584 0.92288 0.59522 0.0
H1454 H 0.90571 0.89535 0.67248 0.0
H1455 H 0.91307 0.90249 0.63303 0.0
H1456 H 0.87007 0.02703 0.69404 0.0
H1457 H 0.86848 0.03192 0.65346 0.0
H1458 H 0.85562 0.99825 0.72592 0.0
H1459 H 0.86832 0.96845 0.74262 0.0
C1460 C 0.80988 0.10156 0.40262 0.0
C1461 C 0.79208 0.1228 0.39207 0.0
C1462 C 0.81862 0.15668 0.42226 0.0
C1463 C 0.83361 0.13489 0.43652 0.0
N1464 N 0.85238 0.08962 0.42929 0.0
N1465 N 0.77832 0.17045 0.39246 0.0
C1466 C 0.83186 0.10814 0.42335 0.0
C1467 C 0.79618 0.15037 0.40197 0.0
N1468 N 0.80487 0.07488 0.39421 0.0
N1469 N 0.82738 0.18317 0.42548 0.0
H1470 H 0.7625 0.16693 0.37636 0.0
H1471 H 0.77798 0.19012 0.40218 0.0
H1472 H 0.84664 0.18793 0.43457 0.0
H1473 H 0.81818 0.19987 0.41431 0.0
H1474 H 0.81504 0.05813 0.40411 0.0
H1475 H 0.78899 0.06918 0.37904 0.0
H1476 H 0.85389 0.07047 0.41843 0.0
H1477 H 0.86982 0.09492 0.44226 0.0
C1478 C 0.66545 0.05156 0.14644 0.0
C1479 C 0.64377 0.03406 0.13684 0.0
C1480 C 0.61366 0.05355 0.17798 0.0
C1481 C 0.63641 0.06871 0.19025 0.0
N1482 N 0.68491 0.08053 0.18699 0.0
N1483 N 0.59829 0.01569 0.1451 0.0
C1484 C 0.66255 0.06727 0.17466 0.0
C1485 C 0.61812 0.03442 0.15295 0.0
N1486 N 0.68871 0.05355 0.12816 0.0
N1487 N 0.58772 0.05722 0.18997 0.0
H1488 H 0.60038 1.00201 0.12624 0.0
H1489 H 0.58067 0.0122 0.15866 0.0
H1490 H 0.58309 0.06975 0.20911 0.0
H1491 H 0.5701 0.04939 0.17931 0.0
H1492 H 0.70386 0.06839 0.13155 0.0
H1493 H 0.69192 0.04176 0.10786 0.0
H1494 H 0.70506 0.07693 0.17949 0.0
H1495 H 0.68384 0.09422 0.20586 0.0
C1496 C 0.71346 0.15141 0.68311 0.0
C1497 C 0.72952 0.12735 0.68746 0.0
C1498 C 0.70107 0.10276 0.64916 0.0
C1499 C 0.68776 0.12787 0.64129 0.0
N1500 N 0.67099 0.17067 0.66302 0.0
N1501 N 0.73989 0.08027 0.67383 0.0
C1502 C 0.69092 0.15085 0.66172 0.0
C1503 C 0.72359 0.10301 0.67037 0.0
N1504 N 0.72024 0.17501 0.6988 0.0
N1505 N 0.69051 0.07838 0.63869 0.0
H1506 H 0.756 0.07914 0.69002 0.0
H1507 H 0.73882 0.06323 0.65897 0.0
H1508 H 0.6719 0.07714 0.6266 0.0
H1509 H 0.69782 0.05922 0.64577 0.0
H1510 H 0.71139 0.19405 0.69391 0.0
H1511 H 0.73637 0.17601 0.71497 0.0
H1512 H 0.67131 0.18712 0.67876 0.0
H1513 H 0.65192 0.16831 0.65215 0.0
C1514 C 0.65514 0.95215 0.42929 0.0
C1515 C 0.63796 0.97545 0.4338 0.0
C1516 C 0.61002 0.96204 0.38834 0.0
C1517 C 0.62672 0.93821 0.38443 0.0
N1518 N 0.65963 0.90666 0.40653 0.0
N1519 N 0.59514 0.99873 0.42322 0.0
C1520 C 0.64754 0.93203 0.40669 0.0
C1521 C 0.6141 0.97912 0.41512 0.0
N1522 N 0.67938 0.94987 0.4454 0.0
N1523 N 0.59141 0.96942 0.36573 0.0
H1524 H 0.59743 0.01153 0.44284 0.0
H1525 H 0.57599 1.00051 0.4124 0.0
H1526 H 0.58711 0.95749 0.34599 0.0
H1527 H 0.58164 0.98849 0.36532 0.0
H1528 H 0.69409 0.93486 0.44041 0.0
H1529 H 0.68593 0.96431 0.46195 0.0
H1530 H 0.67327 0.90003 0.42389 0.0
H1531 H 0.65356 0.89121 0.39096 0.0
C1532 C 0.79949 0.86225 0.1389 0.0
C1533 C 0.82497 0.8765 0.13716 0.0
C1534 C 0.81639 0.89613 0.1898 0.0
C1535 C 0.78924 0.88531 0.18919 0.0
N1536 N 0.75359 0.86064 0.16148 0.0
N1537 N 0.85812 0.90707 0.16049 0.0
C1538 C 0.78051 0.86876 0.16348 0.0
C1539 C 0.83361 0.89338 0.16259 0.0
N1540 N 0.79336 0.84249 0.11709 0.0
N1541 N 0.82581 0.90853 0.21667 0.0
H1542 H 0.87209 0.90385 0.14205 0.0
H1543 H 0.86415 0.92236 0.17621 0.0
H1544 H 0.81373 0.91067 0.23701 0.0
H1545 H 0.84615 0.91463 0.21985 0.0
H1546 H 0.7766 0.82927 0.11935 0.0
H1547 H 0.80637 0.83744 0.09832 0.0
H1548 H 0.74524 0.85153 0.14141 0.0
H1549 H 0.7389 0.86504 0.17883 0.0
C1550 C 0.9043 0.07393 0.91258 0.0
C1551 C 0.88151 0.08061 0.89313 0.0
C1552 C 0.85264 0.04801 0.92265 0.0
C1553 C 0.87634 0.03837 0.93868 0.0
N1554 N 0.92508 0.04127 0.94877 0.0
N1555 N 0.83212 0.08518 0.89291 0.0
C1556 C 0.90228 0.0512 0.93376 0.0
C1557 C 0.85501 0.0709 0.90201 0.0
N1558 N 0.92657 0.09101 0.91345 0.0
N1559 N 0.82802 0.03472 0.92631 0.0
H1560 H 0.83348 0.1041 0.88134 0.0
H1561 H 0.81227 0.08051 0.90067 0.0
H1562 H 0.82531 0.01804 0.94153 0.0
H1563 H 0.81088 0.03879 0.91234 0.0
H1564 H 0.94293 0.08848 0.92902 0.0
H1565 H 0.92668 0.11012 0.90232 0.0
H1566 H 0.94505 0.04758 0.94333 0.0
H1567 H 0.92423 0.0252 0.96511 0.0
C1568 C 0.80555 0.62486 0.68449 0.0
C1569 C 0.77865 0.63607 0.68159 0.0
C1570 C 0.79157 0.65766 0.63127 0.0
C1571 C 0.81752 0.64411 0.63243 0.0
N1572 N 0.84965 0.61483 0.65955 0.0
N1573 N 0.74468 0.66049 0.65109 0.0
C1574 C 0.82463 0.62773 0.65897 0.0
C1575 C 0.7713 0.65179 0.65468 0.0
N1576 N 0.81285 0.61173 0.71182 0.0
N1577 N 0.7864 0.67658 0.60813 0.0
H1578 H 0.72952 0.65773 0.66837 0.0
H1579 H 0.73704 0.66865 0.63012 0.0
H1580 H 0.80058 0.68165 0.59061 0.0
H1581 H 0.76902 0.68913 0.6078 0.0
H1582 H 0.83285 0.60555 0.71701 0.0
H1583 H 0.7991 0.60829 0.73044 0.0
H1584 H 0.85509 0.59987 0.67597 0.0
H1585 H 0.86492 0.6186 0.6427 0.0
C1586 C 0.61058 0.54284 0.88208 0.0
C1587 C 0.62271 0.5694 0.88418 0.0
C1588 C 0.64111 0.558 0.93657 0.0
C1589 C 0.63162 0.53059 0.93277 0.0
N1590 N 0.60955 0.4958 0.90126 0.0
N1591 N 0.64995 0.60253 0.91247 0.0
C1592 C 0.61678 0.52275 0.90544 0.0
C1593 C 0.63801 0.57709 0.91127 0.0
N1594 N 0.59306 0.53675 0.85784 0.0
N1595 N 0.65285 0.56574 0.96453 0.0
H1596 H 0.64648 0.61763 0.89541 0.0
H1597 H 0.66416 0.60842 0.92952 0.0
H1598 H 0.65614 0.55209 0.98318 0.0
H1599 H 0.6577 0.58597 0.97024 0.0
H1600 H 0.58124 0.51892 0.85691 0.0
H1601 H 0.5886 0.55029 0.83951 0.0
H1602 H 0.60201 0.48792 0.88012 0.0
H1603 H 0.6128 0.48067 0.91834 0.0
C1604 C 0.68576 0.39255 0.16241 0.0
C1605 C 0.69369 0.37533 0.1369 0.0
C1606 C 0.7399 0.37004 0.15952 0.0
C1607 C 0.73202 0.38747 0.18494 0.0
N1608 N 0.69626 0.41026 0.21471 0.0
N1609 N 0.72586 0.3428 0.11432 0.0
C1610 C 0.70451 0.39716 0.18765 0.0
C1611 C 0.71992 0.36231 0.13664 0.0
N1612 N 0.66046 0.40492 0.16209 0.0
N1613 N 0.76682 0.3621 0.15632 0.0
H1614 H 0.71225 0.33719 0.09651 0.0
H1615 H 0.74343 0.33055 0.11473 0.0
H1616 H 0.78211 0.36747 0.17241 0.0
H1617 H 0.77464 0.35175 0.1367 0.0
H1618 H 0.65455 0.42038 0.17774 0.0
H1619 H 0.64559 0.40042 0.14513 0.0
H1620 H 0.67592 0.4156 0.21959 0.0
H1621 H 0.70949 0.41383 0.23364 0.0
C1622 C 0.87899 0.49551 0.41124 0.0
C1623 C 0.88197 0.48371 0.44164 0.0
C1624 C 0.89459 0.43944 0.41756 0.0
C1625 C 0.88798 0.45019 0.38714 0.0
N1626 N 0.873 0.48893 0.35522 0.0
N1627 N 0.89107 0.4445 0.47465 0.0
C1628 C 0.88003 0.47837 0.38406 0.0
C1629 C 0.88956 0.45573 0.44505 0.0
N1630 N 0.87565 0.52335 0.40826 0.0
N1631 N 0.90569 0.41373 0.42038 0.0
H1632 H 0.88871 0.45611 0.49524 0.0
H1633 H 0.89297 0.42351 0.47892 0.0
H1634 H 0.90826 0.40034 0.40144 0.0
H1635 H 0.91409 0.40617 0.44125 0.0
H1636 H 0.87728 0.53379 0.38682 0.0
H1637 H 0.8735 0.53658 0.42751 0.0
H1638 H 0.86288 0.50763 0.35226 0.0
H1639 H 0.87613 0.47875 0.33396 0.0
C1640 C 0.80448 0.4093 0.89977 0.0
C1641 C 0.78616 0.38796 0.89128 0.0
C1642 C 0.80866 0.35691 0.92908 0.0
C1643 C 0.82402 0.37953 0.94123 0.0
N1644 N 0.83627 0.42779 0.93803 0.0
N1645 N 0.76919 0.34191 0.89844 0.0
C1646 C 0.82199 0.40581 0.92634 0.0
C1647 C 0.78798 0.3618 0.90589 0.0
N1648 N 0.80539 0.43287 0.88209 0.0
N1649 N 0.81365 0.33075 0.9394 0.0
H1650 H 0.75433 0.34449 0.88094 0.0
H1651 H 0.76703 0.32358 0.91093 0.0
H1652 H 0.82796 0.32579 0.95664 0.0
H1653 H 0.80528 0.31334 0.92884 0.0
H1654 H 0.82052 0.44787 0.88454 0.0
H1655 H 0.79235 0.4365 0.863 0.0
H1656 H 0.83247 0.44806 0.93143 0.0
H1657 H 0.85118 0.42618 0.95554 0.0
C1658 C 0.90002 0.54866 0.18862 0.0
C1659 C 0.89007 0.57585 0.18526 0.0
C1660 C 0.87384 0.56566 0.13201 0.0
C1661 C 0.87963 0.5374 0.13739 0.0
N1662 N 0.89964 0.50159 0.16952 0.0
N1663 N 0.88105 0.6127 0.14935 0.0
C1664 C 0.89363 0.52882 0.16512 0.0
C1665 C 0.88089 0.58521 0.15558 0.0
N1666 N 0.9168 0.54244 0.21344 0.0
N1667 N 0.86093 0.5736 0.10485 0.0
H1668 H 0.88944 0.62666 0.16535 0.0
H1669 H 0.87644 0.62115 0.12738 0.0
H1670 H 0.85663 0.55997 0.08647 0.0
H1671 H 0.85331 0.59336 0.10116 0.0
H1672 H 0.92678 0.52368 0.21631 0.0
H1673 H 0.92314 0.55729 0.22961 0.0
H1674 H 0.90784 0.49353 0.19022 0.0
H1675 H 0.89537 0.48648 0.15275 0.0
C1676 C 0.72605 0.6481 0.4032 0.0
C1677 C 0.72285 0.6239 0.38497 0.0
C1678 C 0.67977 0.61345 0.4132 0.0
C1679 C 0.68348 0.63733 0.43209 0.0
N1680 N 0.70381 0.68284 0.43497 0.0
N1681 N 0.69398 0.58684 0.36717 0.0
C1682 C 0.70453 0.65647 0.42395 0.0
C1683 C 0.69877 0.60759 0.38824 0.0
N1684 N 0.75018 0.66257 0.40181 0.0
N1685 N 0.65802 0.59638 0.41933 0.0
H1686 H 0.70758 0.5821 0.34877 0.0
H1687 H 0.67577 0.57561 0.36632 0.0
H1688 H 0.64217 0.60174 0.43493 0.0
H1689 H 0.65584 0.57688 0.40955 0.0
H1690 H 0.75496 0.67834 0.41751 0.0
H1691 H 0.76647 0.65731 0.3868 0.0
H1692 H 0.71753 0.69798 0.42744 0.0
H1693 H 0.68755 0.69091 0.44801 0.0
C1694 C 0.60906 0.45886 0.67399 0.0
C1695 C 0.6309 0.44179 0.68512 0.0
C1696 C 0.66037 0.4586 0.64143 0.0
C1697 C 0.64027 0.4787 0.6341 0.0
N1698 N 0.59607 0.49945 0.64404 0.0
N1699 N 0.67727 0.42439 0.67815 0.0
C1700 C 0.61469 0.47909 0.65039 0.0
C1701 C 0.65646 0.44126 0.66826 0.0
N1702 N 0.58285 0.45573 0.68534 0.0
N1703 N 0.68309 0.45587 0.62239 0.0
H1704 H 0.67464 0.40921 0.69526 0.0
H1705 H 0.69753 0.42596 0.67019 0.0
H1706 H 0.68695 0.46868 0.60307 0.0
H1707 H 0.69705 0.43969 0.62405 0.0
H1708 H 0.56583 0.46556 0.6756 0.0
H1709 H 0.5772 0.44136 0.70229 0.0
H1710 H 0.57861 0.50317 0.65778 0.0
H1711 H 0.599 0.51399 0.62618 0.0
C1712 C 0.21907 0.35996 0.44222 0.0
C1713 C 0.1957 0.37739 0.44585 0.0
C1714 C 0.21084 0.40462 0.40015 0.0
C1715 C 0.23298 0.38602 0.39521 0.0
N1716 N 0.25468 0.34265 0.40716 0.0
N1717 N 0.16591 0.41202 0.42381 0.0
C1718 C 0.23602 0.36265 0.41492 0.0
C1719 C 0.19058 0.39848 0.42346 0.0
N1720 N 0.22608 0.34178 0.46548 0.0
N1721 N 0.20969 0.42865 0.38342 0.0
H1722 H 0.15023 0.4072 0.4398 0.0
H1723 H 0.15991 0.42581 0.40628 0.0
H1724 H 0.22429 0.43405 0.36634 0.0
H1725 H 0.19568 0.4443 0.38845 0.0
H1726 H 0.24483 0.33135 0.4659 0.0
H1727 H 0.21438 0.33876 0.48582 0.0
H1728 H 0.2557 0.32376 0.41875 0.0
H1729 H 0.26741 0.3438 0.38726 0.0
C1730 C 0.40011 0.46563 0.18692 0.0
C1731 C 0.38816 0.439 0.18735 0.0
C1732 C 0.37024 0.44611 0.13393 0.0
C1733 C 0.37855 0.47404 0.13558 0.0
N1734 N 0.39914 0.51148 0.1646 0.0
N1735 N 0.36196 0.40331 0.16205 0.0
C1736 C 0.39321 0.48405 0.16216 0.0
C1737 C 0.37338 0.42899 0.16095 0.0
N1738 N 0.41788 0.47339 0.21027 0.0
N1739 N 0.35983 0.43597 0.1063 0.0
H1740 H 0.36544 0.38967 0.18066 0.0
H1741 H 0.34818 0.39592 0.14531 0.0
H1742 H 0.35746 0.44805 0.08608 0.0
H1743 H 0.35567 0.41525 0.10248 0.0
H1744 H 0.42946 0.49138 0.20951 0.0
H1745 H 0.42296 0.46082 0.22933 0.0
H1746 H 0.40717 0.52054 0.18485 0.0
H1747 H 0.39414 0.52585 0.14726 0.0
C1748 C 0.30469 0.64824 0.89208 0.0
C1749 C 0.28608 0.6261 0.88886 0.0
C1750 C 0.30454 0.60456 0.93669 0.0
C1751 C 0.32367 0.62701 0.94028 0.0
N1752 N 0.3487 0.66279 0.91263 0.0
N1753 N 0.27421 0.57938 0.90188 0.0
C1754 C 0.32571 0.64675 0.9154 0.0
C1755 C 0.28786 0.60317 0.90925 0.0
N1756 N 0.30222 0.67081 0.87307 0.0
N1757 N 0.30096 0.58469 0.95925 0.0
H1758 H 0.26127 0.5774 0.8824 0.0
H1759 H 0.27779 0.56072 0.91328 0.0
H1760 H 0.31442 0.57962 0.97719 0.0
H1761 H 0.28332 0.5725 0.9603 0.0
H1762 H 0.31341 0.68882 0.87664 0.0
H1763 H 0.28745 0.67221 0.85529 0.0
H1764 H 0.3521 0.67614 0.89373 0.0
H1765 H 0.36608 0.65985 0.92665 0.0
C1766 C 0.14455 0.54681 0.6922 0.0
C1767 C 0.13089 0.57276 0.68982 0.0
C1768 C 0.12019 0.56258 0.6342 0.0
C1769 C 0.13614 0.53822 0.63611 0.0
N1770 N 0.16875 0.51041 0.66481 0.0
N1771 N 0.11072 0.60754 0.65644 0.0
C1772 C 0.14994 0.53139 0.66445 0.0
C1773 C 0.11994 0.58123 0.66023 0.0
N1774 N 0.15116 0.53589 0.72101 0.0
N1775 N 0.10504 0.56773 0.6077 0.0
H1776 H 0.11189 0.62212 0.67437 0.0
H1777 H 0.10476 0.6157 0.63475 0.0
H1778 H 0.10527 0.55474 0.58805 0.0
H1779 H 0.09071 0.58362 0.6062 0.0
H1780 H 0.15809 0.51577 0.72389 0.0
H1781 H 0.14685 0.54532 0.74251 0.0
H1782 H 0.18184 0.50675 0.68382 0.0
H1783 H 0.17326 0.4983 0.6451 0.0
C1784 C 0.21397 0.65828 0.14113 0.0
C1785 C 0.19576 0.63625 0.1337 0.0
C1786 C 0.21438 0.60953 0.17814 0.0
C1787 C 0.23471 0.62998 0.18273 0.0
N1788 N 0.25627 0.67238 0.16682 0.0
N1789 N 0.18018 0.58971 0.14363 0.0
C1790 C 0.23506 0.65405 0.16387 0.0
C1791 C 0.19635 0.61157 0.15187 0.0
N1792 N 0.21136 0.68324 0.12657 0.0
N1793 N 0.21204 0.58832 0.19926 0.0
H1794 H 0.16541 0.59052 0.12589 0.0
H1795 H 0.18247 0.5701 0.15316 0.0
H1796 H 0.22535 0.58573 0.21834 0.0
H1797 H 0.19563 0.57455 0.19948 0.0
H1798 H 0.22191 0.70077 0.13372 0.0
H1799 H 0.19712 0.68737 0.10896 0.0
H1800 H 0.25983 0.68844 0.15102 0.0
H1801 H 0.27174 0.67031 0.1837 0.0
C1802 C 0.16826 0.44234 0.90108 0.0
C1803 C 0.14195 0.43102 0.89381 0.0
C1804 C 0.12051 0.45959 0.9347 0.0
C1805 C 0.14618 0.47255 0.94004 0.0
N1806 N 0.19565 0.47192 0.93495 0.0
N1807 N 0.09769 0.41861 0.9161 0.0
C1808 C 0.17049 0.46249 0.92531 0.0
C1809 C 0.11937 0.43639 0.91438 0.0
N1810 N 0.19109 0.43377 0.88477 0.0
N1811 N 0.09711 0.46978 0.94844 0.0
H1812 H 0.0981 0.39928 0.90553 0.0
H1813 H 0.08147 0.42092 0.93212 0.0
H1814 H 0.09724 0.48645 0.96398 0.0
H1815 H 0.07745 0.46303 0.94246 0.0
H1816 H 0.20997 0.44386 0.8851 0.0
H1817 H 0.19113 0.41631 0.87051 0.0
H1818 H 0.21438 0.46368 0.92757 0.0
H1819 H 0.198 0.48703 0.95223 0.0
C1820 C 0.3338 0.41044 0.65708 0.0
C1821 C 0.33595 0.38391 0.64349 0.0
C1822 C 0.29893 0.36734 0.67822 0.0
C1823 C 0.29408 0.39481 0.68814 0.0
N1824 N 0.30611 0.44295 0.68679 0.0
N1825 N 0.33048 0.33522 0.65347 0.0
C1826 C 0.31163 0.41645 0.67798 0.0
C1827 C 0.32148 0.36161 0.6576 0.0
N1828 N 0.35394 0.42937 0.65102 0.0
N1829 N 0.28155 0.34684 0.68788 0.0
H1830 H 0.34936 0.33044 0.64312 0.0
H1831 H 0.32168 0.31827 0.66465 0.0
H1832 H 0.26574 0.34995 0.7043 0.0
H1833 H 0.28161 0.32718 0.67813 0.0
H1834 H 0.35514 0.44843 0.6621 0.0
H1835 H 0.37135 0.42451 0.63754 0.0
H1836 H 0.31611 0.45996 0.67718 0.0
H1837 H 0.29008 0.44825 0.70214 0.0
C1838 C 0.39637 0.56117 0.44166 0.0
C1839 C 0.38132 0.53631 0.43911 0.0
C1840 C 0.37456 0.5448 0.38259 0.0
C1841 C 0.38717 0.57119 0.38564 0.0
N1842 N 0.4042 0.60664 0.42018 0.0
N1843 N 0.35128 0.50708 0.40874 0.0
C1844 C 0.3967 0.57991 0.41574 0.0
C1845 C 0.36905 0.52888 0.41002 0.0
N1846 N 0.41048 0.56679 0.46877 0.0
N1847 N 0.36862 0.53425 0.35345 0.0
H1848 H 0.34669 0.49467 0.42819 0.0
H1849 H 0.33907 0.50281 0.38915 0.0
H1850 H 0.37216 0.54464 0.33239 0.0
H1851 H 0.36267 0.51392 0.34986 0.0
H1852 H 0.42412 0.58321 0.47084 0.0
H1853 H 0.4103 0.55367 0.48832 0.0
H1854 H 0.40906 0.61491 0.44217 0.0
H1855 H 0.40228 0.62127 0.40241 0.0
C1856 C 0.11292 0.22309 0.37079 0.0
C1857 C 0.13435 0.22392 0.39363 0.0
C1858 C 0.15763 0.18565 0.36606 0.0
C1859 C 0.13698 0.18575 0.34221 0.0
N1860 N 0.09807 0.20828 0.31857 0.0
N1861 N 0.18008 0.21016 0.40881 0.0
C1862 C 0.11556 0.20564 0.34361 0.0
C1863 C 0.1576 0.20644 0.38993 0.0
N1864 N 0.08953 0.23818 0.37566 0.0
N1865 N 0.17676 0.16502 0.3668 0.0
H1866 H 0.18089 0.22515 0.42642 0.0
H1867 H 0.19884 0.20024 0.40509 0.0
H1868 H 0.17766 0.14934 0.35008 0.0
H1869 H 0.19019 0.16195 0.3856 0.0
H1870 H 0.0719 0.23617 0.36193 0.0
H1871 H 0.08697 0.25127 0.39499 0.0
H1872 H 0.0837 0.22408 0.31657 0.0
H1873 H 0.09958 0.19595 0.29844 0.0
C1874 C 0.06811 0.91521 0.60167 0.0
C1875 C 0.07898 0.89142 0.58659 0.0
C1876 C 0.04631 0.86292 0.61694 0.0
C1877 C 0.03923 0.88608 0.63592 0.0
N1878 N 0.04291 0.93474 0.64598 0.0
N1879 N 0.06709 0.84642 0.56801 0.0
C1880 C 0.0497 0.91244 0.62785 0.0
C1881 C 0.06482 0.8662 0.59067 0.0
N1882 N 0.07382 0.94053 0.58922 0.0
N1883 N 0.03623 0.83759 0.62477 0.0
H1884 H 0.07811 0.84969 0.54713 0.0
H1885 H 0.05552 0.82839 0.56805 0.0
H1886 H 0.02212 0.83463 0.64316 0.0
H1887 H 0.04309 0.81943 0.61431 0.0
H1888 H 0.06483 0.95871 0.59719 0.0
H1889 H 0.08473 0.94289 0.56805 0.0
H1890 H 0.05266 0.95373 0.64399 0.0
H1891 H 0.0286 0.93388 0.66445 0.0
C1892 C 0.36965 0.80987 0.84202 0.0
C1893 C 0.389 0.83169 0.84378 0.0
C1894 C 0.41254 0.80726 0.88703 0.0
C1895 C 0.39041 0.78825 0.88894 0.0
N1896 N 0.34711 0.77173 0.86879 0.0
N1897 N 0.42852 0.85171 0.86897 0.0
C1898 C 0.36893 0.78935 0.86624 0.0
C1899 C 0.41064 0.83028 0.86623 0.0
N1900 N 0.35193 0.8089 0.81704 0.0
N1901 N 0.43553 0.80312 0.90496 0.0
H1902 H 0.42836 0.86811 0.8533 0.0
H1903 H 0.44238 0.85387 0.88753 0.0
H1904 H 0.43757 0.78647 0.92036 0.0
H1905 H 0.4535 0.81462 0.90246 0.0
H1906 H 0.33885 0.79241 0.81261 0.0
H1907 H 0.35234 0.82353 0.79896 0.0
H1908 H 0.32931 0.77344 0.85531 0.0
H1909 H 0.34595 0.75637 0.88598 0.0
C1910 C 0.43388 0.15532 0.12501 0.0
C1911 C 0.43448 0.13864 0.09742 0.0
C1912 C 0.48019 0.12111 0.11323 0.0
C1913 C 0.47902 0.13736 0.14117 0.0
N1914 N 0.45815 0.17486 0.16972 0.0
N1915 N 0.4604 0.11012 0.06179 0.0
C1916 C 0.45691 0.15603 0.14575 0.0
C1917 C 0.45851 0.12308 0.09038 0.0
N1918 N 0.41065 0.16973 0.13214 0.0
N1919 N 0.50145 0.10299 0.10925 0.0
H1920 H 0.44484 0.11144 0.0449 0.0
H1921 H 0.47801 0.10011 0.05369 0.0
H1922 H 0.5178 0.1016 0.12509 0.0
H1923 H 0.50233 0.0884 0.09128 0.0
H1924 H 0.40653 0.17829 0.15425 0.0
H1925 H 0.39551 0.17302 0.11538 0.0
H1926 H 0.44418 0.19097 0.17235 0.0
H1927 H 0.47454 0.17586 0.18554 0.0
C1928 C 0.1418 0.8093 0.23494 0.0
C1929 C 0.12587 0.83335 0.22936 0.0
C1930 C 0.11136 0.81435 0.178 0.0
C1931 C 0.1269 0.79012 0.1837 0.0
N1932 N 0.15269 0.76212 0.21997 0.0
N1933 N 0.0903 0.85544 0.19934 0.0
C1934 C 0.14078 0.78684 0.21301 0.0
C1935 C 0.10893 0.83467 0.20212 0.0
N1936 N 0.15865 0.80837 0.26071 0.0
N1937 N 0.10012 0.81874 0.14881 0.0
H1938 H 0.08835 0.87062 0.2164 0.0
H1939 H 0.07552 0.85648 0.18162 0.0
H1940 H 0.10132 0.8045 0.13041 0.0
H1941 H 0.09161 0.83742 0.14181 0.0
H1942 H 0.17335 0.79311 0.26436 0.0
H1943 H 0.15867 0.82371 0.27796 0.0
H1944 H 0.1609 0.75731 0.24199 0.0
H1945 H 0.15246 0.74553 0.20433 0.0
C1946 C 0.47846 0.87108 0.46321 0.0
C1947 C 0.47291 0.87132 0.43025 0.0
C1948 C 0.42486 0.88333 0.44127 0.0
C1949 C 0.42967 0.88249 0.47468 0.0
N1950 N 0.46056 0.87049 0.51714 0.0
N1951 N 0.43919 0.86895 0.3889 0.0
C1952 C 0.45626 0.87441 0.48555 0.0
C1953 C 0.44556 0.87445 0.41974 0.0
N1954 N 0.5051 0.86872 0.47309 0.0
N1955 N 0.40101 0.8939 0.42945 0.0
H1956 H 0.45383 0.86292 0.37214 0.0
H1957 H 0.41901 0.86758 0.38073 0.0
H1958 H 0.38493 0.90062 0.44342 0.0
H1959 H 0.39813 0.89839 0.40559 0.0
H1960 H 0.51123 0.87152 0.49642 0.0
H1961 H 0.52143 0.8654 0.45739 0.0
H1962 H 0.47853 0.86201 0.52628 0.0
H1963 H 0.44542 0.87389 0.53423 0.0
C1964 C 0.37853 0.23266 0.71348 0.0
C1965 C 0.39342 0.22916 0.68474 0.0
C1966 C 0.41091 0.18485 0.70415 0.0
C1967 C 0.39262 0.18619 0.73039 0.0
N1968 N 0.35929 0.21151 0.76091 0.0
N1969 N 0.42303 0.20135 0.65177 0.0
C1970 C 0.37681 0.21039 0.73555 0.0
C1971 C 0.40986 0.20534 0.6801 0.0
N1972 N 0.36616 0.25736 0.71957 0.0
N1973 N 0.42917 0.16366 0.70204 0.0
H1974 H 0.42313 0.21588 0.63364 0.0
H1975 H 0.43232 0.18289 0.64524 0.0
H1976 H 0.42913 0.14762 0.71821 0.0
H1977 H 0.44527 0.16284 0.68571 0.0
H1978 H 0.35692 0.26233 0.74109 0.0
H1979 H 0.36708 0.27384 0.70377 0.0
H1980 H 0.34465 0.22689 0.76426 0.0
H1981 H 0.35879 0.19624 0.77827 0.0
C1982 C 0.08461 0.11104 0.95961 0.0
C1983 C 0.07985 0.12816 0.98654 0.0
C1984 C 0.0373 0.14535 0.96175 0.0
C1985 C 0.04177 0.1281 0.935 0.0
N1986 N 0.06827 0.09235 0.90972 0.0
N1987 N 0.05137 0.16168 1.01308 0.0
C1988 C 0.06509 0.11036 0.93434 0.0
C1989 C 0.05609 0.14516 0.98751 0.0
N1990 N 0.10841 0.09606 0.95765 0.0
N1991 N 0.01494 0.1622 0.96359 0.0
H1992 H 0.06443 0.16221 1.03261 0.0
H1993 H 0.03428 0.17466 1.01467 0.0
H1994 H 0.9999 0.16367 0.9461 0.0
H1995 H 0.9999 0.16367 0.9461 0.0
H1996 H 0.11538 0.08642 0.93717 0.0
H1997 H 0.12221 0.09425 0.97625 0.0
H1998 H 0.08243 0.07629 0.90947 0.0
H1999 H 0.05563 0.09238 0.88985 0.0
C2000 C 0.86357 0.82981 0.70973 0.0
C2001 C 0.88352 0.82922 0.73435 0.0
C2002 C 0.90749 0.79137 0.70656 0.0
C2003 C 0.88653 0.79098 0.68313 0.0
N2004 N 0.84143 0.80562 0.66664 0.0
N2005 N 0.92223 0.80688 0.75862 0.0
C2006 C 0.8636 0.80891 0.6861 0.0
C2007 C 0.90478 0.80913 0.7335 0.0
N2008 N 0.84529 0.85111 0.70788 0.0
N2009 N 0.93048 0.77552 0.70244 0.0
H2010 H 0.92091 0.81973 0.77834 0.0
H2011 H 0.93654 0.79108 0.76111 0.0
H2012 H 0.93291 0.76212 0.68337 0.0
H2013 H 0.9479 0.77697 0.7166 0.0
H2014 H 0.83264 0.85447 0.68843 0.0
H2015 H 0.84441 0.86692 0.72439 0.0
H2016 H 0.82283 0.81597 0.66989 0.0
H2017 H 0.84061 0.79058 0.64908 0.0
C2018 C 0.97501 0.1577 0.46323 0.0
C2019 C 0.97823 0.13551 0.4416 0.0
C2020 C 0.94211 0.10984 0.47 0.0
C2021 C 0.93971 0.13141 0.49269 0.0
N2022 N 0.95752 0.17353 0.51417 0.0
N2023 N 0.96971 0.08799 0.42912 0.0
C2024 C 0.95737 0.15461 0.49029 0.0
C2025 C 0.96333 0.1108 0.44658 0.0
N2026 N 0.98794 0.1821 0.45724 0.0
N2027 N 0.92314 0.08912 0.46944 0.0
H2028 H 0.98504 0.08792 0.41172 0.0
H2029 H 0.96174 0.06855 0.43395 0.0
H2030 H 0.90696 0.08764 0.48551 0.0
H2031 H 0.92188 0.07478 0.45121 0.0
H2032 H 0.98406 0.20005 0.46992 0.0
H2033 H 1.00125 0.18493 0.43807 0.0
H2034 H 0.97161 0.1896 0.5155 0.0
H2035 H 0.94497 0.17171 0.53418 0.0
C2036 C 0.65095 0.19397 0.17391 0.0
C2037 C 0.63703 0.21863 0.18155 0.0
C2038 C 0.62966 0.20081 0.23601 0.0
C2039 C 0.64136 0.17493 0.22722 0.0
N2040 N 0.65493 0.1456 0.18352 0.0
N2041 N 0.60966 0.24436 0.21872 0.0
C2042 C 0.64971 0.17126 0.19499 0.0
C2043 C 0.62528 0.22167 0.21229 0.0
N2044 N 0.66597 0.19216 0.14651 0.0
N2045 N 0.62399 0.20614 0.26707 0.0
H2046 H 0.60674 0.26008 0.20224 0.0
H2047 H 0.59805 0.24662 0.23934 0.0
H2048 H 0.62707 0.19184 0.28503 0.0
H2049 H 0.61829 0.22548 0.27538 0.0
H2050 H 0.6792 0.1758 0.14161 0.0
H2051 H 0.66746 0.20814 0.13012 0.0
H2052 H 0.6582 0.14137 0.15963 0.0
H2053 H 0.65221 0.12815 0.19705 0.0
C2054 C 0.54108 0.86542 0.94952 0.0
C2055 C 0.54333 0.88527 0.92492 0.0
C2056 C 0.58498 0.90408 0.95006 0.0
C2057 C 0.58184 0.88528 0.97569 0.0
N2058 N 0.55483 0.85076 1.00224 0.0
N2059 N 0.56472 0.92621 0.90419 0.0
C2060 C 0.55925 0.86671 0.97609 0.0
C2061 C 0.56456 0.90533 0.9259 0.0
N2062 N 0.52196 0.84493 0.94704 0.0
N2063 N 0.60782 0.92046 0.94837 0.0
H2064 H 0.55055 0.9276 0.88579 0.0
H2065 H 0.57746 0.94336 0.90574 0.0
H2066 H 0.62245 0.92159 0.96624 0.0
H2067 H 0.61331 0.93172 0.92836 0.0
H2068 H 0.52107 0.82806 0.96217 0.0
H2069 H 0.50802 0.84378 0.92838 0.0
H2070 H 0.53733 0.83874 1.00563 0.0
H2071 H 0.5678 0.85112 1.02184 0.0
C2072 C 0.87026 0.22773 0.86859 0.0
C2073 C 0.8915 0.22855 0.89158 0.0
C2074 C 0.91214 0.18694 0.86843 0.0
C2075 C 0.89069 0.18571 0.84569 0.0
N2076 N 0.85397 0.20893 0.81872 0.0
N2077 N 0.93666 0.21383 0.90763 0.0
C2078 C 0.87134 0.20758 0.84399 0.0
C2079 C 0.91381 0.20977 0.88948 0.0
N2080 N 0.84831 0.24519 0.87121 0.0
N2081 N 0.92996 0.16546 0.87133 0.0
H2082 H 0.93849 0.23036 0.92321 0.0
H2083 H 0.95474 0.20247 0.90509 0.0
H2084 H 0.92968 0.149 0.85584 0.0
H2085 H 0.94377 0.16323 0.88994 0.0
H2086 H 0.83064 0.24358 0.85748 0.0
H2087 H 0.84694 0.26032 0.88863 0.0
H2088 H 0.8409 0.22549 0.81441 0.0
H2089 H 0.85469 0.19462 0.80033 0.0
C2090 C 0.54033 0.14274 0.61483 0.0
C2091 C 0.54625 0.13771 0.64724 0.0
C2092 C 0.5931 0.12352 0.63252 0.0
C2093 C 0.58799 0.12931 0.59975 0.0
N2094 N 0.55746 0.14914 0.56102 0.0
N2095 N 0.5807 0.13177 0.68729 0.0
C2096 C 0.56191 0.14073 0.59139 0.0
C2097 C 0.57343 0.13098 0.65607 0.0
N2098 N 0.51383 0.14848 0.60634 0.0
N2099 N 0.61614 0.1096 0.6417 0.0
H2100 H 0.56685 0.1365 0.70542 0.0
H2101 H 0.60107 0.13056 0.69488 0.0
H2102 H 0.63176 0.10368 0.62654 0.0
H2103 H 0.61875 0.10164 0.66438 0.0
H2104 H 0.50716 0.14931 0.583 0.0
H2105 H 0.49803 0.15089 0.62296 0.0
H2106 H 0.54007 0.16008 0.55406 0.0
H2107 H 0.57205 0.14695 0.54305 0.0
C2108 C 0.61511 0.8078 0.33818 0.0
C2109 C 0.63693 0.82721 0.33713 0.0
C2110 C 0.6569 0.80567 0.38466 0.0
C2111 C 0.6331 0.789 0.38828 0.0
N2112 N 0.58795 0.77612 0.37006 0.0
N2113 N 0.67701 0.84686 0.36228 0.0
C2114 C 0.61181 0.79046 0.36533 0.0
C2115 C 0.65749 0.82665 0.36108 0.0
N2116 N 0.59791 0.80547 0.31286 0.0
N2117 N 0.67931 0.80104 0.4034 0.0
H2118 H 0.67821 0.86285 0.34598 0.0
H2119 H 0.69044 0.84933 0.3812 0.0
H2120 H 0.67974 0.7858 0.42076 0.0
H2121 H 0.69835 0.8104 0.39968 0.0
H2122 H 0.58319 0.79003 0.31074 0.0
H2123 H 0.60004 0.81764 0.29264 0.0
H2124 H 0.57047 0.77871 0.35619 0.0
H2125 H 0.58491 0.76311 0.38939 0.0
C2126 C 0.95699 0.89156 0.09208 0.0
C2127 C 0.9327 0.87569 0.09637 0.0
C2128 C 0.9484 0.86246 0.14947 0.0
C2129 C 0.97304 0.87771 0.14506 0.0
N2130 N 1.00357 0.90184 0.10955 0.0
N2131 N 0.91008 0.83941 0.12488 0.0
C2132 C 0.97823 0.8907 0.11545 0.0
C2133 C 0.93005 0.85899 0.12371 0.0
N2134 N 0.95929 0.90817 0.06614 0.0
N2135 N 0.94157 0.85257 0.17877 0.0
H2136 H 0.89768 0.83564 0.10553 0.0
H2137 H 0.90839 0.82483 0.14285 0.0
H2138 H 0.95389 0.85523 0.19866 0.0
H2139 H 0.92241 0.84403 0.18405 0.0
H2140 H 0.97476 0.9228 0.06333 0.0
H2141 H 0.94483 0.90802 0.04795 0.0
H2142 H 0.00957 0.90939 0.08753 0.0
H2143 H 0.01946 0.90141 0.12608 0.0
C2144 C 0.59831 0.68215 0.87306 0.0
C2145 C 0.61637 0.68339 0.84654 0.0
C2146 C 0.63311 0.7285 0.86482 0.0
C2147 C 0.6153 0.72685 0.89156 0.0
N2148 N 0.57553 0.70626 0.91609 0.0
N2149 N 0.64602 0.71035 0.81311 0.0
C2150 C 0.59608 0.70502 0.8939 0.0
C2151 C 0.63198 0.70761 0.84101 0.0
N2152 N 0.58442 0.65846 0.87946 0.0
N2153 N 0.65217 0.74912 0.86308 0.0
H2154 H 0.6455 0.69529 0.79553 0.0
H2155 H 0.656 0.72832 0.80618 0.0
H2156 H 0.65332 0.76486 0.87976 0.0
H2157 H 0.66786 0.74983 0.84624 0.0
H2158 H 0.5744 0.65459 0.90085 0.0
H2159 H 0.5839 0.64223 0.86358 0.0
H2160 H 0.55926 0.69232 0.91708 0.0
H2161 H 0.5733 0.72283 0.93158 0.0
C2162 C 0.55909 0.38866 0.09302 0.0
C2163 C 0.58355 0.37318 0.0977 0.0
C2164 C 0.5675 0.36065 0.15112 0.0
C2165 C 0.54292 0.37598 0.14652 0.0
N2166 N 0.5124 0.39914 0.11052 0.0
N2167 N 0.60663 0.33786 0.12703 0.0
C2168 C 0.53777 0.38823 0.11655 0.0
C2169 C 0.5862 0.35698 0.1254 0.0
N2170 N 0.55671 0.40456 0.06654 0.0
N2171 N 0.57395 0.35095 0.18054 0.0
H2172 H 0.61952 0.33421 0.10788 0.0
H2173 H 0.60845 0.3236 0.14529 0.0
H2174 H 0.56125 0.35356 0.20026 0.0
H2175 H 0.59303 0.34246 0.18606 0.0
H2176 H 0.54113 0.419 0.06331 0.0
H2177 H 0.57122 0.40401 0.04823 0.0
H2178 H 0.5064 0.40617 0.08833 0.0
H2179 H 0.49645 0.39898 0.12716 0.0
C2180 C 0.89491 0.31564 0.34257 0.0
C2181 C 0.88129 0.34073 0.35042 0.0
C2182 C 0.87282 0.32281 0.40454 0.0
C2183 C 0.88699 0.29816 0.39698 0.0
N2184 N 0.91562 0.27275 0.36073 0.0
N2185 N 0.8632 0.37017 0.39187 0.0
C2186 C 0.89946 0.2952 0.36661 0.0
C2187 C 0.87193 0.34478 0.38225 0.0
N2188 N 0.90198 0.31048 0.31182 0.0
N2189 N 0.85978 0.32524 0.4332 0.0
H2190 H 0.8631 0.3873 0.37728 0.0
H2191 H 0.85911 0.3753 0.41533 0.0
H2192 H 0.86196 0.31105 0.45152 0.0
H2193 H 0.84536 0.34049 0.43829 0.0
H2194 H 0.90897 0.29147 0.30379 0.0
H2195 H 0.89904 0.3246 0.29363 0.0
H2196 H 0.92782 0.27062 0.34056 0.0
H2197 H 0.91838 0.25703 0.37722 0.0
C2198 C 0.954 0.65313 0.59103 0.0
C2199 C 0.93291 0.6329 0.59069 0.0
C2200 C 0.95282 0.61185 0.63858 0.0
C2201 C 0.97205 0.63372 0.64082 0.0
N2202 N 0.98966 0.67667 0.62095 0.0
N2203 N 0.91003 0.59497 0.6168 0.0
C2204 C 0.97231 0.65478 0.61746 0.0
C2205 C 0.93181 0.61273 0.61514 0.0
N2206 N 0.95698 0.67029 0.56564 0.0
N2207 N 0.95491 0.58987 0.65864 0.0
H2208 H 0.89407 0.59487 0.60048 0.0
H2209 H 0.9063 0.58203 0.63597 0.0
H2210 H 0.96948 0.58872 0.67665 0.0
H2211 H 0.94381 0.57173 0.65585 0.0
H2212 H 0.97345 0.68378 0.5628 0.0
H2213 H 0.94402 0.66947 0.54604 0.0
H2214 H 0.98888 0.69421 0.60687 0.0
H2215 H 1.00379 0.67804 0.6394 0.0
C2216 C 0.62887 0.33747 0.69496 0.0
C2217 C 0.6335 0.33384 0.72807 0.0
C2218 C 0.63469 0.28354 0.71906 0.0
C2219 C 0.62916 0.28774 0.68641 0.0
N2220 N 0.61183 0.31801 0.64616 0.0
N2221 N 0.63581 0.30266 0.77235 0.0
C2222 C 0.62309 0.31447 0.67546 0.0
C2223 C 0.63446 0.30658 0.74041 0.0
N2224 N 0.63156 0.3627 0.68133 0.0
N2225 N 0.64134 0.25778 0.72937 0.0
H2226 H 0.63656 0.31889 0.78841 0.0
H2227 H 0.63405 0.28346 0.78305 0.0
H2228 H 0.64108 0.24066 0.71449 0.0
H2229 H 0.64861 0.2536 0.75199 0.0
H2230 H 0.63154 0.36593 0.65695 0.0
H2231 H 0.63682 0.37996 0.69403 0.0
H2232 H 0.60417 0.33682 0.63828 0.0
H2233 H 0.60738 0.30162 0.6311 0.0
C2234 C 0.95691 0.37709 0.99439 0.0
C2235 C 0.93094 0.38654 0.98303 0.0
C2236 C 0.95166 0.39213 0.92974 0.0
C2237 C 0.97685 0.38095 0.94046 0.0
N2238 N 1.0025 0.35885 0.98182 0.0
N2239 N 0.90271 0.39552 0.93716 0.0
C2240 C 0.97913 0.37213 0.97245 0.0
C2241 C 0.92818 0.39202 0.94997 0.0
N2242 N 0.96095 0.37424 1.02617 0.0
N2243 N 0.95001 0.40319 0.90003 0.0
H2244 H 0.88491 0.39423 0.95049 0.0
H2245 H 0.89899 0.39628 0.91293 0.0
H2246 H 0.96612 0.40259 0.88364 0.0
H2247 H 0.93337 0.415 0.89249 0.0
H2248 H 0.98012 0.3704 1.03616 0.0
H2249 H 0.94556 0.37783 0.04291 0.0
H2250 H 1.00446 0.34917 1.00367 0.0
H2251 H 0.01933 0.35586 0.96674 0.0
C2252 C 0.86903 0.69555 0.16915 0.0
C2253 C 0.88245 0.72055 0.17641 0.0
C2254 C 0.8921 0.70295 0.23035 0.0
C2255 C 0.87612 0.67892 0.22409 0.0
N2256 N 0.84771 0.65367 0.18674 0.0
N2257 N 0.90577 0.74921 0.21391 0.0
C2258 C 0.86422 0.67568 0.1933 0.0
C2259 C 0.89396 0.72445 0.20696 0.0
N2260 N 0.86166 0.69017 0.13853 0.0
N2261 N 0.90513 0.70559 0.25876 0.0
H2262 H 0.908 0.76483 0.19716 0.0
H2263 H 0.91195 0.75504 0.23645 0.0
H2264 H 0.9029 0.69158 0.27719 0.0
H2265 H 0.91951 0.72083 0.26364 0.0
H2266 H 0.85524 0.67094 0.13069 0.0
H2267 H 0.86407 0.70424 0.1201 0.0
H2268 H 0.83363 0.65352 0.16821 0.0
H2269 H 0.84845 0.63515 0.19898 0.0
C2270 C 0.55597 0.64743 0.48904 0.0
C2271 C 0.57572 0.62592 0.49156 0.0
C2272 C 0.54814 0.599 0.45428 0.0
C2273 C 0.53353 0.62284 0.44475 0.0
N2274 N 0.51071 0.66083 0.47024 0.0
N2275 N 0.59147 0.58156 0.47245 0.0
C2276 C 0.53376 0.64503 0.46685 0.0
C2277 C 0.572 0.60176 0.47313 0.0
N2278 N 0.55838 0.67014 0.50776 0.0
N2279 N 0.53674 0.57364 0.45044 0.0
H2280 H 0.61026 0.58326 0.48397 0.0
H2281 H 0.58993 0.5646 0.45744 0.0
H2282 H 0.5164 0.57133 0.44293 0.0
H2283 H 0.54577 0.55579 0.45937 0.0
H2284 H 0.54691 0.688 0.50439 0.0
H2285 H 0.57284 0.67143 0.52588 0.0
H2286 H 0.50839 0.67593 0.4875 0.0
H2287 H 0.4924 0.65593 0.45869 0.0
C2288 C 0.40757 0.31241 0.18014 0.0
C2289 C 0.38771 0.29099 0.18217 0.0
C2290 C 0.37284 0.30858 0.23441 0.0
C2291 C 0.39024 0.33177 0.23047 0.0
N2292 N 0.42586 0.35484 0.20155 0.0
N2293 N 0.35272 0.26706 0.21187 0.0
C2294 C 0.40848 0.33301 0.20416 0.0
C2295 C 0.3709 0.28846 0.20974 0.0
N2296 N 0.42547 0.31323 0.15503 0.0
N2297 N 0.35824 0.30605 0.262 0.0
H2298 H 0.35192 0.25133 0.19514 0.0
H2299 H 0.33797 0.26494 0.22961 0.0
H2300 H 0.35999 0.32031 0.28035 0.0
H2301 H 0.34599 0.28928 0.26788 0.0
H2302 H 0.44256 0.32607 0.15376 0.0
H2303 H 0.42409 0.30013 0.13562 0.0
H2304 H 0.43655 0.3603 0.18111 0.0
H2305 H 0.42959 0.3675 0.22075 0.0
C2306 C 0.47915 0.63908 0.96487 0.0
C2307 C 0.47814 0.61758 0.94188 0.0
C2308 C 0.4396 0.597 0.97138 0.0
C2309 C 0.43706 0.62085 0.99061 0.0
N2310 N 0.45613 0.66412 1.00734 0.0
N2311 N 0.47315 0.56839 0.94564 0.0
C2312 C 0.45742 0.64175 0.9879 0.0
C2313 C 0.4628 0.59401 0.95111 0.0
N2314 N 0.50294 0.65366 0.96831 0.0
N2315 N 0.41977 0.57715 0.97171 0.0
H2316 H 0.49317 0.56555 0.93707 0.0
H2317 H 0.46379 0.55058 0.95428 0.0
H2318 H 0.40184 0.57864 0.9852 0.0
H2319 H 0.42017 0.56054 0.95609 0.0
H2320 H 0.50609 0.66811 0.98609 0.0
H2321 H 0.52097 0.64812 0.95634 0.0
H2322 H 0.46819 0.68161 1.00402 0.0
H2323 H 0.44185 0.6657 1.02579 0.0
C2324 C 0.14158 0.73245 0.71594 0.0
C2325 C 0.12888 0.7261 0.68664 0.0
C2326 C 0.11191 0.68269 0.70962 0.0
C2327 C 0.12853 0.68656 0.73691 0.0
N2328 N 0.15768 0.71665 0.76724 0.0
N2329 N 0.10451 0.69343 0.65434 0.0
C2330 C 0.14282 0.71202 0.74038 0.0
C2331 C 0.11453 0.70087 0.68328 0.0
N2332 N 0.15179 0.75831 0.72068 0.0
N2333 N 0.09304 0.66208 0.70883 0.0
H2334 H 0.1061 0.70587 0.63432 0.0
H2335 H 0.09689 0.67386 0.64948 0.0
H2336 H 0.09047 0.64845 0.72729 0.0
H2337 H 0.07809 0.66039 0.69134 0.0
H2338 H 0.1589 0.76542 0.74236 0.0
H2339 H 0.15123 0.77357 0.70334 0.0
H2340 H 0.17168 0.73269 0.76974 0.0
H2341 H 0.15638 0.70391 0.78706 0.0
C2342 C 0.05888 0.40657 0.44336 0.0
C2343 C 0.04177 0.38324 0.43894 0.0
C2344 C 0.06163 0.3625 0.48716 0.0
C2345 C 0.0811 0.38421 0.4891 0.0
N2346 N 0.1009 0.42494 0.46539 0.0
N2347 N 0.02934 0.33716 0.45448 0.0
C2348 C 0.08039 0.40574 0.46622 0.0
C2349 C 0.04373 0.36072 0.46037 0.0
N2350 N 0.05409 0.42995 0.42628 0.0
N2351 N 0.05977 0.34393 0.51131 0.0
H2352 H 0.01616 0.33505 0.43523 0.0
H2353 H 0.03215 0.31901 0.46714 0.0
H2354 H 0.07241 0.34482 0.53119 0.0
H2355 H 0.04427 0.3292 0.51296 0.0
H2356 H 0.06383 0.4486 0.43083 0.0
H2357 H 0.03839 0.43151 0.40961 0.0
H2358 H 0.10322 0.43916 0.44714 0.0
H2359 H 0.11727 0.425 0.48116 0.0
C2360 C 0.40643 0.70506 0.39771 0.0
C2361 C 0.39131 0.72934 0.39103 0.0
C2362 C 0.37776 0.70992 0.33946 0.0
C2363 C 0.39266 0.68547 0.34637 0.0
N2364 N 0.42625 0.66257 0.37852 0.0
N2365 N 0.36715 0.75742 0.35343 0.0
C2366 C 0.40873 0.68411 0.3743 0.0
C2367 C 0.37849 0.73258 0.3611 0.0
N2368 N 0.41729 0.70125 0.42721 0.0
N2369 N 0.36202 0.71095 0.31278 0.0
H2370 H 0.3672 0.77412 0.36892 0.0
H2371 H 0.35961 0.76219 0.33109 0.0
H2372 H 0.36225 0.69535 0.29583 0.0
H2373 H 0.34801 0.72659 0.30796 0.0
H2374 H 0.42529 0.68262 0.4351 0.0
H2375 H 0.41657 0.71616 0.44491 0.0
H2376 H 0.4407 0.66146 0.39657 0.0
H2377 H 0.42739 0.64643 0.36257 0.0
C2378 C 0.08946 0.62567 0.13101 0.0
C2379 C 0.08617 0.63095 0.09799 0.0
C2380 C 0.03816 0.64537 0.10956 0.0
C2381 C 0.04098 0.63657 0.14148 0.0
N2382 N 0.06814 0.61322 0.18078 0.0
N2383 N 0.05528 0.64279 0.05544 0.0
C2384 C 0.06624 0.62515 0.15155 0.0
C2385 C 0.05997 0.64024 0.08712 0.0
N2386 N 0.11512 0.62267 0.14348 0.0
N2387 N 0.01475 0.65885 0.10074 0.0
H2388 H 0.0703 0.63903 0.03831 0.0
H2389 H 0.03588 0.64651 0.04595 0.0
H2390 H 0.99832 0.66216 0.1163 0.0
H2391 H 0.01247 0.66845 0.07888 0.0
H2392 H 0.11899 0.6218 0.16768 0.0
H2393 H 0.13278 0.62469 0.12999 0.0
H2394 H 0.08507 0.60157 0.1878 0.0
H2395 H 0.05187 0.61266 0.19697 0.0
C2396 C 0.15495 0.33464 0.87607 0.0
C2397 C 0.14235 0.3336 0.8455 0.0
C2398 C 0.11902 0.29064 0.86248 0.0
C2399 C 0.13438 0.29047 0.89103 0.0
N2400 N 0.17136 0.30965 0.9217 0.0
N2401 N 0.11532 0.30727 0.8084 0.0
C2402 C 0.15374 0.31157 0.89663 0.0
C2403 C 0.12501 0.31073 0.83841 0.0
N2404 N 0.16667 0.35833 0.88685 0.0
N2405 N 0.09854 0.27177 0.85845 0.0
H2406 H 0.11965 0.32083 0.78998 0.0
H2407 H 0.10502 0.28964 0.80104 0.0
H2408 H 0.09436 0.25642 0.87506 0.0
H2409 H 0.08451 0.27257 0.83991 0.0
H2410 H 0.17305 0.36104 0.91014 0.0
H2411 H 0.16688 0.37646 0.87417 0.0
H2412 H 0.18821 0.32268 0.92456 0.0
H2413 H 0.17083 0.2936 0.93805 0.0
C2414 C 0.47564 0.36318 0.61547 0.0
C2415 C 0.47973 0.38627 0.63559 0.0
C2416 C 0.44338 0.41117 0.60691 0.0
C2417 C 0.4404 0.38882 0.58535 0.0
N2418 N 0.45735 0.34551 0.56592 0.0
N2419 N 0.47215 0.43446 0.64526 0.0
C2420 C 0.45773 0.36544 0.58867 0.0
C2421 C 0.46508 0.41096 0.62955 0.0
N2422 N 0.48793 0.33871 0.62268 0.0
N2423 N 0.42447 0.43196 0.60731 0.0
H2424 H 0.48793 0.43514 0.66191 0.0
H2425 H 0.46428 0.45375 0.63949 0.0
H2426 H 0.40773 0.43268 0.59215 0.0
H2427 H 0.42374 0.447 0.62483 0.0
H2428 H 0.48336 0.32031 0.61127 0.0
H2429 H 0.50128 0.33636 0.64176 0.0
H2430 H 0.47119 0.32915 0.5652 0.0
H2431 H 0.44469 0.34673 0.54609 0.0
C2432 C 0.12902 0.02517 0.30092 0.0
C2433 C 0.10775 0.03792 0.28307 0.0
C2434 C 0.08846 0.99178 0.27281 0.0
C2435 C 0.10668 0.97999 0.29552 0.0
N2436 N 0.14342 0.98614 0.33277 0.0
N2437 N 0.06858 0.03255 0.24893 0.0
C2438 C 0.12668 0.99694 0.31005 0.0
C2439 C 0.08791 0.02087 0.26815 0.0
N2440 N 0.15237 0.0394 0.30735 0.0
N2441 N 0.07284 0.97509 0.25412 0.0
H2442 H 0.07006 0.05278 0.24088 0.0
H2443 H 0.05086 0.02244 0.24148 0.0
H2444 H 0.07257 0.95387 0.25641 0.0
H2445 H 0.06199 0.98188 0.23443 0.0
H2446 H 0.16954 0.03091 0.31835 0.0
H2447 H 0.15587 0.05841 0.29717 0.0
H2448 H 0.15637 0.99811 0.3467 0.0
H2449 H 0.14249 0.96554 0.33964 0.0
C2450 C 0.2437 0.87727 0.5171 0.0
C2451 C 0.22882 0.85659 0.5334 0.0
C2452 C 0.2704 0.84591 0.5646 0.0
C2453 C 0.28583 0.86514 0.54645 0.0
N2454 N 0.28297 0.90774 0.51768 0.0
N2455 N 0.22867 0.81891 0.57054 0.0
C2456 C 0.27137 0.88324 0.52592 0.0
C2457 C 0.24236 0.84028 0.55661 0.0
N2458 N 0.23159 0.89079 0.49247 0.0
N2459 N 0.28173 0.83505 0.59137 0.0
H2460 H 0.20812 0.81441 0.56597 0.0
H2461 H 0.23821 0.80423 0.58469 0.0
H2462 H 0.30075 0.8415 0.59999 0.0
H2463 H 0.27098 0.82275 0.60735 0.0
H2464 H 0.24229 0.90405 0.47744 0.0
H2465 H 0.21154 0.88656 0.48514 0.0
H2466 H 0.27282 0.92284 0.5047 0.0
H2467 H 0.30106 0.91459 0.5281 0.0
C2468 C 0.41367 0.99856 0.7587 0.0
C2469 C 0.39691 0.98165 0.77821 0.0
C2470 C 0.38644 0.02178 0.81197 0.0
C2471 C 0.40433 0.03839 0.79366 0.0
N2472 N 0.43815 0.04155 0.75169 0.0
N2473 N 0.35763 0.98141 0.81323 0.0
C2474 C 0.41884 0.02644 0.76758 0.0
C2475 C 0.38054 0.99441 0.80209 0.0
N2476 N 0.42252 0.98868 0.73014 0.0
N2477 N 0.37586 0.03178 0.83962 0.0
H2478 H 0.35033 0.96357 0.80271 0.0
H2479 H 0.34371 0.99034 0.82901 0.0
H2480 H 0.38093 0.05124 0.84803 0.0
H2481 H 0.36497 0.01972 0.85577 0.0
H2482 H 0.4325 1.00058 0.71314 0.0
H2483 H 0.41645 0.96953 0.72153 0.0
H2484 H 0.45162 0.03335 0.73494 0.0
H2485 H 0.44245 0.06189 0.75718 0.0
C2486 C 0.24245 0.13719 0.0644 0.0
C2487 C 0.2267 0.15613 0.04653 0.0
C2488 C 0.26761 0.16514 1.01277 0.0
C2489 C 0.28411 0.14866 1.03285 0.0
N2490 N 0.28372 0.1094 0.06759 0.0
N2491 N 0.22494 0.18976 1.00435 0.0
C2492 C 0.27058 0.13199 0.05599 0.0
C2493 C 0.23949 0.17054 1.0209 0.0
N2494 N 0.23059 0.12447 0.08988 0.0
N2495 N 0.27804 0.17334 0.98419 0.0
H2496 H 0.2042 0.19372 1.00828 0.0
H2497 H 0.23393 0.20334 0.9883 0.0
H2498 H 0.29737 0.16707 0.97606 0.0
H2499 H 0.26639 0.18288 0.96673 0.0
H2500 H 0.24157 0.11278 0.10616 0.0
H2501 H 0.21006 0.1276 0.09641 0.0
H2502 H 0.27472 0.0952 0.08287 0.0
H2503 H 0.30222 0.10259 0.05801 0.0
C2504 C 0.9145 0.01855 0.75995 0.0
C2505 C 0.89831 0.035 0.7805 0.0
C2506 C 0.8865 0.99347 0.8116 0.0
C2507 C 0.90512 0.97766 0.79316 0.0
N2508 N 0.93881 0.97589 0.75079 0.0
N2509 N 0.85887 0.03484 0.81522 0.0
C2510 C 0.91963 0.99043 0.76759 0.0
C2511 C 0.8815 0.02161 0.80356 0.0
N2512 N 0.92278 0.02916 0.73151 0.0
N2513 N 0.87397 0.98172 0.83728 0.0
H2514 H 0.85198 0.05316 0.80537 0.0
H2515 H 0.84467 0.02591 0.83063 0.0
H2516 H 0.87692 0.96115 0.84349 0.0
H2517 H 0.86265 0.99285 0.8539 0.0
H2518 H 0.93218 0.0176 0.71376 0.0
H2519 H 0.91661 0.04858 0.72383 0.0
H2520 H 0.95242 0.98484 0.73469 0.0
H2521 H 0.94278 0.9552 0.75463 0.0
C2522 C 0.74538 0.13225 0.55266 0.0
C2523 C 0.73155 0.15027 0.53143 0.0
C2524 C 0.77653 0.17126 0.51819 0.0
C2525 C 0.78919 0.15633 0.54339 0.0
N2526 N 0.7848 0.12429 0.58651 0.0
N2527 N 0.73629 0.17813 0.48484 0.0
C2528 C 0.77331 0.13735 0.56116 0.0
C2529 C 0.74781 0.16751 0.51165 0.0
N2530 N 0.73302 0.10836 0.5617 0.0
N2531 N 0.79192 0.1893 0.5007 0.0
H2532 H 0.71646 0.17295 0.47766 0.0
H2533 H 0.74702 0.18915 0.46768 0.0
H2534 H 0.81311 0.19136 0.50318 0.0
H2535 H 0.78373 0.2033 0.48469 0.0
H2536 H 0.74257 0.09346 0.57557 0.0
H2537 H 0.71525 0.10143 0.55067 0.0
H2538 H 0.77333 0.11259 0.60249 0.0
H2539 H 0.80528 0.12717 0.59313 0.0
C2540 C 0.58899 0.02221 0.27251 0.0
C2541 C 0.60739 0.0344 0.29469 0.0
C2542 C 0.62981 0.98927 0.30178 0.0
C2543 C 0.60991 0.97661 0.28199 0.0
N2544 N 0.57693 0.98246 0.24051 0.0
N2545 N 0.64264 0.02868 0.33386 0.0
C2546 C 0.5912 0.99358 0.26522 0.0
C2547 C 0.62711 0.01765 0.31016 0.0
N2548 N 0.56871 0.03773 0.25904 0.0
N2549 N 0.65249 0.97482 0.31052 0.0
H2550 H 0.64093 0.04921 0.34078 0.0
H2551 H 0.65512 0.01699 0.34866 0.0
H2552 H 0.6567 0.95581 0.30064 0.0
H2553 H 0.66886 0.98308 0.32317 0.0
H2554 H 0.55235 0.02952 0.24637 0.0
H2555 H 0.56707 0.05888 0.26187 0.0
H2556 H 0.56515 0.99386 0.22472 0.0
H2557 H 0.57942 0.96202 0.23352 0.0
C2558 C 0.74474 0.83517 0.05398 0.0
C2559 C 0.72828 0.85876 0.04911 0.0
C2560 C 0.76986 0.88406 1.03272 0.0
C2561 C 0.78541 0.85906 1.03196 0.0
N2562 N 0.78512 0.80926 0.04027 0.0
N2563 N 0.7282 0.90769 0.05066 0.0
C2564 C 0.77221 0.83419 0.04213 0.0
C2565 C 0.74172 0.88398 0.04342 0.0
N2566 N 0.73473 0.8144 0.07256 0.0
N2567 N 0.7816 0.90764 1.02153 0.0
H2568 H 0.70922 0.90715 0.06231 0.0
H2569 H 0.737 0.92716 0.04925 0.0
H2570 H 0.80097 0.90772 1.01081 0.0
H2571 H 0.77126 0.92632 1.01974 0.0
H2572 H 0.74659 0.79779 0.08005 0.0
H2573 H 0.71583 0.81597 0.08434 0.0
H2574 H 0.77469 0.79072 0.04331 0.0
H2575 H 0.80529 0.80615 1.03321 0.0
C2576 C 0.59455 0.5188 0.75744 0.0
C2577 C 0.61271 0.53579 0.77494 0.0
C2578 C 0.62841 0.49468 0.80443 0.0
C2579 C 0.60801 0.47844 0.78953 0.0
N2580 N 0.56952 0.47592 0.75354 0.0
N2581 N 0.65481 0.53674 0.80462 0.0
C2582 C 0.59049 0.49076 0.7665 0.0
C2583 C 0.6318 0.52285 0.79571 0.0
N2584 N 0.58316 0.52872 0.73022 0.0
N2585 N 0.64426 0.48332 0.8276 0.0
H2586 H 0.65963 0.55562 0.79482 0.0
H2587 H 0.67086 0.52827 0.81762 0.0
H2588 H 0.64335 0.46256 0.83333 0.0
H2589 H 0.65669 0.4947 0.84272 0.0
H2590 H 0.57161 0.51679 0.71476 0.0
H2591 H 0.58859 0.54777 0.72073 0.0
H2592 H 0.55384 0.48477 0.74022 0.0
H2593 H 0.56652 0.45506 0.75769 0.0
C2594 C 0.77221 0.37412 0.06044 0.0
C2595 C 0.78836 0.3539 0.04497 0.0
C2596 C 0.74847 0.34224 1.01135 0.0
C2597 C 0.73162 0.36071 1.02883 0.0
N2598 N 0.73152 0.40269 0.05901 0.0
N2599 N 0.79118 0.31662 1.00729 0.0
C2600 C 0.74459 0.37901 0.05048 0.0
C2601 C 0.77629 0.33738 1.02087 0.0
N2602 N 0.78316 0.38832 0.08527 0.0
N2603 N 0.73873 0.33145 0.98374 0.0
H2604 H 0.81185 0.31298 1.01212 0.0
H2605 H 0.78253 0.30163 0.99285 0.0
H2606 H 0.7199 0.3374 0.97413 0.0
H2607 H 0.7506 0.31978 0.96819 0.0
H2608 H 0.77165 0.40121 0.09991 0.0
H2609 H 0.80321 0.38506 0.09326 0.0
H2610 H 0.7404 0.41803 0.07275 0.0
H2611 H 0.71336 0.40881 0.04826 0.0
C2612 C 0.92335 0.52302 0.31317 0.0
C2613 C 0.90467 0.53842 0.29437 0.0
C2614 C 0.89085 0.49559 0.26725 0.0
C2615 C 0.91123 0.48062 0.2838 0.0
N2616 N 0.94715 0.47991 0.32322 0.0
N2617 N 0.86165 0.53576 0.26633 0.0
C2618 C 0.9276 0.49432 0.30694 0.0
C2619 C 0.88581 0.52372 0.27497 0.0
N2620 N 0.93469 0.53517 0.33919 0.0
N2621 N 0.87661 0.48307 0.24346 0.0
H2622 H 0.85545 0.55451 0.27564 0.0
H2623 H 0.84603 0.52558 0.25429 0.0
H2624 H 0.88014 0.4627 0.23682 0.0
H2625 H 0.8635 0.49359 0.22823 0.0
H2626 H 0.94661 0.52488 0.35579 0.0
H2627 H 0.9291 0.55484 0.34663 0.0
H2628 H 0.96219 0.4891 0.33711 0.0
H2629 H 0.94948 0.45868 0.32171 0.0
C2630 C 0.73893 0.67668 0.51705 0.0
C2631 C 0.72666 0.65811 0.53915 0.0
C2632 C 0.77205 0.63629 0.54666 0.0
C2633 C 0.7848 0.65694 0.52779 0.0
N2634 N 0.77932 0.69017 0.48642 0.0
N2635 N 0.73194 0.62124 0.57657 0.0
C2636 C 0.76783 0.67533 0.51062 0.0
C2637 C 0.74335 0.63809 0.55422 0.0
N2638 N 0.72306 0.69613 0.50264 0.0
N2639 N 0.78683 0.6138 0.55528 0.0
H2640 H 0.71096 0.62128 0.58181 0.0
H2641 H 0.74347 0.60877 0.59155 0.0
H2642 H 0.80636 0.6105 0.54622 0.0
H2643 H 0.77864 0.59687 0.56708 0.0
H2644 H 0.73094 0.7129 0.49028 0.0
H2645 H 0.70172 0.69618 0.50394 0.0
H2646 H 0.76818 0.70224 0.47069 0.0
H2647 H 0.79997 0.68804 0.47984 0.0
C2648 C 0.42202 0.52581 0.30711 0.0
C2649 C 0.40704 0.53827 0.28189 0.0
C2650 C 0.38285 0.49444 0.2734 0.0
C2651 C 0.39987 0.48123 0.2963 0.0
N2652 N 0.42543 0.48783 0.34415 0.0
N2653 N 0.37484 0.53394 0.23926 0.0
C2654 C 0.41678 0.49788 0.31568 0.0
C2655 C 0.38792 0.52238 0.26456 0.0
N2656 N 0.44144 0.5406 0.323 0.0
N2657 N 0.36005 0.48122 0.26252 0.0
H2658 H 0.37786 0.55437 0.23249 0.0
H2659 H 0.36297 0.52279 0.22334 0.0
H2660 H 0.35332 0.46296 0.2726 0.0
H2661 H 0.34564 0.49001 0.24744 0.0
H2662 H 0.45542 0.53186 0.33868 0.0
H2663 H 0.44505 0.56133 0.31888 0.0
H2664 H 0.43549 0.49959 0.36111 0.0
H2665 H 0.41895 0.46882 0.3528 0.0
C2666 C 0.27249 0.63484 1.02668 0.0
C2667 C 0.28615 0.6568 0.04216 0.0
C2668 C 0.24144 0.68084 0.0477 0.0
C2669 C 0.22831 0.66008 1.02923 0.0
N2670 N 0.23263 0.6195 0.99713 0.0
N2671 N 0.28169 0.6951 0.07753 0.0
C2672 C 0.2442 0.63757 1.01793 0.0
C2673 C 0.27 0.67831 0.05538 0.0
N2674 N 0.28578 0.61051 1.02236 0.0
N2675 N 0.22698 0.70346 0.05738 0.0
H2676 H 0.30191 0.69247 0.08525 0.0
H2677 H 0.27077 0.70934 0.09102 0.0
H2678 H 0.20582 0.70558 0.055 0.0
H2679 H 0.23616 0.72106 0.0665 0.0
H2680 H 0.27564 0.59253 1.01585 0.0
H2681 H 0.30589 0.60741 1.02959 0.0
H2682 H 0.24385 0.60437 0.98529 0.0
H2683 H 0.21243 0.62156 0.98915 0.0
C2684 C 0.10852 0.48987 0.82131 0.0
C2685 C 0.10679 0.47674 0.79122 0.0
C2686 C 0.09986 0.52225 0.76738 0.0
C2687 C 0.1074 0.53544 0.79624 0.0
N2688 N 0.12131 0.5308 0.85058 0.0
N2689 N 0.10393 0.48151 0.7346 0.0
C2690 C 0.11269 0.5189 0.82312 0.0
C2691 C 0.1035 0.49329 0.76392 0.0
N2692 N 0.10346 0.47519 0.84821 0.0
N2693 N 0.08753 0.53695 0.7439 0.0
H2694 H 0.10629 0.46039 0.73118 0.0
H2695 H 0.10438 0.49301 0.71378 0.0
H2696 H 0.08191 0.55743 0.74672 0.0
H2697 H 0.07979 0.52798 0.7234 0.0
H2698 H 0.10229 0.48417 0.87056 0.0
H2699 H 0.09636 0.45499 0.84761 0.0
H2700 H 0.12793 0.51936 0.86996 0.0
H2701 H 0.12395 0.55201 0.85294 0.0
C2702 C 0.24227 0.38237 0.53043 0.0
C2703 C 0.23021 0.36177 0.54994 0.0
C2704 C 0.2772 0.34558 0.56254 0.0
C2705 C 0.28839 0.36238 0.53794 0.0
N2706 N 0.28072 0.39572 0.49682 0.0
N2707 N 0.2369 0.32506 0.58732 0.0
C2708 C 0.27064 0.38048 0.52142 0.0
C2709 C 0.24801 0.34385 0.56686 0.0
N2710 N 0.22723 0.40481 0.52231 0.0
N2711 N 0.29446 0.33193 0.58258 0.0
H2712 H 0.21625 0.32558 0.59428 0.0
H2713 H 0.2479 0.30863 0.59679 0.0
H2714 H 0.31575 0.33233 0.58021 0.0
H2715 H 0.28793 0.32209 0.60316 0.0
H2716 H 0.23519 0.42147 0.50976 0.0
H2717 H 0.2082 0.4084 0.53272 0.0
H2718 H 0.2681 0.40695 0.48168 0.0
H2719 H 0.30141 0.39526 0.49001 0.0
C2720 C 0.13804 0.16608 0.15229 0.0
C2721 C 0.12371 0.14895 0.13053 0.0
C2722 C 0.10217 0.12476 0.17639 0.0
C2723 C 0.11621 0.14213 0.19813 0.0
N2724 N 0.14325 0.18282 0.20636 0.0
N2725 N 0.08765 0.11591 0.1222 0.0
C2726 C 0.13277 0.16389 0.18582 0.0
C2727 C 0.10438 0.12954 0.14282 0.0
N2728 N 0.15789 0.18349 0.1411 0.0
N2729 N 0.08785 0.10264 0.18773 0.0
H2730 H 0.0885 0.11915 0.09781 0.0
H2731 H 0.07129 0.10348 0.12929 0.0
H2732 H 0.08519 0.09886 0.21184 0.0
H2733 H 0.08013 0.08706 0.17341 0.0
H2734 H 0.17164 0.19396 0.15555 0.0
H2735 H 0.16177 0.1862 0.11704 0.0
H2736 H 0.15324 0.20073 0.19922 0.0
H2737 H 0.13971 0.18184 0.23072 0.0
C2738 C 0.13992 0.85272 0.42448 0.0
C2739 C 0.12543 0.86898 0.44711 0.0
C2740 C 0.10342 0.89431 0.40284 0.0
C2741 C 0.11716 0.87743 0.38014 0.0
N2742 N 0.14414 0.83681 0.37001 0.0
N2743 N 0.08889 0.9012 0.45749 0.0
C2744 C 0.13406 0.85548 0.39127 0.0
C2745 C 0.10578 0.88848 0.43607 0.0
N2746 N 0.16043 0.8356 0.43449 0.0
N2747 N 0.08938 0.91705 0.39289 0.0
H2748 H 0.08986 0.89727 0.48173 0.0
H2749 H 0.07226 0.91351 0.4511 0.0
H2750 H 0.08694 0.92199 0.36911 0.0
H2751 H 0.082 0.93218 0.40816 0.0
H2752 H 0.17417 0.82581 0.41921 0.0
H2753 H 0.165 0.83265 0.45832 0.0
H2754 H 0.15427 0.81882 0.37653 0.0
H2755 H 0.14005 0.83799 0.34583 0.0
C2756 C 0.37422 0.89949 0.67722 0.0
C2757 C 0.39345 0.88344 0.69459 0.0
C2758 C 0.40701 0.86147 0.64359 0.0
C2759 C 0.38496 0.87492 0.62756 0.0
N2760 N 0.34211 0.8998 0.63389 0.0
N2761 N 0.42532 0.84532 0.6939 0.0
C2762 C 0.36697 0.89182 0.64585 0.0
C2763 C 0.40915 0.86334 0.67764 0.0
N2764 N 0.36363 0.92307 0.68997 0.0
N2765 N 0.42656 0.84777 0.62646 0.0
H2766 H 0.42699 0.84564 0.71846 0.0
H2767 H 0.43504 0.82858 0.68326 0.0
H2768 H 0.42598 0.84635 0.60188 0.0
H2769 H 0.44453 0.83997 0.63642 0.0
H2770 H 0.35126 0.93655 0.67712 0.0
H2771 H 0.36998 0.93091 0.71171 0.0
H2772 H 0.32742 0.91025 0.64739 0.0
H2773 H 0.33475 0.89289 0.61215 0.0
C2774 C 0.37192 0.12156 0.89807 0.0
C2775 C 0.39326 0.13586 0.88134 0.0
C2776 C 0.40731 0.15584 0.93317 0.0
C2777 C 0.384 0.1439 0.94865 0.0
N2778 N 0.3398 0.12208 0.942 0.0
N2779 N 0.428 0.17128 0.88361 0.0
C2780 C 0.36508 0.12881 0.92989 0.0
C2781 C 0.41013 0.15428 0.89912 0.0
N2782 N 0.3588 0.09981 0.88434 0.0
N2783 N 0.42734 0.1679 0.95092 0.0
H2784 H 0.43004 0.17152 0.85907 0.0
H2785 H 0.43877 0.18699 0.89483 0.0
H2786 H 0.42611 0.16931 0.97549 0.0
H2787 H 0.44615 0.17433 0.94153 0.0
H2788 H 0.34518 0.0871 0.89667 0.0
H2789 H 0.36392 0.09229 0.86207 0.0
H2790 H 0.32416 0.1136 0.92829 0.0
H2791 H 0.3333 0.12792 0.96457 0.0
C2792 C 0.88013 0.85551 0.88843 0.0
C2793 C 0.89807 0.87647 0.87695 0.0
C2794 C 0.90941 0.88778 0.93275 0.0
C2795 C 0.8888 0.8693 0.94419 0.0
N2796 N 0.85241 0.83743 0.93177 0.0
N2797 N 0.92823 0.91426 0.88874 0.0
C2798 C 0.87385 0.85341 0.92169 0.0
C2799 C 0.91247 0.89287 0.89933 0.0
N2800 N 0.86928 0.83722 0.86738 0.0
N2801 N 0.92671 0.89999 0.95391 0.0
H2802 H 0.93181 0.91791 0.86478 0.0
H2803 H 0.93633 0.92932 0.9035 0.0
H2804 H 0.92548 0.89643 0.97822 0.0
H2805 H 0.94387 0.91151 0.9473 0.0
H2806 H 0.85834 0.81975 0.87406 0.0
H2807 H 0.87356 0.83811 0.84318 0.0
H2808 H 0.83844 0.82813 0.91654 0.0
H2809 H 0.84718 0.83511 0.95552 0.0
C2810 C 0.8828 0.16151 0.6869 0.0
C2811 C 0.89972 0.13954 0.69806 0.0
C2812 C 0.91163 0.12914 0.64203 0.0
C2813 C 0.89179 0.14847 0.63096 0.0
N2814 N 0.85682 0.18179 0.64354 0.0
N2815 N 0.92856 0.10072 0.68516 0.0
C2816 C 0.87715 0.16451 0.65364 0.0
C2817 C 0.91397 0.12314 0.67529 0.0
N2818 N 0.8726 0.18008 0.70821 0.0
N2819 N 0.92869 0.11672 0.62057 0.0
H2820 H 0.9313 0.09588 0.70892 0.0
H2821 H 0.93632 0.08582 0.66985 0.0
H2822 H 0.92774 0.12089 0.59639 0.0
H2823 H 0.94541 0.1045 0.62685 0.0
H2824 H 0.86238 0.19803 0.70174 0.0
H2825 H 0.87678 0.17892 0.73237 0.0
H2826 H 0.8429 0.19143 0.65873 0.0
H2827 H 0.85273 0.18513 0.61965 0.0
C2828 C 0.64393 0.16109 0.42558 0.0
C2829 C 0.62748 0.14579 0.44741 0.0
C2830 C 0.60485 0.12299 0.4016 0.0
C2831 C 0.62105 0.13851 0.37976 0.0
N2832 N 0.65196 0.17641 0.37131 0.0
N2833 N 0.58798 0.11683 0.45558 0.0
C2834 C 0.6393 0.15882 0.39199 0.0
C2835 C 0.60662 0.12821 0.43509 0.0
N2836 N 0.66508 0.17674 0.43678 0.0
N2837 N 0.5888 0.10207 0.39054 0.0
H2838 H 0.58846 0.1205 0.47989 0.0
H2839 H 0.5706 0.10606 0.44833 0.0
H2840 H 0.58644 0.09798 0.36652 0.0
H2841 H 0.5793 0.08761 0.40512 0.0
H2842 H 0.68018 0.18549 0.4224 0.0
H2843 H 0.66855 0.17966 0.46084 0.0
H2844 H 0.66337 0.19343 0.37834 0.0
H2845 H 0.64888 0.17542 0.34692 0.0
C2846 C 0.64635 0.88864 0.14462 0.0
C2847 C 0.62941 0.87115 0.12603 0.0
C2848 C 0.60579 0.85781 0.17625 0.0
C2849 C 0.62 0.87886 0.19322 0.0
N2850 N 0.646 0.92108 0.1875 0.0
N2851 N 0.58877 0.84242 0.12508 0.0
C2852 C 0.63781 0.89635 0.1755 0.0
C2853 C 0.60788 0.85657 0.14208 0.0
N2854 N 0.67143 0.89715 0.13359 0.0
N2855 N 0.59115 0.83838 0.19239 0.0
H2856 H 0.58894 0.8417 0.10047 0.0
H2857 H 0.5713 0.83367 0.13537 0.0
H2858 H 0.58966 0.83811 0.21697 0.0
H2859 H 0.58266 0.82117 0.18146 0.0
H2860 H 0.685 0.90857 0.14743 0.0
H2861 H 0.68013 0.88966 0.11268 0.0
H2862 H 0.65764 0.93507 0.17432 0.0
H2863 H 0.63811 0.92907 0.2086 0.0
C2864 C 0.59886 0.65292 0.67669 0.0
C2865 C 0.61648 0.63523 0.69462 0.0
C2866 C 0.64716 0.6331 0.64805 0.0
C2867 C 0.62765 0.64634 0.6282 0.0
N2868 N 0.58155 0.66493 0.62444 0.0
N2869 N 0.65207 0.60039 0.69026 0.0
C2870 C 0.60248 0.65525 0.64273 0.0
C2871 C 0.639 0.62291 0.67815 0.0
N2872 N 0.57934 0.66833 0.69178 0.0
N2873 N 0.67405 0.63101 0.63883 0.0
H2874 H 0.64493 0.58995 0.71025 0.0
H2875 H 0.66749 0.58996 0.67782 0.0
H2876 H 0.68158 0.64107 0.61879 0.0
H2877 H 0.68923 0.62275 0.65344 0.0
H2878 H 0.56781 0.68337 0.68028 0.0
H2879 H 0.57662 0.66808 0.71622 0.0
H2880 H 0.56196 0.66909 0.63347 0.0
H2881 H 0.58292 0.66637 0.59992 0.0
C2882 C 0.63659 0.39573 0.89758 0.0
C2883 C 0.62131 0.37725 0.87833 0.0
C2884 C 0.61263 0.34994 0.92757 0.0
C2885 C 0.63148 0.36656 0.94517 0.0
N2886 N 0.66849 0.39969 0.94081 0.0
N2887 N 0.59798 0.33357 0.87564 0.0
C2888 C 0.64556 0.38772 0.92827 0.0
C2889 C 0.61014 0.35341 0.89354 0.0
N2890 N 0.64152 0.42184 0.88727 0.0
N2891 N 0.59635 0.33152 0.9432 0.0
H2892 H 0.59607 0.33522 0.85117 0.0
H2893 H 0.59195 0.31458 0.88475 0.0
H2894 H 0.59723 0.32874 0.96761 0.0
H2895 H 0.58041 0.32084 0.93231 0.0
H2896 H 0.65086 0.43676 0.90133 0.0
H2897 H 0.63262 0.42941 0.86669 0.0
H2898 H 0.68046 0.41383 0.92825 0.0
H2899 H 0.67758 0.39284 0.96169 0.0
C2900 C 0.87674 0.35317 0.15422 0.0
C2901 C 0.89158 0.3695 0.13188 0.0
C2902 C 0.91378 0.3938 0.17691 0.0
C2903 C 0.89952 0.37697 0.19922 0.0
N2904 N 0.87157 0.337 0.20857 0.0
N2905 N 0.92842 0.40151 0.12236 0.0
C2906 C 0.88233 0.35551 0.18757 0.0
C2907 C 0.9114 0.38859 0.14347 0.0
N2908 N 0.85607 0.33648 0.14378 0.0
N2909 N 0.92846 0.41587 0.18752 0.0
H2910 H 0.92737 0.39808 0.09803 0.0
H2911 H 0.94515 0.41354 0.129 0.0
H2912 H 0.93119 0.42004 0.21148 0.0
H2913 H 0.93634 0.4311 0.1727 0.0
H2914 H 0.84208 0.32672 0.15878 0.0
H2915 H 0.8516 0.33388 0.11988 0.0
H2916 H 0.86114 0.31927 0.20181 0.0
H2917 H 0.87534 0.33807 0.23283 0.0
C2918 C 0.90728 0.65945 0.39297 0.0
C2919 C 0.8926 0.6382 0.37681 0.0
C2920 C 0.86641 0.6302 0.42612 0.0
C2921 C 0.88381 0.64786 0.44394 0.0
N2922 N 0.92461 0.67627 0.44347 0.0
N2923 N 0.86559 0.59681 0.38419 0.0
C2924 C 0.90535 0.66174 0.42712 0.0
C2925 C 0.87441 0.62166 0.39527 0.0
N2926 N 0.92223 0.6781 0.37601 0.0
N2927 N 0.84146 0.62215 0.43801 0.0
H2928 H 0.8734 0.58798 0.36352 0.0
H2929 H 0.85359 0.58347 0.39781 0.0
H2930 H 0.83338 0.62991 0.45912 0.0
H2931 H 0.82742 0.61079 0.42475 0.0
H2932 H 0.93113 0.69544 0.38621 0.0
H2933 H 0.92353 0.67768 0.35142 0.0
H2934 H 0.94217 0.68449 0.43283 0.0
H2935 H 0.92432 0.67794 0.46804 0.0
C2936 C 0.37967 0.35774 0.39216 0.0
C2937 C 0.39734 0.37879 0.3802 0.0
C2938 C 0.4103 0.38967 0.43556 0.0
C2939 C 0.38996 0.37124 0.44742 0.0
N2940 N 0.3535 0.33919 0.4366 0.0
N2941 N 0.42769 0.41677 0.39149 0.0
C2942 C 0.37434 0.35549 0.42556 0.0
C2943 C 0.41245 0.39505 0.40219 0.0
N2944 N 0.36851 0.33926 0.37153 0.0
N2945 N 0.428 0.40182 0.45633 0.0
H2946 H 0.43028 0.42121 0.36759 0.0
H2947 H 0.43613 0.43162 0.40628 0.0
H2948 H 0.42711 0.39819 0.48063 0.0
H2949 H 0.4451 0.41327 0.44937 0.0
H2950 H 0.35765 0.32185 0.37866 0.0
H2951 H 0.37243 0.33983 0.34724 0.0
H2952 H 0.33897 0.32995 0.42203 0.0
H2953 H 0.34965 0.33632 0.46066 0.0
C2954 C 0.41679 0.62468 0.17373 0.0
C2955 C 0.40133 0.6404 0.19612 0.0
C2956 C 0.37712 0.66286 0.15106 0.0
C2957 C 0.393 0.64757 0.12877 0.0
N2958 N 0.43224 0.61858 0.11921 0.0
N2959 N 0.37128 0.67902 0.20525 0.0
C2960 C 0.41421 0.63002 0.14035 0.0
C2961 C 0.3829 0.66089 0.1844 0.0
N2962 N 0.43271 0.60336 0.18409 0.0
N2963 N 0.35549 0.67829 0.14054 0.0
H2964 H 0.37543 0.67857 0.22944 0.0
H2965 H 0.35978 0.69605 0.19832 0.0
H2966 H 0.35117 0.68084 0.11656 0.0
H2967 H 0.34084 0.68709 0.15549 0.0
H2968 H 0.44165 0.58891 0.16905 0.0
H2969 H 0.43532 0.59878 0.20794 0.0
H2970 H 0.44983 0.6078 0.12585 0.0
H2971 H 0.43105 0.62227 0.09493 0.0
C2972 C 0.09994 0.62048 0.90227 0.0
C2973 C 0.11279 0.63814 0.87971 0.0
C2974 C 0.13547 0.66279 0.92409 0.0
C2975 C 0.12212 0.64552 0.94671 0.0
N2976 N 0.08676 0.61204 0.95711 0.0
N2977 N 0.13797 0.67985 0.86992 0.0
C2978 C 0.10283 0.62567 0.93562 0.0
C2979 C 0.12898 0.66049 0.891 0.0
N2980 N 0.08617 0.59773 0.89197 0.0
N2981 N 0.15567 0.68033 0.93387 0.0
H2982 H 0.13344 0.67888 0.84583 0.0
H2983 H 0.1475 0.69811 0.87658 0.0
H2984 H 0.16092 0.68284 0.95755 0.0
H2985 H 0.16865 0.69089 0.91841 0.0
H2986 H 0.07948 0.58206 0.90693 0.0
H2987 H 0.08304 0.59357 0.86809 0.0
H2988 H 0.07043 0.59933 0.95081 0.0
H2989 H 0.08802 0.61558 0.98141 0.0
C2990 C 0.10179 0.3888 0.67876 0.0
C2991 C 0.1176 0.37304 0.7005 0.0
C2992 C 0.14077 0.35024 0.65482 0.0
C2993 C 0.12481 0.36586 0.63303 0.0
N2994 N 0.086 0.39568 0.62464 0.0
N2995 N 0.14779 0.3346 0.70904 0.0
C2996 C 0.10402 0.38376 0.64524 0.0
C2997 C 0.13565 0.35242 0.68833 0.0
N2998 N 0.08562 0.40965 0.69001 0.0
N2999 N 0.16204 0.33451 0.64368 0.0
H3000 H 0.14438 0.33561 0.73341 0.0
H3001 H 0.15903 0.3174 0.70202 0.0
H3002 H 0.1662 0.33205 0.61963 0.0
H3003 H 0.1767 0.32537 0.65818 0.0
H3004 H 0.07634 0.42431 0.67561 0.0
H3005 H 0.08278 0.41329 0.71412 0.0
H3006 H 0.06876 0.40687 0.63174 0.0
H3007 H 0.08687 0.39218 0.6003 0.0
loop_
_geom_bond_atom_site_label_1
_geom_bond_atom_site_label_2
_geom_bond_distance
_geom_bond_site_symmetry_2
_ccdc_geom_bond_type
Ho0 C3 2.811 . S
Ho0 O20 2.322 . S
Ho0 O22 2.378 . S
Ho0 O23 2.524 . S
Ho0 O24 2.381 . S
Ho0 O25 2.669 . S
Ho0 O27 2.346 . S
Ho0 O31 2.305 . S
Ho1 C12 2.811 . S
Ho1 O21 2.346 . S
Ho1 O25 2.305 . S
Ho1 O26 2.322 . S
Ho1 O28 2.378 . S
Ho1 O29 2.524 . S
Ho1 O30 2.381 . S
Ho1 O31 2.669 . S
C2 O20 1.259 . S
C2 O21 1.268 . S
C3 Ho0 2.811 . S
C3 C4 1.488 . S
C3 O22 1.215 . S
C3 O23 1.289 . S
C4 C3 1.488 . S
C4 C5 1.348 . S
C4 C9 1.413 . S
C5 C4 1.348 . S
C5 C6 1.442 . S
C5 H32 0.930 . S
C6 C5 1.442 . S
C6 C7 1.381 . S
C6 H33 0.931 . S
C7 C6 1.381 . S
C7 C8 1.321 . S
C8 C7 1.321 . S
C8 C9 1.403 . S
C8 H34 0.934 . S
C9 C4 1.413 . S
C9 C8 1.403 . S
C9 H35 0.930 . S
C10 O24 1.275 . S
C10 O25 1.256 . S
C11 O26 1.259 . S
C11 O27 1.268 . S
C12 Ho1 2.811 . S
C12 C13 1.488 . S
C12 O28 1.215 . S
C12 O29 1.289 . S
C13 C12 1.488 . S
C13 C14 1.348 . S
C13 C18 1.413 . S
C14 C13 1.348 . S
C14 C15 1.442 . S
C14 H36 0.930 . S
C15 C14 1.442 . S
C15 C16 1.381 1_455 S
C15 H37 0.931 . S
C16 C15 1.381 1_655 S
C16 C17 1.321 . S
C17 C16 1.321 . S
C17 C18 1.403 1_655 S
C17 H38 0.934 . S
C18 C13 1.413 . S
C18 C17 1.403 1_455 S
C18 H39 0.930 . S
C19 O30 1.275 . S
C19 O31 1.256 . S
O20 Ho0 2.322 . S
O20 C2 1.259 . S
O21 Ho1 2.346 . S
O21 C2 1.268 . S
O22 Ho0 2.378 . S
O22 C3 1.215 . S
O23 Ho0 2.524 . S
O23 C3 1.289 . S
O24 Ho0 2.381 . S
O24 C10 1.275 . S
O25 Ho0 2.669 . S
O25 Ho1 2.305 . S
O25 C10 1.256 . S
O26 Ho1 2.322 . S
O26 C11 1.259 . S
O27 Ho0 2.346 . S
O27 C11 1.268 . S
O28 Ho1 2.378 . S
O28 C12 1.215 . S
O29 Ho1 2.524 . S
O29 C12 1.289 . S
O30 Ho1 2.381 . S
O30 C19 1.275 . S
O31 Ho0 2.305 . S
O31 Ho1 2.669 . S
O31 C19 1.256 . S
H32 C5 0.930 . S
H33 C6 0.931 . S
H34 C8 0.934 . S
H35 C9 0.930 . S
H36 C14 0.930 . S
H37 C15 0.931 . S
H38 C17 0.934 . S
H39 C18 0.930 . S
Ho40 C43 2.811 . S
Ho40 O60 2.322 . S
Ho40 O62 2.378 . S
Ho40 O63 2.524 . S
Ho40 O64 2.381 . S
Ho40 O65 2.669 . S
Ho40 O67 2.346 . S
Ho40 O71 2.305 . S
Ho41 C52 2.811 . S
Ho41 O61 2.346 . S
Ho41 O65 2.305 . S
Ho41 O66 2.322 . S
Ho41 O68 2.378 . S
Ho41 O69 2.524 . S
Ho41 O70 2.381 . S
Ho41 O71 2.669 . S
C42 O60 1.259 . S
C42 O61 1.268 . S
C43 Ho40 2.811 . S
C43 C44 1.488 . S
C43 O62 1.215 . S
C43 O63 1.289 . S
C44 C43 1.488 . S
C44 C45 1.348 . S
C44 C49 1.413 . S
C45 C44 1.348 . S
C45 C46 1.442 . S
C45 H72 0.930 . S
C46 C45 1.442 . S
C46 C47 1.381 1_565 S
C46 H73 0.931 . S
C47 C46 1.381 1_545 S
C47 C48 1.321 . S
C48 C47 1.321 . S
C48 C49 1.403 1_545 S
C48 H74 0.934 . S
C49 C44 1.413 . S
C49 C48 1.403 1_565 S
C49 H75 0.930 . S
C50 O64 1.275 . S
C50 O65 1.256 . S
C51 O66 1.259 . S
C51 O67 1.268 . S
C52 Ho41 2.811 . S
C52 C53 1.488 . S
C52 O68 1.215 . S
C52 O69 1.289 . S
C53 C52 1.488 . S
C53 C54 1.348 . S
C53 C58 1.413 . S
C54 C53 1.348 . S
C54 C55 1.442 . S
C54 H76 0.930 . S
C55 C54 1.442 . S
C55 C56 1.381 . S
C55 H77 0.931 . S
C56 C55 1.381 . S
C56 C57 1.321 . S
C57 C56 1.321 . S
C57 C58 1.403 . S
C57 H78 0.934 . S
C58 C53 1.413 . S
C58 C57 1.403 . S
C58 H79 0.930 . S
C59 O70 1.275 . S
C59 O71 1.256 . S
O60 Ho40 2.322 . S
O60 C42 1.259 . S
O61 Ho41 2.346 . S
O61 C42 1.268 . S
O62 Ho40 2.378 . S
O62 C43 1.215 . S
O63 Ho40 2.524 . S
O63 C43 1.289 . S
O64 Ho40 2.381 . S
O64 C50 1.275 . S
O65 Ho40 2.669 . S
O65 Ho41 2.305 . S
O65 C50 1.256 . S
O66 Ho41 2.322 . S
O66 C51 1.259 . S
O67 Ho40 2.346 . S
O67 C51 1.268 . S
O68 Ho41 2.378 . S
O68 C52 1.215 . S
O69 Ho41 2.524 . S
O69 C52 1.289 . S
O70 Ho41 2.381 . S
O70 C59 1.275 . S
O71 Ho40 2.305 . S
O71 Ho41 2.669 . S
O71 C59 1.256 . S
H72 C45 0.930 . S
H73 C46 0.931 . S
H74 C48 0.934 . S
H75 C49 0.930 . S
H76 C54 0.930 . S
H77 C55 0.931 . S
H78 C57 0.934 . S
H79 C58 0.930 . S
Ho80 C83 2.811 . S
Ho80 O100 2.322 . S
Ho80 O102 2.378 . S
Ho80 O103 2.524 . S
Ho80 O104 2.381 . S
Ho80 O105 2.669 . S
Ho80 O107 2.346 . S
Ho80 O111 2.305 . S
Ho81 C92 2.811 . S
Ho81 O101 2.346 . S
Ho81 O105 2.305 . S
Ho81 O106 2.322 . S
Ho81 O108 2.378 . S
Ho81 O109 2.524 . S
Ho81 O110 2.381 . S
Ho81 O111 2.669 . S
C82 O100 1.259 . S
C82 O101 1.268 . S
C83 Ho80 2.811 . S
C83 C84 1.488 . S
C83 O102 1.215 . S
C83 O103 1.289 . S
C84 C83 1.488 . S
C84 C85 1.348 . S
C84 C89 1.413 . S
C85 C84 1.348 . S
C85 C86 1.442 . S
C85 H112 0.930 . S
C86 C85 1.442 . S
C86 C87 1.381 . S
C86 H113 0.931 . S
C87 C86 1.381 . S
C87 C88 1.321 . S
C88 C87 1.321 . S
C88 C89 1.403 . S
C88 H114 0.934 . S
C89 C84 1.413 . S
C89 C88 1.403 . S
C89 H115 0.930 . S
C90 O104 1.275 . S
C90 O105 1.256 . S
C91 O106 1.259 . S
C91 O107 1.268 . S
C92 Ho81 2.811 . S
C92 C93 1.488 . S
C92 O108 1.215 . S
C92 O109 1.289 . S
C93 C92 1.488 . S
C93 C94 1.348 . S
C93 C98 1.413 . S
C94 C93 1.348 . S
C94 C95 1.442 . S
C94 H116 0.930 . S
C95 C94 1.442 . S
C95 C96 1.381 . S
C95 H117 0.931 . S
C96 C95 1.381 . S
C96 C97 1.321 . S
C97 C96 1.321 . S
C97 C98 1.403 . S
C97 H118 0.934 . S
C98 C93 1.413 . S
C98 C97 1.403 . S
C98 H119 0.930 . S
C99 O110 1.275 . S
C99 O111 1.256 . S
O100 Ho80 2.322 . S
O100 C82 1.259 . S
O101 Ho81 2.346 . S
O101 C82 1.268 . S
O102 Ho80 2.378 . S
O102 C83 1.215 . S
O103 Ho80 2.524 . S
O103 C83 1.289 . S
O104 Ho80 2.381 . S
O104 C90 1.275 . S
O105 Ho80 2.669 . S
O105 Ho81 2.305 . S
O105 C90 1.256 . S
O106 Ho81 2.322 . S
O106 C91 1.259 . S
O107 Ho80 2.346 . S
O107 C91 1.268 . S
O108 Ho81 2.378 . S
O108 C92 1.215 . S
O109 Ho81 2.524 . S
O109 C92 1.289 . S
O110 Ho81 2.381 . S
O110 C99 1.275 . S
O111 Ho80 2.305 . S
O111 Ho81 2.669 . S
O111 C99 1.256 . S
H112 C85 0.930 . S
H113 C86 0.931 . S
H114 C88 0.934 . S
H115 C89 0.930 . S
H116 C94 0.930 . S
H117 C95 0.931 . S
H118 C97 0.934 . S
H119 C98 0.930 . S
Ho120 C123 2.811 1_554 S
Ho120 O140 2.322 1_554 S
Ho120 O142 2.378 1_554 S
Ho120 O143 2.524 1_554 S
Ho120 O144 2.381 . S
Ho120 O145 2.669 . S
Ho120 O147 2.346 . S
Ho120 O151 2.305 . S
Ho121 C132 2.811 . S
Ho121 O141 2.346 1_554 S
Ho121 O145 2.305 . S
Ho121 O146 2.322 . S
Ho121 O148 2.378 . S
Ho121 O149 2.524 . S
Ho121 O150 2.381 . S
Ho121 O151 2.669 . S
C122 O140 1.259 . S
C122 O141 1.268 . S
C123 Ho120 2.811 1_556 S
C123 C124 1.488 . S
C123 O142 1.215 . S
C123 O143 1.289 . S
C124 C123 1.488 . S
C124 C125 1.348 . S
C124 C129 1.413 . S
C125 C124 1.348 . S
C125 C126 1.442 . S
C125 H152 0.930 . S
C126 C125 1.442 . S
C126 C127 1.381 1_545 S
C126 H153 0.931 . S
C127 C126 1.381 1_565 S
C127 C128 1.321 . S
C128 C127 1.321 . S
C128 C129 1.403 1_565 S
C128 H154 0.934 . S
C129 C124 1.413 . S
C129 C128 1.403 1_545 S
C129 H155 0.930 . S
C130 O144 1.275 . S
C130 O145 1.256 . S
C131 O146 1.259 . S
C131 O147 1.268 . S
C132 Ho121 2.811 . S
C132 C133 1.488 . S
C132 O148 1.215 . S
C132 O149 1.289 . S
C133 C132 1.488 . S
C133 C134 1.348 . S
C133 C138 1.413 . S
C134 C133 1.348 . S
C134 C135 1.442 . S
C134 H156 0.930 . S
C135 C134 1.442 . S
C135 C136 1.381 . S
C135 H157 0.931 . S
C136 C135 1.381 . S
C136 C137 1.321 . S
C137 C136 1.321 . S
C137 C138 1.403 . S
C137 H158 0.934 . S
C138 C133 1.413 . S
C138 C137 1.403 . S
C138 H159 0.930 . S
C139 O150 1.275 1_556 S
C139 O151 1.256 1_556 S
O140 Ho120 2.322 1_556 S
O140 C122 1.259 . S
O141 Ho121 2.346 1_556 S
O141 C122 1.268 . S
O142 Ho120 2.378 1_556 S
O142 C123 1.215 . S
O143 Ho120 2.524 1_556 S
O143 C123 1.289 . S
O144 Ho120 2.381 . S
O144 C130 1.275 . S
O145 Ho120 2.669 . S
O145 Ho121 2.305 . S
O145 C130 1.256 . S
O146 Ho121 2.322 . S
O146 C131 1.259 . S
O147 Ho120 2.346 . S
O147 C131 1.268 . S
O148 Ho121 2.378 . S
O148 C132 1.215 . S
O149 Ho121 2.524 . S
O149 C132 1.289 . S
O150 Ho121 2.381 . S
O150 C139 1.275 1_554 S
O151 Ho120 2.305 . S
O151 Ho121 2.669 . S
O151 C139 1.256 1_554 S
H152 C125 0.930 . S
H153 C126 0.931 . S
H154 C128 0.934 . S
H155 C129 0.930 . S
H156 C134 0.930 . S
H157 C135 0.931 . S
H158 C137 0.934 . S
H159 C138 0.930 . S
Ho160 C163 2.811 . S
Ho160 O180 2.322 . S
Ho160 O182 2.378 . S
Ho160 O183 2.524 . S
Ho160 O184 2.381 . S
Ho160 O185 2.669 . S
Ho160 O187 2.346 . S
Ho160 O191 2.305 . S
Ho161 C172 2.811 . S
Ho161 O181 2.346 . S
Ho161 O185 2.305 . S
Ho161 O186 2.322 . S
Ho161 O188 2.378 . S
Ho161 O189 2.524 . S
Ho161 O190 2.381 . S
Ho161 O191 2.669 . S
C162 O180 1.259 . S
C162 O181 1.268 . S
C163 Ho160 2.811 . S
C163 C164 1.488 . S
C163 O182 1.215 . S
C163 O183 1.289 . S
C164 C163 1.488 . S
C164 C165 1.348 . S
C164 C169 1.413 . S
C165 C164 1.348 . S
C165 C166 1.442 . S
C165 H192 0.930 . S
C166 C165 1.442 . S
C166 C167 1.381 . S
C166 H193 0.931 . S
C167 C166 1.381 . S
C167 C168 1.321 . S
C168 C167 1.321 . S
C168 C169 1.403 . S
C168 H194 0.934 . S
C169 C164 1.413 . S
C169 C168 1.403 . S
C169 H195 0.930 . S
C170 O184 1.275 . S
C170 O185 1.256 . S
C171 O186 1.259 . S
C171 O187 1.268 . S
C172 Ho161 2.811 . S
C172 C173 1.488 . S
C172 O188 1.215 . S
C172 O189 1.289 . S
C173 C172 1.488 . S
C173 C174 1.348 . S
C173 C178 1.413 . S
C174 C173 1.348 . S
C174 C175 1.442 . S
C174 H196 0.930 . S
C175 C174 1.442 . S
C175 C176 1.381 1_455 S
C175 H197 0.931 . S
C176 C175 1.381 1_655 S
C176 C177 1.321 . S
C177 C176 1.321 . S
C177 C178 1.403 1_655 S
C177 H198 0.934 . S
C178 C173 1.413 . S
C178 C177 1.403 1_455 S
C178 H199 0.930 . S
C179 O190 1.275 . S
C179 O191 1.256 . S
O180 Ho160 2.322 . S
O180 C162 1.259 . S
O181 Ho161 2.346 . S
O181 C162 1.268 . S
O182 Ho160 2.378 . S
O182 C163 1.215 . S
O183 Ho160 2.524 . S
O183 C163 1.289 . S
O184 Ho160 2.381 . S
O184 C170 1.275 . S
O185 Ho160 2.669 . S
O185 Ho161 2.305 . S
O185 C170 1.256 . S
O186 Ho161 2.322 . S
O186 C171 1.259 . S
O187 Ho160 2.346 . S
O187 C171 1.268 . S
O188 Ho161 2.378 . S
O188 C172 1.215 . S
O189 Ho161 2.524 . S
O189 C172 1.289 . S
O190 Ho161 2.381 . S
O190 C179 1.275 . S
O191 Ho160 2.305 . S
O191 Ho161 2.669 . S
O191 C179 1.256 . S
H192 C165 0.930 . S
H193 C166 0.931 . S
H194 C168 0.934 . S
H195 C169 0.930 . S
H196 C174 0.930 . S
H197 C175 0.931 . S
H198 C177 0.934 . S
H199 C178 0.930 . S
Ho200 C203 2.811 . S
Ho200 O220 2.322 . S
Ho200 O222 2.378 . S
Ho200 O223 2.524 . S
Ho200 O224 2.381 . S
Ho200 O225 2.669 . S
Ho200 O227 2.346 . S
Ho200 O231 2.305 . S
Ho201 C212 2.811 . S
Ho201 O221 2.346 . S
Ho201 O225 2.305 . S
Ho201 O226 2.322 . S
Ho201 O228 2.378 . S
Ho201 O229 2.524 . S
Ho201 O230 2.381 . S
Ho201 O231 2.669 . S
C202 O220 1.259 . S
C202 O221 1.268 . S
C203 Ho200 2.811 . S
C203 C204 1.488 . S
C203 O222 1.215 . S
C203 O223 1.289 . S
C204 C203 1.488 . S
C204 C205 1.348 . S
C204 C209 1.413 . S
C205 C204 1.348 . S
C205 C206 1.442 . S
C205 H232 0.930 . S
C206 C205 1.442 . S
C206 C207 1.381 1_565 S
C206 H233 0.931 . S
C207 C206 1.381 1_545 S
C207 C208 1.321 . S
C208 C207 1.321 . S
C208 C209 1.403 1_545 S
C208 H234 0.934 . S
C209 C204 1.413 . S
C209 C208 1.403 1_565 S
C209 H235 0.930 . S
C210 O224 1.275 . S
C210 O225 1.256 . S
C211 O226 1.259 . S
C211 O227 1.268 . S
C212 Ho201 2.811 . S
C212 C213 1.488 . S
C212 O228 1.215 . S
C212 O229 1.289 . S
C213 C212 1.488 . S
C213 C214 1.348 . S
C213 C218 1.413 . S
C214 C213 1.348 . S
C214 C215 1.442 . S
C214 H236 0.930 . S
C215 C214 1.442 . S
C215 C216 1.381 . S
C215 H237 0.931 . S
C216 C215 1.381 . S
C216 C217 1.321 . S
C217 C216 1.321 . S
C217 C218 1.403 . S
C217 H238 0.934 . S
C218 C213 1.413 . S
C218 C217 1.403 . S
C218 H239 0.930 . S
C219 O230 1.275 . S
C219 O231 1.256 . S
O220 Ho200 2.322 . S
O220 C202 1.259 . S
O221 Ho201 2.346 . S
O221 C202 1.268 . S
O222 Ho200 2.378 . S
O222 C203 1.215 . S
O223 Ho200 2.524 . S
O223 C203 1.289 . S
O224 Ho200 2.381 . S
O224 C210 1.275 . S
O225 Ho200 2.669 . S
O225 Ho201 2.305 . S
O225 C210 1.256 . S
O226 Ho201 2.322 . S
O226 C211 1.259 . S
O227 Ho200 2.346 . S
O227 C211 1.268 . S
O228 Ho201 2.378 . S
O228 C212 1.215 . S
O229 Ho201 2.524 . S
O229 C212 1.289 . S
O230 Ho201 2.381 . S
O230 C219 1.275 . S
O231 Ho200 2.305 . S
O231 Ho201 2.669 . S
O231 C219 1.256 . S
H232 C205 0.930 . S
H233 C206 0.931 . S
H234 C208 0.934 . S
H235 C209 0.930 . S
H236 C214 0.930 . S
H237 C215 0.931 . S
H238 C217 0.934 . S
H239 C218 0.930 . S
Ho240 C243 2.811 . S
Ho240 O260 2.322 . S
Ho240 O262 2.378 . S
Ho240 O263 2.524 . S
Ho240 O264 2.381 . S
Ho240 O265 2.669 . S
Ho240 O267 2.346 . S
Ho240 O271 2.305 . S
Ho241 C252 2.811 . S
Ho241 O261 2.346 . S
Ho241 O265 2.305 . S
Ho241 O266 2.322 . S
Ho241 O268 2.378 . S
Ho241 O269 2.524 . S
Ho241 O270 2.381 . S
Ho241 O271 2.669 . S
C242 O260 1.259 . S
C242 O261 1.268 . S
C243 Ho240 2.811 . S
C243 C244 1.488 . S
C243 O262 1.215 . S
C243 O263 1.289 . S
C244 C243 1.488 . S
C244 C245 1.348 . S
C244 C249 1.413 . S
C245 C244 1.348 . S
C245 C246 1.442 . S
C245 H272 0.930 . S
C246 C245 1.442 . S
C246 C247 1.381 . S
C246 H273 0.931 . S
C247 C246 1.381 . S
C247 C248 1.321 . S
C248 C247 1.321 . S
C248 C249 1.403 . S
C248 H274 0.934 . S
C249 C244 1.413 . S
C249 C248 1.403 . S
C249 H275 0.930 . S
C250 O264 1.275 . S
C250 O265 1.256 . S
C251 O266 1.259 . S
C251 O267 1.268 . S
C252 Ho241 2.811 . S
C252 C253 1.488 . S
C252 O268 1.215 . S
C252 O269 1.289 . S
C253 C252 1.488 . S
C253 C254 1.348 . S
C253 C258 1.413 . S
C254 C253 1.348 . S
C254 C255 1.442 . S
C254 H276 0.930 . S
C255 C254 1.442 . S
C255 C256 1.381 . S
C255 H277 0.931 . S
C256 C255 1.381 . S
C256 C257 1.321 . S
C257 C256 1.321 . S
C257 C258 1.403 . S
C257 H278 0.934 . S
C258 C253 1.413 . S
C258 C257 1.403 . S
C258 H279 0.930 . S
C259 O270 1.275 . S
C259 O271 1.256 . S
O260 Ho240 2.322 . S
O260 C242 1.259 . S
O261 Ho241 2.346 . S
O261 C242 1.268 . S
O262 Ho240 2.378 . S
O262 C243 1.215 . S
O263 Ho240 2.524 . S
O263 C243 1.289 . S
O264 Ho240 2.381 . S
O264 C250 1.275 . S
O265 Ho240 2.669 . S
O265 Ho241 2.305 . S
O265 C250 1.256 . S
O266 Ho241 2.322 . S
O266 C251 1.259 . S
O267 Ho240 2.346 . S
O267 C251 1.268 . S
O268 Ho241 2.378 . S
O268 C252 1.215 . S
O269 Ho241 2.524 . S
O269 C252 1.289 . S
O270 Ho241 2.381 . S
O270 C259 1.275 . S
O271 Ho240 2.305 . S
O271 Ho241 2.669 . S
O271 C259 1.256 . S
H272 C245 0.930 . S
H273 C246 0.931 . S
H274 C248 0.934 . S
H275 C249 0.930 . S
H276 C254 0.930 . S
H277 C255 0.931 . S
H278 C257 0.934 . S
H279 C258 0.930 . S
Ho280 C283 2.811 1_556 S
Ho280 O300 2.322 1_556 S
Ho280 O302 2.378 1_556 S
Ho280 O303 2.524 1_556 S
Ho280 O304 2.381 . S
Ho280 O305 2.669 . S
Ho280 O307 2.346 . S
Ho280 O311 2.305 . S
Ho281 C292 2.811 . S
Ho281 O301 2.346 1_556 S
Ho281 O305 2.305 . S
Ho281 O306 2.322 . S
Ho281 O308 2.378 . S
Ho281 O309 2.524 . S
Ho281 O310 2.381 . S
Ho281 O311 2.669 . S
C282 O300 1.259 . S
C282 O301 1.268 . S
C283 Ho280 2.811 1_554 S
C283 C284 1.488 . S
C283 O302 1.215 . S
C283 O303 1.289 . S
C284 C283 1.488 . S
C284 C285 1.348 . S
C284 C289 1.413 . S
C285 C284 1.348 . S
C285 C286 1.442 . S
C285 H312 0.930 . S
C286 C285 1.442 . S
C286 C287 1.381 1_545 S
C286 H313 0.931 . S
C287 C286 1.381 1_565 S
C287 C288 1.321 . S
C288 C287 1.321 . S
C288 C289 1.403 1_565 S
C288 H314 0.934 . S
C289 C284 1.413 . S
C289 C288 1.403 1_545 S
C289 H315 0.930 . S
C290 O304 1.275 . S
C290 O305 1.256 . S
C291 O306 1.259 . S
C291 O307 1.268 . S
C292 Ho281 2.811 . S
C292 C293 1.488 . S
C292 O308 1.215 . S
C292 O309 1.289 . S
C293 C292 1.488 . S
C293 C294 1.348 . S
C293 C298 1.413 . S
C294 C293 1.348 . S
C294 C295 1.442 . S
C294 H316 0.930 . S
C295 C294 1.442 . S
C295 C296 1.381 . S
C295 H317 0.931 . S
C296 C295 1.381 . S
C296 C297 1.321 . S
C297 C296 1.321 . S
C297 C298 1.403 . S
C297 H318 0.934 . S
C298 C293 1.413 . S
C298 C297 1.403 . S
C298 H319 0.930 . S
C299 O310 1.275 1_554 S
C299 O311 1.256 1_554 S
O300 Ho280 2.322 1_554 S
O300 C282 1.259 . S
O301 Ho281 2.346 1_554 S
O301 C282 1.268 . S
O302 Ho280 2.378 1_554 S
O302 C283 1.215 . S
O303 Ho280 2.524 1_554 S
O303 C283 1.289 . S
O304 Ho280 2.381 . S
O304 C290 1.275 . S
O305 Ho280 2.669 . S
O305 Ho281 2.305 . S
O305 C290 1.256 . S
O306 Ho281 2.322 . S
O306 C291 1.259 . S
O307 Ho280 2.346 . S
O307 C291 1.268 . S
O308 Ho281 2.378 . S
O308 C292 1.215 . S
O309 Ho281 2.524 . S
O309 C292 1.289 . S
O310 Ho281 2.381 . S
O310 C299 1.275 1_556 S
O311 Ho280 2.305 . S
O311 Ho281 2.669 . S
O311 C299 1.256 1_556 S
H312 C285 0.930 . S
H313 C286 0.931 . S
H314 C288 0.934 . S
H315 C289 0.930 . S
H316 C294 0.930 . S
H317 C295 0.931 . S
H318 C297 0.934 . S
H319 C298 0.930 . S
Ho320 C323 2.811 . S
Ho320 O340 2.322 . S
Ho320 O342 2.378 . S
Ho320 O343 2.524 . S
Ho320 O344 2.381 . S
Ho320 O345 2.669 . S
Ho320 O347 2.346 . S
Ho320 O351 2.305 . S
Ho321 C332 2.811 . S
Ho321 O341 2.346 . S
Ho321 O345 2.305 . S
Ho321 O346 2.322 . S
Ho321 O348 2.378 . S
Ho321 O349 2.524 . S
Ho321 O350 2.381 . S
Ho321 O351 2.669 . S
C322 O340 1.259 . S
C322 O341 1.268 . S
C323 Ho320 2.811 . S
C323 C324 1.488 . S
C323 O342 1.215 . S
C323 O343 1.289 . S
C324 C323 1.488 . S
C324 C325 1.348 . S
C324 C329 1.413 . S
C325 C324 1.348 . S
C325 C326 1.442 . S
C325 H352 0.930 . S
C326 C325 1.442 . S
C326 C327 1.381 1_655 S
C326 H353 0.931 . S
C327 C326 1.381 1_455 S
C327 C328 1.321 . S
C328 C327 1.321 . S
C328 C329 1.403 1_455 S
C328 H354 0.934 . S
C329 C324 1.413 . S
C329 C328 1.403 1_655 S
C329 H355 0.930 . S
C330 O344 1.275 . S
C330 O345 1.256 . S
C331 O346 1.259 . S
C331 O347 1.268 . S
C332 Ho321 2.811 . S
C332 C333 1.488 . S
C332 O348 1.215 . S
C332 O349 1.289 . S
C333 C332 1.488 . S
C333 C334 1.348 . S
C333 C338 1.413 . S
C334 C333 1.348 . S
C334 C335 1.442 . S
C334 H356 0.930 . S
C335 C334 1.442 . S
C335 C336 1.381 . S
C335 H357 0.931 . S
C336 C335 1.381 . S
C336 C337 1.321 . S
C337 C336 1.321 . S
C337 C338 1.403 . S
C337 H358 0.934 . S
C338 C333 1.413 . S
C338 C337 1.403 . S
C338 H359 0.930 . S
C339 O350 1.275 . S
C339 O351 1.256 . S
O340 Ho320 2.322 . S
O340 C322 1.259 . S
O341 Ho321 2.346 . S
O341 C322 1.268 . S
O342 Ho320 2.378 . S
O342 C323 1.215 . S
O343 Ho320 2.524 . S
O343 C323 1.289 . S
O344 Ho320 2.381 . S
O344 C330 1.275 . S
O345 Ho320 2.669 . S
O345 Ho321 2.305 . S
O345 C330 1.256 . S
O346 Ho321 2.322 . S
O346 C331 1.259 . S
O347 Ho320 2.346 . S
O347 C331 1.268 . S
O348 Ho321 2.378 . S
O348 C332 1.215 . S
O349 Ho321 2.524 . S
O349 C332 1.289 . S
O350 Ho321 2.381 . S
O350 C339 1.275 . S
O351 Ho320 2.305 . S
O351 Ho321 2.669 . S
O351 C339 1.256 . S
H352 C325 0.930 . S
H353 C326 0.931 . S
H354 C328 0.934 . S
H355 C329 0.930 . S
H356 C334 0.930 . S
H357 C335 0.931 . S
H358 C337 0.934 . S
H359 C338 0.930 . S
Ho360 C363 2.811 . S
Ho360 O380 2.322 . S
Ho360 O382 2.378 . S
Ho360 O383 2.524 . S
Ho360 O384 2.381 . S
Ho360 O385 2.669 . S
Ho360 O387 2.346 . S
Ho360 O391 2.305 . S
Ho361 C372 2.811 . S
Ho361 O381 2.346 . S
Ho361 O385 2.305 . S
Ho361 O386 2.322 . S
Ho361 O388 2.378 . S
Ho361 O389 2.524 . S
Ho361 O390 2.381 . S
Ho361 O391 2.669 . S
C362 O380 1.259 . S
C362 O381 1.268 . S
C363 Ho360 2.811 . S
C363 C364 1.488 . S
C363 O382 1.215 . S
C363 O383 1.289 . S
C364 C363 1.488 . S
C364 C365 1.348 . S
C364 C369 1.413 . S
C365 C364 1.348 . S
C365 C366 1.442 . S
C365 H392 0.930 . S
C366 C365 1.442 . S
C366 C367 1.381 . S
C366 H393 0.931 . S
C367 C366 1.381 . S
C367 C368 1.321 . S
C368 C367 1.321 . S
C368 C369 1.403 . S
C368 H394 0.934 . S
C369 C364 1.413 . S
C369 C368 1.403 . S
C369 H395 0.930 . S
C370 O384 1.275 . S
C370 O385 1.256 . S
C371 O386 1.259 . S
C371 O387 1.268 . S
C372 Ho361 2.811 . S
C372 C373 1.488 . S
C372 O388 1.215 . S
C372 O389 1.289 . S
C373 C372 1.488 . S
C373 C374 1.348 . S
C373 C378 1.413 . S
C374 C373 1.348 . S
C374 C375 1.442 . S
C374 H396 0.930 . S
C375 C374 1.442 . S
C375 C376 1.381 1_545 S
C375 H397 0.931 . S
C376 C375 1.381 1_565 S
C376 C377 1.321 . S
C377 C376 1.321 . S
C377 C378 1.403 1_565 S
C377 H398 0.934 . S
C378 C373 1.413 . S
C378 C377 1.403 1_545 S
C378 H399 0.930 . S
C379 O390 1.275 . S
C379 O391 1.256 . S
O380 Ho360 2.322 . S
O380 C362 1.259 . S
O381 Ho361 2.346 . S
O381 C362 1.268 . S
O382 Ho360 2.378 . S
O382 C363 1.215 . S
O383 Ho360 2.524 . S
O383 C363 1.289 . S
O384 Ho360 2.381 . S
O384 C370 1.275 . S
O385 Ho360 2.669 . S
O385 Ho361 2.305 . S
O385 C370 1.256 . S
O386 Ho361 2.322 . S
O386 C371 1.259 . S
O387 Ho360 2.346 . S
O387 C371 1.268 . S
O388 Ho361 2.378 . S
O388 C372 1.215 . S
O389 Ho361 2.524 . S
O389 C372 1.289 . S
O390 Ho361 2.381 . S
O390 C379 1.275 . S
O391 Ho360 2.305 . S
O391 Ho361 2.669 . S
O391 C379 1.256 . S
H392 C365 0.930 . S
H393 C366 0.931 . S
H394 C368 0.934 . S
H395 C369 0.930 . S
H396 C374 0.930 . S
H397 C375 0.931 . S
H398 C377 0.934 . S
H399 C378 0.930 . S
Ho400 C403 2.811 . S
Ho400 O420 2.322 . S
Ho400 O422 2.378 . S
Ho400 O423 2.524 . S
Ho400 O424 2.381 . S
Ho400 O425 2.669 . S
Ho400 O427 2.346 . S
Ho400 O431 2.305 . S
Ho401 C412 2.811 . S
Ho401 O421 2.346 . S
Ho401 O425 2.305 . S
Ho401 O426 2.322 . S
Ho401 O428 2.378 . S
Ho401 O429 2.524 . S
Ho401 O430 2.381 . S
Ho401 O431 2.669 . S
C402 O420 1.259 . S
C402 O421 1.268 . S
C403 Ho400 2.811 . S
C403 C404 1.488 . S
C403 O422 1.215 . S
C403 O423 1.289 . S
C404 C403 1.488 . S
C404 C405 1.348 . S
C404 C409 1.413 . S
C405 C404 1.348 . S
C405 C406 1.442 . S
C405 H432 0.930 . S
C406 C405 1.442 . S
C406 C407 1.381 . S
C406 H433 0.931 . S
C407 C406 1.381 . S
C407 C408 1.321 . S
C408 C407 1.321 . S
C408 C409 1.403 . S
C408 H434 0.934 . S
C409 C404 1.413 . S
C409 C408 1.403 . S
C409 H435 0.930 . S
C410 O424 1.275 . S
C410 O425 1.256 . S
C411 O426 1.259 . S
C411 O427 1.268 . S
C412 Ho401 2.811 . S
C412 C413 1.488 . S
C412 O428 1.215 . S
C412 O429 1.289 . S
C413 C412 1.488 . S
C413 C414 1.348 . S
C413 C418 1.413 . S
C414 C413 1.348 . S
C414 C415 1.442 . S
C414 H436 0.930 . S
C415 C414 1.442 . S
C415 C416 1.381 . S
C415 H437 0.931 . S
C416 C415 1.381 . S
C416 C417 1.321 . S
C417 C416 1.321 . S
C417 C418 1.403 . S
C417 H438 0.934 . S
C418 C413 1.413 . S
C418 C417 1.403 . S
C418 H439 0.930 . S
C419 O430 1.275 . S
C419 O431 1.256 . S
O420 Ho400 2.322 . S
O420 C402 1.259 . S
O421 Ho401 2.346 . S
O421 C402 1.268 . S
O422 Ho400 2.378 . S
O422 C403 1.215 . S
O423 Ho400 2.524 . S
O423 C403 1.289 . S
O424 Ho400 2.381 . S
O424 C410 1.275 . S
O425 Ho400 2.669 . S
O425 Ho401 2.305 . S
O425 C410 1.256 . S
O426 Ho401 2.322 . S
O426 C411 1.259 . S
O427 Ho400 2.346 . S
O427 C411 1.268 . S
O428 Ho401 2.378 . S
O428 C412 1.215 . S
O429 Ho401 2.524 . S
O429 C412 1.289 . S
O430 Ho401 2.381 . S
O430 C419 1.275 . S
O431 Ho400 2.305 . S
O431 Ho401 2.669 . S
O431 C419 1.256 . S
H432 C405 0.930 . S
H433 C406 0.931 . S
H434 C408 0.934 . S
H435 C409 0.930 . S
H436 C414 0.930 . S
H437 C415 0.931 . S
H438 C417 0.934 . S
H439 C418 0.930 . S
Ho440 C443 2.811 . S
Ho440 O460 2.322 . S
Ho440 O462 2.378 . S
Ho440 O463 2.524 . S
Ho440 O464 2.381 . S
Ho440 O465 2.669 . S
Ho440 O467 2.346 1_556 S
Ho440 O471 2.305 . S
Ho441 C452 2.811 1_556 S
Ho441 O461 2.346 . S
Ho441 O465 2.305 . S
Ho441 O466 2.322 1_556 S
Ho441 O468 2.378 1_556 S
Ho441 O469 2.524 1_556 S
Ho441 O470 2.381 . S
Ho441 O471 2.669 . S
C442 O460 1.259 . S
C442 O461 1.268 . S
C443 Ho440 2.811 . S
C443 C444 1.488 . S
C443 O462 1.215 . S
C443 O463 1.289 . S
C444 C443 1.488 . S
C444 C445 1.348 . S
C444 C449 1.413 . S
C445 C444 1.348 . S
C445 C446 1.442 . S
C445 H472 0.930 . S
C446 C445 1.442 . S
C446 C447 1.381 . S
C446 H473 0.931 . S
C447 C446 1.381 . S
C447 C448 1.321 . S
C448 C447 1.321 . S
C448 C449 1.403 . S
C448 H474 0.934 . S
C449 C444 1.413 . S
C449 C448 1.403 . S
C449 H475 0.930 . S
C450 O464 1.275 1_554 S
C450 O465 1.256 1_554 S
C451 O466 1.259 . S
C451 O467 1.268 . S
C452 Ho441 2.811 1_554 S
C452 C453 1.488 . S
C452 O468 1.215 . S
C452 O469 1.289 . S
C453 C452 1.488 . S
C453 C454 1.348 . S
C453 C458 1.413 . S
C454 C453 1.348 . S
C454 C455 1.442 . S
C454 H476 0.930 . S
C455 C454 1.442 . S
C455 C456 1.381 1_565 S
C455 H477 0.931 . S
C456 C455 1.381 1_545 S
C456 C457 1.321 . S
C457 C456 1.321 . S
C457 C458 1.403 1_545 S
C457 H478 0.934 . S
C458 C453 1.413 . S
C458 C457 1.403 1_565 S
C458 H479 0.930 . S
C459 O470 1.275 . S
C459 O471 1.256 . S
O460 Ho440 2.322 . S
O460 C442 1.259 . S
O461 Ho441 2.346 . S
O461 C442 1.268 . S
O462 Ho440 2.378 . S
O462 C443 1.215 . S
O463 Ho440 2.524 . S
O463 C443 1.289 . S
O464 Ho440 2.381 . S
O464 C450 1.275 1_556 S
O465 Ho440 2.669 . S
O465 Ho441 2.305 . S
O465 C450 1.256 1_556 S
O466 Ho441 2.322 1_554 S
O466 C451 1.259 . S
O467 Ho440 2.346 1_554 S
O467 C451 1.268 . S
O468 Ho441 2.378 1_554 S
O468 C452 1.215 . S
O469 Ho441 2.524 1_554 S
O469 C452 1.289 . S
O470 Ho441 2.381 . S
O470 C459 1.275 . S
O471 Ho440 2.305 . S
O471 Ho441 2.669 . S
O471 C459 1.256 . S
H472 C445 0.930 . S
H473 C446 0.931 . S
H474 C448 0.934 . S
H475 C449 0.930 . S
H476 C454 0.930 . S
H477 C455 0.931 . S
H478 C457 0.934 . S
H479 C458 0.930 . S
Ho480 C483 2.811 . S
Ho480 O500 2.322 . S
Ho480 O502 2.378 . S
Ho480 O503 2.524 . S
Ho480 O504 2.381 . S
Ho480 O505 2.669 . S
Ho480 O507 2.346 . S
Ho480 O511 2.305 . S
Ho481 C492 2.811 . S
Ho481 O501 2.346 . S
Ho481 O505 2.305 . S
Ho481 O506 2.322 . S
Ho481 O508 2.378 . S
Ho481 O509 2.524 . S
Ho481 O510 2.381 . S
Ho481 O511 2.669 . S
C482 O500 1.259 . S
C482 O501 1.268 . S
C483 Ho480 2.811 . S
C483 C484 1.488 . S
C483 O502 1.215 . S
C483 O503 1.289 . S
C484 C483 1.488 . S
C484 C485 1.348 . S
C484 C489 1.413 . S
C485 C484 1.348 . S
C485 C486 1.442 . S
C485 H512 0.930 . S
C486 C485 1.442 . S
C486 C487 1.381 1_655 S
C486 H513 0.931 . S
C487 C486 1.381 1_455 S
C487 C488 1.321 . S
C488 C487 1.321 . S
C488 C489 1.403 1_455 S
C488 H514 0.934 . S
C489 C484 1.413 . S
C489 C488 1.403 1_655 S
C489 H515 0.930 . S
C490 O504 1.275 . S
C490 O505 1.256 . S
C491 O506 1.259 . S
C491 O507 1.268 . S
C492 Ho481 2.811 . S
C492 C493 1.488 . S
C492 O508 1.215 . S
C492 O509 1.289 . S
C493 C492 1.488 . S
C493 C494 1.348 . S
C493 C498 1.413 . S
C494 C493 1.348 . S
C494 C495 1.442 . S
C494 H516 0.930 . S
C495 C494 1.442 . S
C495 C496 1.381 . S
C495 H517 0.931 . S
C496 C495 1.381 . S
C496 C497 1.321 . S
C497 C496 1.321 . S
C497 C498 1.403 . S
C497 H518 0.934 . S
C498 C493 1.413 . S
C498 C497 1.403 . S
C498 H519 0.930 . S
C499 O510 1.275 . S
C499 O511 1.256 . S
O500 Ho480 2.322 . S
O500 C482 1.259 . S
O501 Ho481 2.346 . S
O501 C482 1.268 . S
O502 Ho480 2.378 . S
O502 C483 1.215 . S
O503 Ho480 2.524 . S
O503 C483 1.289 . S
O504 Ho480 2.381 . S
O504 C490 1.275 . S
O505 Ho480 2.669 . S
O505 Ho481 2.305 . S
O505 C490 1.256 . S
O506 Ho481 2.322 . S
O506 C491 1.259 . S
O507 Ho480 2.346 . S
O507 C491 1.268 . S
O508 Ho481 2.378 . S
O508 C492 1.215 . S
O509 Ho481 2.524 . S
O509 C492 1.289 . S
O510 Ho481 2.381 . S
O510 C499 1.275 . S
O511 Ho480 2.305 . S
O511 Ho481 2.669 . S
O511 C499 1.256 . S
H512 C485 0.930 . S
H513 C486 0.931 . S
H514 C488 0.934 . S
H515 C489 0.930 . S
H516 C494 0.930 . S
H517 C495 0.931 . S
H518 C497 0.934 . S
H519 C498 0.930 . S
Ho520 C523 2.811 . S
Ho520 O540 2.322 . S
Ho520 O542 2.378 . S
Ho520 O543 2.524 . S
Ho520 O544 2.381 . S
Ho520 O545 2.669 . S
Ho520 O547 2.346 . S
Ho520 O551 2.305 . S
Ho521 C532 2.811 . S
Ho521 O541 2.346 . S
Ho521 O545 2.305 . S
Ho521 O546 2.322 . S
Ho521 O548 2.378 . S
Ho521 O549 2.524 . S
Ho521 O550 2.381 . S
Ho521 O551 2.669 . S
C522 O540 1.259 . S
C522 O541 1.268 . S
C523 Ho520 2.811 . S
C523 C524 1.488 . S
C523 O542 1.215 . S
C523 O543 1.289 . S
C524 C523 1.488 . S
C524 C525 1.348 . S
C524 C529 1.413 . S
C525 C524 1.348 . S
C525 C526 1.442 . S
C525 H552 0.930 . S
C526 C525 1.442 . S
C526 C527 1.381 . S
C526 H553 0.931 . S
C527 C526 1.381 . S
C527 C528 1.321 . S
C528 C527 1.321 . S
C528 C529 1.403 . S
C528 H554 0.934 . S
C529 C524 1.413 . S
C529 C528 1.403 . S
C529 H555 0.930 . S
C530 O544 1.275 . S
C530 O545 1.256 . S
C531 O546 1.259 . S
C531 O547 1.268 . S
C532 Ho521 2.811 . S
C532 C533 1.488 . S
C532 O548 1.215 . S
C532 O549 1.289 . S
C533 C532 1.488 . S
C533 C534 1.348 . S
C533 C538 1.413 . S
C534 C533 1.348 . S
C534 C535 1.442 . S
C534 H556 0.930 . S
C535 C534 1.442 . S
C535 C536 1.381 1_545 S
C535 H557 0.931 . S
C536 C535 1.381 1_565 S
C536 C537 1.321 . S
C537 C536 1.321 . S
C537 C538 1.403 1_565 S
C537 H558 0.934 . S
C538 C533 1.413 . S
C538 C537 1.403 1_545 S
C538 H559 0.930 . S
C539 O550 1.275 . S
C539 O551 1.256 . S
O540 Ho520 2.322 . S
O540 C522 1.259 . S
O541 Ho521 2.346 . S
O541 C522 1.268 . S
O542 Ho520 2.378 . S
O542 C523 1.215 . S
O543 Ho520 2.524 . S
O543 C523 1.289 . S
O544 Ho520 2.381 . S
O544 C530 1.275 . S
O545 Ho520 2.669 . S
O545 Ho521 2.305 . S
O545 C530 1.256 . S
O546 Ho521 2.322 . S
O546 C531 1.259 . S
O547 Ho520 2.346 . S
O547 C531 1.268 . S
O548 Ho521 2.378 . S
O548 C532 1.215 . S
O549 Ho521 2.524 . S
O549 C532 1.289 . S
O550 Ho521 2.381 . S
O550 C539 1.275 . S
O551 Ho520 2.305 . S
O551 Ho521 2.669 . S
O551 C539 1.256 . S
H552 C525 0.930 . S
H553 C526 0.931 . S
H554 C528 0.934 . S
H555 C529 0.930 . S
H556 C534 0.930 . S
H557 C535 0.931 . S
H558 C537 0.934 . S
H559 C538 0.930 . S
Ho560 C563 2.811 . S
Ho560 O580 2.322 . S
Ho560 O582 2.378 . S
Ho560 O583 2.524 . S
Ho560 O584 2.381 . S
Ho560 O585 2.669 . S
Ho560 O587 2.346 . S
Ho560 O591 2.305 . S
Ho561 C572 2.811 . S
Ho561 O581 2.346 . S
Ho561 O585 2.305 . S
Ho561 O586 2.322 . S
Ho561 O588 2.378 . S
Ho561 O589 2.524 . S
Ho561 O590 2.381 . S
Ho561 O591 2.669 . S
C562 O580 1.259 . S
C562 O581 1.268 . S
C563 Ho560 2.811 . S
C563 C564 1.488 . S
C563 O582 1.215 . S
C563 O583 1.289 . S
C564 C563 1.488 . S
C564 C565 1.348 . S
C564 C569 1.413 . S
C565 C564 1.348 . S
C565 C566 1.442 . S
C565 H592 0.930 . S
C566 C565 1.442 . S
C566 C567 1.381 . S
C566 H593 0.931 . S
C567 C566 1.381 . S
C567 C568 1.321 . S
C568 C567 1.321 . S
C568 C569 1.403 . S
C568 H594 0.934 . S
C569 C564 1.413 . S
C569 C568 1.403 . S
C569 H595 0.930 . S
C570 O584 1.275 . S
C570 O585 1.256 . S
C571 O586 1.259 . S
C571 O587 1.268 . S
C572 Ho561 2.811 . S
C572 C573 1.488 . S
C572 O588 1.215 . S
C572 O589 1.289 . S
C573 C572 1.488 . S
C573 C574 1.348 . S
C573 C578 1.413 . S
C574 C573 1.348 . S
C574 C575 1.442 . S
C574 H596 0.930 . S
C575 C574 1.442 . S
C575 C576 1.381 . S
C575 H597 0.931 . S
C576 C575 1.381 . S
C576 C577 1.321 . S
C577 C576 1.321 . S
C577 C578 1.403 . S
C577 H598 0.934 . S
C578 C573 1.413 . S
C578 C577 1.403 . S
C578 H599 0.930 . S
C579 O590 1.275 . S
C579 O591 1.256 . S
O580 Ho560 2.322 . S
O580 C562 1.259 . S
O581 Ho561 2.346 . S
O581 C562 1.268 . S
O582 Ho560 2.378 . S
O582 C563 1.215 . S
O583 Ho560 2.524 . S
O583 C563 1.289 . S
O584 Ho560 2.381 . S
O584 C570 1.275 . S
O585 Ho560 2.669 . S
O585 Ho561 2.305 . S
O585 C570 1.256 . S
O586 Ho561 2.322 . S
O586 C571 1.259 . S
O587 Ho560 2.346 . S
O587 C571 1.268 . S
O588 Ho561 2.378 . S
O588 C572 1.215 . S
O589 Ho561 2.524 . S
O589 C572 1.289 . S
O590 Ho561 2.381 . S
O590 C579 1.275 . S
O591 Ho560 2.305 . S
O591 Ho561 2.669 . S
O591 C579 1.256 . S
H592 C565 0.930 . S
H593 C566 0.931 . S
H594 C568 0.934 . S
H595 C569 0.930 . S
H596 C574 0.930 . S
H597 C575 0.931 . S
H598 C577 0.934 . S
H599 C578 0.930 . S
Ho600 C603 2.811 . S
Ho600 O620 2.322 . S
Ho600 O622 2.378 . S
Ho600 O623 2.524 . S
Ho600 O624 2.381 . S
Ho600 O625 2.669 . S
Ho600 O627 2.346 1_554 S
Ho600 O631 2.305 . S
Ho601 C612 2.811 1_554 S
Ho601 O621 2.346 . S
Ho601 O625 2.305 . S
Ho601 O626 2.322 1_554 S
Ho601 O628 2.378 1_554 S
Ho601 O629 2.524 1_554 S
Ho601 O630 2.381 . S
Ho601 O631 2.669 . S
C602 O620 1.259 . S
C602 O621 1.268 . S
C603 Ho600 2.811 . S
C603 C604 1.488 . S
C603 O622 1.215 . S
C603 O623 1.289 . S
C604 C603 1.488 . S
C604 C605 1.348 . S
C604 C609 1.413 . S
C605 C604 1.348 . S
C605 C606 1.442 . S
C605 H632 0.930 . S
C606 C605 1.442 . S
C606 C607 1.381 . S
C606 H633 0.931 . S
C607 C606 1.381 . S
C607 C608 1.321 . S
C608 C607 1.321 . S
C608 C609 1.403 . S
C608 H634 0.934 . S
C609 C604 1.413 . S
C609 C608 1.403 . S
C609 H635 0.930 . S
C610 O624 1.275 1_556 S
C610 O625 1.256 1_556 S
C611 O626 1.259 . S
C611 O627 1.268 . S
C612 Ho601 2.811 1_556 S
C612 C613 1.488 . S
C612 O628 1.215 . S
C612 O629 1.289 . S
C613 C612 1.488 . S
C613 C614 1.348 . S
C613 C618 1.413 . S
C614 C613 1.348 . S
C614 C615 1.442 . S
C614 H636 0.930 . S
C615 C614 1.442 . S
C615 C616 1.381 1_565 S
C615 H637 0.931 . S
C616 C615 1.381 1_545 S
C616 C617 1.321 . S
C617 C616 1.321 . S
C617 C618 1.403 1_545 S
C617 H638 0.934 . S
C618 C613 1.413 . S
C618 C617 1.403 1_565 S
C618 H639 0.930 . S
C619 O630 1.275 . S
C619 O631 1.256 . S
O620 Ho600 2.322 . S
O620 C602 1.259 . S
O621 Ho601 2.346 . S
O621 C602 1.268 . S
O622 Ho600 2.378 . S
O622 C603 1.215 . S
O623 Ho600 2.524 . S
O623 C603 1.289 . S
O624 Ho600 2.381 . S
O624 C610 1.275 1_554 S
O625 Ho600 2.669 . S
O625 Ho601 2.305 . S
O625 C610 1.256 1_554 S
O626 Ho601 2.322 1_556 S
O626 C611 1.259 . S
O627 Ho600 2.346 1_556 S
O627 C611 1.268 . S
O628 Ho601 2.378 1_556 S
O628 C612 1.215 . S
O629 Ho601 2.524 1_556 S
O629 C612 1.289 . S
O630 Ho601 2.381 . S
O630 C619 1.275 . S
O631 Ho600 2.305 . S
O631 Ho601 2.669 . S
O631 C619 1.256 . S
H632 C605 0.930 . S
H633 C606 0.931 . S
H634 C608 0.934 . S
H635 C609 0.930 . S
H636 C614 0.930 . S
H637 C615 0.931 . S
H638 C617 0.934 . S
H639 C618 0.930 . S
Ho640 C643 2.811 . S
Ho640 O660 2.322 . S
Ho640 O662 2.378 . S
Ho640 O663 2.524 . S
Ho640 O664 2.381 . S
Ho640 O665 2.669 . S
Ho640 O667 2.346 . S
Ho640 O671 2.305 . S
Ho641 C652 2.811 . S
Ho641 O661 2.346 . S
Ho641 O665 2.305 . S
Ho641 O666 2.322 . S
Ho641 O668 2.378 . S
Ho641 O669 2.524 . S
Ho641 O670 2.381 . S
Ho641 O671 2.669 . S
C642 O660 1.259 . S
C642 O661 1.268 . S
C643 Ho640 2.811 . S
C643 C644 1.488 . S
C643 O662 1.215 . S
C643 O663 1.289 . S
C644 C643 1.488 . S
C644 C645 1.348 . S
C644 C649 1.413 . S
C645 C644 1.348 . S
C645 C646 1.442 . S
C645 H672 0.930 . S
C646 C645 1.442 . S
C646 C647 1.381 . S
C646 H673 0.931 . S
C647 C646 1.381 . S
C647 C648 1.321 . S
C648 C647 1.321 . S
C648 C649 1.403 . S
C648 H674 0.934 . S
C649 C644 1.413 . S
C649 C648 1.403 . S
C649 H675 0.930 . S
C650 O664 1.275 . S
C650 O665 1.256 . S
C651 O666 1.259 . S
C651 O667 1.268 . S
C652 Ho641 2.811 . S
C652 C653 1.488 . S
C652 O668 1.215 . S
C652 O669 1.289 . S
C653 C652 1.488 . S
C653 C654 1.348 . S
C653 C658 1.413 . S
C654 C653 1.348 . S
C654 C655 1.442 . S
C654 H676 0.930 . S
C655 C654 1.442 . S
C655 C656 1.381 . S
C655 H677 0.931 . S
C656 C655 1.381 . S
C656 C657 1.321 . S
C657 C656 1.321 . S
C657 C658 1.403 . S
C657 H678 0.934 . S
C658 C653 1.413 . S
C658 C657 1.403 . S
C658 H679 0.930 . S
C659 O670 1.275 . S
C659 O671 1.256 . S
O660 Ho640 2.322 . S
O660 C642 1.259 . S
O661 Ho641 2.346 . S
O661 C642 1.268 . S
O662 Ho640 2.378 . S
O662 C643 1.215 . S
O663 Ho640 2.524 . S
O663 C643 1.289 . S
O664 Ho640 2.381 . S
O664 C650 1.275 . S
O665 Ho640 2.669 . S
O665 Ho641 2.305 . S
O665 C650 1.256 . S
O666 Ho641 2.322 . S
O666 C651 1.259 . S
O667 Ho640 2.346 . S
O667 C651 1.268 . S
O668 Ho641 2.378 . S
O668 C652 1.215 . S
O669 Ho641 2.524 . S
O669 C652 1.289 . S
O670 Ho641 2.381 . S
O670 C659 1.275 . S
O671 Ho640 2.305 . S
O671 Ho641 2.669 . S
O671 C659 1.256 . S
H672 C645 0.930 . S
H673 C646 0.931 . S
H674 C648 0.934 . S
H675 C649 0.930 . S
H676 C654 0.930 . S
H677 C655 0.931 . S
H678 C657 0.934 . S
H679 C658 0.930 . S
Ho680 C683 2.811 1_554 S
Ho680 O700 2.322 1_554 S
Ho680 O702 2.378 1_554 S
Ho680 O703 2.524 1_554 S
Ho680 O704 2.381 . S
Ho680 O705 2.669 . S
Ho680 O707 2.346 . S
Ho680 O711 2.305 . S
Ho681 C692 2.811 . S
Ho681 O701 2.346 1_554 S
Ho681 O705 2.305 . S
Ho681 O706 2.322 . S
Ho681 O708 2.378 . S
Ho681 O709 2.524 . S
Ho681 O710 2.381 . S
Ho681 O711 2.669 . S
C682 O700 1.259 . S
C682 O701 1.268 . S
C683 Ho680 2.811 1_556 S
C683 C684 1.488 . S
C683 O702 1.215 . S
C683 O703 1.289 . S
C684 C683 1.488 . S
C684 C685 1.348 . S
C684 C689 1.413 . S
C685 C684 1.348 . S
C685 C686 1.442 . S
C685 H712 0.930 . S
C686 C685 1.442 . S
C686 C687 1.381 . S
C686 H713 0.931 . S
C687 C686 1.381 . S
C687 C688 1.321 . S
C688 C687 1.321 . S
C688 C689 1.403 . S
C688 H714 0.934 . S
C689 C684 1.413 . S
C689 C688 1.403 . S
C689 H715 0.930 . S
C690 O704 1.275 . S
C690 O705 1.256 . S
C691 O706 1.259 . S
C691 O707 1.268 . S
C692 Ho681 2.811 . S
C692 C693 1.488 . S
C692 O708 1.215 . S
C692 O709 1.289 . S
C693 C692 1.488 . S
C693 C694 1.348 . S
C693 C698 1.413 . S
C694 C693 1.348 . S
C694 C695 1.442 . S
C694 H716 0.930 . S
C695 C694 1.442 . S
C695 C696 1.381 . S
C695 H717 0.931 . S
C696 C695 1.381 . S
C696 C697 1.321 . S
C697 C696 1.321 . S
C697 C698 1.403 . S
C697 H718 0.934 . S
C698 C693 1.413 . S
C698 C697 1.403 . S
C698 H719 0.930 . S
C699 O710 1.275 1_556 S
C699 O711 1.256 1_556 S
O700 Ho680 2.322 1_556 S
O700 C682 1.259 . S
O701 Ho681 2.346 1_556 S
O701 C682 1.268 . S
O702 Ho680 2.378 1_556 S
O702 C683 1.215 . S
O703 Ho680 2.524 1_556 S
O703 C683 1.289 . S
O704 Ho680 2.381 . S
O704 C690 1.275 . S
O705 Ho680 2.669 . S
O705 Ho681 2.305 . S
O705 C690 1.256 . S
O706 Ho681 2.322 . S
O706 C691 1.259 . S
O707 Ho680 2.346 . S
O707 C691 1.268 . S
O708 Ho681 2.378 . S
O708 C692 1.215 . S
O709 Ho681 2.524 . S
O709 C692 1.289 . S
O710 Ho681 2.381 . S
O710 C699 1.275 1_554 S
O711 Ho680 2.305 . S
O711 Ho681 2.669 . S
O711 C699 1.256 1_554 S
H712 C685 0.930 . S
H713 C686 0.931 . S
H714 C688 0.934 . S
H715 C689 0.930 . S
H716 C694 0.930 . S
H717 C695 0.931 . S
H718 C697 0.934 . S
H719 C698 0.930 . S
Ho720 C723 2.811 . S
Ho720 O740 2.322 . S
Ho720 O742 2.378 . S
Ho720 O743 2.524 . S
Ho720 O744 2.381 . S
Ho720 O745 2.669 . S
Ho720 O747 2.346 . S
Ho720 O751 2.305 . S
Ho721 C732 2.811 . S
Ho721 O741 2.346 . S
Ho721 O745 2.305 . S
Ho721 O746 2.322 . S
Ho721 O748 2.378 . S
Ho721 O749 2.524 . S
Ho721 O750 2.381 . S
Ho721 O751 2.669 . S
C722 O740 1.259 . S
C722 O741 1.268 . S
C723 Ho720 2.811 . S
C723 C724 1.488 . S
C723 O742 1.215 . S
C723 O743 1.289 . S
C724 C723 1.488 . S
C724 C725 1.348 . S
C724 C729 1.413 . S
C725 C724 1.348 . S
C725 C726 1.442 . S
C725 H752 0.930 . S
C726 C725 1.442 . S
C726 C727 1.381 . S
C726 H753 0.931 . S
C727 C726 1.381 . S
C727 C728 1.321 . S
C728 C727 1.321 . S
C728 C729 1.403 . S
C728 H754 0.934 . S
C729 C724 1.413 . S
C729 C728 1.403 . S
C729 H755 0.930 . S
C730 O744 1.275 . S
C730 O745 1.256 . S
C731 O746 1.259 . S
C731 O747 1.268 . S
C732 Ho721 2.811 . S
C732 C733 1.488 . S
C732 O748 1.215 . S
C732 O749 1.289 . S
C733 C732 1.488 . S
C733 C734 1.348 . S
C733 C738 1.413 . S
C734 C733 1.348 . S
C734 C735 1.442 . S
C734 H756 0.930 . S
C735 C734 1.442 . S
C735 C736 1.381 1_655 S
C735 H757 0.931 . S
C736 C735 1.381 1_455 S
C736 C737 1.321 . S
C737 C736 1.321 . S
C737 C738 1.403 1_455 S
C737 H758 0.934 . S
C738 C733 1.413 . S
C738 C737 1.403 1_655 S
C738 H759 0.930 . S
C739 O750 1.275 . S
C739 O751 1.256 . S
O740 Ho720 2.322 . S
O740 C722 1.259 . S
O741 Ho721 2.346 . S
O741 C722 1.268 . S
O742 Ho720 2.378 . S
O742 C723 1.215 . S
O743 Ho720 2.524 . S
O743 C723 1.289 . S
O744 Ho720 2.381 . S
O744 C730 1.275 . S
O745 Ho720 2.669 . S
O745 Ho721 2.305 . S
O745 C730 1.256 . S
O746 Ho721 2.322 . S
O746 C731 1.259 . S
O747 Ho720 2.346 . S
O747 C731 1.268 . S
O748 Ho721 2.378 . S
O748 C732 1.215 . S
O749 Ho721 2.524 . S
O749 C732 1.289 . S
O750 Ho721 2.381 . S
O750 C739 1.275 . S
O751 Ho720 2.305 . S
O751 Ho721 2.669 . S
O751 C739 1.256 . S
H752 C725 0.930 . S
H753 C726 0.931 . S
H754 C728 0.934 . S
H755 C729 0.930 . S
H756 C734 0.930 . S
H757 C735 0.931 . S
H758 C737 0.934 . S
H759 C738 0.930 . S
Ho760 C763 2.811 . S
Ho760 O780 2.322 . S
Ho760 O782 2.378 . S
Ho760 O783 2.524 . S
Ho760 O784 2.381 . S
Ho760 O785 2.669 . S
Ho760 O787 2.346 . S
Ho760 O791 2.305 . S
Ho761 C772 2.811 . S
Ho761 O781 2.346 . S
Ho761 O785 2.305 . S
Ho761 O786 2.322 . S
Ho761 O788 2.378 . S
Ho761 O789 2.524 . S
Ho761 O790 2.381 . S
Ho761 O791 2.669 . S
C762 O780 1.259 . S
C762 O781 1.268 . S
C763 Ho760 2.811 . S
C763 C764 1.488 . S
C763 O782 1.215 . S
C763 O783 1.289 . S
C764 C763 1.488 . S
C764 C765 1.348 . S
C764 C769 1.413 . S
C765 C764 1.348 . S
C765 C766 1.442 . S
C765 H792 0.930 . S
C766 C765 1.442 . S
C766 C767 1.381 . S
C766 H793 0.931 . S
C767 C766 1.381 . S
C767 C768 1.321 . S
C768 C767 1.321 . S
C768 C769 1.403 . S
C768 H794 0.934 . S
C769 C764 1.413 . S
C769 C768 1.403 . S
C769 H795 0.930 . S
C770 O784 1.275 . S
C770 O785 1.256 . S
C771 O786 1.259 . S
C771 O787 1.268 . S
C772 Ho761 2.811 . S
C772 C773 1.488 . S
C772 O788 1.215 . S
C772 O789 1.289 . S
C773 C772 1.488 . S
C773 C774 1.348 . S
C773 C778 1.413 . S
C774 C773 1.348 . S
C774 C775 1.442 . S
C774 H796 0.930 . S
C775 C774 1.442 . S
C775 C776 1.381 . S
C775 H797 0.931 . S
C776 C775 1.381 . S
C776 C777 1.321 . S
C777 C776 1.321 . S
C777 C778 1.403 . S
C777 H798 0.934 . S
C778 C773 1.413 . S
C778 C777 1.403 . S
C778 H799 0.930 . S
C779 O790 1.275 . S
C779 O791 1.256 . S
O780 Ho760 2.322 . S
O780 C762 1.259 . S
O781 Ho761 2.346 . S
O781 C762 1.268 . S
O782 Ho760 2.378 . S
O782 C763 1.215 . S
O783 Ho760 2.524 . S
O783 C763 1.289 . S
O784 Ho760 2.381 . S
O784 C770 1.275 . S
O785 Ho760 2.669 . S
O785 Ho761 2.305 . S
O785 C770 1.256 . S
O786 Ho761 2.322 . S
O786 C771 1.259 . S
O787 Ho760 2.346 . S
O787 C771 1.268 . S
O788 Ho761 2.378 . S
O788 C772 1.215 . S
O789 Ho761 2.524 . S
O789 C772 1.289 . S
O790 Ho761 2.381 . S
O790 C779 1.275 . S
O791 Ho760 2.305 . S
O791 Ho761 2.669 . S
O791 C779 1.256 . S
H792 C765 0.930 . S
H793 C766 0.931 . S
H794 C768 0.934 . S
H795 C769 0.930 . S
H796 C774 0.930 . S
H797 C775 0.931 . S
H798 C777 0.934 . S
H799 C778 0.930 . S
Ho800 C803 2.811 . S
Ho800 O820 2.322 . S
Ho800 O822 2.378 . S
Ho800 O823 2.524 . S
Ho800 O824 2.381 . S
Ho800 O825 2.669 . S
Ho800 O827 2.346 . S
Ho800 O831 2.305 . S
Ho801 C812 2.811 . S
Ho801 O821 2.346 . S
Ho801 O825 2.305 . S
Ho801 O826 2.322 . S
Ho801 O828 2.378 . S
Ho801 O829 2.524 . S
Ho801 O830 2.381 . S
Ho801 O831 2.669 . S
C802 O820 1.259 . S
C802 O821 1.268 . S
C803 Ho800 2.811 . S
C803 C804 1.488 . S
C803 O822 1.215 . S
C803 O823 1.289 . S
C804 C803 1.488 . S
C804 C805 1.348 . S
C804 C809 1.413 . S
C805 C804 1.348 . S
C805 C806 1.442 . S
C805 H832 0.930 . S
C806 C805 1.442 . S
C806 C807 1.381 . S
C806 H833 0.931 . S
C807 C806 1.381 . S
C807 C808 1.321 . S
C808 C807 1.321 . S
C808 C809 1.403 . S
C808 H834 0.934 . S
C809 C804 1.413 . S
C809 C808 1.403 . S
C809 H835 0.930 . S
C810 O824 1.275 . S
C810 O825 1.256 . S
C811 O826 1.259 . S
C811 O827 1.268 . S
C812 Ho801 2.811 . S
C812 C813 1.488 . S
C812 O828 1.215 . S
C812 O829 1.289 . S
C813 C812 1.488 . S
C813 C814 1.348 . S
C813 C818 1.413 . S
C814 C813 1.348 . S
C814 C815 1.442 . S
C814 H836 0.930 . S
C815 C814 1.442 . S
C815 C816 1.381 . S
C815 H837 0.931 . S
C816 C815 1.381 . S
C816 C817 1.321 . S
C817 C816 1.321 . S
C817 C818 1.403 . S
C817 H838 0.934 . S
C818 C813 1.413 . S
C818 C817 1.403 . S
C818 H839 0.930 . S
C819 O830 1.275 . S
C819 O831 1.256 . S
O820 Ho800 2.322 . S
O820 C802 1.259 . S
O821 Ho801 2.346 . S
O821 C802 1.268 . S
O822 Ho800 2.378 . S
O822 C803 1.215 . S
O823 Ho800 2.524 . S
O823 C803 1.289 . S
O824 Ho800 2.381 . S
O824 C810 1.275 . S
O825 Ho800 2.669 . S
O825 Ho801 2.305 . S
O825 C810 1.256 . S
O826 Ho801 2.322 . S
O826 C811 1.259 . S
O827 Ho800 2.346 . S
O827 C811 1.268 . S
O828 Ho801 2.378 . S
O828 C812 1.215 . S
O829 Ho801 2.524 . S
O829 C812 1.289 . S
O830 Ho801 2.381 . S
O830 C819 1.275 . S
O831 Ho800 2.305 . S
O831 Ho801 2.669 . S
O831 C819 1.256 . S
H832 C805 0.930 . S
H833 C806 0.931 . S
H834 C808 0.934 . S
H835 C809 0.930 . S
H836 C814 0.930 . S
H837 C815 0.931 . S
H838 C817 0.934 . S
H839 C818 0.930 . S
Ho840 C843 2.811 1_556 S
Ho840 O860 2.322 1_556 S
Ho840 O862 2.378 1_556 S
Ho840 O863 2.524 1_556 S
Ho840 O864 2.381 . S
Ho840 O865 2.669 . S
Ho840 O867 2.346 . S
Ho840 O871 2.305 . S
Ho841 C852 2.811 . S
Ho841 O861 2.346 1_556 S
Ho841 O865 2.305 . S
Ho841 O866 2.322 . S
Ho841 O868 2.378 . S
Ho841 O869 2.524 . S
Ho841 O870 2.381 . S
Ho841 O871 2.669 . S
C842 O860 1.259 . S
C842 O861 1.268 . S
C843 Ho840 2.811 1_554 S
C843 C844 1.488 . S
C843 O862 1.215 . S
C843 O863 1.289 . S
C844 C843 1.488 . S
C844 C845 1.348 . S
C844 C849 1.413 . S
C845 C844 1.348 . S
C845 C846 1.442 . S
C845 H872 0.930 . S
C846 C845 1.442 . S
C846 C847 1.381 . S
C846 H873 0.931 . S
C847 C846 1.381 . S
C847 C848 1.321 . S
C848 C847 1.321 . S
C848 C849 1.403 . S
C848 H874 0.934 . S
C849 C844 1.413 . S
C849 C848 1.403 . S
C849 H875 0.930 . S
C850 O864 1.275 . S
C850 O865 1.256 . S
C851 O866 1.259 . S
C851 O867 1.268 . S
C852 Ho841 2.811 . S
C852 C853 1.488 . S
C852 O868 1.215 . S
C852 O869 1.289 . S
C853 C852 1.488 . S
C853 C854 1.348 . S
C853 C858 1.413 . S
C854 C853 1.348 . S
C854 C855 1.442 . S
C854 H876 0.930 . S
C855 C854 1.442 . S
C855 C856 1.381 . S
C855 H877 0.931 . S
C856 C855 1.381 . S
C856 C857 1.321 . S
C857 C856 1.321 . S
C857 C858 1.403 . S
C857 H878 0.934 . S
C858 C853 1.413 . S
C858 C857 1.403 . S
C858 H879 0.930 . S
C859 O870 1.275 1_554 S
C859 O871 1.256 1_554 S
O860 Ho840 2.322 1_554 S
O860 C842 1.259 . S
O861 Ho841 2.346 1_554 S
O861 C842 1.268 . S
O862 Ho840 2.378 1_554 S
O862 C843 1.215 . S
O863 Ho840 2.524 1_554 S
O863 C843 1.289 . S
O864 Ho840 2.381 . S
O864 C850 1.275 . S
O865 Ho840 2.669 . S
O865 Ho841 2.305 . S
O865 C850 1.256 . S
O866 Ho841 2.322 . S
O866 C851 1.259 . S
O867 Ho840 2.346 . S
O867 C851 1.268 . S
O868 Ho841 2.378 . S
O868 C852 1.215 . S
O869 Ho841 2.524 . S
O869 C852 1.289 . S
O870 Ho841 2.381 . S
O870 C859 1.275 1_556 S
O871 Ho840 2.305 . S
O871 Ho841 2.669 . S
O871 C859 1.256 1_556 S
H872 C845 0.930 . S
H873 C846 0.931 . S
H874 C848 0.934 . S
H875 C849 0.930 . S
H876 C854 0.930 . S
H877 C855 0.931 . S
H878 C857 0.934 . S
H879 C858 0.930 . S
Ho880 C883 2.811 . S
Ho880 O900 2.322 . S
Ho880 O902 2.378 . S
Ho880 O903 2.524 . S
Ho880 O904 2.381 . S
Ho880 O905 2.669 . S
Ho880 O907 2.346 . S
Ho880 O911 2.305 . S
Ho881 C892 2.811 . S
Ho881 O901 2.346 . S
Ho881 O905 2.305 . S
Ho881 O906 2.322 . S
Ho881 O908 2.378 . S
Ho881 O909 2.524 . S
Ho881 O910 2.381 . S
Ho881 O911 2.669 . S
C882 O900 1.259 . S
C882 O901 1.268 . S
C883 Ho880 2.811 . S
C883 C884 1.488 . S
C883 O902 1.215 . S
C883 O903 1.289 . S
C884 C883 1.488 . S
C884 C885 1.348 . S
C884 C889 1.413 . S
C885 C884 1.348 . S
C885 C886 1.442 . S
C885 H912 0.930 . S
C886 C885 1.442 . S
C886 C887 1.381 . S
C886 H913 0.931 . S
C887 C886 1.381 . S
C887 C888 1.321 . S
C888 C887 1.321 . S
C888 C889 1.403 . S
C888 H914 0.934 . S
C889 C884 1.413 . S
C889 C888 1.403 . S
C889 H915 0.930 . S
C890 O904 1.275 . S
C890 O905 1.256 . S
C891 O906 1.259 . S
C891 O907 1.268 . S
C892 Ho881 2.811 . S
C892 C893 1.488 . S
C892 O908 1.215 . S
C892 O909 1.289 . S
C893 C892 1.488 . S
C893 C894 1.348 . S
C893 C898 1.413 . S
C894 C893 1.348 . S
C894 C895 1.442 . S
C894 H916 0.930 . S
C895 C894 1.442 . S
C895 C896 1.381 1_655 S
C895 H917 0.931 . S
C896 C895 1.381 1_455 S
C896 C897 1.321 . S
C897 C896 1.321 . S
C897 C898 1.403 1_455 S
C897 H918 0.934 . S
C898 C893 1.413 . S
C898 C897 1.403 1_655 S
C898 H919 0.930 . S
C899 O910 1.275 . S
C899 O911 1.256 . S
O900 Ho880 2.322 . S
O900 C882 1.259 . S
O901 Ho881 2.346 . S
O901 C882 1.268 . S
O902 Ho880 2.378 . S
O902 C883 1.215 . S
O903 Ho880 2.524 . S
O903 C883 1.289 . S
O904 Ho880 2.381 . S
O904 C890 1.275 . S
O905 Ho880 2.669 . S
O905 Ho881 2.305 . S
O905 C890 1.256 . S
O906 Ho881 2.322 . S
O906 C891 1.259 . S
O907 Ho880 2.346 . S
O907 C891 1.268 . S
O908 Ho881 2.378 . S
O908 C892 1.215 . S
O909 Ho881 2.524 . S
O909 C892 1.289 . S
O910 Ho881 2.381 . S
O910 C899 1.275 . S
O911 Ho880 2.305 . S
O911 Ho881 2.669 . S
O911 C899 1.256 . S
H912 C885 0.930 . S
H913 C886 0.931 . S
H914 C888 0.934 . S
H915 C889 0.930 . S
H916 C894 0.930 . S
H917 C895 0.931 . S
H918 C897 0.934 . S
H919 C898 0.930 . S
Ho920 C923 2.811 . S
Ho920 O940 2.322 . S
Ho920 O942 2.378 . S
Ho920 O943 2.524 . S
Ho920 O944 2.381 . S
Ho920 O945 2.669 . S
Ho920 O947 2.346 . S
Ho920 O951 2.305 . S
Ho921 C932 2.811 . S
Ho921 O941 2.346 . S
Ho921 O945 2.305 . S
Ho921 O946 2.322 . S
Ho921 O948 2.378 . S
Ho921 O949 2.524 . S
Ho921 O950 2.381 . S
Ho921 O951 2.669 . S
C922 O940 1.259 . S
C922 O941 1.268 . S
C923 Ho920 2.811 . S
C923 C924 1.488 . S
C923 O942 1.215 . S
C923 O943 1.289 . S
C924 C923 1.488 . S
C924 C925 1.348 . S
C924 C929 1.413 . S
C925 C924 1.348 . S
C925 C926 1.442 . S
C925 H952 0.930 . S
C926 C925 1.442 . S
C926 C927 1.381 . S
C926 H953 0.931 . S
C927 C926 1.381 . S
C927 C928 1.321 . S
C928 C927 1.321 . S
C928 C929 1.403 . S
C928 H954 0.934 . S
C929 C924 1.413 . S
C929 C928 1.403 . S
C929 H955 0.930 . S
C930 O944 1.275 . S
C930 O945 1.256 . S
C931 O946 1.259 . S
C931 O947 1.268 . S
C932 Ho921 2.811 . S
C932 C933 1.488 . S
C932 O948 1.215 . S
C932 O949 1.289 . S
C933 C932 1.488 . S
C933 C934 1.348 . S
C933 C938 1.413 . S
C934 C933 1.348 . S
C934 C935 1.442 . S
C934 H956 0.930 . S
C935 C934 1.442 . S
C935 C936 1.381 . S
C935 H957 0.931 . S
C936 C935 1.381 . S
C936 C937 1.321 . S
C937 C936 1.321 . S
C937 C938 1.403 . S
C937 H958 0.934 . S
C938 C933 1.413 . S
C938 C937 1.403 . S
C938 H959 0.930 . S
C939 O950 1.275 . S
C939 O951 1.256 . S
O940 Ho920 2.322 . S
O940 C922 1.259 . S
O941 Ho921 2.346 . S
O941 C922 1.268 . S
O942 Ho920 2.378 . S
O942 C923 1.215 . S
O943 Ho920 2.524 . S
O943 C923 1.289 . S
O944 Ho920 2.381 . S
O944 C930 1.275 . S
O945 Ho920 2.669 . S
O945 Ho921 2.305 . S
O945 C930 1.256 . S
O946 Ho921 2.322 . S
O946 C931 1.259 . S
O947 Ho920 2.346 . S
O947 C931 1.268 . S
O948 Ho921 2.378 . S
O948 C932 1.215 . S
O949 Ho921 2.524 . S
O949 C932 1.289 . S
O950 Ho921 2.381 . S
O950 C939 1.275 . S
O951 Ho920 2.305 . S
O951 Ho921 2.669 . S
O951 C939 1.256 . S
H952 C925 0.930 . S
H953 C926 0.931 . S
H954 C928 0.934 . S
H955 C929 0.930 . S
H956 C934 0.930 . S
H957 C935 0.931 . S
H958 C937 0.934 . S
H959 C938 0.930 . S
Ho960 C963 2.811 . S
Ho960 O980 2.322 . S
Ho960 O982 2.378 . S
Ho960 O983 2.524 . S
Ho960 O984 2.381 . S
Ho960 O985 2.669 . S
Ho960 O987 2.346 . S
Ho960 O991 2.305 . S
Ho961 C972 2.811 . S
Ho961 O981 2.346 . S
Ho961 O985 2.305 . S
Ho961 O986 2.322 . S
Ho961 O988 2.378 . S
Ho961 O989 2.524 . S
Ho961 O990 2.381 . S
Ho961 O991 2.669 . S
C962 O980 1.259 . S
C962 O981 1.268 . S
C963 Ho960 2.811 . S
C963 C964 1.488 . S
C963 O982 1.215 . S
C963 O983 1.289 . S
C964 C963 1.488 . S
C964 C965 1.348 . S
C964 C969 1.413 . S
C965 C964 1.348 . S
C965 C966 1.442 . S
C965 H992 0.930 . S
C966 C965 1.442 . S
C966 C967 1.381 . S
C966 H993 0.931 . S
C967 C966 1.381 . S
C967 C968 1.321 . S
C968 C967 1.321 . S
C968 C969 1.403 . S
C968 H994 0.934 . S
C969 C964 1.413 . S
C969 C968 1.403 . S
C969 H995 0.930 . S
C970 O984 1.275 . S
C970 O985 1.256 . S
C971 O986 1.259 . S
C971 O987 1.268 . S
C972 Ho961 2.811 . S
C972 C973 1.488 . S
C972 O988 1.215 . S
C972 O989 1.289 . S
C973 C972 1.488 . S
C973 C974 1.348 . S
C973 C978 1.413 . S
C974 C973 1.348 . S
C974 C975 1.442 . S
C974 H996 0.930 . S
C975 C974 1.442 . S
C975 C976 1.381 . S
C975 H997 0.931 . S
C976 C975 1.381 . S
C976 C977 1.321 . S
C977 C976 1.321 . S
C977 C978 1.403 . S
C977 H998 0.934 . S
C978 C973 1.413 . S
C978 C977 1.403 . S
C978 H999 0.930 . S
C979 O990 1.275 . S
C979 O991 1.256 . S
O980 Ho960 2.322 . S
O980 C962 1.259 . S
O981 Ho961 2.346 . S
O981 C962 1.268 . S
O982 Ho960 2.378 . S
O982 C963 1.215 . S
O983 Ho960 2.524 . S
O983 C963 1.289 . S
O984 Ho960 2.381 . S
O984 C970 1.275 . S
O985 Ho960 2.669 . S
O985 Ho961 2.305 . S
O985 C970 1.256 . S
O986 Ho961 2.322 . S
O986 C971 1.259 . S
O987 Ho960 2.346 . S
O987 C971 1.268 . S
O988 Ho961 2.378 . S
O988 C972 1.215 . S
O989 Ho961 2.524 . S
O989 C972 1.289 . S
O990 Ho961 2.381 . S
O990 C979 1.275 . S
O991 Ho960 2.305 . S
O991 Ho961 2.669 . S
O991 C979 1.256 . S
H992 C965 0.930 . S
H993 C966 0.931 . S
H994 C968 0.934 . S
H995 C969 0.930 . S
H996 C974 0.930 . S
H997 C975 0.931 . S
H998 C977 0.934 . S
H999 C978 0.930 . S
Ho1000 C1003 2.811 . S
Ho1000 O1020 2.322 . S
Ho1000 O1022 2.378 . S
Ho1000 O1023 2.524 . S
Ho1000 O1024 2.381 . S
Ho1000 O1025 2.669 . S
Ho1000 O1027 2.346 1_556 S
Ho1000 O1031 2.305 . S
Ho1001 C1012 2.811 1_556 S
Ho1001 O1021 2.346 . S
Ho1001 O1025 2.305 . S
Ho1001 O1026 2.322 1_556 S
Ho1001 O1028 2.378 1_556 S
Ho1001 O1029 2.524 1_556 S
Ho1001 O1030 2.381 . S
Ho1001 O1031 2.669 . S
C1002 O1020 1.259 . S
C1002 O1021 1.268 . S
C1003 Ho1000 2.811 . S
C1003 C1004 1.488 . S
C1003 O1022 1.215 . S
C1003 O1023 1.289 . S
C1004 C1003 1.488 . S
C1004 C1005 1.348 . S
C1004 C1009 1.413 . S
C1005 C1004 1.348 . S
C1005 C1006 1.442 . S
C1005 H1032 0.930 . S
C1006 C1005 1.442 . S
C1006 C1007 1.381 . S
C1006 H1033 0.931 . S
C1007 C1006 1.381 . S
C1007 C1008 1.321 . S
C1008 C1007 1.321 . S
C1008 C1009 1.403 . S
C1008 H1034 0.934 . S
C1009 C1004 1.413 . S
C1009 C1008 1.403 . S
C1009 H1035 0.930 . S
C1010 O1024 1.275 1_554 S
C1010 O1025 1.256 1_554 S
C1011 O1026 1.259 . S
C1011 O1027 1.268 . S
C1012 Ho1001 2.811 1_554 S
C1012 C1013 1.488 . S
C1012 O1028 1.215 . S
C1012 O1029 1.289 . S
C1013 C1012 1.488 . S
C1013 C1014 1.348 . S
C1013 C1018 1.413 . S
C1014 C1013 1.348 . S
C1014 C1015 1.442 . S
C1014 H1036 0.930 . S
C1015 C1014 1.442 . S
C1015 C1016 1.381 . S
C1015 H1037 0.931 . S
C1016 C1015 1.381 . S
C1016 C1017 1.321 . S
C1017 C1016 1.321 . S
C1017 C1018 1.403 . S
C1017 H1038 0.934 . S
C1018 C1013 1.413 . S
C1018 C1017 1.403 . S
C1018 H1039 0.930 . S
C1019 O1030 1.275 . S
C1019 O1031 1.256 . S
O1020 Ho1000 2.322 . S
O1020 C1002 1.259 . S
O1021 Ho1001 2.346 . S
O1021 C1002 1.268 . S
O1022 Ho1000 2.378 . S
O1022 C1003 1.215 . S
O1023 Ho1000 2.524 . S
O1023 C1003 1.289 . S
O1024 Ho1000 2.381 . S
O1024 C1010 1.275 1_556 S
O1025 Ho1000 2.669 . S
O1025 Ho1001 2.305 . S
O1025 C1010 1.256 1_556 S
O1026 Ho1001 2.322 1_554 S
O1026 C1011 1.259 . S
O1027 Ho1000 2.346 1_554 S
O1027 C1011 1.268 . S
O1028 Ho1001 2.378 1_554 S
O1028 C1012 1.215 . S
O1029 Ho1001 2.524 1_554 S
O1029 C1012 1.289 . S
O1030 Ho1001 2.381 . S
O1030 C1019 1.275 . S
O1031 Ho1000 2.305 . S
O1031 Ho1001 2.669 . S
O1031 C1019 1.256 . S
H1032 C1005 0.930 . S
H1033 C1006 0.931 . S
H1034 C1008 0.934 . S
H1035 C1009 0.930 . S
H1036 C1014 0.930 . S
H1037 C1015 0.931 . S
H1038 C1017 0.934 . S
H1039 C1018 0.930 . S
Ho1040 C1043 2.811 . S
Ho1040 O1060 2.322 . S
Ho1040 O1062 2.378 . S
Ho1040 O1063 2.524 . S
Ho1040 O1064 2.381 . S
Ho1040 O1065 2.669 . S
Ho1040 O1067 2.346 . S
Ho1040 O1071 2.305 . S
Ho1041 C1052 2.811 . S
Ho1041 O1061 2.346 . S
Ho1041 O1065 2.305 . S
Ho1041 O1066 2.322 . S
Ho1041 O1068 2.378 . S
Ho1041 O1069 2.524 . S
Ho1041 O1070 2.381 . S
Ho1041 O1071 2.669 . S
C1042 O1060 1.259 . S
C1042 O1061 1.268 . S
C1043 Ho1040 2.811 . S
C1043 C1044 1.488 . S
C1043 O1062 1.215 . S
C1043 O1063 1.289 . S
C1044 C1043 1.488 . S
C1044 C1045 1.348 . S
C1044 C1049 1.413 . S
C1045 C1044 1.348 . S
C1045 C1046 1.442 . S
C1045 H1072 0.930 . S
C1046 C1045 1.442 . S
C1046 C1047 1.381 1_455 S
C1046 H1073 0.931 . S
C1047 C1046 1.381 1_655 S
C1047 C1048 1.321 . S
C1048 C1047 1.321 . S
C1048 C1049 1.403 1_655 S
C1048 H1074 0.934 . S
C1049 C1044 1.413 . S
C1049 C1048 1.403 1_455 S
C1049 H1075 0.930 . S
C1050 O1064 1.275 . S
C1050 O1065 1.256 . S
C1051 O1066 1.259 . S
C1051 O1067 1.268 . S
C1052 Ho1041 2.811 . S
C1052 C1053 1.488 . S
C1052 O1068 1.215 . S
C1052 O1069 1.289 . S
C1053 C1052 1.488 . S
C1053 C1054 1.348 . S
C1053 C1058 1.413 . S
C1054 C1053 1.348 . S
C1054 C1055 1.442 . S
C1054 H1076 0.930 . S
C1055 C1054 1.442 . S
C1055 C1056 1.381 . S
C1055 H1077 0.931 . S
C1056 C1055 1.381 . S
C1056 C1057 1.321 . S
C1057 C1056 1.321 . S
C1057 C1058 1.403 . S
C1057 H1078 0.934 . S
C1058 C1053 1.413 . S
C1058 C1057 1.403 . S
C1058 H1079 0.930 . S
C1059 O1070 1.275 . S
C1059 O1071 1.256 . S
O1060 Ho1040 2.322 . S
O1060 C1042 1.259 . S
O1061 Ho1041 2.346 . S
O1061 C1042 1.268 . S
O1062 Ho1040 2.378 . S
O1062 C1043 1.215 . S
O1063 Ho1040 2.524 . S
O1063 C1043 1.289 . S
O1064 Ho1040 2.381 . S
O1064 C1050 1.275 . S
O1065 Ho1040 2.669 . S
O1065 Ho1041 2.305 . S
O1065 C1050 1.256 . S
O1066 Ho1041 2.322 . S
O1066 C1051 1.259 . S
O1067 Ho1040 2.346 . S
O1067 C1051 1.268 . S
O1068 Ho1041 2.378 . S
O1068 C1052 1.215 . S
O1069 Ho1041 2.524 . S
O1069 C1052 1.289 . S
O1070 Ho1041 2.381 . S
O1070 C1059 1.275 . S
O1071 Ho1040 2.305 . S
O1071 Ho1041 2.669 . S
O1071 C1059 1.256 . S
H1072 C1045 0.930 . S
H1073 C1046 0.931 . S
H1074 C1048 0.934 . S
H1075 C1049 0.930 . S
H1076 C1054 0.930 . S
H1077 C1055 0.931 . S
H1078 C1057 0.934 . S
H1079 C1058 0.930 . S
Ho1080 C1083 2.811 . S
Ho1080 O1100 2.322 . S
Ho1080 O1102 2.378 . S
Ho1080 O1103 2.524 . S
Ho1080 O1104 2.381 . S
Ho1080 O1105 2.669 . S
Ho1080 O1107 2.346 . S
Ho1080 O1111 2.305 . S
Ho1081 C1092 2.811 . S
Ho1081 O1101 2.346 . S
Ho1081 O1105 2.305 . S
Ho1081 O1106 2.322 . S
Ho1081 O1108 2.378 . S
Ho1081 O1109 2.524 . S
Ho1081 O1110 2.381 . S
Ho1081 O1111 2.669 . S
C1082 O1100 1.259 . S
C1082 O1101 1.268 . S
C1083 Ho1080 2.811 . S
C1083 C1084 1.488 . S
C1083 O1102 1.215 . S
C1083 O1103 1.289 . S
C1084 C1083 1.488 . S
C1084 C1085 1.348 . S
C1084 C1089 1.413 . S
C1085 C1084 1.348 . S
C1085 C1086 1.442 . S
C1085 H1112 0.930 . S
C1086 C1085 1.442 . S
C1086 C1087 1.381 . S
C1086 H1113 0.931 . S
C1087 C1086 1.381 . S
C1087 C1088 1.321 . S
C1088 C1087 1.321 . S
C1088 C1089 1.403 . S
C1088 H1114 0.934 . S
C1089 C1084 1.413 . S
C1089 C1088 1.403 . S
C1089 H1115 0.930 . S
C1090 O1104 1.275 . S
C1090 O1105 1.256 . S
C1091 O1106 1.259 . S
C1091 O1107 1.268 . S
C1092 Ho1081 2.811 . S
C1092 C1093 1.488 . S
C1092 O1108 1.215 . S
C1092 O1109 1.289 . S
C1093 C1092 1.488 . S
C1093 C1094 1.348 . S
C1093 C1098 1.413 . S
C1094 C1093 1.348 . S
C1094 C1095 1.442 . S
C1094 H1116 0.930 . S
C1095 C1094 1.442 . S
C1095 C1096 1.381 . S
C1095 H1117 0.931 . S
C1096 C1095 1.381 . S
C1096 C1097 1.321 . S
C1097 C1096 1.321 . S
C1097 C1098 1.403 . S
C1097 H1118 0.934 . S
C1098 C1093 1.413 . S
C1098 C1097 1.403 . S
C1098 H1119 0.930 . S
C1099 O1110 1.275 . S
C1099 O1111 1.256 . S
O1100 Ho1080 2.322 . S
O1100 C1082 1.259 . S
O1101 Ho1081 2.346 . S
O1101 C1082 1.268 . S
O1102 Ho1080 2.378 . S
O1102 C1083 1.215 . S
O1103 Ho1080 2.524 . S
O1103 C1083 1.289 . S
O1104 Ho1080 2.381 . S
O1104 C1090 1.275 . S
O1105 Ho1080 2.669 . S
O1105 Ho1081 2.305 . S
O1105 C1090 1.256 . S
O1106 Ho1081 2.322 . S
O1106 C1091 1.259 . S
O1107 Ho1080 2.346 . S
O1107 C1091 1.268 . S
O1108 Ho1081 2.378 . S
O1108 C1092 1.215 . S
O1109 Ho1081 2.524 . S
O1109 C1092 1.289 . S
O1110 Ho1081 2.381 . S
O1110 C1099 1.275 . S
O1111 Ho1080 2.305 . S
O1111 Ho1081 2.669 . S
O1111 C1099 1.256 . S
H1112 C1085 0.930 . S
H1113 C1086 0.931 . S
H1114 C1088 0.934 . S
H1115 C1089 0.930 . S
H1116 C1094 0.930 . S
H1117 C1095 0.931 . S
H1118 C1097 0.934 . S
H1119 C1098 0.930 . S
Ho1120 C1123 2.811 . S
Ho1120 O1140 2.322 . S
Ho1120 O1142 2.378 . S
Ho1120 O1143 2.524 . S
Ho1120 O1144 2.381 . S
Ho1120 O1145 2.669 . S
Ho1120 O1147 2.346 . S
Ho1120 O1151 2.305 . S
Ho1121 C1132 2.811 . S
Ho1121 O1141 2.346 . S
Ho1121 O1145 2.305 . S
Ho1121 O1146 2.322 . S
Ho1121 O1148 2.378 . S
Ho1121 O1149 2.524 . S
Ho1121 O1150 2.381 . S
Ho1121 O1151 2.669 . S
C1122 O1140 1.259 . S
C1122 O1141 1.268 . S
C1123 Ho1120 2.811 . S
C1123 C1124 1.488 . S
C1123 O1142 1.215 . S
C1123 O1143 1.289 . S
C1124 C1123 1.488 . S
C1124 C1125 1.348 . S
C1124 C1129 1.413 . S
C1125 C1124 1.348 . S
C1125 C1126 1.442 . S
C1125 H1152 0.930 . S
C1126 C1125 1.442 . S
C1126 C1127 1.381 . S
C1126 H1153 0.931 . S
C1127 C1126 1.381 . S
C1127 C1128 1.321 . S
C1128 C1127 1.321 . S
C1128 C1129 1.403 . S
C1128 H1154 0.934 . S
C1129 C1124 1.413 . S
C1129 C1128 1.403 . S
C1129 H1155 0.930 . S
C1130 O1144 1.275 . S
C1130 O1145 1.256 . S
C1131 O1146 1.259 . S
C1131 O1147 1.268 . S
C1132 Ho1121 2.811 . S
C1132 C1133 1.488 . S
C1132 O1148 1.215 . S
C1132 O1149 1.289 . S
C1133 C1132 1.488 . S
C1133 C1134 1.348 . S
C1133 C1138 1.413 . S
C1134 C1133 1.348 . S
C1134 C1135 1.442 . S
C1134 H1156 0.930 . S
C1135 C1134 1.442 . S
C1135 C1136 1.381 . S
C1135 H1157 0.931 . S
C1136 C1135 1.381 . S
C1136 C1137 1.321 . S
C1137 C1136 1.321 . S
C1137 C1138 1.403 . S
C1137 H1158 0.934 . S
C1138 C1133 1.413 . S
C1138 C1137 1.403 . S
C1138 H1159 0.930 . S
C1139 O1150 1.275 . S
C1139 O1151 1.256 . S
O1140 Ho1120 2.322 . S
O1140 C1122 1.259 . S
O1141 Ho1121 2.346 . S
O1141 C1122 1.268 . S
O1142 Ho1120 2.378 . S
O1142 C1123 1.215 . S
O1143 Ho1120 2.524 . S
O1143 C1123 1.289 . S
O1144 Ho1120 2.381 . S
O1144 C1130 1.275 . S
O1145 Ho1120 2.669 . S
O1145 Ho1121 2.305 . S
O1145 C1130 1.256 . S
O1146 Ho1121 2.322 . S
O1146 C1131 1.259 . S
O1147 Ho1120 2.346 . S
O1147 C1131 1.268 . S
O1148 Ho1121 2.378 . S
O1148 C1132 1.215 . S
O1149 Ho1121 2.524 . S
O1149 C1132 1.289 . S
O1150 Ho1121 2.381 . S
O1150 C1139 1.275 . S
O1151 Ho1120 2.305 . S
O1151 Ho1121 2.669 . S
O1151 C1139 1.256 . S
H1152 C1125 0.930 . S
H1153 C1126 0.931 . S
H1154 C1128 0.934 . S
H1155 C1129 0.930 . S
H1156 C1134 0.930 . S
H1157 C1135 0.931 . S
H1158 C1137 0.934 . S
H1159 C1138 0.930 . S
Ho1160 C1163 2.811 . S
Ho1160 O1180 2.322 . S
Ho1160 O1182 2.378 . S
Ho1160 O1183 2.524 . S
Ho1160 O1184 2.381 . S
Ho1160 O1185 2.669 . S
Ho1160 O1187 2.346 1_554 S
Ho1160 O1191 2.305 . S
Ho1161 C1172 2.811 1_554 S
Ho1161 O1181 2.346 . S
Ho1161 O1185 2.305 . S
Ho1161 O1186 2.322 1_554 S
Ho1161 O1188 2.378 1_554 S
Ho1161 O1189 2.524 1_554 S
Ho1161 O1190 2.381 . S
Ho1161 O1191 2.669 . S
C1162 O1180 1.259 . S
C1162 O1181 1.268 . S
C1163 Ho1160 2.811 . S
C1163 C1164 1.488 . S
C1163 O1182 1.215 . S
C1163 O1183 1.289 . S
C1164 C1163 1.488 . S
C1164 C1165 1.348 . S
C1164 C1169 1.413 . S
C1165 C1164 1.348 . S
C1165 C1166 1.442 . S
C1165 H1192 0.930 . S
C1166 C1165 1.442 . S
C1166 C1167 1.381 . S
C1166 H1193 0.931 . S
C1167 C1166 1.381 . S
C1167 C1168 1.321 . S
C1168 C1167 1.321 . S
C1168 C1169 1.403 . S
C1168 H1194 0.934 . S
C1169 C1164 1.413 . S
C1169 C1168 1.403 . S
C1169 H1195 0.930 . S
C1170 O1184 1.275 1_556 S
C1170 O1185 1.256 1_556 S
C1171 O1186 1.259 . S
C1171 O1187 1.268 . S
C1172 Ho1161 2.811 1_556 S
C1172 C1173 1.488 . S
C1172 O1188 1.215 . S
C1172 O1189 1.289 . S
C1173 C1172 1.488 . S
C1173 C1174 1.348 . S
C1173 C1178 1.413 . S
C1174 C1173 1.348 . S
C1174 C1175 1.442 . S
C1174 H1196 0.930 . S
C1175 C1174 1.442 . S
C1175 C1176 1.381 . S
C1175 H1197 0.931 . S
C1176 C1175 1.381 . S
C1176 C1177 1.321 . S
C1177 C1176 1.321 . S
C1177 C1178 1.403 . S
C1177 H1198 0.934 . S
C1178 C1173 1.413 . S
C1178 C1177 1.403 . S
C1178 H1199 0.930 . S
C1179 O1190 1.275 . S
C1179 O1191 1.256 . S
O1180 Ho1160 2.322 . S
O1180 C1162 1.259 . S
O1181 Ho1161 2.346 . S
O1181 C1162 1.268 . S
O1182 Ho1160 2.378 . S
O1182 C1163 1.215 . S
O1183 Ho1160 2.524 . S
O1183 C1163 1.289 . S
O1184 Ho1160 2.381 . S
O1184 C1170 1.275 1_554 S
O1185 Ho1160 2.669 . S
O1185 Ho1161 2.305 . S
O1185 C1170 1.256 1_554 S
O1186 Ho1161 2.322 1_556 S
O1186 C1171 1.259 . S
O1187 Ho1160 2.346 1_556 S
O1187 C1171 1.268 . S
O1188 Ho1161 2.378 1_556 S
O1188 C1172 1.215 . S
O1189 Ho1161 2.524 1_556 S
O1189 C1172 1.289 . S
O1190 Ho1161 2.381 . S
O1190 C1179 1.275 . S
O1191 Ho1160 2.305 . S
O1191 Ho1161 2.669 . S
O1191 C1179 1.256 . S
H1192 C1165 0.930 . S
H1193 C1166 0.931 . S
H1194 C1168 0.934 . S
H1195 C1169 0.930 . S
H1196 C1174 0.930 . S
H1197 C1175 0.931 . S
H1198 C1177 0.934 . S
H1199 C1178 0.930 . S
Ho1200 C1203 2.811 . S
Ho1200 O1220 2.322 . S
Ho1200 O1222 2.378 . S
Ho1200 O1223 2.524 . S
Ho1200 O1224 2.381 . S
Ho1200 O1225 2.669 . S
Ho1200 O1227 2.346 . S
Ho1200 O1231 2.305 . S
Ho1201 C1212 2.811 . S
Ho1201 O1221 2.346 . S
Ho1201 O1225 2.305 . S
Ho1201 O1226 2.322 . S
Ho1201 O1228 2.378 . S
Ho1201 O1229 2.524 . S
Ho1201 O1230 2.381 . S
Ho1201 O1231 2.669 . S
C1202 O1220 1.259 . S
C1202 O1221 1.268 . S
C1203 Ho1200 2.811 . S
C1203 C1204 1.488 . S
C1203 O1222 1.215 . S
C1203 O1223 1.289 . S
C1204 C1203 1.488 . S
C1204 C1205 1.348 . S
C1204 C1209 1.413 . S
C1205 C1204 1.348 . S
C1205 C1206 1.442 . S
C1205 H1232 0.930 . S
C1206 C1205 1.442 . S
C1206 C1207 1.381 1_455 S
C1206 H1233 0.931 . S
C1207 C1206 1.381 1_655 S
C1207 C1208 1.321 . S
C1208 C1207 1.321 . S
C1208 C1209 1.403 1_655 S
C1208 H1234 0.934 . S
C1209 C1204 1.413 . S
C1209 C1208 1.403 1_455 S
C1209 H1235 0.930 . S
C1210 O1224 1.275 . S
C1210 O1225 1.256 . S
C1211 O1226 1.259 . S
C1211 O1227 1.268 . S
C1212 Ho1201 2.811 . S
C1212 C1213 1.488 . S
C1212 O1228 1.215 . S
C1212 O1229 1.289 . S
C1213 C1212 1.488 . S
C1213 C1214 1.348 . S
C1213 C1218 1.413 . S
C1214 C1213 1.348 . S
C1214 C1215 1.442 . S
C1214 H1236 0.930 . S
C1215 C1214 1.442 . S
C1215 C1216 1.381 . S
C1215 H1237 0.931 . S
C1216 C1215 1.381 . S
C1216 C1217 1.321 . S
C1217 C1216 1.321 . S
C1217 C1218 1.403 . S
C1217 H1238 0.934 . S
C1218 C1213 1.413 . S
C1218 C1217 1.403 . S
C1218 H1239 0.930 . S
C1219 O1230 1.275 . S
C1219 O1231 1.256 . S
O1220 Ho1200 2.322 . S
O1220 C1202 1.259 . S
O1221 Ho1201 2.346 . S
O1221 C1202 1.268 . S
O1222 Ho1200 2.378 . S
O1222 C1203 1.215 . S
O1223 Ho1200 2.524 . S
O1223 C1203 1.289 . S
O1224 Ho1200 2.381 . S
O1224 C1210 1.275 . S
O1225 Ho1200 2.669 . S
O1225 Ho1201 2.305 . S
O1225 C1210 1.256 . S
O1226 Ho1201 2.322 . S
O1226 C1211 1.259 . S
O1227 Ho1200 2.346 . S
O1227 C1211 1.268 . S
O1228 Ho1201 2.378 . S
O1228 C1212 1.215 . S
O1229 Ho1201 2.524 . S
O1229 C1212 1.289 . S
O1230 Ho1201 2.381 . S
O1230 C1219 1.275 . S
O1231 Ho1200 2.305 . S
O1231 Ho1201 2.669 . S
O1231 C1219 1.256 . S
H1232 C1205 0.930 . S
H1233 C1206 0.931 . S
H1234 C1208 0.934 . S
H1235 C1209 0.930 . S
H1236 C1214 0.930 . S
H1237 C1215 0.931 . S
H1238 C1217 0.934 . S
H1239 C1218 0.930 . S
Ho1240 C1243 2.811 . S
Ho1240 O1260 2.322 . S
Ho1240 O1262 2.378 . S
Ho1240 O1263 2.524 . S
Ho1240 O1264 2.381 . S
Ho1240 O1265 2.669 . S
Ho1240 O1267 2.346 . S
Ho1240 O1271 2.305 . S
Ho1241 C1252 2.811 . S
Ho1241 O1261 2.346 . S
Ho1241 O1265 2.305 . S
Ho1241 O1266 2.322 . S
Ho1241 O1268 2.378 . S
Ho1241 O1269 2.524 . S
Ho1241 O1270 2.381 . S
Ho1241 O1271 2.669 . S
C1242 O1260 1.259 . S
C1242 O1261 1.268 . S
C1243 Ho1240 2.811 . S
C1243 C1244 1.488 . S
C1243 O1262 1.215 . S
C1243 O1263 1.289 . S
C1244 C1243 1.488 . S
C1244 C1245 1.348 . S
C1244 C1249 1.413 . S
C1245 C1244 1.348 . S
C1245 C1246 1.442 . S
C1245 H1272 0.930 . S
C1246 C1245 1.442 . S
C1246 C1247 1.381 . S
C1246 H1273 0.931 . S
C1247 C1246 1.381 . S
C1247 C1248 1.321 . S
C1248 C1247 1.321 . S
C1248 C1249 1.403 . S
C1248 H1274 0.934 . S
C1249 C1244 1.413 . S
C1249 C1248 1.403 . S
C1249 H1275 0.930 . S
C1250 O1264 1.275 . S
C1250 O1265 1.256 . S
C1251 O1266 1.259 . S
C1251 O1267 1.268 . S
C1252 Ho1241 2.811 . S
C1252 C1253 1.488 . S
C1252 O1268 1.215 . S
C1252 O1269 1.289 . S
C1253 C1252 1.488 . S
C1253 C1254 1.348 . S
C1253 C1258 1.413 . S
C1254 C1253 1.348 . S
C1254 C1255 1.442 . S
C1254 H1276 0.930 . S
C1255 C1254 1.442 . S
C1255 C1256 1.381 . S
C1255 H1277 0.931 . S
C1256 C1255 1.381 . S
C1256 C1257 1.321 . S
C1257 C1256 1.321 . S
C1257 C1258 1.403 . S
C1257 H1278 0.934 . S
C1258 C1253 1.413 . S
C1258 C1257 1.403 . S
C1258 H1279 0.930 . S
C1259 O1270 1.275 . S
C1259 O1271 1.256 . S
O1260 Ho1240 2.322 . S
O1260 C1242 1.259 . S
O1261 Ho1241 2.346 . S
O1261 C1242 1.268 . S
O1262 Ho1240 2.378 . S
O1262 C1243 1.215 . S
O1263 Ho1240 2.524 . S
O1263 C1243 1.289 . S
O1264 Ho1240 2.381 . S
O1264 C1250 1.275 . S
O1265 Ho1240 2.669 . S
O1265 Ho1241 2.305 . S
O1265 C1250 1.256 . S
O1266 Ho1241 2.322 . S
O1266 C1251 1.259 . S
O1267 Ho1240 2.346 . S
O1267 C1251 1.268 . S
O1268 Ho1241 2.378 . S
O1268 C1252 1.215 . S
O1269 Ho1241 2.524 . S
O1269 C1252 1.289 . S
O1270 Ho1241 2.381 . S
O1270 C1259 1.275 . S
O1271 Ho1240 2.305 . S
O1271 Ho1241 2.669 . S
O1271 C1259 1.256 . S
H1272 C1245 0.930 . S
H1273 C1246 0.931 . S
H1274 C1248 0.934 . S
H1275 C1249 0.930 . S
H1276 C1254 0.930 . S
H1277 C1255 0.931 . S
H1278 C1257 0.934 . S
H1279 C1258 0.930 . S
C1280 C1281 1.363 . S
C1280 C1286 1.379 . S
C1280 N1288 1.356 . S
C1281 C1280 1.363 . S
C1281 C1287 1.363 . S
C1282 C1283 1.363 . S
C1282 C1287 1.379 . S
C1282 N1289 1.356 . S
C1283 C1282 1.363 . S
C1283 C1286 1.363 . S
N1284 C1286 1.356 . S
N1284 H1296 0.984 . S
N1284 H1297 0.985 . S
N1285 C1287 1.356 . S
N1285 H1290 0.984 . S
N1285 H1291 0.985 . S
C1286 C1280 1.379 . S
C1286 C1283 1.363 . S
C1286 N1284 1.356 . S
C1287 C1281 1.363 . S
C1287 C1282 1.379 . S
C1287 N1285 1.356 . S
N1288 C1280 1.356 . S
N1288 H1294 0.984 . S
N1288 H1295 0.984 . S
N1289 C1282 1.356 . S
N1289 H1292 0.984 . S
N1289 H1293 0.985 . S
H1290 N1285 0.984 . S
H1291 N1285 0.985 . S
H1292 N1289 0.984 . S
H1293 N1289 0.985 . S
H1294 N1288 0.984 . S
H1295 N1288 0.984 . S
H1296 N1284 0.984 . S
H1297 N1284 0.985 . S
C1298 C1299 1.363 . S
C1298 C1304 1.379 . S
C1298 N1306 1.356 . S
C1299 C1298 1.363 . S
C1299 C1305 1.363 . S
C1300 C1301 1.363 . S
C1300 C1305 1.379 . S
C1300 N1307 1.356 . S
C1301 C1300 1.363 . S
C1301 C1304 1.363 . S
N1302 C1304 1.356 1_565 S
N1302 H1314 0.984 . S
N1302 H1315 0.985 . S
N1303 C1305 1.356 . S
N1303 H1308 0.984 . S
N1303 H1309 0.985 . S
C1304 C1298 1.379 . S
C1304 C1301 1.363 . S
C1304 N1302 1.356 1_545 S
C1305 C1299 1.363 . S
C1305 C1300 1.379 . S
C1305 N1303 1.356 . S
N1306 C1298 1.356 . S
N1306 H1312 0.984 . S
N1306 H1313 0.984 . S
N1307 C1300 1.356 . S
N1307 H1310 0.984 . S
N1307 H1311 0.985 . S
H1308 N1303 0.984 . S
H1309 N1303 0.985 . S
H1310 N1307 0.984 . S
H1311 N1307 0.985 . S
H1312 N1306 0.984 . S
H1313 N1306 0.984 . S
H1314 N1302 0.984 . S
H1315 N1302 0.985 . S
C1316 C1317 1.363 . S
C1316 C1322 1.379 . S
C1316 N1324 1.356 . S
C1317 C1316 1.363 . S
C1317 C1323 1.363 . S
C1318 C1319 1.363 . S
C1318 C1323 1.379 . S
C1318 N1325 1.356 . S
C1319 C1318 1.363 . S
C1319 C1322 1.363 . S
N1320 C1322 1.356 . S
N1320 H1332 0.984 . S
N1320 H1333 0.985 . S
N1321 C1323 1.356 . S
N1321 H1326 0.984 . S
N1321 H1327 0.985 . S
C1322 C1316 1.379 . S
C1322 C1319 1.363 . S
C1322 N1320 1.356 . S
C1323 C1317 1.363 . S
C1323 C1318 1.379 . S
C1323 N1321 1.356 . S
N1324 C1316 1.356 . S
N1324 H1330 0.984 . S
N1324 H1331 0.984 . S
N1325 C1318 1.356 . S
N1325 H1328 0.984 . S
N1325 H1329 0.985 . S
H1326 N1321 0.984 . S
H1327 N1321 0.985 . S
H1328 N1325 0.984 . S
H1329 N1325 0.985 . S
H1330 N1324 0.984 . S
H1331 N1324 0.984 . S
H1332 N1320 0.984 . S
H1333 N1320 0.985 . S
C1334 C1335 1.363 . S
C1334 C1340 1.379 . S
C1334 N1342 1.356 . S
C1335 C1334 1.363 . S
C1335 C1341 1.363 . S
C1336 C1337 1.363 . S
C1336 C1341 1.379 . S
C1336 N1343 1.356 . S
C1337 C1336 1.363 . S
C1337 C1340 1.363 . S
N1338 C1340 1.356 . S
N1338 H1350 0.984 . S
N1338 H1351 0.985 . S
N1339 C1341 1.356 . S
N1339 H1344 0.984 . S
N1339 H1345 0.985 . S
C1340 C1334 1.379 . S
C1340 C1337 1.363 . S
C1340 N1338 1.356 . S
C1341 C1335 1.363 . S
C1341 C1336 1.379 . S
C1341 N1339 1.356 . S
N1342 C1334 1.356 . S
N1342 H1348 0.984 . S
N1342 H1349 0.984 . S
N1343 C1336 1.356 . S
N1343 H1346 0.984 1_565 S
N1343 H1347 0.985 1_565 S
H1344 N1339 0.984 . S
H1345 N1339 0.985 . S
H1346 N1343 0.984 1_545 S
H1347 N1343 0.985 1_545 S
H1348 N1342 0.984 . S
H1349 N1342 0.984 . S
H1350 N1338 0.984 . S
H1351 N1338 0.985 . S
C1352 C1353 1.363 . S
C1352 C1358 1.379 . S
C1352 N1360 1.356 . S
C1353 C1352 1.363 . S
C1353 C1359 1.363 . S
C1354 C1355 1.363 . S
C1354 C1359 1.379 . S
C1354 N1361 1.356 . S
C1355 C1354 1.363 . S
C1355 C1358 1.363 . S
N1356 C1358 1.356 . S
N1356 H1368 0.984 . S
N1356 H1369 0.985 . S
N1357 C1359 1.356 . S
N1357 H1362 0.984 . S
N1357 H1363 0.985 . S
C1358 C1352 1.379 . S
C1358 C1355 1.363 . S
C1358 N1356 1.356 . S
C1359 C1353 1.363 . S
C1359 C1354 1.379 . S
C1359 N1357 1.356 . S
N1360 C1352 1.356 . S
N1360 H1366 0.984 . S
N1360 H1367 0.984 . S
N1361 C1354 1.356 . S
N1361 H1364 0.984 . S
N1361 H1365 0.985 . S
H1362 N1357 0.984 . S
H1363 N1357 0.985 . S
H1364 N1361 0.984 . S
H1365 N1361 0.985 . S
H1366 N1360 0.984 . S
H1367 N1360 0.984 . S
H1368 N1356 0.984 . S
H1369 N1356 0.985 . S
C1370 C1371 1.363 . S
C1370 C1376 1.379 . S
C1370 N1378 1.356 . S
C1371 C1370 1.363 . S
C1371 C1377 1.363 . S
C1372 C1373 1.363 . S
C1372 C1377 1.379 . S
C1372 N1379 1.356 . S
C1373 C1372 1.363 . S
C1373 C1376 1.363 . S
N1374 C1376 1.356 . S
N1374 H1386 0.984 . S
N1374 H1387 0.985 . S
N1375 C1377 1.356 . S
N1375 H1380 0.984 1_545 S
N1375 H1381 0.985 1_545 S
C1376 C1370 1.379 . S
C1376 C1373 1.363 . S
C1376 N1374 1.356 . S
C1377 C1371 1.363 . S
C1377 C1372 1.379 . S
C1377 N1375 1.356 . S
N1378 C1370 1.356 . S
N1378 H1384 0.984 . S
N1378 H1385 0.984 . S
N1379 C1372 1.356 . S
N1379 H1382 0.984 . S
N1379 H1383 0.985 . S
H1380 N1375 0.984 1_565 S
H1381 N1375 0.985 1_565 S
H1382 N1379 0.984 . S
H1383 N1379 0.985 . S
H1384 N1378 0.984 . S
H1385 N1378 0.984 . S
H1386 N1374 0.984 . S
H1387 N1374 0.985 . S
C1388 C1389 1.363 . S
C1388 C1394 1.379 . S
C1388 N1396 1.356 . S
C1389 C1388 1.363 . S
C1389 C1395 1.363 . S
C1390 C1391 1.363 . S
C1390 C1395 1.379 . S
C1390 N1397 1.356 . S
C1391 C1390 1.363 . S
C1391 C1394 1.363 . S
N1392 C1394 1.356 . S
N1392 H1404 0.984 . S
N1392 H1405 0.985 . S
N1393 C1395 1.356 . S
N1393 H1398 0.984 . S
N1393 H1399 0.985 . S
C1394 C1388 1.379 . S
C1394 C1391 1.363 . S
C1394 N1392 1.356 . S
C1395 C1389 1.363 . S
C1395 C1390 1.379 . S
C1395 N1393 1.356 . S
N1396 C1388 1.356 . S
N1396 H1402 0.984 . S
N1396 H1403 0.984 . S
N1397 C1390 1.356 . S
N1397 H1400 0.984 . S
N1397 H1401 0.985 . S
H1398 N1393 0.984 . S
H1399 N1393 0.985 . S
H1400 N1397 0.984 . S
H1401 N1397 0.985 . S
H1402 N1396 0.984 . S
H1403 N1396 0.984 . S
H1404 N1392 0.984 . S
H1405 N1392 0.985 . S
C1406 C1407 1.363 . S
C1406 C1412 1.379 . S
C1406 N1414 1.356 . S
C1407 C1406 1.363 . S
C1407 C1413 1.363 . S
C1408 C1409 1.363 . S
C1408 C1413 1.379 . S
C1408 N1415 1.356 1_565 S
C1409 C1408 1.363 . S
C1409 C1412 1.363 . S
N1410 C1412 1.356 . S
N1410 H1422 0.984 . S
N1410 H1423 0.985 . S
N1411 C1413 1.356 . S
N1411 H1416 0.984 . S
N1411 H1417 0.985 . S
C1412 C1406 1.379 . S
C1412 C1409 1.363 . S
C1412 N1410 1.356 . S
C1413 C1407 1.363 . S
C1413 C1408 1.379 . S
C1413 N1411 1.356 . S
N1414 C1406 1.356 . S
N1414 H1420 0.984 . S
N1414 H1421 0.984 . S
N1415 C1408 1.356 1_545 S
N1415 H1418 0.984 . S
N1415 H1419 0.985 . S
H1416 N1411 0.984 . S
H1417 N1411 0.985 . S
H1418 N1415 0.984 . S
H1419 N1415 0.985 . S
H1420 N1414 0.984 . S
H1421 N1414 0.984 . S
H1422 N1410 0.984 . S
H1423 N1410 0.985 . S
C1424 C1425 1.363 . S
C1424 C1430 1.379 . S
C1424 N1432 1.356 . S
C1425 C1424 1.363 . S
C1425 C1431 1.363 . S
C1426 C1427 1.363 . S
C1426 C1431 1.379 . S
C1426 N1433 1.356 . S
C1427 C1426 1.363 . S
C1427 C1430 1.363 . S
N1428 C1430 1.356 . S
N1428 H1440 0.984 . S
N1428 H1441 0.985 . S
N1429 C1431 1.356 . S
N1429 H1434 0.984 . S
N1429 H1435 0.985 . S
C1430 C1424 1.379 . S
C1430 C1427 1.363 . S
C1430 N1428 1.356 . S
C1431 C1425 1.363 . S
C1431 C1426 1.379 . S
C1431 N1429 1.356 . S
N1432 C1424 1.356 . S
N1432 H1438 0.984 . S
N1432 H1439 0.984 . S
N1433 C1426 1.356 . S
N1433 H1436 0.984 . S
N1433 H1437 0.985 . S
H1434 N1429 0.984 . S
H1435 N1429 0.985 . S
H1436 N1433 0.984 . S
H1437 N1433 0.985 . S
H1438 N1432 0.984 . S
H1439 N1432 0.984 . S
H1440 N1428 0.984 . S
H1441 N1428 0.985 . S
C1442 C1443 1.363 . S
C1442 C1448 1.379 . S
C1442 N1450 1.356 . S
C1443 C1442 1.363 . S
C1443 C1449 1.363 . S
C1444 C1445 1.363 . S
C1444 C1449 1.379 . S
C1444 N1451 1.356 . S
C1445 C1444 1.363 . S
C1445 C1448 1.363 . S
N1446 C1448 1.356 . S
N1446 H1458 0.984 . S
N1446 H1459 0.985 . S
N1447 C1449 1.356 . S
N1447 H1452 0.984 . S
N1447 H1453 0.985 . S
C1448 C1442 1.379 . S
C1448 C1445 1.363 . S
C1448 N1446 1.356 . S
C1449 C1443 1.363 . S
C1449 C1444 1.379 . S
C1449 N1447 1.356 . S
N1450 C1442 1.356 . S
N1450 H1456 0.984 1_565 S
N1450 H1457 0.984 1_565 S
N1451 C1444 1.356 . S
N1451 H1454 0.984 . S
N1451 H1455 0.985 . S
H1452 N1447 0.984 . S
H1453 N1447 0.985 . S
H1454 N1451 0.984 . S
H1455 N1451 0.985 . S
H1456 N1450 0.984 1_545 S
H1457 N1450 0.984 1_545 S
H1458 N1446 0.984 . S
H1459 N1446 0.985 . S
C1460 C1461 1.363 . S
C1460 C1466 1.379 . S
C1460 N1468 1.356 . S
C1461 C1460 1.363 . S
C1461 C1467 1.363 . S
C1462 C1463 1.363 . S
C1462 C1467 1.379 . S
C1462 N1469 1.356 . S
C1463 C1462 1.363 . S
C1463 C1466 1.363 . S
N1464 C1466 1.356 . S
N1464 H1476 0.984 . S
N1464 H1477 0.985 . S
N1465 C1467 1.356 . S
N1465 H1470 0.984 . S
N1465 H1471 0.985 . S
C1466 C1460 1.379 . S
C1466 C1463 1.363 . S
C1466 N1464 1.356 . S
C1467 C1461 1.363 . S
C1467 C1462 1.379 . S
C1467 N1465 1.356 . S
N1468 C1460 1.356 . S
N1468 H1474 0.984 . S
N1468 H1475 0.984 . S
N1469 C1462 1.356 . S
N1469 H1472 0.984 . S
N1469 H1473 0.985 . S
H1470 N1465 0.984 . S
H1471 N1465 0.985 . S
H1472 N1469 0.984 . S
H1473 N1469 0.985 . S
H1474 N1468 0.984 . S
H1475 N1468 0.984 . S
H1476 N1464 0.984 . S
H1477 N1464 0.985 . S
C1478 C1479 1.363 . S
C1478 C1484 1.379 . S
C1478 N1486 1.356 . S
C1479 C1478 1.363 . S
C1479 C1485 1.363 . S
C1480 C1481 1.363 . S
C1480 C1485 1.379 . S
C1480 N1487 1.356 . S
C1481 C1480 1.363 . S
C1481 C1484 1.363 . S
N1482 C1484 1.356 . S
N1482 H1494 0.984 . S
N1482 H1495 0.985 . S
N1483 C1485 1.356 . S
N1483 H1488 0.984 1_545 S
N1483 H1489 0.985 1_545 S
C1484 C1478 1.379 . S
C1484 C1481 1.363 . S
C1484 N1482 1.356 . S
C1485 C1479 1.363 . S
C1485 C1480 1.379 . S
C1485 N1483 1.356 . S
N1486 C1478 1.356 . S
N1486 H1492 0.984 . S
N1486 H1493 0.984 . S
N1487 C1480 1.356 . S
N1487 H1490 0.984 . S
N1487 H1491 0.985 . S
H1488 N1483 0.984 1_565 S
H1489 N1483 0.985 1_565 S
H1490 N1487 0.984 . S
H1491 N1487 0.985 . S
H1492 N1486 0.984 . S
H1493 N1486 0.984 . S
H1494 N1482 0.984 . S
H1495 N1482 0.985 . S
C1496 C1497 1.363 . S
C1496 C1502 1.379 . S
C1496 N1504 1.356 . S
C1497 C1496 1.363 . S
C1497 C1503 1.363 . S
C1498 C1499 1.363 . S
C1498 C1503 1.379 . S
C1498 N1505 1.356 . S
C1499 C1498 1.363 . S
C1499 C1502 1.363 . S
N1500 C1502 1.356 . S
N1500 H1512 0.984 . S
N1500 H1513 0.985 . S
N1501 C1503 1.356 . S
N1501 H1506 0.984 . S
N1501 H1507 0.985 . S
C1502 C1496 1.379 . S
C1502 C1499 1.363 . S
C1502 N1500 1.356 . S
C1503 C1497 1.363 . S
C1503 C1498 1.379 . S
C1503 N1501 1.356 . S
N1504 C1496 1.356 . S
N1504 H1510 0.984 . S
N1504 H1511 0.984 . S
N1505 C1498 1.356 . S
N1505 H1508 0.984 . S
N1505 H1509 0.985 . S
H1506 N1501 0.984 . S
H1507 N1501 0.985 . S
H1508 N1505 0.984 . S
H1509 N1505 0.985 . S
H1510 N1504 0.984 . S
H1511 N1504 0.984 . S
H1512 N1500 0.984 . S
H1513 N1500 0.985 . S
C1514 C1515 1.363 . S
C1514 C1520 1.379 . S
C1514 N1522 1.356 . S
C1515 C1514 1.363 . S
C1515 C1521 1.363 . S
C1516 C1517 1.363 . S
C1516 C1521 1.379 . S
C1516 N1523 1.356 . S
C1517 C1516 1.363 . S
C1517 C1520 1.363 . S
N1518 C1520 1.356 . S
N1518 H1530 0.984 . S
N1518 H1531 0.985 . S
N1519 C1521 1.356 . S
N1519 H1524 0.988 . S
N1519 H1525 0.985 . S
C1520 C1514 1.379 . S
C1520 C1517 1.363 . S
C1520 N1518 1.356 . S
C1521 C1515 1.363 . S
C1521 C1516 1.379 . S
C1521 N1519 1.356 . S
N1522 C1514 1.356 . S
N1522 H1528 0.984 . S
N1522 H1529 0.984 . S
N1523 C1516 1.356 . S
N1523 H1526 0.984 . S
N1523 H1527 0.985 . S
H1524 N1519 0.988 . S
H1525 N1519 0.985 . S
H1526 N1523 0.984 . S
H1527 N1523 0.985 . S
H1528 N1522 0.984 . S
H1529 N1522 0.984 . S
H1530 N1518 0.984 . S
H1531 N1518 0.985 . S
C1532 C1533 1.363 . S
C1532 C1538 1.379 . S
C1532 N1540 1.356 . S
C1533 C1532 1.363 . S
C1533 C1539 1.363 . S
C1534 C1535 1.363 . S
C1534 C1539 1.379 . S
C1534 N1541 1.356 . S
C1535 C1534 1.363 . S
C1535 C1538 1.363 . S
N1536 C1538 1.356 . S
N1536 H1548 0.984 . S
N1536 H1549 0.985 . S
N1537 C1539 1.356 . S
N1537 H1542 0.984 . S
N1537 H1543 0.985 . S
C1538 C1532 1.379 . S
C1538 C1535 1.363 . S
C1538 N1536 1.356 . S
C1539 C1533 1.363 . S
C1539 C1534 1.379 . S
C1539 N1537 1.356 . S
N1540 C1532 1.356 . S
N1540 H1546 0.984 . S
N1540 H1547 0.984 . S
N1541 C1534 1.356 . S
N1541 H1544 0.984 . S
N1541 H1545 0.985 . S
H1542 N1537 0.984 . S
H1543 N1537 0.985 . S
H1544 N1541 0.984 . S
H1545 N1541 0.985 . S
H1546 N1540 0.984 . S
H1547 N1540 0.984 . S
H1548 N1536 0.984 . S
H1549 N1536 0.985 . S
C1550 C1551 1.363 . S
C1550 C1556 1.379 . S
C1550 N1558 1.356 . S
C1551 C1550 1.363 . S
C1551 C1557 1.363 . S
C1552 C1553 1.363 . S
C1552 C1557 1.379 . S
C1552 N1559 1.356 . S
C1553 C1552 1.363 . S
C1553 C1556 1.363 . S
N1554 C1556 1.356 . S
N1554 H1566 0.984 . S
N1554 H1567 0.985 . S
N1555 C1557 1.356 . S
N1555 H1560 0.984 . S
N1555 H1561 0.985 . S
C1556 C1550 1.379 . S
C1556 C1553 1.363 . S
C1556 N1554 1.356 . S
C1557 C1551 1.363 . S
C1557 C1552 1.379 . S
C1557 N1555 1.356 . S
N1558 C1550 1.356 . S
N1558 H1564 0.984 . S
N1558 H1565 0.984 . S
N1559 C1552 1.356 . S
N1559 H1562 0.984 . S
N1559 H1563 0.985 . S
H1560 N1555 0.984 . S
H1561 N1555 0.985 . S
H1562 N1559 0.984 . S
H1563 N1559 0.985 . S
H1564 N1558 0.984 . S
H1565 N1558 0.984 . S
H1566 N1554 0.984 . S
H1567 N1554 0.985 . S
C1568 C1569 1.363 . S
C1568 C1574 1.379 . S
C1568 N1576 1.356 . S
C1569 C1568 1.363 . S
C1569 C1575 1.363 . S
C1570 C1571 1.363 . S
C1570 C1575 1.379 . S
C1570 N1577 1.356 . S
C1571 C1570 1.363 . S
C1571 C1574 1.363 . S
N1572 C1574 1.356 . S
N1572 H1584 0.984 . S
N1572 H1585 0.985 . S
N1573 C1575 1.356 . S
N1573 H1578 0.984 . S
N1573 H1579 0.985 . S
C1574 C1568 1.379 . S
C1574 C1571 1.363 . S
C1574 N1572 1.356 . S
C1575 C1569 1.363 . S
C1575 C1570 1.379 . S
C1575 N1573 1.356 . S
N1576 C1568 1.356 . S
N1576 H1582 0.984 . S
N1576 H1583 0.984 . S
N1577 C1570 1.356 . S
N1577 H1580 0.984 . S
N1577 H1581 0.985 . S
H1578 N1573 0.984 . S
H1579 N1573 0.985 . S
H1580 N1577 0.984 . S
H1581 N1577 0.985 . S
H1582 N1576 0.984 . S
H1583 N1576 0.984 . S
H1584 N1572 0.984 . S
H1585 N1572 0.985 . S
C1586 C1587 1.363 . S
C1586 C1592 1.379 . S
C1586 N1594 1.356 . S
C1587 C1586 1.363 . S
C1587 C1593 1.363 . S
C1588 C1589 1.363 . S
C1588 C1593 1.379 . S
C1588 N1595 1.356 . S
C1589 C1588 1.363 . S
C1589 C1592 1.363 . S
N1590 C1592 1.356 . S
N1590 H1602 0.984 . S
N1590 H1603 0.985 . S
N1591 C1593 1.356 . S
N1591 H1596 0.984 . S
N1591 H1597 0.985 . S
C1592 C1586 1.379 . S
C1592 C1589 1.363 . S
C1592 N1590 1.356 . S
C1593 C1587 1.363 . S
C1593 C1588 1.379 . S
C1593 N1591 1.356 . S
N1594 C1586 1.356 . S
N1594 H1600 0.984 . S
N1594 H1601 0.984 . S
N1595 C1588 1.356 . S
N1595 H1598 0.984 . S
N1595 H1599 0.985 . S
H1596 N1591 0.984 . S
H1597 N1591 0.985 . S
H1598 N1595 0.984 . S
H1599 N1595 0.985 . S
H1600 N1594 0.984 . S
H1601 N1594 0.984 . S
H1602 N1590 0.984 . S
H1603 N1590 0.985 . S
C1604 C1605 1.363 . S
C1604 C1610 1.379 . S
C1604 N1612 1.356 . S
C1605 C1604 1.363 . S
C1605 C1611 1.363 . S
C1606 C1607 1.363 . S
C1606 C1611 1.379 . S
C1606 N1613 1.356 . S
C1607 C1606 1.363 . S
C1607 C1610 1.363 . S
N1608 C1610 1.356 . S
N1608 H1620 0.984 . S
N1608 H1621 0.985 . S
N1609 C1611 1.356 . S
N1609 H1614 0.984 . S
N1609 H1615 0.985 . S
C1610 C1604 1.379 . S
C1610 C1607 1.363 . S
C1610 N1608 1.356 . S
C1611 C1605 1.363 . S
C1611 C1606 1.379 . S
C1611 N1609 1.356 . S
N1612 C1604 1.356 . S
N1612 H1618 0.984 . S
N1612 H1619 0.984 . S
N1613 C1606 1.356 . S
N1613 H1616 0.984 . S
N1613 H1617 0.985 . S
H1614 N1609 0.984 . S
H1615 N1609 0.985 . S
H1616 N1613 0.984 . S
H1617 N1613 0.985 . S
H1618 N1612 0.984 . S
H1619 N1612 0.984 . S
H1620 N1608 0.984 . S
H1621 N1608 0.985 . S
C1622 C1623 1.363 . S
C1622 C1628 1.379 . S
C1622 N1630 1.356 . S
C1623 C1622 1.363 . S
C1623 C1629 1.363 . S
C1624 C1625 1.363 . S
C1624 C1629 1.379 . S
C1624 N1631 1.356 . S
C1625 C1624 1.363 . S
C1625 C1628 1.363 . S
N1626 C1628 1.356 . S
N1626 H1638 0.984 . S
N1626 H1639 0.985 . S
N1627 C1629 1.356 . S
N1627 H1632 0.984 . S
N1627 H1633 0.985 . S
C1628 C1622 1.379 . S
C1628 C1625 1.363 . S
C1628 N1626 1.356 . S
C1629 C1623 1.363 . S
C1629 C1624 1.379 . S
C1629 N1627 1.356 . S
N1630 C1622 1.356 . S
N1630 H1636 0.984 . S
N1630 H1637 0.984 . S
N1631 C1624 1.356 . S
N1631 H1634 0.984 . S
N1631 H1635 0.985 . S
H1632 N1627 0.984 . S
H1633 N1627 0.985 . S
H1634 N1631 0.984 . S
H1635 N1631 0.985 . S
H1636 N1630 0.984 . S
H1637 N1630 0.984 . S
H1638 N1626 0.984 . S
H1639 N1626 0.985 . S
C1640 C1641 1.363 . S
C1640 C1646 1.379 . S
C1640 N1648 1.356 . S
C1641 C1640 1.363 . S
C1641 C1647 1.363 . S
C1642 C1643 1.363 . S
C1642 C1647 1.379 . S
C1642 N1649 1.356 . S
C1643 C1642 1.363 . S
C1643 C1646 1.363 . S
N1644 C1646 1.356 . S
N1644 H1656 0.984 . S
N1644 H1657 0.985 . S
N1645 C1647 1.356 . S
N1645 H1650 0.984 . S
N1645 H1651 0.985 . S
C1646 C1640 1.379 . S
C1646 C1643 1.363 . S
C1646 N1644 1.356 . S
C1647 C1641 1.363 . S
C1647 C1642 1.379 . S
C1647 N1645 1.356 . S
N1648 C1640 1.356 . S
N1648 H1654 0.984 . S
N1648 H1655 0.984 . S
N1649 C1642 1.356 . S
N1649 H1652 0.984 . S
N1649 H1653 0.985 . S
H1650 N1645 0.984 . S
H1651 N1645 0.985 . S
H1652 N1649 0.984 . S
H1653 N1649 0.985 . S
H1654 N1648 0.984 . S
H1655 N1648 0.984 . S
H1656 N1644 0.984 . S
H1657 N1644 0.985 . S
C1658 C1659 1.363 . S
C1658 C1664 1.379 . S
C1658 N1666 1.356 . S
C1659 C1658 1.363 . S
C1659 C1665 1.363 . S
C1660 C1661 1.363 . S
C1660 C1665 1.379 . S
C1660 N1667 1.356 . S
C1661 C1660 1.363 . S
C1661 C1664 1.363 . S
N1662 C1664 1.356 . S
N1662 H1674 0.984 . S
N1662 H1675 0.985 . S
N1663 C1665 1.356 . S
N1663 H1668 0.984 . S
N1663 H1669 0.985 . S
C1664 C1658 1.379 . S
C1664 C1661 1.363 . S
C1664 N1662 1.356 . S
C1665 C1659 1.363 . S
C1665 C1660 1.379 . S
C1665 N1663 1.356 . S
N1666 C1658 1.356 . S
N1666 H1672 0.984 . S
N1666 H1673 0.984 . S
N1667 C1660 1.356 . S
N1667 H1670 0.984 . S
N1667 H1671 0.985 . S
H1668 N1663 0.984 . S
H1669 N1663 0.985 . S
H1670 N1667 0.984 . S
H1671 N1667 0.985 . S
H1672 N1666 0.984 . S
H1673 N1666 0.984 . S
H1674 N1662 0.984 . S
H1675 N1662 0.985 . S
C1676 C1677 1.363 . S
C1676 C1682 1.379 . S
C1676 N1684 1.356 . S
C1677 C1676 1.363 . S
C1677 C1683 1.363 . S
C1678 C1679 1.363 . S
C1678 C1683 1.379 . S
C1678 N1685 1.356 . S
C1679 C1678 1.363 . S
C1679 C1682 1.363 . S
N1680 C1682 1.356 . S
N1680 H1692 0.984 . S
N1680 H1693 0.985 . S
N1681 C1683 1.356 . S
N1681 H1686 0.984 . S
N1681 H1687 0.985 . S
C1682 C1676 1.379 . S
C1682 C1679 1.363 . S
C1682 N1680 1.356 . S
C1683 C1677 1.363 . S
C1683 C1678 1.379 . S
C1683 N1681 1.356 . S
N1684 C1676 1.356 . S
N1684 H1690 0.984 . S
N1684 H1691 0.984 . S
N1685 C1678 1.356 . S
N1685 H1688 0.984 . S
N1685 H1689 0.985 . S
H1686 N1681 0.984 . S
H1687 N1681 0.985 . S
H1688 N1685 0.984 . S
H1689 N1685 0.985 . S
H1690 N1684 0.984 . S
H1691 N1684 0.984 . S
H1692 N1680 0.984 . S
H1693 N1680 0.985 . S
C1694 C1695 1.363 . S
C1694 C1700 1.379 . S
C1694 N1702 1.356 . S
C1695 C1694 1.363 . S
C1695 C1701 1.363 . S
C1696 C1697 1.363 . S
C1696 C1701 1.379 . S
C1696 N1703 1.356 . S
C1697 C1696 1.363 . S
C1697 C1700 1.363 . S
N1698 C1700 1.356 . S
N1698 H1710 0.984 . S
N1698 H1711 0.985 . S
N1699 C1701 1.356 . S
N1699 H1704 0.984 . S
N1699 H1705 0.985 . S
C1700 C1694 1.379 . S
C1700 C1697 1.363 . S
C1700 N1698 1.356 . S
C1701 C1695 1.363 . S
C1701 C1696 1.379 . S
C1701 N1699 1.356 . S
N1702 C1694 1.356 . S
N1702 H1708 0.984 . S
N1702 H1709 0.984 . S
N1703 C1696 1.356 . S
N1703 H1706 0.984 . S
N1703 H1707 0.985 . S
H1704 N1699 0.984 . S
H1705 N1699 0.985 . S
H1706 N1703 0.984 . S
H1707 N1703 0.985 . S
H1708 N1702 0.984 . S
H1709 N1702 0.984 . S
H1710 N1698 0.984 . S
H1711 N1698 0.985 . S
C1712 C1713 1.363 . S
C1712 C1718 1.379 . S
C1712 N1720 1.356 . S
C1713 C1712 1.363 . S
C1713 C1719 1.363 . S
C1714 C1715 1.363 . S
C1714 C1719 1.379 . S
C1714 N1721 1.356 . S
C1715 C1714 1.363 . S
C1715 C1718 1.363 . S
N1716 C1718 1.356 . S
N1716 H1728 0.984 . S
N1716 H1729 0.985 . S
N1717 C1719 1.356 . S
N1717 H1722 0.984 . S
N1717 H1723 0.985 . S
C1718 C1712 1.379 . S
C1718 C1715 1.363 . S
C1718 N1716 1.356 . S
C1719 C1713 1.363 . S
C1719 C1714 1.379 . S
C1719 N1717 1.356 . S
N1720 C1712 1.356 . S
N1720 H1726 0.984 . S
N1720 H1727 0.984 . S
N1721 C1714 1.356 . S
N1721 H1724 0.984 . S
N1721 H1725 0.985 . S
H1722 N1717 0.984 . S
H1723 N1717 0.985 . S
H1724 N1721 0.984 . S
H1725 N1721 0.985 . S
H1726 N1720 0.984 . S
H1727 N1720 0.984 . S
H1728 N1716 0.984 . S
H1729 N1716 0.985 . S
C1730 C1731 1.363 . S
C1730 C1736 1.379 . S
C1730 N1738 1.356 . S
C1731 C1730 1.363 . S
C1731 C1737 1.363 . S
C1732 C1733 1.363 . S
C1732 C1737 1.379 . S
C1732 N1739 1.356 . S
C1733 C1732 1.363 . S
C1733 C1736 1.363 . S
N1734 C1736 1.356 . S
N1734 H1746 0.984 . S
N1734 H1747 0.985 . S
N1735 C1737 1.356 . S
N1735 H1740 0.984 . S
N1735 H1741 0.985 . S
C1736 C1730 1.379 . S
C1736 C1733 1.363 . S
C1736 N1734 1.356 . S
C1737 C1731 1.363 . S
C1737 C1732 1.379 . S
C1737 N1735 1.356 . S
N1738 C1730 1.356 . S
N1738 H1744 0.984 . S
N1738 H1745 0.984 . S
N1739 C1732 1.356 . S
N1739 H1742 0.984 . S
N1739 H1743 0.985 . S
H1740 N1735 0.984 . S
H1741 N1735 0.985 . S
H1742 N1739 0.984 . S
H1743 N1739 0.985 . S
H1744 N1738 0.984 . S
H1745 N1738 0.984 . S
H1746 N1734 0.984 . S
H1747 N1734 0.985 . S
C1748 C1749 1.363 . S
C1748 C1754 1.379 . S
C1748 N1756 1.356 . S
C1749 C1748 1.363 . S
C1749 C1755 1.363 . S
C1750 C1751 1.363 . S
C1750 C1755 1.379 . S
C1750 N1757 1.356 . S
C1751 C1750 1.363 . S
C1751 C1754 1.363 . S
N1752 C1754 1.356 . S
N1752 H1764 0.984 . S
N1752 H1765 0.985 . S
N1753 C1755 1.356 . S
N1753 H1758 0.984 . S
N1753 H1759 0.985 . S
C1754 C1748 1.379 . S
C1754 C1751 1.363 . S
C1754 N1752 1.356 . S
C1755 C1749 1.363 . S
C1755 C1750 1.379 . S
C1755 N1753 1.356 . S
N1756 C1748 1.356 . S
N1756 H1762 0.984 . S
N1756 H1763 0.984 . S
N1757 C1750 1.356 . S
N1757 H1760 0.984 . S
N1757 H1761 0.985 . S
H1758 N1753 0.984 . S
H1759 N1753 0.985 . S
H1760 N1757 0.984 . S
H1761 N1757 0.985 . S
H1762 N1756 0.984 . S
H1763 N1756 0.984 . S
H1764 N1752 0.984 . S
H1765 N1752 0.985 . S
C1766 C1767 1.363 . S
C1766 C1772 1.379 . S
C1766 N1774 1.356 . S
C1767 C1766 1.363 . S
C1767 C1773 1.363 . S
C1768 C1769 1.363 . S
C1768 C1773 1.379 . S
C1768 N1775 1.356 . S
C1769 C1768 1.363 . S
C1769 C1772 1.363 . S
N1770 C1772 1.356 . S
N1770 H1782 0.984 . S
N1770 H1783 0.985 . S
N1771 C1773 1.356 . S
N1771 H1776 0.984 . S
N1771 H1777 0.985 . S
C1772 C1766 1.379 . S
C1772 C1769 1.363 . S
C1772 N1770 1.356 . S
C1773 C1767 1.363 . S
C1773 C1768 1.379 . S
C1773 N1771 1.356 . S
N1774 C1766 1.356 . S
N1774 H1780 0.984 . S
N1774 H1781 0.984 . S
N1775 C1768 1.356 . S
N1775 H1778 0.984 . S
N1775 H1779 0.985 . S
H1776 N1771 0.984 . S
H1777 N1771 0.985 . S
H1778 N1775 0.984 . S
H1779 N1775 0.985 . S
H1780 N1774 0.984 . S
H1781 N1774 0.984 . S
H1782 N1770 0.984 . S
H1783 N1770 0.985 . S
C1784 C1785 1.363 . S
C1784 C1790 1.379 . S
C1784 N1792 1.356 . S
C1785 C1784 1.363 . S
C1785 C1791 1.363 . S
C1786 C1787 1.363 . S
C1786 C1791 1.379 . S
C1786 N1793 1.356 . S
C1787 C1786 1.363 . S
C1787 C1790 1.363 . S
N1788 C1790 1.356 . S
N1788 H1800 0.984 . S
N1788 H1801 0.985 . S
N1789 C1791 1.356 . S
N1789 H1794 0.984 . S
N1789 H1795 0.985 . S
C1790 C1784 1.379 . S
C1790 C1787 1.363 . S
C1790 N1788 1.356 . S
C1791 C1785 1.363 . S
C1791 C1786 1.379 . S
C1791 N1789 1.356 . S
N1792 C1784 1.356 . S
N1792 H1798 0.984 . S
N1792 H1799 0.984 . S
N1793 C1786 1.356 . S
N1793 H1796 0.984 . S
N1793 H1797 0.985 . S
H1794 N1789 0.984 . S
H1795 N1789 0.985 . S
H1796 N1793 0.984 . S
H1797 N1793 0.985 . S
H1798 N1792 0.984 . S
H1799 N1792 0.984 . S
H1800 N1788 0.984 . S
H1801 N1788 0.985 . S
C1802 C1803 1.363 . S
C1802 C1808 1.379 . S
C1802 N1810 1.356 . S
C1803 C1802 1.363 . S
C1803 C1809 1.363 . S
C1804 C1805 1.363 . S
C1804 C1809 1.379 . S
C1804 N1811 1.356 . S
C1805 C1804 1.363 . S
C1805 C1808 1.363 . S
N1806 C1808 1.356 . S
N1806 H1818 0.984 . S
N1806 H1819 0.985 . S
N1807 C1809 1.356 . S
N1807 H1812 0.984 . S
N1807 H1813 0.985 . S
C1808 C1802 1.379 . S
C1808 C1805 1.363 . S
C1808 N1806 1.356 . S
C1809 C1803 1.363 . S
C1809 C1804 1.379 . S
C1809 N1807 1.356 . S
N1810 C1802 1.356 . S
N1810 H1816 0.984 . S
N1810 H1817 0.984 . S
N1811 C1804 1.356 . S
N1811 H1814 0.984 . S
N1811 H1815 0.985 . S
H1812 N1807 0.984 . S
H1813 N1807 0.985 . S
H1814 N1811 0.984 . S
H1815 N1811 0.985 . S
H1816 N1810 0.984 . S
H1817 N1810 0.984 . S
H1818 N1806 0.984 . S
H1819 N1806 0.985 . S
C1820 C1821 1.363 . S
C1820 C1826 1.379 . S
C1820 N1828 1.356 . S
C1821 C1820 1.363 . S
C1821 C1827 1.363 . S
C1822 C1823 1.363 . S
C1822 C1827 1.379 . S
C1822 N1829 1.356 . S
C1823 C1822 1.363 . S
C1823 C1826 1.363 . S
N1824 C1826 1.356 . S
N1824 H1836 0.984 . S
N1824 H1837 0.985 . S
N1825 C1827 1.356 . S
N1825 H1830 0.984 . S
N1825 H1831 0.985 . S
C1826 C1820 1.379 . S
C1826 C1823 1.363 . S
C1826 N1824 1.356 . S
C1827 C1821 1.363 . S
C1827 C1822 1.379 . S
C1827 N1825 1.356 . S
N1828 C1820 1.356 . S
N1828 H1834 0.984 . S
N1828 H1835 0.984 . S
N1829 C1822 1.356 . S
N1829 H1832 0.984 . S
N1829 H1833 0.985 . S
H1830 N1825 0.984 . S
H1831 N1825 0.985 . S
H1832 N1829 0.984 . S
H1833 N1829 0.985 . S
H1834 N1828 0.984 . S
H1835 N1828 0.984 . S
H1836 N1824 0.984 . S
H1837 N1824 0.985 . S
C1838 C1839 1.363 . S
C1838 C1844 1.379 . S
C1838 N1846 1.356 . S
C1839 C1838 1.363 . S
C1839 C1845 1.363 . S
C1840 C1841 1.363 . S
C1840 C1845 1.379 . S
C1840 N1847 1.356 . S
C1841 C1840 1.363 . S
C1841 C1844 1.363 . S
N1842 C1844 1.356 . S
N1842 H1854 0.984 . S
N1842 H1855 0.985 . S
N1843 C1845 1.356 . S
N1843 H1848 0.984 . S
N1843 H1849 0.985 . S
C1844 C1838 1.379 . S
C1844 C1841 1.363 . S
C1844 N1842 1.356 . S
C1845 C1839 1.363 . S
C1845 C1840 1.379 . S
C1845 N1843 1.356 . S
N1846 C1838 1.356 . S
N1846 H1852 0.984 . S
N1846 H1853 0.984 . S
N1847 C1840 1.356 . S
N1847 H1850 0.984 . S
N1847 H1851 0.985 . S
H1848 N1843 0.984 . S
H1849 N1843 0.985 . S
H1850 N1847 0.984 . S
H1851 N1847 0.985 . S
H1852 N1846 0.984 . S
H1853 N1846 0.984 . S
H1854 N1842 0.984 . S
H1855 N1842 0.985 . S
C1856 C1857 1.363 . S
C1856 C1862 1.379 . S
C1856 N1864 1.356 . S
C1857 C1856 1.363 . S
C1857 C1863 1.363 . S
C1858 C1859 1.363 . S
C1858 C1863 1.379 . S
C1858 N1865 1.356 . S
C1859 C1858 1.363 . S
C1859 C1862 1.363 . S
N1860 C1862 1.356 . S
N1860 H1872 0.984 . S
N1860 H1873 0.985 . S
N1861 C1863 1.356 . S
N1861 H1866 0.984 . S
N1861 H1867 0.985 . S
C1862 C1856 1.379 . S
C1862 C1859 1.363 . S
C1862 N1860 1.356 . S
C1863 C1857 1.363 . S
C1863 C1858 1.379 . S
C1863 N1861 1.356 . S
N1864 C1856 1.356 . S
N1864 H1870 0.984 . S
N1864 H1871 0.984 . S
N1865 C1858 1.356 . S
N1865 H1868 0.984 . S
N1865 H1869 0.985 . S
H1866 N1861 0.984 . S
H1867 N1861 0.985 . S
H1868 N1865 0.984 . S
H1869 N1865 0.985 . S
H1870 N1864 0.984 . S
H1871 N1864 0.984 . S
H1872 N1860 0.984 . S
H1873 N1860 0.985 . S
C1874 C1875 1.363 . S
C1874 C1880 1.379 . S
C1874 N1882 1.356 . S
C1875 C1874 1.363 . S
C1875 C1881 1.363 . S
C1876 C1877 1.363 . S
C1876 C1881 1.379 . S
C1876 N1883 1.356 . S
C1877 C1876 1.363 . S
C1877 C1880 1.363 . S
N1878 C1880 1.356 . S
N1878 H1890 0.984 . S
N1878 H1891 0.985 . S
N1879 C1881 1.356 . S
N1879 H1884 0.984 . S
N1879 H1885 0.985 . S
C1880 C1874 1.379 . S
C1880 C1877 1.363 . S
C1880 N1878 1.356 . S
C1881 C1875 1.363 . S
C1881 C1876 1.379 . S
C1881 N1879 1.356 . S
N1882 C1874 1.356 . S
N1882 H1888 0.984 . S
N1882 H1889 0.984 . S
N1883 C1876 1.356 . S
N1883 H1886 0.984 . S
N1883 H1887 0.985 . S
H1884 N1879 0.984 . S
H1885 N1879 0.985 . S
H1886 N1883 0.984 . S
H1887 N1883 0.985 . S
H1888 N1882 0.984 . S
H1889 N1882 0.984 . S
H1890 N1878 0.984 . S
H1891 N1878 0.985 . S
C1892 C1893 1.363 . S
C1892 C1898 1.379 . S
C1892 N1900 1.356 . S
C1893 C1892 1.363 . S
C1893 C1899 1.363 . S
C1894 C1895 1.363 . S
C1894 C1899 1.379 . S
C1894 N1901 1.356 . S
C1895 C1894 1.363 . S
C1895 C1898 1.363 . S
N1896 C1898 1.356 . S
N1896 H1908 0.984 . S
N1896 H1909 0.985 . S
N1897 C1899 1.356 . S
N1897 H1902 0.984 . S
N1897 H1903 0.985 . S
C1898 C1892 1.379 . S
C1898 C1895 1.363 . S
C1898 N1896 1.356 . S
C1899 C1893 1.363 . S
C1899 C1894 1.379 . S
C1899 N1897 1.356 . S
N1900 C1892 1.356 . S
N1900 H1906 0.984 . S
N1900 H1907 0.984 . S
N1901 C1894 1.356 . S
N1901 H1904 0.984 . S
N1901 H1905 0.985 . S
H1902 N1897 0.984 . S
H1903 N1897 0.985 . S
H1904 N1901 0.984 . S
H1905 N1901 0.985 . S
H1906 N1900 0.984 . S
H1907 N1900 0.984 . S
H1908 N1896 0.984 . S
H1909 N1896 0.985 . S
C1910 C1911 1.363 . S
C1910 C1916 1.379 . S
C1910 N1918 1.356 . S
C1911 C1910 1.363 . S
C1911 C1917 1.363 . S
C1912 C1913 1.363 . S
C1912 C1917 1.379 . S
C1912 N1919 1.356 . S
C1913 C1912 1.363 . S
C1913 C1916 1.363 . S
N1914 C1916 1.356 . S
N1914 H1926 0.984 . S
N1914 H1927 0.985 . S
N1915 C1917 1.356 . S
N1915 H1920 0.984 . S
N1915 H1921 0.985 . S
C1916 C1910 1.379 . S
C1916 C1913 1.363 . S
C1916 N1914 1.356 . S
C1917 C1911 1.363 . S
C1917 C1912 1.379 . S
C1917 N1915 1.356 . S
N1918 C1910 1.356 . S
N1918 H1924 0.984 . S
N1918 H1925 0.984 . S
N1919 C1912 1.356 . S
N1919 H1922 0.984 . S
N1919 H1923 0.985 . S
H1920 N1915 0.984 . S
H1921 N1915 0.985 . S
H1922 N1919 0.984 . S
H1923 N1919 0.985 . S
H1924 N1918 0.984 . S
H1925 N1918 0.984 . S
H1926 N1914 0.984 . S
H1927 N1914 0.985 . S
C1928 C1929 1.363 . S
C1928 C1934 1.379 . S
C1928 N1936 1.356 . S
C1929 C1928 1.363 . S
C1929 C1935 1.363 . S
C1930 C1931 1.363 . S
C1930 C1935 1.379 . S
C1930 N1937 1.356 . S
C1931 C1930 1.363 . S
C1931 C1934 1.363 . S
N1932 C1934 1.356 . S
N1932 H1944 0.984 . S
N1932 H1945 0.985 . S
N1933 C1935 1.356 . S
N1933 H1938 0.984 . S
N1933 H1939 0.985 . S
C1934 C1928 1.379 . S
C1934 C1931 1.363 . S
C1934 N1932 1.356 . S
C1935 C1929 1.363 . S
C1935 C1930 1.379 . S
C1935 N1933 1.356 . S
N1936 C1928 1.356 . S
N1936 H1942 0.984 . S
N1936 H1943 0.984 . S
N1937 C1930 1.356 . S
N1937 H1940 0.984 . S
N1937 H1941 0.985 . S
H1938 N1933 0.984 . S
H1939 N1933 0.985 . S
H1940 N1937 0.984 . S
H1941 N1937 0.985 . S
H1942 N1936 0.984 . S
H1943 N1936 0.984 . S
H1944 N1932 0.984 . S
H1945 N1932 0.985 . S
C1946 C1947 1.363 . S
C1946 C1952 1.379 . S
C1946 N1954 1.356 . S
C1947 C1946 1.363 . S
C1947 C1953 1.363 . S
C1948 C1949 1.363 . S
C1948 C1953 1.379 . S
C1948 N1955 1.356 . S
C1949 C1948 1.363 . S
C1949 C1952 1.363 . S
N1950 C1952 1.356 . S
N1950 H1962 0.984 . S
N1950 H1963 0.985 . S
N1951 C1953 1.356 . S
N1951 H1956 0.984 . S
N1951 H1957 0.985 . S
C1952 C1946 1.379 . S
C1952 C1949 1.363 . S
C1952 N1950 1.356 . S
C1953 C1947 1.363 . S
C1953 C1948 1.379 . S
C1953 N1951 1.356 . S
N1954 C1946 1.356 . S
N1954 H1960 0.984 . S
N1954 H1961 0.984 . S
N1955 C1948 1.356 . S
N1955 H1958 0.984 . S
N1955 H1959 0.985 . S
H1956 N1951 0.984 . S
H1957 N1951 0.985 . S
H1958 N1955 0.984 . S
H1959 N1955 0.985 . S
H1960 N1954 0.984 . S
H1961 N1954 0.984 . S
H1962 N1950 0.984 . S
H1963 N1950 0.985 . S
C1964 C1965 1.363 . S
C1964 C1970 1.379 . S
C1964 N1972 1.356 . S
C1965 C1964 1.363 . S
C1965 C1971 1.363 . S
C1966 C1967 1.363 . S
C1966 C1971 1.379 . S
C1966 N1973 1.356 . S
C1967 C1966 1.363 . S
C1967 C1970 1.363 . S
N1968 C1970 1.356 . S
N1968 H1980 0.984 . S
N1968 H1981 0.985 . S
N1969 C1971 1.356 . S
N1969 H1974 0.984 . S
N1969 H1975 0.985 . S
C1970 C1964 1.379 . S
C1970 C1967 1.363 . S
C1970 N1968 1.356 . S
C1971 C1965 1.363 . S
C1971 C1966 1.379 . S
C1971 N1969 1.356 . S
N1972 C1964 1.356 . S
N1972 H1978 0.984 . S
N1972 H1979 0.984 . S
N1973 C1966 1.356 . S
N1973 H1976 0.984 . S
N1973 H1977 0.985 . S
H1974 N1969 0.984 . S
H1975 N1969 0.985 . S
H1976 N1973 0.984 . S
H1977 N1973 0.985 . S
H1978 N1972 0.984 . S
H1979 N1972 0.984 . S
H1980 N1968 0.984 . S
H1981 N1968 0.985 . S
C1982 C1983 1.363 . S
C1982 C1988 1.379 . S
C1982 N1990 1.356 . S
C1983 C1982 1.363 . S
C1983 C1989 1.363 . S
C1984 C1985 1.363 . S
C1984 C1989 1.379 . S
C1984 N1991 1.356 . S
C1985 C1984 1.363 . S
C1985 C1988 1.363 . S
N1986 C1988 1.356 . S
N1986 H1998 0.984 . S
N1986 H1999 0.985 . S
N1987 C1989 1.356 . S
N1987 H1992 0.984 . S
N1987 H1993 0.985 . S
C1988 C1982 1.379 . S
C1988 C1985 1.363 . S
C1988 N1986 1.356 . S
C1989 C1983 1.363 . S
C1989 C1984 1.379 . S
C1989 N1987 1.356 . S
N1990 C1982 1.356 . S
N1990 H1996 0.984 . S
N1990 H1997 0.984 . S
N1991 C1984 1.356 . S
N1991 H1994 0.984 1_455 S
N1991 H1995 0.988 . S
H1992 N1987 0.984 . S
H1993 N1987 0.985 . S
H1994 N1991 0.984 1_655 S
H1995 N1991 0.988 . S
H1996 N1990 0.984 . S
H1997 N1990 0.984 . S
H1998 N1986 0.984 . S
H1999 N1986 0.985 . S
C2000 C2001 1.363 . S
C2000 C2006 1.379 . S
C2000 N2008 1.356 . S
C2001 C2000 1.363 . S
C2001 C2007 1.363 . S
C2002 C2003 1.363 . S
C2002 C2007 1.379 . S
C2002 N2009 1.356 . S
C2003 C2002 1.363 . S
C2003 C2006 1.363 . S
N2004 C2006 1.356 . S
N2004 H2016 0.984 . S
N2004 H2017 0.985 . S
N2005 C2007 1.356 . S
N2005 H2010 0.984 . S
N2005 H2011 0.985 . S
C2006 C2000 1.379 . S
C2006 C2003 1.363 . S
C2006 N2004 1.356 . S
C2007 C2001 1.363 . S
C2007 C2002 1.379 . S
C2007 N2005 1.356 . S
N2008 C2000 1.356 . S
N2008 H2014 0.984 . S
N2008 H2015 0.984 . S
N2009 C2002 1.356 . S
N2009 H2012 0.984 . S
N2009 H2013 0.985 . S
H2010 N2005 0.984 . S
H2011 N2005 0.985 . S
H2012 N2009 0.984 . S
H2013 N2009 0.985 . S
H2014 N2008 0.984 . S
H2015 N2008 0.984 . S
H2016 N2004 0.984 . S
H2017 N2004 0.985 . S
C2018 C2019 1.363 . S
C2018 C2024 1.379 . S
C2018 N2026 1.356 . S
C2019 C2018 1.363 . S
C2019 C2025 1.363 . S
C2020 C2021 1.363 . S
C2020 C2025 1.379 . S
C2020 N2027 1.356 . S
C2021 C2020 1.363 . S
C2021 C2024 1.363 . S
N2022 C2024 1.356 . S
N2022 H2034 0.984 . S
N2022 H2035 0.985 . S
N2023 C2025 1.356 . S
N2023 H2028 0.984 . S
N2023 H2029 0.985 . S
C2024 C2018 1.379 . S
C2024 C2021 1.363 . S
C2024 N2022 1.356 . S
C2025 C2019 1.363 . S
C2025 C2020 1.379 . S
C2025 N2023 1.356 . S
N2026 C2018 1.356 . S
N2026 H2032 0.984 . S
N2026 H2033 0.984 1_655 S
N2027 C2020 1.356 . S
N2027 H2030 0.984 . S
N2027 H2031 0.985 . S
H2028 N2023 0.984 . S
H2029 N2023 0.985 . S
H2030 N2027 0.984 . S
H2031 N2027 0.985 . S
H2032 N2026 0.984 . S
H2033 N2026 0.984 1_455 S
H2034 N2022 0.984 . S
H2035 N2022 0.985 . S
C2036 C2037 1.363 . S
C2036 C2042 1.379 . S
C2036 N2044 1.356 . S
C2037 C2036 1.363 . S
C2037 C2043 1.363 . S
C2038 C2039 1.363 . S
C2038 C2043 1.379 . S
C2038 N2045 1.356 . S
C2039 C2038 1.363 . S
C2039 C2042 1.363 . S
N2040 C2042 1.356 . S
N2040 H2052 0.984 . S
N2040 H2053 0.985 . S
N2041 C2043 1.356 . S
N2041 H2046 0.984 . S
N2041 H2047 0.985 . S
C2042 C2036 1.379 . S
C2042 C2039 1.363 . S
C2042 N2040 1.356 . S
C2043 C2037 1.363 . S
C2043 C2038 1.379 . S
C2043 N2041 1.356 . S
N2044 C2036 1.356 . S
N2044 H2050 0.984 . S
N2044 H2051 0.984 . S
N2045 C2038 1.356 . S
N2045 H2048 0.984 . S
N2045 H2049 0.985 . S
H2046 N2041 0.984 . S
H2047 N2041 0.985 . S
H2048 N2045 0.984 . S
H2049 N2045 0.985 . S
H2050 N2044 0.984 . S
H2051 N2044 0.984 . S
H2052 N2040 0.984 . S
H2053 N2040 0.985 . S
C2054 C2055 1.363 . S
C2054 C2060 1.379 . S
C2054 N2062 1.356 . S
C2055 C2054 1.363 . S
C2055 C2061 1.363 . S
C2056 C2057 1.363 . S
C2056 C2061 1.379 . S
C2056 N2063 1.356 . S
C2057 C2056 1.363 . S
C2057 C2060 1.363 . S
N2058 C2060 1.356 . S
N2058 H2070 0.984 . S
N2058 H2071 0.985 . S
N2059 C2061 1.356 . S
N2059 H2064 0.984 . S
N2059 H2065 0.985 . S
C2060 C2054 1.379 . S
C2060 C2057 1.363 . S
C2060 N2058 1.356 . S
C2061 C2055 1.363 . S
C2061 C2056 1.379 . S
C2061 N2059 1.356 . S
N2062 C2054 1.356 . S
N2062 H2068 0.984 . S
N2062 H2069 0.984 . S
N2063 C2056 1.356 . S
N2063 H2066 0.984 . S
N2063 H2067 0.985 . S
H2064 N2059 0.984 . S
H2065 N2059 0.985 . S
H2066 N2063 0.984 . S
H2067 N2063 0.985 . S
H2068 N2062 0.984 . S
H2069 N2062 0.984 . S
H2070 N2058 0.984 . S
H2071 N2058 0.985 . S
C2072 C2073 1.363 . S
C2072 C2078 1.379 . S
C2072 N2080 1.356 . S
C2073 C2072 1.363 . S
C2073 C2079 1.363 . S
C2074 C2075 1.363 . S
C2074 C2079 1.379 . S
C2074 N2081 1.356 . S
C2075 C2074 1.363 . S
C2075 C2078 1.363 . S
N2076 C2078 1.356 . S
N2076 H2088 0.984 . S
N2076 H2089 0.985 . S
N2077 C2079 1.356 . S
N2077 H2082 0.984 . S
N2077 H2083 0.985 . S
C2078 C2072 1.379 . S
C2078 C2075 1.363 . S
C2078 N2076 1.356 . S
C2079 C2073 1.363 . S
C2079 C2074 1.379 . S
C2079 N2077 1.356 . S
N2080 C2072 1.356 . S
N2080 H2086 0.984 . S
N2080 H2087 0.984 . S
N2081 C2074 1.356 . S
N2081 H2084 0.984 . S
N2081 H2085 0.985 . S
H2082 N2077 0.984 . S
H2083 N2077 0.985 . S
H2084 N2081 0.984 . S
H2085 N2081 0.985 . S
H2086 N2080 0.984 . S
H2087 N2080 0.984 . S
H2088 N2076 0.984 . S
H2089 N2076 0.985 . S
C2090 C2091 1.363 . S
C2090 C2096 1.379 . S
C2090 N2098 1.356 . S
C2091 C2090 1.363 . S
C2091 C2097 1.363 . S
C2092 C2093 1.363 . S
C2092 C2097 1.379 . S
C2092 N2099 1.356 . S
C2093 C2092 1.363 . S
C2093 C2096 1.363 . S
N2094 C2096 1.356 . S
N2094 H2106 0.984 . S
N2094 H2107 0.985 . S
N2095 C2097 1.356 . S
N2095 H2100 0.984 . S
N2095 H2101 0.985 . S
C2096 C2090 1.379 . S
C2096 C2093 1.363 . S
C2096 N2094 1.356 . S
C2097 C2091 1.363 . S
C2097 C2092 1.379 . S
C2097 N2095 1.356 . S
N2098 C2090 1.356 . S
N2098 H2104 0.984 . S
N2098 H2105 0.984 . S
N2099 C2092 1.356 . S
N2099 H2102 0.984 . S
N2099 H2103 0.985 . S
H2100 N2095 0.984 . S
H2101 N2095 0.985 . S
H2102 N2099 0.984 . S
H2103 N2099 0.985 . S
H2104 N2098 0.984 . S
H2105 N2098 0.984 . S
H2106 N2094 0.984 . S
H2107 N2094 0.985 . S
C2108 C2109 1.363 . S
C2108 C2114 1.379 . S
C2108 N2116 1.356 . S
C2109 C2108 1.363 . S
C2109 C2115 1.363 . S
C2110 C2111 1.363 . S
C2110 C2115 1.379 . S
C2110 N2117 1.356 . S
C2111 C2110 1.363 . S
C2111 C2114 1.363 . S
N2112 C2114 1.356 . S
N2112 H2124 0.984 . S
N2112 H2125 0.985 . S
N2113 C2115 1.356 . S
N2113 H2118 0.984 . S
N2113 H2119 0.985 . S
C2114 C2108 1.379 . S
C2114 C2111 1.363 . S
C2114 N2112 1.356 . S
C2115 C2109 1.363 . S
C2115 C2110 1.379 . S
C2115 N2113 1.356 . S
N2116 C2108 1.356 . S
N2116 H2122 0.984 . S
N2116 H2123 0.984 . S
N2117 C2110 1.356 . S
N2117 H2120 0.984 . S
N2117 H2121 0.985 . S
H2118 N2113 0.984 . S
H2119 N2113 0.985 . S
H2120 N2117 0.984 . S
H2121 N2117 0.985 . S
H2122 N2116 0.984 . S
H2123 N2116 0.984 . S
H2124 N2112 0.984 . S
H2125 N2112 0.985 . S
C2126 C2127 1.363 . S
C2126 C2132 1.379 . S
C2126 N2134 1.356 . S
C2127 C2126 1.363 . S
C2127 C2133 1.363 . S
C2128 C2129 1.363 . S
C2128 C2133 1.379 . S
C2128 N2135 1.356 . S
C2129 C2128 1.363 . S
C2129 C2132 1.363 . S
N2130 C2132 1.356 . S
N2130 H2142 0.984 . S
N2130 H2143 0.983 . S
N2131 C2133 1.356 . S
N2131 H2136 0.984 . S
N2131 H2137 0.985 . S
C2132 C2126 1.379 . S
C2132 C2129 1.363 . S
C2132 N2130 1.356 . S
C2133 C2127 1.363 . S
C2133 C2128 1.379 . S
C2133 N2131 1.356 . S
N2134 C2126 1.356 . S
N2134 H2140 0.984 . S
N2134 H2141 0.984 . S
N2135 C2128 1.356 . S
N2135 H2138 0.984 . S
N2135 H2139 0.985 . S
H2136 N2131 0.984 . S
H2137 N2131 0.985 . S
H2138 N2135 0.984 . S
H2139 N2135 0.985 . S
H2140 N2134 0.984 . S
H2141 N2134 0.984 . S
H2142 N2130 0.984 . S
H2143 N2130 0.983 . S
C2144 C2145 1.363 . S
C2144 C2150 1.379 . S
C2144 N2152 1.356 . S
C2145 C2144 1.363 . S
C2145 C2151 1.363 . S
C2146 C2147 1.363 . S
C2146 C2151 1.379 . S
C2146 N2153 1.356 . S
C2147 C2146 1.363 . S
C2147 C2150 1.363 . S
N2148 C2150 1.356 . S
N2148 H2160 0.984 . S
N2148 H2161 0.985 . S
N2149 C2151 1.356 . S
N2149 H2154 0.984 . S
N2149 H2155 0.985 . S
C2150 C2144 1.379 . S
C2150 C2147 1.363 . S
C2150 N2148 1.356 . S
C2151 C2145 1.363 . S
C2151 C2146 1.379 . S
C2151 N2149 1.356 . S
N2152 C2144 1.356 . S
N2152 H2158 0.984 . S
N2152 H2159 0.984 . S
N2153 C2146 1.356 . S
N2153 H2156 0.984 . S
N2153 H2157 0.985 . S
H2154 N2149 0.984 . S
H2155 N2149 0.985 . S
H2156 N2153 0.984 . S
H2157 N2153 0.985 . S
H2158 N2152 0.984 . S
H2159 N2152 0.984 . S
H2160 N2148 0.984 . S
H2161 N2148 0.985 . S
C2162 C2163 1.363 . S
C2162 C2168 1.379 . S
C2162 N2170 1.356 . S
C2163 C2162 1.363 . S
C2163 C2169 1.363 . S
C2164 C2165 1.363 . S
C2164 C2169 1.379 . S
C2164 N2171 1.356 . S
C2165 C2164 1.363 . S
C2165 C2168 1.363 . S
N2166 C2168 1.356 . S
N2166 H2178 0.984 . S
N2166 H2179 0.985 . S
N2167 C2169 1.356 . S
N2167 H2172 0.984 . S
N2167 H2173 0.985 . S
C2168 C2162 1.379 . S
C2168 C2165 1.363 . S
C2168 N2166 1.356 . S
C2169 C2163 1.363 . S
C2169 C2164 1.379 . S
C2169 N2167 1.356 . S
N2170 C2162 1.356 . S
N2170 H2176 0.984 . S
N2170 H2177 0.984 . S
N2171 C2164 1.356 . S
N2171 H2174 0.984 . S
N2171 H2175 0.985 . S
H2172 N2167 0.984 . S
H2173 N2167 0.985 . S
H2174 N2171 0.984 . S
H2175 N2171 0.985 . S
H2176 N2170 0.984 . S
H2177 N2170 0.984 . S
H2178 N2166 0.984 . S
H2179 N2166 0.985 . S
C2180 C2181 1.363 . S
C2180 C2186 1.379 . S
C2180 N2188 1.356 . S
C2181 C2180 1.363 . S
C2181 C2187 1.363 . S
C2182 C2183 1.363 . S
C2182 C2187 1.379 . S
C2182 N2189 1.356 . S
C2183 C2182 1.363 . S
C2183 C2186 1.363 . S
N2184 C2186 1.356 . S
N2184 H2196 0.984 . S
N2184 H2197 0.985 . S
N2185 C2187 1.356 . S
N2185 H2190 0.984 . S
N2185 H2191 0.985 . S
C2186 C2180 1.379 . S
C2186 C2183 1.363 . S
C2186 N2184 1.356 . S
C2187 C2181 1.363 . S
C2187 C2182 1.379 . S
C2187 N2185 1.356 . S
N2188 C2180 1.356 . S
N2188 H2194 0.984 . S
N2188 H2195 0.984 . S
N2189 C2182 1.356 . S
N2189 H2192 0.984 . S
N2189 H2193 0.985 . S
H2190 N2185 0.984 . S
H2191 N2185 0.985 . S
H2192 N2189 0.984 . S
H2193 N2189 0.985 . S
H2194 N2188 0.984 . S
H2195 N2188 0.984 . S
H2196 N2184 0.984 . S
H2197 N2184 0.985 . S
C2198 C2199 1.363 . S
C2198 C2204 1.379 . S
C2198 N2206 1.356 . S
C2199 C2198 1.363 . S
C2199 C2205 1.363 . S
C2200 C2201 1.363 . S
C2200 C2205 1.379 . S
C2200 N2207 1.356 . S
C2201 C2200 1.363 . S
C2201 C2204 1.363 . S
N2202 C2204 1.356 . S
N2202 H2214 0.984 . S
N2202 H2215 0.985 . S
N2203 C2205 1.356 . S
N2203 H2208 0.984 . S
N2203 H2209 0.985 . S
C2204 C2198 1.379 . S
C2204 C2201 1.363 . S
C2204 N2202 1.356 . S
C2205 C2199 1.363 . S
C2205 C2200 1.379 . S
C2205 N2203 1.356 . S
N2206 C2198 1.356 . S
N2206 H2212 0.984 . S
N2206 H2213 0.984 . S
N2207 C2200 1.356 . S
N2207 H2210 0.984 . S
N2207 H2211 0.985 . S
H2208 N2203 0.984 . S
H2209 N2203 0.985 . S
H2210 N2207 0.984 . S
H2211 N2207 0.985 . S
H2212 N2206 0.984 . S
H2213 N2206 0.984 . S
H2214 N2202 0.984 . S
H2215 N2202 0.985 . S
C2216 C2217 1.363 . S
C2216 C2222 1.379 . S
C2216 N2224 1.356 . S
C2217 C2216 1.363 . S
C2217 C2223 1.363 . S
C2218 C2219 1.363 . S
C2218 C2223 1.379 . S
C2218 N2225 1.356 . S
C2219 C2218 1.363 . S
C2219 C2222 1.363 . S
N2220 C2222 1.356 . S
N2220 H2232 0.984 . S
N2220 H2233 0.985 . S
N2221 C2223 1.356 . S
N2221 H2226 0.984 . S
N2221 H2227 0.985 . S
C2222 C2216 1.379 . S
C2222 C2219 1.363 . S
C2222 N2220 1.356 . S
C2223 C2217 1.363 . S
C2223 C2218 1.379 . S
C2223 N2221 1.356 . S
N2224 C2216 1.356 . S
N2224 H2230 0.984 . S
N2224 H2231 0.984 . S
N2225 C2218 1.356 . S
N2225 H2228 0.984 . S
N2225 H2229 0.985 . S
H2226 N2221 0.984 . S
H2227 N2221 0.985 . S
H2228 N2225 0.984 . S
H2229 N2225 0.985 . S
H2230 N2224 0.984 . S
H2231 N2224 0.984 . S
H2232 N2220 0.984 . S
H2233 N2220 0.985 . S
C2234 C2235 1.363 . S
C2234 C2240 1.379 . S
C2234 N2242 1.356 . S
C2235 C2234 1.363 . S
C2235 C2241 1.363 . S
C2236 C2237 1.363 . S
C2236 C2241 1.379 . S
C2236 N2243 1.356 . S
C2237 C2236 1.363 . S
C2237 C2240 1.363 . S
N2238 C2240 1.356 . S
N2238 H2250 0.984 1_655 S
N2238 H2251 0.985 1_655 S
N2239 C2241 1.356 . S
N2239 H2244 0.984 . S
N2239 H2245 0.985 . S
C2240 C2234 1.379 . S
C2240 C2237 1.363 . S
C2240 N2238 1.356 . S
C2241 C2235 1.363 . S
C2241 C2236 1.379 . S
C2241 N2239 1.356 . S
N2242 C2234 1.356 . S
N2242 H2248 0.984 . S
N2242 H2249 0.984 . S
N2243 C2236 1.356 . S
N2243 H2246 0.984 . S
N2243 H2247 0.985 . S
H2244 N2239 0.984 . S
H2245 N2239 0.985 . S
H2246 N2243 0.984 . S
H2247 N2243 0.985 . S
H2248 N2242 0.984 . S
H2249 N2242 0.984 . S
H2250 N2238 0.984 1_455 S
H2251 N2238 0.985 1_455 S
C2252 C2253 1.363 . S
C2252 C2258 1.379 . S
C2252 N2260 1.356 . S
C2253 C2252 1.363 . S
C2253 C2259 1.363 . S
C2254 C2255 1.363 . S
C2254 C2259 1.379 . S
C2254 N2261 1.356 . S
C2255 C2254 1.363 . S
C2255 C2258 1.363 . S
N2256 C2258 1.356 . S
N2256 H2268 0.984 . S
N2256 H2269 0.985 . S
N2257 C2259 1.356 . S
N2257 H2262 0.984 . S
N2257 H2263 0.985 . S
C2258 C2252 1.379 . S
C2258 C2255 1.363 . S
C2258 N2256 1.356 . S
C2259 C2253 1.363 . S
C2259 C2254 1.379 . S
C2259 N2257 1.356 . S
N2260 C2252 1.356 . S
N2260 H2266 0.984 . S
N2260 H2267 0.984 . S
N2261 C2254 1.356 . S
N2261 H2264 0.984 . S
N2261 H2265 0.985 . S
H2262 N2257 0.984 . S
H2263 N2257 0.985 . S
H2264 N2261 0.984 . S
H2265 N2261 0.985 . S
H2266 N2260 0.984 . S
H2267 N2260 0.984 . S
H2268 N2256 0.984 . S
H2269 N2256 0.985 . S
C2270 C2271 1.363 . S
C2270 C2276 1.379 . S
C2270 N2278 1.356 . S
C2271 C2270 1.363 . S
C2271 C2277 1.363 . S
C2272 C2273 1.363 . S
C2272 C2277 1.379 . S
C2272 N2279 1.356 . S
C2273 C2272 1.363 . S
C2273 C2276 1.363 . S
N2274 C2276 1.356 . S
N2274 H2286 0.984 . S
N2274 H2287 0.985 . S
N2275 C2277 1.356 . S
N2275 H2280 0.984 . S
N2275 H2281 0.985 . S
C2276 C2270 1.379 . S
C2276 C2273 1.363 . S
C2276 N2274 1.356 . S
C2277 C2271 1.363 . S
C2277 C2272 1.379 . S
C2277 N2275 1.356 . S
N2278 C2270 1.356 . S
N2278 H2284 0.984 . S
N2278 H2285 0.984 . S
N2279 C2272 1.356 . S
N2279 H2282 0.984 . S
N2279 H2283 0.985 . S
H2280 N2275 0.984 . S
H2281 N2275 0.985 . S
H2282 N2279 0.984 . S
H2283 N2279 0.985 . S
H2284 N2278 0.984 . S
H2285 N2278 0.984 . S
H2286 N2274 0.984 . S
H2287 N2274 0.985 . S
C2288 C2289 1.363 . S
C2288 C2294 1.379 . S
C2288 N2296 1.356 . S
C2289 C2288 1.363 . S
C2289 C2295 1.363 . S
C2290 C2291 1.363 . S
C2290 C2295 1.379 . S
C2290 N2297 1.356 . S
C2291 C2290 1.363 . S
C2291 C2294 1.363 . S
N2292 C2294 1.356 . S
N2292 H2304 0.984 . S
N2292 H2305 0.985 . S
N2293 C2295 1.356 . S
N2293 H2298 0.984 . S
N2293 H2299 0.985 . S
C2294 C2288 1.379 . S
C2294 C2291 1.363 . S
C2294 N2292 1.356 . S
C2295 C2289 1.363 . S
C2295 C2290 1.379 . S
C2295 N2293 1.356 . S
N2296 C2288 1.356 . S
N2296 H2302 0.984 . S
N2296 H2303 0.984 . S
N2297 C2290 1.356 . S
N2297 H2300 0.984 . S
N2297 H2301 0.985 . S
H2298 N2293 0.984 . S
H2299 N2293 0.985 . S
H2300 N2297 0.984 . S
H2301 N2297 0.985 . S
H2302 N2296 0.984 . S
H2303 N2296 0.984 . S
H2304 N2292 0.984 . S
H2305 N2292 0.985 . S
C2306 C2307 1.363 . S
C2306 C2312 1.379 . S
C2306 N2314 1.356 . S
C2307 C2306 1.363 . S
C2307 C2313 1.363 . S
C2308 C2309 1.363 . S
C2308 C2313 1.379 . S
C2308 N2315 1.356 . S
C2309 C2308 1.363 . S
C2309 C2312 1.363 . S
N2310 C2312 1.356 . S
N2310 H2322 0.984 . S
N2310 H2323 0.985 . S
N2311 C2313 1.356 . S
N2311 H2316 0.984 . S
N2311 H2317 0.985 . S
C2312 C2306 1.379 . S
C2312 C2309 1.363 . S
C2312 N2310 1.356 . S
C2313 C2307 1.363 . S
C2313 C2308 1.379 . S
C2313 N2311 1.356 . S
N2314 C2306 1.356 . S
N2314 H2320 0.984 . S
N2314 H2321 0.984 . S
N2315 C2308 1.356 . S
N2315 H2318 0.984 . S
N2315 H2319 0.985 . S
H2316 N2311 0.984 . S
H2317 N2311 0.985 . S
H2318 N2315 0.984 . S
H2319 N2315 0.985 . S
H2320 N2314 0.984 . S
H2321 N2314 0.984 . S
H2322 N2310 0.984 . S
H2323 N2310 0.985 . S
C2324 C2325 1.363 . S
C2324 C2330 1.379 . S
C2324 N2332 1.356 . S
C2325 C2324 1.363 . S
C2325 C2331 1.363 . S
C2326 C2327 1.363 . S
C2326 C2331 1.379 . S
C2326 N2333 1.356 . S
C2327 C2326 1.363 . S
C2327 C2330 1.363 . S
N2328 C2330 1.356 . S
N2328 H2340 0.984 . S
N2328 H2341 0.985 . S
N2329 C2331 1.356 . S
N2329 H2334 0.984 . S
N2329 H2335 0.985 . S
C2330 C2324 1.379 . S
C2330 C2327 1.363 . S
C2330 N2328 1.356 . S
C2331 C2325 1.363 . S
C2331 C2326 1.379 . S
C2331 N2329 1.356 . S
N2332 C2324 1.356 . S
N2332 H2338 0.984 . S
N2332 H2339 0.984 . S
N2333 C2326 1.356 . S
N2333 H2336 0.984 . S
N2333 H2337 0.985 . S
H2334 N2329 0.984 . S
H2335 N2329 0.985 . S
H2336 N2333 0.984 . S
H2337 N2333 0.985 . S
H2338 N2332 0.984 . S
H2339 N2332 0.984 . S
H2340 N2328 0.984 . S
H2341 N2328 0.985 . S
C2342 C2343 1.363 . S
C2342 C2348 1.379 . S
C2342 N2350 1.356 . S
C2343 C2342 1.363 . S
C2343 C2349 1.363 . S
C2344 C2345 1.363 . S
C2344 C2349 1.379 . S
C2344 N2351 1.356 . S
C2345 C2344 1.363 . S
C2345 C2348 1.363 . S
N2346 C2348 1.356 . S
N2346 H2358 0.984 . S
N2346 H2359 0.985 . S
N2347 C2349 1.356 . S
N2347 H2352 0.984 . S
N2347 H2353 0.985 . S
C2348 C2342 1.379 . S
C2348 C2345 1.363 . S
C2348 N2346 1.356 . S
C2349 C2343 1.363 . S
C2349 C2344 1.379 . S
C2349 N2347 1.356 . S
N2350 C2342 1.356 . S
N2350 H2356 0.984 . S
N2350 H2357 0.984 . S
N2351 C2344 1.356 . S
N2351 H2354 0.984 . S
N2351 H2355 0.985 . S
H2352 N2347 0.984 . S
H2353 N2347 0.985 . S
H2354 N2351 0.984 . S
H2355 N2351 0.985 . S
H2356 N2350 0.984 . S
H2357 N2350 0.984 . S
H2358 N2346 0.984 . S
H2359 N2346 0.985 . S
C2360 C2361 1.363 . S
C2360 C2366 1.379 . S
C2360 N2368 1.356 . S
C2361 C2360 1.363 . S
C2361 C2367 1.363 . S
C2362 C2363 1.363 . S
C2362 C2367 1.379 . S
C2362 N2369 1.356 . S
C2363 C2362 1.363 . S
C2363 C2366 1.363 . S
N2364 C2366 1.356 . S
N2364 H2376 0.984 . S
N2364 H2377 0.985 . S
N2365 C2367 1.356 . S
N2365 H2370 0.984 . S
N2365 H2371 0.985 . S
C2366 C2360 1.379 . S
C2366 C2363 1.363 . S
C2366 N2364 1.356 . S
C2367 C2361 1.363 . S
C2367 C2362 1.379 . S
C2367 N2365 1.356 . S
N2368 C2360 1.356 . S
N2368 H2374 0.984 . S
N2368 H2375 0.984 . S
N2369 C2362 1.356 . S
N2369 H2372 0.984 . S
N2369 H2373 0.985 . S
H2370 N2365 0.984 . S
H2371 N2365 0.985 . S
H2372 N2369 0.984 . S
H2373 N2369 0.985 . S
H2374 N2368 0.984 . S
H2375 N2368 0.984 . S
H2376 N2364 0.984 . S
H2377 N2364 0.985 . S
C2378 C2379 1.363 . S
C2378 C2384 1.379 . S
C2378 N2386 1.356 . S
C2379 C2378 1.363 . S
C2379 C2385 1.363 . S
C2380 C2381 1.363 . S
C2380 C2385 1.379 . S
C2380 N2387 1.356 . S
C2381 C2380 1.363 . S
C2381 C2384 1.363 . S
N2382 C2384 1.356 . S
N2382 H2394 0.984 . S
N2382 H2395 0.985 . S
N2383 C2385 1.356 . S
N2383 H2388 0.984 . S
N2383 H2389 0.985 . S
C2384 C2378 1.379 . S
C2384 C2381 1.363 . S
C2384 N2382 1.356 . S
C2385 C2379 1.363 . S
C2385 C2380 1.379 . S
C2385 N2383 1.356 . S
N2386 C2378 1.356 . S
N2386 H2392 0.984 . S
N2386 H2393 0.984 . S
N2387 C2380 1.356 . S
N2387 H2390 0.984 1_455 S
N2387 H2391 0.990 . S
H2388 N2383 0.984 . S
H2389 N2383 0.985 . S
H2390 N2387 0.984 1_655 S
H2391 N2387 0.990 . S
H2392 N2386 0.984 . S
H2393 N2386 0.984 . S
H2394 N2382 0.984 . S
H2395 N2382 0.985 . S
C2396 C2397 1.363 . S
C2396 C2402 1.379 . S
C2396 N2404 1.356 . S
C2397 C2396 1.363 . S
C2397 C2403 1.363 . S
C2398 C2399 1.363 . S
C2398 C2403 1.379 . S
C2398 N2405 1.356 . S
C2399 C2398 1.363 . S
C2399 C2402 1.363 . S
N2400 C2402 1.356 . S
N2400 H2412 0.984 . S
N2400 H2413 0.985 . S
N2401 C2403 1.356 . S
N2401 H2406 0.984 . S
N2401 H2407 0.985 . S
C2402 C2396 1.379 . S
C2402 C2399 1.363 . S
C2402 N2400 1.356 . S
C2403 C2397 1.363 . S
C2403 C2398 1.379 . S
C2403 N2401 1.356 . S
N2404 C2396 1.356 . S
N2404 H2410 0.984 . S
N2404 H2411 0.984 . S
N2405 C2398 1.356 . S
N2405 H2408 0.984 . S
N2405 H2409 0.985 . S
H2406 N2401 0.984 . S
H2407 N2401 0.985 . S
H2408 N2405 0.984 . S
H2409 N2405 0.985 . S
H2410 N2404 0.984 . S
H2411 N2404 0.984 . S
H2412 N2400 0.984 . S
H2413 N2400 0.985 . S
C2414 C2415 1.363 . S
C2414 C2420 1.379 . S
C2414 N2422 1.356 . S
C2415 C2414 1.363 . S
C2415 C2421 1.363 . S
C2416 C2417 1.363 . S
C2416 C2421 1.379 . S
C2416 N2423 1.356 . S
C2417 C2416 1.363 . S
C2417 C2420 1.363 . S
N2418 C2420 1.356 . S
N2418 H2430 0.984 . S
N2418 H2431 0.985 . S
N2419 C2421 1.356 . S
N2419 H2424 0.984 . S
N2419 H2425 0.985 . S
C2420 C2414 1.379 . S
C2420 C2417 1.363 . S
C2420 N2418 1.356 . S
C2421 C2415 1.363 . S
C2421 C2416 1.379 . S
C2421 N2419 1.356 . S
N2422 C2414 1.356 . S
N2422 H2428 0.984 . S
N2422 H2429 0.984 . S
N2423 C2416 1.356 . S
N2423 H2426 0.984 . S
N2423 H2427 0.985 . S
H2424 N2419 0.984 . S
H2425 N2419 0.985 . S
H2426 N2423 0.984 . S
H2427 N2423 0.985 . S
H2428 N2422 0.984 . S
H2429 N2422 0.984 . S
H2430 N2418 0.984 . S
H2431 N2418 0.985 . S
C2432 C2433 1.363 . S
C2432 C2438 1.379 1_545 S
C2432 N2440 1.356 . S
C2433 C2432 1.363 . S
C2433 C2439 1.363 . S
C2434 C2435 1.363 . S
C2434 C2439 1.379 1_565 S
C2434 N2441 1.356 . S
C2435 C2434 1.363 . S
C2435 C2438 1.363 . S
N2436 C2438 1.356 . S
N2436 H2448 0.984 . S
N2436 H2449 0.985 . S
N2437 C2439 1.356 . S
N2437 H2442 0.984 . S
N2437 H2443 0.985 . S
C2438 C2432 1.379 1_565 S
C2438 C2435 1.363 . S
C2438 N2436 1.356 . S
C2439 C2433 1.363 . S
C2439 C2434 1.379 1_545 S
C2439 N2437 1.356 . S
N2440 C2432 1.356 . S
N2440 H2446 0.984 . S
N2440 H2447 0.984 . S
N2441 C2434 1.356 . S
N2441 H2444 0.984 . S
N2441 H2445 0.985 . S
H2442 N2437 0.984 . S
H2443 N2437 0.985 . S
H2444 N2441 0.984 . S
H2445 N2441 0.985 . S
H2446 N2440 0.984 . S
H2447 N2440 0.984 . S
H2448 N2436 0.984 . S
H2449 N2436 0.985 . S
C2450 C2451 1.363 . S
C2450 C2456 1.379 . S
C2450 N2458 1.356 . S
C2451 C2450 1.363 . S
C2451 C2457 1.363 . S
C2452 C2453 1.363 . S
C2452 C2457 1.379 . S
C2452 N2459 1.356 . S
C2453 C2452 1.363 . S
C2453 C2456 1.363 . S
N2454 C2456 1.356 . S
N2454 H2466 0.984 . S
N2454 H2467 0.985 . S
N2455 C2457 1.356 . S
N2455 H2460 0.984 . S
N2455 H2461 0.985 . S
C2456 C2450 1.379 . S
C2456 C2453 1.363 . S
C2456 N2454 1.356 . S
C2457 C2451 1.363 . S
C2457 C2452 1.379 . S
C2457 N2455 1.356 . S
N2458 C2450 1.356 . S
N2458 H2464 0.984 . S
N2458 H2465 0.984 . S
N2459 C2452 1.356 . S
N2459 H2462 0.984 . S
N2459 H2463 0.985 . S
H2460 N2455 0.984 . S
H2461 N2455 0.985 . S
H2462 N2459 0.984 . S
H2463 N2459 0.985 . S
H2464 N2458 0.984 . S
H2465 N2458 0.984 . S
H2466 N2454 0.984 . S
H2467 N2454 0.985 . S
C2468 C2469 1.363 . S
C2468 C2474 1.379 1_565 S
C2468 N2476 1.356 . S
C2469 C2468 1.363 . S
C2469 C2475 1.363 . S
C2470 C2471 1.363 . S
C2470 C2475 1.379 1_545 S
C2470 N2477 1.356 . S
C2471 C2470 1.363 . S
C2471 C2474 1.363 . S
N2472 C2474 1.356 . S
N2472 H2484 0.984 . S
N2472 H2485 0.985 . S
N2473 C2475 1.356 . S
N2473 H2478 0.984 . S
N2473 H2479 0.985 . S
C2474 C2468 1.379 1_545 S
C2474 C2471 1.363 . S
C2474 N2472 1.356 . S
C2475 C2469 1.363 . S
C2475 C2470 1.379 1_565 S
C2475 N2473 1.356 . S
N2476 C2468 1.356 . S
N2476 H2482 0.984 . S
N2476 H2483 0.984 . S
N2477 C2470 1.356 . S
N2477 H2480 0.984 . S
N2477 H2481 0.985 . S
H2478 N2473 0.984 . S
H2479 N2473 0.985 . S
H2480 N2477 0.984 . S
H2481 N2477 0.985 . S
H2482 N2476 0.984 . S
H2483 N2476 0.984 . S
H2484 N2472 0.984 . S
H2485 N2472 0.985 . S
C2486 C2487 1.363 . S
C2486 C2492 1.379 . S
C2486 N2494 1.356 . S
C2487 C2486 1.363 . S
C2487 C2493 1.363 1_554 S
C2488 C2489 1.363 . S
C2488 C2493 1.379 . S
C2488 N2495 1.356 . S
C2489 C2488 1.363 . S
C2489 C2492 1.363 1_556 S
N2490 C2492 1.356 . S
N2490 H2502 0.984 . S
N2490 H2503 0.985 . S
N2491 C2493 1.356 . S
N2491 H2496 0.984 . S
N2491 H2497 0.985 . S
C2492 C2486 1.379 . S
C2492 C2489 1.363 1_554 S
C2492 N2490 1.356 . S
C2493 C2487 1.363 1_556 S
C2493 C2488 1.379 . S
C2493 N2491 1.356 . S
N2494 C2486 1.356 . S
N2494 H2500 0.984 . S
N2494 H2501 0.984 . S
N2495 C2488 1.356 . S
N2495 H2498 0.984 . S
N2495 H2499 0.985 . S
H2496 N2491 0.984 . S
H2497 N2491 0.985 . S
H2498 N2495 0.984 . S
H2499 N2495 0.985 . S
H2500 N2494 0.984 . S
H2501 N2494 0.984 . S
H2502 N2490 0.984 . S
H2503 N2490 0.985 . S
C2504 C2505 1.363 . S
C2504 C2510 1.379 1_545 S
C2504 N2512 1.356 . S
C2505 C2504 1.363 . S
C2505 C2511 1.363 . S
C2506 C2507 1.363 . S
C2506 C2511 1.379 1_565 S
C2506 N2513 1.356 . S
C2507 C2506 1.363 . S
C2507 C2510 1.363 . S
N2508 C2510 1.356 . S
N2508 H2520 0.984 . S
N2508 H2521 0.985 . S
N2509 C2511 1.356 . S
N2509 H2514 0.984 . S
N2509 H2515 0.985 . S
C2510 C2504 1.379 1_565 S
C2510 C2507 1.363 . S
C2510 N2508 1.356 . S
C2511 C2505 1.363 . S
C2511 C2506 1.379 1_545 S
C2511 N2509 1.356 . S
N2512 C2504 1.356 . S
N2512 H2518 0.984 . S
N2512 H2519 0.984 . S
N2513 C2506 1.356 . S
N2513 H2516 0.984 . S
N2513 H2517 0.985 . S
H2514 N2509 0.984 . S
H2515 N2509 0.985 . S
H2516 N2513 0.984 . S
H2517 N2513 0.985 . S
H2518 N2512 0.984 . S
H2519 N2512 0.984 . S
H2520 N2508 0.984 . S
H2521 N2508 0.985 . S
C2522 C2523 1.363 . S
C2522 C2528 1.379 . S
C2522 N2530 1.356 . S
C2523 C2522 1.363 . S
C2523 C2529 1.363 . S
C2524 C2525 1.363 . S
C2524 C2529 1.379 . S
C2524 N2531 1.356 . S
C2525 C2524 1.363 . S
C2525 C2528 1.363 . S
N2526 C2528 1.356 . S
N2526 H2538 0.984 . S
N2526 H2539 0.985 . S
N2527 C2529 1.356 . S
N2527 H2532 0.984 . S
N2527 H2533 0.985 . S
C2528 C2522 1.379 . S
C2528 C2525 1.363 . S
C2528 N2526 1.356 . S
C2529 C2523 1.363 . S
C2529 C2524 1.379 . S
C2529 N2527 1.356 . S
N2530 C2522 1.356 . S
N2530 H2536 0.984 . S
N2530 H2537 0.984 . S
N2531 C2524 1.356 . S
N2531 H2534 0.984 . S
N2531 H2535 0.985 . S
H2532 N2527 0.984 . S
H2533 N2527 0.985 . S
H2534 N2531 0.984 . S
H2535 N2531 0.985 . S
H2536 N2530 0.984 . S
H2537 N2530 0.984 . S
H2538 N2526 0.984 . S
H2539 N2526 0.985 . S
C2540 C2541 1.363 . S
C2540 C2546 1.379 1_545 S
C2540 N2548 1.356 . S
C2541 C2540 1.363 . S
C2541 C2547 1.363 . S
C2542 C2543 1.363 . S
C2542 C2547 1.379 1_565 S
C2542 N2549 1.356 . S
C2543 C2542 1.363 . S
C2543 C2546 1.363 . S
N2544 C2546 1.356 . S
N2544 H2556 0.984 . S
N2544 H2557 0.985 . S
N2545 C2547 1.356 . S
N2545 H2550 0.984 . S
N2545 H2551 0.985 . S
C2546 C2540 1.379 1_565 S
C2546 C2543 1.363 . S
C2546 N2544 1.356 . S
C2547 C2541 1.363 . S
C2547 C2542 1.379 1_545 S
C2547 N2545 1.356 . S
N2548 C2540 1.356 . S
N2548 H2554 0.984 . S
N2548 H2555 0.984 . S
N2549 C2542 1.356 . S
N2549 H2552 0.984 . S
N2549 H2553 0.985 . S
H2550 N2545 0.984 . S
H2551 N2545 0.985 . S
H2552 N2549 0.984 . S
H2553 N2549 0.985 . S
H2554 N2548 0.984 . S
H2555 N2548 0.984 . S
H2556 N2544 0.984 . S
H2557 N2544 0.985 . S
C2558 C2559 1.363 . S
C2558 C2564 1.379 . S
C2558 N2566 1.356 . S
C2559 C2558 1.363 . S
C2559 C2565 1.363 1_554 S
C2560 C2561 1.363 . S
C2560 C2565 1.379 . S
C2560 N2567 1.356 . S
C2561 C2560 1.363 . S
C2561 C2564 1.363 1_556 S
N2562 C2564 1.356 . S
N2562 H2574 0.984 . S
N2562 H2575 0.985 . S
N2563 C2565 1.356 . S
N2563 H2568 0.984 . S
N2563 H2569 0.985 . S
C2564 C2558 1.379 . S
C2564 C2561 1.363 1_554 S
C2564 N2562 1.356 . S
C2565 C2559 1.363 1_556 S
C2565 C2560 1.379 . S
C2565 N2563 1.356 . S
N2566 C2558 1.356 . S
N2566 H2572 0.984 . S
N2566 H2573 0.984 . S
N2567 C2560 1.356 . S
N2567 H2570 0.984 . S
N2567 H2571 0.985 . S
H2568 N2563 0.984 . S
H2569 N2563 0.985 . S
H2570 N2567 0.984 . S
H2571 N2567 0.985 . S
H2572 N2566 0.984 . S
H2573 N2566 0.984 . S
H2574 N2562 0.984 . S
H2575 N2562 0.985 . S
C2576 C2577 1.363 . S
C2576 C2582 1.379 . S
C2576 N2584 1.356 . S
C2577 C2576 1.363 . S
C2577 C2583 1.363 . S
C2578 C2579 1.363 . S
C2578 C2583 1.379 . S
C2578 N2585 1.356 . S
C2579 C2578 1.363 . S
C2579 C2582 1.363 . S
N2580 C2582 1.356 . S
N2580 H2592 0.984 . S
N2580 H2593 0.985 . S
N2581 C2583 1.356 . S
N2581 H2586 0.984 . S
N2581 H2587 0.985 . S
C2582 C2576 1.379 . S
C2582 C2579 1.363 . S
C2582 N2580 1.356 . S
C2583 C2577 1.363 . S
C2583 C2578 1.379 . S
C2583 N2581 1.356 . S
N2584 C2576 1.356 . S
N2584 H2590 0.984 . S
N2584 H2591 0.984 . S
N2585 C2578 1.356 . S
N2585 H2588 0.984 . S
N2585 H2589 0.985 . S
H2586 N2581 0.984 . S
H2587 N2581 0.985 . S
H2588 N2585 0.984 . S
H2589 N2585 0.985 . S
H2590 N2584 0.984 . S
H2591 N2584 0.984 . S
H2592 N2580 0.984 . S
H2593 N2580 0.985 . S
C2594 C2595 1.363 . S
C2594 C2600 1.379 . S
C2594 N2602 1.356 . S
C2595 C2594 1.363 . S
C2595 C2601 1.363 1_554 S
C2596 C2597 1.363 . S
C2596 C2601 1.379 . S
C2596 N2603 1.356 . S
C2597 C2596 1.363 . S
C2597 C2600 1.363 1_556 S
N2598 C2600 1.356 . S
N2598 H2610 0.984 . S
N2598 H2611 0.985 . S
N2599 C2601 1.356 . S
N2599 H2604 0.984 . S
N2599 H2605 0.985 . S
C2600 C2594 1.379 . S
C2600 C2597 1.363 1_554 S
C2600 N2598 1.356 . S
C2601 C2595 1.363 1_556 S
C2601 C2596 1.379 . S
C2601 N2599 1.356 . S
N2602 C2594 1.356 . S
N2602 H2608 0.984 . S
N2602 H2609 0.984 . S
N2603 C2596 1.356 . S
N2603 H2606 0.984 . S
N2603 H2607 0.985 . S
H2604 N2599 0.984 . S
H2605 N2599 0.985 . S
H2606 N2603 0.984 . S
H2607 N2603 0.985 . S
H2608 N2602 0.984 . S
H2609 N2602 0.984 . S
H2610 N2598 0.984 . S
H2611 N2598 0.985 . S
C2612 C2613 1.363 . S
C2612 C2618 1.379 . S
C2612 N2620 1.356 . S
C2613 C2612 1.363 . S
C2613 C2619 1.363 . S
C2614 C2615 1.363 . S
C2614 C2619 1.379 . S
C2614 N2621 1.356 . S
C2615 C2614 1.363 . S
C2615 C2618 1.363 . S
N2616 C2618 1.356 . S
N2616 H2628 0.984 . S
N2616 H2629 0.985 . S
N2617 C2619 1.356 . S
N2617 H2622 0.984 . S
N2617 H2623 0.985 . S
C2618 C2612 1.379 . S
C2618 C2615 1.363 . S
C2618 N2616 1.356 . S
C2619 C2613 1.363 . S
C2619 C2614 1.379 . S
C2619 N2617 1.356 . S
N2620 C2612 1.356 . S
N2620 H2626 0.984 . S
N2620 H2627 0.984 . S
N2621 C2614 1.356 . S
N2621 H2624 0.984 . S
N2621 H2625 0.985 . S
H2622 N2617 0.984 . S
H2623 N2617 0.985 . S
H2624 N2621 0.984 . S
H2625 N2621 0.985 . S
H2626 N2620 0.984 . S
H2627 N2620 0.984 . S
H2628 N2616 0.984 . S
H2629 N2616 0.985 . S
C2630 C2631 1.363 . S
C2630 C2636 1.379 . S
C2630 N2638 1.356 . S
C2631 C2630 1.363 . S
C2631 C2637 1.363 . S
C2632 C2633 1.363 . S
C2632 C2637 1.379 . S
C2632 N2639 1.356 . S
C2633 C2632 1.363 . S
C2633 C2636 1.363 . S
N2634 C2636 1.356 . S
N2634 H2646 0.984 . S
N2634 H2647 0.985 . S
N2635 C2637 1.356 . S
N2635 H2640 0.984 . S
N2635 H2641 0.985 . S
C2636 C2630 1.379 . S
C2636 C2633 1.363 . S
C2636 N2634 1.356 . S
C2637 C2631 1.363 . S
C2637 C2632 1.379 . S
C2637 N2635 1.356 . S
N2638 C2630 1.356 . S
N2638 H2644 0.984 . S
N2638 H2645 0.984 . S
N2639 C2632 1.356 . S
N2639 H2642 0.984 . S
N2639 H2643 0.985 . S
H2640 N2635 0.984 . S
H2641 N2635 0.985 . S
H2642 N2639 0.984 . S
H2643 N2639 0.985 . S
H2644 N2638 0.984 . S
H2645 N2638 0.984 . S
H2646 N2634 0.984 . S
H2647 N2634 0.985 . S
C2648 C2649 1.363 . S
C2648 C2654 1.379 . S
C2648 N2656 1.356 . S
C2649 C2648 1.363 . S
C2649 C2655 1.363 . S
C2650 C2651 1.363 . S
C2650 C2655 1.379 . S
C2650 N2657 1.356 . S
C2651 C2650 1.363 . S
C2651 C2654 1.363 . S
N2652 C2654 1.356 . S
N2652 H2664 0.984 . S
N2652 H2665 0.985 . S
N2653 C2655 1.356 . S
N2653 H2658 0.984 . S
N2653 H2659 0.985 . S
C2654 C2648 1.379 . S
C2654 C2651 1.363 . S
C2654 N2652 1.356 . S
C2655 C2649 1.363 . S
C2655 C2650 1.379 . S
C2655 N2653 1.356 . S
N2656 C2648 1.356 . S
N2656 H2662 0.984 . S
N2656 H2663 0.984 . S
N2657 C2650 1.356 . S
N2657 H2660 0.984 . S
N2657 H2661 0.985 . S
H2658 N2653 0.984 . S
H2659 N2653 0.985 . S
H2660 N2657 0.984 . S
H2661 N2657 0.985 . S
H2662 N2656 0.984 . S
H2663 N2656 0.984 . S
H2664 N2652 0.984 . S
H2665 N2652 0.985 . S
C2666 C2667 1.363 1_556 S
C2666 C2672 1.379 . S
C2666 N2674 1.356 . S
C2667 C2666 1.363 1_554 S
C2667 C2673 1.363 . S
C2668 C2669 1.363 1_554 S
C2668 C2673 1.379 . S
C2668 N2675 1.356 . S
C2669 C2668 1.363 1_556 S
C2669 C2672 1.363 . S
N2670 C2672 1.356 . S
N2670 H2682 0.984 . S
N2670 H2683 0.985 . S
N2671 C2673 1.356 . S
N2671 H2676 0.984 . S
N2671 H2677 0.985 . S
C2672 C2666 1.379 . S
C2672 C2669 1.363 . S
C2672 N2670 1.356 . S
C2673 C2667 1.363 . S
C2673 C2668 1.379 . S
C2673 N2671 1.356 . S
N2674 C2666 1.356 . S
N2674 H2680 0.984 . S
N2674 H2681 0.984 . S
N2675 C2668 1.356 . S
N2675 H2678 0.984 . S
N2675 H2679 0.985 . S
H2676 N2671 0.984 . S
H2677 N2671 0.985 . S
H2678 N2675 0.984 . S
H2679 N2675 0.985 . S
H2680 N2674 0.984 . S
H2681 N2674 0.984 . S
H2682 N2670 0.984 . S
H2683 N2670 0.985 . S
C2684 C2685 1.363 . S
C2684 C2690 1.379 . S
C2684 N2692 1.356 . S
C2685 C2684 1.363 . S
C2685 C2691 1.363 . S
C2686 C2687 1.363 . S
C2686 C2691 1.379 . S
C2686 N2693 1.356 . S
C2687 C2686 1.363 . S
C2687 C2690 1.363 . S
N2688 C2690 1.356 . S
N2688 H2700 0.984 . S
N2688 H2701 0.985 . S
N2689 C2691 1.356 . S
N2689 H2694 0.984 . S
N2689 H2695 0.985 . S
C2690 C2684 1.379 . S
C2690 C2687 1.363 . S
C2690 N2688 1.356 . S
C2691 C2685 1.363 . S
C2691 C2686 1.379 . S
C2691 N2689 1.356 . S
N2692 C2684 1.356 . S
N2692 H2698 0.984 . S
N2692 H2699 0.984 . S
N2693 C2686 1.356 . S
N2693 H2696 0.984 . S
N2693 H2697 0.985 . S
H2694 N2689 0.984 . S
H2695 N2689 0.985 . S
H2696 N2693 0.984 . S
H2697 N2693 0.985 . S
H2698 N2692 0.984 . S
H2699 N2692 0.984 . S
H2700 N2688 0.984 . S
H2701 N2688 0.985 . S
C2702 C2703 1.363 . S
C2702 C2708 1.379 . S
C2702 N2710 1.356 . S
C2703 C2702 1.363 . S
C2703 C2709 1.363 . S
C2704 C2705 1.363 . S
C2704 C2709 1.379 . S
C2704 N2711 1.356 . S
C2705 C2704 1.363 . S
C2705 C2708 1.363 . S
N2706 C2708 1.356 . S
N2706 H2718 0.984 . S
N2706 H2719 0.985 . S
N2707 C2709 1.356 . S
N2707 H2712 0.984 . S
N2707 H2713 0.985 . S
C2708 C2702 1.379 . S
C2708 C2705 1.363 . S
C2708 N2706 1.356 . S
C2709 C2703 1.363 . S
C2709 C2704 1.379 . S
C2709 N2707 1.356 . S
N2710 C2702 1.356 . S
N2710 H2716 0.984 . S
N2710 H2717 0.984 . S
N2711 C2704 1.356 . S
N2711 H2714 0.984 . S
N2711 H2715 0.985 . S
H2712 N2707 0.984 . S
H2713 N2707 0.985 . S
H2714 N2711 0.984 . S
H2715 N2711 0.985 . S
H2716 N2710 0.984 . S
H2717 N2710 0.984 . S
H2718 N2706 0.984 . S
H2719 N2706 0.985 . S
C2720 C2721 1.363 . S
C2720 C2726 1.379 . S
C2720 N2728 1.356 . S
C2721 C2720 1.363 . S
C2721 C2727 1.363 . S
C2722 C2723 1.363 . S
C2722 C2727 1.379 . S
C2722 N2729 1.356 . S
C2723 C2722 1.363 . S
C2723 C2726 1.363 . S
N2724 C2726 1.356 . S
N2724 H2736 0.984 . S
N2724 H2737 0.985 . S
N2725 C2727 1.356 . S
N2725 H2730 0.984 . S
N2725 H2731 0.985 . S
C2726 C2720 1.379 . S
C2726 C2723 1.363 . S
C2726 N2724 1.356 . S
C2727 C2721 1.363 . S
C2727 C2722 1.379 . S
C2727 N2725 1.356 . S
N2728 C2720 1.356 . S
N2728 H2734 0.984 . S
N2728 H2735 0.984 . S
N2729 C2722 1.356 . S
N2729 H2732 0.984 . S
N2729 H2733 0.985 . S
H2730 N2725 0.984 . S
H2731 N2725 0.985 . S
H2732 N2729 0.984 . S
H2733 N2729 0.985 . S
H2734 N2728 0.984 . S
H2735 N2728 0.984 . S
H2736 N2724 0.984 . S
H2737 N2724 0.985 . S
C2738 C2739 1.363 . S
C2738 C2744 1.379 . S
C2738 N2746 1.356 . S
C2739 C2738 1.363 . S
C2739 C2745 1.363 . S
C2740 C2741 1.363 . S
C2740 C2745 1.379 . S
C2740 N2747 1.356 . S
C2741 C2740 1.363 . S
C2741 C2744 1.363 . S
N2742 C2744 1.356 . S
N2742 H2754 0.984 . S
N2742 H2755 0.985 . S
N2743 C2745 1.356 . S
N2743 H2748 0.984 . S
N2743 H2749 0.985 . S
C2744 C2738 1.379 . S
C2744 C2741 1.363 . S
C2744 N2742 1.356 . S
C2745 C2739 1.363 . S
C2745 C2740 1.379 . S
C2745 N2743 1.356 . S
N2746 C2738 1.356 . S
N2746 H2752 0.984 . S
N2746 H2753 0.984 . S
N2747 C2740 1.356 . S
N2747 H2750 0.984 . S
N2747 H2751 0.985 . S
H2748 N2743 0.984 . S
H2749 N2743 0.985 . S
H2750 N2747 0.984 . S
H2751 N2747 0.985 . S
H2752 N2746 0.984 . S
H2753 N2746 0.984 . S
H2754 N2742 0.984 . S
H2755 N2742 0.985 . S
C2756 C2757 1.363 . S
C2756 C2762 1.379 . S
C2756 N2764 1.356 . S
C2757 C2756 1.363 . S
C2757 C2763 1.363 . S
C2758 C2759 1.363 . S
C2758 C2763 1.379 . S
C2758 N2765 1.356 . S
C2759 C2758 1.363 . S
C2759 C2762 1.363 . S
N2760 C2762 1.356 . S
N2760 H2772 0.984 . S
N2760 H2773 0.985 . S
N2761 C2763 1.356 . S
N2761 H2766 0.984 . S
N2761 H2767 0.985 . S
C2762 C2756 1.379 . S
C2762 C2759 1.363 . S
C2762 N2760 1.356 . S
C2763 C2757 1.363 . S
C2763 C2758 1.379 . S
C2763 N2761 1.356 . S
N2764 C2756 1.356 . S
N2764 H2770 0.984 . S
N2764 H2771 0.984 . S
N2765 C2758 1.356 . S
N2765 H2768 0.984 . S
N2765 H2769 0.985 . S
H2766 N2761 0.984 . S
H2767 N2761 0.985 . S
H2768 N2765 0.984 . S
H2769 N2765 0.985 . S
H2770 N2764 0.984 . S
H2771 N2764 0.984 . S
H2772 N2760 0.984 . S
H2773 N2760 0.985 . S
C2774 C2775 1.363 . S
C2774 C2780 1.379 . S
C2774 N2782 1.356 . S
C2775 C2774 1.363 . S
C2775 C2781 1.363 . S
C2776 C2777 1.363 . S
C2776 C2781 1.379 . S
C2776 N2783 1.356 . S
C2777 C2776 1.363 . S
C2777 C2780 1.363 . S
N2778 C2780 1.356 . S
N2778 H2790 0.984 . S
N2778 H2791 0.985 . S
N2779 C2781 1.356 . S
N2779 H2784 0.984 . S
N2779 H2785 0.985 . S
C2780 C2774 1.379 . S
C2780 C2777 1.363 . S
C2780 N2778 1.356 . S
C2781 C2775 1.363 . S
C2781 C2776 1.379 . S
C2781 N2779 1.356 . S
N2782 C2774 1.356 . S
N2782 H2788 0.984 . S
N2782 H2789 0.984 . S
N2783 C2776 1.356 . S
N2783 H2786 0.984 . S
N2783 H2787 0.985 . S
H2784 N2779 0.984 . S
H2785 N2779 0.985 . S
H2786 N2783 0.984 . S
H2787 N2783 0.985 . S
H2788 N2782 0.984 . S
H2789 N2782 0.984 . S
H2790 N2778 0.984 . S
H2791 N2778 0.985 . S
C2792 C2793 1.363 . S
C2792 C2798 1.379 . S
C2792 N2800 1.356 . S
C2793 C2792 1.363 . S
C2793 C2799 1.363 . S
C2794 C2795 1.363 . S
C2794 C2799 1.379 . S
C2794 N2801 1.356 . S
C2795 C2794 1.363 . S
C2795 C2798 1.363 . S
N2796 C2798 1.356 . S
N2796 H2808 0.984 . S
N2796 H2809 0.985 . S
N2797 C2799 1.356 . S
N2797 H2802 0.984 . S
N2797 H2803 0.985 . S
C2798 C2792 1.379 . S
C2798 C2795 1.363 . S
C2798 N2796 1.356 . S
C2799 C2793 1.363 . S
C2799 C2794 1.379 . S
C2799 N2797 1.356 . S
N2800 C2792 1.356 . S
N2800 H2806 0.984 . S
N2800 H2807 0.984 . S
N2801 C2794 1.356 . S
N2801 H2804 0.984 . S
N2801 H2805 0.985 . S
H2802 N2797 0.984 . S
H2803 N2797 0.985 . S
H2804 N2801 0.984 . S
H2805 N2801 0.985 . S
H2806 N2800 0.984 . S
H2807 N2800 0.984 . S
H2808 N2796 0.984 . S
H2809 N2796 0.985 . S
C2810 C2811 1.363 . S
C2810 C2816 1.379 . S
C2810 N2818 1.356 . S
C2811 C2810 1.363 . S
C2811 C2817 1.363 . S
C2812 C2813 1.363 . S
C2812 C2817 1.379 . S
C2812 N2819 1.356 . S
C2813 C2812 1.363 . S
C2813 C2816 1.363 . S
N2814 C2816 1.356 . S
N2814 H2826 0.984 . S
N2814 H2827 0.985 . S
N2815 C2817 1.356 . S
N2815 H2820 0.984 . S
N2815 H2821 0.985 . S
C2816 C2810 1.379 . S
C2816 C2813 1.363 . S
C2816 N2814 1.356 . S
C2817 C2811 1.363 . S
C2817 C2812 1.379 . S
C2817 N2815 1.356 . S
N2818 C2810 1.356 . S
N2818 H2824 0.984 . S
N2818 H2825 0.984 . S
N2819 C2812 1.356 . S
N2819 H2822 0.984 . S
N2819 H2823 0.985 . S
H2820 N2815 0.984 . S
H2821 N2815 0.985 . S
H2822 N2819 0.984 . S
H2823 N2819 0.985 . S
H2824 N2818 0.984 . S
H2825 N2818 0.984 . S
H2826 N2814 0.984 . S
H2827 N2814 0.985 . S
C2828 C2829 1.363 . S
C2828 C2834 1.379 . S
C2828 N2836 1.356 . S
C2829 C2828 1.363 . S
C2829 C2835 1.363 . S
C2830 C2831 1.363 . S
C2830 C2835 1.379 . S
C2830 N2837 1.356 . S
C2831 C2830 1.363 . S
C2831 C2834 1.363 . S
N2832 C2834 1.356 . S
N2832 H2844 0.984 . S
N2832 H2845 0.985 . S
N2833 C2835 1.356 . S
N2833 H2838 0.984 . S
N2833 H2839 0.985 . S
C2834 C2828 1.379 . S
C2834 C2831 1.363 . S
C2834 N2832 1.356 . S
C2835 C2829 1.363 . S
C2835 C2830 1.379 . S
C2835 N2833 1.356 . S
N2836 C2828 1.356 . S
N2836 H2842 0.984 . S
N2836 H2843 0.984 . S
N2837 C2830 1.356 . S
N2837 H2840 0.984 . S
N2837 H2841 0.985 . S
H2838 N2833 0.984 . S
H2839 N2833 0.985 . S
H2840 N2837 0.984 . S
H2841 N2837 0.985 . S
H2842 N2836 0.984 . S
H2843 N2836 0.984 . S
H2844 N2832 0.984 . S
H2845 N2832 0.985 . S
C2846 C2847 1.363 . S
C2846 C2852 1.379 . S
C2846 N2854 1.356 . S
C2847 C2846 1.363 . S
C2847 C2853 1.363 . S
C2848 C2849 1.363 . S
C2848 C2853 1.379 . S
C2848 N2855 1.356 . S
C2849 C2848 1.363 . S
C2849 C2852 1.363 . S
N2850 C2852 1.356 . S
N2850 H2862 0.984 . S
N2850 H2863 0.985 . S
N2851 C2853 1.356 . S
N2851 H2856 0.984 . S
N2851 H2857 0.985 . S
C2852 C2846 1.379 . S
C2852 C2849 1.363 . S
C2852 N2850 1.356 . S
C2853 C2847 1.363 . S
C2853 C2848 1.379 . S
C2853 N2851 1.356 . S
N2854 C2846 1.356 . S
N2854 H2860 0.984 . S
N2854 H2861 0.984 . S
N2855 C2848 1.356 . S
N2855 H2858 0.984 . S
N2855 H2859 0.985 . S
H2856 N2851 0.984 . S
H2857 N2851 0.985 . S
H2858 N2855 0.984 . S
H2859 N2855 0.985 . S
H2860 N2854 0.984 . S
H2861 N2854 0.984 . S
H2862 N2850 0.984 . S
H2863 N2850 0.985 . S
C2864 C2865 1.363 . S
C2864 C2870 1.379 . S
C2864 N2872 1.356 . S
C2865 C2864 1.363 . S
C2865 C2871 1.363 . S
C2866 C2867 1.363 . S
C2866 C2871 1.379 . S
C2866 N2873 1.356 . S
C2867 C2866 1.363 . S
C2867 C2870 1.363 . S
N2868 C2870 1.356 . S
N2868 H2880 0.984 . S
N2868 H2881 0.985 . S
N2869 C2871 1.356 . S
N2869 H2874 0.984 . S
N2869 H2875 0.985 . S
C2870 C2864 1.379 . S
C2870 C2867 1.363 . S
C2870 N2868 1.356 . S
C2871 C2865 1.363 . S
C2871 C2866 1.379 . S
C2871 N2869 1.356 . S
N2872 C2864 1.356 . S
N2872 H2878 0.984 . S
N2872 H2879 0.984 . S
N2873 C2866 1.356 . S
N2873 H2876 0.984 . S
N2873 H2877 0.985 . S
H2874 N2869 0.984 . S
H2875 N2869 0.985 . S
H2876 N2873 0.984 . S
H2877 N2873 0.985 . S
H2878 N2872 0.984 . S
H2879 N2872 0.984 . S
H2880 N2868 0.984 . S
H2881 N2868 0.985 . S
C2882 C2883 1.363 . S
C2882 C2888 1.379 . S
C2882 N2890 1.356 . S
C2883 C2882 1.363 . S
C2883 C2889 1.363 . S
C2884 C2885 1.363 . S
C2884 C2889 1.379 . S
C2884 N2891 1.356 . S
C2885 C2884 1.363 . S
C2885 C2888 1.363 . S
N2886 C2888 1.356 . S
N2886 H2898 0.984 . S
N2886 H2899 0.985 . S
N2887 C2889 1.356 . S
N2887 H2892 0.984 . S
N2887 H2893 0.985 . S
C2888 C2882 1.379 . S
C2888 C2885 1.363 . S
C2888 N2886 1.356 . S
C2889 C2883 1.363 . S
C2889 C2884 1.379 . S
C2889 N2887 1.356 . S
N2890 C2882 1.356 . S
N2890 H2896 0.984 . S
N2890 H2897 0.984 . S
N2891 C2884 1.356 . S
N2891 H2894 0.984 . S
N2891 H2895 0.985 . S
H2892 N2887 0.984 . S
H2893 N2887 0.985 . S
H2894 N2891 0.984 . S
H2895 N2891 0.985 . S
H2896 N2890 0.984 . S
H2897 N2890 0.984 . S
H2898 N2886 0.984 . S
H2899 N2886 0.985 . S
C2900 C2901 1.363 . S
C2900 C2906 1.379 . S
C2900 N2908 1.356 . S
C2901 C2900 1.363 . S
C2901 C2907 1.363 . S
C2902 C2903 1.363 . S
C2902 C2907 1.379 . S
C2902 N2909 1.356 . S
C2903 C2902 1.363 . S
C2903 C2906 1.363 . S
N2904 C2906 1.356 . S
N2904 H2916 0.984 . S
N2904 H2917 0.985 . S
N2905 C2907 1.356 . S
N2905 H2910 0.984 . S
N2905 H2911 0.985 . S
C2906 C2900 1.379 . S
C2906 C2903 1.363 . S
C2906 N2904 1.356 . S
C2907 C2901 1.363 . S
C2907 C2902 1.379 . S
C2907 N2905 1.356 . S
N2908 C2900 1.356 . S
N2908 H2914 0.984 . S
N2908 H2915 0.984 . S
N2909 C2902 1.356 . S
N2909 H2912 0.984 . S
N2909 H2913 0.985 . S
H2910 N2905 0.984 . S
H2911 N2905 0.985 . S
H2912 N2909 0.984 . S
H2913 N2909 0.985 . S
H2914 N2908 0.984 . S
H2915 N2908 0.984 . S
H2916 N2904 0.984 . S
H2917 N2904 0.985 . S
C2918 C2919 1.363 . S
C2918 C2924 1.379 . S
C2918 N2926 1.356 . S
C2919 C2918 1.363 . S
C2919 C2925 1.363 . S
C2920 C2921 1.363 . S
C2920 C2925 1.379 . S
C2920 N2927 1.356 . S
C2921 C2920 1.363 . S
C2921 C2924 1.363 . S
N2922 C2924 1.356 . S
N2922 H2934 0.984 . S
N2922 H2935 0.985 . S
N2923 C2925 1.356 . S
N2923 H2928 0.984 . S
N2923 H2929 0.985 . S
C2924 C2918 1.379 . S
C2924 C2921 1.363 . S
C2924 N2922 1.356 . S
C2925 C2919 1.363 . S
C2925 C2920 1.379 . S
C2925 N2923 1.356 . S
N2926 C2918 1.356 . S
N2926 H2932 0.984 . S
N2926 H2933 0.984 . S
N2927 C2920 1.356 . S
N2927 H2930 0.984 . S
N2927 H2931 0.985 . S
H2928 N2923 0.984 . S
H2929 N2923 0.985 . S
H2930 N2927 0.984 . S
H2931 N2927 0.985 . S
H2932 N2926 0.984 . S
H2933 N2926 0.984 . S
H2934 N2922 0.984 . S
H2935 N2922 0.985 . S
C2936 C2937 1.363 . S
C2936 C2942 1.379 . S
C2936 N2944 1.356 . S
C2937 C2936 1.363 . S
C2937 C2943 1.363 . S
C2938 C2939 1.363 . S
C2938 C2943 1.379 . S
C2938 N2945 1.356 . S
C2939 C2938 1.363 . S
C2939 C2942 1.363 . S
N2940 C2942 1.356 . S
N2940 H2952 0.984 . S
N2940 H2953 0.985 . S
N2941 C2943 1.356 . S
N2941 H2946 0.984 . S
N2941 H2947 0.985 . S
C2942 C2936 1.379 . S
C2942 C2939 1.363 . S
C2942 N2940 1.356 . S
C2943 C2937 1.363 . S
C2943 C2938 1.379 . S
C2943 N2941 1.356 . S
N2944 C2936 1.356 . S
N2944 H2950 0.984 . S
N2944 H2951 0.984 . S
N2945 C2938 1.356 . S
N2945 H2948 0.984 . S
N2945 H2949 0.985 . S
H2946 N2941 0.984 . S
H2947 N2941 0.985 . S
H2948 N2945 0.984 . S
H2949 N2945 0.985 . S
H2950 N2944 0.984 . S
H2951 N2944 0.984 . S
H2952 N2940 0.984 . S
H2953 N2940 0.985 . S
C2954 C2955 1.363 . S
C2954 C2960 1.379 . S
C2954 N2962 1.356 . S
C2955 C2954 1.363 . S
C2955 C2961 1.363 . S
C2956 C2957 1.363 . S
C2956 C2961 1.379 . S
C2956 N2963 1.356 . S
C2957 C2956 1.363 . S
C2957 C2960 1.363 . S
N2958 C2960 1.356 . S
N2958 H2970 0.984 . S
N2958 H2971 0.985 . S
N2959 C2961 1.356 . S
N2959 H2964 0.984 . S
N2959 H2965 0.985 . S
C2960 C2954 1.379 . S
C2960 C2957 1.363 . S
C2960 N2958 1.356 . S
C2961 C2955 1.363 . S
C2961 C2956 1.379 . S
C2961 N2959 1.356 . S
N2962 C2954 1.356 . S
N2962 H2968 0.984 . S
N2962 H2969 0.984 . S
N2963 C2956 1.356 . S
N2963 H2966 0.984 . S
N2963 H2967 0.985 . S
H2964 N2959 0.984 . S
H2965 N2959 0.985 . S
H2966 N2963 0.984 . S
H2967 N2963 0.985 . S
H2968 N2962 0.984 . S
H2969 N2962 0.984 . S
H2970 N2958 0.984 . S
H2971 N2958 0.985 . S
C2972 C2973 1.363 . S
C2972 C2978 1.379 . S
C2972 N2980 1.356 . S
C2973 C2972 1.363 . S
C2973 C2979 1.363 . S
C2974 C2975 1.363 . S
C2974 C2979 1.379 . S
C2974 N2981 1.356 . S
C2975 C2974 1.363 . S
C2975 C2978 1.363 . S
N2976 C2978 1.356 . S
N2976 H2988 0.984 . S
N2976 H2989 0.985 . S
N2977 C2979 1.356 . S
N2977 H2982 0.984 . S
N2977 H2983 0.985 . S
C2978 C2972 1.379 . S
C2978 C2975 1.363 . S
C2978 N2976 1.356 . S
C2979 C2973 1.363 . S
C2979 C2974 1.379 . S
C2979 N2977 1.356 . S
N2980 C2972 1.356 . S
N2980 H2986 0.984 . S
N2980 H2987 0.984 . S
N2981 C2974 1.356 . S
N2981 H2984 0.984 . S
N2981 H2985 0.985 . S
H2982 N2977 0.984 . S
H2983 N2977 0.985 . S
H2984 N2981 0.984 . S
H2985 N2981 0.985 . S
H2986 N2980 0.984 . S
H2987 N2980 0.984 . S
H2988 N2976 0.984 . S
H2989 N2976 0.985 . S
C2990 C2991 1.363 . S
C2990 C2996 1.379 . S
C2990 N2998 1.356 . S
C2991 C2990 1.363 . S
C2991 C2997 1.363 . S
C2992 C2993 1.363 . S
C2992 C2997 1.379 . S
C2992 N2999 1.356 . S
C2993 C2992 1.363 . S
C2993 C2996 1.363 . S
N2994 C2996 1.356 . S
N2994 H3006 0.984 . S
N2994 H3007 0.985 . S
N2995 C2997 1.356 . S
N2995 H3000 0.984 . S
N2995 H3001 0.985 . S
C2996 C2990 1.379 . S
C2996 C2993 1.363 . S
C2996 N2994 1.356 . S
C2997 C2991 1.363 . S
C2997 C2992 1.379 . S
C2997 N2995 1.356 . S
N2998 C2990 1.356 . S
N2998 H3004 0.984 . S
N2998 H3005 0.984 . S
N2999 C2992 1.356 . S
N2999 H3002 0.984 . S
N2999 H3003 0.985 . S
H3000 N2995 0.984 . S
H3001 N2995 0.985 . S
H3002 N2999 0.984 . S
H3003 N2999 0.985 . S
H3004 N2998 0.984 . S
H3005 N2998 0.984 . S
H3006 N2994 0.984 . S
H3007 N2994 0.985 . S
C1281 C7 1.046 . S
C1283 C131 1.004 . S
C1299 C11 1.004 . S
C1301 C47 1.046 . S
C1317 C87 1.046 . S
C1319 C51 1.004 . S
C1335 C91 1.004 . S
C1337 C127 1.046 . S
C1353 C211 1.004 . S
C1355 C167 1.046 . S
C1371 C207 1.046 . S
C1373 C251 1.004 . S
C1389 C291 1.004 . S
C1391 C247 1.046 . S
C1407 C171 1.004 . S
C1409 C287 1.046 . S
C1425 C336 1.046 . S
C1427 C442 1.004 . S
C1443 C376 1.046 . S
C1445 C322 1.004 . S
C1461 C416 1.046 . S
C1463 C362 1.004 . S
C1479 C456 1.046 . S
C1481 C402 1.004 . S
C1497 C496 1.046 . S
C1499 C522 1.004 . S
C1515 C536 1.046 . S
C1517 C562 1.004 . S
C1533 C602 1.004 . S
C1535 C576 1.046 . S
C1551 C482 1.004 . S
C1553 C616 1.046 . S
C1569 C647 1.046 . S
C1571 C771 1.004 . S
C1587 C651 1.004 . S
C1589 C687 1.046 . S
C1605 C691 1.004 . S
C1607 C727 1.046 . S
C1623 C767 1.046 . S
C1625 C731 1.004 . S
C1641 C807 1.046 . S
C1643 C851 1.004 . S
C1659 C891 1.004 . S
C1661 C847 1.046 . S
C1677 C887 1.046 . S
C1679 C931 1.004 . S
C1695 C811 1.004 . S
C1697 C927 1.046 . S
C1713 C1082 1.004 . S
C1715 C976 1.046 . S
C1731 C962 1.004 . S
C1733 C1016 1.046 . S
C1749 C1056 1.046 . S
C1751 C1002 1.004 . S
C1767 C1042 1.004 . S
C1769 C1096 1.046 . S
C1785 C1162 1.004 . S
C1787 C1136 1.046 . S
C1803 C1202 1.004 . S
C1805 C1176 1.046 . S
C1821 C1242 1.004 . S
C1823 C1216 1.046 . S
C1839 C1256 1.046 . S
C1841 C1122 1.004 . S
C1857 C1087 1.627 . S
C1859 C10 1.563 . S
C1875 C50 1.563 . S
C1877 C327 1.627 . S
C1893 C90 1.563 . S
C1895 C1007 1.627 . S
C1911 C130 1.563 . S
C1913 C407 1.627 . S
C1929 C170 1.563 . S
C1931 C1167 1.627 . S
C1947 C567 1.627 . S
C1949 C210 1.563 . S
C1965 C1247 1.627 . S
C1967 C250 1.563 . S
C1983 C290 1.563 . S
C1985 C487 1.627 . S
C2001 C339 1.563 . S
C2003 C776 1.627 . S
C2019 C16 1.627 . S
C2021 C379 1.563 . S
C2037 C696 1.627 . S
C2039 C419 1.563 . S
C2055 C96 1.627 . S
C2057 C459 1.563 . S
C2073 C856 1.627 . S
C2075 C499 1.563 . S
C2091 C256 1.627 . S
C2093 C539 1.563 . S
C2109 C579 1.563 . S
C2111 C936 1.627 . S
C2127 C619 1.563 . S
C2129 C176 1.627 . S
C2145 C650 1.563 . S
C2147 C447 1.627 . S
C2163 C690 1.563 . S
C2165 C967 1.627 . S
C2181 C730 1.563 . S
C2183 C367 1.627 . S
C2199 C770 1.563 . S
C2201 C1047 1.627 . S
C2217 C810 1.563 . S
C2219 C527 1.627 . S
C2235 C850 1.563 . S
C2237 C1207 1.627 . S
C2253 C607 1.627 . S
C2255 C890 1.563 . S
C2271 C930 1.563 . S
C2273 C1127 1.627 . S
C2289 C136 1.627 . S
C2291 C979 1.563 . S
C2307 C656 1.627 . S
C2309 C1019 1.563 . S
C2325 C56 1.627 . S
C2327 C1059 1.563 . S
C2343 C736 1.627 . S
C2345 C1099 1.563 . S
C2361 C216 1.627 . S
C2363 C1139 1.563 . S
C2379 C1179 1.563 . S
C2381 C896 1.627 . S
C2397 C1219 1.563 . S
C2399 C296 1.627 . S
C2415 C816 1.627 . S
C2417 C1259 1.563 . S
C2433 C19 1.272 . S
C2435 C179 1.272 . S
C2451 C59 1.272 . S
C2453 C219 1.272 . S
C2469 C99 1.272 . S
C2471 C259 1.272 . S
C2487 C299 1.272 . S
C2489 C139 1.272 . S
C2505 C490 1.272 . S
C2507 C330 1.272 . S
C2523 C530 1.272 . S
C2525 C370 1.272 . S
C2541 C410 1.272 . S
C2543 C570 1.272 . S
C2559 C450 1.272 . S
C2561 C610 1.272 . S
C2577 C659 1.272 . S
C2579 C819 1.272 . S
C2595 C859 1.272 . S
C2597 C699 1.272 . S
C2613 C899 1.272 . S
C2615 C739 1.272 . S
C2631 C939 1.272 . S
C2633 C779 1.272 . S
C2649 C1130 1.272 . S
C2651 C970 1.272 . S
C2667 C1010 1.272 . S
C2669 C1170 1.272 . S
C2685 C1210 1.272 . S
C2687 C1050 1.272 . S
C2703 C1090 1.272 . S
C2705 C1250 1.272 . S
C2721 C282 2.710 . S
C2723 C2 2.710 . S
C2739 C42 2.710 . S
C2741 C162 2.710 . S
C2757 C82 2.710 . S
C2759 C202 2.710 . S
C2775 C242 2.710 . S
C2777 C122 2.710 . S
C2793 C331 2.710 . S
C2795 C611 2.710 . S
C2811 C491 2.710 . S
C2813 C371 2.710 . S
C2829 C531 2.710 . S
C2831 C411 2.710 . S
C2847 C451 2.710 . S
C2849 C571 2.710 . S
C2865 C642 2.710 . S
C2867 C922 2.710 . S
C2883 C802 2.710 . S
C2885 C682 2.710 . S
C2901 C842 2.710 . S
C2903 C722 2.710 . S
C2919 C882 2.710 . S
C2921 C762 2.710 . S
C2937 C971 2.710 . S
C2939 C1251 2.710 . S
C2955 C1131 2.710 . S
C2957 C1011 2.710 . S
C2973 C1051 2.710 . S
C2975 C1171 2.710 . S
C2991 C1211 2.710 . S
C2993 C1091 2.710 . S
