# Generated by pormake.
# Topology ooa, (5)-cn, num edge types: 1
# Building blocks:
#     Node 0, Type 0, BuildingBlock: XOMCOT_clean_sbu_1, # of connection points: 5
#     Node 1, Type 0, BuildingBlock: XOMCOT_clean_sbu_1, # of connection points: 5
#     Node 2, Type 0, BuildingBlock: XOMCOT_clean_sbu_1, # of connection points: 5
#     Node 3, Type 0, BuildingBlock: XOMCOT_clean_sbu_1, # of connection points: 5
#     Node 4, Type 0, BuildingBlock: XOMCOT_clean_sbu_1, # of connection points: 5
#     Node 5, Type 0, BuildingBlock: XOMCOT_clean_sbu_1, # of connection points: 5
#     Node 6, Type 0, BuildingBlock: XOMCOT_clean_sbu_1, # of connection points: 5
#     Node 7, Type 0, BuildingBlock: XOMCOT_clean_sbu_1, # of connection points: 5
#     Edge 8, Type (0, 0), BuildingBlock: MIFKUJ_clean_linker_0, # of connection points: 2
#     Edge 9, Type (0, 0), BuildingBlock: MIFKUJ_clean_linker_0, # of connection points: 2
#     Edge 10, Type (0, 0), BuildingBlock: MIFKUJ_clean_linker_0, # of connection points: 2
#     Edge 11, Type (0, 0), BuildingBlock: MIFKUJ_clean_linker_0, # of connection points: 2
#     Edge 12, Type (0, 0), BuildingBlock: MIFKUJ_clean_linker_0, # of connection points: 2
#     Edge 13, Type (0, 0), BuildingBlock: MIFKUJ_clean_linker_0, # of connection points: 2
#     Edge 14, Type (0, 0), BuildingBlock: MIFKUJ_clean_linker_0, # of connection points: 2
#     Edge 15, Type (0, 0), BuildingBlock: MIFKUJ_clean_linker_0, # of connection points: 2
#     Edge 16, Type (0, 0), BuildingBlock: MIFKUJ_clean_linker_0, # of connection points: 2
#     Edge 17, Type (0, 0), BuildingBlock: MIFKUJ_clean_linker_0, # of connection points: 2
#     Edge 18, Type (0, 0), BuildingBlock: MIFKUJ_clean_linker_0, # of connection points: 2
#     Edge 19, Type (0, 0), BuildingBlock: MIFKUJ_clean_linker_0, # of connection points: 2
#     Edge 20, Type (0, 0), BuildingBlock: MIFKUJ_clean_linker_0, # of connection points: 2
#     Edge 21, Type (0, 0), BuildingBlock: MIFKUJ_clean_linker_0, # of connection points: 2
#     Edge 22, Type (0, 0), BuildingBlock: MIFKUJ_clean_linker_0, # of connection points: 2
#     Edge 23, Type (0, 0), BuildingBlock: MIFKUJ_clean_linker_0, # of connection points: 2
#     Edge 24, Type (0, 0), BuildingBlock: MIFKUJ_clean_linker_0, # of connection points: 2
#     Edge 25, Type (0, 0), BuildingBlock: MIFKUJ_clean_linker_0, # of connection points: 2
#     Edge 26, Type (0, 0), BuildingBlock: MIFKUJ_clean_linker_0, # of connection points: 2
#     Edge 27, Type (0, 0), BuildingBlock: MIFKUJ_clean_linker_0, # of connection points: 2
# Relax obj value: 0.414
# Max RMSD: 0.217
# Mean RMSD: 0.217
data_MOF--net-ooa--node1-XOMCOT_clean_sbu_1--edge1-MIFKUJ_clean_linker_0
_symmetry_space_group_name_H-M    P1
_symmetry_Int_Tables_number       1
_symmetry_cell_setting            triclinic
loop_
_symmetry_equiv_pos_as_xyz
'x, y, z'
_cell_length_a     37.30527
_cell_length_b     38.395363
_cell_length_c     60.96367
_cell_angle_alpha  90.028002
_cell_angle_beta   90.122564
_cell_angle_gamma 89.961105
loop_
_atom_site_label
_atom_site_type_symbol
_atom_site_fract_x
_atom_site_fract_y
_atom_site_fract_z
_atom_type_partial_charge
C0 C 0.08338 0.16368 0.0988 0.0
C1 C 0.10272 0.13374 0.10234 0.0
N2 N 0.12587 0.12974 0.08559 0.0
N3 N 0.09439 0.17859 0.07997 0.0
C4 C 0.12036 0.15733 0.07227 0.0
H5 H 0.0618 0.17342 0.10892 0.0
Co6 Co 0.07176 0.21629 0.06677 0.0
C7 C 0.13477 0.2562 0.04901 0.0
O8 O 0.12316 0.28548 0.05752 0.0
N9 N 0.04636 0.25408 0.05323 0.0
C10 C 0.01691 0.30406 0.04746 0.0
C11 C 0.04528 0.28845 0.05821 0.0
C12 C 0.01835 0.24998 0.03923 0.0
N13 N 0.99984 0.27961 0.03558 0.0
O14 O 0.05936 0.18634 0.04314 0.0
H15 H 0.06196 0.30116 0.0703 0.0
H16 H 1.00945 0.22522 0.03306 0.0
O17 O 0.11667 0.22825 0.05164 0.0
C18 C 0.03229 0.16762 0.04791 0.0
O19 O 0.01554 0.17349 0.06651 0.0
N20 N 0.08255 0.24316 0.09163 0.0
C21 C 0.09019 0.25631 0.13639 0.0
C22 C 0.12045 0.25131 0.12311 0.0
C23 C 0.11605 0.24446 0.10072 0.0
C24 C 0.05312 0.25063 0.10397 0.0
C25 C 0.05637 0.25776 0.12631 0.0
H26 H 0.13916 0.23614 0.09146 0.0
H27 H 0.02664 0.24777 0.09692 0.0
H28 H 0.1336 0.16099 0.05667 0.0
H29 H 0.09964 0.11604 0.11602 0.0
H30 H 1.00847 0.33087 0.04924 0.0
H31 H 0.14697 0.24927 0.13025 0.0
H32 H 0.03232 0.26176 0.13592 0.0
C33 C 0.42819 0.82525 0.10766 0.0
C34 C 0.40474 0.85182 0.11247 0.0
N35 N 0.38149 0.85475 0.09567 0.0
N36 N 0.41978 0.81174 0.08787 0.0
C37 C 0.39122 0.83037 0.08094 0.0
H38 H 0.45085 0.81718 0.11753 0.0
Co39 Co 0.44725 0.77913 0.07279 0.0
C40 C 0.38887 0.73536 0.05147 0.0
O41 O 0.40421 0.70582 0.05678 0.0
N42 N 0.47749 0.74678 0.05759 0.0
C43 C 0.51237 0.7007 0.05066 0.0
C44 C 0.48127 0.712 0.0605 0.0
C45 C 0.5069 0.75562 0.0457 0.0
N46 N 0.5286 0.72827 0.04144 0.0
O47 O 0.45593 0.81364 0.05103 0.0
H48 H 0.46471 0.6961 0.071 0.0
H49 H 0.51431 0.78206 0.04185 0.0
O50 O 0.40379 0.76417 0.05675 0.0
C51 C 0.47921 0.83535 0.05791 0.0
O52 O 0.49567 0.82879 0.07655 0.0
N53 N 0.43999 0.74781 0.09588 0.0
C54 C 0.43464 0.731 0.14018 0.0
C55 C 0.40376 0.7331 0.12701 0.0
C56 C 0.40701 0.7416 0.10478 0.0
C57 C 0.4703 0.74247 0.10793 0.0
C58 C 0.46823 0.73339 0.13 0.0
H59 H 0.38295 0.7477 0.09567 0.0
H60 H 0.49616 0.74892 0.10105 0.0
H61 H 0.37938 0.82785 0.06483 0.0
H62 H 0.40528 0.86837 0.12685 0.0
H63 H 0.5233 0.6746 0.05143 0.0
H64 H 0.37728 0.73184 0.1342 0.0
H65 H 0.49278 0.73134 0.13943 0.0
C66 C 0.09694 0.31319 0.39643 0.0
C67 C 0.11906 0.34046 0.39114 0.0
N68 N 0.13675 0.35057 0.40941 0.0
N69 N 0.10095 0.30553 0.41786 0.0
C70 C 0.12523 0.32879 0.42535 0.0
H71 H 0.07852 0.3003 0.38539 0.0
Co72 Co 0.07456 0.27305 0.43379 0.0
C73 C 0.12672 0.24952 0.46851 0.0
O74 O 0.10165 0.24301 0.48303 0.0
N75 N 0.04622 0.24104 0.44957 0.0
C76 C 0.01838 0.19333 0.46156 0.0
C77 C 0.04895 0.20609 0.45156 0.0
C78 C 0.01402 0.24875 0.45858 0.0
N79 N 0.99661 0.2204 0.46604 0.0
O80 O 0.06493 0.3081 0.45492 0.0
H81 H 0.07098 0.19072 0.44531 0.0
H82 H 1.00226 0.27443 0.45858 0.0
O83 O 0.11823 0.26043 0.44945 0.0
C84 C 0.04103 0.32956 0.44866 0.0
O85 O 0.02435 0.32387 0.42998 0.0
N86 N 0.08319 0.23997 0.41189 0.0
C87 C 0.09444 0.21509 0.36957 0.0
C88 C 0.12293 0.21706 0.38462 0.0
C89 C 0.1168 0.22979 0.40575 0.0
C90 C 0.05459 0.23438 0.39844 0.0
C91 C 0.0596 0.22195 0.37714 0.0
H92 H 0.13969 0.23474 0.41615 0.0
H93 H 0.0283 0.24329 0.40339 0.0
H94 H 0.13304 0.33048 0.44241 0.0
H95 H 0.12147 0.35198 0.37504 0.0
H96 H 0.01232 0.16627 0.46487 0.0
H97 H 0.15015 0.21142 0.37961 0.0
H98 H 0.03679 0.22112 0.36614 0.0
C99 C 0.42007 0.67454 0.39853 0.0
C100 C 0.39612 0.64876 0.39299 0.0
N101 N 0.37816 0.63939 0.41122 0.0
N102 N 0.4169 0.6817 0.42009 0.0
C103 C 0.39134 0.65972 0.4274 0.0
H104 H 0.4391 0.68676 0.38762 0.0
Co105 Co 0.44457 0.7128 0.43636 0.0
C106 C 0.39365 0.72476 0.47329 0.0
O107 O 0.41806 0.71753 0.48817 0.0
N108 N 0.47344 0.74319 0.45251 0.0
C109 C 0.49765 0.78448 0.4734 0.0
C110 C 0.46645 0.77293 0.46348 0.0
C111 C 0.50885 0.73764 0.45557 0.0
N112 N 0.52432 0.76217 0.46831 0.0
O113 O 0.45621 0.67624 0.45615 0.0
H114 H 0.44043 0.78528 0.46437 0.0
H115 H 0.52295 0.71547 0.44887 0.0
O116 O 0.40199 0.7248 0.45302 0.0
C117 C 0.47866 0.65519 0.44769 0.0
O118 O 0.49084 0.66163 0.42789 0.0
N119 N 0.43501 0.7474 0.41572 0.0
C120 C 0.42393 0.7728 0.37355 0.0
C121 C 0.39507 0.76924 0.38814 0.0
C122 C 0.40116 0.75641 0.40928 0.0
C123 C 0.46372 0.75458 0.40275 0.0
C124 C 0.45881 0.76743 0.38157 0.0
H125 H 0.37828 0.74997 0.41932 0.0
H126 H 0.49021 0.74639 0.40783 0.0
H127 H 0.38293 0.65838 0.44436 0.0
H128 H 0.39311 0.63698 0.37696 0.0
H129 H 0.5005 0.80762 0.4834 0.0
H130 H 0.36777 0.77354 0.38269 0.0
H131 H 0.48189 0.76947 0.37092 0.0
C132 C 0.93476 0.82277 0.90042 0.0
C133 C 0.91539 0.85187 0.89486 0.0
N134 N 0.89347 0.85996 0.91169 0.0
N135 N 0.92503 0.81219 0.9206 0.0
C136 C 0.89986 0.8353 0.92709 0.0
H137 H 0.95605 0.81124 0.89085 0.0
Co138 Co 0.94934 0.77872 0.93691 0.0
C139 C 0.89616 0.76137 0.97133 0.0
O140 O 0.92102 0.76316 0.98658 0.0
N141 N 0.97592 0.74614 0.95303 0.0
C142 C 1.00012 0.70026 0.96982 0.0
C143 C 0.97005 0.71278 0.95898 0.0
C144 C 1.00949 0.75302 0.96014 0.0
N145 N 0.02477 0.72592 0.97063 0.0
O146 O 0.95797 0.81285 0.95871 0.0
H147 H 0.94576 0.69843 0.95547 0.0
H148 H 0.02319 0.77726 0.95706 0.0
O149 O 0.90455 0.76605 0.95127 0.0
C150 C 0.98206 0.83473 0.95356 0.0
O151 O 0.99989 0.83018 0.93519 0.0
N152 N 0.94177 0.74652 0.91444 0.0
C153 C 0.93308 0.72455 0.87127 0.0
C154 C 0.90349 0.72678 0.88539 0.0
C155 C 0.90835 0.73803 0.90698 0.0
C156 C 0.97122 0.74056 0.90183 0.0
C157 C 0.9675 0.72953 0.8801 0.0
H158 H 0.88484 0.74341 0.91669 0.0
H159 H 0.99738 0.74824 0.9078 0.0
H160 H 0.88769 0.83474 0.94317 0.0
H161 H 0.91878 0.86687 0.88 0.0
H162 H 1.00349 0.67443 0.97663 0.0
H163 H 0.87652 0.72259 0.87934 0.0
H164 H 0.9911 0.72835 0.86982 0.0
C165 C 0.59758 0.17391 0.89862 0.0
C166 C 0.62077 0.14771 0.89277 0.0
N167 N 0.64273 0.14124 0.90989 0.0
N168 N 0.60514 0.18433 0.91923 0.0
C169 C 0.63255 0.16379 0.92575 0.0
H170 H 0.57592 0.1841 0.88871 0.0
Co171 Co 0.57864 0.21648 0.93534 0.0
C172 C 0.63771 0.2601 0.95479 0.0
O173 O 0.62172 0.28915 0.94888 0.0
N174 N 0.54944 0.24705 0.95179 0.0
C175 C 0.52325 0.27408 0.97993 0.0
C176 C 0.55545 0.26428 0.9708 0.0
C177 C 0.51319 0.24581 0.95029 0.0
N178 N 0.49659 0.26199 0.96715 0.0
O179 O 0.57044 0.18199 0.95685 0.0
H180 H 0.58086 0.26622 0.97915 0.0
H181 H 0.49918 0.23079 0.93796 0.0
O182 O 0.62287 0.23075 0.95071 0.0
C183 C 0.54501 0.16168 0.95144 0.0
O184 O 0.52808 0.16735 0.93285 0.0
N185 N 0.58544 0.2493 0.91264 0.0
C186 C 0.59273 0.26947 0.86884 0.0
C187 C 0.6229 0.26619 0.88244 0.0
C188 C 0.61877 0.25543 0.90413 0.0
C189 C 0.55567 0.25625 0.90037 0.0
C190 C 0.55869 0.26639 0.87842 0.0
H191 H 0.64262 0.24771 0.91289 0.0
H192 H 0.52949 0.2497 0.90655 0.0
H193 H 0.64421 0.16489 0.942 0.0
H194 H 0.62045 0.13358 0.87741 0.0
H195 H 0.51973 0.286 0.99588 0.0
H196 H 0.64972 0.26869 0.87586 0.0
H197 H 0.53457 0.26816 0.86858 0.0
C198 C 0.91979 0.66821 0.60386 0.0
C199 C 0.89477 0.64245 0.60732 0.0
N200 N 0.87688 0.63719 0.5884 0.0
N201 N 0.91709 0.67952 0.58297 0.0
C202 C 0.89094 0.65987 0.57393 0.0
H203 H 0.93912 0.67766 0.6157 0.0
Co204 Co 0.9456 0.71222 0.56872 0.0
C205 C 0.89393 0.7324 0.53438 0.0
O206 O 0.91733 0.72343 0.51933 0.0
N207 N 0.97526 0.74434 0.5542 0.0
C208 C 1.00377 0.79218 0.54307 0.0
C209 C 0.97276 0.77935 0.55254 0.0
C210 C 1.00755 0.73659 0.54541 0.0
N211 N 0.02526 0.765 0.53848 0.0
O212 O 0.95269 0.67939 0.5459 0.0
H213 H 0.95061 0.79466 0.55871 0.0
H214 H 0.01911 0.71083 0.5451 0.0
O215 O 0.9027 0.73084 0.55461 0.0
C216 C 0.97651 0.65731 0.55138 0.0
O217 O 0.99315 0.66119 0.57026 0.0
N218 N 0.94061 0.74245 0.59251 0.0
C219 C 0.93796 0.76012 0.63673 0.0
C220 C 0.90643 0.75921 0.62405 0.0
C221 C 0.90835 0.75045 0.60179 0.0
C222 C 0.97167 0.74704 0.60391 0.0
C223 C 0.97097 0.75642 0.62597 0.0
H224 H 0.88372 0.74583 0.59289 0.0
H225 H 0.99696 0.73993 0.59651 0.0
H226 H 0.88275 0.66178 0.55692 0.0
H227 H 0.89091 0.62783 0.62231 0.0
H228 H 1.01034 0.81926 0.54022 0.0
H229 H 0.88033 0.76176 0.63162 0.0
H230 H 0.99603 0.75783 0.63494 0.0
C231 C 0.59981 0.31367 0.60605 0.0
C232 C 0.62226 0.34116 0.61059 0.0
N233 N 0.64079 0.34893 0.59225 0.0
N234 N 0.60447 0.30381 0.58502 0.0
C235 C 0.62966 0.32563 0.57709 0.0
H236 H 0.58025 0.30258 0.61709 0.0
Co237 Co 0.57648 0.2726 0.5689 0.0
C238 C 0.62846 0.25049 0.53476 0.0
O239 O 0.60401 0.25351 0.51933 0.0
N240 N 0.54709 0.24235 0.55275 0.0
C241 C 0.51891 0.19713 0.53773 0.0
C242 C 0.54999 0.20812 0.54806 0.0
C243 C 0.51433 0.25148 0.54516 0.0
N244 N 0.49662 0.22464 0.53586 0.0
O245 O 0.57026 0.30752 0.54713 0.0
H246 H 0.5727 0.19202 0.55246 0.0
H247 H 0.50282 0.27709 0.54731 0.0
O248 O 0.62005 0.25597 0.55474 0.0
C249 C 0.54938 0.33127 0.55413 0.0
O250 O 0.53386 0.32711 0.5733 0.0
N251 N 0.58079 0.23995 0.59144 0.0
C252 C 0.58236 0.21996 0.63527 0.0
C253 C 0.61425 0.22187 0.62305 0.0
C254 C 0.61287 0.23171 0.60096 0.0
C255 C 0.54946 0.23401 0.60221 0.0
C256 C 0.54963 0.22343 0.62407 0.0
H257 H 0.63771 0.23722 0.59255 0.0
H258 H 0.52428 0.24124 0.59466 0.0
H259 H 0.63772 0.32591 0.56006 0.0
H260 H 0.6239 0.35494 0.62604 0.0
H261 H 0.51305 0.17093 0.53224 0.0
H262 H 0.64016 0.21949 0.63094 0.0
H263 H 0.52433 0.2212 0.63263 0.0
H264 H 0.96855 0.13365 0.04937 0.0
H265 H 0.95307 0.07935 0.03083 0.0
H266 H 0.0537 0.08183 0.99614 0.0
H267 H 0.06933 0.13655 0.01454 0.0
H268 H 0.99422 0.05365 0.97122 0.0
H269 H 0.05172 0.04321 0.04283 0.0
H270 H 0.05569 0.05597 0.08237 0.0
H271 H 0.95311 0.00819 0.09265 0.0
H272 H 0.94795 -0.00385 0.053 0.0
H273 H 0.03658 0.88106 0.95002 0.0
H274 H 0.03971 0.93911 0.96614 0.0
H275 H 0.94116 0.92015 1.00105 0.0
H276 H 0.93791 0.86165 0.98506 0.0
H277 H 0.99186 0.95724 0.02556 0.0
H278 H 0.93629 0.96056 0.95567 0.0
H279 H 0.93108 0.94607 0.91645 0.0
H280 H 0.02522 0.00641 0.90267 0.0
H281 H 0.03184 0.02024 0.94198 0.0
C282 C 0.98708 0.12304 0.03745 0.0
C283 C 0.02046 0.13887 0.03368 0.0
C284 C 0.9781 0.09213 0.02682 0.0
C285 C 1.00253 0.07644 0.01245 0.0
C286 C 0.03456 0.09366 0.00723 0.0
C287 C 0.04351 0.12477 0.0178 0.0
C288 C 0.9971 0.04004 0.00544 0.0
C289 C 0.99387 0.03252 0.98302 0.0
C290 C 0.99567 0.0127 0.02101 0.0
C291 C 0.99927 0.01913 0.04492 0.0
C292 C 0.02989 0.03566 0.05349 0.0
C293 C 0.03237 0.04275 0.07592 0.0
C294 C 1.00472 0.03287 0.09003 0.0
C295 C 0.9745 0.01586 0.08171 0.0
C296 C 0.97174 0.00896 0.05925 0.0
C297 C 0.01585 0.88901 0.96139 0.0
C298 C 0.98677 0.86709 0.9661 0.0
C299 C 0.01767 0.92215 0.97055 0.0
C300 C 0.99027 0.93398 0.98438 0.0
C301 C 0.96241 0.91139 0.99029 0.0
C302 C 0.96062 0.87806 0.98117 0.0
C303 C 0.98972 0.97075 0.99132 0.0
C304 C 0.99177 0.97836 0.01373 0.0
C305 C 0.98957 -0.0019 0.97574 0.0
C306 C 0.98482 0.99114 0.95189 0.0
C307 C 0.95616 0.97044 0.94435 0.0
C308 C 0.95303 0.96219 0.92209 0.0
C309 C 0.97794 0.97512 0.9071 0.0
C310 C 1.00601 -0.00366 0.91433 0.0
C311 C 1.00951 0.00433 0.93662 0.0
H312 H 0.97534 0.96892 0.88985 0.0
H313 H 1.00673 0.03836 0.1074 0.0
H314 H 0.57526 0.14071 0.99029 0.0
H315 H 0.56312 0.08657 0.01024 0.0
H316 H 0.48378 0.05835 0.9618 0.0
H317 H 0.49499 0.11243 0.94218 0.0
H318 H 0.46174 0.04449 0.00348 0.0
H319 H 0.57145 0.03035 0.96045 0.0
H320 H 0.63317 0.04782 0.95148 0.0
H321 H 0.66682 0.02424 0.01721 0.0
H322 H 0.60497 0.00779 0.02683 0.0
H323 H 0.44313 0.86337 0.0228 0.0
H324 H 0.45359 0.92032 0.00576 0.0
H325 H 0.54133 0.93886 0.05052 0.0
H326 H 0.5315 0.88217 0.06725 0.0
H327 H 0.56023 0.95862 0.01184 0.0
H328 H 0.46251 0.98168 0.05837 0.0
H329 H 0.40364 0.97952 0.07632 0.0
H330 H 0.35139 0.99337 0.01408 0.0
H331 H 0.4103 -0.00399 0.99573 0.0
C332 C 0.555 0.12309 0.98405 0.0
C333 C 0.53632 0.13063 0.96457 0.0
C334 C 0.54818 0.09219 0.9954 0.0
C335 C 0.523 0.06826 0.98724 0.0
C336 C 0.50343 0.07642 0.96829 0.0
C337 C 0.51 0.10731 0.95706 0.0
C338 C 0.51762 0.03404 0.9978 0.0
C339 C 0.48311 0.02544 0.00501 0.0
C340 C 0.54598 0.00997 1.00069 0.0
C341 C 0.58344 0.01824 0.99444 0.0
C342 C 0.59191 0.02921 0.97306 0.0
C343 C 0.62691 0.03918 0.9679 0.0
C344 C 0.65386 0.03743 0.98383 0.0
C345 C 0.64588 0.02569 0.00492 0.0
C346 C 0.61084 0.01616 0.01025 0.0
C347 C 0.46485 0.87949 0.02882 0.0
C348 C 0.4865 0.86831 0.04633 0.0
C349 C 0.47059 0.91211 0.01923 0.0
C350 C 0.49802 0.93397 0.02703 0.0
C351 C 0.52005 0.92244 0.04421 0.0
C352 C 0.51433 0.89 0.05378 0.0
C353 C 0.50409 0.96879 0.01729 0.0
C354 C 0.53871 0.97746 0.01015 0.0
C355 C 0.47619 0.99352 0.01525 0.0
C356 C 0.44075 0.98857 0.02567 0.0
C357 C 0.43846 0.98362 0.04845 0.0
C358 C 0.40507 0.98253 0.05872 0.0
C359 C 0.37373 0.98622 0.04635 0.0
C360 C 0.37571 0.99054 0.02363 0.0
C361 C 0.4091 0.99192 0.01329 0.0
H362 H 0.34793 0.98617 0.05439 0.0
H363 H 0.68099 0.0449 0.97985 0.0
H364 H 0.93212 0.62426 0.52253 0.0
H365 H 0.94367 0.56865 0.50394 0.0
H366 H 0.05055 0.5666 0.53116 0.0
H367 H 0.03914 0.62185 0.54977 0.0
H368 H 0.04876 0.54445 0.48841 0.0
H369 H 0.98989 0.52317 0.55591 0.0
H370 H 0.94329 0.52977 0.58417 0.0
H371 H 0.86415 0.48999 0.53951 0.0
H372 H 0.91022 0.48396 0.51071 0.0
H373 H 0.08445 0.36251 0.4782 0.0
H374 H 0.07379 0.41923 0.49559 0.0
H375 H 0.97002 0.42502 0.46442 0.0
H376 H 0.98058 0.36869 0.44688 0.0
H377 H 0.97063 0.4453 0.50931 0.0
H378 H 0.03683 0.4641 0.44207 0.0
H379 H 0.08772 0.45817 0.4166 0.0
H380 H 0.15839 0.50216 0.4649 0.0
H381 H 0.10826 0.50723 0.49089 0.0
C382 C 0.95826 0.6122 0.52414 0.0
C383 C 0.98467 0.62697 0.53766 0.0
C384 C 0.96475 0.58047 0.51367 0.0
C385 C 0.99779 0.56348 0.51646 0.0
C386 C 0.02487 0.57932 0.52889 0.0
C387 C 0.01826 0.61072 0.53957 0.0
C388 C 1.00349 0.52815 0.50765 0.0
C389 C 0.03191 0.52265 0.49307 0.0
C390 C 0.9814 0.49993 0.51387 0.0
C391 C 0.95344 0.50357 0.53104 0.0
C392 C 0.96248 0.51623 0.55199 0.0
C393 C 0.93619 0.51982 0.56812 0.0
C394 C 0.90081 0.51037 0.56362 0.0
C395 C 0.8916 0.49735 0.54295 0.0
C396 C 0.91779 0.49389 0.52669 0.0
C397 C 0.05918 0.37569 0.47536 0.0
C398 C 0.03337 0.36142 0.46116 0.0
C399 C 0.05323 0.40806 0.48517 0.0
C400 C 0.02129 0.42628 0.48105 0.0
C401 C 0.99486 0.4113 0.4677 0.0
C402 C 1.00097 0.37924 0.45767 0.0
C403 C 0.01579 0.46161 0.48989 0.0
C404 C 0.9874 0.4671 0.50454 0.0
C405 C 0.03846 0.48966 0.4841 0.0
C406 C 0.0688 0.48561 0.46857 0.0
C407 C 0.06332 0.47193 0.44741 0.0
C408 C 0.09205 0.46877 0.43284 0.0
C409 C 0.12628 0.47967 0.43913 0.0
C410 C 0.13193 0.49354 0.46004 0.0
C411 C 0.10338 0.49649 0.47472 0.0
H412 H 0.14833 0.47766 0.42774 0.0
H413 H 0.88062 0.51312 0.5762 0.0
H414 H 0.47686 0.64087 0.49171 0.0
H415 H 0.49445 0.58603 0.50962 0.0
H416 H 0.52113 0.54207 0.44662 0.0
H417 H 0.50455 0.59663 0.42876 0.0
H418 H 0.473 0.50143 0.47366 0.0
H419 H 0.58603 0.55935 0.4748 0.0
H420 H 0.63176 0.604 0.48254 0.0
H421 H 0.61321 0.59296 0.55165 0.0
H422 H 0.56682 0.54866 0.54433 0.0
H423 H 0.55843 0.34415 0.51033 0.0
H424 H 0.54993 0.40023 0.49149 0.0
H425 H 0.52404 0.44899 0.55322 0.0
H426 H 0.5317 0.39336 0.57196 0.0
H427 H 0.57405 0.48675 0.52592 0.0
H428 H 0.45925 0.42961 0.52409 0.0
H429 H 0.41895 0.38044 0.51608 0.0
H430 H 0.44316 0.38884 0.44747 0.0
H431 H 0.48456 0.43749 0.45517 0.0
C432 C 0.48666 0.61952 0.48177 0.0
C433 C 0.48938 0.6229 0.4589 0.0
C434 C 0.49684 0.58841 0.49198 0.0
C435 C 0.50917 0.56027 0.47936 0.0
C436 C 0.51179 0.56363 0.45657 0.0
C437 C 0.50236 0.59481 0.44644 0.0
C438 C 0.51757 0.52658 0.48971 0.0
C439 C 0.49534 0.4981 0.4849 0.0
C440 C 0.54644 0.5226 0.50456 0.0
C441 C 0.57252 0.55098 0.50898 0.0
C442 C 0.59115 0.56689 0.49164 0.0
C443 C 0.61739 0.59198 0.49596 0.0
C444 C 0.62548 0.60118 0.51757 0.0
C445 C 0.60701 0.58569 0.53492 0.0
C446 C 0.58068 0.56064 0.53069 0.0
C447 C 0.551 0.36691 0.51979 0.0
C448 C 0.54532 0.36449 0.54249 0.0
C449 C 0.5462 0.39877 0.50908 0.0
C450 C 0.53634 0.4285 0.52106 0.0
C451 C 0.5317 0.42626 0.54378 0.0
C452 C 0.5358 0.39444 0.55439 0.0
C453 C 0.52942 0.46186 0.50994 0.0
C454 C 0.55177 0.49022 0.51466 0.0
C455 C 0.50073 0.46576 0.49499 0.0
C456 C 0.4754 0.4369 0.49025 0.0
C457 C 0.4563 0.42075 0.50732 0.0
C458 C 0.43319 0.393 0.50283 0.0
C459 C 0.42848 0.38148 0.48128 0.0
C460 C 0.44688 0.39775 0.46417 0.0
C461 C 0.47022 0.42538 0.46859 0.0
H462 H 0.41054 0.36 0.47785 0.0
H463 H 0.64608 0.62032 0.52087 0.0
H464 H 0.31245 0.84577 0.08403 0.0
H465 H 0.26683 0.8913 0.08 0.0
H466 H 0.3466 0.96927 0.09533 0.0
H467 H 0.39095 0.92341 0.10102 0.0
H468 H 0.29443 0.99016 0.11243 0.0
H469 H 0.3071 0.94515 0.03896 0.0
H470 H 0.30727 0.9008 0.00977 0.0
H471 H 0.19656 0.87825 0.02257 0.0
H472 H 0.19591 0.92224 0.05208 0.0
H473 H 0.19142 0.13142 0.06657 0.0
H474 H 0.23404 0.08272 0.06373 0.0
H475 H 0.15701 0.01431 0.09383 0.0
H476 H 0.11479 0.06273 0.09717 0.0
H477 H 0.20646 0.99064 0.0513 0.0
H478 H 0.2026 0.03235 0.12918 0.0
H479 H 0.20409 0.0819 0.155 0.0
H480 H 0.30393 0.11598 0.1274 0.0
H481 H 0.30272 0.0668 0.10128 0.0
C482 C 0.31991 0.87276 0.08646 0.0
C483 C 0.35496 0.88137 0.09275 0.0
C484 C 0.29404 0.89888 0.08389 0.0
C485 C 0.30328 0.93422 0.08652 0.0
C486 C 0.33852 0.94246 0.09296 0.0
C487 C 0.36396 0.91633 0.09622 0.0
C488 C 0.27638 0.96269 0.0834 0.0
C489 C 0.27585 0.99015 0.09873 0.0
C490 C 0.2513 0.96319 0.06576 0.0
C491 C 0.25159 0.93686 0.0479 0.0
C492 C 0.28286 0.93067 0.03565 0.0
C493 C 0.28303 0.90556 0.01903 0.0
C494 C 0.25197 0.88664 0.01435 0.0
C495 C 0.22063 0.89288 0.02624 0.0
C496 C 0.22035 0.91793 0.0429 0.0
C497 C 0.18342 0.10585 0.07222 0.0
C498 C 0.14986 0.10087 0.08219 0.0
C499 C 0.20768 0.07816 0.07056 0.0
C500 C 0.19843 0.04506 0.07847 0.0
C501 C 0.16439 0.03965 0.08746 0.0
C502 C 0.14046 0.06738 0.08952 0.0
C503 C 0.22563 0.01724 0.08002 0.0
C504 C 0.22581 0.99019 0.0646 0.0
C505 C 0.25113 0.01743 0.09707 0.0
C506 C 0.2525 0.04609 0.11329 0.0
C507 C 0.2248 0.05048 0.12862 0.0
C508 C 0.22559 0.07847 0.14329 0.0
C509 C 0.25409 0.10208 0.14284 0.0
C510 C 0.28191 0.09766 0.12776 0.0
C511 C 0.28121 0.06971 0.11305 0.0
H512 H 0.25462 0.12378 0.15417 0.0
H513 H 0.25217 0.8672 1.00149 0.0
H514 H 0.14646 0.40401 0.38063 0.0
H515 H 0.18887 0.45164 0.3836 0.0
H516 H 0.22468 0.41286 0.44624 0.0
H517 H 0.18306 0.36399 0.44318 0.0
H518 H 0.21209 0.48602 0.44519 0.0
H519 H 0.27711 0.39963 0.40517 0.0
H520 H 0.28625 0.35588 0.37609 0.0
H521 H 0.27261 0.4348 0.32689 0.0
H522 H 0.26285 0.47896 0.35568 0.0
H523 H 0.36522 0.59887 0.44679 0.0
H524 H 0.32353 0.54985 0.44904 0.0
H525 H 0.29049 0.56845 0.38218 0.0
H526 H 0.33222 0.61728 0.37985 0.0
H527 H 0.30477 0.50218 0.38792 0.0
H528 H 0.23727 0.58865 0.42662 0.0
H529 H 0.22534 0.63305 0.45491 0.0
H530 H 0.23938 0.55633 0.50541 0.0
H531 H 0.25212 0.51157 0.47744 0.0
C532 C 0.16352 0.40499 0.39495 0.0
C533 C 0.16133 0.37953 0.41153 0.0
C534 C 0.18773 0.43252 0.39665 0.0
C535 C 0.21017 0.43552 0.41501 0.0
C536 C 0.20759 0.4109 0.4319 0.0
C537 C 0.18361 0.383 0.43012 0.0
C538 C 0.23633 0.46446 0.41626 0.0
C539 C 0.23266 0.48948 0.43287 0.0
C540 C 0.2628 0.46899 0.39996 0.0
C541 C 0.26897 0.44255 0.38259 0.0
C542 C 0.27579 0.40762 0.38814 0.0
C543 C 0.28113 0.38275 0.37171 0.0
C544 C 0.27993 0.39254 0.34965 0.0
C545 C 0.2735 0.42725 0.34398 0.0
C546 C 0.26811 0.45222 0.36035 0.0
C547 C 0.34867 0.59284 0.4327 0.0
C548 C 0.3521 0.61188 0.4131 0.0
C549 C 0.32485 0.5648 0.434 0.0
C550 C 0.30373 0.55554 0.41581 0.0
C551 C 0.30664 0.57498 0.39639 0.0
C552 C 0.33056 0.60282 0.39505 0.0
C553 C 0.27986 0.52463 0.41651 0.0
C554 C 0.28416 0.49899 0.40029 0.0
C555 C 0.25366 0.51986 0.43304 0.0
C556 C 0.24621 0.54683 0.44991 0.0
C557 C 0.23824 0.5813 0.44376 0.0
C558 C 0.23124 0.60653 0.45974 0.0
C559 C 0.23176 0.59755 0.48194 0.0
C560 C 0.23912 0.56328 0.4882 0.0
C561 C 0.24625 0.53797 0.47229 0.0
H562 H 0.22638 0.61711 0.4943 0.0
H563 H 0.28406 0.37325 0.33696 0.0
H564 H 0.8687 0.90004 0.87818 0.0
H565 H 0.83018 0.95094 0.88067 0.0
H566 H 0.82562 0.93958 0.95093 0.0
H567 H 0.86542 0.88911 0.9488 0.0
H568 H 0.7579 0.94607 0.93009 0.0
H569 H 0.86693 0.01694 0.93504 0.0
H570 H 0.9276 0.03616 0.92439 0.0
H571 H 0.89333 0.04591 0.8574 0.0
H572 H 0.83201 0.02828 0.86788 0.0
H573 H 0.66753 0.10906 0.94668 0.0
H574 H 0.71196 0.06217 0.94849 0.0
H575 H 0.72301 0.06475 0.87824 0.0
H576 H 0.6794 0.11216 0.87618 0.0
H577 H 0.78848 0.06322 0.90141 0.0
H578 H 0.67644 0.00386 0.8987 0.0
H579 H 0.61567 0.98477 0.90881 0.0
H580 H 0.65492 0.94816 0.9709 0.0
H581 H 0.71582 0.96799 0.96146 0.0
C582 C 0.86022 0.90852 0.89426 0.0
C583 C 0.87038 0.89013 0.91327 0.0
C584 C 0.83811 0.93776 0.89563 0.0
C585 C 0.82537 0.94923 0.91599 0.0
C586 C 0.83531 0.93115 0.93505 0.0
C587 C 0.85783 0.90205 0.93374 0.0
C588 C 0.79961 0.97855 0.91697 0.0
C589 C 0.76468 0.97197 0.92433 0.0
C590 C 0.80825 0.01184 0.90874 0.0
C591 C 0.84516 0.02102 0.90218 0.0
C592 C 0.87245 0.02304 0.91803 0.0
C593 C 0.90683 0.03387 0.91206 0.0
C594 C 0.91443 0.04184 0.8902 0.0
C595 C 0.88746 0.03958 0.87431 0.0
C596 C 0.85281 0.02952 0.88028 0.0
C597 C 0.67956 0.09992 0.93161 0.0
C598 C 0.66963 0.11429 0.91124 0.0
C599 C 0.70454 0.0728 0.93269 0.0
C600 C 0.72008 0.05958 0.91351 0.0
C601 C 0.71097 0.07437 0.89323 0.0
C602 C 0.68588 0.10133 0.89209 0.0
C603 C 0.74656 0.0309 0.91463 0.0
C604 C 0.78163 0.03754 0.90753 0.0
C605 C 0.73785 -0.00238 0.92312 0.0
C606 C 0.70072 0.98793 0.92948 0.0
C607 C 0.67206 0.99241 0.9147 0.0
C608 C 0.63759 0.98123 0.92025 0.0
C609 C 0.63147 0.9651 0.94044 0.0
C610 C 0.65975 0.96045 0.95521 0.0
C611 C 0.69421 0.97183 0.94981 0.0
H612 H 0.60478 0.95641 0.94469 0.0
H613 H 0.94117 0.04991 0.88559 0.0
H614 H 0.69161 0.3561 0.56067 0.0
H615 H 0.72928 0.40697 0.55392 0.0
H616 H 0.68137 0.45932 0.6092 0.0
H617 H 0.64254 0.40939 0.61544 0.0
H618 H 0.68827 0.50317 0.57541 0.0
H619 H 0.7639 0.4181 0.61205 0.0
H620 H 0.79363 0.36107 0.61617 0.0
H621 H 0.84776 0.3759 0.55479 0.0
H622 H 0.81795 0.43283 0.55016 0.0
H623 H 0.824 0.61724 0.61561 0.0
H624 H 0.78052 0.57031 0.60946 0.0
H625 H 0.82653 0.55061 0.54583 0.0
H626 H 0.86985 0.5979 0.55183 0.0
H627 H 0.82058 0.49084 0.5767 0.0
H628 H 0.7518 0.57855 0.54201 0.0
H629 H 0.72272 0.63571 0.53719 0.0
H630 H 0.65678 0.61673 0.59352 0.0
H631 H 0.68588 0.55963 0.59895 0.0
C632 C 0.68879 0.37852 0.57128 0.0
C633 C 0.66405 0.37843 0.58868 0.0
C634 C 0.71056 0.40753 0.56747 0.0
C635 C 0.70837 0.43687 0.58117 0.0
C636 C 0.68353 0.43698 0.59841 0.0
C637 C 0.66164 0.40812 0.60214 0.0
C638 C 0.73247 0.46721 0.57804 0.0
C639 C 0.71722 0.50052 0.57583 0.0
C640 C 0.77026 0.46363 0.57776 0.0
C641 C 0.78829 0.42948 0.58061 0.0
C642 C 0.7819 0.40906 0.59934 0.0
C643 C 0.7988 0.37678 0.60178 0.0
C644 C 0.82245 0.3648 0.58571 0.0
C645 C 0.82935 0.38516 0.5672 0.0
C646 C 0.81246 0.41743 0.56466 0.0
C647 C 0.82457 0.60304 0.60026 0.0
C648 C 0.85016 0.61107 0.5842 0.0
C649 C 0.79967 0.57649 0.5967 0.0
C650 C 0.80032 0.5572 0.57716 0.0
C651 C 0.82555 0.56541 0.56094 0.0
C652 C 0.8501 0.59242 0.56435 0.0
C653 C 0.77642 0.52675 0.57469 0.0
C654 C 0.79169 0.49346 0.5759 0.0
C655 C 0.73874 0.53038 0.574 0.0
C656 C 0.72139 0.56492 0.57105 0.0
C657 C 0.73144 0.58671 0.55356 0.0
C658 C 0.71489 0.61907 0.55068 0.0
C659 C 0.68807 0.62989 0.56511 0.0
C660 C 0.67766 0.60833 0.58241 0.0
C661 C 0.69416 0.57594 0.58538 0.0
H662 H 0.67529 0.65491 0.56281 0.0
H663 H 0.8355 0.3398 0.58762 0.0
H664 H 0.16823 0.20088 0.02878 0.0
H665 H 0.22837 0.19955 0.01272 0.0
H666 H 0.24325 0.30755 0.03005 0.0
H667 H 0.18311 0.30931 0.0455 0.0
H668 H 0.26843 0.29774 0.99109 0.0
H669 H 0.28129 0.2383 0.05986 0.0
H670 H 0.26751 0.19387 0.08779 0.0
H671 H 0.29545 0.11279 0.04243 0.0
H672 H 0.30896 0.15676 0.01408 0.0
H673 H 0.45861 0.31117 0.98872 0.0
H674 H 0.39591 0.30774 1.00049 0.0
H675 H 0.38683 0.20604 0.971 0.0
H676 H 0.44959 0.20934 0.95923 0.0
H677 H 0.35815 0.20939 0.01388 0.0
H678 H 0.34884 0.27191 0.94586 0.0
H679 H 0.36383 0.31829 0.91948 0.0
H680 H 0.33042 0.39594 0.96586 0.0
H681 H 0.31571 0.35001 0.99265 0.0
C682 C 0.18425 0.22438 0.02908 0.0
C683 C 0.17074 0.25518 0.03849 0.0
C684 C 0.21878 0.22354 0.02 0.0
C685 C 0.24074 0.25334 0.02038 0.0
C686 C 0.22699 0.28418 0.02948 0.0
C687 C 0.19249 0.28512 0.03839 0.0
C688 C 0.27799 0.25273 0.01139 0.0
C689 C 0.28806 0.27857 0.99628 0.0
C690 C 0.30366 0.22735 0.01773 0.0
C691 C 0.29577 0.20082 0.03476 0.0
C692 C 0.28425 0.21099 0.05578 0.0
C693 C 0.27653 0.1859 0.07169 0.0
C694 C 0.28055 0.15054 0.06687 0.0
C695 C 0.29233 0.1402 0.04612 0.0
C696 C 0.30005 0.16519 0.03012 0.0
C697 C 0.44318 0.28816 0.98467 0.0
C698 C 0.45902 0.2607 0.97288 0.0
C699 C 0.40734 0.28624 0.99135 0.0
C700 C 0.38655 0.25668 0.98655 0.0
C701 C 0.40229 0.22912 0.97486 0.0
C702 C 0.43806 0.23121 0.96793 0.0
C703 C 0.34849 0.25465 0.99388 0.0
C704 C 0.33833 0.22834 0.00863 0.0
C705 C 0.32283 0.27985 0.98746 0.0
C706 C 0.33146 0.30752 0.97133 0.0
C707 C 0.34495 0.29888 0.9505 0.0
C708 C 0.35335 0.32509 0.93546 0.0
C709 C 0.34816 0.36004 0.941 0.0
C710 C 0.33446 0.36885 0.96159 0.0
C711 C 0.32605 0.34274 0.9767 0.0
H712 H 0.35468 0.3803 0.92934 0.0
H713 H 0.27462 0.13119 0.07924 0.0
H714 H 0.06007 0.7801 0.98901 0.0
H715 H 0.12153 0.78095 0.00273 0.0
H716 H 0.13237 0.67173 0.98752 0.0
H717 H 0.07028 0.6707 0.974 0.0
H718 H 0.16346 0.68616 0.02605 0.0
H719 H 0.16791 0.7376 0.95378 0.0
H720 H 0.15015 0.77931 0.92497 0.0
H721 H 0.18189 0.86465 0.96621 0.0
H722 H 0.19931 0.82345 0.99538 0.0
H723 H 0.35233 0.67936 0.03498 0.0
H724 H 0.29095 0.67741 0.02113 0.0
H725 H 0.28011 0.78781 0.03253 0.0
H726 H 0.34195 0.7901 0.04571 0.0
H727 H 0.24893 0.77252 0.99575 0.0
H728 H 0.24354 0.72431 0.06785 0.0
H729 H 0.2601 0.68498 0.09819 0.0
H730 H 0.22883 0.59652 0.05952 0.0
H731 H 0.21254 0.63531 0.02881 0.0
C732 C 0.07553 0.75625 0.9885 0.0
C733 C 0.06036 0.72542 0.98011 0.0
C734 C 0.11078 0.75678 0.99634 0.0
C735 C 0.13209 0.72662 0.9957 0.0
C736 C 0.11664 0.69543 0.98806 0.0
C737 C 0.08111 0.69482 0.98038 0.0
C738 C 0.17044 0.72785 0.00286 0.0
C739 C 0.18228 0.70467 0.01915 0.0
C740 C 0.1949 0.75274 0.99445 0.0
C741 C 0.18469 0.77746 0.97681 0.0
C742 C 0.1709 0.76527 0.95674 0.0
C743 C 0.1609 0.78882 0.94034 0.0
C744 C 0.16482 0.82461 0.94377 0.0
C745 C 0.17883 0.83693 0.96358 0.0
C746 C 0.18881 0.8135 0.98003 0.0
C747 C 0.33702 0.70332 0.03446 0.0
C748 C 0.3522 0.73488 0.04167 0.0
C749 C 0.3017 0.7021 0.02665 0.0
C750 C 0.28037 0.73229 0.0262 0.0
C751 C 0.29579 0.76405 0.0328 0.0
C752 C 0.33128 0.76534 0.04039 0.0
C753 C 0.24207 0.73072 0.0189 0.0
C754 C 0.2302 0.75388 0.0026 0.0
C755 C 0.21748 0.7061 0.0275 0.0
C756 C 0.22716 0.6827 0.04595 0.0
C757 C 0.24045 0.69645 0.06575 0.0
C758 C 0.24975 0.67426 0.08303 0.0
C759 C 0.24561 0.63827 0.08076 0.0
C760 C 0.23207 0.6244 0.06124 0.0
C761 C 0.22277 0.64648 0.0439 0.0
H762 H 0.25282 0.62113 0.09416 0.0
H763 H 0.15704 0.84279 0.93105 0.0
H764 H 0.46481 0.27778 0.51417 0.0
H765 H 0.40283 0.28088 0.50126 0.0
H766 H 0.38394 0.17697 0.52561 0.0
H767 H 0.44653 0.17346 0.5378 0.0
H768 H 0.35 0.1833 0.48915 0.0
H769 H 0.35684 0.25469 0.55338 0.0
H770 H 0.37972 0.30153 0.57728 0.0
H771 H 0.35113 0.37777 0.52879 0.0
H772 H 0.32885 0.33132 0.50437 0.0
H773 H 0.15654 0.20705 0.49977 0.0
H774 H 0.22026 0.20138 0.50952 0.0
H775 H 0.24734 0.27866 0.46109 0.0
H776 H 0.18401 0.28354 0.45069 0.0
H777 H 0.27588 0.28561 0.50955 0.0
H778 H 0.27013 0.21183 0.44531 0.0
H779 H 0.24545 0.164 0.42293 0.0
H780 H 0.26965 0.09108 0.47426 0.0
H781 H 0.29391 0.13866 0.49712 0.0
C782 C 0.44744 0.25559 0.51673 0.0
C783 C 0.46052 0.22547 0.52717 0.0
C784 C 0.41187 0.2574 0.50943 0.0
C785 C 0.38813 0.22949 0.51289 0.0
C786 C 0.40149 0.19897 0.52277 0.0
C787 C 0.43731 0.19692 0.52974 0.0
C788 C 0.34943 0.2323 0.50648 0.0
C789 C 0.33383 0.20554 0.4939 0.0
C790 C 0.32801 0.26146 0.51231 0.0
C791 C 0.34149 0.28947 0.52695 0.0
C792 C 0.35572 0.28142 0.54773 0.0
C793 C 0.3686 0.3079 0.56137 0.0
C794 C 0.36701 0.34259 0.55452 0.0
C795 C 0.35244 0.35088 0.53405 0.0
C796 C 0.33973 0.32448 0.52029 0.0
C797 C 0.17609 0.22273 0.49115 0.0
C798 C 0.1652 0.24571 0.47445 0.0
C799 C 0.21246 0.21942 0.4967 0.0
C800 C 0.2385 0.23959 0.48601 0.0
C801 C 0.22768 0.26283 0.46951 0.0
C802 C 0.19148 0.26549 0.46356 0.0
C803 C 0.27696 0.23682 0.49229 0.0
C804 C 0.29231 0.2635 0.50489 0.0
C805 C 0.29798 0.20749 0.48672 0.0
C806 C 0.28335 0.17888 0.47305 0.0
C807 C 0.26976 0.18568 0.45195 0.0
C808 C 0.25595 0.1586 0.43914 0.0
C809 C 0.25586 0.12454 0.4472 0.0
C810 C 0.26966 0.11749 0.46807 0.0
C811 C 0.28344 0.14451 0.48095 0.0
H812 H 0.2452 0.10359 0.43726 0.0
H813 H 0.37697 0.36307 0.56511 0.0
H814 H 0.04927 0.7325 0.5024 0.0
H815 H 0.11159 0.72796 0.49005 0.0
H816 H 0.14528 0.79069 0.54521 0.0
H817 H 0.0824 0.79721 0.55639 0.0
H818 H 0.18475 0.80718 0.51402 0.0
H819 H 0.15054 0.69502 0.54156 0.0
H820 H 0.11416 0.64158 0.54435 0.0
H821 H 0.13798 0.61653 0.47729 0.0
H822 H 0.1738 0.67024 0.47395 0.0
H823 H 0.36756 0.74577 0.51322 0.0
H824 H 0.30458 0.7544 0.52363 0.0
H825 H 0.27112 0.72421 0.45863 0.0
H826 H 0.33384 0.71635 0.44795 0.0
H827 H 0.23289 0.69065 0.49477 0.0
H828 H 0.26772 0.80449 0.46871 0.0
H829 H 0.30586 0.85689 0.46784 0.0
H830 H 0.28305 0.87633 0.53577 0.0
H831 H 0.24518 0.8237 0.53712 0.0
C832 C 0.07011 0.74574 0.51155 0.0
C833 C 0.06131 0.76535 0.53019 0.0
C834 C 0.10579 0.74278 0.50473 0.0
C835 C 0.13366 0.75805 0.51702 0.0
C836 C 0.12456 0.77848 0.5354 0.0
C837 C 0.08869 0.78231 0.54181 0.0
C838 C 0.17214 0.75256 0.51089 0.0
C839 C 0.1952 0.78153 0.51017 0.0
C840 C 0.18618 0.71921 0.50545 0.0
C841 C 0.16462 0.68685 0.50745 0.0
C842 C 0.1478 0.67826 0.52736 0.0
C843 C 0.12725 0.64792 0.52904 0.0
C844 C 0.12367 0.62573 0.51099 0.0
C845 C 0.14066 0.63381 0.49124 0.0
C846 C 0.16106 0.66421 0.48944 0.0
C847 C 0.34678 0.74111 0.50113 0.0
C848 C 0.35573 0.73059 0.47973 0.0
C849 C 0.31084 0.74606 0.50709 0.0
C850 C 0.28317 0.73999 0.49189 0.0
C851 C 0.29202 0.72905 0.47061 0.0
C852 C 0.32792 0.72478 0.46452 0.0
C853 C 0.24497 0.74515 0.4981 0.0
C854 C 0.22215 0.71614 0.49878 0.0
C855 C 0.23131 0.77824 0.5039 0.0
C856 C 0.25394 0.80995 0.50308 0.0
C857 C 0.27111 0.81975 0.48352 0.0
C858 C 0.29262 0.84953 0.48292 0.0
C859 C 0.29696 0.86987 0.50175 0.0
C860 C 0.27971 0.86052 0.5212 0.0
C861 C 0.2582 0.83073 0.52189 0.0
H862 H 0.31361 0.89293 0.50126 0.0
H863 H 0.10779 0.60224 0.51233 0.0
H864 H 0.55291 0.76883 0.00829 0.0
H865 H 0.61497 0.77325 0.99497 0.0
H866 H 0.64822 0.69669 0.04254 0.0
H867 H 0.58635 0.69176 0.05558 0.0
H868 H 0.69068 0.76146 0.04092 0.0
H869 H 0.64421 0.67023 0.99388 0.0
H870 H 0.60148 0.6455 0.96719 0.0
H871 H 0.62684 0.72682 0.92146 0.0
H872 H 0.66937 0.75234 0.94803 0.0
H873 H 0.86976 0.73251 0.00902 0.0
H874 H 0.80707 0.72548 0.01968 0.0
H875 H 0.77347 0.77287 0.95882 0.0
H876 H 0.83616 0.7782 0.94764 0.0
H877 H 0.72965 0.72443 0.96674 0.0
H878 H 0.77415 0.8171 0.01102 0.0
H879 H 0.81488 0.84701 0.03677 0.0
H880 H 0.79108 0.77127 0.08644 0.0
H881 H 0.75055 0.74063 0.06088 0.0
C882 C 0.57347 0.75281 0.01577 0.0
C883 C 0.56468 0.72977 0.03287 0.0
C884 C 0.60885 0.7553 0.00814 0.0
C885 C 0.63623 0.73526 0.01775 0.0
C886 C 0.62753 0.71234 0.03486 0.0
C887 C 0.59211 0.70935 0.04218 0.0
C888 C 0.67409 0.73865 0.01034 0.0
C889 C 0.69938 0.75299 0.02481 0.0
C890 C 0.68512 0.7288 0.98903 0.0
C891 C 0.65967 0.71341 0.97304 0.0
C892 C 0.64042 0.68303 0.97822 0.0
C893 C 0.6163 0.66883 0.96309 0.0
C894 C 0.61137 0.68464 0.94267 0.0
C895 C 0.63064 0.71464 0.9373 0.0
C896 C 0.65478 0.72896 0.95238 0.0
C897 C 0.849 0.7413 0.99788 0.0
C898 C 0.85801 0.75604 0.97752 0.0
C899 C 0.81305 0.73752 0.00406 0.0
C900 C 0.78518 0.74939 0.99034 0.0
C901 C 0.79422 0.76354 0.9698 0.0
C902 C 0.83017 0.76664 0.96341 0.0
C903 C 0.74677 0.74709 0.99741 0.0
C904 C 0.72122 0.73303 0.98288 0.0
C905 C 0.73528 0.75801 0.01852 0.0
C906 C 0.75958 0.77638 0.03396 0.0
C907 C 0.77779 0.80668 0.02738 0.0
C908 C 0.80081 0.82379 0.04195 0.0
C909 C 0.80563 0.81099 0.06321 0.0
C910 C 0.78736 0.78112 0.06996 0.0
C911 C 0.76433 0.76389 0.05545 0.0
H912 H 0.82346 0.82427 0.07446 0.0
H913 H 0.59268 0.6736 0.93098 0.0
H914 H 0.66786 0.31275 0.97852 0.0
H915 H 0.72936 0.31679 0.99216 0.0
H916 H 0.75268 0.21567 0.96466 0.0
H917 H 0.69056 0.21081 0.95209 0.0
H918 H 0.78599 0.21942 1.00053 0.0
H919 H 0.7784 0.29726 0.93983 0.0
H920 H 0.75438 0.34537 0.9174 0.0
H921 H 0.77636 0.41765 0.96948 0.0
H922 H 0.80008 0.36987 0.99235 0.0
H923 H 0.97487 0.2388 0.00257 0.0
H924 H 0.91374 0.23684 0.98822 0.0
H925 H 0.8848 0.32375 0.02931 0.0
H926 H 0.94581 0.32547 0.04415 0.0
H927 H 0.85563 0.32709 0.98622 0.0
H928 H 0.86523 0.24405 0.04602 0.0
H929 H 0.89367 0.19421 0.06474 0.0
H930 H 0.87194 0.12907 0.00902 0.0
H931 H 0.84381 0.17868 0.98983 0.0
C932 C 0.68606 0.29128 0.97554 0.0
C933 C 0.67438 0.26151 0.96419 0.0
C934 C 0.72138 0.29371 0.98318 0.0
C935 C 0.74625 0.26695 0.979 0.0
C936 C 0.73427 0.23679 0.9681 0.0
C937 C 0.69868 0.234 0.96091 0.0
C938 C 0.78465 0.2705 0.98582 0.0
C939 C 0.80119 0.24286 0.9971 0.0
C940 C 0.80487 0.3011 0.98159 0.0
C941 C 0.79068 0.32992 0.96788 0.0
C942 C 0.77787 0.32338 0.94656 0.0
C943 C 0.76435 0.35059 0.93376 0.0
C944 C 0.76376 0.38453 0.94203 0.0
C945 C 0.77679 0.39134 0.9631 0.0
C946 C 0.7903 0.36421 0.97599 0.0
C947 C 0.9556 0.25758 0.00857 0.0
C948 C 0.96529 0.28196 0.02481 0.0
C949 C 0.92064 0.25647 1.00028 0.0
C950 C 0.89453 0.27975 0.00797 0.0
C951 C 0.9045 0.30543 0.02321 0.0
C952 C 0.9395 0.30648 0.03161 0.0
C953 C 0.8565 0.27619 1.00088 0.0
C954 C 0.84017 0.30377 0.98958 0.0
C955 C 0.83679 0.24524 0.00459 0.0
C956 C 0.85264 0.21515 0.01643 0.0
C957 C 0.86664 0.21914 0.03772 0.0
C958 C 0.88271 0.19093 0.04842 0.0
C959 C 0.88466 0.15851 0.03806 0.0
C960 C 0.87041 0.1542 0.01702 0.0
C961 C 0.85437 0.18234 0.00624 0.0
H962 H 0.89714 0.13671 0.04635 0.0
H963 H 0.75327 0.40557 0.93209 0.0
H964 H 0.86252 0.7241 0.49414 0.0
H965 H 0.79979 0.73249 0.48423 0.0
H966 H 0.7767 0.76685 0.55009 0.0
H967 H 0.83944 0.75724 0.56036 0.0
H968 H 0.72564 0.72588 0.53749 0.0
H969 H 0.78159 0.82456 0.50487 0.0
H970 H 0.82562 0.85656 0.48251 0.0
H971 H 0.79035 0.80196 0.4249 0.0
H972 H 0.74641 0.76928 0.44698 0.0
H973 H 0.5509 0.78874 0.50637 0.0
H974 H 0.61354 0.78774 0.51878 0.0
H975 H 0.64431 0.73662 0.4587 0.0
H976 H 0.58206 0.7379 0.44617 0.0
H977 H 0.69053 0.78996 0.47014 0.0
H978 H 0.63252 0.69208 0.50515 0.0
H979 H 0.58649 0.66534 0.52867 0.0
H980 H 0.62528 0.72345 0.58398 0.0
H981 H 0.67061 0.75171 0.56061 0.0
C982 C 0.84425 0.73378 0.50651 0.0
C983 C 0.85622 0.74023 0.52803 0.0
C984 C 0.80825 0.73869 0.50078 0.0
C985 C 0.78333 0.75089 0.51627 0.0
C986 C 0.79525 0.75749 0.53778 0.0
C987 C 0.83125 0.75217 0.54361 0.0
C988 C 0.74484 0.75598 0.51008 0.0
C989 C 0.718 0.74042 0.52296 0.0
C990 C 0.73456 0.77461 0.49098 0.0
C991 C 0.76091 0.79425 0.47763 0.0
C992 C 0.7834 0.81919 0.48747 0.0
C993 C 0.80831 0.83748 0.47484 0.0
C994 C 0.81084 0.83124 0.45231 0.0
C995 C 0.78839 0.80674 0.44236 0.0
C996 C 0.76344 0.78836 0.45492 0.0
C997 C 0.57107 0.77763 0.49573 0.0
C998 C 0.56138 0.76321 0.47532 0.0
C999 C 0.60683 0.77684 0.5029 0.0
C1000 C 0.63364 0.76179 0.48977 0.0
C1001 C 0.62414 0.74825 0.46917 0.0
C1002 C 0.58845 0.74877 0.46209 0.0
C1003 C 0.67157 0.75965 0.49741 0.0
C1004 C 0.69826 0.77569 0.48476 0.0
C1005 C 0.68157 0.742 0.51691 0.0
C1006 C 0.65472 0.72439 0.53103 0.0
C1007 C 0.63101 0.69949 0.52226 0.0
C1008 C 0.60503 0.68404 0.53558 0.0
C1009 C 0.603 0.69263 0.5578 0.0
C1010 C 0.62684 0.71685 0.56675 0.0
C1011 C 0.65261 0.73268 0.55346 0.0
H1012 H 0.583 0.68047 0.5681 0.0
H1013 H 0.83015 0.84542 0.44256 0.0
H1014 H 0.94375 0.17427 0.45669 0.0
H1015 H 0.88117 0.17671 0.46935 0.0
H1016 H 0.90589 0.26736 0.50824 0.0
H1017 H 0.96809 0.26561 0.49507 0.0
H1018 H 0.86131 0.20747 0.52921 0.0
H1019 H 0.86841 0.28781 0.46776 0.0
H1020 H 0.8835 0.30336 0.42965 0.0
H1021 H 0.8133 0.22319 0.40579 0.0
H1022 H 0.79827 0.20677 0.44382 0.0
H1023 H 0.68854 0.26957 0.55747 0.0
H1024 H 0.75105 0.26234 0.54664 0.0
H1025 H 0.71724 0.20817 0.48807 0.0
H1026 H 0.65449 0.21742 0.49828 0.0
H1027 H 0.76767 0.24702 0.47694 0.0
H1028 H 0.75744 0.16688 0.53661 0.0
H1029 H 0.74265 0.14749 0.57407 0.0
H1030 H 0.818 0.22071 0.60076 0.0
H1031 H 0.83292 0.24085 0.56345 0.0
C1032 C 0.93586 0.19441 0.46814 0.0
C1033 C 0.96074 0.21974 0.47492 0.0
C1034 C 0.90014 0.19587 0.47529 0.0
C1035 C 0.88888 0.22222 0.48974 0.0
C1036 C 0.91401 0.24678 0.49714 0.0
C1037 C 0.94944 0.24583 0.48957 0.0
C1038 C 0.8506 0.22511 0.4964 0.0
C1039 C 0.84078 0.21639 0.5179 0.0
C1040 C 0.82375 0.23581 0.48146 0.0
C1041 C 0.83259 0.24577 0.45862 0.0
C1042 C 0.85651 0.27324 0.45439 0.0
C1043 C 0.86498 0.28227 0.43281 0.0
C1044 C 0.84946 0.26419 0.4153 0.0
C1045 C 0.82536 0.23712 0.41936 0.0
C1046 C 0.81685 0.22795 0.44092 0.0
C1047 C 0.69444 0.25585 0.54237 0.0
C1048 C 0.6665 0.24383 0.52881 0.0
C1049 C 0.73034 0.25151 0.53621 0.0
C1050 C 0.73936 0.23396 0.51669 0.0
C1051 C 0.71134 0.22176 0.50322 0.0
C1052 C 0.67538 0.2269 0.50911 0.0
C1053 C 0.77779 0.22933 0.50998 0.0
C1054 C 0.78784 0.2378 0.48839 0.0
C1055 C 0.80476 0.21778 0.52479 0.0
C1056 C 0.79608 0.20555 0.54724 0.0
C1057 C 0.77071 0.17898 0.55047 0.0
C1058 C 0.76232 0.16784 0.57168 0.0
C1059 C 0.77932 0.18291 0.58978 0.0
C1060 C 0.80483 0.20908 0.58672 0.0
C1061 C 0.8133 0.22034 0.56555 0.0
H1062 H 0.77277 0.17427 0.60619 0.0
H1063 H 0.85603 0.27123 0.3986 0.0
H1064 H 0.14907 0.24453 0.34627 0.0
H1065 H 0.15509 0.24822 0.30658 0.0
H1066 H 0.0607 0.18474 0.29848 0.0
H1067 H 0.05508 0.17983 0.3384 0.0
H1068 H 0.11296 0.17049 0.26715 0.0
H1069 H 0.05328 0.27121 0.29788 0.0
H1070 H 0.04873 0.32096 0.32333 0.0
H1071 H 0.14399 0.36562 0.29571 0.0
H1072 H 0.14943 0.31578 0.27033 0.0
H1073 H 0.04733 0.21999 0.16429 0.0
H1074 H 0.05447 0.21197 0.20366 0.0
H1075 H 0.14793 0.27799 0.2031 0.0
H1076 H 0.14055 0.28677 0.1634 0.0
H1077 H 0.10274 0.29119 0.23855 0.0
H1078 H 0.16032 0.19368 0.20579 0.0
H1079 H 0.16643 0.14369 0.18067 0.0
H1080 H 0.07753 0.09306 0.21188 0.0
H1081 H 0.07053 0.143 0.237 0.0
C1082 C 0.13021 0.2303 0.33615 0.0
C1083 C 0.10145 0.21194 0.34561 0.0
C1084 C 0.13351 0.23281 0.3134 0.0
C1085 C 0.10797 0.21732 0.29959 0.0
C1086 C 0.08059 0.19707 0.30887 0.0
C1087 C 0.07728 0.19448 0.33168 0.0
C1088 C 0.10805 0.22468 0.27569 0.0
C1089 C 0.11044 0.19682 0.26088 0.0
C1090 C 0.10576 0.25918 0.26753 0.0
C1091 C 0.10196 0.28961 0.28236 0.0
C1092 C 0.07336 0.29155 0.29732 0.0
C1093 C 0.07062 0.31976 0.31173 0.0
C1094 C 0.09611 0.34639 0.31118 0.0
C1095 C 0.1243 0.34494 0.29614 0.0
C1096 C 0.12721 0.31673 0.28173 0.0
C1097 C 0.06901 0.23347 0.17253 0.0
C1098 C 0.09322 0.25429 0.16069 0.0
C1099 C 0.0733 0.22846 0.19504 0.0
C1100 C 0.102 0.24397 0.20625 0.0
C1101 C 0.12569 0.26564 0.1947 0.0
C1102 C 0.12151 0.27055 0.17205 0.0
C1103 C 0.10714 0.23694 0.22999 0.0
C1104 C 0.10566 0.26487 0.24478 0.0
C1105 C 0.11045 0.20252 0.23812 0.0
C1106 C 0.11472 0.17224 0.22318 0.0
C1107 C 0.14189 0.17201 0.2072 0.0
C1108 C 0.14555 0.14366 0.19297 0.0
C1109 C 0.12233 0.11526 0.19464 0.0
C1110 C 0.09548 0.1151 0.21059 0.0
C1111 C 0.09168 0.14341 0.22485 0.0
H1112 H 0.1252 0.09334 0.18361 0.0
H1113 H 0.09399 0.36817 0.32238 0.0
H1114 H 0.47511 0.77008 0.16805 0.0
H1115 H 0.4693 0.77622 0.2075 0.0
H1116 H 0.38118 0.70358 0.20734 0.0
H1117 H 0.38706 0.69692 0.1674 0.0
H1118 H 0.36685 0.76149 0.2322 0.0
H1119 H 0.46139 0.6783 0.22701 0.0
H1120 H 0.51839 0.65368 0.2137 0.0
H1121 H 0.57555 0.74146 0.23983 0.0
H1122 H 0.51881 0.76689 0.25303 0.0
H1123 H 0.37291 0.73959 0.34911 0.0
H1124 H 0.37015 0.73453 0.30931 0.0
H1125 H 0.45944 0.80517 0.30339 0.0
H1126 H 0.46217 0.81072 0.34337 0.0
H1127 H 0.47111 0.74488 0.28177 0.0
H1128 H 0.37556 0.82847 0.28633 0.0
H1129 H 0.31826 0.85239 0.29966 0.0
H1130 H 0.26261 0.76254 0.27512 0.0
H1131 H 0.31969 0.73784 0.2619 0.0
C1132 C 0.45502 0.75463 0.17635 0.0
C1133 C 0.43201 0.7324 0.16453 0.0
C1134 C 0.45158 0.75842 0.19897 0.0
C1135 C 0.42515 0.74002 0.21044 0.0
C1136 C 0.40186 0.71794 0.19879 0.0
C1137 C 0.40529 0.71411 0.17601 0.0
C1138 C 0.42182 0.7447 0.23452 0.0
C1139 C 0.38942 0.75728 0.24313 0.0
C1140 C 0.45153 0.73991 0.24869 0.0
C1141 C 0.48578 0.72463 0.24086 0.0
C1142 C 0.48608 0.69249 0.22978 0.0
C1143 C 0.51835 0.67837 0.22228 0.0
C1144 C 0.55056 0.69603 0.22588 0.0
C1145 C 0.55057 0.72782 0.23704 0.0
C1146 C 0.51836 0.74208 0.24456 0.0
C1147 C 0.39118 0.75509 0.33939 0.0
C1148 C 0.41779 0.77562 0.34949 0.0
C1149 C 0.38967 0.75197 0.31657 0.0
C1150 C 0.41461 0.76941 0.30336 0.0
C1151 C 0.44003 0.79133 0.3133 0.0
C1152 C 0.44154 0.79451 0.33613 0.0
C1153 C 0.41633 0.76228 0.27944 0.0
C1154 C 0.44846 0.74905 0.27088 0.0
C1155 C 0.38632 0.76632 0.2654 0.0
C1156 C 0.35197 0.78114 0.27332 0.0
C1157 C 0.35116 0.81366 0.28394 0.0
C1158 C 0.3187 0.8274 0.29144 0.0
C1159 C 0.28683 0.80896 0.28829 0.0
C1160 C 0.28733 0.77678 0.27758 0.0
C1161 C 0.31972 0.76292 0.27006 0.0
H1162 H 0.26173 0.81963 0.29411 0.0
H1163 H 0.57552 0.68505 0.22006 0.0
H1164 H 0.89212 0.79544 0.6645 0.0
H1165 H 0.88686 0.78858 0.70436 0.0
H1166 H 0.9748 0.71559 0.70388 0.0
H1167 H 0.97923 0.72106 0.66431 0.0
H1168 H 0.92172 0.69097 0.72778 0.0
H1169 H 0.98484 0.80007 0.72226 0.0
H1170 H 0.99413 0.86064 0.71009 0.0
H1171 H 0.8968 0.89172 0.7421 0.0
H1172 H 0.88669 0.83121 0.75423 0.0
H1173 H 0.97266 0.68843 0.84073 0.0
H1174 H 0.9689 0.69347 0.80073 0.0
H1175 H 0.87842 0.7627 0.80715 0.0
H1176 H 0.8826 0.75862 0.84697 0.0
H1177 H 0.92799 0.78949 0.78028 0.0
H1178 H 0.86726 0.68041 0.78784 0.0
H1179 H 0.85902 0.61984 0.80026 0.0
H1180 H 0.95283 0.58857 0.76461 0.0
H1181 H 0.96193 0.64907 0.75222 0.0
C1182 C 0.91038 0.77803 0.67291 0.0
C1183 C 0.93638 0.75918 0.66114 0.0
C1184 C 0.90749 0.77427 0.69571 0.0
C1185 C 0.93061 0.7517 0.70715 0.0
C1186 C 0.95669 0.73316 0.69545 0.0
C1187 C 0.95952 0.73679 0.67278 0.0
C1188 C 0.92746 0.74656 0.73123 0.0
C1189 C 0.92343 0.7125 0.73927 0.0
C1190 C 0.92877 0.77468 0.74621 0.0
C1191 C 0.9348 0.81105 0.73893 0.0
C1192 C 0.96526 0.81977 0.72654 0.0
C1193 C 0.97071 0.8541 0.71969 0.0
C1194 C 0.94601 0.87999 0.72526 0.0
C1195 C 0.91587 0.87162 0.73776 0.0
C1196 C 0.91028 0.83732 0.74464 0.0
C1197 C 0.95172 0.70439 0.8336 0.0
C1198 C 0.92784 0.72294 0.84708 0.0
C1199 C 0.94947 0.70712 0.81074 0.0
C1200 C 0.92327 0.72839 0.80095 0.0
C1201 C 0.8988 0.74611 0.81434 0.0
C1202 C 0.90099 0.74337 0.83714 0.0
C1203 C 0.92269 0.73386 0.77683 0.0
C1204 C 0.92601 0.76798 0.76878 0.0
C1205 C 0.92086 0.70578 0.76185 0.0
C1206 C 0.91546 0.66935 0.76927 0.0
C1207 C 0.88631 0.66068 0.7828 0.0
C1208 C 0.88145 0.62634 0.78981 0.0
C1209 C 0.90544 0.60039 0.78328 0.0
C1210 C 0.93429 0.60871 0.76968 0.0
C1211 C 0.93929 0.64301 0.76264 0.0
H1212 H 0.90163 0.57382 0.78871 0.0
H1213 H 0.95028 0.90655 0.71994 0.0
H1214 H 0.53897 0.25747 0.66244 0.0
H1215 H 0.54376 0.26478 0.70186 0.0
H1216 H 0.634 0.1946 0.70337 0.0
H1217 H 0.62853 0.18585 0.6636 0.0
H1218 H 0.58852 0.18481 0.73848 0.0
H1219 H 0.64826 0.28021 0.70416 0.0
H1220 H 0.65429 0.32898 0.67814 0.0
H1221 H 0.56671 0.38203 0.70925 0.0
H1222 H 0.5597 0.33326 0.73522 0.0
H1223 H 0.642 0.23388 0.84439 0.0
H1224 H 0.64398 0.22723 0.80477 0.0
H1225 H 0.55317 0.29597 0.79812 0.0
H1226 H 0.55187 0.30409 0.838 0.0
H1227 H 0.60278 0.3061 0.76543 0.0
H1228 H 0.54135 0.20901 0.7984 0.0
H1229 H 0.53545 0.16013 0.82436 0.0
H1230 H 0.62717 0.1103 0.79568 0.0
H1231 H 0.63396 0.1592 0.76976 0.0
C1232 C 0.55927 0.24266 0.67108 0.0
C1233 C 0.58325 0.22082 0.65971 0.0
C1234 C 0.56227 0.24735 0.69367 0.0
C1235 C 0.58964 0.23078 0.7055 0.0
C1236 C 0.61282 0.20784 0.6945 0.0
C1237 C 0.60976 0.20301 0.67177 0.0
C1238 C 0.59446 0.23857 0.72918 0.0
C1239 C 0.59225 0.21124 0.74436 0.0
C1240 C 0.59869 0.27319 0.73686 0.0
C1241 C 0.60328 0.30292 0.72154 0.0
C1242 C 0.63013 0.30217 0.70538 0.0
C1243 C 0.63374 0.32982 0.69063 0.0
C1244 C 0.61086 0.35856 0.69202 0.0
C1245 C 0.5844 0.35974 0.70819 0.0
C1246 C 0.58061 0.33211 0.72294 0.0
C1247 C 0.62308 0.24858 0.83459 0.0
C1248 C 0.59675 0.26964 0.84451 0.0
C1249 C 0.62399 0.24431 0.81187 0.0
C1250 C 0.59831 0.26053 0.79852 0.0
C1251 C 0.57311 0.283 0.80815 0.0
C1252 C 0.57227 0.28745 0.83096 0.0
C1253 C 0.59652 0.25238 0.77472 0.0
C1254 C 0.59929 0.27966 0.75953 0.0
C1255 C 0.59289 0.21771 0.76703 0.0
C1256 C 0.58836 0.18792 0.78227 0.0
C1257 C 0.56038 0.18772 0.79771 0.0
C1258 C 0.55687 0.16001 0.81241 0.0
C1259 C 0.58097 0.13217 0.8117 0.0
C1260 C 0.60855 0.13191 0.79622 0.0
C1261 C 0.61222 0.1596 0.78151 0.0
H1262 H 0.57824 0.11076 0.82312 0.0
H1263 H 0.61367 0.37992 0.68057 0.0
loop_
_geom_bond_atom_site_label_1
_geom_bond_atom_site_label_2
_geom_bond_distance
_geom_bond_site_symmetry_2
_ccdc_geom_bond_type
C0 C1 1.351 . S
C0 N3 1.368 . S
C0 H5 0.931 . S
C1 C0 1.351 . S
C1 N2 1.373 . S
C1 H29 0.930 . S
N2 C1 1.373 . S
N2 C4 1.340 . S
N3 C0 1.368 . S
N3 C4 1.321 . S
N3 Co6 2.135 . S
C4 N2 1.340 . S
C4 N3 1.321 . S
C4 H28 0.930 . S
H5 C0 0.931 . S
Co6 N3 2.135 . S
Co6 N9 2.121 . S
Co6 O14 2.055 . S
Co6 O17 2.039 . S
Co6 N20 2.140 . S
C7 O8 1.227 . S
C7 O17 1.265 . S
O8 C7 1.227 . S
N9 Co6 2.121 . S
N9 C11 1.375 . S
N9 C12 1.313 . S
C10 C11 1.338 . S
C10 N13 1.377 1_455 S
C10 H30 0.930 . S
C11 N9 1.375 . S
C11 C10 1.338 . S
C11 H15 0.931 . S
C12 N9 1.313 . S
C12 N13 1.344 1_455 S
C12 H16 0.930 . S
N13 C10 1.377 1_655 S
N13 C12 1.344 1_655 S
O14 Co6 2.055 . S
O14 C18 1.253 . S
H15 C11 0.931 . S
H16 C12 0.930 . S
O17 Co6 2.039 . S
O17 C7 1.265 . S
C18 O14 1.253 . S
C18 O19 1.227 . S
O19 C18 1.227 . S
N20 Co6 2.140 . S
N20 C23 1.346 . S
N20 C24 1.345 . S
C21 C22 1.387 . S
C21 C25 1.391 . S
C22 C21 1.387 . S
C22 C23 1.369 . S
C22 H31 0.929 . S
C23 N20 1.346 . S
C23 C22 1.369 . S
C23 H26 0.928 . S
C24 N20 1.345 . S
C24 C25 1.371 . S
C24 H27 0.931 . S
C25 C21 1.391 . S
C25 C24 1.371 . S
C25 H32 0.930 . S
H26 C23 0.928 . S
H27 C24 0.931 . S
H28 C4 0.930 . S
H29 C1 0.930 . S
H30 C10 0.930 . S
H31 C22 0.929 . S
H32 C25 0.930 . S
C33 C34 1.351 . S
C33 N36 1.368 . S
C33 H38 0.931 . S
C34 C33 1.351 . S
C34 N35 1.373 . S
C34 H62 0.930 . S
N35 C34 1.373 . S
N35 C37 1.340 . S
N36 C33 1.368 . S
N36 C37 1.321 . S
N36 Co39 2.135 . S
C37 N35 1.340 . S
C37 N36 1.321 . S
C37 H61 0.930 . S
H38 C33 0.931 . S
Co39 N36 2.135 . S
Co39 N42 2.121 . S
Co39 O47 2.055 . S
Co39 O50 2.039 . S
Co39 N53 2.140 . S
C40 O41 1.227 . S
C40 O50 1.265 . S
O41 C40 1.227 . S
N42 Co39 2.121 . S
N42 C44 1.375 . S
N42 C45 1.313 . S
C43 C44 1.338 . S
C43 N46 1.377 . S
C43 H63 0.930 . S
C44 N42 1.375 . S
C44 C43 1.338 . S
C44 H48 0.931 . S
C45 N42 1.313 . S
C45 N46 1.344 . S
C45 H49 0.930 . S
N46 C43 1.377 . S
N46 C45 1.344 . S
O47 Co39 2.055 . S
O47 C51 1.253 . S
H48 C44 0.931 . S
H49 C45 0.930 . S
O50 Co39 2.039 . S
O50 C40 1.265 . S
C51 O47 1.253 . S
C51 O52 1.227 . S
O52 C51 1.227 . S
N53 Co39 2.140 . S
N53 C56 1.346 . S
N53 C57 1.345 . S
C54 C55 1.387 . S
C54 C58 1.391 . S
C55 C54 1.387 . S
C55 C56 1.369 . S
C55 H64 0.929 . S
C56 N53 1.346 . S
C56 C55 1.369 . S
C56 H59 0.928 . S
C57 N53 1.345 . S
C57 C58 1.371 . S
C57 H60 0.931 . S
C58 C54 1.391 . S
C58 C57 1.371 . S
C58 H65 0.930 . S
H59 C56 0.928 . S
H60 C57 0.931 . S
H61 C37 0.930 . S
H62 C34 0.930 . S
H63 C43 0.930 . S
H64 C55 0.929 . S
H65 C58 0.930 . S
C66 C67 1.351 . S
C66 N69 1.368 . S
C66 H71 0.931 . S
C67 C66 1.351 . S
C67 N68 1.373 . S
C67 H95 0.930 . S
N68 C67 1.373 . S
N68 C70 1.340 . S
N69 C66 1.368 . S
N69 C70 1.321 . S
N69 Co72 2.135 . S
C70 N68 1.340 . S
C70 N69 1.321 . S
C70 H94 0.930 . S
H71 C66 0.931 . S
Co72 N69 2.135 . S
Co72 N75 2.121 . S
Co72 O80 2.055 . S
Co72 O83 2.039 . S
Co72 N86 2.140 . S
C73 O74 1.227 . S
C73 O83 1.265 . S
O74 C73 1.227 . S
N75 Co72 2.121 . S
N75 C77 1.375 . S
N75 C78 1.313 . S
C76 C77 1.338 . S
C76 N79 1.377 1_455 S
C76 H96 0.930 . S
C77 N75 1.375 . S
C77 C76 1.338 . S
C77 H81 0.931 . S
C78 N75 1.313 . S
C78 N79 1.344 1_455 S
C78 H82 0.930 . S
N79 C76 1.377 1_655 S
N79 C78 1.344 1_655 S
O80 Co72 2.055 . S
O80 C84 1.253 . S
H81 C77 0.931 . S
H82 C78 0.930 . S
O83 Co72 2.039 . S
O83 C73 1.265 . S
C84 O80 1.253 . S
C84 O85 1.227 . S
O85 C84 1.227 . S
N86 Co72 2.140 . S
N86 C89 1.346 . S
N86 C90 1.345 . S
C87 C88 1.387 . S
C87 C91 1.391 . S
C88 C87 1.387 . S
C88 C89 1.369 . S
C88 H97 0.929 . S
C89 N86 1.346 . S
C89 C88 1.369 . S
C89 H92 0.928 . S
C90 N86 1.345 . S
C90 C91 1.371 . S
C90 H93 0.931 . S
C91 C87 1.391 . S
C91 C90 1.371 . S
C91 H98 0.930 . S
H92 C89 0.928 . S
H93 C90 0.931 . S
H94 C70 0.930 . S
H95 C67 0.930 . S
H96 C76 0.930 . S
H97 C88 0.929 . S
H98 C91 0.930 . S
C99 C100 1.351 . S
C99 N102 1.368 . S
C99 H104 0.931 . S
C100 C99 1.351 . S
C100 N101 1.373 . S
C100 H128 0.930 . S
N101 C100 1.373 . S
N101 C103 1.340 . S
N102 C99 1.368 . S
N102 C103 1.321 . S
N102 Co105 2.135 . S
C103 N101 1.340 . S
C103 N102 1.321 . S
C103 H127 0.930 . S
H104 C99 0.931 . S
Co105 N102 2.135 . S
Co105 N108 2.121 . S
Co105 O113 2.055 . S
Co105 O116 2.039 . S
Co105 N119 2.140 . S
C106 O107 1.227 . S
C106 O116 1.265 . S
O107 C106 1.227 . S
N108 Co105 2.121 . S
N108 C110 1.375 . S
N108 C111 1.313 . S
C109 C110 1.338 . S
C109 N112 1.377 . S
C109 H129 0.930 . S
C110 N108 1.375 . S
C110 C109 1.338 . S
C110 H114 0.931 . S
C111 N108 1.313 . S
C111 N112 1.344 . S
C111 H115 0.930 . S
N112 C109 1.377 . S
N112 C111 1.344 . S
O113 Co105 2.055 . S
O113 C117 1.253 . S
H114 C110 0.931 . S
H115 C111 0.930 . S
O116 Co105 2.039 . S
O116 C106 1.265 . S
C117 O113 1.253 . S
C117 O118 1.227 . S
O118 C117 1.227 . S
N119 Co105 2.140 . S
N119 C122 1.346 . S
N119 C123 1.345 . S
C120 C121 1.387 . S
C120 C124 1.391 . S
C121 C120 1.387 . S
C121 C122 1.369 . S
C121 H130 0.929 . S
C122 N119 1.346 . S
C122 C121 1.369 . S
C122 H125 0.928 . S
C123 N119 1.345 . S
C123 C124 1.371 . S
C123 H126 0.931 . S
C124 C120 1.391 . S
C124 C123 1.371 . S
C124 H131 0.930 . S
H125 C122 0.928 . S
H126 C123 0.931 . S
H127 C103 0.930 . S
H128 C100 0.930 . S
H129 C109 0.930 . S
H130 C121 0.929 . S
H131 C124 0.930 . S
C132 C133 1.351 . S
C132 N135 1.368 . S
C132 H137 0.931 . S
C133 C132 1.351 . S
C133 N134 1.373 . S
C133 H161 0.930 . S
N134 C133 1.373 . S
N134 C136 1.340 . S
N135 C132 1.368 . S
N135 C136 1.321 . S
N135 Co138 2.135 . S
C136 N134 1.340 . S
C136 N135 1.321 . S
C136 H160 0.930 . S
H137 C132 0.931 . S
Co138 N135 2.135 . S
Co138 N141 2.121 . S
Co138 O146 2.055 . S
Co138 O149 2.039 . S
Co138 N152 2.140 . S
C139 O140 1.227 . S
C139 O149 1.265 . S
O140 C139 1.227 . S
N141 Co138 2.121 . S
N141 C143 1.375 . S
N141 C144 1.313 . S
C142 C143 1.338 . S
C142 N145 1.377 1_655 S
C142 H162 0.930 . S
C143 N141 1.375 . S
C143 C142 1.338 . S
C143 H147 0.931 . S
C144 N141 1.313 . S
C144 N145 1.344 1_655 S
C144 H148 0.930 . S
N145 C142 1.377 1_455 S
N145 C144 1.344 1_455 S
O146 Co138 2.055 . S
O146 C150 1.253 . S
H147 C143 0.931 . S
H148 C144 0.930 . S
O149 Co138 2.039 . S
O149 C139 1.265 . S
C150 O146 1.253 . S
C150 O151 1.227 . S
O151 C150 1.227 . S
N152 Co138 2.140 . S
N152 C155 1.346 . S
N152 C156 1.345 . S
C153 C154 1.387 . S
C153 C157 1.391 . S
C154 C153 1.387 . S
C154 C155 1.369 . S
C154 H163 0.929 . S
C155 N152 1.346 . S
C155 C154 1.369 . S
C155 H158 0.928 . S
C156 N152 1.345 . S
C156 C157 1.371 . S
C156 H159 0.931 . S
C157 C153 1.391 . S
C157 C156 1.371 . S
C157 H164 0.930 . S
H158 C155 0.928 . S
H159 C156 0.931 . S
H160 C136 0.930 . S
H161 C133 0.930 . S
H162 C142 0.930 . S
H163 C154 0.929 . S
H164 C157 0.930 . S
C165 C166 1.351 . S
C165 N168 1.368 . S
C165 H170 0.931 . S
C166 C165 1.351 . S
C166 N167 1.373 . S
C166 H194 0.930 . S
N167 C166 1.373 . S
N167 C169 1.340 . S
N168 C165 1.368 . S
N168 C169 1.321 . S
N168 Co171 2.135 . S
C169 N167 1.340 . S
C169 N168 1.321 . S
C169 H193 0.930 . S
H170 C165 0.931 . S
Co171 N168 2.135 . S
Co171 N174 2.121 . S
Co171 O179 2.055 . S
Co171 O182 2.039 . S
Co171 N185 2.140 . S
C172 O173 1.227 . S
C172 O182 1.265 . S
O173 C172 1.227 . S
N174 Co171 2.121 . S
N174 C176 1.375 . S
N174 C177 1.313 . S
C175 C176 1.338 . S
C175 N178 1.377 . S
C175 H195 0.930 . S
C176 N174 1.375 . S
C176 C175 1.338 . S
C176 H180 0.931 . S
C177 N174 1.313 . S
C177 N178 1.344 . S
C177 H181 0.930 . S
N178 C175 1.377 . S
N178 C177 1.344 . S
O179 Co171 2.055 . S
O179 C183 1.253 . S
H180 C176 0.931 . S
H181 C177 0.930 . S
O182 Co171 2.039 . S
O182 C172 1.265 . S
C183 O179 1.253 . S
C183 O184 1.227 . S
O184 C183 1.227 . S
N185 Co171 2.140 . S
N185 C188 1.346 . S
N185 C189 1.345 . S
C186 C187 1.387 . S
C186 C190 1.391 . S
C187 C186 1.387 . S
C187 C188 1.369 . S
C187 H196 0.929 . S
C188 N185 1.346 . S
C188 C187 1.369 . S
C188 H191 0.928 . S
C189 N185 1.345 . S
C189 C190 1.371 . S
C189 H192 0.931 . S
C190 C186 1.391 . S
C190 C189 1.371 . S
C190 H197 0.930 . S
H191 C188 0.928 . S
H192 C189 0.931 . S
H193 C169 0.930 . S
H194 C166 0.930 . S
H195 C175 0.930 . S
H196 C187 0.929 . S
H197 C190 0.930 . S
C198 C199 1.351 . S
C198 N201 1.368 . S
C198 H203 0.931 . S
C199 C198 1.351 . S
C199 N200 1.373 . S
C199 H227 0.930 . S
N200 C199 1.373 . S
N200 C202 1.340 . S
N201 C198 1.368 . S
N201 C202 1.321 . S
N201 Co204 2.135 . S
C202 N200 1.340 . S
C202 N201 1.321 . S
C202 H226 0.930 . S
H203 C198 0.931 . S
Co204 N201 2.135 . S
Co204 N207 2.121 . S
Co204 O212 2.055 . S
Co204 O215 2.039 . S
Co204 N218 2.140 . S
C205 O206 1.227 . S
C205 O215 1.265 . S
O206 C205 1.227 . S
N207 Co204 2.121 . S
N207 C209 1.375 . S
N207 C210 1.313 . S
C208 C209 1.338 . S
C208 N211 1.377 1_655 S
C208 H228 0.930 . S
C209 N207 1.375 . S
C209 C208 1.338 . S
C209 H213 0.931 . S
C210 N207 1.313 . S
C210 N211 1.344 1_655 S
C210 H214 0.930 . S
N211 C208 1.377 1_455 S
N211 C210 1.344 1_455 S
O212 Co204 2.055 . S
O212 C216 1.253 . S
H213 C209 0.931 . S
H214 C210 0.930 . S
O215 Co204 2.039 . S
O215 C205 1.265 . S
C216 O212 1.253 . S
C216 O217 1.227 . S
O217 C216 1.227 . S
N218 Co204 2.140 . S
N218 C221 1.346 . S
N218 C222 1.345 . S
C219 C220 1.387 . S
C219 C223 1.391 . S
C220 C219 1.387 . S
C220 C221 1.369 . S
C220 H229 0.929 . S
C221 N218 1.346 . S
C221 C220 1.369 . S
C221 H224 0.928 . S
C222 N218 1.345 . S
C222 C223 1.371 . S
C222 H225 0.931 . S
C223 C219 1.391 . S
C223 C222 1.371 . S
C223 H230 0.930 . S
H224 C221 0.928 . S
H225 C222 0.931 . S
H226 C202 0.930 . S
H227 C199 0.930 . S
H228 C208 0.930 . S
H229 C220 0.929 . S
H230 C223 0.930 . S
C231 C232 1.351 . S
C231 N234 1.368 . S
C231 H236 0.931 . S
C232 C231 1.351 . S
C232 N233 1.373 . S
C232 H260 0.930 . S
N233 C232 1.373 . S
N233 C235 1.340 . S
N234 C231 1.368 . S
N234 C235 1.321 . S
N234 Co237 2.135 . S
C235 N233 1.340 . S
C235 N234 1.321 . S
C235 H259 0.930 . S
H236 C231 0.931 . S
Co237 N234 2.135 . S
Co237 N240 2.121 . S
Co237 O245 2.055 . S
Co237 O248 2.039 . S
Co237 N251 2.140 . S
C238 O239 1.227 . S
C238 O248 1.265 . S
O239 C238 1.227 . S
N240 Co237 2.121 . S
N240 C242 1.375 . S
N240 C243 1.313 . S
C241 C242 1.338 . S
C241 N244 1.377 . S
C241 H261 0.930 . S
C242 N240 1.375 . S
C242 C241 1.338 . S
C242 H246 0.931 . S
C243 N240 1.313 . S
C243 N244 1.344 . S
C243 H247 0.930 . S
N244 C241 1.377 . S
N244 C243 1.344 . S
O245 Co237 2.055 . S
O245 C249 1.253 . S
H246 C242 0.931 . S
H247 C243 0.930 . S
O248 Co237 2.039 . S
O248 C238 1.265 . S
C249 O245 1.253 . S
C249 O250 1.227 . S
O250 C249 1.227 . S
N251 Co237 2.140 . S
N251 C254 1.346 . S
N251 C255 1.345 . S
C252 C253 1.387 . S
C252 C256 1.391 . S
C253 C252 1.387 . S
C253 C254 1.369 . S
C253 H262 0.929 . S
C254 N251 1.346 . S
C254 C253 1.369 . S
C254 H257 0.928 . S
C255 N251 1.345 . S
C255 C256 1.371 . S
C255 H258 0.931 . S
C256 C252 1.391 . S
C256 C255 1.371 . S
C256 H263 0.930 . S
H257 C254 0.928 . S
H258 C255 0.931 . S
H259 C235 0.930 . S
H260 C232 0.930 . S
H261 C241 0.930 . S
H262 C253 0.929 . S
H263 C256 0.930 . S
H264 C282 0.951 . S
H265 C284 0.951 . S
H266 C286 0.950 . S
H267 C287 0.950 . S
H268 C289 0.950 . S
H269 C292 0.950 . S
H270 C293 0.950 . S
H271 C295 0.950 . S
H272 C296 0.922 1_556 S
H273 C297 0.951 . S
H274 C299 0.951 . S
H275 C301 0.950 . S
H276 C302 0.950 . S
H277 C304 0.950 . S
H278 C307 0.950 . S
H279 C308 0.950 . S
H280 C310 0.950 . S
H281 C311 0.922 1_554 S
C282 H264 0.951 . S
C282 C283 1.366 1_655 S
C282 C284 1.388 . S
C283 C282 1.366 1_455 S
C283 C287 1.385 . S
C284 H265 0.951 . S
C284 C282 1.388 . S
C284 C285 1.366 1_655 S
C285 C284 1.366 1_455 S
C285 C286 1.414 . S
C285 C288 1.499 . S
C286 H266 0.950 . S
C286 C285 1.414 . S
C286 C287 1.374 . S
C287 H267 0.950 . S
C287 C283 1.385 . S
C287 C286 1.374 . S
C288 C285 1.499 . S
C288 C289 1.373 . S
C288 C290 1.389 1_455 S
C289 H268 0.950 . S
C289 C288 1.373 . S
C289 C305 1.377 1_544 S
C290 C288 1.389 1_655 S
C290 C291 1.524 . S
C290 C304 1.377 1_544 S
C291 C290 1.524 . S
C291 C292 1.397 . S
C291 C296 1.363 . S
C292 H269 0.950 . S
C292 C291 1.397 . S
C292 C293 1.334 . S
C293 H270 0.950 . S
C293 C292 1.334 . S
C293 C294 1.287 . S
C294 C293 1.287 . S
C294 C295 1.524 . S
C294 H313 0.913 . S
C295 H271 0.950 . S
C295 C294 1.524 . S
C295 C296 1.415 . S
C296 H272 0.922 1_554 S
C296 C291 1.363 . S
C296 C295 1.415 . S
C297 H273 0.951 . S
C297 C298 1.366 1_455 S
C297 C299 1.388 . S
C298 C297 1.366 1_655 S
C298 C302 1.385 . S
C299 H274 0.951 . S
C299 C297 1.388 . S
C299 C300 1.366 1_455 S
C300 C299 1.366 1_655 S
C300 C301 1.414 . S
C300 C303 1.499 . S
C301 H275 0.950 . S
C301 C300 1.414 . S
C301 C302 1.374 . S
C302 H276 0.950 . S
C302 C298 1.385 . S
C302 C301 1.374 . S
C303 C300 1.499 . S
C303 C304 1.373 . S
C303 C305 1.389 1_655 S
C304 H277 0.950 . S
C304 C290 1.377 1_566 S
C304 C303 1.373 . S
C305 C289 1.377 1_566 S
C305 C303 1.389 1_455 S
C305 C306 1.524 . S
C306 C305 1.524 . S
C306 C307 1.397 . S
C306 C311 1.363 . S
C307 H278 0.950 . S
C307 C306 1.397 . S
C307 C308 1.334 . S
C308 H279 0.950 . S
C308 C307 1.334 . S
C308 C309 1.287 . S
C309 C308 1.287 . S
C309 C310 1.524 . S
C309 H312 0.999 . S
C310 H280 0.950 . S
C310 C309 1.524 . S
C310 C311 1.415 . S
C311 H281 0.922 1_556 S
C311 C306 1.363 . S
C311 C310 1.415 . S
H312 C309 0.999 . S
H313 C294 0.913 . S
H314 C332 0.951 . S
H315 C334 0.951 . S
H316 C336 0.950 . S
H317 C337 0.950 . S
H318 C339 0.950 . S
H319 C342 0.950 . S
H320 C343 0.950 . S
H321 C345 0.950 . S
H322 C346 0.950 1_554 S
H323 C347 0.951 . S
H324 C349 0.951 . S
H325 C351 0.950 . S
H326 C352 0.950 . S
H327 C354 0.950 . S
H328 C357 0.950 . S
H329 C358 0.950 . S
H330 C360 0.950 . S
H331 C361 0.950 1_556 S
C332 H314 0.951 . S
C332 C333 1.366 . S
C332 C334 1.388 . S
C333 C332 1.366 . S
C333 C337 1.385 . S
C334 H315 0.951 . S
C334 C332 1.388 . S
C334 C335 1.366 . S
C335 C334 1.366 . S
C335 C336 1.414 . S
C335 C338 1.499 . S
C336 H316 0.950 . S
C336 C335 1.414 . S
C336 C337 1.374 . S
C337 H317 0.950 . S
C337 C333 1.385 . S
C337 C336 1.374 . S
C338 C335 1.499 . S
C338 C339 1.373 . S
C338 C340 1.389 . S
C339 H318 0.950 . S
C339 C338 1.373 . S
C339 C355 1.377 1_546 S
C340 C338 1.389 . S
C340 C341 1.524 . S
C340 C354 1.377 1_546 S
C341 C340 1.524 . S
C341 C342 1.397 . S
C341 C346 1.363 . S
C342 H319 0.950 . S
C342 C341 1.397 . S
C342 C343 1.334 . S
C343 H320 0.950 . S
C343 C342 1.334 . S
C343 C344 1.287 . S
C344 C343 1.287 . S
C344 C345 1.524 . S
C344 H363 0.913 . S
C345 H321 0.950 . S
C345 C344 1.524 . S
C345 C346 1.415 . S
C346 H322 0.950 1_556 S
C346 C341 1.363 . S
C346 C345 1.415 . S
C347 H323 0.951 . S
C347 C348 1.366 . S
C347 C349 1.388 . S
C348 C347 1.366 . S
C348 C352 1.385 . S
C349 H324 0.951 . S
C349 C347 1.388 . S
C349 C350 1.366 . S
C350 C349 1.366 . S
C350 C351 1.414 . S
C350 C353 1.499 . S
C351 H325 0.950 . S
C351 C350 1.414 . S
C351 C352 1.374 . S
C352 H326 0.950 . S
C352 C348 1.385 . S
C352 C351 1.374 . S
C353 C350 1.499 . S
C353 C354 1.373 . S
C353 C355 1.389 . S
C354 H327 0.950 . S
C354 C340 1.377 1_564 S
C354 C353 1.373 . S
C355 C339 1.377 1_564 S
C355 C353 1.389 . S
C355 C356 1.524 . S
C356 C355 1.524 . S
C356 C357 1.397 . S
C356 C361 1.363 . S
C357 H328 0.950 . S
C357 C356 1.397 . S
C357 C358 1.334 . S
C358 H329 0.950 . S
C358 C357 1.334 . S
C358 C359 1.287 . S
C359 C358 1.287 . S
C359 C360 1.524 . S
C359 H362 0.999 . S
C360 H330 0.950 . S
C360 C359 1.524 . S
C360 C361 1.415 . S
C361 H331 0.950 1_554 S
C361 C356 1.363 . S
C361 C360 1.415 . S
H362 C359 0.999 . S
H363 C344 0.913 . S
H364 C382 0.951 . S
H365 C384 0.951 . S
H366 C386 0.950 . S
H367 C387 0.950 . S
H368 C389 0.950 . S
H369 C392 0.950 . S
H370 C393 0.950 . S
H371 C395 0.950 . S
H372 C396 0.950 . S
H373 C397 0.951 . S
H374 C399 0.951 . S
H375 C401 0.950 . S
H376 C402 0.950 . S
H377 C404 0.950 . S
H378 C407 0.950 . S
H379 C408 0.950 . S
H380 C410 0.950 . S
H381 C411 0.950 . S
C382 H364 0.951 . S
C382 C383 1.366 . S
C382 C384 1.388 . S
C383 C382 1.366 . S
C383 C387 1.385 1_655 S
C384 H365 0.951 . S
C384 C382 1.388 . S
C384 C385 1.366 . S
C385 C384 1.366 . S
C385 C386 1.414 1_655 S
C385 C388 1.499 . S
C386 H366 0.950 . S
C386 C385 1.414 1_455 S
C386 C387 1.374 . S
C387 H367 0.950 . S
C387 C383 1.385 1_455 S
C387 C386 1.374 . S
C388 C385 1.499 . S
C388 C389 1.373 1_655 S
C388 C390 1.389 . S
C389 H368 0.950 . S
C389 C388 1.373 1_455 S
C389 C405 1.377 . S
C390 C388 1.389 . S
C390 C391 1.524 . S
C390 C404 1.377 . S
C391 C390 1.524 . S
C391 C392 1.397 1_655 S
C391 C396 1.363 . S
C392 H369 0.950 . S
C392 C391 1.397 1_455 S
C392 C393 1.334 . S
C393 H370 0.950 . S
C393 C392 1.334 . S
C393 C394 1.287 1_455 S
C394 C393 1.287 1_655 S
C394 C395 1.524 . S
C394 H413 0.913 . S
C395 H371 0.950 . S
C395 C394 1.524 . S
C395 C396 1.415 . S
C396 H372 0.950 . S
C396 C391 1.363 . S
C396 C395 1.415 . S
C397 H373 0.951 . S
C397 C398 1.366 . S
C397 C399 1.388 . S
C398 C397 1.366 . S
C398 C402 1.385 1_455 S
C399 H374 0.951 . S
C399 C397 1.388 . S
C399 C400 1.366 . S
C400 C399 1.366 . S
C400 C401 1.414 1_455 S
C400 C403 1.499 . S
C401 H375 0.950 . S
C401 C400 1.414 1_655 S
C401 C402 1.374 . S
C402 H376 0.950 . S
C402 C398 1.385 1_655 S
C402 C401 1.374 . S
C403 C400 1.499 . S
C403 C404 1.373 1_455 S
C403 C405 1.389 . S
C404 H377 0.950 . S
C404 C390 1.377 . S
C404 C403 1.373 1_655 S
C405 C389 1.377 . S
C405 C403 1.389 . S
C405 C406 1.524 . S
C406 C405 1.524 . S
C406 C407 1.397 1_455 S
C406 C411 1.363 . S
C407 H378 0.950 . S
C407 C406 1.397 1_655 S
C407 C408 1.334 . S
C408 H379 0.950 . S
C408 C407 1.334 . S
C408 C409 1.287 1_655 S
C409 C408 1.287 1_455 S
C409 C410 1.524 . S
C409 H412 0.999 . S
C410 H380 0.950 . S
C410 C409 1.524 . S
C410 C411 1.415 . S
C411 H381 0.950 . S
C411 C406 1.363 . S
C411 C410 1.415 . S
H412 C409 0.999 . S
H413 C394 0.913 . S
H414 C432 0.951 . S
H415 C434 0.951 . S
H416 C436 0.950 . S
H417 C437 0.950 . S
H418 C439 0.950 . S
H419 C442 0.950 . S
H420 C443 0.950 . S
H421 C445 0.950 . S
H422 C446 0.950 . S
H423 C447 0.951 . S
H424 C449 0.951 . S
H425 C451 0.950 . S
H426 C452 0.950 . S
H427 C454 0.950 . S
H428 C457 0.950 . S
H429 C458 0.950 . S
H430 C460 0.950 . S
H431 C461 0.950 . S
C432 H414 0.951 . S
C432 C433 1.366 . S
C432 C434 1.388 . S
C433 C432 1.366 . S
C433 C437 1.385 . S
C434 H415 0.951 . S
C434 C432 1.388 . S
C434 C435 1.366 . S
C435 C434 1.366 . S
C435 C436 1.414 . S
C435 C438 1.499 . S
C436 H416 0.950 . S
C436 C435 1.414 . S
C436 C437 1.374 . S
C437 H417 0.950 . S
C437 C433 1.385 . S
C437 C436 1.374 . S
C438 C435 1.499 . S
C438 C439 1.373 . S
C438 C440 1.389 . S
C439 H418 0.950 . S
C439 C438 1.373 . S
C439 C455 1.377 . S
C440 C438 1.389 . S
C440 C441 1.524 . S
C440 C454 1.377 . S
C441 C440 1.524 . S
C441 C442 1.397 . S
C441 C446 1.363 . S
C442 H419 0.950 . S
C442 C441 1.397 . S
C442 C443 1.334 . S
C443 H420 0.950 . S
C443 C442 1.334 . S
C443 C444 1.287 . S
C444 C443 1.287 . S
C444 C445 1.524 . S
C444 H463 0.913 . S
C445 H421 0.950 . S
C445 C444 1.524 . S
C445 C446 1.415 . S
C446 H422 0.950 . S
C446 C441 1.363 . S
C446 C445 1.415 . S
C447 H423 0.951 . S
C447 C448 1.366 . S
C447 C449 1.388 . S
C448 C447 1.366 . S
C448 C452 1.385 . S
C449 H424 0.951 . S
C449 C447 1.388 . S
C449 C450 1.366 . S
C450 C449 1.366 . S
C450 C451 1.414 . S
C450 C453 1.499 . S
C451 H425 0.950 . S
C451 C450 1.414 . S
C451 C452 1.374 . S
C452 H426 0.950 . S
C452 C448 1.385 . S
C452 C451 1.374 . S
C453 C450 1.499 . S
C453 C454 1.373 . S
C453 C455 1.389 . S
C454 H427 0.950 . S
C454 C440 1.377 . S
C454 C453 1.373 . S
C455 C439 1.377 . S
C455 C453 1.389 . S
C455 C456 1.524 . S
C456 C455 1.524 . S
C456 C457 1.397 . S
C456 C461 1.363 . S
C457 H428 0.950 . S
C457 C456 1.397 . S
C457 C458 1.334 . S
C458 H429 0.950 . S
C458 C457 1.334 . S
C458 C459 1.287 . S
C459 C458 1.287 . S
C459 C460 1.524 . S
C459 H462 0.999 . S
C460 H430 0.950 . S
C460 C459 1.524 . S
C460 C461 1.415 . S
C461 H431 0.950 . S
C461 C456 1.363 . S
C461 C460 1.415 . S
H462 C459 0.999 . S
H463 C444 0.913 . S
H464 C482 0.951 . S
H465 C484 0.951 . S
H466 C486 0.950 . S
H467 C487 0.950 . S
H468 C489 0.950 . S
H469 C492 0.950 . S
H470 C493 0.950 . S
H471 C495 0.950 . S
H472 C496 0.950 . S
H473 C497 0.951 . S
H474 C499 0.951 . S
H475 C501 0.950 . S
H476 C502 0.950 . S
H477 C504 0.950 . S
H478 C507 0.950 . S
H479 C508 0.950 . S
H480 C510 0.950 . S
H481 C511 0.950 . S
C482 H464 0.951 . S
C482 C483 1.366 . S
C482 C484 1.388 . S
C483 C482 1.366 . S
C483 C487 1.385 . S
C484 H465 0.951 . S
C484 C482 1.388 . S
C484 C485 1.366 . S
C485 C484 1.366 . S
C485 C486 1.414 . S
C485 C488 1.499 . S
C486 H466 0.950 . S
C486 C485 1.414 . S
C486 C487 1.374 . S
C487 H467 0.950 . S
C487 C483 1.385 . S
C487 C486 1.374 . S
C488 C485 1.499 . S
C488 C489 1.373 . S
C488 C490 1.389 . S
C489 H468 0.950 . S
C489 C488 1.373 . S
C489 C505 1.377 1_565 S
C490 C488 1.389 . S
C490 C491 1.524 . S
C490 C504 1.377 1_565 S
C491 C490 1.524 . S
C491 C492 1.397 . S
C491 C496 1.363 . S
C492 H469 0.950 . S
C492 C491 1.397 . S
C492 C493 1.334 . S
C493 H470 0.950 . S
C493 C492 1.334 . S
C493 C494 1.287 . S
C494 C493 1.287 . S
C494 C495 1.524 . S
C494 H513 0.913 . S
C495 H471 0.950 . S
C495 C494 1.524 . S
C495 C496 1.415 . S
C496 H472 0.950 . S
C496 C491 1.363 . S
C496 C495 1.415 . S
C497 H473 0.951 . S
C497 C498 1.366 . S
C497 C499 1.388 . S
C498 C497 1.366 . S
C498 C502 1.385 . S
C499 H474 0.951 . S
C499 C497 1.388 . S
C499 C500 1.366 . S
C500 C499 1.366 . S
C500 C501 1.414 . S
C500 C503 1.499 . S
C501 H475 0.950 . S
C501 C500 1.414 . S
C501 C502 1.374 . S
C502 H476 0.950 . S
C502 C498 1.385 . S
C502 C501 1.374 . S
C503 C500 1.499 . S
C503 C504 1.373 . S
C503 C505 1.389 . S
C504 H477 0.950 . S
C504 C490 1.377 1_545 S
C504 C503 1.373 . S
C505 C489 1.377 1_545 S
C505 C503 1.389 . S
C505 C506 1.524 . S
C506 C505 1.524 . S
C506 C507 1.397 . S
C506 C511 1.363 . S
C507 H478 0.950 . S
C507 C506 1.397 . S
C507 C508 1.334 . S
C508 H479 0.950 . S
C508 C507 1.334 . S
C508 C509 1.287 . S
C509 C508 1.287 . S
C509 C510 1.524 . S
C509 H512 0.999 . S
C510 H480 0.950 . S
C510 C509 1.524 . S
C510 C511 1.415 . S
C511 H481 0.950 . S
C511 C506 1.363 . S
C511 C510 1.415 . S
H512 C509 0.999 . S
H513 C494 0.913 . S
H514 C532 0.951 . S
H515 C534 0.951 . S
H516 C536 0.950 . S
H517 C537 0.950 . S
H518 C539 0.950 . S
H519 C542 0.950 . S
H520 C543 0.950 . S
H521 C545 0.950 . S
H522 C546 0.950 . S
H523 C547 0.951 . S
H524 C549 0.951 . S
H525 C551 0.950 . S
H526 C552 0.950 . S
H527 C554 0.950 . S
H528 C557 0.950 . S
H529 C558 0.950 . S
H530 C560 0.950 . S
H531 C561 0.950 . S
C532 H514 0.951 . S
C532 C533 1.366 . S
C532 C534 1.388 . S
C533 C532 1.366 . S
C533 C537 1.385 . S
C534 H515 0.951 . S
C534 C532 1.388 . S
C534 C535 1.366 . S
C535 C534 1.366 . S
C535 C536 1.414 . S
C535 C538 1.499 . S
C536 H516 0.950 . S
C536 C535 1.414 . S
C536 C537 1.374 . S
C537 H517 0.950 . S
C537 C533 1.385 . S
C537 C536 1.374 . S
C538 C535 1.499 . S
C538 C539 1.373 . S
C538 C540 1.389 . S
C539 H518 0.950 . S
C539 C538 1.373 . S
C539 C555 1.377 . S
C540 C538 1.389 . S
C540 C541 1.524 . S
C540 C554 1.377 . S
C541 C540 1.524 . S
C541 C542 1.397 . S
C541 C546 1.363 . S
C542 H519 0.950 . S
C542 C541 1.397 . S
C542 C543 1.334 . S
C543 H520 0.950 . S
C543 C542 1.334 . S
C543 C544 1.287 . S
C544 C543 1.287 . S
C544 C545 1.524 . S
C544 H563 0.913 . S
C545 H521 0.950 . S
C545 C544 1.524 . S
C545 C546 1.415 . S
C546 H522 0.950 . S
C546 C541 1.363 . S
C546 C545 1.415 . S
C547 H523 0.951 . S
C547 C548 1.366 . S
C547 C549 1.388 . S
C548 C547 1.366 . S
C548 C552 1.385 . S
C549 H524 0.951 . S
C549 C547 1.388 . S
C549 C550 1.366 . S
C550 C549 1.366 . S
C550 C551 1.414 . S
C550 C553 1.499 . S
C551 H525 0.950 . S
C551 C550 1.414 . S
C551 C552 1.374 . S
C552 H526 0.950 . S
C552 C548 1.385 . S
C552 C551 1.374 . S
C553 C550 1.499 . S
C553 C554 1.373 . S
C553 C555 1.389 . S
C554 H527 0.950 . S
C554 C540 1.377 . S
C554 C553 1.373 . S
C555 C539 1.377 . S
C555 C553 1.389 . S
C555 C556 1.524 . S
C556 C555 1.524 . S
C556 C557 1.397 . S
C556 C561 1.363 . S
C557 H528 0.950 . S
C557 C556 1.397 . S
C557 C558 1.334 . S
C558 H529 0.950 . S
C558 C557 1.334 . S
C558 C559 1.287 . S
C559 C558 1.287 . S
C559 C560 1.524 . S
C559 H562 0.999 . S
C560 H530 0.950 . S
C560 C559 1.524 . S
C560 C561 1.415 . S
C561 H531 0.950 . S
C561 C556 1.363 . S
C561 C560 1.415 . S
H562 C559 0.999 . S
H563 C544 0.913 . S
H564 C582 0.951 . S
H565 C584 0.951 . S
H566 C586 0.950 . S
H567 C587 0.950 . S
H568 C589 0.950 . S
H569 C592 0.950 . S
H570 C593 0.950 . S
H571 C595 0.950 1_545 S
H572 C596 0.945 1_545 S
H573 C597 0.951 . S
H574 C599 0.951 . S
H575 C601 0.950 . S
H576 C602 0.950 . S
H577 C604 0.950 . S
H578 C607 0.950 . S
H579 C608 0.950 . S
H580 C610 0.962 1_565 S
H581 C611 0.945 1_565 S
C582 H564 0.951 . S
C582 C583 1.366 . S
C582 C584 1.388 . S
C583 C582 1.366 . S
C583 C587 1.385 . S
C584 H565 0.951 . S
C584 C582 1.388 . S
C584 C585 1.366 . S
C585 C584 1.366 . S
C585 C586 1.414 . S
C585 C588 1.499 . S
C586 H566 0.950 . S
C586 C585 1.414 . S
C586 C587 1.374 . S
C587 H567 0.950 . S
C587 C583 1.385 . S
C587 C586 1.374 . S
C588 C585 1.499 . S
C588 C589 1.373 . S
C588 C590 1.389 . S
C589 H568 0.950 . S
C589 C588 1.373 . S
C589 C605 1.377 1_565 S
C590 C588 1.389 . S
C590 C591 1.524 . S
C590 C604 1.377 1_565 S
C591 C590 1.524 . S
C591 C592 1.397 . S
C591 C596 1.369 . S
C592 H569 0.950 . S
C592 C591 1.397 . S
C592 C593 1.334 . S
C593 H570 0.950 . S
C593 C592 1.334 . S
C593 C594 1.287 . S
C594 C593 1.287 . S
C594 C595 1.524 . S
C594 H613 0.913 . S
C595 H571 0.950 1_565 S
C595 C594 1.524 . S
C595 C596 1.416 . S
C596 H572 0.945 1_565 S
C596 C591 1.369 . S
C596 C595 1.416 . S
C597 H573 0.951 . S
C597 C598 1.366 . S
C597 C599 1.388 . S
C598 C597 1.366 . S
C598 C602 1.385 . S
C599 H574 0.951 . S
C599 C597 1.388 . S
C599 C600 1.366 . S
C600 C599 1.366 . S
C600 C601 1.414 . S
C600 C603 1.499 . S
C601 H575 0.950 . S
C601 C600 1.414 . S
C601 C602 1.374 . S
C602 H576 0.950 . S
C602 C598 1.385 . S
C602 C601 1.374 . S
C603 C600 1.499 . S
C603 C604 1.373 . S
C603 C605 1.389 . S
C604 H577 0.950 . S
C604 C590 1.377 1_545 S
C604 C603 1.373 . S
C605 C589 1.377 1_545 S
C605 C603 1.389 . S
C605 C606 1.524 . S
C606 C605 1.524 . S
C606 C607 1.397 . S
C606 C611 1.369 . S
C607 H578 0.950 . S
C607 C606 1.397 . S
C607 C608 1.334 . S
C608 H579 0.950 . S
C608 C607 1.334 . S
C608 C609 1.287 . S
C609 C608 1.287 . S
C609 C610 1.524 . S
C609 H612 0.999 . S
C610 H580 0.962 1_545 S
C610 C609 1.524 . S
C610 C611 1.416 . S
C611 H581 0.945 1_545 S
C611 C606 1.369 . S
C611 C610 1.416 . S
H612 C609 0.999 . S
H613 C594 0.913 . S
H614 C632 0.951 . S
H615 C634 0.951 . S
H616 C636 0.950 . S
H617 C637 0.950 . S
H618 C639 0.950 . S
H619 C642 0.950 . S
H620 C643 0.950 . S
H621 C645 0.950 . S
H622 C646 0.950 . S
H623 C647 0.951 . S
H624 C649 0.951 . S
H625 C651 0.950 . S
H626 C652 0.950 . S
H627 C654 0.950 . S
H628 C657 0.950 . S
H629 C658 0.950 . S
H630 C660 0.950 . S
H631 C661 0.950 . S
C632 H614 0.951 . S
C632 C633 1.366 . S
C632 C634 1.388 . S
C633 C632 1.366 . S
C633 C637 1.385 . S
C634 H615 0.951 . S
C634 C632 1.388 . S
C634 C635 1.366 . S
C635 C634 1.366 . S
C635 C636 1.414 . S
C635 C638 1.499 . S
C636 H616 0.950 . S
C636 C635 1.414 . S
C636 C637 1.374 . S
C637 H617 0.950 . S
C637 C633 1.385 . S
C637 C636 1.374 . S
C638 C635 1.499 . S
C638 C639 1.373 . S
C638 C640 1.389 . S
C639 H618 0.950 . S
C639 C638 1.373 . S
C639 C655 1.377 . S
C640 C638 1.389 . S
C640 C641 1.524 . S
C640 C654 1.377 . S
C641 C640 1.524 . S
C641 C642 1.397 . S
C641 C646 1.363 . S
C642 H619 0.950 . S
C642 C641 1.397 . S
C642 C643 1.334 . S
C643 H620 0.950 . S
C643 C642 1.334 . S
C643 C644 1.287 . S
C644 C643 1.287 . S
C644 C645 1.524 . S
C644 H663 0.913 . S
C645 H621 0.950 . S
C645 C644 1.524 . S
C645 C646 1.415 . S
C646 H622 0.950 . S
C646 C641 1.363 . S
C646 C645 1.415 . S
C647 H623 0.951 . S
C647 C648 1.366 . S
C647 C649 1.388 . S
C648 C647 1.366 . S
C648 C652 1.385 . S
C649 H624 0.951 . S
C649 C647 1.388 . S
C649 C650 1.366 . S
C650 C649 1.366 . S
C650 C651 1.414 . S
C650 C653 1.499 . S
C651 H625 0.950 . S
C651 C650 1.414 . S
C651 C652 1.374 . S
C652 H626 0.950 . S
C652 C648 1.385 . S
C652 C651 1.374 . S
C653 C650 1.499 . S
C653 C654 1.373 . S
C653 C655 1.389 . S
C654 H627 0.950 . S
C654 C640 1.377 . S
C654 C653 1.373 . S
C655 C639 1.377 . S
C655 C653 1.389 . S
C655 C656 1.524 . S
C656 C655 1.524 . S
C656 C657 1.397 . S
C656 C661 1.363 . S
C657 H628 0.950 . S
C657 C656 1.397 . S
C657 C658 1.334 . S
C658 H629 0.950 . S
C658 C657 1.334 . S
C658 C659 1.287 . S
C659 C658 1.287 . S
C659 C660 1.524 . S
C659 H662 0.999 . S
C660 H630 0.950 . S
C660 C659 1.524 . S
C660 C661 1.415 . S
C661 H631 0.950 . S
C661 C656 1.363 . S
C661 C660 1.415 . S
H662 C659 0.999 . S
H663 C644 0.913 . S
H664 C682 0.951 . S
H665 C684 0.951 . S
H666 C686 0.950 . S
H667 C687 0.950 . S
H668 C689 0.950 . S
H669 C692 0.950 . S
H670 C693 0.950 . S
H671 C695 0.950 . S
H672 C696 0.950 . S
H673 C697 0.951 . S
H674 C699 0.951 . S
H675 C701 0.950 . S
H676 C702 0.950 . S
H677 C704 0.950 . S
H678 C707 0.950 . S
H679 C708 0.950 . S
H680 C710 0.950 . S
H681 C711 0.950 . S
C682 H664 0.951 . S
C682 C683 1.366 . S
C682 C684 1.388 . S
C683 C682 1.366 . S
C683 C687 1.385 . S
C684 H665 0.951 . S
C684 C682 1.388 . S
C684 C685 1.366 . S
C685 C684 1.366 . S
C685 C686 1.414 . S
C685 C688 1.499 . S
C686 H666 0.950 . S
C686 C685 1.414 . S
C686 C687 1.374 . S
C687 H667 0.950 . S
C687 C683 1.385 . S
C687 C686 1.374 . S
C688 C685 1.499 . S
C688 C689 1.373 1_554 S
C688 C690 1.389 . S
C689 H668 0.950 . S
C689 C688 1.373 1_556 S
C689 C705 1.377 . S
C690 C688 1.389 . S
C690 C691 1.524 . S
C690 C704 1.377 . S
C691 C690 1.524 . S
C691 C692 1.397 . S
C691 C696 1.363 . S
C692 H669 0.950 . S
C692 C691 1.397 . S
C692 C693 1.334 . S
C693 H670 0.950 . S
C693 C692 1.334 . S
C693 C694 1.287 . S
C694 C693 1.287 . S
C694 C695 1.524 . S
C694 H713 0.913 . S
C695 H671 0.950 . S
C695 C694 1.524 . S
C695 C696 1.415 . S
C696 H672 0.950 . S
C696 C691 1.363 . S
C696 C695 1.415 . S
C697 H673 0.951 . S
C697 C698 1.366 . S
C697 C699 1.388 . S
C698 C697 1.366 . S
C698 C702 1.385 . S
C699 H674 0.951 . S
C699 C697 1.388 . S
C699 C700 1.366 . S
C700 C699 1.366 . S
C700 C701 1.414 . S
C700 C703 1.499 . S
C701 H675 0.950 . S
C701 C700 1.414 . S
C701 C702 1.374 . S
C702 H676 0.950 . S
C702 C698 1.385 . S
C702 C701 1.374 . S
C703 C700 1.499 . S
C703 C704 1.373 1_556 S
C703 C705 1.389 . S
C704 H677 0.950 . S
C704 C690 1.377 . S
C704 C703 1.373 1_554 S
C705 C689 1.377 . S
C705 C703 1.389 . S
C705 C706 1.524 . S
C706 C705 1.524 . S
C706 C707 1.397 . S
C706 C711 1.363 . S
C707 H678 0.950 . S
C707 C706 1.397 . S
C707 C708 1.334 . S
C708 H679 0.950 . S
C708 C707 1.334 . S
C708 C709 1.287 . S
C709 C708 1.287 . S
C709 C710 1.524 . S
C709 H712 0.999 . S
C710 H680 0.950 . S
C710 C709 1.524 . S
C710 C711 1.415 . S
C711 H681 0.950 . S
C711 C706 1.363 . S
C711 C710 1.415 . S
H712 C709 0.999 . S
H713 C694 0.913 . S
H714 C732 0.951 . S
H715 C734 0.951 . S
H716 C736 0.950 . S
H717 C737 0.950 . S
H718 C739 0.950 . S
H719 C742 0.950 . S
H720 C743 0.950 . S
H721 C745 0.950 . S
H722 C746 0.950 . S
H723 C747 0.951 . S
H724 C749 0.951 . S
H725 C751 0.950 . S
H726 C752 0.950 . S
H727 C754 0.950 . S
H728 C757 0.950 . S
H729 C758 0.950 . S
H730 C760 0.950 . S
H731 C761 0.950 . S
C732 H714 0.951 . S
C732 C733 1.366 . S
C732 C734 1.388 . S
C733 C732 1.366 . S
C733 C737 1.385 . S
C734 H715 0.951 . S
C734 C732 1.388 . S
C734 C735 1.366 . S
C735 C734 1.366 . S
C735 C736 1.414 . S
C735 C738 1.499 . S
C736 H716 0.950 . S
C736 C735 1.414 . S
C736 C737 1.374 . S
C737 H717 0.950 . S
C737 C733 1.385 . S
C737 C736 1.374 . S
C738 C735 1.499 . S
C738 C739 1.373 1_556 S
C738 C740 1.389 . S
C739 H718 0.950 . S
C739 C738 1.373 1_554 S
C739 C755 1.377 . S
C740 C738 1.389 . S
C740 C741 1.524 . S
C740 C754 1.377 . S
C741 C740 1.524 . S
C741 C742 1.397 . S
C741 C746 1.363 . S
C742 H719 0.950 . S
C742 C741 1.397 . S
C742 C743 1.334 . S
C743 H720 0.950 . S
C743 C742 1.334 . S
C743 C744 1.287 . S
C744 C743 1.287 . S
C744 C745 1.524 . S
C744 H763 0.913 . S
C745 H721 0.950 . S
C745 C744 1.524 . S
C745 C746 1.415 . S
C746 H722 0.950 . S
C746 C741 1.363 . S
C746 C745 1.415 . S
C747 H723 0.951 . S
C747 C748 1.366 . S
C747 C749 1.388 . S
C748 C747 1.366 . S
C748 C752 1.385 . S
C749 H724 0.951 . S
C749 C747 1.388 . S
C749 C750 1.366 . S
C750 C749 1.366 . S
C750 C751 1.414 . S
C750 C753 1.499 . S
C751 H725 0.950 . S
C751 C750 1.414 . S
C751 C752 1.374 . S
C752 H726 0.950 . S
C752 C748 1.385 . S
C752 C751 1.374 . S
C753 C750 1.499 . S
C753 C754 1.373 1_554 S
C753 C755 1.389 . S
C754 H727 0.950 . S
C754 C740 1.377 . S
C754 C753 1.373 1_556 S
C755 C739 1.377 . S
C755 C753 1.389 . S
C755 C756 1.524 . S
C756 C755 1.524 . S
C756 C757 1.397 . S
C756 C761 1.363 . S
C757 H728 0.950 . S
C757 C756 1.397 . S
C757 C758 1.334 . S
C758 H729 0.950 . S
C758 C757 1.334 . S
C758 C759 1.287 . S
C759 C758 1.287 . S
C759 C760 1.524 . S
C759 H762 0.999 . S
C760 H730 0.950 . S
C760 C759 1.524 . S
C760 C761 1.415 . S
C761 H731 0.950 . S
C761 C756 1.363 . S
C761 C760 1.415 . S
H762 C759 0.999 . S
H763 C744 0.913 . S
H764 C782 0.951 . S
H765 C784 0.951 . S
H766 C786 0.950 . S
H767 C787 0.950 . S
H768 C789 0.950 . S
H769 C792 0.950 . S
H770 C793 0.950 . S
H771 C795 0.950 . S
H772 C796 0.950 . S
H773 C797 0.951 . S
H774 C799 0.951 . S
H775 C801 0.950 . S
H776 C802 0.950 . S
H777 C804 0.950 . S
H778 C807 0.950 . S
H779 C808 0.950 . S
H780 C810 0.950 . S
H781 C811 0.950 . S
C782 H764 0.951 . S
C782 C783 1.366 . S
C782 C784 1.388 . S
C783 C782 1.366 . S
C783 C787 1.385 . S
C784 H765 0.951 . S
C784 C782 1.388 . S
C784 C785 1.366 . S
C785 C784 1.366 . S
C785 C786 1.414 . S
C785 C788 1.499 . S
C786 H766 0.950 . S
C786 C785 1.414 . S
C786 C787 1.374 . S
C787 H767 0.950 . S
C787 C783 1.385 . S
C787 C786 1.374 . S
C788 C785 1.499 . S
C788 C789 1.373 . S
C788 C790 1.389 . S
C789 H768 0.950 . S
C789 C788 1.373 . S
C789 C805 1.377 . S
C790 C788 1.389 . S
C790 C791 1.524 . S
C790 C804 1.377 . S
C791 C790 1.524 . S
C791 C792 1.397 . S
C791 C796 1.363 . S
C792 H769 0.950 . S
C792 C791 1.397 . S
C792 C793 1.334 . S
C793 H770 0.950 . S
C793 C792 1.334 . S
C793 C794 1.287 . S
C794 C793 1.287 . S
C794 C795 1.524 . S
C794 H813 0.913 . S
C795 H771 0.950 . S
C795 C794 1.524 . S
C795 C796 1.415 . S
C796 H772 0.950 . S
C796 C791 1.363 . S
C796 C795 1.415 . S
C797 H773 0.951 . S
C797 C798 1.366 . S
C797 C799 1.388 . S
C798 C797 1.366 . S
C798 C802 1.385 . S
C799 H774 0.951 . S
C799 C797 1.388 . S
C799 C800 1.366 . S
C800 C799 1.366 . S
C800 C801 1.414 . S
C800 C803 1.499 . S
C801 H775 0.950 . S
C801 C800 1.414 . S
C801 C802 1.374 . S
C802 H776 0.950 . S
C802 C798 1.385 . S
C802 C801 1.374 . S
C803 C800 1.499 . S
C803 C804 1.373 . S
C803 C805 1.389 . S
C804 H777 0.950 . S
C804 C790 1.377 . S
C804 C803 1.373 . S
C805 C789 1.377 . S
C805 C803 1.389 . S
C805 C806 1.524 . S
C806 C805 1.524 . S
C806 C807 1.397 . S
C806 C811 1.363 . S
C807 H778 0.950 . S
C807 C806 1.397 . S
C807 C808 1.334 . S
C808 H779 0.950 . S
C808 C807 1.334 . S
C808 C809 1.287 . S
C809 C808 1.287 . S
C809 C810 1.524 . S
C809 H812 0.999 . S
C810 H780 0.950 . S
C810 C809 1.524 . S
C810 C811 1.415 . S
C811 H781 0.950 . S
C811 C806 1.363 . S
C811 C810 1.415 . S
H812 C809 0.999 . S
H813 C794 0.913 . S
H814 C832 0.951 . S
H815 C834 0.951 . S
H816 C836 0.950 . S
H817 C837 0.950 . S
H818 C839 0.950 . S
H819 C842 0.950 . S
H820 C843 0.950 . S
H821 C845 0.950 . S
H822 C846 0.950 . S
H823 C847 0.951 . S
H824 C849 0.951 . S
H825 C851 0.950 . S
H826 C852 0.950 . S
H827 C854 0.950 . S
H828 C857 0.950 . S
H829 C858 0.950 . S
H830 C860 0.950 . S
H831 C861 0.950 . S
C832 H814 0.951 . S
C832 C833 1.366 . S
C832 C834 1.388 . S
C833 C832 1.366 . S
C833 C837 1.385 . S
C834 H815 0.951 . S
C834 C832 1.388 . S
C834 C835 1.366 . S
C835 C834 1.366 . S
C835 C836 1.414 . S
C835 C838 1.499 . S
C836 H816 0.950 . S
C836 C835 1.414 . S
C836 C837 1.374 . S
C837 H817 0.950 . S
C837 C833 1.385 . S
C837 C836 1.374 . S
C838 C835 1.499 . S
C838 C839 1.373 . S
C838 C840 1.389 . S
C839 H818 0.950 . S
C839 C838 1.373 . S
C839 C855 1.377 . S
C840 C838 1.389 . S
C840 C841 1.524 . S
C840 C854 1.377 . S
C841 C840 1.524 . S
C841 C842 1.397 . S
C841 C846 1.363 . S
C842 H819 0.950 . S
C842 C841 1.397 . S
C842 C843 1.334 . S
C843 H820 0.950 . S
C843 C842 1.334 . S
C843 C844 1.287 . S
C844 C843 1.287 . S
C844 C845 1.524 . S
C844 H863 0.913 . S
C845 H821 0.950 . S
C845 C844 1.524 . S
C845 C846 1.415 . S
C846 H822 0.950 . S
C846 C841 1.363 . S
C846 C845 1.415 . S
C847 H823 0.951 . S
C847 C848 1.366 . S
C847 C849 1.388 . S
C848 C847 1.366 . S
C848 C852 1.385 . S
C849 H824 0.951 . S
C849 C847 1.388 . S
C849 C850 1.366 . S
C850 C849 1.366 . S
C850 C851 1.414 . S
C850 C853 1.499 . S
C851 H825 0.950 . S
C851 C850 1.414 . S
C851 C852 1.374 . S
C852 H826 0.950 . S
C852 C848 1.385 . S
C852 C851 1.374 . S
C853 C850 1.499 . S
C853 C854 1.373 . S
C853 C855 1.389 . S
C854 H827 0.950 . S
C854 C840 1.377 . S
C854 C853 1.373 . S
C855 C839 1.377 . S
C855 C853 1.389 . S
C855 C856 1.524 . S
C856 C855 1.524 . S
C856 C857 1.397 . S
C856 C861 1.363 . S
C857 H828 0.950 . S
C857 C856 1.397 . S
C857 C858 1.334 . S
C858 H829 0.950 . S
C858 C857 1.334 . S
C858 C859 1.287 . S
C859 C858 1.287 . S
C859 C860 1.524 . S
C859 H862 0.999 . S
C860 H830 0.950 . S
C860 C859 1.524 . S
C860 C861 1.415 . S
C861 H831 0.950 . S
C861 C856 1.363 . S
C861 C860 1.415 . S
H862 C859 0.999 . S
H863 C844 0.913 . S
H864 C882 0.951 . S
H865 C884 0.951 1_556 S
H866 C886 0.950 . S
H867 C887 0.950 . S
H868 C889 0.950 . S
H869 C892 0.950 . S
H870 C893 0.950 . S
H871 C895 0.950 . S
H872 C896 0.950 . S
H873 C897 0.951 . S
H874 C899 0.951 1_554 S
H875 C901 0.950 . S
H876 C902 0.950 . S
H877 C904 0.950 . S
H878 C907 0.950 . S
H879 C908 0.950 . S
H880 C910 0.950 . S
H881 C911 0.950 . S
C882 H864 0.951 . S
C882 C883 1.366 . S
C882 C884 1.388 . S
C883 C882 1.366 . S
C883 C887 1.385 . S
C884 H865 0.951 1_554 S
C884 C882 1.388 . S
C884 C885 1.366 . S
C885 C884 1.366 . S
C885 C886 1.414 . S
C885 C888 1.499 . S
C886 H866 0.950 . S
C886 C885 1.414 . S
C886 C887 1.374 . S
C887 H867 0.950 . S
C887 C883 1.385 . S
C887 C886 1.374 . S
C888 C885 1.499 . S
C888 C889 1.373 . S
C888 C890 1.389 1_554 S
C889 H868 0.950 . S
C889 C888 1.373 . S
C889 C905 1.377 . S
C890 C888 1.389 1_556 S
C890 C891 1.524 . S
C890 C904 1.377 . S
C891 C890 1.524 . S
C891 C892 1.397 . S
C891 C896 1.363 . S
C892 H869 0.950 . S
C892 C891 1.397 . S
C892 C893 1.334 . S
C893 H870 0.950 . S
C893 C892 1.334 . S
C893 C894 1.287 . S
C894 C893 1.287 . S
C894 C895 1.524 . S
C894 H913 0.913 . S
C895 H871 0.950 . S
C895 C894 1.524 . S
C895 C896 1.415 . S
C896 H872 0.950 . S
C896 C891 1.363 . S
C896 C895 1.415 . S
C897 H873 0.951 . S
C897 C898 1.366 . S
C897 C899 1.388 . S
C898 C897 1.366 . S
C898 C902 1.385 . S
C899 H874 0.951 1_556 S
C899 C897 1.388 . S
C899 C900 1.366 . S
C900 C899 1.366 . S
C900 C901 1.414 . S
C900 C903 1.499 . S
C901 H875 0.950 . S
C901 C900 1.414 . S
C901 C902 1.374 . S
C902 H876 0.950 . S
C902 C898 1.385 . S
C902 C901 1.374 . S
C903 C900 1.499 . S
C903 C904 1.373 . S
C903 C905 1.389 1_556 S
C904 H877 0.950 . S
C904 C890 1.377 . S
C904 C903 1.373 . S
C905 C889 1.377 . S
C905 C903 1.389 1_554 S
C905 C906 1.524 . S
C906 C905 1.524 . S
C906 C907 1.397 . S
C906 C911 1.363 . S
C907 H878 0.950 . S
C907 C906 1.397 . S
C907 C908 1.334 . S
C908 H879 0.950 . S
C908 C907 1.334 . S
C908 C909 1.287 . S
C909 C908 1.287 . S
C909 C910 1.524 . S
C909 H912 0.999 . S
C910 H880 0.950 . S
C910 C909 1.524 . S
C910 C911 1.415 . S
C911 H881 0.950 . S
C911 C906 1.363 . S
C911 C910 1.415 . S
H912 C909 0.999 . S
H913 C894 0.913 . S
H914 C932 0.951 . S
H915 C934 0.951 1_554 S
H916 C936 0.950 . S
H917 C937 0.950 . S
H918 C939 0.950 . S
H919 C942 0.950 . S
H920 C943 0.950 . S
H921 C945 0.950 . S
H922 C946 0.950 . S
H923 C947 0.954 . S
H924 C949 0.951 1_556 S
H925 C951 0.950 . S
H926 C952 0.950 . S
H927 C954 0.950 . S
H928 C957 0.950 . S
H929 C958 0.950 . S
H930 C960 0.950 . S
H931 C961 0.950 . S
C932 H914 0.951 . S
C932 C933 1.366 . S
C932 C934 1.388 . S
C933 C932 1.366 . S
C933 C937 1.385 . S
C934 H915 0.951 1_556 S
C934 C932 1.388 . S
C934 C935 1.366 . S
C935 C934 1.366 . S
C935 C936 1.414 . S
C935 C938 1.499 . S
C936 H916 0.950 . S
C936 C935 1.414 . S
C936 C937 1.374 . S
C937 H917 0.950 . S
C937 C933 1.385 . S
C937 C936 1.374 . S
C938 C935 1.499 . S
C938 C939 1.373 . S
C938 C940 1.407 . S
C939 H918 0.950 . S
C939 C938 1.373 . S
C939 C955 1.377 . S
C940 C938 1.407 . S
C940 C941 1.524 . S
C940 C954 1.361 1_556 S
C941 C940 1.524 . S
C941 C942 1.412 . S
C941 C946 1.348 1_556 S
C942 H919 0.950 . S
C942 C941 1.412 . S
C942 C943 1.334 . S
C943 H920 0.950 . S
C943 C942 1.334 . S
C943 C944 1.287 . S
C944 C943 1.287 . S
C944 C945 1.524 1_556 S
C944 H963 0.913 . S
C945 H921 0.950 . S
C945 C944 1.524 1_554 S
C945 C946 1.415 . S
C946 H922 0.950 . S
C946 C941 1.348 1_554 S
C946 C945 1.415 . S
C947 H923 0.954 . S
C947 C948 1.366 . S
C947 C949 1.388 . S
C948 C947 1.366 . S
C948 C952 1.385 . S
C949 H924 0.951 1_554 S
C949 C947 1.388 . S
C949 C950 1.366 . S
C950 C949 1.366 . S
C950 C951 1.414 . S
C950 C953 1.499 . S
C951 H925 0.950 . S
C951 C950 1.414 . S
C951 C952 1.374 . S
C952 H926 0.950 . S
C952 C948 1.385 . S
C952 C951 1.374 . S
C953 C950 1.499 . S
C953 C954 1.373 . S
C953 C955 1.389 1_554 S
C954 H927 0.950 . S
C954 C940 1.361 1_554 S
C954 C953 1.373 . S
C955 C939 1.377 . S
C955 C953 1.389 1_556 S
C955 C956 1.524 . S
C956 C955 1.524 . S
C956 C957 1.397 1_556 S
C956 C961 1.363 . S
C957 H928 0.950 . S
C957 C956 1.397 1_554 S
C957 C958 1.334 . S
C958 H929 0.950 . S
C958 C957 1.334 . S
C958 C959 1.287 . S
C959 C958 1.287 . S
C959 C960 1.524 1_554 S
C959 H962 0.999 . S
C960 H930 0.950 . S
C960 C959 1.524 1_556 S
C960 C961 1.415 . S
C961 H931 0.950 . S
C961 C956 1.363 . S
C961 C960 1.415 . S
H962 C959 0.999 . S
H963 C944 0.913 . S
H964 C982 0.951 . S
H965 C984 0.951 . S
H966 C986 0.950 . S
H967 C987 0.950 . S
H968 C989 0.950 . S
H969 C992 0.950 . S
H970 C993 0.950 . S
H971 C995 0.950 . S
H972 C996 0.950 . S
H973 C997 0.951 . S
H974 C999 0.951 . S
H975 C1001 0.950 . S
H976 C1002 0.950 . S
H977 C1004 0.950 . S
H978 C1007 0.950 . S
H979 C1008 0.950 . S
H980 C1010 0.950 . S
H981 C1011 0.950 . S
C982 H964 0.951 . S
C982 C983 1.366 . S
C982 C984 1.388 . S
C983 C982 1.366 . S
C983 C987 1.385 . S
C984 H965 0.951 . S
C984 C982 1.388 . S
C984 C985 1.366 . S
C985 C984 1.366 . S
C985 C986 1.414 . S
C985 C988 1.499 . S
C986 H966 0.950 . S
C986 C985 1.414 . S
C986 C987 1.374 . S
C987 H967 0.950 . S
C987 C983 1.385 . S
C987 C986 1.374 . S
C988 C985 1.499 . S
C988 C989 1.373 . S
C988 C990 1.389 . S
C989 H968 0.950 . S
C989 C988 1.373 . S
C989 C1005 1.377 . S
C990 C988 1.389 . S
C990 C991 1.524 . S
C990 C1004 1.377 . S
C991 C990 1.524 . S
C991 C992 1.397 . S
C991 C996 1.363 . S
C992 H969 0.950 . S
C992 C991 1.397 . S
C992 C993 1.334 . S
C993 H970 0.950 . S
C993 C992 1.334 . S
C993 C994 1.287 . S
C994 C993 1.287 . S
C994 C995 1.524 . S
C994 H1013 0.913 . S
C995 H971 0.950 . S
C995 C994 1.524 . S
C995 C996 1.415 . S
C996 H972 0.950 . S
C996 C991 1.363 . S
C996 C995 1.415 . S
C997 H973 0.951 . S
C997 C998 1.366 . S
C997 C999 1.388 . S
C998 C997 1.366 . S
C998 C1002 1.385 . S
C999 H974 0.951 . S
C999 C997 1.388 . S
C999 C1000 1.366 . S
C1000 C999 1.366 . S
C1000 C1001 1.414 . S
C1000 C1003 1.499 . S
C1001 H975 0.950 . S
C1001 C1000 1.414 . S
C1001 C1002 1.374 . S
C1002 H976 0.950 . S
C1002 C998 1.385 . S
C1002 C1001 1.374 . S
C1003 C1000 1.499 . S
C1003 C1004 1.373 . S
C1003 C1005 1.389 . S
C1004 H977 0.950 . S
C1004 C990 1.377 . S
C1004 C1003 1.373 . S
C1005 C989 1.377 . S
C1005 C1003 1.389 . S
C1005 C1006 1.524 . S
C1006 C1005 1.524 . S
C1006 C1007 1.397 . S
C1006 C1011 1.363 . S
C1007 H978 0.950 . S
C1007 C1006 1.397 . S
C1007 C1008 1.334 . S
C1008 H979 0.950 . S
C1008 C1007 1.334 . S
C1008 C1009 1.287 . S
C1009 C1008 1.287 . S
C1009 C1010 1.524 . S
C1009 H1012 0.999 . S
C1010 H980 0.950 . S
C1010 C1009 1.524 . S
C1010 C1011 1.415 . S
C1011 H981 0.950 . S
C1011 C1006 1.363 . S
C1011 C1010 1.415 . S
H1012 C1009 0.999 . S
H1013 C994 0.913 . S
H1014 C1032 0.951 . S
H1015 C1034 0.951 . S
H1016 C1036 0.950 . S
H1017 C1037 0.950 . S
H1018 C1039 0.950 . S
H1019 C1042 0.950 . S
H1020 C1043 0.950 . S
H1021 C1045 0.950 . S
H1022 C1046 0.950 . S
H1023 C1047 0.951 . S
H1024 C1049 0.951 . S
H1025 C1051 0.950 . S
H1026 C1052 0.950 . S
H1027 C1054 0.950 . S
H1028 C1057 0.950 . S
H1029 C1058 0.950 . S
H1030 C1060 0.950 . S
H1031 C1061 0.950 . S
C1032 H1014 0.951 . S
C1032 C1033 1.366 . S
C1032 C1034 1.388 . S
C1033 C1032 1.366 . S
C1033 C1037 1.385 . S
C1034 H1015 0.951 . S
C1034 C1032 1.388 . S
C1034 C1035 1.366 . S
C1035 C1034 1.366 . S
C1035 C1036 1.414 . S
C1035 C1038 1.499 . S
C1036 H1016 0.950 . S
C1036 C1035 1.414 . S
C1036 C1037 1.374 . S
C1037 H1017 0.950 . S
C1037 C1033 1.385 . S
C1037 C1036 1.374 . S
C1038 C1035 1.499 . S
C1038 C1039 1.373 . S
C1038 C1040 1.389 . S
C1039 H1018 0.950 . S
C1039 C1038 1.373 . S
C1039 C1055 1.377 . S
C1040 C1038 1.389 . S
C1040 C1041 1.524 . S
C1040 C1054 1.377 . S
C1041 C1040 1.524 . S
C1041 C1042 1.397 . S
C1041 C1046 1.363 . S
C1042 H1019 0.950 . S
C1042 C1041 1.397 . S
C1042 C1043 1.334 . S
C1043 H1020 0.950 . S
C1043 C1042 1.334 . S
C1043 C1044 1.287 . S
C1044 C1043 1.287 . S
C1044 C1045 1.524 . S
C1044 H1063 0.913 . S
C1045 H1021 0.950 . S
C1045 C1044 1.524 . S
C1045 C1046 1.415 . S
C1046 H1022 0.950 . S
C1046 C1041 1.363 . S
C1046 C1045 1.415 . S
C1047 H1023 0.951 . S
C1047 C1048 1.366 . S
C1047 C1049 1.388 . S
C1048 C1047 1.366 . S
C1048 C1052 1.385 . S
C1049 H1024 0.951 . S
C1049 C1047 1.388 . S
C1049 C1050 1.366 . S
C1050 C1049 1.366 . S
C1050 C1051 1.414 . S
C1050 C1053 1.499 . S
C1051 H1025 0.950 . S
C1051 C1050 1.414 . S
C1051 C1052 1.374 . S
C1052 H1026 0.950 . S
C1052 C1048 1.385 . S
C1052 C1051 1.374 . S
C1053 C1050 1.499 . S
C1053 C1054 1.373 . S
C1053 C1055 1.389 . S
C1054 H1027 0.950 . S
C1054 C1040 1.377 . S
C1054 C1053 1.373 . S
C1055 C1039 1.377 . S
C1055 C1053 1.389 . S
C1055 C1056 1.524 . S
C1056 C1055 1.524 . S
C1056 C1057 1.397 . S
C1056 C1061 1.363 . S
C1057 H1028 0.950 . S
C1057 C1056 1.397 . S
C1057 C1058 1.334 . S
C1058 H1029 0.950 . S
C1058 C1057 1.334 . S
C1058 C1059 1.287 . S
C1059 C1058 1.287 . S
C1059 C1060 1.524 . S
C1059 H1062 0.999 . S
C1060 H1030 0.950 . S
C1060 C1059 1.524 . S
C1060 C1061 1.415 . S
C1061 H1031 0.950 . S
C1061 C1056 1.363 . S
C1061 C1060 1.415 . S
H1062 C1059 0.999 . S
H1063 C1044 0.913 . S
H1064 C1082 0.951 . S
H1065 C1084 0.951 . S
H1066 C1086 0.950 . S
H1067 C1087 0.950 . S
H1068 C1089 0.950 . S
H1069 C1092 0.950 . S
H1070 C1093 0.950 . S
H1071 C1095 0.950 . S
H1072 C1096 0.971 . S
H1073 C1097 0.951 . S
H1074 C1099 0.951 . S
H1075 C1101 0.950 . S
H1076 C1102 0.950 . S
H1077 C1104 0.950 . S
H1078 C1107 0.950 . S
H1079 C1108 0.950 . S
H1080 C1110 0.950 . S
H1081 C1111 0.950 . S
C1082 H1064 0.951 . S
C1082 C1083 1.366 . S
C1082 C1084 1.388 . S
C1083 C1082 1.366 . S
C1083 C1087 1.385 . S
C1084 H1065 0.951 . S
C1084 C1082 1.388 . S
C1084 C1085 1.366 . S
C1085 C1084 1.366 . S
C1085 C1086 1.414 . S
C1085 C1088 1.499 . S
C1086 H1066 0.950 . S
C1086 C1085 1.414 . S
C1086 C1087 1.374 . S
C1087 H1067 0.950 . S
C1087 C1083 1.385 . S
C1087 C1086 1.374 . S
C1088 C1085 1.499 . S
C1088 C1089 1.373 . S
C1088 C1090 1.389 . S
C1089 H1068 0.950 . S
C1089 C1088 1.373 . S
C1089 C1105 1.377 . S
C1090 C1088 1.389 . S
C1090 C1091 1.524 . S
C1090 C1104 1.377 . S
C1091 C1090 1.524 . S
C1091 C1092 1.397 1_455 S
C1091 C1096 1.370 . S
C1092 H1069 0.950 . S
C1092 C1091 1.397 1_655 S
C1092 C1093 1.334 . S
C1093 H1070 0.950 . S
C1093 C1092 1.334 . S
C1093 C1094 1.287 . S
C1094 C1093 1.287 . S
C1094 C1095 1.524 . S
C1094 H1113 0.913 . S
C1095 H1071 0.950 . S
C1095 C1094 1.524 . S
C1095 C1096 1.388 1_655 S
C1096 H1072 0.971 . S
C1096 C1091 1.370 . S
C1096 C1095 1.388 1_455 S
C1097 H1073 0.951 . S
C1097 C1098 1.366 . S
C1097 C1099 1.388 . S
C1098 C1097 1.366 . S
C1098 C1102 1.385 . S
C1099 H1074 0.951 . S
C1099 C1097 1.388 . S
C1099 C1100 1.366 . S
C1100 C1099 1.366 . S
C1100 C1101 1.414 . S
C1100 C1103 1.499 . S
C1101 H1075 0.950 . S
C1101 C1100 1.414 . S
C1101 C1102 1.374 . S
C1102 H1076 0.950 . S
C1102 C1098 1.385 . S
C1102 C1101 1.374 . S
C1103 C1100 1.499 . S
C1103 C1104 1.373 . S
C1103 C1105 1.389 . S
C1104 H1077 0.950 . S
C1104 C1090 1.377 . S
C1104 C1103 1.373 . S
C1105 C1089 1.377 . S
C1105 C1103 1.389 . S
C1105 C1106 1.524 . S
C1106 C1105 1.524 . S
C1106 C1107 1.397 . S
C1106 C1111 1.363 . S
C1107 H1078 0.950 . S
C1107 C1106 1.397 . S
C1107 C1108 1.334 . S
C1108 H1079 0.950 . S
C1108 C1107 1.334 . S
C1108 C1109 1.287 . S
C1109 C1108 1.287 . S
C1109 C1110 1.524 . S
C1109 H1112 0.999 . S
C1110 H1080 0.950 . S
C1110 C1109 1.524 . S
C1110 C1111 1.415 . S
C1111 H1081 0.950 . S
C1111 C1106 1.363 . S
C1111 C1110 1.415 . S
H1112 C1109 0.999 . S
H1113 C1094 0.913 . S
H1114 C1132 0.951 . S
H1115 C1134 0.951 . S
H1116 C1136 0.950 . S
H1117 C1137 0.950 . S
H1118 C1139 0.950 . S
H1119 C1142 0.950 . S
H1120 C1143 0.950 . S
H1121 C1145 0.950 . S
H1122 C1146 0.950 . S
H1123 C1147 0.951 . S
H1124 C1149 0.951 . S
H1125 C1151 0.950 . S
H1126 C1152 0.950 . S
H1127 C1154 0.950 . S
H1128 C1157 0.950 . S
H1129 C1158 0.950 . S
H1130 C1160 0.950 . S
H1131 C1161 0.950 . S
C1132 H1114 0.951 . S
C1132 C1133 1.366 . S
C1132 C1134 1.388 . S
C1133 C1132 1.366 . S
C1133 C1137 1.385 . S
C1134 H1115 0.951 . S
C1134 C1132 1.388 . S
C1134 C1135 1.366 . S
C1135 C1134 1.366 . S
C1135 C1136 1.414 . S
C1135 C1138 1.499 . S
C1136 H1116 0.950 . S
C1136 C1135 1.414 . S
C1136 C1137 1.374 . S
C1137 H1117 0.950 . S
C1137 C1133 1.385 . S
C1137 C1136 1.374 . S
C1138 C1135 1.499 . S
C1138 C1139 1.373 . S
C1138 C1140 1.389 . S
C1139 H1118 0.950 . S
C1139 C1138 1.373 . S
C1139 C1155 1.377 . S
C1140 C1138 1.389 . S
C1140 C1141 1.524 . S
C1140 C1154 1.377 . S
C1141 C1140 1.524 . S
C1141 C1142 1.397 . S
C1141 C1146 1.363 . S
C1142 H1119 0.950 . S
C1142 C1141 1.397 . S
C1142 C1143 1.334 . S
C1143 H1120 0.950 . S
C1143 C1142 1.334 . S
C1143 C1144 1.287 . S
C1144 C1143 1.287 . S
C1144 C1145 1.524 . S
C1144 H1163 0.913 . S
C1145 H1121 0.950 . S
C1145 C1144 1.524 . S
C1145 C1146 1.415 . S
C1146 H1122 0.950 . S
C1146 C1141 1.363 . S
C1146 C1145 1.415 . S
C1147 H1123 0.951 . S
C1147 C1148 1.366 . S
C1147 C1149 1.388 . S
C1148 C1147 1.366 . S
C1148 C1152 1.385 . S
C1149 H1124 0.951 . S
C1149 C1147 1.388 . S
C1149 C1150 1.366 . S
C1150 C1149 1.366 . S
C1150 C1151 1.414 . S
C1150 C1153 1.499 . S
C1151 H1125 0.950 . S
C1151 C1150 1.414 . S
C1151 C1152 1.374 . S
C1152 H1126 0.950 . S
C1152 C1148 1.385 . S
C1152 C1151 1.374 . S
C1153 C1150 1.499 . S
C1153 C1154 1.373 . S
C1153 C1155 1.389 . S
C1154 H1127 0.950 . S
C1154 C1140 1.377 . S
C1154 C1153 1.373 . S
C1155 C1139 1.377 . S
C1155 C1153 1.389 . S
C1155 C1156 1.524 . S
C1156 C1155 1.524 . S
C1156 C1157 1.397 . S
C1156 C1161 1.363 . S
C1157 H1128 0.950 . S
C1157 C1156 1.397 . S
C1157 C1158 1.334 . S
C1158 H1129 0.950 . S
C1158 C1157 1.334 . S
C1158 C1159 1.287 . S
C1159 C1158 1.287 . S
C1159 C1160 1.524 . S
C1159 H1162 0.999 . S
C1160 H1130 0.950 . S
C1160 C1159 1.524 . S
C1160 C1161 1.415 . S
C1161 H1131 0.950 . S
C1161 C1156 1.363 . S
C1161 C1160 1.415 . S
H1162 C1159 0.999 . S
H1163 C1144 0.913 . S
H1164 C1182 0.951 . S
H1165 C1184 0.951 . S
H1166 C1186 0.950 . S
H1167 C1187 0.950 . S
H1168 C1189 0.950 . S
H1169 C1192 0.950 . S
H1170 C1193 0.950 . S
H1171 C1195 0.950 . S
H1172 C1196 0.950 . S
H1173 C1197 0.951 . S
H1174 C1199 0.951 . S
H1175 C1201 0.950 . S
H1176 C1202 0.950 . S
H1177 C1204 0.950 . S
H1178 C1207 0.950 . S
H1179 C1208 0.950 . S
H1180 C1210 0.950 . S
H1181 C1211 0.950 . S
C1182 H1164 0.951 . S
C1182 C1183 1.366 . S
C1182 C1184 1.388 . S
C1183 C1182 1.366 . S
C1183 C1187 1.385 . S
C1184 H1165 0.951 . S
C1184 C1182 1.388 . S
C1184 C1185 1.366 . S
C1185 C1184 1.366 . S
C1185 C1186 1.414 . S
C1185 C1188 1.499 . S
C1186 H1166 0.950 . S
C1186 C1185 1.414 . S
C1186 C1187 1.374 . S
C1187 H1167 0.950 . S
C1187 C1183 1.385 . S
C1187 C1186 1.374 . S
C1188 C1185 1.499 . S
C1188 C1189 1.373 . S
C1188 C1190 1.389 . S
C1189 H1168 0.950 . S
C1189 C1188 1.373 . S
C1189 C1205 1.377 . S
C1190 C1188 1.389 . S
C1190 C1191 1.524 . S
C1190 C1204 1.377 . S
C1191 C1190 1.524 . S
C1191 C1192 1.397 1_655 S
C1191 C1196 1.363 . S
C1192 H1169 0.950 . S
C1192 C1191 1.397 1_455 S
C1192 C1193 1.334 . S
C1193 H1170 0.950 . S
C1193 C1192 1.334 . S
C1193 C1194 1.287 . S
C1194 C1193 1.287 . S
C1194 C1195 1.524 . S
C1194 H1213 0.913 . S
C1195 H1171 0.950 . S
C1195 C1194 1.524 . S
C1195 C1196 1.415 1_455 S
C1196 H1172 0.950 . S
C1196 C1191 1.363 . S
C1196 C1195 1.415 1_655 S
C1197 H1173 0.951 . S
C1197 C1198 1.366 . S
C1197 C1199 1.388 . S
C1198 C1197 1.366 . S
C1198 C1202 1.385 . S
C1199 H1174 0.951 . S
C1199 C1197 1.388 . S
C1199 C1200 1.366 . S
C1200 C1199 1.366 . S
C1200 C1201 1.414 . S
C1200 C1203 1.499 . S
C1201 H1175 0.950 . S
C1201 C1200 1.414 . S
C1201 C1202 1.374 . S
C1202 H1176 0.950 . S
C1202 C1198 1.385 . S
C1202 C1201 1.374 . S
C1203 C1200 1.499 . S
C1203 C1204 1.373 . S
C1203 C1205 1.389 . S
C1204 H1177 0.950 . S
C1204 C1190 1.377 . S
C1204 C1203 1.373 . S
C1205 C1189 1.377 . S
C1205 C1203 1.389 . S
C1205 C1206 1.524 . S
C1206 C1205 1.524 . S
C1206 C1207 1.397 . S
C1206 C1211 1.363 . S
C1207 H1178 0.950 . S
C1207 C1206 1.397 . S
C1207 C1208 1.334 . S
C1208 H1179 0.950 . S
C1208 C1207 1.334 . S
C1208 C1209 1.287 . S
C1209 C1208 1.287 . S
C1209 C1210 1.524 . S
C1209 H1212 0.999 . S
C1210 H1180 0.950 . S
C1210 C1209 1.524 . S
C1210 C1211 1.415 . S
C1211 H1181 0.950 . S
C1211 C1206 1.363 . S
C1211 C1210 1.415 . S
H1212 C1209 0.999 . S
H1213 C1194 0.913 . S
H1214 C1232 0.951 . S
H1215 C1234 0.951 . S
H1216 C1236 0.950 . S
H1217 C1237 0.950 . S
H1218 C1239 0.950 . S
H1219 C1242 0.950 . S
H1220 C1243 0.950 . S
H1221 C1245 0.950 . S
H1222 C1246 0.950 . S
H1223 C1247 0.951 . S
H1224 C1249 0.951 . S
H1225 C1251 0.950 . S
H1226 C1252 0.950 . S
H1227 C1254 0.950 . S
H1228 C1257 0.950 . S
H1229 C1258 0.950 . S
H1230 C1260 0.950 . S
H1231 C1261 0.950 . S
C1232 H1214 0.951 . S
C1232 C1233 1.366 . S
C1232 C1234 1.388 . S
C1233 C1232 1.366 . S
C1233 C1237 1.385 . S
C1234 H1215 0.951 . S
C1234 C1232 1.388 . S
C1234 C1235 1.366 . S
C1235 C1234 1.366 . S
C1235 C1236 1.414 . S
C1235 C1238 1.499 . S
C1236 H1216 0.950 . S
C1236 C1235 1.414 . S
C1236 C1237 1.374 . S
C1237 H1217 0.950 . S
C1237 C1233 1.385 . S
C1237 C1236 1.374 . S
C1238 C1235 1.499 . S
C1238 C1239 1.373 . S
C1238 C1240 1.389 . S
C1239 H1218 0.950 . S
C1239 C1238 1.373 . S
C1239 C1255 1.377 . S
C1240 C1238 1.389 . S
C1240 C1241 1.524 . S
C1240 C1254 1.377 . S
C1241 C1240 1.524 . S
C1241 C1242 1.397 . S
C1241 C1246 1.363 . S
C1242 H1219 0.950 . S
C1242 C1241 1.397 . S
C1242 C1243 1.334 . S
C1243 H1220 0.950 . S
C1243 C1242 1.334 . S
C1243 C1244 1.287 . S
C1244 C1243 1.287 . S
C1244 C1245 1.524 . S
C1244 H1263 0.913 . S
C1245 H1221 0.950 . S
C1245 C1244 1.524 . S
C1245 C1246 1.415 . S
C1246 H1222 0.950 . S
C1246 C1241 1.363 . S
C1246 C1245 1.415 . S
C1247 H1223 0.951 . S
C1247 C1248 1.366 . S
C1247 C1249 1.388 . S
C1248 C1247 1.366 . S
C1248 C1252 1.385 . S
C1249 H1224 0.951 . S
C1249 C1247 1.388 . S
C1249 C1250 1.366 . S
C1250 C1249 1.366 . S
C1250 C1251 1.414 . S
C1250 C1253 1.499 . S
C1251 H1225 0.950 . S
C1251 C1250 1.414 . S
C1251 C1252 1.374 . S
C1252 H1226 0.950 . S
C1252 C1248 1.385 . S
C1252 C1251 1.374 . S
C1253 C1250 1.499 . S
C1253 C1254 1.373 . S
C1253 C1255 1.389 . S
C1254 H1227 0.950 . S
C1254 C1240 1.377 . S
C1254 C1253 1.373 . S
C1255 C1239 1.377 . S
C1255 C1253 1.389 . S
C1255 C1256 1.524 . S
C1256 C1255 1.524 . S
C1256 C1257 1.397 . S
C1256 C1261 1.363 . S
C1257 H1228 0.950 . S
C1257 C1256 1.397 . S
C1257 C1258 1.334 . S
C1258 H1229 0.950 . S
C1258 C1257 1.334 . S
C1258 C1259 1.287 . S
C1259 C1258 1.287 . S
C1259 C1260 1.524 . S
C1259 H1262 0.999 . S
C1260 H1230 0.950 . S
C1260 C1259 1.524 . S
C1260 C1261 1.415 . S
C1261 H1231 0.950 . S
C1261 C1256 1.363 . S
C1261 C1260 1.415 . S
H1262 C1259 0.999 . S
H1263 C1244 0.913 . S
C283 C18 0.763 . S
C298 C150 0.763 . S
C333 C183 0.764 . S
C348 C51 0.764 . S
C383 C216 0.763 . S
C398 C84 0.763 . S
C433 C117 0.763 . S
C448 C249 0.763 . S
C483 N35 0.602 . S
C498 N2 0.601 . S
C533 N68 0.601 . S
C548 N101 0.602 . S
C583 N134 0.604 . S
C598 N167 0.605 . S
C633 N233 0.601 . S
C648 N200 0.602 . S
C683 C7 1.689 . S
C698 N178 1.770 . S
C733 N145 1.770 . S
C748 C40 1.689 . S
C783 N244 1.770 . S
C798 C73 1.689 . S
C833 N211 1.770 . S
C848 C106 1.689 . S
C883 N46 1.770 . S
C898 C139 1.689 . S
C933 C172 1.689 . S
C948 N13 1.770 . S
C983 C205 1.689 . S
C998 N112 1.770 . S
C1033 N79 1.770 . S
C1048 C238 1.689 . S
C1083 C87 1.415 . S
C1098 C21 1.415 . S
C1133 C54 1.415 . S
C1148 C120 1.415 . S
C1183 C219 1.415 . S
C1198 C153 1.415 . S
C1233 C252 1.415 . S
C1248 C186 1.415 . S
