# Generated by pormake.
# Topology gan, (5)-cn, num edge types: 1
# Building blocks:
#     Node 0, Type 0, BuildingBlock: XOMCOT_clean_sbu_0, # of connection points: 5
#     Node 1, Type 0, BuildingBlock: XOMCOT_clean_sbu_0, # of connection points: 5
#     Node 2, Type 0, BuildingBlock: XOMCOT_clean_sbu_0, # of connection points: 5
#     Node 3, Type 0, BuildingBlock: XOMCOT_clean_sbu_0, # of connection points: 5
#     Node 4, Type 0, BuildingBlock: XOMCOT_clean_sbu_0, # of connection points: 5
#     Node 5, Type 0, BuildingBlock: XOMCOT_clean_sbu_0, # of connection points: 5
#     Node 6, Type 0, BuildingBlock: XOMCOT_clean_sbu_0, # of connection points: 5
#     Node 7, Type 0, BuildingBlock: XOMCOT_clean_sbu_0, # of connection points: 5
#     Node 8, Type 0, BuildingBlock: XOMCOT_clean_sbu_0, # of connection points: 5
#     Node 9, Type 0, BuildingBlock: XOMCOT_clean_sbu_0, # of connection points: 5
#     Node 10, Type 0, BuildingBlock: XOMCOT_clean_sbu_0, # of connection points: 5
#     Node 11, Type 0, BuildingBlock: XOMCOT_clean_sbu_0, # of connection points: 5
#     Node 12, Type 0, BuildingBlock: XOMCOT_clean_sbu_0, # of connection points: 5
#     Node 13, Type 0, BuildingBlock: XOMCOT_clean_sbu_0, # of connection points: 5
#     Node 14, Type 0, BuildingBlock: XOMCOT_clean_sbu_0, # of connection points: 5
#     Node 15, Type 0, BuildingBlock: XOMCOT_clean_sbu_0, # of connection points: 5
#     Edge 16, Type (0, 0), BuildingBlock: UVAHIK_clean_linker_0, # of connection points: 2
#     Edge 17, Type (0, 0), BuildingBlock: UVAHIK_clean_linker_0, # of connection points: 2
#     Edge 18, Type (0, 0), BuildingBlock: UVAHIK_clean_linker_0, # of connection points: 2
#     Edge 19, Type (0, 0), BuildingBlock: UVAHIK_clean_linker_0, # of connection points: 2
#     Edge 20, Type (0, 0), BuildingBlock: UVAHIK_clean_linker_0, # of connection points: 2
#     Edge 21, Type (0, 0), BuildingBlock: UVAHIK_clean_linker_0, # of connection points: 2
#     Edge 22, Type (0, 0), BuildingBlock: UVAHIK_clean_linker_0, # of connection points: 2
#     Edge 23, Type (0, 0), BuildingBlock: UVAHIK_clean_linker_0, # of connection points: 2
#     Edge 24, Type (0, 0), BuildingBlock: UVAHIK_clean_linker_0, # of connection points: 2
#     Edge 25, Type (0, 0), BuildingBlock: UVAHIK_clean_linker_0, # of connection points: 2
#     Edge 26, Type (0, 0), BuildingBlock: UVAHIK_clean_linker_0, # of connection points: 2
#     Edge 27, Type (0, 0), BuildingBlock: UVAHIK_clean_linker_0, # of connection points: 2
#     Edge 28, Type (0, 0), BuildingBlock: UVAHIK_clean_linker_0, # of connection points: 2
#     Edge 29, Type (0, 0), BuildingBlock: UVAHIK_clean_linker_0, # of connection points: 2
#     Edge 30, Type (0, 0), BuildingBlock: UVAHIK_clean_linker_0, # of connection points: 2
#     Edge 31, Type (0, 0), BuildingBlock: UVAHIK_clean_linker_0, # of connection points: 2
#     Edge 32, Type (0, 0), BuildingBlock: UVAHIK_clean_linker_0, # of connection points: 2
#     Edge 33, Type (0, 0), BuildingBlock: UVAHIK_clean_linker_0, # of connection points: 2
#     Edge 34, Type (0, 0), BuildingBlock: UVAHIK_clean_linker_0, # of connection points: 2
#     Edge 35, Type (0, 0), BuildingBlock: UVAHIK_clean_linker_0, # of connection points: 2
#     Edge 36, Type (0, 0), BuildingBlock: UVAHIK_clean_linker_0, # of connection points: 2
#     Edge 37, Type (0, 0), BuildingBlock: UVAHIK_clean_linker_0, # of connection points: 2
#     Edge 38, Type (0, 0), BuildingBlock: UVAHIK_clean_linker_0, # of connection points: 2
#     Edge 39, Type (0, 0), BuildingBlock: UVAHIK_clean_linker_0, # of connection points: 2
#     Edge 40, Type (0, 0), BuildingBlock: UVAHIK_clean_linker_0, # of connection points: 2
#     Edge 41, Type (0, 0), BuildingBlock: UVAHIK_clean_linker_0, # of connection points: 2
#     Edge 42, Type (0, 0), BuildingBlock: UVAHIK_clean_linker_0, # of connection points: 2
#     Edge 43, Type (0, 0), BuildingBlock: UVAHIK_clean_linker_0, # of connection points: 2
#     Edge 44, Type (0, 0), BuildingBlock: UVAHIK_clean_linker_0, # of connection points: 2
#     Edge 45, Type (0, 0), BuildingBlock: UVAHIK_clean_linker_0, # of connection points: 2
#     Edge 46, Type (0, 0), BuildingBlock: UVAHIK_clean_linker_0, # of connection points: 2
#     Edge 47, Type (0, 0), BuildingBlock: UVAHIK_clean_linker_0, # of connection points: 2
#     Edge 48, Type (0, 0), BuildingBlock: UVAHIK_clean_linker_0, # of connection points: 2
#     Edge 49, Type (0, 0), BuildingBlock: UVAHIK_clean_linker_0, # of connection points: 2
#     Edge 50, Type (0, 0), BuildingBlock: UVAHIK_clean_linker_0, # of connection points: 2
#     Edge 51, Type (0, 0), BuildingBlock: UVAHIK_clean_linker_0, # of connection points: 2
#     Edge 52, Type (0, 0), BuildingBlock: UVAHIK_clean_linker_0, # of connection points: 2
#     Edge 53, Type (0, 0), BuildingBlock: UVAHIK_clean_linker_0, # of connection points: 2
#     Edge 54, Type (0, 0), BuildingBlock: UVAHIK_clean_linker_0, # of connection points: 2
#     Edge 55, Type (0, 0), BuildingBlock: UVAHIK_clean_linker_0, # of connection points: 2
# Relax obj value: 0.100
# Max RMSD: 0.110
# Mean RMSD: 0.099
data_MOF--net-gan--node1-XOMCOT_clean_sbu_0--edge1-UVAHIK_clean_linker_0
_symmetry_space_group_name_H-M    P1
_symmetry_Int_Tables_number       1
_symmetry_cell_setting            triclinic
loop_
_symmetry_equiv_pos_as_xyz
'x, y, z'
_cell_length_a     52.693448
_cell_length_b     53.560989
_cell_length_c     52.766925
_cell_angle_alpha  90.946652
_cell_angle_beta   90.719116
_cell_angle_gamma 91.723622
loop_
_atom_site_label
_atom_site_type_symbol
_atom_site_fract_x
_atom_site_fract_y
_atom_site_fract_z
_atom_type_partial_charge
Co0 Co 0.09789 0.09814 0.13303 0.0
C1 C 0.13091 0.13669 0.16104 0.0
C2 C 0.1308 0.14181 0.1208 0.0
C3 C 0.14679 0.15974 0.13205 0.0
N4 N 0.12083 0.12724 0.13888 0.0
N5 N 0.14701 0.15662 0.15743 0.0
H6 H 0.12655 0.12912 0.17941 0.0
H7 H 0.12698 0.13937 0.10071 0.0
C8 C 0.1229 0.06691 0.09343 0.0
O9 O 0.11666 0.04639 0.10546 0.0
N10 N 0.0746 0.06916 0.12673 0.0
C11 C 0.06747 0.05115 0.14295 0.0
C12 C 0.05072 0.03457 0.13083 0.0
C13 C 0.06167 0.06312 0.10483 0.0
N14 N 0.0469 0.04195 0.10678 0.0
C15 C 0.11065 0.07803 0.18089 0.0
C16 C 0.16091 0.06948 0.17036 0.0
C17 C 0.15276 0.06786 0.19547 0.0
C18 C 0.12712 0.07189 0.20049 0.0
C19 C 0.14389 0.07616 0.15135 0.0
N20 N 0.11898 0.08021 0.15662 0.0
H21 H 0.09147 0.0826 0.18563 0.0
H22 H 0.15152 0.07988 0.13292 0.0
H23 H 0.0738 0.04967 0.16231 0.0
H24 H 0.06306 0.0741 0.08785 0.0
O25 O 0.07433 0.11249 0.15656 0.0
O26 O 0.07474 0.11847 0.11503 0.0
O27 O 0.11813 0.08831 0.10288 0.0
C28 C 0.06484 0.12342 0.1369 0.0
H29 H 0.1579 0.17364 0.12205 0.0
H30 H 0.04237 1.018 0.13919 0.0
H31 H 0.18048 0.06648 0.16545 0.0
H32 H 0.11994 0.07163 0.21962 0.0
Co33 Co 0.19353 0.90646 0.40603 0.0
C34 C 0.16017 0.94086 0.44043 0.0
C35 C 0.1994 0.94042 0.45104 0.0
C36 C 0.18701 0.95598 0.46767 0.0
N37 N 0.18285 0.93037 0.43374 0.0
N38 N 0.16212 0.95646 0.4613 0.0
H39 H 0.14236 0.9373 0.43071 0.0
H40 H 0.21942 0.93657 0.45168 0.0
C41 C 0.20311 0.87937 0.4541 0.0
O42 O 0.18129 0.88678 0.46285 0.0
N43 N 0.20404 0.88318 0.37829 0.0
C44 C 0.18938 0.87845 0.35757 0.0
C45 C 0.20102 0.86185 0.34166 0.0
C46 C 0.22512 0.86914 0.37417 0.0
N47 N 0.22359 0.85561 0.35175 0.0
C48 C 0.14025 0.90077 0.39911 0.0
C49 C 0.13548 0.85146 0.41288 0.0
C50 C 0.11331 0.86462 0.4076 0.0
C51 C 0.1162 0.88965 0.40039 0.0
C52 C 0.15921 0.86384 0.41255 0.0
N53 N 0.16113 0.88858 0.40698 0.0
H54 H 0.14199 0.91966 0.3924 0.0
H55 H 0.17601 0.85339 0.41631 0.0
H56 H 0.17118 0.88666 0.35414 0.0
H57 H 0.24098 0.86857 0.38734 0.0
O58 O 0.18552 0.93056 0.38088 0.0
O59 O 0.22313 0.92753 0.40006 0.0
O60 O 0.20966 0.88447 0.43155 0.0
C61 C 0.20904 0.93838 0.38341 0.0
H62 H 0.19603 0.96646 0.48318 0.0
H63 H 0.1934 0.85511 0.32358 0.0
H64 H 0.13477 0.83176 0.41707 0.0
H65 H 0.10022 0.90108 0.3961 0.0
Co66 Co 0.46456 0.91834 0.62743 0.0
C67 C 0.43132 0.88736 0.66378 0.0
C68 C 0.41616 0.92267 0.65418 0.0
C69 C 0.39871 0.90974 0.66866 0.0
N70 N 0.43681 0.90888 0.65089 0.0
N71 N 0.40791 0.88728 0.67471 0.0
H72 H 0.44366 0.87165 0.66453 0.0
H73 H 0.41352 0.94072 0.64582 0.0
C74 C 0.43094 0.91325 0.5857 0.0
O75 O 0.43303 0.93761 0.58901 0.0
N76 N 0.49179 0.92839 0.60335 0.0
C77 C 0.50907 0.91325 0.59313 0.0
C78 C 0.52423 0.92648 0.57666 0.0
C79 C 0.49722 0.95114 0.59268 0.0
N80 N 0.51702 0.95043 0.57607 0.0
C81 C 0.49474 0.93818 0.66981 0.0
C82 C 0.47067 0.98345 0.67003 0.0
C83 C 0.48736 0.97822 0.69008 0.0
C84 C 0.50011 0.95556 0.68934 0.0
C85 C 0.46595 0.96563 0.65087 0.0
N86 N 0.47724 0.94316 0.65146 0.0
H87 H 0.504 0.9205 0.67009 0.0
H88 H 0.45217 0.96918 0.63609 0.0
H89 H 0.51082 0.89367 0.59705 0.0
H90 H 0.4866 0.96772 0.59659 0.0
O91 O 0.48512 0.89056 0.64075 0.0
O92 O 0.45937 0.88444 0.60999 0.0
O93 O 0.44526 0.89943 0.59921 0.0
C94 C 0.47512 0.87457 0.62549 0.0
H95 H 0.38037 0.9165 0.67406 0.0
H96 H 0.53972 0.9189 0.566 0.0
H97 H 0.46012 1.00049 0.66987 0.0
H98 H 0.51346 0.95092 0.70418 0.0
Co99 Co 0.34127 0.14113 0.90677 0.0
C100 C 0.31007 0.17791 0.87429 0.0
C101 C 0.32464 0.14694 0.85347 0.0
C102 C 0.3108 0.16126 0.83716 0.0
N103 N 0.32466 0.15712 0.87695 0.0
N104 N 0.30143 0.18107 0.8498 0.0
H105 H 0.30585 0.1904 0.8899 0.0
H106 H 0.3337 0.12972 0.84849 0.0
C107 C 0.39276 0.12926 0.88619 0.0
O108 O 0.40398 0.14046 0.90585 0.0
N109 N 0.35729 0.12416 0.93698 0.0
C110 C 0.34901 0.12697 0.96098 0.0
C111 C 0.36201 0.11192 0.97721 0.0
C112 C 0.37528 0.10601 0.93951 0.0
N113 N 0.37878 0.09848 0.96411 0.0
C114 C 0.35918 0.18257 0.93787 0.0
C115 C 0.39148 0.20306 0.90244 0.0
C116 C 0.39324 0.21174 0.92768 0.0
C117 C 0.37586 0.20213 0.94516 0.0
C118 C 0.37437 0.18347 0.89598 0.0
N119 N 0.36011 0.17215 0.91418 0.0
H120 H 0.34596 0.17545 0.95152 0.0
H121 H 0.37378 0.17634 0.87669 0.0
H122 H 0.33371 0.13867 0.96671 0.0
H123 H 0.38488 0.09757 0.92372 0.0
O124 O 0.31118 0.1471 0.92596 0.0
O125 O 0.31818 0.11286 0.90295 0.0
O126 O 0.36858 0.12841 0.88407 0.0
C127 C 0.3033 0.12503 0.91791 0.0
H128 H 0.30739 0.15674 0.81733 0.0
H129 H 0.35906 0.11092 0.99743 0.0
H130 H 0.40419 0.21023 0.88814 0.0
H131 H 0.37568 0.20915 0.96452 0.0
Co132 Co 0.67356 0.40482 0.89043 0.0
C133 C 0.63694 0.4338 0.92581 0.0
C134 C 0.67562 0.44737 0.92663 0.0
C135 C 0.66185 0.46172 0.94307 0.0
N136 N 0.66047 0.42944 0.91577 0.0
N137 N 0.63738 0.45346 0.94296 0.0
H138 H 0.62006 0.42262 0.92102 0.0
H139 H 0.69557 0.45009 0.92263 0.0
C140 C 0.71635 0.38425 0.92139 0.0
O141 O 0.70829 0.36113 0.91688 0.0
N142 N 0.68741 0.38088 0.86403 0.0
C143 C 0.67451 0.37397 0.84259 0.0
C144 C 0.6892 0.35961 0.82708 0.0
C145 C 0.71085 0.37051 0.86024 0.0
N146 N 0.71228 0.35712 0.83781 0.0
C147 C 0.64035 0.36215 0.8944 0.0
C148 C 0.6404 0.36062 0.94677 0.0
C149 C 0.6238 0.34458 0.93283 0.0
C150 C 0.62434 0.34508 0.90635 0.0
C151 C 0.6567 0.37707 0.93395 0.0
N152 N 0.65627 0.37788 0.90805 0.0
H153 H 0.63863 0.36368 0.8742 0.0
H154 H 0.66872 0.39005 0.94488 0.0
H155 H 0.65548 0.37937 0.83782 0.0
H156 H 0.72699 0.37355 0.87284 0.0
O157 O 0.64644 0.41356 0.86778 0.0
O158 O 0.68468 0.43224 0.86991 0.0
O159 O 0.705 0.40255 0.91176 0.0
C160 C 0.66199 0.43099 0.85981 0.0
H161 H 0.66943 0.47751 0.95411 0.0
H162 H 0.68321 0.35166 0.8089 0.0
H163 H 0.64022 0.36096 0.96729 0.0
H164 H 0.61122 0.33354 0.89493 0.0
Co165 Co 0.96384 0.40693 0.11431 0.0
C166 C 0.92801 0.3787 0.15084 0.0
C167 C 0.91315 0.38151 0.11304 0.0
C168 C 0.89602 0.36795 0.12718 0.0
N169 N 0.9333 0.38876 0.12764 0.0
N170 N 0.905 0.36598 0.15112 0.0
H171 H 0.94073 0.38053 0.16707 0.0
H172 H 0.91115 0.38516 0.09305 0.0
C173 C 0.93311 0.4408 0.07987 0.0
O174 O 0.93814 0.46156 0.0928 0.0
N175 N 0.99474 0.42438 0.10008 0.0
C176 C 1.01888 0.41922 0.10664 0.0
C177 C 0.0357 0.43417 0.09361 0.0
C178 C 0.99781 0.44266 0.08223 0.0
N179 N 0.02278 0.44918 0.07816 0.0
C180 C 0.9786 0.44447 0.15068 0.0
C181 C 0.93039 0.46033 0.16136 0.0
C182 C 0.95122 0.47066 0.17507 0.0
C183 C 0.97556 0.46271 0.16938 0.0
C184 C 0.93431 0.44229 0.1425 0.0
N185 N 0.95825 0.43476 0.13722 0.0
H186 H 0.99729 0.43744 0.14778 0.0
H187 H 0.91808 0.43417 0.13232 0.0
H188 H 0.02435 0.40557 0.12035 0.0
H189 H 0.98233 0.45125 0.07247 0.0
O190 O 0.98438 0.38736 0.13646 0.0
O191 O 0.97257 0.37688 0.09695 0.0
O192 O 0.94242 0.42016 0.08636 0.0
C193 C 0.98392 0.37091 0.11794 0.0
H194 H 0.87848 0.35942 0.1199 0.0
H195 H 0.05617 0.43368 0.09527 0.0
H196 H 0.91125 0.46595 0.16535 0.0
H197 H 0.99204 0.4697 0.18007 0.0
Co198 Co 0.83753 0.63939 0.4076 0.0
C199 C 0.80829 0.67586 0.37336 0.0
C200 C 0.81918 0.6423 0.3543 0.0
C201 C 0.80609 0.6567 0.33742 0.0
N202 N 0.82108 0.6541 0.37699 0.0
N203 N 0.79904 0.67805 0.349 0.0
H204 H 0.80587 0.68977 0.38816 0.0
H205 H 0.82639 0.62399 0.35029 0.0
C206 C 0.88629 0.62082 0.38632 0.0
O207 O 0.89934 0.63111 0.40534 0.0
N208 N 0.85348 0.62413 0.43873 0.0
C209 C 0.84813 0.63125 0.4627 0.0
C210 C 0.86106 0.61711 0.47989 0.0
C211 C 0.86954 0.60449 0.44239 0.0
N212 N 0.87485 0.60009 0.46752 0.0
C213 C 0.85751 0.68437 0.43151 0.0
C214 C 0.88819 0.69848 0.39188 0.0
C215 C 0.88767 0.71397 0.4136 0.0
C216 C 0.87156 0.70683 0.43338 0.0
C217 C 0.87312 0.67675 0.39046 0.0
N218 N 0.85915 0.66917 0.41066 0.0
H219 H 0.84466 0.67972 0.44651 0.0
H220 H 0.87262 0.66609 0.37291 0.0
H221 H 0.83501 0.64551 0.46784 0.0
H222 H 0.87664 0.59302 0.42716 0.0
O223 O 0.80953 0.65052 0.42703 0.0
O224 O 0.81126 0.61362 0.40727 0.0
O225 O 0.86218 0.62221 0.38503 0.0
C226 C 0.79817 0.62951 0.42025 0.0
H227 H 0.80154 0.65134 0.31799 0.0
H228 H 0.86027 0.61937 0.50029 0.0
H229 H 0.90021 0.70276 0.37598 0.0
H230 H 0.86939 0.71856 0.45005 0.0
Co231 Co 0.83401 0.85753 0.88527 0.0
C232 C 0.87449 0.88599 0.91841 0.0
C233 C 0.86224 0.90543 0.88555 0.0
C234 C 0.87932 0.9206 0.89881 0.0
N235 N 0.85954 0.88322 0.89711 0.0
N236 N 0.88719 0.90855 0.91953 0.0
H237 H 0.87571 0.87239 0.93316 0.0
H238 H 0.85175 0.91068 0.86882 0.0
C239 C 0.86619 0.86806 0.84132 0.0
O240 O 0.88536 0.86248 0.85616 0.0
N241 N 0.80797 0.83287 0.87346 0.0
C242 C 0.79901 0.81399 0.88766 0.0
C243 C 0.78258 0.79905 0.87325 0.0
C244 C 0.79663 0.82904 0.85028 0.0
N245 N 0.78104 0.80822 0.8496 0.0
C246 C 0.86777 0.82428 0.91008 0.0
C247 C 0.87887 0.79653 0.86724 0.0
C248 C 0.89123 0.79126 0.89015 0.0
C249 C 0.88481 0.80493 0.91195 0.0
C250 C 0.86168 0.81575 0.86636 0.0
N251 N 0.85773 0.83054 0.88719 0.0
H252 H 0.86227 0.83386 0.92715 0.0
H253 H 0.85195 0.81911 0.84866 0.0
H254 H 0.80452 0.8109 0.90714 0.0
H255 H 0.80032 0.84069 0.8341 0.0
O256 O 0.82119 0.85598 0.91906 0.0
O257 O 0.80852 0.8823 0.88969 0.0
O258 O 0.84345 0.86517 0.84924 0.0
C259 C 0.80735 0.87473 0.913 0.0
H260 H 0.88474 0.93959 0.89404 0.0
H261 H 0.77253 0.78253 0.87985 0.0
H262 H 0.88285 0.78642 0.84988 0.0
H263 H 0.89281 0.80072 0.93033 0.0
Co264 Co 0.93363 0.15571 0.64709 0.0
C265 C 0.89771 0.18527 0.68291 0.0
C266 C 0.93573 0.2003 0.6809 0.0
C267 C 0.92208 0.21537 0.69671 0.0
N268 N 0.92095 0.181 0.67214 0.0
N269 N 0.89797 0.20628 0.69841 0.0
H270 H 0.88104 0.17335 0.67949 0.0
H271 H 0.95527 0.20378 0.67569 0.0
C272 C 0.98461 0.14857 0.67288 0.0
O273 O 0.98034 0.12453 0.67586 0.0
N274 N 0.94704 0.13112 0.62112 0.0
C275 C 0.93264 0.12018 0.6024 0.0
C276 C 0.94697 0.10464 0.58772 0.0
C277 C 0.97088 0.12211 0.61632 0.0
N278 N 0.9712 0.10541 0.59621 0.0
C279 C 0.91283 0.10874 0.66078 0.0
C280 C 0.92818 0.1096 0.71104 0.0
C281 C 0.91704 0.0876 0.70045 0.0
C282 C 0.90831 0.08783 0.67532 0.0
C283 C 0.9321 0.13045 0.69566 0.0
N284 N 0.92612 0.12901 0.67039 0.0
H285 H 0.90566 0.10852 0.6416 0.0
H286 H 0.94102 0.14724 0.70371 0.0
H287 H 0.91264 0.12302 0.59936 0.0
H288 H 0.98775 0.12754 0.62706 0.0
O289 O 0.90114 0.15549 0.63066 0.0
O290 O 0.93367 0.18104 0.6213 0.0
O291 O 0.96888 0.16195 0.66107 0.0
C292 C 0.91011 0.17372 0.61718 0.0
H293 H 0.92945 0.23241 0.70575 0.0
H294 H 0.9399 0.09376 0.57152 0.0
H295 H 0.93457 0.11043 0.73063 0.0
H296 H 0.89825 0.0718 0.6668 0.0
Co297 Co 0.70875 0.16707 0.36926 0.0
C298 C 0.74275 0.19967 0.33498 0.0
C299 C 0.76195 0.16993 0.35309 0.0
C300 C 0.77924 0.18343 0.33902 0.0
N301 N 0.73893 0.1799 0.35086 0.0
N302 N 0.76752 0.20239 0.32754 0.0
H303 H 0.72792 0.21207 0.32941 0.0
H304 H 0.76601 0.15388 0.36447 0.0
C305 C 0.72366 0.17296 0.42425 0.0
O306 O 0.70021 0.17826 0.42996 0.0
N307 N 0.67842 0.15342 0.38772 0.0
C308 C 0.65418 0.15922 0.38269 0.0
C309 C 0.63795 0.14543 0.39757 0.0
C310 C 0.67607 0.13499 0.40552 0.0
N311 N 0.65135 0.13014 0.41238 0.0
C312 C 0.67916 0.20938 0.35794 0.0
C313 C 0.69956 0.24179 0.39458 0.0
C314 C 0.67858 0.24889 0.38026 0.0
C315 C 0.66906 0.23287 0.36107 0.0
C316 C 0.70968 0.21826 0.3902 0.0
N317 N 0.698 0.20149 0.37363 0.0
H318 H 0.67117 0.19735 0.34316 0.0
H319 H 0.72683 0.21384 0.40021 0.0
H320 H 0.64811 0.17192 0.36841 0.0
H321 H 0.69211 0.12549 0.41341 0.0
O322 O 0.69196 0.15927 0.33748 0.0
O323 O 0.71578 0.13318 0.35884 0.0
O324 O 0.72965 0.16832 0.40133 0.0
C325 C 0.70133 0.13724 0.33923 0.0
H326 H 0.79912 0.17927 0.3373 0.0
H327 H 0.61747 0.14621 0.39676 0.0
H328 H 0.70788 0.25419 0.40905 0.0
H329 H 0.65306 0.23798 0.34934 0.0
Co330 Co 0.59398 0.89473 0.15951 0.0
C331 C 0.63267 0.86291 0.18935 0.0
C332 C 0.61713 0.89263 0.21119 0.0
C333 C 0.63279 0.87926 0.22665 0.0
N334 N 0.61705 0.88306 0.18741 0.0
N335 N 0.64283 0.86034 0.21332 0.0
H336 H 0.63625 0.85023 0.17372 0.0
H337 H 0.60563 0.90776 0.21747 0.0
C338 C 0.59621 0.94975 0.16973 0.0
O339 O 0.60181 0.95285 0.14576 0.0
N340 N 0.56949 0.9056 0.13175 0.0
C341 C 0.56189 0.89048 0.11214 0.0
C342 C 0.54621 0.90277 0.0958 0.0
C343 C 0.55638 0.92712 0.12698 0.0
N344 N 0.5427 0.92619 0.10454 0.0
C345 C 0.62419 0.90263 0.11564 0.0
C346 C 0.66281 0.93064 0.13946 0.0
C347 C 0.66263 0.92787 0.11306 0.0
C348 C 0.64341 0.91324 0.1012 0.0
C349 C 0.64282 0.92003 0.15323 0.0
N350 N 0.6232 0.90726 0.14106 0.0
H351 H 0.61012 0.89071 0.10626 0.0
H352 H 0.64258 0.92299 0.17352 0.0
H353 H 0.5677 0.8715 0.10919 0.0
H354 H 0.55638 0.94318 0.13956 0.0
O355 O 0.59334 0.86145 0.14613 0.0
O356 O 0.56673 0.87568 0.17501 0.0
O357 O 0.59088 0.92788 0.17794 0.0
C358 C 0.57504 0.85683 0.1618 0.0
H359 H 0.63569 0.88274 0.24676 0.0
H360 H 0.53783 0.89463 0.07865 0.0
H361 H 0.67787 0.94132 0.14921 0.0
H362 H 0.64343 0.90979 0.0809 0.0
Co363 Co 0.41871 0.64084 0.14908 0.0
C364 C 0.38492 0.67599 0.18126 0.0
C365 C 0.41886 0.69318 0.16681 0.0
C366 C 0.40638 0.71061 0.18106 0.0
N367 N 0.40565 0.67127 0.16645 0.0
N368 N 0.38483 0.70022 0.19036 0.0
H369 H 0.37026 0.6621 0.18532 0.0
H370 H 0.43692 0.69625 0.15768 0.0
C371 C 0.46703 0.62994 0.17844 0.0
O372 O 0.46855 0.60715 0.16922 0.0
N373 N 0.43275 0.61059 0.1314 0.0
C374 C 0.42626 0.58649 0.13591 0.0
C375 C 0.44068 0.57082 0.12144 0.0
C376 C 0.45155 0.60868 0.11351 0.0
N377 N 0.45692 0.58438 0.10723 0.0
C378 C 0.37732 0.60924 0.16385 0.0
C379 C 0.39087 0.60486 0.21428 0.0
C380 C 0.36866 0.5925 0.20515 0.0
C381 C 0.36179 0.59522 0.17967 0.0
C382 C 0.40592 0.61891 0.19775 0.0
N383 N 0.39947 0.62034 0.17265 0.0
H384 H 0.37172 0.61051 0.14421 0.0
H385 H 0.42243 0.62883 0.20544 0.0
H386 H 0.41261 0.58005 0.14953 0.0
H387 H 0.46173 0.62467 0.10593 0.0
O388 O 0.39321 0.64317 0.1231 0.0
O389 O 0.43162 0.66136 0.12183 0.0
O390 O 0.44897 0.64399 0.1722 0.0
C391 C 0.40946 0.65717 0.11122 0.0
H392 H 0.41325 0.72957 0.18483 0.0
H393 H 0.43937 0.55062 0.12165 0.0
H394 H 0.3968 0.60341 0.23391 0.0
H395 H 0.34452 0.5865 0.1719 0.0
Co396 Co 0.21602 0.6617 0.87086 0.0
C397 C 0.18326 0.62704 0.904 0.0
C398 C 0.20973 0.60775 0.8808 0.0
C399 C 0.19559 0.59042 0.89411 0.0
N400 N 0.2021 0.63085 0.88664 0.0
N401 N 0.17865 0.60224 0.90874 0.0
H402 H 0.17269 0.64202 0.9124 0.0
H403 H 0.22457 0.60369 0.86751 0.0
C404 C 0.20687 0.65147 0.81574 0.0
O405 O 0.19828 0.67415 0.8138 0.0
N406 N 0.23108 0.69276 0.85549 0.0
C407 C 0.23265 0.71524 0.86754 0.0
C408 C 0.24772 0.73166 0.85428 0.0
C409 C 0.2466 0.69615 0.83494 0.0
N410 N 0.25675 0.71997 0.83367 0.0
C411 C 0.17357 0.69402 0.87697 0.0
C412 C 0.13808 0.66151 0.8542 0.0
C413 C 0.1301 0.68396 0.8648 0.0
C414 C 0.14813 0.70046 0.87607 0.0
C415 C 0.16376 0.65603 0.85505 0.0
N416 N 0.18131 0.67234 0.86601 0.0
H417 H 0.1866 0.70587 0.88774 0.0
H418 H 0.16932 0.63803 0.84789 0.0
H419 H 0.22518 0.71936 0.88601 0.0
H420 H 0.25154 0.68125 0.822 0.0
O421 O 0.22289 0.67561 0.90421 0.0
O422 O 0.24968 0.65334 0.88154 0.0
O423 O 0.21538 0.64399 0.83698 0.0
C424 C 0.24517 0.66591 0.90224 0.0
H425 H 0.19789 0.57042 0.8931 0.0
H426 H 0.25242 0.75076 0.86001 0.0
H427 H 0.12454 0.64811 0.84575 0.0
H428 H 0.14242 0.71762 0.88523 0.0
Co429 Co 0.08731 0.39655 0.66677 0.0
C430 C 0.12453 0.36155 0.69598 0.0
C431 C 0.11986 0.39752 0.71304 0.0
C432 C 0.13479 0.38372 0.72884 0.0
N433 N 0.11347 0.38427 0.6918 0.0
N434 N 0.13799 0.36087 0.71849 0.0
H435 H 0.1216 0.34527 0.68388 0.0
H436 H 0.11315 0.41593 0.71751 0.0
C437 C 0.12427 0.43895 0.67168 0.0
O438 O 0.14175 0.42258 0.66692 0.0
N439 N 0.06058 0.40842 0.64247 0.0
C440 C 0.04755 0.39255 0.62666 0.0
C441 C 0.0323 0.40558 0.61053 0.0
C442 C 0.05261 0.4316 0.63513 0.0
N443 N 0.03526 0.43035 0.61529 0.0
C444 C 0.11741 0.36791 0.63274 0.0
C445 C 0.12796 0.40629 0.59971 0.0
C446 C 0.13798 0.38278 0.59494 0.0
C447 C 0.13229 0.36334 0.61159 0.0
C448 C 0.1132 0.41002 0.62106 0.0
N449 N 0.10903 0.39125 0.6379 0.0
H450 H 0.11198 0.35248 0.64447 0.0
H451 H 0.10519 0.42812 0.6241 0.0
H452 H 0.04945 0.37251 0.62618 0.0
H453 H 0.06002 0.44899 0.6434 0.0
O454 O 0.07093 0.36419 0.66725 0.0
O455 O 0.0632 0.39545 0.69411 0.0
O456 O 0.10084 0.43196 0.67203 0.0
C457 C 0.05898 0.37228 0.68698 0.0
H458 H 0.14237 0.39009 0.74706 0.0
H459 H 0.01992 0.39713 0.59607 0.0
H460 H 0.1317 0.42179 0.58723 0.0
H461 H 0.13882 0.34464 0.60802 0.0
Co462 Co 0.57525 0.62592 0.62502 0.0
C463 C 0.54019 0.58822 0.59751 0.0
C464 C 0.57294 0.57199 0.61427 0.0
C465 C 0.55933 0.55362 0.60104 0.0
N466 N 0.56104 0.59378 0.61233 0.0
N467 N 0.5387 0.56367 0.59032 0.0
H468 H 0.52655 0.60179 0.59183 0.0
H469 H 0.59094 0.56964 0.62379 0.0
C470 C 0.59735 0.60235 0.66643 0.0
O471 O 0.61576 0.60332 0.64985 0.0
N472 N 0.59005 0.65795 0.63772 0.0
C473 C 0.58226 0.68075 0.63134 0.0
C474 C 0.59627 0.69871 0.64498 0.0
C475 C 0.60889 0.66255 0.65524 0.0
N476 N 0.61313 0.68737 0.66013 0.0
C477 C 0.56347 0.63982 0.57377 0.0
C478 C 0.61343 0.63854 0.55847 0.0
C479 C 0.59413 0.64178 0.54041 0.0
C480 C 0.56895 0.64275 0.5482 0.0
C481 C 0.60706 0.63506 0.58372 0.0
N482 N 0.58239 0.63527 0.59087 0.0
H483 H 0.54392 0.64025 0.57946 0.0
H484 H 0.62169 0.63134 0.5976 0.0
H485 H 0.5671 0.68413 0.61795 0.0
H486 H 0.61943 0.64817 0.66429 0.0
O487 O 0.54093 0.64004 0.62482 0.0
O488 O 0.55543 0.62339 0.65782 0.0
O489 O 0.57599 0.61209 0.66064 0.0
C490 C 0.53683 0.63485 0.64762 0.0
H491 H 0.56492 0.53446 0.59858 0.0
H492 H 0.59367 0.71863 0.64411 0.0
H493 H 0.63309 0.63749 0.55288 0.0
H494 H 0.5537 0.64521 0.5346 0.0
Co495 Co 0.35375 0.35845 0.36694 0.0
C496 C 0.37865 0.39744 0.40208 0.0
C497 C 0.37731 0.40847 0.36319 0.0
C498 C 0.38947 0.4272 0.37731 0.0
N499 N 0.37031 0.3898 0.3786 0.0
N500 N 0.39044 0.42041 0.40184 0.0
H501 H 0.37623 0.38645 0.41895 0.0
H502 H 0.37426 0.40829 0.3429 0.0
C503 C 0.32492 0.38502 0.33048 0.0
O504 O 0.34235 0.37556 0.31586 0.0
N505 N 0.33731 0.3269 0.35513 0.0
C506 C 0.34067 0.30471 0.3661 0.0
C507 C 0.32589 0.28664 0.35365 0.0
C508 C 0.32023 0.32184 0.33598 0.0
N509 N 0.31282 0.29725 0.33466 0.0
C510 C 0.39587 0.33866 0.39439 0.0
C511 C 0.42532 0.3343 0.35157 0.0
C512 C 0.43684 0.33222 0.37556 0.0
C513 C 0.42155 0.33358 0.39711 0.0
C514 C 0.39959 0.33955 0.34973 0.0
N515 N 0.38558 0.34239 0.37098 0.0
H516 H 0.38482 0.34124 0.41125 0.0
H517 H 0.3911 0.34293 0.33138 0.0
H518 H 0.35299 0.30183 0.38227 0.0
H519 H 0.3129 0.33579 0.32357 0.0
O520 O 0.34144 0.35171 0.40194 0.0
O521 O 0.31948 0.37175 0.37565 0.0
O522 O 0.32402 0.37837 0.35388 0.0
C523 C 0.32093 0.36276 0.39807 0.0
H524 H 0.39769 0.44426 0.36981 0.0
H525 H 0.32511 0.26703 0.35827 0.0
H526 H 0.43625 0.33288 0.33439 0.0
H527 H 0.4296 0.33231 0.41601 0.0
C528 C 0.16844 0.16169 0.20001 0.0
C529 C 0.16207 0.17129 0.17611 0.0
C530 C 0.18396 0.17567 0.21741 0.0
C531 C 0.23105 0.22991 0.22098 0.0
H532 H 0.21881 0.22744 0.2931 0.0
C533 C 0.2884 0.29447 0.2935 0.0
C534 C 0.29477 0.28448 0.31722 0.0
C535 C 0.27172 0.28136 0.27647 0.0
C536 C 0.22283 0.22822 0.27306 0.0
H537 H 0.16669 0.20396 0.15262 0.0
H538 H 0.19339 0.22797 0.18255 0.0
H539 H 0.19142 0.20309 0.2638 0.0
H540 H 0.28736 0.25278 0.34148 0.0
H541 H 0.25929 0.23007 0.31202 0.0
H542 H 0.26257 0.25487 0.2302 0.0
C543 C 0.18692 0.2094 0.18777 0.0
C544 C 0.20698 0.21413 0.25614 0.0
C545 C 0.17144 0.1955 0.17047 0.0
C546 C 0.28349 0.26116 0.3234 0.0
C547 C 0.2669 0.24813 0.30645 0.0
C548 C 0.24695 0.24394 0.2379 0.0
C549 C 0.19367 0.19973 0.2115 0.0
C550 C 0.21077 0.21469 0.22976 0.0
C551 C 0.26072 0.25786 0.28259 0.0
C552 C 0.24321 0.24334 0.2643 0.0
H553 H 0.16194 0.14311 0.20512 0.0
H554 H 0.18881 0.16733 0.23531 0.0
H555 H 0.23502 0.23067 0.20092 0.0
H556 H 0.29661 0.31224 0.28784 0.0
H557 H 0.26733 0.28981 0.2585 0.0
C558 C 0.9859 0.06714 0.57318 0.0
C559 C 0.99167 0.09052 0.58514 0.0
C560 C 1.00439 0.0533 0.56033 0.0
C561 C 0.07585 0.04823 0.54924 0.0
H562 H 0.05273 1.00364 0.49462 0.0
C563 C 0.1464 0.97926 0.50007 0.0
C564 C 0.14257 0.97083 0.47467 0.0
C565 C 0.12844 0.99382 0.51298 0.0
C566 C 0.05992 1.01604 0.5096 0.0
H567 H 0.02278 0.11691 0.59281 0.0
H568 H 0.05505 0.09305 0.57029 0.0
H569 H 0.02247 0.02881 0.51709 0.0
H570 H 0.11551 0.9718 0.44353 0.0
H571 H 0.08453 0.99721 0.46564 0.0
H572 H 0.11345 0.03604 0.54113 0.0
C573 C 0.03594 0.08517 0.57103 0.0
C574 C 0.04217 0.0305 0.52305 0.0
C575 C 1.01728 0.09908 0.58414 0.0
C576 C 0.1195 0.97752 0.46297 0.0
C577 C 0.10149 0.99227 0.47592 0.0
C578 C 0.09364 0.0338 0.53572 0.0
C579 C 0.02989 0.06199 0.55843 0.0
C580 C 0.04953 0.04689 0.54343 0.0
C581 C 0.10551 1.00099 0.5013 0.0
C582 C 0.0862 1.01712 0.51559 0.0
H583 H 0.96676 0.05929 0.57374 0.0
H584 H 0.99844 0.03545 0.552 0.0
H585 H 0.0829 0.06022 0.56462 0.0
H586 H 0.16335 0.97439 0.51038 0.0
H587 H 0.1326 0.99912 0.53249 0.0
C588 C 0.27292 0.72812 0.78963 0.0
C589 C 0.27493 0.73149 0.81615 0.0
C590 C 0.28841 0.74244 0.77302 0.0
C591 C 0.34771 0.78519 0.77164 0.0
H592 H 0.31853 0.80865 0.70906 0.0
C593 C 0.40709 0.84848 0.70146 0.0
C594 C 0.39433 0.86751 0.68871 0.0
C595 C 0.39361 0.83029 0.71578 0.0
C596 C 0.32714 0.8025 0.72652 0.0
H597 H 0.29595 0.75217 0.84557 0.0
H598 H 0.32247 0.77659 0.81727 0.0
H599 H 0.29381 0.78038 0.73565 0.0
H600 H 0.35661 0.88093 0.6808 0.0
H601 H 0.33372 0.85012 0.7055 0.0
H602 H 0.38082 0.80773 0.76283 0.0
C603 C 0.30911 0.76299 0.80893 0.0
C604 C 0.31289 0.78583 0.74177 0.0
C605 C 0.29359 0.74896 0.82536 0.0
C606 C 0.36754 0.86714 0.69046 0.0
C607 C 0.35416 0.84898 0.70455 0.0
C608 C 0.362 0.80176 0.75634 0.0
C609 C 0.30671 0.76043 0.78234 0.0
C610 C 0.32269 0.77701 0.76489 0.0
C611 C 0.36679 0.83017 0.71772 0.0
C612 C 0.35196 0.81109 0.73355 0.0
H613 H 0.25871 0.71512 0.78168 0.0
H614 H 0.28591 0.73946 0.7528 0.0
H615 H 0.35644 0.7788 0.78894 0.0
H616 H 0.42757 0.84785 0.70077 0.0
H617 H 0.40433 0.81615 0.72521 0.0
C618 C 0.38791 0.06692 0.99753 0.0
C619 C 0.39554 0.07994 0.97562 0.0
C620 C 0.40439 0.05123 1.01087 0.0
C621 C 0.46788 1.01827 1.00753 0.0
H622 H 0.45678 1.00961 0.07935 0.0
C623 C 0.52327 0.9429 0.06457 0.0
C624 C 0.528 0.94522 0.09104 0.0
C625 C 0.50833 0.95991 0.05114 0.0
C626 C 0.46057 1.01176 0.05939 0.0
H627 H 0.42744 0.08547 0.95076 0.0
H628 H 0.45628 0.05828 0.9739 0.0
H629 H 0.42994 0.03705 0.05526 0.0
H630 H 0.52024 0.96891 0.12346 0.0
H631 H 0.49455 0.99879 0.10014 0.0
H632 H 0.49898 0.99357 1.01182 0.0
C633 C 0.43717 0.06007 0.9808 0.0
C634 C 0.44464 0.0275 0.04518 0.0
C635 C 0.42048 0.07583 0.96727 0.0
C636 C 0.51731 0.96604 0.10328 0.0
C637 C 0.50219 0.98323 0.0897 0.0
C638 C 0.48382 1.00255 0.02175 0.0
C639 C 0.42968 0.0476 1.00327 0.0
C640 C 0.44763 0.03106 0.01876 0.0
C641 C 0.49721 0.98057 0.06318 0.0
C642 C 0.48052 0.99861 0.04807 0.0
H643 H 0.36889 0.0689 1.00462 0.0
H644 H 0.39697 0.04178 0.02728 0.0
H645 H 0.4713 0.01997 0.98746 0.0
H646 H 0.53123 0.92776 0.05379 0.0
H647 H 0.50518 0.95636 0.03109 0.0
C648 C 0.35215 0.70172 0.22542 0.0
C649 C 0.36693 0.7136 0.20669 0.0
C650 C 0.33701 0.71573 0.24246 0.0
C651 C 0.32798 0.78272 0.26723 0.0
H652 H 0.26552 0.75548 0.29461 0.0
C653 C 0.26758 0.84072 0.34094 0.0
C654 C 0.24085 0.83784 0.3397 0.0
C655 C 0.2835 0.82492 0.32651 0.0
C656 C 0.28281 0.76373 0.28715 0.0
H657 H 0.37552 0.75004 0.19102 0.0
H658 H 0.3497 0.77374 0.2198 0.0
H659 H 0.29057 0.72999 0.26618 0.0
H660 H 0.21061 0.81473 0.32256 0.0
H661 H 0.23762 0.78799 0.29791 0.0
H662 H 0.31999 0.81662 0.28775 0.0
C663 C 0.3502 0.75373 0.2222 0.0
C664 C 0.29754 0.74873 0.27083 0.0
C665 C 0.36517 0.73988 0.20533 0.0
C666 C 0.23094 0.81802 0.32411 0.0
C667 C 0.2467 0.80226 0.30994 0.0
C668 C 0.3133 0.79767 0.2836 0.0
C669 C 0.33597 0.7422 0.24152 0.0
C670 C 0.32041 0.75791 0.26016 0.0
C671 C 0.27342 0.80537 0.31043 0.0
C672 C 0.29015 0.78871 0.29382 0.0
H673 H 0.35285 0.68168 0.22743 0.0
H674 H 0.3266 0.70572 0.25685 0.0
H675 H 0.34553 0.79081 0.26018 0.0
H676 H 0.27619 0.85568 0.35244 0.0
H677 H 0.30384 0.82812 0.32801 0.0
C678 C 0.53938 0.96338 0.53657 0.0
C679 C 0.52876 0.96984 0.56017 0.0
C680 C 0.55291 0.98098 0.52189 0.0
C681 C 0.56821 0.0507 0.51501 0.0
H682 H 0.61951 0.02648 0.46956 0.0
C683 C 0.61559 0.11702 0.44071 0.0
C684 C 0.64008 0.11292 0.43102 0.0
C685 C 0.60339 0.10014 0.45717 0.0
C686 C 0.60551 0.0339 0.48223 0.0
H687 H 0.52422 1.00089 0.58622 0.0
H688 H 0.54806 0.03159 0.56101 0.0
H689 H 0.59641 0.9974 0.49632 0.0
H690 H 0.67087 0.08714 0.43255 0.0
H691 H 0.64998 0.05795 0.46176 0.0
H692 H 0.57799 0.08732 0.50166 0.0
C693 C 0.54564 1.01275 0.5535 0.0
C694 C 0.5917 1.01689 0.49755 0.0
C695 C 0.5318 0.99503 0.56818 0.0
C696 C 0.65213 0.09125 0.43932 0.0
C697 C 0.63983 0.07423 0.45603 0.0
C698 C 0.58213 0.06772 0.49981 0.0
C699 C 0.55685 1.00607 0.53006 0.0
C700 C 0.57243 0.02476 0.51416 0.0
C701 C 0.61501 0.0782 0.46527 0.0
C702 C 0.60097 0.05978 0.48275 0.0
H703 H 0.53724 0.94442 0.52927 0.0
H704 H 0.56015 0.97468 0.50387 0.0
H705 H 0.55372 0.05806 0.52714 0.0
H706 H 0.60547 0.13348 0.43556 0.0
H707 H 0.58437 0.10428 0.46306 0.0
C708 C 0.28568 0.20385 0.81145 0.0
C709 C 0.28553 0.2003 0.83804 0.0
C710 C 0.26946 0.22063 0.79923 0.0
C711 C 0.2263 0.27565 0.80979 0.0
H712 H 0.20255 0.25869 0.74171 0.0
C713 C 0.15306 0.33927 0.75769 0.0
C714 C 0.15195 0.34071 0.73092 0.0
C715 C 0.16837 0.32199 0.77039 0.0
C716 C 0.20908 0.26423 0.76054 0.0
H717 H 0.26756 0.21339 0.87223 0.0
H718 H 0.23947 0.24282 0.85105 0.0
H719 H 0.22992 0.2305 0.76427 0.0
H720 H 0.16666 0.32374 0.69692 0.0
H721 H 0.19353 0.29387 0.71877 0.0
H722 H 0.20581 0.3095 0.80603 0.0
C723 C 0.25235 0.23229 0.83952 0.0
C724 C 0.22506 0.24773 0.77376 0.0
C725 C 0.26864 0.21524 0.85188 0.0
C726 C 0.16657 0.32337 0.71742 0.0
C727 C 0.18218 0.30606 0.73023 0.0
C728 C 0.21043 0.29223 0.79652 0.0
C729 C 0.25208 0.23517 0.81274 0.0
C730 C 0.2342 0.25296 0.79877 0.0
C731 C 0.1838 0.3051 0.75717 0.0
C732 C 0.20126 0.28704 0.77147 0.0
H733 H 0.29859 0.19367 0.79968 0.0
H734 H 0.27091 0.22234 0.77889 0.0
H735 H 0.23284 0.28104 0.82868 0.0
H736 H 0.14195 0.35173 0.76912 0.0
H737 H 0.16786 0.32196 0.79087 0.0
C738 C 0.03432 0.0325 0.06155 0.0
C739 C 0.03062 0.02922 0.08771 0.0
C740 C 1.01916 0.01911 0.04339 0.0
C741 C 0.97578 0.96227 0.03597 0.0
H742 H 0.95455 0.99362 0.97395 0.0
C743 C 0.90206 0.91419 0.96464 0.0
C744 C 0.90476 0.91911 0.93867 0.0
C745 C 0.91769 0.92683 0.983 0.0
C746 C 0.96053 0.98429 0.99096 0.0
H747 H 1.00691 1.00967 0.1148 0.0
H748 H 0.98096 0.98665 0.08356 0.0
H749 H 0.98104 1.01715 1.00461 0.0
H750 H 0.92717 0.94019 0.91181 0.0
H751 H 0.95438 0.96154 0.94326 0.0
H752 H 0.95534 0.92936 0.02227 0.0
C753 C 0.99593 0.99909 0.07692 0.0
C754 C 0.97583 0.99794 1.00868 0.0
C755 C 1.01096 1.01246 0.09499 0.0
C756 C 0.92412 0.93624 0.93162 0.0
C757 C 0.93973 0.94868 0.9498 0.0
C758 C 0.96054 0.94857 0.01819 0.0
C759 C 0.99983 1.00198 0.05078 0.0
C760 C 0.98373 0.98721 0.03154 0.0
C761 C 0.93655 0.94465 0.9759 0.0
C762 C 0.95265 0.9593 0.99529 0.0
H763 H 0.04929 0.04499 0.05503 0.0
H764 H 0.02301 0.02182 0.0235 0.0
H765 H 0.98168 0.95307 0.05309 0.0
H766 H 0.88728 0.9013 0.97083 0.0
H767 H 0.9144 0.92317 1.00282 0.0
C768 C 0.8851 0.23349 0.7351 0.0
C769 C 0.87818 0.21816 0.71382 0.0
C770 C 0.86719 0.24719 0.7489 0.0
C771 C 0.79916 0.27053 0.74642 0.0
H772 H 0.81475 0.29098 0.81578 0.0
C773 C 0.73548 0.34311 0.79905 0.0
C774 C 0.73306 0.34347 0.82574 0.0
C775 C 0.75291 0.32777 0.78642 0.0
C776 C 0.80965 0.28548 0.79652 0.0
H777 H 0.84555 0.20536 0.69142 0.0
H778 H 0.81414 0.22866 0.71573 0.0
H779 H 0.84324 0.264 0.79307 0.0
H780 H 0.74832 0.32735 0.85975 0.0
H781 H 0.77853 0.30043 0.83798 0.0
H782 H 0.7651 0.29125 0.75018 0.0
C783 C 0.83388 0.23052 0.72152 0.0
C784 C 0.82652 0.26998 0.78306 0.0
C785 C 0.85201 0.2167 0.70754 0.0
C786 C 0.74956 0.32806 0.83931 0.0
C787 C 0.76702 0.31242 0.82656 0.0
C788 C 0.78223 0.28594 0.75992 0.0
C789 C 0.84104 0.24637 0.74253 0.0
C790 C 0.82195 0.26223 0.75749 0.0
C791 C 0.76891 0.31155 0.79965 0.0
C792 C 0.78707 0.29413 0.78532 0.0
H793 H 0.90475 0.23518 0.74122 0.0
H794 H 0.87429 0.25903 0.76437 0.0
H795 H 0.7944 0.26554 0.72695 0.0
H796 H 0.72359 0.35476 0.78764 0.0
H797 H 0.75374 0.32886 0.766 0.0
C798 C 0.15148 0.56485 0.9199 0.0
C799 C 0.15975 0.58982 0.92501 0.0
C800 C 0.13468 0.55186 0.93602 0.0
C801 C 0.1084 0.55233 1.00247 0.0
H802 H 0.06315 0.50004 0.97488 0.0
C803 C 0.05851 0.47911 0.0681 0.0
C804 C 0.03463 0.46791 0.06156 0.0
C805 C 0.07157 0.49538 0.05166 0.0
C806 C 0.0754 0.51466 0.98312 0.0
H807 H 0.15564 0.62051 0.95167 0.0
H808 H 0.12618 0.59804 0.97972 0.0
H809 H 0.08879 0.52556 0.9465 0.0
H810 H 1.00584 0.46615 0.03196 0.0
H811 H 0.02842 0.49474 1.00326 0.0
H812 H 0.09476 0.54167 0.03906 0.0
C813 C 0.13307 0.58829 0.96317 0.0
C814 C 0.09058 0.52929 0.96667 0.0
C815 C 0.1499 0.60143 0.94685 0.0
C816 C 0.02404 0.47429 0.03792 0.0
C817 C 0.03728 0.4906 0.02126 0.0
C818 C 0.09328 0.53766 0.01892 0.0
C819 C 0.12517 0.5631 0.95819 0.0
C820 C 0.10769 0.54832 0.97593 0.0
C821 C 0.0615 0.50139 0.0277 0.0
C822 C 0.0766 0.51825 1.0097 0.0
H823 H 0.15802 0.55505 0.90325 0.0
H824 H 0.12967 0.5326 0.93123 0.0
H825 H 0.12118 0.56648 1.01077 0.0
H826 H 0.06742 0.47517 0.08612 0.0
H827 H 0.09009 0.5027 0.05766 0.0
C828 C 0.78602 0.70114 0.31 0.0
C829 C 0.78456 0.69781 0.33652 0.0
C830 C 0.77091 0.71835 0.29701 0.0
C831 C 0.72724 0.77363 0.30617 0.0
H832 H 0.71044 0.75998 0.23549 0.0
C833 C 0.67629 0.84877 0.24498 0.0
C834 C 0.65994 0.84187 0.22438 0.0
C835 C 0.69097 0.83122 0.25796 0.0
C836 C 0.7146 0.76429 0.25524 0.0
H837 H 0.76542 0.71137 0.36982 0.0
H838 H 0.73899 0.74123 0.34736 0.0
H839 H 0.73532 0.73059 0.25928 0.0
H840 H 0.64723 0.80997 0.20144 0.0
H841 H 0.67266 0.77927 0.22397 0.0
H842 H 0.70587 0.80694 0.30234 0.0
C843 C 0.75217 0.7305 0.33642 0.0
C844 C 0.72947 0.74731 0.26908 0.0
C845 C 0.7675 0.71319 0.34955 0.0
C846 C 0.65957 0.81639 0.21692 0.0
C847 C 0.67432 0.79863 0.23009 0.0
C848 C 0.71236 0.7906 0.29233 0.0
C849 C 0.75324 0.73334 0.30967 0.0
C850 C 0.73642 0.75155 0.29492 0.0
C851 C 0.69019 0.80553 0.25127 0.0
C852 C 0.70576 0.78657 0.26638 0.0
H853 H 0.7991 0.69036 0.29898 0.0
H854 H 0.77343 0.71996 0.27678 0.0
H855 H 0.73185 0.77822 0.32576 0.0
H856 H 0.67776 0.86809 0.25131 0.0
H857 H 0.70317 0.8381 0.27333 0.0
C858 C 0.9141 0.57354 0.46982 0.0
C859 C 0.8911 0.58177 0.48013 0.0
C860 C 0.93073 0.5581 0.48383 0.0
C861 C 0.94311 0.53415 0.55159 0.0
H862 H 0.98955 0.4905 0.5179 0.0
C863 C 1.01535 0.47295 0.61065 0.0
C864 C 0.02259 0.44973 0.60033 0.0
C865 C 1.00072 0.48992 0.59623 0.0
C866 C 0.97663 0.50227 0.528 0.0
H867 H 0.86772 0.5784 0.51348 0.0
H868 H 0.89559 0.55178 0.53701 0.0
H869 H 0.96174 0.51615 0.49292 0.0
H870 H 0.02036 0.42754 0.56554 0.0
H871 H 0.99522 0.45592 0.5414 0.0
H872 H 0.95753 0.51976 0.58666 0.0
C873 C 0.90167 0.55775 0.51851 0.0
C874 C 0.96061 0.51756 0.51334 0.0
C875 C 0.88527 0.57316 0.50468 0.0
C876 C 1.01516 0.44479 0.57478 0.0
C877 C 1.00071 0.46158 0.5605 0.0
C878 C 0.95908 0.51881 0.56625 0.0
C879 C 0.92513 0.55002 0.50879 0.0
C880 C 0.94317 0.53383 0.52465 0.0
C881 C 0.9928 0.48459 0.57073 0.0
C882 C 0.9762 0.50221 0.55492 0.0
H883 H 0.9197 0.5797 0.45121 0.0
H884 H 0.94839 0.55307 0.47516 0.0
H885 H 0.93073 0.54647 0.56171 0.0
H886 H 0.02038 0.47776 0.63011 0.0
H887 H 0.99567 0.50734 0.60523 0.0
C888 C 0.59217 0.46698 0.95081 0.0
C889 C 0.61758 0.4643 0.95903 0.0
C890 C 0.57441 0.48017 0.96587 0.0
C891 C 0.56446 0.50507 0.03342 0.0
H892 H 0.51243 0.54514 1.00339 0.0
C893 C 0.48704 0.55043 0.09676 0.0
C894 C 0.47626 0.57348 0.09063 0.0
C895 C 0.50375 0.53807 0.08035 0.0
C896 C 0.52691 0.53425 1.0123 0.0
H897 H 0.64324 0.47322 0.99051 0.0
H898 H 0.6132 0.49561 1.01601 0.0
H899 H 0.54095 0.52155 0.97613 0.0
H900 H 0.47561 0.60134 0.06145 0.0
H901 H 0.50498 0.57993 0.03276 0.0
H902 H 0.55098 0.51783 0.06944 0.0
C903 C 0.60652 0.48764 0.99808 0.0
C904 C 0.54327 0.52029 0.99647 0.0
C905 C 0.62412 0.47478 0.98311 0.0
C906 C 0.48345 0.58384 0.06721 0.0
C907 C 0.5002 0.57125 0.05052 0.0
C908 C 0.54813 0.51883 0.04914 0.0
C909 C 0.58121 0.49092 0.98992 0.0
C910 C 0.5626 0.5054 1.00664 0.0
C911 C 0.51075 0.54795 0.05669 0.0
C912 C 0.52884 0.53379 0.03911 0.0
H913 H 0.58619 0.45953 0.93243 0.0
H914 H 0.55525 0.48182 0.95861 0.0
H915 H 0.57854 0.49385 0.04255 0.0
H916 H 0.48243 0.54162 0.1145 0.0
H917 H 0.51072 0.52024 0.0862 0.0
C918 C 0.63809 0.72505 0.67612 0.0
C919 C 0.63115 0.69949 0.6781 0.0
C920 C 0.65482 0.73705 0.69378 0.0
C921 C 0.68256 0.73043 0.75924 0.0
H922 H 0.72941 0.78317 0.73841 0.0
C923 C 0.76019 0.771 0.82835 0.0
C924 C 0.76627 0.79684 0.82858 0.0
C925 C 0.74443 0.75987 0.80946 0.0
C926 C 0.71628 0.76869 0.74471 0.0
H927 H 0.63714 0.66675 0.70082 0.0
H928 H 0.6665 0.68738 0.73109 0.0
H929 H 0.70129 0.76221 0.70706 0.0
H930 H 0.76074 0.83093 0.80804 0.0
H931 H 0.73312 0.8115 0.77489 0.0
H932 H 0.69747 0.73684 0.79682 0.0
C933 C 0.65865 0.69836 0.71601 0.0
C934 C 0.70002 0.75657 0.72662 0.0
C935 C 0.64191 0.68633 0.69832 0.0
C936 C 0.75662 0.81103 0.80857 0.0
C937 C 0.74071 0.7998 0.78952 0.0
C938 C 0.69879 0.7425 0.77727 0.0
C939 C 0.66535 0.72401 0.71417 0.0
C940 C 0.68289 0.73711 0.73351 0.0
C941 C 0.734 0.77403 0.78988 0.0
C942 C 0.7161 0.76177 0.77038 0.0
H943 H 0.63067 0.73599 0.66083 0.0
H944 H 0.65909 0.75678 0.69161 0.0
H945 H 0.6694 0.71605 0.76567 0.0
H946 H 0.76769 0.75914 0.84287 0.0
H947 H 0.74053 0.73993 0.81022 0.0
C948 C 0.76718 0.23394 0.29227 0.0
C949 C 0.78015 0.22112 0.31144 0.0
C950 C 0.78034 0.25053 0.27582 0.0
C951 C 0.84716 0.26767 0.25324 0.0
H952 H 0.81538 0.32575 0.22593 0.0
C953 C 0.90482 0.34047 0.19115 0.0
C954 C 0.89182 0.35229 0.17134 0.0
C955 C 0.89156 0.32542 0.20895 0.0
C956 C 0.8247 0.30949 0.23299 0.0
H957 H 0.81749 0.21752 0.3286 0.0
H958 H 0.83981 0.2458 0.30068 0.0
H959 H 0.79162 0.29826 0.25399 0.0
H960 H 0.85402 0.35789 0.15609 0.0
H961 H 0.83155 0.33193 0.18603 0.0
H962 H 0.88017 0.27877 0.23214 0.0
C963 C 0.81962 0.24265 0.29756 0.0
C964 C 0.81085 0.29352 0.24932 0.0
C965 C 0.80658 0.22621 0.31386 0.0
C966 C 0.86508 0.34901 0.17061 0.0
C967 C 0.85194 0.33414 0.18826 0.0
C968 C 0.86099 0.28361 0.23687 0.0
C969 C 0.80699 0.25501 0.27788 0.0
C970 C 0.82172 0.2722 0.25989 0.0
C971 C 0.86475 0.32173 0.20779 0.0
C972 C 0.85012 0.30491 0.22625 0.0
H973 H 0.74696 0.23069 0.28952 0.0
H974 H 0.76959 0.25937 0.26103 0.0
H975 H 0.85645 0.2514 0.2603 0.0
H976 H 0.9253 0.34229 0.19254 0.0
H977 H 0.90246 0.31669 0.2237 0.0
C978 C 0.40519 0.46109 0.42122 0.0
C979 C 0.40252 0.43487 0.42258 0.0
C980 C 0.4183 0.47521 0.44012 0.0
C981 C 0.44383 0.473 0.5068 0.0
H982 H 0.48481 0.53018 0.4859 0.0
C983 C 0.51624 0.52456 0.57527 0.0
C984 C 0.52058 0.55056 0.57334 0.0
C985 C 0.50059 0.51117 0.55777 0.0
C986 C 0.4732 0.51453 0.49225 0.0
H987 H 0.41151 0.40321 0.44568 0.0
H988 H 0.43451 0.42777 0.47867 0.0
H989 H 0.46069 0.50535 0.45434 0.0
H990 H 0.51105 0.58278 0.55129 0.0
H991 H 0.48342 0.55953 0.52086 0.0
H992 H 0.45655 0.48211 0.54471 0.0
C993 C 0.42618 0.4375 0.46295 0.0
C994 C 0.45927 0.50015 0.47402 0.0
C995 C 0.41293 0.42331 0.44396 0.0
C996 C 0.50813 0.56286 0.55356 0.0
C997 C 0.49248 0.54938 0.53589 0.0
C998 C 0.45779 0.48738 0.52504 0.0
C999 C 0.42937 0.46372 0.46121 0.0
C1000 C 0.44432 0.47908 0.48092 0.0
C1001 C 0.48862 0.52323 0.53755 0.0
C1002 C 0.47282 0.50838 0.51811 0.0
H1003 H 0.39704 0.47086 0.40544 0.0
H1004 H 0.41961 0.4953 0.4382 0.0
H1005 H 0.43233 0.45727 0.51313 0.0
H1006 H 0.52518 0.51437 0.59033 0.0
H1007 H 0.49848 0.49114 0.55976 0.0
C1008 C 0.16275 0.04941 0.2376 0.0
C1009 C 0.1709 0.063 0.2165 0.0
C1010 C 0.17936 0.0452 0.25764 0.0
C1011 C 0.21656 0.05247 0.3024 0.0
H1012 H 0.25778 0.99573 0.28649 0.0
C1013 C 0.23493 0.97726 0.37535 0.0
C1014 C 0.21963 0.95706 0.36629 0.0
C1015 C 0.24261 0.99615 0.35879 0.0
C1016 C 0.24729 1.0122 0.29131 0.0
H1017 H 0.20317 0.08309 0.20027 0.0
H1018 H 0.23273 0.07401 0.23493 0.0
H1019 H 0.24355 0.02257 0.25245 0.0
H1020 H 0.20199 0.93931 0.33313 0.0
H1021 H 0.21591 0.97168 0.30417 0.0
H1022 H 0.21786 0.04048 0.34082 0.0
C1023 C 0.21316 0.06736 0.2359 0.0
C1024 C 0.23917 0.02754 0.27187 0.0
C1025 C 0.1963 0.07214 0.21597 0.0
C1026 C 0.21357 0.95494 0.34045 0.0
C1027 C 0.22186 0.97325 0.32388 0.0
C1028 C 0.22494 0.03734 0.32188 0.0
C1029 C 0.20465 0.05403 0.25691 0.0
C1030 C 0.2221 0.04646 0.27713 0.0
C1031 C 0.23584 0.99435 0.33297 0.0
C1032 C 0.2385 1.01587 0.31609 0.0
H1033 H 0.14363 0.04152 0.2385 0.0
H1034 H 0.17265 0.03425 0.27344 0.0
H1035 H 0.20335 0.06701 0.30675 0.0
H1036 H 0.23977 0.97907 0.39532 0.0
H1037 H 0.25302 1.01248 0.3662 0.0
C1038 C 0.22036 0.87225 0.49777 0.0
C1039 C 0.22251 0.86943 0.47139 0.0
C1040 C 0.24139 0.8687 0.51363 0.0
C1041 C 0.29246 0.88612 0.53464 0.0
H1042 H 0.34841 0.84224 0.52224 0.0
C1043 C 0.39405 0.91813 0.55652 0.0
C1044 C 0.40921 0.90237 0.57087 0.0
C1045 C 0.37103 0.90932 0.54606 0.0
C1046 C 0.33284 0.85443 0.52611 0.0
H1047 H 0.2474 0.85782 0.4412 0.0
H1048 H 0.28394 0.85201 0.46866 0.0
H1049 H 0.30657 0.8323 0.50311 0.0
H1050 H 0.41281 0.86452 0.58423 0.0
H1051 H 0.37242 0.84899 0.56549 0.0
H1052 H 0.31873 0.9086 0.55696 0.0
C1053 C 0.26618 0.85694 0.47726 0.0
C1054 C 0.30895 0.84882 0.51512 0.0
C1055 C 0.24522 0.86049 0.46145 0.0
C1056 C 0.40157 0.87712 0.57322 0.0
C1057 C 0.37844 0.86823 0.56258 0.0
C1058 C 0.31625 0.89175 0.54545 0.0
C1059 C 0.26488 0.86223 0.50337 0.0
C1060 C 0.28868 0.86501 0.51871 0.0
C1061 C 0.36261 0.88452 0.54962 0.0
C1062 C 0.33686 0.87642 0.54065 0.0
H1063 H 0.20306 0.87891 0.50605 0.0
H1064 H 0.23966 0.87244 0.53376 0.0
H1065 H 0.27745 0.89919 0.5376 0.0
H1066 H 0.39948 0.93761 0.55413 0.0
H1067 H 0.35946 0.92213 0.53562 0.0
C1068 C 0.48756 0.02101 0.71058 0.0
C1069 C 0.48891 0.99495 0.71287 0.0
C1070 C 0.48396 0.03621 0.73195 0.0
C1071 C 0.48115 0.06559 0.78207 0.0
H1072 H 0.42651 0.03775 0.82242 0.0
C1073 C 0.43453 0.1165 0.86815 0.0
C1074 C 0.40782 0.11565 0.86726 0.0
C1075 C 0.44838 0.10237 0.85085 0.0
C1076 C 0.44187 0.04573 0.81141 0.0
H1077 H 0.48944 0.96472 0.73977 0.0
H1078 H 0.48383 0.99126 0.77696 0.0
H1079 H 0.44567 1.01197 0.79 0.0
H1080 H 0.37477 0.09977 0.8471 0.0
H1081 H 0.39883 0.07523 0.81732 0.0
H1082 H 0.47642 0.09975 0.80316 0.0
C1083 C 0.48509 0.99989 0.75857 0.0
C1084 C 0.45307 0.03089 0.79301 0.0
C1085 C 0.4886 0.9847 0.73723 0.0
C1086 C 0.39531 0.10082 0.84846 0.0
C1087 C 0.40907 0.08661 0.83144 0.0
C1088 C 0.46999 0.08045 0.80071 0.0
C1089 C 0.48167 0.02565 0.75606 0.0
C1090 C 0.47248 0.04075 0.77775 0.0
C1091 C 0.4357 0.08698 0.83264 0.0
C1092 C 0.4498 0.0708 0.81506 0.0
H1093 H 0.48818 0.02956 0.69213 0.0
H1094 H 0.48136 0.05599 0.72934 0.0
H1095 H 0.49617 0.07365 0.7707 0.0
H1096 H 0.44472 0.12781 0.88236 0.0
H1097 H 0.46892 0.10297 0.85213 0.0
C1098 C 0.27548 0.0875 0.92575 0.0
C1099 C 0.27941 0.11357 0.92686 0.0
C1100 C 0.25418 0.07639 0.93696 0.0
C1101 C 0.19093 0.08882 0.96208 0.0
H1102 H 0.20879 0.04444 1.01642 0.0
C1103 C 0.14604 0.0436 0.05943 0.0
C1104 C 0.13608 0.06587 0.06894 0.0
C1105 C 0.15944 0.04354 0.03665 0.0
C1106 C 0.20323 0.05618 1.00091 0.0
H1107 H 0.26366 0.14857 0.9392 0.0
H1108 H 0.22623 0.12923 0.9584 0.0
H1109 H 0.24022 0.05543 0.98462 0.0
H1110 H 0.13145 0.10528 0.06154 0.0
H1111 H 0.15484 0.10523 0.02252 0.0
H1112 H 0.15432 0.09045 0.9789 0.0
C1113 C 0.23961 0.11737 0.94896 0.0
C1114 C 0.22126 0.06252 0.98274 0.0
C1115 C 0.2611 0.12843 0.93816 0.0
C1116 C 0.13902 0.0878 0.0549 0.0
C1117 C 0.15217 0.08771 0.03225 0.0
C1118 C 0.17285 0.0823 0.98006 0.0
C1119 C 0.23627 0.09124 0.94897 0.0
C1120 C 0.2156 0.07984 0.96394 0.0
C1121 C 0.16279 0.0657 0.02296 0.0
C1122 C 0.17926 0.06699 1.00043 0.0
H1123 H 0.28938 0.07561 0.91718 0.0
H1124 H 0.25198 0.05621 0.93678 0.0
H1125 H 0.18606 0.10193 0.94751 0.0
H1126 H 0.14396 0.02639 0.06979 0.0
H1127 H 0.16742 0.0263 0.0299 0.0
C1128 C 0.03379 0.15153 0.11774 0.0
C1129 C 0.04686 0.14368 0.13935 0.0
C1130 C 0.02265 0.17475 0.11766 0.0
C1131 C 1.00612 0.23029 0.15562 0.0
H1132 H 0.03194 0.26528 0.09703 0.0
C1133 C 1.00138 0.33756 0.14516 0.0
C1134 C 0.99336 0.34561 0.12124 0.0
C1135 C 1.00734 0.31259 0.1487 0.0
C1136 C 0.02435 0.25575 0.11336 0.0
H1137 H 0.05636 0.1525 0.17864 0.0
H1138 H 0.03709 0.19345 0.17841 0.0
H1139 H 0.03923 0.22103 0.10126 0.0
H1140 H 0.9858 0.33411 0.08218 0.0
H1141 H 0.99602 0.29077 0.08833 0.0
H1142 H 0.99123 0.2653 0.16763 0.0
C1143 C 0.03534 0.18161 0.1616 0.0
C1144 C 0.02842 0.23037 0.11573 0.0
C1145 C 0.04634 0.15819 0.16173 0.0
C1146 C 0.99207 0.3285 0.10081 0.0
C1147 C 0.99799 0.30365 0.10433 0.0
C1148 C 1.0019 0.25581 0.15317 0.0
C1149 C 0.02466 0.19059 0.13912 0.0
C1150 C 1.01918 0.21733 0.13674 0.0
C1151 C 1.00544 0.29536 0.12834 0.0
C1152 C 1.01085 0.2687 0.13189 0.0
H1153 H 0.03366 0.14048 0.10034 0.0
H1154 H 1.01395 0.18103 0.10027 0.0
H1155 H 0.99893 0.22065 0.17205 0.0
H1156 H 1.0024 0.35036 0.16128 0.0
H1157 H 1.01332 0.30676 0.16734 0.0
C1158 C 0.59885 0.30465 0.93742 0.0
C1159 C 0.6036 0.32957 0.94513 0.0
C1160 C 0.57628 0.29225 0.94399 0.0
C1161 C 0.51076 0.30745 0.95451 0.0
H1162 H 0.50257 0.23631 0.96562 0.0
C1163 C 0.4276 0.22416 0.95895 0.0
C1164 C 0.41445 0.22883 0.93622 0.0
C1165 C 0.44942 0.23821 0.96579 0.0
C1166 C 0.50446 0.25628 0.96292 0.0
H1167 H 0.58947 0.36057 0.96713 0.0
H1168 H 0.54988 0.33881 0.97872 0.0
H1169 H 0.54461 0.25641 0.96976 0.0
H1170 H 0.41322 0.25273 0.90351 0.0
H1171 H 0.45157 0.27714 0.91532 0.0
H1172 H 0.47072 0.30716 0.94686 0.0
C1173 C 0.56358 0.32893 0.96752 0.0
C1174 C 0.52856 0.26773 0.96513 0.0
C1175 C 0.58631 0.34128 0.96113 0.0
C1176 C 0.42305 0.24855 0.92101 0.0
C1177 C 0.44486 0.26268 0.92792 0.0
C1178 C 0.48667 0.29596 0.95215 0.0
C1179 C 0.55795 0.30462 0.95821 0.0
C1180 C 0.53206 0.29331 0.96033 0.0
C1181 C 0.45858 0.25728 0.95011 0.0
C1182 C 0.48337 0.27015 0.95573 0.0
H1183 H 0.61193 0.29527 0.92506 0.0
H1184 H 0.57245 0.27359 0.93637 0.0
H1185 H 0.51288 0.32715 0.95042 0.0
H1186 H 0.42168 0.20892 0.97097 0.0
H1187 H 0.45946 0.23377 0.9831 0.0
C1188 C 0.91239 0.7493 0.39379 0.0
C1189 C 0.90431 0.73692 0.41568 0.0
C1190 C 0.93121 0.76806 0.39525 0.0
C1191 C 0.98243 0.79192 0.43988 0.0
H1192 H 0.99721 0.83262 0.38173 0.0
C1193 C 0.08314 0.83222 0.42571 0.0
C1194 C 0.08744 0.85266 0.40976 0.0
C1195 C 0.05888 0.82144 0.42808 0.0
C1196 C 0.99344 0.82202 0.39859 0.0
H1197 H 0.90803 0.73694 0.45679 0.0
H1198 H 0.93833 0.77147 0.45955 0.0
H1199 H 0.95643 0.81216 0.3847 0.0
H1200 H 0.06863 0.87721 0.38334 0.0
H1201 H 0.02667 0.86104 0.39025 0.0
H1202 H 1.01832 0.80398 0.45513 0.0
C1203 C 0.93172 0.76536 0.44092 0.0
C1204 C 0.96993 0.80954 0.39995 0.0
C1205 C 0.91368 0.74575 0.43936 0.0
C1206 C 0.06651 0.86209 0.39653 0.0
C1207 C 0.04209 0.85217 0.39995 0.0
C1208 C 1.00542 0.80545 0.43917 0.0
C1209 C 0.94173 0.77598 0.41881 0.0
C1210 C 0.96452 0.79326 0.41996 0.0
C1211 C 0.03782 0.83146 0.41554 0.0
C1212 C 1.01184 0.81981 0.41795 0.0
H1213 H 0.90488 0.74402 0.37522 0.0
H1214 H 0.93816 0.77533 0.37757 0.0
H1215 H 0.97945 0.77967 0.4557 0.0
H1216 H 0.09836 0.82446 0.43671 0.0
H1217 H 0.05695 0.80507 0.43969 0.0
C1218 C 0.49381 0.65085 0.65001 0.0
C1219 C 0.51777 0.64874 0.66148 0.0
C1220 C 0.48056 0.67289 0.65275 0.0
C1221 C 0.48423 0.73776 0.68048 0.0
H1222 H 0.47249 0.75562 0.61041 0.0
C1223 C 0.49483 0.83888 0.64702 0.0
C1224 C 0.47754 0.84748 0.62892 0.0
C1225 C 0.49479 0.81371 0.65338 0.0
C1226 C 0.47517 0.75096 0.63014 0.0
H1227 H 0.54507 0.66615 0.68766 0.0
H1228 H 0.52226 0.70471 0.69232 0.0
H1229 H 0.47779 0.71223 0.621 0.0
H1230 H 0.4469 0.83647 0.60298 0.0
H1231 H 0.44686 0.79227 0.61399 0.0
H1232 H 0.48258 0.77685 0.68931 0.0
C1233 C 0.51339 0.6895 0.68134 0.0
C1234 C 0.47808 0.72596 0.6363 0.0
C1235 C 0.52642 0.66723 0.67891 0.0
C1236 C 0.46064 0.83028 0.61676 0.0
C1237 C 0.46055 0.80502 0.62318 0.0
C1238 C 0.48128 0.76282 0.67429 0.0
C1239 C 0.49138 0.69325 0.66664 0.0
C1240 C 0.4833 0.71908 0.66145 0.0
C1241 C 0.47739 0.79652 0.64186 0.0
C1242 C 0.47744 0.76976 0.64893 0.0
H1243 H 0.48685 0.63682 0.63639 0.0
H1244 H 0.46323 0.67493 0.6418 0.0
H1245 H 0.48799 0.73308 0.70003 0.0
H1246 H 0.50805 0.85175 0.65675 0.0
H1247 H 0.50844 0.80772 0.66737 0.0
C1248 C 0.91964 0.04131 0.70247 0.0
C1249 C 0.91474 0.06411 0.71475 0.0
C1250 C 0.91515 0.01874 0.71454 0.0
C1251 C 0.87798 0.99134 0.76639 0.0
H1252 H 0.92074 0.93477 0.75435 0.0
C1253 C 0.8513 0.89571 0.80672 0.0
C1254 C 0.87125 0.88401 0.81929 0.0
C1255 C 0.85644 0.91549 0.79044 0.0
C1256 C 0.90863 0.95039 0.75797 0.0
H1257 H 0.90251 0.08122 0.74985 0.0
H1258 H 0.89542 0.04159 0.77147 0.0
H1259 H 0.93199 0.97493 0.73613 0.0
H1260 H 0.91226 0.88221 0.82272 0.0
H1261 H 0.92114 0.91679 0.79492 0.0
H1262 H 0.85531 0.96712 0.78924 0.0
C1263 C 0.90207 0.04123 0.75214 0.0
C1264 C 0.91496 0.97339 0.74735 0.0
C1265 C 0.90642 0.06393 0.73992 0.0
C1266 C 0.89641 0.89095 0.8135 0.0
C1267 C 0.90154 0.91079 0.79741 0.0
C1268 C 0.87179 0.9684 0.77723 0.0
C1269 C 0.90596 1.01837 0.73939 0.0
C1270 C 0.89972 0.99415 0.75144 0.0
C1271 C 0.8816 0.92394 0.78651 0.0
C1272 C 0.88708 0.94766 0.77321 0.0
H1273 H 0.92654 0.04085 0.68322 0.0
H1274 H 0.91816 1.00157 0.70404 0.0
H1275 H 0.86559 1.00682 0.76958 0.0
H1276 H 0.83169 0.89064 0.8106 0.0
H1277 H 0.84067 0.92483 0.78178 0.0
C1278 C 0.86768 0.18491 0.60144 0.0
C1279 C 0.89395 0.18444 0.59758 0.0
C1280 C 0.85127 0.19058 0.58163 0.0
C1281 C 0.84649 0.18103 0.5143 0.0
H1282 H 0.78454 0.21781 0.52075 0.0
C1283 C 0.76967 0.17818 0.43564 0.0
C1284 C 0.74422 0.17676 0.44334 0.0
C1285 C 0.78918 0.1831 0.45327 0.0
C1286 C 0.80166 0.20731 0.51872 0.0
H1287 H 0.92399 0.19073 0.57061 0.0
H1288 H 0.89501 0.20023 0.53542 0.0
H1289 H 0.81739 0.22197 0.55374 0.0
H1290 H 0.71931 0.17913 0.4756 0.0
H1291 H 0.7535 0.18687 0.50662 0.0
H1292 H 0.83042 0.1653 0.48008 0.0
C1293 C 0.88723 0.1964 0.55391 0.0
C1294 C 0.82054 0.2099 0.53748 0.0
C1295 C 0.90377 0.19114 0.57398 0.0
C1296 C 0.73872 0.18015 0.4691 0.0
C1297 C 0.75831 0.18484 0.48681 0.0
C1298 C 0.82754 0.17827 0.49567 0.0
C1299 C 0.86079 0.19549 0.55745 0.0
C1300 C 0.84289 0.19639 0.53569 0.0
C1301 C 0.78378 0.18646 0.47908 0.0
C1302 C 0.80468 0.19098 0.49791 0.0
H1303 H 0.85973 0.17987 0.61957 0.0
H1304 H 0.831 0.1895 0.58487 0.0
H1305 H 0.86334 0.17005 0.51266 0.0
H1306 H 0.77458 0.17594 0.41588 0.0
H1307 H 0.8085 0.18457 0.44657 0.0
C1308 C 0.68499 0.12379 0.29665 0.0
C1309 C 0.69372 0.11739 0.32087 0.0
C1310 C 0.6746 0.10549 0.28017 0.0
C1311 C 0.66624 0.05923 0.2457 0.0
H1312 H 0.60976 0.01957 0.27154 0.0
C1313 C 0.60742 0.99466 0.17881 0.0
C1314 C 0.60078 0.97084 0.1878 0.0
C1315 C 0.6165 1.01347 0.19547 0.0
C1316 C 0.62568 0.03023 0.26407 0.0
H1317 H 0.69894 0.08697 0.3468 0.0
H1318 H 0.68019 0.05486 0.31798 0.0
H1319 H 0.63296 0.04906 0.29972 0.0
H1320 H 0.59616 0.94891 0.2217 0.0
H1321 H 0.61313 0.9811 0.25053 0.0
H1322 H 0.65975 0.04009 0.21035 0.0
C1323 C 0.68164 0.07403 0.31179 0.0
C1324 C 0.63893 0.04709 0.28023 0.0
C1325 C 0.69254 0.09229 0.32812 0.0
C1326 C 0.60164 0.96682 0.21403 0.0
C1327 C 0.61116 0.98547 0.23066 0.0
C1328 C 0.6533 0.0421 0.22965 0.0
C1329 C 0.67232 0.08058 0.28782 0.0
C1330 C 0.65922 0.06179 0.27112 0.0
C1331 C 0.6195 1.00878 0.22147 0.0
C1332 C 0.63273 0.02747 0.23856 0.0
H1333 H 0.68567 0.14304 0.29065 0.0
H1334 H 0.66743 0.11098 0.26182 0.0
H1335 H 0.68194 0.0703 0.23832 0.0
H1336 H 0.60654 0.99856 0.15874 0.0
H1337 H 0.62187 0.03147 0.1878 0.0
C1338 C 0.7074 0.92981 0.09899 0.0
C1339 C 0.6828 0.93886 0.09741 0.0
C1340 C 0.72451 0.93443 0.07951 0.0
C1341 C 0.71923 0.9422 1.01131 0.0
H1342 H 0.79219 0.93566 1.01564 0.0
C1343 C 0.77866 0.90888 0.92638 0.0
C1344 C 0.79375 0.88863 0.93263 0.0
C1345 C 0.76747 0.92305 0.9455 0.0
C1346 C 0.77184 0.93774 1.01413 0.0
H1347 H 0.65743 0.96207 0.07632 0.0
H1348 H 0.68761 0.97101 0.04266 0.0
H1349 H 0.7691 0.9495 0.05293 0.0
H1350 H 0.80913 0.86744 0.96369 0.0
H1351 H 0.78953 0.89194 0.99681 0.0
H1352 H 0.72185 0.92937 0.97287 0.0
C1353 C 0.69356 0.95974 0.0584 0.0
C1354 C 0.75864 0.94563 0.03544 0.0
C1355 C 0.67636 0.95481 0.07769 0.0
C1356 C 0.79747 0.88283 0.95824 0.0
C1357 C 0.78656 0.89709 0.97725 0.0
C1358 C 0.73246 0.93451 0.98999 0.0
C1359 C 0.71724 0.94833 0.0583 0.0
C1360 C 0.73203 0.94676 0.0346 0.0
C1361 C 0.77152 0.91736 0.97111 0.0
C1362 C 0.75869 0.93106 0.99157 0.0
H1363 H 0.7126 0.91734 0.11403 0.0
H1364 H 0.74249 0.92519 0.08004 0.0
H1365 H 0.69873 0.94256 1.00995 0.0
H1366 H 0.77566 0.91388 0.90679 0.0
H1367 H 0.75582 0.93853 0.9403 0.0
C1368 C 0.09421 0.71218 0.85671 0.0
C1369 C 0.10289 0.68944 0.86572 0.0
C1370 C 0.06865 0.71789 0.85875 0.0
C1371 C 1.01046 0.71674 0.85381 0.0
H1372 H 0.98399 0.71933 0.92209 0.0
C1373 C 0.91058 0.75147 0.87469 0.0
C1374 C 0.91157 0.77263 0.89091 0.0
C1375 C 0.93143 0.7361 0.87274 0.0
C1376 C 0.99106 0.71834 0.90292 0.0
H1377 H 0.09205 0.6548 0.88388 0.0
H1378 H 0.04723 0.66517 0.88811 0.0
H1379 H 0.02593 0.70217 0.91467 0.0
H1380 H 0.93492 0.79326 0.91883 0.0
H1381 H 0.97079 0.76592 0.91599 0.0
H1382 H 0.97593 0.73344 0.84211 0.0
C1383 C 0.06016 0.67831 0.87914 0.0
C1384 C 1.01491 0.70849 0.89867 0.0
C1385 C 0.08564 0.67238 0.87663 0.0
C1386 C 0.93325 0.77702 0.90638 0.0
C1387 C 0.95389 0.7614 0.90472 0.0
C1388 C 0.98645 0.72615 0.85799 0.0
C1389 C 0.05152 0.70114 0.87028 0.0
C1390 C 0.02504 0.70826 0.87419 0.0
C1391 C 0.95343 0.74129 0.88735 0.0
C1392 C 0.97685 0.72762 0.88266 0.0
H1393 H 0.10724 0.72556 0.84824 0.0
H1394 H 0.0624 0.73572 0.85202 0.0
H1395 H 1.01794 0.71664 0.83478 0.0
H1396 H 0.89397 0.7471 0.86299 0.0
H1397 H 0.93063 0.72052 0.85937 0.0
C1398 C 0.51324 0.63966 0.18296 0.0
C1399 C 0.48856 0.64214 0.1921 0.0
C1400 C 0.53154 0.65864 0.18783 0.0
C1401 C 0.54156 0.72224 0.21767 0.0
H1402 H 0.55588 0.74039 0.14837 0.0
C1403 C 0.54964 0.82476 0.18566 0.0
C1404 C 0.56751 0.83071 0.16704 0.0
C1405 C 0.54515 0.79986 0.19241 0.0
C1406 C 0.55261 0.7356 0.16794 0.0
H1407 H 0.4647 0.66357 0.21688 0.0
H1408 H 0.49636 0.6965 0.22536 0.0
H1409 H 0.5434 0.69781 0.1576 0.0
H1410 H 0.59477 0.8153 0.14097 0.0
H1411 H 0.58732 0.77235 0.15296 0.0
H1412 H 0.54986 0.7606 0.22767 0.0
C1413 C 0.50186 0.68034 0.21436 0.0
C1414 C 0.54561 0.71101 0.1733 0.0
C1415 C 0.48362 0.66148 0.20943 0.0
C1416 C 0.5806 0.81136 0.15516 0.0
C1417 C 0.57635 0.78665 0.16206 0.0
C1418 C 0.54873 0.74694 0.2123 0.0
C1419 C 0.52522 0.68013 0.20185 0.0
C1420 C 0.53918 0.70419 0.19806 0.0
C1421 C 0.55862 0.78055 0.18077 0.0
C1422 C 0.55357 0.75401 0.18723 0.0
H1423 H 0.51749 0.62482 0.16962 0.0
H1424 H 0.54965 0.65778 0.1784 0.0
H1425 H 0.53681 0.71751 0.23695 0.0
H1426 H 0.53944 0.83932 0.19528 0.0
H1427 H 0.53103 0.79572 0.20659 0.0
C1428 C 0.02074 0.17868 0.67726 0.0
C1429 C 1.00343 0.16224 0.68878 0.0
C1430 C 0.03132 0.19901 0.69095 0.0
C1431 C 0.05151 0.24129 0.72643 0.0
H1432 H 0.99082 0.2796 0.73543 0.0
C1433 C 0.05723 0.34749 0.72587 0.0
C1434 C 0.04574 0.35417 0.70292 0.0
C1435 C 0.0511 0.32443 0.73665 0.0
C1436 C 1.00797 0.26906 0.73382 0.0
H1437 H 0.98498 0.15269 0.72389 0.0
H1438 H 1.00276 0.18894 0.74766 0.0
H1439 H 0.98729 0.23408 0.73191 0.0
H1440 H 1.01769 0.34351 0.67423 0.0
H1441 H 1.00589 0.30385 0.69372 0.0
H1442 H 0.07195 0.27642 0.72644 0.0
C1443 C 1.0087 0.18571 0.72833 0.0
C1444 C 1.00601 0.24303 0.73191 0.0
C1445 C 0.9987 0.16494 0.71479 0.0
C1446 C 0.0263 0.33887 0.69224 0.0
C1447 C 0.01966 0.3162 0.70338 0.0
C1448 C 0.05353 0.26728 0.72886 0.0
C1449 C 0.02406 0.20354 0.71611 0.0
C1450 C 0.02759 0.22909 0.72679 0.0
C1451 C 0.03298 0.3082 0.72487 0.0
C1452 C 0.0316 0.28142 0.73113 0.0
H1453 H 0.0242 0.17715 0.65709 0.0
H1454 H 0.04287 0.21266 0.681 0.0
H1455 H 0.06835 0.2309 0.72233 0.0
H1456 H 0.07276 0.35881 0.734 0.0
H1457 H 0.06175 0.31853 0.75307 0.0
C1458 C 0.481 0.34446 0.36234 0.0
C1459 C 0.46485 0.33059 0.37823 0.0
C1460 C 0.50732 0.34345 0.36507 0.0
C1461 C 0.55876 0.32689 0.40905 0.0
H1462 H 0.59445 0.30955 0.3478 0.0
C1463 C 0.64928 0.27112 0.4083 0.0
C1464 C 0.66432 0.27128 0.3866 0.0
C1465 C 0.62885 0.28701 0.41021 0.0
C1466 C 0.58517 0.31515 0.36508 0.0
H1467 H 0.46385 0.30494 0.40965 0.0
H1468 H 0.50989 0.30336 0.41449 0.0
H1469 H 0.55016 0.31999 0.34515 0.0
H1470 H 0.67211 0.28985 0.35136 0.0
H1471 H 0.63741 0.31882 0.3553 0.0
H1472 H 0.59371 0.32159 0.42908 0.0
C1473 C 0.50206 0.31519 0.40009 0.0
C1474 C 0.5596 0.32096 0.36351 0.0
C1475 C 0.4757 0.31602 0.39723 0.0
C1476 C 0.66066 0.2895 0.36827 0.0
C1477 C 0.64057 0.30579 0.37041 0.0
C1478 C 0.58451 0.32138 0.41062 0.0
C1479 C 0.5181 0.32875 0.38391 0.0
C1480 C 0.54595 0.32611 0.38553 0.0
C1481 C 0.62336 0.30352 0.39051 0.0
C1482 C 0.59783 0.31461 0.38872 0.0
H1483 H 0.47333 0.3564 0.34795 0.0
H1484 H 0.51928 0.35423 0.35247 0.0
H1485 H 0.5487 0.33119 0.42629 0.0
H1486 H 0.65167 0.25696 0.42251 0.0
H1487 H 0.61608 0.28456 0.42594 0.0
C1488 C 0.62858 0.44965 0.83257 0.0
C1489 C 0.65405 0.44902 0.84069 0.0
C1490 C 0.621 0.46725 0.81497 0.0
C1491 C 0.64605 0.50646 0.76442 0.0
H1492 H 0.58605 0.54552 0.77453 0.0
C1493 C 0.62622 0.5876 0.69995 0.0
C1494 C 0.60141 0.58938 0.6904 0.0
C1495 C 0.63127 0.57215 0.72022 0.0
C1496 C 0.6027 0.53458 0.77135 0.0
H1497 H 0.69156 0.46623 0.83683 0.0
H1498 H 0.67838 0.49679 0.80599 0.0
H1499 H 0.59749 0.5142 0.80566 0.0
H1500 H 0.56211 0.57765 0.69528 0.0
H1501 H 0.57101 0.54993 0.73063 0.0
H1502 H 0.65123 0.52631 0.7301 0.0
C1503 C 0.66429 0.48365 0.81315 0.0
C1504 C 0.60923 0.51668 0.78913 0.0
C1505 C 0.67182 0.46621 0.83086 0.0
C1506 C 0.58141 0.57657 0.7024 0.0
C1507 C 0.58652 0.56075 0.7226 0.0
C1508 C 0.63948 0.52415 0.74666 0.0
C1509 C 0.63883 0.48435 0.80504 0.0
C1510 C 0.63114 0.50267 0.78593 0.0
C1511 C 0.61166 0.55779 0.73114 0.0
C1512 C 0.61794 0.53866 0.75005 0.0
H1513 H 0.61446 0.43666 0.83992 0.0
H1514 H 0.6013 0.46726 0.80887 0.0
H1515 H 0.66274 0.49556 0.76121 0.0
H1516 H 0.64192 0.59764 0.69126 0.0
H1517 H 0.65072 0.57089 0.72685 0.0
C1518 C 0.74201 0.41346 0.94923 0.0
C1519 C 0.739 0.38982 0.93745 0.0
C1520 C 0.76384 0.41979 0.96334 0.0
C1521 C 0.81876 0.39256 0.99591 0.0
H1522 H 0.84663 0.46036 0.9926 0.0
C1523 C 0.9144 0.41934 0.0417 0.0
C1524 C 0.9145 0.43983 0.05871 0.0
C1525 C 0.89424 0.41495 0.02479 0.0
C1526 C 0.83894 0.44143 0.99378 0.0
H1527 H 0.75632 0.35409 0.93144 0.0
H1528 H 0.79499 0.3653 0.95574 0.0
H1529 H 0.80892 0.44822 0.96739 0.0
H1530 H 0.89447 0.47286 0.07004 0.0
H1531 H 0.85898 0.46524 0.04003 0.0
H1532 H 0.84901 0.38574 0.02203 0.0
C1533 C 0.7802 0.37884 0.95439 0.0
C1534 C 0.81732 0.43444 0.97943 0.0
C1535 C 0.75811 0.3724 0.94044 0.0
C1536 C 0.8949 0.45696 0.05712 0.0
C1537 C 0.87461 0.45256 0.04003 0.0
C1538 C 0.84048 0.39948 1.01002 0.0
C1539 C 0.78339 0.40273 0.96584 0.0
C1540 C 0.80687 0.40994 0.98044 0.0
C1541 C 0.87371 0.43098 0.0244 0.0
C1542 C 0.85077 0.42397 1.00912 0.0
H1543 H 0.72741 0.42716 0.94762 0.0
H1544 H 0.76527 0.43806 0.97242 0.0
H1545 H 0.81101 0.37371 0.99755 0.0
H1546 H 0.92944 0.40598 0.04219 0.0
H1547 H 0.8943 0.3985 1.01256 0.0
C1548 C 0.92958 0.48311 0.21496 0.0
C1549 C 0.94771 0.4884 0.19638 0.0
C1550 C 0.92758 0.49882 0.23614 0.0
C1551 C 0.9391 0.56276 0.25834 0.0
H1552 H 0.93212 0.53407 0.32505 0.0
C1553 C 0.92173 0.59581 0.36897 0.0
C1554 C 0.89937 0.6089 0.36509 0.0
C1555 C 0.93261 0.58288 0.34876 0.0
C1556 C 0.93449 0.54237 0.30661 0.0
H1557 H 0.97756 0.51443 0.18499 0.0
H1558 H 0.97374 0.54221 0.22197 0.0
H1559 H 0.941 0.50704 0.28861 0.0
H1560 H 0.8717 0.62013 0.33707 0.0
H1561 H 0.89078 0.59793 0.30192 0.0
H1562 H 0.9316 0.59794 0.27618 0.0
C1563 C 0.96127 0.52581 0.22018 0.0
C1564 C 0.93927 0.52691 0.28577 0.0
C1565 C 0.96348 0.50993 0.19912 0.0
C1566 C 0.88875 0.60987 0.34062 0.0
C1567 C 0.89982 0.59741 0.32045 0.0
C1568 C 0.93404 0.57818 0.27913 0.0
C1569 C 0.94349 0.52023 0.239 0.0
C1570 C 0.94105 0.5369 0.26138 0.0
C1571 C 0.92156 0.58344 0.32439 0.0
C1572 C 0.93113 0.56802 0.30333 0.0
H1573 H 0.91739 0.46649 0.21343 0.0
H1574 H 0.91346 0.49431 0.25024 0.0
H1575 H 0.94035 0.5709 0.23972 0.0
H1576 H 0.93022 0.59483 0.38772 0.0
H1577 H 0.94941 0.5722 0.3522 0.0
C1578 C 0.59279 0.62136 0.49782 0.0
C1579 C 0.60042 0.64177 0.51341 0.0
C1580 C 0.60419 0.61777 0.47433 0.0
C1581 C 0.65111 0.64554 0.43 0.0
H1582 H 0.68827 0.58561 0.44333 0.0
C1583 C 0.75673 0.64591 0.43311 0.0
C1584 C 0.77059 0.62606 0.42335 0.0
C1585 C 0.73037 0.64451 0.43308 0.0
C1586 C 0.67771 0.60198 0.4386 0.0
H1587 H 0.62356 0.67573 0.51617 0.0
H1588 H 0.64324 0.66985 0.47511 0.0
H1589 H 0.64658 0.59056 0.4616 0.0
H1590 H 0.76778 0.58892 0.40631 0.0
H1591 H 0.72118 0.58611 0.40724 0.0
H1592 H 0.68344 0.65794 0.40902 0.0
C1593 C 0.62853 0.65657 0.48071 0.0
C1594 C 0.65373 0.60482 0.449 0.0
C1595 C 0.61748 0.6599 0.5043 0.0
C1596 C 0.75753 0.60443 0.41411 0.0
C1597 C 0.73096 0.60291 0.41437 0.0
C1598 C 0.67504 0.64268 0.41957 0.0
C1599 C 0.62305 0.63477 0.46615 0.0
C1600 C 0.64123 0.6275 0.44648 0.0
C1601 C 0.7172 0.62316 0.42347 0.0
C1602 C 0.68929 0.62176 0.42553 0.0
H1603 H 0.57967 0.60713 0.50471 0.0
H1604 H 0.59971 0.60083 0.46348 0.0
H1605 H 0.64162 0.66301 0.42746 0.0
H1606 H 0.76619 0.66286 0.4403 0.0
H1607 H 0.72026 0.66009 0.44097 0.0
C1608 C 0.34333 0.55305 0.21183 0.0
C1609 C 0.35315 0.57597 0.22158 0.0
C1610 C 0.32943 0.53687 0.22711 0.0
C1611 C 0.32403 0.51935 0.29305 0.0
H1612 H 0.27255 0.47354 0.26432 0.0
C1613 C 0.30501 0.4259 0.33926 0.0
C1614 C 0.31119 0.40693 0.32188 0.0
C1615 C 0.29889 0.44955 0.33062 0.0
C1616 C 0.28657 0.48642 0.2728 0.0
H1617 H 0.35544 0.6002 0.25491 0.0
H1618 H 0.33129 0.57157 0.28191 0.0
H1619 H 0.28403 0.51175 0.24201 0.0
H1620 H 0.31294 0.3967 0.28209 0.0
H1621 H 0.30194 0.43768 0.267 0.0
H1622 H 0.32765 0.49337 0.32306 0.0
C1623 C 0.33444 0.56622 0.26234 0.0
C1624 C 0.29326 0.50821 0.26 0.0
C1625 C 0.34838 0.58252 0.24695 0.0
C1626 C 0.30841 0.41108 0.29585 0.0
C1627 C 0.30193 0.43454 0.28723 0.0
C1628 C 0.31723 0.49764 0.30592 0.0
C1629 C 0.32501 0.5431 0.25261 0.0
C1630 C 0.31308 0.52415 0.26928 0.0
C1631 C 0.29846 0.45436 0.30452 0.0
C1632 C 0.29945 0.48031 0.29521 0.0
H1633 H 0.34707 0.54718 0.19253 0.0
H1634 H 0.32311 0.51894 0.21916 0.0
H1635 H 0.33941 0.53116 0.3007 0.0
H1636 H 0.30704 0.42318 0.35947 0.0
H1637 H 0.29613 0.46447 0.34433 0.0
C1638 C 0.28764 0.65702 0.92103 0.0
C1639 C 0.26484 0.66988 0.92212 0.0
C1640 C 0.30628 0.66083 0.93986 0.0
C1641 C 0.31362 0.68229 1.00619 0.0
H1642 H 0.38557 0.68047 0.99179 0.0
C1643 C 0.38513 0.68772 0.08744 0.0
C1644 C 0.40211 0.66813 0.0872 0.0
C1645 C 0.3721 0.69381 0.06533 0.0
C1646 C 0.36555 0.68109 0.99605 0.0
H1647 H 0.24391 0.69735 0.94328 0.0
H1648 H 0.27657 0.7043 0.97594 0.0
H1649 H 0.35462 0.67938 0.9568 0.0
H1650 H 0.42003 0.64021 0.06406 0.0
H1651 H 0.39706 0.65062 0.0252 0.0
H1652 H 0.32432 0.68341 0.04531 0.0
C1653 C 0.27989 0.69088 0.96085 0.0
C1654 C 0.34782 0.68035 0.97606 0.0
C1655 C 0.26118 0.68694 0.94213 0.0
C1656 C 0.40729 0.65573 0.06436 0.0
C1657 C 0.39413 0.6617 0.04221 0.0
C1658 C 0.33127 0.68314 0.02608 0.0
C1659 C 0.30256 0.6777 0.96007 0.0
C1660 C 0.32163 0.68055 0.98096 0.0
C1661 C 0.37556 0.68004 0.04278 0.0
C1662 C 0.35741 0.6822 0.02128 0.0
H1663 H 0.29098 0.64377 0.90579 0.0
H1664 H 0.32333 0.65008 0.93888 0.0
H1665 H 0.29362 0.682 1.0107 0.0
H1666 H 0.38075 0.69724 0.10506 0.0
H1667 H 0.3582 0.70828 0.06624 0.0
C1668 C 0.18981 0.63949 0.77243 0.0
C1669 C 0.20277 0.63308 0.79474 0.0
C1670 C 0.18318 0.62119 0.75408 0.0
C1671 C 0.19577 0.5558 0.73405 0.0
H1672 H 0.12671 0.55595 0.70782 0.0
C1673 C 0.11635 0.48003 0.69309 0.0
C1674 C 0.13221 0.46484 0.67873 0.0
C1675 C 0.12536 0.50322 0.70257 0.0
C1676 C 0.14603 0.5556 0.71501 0.0
H1677 H 0.21982 0.60258 0.81476 0.0
H1678 H 0.20805 0.57085 0.78316 0.0
H1679 H 0.14308 0.59122 0.73355 0.0
H1680 H 0.16918 0.46274 0.66137 0.0
H1681 H 0.18458 0.50344 0.67715 0.0
H1682 H 0.19835 0.51964 0.71693 0.0
C1683 C 0.20323 0.58999 0.77955 0.0
C1684 C 0.15555 0.57599 0.72948 0.0
C1685 C 0.20987 0.60822 0.7978 0.0
C1686 C 0.15665 0.47389 0.67274 0.0
C1687 C 0.16552 0.49718 0.6819 0.0
C1688 C 0.18624 0.53539 0.71976 0.0
C1689 C 0.18942 0.59613 0.75767 0.0
C1690 C 0.18036 0.57607 0.73964 0.0
C1691 C 0.1503 0.51181 0.69761 0.0
C1692 C 0.16108 0.53479 0.71045 0.0
H1693 H 0.1841 0.65849 0.76945 0.0
H1694 H 0.17284 0.62659 0.73728 0.0
H1695 H 0.2151 0.55541 0.74124 0.0
H1696 H 0.09743 0.47349 0.69804 0.0
H1697 H 0.11315 0.51382 0.7148 0.0
C1698 C 0.2784 0.37698 0.41133 0.0
C1699 C 0.30079 0.36454 0.41693 0.0
C1700 C 0.25909 0.37813 0.42917 0.0
C1701 C 0.23496 0.34679 0.486 0.0
H1702 H 0.20252 0.4096 0.4994 0.0
C1703 C 0.17646 0.3648 0.57528 0.0
C1704 C 0.15437 0.37863 0.57279 0.0
C1705 C 0.19263 0.36191 0.5548 0.0
C1706 C 0.21112 0.39184 0.4956 0.0
H1707 H 0.32083 0.34373 0.4454 0.0
H1708 H 0.28726 0.34594 0.47663 0.0
H1709 H 0.23418 0.40709 0.4662 0.0
H1710 H 0.1314 0.39952 0.54668 0.0
H1711 H 0.15974 0.3945 0.51085 0.0
H1712 H 0.21216 0.33161 0.5156 0.0
C1713 C 0.28441 0.35449 0.45839 0.0
C1714 C 0.22925 0.39041 0.47662 0.0
C1715 C 0.30369 0.35338 0.44061 0.0
C1716 C 0.14852 0.38911 0.54927 0.0
C1717 C 0.16471 0.38622 0.52877 0.0
C1718 C 0.21684 0.34821 0.50496 0.0
C1719 C 0.26189 0.36679 0.45283 0.0
C1720 C 0.24158 0.36796 0.47187 0.0
C1721 C 0.18704 0.37279 0.53141 0.0
C1722 C 0.20497 0.37082 0.51016 0.0
H1723 H 0.27574 0.3857 0.39314 0.0
H1724 H 0.24186 0.3876 0.42432 0.0
H1725 H 0.24384 0.32912 0.48243 0.0
H1726 H 0.18163 0.35679 0.59327 0.0
H1727 H 0.20991 0.35177 0.5575 0.0
loop_
_geom_bond_atom_site_label_1
_geom_bond_atom_site_label_2
_geom_bond_distance
_geom_bond_site_symmetry_2
_ccdc_geom_bond_type
Co0 N4 2.148 . S
Co0 N10 2.128 . S
Co0 N20 2.194 . S
Co0 O25 2.351 . S
Co0 O26 2.155 . S
Co0 O27 2.096 . S
C1 N4 1.301 . S
C1 N5 1.328 . S
C1 H6 0.930 . S
C2 C3 1.333 . S
C2 N4 1.317 . S
C2 H7 0.930 . S
C3 C2 1.333 . S
C3 N5 1.350 . S
C3 H29 0.931 . S
N4 Co0 2.148 . S
N4 C1 1.301 . S
N4 C2 1.317 . S
N5 C1 1.328 . S
N5 C3 1.350 . S
H6 C1 0.930 . S
H7 C2 0.930 . S
C8 O9 1.224 . S
C8 O27 1.247 . S
O9 C8 1.224 . S
N10 Co0 2.128 . S
N10 C11 1.355 . S
N10 C13 1.311 . S
C11 N10 1.355 . S
C11 C12 1.363 . S
C11 H23 0.929 . S
C12 C11 1.363 . S
C12 N14 1.375 . S
C12 H30 0.931 . S
C13 N10 1.311 . S
C13 N14 1.347 . S
C13 H24 0.929 . S
N14 C12 1.375 . S
N14 C13 1.347 . S
C15 C18 1.365 . S
C15 N20 1.328 . S
C15 H21 0.929 . S
C16 C17 1.362 . S
C16 C19 1.378 . S
C16 H31 0.929 . S
C17 C16 1.362 . S
C17 C18 1.366 . S
C18 C15 1.365 . S
C18 C17 1.366 . S
C18 H32 0.930 . S
C19 C16 1.378 . S
C19 N20 1.315 . S
C19 H22 0.930 . S
N20 Co0 2.194 . S
N20 C15 1.328 . S
N20 C19 1.315 . S
H21 C15 0.929 . S
H22 C19 0.930 . S
H23 C11 0.929 . S
H24 C13 0.929 . S
O25 Co0 2.351 . S
O25 C28 1.244 . S
O26 Co0 2.155 . S
O26 C28 1.240 . S
O27 Co0 2.096 . S
O27 C8 1.247 . S
C28 O25 1.244 . S
C28 O26 1.240 . S
H29 C3 0.931 . S
H30 C12 0.931 . S
H31 C16 0.929 . S
H32 C18 0.930 . S
Co33 N37 2.148 . S
Co33 N43 2.128 . S
Co33 N53 2.194 . S
Co33 O58 2.351 . S
Co33 O59 2.155 . S
Co33 O60 2.096 . S
C34 N37 1.301 . S
C34 N38 1.328 . S
C34 H39 0.930 . S
C35 C36 1.333 . S
C35 N37 1.317 . S
C35 H40 0.930 . S
C36 C35 1.333 . S
C36 N38 1.350 . S
C36 H62 0.931 . S
N37 Co33 2.148 . S
N37 C34 1.301 . S
N37 C35 1.317 . S
N38 C34 1.328 . S
N38 C36 1.350 . S
H39 C34 0.930 . S
H40 C35 0.930 . S
C41 O42 1.224 . S
C41 O60 1.247 . S
O42 C41 1.224 . S
N43 Co33 2.128 . S
N43 C44 1.355 . S
N43 C46 1.311 . S
C44 N43 1.355 . S
C44 C45 1.363 . S
C44 H56 0.929 . S
C45 C44 1.363 . S
C45 N47 1.375 . S
C45 H63 0.931 . S
C46 N43 1.311 . S
C46 N47 1.347 . S
C46 H57 0.929 . S
N47 C45 1.375 . S
N47 C46 1.347 . S
C48 C51 1.365 . S
C48 N53 1.328 . S
C48 H54 0.929 . S
C49 C50 1.362 . S
C49 C52 1.378 . S
C49 H64 0.929 . S
C50 C49 1.362 . S
C50 C51 1.366 . S
C51 C48 1.365 . S
C51 C50 1.366 . S
C51 H65 0.930 . S
C52 C49 1.378 . S
C52 N53 1.315 . S
C52 H55 0.930 . S
N53 Co33 2.194 . S
N53 C48 1.328 . S
N53 C52 1.315 . S
H54 C48 0.929 . S
H55 C52 0.930 . S
H56 C44 0.929 . S
H57 C46 0.929 . S
O58 Co33 2.351 . S
O58 C61 1.244 . S
O59 Co33 2.155 . S
O59 C61 1.240 . S
O60 Co33 2.096 . S
O60 C41 1.247 . S
C61 O58 1.244 . S
C61 O59 1.240 . S
H62 C36 0.931 . S
H63 C45 0.931 . S
H64 C49 0.929 . S
H65 C51 0.930 . S
Co66 N70 2.148 . S
Co66 N76 2.128 . S
Co66 N86 2.194 . S
Co66 O91 2.351 . S
Co66 O92 2.155 . S
Co66 O93 2.096 . S
C67 N70 1.301 . S
C67 N71 1.328 . S
C67 H72 0.930 . S
C68 C69 1.333 . S
C68 N70 1.317 . S
C68 H73 0.930 . S
C69 C68 1.333 . S
C69 N71 1.350 . S
C69 H95 0.931 . S
N70 Co66 2.148 . S
N70 C67 1.301 . S
N70 C68 1.317 . S
N71 C67 1.328 . S
N71 C69 1.350 . S
H72 C67 0.930 . S
H73 C68 0.930 . S
C74 O75 1.224 . S
C74 O93 1.247 . S
O75 C74 1.224 . S
N76 Co66 2.128 . S
N76 C77 1.355 . S
N76 C79 1.311 . S
C77 N76 1.355 . S
C77 C78 1.363 . S
C77 H89 0.929 . S
C78 C77 1.363 . S
C78 N80 1.375 . S
C78 H96 0.931 . S
C79 N76 1.311 . S
C79 N80 1.347 . S
C79 H90 0.929 . S
N80 C78 1.375 . S
N80 C79 1.347 . S
C81 C84 1.365 . S
C81 N86 1.328 . S
C81 H87 0.929 . S
C82 C83 1.362 . S
C82 C85 1.378 . S
C82 H97 0.929 . S
C83 C82 1.362 . S
C83 C84 1.366 . S
C84 C81 1.365 . S
C84 C83 1.366 . S
C84 H98 0.930 . S
C85 C82 1.378 . S
C85 N86 1.315 . S
C85 H88 0.930 . S
N86 Co66 2.194 . S
N86 C81 1.328 . S
N86 C85 1.315 . S
H87 C81 0.929 . S
H88 C85 0.930 . S
H89 C77 0.929 . S
H90 C79 0.929 . S
O91 Co66 2.351 . S
O91 C94 1.244 . S
O92 Co66 2.155 . S
O92 C94 1.240 . S
O93 Co66 2.096 . S
O93 C74 1.247 . S
C94 O91 1.244 . S
C94 O92 1.240 . S
H95 C69 0.931 . S
H96 C78 0.931 . S
H97 C82 0.929 . S
H98 C84 0.930 . S
Co99 N103 2.148 . S
Co99 N109 2.128 . S
Co99 N119 2.194 . S
Co99 O124 2.351 . S
Co99 O125 2.155 . S
Co99 O126 2.096 . S
C100 N103 1.301 . S
C100 N104 1.328 . S
C100 H105 0.930 . S
C101 C102 1.333 . S
C101 N103 1.317 . S
C101 H106 0.930 . S
C102 C101 1.333 . S
C102 N104 1.350 . S
C102 H128 0.931 . S
N103 Co99 2.148 . S
N103 C100 1.301 . S
N103 C101 1.317 . S
N104 C100 1.328 . S
N104 C102 1.350 . S
H105 C100 0.930 . S
H106 C101 0.930 . S
C107 O108 1.224 . S
C107 O126 1.247 . S
O108 C107 1.224 . S
N109 Co99 2.128 . S
N109 C110 1.355 . S
N109 C112 1.311 . S
C110 N109 1.355 . S
C110 C111 1.363 . S
C110 H122 0.929 . S
C111 C110 1.363 . S
C111 N113 1.375 . S
C111 H129 0.931 . S
C112 N109 1.311 . S
C112 N113 1.347 . S
C112 H123 0.929 . S
N113 C111 1.375 . S
N113 C112 1.347 . S
C114 C117 1.365 . S
C114 N119 1.328 . S
C114 H120 0.929 . S
C115 C116 1.362 . S
C115 C118 1.378 . S
C115 H130 0.929 . S
C116 C115 1.362 . S
C116 C117 1.366 . S
C117 C114 1.365 . S
C117 C116 1.366 . S
C117 H131 0.930 . S
C118 C115 1.378 . S
C118 N119 1.315 . S
C118 H121 0.930 . S
N119 Co99 2.194 . S
N119 C114 1.328 . S
N119 C118 1.315 . S
H120 C114 0.929 . S
H121 C118 0.930 . S
H122 C110 0.929 . S
H123 C112 0.929 . S
O124 Co99 2.351 . S
O124 C127 1.244 . S
O125 Co99 2.155 . S
O125 C127 1.240 . S
O126 Co99 2.096 . S
O126 C107 1.247 . S
C127 O124 1.244 . S
C127 O125 1.240 . S
H128 C102 0.931 . S
H129 C111 0.931 . S
H130 C115 0.929 . S
H131 C117 0.930 . S
Co132 N136 2.148 . S
Co132 N142 2.128 . S
Co132 N152 2.194 . S
Co132 O157 2.351 . S
Co132 O158 2.155 . S
Co132 O159 2.096 . S
C133 N136 1.301 . S
C133 N137 1.328 . S
C133 H138 0.930 . S
C134 C135 1.333 . S
C134 N136 1.317 . S
C134 H139 0.930 . S
C135 C134 1.333 . S
C135 N137 1.350 . S
C135 H161 0.931 . S
N136 Co132 2.148 . S
N136 C133 1.301 . S
N136 C134 1.317 . S
N137 C133 1.328 . S
N137 C135 1.350 . S
H138 C133 0.930 . S
H139 C134 0.930 . S
C140 O141 1.224 . S
C140 O159 1.247 . S
O141 C140 1.224 . S
N142 Co132 2.128 . S
N142 C143 1.355 . S
N142 C145 1.311 . S
C143 N142 1.355 . S
C143 C144 1.363 . S
C143 H155 0.929 . S
C144 C143 1.363 . S
C144 N146 1.375 . S
C144 H162 0.931 . S
C145 N142 1.311 . S
C145 N146 1.347 . S
C145 H156 0.929 . S
N146 C144 1.375 . S
N146 C145 1.347 . S
C147 C150 1.365 . S
C147 N152 1.328 . S
C147 H153 0.929 . S
C148 C149 1.362 . S
C148 C151 1.378 . S
C148 H163 0.929 . S
C149 C148 1.362 . S
C149 C150 1.366 . S
C150 C147 1.365 . S
C150 C149 1.366 . S
C150 H164 0.930 . S
C151 C148 1.378 . S
C151 N152 1.315 . S
C151 H154 0.930 . S
N152 Co132 2.194 . S
N152 C147 1.328 . S
N152 C151 1.315 . S
H153 C147 0.929 . S
H154 C151 0.930 . S
H155 C143 0.929 . S
H156 C145 0.929 . S
O157 Co132 2.351 . S
O157 C160 1.244 . S
O158 Co132 2.155 . S
O158 C160 1.240 . S
O159 Co132 2.096 . S
O159 C140 1.247 . S
C160 O157 1.244 . S
C160 O158 1.240 . S
H161 C135 0.931 . S
H162 C144 0.931 . S
H163 C148 0.929 . S
H164 C150 0.930 . S
Co165 N169 2.148 . S
Co165 N175 2.128 . S
Co165 N185 2.194 . S
Co165 O190 2.351 . S
Co165 O191 2.155 . S
Co165 O192 2.096 . S
C166 N169 1.301 . S
C166 N170 1.328 . S
C166 H171 0.930 . S
C167 C168 1.333 . S
C167 N169 1.317 . S
C167 H172 0.930 . S
C168 C167 1.333 . S
C168 N170 1.350 . S
C168 H194 0.931 . S
N169 Co165 2.148 . S
N169 C166 1.301 . S
N169 C167 1.317 . S
N170 C166 1.328 . S
N170 C168 1.350 . S
H171 C166 0.930 . S
H172 C167 0.930 . S
C173 O174 1.224 . S
C173 O192 1.247 . S
O174 C173 1.224 . S
N175 Co165 2.128 . S
N175 C176 1.355 . S
N175 C178 1.311 . S
C176 N175 1.355 . S
C176 C177 1.363 . S
C176 H188 0.929 . S
C177 C176 1.363 . S
C177 N179 1.375 . S
C177 H195 0.931 . S
C178 N175 1.311 . S
C178 N179 1.347 . S
C178 H189 0.929 . S
N179 C177 1.375 . S
N179 C178 1.347 . S
C180 C183 1.365 . S
C180 N185 1.328 . S
C180 H186 0.929 . S
C181 C182 1.362 . S
C181 C184 1.378 . S
C181 H196 0.929 . S
C182 C181 1.362 . S
C182 C183 1.366 . S
C183 C180 1.365 . S
C183 C182 1.366 . S
C183 H197 0.930 . S
C184 C181 1.378 . S
C184 N185 1.315 . S
C184 H187 0.930 . S
N185 Co165 2.194 . S
N185 C180 1.328 . S
N185 C184 1.315 . S
H186 C180 0.929 . S
H187 C184 0.930 . S
H188 C176 0.929 . S
H189 C178 0.929 . S
O190 Co165 2.351 . S
O190 C193 1.244 . S
O191 Co165 2.155 . S
O191 C193 1.240 . S
O192 Co165 2.096 . S
O192 C173 1.247 . S
C193 O190 1.244 . S
C193 O191 1.240 . S
H194 C168 0.931 . S
H195 C177 0.931 . S
H196 C181 0.929 . S
H197 C183 0.930 . S
Co198 N202 2.148 . S
Co198 N208 2.128 . S
Co198 N218 2.194 . S
Co198 O223 2.351 . S
Co198 O224 2.155 . S
Co198 O225 2.096 . S
C199 N202 1.301 . S
C199 N203 1.328 . S
C199 H204 0.930 . S
C200 C201 1.333 . S
C200 N202 1.317 . S
C200 H205 0.930 . S
C201 C200 1.333 . S
C201 N203 1.350 . S
C201 H227 0.931 . S
N202 Co198 2.148 . S
N202 C199 1.301 . S
N202 C200 1.317 . S
N203 C199 1.328 . S
N203 C201 1.350 . S
H204 C199 0.930 . S
H205 C200 0.930 . S
C206 O207 1.224 . S
C206 O225 1.247 . S
O207 C206 1.224 . S
N208 Co198 2.128 . S
N208 C209 1.355 . S
N208 C211 1.311 . S
C209 N208 1.355 . S
C209 C210 1.363 . S
C209 H221 0.929 . S
C210 C209 1.363 . S
C210 N212 1.375 . S
C210 H228 0.931 . S
C211 N208 1.311 . S
C211 N212 1.347 . S
C211 H222 0.929 . S
N212 C210 1.375 . S
N212 C211 1.347 . S
C213 C216 1.365 . S
C213 N218 1.328 . S
C213 H219 0.929 . S
C214 C215 1.362 . S
C214 C217 1.378 . S
C214 H229 0.929 . S
C215 C214 1.362 . S
C215 C216 1.366 . S
C216 C213 1.365 . S
C216 C215 1.366 . S
C216 H230 0.930 . S
C217 C214 1.378 . S
C217 N218 1.315 . S
C217 H220 0.930 . S
N218 Co198 2.194 . S
N218 C213 1.328 . S
N218 C217 1.315 . S
H219 C213 0.929 . S
H220 C217 0.930 . S
H221 C209 0.929 . S
H222 C211 0.929 . S
O223 Co198 2.351 . S
O223 C226 1.244 . S
O224 Co198 2.155 . S
O224 C226 1.240 . S
O225 Co198 2.096 . S
O225 C206 1.247 . S
C226 O223 1.244 . S
C226 O224 1.240 . S
H227 C201 0.931 . S
H228 C210 0.931 . S
H229 C214 0.929 . S
H230 C216 0.930 . S
Co231 N235 2.148 . S
Co231 N241 2.128 . S
Co231 N251 2.194 . S
Co231 O256 2.351 . S
Co231 O257 2.155 . S
Co231 O258 2.096 . S
C232 N235 1.301 . S
C232 N236 1.328 . S
C232 H237 0.930 . S
C233 C234 1.333 . S
C233 N235 1.317 . S
C233 H238 0.930 . S
C234 C233 1.333 . S
C234 N236 1.350 . S
C234 H260 0.931 . S
N235 Co231 2.148 . S
N235 C232 1.301 . S
N235 C233 1.317 . S
N236 C232 1.328 . S
N236 C234 1.350 . S
H237 C232 0.930 . S
H238 C233 0.930 . S
C239 O240 1.224 . S
C239 O258 1.247 . S
O240 C239 1.224 . S
N241 Co231 2.128 . S
N241 C242 1.355 . S
N241 C244 1.311 . S
C242 N241 1.355 . S
C242 C243 1.363 . S
C242 H254 0.929 . S
C243 C242 1.363 . S
C243 N245 1.375 . S
C243 H261 0.931 . S
C244 N241 1.311 . S
C244 N245 1.347 . S
C244 H255 0.929 . S
N245 C243 1.375 . S
N245 C244 1.347 . S
C246 C249 1.365 . S
C246 N251 1.328 . S
C246 H252 0.929 . S
C247 C248 1.362 . S
C247 C250 1.378 . S
C247 H262 0.929 . S
C248 C247 1.362 . S
C248 C249 1.366 . S
C249 C246 1.365 . S
C249 C248 1.366 . S
C249 H263 0.930 . S
C250 C247 1.378 . S
C250 N251 1.315 . S
C250 H253 0.930 . S
N251 Co231 2.194 . S
N251 C246 1.328 . S
N251 C250 1.315 . S
H252 C246 0.929 . S
H253 C250 0.930 . S
H254 C242 0.929 . S
H255 C244 0.929 . S
O256 Co231 2.351 . S
O256 C259 1.244 . S
O257 Co231 2.155 . S
O257 C259 1.240 . S
O258 Co231 2.096 . S
O258 C239 1.247 . S
C259 O256 1.244 . S
C259 O257 1.240 . S
H260 C234 0.931 . S
H261 C243 0.931 . S
H262 C247 0.929 . S
H263 C249 0.930 . S
Co264 N268 2.148 . S
Co264 N274 2.128 . S
Co264 N284 2.194 . S
Co264 O289 2.351 . S
Co264 O290 2.155 . S
Co264 O291 2.096 . S
C265 N268 1.301 . S
C265 N269 1.328 . S
C265 H270 0.930 . S
C266 C267 1.333 . S
C266 N268 1.317 . S
C266 H271 0.930 . S
C267 C266 1.333 . S
C267 N269 1.350 . S
C267 H293 0.931 . S
N268 Co264 2.148 . S
N268 C265 1.301 . S
N268 C266 1.317 . S
N269 C265 1.328 . S
N269 C267 1.350 . S
H270 C265 0.930 . S
H271 C266 0.930 . S
C272 O273 1.224 . S
C272 O291 1.247 . S
O273 C272 1.224 . S
N274 Co264 2.128 . S
N274 C275 1.355 . S
N274 C277 1.311 . S
C275 N274 1.355 . S
C275 C276 1.363 . S
C275 H287 0.929 . S
C276 C275 1.363 . S
C276 N278 1.375 . S
C276 H294 0.931 . S
C277 N274 1.311 . S
C277 N278 1.347 . S
C277 H288 0.929 . S
N278 C276 1.375 . S
N278 C277 1.347 . S
C279 C282 1.365 . S
C279 N284 1.328 . S
C279 H285 0.929 . S
C280 C281 1.362 . S
C280 C283 1.378 . S
C280 H295 0.929 . S
C281 C280 1.362 . S
C281 C282 1.366 . S
C282 C279 1.365 . S
C282 C281 1.366 . S
C282 H296 0.930 . S
C283 C280 1.378 . S
C283 N284 1.315 . S
C283 H286 0.930 . S
N284 Co264 2.194 . S
N284 C279 1.328 . S
N284 C283 1.315 . S
H285 C279 0.929 . S
H286 C283 0.930 . S
H287 C275 0.929 . S
H288 C277 0.929 . S
O289 Co264 2.351 . S
O289 C292 1.244 . S
O290 Co264 2.155 . S
O290 C292 1.240 . S
O291 Co264 2.096 . S
O291 C272 1.247 . S
C292 O289 1.244 . S
C292 O290 1.240 . S
H293 C267 0.931 . S
H294 C276 0.931 . S
H295 C280 0.929 . S
H296 C282 0.930 . S
Co297 N301 2.148 . S
Co297 N307 2.128 . S
Co297 N317 2.194 . S
Co297 O322 2.351 . S
Co297 O323 2.155 . S
Co297 O324 2.096 . S
C298 N301 1.301 . S
C298 N302 1.328 . S
C298 H303 0.930 . S
C299 C300 1.333 . S
C299 N301 1.317 . S
C299 H304 0.930 . S
C300 C299 1.333 . S
C300 N302 1.350 . S
C300 H326 0.931 . S
N301 Co297 2.148 . S
N301 C298 1.301 . S
N301 C299 1.317 . S
N302 C298 1.328 . S
N302 C300 1.350 . S
H303 C298 0.930 . S
H304 C299 0.930 . S
C305 O306 1.224 . S
C305 O324 1.247 . S
O306 C305 1.224 . S
N307 Co297 2.128 . S
N307 C308 1.355 . S
N307 C310 1.311 . S
C308 N307 1.355 . S
C308 C309 1.363 . S
C308 H320 0.929 . S
C309 C308 1.363 . S
C309 N311 1.375 . S
C309 H327 0.931 . S
C310 N307 1.311 . S
C310 N311 1.347 . S
C310 H321 0.929 . S
N311 C309 1.375 . S
N311 C310 1.347 . S
C312 C315 1.365 . S
C312 N317 1.328 . S
C312 H318 0.929 . S
C313 C314 1.362 . S
C313 C316 1.378 . S
C313 H328 0.929 . S
C314 C313 1.362 . S
C314 C315 1.366 . S
C315 C312 1.365 . S
C315 C314 1.366 . S
C315 H329 0.930 . S
C316 C313 1.378 . S
C316 N317 1.315 . S
C316 H319 0.930 . S
N317 Co297 2.194 . S
N317 C312 1.328 . S
N317 C316 1.315 . S
H318 C312 0.929 . S
H319 C316 0.930 . S
H320 C308 0.929 . S
H321 C310 0.929 . S
O322 Co297 2.351 . S
O322 C325 1.244 . S
O323 Co297 2.155 . S
O323 C325 1.240 . S
O324 Co297 2.096 . S
O324 C305 1.247 . S
C325 O322 1.244 . S
C325 O323 1.240 . S
H326 C300 0.931 . S
H327 C309 0.931 . S
H328 C313 0.929 . S
H329 C315 0.930 . S
Co330 N334 2.148 . S
Co330 N340 2.128 . S
Co330 N350 2.194 . S
Co330 O355 2.351 . S
Co330 O356 2.155 . S
Co330 O357 2.096 . S
C331 N334 1.301 . S
C331 N335 1.328 . S
C331 H336 0.930 . S
C332 C333 1.333 . S
C332 N334 1.317 . S
C332 H337 0.930 . S
C333 C332 1.333 . S
C333 N335 1.350 . S
C333 H359 0.931 . S
N334 Co330 2.148 . S
N334 C331 1.301 . S
N334 C332 1.317 . S
N335 C331 1.328 . S
N335 C333 1.350 . S
H336 C331 0.930 . S
H337 C332 0.930 . S
C338 O339 1.224 . S
C338 O357 1.247 . S
O339 C338 1.224 . S
N340 Co330 2.128 . S
N340 C341 1.355 . S
N340 C343 1.311 . S
C341 N340 1.355 . S
C341 C342 1.363 . S
C341 H353 0.929 . S
C342 C341 1.363 . S
C342 N344 1.375 . S
C342 H360 0.931 . S
C343 N340 1.311 . S
C343 N344 1.347 . S
C343 H354 0.929 . S
N344 C342 1.375 . S
N344 C343 1.347 . S
C345 C348 1.365 . S
C345 N350 1.328 . S
C345 H351 0.929 . S
C346 C347 1.362 . S
C346 C349 1.378 . S
C346 H361 0.929 . S
C347 C346 1.362 . S
C347 C348 1.366 . S
C348 C345 1.365 . S
C348 C347 1.366 . S
C348 H362 0.930 . S
C349 C346 1.378 . S
C349 N350 1.315 . S
C349 H352 0.930 . S
N350 Co330 2.194 . S
N350 C345 1.328 . S
N350 C349 1.315 . S
H351 C345 0.929 . S
H352 C349 0.930 . S
H353 C341 0.929 . S
H354 C343 0.929 . S
O355 Co330 2.351 . S
O355 C358 1.244 . S
O356 Co330 2.155 . S
O356 C358 1.240 . S
O357 Co330 2.096 . S
O357 C338 1.247 . S
C358 O355 1.244 . S
C358 O356 1.240 . S
H359 C333 0.931 . S
H360 C342 0.931 . S
H361 C346 0.929 . S
H362 C348 0.930 . S
Co363 N367 2.148 . S
Co363 N373 2.128 . S
Co363 N383 2.194 . S
Co363 O388 2.351 . S
Co363 O389 2.155 . S
Co363 O390 2.096 . S
C364 N367 1.301 . S
C364 N368 1.328 . S
C364 H369 0.930 . S
C365 C366 1.333 . S
C365 N367 1.317 . S
C365 H370 0.930 . S
C366 C365 1.333 . S
C366 N368 1.350 . S
C366 H392 0.931 . S
N367 Co363 2.148 . S
N367 C364 1.301 . S
N367 C365 1.317 . S
N368 C364 1.328 . S
N368 C366 1.350 . S
H369 C364 0.930 . S
H370 C365 0.930 . S
C371 O372 1.224 . S
C371 O390 1.247 . S
O372 C371 1.224 . S
N373 Co363 2.128 . S
N373 C374 1.355 . S
N373 C376 1.311 . S
C374 N373 1.355 . S
C374 C375 1.363 . S
C374 H386 0.929 . S
C375 C374 1.363 . S
C375 N377 1.375 . S
C375 H393 0.931 . S
C376 N373 1.311 . S
C376 N377 1.347 . S
C376 H387 0.929 . S
N377 C375 1.375 . S
N377 C376 1.347 . S
C378 C381 1.365 . S
C378 N383 1.328 . S
C378 H384 0.929 . S
C379 C380 1.362 . S
C379 C382 1.378 . S
C379 H394 0.929 . S
C380 C379 1.362 . S
C380 C381 1.366 . S
C381 C378 1.365 . S
C381 C380 1.366 . S
C381 H395 0.930 . S
C382 C379 1.378 . S
C382 N383 1.315 . S
C382 H385 0.930 . S
N383 Co363 2.194 . S
N383 C378 1.328 . S
N383 C382 1.315 . S
H384 C378 0.929 . S
H385 C382 0.930 . S
H386 C374 0.929 . S
H387 C376 0.929 . S
O388 Co363 2.351 . S
O388 C391 1.244 . S
O389 Co363 2.155 . S
O389 C391 1.240 . S
O390 Co363 2.096 . S
O390 C371 1.247 . S
C391 O388 1.244 . S
C391 O389 1.240 . S
H392 C366 0.931 . S
H393 C375 0.931 . S
H394 C379 0.929 . S
H395 C381 0.930 . S
Co396 N400 2.148 . S
Co396 N406 2.128 . S
Co396 N416 2.194 . S
Co396 O421 2.351 . S
Co396 O422 2.155 . S
Co396 O423 2.096 . S
C397 N400 1.301 . S
C397 N401 1.328 . S
C397 H402 0.930 . S
C398 C399 1.333 . S
C398 N400 1.317 . S
C398 H403 0.930 . S
C399 C398 1.333 . S
C399 N401 1.350 . S
C399 H425 0.931 . S
N400 Co396 2.148 . S
N400 C397 1.301 . S
N400 C398 1.317 . S
N401 C397 1.328 . S
N401 C399 1.350 . S
H402 C397 0.930 . S
H403 C398 0.930 . S
C404 O405 1.224 . S
C404 O423 1.247 . S
O405 C404 1.224 . S
N406 Co396 2.128 . S
N406 C407 1.355 . S
N406 C409 1.311 . S
C407 N406 1.355 . S
C407 C408 1.363 . S
C407 H419 0.929 . S
C408 C407 1.363 . S
C408 N410 1.375 . S
C408 H426 0.931 . S
C409 N406 1.311 . S
C409 N410 1.347 . S
C409 H420 0.929 . S
N410 C408 1.375 . S
N410 C409 1.347 . S
C411 C414 1.365 . S
C411 N416 1.328 . S
C411 H417 0.929 . S
C412 C413 1.362 . S
C412 C415 1.378 . S
C412 H427 0.929 . S
C413 C412 1.362 . S
C413 C414 1.366 . S
C414 C411 1.365 . S
C414 C413 1.366 . S
C414 H428 0.930 . S
C415 C412 1.378 . S
C415 N416 1.315 . S
C415 H418 0.930 . S
N416 Co396 2.194 . S
N416 C411 1.328 . S
N416 C415 1.315 . S
H417 C411 0.929 . S
H418 C415 0.930 . S
H419 C407 0.929 . S
H420 C409 0.929 . S
O421 Co396 2.351 . S
O421 C424 1.244 . S
O422 Co396 2.155 . S
O422 C424 1.240 . S
O423 Co396 2.096 . S
O423 C404 1.247 . S
C424 O421 1.244 . S
C424 O422 1.240 . S
H425 C399 0.931 . S
H426 C408 0.931 . S
H427 C412 0.929 . S
H428 C414 0.930 . S
Co429 N433 2.148 . S
Co429 N439 2.128 . S
Co429 N449 2.194 . S
Co429 O454 2.351 . S
Co429 O455 2.155 . S
Co429 O456 2.096 . S
C430 N433 1.301 . S
C430 N434 1.328 . S
C430 H435 0.930 . S
C431 C432 1.333 . S
C431 N433 1.317 . S
C431 H436 0.930 . S
C432 C431 1.333 . S
C432 N434 1.350 . S
C432 H458 0.931 . S
N433 Co429 2.148 . S
N433 C430 1.301 . S
N433 C431 1.317 . S
N434 C430 1.328 . S
N434 C432 1.350 . S
H435 C430 0.930 . S
H436 C431 0.930 . S
C437 O438 1.224 . S
C437 O456 1.247 . S
O438 C437 1.224 . S
N439 Co429 2.128 . S
N439 C440 1.355 . S
N439 C442 1.311 . S
C440 N439 1.355 . S
C440 C441 1.363 . S
C440 H452 0.929 . S
C441 C440 1.363 . S
C441 N443 1.375 . S
C441 H459 0.931 . S
C442 N439 1.311 . S
C442 N443 1.347 . S
C442 H453 0.929 . S
N443 C441 1.375 . S
N443 C442 1.347 . S
C444 C447 1.365 . S
C444 N449 1.328 . S
C444 H450 0.929 . S
C445 C446 1.362 . S
C445 C448 1.378 . S
C445 H460 0.929 . S
C446 C445 1.362 . S
C446 C447 1.366 . S
C447 C444 1.365 . S
C447 C446 1.366 . S
C447 H461 0.930 . S
C448 C445 1.378 . S
C448 N449 1.315 . S
C448 H451 0.930 . S
N449 Co429 2.194 . S
N449 C444 1.328 . S
N449 C448 1.315 . S
H450 C444 0.929 . S
H451 C448 0.930 . S
H452 C440 0.929 . S
H453 C442 0.929 . S
O454 Co429 2.351 . S
O454 C457 1.244 . S
O455 Co429 2.155 . S
O455 C457 1.240 . S
O456 Co429 2.096 . S
O456 C437 1.247 . S
C457 O454 1.244 . S
C457 O455 1.240 . S
H458 C432 0.931 . S
H459 C441 0.931 . S
H460 C445 0.929 . S
H461 C447 0.930 . S
Co462 N466 2.148 . S
Co462 N472 2.128 . S
Co462 N482 2.194 . S
Co462 O487 2.351 . S
Co462 O488 2.155 . S
Co462 O489 2.096 . S
C463 N466 1.301 . S
C463 N467 1.328 . S
C463 H468 0.930 . S
C464 C465 1.333 . S
C464 N466 1.317 . S
C464 H469 0.930 . S
C465 C464 1.333 . S
C465 N467 1.350 . S
C465 H491 0.931 . S
N466 Co462 2.148 . S
N466 C463 1.301 . S
N466 C464 1.317 . S
N467 C463 1.328 . S
N467 C465 1.350 . S
H468 C463 0.930 . S
H469 C464 0.930 . S
C470 O471 1.224 . S
C470 O489 1.247 . S
O471 C470 1.224 . S
N472 Co462 2.128 . S
N472 C473 1.355 . S
N472 C475 1.311 . S
C473 N472 1.355 . S
C473 C474 1.363 . S
C473 H485 0.929 . S
C474 C473 1.363 . S
C474 N476 1.375 . S
C474 H492 0.931 . S
C475 N472 1.311 . S
C475 N476 1.347 . S
C475 H486 0.929 . S
N476 C474 1.375 . S
N476 C475 1.347 . S
C477 C480 1.365 . S
C477 N482 1.328 . S
C477 H483 0.929 . S
C478 C479 1.362 . S
C478 C481 1.378 . S
C478 H493 0.929 . S
C479 C478 1.362 . S
C479 C480 1.366 . S
C480 C477 1.365 . S
C480 C479 1.366 . S
C480 H494 0.930 . S
C481 C478 1.378 . S
C481 N482 1.315 . S
C481 H484 0.930 . S
N482 Co462 2.194 . S
N482 C477 1.328 . S
N482 C481 1.315 . S
H483 C477 0.929 . S
H484 C481 0.930 . S
H485 C473 0.929 . S
H486 C475 0.929 . S
O487 Co462 2.351 . S
O487 C490 1.244 . S
O488 Co462 2.155 . S
O488 C490 1.240 . S
O489 Co462 2.096 . S
O489 C470 1.247 . S
C490 O487 1.244 . S
C490 O488 1.240 . S
H491 C465 0.931 . S
H492 C474 0.931 . S
H493 C478 0.929 . S
H494 C480 0.930 . S
Co495 N499 2.148 . S
Co495 N505 2.128 . S
Co495 N515 2.194 . S
Co495 O520 2.351 . S
Co495 O521 2.155 . S
Co495 O522 2.096 . S
C496 N499 1.301 . S
C496 N500 1.328 . S
C496 H501 0.930 . S
C497 C498 1.333 . S
C497 N499 1.317 . S
C497 H502 0.930 . S
C498 C497 1.333 . S
C498 N500 1.350 . S
C498 H524 0.931 . S
N499 Co495 2.148 . S
N499 C496 1.301 . S
N499 C497 1.317 . S
N500 C496 1.328 . S
N500 C498 1.350 . S
H501 C496 0.930 . S
H502 C497 0.930 . S
C503 O504 1.224 . S
C503 O522 1.247 . S
O504 C503 1.224 . S
N505 Co495 2.128 . S
N505 C506 1.355 . S
N505 C508 1.311 . S
C506 N505 1.355 . S
C506 C507 1.363 . S
C506 H518 0.929 . S
C507 C506 1.363 . S
C507 N509 1.375 . S
C507 H525 0.931 . S
C508 N505 1.311 . S
C508 N509 1.347 . S
C508 H519 0.929 . S
N509 C507 1.375 . S
N509 C508 1.347 . S
C510 C513 1.365 . S
C510 N515 1.328 . S
C510 H516 0.929 . S
C511 C512 1.362 . S
C511 C514 1.378 . S
C511 H526 0.929 . S
C512 C511 1.362 . S
C512 C513 1.366 . S
C513 C510 1.365 . S
C513 C512 1.366 . S
C513 H527 0.930 . S
C514 C511 1.378 . S
C514 N515 1.315 . S
C514 H517 0.930 . S
N515 Co495 2.194 . S
N515 C510 1.328 . S
N515 C514 1.315 . S
H516 C510 0.929 . S
H517 C514 0.930 . S
H518 C506 0.929 . S
H519 C508 0.929 . S
O520 Co495 2.351 . S
O520 C523 1.244 . S
O521 Co495 2.155 . S
O521 C523 1.240 . S
O522 Co495 2.096 . S
O522 C503 1.247 . S
C523 O520 1.244 . S
C523 O521 1.240 . S
H524 C498 0.931 . S
H525 C507 0.931 . S
H526 C511 0.929 . S
H527 C513 0.930 . S
C528 C529 1.349 . S
C528 C530 1.327 . S
C528 H553 0.950 . S
C529 C528 1.349 . S
C529 C545 1.349 . S
C530 C528 1.327 . S
C530 C549 1.429 . S
C530 H554 0.950 . S
C531 C548 1.574 . S
C531 C550 1.368 . S
C531 H555 0.949 . S
H532 C536 0.949 . S
C533 C534 1.349 . S
C533 C535 1.327 . S
C533 H556 0.950 . S
C534 C533 1.349 . S
C534 C546 1.349 . S
C535 C533 1.327 . S
C535 C551 1.429 . S
C535 H557 0.950 . S
C536 H532 0.949 . S
C536 C544 1.574 . S
C536 C552 1.368 . S
H537 C545 0.950 . S
H538 C543 0.950 . S
H539 C544 0.949 . S
H540 C546 0.950 . S
H541 C547 0.950 . S
H542 C548 0.949 . S
C543 H538 0.950 . S
C543 C545 1.327 . S
C543 C549 1.429 . S
C544 C536 1.574 . S
C544 H539 0.949 . S
C544 C550 1.368 . S
C545 C529 1.349 . S
C545 H537 0.950 . S
C545 C543 1.327 . S
C546 C534 1.349 . S
C546 H540 0.950 . S
C546 C547 1.327 . S
C547 H541 0.950 . S
C547 C546 1.327 . S
C547 C551 1.429 . S
C548 C531 1.574 . S
C548 H542 0.949 . S
C548 C552 1.368 . S
C549 C530 1.429 . S
C549 C543 1.429 . S
C549 C550 1.523 . S
C550 C531 1.368 . S
C550 C544 1.368 . S
C550 C549 1.523 . S
C551 C535 1.429 . S
C551 C547 1.429 . S
C551 C552 1.523 . S
C552 C536 1.368 . S
C552 C548 1.368 . S
C552 C551 1.523 . S
H553 C528 0.950 . S
H554 C530 0.950 . S
H555 C531 0.949 . S
H556 C533 0.950 . S
H557 C535 0.950 . S
C558 C559 1.349 . S
C558 C560 1.327 . S
C558 H583 0.950 . S
C559 C558 1.349 . S
C559 C575 1.349 . S
C560 C558 1.327 . S
C560 C579 1.429 . S
C560 H584 0.950 . S
C561 C578 1.574 . S
C561 C580 1.368 1_455 S
C561 H585 0.949 . S
H562 C566 0.949 . S
C563 C564 1.349 . S
C563 C565 1.327 . S
C563 H586 0.950 . S
C564 C563 1.349 . S
C564 C576 1.349 . S
C565 C563 1.327 . S
C565 C581 1.429 . S
C565 H587 0.950 1_565 S
C566 H562 0.949 . S
C566 C574 1.570 1_465 S
C566 C582 1.346 1_565 S
H567 C575 0.950 . S
H568 C573 0.950 . S
H569 C574 0.946 1_565 S
H570 C576 0.950 . S
H571 C577 0.950 . S
H572 C578 0.949 . S
C573 H568 0.950 . S
C573 C575 1.327 . S
C573 C579 1.429 . S
C574 C566 1.570 1_645 S
C574 H569 0.946 1_545 S
C574 C580 1.375 . S
C575 C559 1.349 . S
C575 H567 0.950 . S
C575 C573 1.327 . S
C576 C564 1.349 . S
C576 H570 0.950 . S
C576 C577 1.327 . S
C577 H571 0.950 . S
C577 C576 1.327 . S
C577 C581 1.429 . S
C578 C561 1.574 . S
C578 H572 0.949 . S
C578 C582 1.407 . S
C579 C560 1.429 . S
C579 C573 1.429 . S
C579 C580 1.523 . S
C580 C561 1.368 1_655 S
C580 C574 1.375 . S
C580 C579 1.523 . S
C581 C565 1.429 . S
C581 C577 1.429 . S
C581 C582 1.502 1_565 S
C582 C566 1.346 1_545 S
C582 C578 1.407 . S
C582 C581 1.502 1_545 S
H583 C558 0.950 . S
H584 C560 0.950 . S
H585 C561 0.949 . S
H586 C563 0.950 . S
H587 C565 0.950 1_545 S
C588 C589 1.349 . S
C588 C590 1.327 . S
C588 H613 0.950 . S
C589 C588 1.349 . S
C589 C605 1.349 . S
C590 C588 1.327 . S
C590 C609 1.429 . S
C590 H614 0.950 . S
C591 C608 1.574 . S
C591 C610 1.368 . S
C591 H615 0.949 . S
H592 C596 0.949 . S
C593 C594 1.349 . S
C593 C595 1.327 . S
C593 H616 0.950 . S
C594 C593 1.349 . S
C594 C606 1.349 . S
C595 C593 1.327 . S
C595 C611 1.429 . S
C595 H617 0.950 . S
C596 H592 0.949 . S
C596 C604 1.574 . S
C596 C612 1.368 . S
H597 C605 0.950 . S
H598 C603 0.950 . S
H599 C604 0.949 . S
H600 C606 0.950 . S
H601 C607 0.950 . S
H602 C608 0.949 . S
C603 H598 0.950 . S
C603 C605 1.327 . S
C603 C609 1.429 . S
C604 C596 1.574 . S
C604 H599 0.949 . S
C604 C610 1.368 . S
C605 C589 1.349 . S
C605 H597 0.950 . S
C605 C603 1.327 . S
C606 C594 1.349 . S
C606 H600 0.950 . S
C606 C607 1.327 . S
C607 H601 0.950 . S
C607 C606 1.327 . S
C607 C611 1.429 . S
C608 C591 1.574 . S
C608 H602 0.949 . S
C608 C612 1.368 . S
C609 C590 1.429 . S
C609 C603 1.429 . S
C609 C610 1.523 . S
C610 C591 1.368 . S
C610 C604 1.368 . S
C610 C609 1.523 . S
C611 C595 1.429 . S
C611 C607 1.429 . S
C611 C612 1.523 . S
C612 C596 1.368 . S
C612 C608 1.368 . S
C612 C611 1.523 . S
H613 C588 0.950 . S
H614 C590 0.950 . S
H615 C591 0.949 . S
H616 C593 0.950 . S
H617 C595 0.950 . S
C618 C619 1.349 . S
C618 C620 1.327 . S
C618 H643 0.950 . S
C619 C618 1.349 . S
C619 C635 1.349 . S
C620 C618 1.327 . S
C620 C639 1.429 . S
C620 H644 0.950 . S
C621 C638 1.574 . S
C621 C640 1.368 1_565 S
C621 H645 0.949 1_565 S
H622 C626 0.949 . S
C623 C624 1.349 . S
C623 C625 1.327 . S
C623 H646 0.950 . S
C624 C623 1.349 . S
C624 C636 1.349 . S
C625 C623 1.327 . S
C625 C641 1.429 . S
C625 H647 0.950 . S
C626 H622 0.949 . S
C626 C634 1.574 1_565 S
C626 C642 1.368 . S
H627 C635 0.950 . S
H628 C633 0.950 . S
H629 C634 0.949 . S
H630 C636 0.950 . S
H631 C637 0.950 . S
H632 C638 0.949 . S
C633 H628 0.950 . S
C633 C635 1.327 . S
C633 C639 1.429 . S
C634 C626 1.574 1_545 S
C634 H629 0.949 . S
C634 C640 1.368 1_554 S
C635 C619 1.349 . S
C635 H627 0.950 . S
C635 C633 1.327 . S
C636 C624 1.349 . S
C636 H630 0.950 . S
C636 C637 1.327 . S
C637 H631 0.950 . S
C637 C636 1.327 . S
C637 C641 1.429 . S
C638 C621 1.574 . S
C638 H632 0.949 . S
C638 C642 1.368 1_556 S
C639 C620 1.429 . S
C639 C633 1.429 . S
C639 C640 1.523 . S
C640 C621 1.368 1_545 S
C640 C634 1.368 1_556 S
C640 C639 1.523 . S
C641 C625 1.429 . S
C641 C637 1.429 . S
C641 C642 1.523 . S
C642 C626 1.368 . S
C642 C638 1.368 1_554 S
C642 C641 1.523 . S
H643 C618 0.950 . S
H644 C620 0.950 . S
H645 C621 0.949 1_545 S
H646 C623 0.950 . S
H647 C625 0.950 . S
C648 C649 1.349 . S
C648 C650 1.327 . S
C648 H673 0.950 . S
C649 C648 1.349 . S
C649 C665 1.349 . S
C650 C648 1.327 . S
C650 C669 1.429 . S
C650 H674 0.950 . S
C651 C668 1.574 . S
C651 C670 1.368 . S
C651 H675 0.949 . S
H652 C656 0.949 . S
C653 C654 1.349 . S
C653 C655 1.327 . S
C653 H676 0.950 . S
C654 C653 1.349 . S
C654 C666 1.349 . S
C655 C653 1.327 . S
C655 C671 1.429 . S
C655 H677 0.950 . S
C656 H652 0.949 . S
C656 C664 1.574 . S
C656 C672 1.368 . S
H657 C665 0.950 . S
H658 C663 0.950 . S
H659 C664 0.949 . S
H660 C666 0.950 . S
H661 C667 0.950 . S
H662 C668 0.949 . S
C663 H658 0.950 . S
C663 C665 1.327 . S
C663 C669 1.429 . S
C664 C656 1.574 . S
C664 H659 0.949 . S
C664 C670 1.368 . S
C665 C649 1.349 . S
C665 H657 0.950 . S
C665 C663 1.327 . S
C666 C654 1.349 . S
C666 H660 0.950 . S
C666 C667 1.327 . S
C667 H661 0.950 . S
C667 C666 1.327 . S
C667 C671 1.429 . S
C668 C651 1.574 . S
C668 H662 0.949 . S
C668 C672 1.368 . S
C669 C650 1.429 . S
C669 C663 1.429 . S
C669 C670 1.523 . S
C670 C651 1.368 . S
C670 C664 1.368 . S
C670 C669 1.523 . S
C671 C655 1.429 . S
C671 C667 1.429 . S
C671 C672 1.523 . S
C672 C656 1.368 . S
C672 C668 1.368 . S
C672 C671 1.523 . S
H673 C648 0.950 . S
H674 C650 0.950 . S
H675 C651 0.949 . S
H676 C653 0.950 . S
H677 C655 0.950 . S
C678 C679 1.349 . S
C678 C680 1.327 . S
C678 H703 0.950 . S
C679 C678 1.349 . S
C679 C695 1.349 . S
C680 C678 1.327 . S
C680 C699 1.429 . S
C680 H704 0.950 . S
C681 C698 1.574 1_565 S
C681 C700 1.368 . S
C681 H705 0.949 . S
H682 C686 0.949 . S
C683 C684 1.349 . S
C683 C685 1.327 . S
C683 H706 0.950 . S
C684 C683 1.349 . S
C684 C696 1.349 . S
C685 C683 1.327 . S
C685 C701 1.429 . S
C685 H707 0.950 . S
C686 H682 0.949 . S
C686 C694 1.574 . S
C686 C702 1.356 1_565 S
H687 C695 0.950 . S
H688 C693 0.950 . S
H689 C694 0.949 . S
H690 C696 0.950 . S
H691 C697 0.950 1_565 S
H692 C698 0.949 . S
C693 H688 0.950 . S
C693 C695 1.327 . S
C693 C699 1.429 . S
C694 C686 1.574 . S
C694 H689 0.949 . S
C694 C700 1.368 . S
C695 C679 1.349 . S
C695 H687 0.950 . S
C695 C693 1.327 . S
C696 C684 1.349 . S
C696 H690 0.950 . S
C696 C697 1.327 . S
C697 H691 0.950 1_545 S
C697 C696 1.327 . S
C697 C701 1.429 . S
C698 C681 1.574 1_545 S
C698 H692 0.949 . S
C698 C702 1.374 . S
C699 C680 1.429 . S
C699 C693 1.429 . S
C699 C700 1.523 . S
C700 C681 1.368 . S
C700 C694 1.368 . S
C700 C699 1.523 . S
C701 C685 1.429 . S
C701 C697 1.429 . S
C701 C702 1.531 . S
C702 C686 1.356 1_545 S
C702 C698 1.374 . S
C702 C701 1.531 . S
H703 C678 0.950 . S
H704 C680 0.950 . S
H705 C681 0.949 . S
H706 C683 0.950 . S
H707 C685 0.950 . S
C708 C709 1.349 . S
C708 C710 1.327 . S
C708 H733 0.950 . S
C709 C708 1.349 . S
C709 C725 1.349 . S
C710 C708 1.327 . S
C710 C729 1.429 . S
C710 H734 0.950 . S
C711 C728 1.574 . S
C711 C730 1.368 . S
C711 H735 0.949 . S
H712 C716 0.949 . S
C713 C714 1.349 . S
C713 C715 1.327 . S
C713 H736 0.950 . S
C714 C713 1.349 . S
C714 C726 1.349 . S
C715 C713 1.327 . S
C715 C731 1.429 . S
C715 H737 0.950 . S
C716 H712 0.949 . S
C716 C724 1.574 . S
C716 C732 1.368 . S
H717 C725 0.950 . S
H718 C723 0.950 . S
H719 C724 0.949 . S
H720 C726 0.950 . S
H721 C727 0.950 . S
H722 C728 0.949 . S
C723 H718 0.950 . S
C723 C725 1.327 . S
C723 C729 1.429 . S
C724 C716 1.574 . S
C724 H719 0.949 . S
C724 C730 1.368 . S
C725 C709 1.349 . S
C725 H717 0.950 . S
C725 C723 1.327 . S
C726 C714 1.349 . S
C726 H720 0.950 . S
C726 C727 1.327 . S
C727 H721 0.950 . S
C727 C726 1.327 . S
C727 C731 1.429 . S
C728 C711 1.574 . S
C728 H722 0.949 . S
C728 C732 1.368 . S
C729 C710 1.429 . S
C729 C723 1.429 . S
C729 C730 1.523 . S
C730 C711 1.368 . S
C730 C724 1.368 . S
C730 C729 1.523 . S
C731 C715 1.429 . S
C731 C727 1.429 . S
C731 C732 1.523 . S
C732 C716 1.368 . S
C732 C728 1.368 . S
C732 C731 1.523 . S
H733 C708 0.950 . S
H734 C710 0.950 . S
H735 C711 0.949 . S
H736 C713 0.950 . S
H737 C715 0.950 . S
C738 C739 1.349 . S
C738 C740 1.327 . S
C738 H763 0.950 . S
C739 C738 1.349 . S
C739 C755 1.349 . S
C740 C738 1.327 . S
C740 C759 1.429 . S
C740 H764 0.950 . S
C741 C758 1.569 1_545 S
C741 C760 1.368 1_655 S
C741 H765 0.949 . S
H742 C746 0.949 . S
C743 C744 1.349 . S
C743 C745 1.327 . S
C743 H766 0.950 . S
C744 C743 1.349 . S
C744 C756 1.349 . S
C745 C743 1.327 . S
C745 C761 1.429 . S
C745 H767 0.950 . S
C746 H742 0.949 . S
C746 C754 1.574 1_565 S
C746 C762 1.368 1_455 S
H747 C755 0.950 . S
H748 C753 0.950 1_655 S
H749 C754 0.949 . S
H750 C756 0.950 . S
H751 C757 0.950 . S
H752 C758 0.950 . S
C753 H748 0.950 1_455 S
C753 C755 1.327 . S
C753 C759 1.429 . S
C754 C746 1.574 1_545 S
C754 H749 0.949 . S
C754 C760 1.368 1_556 S
C755 C739 1.349 . S
C755 H747 0.950 . S
C755 C753 1.327 . S
C756 C744 1.349 . S
C756 H750 0.950 . S
C756 C757 1.327 . S
C757 H751 0.950 . S
C757 C756 1.327 . S
C757 C761 1.429 . S
C758 C741 1.569 1_565 S
C758 H752 0.950 . S
C758 C762 1.372 1_554 S
C759 C740 1.429 . S
C759 C753 1.429 . S
C759 C760 1.523 . S
C760 C741 1.368 1_455 S
C760 C754 1.368 1_554 S
C760 C759 1.523 . S
C761 C745 1.429 . S
C761 C757 1.429 . S
C761 C762 1.523 . S
C762 C746 1.368 1_655 S
C762 C758 1.372 1_556 S
C762 C761 1.523 . S
H763 C738 0.950 . S
H764 C740 0.950 . S
H765 C741 0.949 . S
H766 C743 0.950 . S
H767 C745 0.950 . S
C768 C769 1.349 . S
C768 C770 1.327 . S
C768 H793 0.950 . S
C769 C768 1.349 . S
C769 C785 1.349 . S
C770 C768 1.327 . S
C770 C789 1.429 . S
C770 H794 0.950 . S
C771 C788 1.574 . S
C771 C790 1.368 . S
C771 H795 0.949 . S
H772 C776 0.949 . S
C773 C774 1.349 . S
C773 C775 1.327 . S
C773 H796 0.950 . S
C774 C773 1.349 . S
C774 C786 1.349 . S
C775 C773 1.327 . S
C775 C791 1.429 . S
C775 H797 0.950 . S
C776 H772 0.949 . S
C776 C784 1.574 . S
C776 C792 1.368 . S
H777 C785 0.950 . S
H778 C783 0.950 . S
H779 C784 0.949 . S
H780 C786 0.950 . S
H781 C787 0.950 . S
H782 C788 0.949 . S
C783 H778 0.950 . S
C783 C785 1.327 . S
C783 C789 1.429 . S
C784 C776 1.574 . S
C784 H779 0.949 . S
C784 C790 1.368 . S
C785 C769 1.349 . S
C785 H777 0.950 . S
C785 C783 1.327 . S
C786 C774 1.349 . S
C786 H780 0.950 . S
C786 C787 1.327 . S
C787 H781 0.950 . S
C787 C786 1.327 . S
C787 C791 1.429 . S
C788 C771 1.574 . S
C788 H782 0.949 . S
C788 C792 1.368 . S
C789 C770 1.429 . S
C789 C783 1.429 . S
C789 C790 1.523 . S
C790 C771 1.368 . S
C790 C784 1.368 . S
C790 C789 1.523 . S
C791 C775 1.429 . S
C791 C787 1.429 . S
C791 C792 1.523 . S
C792 C776 1.368 . S
C792 C788 1.368 . S
C792 C791 1.523 . S
H793 C768 0.950 . S
H794 C770 0.950 . S
H795 C771 0.949 . S
H796 C773 0.950 . S
H797 C775 0.950 . S
C798 C799 1.349 . S
C798 C800 1.327 . S
C798 H823 0.950 . S
C799 C798 1.349 . S
C799 C815 1.349 . S
C800 C798 1.327 . S
C800 C819 1.429 . S
C800 H824 0.950 . S
C801 C818 1.574 . S
C801 C820 1.368 1_554 S
C801 H825 0.949 . S
H802 C806 0.949 . S
C803 C804 1.349 . S
C803 C805 1.327 . S
C803 H826 0.950 . S
C804 C803 1.349 . S
C804 C816 1.349 . S
C805 C803 1.327 . S
C805 C821 1.429 . S
C805 H827 0.936 1_655 S
C806 H802 0.949 . S
C806 C814 1.574 1_655 S
C806 C822 1.368 1_556 S
H807 C815 0.950 . S
H808 C813 0.950 . S
H809 C814 0.949 . S
H810 C816 0.950 . S
H811 C817 0.967 . S
H812 C818 0.949 . S
C813 H808 0.950 . S
C813 C815 1.327 . S
C813 C819 1.429 . S
C814 C806 1.574 1_455 S
C814 H809 0.949 . S
C814 C820 1.368 . S
C815 C799 1.349 . S
C815 H807 0.950 . S
C815 C813 1.327 . S
C816 C804 1.349 . S
C816 H810 0.950 . S
C816 C817 1.327 . S
C817 H811 0.967 . S
C817 C816 1.327 . S
C817 C821 1.429 . S
C818 C801 1.574 . S
C818 H812 0.949 . S
C818 C822 1.368 1_455 S
C819 C800 1.429 . S
C819 C813 1.429 . S
C819 C820 1.523 . S
C820 C801 1.368 1_556 S
C820 C814 1.368 . S
C820 C819 1.523 . S
C821 C805 1.429 . S
C821 C817 1.429 . S
C821 C822 1.523 . S
C822 C806 1.368 1_554 S
C822 C818 1.368 1_655 S
C822 C821 1.523 . S
H823 C798 0.950 . S
H824 C800 0.950 . S
H825 C801 0.949 . S
H826 C803 0.950 . S
H827 C805 0.936 1_455 S
C828 C829 1.349 . S
C828 C830 1.327 . S
C828 H853 0.950 . S
C829 C828 1.349 . S
C829 C845 1.349 . S
C830 C828 1.327 . S
C830 C849 1.429 . S
C830 H854 0.950 . S
C831 C848 1.574 . S
C831 C850 1.368 . S
C831 H855 0.949 . S
H832 C836 0.949 . S
C833 C834 1.349 . S
C833 C835 1.327 . S
C833 H856 0.950 . S
C834 C833 1.349 . S
C834 C846 1.349 . S
C835 C833 1.327 . S
C835 C851 1.429 . S
C835 H857 0.950 . S
C836 H832 0.949 . S
C836 C844 1.574 . S
C836 C852 1.368 . S
H837 C845 0.950 . S
H838 C843 0.950 . S
H839 C844 0.949 . S
H840 C846 0.950 . S
H841 C847 0.950 . S
H842 C848 0.949 . S
C843 H838 0.950 . S
C843 C845 1.327 . S
C843 C849 1.429 . S
C844 C836 1.574 . S
C844 H839 0.949 . S
C844 C850 1.368 . S
C845 C829 1.349 . S
C845 H837 0.950 . S
C845 C843 1.327 . S
C846 C834 1.349 . S
C846 H840 0.950 . S
C846 C847 1.327 . S
C847 H841 0.950 . S
C847 C846 1.327 . S
C847 C851 1.429 . S
C848 C831 1.574 . S
C848 H842 0.949 . S
C848 C852 1.368 . S
C849 C830 1.429 . S
C849 C843 1.429 . S
C849 C850 1.523 . S
C850 C831 1.368 . S
C850 C844 1.368 . S
C850 C849 1.523 . S
C851 C835 1.429 . S
C851 C847 1.429 . S
C851 C852 1.523 . S
C852 C836 1.368 . S
C852 C848 1.368 . S
C852 C851 1.523 . S
H853 C828 0.950 . S
H854 C830 0.950 . S
H855 C831 0.949 . S
H856 C833 0.950 . S
H857 C835 0.950 . S
C858 C859 1.349 . S
C858 C860 1.327 . S
C858 H883 0.950 . S
C859 C858 1.349 . S
C859 C875 1.349 . S
C860 C858 1.327 . S
C860 C879 1.429 . S
C860 H884 0.950 . S
C861 C878 1.574 . S
C861 C880 1.368 . S
C861 H885 0.949 . S
H862 C866 0.949 . S
C863 C864 1.349 . S
C863 C865 1.327 . S
C863 H886 0.950 . S
C864 C863 1.349 . S
C864 C876 1.349 . S
C865 C863 1.327 . S
C865 C881 1.429 . S
C865 H887 0.950 . S
C866 H862 0.949 . S
C866 C874 1.574 1_455 S
C866 C882 1.368 . S
H867 C875 0.950 . S
H868 C873 0.950 . S
H869 C874 0.949 . S
H870 C876 0.950 . S
H871 C877 0.950 . S
H872 C878 0.949 . S
C873 H868 0.950 . S
C873 C875 1.327 . S
C873 C879 1.429 . S
C874 C866 1.574 1_655 S
C874 H869 0.949 . S
C874 C880 1.368 . S
C875 C859 1.349 . S
C875 H867 0.950 . S
C875 C873 1.327 . S
C876 C864 1.349 . S
C876 H870 0.950 . S
C876 C877 1.327 . S
C877 H871 0.950 . S
C877 C876 1.327 . S
C877 C881 1.429 . S
C878 C861 1.574 . S
C878 H872 0.949 . S
C878 C882 1.368 1_655 S
C879 C860 1.429 . S
C879 C873 1.429 . S
C879 C880 1.523 . S
C880 C861 1.368 . S
C880 C874 1.368 . S
C880 C879 1.523 . S
C881 C865 1.429 . S
C881 C877 1.429 . S
C881 C882 1.523 . S
C882 C866 1.368 . S
C882 C878 1.368 1_455 S
C882 C881 1.523 . S
H883 C858 0.950 . S
H884 C860 0.950 . S
H885 C861 0.949 . S
H886 C863 0.950 . S
H887 C865 0.950 . S
C888 C889 1.349 . S
C888 C890 1.327 . S
C888 H913 0.950 . S
C889 C888 1.349 . S
C889 C905 1.349 . S
C890 C888 1.327 . S
C890 C909 1.429 . S
C890 H914 0.950 . S
C891 C908 1.574 . S
C891 C910 1.368 1_554 S
C891 H915 0.949 . S
H892 C896 0.949 . S
C893 C894 1.349 . S
C893 C895 1.327 . S
C893 H916 0.950 . S
C894 C893 1.349 . S
C894 C906 1.349 . S
C895 C893 1.327 . S
C895 C911 1.429 . S
C895 H917 0.950 . S
C896 H892 0.949 . S
C896 C904 1.574 . S
C896 C912 1.368 1_556 S
H897 C905 0.950 . S
H898 C903 0.950 . S
H899 C904 0.949 . S
H900 C906 0.950 . S
H901 C907 0.950 . S
H902 C908 0.949 . S
C903 H898 0.950 . S
C903 C905 1.327 . S
C903 C909 1.429 . S
C904 C896 1.574 . S
C904 H899 0.949 . S
C904 C910 1.368 . S
C905 C889 1.349 . S
C905 H897 0.950 . S
C905 C903 1.327 . S
C906 C894 1.349 . S
C906 H900 0.950 . S
C906 C907 1.327 . S
C907 H901 0.950 . S
C907 C906 1.327 . S
C907 C911 1.429 . S
C908 C891 1.574 . S
C908 H902 0.949 . S
C908 C912 1.368 . S
C909 C890 1.429 . S
C909 C903 1.429 . S
C909 C910 1.523 . S
C910 C891 1.368 1_556 S
C910 C904 1.368 . S
C910 C909 1.523 . S
C911 C895 1.429 . S
C911 C907 1.429 . S
C911 C912 1.523 . S
C912 C896 1.368 1_554 S
C912 C908 1.368 . S
C912 C911 1.523 . S
H913 C888 0.950 . S
H914 C890 0.950 . S
H915 C891 0.949 . S
H916 C893 0.950 . S
H917 C895 0.950 . S
C918 C919 1.349 . S
C918 C920 1.327 . S
C918 H943 0.950 . S
C919 C918 1.349 . S
C919 C935 1.349 . S
C920 C918 1.327 . S
C920 C939 1.429 . S
C920 H944 0.950 . S
C921 C938 1.574 . S
C921 C940 1.368 . S
C921 H945 0.949 . S
H922 C926 0.949 . S
C923 C924 1.349 . S
C923 C925 1.327 . S
C923 H946 0.950 . S
C924 C923 1.349 . S
C924 C936 1.349 . S
C925 C923 1.327 . S
C925 C941 1.429 . S
C925 H947 0.950 . S
C926 H922 0.949 . S
C926 C934 1.574 . S
C926 C942 1.368 . S
H927 C935 0.950 . S
H928 C933 0.950 . S
H929 C934 0.949 . S
H930 C936 0.950 . S
H931 C937 0.950 . S
H932 C938 0.949 . S
C933 H928 0.950 . S
C933 C935 1.327 . S
C933 C939 1.429 . S
C934 C926 1.574 . S
C934 H929 0.949 . S
C934 C940 1.368 . S
C935 C919 1.349 . S
C935 H927 0.950 . S
C935 C933 1.327 . S
C936 C924 1.349 . S
C936 H930 0.950 . S
C936 C937 1.327 . S
C937 H931 0.950 . S
C937 C936 1.327 . S
C937 C941 1.429 . S
C938 C921 1.574 . S
C938 H932 0.949 . S
C938 C942 1.368 . S
C939 C920 1.429 . S
C939 C933 1.429 . S
C939 C940 1.523 . S
C940 C921 1.368 . S
C940 C934 1.368 . S
C940 C939 1.523 . S
C941 C925 1.429 . S
C941 C937 1.429 . S
C941 C942 1.523 . S
C942 C926 1.368 . S
C942 C938 1.368 . S
C942 C941 1.523 . S
H943 C918 0.950 . S
H944 C920 0.950 . S
H945 C921 0.949 . S
H946 C923 0.950 . S
H947 C925 0.950 . S
C948 C949 1.349 . S
C948 C950 1.327 . S
C948 H973 0.950 . S
C949 C948 1.349 . S
C949 C965 1.349 . S
C950 C948 1.327 . S
C950 C969 1.429 . S
C950 H974 0.950 . S
C951 C968 1.574 . S
C951 C970 1.368 . S
C951 H975 0.949 . S
H952 C956 0.949 . S
C953 C954 1.349 . S
C953 C955 1.327 . S
C953 H976 0.950 . S
C954 C953 1.349 . S
C954 C966 1.349 . S
C955 C953 1.327 . S
C955 C971 1.429 . S
C955 H977 0.950 . S
C956 H952 0.949 . S
C956 C964 1.574 . S
C956 C972 1.368 . S
H957 C965 0.950 . S
H958 C963 0.950 . S
H959 C964 0.949 . S
H960 C966 0.950 . S
H961 C967 0.950 . S
H962 C968 0.949 . S
C963 H958 0.950 . S
C963 C965 1.327 . S
C963 C969 1.429 . S
C964 C956 1.574 . S
C964 H959 0.949 . S
C964 C970 1.368 . S
C965 C949 1.349 . S
C965 H957 0.950 . S
C965 C963 1.327 . S
C966 C954 1.349 . S
C966 H960 0.950 . S
C966 C967 1.327 . S
C967 H961 0.950 . S
C967 C966 1.327 . S
C967 C971 1.429 . S
C968 C951 1.574 . S
C968 H962 0.949 . S
C968 C972 1.368 . S
C969 C950 1.429 . S
C969 C963 1.429 . S
C969 C970 1.523 . S
C970 C951 1.368 . S
C970 C964 1.368 . S
C970 C969 1.523 . S
C971 C955 1.429 . S
C971 C967 1.429 . S
C971 C972 1.523 . S
C972 C956 1.368 . S
C972 C968 1.368 . S
C972 C971 1.523 . S
H973 C948 0.950 . S
H974 C950 0.950 . S
H975 C951 0.949 . S
H976 C953 0.950 . S
H977 C955 0.950 . S
C978 C979 1.349 . S
C978 C980 1.327 . S
C978 H1003 0.950 . S
C979 C978 1.349 . S
C979 C995 1.349 . S
C980 C978 1.327 . S
C980 C999 1.429 . S
C980 H1004 0.950 . S
C981 C998 1.574 . S
C981 C1000 1.368 . S
C981 H1005 0.949 . S
H982 C986 0.949 . S
C983 C984 1.349 . S
C983 C985 1.327 . S
C983 H1006 0.950 . S
C984 C983 1.349 . S
C984 C996 1.349 . S
C985 C983 1.327 . S
C985 C1001 1.429 . S
C985 H1007 0.950 . S
C986 H982 0.949 . S
C986 C994 1.574 . S
C986 C1002 1.368 . S
H987 C995 0.950 . S
H988 C993 0.950 . S
H989 C994 0.949 . S
H990 C996 0.950 . S
H991 C997 0.950 . S
H992 C998 0.949 . S
C993 H988 0.950 . S
C993 C995 1.327 . S
C993 C999 1.429 . S
C994 C986 1.574 . S
C994 H989 0.949 . S
C994 C1000 1.368 . S
C995 C979 1.349 . S
C995 H987 0.950 . S
C995 C993 1.327 . S
C996 C984 1.349 . S
C996 H990 0.950 . S
C996 C997 1.327 . S
C997 H991 0.950 . S
C997 C996 1.327 . S
C997 C1001 1.429 . S
C998 C981 1.574 . S
C998 H992 0.949 . S
C998 C1002 1.368 . S
C999 C980 1.429 . S
C999 C993 1.429 . S
C999 C1000 1.523 . S
C1000 C981 1.368 . S
C1000 C994 1.368 . S
C1000 C999 1.523 . S
C1001 C985 1.429 . S
C1001 C997 1.429 . S
C1001 C1002 1.523 . S
C1002 C986 1.368 . S
C1002 C998 1.368 . S
C1002 C1001 1.523 . S
H1003 C978 0.950 . S
H1004 C980 0.950 . S
H1005 C981 0.949 . S
H1006 C983 0.950 . S
H1007 C985 0.950 . S
C1008 C1009 1.349 . S
C1008 C1010 1.327 . S
C1008 H1033 0.950 . S
C1009 C1008 1.349 . S
C1009 C1025 1.349 . S
C1010 C1008 1.327 . S
C1010 C1029 1.429 . S
C1010 H1034 0.950 . S
C1011 C1028 1.574 1_545 S
C1011 C1030 1.368 . S
C1011 H1035 0.949 . S
H1012 C1016 0.949 . S
C1013 C1014 1.349 . S
C1013 C1015 1.327 . S
C1013 H1036 0.950 . S
C1014 C1013 1.349 . S
C1014 C1026 1.349 . S
C1015 C1013 1.327 . S
C1015 C1031 1.429 . S
C1015 H1037 0.950 . S
C1016 H1012 0.949 . S
C1016 C1024 1.574 . S
C1016 C1032 1.368 1_545 S
H1017 C1025 0.950 . S
H1018 C1023 0.950 . S
H1019 C1024 0.949 . S
H1020 C1026 0.950 . S
H1021 C1027 0.950 . S
H1022 C1028 0.949 . S
C1023 H1018 0.950 . S
C1023 C1025 1.327 . S
C1023 C1029 1.429 . S
C1024 C1016 1.574 . S
C1024 H1019 0.949 . S
C1024 C1030 1.368 . S
C1025 C1009 1.349 . S
C1025 H1017 0.950 . S
C1025 C1023 1.327 . S
C1026 C1014 1.349 . S
C1026 H1020 0.950 . S
C1026 C1027 1.327 . S
C1027 H1021 0.950 . S
C1027 C1026 1.327 . S
C1027 C1031 1.429 . S
C1028 C1011 1.574 1_565 S
C1028 H1022 0.949 . S
C1028 C1032 1.368 . S
C1029 C1010 1.429 . S
C1029 C1023 1.429 . S
C1029 C1030 1.523 . S
C1030 C1011 1.368 . S
C1030 C1024 1.368 . S
C1030 C1029 1.523 . S
C1031 C1015 1.429 . S
C1031 C1027 1.429 . S
C1031 C1032 1.523 . S
C1032 C1016 1.368 1_565 S
C1032 C1028 1.368 . S
C1032 C1031 1.523 . S
H1033 C1008 0.950 . S
H1034 C1010 0.950 . S
H1035 C1011 0.949 . S
H1036 C1013 0.950 . S
H1037 C1015 0.950 . S
C1038 C1039 1.349 . S
C1038 C1040 1.327 . S
C1038 H1063 0.950 . S
C1039 C1038 1.349 . S
C1039 C1055 1.349 . S
C1040 C1038 1.327 . S
C1040 C1059 1.429 . S
C1040 H1064 0.950 . S
C1041 C1058 1.574 . S
C1041 C1060 1.368 . S
C1041 H1065 0.949 . S
H1042 C1046 0.949 . S
C1043 C1044 1.349 . S
C1043 C1045 1.327 . S
C1043 H1066 0.950 . S
C1044 C1043 1.349 . S
C1044 C1056 1.349 . S
C1045 C1043 1.327 . S
C1045 C1061 1.429 . S
C1045 H1067 0.950 . S
C1046 H1042 0.949 . S
C1046 C1054 1.574 . S
C1046 C1062 1.368 . S
H1047 C1055 0.950 . S
H1048 C1053 0.950 . S
H1049 C1054 0.949 . S
H1050 C1056 0.950 . S
H1051 C1057 0.950 . S
H1052 C1058 0.949 . S
C1053 H1048 0.950 . S
C1053 C1055 1.327 . S
C1053 C1059 1.429 . S
C1054 C1046 1.574 . S
C1054 H1049 0.949 . S
C1054 C1060 1.368 . S
C1055 C1039 1.349 . S
C1055 H1047 0.950 . S
C1055 C1053 1.327 . S
C1056 C1044 1.349 . S
C1056 H1050 0.950 . S
C1056 C1057 1.327 . S
C1057 H1051 0.950 . S
C1057 C1056 1.327 . S
C1057 C1061 1.429 . S
C1058 C1041 1.574 . S
C1058 H1052 0.949 . S
C1058 C1062 1.368 . S
C1059 C1040 1.429 . S
C1059 C1053 1.429 . S
C1059 C1060 1.523 . S
C1060 C1041 1.368 . S
C1060 C1054 1.368 . S
C1060 C1059 1.523 . S
C1061 C1045 1.429 . S
C1061 C1057 1.429 . S
C1061 C1062 1.523 . S
C1062 C1046 1.368 . S
C1062 C1058 1.368 . S
C1062 C1061 1.523 . S
H1063 C1038 0.950 . S
H1064 C1040 0.950 . S
H1065 C1041 0.949 . S
H1066 C1043 0.950 . S
H1067 C1045 0.950 . S
C1068 C1069 1.349 . S
C1068 C1070 1.327 . S
C1068 H1093 0.950 . S
C1069 C1068 1.349 . S
C1069 C1085 1.349 . S
C1070 C1068 1.327 . S
C1070 C1089 1.429 . S
C1070 H1094 0.950 . S
C1071 C1088 1.574 . S
C1071 C1090 1.368 . S
C1071 H1095 0.949 . S
H1072 C1076 0.949 . S
C1073 C1074 1.349 . S
C1073 C1075 1.327 . S
C1073 H1096 0.950 . S
C1074 C1073 1.349 . S
C1074 C1086 1.349 . S
C1075 C1073 1.327 . S
C1075 C1091 1.429 . S
C1075 H1097 0.950 . S
C1076 H1072 0.949 . S
C1076 C1084 1.574 1_545 S
C1076 C1092 1.368 . S
H1077 C1085 0.950 . S
H1078 C1083 0.950 . S
H1079 C1084 0.949 . S
H1080 C1086 0.950 . S
H1081 C1087 0.950 . S
H1082 C1088 0.949 . S
C1083 H1078 0.950 . S
C1083 C1085 1.327 . S
C1083 C1089 1.429 . S
C1084 C1076 1.574 1_565 S
C1084 H1079 0.949 . S
C1084 C1090 1.368 . S
C1085 C1069 1.349 . S
C1085 H1077 0.950 . S
C1085 C1083 1.327 . S
C1086 C1074 1.349 . S
C1086 H1080 0.950 . S
C1086 C1087 1.327 . S
C1087 H1081 0.950 . S
C1087 C1086 1.327 . S
C1087 C1091 1.429 . S
C1088 C1071 1.574 . S
C1088 H1082 0.949 . S
C1088 C1092 1.368 1_565 S
C1089 C1070 1.429 . S
C1089 C1083 1.429 . S
C1089 C1090 1.523 . S
C1090 C1071 1.368 . S
C1090 C1084 1.368 . S
C1090 C1089 1.523 . S
C1091 C1075 1.429 . S
C1091 C1087 1.429 . S
C1091 C1092 1.523 . S
C1092 C1076 1.368 . S
C1092 C1088 1.368 1_545 S
C1092 C1091 1.523 . S
H1093 C1068 0.950 . S
H1094 C1070 0.950 . S
H1095 C1071 0.949 . S
H1096 C1073 0.950 . S
H1097 C1075 0.950 . S
C1098 C1099 1.349 . S
C1098 C1100 1.327 . S
C1098 H1123 0.950 . S
C1099 C1098 1.349 . S
C1099 C1115 1.349 . S
C1100 C1098 1.327 . S
C1100 C1119 1.429 . S
C1100 H1124 0.950 . S
C1101 C1118 1.574 1_556 S
C1101 C1120 1.368 . S
C1101 H1125 0.949 . S
H1102 C1106 0.949 . S
C1103 C1104 1.349 . S
C1103 C1105 1.327 . S
C1103 H1126 0.950 . S
C1104 C1103 1.349 . S
C1104 C1116 1.349 . S
C1105 C1103 1.327 . S
C1105 C1121 1.429 . S
C1105 H1127 0.950 . S
C1106 H1102 0.949 . S
C1106 C1114 1.574 1_554 S
C1106 C1122 1.368 . S
H1107 C1115 0.950 . S
H1108 C1113 0.950 . S
H1109 C1114 0.949 . S
H1110 C1116 0.950 . S
H1111 C1117 0.950 . S
H1112 C1118 0.949 . S
C1113 H1108 0.950 . S
C1113 C1115 1.327 . S
C1113 C1119 1.429 . S
C1114 C1106 1.574 1_556 S
C1114 H1109 0.949 . S
C1114 C1120 1.368 . S
C1115 C1099 1.349 . S
C1115 H1107 0.950 . S
C1115 C1113 1.327 . S
C1116 C1104 1.349 . S
C1116 H1110 0.950 . S
C1116 C1117 1.327 . S
C1117 H1111 0.950 . S
C1117 C1116 1.327 . S
C1117 C1121 1.429 . S
C1118 C1101 1.574 1_554 S
C1118 H1112 0.949 . S
C1118 C1122 1.368 . S
C1119 C1100 1.429 . S
C1119 C1113 1.429 . S
C1119 C1120 1.523 . S
C1120 C1101 1.368 . S
C1120 C1114 1.368 . S
C1120 C1119 1.523 . S
C1121 C1105 1.429 . S
C1121 C1117 1.429 . S
C1121 C1122 1.523 . S
C1122 C1106 1.368 . S
C1122 C1118 1.368 . S
C1122 C1121 1.523 . S
H1123 C1098 0.950 . S
H1124 C1100 0.950 . S
H1125 C1101 0.949 . S
H1126 C1103 0.950 . S
H1127 C1105 0.950 . S
C1128 C1129 1.349 . S
C1128 C1130 1.327 . S
C1128 H1153 0.950 . S
C1129 C1128 1.349 . S
C1129 C1145 1.349 . S
C1130 C1128 1.327 . S
C1130 C1149 1.429 . S
C1130 H1154 0.950 . S
C1131 C1148 1.590 . S
C1131 C1150 1.368 . S
C1131 H1155 0.949 . S
H1132 C1136 0.949 . S
C1133 C1134 1.349 . S
C1133 C1135 1.327 . S
C1133 H1156 0.950 . S
C1134 C1133 1.349 . S
C1134 C1146 1.349 . S
C1135 C1133 1.327 . S
C1135 C1151 1.429 . S
C1135 H1157 0.950 . S
C1136 H1132 0.949 . S
C1136 C1144 1.575 . S
C1136 C1152 1.368 . S
H1137 C1145 0.950 . S
H1138 C1143 0.950 . S
H1139 C1144 0.949 1_455 S
H1140 C1146 0.950 . S
H1141 C1147 0.950 . S
H1142 C1148 0.948 . S
C1143 H1138 0.950 . S
C1143 C1145 1.327 . S
C1143 C1149 1.429 . S
C1144 C1136 1.575 . S
C1144 H1139 0.949 1_655 S
C1144 C1150 1.367 1_655 S
C1145 C1129 1.349 . S
C1145 H1137 0.950 . S
C1145 C1143 1.327 . S
C1146 C1134 1.349 . S
C1146 H1140 0.950 . S
C1146 C1147 1.327 . S
C1147 H1141 0.950 . S
C1147 C1146 1.327 . S
C1147 C1151 1.429 . S
C1148 C1131 1.590 . S
C1148 H1142 0.948 . S
C1148 C1152 1.354 1_455 S
C1149 C1130 1.429 . S
C1149 C1143 1.429 . S
C1149 C1150 1.523 . S
C1150 C1131 1.368 . S
C1150 C1144 1.367 1_455 S
C1150 C1149 1.523 . S
C1151 C1135 1.429 . S
C1151 C1147 1.429 . S
C1151 C1152 1.523 . S
C1152 C1136 1.368 . S
C1152 C1148 1.354 1_655 S
C1152 C1151 1.523 . S
H1153 C1128 0.950 . S
H1154 C1130 0.950 . S
H1155 C1131 0.949 . S
H1156 C1133 0.950 . S
H1157 C1135 0.950 . S
C1158 C1159 1.349 . S
C1158 C1160 1.327 . S
C1158 H1183 0.950 . S
C1159 C1158 1.349 . S
C1159 C1175 1.349 . S
C1160 C1158 1.327 . S
C1160 C1179 1.429 . S
C1160 H1184 0.950 . S
C1161 C1178 1.574 . S
C1161 C1180 1.368 . S
C1161 H1185 0.949 . S
H1162 C1166 0.949 . S
C1163 C1164 1.349 . S
C1163 C1165 1.327 . S
C1163 H1186 0.950 . S
C1164 C1163 1.349 . S
C1164 C1176 1.349 . S
C1165 C1163 1.327 . S
C1165 C1181 1.429 . S
C1165 H1187 0.950 . S
C1166 H1162 0.949 . S
C1166 C1174 1.574 . S
C1166 C1182 1.368 . S
H1167 C1175 0.950 . S
H1168 C1173 0.950 . S
H1169 C1174 0.949 . S
H1170 C1176 0.950 . S
H1171 C1177 0.950 . S
H1172 C1178 0.949 . S
C1173 H1168 0.950 . S
C1173 C1175 1.327 . S
C1173 C1179 1.429 . S
C1174 C1166 1.574 . S
C1174 H1169 0.949 . S
C1174 C1180 1.368 . S
C1175 C1159 1.349 . S
C1175 H1167 0.950 . S
C1175 C1173 1.327 . S
C1176 C1164 1.349 . S
C1176 H1170 0.950 . S
C1176 C1177 1.327 . S
C1177 H1171 0.950 . S
C1177 C1176 1.327 . S
C1177 C1181 1.429 . S
C1178 C1161 1.574 . S
C1178 H1172 0.949 . S
C1178 C1182 1.368 . S
C1179 C1160 1.429 . S
C1179 C1173 1.429 . S
C1179 C1180 1.523 . S
C1180 C1161 1.368 . S
C1180 C1174 1.368 . S
C1180 C1179 1.523 . S
C1181 C1165 1.429 . S
C1181 C1177 1.429 . S
C1181 C1182 1.523 . S
C1182 C1166 1.368 . S
C1182 C1178 1.368 . S
C1182 C1181 1.523 . S
H1183 C1158 0.950 . S
H1184 C1160 0.950 . S
H1185 C1161 0.949 . S
H1186 C1163 0.950 . S
H1187 C1165 0.950 . S
C1188 C1189 1.349 . S
C1188 C1190 1.327 . S
C1188 H1213 0.950 . S
C1189 C1188 1.349 . S
C1189 C1205 1.349 . S
C1190 C1188 1.327 . S
C1190 C1209 1.429 . S
C1190 H1214 0.950 . S
C1191 C1208 1.574 . S
C1191 C1210 1.368 1_455 S
C1191 H1215 0.949 . S
H1192 C1196 0.949 . S
C1193 C1194 1.349 . S
C1193 C1195 1.327 . S
C1193 H1216 0.950 . S
C1194 C1193 1.349 . S
C1194 C1206 1.349 . S
C1195 C1193 1.327 . S
C1195 C1211 1.429 . S
C1195 H1217 0.950 . S
C1196 H1192 0.949 . S
C1196 C1204 1.574 1_455 S
C1196 C1212 1.368 . S
H1197 C1205 0.950 . S
H1198 C1203 0.950 . S
H1199 C1204 0.949 . S
H1200 C1206 0.950 . S
H1201 C1207 0.950 . S
H1202 C1208 0.949 . S
C1203 H1198 0.950 . S
C1203 C1205 1.327 . S
C1203 C1209 1.429 . S
C1204 C1196 1.574 1_655 S
C1204 H1199 0.949 . S
C1204 C1210 1.368 . S
C1205 C1189 1.349 . S
C1205 H1197 0.950 . S
C1205 C1203 1.327 . S
C1206 C1194 1.349 . S
C1206 H1200 0.950 . S
C1206 C1207 1.327 . S
C1207 H1201 0.950 . S
C1207 C1206 1.327 . S
C1207 C1211 1.429 . S
C1208 C1191 1.574 . S
C1208 H1202 0.949 . S
C1208 C1212 1.368 . S
C1209 C1190 1.429 . S
C1209 C1203 1.429 . S
C1209 C1210 1.523 . S
C1210 C1191 1.368 1_655 S
C1210 C1204 1.368 . S
C1210 C1209 1.523 . S
C1211 C1195 1.429 . S
C1211 C1207 1.429 . S
C1211 C1212 1.523 . S
C1212 C1196 1.368 . S
C1212 C1208 1.368 . S
C1212 C1211 1.523 . S
H1213 C1188 0.950 . S
H1214 C1190 0.950 . S
H1215 C1191 0.949 . S
H1216 C1193 0.950 . S
H1217 C1195 0.950 . S
C1218 C1219 1.349 . S
C1218 C1220 1.327 . S
C1218 H1243 0.950 . S
C1219 C1218 1.349 . S
C1219 C1235 1.349 . S
C1220 C1218 1.327 . S
C1220 C1239 1.429 . S
C1220 H1244 0.950 . S
C1221 C1238 1.574 . S
C1221 C1240 1.368 . S
C1221 H1245 0.949 . S
H1222 C1226 0.949 . S
C1223 C1224 1.349 . S
C1223 C1225 1.327 . S
C1223 H1246 0.950 . S
C1224 C1223 1.349 . S
C1224 C1236 1.349 . S
C1225 C1223 1.327 . S
C1225 C1241 1.429 . S
C1225 H1247 0.950 . S
C1226 H1222 0.949 . S
C1226 C1234 1.574 . S
C1226 C1242 1.368 . S
H1227 C1235 0.950 . S
H1228 C1233 0.950 . S
H1229 C1234 0.949 . S
H1230 C1236 0.950 . S
H1231 C1237 0.950 . S
H1232 C1238 0.949 . S
C1233 H1228 0.950 . S
C1233 C1235 1.327 . S
C1233 C1239 1.429 . S
C1234 C1226 1.574 . S
C1234 H1229 0.949 . S
C1234 C1240 1.368 . S
C1235 C1219 1.349 . S
C1235 H1227 0.950 . S
C1235 C1233 1.327 . S
C1236 C1224 1.349 . S
C1236 H1230 0.950 . S
C1236 C1237 1.327 . S
C1237 H1231 0.950 . S
C1237 C1236 1.327 . S
C1237 C1241 1.429 . S
C1238 C1221 1.574 . S
C1238 H1232 0.949 . S
C1238 C1242 1.368 . S
C1239 C1220 1.429 . S
C1239 C1233 1.429 . S
C1239 C1240 1.523 . S
C1240 C1221 1.368 . S
C1240 C1234 1.368 . S
C1240 C1239 1.523 . S
C1241 C1225 1.429 . S
C1241 C1237 1.429 . S
C1241 C1242 1.523 . S
C1242 C1226 1.368 . S
C1242 C1238 1.368 . S
C1242 C1241 1.523 . S
H1243 C1218 0.950 . S
H1244 C1220 0.950 . S
H1245 C1221 0.949 . S
H1246 C1223 0.950 . S
H1247 C1225 0.950 . S
C1248 C1249 1.349 . S
C1248 C1250 1.327 . S
C1248 H1273 0.950 . S
C1249 C1248 1.349 . S
C1249 C1265 1.349 . S
C1250 C1248 1.327 . S
C1250 C1269 1.429 . S
C1250 H1274 0.950 . S
C1251 C1268 1.574 1_545 S
C1251 C1270 1.368 . S
C1251 H1275 0.949 . S
H1252 C1256 0.949 . S
C1253 C1254 1.349 . S
C1253 C1255 1.327 . S
C1253 H1276 0.950 . S
C1254 C1253 1.349 . S
C1254 C1266 1.349 . S
C1255 C1253 1.327 . S
C1255 C1271 1.429 . S
C1255 H1277 0.950 . S
C1256 H1252 0.949 . S
C1256 C1264 1.574 . S
C1256 C1272 1.368 . S
H1257 C1265 0.950 . S
H1258 C1263 0.950 . S
H1259 C1264 0.949 . S
H1260 C1266 0.950 . S
H1261 C1267 0.950 . S
H1262 C1268 0.949 . S
C1263 H1258 0.950 . S
C1263 C1265 1.327 . S
C1263 C1269 1.429 . S
C1264 C1256 1.574 . S
C1264 H1259 0.949 . S
C1264 C1270 1.368 1_565 S
C1265 C1249 1.349 . S
C1265 H1257 0.950 . S
C1265 C1263 1.327 . S
C1266 C1254 1.349 . S
C1266 H1260 0.950 . S
C1266 C1267 1.327 . S
C1267 H1261 0.950 . S
C1267 C1266 1.327 . S
C1267 C1271 1.429 . S
C1268 C1251 1.574 1_565 S
C1268 H1262 0.949 . S
C1268 C1272 1.368 . S
C1269 C1250 1.429 . S
C1269 C1263 1.429 . S
C1269 C1270 1.523 . S
C1270 C1251 1.368 . S
C1270 C1264 1.368 1_545 S
C1270 C1269 1.523 . S
C1271 C1255 1.429 . S
C1271 C1267 1.429 . S
C1271 C1272 1.523 . S
C1272 C1256 1.368 . S
C1272 C1268 1.368 . S
C1272 C1271 1.523 . S
H1273 C1248 0.950 . S
H1274 C1250 0.950 . S
H1275 C1251 0.949 . S
H1276 C1253 0.950 . S
H1277 C1255 0.950 . S
C1278 C1279 1.349 . S
C1278 C1280 1.327 . S
C1278 H1303 0.950 . S
C1279 C1278 1.349 . S
C1279 C1295 1.349 . S
C1280 C1278 1.327 . S
C1280 C1299 1.429 . S
C1280 H1304 0.950 . S
C1281 C1298 1.574 . S
C1281 C1300 1.368 . S
C1281 H1305 0.949 . S
H1282 C1286 0.949 . S
C1283 C1284 1.349 . S
C1283 C1285 1.327 . S
C1283 H1306 0.950 . S
C1284 C1283 1.349 . S
C1284 C1296 1.349 . S
C1285 C1283 1.327 . S
C1285 C1301 1.429 . S
C1285 H1307 0.950 . S
C1286 H1282 0.949 . S
C1286 C1294 1.574 . S
C1286 C1302 1.368 . S
H1287 C1295 0.950 . S
H1288 C1293 0.950 . S
H1289 C1294 0.949 . S
H1290 C1296 0.950 . S
H1291 C1297 0.950 . S
H1292 C1298 0.949 . S
C1293 H1288 0.950 . S
C1293 C1295 1.327 . S
C1293 C1299 1.429 . S
C1294 C1286 1.574 . S
C1294 H1289 0.949 . S
C1294 C1300 1.368 . S
C1295 C1279 1.349 . S
C1295 H1287 0.950 . S
C1295 C1293 1.327 . S
C1296 C1284 1.349 . S
C1296 H1290 0.950 . S
C1296 C1297 1.327 . S
C1297 H1291 0.950 . S
C1297 C1296 1.327 . S
C1297 C1301 1.429 . S
C1298 C1281 1.574 . S
C1298 H1292 0.949 . S
C1298 C1302 1.368 . S
C1299 C1280 1.429 . S
C1299 C1293 1.429 . S
C1299 C1300 1.523 . S
C1300 C1281 1.368 . S
C1300 C1294 1.368 . S
C1300 C1299 1.523 . S
C1301 C1285 1.429 . S
C1301 C1297 1.429 . S
C1301 C1302 1.523 . S
C1302 C1286 1.368 . S
C1302 C1298 1.368 . S
C1302 C1301 1.523 . S
H1303 C1278 0.950 . S
H1304 C1280 0.950 . S
H1305 C1281 0.949 . S
H1306 C1283 0.950 . S
H1307 C1285 0.950 . S
C1308 C1309 1.349 . S
C1308 C1310 1.327 . S
C1308 H1333 0.950 . S
C1309 C1308 1.349 . S
C1309 C1325 1.349 . S
C1310 C1308 1.327 . S
C1310 C1329 1.429 . S
C1310 H1334 0.950 . S
C1311 C1328 1.574 . S
C1311 C1330 1.368 . S
C1311 H1335 0.949 . S
H1312 C1316 0.949 . S
C1313 C1314 1.349 . S
C1313 C1315 1.327 . S
C1313 H1336 0.950 . S
C1314 C1313 1.349 . S
C1314 C1326 1.349 . S
C1315 C1313 1.327 . S
C1315 C1331 1.429 . S
C1315 H1337 0.950 . S
C1316 H1312 0.949 . S
C1316 C1324 1.574 . S
C1316 C1332 1.368 . S
H1317 C1325 0.950 . S
H1318 C1323 0.950 . S
H1319 C1324 0.949 . S
H1320 C1326 0.950 . S
H1321 C1327 0.950 . S
H1322 C1328 0.949 . S
C1323 H1318 0.950 . S
C1323 C1325 1.327 . S
C1323 C1329 1.429 . S
C1324 C1316 1.574 . S
C1324 H1319 0.949 . S
C1324 C1330 1.368 1_565 S
C1325 C1309 1.349 . S
C1325 H1317 0.950 . S
C1325 C1323 1.327 . S
C1326 C1314 1.349 . S
C1326 H1320 0.950 . S
C1326 C1327 1.327 . S
C1327 H1321 0.950 . S
C1327 C1326 1.327 . S
C1327 C1331 1.429 . S
C1328 C1311 1.574 . S
C1328 H1322 0.949 . S
C1328 C1332 1.368 1_545 S
C1329 C1310 1.429 . S
C1329 C1323 1.429 . S
C1329 C1330 1.523 . S
C1330 C1311 1.368 . S
C1330 C1324 1.368 1_545 S
C1330 C1329 1.523 . S
C1331 C1315 1.429 . S
C1331 C1327 1.429 . S
C1331 C1332 1.523 . S
C1332 C1316 1.368 . S
C1332 C1328 1.368 1_565 S
C1332 C1331 1.523 . S
H1333 C1308 0.950 . S
H1334 C1310 0.950 . S
H1335 C1311 0.949 . S
H1336 C1313 0.950 . S
H1337 C1315 0.950 . S
C1338 C1339 1.349 . S
C1338 C1340 1.327 . S
C1338 H1363 0.950 . S
C1339 C1338 1.349 . S
C1339 C1355 1.349 . S
C1340 C1338 1.327 . S
C1340 C1359 1.429 . S
C1340 H1364 0.950 . S
C1341 C1358 1.574 . S
C1341 C1360 1.368 1_556 S
C1341 H1365 0.949 . S
H1342 C1346 0.949 . S
C1343 C1344 1.349 . S
C1343 C1345 1.327 . S
C1343 H1366 0.950 . S
C1344 C1343 1.349 . S
C1344 C1356 1.349 . S
C1345 C1343 1.327 . S
C1345 C1361 1.429 . S
C1345 H1367 0.950 . S
C1346 H1342 0.949 . S
C1346 C1354 1.574 1_556 S
C1346 C1362 1.368 . S
H1347 C1355 0.950 . S
H1348 C1353 0.950 . S
H1349 C1354 0.949 . S
H1350 C1356 0.950 . S
H1351 C1357 0.950 . S
H1352 C1358 0.949 . S
C1353 H1348 0.950 . S
C1353 C1355 1.327 . S
C1353 C1359 1.429 . S
C1354 C1346 1.574 1_554 S
C1354 H1349 0.949 . S
C1354 C1360 1.368 . S
C1355 C1339 1.349 . S
C1355 H1347 0.950 . S
C1355 C1353 1.327 . S
C1356 C1344 1.349 . S
C1356 H1350 0.950 . S
C1356 C1357 1.327 . S
C1357 H1351 0.950 . S
C1357 C1356 1.327 . S
C1357 C1361 1.429 . S
C1358 C1341 1.574 . S
C1358 H1352 0.949 . S
C1358 C1362 1.368 . S
C1359 C1340 1.429 . S
C1359 C1353 1.429 . S
C1359 C1360 1.523 . S
C1360 C1341 1.368 1_554 S
C1360 C1354 1.368 . S
C1360 C1359 1.523 . S
C1361 C1345 1.429 . S
C1361 C1357 1.429 . S
C1361 C1362 1.523 . S
C1362 C1346 1.368 . S
C1362 C1358 1.368 . S
C1362 C1361 1.523 . S
H1363 C1338 0.950 . S
H1364 C1340 0.950 . S
H1365 C1341 0.949 . S
H1366 C1343 0.950 . S
H1367 C1345 0.950 . S
C1368 C1369 1.349 . S
C1368 C1370 1.327 . S
C1368 H1393 0.950 . S
C1369 C1368 1.349 . S
C1369 C1385 1.349 . S
C1370 C1368 1.327 . S
C1370 C1389 1.429 . S
C1370 H1394 0.950 . S
C1371 C1388 1.574 1_455 S
C1371 C1390 1.368 . S
C1371 H1395 0.949 . S
H1372 C1376 0.949 . S
C1373 C1374 1.349 . S
C1373 C1375 1.327 . S
C1373 H1396 0.950 . S
C1374 C1373 1.349 . S
C1374 C1386 1.349 . S
C1375 C1373 1.327 . S
C1375 C1391 1.429 . S
C1375 H1397 0.950 . S
C1376 H1372 0.949 . S
C1376 C1384 1.574 . S
C1376 C1392 1.368 1_455 S
H1377 C1385 0.950 . S
H1378 C1383 0.950 . S
H1379 C1384 0.949 . S
H1380 C1386 0.950 . S
H1381 C1387 0.950 . S
H1382 C1388 0.949 . S
C1383 H1378 0.950 . S
C1383 C1385 1.327 . S
C1383 C1389 1.429 . S
C1384 C1376 1.574 . S
C1384 H1379 0.949 . S
C1384 C1390 1.368 . S
C1385 C1369 1.349 . S
C1385 H1377 0.950 . S
C1385 C1383 1.327 . S
C1386 C1374 1.349 . S
C1386 H1380 0.950 . S
C1386 C1387 1.327 . S
C1387 H1381 0.950 . S
C1387 C1386 1.327 . S
C1387 C1391 1.429 . S
C1388 C1371 1.574 1_655 S
C1388 H1382 0.949 . S
C1388 C1392 1.368 . S
C1389 C1370 1.429 . S
C1389 C1383 1.429 . S
C1389 C1390 1.523 . S
C1390 C1371 1.368 . S
C1390 C1384 1.368 . S
C1390 C1389 1.523 . S
C1391 C1375 1.429 . S
C1391 C1387 1.429 . S
C1391 C1392 1.523 . S
C1392 C1376 1.368 1_655 S
C1392 C1388 1.368 . S
C1392 C1391 1.523 . S
H1393 C1368 0.950 . S
H1394 C1370 0.950 . S
H1395 C1371 0.949 . S
H1396 C1373 0.950 . S
H1397 C1375 0.950 . S
C1398 C1399 1.349 . S
C1398 C1400 1.327 . S
C1398 H1423 0.950 . S
C1399 C1398 1.349 . S
C1399 C1415 1.349 . S
C1400 C1398 1.327 . S
C1400 C1419 1.429 . S
C1400 H1424 0.950 . S
C1401 C1418 1.574 . S
C1401 C1420 1.368 . S
C1401 H1425 0.949 . S
H1402 C1406 0.949 . S
C1403 C1404 1.349 . S
C1403 C1405 1.327 . S
C1403 H1426 0.950 . S
C1404 C1403 1.349 . S
C1404 C1416 1.349 . S
C1405 C1403 1.327 . S
C1405 C1421 1.429 . S
C1405 H1427 0.950 . S
C1406 H1402 0.949 . S
C1406 C1414 1.574 . S
C1406 C1422 1.368 . S
H1407 C1415 0.950 . S
H1408 C1413 0.950 . S
H1409 C1414 0.949 . S
H1410 C1416 0.950 . S
H1411 C1417 0.950 . S
H1412 C1418 0.949 . S
C1413 H1408 0.950 . S
C1413 C1415 1.327 . S
C1413 C1419 1.429 . S
C1414 C1406 1.574 . S
C1414 H1409 0.949 . S
C1414 C1420 1.368 . S
C1415 C1399 1.349 . S
C1415 H1407 0.950 . S
C1415 C1413 1.327 . S
C1416 C1404 1.349 . S
C1416 H1410 0.950 . S
C1416 C1417 1.327 . S
C1417 H1411 0.950 . S
C1417 C1416 1.327 . S
C1417 C1421 1.429 . S
C1418 C1401 1.574 . S
C1418 H1412 0.949 . S
C1418 C1422 1.368 . S
C1419 C1400 1.429 . S
C1419 C1413 1.429 . S
C1419 C1420 1.523 . S
C1420 C1401 1.368 . S
C1420 C1414 1.368 . S
C1420 C1419 1.523 . S
C1421 C1405 1.429 . S
C1421 C1417 1.429 . S
C1421 C1422 1.523 . S
C1422 C1406 1.368 . S
C1422 C1418 1.368 . S
C1422 C1421 1.523 . S
H1423 C1398 0.950 . S
H1424 C1400 0.950 . S
H1425 C1401 0.949 . S
H1426 C1403 0.950 . S
H1427 C1405 0.950 . S
C1428 C1429 1.349 . S
C1428 C1430 1.327 . S
C1428 H1453 0.950 . S
C1429 C1428 1.349 . S
C1429 C1445 1.349 . S
C1430 C1428 1.327 . S
C1430 C1449 1.429 . S
C1430 H1454 0.950 . S
C1431 C1448 1.574 . S
C1431 C1450 1.368 1_455 S
C1431 H1455 0.949 . S
H1432 C1436 0.949 . S
C1433 C1434 1.349 . S
C1433 C1435 1.327 . S
C1433 H1456 0.950 . S
C1434 C1433 1.349 . S
C1434 C1446 1.349 . S
C1435 C1433 1.327 . S
C1435 C1451 1.429 . S
C1435 H1457 0.950 . S
C1436 H1432 0.949 . S
C1436 C1444 1.574 1_455 S
C1436 C1452 1.368 . S
H1437 C1445 0.950 . S
H1438 C1443 0.950 . S
H1439 C1444 0.949 . S
H1440 C1446 0.950 . S
H1441 C1447 0.950 . S
H1442 C1448 0.949 . S
C1443 H1438 0.950 . S
C1443 C1445 1.327 . S
C1443 C1449 1.429 . S
C1444 C1436 1.574 1_655 S
C1444 H1439 0.949 . S
C1444 C1450 1.368 . S
C1445 C1429 1.349 . S
C1445 H1437 0.950 . S
C1445 C1443 1.327 . S
C1446 C1434 1.349 . S
C1446 H1440 0.950 . S
C1446 C1447 1.327 . S
C1447 H1441 0.950 . S
C1447 C1446 1.327 . S
C1447 C1451 1.429 . S
C1448 C1431 1.574 . S
C1448 H1442 0.949 . S
C1448 C1452 1.368 . S
C1449 C1430 1.429 . S
C1449 C1443 1.429 . S
C1449 C1450 1.523 . S
C1450 C1431 1.368 1_655 S
C1450 C1444 1.368 . S
C1450 C1449 1.523 . S
C1451 C1435 1.429 . S
C1451 C1447 1.429 . S
C1451 C1452 1.523 . S
C1452 C1436 1.368 . S
C1452 C1448 1.368 . S
C1452 C1451 1.523 . S
H1453 C1428 0.950 . S
H1454 C1430 0.950 . S
H1455 C1431 0.949 . S
H1456 C1433 0.950 . S
H1457 C1435 0.950 . S
C1458 C1459 1.349 . S
C1458 C1460 1.327 . S
C1458 H1483 0.950 . S
C1459 C1458 1.349 . S
C1459 C1475 1.349 . S
C1460 C1458 1.327 . S
C1460 C1479 1.429 . S
C1460 H1484 0.950 . S
C1461 C1478 1.574 . S
C1461 C1480 1.368 . S
C1461 H1485 0.949 . S
H1462 C1466 0.949 . S
C1463 C1464 1.349 . S
C1463 C1465 1.327 . S
C1463 H1486 0.950 . S
C1464 C1463 1.349 . S
C1464 C1476 1.349 . S
C1465 C1463 1.327 . S
C1465 C1481 1.429 . S
C1465 H1487 0.950 . S
C1466 H1462 0.949 . S
C1466 C1474 1.574 . S
C1466 C1482 1.368 . S
H1467 C1475 0.950 . S
H1468 C1473 0.950 . S
H1469 C1474 0.949 . S
H1470 C1476 0.950 . S
H1471 C1477 0.950 . S
H1472 C1478 0.949 . S
C1473 H1468 0.950 . S
C1473 C1475 1.327 . S
C1473 C1479 1.429 . S
C1474 C1466 1.574 . S
C1474 H1469 0.949 . S
C1474 C1480 1.368 . S
C1475 C1459 1.349 . S
C1475 H1467 0.950 . S
C1475 C1473 1.327 . S
C1476 C1464 1.349 . S
C1476 H1470 0.950 . S
C1476 C1477 1.327 . S
C1477 H1471 0.950 . S
C1477 C1476 1.327 . S
C1477 C1481 1.429 . S
C1478 C1461 1.574 . S
C1478 H1472 0.949 . S
C1478 C1482 1.368 . S
C1479 C1460 1.429 . S
C1479 C1473 1.429 . S
C1479 C1480 1.523 . S
C1480 C1461 1.368 . S
C1480 C1474 1.368 . S
C1480 C1479 1.523 . S
C1481 C1465 1.429 . S
C1481 C1477 1.429 . S
C1481 C1482 1.523 . S
C1482 C1466 1.368 . S
C1482 C1478 1.368 . S
C1482 C1481 1.523 . S
H1483 C1458 0.950 . S
H1484 C1460 0.950 . S
H1485 C1461 0.949 . S
H1486 C1463 0.950 . S
H1487 C1465 0.950 . S
C1488 C1489 1.349 . S
C1488 C1490 1.327 . S
C1488 H1513 0.950 . S
C1489 C1488 1.349 . S
C1489 C1505 1.349 . S
C1490 C1488 1.327 . S
C1490 C1509 1.429 . S
C1490 H1514 0.950 . S
C1491 C1508 1.574 . S
C1491 C1510 1.368 . S
C1491 H1515 0.949 . S
H1492 C1496 0.949 . S
C1493 C1494 1.349 . S
C1493 C1495 1.327 . S
C1493 H1516 0.950 . S
C1494 C1493 1.349 . S
C1494 C1506 1.349 . S
C1495 C1493 1.327 . S
C1495 C1511 1.429 . S
C1495 H1517 0.950 . S
C1496 H1492 0.949 . S
C1496 C1504 1.574 . S
C1496 C1512 1.368 . S
H1497 C1505 0.950 . S
H1498 C1503 0.950 . S
H1499 C1504 0.949 . S
H1500 C1506 0.950 . S
H1501 C1507 0.950 . S
H1502 C1508 0.949 . S
C1503 H1498 0.950 . S
C1503 C1505 1.327 . S
C1503 C1509 1.429 . S
C1504 C1496 1.574 . S
C1504 H1499 0.949 . S
C1504 C1510 1.368 . S
C1505 C1489 1.349 . S
C1505 H1497 0.950 . S
C1505 C1503 1.327 . S
C1506 C1494 1.349 . S
C1506 H1500 0.950 . S
C1506 C1507 1.327 . S
C1507 H1501 0.950 . S
C1507 C1506 1.327 . S
C1507 C1511 1.429 . S
C1508 C1491 1.574 . S
C1508 H1502 0.949 . S
C1508 C1512 1.368 . S
C1509 C1490 1.429 . S
C1509 C1503 1.429 . S
C1509 C1510 1.523 . S
C1510 C1491 1.368 . S
C1510 C1504 1.368 . S
C1510 C1509 1.523 . S
C1511 C1495 1.429 . S
C1511 C1507 1.429 . S
C1511 C1512 1.523 . S
C1512 C1496 1.368 . S
C1512 C1508 1.368 . S
C1512 C1511 1.523 . S
H1513 C1488 0.950 . S
H1514 C1490 0.950 . S
H1515 C1491 0.949 . S
H1516 C1493 0.950 . S
H1517 C1495 0.950 . S
C1518 C1519 1.349 . S
C1518 C1520 1.327 . S
C1518 H1543 0.950 . S
C1519 C1518 1.349 . S
C1519 C1535 1.349 . S
C1520 C1518 1.327 . S
C1520 C1539 1.429 . S
C1520 H1544 0.950 . S
C1521 C1538 1.574 . S
C1521 C1540 1.368 . S
C1521 H1545 0.949 . S
H1522 C1526 0.949 . S
C1523 C1524 1.349 . S
C1523 C1525 1.327 . S
C1523 H1546 0.950 . S
C1524 C1523 1.349 . S
C1524 C1536 1.349 . S
C1525 C1523 1.327 . S
C1525 C1541 1.429 . S
C1525 H1547 0.950 . S
C1526 H1522 0.949 . S
C1526 C1534 1.574 1_554 S
C1526 C1542 1.368 . S
H1527 C1535 0.950 . S
H1528 C1533 0.950 . S
H1529 C1534 0.949 . S
H1530 C1536 0.950 . S
H1531 C1537 0.950 . S
H1532 C1538 0.949 . S
C1533 H1528 0.950 . S
C1533 C1535 1.327 . S
C1533 C1539 1.429 . S
C1534 C1526 1.574 1_556 S
C1534 H1529 0.949 . S
C1534 C1540 1.368 . S
C1535 C1519 1.349 . S
C1535 H1527 0.950 . S
C1535 C1533 1.327 . S
C1536 C1524 1.349 . S
C1536 H1530 0.950 . S
C1536 C1537 1.327 . S
C1537 H1531 0.950 . S
C1537 C1536 1.327 . S
C1537 C1541 1.429 . S
C1538 C1521 1.574 . S
C1538 H1532 0.949 . S
C1538 C1542 1.368 1_556 S
C1539 C1520 1.429 . S
C1539 C1533 1.429 . S
C1539 C1540 1.523 . S
C1540 C1521 1.368 . S
C1540 C1534 1.368 . S
C1540 C1539 1.523 . S
C1541 C1525 1.429 . S
C1541 C1537 1.429 . S
C1541 C1542 1.523 . S
C1542 C1526 1.368 . S
C1542 C1538 1.368 1_554 S
C1542 C1541 1.523 . S
H1543 C1518 0.950 . S
H1544 C1520 0.950 . S
H1545 C1521 0.949 . S
H1546 C1523 0.950 . S
H1547 C1525 0.950 . S
C1548 C1549 1.349 . S
C1548 C1550 1.327 . S
C1548 H1573 0.950 . S
C1549 C1548 1.349 . S
C1549 C1565 1.349 . S
C1550 C1548 1.327 . S
C1550 C1569 1.429 . S
C1550 H1574 0.950 . S
C1551 C1568 1.574 . S
C1551 C1570 1.368 . S
C1551 H1575 0.949 . S
H1552 C1556 0.949 . S
C1553 C1554 1.349 . S
C1553 C1555 1.327 . S
C1553 H1576 0.950 . S
C1554 C1553 1.349 . S
C1554 C1566 1.349 . S
C1555 C1553 1.327 . S
C1555 C1571 1.429 . S
C1555 H1577 0.950 . S
C1556 H1552 0.949 . S
C1556 C1564 1.574 . S
C1556 C1572 1.368 . S
H1557 C1565 0.950 . S
H1558 C1563 0.950 . S
H1559 C1564 0.949 . S
H1560 C1566 0.950 . S
H1561 C1567 0.950 . S
H1562 C1568 0.949 . S
C1563 H1558 0.950 . S
C1563 C1565 1.327 . S
C1563 C1569 1.429 . S
C1564 C1556 1.574 . S
C1564 H1559 0.949 . S
C1564 C1570 1.368 . S
C1565 C1549 1.349 . S
C1565 H1557 0.950 . S
C1565 C1563 1.327 . S
C1566 C1554 1.349 . S
C1566 H1560 0.950 . S
C1566 C1567 1.327 . S
C1567 H1561 0.950 . S
C1567 C1566 1.327 . S
C1567 C1571 1.429 . S
C1568 C1551 1.574 . S
C1568 H1562 0.949 . S
C1568 C1572 1.368 . S
C1569 C1550 1.429 . S
C1569 C1563 1.429 . S
C1569 C1570 1.523 . S
C1570 C1551 1.368 . S
C1570 C1564 1.368 . S
C1570 C1569 1.523 . S
C1571 C1555 1.429 . S
C1571 C1567 1.429 . S
C1571 C1572 1.523 . S
C1572 C1556 1.368 . S
C1572 C1568 1.368 . S
C1572 C1571 1.523 . S
H1573 C1548 0.950 . S
H1574 C1550 0.950 . S
H1575 C1551 0.949 . S
H1576 C1553 0.950 . S
H1577 C1555 0.950 . S
C1578 C1579 1.349 . S
C1578 C1580 1.327 . S
C1578 H1603 0.950 . S
C1579 C1578 1.349 . S
C1579 C1595 1.349 . S
C1580 C1578 1.327 . S
C1580 C1599 1.429 . S
C1580 H1604 0.950 . S
C1581 C1598 1.574 . S
C1581 C1600 1.368 . S
C1581 H1605 0.949 . S
H1582 C1586 0.949 . S
C1583 C1584 1.349 . S
C1583 C1585 1.327 . S
C1583 H1606 0.950 . S
C1584 C1583 1.349 . S
C1584 C1596 1.349 . S
C1585 C1583 1.327 . S
C1585 C1601 1.429 . S
C1585 H1607 0.950 . S
C1586 H1582 0.949 . S
C1586 C1594 1.574 . S
C1586 C1602 1.368 . S
H1587 C1595 0.950 . S
H1588 C1593 0.950 . S
H1589 C1594 0.949 . S
H1590 C1596 0.950 . S
H1591 C1597 0.950 . S
H1592 C1598 0.949 . S
C1593 H1588 0.950 . S
C1593 C1595 1.327 . S
C1593 C1599 1.429 . S
C1594 C1586 1.574 . S
C1594 H1589 0.949 . S
C1594 C1600 1.368 . S
C1595 C1579 1.349 . S
C1595 H1587 0.950 . S
C1595 C1593 1.327 . S
C1596 C1584 1.349 . S
C1596 H1590 0.950 . S
C1596 C1597 1.327 . S
C1597 H1591 0.950 . S
C1597 C1596 1.327 . S
C1597 C1601 1.429 . S
C1598 C1581 1.574 . S
C1598 H1592 0.949 . S
C1598 C1602 1.368 . S
C1599 C1580 1.429 . S
C1599 C1593 1.429 . S
C1599 C1600 1.523 . S
C1600 C1581 1.368 . S
C1600 C1594 1.368 . S
C1600 C1599 1.523 . S
C1601 C1585 1.429 . S
C1601 C1597 1.429 . S
C1601 C1602 1.523 . S
C1602 C1586 1.368 . S
C1602 C1598 1.368 . S
C1602 C1601 1.523 . S
H1603 C1578 0.950 . S
H1604 C1580 0.950 . S
H1605 C1581 0.949 . S
H1606 C1583 0.950 . S
H1607 C1585 0.950 . S
C1608 C1609 1.349 . S
C1608 C1610 1.327 . S
C1608 H1633 0.950 . S
C1609 C1608 1.349 . S
C1609 C1625 1.349 . S
C1610 C1608 1.327 . S
C1610 C1629 1.429 . S
C1610 H1634 0.950 . S
C1611 C1628 1.574 . S
C1611 C1630 1.368 . S
C1611 H1635 0.949 . S
H1612 C1616 0.949 . S
C1613 C1614 1.349 . S
C1613 C1615 1.327 . S
C1613 H1636 0.950 . S
C1614 C1613 1.349 . S
C1614 C1626 1.349 . S
C1615 C1613 1.327 . S
C1615 C1631 1.429 . S
C1615 H1637 0.950 . S
C1616 H1612 0.949 . S
C1616 C1624 1.574 . S
C1616 C1632 1.368 . S
H1617 C1625 0.950 . S
H1618 C1623 0.950 . S
H1619 C1624 0.949 . S
H1620 C1626 0.950 . S
H1621 C1627 0.950 . S
H1622 C1628 0.949 . S
C1623 H1618 0.950 . S
C1623 C1625 1.327 . S
C1623 C1629 1.429 . S
C1624 C1616 1.574 . S
C1624 H1619 0.949 . S
C1624 C1630 1.368 . S
C1625 C1609 1.349 . S
C1625 H1617 0.950 . S
C1625 C1623 1.327 . S
C1626 C1614 1.349 . S
C1626 H1620 0.950 . S
C1626 C1627 1.327 . S
C1627 H1621 0.950 . S
C1627 C1626 1.327 . S
C1627 C1631 1.429 . S
C1628 C1611 1.574 . S
C1628 H1622 0.949 . S
C1628 C1632 1.368 . S
C1629 C1610 1.429 . S
C1629 C1623 1.429 . S
C1629 C1630 1.523 . S
C1630 C1611 1.368 . S
C1630 C1624 1.368 . S
C1630 C1629 1.523 . S
C1631 C1615 1.429 . S
C1631 C1627 1.429 . S
C1631 C1632 1.523 . S
C1632 C1616 1.368 . S
C1632 C1628 1.368 . S
C1632 C1631 1.523 . S
H1633 C1608 0.950 . S
H1634 C1610 0.950 . S
H1635 C1611 0.949 . S
H1636 C1613 0.950 . S
H1637 C1615 0.950 . S
C1638 C1639 1.349 . S
C1638 C1640 1.327 . S
C1638 H1663 0.950 . S
C1639 C1638 1.349 . S
C1639 C1655 1.349 . S
C1640 C1638 1.327 . S
C1640 C1659 1.429 . S
C1640 H1664 0.950 . S
C1641 C1658 1.574 1_556 S
C1641 C1660 1.368 . S
C1641 H1665 0.949 . S
H1642 C1646 0.953 . S
C1643 C1644 1.349 . S
C1643 C1645 1.327 . S
C1643 H1666 0.950 . S
C1644 C1643 1.349 . S
C1644 C1656 1.349 . S
C1645 C1643 1.327 . S
C1645 C1661 1.429 . S
C1645 H1667 0.950 . S
C1646 H1642 0.953 . S
C1646 C1654 1.545 1_554 S
C1646 C1662 1.394 . S
H1647 C1655 0.950 . S
H1648 C1653 0.950 . S
H1649 C1654 0.949 . S
H1650 C1656 0.950 . S
H1651 C1657 0.950 . S
H1652 C1658 0.949 . S
C1653 H1648 0.950 . S
C1653 C1655 1.327 . S
C1653 C1659 1.429 . S
C1654 C1646 1.545 1_556 S
C1654 H1649 0.949 . S
C1654 C1660 1.368 . S
C1655 C1639 1.349 . S
C1655 H1647 0.950 . S
C1655 C1653 1.327 . S
C1656 C1644 1.349 . S
C1656 H1650 0.950 . S
C1656 C1657 1.327 . S
C1657 H1651 0.950 . S
C1657 C1656 1.327 . S
C1657 C1661 1.429 . S
C1658 C1641 1.574 1_554 S
C1658 H1652 0.949 . S
C1658 C1662 1.368 . S
C1659 C1640 1.429 . S
C1659 C1653 1.429 . S
C1659 C1660 1.523 . S
C1660 C1641 1.368 . S
C1660 C1654 1.368 . S
C1660 C1659 1.523 . S
C1661 C1645 1.429 . S
C1661 C1657 1.429 . S
C1661 C1662 1.523 . S
C1662 C1646 1.394 . S
C1662 C1658 1.368 . S
C1662 C1661 1.523 . S
H1663 C1638 0.950 . S
H1664 C1640 0.950 . S
H1665 C1641 0.949 . S
H1666 C1643 0.950 . S
H1667 C1645 0.950 . S
C1668 C1669 1.349 . S
C1668 C1670 1.327 . S
C1668 H1693 0.950 . S
C1669 C1668 1.349 . S
C1669 C1685 1.349 . S
C1670 C1668 1.327 . S
C1670 C1689 1.429 . S
C1670 H1694 0.950 . S
C1671 C1688 1.574 . S
C1671 C1690 1.368 . S
C1671 H1695 0.949 . S
H1672 C1676 0.949 . S
C1673 C1674 1.349 . S
C1673 C1675 1.327 . S
C1673 H1696 0.950 . S
C1674 C1673 1.349 . S
C1674 C1686 1.349 . S
C1675 C1673 1.327 . S
C1675 C1691 1.429 . S
C1675 H1697 0.950 . S
C1676 H1672 0.949 . S
C1676 C1684 1.574 . S
C1676 C1692 1.368 . S
H1677 C1685 0.950 . S
H1678 C1683 0.950 . S
H1679 C1684 0.949 . S
H1680 C1686 0.950 . S
H1681 C1687 0.950 . S
H1682 C1688 0.949 . S
C1683 H1678 0.950 . S
C1683 C1685 1.327 . S
C1683 C1689 1.429 . S
C1684 C1676 1.574 . S
C1684 H1679 0.949 . S
C1684 C1690 1.368 . S
C1685 C1669 1.349 . S
C1685 H1677 0.950 . S
C1685 C1683 1.327 . S
C1686 C1674 1.349 . S
C1686 H1680 0.950 . S
C1686 C1687 1.327 . S
C1687 H1681 0.950 . S
C1687 C1686 1.327 . S
C1687 C1691 1.429 . S
C1688 C1671 1.574 . S
C1688 H1682 0.949 . S
C1688 C1692 1.368 . S
C1689 C1670 1.429 . S
C1689 C1683 1.429 . S
C1689 C1690 1.523 . S
C1690 C1671 1.368 . S
C1690 C1684 1.368 . S
C1690 C1689 1.523 . S
C1691 C1675 1.429 . S
C1691 C1687 1.429 . S
C1691 C1692 1.523 . S
C1692 C1676 1.368 . S
C1692 C1688 1.368 . S
C1692 C1691 1.523 . S
H1693 C1668 0.950 . S
H1694 C1670 0.950 . S
H1695 C1671 0.949 . S
H1696 C1673 0.950 . S
H1697 C1675 0.950 . S
C1698 C1699 1.349 . S
C1698 C1700 1.327 . S
C1698 H1723 0.950 . S
C1699 C1698 1.349 . S
C1699 C1715 1.349 . S
C1700 C1698 1.327 . S
C1700 C1719 1.429 . S
C1700 H1724 0.950 . S
C1701 C1718 1.574 . S
C1701 C1720 1.368 . S
C1701 H1725 0.949 . S
H1702 C1706 0.949 . S
C1703 C1704 1.349 . S
C1703 C1705 1.327 . S
C1703 H1726 0.950 . S
C1704 C1703 1.349 . S
C1704 C1716 1.349 . S
C1705 C1703 1.327 . S
C1705 C1721 1.429 . S
C1705 H1727 0.950 . S
C1706 H1702 0.949 . S
C1706 C1714 1.574 . S
C1706 C1722 1.368 . S
H1707 C1715 0.950 . S
H1708 C1713 0.950 . S
H1709 C1714 0.949 . S
H1710 C1716 0.950 . S
H1711 C1717 0.950 . S
H1712 C1718 0.949 . S
C1713 H1708 0.950 . S
C1713 C1715 1.327 . S
C1713 C1719 1.429 . S
C1714 C1706 1.574 . S
C1714 H1709 0.949 . S
C1714 C1720 1.368 . S
C1715 C1699 1.349 . S
C1715 H1707 0.950 . S
C1715 C1713 1.327 . S
C1716 C1704 1.349 . S
C1716 H1710 0.950 . S
C1716 C1717 1.327 . S
C1717 H1711 0.950 . S
C1717 C1716 1.327 . S
C1717 C1721 1.429 . S
C1718 C1701 1.574 . S
C1718 H1712 0.949 . S
C1718 C1722 1.368 . S
C1719 C1700 1.429 . S
C1719 C1713 1.429 . S
C1719 C1720 1.523 . S
C1720 C1701 1.368 . S
C1720 C1714 1.368 . S
C1720 C1719 1.523 . S
C1721 C1705 1.429 . S
C1721 C1717 1.429 . S
C1721 C1722 1.523 . S
C1722 C1706 1.368 . S
C1722 C1718 1.368 . S
C1722 C1721 1.523 . S
H1723 C1698 0.950 . S
H1724 C1700 0.950 . S
H1725 C1701 0.949 . S
H1726 C1703 0.950 . S
H1727 C1705 0.950 . S
C529 N5 1.556 . S
C534 N509 1.550 . S
C559 N278 2.337 . S
C564 N38 2.336 . S
C589 N410 1.926 . S
C594 N71 1.927 . S
C619 N113 2.446 . S
C624 N344 2.443 . S
C649 N368 2.315 . S
C654 N47 2.322 . S
C679 N80 2.120 . S
C684 N311 2.118 . S
C709 N104 2.239 . S
C714 N434 2.239 . S
C739 N14 1.535 . S
C744 N236 1.528 . S
C769 N269 2.409 . S
C774 N146 2.420 . S
C799 N401 1.928 . S
C804 N179 1.930 . S
C829 N203 2.289 . S
C834 N335 2.290 . S
C859 N212 2.336 . S
C864 N443 2.330 . S
C889 N137 2.251 . S
C894 N377 2.255 . S
C919 N476 1.571 . S
C924 N245 1.568 . S
C949 N302 2.030 . S
C954 N170 2.031 . S
C979 N500 1.481 . S
C984 N467 1.481 . S
C1009 C17 0.525 . S
C1014 C61 0.520 . S
C1039 C41 0.976 . S
C1044 C74 0.976 . S
C1069 C83 0.878 . S
C1074 C107 0.878 . S
C1099 C127 1.285 . S
C1104 C8 1.285 . S
C1129 C28 0.496 . S
C1134 C193 0.496 . S
C1159 C149 0.554 . S
C1164 C116 0.554 . S
C1189 C215 0.136 . S
C1194 C50 0.141 . S
C1219 C490 0.433 . S
C1224 C94 0.432 . S
C1249 C281 0.605 . S
C1254 C239 0.607 . S
C1279 C292 1.145 . S
C1284 C305 1.148 . S
C1309 C325 0.996 . S
C1314 C338 0.998 . S
C1339 C347 0.300 . S
C1344 C259 0.311 . S
C1369 C413 0.244 . S
C1374 C248 0.235 . S
C1399 C371 0.960 . S
C1404 C358 0.959 . S
C1429 C272 1.047 . S
C1434 C457 1.046 . S
C1459 C512 0.560 . S
C1464 C314 0.561 . S
C1489 C160 1.059 . S
C1494 C470 1.057 . S
C1519 C140 1.179 . S
C1524 C173 1.181 . S
C1549 C182 0.618 . S
C1554 C206 0.617 . S
C1579 C479 0.700 . S
C1584 C226 0.700 . S
C1609 C380 0.401 . S
C1614 C503 0.403 . S
C1639 C424 1.028 . S
C1644 C391 1.026 . S
C1669 C404 0.960 . S
C1674 C437 0.960 . S
C1699 C523 0.184 . S
C1704 C446 0.144 . S
