# Generated by pormake.
# Topology utj, (3)-cn, num edge types: 1
# Building blocks:
#     Node 0, Type 0, BuildingBlock: OLANEW_clean_sbu_2, # of connection points: 3
#     Node 1, Type 0, BuildingBlock: OLANEW_clean_sbu_2, # of connection points: 3
#     Node 2, Type 0, BuildingBlock: OLANEW_clean_sbu_2, # of connection points: 3
#     Node 3, Type 0, BuildingBlock: OLANEW_clean_sbu_2, # of connection points: 3
#     Node 4, Type 0, BuildingBlock: OLANEW_clean_sbu_2, # of connection points: 3
#     Node 5, Type 0, BuildingBlock: OLANEW_clean_sbu_2, # of connection points: 3
#     Node 6, Type 0, BuildingBlock: OLANEW_clean_sbu_2, # of connection points: 3
#     Node 7, Type 0, BuildingBlock: OLANEW_clean_sbu_2, # of connection points: 3
#     Node 8, Type 0, BuildingBlock: OLANEW_clean_sbu_2, # of connection points: 3
#     Node 9, Type 0, BuildingBlock: OLANEW_clean_sbu_2, # of connection points: 3
#     Node 10, Type 0, BuildingBlock: OLANEW_clean_sbu_2, # of connection points: 3
#     Node 11, Type 0, BuildingBlock: OLANEW_clean_sbu_2, # of connection points: 3
#     Node 12, Type 0, BuildingBlock: OLANEW_clean_sbu_2, # of connection points: 3
#     Node 13, Type 0, BuildingBlock: OLANEW_clean_sbu_2, # of connection points: 3
#     Node 14, Type 0, BuildingBlock: OLANEW_clean_sbu_2, # of connection points: 3
#     Node 15, Type 0, BuildingBlock: OLANEW_clean_sbu_2, # of connection points: 3
#     Edge 16, Type (0, 0), BuildingBlock: XUDNAN_clean_linker_2, # of connection points: 2
#     Edge 17, Type (0, 0), BuildingBlock: XUDNAN_clean_linker_2, # of connection points: 2
#     Edge 18, Type (0, 0), BuildingBlock: XUDNAN_clean_linker_2, # of connection points: 2
#     Edge 19, Type (0, 0), BuildingBlock: XUDNAN_clean_linker_2, # of connection points: 2
#     Edge 20, Type (0, 0), BuildingBlock: XUDNAN_clean_linker_2, # of connection points: 2
#     Edge 21, Type (0, 0), BuildingBlock: XUDNAN_clean_linker_2, # of connection points: 2
#     Edge 22, Type (0, 0), BuildingBlock: XUDNAN_clean_linker_2, # of connection points: 2
#     Edge 23, Type (0, 0), BuildingBlock: XUDNAN_clean_linker_2, # of connection points: 2
#     Edge 24, Type (0, 0), BuildingBlock: XUDNAN_clean_linker_2, # of connection points: 2
#     Edge 25, Type (0, 0), BuildingBlock: XUDNAN_clean_linker_2, # of connection points: 2
#     Edge 26, Type (0, 0), BuildingBlock: XUDNAN_clean_linker_2, # of connection points: 2
#     Edge 27, Type (0, 0), BuildingBlock: XUDNAN_clean_linker_2, # of connection points: 2
#     Edge 28, Type (0, 0), BuildingBlock: XUDNAN_clean_linker_2, # of connection points: 2
#     Edge 29, Type (0, 0), BuildingBlock: XUDNAN_clean_linker_2, # of connection points: 2
#     Edge 30, Type (0, 0), BuildingBlock: XUDNAN_clean_linker_2, # of connection points: 2
#     Edge 31, Type (0, 0), BuildingBlock: XUDNAN_clean_linker_2, # of connection points: 2
#     Edge 32, Type (0, 0), BuildingBlock: XUDNAN_clean_linker_2, # of connection points: 2
#     Edge 33, Type (0, 0), BuildingBlock: XUDNAN_clean_linker_2, # of connection points: 2
#     Edge 34, Type (0, 0), BuildingBlock: XUDNAN_clean_linker_2, # of connection points: 2
#     Edge 35, Type (0, 0), BuildingBlock: XUDNAN_clean_linker_2, # of connection points: 2
#     Edge 36, Type (0, 0), BuildingBlock: XUDNAN_clean_linker_2, # of connection points: 2
#     Edge 37, Type (0, 0), BuildingBlock: XUDNAN_clean_linker_2, # of connection points: 2
#     Edge 38, Type (0, 0), BuildingBlock: XUDNAN_clean_linker_2, # of connection points: 2
#     Edge 39, Type (0, 0), BuildingBlock: XUDNAN_clean_linker_2, # of connection points: 2
# Relax obj value: 0.000
# Max RMSD: 0.045
# Mean RMSD: 0.045
data_MOF--net-utj--node1-OLANEW_clean_sbu_2--edge1-XUDNAN_clean_linker_2
_symmetry_space_group_name_H-M    P1
_symmetry_Int_Tables_number       1
_symmetry_cell_setting            triclinic
loop_
_symmetry_equiv_pos_as_xyz
'x, y, z'
_cell_length_a     62.562765
_cell_length_b     62.527252
_cell_length_c     35.30617
_cell_angle_alpha  90.044581
_cell_angle_beta   89.98679
_cell_angle_gamma 90.003079
loop_
_atom_site_label
_atom_site_type_symbol
_atom_site_fract_x
_atom_site_fract_y
_atom_site_fract_z
_atom_type_partial_charge
O0 O 0.07186 0.39761 0.13916 0.0
Cd1 Cd 0.06421 0.39874 0.07106 0.0
O2 O 0.04444 0.37682 0.15224 0.0
Cd3 Cd 0.02949 0.38747 0.0998 0.0
O4 O 0.01913 0.41542 0.06762 0.0
C5 C 0.02502 0.43323 0.08155 0.0
O6 O 0.03657 0.43318 0.11264 0.0
C7 C 0.06164 0.38598 0.16252 0.0
C8 C 0.07319 0.35899 0.0382 0.0
O9 O 0.08772 0.37331 0.04159 0.0
O10 O 0.05433 0.36355 0.04981 0.0
O11 O 0.13438 0.10279 0.62335 0.0
Cd12 Cd 0.14935 0.10195 0.55941 0.0
O13 O 0.11011 0.07946 0.60612 0.0
Cd14 Cd 0.08044 0.06126 0.6126 0.0
O15 O 0.04912 0.04652 0.60396 0.0
C16 C 0.03316 0.05869 0.59838 0.0
O17 O 0.036 0.0795 0.59937 0.0
C18 C 0.11812 0.0915 0.63144 0.0
C19 C 0.19392 0.10061 0.55817 0.0
O20 O 0.18388 0.11839 0.56135 0.0
O21 O 0.18289 0.08338 0.55595 0.0
O22 O 0.41481 0.13536 0.09492 0.0
Cd23 Cd 0.43148 0.14218 0.03353 0.0
O24 O 0.41798 0.10039 0.09029 0.0
Cd25 Cd 0.43748 0.09889 0.03924 0.0
O26 O 0.46289 0.07828 0.01772 0.0
C27 C 0.45791 0.05933 0.0081 0.0
O28 O 0.43765 0.05377 0.00825 0.0
C29 C 0.4115 0.11678 0.10825 0.0
C30 C 0.43933 0.18582 0.02415 0.0
O31 O 0.42127 0.17762 0.01501 0.0
O32 O 0.45374 0.17335 0.03747 0.0
O33 O 0.40604 0.41465 0.57727 0.0
Cd34 Cd 0.39668 0.43167 0.51714 0.0
O35 O 0.38867 0.43829 0.61163 0.0
Cd36 Cd 0.38868 0.46072 0.56447 0.0
O37 O 0.40789 0.48309 0.53145 0.0
C38 C 0.42715 0.48495 0.54248 0.0
O39 O 0.43354 0.47364 0.57171 0.0
C40 C 0.39892 0.42078 0.60923 0.0
C41 C 0.35504 0.41988 0.49789 0.0
O42 O 0.37107 0.40827 0.4885 0.0
O43 O 0.35871 0.43736 0.51571 0.0
O44 O 0.07877 0.14862 0.89514 0.0
Cd45 Cd 0.07223 0.16371 0.95815 0.0
O46 O 0.05934 0.12128 0.91244 0.0
Cd47 Cd 0.04229 0.09061 0.91044 0.0
O48 O 0.02911 0.05843 0.91672 0.0
C49 C 0.04059 0.0422 0.90918 0.0
O50 O 0.06016 0.04514 0.89669 0.0
C51 C 0.07096 0.13034 0.88751 0.0
C52 C 0.07878 0.20777 0.96458 0.0
O53 O 0.09439 0.19457 0.96725 0.0
O54 O 0.0601 0.20018 0.95809 0.0
O55 O 0.38196 0.08131 0.39667 0.0
Cd56 Cd 0.38291 0.06606 0.46034 0.0
O57 O 0.38956 0.05096 0.36817 0.0
Cd58 Cd 0.39979 0.03489 0.41985 0.0
O59 O 0.42641 0.02089 0.45117 0.0
C60 C 0.44015 0.03346 0.46558 0.0
O61 O 0.43695 0.05419 0.46338 0.0
C62 C 0.38428 0.07056 0.36637 0.0
C63 C 0.34469 0.0765 0.49664 0.0
O64 O 0.36104 0.08879 0.49878 0.0
O65 O 0.34659 0.05896 0.47813 0.0
O66 O 0.42193 0.3854 0.89122 0.0
Cd67 Cd 0.42849 0.3833 0.95949 0.0
O68 O 0.45519 0.37746 0.87667 0.0
Cd69 Cd 0.4661 0.38814 0.93211 0.0
O70 O 0.47669 0.41415 0.96885 0.0
C71 C 0.48218 0.4312 0.95184 0.0
O72 O 0.48135 0.43168 0.91466 0.0
C73 C 0.4359 0.38037 0.86662 0.0
C74 C 0.43709 0.34097 0.98002 0.0
O75 O 0.41784 0.34783 0.97759 0.0
O76 O 0.45228 0.35418 0.97335 0.0
O77 O 0.13782 0.38737 0.43056 0.0
Cd78 Cd 0.15585 0.39583 0.49014 0.0
O79 O 0.12081 0.41809 0.43104 0.0
Cd80 Cd 0.09585 0.43961 0.41004 0.0
O81 O 0.06716 0.45908 0.40183 0.0
C82 C 0.05327 0.45849 0.42808 0.0
O83 O 0.05688 0.44633 0.45774 0.0
C84 C 0.12464 0.4002 0.41533 0.0
C85 C 0.20027 0.39587 0.48326 0.0
O86 O 0.18988 0.37842 0.48815 0.0
O87 O 0.18967 0.41338 0.48145 0.0
O88 O 0.93996 0.63313 0.84231 0.0
Cd89 Cd 0.96407 0.63325 0.89673 0.0
O90 O 0.9313 0.59913 0.84728 0.0
Cd91 Cd 0.95007 0.59266 0.89801 0.0
O92 O 0.96709 0.57318 0.93947 0.0
C93 C 0.96604 0.55303 0.93491 0.0
O94 O 0.95496 0.54545 0.90627 0.0
C95 C 0.92984 0.61691 0.83003 0.0
C96 C 0.961 0.67075 0.93912 0.0
O97 O 0.97107 0.67042 0.90754 0.0
O98 O 0.95227 0.65342 0.95075 0.0
O99 O 0.87225 0.9351 0.39127 0.0
Cd100 Cd 0.86633 0.95448 0.45033 0.0
O101 O 0.89376 0.91191 0.41856 0.0
Cd102 Cd 0.89884 0.93214 0.46836 0.0
O103 O 0.91708 0.95491 0.50274 0.0
C104 C 0.91246 0.97471 0.50268 0.0
O105 O 0.8958 0.98126 0.48327 0.0
C106 C 0.88317 0.91797 0.38974 0.0
C107 C 0.82272 0.95835 0.46501 0.0
O108 O 0.83306 0.97352 0.44888 0.0
O109 O 0.83305 0.94148 0.47446 0.0
O110 O 0.56952 0.86872 0.8857 0.0
Cd111 Cd 0.54583 0.87083 0.94049 0.0
O112 O 0.59738 0.88497 0.91048 0.0
Cd113 Cd 0.57865 0.89674 0.95819 0.0
O114 O 0.56307 0.92524 0.98091 0.0
C115 C 0.54413 0.92982 0.97073 0.0
O116 O 0.53366 0.91638 0.94897 0.0
C117 C 0.58884 0.87487 0.88315 0.0
C118 C 0.54306 0.83121 0.97619 0.0
O119 O 0.53281 0.83495 0.94553 0.0
O120 O 0.55453 0.8462 0.99032 0.0
O121 O 0.63336 0.57069 0.37967 0.0
Cd122 Cd 0.63244 0.55724 0.44452 0.0
O123 O 0.60598 0.59234 0.38739 0.0
Cd124 Cd 0.59468 0.57795 0.43992 0.0
O125 O 0.5657 0.56354 0.46326 0.0
C126 C 0.54892 0.56718 0.44397 0.0
O127 O 0.55048 0.57919 0.41357 0.0
C128 C 0.62129 0.58541 0.36712 0.0
C129 C 0.674 0.54616 0.46517 0.0
O130 O 0.66095 0.53198 0.45279 0.0
O131 O 0.66722 0.5654 0.46865 0.0
O132 O 0.93071 0.86176 0.12179 0.0
Cd133 Cd 0.95105 0.85906 0.06292 0.0
O134 O 0.91674 0.89359 0.11211 0.0
Cd135 Cd 0.93326 0.89916 0.05856 0.0
O136 O 0.95129 0.91931 0.01946 0.0
C137 C 0.96938 0.91397 0.00609 0.0
O138 O 0.97725 0.89506 0.01436 0.0
C139 C 0.9189 0.8771 0.13279 0.0
C140 C 0.95524 0.81601 0.04362 0.0
O141 O 0.96697 0.82446 0.06931 0.0
O142 O 0.94174 0.82795 0.02636 0.0
O143 O 0.63167 0.91053 0.60546 0.0
Cd144 Cd 0.62961 0.92545 0.54168 0.0
O145 O 0.60045 0.89446 0.60234 0.0
Cd146 Cd 0.59024 0.91137 0.55149 0.0
O147 O 0.56769 0.93441 0.52785 0.0
C148 C 0.56875 0.95356 0.53981 0.0
O149 O 0.58412 0.95878 0.56345 0.0
C150 C 0.61777 0.89817 0.61997 0.0
C151 C 0.67003 0.93974 0.52012 0.0
O152 O 0.65623 0.95275 0.5339 0.0
O153 O 0.66458 0.92013 0.51593 0.0
O154 O 0.5679 0.62992 0.11068 0.0
Cd155 Cd 0.54231 0.63596 0.05962 0.0
O156 O 0.59149 0.61075 0.07941 0.0
Cd157 Cd 0.56874 0.60472 0.03393 0.0
O158 O 0.54817 0.57812 0.01734 0.0
C159 C 0.54163 0.56674 0.04484 0.0
O160 O 0.54669 0.57253 0.07949 0.0
C161 C 0.58587 0.62047 0.10941 0.0
C162 C 0.53854 0.68001 0.04926 0.0
O163 O 0.52859 0.67047 0.07607 0.0
O164 O 0.5499 0.66871 0.02662 0.0
O165 O 0.87891 0.56552 0.57194 0.0
Cd166 Cd 0.87294 0.54706 0.51189 0.0
O167 O 0.88839 0.59565 0.54459 0.0
Cd168 Cd 0.89394 0.57923 0.49088 0.0
O169 O 0.91593 0.55926 0.45824 0.0
C170 C 0.92539 0.54476 0.47709 0.0
O171 O 0.92049 0.54235 0.51303 0.0
C172 C 0.88376 0.58523 0.57441 0.0
C173 C 0.82932 0.53962 0.50257 0.0
O174 O 0.84155 0.52513 0.51629 0.0
O175 O 0.83777 0.55745 0.49276 0.0
H176 H 0.0825 0.41601 0.20443 0.0
H177 H 0.05782 0.35126 0.20907 0.0
H178 H 0.07125 0.34771 0.27481 0.0
H179 H 0.12991 0.40802 0.25874 0.0
H180 H 0.12809 0.4333 0.28308 0.0
H181 H 0.11695 0.43044 0.23633 0.0
H182 H 0.08015 0.44329 0.26132 0.0
H183 H 0.09117 0.44615 0.30819 0.0
H184 H 0.06794 0.42962 0.30073 0.0
H185 H 0.08933 0.35076 0.33865 0.0
H186 H 0.10759 0.36132 0.39809 0.0
H187 H 0.11757 0.42502 0.35312 0.0
C188 C 0.08003 0.40105 0.21927 0.0
C189 C 0.06939 0.38379 0.20173 0.0
C190 C 0.06601 0.36462 0.22214 0.0
C191 C 0.07361 0.36247 0.25936 0.0
C192 C 0.08409 0.37981 0.27587 0.0
C193 C 0.087 0.39885 0.25667 0.0
C194 C 0.09804 0.41534 0.28122 0.0
C195 C 0.11952 0.42217 0.2638 0.0
C196 C 0.08345 0.43474 0.28828 0.0
C197 C 0.10126 0.4025 0.31705 0.0
C198 C 0.09328 0.38198 0.31331 0.0
C199 C 0.09536 0.36687 0.34209 0.0
C200 C 0.10577 0.37296 0.37561 0.0
C201 C 0.11355 0.39404 0.38021 0.0
C202 C 0.11124 0.40895 0.35058 0.0
H203 H 0.11398 0.12726 0.67488 0.0
H204 H 0.10108 0.05913 0.67386 0.0
H205 H 0.08655 0.06163 0.73897 0.0
H206 H 0.13042 0.1314 0.77059 0.0
H207 H 0.11775 0.15688 0.77875 0.0
H208 H 0.12651 0.14976 0.73185 0.0
H209 H 0.08827 0.15619 0.70605 0.0
H210 H 0.07939 0.16341 0.75289 0.0
H211 H 0.06602 0.14235 0.7273 0.0
H212 H 0.07673 0.07122 0.80628 0.0
H213 H 0.06926 0.0875 0.86823 0.0
H214 H 0.0853 0.14999 0.82321 0.0
C215 C 0.10796 0.11291 0.68835 0.0
C216 C 0.10848 0.09302 0.66945 0.0
C217 C 0.10045 0.07457 0.68775 0.0
C218 C 0.09233 0.07582 0.72475 0.0
C219 C 0.0921 0.09569 0.74271 0.0
C220 C 0.09945 0.11396 0.72492 0.0
C221 C 0.09733 0.13337 0.75028 0.0
C222 C 0.11931 0.14344 0.75834 0.0
C223 C 0.08182 0.1498 0.7331 0.0
C224 C 0.08803 0.12313 0.78543 0.0
C225 C 0.08524 0.10139 0.78059 0.0
C226 C 0.07816 0.08835 0.80998 0.0
C227 C 0.07356 0.09783 0.84507 0.0
C228 C 0.07556 0.12021 0.85034 0.0
C229 C 0.08309 0.1329 0.82 0.0
H230 H 0.38933 0.05229 0.29655 0.0
H231 H 0.37571 0.11286 0.35166 0.0
H232 H 0.37692 0.13101 0.28957 0.0
H233 H 0.42711 0.07138 0.2346 0.0
H234 H 0.41966 0.0545 0.19537 0.0
H235 H 0.41452 0.04589 0.24305 0.0
H236 H 0.37435 0.04108 0.22715 0.0
H237 H 0.37939 0.04962 0.17922 0.0
H238 H 0.35954 0.06316 0.20743 0.0
H239 H 0.38415 0.14312 0.22252 0.0
H240 H 0.39649 0.14796 0.15653 0.0
H241 H 0.40496 0.07928 0.14612 0.0
C242 C 0.38609 0.06929 0.29556 0.0
C243 C 0.38238 0.08113 0.329 0.0
C244 C 0.3785 0.10341 0.32642 0.0
C245 C 0.37911 0.11387 0.29125 0.0
C246 C 0.38339 0.10178 0.25895 0.0
C247 C 0.38663 0.07993 0.26081 0.0
C248 C 0.39268 0.07081 0.22261 0.0
C249 C 0.4148 0.06002 0.22402 0.0
C250 C 0.37546 0.05525 0.20826 0.0
C251 C 0.39313 0.09104 0.19922 0.0
C252 C 0.38747 0.10872 0.22045 0.0
C253 C 0.38826 0.12934 0.20544 0.0
C254 C 0.39532 0.13193 0.16795 0.0
C255 C 0.40162 0.11401 0.14605 0.0
C256 C 0.40004 0.09332 0.16187 0.0
H257 H 0.40389 0.40225 0.8314 0.0
H258 H 0.45585 0.3579 0.81033 0.0
H259 H 0.44873 0.35999 0.74154 0.0
H260 H 0.36845 0.38537 0.75205 0.0
H261 H 0.36056 0.41254 0.74228 0.0
H262 H 0.36728 0.40469 0.78993 0.0
H263 H 0.39552 0.43497 0.79306 0.0
H264 H 0.38897 0.44284 0.7455 0.0
H265 H 0.41617 0.4362 0.7575 0.0
H266 H 0.4382 0.36945 0.6752 0.0
H267 H 0.42671 0.38719 0.61623 0.0
H268 H 0.38286 0.42686 0.68074 0.0
C269 C 0.41333 0.39248 0.81237 0.0
C270 C 0.43021 0.37967 0.82609 0.0
C271 C 0.44273 0.36769 0.8003 0.0
C272 C 0.43874 0.3687 0.76126 0.0
C273 C 0.42228 0.38189 0.74853 0.0
C274 C 0.40981 0.39363 0.77332 0.0
C275 C 0.39484 0.40848 0.75228 0.0
C276 C 0.37139 0.4024 0.75957 0.0
C277 C 0.39915 0.432 0.7627 0.0
C278 C 0.40126 0.40371 0.71182 0.0
C279 C 0.41678 0.38801 0.71023 0.0
C280 C 0.4259 0.3816 0.67605 0.0
C281 C 0.41926 0.39179 0.6427 0.0
C282 C 0.40389 0.40843 0.64385 0.0
C283 C 0.39457 0.41414 0.67888 0.0
H284 H 0.90904 0.58441 0.79349 0.0
H285 H 0.92472 0.65181 0.78369 0.0
H286 H 0.90977 0.65216 0.71899 0.0
H287 H 0.92492 0.57003 0.70477 0.0
H288 H 0.90414 0.55062 0.6964 0.0
H289 H 0.91238 0.55651 0.74402 0.0
H290 H 0.87338 0.56608 0.76204 0.0
H291 H 0.86494 0.56006 0.71438 0.0
H292 H 0.85911 0.58583 0.7348 0.0
H293 H 0.89828 0.64384 0.65245 0.0
H294 H 0.89058 0.6277 0.59007 0.0
H295 H 0.88221 0.56583 0.64378 0.0
C296 C 0.90879 0.59942 0.77822 0.0
C297 C 0.91802 0.6181 0.79375 0.0
C298 C 0.91766 0.63731 0.7725 0.0
C299 C 0.90915 0.63768 0.73573 0.0
C300 C 0.90086 0.61878 0.7208 0.0
C301 C 0.9004 0.60005 0.74157 0.0
C302 C 0.89257 0.58144 0.71791 0.0
C303 C 0.90952 0.56362 0.71564 0.0
C304 C 0.87122 0.57285 0.7332 0.0
C305 C 0.8896 0.59241 0.6801 0.0
C306 C 0.89414 0.614 0.68243 0.0
C307 C 0.89426 0.62705 0.65043 0.0
C308 C 0.88994 0.61771 0.6151 0.0
C309 C 0.88568 0.59552 0.61204 0.0
C310 C 0.88507 0.58289 0.64519 0.0
H311 H 0.89529 0.90846 0.16747 0.0
H312 H 0.92196 0.8452 0.18576 0.0
H313 H 0.91123 0.84696 0.25288 0.0
H314 H 0.91352 0.93089 0.24935 0.0
H315 H 0.89042 0.94727 0.25876 0.0
H316 H 0.89668 0.93966 0.21095 0.0
H317 H 0.85897 0.92307 0.20318 0.0
H318 H 0.85249 0.93081 0.25102 0.0
H319 H 0.84985 0.90328 0.23658 0.0
H320 H 0.9031 0.85792 0.31947 0.0
H321 H 0.8966 0.87665 0.38001 0.0
H322 H 0.87435 0.93236 0.3183 0.0
C323 C 0.89832 0.8947 0.18528 0.0
C324 C 0.90945 0.87668 0.17127 0.0
C325 C 0.91339 0.85916 0.19573 0.0
C326 C 0.90731 0.85998 0.23394 0.0
C327 C 0.89706 0.87831 0.24715 0.0
C328 C 0.89232 0.89524 0.22344 0.0
C329 C 0.88292 0.91385 0.24531 0.0
C330 C 0.89672 0.9341 0.24082 0.0
C331 C 0.85968 0.91799 0.23331 0.0
C332 C 0.88404 0.90512 0.28523 0.0
C333 C 0.89201 0.8845 0.28566 0.0
C334 C 0.89638 0.87387 0.31947 0.0
C335 C 0.89274 0.88467 0.35369 0.0
C336 C 0.88479 0.90588 0.35384 0.0
C337 C 0.88001 0.916 0.31911 0.0
H338 H 0.58962 0.87422 0.66124 0.0
H339 H 0.65219 0.904 0.66714 0.0
H340 H 0.65433 0.89501 0.73508 0.0
H341 H 0.57059 0.89461 0.74277 0.0
H342 H 0.5554 0.87152 0.75726 0.0
H343 H 0.56078 0.87591 0.70795 0.0
H344 H 0.57822 0.8384 0.70298 0.0
H345 H 0.57279 0.83384 0.75248 0.0
H346 H 0.59967 0.83132 0.73465 0.0
H347 H 0.64685 0.88879 0.80385 0.0
H348 H 0.63036 0.886 0.86717 0.0
H349 H 0.57284 0.86001 0.81617 0.0
C350 C 0.6041 0.87823 0.67646 0.0
C351 C 0.62075 0.88976 0.65881 0.0
C352 C 0.63925 0.89507 0.67998 0.0
C353 C 0.64065 0.88995 0.71859 0.0
C354 C 0.62356 0.87929 0.73548 0.0
C355 C 0.60572 0.87328 0.71494 0.0
C356 C 0.58842 0.86439 0.74043 0.0
C357 C 0.56759 0.87739 0.73689 0.0
C358 C 0.58456 0.84057 0.73214 0.0
C359 C 0.59881 0.86747 0.77872 0.0
C360 C 0.61925 0.87565 0.77529 0.0
C361 C 0.63107 0.88191 0.80689 0.0
C362 C 0.62154 0.88032 0.84277 0.0
C363 C 0.60033 0.8727 0.84668 0.0
C364 C 0.58919 0.86556 0.81426 0.0
H365 H 0.59666 0.61506 0.33076 0.0
H366 H 0.65095 0.57287 0.31412 0.0
H367 H 0.6515 0.58225 0.2462 0.0
H368 H 0.56976 0.6006 0.25158 0.0
H369 H 0.55926 0.62671 0.2405 0.0
H370 H 0.56582 0.62011 0.28858 0.0
H371 H 0.59103 0.65295 0.29233 0.0
H372 H 0.58447 0.65972 0.24409 0.0
H373 H 0.61199 0.65608 0.25772 0.0
H374 H 0.64242 0.59162 0.1789 0.0
H375 H 0.62437 0.59988 0.11846 0.0
H376 H 0.57624 0.63608 0.17961 0.0
C377 C 0.60909 0.60826 0.31313 0.0
C378 C 0.62379 0.59327 0.32782 0.0
C379 C 0.63957 0.58448 0.30358 0.0
C380 C 0.64006 0.58978 0.26496 0.0
C381 C 0.62484 0.60407 0.25115 0.0
C382 C 0.60978 0.61335 0.27464 0.0
C383 C 0.59369 0.62629 0.25237 0.0
C384 C 0.5708 0.61791 0.25863 0.0
C385 C 0.59541 0.65018 0.26221 0.0
C386 C 0.60139 0.62197 0.21249 0.0
C387 C 0.61961 0.60948 0.21232 0.0
C388 C 0.62842 0.60179 0.17868 0.0
C389 C 0.61803 0.60653 0.14447 0.0
C390 C 0.59892 0.6187 0.14425 0.0
C391 C 0.59096 0.627 0.17869 0.0
H392 H 0.04519 0.32636 0.02246 0.0
H393 H 0.11251 0.3431 0.01887 0.0
H394 H 0.12109 0.30674 0.99618 0.0
H395 H 0.0517 0.27377 0.05643 0.0
H396 H 0.03043 0.26249 0.02838 0.0
H397 H 0.02945 0.2902 0.0421 0.0
H398 H 0.02578 0.30129 0.97168 0.0
H399 H 0.02672 0.27358 0.95774 0.0
H400 H 0.04546 0.29238 0.93786 0.0
H401 H 0.12261 0.26778 0.97847 0.0
H402 H 0.11679 0.22944 0.96503 0.0
H403 H 0.0484 0.23844 0.97823 0.0
C404 C 0.06172 0.32247 0.01654 0.0
C405 C 0.07818 0.3376 0.02245 0.0
C406 C 0.09961 0.33182 0.01445 0.0
C407 C 0.10466 0.31119 0.00154 0.0
C408 C 0.08807 0.2966 0.99643 0.0
C409 C 0.06702 0.30202 0.00338 0.0
C410 C 0.05226 0.28319 0.99658 0.0
C411 C 0.04026 0.27706 0.03305 0.0
C412 C 0.03664 0.2879 0.96402 0.0
C413 C 0.06834 0.26621 0.98546 0.0
C414 C 0.08891 0.27428 0.98547 0.0
C415 C 0.10655 0.26135 0.97793 0.0
C416 C 0.10309 0.23958 0.97041 0.0
C417 C 0.08214 0.23098 0.97031 0.0
C418 C 0.06458 0.2446 0.97757 0.0
H419 H 0.3073 0.05352 0.49794 0.0
H420 H 0.33507 0.11411 0.53251 0.0
H421 H 0.29981 0.12603 0.55569 0.0
H422 H 0.25894 0.0742 0.46366 0.0
H423 H 0.2426 0.0524 0.48025 0.0
H424 H 0.27031 0.04789 0.46922 0.0
H425 H 0.27663 0.03292 0.53671 0.0
H426 H 0.24887 0.0373 0.54794 0.0
H427 H 0.2694 0.04888 0.57729 0.0
H428 H 0.26106 0.13259 0.56983 0.0
H429 H 0.22176 0.13273 0.57639 0.0
H430 H 0.21936 0.06754 0.53427 0.0
C431 C 0.30605 0.06917 0.5109 0.0
C432 C 0.32397 0.08288 0.51344 0.0
C433 C 0.3216 0.1033 0.53036 0.0
C434 C 0.30164 0.11022 0.54362 0.0
C435 C 0.28423 0.09646 0.54008 0.0
C436 C 0.28627 0.07629 0.52446 0.0
C437 C 0.26489 0.06495 0.52266 0.0
C438 C 0.25884 0.05955 0.4815 0.0
C439 C 0.26496 0.04482 0.54765 0.0
C440 C 0.25044 0.08208 0.53893 0.0
C441 C 0.26193 0.10011 0.54889 0.0
C442 C 0.25193 0.11846 0.56261 0.0
C443 C 0.2296 0.11841 0.56612 0.0
C444 C 0.21752 0.1001 0.55609 0.0
C445 C 0.22818 0.08167 0.54267 0.0
H446 H 0.40879 0.30751 0.98254 0.0
H447 H 0.47578 0.3233 0.99817 0.0
H448 H 0.4836 0.28539 0.01219 0.0
H449 H 0.40525 0.26741 0.05602 0.0
H450 H 0.3877 0.25036 0.02905 0.0
H451 H 0.38731 0.27885 0.02161 0.0
H452 H 0.3946 0.27301 0.95007 0.0
H453 H 0.39507 0.24451 0.95731 0.0
H454 H 0.41759 0.25766 0.93559 0.0
H455 H 0.48411 0.24569 0.02427 0.0
H456 H 0.47742 0.20698 0.03191 0.0
H457 H 0.41029 0.21711 0.00641 0.0
C458 C 0.42508 0.30304 0.98921 0.0
C459 C 0.44166 0.31838 0.98946 0.0
C460 C 0.46281 0.31182 0.99787 0.0
C461 C 0.46741 0.29034 0.00591 0.0
C462 C 0.45071 0.2756 0.00519 0.0
C463 C 0.42998 0.28165 0.99695 0.0
C464 C 0.41505 0.26259 0.99696 0.0
C465 C 0.39781 0.26495 0.02775 0.0
C466 C 0.40499 0.25925 0.95764 0.0
C467 C 0.43062 0.24486 0.00647 0.0
C468 C 0.45109 0.2527 0.01132 0.0
C469 C 0.46815 0.23936 0.02049 0.0
C470 C 0.46419 0.2174 0.02478 0.0
C471 C 0.44335 0.209 0.01964 0.0
C472 C 0.42641 0.223 0.01035 0.0
H473 H 0.31808 0.44327 0.50463 0.0
H474 H 0.34199 0.38052 0.47331 0.0
H475 H 0.30498 0.36794 0.46381 0.0
H476 H 0.27294 0.42578 0.5561 0.0
H477 H 0.25556 0.44689 0.54004 0.0
H478 H 0.28395 0.45131 0.54265 0.0
H479 H 0.28452 0.4621 0.4718 0.0
H480 H 0.25609 0.45779 0.469 0.0
H481 H 0.27376 0.44403 0.43685 0.0
H482 H 0.26543 0.36139 0.46263 0.0
H483 H 0.22599 0.36197 0.46581 0.0
H484 H 0.22776 0.42939 0.49492 0.0
C485 C 0.31554 0.42694 0.49543 0.0
C486 C 0.33292 0.41286 0.48976 0.0
C487 C 0.32893 0.39162 0.4777 0.0
C488 C 0.30796 0.38431 0.47228 0.0
C489 C 0.29118 0.39852 0.47858 0.0
C490 C 0.29472 0.41945 0.48946 0.0
C491 C 0.27385 0.43137 0.49478 0.0
C492 C 0.27144 0.4393 0.53583 0.0
C493 C 0.27195 0.44992 0.46641 0.0
C494 C 0.25802 0.41374 0.48589 0.0
C495 C 0.26835 0.3949 0.47671 0.0
C496 C 0.25715 0.37611 0.46929 0.0
C497 C 0.23476 0.37657 0.4713 0.0
C498 C 0.22384 0.39575 0.48031 0.0
C499 C 0.23567 0.41458 0.48742 0.0
H500 H 0.95179 0.79656 0.97444 0.0
H501 H 0.96236 0.78378 0.09365 0.0
H502 H 0.9638 0.74495 0.08021 0.0
H503 H 0.91974 0.75047 0.95268 0.0
H504 H 0.93195 0.74592 0.90714 0.0
H505 H 0.93072 0.77259 0.92635 0.0
H506 H 0.97182 0.77618 0.91967 0.0
H507 H 0.97317 0.74956 0.90031 0.0
H508 H 0.98893 0.75645 0.94127 0.0
H509 H 0.96206 0.70749 0.05408 0.0
H510 H 0.96232 0.67421 0.01599 0.0
H511 H 0.95694 0.71168 0.91314 0.0
C512 C 0.95433 0.78553 0.99764 0.0
C513 C 0.95676 0.793 0.03511 0.0
C514 C 0.96046 0.77825 0.06476 0.0
C515 C 0.9612 0.75622 0.05742 0.0
C516 C 0.95868 0.7493 0.02016 0.0
C517 C 0.95574 0.76353 0.99065 0.0
C518 C 0.95477 0.75201 0.95293 0.0
C519 C 0.933 0.75545 0.93365 0.0
C520 C 0.97328 0.75896 0.92703 0.0
C521 C 0.95743 0.72908 0.96588 0.0
C522 C 0.95926 0.72783 0.00483 0.0
C523 C 0.9609 0.70827 0.02353 0.0
C524 C 0.96095 0.68949 0.00175 0.0
C525 C 0.95987 0.6905 0.96178 0.0
C526 C 0.95808 0.71054 0.94369 0.0
H527 H 0.70561 0.91501 0.51006 0.0
H528 H 0.6837 0.98085 0.50864 0.0
H529 H 0.72038 0.99289 0.49336 0.0
H530 H 0.75564 0.92572 0.55522 0.0
H531 H 0.77008 0.90575 0.52871 0.0
H532 H 0.74196 0.90232 0.53778 0.0
H533 H 0.7349 0.89845 0.46576 0.0
H534 H 0.76301 0.90181 0.45647 0.0
H535 H 0.74383 0.91916 0.43396 0.0
H536 H 0.75948 0.99757 0.47736 0.0
H537 H 0.79832 0.9947 0.46521 0.0
H538 H 0.79469 0.92594 0.4806 0.0
C539 C 0.70848 0.93195 0.50622 0.0
C540 C 0.6918 0.947 0.51022 0.0
C541 C 0.69627 0.96906 0.50561 0.0
C542 C 0.71702 0.97603 0.49688 0.0
C543 C 0.73313 0.96076 0.49328 0.0
C544 C 0.72912 0.93919 0.49807 0.0
C545 C 0.74934 0.9261 0.49409 0.0
C546 C 0.75456 0.91428 0.53116 0.0
C547 C 0.74766 0.91046 0.46057 0.0
C548 C 0.76537 0.94365 0.48621 0.0
C549 C 0.7557 0.96352 0.48552 0.0
C550 C 0.76724 0.9821 0.47801 0.0
C551 C 0.78927 0.98032 0.47109 0.0
C552 C 0.79952 0.96013 0.4722 0.0
C553 C 0.78734 0.94162 0.47993 0.0
H554 H 0.5406 0.70375 0.98422 0.0
H555 H 0.53463 0.70908 0.10625 0.0
H556 H 0.53529 0.74852 0.10104 0.0
H557 H 0.57526 0.74811 0.96911 0.0
H558 H 0.56239 0.75674 0.92608 0.0
H559 H 0.56171 0.72895 0.93942 0.0
H560 H 0.52033 0.72926 0.9361 0.0
H561 H 0.52088 0.75703 0.92258 0.0
H562 H 0.5056 0.74874 0.96328 0.0
H563 H 0.53955 0.78726 0.08273 0.0
H564 H 0.54222 0.82275 0.05192 0.0
H565 H 0.54151 0.79222 0.94164 0.0
C566 C 0.53937 0.71327 0.00978 0.0
C567 C 0.53771 0.70348 0.04566 0.0
C568 C 0.53586 0.71635 0.0785 0.0
C569 C 0.53632 0.73872 0.07583 0.0
C570 C 0.53814 0.74792 0.04004 0.0
C571 C 0.53921 0.73562 0.00753 0.0
C572 C 0.54027 0.74949 0.97245 0.0
C573 C 0.56115 0.74559 0.95049 0.0
C574 C 0.52059 0.74592 0.94712 0.0
C575 C 0.53997 0.77151 0.99033 0.0
C576 C 0.53907 0.77025 0.02938 0.0
C577 C 0.53991 0.78846 0.05216 0.0
C578 C 0.54151 0.8085 0.0345 0.0
C579 C 0.54177 0.81011 0.99455 0.0
C580 C 0.54093 0.79138 0.97227 0.0
H581 H 0.70773 0.57365 0.47236 0.0
H582 H 0.69109 0.50631 0.47634 0.0
H583 H 0.72901 0.49722 0.48799 0.0
H584 H 0.75646 0.5668 0.42201 0.0
H585 H 0.77033 0.58787 0.44674 0.0
H586 H 0.74175 0.58912 0.4412 0.0
H587 H 0.73722 0.59254 0.51393 0.0
H588 H 0.7658 0.5914 0.5197 0.0
H589 H 0.74896 0.57265 0.54447 0.0
H590 H 0.76892 0.49561 0.49887 0.0
H591 H 0.80784 0.50147 0.50553 0.0
H592 H 0.79825 0.56973 0.49114 0.0
C593 C 0.71201 0.557 0.47614 0.0
C594 C 0.69646 0.54068 0.47377 0.0
C595 C 0.70276 0.51907 0.47818 0.0
C596 C 0.72423 0.51376 0.48484 0.0
C597 C 0.7392 0.53025 0.48667 0.0
C598 C 0.73337 0.55142 0.48227 0.0
C599 C 0.75262 0.56605 0.48377 0.0
C600 C 0.75545 0.57817 0.44619 0.0
C601 C 0.75105 0.58157 0.51748 0.0
C602 C 0.77023 0.54981 0.4896 0.0
C603 C 0.76217 0.52926 0.49157 0.0
C604 C 0.77541 0.51163 0.49729 0.0
C605 C 0.79748 0.51511 0.50105 0.0
C606 C 0.80607 0.53603 0.49862 0.0
C607 C 0.79219 0.55354 0.49279 0.0
H608 H 0.96603 0.50922 0.93305 0.0
H609 H 0.99091 0.56338 0.99626 0.0
H610 H 0.00914 0.53856 0.04005 0.0
H611 H 0.95593 0.47553 0.01299 0.0
H612 H 0.96375 0.4513 0.98901 0.0
H613 H 0.95297 0.47334 0.96234 0.0
H614 H 0.98671 0.47353 0.91975 0.0
H615 H 0.99762 0.4515 0.9463 0.0
H616 H 0.01274 0.47587 0.94127 0.0
H617 H 0.02438 0.50787 0.07714 0.0
H618 H 0.03534 0.47353 0.10539 0.0
H619 H 0.0004 0.4394 0.01791 0.0
C620 C 0.97533 0.51591 0.95604 0.0
C621 C 0.97705 0.53827 0.96121 0.0
C622 C 0.98936 0.54632 0.99173 0.0
C623 C 0.99979 0.53236 0.01673 0.0
C624 C 0.99774 0.51041 0.01079 0.0
C625 C 0.98581 0.50223 0.98123 0.0
C626 C 0.986 0.478 0.98131 0.0
C627 C 0.96331 0.46902 0.98675 0.0
C628 C 0.99639 0.46922 0.945 0.0
C629 C 0.99984 0.47381 0.01565 0.0
C630 C 0.00648 0.49272 0.03219 0.0
C631 C 0.0193 0.49296 0.06441 0.0
C632 C 0.02543 0.47335 0.08024 0.0
C633 C 0.01873 0.45375 0.06389 0.0
C634 C 0.00581 0.45408 0.03107 0.0
H635 H 0.02219 0.01633 0.5905 0.0
H636 H 0.99636 0.08064 0.58283 0.0
H637 H 0.96176 0.06587 0.5619 0.0
H638 H 0.99757 0.99613 0.50864 0.0
H639 H 0.99233 0.96994 0.52782 0.0
H640 H 0.01449 0.98539 0.54532 0.0
H641 H 0.99978 0.9821 0.6137 0.0
H642 H 0.97755 0.96659 0.59638 0.0
H643 H 0.97279 0.99047 0.62374 0.0
H644 H 0.93089 0.04441 0.53731 0.0
H645 H 0.90587 0.01771 0.51111 0.0
H646 H 0.95163 0.96734 0.53534 0.0
C647 C 0.00918 0.0273 0.58495 0.0
C648 C 0.012 0.04966 0.5884 0.0
C649 C 0.9946 0.06346 0.58051 0.0
C650 C 0.97485 0.05522 0.56865 0.0
C651 C 0.97271 0.03315 0.56505 0.0
C652 C 0.98935 0.01936 0.57315 0.0
C653 C 0.98315 0.99635 0.56531 0.0
C654 C 0.99775 0.98638 0.53497 0.0
C655 C 0.98332 0.9831 0.60197 0.0
C656 C 0.96061 0.99942 0.55066 0.0
C657 C 0.95483 0.02074 0.55103 0.0
C658 C 0.93514 0.02763 0.53726 0.0
C659 C 0.92104 0.01234 0.52238 0.0
C660 C 0.92673 0.99041 0.5213 0.0
C661 C 0.94669 0.98393 0.53612 0.0
H662 H 0.45268 0.01855 0.98119 0.0
H663 H 0.50095 0.06308 0.02111 0.0
H664 H 0.52824 0.03467 0.01644 0.0
H665 H 0.4716 0.97293 0.02999 0.0
H666 H 0.46587 0.95441 0.99218 0.0
H667 H 0.45023 0.97842 0.99715 0.0
H668 H 0.45935 0.98923 0.92816 0.0
H669 H 0.47482 0.96512 0.92282 0.0
H670 H 0.48694 0.99075 0.91364 0.0
H671 H 0.54977 0.00075 0.01134 0.0
H672 H 0.56473 0.96475 0.00017 0.0
H673 H 0.50256 0.94275 0.96179 0.0
C674 C 0.46903 0.02242 0.98858 0.0
C675 C 0.47467 0.04304 0.00159 0.0
C676 C 0.49625 0.04743 0.01094 0.0
C677 C 0.51186 0.03137 0.00854 0.0
C678 C 0.50565 0.01109 0.99641 0.0
C679 C 0.48482 0.00665 0.98606 0.0
C680 C 0.48232 0.98355 0.9739 0.0
C681 C 0.46657 0.97163 -0.00014 0.0
C682 C 0.47546 0.98209 0.93215 0.0
C683 C 0.50496 0.97562 0.9794 0.0
C684 C 0.51815 0.99171 0.99262 0.0
C685 C 0.53964 0.98807 0.00069 0.0
C686 C 0.54795 0.96753 0.99445 0.0
C687 C 0.53483 0.95095 0.98 0.0
C688 C 0.51303 0.95511 0.97267 0.0
H689 H 0.54013 0.5399 0.50313 0.0
H690 H 0.51061 0.57251 0.40801 0.0
H691 H 0.47608 0.55564 0.42351 0.0
H692 H 0.51204 0.49069 0.49263 0.0
H693 H 0.50934 0.48604 0.54279 0.0
H694 H 0.53162 0.50128 0.52509 0.0
H695 H 0.52132 0.53286 0.56904 0.0
H696 H 0.49903 0.51769 0.58695 0.0
H697 H 0.49469 0.5438 0.56676 0.0
H698 H 0.4449 0.53445 0.44824 0.0
H699 H 0.41934 0.51063 0.48096 0.0
H700 H 0.46924 0.49195 0.55976 0.0
C701 C 0.52639 0.54361 0.4857 0.0
C702 C 0.5281 0.55755 0.45437 0.0
C703 C 0.50972 0.5619 0.43219 0.0
C704 C 0.49001 0.5524 0.44075 0.0
C705 C 0.4889 0.53862 0.47163 0.0
C706 C 0.50657 0.53427 0.49383 0.0
C707 C 0.50115 0.51859 0.52505 0.0
C708 C 0.51432 0.49792 0.52113 0.0
C709 C 0.50423 0.52886 0.56427 0.0
C710 C 0.47773 0.51467 0.5167 0.0
C711 C 0.47095 0.52642 0.48585 0.0
C712 C 0.45 0.52522 0.47253 0.0
C713 C 0.43561 0.51165 0.49127 0.0
C714 C 0.44226 0.49943 0.52292 0.0
C715 C 0.46361 0.50108 0.53569 0.0
H716 H 0.00118 0.03066 0.93647 0.0
H717 H 0.06188 0.00427 0.89941 0.0
H718 H 0.04926 0.96803 0.91583 0.0
H719 H 0.99469 0.99771 0.01586 0.0
H720 H 0.96616 0.99486 0.01088 0.0
H721 H 0.97928 0.01842 0.99317 0.0
H722 H 0.96329 0.0115 0.92654 0.0
H723 H 0.95008 0.98789 0.9441 0.0
H724 H 0.96767 0.98605 0.90379 0.0
H725 H 0.03098 0.93497 0.94087 0.0
H726 H 0.00839 0.9078 0.9722 0.0
H727 H 0.95964 0.95595 0.99207 0.0
C728 C 0.01174 0.01725 0.9313 0.0
C729 C 0.03252 0.02033 0.91659 0.0
C730 C 0.04587 0.00233 0.91055 0.0
C731 C 0.03884 0.98166 0.91974 0.0
C732 C 0.01836 0.97924 0.93468 0.0
C733 C 0.00497 0.99654 0.94022 0.0
C734 C 0.9841 0.98978 0.95829 0.0
C735 C 0.98089 0.00084 0.99683 0.0
C736 C 0.96517 0.99406 0.93158 0.0
C737 C 0.98804 0.96604 0.9629 0.0
C738 C 0.00781 0.96022 0.94886 0.0
C739 C 0.01536 0.9393 0.95158 0.0
C740 C 0.00242 0.92398 0.96947 0.0
C741 C 0.9822 0.92969 0.98448 0.0
C742 C 0.97491 0.95098 0.9806 0.0
H743 H 0.45527 0.99225 0.46232 0.0
H744 H 0.471 0.05572 0.50385 0.0
H745 H 0.5058 0.04227 0.52662 0.0
H746 H 0.48013 0.96255 0.53849 0.0
H747 H 0.48958 0.94157 0.5077 0.0
H748 H 0.46566 0.95611 0.49582 0.0
H749 H 0.482 0.96589 0.43063 0.0
H750 H 0.50605 0.95155 0.44244 0.0
H751 H 0.5075 0.97927 0.42875 0.0
H752 H 0.53907 0.02206 0.5441 0.0
H753 H 0.56814 0.9963 0.55639 0.0
H754 H 0.531 0.94622 0.50219 0.0
C755 C 0.46593 0.00329 0.47654 0.0
C756 C 0.46037 0.02504 0.48141 0.0
C757 C 0.47489 0.03899 0.49983 0.0
C758 C 0.49471 0.03152 0.51282 0.0
C759 C 0.4998 0.01007 0.50706 0.0
C760 C 0.48583 0.99614 0.48946 0.0
C761 C 0.49533 0.97393 0.48625 0.0
C762 C 0.48188 0.95758 0.5084 0.0
C763 C 0.49787 0.96728 0.44454 0.0
C764 C 0.51684 0.97755 0.50484 0.0
C765 C 0.51909 0.9985 0.51666 0.0
C766 C 0.53749 0.00562 0.53495 0.0
C767 C 0.55393 0.99086 0.54175 0.0
C768 C 0.5519 0.96925 0.53017 0.0
C769 C 0.53313 0.96265 0.51116 0.0
H770 H 0.53156 0.548 0.9766 0.0
H771 H 0.52604 0.53918 0.09821 0.0
H772 H 0.50927 0.50398 0.08775 0.0
H773 H 0.48118 0.522 0.95152 0.0
H774 H 0.49207 0.51004 0.90924 0.0
H775 H 0.50256 0.53508 0.92634 0.0
H776 H 0.54062 0.51874 0.92795 0.0
H777 H 0.53024 0.49363 0.91109 0.0
H778 H 0.5453 0.4946 0.95457 0.0
H779 H 0.49492 0.46883 0.0642 0.0
H780 H 0.48293 0.43683 0.02896 0.0
H781 H 0.49762 0.46877 0.92293 0.0
C782 C 0.52659 0.5388 0.00104 0.0
C783 C 0.53011 0.54639 0.03823 0.0
C784 C 0.5235 0.53375 0.06943 0.0
C785 C 0.51395 0.51371 0.0638 0.0
C786 C 0.51104 0.50656 0.02681 0.0
C787 C 0.51702 0.51877 0.99595 0.0
C788 C 0.51264 0.50712 0.95915 0.0
C789 C 0.49612 0.51929 0.93516 0.0
C790 C 0.53344 0.5033 0.93689 0.0
C791 C 0.50351 0.48637 0.97418 0.0
C792 C 0.50268 0.48636 0.01327 0.0
C793 C 0.49535 0.4687 0.03356 0.0
C794 C 0.48863 0.45058 0.01331 0.0
C795 C 0.48928 0.45029 0.97321 0.0
C796 C 0.49681 0.4685 0.95357 0.0
H797 H 0.94807 0.51259 0.5106 0.0
H798 H 0.94269 0.54836 0.40572 0.0
H799 H 0.97394 0.52888 0.38007 0.0
H800 H 0.00402 0.51298 0.51597 0.0
H801 H 0.00625 0.48633 0.53498 0.0
H802 H 0.98254 0.50185 0.54372 0.0
H803 H 0.95918 0.47162 0.5152 0.0
H804 H 0.98284 0.45593 0.50654 0.0
H805 H 0.96483 0.46193 0.46814 0.0
H806 H 0.00751 0.50705 0.36785 0.0
H807 H 0.03977 0.48417 0.36955 0.0
H808 H 0.02248 0.4629 0.4825 0.0
C809 C 0.95325 0.51618 0.48203 0.0
C810 C 0.94291 0.532 0.46015 0.0
C811 C 0.95031 0.53625 0.42297 0.0
C812 C 0.96805 0.52527 0.40817 0.0
C813 C 0.9781 0.51003 0.43083 0.0
C814 C 0.97083 0.50539 0.46687 0.0
C815 C 0.98482 0.48892 0.48609 0.0
C816 C 0.99501 0.49808 0.52232 0.0
C817 C 0.97216 0.46838 0.49447 0.0
C818 C 0.00136 0.48527 0.45553 0.0
C819 C 0.99721 0.49749 0.42378 0.0
C820 C 0.01079 0.49728 0.39245 0.0
C821 C 0.0291 0.48427 0.39371 0.0
C822 C 0.03364 0.47169 0.42611 0.0
C823 C 0.01944 0.47219 0.4572 0.0
loop_
_geom_bond_atom_site_label_1
_geom_bond_atom_site_label_2
_geom_bond_distance
_geom_bond_site_symmetry_2
_ccdc_geom_bond_type
O0 Cd1 2.300 . S
O0 C7 1.275 . S
Cd1 O0 2.300 . S
Cd1 O9 2.381 . S
Cd1 O10 2.378 . S
O2 Cd3 2.385 . S
O2 C7 1.255 . S
Cd3 O2 2.385 . S
Cd3 O4 2.317 . S
O4 Cd3 2.317 . S
O4 C5 1.232 . S
C5 O4 1.232 . S
C5 O6 1.218 . S
O6 C5 1.218 . S
C7 O0 1.275 . S
C7 O2 1.255 . S
C8 O9 1.258 . S
C8 O10 1.256 . S
O9 Cd1 2.381 . S
O9 C8 1.258 . S
O10 Cd1 2.378 . S
O10 C8 1.256 . S
O11 Cd12 2.300 . S
O11 C18 1.275 . S
Cd12 O11 2.300 . S
Cd12 O20 2.381 . S
Cd12 O21 2.378 . S
O13 Cd14 2.385 . S
O13 C18 1.255 . S
Cd14 O13 2.385 . S
Cd14 O15 2.317 . S
O15 Cd14 2.317 . S
O15 C16 1.232 . S
C16 O15 1.232 . S
C16 O17 1.218 . S
O17 C16 1.218 . S
C18 O11 1.275 . S
C18 O13 1.255 . S
C19 O20 1.258 . S
C19 O21 1.256 . S
O20 Cd12 2.381 . S
O20 C19 1.258 . S
O21 Cd12 2.378 . S
O21 C19 1.256 . S
O22 Cd23 2.300 . S
O22 C29 1.275 . S
Cd23 O22 2.300 . S
Cd23 O31 2.381 . S
Cd23 O32 2.378 . S
O24 Cd25 2.385 . S
O24 C29 1.255 . S
Cd25 O24 2.385 . S
Cd25 O26 2.317 . S
O26 Cd25 2.317 . S
O26 C27 1.232 . S
C27 O26 1.232 . S
C27 O28 1.218 . S
O28 C27 1.218 . S
C29 O22 1.275 . S
C29 O24 1.255 . S
C30 O31 1.258 . S
C30 O32 1.256 . S
O31 Cd23 2.381 . S
O31 C30 1.258 . S
O32 Cd23 2.378 . S
O32 C30 1.256 . S
O33 Cd34 2.300 . S
O33 C40 1.275 . S
Cd34 O33 2.300 . S
Cd34 O42 2.381 . S
Cd34 O43 2.378 . S
O35 Cd36 2.385 . S
O35 C40 1.255 . S
Cd36 O35 2.385 . S
Cd36 O37 2.317 . S
O37 Cd36 2.317 . S
O37 C38 1.232 . S
C38 O37 1.232 . S
C38 O39 1.218 . S
O39 C38 1.218 . S
C40 O33 1.275 . S
C40 O35 1.255 . S
C41 O42 1.258 . S
C41 O43 1.256 . S
O42 Cd34 2.381 . S
O42 C41 1.258 . S
O43 Cd34 2.378 . S
O43 C41 1.256 . S
O44 Cd45 2.300 . S
O44 C51 1.275 . S
Cd45 O44 2.300 . S
Cd45 O53 2.381 . S
Cd45 O54 2.378 . S
O46 Cd47 2.385 . S
O46 C51 1.255 . S
Cd47 O46 2.385 . S
Cd47 O48 2.317 . S
O48 Cd47 2.317 . S
O48 C49 1.232 . S
C49 O48 1.232 . S
C49 O50 1.218 . S
O50 C49 1.218 . S
C51 O44 1.275 . S
C51 O46 1.255 . S
C52 O53 1.258 . S
C52 O54 1.256 . S
O53 Cd45 2.381 . S
O53 C52 1.258 . S
O54 Cd45 2.378 . S
O54 C52 1.256 . S
O55 Cd56 2.300 . S
O55 C62 1.275 . S
Cd56 O55 2.300 . S
Cd56 O64 2.381 . S
Cd56 O65 2.378 . S
O57 Cd58 2.385 . S
O57 C62 1.255 . S
Cd58 O57 2.385 . S
Cd58 O59 2.317 . S
O59 Cd58 2.317 . S
O59 C60 1.232 . S
C60 O59 1.232 . S
C60 O61 1.218 . S
O61 C60 1.218 . S
C62 O55 1.275 . S
C62 O57 1.255 . S
C63 O64 1.258 . S
C63 O65 1.256 . S
O64 Cd56 2.381 . S
O64 C63 1.258 . S
O65 Cd56 2.378 . S
O65 C63 1.256 . S
O66 Cd67 2.300 . S
O66 C73 1.275 . S
Cd67 O66 2.300 . S
Cd67 O75 2.381 . S
Cd67 O76 2.378 . S
O68 Cd69 2.385 . S
O68 C73 1.255 . S
Cd69 O68 2.385 . S
Cd69 O70 2.317 . S
O70 Cd69 2.317 . S
O70 C71 1.232 . S
C71 O70 1.232 . S
C71 O72 1.218 . S
O72 C71 1.218 . S
C73 O66 1.275 . S
C73 O68 1.255 . S
C74 O75 1.258 . S
C74 O76 1.256 . S
O75 Cd67 2.381 . S
O75 C74 1.258 . S
O76 Cd67 2.378 . S
O76 C74 1.256 . S
O77 Cd78 2.300 . S
O77 C84 1.275 . S
Cd78 O77 2.300 . S
Cd78 O86 2.381 . S
Cd78 O87 2.378 . S
O79 Cd80 2.385 . S
O79 C84 1.255 . S
Cd80 O79 2.385 . S
Cd80 O81 2.317 . S
O81 Cd80 2.317 . S
O81 C82 1.232 . S
C82 O81 1.232 . S
C82 O83 1.218 . S
O83 C82 1.218 . S
C84 O77 1.275 . S
C84 O79 1.255 . S
C85 O86 1.258 . S
C85 O87 1.256 . S
O86 Cd78 2.381 . S
O86 C85 1.258 . S
O87 Cd78 2.378 . S
O87 C85 1.256 . S
O88 Cd89 2.300 . S
O88 C95 1.275 . S
Cd89 O88 2.300 . S
Cd89 O97 2.381 . S
Cd89 O98 2.378 . S
O90 Cd91 2.385 . S
O90 C95 1.255 . S
Cd91 O90 2.385 . S
Cd91 O92 2.317 . S
O92 Cd91 2.317 . S
O92 C93 1.232 . S
C93 O92 1.232 . S
C93 O94 1.218 . S
O94 C93 1.218 . S
C95 O88 1.275 . S
C95 O90 1.255 . S
C96 O97 1.258 . S
C96 O98 1.256 . S
O97 Cd89 2.381 . S
O97 C96 1.258 . S
O98 Cd89 2.378 . S
O98 C96 1.256 . S
O99 Cd100 2.300 . S
O99 C106 1.275 . S
Cd100 O99 2.300 . S
Cd100 O108 2.381 . S
Cd100 O109 2.378 . S
O101 Cd102 2.385 . S
O101 C106 1.255 . S
Cd102 O101 2.385 . S
Cd102 O103 2.317 . S
O103 Cd102 2.317 . S
O103 C104 1.232 . S
C104 O103 1.232 . S
C104 O105 1.218 . S
O105 C104 1.218 . S
C106 O99 1.275 . S
C106 O101 1.255 . S
C107 O108 1.258 . S
C107 O109 1.256 . S
O108 Cd100 2.381 . S
O108 C107 1.258 . S
O109 Cd100 2.378 . S
O109 C107 1.256 . S
O110 Cd111 2.300 . S
O110 C117 1.275 . S
Cd111 O110 2.300 . S
Cd111 O119 2.381 . S
Cd111 O120 2.378 . S
O112 Cd113 2.385 . S
O112 C117 1.255 . S
Cd113 O112 2.385 . S
Cd113 O114 2.317 . S
O114 Cd113 2.317 . S
O114 C115 1.232 . S
C115 O114 1.232 . S
C115 O116 1.218 . S
O116 C115 1.218 . S
C117 O110 1.275 . S
C117 O112 1.255 . S
C118 O119 1.258 . S
C118 O120 1.256 . S
O119 Cd111 2.381 . S
O119 C118 1.258 . S
O120 Cd111 2.378 . S
O120 C118 1.256 . S
O121 Cd122 2.300 . S
O121 C128 1.275 . S
Cd122 O121 2.300 . S
Cd122 O130 2.381 . S
Cd122 O131 2.378 . S
O123 Cd124 2.385 . S
O123 C128 1.255 . S
Cd124 O123 2.385 . S
Cd124 O125 2.317 . S
O125 Cd124 2.317 . S
O125 C126 1.232 . S
C126 O125 1.232 . S
C126 O127 1.218 . S
O127 C126 1.218 . S
C128 O121 1.275 . S
C128 O123 1.255 . S
C129 O130 1.258 . S
C129 O131 1.256 . S
O130 Cd122 2.381 . S
O130 C129 1.258 . S
O131 Cd122 2.378 . S
O131 C129 1.256 . S
O132 Cd133 2.300 . S
O132 C139 1.275 . S
Cd133 O132 2.300 . S
Cd133 O141 2.381 . S
Cd133 O142 2.378 . S
O134 Cd135 2.385 . S
O134 C139 1.255 . S
Cd135 O134 2.385 . S
Cd135 O136 2.317 . S
O136 Cd135 2.317 . S
O136 C137 1.232 . S
C137 O136 1.232 . S
C137 O138 1.218 . S
O138 C137 1.218 . S
C139 O132 1.275 . S
C139 O134 1.255 . S
C140 O141 1.258 . S
C140 O142 1.256 . S
O141 Cd133 2.381 . S
O141 C140 1.258 . S
O142 Cd133 2.378 . S
O142 C140 1.256 . S
O143 Cd144 2.300 . S
O143 C150 1.275 . S
Cd144 O143 2.300 . S
Cd144 O152 2.381 . S
Cd144 O153 2.378 . S
O145 Cd146 2.385 . S
O145 C150 1.255 . S
Cd146 O145 2.385 . S
Cd146 O147 2.317 . S
O147 Cd146 2.317 . S
O147 C148 1.232 . S
C148 O147 1.232 . S
C148 O149 1.218 . S
O149 C148 1.218 . S
C150 O143 1.275 . S
C150 O145 1.255 . S
C151 O152 1.258 . S
C151 O153 1.256 . S
O152 Cd144 2.381 . S
O152 C151 1.258 . S
O153 Cd144 2.378 . S
O153 C151 1.256 . S
O154 Cd155 2.300 . S
O154 C161 1.275 . S
Cd155 O154 2.300 . S
Cd155 O163 2.381 . S
Cd155 O164 2.378 . S
O156 Cd157 2.385 . S
O156 C161 1.255 . S
Cd157 O156 2.385 . S
Cd157 O158 2.317 . S
O158 Cd157 2.317 . S
O158 C159 1.232 . S
C159 O158 1.232 . S
C159 O160 1.218 . S
O160 C159 1.218 . S
C161 O154 1.275 . S
C161 O156 1.255 . S
C162 O163 1.258 . S
C162 O164 1.256 . S
O163 Cd155 2.381 . S
O163 C162 1.258 . S
O164 Cd155 2.378 . S
O164 C162 1.256 . S
O165 Cd166 2.300 . S
O165 C172 1.275 . S
Cd166 O165 2.300 . S
Cd166 O174 2.381 . S
Cd166 O175 2.378 . S
O167 Cd168 2.385 . S
O167 C172 1.255 . S
Cd168 O167 2.385 . S
Cd168 O169 2.317 . S
O169 Cd168 2.317 . S
O169 C170 1.232 . S
C170 O169 1.232 . S
C170 O171 1.218 . S
O171 C170 1.218 . S
C172 O165 1.275 . S
C172 O167 1.255 . S
C173 O174 1.258 . S
C173 O175 1.256 . S
O174 Cd166 2.381 . S
O174 C173 1.258 . S
O175 Cd166 2.378 . S
O175 C173 1.256 . S
H176 C188 0.930 . S
H177 C190 0.930 . S
H178 C191 0.930 . S
H179 C195 0.959 . S
H180 C195 0.959 . S
H181 C195 0.961 . S
H182 C196 0.960 . S
H183 C196 0.961 . S
H184 C196 0.959 . S
H185 C199 0.929 . S
H186 C200 0.931 . S
H187 C202 0.930 . S
C188 H176 0.930 . S
C188 C189 1.399 . S
C188 C193 1.399 . S
C189 C188 1.399 . S
C189 C190 1.376 . S
C190 H177 0.930 . S
C190 C189 1.376 . S
C190 C191 1.388 . S
C191 H178 0.930 . S
C191 C190 1.388 . S
C191 C192 1.390 . S
C192 C191 1.390 . S
C192 C193 1.394 . S
C192 C198 1.465 . S
C193 C188 1.399 . S
C193 C192 1.394 . S
C193 C194 1.516 . S
C194 C193 1.516 . S
C194 C195 1.502 . S
C194 C196 1.561 . S
C194 C197 1.526 . S
C195 H179 0.959 . S
C195 H180 0.959 . S
C195 H181 0.961 . S
C195 C194 1.502 . S
C196 H182 0.960 . S
C196 H183 0.961 . S
C196 H184 0.959 . S
C196 C194 1.561 . S
C197 C194 1.526 . S
C197 C198 1.396 . S
C197 C202 1.390 . S
C198 C192 1.465 . S
C198 C197 1.396 . S
C198 C199 1.399 . S
C199 H185 0.929 . S
C199 C198 1.399 . S
C199 C200 1.385 . S
C200 H186 0.931 . S
C200 C199 1.385 . S
C200 C201 1.389 . S
C201 C200 1.389 . S
C201 C202 1.387 . S
C202 H187 0.930 . S
C202 C197 1.390 . S
C202 C201 1.387 . S
H203 C215 0.930 . S
H204 C217 0.930 . S
H205 C218 0.930 . S
H206 C222 0.959 . S
H207 C222 0.959 . S
H208 C222 0.961 . S
H209 C223 0.960 . S
H210 C223 0.961 . S
H211 C223 0.959 . S
H212 C226 0.929 . S
H213 C227 0.931 . S
H214 C229 0.930 . S
C215 H203 0.930 . S
C215 C216 1.399 . S
C215 C220 1.399 . S
C216 C215 1.399 . S
C216 C217 1.376 . S
C217 H204 0.930 . S
C217 C216 1.376 . S
C217 C218 1.388 . S
C218 H205 0.930 . S
C218 C217 1.388 . S
C218 C219 1.390 . S
C219 C218 1.390 . S
C219 C220 1.394 . S
C219 C225 1.465 . S
C220 C215 1.399 . S
C220 C219 1.394 . S
C220 C221 1.516 . S
C221 C220 1.516 . S
C221 C222 1.502 . S
C221 C223 1.561 . S
C221 C224 1.526 . S
C222 H206 0.959 . S
C222 H207 0.959 . S
C222 H208 0.961 . S
C222 C221 1.502 . S
C223 H209 0.960 . S
C223 H210 0.961 . S
C223 H211 0.959 . S
C223 C221 1.561 . S
C224 C221 1.526 . S
C224 C225 1.396 . S
C224 C229 1.390 . S
C225 C219 1.465 . S
C225 C224 1.396 . S
C225 C226 1.399 . S
C226 H212 0.929 . S
C226 C225 1.399 . S
C226 C227 1.385 . S
C227 H213 0.931 . S
C227 C226 1.385 . S
C227 C228 1.389 . S
C228 C227 1.389 . S
C228 C229 1.387 . S
C229 H214 0.930 . S
C229 C224 1.390 . S
C229 C228 1.387 . S
H230 C242 0.930 . S
H231 C244 0.930 . S
H232 C245 0.930 . S
H233 C249 0.959 . S
H234 C249 0.959 . S
H235 C249 0.961 . S
H236 C250 0.960 . S
H237 C250 0.961 . S
H238 C250 0.959 . S
H239 C253 0.929 . S
H240 C254 0.931 . S
H241 C256 0.930 . S
C242 H230 0.930 . S
C242 C243 1.399 . S
C242 C247 1.399 . S
C243 C242 1.399 . S
C243 C244 1.376 . S
C244 H231 0.930 . S
C244 C243 1.376 . S
C244 C245 1.388 . S
C245 H232 0.930 . S
C245 C244 1.388 . S
C245 C246 1.390 . S
C246 C245 1.390 . S
C246 C247 1.394 . S
C246 C252 1.465 . S
C247 C242 1.399 . S
C247 C246 1.394 . S
C247 C248 1.516 . S
C248 C247 1.516 . S
C248 C249 1.502 . S
C248 C250 1.561 . S
C248 C251 1.526 . S
C249 H233 0.959 . S
C249 H234 0.959 . S
C249 H235 0.961 . S
C249 C248 1.502 . S
C250 H236 0.960 . S
C250 H237 0.961 . S
C250 H238 0.959 . S
C250 C248 1.561 . S
C251 C248 1.526 . S
C251 C252 1.396 . S
C251 C256 1.390 . S
C252 C246 1.465 . S
C252 C251 1.396 . S
C252 C253 1.399 . S
C253 H239 0.929 . S
C253 C252 1.399 . S
C253 C254 1.385 . S
C254 H240 0.931 . S
C254 C253 1.385 . S
C254 C255 1.389 . S
C255 C254 1.389 . S
C255 C256 1.387 . S
C256 H241 0.930 . S
C256 C251 1.390 . S
C256 C255 1.387 . S
H257 C269 0.930 . S
H258 C271 0.930 . S
H259 C272 0.930 . S
H260 C276 0.959 . S
H261 C276 0.959 . S
H262 C276 0.961 . S
H263 C277 0.960 . S
H264 C277 0.961 . S
H265 C277 0.959 . S
H266 C280 0.929 . S
H267 C281 0.931 . S
H268 C283 0.930 . S
C269 H257 0.930 . S
C269 C270 1.399 . S
C269 C274 1.399 . S
C270 C269 1.399 . S
C270 C271 1.376 . S
C271 H258 0.930 . S
C271 C270 1.376 . S
C271 C272 1.388 . S
C272 H259 0.930 . S
C272 C271 1.388 . S
C272 C273 1.390 . S
C273 C272 1.390 . S
C273 C274 1.394 . S
C273 C279 1.465 . S
C274 C269 1.399 . S
C274 C273 1.394 . S
C274 C275 1.516 . S
C275 C274 1.516 . S
C275 C276 1.502 . S
C275 C277 1.561 . S
C275 C278 1.526 . S
C276 H260 0.959 . S
C276 H261 0.959 . S
C276 H262 0.961 . S
C276 C275 1.502 . S
C277 H263 0.960 . S
C277 H264 0.961 . S
C277 H265 0.959 . S
C277 C275 1.561 . S
C278 C275 1.526 . S
C278 C279 1.396 . S
C278 C283 1.390 . S
C279 C273 1.465 . S
C279 C278 1.396 . S
C279 C280 1.399 . S
C280 H266 0.929 . S
C280 C279 1.399 . S
C280 C281 1.385 . S
C281 H267 0.931 . S
C281 C280 1.385 . S
C281 C282 1.389 . S
C282 C281 1.389 . S
C282 C283 1.387 . S
C283 H268 0.930 . S
C283 C278 1.390 . S
C283 C282 1.387 . S
H284 C296 0.930 . S
H285 C298 0.930 . S
H286 C299 0.930 . S
H287 C303 0.959 . S
H288 C303 0.959 . S
H289 C303 0.961 . S
H290 C304 0.960 . S
H291 C304 0.961 . S
H292 C304 0.959 . S
H293 C307 0.929 . S
H294 C308 0.931 . S
H295 C310 0.930 . S
C296 H284 0.930 . S
C296 C297 1.399 . S
C296 C301 1.399 . S
C297 C296 1.399 . S
C297 C298 1.376 . S
C298 H285 0.930 . S
C298 C297 1.376 . S
C298 C299 1.388 . S
C299 H286 0.930 . S
C299 C298 1.388 . S
C299 C300 1.390 . S
C300 C299 1.390 . S
C300 C301 1.394 . S
C300 C306 1.465 . S
C301 C296 1.399 . S
C301 C300 1.394 . S
C301 C302 1.516 . S
C302 C301 1.516 . S
C302 C303 1.502 . S
C302 C304 1.561 . S
C302 C305 1.526 . S
C303 H287 0.959 . S
C303 H288 0.959 . S
C303 H289 0.961 . S
C303 C302 1.502 . S
C304 H290 0.960 . S
C304 H291 0.961 . S
C304 H292 0.959 . S
C304 C302 1.561 . S
C305 C302 1.526 . S
C305 C306 1.396 . S
C305 C310 1.390 . S
C306 C300 1.465 . S
C306 C305 1.396 . S
C306 C307 1.399 . S
C307 H293 0.929 . S
C307 C306 1.399 . S
C307 C308 1.385 . S
C308 H294 0.931 . S
C308 C307 1.385 . S
C308 C309 1.389 . S
C309 C308 1.389 . S
C309 C310 1.387 . S
C310 H295 0.930 . S
C310 C305 1.390 . S
C310 C309 1.387 . S
H311 C323 0.930 . S
H312 C325 0.930 . S
H313 C326 0.930 . S
H314 C330 0.959 . S
H315 C330 0.959 . S
H316 C330 0.961 . S
H317 C331 0.960 . S
H318 C331 0.961 . S
H319 C331 0.959 . S
H320 C334 0.929 . S
H321 C335 0.931 . S
H322 C337 0.930 . S
C323 H311 0.930 . S
C323 C324 1.399 . S
C323 C328 1.399 . S
C324 C323 1.399 . S
C324 C325 1.376 . S
C325 H312 0.930 . S
C325 C324 1.376 . S
C325 C326 1.388 . S
C326 H313 0.930 . S
C326 C325 1.388 . S
C326 C327 1.390 . S
C327 C326 1.390 . S
C327 C328 1.394 . S
C327 C333 1.465 . S
C328 C323 1.399 . S
C328 C327 1.394 . S
C328 C329 1.516 . S
C329 C328 1.516 . S
C329 C330 1.502 . S
C329 C331 1.561 . S
C329 C332 1.526 . S
C330 H314 0.959 . S
C330 H315 0.959 . S
C330 H316 0.961 . S
C330 C329 1.502 . S
C331 H317 0.960 . S
C331 H318 0.961 . S
C331 H319 0.959 . S
C331 C329 1.561 . S
C332 C329 1.526 . S
C332 C333 1.396 . S
C332 C337 1.390 . S
C333 C327 1.465 . S
C333 C332 1.396 . S
C333 C334 1.399 . S
C334 H320 0.929 . S
C334 C333 1.399 . S
C334 C335 1.385 . S
C335 H321 0.931 . S
C335 C334 1.385 . S
C335 C336 1.389 . S
C336 C335 1.389 . S
C336 C337 1.387 . S
C337 H322 0.930 . S
C337 C332 1.390 . S
C337 C336 1.387 . S
H338 C350 0.930 . S
H339 C352 0.930 . S
H340 C353 0.930 . S
H341 C357 0.959 . S
H342 C357 0.959 . S
H343 C357 0.961 . S
H344 C358 0.960 . S
H345 C358 0.961 . S
H346 C358 0.959 . S
H347 C361 0.929 . S
H348 C362 0.931 . S
H349 C364 0.930 . S
C350 H338 0.930 . S
C350 C351 1.399 . S
C350 C355 1.399 . S
C351 C350 1.399 . S
C351 C352 1.376 . S
C352 H339 0.930 . S
C352 C351 1.376 . S
C352 C353 1.388 . S
C353 H340 0.930 . S
C353 C352 1.388 . S
C353 C354 1.390 . S
C354 C353 1.390 . S
C354 C355 1.394 . S
C354 C360 1.465 . S
C355 C350 1.399 . S
C355 C354 1.394 . S
C355 C356 1.516 . S
C356 C355 1.516 . S
C356 C357 1.502 . S
C356 C358 1.561 . S
C356 C359 1.526 . S
C357 H341 0.959 . S
C357 H342 0.959 . S
C357 H343 0.961 . S
C357 C356 1.502 . S
C358 H344 0.960 . S
C358 H345 0.961 . S
C358 H346 0.959 . S
C358 C356 1.561 . S
C359 C356 1.526 . S
C359 C360 1.396 . S
C359 C364 1.390 . S
C360 C354 1.465 . S
C360 C359 1.396 . S
C360 C361 1.399 . S
C361 H347 0.929 . S
C361 C360 1.399 . S
C361 C362 1.385 . S
C362 H348 0.931 . S
C362 C361 1.385 . S
C362 C363 1.389 . S
C363 C362 1.389 . S
C363 C364 1.387 . S
C364 H349 0.930 . S
C364 C359 1.390 . S
C364 C363 1.387 . S
H365 C377 0.930 . S
H366 C379 0.930 . S
H367 C380 0.930 . S
H368 C384 0.959 . S
H369 C384 0.959 . S
H370 C384 0.961 . S
H371 C385 0.960 . S
H372 C385 0.961 . S
H373 C385 0.959 . S
H374 C388 0.929 . S
H375 C389 0.931 . S
H376 C391 0.930 . S
C377 H365 0.930 . S
C377 C378 1.399 . S
C377 C382 1.399 . S
C378 C377 1.399 . S
C378 C379 1.376 . S
C379 H366 0.930 . S
C379 C378 1.376 . S
C379 C380 1.388 . S
C380 H367 0.930 . S
C380 C379 1.388 . S
C380 C381 1.390 . S
C381 C380 1.390 . S
C381 C382 1.394 . S
C381 C387 1.465 . S
C382 C377 1.399 . S
C382 C381 1.394 . S
C382 C383 1.516 . S
C383 C382 1.516 . S
C383 C384 1.502 . S
C383 C385 1.561 . S
C383 C386 1.526 . S
C384 H368 0.959 . S
C384 H369 0.959 . S
C384 H370 0.961 . S
C384 C383 1.502 . S
C385 H371 0.960 . S
C385 H372 0.961 . S
C385 H373 0.959 . S
C385 C383 1.561 . S
C386 C383 1.526 . S
C386 C387 1.396 . S
C386 C391 1.390 . S
C387 C381 1.465 . S
C387 C386 1.396 . S
C387 C388 1.399 . S
C388 H374 0.929 . S
C388 C387 1.399 . S
C388 C389 1.385 . S
C389 H375 0.931 . S
C389 C388 1.385 . S
C389 C390 1.389 . S
C390 C389 1.389 . S
C390 C391 1.387 . S
C391 H376 0.930 . S
C391 C386 1.390 . S
C391 C390 1.387 . S
H392 C404 0.930 . S
H393 C406 0.930 . S
H394 C407 0.930 . S
H395 C411 0.959 . S
H396 C411 0.959 . S
H397 C411 0.961 . S
H398 C412 0.960 . S
H399 C412 0.961 . S
H400 C412 0.959 . S
H401 C415 0.929 . S
H402 C416 0.931 . S
H403 C418 0.930 . S
C404 H392 0.930 . S
C404 C405 1.399 1_556 S
C404 C409 1.399 . S
C405 C404 1.399 1_554 S
C405 C406 1.376 . S
C406 H393 0.930 . S
C406 C405 1.376 . S
C406 C407 1.388 . S
C407 H394 0.930 . S
C407 C406 1.388 . S
C407 C408 1.390 . S
C408 C407 1.390 . S
C408 C409 1.394 1_554 S
C408 C414 1.465 . S
C409 C404 1.399 . S
C409 C408 1.394 1_556 S
C409 C410 1.516 . S
C410 C409 1.516 . S
C410 C411 1.502 . S
C410 C412 1.561 . S
C410 C413 1.526 . S
C411 H395 0.959 . S
C411 H396 0.959 . S
C411 H397 0.961 . S
C411 C410 1.502 . S
C412 H398 0.960 . S
C412 H399 0.961 . S
C412 H400 0.959 . S
C412 C410 1.561 . S
C413 C410 1.526 . S
C413 C414 1.396 1_556 S
C413 C418 1.390 . S
C414 C408 1.465 . S
C414 C413 1.396 1_554 S
C414 C415 1.399 . S
C415 H401 0.929 . S
C415 C414 1.399 . S
C415 C416 1.385 . S
C416 H402 0.931 . S
C416 C415 1.385 . S
C416 C417 1.389 1_554 S
C417 C416 1.389 1_556 S
C417 C418 1.387 . S
C418 H403 0.930 . S
C418 C413 1.390 . S
C418 C417 1.387 . S
H419 C431 0.930 . S
H420 C433 0.930 . S
H421 C434 0.930 . S
H422 C438 0.959 . S
H423 C438 0.959 . S
H424 C438 0.961 . S
H425 C439 0.960 . S
H426 C439 0.961 . S
H427 C439 0.959 . S
H428 C442 0.929 . S
H429 C443 0.931 . S
H430 C445 0.930 . S
C431 H419 0.930 . S
C431 C432 1.399 . S
C431 C436 1.399 . S
C432 C431 1.399 . S
C432 C433 1.376 . S
C433 H420 0.930 . S
C433 C432 1.376 . S
C433 C434 1.388 . S
C434 H421 0.930 . S
C434 C433 1.388 . S
C434 C435 1.390 . S
C435 C434 1.390 . S
C435 C436 1.394 . S
C435 C441 1.465 . S
C436 C431 1.399 . S
C436 C435 1.394 . S
C436 C437 1.516 . S
C437 C436 1.516 . S
C437 C438 1.502 . S
C437 C439 1.561 . S
C437 C440 1.526 . S
C438 H422 0.959 . S
C438 H423 0.959 . S
C438 H424 0.961 . S
C438 C437 1.502 . S
C439 H425 0.960 . S
C439 H426 0.961 . S
C439 H427 0.959 . S
C439 C437 1.561 . S
C440 C437 1.526 . S
C440 C441 1.396 . S
C440 C445 1.390 . S
C441 C435 1.465 . S
C441 C440 1.396 . S
C441 C442 1.399 . S
C442 H428 0.929 . S
C442 C441 1.399 . S
C442 C443 1.385 . S
C443 H429 0.931 . S
C443 C442 1.385 . S
C443 C444 1.389 . S
C444 C443 1.389 . S
C444 C445 1.387 . S
C445 H430 0.930 . S
C445 C440 1.390 . S
C445 C444 1.387 . S
H446 C458 0.930 . S
H447 C460 0.930 . S
H448 C461 0.930 . S
H449 C465 0.959 . S
H450 C465 0.959 . S
H451 C465 0.961 . S
H452 C466 0.960 . S
H453 C466 0.961 . S
H454 C466 0.959 . S
H455 C469 0.929 . S
H456 C470 0.931 . S
H457 C472 0.930 . S
C458 H446 0.930 . S
C458 C459 1.399 . S
C458 C463 1.399 . S
C459 C458 1.399 . S
C459 C460 1.376 1_556 S
C460 H447 0.930 . S
C460 C459 1.376 1_554 S
C460 C461 1.388 . S
C461 H448 0.930 . S
C461 C460 1.388 . S
C461 C462 1.390 . S
C462 C461 1.390 . S
C462 C463 1.394 1_554 S
C462 C468 1.465 . S
C463 C458 1.399 . S
C463 C462 1.394 1_556 S
C463 C464 1.516 . S
C464 C463 1.516 . S
C464 C465 1.502 . S
C464 C466 1.561 . S
C464 C467 1.526 . S
C465 H449 0.959 . S
C465 H450 0.959 . S
C465 H451 0.961 . S
C465 C464 1.502 . S
C466 H452 0.960 . S
C466 H453 0.961 . S
C466 H454 0.959 . S
C466 C464 1.561 . S
C467 C464 1.526 . S
C467 C468 1.396 1_556 S
C467 C472 1.390 . S
C468 C462 1.465 . S
C468 C467 1.396 1_554 S
C468 C469 1.399 . S
C469 H455 0.929 . S
C469 C468 1.399 . S
C469 C470 1.385 . S
C470 H456 0.931 . S
C470 C469 1.385 . S
C470 C471 1.389 . S
C471 C470 1.389 . S
C471 C472 1.387 1_554 S
C472 H457 0.930 . S
C472 C467 1.390 . S
C472 C471 1.387 1_556 S
H473 C485 0.930 . S
H474 C487 0.930 . S
H475 C488 0.930 . S
H476 C492 0.959 . S
H477 C492 0.959 . S
H478 C492 0.961 . S
H479 C493 0.960 . S
H480 C493 0.961 . S
H481 C493 0.959 . S
H482 C496 0.929 . S
H483 C497 0.931 . S
H484 C499 0.930 . S
C485 H473 0.930 . S
C485 C486 1.399 . S
C485 C490 1.399 . S
C486 C485 1.399 . S
C486 C487 1.376 . S
C487 H474 0.930 . S
C487 C486 1.376 . S
C487 C488 1.388 . S
C488 H475 0.930 . S
C488 C487 1.388 . S
C488 C489 1.390 . S
C489 C488 1.390 . S
C489 C490 1.394 . S
C489 C495 1.465 . S
C490 C485 1.399 . S
C490 C489 1.394 . S
C490 C491 1.516 . S
C491 C490 1.516 . S
C491 C492 1.502 . S
C491 C493 1.561 . S
C491 C494 1.526 . S
C492 H476 0.959 . S
C492 H477 0.959 . S
C492 H478 0.961 . S
C492 C491 1.502 . S
C493 H479 0.960 . S
C493 H480 0.961 . S
C493 H481 0.959 . S
C493 C491 1.561 . S
C494 C491 1.526 . S
C494 C495 1.396 . S
C494 C499 1.390 . S
C495 C489 1.465 . S
C495 C494 1.396 . S
C495 C496 1.399 . S
C496 H482 0.929 . S
C496 C495 1.399 . S
C496 C497 1.385 . S
C497 H483 0.931 . S
C497 C496 1.385 . S
C497 C498 1.389 . S
C498 C497 1.389 . S
C498 C499 1.387 . S
C499 H484 0.930 . S
C499 C494 1.390 . S
C499 C498 1.387 . S
H500 C512 0.930 . S
H501 C514 0.930 . S
H502 C515 0.930 . S
H503 C519 0.959 . S
H504 C519 0.959 . S
H505 C519 0.961 . S
H506 C520 0.960 . S
H507 C520 0.961 . S
H508 C520 0.959 . S
H509 C523 0.929 . S
H510 C524 0.931 . S
H511 C526 0.930 . S
C512 H500 0.930 . S
C512 C513 1.399 1_556 S
C512 C517 1.399 . S
C513 C512 1.399 1_554 S
C513 C514 1.376 . S
C514 H501 0.930 . S
C514 C513 1.376 . S
C514 C515 1.388 . S
C515 H502 0.930 . S
C515 C514 1.388 . S
C515 C516 1.390 . S
C516 C515 1.390 . S
C516 C517 1.394 1_554 S
C516 C522 1.465 . S
C517 C512 1.399 . S
C517 C516 1.394 1_556 S
C517 C518 1.516 . S
C518 C517 1.516 . S
C518 C519 1.502 . S
C518 C520 1.561 . S
C518 C521 1.526 . S
C519 H503 0.959 . S
C519 H504 0.959 . S
C519 H505 0.961 . S
C519 C518 1.502 . S
C520 H506 0.960 . S
C520 H507 0.961 . S
C520 H508 0.959 . S
C520 C518 1.561 . S
C521 C518 1.526 . S
C521 C522 1.396 1_556 S
C521 C526 1.390 . S
C522 C516 1.465 . S
C522 C521 1.396 1_554 S
C522 C523 1.399 . S
C523 H509 0.929 . S
C523 C522 1.399 . S
C523 C524 1.385 . S
C524 H510 0.931 . S
C524 C523 1.385 . S
C524 C525 1.389 1_554 S
C525 C524 1.389 1_556 S
C525 C526 1.387 . S
C526 H511 0.930 . S
C526 C521 1.390 . S
C526 C525 1.387 . S
H527 C539 0.930 . S
H528 C541 0.930 . S
H529 C542 0.930 . S
H530 C546 0.959 . S
H531 C546 0.959 . S
H532 C546 0.961 . S
H533 C547 0.960 . S
H534 C547 0.961 . S
H535 C547 0.959 . S
H536 C550 0.929 . S
H537 C551 0.931 . S
H538 C553 0.930 . S
C539 H527 0.930 . S
C539 C540 1.399 . S
C539 C544 1.399 . S
C540 C539 1.399 . S
C540 C541 1.376 . S
C541 H528 0.930 . S
C541 C540 1.376 . S
C541 C542 1.388 . S
C542 H529 0.930 . S
C542 C541 1.388 . S
C542 C543 1.390 . S
C543 C542 1.390 . S
C543 C544 1.394 . S
C543 C549 1.465 . S
C544 C539 1.399 . S
C544 C543 1.394 . S
C544 C545 1.516 . S
C545 C544 1.516 . S
C545 C546 1.502 . S
C545 C547 1.561 . S
C545 C548 1.526 . S
C546 H530 0.959 . S
C546 H531 0.959 . S
C546 H532 0.961 . S
C546 C545 1.502 . S
C547 H533 0.960 . S
C547 H534 0.961 . S
C547 H535 0.959 . S
C547 C545 1.561 . S
C548 C545 1.526 . S
C548 C549 1.396 . S
C548 C553 1.390 . S
C549 C543 1.465 . S
C549 C548 1.396 . S
C549 C550 1.399 . S
C550 H536 0.929 . S
C550 C549 1.399 . S
C550 C551 1.385 . S
C551 H537 0.931 . S
C551 C550 1.385 . S
C551 C552 1.389 . S
C552 C551 1.389 . S
C552 C553 1.387 . S
C553 H538 0.930 . S
C553 C548 1.390 . S
C553 C552 1.387 . S
H554 C566 0.930 . S
H555 C568 0.930 . S
H556 C569 0.930 . S
H557 C573 0.959 . S
H558 C573 0.959 . S
H559 C573 0.961 . S
H560 C574 0.960 . S
H561 C574 0.961 . S
H562 C574 0.959 . S
H563 C577 0.929 . S
H564 C578 0.931 . S
H565 C580 0.930 . S
C566 H554 0.930 . S
C566 C567 1.399 1_556 S
C566 C571 1.399 . S
C567 C566 1.399 1_554 S
C567 C568 1.376 . S
C568 H555 0.930 . S
C568 C567 1.376 . S
C568 C569 1.388 . S
C569 H556 0.930 . S
C569 C568 1.388 . S
C569 C570 1.390 . S
C570 C569 1.390 . S
C570 C571 1.394 1_554 S
C570 C576 1.465 . S
C571 C566 1.399 . S
C571 C570 1.394 1_556 S
C571 C572 1.516 . S
C572 C571 1.516 . S
C572 C573 1.502 . S
C572 C574 1.561 . S
C572 C575 1.526 . S
C573 H557 0.959 . S
C573 H558 0.959 . S
C573 H559 0.961 . S
C573 C572 1.502 . S
C574 H560 0.960 . S
C574 H561 0.961 . S
C574 H562 0.959 . S
C574 C572 1.561 . S
C575 C572 1.526 . S
C575 C576 1.396 1_556 S
C575 C580 1.390 . S
C576 C570 1.465 . S
C576 C575 1.396 1_554 S
C576 C577 1.399 . S
C577 H563 0.929 . S
C577 C576 1.399 . S
C577 C578 1.385 . S
C578 H564 0.931 . S
C578 C577 1.385 . S
C578 C579 1.389 1_554 S
C579 C578 1.389 1_556 S
C579 C580 1.387 . S
C580 H565 0.930 . S
C580 C575 1.390 . S
C580 C579 1.387 . S
H581 C593 0.930 . S
H582 C595 0.930 . S
H583 C596 0.930 . S
H584 C600 0.959 . S
H585 C600 0.959 . S
H586 C600 0.961 . S
H587 C601 0.960 . S
H588 C601 0.961 . S
H589 C601 0.959 . S
H590 C604 0.929 . S
H591 C605 0.931 . S
H592 C607 0.930 . S
C593 H581 0.930 . S
C593 C594 1.399 . S
C593 C598 1.399 . S
C594 C593 1.399 . S
C594 C595 1.376 . S
C595 H582 0.930 . S
C595 C594 1.376 . S
C595 C596 1.388 . S
C596 H583 0.930 . S
C596 C595 1.388 . S
C596 C597 1.390 . S
C597 C596 1.390 . S
C597 C598 1.394 . S
C597 C603 1.465 . S
C598 C593 1.399 . S
C598 C597 1.394 . S
C598 C599 1.516 . S
C599 C598 1.516 . S
C599 C600 1.502 . S
C599 C601 1.561 . S
C599 C602 1.526 . S
C600 H584 0.959 . S
C600 H585 0.959 . S
C600 H586 0.961 . S
C600 C599 1.502 . S
C601 H587 0.960 . S
C601 H588 0.961 . S
C601 H589 0.959 . S
C601 C599 1.561 . S
C602 C599 1.526 . S
C602 C603 1.396 . S
C602 C607 1.390 . S
C603 C597 1.465 . S
C603 C602 1.396 . S
C603 C604 1.399 . S
C604 H590 0.929 . S
C604 C603 1.399 . S
C604 C605 1.385 . S
C605 H591 0.931 . S
C605 C604 1.385 . S
C605 C606 1.389 . S
C606 C605 1.389 . S
C606 C607 1.387 . S
C607 H592 0.930 . S
C607 C602 1.390 . S
C607 C606 1.387 . S
H608 C620 0.930 . S
H609 C622 0.930 . S
H610 C623 0.930 1_455 S
H611 C627 0.959 . S
H612 C627 0.959 . S
H613 C627 0.961 . S
H614 C628 0.960 . S
H615 C628 0.961 . S
H616 C628 0.959 . S
H617 C631 0.929 . S
H618 C632 0.931 . S
H619 C634 0.930 . S
C620 H608 0.930 . S
C620 C621 1.399 . S
C620 C625 1.399 . S
C621 C620 1.399 . S
C621 C622 1.376 1_556 S
C622 H609 0.930 . S
C622 C621 1.376 1_554 S
C622 C623 1.388 . S
C623 H610 0.930 1_655 S
C623 C622 1.388 . S
C623 C624 1.399 . S
C624 C623 1.399 . S
C624 C625 1.414 1_554 S
C624 C630 1.442 1_655 S
C625 C620 1.399 . S
C625 C624 1.414 1_556 S
C625 C626 1.516 . S
C626 C625 1.516 . S
C626 C627 1.502 . S
C626 C628 1.561 1_655 S
C626 C629 1.526 1_655 S
C627 H611 0.959 . S
C627 H612 0.959 . S
C627 H613 0.961 . S
C627 C626 1.502 . S
C628 H614 0.960 . S
C628 H615 0.961 . S
C628 H616 0.959 . S
C628 C626 1.561 1_455 S
C629 C626 1.526 1_455 S
C629 C630 1.396 1_556 S
C629 C634 1.390 . S
C630 C624 1.442 1_455 S
C630 C629 1.396 1_554 S
C630 C631 1.399 . S
C631 H617 0.929 . S
C631 C630 1.399 . S
C631 C632 1.385 . S
C632 H618 0.931 . S
C632 C631 1.385 . S
C632 C633 1.389 . S
C633 C632 1.389 . S
C633 C634 1.387 1_554 S
C634 H619 0.930 . S
C634 C629 1.390 . S
C634 C633 1.387 1_556 S
H635 C647 0.909 1_565 S
H636 C649 0.930 . S
H637 C650 0.930 . S
H638 C654 0.959 . S
H639 C654 0.959 . S
H640 C654 0.961 . S
H641 C655 0.960 1_455 S
H642 C655 0.961 . S
H643 C655 0.973 . S
H644 C658 0.929 . S
H645 C659 0.937 . S
H646 C661 0.930 . S
C647 H635 0.909 1_545 S
C647 C648 1.399 . S
C647 C652 1.399 . S
C648 C647 1.399 . S
C648 C649 1.376 . S
C649 H636 0.930 . S
C649 C648 1.376 . S
C649 C650 1.388 . S
C650 H637 0.930 . S
C650 C649 1.388 . S
C650 C651 1.390 . S
C651 C650 1.390 . S
C651 C652 1.394 . S
C651 C657 1.465 1_455 S
C652 C647 1.399 . S
C652 C651 1.394 . S
C652 C653 1.516 1_545 S
C653 C652 1.516 1_565 S
C653 C654 1.502 . S
C653 C655 1.561 1_455 S
C653 C656 1.526 1_455 S
C654 H638 0.959 . S
C654 H639 0.959 . S
C654 H640 0.961 . S
C654 C653 1.502 . S
C655 H641 0.960 1_655 S
C655 H642 0.961 . S
C655 H643 0.973 . S
C655 C653 1.561 1_655 S
C656 C653 1.526 1_655 S
C656 C657 1.396 1_565 S
C656 C661 1.390 . S
C657 C651 1.465 1_655 S
C657 C656 1.396 1_545 S
C657 C658 1.399 . S
C658 H644 0.929 . S
C658 C657 1.399 . S
C658 C659 1.385 1_545 S
C659 H645 0.937 . S
C659 C658 1.385 1_565 S
C659 C660 1.389 . S
C660 C659 1.389 . S
C660 C661 1.387 . S
C661 H646 0.930 . S
C661 C656 1.390 . S
C661 C660 1.387 . S
H662 C674 0.930 . S
H663 C676 0.930 . S
H664 C677 0.930 1_556 S
H665 C681 0.959 . S
H666 C681 0.959 . S
H667 C681 0.961 . S
H668 C682 0.960 . S
H669 C682 0.961 . S
H670 C682 0.959 . S
H671 C685 0.929 1_545 S
H672 C686 0.931 . S
H673 C688 0.930 . S
C674 H662 0.930 . S
C674 C675 1.399 . S
C674 C679 1.399 . S
C675 C674 1.399 . S
C675 C676 1.376 . S
C676 H663 0.930 . S
C676 C675 1.376 . S
C676 C677 1.388 . S
C677 H664 0.930 1_554 S
C677 C676 1.388 . S
C677 C678 1.390 1_554 S
C678 C677 1.390 1_556 S
C678 C679 1.394 1_556 S
C678 C684 1.465 1_545 S
C679 C674 1.399 . S
C679 C678 1.394 1_554 S
C679 C680 1.519 1_545 S
C680 C679 1.519 1_565 S
C680 C681 1.515 . S
C680 C682 1.548 1_554 S
C680 C683 1.522 1_554 S
C681 H665 0.959 . S
C681 H666 0.959 . S
C681 H667 0.961 . S
C681 C680 1.515 . S
C682 H668 0.960 . S
C682 H669 0.961 . S
C682 H670 0.959 . S
C682 C680 1.548 1_556 S
C683 C680 1.522 1_556 S
C683 C684 1.396 . S
C683 C688 1.390 . S
C684 C678 1.465 1_565 S
C684 C683 1.396 . S
C684 C685 1.399 . S
C685 H671 0.929 1_565 S
C685 C684 1.399 . S
C685 C686 1.385 . S
C686 H672 0.931 . S
C686 C685 1.385 . S
C686 C687 1.389 . S
C687 C686 1.389 . S
C687 C688 1.387 . S
C688 H673 0.930 . S
C688 C683 1.390 . S
C688 C687 1.387 . S
H689 C701 0.930 . S
H690 C703 0.930 . S
H691 C704 0.930 . S
H692 C708 0.959 . S
H693 C708 0.959 . S
H694 C708 0.961 . S
H695 C709 0.960 . S
H696 C709 0.961 . S
H697 C709 0.959 . S
H698 C712 0.929 . S
H699 C713 0.931 . S
H700 C715 0.930 . S
C701 H689 0.930 . S
C701 C702 1.399 . S
C701 C706 1.399 . S
C702 C701 1.399 . S
C702 C703 1.376 . S
C703 H690 0.930 . S
C703 C702 1.376 . S
C703 C704 1.388 . S
C704 H691 0.930 . S
C704 C703 1.388 . S
C704 C705 1.390 . S
C705 C704 1.390 . S
C705 C706 1.394 . S
C705 C711 1.465 . S
C706 C701 1.399 . S
C706 C705 1.394 . S
C706 C707 1.516 . S
C707 C706 1.516 . S
C707 C708 1.502 . S
C707 C709 1.561 . S
C707 C710 1.526 . S
C708 H692 0.959 . S
C708 H693 0.959 . S
C708 H694 0.961 . S
C708 C707 1.502 . S
C709 H695 0.960 . S
C709 H696 0.961 . S
C709 H697 0.959 . S
C709 C707 1.561 . S
C710 C707 1.526 . S
C710 C711 1.396 . S
C710 C715 1.390 . S
C711 C705 1.465 . S
C711 C710 1.396 . S
C711 C712 1.399 . S
C712 H698 0.929 . S
C712 C711 1.399 . S
C712 C713 1.385 . S
C713 H699 0.931 . S
C713 C712 1.385 . S
C713 C714 1.389 . S
C714 C713 1.389 . S
C714 C715 1.387 . S
C715 H700 0.930 . S
C715 C710 1.390 . S
C715 C714 1.387 . S
H716 C728 0.930 . S
H717 C730 0.930 . S
H718 C731 0.930 . S
H719 C735 0.959 . S
H720 C735 0.959 1_565 S
H721 C735 0.961 . S
H722 C736 0.960 . S
H723 C736 0.961 . S
H724 C736 0.959 . S
H725 C739 0.929 1_455 S
H726 C740 0.931 . S
H727 C742 0.930 . S
C728 H716 0.930 . S
C728 C729 1.399 . S
C728 C733 1.399 . S
C729 C728 1.399 . S
C729 C730 1.376 1_556 S
C730 H717 0.930 . S
C730 C729 1.376 1_554 S
C730 C731 1.388 . S
C731 H718 0.930 . S
C731 C730 1.388 . S
C731 C732 1.390 . S
C732 C731 1.390 . S
C732 C733 1.394 1_554 S
C732 C738 1.463 1_445 S
C733 C728 1.399 . S
C733 C732 1.394 1_556 S
C733 C734 1.516 1_445 S
C734 C733 1.516 1_665 S
C734 C735 1.502 1_565 S
C734 C736 1.561 1_655 S
C734 C737 1.526 . S
C735 H719 0.959 . S
C735 H720 0.959 1_545 S
C735 H721 0.961 . S
C735 C734 1.502 1_545 S
C736 H722 0.960 . S
C736 H723 0.961 . S
C736 H724 0.959 . S
C736 C734 1.561 1_455 S
C737 C734 1.526 . S
C737 C738 1.398 1_556 S
C737 C742 1.390 . S
C738 C732 1.463 1_665 S
C738 C737 1.398 1_554 S
C738 C739 1.399 . S
C739 H725 0.929 1_655 S
C739 C738 1.399 . S
C739 C740 1.385 . S
C740 H726 0.931 . S
C740 C739 1.385 . S
C740 C741 1.389 . S
C741 C740 1.389 . S
C741 C742 1.387 1_554 S
C742 H727 0.930 . S
C742 C737 1.390 . S
C742 C741 1.387 1_556 S
H743 C755 0.930 1_565 S
H744 C757 0.930 . S
H745 C758 0.930 . S
H746 C762 0.959 . S
H747 C762 0.959 . S
H748 C762 0.961 . S
H749 C763 0.960 . S
H750 C763 0.961 . S
H751 C763 0.959 . S
H752 C766 0.929 . S
H753 C767 0.931 1_545 S
H754 C769 0.930 . S
C755 H743 0.930 1_545 S
C755 C756 1.399 . S
C755 C760 1.399 . S
C756 C755 1.399 . S
C756 C757 1.376 . S
C757 H744 0.930 . S
C757 C756 1.376 . S
C757 C758 1.388 . S
C758 H745 0.930 . S
C758 C757 1.388 . S
C758 C759 1.390 . S
C759 C758 1.390 . S
C759 C760 1.394 . S
C759 C765 1.465 . S
C760 C755 1.399 . S
C760 C759 1.394 . S
C760 C761 1.516 1_545 S
C761 C760 1.516 1_565 S
C761 C762 1.502 . S
C761 C763 1.561 . S
C761 C764 1.526 . S
C762 H746 0.959 . S
C762 H747 0.959 . S
C762 H748 0.961 . S
C762 C761 1.502 . S
C763 H749 0.960 . S
C763 H750 0.961 . S
C763 H751 0.959 . S
C763 C761 1.561 . S
C764 C761 1.526 . S
C764 C765 1.396 1_565 S
C764 C769 1.390 . S
C765 C759 1.465 . S
C765 C764 1.396 1_545 S
C765 C766 1.399 . S
C766 H752 0.929 . S
C766 C765 1.399 . S
C766 C767 1.385 1_545 S
C767 H753 0.931 1_565 S
C767 C766 1.385 1_565 S
C767 C768 1.389 . S
C768 C767 1.389 . S
C768 C769 1.387 . S
C769 H754 0.930 . S
C769 C764 1.390 . S
C769 C768 1.387 . S
H770 C782 0.930 . S
H771 C784 0.930 . S
H772 C785 0.930 . S
H773 C789 0.959 . S
H774 C789 0.959 . S
H775 C789 0.961 . S
H776 C790 0.960 . S
H777 C790 0.961 . S
H778 C790 0.959 . S
H779 C793 0.929 . S
H780 C794 0.931 . S
H781 C796 0.930 . S
C782 H770 0.930 . S
C782 C783 1.399 1_556 S
C782 C787 1.399 . S
C783 C782 1.399 1_554 S
C783 C784 1.376 . S
C784 H771 0.930 . S
C784 C783 1.376 . S
C784 C785 1.388 . S
C785 H772 0.930 . S
C785 C784 1.388 . S
C785 C786 1.390 . S
C786 C785 1.390 . S
C786 C787 1.394 1_554 S
C786 C792 1.465 . S
C787 C782 1.399 . S
C787 C786 1.394 1_556 S
C787 C788 1.516 . S
C788 C787 1.516 . S
C788 C789 1.502 . S
C788 C790 1.561 . S
C788 C791 1.526 . S
C789 H773 0.959 . S
C789 H774 0.959 . S
C789 H775 0.961 . S
C789 C788 1.502 . S
C790 H776 0.960 . S
C790 H777 0.961 . S
C790 H778 0.959 . S
C790 C788 1.561 . S
C791 C788 1.526 . S
C791 C792 1.396 1_556 S
C791 C796 1.390 . S
C792 C786 1.465 . S
C792 C791 1.396 1_554 S
C792 C793 1.399 . S
C793 H779 0.929 . S
C793 C792 1.399 . S
C793 C794 1.385 . S
C794 H780 0.931 . S
C794 C793 1.385 . S
C794 C795 1.389 1_554 S
C795 C794 1.389 1_556 S
C795 C796 1.387 . S
C796 H781 0.930 . S
C796 C791 1.390 . S
C796 C795 1.387 . S
H797 C809 0.930 . S
H798 C811 0.930 . S
H799 C812 0.930 . S
H800 C816 0.961 1_455 S
H801 C816 0.959 . S
H802 C816 0.961 . S
H803 C817 0.960 . S
H804 C817 0.961 . S
H805 C817 0.959 . S
H806 C820 0.929 . S
H807 C821 0.931 . S
H808 C823 0.930 . S
C809 H797 0.930 . S
C809 C810 1.399 . S
C809 C814 1.399 . S
C810 C809 1.399 . S
C810 C811 1.376 . S
C811 H798 0.930 . S
C811 C810 1.376 . S
C811 C812 1.388 . S
C812 H799 0.930 . S
C812 C811 1.388 . S
C812 C813 1.390 . S
C813 C812 1.390 . S
C813 C814 1.394 . S
C813 C819 1.465 1_655 S
C814 C809 1.399 . S
C814 C813 1.394 . S
C814 C815 1.516 . S
C815 C814 1.516 . S
C815 C816 1.502 . S
C815 C817 1.561 . S
C815 C818 1.526 1_655 S
C816 H800 0.961 1_655 S
C816 H801 0.959 . S
C816 H802 0.961 . S
C816 C815 1.502 . S
C817 H803 0.960 . S
C817 H804 0.961 . S
C817 H805 0.959 . S
C817 C815 1.561 . S
C818 C815 1.526 1_455 S
C818 C819 1.396 . S
C818 C823 1.390 . S
C819 C813 1.465 1_455 S
C819 C818 1.396 . S
C819 C820 1.399 . S
C820 H806 0.929 . S
C820 C819 1.399 . S
C820 C821 1.385 . S
C821 H807 0.931 . S
C821 C820 1.385 . S
C821 C822 1.389 . S
C822 C821 1.389 . S
C822 C823 1.387 . S
C823 H808 0.930 . S
C823 C818 1.390 . S
C823 C822 1.387 . S
C189 C7 1.411 . S
C201 C84 1.489 . S
C216 C18 1.465 . S
C228 C51 1.464 . S
C243 C62 1.448 . S
C255 C29 1.436 . S
C270 C73 1.413 . S
C282 C40 1.491 . S
C297 C95 1.453 . S
C309 C172 1.455 . S
C324 C139 1.454 . S
C336 C106 1.457 . S
C351 C150 1.479 . S
C363 C117 1.486 . S
C378 C128 1.484 . S
C390 C161 1.490 . S
C405 C8 1.499 . S
C417 C52 1.520 . S
C432 C63 1.521 . S
C444 C19 1.502 . S
C459 C74 1.497 . S
C471 C30 1.477 . S
C486 C41 1.521 . S
C498 C85 1.507 . S
C513 C140 1.517 . S
C525 C96 1.519 . S
C540 C151 1.521 . S
C552 C107 1.521 . S
C567 C162 1.519 . S
C579 C118 1.520 . S
C594 C129 1.522 . S
C606 C173 1.521 . S
C621 C93 1.404 . S
C633 C5 1.242 . S
C648 C16 1.338 . S
C660 C104 1.417 . S
C675 C27 1.255 . S
C687 C115 1.303 . S
C702 C126 1.350 . S
C714 C38 1.326 . S
C729 C49 1.347 . S
C741 C137 1.390 . S
C756 C60 1.334 . S
C768 C148 1.420 . S
C783 C159 1.328 . S
C795 C71 1.305 . S
C810 C170 1.314 . S
C822 C82 1.193 . S
