# Generated by pormake.
# Topology ukj, (4)-cn, num edge types: 1
# Building blocks:
#     Node 0, Type 0, BuildingBlock: NAWXER_clean_sbu_0, # of connection points: 4
#     Node 1, Type 0, BuildingBlock: NAWXER_clean_sbu_0, # of connection points: 4
#     Node 2, Type 0, BuildingBlock: NAWXER_clean_sbu_0, # of connection points: 4
#     Node 3, Type 0, BuildingBlock: NAWXER_clean_sbu_0, # of connection points: 4
#     Node 4, Type 0, BuildingBlock: NAWXER_clean_sbu_0, # of connection points: 4
#     Node 5, Type 0, BuildingBlock: NAWXER_clean_sbu_0, # of connection points: 4
#     Node 6, Type 0, BuildingBlock: NAWXER_clean_sbu_0, # of connection points: 4
#     Node 7, Type 0, BuildingBlock: NAWXER_clean_sbu_0, # of connection points: 4
#     Node 8, Type 0, BuildingBlock: NAWXER_clean_sbu_0, # of connection points: 4
#     Node 9, Type 0, BuildingBlock: NAWXER_clean_sbu_0, # of connection points: 4
#     Node 10, Type 0, BuildingBlock: NAWXER_clean_sbu_0, # of connection points: 4
#     Node 11, Type 0, BuildingBlock: NAWXER_clean_sbu_0, # of connection points: 4
#     Node 12, Type 0, BuildingBlock: NAWXER_clean_sbu_0, # of connection points: 4
#     Node 13, Type 0, BuildingBlock: NAWXER_clean_sbu_0, # of connection points: 4
#     Node 14, Type 0, BuildingBlock: NAWXER_clean_sbu_0, # of connection points: 4
#     Node 15, Type 0, BuildingBlock: NAWXER_clean_sbu_0, # of connection points: 4
#     Node 16, Type 0, BuildingBlock: NAWXER_clean_sbu_0, # of connection points: 4
#     Node 17, Type 0, BuildingBlock: NAWXER_clean_sbu_0, # of connection points: 4
#     Node 18, Type 0, BuildingBlock: NAWXER_clean_sbu_0, # of connection points: 4
#     Node 19, Type 0, BuildingBlock: NAWXER_clean_sbu_0, # of connection points: 4
#     Node 20, Type 0, BuildingBlock: NAWXER_clean_sbu_0, # of connection points: 4
#     Node 21, Type 0, BuildingBlock: NAWXER_clean_sbu_0, # of connection points: 4
#     Node 22, Type 0, BuildingBlock: NAWXER_clean_sbu_0, # of connection points: 4
#     Node 23, Type 0, BuildingBlock: NAWXER_clean_sbu_0, # of connection points: 4
#     Node 24, Type 0, BuildingBlock: NAWXER_clean_sbu_0, # of connection points: 4
#     Node 25, Type 0, BuildingBlock: NAWXER_clean_sbu_0, # of connection points: 4
#     Node 26, Type 0, BuildingBlock: NAWXER_clean_sbu_0, # of connection points: 4
#     Node 27, Type 0, BuildingBlock: NAWXER_clean_sbu_0, # of connection points: 4
#     Node 28, Type 0, BuildingBlock: NAWXER_clean_sbu_0, # of connection points: 4
#     Node 29, Type 0, BuildingBlock: NAWXER_clean_sbu_0, # of connection points: 4
#     Node 30, Type 0, BuildingBlock: NAWXER_clean_sbu_0, # of connection points: 4
#     Node 31, Type 0, BuildingBlock: NAWXER_clean_sbu_0, # of connection points: 4
#     Edge 32, Type (0, 0), BuildingBlock: AJUNOK_clean_linker_0, # of connection points: 2
#     Edge 33, Type (0, 0), BuildingBlock: AJUNOK_clean_linker_0, # of connection points: 2
#     Edge 34, Type (0, 0), BuildingBlock: AJUNOK_clean_linker_0, # of connection points: 2
#     Edge 35, Type (0, 0), BuildingBlock: AJUNOK_clean_linker_0, # of connection points: 2
#     Edge 36, Type (0, 0), BuildingBlock: AJUNOK_clean_linker_0, # of connection points: 2
#     Edge 37, Type (0, 0), BuildingBlock: AJUNOK_clean_linker_0, # of connection points: 2
#     Edge 38, Type (0, 0), BuildingBlock: AJUNOK_clean_linker_0, # of connection points: 2
#     Edge 39, Type (0, 0), BuildingBlock: AJUNOK_clean_linker_0, # of connection points: 2
#     Edge 40, Type (0, 0), BuildingBlock: AJUNOK_clean_linker_0, # of connection points: 2
#     Edge 41, Type (0, 0), BuildingBlock: AJUNOK_clean_linker_0, # of connection points: 2
#     Edge 42, Type (0, 0), BuildingBlock: AJUNOK_clean_linker_0, # of connection points: 2
#     Edge 43, Type (0, 0), BuildingBlock: AJUNOK_clean_linker_0, # of connection points: 2
#     Edge 44, Type (0, 0), BuildingBlock: AJUNOK_clean_linker_0, # of connection points: 2
#     Edge 45, Type (0, 0), BuildingBlock: AJUNOK_clean_linker_0, # of connection points: 2
#     Edge 46, Type (0, 0), BuildingBlock: AJUNOK_clean_linker_0, # of connection points: 2
#     Edge 47, Type (0, 0), BuildingBlock: AJUNOK_clean_linker_0, # of connection points: 2
#     Edge 48, Type (0, 0), BuildingBlock: AJUNOK_clean_linker_0, # of connection points: 2
#     Edge 49, Type (0, 0), BuildingBlock: AJUNOK_clean_linker_0, # of connection points: 2
#     Edge 50, Type (0, 0), BuildingBlock: AJUNOK_clean_linker_0, # of connection points: 2
#     Edge 51, Type (0, 0), BuildingBlock: AJUNOK_clean_linker_0, # of connection points: 2
#     Edge 52, Type (0, 0), BuildingBlock: AJUNOK_clean_linker_0, # of connection points: 2
#     Edge 53, Type (0, 0), BuildingBlock: AJUNOK_clean_linker_0, # of connection points: 2
#     Edge 54, Type (0, 0), BuildingBlock: AJUNOK_clean_linker_0, # of connection points: 2
#     Edge 55, Type (0, 0), BuildingBlock: AJUNOK_clean_linker_0, # of connection points: 2
#     Edge 56, Type (0, 0), BuildingBlock: AJUNOK_clean_linker_0, # of connection points: 2
#     Edge 57, Type (0, 0), BuildingBlock: AJUNOK_clean_linker_0, # of connection points: 2
#     Edge 58, Type (0, 0), BuildingBlock: AJUNOK_clean_linker_0, # of connection points: 2
#     Edge 59, Type (0, 0), BuildingBlock: AJUNOK_clean_linker_0, # of connection points: 2
#     Edge 60, Type (0, 0), BuildingBlock: AJUNOK_clean_linker_0, # of connection points: 2
#     Edge 61, Type (0, 0), BuildingBlock: AJUNOK_clean_linker_0, # of connection points: 2
#     Edge 62, Type (0, 0), BuildingBlock: AJUNOK_clean_linker_0, # of connection points: 2
#     Edge 63, Type (0, 0), BuildingBlock: AJUNOK_clean_linker_0, # of connection points: 2
#     Edge 64, Type (0, 0), BuildingBlock: AJUNOK_clean_linker_0, # of connection points: 2
#     Edge 65, Type (0, 0), BuildingBlock: AJUNOK_clean_linker_0, # of connection points: 2
#     Edge 66, Type (0, 0), BuildingBlock: AJUNOK_clean_linker_0, # of connection points: 2
#     Edge 67, Type (0, 0), BuildingBlock: AJUNOK_clean_linker_0, # of connection points: 2
#     Edge 68, Type (0, 0), BuildingBlock: AJUNOK_clean_linker_0, # of connection points: 2
#     Edge 69, Type (0, 0), BuildingBlock: AJUNOK_clean_linker_0, # of connection points: 2
#     Edge 70, Type (0, 0), BuildingBlock: AJUNOK_clean_linker_0, # of connection points: 2
#     Edge 71, Type (0, 0), BuildingBlock: AJUNOK_clean_linker_0, # of connection points: 2
#     Edge 72, Type (0, 0), BuildingBlock: AJUNOK_clean_linker_0, # of connection points: 2
#     Edge 73, Type (0, 0), BuildingBlock: AJUNOK_clean_linker_0, # of connection points: 2
#     Edge 74, Type (0, 0), BuildingBlock: AJUNOK_clean_linker_0, # of connection points: 2
#     Edge 75, Type (0, 0), BuildingBlock: AJUNOK_clean_linker_0, # of connection points: 2
#     Edge 76, Type (0, 0), BuildingBlock: AJUNOK_clean_linker_0, # of connection points: 2
#     Edge 77, Type (0, 0), BuildingBlock: AJUNOK_clean_linker_0, # of connection points: 2
#     Edge 78, Type (0, 0), BuildingBlock: AJUNOK_clean_linker_0, # of connection points: 2
#     Edge 79, Type (0, 0), BuildingBlock: AJUNOK_clean_linker_0, # of connection points: 2
#     Edge 80, Type (0, 0), BuildingBlock: AJUNOK_clean_linker_0, # of connection points: 2
#     Edge 81, Type (0, 0), BuildingBlock: AJUNOK_clean_linker_0, # of connection points: 2
#     Edge 82, Type (0, 0), BuildingBlock: AJUNOK_clean_linker_0, # of connection points: 2
#     Edge 83, Type (0, 0), BuildingBlock: AJUNOK_clean_linker_0, # of connection points: 2
#     Edge 84, Type (0, 0), BuildingBlock: AJUNOK_clean_linker_0, # of connection points: 2
#     Edge 85, Type (0, 0), BuildingBlock: AJUNOK_clean_linker_0, # of connection points: 2
#     Edge 86, Type (0, 0), BuildingBlock: AJUNOK_clean_linker_0, # of connection points: 2
#     Edge 87, Type (0, 0), BuildingBlock: AJUNOK_clean_linker_0, # of connection points: 2
#     Edge 88, Type (0, 0), BuildingBlock: AJUNOK_clean_linker_0, # of connection points: 2
#     Edge 89, Type (0, 0), BuildingBlock: AJUNOK_clean_linker_0, # of connection points: 2
#     Edge 90, Type (0, 0), BuildingBlock: AJUNOK_clean_linker_0, # of connection points: 2
#     Edge 91, Type (0, 0), BuildingBlock: AJUNOK_clean_linker_0, # of connection points: 2
#     Edge 92, Type (0, 0), BuildingBlock: AJUNOK_clean_linker_0, # of connection points: 2
#     Edge 93, Type (0, 0), BuildingBlock: AJUNOK_clean_linker_0, # of connection points: 2
#     Edge 94, Type (0, 0), BuildingBlock: AJUNOK_clean_linker_0, # of connection points: 2
#     Edge 95, Type (0, 0), BuildingBlock: AJUNOK_clean_linker_0, # of connection points: 2
# Relax obj value: 0.006
# Max RMSD: 0.183
# Mean RMSD: 0.183
data_MOF--net-ukj--node1-NAWXER_clean_sbu_0--edge1-AJUNOK_clean_linker_0
_symmetry_space_group_name_H-M    P1
_symmetry_Int_Tables_number       1
_symmetry_cell_setting            triclinic
loop_
_symmetry_equiv_pos_as_xyz
'x, y, z'
_cell_length_a     25.189728
_cell_length_b     39.995864
_cell_length_c     42.587914
_cell_angle_alpha  90.002167
_cell_angle_beta   90.000228
_cell_angle_gamma 89.999489
loop_
_atom_site_label
_atom_site_type_symbol
_atom_site_fract_x
_atom_site_fract_y
_atom_site_fract_z
_atom_type_partial_charge
C0 C 0.15351 0.36542 0.31684 0.0
C1 C 0.15335 0.36467 0.20227 0.0
O2 O 0.17648 0.33965 0.30526 0.0
Zn3 Zn 0.19616 0.32034 0.25997 0.0
O4 O 0.13612 0.38809 0.29861 0.0
Zn5 Zn 0.1553 0.36677 0.25943 0.0
O6 O 0.1056 0.32252 0.25935 0.0
O7 O 0.15842 0.27854 0.25999 0.0
O8 O 0.13598 0.38785 0.21993 0.0
O9 O 0.17632 0.33922 0.2145 0.0
O10 O 0.27283 0.3198 0.25982 0.0
O11 O 0.24027 0.37082 0.25921 0.0
C12 C 0.11174 0.29063 0.25952 0.0
C13 C 0.28049 0.35119 0.25935 0.0
C14 C 0.12064 0.88545 0.31631 0.0
C15 C 0.12256 0.88419 0.20178 0.0
O16 O 0.1006 0.91192 0.30421 0.0
Zn17 Zn 0.08412 0.93136 0.25849 0.0
O18 O 0.13633 0.86193 0.2985 0.0
Zn19 Zn 0.12001 0.88343 0.25899 0.0
O20 O 0.17424 0.92558 0.25873 0.0
O21 O 0.12592 0.97155 0.25833 0.0
O22 O 0.13751 0.86085 0.22 0.0
O23 O 0.10253 0.91094 0.21338 0.0
O24 O 1.00785 0.9351 0.25788 0.0
O25 O 0.03468 0.88277 0.25855 0.0
C26 C 0.17133 0.95765 0.25844 0.0
C27 C 0.99672 0.90413 0.25811 0.0
C28 C 0.15228 0.88097 0.95193 0.0
C29 C 0.151 0.88288 0.06635 0.0
O30 O 0.1731 0.90766 0.96316 0.0
Zn31 Zn 0.19044 0.92832 0.00844 0.0
O32 O 0.13515 0.85853 0.97047 0.0
Zn33 Zn 0.15234 0.88086 0.00923 0.0
O34 O 0.1001 0.92357 0.00871 0.0
O35 O 0.1493 0.96913 0.00784 0.0
O36 O 0.13464 0.85947 0.04865 0.0
O37 O 0.17191 0.90908 0.05414 0.0
O38 O 0.26746 0.93047 0.0087 0.0
O39 O 0.2371 0.87891 0.00937 0.0
C40 C 0.10361 0.95557 0.00826 0.0
C41 C 0.27644 0.89919 0.00914 0.0
C42 C 0.17062 0.29789 1.00677 0.0
C43 C 0.99873 0.35531 0.0082 0.0
O44 O 0.17472 0.32983 0.00823 0.0
Zn45 Zn 0.12314 0.37294 0.0097 0.0
O46 O 0.1247 0.2847 1.00542 0.0
Zn47 Zn 0.08428 0.32569 1.00698 0.0
O48 O 0.1031 0.34776 0.96271 0.0
O49 O 0.14154 0.39645 0.9715 0.0
O50 O 1.0074 0.32404 1.00671 0.0
O51 O 0.03828 0.37541 0.00942 0.0
O52 O 0.14072 0.39232 0.05026 0.0
O53 O 0.10248 0.34279 0.05325 0.0
C54 C 0.12459 0.37459 0.95228 0.0
C55 C 0.12409 0.36797 0.06676 0.0
C56 C 0.87393 0.63659 0.81536 0.0
C57 C 0.87353 0.63592 0.70072 0.0
O58 O 0.89149 0.61369 0.79746 0.0
Zn59 Zn 0.87234 0.63494 0.75811 0.0
O60 O 0.85141 0.66235 0.80337 0.0
Zn61 Zn 0.83144 0.6812 0.75775 0.0
O62 O 0.75478 0.68177 0.75799 0.0
O63 O 0.78739 0.63077 0.75826 0.0
O64 O 0.85065 0.66176 0.71226 0.0
O65 O 0.89127 0.61343 0.71902 0.0
O66 O 0.92199 0.67925 0.7579 0.0
O67 O 0.86882 0.72305 0.75749 0.0
C68 C 0.74715 0.65038 0.75822 0.0
C69 C 0.9156 0.71112 0.75769 0.0
C70 C 0.85727 0.04369 0.75781 0.0
C71 C 0.02803 0.10132 0.75918 0.0
O72 O 0.90378 0.03145 0.75717 0.0
Zn73 Zn 0.94205 0.07266 0.75833 0.0
O74 O 0.85154 0.07563 0.7587 0.0
Zn75 Zn 0.90348 0.11925 0.7597 0.0
O76 O 0.88514 0.14214 0.72135 0.0
O77 O 0.92409 0.09356 0.71315 0.0
O78 O 0.98916 0.12207 0.75968 0.0
O79 O 0.01813 0.07023 0.75852 0.0
O80 O 0.9229 0.09067 0.80446 0.0
O81 O 0.88511 0.14011 0.79928 0.0
C82 C 0.90249 0.12021 0.70237 0.0
C83 C 0.90143 0.11658 0.81684 0.0
C84 C 0.86886 0.1137 0.06663 0.0
C85 C 0.86994 0.11429 0.95211 0.0
O86 O 0.88551 0.13657 0.04842 0.0
Zn87 Zn 0.86729 0.11509 0.0093 0.0
O88 O 0.84697 0.08757 0.05496 0.0
Zn89 Zn 0.82869 0.0684 0.00915 0.0
O90 O 0.86712 0.02715 0.00915 0.0
O91 O 0.91913 0.07148 0.00919 0.0
O92 O 0.84835 0.08798 0.96365 0.0
O93 O 0.88609 0.13723 0.97041 0.0
O94 O 0.78173 0.11789 0.00903 0.0
O95 O 0.7524 0.06613 0.00871 0.0
C96 C 0.91357 0.03952 0.00915 0.0
C97 C 0.74272 0.09726 0.00877 0.0
C98 C 0.90137 0.63722 0.95091 0.0
C99 C 0.9009 0.63686 0.06547 0.0
O100 O 0.88357 0.61446 0.96887 0.0
Zn101 Zn 0.90236 0.6359 0.00813 0.0
O102 O 0.92378 0.66307 0.96283 0.0
Zn103 Zn 0.94338 0.68214 0.0085 0.0
O104 O 0.02021 0.68267 0.00848 0.0
O105 O 0.98724 0.63176 0.0082 0.0
O106 O 0.92389 0.66271 0.05399 0.0
O107 O 0.88321 0.61441 0.04714 0.0
O108 O 0.85276 0.68018 0.00814 0.0
O109 O 0.90588 0.724 0.00864 0.0
C110 C 0.02762 0.65125 0.0083 0.0
C111 C 0.85912 0.71206 0.00836 0.0
C112 C 0.10506 0.79545 0.75836 0.0
C113 C 0.27899 0.84992 0.75726 0.0
O114 O 0.10191 0.82749 0.75872 0.0
Zn115 Zn 0.15548 0.8699 0.75876 0.0
O116 O 0.15057 0.78166 0.75794 0.0
Zn117 Zn 0.19193 0.82212 0.75793 0.0
O118 O 0.17562 0.84127 0.80379 0.0
O119 O 0.13906 0.89103 0.79842 0.0
O120 O 0.26828 0.8189 0.7569 0.0
O121 O 0.24075 0.87107 0.75797 0.0
O122 O 0.13681 0.89238 0.71991 0.0
O123 O 0.17212 0.84242 0.71298 0.0
C124 C 0.15519 0.8675 0.81609 0.0
C125 C 0.15141 0.86905 0.70156 0.0
C126 C 0.1224 0.38698 0.70225 0.0
C127 C 0.12233 0.38961 0.81668 0.0
O128 O 0.09997 0.41313 0.71356 0.0
Zn129 Zn 0.08008 0.43339 0.75872 0.0
O130 O 0.1398 0.36456 0.72072 0.0
Zn131 Zn 0.12065 0.38702 0.75937 0.0
O132 O 0.03573 0.38315 0.75913 0.0
O133 O 1.00333 0.43421 0.75844 0.0
O134 O 0.13967 0.36661 0.79883 0.0
O135 O 0.09944 0.4152 0.80466 0.0
O136 O 0.11785 0.47509 0.75786 0.0
O137 O 0.17058 0.43108 0.75833 0.0
C138 C 0.99558 0.40282 0.7587 0.0
C139 C 0.1645 0.46296 0.75779 0.0
C140 C 0.15185 0.38399 0.56692 0.0
C141 C 0.15153 0.38064 0.45247 0.0
O142 O 0.17167 0.41032 0.55437 0.0
Zn143 Zn 0.18909 0.42897 0.50831 0.0
O144 O 0.13655 0.36003 0.54952 0.0
Zn145 Zn 0.15317 0.38124 0.50982 0.0
O146 O 0.23859 0.38045 0.50956 0.0
O147 O 0.26536 0.43277 0.50823 0.0
O148 O 0.13573 0.3582 0.4714 0.0
O149 O 0.17173 0.4077 0.46329 0.0
O150 O 0.14753 0.46922 0.50751 0.0
O151 O 0.09897 0.4234 0.50927 0.0
C152 C 0.27653 0.40183 0.50895 0.0
C153 C 0.10206 0.45545 0.50846 0.0
C154 C 0.11804 0.87135 0.45211 0.0
C155 C 0.11796 0.86956 0.56649 0.0
O156 O 0.09816 0.84429 0.46316 0.0
Zn157 Zn 0.08111 0.82341 0.50849 0.0
O158 O 0.13345 0.89407 0.47086 0.0
Zn159 Zn 0.11631 0.8714 0.5094 0.0
O160 O 0.17103 0.82964 0.50916 0.0
O161 O 0.12354 0.78337 0.50805 0.0
O162 O 0.13284 0.89329 0.54871 0.0
O163 O 0.09846 0.8429 0.55435 0.0
O164 O 1.00473 0.81914 0.50851 0.0
O165 O 0.03103 0.87158 0.50918 0.0
C166 C 0.16869 0.79758 0.50868 0.0
C167 C 0.99329 0.85006 0.50886 0.0
C168 C 0.87136 0.13125 0.2021 0.0
C169 C 0.86873 0.13793 0.31671 0.0
O170 O 0.88701 0.10926 0.22156 0.0
Zn171 Zn 0.86943 0.13341 0.25953 0.0
O172 O 0.85131 0.15863 0.21229 0.0
Zn173 Zn 0.83354 0.18132 0.25654 0.0
O174 O 0.876 0.22131 0.25523 0.0
O175 O 0.92375 0.17526 0.25831 0.0
O176 O 0.84901 0.16365 0.30307 0.0
O177 O 0.88505 0.11355 0.30015 0.0
O178 O 0.78412 0.13306 0.2587 0.0
O179 O 0.7572 0.18533 0.25574 0.0
C180 C 0.92122 0.20727 0.25678 0.0
C181 C 0.74616 0.15438 0.25724 0.0
C182 C 0.90126 0.61926 0.20085 0.0
C183 C 0.90209 0.61294 0.31527 0.0
O184 O 0.8829 0.64047 0.22024 0.0
Zn185 Zn 0.90296 0.61733 0.25821 0.0
O186 O 0.92455 0.59294 0.21111 0.0
Zn187 Zn 0.94474 0.57142 0.25565 0.0
O188 O 0.90784 0.52934 0.2541 0.0
O189 O 0.85414 0.57279 0.25683 0.0
O190 O 0.92526 0.58809 0.3021 0.0
O191 O 0.8841 0.63664 0.29846 0.0
O192 O 0.98778 0.62204 0.25793 0.0
O193 O 0.02152 0.57139 0.25545 0.0
C194 C 0.86093 0.54099 0.2554 0.0
C195 C 0.02844 0.60282 0.2568 0.0
C196 C 0.91352 0.54058 0.51064 0.0
C197 C 0.74639 0.60291 0.50872 0.0
O198 O 0.86654 0.52902 0.51177 0.0
Zn199 Zn 0.82989 0.57122 0.51022 0.0
O200 O 0.92047 0.57237 0.50931 0.0
Zn201 Zn 0.87197 0.61705 0.50788 0.0
O202 O 0.89178 0.64003 0.54599 0.0
O203 O 0.84986 0.59254 0.55489 0.0
O204 O 0.78721 0.62201 0.50779 0.0
O205 O 0.75308 0.57146 0.51016 0.0
O206 O 0.84996 0.58798 0.46387 0.0
O207 O 0.89137 0.63642 0.46776 0.0
C208 C 0.87321 0.61879 0.56527 0.0
C209 C 0.87341 0.61281 0.45084 0.0
C210 C 0.02779 0.15367 0.50802 0.0
C211 C 0.85708 0.21118 0.51035 0.0
O212 O 0.01791 0.18476 0.50852 0.0
Zn213 Zn 0.94188 0.18244 0.50966 0.0
O214 O 0.98897 0.1329 0.50832 0.0
Zn215 Zn 0.90347 0.13553 0.5093 0.0
O216 O 0.88378 0.11426 0.46989 0.0
O217 O 0.92073 0.16395 0.46425 0.0
O218 O 0.85155 0.17921 0.51003 0.0
O219 O 0.90351 0.22359 0.51047 0.0
O220 O 0.92449 0.16264 0.55512 0.0
O221 O 0.8862 0.11356 0.54851 0.0
C222 C 0.89867 0.13809 0.45222 0.0
C223 C 0.90302 0.13639 0.56675 0.0
C224 C 0.65354 0.37045 0.81481 0.0
C225 C 0.65249 0.3685 0.70041 0.0
O226 O 0.67478 0.34382 0.80374 0.0
Zn227 Zn 0.69215 0.3233 0.75831 0.0
O228 O 0.63619 0.39261 0.79607 0.0
Zn229 Zn 0.65406 0.37007 0.75752 0.0
O230 O 0.60154 0.32677 0.75795 0.0
O231 O 0.65326 0.28236 0.75894 0.0
O232 O 0.63613 0.39173 0.7183 0.0
O233 O 0.67356 0.34226 0.71243 0.0
O234 O 0.7682 0.32028 0.75805 0.0
O235 O 0.73977 0.37227 0.75752 0.0
C236 C 0.60691 0.29481 0.75846 0.0
C237 C 0.77839 0.35135 0.75773 0.0
C238 C 0.62244 0.88549 0.70084 0.0
C239 C 0.62196 0.88387 0.81517 0.0
O240 O 0.60102 0.91157 0.71294 0.0
Zn241 Zn 0.58211 0.93071 0.75867 0.0
O242 O 0.6393 0.86226 0.7186 0.0
Zn243 Zn 0.62117 0.88362 0.75787 0.0
O244 O 0.53644 0.88084 0.75766 0.0
O245 O 0.50504 0.93214 0.7584 0.0
O246 O 0.63939 0.86161 0.79654 0.0
O247 O 0.60022 0.91029 0.80399 0.0
O248 O 0.62238 0.97194 0.75913 0.0
O249 O 0.67244 0.92675 0.7582 0.0
C250 C 0.49668 0.90079 0.75783 0.0
C251 C 0.66833 0.95872 0.75865 0.0
C252 C 0.649 0.8856 0.56539 0.0
C253 C 0.64888 0.88461 0.45103 0.0
O254 O 0.67128 0.91144 0.55339 0.0
Zn255 Zn 0.69053 0.9304 0.5077 0.0
O256 O 0.63127 0.86273 0.54753 0.0
Zn257 Zn 0.64995 0.88414 0.50833 0.0
O258 O 0.73507 0.88019 0.50833 0.0
O259 O 0.76716 0.93133 0.50782 0.0
O260 O 0.63078 0.86249 0.46957 0.0
O261 O 0.67158 0.91065 0.4623 0.0
O262 O 0.65273 0.97205 0.50749 0.0
O263 O 0.59978 0.92818 0.50831 0.0
C264 C 0.77512 0.89997 0.50817 0.0
C265 C 0.60601 0.96006 0.508 0.0
C266 C 0.62177 0.36885 0.56513 0.0
C267 C 0.62054 0.36806 0.45058 0.0
O268 O 0.6004 0.34257 0.5534 0.0
Zn269 Zn 0.58081 0.32271 0.50816 0.0
O270 O 0.63771 0.39206 0.54705 0.0
Zn271 Zn 0.61922 0.37015 0.50793 0.0
O272 O 0.53449 0.37247 0.50829 0.0
O273 O 0.50379 0.32101 0.5086 0.0
O274 O 0.63692 0.39131 0.46849 0.0
O275 O 0.59904 0.34197 0.46255 0.0
O276 O 0.62144 0.28168 0.50831 0.0
O277 O 0.67094 0.32716 0.50818 0.0
C278 C 0.49501 0.35231 0.50856 0.0
C279 C 0.66722 0.29516 0.50837 0.0
C280 C 0.36941 0.64229 0.31625 0.0
C281 C 0.3711 0.63786 0.20142 0.0
O282 O 0.38657 0.61845 0.29928 0.0
Zn283 Zn 0.36885 0.63851 0.25892 0.0
O284 O 0.34772 0.66763 0.30307 0.0
Zn285 Zn 0.33002 0.68539 0.25692 0.0
O286 O 0.25382 0.68768 0.25643 0.0
O287 O 0.28332 0.63595 0.25846 0.0
O288 O 0.34919 0.66435 0.21224 0.0
O289 O 0.38757 0.61555 0.22033 0.0
O290 O 0.42064 0.68199 0.25801 0.0
O291 O 0.36901 0.72644 0.25601 0.0
C292 C 0.24428 0.65654 0.25746 0.0
C293 C 0.41535 0.71393 0.25701 0.0
C294 C 0.3608 0.042 0.25676 0.0
C295 C 0.52884 0.10322 0.25699 0.0
O296 O 0.40763 0.03016 0.256 0.0
Zn297 Zn 0.44484 0.07213 0.25655 0.0
O298 O 0.35428 0.07386 0.25747 0.0
Zn299 Zn 0.40351 0.11836 0.25803 0.0
O300 O 0.3837 0.14047 0.21929 0.0
O301 O 0.42441 0.09229 0.2117 0.0
O302 O 0.48849 0.12274 0.25772 0.0
O303 O 0.5214 0.07182 0.2562 0.0
O304 O 0.42576 0.09011 0.30244 0.0
O305 O 0.38463 0.13855 0.29805 0.0
C306 C 0.40114 0.11822 0.20064 0.0
C307 C 0.40274 0.11521 0.31526 0.0
C308 C 0.37018 0.11941 0.56539 0.0
C309 C 0.37237 0.1163 0.45075 0.0
O310 O 0.38689 0.14216 0.547 0.0
Zn311 Zn 0.36943 0.11989 0.50791 0.0
O312 O 0.34864 0.09308 0.55397 0.0
Zn313 Zn 0.3305 0.07245 0.50902 0.0
O314 O 0.37107 0.03142 0.50999 0.0
O315 O 0.42084 0.07677 0.50888 0.0
O316 O 0.35039 0.09076 0.46342 0.0
O317 O 0.38824 0.14031 0.46794 0.0
O318 O 0.28477 0.12228 0.50732 0.0
O319 O 0.25345 0.07095 0.50854 0.0
C320 C 0.41693 0.04479 0.50954 0.0
C321 C 0.24506 0.10228 0.50758 0.0
C322 C 0.40564 0.64027 0.56627 0.0
C323 C 0.40224 0.64231 0.45163 0.0
O324 O 0.38869 0.6176 0.5479 0.0
Zn325 Zn 0.40646 0.63958 0.50879 0.0
O326 O 0.42741 0.6665 0.55478 0.0
Zn327 Zn 0.44526 0.68648 0.50937 0.0
O328 O 0.40667 0.72775 0.51024 0.0
O329 O 0.35496 0.68325 0.50956 0.0
O330 O 0.42438 0.66808 0.46382 0.0
O331 O 0.38704 0.61849 0.46923 0.0
O332 O 0.49177 0.63677 0.50822 0.0
O333 O 0.52159 0.68845 0.50856 0.0
C334 C 0.3603 0.71521 0.51001 0.0
C335 C 0.53094 0.65727 0.50816 0.0
C336 C 0.65168 0.87109 0.31537 0.0
C337 C 0.65236 0.86876 0.20079 0.0
O338 O 0.67344 0.84483 0.30397 0.0
Zn339 Zn 0.69279 0.82456 0.25916 0.0
O340 O 0.63581 0.89413 0.29705 0.0
Zn341 Zn 0.65418 0.87219 0.25796 0.0
O342 O 0.60259 0.82918 0.2584 0.0
O343 O 0.6518 0.78359 0.25951 0.0
O344 O 0.63604 0.89272 0.21792 0.0
O345 O 0.67411 0.84324 0.21362 0.0
O346 O 0.76978 0.82304 0.25928 0.0
O347 O 0.73889 0.87447 0.25798 0.0
C348 C 0.6061 0.79719 0.25891 0.0
C349 C 0.77844 0.85435 0.25849 0.0
C350 C 0.62258 0.38185 0.31477 0.0
C351 C 0.62304 0.38362 0.20029 0.0
O352 O 0.60232 0.40874 0.30359 0.0
Zn353 Zn 0.58525 0.42944 0.25826 0.0
O354 O 0.63874 0.35924 0.29612 0.0
Zn355 Zn 0.62146 0.38175 0.25742 0.0
O356 O 0.67542 0.42396 0.25759 0.0
O357 O 0.62676 0.46976 0.25868 0.0
O358 O 0.63841 0.36 0.21805 0.0
O359 O 0.60298 0.4101 0.21246 0.0
O360 O 0.5089 0.43318 0.25817 0.0
O361 O 0.53611 0.38091 0.2576 0.0
C362 C 0.67226 0.45601 0.25801 0.0
C363 C 0.498 0.40218 0.25788 0.0
C364 C 0.65447 0.38467 0.06503 0.0
C365 C 0.65556 0.38561 0.95053 0.0
O366 O 0.67437 0.41145 0.0534 0.0
Zn367 Zn 0.69268 0.43175 0.00811 0.0
O368 O 0.63985 0.36122 0.04683 0.0
Zn369 Zn 0.65717 0.38376 0.00785 0.0
O370 O 0.74245 0.38327 0.00811 0.0
O371 O 0.76896 0.43566 0.00852 0.0
O372 O 0.64041 0.36213 0.96853 0.0
O373 O 0.67563 0.41219 0.9624 0.0
O374 O 0.65082 0.47195 0.00835 0.0
O375 O 0.60283 0.42583 0.00828 0.0
C376 C 0.78027 0.40473 0.00838 0.0
C377 C 0.60552 0.4579 0.00852 0.0
C378 C 0.6208 0.86758 0.0654 0.0
C379 C 0.62023 0.86948 0.95083 0.0
O380 O 0.60024 0.84154 0.05282 0.0
Zn381 Zn 0.58219 0.82243 1.00733 0.0
O382 O 0.63582 0.89167 0.04805 0.0
Zn383 Zn 0.61825 0.87045 0.00824 0.0
O384 O 0.53289 0.87118 0.00846 0.0
O385 O 0.50601 0.81885 1.0075 0.0
O386 O 0.6353 0.89276 0.96912 0.0
O387 O 0.59985 0.84284 0.96233 0.0
O388 O 0.62392 0.78218 1.00689 0.0
O389 O 0.67223 0.82816 0.00777 0.0
C390 C 0.49492 0.84981 0.00817 0.0
C391 C 0.66932 0.7961 1.00735 0.0
C392 C 0.24536 0.15291 0.75826 0.0
C393 C 0.41728 0.2105 0.75711 0.0
O394 O 0.25376 0.18425 0.75765 0.0
Zn395 Zn 0.33096 0.18266 0.75732 0.0
O396 O 0.28511 0.13295 0.75853 0.0
Zn397 Zn 0.36978 0.13553 0.75835 0.0
O398 O 0.38796 0.11442 0.79771 0.0
O399 O 0.35011 0.16386 0.80326 0.0
O400 O 0.4212 0.17853 0.75772 0.0
O401 O 0.37141 0.22383 0.75655 0.0
O402 O 0.34894 0.16184 0.71201 0.0
O403 O 0.38784 0.11314 0.71983 0.0
C404 C 0.3715 0.13779 0.81543 0.0
C405 C 0.3705 0.13525 0.70103 0.0
C406 C 0.40363 0.6147 0.81628 0.0
C407 C 0.40531 0.62238 0.70177 0.0
O408 O 0.3891 0.63954 0.79974 0.0
Zn409 Zn 0.40645 0.62009 0.75921 0.0
O410 O 0.42407 0.5891 0.80282 0.0
Zn411 Zn 0.44231 0.5722 0.75634 0.0
O412 O 0.5187 0.56844 0.75644 0.0
O413 O 0.49166 0.62066 0.75925 0.0
O414 O 0.42527 0.59498 0.71197 0.0
O415 O 0.38953 0.64434 0.72123 0.0
O416 O 0.35236 0.57813 0.75713 0.0
O417 O 0.4003 0.5321 0.75418 0.0
C418 C 0.52969 0.59938 0.7581 0.0
C419 C 0.35502 0.54613 0.7554 0.0
C420 C 0.37026 0.61847 0.06613 0.0
C421 C 0.37091 0.61268 0.95169 0.0
O422 O 0.38731 0.64003 0.04668 0.0
Zn423 Zn 0.36862 0.61655 0.00873 0.0
O424 O 0.34849 0.59163 0.05588 0.0
Zn425 Zn 0.33003 0.56992 0.01105 0.0
O426 O 0.36847 0.52867 0.01256 0.0
O427 O 0.42033 0.57298 0.01005 0.0
O428 O 0.34903 0.58719 0.96459 0.0
O429 O 0.38711 0.63664 0.96878 0.0
O430 O 0.28306 0.61926 0.00862 0.0
O431 O 0.25387 0.5675 0.0109 0.0
C432 C 0.41486 0.54106 0.01137 0.0
C433 C 0.24413 0.59859 0.00947 0.0
C434 C 0.39952 0.13502 0.06522 0.0
C435 C 0.3999 0.13772 0.95086 0.0
O436 O 0.381 0.11345 0.04627 0.0
Zn437 Zn 0.40076 0.13566 0.00793 0.0
O438 O 0.42273 0.16114 0.05442 0.0
Zn439 Zn 0.44226 0.1815 0.00916 0.0
O440 O 0.40528 0.22351 0.00985 0.0
O441 O 0.35148 0.18009 0.00833 0.0
O442 O 0.42266 0.16331 0.96306 0.0
O443 O 0.38183 0.11483 0.96857 0.0
O444 O 0.48576 0.13105 0.00807 0.0
O445 O 0.51912 0.18183 0.00918 0.0
C446 C 0.35833 0.21191 0.00904 0.0
C447 C 0.52631 0.1504 0.00854 0.0
C448 C 0.14144 0.39621 0.15162 0.0
C449 C 0.14538 0.36564 0.16784 0.0
C450 C 0.13522 0.39701 0.11879 0.0
C451 C 0.13157 0.36726 0.10125 0.0
H452 H 0.14395 0.41964 0.1643 0.0
H453 H 0.13261 0.42103 0.10715 0.0
S454 S 0.13867 0.28071 0.13273 0.0
N455 N 0.14458 0.30493 0.16387 0.0
N456 N 0.13263 0.3064 0.10265 0.0
C457 C 0.13505 0.33658 0.11732 0.0
C458 C 0.142 0.33578 0.15048 0.0
C459 C 0.14137 0.91169 0.11765 0.0
C460 C 0.14391 0.8815 0.10081 0.0
C461 C 0.13428 0.912 0.15015 0.0
C462 C 0.13023 0.88212 0.16739 0.0
H463 H 0.1442 0.93549 0.1056 0.0
H464 H 0.13247 0.93602 0.16187 0.0
S465 S 0.13529 0.79621 0.13468 0.0
N466 N 0.14201 0.82077 0.10374 0.0
N467 N 0.12962 0.82135 0.16529 0.0
C468 C 0.13325 0.85163 0.15101 0.0
C469 C 0.13969 0.85132 0.11761 0.0
C470 C 0.88433 0.66526 0.86674 0.0
C471 C 0.88129 0.63513 0.84981 0.0
C472 C 0.89121 0.66542 0.89929 0.0
C473 C 0.89435 0.63546 0.91645 0.0
H474 H 0.88198 0.68908 0.85471 0.0
H475 H 0.89341 0.68936 0.91113 0.0
S476 S 0.88815 0.54969 0.88347 0.0
N477 N 0.88218 0.5744 0.85257 0.0
N478 N 0.89393 0.5747 0.91417 0.0
C479 C 0.89098 0.60504 0.89996 0.0
C480 C 0.88491 0.60488 0.86654 0.0
C481 C 0.88206 0.08669 0.90032 0.0
C482 C 0.87807 0.11644 0.91774 0.0
C483 C 0.8901 0.08724 0.86786 0.0
C484 C 0.89355 0.11757 0.85128 0.0
H485 H 0.87957 0.0626 0.91188 0.0
H486 H 0.89294 0.06355 0.85562 0.0
S487 S 0.88513 0.2026 0.88574 0.0
N488 N 0.87834 0.17723 0.91609 0.0
N489 N 0.89233 0.17827 0.85468 0.0
C490 C 0.88925 0.14761 0.86829 0.0
C491 C 0.88194 0.14705 0.90161 0.0
C492 C 0.13772 0.84093 0.65024 0.0
C493 C 0.14225 0.87091 0.66728 0.0
C494 C 0.12924 0.84103 0.61785 0.0
C495 C 0.1257 0.87112 0.60092 0.0
H496 H 0.14029 0.81698 0.66203 0.0
H497 H 0.12622 0.81716 0.60595 0.0
S498 S 0.13482 0.95663 0.63433 0.0
N499 N 0.14205 0.93166 0.66494 0.0
N500 N 0.12704 0.93189 0.6036 0.0
C501 C 0.13024 0.90141 0.61755 0.0
C502 C 0.13812 0.9013 0.65084 0.0
C503 C 0.14028 0.4135 0.61776 0.0
C504 C 0.1445 0.38308 0.60139 0.0
C505 C 0.13282 0.41422 0.65024 0.0
C506 C 0.13012 0.38457 0.66789 0.0
H507 H 0.1421 0.43713 0.60536 0.0
H508 H 0.12974 0.43837 0.66163 0.0
S509 S 0.13939 0.29825 0.63649 0.0
N510 N 0.1453 0.32241 0.6052 0.0
N511 N 0.13231 0.32379 0.6667 0.0
C512 C 0.13471 0.35388 0.65198 0.0
C513 C 0.14147 0.35313 0.61862 0.0
C514 C 0.88577 0.10797 0.36779 0.0
C515 C 0.87409 0.13775 0.35146 0.0
C516 C 0.8923 0.10783 0.4006 0.0
C517 C 0.8884 0.13756 0.41806 0.0
H518 H 0.89002 0.08462 0.35516 0.0
H519 H 0.9018 0.0845 0.41225 0.0
S520 S 0.85591 0.22188 0.38719 0.0
N521 N 0.85688 0.19758 0.3559 0.0
N522 N 0.8697 0.19714 0.41708 0.0
C523 C 0.8759 0.16731 0.40217 0.0
C524 C 0.86861 0.16746 0.36901 0.0
C525 C 0.89068 0.643 0.36667 0.0
C526 C 0.89475 0.61286 0.34977 0.0
C527 C 0.88456 0.64298 0.39949 0.0
C528 C 0.88104 0.6128 0.41638 0.0
H529 H 0.89294 0.66675 0.35452 0.0
H530 H 0.8818 0.66671 0.41165 0.0
S531 S 0.88879 0.52711 0.38309 0.0
N532 N 0.89459 0.55207 0.35244 0.0
N533 N 0.88247 0.55204 0.41373 0.0
C534 C 0.88471 0.58254 0.39967 0.0
C535 C 0.89173 0.58257 0.36648 0.0
C536 C 0.63451 0.34034 0.61636 0.0
C537 C 0.6301 0.37043 0.59949 0.0
C538 C 0.64228 0.34024 0.64882 0.0
C539 C 0.6451 0.37022 0.66597 0.0
H540 H 0.63247 0.31648 0.60436 0.0
H541 H 0.64536 0.3163 0.66061 0.0
S542 S 0.6358 0.45593 0.63306 0.0
N543 N 0.62956 0.43116 0.60223 0.0
N544 N 0.64312 0.43099 0.66369 0.0
C545 C 0.64056 0.4006 0.64951 0.0
C546 C 0.63349 0.40071 0.61617 0.0
C547 C 0.63313 0.91398 0.64946 0.0
C548 C 0.62938 0.88391 0.66641 0.0
C549 C 0.63981 0.914 0.61692 0.0
C550 C 0.6421 0.88397 0.59982 0.0
H551 H 0.6315 0.93785 0.66146 0.0
H552 H 0.64256 0.9379 0.60504 0.0
S553 S 0.63369 0.79834 0.63291 0.0
N554 N 0.62854 0.82317 0.66378 0.0
N555 N 0.64003 0.82322 0.60217 0.0
C556 C 0.63799 0.85363 0.61634 0.0
C557 C 0.63206 0.85359 0.64975 0.0
C558 C 0.3871 0.6122 0.36723 0.0
C559 C 0.37621 0.64209 0.35091 0.0
C560 C 0.39432 0.61206 0.40001 0.0
C561 C 0.39203 0.64192 0.41742 0.0
H562 H 0.38993 0.58874 0.35463 0.0
H563 H 0.40291 0.58861 0.41167 0.0
S564 S 0.36309 0.72669 0.38638 0.0
N565 N 0.36219 0.70224 0.3552 0.0
N566 N 0.37625 0.70185 0.41628 0.0
C567 C 0.38068 0.67183 0.40148 0.0
C568 C 0.37265 0.67196 0.36837 0.0
C569 C 0.38182 0.14622 0.39904 0.0
C570 C 0.38128 0.11628 0.41639 0.0
C571 C 0.38829 0.14587 0.36621 0.0
C572 C 0.39559 0.11563 0.34982 0.0
H573 H 0.37624 0.16998 0.4108 0.0
H574 H 0.38802 0.16942 0.35366 0.0
S575 S 0.39903 0.03048 0.38473 0.0
N576 N 0.38974 0.05571 0.41485 0.0
N577 N 0.40218 0.05501 0.35366 0.0
C578 C 0.39583 0.08561 0.36709 0.0
C579 C 0.38862 0.08596 0.40024 0.0
C580 C 0.63964 0.89872 0.1493 0.0
C581 C 0.64406 0.8687 0.16636 0.0
C582 C 0.63279 0.89843 0.1165 0.0
C583 C 0.62906 0.8681 0.09984 0.0
H584 H 0.64216 0.92255 0.16129 0.0
H585 H 0.62975 0.92205 0.10419 0.0
S586 S 0.63743 0.78261 0.13372 0.0
N587 N 0.6436 0.80786 0.16409 0.0
N588 N 0.63076 0.80731 0.10298 0.0
C589 C 0.63315 0.83797 0.11676 0.0
C590 C 0.64061 0.83827 0.14987 0.0
C591 C 0.64123 0.4126 0.1165 0.0
C592 C 0.64619 0.3827 0.09938 0.0
C593 C 0.63324 0.41235 0.14893 0.0
C594 C 0.63064 0.38219 0.16584 0.0
H595 H 0.643 0.43659 0.10472 0.0
H596 H 0.62977 0.43617 0.16088 0.0
S597 S 0.64151 0.29685 0.13226 0.0
N598 N 0.64763 0.32194 0.10165 0.0
N599 N 0.63356 0.32147 0.16307 0.0
C600 C 0.63576 0.35199 0.14915 0.0
C601 C 0.64314 0.35224 0.11582 0.0
C602 C 0.3831 0.16635 0.86682 0.0
C603 C 0.37887 0.1363 0.84986 0.0
C604 C 0.39041 0.16633 0.89935 0.0
C605 C 0.39281 0.13627 0.91641 0.0
H606 H 0.38137 0.19022 0.85483 0.0
H607 H 0.39351 0.19019 0.91126 0.0
S608 S 0.38342 0.05069 0.88327 0.0
N609 N 0.37783 0.07556 0.85247 0.0
N610 N 0.39042 0.07553 0.91399 0.0
C611 C 0.38826 0.10596 0.89986 0.0
C612 C 0.38173 0.10597 0.8665 0.0
C613 C 0.39158 0.64401 0.86807 0.0
C614 C 0.3951 0.61413 0.85073 0.0
C615 C 0.38423 0.64349 0.90081 0.0
C616 C 0.379 0.6131 0.91721 0.0
H617 H 0.3952 0.66794 0.85635 0.0
H618 H 0.38205 0.66706 0.91328 0.0
S619 S 0.38445 0.52789 0.88262 0.0
N620 N 0.3923 0.5533 0.85247 0.0
N621 N 0.37809 0.55237 0.91356 0.0
C622 C 0.38202 0.58309 0.90005 0.0
C623 C 0.39018 0.5836 0.86694 0.0
C624 C 0.96745 0.26278 0.25613 0.0
C625 C 0.97064 0.22767 0.25727 0.0
C626 C 0.01318 0.28272 0.25692 0.0
C627 C 0.06425 0.2685 0.25886 0.0
H628 H 0.92927 0.27513 0.25468 0.0
H629 H 1.00821 0.3096 0.25596 0.0
S630 S 0.09484 0.17772 0.26249 0.0
N631 N 0.02948 0.17944 0.26046 0.0
N632 N 0.11524 0.21692 0.26191 0.0
C633 C 0.06816 0.2334 0.25998 0.0
C634 C 0.02149 0.21303 0.25919 0.0
C635 C 0.21682 0.01339 0.25839 0.0
C636 C 0.22051 0.97828 0.25805 0.0
C637 C 0.26229 0.03356 0.25792 0.0
C638 C 0.31361 0.0196 0.25708 0.0
H639 H 0.17843 0.02555 0.25903 0.0
H640 H 0.2569 0.06043 0.25824 0.0
S641 S 0.34556 0.92891 0.25584 0.0
N642 N 0.2801 0.93031 0.25679 0.0
N643 N 0.3654 0.96823 0.25591 0.0
C644 C 0.31803 0.98449 0.25672 0.0
C645 C 0.27161 0.96388 0.25722 0.0
C646 C 0.05805 0.01145 1.00734 0.0
C647 C 0.05454 0.97634 0.00845 0.0
C648 C 1.01239 0.03155 1.00761 0.0
C649 C 0.96118 0.01746 0.00899 0.0
H650 H 0.0964 0.02363 1.00624 0.0
H651 H 0.01749 0.05843 1.00667 0.0
S652 S 0.9298 0.92674 0.01255 0.0
N653 N 0.99519 0.9283 0.01117 0.0
N654 N 0.90978 0.966 0.01167 0.0
C655 C 0.95702 0.98236 0.01015 0.0
C656 C 1.00352 0.96187 0.00988 0.0
C657 C 0.25992 0.22108 1.00646 0.0
C658 C 0.31146 0.23459 0.00856 0.0
C659 C 0.21484 0.24165 1.00577 0.0
C660 C 0.21923 0.27669 1.00716 0.0
H661 H 0.25408 0.19427 1.00528 0.0
H662 H 0.17623 0.22986 1.00418 0.0
S663 S 0.34512 0.32492 0.01297 0.0
N664 N 0.36415 0.28546 0.01211 0.0
N665 N 0.27974 0.32408 0.01083 0.0
C666 C 0.27058 0.29061 0.00928 0.0
C667 C 0.31653 0.26963 0.00997 0.0
C668 C 0.01418 0.71948 0.75808 0.0
C669 C 0.96284 0.73346 0.75781 0.0
C670 C 0.05967 0.73965 0.75829 0.0
C671 C 0.05595 0.77476 0.75826 0.0
H672 H 0.01954 0.69261 0.75814 0.0
H673 H 0.09808 0.7275 0.75849 0.0
S674 S 0.93086 0.82416 0.75755 0.0
N675 N 0.91103 0.78484 0.7575 0.0
N676 N 0.99632 0.82274 0.7579 0.0
C677 C 1.00483 0.78917 0.75799 0.0
C678 C 0.95841 0.76857 0.75776 0.0
C679 C 0.71305 0.01492 0.75887 0.0
C680 C 0.71707 0.97981 0.75841 0.0
C681 C 0.75845 0.03527 0.75859 0.0
C682 C 0.80988 0.02143 0.75783 0.0
H683 H 0.67451 0.0269 0.75946 0.0
H684 H 0.753 0.06214 0.75901 0.0
S685 S 0.84257 0.93081 0.75636 0.0
N686 N 0.77713 0.93205 0.75713 0.0
N687 N 0.86202 0.97019 0.7566 0.0
C688 C 0.81453 0.98633 0.75734 0.0
C689 C 0.76832 0.9656 0.75763 0.0
C690 C 0.71502 0.74044 1.00622 0.0
C691 C 0.71855 0.77552 1.00757 0.0
C692 C 0.76058 0.72033 1.0065 0.0
C693 C 0.81182 0.73436 0.00815 0.0
H694 H 0.67671 0.72824 1.0049 0.0
H695 H 0.75536 0.69347 1.00537 0.0
S696 S 0.84328 0.825 0.01245 0.0
N697 N 0.77787 0.82352 0.01083 0.0
N698 N 0.86331 0.78574 0.01135 0.0
C699 C 0.81605 0.76944 0.00956 0.0
C700 C 0.76956 0.78997 0.00928 0.0
C701 C 0.30883 0.49064 0.75491 0.0
C702 C 0.30563 0.52575 0.75551 0.0
C703 C 0.26307 0.47074 0.75563 0.0
C704 C 0.21199 0.48503 0.75695 0.0
H705 H 0.34704 0.47826 0.75401 0.0
H706 H 0.26802 0.44384 0.75517 0.0
S707 S 0.18138 0.57586 0.7588 0.0
N708 N 0.24678 0.57407 0.75736 0.0
N709 N 0.16097 0.53666 0.75871 0.0
C710 C 0.20808 0.52014 0.75744 0.0
C711 C 0.25477 0.54046 0.75672 0.0
C712 C 1.01186 0.53169 0.50879 0.0
C713 C 0.96043 0.51796 0.51035 0.0
C714 C 0.0571 0.51133 0.50813 0.0
C715 C 0.05306 0.47625 0.50897 0.0
H716 H 0.01752 0.55853 0.50804 0.0
H717 H 0.09557 0.52334 0.50694 0.0
S718 S 0.92762 0.42743 0.51309 0.0
N719 N 0.90816 0.46683 0.51272 0.0
N720 N 0.99305 0.42855 0.51148 0.0
C721 C 1.00186 0.46207 0.51053 0.0
C722 C 0.95566 0.48288 0.51122 0.0
C723 C 0.26151 0.72251 0.50838 0.0
C724 C 0.31242 0.737 0.50988 0.0
C725 C 0.21551 0.74223 0.50797 0.0
C726 C 0.21829 0.77736 0.50905 0.0
H727 H 0.25691 0.69559 0.50743 0.0
H728 H 0.17744 0.72971 0.50677 0.0
S729 S 0.34194 0.82794 0.51336 0.0
N730 N 0.3628 0.78885 0.5126 0.0
N731 N 0.27658 0.82588 0.51184 0.0
C732 C 0.26898 0.79225 0.5106 0.0
C733 C 0.31589 0.77212 0.51102 0.0
C734 C 0.76255 0.53222 0.25737 0.0
C735 C 0.81395 0.51844 0.25578 0.0
C736 C 0.71727 0.51189 0.25813 0.0
C737 C 0.72125 0.4768 0.25736 0.0
H738 H 0.75695 0.55906 0.25808 0.0
H739 H 0.67881 0.52392 0.25935 0.0
S740 S 0.84658 0.42789 0.25314 0.0
N741 N 0.86611 0.46728 0.25343 0.0
N742 N 0.78117 0.42906 0.25485 0.0
C743 C 0.77242 0.46259 0.25575 0.0
C744 C 0.81865 0.48336 0.25496 0.0
C745 C 0.71262 0.23923 0.50861 0.0
C746 C 0.71621 0.27435 0.5089 0.0
C747 C 0.75825 0.21911 0.50918 0.0
C748 C 0.80949 0.23322 0.5101 0.0
H749 H 0.67424 0.22705 0.5079 0.0
H750 H 0.75313 0.19222 0.50885 0.0
S751 S 0.84105 0.32398 0.51135 0.0
N752 N 0.77565 0.32241 0.51026 0.0
N753 N 0.861 0.2847 0.51135 0.0
C754 C 0.81372 0.26833 0.51044 0.0
C755 C 0.76726 0.28882 0.50984 0.0
C756 C 0.46243 0.26657 0.75688 0.0
C757 C 0.46616 0.23145 0.75735 0.0
C758 C 0.50801 0.28676 0.7573 0.0
C759 C 0.55931 0.27274 0.75821 0.0
H760 H 0.424 0.27867 0.75621 0.0
H761 H 0.50281 0.31365 0.75688 0.0
S762 S 0.59121 0.18202 0.75977 0.0
N763 N 0.5258 0.18349 0.75879 0.0
N764 N 0.61099 0.22133 0.75958 0.0
C765 C 0.56365 0.23763 0.75869 0.0
C766 C 0.51727 0.21706 0.75826 0.0
C767 C 0.46189 0.98875 0.50986 0.0
C768 C 0.46579 0.02385 0.50936 0.0
C769 C 0.50734 0.96849 0.50939 0.0
C770 C 0.55873 0.98238 0.50841 0.0
H771 H 0.42341 0.97671 0.51056 0.0
H772 H 0.50191 0.94162 0.50981 0.0
S773 S 0.59112 0.07299 0.50679 0.0
N774 N 0.52569 0.07169 0.50784 0.0
N775 N 0.61073 0.03364 0.50697 0.0
C776 C 0.56329 0.01746 0.50793 0.0
C777 C 0.517 0.03813 0.50841 0.0
C778 C 0.56014 0.74142 0.25841 0.0
C779 C 0.5569 0.77655 0.25852 0.0
C780 C 0.51429 0.72149 0.25785 0.0
C781 C 0.46316 0.7358 0.25735 0.0
H782 H 0.59841 0.72909 0.25874 0.0
H783 H 0.51916 0.69458 0.25781 0.0
S784 S 0.43247 0.82668 0.25752 0.0
N785 N 0.49788 0.82485 0.25816 0.0
N786 N 0.41214 0.78748 0.25709 0.0
C787 C 0.45928 0.77092 0.25746 0.0
C788 C 0.50596 0.79123 0.25805 0.0
C789 C 0.55934 0.51346 0.00871 0.0
C790 C 0.55616 0.47832 0.00927 0.0
C791 C 0.51357 0.53338 0.00952 0.0
C792 C 0.46252 0.51909 0.01096 0.0
H793 H 0.59753 0.52583 1.00759 0.0
H794 H 0.51846 0.56028 0.00895 0.0
S795 S 0.43199 0.4282 0.01308 0.0
N796 N 0.49737 0.43001 0.01146 0.0
N797 N 0.41157 0.4674 0.01298 0.0
C798 C 0.45865 0.48395 0.01159 0.0
C799 C 0.50533 0.46363 0.01074 0.0
C800 C 0.14822 0.40401 0.39809 0.0
C801 C 0.14794 0.3759 0.41805 0.0
C802 C 0.14811 0.40047 0.36535 0.0
C803 C 0.14875 0.36869 0.35133 0.0
H804 H 0.14893 0.42903 0.40783 0.0
H805 H 0.14924 0.4228 0.35096 0.0
S806 S 0.14551 0.28709 0.39292 0.0
N807 N 0.14587 0.31522 0.4213 0.0
N808 N 0.14652 0.30852 0.35979 0.0
C809 C 0.14727 0.34036 0.37096 0.0
C810 C 0.14657 0.34397 0.4043 0.0
C811 C 0.12226 0.85073 0.36513 0.0
C812 C 0.12388 0.88239 0.35087 0.0
C813 C 0.12095 0.84748 0.39789 0.0
C814 C 0.12216 0.87573 0.41765 0.0
H815 H 0.12041 0.82831 0.35089 0.0
H816 H 0.11869 0.82256 0.40778 0.0
S817 S 0.13023 0.96423 0.39192 0.0
N818 N 0.12911 0.94255 0.35895 0.0
N819 N 0.12738 0.93638 0.42048 0.0
C820 C 0.12561 0.9075 0.40369 0.0
C821 C 0.12622 0.91084 0.37032 0.0
C822 C 0.14785 0.90174 0.86509 0.0
C823 C 0.15134 0.87018 0.85071 0.0
C824 C 0.14751 0.9049 0.89787 0.0
C825 C 0.14959 0.8766 0.9175 0.0
H826 H 0.14674 0.92426 0.85097 0.0
H827 H 0.14578 0.92976 0.90791 0.0
S828 S 0.15666 0.78818 0.89165 0.0
N829 N 0.15538 0.80991 0.8587 0.0
N830 N 0.15396 0.81598 0.92025 0.0
C831 C 0.15158 0.84485 0.90347 0.0
C832 C 0.15272 0.84162 0.8701 0.0
C833 C 0.12911 0.35494 0.86528 0.0
C834 C 0.12691 0.38668 0.85122 0.0
C835 C 0.12932 0.35143 0.898 0.0
C836 C 0.1284 0.37953 0.91793 0.0
H837 H 0.12901 0.33256 0.85095 0.0
H838 H 0.12978 0.32641 0.90776 0.0
S839 S 0.12629 0.4683 0.89282 0.0
N840 N 0.12617 0.44688 0.85967 0.0
N841 N 0.12751 0.4402 0.92122 0.0
C842 C 0.1282 0.41146 0.9042 0.0
C843 C 0.12712 0.41505 0.87084 0.0
C844 C 0.87761 0.60021 0.65259 0.0
C845 C 0.87755 0.63221 0.66623 0.0
C846 C 0.87692 0.5962 0.61989 0.0
C847 C 0.87731 0.624 0.59959 0.0
H848 H 0.87648 0.5781 0.66726 0.0
H849 H 0.87576 0.57106 0.61044 0.0
S850 S 0.88062 0.71315 0.62354 0.0
N851 N 0.87996 0.69224 0.65697 0.0
N852 N 0.87974 0.68461 0.59552 0.0
C853 C 0.87915 0.65612 0.61292 0.0
C854 C 0.87892 0.66024 0.64622 0.0
C855 C 0.9001 0.09716 0.64783 0.0
C856 C 0.89897 0.12512 0.66796 0.0
C857 C 0.89965 0.10093 0.6151 0.0
C858 C 0.89912 0.13282 0.60126 0.0
H859 H 0.90163 0.07209 0.65743 0.0
H860 H 0.90131 0.07872 0.60057 0.0
S861 S 0.89386 0.21406 0.6434 0.0
N862 N 0.89521 0.18574 0.6716 0.0
N863 N 0.89526 0.19289 0.61013 0.0
C864 C 0.897 0.16098 0.62109 0.0
C865 C 0.89662 0.15712 0.65441 0.0
C866 C 0.87524 0.15345 0.14737 0.0
C867 C 0.87482 0.12572 0.16777 0.0
C868 C 0.87496 0.14932 0.1147 0.0
C869 C 0.87323 0.11732 0.10114 0.0
H870 H 0.8754 0.17865 0.1567 0.0
H871 H 0.87452 0.17144 0.10001 0.0
S872 S 0.87407 0.03647 0.14406 0.0
N873 N 0.87489 0.0651 0.17199 0.0
N874 N 0.87349 0.05729 0.11058 0.0
C875 C 0.87391 0.08933 0.12122 0.0
C876 C 0.87501 0.09354 0.15453 0.0
C877 C 0.8969 0.601 0.11348 0.0
C878 C 0.89682 0.63305 0.09995 0.0
C879 C 0.89757 0.59687 0.14616 0.0
C880 C 0.89702 0.6246 0.16655 0.0
H881 H 0.89817 0.57894 0.09874 0.0
H882 H 0.89886 0.5717 0.15552 0.0
S883 S 0.89317 0.71382 0.14287 0.0
N884 N 0.89402 0.69303 0.10938 0.0
N885 N 0.8942 0.6852 0.1708 0.0
C886 C 0.895 0.65677 0.15333 0.0
C887 C 0.89525 0.661 0.12003 0.0
C888 C 0.65249 0.35056 0.90194 0.0
C889 C 0.65144 0.38234 0.916 0.0
C890 C 0.65252 0.34702 0.8692 0.0
C891 C 0.65049 0.3751 0.84926 0.0
H892 H 0.65482 0.32825 0.9163 0.0
H893 H 0.65442 0.32203 0.85944 0.0
S894 S 0.6438 0.46383 0.87442 0.0
N895 N 0.64614 0.44244 0.90754 0.0
N896 N 0.64538 0.43573 0.84604 0.0
C897 C 0.64768 0.40699 0.86303 0.0
C898 C 0.64843 0.41062 0.89638 0.0
C899 C 0.62274 0.90447 0.90218 0.0
C900 C 0.62497 0.8728 0.91637 0.0
C901 C 0.62251 0.90777 0.8694 0.0
C902 C 0.62549 0.87957 0.84963 0.0
H903 H 0.61946 0.9268 0.91644 0.0
H904 H 0.61958 0.93265 0.8595 0.0
S905 S 0.63601 0.79117 0.8753 0.0
N906 N 0.63287 0.81276 0.90828 0.0
N907 N 0.63315 0.81903 0.84676 0.0
C908 C 0.62971 0.84784 0.86357 0.0
C909 C 0.62921 0.84444 0.89692 0.0
C910 C 0.64823 0.90887 0.39696 0.0
C911 C 0.6452 0.88054 0.41656 0.0
C912 C 0.64825 0.90579 0.36417 0.0
C913 C 0.64628 0.87421 0.34981 0.0
H914 H 0.65108 0.93369 0.40703 0.0
H915 H 0.65164 0.92821 0.35004 0.0
S916 S 0.63511 0.7923 0.39037 0.0
N917 N 0.63763 0.81999 0.41908 0.0
N918 N 0.63846 0.81411 0.35752 0.0
C919 C 0.64192 0.84572 0.36908 0.0
C920 C 0.6411 0.8489 0.40244 0.0
C921 C 0.62465 0.40261 0.40173 0.0
C922 C 0.62494 0.37097 0.41605 0.0
C923 C 0.62461 0.4058 0.36895 0.0
C924 C 0.62586 0.3775 0.34926 0.0
H925 H 0.62285 0.42508 0.4159 0.0
H926 H 0.62326 0.43071 0.35898 0.0
S927 S 0.63078 0.289 0.37522 0.0
N928 N 0.62897 0.31075 0.40814 0.0
N929 N 0.6297 0.31681 0.34658 0.0
C930 C 0.62805 0.34574 0.36331 0.0
C931 C 0.62731 0.34246 0.39668 0.0
C932 C 0.37387 0.60116 0.15383 0.0
C933 C 0.37536 0.63335 0.167 0.0
C934 C 0.37287 0.59663 0.12116 0.0
C935 C 0.37438 0.62409 0.10045 0.0
H936 H 0.37171 0.57932 0.16883 0.0
H937 H 0.37054 0.57136 0.11209 0.0
S938 S 0.38227 0.71352 0.12319 0.0
N939 N 0.38075 0.69314 0.15688 0.0
N940 N 0.37977 0.68458 0.09558 0.0
C941 C 0.37783 0.65637 0.11335 0.0
C942 C 0.37802 0.66101 0.14659 0.0
C943 C 0.39727 0.15405 0.15255 0.0
C944 C 0.3962 0.12209 0.16623 0.0
C945 C 0.39763 0.15797 0.11982 0.0
C946 C 0.39579 0.13011 0.0996 0.0
H947 H 0.39964 0.17615 0.16719 0.0
H948 H 0.39973 0.18305 0.1103 0.0
S949 S 0.38885 0.04111 0.12383 0.0
N950 N 0.39093 0.06212 0.15717 0.0
N951 N 0.3906 0.06953 0.09574 0.0
C952 C 0.39272 0.09807 0.11303 0.0
C953 C 0.39325 0.09406 0.14632 0.0
C954 C 0.37241 0.15856 0.64654 0.0
C955 C 0.37405 0.13055 0.66659 0.0
C956 C 0.37306 0.15489 0.61378 0.0
C957 C 0.37431 0.12304 0.59988 0.0
H958 H 0.37033 0.18358 0.6562 0.0
H959 H 0.37092 0.17711 0.59929 0.0
S960 S 0.3812 0.04173 0.6418 0.0
N961 N 0.3791 0.06995 0.67006 0.0
N962 N 0.37949 0.06299 0.6086 0.0
C963 C 0.377 0.09485 0.61963 0.0
C964 C 0.37714 0.09861 0.65296 0.0
C965 C 0.40131 0.60021 0.64697 0.0
C966 C 0.40163 0.6279 0.66743 0.0
C967 C 0.40086 0.60439 0.61429 0.0
C968 C 0.40174 0.63643 0.60079 0.0
H969 H 0.40172 0.57499 0.65626 0.0
H970 H 0.40142 0.58233 0.59954 0.0
S971 S 0.40038 0.71719 0.64387 0.0
N972 N 0.40062 0.68851 0.67175 0.0
N973 N 0.40063 0.69644 0.61035 0.0
C974 C 0.401 0.66437 0.62094 0.0
C975 C 0.40064 0.6601 0.65424 0.0
C976 C 0.37929 0.34335 0.25924 0.0
C977 C 0.33534 0.36507 0.2589 0.0
C978 C 0.4314 0.35564 0.25884 0.0
C979 C 0.44203 0.39022 0.2581 0.0
H980 H 0.37357 0.31651 0.25985 0.0
H981 H 0.46361 0.3377 0.25919 0.0
S982 S 0.34114 0.45796 0.2567 0.0
N983 N 0.30607 0.42312 0.2576 0.0
N984 N 0.40388 0.44611 0.25686 0.0
C985 C 0.39849 0.4123 0.25768 0.0
C986 C 0.34529 0.39978 0.25808 0.0
C987 C 0.87721 0.84583 0.25958 0.0
C988 C 0.8336 0.86777 0.25819 0.0
C989 C 0.92952 0.85786 0.25948 0.0
C990 C 0.94064 0.89237 0.258 0.0
H991 H 0.87104 0.81906 0.26082 0.0
H992 H 0.9615 0.83979 0.26067 0.0
S993 S 0.8408 0.96056 0.25352 0.0
N994 N 0.80525 0.92595 0.25495 0.0
N995 N 0.90333 0.94838 0.25478 0.0
C996 C 0.89744 0.91463 0.25647 0.0
C997 C 0.8441 0.9024 0.25656 0.0
C998 C 0.37518 0.90798 0.00839 0.0
C999 C 0.33169 0.88592 0.00916 0.0
C1000 C 0.42756 0.89605 0.00812 0.0
C1001 C 0.43882 0.86152 0.00859 0.0
H1002 H 0.36888 0.93477 0.00792 0.0
H1003 H 0.45947 0.91419 1.00747 0.0
S1004 S 0.33928 0.79303 0.01102 0.0
N1005 N 0.3036 0.82761 0.01064 0.0
N1006 N 0.40176 0.80537 0.01013 0.0
C1007 C 0.39572 0.83914 0.00947 0.0
C1008 C 0.34234 0.85127 0.00976 0.0
C1009 C 0.90003 0.34665 1.0075 0.0
C1010 C 0.94355 0.36868 0.0084 0.0
C1011 C 0.84767 0.35858 1.00754 0.0
C1012 C 0.83642 0.39309 0.00846 0.0
H1013 H 0.90628 0.31987 1.00674 0.0
H1014 H 0.81578 0.34044 1.0068 0.0
S1015 S 0.93603 0.46154 0.01109 0.0
N1016 N 0.97171 0.42696 0.01029 0.0
N1017 N 0.87353 0.44924 0.01035 0.0
C1018 C 0.87954 0.41547 0.00939 0.0
C1019 C 0.93294 0.40332 0.00937 0.0
C1020 C 0.64838 0.65819 0.7585 0.0
C1021 C 0.69232 0.63647 0.75838 0.0
C1022 C 0.59628 0.6459 0.75852 0.0
C1023 C 0.58566 0.6113 0.75839 0.0
H1024 H 0.65409 0.68503 0.75853 0.0
H1025 H 0.56408 0.66384 0.75853 0.0
S1026 S 0.68652 0.54355 0.75837 0.0
N1027 N 0.7216 0.57839 0.75836 0.0
N1028 N 0.62378 0.5554 0.75838 0.0
C1029 C 0.62918 0.58922 0.75837 0.0
C1030 C 0.68238 0.60175 0.75837 0.0
C1031 C 0.09416 0.14837 0.7591 0.0
C1032 C 0.08379 0.11373 0.75915 0.0
C1033 C 0.14629 0.16081 0.75883 0.0
C1034 C 0.19036 0.13918 0.75861 0.0
H1035 H 0.06176 0.16617 0.75922 0.0
H1036 H 0.15195 0.18766 0.75877 0.0
S1037 S 0.18512 0.0462 0.7587 0.0
N1038 N 0.12235 0.05794 0.75902 0.0
N1039 N 0.2199 0.08114 0.7585 0.0
C1040 C 0.18057 0.10443 0.7587 0.0
C1041 C 0.1275 0.09178 0.75897 0.0
C1042 C 0.62542 0.15739 0.0094 0.0
C1043 C 0.58094 0.1361 0.00845 0.0
C1044 C 0.67729 0.1446 0.00946 0.0
C1045 C 0.68709 0.10992 0.00859 0.0
H1046 H 0.62029 0.18427 0.01015 0.0
H1047 H 0.70996 0.16219 0.01025 0.0
S1048 S 0.58457 0.04318 1.00569 0.0
N1049 N 0.55036 0.07835 1.00645 0.0
N1050 N 0.64756 0.05443 1.00658 0.0
C1051 C 0.643 0.08829 1.00757 0.0
C1052 C 0.59011 0.10132 1.0075 0.0
C1053 C 0.17854 0.6458 0.00979 0.0
C1054 C 0.1885 0.61114 0.00892 0.0
C1055 C 0.12662 0.65848 0.00952 0.0
C1056 C 0.08229 0.63709 0.00833 0.0
H1057 H 0.21111 0.66344 0.01083 0.0
H1058 H 0.12134 0.68535 0.01034 0.0
S1059 S 0.08641 0.54419 1.00503 0.0
N1060 N 0.14932 0.55557 1.00637 0.0
N1061 N 0.05201 0.57928 1.00583 0.0
C1062 C 0.09163 0.60232 1.00727 0.0
C1063 C 0.14456 0.58941 1.00757 0.0
C1064 C 0.39778 0.90884 0.75874 0.0
C1065 C 0.44167 0.88712 0.75741 0.0
C1066 C 0.34561 0.89655 0.75859 0.0
C1067 C 0.33493 0.86199 0.75709 0.0
H1068 H 0.40362 0.93564 0.76001 0.0
H1069 H 0.31341 0.91445 0.75976 0.0
S1070 S 0.43565 0.7943 0.75267 0.0
N1071 N 0.47075 0.82909 0.75415 0.0
N1072 N 0.37296 0.80617 0.75388 0.0
C1073 C 0.37842 0.83994 0.75558 0.0
C1074 C 0.43161 0.85244 0.75574 0.0
C1075 C 0.8446 0.39819 0.75855 0.0
C1076 C 0.8342 0.36358 0.7578 0.0
C1077 C 0.89669 0.41058 0.75883 0.0
C1078 C 0.94074 0.38894 0.75838 0.0
H1079 H 0.81225 0.41602 0.75899 0.0
H1080 H 0.90231 0.43743 0.75946 0.0
S1081 S 0.93547 0.29604 0.75599 0.0
N1082 N 0.87268 0.30777 0.75636 0.0
N1083 N 0.97032 0.33095 0.75688 0.0
C1084 C 0.93097 0.35422 0.75754 0.0
C1085 C 0.87787 0.3416 0.75724 0.0
C1086 C 0.34387 0.35558 0.50869 0.0
C1087 C 0.33266 0.39012 0.50898 0.0
C1088 C 0.39624 0.34363 0.50859 0.0
C1089 C 0.43979 0.36566 0.50878 0.0
H1090 H 0.31194 0.33745 0.50848 0.0
H1091 H 0.40248 0.31683 0.50832 0.0
S1092 S 0.43236 0.45856 0.50985 0.0
N1093 N 0.36985 0.44626 0.50965 0.0
N1094 N 0.468 0.42395 0.50947 0.0
C1095 C 0.4292 0.40031 0.50915 0.0
C1096 C 0.37582 0.41248 0.50925 0.0
C1097 C 0.92605 0.89621 0.50816 0.0
C1098 C 0.93713 0.86168 0.50877 0.0
C1099 C 0.87379 0.90824 0.50797 0.0
C1100 C 0.83012 0.88631 0.5084 0.0
H1101 H 0.95801 0.91432 0.50777 0.0
H1102 H 0.86775 0.93505 0.50746 0.0
S1103 S 0.83709 0.79344 0.5103 0.0
N1104 N 0.8997 0.8056 0.50996 0.0
N1105 N 0.80158 0.82811 0.50961 0.0
C1106 C 0.8405 0.85165 0.50907 0.0
C1107 C 0.89387 0.83938 0.50925 0.0
C1108 C 0.62758 0.09553 0.25673 0.0
C1109 C 0.5836 0.11721 0.25708 0.0
C1110 C 0.67964 0.10785 0.25681 0.0
C1111 C 0.6902 0.14245 0.2572 0.0
H1112 H 0.62194 0.06868 0.2564 0.0
H1113 H 0.71187 0.08993 0.2565 0.0
S1114 S 0.58922 0.21012 0.25838 0.0
N1115 N 0.5542 0.17525 0.25794 0.0
N1116 N 0.652 0.19832 0.25807 0.0
C1117 C 0.64664 0.16451 0.25756 0.0
C1118 C 0.59347 0.15193 0.25752 0.0
C1119 C 0.12751 0.5961 0.2574 0.0
C1120 C 0.0829 0.61729 0.25703 0.0
C1121 C 0.17926 0.60904 0.2576 0.0
C1122 C 0.18877 0.64376 0.25738 0.0
H1123 H 0.12259 0.5692 0.25758 0.0
H1124 H 0.21205 0.59154 0.25788 0.0
S1125 S 0.08577 0.71026 0.25626 0.0
N1126 N 0.05183 0.67498 0.25637 0.0
N1127 N 0.14886 0.69918 0.25674 0.0
C1128 C 0.14454 0.6653 0.25699 0.0
C1129 C 0.09177 0.65212 0.25682 0.0
C1130 C 0.64727 0.59652 0.50931 0.0
C1131 C 0.69204 0.61754 0.50826 0.0
C1132 C 0.59562 0.60961 0.50913 0.0
C1133 C 0.58636 0.64434 0.50795 0.0
H1134 H 0.65198 0.56962 0.51033 0.0
H1135 H 0.56271 0.59222 0.51007 0.0
S1136 S 0.68983 0.71046 0.50454 0.0
N1137 N 0.72352 0.6751 0.50573 0.0
N1138 N 0.62667 0.69958 0.50542 0.0
C1139 C 0.63074 0.66571 0.50676 0.0
C1140 C 0.68342 0.65238 0.50692 0.0
C1141 C 0.094 0.10676 0.50978 0.0
C1142 C 0.0835 0.14128 0.50735 0.0
C1143 C 0.14613 0.09436 0.50965 0.0
C1144 C 0.19006 0.11593 0.50708 0.0
H1145 H 0.06171 0.08905 0.51201 0.0
H1146 H 0.15191 0.06762 0.5118 0.0
S1147 S 0.18436 0.20849 0.49899 0.0
N1148 N 0.1217 0.19683 0.50154 0.0
N1149 N 0.21931 0.1737 0.50127 0.0
C1150 C 0.18013 0.15053 0.5043 0.0
C1151 C 0.12704 0.16314 0.50445 0.0
loop_
_geom_bond_atom_site_label_1
_geom_bond_atom_site_label_2
_geom_bond_distance
_geom_bond_site_symmetry_2
_ccdc_geom_bond_type
C0 O2 1.247 . S
C0 O4 1.258 . S
C1 O8 1.247 . S
C1 O9 1.258 . S
O2 C0 1.247 . S
O2 Zn3 2.028 . S
Zn3 O2 2.028 . S
Zn3 O7 2.035 . S
Zn3 O9 2.035 . S
Zn3 O10 2.028 . S
O4 C0 1.258 . S
O4 Zn5 2.035 . S
Zn5 O4 2.035 . S
Zn5 O6 2.028 . S
Zn5 O8 2.028 . S
Zn5 O11 2.035 . S
O6 Zn5 2.028 . S
O6 C12 1.247 . S
O7 Zn3 2.035 . S
O7 C12 1.258 . S
O8 C1 1.247 . S
O8 Zn5 2.028 . S
O9 C1 1.258 . S
O9 Zn3 2.035 . S
O10 Zn3 2.028 . S
O10 C13 1.247 . S
O11 Zn5 2.035 . S
O11 C13 1.258 . S
C12 O6 1.247 . S
C12 O7 1.258 . S
C13 O10 1.247 . S
C13 O11 1.258 . S
C14 O16 1.247 . S
C14 O18 1.258 . S
C15 O22 1.247 . S
C15 O23 1.258 . S
O16 C14 1.247 . S
O16 Zn17 2.028 . S
Zn17 O16 2.028 . S
Zn17 O21 2.035 . S
Zn17 O23 2.035 . S
Zn17 O24 2.028 1_455 S
O18 C14 1.258 . S
O18 Zn19 2.035 . S
Zn19 O18 2.035 . S
Zn19 O20 2.028 . S
Zn19 O22 2.028 . S
Zn19 O25 2.035 . S
O20 Zn19 2.028 . S
O20 C26 1.247 . S
O21 Zn17 2.035 . S
O21 C26 1.258 . S
O22 C15 1.247 . S
O22 Zn19 2.028 . S
O23 C15 1.258 . S
O23 Zn17 2.035 . S
O24 Zn17 2.028 1_655 S
O24 C27 1.247 . S
O25 Zn19 2.035 . S
O25 C27 1.258 1_455 S
C26 O20 1.247 . S
C26 O21 1.258 . S
C27 O24 1.247 . S
C27 O25 1.258 1_655 S
C28 O30 1.247 . S
C28 O32 1.258 . S
C29 O36 1.247 . S
C29 O37 1.258 . S
O30 C28 1.247 . S
O30 Zn31 2.028 . S
Zn31 O30 2.028 . S
Zn31 O35 2.035 . S
Zn31 O37 2.035 1_556 S
Zn31 O38 2.025 1_556 S
O32 C28 1.258 . S
O32 Zn33 2.035 1_556 S
Zn33 O32 2.035 1_554 S
Zn33 O34 2.028 1_554 S
Zn33 O36 2.028 . S
Zn33 O39 2.035 . S
O34 Zn33 2.028 1_556 S
O34 C40 1.247 . S
O35 Zn31 2.035 . S
O35 C40 1.258 . S
O36 C29 1.247 . S
O36 Zn33 2.028 . S
O37 C29 1.258 . S
O37 Zn31 2.035 1_554 S
O38 Zn31 2.025 1_554 S
O38 C41 1.248 . S
O39 Zn33 2.035 . S
O39 C41 1.258 . S
C40 O34 1.247 . S
C40 O35 1.258 . S
C41 O38 1.248 . S
C41 O39 1.258 . S
C42 O44 1.247 . S
C42 O46 1.258 . S
C43 O50 1.248 . S
C43 O51 1.258 1_655 S
O44 C42 1.247 . S
O44 Zn45 2.028 1_556 S
Zn45 O44 2.028 1_554 S
Zn45 O49 2.035 1_554 S
Zn45 O51 2.035 . S
Zn45 O52 2.028 . S
O46 C42 1.258 . S
O46 Zn47 2.035 . S
Zn47 O46 2.035 . S
Zn47 O48 2.028 . S
Zn47 O50 2.025 1_456 S
Zn47 O53 2.035 1_556 S
O48 Zn47 2.028 . S
O48 C54 1.247 . S
O49 Zn45 2.035 1_556 S
O49 C54 1.258 . S
O50 C43 1.248 . S
O50 Zn47 2.025 1_654 S
O51 C43 1.258 1_455 S
O51 Zn45 2.035 . S
O52 Zn45 2.028 . S
O52 C55 1.247 . S
O53 Zn47 2.035 1_554 S
O53 C55 1.258 . S
C54 O48 1.247 . S
C54 O49 1.258 . S
C55 O52 1.247 . S
C55 O53 1.258 . S
C56 O58 1.247 . S
C56 O60 1.258 . S
C57 O64 1.247 . S
C57 O65 1.258 . S
O58 C56 1.247 . S
O58 Zn59 2.028 . S
Zn59 O58 2.028 . S
Zn59 O63 2.035 . S
Zn59 O65 2.035 . S
Zn59 O66 2.028 . S
O60 C56 1.258 . S
O60 Zn61 2.035 . S
Zn61 O60 2.035 . S
Zn61 O62 2.028 . S
Zn61 O64 2.028 . S
Zn61 O67 2.035 . S
O62 Zn61 2.028 . S
O62 C68 1.247 . S
O63 Zn59 2.035 . S
O63 C68 1.258 . S
O64 C57 1.247 . S
O64 Zn61 2.028 . S
O65 C57 1.258 . S
O65 Zn59 2.035 . S
O66 Zn59 2.028 . S
O66 C69 1.247 . S
O67 Zn61 2.035 . S
O67 C69 1.258 . S
C68 O62 1.247 . S
C68 O63 1.258 . S
C69 O66 1.247 . S
C69 O67 1.258 . S
C70 O72 1.247 . S
C70 O74 1.258 . S
C71 O78 1.247 1_455 S
C71 O79 1.258 . S
O72 C70 1.247 . S
O72 Zn73 2.028 . S
Zn73 O72 2.028 . S
Zn73 O77 2.035 . S
Zn73 O79 2.035 1_655 S
Zn73 O80 2.028 . S
O74 C70 1.258 . S
O74 Zn75 2.035 . S
Zn75 O74 2.035 . S
Zn75 O76 2.028 . S
Zn75 O78 2.028 . S
Zn75 O81 2.035 . S
O76 Zn75 2.028 . S
O76 C82 1.247 . S
O77 Zn73 2.035 . S
O77 C82 1.258 . S
O78 C71 1.247 1_655 S
O78 Zn75 2.028 . S
O79 C71 1.258 . S
O79 Zn73 2.035 1_455 S
O80 Zn73 2.028 . S
O80 C83 1.247 . S
O81 Zn75 2.035 . S
O81 C83 1.258 . S
C82 O76 1.247 . S
C82 O77 1.258 . S
C83 O80 1.247 . S
C83 O81 1.258 . S
C84 O86 1.247 . S
C84 O88 1.258 . S
C85 O92 1.247 . S
C85 O93 1.258 . S
O86 C84 1.247 . S
O86 Zn87 2.028 1_554 S
Zn87 O86 2.028 1_556 S
Zn87 O91 2.035 1_556 S
Zn87 O93 2.035 . S
Zn87 O94 2.028 . S
O88 C84 1.258 . S
O88 Zn89 2.035 . S
Zn89 O88 2.035 . S
Zn89 O90 2.028 . S
Zn89 O92 2.028 1_554 S
Zn89 O95 2.034 1_554 S
O90 Zn89 2.028 . S
O90 C96 1.247 . S
O91 Zn87 2.035 1_554 S
O91 C96 1.258 . S
O92 C85 1.247 . S
O92 Zn89 2.028 1_556 S
O93 C85 1.258 . S
O93 Zn87 2.035 . S
O94 Zn87 2.028 . S
O94 C97 1.247 . S
O95 Zn89 2.034 1_556 S
O95 C97 1.259 . S
C96 O90 1.247 . S
C96 O91 1.258 . S
C97 O94 1.247 . S
C97 O95 1.259 . S
C98 O100 1.247 . S
C98 O102 1.258 . S
C99 O106 1.247 . S
C99 O107 1.258 . S
O100 C98 1.247 . S
O100 Zn101 2.028 . S
Zn101 O100 2.028 . S
Zn101 O105 2.035 . S
Zn101 O107 2.035 1_556 S
Zn101 O108 2.028 1_556 S
O102 C98 1.258 . S
O102 Zn103 2.035 1_556 S
Zn103 O102 2.035 1_554 S
Zn103 O104 2.025 1_654 S
Zn103 O106 2.028 . S
Zn103 O109 2.035 . S
O104 Zn103 2.025 1_456 S
O104 C110 1.248 . S
O105 Zn101 2.035 . S
O105 C110 1.258 1_655 S
O106 C99 1.247 . S
O106 Zn103 2.028 . S
O107 C99 1.258 . S
O107 Zn101 2.035 1_554 S
O108 Zn101 2.028 1_554 S
O108 C111 1.247 . S
O109 Zn103 2.035 . S
O109 C111 1.258 . S
C110 O104 1.248 . S
C110 O105 1.258 1_455 S
C111 O108 1.247 . S
C111 O109 1.258 . S
C112 O114 1.247 . S
C112 O116 1.258 . S
C113 O120 1.247 . S
C113 O121 1.258 . S
O114 C112 1.247 . S
O114 Zn115 2.028 . S
Zn115 O114 2.028 . S
Zn115 O119 2.035 . S
Zn115 O121 2.035 . S
Zn115 O122 2.028 . S
O116 C112 1.258 . S
O116 Zn117 2.035 . S
Zn117 O116 2.035 . S
Zn117 O118 2.028 . S
Zn117 O120 2.028 . S
Zn117 O123 2.035 . S
O118 Zn117 2.028 . S
O118 C124 1.247 . S
O119 Zn115 2.035 . S
O119 C124 1.258 . S
O120 C113 1.247 . S
O120 Zn117 2.028 . S
O121 C113 1.258 . S
O121 Zn115 2.035 . S
O122 Zn115 2.028 . S
O122 C125 1.247 . S
O123 Zn117 2.035 . S
O123 C125 1.258 . S
C124 O118 1.247 . S
C124 O119 1.258 . S
C125 O122 1.247 . S
C125 O123 1.258 . S
C126 O128 1.247 . S
C126 O130 1.258 . S
C127 O134 1.247 . S
C127 O135 1.258 . S
O128 C126 1.247 . S
O128 Zn129 2.028 . S
Zn129 O128 2.028 . S
Zn129 O133 2.035 1_455 S
Zn129 O135 2.035 . S
Zn129 O136 2.028 . S
O130 C126 1.258 . S
O130 Zn131 2.035 . S
Zn131 O130 2.035 . S
Zn131 O132 2.028 . S
Zn131 O134 2.028 . S
Zn131 O137 2.035 . S
O132 Zn131 2.028 . S
O132 C138 1.247 1_455 S
O133 Zn129 2.035 1_655 S
O133 C138 1.258 . S
O134 C127 1.247 . S
O134 Zn131 2.028 . S
O135 C127 1.258 . S
O135 Zn129 2.035 . S
O136 Zn129 2.028 . S
O136 C139 1.247 . S
O137 Zn131 2.035 . S
O137 C139 1.258 . S
C138 O132 1.247 1_655 S
C138 O133 1.258 . S
C139 O136 1.247 . S
C139 O137 1.258 . S
C140 O142 1.247 . S
C140 O144 1.258 . S
C141 O148 1.247 . S
C141 O149 1.258 . S
O142 C140 1.247 . S
O142 Zn143 2.028 . S
Zn143 O142 2.028 . S
Zn143 O147 2.035 . S
Zn143 O149 2.035 . S
Zn143 O150 2.028 . S
O144 C140 1.258 . S
O144 Zn145 2.035 . S
Zn145 O144 2.035 . S
Zn145 O146 2.028 . S
Zn145 O148 2.028 . S
Zn145 O151 2.035 . S
O146 Zn145 2.028 . S
O146 C152 1.247 . S
O147 Zn143 2.035 . S
O147 C152 1.258 . S
O148 C141 1.247 . S
O148 Zn145 2.028 . S
O149 C141 1.258 . S
O149 Zn143 2.035 . S
O150 Zn143 2.028 . S
O150 C153 1.247 . S
O151 Zn145 2.035 . S
O151 C153 1.258 . S
C152 O146 1.247 . S
C152 O147 1.258 . S
C153 O150 1.247 . S
C153 O151 1.258 . S
C154 O156 1.247 . S
C154 O158 1.258 . S
C155 O162 1.247 . S
C155 O163 1.258 . S
O156 C154 1.247 . S
O156 Zn157 2.028 . S
Zn157 O156 2.028 . S
Zn157 O161 2.035 . S
Zn157 O163 2.035 . S
Zn157 O164 2.028 1_455 S
O158 C154 1.258 . S
O158 Zn159 2.035 . S
Zn159 O158 2.035 . S
Zn159 O160 2.028 . S
Zn159 O162 2.028 . S
Zn159 O165 2.035 . S
O160 Zn159 2.028 . S
O160 C166 1.247 . S
O161 Zn157 2.035 . S
O161 C166 1.258 . S
O162 C155 1.247 . S
O162 Zn159 2.028 . S
O163 C155 1.258 . S
O163 Zn157 2.035 . S
O164 Zn157 2.028 1_655 S
O164 C167 1.247 . S
O165 Zn159 2.035 . S
O165 C167 1.258 1_455 S
C166 O160 1.247 . S
C166 O161 1.258 . S
C167 O164 1.247 . S
C167 O165 1.258 1_655 S
C168 O170 1.247 . S
C168 O172 1.258 . S
C169 O176 1.247 . S
C169 O177 1.258 . S
O170 C168 1.247 . S
O170 Zn171 2.028 . S
Zn171 O170 2.028 . S
Zn171 O175 2.035 . S
Zn171 O177 2.035 . S
Zn171 O178 2.028 . S
O172 C168 1.258 . S
O172 Zn173 2.035 . S
Zn173 O172 2.035 . S
Zn173 O174 2.028 . S
Zn173 O176 2.028 . S
Zn173 O179 2.035 . S
O174 Zn173 2.028 . S
O174 C180 1.247 . S
O175 Zn171 2.035 . S
O175 C180 1.258 . S
O176 C169 1.247 . S
O176 Zn173 2.028 . S
O177 C169 1.258 . S
O177 Zn171 2.035 . S
O178 Zn171 2.028 . S
O178 C181 1.247 . S
O179 Zn173 2.035 . S
O179 C181 1.258 . S
C180 O174 1.247 . S
C180 O175 1.258 . S
C181 O178 1.247 . S
C181 O179 1.258 . S
C182 O184 1.247 . S
C182 O186 1.258 . S
C183 O190 1.247 . S
C183 O191 1.258 . S
O184 C182 1.247 . S
O184 Zn185 2.028 . S
Zn185 O184 2.028 . S
Zn185 O189 2.035 . S
Zn185 O191 2.035 . S
Zn185 O192 2.028 . S
O186 C182 1.258 . S
O186 Zn187 2.035 . S
Zn187 O186 2.035 . S
Zn187 O188 2.028 . S
Zn187 O190 2.028 . S
Zn187 O193 2.035 1_655 S
O188 Zn187 2.028 . S
O188 C194 1.247 . S
O189 Zn185 2.035 . S
O189 C194 1.258 . S
O190 C183 1.247 . S
O190 Zn187 2.028 . S
O191 C183 1.258 . S
O191 Zn185 2.035 . S
O192 Zn185 2.028 . S
O192 C195 1.247 1_655 S
O193 Zn187 2.035 1_455 S
O193 C195 1.258 . S
C194 O188 1.247 . S
C194 O189 1.258 . S
C195 O192 1.247 1_455 S
C195 O193 1.258 . S
C196 O198 1.247 . S
C196 O200 1.258 . S
C197 O204 1.247 . S
C197 O205 1.258 . S
O198 C196 1.247 . S
O198 Zn199 2.028 . S
Zn199 O198 2.028 . S
Zn199 O203 2.035 . S
Zn199 O205 2.035 . S
Zn199 O206 2.028 . S
O200 C196 1.258 . S
O200 Zn201 2.035 . S
Zn201 O200 2.035 . S
Zn201 O202 2.028 . S
Zn201 O204 2.028 . S
Zn201 O207 2.035 . S
O202 Zn201 2.028 . S
O202 C208 1.247 . S
O203 Zn199 2.035 . S
O203 C208 1.258 . S
O204 C197 1.247 . S
O204 Zn201 2.028 . S
O205 C197 1.258 . S
O205 Zn199 2.035 . S
O206 Zn199 2.028 . S
O206 C209 1.247 . S
O207 Zn201 2.035 . S
O207 C209 1.258 . S
C208 O202 1.247 . S
C208 O203 1.258 . S
C209 O206 1.247 . S
C209 O207 1.258 . S
C210 O212 1.247 . S
C210 O214 1.258 1_455 S
C211 O218 1.247 . S
C211 O219 1.258 . S
O212 C210 1.247 . S
O212 Zn213 2.028 1_455 S
Zn213 O212 2.028 1_655 S
Zn213 O217 2.035 . S
Zn213 O219 2.035 . S
Zn213 O220 2.028 . S
O214 C210 1.258 1_655 S
O214 Zn215 2.035 . S
Zn215 O214 2.035 . S
Zn215 O216 2.028 . S
Zn215 O218 2.028 . S
Zn215 O221 2.035 . S
O216 Zn215 2.028 . S
O216 C222 1.247 . S
O217 Zn213 2.035 . S
O217 C222 1.258 . S
O218 C211 1.247 . S
O218 Zn215 2.028 . S
O219 C211 1.258 . S
O219 Zn213 2.035 . S
O220 Zn213 2.028 . S
O220 C223 1.247 . S
O221 Zn215 2.035 . S
O221 C223 1.258 . S
C222 O216 1.247 . S
C222 O217 1.258 . S
C223 O220 1.247 . S
C223 O221 1.258 . S
C224 O226 1.247 . S
C224 O228 1.258 . S
C225 O232 1.247 . S
C225 O233 1.258 . S
O226 C224 1.247 . S
O226 Zn227 2.028 . S
Zn227 O226 2.028 . S
Zn227 O231 2.035 . S
Zn227 O233 2.035 . S
Zn227 O234 2.028 . S
O228 C224 1.258 . S
O228 Zn229 2.035 . S
Zn229 O228 2.035 . S
Zn229 O230 2.028 . S
Zn229 O232 2.028 . S
Zn229 O235 2.035 . S
O230 Zn229 2.028 . S
O230 C236 1.247 . S
O231 Zn227 2.035 . S
O231 C236 1.258 . S
O232 C225 1.247 . S
O232 Zn229 2.028 . S
O233 C225 1.258 . S
O233 Zn227 2.035 . S
O234 Zn227 2.028 . S
O234 C237 1.247 . S
O235 Zn229 2.035 . S
O235 C237 1.258 . S
C236 O230 1.247 . S
C236 O231 1.258 . S
C237 O234 1.247 . S
C237 O235 1.258 . S
C238 O240 1.247 . S
C238 O242 1.258 . S
C239 O246 1.247 . S
C239 O247 1.258 . S
O240 C238 1.247 . S
O240 Zn241 2.028 . S
Zn241 O240 2.028 . S
Zn241 O245 2.035 . S
Zn241 O247 2.035 . S
Zn241 O248 2.028 . S
O242 C238 1.258 . S
O242 Zn243 2.035 . S
Zn243 O242 2.035 . S
Zn243 O244 2.028 . S
Zn243 O246 2.028 . S
Zn243 O249 2.035 . S
O244 Zn243 2.028 . S
O244 C250 1.247 . S
O245 Zn241 2.035 . S
O245 C250 1.258 . S
O246 C239 1.247 . S
O246 Zn243 2.028 . S
O247 C239 1.258 . S
O247 Zn241 2.035 . S
O248 Zn241 2.028 . S
O248 C251 1.247 . S
O249 Zn243 2.035 . S
O249 C251 1.258 . S
C250 O244 1.247 . S
C250 O245 1.258 . S
C251 O248 1.247 . S
C251 O249 1.258 . S
C252 O254 1.247 . S
C252 O256 1.258 . S
C253 O260 1.247 . S
C253 O261 1.258 . S
O254 C252 1.247 . S
O254 Zn255 2.028 . S
Zn255 O254 2.028 . S
Zn255 O259 2.035 . S
Zn255 O261 2.035 . S
Zn255 O262 2.028 . S
O256 C252 1.258 . S
O256 Zn257 2.035 . S
Zn257 O256 2.035 . S
Zn257 O258 2.028 . S
Zn257 O260 2.028 . S
Zn257 O263 2.035 . S
O258 Zn257 2.028 . S
O258 C264 1.247 . S
O259 Zn255 2.035 . S
O259 C264 1.258 . S
O260 C253 1.247 . S
O260 Zn257 2.028 . S
O261 C253 1.258 . S
O261 Zn255 2.035 . S
O262 Zn255 2.028 . S
O262 C265 1.247 . S
O263 Zn257 2.035 . S
O263 C265 1.258 . S
C264 O258 1.247 . S
C264 O259 1.258 . S
C265 O262 1.247 . S
C265 O263 1.258 . S
C266 O268 1.247 . S
C266 O270 1.258 . S
C267 O274 1.247 . S
C267 O275 1.258 . S
O268 C266 1.247 . S
O268 Zn269 2.028 . S
Zn269 O268 2.028 . S
Zn269 O273 2.035 . S
Zn269 O275 2.035 . S
Zn269 O276 2.028 . S
O270 C266 1.258 . S
O270 Zn271 2.035 . S
Zn271 O270 2.035 . S
Zn271 O272 2.028 . S
Zn271 O274 2.028 . S
Zn271 O277 2.035 . S
O272 Zn271 2.028 . S
O272 C278 1.247 . S
O273 Zn269 2.035 . S
O273 C278 1.258 . S
O274 C267 1.247 . S
O274 Zn271 2.028 . S
O275 C267 1.258 . S
O275 Zn269 2.035 . S
O276 Zn269 2.028 . S
O276 C279 1.247 . S
O277 Zn271 2.035 . S
O277 C279 1.258 . S
C278 O272 1.247 . S
C278 O273 1.258 . S
C279 O276 1.247 . S
C279 O277 1.258 . S
C280 O282 1.247 . S
C280 O284 1.258 . S
C281 O288 1.247 . S
C281 O289 1.258 . S
O282 C280 1.247 . S
O282 Zn283 2.028 . S
Zn283 O282 2.028 . S
Zn283 O287 2.035 . S
Zn283 O289 2.035 . S
Zn283 O290 2.028 . S
O284 C280 1.258 . S
O284 Zn285 2.035 . S
Zn285 O284 2.035 . S
Zn285 O286 2.028 . S
Zn285 O288 2.028 . S
Zn285 O291 2.035 . S
O286 Zn285 2.028 . S
O286 C292 1.247 . S
O287 Zn283 2.035 . S
O287 C292 1.258 . S
O288 C281 1.247 . S
O288 Zn285 2.028 . S
O289 C281 1.258 . S
O289 Zn283 2.035 . S
O290 Zn283 2.028 . S
O290 C293 1.247 . S
O291 Zn285 2.035 . S
O291 C293 1.258 . S
C292 O286 1.247 . S
C292 O287 1.258 . S
C293 O290 1.247 . S
C293 O291 1.258 . S
C294 O296 1.247 . S
C294 O298 1.258 . S
C295 O302 1.247 . S
C295 O303 1.258 . S
O296 C294 1.247 . S
O296 Zn297 2.028 . S
Zn297 O296 2.028 . S
Zn297 O301 2.035 . S
Zn297 O303 2.035 . S
Zn297 O304 2.028 . S
O298 C294 1.258 . S
O298 Zn299 2.035 . S
Zn299 O298 2.035 . S
Zn299 O300 2.028 . S
Zn299 O302 2.028 . S
Zn299 O305 2.035 . S
O300 Zn299 2.028 . S
O300 C306 1.247 . S
O301 Zn297 2.035 . S
O301 C306 1.258 . S
O302 C295 1.247 . S
O302 Zn299 2.028 . S
O303 C295 1.258 . S
O303 Zn297 2.035 . S
O304 Zn297 2.028 . S
O304 C307 1.247 . S
O305 Zn299 2.035 . S
O305 C307 1.258 . S
C306 O300 1.247 . S
C306 O301 1.258 . S
C307 O304 1.247 . S
C307 O305 1.258 . S
C308 O310 1.247 . S
C308 O312 1.258 . S
C309 O316 1.247 . S
C309 O317 1.258 . S
O310 C308 1.247 . S
O310 Zn311 2.028 . S
Zn311 O310 2.028 . S
Zn311 O315 2.035 . S
Zn311 O317 2.035 . S
Zn311 O318 2.028 . S
O312 C308 1.258 . S
O312 Zn313 2.035 . S
Zn313 O312 2.035 . S
Zn313 O314 2.028 . S
Zn313 O316 2.028 . S
Zn313 O319 2.035 . S
O314 Zn313 2.028 . S
O314 C320 1.247 . S
O315 Zn311 2.035 . S
O315 C320 1.258 . S
O316 C309 1.247 . S
O316 Zn313 2.028 . S
O317 C309 1.258 . S
O317 Zn311 2.035 . S
O318 Zn311 2.028 . S
O318 C321 1.247 . S
O319 Zn313 2.035 . S
O319 C321 1.258 . S
C320 O314 1.247 . S
C320 O315 1.258 . S
C321 O318 1.247 . S
C321 O319 1.258 . S
C322 O324 1.247 . S
C322 O326 1.258 . S
C323 O330 1.247 . S
C323 O331 1.258 . S
O324 C322 1.247 . S
O324 Zn325 2.028 . S
Zn325 O324 2.028 . S
Zn325 O329 2.035 . S
Zn325 O331 2.035 . S
Zn325 O332 2.028 . S
O326 C322 1.258 . S
O326 Zn327 2.035 . S
Zn327 O326 2.035 . S
Zn327 O328 2.028 . S
Zn327 O330 2.028 . S
Zn327 O333 2.035 . S
O328 Zn327 2.028 . S
O328 C334 1.247 . S
O329 Zn325 2.035 . S
O329 C334 1.258 . S
O330 C323 1.247 . S
O330 Zn327 2.028 . S
O331 C323 1.258 . S
O331 Zn325 2.035 . S
O332 Zn325 2.028 . S
O332 C335 1.247 . S
O333 Zn327 2.035 . S
O333 C335 1.258 . S
C334 O328 1.247 . S
C334 O329 1.258 . S
C335 O332 1.247 . S
C335 O333 1.258 . S
C336 O338 1.247 . S
C336 O340 1.258 . S
C337 O344 1.247 . S
C337 O345 1.258 . S
O338 C336 1.247 . S
O338 Zn339 2.028 . S
Zn339 O338 2.028 . S
Zn339 O343 2.035 . S
Zn339 O345 2.035 . S
Zn339 O346 2.028 . S
O340 C336 1.258 . S
O340 Zn341 2.035 . S
Zn341 O340 2.035 . S
Zn341 O342 2.028 . S
Zn341 O344 2.028 . S
Zn341 O347 2.035 . S
O342 Zn341 2.028 . S
O342 C348 1.247 . S
O343 Zn339 2.035 . S
O343 C348 1.258 . S
O344 C337 1.247 . S
O344 Zn341 2.028 . S
O345 C337 1.258 . S
O345 Zn339 2.035 . S
O346 Zn339 2.028 . S
O346 C349 1.247 . S
O347 Zn341 2.035 . S
O347 C349 1.258 . S
C348 O342 1.247 . S
C348 O343 1.258 . S
C349 O346 1.247 . S
C349 O347 1.258 . S
C350 O352 1.247 . S
C350 O354 1.258 . S
C351 O358 1.247 . S
C351 O359 1.258 . S
O352 C350 1.247 . S
O352 Zn353 2.028 . S
Zn353 O352 2.028 . S
Zn353 O357 2.035 . S
Zn353 O359 2.035 . S
Zn353 O360 2.028 . S
O354 C350 1.258 . S
O354 Zn355 2.035 . S
Zn355 O354 2.035 . S
Zn355 O356 2.028 . S
Zn355 O358 2.028 . S
Zn355 O361 2.035 . S
O356 Zn355 2.028 . S
O356 C362 1.247 . S
O357 Zn353 2.035 . S
O357 C362 1.258 . S
O358 C351 1.247 . S
O358 Zn355 2.028 . S
O359 C351 1.258 . S
O359 Zn353 2.035 . S
O360 Zn353 2.028 . S
O360 C363 1.247 . S
O361 Zn355 2.035 . S
O361 C363 1.258 . S
C362 O356 1.247 . S
C362 O357 1.258 . S
C363 O360 1.247 . S
C363 O361 1.258 . S
C364 O366 1.247 . S
C364 O368 1.258 . S
C365 O372 1.247 . S
C365 O373 1.258 . S
O366 C364 1.247 . S
O366 Zn367 2.028 1_554 S
Zn367 O366 2.028 1_556 S
Zn367 O371 2.034 1_556 S
Zn367 O373 2.035 . S
Zn367 O374 2.028 . S
O368 C364 1.258 . S
O368 Zn369 2.035 . S
Zn369 O368 2.035 . S
Zn369 O370 2.028 . S
Zn369 O372 2.028 1_554 S
Zn369 O375 2.035 1_554 S
O370 Zn369 2.028 . S
O370 C376 1.247 . S
O371 Zn367 2.034 1_554 S
O371 C376 1.259 . S
O372 C365 1.247 . S
O372 Zn369 2.028 1_556 S
O373 C365 1.258 . S
O373 Zn367 2.035 . S
O374 Zn367 2.028 . S
O374 C377 1.247 . S
O375 Zn369 2.035 1_556 S
O375 C377 1.258 . S
C376 O370 1.247 . S
C376 O371 1.259 . S
C377 O374 1.247 . S
C377 O375 1.258 . S
C378 O380 1.247 . S
C378 O382 1.258 . S
C379 O386 1.247 . S
C379 O387 1.258 . S
O380 C378 1.247 . S
O380 Zn381 2.028 1_554 S
Zn381 O380 2.028 1_556 S
Zn381 O385 2.034 1_556 S
Zn381 O387 2.035 . S
Zn381 O388 2.028 . S
O382 C378 1.258 . S
O382 Zn383 2.035 . S
Zn383 O382 2.035 . S
Zn383 O384 2.028 . S
Zn383 O386 2.028 1_554 S
Zn383 O389 2.035 1_554 S
O384 Zn383 2.028 . S
O384 C390 1.247 . S
O385 Zn381 2.034 1_554 S
O385 C390 1.259 . S
O386 C379 1.247 . S
O386 Zn383 2.028 1_556 S
O387 C379 1.258 . S
O387 Zn381 2.035 . S
O388 Zn381 2.028 . S
O388 C391 1.247 . S
O389 Zn383 2.035 1_556 S
O389 C391 1.258 . S
C390 O384 1.247 . S
C390 O385 1.259 . S
C391 O388 1.247 . S
C391 O389 1.258 . S
C392 O394 1.247 . S
C392 O396 1.258 . S
C393 O400 1.247 . S
C393 O401 1.258 . S
O394 C392 1.247 . S
O394 Zn395 2.028 . S
Zn395 O394 2.028 . S
Zn395 O399 2.035 . S
Zn395 O401 2.035 . S
Zn395 O402 2.028 . S
O396 C392 1.258 . S
O396 Zn397 2.035 . S
Zn397 O396 2.035 . S
Zn397 O398 2.028 . S
Zn397 O400 2.028 . S
Zn397 O403 2.035 . S
O398 Zn397 2.028 . S
O398 C404 1.247 . S
O399 Zn395 2.035 . S
O399 C404 1.258 . S
O400 C393 1.247 . S
O400 Zn397 2.028 . S
O401 C393 1.258 . S
O401 Zn395 2.035 . S
O402 Zn395 2.028 . S
O402 C405 1.247 . S
O403 Zn397 2.035 . S
O403 C405 1.258 . S
C404 O398 1.247 . S
C404 O399 1.258 . S
C405 O402 1.247 . S
C405 O403 1.258 . S
C406 O408 1.247 . S
C406 O410 1.258 . S
C407 O414 1.247 . S
C407 O415 1.258 . S
O408 C406 1.247 . S
O408 Zn409 2.028 . S
Zn409 O408 2.028 . S
Zn409 O413 2.035 . S
Zn409 O415 2.035 . S
Zn409 O416 2.028 . S
O410 C406 1.258 . S
O410 Zn411 2.035 . S
Zn411 O410 2.035 . S
Zn411 O412 2.028 . S
Zn411 O414 2.028 . S
Zn411 O417 2.035 . S
O412 Zn411 2.028 . S
O412 C418 1.247 . S
O413 Zn409 2.035 . S
O413 C418 1.258 . S
O414 C407 1.247 . S
O414 Zn411 2.028 . S
O415 C407 1.258 . S
O415 Zn409 2.035 . S
O416 Zn409 2.028 . S
O416 C419 1.247 . S
O417 Zn411 2.035 . S
O417 C419 1.258 . S
C418 O412 1.247 . S
C418 O413 1.258 . S
C419 O416 1.247 . S
C419 O417 1.258 . S
C420 O422 1.247 . S
C420 O424 1.258 . S
C421 O428 1.247 . S
C421 O429 1.258 . S
O422 C420 1.247 . S
O422 Zn423 2.028 1_554 S
Zn423 O422 2.028 1_556 S
Zn423 O427 2.035 1_556 S
Zn423 O429 2.035 . S
Zn423 O430 2.028 . S
O424 C420 1.258 . S
O424 Zn425 2.035 . S
Zn425 O424 2.035 . S
Zn425 O426 2.028 . S
Zn425 O428 2.028 1_554 S
Zn425 O431 2.034 1_554 S
O426 Zn425 2.028 . S
O426 C432 1.247 . S
O427 Zn423 2.035 1_554 S
O427 C432 1.258 . S
O428 C421 1.247 . S
O428 Zn425 2.028 1_556 S
O429 C421 1.258 . S
O429 Zn423 2.035 . S
O430 Zn423 2.028 . S
O430 C433 1.247 . S
O431 Zn425 2.034 1_556 S
O431 C433 1.259 . S
C432 O426 1.247 . S
C432 O427 1.258 . S
C433 O430 1.247 . S
C433 O431 1.259 . S
C434 O436 1.247 . S
C434 O438 1.258 . S
C435 O442 1.247 . S
C435 O443 1.258 . S
O436 C434 1.247 . S
O436 Zn437 2.028 1_554 S
Zn437 O436 2.028 1_556 S
Zn437 O441 2.035 1_556 S
Zn437 O443 2.035 . S
Zn437 O444 2.028 . S
O438 C434 1.258 . S
O438 Zn439 2.035 . S
Zn439 O438 2.035 . S
Zn439 O440 2.028 . S
Zn439 O442 2.028 1_554 S
Zn439 O445 2.034 1_554 S
O440 Zn439 2.028 . S
O440 C446 1.247 . S
O441 Zn437 2.035 1_554 S
O441 C446 1.258 . S
O442 C435 1.247 . S
O442 Zn439 2.028 1_556 S
O443 C435 1.258 . S
O443 Zn437 2.035 . S
O444 Zn437 2.028 . S
O444 C447 1.247 . S
O445 Zn439 2.034 1_556 S
O445 C447 1.259 . S
C446 O440 1.247 . S
C446 O441 1.258 . S
C447 O444 1.247 . S
C447 O445 1.259 . S
C448 C449 1.369 . S
C448 C450 1.419 . S
C448 H452 0.930 . S
C449 C448 1.369 . S
C449 C458 1.429 . S
C450 C448 1.419 . S
C450 C451 1.363 . S
C450 H453 0.929 . S
C451 C450 1.363 . S
C451 C457 1.428 . S
H452 C448 0.930 . S
H453 C450 0.929 . S
S454 N455 1.613 . S
S454 N456 1.610 . S
N455 S454 1.613 . S
N455 C458 1.350 . S
N456 S454 1.610 . S
N456 C457 1.351 . S
C457 C451 1.428 . S
C457 N456 1.351 . S
C457 C458 1.434 . S
C458 C449 1.429 . S
C458 N455 1.350 . S
C458 C457 1.434 . S
C459 C460 1.369 . S
C459 C461 1.419 . S
C459 H463 0.930 . S
C460 C459 1.369 . S
C460 C469 1.429 . S
C461 C459 1.419 . S
C461 C462 1.363 . S
C461 H464 0.929 . S
C462 C461 1.363 . S
C462 C468 1.428 . S
H463 C459 0.930 . S
H464 C461 0.929 . S
S465 N466 1.613 . S
S465 N467 1.610 . S
N466 S465 1.613 . S
N466 C469 1.350 . S
N467 S465 1.610 . S
N467 C468 1.351 . S
C468 C462 1.428 . S
C468 N467 1.351 . S
C468 C469 1.434 . S
C469 C460 1.429 . S
C469 N466 1.350 . S
C469 C468 1.434 . S
C470 C471 1.369 . S
C470 C472 1.419 . S
C470 H474 0.930 . S
C471 C470 1.369 . S
C471 C480 1.429 . S
C472 C470 1.419 . S
C472 C473 1.363 . S
C472 H475 0.929 . S
C473 C472 1.363 . S
C473 C479 1.428 . S
H474 C470 0.930 . S
H475 C472 0.929 . S
S476 N477 1.613 . S
S476 N478 1.610 . S
N477 S476 1.613 . S
N477 C480 1.350 . S
N478 S476 1.610 . S
N478 C479 1.351 . S
C479 C473 1.428 . S
C479 N478 1.351 . S
C479 C480 1.434 . S
C480 C471 1.429 . S
C480 N477 1.350 . S
C480 C479 1.434 . S
C481 C482 1.369 . S
C481 C483 1.419 . S
C481 H485 0.930 . S
C482 C481 1.369 . S
C482 C491 1.429 . S
C483 C481 1.419 . S
C483 C484 1.363 . S
C483 H486 0.929 . S
C484 C483 1.363 . S
C484 C490 1.428 . S
H485 C481 0.930 . S
H486 C483 0.929 . S
S487 N488 1.613 . S
S487 N489 1.610 . S
N488 S487 1.613 . S
N488 C491 1.350 . S
N489 S487 1.610 . S
N489 C490 1.351 . S
C490 C484 1.428 . S
C490 N489 1.351 . S
C490 C491 1.434 . S
C491 C482 1.429 . S
C491 N488 1.350 . S
C491 C490 1.434 . S
C492 C493 1.369 . S
C492 C494 1.419 . S
C492 H496 0.930 . S
C493 C492 1.369 . S
C493 C502 1.429 . S
C494 C492 1.419 . S
C494 C495 1.363 . S
C494 H497 0.929 . S
C495 C494 1.363 . S
C495 C501 1.428 . S
H496 C492 0.930 . S
H497 C494 0.929 . S
S498 N499 1.613 . S
S498 N500 1.610 . S
N499 S498 1.613 . S
N499 C502 1.350 . S
N500 S498 1.610 . S
N500 C501 1.351 . S
C501 C495 1.428 . S
C501 N500 1.351 . S
C501 C502 1.434 . S
C502 C493 1.429 . S
C502 N499 1.350 . S
C502 C501 1.434 . S
C503 C504 1.369 . S
C503 C505 1.419 . S
C503 H507 0.930 . S
C504 C503 1.369 . S
C504 C513 1.429 . S
C505 C503 1.419 . S
C505 C506 1.363 . S
C505 H508 0.929 . S
C506 C505 1.363 . S
C506 C512 1.428 . S
H507 C503 0.930 . S
H508 C505 0.929 . S
S509 N510 1.613 . S
S509 N511 1.610 . S
N510 S509 1.613 . S
N510 C513 1.350 . S
N511 S509 1.610 . S
N511 C512 1.351 . S
C512 C506 1.428 . S
C512 N511 1.351 . S
C512 C513 1.434 . S
C513 C504 1.429 . S
C513 N510 1.350 . S
C513 C512 1.434 . S
C514 C515 1.369 . S
C514 C516 1.419 . S
C514 H518 0.930 . S
C515 C514 1.369 . S
C515 C524 1.429 . S
C516 C514 1.419 . S
C516 C517 1.363 . S
C516 H519 0.929 . S
C517 C516 1.363 . S
C517 C523 1.428 . S
H518 C514 0.930 . S
H519 C516 0.929 . S
S520 N521 1.613 . S
S520 N522 1.610 . S
N521 S520 1.613 . S
N521 C524 1.350 . S
N522 S520 1.610 . S
N522 C523 1.351 . S
C523 C517 1.428 . S
C523 N522 1.351 . S
C523 C524 1.434 . S
C524 C515 1.429 . S
C524 N521 1.350 . S
C524 C523 1.434 . S
C525 C526 1.369 . S
C525 C527 1.419 . S
C525 H529 0.930 . S
C526 C525 1.369 . S
C526 C535 1.429 . S
C527 C525 1.419 . S
C527 C528 1.363 . S
C527 H530 0.929 . S
C528 C527 1.363 . S
C528 C534 1.428 . S
H529 C525 0.930 . S
H530 C527 0.929 . S
S531 N532 1.613 . S
S531 N533 1.610 . S
N532 S531 1.613 . S
N532 C535 1.350 . S
N533 S531 1.610 . S
N533 C534 1.351 . S
C534 C528 1.428 . S
C534 N533 1.351 . S
C534 C535 1.434 . S
C535 C526 1.429 . S
C535 N532 1.350 . S
C535 C534 1.434 . S
C536 C537 1.369 . S
C536 C538 1.419 . S
C536 H540 0.930 . S
C537 C536 1.369 . S
C537 C546 1.429 . S
C538 C536 1.419 . S
C538 C539 1.363 . S
C538 H541 0.929 . S
C539 C538 1.363 . S
C539 C545 1.428 . S
H540 C536 0.930 . S
H541 C538 0.929 . S
S542 N543 1.613 . S
S542 N544 1.610 . S
N543 S542 1.613 . S
N543 C546 1.350 . S
N544 S542 1.610 . S
N544 C545 1.351 . S
C545 C539 1.428 . S
C545 N544 1.351 . S
C545 C546 1.434 . S
C546 C537 1.429 . S
C546 N543 1.350 . S
C546 C545 1.434 . S
C547 C548 1.369 . S
C547 C549 1.419 . S
C547 H551 0.930 . S
C548 C547 1.369 . S
C548 C557 1.429 . S
C549 C547 1.419 . S
C549 C550 1.363 . S
C549 H552 0.929 . S
C550 C549 1.363 . S
C550 C556 1.428 . S
H551 C547 0.930 . S
H552 C549 0.929 . S
S553 N554 1.613 . S
S553 N555 1.610 . S
N554 S553 1.613 . S
N554 C557 1.350 . S
N555 S553 1.610 . S
N555 C556 1.351 . S
C556 C550 1.428 . S
C556 N555 1.351 . S
C556 C557 1.434 . S
C557 C548 1.429 . S
C557 N554 1.350 . S
C557 C556 1.434 . S
C558 C559 1.369 . S
C558 C560 1.419 . S
C558 H562 0.930 . S
C559 C558 1.369 . S
C559 C568 1.429 . S
C560 C558 1.419 . S
C560 C561 1.363 . S
C560 H563 0.929 . S
C561 C560 1.363 . S
C561 C567 1.428 . S
H562 C558 0.930 . S
H563 C560 0.929 . S
S564 N565 1.613 . S
S564 N566 1.610 . S
N565 S564 1.613 . S
N565 C568 1.350 . S
N566 S564 1.610 . S
N566 C567 1.351 . S
C567 C561 1.428 . S
C567 N566 1.351 . S
C567 C568 1.434 . S
C568 C559 1.429 . S
C568 N565 1.350 . S
C568 C567 1.434 . S
C569 C570 1.369 . S
C569 C571 1.419 . S
C569 H573 0.930 . S
C570 C569 1.369 . S
C570 C579 1.429 . S
C571 C569 1.419 . S
C571 C572 1.363 . S
C571 H574 0.929 . S
C572 C571 1.363 . S
C572 C578 1.428 . S
H573 C569 0.930 . S
H574 C571 0.929 . S
S575 N576 1.613 . S
S575 N577 1.610 . S
N576 S575 1.613 . S
N576 C579 1.350 . S
N577 S575 1.610 . S
N577 C578 1.351 . S
C578 C572 1.428 . S
C578 N577 1.351 . S
C578 C579 1.434 . S
C579 C570 1.429 . S
C579 N576 1.350 . S
C579 C578 1.434 . S
C580 C581 1.369 . S
C580 C582 1.419 . S
C580 H584 0.930 . S
C581 C580 1.369 . S
C581 C590 1.429 . S
C582 C580 1.419 . S
C582 C583 1.363 . S
C582 H585 0.929 . S
C583 C582 1.363 . S
C583 C589 1.428 . S
H584 C580 0.930 . S
H585 C582 0.929 . S
S586 N587 1.613 . S
S586 N588 1.610 . S
N587 S586 1.613 . S
N587 C590 1.350 . S
N588 S586 1.610 . S
N588 C589 1.351 . S
C589 C583 1.428 . S
C589 N588 1.351 . S
C589 C590 1.434 . S
C590 C581 1.429 . S
C590 N587 1.350 . S
C590 C589 1.434 . S
C591 C592 1.369 . S
C591 C593 1.419 . S
C591 H595 0.930 . S
C592 C591 1.369 . S
C592 C601 1.429 . S
C593 C591 1.419 . S
C593 C594 1.363 . S
C593 H596 0.929 . S
C594 C593 1.363 . S
C594 C600 1.428 . S
H595 C591 0.930 . S
H596 C593 0.929 . S
S597 N598 1.613 . S
S597 N599 1.610 . S
N598 S597 1.613 . S
N598 C601 1.350 . S
N599 S597 1.610 . S
N599 C600 1.351 . S
C600 C594 1.428 . S
C600 N599 1.351 . S
C600 C601 1.434 . S
C601 C592 1.429 . S
C601 N598 1.350 . S
C601 C600 1.434 . S
C602 C603 1.369 . S
C602 C604 1.419 . S
C602 H606 0.930 . S
C603 C602 1.369 . S
C603 C612 1.429 . S
C604 C602 1.419 . S
C604 C605 1.363 . S
C604 H607 0.929 . S
C605 C604 1.363 . S
C605 C611 1.428 . S
H606 C602 0.930 . S
H607 C604 0.929 . S
S608 N609 1.613 . S
S608 N610 1.610 . S
N609 S608 1.613 . S
N609 C612 1.350 . S
N610 S608 1.610 . S
N610 C611 1.351 . S
C611 C605 1.428 . S
C611 N610 1.351 . S
C611 C612 1.434 . S
C612 C603 1.429 . S
C612 N609 1.350 . S
C612 C611 1.434 . S
C613 C614 1.369 . S
C613 C615 1.419 . S
C613 H617 0.930 . S
C614 C613 1.369 . S
C614 C623 1.429 . S
C615 C613 1.419 . S
C615 C616 1.363 . S
C615 H618 0.929 . S
C616 C615 1.363 . S
C616 C622 1.428 . S
H617 C613 0.930 . S
H618 C615 0.929 . S
S619 N620 1.613 . S
S619 N621 1.610 . S
N620 S619 1.613 . S
N620 C623 1.350 . S
N621 S619 1.610 . S
N621 C622 1.351 . S
C622 C616 1.428 . S
C622 N621 1.351 . S
C622 C623 1.434 . S
C623 C614 1.429 . S
C623 N620 1.350 . S
C623 C622 1.434 . S
C624 C625 1.369 . S
C624 C626 1.419 1_655 S
C624 H628 0.930 . S
C625 C624 1.369 . S
C625 C634 1.429 . S
C626 C624 1.419 1_455 S
C626 C627 1.363 . S
C626 H629 0.929 . S
C627 C626 1.363 . S
C627 C633 1.428 . S
H628 C624 0.930 . S
H629 C626 0.929 . S
S630 N631 1.613 1_455 S
S630 N632 1.610 . S
N631 S630 1.613 1_655 S
N631 C634 1.350 . S
N632 S630 1.610 . S
N632 C633 1.351 . S
C633 C627 1.428 . S
C633 N632 1.351 . S
C633 C634 1.434 1_455 S
C634 C625 1.429 . S
C634 N631 1.350 . S
C634 C633 1.434 1_655 S
C635 C636 1.369 . S
C635 C637 1.419 1_565 S
C635 H639 0.930 . S
C636 C635 1.369 . S
C636 C645 1.429 . S
C637 C635 1.419 1_545 S
C637 C638 1.363 . S
C637 H640 0.929 . S
C638 C637 1.363 . S
C638 C644 1.428 . S
H639 C635 0.930 . S
H640 C637 0.929 . S
S641 N642 1.613 . S
S641 N643 1.610 1_565 S
N642 S641 1.613 . S
N642 C645 1.350 . S
N643 S641 1.610 1_545 S
N643 C644 1.351 . S
C644 C638 1.428 . S
C644 N643 1.351 . S
C644 C645 1.434 1_545 S
C645 C636 1.429 . S
C645 N642 1.350 . S
C645 C644 1.434 1_565 S
C646 C647 1.373 . S
C646 C648 1.419 1_465 S
C646 H650 0.930 . S
C647 C646 1.373 . S
C647 C656 1.425 1_556 S
C648 C646 1.419 1_645 S
C648 C649 1.332 1_556 S
C648 H651 0.929 . S
C649 C648 1.332 1_554 S
C649 C655 1.459 . S
H650 C646 0.930 . S
H651 C648 0.929 . S
S652 N653 1.613 1_655 S
S652 N654 1.610 1_565 S
N653 S652 1.613 1_455 S
N653 C656 1.350 . S
N654 S652 1.610 1_545 S
N654 C655 1.351 . S
C655 C649 1.459 . S
C655 N654 1.351 . S
C655 C656 1.434 1_645 S
C656 C647 1.425 1_554 S
C656 N653 1.350 . S
C656 C655 1.434 1_465 S
C657 C658 1.369 1_556 S
C657 C659 1.419 . S
C657 H661 0.930 . S
C658 C657 1.369 1_554 S
C658 C667 1.429 . S
C659 C657 1.419 . S
C659 C660 1.369 . S
C659 H662 0.929 . S
C660 C659 1.369 . S
C660 C666 1.422 1_556 S
H661 C657 0.930 . S
H662 C659 0.929 . S
S663 N664 1.613 . S
S663 N665 1.610 . S
N664 S663 1.613 . S
N664 C667 1.350 . S
N665 S663 1.610 . S
N665 C666 1.351 . S
C666 C660 1.422 1_554 S
C666 N665 1.351 . S
C666 C667 1.434 . S
C667 C658 1.429 . S
C667 N664 1.350 . S
C667 C666 1.434 . S
C668 C669 1.369 1_455 S
C668 C670 1.419 . S
C668 H672 0.930 . S
C669 C668 1.369 1_655 S
C669 C678 1.429 . S
C670 C668 1.419 . S
C670 C671 1.363 . S
C670 H673 0.929 . S
C671 C670 1.363 . S
C671 C677 1.428 1_455 S
H672 C668 0.930 . S
H673 C670 0.929 . S
S674 N675 1.613 . S
S674 N676 1.610 . S
N675 S674 1.613 . S
N675 C678 1.350 . S
N676 S674 1.610 . S
N676 C677 1.351 . S
C677 C671 1.428 1_655 S
C677 N676 1.351 . S
C677 C678 1.434 . S
C678 C669 1.429 . S
C678 N675 1.350 . S
C678 C677 1.434 . S
C679 C680 1.369 . S
C679 C681 1.419 1_565 S
C679 H683 0.931 . S
C680 C679 1.369 . S
C680 C689 1.429 . S
C681 C679 1.419 1_545 S
C681 C682 1.363 . S
C681 H684 0.929 . S
C682 C681 1.363 . S
C682 C688 1.442 . S
H683 C679 0.931 . S
H684 C681 0.929 . S
S685 N686 1.613 . S
S685 N687 1.610 . S
N686 S685 1.613 . S
N686 C689 1.350 . S
N687 S685 1.610 . S
N687 C688 1.350 1_565 S
C688 C682 1.442 . S
C688 N687 1.350 1_545 S
C688 C689 1.420 1_545 S
C689 C680 1.429 . S
C689 N686 1.350 . S
C689 C688 1.420 1_565 S
C690 C691 1.373 . S
C690 C692 1.419 . S
C690 H694 0.930 . S
C691 C690 1.373 . S
C691 C700 1.425 1_556 S
C692 C690 1.419 . S
C692 C693 1.332 1_556 S
C692 H695 0.929 . S
C693 C692 1.332 1_554 S
C693 C699 1.459 . S
H694 C690 0.930 . S
H695 C692 0.929 . S
S696 N697 1.613 . S
S696 N698 1.610 . S
N697 S696 1.613 . S
N697 C700 1.350 . S
N698 S696 1.610 . S
N698 C699 1.351 . S
C699 C693 1.459 . S
C699 N698 1.351 . S
C699 C700 1.434 . S
C700 C691 1.425 1_554 S
C700 N697 1.350 . S
C700 C699 1.434 . S
C701 C702 1.369 . S
C701 C703 1.419 . S
C701 H705 0.930 . S
C702 C701 1.369 . S
C702 C711 1.429 . S
C703 C701 1.419 . S
C703 C704 1.363 . S
C703 H706 0.929 . S
C704 C703 1.363 . S
C704 C710 1.428 . S
H705 C701 0.930 . S
H706 C703 0.929 . S
S707 N708 1.613 . S
S707 N709 1.610 . S
N708 S707 1.613 . S
N708 C711 1.350 . S
N709 S707 1.610 . S
N709 C710 1.351 . S
C710 C704 1.428 . S
C710 N709 1.351 . S
C710 C711 1.434 . S
C711 C702 1.429 . S
C711 N708 1.350 . S
C711 C710 1.434 . S
C712 C713 1.369 . S
C712 C714 1.419 1_655 S
C712 H716 0.930 . S
C713 C712 1.369 . S
C713 C722 1.429 . S
C714 C712 1.419 1_455 S
C714 C715 1.363 . S
C714 H717 0.929 . S
C715 C714 1.363 . S
C715 C721 1.428 . S
H716 C712 0.930 . S
H717 C714 0.929 . S
S718 N719 1.613 . S
S718 N720 1.610 1_655 S
N719 S718 1.613 . S
N719 C722 1.350 . S
N720 S718 1.610 1_455 S
N720 C721 1.351 . S
C721 C715 1.428 . S
C721 N720 1.351 . S
C721 C722 1.434 1_455 S
C722 C713 1.429 . S
C722 N719 1.350 . S
C722 C721 1.434 1_655 S
C723 C724 1.369 . S
C723 C725 1.419 . S
C723 H727 0.930 . S
C724 C723 1.369 . S
C724 C733 1.429 . S
C725 C723 1.419 . S
C725 C726 1.363 . S
C725 H728 0.929 . S
C726 C725 1.363 . S
C726 C732 1.428 . S
H727 C723 0.930 . S
H728 C725 0.929 . S
S729 N730 1.613 . S
S729 N731 1.610 . S
N730 S729 1.613 . S
N730 C733 1.350 . S
N731 S729 1.610 . S
N731 C732 1.351 . S
C732 C726 1.428 . S
C732 N731 1.351 . S
C732 C733 1.434 . S
C733 C724 1.429 . S
C733 N730 1.350 . S
C733 C732 1.434 . S
C734 C735 1.369 . S
C734 C736 1.419 . S
C734 H738 0.930 . S
C735 C734 1.369 . S
C735 C744 1.429 . S
C736 C734 1.419 . S
C736 C737 1.363 . S
C736 H739 0.929 . S
C737 C736 1.363 . S
C737 C743 1.428 . S
H738 C734 0.930 . S
H739 C736 0.929 . S
S740 N741 1.613 . S
S740 N742 1.610 . S
N741 S740 1.613 . S
N741 C744 1.350 . S
N742 S740 1.610 . S
N742 C743 1.351 . S
C743 C737 1.428 . S
C743 N742 1.351 . S
C743 C744 1.434 . S
C744 C735 1.429 . S
C744 N741 1.350 . S
C744 C743 1.434 . S
C745 C746 1.369 . S
C745 C747 1.419 . S
C745 H749 0.930 . S
C746 C745 1.369 . S
C746 C755 1.429 . S
C747 C745 1.419 . S
C747 C748 1.363 . S
C747 H750 0.929 . S
C748 C747 1.363 . S
C748 C754 1.428 . S
H749 C745 0.930 . S
H750 C747 0.929 . S
S751 N752 1.613 . S
S751 N753 1.610 . S
N752 S751 1.613 . S
N752 C755 1.350 . S
N753 S751 1.610 . S
N753 C754 1.351 . S
C754 C748 1.428 . S
C754 N753 1.351 . S
C754 C755 1.434 . S
C755 C746 1.429 . S
C755 N752 1.350 . S
C755 C754 1.434 . S
C756 C757 1.369 . S
C756 C758 1.419 . S
C756 H760 0.930 . S
C757 C756 1.369 . S
C757 C766 1.429 . S
C758 C756 1.419 . S
C758 C759 1.363 . S
C758 H761 0.929 . S
C759 C758 1.363 . S
C759 C765 1.428 . S
H760 C756 0.930 . S
H761 C758 0.929 . S
S762 N763 1.613 . S
S762 N764 1.610 . S
N763 S762 1.613 . S
N763 C766 1.350 . S
N764 S762 1.610 . S
N764 C765 1.351 . S
C765 C759 1.428 . S
C765 N764 1.351 . S
C765 C766 1.434 . S
C766 C757 1.429 . S
C766 N763 1.350 . S
C766 C765 1.434 . S
C767 C768 1.342 1_565 S
C767 C769 1.443 . S
C767 H771 0.933 . S
C768 C767 1.342 1_545 S
C768 C777 1.429 . S
C769 C767 1.443 . S
C769 C770 1.363 . S
C769 H772 0.929 . S
C770 C769 1.363 . S
C770 C776 1.428 1_565 S
H771 C767 0.933 . S
H772 C769 0.929 . S
S773 N774 1.613 . S
S773 N775 1.610 . S
N774 S773 1.613 . S
N774 C777 1.350 . S
N775 S773 1.610 . S
N775 C776 1.351 . S
C776 C770 1.428 1_545 S
C776 N775 1.351 . S
C776 C777 1.434 . S
C777 C768 1.429 . S
C777 N774 1.350 . S
C777 C776 1.434 . S
C778 C779 1.369 . S
C778 C780 1.419 . S
C778 H782 0.930 . S
C779 C778 1.369 . S
C779 C788 1.429 . S
C780 C778 1.419 . S
C780 C781 1.363 . S
C780 H783 0.929 . S
C781 C780 1.363 . S
C781 C787 1.428 . S
H782 C778 0.930 . S
H783 C780 0.929 . S
S784 N785 1.613 . S
S784 N786 1.610 . S
N785 S784 1.613 . S
N785 C788 1.350 . S
N786 S784 1.610 . S
N786 C787 1.351 . S
C787 C781 1.428 . S
C787 N786 1.351 . S
C787 C788 1.434 . S
C788 C779 1.429 . S
C788 N785 1.350 . S
C788 C787 1.434 . S
C789 C790 1.374 . S
C789 C791 1.419 . S
C789 H793 0.930 . S
C790 C789 1.374 . S
C790 C799 1.423 1_556 S
C791 C789 1.419 . S
C791 C792 1.334 1_556 S
C791 H794 0.929 . S
C792 C791 1.334 1_554 S
C792 C798 1.457 . S
H793 C789 0.930 . S
H794 C791 0.929 . S
S795 N796 1.613 . S
S795 N797 1.610 . S
N796 S795 1.613 . S
N796 C799 1.350 . S
N797 S795 1.610 . S
N797 C798 1.351 . S
C798 C792 1.457 . S
C798 N797 1.351 . S
C798 C799 1.434 . S
C799 C790 1.423 1_554 S
C799 N796 1.350 . S
C799 C798 1.434 . S
C800 C801 1.369 . S
C800 C802 1.419 . S
C800 H804 0.930 . S
C801 C800 1.369 . S
C801 C810 1.429 . S
C802 C800 1.419 . S
C802 C803 1.363 . S
C802 H805 0.929 . S
C803 C802 1.363 . S
C803 C809 1.428 . S
H804 C800 0.930 . S
H805 C802 0.929 . S
S806 N807 1.613 . S
S806 N808 1.610 . S
N807 S806 1.613 . S
N807 C810 1.350 . S
N808 S806 1.610 . S
N808 C809 1.351 . S
C809 C803 1.428 . S
C809 N808 1.351 . S
C809 C810 1.434 . S
C810 C801 1.429 . S
C810 N807 1.350 . S
C810 C809 1.434 . S
C811 C812 1.369 . S
C811 C813 1.419 . S
C811 H815 0.930 . S
C812 C811 1.369 . S
C812 C821 1.429 . S
C813 C811 1.419 . S
C813 C814 1.363 . S
C813 H816 0.929 . S
C814 C813 1.363 . S
C814 C820 1.428 . S
H815 C811 0.930 . S
H816 C813 0.929 . S
S817 N818 1.613 . S
S817 N819 1.610 . S
N818 S817 1.613 . S
N818 C821 1.350 . S
N819 S817 1.610 . S
N819 C820 1.351 . S
C820 C814 1.428 . S
C820 N819 1.351 . S
C820 C821 1.434 . S
C821 C812 1.429 . S
C821 N818 1.350 . S
C821 C820 1.434 . S
C822 C823 1.369 . S
C822 C824 1.419 . S
C822 H826 0.930 . S
C823 C822 1.369 . S
C823 C832 1.429 . S
C824 C822 1.419 . S
C824 C825 1.363 . S
C824 H827 0.929 . S
C825 C824 1.363 . S
C825 C831 1.428 . S
H826 C822 0.930 . S
H827 C824 0.929 . S
S828 N829 1.613 . S
S828 N830 1.610 . S
N829 S828 1.613 . S
N829 C832 1.350 . S
N830 S828 1.610 . S
N830 C831 1.351 . S
C831 C825 1.428 . S
C831 N830 1.351 . S
C831 C832 1.434 . S
C832 C823 1.429 . S
C832 N829 1.350 . S
C832 C831 1.434 . S
C833 C834 1.369 . S
C833 C835 1.419 . S
C833 H837 0.930 . S
C834 C833 1.369 . S
C834 C843 1.429 . S
C835 C833 1.419 . S
C835 C836 1.363 . S
C835 H838 0.929 . S
C836 C835 1.363 . S
C836 C842 1.428 . S
H837 C833 0.930 . S
H838 C835 0.929 . S
S839 N840 1.613 1_655 S
S839 N841 1.610 1_655 S
N840 S839 1.613 1_455 S
N840 C843 1.350 . S
N841 S839 1.610 1_455 S
N841 C842 1.351 . S
C842 C836 1.428 . S
C842 N841 1.351 . S
C842 C843 1.434 . S
C843 C834 1.429 . S
C843 N840 1.350 . S
C843 C842 1.434 . S
C844 C845 1.369 . S
C844 C846 1.419 . S
C844 H848 0.930 . S
C845 C844 1.369 . S
C845 C854 1.429 . S
C846 C844 1.419 . S
C846 C847 1.363 . S
C846 H849 0.929 . S
C847 C846 1.363 . S
C847 C853 1.428 . S
H848 C844 0.930 . S
H849 C846 0.929 . S
S850 N851 1.613 . S
S850 N852 1.610 . S
N851 S850 1.613 . S
N851 C854 1.350 . S
N852 S850 1.610 . S
N852 C853 1.351 . S
C853 C847 1.428 . S
C853 N852 1.351 . S
C853 C854 1.434 . S
C854 C845 1.429 . S
C854 N851 1.350 . S
C854 C853 1.434 . S
C855 C856 1.369 . S
C855 C857 1.419 . S
C855 H859 0.930 . S
C856 C855 1.369 . S
C856 C865 1.429 . S
C857 C855 1.419 . S
C857 C858 1.363 . S
C857 H860 0.929 . S
C858 C857 1.363 . S
C858 C864 1.428 . S
H859 C855 0.930 . S
H860 C857 0.929 . S
S861 N862 1.613 1_455 S
S861 N863 1.610 1_455 S
N862 S861 1.613 1_655 S
N862 C865 1.350 . S
N863 S861 1.610 1_655 S
N863 C864 1.351 . S
C864 C858 1.428 . S
C864 N863 1.351 . S
C864 C865 1.434 . S
C865 C856 1.429 . S
C865 N862 1.350 . S
C865 C864 1.434 . S
C866 C867 1.369 . S
C866 C868 1.419 . S
C866 H870 0.930 . S
C867 C866 1.369 . S
C867 C876 1.429 . S
C868 C866 1.419 . S
C868 C869 1.363 . S
C868 H871 0.929 . S
C869 C868 1.363 . S
C869 C875 1.428 . S
H870 C866 0.930 . S
H871 C868 0.929 . S
S872 N873 1.613 . S
S872 N874 1.610 . S
N873 S872 1.613 . S
N873 C876 1.350 . S
N874 S872 1.610 . S
N874 C875 1.351 . S
C875 C869 1.428 . S
C875 N874 1.351 . S
C875 C876 1.434 . S
C876 C867 1.429 . S
C876 N873 1.350 . S
C876 C875 1.434 . S
C877 C878 1.369 . S
C877 C879 1.419 . S
C877 H881 0.930 . S
C878 C877 1.369 . S
C878 C887 1.429 . S
C879 C877 1.419 . S
C879 C880 1.363 . S
C879 H882 0.929 . S
C880 C879 1.363 . S
C880 C886 1.428 . S
H881 C877 0.930 . S
H882 C879 0.929 . S
S883 N884 1.613 . S
S883 N885 1.610 . S
N884 S883 1.613 . S
N884 C887 1.350 . S
N885 S883 1.610 . S
N885 C886 1.351 . S
C886 C880 1.428 . S
C886 N885 1.351 . S
C886 C887 1.434 . S
C887 C878 1.429 . S
C887 N884 1.350 . S
C887 C886 1.434 . S
C888 C889 1.369 . S
C888 C890 1.419 . S
C888 H892 0.930 . S
C889 C888 1.369 . S
C889 C898 1.429 . S
C890 C888 1.419 . S
C890 C891 1.363 . S
C890 H893 0.929 . S
C891 C890 1.363 . S
C891 C897 1.428 . S
H892 C888 0.930 . S
H893 C890 0.929 . S
S894 N895 1.613 . S
S894 N896 1.610 . S
N895 S894 1.613 . S
N895 C898 1.350 . S
N896 S894 1.610 . S
N896 C897 1.351 . S
C897 C891 1.428 . S
C897 N896 1.351 . S
C897 C898 1.434 . S
C898 C889 1.429 . S
C898 N895 1.350 . S
C898 C897 1.434 . S
C899 C900 1.369 . S
C899 C901 1.419 . S
C899 H903 0.930 . S
C900 C899 1.369 . S
C900 C909 1.429 . S
C901 C899 1.419 . S
C901 C902 1.363 . S
C901 H904 0.929 . S
C902 C901 1.363 . S
C902 C908 1.428 . S
H903 C899 0.930 . S
H904 C901 0.929 . S
S905 N906 1.613 . S
S905 N907 1.610 . S
N906 S905 1.613 . S
N906 C909 1.350 . S
N907 S905 1.610 . S
N907 C908 1.351 . S
C908 C902 1.428 . S
C908 N907 1.351 . S
C908 C909 1.434 . S
C909 C900 1.429 . S
C909 N906 1.350 . S
C909 C908 1.434 . S
C910 C911 1.369 . S
C910 C912 1.419 . S
C910 H914 0.930 . S
C911 C910 1.369 . S
C911 C920 1.429 . S
C912 C910 1.419 . S
C912 C913 1.363 . S
C912 H915 0.929 . S
C913 C912 1.363 . S
C913 C919 1.428 . S
H914 C910 0.930 . S
H915 C912 0.929 . S
S916 N917 1.613 . S
S916 N918 1.610 . S
N917 S916 1.613 . S
N917 C920 1.350 . S
N918 S916 1.610 . S
N918 C919 1.351 . S
C919 C913 1.428 . S
C919 N918 1.351 . S
C919 C920 1.434 . S
C920 C911 1.429 . S
C920 N917 1.350 . S
C920 C919 1.434 . S
C921 C922 1.369 . S
C921 C923 1.419 . S
C921 H925 0.930 . S
C922 C921 1.369 . S
C922 C931 1.429 . S
C923 C921 1.419 . S
C923 C924 1.363 . S
C923 H926 0.929 . S
C924 C923 1.363 . S
C924 C930 1.428 . S
H925 C921 0.930 . S
H926 C923 0.929 . S
S927 N928 1.613 . S
S927 N929 1.610 . S
N928 S927 1.613 . S
N928 C931 1.350 . S
N929 S927 1.610 . S
N929 C930 1.351 . S
C930 C924 1.428 . S
C930 N929 1.351 . S
C930 C931 1.434 . S
C931 C922 1.429 . S
C931 N928 1.350 . S
C931 C930 1.434 . S
C932 C933 1.369 . S
C932 C934 1.419 . S
C932 H936 0.930 . S
C933 C932 1.369 . S
C933 C942 1.429 . S
C934 C932 1.419 . S
C934 C935 1.363 . S
C934 H937 0.929 . S
C935 C934 1.363 . S
C935 C941 1.428 . S
H936 C932 0.930 . S
H937 C934 0.929 . S
S938 N939 1.613 . S
S938 N940 1.610 . S
N939 S938 1.613 . S
N939 C942 1.350 . S
N940 S938 1.610 . S
N940 C941 1.351 . S
C941 C935 1.428 . S
C941 N940 1.351 . S
C941 C942 1.434 . S
C942 C933 1.429 . S
C942 N939 1.350 . S
C942 C941 1.434 . S
C943 C944 1.369 . S
C943 C945 1.419 . S
C943 H947 0.930 . S
C944 C943 1.369 . S
C944 C953 1.429 . S
C945 C943 1.419 . S
C945 C946 1.363 . S
C945 H948 0.929 . S
C946 C945 1.363 . S
C946 C952 1.428 . S
H947 C943 0.930 . S
H948 C945 0.929 . S
S949 N950 1.613 . S
S949 N951 1.610 . S
N950 S949 1.613 . S
N950 C953 1.350 . S
N951 S949 1.610 . S
N951 C952 1.351 . S
C952 C946 1.428 . S
C952 N951 1.351 . S
C952 C953 1.434 . S
C953 C944 1.429 . S
C953 N950 1.350 . S
C953 C952 1.434 . S
C954 C955 1.369 . S
C954 C956 1.419 . S
C954 H958 0.930 . S
C955 C954 1.369 . S
C955 C964 1.429 . S
C956 C954 1.419 . S
C956 C957 1.363 . S
C956 H959 0.929 . S
C957 C956 1.363 . S
C957 C963 1.428 . S
H958 C954 0.930 . S
H959 C956 0.929 . S
S960 N961 1.613 . S
S960 N962 1.610 . S
N961 S960 1.613 . S
N961 C964 1.350 . S
N962 S960 1.610 . S
N962 C963 1.351 . S
C963 C957 1.428 . S
C963 N962 1.351 . S
C963 C964 1.434 . S
C964 C955 1.429 . S
C964 N961 1.350 . S
C964 C963 1.434 . S
C965 C966 1.369 . S
C965 C967 1.419 . S
C965 H969 0.930 . S
C966 C965 1.369 . S
C966 C975 1.429 . S
C967 C965 1.419 . S
C967 C968 1.363 . S
C967 H970 0.929 . S
C968 C967 1.363 . S
C968 C974 1.428 . S
H969 C965 0.930 . S
H970 C967 0.929 . S
S971 N972 1.613 . S
S971 N973 1.610 . S
N972 S971 1.613 . S
N972 C975 1.350 . S
N973 S971 1.610 . S
N973 C974 1.351 . S
C974 C968 1.428 . S
C974 N973 1.351 . S
C974 C975 1.434 . S
C975 C966 1.429 . S
C975 N972 1.350 . S
C975 C974 1.434 . S
C976 C977 1.369 . S
C976 C978 1.419 . S
C976 H980 0.930 . S
C977 C976 1.369 . S
C977 C986 1.429 . S
C978 C976 1.419 . S
C978 C979 1.363 . S
C978 H981 0.929 . S
C979 C978 1.363 . S
C979 C985 1.428 . S
H980 C976 0.930 . S
H981 C978 0.929 . S
S982 N983 1.613 . S
S982 N984 1.610 . S
N983 S982 1.613 . S
N983 C986 1.350 . S
N984 S982 1.610 . S
N984 C985 1.351 . S
C985 C979 1.428 . S
C985 N984 1.351 . S
C985 C986 1.434 . S
C986 C977 1.429 . S
C986 N983 1.350 . S
C986 C985 1.434 . S
C987 C988 1.369 . S
C987 C989 1.419 . S
C987 H991 0.930 . S
C988 C987 1.369 . S
C988 C997 1.429 . S
C989 C987 1.419 . S
C989 C990 1.363 . S
C989 H992 0.929 . S
C990 C989 1.363 . S
C990 C996 1.428 . S
H991 C987 0.930 . S
H992 C989 0.929 . S
S993 N994 1.613 . S
S993 N995 1.610 . S
N994 S993 1.613 . S
N994 C997 1.350 . S
N995 S993 1.610 . S
N995 C996 1.351 . S
C996 C990 1.428 . S
C996 N995 1.351 . S
C996 C997 1.434 . S
C997 C988 1.429 . S
C997 N994 1.350 . S
C997 C996 1.434 . S
C998 C999 1.360 1_556 S
C998 C1000 1.419 . S
C998 H1002 0.930 . S
C999 C998 1.360 1_554 S
C999 C1008 1.439 . S
C1000 C998 1.419 . S
C1000 C1001 1.356 1_556 S
C1000 H1003 0.929 . S
C1001 C1000 1.356 1_554 S
C1001 C1007 1.437 . S
H1002 C998 0.930 . S
H1003 C1000 0.929 . S
S1004 N1005 1.613 . S
S1004 N1006 1.610 . S
N1005 S1004 1.613 . S
N1005 C1008 1.350 . S
N1006 S1004 1.610 . S
N1006 C1007 1.351 . S
C1007 C1001 1.437 . S
C1007 N1006 1.351 . S
C1007 C1008 1.434 . S
C1008 C999 1.439 . S
C1008 N1005 1.350 . S
C1008 C1007 1.434 . S
C1009 C1010 1.340 1_556 S
C1009 C1011 1.419 . S
C1009 H1013 0.930 . S
C1010 C1009 1.340 1_554 S
C1010 C1019 1.459 . S
C1011 C1009 1.419 . S
C1011 C1012 1.337 1_556 S
C1011 H1014 0.929 . S
C1012 C1011 1.337 1_554 S
C1012 C1018 1.455 . S
H1013 C1009 0.930 . S
H1014 C1011 0.929 . S
S1015 N1016 1.613 . S
S1015 N1017 1.610 . S
N1016 S1015 1.613 . S
N1016 C1019 1.350 . S
N1017 S1015 1.610 . S
N1017 C1018 1.351 . S
C1018 C1012 1.455 . S
C1018 N1017 1.351 . S
C1018 C1019 1.434 . S
C1019 C1010 1.459 . S
C1019 N1016 1.350 . S
C1019 C1018 1.434 . S
C1020 C1021 1.369 . S
C1020 C1022 1.419 . S
C1020 H1024 0.930 . S
C1021 C1020 1.369 . S
C1021 C1030 1.429 . S
C1022 C1020 1.419 . S
C1022 C1023 1.363 . S
C1022 H1025 0.929 . S
C1023 C1022 1.363 . S
C1023 C1029 1.428 . S
H1024 C1020 0.930 . S
H1025 C1022 0.929 . S
S1026 N1027 1.613 . S
S1026 N1028 1.610 . S
N1027 S1026 1.613 . S
N1027 C1030 1.350 . S
N1028 S1026 1.610 . S
N1028 C1029 1.351 . S
C1029 C1023 1.428 . S
C1029 N1028 1.351 . S
C1029 C1030 1.434 . S
C1030 C1021 1.429 . S
C1030 N1027 1.350 . S
C1030 C1029 1.434 . S
C1031 C1032 1.369 . S
C1031 C1033 1.419 . S
C1031 H1035 0.930 . S
C1032 C1031 1.369 . S
C1032 C1041 1.429 . S
C1033 C1031 1.419 . S
C1033 C1034 1.363 . S
C1033 H1036 0.929 . S
C1034 C1033 1.363 . S
C1034 C1040 1.428 . S
H1035 C1031 0.930 . S
H1036 C1033 0.929 . S
S1037 N1038 1.613 . S
S1037 N1039 1.610 . S
N1038 S1037 1.613 . S
N1038 C1041 1.350 . S
N1039 S1037 1.610 . S
N1039 C1040 1.351 . S
C1040 C1034 1.428 . S
C1040 N1039 1.351 . S
C1040 C1041 1.434 . S
C1041 C1032 1.429 . S
C1041 N1038 1.350 . S
C1041 C1040 1.434 . S
C1042 C1043 1.361 1_554 S
C1042 C1044 1.419 . S
C1042 H1046 0.930 . S
C1043 C1042 1.361 1_556 S
C1043 C1052 1.437 . S
C1044 C1042 1.419 . S
C1044 C1045 1.354 1_554 S
C1044 H1047 0.929 . S
C1045 C1044 1.354 1_556 S
C1045 C1051 1.437 . S
H1046 C1042 0.930 . S
H1047 C1044 0.929 . S
S1048 N1049 1.613 . S
S1048 N1050 1.610 . S
N1049 S1048 1.613 . S
N1049 C1052 1.350 . S
N1050 S1048 1.610 . S
N1050 C1051 1.351 . S
C1051 C1045 1.437 . S
C1051 N1050 1.351 . S
C1051 C1052 1.434 . S
C1052 C1043 1.437 . S
C1052 N1049 1.350 . S
C1052 C1051 1.434 . S
C1053 C1054 1.368 1_554 S
C1053 C1055 1.418 . S
C1053 H1057 0.932 . S
C1054 C1053 1.368 1_556 S
C1054 C1063 1.430 . S
C1055 C1053 1.418 . S
C1055 C1056 1.362 1_554 S
C1055 H1058 0.930 . S
C1056 C1055 1.362 1_556 S
C1056 C1062 1.430 . S
H1057 C1053 0.932 . S
H1058 C1055 0.930 . S
S1059 N1060 1.613 . S
S1059 N1061 1.610 . S
N1060 S1059 1.613 . S
N1060 C1063 1.350 . S
N1061 S1059 1.610 . S
N1061 C1062 1.351 . S
C1062 C1056 1.430 . S
C1062 N1061 1.351 . S
C1062 C1063 1.434 . S
C1063 C1054 1.430 . S
C1063 N1060 1.350 . S
C1063 C1062 1.434 . S
C1064 C1065 1.369 . S
C1064 C1066 1.419 . S
C1064 H1068 0.930 . S
C1065 C1064 1.369 . S
C1065 C1074 1.429 . S
C1066 C1064 1.419 . S
C1066 C1067 1.363 . S
C1066 H1069 0.929 . S
C1067 C1066 1.363 . S
C1067 C1073 1.428 . S
H1068 C1064 0.930 . S
H1069 C1066 0.929 . S
S1070 N1071 1.613 . S
S1070 N1072 1.610 . S
N1071 S1070 1.613 . S
N1071 C1074 1.350 . S
N1072 S1070 1.610 . S
N1072 C1073 1.351 . S
C1073 C1067 1.428 . S
C1073 N1072 1.351 . S
C1073 C1074 1.434 . S
C1074 C1065 1.429 . S
C1074 N1071 1.350 . S
C1074 C1073 1.434 . S
C1075 C1076 1.369 . S
C1075 C1077 1.419 . S
C1075 H1079 0.930 . S
C1076 C1075 1.369 . S
C1076 C1085 1.429 . S
C1077 C1075 1.419 . S
C1077 C1078 1.363 . S
C1077 H1080 0.929 . S
C1078 C1077 1.363 . S
C1078 C1084 1.428 . S
H1079 C1075 0.930 . S
H1080 C1077 0.929 . S
S1081 N1082 1.613 . S
S1081 N1083 1.610 . S
N1082 S1081 1.613 . S
N1082 C1085 1.350 . S
N1083 S1081 1.610 . S
N1083 C1084 1.351 . S
C1084 C1078 1.428 . S
C1084 N1083 1.351 . S
C1084 C1085 1.434 . S
C1085 C1076 1.429 . S
C1085 N1082 1.350 . S
C1085 C1084 1.434 . S
C1086 C1087 1.369 . S
C1086 C1088 1.419 . S
C1086 H1090 0.930 . S
C1087 C1086 1.369 . S
C1087 C1096 1.429 . S
C1088 C1086 1.419 . S
C1088 C1089 1.363 . S
C1088 H1091 0.929 . S
C1089 C1088 1.363 . S
C1089 C1095 1.428 . S
H1090 C1086 0.930 . S
H1091 C1088 0.929 . S
S1092 N1093 1.613 . S
S1092 N1094 1.610 . S
N1093 S1092 1.613 . S
N1093 C1096 1.350 . S
N1094 S1092 1.610 . S
N1094 C1095 1.351 . S
C1095 C1089 1.428 . S
C1095 N1094 1.351 . S
C1095 C1096 1.434 . S
C1096 C1087 1.429 . S
C1096 N1093 1.350 . S
C1096 C1095 1.434 . S
C1097 C1098 1.369 . S
C1097 C1099 1.419 . S
C1097 H1101 0.930 . S
C1098 C1097 1.369 . S
C1098 C1107 1.429 . S
C1099 C1097 1.419 . S
C1099 C1100 1.363 . S
C1099 H1102 0.929 . S
C1100 C1099 1.363 . S
C1100 C1106 1.428 . S
H1101 C1097 0.930 . S
H1102 C1099 0.929 . S
S1103 N1104 1.613 . S
S1103 N1105 1.610 . S
N1104 S1103 1.613 . S
N1104 C1107 1.350 . S
N1105 S1103 1.610 . S
N1105 C1106 1.351 . S
C1106 C1100 1.428 . S
C1106 N1105 1.351 . S
C1106 C1107 1.434 . S
C1107 C1098 1.429 . S
C1107 N1104 1.350 . S
C1107 C1106 1.434 . S
C1108 C1109 1.369 . S
C1108 C1110 1.419 . S
C1108 H1112 0.930 . S
C1109 C1108 1.369 . S
C1109 C1118 1.429 . S
C1110 C1108 1.419 . S
C1110 C1111 1.363 . S
C1110 H1113 0.929 . S
C1111 C1110 1.363 . S
C1111 C1117 1.428 . S
H1112 C1108 0.930 . S
H1113 C1110 0.929 . S
S1114 N1115 1.613 . S
S1114 N1116 1.610 . S
N1115 S1114 1.613 . S
N1115 C1118 1.350 . S
N1116 S1114 1.610 . S
N1116 C1117 1.351 . S
C1117 C1111 1.428 . S
C1117 N1116 1.351 . S
C1117 C1118 1.434 . S
C1118 C1109 1.429 . S
C1118 N1115 1.350 . S
C1118 C1117 1.434 . S
C1119 C1120 1.369 . S
C1119 C1121 1.419 . S
C1119 H1123 0.930 . S
C1120 C1119 1.369 . S
C1120 C1129 1.429 . S
C1121 C1119 1.419 . S
C1121 C1122 1.363 . S
C1121 H1124 0.929 . S
C1122 C1121 1.363 . S
C1122 C1128 1.428 . S
H1123 C1119 0.930 . S
H1124 C1121 0.929 . S
S1125 N1126 1.613 . S
S1125 N1127 1.610 . S
N1126 S1125 1.613 . S
N1126 C1129 1.350 . S
N1127 S1125 1.610 . S
N1127 C1128 1.351 . S
C1128 C1122 1.428 . S
C1128 N1127 1.351 . S
C1128 C1129 1.434 . S
C1129 C1120 1.429 . S
C1129 N1126 1.350 . S
C1129 C1128 1.434 . S
C1130 C1131 1.369 . S
C1130 C1132 1.419 . S
C1130 H1134 0.930 . S
C1131 C1130 1.369 . S
C1131 C1140 1.429 . S
C1132 C1130 1.419 . S
C1132 C1133 1.363 . S
C1132 H1135 0.929 . S
C1133 C1132 1.363 . S
C1133 C1139 1.428 . S
H1134 C1130 0.930 . S
H1135 C1132 0.929 . S
S1136 N1137 1.613 . S
S1136 N1138 1.610 . S
N1137 S1136 1.613 . S
N1137 C1140 1.350 . S
N1138 S1136 1.610 . S
N1138 C1139 1.351 . S
C1139 C1133 1.428 . S
C1139 N1138 1.351 . S
C1139 C1140 1.434 . S
C1140 C1131 1.429 . S
C1140 N1137 1.350 . S
C1140 C1139 1.434 . S
C1141 C1142 1.369 . S
C1141 C1143 1.419 . S
C1141 H1145 0.930 . S
C1142 C1141 1.369 . S
C1142 C1151 1.429 . S
C1143 C1141 1.419 . S
C1143 C1144 1.363 . S
C1143 H1146 0.929 . S
C1144 C1143 1.363 . S
C1144 C1150 1.428 . S
H1145 C1141 0.930 . S
H1146 C1143 0.929 . S
S1147 N1148 1.613 . S
S1147 N1149 1.610 . S
N1148 S1147 1.613 . S
N1148 C1151 1.350 . S
N1149 S1147 1.610 . S
N1149 C1150 1.351 . S
C1150 C1144 1.428 . S
C1150 N1149 1.351 . S
C1150 C1151 1.434 . S
C1151 C1142 1.429 . S
C1151 N1148 1.350 . S
C1151 C1150 1.434 . S
C449 C1 1.571 . S
C451 C55 1.571 . S
C460 C29 1.569 . S
C462 C15 1.568 . S
C471 C56 1.568 . S
C473 C98 1.569 . S
C482 C85 1.572 . S
C484 C83 1.570 . S
C493 C125 1.568 . S
C495 C155 1.571 . S
C504 C140 1.569 . S
C506 C126 1.571 . S
C515 C169 1.573 . S
C517 C222 1.569 . S
C526 C183 1.573 . S
C528 C209 1.572 . S
C537 C266 1.571 . S
C539 C225 1.569 . S
C548 C238 1.570 . S
C550 C252 1.570 . S
C559 C280 1.572 . S
C561 C323 1.571 . S
C570 C309 1.570 . S
C572 C307 1.572 . S
C581 C337 1.571 . S
C583 C378 1.572 . S
C592 C364 1.571 . S
C594 C351 1.568 . S
C603 C404 1.569 . S
C605 C435 1.570 . S
C614 C406 1.572 . S
C616 C421 1.571 . S
C625 C180 1.616 . S
C627 C12 1.618 . S
C636 C26 1.621 . S
C638 C294 1.614 . S
C647 C40 1.621 . S
C649 C96 1.616 . S
C658 C446 1.616 . S
C660 C42 1.619 . S
C669 C69 1.615 . S
C671 C112 1.621 . S
C680 C251 1.617 . S
C682 C70 1.615 . S
C691 C391 1.618 . S
C693 C111 1.619 . S
C702 C419 1.622 . S
C704 C139 1.613 . S
C713 C196 1.616 . S
C715 C153 1.616 . S
C724 C334 1.616 . S
C726 C166 1.618 . S
C735 C194 1.615 . S
C737 C362 1.619 . S
C746 C279 1.619 . S
C748 C211 1.615 . S
C757 C393 1.622 . S
C759 C236 1.616 . S
C768 C320 1.619 . S
C770 C265 1.613 . S
C779 C348 1.619 . S
C781 C293 1.617 . S
C790 C377 1.619 . S
C792 C432 1.616 . S
C801 C141 1.669 . S
C803 C0 1.674 . S
C812 C14 1.675 . S
C814 C154 1.671 . S
C823 C124 1.675 . S
C825 C28 1.673 . S
C834 C127 1.674 . S
C836 C54 1.672 . S
C845 C57 1.675 . S
C847 C208 1.669 . S
C856 C82 1.670 . S
C858 C223 1.675 . S
C867 C168 1.670 . S
C869 C84 1.673 . S
C878 C99 1.674 . S
C880 C182 1.669 . S
C889 C365 1.674 . S
C891 C224 1.672 . S
C900 C379 1.674 . S
C902 C239 1.670 . S
C911 C253 1.668 . S
C913 C336 1.674 . S
C922 C267 1.674 . S
C924 C350 1.672 . S
C933 C281 1.676 . S
C935 C420 1.670 . S
C944 C306 1.673 . S
C946 C434 1.669 . S
C955 C405 1.672 . S
C957 C308 1.673 . S
C966 C407 1.671 . S
C968 C322 1.673 . S
C977 C13 1.689 . S
C979 C363 1.684 . S
C988 C349 1.690 . S
C990 C27 1.684 . S
C999 C41 1.690 . S
C1001 C390 1.688 . S
C1010 C43 1.686 . S
C1012 C376 1.690 . S
C1021 C68 1.689 . S
C1023 C418 1.686 . S
C1032 C71 1.686 . S
C1034 C392 1.689 . S
C1043 C447 1.693 . S
C1045 C97 1.687 . S
C1054 C433 1.687 . S
C1056 C110 1.690 . S
C1065 C250 1.693 . S
C1067 C113 1.684 . S
C1076 C237 1.685 . S
C1078 C138 1.691 . S
C1087 C152 1.686 . S
C1089 C278 1.692 . S
C1098 C167 1.687 . S
C1100 C264 1.690 . S
C1109 C295 1.692 . S
C1111 C181 1.687 . S
C1120 C195 1.692 . S
C1122 C292 1.685 . S
C1131 C197 1.692 . S
C1133 C335 1.686 . S
C1142 C210 1.687 . S
C1144 C321 1.688 . S
