# Generated by pormake.
# Topology sow, (4)-cn, num edge types: 1
# Building blocks:
#     Node 0, Type 0, BuildingBlock: ESEHIV_clean_sbu_0, # of connection points: 4
#     Node 1, Type 0, BuildingBlock: ESEHIV_clean_sbu_0, # of connection points: 4
#     Node 2, Type 0, BuildingBlock: ESEHIV_clean_sbu_0, # of connection points: 4
#     Node 3, Type 0, BuildingBlock: ESEHIV_clean_sbu_0, # of connection points: 4
#     Node 4, Type 0, BuildingBlock: ESEHIV_clean_sbu_0, # of connection points: 4
#     Node 5, Type 0, BuildingBlock: ESEHIV_clean_sbu_0, # of connection points: 4
#     Node 6, Type 0, BuildingBlock: ESEHIV_clean_sbu_0, # of connection points: 4
#     Node 7, Type 0, BuildingBlock: ESEHIV_clean_sbu_0, # of connection points: 4
#     Edge 8, Type (0, 0), BuildingBlock: FUNLAD_clean_linker_0, # of connection points: 2
#     Edge 9, Type (0, 0), BuildingBlock: FUNLAD_clean_linker_0, # of connection points: 2
#     Edge 10, Type (0, 0), BuildingBlock: FUNLAD_clean_linker_0, # of connection points: 2
#     Edge 11, Type (0, 0), BuildingBlock: FUNLAD_clean_linker_0, # of connection points: 2
#     Edge 12, Type (0, 0), BuildingBlock: FUNLAD_clean_linker_0, # of connection points: 2
#     Edge 13, Type (0, 0), BuildingBlock: FUNLAD_clean_linker_0, # of connection points: 2
#     Edge 14, Type (0, 0), BuildingBlock: FUNLAD_clean_linker_0, # of connection points: 2
#     Edge 15, Type (0, 0), BuildingBlock: FUNLAD_clean_linker_0, # of connection points: 2
#     Edge 16, Type (0, 0), BuildingBlock: FUNLAD_clean_linker_0, # of connection points: 2
#     Edge 17, Type (0, 0), BuildingBlock: FUNLAD_clean_linker_0, # of connection points: 2
#     Edge 18, Type (0, 0), BuildingBlock: FUNLAD_clean_linker_0, # of connection points: 2
#     Edge 19, Type (0, 0), BuildingBlock: FUNLAD_clean_linker_0, # of connection points: 2
#     Edge 20, Type (0, 0), BuildingBlock: FUNLAD_clean_linker_0, # of connection points: 2
#     Edge 21, Type (0, 0), BuildingBlock: FUNLAD_clean_linker_0, # of connection points: 2
#     Edge 22, Type (0, 0), BuildingBlock: FUNLAD_clean_linker_0, # of connection points: 2
#     Edge 23, Type (0, 0), BuildingBlock: FUNLAD_clean_linker_0, # of connection points: 2
# Relax obj value: 0.065
# Max RMSD: 0.210
# Mean RMSD: 0.186
data_MOF--net-sow--node1-ESEHIV_clean_sbu_0--edge1-FUNLAD_clean_linker_0
_symmetry_space_group_name_H-M    P1
_symmetry_Int_Tables_number       1
_symmetry_cell_setting            triclinic
loop_
_symmetry_equiv_pos_as_xyz
'x, y, z'
_cell_length_a     56.389377
_cell_length_b     21.195334
_cell_length_c     26.118587
_cell_angle_alpha  89.311935
_cell_angle_beta   90.014466
_cell_angle_gamma 90.067101
loop_
_atom_site_label
_atom_site_type_symbol
_atom_site_fract_x
_atom_site_fract_y
_atom_site_fract_z
_atom_type_partial_charge
Cu0 Cu 0.1435 0.11842 0.19249 0.0
N1 N 0.16049 0.16063 0.24322 0.0
N2 N 0.18735 0.17698 0.30482 0.0
C3 C 0.17758 0.13469 0.27276 0.0
C4 C 0.17609 0.23191 0.29448 0.0
C5 C 0.15961 0.22172 0.25639 0.0
O6 O 0.16535 0.10269 0.1363 0.0
C7 C 0.11956 0.04739 0.26584 0.0
O8 O 0.13298 0.06866 0.30293 0.0
H9 H 0.1829 0.08579 0.27017 0.0
H10 H 0.14804 0.25659 0.23914 0.0
N11 N 0.11732 0.1632 0.16771 0.0
N12 N 0.08133 0.16096 0.1311 0.0
C13 C 0.10396 0.13991 0.12965 0.0
C14 C 0.10286 0.2017 0.19378 0.0
C15 C 0.08076 0.20095 0.17099 0.0
C16 C 0.17248 0.15171 0.11213 0.0
O17 O 0.16393 0.20679 0.12543 0.0
H18 H 0.11011 0.10224 0.10549 0.0
H19 H 0.10698 0.22179 0.23058 0.0
O20 O 0.1286 0.04336 0.22127 0.0
H21 H 0.17933 0.27629 0.31332 0.0
H22 H 0.06485 0.22163 0.18676 0.0
Cu23 Cu 0.38132 0.23081 0.69226 0.0
N24 N 0.36295 0.25382 0.74872 0.0
N25 N 0.33819 0.254 0.81573 0.0
C26 C 0.34901 0.21847 0.7799 0.0
C27 C 0.34569 0.31359 0.80661 0.0
C28 C 0.36087 0.31327 0.76548 0.0
O29 O 0.36169 0.20441 0.63491 0.0
C30 C 0.42125 0.15936 0.67593 0.0
O31 O 0.41451 0.1674 0.62812 0.0
H32 H 0.34695 0.16794 0.77668 0.0
H33 H 0.36959 0.35383 0.74842 0.0
N34 N 0.39826 0.30147 0.66976 0.0
N35 N 0.43085 0.35784 0.65212 0.0
C36 C 0.42077 0.31421 0.68324 0.0
C37 C 0.39358 0.33943 0.62944 0.0
C38 C 0.41365 0.37444 0.61852 0.0
C39 C 0.34378 0.16786 0.63707 0.0
O40 O 0.33815 0.14049 0.68075 0.0
H41 H 0.43017 0.288 0.7126 0.0
H42 H 0.37736 0.33843 0.60735 0.0
O43 O 0.40648 0.17254 0.71109 0.0
H44 H 0.34011 0.35492 0.82734 0.0
H45 H 0.41569 0.4072 0.58673 0.0
Cu46 Cu 0.65476 0.44808 0.814 0.0
N47 N 0.66985 0.46842 0.75195 0.0
N48 N 0.69234 0.46592 0.68137 0.0
C49 C 0.68635 0.43601 0.72565 0.0
C50 C 0.67919 0.51905 0.68011 0.0
C51 C 0.66543 0.52048 0.72356 0.0
O52 O 0.67768 0.41759 0.86452 0.0
C53 C 0.61793 0.38204 0.76208 0.0
O54 O 0.62497 0.41509 0.72203 0.0
H55 H 0.69337 0.39087 0.73809 0.0
H56 H 0.65284 0.55674 0.73359 0.0
N57 N 0.64144 0.52194 0.83948 0.0
N58 N 0.61499 0.59404 0.86445 0.0
C59 C 0.61827 0.53551 0.84549 0.0
C60 C 0.65326 0.57338 0.85499 0.0
C61 C 0.63704 0.61788 0.8704 0.0
C62 C 0.68492 0.3608 0.86797 0.0
O63 O 0.67702 0.31914 0.83524 0.0
H64 H 0.60418 0.50277 0.83648 0.0
H65 H 0.67235 0.57829 0.85462 0.0
O66 O 0.62896 0.38769 0.8044 0.0
H67 H 0.67957 0.55456 0.65003 0.0
H68 H 0.64125 0.66458 0.884 0.0
Cu69 Cu 0.87029 0.18489 0.31774 0.0
N70 N 0.84923 0.15466 0.26785 0.0
N71 N 0.82338 0.15433 0.20255 0.0
C72 C 0.83679 0.19005 0.234 0.0
C73 C 0.8276 0.09413 0.21753 0.0
C74 C 0.84349 0.0945 0.25768 0.0
O75 O 0.8534 0.24341 0.362 0.0
C76 C 0.90761 0.18806 0.24839 0.0
O77 O 0.89451 0.14484 0.22644 0.0
H78 H 0.83794 0.24098 0.23204 0.0
H79 H 0.85049 0.0537 0.27774 0.0
N80 N 0.88326 0.12128 0.35926 0.0
N81 N 0.91218 0.0735 0.40397 0.0
C82 C 0.90584 0.1243 0.37564 0.0
C83 C 0.87463 0.06677 0.37858 0.0
C84 C 0.89249 0.0371 0.40629 0.0
C85 C 0.83265 0.22725 0.37656 0.0
O86 O 0.82387 0.17352 0.3606 0.0
H87 H 0.91732 0.164 0.36743 0.0
H88 H 0.85676 0.04969 0.37286 0.0
O89 O 0.89869 0.2194 0.28508 0.0
H90 H 0.81965 0.05256 0.20104 0.0
H91 H 0.89114 0.99196 0.42586 0.0
Cu92 Cu 0.88978 0.71419 0.98762 0.0
N93 N 0.91083 0.66683 0.94869 0.0
N94 N 0.94098 0.64303 0.89681 0.0
C95 C 0.93 0.6888 0.92348 0.0
C96 C 0.92812 0.59022 0.90581 0.0
C97 C 0.90953 0.60511 0.93776 0.0
O98 O 0.90631 0.79051 1.00877 0.0
C99 C 0.86273 0.7481 0.89964 0.0
O100 O 0.88337 0.76174 0.87897 0.0
H101 H 0.93532 0.73786 0.92362 0.0
H102 H 0.89588 0.57337 0.95167 0.0
N103 N 0.87985 0.66672 0.04457 0.0
N104 N 0.8564 0.62676 0.10614 0.0
C105 C 0.8588 0.67097 0.06865 0.0
C106 C 0.89119 0.61819 0.06738 0.0
C107 C 0.87685 0.59362 0.10542 0.0
C108 C 0.9232 0.78337 0.04069 0.0
O109 O 0.92758 0.72645 0.05872 0.0
H110 H 0.84548 0.70554 0.05836 0.0
H111 H 0.90847 0.60094 0.05631 0.0
O112 O 0.86183 0.73078 0.94638 0.0
H113 H 0.93184 0.54405 0.89056 0.0
H114 H 0.88092 0.55313 0.12943 0.0
Cu115 Cu 0.66106 0.60149 0.48673 0.0
N116 N 0.64182 0.64736 0.44156 0.0
N117 N 0.61222 0.6731 0.38814 0.0
C118 C 0.62114 0.62886 0.42057 0.0
C119 C 0.62796 0.72123 0.38922 0.0
C120 C 0.64616 0.70516 0.42204 0.0
O121 O 0.64172 0.53352 0.51532 0.0
C122 C 0.68772 0.5551 0.40308 0.0
O123 O 0.66697 0.55142 0.38044 0.0
H124 H 0.61317 0.58321 0.42806 0.0
H125 H 0.66156 0.73344 0.43094 0.0
N126 N 0.67195 0.6553 0.5377 0.0
N127 N 0.69515 0.69905 0.59684 0.0
C128 C 0.69204 0.64966 0.56529 0.0
C129 C 0.66197 0.70977 0.55242 0.0
C130 C 0.67626 0.73694 0.58883 0.0
C131 C 0.63312 0.53535 0.5604 0.0
O132 O 0.63956 0.58094 0.59101 0.0
H133 H 0.70444 0.61109 0.56121 0.0
H134 H 0.64557 0.72869 0.53726 0.0
O135 O 0.68869 0.57183 0.44967 0.0
H136 H 0.62645 0.76526 0.36809 0.0
H137 H 0.67302 0.78116 0.6079 0.0
Cu138 Cu 0.38799 0.79367 0.06481 0.0
N139 N 0.39783 0.72389 0.10352 0.0
N140 N 0.42259 0.66813 0.15335 0.0
C141 C 0.42034 0.71625 0.11948 0.0
C142 C 0.40051 0.64423 0.1589 0.0
C143 C 0.38524 0.67872 0.12794 0.0
O144 O 0.41767 0.82862 0.03822 0.0
C145 C 0.3491 0.83318 0.11992 0.0
O146 O 0.34058 0.78148 0.09969 0.0
H147 H 0.43456 0.74822 0.10901 0.0
H148 H 0.36622 0.67309 0.1253 0.0
N149 N 0.36777 0.77152 1.01095 0.0
N150 N 0.33971 0.78138 0.9508 0.0
C151 C 0.35221 0.81064 0.9877 0.0
C152 C 0.36513 0.71548 0.98799 0.0
C153 C 0.34787 0.72148 0.95068 0.0
C154 C 0.424 0.82176 0.99176 0.0
O155 O 0.40816 0.8044 0.95789 0.0
H156 H 0.35013 0.85969 0.99783 0.0
H157 H 0.37494 0.67326 0.99795 0.0
O158 O 0.37046 0.84926 0.11036 0.0
H159 H 0.39563 0.60586 0.18452 0.0
H160 H 0.34145 0.68426 0.92627 0.0
Cu161 Cu 0.15601 0.90781 0.55784 0.0
N162 N 0.14121 0.83574 0.58494 0.0
N163 N 0.1139 0.77832 0.62679 0.0
C164 C 0.11817 0.83025 0.59774 0.0
C165 C 0.13506 0.74894 0.63105 0.0
C166 C 0.15186 0.78451 0.60526 0.0
O167 O 0.1316 0.96938 0.5404 0.0
C168 C 0.17801 0.92763 0.65418 0.0
O169 O 0.1573 0.9107 0.67283 0.0
H170 H 0.10496 0.86514 0.58786 0.0
H171 H 0.17077 0.77608 0.60454 0.0
N172 N 0.17105 0.8881 0.49666 0.0
N173 N 0.19659 0.89056 0.43127 0.0
C174 C 0.19232 0.90875 0.47982 0.0
C175 C 0.1616 0.85568 0.45773 0.0
C176 C 0.1773 0.85705 0.41734 0.0
C177 C 0.11575 0.98984 0.57063 0.0
O178 O 0.11747 0.97735 0.61988 0.0
H179 H 0.20403 0.93831 0.50202 0.0
H180 H 0.14425 0.83386 0.45836 0.0
O181 O 0.18031 0.93473 0.60594 0.0
H182 H 0.13856 0.70736 0.65428 0.0
H183 H 0.17471 0.8351 0.38056 0.0
C184 C 0.30569 0.18363 0.84633 0.0
C185 C 0.32127 0.23451 0.85436 0.0
C186 C 0.28763 0.16968 0.8818 0.0
C187 C 0.28497 0.20624 0.92617 0.0
C188 C 0.30119 0.25525 0.93487 0.0
C189 C 0.31909 0.2691 0.89963 0.0
C190 C 0.26465 0.19927 0.96233 0.0
C191 C 0.24999 0.149 0.96585 0.0
C192 C 0.22925 0.14864 1.00132 0.0
C193 C 0.22189 0.0923 0.02548 0.0
C194 C 0.20311 0.0924 0.06086 0.0
C195 C 0.19119 0.14885 0.07217 0.0
H196 H 0.22111 0.24823 0.9918 0.0
C197 C 0.19795 0.20447 0.04616 0.0
C198 C 0.21662 0.20437 1.01116 0.0
H199 H 0.18897 0.24868 0.05319 0.0
H200 H 0.30679 0.15639 0.81163 0.0
H201 H 0.27533 0.13209 0.87318 0.0
H202 H 0.29971 0.28413 0.96869 0.0
H203 H 0.33104 0.30777 0.90755 0.0
H204 H 0.26177 0.23836 0.98815 0.0
H205 H 0.25358 0.10676 0.94412 0.0
H206 H 0.23108 0.0485 0.01802 0.0
H207 H 0.19826 0.04866 0.07999 0.0
C208 C 0.22044 0.21547 0.35852 0.0
C209 C 0.20584 0.16579 0.34222 0.0
C210 C 0.238 0.20515 0.3955 0.0
C211 C 0.24153 0.14465 0.41706 0.0
C212 C 0.22688 0.09504 0.40092 0.0
C213 C 0.20937 0.1053 0.36373 0.0
C214 C 0.2593 0.13267 0.45837 0.0
C215 C 0.27886 0.16853 0.46473 0.0
C216 C 0.29601 0.16143 0.50797 0.0
C217 C 0.318 0.19234 0.50416 0.0
C218 C 0.33383 0.19248 0.54536 0.0
C219 C 0.32804 0.16185 0.59174 0.0
H220 H 0.27358 0.10575 0.55917 0.0
C221 C 0.30635 0.12923 0.59523 0.0
C222 C 0.29046 0.12915 0.55394 0.0
H223 H 0.30126 0.10538 0.63046 0.0
H224 H 0.21836 0.26252 0.34267 0.0
H225 H 0.24834 0.24521 0.40786 0.0
H226 H 0.22893 0.04819 0.41732 0.0
H227 H 0.19826 0.06605 0.35274 0.0
H228 H 0.25625 0.09226 0.48342 0.0
H229 H 0.28278 0.2052 0.43659 0.0
H230 H 0.3228 0.21776 0.46943 0.0
H231 H 0.35038 0.21805 0.54119 0.0
C232 C 0.79866 0.23703 0.16034 0.0
C233 C 0.8081 0.17557 0.16119 0.0
C234 C 0.78381 0.25732 0.12029 0.0
C235 C 0.77795 0.21647 0.07995 0.0
C236 C 0.78759 0.15534 0.08074 0.0
C237 C 0.80237 0.13511 0.12071 0.0
C238 C 0.76236 0.23516 0.03583 0.0
C239 C 0.74849 0.28715 0.03417 0.0
C240 C 0.73275 0.30457 0.99003 0.0
C241 C 0.72482 0.36723 0.98533 0.0
C242 C 0.70956 0.3856 0.94555 0.0
C243 C 0.70163 0.34159 0.90947 0.0
H244 H 0.72975 0.21125 0.95665 0.0
C245 C 0.70947 0.27879 0.91413 0.0
C246 C 0.72476 0.2604 0.95392 0.0
H247 H 0.70359 0.24347 0.88731 0.0
H248 H 0.80253 0.26949 0.19089 0.0
H249 H 0.77732 0.30522 0.12121 0.0
H250 H 0.78365 0.12277 0.05021 0.0
H251 H 0.80955 0.08786 0.11937 0.0
H252 H 0.76237 0.2038 1.00332 0.0
H253 H 0.74859 0.31932 0.0661 0.0
H254 H 0.73045 0.40232 0.01262 0.0
H255 H 0.70386 0.43434 0.94336 0.0
C256 C 0.72845 0.40813 0.65484 0.0
C257 C 0.70851 0.44494 0.64223 0.0
C258 C 0.74393 0.38744 0.61655 0.0
C259 C 0.73964 0.40268 0.56473 0.0
C260 C 0.71972 0.43942 0.55226 0.0
C261 C 0.70446 0.46078 0.59051 0.0
C262 C 0.75436 0.37683 0.52256 0.0
C263 C 0.77758 0.36262 0.52721 0.0
C264 C 0.79132 0.3316 0.48575 0.0
C265 C 0.81586 0.34229 0.48127 0.0
C266 C 0.82933 0.31039 0.44452 0.0
C267 C 0.81855 0.26601 0.41238 0.0
H268 H 0.76182 0.27737 0.45581 0.0
C269 C 0.79399 0.25575 0.4167 0.0
C270 C 0.78053 0.28819 0.45273 0.0
H271 H 0.78512 0.2218 0.39261 0.0
H272 H 0.73209 0.39547 0.69433 0.0
H273 H 0.7588 0.35799 0.62751 0.0
H274 H 0.71583 0.45134 0.51267 0.0
H275 H 0.68913 0.48839 0.57938 0.0
H276 H 0.74568 0.37042 0.48583 0.0
H277 H 0.78697 0.37472 0.56208 0.0
H278 H 0.82467 0.37505 0.50652 0.0
H279 H 0.84824 0.31897 0.4424 0.0
C280 C 0.83816 0.58168 0.18501 0.0
C281 C 0.83594 0.6152 0.13839 0.0
C282 C 0.81831 0.56948 0.21581 0.0
C283 C 0.79567 0.59102 0.20094 0.0
C284 C 0.79349 0.62417 0.15426 0.0
C285 C 0.8133 0.63621 0.12346 0.0
C286 C 0.77382 0.57937 0.23198 0.0
C287 C 0.77372 0.56067 0.28161 0.0
C288 C 0.75156 0.55353 0.31238 0.0
C289 C 0.75275 0.55997 0.3658 0.0
C290 C 0.73214 0.55804 0.39565 0.0
C291 C 0.70984 0.54906 0.37273 0.0
H292 H 0.72775 0.53318 0.24914 0.0
C293 C 0.70878 0.53909 0.31965 0.0
C294 C 0.72938 0.54109 0.28982 0.0
H295 H 0.69195 0.53124 0.30079 0.0
H296 H 0.85527 0.565 0.19802 0.0
H297 H 0.82091 0.54253 0.25073 0.0
H298 H 0.77632 0.64095 0.14142 0.0
H299 H 0.8107 0.66113 0.08754 0.0
H300 H 0.75705 0.5901 0.21342 0.0
H301 H 0.79035 0.55469 0.3019 0.0
H302 H 0.76961 0.56855 0.3844 0.0
H303 H 0.73365 0.56533 0.4365 0.0
C304 C 0.72699 0.66049 0.65441 0.0
C305 C 0.71499 0.7107 0.63022 0.0
C306 C 0.7462 0.67217 0.68696 0.0
C307 C 0.75392 0.73438 0.69551 0.0
C308 C 0.74217 0.78431 0.67059 0.0
C309 C 0.72277 0.77271 0.63874 0.0
C310 C 0.77468 0.74865 0.72852 0.0
C311 C 0.78049 0.71358 0.76997 0.0
C312 C 0.80119 0.72761 0.8033 0.0
C313 C 0.80066 0.70773 0.85472 0.0
C314 C 0.82029 0.71672 0.88653 0.0
C315 C 0.84112 0.7449 0.86736 0.0
H316 H 0.82314 0.7718 0.74458 0.0
C317 C 0.84158 0.76559 0.81602 0.0
C318 C 0.82183 0.75715 0.78431 0.0
H319 H 0.85738 0.7871 0.79994 0.0
H320 H 0.7214 0.61224 0.64849 0.0
H321 H 0.75522 0.63239 0.70453 0.0
H322 H 0.74791 0.83257 0.67605 0.0
H323 H 0.71412 0.81227 0.62 0.0
H324 H 0.78462 0.79139 0.71988 0.0
H325 H 0.76908 0.67452 0.78141 0.0
H326 H 0.78506 0.68459 0.87029 0.0
H327 H 0.81934 0.69985 0.92579 0.0
C328 C 0.31642 0.78501 0.87035 0.0
C329 C 0.32097 0.80802 0.91965 0.0
C330 C 0.29799 0.8102 0.84054 0.0
C331 C 0.28361 0.85897 0.85947 0.0
C332 C 0.28811 0.88166 0.90882 0.0
C333 C 0.30666 0.85689 0.93841 0.0
C334 C 0.26288 0.88414 0.83031 0.0
C335 C 0.26141 0.88382 0.77875 0.0
C336 C 0.23991 0.90351 0.74932 0.0
C337 C 0.24223 0.91859 0.69702 0.0
C338 C 0.22221 0.93014 0.66661 0.0
C339 C 0.19931 0.92617 0.68771 0.0
H340 H 0.21429 0.88954 0.81071 0.0
C341 C 0.197 0.91358 0.74047 0.0
C342 C 0.21702 0.90225 0.77092 0.0
H343 H 0.17964 0.90987 0.758 0.0
H344 H 0.32715 0.74756 0.85475 0.0
H345 H 0.29471 0.79011 0.8033 0.0
H346 H 0.27716 0.91857 0.92469 0.0
H347 H 0.30942 0.87504 0.97651 0.0
H348 H 0.24861 0.90476 0.8524 0.0
H349 H 0.27667 0.86867 0.75672 0.0
H350 H 0.25959 0.91976 0.67923 0.0
H351 H 0.22469 0.93952 0.6261 0.0
C352 C 0.3402 0.88943 0.2017 0.0
C353 C 0.33335 0.871 0.1524 0.0
C354 C 0.3233 0.91374 0.23569 0.0
C355 C 0.29948 0.92086 0.22029 0.0
C356 C 0.29328 0.90678 0.16967 0.0
C357 C 0.30992 0.8812 0.13637 0.0
C358 C 0.28011 0.93836 0.25604 0.0
C359 C 0.27972 0.92047 0.30577 0.0
C360 C 0.25781 0.92123 0.33781 0.0
C361 C 0.25987 0.91772 0.39141 0.0
C362 C 0.23975 0.90985 0.42233 0.0
C363 C 0.21713 0.90441 0.40018 0.0
H364 H 0.23243 0.91882 0.27491 0.0
C365 C 0.21497 0.9099 0.34676 0.0
C366 C 0.23499 0.91809 0.31593 0.0
H367 H 0.19775 0.90675 0.32861 0.0
H368 H 0.35819 0.88165 0.21487 0.0
H369 H 0.3288 0.92553 0.27412 0.0
H370 H 0.27513 0.9122 0.15664 0.0
H371 H 0.30427 0.86741 0.09844 0.0
H372 H 0.26445 0.95971 0.23903 0.0
H373 H 0.29547 0.89965 0.32288 0.0
H374 H 0.27718 0.91942 0.40939 0.0
H375 H 0.24198 0.90557 0.46338 0.0
C376 C 0.07833 0.04379 0.22887 0.0
C377 C 0.09345 0.05581 0.27044 0.0
C378 C 0.05438 0.06114 0.23059 0.0
C379 C 0.04503 0.09152 0.27384 0.0
C380 C 0.05977 0.09955 0.31659 0.0
C381 C 0.08366 0.08201 0.31497 0.0
C382 C 0.02016 0.11543 0.27605 0.0
C383 C 1.00717 0.12983 0.23413 0.0
C384 C 0.98225 0.15274 0.23618 0.0
C385 C 0.96689 0.1378 0.19582 0.0
C386 C 0.94286 0.1535 0.19817 0.0
C387 C 0.93366 0.18559 0.24059 0.0
H388 H 0.98497 0.20296 0.30797 0.0
C389 C 0.94941 0.20522 0.27904 0.0
C390 C 0.97346 0.18857 0.27707 0.0
H391 H 0.94298 0.23041 0.31206 0.0
H392 H 0.08515 0.02257 0.19436 0.0
H393 H 0.04338 0.05092 0.19783 0.0
H394 H 0.05298 0.12143 0.35089 0.0
H395 H 0.09462 0.09132 0.34809 0.0
H396 H 1.01259 0.12279 0.31374 0.0
H397 H 1.01455 0.12217 0.19649 0.0
H398 H 0.97326 0.1112 0.16343 0.0
H399 H 0.93127 0.138 0.16771 0.0
C400 C 0.45534 0.17189 0.73739 0.0
C401 C 0.44709 0.15965 0.68762 0.0
C402 C 0.47918 0.1875 0.74597 0.0
C403 C 0.49536 0.19107 0.70486 0.0
C404 C 0.48742 0.17399 0.65596 0.0
C405 C 0.46365 0.15855 0.6474 0.0
C406 C 0.52025 0.2146 0.71014 0.0
C407 C 0.52851 0.2469 0.7507 0.0
C408 C 0.55249 0.27676 0.75233 0.0
C409 C 0.56283 0.28938 0.80009 0.0
C410 C 0.58448 0.32156 0.80334 0.0
C411 C 0.59612 0.34291 0.75879 0.0
H412 H 0.55684 0.28994 0.67014 0.0
C413 C 0.58594 0.32969 0.71095 0.0
C414 C 0.56442 0.29702 0.70768 0.0
H415 H 0.59442 0.34549 0.67586 0.0
H416 H 0.44314 0.17286 0.76939 0.0
H417 H 0.48452 0.19803 0.78466 0.0
H418 H 0.49943 0.17533 0.62359 0.0
H419 H 0.45804 0.14907 0.60857 0.0
H420 H 0.53192 0.2075 0.67767 0.0
H421 H 0.51734 0.25344 0.78397 0.0
H422 H 0.55399 0.27489 0.83514 0.0
H423 H 0.59173 0.3313 0.84083 0.0
C424 C 0.08785 0.70262 0.67336 0.0
C425 C 0.0925 0.76414 0.65516 0.0
C426 C 0.06798 0.69005 0.70407 0.0
C427 C 0.05224 0.73888 0.71713 0.0
C428 C 0.05677 0.80003 0.69837 0.0
C429 C 0.07654 0.81253 0.66775 0.0
C430 C 0.03172 0.72941 0.7523 0.0
C431 C 0.02167 0.67304 0.76304 0.0
C432 C 1.00115 0.66577 0.79853 0.0
C433 C 0.98543 0.6151 0.79204 0.0
C434 C 0.9658 0.60738 0.82429 0.0
C435 C 0.96156 0.6499 0.86423 0.0
H436 H 1.00944 0.74569 0.84683 0.0
C437 C 0.97767 0.69971 0.87151 0.0
C438 C 0.99724 0.70748 0.83921 0.0
H439 H 0.97535 0.7324 0.90259 0.0
H440 H 0.09971 0.66424 0.66432 0.0
H441 H 0.06551 0.64249 0.71852 0.0
H442 H 0.04511 0.83871 0.70805 0.0
H443 H 0.07964 0.86075 0.65549 0.0
H444 H 0.02404 0.77162 0.76864 0.0
H445 H 0.02771 0.63118 0.74342 0.0
H446 H 0.98811 0.58191 0.76135 0.0
H447 H 0.95375 0.56872 0.81723 0.0
C448 C 0.46623 0.66301 0.16003 0.0
C449 C 0.44376 0.65244 0.18183 0.0
C450 C 0.48685 0.65451 0.18897 0.0
C451 C 0.48553 0.63598 0.24086 0.0
C452 C 0.46313 0.62229 0.26188 0.0
C453 C 0.44245 0.63049 0.23275 0.0
C454 C 0.50703 0.63098 0.2741 0.0
C455 C 0.52707 0.66435 0.26499 0.0
C456 C 0.54877 0.66393 0.29794 0.0
C457 C 0.56753 0.70431 0.28405 0.0
C458 C 0.58822 0.70705 0.31334 0.0
C459 C 0.59083 0.66944 0.35767 0.0
H460 H 0.53765 0.59338 0.35444 0.0
C461 C 0.57218 0.62845 0.37154 0.0
C462 C 0.55141 0.62559 0.34208 0.0
H463 H 0.57344 0.59908 0.40559 0.0
H464 H 0.46785 0.67842 0.12051 0.0
H465 H 0.50373 0.66268 0.17035 0.0
H466 H 0.46154 0.60709 0.30149 0.0
H467 H 0.42543 0.62206 0.25073 0.0
H468 H 0.50556 0.60173 0.30825 0.0
H469 H 0.52751 0.69613 0.23211 0.0
H470 H 0.56623 0.73418 0.2502 0.0
H471 H 0.60227 0.73834 0.30073 0.0
C472 C 0.062 0.06855 0.09139 0.0
C473 C 0.06094 0.13171 0.10734 0.0
C474 C 0.04154 0.03665 0.07651 0.0
C475 C 0.01937 0.06683 0.07706 0.0
C476 C 0.01844 0.13125 0.0888 0.0
C477 C 0.039 0.16327 0.10431 0.0
C478 C 0.99719 0.03064 0.0672 0.0
C479 C 0.99476 0.97084 0.08474 0.0
C480 C 0.97409 0.92856 0.07564 0.0
C481 C 0.9726 0.87292 0.10514 0.0
C482 C 0.95545 0.8274 0.09484 0.0
C483 C 0.93923 0.83606 0.05458 0.0
H484 H 0.95797 0.98063 0.01243 0.0
C485 C 0.93992 0.8929 0.02617 0.0
C486 C 0.95727 0.93878 0.03648 0.0
H487 H 0.92771 0.90085 0.99475 0.0
H488 H 0.07834 0.04207 0.09297 0.0
H489 H 0.04305 0.98763 0.06576 0.0
H490 H 1.00164 0.15597 0.08859 0.0
H491 H 0.03758 0.21212 0.11551 0.0
H492 H 0.98261 0.05432 0.04788 0.0
H493 H 1.00896 0.95112 0.10811 0.0
H494 H 0.98522 0.86364 0.1356 0.0
H495 H 0.95535 0.7845 0.1178 0.0
C496 C 0.60167 0.5013 0.62255 0.0
C497 C 0.61277 0.4945 0.57473 0.0
C498 C 0.57993 0.47198 0.6328 0.0
C499 C 0.56885 0.43456 0.59546 0.0
C500 C 0.58082 0.42443 0.54908 0.0
C501 C 0.60251 0.45397 0.53877 0.0
C502 C 0.54408 0.41052 0.60071 0.0
C503 C 0.5308 0.41433 0.64353 0.0
C504 C 0.50508 0.39861 0.64465 0.0
C505 C 0.49456 0.37977 0.69106 0.0
C506 C 0.47023 0.3671 0.69369 0.0
C507 C 0.45576 0.37381 0.65002 0.0
H508 H 0.49784 0.42252 0.56497 0.0
C509 C 0.46628 0.39362 0.60374 0.0
C510 C 0.4906 0.406 0.60108 0.0
H511 H 0.45585 0.39876 0.5692 0.0
H512 H 0.6092 0.53176 0.65134 0.0
H513 H 0.57161 0.4814 0.66914 0.0
H514 H 0.57288 0.39567 0.51963 0.0
H515 H 0.61062 0.44741 0.50162 0.0
H516 H 0.53615 0.39045 0.56667 0.0
H517 H 0.53873 0.4291 0.67924 0.0
H518 H 0.5052 0.37468 0.7254 0.0
H519 H 0.46274 0.35252 0.7301 0.0
C520 C 0.45641 0.8064 0.92762 0.0
C521 C 0.44955 0.81706 0.97855 0.0
C522 C 0.47968 0.78905 0.91592 0.0
C523 C 0.49666 0.7814 0.95503 0.0
C524 C 0.49026 0.79669 1.00538 0.0
C525 C 0.46696 0.8142 0.0171 0.0
C526 C 0.52087 0.75612 0.94493 0.0
C527 C 0.52563 0.71663 0.90599 0.0
C528 C 0.54909 0.68621 0.8966 0.0
C529 C 0.55015 0.63591 0.86208 0.0
C530 C 0.57161 0.60565 0.85168 0.0
C531 C 0.59273 0.625 0.87545 0.0
H532 H 0.57055 0.74527 0.94616 0.0
C533 C 0.59174 0.67564 0.90981 0.0
C534 C 0.57026 0.70603 0.92014 0.0
H535 H 0.60755 0.69172 0.92917 0.0
H536 H 0.44355 0.80907 0.89684 0.0
H537 H 0.48413 0.78059 0.8763 0.0
H538 H 0.50305 0.79232 0.03618 0.0
H539 H 0.46236 0.82235 0.05673 0.0
H540 H 0.53449 0.76651 0.97291 0.0
H541 H 0.51124 0.70278 0.88087 0.0
H542 H 0.53424 0.61975 0.84296 0.0
H543 H 0.57163 0.56766 0.82441 0.0
C544 C 0.07274 0.019 0.57946 0.0
C545 C 0.09316 0.01419 0.5488 0.0
C546 C 0.05064 0.03264 0.55743 0.0
C547 C 0.04845 0.04167 0.5041 0.0
C548 C 0.06908 0.04012 0.47397 0.0
C549 C 0.09112 0.02626 0.49592 0.0
C550 C 0.0252 0.05308 0.47827 0.0
C551 C 1.00402 0.03532 0.4981 0.0
C552 C 0.98066 0.04454 0.47179 0.0
C553 C 0.9604 0.01458 0.49224 0.0
C554 C 0.93803 0.02299 0.46972 0.0
C555 C 0.9353 0.06191 0.4262 0.0
H556 H 0.99263 0.1081 0.41075 0.0
C557 C 0.9556 0.09117 0.40535 0.0
C558 C 0.97789 0.08305 0.42786 0.0
H559 H 0.95436 0.1206 0.37139 0.0
H560 H 0.07365 0.01019 0.62035 0.0
H561 H 0.03539 0.03571 0.58237 0.0
H562 H 0.06806 0.04778 0.43294 0.0
H563 H 0.10645 0.02323 0.4711 0.0
H564 H 0.02601 0.07355 0.4401 0.0
H565 H 1.00366 0.01069 0.53476 0.0
H566 H 0.96184 0.98478 0.52609 0.0
H567 H 0.92282 7e-05 0.48709 0.0
loop_
_geom_bond_atom_site_label_1
_geom_bond_atom_site_label_2
_geom_bond_distance
_geom_bond_site_symmetry_2
_ccdc_geom_bond_type
Cu0 N1 1.999 . S
Cu0 O6 1.974 . S
Cu0 N11 1.985 . S
Cu0 O20 1.959 . S
N1 Cu0 1.999 . S
N1 C3 1.263 . S
N1 C5 1.389 . S
N2 C3 1.358 . S
N2 C4 1.400 . S
C3 N1 1.263 . S
C3 N2 1.358 . S
C3 H9 0.930 . S
C4 N2 1.400 . S
C4 C5 1.351 . S
C4 H21 0.930 . S
C5 N1 1.389 . S
C5 C4 1.351 . S
C5 H10 0.930 . S
O6 Cu0 1.974 . S
O6 C16 1.282 . S
C7 O8 1.261 . S
C7 O20 1.251 . S
O8 C7 1.261 . S
H9 C3 0.930 . S
H10 C5 0.930 . S
N11 Cu0 1.985 . S
N11 C13 1.335 . S
N11 C14 1.390 . S
N12 C13 1.345 . S
N12 C15 1.336 . S
C13 N11 1.335 . S
C13 N12 1.345 . S
C13 H18 0.930 . S
C14 N11 1.390 . S
C14 C15 1.346 . S
C14 H19 0.930 . S
C15 N12 1.336 . S
C15 C14 1.346 . S
C15 H22 0.929 1_554 S
C16 O6 1.282 . S
C16 O17 1.216 . S
O17 C16 1.216 . S
H18 C13 0.930 . S
H19 C14 0.930 . S
O20 Cu0 1.959 . S
O20 C7 1.251 . S
H21 C4 0.930 . S
H22 C15 0.929 1_556 S
Cu23 N24 1.999 . S
Cu23 O29 1.974 . S
Cu23 N34 1.985 . S
Cu23 O43 1.959 . S
N24 Cu23 1.999 . S
N24 C26 1.263 . S
N24 C28 1.389 . S
N25 C26 1.358 . S
N25 C27 1.400 . S
C26 N24 1.263 . S
C26 N25 1.358 . S
C26 H32 0.930 . S
C27 N25 1.400 . S
C27 C28 1.351 . S
C27 H44 0.930 . S
C28 N24 1.389 . S
C28 C27 1.351 . S
C28 H33 0.930 . S
O29 Cu23 1.974 . S
O29 C39 1.282 . S
C30 O31 1.261 . S
C30 O43 1.251 . S
O31 C30 1.261 . S
H32 C26 0.930 . S
H33 C28 0.930 . S
N34 Cu23 1.985 . S
N34 C36 1.335 . S
N34 C37 1.390 . S
N35 C36 1.345 . S
N35 C38 1.336 . S
C36 N34 1.335 . S
C36 N35 1.345 . S
C36 H41 0.930 . S
C37 N34 1.390 . S
C37 C38 1.346 . S
C37 H42 0.930 . S
C38 N35 1.336 . S
C38 C37 1.346 . S
C38 H45 0.929 . S
C39 O29 1.282 . S
C39 O40 1.216 . S
O40 C39 1.216 . S
H41 C36 0.930 . S
H42 C37 0.930 . S
O43 Cu23 1.959 . S
O43 C30 1.251 . S
H44 C27 0.930 . S
H45 C38 0.929 . S
Cu46 N47 1.999 . S
Cu46 O52 1.974 . S
Cu46 N57 1.985 . S
Cu46 O66 1.959 . S
N47 Cu46 1.999 . S
N47 C49 1.263 . S
N47 C51 1.389 . S
N48 C49 1.358 . S
N48 C50 1.400 . S
C49 N47 1.263 . S
C49 N48 1.358 . S
C49 H55 0.930 . S
C50 N48 1.400 . S
C50 C51 1.351 . S
C50 H67 0.930 . S
C51 N47 1.389 . S
C51 C50 1.351 . S
C51 H56 0.930 . S
O52 Cu46 1.974 . S
O52 C62 1.282 . S
C53 O54 1.261 . S
C53 O66 1.251 . S
O54 C53 1.261 . S
H55 C49 0.930 . S
H56 C51 0.930 . S
N57 Cu46 1.985 . S
N57 C59 1.335 . S
N57 C60 1.390 . S
N58 C59 1.345 . S
N58 C61 1.336 . S
C59 N57 1.335 . S
C59 N58 1.345 . S
C59 H64 0.930 . S
C60 N57 1.390 . S
C60 C61 1.346 . S
C60 H65 0.930 . S
C61 N58 1.336 . S
C61 C60 1.346 . S
C61 H68 0.929 1_556 S
C62 O52 1.282 . S
C62 O63 1.216 . S
O63 C62 1.216 . S
H64 C59 0.930 . S
H65 C60 0.930 . S
O66 Cu46 1.959 . S
O66 C53 1.251 . S
H67 C50 0.930 . S
H68 C61 0.929 1_554 S
Cu69 N70 1.999 . S
Cu69 O75 1.974 . S
Cu69 N80 1.985 . S
Cu69 O89 1.959 . S
N70 Cu69 1.999 . S
N70 C72 1.263 . S
N70 C74 1.389 . S
N71 C72 1.358 . S
N71 C73 1.400 . S
C72 N70 1.263 . S
C72 N71 1.358 . S
C72 H78 0.930 . S
C73 N71 1.400 . S
C73 C74 1.351 . S
C73 H90 0.930 . S
C74 N70 1.389 . S
C74 C73 1.351 . S
C74 H79 0.930 . S
O75 Cu69 1.974 . S
O75 C85 1.282 . S
C76 O77 1.261 . S
C76 O89 1.251 . S
O77 C76 1.261 . S
H78 C72 0.930 . S
H79 C74 0.930 . S
N80 Cu69 1.985 . S
N80 C82 1.335 . S
N80 C83 1.390 . S
N81 C82 1.345 . S
N81 C84 1.336 . S
C82 N80 1.335 . S
C82 N81 1.345 . S
C82 H87 0.930 . S
C83 N80 1.390 . S
C83 C84 1.346 . S
C83 H88 0.930 . S
C84 N81 1.336 . S
C84 C83 1.346 . S
C84 H91 0.929 . S
C85 O75 1.282 . S
C85 O86 1.216 . S
O86 C85 1.216 . S
H87 C82 0.930 . S
H88 C83 0.930 . S
O89 Cu69 1.959 . S
O89 C76 1.251 . S
H90 C73 0.930 . S
H91 C84 0.929 . S
Cu92 N93 1.999 . S
Cu92 O98 1.974 . S
Cu92 N103 1.985 . S
Cu92 O112 1.959 . S
N93 Cu92 1.999 . S
N93 C95 1.263 . S
N93 C97 1.389 . S
N94 C95 1.358 . S
N94 C96 1.400 . S
C95 N93 1.263 . S
C95 N94 1.358 . S
C95 H101 0.930 . S
C96 N94 1.400 . S
C96 C97 1.351 . S
C96 H113 0.930 . S
C97 N93 1.389 . S
C97 C96 1.351 . S
C97 H102 0.930 . S
O98 Cu92 1.974 . S
O98 C108 1.282 . S
C99 O100 1.261 . S
C99 O112 1.251 . S
O100 C99 1.261 . S
H101 C95 0.930 . S
H102 C97 0.930 . S
N103 Cu92 1.985 . S
N103 C105 1.335 . S
N103 C106 1.390 1_556 S
N104 C105 1.345 1_554 S
N104 C107 1.336 . S
C105 N103 1.335 . S
C105 N104 1.345 1_556 S
C105 H110 0.930 . S
C106 N103 1.390 1_554 S
C106 C107 1.346 . S
C106 H111 0.930 . S
C107 N104 1.336 . S
C107 C106 1.346 . S
C107 H114 0.929 . S
C108 O98 1.282 . S
C108 O109 1.216 . S
O109 C108 1.216 . S
H110 C105 0.930 . S
H111 C106 0.930 . S
O112 Cu92 1.959 . S
O112 C99 1.251 . S
H113 C96 0.930 . S
H114 C107 0.929 . S
Cu115 N116 1.999 . S
Cu115 O121 1.974 . S
Cu115 N126 1.985 . S
Cu115 O135 1.959 . S
N116 Cu115 1.999 . S
N116 C118 1.263 . S
N116 C120 1.389 . S
N117 C118 1.358 . S
N117 C119 1.400 . S
C118 N116 1.263 . S
C118 N117 1.358 . S
C118 H124 0.930 . S
C119 N117 1.400 . S
C119 C120 1.351 . S
C119 H136 0.930 . S
C120 N116 1.389 . S
C120 C119 1.351 . S
C120 H125 0.930 . S
O121 Cu115 1.974 . S
O121 C131 1.282 . S
C122 O123 1.261 . S
C122 O135 1.251 . S
O123 C122 1.261 . S
H124 C118 0.930 . S
H125 C120 0.930 . S
N126 Cu115 1.985 . S
N126 C128 1.335 . S
N126 C129 1.390 . S
N127 C128 1.345 . S
N127 C130 1.336 . S
C128 N126 1.335 . S
C128 N127 1.345 . S
C128 H133 0.930 . S
C129 N126 1.390 . S
C129 C130 1.346 . S
C129 H134 0.930 . S
C130 N127 1.336 . S
C130 C129 1.346 . S
C130 H137 0.929 . S
C131 O121 1.282 . S
C131 O132 1.216 . S
O132 C131 1.216 . S
H133 C128 0.930 . S
H134 C129 0.930 . S
O135 Cu115 1.959 . S
O135 C122 1.251 . S
H136 C119 0.930 . S
H137 C130 0.929 . S
Cu138 N139 1.999 . S
Cu138 O144 1.974 . S
Cu138 N149 1.985 . S
Cu138 O158 1.959 . S
N139 Cu138 1.999 . S
N139 C141 1.263 . S
N139 C143 1.389 . S
N140 C141 1.358 . S
N140 C142 1.400 . S
C141 N139 1.263 . S
C141 N140 1.358 . S
C141 H147 0.930 . S
C142 N140 1.400 . S
C142 C143 1.351 . S
C142 H159 0.930 . S
C143 N139 1.389 . S
C143 C142 1.351 . S
C143 H148 0.930 1_565 S
O144 Cu138 1.974 . S
O144 C154 1.282 . S
C145 O146 1.261 . S
C145 O158 1.251 . S
O146 C145 1.261 . S
H147 C141 0.930 . S
H148 C143 0.930 1_545 S
N149 Cu138 1.985 . S
N149 C151 1.335 . S
N149 C152 1.390 1_554 S
N150 C151 1.345 1_556 S
N150 C153 1.336 . S
C151 N149 1.335 . S
C151 N150 1.345 1_554 S
C151 H156 0.930 1_565 S
C152 N149 1.390 1_556 S
C152 C153 1.346 . S
C152 H157 0.930 . S
C153 N150 1.336 . S
C153 C152 1.346 . S
C153 H160 0.929 . S
C154 O144 1.282 . S
C154 O155 1.216 . S
O155 C154 1.216 . S
H156 C151 0.930 1_545 S
H157 C152 0.930 . S
O158 Cu138 1.959 . S
O158 C145 1.251 . S
H159 C142 0.930 . S
H160 C153 0.929 . S
Cu161 N162 1.999 . S
Cu161 O167 1.974 . S
Cu161 N172 1.985 . S
Cu161 O181 1.959 . S
N162 Cu161 1.999 . S
N162 C164 1.263 . S
N162 C166 1.389 . S
N163 C164 1.358 . S
N163 C165 1.400 . S
C164 N162 1.263 . S
C164 N163 1.358 . S
C164 H170 0.930 . S
C165 N163 1.400 . S
C165 C166 1.351 . S
C165 H182 0.930 . S
C166 N162 1.389 . S
C166 C165 1.351 . S
C166 H171 0.930 . S
O167 Cu161 1.974 . S
O167 C177 1.282 1_565 S
C168 O169 1.261 1_565 S
C168 O181 1.251 . S
O169 C168 1.261 1_545 S
H170 C164 0.930 . S
H171 C166 0.930 . S
N172 Cu161 1.985 . S
N172 C174 1.335 . S
N172 C175 1.390 1_565 S
N173 C174 1.345 1_545 S
N173 C176 1.336 . S
C174 N172 1.335 . S
C174 N173 1.345 1_565 S
C174 H179 0.930 . S
C175 N172 1.390 1_545 S
C175 C176 1.346 . S
C175 H180 0.930 . S
C176 N173 1.336 . S
C176 C175 1.346 . S
C176 H183 0.929 . S
C177 O167 1.282 1_545 S
C177 O178 1.216 . S
O178 C177 1.216 . S
H179 C174 0.930 . S
H180 C175 0.930 . S
O181 Cu161 1.959 . S
O181 C168 1.251 . S
H182 C165 0.930 . S
H183 C176 0.929 . S
C184 C185 1.386 . S
C184 C186 1.383 . S
C184 H200 0.951 . S
C185 C184 1.386 . S
C185 C189 1.383 . S
C186 C184 1.383 . S
C186 C187 1.402 . S
C186 H201 0.951 . S
C187 C186 1.402 . S
C187 C188 1.375 . S
C187 C190 1.481 . S
C188 C187 1.375 . S
C188 C189 1.367 . S
C188 H202 0.951 . S
C189 C185 1.383 . S
C189 C188 1.367 . S
C189 H203 0.950 . S
C190 C187 1.481 . S
C190 C191 1.297 . S
C190 H204 0.950 . S
C191 C190 1.297 . S
C191 C192 1.479 . S
C191 H205 0.950 . S
C192 C191 1.479 . S
C192 C193 1.375 . S
C192 C198 1.404 1_556 S
C193 C192 1.375 . S
C193 C194 1.369 . S
C193 H206 0.950 . S
C194 C193 1.369 . S
C194 C195 1.392 1_556 S
C194 H207 0.951 . S
C195 C194 1.392 1_554 S
C195 C197 1.384 . S
H196 C198 0.949 . S
C197 C195 1.384 . S
C197 C198 1.385 . S
C197 H199 0.950 . S
C198 C192 1.404 1_554 S
C198 H196 0.949 . S
C198 C197 1.385 . S
H199 C197 0.950 . S
H200 C184 0.951 . S
H201 C186 0.951 . S
H202 C188 0.951 . S
H203 C189 0.950 . S
H204 C190 0.950 . S
H205 C191 0.950 . S
H206 C193 0.950 . S
H207 C194 0.951 . S
C208 C209 1.386 . S
C208 C210 1.383 . S
C208 H224 0.951 . S
C209 C208 1.386 . S
C209 C213 1.383 . S
C210 C208 1.383 . S
C210 C211 1.402 . S
C210 H225 0.951 . S
C211 C210 1.402 . S
C211 C212 1.375 . S
C211 C214 1.481 . S
C212 C211 1.375 . S
C212 C213 1.367 . S
C212 H226 0.951 . S
C213 C209 1.383 . S
C213 C212 1.367 . S
C213 H227 0.950 . S
C214 C211 1.481 . S
C214 C215 1.297 . S
C214 H228 0.950 . S
C215 C214 1.297 . S
C215 C216 1.479 . S
C215 H229 0.950 . S
C216 C215 1.479 . S
C216 C217 1.375 . S
C216 C222 1.404 . S
C217 C216 1.375 . S
C217 C218 1.369 . S
C217 H230 0.950 . S
C218 C217 1.369 . S
C218 C219 1.392 . S
C218 H231 0.951 . S
C219 C218 1.392 . S
C219 C221 1.384 . S
H220 C222 0.949 . S
C221 C219 1.384 . S
C221 C222 1.385 . S
C221 H223 0.950 . S
C222 C216 1.404 . S
C222 H220 0.949 . S
C222 C221 1.385 . S
H223 C221 0.950 . S
H224 C208 0.951 . S
H225 C210 0.951 . S
H226 C212 0.951 . S
H227 C213 0.950 . S
H228 C214 0.950 . S
H229 C215 0.950 . S
H230 C217 0.950 . S
H231 C218 0.951 . S
C232 C233 1.386 . S
C232 C234 1.383 . S
C232 H248 0.951 . S
C233 C232 1.386 . S
C233 C237 1.383 . S
C234 C232 1.383 . S
C234 C235 1.402 . S
C234 H249 0.951 . S
C235 C234 1.402 . S
C235 C236 1.375 . S
C235 C238 1.481 . S
C236 C235 1.375 . S
C236 C237 1.367 . S
C236 H250 0.951 . S
C237 C233 1.383 . S
C237 C236 1.367 . S
C237 H251 0.950 . S
C238 C235 1.481 . S
C238 C239 1.297 . S
C238 H252 0.950 . S
C239 C238 1.297 . S
C239 C240 1.479 . S
C239 H253 0.950 . S
C240 C239 1.479 . S
C240 C241 1.375 . S
C240 C246 1.404 1_554 S
C241 C240 1.375 . S
C241 C242 1.369 1_554 S
C241 H254 0.950 . S
C242 C241 1.369 1_556 S
C242 C243 1.392 . S
C242 H255 0.951 . S
C243 C242 1.392 . S
C243 C245 1.384 . S
H244 C246 0.949 . S
C245 C243 1.384 . S
C245 C246 1.385 . S
C245 H247 0.950 . S
C246 C240 1.404 1_556 S
C246 H244 0.949 . S
C246 C245 1.385 . S
H247 C245 0.950 . S
H248 C232 0.951 . S
H249 C234 0.951 . S
H250 C236 0.951 . S
H251 C237 0.950 . S
H252 C238 0.950 . S
H253 C239 0.950 . S
H254 C241 0.950 . S
H255 C242 0.951 . S
C256 C257 1.386 . S
C256 C258 1.383 . S
C256 H272 0.951 . S
C257 C256 1.386 . S
C257 C261 1.383 . S
C258 C256 1.383 . S
C258 C259 1.402 . S
C258 H273 0.951 . S
C259 C258 1.402 . S
C259 C260 1.375 . S
C259 C262 1.481 . S
C260 C259 1.375 . S
C260 C261 1.367 . S
C260 H274 0.951 . S
C261 C257 1.383 . S
C261 C260 1.367 . S
C261 H275 0.950 . S
C262 C259 1.481 . S
C262 C263 1.297 . S
C262 H276 0.950 . S
C263 C262 1.297 . S
C263 C264 1.479 . S
C263 H277 0.950 . S
C264 C263 1.479 . S
C264 C265 1.375 . S
C264 C270 1.404 . S
C265 C264 1.375 . S
C265 C266 1.369 . S
C265 H278 0.950 . S
C266 C265 1.369 . S
C266 C267 1.392 . S
C266 H279 0.951 . S
C267 C266 1.392 . S
C267 C269 1.384 . S
H268 C270 0.949 . S
C269 C267 1.384 . S
C269 C270 1.385 . S
C269 H271 0.950 . S
C270 C264 1.404 . S
C270 H268 0.949 . S
C270 C269 1.385 . S
H271 C269 0.950 . S
H272 C256 0.951 . S
H273 C258 0.951 . S
H274 C260 0.951 . S
H275 C261 0.950 . S
H276 C262 0.950 . S
H277 C263 0.950 . S
H278 C265 0.950 . S
H279 C266 0.951 . S
C280 C281 1.386 . S
C280 C282 1.383 . S
C280 H296 0.951 . S
C281 C280 1.386 . S
C281 C285 1.383 . S
C282 C280 1.383 . S
C282 C283 1.402 . S
C282 H297 0.951 . S
C283 C282 1.402 . S
C283 C284 1.375 . S
C283 C286 1.481 . S
C284 C283 1.375 . S
C284 C285 1.367 . S
C284 H298 0.951 . S
C285 C281 1.383 . S
C285 C284 1.367 . S
C285 H299 0.950 . S
C286 C283 1.481 . S
C286 C287 1.297 . S
C286 H300 0.950 . S
C287 C286 1.297 . S
C287 C288 1.479 . S
C287 H301 0.950 . S
C288 C287 1.479 . S
C288 C289 1.375 . S
C288 C294 1.404 . S
C289 C288 1.375 . S
C289 C290 1.369 . S
C289 H302 0.950 . S
C290 C289 1.369 . S
C290 C291 1.392 . S
C290 H303 0.951 . S
C291 C290 1.392 . S
C291 C293 1.384 . S
H292 C294 0.949 . S
C293 C291 1.384 . S
C293 C294 1.385 . S
C293 H295 0.950 . S
C294 C288 1.404 . S
C294 H292 0.949 . S
C294 C293 1.385 . S
H295 C293 0.950 . S
H296 C280 0.951 . S
H297 C282 0.951 . S
H298 C284 0.951 . S
H299 C285 0.950 . S
H300 C286 0.950 . S
H301 C287 0.950 . S
H302 C289 0.950 . S
H303 C290 0.951 . S
C304 C305 1.386 . S
C304 C306 1.383 . S
C304 H320 0.951 . S
C305 C304 1.386 . S
C305 C309 1.383 . S
C306 C304 1.383 . S
C306 C307 1.402 . S
C306 H321 0.951 . S
C307 C306 1.402 . S
C307 C308 1.375 . S
C307 C310 1.481 . S
C308 C307 1.375 . S
C308 C309 1.367 . S
C308 H322 0.951 . S
C309 C305 1.383 . S
C309 C308 1.367 . S
C309 H323 0.950 . S
C310 C307 1.481 . S
C310 C311 1.297 . S
C310 H324 0.950 . S
C311 C310 1.297 . S
C311 C312 1.479 . S
C311 H325 0.950 . S
C312 C311 1.479 . S
C312 C313 1.375 . S
C312 C318 1.404 . S
C313 C312 1.375 . S
C313 C314 1.369 . S
C313 H326 0.950 . S
C314 C313 1.369 . S
C314 C315 1.392 . S
C314 H327 0.951 . S
C315 C314 1.392 . S
C315 C317 1.384 . S
H316 C318 0.949 . S
C317 C315 1.384 . S
C317 C318 1.385 . S
C317 H319 0.950 . S
C318 C312 1.404 . S
C318 H316 0.949 . S
C318 C317 1.385 . S
H319 C317 0.950 . S
H320 C304 0.951 . S
H321 C306 0.951 . S
H322 C308 0.951 . S
H323 C309 0.950 . S
H324 C310 0.950 . S
H325 C311 0.950 . S
H326 C313 0.950 . S
H327 C314 0.951 . S
C328 C329 1.386 . S
C328 C330 1.383 . S
C328 H344 0.951 1_565 S
C329 C328 1.386 . S
C329 C333 1.383 . S
C330 C328 1.383 . S
C330 C331 1.402 . S
C330 H345 0.951 . S
C331 C330 1.402 . S
C331 C332 1.375 . S
C331 C334 1.481 . S
C332 C331 1.375 . S
C332 C333 1.367 . S
C332 H346 0.951 . S
C333 C329 1.383 . S
C333 C332 1.367 . S
C333 H347 0.950 . S
C334 C331 1.481 . S
C334 C335 1.297 . S
C334 H348 0.950 . S
C335 C334 1.297 . S
C335 C336 1.479 . S
C335 H349 0.950 . S
C336 C335 1.479 . S
C336 C337 1.375 . S
C336 C342 1.404 . S
C337 C336 1.375 . S
C337 C338 1.369 . S
C337 H350 0.950 . S
C338 C337 1.369 . S
C338 C339 1.392 . S
C338 H351 0.951 . S
C339 C338 1.392 . S
C339 C341 1.384 . S
H340 C342 0.949 . S
C341 C339 1.384 . S
C341 C342 1.385 . S
C341 H343 0.950 . S
C342 C336 1.404 . S
C342 H340 0.949 . S
C342 C341 1.385 . S
H343 C341 0.950 . S
H344 C328 0.951 1_545 S
H345 C330 0.951 . S
H346 C332 0.951 . S
H347 C333 0.950 . S
H348 C334 0.950 . S
H349 C335 0.950 . S
H350 C337 0.950 . S
H351 C338 0.951 . S
C352 C353 1.386 . S
C352 C354 1.383 . S
C352 H368 0.951 . S
C353 C352 1.386 . S
C353 C357 1.383 . S
C354 C352 1.383 . S
C354 C355 1.402 . S
C354 H369 0.951 . S
C355 C354 1.402 . S
C355 C356 1.375 . S
C355 C358 1.481 1_565 S
C356 C355 1.375 . S
C356 C357 1.367 . S
C356 H370 0.951 . S
C357 C353 1.383 . S
C357 C356 1.367 . S
C357 H371 0.950 . S
C358 C355 1.481 1_545 S
C358 C359 1.297 . S
C358 H372 0.950 . S
C359 C358 1.297 . S
C359 C360 1.479 . S
C359 H373 0.950 . S
C360 C359 1.479 . S
C360 C361 1.375 . S
C360 C366 1.404 . S
C361 C360 1.375 . S
C361 C362 1.369 . S
C361 H374 0.950 . S
C362 C361 1.369 . S
C362 C363 1.392 . S
C362 H375 0.949 1_545 S
C363 C362 1.392 . S
C363 C365 1.384 . S
H364 C366 0.949 . S
C365 C363 1.384 . S
C365 C366 1.385 . S
C365 H367 0.950 . S
C366 C360 1.404 . S
C366 H364 0.949 . S
C366 C365 1.385 . S
H367 C365 0.950 . S
H368 C352 0.951 . S
H369 C354 0.951 . S
H370 C356 0.951 . S
H371 C357 0.950 . S
H372 C358 0.950 . S
H373 C359 0.950 . S
H374 C361 0.950 . S
H375 C362 0.949 1_565 S
C376 C377 1.386 . S
C376 C378 1.383 . S
C376 H392 0.951 . S
C377 C376 1.386 . S
C377 C381 1.383 . S
C378 C376 1.383 . S
C378 C379 1.402 . S
C378 H393 0.951 . S
C379 C378 1.402 . S
C379 C380 1.375 . S
C379 C382 1.455 1_455 S
C380 C379 1.375 . S
C380 C381 1.367 . S
C380 H394 0.951 . S
C381 C377 1.383 . S
C381 C380 1.367 . S
C381 H395 0.950 . S
C382 C379 1.455 1_655 S
C382 C383 1.322 . S
C382 H396 0.951 . S
C383 C382 1.322 . S
C383 C384 1.479 . S
C383 H397 0.950 . S
C384 C383 1.479 . S
C384 C385 1.375 . S
C384 C390 1.404 . S
C385 C384 1.375 . S
C385 C386 1.369 . S
C385 H398 0.950 . S
C386 C385 1.369 . S
C386 C387 1.392 . S
C386 H399 0.951 . S
C387 C386 1.392 . S
C387 C389 1.384 . S
H388 C390 0.949 . S
C389 C387 1.384 . S
C389 C390 1.385 . S
C389 H391 0.950 . S
C390 C384 1.404 . S
C390 H388 0.949 . S
C390 C389 1.385 . S
H391 C389 0.950 . S
H392 C376 0.951 . S
H393 C378 0.951 . S
H394 C380 0.951 . S
H395 C381 0.950 . S
H396 C382 0.951 . S
H397 C383 0.950 . S
H398 C385 0.950 . S
H399 C386 0.951 . S
C400 C401 1.386 . S
C400 C402 1.383 . S
C400 H416 0.951 . S
C401 C400 1.386 . S
C401 C405 1.383 . S
C402 C400 1.383 . S
C402 C403 1.402 . S
C402 H417 0.951 . S
C403 C402 1.402 . S
C403 C404 1.375 . S
C403 C406 1.481 . S
C404 C403 1.375 . S
C404 C405 1.367 . S
C404 H418 0.951 . S
C405 C401 1.383 . S
C405 C404 1.367 . S
C405 H419 0.950 . S
C406 C403 1.481 . S
C406 C407 1.297 . S
C406 H420 0.950 . S
C407 C406 1.297 . S
C407 C408 1.479 . S
C407 H421 0.950 . S
C408 C407 1.479 . S
C408 C409 1.375 . S
C408 C414 1.404 . S
C409 C408 1.375 . S
C409 C410 1.369 . S
C409 H422 0.950 . S
C410 C409 1.369 . S
C410 C411 1.392 . S
C410 H423 0.951 . S
C411 C410 1.392 . S
C411 C413 1.384 . S
H412 C414 0.949 . S
C413 C411 1.384 . S
C413 C414 1.385 . S
C413 H415 0.950 . S
C414 C408 1.404 . S
C414 H412 0.949 . S
C414 C413 1.385 . S
H415 C413 0.950 . S
H416 C400 0.951 . S
H417 C402 0.951 . S
H418 C404 0.951 . S
H419 C405 0.950 . S
H420 C406 0.950 . S
H421 C407 0.950 . S
H422 C409 0.950 . S
H423 C410 0.951 . S
C424 C425 1.386 . S
C424 C426 1.383 . S
C424 H440 0.951 . S
C425 C424 1.386 . S
C425 C429 1.383 . S
C426 C424 1.383 . S
C426 C427 1.402 . S
C426 H441 0.951 . S
C427 C426 1.402 . S
C427 C428 1.375 . S
C427 C430 1.481 . S
C428 C427 1.375 . S
C428 C429 1.367 . S
C428 H442 0.951 . S
C429 C425 1.383 . S
C429 C428 1.367 . S
C429 H443 0.950 . S
C430 C427 1.481 . S
C430 C431 1.297 . S
C430 H444 0.950 . S
C431 C430 1.297 . S
C431 C432 1.479 1_455 S
C431 H445 0.950 . S
C432 C431 1.479 1_655 S
C432 C433 1.375 . S
C432 C438 1.404 . S
C433 C432 1.375 . S
C433 C434 1.369 . S
C433 H446 0.950 . S
C434 C433 1.369 . S
C434 C435 1.392 . S
C434 H447 0.951 . S
C435 C434 1.392 . S
C435 C437 1.384 . S
H436 C438 0.949 . S
C437 C435 1.384 . S
C437 C438 1.385 . S
C437 H439 0.950 . S
C438 C432 1.404 . S
C438 H436 0.949 . S
C438 C437 1.385 . S
H439 C437 0.950 . S
H440 C424 0.951 . S
H441 C426 0.951 . S
H442 C428 0.951 . S
H443 C429 0.950 . S
H444 C430 0.950 . S
H445 C431 0.950 . S
H446 C433 0.950 . S
H447 C434 0.951 . S
C448 C449 1.386 . S
C448 C450 1.383 . S
C448 H464 0.951 . S
C449 C448 1.386 . S
C449 C453 1.383 . S
C450 C448 1.383 . S
C450 C451 1.402 . S
C450 H465 0.951 . S
C451 C450 1.402 . S
C451 C452 1.375 . S
C451 C454 1.481 . S
C452 C451 1.375 . S
C452 C453 1.367 . S
C452 H466 0.951 . S
C453 C449 1.383 . S
C453 C452 1.367 . S
C453 H467 0.950 . S
C454 C451 1.481 . S
C454 C455 1.297 . S
C454 H468 0.950 . S
C455 C454 1.297 . S
C455 C456 1.479 . S
C455 H469 0.950 . S
C456 C455 1.479 . S
C456 C457 1.375 . S
C456 C462 1.404 . S
C457 C456 1.375 . S
C457 C458 1.369 . S
C457 H470 0.950 . S
C458 C457 1.369 . S
C458 C459 1.392 . S
C458 H471 0.951 . S
C459 C458 1.392 . S
C459 C461 1.384 . S
H460 C462 0.949 . S
C461 C459 1.384 . S
C461 C462 1.385 . S
C461 H463 0.950 . S
C462 C456 1.404 . S
C462 H460 0.949 . S
C462 C461 1.385 . S
H463 C461 0.950 . S
H464 C448 0.951 . S
H465 C450 0.951 . S
H466 C452 0.951 . S
H467 C453 0.950 . S
H468 C454 0.950 . S
H469 C455 0.950 . S
H470 C457 0.950 . S
H471 C458 0.951 . S
C472 C473 1.386 . S
C472 C474 1.383 . S
C472 H488 0.951 . S
C473 C472 1.386 . S
C473 C477 1.389 . S
C474 C472 1.383 . S
C474 C475 1.402 . S
C474 H489 0.951 1_455 S
C475 C474 1.402 . S
C475 C476 1.375 1_554 S
C475 C478 1.481 1_454 S
C476 C475 1.375 1_556 S
C476 C477 1.365 1_556 S
C476 H490 0.951 . S
C477 C473 1.389 . S
C477 C476 1.365 1_554 S
C477 H491 0.946 1_554 S
C478 C475 1.481 1_656 S
C478 C479 1.297 1_556 S
C478 H492 0.950 . S
C479 C478 1.297 1_554 S
C479 C480 1.479 . S
C479 H493 0.950 . S
C480 C479 1.479 . S
C480 C481 1.375 . S
C480 C486 1.404 1_554 S
C481 C480 1.375 . S
C481 C482 1.369 . S
C481 H494 0.950 . S
C482 C481 1.369 . S
C482 C483 1.392 1_554 S
C482 H495 0.951 . S
C483 C482 1.392 1_556 S
C483 C485 1.384 . S
H484 C486 0.949 . S
C485 C483 1.384 . S
C485 C486 1.385 . S
C485 H487 0.950 . S
C486 C480 1.404 1_556 S
C486 H484 0.949 . S
C486 C485 1.385 . S
H487 C485 0.950 . S
H488 C472 0.951 . S
H489 C474 0.951 1_655 S
H490 C476 0.951 . S
H491 C477 0.946 1_556 S
H492 C478 0.950 . S
H493 C479 0.950 . S
H494 C481 0.950 . S
H495 C482 0.951 . S
C496 C497 1.386 . S
C496 C498 1.383 . S
C496 H512 0.951 . S
C497 C496 1.386 . S
C497 C501 1.383 . S
C498 C496 1.383 . S
C498 C499 1.402 . S
C498 H513 0.951 . S
C499 C498 1.402 . S
C499 C500 1.375 . S
C499 C502 1.481 . S
C500 C499 1.375 . S
C500 C501 1.367 . S
C500 H514 0.951 . S
C501 C497 1.383 . S
C501 C500 1.367 . S
C501 H515 0.950 . S
C502 C499 1.481 . S
C502 C503 1.297 . S
C502 H516 0.950 . S
C503 C502 1.297 . S
C503 C504 1.479 . S
C503 H517 0.950 . S
C504 C503 1.479 . S
C504 C505 1.375 . S
C504 C510 1.404 . S
C505 C504 1.375 . S
C505 C506 1.369 . S
C505 H518 0.950 . S
C506 C505 1.369 . S
C506 C507 1.392 . S
C506 H519 0.951 . S
C507 C506 1.392 . S
C507 C509 1.384 . S
H508 C510 0.949 . S
C509 C507 1.384 . S
C509 C510 1.385 . S
C509 H511 0.950 . S
C510 C504 1.404 . S
C510 H508 0.949 . S
C510 C509 1.385 . S
H511 C509 0.950 . S
H512 C496 0.951 . S
H513 C498 0.951 . S
H514 C500 0.951 . S
H515 C501 0.950 . S
H516 C502 0.950 . S
H517 C503 0.950 . S
H518 C505 0.950 . S
H519 C506 0.951 . S
C520 C521 1.386 1_556 S
C520 C522 1.383 . S
C520 H536 0.951 . S
C521 C520 1.386 1_554 S
C521 C525 1.383 . S
C522 C520 1.383 . S
C522 C523 1.402 . S
C522 H537 0.951 . S
C523 C522 1.402 . S
C523 C524 1.375 1_556 S
C523 C526 1.481 . S
C524 C523 1.375 1_554 S
C524 C525 1.367 . S
C524 H538 0.951 . S
C525 C521 1.383 . S
C525 C524 1.367 . S
C525 H539 0.950 . S
C526 C523 1.481 . S
C526 C527 1.297 . S
C526 H540 0.950 1_556 S
C527 C526 1.297 . S
C527 C528 1.479 . S
C527 H541 0.950 . S
C528 C527 1.479 . S
C528 C529 1.375 . S
C528 C534 1.404 . S
C529 C528 1.375 . S
C529 C530 1.369 . S
C529 H542 0.950 . S
C530 C529 1.369 . S
C530 C531 1.392 . S
C530 H543 0.951 . S
C531 C530 1.392 . S
C531 C533 1.384 . S
H532 C534 0.949 1_554 S
C533 C531 1.384 . S
C533 C534 1.385 . S
C533 H535 0.950 1_556 S
C534 C528 1.404 . S
C534 H532 0.949 1_556 S
C534 C533 1.385 . S
H535 C533 0.950 1_554 S
H536 C520 0.951 . S
H537 C522 0.951 . S
H538 C524 0.951 . S
H539 C525 0.950 . S
H540 C526 0.950 1_554 S
H541 C527 0.950 . S
H542 C529 0.950 . S
H543 C530 0.951 . S
C544 C545 1.386 . S
C544 C546 1.383 . S
C544 H560 0.951 . S
C545 C544 1.386 . S
C545 C549 1.383 . S
C546 C544 1.383 . S
C546 C547 1.402 . S
C546 H561 0.951 . S
C547 C546 1.402 . S
C547 C548 1.375 . S
C547 C550 1.481 . S
C548 C547 1.375 . S
C548 C549 1.367 . S
C548 H562 0.951 . S
C549 C545 1.383 . S
C549 C548 1.367 . S
C549 H563 0.950 . S
C550 C547 1.481 . S
C550 C551 1.297 . S
C550 H564 0.950 . S
C551 C550 1.297 . S
C551 C552 1.479 1_455 S
C551 H565 0.950 . S
C552 C551 1.479 1_655 S
C552 C553 1.375 . S
C552 C558 1.404 . S
C553 C552 1.375 . S
C553 C554 1.369 . S
C553 H566 0.950 . S
C554 C553 1.369 . S
C554 C555 1.392 . S
C554 H567 0.951 . S
C555 C554 1.392 . S
C555 C557 1.384 . S
H556 C558 0.949 . S
C557 C555 1.384 . S
C557 C558 1.385 . S
C557 H559 0.950 . S
C558 C552 1.404 . S
C558 H556 0.949 . S
C558 C557 1.385 . S
H559 C557 0.950 . S
H560 C544 0.951 . S
H561 C546 0.951 . S
H562 C548 0.951 . S
H563 C549 0.950 . S
H564 C550 0.950 . S
H565 C551 0.950 . S
H566 C553 0.950 . S
H567 C554 0.951 . S
C185 N25 1.885 . S
C195 C16 1.978 . S
C209 N2 1.941 . S
C219 C39 2.140 . S
C233 N71 1.874 . S
C243 C62 1.982 . S
C257 N48 1.947 . S
C267 C85 2.132 . S
C281 N104 1.854 . S
C291 C122 1.919 . S
C305 N127 1.981 . S
C315 C99 1.978 . S
C329 N150 1.830 . S
C339 C168 1.933 . S
C353 C145 2.011 . S
C363 N173 1.965 . S
C377 C7 1.246 . S
C387 C76 1.178 . S
C401 C30 1.231 . S
C411 C53 1.165 . S
C425 N163 1.094 . S
C435 N94 1.157 . S
C449 N140 1.168 . S
C459 N117 1.007 . S
C473 N12 1.465 1_565 S
C483 C108 1.357 . S
C497 C131 1.298 . S
C507 N35 1.302 . S
C521 C154 1.435 . S
C531 N58 1.423 . S
C545 C177 1.251 . S
C555 N81 1.319 . S
