# Generated by pormake.
# Topology fcg, (5)-cn, num edge types: 1
# Building blocks:
#     Node 0, Type 0, BuildingBlock: BEQFEK_clean_sbu_0, # of connection points: 5
#     Node 1, Type 0, BuildingBlock: BEQFEK_clean_sbu_0, # of connection points: 5
#     Node 2, Type 0, BuildingBlock: BEQFEK_clean_sbu_0, # of connection points: 5
#     Node 3, Type 0, BuildingBlock: BEQFEK_clean_sbu_0, # of connection points: 5
#     Node 4, Type 0, BuildingBlock: BEQFEK_clean_sbu_0, # of connection points: 5
#     Node 5, Type 0, BuildingBlock: BEQFEK_clean_sbu_0, # of connection points: 5
#     Node 6, Type 0, BuildingBlock: BEQFEK_clean_sbu_0, # of connection points: 5
#     Node 7, Type 0, BuildingBlock: BEQFEK_clean_sbu_0, # of connection points: 5
#     Node 8, Type 0, BuildingBlock: BEQFEK_clean_sbu_0, # of connection points: 5
#     Node 9, Type 0, BuildingBlock: BEQFEK_clean_sbu_0, # of connection points: 5
#     Node 10, Type 0, BuildingBlock: BEQFEK_clean_sbu_0, # of connection points: 5
#     Node 11, Type 0, BuildingBlock: BEQFEK_clean_sbu_0, # of connection points: 5
#     Node 12, Type 0, BuildingBlock: BEQFEK_clean_sbu_0, # of connection points: 5
#     Node 13, Type 0, BuildingBlock: BEQFEK_clean_sbu_0, # of connection points: 5
#     Node 14, Type 0, BuildingBlock: BEQFEK_clean_sbu_0, # of connection points: 5
#     Node 15, Type 0, BuildingBlock: BEQFEK_clean_sbu_0, # of connection points: 5
#     Node 16, Type 0, BuildingBlock: BEQFEK_clean_sbu_0, # of connection points: 5
#     Node 17, Type 0, BuildingBlock: BEQFEK_clean_sbu_0, # of connection points: 5
#     Node 18, Type 0, BuildingBlock: BEQFEK_clean_sbu_0, # of connection points: 5
#     Node 19, Type 0, BuildingBlock: BEQFEK_clean_sbu_0, # of connection points: 5
#     Node 20, Type 0, BuildingBlock: BEQFEK_clean_sbu_0, # of connection points: 5
#     Node 21, Type 0, BuildingBlock: BEQFEK_clean_sbu_0, # of connection points: 5
#     Node 22, Type 0, BuildingBlock: BEQFEK_clean_sbu_0, # of connection points: 5
#     Node 23, Type 0, BuildingBlock: BEQFEK_clean_sbu_0, # of connection points: 5
#     Node 24, Type 0, BuildingBlock: BEQFEK_clean_sbu_0, # of connection points: 5
#     Node 25, Type 0, BuildingBlock: BEQFEK_clean_sbu_0, # of connection points: 5
#     Node 26, Type 0, BuildingBlock: BEQFEK_clean_sbu_0, # of connection points: 5
#     Node 27, Type 0, BuildingBlock: BEQFEK_clean_sbu_0, # of connection points: 5
#     Node 28, Type 0, BuildingBlock: BEQFEK_clean_sbu_0, # of connection points: 5
#     Node 29, Type 0, BuildingBlock: BEQFEK_clean_sbu_0, # of connection points: 5
#     Node 30, Type 0, BuildingBlock: BEQFEK_clean_sbu_0, # of connection points: 5
#     Node 31, Type 0, BuildingBlock: BEQFEK_clean_sbu_0, # of connection points: 5
#     Node 32, Type 0, BuildingBlock: BEQFEK_clean_sbu_0, # of connection points: 5
#     Node 33, Type 0, BuildingBlock: BEQFEK_clean_sbu_0, # of connection points: 5
#     Node 34, Type 0, BuildingBlock: BEQFEK_clean_sbu_0, # of connection points: 5
#     Node 35, Type 0, BuildingBlock: BEQFEK_clean_sbu_0, # of connection points: 5
#     Node 36, Type 0, BuildingBlock: BEQFEK_clean_sbu_0, # of connection points: 5
#     Node 37, Type 0, BuildingBlock: BEQFEK_clean_sbu_0, # of connection points: 5
#     Node 38, Type 0, BuildingBlock: BEQFEK_clean_sbu_0, # of connection points: 5
#     Node 39, Type 0, BuildingBlock: BEQFEK_clean_sbu_0, # of connection points: 5
#     Node 40, Type 0, BuildingBlock: BEQFEK_clean_sbu_0, # of connection points: 5
#     Node 41, Type 0, BuildingBlock: BEQFEK_clean_sbu_0, # of connection points: 5
#     Node 42, Type 0, BuildingBlock: BEQFEK_clean_sbu_0, # of connection points: 5
#     Node 43, Type 0, BuildingBlock: BEQFEK_clean_sbu_0, # of connection points: 5
#     Node 44, Type 0, BuildingBlock: BEQFEK_clean_sbu_0, # of connection points: 5
#     Node 45, Type 0, BuildingBlock: BEQFEK_clean_sbu_0, # of connection points: 5
#     Node 46, Type 0, BuildingBlock: BEQFEK_clean_sbu_0, # of connection points: 5
#     Node 47, Type 0, BuildingBlock: BEQFEK_clean_sbu_0, # of connection points: 5
#     Edge 48, Type (0, 0), BuildingBlock: AJUNOK_clean_linker_0, # of connection points: 2
#     Edge 49, Type (0, 0), BuildingBlock: AJUNOK_clean_linker_0, # of connection points: 2
#     Edge 50, Type (0, 0), BuildingBlock: AJUNOK_clean_linker_0, # of connection points: 2
#     Edge 51, Type (0, 0), BuildingBlock: AJUNOK_clean_linker_0, # of connection points: 2
#     Edge 52, Type (0, 0), BuildingBlock: AJUNOK_clean_linker_0, # of connection points: 2
#     Edge 53, Type (0, 0), BuildingBlock: AJUNOK_clean_linker_0, # of connection points: 2
#     Edge 54, Type (0, 0), BuildingBlock: AJUNOK_clean_linker_0, # of connection points: 2
#     Edge 55, Type (0, 0), BuildingBlock: AJUNOK_clean_linker_0, # of connection points: 2
#     Edge 56, Type (0, 0), BuildingBlock: AJUNOK_clean_linker_0, # of connection points: 2
#     Edge 57, Type (0, 0), BuildingBlock: AJUNOK_clean_linker_0, # of connection points: 2
#     Edge 58, Type (0, 0), BuildingBlock: AJUNOK_clean_linker_0, # of connection points: 2
#     Edge 59, Type (0, 0), BuildingBlock: AJUNOK_clean_linker_0, # of connection points: 2
#     Edge 60, Type (0, 0), BuildingBlock: AJUNOK_clean_linker_0, # of connection points: 2
#     Edge 61, Type (0, 0), BuildingBlock: AJUNOK_clean_linker_0, # of connection points: 2
#     Edge 62, Type (0, 0), BuildingBlock: AJUNOK_clean_linker_0, # of connection points: 2
#     Edge 63, Type (0, 0), BuildingBlock: AJUNOK_clean_linker_0, # of connection points: 2
#     Edge 64, Type (0, 0), BuildingBlock: AJUNOK_clean_linker_0, # of connection points: 2
#     Edge 65, Type (0, 0), BuildingBlock: AJUNOK_clean_linker_0, # of connection points: 2
#     Edge 66, Type (0, 0), BuildingBlock: AJUNOK_clean_linker_0, # of connection points: 2
#     Edge 67, Type (0, 0), BuildingBlock: AJUNOK_clean_linker_0, # of connection points: 2
#     Edge 68, Type (0, 0), BuildingBlock: AJUNOK_clean_linker_0, # of connection points: 2
#     Edge 69, Type (0, 0), BuildingBlock: AJUNOK_clean_linker_0, # of connection points: 2
#     Edge 70, Type (0, 0), BuildingBlock: AJUNOK_clean_linker_0, # of connection points: 2
#     Edge 71, Type (0, 0), BuildingBlock: AJUNOK_clean_linker_0, # of connection points: 2
#     Edge 72, Type (0, 0), BuildingBlock: AJUNOK_clean_linker_0, # of connection points: 2
#     Edge 73, Type (0, 0), BuildingBlock: AJUNOK_clean_linker_0, # of connection points: 2
#     Edge 74, Type (0, 0), BuildingBlock: AJUNOK_clean_linker_0, # of connection points: 2
#     Edge 75, Type (0, 0), BuildingBlock: AJUNOK_clean_linker_0, # of connection points: 2
#     Edge 76, Type (0, 0), BuildingBlock: AJUNOK_clean_linker_0, # of connection points: 2
#     Edge 77, Type (0, 0), BuildingBlock: AJUNOK_clean_linker_0, # of connection points: 2
#     Edge 78, Type (0, 0), BuildingBlock: AJUNOK_clean_linker_0, # of connection points: 2
#     Edge 79, Type (0, 0), BuildingBlock: AJUNOK_clean_linker_0, # of connection points: 2
#     Edge 80, Type (0, 0), BuildingBlock: AJUNOK_clean_linker_0, # of connection points: 2
#     Edge 81, Type (0, 0), BuildingBlock: AJUNOK_clean_linker_0, # of connection points: 2
#     Edge 82, Type (0, 0), BuildingBlock: AJUNOK_clean_linker_0, # of connection points: 2
#     Edge 83, Type (0, 0), BuildingBlock: AJUNOK_clean_linker_0, # of connection points: 2
#     Edge 84, Type (0, 0), BuildingBlock: AJUNOK_clean_linker_0, # of connection points: 2
#     Edge 85, Type (0, 0), BuildingBlock: AJUNOK_clean_linker_0, # of connection points: 2
#     Edge 86, Type (0, 0), BuildingBlock: AJUNOK_clean_linker_0, # of connection points: 2
#     Edge 87, Type (0, 0), BuildingBlock: AJUNOK_clean_linker_0, # of connection points: 2
#     Edge 88, Type (0, 0), BuildingBlock: AJUNOK_clean_linker_0, # of connection points: 2
#     Edge 89, Type (0, 0), BuildingBlock: AJUNOK_clean_linker_0, # of connection points: 2
#     Edge 90, Type (0, 0), BuildingBlock: AJUNOK_clean_linker_0, # of connection points: 2
#     Edge 91, Type (0, 0), BuildingBlock: AJUNOK_clean_linker_0, # of connection points: 2
#     Edge 92, Type (0, 0), BuildingBlock: AJUNOK_clean_linker_0, # of connection points: 2
#     Edge 93, Type (0, 0), BuildingBlock: AJUNOK_clean_linker_0, # of connection points: 2
#     Edge 94, Type (0, 0), BuildingBlock: AJUNOK_clean_linker_0, # of connection points: 2
#     Edge 95, Type (0, 0), BuildingBlock: AJUNOK_clean_linker_0, # of connection points: 2
#     Edge 96, Type (0, 0), BuildingBlock: AJUNOK_clean_linker_0, # of connection points: 2
#     Edge 97, Type (0, 0), BuildingBlock: AJUNOK_clean_linker_0, # of connection points: 2
#     Edge 98, Type (0, 0), BuildingBlock: AJUNOK_clean_linker_0, # of connection points: 2
#     Edge 99, Type (0, 0), BuildingBlock: AJUNOK_clean_linker_0, # of connection points: 2
#     Edge 100, Type (0, 0), BuildingBlock: AJUNOK_clean_linker_0, # of connection points: 2
#     Edge 101, Type (0, 0), BuildingBlock: AJUNOK_clean_linker_0, # of connection points: 2
#     Edge 102, Type (0, 0), BuildingBlock: AJUNOK_clean_linker_0, # of connection points: 2
#     Edge 103, Type (0, 0), BuildingBlock: AJUNOK_clean_linker_0, # of connection points: 2
#     Edge 104, Type (0, 0), BuildingBlock: AJUNOK_clean_linker_0, # of connection points: 2
#     Edge 105, Type (0, 0), BuildingBlock: AJUNOK_clean_linker_0, # of connection points: 2
#     Edge 106, Type (0, 0), BuildingBlock: AJUNOK_clean_linker_0, # of connection points: 2
#     Edge 107, Type (0, 0), BuildingBlock: AJUNOK_clean_linker_0, # of connection points: 2
#     Edge 108, Type (0, 0), BuildingBlock: AJUNOK_clean_linker_0, # of connection points: 2
#     Edge 109, Type (0, 0), BuildingBlock: AJUNOK_clean_linker_0, # of connection points: 2
#     Edge 110, Type (0, 0), BuildingBlock: AJUNOK_clean_linker_0, # of connection points: 2
#     Edge 111, Type (0, 0), BuildingBlock: AJUNOK_clean_linker_0, # of connection points: 2
#     Edge 112, Type (0, 0), BuildingBlock: AJUNOK_clean_linker_0, # of connection points: 2
#     Edge 113, Type (0, 0), BuildingBlock: AJUNOK_clean_linker_0, # of connection points: 2
#     Edge 114, Type (0, 0), BuildingBlock: AJUNOK_clean_linker_0, # of connection points: 2
#     Edge 115, Type (0, 0), BuildingBlock: AJUNOK_clean_linker_0, # of connection points: 2
#     Edge 116, Type (0, 0), BuildingBlock: AJUNOK_clean_linker_0, # of connection points: 2
#     Edge 117, Type (0, 0), BuildingBlock: AJUNOK_clean_linker_0, # of connection points: 2
#     Edge 118, Type (0, 0), BuildingBlock: AJUNOK_clean_linker_0, # of connection points: 2
#     Edge 119, Type (0, 0), BuildingBlock: AJUNOK_clean_linker_0, # of connection points: 2
#     Edge 120, Type (0, 0), BuildingBlock: AJUNOK_clean_linker_0, # of connection points: 2
#     Edge 121, Type (0, 0), BuildingBlock: AJUNOK_clean_linker_0, # of connection points: 2
#     Edge 122, Type (0, 0), BuildingBlock: AJUNOK_clean_linker_0, # of connection points: 2
#     Edge 123, Type (0, 0), BuildingBlock: AJUNOK_clean_linker_0, # of connection points: 2
#     Edge 124, Type (0, 0), BuildingBlock: AJUNOK_clean_linker_0, # of connection points: 2
#     Edge 125, Type (0, 0), BuildingBlock: AJUNOK_clean_linker_0, # of connection points: 2
#     Edge 126, Type (0, 0), BuildingBlock: AJUNOK_clean_linker_0, # of connection points: 2
#     Edge 127, Type (0, 0), BuildingBlock: AJUNOK_clean_linker_0, # of connection points: 2
#     Edge 128, Type (0, 0), BuildingBlock: AJUNOK_clean_linker_0, # of connection points: 2
#     Edge 129, Type (0, 0), BuildingBlock: AJUNOK_clean_linker_0, # of connection points: 2
#     Edge 130, Type (0, 0), BuildingBlock: AJUNOK_clean_linker_0, # of connection points: 2
#     Edge 131, Type (0, 0), BuildingBlock: AJUNOK_clean_linker_0, # of connection points: 2
#     Edge 132, Type (0, 0), BuildingBlock: AJUNOK_clean_linker_0, # of connection points: 2
#     Edge 133, Type (0, 0), BuildingBlock: AJUNOK_clean_linker_0, # of connection points: 2
#     Edge 134, Type (0, 0), BuildingBlock: AJUNOK_clean_linker_0, # of connection points: 2
#     Edge 135, Type (0, 0), BuildingBlock: AJUNOK_clean_linker_0, # of connection points: 2
#     Edge 136, Type (0, 0), BuildingBlock: AJUNOK_clean_linker_0, # of connection points: 2
#     Edge 137, Type (0, 0), BuildingBlock: AJUNOK_clean_linker_0, # of connection points: 2
#     Edge 138, Type (0, 0), BuildingBlock: AJUNOK_clean_linker_0, # of connection points: 2
#     Edge 139, Type (0, 0), BuildingBlock: AJUNOK_clean_linker_0, # of connection points: 2
#     Edge 140, Type (0, 0), BuildingBlock: AJUNOK_clean_linker_0, # of connection points: 2
#     Edge 141, Type (0, 0), BuildingBlock: AJUNOK_clean_linker_0, # of connection points: 2
#     Edge 142, Type (0, 0), BuildingBlock: AJUNOK_clean_linker_0, # of connection points: 2
#     Edge 143, Type (0, 0), BuildingBlock: AJUNOK_clean_linker_0, # of connection points: 2
#     Edge 144, Type (0, 0), BuildingBlock: AJUNOK_clean_linker_0, # of connection points: 2
#     Edge 145, Type (0, 0), BuildingBlock: AJUNOK_clean_linker_0, # of connection points: 2
#     Edge 146, Type (0, 0), BuildingBlock: AJUNOK_clean_linker_0, # of connection points: 2
#     Edge 147, Type (0, 0), BuildingBlock: AJUNOK_clean_linker_0, # of connection points: 2
#     Edge 148, Type (0, 0), BuildingBlock: AJUNOK_clean_linker_0, # of connection points: 2
#     Edge 149, Type (0, 0), BuildingBlock: AJUNOK_clean_linker_0, # of connection points: 2
#     Edge 150, Type (0, 0), BuildingBlock: AJUNOK_clean_linker_0, # of connection points: 2
#     Edge 151, Type (0, 0), BuildingBlock: AJUNOK_clean_linker_0, # of connection points: 2
#     Edge 152, Type (0, 0), BuildingBlock: AJUNOK_clean_linker_0, # of connection points: 2
#     Edge 153, Type (0, 0), BuildingBlock: AJUNOK_clean_linker_0, # of connection points: 2
#     Edge 154, Type (0, 0), BuildingBlock: AJUNOK_clean_linker_0, # of connection points: 2
#     Edge 155, Type (0, 0), BuildingBlock: AJUNOK_clean_linker_0, # of connection points: 2
#     Edge 156, Type (0, 0), BuildingBlock: AJUNOK_clean_linker_0, # of connection points: 2
#     Edge 157, Type (0, 0), BuildingBlock: AJUNOK_clean_linker_0, # of connection points: 2
#     Edge 158, Type (0, 0), BuildingBlock: AJUNOK_clean_linker_0, # of connection points: 2
#     Edge 159, Type (0, 0), BuildingBlock: AJUNOK_clean_linker_0, # of connection points: 2
#     Edge 160, Type (0, 0), BuildingBlock: AJUNOK_clean_linker_0, # of connection points: 2
#     Edge 161, Type (0, 0), BuildingBlock: AJUNOK_clean_linker_0, # of connection points: 2
#     Edge 162, Type (0, 0), BuildingBlock: AJUNOK_clean_linker_0, # of connection points: 2
#     Edge 163, Type (0, 0), BuildingBlock: AJUNOK_clean_linker_0, # of connection points: 2
#     Edge 164, Type (0, 0), BuildingBlock: AJUNOK_clean_linker_0, # of connection points: 2
#     Edge 165, Type (0, 0), BuildingBlock: AJUNOK_clean_linker_0, # of connection points: 2
#     Edge 166, Type (0, 0), BuildingBlock: AJUNOK_clean_linker_0, # of connection points: 2
#     Edge 167, Type (0, 0), BuildingBlock: AJUNOK_clean_linker_0, # of connection points: 2
# Relax obj value: 0.230
# Max RMSD: 0.175
# Mean RMSD: 0.175
data_MOF--net-fcg--node1-BEQFEK_clean_sbu_0--edge1-AJUNOK_clean_linker_0
_symmetry_space_group_name_H-M    P1
_symmetry_Int_Tables_number       1
_symmetry_cell_setting            triclinic
loop_
_symmetry_equiv_pos_as_xyz
'x, y, z'
_cell_length_a     51.245909
_cell_length_b     51.26904
_cell_length_c     51.259528
_cell_angle_alpha  90.027296
_cell_angle_beta   89.979293
_cell_angle_gamma 90.013797
loop_
_atom_site_label
_atom_site_type_symbol
_atom_site_fract_x
_atom_site_fract_y
_atom_site_fract_z
_atom_type_partial_charge
Co0 Co 0.15538 0.28908 0.15773 0.0
Co1 Co 0.10029 0.31658 0.16352 0.0
C2 C 0.10832 0.26239 0.18095 0.0
O3 O 0.13173 0.26354 0.17312 0.0
O4 O 0.09272 0.28147 0.17815 0.0
C5 C 0.1779 0.24731 0.13218 0.0
O6 O 0.15293 0.24347 0.1279 0.0
C7 C 0.04418 0.32641 0.15636 0.0
C8 C 0.04258 0.36933 0.15322 0.0
C9 C 0.02731 0.34708 0.15143 0.0
N10 N 0.06833 0.33598 0.16025 0.0
N11 N 0.06717 0.36168 0.15859 0.0
C12 C 0.03756 0.29802 0.15841 0.0
H13 H 0.04439 0.29053 0.1775 0.0
H14 H 0.04795 0.28709 0.14286 0.0
H15 H 0.01631 0.29435 0.15709 0.0
C16 C 0.1507 0.30944 0.10484 0.0
N17 N 0.14103 0.30634 0.12901 0.0
N18 N 0.11724 0.31581 0.13008 0.0
C19 C 0.11067 0.32443 0.10598 0.0
C20 C 0.13177 0.32063 0.08923 0.0
C21 C 0.17821 0.30321 0.09714 0.0
H22 H 0.19144 0.30535 0.11412 0.0
H23 H 0.1792 0.28284 0.08992 0.0
H24 H 0.1849 0.31631 0.08125 0.0
O25 O 0.1622 0.31307 0.18737 0.0
O26 O 0.1232 0.33217 0.19149 0.0
H27 H 0.08193 0.35455 0.10641 0.0
H28 H 0.08153 0.33478 0.07726 0.0
C29 C 0.08425 0.33446 0.09873 0.0
H30 H 0.06901 0.32197 0.1076 0.0
H31 H 0.08332 0.37396 0.16038 0.0
O32 O 0.18508 0.26718 0.14536 0.0
C33 C 0.14658 0.32836 0.19949 0.0
Co34 Co 0.71844 0.15306 0.15777 0.0
Co35 Co 0.68885 0.09994 0.16305 0.0
C36 C 0.74398 0.10696 0.18062 0.0
O37 O 0.74537 0.12879 0.16916 0.0
O38 O 0.72319 0.09346 0.18007 0.0
C39 C 0.75678 0.1791 0.12938 0.0
O40 O 0.75705 0.15645 0.11743 0.0
C41 C 0.68342 0.04499 0.15113 0.0
C42 C 0.6416 0.03701 0.1576 0.0
C43 C 0.66477 0.02535 0.14977 0.0
N44 N 0.67185 0.06703 0.15928 0.0
N45 N 0.64682 0.06219 0.16316 0.0
C46 C 0.71147 0.04374 0.14301 0.0
H47 H 0.7183 0.06323 0.13652 0.0
H48 H 0.71426 0.02937 0.12705 0.0
H49 H 0.72352 0.03781 0.15999 0.0
C50 C 0.69603 0.15146 0.10555 0.0
N51 N 0.69957 0.14086 0.12922 0.0
N52 N 0.69007 0.11709 0.12959 0.0
C53 C 0.68137 0.11128 0.1053 0.0
C54 C 0.68537 0.13284 0.08918 0.0
C55 C 0.69964 0.17988 0.09963 0.0
H56 H 0.69805 0.1916 0.11776 0.0
H57 H 0.71909 0.18328 0.09096 0.0
H58 H 0.6848 0.18654 0.08534 0.0
O59 O 0.6962 0.15786 0.18907 0.0
O60 O 0.67156 0.12188 0.19062 0.0
H61 H 0.6531 0.08096 0.11 0.0
H62 H 0.66427 0.08512 0.07677 0.0
C63 C 0.67022 0.08545 0.09755 0.0
H64 H 0.68502 0.07004 0.10071 0.0
H65 H 0.63331 0.07609 0.16934 0.0
O66 O 0.74032 0.18327 0.14759 0.0
C67 C 0.67882 0.1438 0.20018 0.0
Co68 Co 0.85048 0.7154 0.15336 0.0
Co69 Co 0.90381 0.68576 0.16153 0.0
C70 C 0.89653 0.74127 0.1776 0.0
O71 O 0.87382 0.74134 0.16799 0.0
O72 O 0.91092 0.7211 0.17659 0.0
C73 C 0.8265 0.75784 0.12961 0.0
O74 O 0.85124 0.76346 0.12604 0.0
C75 C 0.95815 0.67837 0.14862 0.0
C76 C 0.96766 0.63948 0.16438 0.0
C77 C 0.97846 0.66052 0.15113 0.0
N78 N 0.93667 0.66836 0.15978 0.0
N79 N 0.94239 0.64506 0.16916 0.0
C80 C 0.95825 0.70404 0.13468 0.0
H81 H 0.93833 0.70889 0.12772 0.0
H82 H 0.97196 0.70365 0.11792 0.0
H83 H 0.96432 0.7196 0.14845 0.0
C84 C 0.85561 0.69309 0.10096 0.0
N85 N 0.86507 0.69735 0.12508 0.0
N86 N 0.88747 0.68516 0.1278 0.0
C87 C 0.89295 0.67264 0.10518 0.0
C88 C 0.87291 0.6773 0.08755 0.0
C89 C 0.83055 0.70428 0.09089 0.0
H90 H 0.81483 0.7014 0.10549 0.0
H91 H 0.83315 0.72549 0.08766 0.0
H92 H 0.82455 0.6955 0.07209 0.0
O93 O 0.84333 0.69179 0.1837 0.0
O94 O 0.88077 0.66993 0.18842 0.0
H95 H 0.91838 0.64214 0.11826 0.0
H96 H 0.91315 0.64272 0.08335 0.0
C97 C 0.91578 0.65494 0.10103 0.0
H98 H 0.93367 0.66683 0.09857 0.0
H99 H 0.92913 0.63306 0.17886 0.0
O100 O 0.8203 0.73667 0.14113 0.0
C101 C 0.85759 0.67529 0.19594 0.0
Co102 Co 0.2881 0.84801 0.15101 0.0
Co103 Co 0.31734 0.90127 0.16042 0.0
C104 C 0.26127 0.89331 0.17501 0.0
O105 O 0.26111 0.87094 0.16461 0.0
O106 O 0.28169 0.90736 0.17498 0.0
C107 C 0.24719 0.82387 0.12509 0.0
O108 O 0.24264 0.8486 0.1202 0.0
C109 C 0.32169 0.95613 0.14873 0.0
C110 C 0.35994 0.96773 0.16474 0.0
C111 C 0.33803 0.97749 0.15216 0.0
N112 N 0.33318 0.935 0.15907 0.0
N113 N 0.35612 0.94197 0.16856 0.0
C114 C 0.2962 0.95502 0.13446 0.0
H115 H 0.29416 0.93601 0.12431 0.0
H116 H 0.29455 0.97119 0.12016 0.0
H117 H 0.27996 0.95635 0.14871 0.0
C118 C 0.31163 0.85357 0.0991 0.0
N119 N 0.30693 0.86268 0.12329 0.0
N120 N 0.31869 0.88528 0.12641 0.0
C121 C 0.33108 0.89136 0.10386 0.0
C122 C 0.32694 0.87144 0.08592 0.0
C123 C 0.30142 0.82823 0.08869 0.0
H124 H 0.30295 0.81287 0.10382 0.0
H125 H 0.28062 0.83068 0.08331 0.0
H126 H 0.31205 0.82182 0.071 0.0
O127 O 0.31085 0.84139 0.18212 0.0
O128 O 0.33317 0.87839 0.18782 0.0
H129 H 0.36048 0.91795 0.1172 0.0
H130 H 0.36015 0.9129 0.08221 0.0
C131 C 0.34783 0.91492 0.09992 0.0
H132 H 0.33523 0.93233 0.0976 0.0
H133 H 0.36902 0.92923 0.17779 0.0
O134 O 0.26738 0.81762 0.13826 0.0
C135 C 0.3271 0.85528 0.19512 0.0
Co136 Co 0.1555 0.71248 0.84477 0.0
Co137 Co 0.09882 0.6883 0.83941 0.0
C138 C 0.10879 0.74264 0.82472 0.0
O139 O 0.13241 0.73959 0.83137 0.0
O140 O 0.09212 0.72442 0.82714 0.0
C141 C 0.1805 0.75163 0.87218 0.0
O142 O 0.15582 0.75625 0.87738 0.0
C143 C 0.04252 0.67929 0.84785 0.0
C144 C 0.04012 0.63628 0.84811 0.0
C145 C 0.02532 0.65862 0.85172 0.0
N146 N 0.06639 0.66956 0.84271 0.0
N147 N 0.06474 0.64383 0.84274 0.0
C148 C 0.03641 0.70785 0.84783 0.0
H149 H 0.04307 0.71651 0.82917 0.0
H150 H 0.04728 0.71755 0.86385 0.0
H151 H 0.01525 0.71175 0.84987 0.0
C152 C 0.15114 0.69054 0.89664 0.0
N153 N 0.1411 0.69447 0.8728 0.0
N154 N 0.11656 0.68711 0.87239 0.0
C155 C 0.10985 0.67937 0.89675 0.0
C156 C 0.13157 0.68164 0.91295 0.0
C157 C 0.17952 0.69339 0.90318 0.0
H158 H 0.19164 0.68942 0.88568 0.0
H159 H 0.18358 0.71353 0.90986 0.0
H160 H 0.1851 0.67981 0.91909 0.0
O161 O 0.16082 0.68982 0.8142 0.0
O162 O 0.12064 0.67341 0.80982 0.0
H163 H 0.0784 0.65209 0.89616 0.0
H164 H 0.08093 0.67035 0.92619 0.0
C165 C 0.0829 0.67147 0.90466 0.0
H166 H 0.06858 0.68569 0.8969 0.0
H167 H 0.08058 0.6314 0.83968 0.0
O168 O 0.18636 0.73241 0.85747 0.0
C169 C 0.14411 0.67624 0.80159 0.0
Co170 Co 0.29331 0.15732 0.85074 0.0
Co171 Co 0.31805 0.1017 0.84186 0.0
C172 C 0.26262 0.11261 0.82897 0.0
O173 O 0.2652 0.1355 0.83777 0.0
O174 O 0.28147 0.09649 0.82928 0.0
C175 C 0.25461 0.18187 0.87863 0.0
O176 O 0.25056 0.15716 0.88405 0.0
C177 C 0.32212 0.04646 0.85341 0.0
C178 C 0.3617 0.03583 0.84025 0.0
C179 C 0.33944 0.02562 0.85186 0.0
N180 N 0.33359 0.06776 0.8433 0.0
N181 N 0.35728 0.06132 0.83543 0.0
C182 C 0.29571 0.04695 0.8659 0.0
H183 H 0.29122 0.06684 0.8732 0.0
H184 H 0.29463 0.03279 0.88223 0.0
H185 H 0.28076 0.04178 0.85112 0.0
C186 C 0.31749 0.15116 0.90217 0.0
N187 N 0.31206 0.14204 0.87814 0.0
N188 N 0.32118 0.1182 0.87566 0.0
C189 C 0.33222 0.1112 0.89867 0.0
C190 C 0.33019 0.13191 0.9161 0.0
C191 C 0.31004 0.17769 0.91193 0.0
H192 H 0.31108 0.19212 0.89587 0.0
H193 H 0.28982 0.177 0.91961 0.0
H194 H 0.3229 0.1842 0.92803 0.0
O195 O 0.31506 0.16277 0.81906 0.0
O196 O 0.33342 0.12363 0.81296 0.0
H197 H 0.35878 0.08087 0.88772 0.0
H198 H 0.35609 0.08597 0.92255 0.0
C199 C 0.34517 0.0856 0.90385 0.0
H200 H 0.33015 0.07008 0.90489 0.0
H201 H 0.37045 0.07431 0.82697 0.0
O202 O 0.27374 0.18808 0.86395 0.0
C203 C 0.32908 0.14711 0.80554 0.0
Co204 Co 0.84259 0.29897 0.84546 0.0
Co205 Co 0.90265 0.31184 0.84306 0.0
C206 C 0.88511 0.26542 0.81884 0.0
O207 O 0.86272 0.27391 0.82503 0.0
O208 O 0.90572 0.27617 0.82762 0.0
C209 C 0.81928 0.25738 0.86847 0.0
O210 O 0.8444 0.2538 0.87206 0.0
C211 C 0.95941 0.31744 0.85152 0.0
C212 C 0.96351 0.36031 0.85381 0.0
C213 C 0.97733 0.33725 0.85624 0.0
N214 N 0.93594 0.32834 0.84715 0.0
N215 N 0.93858 0.35396 0.84841 0.0
C216 C 0.96453 0.28874 0.8498 0.0
H217 H 0.95617 0.28103 0.8314 0.0
H218 H 0.95463 0.27867 0.86619 0.0
H219 H 0.98571 0.28431 0.85022 0.0
C220 C 0.85018 0.31241 0.9 0.0
N221 N 0.85969 0.30969 0.87574 0.0
N222 N 0.88511 0.31275 0.876 0.0
C223 C 0.89269 0.3171 0.90093 0.0
C224 C 0.87073 0.3167 0.91696 0.0
C225 C 0.82169 0.31214 0.90655 0.0
H226 H 0.81004 0.31875 0.88955 0.0
H227 H 0.81559 0.29202 0.91158 0.0
H228 H 0.81763 0.32487 0.92361 0.0
O229 O 0.83911 0.32739 0.81953 0.0
O230 O 0.88239 0.3307 0.81499 0.0
H231 H 0.92748 0.33993 0.90253 0.0
H232 H 0.92236 0.3196 0.93086 0.0
C233 C 0.92041 0.32065 0.90932 0.0
H234 H 0.93276 0.30542 0.9002 0.0
H235 H 0.92322 0.36712 0.84607 0.0
O236 O 0.81166 0.27789 0.85655 0.0
C237 C 0.85919 0.3358 0.80725 0.0
Co238 Co 0.71517 0.84544 0.84536 0.0
Co239 Co 0.6905 0.90149 0.83765 0.0
C240 C 0.74526 0.89003 0.82236 0.0
O241 O 0.74292 0.86706 0.83111 0.0
O242 O 0.72661 0.90635 0.82371 0.0
C243 C 0.75429 0.8196 0.87222 0.0
O244 O 0.75964 0.84421 0.87696 0.0
C245 C 0.6855 0.95656 0.8504 0.0
C246 C 0.64609 0.96671 0.8364 0.0
C247 C 0.66774 0.9771 0.84898 0.0
N248 N 0.67475 0.93531 0.83942 0.0
N249 N 0.65119 0.94148 0.831 0.0
C250 C 0.71162 0.95615 0.86348 0.0
H251 H 0.71666 0.936 0.86958 0.0
H252 H 0.7118 0.96926 0.88071 0.0
H253 H 0.72672 0.96275 0.84944 0.0
C254 C 0.69254 0.85191 0.89758 0.0
N255 N 0.6977 0.86113 0.87353 0.0
N256 N 0.68834 0.88493 0.87128 0.0
C257 C 0.67724 0.89168 0.89431 0.0
C258 C 0.67967 0.87099 0.9116 0.0
C259 C 0.69998 0.82532 0.90712 0.0
H260 H 0.69796 0.81084 0.89118 0.0
H261 H 0.72055 0.82569 0.9138 0.0
H262 H 0.6878 0.81909 0.92385 0.0
O263 O 0.69161 0.84015 0.81471 0.0
O264 O 0.67374 0.87965 0.80993 0.0
H265 H 0.64998 0.9213 0.88302 0.0
H266 H 0.6517 0.91567 0.91779 0.0
C267 C 0.66322 0.91674 0.89948 0.0
H268 H 0.67764 0.93273 0.9014 0.0
H269 H 0.63854 0.92845 0.82183 0.0
O270 O 0.73451 0.8141 0.85812 0.0
C271 C 0.6769 0.85609 0.80228 0.0
Co272 Co 0.15252 0.1612 0.29707 0.0
Co273 Co 0.16074 0.10319 0.31608 0.0
C274 C 0.17537 0.11796 0.26311 0.0
O275 O 0.16805 0.14077 0.26915 0.0
O276 O 0.17255 0.09915 0.27907 0.0
C277 C 0.12434 0.18523 0.25861 0.0
O278 O 0.1199 0.16032 0.25452 0.0
C279 C 0.15416 0.04642 0.32212 0.0
C280 C 0.15543 0.0417 0.36493 0.0
C281 C 0.15094 0.02819 0.34195 0.0
N282 N 0.15937 0.06976 0.33295 0.0
N283 N 0.16038 0.06672 0.35854 0.0
C284 C 0.15368 0.04172 0.29329 0.0
H285 H 0.17166 0.04985 0.28444 0.0
H286 H 0.13676 0.05205 0.28461 0.0
H287 H 0.15274 0.02066 0.28848 0.0
C288 C 0.10074 0.1526 0.31935 0.0
N289 N 0.1249 0.14409 0.3136 0.0
N290 N 0.12694 0.11923 0.31947 0.0
C291 C 0.10347 0.11089 0.32831 0.0
C292 C 0.08627 0.13187 0.32871 0.0
C293 C 0.09132 0.17987 0.3147 0.0
H294 H 0.10766 0.19391 0.31664 0.0
H295 H 0.08313 0.18121 0.29472 0.0
H296 H 0.07563 0.18533 0.32852 0.0
O297 O 0.18246 0.16674 0.32069 0.0
O298 O 0.18933 0.12527 0.33227 0.0
H299 H 0.10834 0.07887 0.35444 0.0
H300 H 0.07636 0.08067 0.33996 0.0
C301 C 0.09752 0.08348 0.33631 0.0
H302 H 0.10403 0.06984 0.32083 0.0
H303 H 0.1637 0.0819 0.37171 0.0
O304 O 0.13871 0.19192 0.27781 0.0
C305 C 0.19612 0.14934 0.33227 0.0
Co306 Co 0.84024 0.15164 0.30249 0.0
Co307 Co 0.89988 0.15645 0.31692 0.0
C308 C 0.88299 0.1764 0.26795 0.0
O309 O 0.86053 0.17005 0.27611 0.0
O310 O 0.90332 0.16937 0.28034 0.0
C311 C 0.817 0.12553 0.26257 0.0
O312 O 0.84211 0.12153 0.2592 0.0
C313 C 0.95708 0.15099 0.32301 0.0
C314 C 0.96078 0.14759 0.3658 0.0
C315 C 0.97507 0.14655 0.34287 0.0
N316 N 0.93328 0.15396 0.33375 0.0
N317 N 0.93572 0.15213 0.35935 0.0
C318 C 0.96231 0.15349 0.29438 0.0
H319 H 0.95215 0.17094 0.28672 0.0
H320 H 0.95444 0.13612 0.28412 0.0
H321 H 0.98342 0.15555 0.29013 0.0
C322 C 0.84831 0.09856 0.32147 0.0
N323 N 0.85744 0.1226 0.31624 0.0
N324 N 0.88277 0.12327 0.31999 0.0
C325 C 0.89073 0.0991 0.32703 0.0
C326 C 0.86906 0.08276 0.32842 0.0
C327 C 0.82038 0.09055 0.31824 0.0
H328 H 0.80729 0.10752 0.32118 0.0
H329 H 0.81753 0.08281 0.29823 0.0
H330 H 0.81495 0.07489 0.33209 0.0
O331 O 0.83588 0.17981 0.32858 0.0
O332 O 0.87889 0.18558 0.33347 0.0
H333 H 0.92394 0.0996 0.35208 0.0
H334 H 0.92108 0.07036 0.33284 0.0
C335 C 0.91842 0.09184 0.33266 0.0
H336 H 0.93148 0.10069 0.31786 0.0
H337 H 0.92012 0.15326 0.37239 0.0
O338 O 0.80955 0.13912 0.28208 0.0
C339 C 0.8553 0.19298 0.33715 0.0
Co340 Co 0.8496 0.83822 0.29633 0.0
Co341 Co 0.84224 0.89642 0.31504 0.0
C342 C 0.82207 0.88089 0.26492 0.0
O343 O 0.82955 0.85812 0.27089 0.0
O344 O 0.82793 0.90046 0.27902 0.0
C345 C 0.87656 0.81683 0.25581 0.0
O346 O 0.87973 0.8421 0.25295 0.0
C347 C 0.84667 0.95364 0.32163 0.0
C348 C 0.85202 0.95705 0.36423 0.0
C349 C 0.85197 0.97154 0.3414 0.0
N350 N 0.84432 0.92973 0.3323 0.0
N351 N 0.84727 0.93202 0.35781 0.0
C352 C 0.84312 0.95904 0.29315 0.0
H353 H 0.82542 0.94888 0.28603 0.0
H354 H 0.86015 0.95132 0.28222 0.0
H355 H 0.84083 0.98015 0.28915 0.0
C356 C 0.90278 0.84784 0.31359 0.0
N357 N 0.87814 0.85609 0.31014 0.0
N358 N 0.87644 0.88097 0.3159 0.0
C359 C 0.90058 0.88959 0.32246 0.0
C360 C 0.91805 0.86876 0.3211 0.0
C361 C 0.91135 0.82002 0.31108 0.0
H362 H 0.89471 0.80663 0.31456 0.0
H363 H 0.9191 0.81664 0.29116 0.0
H364 H 0.92718 0.81565 0.3252 0.0
O365 O 0.82256 0.83163 0.32279 0.0
O366 O 0.81462 0.87339 0.33237 0.0
H367 H 0.90059 0.92202 0.34855 0.0
H368 H 0.92841 0.92094 0.32701 0.0
C369 C 0.9071 0.91738 0.32844 0.0
H370 H 0.89668 0.93045 0.31474 0.0
H371 H 0.84696 0.91631 0.37075 0.0
O372 O 0.86326 0.80856 0.27519 0.0
C373 C 0.80851 0.84913 0.33376 0.0
Co374 Co 0.16277 0.85082 0.29456 0.0
Co375 Co 0.10547 0.84282 0.31579 0.0
C376 C 0.11924 0.8248 0.26389 0.0
O377 O 0.14221 0.83233 0.2688 0.0
O378 O 0.10057 0.82959 0.27947 0.0
C379 C 0.18458 0.8772 0.25365 0.0
O380 O 0.15942 0.88119 0.2508 0.0
C381 C 0.04977 0.85305 0.31945 0.0
C382 C 0.03976 0.84216 0.35986 0.0
C383 C 0.02914 0.85219 0.33705 0.0
N384 N 0.07141 0.84408 0.33127 0.0
N385 N 0.06531 0.83754 0.35545 0.0
C386 C 0.04969 0.86402 0.29239 0.0
H387 H 0.06928 0.87178 0.28737 0.0
H388 H 0.03491 0.87973 0.29048 0.0
H389 H 0.04496 0.84823 0.27834 0.0
C390 C 0.15443 0.90326 0.3152 0.0
N391 N 0.14565 0.87902 0.31025 0.0
N392 N 0.12139 0.87676 0.31825 0.0
C393 C 0.1138 0.90004 0.32823 0.0
C394 C 0.13451 0.91755 0.32652 0.0
C395 C 0.18129 0.91266 0.3084 0.0
H396 H 0.19554 0.89651 0.31023 0.0
H397 H 0.18131 0.91979 0.28798 0.0
H398 H 0.18764 0.92899 0.32101 0.0
O399 O 0.16945 0.82225 0.3196 0.0
O400 O 0.12826 0.81456 0.33185 0.0
H401 H 0.08329 0.88962 0.3548 0.0
H402 H 0.08748 0.92434 0.35059 0.0
C403 C 0.08782 0.90518 0.34051 0.0
H404 H 0.07253 0.90505 0.32523 0.0
H405 H 0.07861 0.83022 0.369 0.0
O406 O 0.19248 0.86404 0.27325 0.0
C407 C 0.15249 0.80816 0.3314 0.0
Co408 Co 0.15557 0.84767 0.71268 0.0
Co409 Co 0.16341 0.90377 0.68834 0.0
C410 C 0.17686 0.89311 0.74326 0.0
O411 O 0.16901 0.86991 0.7403 0.0
O412 O 0.17587 0.90955 0.72473 0.0
C413 C 0.12778 0.82334 0.75175 0.0
O414 O 0.12307 0.84809 0.75638 0.0
C415 C 0.15558 0.95999 0.68135 0.0
C416 C 0.15826 0.96476 0.63861 0.0
C417 C 0.15279 0.97816 0.66145 0.0
N418 N 0.16155 0.93676 0.67071 0.0
N419 N 0.16338 0.9398 0.64516 0.0
C420 C 0.15415 0.96468 0.71016 0.0
H421 H 0.17272 0.95842 0.71928 0.0
H422 H 0.1382 0.95271 0.71862 0.0
H423 H 0.15113 0.98553 0.71497 0.0
C424 C 0.10402 0.85352 0.68889 0.0
N425 N 0.12792 0.86291 0.69436 0.0
N426 N 0.12983 0.88708 0.68602 0.0
C427 C 0.10652 0.89412 0.67573 0.0
C428 C 0.08959 0.87296 0.67705 0.0
C429 C 0.09485 0.82663 0.69578 0.0
H430 H 0.11121 0.81257 0.69424 0.0
H431 H 0.08737 0.8267 0.71607 0.0
H432 H 0.07874 0.82006 0.68298 0.0
O433 O 0.18657 0.84177 0.69013 0.0
O434 O 0.19191 0.88148 0.67297 0.0
H435 H 0.11252 0.92338 0.64674 0.0
H436 H 0.07966 0.92222 0.6593 0.0
C437 C 0.10059 0.92037 0.66453 0.0
H438 H 0.1058 0.9357 0.67887 0.0
H439 H 0.16748 0.9247 0.63213 0.0
O440 O 0.14222 0.81711 0.73244 0.0
C441 C 0.19948 0.85787 0.67606 0.0
Co442 Co 0.15705 0.15487 0.71423 0.0
Co443 Co 0.1023 0.16219 0.68627 0.0
C444 C 0.11063 0.17642 0.74202 0.0
O445 O 0.13363 0.16754 0.74115 0.0
O446 O 0.09585 0.17604 0.72213 0.0
C447 C 0.18117 0.12905 0.75507 0.0
O448 O 0.15646 0.12339 0.75887 0.0
C449 C 0.04588 0.1551 0.67898 0.0
C450 C 0.04214 0.15285 0.63612 0.0
C451 C 0.02814 0.15009 0.65909 0.0
N452 N 0.06947 0.1595 0.66829 0.0
N453 N 0.06699 0.15856 0.64264 0.0
C454 C 0.04037 0.15774 0.70756 0.0
H455 H 0.04778 0.17682 0.7145 0.0
H456 H 0.05079 0.14215 0.71837 0.0
H457 H 0.01921 0.15698 0.71193 0.0
C458 C 0.15255 0.10276 0.69107 0.0
N459 N 0.14292 0.12679 0.6955 0.0
N460 N 0.11945 0.1287 0.68531 0.0
C461 C 0.11314 0.10536 0.67464 0.0
C462 C 0.13397 0.08826 0.6779 0.0
C463 C 0.17873 0.09357 0.70028 0.0
H464 H 0.1931 0.10969 0.6992 0.0
H465 H 0.17706 0.08695 0.72079 0.0
H466 H 0.18606 0.07693 0.68862 0.0
O467 O 0.16236 0.18645 0.69195 0.0
O468 O 0.12446 0.19032 0.67053 0.0
H469 H 0.08638 0.07879 0.65549 0.0
H470 H 0.07139 0.10545 0.67317 0.0
C471 C 0.08812 0.0997 0.66072 0.0
H472 H 0.08746 0.11126 0.64249 0.0
H473 H 0.08244 0.16095 0.62959 0.0
O474 O 0.18759 0.14277 0.73529 0.0
C475 C 0.14734 0.19863 0.67609 0.0
Co476 Co 0.84785 0.16043 0.69918 0.0
Co477 Co 0.844 0.10089 0.68531 0.0
C478 C 0.82522 0.11784 0.73474 0.0
O479 O 0.83043 0.14048 0.72639 0.0
O480 O 0.83235 0.09763 0.72223 0.0
C481 C 0.87417 0.18815 0.73728 0.0
O482 O 0.88263 0.16429 0.74124 0.0
C483 C 0.8519 0.04427 0.68039 0.0
C484 C 0.8534 0.03931 0.63758 0.0
C485 C 0.85682 0.02606 0.66087 0.0
N486 N 0.84687 0.06739 0.66909 0.0
N487 N 0.84743 0.0642 0.64351 0.0
C488 C 0.85028 0.0397 0.70919 0.0
H489 H 0.83214 0.04861 0.7169 0.0
H490 H 0.86707 0.0493 0.71893 0.0
H491 H 0.85 0.01863 0.71402 0.0
C492 C 0.90123 0.15321 0.67988 0.0
N493 N 0.87735 0.14383 0.68545 0.0
N494 N 0.87681 0.11856 0.68129 0.0
C495 C 0.90088 0.11089 0.67357 0.0
C496 C 0.91713 0.13265 0.67245 0.0
C497 C 0.90895 0.18124 0.68295 0.0
H498 H 0.89158 0.19405 0.68174 0.0
H499 H 0.91853 0.18391 0.70217 0.0
H500 H 0.92303 0.18729 0.66774 0.0
O501 O 0.81958 0.16367 0.67319 0.0
O502 O 0.81408 0.12062 0.66894 0.0
H503 H 0.92909 0.08131 0.66252 0.0
H504 H 0.90197 0.07006 0.6823 0.0
C505 C 0.90793 0.08348 0.66641 0.0
H506 H 0.89728 0.07791 0.64846 0.0
H507 H 0.8446 0.07924 0.63009 0.0
O508 O 0.85846 0.19229 0.7184 0.0
C509 C 0.80643 0.14406 0.66508 0.0
Co510 Co 0.84484 0.84787 0.70312 0.0
Co511 Co 0.90451 0.84185 0.68855 0.0
C512 C 0.88696 0.82275 0.73762 0.0
O513 O 0.86466 0.8292 0.72928 0.0
O514 O 0.90753 0.82931 0.72536 0.0
C515 C 0.82229 0.87351 0.7438 0.0
O516 O 0.84742 0.87749 0.74691 0.0
C517 C 0.96147 0.84952 0.68244 0.0
C518 C 0.96592 0.84665 0.63968 0.0
C519 C 0.97962 0.85207 0.66236 0.0
N520 N 0.93812 0.84352 0.67198 0.0
N521 N 0.94103 0.84158 0.64643 0.0
C522 C 0.96625 0.85183 0.71117 0.0
H523 H 0.95535 0.83647 0.72171 0.0
H524 H 0.95915 0.87106 0.71811 0.0
H525 H 0.98724 0.84976 0.71596 0.0
C526 C 0.85383 0.90052 0.68411 0.0
N527 N 0.86269 0.87647 0.68951 0.0
N528 N 0.88789 0.87521 0.68495 0.0
C529 C 0.89601 0.89899 0.67683 0.0
C530 C 0.87463 0.91575 0.67609 0.0
C531 C 0.8261 0.90893 0.68804 0.0
H532 H 0.81273 0.8921 0.68555 0.0
H533 H 0.82387 0.91677 0.70809 0.0
H534 H 0.82035 0.92448 0.67425 0.0
O535 O 0.84004 0.82003 0.67685 0.0
O536 O 0.88295 0.81319 0.67198 0.0
H537 H 0.92872 0.8931 0.65173 0.0
H538 H 0.92557 0.92606 0.6633 0.0
C539 C 0.92336 0.90525 0.66878 0.0
H540 H 0.9369 0.90055 0.68496 0.0
H541 H 0.92582 0.83755 0.63351 0.0
O542 O 0.81449 0.86065 0.72393 0.0
C543 C 0.85916 0.80645 0.66823 0.0
Co544 Co 0.29181 0.15603 0.15836 0.0
Co545 Co 0.31394 0.16183 0.10103 0.0
C546 C 0.25951 0.17499 0.11264 0.0
O547 O 0.26379 0.16822 0.13599 0.0
O548 O 0.27723 0.17357 0.09529 0.0
C549 C 0.2547 0.12651 0.1844 0.0
O550 O 0.2533 0.11647 0.16088 0.0
C551 C 0.32216 0.15397 0.04432 0.0
C552 C 0.36516 0.15316 0.04166 0.0
C553 C 0.34269 0.15004 0.02693 0.0
N554 N 0.33209 0.15867 0.0682 0.0
N555 N 0.35782 0.15832 0.06638 0.0
C556 C 0.29356 0.15439 0.03837 0.0
H557 H 0.28484 0.17245 0.04644 0.0
H558 H 0.28397 0.13753 0.04798 0.0
H559 H 0.28963 0.15391 0.01712 0.0
C560 C 0.31486 0.1045 0.15356 0.0
N561 N 0.31003 0.12825 0.14369 0.0
N562 N 0.3163 0.12878 0.11885 0.0
C563 C 0.32413 0.10453 0.11181 0.0
C564 C 0.32317 0.08832 0.13362 0.0
C565 C 0.31324 0.0979 0.18199 0.0
H566 H 0.3157 0.11574 0.19401 0.0
H567 H 0.294 0.08922 0.18648 0.0
H568 H 0.32843 0.08338 0.18722 0.0
O569 O 0.31391 0.18714 0.16292 0.0
O570 O 0.32933 0.19161 0.12238 0.0
H571 H 0.35019 0.10481 0.07935 0.0
H572 H 0.3315 0.07513 0.08242 0.0
C573 C 0.33082 0.09666 0.08453 0.0
H574 H 0.31622 0.1048 0.07082 0.0
H575 H 0.37038 0.16101 0.08217 0.0
O576 O 0.2715 0.14424 0.18918 0.0
C577 C 0.32705 0.19982 0.14592 0.0
Co578 Co 0.29054 0.84749 0.84626 0.0
Co579 Co 0.31537 0.84072 0.90233 0.0
C580 C 0.26114 0.82501 0.89221 0.0
O581 O 0.26388 0.83256 0.86887 0.0
O582 O 0.27942 0.82738 0.90882 0.0
C583 C 0.25044 0.87471 0.82368 0.0
O584 O 0.24718 0.87945 0.84865 0.0
C585 C 0.3236 0.84882 0.95847 0.0
C586 C 0.36648 0.84667 0.9622 0.0
C587 C 0.34389 0.85154 0.97627 0.0
N588 N 0.33377 0.84313 0.93493 0.0
N589 N 0.35942 0.84173 0.93734 0.0
C590 C 0.29487 0.85037 0.96364 0.0
H591 H 0.28579 0.8314 0.95859 0.0
H592 H 0.28604 0.86544 0.95088 0.0
H593 H 0.29037 0.85464 0.98433 0.0
C594 C 0.31194 0.89984 0.85205 0.0
N595 N 0.30805 0.87566 0.86139 0.0
N596 N 0.31646 0.87429 0.88555 0.0
C597 C 0.32526 0.8982 0.89264 0.0
C598 C 0.32254 0.91517 0.87155 0.0
C599 C 0.30685 0.90791 0.82444 0.0
H600 H 0.30883 0.89096 0.81113 0.0
H601 H 0.28679 0.91586 0.82286 0.0
H602 H 0.32069 0.92341 0.81833 0.0
O603 O 0.3138 0.8173 0.83981 0.0
O604 O 0.3306 0.81213 0.87971 0.0
H605 H 0.35353 0.89534 0.92309 0.0
H606 H 0.3369 0.92642 0.92185 0.0
C607 C 0.33454 0.90505 0.91943 0.0
H608 H 0.32035 0.89784 0.93405 0.0
H609 H 0.37213 0.83793 0.9219 0.0
O610 O 0.26962 0.86061 0.81637 0.0
C611 C 0.32771 0.80445 0.85608 0.0
Co612 Co 0.15484 0.28817 0.8486 0.0
Co613 Co 0.16242 0.31552 0.90319 0.0
C614 C 0.17784 0.26034 0.89427 0.0
O615 O 0.16877 0.2611 0.87132 0.0
O616 O 0.1766 0.27998 0.90933 0.0
C617 C 0.12808 0.24832 0.82421 0.0
O618 O 0.12262 0.24432 0.84893 0.0
C619 C 0.15047 0.32028 0.9581 0.0
C620 C 0.16342 0.35998 0.9685 0.0
C621 C 0.15197 0.3377 0.97885 0.0
N622 N 0.16046 0.33168 0.93673 0.0
N623 N 0.1682 0.35545 0.94301 0.0
C624 C 0.13829 0.29372 0.95776 0.0
H625 H 0.13114 0.28897 0.93788 0.0
H626 H 0.1219 0.29257 0.97187 0.0
H627 H 0.15322 0.279 0.96309 0.0
C628 C 0.10236 0.31063 0.85405 0.0
N629 N 0.12658 0.30632 0.8633 0.0
N630 N 0.12875 0.31657 0.88673 0.0
C631 C 0.10549 0.32723 0.89333 0.0
C632 C 0.0881 0.32367 0.87285 0.0
C633 C 0.09282 0.30199 0.8278 0.0
H634 H 0.10884 0.30295 0.81331 0.0
H635 H 0.08561 0.28165 0.8292 0.0
H636 H 0.07645 0.31423 0.82083 0.0
O637 O 0.18563 0.31128 0.84248 0.0
O638 O 0.19022 0.33159 0.88081 0.0
H639 H 0.11618 0.35546 0.92226 0.0
H640 H 0.0814 0.35239 0.91711 0.0
C641 C 0.10012 0.34156 0.91818 0.0
H642 H 0.09897 0.32743 0.93449 0.0
H643 H 0.17667 0.36855 0.92994 0.0
O644 O 0.14238 0.26774 0.81801 0.0
C645 C 0.19804 0.32692 0.85754 0.0
Co646 Co 0.71088 0.15555 0.84493 0.0
Co647 Co 0.68815 0.16251 0.90141 0.0
C648 C 0.74219 0.17919 0.8879 0.0
O649 O 0.73939 0.16991 0.86522 0.0
O650 O 0.72398 0.17786 0.90472 0.0
C651 C 0.74907 0.12949 0.81682 0.0
O652 O 0.75419 0.12189 0.84075 0.0
C653 C 0.68681 0.15141 0.95682 0.0
C654 C 0.64787 0.16515 0.96913 0.0
C655 C 0.67067 0.15398 0.97858 0.0
N656 N 0.6742 0.16084 0.93589 0.0
N657 N 0.65092 0.16904 0.94331 0.0
C658 C 0.71306 0.13868 0.95494 0.0
H659 H 0.71583 0.13005 0.93529 0.0
H660 H 0.7154 0.12341 0.9701 0.0
H661 H 0.72847 0.15368 0.95729 0.0
C662 C 0.69101 0.1026 0.85174 0.0
N663 N 0.6949 0.12687 0.86085 0.0
N664 N 0.68653 0.12849 0.88506 0.0
C665 C 0.67746 0.10467 0.89224 0.0
C666 C 0.6804 0.0875 0.87134 0.0
C667 C 0.6958 0.09417 0.82417 0.0
H668 H 0.69333 0.11083 0.81063 0.0
H669 H 0.71592 0.08641 0.82241 0.0
H670 H 0.68209 0.07839 0.81851 0.0
O671 O 0.68657 0.18538 0.84069 0.0
O672 O 0.66942 0.1898 0.8805 0.0
H673 H 0.65302 0.11369 0.92499 0.0
H674 H 0.65669 0.07912 0.91873 0.0
C675 C 0.66676 0.09825 0.91864 0.0
H676 H 0.68297 0.09726 0.93287 0.0
H677 H 0.63717 0.17728 0.93078 0.0
O678 O 0.72948 0.14437 0.81294 0.0
C679 C 0.67191 0.19749 0.85689 0.0
Co680 Co 0.8493 0.71014 0.85012 0.0
Co681 Co 0.84126 0.68232 0.90367 0.0
C682 C 0.82773 0.73875 0.89434 0.0
O683 O 0.84023 0.73893 0.87306 0.0
O684 O 0.82594 0.71811 0.908 0.0
C685 C 0.87642 0.74722 0.82075 0.0
O686 O 0.88653 0.75173 0.84387 0.0
C687 C 0.85324 0.67557 0.95938 0.0
C688 C 0.84021 0.6352 0.96675 0.0
C689 C 0.85171 0.65659 0.9787 0.0
N690 N 0.84338 0.66574 0.93711 0.0
N691 N 0.83566 0.64158 0.94166 0.0
C692 C 0.86294 0.70299 0.9622 0.0
H693 H 0.85599 0.71538 0.94598 0.0
H694 H 0.88457 0.70307 0.96175 0.0
H695 H 0.85651 0.71136 0.98111 0.0
C696 C 0.90083 0.68492 0.85341 0.0
N697 N 0.87704 0.6903 0.8632 0.0
N698 N 0.87489 0.68025 0.8867 0.0
C699 C 0.89785 0.66866 0.89283 0.0
C700 C 0.91493 0.67128 0.8719 0.0
C701 C 0.91026 0.69319 0.82701 0.0
H702 H 0.91887 0.71298 0.82842 0.0
H703 H 0.92565 0.67997 0.81955 0.0
H704 H 0.89387 0.69343 0.81293 0.0
O705 O 0.81637 0.68941 0.84606 0.0
O706 O 0.81334 0.66552 0.88228 0.0
H707 H 0.8875 0.6402 0.92155 0.0
H708 H 0.92229 0.64433 0.91711 0.0
C709 C 0.90322 0.65457 0.91778 0.0
H710 H 0.90346 0.66877 0.93408 0.0
H711 H 0.82732 0.62941 0.92762 0.0
O712 O 0.85988 0.7288 0.81815 0.0
C713 C 0.80435 0.67264 0.86013 0.0
Co714 Co 0.70607 0.84518 0.1558 0.0
Co715 Co 0.68891 0.84176 0.09676 0.0
C716 C 0.7415 0.82695 0.11158 0.0
O717 O 0.735 0.83199 0.13488 0.0
O718 O 0.7258 0.83041 0.09267 0.0
C719 C 0.7432 0.8714 0.18497 0.0
O720 O 0.7476 0.88044 0.1614 0.0
C721 C 0.68301 0.84972 0.03992 0.0
C722 C 0.64013 0.85153 0.03585 0.0
C723 C 0.66316 0.85387 0.02189 0.0
N724 N 0.67217 0.84556 0.06347 0.0
N725 N 0.64653 0.84654 0.06084 0.0
C726 C 0.71177 0.84855 0.03492 0.0
H727 H 0.71975 0.83029 0.04329 0.0
H728 H 0.72145 0.86518 0.04485 0.0
H729 H 0.71643 0.84893 0.01381 0.0
C730 C 0.6858 0.89799 0.1504 0.0
N731 N 0.69053 0.87422 0.14046 0.0
N732 N 0.68562 0.87421 0.11531 0.0
C733 C 0.67851 0.89864 0.10825 0.0
C734 C 0.67846 0.91449 0.13036 0.0
C735 C 0.68737 0.9046 0.17882 0.0
H736 H 0.68418 0.88692 0.19087 0.0
H737 H 0.70692 0.91273 0.18328 0.0
H738 H 0.6726 0.91959 0.18394 0.0
O739 O 0.6815 0.81565 0.15849 0.0
O740 O 0.67226 0.81167 0.11606 0.0
H741 H 0.65437 0.9004 0.07438 0.0
H742 H 0.67504 0.92859 0.07873 0.0
C743 C 0.67398 0.90706 0.08069 0.0
H744 H 0.68871 0.89796 0.06774 0.0
H745 H 0.63339 0.8443 0.07623 0.0
O746 O 0.72426 0.85556 0.18836 0.0
C747 C 0.67065 0.80351 0.13961 0.0
Co748 Co 0.15578 0.70945 0.15518 0.0
Co749 Co 0.16293 0.68479 0.09964 0.0
C750 C 0.17527 0.74061 0.11035 0.0
O751 O 0.16655 0.73845 0.13333 0.0
O752 O 0.17551 0.72132 0.09478 0.0
C753 C 0.12834 0.74645 0.18383 0.0
O754 O 0.11916 0.75071 0.16029 0.0
C755 C 0.15069 0.68249 0.04475 0.0
C756 C 0.16457 0.64366 0.03233 0.0
C757 C 0.15288 0.66627 0.0231 0.0
N758 N 0.16084 0.67018 0.0655 0.0
N759 N 0.1691 0.64693 0.05804 0.0
C760 C 0.13758 0.70855 0.04663 0.0
H761 H 0.12873 0.71111 0.06623 0.0
H762 H 0.12239 0.71075 0.03135 0.0
H763 H 0.15237 0.72418 0.0444 0.0
C764 C 0.10412 0.68557 0.15053 0.0
N765 N 0.12798 0.69057 0.14089 0.0
N766 N 0.12965 0.68152 0.11693 0.0
C767 C 0.10627 0.67096 0.11041 0.0
C768 C 0.08933 0.67351 0.13152 0.0
C769 C 0.09567 0.69124 0.17793 0.0
H770 H 0.11256 0.69024 0.1914 0.0
H771 H 0.08694 0.711 0.17885 0.0
H772 H 0.08061 0.67705 0.18435 0.0
O773 O 0.18771 0.68784 0.15915 0.0
O774 O 0.19194 0.66854 0.12032 0.0
H775 H 0.11551 0.6459 0.07824 0.0
H776 H 0.0809 0.64932 0.08442 0.0
C777 C 0.09992 0.65962 0.08427 0.0
H778 H 0.0988 0.67547 0.06966 0.0
H779 H 0.17782 0.63337 0.07045 0.0
O780 O 0.14458 0.72788 0.18719 0.0
C781 C 0.2002 0.67296 0.14347 0.0
Co782 Co 0.85254 0.2967 0.1633 0.0
Co783 Co 0.84393 0.31365 0.10503 0.0
C784 C 0.83401 0.25975 0.12121 0.0
O785 O 0.84084 0.26675 0.14384 0.0
O786 O 0.83517 0.27571 0.10228 0.0
C787 C 0.88111 0.26115 0.19285 0.0
O788 O 0.89237 0.25799 0.17004 0.0
C789 C 0.85381 0.31461 0.04908 0.0
C790 C 0.84022 0.35369 0.03716 0.0
C791 C 0.85129 0.33093 0.02759 0.0
N792 N 0.84448 0.32706 0.07021 0.0
N793 N 0.83634 0.35042 0.06297 0.0
C794 C 0.86672 0.28845 0.05024 0.0
H795 H 0.87679 0.28596 0.06924 0.0
H796 H 0.88088 0.286 0.03403 0.0
H797 H 0.85162 0.273 0.04884 0.0
C798 C 0.90291 0.32251 0.15541 0.0
N799 N 0.87939 0.31486 0.14663 0.0
N800 N 0.877 0.32087 0.1218 0.0
C801 C 0.8996 0.33206 0.11385 0.0
C802 C 0.91662 0.33352 0.13495 0.0
C803 C 0.9126 0.31791 0.1826 0.0
H804 H 0.89606 0.31744 0.19652 0.0
H805 H 0.92305 0.29899 0.18329 0.0
H806 H 0.92652 0.33323 0.18876 0.0
O807 O 0.82048 0.31775 0.1667 0.0
O808 O 0.8132 0.32854 0.12518 0.0
H809 H 0.88879 0.35449 0.08037 0.0
H810 H 0.92361 0.35229 0.08566 0.0
C811 C 0.90485 0.34151 0.08676 0.0
H812 H 0.90567 0.32462 0.07329 0.0
H813 H 0.82838 0.36419 0.07568 0.0
O814 O 0.86416 0.27917 0.19563 0.0
C815 C 0.80603 0.32796 0.14914 0.0
Co816 Co 0.65464 0.79022 0.65279 0.0
Co817 Co 0.59914 0.81582 0.66121 0.0
C818 C 0.60939 0.76098 0.67607 0.0
O819 O 0.63238 0.76323 0.66738 0.0
O820 O 0.59322 0.77977 0.67495 0.0
C821 C 0.67918 0.74967 0.62691 0.0
O822 O 0.65448 0.7441 0.62297 0.0
C823 C 0.54297 0.82404 0.65303 0.0
C824 C 0.53877 0.86654 0.65867 0.0
C825 C 0.52495 0.84431 0.65183 0.0
N826 N 0.56636 0.83396 0.6597 0.0
N827 N 0.56366 0.85936 0.66322 0.0
C828 C 0.53815 0.79548 0.64919 0.0
H829 H 0.54473 0.78476 0.66676 0.0
H830 H 0.54985 0.78839 0.63241 0.0
H831 H 0.51726 0.79092 0.64609 0.0
C832 C 0.64819 0.81282 0.60075 0.0
N833 N 0.63913 0.80798 0.62491 0.0
N834 N 0.61533 0.81729 0.62726 0.0
C835 C 0.60828 0.82782 0.60407 0.0
C836 C 0.62897 0.82543 0.58666 0.0
C837 C 0.67462 0.80485 0.59112 0.0
H838 H 0.67401 0.78403 0.5853 0.0
H839 H 0.68075 0.81629 0.57386 0.0
H840 H 0.68927 0.80732 0.60684 0.0
O841 O 0.66129 0.81333 0.68319 0.0
O842 O 0.62206 0.83143 0.68902 0.0
H843 H 0.58117 0.84731 0.57824 0.0
H844 H 0.56662 0.82661 0.60283 0.0
C845 C 0.58261 0.8406 0.59877 0.0
H846 H 0.58022 0.8576 0.61192 0.0
H847 H 0.57893 0.87186 0.66823 0.0
O848 O 0.68515 0.77008 0.63984 0.0
C849 C 0.64573 0.8279 0.69621 0.0
Co850 Co 0.21207 0.65653 0.65166 0.0
Co851 Co 0.18463 0.60205 0.65978 0.0
C852 C 0.24019 0.61137 0.67485 0.0
O853 O 0.23932 0.63417 0.66556 0.0
O854 O 0.22046 0.59639 0.6741 0.0
C855 C 0.25267 0.68049 0.62567 0.0
O856 O 0.2565 0.6557 0.62046 0.0
C857 C 0.18118 0.54764 0.6462 0.0
C858 C 0.14395 0.53444 0.66337 0.0
C859 C 0.16555 0.52572 0.64952 0.0
N860 N 0.16957 0.56806 0.65778 0.0
N861 N 0.14724 0.56015 0.66797 0.0
C862 C 0.20605 0.54999 0.63099 0.0
H863 H 0.2072 0.56939 0.62151 0.0
H864 H 0.20757 0.53442 0.61602 0.0
H865 H 0.22287 0.54865 0.64453 0.0
C866 C 0.18875 0.65108 0.59955 0.0
N867 N 0.19389 0.6416 0.6235 0.0
N868 N 0.18266 0.61869 0.62624 0.0
C869 C 0.16998 0.61288 0.6038 0.0
C870 C 0.17349 0.63321 0.58624 0.0
C871 C 0.19875 0.67664 0.58946 0.0
H872 H 0.21961 0.67448 0.58424 0.0
H873 H 0.18833 0.68315 0.57172 0.0
H874 H 0.19692 0.69184 0.60475 0.0
O875 O 0.1886 0.66232 0.6826 0.0
O876 O 0.16806 0.62407 0.68725 0.0
H877 H 0.14 0.59197 0.58278 0.0
H878 H 0.16576 0.57214 0.59604 0.0
C879 C 0.15319 0.58934 0.59975 0.0
H880 H 0.14139 0.58554 0.61747 0.0
H881 H 0.13443 0.57219 0.67821 0.0
O882 O 0.23276 0.6871 0.63912 0.0
C883 C 0.1727 0.64738 0.69492 0.0
Co884 Co 0.34689 0.21254 0.65364 0.0
Co885 Co 0.40199 0.18665 0.66229 0.0
C886 C 0.39214 0.24213 0.67576 0.0
O887 O 0.36919 0.24023 0.66691 0.0
O888 O 0.40773 0.22287 0.67542 0.0
C889 C 0.32279 0.25184 0.62614 0.0
O890 O 0.34754 0.25547 0.62055 0.0
C891 C 0.45723 0.18246 0.65119 0.0
C892 C 0.46721 0.14202 0.66196 0.0
C893 C 0.47773 0.16479 0.65176 0.0
N894 N 0.4357 0.17077 0.66051 0.0
N895 N 0.44176 0.14656 0.66698 0.0
C896 C 0.45736 0.20948 0.64011 0.0
H897 H 0.43779 0.21445 0.63229 0.0
H898 H 0.47219 0.21133 0.62443 0.0
H899 H 0.46208 0.22357 0.65585 0.0
C900 C 0.35273 0.18863 0.60195 0.0
N901 N 0.36193 0.1939 0.62599 0.0
N902 N 0.38554 0.18422 0.62852 0.0
C903 C 0.39236 0.17294 0.60559 0.0
C904 C 0.37176 0.17543 0.58807 0.0
C905 C 0.32642 0.19684 0.5922 0.0
H906 H 0.31195 0.19617 0.60825 0.0
H907 H 0.32769 0.21704 0.58461 0.0
H908 H 0.31946 0.18425 0.5761 0.0
O909 O 0.34101 0.19004 0.68487 0.0
O910 O 0.37977 0.17101 0.6907 0.0
H911 H 0.42121 0.14482 0.61649 0.0
H912 H 0.41741 0.14881 0.58167 0.0
C913 C 0.41759 0.15913 0.60071 0.0
H914 H 0.43374 0.17351 0.60073 0.0
H915 H 0.42849 0.13309 0.67453 0.0
O916 O 0.31633 0.23265 0.64062 0.0
C917 C 0.35626 0.17531 0.69809 0.0
Co918 Co 0.80154 0.34526 0.65916 0.0
Co919 Co 0.81521 0.40492 0.66158 0.0
C920 C 0.76589 0.38871 0.68059 0.0
O921 O 0.77425 0.3659 0.67597 0.0
O922 O 0.77855 0.40881 0.67343 0.0
C923 C 0.76355 0.31736 0.63269 0.0
O924 O 0.7594 0.34123 0.62438 0.0
C925 C 0.82144 0.46156 0.65323 0.0
C926 C 0.86433 0.46519 0.65039 0.0
C927 C 0.84138 0.47925 0.6482 0.0
N928 N 0.83214 0.438 0.65753 0.0
N929 N 0.85778 0.44036 0.65595 0.0
C930 C 0.79281 0.467 0.65526 0.0
H931 H 0.78524 0.45882 0.6738 0.0
H932 H 0.78245 0.45714 0.63901 0.0
H933 H 0.78858 0.4882 0.65484 0.0
C934 C 0.81893 0.35146 0.60557 0.0
N935 N 0.81499 0.36129 0.62952 0.0
N936 N 0.81794 0.38671 0.62905 0.0
C937 C 0.82286 0.39403 0.60417 0.0
C938 C 0.82333 0.37185 0.58845 0.0
C939 C 0.81985 0.32287 0.59953 0.0
H940 H 0.8256 0.31169 0.61715 0.0
H941 H 0.80038 0.316 0.59318 0.0
H942 H 0.83386 0.31897 0.58347 0.0
O943 O 0.82767 0.34227 0.68704 0.0
O944 O 0.8319 0.3854 0.69186 0.0
H945 H 0.84471 0.42935 0.60152 0.0
H946 H 0.82367 0.42343 0.57391 0.0
C947 C 0.8254 0.42173 0.59542 0.0
H948 H 0.81015 0.43379 0.6049 0.0
H949 H 0.8708 0.42486 0.65811 0.0
O950 O 0.78241 0.31328 0.64847 0.0
C951 C 0.83592 0.36205 0.69979 0.0
Co952 Co 0.65507 0.21161 0.34848 0.0
Co953 Co 0.60025 0.18532 0.34009 0.0
C954 C 0.60985 0.2403 0.32511 0.0
O955 O 0.63286 0.2384 0.33373 0.0
O956 O 0.59406 0.22121 0.3261 0.0
C957 C 0.67929 0.25258 0.37357 0.0
O958 O 0.65456 0.25787 0.37769 0.0
C959 C 0.54538 0.18059 0.35187 0.0
C960 C 0.53507 0.14066 0.33955 0.0
C961 C 0.52472 0.16306 0.35075 0.0
N962 N 0.56673 0.16914 0.3419 0.0
N963 N 0.56051 0.14524 0.33453 0.0
C964 C 0.54569 0.20724 0.36385 0.0
H965 H 0.56556 0.21206 0.37098 0.0
H966 H 0.53156 0.20852 0.38021 0.0
H967 H 0.54036 0.22185 0.3488 0.0
C968 C 0.64864 0.1903 0.40094 0.0
N969 N 0.6397 0.19431 0.37661 0.0
N970 N 0.61624 0.1842 0.37419 0.0
C971 C 0.60932 0.17382 0.39751 0.0
C972 C 0.62965 0.17748 0.41511 0.0
C973 C 0.6748 0.19909 0.4106 0.0
H974 H 0.6896 0.19681 0.39499 0.0
H975 H 0.67362 0.21992 0.41628 0.0
H976 H 0.68121 0.18793 0.42794 0.0
O977 O 0.66184 0.18773 0.31884 0.0
O978 O 0.62308 0.16891 0.31253 0.0
H979 H 0.58526 0.1489 0.42155 0.0
H980 H 0.56813 0.17387 0.40378 0.0
C981 C 0.58436 0.15964 0.40278 0.0
H982 H 0.5803 0.1457 0.38676 0.0
H983 H 0.57362 0.13204 0.32625 0.0
O984 O 0.68544 0.23207 0.36088 0.0
C985 C 0.6469 0.17256 0.30582 0.0
Co986 Co 0.78798 0.65584 0.34357 0.0
Co987 Co 0.81306 0.60006 0.33676 0.0
C988 C 0.75933 0.61084 0.31922 0.0
O989 O 0.76124 0.63399 0.32759 0.0
O990 O 0.77774 0.59451 0.32198 0.0
C991 C 0.74788 0.67956 0.3704 0.0
O992 O 0.74304 0.65466 0.37405 0.0
C993 C 0.8174 0.54481 0.34701 0.0
C994 C 0.85741 0.53487 0.33451 0.0
C995 C 0.8348 0.52408 0.34481 0.0
N996 N 0.8291 0.56652 0.33819 0.0
N997 N 0.85303 0.56053 0.33072 0.0
C998 C 0.79071 0.54492 0.35897 0.0
H999 H 0.78663 0.56415 0.36801 0.0
H1000 H 0.78873 0.52924 0.37376 0.0
H1001 H 0.77591 0.54207 0.34344 0.0
C1002 C 0.80837 0.64962 0.39607 0.0
N1003 N 0.80482 0.64022 0.37189 0.0
N1004 N 0.81363 0.61618 0.37058 0.0
C1005 C 0.82242 0.60928 0.39456 0.0
C1006 C 0.81877 0.63018 0.41154 0.0
C1007 C 0.80417 0.67754 0.40371 0.0
H1008 H 0.80785 0.69053 0.38681 0.0
H1009 H 0.78379 0.68031 0.41034 0.0
H1010 H 0.81732 0.68313 0.42 0.0
O1011 O 0.81213 0.66225 0.31413 0.0
O1012 O 0.82963 0.6226 0.30928 0.0
H1013 H 0.84763 0.57704 0.38589 0.0
H1014 H 0.84389 0.58364 0.42034 0.0
C1015 C 0.83373 0.58322 0.40126 0.0
H1016 H 0.81785 0.56861 0.40243 0.0
H1017 H 0.86633 0.57391 0.32309 0.0
O1018 O 0.76766 0.68619 0.35679 0.0
C1019 C 0.82671 0.64622 0.3017 0.0
Co1020 Co 0.34296 0.79176 0.34729 0.0
Co1021 Co 0.39987 0.81435 0.33948 0.0
C1022 C 0.38798 0.75951 0.32721 0.0
O1023 O 0.36473 0.76327 0.33466 0.0
O1024 O 0.40493 0.77758 0.32805 0.0
C1025 C 0.31803 0.75425 0.3765 0.0
O1026 O 0.34276 0.75042 0.38204 0.0
C1027 C 0.45566 0.81866 0.34997 0.0
C1028 C 0.46493 0.85929 0.33925 0.0
C1029 C 0.47601 0.83664 0.34915 0.0
N1030 N 0.43381 0.83013 0.34107 0.0
N1031 N 0.43947 0.85444 0.33466 0.0
C1032 C 0.45623 0.79153 0.36075 0.0
H1033 H 0.43666 0.78593 0.36813 0.0
H1034 H 0.47075 0.78988 0.37673 0.0
H1035 H 0.46159 0.77772 0.34496 0.0
C1036 C 0.34913 0.8152 0.39844 0.0
N1037 N 0.35845 0.8104 0.37444 0.0
N1038 N 0.383 0.81768 0.37302 0.0
C1039 C 0.39033 0.82652 0.39687 0.0
C1040 C 0.36912 0.82474 0.41381 0.0
C1041 C 0.3211 0.81214 0.40624 0.0
H1042 H 0.30819 0.81509 0.38912 0.0
H1043 H 0.31774 0.7923 0.41409 0.0
H1044 H 0.31592 0.82637 0.42173 0.0
O1045 O 0.33796 0.81338 0.31584 0.0
O1046 O 0.37817 0.8293 0.30983 0.0
H1047 H 0.42412 0.84987 0.38931 0.0
H1048 H 0.41802 0.84398 0.42355 0.0
C1049 C 0.41729 0.83531 0.40374 0.0
H1050 H 0.4307 0.81837 0.40315 0.0
H1051 H 0.42593 0.86778 0.3274 0.0
O1052 O 0.31188 0.77278 0.36104 0.0
C1053 C 0.3545 0.82624 0.30226 0.0
Co1054 Co 0.21321 0.34932 0.34918 0.0
Co1055 Co 0.18744 0.4049 0.34128 0.0
C1056 C 0.24255 0.39478 0.32665 0.0
O1057 O 0.24037 0.37173 0.33517 0.0
O1058 O 0.22363 0.41082 0.32768 0.0
C1059 C 0.25333 0.32463 0.37572 0.0
O1060 O 0.25852 0.34932 0.38016 0.0
C1061 C 0.17937 0.46089 0.35104 0.0
C1062 C 0.13719 0.46579 0.34372 0.0
C1063 C 0.15922 0.47903 0.35212 0.0
N1064 N 0.16952 0.43785 0.34318 0.0
N1065 N 0.14431 0.44097 0.33867 0.0
C1066 C 0.20783 0.46547 0.35583 0.0
H1067 H 0.21915 0.45879 0.33866 0.0
H1068 H 0.21423 0.45377 0.37287 0.0
H1069 H 0.21233 0.48636 0.3591 0.0
C1070 C 0.19004 0.35507 0.40113 0.0
N1071 N 0.19513 0.36449 0.37715 0.0
N1072 N 0.1857 0.38824 0.37502 0.0
C1073 C 0.17479 0.3949 0.39818 0.0
C1074 C 0.17718 0.37403 0.41541 0.0
C1075 C 0.1981 0.32854 0.41039 0.0
H1076 H 0.19637 0.31422 0.39429 0.0
H1077 H 0.21869 0.32933 0.41698 0.0
H1078 H 0.18618 0.32175 0.42706 0.0
O1079 O 0.19017 0.34315 0.31849 0.0
O1080 O 0.17178 0.38232 0.31321 0.0
H1081 H 0.14537 0.42303 0.38923 0.0
H1082 H 0.1531 0.42088 0.42349 0.0
C1083 C 0.16137 0.42025 0.40349 0.0
H1084 H 0.17549 0.43647 0.40111 0.0
H1085 H 0.13188 0.42605 0.33254 0.0
O1086 O 0.23338 0.31869 0.36204 0.0
C1087 C 0.17542 0.35876 0.30572 0.0
Co1088 Co 0.65546 0.65852 0.791 0.0
Co1089 Co 0.66159 0.60154 0.8136 0.0
C1090 C 0.67898 0.6143 0.76026 0.0
O1091 O 0.67129 0.6375 0.76354 0.0
O1092 O 0.676 0.5971 0.77783 0.0
C1093 C 0.62856 0.68193 0.75139 0.0
O1094 O 0.62375 0.65697 0.74814 0.0
C1095 C 0.64948 0.54643 0.81528 0.0
C1096 C 0.66167 0.53409 0.85468 0.0
C1097 C 0.65077 0.52481 0.83167 0.0
N1098 N 0.6593 0.56719 0.82794 0.0
N1099 N 0.6666 0.55974 0.8515 0.0
C1100 C 0.63735 0.54835 0.78876 0.0
H1101 H 0.62908 0.56811 0.78572 0.0
H1102 H 0.62189 0.53341 0.78615 0.0
H1103 H 0.65265 0.54561 0.77369 0.0
C1104 C 0.6027 0.65201 0.81104 0.0
N1105 N 0.62683 0.64254 0.80716 0.0
N1106 N 0.62794 0.61821 0.81513 0.0
C1107 C 0.60391 0.61126 0.82385 0.0
C1108 C 0.58708 0.6324 0.82096 0.0
C1109 C 0.5952 0.68004 0.80743 0.0
H1110 H 0.61223 0.69288 0.81112 0.0
H1111 H 0.58837 0.68323 0.78718 0.0
H1112 H 0.57907 0.68546 0.82085 0.0
O1113 O 0.68505 0.66361 0.81559 0.0
O1114 O 0.68958 0.62307 0.83109 0.0
H1115 H 0.61248 0.57811 0.84786 0.0
H1116 H 0.57809 0.58533 0.84494 0.0
C1117 C 0.59699 0.58496 0.83443 0.0
H1118 H 0.59529 0.57089 0.81812 0.0
H1119 H 0.67478 0.57214 0.8654 0.0
O1120 O 0.6425 0.68914 0.77074 0.0
C1121 C 0.69736 0.64679 0.82939 0.0
Co1122 Co 0.34498 0.65319 0.78994 0.0
Co1123 Co 0.3999 0.66073 0.81678 0.0
C1124 C 0.39057 0.67496 0.76117 0.0
O1125 O 0.36753 0.66625 0.7624 0.0
O1126 O 0.40578 0.67396 0.7807 0.0
C1127 C 0.32054 0.62658 0.75004 0.0
O1128 O 0.34522 0.62056 0.74662 0.0
C1129 C 0.45458 0.64773 0.82059 0.0
C1130 C 0.46723 0.66545 0.85775 0.0
C1131 C 0.47638 0.65165 0.8363 0.0
N1132 N 0.43385 0.65896 0.83202 0.0
N1133 N 0.44145 0.66947 0.8543 0.0
C1134 C 0.45266 0.63237 0.79579 0.0
H1135 H 0.43331 0.62277 0.79443 0.0
H1136 H 0.46835 0.61751 0.79456 0.0
H1137 H 0.45414 0.64582 0.77891 0.0
C1138 C 0.34998 0.60111 0.81364 0.0
N1139 N 0.35955 0.62506 0.80859 0.0
N1140 N 0.38277 0.62745 0.81927 0.0
C1141 C 0.38875 0.60475 0.83136 0.0
C1142 C 0.36823 0.5873 0.82799 0.0
C1143 C 0.32407 0.59141 0.80413 0.0
H1144 H 0.30945 0.60731 0.80488 0.0
H1145 H 0.32614 0.58464 0.7837 0.0
H1146 H 0.31675 0.57478 0.81575 0.0
O1147 O 0.33973 0.6848 0.81257 0.0
O1148 O 0.37831 0.68911 0.83254 0.0
H1149 H 0.41715 0.6178 0.8592 0.0
H1150 H 0.41028 0.58319 0.86046 0.0
C1151 C 0.41275 0.60025 0.84736 0.0
H1152 H 0.42952 0.59644 0.83426 0.0
H1153 H 0.42914 0.67962 0.86695 0.0
O1154 O 0.3142 0.64088 0.76944 0.0
C1155 C 0.35515 0.69722 0.82791 0.0
Co1156 Co 0.3469 0.34791 0.78825 0.0
Co1157 Co 0.33932 0.40332 0.81448 0.0
C1158 C 0.32482 0.39405 0.75943 0.0
O1159 O 0.33297 0.37083 0.76138 0.0
O1160 O 0.32597 0.40986 0.77851 0.0
C1161 C 0.374 0.3241 0.74815 0.0
O1162 O 0.37917 0.34889 0.74426 0.0
C1163 C 0.34821 0.45923 0.82303 0.0
C1164 C 0.34319 0.46335 0.86563 0.0
C1165 C 0.35009 0.47705 0.84338 0.0
N1166 N 0.34134 0.43591 0.83291 0.0
N1167 N 0.33817 0.43855 0.85837 0.0
C1168 C 0.35131 0.46432 0.79442 0.0
H1169 H 0.33313 0.45863 0.7842 0.0
H1170 H 0.36737 0.45207 0.78661 0.0
H1171 H 0.35512 0.48515 0.79014 0.0
C1172 C 0.39889 0.35337 0.81138 0.0
N1173 N 0.37489 0.36282 0.80645 0.0
N1174 N 0.37295 0.38666 0.81574 0.0
C1175 C 0.39626 0.39339 0.82622 0.0
C1176 C 0.41329 0.37242 0.8239 0.0
C1177 C 0.40811 0.32673 0.80366 0.0
H1178 H 0.39185 0.31252 0.80498 0.0
H1179 H 0.41532 0.32736 0.78328 0.0
H1180 H 0.42442 0.31998 0.81612 0.0
O1181 O 0.31628 0.34144 0.81135 0.0
O1182 O 0.31132 0.38056 0.82993 0.0
H1183 H 0.38925 0.4217 0.85597 0.0
H1184 H 0.42273 0.42034 0.8451 0.0
C1185 C 0.40207 0.41908 0.83875 0.0
H1186 H 0.39795 0.43501 0.82473 0.0
H1187 H 0.33306 0.42332 0.87087 0.0
O1188 O 0.35984 0.31762 0.76759 0.0
C1189 C 0.30371 0.35704 0.82629 0.0
Co1190 Co 0.65443 0.34532 0.7907 0.0
Co1191 Co 0.59766 0.33981 0.81359 0.0
C1192 C 0.61013 0.32129 0.76051 0.0
O1193 O 0.63316 0.32984 0.76324 0.0
O1194 O 0.59301 0.32406 0.7783 0.0
C1195 C 0.68166 0.37188 0.75244 0.0
O1196 O 0.65751 0.37876 0.74731 0.0
C1197 C 0.54112 0.34813 0.82014 0.0
C1198 C 0.53714 0.3494 0.86303 0.0
C1199 C 0.52319 0.3524 0.84007 0.0
N1200 N 0.56461 0.34334 0.83086 0.0
N1201 N 0.56203 0.34397 0.85651 0.0
C1202 C 0.5361 0.34751 0.79136 0.0
H1203 H 0.54387 0.32908 0.78315 0.0
H1204 H 0.54662 0.36388 0.78188 0.0
H1205 H 0.51502 0.34862 0.7867 0.0
C1206 C 0.64861 0.3983 0.80964 0.0
N1207 N 0.63907 0.37413 0.80644 0.0
N1208 N 0.61441 0.3735 0.8133 0.0
C1209 C 0.60711 0.39804 0.81995 0.0
C1210 C 0.62858 0.41459 0.81745 0.0
C1211 C 0.677 0.40516 0.80778 0.0
H1212 H 0.68921 0.38787 0.81232 0.0
H1213 H 0.68172 0.41185 0.78779 0.0
H1214 H 0.68187 0.42121 0.82148 0.0
O1215 O 0.65941 0.31631 0.81513 0.0
O1216 O 0.61922 0.31188 0.83141 0.0
H1217 H 0.57532 0.39725 0.84685 0.0
H1218 H 0.57776 0.4272 0.82843 0.0
C1219 C 0.57998 0.40569 0.82749 0.0
H1220 H 0.56594 0.39766 0.81313 0.0
H1221 H 0.57741 0.34129 0.86958 0.0
O1222 O 0.68596 0.35681 0.77176 0.0
C1223 C 0.64286 0.30404 0.82916 0.0
Co1224 Co 0.65327 0.34668 0.21297 0.0
Co1225 Co 0.66306 0.39989 0.18401 0.0
C1226 C 0.67889 0.39057 0.23978 0.0
O1227 O 0.66686 0.36904 0.24048 0.0
O1228 O 0.67906 0.40454 0.21931 0.0
C1229 C 0.62661 0.32247 0.2529 0.0
O1230 O 0.62157 0.34724 0.25707 0.0
C1231 C 0.65162 0.45498 0.18064 0.0
C1232 C 0.66563 0.46647 0.14158 0.0
C1233 C 0.65392 0.47622 0.16397 0.0
N1234 N 0.6617 0.43389 0.16881 0.0
N1235 N 0.67005 0.44081 0.14543 0.0
C1236 C 0.63833 0.45387 0.20664 0.0
H1237 H 0.62858 0.43471 0.20919 0.0
H1238 H 0.62383 0.46981 0.20872 0.0
H1239 H 0.65317 0.45562 0.2223 0.0
C1240 C 0.6013 0.35274 0.1896 0.0
N1241 N 0.62558 0.36162 0.19435 0.0
N1242 N 0.62882 0.38433 0.1829 0.0
C1243 C 0.60626 0.39077 0.17071 0.0
C1244 C 0.58818 0.37091 0.17461 0.0
C1245 C 0.59072 0.32735 0.19954 0.0
H1246 H 0.58499 0.32973 0.22025 0.0
H1247 H 0.57315 0.32098 0.18872 0.0
H1248 H 0.60582 0.31195 0.19809 0.0
O1249 O 0.68472 0.34062 0.19045 0.0
O1250 O 0.6899 0.37716 0.16719 0.0
H1251 H 0.6194 0.41731 0.14124 0.0
H1252 H 0.58432 0.41323 0.14258 0.0
C1253 C 0.60243 0.41462 0.15438 0.0
H1254 H 0.601 0.43194 0.16726 0.0
H1255 H 0.67866 0.42805 0.1321 0.0
O1256 O 0.64036 0.31606 0.23314 0.0
C1257 C 0.69756 0.35438 0.17396 0.0
Co1258 Co 0.65886 0.6566 0.20218 0.0
Co1259 Co 0.59968 0.65979 0.18599 0.0
C1260 C 0.61505 0.67679 0.23757 0.0
O1261 O 0.63825 0.67162 0.23073 0.0
O1262 O 0.59583 0.6722 0.22256 0.0
C1263 C 0.68391 0.62936 0.23994 0.0
O1264 O 0.65913 0.62377 0.24338 0.0
C1265 C 0.54318 0.65083 0.1812 0.0
C1266 C 0.53803 0.64874 0.13844 0.0
C1267 C 0.52487 0.64583 0.16186 0.0
N1268 N 0.56627 0.65574 0.16974 0.0
N1269 N 0.56301 0.65462 0.14418 0.0
C1270 C 0.53877 0.65225 0.21004 0.0
H1271 H 0.54598 0.67125 0.21743 0.0
H1272 H 0.55011 0.63663 0.21982 0.0
H1273 H 0.51783 0.65044 0.21517 0.0
C1274 C 0.65298 0.60361 0.18289 0.0
N1275 N 0.64305 0.62746 0.18721 0.0
N1276 N 0.61775 0.62714 0.18329 0.0
C1277 C 0.6106 0.60241 0.17729 0.0
C1278 C 0.63277 0.58669 0.17714 0.0
C1279 C 0.68156 0.59739 0.18305 0.0
H1280 H 0.69313 0.61505 0.17826 0.0
H1281 H 0.68747 0.59041 0.20262 0.0
H1282 H 0.68597 0.58169 0.16879 0.0
O1283 O 0.66214 0.68563 0.17706 0.0
O1284 O 0.6194 0.68937 0.16888 0.0
H1285 H 0.57592 0.60111 0.15431 0.0
H1286 H 0.58139 0.57215 0.17356 0.0
C1287 C 0.58302 0.59374 0.17336 0.0
H1288 H 0.57047 0.60208 0.18888 0.0
H1289 H 0.578 0.65728 0.13065 0.0
O1290 O 0.69038 0.64435 0.22112 0.0
C1291 C 0.64291 0.69753 0.16656 0.0
Co1292 Co 0.34797 0.65302 0.21359 0.0
Co1293 Co 0.34059 0.59735 0.18795 0.0
C1294 C 0.32468 0.60737 0.24238 0.0
O1295 O 0.33272 0.63057 0.24003 0.0
O1296 O 0.32646 0.59107 0.22376 0.0
C1297 C 0.37301 0.67663 0.25493 0.0
O1298 O 0.37742 0.6518 0.25943 0.0
C1299 C 0.34964 0.5415 0.17959 0.0
C1300 C 0.34506 0.53742 0.13693 0.0
C1301 C 0.35171 0.52366 0.15924 0.0
N1302 N 0.34273 0.56477 0.16965 0.0
N1303 N 0.33981 0.56215 0.14417 0.0
C1304 C 0.3529 0.53661 0.20822 0.0
H1305 H 0.33503 0.54295 0.2186 0.0
H1306 H 0.36942 0.54845 0.2157 0.0
H1307 H 0.3561 0.51575 0.21276 0.0
C1308 C 0.40055 0.64679 0.19226 0.0
N1309 N 0.37635 0.63758 0.1966 0.0
N1310 N 0.37435 0.61378 0.18724 0.0
C1311 C 0.39777 0.60686 0.17714 0.0
C1312 C 0.41502 0.62761 0.17998 0.0
C1313 C 0.40979 0.67329 0.20041 0.0
H1314 H 0.39384 0.68772 0.19825 0.0
H1315 H 0.41583 0.67259 0.22117 0.0
H1316 H 0.42683 0.67984 0.18885 0.0
O1317 O 0.31839 0.6596 0.1894 0.0
O1318 O 0.3132 0.62012 0.17168 0.0
H1319 H 0.39016 0.579 0.1471 0.0
H1320 H 0.42385 0.58029 0.15713 0.0
C1321 C 0.40336 0.58139 0.16405 0.0
H1322 H 0.39963 0.56523 0.17791 0.0
H1323 H 0.33481 0.57739 0.13164 0.0
O1324 O 0.36035 0.68326 0.23456 0.0
C1325 C 0.30593 0.64382 0.17456 0.0
Co1326 Co 0.34859 0.34919 0.2139 0.0
Co1327 Co 0.40373 0.34066 0.18696 0.0
C1328 C 0.39373 0.32558 0.2423 0.0
O1329 O 0.37102 0.33514 0.24099 0.0
O1330 O 0.40911 0.32595 0.22282 0.0
C1331 C 0.3245 0.37606 0.25417 0.0
O1332 O 0.34932 0.38093 0.25832 0.0
C1333 C 0.4597 0.35187 0.17846 0.0
C1334 C 0.46523 0.34007 0.13744 0.0
C1335 C 0.47823 0.35089 0.15858 0.0
N1336 N 0.4369 0.34244 0.16933 0.0
N1337 N 0.44041 0.33538 0.14478 0.0
C1338 C 0.4637 0.36094 0.20595 0.0
H1339 H 0.44846 0.35311 0.21902 0.0
H1340 H 0.46251 0.38252 0.20666 0.0
H1341 H 0.48322 0.35492 0.21314 0.0
C1342 C 0.35447 0.40089 0.19041 0.0
N1343 N 0.3639 0.37698 0.19574 0.0
N1344 N 0.3873 0.37444 0.18549 0.0
C1345 C 0.39362 0.39716 0.17355 0.0
C1346 C 0.37296 0.4145 0.17627 0.0
C1347 C 0.3283 0.41064 0.19909 0.0
H1348 H 0.31357 0.39489 0.1974 0.0
H1349 H 0.3296 0.41687 0.21976 0.0
H1350 H 0.32171 0.42769 0.18762 0.0
O1351 O 0.34234 0.31849 0.19053 0.0
O1352 O 0.38086 0.31343 0.17062 0.0
H1353 H 0.42072 0.38622 0.14376 0.0
H1354 H 0.41778 0.42102 0.14848 0.0
C1355 C 0.41816 0.40184 0.15849 0.0
H1356 H 0.43503 0.40133 0.17197 0.0
H1357 H 0.42579 0.32758 0.13295 0.0
O1358 O 0.31805 0.36229 0.23442 0.0
C1359 C 0.35738 0.30601 0.17489 0.0
Co1360 Co 0.79467 0.65748 0.65569 0.0
Co1361 Co 0.81527 0.66258 0.598 0.0
C1362 C 0.76173 0.67736 0.6109 0.0
O1363 O 0.76657 0.67187 0.63445 0.0
O1364 O 0.77854 0.67372 0.59309 0.0
C1365 C 0.75542 0.63153 0.6812 0.0
O1366 O 0.75096 0.62613 0.65654 0.0
C1367 C 0.81797 0.64889 0.54349 0.0
C1368 C 0.85536 0.66568 0.5302 0.0
C1369 C 0.83364 0.65198 0.52154 0.0
N1370 N 0.82972 0.66044 0.56384 0.0
N1371 N 0.85211 0.67042 0.55587 0.0
C1372 C 0.79303 0.63383 0.54607 0.0
H1373 H 0.79144 0.62528 0.56588 0.0
H1374 H 0.7918 0.61817 0.53116 0.0
H1375 H 0.77625 0.6473 0.54382 0.0
C1376 C 0.81667 0.60492 0.65009 0.0
N1377 N 0.81133 0.62866 0.64024 0.0
N1378 N 0.81941 0.6299 0.61591 0.0
C1379 C 0.82995 0.60654 0.60947 0.0
C1380 C 0.82828 0.58998 0.63086 0.0
C1381 C 0.81 0.59646 0.67727 0.0
H1382 H 0.81182 0.61312 0.69093 0.0
H1383 H 0.78964 0.58916 0.67764 0.0
H1384 H 0.82282 0.58049 0.68408 0.0
O1385 O 0.81908 0.68756 0.65984 0.0
O1386 O 0.83081 0.69237 0.61802 0.0
H1387 H 0.85581 0.58313 0.58585 0.0
H1388 H 0.8277 0.59579 0.56921 0.0
C1389 C 0.8428 0.60034 0.58399 0.0
H1390 H 0.85436 0.61727 0.57716 0.0
H1391 H 0.86505 0.68054 0.56788 0.0
O1392 O 0.77513 0.64557 0.68713 0.0
C1393 C 0.83084 0.70016 0.64173 0.0
Co1394 Co 0.79531 0.34343 0.34269 0.0
Co1395 Co 0.814 0.34116 0.4013 0.0
C1396 C 0.76128 0.32566 0.38812 0.0
O1397 O 0.76695 0.32988 0.36445 0.0
O1398 O 0.7774 0.3303 0.40632 0.0
C1399 C 0.75709 0.37026 0.31671 0.0
O1400 O 0.7534 0.3765 0.3413 0.0
C1401 C 0.81701 0.35319 0.45669 0.0
C1402 C 0.85772 0.34342 0.46687 0.0
C1403 C 0.83452 0.35256 0.47741 0.0
N1404 N 0.82922 0.34455 0.43515 0.0
N1405 N 0.85357 0.33876 0.44131 0.0
C1406 C 0.78968 0.36354 0.45656 0.0
H1407 H 0.78516 0.37248 0.43739 0.0
H1408 H 0.78677 0.37808 0.47235 0.0
H1409 H 0.77582 0.34715 0.45931 0.0
C1410 C 0.81639 0.39592 0.34653 0.0
N1411 N 0.81184 0.37251 0.35733 0.0
N1412 N 0.81754 0.37325 0.3823 0.0
C1413 C 0.82509 0.39786 0.38835 0.0
C1414 C 0.8241 0.4131 0.36586 0.0
C1415 C 0.81495 0.40135 0.31782 0.0
H1416 H 0.81941 0.38339 0.30659 0.0
H1417 H 0.79508 0.40794 0.31252 0.0
H1418 H 0.82888 0.41701 0.31233 0.0
O1419 O 0.81937 0.31327 0.33982 0.0
O1420 O 0.8295 0.31027 0.38219 0.0
H1421 H 0.846 0.39335 0.42424 0.0
H1422 H 0.84012 0.42691 0.41515 0.0
C1423 C 0.8318 0.40695 0.41527 0.0
H1424 H 0.81393 0.40709 0.42742 0.0
H1425 H 0.86734 0.33169 0.42809 0.0
O1426 O 0.77602 0.35511 0.31088 0.0
C1427 C 0.83024 0.30131 0.35886 0.0
Co1428 Co 0.65555 0.79031 0.34523 0.0
Co1429 Co 0.66042 0.81417 0.40217 0.0
C1430 C 0.67486 0.75965 0.39169 0.0
O1431 O 0.66829 0.76294 0.36813 0.0
O1432 O 0.67252 0.77778 0.40847 0.0
C1433 C 0.63003 0.75039 0.31993 0.0
O1434 O 0.62382 0.7463 0.34445 0.0
C1435 C 0.65185 0.82153 0.45864 0.0
C1436 C 0.6508 0.86443 0.4623 0.0
C1437 C 0.64768 0.8416 0.47645 0.0
N1438 N 0.65669 0.83203 0.43505 0.0
N1439 N 0.65618 0.8577 0.43745 0.0
C1440 C 0.65243 0.79281 0.46391 0.0
H1441 H 0.67153 0.78485 0.45758 0.0
H1442 H 0.637 0.78304 0.45229 0.0
H1443 H 0.6499 0.78819 0.48486 0.0
C1444 C 0.60315 0.81196 0.34936 0.0
N1445 N 0.62709 0.80816 0.35936 0.0
N1446 N 0.62763 0.81605 0.38374 0.0
C1447 C 0.60338 0.82434 0.39029 0.0
C1448 C 0.58708 0.82195 0.36862 0.0
C1449 C 0.59594 0.80686 0.32151 0.0
H1450 H 0.61322 0.80926 0.3087 0.0
H1451 H 0.58851 0.78663 0.31959 0.0
H1452 H 0.58031 0.82038 0.31508 0.0
O1453 O 0.687 0.81241 0.34135 0.0
O1454 O 0.69081 0.82908 0.38155 0.0
H1455 H 0.60343 0.85188 0.42153 0.0
H1456 H 0.57394 0.83269 0.41941 0.0
C1457 C 0.59548 0.83222 0.41725 0.0
H1458 H 0.60372 0.81832 0.4316 0.0
H1459 H 0.65894 0.87064 0.42198 0.0
O1460 O 0.64412 0.77005 0.31402 0.0
C1461 C 0.69956 0.82568 0.35837 0.0
Co1462 Co 0.21514 0.65431 0.35106 0.0
Co1463 Co 0.18321 0.66335 0.40262 0.0
C1464 C 0.24009 0.67756 0.3966 0.0
O1465 O 0.24214 0.66446 0.37578 0.0
O1466 O 0.21847 0.67914 0.4087 0.0
C1467 C 0.25498 0.62717 0.32608 0.0
O1468 O 0.25903 0.62087 0.35057 0.0
C1469 C 0.17429 0.65128 0.45788 0.0
C1470 C 0.13396 0.66492 0.46427 0.0
C1471 C 0.15483 0.65302 0.47676 0.0
N1472 N 0.16523 0.66142 0.43542 0.0
N1473 N 0.14107 0.66949 0.43937 0.0
C1474 C 0.20145 0.641 0.4612 0.0
H1475 H 0.21433 0.64774 0.44527 0.0
H1476 H 0.20106 0.61938 0.46057 0.0
H1477 H 0.20958 0.64716 0.4803 0.0
C1478 C 0.18993 0.60276 0.35404 0.0
N1479 N 0.19449 0.62681 0.36364 0.0
N1480 N 0.18232 0.62957 0.38606 0.0
C1481 C 0.16992 0.6069 0.39162 0.0
C1482 C 0.17444 0.5892 0.37153 0.0
C1483 C 0.20098 0.59262 0.32893 0.0
H1484 H 0.20116 0.60827 0.31403 0.0
H1485 H 0.22121 0.5858 0.33236 0.0
H1486 H 0.18975 0.5759 0.32119 0.0
O1487 O 0.19467 0.68741 0.3456 0.0
O1488 O 0.16787 0.69091 0.37983 0.0
H1489 H 0.13919 0.61907 0.41717 0.0
H1490 H 0.14176 0.5841 0.41327 0.0
C1491 C 0.15297 0.60256 0.41497 0.0
H1492 H 0.16534 0.60161 0.43267 0.0
H1493 H 0.12943 0.6781 0.42507 0.0
O1494 O 0.23584 0.64207 0.32044 0.0
C1495 C 0.1771 0.69979 0.3584 0.0
Co1496 Co 0.34697 0.21326 0.34758 0.0
Co1497 Co 0.34102 0.18856 0.40397 0.0
C1498 C 0.32627 0.24323 0.39386 0.0
O1499 O 0.33359 0.24055 0.37042 0.0
O1500 O 0.32821 0.22472 0.41026 0.0
C1501 C 0.37467 0.2523 0.32329 0.0
O1502 O 0.38054 0.25561 0.34801 0.0
C1503 C 0.34972 0.18062 0.46017 0.0
C1504 C 0.3495 0.13768 0.46364 0.0
C1505 C 0.35374 0.16036 0.47772 0.0
N1506 N 0.34417 0.17037 0.43664 0.0
N1507 N 0.34387 0.14469 0.43891 0.0
C1508 C 0.34988 0.20931 0.46569 0.0
H1509 H 0.33098 0.21782 0.45954 0.0
H1510 H 0.36551 0.21878 0.45407 0.0
H1511 H 0.35267 0.21358 0.4867 0.0
C1512 C 0.39893 0.19079 0.3522 0.0
N1513 N 0.37505 0.19518 0.36208 0.0
N1514 N 0.37413 0.18708 0.38637 0.0
C1515 C 0.39809 0.17813 0.39302 0.0
C1516 C 0.41456 0.18028 0.37149 0.0
C1517 C 0.40641 0.19534 0.32431 0.0
H1518 H 0.38909 0.19354 0.31147 0.0
H1519 H 0.41475 0.21518 0.32223 0.0
H1520 H 0.42146 0.18109 0.31802 0.0
O1521 O 0.31605 0.1906 0.34251 0.0
O1522 O 0.31189 0.17311 0.38228 0.0
H1523 H 0.39663 0.15021 0.42388 0.0
H1524 H 0.42704 0.16793 0.42203 0.0
C1525 C 0.40556 0.1695 0.41987 0.0
H1526 H 0.39801 0.18362 0.4344 0.0
H1527 H 0.34042 0.13191 0.42344 0.0
O1528 O 0.35966 0.23349 0.31685 0.0
C1529 C 0.30364 0.17642 0.35892 0.0
Co1530 Co 0.2123 0.34798 0.65503 0.0
Co1531 Co 0.18705 0.34055 0.59918 0.0
C1532 C 0.24144 0.32508 0.60921 0.0
O1533 O 0.23912 0.33313 0.63245 0.0
O1534 O 0.22279 0.32676 0.59294 0.0
C1535 C 0.25204 0.37565 0.67827 0.0
O1536 O 0.25567 0.38049 0.65337 0.0
C1537 C 0.17983 0.34916 0.54299 0.0
C1538 C 0.13696 0.3492 0.53871 0.0
C1539 C 0.15993 0.35352 0.5251 0.0
N1540 N 0.16912 0.34336 0.56627 0.0
N1541 N 0.14347 0.3432 0.5635 0.0
C1542 C 0.20863 0.34933 0.53802 0.0
H1543 H 0.21691 0.33018 0.54366 0.0
H1544 H 0.218 0.36447 0.55035 0.0
H1545 H 0.21335 0.35277 0.5172 0.0
C1546 C 0.19124 0.40006 0.64899 0.0
N1547 N 0.19481 0.37582 0.63976 0.0
N1548 N 0.18672 0.37444 0.61549 0.0
C1549 C 0.17876 0.39857 0.60813 0.0
C1550 C 0.18171 0.41558 0.62913 0.0
C1551 C 0.19492 0.40774 0.67697 0.0
H1552 H 0.19138 0.39076 0.68991 0.0
H1553 H 0.21515 0.41468 0.68009 0.0
H1554 H 0.18143 0.42381 0.68234 0.0
O1555 O 0.18876 0.31837 0.66172 0.0
O1556 O 0.1712 0.31237 0.6223 0.0
H1557 H 0.15103 0.39564 0.5772 0.0
H1558 H 0.16722 0.42689 0.57901 0.0
C1559 C 0.16984 0.40552 0.58125 0.0
H1560 H 0.18437 0.3986 0.56681 0.0
H1561 H 0.13038 0.33975 0.57871 0.0
O1562 O 0.23283 0.36136 0.68514 0.0
C1563 C 0.17432 0.3053 0.64613 0.0
Co1564 Co 0.65835 0.20318 0.66045 0.0
Co1565 Co 0.66143 0.19148 0.60014 0.0
C1566 C 0.68376 0.23856 0.61869 0.0
O1567 O 0.67763 0.2294 0.64081 0.0
O1568 O 0.67563 0.22785 0.59776 0.0
C1569 C 0.63298 0.24275 0.68501 0.0
O1570 O 0.62931 0.24707 0.66002 0.0
C1571 C 0.65269 0.18555 0.54332 0.0
C1572 C 0.65174 0.14261 0.53955 0.0
C1573 C 0.64818 0.16546 0.52563 0.0
N1574 N 0.65792 0.17498 0.56676 0.0
N1575 N 0.65749 0.14931 0.56429 0.0
C1576 C 0.65322 0.21426 0.53801 0.0
H1577 H 0.67058 0.22307 0.54742 0.0
H1578 H 0.63566 0.22349 0.54667 0.0
H1579 H 0.65384 0.21841 0.51678 0.0
C1580 C 0.60459 0.18685 0.65261 0.0
N1581 N 0.62863 0.19131 0.64317 0.0
N1582 N 0.62858 0.18859 0.61772 0.0
C1583 C 0.60399 0.18263 0.61006 0.0
C1584 C 0.58802 0.18147 0.63203 0.0
C1585 C 0.59773 0.18696 0.68101 0.0
H1586 H 0.61518 0.18254 0.69301 0.0
H1587 H 0.5902 0.20649 0.68649 0.0
H1588 H 0.5822 0.17243 0.68513 0.0
O1589 O 0.68551 0.17589 0.66338 0.0
O1590 O 0.69023 0.1735 0.62006 0.0
H1591 H 0.60303 0.16027 0.57495 0.0
H1592 H 0.57417 0.17973 0.58035 0.0
C1593 C 0.59573 0.17927 0.58229 0.0
H1594 H 0.60439 0.19493 0.57019 0.0
H1595 H 0.6605 0.13635 0.57968 0.0
O1596 O 0.6464 0.2229 0.69186 0.0
C1597 C 0.69814 0.16835 0.64318 0.0
Co1598 Co 0.34943 0.79028 0.65595 0.0
Co1599 Co 0.34141 0.81682 0.60101 0.0
C1600 C 0.3272 0.76132 0.61056 0.0
O1601 O 0.33587 0.76293 0.63359 0.0
O1602 O 0.32805 0.78066 0.5951 0.0
C1603 C 0.37542 0.74997 0.68078 0.0
O1604 O 0.38022 0.74501 0.6561 0.0
C1605 C 0.35412 0.82132 0.54627 0.0
C1606 C 0.33679 0.85889 0.53437 0.0
C1607 C 0.35043 0.83751 0.52481 0.0
N1608 N 0.34294 0.83242 0.56721 0.0
N1609 N 0.33266 0.85494 0.56006 0.0
C1610 C 0.36931 0.7964 0.54774 0.0
H1611 H 0.37886 0.79461 0.56708 0.0
H1612 H 0.38422 0.79539 0.53206 0.0
H1613 H 0.35575 0.77964 0.54591 0.0
C1614 C 0.40143 0.81371 0.65046 0.0
N1615 N 0.37747 0.80859 0.64098 0.0
N1616 N 0.37494 0.81927 0.61779 0.0
C1617 C 0.39761 0.83148 0.61175 0.0
C1618 C 0.41505 0.82827 0.63227 0.0
C1619 C 0.41131 0.80423 0.67629 0.0
H1620 H 0.39585 0.80625 0.69129 0.0
H1621 H 0.4167 0.78338 0.67454 0.0
H1622 H 0.4289 0.81494 0.6828 0.0
O1623 O 0.31832 0.81324 0.66175 0.0
O1624 O 0.31337 0.83269 0.62303 0.0
H1625 H 0.38463 0.85924 0.58329 0.0
H1626 H 0.41928 0.86039 0.59006 0.0
C1627 C 0.40214 0.84735 0.5877 0.0
H1628 H 0.40587 0.83415 0.57098 0.0
H1629 H 0.32268 0.86747 0.57261 0.0
O1630 O 0.36196 0.77008 0.68672 0.0
C1631 C 0.30572 0.82846 0.64642 0.0
C1632 C 0.14839 0.30895 0.01828 0.0
C1633 C 0.14457 0.33349 0.0066 0.0
C1634 C 0.14289 0.30481 0.04469 0.0
C1635 C 0.13388 0.32513 0.06073 0.0
H1636 H 0.15663 0.29294 0.00733 0.0
H1637 H 0.14641 0.28562 0.0528 0.0
S1638 S 0.12083 0.39313 0.04016 0.0
N1639 N 0.13074 0.37841 0.01324 0.0
N1640 N 0.12142 0.37072 0.06329 0.0
C1641 C 0.12974 0.34972 0.04945 0.0
C1642 C 0.13505 0.35391 0.02236 0.0
C1643 C 0.65828 0.1314 0.04829 0.0
C1644 C 0.6825 0.13532 0.06048 0.0
C1645 C 0.65489 0.13696 0.02164 0.0
C1646 C 0.67551 0.14687 0.00631 0.0
H1647 H 0.64168 0.12477 0.05956 0.0
H1648 H 0.63583 0.13382 0.01305 0.0
S1649 S 0.74261 0.16127 0.02967 0.0
N1650 N 0.72768 0.14856 0.05519 0.0
N1651 N 0.72056 0.16191 0.00625 0.0
C1652 C 0.69975 0.15102 0.0185 0.0
C1653 C 0.70341 0.14449 0.04529 0.0
C1654 C 0.88675 0.6773 0.0409 0.0
C1655 C 0.87004 0.66793 0.06044 0.0
C1656 C 0.88134 0.67267 0.01445 0.0
C1657 C 0.8589 0.65878 0.00671 0.0
H1658 H 0.90346 0.68918 0.04604 0.0
H1659 H 0.89468 0.68038 1.00004 0.0
S1660 S 0.81107 0.62726 0.05103 0.0
N1661 N 0.83202 0.64173 0.07078 0.0
N1662 N 0.8214 0.63347 0.02115 0.0
C1663 C 0.84309 0.64782 0.0263 0.0
C1664 C 0.84874 0.65237 0.05317 0.0
C1665 C 0.32668 0.8795 0.01266 0.0
C1666 C 0.3424 0.85856 0.00432 0.0
C1667 C 0.32312 0.8848 0.03932 0.0
C1668 C 0.3354 0.86951 0.05841 0.0
H1669 H 0.31654 0.89146 0.99851 0.0
H1670 H 0.30976 0.90016 0.04503 0.0
S1671 S 0.38113 0.8148 0.04687 0.0
N1672 N 0.37227 0.82414 0.01733 0.0
N1673 N 0.36576 0.83435 0.06738 0.0
C1674 C 0.35256 0.84977 0.05034 0.0
C1675 C 0.35611 0.84429 0.02327 0.0
C1676 C 0.13409 0.6513 0.98048 0.0
C1677 C 0.14541 0.67134 0.99557 0.0
C1678 C 0.12826 0.65503 0.95393 0.0
C1679 C 0.13355 0.67893 0.94165 0.0
H1680 H 0.13008 0.63247 0.98917 0.0
H1681 H 0.12049 0.63887 0.94274 0.0
S1682 S 0.163 0.73757 0.97206 0.0
N1683 N 0.16264 0.71557 0.99554 0.0
N1684 N 0.14931 0.72331 0.94667 0.0
C1685 C 0.14398 0.69934 0.95668 0.0
C1686 C 0.15057 0.69536 0.98338 0.0
C1687 C 0.3213 0.11981 0.96242 0.0
C1688 C 0.33688 0.13303 0.94417 0.0
C1689 C 0.32377 0.12481 0.98927 0.0
C1690 C 0.34167 0.14344 0.9987 0.0
H1691 H 0.30639 0.10636 0.95582 0.0
H1692 H 0.31124 0.11434 0.00268 0.0
S1693 S 0.38887 0.18104 0.95873 0.0
N1694 N 0.37233 0.16359 0.93726 0.0
N1695 N 0.37681 0.17332 0.98761 0.0
C1696 C 0.3584 0.15555 0.98064 0.0
C1697 C 0.35597 0.15035 0.95338 0.0
C1698 C 0.87124 0.34518 0.9853 0.0
C1699 C 0.85827 0.32587 0.99995 0.0
C1700 C 0.87659 0.34159 0.95863 0.0
C1701 C 0.86889 0.31869 0.94573 0.0
H1702 H 0.87699 0.36334 0.99447 0.0
H1703 H 0.88589 0.3572 0.94784 0.0
S1704 S 0.83441 0.26225 0.97495 0.0
N1705 N 0.83751 0.28322 0.9992 0.0
N1706 N 0.84858 0.27608 0.94956 0.0
C1707 C 0.85652 0.29902 0.96024 0.0
C1708 C 0.85092 0.30271 0.98725 0.0
C1709 C 0.68356 0.87853 0.98481 0.0
C1710 C 0.66535 0.85997 0.9937 0.0
C1711 C 0.68706 0.8832 0.95806 0.0
C1712 C 0.6723 0.86962 0.93941 0.0
H1713 H 0.69548 0.88922 0.9986 0.0
H1714 H 0.70207 0.89674 0.95188 0.0
S1715 S 0.62012 0.82141 0.95243 0.0
N1716 N 0.63092 0.82963 0.98167 0.0
N1717 N 0.63741 0.83868 0.93142 0.0
C1718 C 0.653 0.85225 0.94801 0.0
C1719 C 0.64947 0.84743 0.97519 0.0
C1720 C 0.04013 0.12046 0.3181 0.0
C1721 C 0.05812 0.13233 0.33499 0.0
C1722 C 0.01321 0.12457 0.32111 0.0
C1723 C 0.00346 0.14104 0.34086 0.0
H1724 H 0.04697 0.10866 0.30194 0.0
H1725 H 1.0 0.11501 0.30768 0.0
S1726 S 0.04276 0.1743 0.39174 0.0
N1727 N 0.06452 0.15908 0.37349 0.0
N1728 N 0.01402 0.1674 0.37887 0.0
C1729 C 0.0213 0.15182 0.3587 0.0
C1730 C 0.04864 0.14742 0.35575 0.0
C1731 C 0.87344 0.00959 0.31887 0.0
C1732 C 0.85784 0.99988 0.33935 0.0
C1733 C 0.87812 0.03645 0.31608 0.0
C1734 C 0.86776 0.05445 0.33395 0.0
H1735 H 0.88198 0.9964 0.30476 0.0
H1736 H 0.88923 0.04325 0.29944 0.0
S1737 S 0.82868 0.03912 0.39276 0.0
N1738 N 0.83396 0.01048 0.37896 0.0
N1739 N 0.84346 0.06079 0.37406 0.0
C1740 C 0.85356 0.04496 0.35533 0.0
C1741 C 0.84854 0.01771 0.35803 0.0
C1742 C 0.98912 0.85286 0.30888 0.0
C1743 C 1.00127 0.85911 0.33268 0.0
C1744 C 0.96247 0.85743 0.30494 0.0
C1745 C 0.94677 0.8682 0.32469 0.0
H1746 H 0.99994 0.84336 0.29345 0.0
H1747 H 0.95388 0.85175 0.28648 0.0
S1748 S 0.96888 0.88859 0.39038 0.0
N1749 N 0.99555 0.87744 0.37609 0.0
N1750 N 0.9452 0.88546 0.36874 0.0
C1751 C 0.95863 0.87511 0.34837 0.0
C1752 C 0.98588 0.87053 0.3524 0.0
C1753 C 0.15422 0.95488 0.35094 0.0
C1754 C 0.13536 0.94562 0.3333 0.0
C1755 C 0.1586 0.98169 0.35416 0.0
C1756 C 0.14421 1.00015 0.33988 0.0
H1757 H 0.16634 0.94125 0.3616 0.0
H1758 H 0.17402 0.98798 0.36718 0.0
S1759 S 0.08917 0.9859 0.29507 0.0
N1760 N 0.10018 0.95687 0.30369 0.0
N1761 N 0.10747 0.00734 0.31071 0.0
C1762 C 0.12383 0.99115 0.32383 0.0
C1763 C 0.11959 0.96383 0.32034 0.0
C1764 C 0.0162 0.87855 0.68177 0.0
C1765 C 0.00763 0.85946 0.6639 0.0
C1766 C 0.04285 0.88416 0.68484 0.0
C1767 C 0.06173 0.87124 0.66979 0.0
H1768 H 0.0023 0.88895 0.69379 0.0
H1769 H 0.04879 0.89788 0.69978 0.0
S1770 S 0.04956 0.82266 0.61773 0.0
N1771 N 0.02025 0.82961 0.62922 0.0
N1772 N 0.07019 0.84082 0.63456 0.0
C1773 C 0.05338 0.85366 0.65056 0.0
C1774 C 0.02635 0.84769 0.64763 0.0
C1775 C 0.15595 0.05167 0.65432 0.0
C1776 C 0.13587 0.0603 0.67091 0.0
C1777 C 0.16076 0.02498 0.65067 0.0
C1778 C 0.14561 0.00607 0.6635 0.0
H1779 H 0.16862 0.06569 0.64484 0.0
H1780 H 0.17706 0.01913 0.63854 0.0
S1781 S 0.08801 0.01865 0.7055 0.0
N1782 N 0.09923 0.04798 0.69828 0.0
N1783 N 0.10733 0.99779 0.69032 0.0
C1784 C 0.12424 0.01447 0.67855 0.0
C1785 C 0.11958 0.04163 0.68252 0.0
C1786 C 0.98187 0.15523 0.64465 0.0
C1787 C 1.00012 0.14312 0.66114 0.0
C1788 C 0.95504 0.15066 0.64754 0.0
C1789 C 0.94552 0.134 0.66715 0.0
H1790 H 0.98831 0.16897 0.62994 0.0
H1791 H 0.94158 0.16076 0.63477 0.0
S1792 S 0.98537 0.09409 0.71232 0.0
N1793 N 0.00698 0.11041 0.69484 0.0
N1794 N 0.95646 0.10353 0.7017 0.0
C1795 C 0.9636 0.12061 0.68274 0.0
C1796 C 0.99094 0.12476 0.67939 0.0
C1797 C 0.85196 0.97967 0.64721 0.0
C1798 C 0.86406 0.99822 0.66338 0.0
C1799 C 0.85677 0.95297 0.6504 0.0
C1800 C 0.87367 0.94391 0.66998 0.0
H1801 H 0.83798 0.98576 0.63258 0.0
H1802 H 0.84647 0.93923 0.63807 0.0
S1803 S 0.91394 0.98463 0.71404 0.0
N1804 N 0.89711 0.00586 0.69661 0.0
N1805 N 0.90468 0.9555 0.70385 0.0
C1806 C 0.88722 0.96226 0.6851 0.0
C1807 C 0.88272 0.98949 0.68152 0.0
C1808 C 0.34971 0.04731 0.12955 0.0
C1809 C 0.32589 0.05958 0.13531 0.0
C1810 C 0.35335 0.02059 0.13467 0.0
C1811 C 0.33325 0.0053 0.14559 0.0
H1812 H 0.36585 0.0586 0.12187 0.0
H1813 H 0.37211 0.01188 0.13034 0.0
S1814 S 0.26722 0.02865 0.1642 0.0
N1815 N 0.28161 0.05441 0.15135 0.0
N1816 N 0.28904 0.00502 0.16289 0.0
C1817 C 0.30932 0.01748 0.15123 0.0
C1818 C 0.30549 0.04441 0.14554 0.0
C1819 C 0.31064 0.9862 0.85562 0.0
C1820 C 0.33519 0.9979 0.85941 0.0
C1821 C 0.30655 0.95975 0.86099 0.0
C1822 C 0.3269 0.94372 0.86995 0.0
H1823 H 0.29461 0.99716 0.84743 0.0
H1824 H 0.2874 0.95157 0.85735 0.0
S1825 S 0.39484 0.96443 0.88324 0.0
N1826 N 0.3801 0.99133 0.87334 0.0
N1827 N 0.37245 0.94125 0.88256 0.0
C1828 C 0.35145 0.95506 0.87421 0.0
C1829 C 0.35562 0.98216 0.86896 0.0
C1830 C 0.0505 0.34715 0.85277 0.0
C1831 C 0.05994 0.3297 0.87166 0.0
C1832 C 0.02364 0.34994 0.84837 0.0
C1833 C 0.00541 0.33514 0.86254 0.0
H1834 H 0.06403 0.35807 0.84074 0.0
H1835 H 0.01714 0.36306 0.83314 0.0
S1836 S 0.02022 0.28937 0.91653 0.0
N1837 N 0.04914 0.29915 0.90616 0.0
N1838 N 0.99854 0.30472 0.89828 0.0
C1839 C 0.01459 0.31874 0.88251 0.0
C1840 C 0.04192 0.31597 0.887 0.0
C1841 C 0.69535 0.01695 0.85654 0.0
C1842 C 0.67081 0.00468 0.85773 0.0
C1843 C 0.69834 0.04336 0.86277 0.0
C1844 C 0.67689 0.05884 0.86996 0.0
H1845 H 0.71231 0.0066 0.84953 0.0
H1846 H 0.71752 0.05206 0.86085 0.0
S1847 S 0.60836 0.03675 0.87587 0.0
N1848 N 0.62458 0.01025 0.8673 0.0
N1849 N 0.63024 0.06034 0.87774 0.0
C1850 C 0.65228 0.047 0.87155 0.0
C1851 C 0.64922 0.01989 0.86558 0.0
C1852 C 0.98822 0.67671 0.87826 0.0
C1853 C 0.99722 0.6595 0.8588 0.0
C1854 C 0.96147 0.67922 0.8837 0.0
C1855 C 0.9429 0.66437 0.87009 0.0
H1856 H 0.0019 0.68871 0.889 0.0
H1857 H 0.95519 0.69365 0.89782 0.0
S1858 S 0.95635 0.6142 0.81989 0.0
N1859 N 0.98545 0.62568 0.8277 0.0
N1860 N 0.93525 0.63022 0.83826 0.0
C1861 C 0.9517 0.6459 0.85192 0.0
C1862 C 0.97887 0.64342 0.84627 0.0
C1863 C 0.69467 0.95774 0.14516 0.0
C1864 C 0.67525 0.94311 0.1325 0.0
C1865 C 0.69123 0.98428 0.15042 0.0
C1866 C 0.66843 0.99746 0.14274 0.0
H1867 H 0.71252 0.94846 0.15159 0.0
H1868 H 0.70626 0.99419 0.1614 0.0
S1869 S 0.6119 0.96801 0.10833 0.0
N1870 N 0.63246 0.94351 0.11226 0.0
N1871 N 0.62623 0.99383 0.12127 0.0
C1872 C 0.64902 0.98313 0.12956 0.0
C1873 C 0.65246 0.95592 0.12444 0.0
C1874 C 0.04496 0.69112 0.13918 0.0
C1875 C 0.06074 0.66965 0.13284 0.0
C1876 C 0.01842 0.68806 0.14467 0.0
C1877 C 0.00632 0.66345 0.14344 0.0
H1878 H 0.05344 0.71041 0.14086 0.0
H1879 H 0.00778 0.70508 0.15106 0.0
S1880 S 0.03927 0.60091 0.12753 0.0
N1881 N 0.0628 0.62289 0.12597 0.0
N1882 N 0.01241 0.6171 0.135 0.0
C1883 C 0.02187 0.64181 0.13657 0.0
C1884 C 0.04914 0.64493 0.13139 0.0
C1885 C 0.98963 0.3275 0.12695 0.0
C1886 C 0.99914 0.34615 0.14477 0.0
C1887 C 0.96276 0.32462 0.12246 0.0
C1888 C 0.9446 0.34059 0.1353 0.0
H1889 H 0.00299 0.31459 0.11689 0.0
H1890 H 0.95611 0.30905 0.1098 0.0
S1891 S 0.95948 0.3952 0.18021 0.0
N1892 N 0.98832 0.38276 0.17292 0.0
N1893 N 0.93788 0.37774 0.16386 0.0
C1894 C 0.9539 0.36066 0.15143 0.0
C1895 C 0.9812 0.36344 0.15622 0.0
C1896 C 0.61675 0.81862 0.53999 0.0
C1897 C 0.63052 0.83297 0.55884 0.0
C1898 C 0.62178 0.82208 0.51327 0.0
C1899 C 0.64097 0.83975 0.50458 0.0
H1900 H 0.60281 0.80391 0.54599 0.0
H1901 H 0.61093 0.81046 0.49935 0.0
S1902 S 0.68015 0.88396 0.54634 0.0
N1903 N 0.66221 0.86712 0.56715 0.0
N1904 N 0.672 0.87339 0.517 0.0
C1905 C 0.65366 0.8553 0.52326 0.0
C1906 C 0.64842 0.85187 0.5504 0.0
C1907 C 0.17046 0.62385 0.51317 0.0
C1908 C 0.15621 0.64587 0.50489 0.0
C1909 C 0.17465 0.61883 0.53977 0.0
C1910 C 0.16438 0.63541 0.55896 0.0
H1911 H 0.17885 0.61057 0.49911 0.0
H1912 H 0.18693 0.60255 0.5453 0.0
S1913 S 0.12181 0.69273 0.54815 0.0
N1914 N 0.12921 0.68251 0.51849 0.0
N1915 N 0.13647 0.67242 0.56839 0.0
C1916 C 0.14821 0.65604 0.55115 0.0
C1917 C 0.14419 0.66138 0.52412 0.0
C1918 C 0.3463 0.14813 0.52429 0.0
C1919 C 0.36095 0.16193 0.50567 0.0
C1920 C 0.35101 0.15132 0.55108 0.0
C1921 C 0.37057 0.16833 0.56008 0.0
H1922 H 0.33036 0.13566 0.51817 0.0
H1923 H 0.33858 0.14124 0.56488 0.0
S1924 S 0.41729 0.20529 0.51919 0.0
N1925 N 0.39829 0.19019 0.49798 0.0
N1926 N 0.40649 0.19688 0.54837 0.0
C1927 C 0.38655 0.18075 0.54166 0.0
C1928 C 0.38187 0.1774 0.51441 0.0
C1929 C 0.84663 0.37842 0.54593 0.0
C1930 C 0.82455 0.36981 0.55966 0.0
C1931 C 0.84944 0.37318 0.51915 0.0
C1932 C 0.83019 0.35928 0.50525 0.0
H1933 H 0.8622 0.38845 0.55612 0.0
H1934 H 0.86696 0.37974 0.50931 0.0
S1935 S 0.76856 0.33283 0.53267 0.0
N1936 N 0.78255 0.348 0.55737 0.0
N1937 N 0.78867 0.33641 0.50777 0.0
C1938 C 0.8079 0.35088 0.51886 0.0
C1939 C 0.80486 0.35664 0.54589 0.0
C1940 C 0.65481 0.1518 0.47942 0.0
C1941 C 0.64113 0.16703 0.49768 0.0
C1942 C 0.64982 0.15406 0.45263 0.0
C1943 C 0.63082 0.17144 0.44326 0.0
H1944 H 0.67018 0.13877 0.48581 0.0
H1945 H 0.66161 0.14294 0.43905 0.0
S1946 S 0.58677 0.2125 0.48316 0.0
N1947 N 0.60546 0.19752 0.50472 0.0
N1948 N 0.59656 0.2022 0.45421 0.0
C1949 C 0.61586 0.1855 0.46134 0.0
C1950 C 0.62093 0.18322 0.48863 0.0
C1951 C 0.8462 0.62885 0.45211 0.0
C1952 C 0.82167 0.63156 0.44025 0.0
C1953 C 0.84968 0.63478 0.47867 0.0
C1954 C 0.8288 0.64384 0.49414 0.0
H1955 H 0.863 0.62321 0.44058 0.0
H1956 H 0.86899 0.63281 0.48701 0.0
S1957 S 0.76085 0.65502 0.47155 0.0
N1958 N 0.77603 0.64287 0.44591 0.0
N1959 N 0.78306 0.65662 0.49477 0.0
C1960 C 0.80418 0.64656 0.48233 0.0
C1961 C 0.80051 0.63972 0.45565 0.0
C1962 C 0.36684 0.8542 0.4818 0.0
C1963 C 0.35768 0.83321 0.49704 0.0
C1964 C 0.37201 0.85119 0.455 0.0
C1965 C 0.36825 0.82705 0.44262 0.0
H1966 H 0.36956 0.87324 0.49057 0.0
H1967 H 0.37799 0.86803 0.44374 0.0
S1968 S 0.34426 0.76609 0.47321 0.0
N1969 N 0.34393 0.78777 0.49701 0.0
N1970 N 0.3559 0.78161 0.44754 0.0
C1971 C 0.35992 0.80577 0.45774 0.0
C1972 C 0.35402 0.80896 0.48473 0.0
C1973 C 0.14859 0.34723 0.4781 0.0
C1974 C 0.16208 0.36137 0.49734 0.0
C1975 C 0.15232 0.35256 0.4515 0.0
C1976 C 0.16961 0.37222 0.44326 0.0
H1977 H 0.13592 0.33123 0.4836 0.0
H1978 H 0.14244 0.3405 0.43722 0.0
S1979 S 0.20593 0.41781 0.48596 0.0
N1980 N 0.19031 0.39842 0.50642 0.0
N1981 N 0.1981 0.40769 0.45638 0.0
C1982 C 0.18175 0.38769 0.4623 0.0
C1983 C 0.17781 0.38241 0.48938 0.0
C1984 C 0.51981 0.63558 0.85213 0.0
C1985 C 0.50408 0.64451 0.83142 0.0
C1986 C 0.54652 0.63036 0.84853 0.0
C1987 C 0.55834 0.63379 0.82404 0.0
H1988 H 0.51149 0.63304 0.8714 0.0
H1989 H 0.55816 0.62458 0.86518 0.0
S1990 S 0.52639 0.65754 0.7637 0.0
N1991 N 0.50309 0.658 0.78592 0.0
N1992 N 0.55241 0.64597 0.77868 0.0
C1993 C 0.54276 0.64208 0.80309 0.0
C1994 C 0.51585 0.64803 0.80687 0.0
C1995 C 0.34574 0.55048 0.85084 0.0
C1996 C 0.36664 0.55943 0.83547 0.0
C1997 C 0.34108 0.52371 0.85412 0.0
C1998 C 0.35721 0.50503 0.84216 0.0
H1999 H 0.33229 0.56429 0.8595 0.0
H2000 H 0.3241 0.51761 0.86514 0.0
S2001 S 0.41735 0.5185 0.80421 0.0
N2002 N 0.40534 0.54767 0.8108 0.0
N2003 N 0.39728 0.49733 0.81792 0.0
C2004 C 0.37944 0.51376 0.82864 0.0
C2005 C 0.38403 0.541 0.8251 0.0
C2006 C 0.48672 0.37823 0.81994 0.0
C2007 C 0.49516 0.35935 0.83803 0.0
C2008 C 0.46007 0.38361 0.8165 0.0
C2009 C 0.44109 0.37053 0.83128 0.0
H2010 H 0.50076 0.38859 0.80803 0.0
H2011 H 0.45423 0.39731 0.80151 0.0
S2012 S 0.45295 0.32188 0.88329 0.0
N2013 N 0.48238 0.32929 0.8724 0.0
N2014 N 0.43237 0.33977 0.86614 0.0
C2015 C 0.44929 0.35291 0.85052 0.0
C2016 C 0.47634 0.34731 0.85394 0.0
C2017 C 0.62478 0.45612 0.84324 0.0
C2018 C 0.63033 0.44339 0.81962 0.0
C2019 C 0.63089 0.48266 0.84669 0.0
C2020 C 0.6428 0.49733 0.82668 0.0
H2021 H 0.61667 0.44526 0.85946 0.0
H2022 H 0.62671 0.49165 0.86536 0.0
S2023 S 0.66116 0.47256 0.76107 0.0
N2024 N 0.64692 0.44756 0.77546 0.0
N2025 N 0.6607 0.4964 0.7827 0.0
C2026 C 0.64813 0.48472 0.80289 0.0
C2027 C 0.64125 0.45802 0.79918 0.0
C2028 C 0.54165 0.38495 0.17781 0.0
C2029 C 0.56066 0.36916 0.16604 0.0
C2030 C 0.51495 0.37971 0.17442 0.0
C2031 C 0.50637 0.35823 0.1595 0.0
H2032 H 0.54747 0.40069 0.19066 0.0
H2033 H 0.50106 0.39239 0.18395 0.0
S2034 S 0.5489 0.31337 0.12169 0.0
N2035 N 0.56944 0.33336 0.13641 0.0
N2036 N 0.51941 0.32293 0.13052 0.0
C2037 C 0.52535 0.34353 0.14611 0.0
C2038 C 0.55246 0.34909 0.14934 0.0
C2039 C 0.63408 0.51827 0.14875 0.0
C2040 C 0.64654 0.50385 0.16856 0.0
C2041 C 0.62828 0.54489 0.15204 0.0
C2042 C 0.63493 0.55794 0.17519 0.0
H2043 H 0.62909 0.50897 0.13043 0.0
H2044 H 0.61943 0.55553 0.13608 0.0
S2045 S 0.66776 0.52941 0.23293 0.0
N2046 N 0.6659 0.50512 0.21187 0.0
N2047 N 0.65357 0.55447 0.21858 0.0
C2048 C 0.64671 0.54364 0.19536 0.0
C2049 C 0.65292 0.51676 0.19192 0.0
C2050 C 0.45135 0.64812 0.15491 0.0
C2051 C 0.44291 0.62921 0.17288 0.0
C2052 C 0.478 0.65283 0.15088 0.0
C2053 C 0.49702 0.63888 0.16483 0.0
H2054 H 0.43722 0.65995 0.14458 0.0
H2055 H 0.48374 0.66816 0.1375 0.0
S2056 S 0.48491 0.58474 0.21123 0.0
N2057 N 0.45547 0.59488 0.20292 0.0
N2058 N 0.50565 0.60313 0.19478 0.0
C2059 C 0.48882 0.61877 0.18159 0.0
C2060 C 0.46169 0.61407 0.18574 0.0
C2061 C 0.38036 0.48776 0.17631 0.0
C2062 C 0.35939 0.49579 0.16046 0.0
C2063 C 0.3859 0.46121 0.18004 0.0
C2064 C 0.37094 0.44192 0.16764 0.0
H2065 H 0.39212 0.50206 0.18649 0.0
H2066 H 0.40113 0.45573 0.19362 0.0
S2067 S 0.31714 0.4526 0.12065 0.0
N2068 N 0.32576 0.48226 0.12986 0.0
N2069 N 0.33672 0.43241 0.13636 0.0
C2070 C 0.35152 0.44968 0.15 0.0
C2071 C 0.34567 0.47664 0.14643 0.0
C2072 C 0.85471 0.5255 0.65532 0.0
C2073 C 0.83943 0.50727 0.64166 0.0
C2074 C 0.85199 0.55234 0.65078 0.0
C2075 C 0.83405 0.56176 0.63233 0.0
H2076 H 0.86819 0.51903 0.67025 0.0
H2077 H 0.86341 0.56587 0.66233 0.0
S2078 S 0.79244 0.52194 0.58868 0.0
N2079 N 0.80818 0.50034 0.60665 0.0
N2080 N 0.80256 0.55086 0.59868 0.0
C2081 C 0.81984 0.54371 0.61745 0.0
C2082 C 0.82263 0.5164 0.62202 0.0
C2083 C 0.84898 0.45525 0.36886 0.0
C2084 C 0.8258 0.44184 0.3631 0.0
C2085 C 0.85152 0.48199 0.36324 0.0
C2086 C 0.83103 0.49613 0.35156 0.0
H2087 H 0.86547 0.44489 0.37704 0.0
H2088 H 0.86978 0.4916 0.36783 0.0
S2089 S 0.76665 0.46931 0.33184 0.0
N2090 N 0.78176 0.44462 0.34588 0.0
N2091 N 0.78741 0.49389 0.33295 0.0
C2092 C 0.80785 0.48272 0.34556 0.0
C2093 C 0.80503 0.45582 0.35196 0.0
C2094 C 0.54301 0.80542 0.35629 0.0
C2095 C 0.55842 0.82569 0.36648 0.0
C2096 C 0.51643 0.809 0.35104 0.0
C2097 C 0.50397 0.8329 0.35623 0.0
H2098 H 0.55171 0.7867 0.35176 0.0
H2099 H 0.50594 0.79311 0.34198 0.0
S2100 S 0.53561 0.89209 0.38352 0.0
N2101 N 0.55947 0.87051 0.38164 0.0
N2102 N 0.50919 0.87712 0.37269 0.0
C2103 C 0.5191 0.85323 0.36692 0.0
C2104 C 0.54633 0.84961 0.37202 0.0
C2105 C 0.14914 0.52584 0.34309 0.0
C2106 C 0.16044 0.50699 0.35949 0.0
C2107 C 0.1523 0.55257 0.34808 0.0
C2108 C 0.16686 0.56135 0.36961 0.0
H2109 H 0.13873 0.51991 0.32568 0.0
H2110 H 0.14425 0.5665 0.33438 0.0
S2111 S 0.19616 0.51999 0.42107 0.0
N2112 N 0.18318 0.49898 0.40034 0.0
N2113 N 0.19006 0.54926 0.40906 0.0
C2114 C 0.17658 0.54277 0.38718 0.0
C2115 C 0.17318 0.51555 0.38225 0.0
C2116 C 0.48525 0.19171 0.35397 0.0
C2117 C 0.49704 0.16732 0.35832 0.0
C2118 C 0.4589 0.19593 0.35964 0.0
C2119 C 0.44304 0.17582 0.36939 0.0
H2120 H 0.49608 0.20752 0.34518 0.0
H2121 H 0.45068 0.21498 0.35568 0.0
S2122 S 0.464 0.10833 0.38425 0.0
N2123 N 0.49075 0.12281 0.37354 0.0
N2124 N 0.44076 0.13064 0.38329 0.0
C2125 C 0.45444 0.15141 0.37414 0.0
C2126 C 0.48148 0.14714 0.36862 0.0
C2127 C 0.15034 0.48262 0.63199 0.0
C2128 C 0.17073 0.49825 0.64184 0.0
C2129 C 0.15425 0.45605 0.62632 0.0
C2130 C 0.17867 0.4443 0.63034 0.0
H2131 H 0.13111 0.49088 0.6291 0.0
H2132 H 0.13785 0.44442 0.61979 0.0
S2133 S 0.23835 0.47624 0.65578 0.0
N2134 N 0.21596 0.49935 0.65625 0.0
N2135 N 0.22377 0.45033 0.64345 0.0
C2136 C 0.19937 0.45987 0.63928 0.0
C2137 C 0.19528 0.48661 0.64564 0.0
C2138 C 0.54433 0.19675 0.64664 0.0
C2139 C 0.55945 0.17773 0.63394 0.0
C2140 C 0.51784 0.19261 0.65184 0.0
C2141 C 0.50541 0.16927 0.64451 0.0
H2142 H 0.55324 0.21478 0.65316 0.0
H2143 H 0.50731 0.20746 0.66254 0.0
S2144 S 0.53635 0.11352 0.61026 0.0
N2145 N 0.56022 0.13489 0.61382 0.0
N2146 N 0.51019 0.12706 0.62338 0.0
C2147 C 0.52024 0.15024 0.6314 0.0
C2148 C 0.54728 0.15454 0.62602 0.0
C2149 C 0.48829 0.82797 0.62361 0.0
C2150 C 0.49685 0.84313 0.64489 0.0
C2151 C 0.46159 0.82456 0.61847 0.0
C2152 C 0.44264 0.83653 0.63422 0.0
H2153 H 0.50231 0.81815 0.61122 0.0
H2154 H 0.45573 0.81156 0.60286 0.0
S2155 S 0.45468 0.8815 0.68947 0.0
N2156 N 0.48412 0.87252 0.67989 0.0
N2157 N 0.434 0.86656 0.66976 0.0
C2158 C 0.4509 0.8534 0.65413 0.0
C2159 C 0.47802 0.85668 0.65953 0.0
C2160 C 0.17944 0.33067 0.26595 0.0
C2161 C 0.16624 0.35077 0.27926 0.0
C2162 C 0.17369 0.32452 0.23993 0.0
C2163 C 0.15416 0.33788 0.22595 0.0
H2164 H 0.19489 0.31986 0.27548 0.0
H2165 H 0.18437 0.30866 0.23092 0.0
S2166 S 0.11334 0.39192 0.25173 0.0
N2167 N 0.13257 0.3841 0.27636 0.0
N2168 N 0.12133 0.3721 0.22761 0.0
C2169 C 0.14056 0.3579 0.23903 0.0
C2170 C 0.14669 0.36443 0.26555 0.0
C2171 C 0.63862 0.15032 0.2626 0.0
C2172 C 0.65617 0.16253 0.28002 0.0
C2173 C 0.64585 0.14434 0.23677 0.0
C2174 C 0.67072 0.15081 0.22714 0.0
H2175 H 0.61888 0.14589 0.26871 0.0
H2176 H 0.63171 0.13505 0.2241 0.0
S2177 S 0.72518 0.17969 0.26534 0.0
N2178 N 0.70061 0.17835 0.28609 0.0
N2179 N 0.71379 0.16773 0.23773 0.0
C2180 C 0.68875 0.16211 0.24455 0.0
C2181 C 0.68161 0.16775 0.27089 0.0
C2182 C 0.83007 0.68024 0.23595 0.0
C2183 C 0.84897 0.66593 0.22207 0.0
C2184 C 0.82399 0.6744 0.26195 0.0
C2185 C 0.83627 0.65375 0.27529 0.0
H2186 H 0.82025 0.69662 0.22692 0.0
H2187 H 0.80907 0.68597 0.27146 0.0
S2188 S 0.88676 0.60968 0.24772 0.0
N2189 N 0.87982 0.62988 0.22363 0.0
N2190 N 0.86804 0.61862 0.27238 0.0
C2191 C 0.85501 0.63902 0.26159 0.0
C2192 C 0.86142 0.64515 0.23509 0.0
C2193 C 0.36027 0.85414 0.26202 0.0
C2194 C 0.34719 0.83385 0.27512 0.0
C2195 C 0.3544 0.86038 0.2359 0.0
C2196 C 0.33563 0.8462 0.22154 0.0
H2197 H 0.37496 0.8655 0.27211 0.0
H2198 H 0.36449 0.87668 0.227 0.0
S2199 S 0.29741 0.78964 0.24624 0.0
N2200 N 0.31553 0.79866 0.27123 0.0
N2201 N 0.30487 0.80996 0.22245 0.0
C2202 C 0.32305 0.82528 0.23425 0.0
C2203 C 0.32868 0.81927 0.2609 0.0
C2204 C 0.17144 0.68024 0.76132 0.0
C2205 C 0.15101 0.66754 0.77466 0.0
C2206 C 0.17728 0.67452 0.73523 0.0
C2207 C 0.16323 0.65554 0.72121 0.0
H2208 H 0.18294 0.69513 0.77095 0.0
H2209 H 0.19352 0.68464 0.72625 0.0
S2210 S 0.10744 0.61687 0.7467 0.0
N2211 N 0.11618 0.63548 0.77152 0.0
N2212 N 0.12753 0.62425 0.7226 0.0
C2213 C 0.14259 0.64274 0.73418 0.0
C2214 C 0.1364 0.64885 0.76079 0.0
C2215 C 0.36427 0.15017 0.73979 0.0
C2216 C 0.34796 0.16647 0.72469 0.0
C2217 C 0.35839 0.1442 0.76599 0.0
C2218 C 0.3363 0.15479 0.77842 0.0
H2219 H 0.38193 0.14212 0.73143 0.0
H2220 H 0.37139 0.13143 0.77666 0.0
S2221 S 0.2861 0.19695 0.74745 0.0
N2222 N 0.30774 0.19182 0.72418 0.0
N2223 N 0.29713 0.18103 0.77313 0.0
C2224 C 0.3196 0.17071 0.76348 0.0
C2225 C 0.32527 0.17639 0.73675 0.0
C2226 C 0.83316 0.3715 0.74753 0.0
C2227 C 0.84529 0.35799 0.72682 0.0
C2228 C 0.83806 0.36488 0.77373 0.0
C2229 C 0.856 0.34519 0.78008 0.0
H2230 H 0.81866 0.38633 0.74343 0.0
H2231 H 0.82745 0.37487 0.78904 0.0
S2232 S 0.89348 0.30459 0.73312 0.0
N2233 N 0.87596 0.32417 0.71449 0.0
N2234 N 0.88637 0.31265 0.7635 0.0
C2235 C 0.86902 0.3323 0.75953 0.0
C2236 C 0.86337 0.33845 0.73295 0.0
C2237 C 0.68023 0.82893 0.76184 0.0
C2238 C 0.66713 0.84855 0.77593 0.0
C2239 C 0.6739 0.82336 0.73582 0.0
C2240 C 0.6539 0.83686 0.72267 0.0
H2241 H 0.69602 0.81808 0.77074 0.0
H2242 H 0.68452 0.80785 0.72615 0.0
S2243 S 0.61325 0.88989 0.75069 0.0
N2244 N 0.63313 0.88164 0.77465 0.0
N2245 N 0.62082 0.87073 0.72591 0.0
C2246 C 0.64044 0.85642 0.73653 0.0
C2247 C 0.64715 0.86236 0.76304 0.0
C2248 C 0.23568 0.1777 0.32954 0.0
C2249 C 0.22285 0.15644 0.34131 0.0
C2250 C 0.26196 0.18317 0.33467 0.0
C2251 C 0.27666 0.16796 0.35218 0.0
H2252 H 0.22558 0.18993 0.31558 0.0
H2253 H 0.27066 0.1999 0.32512 0.0
S2254 S 0.25229 0.11058 0.38899 0.0
N2255 N 0.22692 0.12014 0.37157 0.0
N2256 N 0.27619 0.13103 0.38191 0.0
C2257 C 0.26403 0.14693 0.36455 0.0
C2258 C 0.23725 0.14101 0.35893 0.0
C2259 C 0.83298 0.25445 0.3725 0.0
C2260 C 0.83981 0.27431 0.35463 0.0
C2261 C 0.83814 0.22799 0.36714 0.0
C2262 C 0.85107 0.22065 0.34416 0.0
H2263 H 0.8225 0.25928 0.3902 0.0
H2264 H 0.83178 0.21325 0.38088 0.0
S2265 S 0.87424 0.26491 0.29176 0.0
N2266 N 0.86052 0.28457 0.31331 0.0
N2267 N 0.87138 0.23519 0.30386 0.0
C2268 C 0.85884 0.24034 0.32666 0.0
C2269 C 0.85293 0.26709 0.33173 0.0
C2270 C 0.73875 0.85571 0.35986 0.0
C2271 C 0.72745 0.83168 0.353 0.0
C2272 C 0.76535 0.86084 0.35483 0.0
C2273 C 0.78186 0.84186 0.34346 0.0
H2274 H 0.72683 0.87086 0.36852 0.0
H2275 H 0.77284 0.88007 0.35934 0.0
S2276 S 0.76216 0.77423 0.32576 0.0
N2277 N 0.73513 0.78788 0.33667 0.0
N2278 N 0.78483 0.79697 0.32796 0.0
C2279 C 0.7709 0.81716 0.33808 0.0
C2280 C 0.74382 0.81224 0.34262 0.0
C2281 C 0.14711 0.73885 0.35853 0.0
C2282 C 0.17077 0.72719 0.35082 0.0
C2283 C 0.14178 0.76527 0.3532 0.0
C2284 C 0.16011 0.78141 0.34043 0.0
H2285 H 0.13246 0.7274 0.36858 0.0
H2286 H 0.12293 0.77297 0.35885 0.0
S2287 S 0.22628 0.76095 0.31855 0.0
N2288 N 0.21339 0.7343 0.33116 0.0
N2289 N 0.20373 0.7837 0.32161 0.0
C2290 C 0.18426 0.77013 0.33348 0.0
C2291 C 0.18946 0.74315 0.33848 0.0
C2292 C 0.26549 0.82405 0.6738 0.0
C2293 C 0.27932 0.83775 0.65441 0.0
C2294 C 0.23945 0.83003 0.67976 0.0
C2295 C 0.22604 0.85026 0.66688 0.0
H2296 H 0.27461 0.80806 0.68417 0.0
H2297 H 0.22997 0.81894 0.69504 0.0
S2298 S 0.25331 0.89248 0.6147 0.0
N2299 N 0.27751 0.8726 0.62226 0.0
N2300 N 0.22875 0.8842 0.63385 0.0
C2301 C 0.23965 0.86433 0.64757 0.0
C2302 C 0.26616 0.858 0.64125 0.0
C2303 C 0.1484 0.23535 0.64336 0.0
C2304 C 0.15435 0.22565 0.66832 0.0
C2305 C 0.15382 0.26144 0.63659 0.0
C2306 C 0.16483 0.27905 0.65474 0.0
H2307 H 0.13988 0.22257 0.62883 0.0
H2308 H 0.14986 0.26764 0.6168 0.0
S2309 S 0.17995 0.26401 0.72415 0.0
N2310 N 0.16934 0.23616 0.71201 0.0
N2311 N 0.17888 0.28503 0.6998 0.0
C2312 C 0.16951 0.26974 0.68024 0.0
C2313 C 0.16448 0.24314 0.68688 0.0
C2314 C 0.75891 0.13386 0.66817 0.0
C2315 C 0.77922 0.14825 0.65634 0.0
C2316 C 0.73254 0.1399 0.66356 0.0
C2317 C 0.7256 0.15991 0.64623 0.0
H2318 H 0.76345 0.11867 0.68214 0.0
H2319 H 0.71754 0.12914 0.67386 0.0
S2320 S 0.77126 0.2029 0.60986 0.0
N2321 N 0.79052 0.18332 0.62672 0.0
N2322 N 0.74114 0.19382 0.61685 0.0
C2323 C 0.74574 0.17379 0.63359 0.0
C2324 C 0.7725 0.1682 0.63896 0.0
C2325 C 0.83274 0.74772 0.63143 0.0
C2326 C 0.8407 0.72671 0.64734 0.0
C2327 C 0.83891 0.77366 0.6379 0.0
C2328 C 0.85411 0.77931 0.65995 0.0
H2329 H 0.82071 0.74415 0.61443 0.0
H2330 H 0.83163 0.78934 0.62576 0.0
S2331 S 0.88071 0.73144 0.70728 0.0
N2332 N 0.8646 0.71342 0.68594 0.0
N2333 N 0.87761 0.76191 0.69727 0.0
C2334 C 0.86295 0.75844 0.67545 0.0
C2335 C 0.8559 0.73219 0.66938 0.0
C2336 C 0.3296 0.26611 0.17912 0.0
C2337 C 0.34899 0.27982 0.1653 0.0
C2338 C 0.32345 0.24016 0.17315 0.0
C2339 C 0.33605 0.22665 0.15277 0.0
H2340 H 0.31948 0.27521 0.19529 0.0
H2341 H 0.30828 0.23076 0.18449 0.0
S2342 S 0.38778 0.25371 0.10989 0.0
N2343 N 0.38067 0.2779 0.12998 0.0
N2344 N 0.36855 0.22925 0.1183 0.0
C2345 C 0.35517 0.2402 0.1384 0.0
C2346 C 0.36176 0.26666 0.14477 0.0
C2347 C 0.32382 0.76447 0.82819 0.0
C2348 C 0.33652 0.77766 0.84871 0.0
C2349 C 0.32915 0.73824 0.8225 0.0
C2350 C 0.34771 0.72393 0.83683 0.0
H2351 H 0.30911 0.77428 0.81662 0.0
H2352 H 0.31896 0.72932 0.80627 0.0
S2353 S 0.38669 0.74914 0.89249 0.0
N2354 N 0.36852 0.77419 0.88356 0.0
N2355 N 0.37896 0.72506 0.87252 0.0
C2356 C 0.36072 0.73685 0.85734 0.0
C2357 C 0.35503 0.76358 0.86335 0.0
C2358 C 0.26397 0.32869 0.82344 0.0
C2359 C 0.27744 0.34907 0.83604 0.0
C2360 C 0.23808 0.32253 0.82982 0.0
C2361 C 0.22441 0.33622 0.84937 0.0
H2362 H 0.27327 0.31764 0.808 0.0
H2363 H 0.22891 0.30647 0.81959 0.0
S2364 S 0.25075 0.39103 0.88879 0.0
N2365 N 0.27505 0.38293 0.86924 0.0
N2366 N 0.22655 0.37102 0.88157 0.0
C2367 C 0.23767 0.3565 0.86237 0.0
C2368 C 0.26405 0.36299 0.85565 0.0
C2369 C 0.66928 0.2636 0.82408 0.0
C2370 C 0.64994 0.2773 0.838 0.0
C2371 C 0.67505 0.23753 0.82952 0.0
C2372 C 0.66212 0.22384 0.8495 0.0
H2373 H 0.67986 0.2729 0.80832 0.0
H2374 H 0.69042 0.22831 0.81831 0.0
S2375 S 0.60942 0.25035 0.89161 0.0
N2376 N 0.61718 0.27491 0.87223 0.0
N2377 N 0.6287 0.22592 0.88318 0.0
C2378 C 0.64262 0.23716 0.86362 0.0
C2379 C 0.63636 0.2638 0.8577 0.0
C2380 C 0.76317 0.68062 0.83508 0.0
C2381 C 0.77738 0.66473 0.85241 0.0
C2382 C 0.73704 0.67537 0.82894 0.0
C2383 C 0.7238 0.65374 0.83956 0.0
H2384 H 0.77215 0.69765 0.82636 0.0
H2385 H 0.72739 0.68812 0.81514 0.0
S2386 S 0.75182 0.6061 0.88643 0.0
N2387 N 0.77595 0.62667 0.88067 0.0
N2388 N 0.72697 0.61644 0.86873 0.0
C2389 C 0.73767 0.63771 0.8571 0.0
C2390 C 0.76433 0.64328 0.86361 0.0
C2391 C 0.66684 0.75624 0.12813 0.0
C2392 C 0.65984 0.77719 0.14459 0.0
C2393 C 0.66085 0.73028 0.1348 0.0
C2394 C 0.64698 0.72461 0.15771 0.0
H2395 H 0.67826 0.75979 0.1107 0.0
H2396 H 0.66753 0.71461 0.1223 0.0
S2397 S 0.62294 0.77227 0.20655 0.0
N2398 N 0.63777 0.79035 0.18438 0.0
N2399 N 0.62558 0.74183 0.19632 0.0
C2400 C 0.63893 0.7454 0.17369 0.0
C2401 C 0.64558 0.77165 0.16728 0.0
C2402 C 0.26639 0.67226 0.17679 0.0
C2403 C 0.27989 0.65181 0.16439 0.0
C2404 C 0.24049 0.67819 0.17042 0.0
C2405 C 0.22687 0.66423 0.15105 0.0
H2406 H 0.27561 0.68345 0.19218 0.0
H2407 H 0.23124 0.69422 0.18063 0.0
S2408 S 0.25342 0.60933 0.11196 0.0
N2409 N 0.2777 0.61769 0.13143 0.0
N2410 N 0.22913 0.62929 0.11902 0.0
C2411 C 0.24022 0.64401 0.13808 0.0
C2412 C 0.26662 0.6377 0.14484 0.0
C2413 C 0.76338 0.35063 0.13895 0.0
C2414 C 0.77871 0.33553 0.1561 0.0
C2415 C 0.73696 0.35609 0.14435 0.0
C2416 C 0.72453 0.34608 0.16674 0.0
H2417 H 0.77188 0.3584 0.12123 0.0
H2418 H 0.7262 0.3683 0.13088 0.0
S2419 S 0.7558 0.30563 0.21817 0.0
N2420 N 0.77922 0.31091 0.19675 0.0
N2421 N 0.72991 0.32071 0.20649 0.0
C2422 C 0.73959 0.33081 0.18394 0.0
C2423 C 0.76653 0.32571 0.17876 0.0
C2424 C 0.11251 0.19731 0.2131 0.0
C2425 C 0.11469 0.20452 0.23954 0.0
C2426 C 0.10724 0.21593 0.19381 0.0
C2427 C 0.10301 0.24215 0.20043 0.0
H2428 H 0.11676 0.17752 0.20701 0.0
H2429 H 0.10831 0.21016 0.17349 0.0
S2430 S 0.10351 0.27043 0.26701 0.0
N2431 N 0.11014 0.23921 0.27151 0.0
N2432 N 0.09935 0.27408 0.23527 0.0
C2433 C 0.10296 0.24916 0.22695 0.0
C2434 C 0.10909 0.23037 0.24654 0.0
C2435 C 0.80714 0.11316 0.21661 0.0
C2436 C 0.79853 0.11592 0.24258 0.0
C2437 C 0.78966 0.10723 0.19646 0.0
C2438 C 0.76311 0.10297 0.20165 0.0
H2439 H 0.82724 0.11726 0.2115 0.0
H2440 H 0.79662 0.10765 0.17649 0.0
S2441 S 0.73132 0.10452 0.26672 0.0
N2442 N 0.76218 0.11169 0.27271 0.0
N2443 N 0.72938 0.09976 0.2349 0.0
C2444 C 0.75465 0.10356 0.22779 0.0
C2445 C 0.77233 0.11031 0.24825 0.0
C2446 C 0.90073 0.75477 0.22346 0.0
C2447 C 0.90153 0.76182 0.19693 0.0
C2448 C 0.89349 0.77289 0.24268 0.0
C2449 C 0.88738 0.79877 0.23602 0.0
H2450 H 0.90314 0.73454 0.22911 0.0
H2451 H 0.89161 0.76633 0.26268 0.0
S2452 S 0.89007 0.8276 0.16961 0.0
N2453 N 0.89786 0.79665 0.16525 0.0
N2454 N 0.88541 0.83115 0.20129 0.0
C2455 C 0.89046 0.80657 0.20983 0.0
C2456 C 0.89729 0.78797 0.19029 0.0
C2457 C 0.24711 0.89909 0.22063 0.0
C2458 C 0.24037 0.89823 0.19402 0.0
C2459 C 0.22875 0.89307 0.24004 0.0
C2460 C 0.20292 0.88662 0.23346 0.0
H2461 H 0.26725 0.90201 0.22639 0.0
H2462 H 0.23505 0.89249 0.26021 0.0
S2463 S 0.17488 0.88486 0.16671 0.0
N2464 N 0.20589 0.8924 0.16221 0.0
N2465 N 0.17096 0.88227 0.19858 0.0
C2466 C 0.19546 0.88789 0.20705 0.0
C2467 C 0.2143 0.89343 0.18734 0.0
C2468 C 0.10964 0.7898 0.81483 0.0
C2469 C 0.10407 0.76426 0.80669 0.0
C2470 C 0.11575 0.80925 0.79662 0.0
C2471 C 0.1175 0.80347 0.76982 0.0
H2472 H 0.11111 0.79427 0.83544 0.0
H2473 H 0.12098 0.82844 0.80378 0.0
S2474 S 0.10281 0.73997 0.73858 0.0
N2475 N 0.09858 0.73467 0.77008 0.0
N2476 N 0.11106 0.77101 0.73589 0.0
C2477 C 0.11056 0.7784 0.76135 0.0
C2478 C 0.10353 0.75884 0.77981 0.0
C2479 C 0.22524 0.11134 0.76649 0.0
C2480 C 0.20068 0.12055 0.77444 0.0
C2481 C 0.24453 0.1051 0.78493 0.0
C2482 C 0.24001 0.1085 0.81182 0.0
H2483 H 0.22981 0.10967 0.74592 0.0
H2484 H 0.26379 0.09981 0.77799 0.0
S2485 S 0.17866 0.13108 0.84258 0.0
N2486 N 0.17234 0.13121 0.81098 0.0
N2487 N 0.20901 0.12064 0.84544 0.0
C2488 C 0.21515 0.11653 0.81997 0.0
C2489 C 0.19537 0.12231 0.80131 0.0
C2490 C 0.86459 0.23137 0.75705 0.0
C2491 C 0.88028 0.20898 0.75638 0.0
C2492 C 0.86717 0.24966 0.77702 0.0
C2493 C 0.8858 0.24664 0.79702 0.0
H2494 H 0.84938 0.23435 0.74269 0.0
H2495 H 0.85399 0.26619 0.77702 0.0
S2496 S 0.93404 0.1933 0.80251 0.0
N2497 N 0.91685 0.18589 0.77625 0.0
N2498 N 0.9218 0.22094 0.81372 0.0
C2499 C 0.90281 0.22533 0.79579 0.0
C2500 C 0.89998 0.20631 0.77551 0.0
C2501 C 0.76108 0.89805 0.77753 0.0
C2502 C 0.76698 0.8941 0.80407 0.0
C2503 C 0.77924 0.89187 0.75794 0.0
C2504 C 0.80405 0.88216 0.76436 0.0
H2505 H 0.74155 0.90373 0.77175 0.0
H2506 H 0.77357 0.89394 0.73768 0.0
S2507 S 0.82962 0.87033 0.83104 0.0
N2508 N 0.79961 0.8811 0.83572 0.0
N2509 N 0.83419 0.87057 0.79914 0.0
C2510 C 0.81079 0.87992 0.79088 0.0
C2511 C 0.79214 0.88566 0.8107 0.0
C2512 C 0.21308 0.14011 0.20423 0.0
C2513 C 0.23322 0.12176 0.20267 0.0
C2514 C 0.19275 0.13704 0.2221 0.0
C2515 C 0.19207 0.11573 0.23955 0.0
H2516 H 0.21338 0.15731 0.19192 0.0
H2517 H 0.17823 0.15237 0.22323 0.0
S2518 S 0.2387 0.06032 0.24016 0.0
N2519 N 0.24993 0.07996 0.21719 0.0
N2520 N 0.21215 0.07445 0.25181 0.0
C2521 C 0.21123 0.09623 0.23677 0.0
C2522 C 0.23181 0.09925 0.21814 0.0
C2523 C 0.86081 0.23298 0.22626 0.0
C2524 C 0.88327 0.24034 0.21258 0.0
C2525 C 0.86103 0.21165 0.24307 0.0
C2526 C 0.88391 0.19696 0.24756 0.0
H2527 H 0.84261 0.24338 0.2235 0.0
H2528 H 0.84298 0.20715 0.25312 0.0
S2529 S 0.94825 0.20868 0.21663 0.0
N2530 N 0.92911 0.23141 0.20412 0.0
N2531 N 0.92984 0.19167 0.23693 0.0
C2532 C 0.9067 0.20428 0.23418 0.0
C2533 C 0.9063 0.22583 0.2164 0.0
C2534 C 0.76064 0.86245 0.2294 0.0
C2535 C 0.7617 0.8773 0.20643 0.0
C2536 C 0.77988 0.86483 0.24851 0.0
C2537 C 0.80082 0.88236 0.24567 0.0
H2538 H 0.74545 0.84803 0.23226 0.0
H2539 H 0.77871 0.85226 0.26548 0.0
S2540 S 0.81132 0.92795 0.19083 0.0
N2541 N 0.7845 0.91188 0.18291 0.0
N2542 N 0.8206 0.91631 0.21942 0.0
C2543 C 0.80145 0.89851 0.22371 0.0
C2544 C 0.7819 0.89595 0.20392 0.0
C2545 C 0.13442 0.78239 0.24771 0.0
C2546 C 0.11718 0.80353 0.2448 0.0
C2547 C 0.13679 0.7633 0.2285 0.0
C2548 C 0.12215 0.76467 0.2054 0.0
H2549 H 0.14693 0.78107 0.26473 0.0
H2550 H 0.15111 0.74802 0.23136 0.0
S2551 S 0.07175 0.81454 0.18995 0.0
N2552 N 0.08341 0.82365 0.2186 0.0
N2553 N 0.0877 0.78769 0.18191 0.0
C2554 C 0.10357 0.78493 0.20295 0.0
C2555 C 0.10108 0.80439 0.22282 0.0
C2556 C 0.22066 0.90091 0.76138 0.0
C2557 C 0.19378 0.89753 0.76591 0.0
C2558 C 0.23908 0.89414 0.78046 0.0
C2559 C 0.2311 0.88448 0.80483 0.0
H2560 H 0.22759 0.90638 0.74217 0.0
H2561 H 0.25966 0.89558 0.77581 0.0
S2562 S 0.16296 0.87452 0.82704 0.0
N2563 N 0.1601 0.88543 0.79686 0.0
N2564 N 0.19458 0.87392 0.83323 0.0
C2565 C 0.20426 0.88308 0.8103 0.0
C2566 C 0.1856 0.88937 0.7907 0.0
C2567 C 0.10722 0.22116 0.7587 0.0
C2568 C 0.10536 0.19425 0.76374 0.0
C2569 C 0.11376 0.23879 0.77857 0.0
C2570 C 0.11809 0.23011 0.80421 0.0
H2571 H 0.10612 0.22832 0.73883 0.0
H2572 H 0.11645 0.25915 0.77361 0.0
S2573 S 0.11245 0.16189 0.82782 0.0
N2574 N 0.10646 0.15998 0.79622 0.0
N2575 N 0.1175 0.19311 0.834 0.0
C2576 C 0.1141 0.20352 0.80986 0.0
C2577 C 0.10803 0.18557 0.78949 0.0
C2578 C 0.78252 0.13212 0.75129 0.0
C2579 C 0.80478 0.11644 0.75482 0.0
C2580 C 0.764 0.13513 0.771 0.0
C2581 C 0.76708 0.12274 0.79521 0.0
H2582 H 0.77978 0.14287 0.73328 0.0
H2583 H 0.74774 0.14815 0.7675 0.0
S2584 S 0.82058 0.07705 0.81306 0.0
N2585 N 0.82788 0.08649 0.78311 0.0
N2586 N 0.79307 0.09205 0.82072 0.0
C2587 C 0.78855 0.1057 0.79847 0.0
C2588 C 0.8074 0.10252 0.77811 0.0
C2589 C 0.86696 0.78414 0.75808 0.0
C2590 C 0.88723 0.80272 0.75825 0.0
C2591 C 0.8645 0.7656 0.77772 0.0
C2592 C 0.88194 0.76503 0.79876 0.0
H2593 H 0.8525 0.78404 0.74265 0.0
H2594 H 0.84814 0.75224 0.7768 0.0
S2595 S 0.93978 0.80795 0.80741 0.0
N2596 N 0.92624 0.8183 0.78005 0.0
N2597 N 0.92142 0.78357 0.81782 0.0
C2598 C 0.90299 0.78284 0.7988 0.0
C2599 C 0.90572 0.80162 0.77831 0.0
C2600 C 0.22056 0.2362 0.11121 0.0
C2601 C 0.19698 0.22805 0.12259 0.0
C2602 C 0.23976 0.21798 0.1041 0.0
C2603 C 0.23619 0.19117 0.1088 0.0
H2604 H 0.22452 0.25679 0.10859 0.0
H2605 H 0.25842 0.22515 0.09721 0.0
S2606 S 0.17739 0.15992 0.13689 0.0
N2607 N 0.17033 0.19136 0.13646 0.0
N2608 N 0.20695 0.15734 0.12429 0.0
C2609 C 0.21214 0.18277 0.11885 0.0
C2610 C 0.1924 0.20118 0.12551 0.0
C2611 C 0.21408 0.81424 0.89235 0.0
C2612 C 0.23995 0.80626 0.89641 0.0
C2613 C 0.19463 0.79608 0.88599 0.0
C2614 C 0.20067 0.7695 0.88244 0.0
H2615 H 0.20923 0.83482 0.89234 0.0
H2616 H 0.17512 0.80321 0.88206 0.0
S2617 S 0.26533 0.73868 0.89232 0.0
N2618 N 0.27032 0.76996 0.89823 0.0
N2619 N 0.23398 0.7359 0.88534 0.0
C2620 C 0.2262 0.76112 0.88771 0.0
C2621 C 0.24579 0.77952 0.89498 0.0
C2622 C 0.20922 0.1947 0.89019 0.0
C2623 C 0.23575 0.20154 0.88787 0.0
C2624 C 0.19017 0.21365 0.89522 0.0
C2625 C 0.19716 0.23982 0.89912 0.0
H2626 H 0.2029 0.17491 0.8863 0.0
H2627 H 0.16978 0.20812 0.89439 0.0
S2628 S 0.26413 0.26723 0.89795 0.0
N2629 N 0.26819 0.23587 0.89176 0.0
N2630 N 0.23244 0.27136 0.90217 0.0
C2631 C 0.22378 0.24651 0.89894 0.0
C2632 C 0.24309 0.22738 0.89302 0.0
C2633 C 0.75796 0.22439 0.89407 0.0
C2634 C 0.76388 0.19773 0.89102 0.0
C2635 C 0.77607 0.24378 0.88709 0.0
C2636 C 0.80082 0.23707 0.87738 0.0
H2637 H 0.73848 0.23033 0.89976 0.0
H2638 H 0.77043 0.26408 0.88865 0.0
S2639 S 0.82632 0.16999 0.86759 0.0
N2640 N 0.79641 0.16568 0.87877 0.0
N2641 N 0.83086 0.20187 0.86669 0.0
C2642 C 0.80752 0.21047 0.87592 0.0
C2643 C 0.78894 0.19085 0.88252 0.0
C2644 C 0.79825 0.80519 0.88738 0.0
C2645 C 0.77186 0.79912 0.88254 0.0
C2646 C 0.81623 0.78575 0.89419 0.0
C2647 C 0.80833 0.75971 0.89727 0.0
H2648 H 0.80545 0.82482 0.8843 0.0
H2649 H 0.83673 0.79081 0.89544 0.0
S2650 S 0.74107 0.73404 0.88949 0.0
N2651 N 0.7384 0.76552 0.88316 0.0
N2652 N 0.7721 0.7291 0.89665 0.0
C2653 C 0.78167 0.75373 0.89441 0.0
C2654 C 0.76346 0.7734 0.88681 0.0
C2655 C 0.78357 0.76769 0.10867 0.0
C2656 C 0.80645 0.77649 0.12095 0.0
C2657 C 0.76351 0.78519 0.10222 0.0
C2658 C 0.76557 0.81184 0.1084 0.0
H2659 H 0.78086 0.7471 0.10473 0.0
H2660 H 0.74543 0.77747 0.09441 0.0
S2661 S 0.82177 0.84463 0.13977 0.0
N2662 N 0.83063 0.81372 0.13766 0.0
N2663 N 0.79241 0.84629 0.12661 0.0
C2664 C 0.78879 0.82097 0.11961 0.0
C2665 C 0.80939 0.80334 0.12564 0.0
C2666 C 0.21895 0.75931 0.1027 0.0
C2667 C 0.19194 0.7634 0.10552 0.0
C2668 C 0.23688 0.77921 0.10837 0.0
C2669 C 0.22829 0.80397 0.11638 0.0
H2670 H 0.22637 0.73998 0.09841 0.0
H2671 H 0.25756 0.77495 0.10735 0.0
S2672 S 0.15948 0.82512 0.12417 0.0
N2673 N 0.15744 0.79422 0.1153 0.0
N2674 N 0.19095 0.83209 0.12471 0.0
C2675 C 0.20128 0.80885 0.11724 0.0
C2676 C 0.18312 0.78842 0.11209 0.0
C2677 C 0.79596 0.20193 0.14524 0.0
C2678 C 0.77829 0.19743 0.12498 0.0
C2679 C 0.81605 0.22009 0.14244 0.0
C2680 C 0.81865 0.23524 0.11955 0.0
H2681 H 0.79397 0.19166 0.16362 0.0
H2682 H 0.82855 0.22342 0.15916 0.0
S2683 S 0.77914 0.22758 0.05934 0.0
N2684 N 0.76639 0.20641 0.08004 0.0
N2685 N 0.80337 0.24194 0.07505 0.0
C2686 C 0.80212 0.22945 0.09838 0.0
C2687 C 0.782 0.21028 0.10109 0.0
C2688 C 0.60314 0.74433 0.72078 0.0
C2689 C 0.60521 0.73896 0.69392 0.0
C2690 C 0.61016 0.7256 0.73949 0.0
C2691 C 0.61886 0.70075 0.73188 0.0
H2692 H 0.59842 0.76387 0.72735 0.0
H2693 H 0.60959 0.73085 0.75996 0.0
S2694 S 0.62555 0.67643 0.66402 0.0
N2695 N 0.61523 0.70677 0.66074 0.0
N2696 N 0.6273 0.67114 0.69575 0.0
C2697 C 0.61909 0.69454 0.70514 0.0
C2698 C 0.6125 0.71376 0.68618 0.0
C2699 C 0.27509 0.61281 0.73858 0.0
C2700 C 0.30094 0.61767 0.73085 0.0
C2701 C 0.25575 0.60698 0.72009 0.0
C2702 C 0.26156 0.6064 0.69326 0.0
H2703 H 0.26958 0.61441 0.75893 0.0
H2704 H 0.23571 0.60523 0.72665 0.0
S2705 S 0.32648 0.61568 0.66309 0.0
N2706 N 0.33173 0.61922 0.69468 0.0
N2707 N 0.295 0.60952 0.66 0.0
C2708 C 0.28752 0.60981 0.68543 0.0
C2709 C 0.30733 0.61512 0.70423 0.0
C2710 C 0.39638 0.25933 0.72035 0.0
C2711 C 0.3967 0.26424 0.69335 0.0
C2712 C 0.38978 0.27902 0.73819 0.0
C2713 C 0.38389 0.30437 0.7296 0.0
H2714 H 0.39886 0.23962 0.72756 0.0
H2715 H 0.38836 0.27414 0.7587 0.0
S2716 S 0.38506 0.3277 0.66108 0.0
N2717 N 0.39237 0.29639 0.65901 0.0
N2718 N 0.3813 0.33386 0.69248 0.0
C2719 C 0.38628 0.30998 0.70281 0.0
C2720 C 0.39236 0.28977 0.68468 0.0
C2721 C 0.74939 0.3775 0.72404 0.0
C2722 C 0.74519 0.39048 0.70026 0.0
C2723 C 0.72892 0.37273 0.74133 0.0
C2724 C 0.70336 0.38065 0.73545 0.0
H2725 H 0.76852 0.36978 0.72872 0.0
H2726 H 0.73308 0.36176 0.7589 0.0
S2727 S 0.68297 0.41836 0.6769 0.0
N2728 N 0.71452 0.41332 0.67255 0.0
N2729 N 0.67556 0.40471 0.70515 0.0
C2730 C 0.69925 0.39534 0.71246 0.0
C2731 C 0.72031 0.40019 0.69481 0.0
C2732 C 0.60317 0.25823 0.28103 0.0
C2733 C 0.60493 0.26272 0.30805 0.0
C2734 C 0.60951 0.27791 0.26307 0.0
C2735 C 0.61721 0.30278 0.27165 0.0
H2736 H 0.59927 0.23877 0.27373 0.0
H2737 H 0.6093 0.27336 0.24243 0.0
S2738 S 0.62246 0.32486 0.34039 0.0
N2739 N 0.61338 0.29403 0.34247 0.0
N2740 N 0.62421 0.33139 0.30889 0.0
C2741 C 0.61701 0.30803 0.29859 0.0
C2742 C 0.6111 0.28788 0.31678 0.0
C2743 C 0.71332 0.60915 0.30451 0.0
C2744 C 0.73993 0.60696 0.29862 0.0
C2745 C 0.69515 0.61484 0.28491 0.0
C2746 C 0.70317 0.6197 0.25905 0.0
H2747 H 0.70676 0.608 0.32457 0.0
H2748 H 0.67488 0.61711 0.29046 0.0
S2749 S 0.7707 0.61498 0.23363 0.0
N2750 N 0.77337 0.60832 0.26504 0.0
N2751 N 0.73931 0.62009 0.22835 0.0
C2752 C 0.72959 0.61638 0.25274 0.0
C2753 C 0.74796 0.60974 0.27253 0.0
C2754 C 0.39785 0.73964 0.28446 0.0
C2755 C 0.39224 0.73621 0.31112 0.0
C2756 C 0.39215 0.72 0.26625 0.0
C2757 C 0.38133 0.69616 0.27429 0.0
H2758 H 0.40446 0.75842 0.27734 0.0
H2759 H 0.39545 0.72379 0.24572 0.0
S2760 S 0.36507 0.67691 0.3421 0.0
N2761 N 0.37651 0.70691 0.34476 0.0
N2762 N 0.36693 0.66951 0.31078 0.0
C2763 C 0.37746 0.69182 0.30108 0.0
C2764 C 0.38268 0.71199 0.31947 0.0
C2765 C 0.2601 0.39975 0.28215 0.0
C2766 C 0.26484 0.39926 0.30919 0.0
C2767 C 0.27969 0.39289 0.26424 0.0
C2768 C 0.30478 0.38588 0.27282 0.0
H2769 H 0.24051 0.40308 0.2749 0.0
H2770 H 0.27493 0.39218 0.24367 0.0
S2771 S 0.32751 0.3839 0.34154 0.0
N2772 N 0.29656 0.39261 0.34357 0.0
N2773 N 0.3338 0.38092 0.31007 0.0
C2774 C 0.31024 0.38729 0.29971 0.0
C2775 C 0.29016 0.39371 0.31787 0.0
C2776 C 0.691 0.61541 0.71348 0.0
C2777 C 0.6982 0.61054 0.73941 0.0
C2778 C 0.70992 0.62085 0.69449 0.0
C2779 C 0.73655 0.62265 0.70108 0.0
H2780 H 0.67055 0.61651 0.70818 0.0
H2781 H 0.70344 0.6253 0.67487 0.0
S2782 S 0.76538 0.61055 0.76623 0.0
N2783 N 0.73369 0.60646 0.77054 0.0
N2784 N 0.76924 0.61763 0.73502 0.0
C2785 C 0.74407 0.61684 0.72674 0.0
C2786 C 0.72486 0.61052 0.74587 0.0
C2787 C 0.39045 0.68593 0.71412 0.0
C2788 C 0.39554 0.69352 0.73994 0.0
C2789 C 0.38543 0.70456 0.69477 0.0
C2790 C 0.38435 0.73134 0.70083 0.0
H2791 H 0.38865 0.66543 0.70926 0.0
H2792 H 0.38061 0.69779 0.67532 0.0
S2793 S 0.39792 0.76127 0.76522 0.0
N2794 N 0.40107 0.7296 0.77021 0.0
N2795 N 0.39073 0.7646 0.73398 0.0
C2796 C 0.3907 0.73924 0.72626 0.0
C2797 C 0.39658 0.72031 0.74577 0.0
C2798 C 0.28025 0.39902 0.74247 0.0
C2799 C 0.30724 0.39897 0.73741 0.0
C2800 C 0.26226 0.3923 0.72297 0.0
C2801 C 0.2707 0.38592 0.69767 0.0
H2802 H 0.27316 0.40179 0.76221 0.0
H2803 H 0.24176 0.39108 0.72798 0.0
S2804 S 0.33911 0.38612 0.67393 0.0
N2805 N 0.34139 0.39391 0.70512 0.0
N2806 N 0.30763 0.38259 0.66799 0.0
C2807 C 0.29746 0.38806 0.69186 0.0
C2808 C 0.31575 0.39427 0.71187 0.0
C2809 C 0.61832 0.28777 0.6963 0.0
C2810 C 0.62258 0.26174 0.70416 0.0
C2811 C 0.61125 0.30707 0.71435 0.0
C2812 C 0.60721 0.30085 0.74067 0.0
H2813 H 0.62203 0.29366 0.67635 0.0
H2814 H 0.61054 0.32722 0.70802 0.0
S2815 S 0.61345 0.23544 0.77089 0.0
N2816 N 0.62061 0.23059 0.73983 0.0
N2817 N 0.60655 0.26679 0.77359 0.0
C2818 C 0.60959 0.27465 0.74844 0.0
C2819 C 0.6175 0.25509 0.73023 0.0
C2820 C 0.71251 0.38542 0.30445 0.0
C2821 C 0.73838 0.37982 0.29691 0.0
C2822 C 0.69337 0.39171 0.28595 0.0
C2823 C 0.69963 0.3936 0.25938 0.0
H2824 H 0.70657 0.38339 0.32464 0.0
H2825 H 0.67328 0.39359 0.29227 0.0
S2826 S 0.76488 0.38326 0.22972 0.0
N2827 N 0.76952 0.3782 0.2612 0.0
N2828 N 0.73372 0.39085 0.2265 0.0
C2829 C 0.72577 0.38984 0.25178 0.0
C2830 C 0.74511 0.38271 0.27052 0.0
C2831 C 0.60401 0.71906 0.25818 0.0
C2832 C 0.61217 0.693 0.26102 0.0
C2833 C 0.60966 0.73777 0.27742 0.0
C2834 C 0.62293 0.7307 0.30032 0.0
H2835 H 0.59496 0.72541 0.24018 0.0
H2836 H 0.60411 0.75789 0.27415 0.0
S2837 S 0.64664 0.66476 0.31788 0.0
N2838 N 0.63327 0.66102 0.28879 0.0
N2839 N 0.64259 0.69578 0.32556 0.0
C2840 C 0.62965 0.70444 0.30409 0.0
C2841 C 0.62456 0.68564 0.28428 0.0
C2842 C 0.26316 0.61302 0.28009 0.0
C2843 C 0.27249 0.61686 0.30559 0.0
C2844 C 0.28015 0.60587 0.25985 0.0
C2845 C 0.30703 0.6028 0.26438 0.0
H2846 H 0.24281 0.61651 0.27555 0.0
H2847 H 0.27258 0.60511 0.24012 0.0
S2848 S 0.34086 0.60823 0.32788 0.0
N2849 N 0.31 0.61458 0.33467 0.0
N2850 N 0.34194 0.60234 0.29622 0.0
C2851 C 0.31631 0.60503 0.28997 0.0
C2852 C 0.29901 0.61176 0.3107 0.0
C2853 C 0.39745 0.28065 0.25883 0.0
C2854 C 0.3981 0.30758 0.26413 0.0
C2855 C 0.39052 0.26263 0.27826 0.0
C2856 C 0.38463 0.27096 0.30371 0.0
H2857 H 0.39991 0.27367 0.23902 0.0
H2858 H 0.38888 0.2422 0.27311 0.0
S2859 S 0.38625 0.33914 0.32798 0.0
N2860 N 0.3939 0.34152 0.29677 0.0
N2861 N 0.38214 0.30771 0.33368 0.0
C2862 C 0.38727 0.29763 0.30969 0.0
C2863 C 0.39371 0.31595 0.28978 0.0
C2864 C 0.7144 0.68621 0.61416 0.0
C2865 C 0.73934 0.69456 0.60654 0.0
C2866 C 0.69453 0.70429 0.61923 0.0
C2867 C 0.69935 0.73129 0.61789 0.0
H2868 H 0.71072 0.66571 0.61777 0.0
H2869 H 0.67581 0.69711 0.62596 0.0
S2870 S 0.76101 0.76291 0.59729 0.0
N2871 N 0.76733 0.73133 0.59607 0.0
N2872 N 0.73026 0.76542 0.60667 0.0
C2873 C 0.72384 0.73982 0.60913 0.0
C2874 C 0.74378 0.72139 0.60315 0.0
C2875 C 0.69426 0.2982 0.38025 0.0
C2876 C 0.69928 0.27127 0.38218 0.0
C2877 C 0.71402 0.31651 0.38489 0.0
C2878 C 0.73899 0.30845 0.39265 0.0
H2879 H 0.67549 0.30509 0.37341 0.0
H2880 H 0.71022 0.33691 0.38086 0.0
S2881 S 0.76115 0.24049 0.40326 0.0
N2882 N 0.73041 0.23758 0.39401 0.0
N2883 N 0.76726 0.27213 0.40383 0.0
C2884 C 0.74363 0.28175 0.39659 0.0
C2885 C 0.72382 0.26307 0.39104 0.0
C2886 C 0.70287 0.69338 0.38235 0.0
C2887 C 0.72971 0.69913 0.38117 0.0
C2888 C 0.68465 0.71257 0.38923 0.0
C2889 C 0.69276 0.73781 0.39612 0.0
H2890 H 0.6957 0.6745 0.37612 0.0
H2891 H 0.66405 0.70824 0.38725 0.0
S2892 S 0.76097 0.76167 0.39956 0.0
N2893 N 0.76366 0.73111 0.3897 0.0
N2894 N 0.72942 0.76691 0.4036 0.0
C2895 C 0.71966 0.74308 0.39726 0.0
C2896 C 0.73817 0.72382 0.38945 0.0
C2897 C 0.30538 0.70974 0.39127 0.0
C2898 C 0.29831 0.7359 0.38679 0.0
C2899 C 0.28658 0.69091 0.39755 0.0
C2900 C 0.2602 0.69772 0.40042 0.0
H2901 H 0.32531 0.70337 0.38819 0.0
H2902 H 0.29243 0.67061 0.39842 0.0
S2903 S 0.23223 0.76423 0.39438 0.0
N2904 N 0.2636 0.76813 0.38809 0.0
N2905 N 0.22831 0.73288 0.40069 0.0
C2906 C 0.25326 0.72421 0.39823 0.0
C2907 C 0.2723 0.74328 0.39112 0.0
C2908 C 0.29826 0.31006 0.38718 0.0
C2909 C 0.2714 0.30446 0.38553 0.0
C2910 C 0.31641 0.29046 0.39305 0.0
C2911 C 0.30819 0.26491 0.39848 0.0
H2912 H 0.30551 0.32926 0.38212 0.0
H2913 H 0.33704 0.29487 0.39159 0.0
S2914 S 0.23995 0.24092 0.39962 0.0
N2915 N 0.23737 0.27205 0.39173 0.0
N2916 N 0.27145 0.23543 0.4037 0.0
C2917 C 0.28128 0.25961 0.39898 0.0
C2918 C 0.26286 0.27933 0.39222 0.0
C2919 C 0.27766 0.26229 0.61086 0.0
C2920 C 0.30315 0.27061 0.61658 0.0
C2921 C 0.25809 0.28036 0.60461 0.0
C2922 C 0.2633 0.3073 0.60447 0.0
H2923 H 0.2726 0.24181 0.61215 0.0
H2924 H 0.23827 0.27337 0.60222 0.0
S2925 S 0.32712 0.33892 0.61607 0.0
N2926 N 0.33303 0.30743 0.6194 0.0
N2927 N 0.29578 0.34132 0.60897 0.0
C2928 C 0.28894 0.31572 0.60871 0.0
C2929 C 0.30901 0.29736 0.61444 0.0
C2930 C 0.74434 0.27365 0.64119 0.0
C2931 C 0.74494 0.29628 0.62588 0.0
C2932 C 0.72483 0.255 0.63782 0.0
C2933 C 0.7052 0.25786 0.61876 0.0
H2934 H 0.7584 0.27074 0.6567 0.0
H2935 H 0.7249 0.23826 0.65075 0.0
S2936 S 0.69991 0.31175 0.57112 0.0
N2937 N 0.72553 0.31946 0.58912 0.0
N2938 N 0.68893 0.28373 0.58268 0.0
C2939 C 0.70643 0.27945 0.6021 0.0
C2940 C 0.72625 0.29884 0.60573 0.0
C2941 C 0.26421 0.72504 0.60929 0.0
C2942 C 0.27207 0.69991 0.6169 0.0
C2943 C 0.28274 0.74434 0.60339 0.0
C2944 C 0.30965 0.73925 0.60553 0.0
H2945 H 0.24368 0.73004 0.60876 0.0
H2946 H 0.27595 0.76397 0.59949 0.0
S2947 S 0.34023 0.67629 0.62309 0.0
N2948 N 0.30856 0.67045 0.62426 0.0
N2949 N 0.34319 0.70714 0.61434 0.0
C2950 C 0.31767 0.71387 0.61171 0.0
C2951 C 0.2989 0.69409 0.61714 0.0
loop_
_geom_bond_atom_site_label_1
_geom_bond_atom_site_label_2
_geom_bond_distance
_geom_bond_site_symmetry_2
_ccdc_geom_bond_type
Co0 O3 1.970 . S
Co0 N17 1.989 . S
Co0 O25 1.967 . S
Co0 O32 1.920 . S
Co1 O4 1.966 . S
Co1 N10 2.022 . S
Co1 N18 1.993 . S
Co1 O26 1.941 . S
C2 O3 1.258 . S
C2 O4 1.263 . S
O3 Co0 1.970 . S
O3 C2 1.258 . S
O4 Co1 1.966 . S
O4 C2 1.263 . S
C5 O6 1.235 . S
C5 O32 1.289 . S
O6 C5 1.235 . S
C7 C9 1.400 . S
C7 N10 1.351 . S
C7 C12 1.501 . S
C8 C9 1.387 . S
C8 N11 1.341 . S
C9 C7 1.400 . S
C9 C8 1.387 . S
N10 Co1 2.022 . S
N10 C7 1.351 . S
N10 N11 1.365 . S
N11 C8 1.341 . S
N11 N10 1.365 . S
N11 H31 0.862 . S
C12 C7 1.501 . S
C12 H13 0.961 . S
C12 H14 0.961 . S
C12 H15 0.960 . S
H13 C12 0.961 . S
H14 C12 0.961 . S
H15 C12 0.960 . S
C16 N17 1.342 . S
C16 C20 1.401 . S
C16 C21 1.499 . S
N17 Co0 1.989 . S
N17 C16 1.342 . S
N17 N18 1.388 . S
N18 Co1 1.993 . S
N18 N17 1.388 . S
N18 C19 1.346 . S
C19 N18 1.346 . S
C19 C20 1.396 . S
C19 C29 1.510 . S
C20 C16 1.401 . S
C20 C19 1.396 . S
C21 C16 1.499 . S
C21 H22 0.959 . S
C21 H23 0.960 . S
C21 H24 0.961 . S
H22 C21 0.959 . S
H23 C21 0.960 . S
H24 C21 0.961 . S
O25 Co0 1.967 . S
O25 C33 1.258 . S
O26 Co1 1.941 . S
O26 C33 1.266 . S
H27 C29 0.959 . S
H28 C29 0.961 . S
C29 C19 1.510 . S
C29 H27 0.959 . S
C29 H28 0.961 . S
C29 H30 0.960 . S
H30 C29 0.960 . S
H31 N11 0.862 . S
O32 Co0 1.920 . S
O32 C5 1.289 . S
C33 O25 1.258 . S
C33 O26 1.266 . S
Co34 O37 1.970 . S
Co34 N51 1.989 . S
Co34 O59 1.967 . S
Co34 O66 1.920 . S
Co35 O38 1.966 . S
Co35 N44 2.022 . S
Co35 N52 1.993 . S
Co35 O60 1.941 . S
C36 O37 1.258 . S
C36 O38 1.263 . S
O37 Co34 1.970 . S
O37 C36 1.258 . S
O38 Co35 1.966 . S
O38 C36 1.263 . S
C39 O40 1.235 . S
C39 O66 1.289 . S
O40 C39 1.235 . S
C41 C43 1.400 . S
C41 N44 1.351 . S
C41 C46 1.501 . S
C42 C43 1.387 . S
C42 N45 1.341 . S
C43 C41 1.400 . S
C43 C42 1.387 . S
N44 Co35 2.022 . S
N44 C41 1.351 . S
N44 N45 1.365 . S
N45 C42 1.341 . S
N45 N44 1.365 . S
N45 H65 0.862 . S
C46 C41 1.501 . S
C46 H47 0.961 . S
C46 H48 0.961 . S
C46 H49 0.960 . S
H47 C46 0.961 . S
H48 C46 0.961 . S
H49 C46 0.960 . S
C50 N51 1.342 . S
C50 C54 1.401 . S
C50 C55 1.499 . S
N51 Co34 1.989 . S
N51 C50 1.342 . S
N51 N52 1.388 . S
N52 Co35 1.993 . S
N52 N51 1.388 . S
N52 C53 1.346 . S
C53 N52 1.346 . S
C53 C54 1.396 . S
C53 C63 1.510 . S
C54 C50 1.401 . S
C54 C53 1.396 . S
C55 C50 1.499 . S
C55 H56 0.959 . S
C55 H57 0.960 . S
C55 H58 0.961 . S
H56 C55 0.959 . S
H57 C55 0.960 . S
H58 C55 0.961 . S
O59 Co34 1.967 . S
O59 C67 1.258 . S
O60 Co35 1.941 . S
O60 C67 1.266 . S
H61 C63 0.959 . S
H62 C63 0.961 . S
C63 C53 1.510 . S
C63 H61 0.959 . S
C63 H62 0.961 . S
C63 H64 0.960 . S
H64 C63 0.960 . S
H65 N45 0.862 . S
O66 Co34 1.920 . S
O66 C39 1.289 . S
C67 O59 1.258 . S
C67 O60 1.266 . S
Co68 O71 1.970 . S
Co68 N85 1.989 . S
Co68 O93 1.967 . S
Co68 O100 1.920 . S
Co69 O72 1.966 . S
Co69 N78 2.022 . S
Co69 N86 1.993 . S
Co69 O94 1.941 . S
C70 O71 1.258 . S
C70 O72 1.263 . S
O71 Co68 1.970 . S
O71 C70 1.258 . S
O72 Co69 1.966 . S
O72 C70 1.263 . S
C73 O74 1.235 . S
C73 O100 1.289 . S
O74 C73 1.235 . S
C75 C77 1.400 . S
C75 N78 1.351 . S
C75 C80 1.501 . S
C76 C77 1.387 . S
C76 N79 1.341 . S
C77 C75 1.400 . S
C77 C76 1.387 . S
N78 Co69 2.022 . S
N78 C75 1.351 . S
N78 N79 1.365 . S
N79 C76 1.341 . S
N79 N78 1.365 . S
N79 H99 0.862 . S
C80 C75 1.501 . S
C80 H81 0.961 . S
C80 H82 0.961 . S
C80 H83 0.960 . S
H81 C80 0.961 . S
H82 C80 0.961 . S
H83 C80 0.960 . S
C84 N85 1.342 . S
C84 C88 1.401 . S
C84 C89 1.499 . S
N85 Co68 1.989 . S
N85 C84 1.342 . S
N85 N86 1.388 . S
N86 Co69 1.993 . S
N86 N85 1.388 . S
N86 C87 1.346 . S
C87 N86 1.346 . S
C87 C88 1.396 . S
C87 C97 1.510 . S
C88 C84 1.401 . S
C88 C87 1.396 . S
C89 C84 1.499 . S
C89 H90 0.959 . S
C89 H91 0.960 . S
C89 H92 0.961 . S
H90 C89 0.959 . S
H91 C89 0.960 . S
H92 C89 0.961 . S
O93 Co68 1.967 . S
O93 C101 1.258 . S
O94 Co69 1.941 . S
O94 C101 1.266 . S
H95 C97 0.959 . S
H96 C97 0.961 . S
C97 C87 1.510 . S
C97 H95 0.959 . S
C97 H96 0.961 . S
C97 H98 0.960 . S
H98 C97 0.960 . S
H99 N79 0.862 . S
O100 Co68 1.920 . S
O100 C73 1.289 . S
C101 O93 1.258 . S
C101 O94 1.266 . S
Co102 O105 1.970 . S
Co102 N119 1.989 . S
Co102 O127 1.967 . S
Co102 O134 1.920 . S
Co103 O106 1.966 . S
Co103 N112 2.022 . S
Co103 N120 1.993 . S
Co103 O128 1.941 . S
C104 O105 1.258 . S
C104 O106 1.263 . S
O105 Co102 1.970 . S
O105 C104 1.258 . S
O106 Co103 1.966 . S
O106 C104 1.263 . S
C107 O108 1.235 . S
C107 O134 1.289 . S
O108 C107 1.235 . S
C109 C111 1.400 . S
C109 N112 1.351 . S
C109 C114 1.501 . S
C110 C111 1.387 . S
C110 N113 1.341 . S
C111 C109 1.400 . S
C111 C110 1.387 . S
N112 Co103 2.022 . S
N112 C109 1.351 . S
N112 N113 1.365 . S
N113 C110 1.341 . S
N113 N112 1.365 . S
N113 H133 0.862 . S
C114 C109 1.501 . S
C114 H115 0.961 . S
C114 H116 0.961 . S
C114 H117 0.960 . S
H115 C114 0.961 . S
H116 C114 0.961 . S
H117 C114 0.960 . S
C118 N119 1.342 . S
C118 C122 1.401 . S
C118 C123 1.499 . S
N119 Co102 1.989 . S
N119 C118 1.342 . S
N119 N120 1.388 . S
N120 Co103 1.993 . S
N120 N119 1.388 . S
N120 C121 1.346 . S
C121 N120 1.346 . S
C121 C122 1.396 . S
C121 C131 1.510 . S
C122 C118 1.401 . S
C122 C121 1.396 . S
C123 C118 1.499 . S
C123 H124 0.959 . S
C123 H125 0.960 . S
C123 H126 0.961 . S
H124 C123 0.959 . S
H125 C123 0.960 . S
H126 C123 0.961 . S
O127 Co102 1.967 . S
O127 C135 1.258 . S
O128 Co103 1.941 . S
O128 C135 1.266 . S
H129 C131 0.959 . S
H130 C131 0.961 . S
C131 C121 1.510 . S
C131 H129 0.959 . S
C131 H130 0.961 . S
C131 H132 0.960 . S
H132 C131 0.960 . S
H133 N113 0.862 . S
O134 Co102 1.920 . S
O134 C107 1.289 . S
C135 O127 1.258 . S
C135 O128 1.266 . S
Co136 O139 1.970 . S
Co136 N153 1.989 . S
Co136 O161 1.967 . S
Co136 O168 1.920 . S
Co137 O140 1.966 . S
Co137 N146 2.022 . S
Co137 N154 1.993 . S
Co137 O162 1.941 . S
C138 O139 1.258 . S
C138 O140 1.263 . S
O139 Co136 1.970 . S
O139 C138 1.258 . S
O140 Co137 1.966 . S
O140 C138 1.263 . S
C141 O142 1.235 . S
C141 O168 1.289 . S
O142 C141 1.235 . S
C143 C145 1.400 . S
C143 N146 1.351 . S
C143 C148 1.501 . S
C144 C145 1.387 . S
C144 N147 1.341 . S
C145 C143 1.400 . S
C145 C144 1.387 . S
N146 Co137 2.022 . S
N146 C143 1.351 . S
N146 N147 1.365 . S
N147 C144 1.341 . S
N147 N146 1.365 . S
N147 H167 0.862 . S
C148 C143 1.501 . S
C148 H149 0.961 . S
C148 H150 0.961 . S
C148 H151 0.960 . S
H149 C148 0.961 . S
H150 C148 0.961 . S
H151 C148 0.960 . S
C152 N153 1.342 . S
C152 C156 1.401 . S
C152 C157 1.499 . S
N153 Co136 1.989 . S
N153 C152 1.342 . S
N153 N154 1.388 . S
N154 Co137 1.993 . S
N154 N153 1.388 . S
N154 C155 1.346 . S
C155 N154 1.346 . S
C155 C156 1.396 . S
C155 C165 1.510 . S
C156 C152 1.401 . S
C156 C155 1.396 . S
C157 C152 1.499 . S
C157 H158 0.959 . S
C157 H159 0.960 . S
C157 H160 0.961 . S
H158 C157 0.959 . S
H159 C157 0.960 . S
H160 C157 0.961 . S
O161 Co136 1.967 . S
O161 C169 1.258 . S
O162 Co137 1.941 . S
O162 C169 1.266 . S
H163 C165 0.959 . S
H164 C165 0.961 . S
C165 C155 1.510 . S
C165 H163 0.959 . S
C165 H164 0.961 . S
C165 H166 0.960 . S
H166 C165 0.960 . S
H167 N147 0.862 . S
O168 Co136 1.920 . S
O168 C141 1.289 . S
C169 O161 1.258 . S
C169 O162 1.266 . S
Co170 O173 1.970 . S
Co170 N187 1.989 . S
Co170 O195 1.967 . S
Co170 O202 1.920 . S
Co171 O174 1.966 . S
Co171 N180 2.022 . S
Co171 N188 1.993 . S
Co171 O196 1.941 . S
C172 O173 1.258 . S
C172 O174 1.263 . S
O173 Co170 1.970 . S
O173 C172 1.258 . S
O174 Co171 1.966 . S
O174 C172 1.263 . S
C175 O176 1.235 . S
C175 O202 1.289 . S
O176 C175 1.235 . S
C177 C179 1.400 . S
C177 N180 1.351 . S
C177 C182 1.501 . S
C178 C179 1.387 . S
C178 N181 1.341 . S
C179 C177 1.400 . S
C179 C178 1.387 . S
N180 Co171 2.022 . S
N180 C177 1.351 . S
N180 N181 1.365 . S
N181 C178 1.341 . S
N181 N180 1.365 . S
N181 H201 0.862 . S
C182 C177 1.501 . S
C182 H183 0.961 . S
C182 H184 0.961 . S
C182 H185 0.960 . S
H183 C182 0.961 . S
H184 C182 0.961 . S
H185 C182 0.960 . S
C186 N187 1.342 . S
C186 C190 1.401 . S
C186 C191 1.499 . S
N187 Co170 1.989 . S
N187 C186 1.342 . S
N187 N188 1.388 . S
N188 Co171 1.993 . S
N188 N187 1.388 . S
N188 C189 1.346 . S
C189 N188 1.346 . S
C189 C190 1.396 . S
C189 C199 1.510 . S
C190 C186 1.401 . S
C190 C189 1.396 . S
C191 C186 1.499 . S
C191 H192 0.959 . S
C191 H193 0.960 . S
C191 H194 0.961 . S
H192 C191 0.959 . S
H193 C191 0.960 . S
H194 C191 0.961 . S
O195 Co170 1.967 . S
O195 C203 1.258 . S
O196 Co171 1.941 . S
O196 C203 1.266 . S
H197 C199 0.959 . S
H198 C199 0.961 . S
C199 C189 1.510 . S
C199 H197 0.959 . S
C199 H198 0.961 . S
C199 H200 0.960 . S
H200 C199 0.960 . S
H201 N181 0.862 . S
O202 Co170 1.920 . S
O202 C175 1.289 . S
C203 O195 1.258 . S
C203 O196 1.266 . S
Co204 O207 1.970 . S
Co204 N221 1.989 . S
Co204 O229 1.967 . S
Co204 O236 1.920 . S
Co205 O208 1.966 . S
Co205 N214 2.022 . S
Co205 N222 1.993 . S
Co205 O230 1.941 . S
C206 O207 1.258 . S
C206 O208 1.263 . S
O207 Co204 1.970 . S
O207 C206 1.258 . S
O208 Co205 1.966 . S
O208 C206 1.263 . S
C209 O210 1.235 . S
C209 O236 1.289 . S
O210 C209 1.235 . S
C211 C213 1.400 . S
C211 N214 1.351 . S
C211 C216 1.501 . S
C212 C213 1.387 . S
C212 N215 1.341 . S
C213 C211 1.400 . S
C213 C212 1.387 . S
N214 Co205 2.022 . S
N214 C211 1.351 . S
N214 N215 1.365 . S
N215 C212 1.341 . S
N215 N214 1.365 . S
N215 H235 0.862 . S
C216 C211 1.501 . S
C216 H217 0.961 . S
C216 H218 0.961 . S
C216 H219 0.960 . S
H217 C216 0.961 . S
H218 C216 0.961 . S
H219 C216 0.960 . S
C220 N221 1.342 . S
C220 C224 1.401 . S
C220 C225 1.499 . S
N221 Co204 1.989 . S
N221 C220 1.342 . S
N221 N222 1.388 . S
N222 Co205 1.993 . S
N222 N221 1.388 . S
N222 C223 1.346 . S
C223 N222 1.346 . S
C223 C224 1.396 . S
C223 C233 1.510 . S
C224 C220 1.401 . S
C224 C223 1.396 . S
C225 C220 1.499 . S
C225 H226 0.959 . S
C225 H227 0.960 . S
C225 H228 0.961 . S
H226 C225 0.959 . S
H227 C225 0.960 . S
H228 C225 0.961 . S
O229 Co204 1.967 . S
O229 C237 1.258 . S
O230 Co205 1.941 . S
O230 C237 1.266 . S
H231 C233 0.959 . S
H232 C233 0.961 . S
C233 C223 1.510 . S
C233 H231 0.959 . S
C233 H232 0.961 . S
C233 H234 0.960 . S
H234 C233 0.960 . S
H235 N215 0.862 . S
O236 Co204 1.920 . S
O236 C209 1.289 . S
C237 O229 1.258 . S
C237 O230 1.266 . S
Co238 O241 1.970 . S
Co238 N255 1.989 . S
Co238 O263 1.967 . S
Co238 O270 1.920 . S
Co239 O242 1.966 . S
Co239 N248 2.022 . S
Co239 N256 1.993 . S
Co239 O264 1.941 . S
C240 O241 1.258 . S
C240 O242 1.263 . S
O241 Co238 1.970 . S
O241 C240 1.258 . S
O242 Co239 1.966 . S
O242 C240 1.263 . S
C243 O244 1.235 . S
C243 O270 1.289 . S
O244 C243 1.235 . S
C245 C247 1.400 . S
C245 N248 1.351 . S
C245 C250 1.501 . S
C246 C247 1.387 . S
C246 N249 1.341 . S
C247 C245 1.400 . S
C247 C246 1.387 . S
N248 Co239 2.022 . S
N248 C245 1.351 . S
N248 N249 1.365 . S
N249 C246 1.341 . S
N249 N248 1.365 . S
N249 H269 0.862 . S
C250 C245 1.501 . S
C250 H251 0.961 . S
C250 H252 0.961 . S
C250 H253 0.960 . S
H251 C250 0.961 . S
H252 C250 0.961 . S
H253 C250 0.960 . S
C254 N255 1.342 . S
C254 C258 1.401 . S
C254 C259 1.499 . S
N255 Co238 1.989 . S
N255 C254 1.342 . S
N255 N256 1.388 . S
N256 Co239 1.993 . S
N256 N255 1.388 . S
N256 C257 1.346 . S
C257 N256 1.346 . S
C257 C258 1.396 . S
C257 C267 1.510 . S
C258 C254 1.401 . S
C258 C257 1.396 . S
C259 C254 1.499 . S
C259 H260 0.959 . S
C259 H261 0.960 . S
C259 H262 0.961 . S
H260 C259 0.959 . S
H261 C259 0.960 . S
H262 C259 0.961 . S
O263 Co238 1.967 . S
O263 C271 1.258 . S
O264 Co239 1.941 . S
O264 C271 1.266 . S
H265 C267 0.959 . S
H266 C267 0.961 . S
C267 C257 1.510 . S
C267 H265 0.959 . S
C267 H266 0.961 . S
C267 H268 0.960 . S
H268 C267 0.960 . S
H269 N249 0.862 . S
O270 Co238 1.920 . S
O270 C243 1.289 . S
C271 O263 1.258 . S
C271 O264 1.266 . S
Co272 O275 1.970 . S
Co272 N289 1.989 . S
Co272 O297 1.967 . S
Co272 O304 1.920 . S
Co273 O276 1.966 . S
Co273 N282 2.022 . S
Co273 N290 1.993 . S
Co273 O298 1.941 . S
C274 O275 1.258 . S
C274 O276 1.263 . S
O275 Co272 1.970 . S
O275 C274 1.258 . S
O276 Co273 1.966 . S
O276 C274 1.263 . S
C277 O278 1.235 . S
C277 O304 1.289 . S
O278 C277 1.235 . S
C279 C281 1.400 . S
C279 N282 1.351 . S
C279 C284 1.501 . S
C280 C281 1.387 . S
C280 N283 1.341 . S
C281 C279 1.400 . S
C281 C280 1.387 . S
N282 Co273 2.022 . S
N282 C279 1.351 . S
N282 N283 1.365 . S
N283 C280 1.341 . S
N283 N282 1.365 . S
N283 H303 0.862 . S
C284 C279 1.501 . S
C284 H285 0.961 . S
C284 H286 0.961 . S
C284 H287 0.960 . S
H285 C284 0.961 . S
H286 C284 0.961 . S
H287 C284 0.960 . S
C288 N289 1.342 . S
C288 C292 1.401 . S
C288 C293 1.499 . S
N289 Co272 1.989 . S
N289 C288 1.342 . S
N289 N290 1.388 . S
N290 Co273 1.993 . S
N290 N289 1.388 . S
N290 C291 1.346 . S
C291 N290 1.346 . S
C291 C292 1.396 . S
C291 C301 1.510 . S
C292 C288 1.401 . S
C292 C291 1.396 . S
C293 C288 1.499 . S
C293 H294 0.959 . S
C293 H295 0.960 . S
C293 H296 0.961 . S
H294 C293 0.959 . S
H295 C293 0.960 . S
H296 C293 0.961 . S
O297 Co272 1.967 . S
O297 C305 1.258 . S
O298 Co273 1.941 . S
O298 C305 1.266 . S
H299 C301 0.959 . S
H300 C301 0.961 . S
C301 C291 1.510 . S
C301 H299 0.959 . S
C301 H300 0.961 . S
C301 H302 0.960 . S
H302 C301 0.960 . S
H303 N283 0.862 . S
O304 Co272 1.920 . S
O304 C277 1.289 . S
C305 O297 1.258 . S
C305 O298 1.266 . S
Co306 O309 1.970 . S
Co306 N323 1.989 . S
Co306 O331 1.967 . S
Co306 O338 1.920 . S
Co307 O310 1.966 . S
Co307 N316 2.022 . S
Co307 N324 1.993 . S
Co307 O332 1.941 . S
C308 O309 1.258 . S
C308 O310 1.263 . S
O309 Co306 1.970 . S
O309 C308 1.258 . S
O310 Co307 1.966 . S
O310 C308 1.263 . S
C311 O312 1.235 . S
C311 O338 1.289 . S
O312 C311 1.235 . S
C313 C315 1.400 . S
C313 N316 1.351 . S
C313 C318 1.501 . S
C314 C315 1.387 . S
C314 N317 1.341 . S
C315 C313 1.400 . S
C315 C314 1.387 . S
N316 Co307 2.022 . S
N316 C313 1.351 . S
N316 N317 1.365 . S
N317 C314 1.341 . S
N317 N316 1.365 . S
N317 H337 0.862 . S
C318 C313 1.501 . S
C318 H319 0.961 . S
C318 H320 0.961 . S
C318 H321 0.960 . S
H319 C318 0.961 . S
H320 C318 0.961 . S
H321 C318 0.960 . S
C322 N323 1.342 . S
C322 C326 1.401 . S
C322 C327 1.499 . S
N323 Co306 1.989 . S
N323 C322 1.342 . S
N323 N324 1.388 . S
N324 Co307 1.993 . S
N324 N323 1.388 . S
N324 C325 1.346 . S
C325 N324 1.346 . S
C325 C326 1.396 . S
C325 C335 1.510 . S
C326 C322 1.401 . S
C326 C325 1.396 . S
C327 C322 1.499 . S
C327 H328 0.959 . S
C327 H329 0.960 . S
C327 H330 0.961 . S
H328 C327 0.959 . S
H329 C327 0.960 . S
H330 C327 0.961 . S
O331 Co306 1.967 . S
O331 C339 1.258 . S
O332 Co307 1.941 . S
O332 C339 1.266 . S
H333 C335 0.959 . S
H334 C335 0.961 . S
C335 C325 1.510 . S
C335 H333 0.959 . S
C335 H334 0.961 . S
C335 H336 0.960 . S
H336 C335 0.960 . S
H337 N317 0.862 . S
O338 Co306 1.920 . S
O338 C311 1.289 . S
C339 O331 1.258 . S
C339 O332 1.266 . S
Co340 O343 1.970 . S
Co340 N357 1.989 . S
Co340 O365 1.967 . S
Co340 O372 1.920 . S
Co341 O344 1.966 . S
Co341 N350 2.022 . S
Co341 N358 1.993 . S
Co341 O366 1.941 . S
C342 O343 1.258 . S
C342 O344 1.263 . S
O343 Co340 1.970 . S
O343 C342 1.258 . S
O344 Co341 1.966 . S
O344 C342 1.263 . S
C345 O346 1.235 . S
C345 O372 1.289 . S
O346 C345 1.235 . S
C347 C349 1.400 . S
C347 N350 1.351 . S
C347 C352 1.501 . S
C348 C349 1.387 . S
C348 N351 1.341 . S
C349 C347 1.400 . S
C349 C348 1.387 . S
N350 Co341 2.022 . S
N350 C347 1.351 . S
N350 N351 1.365 . S
N351 C348 1.341 . S
N351 N350 1.365 . S
N351 H371 0.862 . S
C352 C347 1.501 . S
C352 H353 0.961 . S
C352 H354 0.961 . S
C352 H355 0.960 . S
H353 C352 0.961 . S
H354 C352 0.961 . S
H355 C352 0.960 . S
C356 N357 1.342 . S
C356 C360 1.401 . S
C356 C361 1.499 . S
N357 Co340 1.989 . S
N357 C356 1.342 . S
N357 N358 1.388 . S
N358 Co341 1.993 . S
N358 N357 1.388 . S
N358 C359 1.346 . S
C359 N358 1.346 . S
C359 C360 1.396 . S
C359 C369 1.510 . S
C360 C356 1.401 . S
C360 C359 1.396 . S
C361 C356 1.499 . S
C361 H362 0.959 . S
C361 H363 0.960 . S
C361 H364 0.961 . S
H362 C361 0.959 . S
H363 C361 0.960 . S
H364 C361 0.961 . S
O365 Co340 1.967 . S
O365 C373 1.258 . S
O366 Co341 1.941 . S
O366 C373 1.266 . S
H367 C369 0.959 . S
H368 C369 0.961 . S
C369 C359 1.510 . S
C369 H367 0.959 . S
C369 H368 0.961 . S
C369 H370 0.960 . S
H370 C369 0.960 . S
H371 N351 0.862 . S
O372 Co340 1.920 . S
O372 C345 1.289 . S
C373 O365 1.258 . S
C373 O366 1.266 . S
Co374 O377 1.970 . S
Co374 N391 1.989 . S
Co374 O399 1.967 . S
Co374 O406 1.920 . S
Co375 O378 1.966 . S
Co375 N384 2.022 . S
Co375 N392 1.993 . S
Co375 O400 1.941 . S
C376 O377 1.258 . S
C376 O378 1.263 . S
O377 Co374 1.970 . S
O377 C376 1.258 . S
O378 Co375 1.966 . S
O378 C376 1.263 . S
C379 O380 1.235 . S
C379 O406 1.289 . S
O380 C379 1.235 . S
C381 C383 1.400 . S
C381 N384 1.351 . S
C381 C386 1.501 . S
C382 C383 1.387 . S
C382 N385 1.341 . S
C383 C381 1.400 . S
C383 C382 1.387 . S
N384 Co375 2.022 . S
N384 C381 1.351 . S
N384 N385 1.365 . S
N385 C382 1.341 . S
N385 N384 1.365 . S
N385 H405 0.862 . S
C386 C381 1.501 . S
C386 H387 0.961 . S
C386 H388 0.961 . S
C386 H389 0.960 . S
H387 C386 0.961 . S
H388 C386 0.961 . S
H389 C386 0.960 . S
C390 N391 1.342 . S
C390 C394 1.401 . S
C390 C395 1.499 . S
N391 Co374 1.989 . S
N391 C390 1.342 . S
N391 N392 1.388 . S
N392 Co375 1.993 . S
N392 N391 1.388 . S
N392 C393 1.346 . S
C393 N392 1.346 . S
C393 C394 1.396 . S
C393 C403 1.510 . S
C394 C390 1.401 . S
C394 C393 1.396 . S
C395 C390 1.499 . S
C395 H396 0.959 . S
C395 H397 0.960 . S
C395 H398 0.961 . S
H396 C395 0.959 . S
H397 C395 0.960 . S
H398 C395 0.961 . S
O399 Co374 1.967 . S
O399 C407 1.258 . S
O400 Co375 1.941 . S
O400 C407 1.266 . S
H401 C403 0.959 . S
H402 C403 0.961 . S
C403 C393 1.510 . S
C403 H401 0.959 . S
C403 H402 0.961 . S
C403 H404 0.960 . S
H404 C403 0.960 . S
H405 N385 0.862 . S
O406 Co374 1.920 . S
O406 C379 1.289 . S
C407 O399 1.258 . S
C407 O400 1.266 . S
Co408 O411 1.970 . S
Co408 N425 1.989 . S
Co408 O433 1.967 . S
Co408 O440 1.920 . S
Co409 O412 1.966 . S
Co409 N418 2.022 . S
Co409 N426 1.993 . S
Co409 O434 1.941 . S
C410 O411 1.258 . S
C410 O412 1.263 . S
O411 Co408 1.970 . S
O411 C410 1.258 . S
O412 Co409 1.966 . S
O412 C410 1.263 . S
C413 O414 1.235 . S
C413 O440 1.289 . S
O414 C413 1.235 . S
C415 C417 1.400 . S
C415 N418 1.351 . S
C415 C420 1.501 . S
C416 C417 1.387 . S
C416 N419 1.341 . S
C417 C415 1.400 . S
C417 C416 1.387 . S
N418 Co409 2.022 . S
N418 C415 1.351 . S
N418 N419 1.365 . S
N419 C416 1.341 . S
N419 N418 1.365 . S
N419 H439 0.862 . S
C420 C415 1.501 . S
C420 H421 0.961 . S
C420 H422 0.961 . S
C420 H423 0.960 . S
H421 C420 0.961 . S
H422 C420 0.961 . S
H423 C420 0.960 . S
C424 N425 1.342 . S
C424 C428 1.401 . S
C424 C429 1.499 . S
N425 Co408 1.989 . S
N425 C424 1.342 . S
N425 N426 1.388 . S
N426 Co409 1.993 . S
N426 N425 1.388 . S
N426 C427 1.346 . S
C427 N426 1.346 . S
C427 C428 1.396 . S
C427 C437 1.510 . S
C428 C424 1.401 . S
C428 C427 1.396 . S
C429 C424 1.499 . S
C429 H430 0.959 . S
C429 H431 0.960 . S
C429 H432 0.961 . S
H430 C429 0.959 . S
H431 C429 0.960 . S
H432 C429 0.961 . S
O433 Co408 1.967 . S
O433 C441 1.258 . S
O434 Co409 1.941 . S
O434 C441 1.266 . S
H435 C437 0.959 . S
H436 C437 0.961 . S
C437 C427 1.510 . S
C437 H435 0.959 . S
C437 H436 0.961 . S
C437 H438 0.960 . S
H438 C437 0.960 . S
H439 N419 0.862 . S
O440 Co408 1.920 . S
O440 C413 1.289 . S
C441 O433 1.258 . S
C441 O434 1.266 . S
Co442 O445 1.970 . S
Co442 N459 1.989 . S
Co442 O467 1.967 . S
Co442 O474 1.920 . S
Co443 O446 1.966 . S
Co443 N452 2.022 . S
Co443 N460 1.993 . S
Co443 O468 1.941 . S
C444 O445 1.258 . S
C444 O446 1.263 . S
O445 Co442 1.970 . S
O445 C444 1.258 . S
O446 Co443 1.966 . S
O446 C444 1.263 . S
C447 O448 1.235 . S
C447 O474 1.289 . S
O448 C447 1.235 . S
C449 C451 1.400 . S
C449 N452 1.351 . S
C449 C454 1.501 . S
C450 C451 1.387 . S
C450 N453 1.341 . S
C451 C449 1.400 . S
C451 C450 1.387 . S
N452 Co443 2.022 . S
N452 C449 1.351 . S
N452 N453 1.365 . S
N453 C450 1.341 . S
N453 N452 1.365 . S
N453 H473 0.862 . S
C454 C449 1.501 . S
C454 H455 0.961 . S
C454 H456 0.961 . S
C454 H457 0.960 . S
H455 C454 0.961 . S
H456 C454 0.961 . S
H457 C454 0.960 . S
C458 N459 1.342 . S
C458 C462 1.401 . S
C458 C463 1.499 . S
N459 Co442 1.989 . S
N459 C458 1.342 . S
N459 N460 1.388 . S
N460 Co443 1.993 . S
N460 N459 1.388 . S
N460 C461 1.346 . S
C461 N460 1.346 . S
C461 C462 1.396 . S
C461 C471 1.510 . S
C462 C458 1.401 . S
C462 C461 1.396 . S
C463 C458 1.499 . S
C463 H464 0.959 . S
C463 H465 0.960 . S
C463 H466 0.961 . S
H464 C463 0.959 . S
H465 C463 0.960 . S
H466 C463 0.961 . S
O467 Co442 1.967 . S
O467 C475 1.258 . S
O468 Co443 1.941 . S
O468 C475 1.266 . S
H469 C471 0.959 . S
H470 C471 0.961 . S
C471 C461 1.510 . S
C471 H469 0.959 . S
C471 H470 0.961 . S
C471 H472 0.960 . S
H472 C471 0.960 . S
H473 N453 0.862 . S
O474 Co442 1.920 . S
O474 C447 1.289 . S
C475 O467 1.258 . S
C475 O468 1.266 . S
Co476 O479 1.970 . S
Co476 N493 1.989 . S
Co476 O501 1.967 . S
Co476 O508 1.920 . S
Co477 O480 1.966 . S
Co477 N486 2.022 . S
Co477 N494 1.993 . S
Co477 O502 1.941 . S
C478 O479 1.258 . S
C478 O480 1.263 . S
O479 Co476 1.970 . S
O479 C478 1.258 . S
O480 Co477 1.966 . S
O480 C478 1.263 . S
C481 O482 1.235 . S
C481 O508 1.289 . S
O482 C481 1.235 . S
C483 C485 1.400 . S
C483 N486 1.351 . S
C483 C488 1.501 . S
C484 C485 1.387 . S
C484 N487 1.341 . S
C485 C483 1.400 . S
C485 C484 1.387 . S
N486 Co477 2.022 . S
N486 C483 1.351 . S
N486 N487 1.365 . S
N487 C484 1.341 . S
N487 N486 1.365 . S
N487 H507 0.862 . S
C488 C483 1.501 . S
C488 H489 0.961 . S
C488 H490 0.961 . S
C488 H491 0.960 . S
H489 C488 0.961 . S
H490 C488 0.961 . S
H491 C488 0.960 . S
C492 N493 1.342 . S
C492 C496 1.401 . S
C492 C497 1.499 . S
N493 Co476 1.989 . S
N493 C492 1.342 . S
N493 N494 1.388 . S
N494 Co477 1.993 . S
N494 N493 1.388 . S
N494 C495 1.346 . S
C495 N494 1.346 . S
C495 C496 1.396 . S
C495 C505 1.510 . S
C496 C492 1.401 . S
C496 C495 1.396 . S
C497 C492 1.499 . S
C497 H498 0.959 . S
C497 H499 0.960 . S
C497 H500 0.961 . S
H498 C497 0.959 . S
H499 C497 0.960 . S
H500 C497 0.961 . S
O501 Co476 1.967 . S
O501 C509 1.258 . S
O502 Co477 1.941 . S
O502 C509 1.266 . S
H503 C505 0.959 . S
H504 C505 0.961 . S
C505 C495 1.510 . S
C505 H503 0.959 . S
C505 H504 0.961 . S
C505 H506 0.960 . S
H506 C505 0.960 . S
H507 N487 0.862 . S
O508 Co476 1.920 . S
O508 C481 1.289 . S
C509 O501 1.258 . S
C509 O502 1.266 . S
Co510 O513 1.970 . S
Co510 N527 1.989 . S
Co510 O535 1.967 . S
Co510 O542 1.920 . S
Co511 O514 1.966 . S
Co511 N520 2.022 . S
Co511 N528 1.993 . S
Co511 O536 1.941 . S
C512 O513 1.258 . S
C512 O514 1.263 . S
O513 Co510 1.970 . S
O513 C512 1.258 . S
O514 Co511 1.966 . S
O514 C512 1.263 . S
C515 O516 1.235 . S
C515 O542 1.289 . S
O516 C515 1.235 . S
C517 C519 1.400 . S
C517 N520 1.351 . S
C517 C522 1.501 . S
C518 C519 1.387 . S
C518 N521 1.341 . S
C519 C517 1.400 . S
C519 C518 1.387 . S
N520 Co511 2.022 . S
N520 C517 1.351 . S
N520 N521 1.365 . S
N521 C518 1.341 . S
N521 N520 1.365 . S
N521 H541 0.862 . S
C522 C517 1.501 . S
C522 H523 0.961 . S
C522 H524 0.961 . S
C522 H525 0.960 . S
H523 C522 0.961 . S
H524 C522 0.961 . S
H525 C522 0.960 . S
C526 N527 1.342 . S
C526 C530 1.401 . S
C526 C531 1.499 . S
N527 Co510 1.989 . S
N527 C526 1.342 . S
N527 N528 1.388 . S
N528 Co511 1.993 . S
N528 N527 1.388 . S
N528 C529 1.346 . S
C529 N528 1.346 . S
C529 C530 1.396 . S
C529 C539 1.510 . S
C530 C526 1.401 . S
C530 C529 1.396 . S
C531 C526 1.499 . S
C531 H532 0.959 . S
C531 H533 0.960 . S
C531 H534 0.961 . S
H532 C531 0.959 . S
H533 C531 0.960 . S
H534 C531 0.961 . S
O535 Co510 1.967 . S
O535 C543 1.258 . S
O536 Co511 1.941 . S
O536 C543 1.266 . S
H537 C539 0.959 . S
H538 C539 0.961 . S
C539 C529 1.510 . S
C539 H537 0.959 . S
C539 H538 0.961 . S
C539 H540 0.960 . S
H540 C539 0.960 . S
H541 N521 0.862 . S
O542 Co510 1.920 . S
O542 C515 1.289 . S
C543 O535 1.258 . S
C543 O536 1.266 . S
Co544 O547 1.970 . S
Co544 N561 1.989 . S
Co544 O569 1.967 . S
Co544 O576 1.920 . S
Co545 O548 1.966 . S
Co545 N554 2.022 . S
Co545 N562 1.993 . S
Co545 O570 1.941 . S
C546 O547 1.258 . S
C546 O548 1.263 . S
O547 Co544 1.970 . S
O547 C546 1.258 . S
O548 Co545 1.966 . S
O548 C546 1.263 . S
C549 O550 1.235 . S
C549 O576 1.289 . S
O550 C549 1.235 . S
C551 C553 1.400 . S
C551 N554 1.351 . S
C551 C556 1.501 . S
C552 C553 1.387 . S
C552 N555 1.341 . S
C553 C551 1.400 . S
C553 C552 1.387 . S
N554 Co545 2.022 . S
N554 C551 1.351 . S
N554 N555 1.365 . S
N555 C552 1.341 . S
N555 N554 1.365 . S
N555 H575 0.862 . S
C556 C551 1.501 . S
C556 H557 0.961 . S
C556 H558 0.961 . S
C556 H559 0.960 . S
H557 C556 0.961 . S
H558 C556 0.961 . S
H559 C556 0.960 . S
C560 N561 1.342 . S
C560 C564 1.401 . S
C560 C565 1.499 . S
N561 Co544 1.989 . S
N561 C560 1.342 . S
N561 N562 1.388 . S
N562 Co545 1.993 . S
N562 N561 1.388 . S
N562 C563 1.346 . S
C563 N562 1.346 . S
C563 C564 1.396 . S
C563 C573 1.510 . S
C564 C560 1.401 . S
C564 C563 1.396 . S
C565 C560 1.499 . S
C565 H566 0.959 . S
C565 H567 0.960 . S
C565 H568 0.961 . S
H566 C565 0.959 . S
H567 C565 0.960 . S
H568 C565 0.961 . S
O569 Co544 1.967 . S
O569 C577 1.258 . S
O570 Co545 1.941 . S
O570 C577 1.266 . S
H571 C573 0.959 . S
H572 C573 0.961 . S
C573 C563 1.510 . S
C573 H571 0.959 . S
C573 H572 0.961 . S
C573 H574 0.960 . S
H574 C573 0.960 . S
H575 N555 0.862 . S
O576 Co544 1.920 . S
O576 C549 1.289 . S
C577 O569 1.258 . S
C577 O570 1.266 . S
Co578 O581 1.970 . S
Co578 N595 1.989 . S
Co578 O603 1.967 . S
Co578 O610 1.920 . S
Co579 O582 1.966 . S
Co579 N588 2.022 . S
Co579 N596 1.993 . S
Co579 O604 1.941 . S
C580 O581 1.258 . S
C580 O582 1.263 . S
O581 Co578 1.970 . S
O581 C580 1.258 . S
O582 Co579 1.966 . S
O582 C580 1.263 . S
C583 O584 1.235 . S
C583 O610 1.289 . S
O584 C583 1.235 . S
C585 C587 1.400 . S
C585 N588 1.351 . S
C585 C590 1.501 . S
C586 C587 1.387 . S
C586 N589 1.341 . S
C587 C585 1.400 . S
C587 C586 1.387 . S
N588 Co579 2.022 . S
N588 C585 1.351 . S
N588 N589 1.365 . S
N589 C586 1.341 . S
N589 N588 1.365 . S
N589 H609 0.862 . S
C590 C585 1.501 . S
C590 H591 0.961 . S
C590 H592 0.961 . S
C590 H593 0.960 . S
H591 C590 0.961 . S
H592 C590 0.961 . S
H593 C590 0.960 . S
C594 N595 1.342 . S
C594 C598 1.401 . S
C594 C599 1.499 . S
N595 Co578 1.989 . S
N595 C594 1.342 . S
N595 N596 1.388 . S
N596 Co579 1.993 . S
N596 N595 1.388 . S
N596 C597 1.346 . S
C597 N596 1.346 . S
C597 C598 1.396 . S
C597 C607 1.510 . S
C598 C594 1.401 . S
C598 C597 1.396 . S
C599 C594 1.499 . S
C599 H600 0.959 . S
C599 H601 0.960 . S
C599 H602 0.961 . S
H600 C599 0.959 . S
H601 C599 0.960 . S
H602 C599 0.961 . S
O603 Co578 1.967 . S
O603 C611 1.258 . S
O604 Co579 1.941 . S
O604 C611 1.266 . S
H605 C607 0.959 . S
H606 C607 0.961 . S
C607 C597 1.510 . S
C607 H605 0.959 . S
C607 H606 0.961 . S
C607 H608 0.960 . S
H608 C607 0.960 . S
H609 N589 0.862 . S
O610 Co578 1.920 . S
O610 C583 1.289 . S
C611 O603 1.258 . S
C611 O604 1.266 . S
Co612 O615 1.970 . S
Co612 N629 1.989 . S
Co612 O637 1.967 . S
Co612 O644 1.920 . S
Co613 O616 1.966 . S
Co613 N622 2.022 . S
Co613 N630 1.993 . S
Co613 O638 1.941 . S
C614 O615 1.258 . S
C614 O616 1.263 . S
O615 Co612 1.970 . S
O615 C614 1.258 . S
O616 Co613 1.966 . S
O616 C614 1.263 . S
C617 O618 1.235 . S
C617 O644 1.289 . S
O618 C617 1.235 . S
C619 C621 1.400 . S
C619 N622 1.351 . S
C619 C624 1.501 . S
C620 C621 1.387 . S
C620 N623 1.341 . S
C621 C619 1.400 . S
C621 C620 1.387 . S
N622 Co613 2.022 . S
N622 C619 1.351 . S
N622 N623 1.365 . S
N623 C620 1.341 . S
N623 N622 1.365 . S
N623 H643 0.862 . S
C624 C619 1.501 . S
C624 H625 0.961 . S
C624 H626 0.961 . S
C624 H627 0.960 . S
H625 C624 0.961 . S
H626 C624 0.961 . S
H627 C624 0.960 . S
C628 N629 1.342 . S
C628 C632 1.401 . S
C628 C633 1.499 . S
N629 Co612 1.989 . S
N629 C628 1.342 . S
N629 N630 1.388 . S
N630 Co613 1.993 . S
N630 N629 1.388 . S
N630 C631 1.346 . S
C631 N630 1.346 . S
C631 C632 1.396 . S
C631 C641 1.510 . S
C632 C628 1.401 . S
C632 C631 1.396 . S
C633 C628 1.499 . S
C633 H634 0.959 . S
C633 H635 0.960 . S
C633 H636 0.961 . S
H634 C633 0.959 . S
H635 C633 0.960 . S
H636 C633 0.961 . S
O637 Co612 1.967 . S
O637 C645 1.258 . S
O638 Co613 1.941 . S
O638 C645 1.266 . S
H639 C641 0.959 . S
H640 C641 0.961 . S
C641 C631 1.510 . S
C641 H639 0.959 . S
C641 H640 0.961 . S
C641 H642 0.960 . S
H642 C641 0.960 . S
H643 N623 0.862 . S
O644 Co612 1.920 . S
O644 C617 1.289 . S
C645 O637 1.258 . S
C645 O638 1.266 . S
Co646 O649 1.970 . S
Co646 N663 1.989 . S
Co646 O671 1.967 . S
Co646 O678 1.920 . S
Co647 O650 1.966 . S
Co647 N656 2.022 . S
Co647 N664 1.993 . S
Co647 O672 1.941 . S
C648 O649 1.258 . S
C648 O650 1.263 . S
O649 Co646 1.970 . S
O649 C648 1.258 . S
O650 Co647 1.966 . S
O650 C648 1.263 . S
C651 O652 1.235 . S
C651 O678 1.289 . S
O652 C651 1.235 . S
C653 C655 1.400 . S
C653 N656 1.351 . S
C653 C658 1.501 . S
C654 C655 1.387 . S
C654 N657 1.341 . S
C655 C653 1.400 . S
C655 C654 1.387 . S
N656 Co647 2.022 . S
N656 C653 1.351 . S
N656 N657 1.365 . S
N657 C654 1.341 . S
N657 N656 1.365 . S
N657 H677 0.862 . S
C658 C653 1.501 . S
C658 H659 0.961 . S
C658 H660 0.961 . S
C658 H661 0.960 . S
H659 C658 0.961 . S
H660 C658 0.961 . S
H661 C658 0.960 . S
C662 N663 1.342 . S
C662 C666 1.401 . S
C662 C667 1.499 . S
N663 Co646 1.989 . S
N663 C662 1.342 . S
N663 N664 1.388 . S
N664 Co647 1.993 . S
N664 N663 1.388 . S
N664 C665 1.346 . S
C665 N664 1.346 . S
C665 C666 1.396 . S
C665 C675 1.510 . S
C666 C662 1.401 . S
C666 C665 1.396 . S
C667 C662 1.499 . S
C667 H668 0.959 . S
C667 H669 0.960 . S
C667 H670 0.961 . S
H668 C667 0.959 . S
H669 C667 0.960 . S
H670 C667 0.961 . S
O671 Co646 1.967 . S
O671 C679 1.258 . S
O672 Co647 1.941 . S
O672 C679 1.266 . S
H673 C675 0.959 . S
H674 C675 0.961 . S
C675 C665 1.510 . S
C675 H673 0.959 . S
C675 H674 0.961 . S
C675 H676 0.960 . S
H676 C675 0.960 . S
H677 N657 0.862 . S
O678 Co646 1.920 . S
O678 C651 1.289 . S
C679 O671 1.258 . S
C679 O672 1.266 . S
Co680 O683 1.970 . S
Co680 N697 1.989 . S
Co680 O705 1.967 . S
Co680 O712 1.920 . S
Co681 O684 1.966 . S
Co681 N690 2.022 . S
Co681 N698 1.993 . S
Co681 O706 1.941 . S
C682 O683 1.258 . S
C682 O684 1.263 . S
O683 Co680 1.970 . S
O683 C682 1.258 . S
O684 Co681 1.966 . S
O684 C682 1.263 . S
C685 O686 1.235 . S
C685 O712 1.289 . S
O686 C685 1.235 . S
C687 C689 1.400 . S
C687 N690 1.351 . S
C687 C692 1.501 . S
C688 C689 1.387 . S
C688 N691 1.341 . S
C689 C687 1.400 . S
C689 C688 1.387 . S
N690 Co681 2.022 . S
N690 C687 1.351 . S
N690 N691 1.365 . S
N691 C688 1.341 . S
N691 N690 1.365 . S
N691 H711 0.862 . S
C692 C687 1.501 . S
C692 H693 0.961 . S
C692 H694 0.961 . S
C692 H695 0.960 . S
H693 C692 0.961 . S
H694 C692 0.961 . S
H695 C692 0.960 . S
C696 N697 1.342 . S
C696 C700 1.401 . S
C696 C701 1.499 . S
N697 Co680 1.989 . S
N697 C696 1.342 . S
N697 N698 1.388 . S
N698 Co681 1.993 . S
N698 N697 1.388 . S
N698 C699 1.346 . S
C699 N698 1.346 . S
C699 C700 1.396 . S
C699 C709 1.510 . S
C700 C696 1.401 . S
C700 C699 1.396 . S
C701 C696 1.499 . S
C701 H702 0.959 . S
C701 H703 0.960 . S
C701 H704 0.961 . S
H702 C701 0.959 . S
H703 C701 0.960 . S
H704 C701 0.961 . S
O705 Co680 1.967 . S
O705 C713 1.258 . S
O706 Co681 1.941 . S
O706 C713 1.266 . S
H707 C709 0.959 . S
H708 C709 0.961 . S
C709 C699 1.510 . S
C709 H707 0.959 . S
C709 H708 0.961 . S
C709 H710 0.960 . S
H710 C709 0.960 . S
H711 N691 0.862 . S
O712 Co680 1.920 . S
O712 C685 1.289 . S
C713 O705 1.258 . S
C713 O706 1.266 . S
Co714 O717 1.970 . S
Co714 N731 1.989 . S
Co714 O739 1.967 . S
Co714 O746 1.920 . S
Co715 O718 1.966 . S
Co715 N724 2.022 . S
Co715 N732 1.993 . S
Co715 O740 1.941 . S
C716 O717 1.258 . S
C716 O718 1.263 . S
O717 Co714 1.970 . S
O717 C716 1.258 . S
O718 Co715 1.966 . S
O718 C716 1.263 . S
C719 O720 1.235 . S
C719 O746 1.289 . S
O720 C719 1.235 . S
C721 C723 1.400 . S
C721 N724 1.351 . S
C721 C726 1.501 . S
C722 C723 1.387 . S
C722 N725 1.341 . S
C723 C721 1.400 . S
C723 C722 1.387 . S
N724 Co715 2.022 . S
N724 C721 1.351 . S
N724 N725 1.365 . S
N725 C722 1.341 . S
N725 N724 1.365 . S
N725 H745 0.862 . S
C726 C721 1.501 . S
C726 H727 0.961 . S
C726 H728 0.961 . S
C726 H729 0.960 . S
H727 C726 0.961 . S
H728 C726 0.961 . S
H729 C726 0.960 . S
C730 N731 1.342 . S
C730 C734 1.401 . S
C730 C735 1.499 . S
N731 Co714 1.989 . S
N731 C730 1.342 . S
N731 N732 1.388 . S
N732 Co715 1.993 . S
N732 N731 1.388 . S
N732 C733 1.346 . S
C733 N732 1.346 . S
C733 C734 1.396 . S
C733 C743 1.510 . S
C734 C730 1.401 . S
C734 C733 1.396 . S
C735 C730 1.499 . S
C735 H736 0.959 . S
C735 H737 0.960 . S
C735 H738 0.961 . S
H736 C735 0.959 . S
H737 C735 0.960 . S
H738 C735 0.961 . S
O739 Co714 1.967 . S
O739 C747 1.258 . S
O740 Co715 1.941 . S
O740 C747 1.266 . S
H741 C743 0.959 . S
H742 C743 0.961 . S
C743 C733 1.510 . S
C743 H741 0.959 . S
C743 H742 0.961 . S
C743 H744 0.960 . S
H744 C743 0.960 . S
H745 N725 0.862 . S
O746 Co714 1.920 . S
O746 C719 1.289 . S
C747 O739 1.258 . S
C747 O740 1.266 . S
Co748 O751 1.970 . S
Co748 N765 1.989 . S
Co748 O773 1.967 . S
Co748 O780 1.920 . S
Co749 O752 1.966 . S
Co749 N758 2.022 . S
Co749 N766 1.993 . S
Co749 O774 1.941 . S
C750 O751 1.258 . S
C750 O752 1.263 . S
O751 Co748 1.970 . S
O751 C750 1.258 . S
O752 Co749 1.966 . S
O752 C750 1.263 . S
C753 O754 1.235 . S
C753 O780 1.289 . S
O754 C753 1.235 . S
C755 C757 1.400 . S
C755 N758 1.351 . S
C755 C760 1.501 . S
C756 C757 1.387 . S
C756 N759 1.341 . S
C757 C755 1.400 . S
C757 C756 1.387 . S
N758 Co749 2.022 . S
N758 C755 1.351 . S
N758 N759 1.365 . S
N759 C756 1.341 . S
N759 N758 1.365 . S
N759 H779 0.862 . S
C760 C755 1.501 . S
C760 H761 0.961 . S
C760 H762 0.961 . S
C760 H763 0.960 . S
H761 C760 0.961 . S
H762 C760 0.961 . S
H763 C760 0.960 . S
C764 N765 1.342 . S
C764 C768 1.401 . S
C764 C769 1.499 . S
N765 Co748 1.989 . S
N765 C764 1.342 . S
N765 N766 1.388 . S
N766 Co749 1.993 . S
N766 N765 1.388 . S
N766 C767 1.346 . S
C767 N766 1.346 . S
C767 C768 1.396 . S
C767 C777 1.510 . S
C768 C764 1.401 . S
C768 C767 1.396 . S
C769 C764 1.499 . S
C769 H770 0.959 . S
C769 H771 0.960 . S
C769 H772 0.961 . S
H770 C769 0.959 . S
H771 C769 0.960 . S
H772 C769 0.961 . S
O773 Co748 1.967 . S
O773 C781 1.258 . S
O774 Co749 1.941 . S
O774 C781 1.266 . S
H775 C777 0.959 . S
H776 C777 0.961 . S
C777 C767 1.510 . S
C777 H775 0.959 . S
C777 H776 0.961 . S
C777 H778 0.960 . S
H778 C777 0.960 . S
H779 N759 0.862 . S
O780 Co748 1.920 . S
O780 C753 1.289 . S
C781 O773 1.258 . S
C781 O774 1.266 . S
Co782 O785 1.970 . S
Co782 N799 1.989 . S
Co782 O807 1.967 . S
Co782 O814 1.920 . S
Co783 O786 1.966 . S
Co783 N792 2.022 . S
Co783 N800 1.993 . S
Co783 O808 1.941 . S
C784 O785 1.258 . S
C784 O786 1.263 . S
O785 Co782 1.970 . S
O785 C784 1.258 . S
O786 Co783 1.966 . S
O786 C784 1.263 . S
C787 O788 1.235 . S
C787 O814 1.289 . S
O788 C787 1.235 . S
C789 C791 1.400 . S
C789 N792 1.351 . S
C789 C794 1.501 . S
C790 C791 1.387 . S
C790 N793 1.341 . S
C791 C789 1.400 . S
C791 C790 1.387 . S
N792 Co783 2.022 . S
N792 C789 1.351 . S
N792 N793 1.365 . S
N793 C790 1.341 . S
N793 N792 1.365 . S
N793 H813 0.862 . S
C794 C789 1.501 . S
C794 H795 0.961 . S
C794 H796 0.961 . S
C794 H797 0.960 . S
H795 C794 0.961 . S
H796 C794 0.961 . S
H797 C794 0.960 . S
C798 N799 1.342 . S
C798 C802 1.401 . S
C798 C803 1.499 . S
N799 Co782 1.989 . S
N799 C798 1.342 . S
N799 N800 1.388 . S
N800 Co783 1.993 . S
N800 N799 1.388 . S
N800 C801 1.346 . S
C801 N800 1.346 . S
C801 C802 1.396 . S
C801 C811 1.510 . S
C802 C798 1.401 . S
C802 C801 1.396 . S
C803 C798 1.499 . S
C803 H804 0.959 . S
C803 H805 0.960 . S
C803 H806 0.961 . S
H804 C803 0.959 . S
H805 C803 0.960 . S
H806 C803 0.961 . S
O807 Co782 1.967 . S
O807 C815 1.258 . S
O808 Co783 1.941 . S
O808 C815 1.266 . S
H809 C811 0.959 . S
H810 C811 0.961 . S
C811 C801 1.510 . S
C811 H809 0.959 . S
C811 H810 0.961 . S
C811 H812 0.960 . S
H812 C811 0.960 . S
H813 N793 0.862 . S
O814 Co782 1.920 . S
O814 C787 1.289 . S
C815 O807 1.258 . S
C815 O808 1.266 . S
Co816 O819 1.970 . S
Co816 N833 1.989 . S
Co816 O841 1.967 . S
Co816 O848 1.920 . S
Co817 O820 1.966 . S
Co817 N826 2.022 . S
Co817 N834 1.993 . S
Co817 O842 1.941 . S
C818 O819 1.258 . S
C818 O820 1.263 . S
O819 Co816 1.970 . S
O819 C818 1.258 . S
O820 Co817 1.966 . S
O820 C818 1.263 . S
C821 O822 1.235 . S
C821 O848 1.289 . S
O822 C821 1.235 . S
C823 C825 1.400 . S
C823 N826 1.351 . S
C823 C828 1.501 . S
C824 C825 1.387 . S
C824 N827 1.341 . S
C825 C823 1.400 . S
C825 C824 1.387 . S
N826 Co817 2.022 . S
N826 C823 1.351 . S
N826 N827 1.365 . S
N827 C824 1.341 . S
N827 N826 1.365 . S
N827 H847 0.862 . S
C828 C823 1.501 . S
C828 H829 0.961 . S
C828 H830 0.961 . S
C828 H831 0.960 . S
H829 C828 0.961 . S
H830 C828 0.961 . S
H831 C828 0.960 . S
C832 N833 1.342 . S
C832 C836 1.401 . S
C832 C837 1.499 . S
N833 Co816 1.989 . S
N833 C832 1.342 . S
N833 N834 1.388 . S
N834 Co817 1.993 . S
N834 N833 1.388 . S
N834 C835 1.346 . S
C835 N834 1.346 . S
C835 C836 1.396 . S
C835 C845 1.510 . S
C836 C832 1.401 . S
C836 C835 1.396 . S
C837 C832 1.499 . S
C837 H838 0.959 . S
C837 H839 0.960 . S
C837 H840 0.961 . S
H838 C837 0.959 . S
H839 C837 0.960 . S
H840 C837 0.961 . S
O841 Co816 1.967 . S
O841 C849 1.258 . S
O842 Co817 1.941 . S
O842 C849 1.266 . S
H843 C845 0.959 . S
H844 C845 0.961 . S
C845 C835 1.510 . S
C845 H843 0.959 . S
C845 H844 0.961 . S
C845 H846 0.960 . S
H846 C845 0.960 . S
H847 N827 0.862 . S
O848 Co816 1.920 . S
O848 C821 1.289 . S
C849 O841 1.258 . S
C849 O842 1.266 . S
Co850 O853 1.970 . S
Co850 N867 1.989 . S
Co850 O875 1.967 . S
Co850 O882 1.920 . S
Co851 O854 1.966 . S
Co851 N860 2.022 . S
Co851 N868 1.993 . S
Co851 O876 1.941 . S
C852 O853 1.258 . S
C852 O854 1.263 . S
O853 Co850 1.970 . S
O853 C852 1.258 . S
O854 Co851 1.966 . S
O854 C852 1.263 . S
C855 O856 1.235 . S
C855 O882 1.289 . S
O856 C855 1.235 . S
C857 C859 1.400 . S
C857 N860 1.351 . S
C857 C862 1.501 . S
C858 C859 1.387 . S
C858 N861 1.341 . S
C859 C857 1.400 . S
C859 C858 1.387 . S
N860 Co851 2.022 . S
N860 C857 1.351 . S
N860 N861 1.365 . S
N861 C858 1.341 . S
N861 N860 1.365 . S
N861 H881 0.862 . S
C862 C857 1.501 . S
C862 H863 0.961 . S
C862 H864 0.961 . S
C862 H865 0.960 . S
H863 C862 0.961 . S
H864 C862 0.961 . S
H865 C862 0.960 . S
C866 N867 1.342 . S
C866 C870 1.401 . S
C866 C871 1.499 . S
N867 Co850 1.989 . S
N867 C866 1.342 . S
N867 N868 1.388 . S
N868 Co851 1.993 . S
N868 N867 1.388 . S
N868 C869 1.346 . S
C869 N868 1.346 . S
C869 C870 1.396 . S
C869 C879 1.510 . S
C870 C866 1.401 . S
C870 C869 1.396 . S
C871 C866 1.499 . S
C871 H872 0.959 . S
C871 H873 0.960 . S
C871 H874 0.961 . S
H872 C871 0.959 . S
H873 C871 0.960 . S
H874 C871 0.961 . S
O875 Co850 1.967 . S
O875 C883 1.258 . S
O876 Co851 1.941 . S
O876 C883 1.266 . S
H877 C879 0.959 . S
H878 C879 0.961 . S
C879 C869 1.510 . S
C879 H877 0.959 . S
C879 H878 0.961 . S
C879 H880 0.960 . S
H880 C879 0.960 . S
H881 N861 0.862 . S
O882 Co850 1.920 . S
O882 C855 1.289 . S
C883 O875 1.258 . S
C883 O876 1.266 . S
Co884 O887 1.970 . S
Co884 N901 1.989 . S
Co884 O909 1.967 . S
Co884 O916 1.920 . S
Co885 O888 1.966 . S
Co885 N894 2.022 . S
Co885 N902 1.993 . S
Co885 O910 1.941 . S
C886 O887 1.258 . S
C886 O888 1.263 . S
O887 Co884 1.970 . S
O887 C886 1.258 . S
O888 Co885 1.966 . S
O888 C886 1.263 . S
C889 O890 1.235 . S
C889 O916 1.289 . S
O890 C889 1.235 . S
C891 C893 1.400 . S
C891 N894 1.351 . S
C891 C896 1.501 . S
C892 C893 1.387 . S
C892 N895 1.341 . S
C893 C891 1.400 . S
C893 C892 1.387 . S
N894 Co885 2.022 . S
N894 C891 1.351 . S
N894 N895 1.365 . S
N895 C892 1.341 . S
N895 N894 1.365 . S
N895 H915 0.862 . S
C896 C891 1.501 . S
C896 H897 0.961 . S
C896 H898 0.961 . S
C896 H899 0.960 . S
H897 C896 0.961 . S
H898 C896 0.961 . S
H899 C896 0.960 . S
C900 N901 1.342 . S
C900 C904 1.401 . S
C900 C905 1.499 . S
N901 Co884 1.989 . S
N901 C900 1.342 . S
N901 N902 1.388 . S
N902 Co885 1.993 . S
N902 N901 1.388 . S
N902 C903 1.346 . S
C903 N902 1.346 . S
C903 C904 1.396 . S
C903 C913 1.510 . S
C904 C900 1.401 . S
C904 C903 1.396 . S
C905 C900 1.499 . S
C905 H906 0.959 . S
C905 H907 0.960 . S
C905 H908 0.961 . S
H906 C905 0.959 . S
H907 C905 0.960 . S
H908 C905 0.961 . S
O909 Co884 1.967 . S
O909 C917 1.258 . S
O910 Co885 1.941 . S
O910 C917 1.266 . S
H911 C913 0.959 . S
H912 C913 0.961 . S
C913 C903 1.510 . S
C913 H911 0.959 . S
C913 H912 0.961 . S
C913 H914 0.960 . S
H914 C913 0.960 . S
H915 N895 0.862 . S
O916 Co884 1.920 . S
O916 C889 1.289 . S
C917 O909 1.258 . S
C917 O910 1.266 . S
Co918 O921 1.970 . S
Co918 N935 1.989 . S
Co918 O943 1.967 . S
Co918 O950 1.920 . S
Co919 O922 1.966 . S
Co919 N928 2.022 . S
Co919 N936 1.993 . S
Co919 O944 1.941 . S
C920 O921 1.258 . S
C920 O922 1.263 . S
O921 Co918 1.970 . S
O921 C920 1.258 . S
O922 Co919 1.966 . S
O922 C920 1.263 . S
C923 O924 1.235 . S
C923 O950 1.289 . S
O924 C923 1.235 . S
C925 C927 1.400 . S
C925 N928 1.351 . S
C925 C930 1.501 . S
C926 C927 1.387 . S
C926 N929 1.341 . S
C927 C925 1.400 . S
C927 C926 1.387 . S
N928 Co919 2.022 . S
N928 C925 1.351 . S
N928 N929 1.365 . S
N929 C926 1.341 . S
N929 N928 1.365 . S
N929 H949 0.862 . S
C930 C925 1.501 . S
C930 H931 0.961 . S
C930 H932 0.961 . S
C930 H933 0.960 . S
H931 C930 0.961 . S
H932 C930 0.961 . S
H933 C930 0.960 . S
C934 N935 1.342 . S
C934 C938 1.401 . S
C934 C939 1.499 . S
N935 Co918 1.989 . S
N935 C934 1.342 . S
N935 N936 1.388 . S
N936 Co919 1.993 . S
N936 N935 1.388 . S
N936 C937 1.346 . S
C937 N936 1.346 . S
C937 C938 1.396 . S
C937 C947 1.510 . S
C938 C934 1.401 . S
C938 C937 1.396 . S
C939 C934 1.499 . S
C939 H940 0.959 . S
C939 H941 0.960 . S
C939 H942 0.961 . S
H940 C939 0.959 . S
H941 C939 0.960 . S
H942 C939 0.961 . S
O943 Co918 1.967 . S
O943 C951 1.258 . S
O944 Co919 1.941 . S
O944 C951 1.266 . S
H945 C947 0.959 . S
H946 C947 0.961 . S
C947 C937 1.510 . S
C947 H945 0.959 . S
C947 H946 0.961 . S
C947 H948 0.960 . S
H948 C947 0.960 . S
H949 N929 0.862 . S
O950 Co918 1.920 . S
O950 C923 1.289 . S
C951 O943 1.258 . S
C951 O944 1.266 . S
Co952 O955 1.970 . S
Co952 N969 1.989 . S
Co952 O977 1.967 . S
Co952 O984 1.920 . S
Co953 O956 1.966 . S
Co953 N962 2.022 . S
Co953 N970 1.993 . S
Co953 O978 1.941 . S
C954 O955 1.258 . S
C954 O956 1.263 . S
O955 Co952 1.970 . S
O955 C954 1.258 . S
O956 Co953 1.966 . S
O956 C954 1.263 . S
C957 O958 1.235 . S
C957 O984 1.289 . S
O958 C957 1.235 . S
C959 C961 1.400 . S
C959 N962 1.351 . S
C959 C964 1.501 . S
C960 C961 1.387 . S
C960 N963 1.341 . S
C961 C959 1.400 . S
C961 C960 1.387 . S
N962 Co953 2.022 . S
N962 C959 1.351 . S
N962 N963 1.365 . S
N963 C960 1.341 . S
N963 N962 1.365 . S
N963 H983 0.862 . S
C964 C959 1.501 . S
C964 H965 0.961 . S
C964 H966 0.961 . S
C964 H967 0.960 . S
H965 C964 0.961 . S
H966 C964 0.961 . S
H967 C964 0.960 . S
C968 N969 1.342 . S
C968 C972 1.401 . S
C968 C973 1.499 . S
N969 Co952 1.989 . S
N969 C968 1.342 . S
N969 N970 1.388 . S
N970 Co953 1.993 . S
N970 N969 1.388 . S
N970 C971 1.346 . S
C971 N970 1.346 . S
C971 C972 1.396 . S
C971 C981 1.510 . S
C972 C968 1.401 . S
C972 C971 1.396 . S
C973 C968 1.499 . S
C973 H974 0.959 . S
C973 H975 0.960 . S
C973 H976 0.961 . S
H974 C973 0.959 . S
H975 C973 0.960 . S
H976 C973 0.961 . S
O977 Co952 1.967 . S
O977 C985 1.258 . S
O978 Co953 1.941 . S
O978 C985 1.266 . S
H979 C981 0.959 . S
H980 C981 0.961 . S
C981 C971 1.510 . S
C981 H979 0.959 . S
C981 H980 0.961 . S
C981 H982 0.960 . S
H982 C981 0.960 . S
H983 N963 0.862 . S
O984 Co952 1.920 . S
O984 C957 1.289 . S
C985 O977 1.258 . S
C985 O978 1.266 . S
Co986 O989 1.970 . S
Co986 N1003 1.989 . S
Co986 O1011 1.967 . S
Co986 O1018 1.920 . S
Co987 O990 1.966 . S
Co987 N996 2.022 . S
Co987 N1004 1.993 . S
Co987 O1012 1.941 . S
C988 O989 1.258 . S
C988 O990 1.263 . S
O989 Co986 1.970 . S
O989 C988 1.258 . S
O990 Co987 1.966 . S
O990 C988 1.263 . S
C991 O992 1.235 . S
C991 O1018 1.289 . S
O992 C991 1.235 . S
C993 C995 1.400 . S
C993 N996 1.351 . S
C993 C998 1.501 . S
C994 C995 1.387 . S
C994 N997 1.341 . S
C995 C993 1.400 . S
C995 C994 1.387 . S
N996 Co987 2.022 . S
N996 C993 1.351 . S
N996 N997 1.365 . S
N997 C994 1.341 . S
N997 N996 1.365 . S
N997 H1017 0.862 . S
C998 C993 1.501 . S
C998 H999 0.961 . S
C998 H1000 0.961 . S
C998 H1001 0.960 . S
H999 C998 0.961 . S
H1000 C998 0.961 . S
H1001 C998 0.960 . S
C1002 N1003 1.342 . S
C1002 C1006 1.401 . S
C1002 C1007 1.499 . S
N1003 Co986 1.989 . S
N1003 C1002 1.342 . S
N1003 N1004 1.388 . S
N1004 Co987 1.993 . S
N1004 N1003 1.388 . S
N1004 C1005 1.346 . S
C1005 N1004 1.346 . S
C1005 C1006 1.396 . S
C1005 C1015 1.510 . S
C1006 C1002 1.401 . S
C1006 C1005 1.396 . S
C1007 C1002 1.499 . S
C1007 H1008 0.959 . S
C1007 H1009 0.960 . S
C1007 H1010 0.961 . S
H1008 C1007 0.959 . S
H1009 C1007 0.960 . S
H1010 C1007 0.961 . S
O1011 Co986 1.967 . S
O1011 C1019 1.258 . S
O1012 Co987 1.941 . S
O1012 C1019 1.266 . S
H1013 C1015 0.959 . S
H1014 C1015 0.961 . S
C1015 C1005 1.510 . S
C1015 H1013 0.959 . S
C1015 H1014 0.961 . S
C1015 H1016 0.960 . S
H1016 C1015 0.960 . S
H1017 N997 0.862 . S
O1018 Co986 1.920 . S
O1018 C991 1.289 . S
C1019 O1011 1.258 . S
C1019 O1012 1.266 . S
Co1020 O1023 1.970 . S
Co1020 N1037 1.989 . S
Co1020 O1045 1.967 . S
Co1020 O1052 1.920 . S
Co1021 O1024 1.966 . S
Co1021 N1030 2.022 . S
Co1021 N1038 1.993 . S
Co1021 O1046 1.941 . S
C1022 O1023 1.258 . S
C1022 O1024 1.263 . S
O1023 Co1020 1.970 . S
O1023 C1022 1.258 . S
O1024 Co1021 1.966 . S
O1024 C1022 1.263 . S
C1025 O1026 1.235 . S
C1025 O1052 1.289 . S
O1026 C1025 1.235 . S
C1027 C1029 1.400 . S
C1027 N1030 1.351 . S
C1027 C1032 1.501 . S
C1028 C1029 1.387 . S
C1028 N1031 1.341 . S
C1029 C1027 1.400 . S
C1029 C1028 1.387 . S
N1030 Co1021 2.022 . S
N1030 C1027 1.351 . S
N1030 N1031 1.365 . S
N1031 C1028 1.341 . S
N1031 N1030 1.365 . S
N1031 H1051 0.862 . S
C1032 C1027 1.501 . S
C1032 H1033 0.961 . S
C1032 H1034 0.961 . S
C1032 H1035 0.960 . S
H1033 C1032 0.961 . S
H1034 C1032 0.961 . S
H1035 C1032 0.960 . S
C1036 N1037 1.342 . S
C1036 C1040 1.401 . S
C1036 C1041 1.499 . S
N1037 Co1020 1.989 . S
N1037 C1036 1.342 . S
N1037 N1038 1.388 . S
N1038 Co1021 1.993 . S
N1038 N1037 1.388 . S
N1038 C1039 1.346 . S
C1039 N1038 1.346 . S
C1039 C1040 1.396 . S
C1039 C1049 1.510 . S
C1040 C1036 1.401 . S
C1040 C1039 1.396 . S
C1041 C1036 1.499 . S
C1041 H1042 0.959 . S
C1041 H1043 0.960 . S
C1041 H1044 0.961 . S
H1042 C1041 0.959 . S
H1043 C1041 0.960 . S
H1044 C1041 0.961 . S
O1045 Co1020 1.967 . S
O1045 C1053 1.258 . S
O1046 Co1021 1.941 . S
O1046 C1053 1.266 . S
H1047 C1049 0.959 . S
H1048 C1049 0.961 . S
C1049 C1039 1.510 . S
C1049 H1047 0.959 . S
C1049 H1048 0.961 . S
C1049 H1050 0.960 . S
H1050 C1049 0.960 . S
H1051 N1031 0.862 . S
O1052 Co1020 1.920 . S
O1052 C1025 1.289 . S
C1053 O1045 1.258 . S
C1053 O1046 1.266 . S
Co1054 O1057 1.970 . S
Co1054 N1071 1.989 . S
Co1054 O1079 1.967 . S
Co1054 O1086 1.920 . S
Co1055 O1058 1.966 . S
Co1055 N1064 2.022 . S
Co1055 N1072 1.993 . S
Co1055 O1080 1.941 . S
C1056 O1057 1.258 . S
C1056 O1058 1.263 . S
O1057 Co1054 1.970 . S
O1057 C1056 1.258 . S
O1058 Co1055 1.966 . S
O1058 C1056 1.263 . S
C1059 O1060 1.235 . S
C1059 O1086 1.289 . S
O1060 C1059 1.235 . S
C1061 C1063 1.400 . S
C1061 N1064 1.351 . S
C1061 C1066 1.501 . S
C1062 C1063 1.387 . S
C1062 N1065 1.341 . S
C1063 C1061 1.400 . S
C1063 C1062 1.387 . S
N1064 Co1055 2.022 . S
N1064 C1061 1.351 . S
N1064 N1065 1.365 . S
N1065 C1062 1.341 . S
N1065 N1064 1.365 . S
N1065 H1085 0.862 . S
C1066 C1061 1.501 . S
C1066 H1067 0.961 . S
C1066 H1068 0.961 . S
C1066 H1069 0.960 . S
H1067 C1066 0.961 . S
H1068 C1066 0.961 . S
H1069 C1066 0.960 . S
C1070 N1071 1.342 . S
C1070 C1074 1.401 . S
C1070 C1075 1.499 . S
N1071 Co1054 1.989 . S
N1071 C1070 1.342 . S
N1071 N1072 1.388 . S
N1072 Co1055 1.993 . S
N1072 N1071 1.388 . S
N1072 C1073 1.346 . S
C1073 N1072 1.346 . S
C1073 C1074 1.396 . S
C1073 C1083 1.510 . S
C1074 C1070 1.401 . S
C1074 C1073 1.396 . S
C1075 C1070 1.499 . S
C1075 H1076 0.959 . S
C1075 H1077 0.960 . S
C1075 H1078 0.961 . S
H1076 C1075 0.959 . S
H1077 C1075 0.960 . S
H1078 C1075 0.961 . S
O1079 Co1054 1.967 . S
O1079 C1087 1.258 . S
O1080 Co1055 1.941 . S
O1080 C1087 1.266 . S
H1081 C1083 0.959 . S
H1082 C1083 0.961 . S
C1083 C1073 1.510 . S
C1083 H1081 0.959 . S
C1083 H1082 0.961 . S
C1083 H1084 0.960 . S
H1084 C1083 0.960 . S
H1085 N1065 0.862 . S
O1086 Co1054 1.920 . S
O1086 C1059 1.289 . S
C1087 O1079 1.258 . S
C1087 O1080 1.266 . S
Co1088 O1091 1.970 . S
Co1088 N1105 1.989 . S
Co1088 O1113 1.967 . S
Co1088 O1120 1.920 . S
Co1089 O1092 1.966 . S
Co1089 N1098 2.022 . S
Co1089 N1106 1.993 . S
Co1089 O1114 1.941 . S
C1090 O1091 1.258 . S
C1090 O1092 1.263 . S
O1091 Co1088 1.970 . S
O1091 C1090 1.258 . S
O1092 Co1089 1.966 . S
O1092 C1090 1.263 . S
C1093 O1094 1.235 . S
C1093 O1120 1.289 . S
O1094 C1093 1.235 . S
C1095 C1097 1.400 . S
C1095 N1098 1.351 . S
C1095 C1100 1.501 . S
C1096 C1097 1.387 . S
C1096 N1099 1.341 . S
C1097 C1095 1.400 . S
C1097 C1096 1.387 . S
N1098 Co1089 2.022 . S
N1098 C1095 1.351 . S
N1098 N1099 1.365 . S
N1099 C1096 1.341 . S
N1099 N1098 1.365 . S
N1099 H1119 0.862 . S
C1100 C1095 1.501 . S
C1100 H1101 0.961 . S
C1100 H1102 0.961 . S
C1100 H1103 0.960 . S
H1101 C1100 0.961 . S
H1102 C1100 0.961 . S
H1103 C1100 0.960 . S
C1104 N1105 1.342 . S
C1104 C1108 1.401 . S
C1104 C1109 1.499 . S
N1105 Co1088 1.989 . S
N1105 C1104 1.342 . S
N1105 N1106 1.388 . S
N1106 Co1089 1.993 . S
N1106 N1105 1.388 . S
N1106 C1107 1.346 . S
C1107 N1106 1.346 . S
C1107 C1108 1.396 . S
C1107 C1117 1.510 . S
C1108 C1104 1.401 . S
C1108 C1107 1.396 . S
C1109 C1104 1.499 . S
C1109 H1110 0.959 . S
C1109 H1111 0.960 . S
C1109 H1112 0.961 . S
H1110 C1109 0.959 . S
H1111 C1109 0.960 . S
H1112 C1109 0.961 . S
O1113 Co1088 1.967 . S
O1113 C1121 1.258 . S
O1114 Co1089 1.941 . S
O1114 C1121 1.266 . S
H1115 C1117 0.959 . S
H1116 C1117 0.961 . S
C1117 C1107 1.510 . S
C1117 H1115 0.959 . S
C1117 H1116 0.961 . S
C1117 H1118 0.960 . S
H1118 C1117 0.960 . S
H1119 N1099 0.862 . S
O1120 Co1088 1.920 . S
O1120 C1093 1.289 . S
C1121 O1113 1.258 . S
C1121 O1114 1.266 . S
Co1122 O1125 1.970 . S
Co1122 N1139 1.989 . S
Co1122 O1147 1.967 . S
Co1122 O1154 1.920 . S
Co1123 O1126 1.966 . S
Co1123 N1132 2.022 . S
Co1123 N1140 1.993 . S
Co1123 O1148 1.941 . S
C1124 O1125 1.258 . S
C1124 O1126 1.263 . S
O1125 Co1122 1.970 . S
O1125 C1124 1.258 . S
O1126 Co1123 1.966 . S
O1126 C1124 1.263 . S
C1127 O1128 1.235 . S
C1127 O1154 1.289 . S
O1128 C1127 1.235 . S
C1129 C1131 1.400 . S
C1129 N1132 1.351 . S
C1129 C1134 1.501 . S
C1130 C1131 1.387 . S
C1130 N1133 1.341 . S
C1131 C1129 1.400 . S
C1131 C1130 1.387 . S
N1132 Co1123 2.022 . S
N1132 C1129 1.351 . S
N1132 N1133 1.365 . S
N1133 C1130 1.341 . S
N1133 N1132 1.365 . S
N1133 H1153 0.862 . S
C1134 C1129 1.501 . S
C1134 H1135 0.961 . S
C1134 H1136 0.961 . S
C1134 H1137 0.960 . S
H1135 C1134 0.961 . S
H1136 C1134 0.961 . S
H1137 C1134 0.960 . S
C1138 N1139 1.342 . S
C1138 C1142 1.401 . S
C1138 C1143 1.499 . S
N1139 Co1122 1.989 . S
N1139 C1138 1.342 . S
N1139 N1140 1.388 . S
N1140 Co1123 1.993 . S
N1140 N1139 1.388 . S
N1140 C1141 1.346 . S
C1141 N1140 1.346 . S
C1141 C1142 1.396 . S
C1141 C1151 1.510 . S
C1142 C1138 1.401 . S
C1142 C1141 1.396 . S
C1143 C1138 1.499 . S
C1143 H1144 0.959 . S
C1143 H1145 0.960 . S
C1143 H1146 0.961 . S
H1144 C1143 0.959 . S
H1145 C1143 0.960 . S
H1146 C1143 0.961 . S
O1147 Co1122 1.967 . S
O1147 C1155 1.258 . S
O1148 Co1123 1.941 . S
O1148 C1155 1.266 . S
H1149 C1151 0.959 . S
H1150 C1151 0.961 . S
C1151 C1141 1.510 . S
C1151 H1149 0.959 . S
C1151 H1150 0.961 . S
C1151 H1152 0.960 . S
H1152 C1151 0.960 . S
H1153 N1133 0.862 . S
O1154 Co1122 1.920 . S
O1154 C1127 1.289 . S
C1155 O1147 1.258 . S
C1155 O1148 1.266 . S
Co1156 O1159 1.970 . S
Co1156 N1173 1.989 . S
Co1156 O1181 1.967 . S
Co1156 O1188 1.920 . S
Co1157 O1160 1.966 . S
Co1157 N1166 2.022 . S
Co1157 N1174 1.993 . S
Co1157 O1182 1.941 . S
C1158 O1159 1.258 . S
C1158 O1160 1.263 . S
O1159 Co1156 1.970 . S
O1159 C1158 1.258 . S
O1160 Co1157 1.966 . S
O1160 C1158 1.263 . S
C1161 O1162 1.235 . S
C1161 O1188 1.289 . S
O1162 C1161 1.235 . S
C1163 C1165 1.400 . S
C1163 N1166 1.351 . S
C1163 C1168 1.501 . S
C1164 C1165 1.387 . S
C1164 N1167 1.341 . S
C1165 C1163 1.400 . S
C1165 C1164 1.387 . S
N1166 Co1157 2.022 . S
N1166 C1163 1.351 . S
N1166 N1167 1.365 . S
N1167 C1164 1.341 . S
N1167 N1166 1.365 . S
N1167 H1187 0.862 . S
C1168 C1163 1.501 . S
C1168 H1169 0.961 . S
C1168 H1170 0.961 . S
C1168 H1171 0.960 . S
H1169 C1168 0.961 . S
H1170 C1168 0.961 . S
H1171 C1168 0.960 . S
C1172 N1173 1.342 . S
C1172 C1176 1.401 . S
C1172 C1177 1.499 . S
N1173 Co1156 1.989 . S
N1173 C1172 1.342 . S
N1173 N1174 1.388 . S
N1174 Co1157 1.993 . S
N1174 N1173 1.388 . S
N1174 C1175 1.346 . S
C1175 N1174 1.346 . S
C1175 C1176 1.396 . S
C1175 C1185 1.510 . S
C1176 C1172 1.401 . S
C1176 C1175 1.396 . S
C1177 C1172 1.499 . S
C1177 H1178 0.959 . S
C1177 H1179 0.960 . S
C1177 H1180 0.961 . S
H1178 C1177 0.959 . S
H1179 C1177 0.960 . S
H1180 C1177 0.961 . S
O1181 Co1156 1.967 . S
O1181 C1189 1.258 . S
O1182 Co1157 1.941 . S
O1182 C1189 1.266 . S
H1183 C1185 0.959 . S
H1184 C1185 0.961 . S
C1185 C1175 1.510 . S
C1185 H1183 0.959 . S
C1185 H1184 0.961 . S
C1185 H1186 0.960 . S
H1186 C1185 0.960 . S
H1187 N1167 0.862 . S
O1188 Co1156 1.920 . S
O1188 C1161 1.289 . S
C1189 O1181 1.258 . S
C1189 O1182 1.266 . S
Co1190 O1193 1.970 . S
Co1190 N1207 1.989 . S
Co1190 O1215 1.967 . S
Co1190 O1222 1.920 . S
Co1191 O1194 1.966 . S
Co1191 N1200 2.022 . S
Co1191 N1208 1.993 . S
Co1191 O1216 1.941 . S
C1192 O1193 1.258 . S
C1192 O1194 1.263 . S
O1193 Co1190 1.970 . S
O1193 C1192 1.258 . S
O1194 Co1191 1.966 . S
O1194 C1192 1.263 . S
C1195 O1196 1.235 . S
C1195 O1222 1.289 . S
O1196 C1195 1.235 . S
C1197 C1199 1.400 . S
C1197 N1200 1.351 . S
C1197 C1202 1.501 . S
C1198 C1199 1.387 . S
C1198 N1201 1.341 . S
C1199 C1197 1.400 . S
C1199 C1198 1.387 . S
N1200 Co1191 2.022 . S
N1200 C1197 1.351 . S
N1200 N1201 1.365 . S
N1201 C1198 1.341 . S
N1201 N1200 1.365 . S
N1201 H1221 0.862 . S
C1202 C1197 1.501 . S
C1202 H1203 0.961 . S
C1202 H1204 0.961 . S
C1202 H1205 0.960 . S
H1203 C1202 0.961 . S
H1204 C1202 0.961 . S
H1205 C1202 0.960 . S
C1206 N1207 1.342 . S
C1206 C1210 1.401 . S
C1206 C1211 1.499 . S
N1207 Co1190 1.989 . S
N1207 C1206 1.342 . S
N1207 N1208 1.388 . S
N1208 Co1191 1.993 . S
N1208 N1207 1.388 . S
N1208 C1209 1.346 . S
C1209 N1208 1.346 . S
C1209 C1210 1.396 . S
C1209 C1219 1.510 . S
C1210 C1206 1.401 . S
C1210 C1209 1.396 . S
C1211 C1206 1.499 . S
C1211 H1212 0.959 . S
C1211 H1213 0.960 . S
C1211 H1214 0.961 . S
H1212 C1211 0.959 . S
H1213 C1211 0.960 . S
H1214 C1211 0.961 . S
O1215 Co1190 1.967 . S
O1215 C1223 1.258 . S
O1216 Co1191 1.941 . S
O1216 C1223 1.266 . S
H1217 C1219 0.959 . S
H1218 C1219 0.961 . S
C1219 C1209 1.510 . S
C1219 H1217 0.959 . S
C1219 H1218 0.961 . S
C1219 H1220 0.960 . S
H1220 C1219 0.960 . S
H1221 N1201 0.862 . S
O1222 Co1190 1.920 . S
O1222 C1195 1.289 . S
C1223 O1215 1.258 . S
C1223 O1216 1.266 . S
Co1224 O1227 1.970 . S
Co1224 N1241 1.989 . S
Co1224 O1249 1.967 . S
Co1224 O1256 1.920 . S
Co1225 O1228 1.966 . S
Co1225 N1234 2.022 . S
Co1225 N1242 1.993 . S
Co1225 O1250 1.941 . S
C1226 O1227 1.258 . S
C1226 O1228 1.263 . S
O1227 Co1224 1.970 . S
O1227 C1226 1.258 . S
O1228 Co1225 1.966 . S
O1228 C1226 1.263 . S
C1229 O1230 1.235 . S
C1229 O1256 1.289 . S
O1230 C1229 1.235 . S
C1231 C1233 1.400 . S
C1231 N1234 1.351 . S
C1231 C1236 1.501 . S
C1232 C1233 1.387 . S
C1232 N1235 1.341 . S
C1233 C1231 1.400 . S
C1233 C1232 1.387 . S
N1234 Co1225 2.022 . S
N1234 C1231 1.351 . S
N1234 N1235 1.365 . S
N1235 C1232 1.341 . S
N1235 N1234 1.365 . S
N1235 H1255 0.862 . S
C1236 C1231 1.501 . S
C1236 H1237 0.961 . S
C1236 H1238 0.961 . S
C1236 H1239 0.960 . S
H1237 C1236 0.961 . S
H1238 C1236 0.961 . S
H1239 C1236 0.960 . S
C1240 N1241 1.342 . S
C1240 C1244 1.401 . S
C1240 C1245 1.499 . S
N1241 Co1224 1.989 . S
N1241 C1240 1.342 . S
N1241 N1242 1.388 . S
N1242 Co1225 1.993 . S
N1242 N1241 1.388 . S
N1242 C1243 1.346 . S
C1243 N1242 1.346 . S
C1243 C1244 1.396 . S
C1243 C1253 1.510 . S
C1244 C1240 1.401 . S
C1244 C1243 1.396 . S
C1245 C1240 1.499 . S
C1245 H1246 0.959 . S
C1245 H1247 0.960 . S
C1245 H1248 0.961 . S
H1246 C1245 0.959 . S
H1247 C1245 0.960 . S
H1248 C1245 0.961 . S
O1249 Co1224 1.967 . S
O1249 C1257 1.258 . S
O1250 Co1225 1.941 . S
O1250 C1257 1.266 . S
H1251 C1253 0.959 . S
H1252 C1253 0.961 . S
C1253 C1243 1.510 . S
C1253 H1251 0.959 . S
C1253 H1252 0.961 . S
C1253 H1254 0.960 . S
H1254 C1253 0.960 . S
H1255 N1235 0.862 . S
O1256 Co1224 1.920 . S
O1256 C1229 1.289 . S
C1257 O1249 1.258 . S
C1257 O1250 1.266 . S
Co1258 O1261 1.970 . S
Co1258 N1275 1.989 . S
Co1258 O1283 1.967 . S
Co1258 O1290 1.920 . S
Co1259 O1262 1.966 . S
Co1259 N1268 2.022 . S
Co1259 N1276 1.993 . S
Co1259 O1284 1.941 . S
C1260 O1261 1.258 . S
C1260 O1262 1.263 . S
O1261 Co1258 1.970 . S
O1261 C1260 1.258 . S
O1262 Co1259 1.966 . S
O1262 C1260 1.263 . S
C1263 O1264 1.235 . S
C1263 O1290 1.289 . S
O1264 C1263 1.235 . S
C1265 C1267 1.400 . S
C1265 N1268 1.351 . S
C1265 C1270 1.501 . S
C1266 C1267 1.387 . S
C1266 N1269 1.341 . S
C1267 C1265 1.400 . S
C1267 C1266 1.387 . S
N1268 Co1259 2.022 . S
N1268 C1265 1.351 . S
N1268 N1269 1.365 . S
N1269 C1266 1.341 . S
N1269 N1268 1.365 . S
N1269 H1289 0.862 . S
C1270 C1265 1.501 . S
C1270 H1271 0.961 . S
C1270 H1272 0.961 . S
C1270 H1273 0.960 . S
H1271 C1270 0.961 . S
H1272 C1270 0.961 . S
H1273 C1270 0.960 . S
C1274 N1275 1.342 . S
C1274 C1278 1.401 . S
C1274 C1279 1.499 . S
N1275 Co1258 1.989 . S
N1275 C1274 1.342 . S
N1275 N1276 1.388 . S
N1276 Co1259 1.993 . S
N1276 N1275 1.388 . S
N1276 C1277 1.346 . S
C1277 N1276 1.346 . S
C1277 C1278 1.396 . S
C1277 C1287 1.510 . S
C1278 C1274 1.401 . S
C1278 C1277 1.396 . S
C1279 C1274 1.499 . S
C1279 H1280 0.959 . S
C1279 H1281 0.960 . S
C1279 H1282 0.961 . S
H1280 C1279 0.959 . S
H1281 C1279 0.960 . S
H1282 C1279 0.961 . S
O1283 Co1258 1.967 . S
O1283 C1291 1.258 . S
O1284 Co1259 1.941 . S
O1284 C1291 1.266 . S
H1285 C1287 0.959 . S
H1286 C1287 0.961 . S
C1287 C1277 1.510 . S
C1287 H1285 0.959 . S
C1287 H1286 0.961 . S
C1287 H1288 0.960 . S
H1288 C1287 0.960 . S
H1289 N1269 0.862 . S
O1290 Co1258 1.920 . S
O1290 C1263 1.289 . S
C1291 O1283 1.258 . S
C1291 O1284 1.266 . S
Co1292 O1295 1.970 . S
Co1292 N1309 1.989 . S
Co1292 O1317 1.967 . S
Co1292 O1324 1.920 . S
Co1293 O1296 1.966 . S
Co1293 N1302 2.022 . S
Co1293 N1310 1.993 . S
Co1293 O1318 1.941 . S
C1294 O1295 1.258 . S
C1294 O1296 1.263 . S
O1295 Co1292 1.970 . S
O1295 C1294 1.258 . S
O1296 Co1293 1.966 . S
O1296 C1294 1.263 . S
C1297 O1298 1.235 . S
C1297 O1324 1.289 . S
O1298 C1297 1.235 . S
C1299 C1301 1.400 . S
C1299 N1302 1.351 . S
C1299 C1304 1.501 . S
C1300 C1301 1.387 . S
C1300 N1303 1.341 . S
C1301 C1299 1.400 . S
C1301 C1300 1.387 . S
N1302 Co1293 2.022 . S
N1302 C1299 1.351 . S
N1302 N1303 1.365 . S
N1303 C1300 1.341 . S
N1303 N1302 1.365 . S
N1303 H1323 0.862 . S
C1304 C1299 1.501 . S
C1304 H1305 0.961 . S
C1304 H1306 0.961 . S
C1304 H1307 0.960 . S
H1305 C1304 0.961 . S
H1306 C1304 0.961 . S
H1307 C1304 0.960 . S
C1308 N1309 1.342 . S
C1308 C1312 1.401 . S
C1308 C1313 1.499 . S
N1309 Co1292 1.989 . S
N1309 C1308 1.342 . S
N1309 N1310 1.388 . S
N1310 Co1293 1.993 . S
N1310 N1309 1.388 . S
N1310 C1311 1.346 . S
C1311 N1310 1.346 . S
C1311 C1312 1.396 . S
C1311 C1321 1.510 . S
C1312 C1308 1.401 . S
C1312 C1311 1.396 . S
C1313 C1308 1.499 . S
C1313 H1314 0.959 . S
C1313 H1315 0.960 . S
C1313 H1316 0.961 . S
H1314 C1313 0.959 . S
H1315 C1313 0.960 . S
H1316 C1313 0.961 . S
O1317 Co1292 1.967 . S
O1317 C1325 1.258 . S
O1318 Co1293 1.941 . S
O1318 C1325 1.266 . S
H1319 C1321 0.959 . S
H1320 C1321 0.961 . S
C1321 C1311 1.510 . S
C1321 H1319 0.959 . S
C1321 H1320 0.961 . S
C1321 H1322 0.960 . S
H1322 C1321 0.960 . S
H1323 N1303 0.862 . S
O1324 Co1292 1.920 . S
O1324 C1297 1.289 . S
C1325 O1317 1.258 . S
C1325 O1318 1.266 . S
Co1326 O1329 1.970 . S
Co1326 N1343 1.989 . S
Co1326 O1351 1.967 . S
Co1326 O1358 1.920 . S
Co1327 O1330 1.966 . S
Co1327 N1336 2.022 . S
Co1327 N1344 1.993 . S
Co1327 O1352 1.941 . S
C1328 O1329 1.258 . S
C1328 O1330 1.263 . S
O1329 Co1326 1.970 . S
O1329 C1328 1.258 . S
O1330 Co1327 1.966 . S
O1330 C1328 1.263 . S
C1331 O1332 1.235 . S
C1331 O1358 1.289 . S
O1332 C1331 1.235 . S
C1333 C1335 1.400 . S
C1333 N1336 1.351 . S
C1333 C1338 1.501 . S
C1334 C1335 1.387 . S
C1334 N1337 1.341 . S
C1335 C1333 1.400 . S
C1335 C1334 1.387 . S
N1336 Co1327 2.022 . S
N1336 C1333 1.351 . S
N1336 N1337 1.365 . S
N1337 C1334 1.341 . S
N1337 N1336 1.365 . S
N1337 H1357 0.862 . S
C1338 C1333 1.501 . S
C1338 H1339 0.961 . S
C1338 H1340 0.961 . S
C1338 H1341 0.960 . S
H1339 C1338 0.961 . S
H1340 C1338 0.961 . S
H1341 C1338 0.960 . S
C1342 N1343 1.342 . S
C1342 C1346 1.401 . S
C1342 C1347 1.499 . S
N1343 Co1326 1.989 . S
N1343 C1342 1.342 . S
N1343 N1344 1.388 . S
N1344 Co1327 1.993 . S
N1344 N1343 1.388 . S
N1344 C1345 1.346 . S
C1345 N1344 1.346 . S
C1345 C1346 1.396 . S
C1345 C1355 1.510 . S
C1346 C1342 1.401 . S
C1346 C1345 1.396 . S
C1347 C1342 1.499 . S
C1347 H1348 0.959 . S
C1347 H1349 0.960 . S
C1347 H1350 0.961 . S
H1348 C1347 0.959 . S
H1349 C1347 0.960 . S
H1350 C1347 0.961 . S
O1351 Co1326 1.967 . S
O1351 C1359 1.258 . S
O1352 Co1327 1.941 . S
O1352 C1359 1.266 . S
H1353 C1355 0.959 . S
H1354 C1355 0.961 . S
C1355 C1345 1.510 . S
C1355 H1353 0.959 . S
C1355 H1354 0.961 . S
C1355 H1356 0.960 . S
H1356 C1355 0.960 . S
H1357 N1337 0.862 . S
O1358 Co1326 1.920 . S
O1358 C1331 1.289 . S
C1359 O1351 1.258 . S
C1359 O1352 1.266 . S
Co1360 O1363 1.970 . S
Co1360 N1377 1.989 . S
Co1360 O1385 1.967 . S
Co1360 O1392 1.920 . S
Co1361 O1364 1.966 . S
Co1361 N1370 2.022 . S
Co1361 N1378 1.993 . S
Co1361 O1386 1.941 . S
C1362 O1363 1.258 . S
C1362 O1364 1.263 . S
O1363 Co1360 1.970 . S
O1363 C1362 1.258 . S
O1364 Co1361 1.966 . S
O1364 C1362 1.263 . S
C1365 O1366 1.235 . S
C1365 O1392 1.289 . S
O1366 C1365 1.235 . S
C1367 C1369 1.400 . S
C1367 N1370 1.351 . S
C1367 C1372 1.501 . S
C1368 C1369 1.387 . S
C1368 N1371 1.341 . S
C1369 C1367 1.400 . S
C1369 C1368 1.387 . S
N1370 Co1361 2.022 . S
N1370 C1367 1.351 . S
N1370 N1371 1.365 . S
N1371 C1368 1.341 . S
N1371 N1370 1.365 . S
N1371 H1391 0.862 . S
C1372 C1367 1.501 . S
C1372 H1373 0.961 . S
C1372 H1374 0.961 . S
C1372 H1375 0.960 . S
H1373 C1372 0.961 . S
H1374 C1372 0.961 . S
H1375 C1372 0.960 . S
C1376 N1377 1.342 . S
C1376 C1380 1.401 . S
C1376 C1381 1.499 . S
N1377 Co1360 1.989 . S
N1377 C1376 1.342 . S
N1377 N1378 1.388 . S
N1378 Co1361 1.993 . S
N1378 N1377 1.388 . S
N1378 C1379 1.346 . S
C1379 N1378 1.346 . S
C1379 C1380 1.396 . S
C1379 C1389 1.510 . S
C1380 C1376 1.401 . S
C1380 C1379 1.396 . S
C1381 C1376 1.499 . S
C1381 H1382 0.959 . S
C1381 H1383 0.960 . S
C1381 H1384 0.961 . S
H1382 C1381 0.959 . S
H1383 C1381 0.960 . S
H1384 C1381 0.961 . S
O1385 Co1360 1.967 . S
O1385 C1393 1.258 . S
O1386 Co1361 1.941 . S
O1386 C1393 1.266 . S
H1387 C1389 0.959 . S
H1388 C1389 0.961 . S
C1389 C1379 1.510 . S
C1389 H1387 0.959 . S
C1389 H1388 0.961 . S
C1389 H1390 0.960 . S
H1390 C1389 0.960 . S
H1391 N1371 0.862 . S
O1392 Co1360 1.920 . S
O1392 C1365 1.289 . S
C1393 O1385 1.258 . S
C1393 O1386 1.266 . S
Co1394 O1397 1.970 . S
Co1394 N1411 1.989 . S
Co1394 O1419 1.967 . S
Co1394 O1426 1.920 . S
Co1395 O1398 1.966 . S
Co1395 N1404 2.022 . S
Co1395 N1412 1.993 . S
Co1395 O1420 1.941 . S
C1396 O1397 1.258 . S
C1396 O1398 1.263 . S
O1397 Co1394 1.970 . S
O1397 C1396 1.258 . S
O1398 Co1395 1.966 . S
O1398 C1396 1.263 . S
C1399 O1400 1.235 . S
C1399 O1426 1.289 . S
O1400 C1399 1.235 . S
C1401 C1403 1.400 . S
C1401 N1404 1.351 . S
C1401 C1406 1.501 . S
C1402 C1403 1.387 . S
C1402 N1405 1.341 . S
C1403 C1401 1.400 . S
C1403 C1402 1.387 . S
N1404 Co1395 2.022 . S
N1404 C1401 1.351 . S
N1404 N1405 1.365 . S
N1405 C1402 1.341 . S
N1405 N1404 1.365 . S
N1405 H1425 0.862 . S
C1406 C1401 1.501 . S
C1406 H1407 0.961 . S
C1406 H1408 0.961 . S
C1406 H1409 0.960 . S
H1407 C1406 0.961 . S
H1408 C1406 0.961 . S
H1409 C1406 0.960 . S
C1410 N1411 1.342 . S
C1410 C1414 1.401 . S
C1410 C1415 1.499 . S
N1411 Co1394 1.989 . S
N1411 C1410 1.342 . S
N1411 N1412 1.388 . S
N1412 Co1395 1.993 . S
N1412 N1411 1.388 . S
N1412 C1413 1.346 . S
C1413 N1412 1.346 . S
C1413 C1414 1.396 . S
C1413 C1423 1.510 . S
C1414 C1410 1.401 . S
C1414 C1413 1.396 . S
C1415 C1410 1.499 . S
C1415 H1416 0.959 . S
C1415 H1417 0.960 . S
C1415 H1418 0.961 . S
H1416 C1415 0.959 . S
H1417 C1415 0.960 . S
H1418 C1415 0.961 . S
O1419 Co1394 1.967 . S
O1419 C1427 1.258 . S
O1420 Co1395 1.941 . S
O1420 C1427 1.266 . S
H1421 C1423 0.959 . S
H1422 C1423 0.961 . S
C1423 C1413 1.510 . S
C1423 H1421 0.959 . S
C1423 H1422 0.961 . S
C1423 H1424 0.960 . S
H1424 C1423 0.960 . S
H1425 N1405 0.862 . S
O1426 Co1394 1.920 . S
O1426 C1399 1.289 . S
C1427 O1419 1.258 . S
C1427 O1420 1.266 . S
Co1428 O1431 1.970 . S
Co1428 N1445 1.989 . S
Co1428 O1453 1.967 . S
Co1428 O1460 1.920 . S
Co1429 O1432 1.966 . S
Co1429 N1438 2.022 . S
Co1429 N1446 1.993 . S
Co1429 O1454 1.941 . S
C1430 O1431 1.258 . S
C1430 O1432 1.263 . S
O1431 Co1428 1.970 . S
O1431 C1430 1.258 . S
O1432 Co1429 1.966 . S
O1432 C1430 1.263 . S
C1433 O1434 1.235 . S
C1433 O1460 1.289 . S
O1434 C1433 1.235 . S
C1435 C1437 1.400 . S
C1435 N1438 1.351 . S
C1435 C1440 1.501 . S
C1436 C1437 1.387 . S
C1436 N1439 1.341 . S
C1437 C1435 1.400 . S
C1437 C1436 1.387 . S
N1438 Co1429 2.022 . S
N1438 C1435 1.351 . S
N1438 N1439 1.365 . S
N1439 C1436 1.341 . S
N1439 N1438 1.365 . S
N1439 H1459 0.862 . S
C1440 C1435 1.501 . S
C1440 H1441 0.961 . S
C1440 H1442 0.961 . S
C1440 H1443 0.960 . S
H1441 C1440 0.961 . S
H1442 C1440 0.961 . S
H1443 C1440 0.960 . S
C1444 N1445 1.342 . S
C1444 C1448 1.401 . S
C1444 C1449 1.499 . S
N1445 Co1428 1.989 . S
N1445 C1444 1.342 . S
N1445 N1446 1.388 . S
N1446 Co1429 1.993 . S
N1446 N1445 1.388 . S
N1446 C1447 1.346 . S
C1447 N1446 1.346 . S
C1447 C1448 1.396 . S
C1447 C1457 1.510 . S
C1448 C1444 1.401 . S
C1448 C1447 1.396 . S
C1449 C1444 1.499 . S
C1449 H1450 0.959 . S
C1449 H1451 0.960 . S
C1449 H1452 0.961 . S
H1450 C1449 0.959 . S
H1451 C1449 0.960 . S
H1452 C1449 0.961 . S
O1453 Co1428 1.967 . S
O1453 C1461 1.258 . S
O1454 Co1429 1.941 . S
O1454 C1461 1.266 . S
H1455 C1457 0.959 . S
H1456 C1457 0.961 . S
C1457 C1447 1.510 . S
C1457 H1455 0.959 . S
C1457 H1456 0.961 . S
C1457 H1458 0.960 . S
H1458 C1457 0.960 . S
H1459 N1439 0.862 . S
O1460 Co1428 1.920 . S
O1460 C1433 1.289 . S
C1461 O1453 1.258 . S
C1461 O1454 1.266 . S
Co1462 O1465 1.970 . S
Co1462 N1479 1.989 . S
Co1462 O1487 1.967 . S
Co1462 O1494 1.920 . S
Co1463 O1466 1.966 . S
Co1463 N1472 2.022 . S
Co1463 N1480 1.993 . S
Co1463 O1488 1.941 . S
C1464 O1465 1.258 . S
C1464 O1466 1.263 . S
O1465 Co1462 1.970 . S
O1465 C1464 1.258 . S
O1466 Co1463 1.966 . S
O1466 C1464 1.263 . S
C1467 O1468 1.235 . S
C1467 O1494 1.289 . S
O1468 C1467 1.235 . S
C1469 C1471 1.400 . S
C1469 N1472 1.351 . S
C1469 C1474 1.501 . S
C1470 C1471 1.387 . S
C1470 N1473 1.341 . S
C1471 C1469 1.400 . S
C1471 C1470 1.387 . S
N1472 Co1463 2.022 . S
N1472 C1469 1.351 . S
N1472 N1473 1.365 . S
N1473 C1470 1.341 . S
N1473 N1472 1.365 . S
N1473 H1493 0.862 . S
C1474 C1469 1.501 . S
C1474 H1475 0.961 . S
C1474 H1476 0.961 . S
C1474 H1477 0.960 . S
H1475 C1474 0.961 . S
H1476 C1474 0.961 . S
H1477 C1474 0.960 . S
C1478 N1479 1.342 . S
C1478 C1482 1.401 . S
C1478 C1483 1.499 . S
N1479 Co1462 1.989 . S
N1479 C1478 1.342 . S
N1479 N1480 1.388 . S
N1480 Co1463 1.993 . S
N1480 N1479 1.388 . S
N1480 C1481 1.346 . S
C1481 N1480 1.346 . S
C1481 C1482 1.396 . S
C1481 C1491 1.510 . S
C1482 C1478 1.401 . S
C1482 C1481 1.396 . S
C1483 C1478 1.499 . S
C1483 H1484 0.959 . S
C1483 H1485 0.960 . S
C1483 H1486 0.961 . S
H1484 C1483 0.959 . S
H1485 C1483 0.960 . S
H1486 C1483 0.961 . S
O1487 Co1462 1.967 . S
O1487 C1495 1.258 . S
O1488 Co1463 1.941 . S
O1488 C1495 1.266 . S
H1489 C1491 0.959 . S
H1490 C1491 0.961 . S
C1491 C1481 1.510 . S
C1491 H1489 0.959 . S
C1491 H1490 0.961 . S
C1491 H1492 0.960 . S
H1492 C1491 0.960 . S
H1493 N1473 0.862 . S
O1494 Co1462 1.920 . S
O1494 C1467 1.289 . S
C1495 O1487 1.258 . S
C1495 O1488 1.266 . S
Co1496 O1499 1.970 . S
Co1496 N1513 1.989 . S
Co1496 O1521 1.967 . S
Co1496 O1528 1.920 . S
Co1497 O1500 1.966 . S
Co1497 N1506 2.022 . S
Co1497 N1514 1.993 . S
Co1497 O1522 1.941 . S
C1498 O1499 1.258 . S
C1498 O1500 1.263 . S
O1499 Co1496 1.970 . S
O1499 C1498 1.258 . S
O1500 Co1497 1.966 . S
O1500 C1498 1.263 . S
C1501 O1502 1.235 . S
C1501 O1528 1.289 . S
O1502 C1501 1.235 . S
C1503 C1505 1.400 . S
C1503 N1506 1.351 . S
C1503 C1508 1.501 . S
C1504 C1505 1.387 . S
C1504 N1507 1.341 . S
C1505 C1503 1.400 . S
C1505 C1504 1.387 . S
N1506 Co1497 2.022 . S
N1506 C1503 1.351 . S
N1506 N1507 1.365 . S
N1507 C1504 1.341 . S
N1507 N1506 1.365 . S
N1507 H1527 0.862 . S
C1508 C1503 1.501 . S
C1508 H1509 0.961 . S
C1508 H1510 0.961 . S
C1508 H1511 0.960 . S
H1509 C1508 0.961 . S
H1510 C1508 0.961 . S
H1511 C1508 0.960 . S
C1512 N1513 1.342 . S
C1512 C1516 1.401 . S
C1512 C1517 1.499 . S
N1513 Co1496 1.989 . S
N1513 C1512 1.342 . S
N1513 N1514 1.388 . S
N1514 Co1497 1.993 . S
N1514 N1513 1.388 . S
N1514 C1515 1.346 . S
C1515 N1514 1.346 . S
C1515 C1516 1.396 . S
C1515 C1525 1.510 . S
C1516 C1512 1.401 . S
C1516 C1515 1.396 . S
C1517 C1512 1.499 . S
C1517 H1518 0.959 . S
C1517 H1519 0.960 . S
C1517 H1520 0.961 . S
H1518 C1517 0.959 . S
H1519 C1517 0.960 . S
H1520 C1517 0.961 . S
O1521 Co1496 1.967 . S
O1521 C1529 1.258 . S
O1522 Co1497 1.941 . S
O1522 C1529 1.266 . S
H1523 C1525 0.959 . S
H1524 C1525 0.961 . S
C1525 C1515 1.510 . S
C1525 H1523 0.959 . S
C1525 H1524 0.961 . S
C1525 H1526 0.960 . S
H1526 C1525 0.960 . S
H1527 N1507 0.862 . S
O1528 Co1496 1.920 . S
O1528 C1501 1.289 . S
C1529 O1521 1.258 . S
C1529 O1522 1.266 . S
Co1530 O1533 1.970 . S
Co1530 N1547 1.989 . S
Co1530 O1555 1.967 . S
Co1530 O1562 1.920 . S
Co1531 O1534 1.966 . S
Co1531 N1540 2.022 . S
Co1531 N1548 1.993 . S
Co1531 O1556 1.941 . S
C1532 O1533 1.258 . S
C1532 O1534 1.263 . S
O1533 Co1530 1.970 . S
O1533 C1532 1.258 . S
O1534 Co1531 1.966 . S
O1534 C1532 1.263 . S
C1535 O1536 1.235 . S
C1535 O1562 1.289 . S
O1536 C1535 1.235 . S
C1537 C1539 1.400 . S
C1537 N1540 1.351 . S
C1537 C1542 1.501 . S
C1538 C1539 1.387 . S
C1538 N1541 1.341 . S
C1539 C1537 1.400 . S
C1539 C1538 1.387 . S
N1540 Co1531 2.022 . S
N1540 C1537 1.351 . S
N1540 N1541 1.365 . S
N1541 C1538 1.341 . S
N1541 N1540 1.365 . S
N1541 H1561 0.862 . S
C1542 C1537 1.501 . S
C1542 H1543 0.961 . S
C1542 H1544 0.961 . S
C1542 H1545 0.960 . S
H1543 C1542 0.961 . S
H1544 C1542 0.961 . S
H1545 C1542 0.960 . S
C1546 N1547 1.342 . S
C1546 C1550 1.401 . S
C1546 C1551 1.499 . S
N1547 Co1530 1.989 . S
N1547 C1546 1.342 . S
N1547 N1548 1.388 . S
N1548 Co1531 1.993 . S
N1548 N1547 1.388 . S
N1548 C1549 1.346 . S
C1549 N1548 1.346 . S
C1549 C1550 1.396 . S
C1549 C1559 1.510 . S
C1550 C1546 1.401 . S
C1550 C1549 1.396 . S
C1551 C1546 1.499 . S
C1551 H1552 0.959 . S
C1551 H1553 0.960 . S
C1551 H1554 0.961 . S
H1552 C1551 0.959 . S
H1553 C1551 0.960 . S
H1554 C1551 0.961 . S
O1555 Co1530 1.967 . S
O1555 C1563 1.258 . S
O1556 Co1531 1.941 . S
O1556 C1563 1.266 . S
H1557 C1559 0.959 . S
H1558 C1559 0.961 . S
C1559 C1549 1.510 . S
C1559 H1557 0.959 . S
C1559 H1558 0.961 . S
C1559 H1560 0.960 . S
H1560 C1559 0.960 . S
H1561 N1541 0.862 . S
O1562 Co1530 1.920 . S
O1562 C1535 1.289 . S
C1563 O1555 1.258 . S
C1563 O1556 1.266 . S
Co1564 O1567 1.970 . S
Co1564 N1581 1.989 . S
Co1564 O1589 1.967 . S
Co1564 O1596 1.920 . S
Co1565 O1568 1.966 . S
Co1565 N1574 2.022 . S
Co1565 N1582 1.993 . S
Co1565 O1590 1.941 . S
C1566 O1567 1.258 . S
C1566 O1568 1.263 . S
O1567 Co1564 1.970 . S
O1567 C1566 1.258 . S
O1568 Co1565 1.966 . S
O1568 C1566 1.263 . S
C1569 O1570 1.235 . S
C1569 O1596 1.289 . S
O1570 C1569 1.235 . S
C1571 C1573 1.400 . S
C1571 N1574 1.351 . S
C1571 C1576 1.501 . S
C1572 C1573 1.387 . S
C1572 N1575 1.341 . S
C1573 C1571 1.400 . S
C1573 C1572 1.387 . S
N1574 Co1565 2.022 . S
N1574 C1571 1.351 . S
N1574 N1575 1.365 . S
N1575 C1572 1.341 . S
N1575 N1574 1.365 . S
N1575 H1595 0.862 . S
C1576 C1571 1.501 . S
C1576 H1577 0.961 . S
C1576 H1578 0.961 . S
C1576 H1579 0.960 . S
H1577 C1576 0.961 . S
H1578 C1576 0.961 . S
H1579 C1576 0.960 . S
C1580 N1581 1.342 . S
C1580 C1584 1.401 . S
C1580 C1585 1.499 . S
N1581 Co1564 1.989 . S
N1581 C1580 1.342 . S
N1581 N1582 1.388 . S
N1582 Co1565 1.993 . S
N1582 N1581 1.388 . S
N1582 C1583 1.346 . S
C1583 N1582 1.346 . S
C1583 C1584 1.396 . S
C1583 C1593 1.510 . S
C1584 C1580 1.401 . S
C1584 C1583 1.396 . S
C1585 C1580 1.499 . S
C1585 H1586 0.959 . S
C1585 H1587 0.960 . S
C1585 H1588 0.961 . S
H1586 C1585 0.959 . S
H1587 C1585 0.960 . S
H1588 C1585 0.961 . S
O1589 Co1564 1.967 . S
O1589 C1597 1.258 . S
O1590 Co1565 1.941 . S
O1590 C1597 1.266 . S
H1591 C1593 0.959 . S
H1592 C1593 0.961 . S
C1593 C1583 1.510 . S
C1593 H1591 0.959 . S
C1593 H1592 0.961 . S
C1593 H1594 0.960 . S
H1594 C1593 0.960 . S
H1595 N1575 0.862 . S
O1596 Co1564 1.920 . S
O1596 C1569 1.289 . S
C1597 O1589 1.258 . S
C1597 O1590 1.266 . S
Co1598 O1601 1.970 . S
Co1598 N1615 1.989 . S
Co1598 O1623 1.967 . S
Co1598 O1630 1.920 . S
Co1599 O1602 1.966 . S
Co1599 N1608 2.022 . S
Co1599 N1616 1.993 . S
Co1599 O1624 1.941 . S
C1600 O1601 1.258 . S
C1600 O1602 1.263 . S
O1601 Co1598 1.970 . S
O1601 C1600 1.258 . S
O1602 Co1599 1.966 . S
O1602 C1600 1.263 . S
C1603 O1604 1.235 . S
C1603 O1630 1.289 . S
O1604 C1603 1.235 . S
C1605 C1607 1.400 . S
C1605 N1608 1.351 . S
C1605 C1610 1.501 . S
C1606 C1607 1.387 . S
C1606 N1609 1.341 . S
C1607 C1605 1.400 . S
C1607 C1606 1.387 . S
N1608 Co1599 2.022 . S
N1608 C1605 1.351 . S
N1608 N1609 1.365 . S
N1609 C1606 1.341 . S
N1609 N1608 1.365 . S
N1609 H1629 0.862 . S
C1610 C1605 1.501 . S
C1610 H1611 0.961 . S
C1610 H1612 0.961 . S
C1610 H1613 0.960 . S
H1611 C1610 0.961 . S
H1612 C1610 0.961 . S
H1613 C1610 0.960 . S
C1614 N1615 1.342 . S
C1614 C1618 1.401 . S
C1614 C1619 1.499 . S
N1615 Co1598 1.989 . S
N1615 C1614 1.342 . S
N1615 N1616 1.388 . S
N1616 Co1599 1.993 . S
N1616 N1615 1.388 . S
N1616 C1617 1.346 . S
C1617 N1616 1.346 . S
C1617 C1618 1.396 . S
C1617 C1627 1.510 . S
C1618 C1614 1.401 . S
C1618 C1617 1.396 . S
C1619 C1614 1.499 . S
C1619 H1620 0.959 . S
C1619 H1621 0.960 . S
C1619 H1622 0.961 . S
H1620 C1619 0.959 . S
H1621 C1619 0.960 . S
H1622 C1619 0.961 . S
O1623 Co1598 1.967 . S
O1623 C1631 1.258 . S
O1624 Co1599 1.941 . S
O1624 C1631 1.266 . S
H1625 C1627 0.959 . S
H1626 C1627 0.961 . S
C1627 C1617 1.510 . S
C1627 H1625 0.959 . S
C1627 H1626 0.961 . S
C1627 H1628 0.960 . S
H1628 C1627 0.960 . S
H1629 N1609 0.862 . S
O1630 Co1598 1.920 . S
O1630 C1603 1.289 . S
C1631 O1623 1.258 . S
C1631 O1624 1.266 . S
C1632 C1633 1.369 . S
C1632 C1634 1.419 . S
C1632 H1636 0.930 . S
C1633 C1632 1.369 . S
C1633 C1642 1.429 . S
C1634 C1632 1.419 . S
C1634 C1635 1.363 . S
C1634 H1637 0.929 . S
C1635 C1634 1.363 . S
C1635 C1641 1.428 . S
H1636 C1632 0.930 . S
H1637 C1634 0.929 . S
S1638 N1639 1.616 . S
S1638 N1640 1.610 . S
N1639 S1638 1.616 . S
N1639 C1642 1.352 . S
N1640 S1638 1.610 . S
N1640 C1641 1.351 . S
C1641 C1635 1.428 . S
C1641 N1640 1.351 . S
C1641 C1642 1.434 . S
C1642 C1633 1.429 . S
C1642 N1639 1.352 . S
C1642 C1641 1.434 . S
C1643 C1644 1.369 . S
C1643 C1645 1.419 . S
C1643 H1647 0.930 . S
C1644 C1643 1.369 . S
C1644 C1653 1.429 . S
C1645 C1643 1.419 . S
C1645 C1646 1.363 . S
C1645 H1648 0.929 . S
C1646 C1645 1.363 . S
C1646 C1652 1.428 . S
H1647 C1643 0.930 . S
H1648 C1645 0.929 . S
S1649 N1650 1.613 . S
S1649 N1651 1.610 . S
N1650 S1649 1.613 . S
N1650 C1653 1.350 . S
N1651 S1649 1.610 . S
N1651 C1652 1.351 . S
C1652 C1646 1.428 . S
C1652 N1651 1.351 . S
C1652 C1653 1.434 . S
C1653 C1644 1.429 . S
C1653 N1650 1.350 . S
C1653 C1652 1.434 . S
C1654 C1655 1.369 . S
C1654 C1656 1.419 . S
C1654 H1658 0.930 . S
C1655 C1654 1.369 . S
C1655 C1664 1.429 . S
C1656 C1654 1.419 . S
C1656 C1657 1.363 . S
C1656 H1659 0.929 . S
C1657 C1656 1.363 . S
C1657 C1663 1.428 . S
H1658 C1654 0.930 . S
H1659 C1656 0.929 . S
S1660 N1661 1.613 . S
S1660 N1662 1.610 . S
N1661 S1660 1.613 . S
N1661 C1664 1.350 . S
N1662 S1660 1.610 . S
N1662 C1663 1.351 . S
C1663 C1657 1.428 . S
C1663 N1662 1.351 . S
C1663 C1664 1.434 . S
C1664 C1655 1.429 . S
C1664 N1661 1.350 . S
C1664 C1663 1.434 . S
C1665 C1666 1.369 . S
C1665 C1667 1.419 . S
C1665 H1669 0.930 . S
C1666 C1665 1.369 . S
C1666 C1675 1.429 . S
C1667 C1665 1.419 . S
C1667 C1668 1.363 . S
C1667 H1670 0.929 . S
C1668 C1667 1.363 . S
C1668 C1674 1.428 . S
H1669 C1665 0.930 . S
H1670 C1667 0.929 . S
S1671 N1672 1.613 . S
S1671 N1673 1.610 . S
N1672 S1671 1.613 . S
N1672 C1675 1.350 . S
N1673 S1671 1.610 . S
N1673 C1674 1.351 . S
C1674 C1668 1.428 . S
C1674 N1673 1.351 . S
C1674 C1675 1.434 . S
C1675 C1666 1.429 . S
C1675 N1672 1.350 . S
C1675 C1674 1.434 . S
C1676 C1677 1.369 . S
C1676 C1678 1.419 . S
C1676 H1680 0.930 . S
C1677 C1676 1.369 . S
C1677 C1686 1.429 . S
C1678 C1676 1.419 . S
C1678 C1679 1.363 . S
C1678 H1681 0.929 . S
C1679 C1678 1.363 . S
C1679 C1685 1.428 . S
H1680 C1676 0.930 . S
H1681 C1678 0.929 . S
S1682 N1683 1.613 . S
S1682 N1684 1.610 . S
N1683 S1682 1.613 . S
N1683 C1686 1.350 . S
N1684 S1682 1.610 . S
N1684 C1685 1.351 . S
C1685 C1679 1.428 . S
C1685 N1684 1.351 . S
C1685 C1686 1.434 . S
C1686 C1677 1.429 . S
C1686 N1683 1.350 . S
C1686 C1685 1.434 . S
C1687 C1688 1.369 . S
C1687 C1689 1.419 . S
C1687 H1691 0.930 . S
C1688 C1687 1.369 . S
C1688 C1697 1.429 . S
C1689 C1687 1.419 . S
C1689 C1690 1.363 . S
C1689 H1692 0.929 . S
C1690 C1689 1.363 . S
C1690 C1696 1.428 . S
H1691 C1687 0.930 . S
H1692 C1689 0.929 . S
S1693 N1694 1.613 . S
S1693 N1695 1.610 . S
N1694 S1693 1.613 . S
N1694 C1697 1.350 . S
N1695 S1693 1.610 . S
N1695 C1696 1.351 . S
C1696 C1690 1.428 . S
C1696 N1695 1.351 . S
C1696 C1697 1.434 . S
C1697 C1688 1.429 . S
C1697 N1694 1.350 . S
C1697 C1696 1.434 . S
C1698 C1699 1.369 . S
C1698 C1700 1.419 . S
C1698 H1702 0.930 . S
C1699 C1698 1.369 . S
C1699 C1708 1.429 . S
C1700 C1698 1.419 . S
C1700 C1701 1.363 . S
C1700 H1703 0.929 . S
C1701 C1700 1.363 . S
C1701 C1707 1.428 . S
H1702 C1698 0.930 . S
H1703 C1700 0.929 . S
S1704 N1705 1.613 . S
S1704 N1706 1.610 . S
N1705 S1704 1.613 . S
N1705 C1708 1.350 . S
N1706 S1704 1.610 . S
N1706 C1707 1.351 . S
C1707 C1701 1.428 . S
C1707 N1706 1.351 . S
C1707 C1708 1.434 . S
C1708 C1699 1.429 . S
C1708 N1705 1.350 . S
C1708 C1707 1.434 . S
C1709 C1710 1.369 . S
C1709 C1711 1.419 . S
C1709 H1713 0.930 . S
C1710 C1709 1.369 . S
C1710 C1719 1.429 . S
C1711 C1709 1.419 . S
C1711 C1712 1.363 . S
C1711 H1714 0.929 . S
C1712 C1711 1.363 . S
C1712 C1718 1.428 . S
H1713 C1709 0.930 . S
H1714 C1711 0.929 . S
S1715 N1716 1.613 . S
S1715 N1717 1.610 . S
N1716 S1715 1.613 . S
N1716 C1719 1.350 . S
N1717 S1715 1.610 . S
N1717 C1718 1.351 . S
C1718 C1712 1.428 . S
C1718 N1717 1.351 . S
C1718 C1719 1.434 . S
C1719 C1710 1.429 . S
C1719 N1716 1.350 . S
C1719 C1718 1.434 . S
C1720 C1721 1.369 . S
C1720 C1722 1.419 . S
C1720 H1724 0.930 . S
C1721 C1720 1.369 . S
C1721 C1730 1.429 . S
C1722 C1720 1.419 . S
C1722 C1723 1.363 . S
C1722 H1725 0.929 . S
C1723 C1722 1.363 . S
C1723 C1729 1.428 . S
H1724 C1720 0.930 . S
H1725 C1722 0.929 . S
S1726 N1727 1.613 . S
S1726 N1728 1.610 . S
N1727 S1726 1.613 . S
N1727 C1730 1.350 . S
N1728 S1726 1.610 . S
N1728 C1729 1.351 . S
C1729 C1723 1.428 . S
C1729 N1728 1.351 . S
C1729 C1730 1.434 . S
C1730 C1721 1.429 . S
C1730 N1727 1.350 . S
C1730 C1729 1.434 . S
C1731 C1732 1.369 . S
C1731 C1733 1.419 . S
C1731 H1735 0.930 . S
C1732 C1731 1.369 . S
C1732 C1741 1.429 . S
C1733 C1731 1.419 . S
C1733 C1734 1.363 . S
C1733 H1736 0.929 . S
C1734 C1733 1.363 . S
C1734 C1740 1.428 . S
H1735 C1731 0.930 . S
H1736 C1733 0.929 . S
S1737 N1738 1.613 . S
S1737 N1739 1.610 . S
N1738 S1737 1.613 . S
N1738 C1741 1.350 . S
N1739 S1737 1.610 . S
N1739 C1740 1.351 . S
C1740 C1734 1.428 . S
C1740 N1739 1.351 . S
C1740 C1741 1.434 . S
C1741 C1732 1.429 . S
C1741 N1738 1.350 . S
C1741 C1740 1.434 . S
C1742 C1743 1.369 . S
C1742 C1744 1.419 . S
C1742 H1746 0.930 . S
C1743 C1742 1.369 . S
C1743 C1752 1.429 . S
C1744 C1742 1.419 . S
C1744 C1745 1.363 . S
C1744 H1747 0.929 . S
C1745 C1744 1.363 . S
C1745 C1751 1.428 . S
H1746 C1742 0.930 . S
H1747 C1744 0.929 . S
S1748 N1749 1.613 1_655 S
S1748 N1750 1.610 . S
N1749 S1748 1.613 1_455 S
N1749 C1752 1.350 1_455 S
N1750 S1748 1.610 . S
N1750 C1751 1.351 . S
C1751 C1745 1.428 . S
C1751 N1750 1.351 . S
C1751 C1752 1.434 . S
C1752 C1743 1.429 . S
C1752 N1749 1.350 1_655 S
C1752 C1751 1.434 . S
C1753 C1754 1.369 . S
C1753 C1755 1.419 . S
C1753 H1757 0.930 . S
C1754 C1753 1.369 . S
C1754 C1763 1.429 . S
C1755 C1753 1.419 . S
C1755 C1756 1.363 . S
C1755 H1758 0.929 . S
C1756 C1755 1.363 . S
C1756 C1762 1.428 . S
H1757 C1753 0.930 . S
H1758 C1755 0.929 . S
S1759 N1760 1.613 . S
S1759 N1761 1.610 . S
N1760 S1759 1.613 . S
N1760 C1763 1.350 . S
N1761 S1759 1.610 . S
N1761 C1762 1.351 . S
C1762 C1756 1.428 . S
C1762 N1761 1.351 . S
C1762 C1763 1.434 . S
C1763 C1754 1.429 . S
C1763 N1760 1.350 . S
C1763 C1762 1.434 . S
C1764 C1765 1.369 . S
C1764 C1766 1.419 . S
C1764 H1768 0.930 . S
C1765 C1764 1.369 . S
C1765 C1774 1.429 . S
C1766 C1764 1.419 . S
C1766 C1767 1.363 . S
C1766 H1769 0.929 . S
C1767 C1766 1.363 . S
C1767 C1773 1.428 . S
H1768 C1764 0.930 . S
H1769 C1766 0.929 . S
S1770 N1771 1.613 . S
S1770 N1772 1.610 . S
N1771 S1770 1.613 . S
N1771 C1774 1.350 . S
N1772 S1770 1.610 . S
N1772 C1773 1.351 . S
C1773 C1767 1.428 . S
C1773 N1772 1.351 . S
C1773 C1774 1.434 . S
C1774 C1765 1.429 . S
C1774 N1771 1.350 . S
C1774 C1773 1.434 . S
C1775 C1776 1.369 . S
C1775 C1777 1.419 . S
C1775 H1779 0.930 . S
C1776 C1775 1.369 . S
C1776 C1785 1.429 . S
C1777 C1775 1.419 . S
C1777 C1778 1.363 . S
C1777 H1780 0.929 . S
C1778 C1777 1.363 . S
C1778 C1784 1.428 . S
H1779 C1775 0.930 . S
H1780 C1777 0.929 . S
S1781 N1782 1.613 . S
S1781 N1783 1.592 1_545 S
N1782 S1781 1.613 . S
N1782 C1785 1.350 . S
N1783 S1781 1.592 1_565 S
N1783 C1784 1.337 1_565 S
C1784 C1778 1.428 . S
C1784 N1783 1.337 1_545 S
C1784 C1785 1.434 . S
C1785 C1776 1.429 . S
C1785 N1782 1.350 . S
C1785 C1784 1.434 . S
C1786 C1787 1.369 . S
C1786 C1788 1.419 . S
C1786 H1790 0.930 . S
C1787 C1786 1.369 . S
C1787 C1796 1.429 . S
C1788 C1786 1.419 . S
C1788 C1789 1.363 . S
C1788 H1791 0.929 . S
C1789 C1788 1.363 . S
C1789 C1795 1.428 . S
H1790 C1786 0.930 . S
H1791 C1788 0.929 . S
S1792 N1793 1.613 1_655 S
S1792 N1794 1.610 . S
N1793 S1792 1.613 1_455 S
N1793 C1796 1.350 1_455 S
N1794 S1792 1.610 . S
N1794 C1795 1.351 . S
C1795 C1789 1.428 . S
C1795 N1794 1.351 . S
C1795 C1796 1.434 . S
C1796 C1787 1.429 . S
C1796 N1793 1.350 1_655 S
C1796 C1795 1.434 . S
C1797 C1798 1.369 . S
C1797 C1799 1.419 . S
C1797 H1801 0.930 . S
C1798 C1797 1.369 . S
C1798 C1807 1.429 . S
C1799 C1797 1.419 . S
C1799 C1800 1.363 . S
C1799 H1802 0.929 . S
C1800 C1799 1.363 . S
C1800 C1806 1.428 . S
H1801 C1797 0.930 . S
H1802 C1799 0.929 . S
S1803 N1804 1.613 . S
S1803 N1805 1.610 . S
N1804 S1803 1.613 . S
N1804 C1807 1.350 . S
N1805 S1803 1.610 . S
N1805 C1806 1.351 . S
C1806 C1800 1.428 . S
C1806 N1805 1.351 . S
C1806 C1807 1.434 . S
C1807 C1798 1.429 . S
C1807 N1804 1.350 . S
C1807 C1806 1.434 . S
C1808 C1809 1.369 . S
C1808 C1810 1.419 . S
C1808 H1812 0.930 . S
C1809 C1808 1.369 . S
C1809 C1818 1.429 . S
C1810 C1808 1.419 . S
C1810 C1811 1.363 . S
C1810 H1813 0.929 . S
C1811 C1810 1.363 . S
C1811 C1817 1.428 . S
H1812 C1808 0.930 . S
H1813 C1810 0.929 . S
S1814 N1815 1.613 . S
S1814 N1816 1.610 . S
N1815 S1814 1.613 . S
N1815 C1818 1.350 . S
N1816 S1814 1.610 . S
N1816 C1817 1.351 . S
C1817 C1811 1.428 . S
C1817 N1816 1.351 . S
C1817 C1818 1.434 . S
C1818 C1809 1.429 . S
C1818 N1815 1.350 . S
C1818 C1817 1.434 . S
C1819 C1820 1.369 . S
C1819 C1821 1.419 . S
C1819 H1823 0.930 . S
C1820 C1819 1.369 . S
C1820 C1829 1.429 . S
C1821 C1819 1.419 . S
C1821 C1822 1.363 . S
C1821 H1824 0.929 . S
C1822 C1821 1.363 . S
C1822 C1828 1.428 . S
H1823 C1819 0.930 . S
H1824 C1821 0.929 . S
S1825 N1826 1.613 . S
S1825 N1827 1.610 . S
N1826 S1825 1.613 . S
N1826 C1829 1.350 . S
N1827 S1825 1.610 . S
N1827 C1828 1.351 . S
C1828 C1822 1.428 . S
C1828 N1827 1.351 . S
C1828 C1829 1.434 . S
C1829 C1820 1.429 . S
C1829 N1826 1.350 . S
C1829 C1828 1.434 . S
C1830 C1831 1.369 . S
C1830 C1832 1.419 . S
C1830 H1834 0.930 . S
C1831 C1830 1.369 . S
C1831 C1840 1.429 . S
C1832 C1830 1.419 . S
C1832 C1833 1.363 . S
C1832 H1835 0.929 . S
C1833 C1832 1.363 . S
C1833 C1839 1.428 . S
H1834 C1830 0.930 . S
H1835 C1832 0.929 . S
S1836 N1837 1.613 . S
S1836 N1838 1.610 . S
N1837 S1836 1.613 . S
N1837 C1840 1.350 . S
N1838 S1836 1.610 . S
N1838 C1839 1.351 . S
C1839 C1833 1.428 . S
C1839 N1838 1.351 . S
C1839 C1840 1.434 . S
C1840 C1831 1.429 . S
C1840 N1837 1.350 . S
C1840 C1839 1.434 . S
C1841 C1842 1.369 . S
C1841 C1843 1.419 . S
C1841 H1845 0.930 . S
C1842 C1841 1.369 . S
C1842 C1851 1.429 . S
C1843 C1841 1.419 . S
C1843 C1844 1.363 . S
C1843 H1846 0.929 . S
C1844 C1843 1.363 . S
C1844 C1850 1.428 . S
H1845 C1841 0.930 . S
H1846 C1843 0.929 . S
S1847 N1848 1.613 1_545 S
S1847 N1849 1.610 . S
N1848 S1847 1.613 1_565 S
N1848 C1851 1.350 1_565 S
N1849 S1847 1.610 . S
N1849 C1850 1.351 . S
C1850 C1844 1.428 . S
C1850 N1849 1.351 . S
C1850 C1851 1.434 . S
C1851 C1842 1.429 . S
C1851 N1848 1.350 1_545 S
C1851 C1850 1.434 . S
C1852 C1853 1.369 . S
C1852 C1854 1.419 . S
C1852 H1856 0.930 . S
C1853 C1852 1.369 . S
C1853 C1862 1.429 . S
C1854 C1852 1.419 . S
C1854 C1855 1.363 . S
C1854 H1857 0.929 . S
C1855 C1854 1.363 . S
C1855 C1861 1.428 . S
H1856 C1852 0.930 . S
H1857 C1854 0.929 . S
S1858 N1859 1.613 . S
S1858 N1860 1.610 . S
N1859 S1858 1.613 . S
N1859 C1862 1.350 . S
N1860 S1858 1.610 . S
N1860 C1861 1.351 . S
C1861 C1855 1.428 . S
C1861 N1860 1.351 . S
C1861 C1862 1.434 . S
C1862 C1853 1.429 . S
C1862 N1859 1.350 . S
C1862 C1861 1.434 . S
C1863 C1864 1.369 . S
C1863 C1865 1.419 . S
C1863 H1867 0.930 . S
C1864 C1863 1.369 . S
C1864 C1873 1.429 . S
C1865 C1863 1.419 . S
C1865 C1866 1.363 . S
C1865 H1868 0.929 . S
C1866 C1865 1.363 . S
C1866 C1872 1.428 . S
H1867 C1863 0.930 . S
H1868 C1865 0.929 . S
S1869 N1870 1.613 . S
S1869 N1871 1.610 1_565 S
N1870 S1869 1.613 . S
N1870 C1873 1.350 . S
N1871 S1869 1.610 1_545 S
N1871 C1872 1.351 1_545 S
C1872 C1866 1.428 . S
C1872 N1871 1.351 1_565 S
C1872 C1873 1.434 . S
C1873 C1864 1.429 . S
C1873 N1870 1.350 . S
C1873 C1872 1.434 . S
C1874 C1875 1.369 . S
C1874 C1876 1.419 . S
C1874 H1878 0.930 . S
C1875 C1874 1.369 . S
C1875 C1884 1.429 . S
C1876 C1874 1.419 . S
C1876 C1877 1.363 . S
C1876 H1879 0.929 . S
C1877 C1876 1.363 . S
C1877 C1883 1.428 . S
H1878 C1874 0.930 . S
H1879 C1876 0.929 . S
S1880 N1881 1.613 . S
S1880 N1882 1.618 . S
N1881 S1880 1.613 . S
N1881 C1884 1.350 . S
N1882 S1880 1.618 . S
N1882 C1883 1.357 . S
C1883 C1877 1.428 . S
C1883 N1882 1.357 . S
C1883 C1884 1.434 . S
C1884 C1875 1.429 . S
C1884 N1881 1.350 . S
C1884 C1883 1.434 . S
C1885 C1886 1.369 . S
C1885 C1887 1.419 . S
C1885 H1889 0.930 . S
C1886 C1885 1.369 . S
C1886 C1895 1.429 . S
C1887 C1885 1.419 . S
C1887 C1888 1.363 . S
C1887 H1890 0.929 . S
C1888 C1887 1.363 . S
C1888 C1894 1.428 . S
H1889 C1885 0.930 . S
H1890 C1887 0.929 . S
S1891 N1892 1.613 . S
S1891 N1893 1.610 . S
N1892 S1891 1.613 . S
N1892 C1895 1.350 . S
N1893 S1891 1.610 . S
N1893 C1894 1.351 . S
C1894 C1888 1.428 . S
C1894 N1893 1.351 . S
C1894 C1895 1.434 . S
C1895 C1886 1.429 . S
C1895 N1892 1.350 . S
C1895 C1894 1.434 . S
C1896 C1897 1.369 . S
C1896 C1898 1.419 . S
C1896 H1900 0.930 . S
C1897 C1896 1.369 . S
C1897 C1906 1.429 . S
C1898 C1896 1.419 . S
C1898 C1899 1.363 . S
C1898 H1901 0.929 . S
C1899 C1898 1.363 . S
C1899 C1905 1.428 . S
H1900 C1896 0.930 . S
H1901 C1898 0.929 . S
S1902 N1903 1.613 . S
S1902 N1904 1.610 . S
N1903 S1902 1.613 . S
N1903 C1906 1.350 . S
N1904 S1902 1.610 . S
N1904 C1905 1.351 . S
C1905 C1899 1.428 . S
C1905 N1904 1.351 . S
C1905 C1906 1.434 . S
C1906 C1897 1.429 . S
C1906 N1903 1.350 . S
C1906 C1905 1.434 . S
C1907 C1908 1.369 . S
C1907 C1909 1.419 . S
C1907 H1911 0.930 . S
C1908 C1907 1.369 . S
C1908 C1917 1.429 . S
C1909 C1907 1.419 . S
C1909 C1910 1.363 . S
C1909 H1912 0.929 . S
C1910 C1909 1.363 . S
C1910 C1916 1.428 . S
H1911 C1907 0.930 . S
H1912 C1909 0.929 . S
S1913 N1914 1.613 . S
S1913 N1915 1.610 . S
N1914 S1913 1.613 . S
N1914 C1917 1.350 . S
N1915 S1913 1.610 . S
N1915 C1916 1.351 . S
C1916 C1910 1.428 . S
C1916 N1915 1.351 . S
C1916 C1917 1.434 . S
C1917 C1908 1.429 . S
C1917 N1914 1.350 . S
C1917 C1916 1.434 . S
C1918 C1919 1.369 . S
C1918 C1920 1.419 . S
C1918 H1922 0.930 . S
C1919 C1918 1.369 . S
C1919 C1928 1.429 . S
C1920 C1918 1.419 . S
C1920 C1921 1.363 . S
C1920 H1923 0.929 . S
C1921 C1920 1.363 . S
C1921 C1927 1.428 . S
H1922 C1918 0.930 . S
H1923 C1920 0.929 . S
S1924 N1925 1.613 . S
S1924 N1926 1.610 . S
N1925 S1924 1.613 . S
N1925 C1928 1.350 . S
N1926 S1924 1.610 . S
N1926 C1927 1.351 . S
C1927 C1921 1.428 . S
C1927 N1926 1.351 . S
C1927 C1928 1.434 . S
C1928 C1919 1.429 . S
C1928 N1925 1.350 . S
C1928 C1927 1.434 . S
C1929 C1930 1.369 . S
C1929 C1931 1.419 . S
C1929 H1933 0.930 . S
C1930 C1929 1.369 . S
C1930 C1939 1.429 . S
C1931 C1929 1.419 . S
C1931 C1932 1.363 . S
C1931 H1934 0.929 . S
C1932 C1931 1.363 . S
C1932 C1938 1.428 . S
H1933 C1929 0.930 . S
H1934 C1931 0.929 . S
S1935 N1936 1.613 . S
S1935 N1937 1.610 . S
N1936 S1935 1.613 . S
N1936 C1939 1.350 . S
N1937 S1935 1.610 . S
N1937 C1938 1.351 . S
C1938 C1932 1.428 . S
C1938 N1937 1.351 . S
C1938 C1939 1.434 . S
C1939 C1930 1.429 . S
C1939 N1936 1.350 . S
C1939 C1938 1.434 . S
C1940 C1941 1.369 . S
C1940 C1942 1.419 . S
C1940 H1944 0.930 . S
C1941 C1940 1.369 . S
C1941 C1950 1.429 . S
C1942 C1940 1.419 . S
C1942 C1943 1.363 . S
C1942 H1945 0.929 . S
C1943 C1942 1.363 . S
C1943 C1949 1.428 . S
H1944 C1940 0.930 . S
H1945 C1942 0.929 . S
S1946 N1947 1.613 . S
S1946 N1948 1.610 . S
N1947 S1946 1.613 . S
N1947 C1950 1.350 . S
N1948 S1946 1.610 . S
N1948 C1949 1.351 . S
C1949 C1943 1.428 . S
C1949 N1948 1.351 . S
C1949 C1950 1.434 . S
C1950 C1941 1.429 . S
C1950 N1947 1.350 . S
C1950 C1949 1.434 . S
C1951 C1952 1.369 . S
C1951 C1953 1.419 . S
C1951 H1955 0.930 . S
C1952 C1951 1.369 . S
C1952 C1961 1.429 . S
C1953 C1951 1.419 . S
C1953 C1954 1.363 . S
C1953 H1956 0.929 . S
C1954 C1953 1.363 . S
C1954 C1960 1.428 . S
H1955 C1951 0.930 . S
H1956 C1953 0.929 . S
S1957 N1958 1.613 . S
S1957 N1959 1.610 . S
N1958 S1957 1.613 . S
N1958 C1961 1.350 . S
N1959 S1957 1.610 . S
N1959 C1960 1.351 . S
C1960 C1954 1.428 . S
C1960 N1959 1.351 . S
C1960 C1961 1.434 . S
C1961 C1952 1.429 . S
C1961 N1958 1.350 . S
C1961 C1960 1.434 . S
C1962 C1963 1.369 . S
C1962 C1964 1.419 . S
C1962 H1966 0.930 . S
C1963 C1962 1.369 . S
C1963 C1972 1.429 . S
C1964 C1962 1.419 . S
C1964 C1965 1.363 . S
C1964 H1967 0.929 . S
C1965 C1964 1.363 . S
C1965 C1971 1.428 . S
H1966 C1962 0.930 . S
H1967 C1964 0.929 . S
S1968 N1969 1.613 . S
S1968 N1970 1.610 . S
N1969 S1968 1.613 . S
N1969 C1972 1.350 . S
N1970 S1968 1.610 . S
N1970 C1971 1.351 . S
C1971 C1965 1.428 . S
C1971 N1970 1.351 . S
C1971 C1972 1.434 . S
C1972 C1963 1.429 . S
C1972 N1969 1.350 . S
C1972 C1971 1.434 . S
C1973 C1974 1.369 . S
C1973 C1975 1.419 . S
C1973 H1977 0.930 . S
C1974 C1973 1.369 . S
C1974 C1983 1.429 . S
C1975 C1973 1.419 . S
C1975 C1976 1.363 . S
C1975 H1978 0.929 . S
C1976 C1975 1.363 . S
C1976 C1982 1.428 . S
H1977 C1973 0.930 . S
H1978 C1975 0.929 . S
S1979 N1980 1.613 . S
S1979 N1981 1.610 . S
N1980 S1979 1.613 . S
N1980 C1983 1.350 . S
N1981 S1979 1.610 . S
N1981 C1982 1.351 . S
C1982 C1976 1.428 . S
C1982 N1981 1.351 . S
C1982 C1983 1.434 . S
C1983 C1974 1.429 . S
C1983 N1980 1.350 . S
C1983 C1982 1.434 . S
C1984 C1985 1.369 . S
C1984 C1986 1.419 . S
C1984 H1988 0.930 . S
C1985 C1984 1.369 . S
C1985 C1994 1.429 . S
C1986 C1984 1.419 . S
C1986 C1987 1.363 . S
C1986 H1989 0.929 . S
C1987 C1986 1.363 . S
C1987 C1993 1.428 . S
H1988 C1984 0.930 . S
H1989 C1986 0.929 . S
S1990 N1991 1.613 . S
S1990 N1992 1.610 . S
N1991 S1990 1.613 . S
N1991 C1994 1.350 . S
N1992 S1990 1.610 . S
N1992 C1993 1.351 . S
C1993 C1987 1.428 . S
C1993 N1992 1.351 . S
C1993 C1994 1.434 . S
C1994 C1985 1.429 . S
C1994 N1991 1.350 . S
C1994 C1993 1.434 . S
C1995 C1996 1.369 . S
C1995 C1997 1.419 . S
C1995 H1999 0.930 . S
C1996 C1995 1.369 . S
C1996 C2005 1.429 . S
C1997 C1995 1.419 . S
C1997 C1998 1.363 . S
C1997 H2000 0.929 . S
C1998 C1997 1.363 . S
C1998 C2004 1.428 . S
H1999 C1995 0.930 . S
H2000 C1997 0.929 . S
S2001 N2002 1.613 . S
S2001 N2003 1.610 . S
N2002 S2001 1.613 . S
N2002 C2005 1.350 . S
N2003 S2001 1.610 . S
N2003 C2004 1.351 . S
C2004 C1998 1.428 . S
C2004 N2003 1.351 . S
C2004 C2005 1.434 . S
C2005 C1996 1.429 . S
C2005 N2002 1.350 . S
C2005 C2004 1.434 . S
C2006 C2007 1.369 . S
C2006 C2008 1.419 . S
C2006 H2010 0.930 . S
C2007 C2006 1.369 . S
C2007 C2016 1.429 . S
C2008 C2006 1.419 . S
C2008 C2009 1.363 . S
C2008 H2011 0.929 . S
C2009 C2008 1.363 . S
C2009 C2015 1.428 . S
H2010 C2006 0.930 . S
H2011 C2008 0.929 . S
S2012 N2013 1.613 . S
S2012 N2014 1.610 . S
N2013 S2012 1.613 . S
N2013 C2016 1.350 . S
N2014 S2012 1.610 . S
N2014 C2015 1.351 . S
C2015 C2009 1.428 . S
C2015 N2014 1.351 . S
C2015 C2016 1.434 . S
C2016 C2007 1.429 . S
C2016 N2013 1.350 . S
C2016 C2015 1.434 . S
C2017 C2018 1.369 . S
C2017 C2019 1.419 . S
C2017 H2021 0.930 . S
C2018 C2017 1.369 . S
C2018 C2027 1.429 . S
C2019 C2017 1.419 . S
C2019 C2020 1.363 . S
C2019 H2022 0.929 . S
C2020 C2019 1.363 . S
C2020 C2026 1.428 . S
H2021 C2017 0.930 . S
H2022 C2019 0.929 . S
S2023 N2024 1.613 . S
S2023 N2025 1.610 . S
N2024 S2023 1.613 . S
N2024 C2027 1.350 . S
N2025 S2023 1.610 . S
N2025 C2026 1.351 . S
C2026 C2020 1.428 . S
C2026 N2025 1.351 . S
C2026 C2027 1.434 . S
C2027 C2018 1.429 . S
C2027 N2024 1.350 . S
C2027 C2026 1.434 . S
C2028 C2029 1.369 . S
C2028 C2030 1.419 . S
C2028 H2032 0.930 . S
C2029 C2028 1.369 . S
C2029 C2038 1.429 . S
C2030 C2028 1.419 . S
C2030 C2031 1.363 . S
C2030 H2033 0.929 . S
C2031 C2030 1.363 . S
C2031 C2037 1.428 . S
H2032 C2028 0.930 . S
H2033 C2030 0.929 . S
S2034 N2035 1.613 . S
S2034 N2036 1.610 . S
N2035 S2034 1.613 . S
N2035 C2038 1.350 . S
N2036 S2034 1.610 . S
N2036 C2037 1.351 . S
C2037 C2031 1.428 . S
C2037 N2036 1.351 . S
C2037 C2038 1.434 . S
C2038 C2029 1.429 . S
C2038 N2035 1.350 . S
C2038 C2037 1.434 . S
C2039 C2040 1.369 . S
C2039 C2041 1.419 . S
C2039 H2043 0.930 . S
C2040 C2039 1.369 . S
C2040 C2049 1.429 . S
C2041 C2039 1.419 . S
C2041 C2042 1.363 . S
C2041 H2044 0.929 . S
C2042 C2041 1.363 . S
C2042 C2048 1.428 . S
H2043 C2039 0.930 . S
H2044 C2041 0.929 . S
S2045 N2046 1.613 . S
S2045 N2047 1.610 . S
N2046 S2045 1.613 . S
N2046 C2049 1.350 . S
N2047 S2045 1.610 . S
N2047 C2048 1.351 . S
C2048 C2042 1.428 . S
C2048 N2047 1.351 . S
C2048 C2049 1.434 . S
C2049 C2040 1.429 . S
C2049 N2046 1.350 . S
C2049 C2048 1.434 . S
C2050 C2051 1.369 . S
C2050 C2052 1.419 . S
C2050 H2054 0.930 . S
C2051 C2050 1.369 . S
C2051 C2060 1.429 . S
C2052 C2050 1.419 . S
C2052 C2053 1.363 . S
C2052 H2055 0.929 . S
C2053 C2052 1.363 . S
C2053 C2059 1.428 . S
H2054 C2050 0.930 . S
H2055 C2052 0.929 . S
S2056 N2057 1.613 . S
S2056 N2058 1.610 . S
N2057 S2056 1.613 . S
N2057 C2060 1.350 . S
N2058 S2056 1.610 . S
N2058 C2059 1.351 . S
C2059 C2053 1.428 . S
C2059 N2058 1.351 . S
C2059 C2060 1.434 . S
C2060 C2051 1.429 . S
C2060 N2057 1.350 . S
C2060 C2059 1.434 . S
C2061 C2062 1.369 . S
C2061 C2063 1.419 . S
C2061 H2065 0.930 . S
C2062 C2061 1.369 . S
C2062 C2071 1.429 . S
C2063 C2061 1.419 . S
C2063 C2064 1.363 . S
C2063 H2066 0.929 . S
C2064 C2063 1.363 . S
C2064 C2070 1.428 . S
H2065 C2061 0.930 . S
H2066 C2063 0.929 . S
S2067 N2068 1.613 . S
S2067 N2069 1.610 . S
N2068 S2067 1.613 . S
N2068 C2071 1.350 . S
N2069 S2067 1.610 . S
N2069 C2070 1.351 . S
C2070 C2064 1.428 . S
C2070 N2069 1.351 . S
C2070 C2071 1.434 . S
C2071 C2062 1.429 . S
C2071 N2068 1.350 . S
C2071 C2070 1.434 . S
C2072 C2073 1.369 . S
C2072 C2074 1.419 . S
C2072 H2076 0.930 . S
C2073 C2072 1.369 . S
C2073 C2082 1.429 . S
C2074 C2072 1.419 . S
C2074 C2075 1.363 . S
C2074 H2077 0.929 . S
C2075 C2074 1.363 . S
C2075 C2081 1.428 . S
H2076 C2072 0.930 . S
H2077 C2074 0.929 . S
S2078 N2079 1.613 . S
S2078 N2080 1.610 . S
N2079 S2078 1.613 . S
N2079 C2082 1.350 . S
N2080 S2078 1.610 . S
N2080 C2081 1.351 . S
C2081 C2075 1.428 . S
C2081 N2080 1.351 . S
C2081 C2082 1.434 . S
C2082 C2073 1.429 . S
C2082 N2079 1.350 . S
C2082 C2081 1.434 . S
C2083 C2084 1.369 . S
C2083 C2085 1.419 . S
C2083 H2087 0.930 . S
C2084 C2083 1.369 . S
C2084 C2093 1.429 . S
C2085 C2083 1.419 . S
C2085 C2086 1.363 . S
C2085 H2088 0.929 . S
C2086 C2085 1.363 . S
C2086 C2092 1.428 . S
H2087 C2083 0.930 . S
H2088 C2085 0.929 . S
S2089 N2090 1.613 . S
S2089 N2091 1.610 . S
N2090 S2089 1.613 . S
N2090 C2093 1.350 . S
N2091 S2089 1.610 . S
N2091 C2092 1.351 . S
C2092 C2086 1.428 . S
C2092 N2091 1.351 . S
C2092 C2093 1.434 . S
C2093 C2084 1.429 . S
C2093 N2090 1.350 . S
C2093 C2092 1.434 . S
C2094 C2095 1.369 . S
C2094 C2096 1.419 . S
C2094 H2098 0.930 . S
C2095 C2094 1.369 . S
C2095 C2104 1.429 . S
C2096 C2094 1.419 . S
C2096 C2097 1.363 . S
C2096 H2099 0.929 . S
C2097 C2096 1.363 . S
C2097 C2103 1.428 . S
H2098 C2094 0.930 . S
H2099 C2096 0.929 . S
S2100 N2101 1.613 . S
S2100 N2102 1.610 . S
N2101 S2100 1.613 . S
N2101 C2104 1.350 . S
N2102 S2100 1.610 . S
N2102 C2103 1.351 . S
C2103 C2097 1.428 . S
C2103 N2102 1.351 . S
C2103 C2104 1.434 . S
C2104 C2095 1.429 . S
C2104 N2101 1.350 . S
C2104 C2103 1.434 . S
C2105 C2106 1.369 . S
C2105 C2107 1.419 . S
C2105 H2109 0.930 . S
C2106 C2105 1.369 . S
C2106 C2115 1.429 . S
C2107 C2105 1.419 . S
C2107 C2108 1.363 . S
C2107 H2110 0.929 . S
C2108 C2107 1.363 . S
C2108 C2114 1.428 . S
H2109 C2105 0.930 . S
H2110 C2107 0.929 . S
S2111 N2112 1.613 . S
S2111 N2113 1.610 . S
N2112 S2111 1.613 . S
N2112 C2115 1.350 . S
N2113 S2111 1.610 . S
N2113 C2114 1.351 . S
C2114 C2108 1.428 . S
C2114 N2113 1.351 . S
C2114 C2115 1.434 . S
C2115 C2106 1.429 . S
C2115 N2112 1.350 . S
C2115 C2114 1.434 . S
C2116 C2117 1.369 . S
C2116 C2118 1.419 . S
C2116 H2120 0.930 . S
C2117 C2116 1.369 . S
C2117 C2126 1.429 . S
C2118 C2116 1.419 . S
C2118 C2119 1.363 . S
C2118 H2121 0.929 . S
C2119 C2118 1.363 . S
C2119 C2125 1.428 . S
H2120 C2116 0.930 . S
H2121 C2118 0.929 . S
S2122 N2123 1.613 . S
S2122 N2124 1.610 . S
N2123 S2122 1.613 . S
N2123 C2126 1.350 . S
N2124 S2122 1.610 . S
N2124 C2125 1.351 . S
C2125 C2119 1.428 . S
C2125 N2124 1.351 . S
C2125 C2126 1.434 . S
C2126 C2117 1.429 . S
C2126 N2123 1.350 . S
C2126 C2125 1.434 . S
C2127 C2128 1.369 . S
C2127 C2129 1.419 . S
C2127 H2131 0.930 . S
C2128 C2127 1.369 . S
C2128 C2137 1.429 . S
C2129 C2127 1.419 . S
C2129 C2130 1.363 . S
C2129 H2132 0.929 . S
C2130 C2129 1.363 . S
C2130 C2136 1.428 . S
H2131 C2127 0.930 . S
H2132 C2129 0.929 . S
S2133 N2134 1.613 . S
S2133 N2135 1.610 . S
N2134 S2133 1.613 . S
N2134 C2137 1.350 . S
N2135 S2133 1.610 . S
N2135 C2136 1.351 . S
C2136 C2130 1.428 . S
C2136 N2135 1.351 . S
C2136 C2137 1.434 . S
C2137 C2128 1.429 . S
C2137 N2134 1.350 . S
C2137 C2136 1.434 . S
C2138 C2139 1.369 . S
C2138 C2140 1.419 . S
C2138 H2142 0.930 . S
C2139 C2138 1.369 . S
C2139 C2148 1.429 . S
C2140 C2138 1.419 . S
C2140 C2141 1.363 . S
C2140 H2143 0.929 . S
C2141 C2140 1.363 . S
C2141 C2147 1.428 . S
H2142 C2138 0.930 . S
H2143 C2140 0.929 . S
S2144 N2145 1.613 . S
S2144 N2146 1.610 . S
N2145 S2144 1.613 . S
N2145 C2148 1.350 . S
N2146 S2144 1.610 . S
N2146 C2147 1.351 . S
C2147 C2141 1.428 . S
C2147 N2146 1.351 . S
C2147 C2148 1.434 . S
C2148 C2139 1.429 . S
C2148 N2145 1.350 . S
C2148 C2147 1.434 . S
C2149 C2150 1.369 . S
C2149 C2151 1.419 . S
C2149 H2153 0.930 . S
C2150 C2149 1.369 . S
C2150 C2159 1.429 . S
C2151 C2149 1.419 . S
C2151 C2152 1.363 . S
C2151 H2154 0.929 . S
C2152 C2151 1.363 . S
C2152 C2158 1.428 . S
H2153 C2149 0.930 . S
H2154 C2151 0.929 . S
S2155 N2156 1.613 . S
S2155 N2157 1.610 . S
N2156 S2155 1.613 . S
N2156 C2159 1.350 . S
N2157 S2155 1.610 . S
N2157 C2158 1.351 . S
C2158 C2152 1.428 . S
C2158 N2157 1.351 . S
C2158 C2159 1.434 . S
C2159 C2150 1.429 . S
C2159 N2156 1.350 . S
C2159 C2158 1.434 . S
C2160 C2161 1.369 . S
C2160 C2162 1.419 . S
C2160 H2164 0.930 . S
C2161 C2160 1.369 . S
C2161 C2170 1.429 . S
C2162 C2160 1.419 . S
C2162 C2163 1.363 . S
C2162 H2165 0.929 . S
C2163 C2162 1.363 . S
C2163 C2169 1.428 . S
H2164 C2160 0.930 . S
H2165 C2162 0.929 . S
S2166 N2167 1.613 . S
S2166 N2168 1.610 . S
N2167 S2166 1.613 . S
N2167 C2170 1.350 . S
N2168 S2166 1.610 . S
N2168 C2169 1.351 . S
C2169 C2163 1.428 . S
C2169 N2168 1.351 . S
C2169 C2170 1.434 . S
C2170 C2161 1.429 . S
C2170 N2167 1.350 . S
C2170 C2169 1.434 . S
C2171 C2172 1.369 . S
C2171 C2173 1.419 . S
C2171 H2175 0.930 . S
C2172 C2171 1.369 . S
C2172 C2181 1.429 . S
C2173 C2171 1.419 . S
C2173 C2174 1.363 . S
C2173 H2176 0.929 . S
C2174 C2173 1.363 . S
C2174 C2180 1.428 . S
H2175 C2171 0.930 . S
H2176 C2173 0.929 . S
S2177 N2178 1.613 . S
S2177 N2179 1.610 . S
N2178 S2177 1.613 . S
N2178 C2181 1.350 . S
N2179 S2177 1.610 . S
N2179 C2180 1.351 . S
C2180 C2174 1.428 . S
C2180 N2179 1.351 . S
C2180 C2181 1.434 . S
C2181 C2172 1.429 . S
C2181 N2178 1.350 . S
C2181 C2180 1.434 . S
C2182 C2183 1.369 . S
C2182 C2184 1.419 . S
C2182 H2186 0.930 . S
C2183 C2182 1.369 . S
C2183 C2192 1.429 . S
C2184 C2182 1.419 . S
C2184 C2185 1.363 . S
C2184 H2187 0.929 . S
C2185 C2184 1.363 . S
C2185 C2191 1.428 . S
H2186 C2182 0.930 . S
H2187 C2184 0.929 . S
S2188 N2189 1.613 . S
S2188 N2190 1.610 . S
N2189 S2188 1.613 . S
N2189 C2192 1.350 . S
N2190 S2188 1.610 . S
N2190 C2191 1.351 . S
C2191 C2185 1.428 . S
C2191 N2190 1.351 . S
C2191 C2192 1.434 . S
C2192 C2183 1.429 . S
C2192 N2189 1.350 . S
C2192 C2191 1.434 . S
C2193 C2194 1.369 . S
C2193 C2195 1.419 . S
C2193 H2197 0.930 . S
C2194 C2193 1.369 . S
C2194 C2203 1.429 . S
C2195 C2193 1.419 . S
C2195 C2196 1.363 . S
C2195 H2198 0.929 . S
C2196 C2195 1.363 . S
C2196 C2202 1.428 . S
H2197 C2193 0.930 . S
H2198 C2195 0.929 . S
S2199 N2200 1.613 . S
S2199 N2201 1.610 . S
N2200 S2199 1.613 . S
N2200 C2203 1.350 . S
N2201 S2199 1.610 . S
N2201 C2202 1.351 . S
C2202 C2196 1.428 . S
C2202 N2201 1.351 . S
C2202 C2203 1.434 . S
C2203 C2194 1.429 . S
C2203 N2200 1.350 . S
C2203 C2202 1.434 . S
C2204 C2205 1.369 . S
C2204 C2206 1.419 . S
C2204 H2208 0.930 . S
C2205 C2204 1.369 . S
C2205 C2214 1.429 . S
C2206 C2204 1.419 . S
C2206 C2207 1.363 . S
C2206 H2209 0.929 . S
C2207 C2206 1.363 . S
C2207 C2213 1.428 . S
H2208 C2204 0.930 . S
H2209 C2206 0.929 . S
S2210 N2211 1.613 . S
S2210 N2212 1.610 . S
N2211 S2210 1.613 . S
N2211 C2214 1.350 . S
N2212 S2210 1.610 . S
N2212 C2213 1.351 . S
C2213 C2207 1.428 . S
C2213 N2212 1.351 . S
C2213 C2214 1.434 . S
C2214 C2205 1.429 . S
C2214 N2211 1.350 . S
C2214 C2213 1.434 . S
C2215 C2216 1.369 . S
C2215 C2217 1.419 . S
C2215 H2219 0.930 . S
C2216 C2215 1.369 . S
C2216 C2225 1.429 . S
C2217 C2215 1.419 . S
C2217 C2218 1.363 . S
C2217 H2220 0.929 . S
C2218 C2217 1.363 . S
C2218 C2224 1.428 . S
H2219 C2215 0.930 . S
H2220 C2217 0.929 . S
S2221 N2222 1.613 . S
S2221 N2223 1.610 . S
N2222 S2221 1.613 . S
N2222 C2225 1.350 . S
N2223 S2221 1.610 . S
N2223 C2224 1.351 . S
C2224 C2218 1.428 . S
C2224 N2223 1.351 . S
C2224 C2225 1.434 . S
C2225 C2216 1.429 . S
C2225 N2222 1.350 . S
C2225 C2224 1.434 . S
C2226 C2227 1.369 . S
C2226 C2228 1.419 . S
C2226 H2230 0.930 . S
C2227 C2226 1.369 . S
C2227 C2236 1.429 . S
C2228 C2226 1.419 . S
C2228 C2229 1.363 . S
C2228 H2231 0.929 . S
C2229 C2228 1.363 . S
C2229 C2235 1.428 . S
H2230 C2226 0.930 . S
H2231 C2228 0.929 . S
S2232 N2233 1.613 . S
S2232 N2234 1.610 . S
N2233 S2232 1.613 . S
N2233 C2236 1.350 . S
N2234 S2232 1.610 . S
N2234 C2235 1.351 . S
C2235 C2229 1.428 . S
C2235 N2234 1.351 . S
C2235 C2236 1.434 . S
C2236 C2227 1.429 . S
C2236 N2233 1.350 . S
C2236 C2235 1.434 . S
C2237 C2238 1.369 . S
C2237 C2239 1.419 . S
C2237 H2241 0.930 . S
C2238 C2237 1.369 . S
C2238 C2247 1.429 . S
C2239 C2237 1.419 . S
C2239 C2240 1.363 . S
C2239 H2242 0.929 . S
C2240 C2239 1.363 . S
C2240 C2246 1.428 . S
H2241 C2237 0.930 . S
H2242 C2239 0.929 . S
S2243 N2244 1.613 . S
S2243 N2245 1.610 . S
N2244 S2243 1.613 . S
N2244 C2247 1.350 . S
N2245 S2243 1.610 . S
N2245 C2246 1.351 . S
C2246 C2240 1.428 . S
C2246 N2245 1.351 . S
C2246 C2247 1.434 . S
C2247 C2238 1.429 . S
C2247 N2244 1.350 . S
C2247 C2246 1.434 . S
C2248 C2249 1.369 . S
C2248 C2250 1.419 . S
C2248 H2252 0.930 . S
C2249 C2248 1.369 . S
C2249 C2258 1.429 . S
C2250 C2248 1.419 . S
C2250 C2251 1.363 . S
C2250 H2253 0.929 . S
C2251 C2250 1.363 . S
C2251 C2257 1.428 . S
H2252 C2248 0.930 . S
H2253 C2250 0.929 . S
S2254 N2255 1.613 . S
S2254 N2256 1.610 . S
N2255 S2254 1.613 . S
N2255 C2258 1.350 . S
N2256 S2254 1.610 . S
N2256 C2257 1.351 . S
C2257 C2251 1.428 . S
C2257 N2256 1.351 . S
C2257 C2258 1.434 . S
C2258 C2249 1.429 . S
C2258 N2255 1.350 . S
C2258 C2257 1.434 . S
C2259 C2260 1.369 . S
C2259 C2261 1.419 . S
C2259 H2263 0.930 . S
C2260 C2259 1.369 . S
C2260 C2269 1.429 . S
C2261 C2259 1.419 . S
C2261 C2262 1.363 . S
C2261 H2264 0.929 . S
C2262 C2261 1.363 . S
C2262 C2268 1.428 . S
H2263 C2259 0.930 . S
H2264 C2261 0.929 . S
S2265 N2266 1.613 . S
S2265 N2267 1.610 . S
N2266 S2265 1.613 . S
N2266 C2269 1.350 . S
N2267 S2265 1.610 . S
N2267 C2268 1.351 . S
C2268 C2262 1.428 . S
C2268 N2267 1.351 . S
C2268 C2269 1.434 . S
C2269 C2260 1.429 . S
C2269 N2266 1.350 . S
C2269 C2268 1.434 . S
C2270 C2271 1.369 . S
C2270 C2272 1.419 . S
C2270 H2274 0.930 . S
C2271 C2270 1.369 . S
C2271 C2280 1.429 . S
C2272 C2270 1.419 . S
C2272 C2273 1.363 . S
C2272 H2275 0.929 . S
C2273 C2272 1.363 . S
C2273 C2279 1.428 . S
H2274 C2270 0.930 . S
H2275 C2272 0.929 . S
S2276 N2277 1.613 . S
S2276 N2278 1.610 . S
N2277 S2276 1.613 . S
N2277 C2280 1.350 . S
N2278 S2276 1.610 . S
N2278 C2279 1.351 . S
C2279 C2273 1.428 . S
C2279 N2278 1.351 . S
C2279 C2280 1.434 . S
C2280 C2271 1.429 . S
C2280 N2277 1.350 . S
C2280 C2279 1.434 . S
C2281 C2282 1.369 . S
C2281 C2283 1.419 . S
C2281 H2285 0.930 . S
C2282 C2281 1.369 . S
C2282 C2291 1.429 . S
C2283 C2281 1.419 . S
C2283 C2284 1.363 . S
C2283 H2286 0.929 . S
C2284 C2283 1.363 . S
C2284 C2290 1.428 . S
H2285 C2281 0.930 . S
H2286 C2283 0.929 . S
S2287 N2288 1.613 . S
S2287 N2289 1.610 . S
N2288 S2287 1.613 . S
N2288 C2291 1.350 . S
N2289 S2287 1.610 . S
N2289 C2290 1.351 . S
C2290 C2284 1.428 . S
C2290 N2289 1.351 . S
C2290 C2291 1.434 . S
C2291 C2282 1.429 . S
C2291 N2288 1.350 . S
C2291 C2290 1.434 . S
C2292 C2293 1.369 . S
C2292 C2294 1.419 . S
C2292 H2296 0.930 . S
C2293 C2292 1.369 . S
C2293 C2302 1.429 . S
C2294 C2292 1.419 . S
C2294 C2295 1.363 . S
C2294 H2297 0.929 . S
C2295 C2294 1.363 . S
C2295 C2301 1.428 . S
H2296 C2292 0.930 . S
H2297 C2294 0.929 . S
S2298 N2299 1.613 . S
S2298 N2300 1.610 . S
N2299 S2298 1.613 . S
N2299 C2302 1.350 . S
N2300 S2298 1.610 . S
N2300 C2301 1.351 . S
C2301 C2295 1.428 . S
C2301 N2300 1.351 . S
C2301 C2302 1.434 . S
C2302 C2293 1.429 . S
C2302 N2299 1.350 . S
C2302 C2301 1.434 . S
C2303 C2304 1.369 . S
C2303 C2305 1.419 . S
C2303 H2307 0.930 . S
C2304 C2303 1.369 . S
C2304 C2313 1.429 . S
C2305 C2303 1.419 . S
C2305 C2306 1.363 . S
C2305 H2308 0.929 . S
C2306 C2305 1.363 . S
C2306 C2312 1.428 . S
H2307 C2303 0.930 . S
H2308 C2305 0.929 . S
S2309 N2310 1.613 . S
S2309 N2311 1.610 . S
N2310 S2309 1.613 . S
N2310 C2313 1.350 . S
N2311 S2309 1.610 . S
N2311 C2312 1.351 . S
C2312 C2306 1.428 . S
C2312 N2311 1.351 . S
C2312 C2313 1.434 . S
C2313 C2304 1.429 . S
C2313 N2310 1.350 . S
C2313 C2312 1.434 . S
C2314 C2315 1.369 . S
C2314 C2316 1.419 . S
C2314 H2318 0.930 . S
C2315 C2314 1.369 . S
C2315 C2324 1.429 . S
C2316 C2314 1.419 . S
C2316 C2317 1.363 . S
C2316 H2319 0.929 . S
C2317 C2316 1.363 . S
C2317 C2323 1.428 . S
H2318 C2314 0.930 . S
H2319 C2316 0.929 . S
S2320 N2321 1.613 . S
S2320 N2322 1.610 . S
N2321 S2320 1.613 . S
N2321 C2324 1.350 . S
N2322 S2320 1.610 . S
N2322 C2323 1.351 . S
C2323 C2317 1.428 . S
C2323 N2322 1.351 . S
C2323 C2324 1.434 . S
C2324 C2315 1.429 . S
C2324 N2321 1.350 . S
C2324 C2323 1.434 . S
C2325 C2326 1.369 . S
C2325 C2327 1.419 . S
C2325 H2329 0.930 . S
C2326 C2325 1.369 . S
C2326 C2335 1.429 . S
C2327 C2325 1.419 . S
C2327 C2328 1.363 . S
C2327 H2330 0.929 . S
C2328 C2327 1.363 . S
C2328 C2334 1.428 . S
H2329 C2325 0.930 . S
H2330 C2327 0.929 . S
S2331 N2332 1.613 . S
S2331 N2333 1.610 . S
N2332 S2331 1.613 . S
N2332 C2335 1.350 . S
N2333 S2331 1.610 . S
N2333 C2334 1.351 . S
C2334 C2328 1.428 . S
C2334 N2333 1.351 . S
C2334 C2335 1.434 . S
C2335 C2326 1.429 . S
C2335 N2332 1.350 . S
C2335 C2334 1.434 . S
C2336 C2337 1.369 . S
C2336 C2338 1.419 . S
C2336 H2340 0.930 . S
C2337 C2336 1.369 . S
C2337 C2346 1.429 . S
C2338 C2336 1.419 . S
C2338 C2339 1.363 . S
C2338 H2341 0.929 . S
C2339 C2338 1.363 . S
C2339 C2345 1.428 . S
H2340 C2336 0.930 . S
H2341 C2338 0.929 . S
S2342 N2343 1.613 . S
S2342 N2344 1.610 . S
N2343 S2342 1.613 . S
N2343 C2346 1.350 . S
N2344 S2342 1.610 . S
N2344 C2345 1.351 . S
C2345 C2339 1.428 . S
C2345 N2344 1.351 . S
C2345 C2346 1.434 . S
C2346 C2337 1.429 . S
C2346 N2343 1.350 . S
C2346 C2345 1.434 . S
C2347 C2348 1.369 . S
C2347 C2349 1.419 . S
C2347 H2351 0.930 . S
C2348 C2347 1.369 . S
C2348 C2357 1.429 . S
C2349 C2347 1.419 . S
C2349 C2350 1.363 . S
C2349 H2352 0.929 . S
C2350 C2349 1.363 . S
C2350 C2356 1.428 . S
H2351 C2347 0.930 . S
H2352 C2349 0.929 . S
S2353 N2354 1.613 . S
S2353 N2355 1.610 . S
N2354 S2353 1.613 . S
N2354 C2357 1.350 . S
N2355 S2353 1.610 . S
N2355 C2356 1.351 . S
C2356 C2350 1.428 . S
C2356 N2355 1.351 . S
C2356 C2357 1.434 . S
C2357 C2348 1.429 . S
C2357 N2354 1.350 . S
C2357 C2356 1.434 . S
C2358 C2359 1.369 . S
C2358 C2360 1.419 . S
C2358 H2362 0.930 . S
C2359 C2358 1.369 . S
C2359 C2368 1.429 . S
C2360 C2358 1.419 . S
C2360 C2361 1.363 . S
C2360 H2363 0.929 . S
C2361 C2360 1.363 . S
C2361 C2367 1.428 . S
H2362 C2358 0.930 . S
H2363 C2360 0.929 . S
S2364 N2365 1.613 . S
S2364 N2366 1.610 . S
N2365 S2364 1.613 . S
N2365 C2368 1.350 . S
N2366 S2364 1.610 . S
N2366 C2367 1.351 . S
C2367 C2361 1.428 . S
C2367 N2366 1.351 . S
C2367 C2368 1.434 . S
C2368 C2359 1.429 . S
C2368 N2365 1.350 . S
C2368 C2367 1.434 . S
C2369 C2370 1.369 . S
C2369 C2371 1.419 . S
C2369 H2373 0.930 . S
C2370 C2369 1.369 . S
C2370 C2379 1.429 . S
C2371 C2369 1.419 . S
C2371 C2372 1.363 . S
C2371 H2374 0.929 . S
C2372 C2371 1.363 . S
C2372 C2378 1.428 . S
H2373 C2369 0.930 . S
H2374 C2371 0.929 . S
S2375 N2376 1.613 . S
S2375 N2377 1.610 . S
N2376 S2375 1.613 . S
N2376 C2379 1.350 . S
N2377 S2375 1.610 . S
N2377 C2378 1.351 . S
C2378 C2372 1.428 . S
C2378 N2377 1.351 . S
C2378 C2379 1.434 . S
C2379 C2370 1.429 . S
C2379 N2376 1.350 . S
C2379 C2378 1.434 . S
C2380 C2381 1.369 . S
C2380 C2382 1.419 . S
C2380 H2384 0.930 . S
C2381 C2380 1.369 . S
C2381 C2390 1.429 . S
C2382 C2380 1.419 . S
C2382 C2383 1.363 . S
C2382 H2385 0.929 . S
C2383 C2382 1.363 . S
C2383 C2389 1.428 . S
H2384 C2380 0.930 . S
H2385 C2382 0.929 . S
S2386 N2387 1.613 . S
S2386 N2388 1.610 . S
N2387 S2386 1.613 . S
N2387 C2390 1.350 . S
N2388 S2386 1.610 . S
N2388 C2389 1.351 . S
C2389 C2383 1.428 . S
C2389 N2388 1.351 . S
C2389 C2390 1.434 . S
C2390 C2381 1.429 . S
C2390 N2387 1.350 . S
C2390 C2389 1.434 . S
C2391 C2392 1.369 . S
C2391 C2393 1.419 . S
C2391 H2395 0.930 . S
C2392 C2391 1.369 . S
C2392 C2401 1.429 . S
C2393 C2391 1.419 . S
C2393 C2394 1.363 . S
C2393 H2396 0.929 . S
C2394 C2393 1.363 . S
C2394 C2400 1.428 . S
H2395 C2391 0.930 . S
H2396 C2393 0.929 . S
S2397 N2398 1.613 . S
S2397 N2399 1.610 . S
N2398 S2397 1.613 . S
N2398 C2401 1.350 . S
N2399 S2397 1.610 . S
N2399 C2400 1.351 . S
C2400 C2394 1.428 . S
C2400 N2399 1.351 . S
C2400 C2401 1.434 . S
C2401 C2392 1.429 . S
C2401 N2398 1.350 . S
C2401 C2400 1.434 . S
C2402 C2403 1.369 . S
C2402 C2404 1.419 . S
C2402 H2406 0.930 . S
C2403 C2402 1.369 . S
C2403 C2412 1.429 . S
C2404 C2402 1.419 . S
C2404 C2405 1.363 . S
C2404 H2407 0.929 . S
C2405 C2404 1.363 . S
C2405 C2411 1.428 . S
H2406 C2402 0.930 . S
H2407 C2404 0.929 . S
S2408 N2409 1.613 . S
S2408 N2410 1.610 . S
N2409 S2408 1.613 . S
N2409 C2412 1.350 . S
N2410 S2408 1.610 . S
N2410 C2411 1.351 . S
C2411 C2405 1.428 . S
C2411 N2410 1.351 . S
C2411 C2412 1.434 . S
C2412 C2403 1.429 . S
C2412 N2409 1.350 . S
C2412 C2411 1.434 . S
C2413 C2414 1.369 . S
C2413 C2415 1.419 . S
C2413 H2417 0.930 . S
C2414 C2413 1.369 . S
C2414 C2423 1.429 . S
C2415 C2413 1.419 . S
C2415 C2416 1.363 . S
C2415 H2418 0.929 . S
C2416 C2415 1.363 . S
C2416 C2422 1.428 . S
H2417 C2413 0.930 . S
H2418 C2415 0.929 . S
S2419 N2420 1.613 . S
S2419 N2421 1.610 . S
N2420 S2419 1.613 . S
N2420 C2423 1.350 . S
N2421 S2419 1.610 . S
N2421 C2422 1.351 . S
C2422 C2416 1.428 . S
C2422 N2421 1.351 . S
C2422 C2423 1.434 . S
C2423 C2414 1.429 . S
C2423 N2420 1.350 . S
C2423 C2422 1.434 . S
C2424 C2425 1.369 . S
C2424 C2426 1.419 . S
C2424 H2428 0.930 . S
C2425 C2424 1.369 . S
C2425 C2434 1.429 . S
C2426 C2424 1.419 . S
C2426 C2427 1.363 . S
C2426 H2429 0.929 . S
C2427 C2426 1.363 . S
C2427 C2433 1.428 . S
H2428 C2424 0.930 . S
H2429 C2426 0.929 . S
S2430 N2431 1.613 . S
S2430 N2432 1.610 . S
N2431 S2430 1.613 . S
N2431 C2434 1.350 . S
N2432 S2430 1.610 . S
N2432 C2433 1.351 . S
C2433 C2427 1.428 . S
C2433 N2432 1.351 . S
C2433 C2434 1.434 . S
C2434 C2425 1.429 . S
C2434 N2431 1.350 . S
C2434 C2433 1.434 . S
C2435 C2436 1.369 . S
C2435 C2437 1.419 . S
C2435 H2439 0.930 . S
C2436 C2435 1.369 . S
C2436 C2445 1.429 . S
C2437 C2435 1.419 . S
C2437 C2438 1.363 . S
C2437 H2440 0.929 . S
C2438 C2437 1.363 . S
C2438 C2444 1.428 . S
H2439 C2435 0.930 . S
H2440 C2437 0.929 . S
S2441 N2442 1.613 . S
S2441 N2443 1.610 . S
N2442 S2441 1.613 . S
N2442 C2445 1.350 . S
N2443 S2441 1.610 . S
N2443 C2444 1.351 . S
C2444 C2438 1.428 . S
C2444 N2443 1.351 . S
C2444 C2445 1.434 . S
C2445 C2436 1.429 . S
C2445 N2442 1.350 . S
C2445 C2444 1.434 . S
C2446 C2447 1.369 . S
C2446 C2448 1.419 . S
C2446 H2450 0.930 . S
C2447 C2446 1.369 . S
C2447 C2456 1.429 . S
C2448 C2446 1.419 . S
C2448 C2449 1.363 . S
C2448 H2451 0.929 . S
C2449 C2448 1.363 . S
C2449 C2455 1.428 . S
H2450 C2446 0.930 . S
H2451 C2448 0.929 . S
S2452 N2453 1.613 . S
S2452 N2454 1.610 . S
N2453 S2452 1.613 . S
N2453 C2456 1.350 . S
N2454 S2452 1.610 . S
N2454 C2455 1.351 . S
C2455 C2449 1.428 . S
C2455 N2454 1.351 . S
C2455 C2456 1.434 . S
C2456 C2447 1.429 . S
C2456 N2453 1.350 . S
C2456 C2455 1.434 . S
C2457 C2458 1.369 . S
C2457 C2459 1.419 . S
C2457 H2461 0.930 . S
C2458 C2457 1.369 . S
C2458 C2467 1.429 . S
C2459 C2457 1.419 . S
C2459 C2460 1.363 . S
C2459 H2462 0.929 . S
C2460 C2459 1.363 . S
C2460 C2466 1.428 . S
H2461 C2457 0.930 . S
H2462 C2459 0.929 . S
S2463 N2464 1.613 . S
S2463 N2465 1.610 . S
N2464 S2463 1.613 . S
N2464 C2467 1.350 . S
N2465 S2463 1.610 . S
N2465 C2466 1.351 . S
C2466 C2460 1.428 . S
C2466 N2465 1.351 . S
C2466 C2467 1.434 . S
C2467 C2458 1.429 . S
C2467 N2464 1.350 . S
C2467 C2466 1.434 . S
C2468 C2469 1.369 . S
C2468 C2470 1.419 . S
C2468 H2472 0.930 . S
C2469 C2468 1.369 . S
C2469 C2478 1.429 . S
C2470 C2468 1.419 . S
C2470 C2471 1.363 . S
C2470 H2473 0.929 . S
C2471 C2470 1.363 . S
C2471 C2477 1.428 . S
H2472 C2468 0.930 . S
H2473 C2470 0.929 . S
S2474 N2475 1.613 . S
S2474 N2476 1.610 . S
N2475 S2474 1.613 . S
N2475 C2478 1.350 . S
N2476 S2474 1.610 . S
N2476 C2477 1.351 . S
C2477 C2471 1.428 . S
C2477 N2476 1.351 . S
C2477 C2478 1.434 . S
C2478 C2469 1.429 . S
C2478 N2475 1.350 . S
C2478 C2477 1.434 . S
C2479 C2480 1.369 . S
C2479 C2481 1.419 . S
C2479 H2483 0.930 . S
C2480 C2479 1.369 . S
C2480 C2489 1.429 . S
C2481 C2479 1.419 . S
C2481 C2482 1.363 . S
C2481 H2484 0.929 . S
C2482 C2481 1.363 . S
C2482 C2488 1.428 . S
H2483 C2479 0.930 . S
H2484 C2481 0.929 . S
S2485 N2486 1.613 . S
S2485 N2487 1.610 . S
N2486 S2485 1.613 . S
N2486 C2489 1.350 . S
N2487 S2485 1.610 . S
N2487 C2488 1.351 . S
C2488 C2482 1.428 . S
C2488 N2487 1.351 . S
C2488 C2489 1.434 . S
C2489 C2480 1.429 . S
C2489 N2486 1.350 . S
C2489 C2488 1.434 . S
C2490 C2491 1.369 . S
C2490 C2492 1.419 . S
C2490 H2494 0.930 . S
C2491 C2490 1.369 . S
C2491 C2500 1.429 . S
C2492 C2490 1.419 . S
C2492 C2493 1.363 . S
C2492 H2495 0.929 . S
C2493 C2492 1.363 . S
C2493 C2499 1.428 . S
H2494 C2490 0.930 . S
H2495 C2492 0.929 . S
S2496 N2497 1.613 . S
S2496 N2498 1.610 . S
N2497 S2496 1.613 . S
N2497 C2500 1.350 . S
N2498 S2496 1.610 . S
N2498 C2499 1.351 . S
C2499 C2493 1.428 . S
C2499 N2498 1.351 . S
C2499 C2500 1.434 . S
C2500 C2491 1.429 . S
C2500 N2497 1.350 . S
C2500 C2499 1.434 . S
C2501 C2502 1.369 . S
C2501 C2503 1.419 . S
C2501 H2505 0.930 . S
C2502 C2501 1.369 . S
C2502 C2511 1.429 . S
C2503 C2501 1.419 . S
C2503 C2504 1.363 . S
C2503 H2506 0.929 . S
C2504 C2503 1.363 . S
C2504 C2510 1.428 . S
H2505 C2501 0.930 . S
H2506 C2503 0.929 . S
S2507 N2508 1.613 . S
S2507 N2509 1.610 . S
N2508 S2507 1.613 . S
N2508 C2511 1.350 . S
N2509 S2507 1.610 . S
N2509 C2510 1.351 . S
C2510 C2504 1.428 . S
C2510 N2509 1.351 . S
C2510 C2511 1.434 . S
C2511 C2502 1.429 . S
C2511 N2508 1.350 . S
C2511 C2510 1.434 . S
C2512 C2513 1.369 . S
C2512 C2514 1.419 . S
C2512 H2516 0.930 . S
C2513 C2512 1.369 . S
C2513 C2522 1.429 . S
C2514 C2512 1.419 . S
C2514 C2515 1.363 . S
C2514 H2517 0.929 . S
C2515 C2514 1.363 . S
C2515 C2521 1.428 . S
H2516 C2512 0.930 . S
H2517 C2514 0.929 . S
S2518 N2519 1.613 . S
S2518 N2520 1.610 . S
N2519 S2518 1.613 . S
N2519 C2522 1.350 . S
N2520 S2518 1.610 . S
N2520 C2521 1.351 . S
C2521 C2515 1.428 . S
C2521 N2520 1.351 . S
C2521 C2522 1.434 . S
C2522 C2513 1.429 . S
C2522 N2519 1.350 . S
C2522 C2521 1.434 . S
C2523 C2524 1.369 . S
C2523 C2525 1.419 . S
C2523 H2527 0.930 . S
C2524 C2523 1.369 . S
C2524 C2533 1.429 . S
C2525 C2523 1.419 . S
C2525 C2526 1.363 . S
C2525 H2528 0.929 . S
C2526 C2525 1.363 . S
C2526 C2532 1.428 . S
H2527 C2523 0.930 . S
H2528 C2525 0.929 . S
S2529 N2530 1.613 . S
S2529 N2531 1.610 . S
N2530 S2529 1.613 . S
N2530 C2533 1.350 . S
N2531 S2529 1.610 . S
N2531 C2532 1.351 . S
C2532 C2526 1.428 . S
C2532 N2531 1.351 . S
C2532 C2533 1.434 . S
C2533 C2524 1.429 . S
C2533 N2530 1.350 . S
C2533 C2532 1.434 . S
C2534 C2535 1.369 . S
C2534 C2536 1.419 . S
C2534 H2538 0.930 . S
C2535 C2534 1.369 . S
C2535 C2544 1.429 . S
C2536 C2534 1.419 . S
C2536 C2537 1.363 . S
C2536 H2539 0.929 . S
C2537 C2536 1.363 . S
C2537 C2543 1.428 . S
H2538 C2534 0.930 . S
H2539 C2536 0.929 . S
S2540 N2541 1.613 . S
S2540 N2542 1.610 . S
N2541 S2540 1.613 . S
N2541 C2544 1.350 . S
N2542 S2540 1.610 . S
N2542 C2543 1.351 . S
C2543 C2537 1.428 . S
C2543 N2542 1.351 . S
C2543 C2544 1.434 . S
C2544 C2535 1.429 . S
C2544 N2541 1.350 . S
C2544 C2543 1.434 . S
C2545 C2546 1.369 . S
C2545 C2547 1.419 . S
C2545 H2549 0.930 . S
C2546 C2545 1.369 . S
C2546 C2555 1.429 . S
C2547 C2545 1.419 . S
C2547 C2548 1.363 . S
C2547 H2550 0.929 . S
C2548 C2547 1.363 . S
C2548 C2554 1.428 . S
H2549 C2545 0.930 . S
H2550 C2547 0.929 . S
S2551 N2552 1.613 . S
S2551 N2553 1.610 . S
N2552 S2551 1.613 . S
N2552 C2555 1.350 . S
N2553 S2551 1.610 . S
N2553 C2554 1.351 . S
C2554 C2548 1.428 . S
C2554 N2553 1.351 . S
C2554 C2555 1.434 . S
C2555 C2546 1.429 . S
C2555 N2552 1.350 . S
C2555 C2554 1.434 . S
C2556 C2557 1.369 . S
C2556 C2558 1.419 . S
C2556 H2560 0.930 . S
C2557 C2556 1.369 . S
C2557 C2566 1.429 . S
C2558 C2556 1.419 . S
C2558 C2559 1.363 . S
C2558 H2561 0.929 . S
C2559 C2558 1.363 . S
C2559 C2565 1.428 . S
H2560 C2556 0.930 . S
H2561 C2558 0.929 . S
S2562 N2563 1.613 . S
S2562 N2564 1.610 . S
N2563 S2562 1.613 . S
N2563 C2566 1.350 . S
N2564 S2562 1.610 . S
N2564 C2565 1.351 . S
C2565 C2559 1.428 . S
C2565 N2564 1.351 . S
C2565 C2566 1.434 . S
C2566 C2557 1.429 . S
C2566 N2563 1.350 . S
C2566 C2565 1.434 . S
C2567 C2568 1.369 . S
C2567 C2569 1.419 . S
C2567 H2571 0.930 . S
C2568 C2567 1.369 . S
C2568 C2577 1.429 . S
C2569 C2567 1.419 . S
C2569 C2570 1.363 . S
C2569 H2572 0.929 . S
C2570 C2569 1.363 . S
C2570 C2576 1.428 . S
H2571 C2567 0.930 . S
H2572 C2569 0.929 . S
S2573 N2574 1.613 . S
S2573 N2575 1.610 . S
N2574 S2573 1.613 . S
N2574 C2577 1.350 . S
N2575 S2573 1.610 . S
N2575 C2576 1.351 . S
C2576 C2570 1.428 . S
C2576 N2575 1.351 . S
C2576 C2577 1.434 . S
C2577 C2568 1.429 . S
C2577 N2574 1.350 . S
C2577 C2576 1.434 . S
C2578 C2579 1.369 . S
C2578 C2580 1.419 . S
C2578 H2582 0.930 . S
C2579 C2578 1.369 . S
C2579 C2588 1.429 . S
C2580 C2578 1.419 . S
C2580 C2581 1.363 . S
C2580 H2583 0.929 . S
C2581 C2580 1.363 . S
C2581 C2587 1.428 . S
H2582 C2578 0.930 . S
H2583 C2580 0.929 . S
S2584 N2585 1.613 . S
S2584 N2586 1.610 . S
N2585 S2584 1.613 . S
N2585 C2588 1.350 . S
N2586 S2584 1.610 . S
N2586 C2587 1.351 . S
C2587 C2581 1.428 . S
C2587 N2586 1.351 . S
C2587 C2588 1.434 . S
C2588 C2579 1.429 . S
C2588 N2585 1.350 . S
C2588 C2587 1.434 . S
C2589 C2590 1.369 . S
C2589 C2591 1.419 . S
C2589 H2593 0.930 . S
C2590 C2589 1.369 . S
C2590 C2599 1.429 . S
C2591 C2589 1.419 . S
C2591 C2592 1.363 . S
C2591 H2594 0.929 . S
C2592 C2591 1.363 . S
C2592 C2598 1.428 . S
H2593 C2589 0.930 . S
H2594 C2591 0.929 . S
S2595 N2596 1.613 . S
S2595 N2597 1.610 . S
N2596 S2595 1.613 . S
N2596 C2599 1.350 . S
N2597 S2595 1.610 . S
N2597 C2598 1.351 . S
C2598 C2592 1.428 . S
C2598 N2597 1.351 . S
C2598 C2599 1.434 . S
C2599 C2590 1.429 . S
C2599 N2596 1.350 . S
C2599 C2598 1.434 . S
C2600 C2601 1.369 . S
C2600 C2602 1.419 . S
C2600 H2604 0.930 . S
C2601 C2600 1.369 . S
C2601 C2610 1.429 . S
C2602 C2600 1.419 . S
C2602 C2603 1.363 . S
C2602 H2605 0.929 . S
C2603 C2602 1.363 . S
C2603 C2609 1.428 . S
H2604 C2600 0.930 . S
H2605 C2602 0.929 . S
S2606 N2607 1.613 . S
S2606 N2608 1.610 . S
N2607 S2606 1.613 . S
N2607 C2610 1.350 . S
N2608 S2606 1.610 . S
N2608 C2609 1.351 . S
C2609 C2603 1.428 . S
C2609 N2608 1.351 . S
C2609 C2610 1.434 . S
C2610 C2601 1.429 . S
C2610 N2607 1.350 . S
C2610 C2609 1.434 . S
C2611 C2612 1.369 . S
C2611 C2613 1.419 . S
C2611 H2615 0.930 . S
C2612 C2611 1.369 . S
C2612 C2621 1.429 . S
C2613 C2611 1.419 . S
C2613 C2614 1.363 . S
C2613 H2616 0.929 . S
C2614 C2613 1.363 . S
C2614 C2620 1.428 . S
H2615 C2611 0.930 . S
H2616 C2613 0.929 . S
S2617 N2618 1.613 . S
S2617 N2619 1.610 . S
N2618 S2617 1.613 . S
N2618 C2621 1.350 . S
N2619 S2617 1.610 . S
N2619 C2620 1.351 . S
C2620 C2614 1.428 . S
C2620 N2619 1.351 . S
C2620 C2621 1.434 . S
C2621 C2612 1.429 . S
C2621 N2618 1.350 . S
C2621 C2620 1.434 . S
C2622 C2623 1.369 . S
C2622 C2624 1.419 . S
C2622 H2626 0.930 . S
C2623 C2622 1.369 . S
C2623 C2632 1.429 . S
C2624 C2622 1.419 . S
C2624 C2625 1.363 . S
C2624 H2627 0.929 . S
C2625 C2624 1.363 . S
C2625 C2631 1.428 . S
H2626 C2622 0.930 . S
H2627 C2624 0.929 . S
S2628 N2629 1.613 . S
S2628 N2630 1.610 . S
N2629 S2628 1.613 . S
N2629 C2632 1.350 . S
N2630 S2628 1.610 . S
N2630 C2631 1.351 . S
C2631 C2625 1.428 . S
C2631 N2630 1.351 . S
C2631 C2632 1.434 . S
C2632 C2623 1.429 . S
C2632 N2629 1.350 . S
C2632 C2631 1.434 . S
C2633 C2634 1.369 . S
C2633 C2635 1.419 . S
C2633 H2637 0.930 . S
C2634 C2633 1.369 . S
C2634 C2643 1.429 . S
C2635 C2633 1.419 . S
C2635 C2636 1.363 . S
C2635 H2638 0.929 . S
C2636 C2635 1.363 . S
C2636 C2642 1.428 . S
H2637 C2633 0.930 . S
H2638 C2635 0.929 . S
S2639 N2640 1.613 . S
S2639 N2641 1.610 . S
N2640 S2639 1.613 . S
N2640 C2643 1.350 . S
N2641 S2639 1.610 . S
N2641 C2642 1.351 . S
C2642 C2636 1.428 . S
C2642 N2641 1.351 . S
C2642 C2643 1.434 . S
C2643 C2634 1.429 . S
C2643 N2640 1.350 . S
C2643 C2642 1.434 . S
C2644 C2645 1.369 . S
C2644 C2646 1.419 . S
C2644 H2648 0.930 . S
C2645 C2644 1.369 . S
C2645 C2654 1.429 . S
C2646 C2644 1.419 . S
C2646 C2647 1.363 . S
C2646 H2649 0.929 . S
C2647 C2646 1.363 . S
C2647 C2653 1.428 . S
H2648 C2644 0.930 . S
H2649 C2646 0.929 . S
S2650 N2651 1.613 . S
S2650 N2652 1.610 . S
N2651 S2650 1.613 . S
N2651 C2654 1.350 . S
N2652 S2650 1.610 . S
N2652 C2653 1.351 . S
C2653 C2647 1.428 . S
C2653 N2652 1.351 . S
C2653 C2654 1.434 . S
C2654 C2645 1.429 . S
C2654 N2651 1.350 . S
C2654 C2653 1.434 . S
C2655 C2656 1.369 . S
C2655 C2657 1.419 . S
C2655 H2659 0.930 . S
C2656 C2655 1.369 . S
C2656 C2665 1.429 . S
C2657 C2655 1.419 . S
C2657 C2658 1.363 . S
C2657 H2660 0.929 . S
C2658 C2657 1.363 . S
C2658 C2664 1.428 . S
H2659 C2655 0.930 . S
H2660 C2657 0.929 . S
S2661 N2662 1.613 . S
S2661 N2663 1.610 . S
N2662 S2661 1.613 . S
N2662 C2665 1.350 . S
N2663 S2661 1.610 . S
N2663 C2664 1.351 . S
C2664 C2658 1.428 . S
C2664 N2663 1.351 . S
C2664 C2665 1.434 . S
C2665 C2656 1.429 . S
C2665 N2662 1.350 . S
C2665 C2664 1.434 . S
C2666 C2667 1.369 . S
C2666 C2668 1.419 . S
C2666 H2670 0.930 . S
C2667 C2666 1.369 . S
C2667 C2676 1.429 . S
C2668 C2666 1.419 . S
C2668 C2669 1.363 . S
C2668 H2671 0.929 . S
C2669 C2668 1.363 . S
C2669 C2675 1.428 . S
H2670 C2666 0.930 . S
H2671 C2668 0.929 . S
S2672 N2673 1.613 . S
S2672 N2674 1.610 . S
N2673 S2672 1.613 . S
N2673 C2676 1.350 . S
N2674 S2672 1.610 . S
N2674 C2675 1.351 . S
C2675 C2669 1.428 . S
C2675 N2674 1.351 . S
C2675 C2676 1.434 . S
C2676 C2667 1.429 . S
C2676 N2673 1.350 . S
C2676 C2675 1.434 . S
C2677 C2678 1.369 . S
C2677 C2679 1.419 . S
C2677 H2681 0.930 . S
C2678 C2677 1.369 . S
C2678 C2687 1.429 . S
C2679 C2677 1.419 . S
C2679 C2680 1.363 . S
C2679 H2682 0.929 . S
C2680 C2679 1.363 . S
C2680 C2686 1.428 . S
H2681 C2677 0.930 . S
H2682 C2679 0.929 . S
S2683 N2684 1.613 . S
S2683 N2685 1.610 . S
N2684 S2683 1.613 . S
N2684 C2687 1.350 . S
N2685 S2683 1.610 . S
N2685 C2686 1.351 . S
C2686 C2680 1.428 . S
C2686 N2685 1.351 . S
C2686 C2687 1.434 . S
C2687 C2678 1.429 . S
C2687 N2684 1.350 . S
C2687 C2686 1.434 . S
C2688 C2689 1.369 . S
C2688 C2690 1.419 . S
C2688 H2692 0.930 . S
C2689 C2688 1.369 . S
C2689 C2698 1.429 . S
C2690 C2688 1.419 . S
C2690 C2691 1.363 . S
C2690 H2693 0.929 . S
C2691 C2690 1.363 . S
C2691 C2697 1.428 . S
H2692 C2688 0.930 . S
H2693 C2690 0.929 . S
S2694 N2695 1.613 . S
S2694 N2696 1.610 . S
N2695 S2694 1.613 . S
N2695 C2698 1.350 . S
N2696 S2694 1.610 . S
N2696 C2697 1.351 . S
C2697 C2691 1.428 . S
C2697 N2696 1.351 . S
C2697 C2698 1.434 . S
C2698 C2689 1.429 . S
C2698 N2695 1.350 . S
C2698 C2697 1.434 . S
C2699 C2700 1.369 . S
C2699 C2701 1.419 . S
C2699 H2703 0.930 . S
C2700 C2699 1.369 . S
C2700 C2709 1.429 . S
C2701 C2699 1.419 . S
C2701 C2702 1.363 . S
C2701 H2704 0.929 . S
C2702 C2701 1.363 . S
C2702 C2708 1.428 . S
H2703 C2699 0.930 . S
H2704 C2701 0.929 . S
S2705 N2706 1.613 . S
S2705 N2707 1.610 . S
N2706 S2705 1.613 . S
N2706 C2709 1.350 . S
N2707 S2705 1.610 . S
N2707 C2708 1.351 . S
C2708 C2702 1.428 . S
C2708 N2707 1.351 . S
C2708 C2709 1.434 . S
C2709 C2700 1.429 . S
C2709 N2706 1.350 . S
C2709 C2708 1.434 . S
C2710 C2711 1.369 . S
C2710 C2712 1.419 . S
C2710 H2714 0.930 . S
C2711 C2710 1.369 . S
C2711 C2720 1.429 . S
C2712 C2710 1.419 . S
C2712 C2713 1.363 . S
C2712 H2715 0.929 . S
C2713 C2712 1.363 . S
C2713 C2719 1.428 . S
H2714 C2710 0.930 . S
H2715 C2712 0.929 . S
S2716 N2717 1.613 . S
S2716 N2718 1.610 . S
N2717 S2716 1.613 . S
N2717 C2720 1.350 . S
N2718 S2716 1.610 . S
N2718 C2719 1.351 . S
C2719 C2713 1.428 . S
C2719 N2718 1.351 . S
C2719 C2720 1.434 . S
C2720 C2711 1.429 . S
C2720 N2717 1.350 . S
C2720 C2719 1.434 . S
C2721 C2722 1.369 . S
C2721 C2723 1.419 . S
C2721 H2725 0.930 . S
C2722 C2721 1.369 . S
C2722 C2731 1.429 . S
C2723 C2721 1.419 . S
C2723 C2724 1.363 . S
C2723 H2726 0.929 . S
C2724 C2723 1.363 . S
C2724 C2730 1.428 . S
H2725 C2721 0.930 . S
H2726 C2723 0.929 . S
S2727 N2728 1.613 . S
S2727 N2729 1.610 . S
N2728 S2727 1.613 . S
N2728 C2731 1.350 . S
N2729 S2727 1.610 . S
N2729 C2730 1.351 . S
C2730 C2724 1.428 . S
C2730 N2729 1.351 . S
C2730 C2731 1.434 . S
C2731 C2722 1.429 . S
C2731 N2728 1.350 . S
C2731 C2730 1.434 . S
C2732 C2733 1.369 . S
C2732 C2734 1.419 . S
C2732 H2736 0.930 . S
C2733 C2732 1.369 . S
C2733 C2742 1.429 . S
C2734 C2732 1.419 . S
C2734 C2735 1.363 . S
C2734 H2737 0.929 . S
C2735 C2734 1.363 . S
C2735 C2741 1.428 . S
H2736 C2732 0.930 . S
H2737 C2734 0.929 . S
S2738 N2739 1.613 . S
S2738 N2740 1.610 . S
N2739 S2738 1.613 . S
N2739 C2742 1.350 . S
N2740 S2738 1.610 . S
N2740 C2741 1.351 . S
C2741 C2735 1.428 . S
C2741 N2740 1.351 . S
C2741 C2742 1.434 . S
C2742 C2733 1.429 . S
C2742 N2739 1.350 . S
C2742 C2741 1.434 . S
C2743 C2744 1.369 . S
C2743 C2745 1.419 . S
C2743 H2747 0.930 . S
C2744 C2743 1.369 . S
C2744 C2753 1.429 . S
C2745 C2743 1.419 . S
C2745 C2746 1.363 . S
C2745 H2748 0.929 . S
C2746 C2745 1.363 . S
C2746 C2752 1.428 . S
H2747 C2743 0.930 . S
H2748 C2745 0.929 . S
S2749 N2750 1.613 . S
S2749 N2751 1.610 . S
N2750 S2749 1.613 . S
N2750 C2753 1.350 . S
N2751 S2749 1.610 . S
N2751 C2752 1.351 . S
C2752 C2746 1.428 . S
C2752 N2751 1.351 . S
C2752 C2753 1.434 . S
C2753 C2744 1.429 . S
C2753 N2750 1.350 . S
C2753 C2752 1.434 . S
C2754 C2755 1.369 . S
C2754 C2756 1.419 . S
C2754 H2758 0.930 . S
C2755 C2754 1.369 . S
C2755 C2764 1.429 . S
C2756 C2754 1.419 . S
C2756 C2757 1.363 . S
C2756 H2759 0.929 . S
C2757 C2756 1.363 . S
C2757 C2763 1.428 . S
H2758 C2754 0.930 . S
H2759 C2756 0.929 . S
S2760 N2761 1.613 . S
S2760 N2762 1.610 . S
N2761 S2760 1.613 . S
N2761 C2764 1.350 . S
N2762 S2760 1.610 . S
N2762 C2763 1.351 . S
C2763 C2757 1.428 . S
C2763 N2762 1.351 . S
C2763 C2764 1.434 . S
C2764 C2755 1.429 . S
C2764 N2761 1.350 . S
C2764 C2763 1.434 . S
C2765 C2766 1.369 . S
C2765 C2767 1.419 . S
C2765 H2769 0.930 . S
C2766 C2765 1.369 . S
C2766 C2775 1.429 . S
C2767 C2765 1.419 . S
C2767 C2768 1.363 . S
C2767 H2770 0.929 . S
C2768 C2767 1.363 . S
C2768 C2774 1.428 . S
H2769 C2765 0.930 . S
H2770 C2767 0.929 . S
S2771 N2772 1.613 . S
S2771 N2773 1.610 . S
N2772 S2771 1.613 . S
N2772 C2775 1.350 . S
N2773 S2771 1.610 . S
N2773 C2774 1.351 . S
C2774 C2768 1.428 . S
C2774 N2773 1.351 . S
C2774 C2775 1.434 . S
C2775 C2766 1.429 . S
C2775 N2772 1.350 . S
C2775 C2774 1.434 . S
C2776 C2777 1.369 . S
C2776 C2778 1.419 . S
C2776 H2780 0.930 . S
C2777 C2776 1.369 . S
C2777 C2786 1.429 . S
C2778 C2776 1.419 . S
C2778 C2779 1.363 . S
C2778 H2781 0.929 . S
C2779 C2778 1.363 . S
C2779 C2785 1.428 . S
H2780 C2776 0.930 . S
H2781 C2778 0.929 . S
S2782 N2783 1.613 . S
S2782 N2784 1.610 . S
N2783 S2782 1.613 . S
N2783 C2786 1.350 . S
N2784 S2782 1.610 . S
N2784 C2785 1.351 . S
C2785 C2779 1.428 . S
C2785 N2784 1.351 . S
C2785 C2786 1.434 . S
C2786 C2777 1.429 . S
C2786 N2783 1.350 . S
C2786 C2785 1.434 . S
C2787 C2788 1.369 . S
C2787 C2789 1.419 . S
C2787 H2791 0.930 . S
C2788 C2787 1.369 . S
C2788 C2797 1.429 . S
C2789 C2787 1.419 . S
C2789 C2790 1.363 . S
C2789 H2792 0.929 . S
C2790 C2789 1.363 . S
C2790 C2796 1.428 . S
H2791 C2787 0.930 . S
H2792 C2789 0.929 . S
S2793 N2794 1.613 . S
S2793 N2795 1.610 . S
N2794 S2793 1.613 . S
N2794 C2797 1.350 . S
N2795 S2793 1.610 . S
N2795 C2796 1.351 . S
C2796 C2790 1.428 . S
C2796 N2795 1.351 . S
C2796 C2797 1.434 . S
C2797 C2788 1.429 . S
C2797 N2794 1.350 . S
C2797 C2796 1.434 . S
C2798 C2799 1.369 . S
C2798 C2800 1.419 . S
C2798 H2802 0.930 . S
C2799 C2798 1.369 . S
C2799 C2808 1.429 . S
C2800 C2798 1.419 . S
C2800 C2801 1.363 . S
C2800 H2803 0.929 . S
C2801 C2800 1.363 . S
C2801 C2807 1.428 . S
H2802 C2798 0.930 . S
H2803 C2800 0.929 . S
S2804 N2805 1.613 . S
S2804 N2806 1.610 . S
N2805 S2804 1.613 . S
N2805 C2808 1.350 . S
N2806 S2804 1.610 . S
N2806 C2807 1.351 . S
C2807 C2801 1.428 . S
C2807 N2806 1.351 . S
C2807 C2808 1.434 . S
C2808 C2799 1.429 . S
C2808 N2805 1.350 . S
C2808 C2807 1.434 . S
C2809 C2810 1.369 . S
C2809 C2811 1.419 . S
C2809 H2813 0.930 . S
C2810 C2809 1.369 . S
C2810 C2819 1.429 . S
C2811 C2809 1.419 . S
C2811 C2812 1.363 . S
C2811 H2814 0.929 . S
C2812 C2811 1.363 . S
C2812 C2818 1.428 . S
H2813 C2809 0.930 . S
H2814 C2811 0.929 . S
S2815 N2816 1.613 . S
S2815 N2817 1.610 . S
N2816 S2815 1.613 . S
N2816 C2819 1.350 . S
N2817 S2815 1.610 . S
N2817 C2818 1.351 . S
C2818 C2812 1.428 . S
C2818 N2817 1.351 . S
C2818 C2819 1.434 . S
C2819 C2810 1.429 . S
C2819 N2816 1.350 . S
C2819 C2818 1.434 . S
C2820 C2821 1.369 . S
C2820 C2822 1.419 . S
C2820 H2824 0.930 . S
C2821 C2820 1.369 . S
C2821 C2830 1.429 . S
C2822 C2820 1.419 . S
C2822 C2823 1.363 . S
C2822 H2825 0.929 . S
C2823 C2822 1.363 . S
C2823 C2829 1.428 . S
H2824 C2820 0.930 . S
H2825 C2822 0.929 . S
S2826 N2827 1.613 . S
S2826 N2828 1.610 . S
N2827 S2826 1.613 . S
N2827 C2830 1.350 . S
N2828 S2826 1.610 . S
N2828 C2829 1.351 . S
C2829 C2823 1.428 . S
C2829 N2828 1.351 . S
C2829 C2830 1.434 . S
C2830 C2821 1.429 . S
C2830 N2827 1.350 . S
C2830 C2829 1.434 . S
C2831 C2832 1.369 . S
C2831 C2833 1.419 . S
C2831 H2835 0.930 . S
C2832 C2831 1.369 . S
C2832 C2841 1.429 . S
C2833 C2831 1.419 . S
C2833 C2834 1.363 . S
C2833 H2836 0.929 . S
C2834 C2833 1.363 . S
C2834 C2840 1.428 . S
H2835 C2831 0.930 . S
H2836 C2833 0.929 . S
S2837 N2838 1.613 . S
S2837 N2839 1.610 . S
N2838 S2837 1.613 . S
N2838 C2841 1.350 . S
N2839 S2837 1.610 . S
N2839 C2840 1.351 . S
C2840 C2834 1.428 . S
C2840 N2839 1.351 . S
C2840 C2841 1.434 . S
C2841 C2832 1.429 . S
C2841 N2838 1.350 . S
C2841 C2840 1.434 . S
C2842 C2843 1.369 . S
C2842 C2844 1.419 . S
C2842 H2846 0.930 . S
C2843 C2842 1.369 . S
C2843 C2852 1.429 . S
C2844 C2842 1.419 . S
C2844 C2845 1.363 . S
C2844 H2847 0.929 . S
C2845 C2844 1.363 . S
C2845 C2851 1.428 . S
H2846 C2842 0.930 . S
H2847 C2844 0.929 . S
S2848 N2849 1.613 . S
S2848 N2850 1.610 . S
N2849 S2848 1.613 . S
N2849 C2852 1.350 . S
N2850 S2848 1.610 . S
N2850 C2851 1.351 . S
C2851 C2845 1.428 . S
C2851 N2850 1.351 . S
C2851 C2852 1.434 . S
C2852 C2843 1.429 . S
C2852 N2849 1.350 . S
C2852 C2851 1.434 . S
C2853 C2854 1.369 . S
C2853 C2855 1.419 . S
C2853 H2857 0.930 . S
C2854 C2853 1.369 . S
C2854 C2863 1.429 . S
C2855 C2853 1.419 . S
C2855 C2856 1.363 . S
C2855 H2858 0.929 . S
C2856 C2855 1.363 . S
C2856 C2862 1.428 . S
H2857 C2853 0.930 . S
H2858 C2855 0.929 . S
S2859 N2860 1.613 . S
S2859 N2861 1.610 . S
N2860 S2859 1.613 . S
N2860 C2863 1.350 . S
N2861 S2859 1.610 . S
N2861 C2862 1.351 . S
C2862 C2856 1.428 . S
C2862 N2861 1.351 . S
C2862 C2863 1.434 . S
C2863 C2854 1.429 . S
C2863 N2860 1.350 . S
C2863 C2862 1.434 . S
C2864 C2865 1.369 . S
C2864 C2866 1.419 . S
C2864 H2868 0.930 . S
C2865 C2864 1.369 . S
C2865 C2874 1.429 . S
C2866 C2864 1.419 . S
C2866 C2867 1.363 . S
C2866 H2869 0.929 . S
C2867 C2866 1.363 . S
C2867 C2873 1.428 . S
H2868 C2864 0.930 . S
H2869 C2866 0.929 . S
S2870 N2871 1.613 . S
S2870 N2872 1.610 . S
N2871 S2870 1.613 . S
N2871 C2874 1.350 . S
N2872 S2870 1.610 . S
N2872 C2873 1.351 . S
C2873 C2867 1.428 . S
C2873 N2872 1.351 . S
C2873 C2874 1.434 . S
C2874 C2865 1.429 . S
C2874 N2871 1.350 . S
C2874 C2873 1.434 . S
C2875 C2876 1.369 . S
C2875 C2877 1.419 . S
C2875 H2879 0.930 . S
C2876 C2875 1.369 . S
C2876 C2885 1.429 . S
C2877 C2875 1.419 . S
C2877 C2878 1.363 . S
C2877 H2880 0.929 . S
C2878 C2877 1.363 . S
C2878 C2884 1.428 . S
H2879 C2875 0.930 . S
H2880 C2877 0.929 . S
S2881 N2882 1.613 . S
S2881 N2883 1.610 . S
N2882 S2881 1.613 . S
N2882 C2885 1.350 . S
N2883 S2881 1.610 . S
N2883 C2884 1.351 . S
C2884 C2878 1.428 . S
C2884 N2883 1.351 . S
C2884 C2885 1.434 . S
C2885 C2876 1.429 . S
C2885 N2882 1.350 . S
C2885 C2884 1.434 . S
C2886 C2887 1.369 . S
C2886 C2888 1.419 . S
C2886 H2890 0.930 . S
C2887 C2886 1.369 . S
C2887 C2896 1.429 . S
C2888 C2886 1.419 . S
C2888 C2889 1.363 . S
C2888 H2891 0.929 . S
C2889 C2888 1.363 . S
C2889 C2895 1.428 . S
H2890 C2886 0.930 . S
H2891 C2888 0.929 . S
S2892 N2893 1.613 . S
S2892 N2894 1.610 . S
N2893 S2892 1.613 . S
N2893 C2896 1.350 . S
N2894 S2892 1.610 . S
N2894 C2895 1.351 . S
C2895 C2889 1.428 . S
C2895 N2894 1.351 . S
C2895 C2896 1.434 . S
C2896 C2887 1.429 . S
C2896 N2893 1.350 . S
C2896 C2895 1.434 . S
C2897 C2898 1.369 . S
C2897 C2899 1.419 . S
C2897 H2901 0.930 . S
C2898 C2897 1.369 . S
C2898 C2907 1.429 . S
C2899 C2897 1.419 . S
C2899 C2900 1.363 . S
C2899 H2902 0.929 . S
C2900 C2899 1.363 . S
C2900 C2906 1.428 . S
H2901 C2897 0.930 . S
H2902 C2899 0.929 . S
S2903 N2904 1.613 . S
S2903 N2905 1.610 . S
N2904 S2903 1.613 . S
N2904 C2907 1.350 . S
N2905 S2903 1.610 . S
N2905 C2906 1.351 . S
C2906 C2900 1.428 . S
C2906 N2905 1.351 . S
C2906 C2907 1.434 . S
C2907 C2898 1.429 . S
C2907 N2904 1.350 . S
C2907 C2906 1.434 . S
C2908 C2909 1.369 . S
C2908 C2910 1.419 . S
C2908 H2912 0.930 . S
C2909 C2908 1.369 . S
C2909 C2918 1.429 . S
C2910 C2908 1.419 . S
C2910 C2911 1.363 . S
C2910 H2913 0.929 . S
C2911 C2910 1.363 . S
C2911 C2917 1.428 . S
H2912 C2908 0.930 . S
H2913 C2910 0.929 . S
S2914 N2915 1.613 . S
S2914 N2916 1.610 . S
N2915 S2914 1.613 . S
N2915 C2918 1.350 . S
N2916 S2914 1.610 . S
N2916 C2917 1.351 . S
C2917 C2911 1.428 . S
C2917 N2916 1.351 . S
C2917 C2918 1.434 . S
C2918 C2909 1.429 . S
C2918 N2915 1.350 . S
C2918 C2917 1.434 . S
C2919 C2920 1.369 . S
C2919 C2921 1.419 . S
C2919 H2923 0.930 . S
C2920 C2919 1.369 . S
C2920 C2929 1.429 . S
C2921 C2919 1.419 . S
C2921 C2922 1.363 . S
C2921 H2924 0.929 . S
C2922 C2921 1.363 . S
C2922 C2928 1.428 . S
H2923 C2919 0.930 . S
H2924 C2921 0.929 . S
S2925 N2926 1.613 . S
S2925 N2927 1.610 . S
N2926 S2925 1.613 . S
N2926 C2929 1.350 . S
N2927 S2925 1.610 . S
N2927 C2928 1.351 . S
C2928 C2922 1.428 . S
C2928 N2927 1.351 . S
C2928 C2929 1.434 . S
C2929 C2920 1.429 . S
C2929 N2926 1.350 . S
C2929 C2928 1.434 . S
C2930 C2931 1.369 . S
C2930 C2932 1.419 . S
C2930 H2934 0.930 . S
C2931 C2930 1.369 . S
C2931 C2940 1.429 . S
C2932 C2930 1.419 . S
C2932 C2933 1.363 . S
C2932 H2935 0.929 . S
C2933 C2932 1.363 . S
C2933 C2939 1.428 . S
H2934 C2930 0.930 . S
H2935 C2932 0.929 . S
S2936 N2937 1.613 . S
S2936 N2938 1.610 . S
N2937 S2936 1.613 . S
N2937 C2940 1.350 . S
N2938 S2936 1.610 . S
N2938 C2939 1.351 . S
C2939 C2933 1.428 . S
C2939 N2938 1.351 . S
C2939 C2940 1.434 . S
C2940 C2931 1.429 . S
C2940 N2937 1.350 . S
C2940 C2939 1.434 . S
C2941 C2942 1.369 . S
C2941 C2943 1.419 . S
C2941 H2945 0.930 . S
C2942 C2941 1.369 . S
C2942 C2951 1.429 . S
C2943 C2941 1.419 . S
C2943 C2944 1.363 . S
C2943 H2946 0.929 . S
C2944 C2943 1.363 . S
C2944 C2950 1.428 . S
H2945 C2941 0.930 . S
H2946 C2943 0.929 . S
S2947 N2948 1.613 . S
S2947 N2949 1.610 . S
N2948 S2947 1.613 . S
N2948 C2951 1.350 . S
N2949 S2947 1.610 . S
N2949 C2950 1.351 . S
C2950 C2944 1.428 . S
C2950 N2949 1.351 . S
C2950 C2951 1.434 . S
C2951 C2942 1.429 . S
C2951 N2948 1.350 . S
C2951 C2950 1.434 . S
C1633 C621 1.636 1_554 S
C1635 C20 1.642 . S
C1644 C54 1.637 . S
C1646 C655 1.640 1_554 S
C1655 C88 1.641 . S
C1657 C689 1.637 1_554 S
C1666 C587 1.639 1_554 S
C1668 C122 1.639 . S
C1677 C757 1.642 1_556 S
C1679 C156 1.637 . S
C1688 C190 1.642 . S
C1690 C553 1.637 1_556 S
C1699 C791 1.642 1_556 S
C1701 C224 1.637 . S
C1710 C723 1.638 1_556 S
C1712 C258 1.639 . S
C1721 C292 1.641 . S
C1723 C315 1.637 1_455 S
C1732 C349 1.636 1_545 S
C1734 C326 1.641 . S
C1743 C383 1.636 1_655 S
C1745 C360 1.642 . S
C1754 C394 1.637 . S
C1756 C281 1.641 1_565 S
C1765 C519 1.638 1_455 S
C1767 C428 1.639 . S
C1776 C462 1.638 . S
C1778 C417 1.640 1_545 S
C1787 C451 1.639 1_655 S
C1789 C496 1.641 . S
C1798 C485 1.640 1_565 S
C1800 C530 1.640 . S
C1809 C564 1.636 . S
C1811 C111 1.641 1_545 S
C1820 C179 1.636 1_565 S
C1822 C598 1.642 . S
C1831 C632 1.636 . S
C1833 C213 1.641 1_455 S
C1842 C247 1.636 1_545 S
C1844 C666 1.642 . S
C1853 C145 1.639 1_655 S
C1855 C700 1.638 . S
C1864 C734 1.641 . S
C1866 C43 1.639 1_565 S
C1875 C768 1.642 . S
C1877 C77 1.637 1_455 S
C1886 C9 1.636 1_655 S
C1888 C802 1.641 . S
C1897 C836 1.639 . S
C1899 C1437 1.638 . S
C1908 C1471 1.639 . S
C1910 C870 1.638 . S
C1919 C1505 1.639 . S
C1921 C904 1.640 . S
C1930 C938 1.637 . S
C1932 C1403 1.640 . S
C1941 C1573 1.638 . S
C1943 C972 1.641 . S
C1952 C1006 1.637 . S
C1954 C1369 1.640 . S
C1963 C1607 1.642 . S
C1965 C1040 1.637 . S
C1974 C1539 1.640 . S
C1976 C1074 1.639 . S
C1985 C1131 1.641 . S
C1987 C1108 1.637 . S
C1996 C1142 1.637 . S
C1998 C1165 1.641 . S
C2007 C1199 1.636 . S
C2009 C1176 1.641 . S
C2018 C1210 1.639 . S
C2020 C1097 1.639 . S
C2029 C1244 1.640 . S
C2031 C1335 1.638 . S
C2040 C1233 1.642 . S
C2042 C1278 1.637 . S
C2051 C1312 1.637 . S
C2053 C1267 1.641 . S
C2062 C1301 1.637 . S
C2064 C1346 1.640 . S
C2073 C927 1.638 . S
C2075 C1380 1.641 . S
C2084 C1414 1.637 . S
C2086 C995 1.640 . S
C2095 C1448 1.642 . S
C2097 C1029 1.637 . S
C2106 C1063 1.642 . S
C2108 C1482 1.638 . S
C2117 C961 1.636 . S
C2119 C1516 1.642 . S
C2128 C859 1.642 . S
C2130 C1550 1.637 . S
C2139 C1584 1.641 . S
C2141 C893 1.638 . S
C2150 C825 1.636 . S
C2152 C1618 1.641 . S
C2161 C1087 1.437 . S
C2163 C33 1.431 . S
C2172 C985 1.430 . S
C2174 C67 1.429 . S
C2183 C101 1.435 . S
C2185 C1019 1.432 . S
C2194 C1053 1.426 . S
C2196 C135 1.432 . S
C2205 C169 1.431 . S
C2207 C883 1.435 . S
C2216 C917 1.431 . S
C2218 C203 1.428 . S
C2227 C951 1.436 . S
C2229 C237 1.426 . S
C2238 C271 1.431 . S
C2240 C849 1.435 . S
C2249 C305 1.440 . S
C2251 C1529 1.426 . S
C2260 C1427 1.439 . S
C2262 C339 1.425 . S
C2271 C1461 1.426 . S
C2273 C373 1.433 . S
C2282 C1495 1.423 . S
C2284 C407 1.437 . S
C2293 C1631 1.439 . S
C2295 C441 1.428 . S
C2304 C475 1.424 . S
C2306 C1563 1.435 . S
C2315 C509 1.439 . S
C2317 C1597 1.425 . S
C2326 C1393 1.440 . S
C2328 C543 1.427 . S
C2337 C1359 1.430 . S
C2339 C577 1.436 . S
C2348 C611 1.439 . S
C2350 C1155 1.427 . S
C2359 C1189 1.439 . S
C2361 C645 1.428 . S
C2370 C1223 1.437 . S
C2372 C679 1.430 . S
C2381 C713 1.440 . S
C2383 C1121 1.426 . S
C2392 C747 1.439 . S
C2394 C1291 1.425 . S
C2403 C1325 1.427 . S
C2405 C781 1.437 . S
C2414 C815 1.424 . S
C2416 C1257 1.435 . S
C2425 C277 1.404 . S
C2427 C2 1.504 . S
C2436 C311 1.403 . S
C2438 C36 1.507 . S
C2447 C70 1.510 . S
C2449 C345 1.391 . S
C2458 C104 1.508 . S
C2460 C379 1.392 . S
C2469 C138 1.503 . S
C2471 C413 1.403 . S
C2480 C447 1.403 . S
C2482 C172 1.503 . S
C2491 C481 1.390 . S
C2493 C206 1.511 . S
C2502 C240 1.510 . S
C2504 C515 1.391 . S
C2513 C549 1.394 . S
C2515 C274 1.511 . S
C2524 C787 1.391 . S
C2526 C308 1.511 . S
C2535 C719 1.389 . S
C2537 C342 1.510 . S
C2546 C376 1.508 . S
C2548 C753 1.400 . S
C2557 C410 1.511 . S
C2559 C583 1.391 . S
C2568 C444 1.508 . S
C2570 C617 1.393 . S
C2579 C478 1.512 . S
C2581 C651 1.394 . S
C2590 C512 1.512 . S
C2592 C685 1.393 . S
C2601 C5 1.395 . S
C2603 C546 1.506 . S
C2612 C580 1.502 . S
C2614 C141 1.401 . S
C2623 C175 1.404 . S
C2625 C614 1.504 . S
C2634 C648 1.510 . S
C2636 C209 1.391 . S
C2645 C243 1.399 . S
C2647 C682 1.509 . S
C2656 C73 1.395 . S
C2658 C716 1.506 . S
C2667 C750 1.511 . S
C2669 C107 1.391 . S
C2678 C39 1.393 . S
C2680 C784 1.511 . S
C2689 C818 1.511 . S
C2691 C1093 1.391 . S
C2700 C1127 1.389 . S
C2702 C852 1.510 . S
C2711 C886 1.510 . S
C2713 C1161 1.391 . S
C2722 C920 1.512 . S
C2724 C1195 1.391 . S
C2733 C954 1.509 . S
C2735 C1229 1.392 . S
C2744 C988 1.503 . S
C2746 C1263 1.403 . S
C2755 C1022 1.507 . S
C2757 C1297 1.394 . S
C2766 C1056 1.512 . S
C2768 C1331 1.393 . S
C2777 C1090 1.502 . S
C2779 C1365 1.402 . S
C2788 C1124 1.504 . S
C2790 C1603 1.403 . S
C2799 C1158 1.511 . S
C2801 C1535 1.391 . S
C2810 C1569 1.402 . S
C2812 C1192 1.504 . S
C2821 C1399 1.404 . S
C2823 C1226 1.505 . S
C2832 C1260 1.507 . S
C2834 C1433 1.394 . S
C2843 C1467 1.393 . S
C2845 C1294 1.507 . S
C2854 C1328 1.508 . S
C2856 C1501 1.393 . S
C2865 C1362 1.502 . S
C2867 C821 1.402 . S
C2876 C957 1.404 . S
C2878 C1396 1.504 . S
C2887 C991 1.402 . S
C2889 C1430 1.508 . S
C2898 C1025 1.400 . S
C2900 C1464 1.509 . S
C2909 C1059 1.400 . S
C2911 C1498 1.509 . S
C2920 C889 1.389 . S
C2922 C1532 1.510 . S
C2931 C923 1.389 . S
C2933 C1566 1.510 . S
C2942 C855 1.392 . S
C2944 C1600 1.507 . S
