# Generated by pormake.
# Topology uof, (4)-cn, num edge types: 1
# Building blocks:
#     Node 0, Type 0, BuildingBlock: KUFVIS_clean_sbu_0, # of connection points: 4
#     Node 1, Type 0, BuildingBlock: KUFVIS_clean_sbu_0, # of connection points: 4
#     Node 2, Type 0, BuildingBlock: KUFVIS_clean_sbu_0, # of connection points: 4
#     Node 3, Type 0, BuildingBlock: KUFVIS_clean_sbu_0, # of connection points: 4
#     Node 4, Type 0, BuildingBlock: KUFVIS_clean_sbu_0, # of connection points: 4
#     Node 5, Type 0, BuildingBlock: KUFVIS_clean_sbu_0, # of connection points: 4
#     Node 6, Type 0, BuildingBlock: KUFVIS_clean_sbu_0, # of connection points: 4
#     Node 7, Type 0, BuildingBlock: KUFVIS_clean_sbu_0, # of connection points: 4
#     Node 8, Type 0, BuildingBlock: KUFVIS_clean_sbu_0, # of connection points: 4
#     Node 9, Type 0, BuildingBlock: KUFVIS_clean_sbu_0, # of connection points: 4
#     Node 10, Type 0, BuildingBlock: KUFVIS_clean_sbu_0, # of connection points: 4
#     Node 11, Type 0, BuildingBlock: KUFVIS_clean_sbu_0, # of connection points: 4
#     Edge 12, Type (0, 0), BuildingBlock: EYOCIG_clean_linker_4, # of connection points: 2
#     Edge 13, Type (0, 0), BuildingBlock: EYOCIG_clean_linker_4, # of connection points: 2
#     Edge 14, Type (0, 0), BuildingBlock: EYOCIG_clean_linker_4, # of connection points: 2
#     Edge 15, Type (0, 0), BuildingBlock: EYOCIG_clean_linker_4, # of connection points: 2
#     Edge 16, Type (0, 0), BuildingBlock: EYOCIG_clean_linker_4, # of connection points: 2
#     Edge 17, Type (0, 0), BuildingBlock: EYOCIG_clean_linker_4, # of connection points: 2
#     Edge 18, Type (0, 0), BuildingBlock: EYOCIG_clean_linker_4, # of connection points: 2
#     Edge 19, Type (0, 0), BuildingBlock: EYOCIG_clean_linker_4, # of connection points: 2
#     Edge 20, Type (0, 0), BuildingBlock: EYOCIG_clean_linker_4, # of connection points: 2
#     Edge 21, Type (0, 0), BuildingBlock: EYOCIG_clean_linker_4, # of connection points: 2
#     Edge 22, Type (0, 0), BuildingBlock: EYOCIG_clean_linker_4, # of connection points: 2
#     Edge 23, Type (0, 0), BuildingBlock: EYOCIG_clean_linker_4, # of connection points: 2
#     Edge 24, Type (0, 0), BuildingBlock: EYOCIG_clean_linker_4, # of connection points: 2
#     Edge 25, Type (0, 0), BuildingBlock: EYOCIG_clean_linker_4, # of connection points: 2
#     Edge 26, Type (0, 0), BuildingBlock: EYOCIG_clean_linker_4, # of connection points: 2
#     Edge 27, Type (0, 0), BuildingBlock: EYOCIG_clean_linker_4, # of connection points: 2
#     Edge 28, Type (0, 0), BuildingBlock: EYOCIG_clean_linker_4, # of connection points: 2
#     Edge 29, Type (0, 0), BuildingBlock: EYOCIG_clean_linker_4, # of connection points: 2
#     Edge 30, Type (0, 0), BuildingBlock: EYOCIG_clean_linker_4, # of connection points: 2
#     Edge 31, Type (0, 0), BuildingBlock: EYOCIG_clean_linker_4, # of connection points: 2
#     Edge 32, Type (0, 0), BuildingBlock: EYOCIG_clean_linker_4, # of connection points: 2
#     Edge 33, Type (0, 0), BuildingBlock: EYOCIG_clean_linker_4, # of connection points: 2
#     Edge 34, Type (0, 0), BuildingBlock: EYOCIG_clean_linker_4, # of connection points: 2
#     Edge 35, Type (0, 0), BuildingBlock: EYOCIG_clean_linker_4, # of connection points: 2
# Relax obj value: 0.173
# Max RMSD: 0.139
# Mean RMSD: 0.139
data_MOF--net-uof--node1-KUFVIS_clean_sbu_0--edge1-EYOCIG_clean_linker_4
_symmetry_space_group_name_H-M    P1
_symmetry_Int_Tables_number       1
_symmetry_cell_setting            triclinic
loop_
_symmetry_equiv_pos_as_xyz
'x, y, z'
_cell_length_a     25.783867
_cell_length_b     25.78319
_cell_length_c     50.064157
_cell_angle_alpha  89.999833
_cell_angle_beta   90.004151
_cell_angle_gamma 120.01038
loop_
_atom_site_label
_atom_site_type_symbol
_atom_site_fract_x
_atom_site_fract_y
_atom_site_fract_z
_atom_type_partial_charge
Mn0 Mn 0.24759 0.29281 0.20503 0.0
Mn1 Mn 0.34574 0.25724 0.23445 0.0
C2 C 0.3055 0.26569 0.18016 0.0
C3 C 0.14836 0.25957 0.18777 0.0
C4 C 0.3761 0.38516 0.22484 0.0
O5 O 0.21974 0.27806 0.24429 0.0
O6 O 0.28664 0.25316 0.25995 0.0
C7 C 0.2578 0.12963 0.24521 0.0
N8 N 0.31096 0.17211 0.23467 0.0
C9 C 0.33766 0.09795 0.22296 0.0
C10 C 0.28329 0.05341 0.23377 0.0
C11 C 0.24303 0.0693 0.24479 0.0
C12 C 0.34945 0.15717 0.22356 0.0
H13 H 0.22703 0.14173 0.25394 0.0
C14 C 0.24155 0.26018 0.26275 0.0
O15 O 0.18499 0.31535 0.19374 0.0
O16 O 0.16795 0.22329 0.19286 0.0
N17 N 0.40658 0.25803 0.21232 0.0
C18 C 0.45586 0.30596 0.20162 0.0
C19 C 0.5009 0.29785 0.19007 0.0
C20 C 0.49515 0.24074 0.18984 0.0
C21 C 0.44403 0.19204 0.20086 0.0
C22 C 0.40085 0.20293 0.21234 0.0
H23 H 0.46127 0.35025 0.20224 0.0
O24 O 0.28183 0.2942 0.16888 0.0
O25 O 0.2936 0.25233 0.20503 0.0
O26 O 0.32585 0.37429 0.21435 0.0
O27 O 0.38599 0.34489 0.23405 0.0
C28 C 0.43385 0.13301 0.20064 0.0
C29 C 0.38048 0.08591 0.2115 0.0
H30 H 0.27192 1.00688 0.23365 0.0
H31 H 0.20093 0.03516 0.25312 0.0
H32 H 0.54029 0.33568 0.18162 0.0
H33 H 0.53017 0.23476 0.18105 0.0
H34 H 0.4663 0.12318 0.19177 0.0
H35 H 0.37269 0.04057 0.21082 0.0
Mn36 Mn 0.96322 0.2437 0.53837 0.0
Mn37 Mn 0.09694 0.34187 0.56781 0.0
C38 C 0.04828 0.30163 0.51352 0.0
C39 C 0.89723 0.14447 0.52111 0.0
C40 C 0.99937 0.3722 0.55818 0.0
O41 O 0.95009 0.21585 0.57763 0.0
O42 O 0.04189 0.28277 0.59331 0.0
C43 C 0.13661 0.25396 0.57859 0.0
N44 N 0.1473 0.30712 0.56804 0.0
C45 C 0.24817 0.33384 0.55634 0.0
C46 C 0.23834 0.27948 0.56716 0.0
C47 C 0.18218 0.23921 0.57817 0.0
C48 C 0.20075 0.34562 0.55694 0.0
H49 H 0.09372 0.22318 0.58732 0.0
C50 C 0.98977 0.23767 0.5961 0.0
O51 O 0.87808 0.1811 0.52707 0.0
O52 O 0.95309 0.16406 0.52621 0.0
N53 N 0.15701 0.40272 0.54568 0.0
C54 C 0.15836 0.452 0.53498 0.0
C55 C 0.21152 0.49704 0.52343 0.0
C56 C 0.26289 0.4913 0.5232 0.0
C57 C 0.26046 0.44019 0.53423 0.0
C58 C 0.20638 0.39701 0.54571 0.0
H59 H 0.11949 0.45739 0.53559 0.0
O60 O 0.99611 0.27795 0.50222 0.0
O61 O 0.04972 0.28972 0.53839 0.0
O62 O 0.95999 0.32195 0.54768 0.0
O63 O 0.04954 0.38211 0.5674 0.0
C64 C 0.30933 0.43003 0.53402 0.0
C65 C 0.30304 0.37666 0.54489 0.0
H66 H 0.27351 0.26812 0.56704 0.0
H67 H 0.17421 0.19711 0.58651 0.0
H68 H 0.21308 0.53642 0.51497 0.0
H69 H 0.3039 0.52633 0.51441 0.0
H70 H 0.35161 0.46249 0.52515 0.0
H71 H 0.3406 0.36889 0.54422 0.0
Mn72 Mn 0.72775 0.95916 0.87169 0.0
Mn73 Mn 0.76337 0.09286 0.90115 0.0
C74 C 0.75498 0.04426 0.84685 0.0
C75 C 0.76094 0.89315 0.85443 0.0
C76 C 0.63543 0.99535 0.89148 0.0
O77 O 0.74241 0.94598 0.91094 0.0
O78 O 0.76735 0.03777 0.92664 0.0
C79 C 0.89093 0.13246 0.91195 0.0
N80 N 0.8485 0.14319 0.9014 0.0
C81 C 0.92274 0.24407 0.88973 0.0
C82 C 0.96723 0.2342 0.90055 0.0
C83 C 0.95128 0.17801 0.91155 0.0
C84 C 0.8635 0.19666 0.89031 0.0
H85 H 0.87878 0.08955 0.92067 0.0
C86 C 0.76028 0.98564 0.92942 0.0
O87 O 0.70516 0.87402 0.86037 0.0
O88 O 0.79724 0.949 0.85954 0.0
N89 N 0.76267 0.15298 0.87902 0.0
C90 C 0.71478 0.15438 0.86832 0.0
C91 C 0.72295 0.20757 0.85679 0.0
C92 C 0.78009 0.25892 0.85657 0.0
C93 C 0.82874 0.25645 0.86761 0.0
C94 C 0.81778 0.20234 0.87908 0.0
H95 H 0.67048 0.11552 0.86892 0.0
O96 O 0.72646 0.9921 0.83554 0.0
O97 O 0.76828 0.04566 0.87172 0.0
O98 O 0.64628 0.95596 0.88098 0.0
O99 O 0.67572 0.0455 0.90071 0.0
C100 C 0.88779 0.30529 0.86742 0.0
C101 C 0.93484 0.29896 0.87829 0.0
H102 H 0.01377 0.26934 0.90045 0.0
H103 H 0.98538 0.17 0.91989 0.0
H104 H 0.68515 0.20917 0.84833 0.0
H105 H 0.78611 0.29996 0.84779 0.0
H106 H 0.89766 0.3476 0.85856 0.0
H107 H 0.98019 0.33651 0.87763 0.0
Mn108 Mn 0.77666 0.72373 0.20498 0.0
Mn109 Mn 0.6785 0.75927 0.23439 0.0
C110 C 0.7187 0.75078 0.1801 0.0
C111 C 0.87588 0.75697 0.18772 0.0
C112 C 0.64818 0.63136 0.22481 0.0
O113 O 0.80454 0.73854 0.24423 0.0
O114 O 0.73763 0.76342 0.25989 0.0
C115 C 0.76639 0.88691 0.24512 0.0
N116 N 0.71323 0.8444 0.23459 0.0
C117 C 0.68644 0.9185 0.22288 0.0
C118 C 0.74081 0.96308 0.23368 0.0
C119 C 0.78111 0.94724 0.24469 0.0
C120 C 0.67469 0.8593 0.22349 0.0
H121 H 0.79719 0.87485 0.25385 0.0
C122 C 0.78274 0.75643 0.26269 0.0
O123 O 0.83927 0.7012 0.19369 0.0
O124 O 0.85629 0.79324 0.19279 0.0
N125 N 0.61762 0.75842 0.21225 0.0
C126 C 0.56835 0.71046 0.20156 0.0
C127 C 0.52328 0.71852 0.19002 0.0
C128 C 0.52898 0.77562 0.18978 0.0
C129 C 0.58009 0.82434 0.2008 0.0
C130 C 0.6233 0.8135 0.21228 0.0
H131 H 0.56298 0.6662 0.20218 0.0
O132 O 0.74238 0.72228 0.16883 0.0
O133 O 0.73063 0.76417 0.20497 0.0
O134 O 0.69843 0.64223 0.21431 0.0
O135 O 0.63828 0.67163 0.23401 0.0
C136 C 0.59022 0.88336 0.20058 0.0
C137 C 0.64358 0.93049 0.21143 0.0
H138 H 0.75214 0.0096 0.23355 0.0
H139 H 0.82321 0.9814 0.25301 0.0
H140 H 0.4839 0.68067 0.18156 0.0
H141 H 0.49393 0.78156 0.18099 0.0
H142 H 0.55773 0.89315 0.19171 0.0
H143 H 0.65133 0.97581 0.21075 0.0
Mn144 Mn 0.06134 0.77271 0.53831 0.0
Mn145 Mn 0.92751 0.67445 0.56762 0.0
C146 C 0.97642 0.71475 0.51337 0.0
C147 C 0.12735 0.87196 0.52109 0.0
C148 C 0.02519 0.64422 0.55813 0.0
O149 O 0.07426 0.80053 0.57757 0.0
O150 O 0.9824 0.73354 0.59317 0.0
C151 C 0.8877 0.76228 0.57832 0.0
N152 N 0.8771 0.70914 0.56779 0.0
C153 C 0.77624 0.68234 0.55599 0.0
C154 C 0.78598 0.73667 0.5668 0.0
C155 C 0.84209 0.77697 0.57786 0.0
C156 C 0.8237 0.67061 0.55664 0.0
H157 H 0.93054 0.79308 0.58708 0.0
C158 C 0.0345 0.77867 0.596 0.0
O159 O 0.14652 0.83538 0.52708 0.0
O160 O 0.07146 0.85233 0.52612 0.0
N161 N 0.86757 0.6136 0.54544 0.0
C162 C 0.86631 0.56436 0.53475 0.0
C163 C 0.81322 0.5193 0.52316 0.0
C164 C 0.76181 0.52497 0.52288 0.0
C165 C 0.76414 0.57604 0.53391 0.0
C166 C 0.81816 0.61925 0.54543 0.0
H167 H 0.90521 0.55901 0.5354 0.0
O168 O 0.02866 0.73847 0.50214 0.0
O169 O 0.97485 0.72663 0.53824 0.0
O170 O 0.0646 0.6945 0.54766 0.0
O171 O 0.97496 0.63426 0.56728 0.0
C172 C 0.71524 0.58615 0.53364 0.0
C173 C 0.72143 0.63948 0.5445 0.0
H174 H 0.75079 0.74799 0.56664 0.0
H175 H 0.84999 0.81905 0.58618 0.0
H176 H 0.81173 0.47995 0.51471 0.0
H177 H 0.72085 0.48992 0.51406 0.0
H178 H 0.67301 0.55367 0.52474 0.0
H179 H 0.68385 0.64721 0.54379 0.0
Mn180 Mn 0.29704 0.05754 0.87164 0.0
Mn181 Mn 0.2614 0.92375 0.901 0.0
C182 C 0.26994 0.97255 0.84673 0.0
C183 C 0.26383 0.12356 0.8544 0.0
C184 C 0.38934 0.02134 0.89144 0.0
O185 O 0.28224 0.07056 0.9109 0.0
O186 O 0.2573 0.97872 0.92653 0.0
C187 C 0.13378 0.88404 0.91173 0.0
N188 N 0.17626 0.87337 0.9012 0.0
C189 C 0.10211 0.77252 0.88944 0.0
C190 C 0.05756 0.78232 0.90026 0.0
C191 C 0.07344 0.83845 0.91129 0.0
C192 C 0.16133 0.81995 0.89007 0.0
H193 H 0.14588 0.9269 0.92048 0.0
C194 C 0.26433 0.03083 0.92934 0.0
O195 O 0.3196 0.14271 0.86038 0.0
O196 O 0.22754 0.06768 0.85946 0.0
N197 N 0.2622 0.86373 0.87884 0.0
C198 C 0.31014 0.86241 0.86814 0.0
C199 C 0.30203 0.80928 0.85657 0.0
C200 C 0.24491 0.7579 0.85632 0.0
C201 C 0.19621 0.7603 0.86734 0.0
C202 C 0.2071 0.81435 0.87885 0.0
H203 H 0.35442 0.90129 0.86878 0.0
O204 O 0.29847 0.02476 0.83547 0.0
O205 O 0.25654 0.97104 0.8716 0.0
O206 O 0.3785 0.06075 0.88096 0.0
O207 O 0.34904 0.97114 0.90063 0.0
C208 C 0.13718 0.71142 0.86711 0.0
C209 C 0.09008 0.71768 0.87797 0.0
H210 H 1.01103 0.74715 0.90012 0.0
H211 H 0.03931 0.8464 0.91962 0.0
H212 H 0.33986 0.80774 0.84812 0.0
H213 H 0.23894 0.71691 0.84751 0.0
H214 H 0.12736 0.66916 0.85822 0.0
H215 H 0.04474 0.68011 0.87727 0.0
Mn216 Mn 0.72775 0.77282 0.44142 0.0
Mn217 Mn 0.76326 0.67477 0.41186 0.0
C218 C 0.75505 0.71491 0.46619 0.0
C219 C 0.76098 0.872 0.45872 0.0
C220 C 0.63536 0.64432 0.42161 0.0
O221 O 0.74231 0.80072 0.40217 0.0
O222 O 0.76722 0.7339 0.38641 0.0
C223 C 0.89081 0.76277 0.40102 0.0
N224 N 0.8484 0.70958 0.41156 0.0
C225 C 0.92264 0.68292 0.42317 0.0
C226 C 0.96712 0.73731 0.41235 0.0
C227 C 0.95116 0.77757 0.40139 0.0
C228 C 0.86341 0.67109 0.42262 0.0
H229 H 0.87866 0.79354 0.39233 0.0
C230 C 0.76015 0.77898 0.38367 0.0
O231 O 0.70519 0.83534 0.4528 0.0
O232 O 0.79728 0.85247 0.45357 0.0
N233 N 0.76259 0.6139 0.43393 0.0
C234 C 0.71471 0.56458 0.44464 0.0
C235 C 0.7229 0.51954 0.45614 0.0
C236 C 0.78003 0.52534 0.45632 0.0
C237 C 0.82867 0.57649 0.44528 0.0
C238 C 0.8177 0.61966 0.43385 0.0
H239 H 0.67042 0.55914 0.44406 0.0
O240 O 0.72657 0.73853 0.47754 0.0
O241 O 0.76828 0.72685 0.44132 0.0
O242 O 0.64625 0.69454 0.43214 0.0
O243 O 0.67561 0.63447 0.41233 0.0
C244 C 0.88772 0.5867 0.44545 0.0
C245 C 0.93475 0.64011 0.43458 0.0
H246 H 0.01366 0.74871 0.41244 0.0
H247 H 0.98525 0.81969 0.39305 0.0
H248 H 0.68511 0.48013 0.4646 0.0
H249 H 0.78607 0.49032 0.46508 0.0
H250 H 0.8976 0.55426 0.45428 0.0
H251 H 0.9801 0.64792 0.43521 0.0
Mn252 Mn 0.96312 0.7237 0.77478 0.0
Mn253 Mn 0.09672 0.75929 0.74524 0.0
C254 C 0.04833 0.75106 0.79957 0.0
C255 C 0.89714 0.7569 0.79206 0.0
C256 C 0.99929 0.63136 0.75499 0.0
O257 O 0.94978 0.73822 0.73553 0.0
O258 O 0.04153 0.76319 0.71977 0.0
C259 C 0.13624 0.88682 0.73439 0.0
N260 N 0.14703 0.84443 0.74494 0.0
C261 C 0.24792 0.91872 0.75656 0.0
C262 C 0.238 0.96318 0.74573 0.0
C263 C 0.18178 0.94718 0.73475 0.0
C264 C 0.20053 0.85948 0.75601 0.0
H265 H 0.09331 0.87463 0.72568 0.0
C266 C 0.98937 0.75608 0.71702 0.0
O267 O 0.87801 0.7011 0.78615 0.0
O268 O 0.95296 0.79321 0.78691 0.0
N269 N 0.15693 0.75867 0.76733 0.0
C270 C 0.15838 0.71081 0.77804 0.0
C271 C 0.21161 0.71904 0.78955 0.0
C272 C 0.26294 0.77619 0.78974 0.0
C273 C 0.26041 0.8248 0.77869 0.0
C274 C 0.20627 0.8138 0.76725 0.0
H275 H 0.11954 0.6665 0.77746 0.0
O276 O 0.99621 0.72255 0.81091 0.0
O277 O 0.04962 0.76427 0.77469 0.0
O278 O 0.95993 0.64222 0.76552 0.0
O279 O 0.04939 0.67163 0.74571 0.0
C280 C 0.30924 0.88387 0.77886 0.0
C281 C 0.30285 0.93087 0.76798 0.0
H282 H 0.27313 0.00973 0.74582 0.0
H283 H 0.17373 0.98125 0.72641 0.0
H284 H 0.21325 0.68126 0.79802 0.0
H285 H 0.30401 0.78225 0.79851 0.0
H286 H 0.35157 0.89378 0.7877 0.0
H287 H 0.34038 0.97624 0.76862 0.0
Mn288 Mn 0.2476 0.95917 0.1081 0.0
Mn289 Mn 0.34576 0.09287 0.07866 0.0
C290 C 0.30551 0.04426 0.13295 0.0
C291 C 0.14837 0.89318 0.12536 0.0
C292 C 0.37611 0.99532 0.08832 0.0
O293 O 0.21977 0.946 0.06884 0.0
O294 O 0.28667 0.0378 0.05316 0.0
C295 C 0.25784 0.13251 0.06786 0.0
N296 N 0.31099 0.14322 0.07841 0.0
C297 C 0.33769 0.24409 0.09011 0.0
C298 C 0.28333 0.23425 0.07928 0.0
C299 C 0.24307 0.17808 0.06827 0.0
C300 C 0.34948 0.19668 0.08952 0.0
H301 H 0.22707 0.08962 0.05913 0.0
C302 C 0.24158 0.98567 0.05037 0.0
O303 O 0.185 0.87403 0.11942 0.0
O304 O 0.16796 0.94904 0.12025 0.0
N305 N 0.4066 0.15296 0.10079 0.0
C306 C 0.45588 0.15434 0.1115 0.0
C307 C 0.50091 0.20751 0.12305 0.0
C308 C 0.49516 0.25887 0.12327 0.0
C309 C 0.44404 0.25642 0.11223 0.0
C310 C 0.40087 0.20233 0.10075 0.0
H311 H 0.46129 0.11547 0.11089 0.0
O312 O 0.28184 0.99209 0.14425 0.0
O313 O 0.29361 0.04567 0.10808 0.0
O314 O 0.32586 0.95595 0.09881 0.0
O315 O 0.38601 0.04548 0.07909 0.0
C316 C 0.43387 0.30528 0.11244 0.0
C317 C 0.3805 0.29897 0.10156 0.0
H318 H 0.27196 0.2694 0.07939 0.0
H319 H 0.20097 0.17009 0.05993 0.0
H320 H 0.54029 0.20909 0.13151 0.0
H321 H 0.53018 0.29989 0.13207 0.0
H322 H 0.46631 0.34757 0.1213 0.0
H323 H 0.37271 0.33652 0.10223 0.0
Mn324 Mn 0.29684 0.24369 0.44147 0.0
Mn325 Mn 0.26129 0.34183 0.41204 0.0
C326 C 0.26972 0.30161 0.46633 0.0
C327 C 0.26361 0.14447 0.45874 0.0
C328 C 0.3892 0.37219 0.42166 0.0
O329 O 0.2821 0.21582 0.40222 0.0
O330 O 0.2572 0.28271 0.38654 0.0
C331 C 0.13368 0.25389 0.40127 0.0
N332 N 0.17616 0.30706 0.41181 0.0
C333 C 0.10201 0.33377 0.42351 0.0
C334 C 0.05746 0.2794 0.4127 0.0
C335 C 0.07334 0.23913 0.40169 0.0
C336 C 0.16122 0.34556 0.42291 0.0
H337 H 0.14578 0.22311 0.39254 0.0
C338 C 0.26422 0.23761 0.38375 0.0
O339 O 0.31939 0.1811 0.45278 0.0
O340 O 0.22733 0.16405 0.45364 0.0
N341 N 0.26208 0.40268 0.43416 0.0
C342 C 0.31001 0.45197 0.44486 0.0
C343 C 0.3019 0.49701 0.4564 0.0
C344 C 0.24479 0.49127 0.45664 0.0
C345 C 0.1961 0.44015 0.4456 0.0
C346 C 0.20699 0.39696 0.43413 0.0
H347 H 0.35429 0.45737 0.44425 0.0
O348 O 0.29822 0.27795 0.47762 0.0
O349 O 0.25637 0.2897 0.44146 0.0
O350 O 0.37833 0.32194 0.43216 0.0
O351 O 0.34893 0.38208 0.41244 0.0
C352 C 0.13706 0.42997 0.44582 0.0
C353 C 0.08997 0.3766 0.43496 0.0
H354 H 1.01093 0.26803 0.41282 0.0
H355 H 0.03921 0.19702 0.39336 0.0
H356 H 0.33974 0.5364 0.46486 0.0
H357 H 0.23882 0.5263 0.46542 0.0
H358 H 0.12725 0.46243 0.45468 0.0
H359 H 0.04463 0.36882 0.43563 0.0
Mn360 Mn 0.06156 0.293 0.77482 0.0
Mn361 Mn 0.92783 0.25737 0.74539 0.0
C362 C 0.9765 0.26581 0.79968 0.0
C363 C 0.12757 0.2598 0.79208 0.0
C364 C 0.02537 0.38531 0.75503 0.0
O365 O 0.07468 0.27828 0.73557 0.0
O366 O 0.98287 0.25333 0.71989 0.0
C367 C 0.88819 0.12978 0.73462 0.0
N368 N 0.87748 0.17223 0.74516 0.0
C369 C 0.77662 0.09803 0.75686 0.0
C370 C 0.78646 0.05351 0.74604 0.0
C371 C 0.84262 0.06943 0.73503 0.0
C372 C 0.82403 0.15725 0.75627 0.0
H373 H 0.93108 0.1419 0.72589 0.0
C374 C 0.035 0.26038 0.7171 0.0
O375 O 0.14671 0.31558 0.78613 0.0
O376 O 0.07171 0.2235 0.78698 0.0
N377 N 0.86775 0.25811 0.76752 0.0
C378 C 0.86638 0.30602 0.77822 0.0
C379 C 0.81322 0.29788 0.78977 0.0
C380 C 0.76185 0.24075 0.79 0.0
C381 C 0.7643 0.19207 0.77896 0.0
C382 C 0.81838 0.203 0.76749 0.0
H383 H 0.90525 0.35031 0.77761 0.0
O384 O 0.02867 0.29433 0.81097 0.0
O385 O 0.97506 0.25247 0.77481 0.0
O386 O 0.06476 0.37446 0.76552 0.0
O387 O 0.97521 0.34502 0.7458 0.0
C388 C 0.71544 0.13303 0.77918 0.0
C389 C 0.72174 0.08596 0.76831 0.0
H390 H 0.7513 1.00697 0.74616 0.0
H391 H 0.85061 0.03532 0.7267 0.0
H392 H 0.81164 0.33569 0.79822 0.0
H393 H 0.72084 0.23474 0.79879 0.0
H394 H 0.67315 0.12318 0.78804 0.0
H395 H 0.68419 0.04061 0.76898 0.0
Mn396 Mn 0.77665 0.05734 0.10813 0.0
Mn397 Mn 0.67847 0.92367 0.07866 0.0
C398 C 0.71869 0.97223 0.13296 0.0
C399 C 0.87586 0.12331 0.12541 0.0
C400 C 0.64817 0.02124 0.08831 0.0
O401 O 0.80452 0.07051 0.06888 0.0
O402 O 0.73762 0.97873 0.05318 0.0
C403 C 0.76635 0.88395 0.06788 0.0
N404 N 0.71319 0.87327 0.07842 0.0
C405 C 0.68641 0.77236 0.09009 0.0
C406 C 0.74077 0.78218 0.07928 0.0
C407 C 0.78107 0.83835 0.06829 0.0
C408 C 0.67466 0.81981 0.0895 0.0
H409 H 0.79716 0.92685 0.05916 0.0
C410 C 0.78273 0.03085 0.0504 0.0
O411 O 0.83924 0.14246 0.11946 0.0
O412 O 0.85627 0.06745 0.1203 0.0
N413 N 0.61759 0.86358 0.10077 0.0
C414 C 0.56833 0.86224 0.11147 0.0
C415 C 0.52326 0.80908 0.12301 0.0
C416 C 0.52896 0.75768 0.12322 0.0
C417 C 0.58006 0.7601 0.11219 0.0
C418 C 0.62327 0.81419 0.10072 0.0
H419 H 0.56295 0.90113 0.11087 0.0
O420 O 0.74237 0.02439 0.14427 0.0
O421 O 0.73061 0.97084 0.10809 0.0
O422 O 0.69842 0.0606 0.09882 0.0
O423 O 0.63827 0.97109 0.07907 0.0
C424 C 0.59019 0.71121 0.11239 0.0
C425 C 0.64355 0.71749 0.10153 0.0
H426 H 0.75211 0.747 0.07939 0.0
H427 H 0.82317 0.84632 0.05996 0.0
H428 H 0.48389 0.80753 0.13147 0.0
H429 H 0.49392 0.71667 0.13201 0.0
H430 H 0.55772 0.66892 0.12125 0.0
H431 H 0.65131 0.67991 0.10219 0.0
C432 C 0.98333 0.18753 0.14982 0.0
C433 C 0.93421 0.16045 0.13872 0.0
C434 C 0.04089 0.21632 0.16337 0.0
C435 C 0.09001 0.23836 0.17446 0.0
C436 C 0.833 0.03701 0.4967 0.0
C437 C 0.86008 0.08612 0.5078 0.0
C438 C 0.80423 0.97945 0.48315 0.0
C439 C 0.78219 0.93034 0.47205 0.0
C440 C 0.80415 0.82891 0.83002 0.0
C441 C 0.78212 0.85599 0.84112 0.0
C442 C 0.83292 0.80013 0.81648 0.0
C443 C 0.85999 0.77809 0.80538 0.0
C444 C 0.98334 0.8002 0.16331 0.0
C445 C 0.93423 0.77817 0.17441 0.0
C446 C 0.0409 0.82897 0.14977 0.0
C447 C 0.09002 0.85604 0.13867 0.0
C448 C 0.22037 0.03701 0.48315 0.0
C449 C 0.24241 0.08612 0.47205 0.0
C450 C 0.19159 0.97945 0.49669 0.0
C451 C 0.16451 0.93033 0.50779 0.0
C452 C 0.22061 0.18781 0.83001 0.0
C453 C 0.24265 0.16073 0.8411 0.0
C454 C 0.19182 0.21659 0.81647 0.0
C455 C 0.16474 0.23862 0.80538 0.0
C456 C 0.54336 0.53065 0.22388 0.0
C457 C 0.59479 0.57238 0.22311 0.0
C458 C 0.48093 0.48585 0.22388 0.0
C459 C 0.4295 0.44413 0.22312 0.0
C460 C 0.02112 0.53944 0.55722 0.0
C461 C 0.03081 0.59085 0.55645 0.0
C462 C 1.00351 0.47702 0.55722 0.0
C463 C 0.9938 0.42559 0.55646 0.0
C464 C 0.49001 0.01719 0.89051 0.0
C465 C 0.4483 0.02691 0.88974 0.0
C466 C 0.53479 0.99954 0.89051 0.0
C467 C 0.57649 0.98982 0.88975 0.0
C468 C 0.5347 0.53945 0.42261 0.0
C469 C 0.57642 0.59089 0.42336 0.0
C470 C 0.48989 0.47702 0.42261 0.0
C471 C 0.44817 0.42559 0.42338 0.0
C472 C 1.00353 0.53074 0.75599 0.0
C473 C 0.99379 0.57243 0.75674 0.0
C474 C 0.02118 0.48596 0.75599 0.0
C475 C 0.0309 0.44426 0.75675 0.0
C476 C 0.48093 0.99948 0.08928 0.0
C477 C 0.42951 0.98977 0.09004 0.0
C478 C 0.54335 0.0171 0.08928 0.0
C479 C 0.59478 0.0268 0.09004 0.0
C480 C 0.3435 0.14733 0.15449 0.0
C481 C 0.3279 0.09709 0.14821 0.0
C482 C 0.3435 0.20066 0.1586 0.0
C483 C 0.32791 0.2353 0.16489 0.0
C484 C 0.15134 0.33962 0.49197 0.0
C485 C 0.1011 0.32402 0.49826 0.0
C486 C 0.20467 0.33962 0.48787 0.0
C487 C 0.23931 0.32402 0.48159 0.0
C488 C 0.87345 0.20069 0.82123 0.0
C489 C 0.92369 0.23536 0.81495 0.0
C490 C 0.82011 0.14735 0.82532 0.0
C491 C 0.78545 0.0971 0.8316 0.0
C492 C 0.68068 0.86913 0.15446 0.0
C493 C 0.69628 0.91939 0.1482 0.0
C494 C 0.68067 0.81579 0.15855 0.0
C495 C 0.69627 0.78115 0.16483 0.0
C496 C 0.82017 0.67686 0.48764 0.0
C497 C 0.78554 0.69249 0.48139 0.0
C498 C 0.87347 0.67679 0.49174 0.0
C499 C 0.92369 0.69235 0.49805 0.0
C500 C 0.20485 0.86955 0.82513 0.0
C501 C 0.23953 0.91978 0.83143 0.0
C502 C 0.15149 0.81624 0.82103 0.0
C503 C 0.10122 0.78158 0.81477 0.0
C504 C 0.22748 0.20863 0.33572 0.0
C505 C 0.24637 0.21065 0.35797 0.0
C506 C 0.21261 0.22348 0.31078 0.0
C507 C 0.21462 0.24235 0.28854 0.0
C508 C 0.99752 0.20875 0.64413 0.0
C509 C 0.98065 0.21074 0.62189 0.0
C510 C 0.02725 0.22365 0.66908 0.0
C511 C 0.04412 0.24255 0.69132 0.0
C512 C 0.81177 0.0231 0.00239 0.0
C513 C 0.80973 0.03998 0.02463 0.0
C514 C 0.79693 0.99335 0.97746 0.0
C515 C 0.77807 0.97648 0.95521 0.0
C516 C 0.8117 0.79322 0.31071 0.0
C517 C 0.80969 0.77431 0.28847 0.0
C518 C 0.79682 0.80807 0.33565 0.0
C519 C 0.77794 0.80601 0.3579 0.0
C520 C 0.0266 0.80753 0.64404 0.0
C521 C 0.0435 0.80555 0.6218 0.0
C522 C 0.9969 0.79266 0.66899 0.0
C523 C 0.98011 0.77381 0.69124 0.0
C524 C 0.21267 0.99333 0.00232 0.0
C525 C 0.21466 0.9765 0.02458 0.0
C526 C 0.22757 0.02303 0.97737 0.0
C527 C 0.24647 0.03989 0.95513 0.0
loop_
_geom_bond_atom_site_label_1
_geom_bond_atom_site_label_2
_geom_bond_distance
_geom_bond_site_symmetry_2
_ccdc_geom_bond_type
Mn0 O5 2.095 . S
Mn0 O15 2.162 . S
Mn0 O16 2.297 . S
Mn0 O24 2.385 . S
Mn0 O25 2.209 . S
Mn0 O26 2.094 . S
Mn1 O6 2.121 . S
Mn1 N8 2.257 . S
Mn1 N17 2.282 . S
Mn1 O25 2.215 . S
Mn1 O27 2.117 . S
C2 O24 1.234 . S
C2 O25 1.283 . S
C3 O15 1.281 . S
C3 O16 1.236 . S
C4 O26 1.240 . S
C4 O27 1.264 . S
O5 Mn0 2.095 . S
O5 C14 1.250 . S
O6 Mn1 2.121 . S
O6 C14 1.258 . S
C7 N8 1.326 . S
C7 C11 1.460 . S
C7 H13 0.929 . S
N8 Mn1 2.257 . S
N8 C7 1.326 . S
N8 C12 1.362 . S
C9 C10 1.258 . S
C9 C12 1.431 . S
C9 C29 1.449 . S
C10 C9 1.258 . S
C10 C11 1.477 . S
C10 H30 0.931 . S
C11 C7 1.460 . S
C11 C10 1.477 . S
C11 H31 0.930 . S
C12 N8 1.362 . S
C12 C9 1.431 . S
C12 C22 1.476 . S
H13 C7 0.929 . S
C14 O5 1.250 . S
C14 O6 1.258 . S
O15 Mn0 2.162 . S
O15 C3 1.281 . S
O16 Mn0 2.297 . S
O16 C3 1.236 . S
N17 Mn1 2.282 . S
N17 C18 1.328 . S
N17 C22 1.318 . S
C18 N17 1.328 . S
C18 C19 1.457 . S
C18 H23 0.929 . S
C19 C18 1.457 . S
C19 C20 1.291 . S
C19 H32 0.931 . S
C20 C19 1.291 . S
C20 C21 1.373 . S
C20 H33 0.929 . S
C21 C20 1.373 . S
C21 C22 1.396 . S
C21 C28 1.403 . S
C22 C12 1.476 . S
C22 N17 1.318 . S
C22 C21 1.396 . S
H23 C18 0.929 . S
O24 Mn0 2.385 . S
O24 C2 1.234 . S
O25 Mn0 2.209 . S
O25 Mn1 2.215 . S
O25 C2 1.283 . S
O26 Mn0 2.094 . S
O26 C4 1.240 . S
O27 Mn1 2.117 . S
O27 C4 1.264 . S
C28 C21 1.403 . S
C28 C29 1.399 . S
C28 H34 0.929 . S
C29 C9 1.449 . S
C29 C28 1.399 . S
C29 H35 0.930 . S
H30 C10 0.931 . S
H31 C11 0.930 . S
H32 C19 0.931 . S
H33 C20 0.929 . S
H34 C28 0.929 . S
H35 C29 0.930 . S
Mn36 O41 2.095 . S
Mn36 O51 2.162 . S
Mn36 O52 2.297 . S
Mn36 O60 2.385 . S
Mn36 O61 2.209 1_655 S
Mn36 O62 2.094 . S
Mn37 O42 2.121 . S
Mn37 N44 2.257 . S
Mn37 N53 2.282 . S
Mn37 O61 2.215 . S
Mn37 O63 2.117 . S
C38 O60 1.234 1_455 S
C38 O61 1.283 . S
C39 O51 1.281 . S
C39 O52 1.236 . S
C40 O62 1.240 . S
C40 O63 1.264 1_655 S
O41 Mn36 2.095 . S
O41 C50 1.250 . S
O42 Mn37 2.121 . S
O42 C50 1.258 1_455 S
C43 N44 1.326 . S
C43 C47 1.460 . S
C43 H49 0.929 . S
N44 Mn37 2.257 . S
N44 C43 1.326 . S
N44 C48 1.362 . S
C45 C46 1.258 . S
C45 C48 1.431 . S
C45 C65 1.449 . S
C46 C45 1.258 . S
C46 C47 1.477 . S
C46 H66 0.931 . S
C47 C43 1.460 . S
C47 C46 1.477 . S
C47 H67 0.930 . S
C48 N44 1.362 . S
C48 C45 1.431 . S
C48 C58 1.476 . S
H49 C43 0.929 . S
C50 O41 1.250 . S
C50 O42 1.258 1_655 S
O51 Mn36 2.162 . S
O51 C39 1.281 . S
O52 Mn36 2.297 . S
O52 C39 1.236 . S
N53 Mn37 2.282 . S
N53 C54 1.328 . S
N53 C58 1.318 . S
C54 N53 1.328 . S
C54 C55 1.457 . S
C54 H59 0.929 . S
C55 C54 1.457 . S
C55 C56 1.291 . S
C55 H68 0.931 . S
C56 C55 1.291 . S
C56 C57 1.373 . S
C56 H69 0.929 . S
C57 C56 1.373 . S
C57 C58 1.396 . S
C57 C64 1.403 . S
C58 C48 1.476 . S
C58 N53 1.318 . S
C58 C57 1.396 . S
H59 C54 0.929 . S
O60 Mn36 2.385 . S
O60 C38 1.234 1_655 S
O61 Mn36 2.209 1_455 S
O61 Mn37 2.215 . S
O61 C38 1.283 . S
O62 Mn36 2.094 . S
O62 C40 1.240 . S
O63 Mn37 2.117 . S
O63 C40 1.264 1_455 S
C64 C57 1.403 . S
C64 C65 1.399 . S
C64 H70 0.929 . S
C65 C45 1.449 . S
C65 C64 1.399 . S
C65 H71 0.930 . S
H66 C46 0.931 . S
H67 C47 0.930 . S
H68 C55 0.931 . S
H69 C56 0.929 . S
H70 C64 0.929 . S
H71 C65 0.930 . S
Mn72 O77 2.095 . S
Mn72 O87 2.162 . S
Mn72 O88 2.297 . S
Mn72 O96 2.385 . S
Mn72 O97 2.209 1_565 S
Mn72 O98 2.094 . S
Mn73 O78 2.121 . S
Mn73 N80 2.257 . S
Mn73 N89 2.282 . S
Mn73 O97 2.215 . S
Mn73 O99 2.117 . S
C74 O96 1.234 1_545 S
C74 O97 1.283 . S
C75 O87 1.281 . S
C75 O88 1.236 . S
C76 O98 1.240 . S
C76 O99 1.264 1_565 S
O77 Mn72 2.095 . S
O77 C86 1.250 . S
O78 Mn73 2.121 . S
O78 C86 1.258 1_545 S
C79 N80 1.326 . S
C79 C83 1.460 . S
C79 H85 0.929 . S
N80 Mn73 2.257 . S
N80 C79 1.326 . S
N80 C84 1.362 . S
C81 C82 1.258 . S
C81 C84 1.431 . S
C81 C101 1.449 . S
C82 C81 1.258 . S
C82 C83 1.477 . S
C82 H102 0.931 . S
C83 C79 1.460 . S
C83 C82 1.477 . S
C83 H103 0.930 . S
C84 N80 1.362 . S
C84 C81 1.431 . S
C84 C94 1.476 . S
H85 C79 0.929 . S
C86 O77 1.250 . S
C86 O78 1.258 1_565 S
O87 Mn72 2.162 . S
O87 C75 1.281 . S
O88 Mn72 2.297 . S
O88 C75 1.236 . S
N89 Mn73 2.282 . S
N89 C90 1.328 . S
N89 C94 1.318 . S
C90 N89 1.328 . S
C90 C91 1.457 . S
C90 H95 0.929 . S
C91 C90 1.457 . S
C91 C92 1.291 . S
C91 H104 0.931 . S
C92 C91 1.291 . S
C92 C93 1.373 . S
C92 H105 0.929 . S
C93 C92 1.373 . S
C93 C94 1.396 . S
C93 C100 1.403 . S
C94 C84 1.476 . S
C94 N89 1.318 . S
C94 C93 1.396 . S
H95 C90 0.929 . S
O96 Mn72 2.385 . S
O96 C74 1.234 1_565 S
O97 Mn72 2.209 1_545 S
O97 Mn73 2.215 . S
O97 C74 1.283 . S
O98 Mn72 2.094 . S
O98 C76 1.240 . S
O99 Mn73 2.117 . S
O99 C76 1.264 1_545 S
C100 C93 1.403 . S
C100 C101 1.399 . S
C100 H106 0.929 . S
C101 C81 1.449 . S
C101 C100 1.399 . S
C101 H107 0.930 . S
H102 C82 0.931 . S
H103 C83 0.930 . S
H104 C91 0.931 . S
H105 C92 0.929 . S
H106 C100 0.929 . S
H107 C101 0.930 . S
Mn108 O113 2.095 . S
Mn108 O123 2.162 . S
Mn108 O124 2.297 . S
Mn108 O132 2.385 . S
Mn108 O133 2.209 . S
Mn108 O134 2.094 . S
Mn109 O114 2.121 . S
Mn109 N116 2.257 . S
Mn109 N125 2.282 . S
Mn109 O133 2.215 . S
Mn109 O135 2.117 . S
C110 O132 1.234 . S
C110 O133 1.283 . S
C111 O123 1.281 . S
C111 O124 1.236 . S
C112 O134 1.240 . S
C112 O135 1.264 . S
O113 Mn108 2.095 . S
O113 C122 1.250 . S
O114 Mn109 2.121 . S
O114 C122 1.258 . S
C115 N116 1.326 . S
C115 C119 1.460 . S
C115 H121 0.929 . S
N116 Mn109 2.257 . S
N116 C115 1.326 . S
N116 C120 1.362 . S
C117 C118 1.258 . S
C117 C120 1.431 . S
C117 C137 1.449 . S
C118 C117 1.258 . S
C118 C119 1.477 . S
C118 H138 0.931 . S
C119 C115 1.460 . S
C119 C118 1.477 . S
C119 H139 0.930 . S
C120 N116 1.362 . S
C120 C117 1.431 . S
C120 C130 1.476 . S
H121 C115 0.929 . S
C122 O113 1.250 . S
C122 O114 1.258 . S
O123 Mn108 2.162 . S
O123 C111 1.281 . S
O124 Mn108 2.297 . S
O124 C111 1.236 . S
N125 Mn109 2.282 . S
N125 C126 1.328 . S
N125 C130 1.318 . S
C126 N125 1.328 . S
C126 C127 1.457 . S
C126 H131 0.929 . S
C127 C126 1.457 . S
C127 C128 1.291 . S
C127 H140 0.931 . S
C128 C127 1.291 . S
C128 C129 1.373 . S
C128 H141 0.929 . S
C129 C128 1.373 . S
C129 C130 1.396 . S
C129 C136 1.403 . S
C130 C120 1.476 . S
C130 N125 1.318 . S
C130 C129 1.396 . S
H131 C126 0.929 . S
O132 Mn108 2.385 . S
O132 C110 1.234 . S
O133 Mn108 2.209 . S
O133 Mn109 2.215 . S
O133 C110 1.283 . S
O134 Mn108 2.094 . S
O134 C112 1.240 . S
O135 Mn109 2.117 . S
O135 C112 1.264 . S
C136 C129 1.403 . S
C136 C137 1.399 . S
C136 H142 0.929 . S
C137 C117 1.449 . S
C137 C136 1.399 . S
C137 H143 0.930 . S
H138 C118 0.931 . S
H139 C119 0.930 . S
H140 C127 0.931 . S
H141 C128 0.929 . S
H142 C136 0.929 . S
H143 C137 0.930 . S
Mn144 O149 2.095 . S
Mn144 O159 2.162 . S
Mn144 O160 2.297 . S
Mn144 O168 2.385 . S
Mn144 O169 2.209 1_455 S
Mn144 O170 2.094 . S
Mn145 O150 2.121 . S
Mn145 N152 2.257 . S
Mn145 N161 2.282 . S
Mn145 O169 2.215 . S
Mn145 O171 2.117 . S
C146 O168 1.234 1_655 S
C146 O169 1.283 . S
C147 O159 1.281 . S
C147 O160 1.236 . S
C148 O170 1.240 . S
C148 O171 1.264 1_455 S
O149 Mn144 2.095 . S
O149 C158 1.250 . S
O150 Mn145 2.121 . S
O150 C158 1.258 1_655 S
C151 N152 1.326 . S
C151 C155 1.460 . S
C151 H157 0.929 . S
N152 Mn145 2.257 . S
N152 C151 1.326 . S
N152 C156 1.362 . S
C153 C154 1.258 . S
C153 C156 1.431 . S
C153 C173 1.449 . S
C154 C153 1.258 . S
C154 C155 1.477 . S
C154 H174 0.931 . S
C155 C151 1.460 . S
C155 C154 1.477 . S
C155 H175 0.930 . S
C156 N152 1.362 . S
C156 C153 1.431 . S
C156 C166 1.476 . S
H157 C151 0.929 . S
C158 O149 1.250 . S
C158 O150 1.258 1_455 S
O159 Mn144 2.162 . S
O159 C147 1.281 . S
O160 Mn144 2.297 . S
O160 C147 1.236 . S
N161 Mn145 2.282 . S
N161 C162 1.328 . S
N161 C166 1.318 . S
C162 N161 1.328 . S
C162 C163 1.457 . S
C162 H167 0.929 . S
C163 C162 1.457 . S
C163 C164 1.291 . S
C163 H176 0.931 . S
C164 C163 1.291 . S
C164 C165 1.373 . S
C164 H177 0.929 . S
C165 C164 1.373 . S
C165 C166 1.396 . S
C165 C172 1.403 . S
C166 C156 1.476 . S
C166 N161 1.318 . S
C166 C165 1.396 . S
H167 C162 0.929 . S
O168 Mn144 2.385 . S
O168 C146 1.234 1_455 S
O169 Mn144 2.209 1_655 S
O169 Mn145 2.215 . S
O169 C146 1.283 . S
O170 Mn144 2.094 . S
O170 C148 1.240 . S
O171 Mn145 2.117 . S
O171 C148 1.264 1_655 S
C172 C165 1.403 . S
C172 C173 1.399 . S
C172 H178 0.929 . S
C173 C153 1.449 . S
C173 C172 1.399 . S
C173 H179 0.930 . S
H174 C154 0.931 . S
H175 C155 0.930 . S
H176 C163 0.931 . S
H177 C164 0.929 . S
H178 C172 0.929 . S
H179 C173 0.930 . S
Mn180 O185 2.095 . S
Mn180 O195 2.162 . S
Mn180 O196 2.297 . S
Mn180 O204 2.385 . S
Mn180 O205 2.209 1_545 S
Mn180 O206 2.094 . S
Mn181 O186 2.121 . S
Mn181 N188 2.257 . S
Mn181 N197 2.282 . S
Mn181 O205 2.215 . S
Mn181 O207 2.117 . S
C182 O204 1.234 1_565 S
C182 O205 1.283 . S
C183 O195 1.281 . S
C183 O196 1.236 . S
C184 O206 1.240 . S
C184 O207 1.264 1_545 S
O185 Mn180 2.095 . S
O185 C194 1.250 . S
O186 Mn181 2.121 . S
O186 C194 1.258 1_565 S
C187 N188 1.326 . S
C187 C191 1.460 . S
C187 H193 0.929 . S
N188 Mn181 2.257 . S
N188 C187 1.326 . S
N188 C192 1.362 . S
C189 C190 1.258 . S
C189 C192 1.431 . S
C189 C209 1.449 . S
C190 C189 1.258 . S
C190 C191 1.477 . S
C190 H210 0.931 . S
C191 C187 1.460 . S
C191 C190 1.477 . S
C191 H211 0.930 . S
C192 N188 1.362 . S
C192 C189 1.431 . S
C192 C202 1.476 . S
H193 C187 0.929 . S
C194 O185 1.250 . S
C194 O186 1.258 1_545 S
O195 Mn180 2.162 . S
O195 C183 1.281 . S
O196 Mn180 2.297 . S
O196 C183 1.236 . S
N197 Mn181 2.282 . S
N197 C198 1.328 . S
N197 C202 1.318 . S
C198 N197 1.328 . S
C198 C199 1.457 . S
C198 H203 0.929 . S
C199 C198 1.457 . S
C199 C200 1.291 . S
C199 H212 0.931 . S
C200 C199 1.291 . S
C200 C201 1.373 . S
C200 H213 0.929 . S
C201 C200 1.373 . S
C201 C202 1.396 . S
C201 C208 1.403 . S
C202 C192 1.476 . S
C202 N197 1.318 . S
C202 C201 1.396 . S
H203 C198 0.929 . S
O204 Mn180 2.385 . S
O204 C182 1.234 1_545 S
O205 Mn180 2.209 1_565 S
O205 Mn181 2.215 . S
O205 C182 1.283 . S
O206 Mn180 2.094 . S
O206 C184 1.240 . S
O207 Mn181 2.117 . S
O207 C184 1.264 1_565 S
C208 C201 1.403 . S
C208 C209 1.399 . S
C208 H214 0.929 . S
C209 C189 1.449 . S
C209 C208 1.399 . S
C209 H215 0.930 . S
H210 C190 0.931 . S
H211 C191 0.930 . S
H212 C199 0.931 . S
H213 C200 0.929 . S
H214 C208 0.929 . S
H215 C209 0.930 . S
Mn216 O221 2.095 . S
Mn216 O231 2.162 . S
Mn216 O232 2.297 . S
Mn216 O240 2.385 . S
Mn216 O241 2.209 . S
Mn216 O242 2.094 . S
Mn217 O222 2.121 . S
Mn217 N224 2.257 . S
Mn217 N233 2.282 . S
Mn217 O241 2.215 . S
Mn217 O243 2.117 . S
C218 O240 1.234 . S
C218 O241 1.283 . S
C219 O231 1.281 . S
C219 O232 1.236 . S
C220 O242 1.240 . S
C220 O243 1.264 . S
O221 Mn216 2.095 . S
O221 C230 1.250 . S
O222 Mn217 2.121 . S
O222 C230 1.258 . S
C223 N224 1.326 . S
C223 C227 1.460 . S
C223 H229 0.929 . S
N224 Mn217 2.257 . S
N224 C223 1.326 . S
N224 C228 1.362 . S
C225 C226 1.258 . S
C225 C228 1.431 . S
C225 C245 1.449 . S
C226 C225 1.258 . S
C226 C227 1.477 . S
C226 H246 0.931 . S
C227 C223 1.460 . S
C227 C226 1.477 . S
C227 H247 0.930 . S
C228 N224 1.362 . S
C228 C225 1.431 . S
C228 C238 1.476 . S
H229 C223 0.929 . S
C230 O221 1.250 . S
C230 O222 1.258 . S
O231 Mn216 2.162 . S
O231 C219 1.281 . S
O232 Mn216 2.297 . S
O232 C219 1.236 . S
N233 Mn217 2.282 . S
N233 C234 1.328 . S
N233 C238 1.318 . S
C234 N233 1.328 . S
C234 C235 1.457 . S
C234 H239 0.929 . S
C235 C234 1.457 . S
C235 C236 1.291 . S
C235 H248 0.931 . S
C236 C235 1.291 . S
C236 C237 1.373 . S
C236 H249 0.929 . S
C237 C236 1.373 . S
C237 C238 1.396 . S
C237 C244 1.403 . S
C238 C228 1.476 . S
C238 N233 1.318 . S
C238 C237 1.396 . S
H239 C234 0.929 . S
O240 Mn216 2.385 . S
O240 C218 1.234 . S
O241 Mn216 2.209 . S
O241 Mn217 2.215 . S
O241 C218 1.283 . S
O242 Mn216 2.094 . S
O242 C220 1.240 . S
O243 Mn217 2.117 . S
O243 C220 1.264 . S
C244 C237 1.403 . S
C244 C245 1.399 . S
C244 H250 0.929 . S
C245 C225 1.449 . S
C245 C244 1.399 . S
C245 H251 0.930 . S
H246 C226 0.931 . S
H247 C227 0.930 . S
H248 C235 0.931 . S
H249 C236 0.929 . S
H250 C244 0.929 . S
H251 C245 0.930 . S
Mn252 O257 2.095 . S
Mn252 O267 2.162 . S
Mn252 O268 2.297 . S
Mn252 O276 2.385 . S
Mn252 O277 2.209 1_655 S
Mn252 O278 2.094 . S
Mn253 O258 2.121 . S
Mn253 N260 2.257 . S
Mn253 N269 2.282 . S
Mn253 O277 2.215 . S
Mn253 O279 2.117 . S
C254 O276 1.234 1_455 S
C254 O277 1.283 . S
C255 O267 1.281 . S
C255 O268 1.236 . S
C256 O278 1.240 . S
C256 O279 1.264 1_655 S
O257 Mn252 2.095 . S
O257 C266 1.250 . S
O258 Mn253 2.121 . S
O258 C266 1.258 1_455 S
C259 N260 1.326 . S
C259 C263 1.460 . S
C259 H265 0.929 . S
N260 Mn253 2.257 . S
N260 C259 1.326 . S
N260 C264 1.362 . S
C261 C262 1.258 . S
C261 C264 1.431 . S
C261 C281 1.449 . S
C262 C261 1.258 . S
C262 C263 1.477 . S
C262 H282 0.931 . S
C263 C259 1.460 . S
C263 C262 1.477 . S
C263 H283 0.930 . S
C264 N260 1.362 . S
C264 C261 1.431 . S
C264 C274 1.476 . S
H265 C259 0.929 . S
C266 O257 1.250 . S
C266 O258 1.258 1_655 S
O267 Mn252 2.162 . S
O267 C255 1.281 . S
O268 Mn252 2.297 . S
O268 C255 1.236 . S
N269 Mn253 2.282 . S
N269 C270 1.328 . S
N269 C274 1.318 . S
C270 N269 1.328 . S
C270 C271 1.457 . S
C270 H275 0.929 . S
C271 C270 1.457 . S
C271 C272 1.291 . S
C271 H284 0.931 . S
C272 C271 1.291 . S
C272 C273 1.373 . S
C272 H285 0.929 . S
C273 C272 1.373 . S
C273 C274 1.396 . S
C273 C280 1.403 . S
C274 C264 1.476 . S
C274 N269 1.318 . S
C274 C273 1.396 . S
H275 C270 0.929 . S
O276 Mn252 2.385 . S
O276 C254 1.234 1_655 S
O277 Mn252 2.209 1_455 S
O277 Mn253 2.215 . S
O277 C254 1.283 . S
O278 Mn252 2.094 . S
O278 C256 1.240 . S
O279 Mn253 2.117 . S
O279 C256 1.264 1_455 S
C280 C273 1.403 . S
C280 C281 1.399 . S
C280 H286 0.929 . S
C281 C261 1.449 . S
C281 C280 1.399 . S
C281 H287 0.930 . S
H282 C262 0.931 . S
H283 C263 0.930 . S
H284 C271 0.931 . S
H285 C272 0.929 . S
H286 C280 0.929 . S
H287 C281 0.930 . S
Mn288 O293 2.095 . S
Mn288 O303 2.162 . S
Mn288 O304 2.297 . S
Mn288 O312 2.385 . S
Mn288 O313 2.209 1_565 S
Mn288 O314 2.094 . S
Mn289 O294 2.121 . S
Mn289 N296 2.257 . S
Mn289 N305 2.282 . S
Mn289 O313 2.215 . S
Mn289 O315 2.117 . S
C290 O312 1.234 1_545 S
C290 O313 1.283 . S
C291 O303 1.281 . S
C291 O304 1.236 . S
C292 O314 1.240 . S
C292 O315 1.264 1_565 S
O293 Mn288 2.095 . S
O293 C302 1.250 . S
O294 Mn289 2.121 . S
O294 C302 1.258 1_545 S
C295 N296 1.326 . S
C295 C299 1.460 . S
C295 H301 0.929 . S
N296 Mn289 2.257 . S
N296 C295 1.326 . S
N296 C300 1.362 . S
C297 C298 1.258 . S
C297 C300 1.431 . S
C297 C317 1.449 . S
C298 C297 1.258 . S
C298 C299 1.477 . S
C298 H318 0.931 . S
C299 C295 1.460 . S
C299 C298 1.477 . S
C299 H319 0.930 . S
C300 N296 1.362 . S
C300 C297 1.431 . S
C300 C310 1.476 . S
H301 C295 0.929 . S
C302 O293 1.250 . S
C302 O294 1.258 1_565 S
O303 Mn288 2.162 . S
O303 C291 1.281 . S
O304 Mn288 2.297 . S
O304 C291 1.236 . S
N305 Mn289 2.282 . S
N305 C306 1.328 . S
N305 C310 1.318 . S
C306 N305 1.328 . S
C306 C307 1.457 . S
C306 H311 0.929 . S
C307 C306 1.457 . S
C307 C308 1.291 . S
C307 H320 0.931 . S
C308 C307 1.291 . S
C308 C309 1.373 . S
C308 H321 0.929 . S
C309 C308 1.373 . S
C309 C310 1.396 . S
C309 C316 1.403 . S
C310 C300 1.476 . S
C310 N305 1.318 . S
C310 C309 1.396 . S
H311 C306 0.929 . S
O312 Mn288 2.385 . S
O312 C290 1.234 1_565 S
O313 Mn288 2.209 1_545 S
O313 Mn289 2.215 . S
O313 C290 1.283 . S
O314 Mn288 2.094 . S
O314 C292 1.240 . S
O315 Mn289 2.117 . S
O315 C292 1.264 1_545 S
C316 C309 1.403 . S
C316 C317 1.399 . S
C316 H322 0.929 . S
C317 C297 1.449 . S
C317 C316 1.399 . S
C317 H323 0.930 . S
H318 C298 0.931 . S
H319 C299 0.930 . S
H320 C307 0.931 . S
H321 C308 0.929 . S
H322 C316 0.929 . S
H323 C317 0.930 . S
Mn324 O329 2.095 . S
Mn324 O339 2.162 . S
Mn324 O340 2.297 . S
Mn324 O348 2.385 . S
Mn324 O349 2.209 . S
Mn324 O350 2.094 . S
Mn325 O330 2.121 . S
Mn325 N332 2.257 . S
Mn325 N341 2.282 . S
Mn325 O349 2.215 . S
Mn325 O351 2.117 . S
C326 O348 1.234 . S
C326 O349 1.283 . S
C327 O339 1.281 . S
C327 O340 1.236 . S
C328 O350 1.240 . S
C328 O351 1.264 . S
O329 Mn324 2.095 . S
O329 C338 1.250 . S
O330 Mn325 2.121 . S
O330 C338 1.258 . S
C331 N332 1.326 . S
C331 C335 1.460 . S
C331 H337 0.929 . S
N332 Mn325 2.257 . S
N332 C331 1.326 . S
N332 C336 1.362 . S
C333 C334 1.258 . S
C333 C336 1.431 . S
C333 C353 1.449 . S
C334 C333 1.258 . S
C334 C335 1.477 . S
C334 H354 0.931 . S
C335 C331 1.460 . S
C335 C334 1.477 . S
C335 H355 0.930 . S
C336 N332 1.362 . S
C336 C333 1.431 . S
C336 C346 1.476 . S
H337 C331 0.929 . S
C338 O329 1.250 . S
C338 O330 1.258 . S
O339 Mn324 2.162 . S
O339 C327 1.281 . S
O340 Mn324 2.297 . S
O340 C327 1.236 . S
N341 Mn325 2.282 . S
N341 C342 1.328 . S
N341 C346 1.318 . S
C342 N341 1.328 . S
C342 C343 1.457 . S
C342 H347 0.929 . S
C343 C342 1.457 . S
C343 C344 1.291 . S
C343 H356 0.931 . S
C344 C343 1.291 . S
C344 C345 1.373 . S
C344 H357 0.929 . S
C345 C344 1.373 . S
C345 C346 1.396 . S
C345 C352 1.403 . S
C346 C336 1.476 . S
C346 N341 1.318 . S
C346 C345 1.396 . S
H347 C342 0.929 . S
O348 Mn324 2.385 . S
O348 C326 1.234 . S
O349 Mn324 2.209 . S
O349 Mn325 2.215 . S
O349 C326 1.283 . S
O350 Mn324 2.094 . S
O350 C328 1.240 . S
O351 Mn325 2.117 . S
O351 C328 1.264 . S
C352 C345 1.403 . S
C352 C353 1.399 . S
C352 H358 0.929 . S
C353 C333 1.449 . S
C353 C352 1.399 . S
C353 H359 0.930 . S
H354 C334 0.931 . S
H355 C335 0.930 . S
H356 C343 0.931 . S
H357 C344 0.929 . S
H358 C352 0.929 . S
H359 C353 0.930 . S
Mn360 O365 2.095 . S
Mn360 O375 2.162 . S
Mn360 O376 2.297 . S
Mn360 O384 2.385 . S
Mn360 O385 2.209 1_455 S
Mn360 O386 2.094 . S
Mn361 O366 2.121 . S
Mn361 N368 2.257 . S
Mn361 N377 2.282 . S
Mn361 O385 2.215 . S
Mn361 O387 2.117 . S
C362 O384 1.234 1_655 S
C362 O385 1.283 . S
C363 O375 1.281 . S
C363 O376 1.236 . S
C364 O386 1.240 . S
C364 O387 1.264 1_455 S
O365 Mn360 2.095 . S
O365 C374 1.250 . S
O366 Mn361 2.121 . S
O366 C374 1.258 1_655 S
C367 N368 1.326 . S
C367 C371 1.460 . S
C367 H373 0.929 . S
N368 Mn361 2.257 . S
N368 C367 1.326 . S
N368 C372 1.362 . S
C369 C370 1.258 . S
C369 C372 1.431 . S
C369 C389 1.449 . S
C370 C369 1.258 . S
C370 C371 1.477 . S
C370 H390 0.931 . S
C371 C367 1.460 . S
C371 C370 1.477 . S
C371 H391 0.930 . S
C372 N368 1.362 . S
C372 C369 1.431 . S
C372 C382 1.476 . S
H373 C367 0.929 . S
C374 O365 1.250 . S
C374 O366 1.258 1_455 S
O375 Mn360 2.162 . S
O375 C363 1.281 . S
O376 Mn360 2.297 . S
O376 C363 1.236 . S
N377 Mn361 2.282 . S
N377 C378 1.328 . S
N377 C382 1.318 . S
C378 N377 1.328 . S
C378 C379 1.457 . S
C378 H383 0.929 . S
C379 C378 1.457 . S
C379 C380 1.291 . S
C379 H392 0.931 . S
C380 C379 1.291 . S
C380 C381 1.373 . S
C380 H393 0.929 . S
C381 C380 1.373 . S
C381 C382 1.396 . S
C381 C388 1.403 . S
C382 C372 1.476 . S
C382 N377 1.318 . S
C382 C381 1.396 . S
H383 C378 0.929 . S
O384 Mn360 2.385 . S
O384 C362 1.234 1_455 S
O385 Mn360 2.209 1_655 S
O385 Mn361 2.215 . S
O385 C362 1.283 . S
O386 Mn360 2.094 . S
O386 C364 1.240 . S
O387 Mn361 2.117 . S
O387 C364 1.264 1_655 S
C388 C381 1.403 . S
C388 C389 1.399 . S
C388 H394 0.929 . S
C389 C369 1.449 . S
C389 C388 1.399 . S
C389 H395 0.930 . S
H390 C370 0.931 . S
H391 C371 0.930 . S
H392 C379 0.931 . S
H393 C380 0.929 . S
H394 C388 0.929 . S
H395 C389 0.930 . S
Mn396 O401 2.095 . S
Mn396 O411 2.162 . S
Mn396 O412 2.297 . S
Mn396 O420 2.385 . S
Mn396 O421 2.209 1_545 S
Mn396 O422 2.094 . S
Mn397 O402 2.121 . S
Mn397 N404 2.257 . S
Mn397 N413 2.282 . S
Mn397 O421 2.215 . S
Mn397 O423 2.117 . S
C398 O420 1.234 1_565 S
C398 O421 1.283 . S
C399 O411 1.281 . S
C399 O412 1.236 . S
C400 O422 1.240 . S
C400 O423 1.264 1_545 S
O401 Mn396 2.095 . S
O401 C410 1.250 . S
O402 Mn397 2.121 . S
O402 C410 1.258 1_565 S
C403 N404 1.326 . S
C403 C407 1.460 . S
C403 H409 0.929 . S
N404 Mn397 2.257 . S
N404 C403 1.326 . S
N404 C408 1.362 . S
C405 C406 1.258 . S
C405 C408 1.431 . S
C405 C425 1.449 . S
C406 C405 1.258 . S
C406 C407 1.477 . S
C406 H426 0.931 . S
C407 C403 1.460 . S
C407 C406 1.477 . S
C407 H427 0.930 . S
C408 N404 1.362 . S
C408 C405 1.431 . S
C408 C418 1.476 . S
H409 C403 0.929 . S
C410 O401 1.250 . S
C410 O402 1.258 1_545 S
O411 Mn396 2.162 . S
O411 C399 1.281 . S
O412 Mn396 2.297 . S
O412 C399 1.236 . S
N413 Mn397 2.282 . S
N413 C414 1.328 . S
N413 C418 1.318 . S
C414 N413 1.328 . S
C414 C415 1.457 . S
C414 H419 0.929 . S
C415 C414 1.457 . S
C415 C416 1.291 . S
C415 H428 0.931 . S
C416 C415 1.291 . S
C416 C417 1.373 . S
C416 H429 0.929 . S
C417 C416 1.373 . S
C417 C418 1.396 . S
C417 C424 1.403 . S
C418 C408 1.476 . S
C418 N413 1.318 . S
C418 C417 1.396 . S
H419 C414 0.929 . S
O420 Mn396 2.385 . S
O420 C398 1.234 1_545 S
O421 Mn396 2.209 1_565 S
O421 Mn397 2.215 . S
O421 C398 1.283 . S
O422 Mn396 2.094 . S
O422 C400 1.240 . S
O423 Mn397 2.117 . S
O423 C400 1.264 1_565 S
C424 C417 1.403 . S
C424 C425 1.399 . S
C424 H430 0.929 . S
C425 C405 1.449 . S
C425 C424 1.399 . S
C425 H431 0.930 . S
H426 C406 0.931 . S
H427 C407 0.930 . S
H428 C415 0.931 . S
H429 C416 0.929 . S
H430 C424 0.929 . S
H431 C425 0.930 . S
C432 C433 1.170 . S
C432 C434 1.380 1_655 S
C433 C432 1.170 . S
C434 C432 1.380 1_455 S
C434 C435 1.170 . S
C435 C434 1.170 . S
C436 C437 1.170 . S
C436 C438 1.380 1_545 S
C437 C436 1.170 . S
C438 C436 1.380 1_565 S
C438 C439 1.170 . S
C439 C438 1.170 . S
C440 C441 1.170 . S
C440 C442 1.380 . S
C441 C440 1.170 . S
C442 C440 1.380 . S
C442 C443 1.170 . S
C443 C442 1.170 . S
C444 C445 1.170 . S
C444 C446 1.380 1_655 S
C445 C444 1.170 . S
C446 C444 1.380 1_455 S
C446 C447 1.170 . S
C447 C446 1.170 . S
C448 C449 1.170 . S
C448 C450 1.380 1_545 S
C449 C448 1.170 . S
C450 C448 1.380 1_565 S
C450 C451 1.170 . S
C451 C450 1.170 . S
C452 C453 1.170 . S
C452 C454 1.380 . S
C453 C452 1.170 . S
C454 C452 1.380 . S
C454 C455 1.170 . S
C455 C454 1.170 . S
C456 C457 1.170 . S
C456 C458 1.380 . S
C457 C456 1.170 . S
C458 C456 1.380 . S
C458 C459 1.170 . S
C459 C458 1.170 . S
C460 C461 1.170 . S
C460 C462 1.380 1_455 S
C461 C460 1.170 . S
C462 C460 1.380 1_655 S
C462 C463 1.170 . S
C463 C462 1.170 . S
C464 C465 1.170 . S
C464 C466 1.380 1_545 S
C465 C464 1.170 . S
C466 C464 1.380 1_565 S
C466 C467 1.170 . S
C467 C466 1.170 . S
C468 C469 1.170 . S
C468 C470 1.380 . S
C469 C468 1.170 . S
C470 C468 1.380 . S
C470 C471 1.170 . S
C471 C470 1.170 . S
C472 C473 1.170 . S
C472 C474 1.380 1_655 S
C473 C472 1.170 . S
C474 C472 1.380 1_455 S
C474 C475 1.170 . S
C475 C474 1.170 . S
C476 C477 1.170 . S
C476 C478 1.380 1_565 S
C477 C476 1.170 . S
C478 C476 1.380 1_545 S
C478 C479 1.170 . S
C479 C478 1.170 . S
C480 C481 1.170 . S
C480 C482 1.380 . S
C481 C480 1.170 . S
C482 C480 1.380 . S
C482 C483 1.170 . S
C483 C482 1.170 . S
C484 C485 1.170 . S
C484 C486 1.380 . S
C485 C484 1.170 . S
C486 C484 1.380 . S
C486 C487 1.170 . S
C487 C486 1.170 . S
C488 C489 1.170 . S
C488 C490 1.380 . S
C489 C488 1.170 . S
C490 C488 1.380 . S
C490 C491 1.170 . S
C491 C490 1.170 . S
C492 C493 1.170 . S
C492 C494 1.380 . S
C493 C492 1.170 . S
C494 C492 1.380 . S
C494 C495 1.170 . S
C495 C494 1.170 . S
C496 C497 1.170 . S
C496 C498 1.380 . S
C497 C496 1.170 . S
C498 C496 1.380 . S
C498 C499 1.170 . S
C499 C498 1.170 . S
C500 C501 1.170 . S
C500 C502 1.380 . S
C501 C500 1.170 . S
C502 C500 1.380 . S
C502 C503 1.170 . S
C503 C502 1.170 . S
C504 C505 1.170 . S
C504 C506 1.380 . S
C505 C504 1.170 . S
C506 C504 1.380 . S
C506 C507 1.170 . S
C507 C506 1.170 . S
C508 C509 1.170 . S
C508 C510 1.380 1_655 S
C509 C508 1.170 . S
C510 C508 1.380 1_455 S
C510 C511 1.170 . S
C511 C510 1.170 . S
C512 C513 1.170 . S
C512 C514 1.380 1_544 S
C513 C512 1.170 . S
C514 C512 1.380 1_566 S
C514 C515 1.170 . S
C515 C514 1.170 . S
C516 C517 1.170 . S
C516 C518 1.380 . S
C517 C516 1.170 . S
C518 C516 1.380 . S
C518 C519 1.170 . S
C519 C518 1.170 . S
C520 C521 1.170 . S
C520 C522 1.380 1_455 S
C521 C520 1.170 . S
C522 C520 1.380 1_655 S
C522 C523 1.170 . S
C523 C522 1.170 . S
C524 C525 1.170 . S
C524 C526 1.380 1_564 S
C525 C524 1.170 . S
C526 C524 1.380 1_546 S
C526 C527 1.170 . S
C527 C526 1.170 . S
C433 C399 1.601 . S
C435 C3 1.603 . S
C437 C39 1.589 . S
C439 C219 1.600 . S
C441 C75 1.606 . S
C443 C255 1.592 . S
C445 C111 1.590 . S
C447 C291 1.596 . S
C449 C327 1.598 . S
C451 C147 1.589 . S
C453 C183 1.601 . S
C455 C363 1.603 . S
C457 C112 1.296 . S
C459 C4 1.264 . S
C461 C148 1.296 . S
C463 C40 1.264 . S
C465 C184 1.279 . S
C467 C76 1.268 . S
C469 C220 1.309 . S
C471 C328 1.277 . S
C473 C256 1.292 . S
C475 C364 1.263 . S
C477 C292 1.266 . S
C479 C400 1.303 . S
C481 C290 0.758 . S
C483 C2 0.756 . S
C485 C38 0.742 . S
C487 C326 0.749 . S
C489 C362 0.752 . S
C491 C74 0.742 . S
C493 C398 0.752 . S
C495 C110 0.760 . S
C497 C218 0.742 . S
C499 C146 0.756 . S
C501 C182 0.756 . S
C503 C254 0.742 . S
C505 C338 1.459 . S
C507 C14 1.515 . S
C509 C50 1.465 . S
C511 C374 1.515 . S
C513 C410 1.468 . S
C515 C86 1.513 . S
C517 C122 1.469 . S
C519 C230 1.497 . S
C521 C158 1.471 . S
C523 C266 1.512 . S
C525 C302 1.476 . S
C527 C194 1.509 . S
