# Generated by pormake.
# Topology afw, (4)-cn, num edge types: 1
# Building blocks:
#     Node 0, Type 0, BuildingBlock: KUFVIS_clean_sbu_0, # of connection points: 4
#     Node 1, Type 0, BuildingBlock: KUFVIS_clean_sbu_0, # of connection points: 4
#     Node 2, Type 0, BuildingBlock: KUFVIS_clean_sbu_0, # of connection points: 4
#     Node 3, Type 0, BuildingBlock: KUFVIS_clean_sbu_0, # of connection points: 4
#     Node 4, Type 0, BuildingBlock: KUFVIS_clean_sbu_0, # of connection points: 4
#     Node 5, Type 0, BuildingBlock: KUFVIS_clean_sbu_0, # of connection points: 4
#     Node 6, Type 0, BuildingBlock: KUFVIS_clean_sbu_0, # of connection points: 4
#     Node 7, Type 0, BuildingBlock: KUFVIS_clean_sbu_0, # of connection points: 4
#     Node 8, Type 0, BuildingBlock: KUFVIS_clean_sbu_0, # of connection points: 4
#     Edge 9, Type (0, 0), BuildingBlock: MIFKUJ_clean_linker_0, # of connection points: 2
#     Edge 10, Type (0, 0), BuildingBlock: MIFKUJ_clean_linker_0, # of connection points: 2
#     Edge 11, Type (0, 0), BuildingBlock: MIFKUJ_clean_linker_0, # of connection points: 2
#     Edge 12, Type (0, 0), BuildingBlock: MIFKUJ_clean_linker_0, # of connection points: 2
#     Edge 13, Type (0, 0), BuildingBlock: MIFKUJ_clean_linker_0, # of connection points: 2
#     Edge 14, Type (0, 0), BuildingBlock: MIFKUJ_clean_linker_0, # of connection points: 2
#     Edge 15, Type (0, 0), BuildingBlock: MIFKUJ_clean_linker_0, # of connection points: 2
#     Edge 16, Type (0, 0), BuildingBlock: MIFKUJ_clean_linker_0, # of connection points: 2
#     Edge 17, Type (0, 0), BuildingBlock: MIFKUJ_clean_linker_0, # of connection points: 2
#     Edge 18, Type (0, 0), BuildingBlock: MIFKUJ_clean_linker_0, # of connection points: 2
#     Edge 19, Type (0, 0), BuildingBlock: MIFKUJ_clean_linker_0, # of connection points: 2
#     Edge 20, Type (0, 0), BuildingBlock: MIFKUJ_clean_linker_0, # of connection points: 2
#     Edge 21, Type (0, 0), BuildingBlock: MIFKUJ_clean_linker_0, # of connection points: 2
#     Edge 22, Type (0, 0), BuildingBlock: MIFKUJ_clean_linker_0, # of connection points: 2
#     Edge 23, Type (0, 0), BuildingBlock: MIFKUJ_clean_linker_0, # of connection points: 2
#     Edge 24, Type (0, 0), BuildingBlock: MIFKUJ_clean_linker_0, # of connection points: 2
#     Edge 25, Type (0, 0), BuildingBlock: MIFKUJ_clean_linker_0, # of connection points: 2
#     Edge 26, Type (0, 0), BuildingBlock: MIFKUJ_clean_linker_0, # of connection points: 2
# Relax obj value: 0.208
# Max RMSD: 0.224
# Mean RMSD: 0.211
data_MOF--net-afw--node1-KUFVIS_clean_sbu_0--edge1-MIFKUJ_clean_linker_0
_symmetry_space_group_name_H-M    P1
_symmetry_Int_Tables_number       1
_symmetry_cell_setting            triclinic
loop_
_symmetry_equiv_pos_as_xyz
'x, y, z'
_cell_length_a     53.892713
_cell_length_b     55.536239
_cell_length_c     42.14537
_cell_angle_alpha  90.946767
_cell_angle_beta   90.229329
_cell_angle_gamma 119.36695
loop_
_atom_site_label
_atom_site_type_symbol
_atom_site_fract_x
_atom_site_fract_y
_atom_site_fract_z
_atom_type_partial_charge
Mn0 Mn 0.00754 0.19991 0.00889 0.0
Mn1 Mn 0.06836 0.2502 0.0421 0.0
C2 C 0.05037 0.20181 -0.00169 0.0
C3 C 0.96812 0.15603 0.01127 0.0
C4 C 0.03776 0.25955 0.98714 0.0
O5 O 0.9935 0.21462 0.04492 0.0
O6 O 0.03545 0.2454 0.06777 0.0
C7 C 0.06838 0.22301 0.1019 0.0
N8 N 0.0813 0.23498 0.07432 0.0
C9 C 0.12065 0.22728 0.08558 0.0
C10 C 0.10786 0.21505 0.1142 0.0
C11 C 0.08161 0.2129 0.12238 0.0
C12 C 0.10664 0.2373 0.0663 0.0
H13 H 0.04808 0.22108 0.10815 0.0
C14 C 0.00813 0.23212 0.06682 0.0
O15 O 0.96806 0.17458 0.99291 0.0
O16 O 0.99061 0.16328 0.02875 0.0
N17 N 0.10156 0.25612 0.0194 0.0
C18 C 0.11001 0.26661 0.98993 0.0
C19 C 0.13534 0.26912 0.97765 0.0
C20 C 0.15172 0.26089 0.99576 0.0
C21 C 0.14265 0.25027 0.02606 0.0
C22 C 0.11739 0.24852 0.03723 0.0
H23 H 0.09739 0.27275 0.97577 0.0
O24 O 0.02886 0.1886 0.979 0.0
O25 O 0.04599 0.21338 0.02303 0.0
O26 O 0.01818 0.23449 0.98338 0.0
O27 O 0.05705 0.26769 0.00877 0.0
C28 C 0.15732 0.24069 0.04528 0.0
C29 C 0.14634 0.22923 0.07503 0.0
H30 H 0.11783 0.20695 0.1299 0.0
H31 H 0.07152 0.20332 0.14433 0.0
H32 H 0.14212 0.27713 0.95415 0.0
H33 H 0.17105 0.26253 0.98602 0.0
H34 H 0.17683 0.24165 0.0372 0.0
H35 H 0.15759 0.22157 0.08938 0.0
Mn36 Mn 0.81801 0.81874 0.00739 0.0
Mn37 Mn 0.81668 0.76173 0.97645 0.0
C38 C 0.85696 0.81226 0.01331 0.0
C39 C 0.82721 0.86397 0.00185 0.0
C40 C 0.78544 0.76174 0.03614 0.0
O41 O 0.78512 0.80429 0.97564 0.0
O42 O 0.78847 0.76858 0.95399 0.0
C43 C 0.83771 0.78115 0.91194 0.0
N44 N 0.84035 0.77076 0.94002 0.0
C45 C 0.88168 0.76894 0.92187 0.0
C46 C 0.87933 0.7795 0.8927 0.0
C47 C 0.85728 0.78567 0.88775 0.0
C48 C 0.86145 0.7647 0.94502 0.0
H49 H 0.82083 0.78598 0.90806 0.0
C50 C 0.77751 0.78449 0.95541 0.0
O51 O 0.80991 0.84812 0.02328 0.0
O52 O 0.8387 0.85336 0.98339 0.0
N53 N 0.84362 0.75344 0.99609 0.0
C54 C 0.84411 0.7453 0.0263 0.0
C55 C 0.86544 0.73918 0.03545 0.0
C56 C 0.88586 0.7413 0.01346 0.0
C57 C 0.88504 0.74986 0.98257 0.0
C58 C 0.86319 0.75553 0.97472 0.0
H59 H 0.82838 0.74354 0.04329 0.0
O60 O 0.85329 0.82866 0.03262 0.0
O61 O 0.8377 0.80022 0.99121 0.0
O62 O 0.79427 0.78762 0.03774 0.0
O63 O 0.79207 0.75012 0.01394 0.0
C64 C 0.90522 0.75332 0.95938 0.0
C65 C 0.90361 0.76296 0.92909 0.0
H66 H 0.89448 0.78317 0.87405 0.0
H67 H 0.8554 0.79394 0.86535 0.0
H68 H 0.8662 0.7328 0.05936 0.0
H69 H 0.90208 0.73633 0.02065 0.0
H70 H 0.92225 0.74893 0.96466 0.0
H71 H 0.91952 0.76595 0.91163 0.0
Mn72 Mn 0.19594 0.01007 0.00296 0.0
Mn73 Mn 0.18772 0.95176 0.03613 0.0
C74 C 0.15251 0.97035 -0.00045 0.0
C75 C 0.19581 0.05166 0.00796 0.0
C76 C 0.21829 0.9742 0.9741 0.0
O77 O 0.23059 0.02364 0.03184 0.0
O78 O 0.21964 0.98443 0.05782 0.0
C79 C 0.16945 0.95781 0.10055 0.0
N80 N 0.16451 0.94295 0.07296 0.0
C81 C 0.12064 0.90613 0.09268 0.0
C82 C 0.12537 0.92097 0.12138 0.0
C83 C 0.14985 0.94696 0.12528 0.0
C84 C 0.14101 0.91794 0.06893 0.0
H85 H 0.1882 0.97778 0.10362 0.0
C86 C 0.23508 0.01042 0.05346 0.0
O87 O 0.21006 0.04765 0.98567 0.0
O88 O 0.18241 0.03181 0.0277 0.0
N89 N 0.15713 0.91873 0.0176 0.0
C90 C 0.15467 0.90798 0.98771 0.0
C91 C 0.13073 0.88257 0.97947 0.0
C92 C 0.10971 0.86833 0.00209 0.0
C93 C 0.1128 0.87968 0.03277 0.0
C94 C 0.13713 0.90507 0.03964 0.0
H95 H 0.17076 0.91877 0.97021 0.0
O96 O 0.15861 0.99034 0.98016 0.0
O97 O 0.17173 0.9745 0.02093 0.0
O98 O 0.21286 0.99398 0.97175 0.0
O99 O 0.21135 0.95838 -0.00204 0.0
C100 C 0.09245 0.86703 0.05664 0.0
C101 C 0.0963 0.8803 0.08652 0.0
H102 H 0.11023 0.91273 0.14046 0.0
H103 H 0.15358 0.95861 0.14731 0.0
H104 H 0.12847 0.87397 0.95571 0.0
H105 H 0.09118 0.84882 0.99558 0.0
H106 H 0.07357 0.84726 0.05214 0.0
H107 H 0.08023 0.87059 0.10448 0.0
Mn108 Mn 0.66871 0.52858 0.32875 0.0
Mn109 Mn 0.73375 0.57923 0.3515 0.0
C110 C 0.70827 0.52459 0.31731 0.0
C111 C 0.62772 0.48809 0.3414 0.0
C112 C 0.69994 0.58356 0.29608 0.0
O113 O 0.66043 0.55128 0.3608 0.0
O114 O 0.70478 0.58029 0.3796 0.0
C115 C 0.7382 0.55884 0.41455 0.0
N116 N 0.74864 0.56692 0.38491 0.0
C117 C 0.78779 0.55873 0.39536 0.0
C118 C 0.77763 0.55062 0.42612 0.0
C119 C 0.75269 0.55061 0.43572 0.0
C120 C 0.77257 0.56692 0.37539 0.0
H121 H 0.71888 0.55852 0.42191 0.0
C122 C 0.67766 0.57001 0.38017 0.0
O123 O 0.62734 0.50382 0.31911 0.0
O124 O 0.65154 0.49634 0.35665 0.0
N125 N 0.76359 0.5799 0.3263 0.0
C126 C 0.76945 0.58647 0.2952 0.0
C127 C 0.79315 0.58644 0.28151 0.0
C128 C 0.81063 0.57977 0.29994 0.0
C129 C 0.80429 0.57326 0.33195 0.0
C130 C 0.78054 0.57388 0.34437 0.0
H131 H 0.75607 0.59155 0.28089 0.0
O132 O 0.68468 0.50975 0.3016 0.0
O133 O 0.70768 0.54084 0.33939 0.0
O134 O 0.67954 0.5587 0.29615 0.0
O135 O 0.72037 0.59354 0.31648 0.0
C136 C 0.82029 0.56567 0.35183 0.0
C137 C 0.81201 0.55835 0.38349 0.0
H138 H 0.78861 0.54404 0.44243 0.0
H139 H 0.74458 0.54415 0.45932 0.0
H140 H 0.79787 0.59142 0.25677 0.0
H141 H 0.82872 0.57947 0.28921 0.0
H142 H 0.83875 0.56499 0.34288 0.0
H143 H 0.82419 0.55208 0.39837 0.0
Mn144 Mn 0.49106 0.1559 0.34241 0.0
Mn145 Mn 0.49949 0.1044 0.31043 0.0
C146 C 0.5323 0.15417 0.35248 0.0
C147 C 0.49539 0.1995 0.33824 0.0
C148 C 0.46222 0.09734 0.36729 0.0
O149 O 0.4604 0.13975 0.30816 0.0
O150 O 0.47055 0.1086 0.28539 0.0
C151 C 0.52464 0.12963 0.2491 0.0
N152 N 0.52617 0.11794 0.27667 0.0
C153 C 0.57098 0.12158 0.26207 0.0
C154 C 0.56974 0.13337 0.23336 0.0
C155 C 0.54652 0.13751 0.22691 0.0
C156 C 0.5485 0.11404 0.28321 0.0
H157 H 0.50693 0.133 0.24415 0.0
C158 C 0.4565 0.12168 0.28678 0.0
O159 O 0.47742 0.18152 0.35763 0.0
O160 O 0.51019 0.19184 0.32086 0.0
N161 N 0.52722 0.09847 0.33212 0.0
C162 C 0.52619 0.08872 0.36183 0.0
C163 C 0.54822 0.08411 0.37235 0.0
C164 C 0.57099 0.0895 0.35223 0.0
C165 C 0.5717 0.09972 0.32187 0.0
C166 C 0.549 0.10364 0.31255 0.0
H167 H 0.50868 0.08443 0.37736 0.0
O168 O 0.52478 0.16823 0.37111 0.0
O169 O 0.51565 0.14194 0.32815 0.0
O170 O 0.46791 0.12244 0.36986 0.0
O171 O 0.47223 0.08844 0.34544 0.0
C172 C 0.59412 0.10636 0.30057 0.0
C173 C 0.59387 0.11746 0.27078 0.0
H174 H 0.58663 0.1396 0.21624 0.0
H175 H 0.54551 0.1468 0.20492 0.0
H176 H 0.54758 0.07625 0.39581 0.0
H177 H 0.58776 0.08565 0.36034 0.0
H178 H 0.61175 0.10322 0.30694 0.0
H179 H 0.61148 0.12293 0.25486 0.0
Mn180 Mn 0.87388 0.35777 0.34405 0.0
Mn181 Mn 0.92942 0.4084 0.30596 0.0
C182 C 0.87823 0.40098 0.3408 0.0
C183 C 0.82825 0.3201 0.34469 0.0
C184 C 0.93401 0.3909 0.3722 0.0
O185 O 0.88856 0.33653 0.3181 0.0
O186 O 0.92492 0.37177 0.29328 0.0
C187 C 0.90556 0.39452 0.24058 0.0
N188 N 0.91672 0.41303 0.26527 0.0
C189 C 0.91298 0.44783 0.23568 0.0
C190 C 0.90161 0.4292 0.20986 0.0
C191 C 0.89784 0.40241 0.21235 0.0
C192 C 0.9204 0.43884 0.26315 0.0
H193 H 0.90252 0.37388 0.24243 0.0
C194 C 0.90927 0.346 0.2989 0.0
O195 O 0.84697 0.32389 0.3665 0.0
O196 O 0.83628 0.33788 0.32208 0.0
N197 N 0.93586 0.44477 0.31578 0.0
C198 C 0.94567 0.45972 0.34341 0.0
C199 C 0.95013 0.48682 0.3451 0.0
C200 C 0.94459 0.49828 0.31836 0.0
C201 C 0.93444 0.48249 0.29022 0.0
C202 C 0.93069 0.4557 0.28984 0.0
H203 H 0.95001 0.45101 0.36401 0.0
O204 O 0.86318 0.38432 0.36297 0.0
O205 O 0.89011 0.3917 0.3209 0.0
O206 O 0.90808 0.37216 0.37402 0.0
O207 O 0.94444 0.40566 0.34776 0.0
C208 C 0.92765 0.49217 0.26263 0.0
C209 C 0.91681 0.47482 0.23543 0.0
H210 H 0.89551 0.43516 0.1881 0.0
H211 H 0.88896 0.38787 0.19258 0.0
H212 H 0.95788 0.49887 0.36692 0.0
H213 H 0.94826 0.51924 0.31972 0.0
H214 H 0.93048 0.51283 0.26215 0.0
H215 H 0.91132 0.48238 0.21451 0.0
Mn216 Mn 0.35413 0.87272 0.66818 0.0
Mn217 Mn 0.41481 0.92614 0.69782 0.0
C218 C 0.39719 0.87413 0.66095 0.0
C219 C 0.31485 0.82885 0.674 0.0
C220 C 0.38471 0.92974 0.63862 0.0
O221 O 0.33973 0.8904 0.70041 0.0
O222 O 0.3816 0.92406 0.72048 0.0
C223 C 0.41376 0.90558 0.76243 0.0
N224 N 0.42715 0.91458 0.73424 0.0
C225 C 0.46646 0.90878 0.75157 0.0
C226 C 0.45318 0.89964 0.78087 0.0
C227 C 0.42671 0.89803 0.7863 0.0
C228 C 0.45271 0.91638 0.72882 0.0
H229 H 0.3933 0.90408 0.76662 0.0
C230 C 0.35429 0.9105 0.71976 0.0
O231 O 0.31467 0.84581 0.65323 0.0
O232 O 0.3373 0.83785 0.69204 0.0
N233 N 0.44836 0.9298 0.67801 0.0
C234 C 0.45733 0.93713 0.64773 0.0
C235 C 0.48295 0.93866 0.63801 0.0
C236 C 0.49908 0.93267 0.65951 0.0
C237 C 0.48949 0.92532 0.69059 0.0
C238 C 0.46395 0.92444 0.69903 0.0
H239 H 0.44491 0.94153 0.63103 0.0
O240 O 0.37582 0.85922 0.64203 0.0
O241 O 0.39262 0.8877 0.68338 0.0
O242 O 0.36461 0.90471 0.63807 0.0
O243 O 0.40417 0.9398 0.66009 0.0
C244 C 0.50392 0.9182 0.71329 0.0
C245 C 0.49243 0.90996 0.74377 0.0
H246 H 0.46296 0.89351 0.79923 0.0
H247 H 0.41624 0.89083 0.80878 0.0
H248 H 0.49017 0.94427 0.61396 0.0
H249 H 0.51865 0.93356 0.65181 0.0
H250 H 0.52367 0.91861 0.70741 0.0
H251 H 0.50352 0.90416 0.76086 0.0
Mn252 Mn 0.14871 0.49859 0.69813 0.0
Mn253 Mn 0.16217 0.44753 0.67603 0.0
C254 C 0.19238 0.50239 0.70936 0.0
C255 C 0.14928 0.53945 0.68513 0.0
C256 C 0.12522 0.44399 0.73204 0.0
O257 O 0.1172 0.476 0.66596 0.0
O258 O 0.13125 0.4459 0.64886 0.0
C259 C 0.18493 0.46639 0.61192 0.0
N260 N 0.1883 0.45912 0.64167 0.0
C261 C 0.23519 0.46672 0.62963 0.0
C262 C 0.23215 0.47412 0.5988 0.0
C263 C 0.20692 0.474 0.58994 0.0
C264 C 0.21248 0.45916 0.65046 0.0
H265 H 0.16564 0.46646 0.60506 0.0
C266 C 0.11492 0.45658 0.64737 0.0
O267 O 0.13307 0.52402 0.70758 0.0
O268 O 0.16422 0.53068 0.66993 0.0
N269 N 0.19214 0.44729 0.70037 0.0
C270 C 0.19238 0.44124 0.73153 0.0
C271 C 0.21648 0.44131 0.74446 0.0
C272 C 0.24 0.44747 0.72521 0.0
C273 C 0.23917 0.45342 0.69315 0.0
C274 C 0.21448 0.45281 0.68152 0.0
H275 H 0.17439 0.43652 0.74646 0.0
O276 O 0.18404 0.51733 0.7251 0.0
O277 O 0.17507 0.48605 0.68747 0.0
O278 O 0.12916 0.46859 0.7312 0.0
O279 O 0.13569 0.43406 0.71192 0.0
C280 C 0.26208 0.46043 0.67244 0.0
C281 C 0.26011 0.46713 0.64072 0.0
H282 H 0.24913 0.48018 0.58184 0.0
H283 H 0.20448 0.47984 0.56625 0.0
H284 H 0.21698 0.43675 0.76924 0.0
H285 H 0.25866 0.44778 0.73535 0.0
H286 H 0.28146 0.46113 0.68078 0.0
H287 H 0.27803 0.47292 0.62518 0.0
Mn288 Mn 0.52507 0.66378 0.67332 0.0
Mn289 Mn 0.53018 0.61376 0.71212 0.0
C290 C 0.48544 0.62112 0.67862 0.0
C291 C 0.51931 0.70248 0.67425 0.0
C292 C 0.55073 0.63029 0.64511 0.0
O293 O 0.56266 0.68475 0.69701 0.0
O294 O 0.56248 0.65043 0.72502 0.0
C295 C 0.52048 0.62712 0.77758 0.0
N296 N 0.51291 0.60876 0.75274 0.0
C297 C 0.4742 0.57368 0.78205 0.0
C298 C 0.48169 0.59214 0.80803 0.0
C299 C 0.50491 0.61899 0.80576 0.0
C300 C 0.49063 0.58288 0.75467 0.0
H301 H 0.53823 0.64782 0.77588 0.0
C302 C 0.57345 0.6759 0.71758 0.0
O303 O 0.53213 0.69772 0.65096 0.0
O304 O 0.50997 0.68479 0.69696 0.0
N305 N 0.49992 0.57739 0.70196 0.0
C306 C 0.49439 0.56274 0.6741 0.0
C307 C 0.47132 0.53571 0.67207 0.0
C308 C 0.45429 0.52401 0.69871 0.0
C309 C 0.46039 0.53949 0.72711 0.0
C310 C 0.4838 0.56623 0.7278 0.0
H311 H 0.50741 0.57165 0.65355 0.0
O312 O 0.48633 0.63762 0.65664 0.0
O313 O 0.50763 0.63041 0.69731 0.0
O314 O 0.5423 0.64792 0.64221 0.0
O315 O 0.54809 0.61696 0.67043 0.0
C316 C 0.44395 0.52958 0.75463 0.0
C317 C 0.45077 0.54668 0.78204 0.0
H318 H 0.46962 0.586 0.82974 0.0
H319 H 0.51073 0.6334 0.82565 0.0
H320 H 0.46668 0.52392 0.65004 0.0
H321 H 0.43657 0.50316 0.69703 0.0
H322 H 0.4259 0.50894 0.75492 0.0
H323 H 0.4377 0.53895 0.80289 0.0
H324 H 0.21135 0.09175 0.96335 0.0
H325 H 0.19562 0.12631 0.96048 0.0
H326 H 0.15584 0.10116 0.05159 0.0
H327 H 0.1713 0.06673 0.05464 0.0
H328 H 0.11866 0.09483 0.00216 0.0
H329 H 0.20991 0.16334 0.04485 0.0
H330 H 0.26228 0.19126 0.0463 0.0
H331 H 0.26083 0.22491 0.95575 0.0
H332 H 0.20843 0.19686 0.95354 0.0
H333 H 0.06483 0.17957 0.04587 0.0
H334 H 0.09871 0.1624 0.04467 0.0
H335 H 0.11968 0.18901 0.94813 0.0
H336 H 0.08561 0.20663 0.94943 0.0
H337 H 0.16842 0.19687 0.99274 0.0
H338 H 0.07702 0.1289 0.95054 0.0
H339 H 0.02459 0.10152 0.94986 0.0
H340 H 0.0267 0.06648 0.0392 0.0
H341 H 0.07916 0.09406 0.04071 0.0
C342 C 0.19994 0.09415 0.98314 0.0
C343 C 0.19211 0.07626 0.00898 0.0
C344 C 0.19104 0.11392 0.98149 0.0
C345 C 0.1744 0.11604 0.00571 0.0
C346 C 0.16856 0.09968 0.0326 0.0
C347 C 0.17737 0.08 0.03427 0.0
C348 C 0.15943 0.13201 0.00126 0.0
C349 C 0.12959 0.11716 0.0003 0.0
C350 C 0.17377 0.161 -0.00239 0.0
C351 C 0.20527 0.1777 -0.00117 0.0
C352 C 0.22077 0.17644 0.02507 0.0
C353 C 0.25046 0.19236 0.02607 0.0
C354 C 0.26489 0.20977 0.00108 0.0
C355 C 0.24964 0.21136 0.97506 0.0
C356 C 0.21994 0.19547 0.97393 0.0
C357 C 0.0773 0.18249 0.02473 0.0
C358 C 0.07334 0.19496 -0.00199 0.0
C359 C 0.09652 0.17264 0.02403 0.0
C360 C 0.11164 0.17457 0.99635 0.0
C361 C 0.10835 0.18769 0.96978 0.0
C362 C 0.08889 0.19752 0.97045 0.0
C363 C 0.12784 0.15962 0.99449 0.0
C364 C 0.15769 0.17452 0.99414 0.0
C365 C 0.1136 0.13055 0.99677 0.0
C366 C 0.08203 0.11375 0.99586 0.0
C367 C 0.0663 0.11556 0.97019 0.0
C368 C 0.03658 0.09996 0.96963 0.0
C369 C 0.02231 0.08231 0.9945 0.0
C370 C 0.03777 0.08018 0.01996 0.0
C371 C 0.0675 0.09578 0.02067 0.0
H372 H -0.0007 0.07023 0.99402 0.0
H373 H 0.28787 0.22209 0.00191 0.0
H374 H 0.85267 0.89816 0.95249 0.0
H375 H 0.86995 0.94782 0.95079 0.0
H376 H 0.83789 0.94597 0.04494 0.0
H377 H 0.81954 0.89603 0.04621 0.0
H378 H 0.83051 0.98092 0.01181 0.0
H379 H 0.90875 0.9649 0.03066 0.0
H380 H 0.94135 0.94632 0.02115 0.0
H381 H 0.96593 0.98833 0.93256 0.0
H382 H 0.93312 0.00681 0.9413 0.0
H383 H 0.9538 0.11846 0.0578 0.0
H384 H 0.9218 0.06854 0.05302 0.0
H385 H 0.90034 0.07788 0.95708 0.0
H386 H 0.93161 0.12809 0.96204 0.0
H387 H 0.93289 0.04022 0.98807 0.0
H388 H 0.84922 0.054 0.9725 0.0
H389 H 0.8197 0.07443 0.98955 0.0
H390 H 0.80965 0.03809 0.08106 0.0
H391 H 0.83953 0.01782 0.06463 0.0
C392 C 0.84901 0.9083 0.97267 0.0
C393 C 0.83501 0.89332 -0.00038 0.0
C394 C 0.859 0.9367 0.97173 0.0
C395 C 0.85581 0.95076 -0.00198 0.0
C396 C 0.8407 0.9356 0.0244 0.0
C397 C 0.83027 0.90708 0.02514 0.0
C398 C 0.86941 0.98138 -0.00133 0.0
C399 C 0.85289 0.9938 0.00654 0.0
C400 C 0.8987 -0.00164 0.99197 0.0
C401 C 0.91816 0.98693 0.98644 0.0
C402 C 0.92087 0.96993 0.00898 0.0
C403 C 0.93943 0.95946 0.00376 0.0
C404 C 0.95563 0.96606 0.97622 0.0
C405 C 0.95332 0.98317 0.95385 0.0
C406 C 0.93473 0.99365 0.95892 0.0
C407 C 0.94161 0.10997 0.03601 0.0
C408 C 0.9451 0.12706 0.01029 0.0
C409 C 0.92336 0.08152 0.03336 0.0
C410 C 0.90859 0.06971 0.00485 0.0
C411 C 0.91117 0.08678 0.97948 0.0
C412 C 0.92902 0.11539 0.98234 0.0
C413 C 0.89384 0.03942 0.00051 0.0
C414 C 0.91035 0.02714 0.99249 0.0
C415 C 0.86483 0.02266 0.00767 0.0
C416 C 0.84691 0.03478 0.01751 0.0
C417 C 0.84102 0.05069 0.99638 0.0
C418 C 0.82414 0.06215 0.00589 0.0
C419 C 0.8129 0.05766 0.03642 0.0
C420 C 0.81844 0.04162 0.05745 0.0
C421 C 0.83532 0.03013 0.04805 0.0
H422 H 0.79982 0.06653 0.04373 0.0
H423 H 0.97004 0.95798 0.97225 0.0
H424 H 0.88665 0.82137 0.9595 0.0
H425 H 0.937 0.83614 0.95454 0.0
H426 H 0.94378 0.83127 0.05609 0.0
H427 H 0.89246 0.81396 0.06058 0.0
H428 H 0.97186 0.88349 0.9773 0.0
H429 H 0.00339 0.83462 0.07827 0.0
H430 H 0.98893 0.78922 0.10162 0.0
H431 H 0.95174 0.74892 0.01241 0.0
H432 H 0.96519 0.79404 0.98882 0.0
H433 H 0.11876 0.95328 0.05088 0.0
H434 H 0.06843 0.91763 0.05226 0.0
H435 H 0.06935 0.90345 0.95144 0.0
H436 H 0.1201 0.93833 0.95031 0.0
H437 H 0.03877 0.85818 0.02806 0.0
H438 H 0.00743 0.90594 0.92622 0.0
H439 H 0.02307 0.95116 0.90181 0.0
H440 H 0.06085 0.99242 0.99047 0.0
H441 H 0.04505 0.94747 0.01548 0.0
C442 C 0.89848 0.82168 0.98047 0.0
C443 C 0.88558 0.81559 0.01025 0.0
C444 C 0.92739 0.83054 0.97771 0.0
C445 C 0.94426 0.83482 0.00491 0.0
C446 C 0.93116 0.82755 0.03465 0.0
C447 C 0.90194 0.81796 0.03729 0.0
C448 C 0.9756 0.85193 0.00275 0.0
C449 C 0.98641 0.87749 0.98775 0.0
C450 C 0.99469 0.84481 0.01743 0.0
C451 C 0.98496 0.8176 0.03194 0.0
C452 C 0.99182 0.81602 0.06377 0.0
C453 C 0.98371 0.79035 0.07706 0.0
C454 C 0.96914 0.76618 0.05859 0.0
C455 C 0.96259 0.76763 0.02681 0.0
C456 C 0.97021 0.7932 0.01355 0.0
C457 C 0.10838 0.94179 0.02931 0.0
C458 C 0.12328 0.94752 0.00074 0.0
C459 C 0.07974 0.92167 0.03007 0.0
C460 C 0.06547 0.9079 0.002 0.0
C461 C 0.08025 0.91378 0.97334 0.0
C462 C 0.10904 0.93361 0.97269 0.0
C463 C 0.03456 0.88907 0.00224 0.0
C464 C 0.024 0.86362 0.01717 0.0
C465 C 0.01559 0.89617 0.98741 0.0
C466 C 0.02548 0.92335 0.97254 0.0
C467 C 0.01912 0.92468 0.94046 0.0
C468 C 0.02796 0.95026 0.92655 0.0
C469 C 0.04306 0.97466 0.94454 0.0
C470 C 0.0493 0.97352 0.97651 0.0
C471 C 0.04047 0.94799 0.99054 0.0
H472 H 0.04986 0.99444 0.93373 0.0
H473 H 0.9631 0.74633 0.06882 0.0
H474 H 0.86363 0.41316 0.28432 0.0
H475 H 0.84501 0.44478 0.2755 0.0
H476 H 0.86019 0.47012 0.37411 0.0
H477 H 0.88026 0.43947 0.38265 0.0
H478 H 0.79711 0.43186 0.33616 0.0
H479 H 0.88503 0.52003 0.35128 0.0
H480 H 0.9341 0.55609 0.33987 0.0
H481 H 0.91034 0.557 0.24271 0.0
H482 H 0.86104 0.52102 0.25366 0.0
H483 H 0.7266 0.50704 0.36635 0.0
H484 H 0.76185 0.49145 0.36563 0.0
H485 H 0.77347 0.50689 0.26526 0.0
H486 H 0.73801 0.52274 0.2661 0.0
H487 H 0.82495 0.52608 0.29943 0.0
H488 H 0.73564 0.44324 0.28658 0.0
H489 H 0.68591 0.40909 0.29832 0.0
H490 H 0.71164 0.39682 0.39044 0.0
H491 H 0.76149 0.43117 0.37943 0.0
C492 C 0.86471 0.42681 0.30358 0.0
C493 C 0.87412 0.4246 0.33393 0.0
C494 C 0.85395 0.44474 0.29856 0.0
C495 C 0.85174 0.46006 0.32404 0.0
C496 C 0.86248 0.45897 0.35402 0.0
C497 C 0.87369 0.44136 0.35892 0.0
C498 C 0.8317 0.47076 0.32135 0.0
C499 C 0.8032 0.45259 0.32854 0.0
C500 C 0.83968 0.49736 0.3103 0.0
C501 C 0.86955 0.51755 0.30315 0.0
C502 C 0.89039 0.52762 0.32738 0.0
C503 C 0.91816 0.54824 0.32108 0.0
C504 C 0.92536 0.55877 0.29056 0.0
C505 C 0.90476 0.5488 0.26632 0.0
C506 C 0.87689 0.52834 0.27258 0.0
C507 C 0.737 0.50742 0.34427 0.0
C508 C 0.73046 0.51674 0.31646 0.0
C509 C 0.75687 0.49832 0.3438 0.0
C510 C 0.77011 0.49797 0.31537 0.0
C511 C 0.76349 0.50717 0.28742 0.0
C512 C 0.74336 0.51612 0.28788 0.0
C513 C 0.79044 0.48743 0.31511 0.0
C514 C 0.81883 0.50537 0.30707 0.0
C515 C 0.78236 0.46049 0.32539 0.0
C516 C 0.75231 0.44001 0.33227 0.0
C517 C 0.73067 0.43348 0.30947 0.0
C518 C 0.70246 0.41402 0.31596 0.0
C519 C 0.69561 0.40082 0.34513 0.0
C520 C 0.71697 0.40708 0.36787 0.0
C521 C 0.74522 0.42651 0.36149 0.0
H522 H 0.67377 0.38573 0.35008 0.0
H523 H 0.94691 0.57465 0.28571 0.0
H524 H 0.52993 0.2399 0.2982 0.0
H525 H 0.5442 0.28889 0.30166 0.0
H526 H 0.4879 0.27348 0.38048 0.0
H527 H 0.47322 0.22414 0.37701 0.0
H528 H 0.48921 0.31334 0.33907 0.0
H529 H 0.55474 0.29348 0.39554 0.0
H530 H 0.58776 0.27508 0.40232 0.0
H531 H 0.64108 0.32805 0.32939 0.0
H532 H 0.60811 0.34635 0.32172 0.0
H533 H 0.61811 0.45765 0.39417 0.0
H534 H 0.58573 0.40819 0.39874 0.0
H535 H 0.55136 0.40586 0.30539 0.0
H536 H 0.58349 0.45566 0.30092 0.0
H537 H 0.59253 0.37404 0.36018 0.0
H538 H 0.48521 0.34651 0.29816 0.0
H539 H 0.45258 0.36557 0.29338 0.0
H540 H 0.48334 0.40887 0.38268 0.0
H541 H 0.51585 0.38977 0.38823 0.0
C542 C 0.52021 0.2468 0.31598 0.0
C543 C 0.50072 0.22823 0.33761 0.0
C544 C 0.52841 0.27481 0.31791 0.0
C545 C 0.51743 0.28481 0.34164 0.0
C546 C 0.49665 0.26612 0.36206 0.0
C547 C 0.48836 0.23799 0.3601 0.0
C548 C 0.52954 0.31495 0.34668 0.0
C549 C 0.51177 0.32669 0.34375 0.0
C550 C 0.55892 0.33221 0.3533 0.0
C551 C 0.57873 0.32107 0.35781 0.0
C552 C 0.57334 0.30099 0.38071 0.0
C553 C 0.59209 0.29061 0.38475 0.0
C554 C 0.61647 0.30032 0.36624 0.0
C555 C 0.62217 0.32047 0.34367 0.0
C556 C 0.60344 0.33085 0.33946 0.0
C557 C 0.60306 0.44677 0.37499 0.0
C558 C 0.60354 0.46035 0.347 0.0
C559 C 0.58457 0.41851 0.37765 0.0
C560 C 0.56634 0.40329 0.35231 0.0
C561 C 0.56509 0.41723 0.32535 0.0
C562 C 0.58348 0.44568 0.32279 0.0
C563 C 0.55235 0.37271 0.35211 0.0
C564 C 0.56988 0.36081 0.35577 0.0
C565 C 0.52283 0.35546 0.34639 0.0
C566 C 0.50316 0.36688 0.34344 0.0
C567 C 0.48493 0.36 0.31684 0.0
C568 C 0.46647 0.37083 0.31399 0.0
C569 C 0.46595 0.38849 0.33766 0.0
C570 C 0.48384 0.39528 0.36429 0.0
C571 C 0.50233 0.3845 0.36727 0.0
H572 H 0.45165 0.39685 0.3354 0.0
H573 H 0.63098 0.29228 0.36943 0.0
H574 H 0.56956 0.1684 0.30445 0.0
H575 H 0.62085 0.18632 0.30867 0.0
H576 H 0.61386 0.1757 0.40991 0.0
H577 H 0.56195 0.15541 0.40532 0.0
H578 H 0.64609 0.2358 0.36526 0.0
H579 H 0.64324 0.15345 0.40682 0.0
H580 H 0.63147 0.10465 0.408 0.0
H581 H 0.67078 0.11253 0.3175 0.0
H582 H 0.68226 0.16129 0.31552 0.0
H583 H 0.80556 0.2798 0.38899 0.0
H584 H 0.75538 0.2452 0.39499 0.0
H585 H 0.73386 0.27487 0.31106 0.0
H586 H 0.78385 0.3096 0.30499 0.0
H587 H 0.71631 0.20278 0.35683 0.0
H588 H 0.67208 0.27603 0.32498 0.0
H589 H 0.6873 0.32578 0.3279 0.0
H590 H 0.74374 0.3368 0.40577 0.0
H591 H 0.72865 0.28709 0.40359 0.0
C592 C 0.57869 0.16802 0.32723 0.0
C593 C 0.56174 0.15938 0.35433 0.0
C594 C 0.60802 0.17852 0.32969 0.0
C595 C 0.621 0.18161 0.35948 0.0
C596 C 0.6041 0.17249 0.38659 0.0
C597 C 0.57457 0.16119 0.38399 0.0
C598 C 0.65195 0.20017 0.36252 0.0
C599 C 0.66151 0.22863 0.36361 0.0
C600 C 0.67183 0.19063 0.36079 0.0
C601 C 0.66305 0.16085 0.36073 0.0
C602 C 0.64876 0.14462 0.38683 0.0
C603 C 0.64241 0.11703 0.38779 0.0
C604 C 0.6503 0.10546 0.3628 0.0
C605 C 0.66464 0.12149 0.33683 0.0
C606 C 0.671 0.14908 0.33574 0.0
C607 C 0.79016 0.27879 0.37166 0.0
C608 C 0.79857 0.29753 0.34665 0.0
C609 C 0.76156 0.25899 0.3751 0.0
C610 C 0.74095 0.25781 0.35375 0.0
C611 C 0.74945 0.27578 0.32807 0.0
C612 C 0.77801 0.29552 0.32456 0.0
C613 C 0.71042 0.23843 0.35878 0.0
C614 C 0.70094 0.20996 0.35887 0.0
C615 C 0.69053 0.24795 0.36204 0.0
C616 C 0.69943 0.27785 0.36388 0.0
C617 C 0.68765 0.28904 0.34282 0.0
C618 C 0.69625 0.31724 0.34434 0.0
C619 C 0.71651 0.33444 0.36695 0.0
C620 C 0.72813 0.32346 0.38819 0.0
C621 C 0.71959 0.29529 0.38678 0.0
H622 H 0.72321 0.35626 0.36803 0.0
H623 H 0.64534 0.08409 0.36358 0.0
H624 H 0.43026 0.87207 0.61336 0.0
H625 H 0.46152 0.85146 0.61645 0.0
H626 H 0.44597 0.83994 0.71686 0.0
H627 H 0.41404 0.85923 0.71353 0.0
H628 H 0.50983 0.85646 0.65613 0.0
H629 H 0.42014 0.77018 0.72725 0.0
H630 H 0.36932 0.75315 0.73807 0.0
H631 H 0.35885 0.7815 0.64749 0.0
H632 H 0.40911 0.79721 0.63535 0.0
H633 H 0.49736 0.71948 0.72203 0.0
H634 H 0.48553 0.75661 0.72098 0.0
H635 H 0.51793 0.77634 0.62592 0.0
H636 H 0.53034 0.73946 0.62702 0.0
H637 H 0.4476 0.75789 0.68238 0.0
H638 H 0.53951 0.84544 0.61311 0.0
H639 H 0.59127 0.86517 0.60605 0.0
H640 H 0.59852 0.83594 0.69742 0.0
H641 H 0.54693 0.81639 0.70523 0.0
C642 C 0.43432 0.86584 0.63615 0.0
C643 C 0.42037 0.86766 0.66335 0.0
C644 C 0.4523 0.85439 0.63797 0.0
C645 C 0.45588 0.84418 0.66686 0.0
C646 C 0.4435 0.84783 0.6944 0.0
C647 C 0.42539 0.85893 0.69251 0.0
C648 C 0.46736 0.82496 0.6673 0.0
C649 C 0.4963 0.83482 0.66147 0.0
C650 C 0.44955 0.79689 0.6748 0.0
C651 C 0.41859 0.78531 0.68063 0.0
C652 C 0.4069 0.77242 0.70945 0.0
C653 C 0.37815 0.76293 0.71578 0.0
C654 C 0.36089 0.76634 0.69353 0.0
C655 C 0.37224 0.77889 0.66472 0.0
C656 C 0.40081 0.78792 0.65801 0.0
C657 C 0.5023 0.73194 0.70104 0.0
C658 C 0.51455 0.72645 0.6745 0.0
C659 C 0.49555 0.75314 0.70049 0.0
C660 C 0.50088 0.76923 0.67341 0.0
C661 C 0.51397 0.7644 0.64721 0.0
C662 C 0.52089 0.74323 0.64782 0.0
C663 C 0.49039 0.7893 0.67171 0.0
C664 C 0.46134 0.7795 0.67703 0.0
C665 C 0.50818 0.81734 0.66391 0.0
C666 C 0.53927 0.82915 0.65955 0.0
C667 C 0.55217 0.84328 0.63172 0.0
C668 C 0.58148 0.85443 0.62759 0.0
C669 C 0.59815 0.85172 0.65121 0.0
C670 C 0.58556 0.83792 0.67907 0.0
C671 C 0.55627 0.82675 0.68333 0.0
H672 H 0.62083 0.86036 0.64797 0.0
H673 H 0.33869 0.75909 0.69853 0.0
H674 H 0.31325 0.78843 0.71101 0.0
H675 H 0.2782 0.73933 0.70942 0.0
H676 H 0.22942 0.7539 0.63852 0.0
H677 H 0.26468 0.80333 0.63981 0.0
H678 H 0.19514 0.71651 0.68412 0.0
H679 H 0.27045 0.72951 0.61457 0.0
H680 H 0.31895 0.74328 0.59639 0.0
H681 H 0.32767 0.69367 0.66792 0.0
H682 H 0.27934 0.67986 0.68682 0.0
H683 H 0.16654 0.56761 0.63046 0.0
H684 H 0.18559 0.61714 0.62408 0.0
H685 H 0.16309 0.62449 0.72051 0.0
H686 H 0.14324 0.57458 0.7267 0.0
H687 H 0.23054 0.65165 0.65647 0.0
H688 H 0.16171 0.68613 0.72953 0.0
H689 H 0.11107 0.66948 0.74092 0.0
H690 H 0.08674 0.6223 0.65349 0.0
H691 H 0.13722 0.63895 0.64135 0.0
C692 C 0.29493 0.78132 0.6953 0.0
C693 C 0.29182 0.79976 0.67538 0.0
C694 C 0.27496 0.7532 0.69436 0.0
C695 C 0.2514 0.74294 0.67359 0.0
C696 C 0.2475 0.76143 0.65467 0.0
C697 C 0.26766 0.78963 0.65541 0.0
C698 C 0.23167 0.71276 0.67082 0.0
C699 C 0.20278 0.70225 0.67803 0.0
C700 C 0.2416 0.69425 0.66232 0.0
C701 C 0.27133 0.70384 0.65228 0.0
C702 C 0.28284 0.72183 0.62671 0.0
C703 C 0.31023 0.72949 0.61614 0.0
C704 C 0.32628 0.71918 0.63084 0.0
C705 C 0.31512 0.70148 0.65642 0.0
C706 C 0.28775 0.69376 0.66709 0.0
C707 C 0.16483 0.57964 0.64998 0.0
C708 C 0.15371 0.56738 0.67918 0.0
C709 C 0.17578 0.60796 0.64633 0.0
C710 C 0.17608 0.62462 0.67189 0.0
C711 C 0.16289 0.61205 0.70034 0.0
C712 C 0.15156 0.58352 0.70388 0.0
C713 C 0.19395 0.65513 0.67024 0.0
C714 C 0.22268 0.66577 0.66242 0.0
C715 C 0.18371 0.6736 0.67772 0.0
C716 C 0.15328 0.6636 0.6847 0.0
C717 C 0.14556 0.67228 0.71268 0.0
C718 C 0.11688 0.66283 0.71927 0.0
C719 C 0.0957 0.64477 0.69799 0.0
C720 C 0.10316 0.63619 0.67002 0.0
C721 C 0.13181 0.64559 0.6633 0.0
H722 H 0.07351 0.63748 0.70314 0.0
H723 H 0.34745 0.72508 0.62255 0.0
H724 H 0.22512 0.50524 0.76031 0.0
H725 H 0.27638 0.52008 0.76007 0.0
H726 H 0.27794 0.53293 0.65918 0.0
H727 H 0.22727 0.51863 0.65959 0.0
H728 H 0.30668 0.49913 0.72672 0.0
H729 H 0.33828 0.59037 0.64138 0.0
H730 H 0.3229 0.62415 0.62791 0.0
H731 H 0.28798 0.61711 0.72086 0.0
H732 H 0.30353 0.58362 0.73508 0.0
H733 H 0.44744 0.58171 0.6383 0.0
H734 H 0.39666 0.55148 0.64842 0.0
H735 H 0.41007 0.57893 0.74636 0.0
H736 H 0.46039 0.61016 0.73594 0.0
H737 H 0.37435 0.59112 0.68472 0.0
H738 H 0.34743 0.5037 0.77148 0.0
H739 H 0.35931 0.46718 0.78375 0.0
H740 H 0.38365 0.46613 0.68707 0.0
H741 H 0.37202 0.50265 0.67431 0.0
C742 C 0.2366 0.51117 0.73822 0.0
C743 C 0.22248 0.51016 0.70981 0.0
C744 C 0.26565 0.5195 0.73805 0.0
C745 C 0.28082 0.52761 0.70962 0.0
C746 C 0.26663 0.52692 0.68138 0.0
C747 C 0.23774 0.51856 0.68156 0.0
C748 C 0.31167 0.53746 0.70914 0.0
C749 C 0.3216 0.5194 0.71799 0.0
C750 C 0.3309 0.56375 0.69731 0.0
C751 C 0.32187 0.58427 0.68918 0.0
C752 C 0.32746 0.59613 0.65901 0.0
C753 C 0.31868 0.61522 0.65123 0.0
C754 C 0.30439 0.6227 0.67348 0.0
C755 C 0.29896 0.61121 0.70361 0.0
C756 C 0.30771 0.59215 0.71152 0.0
C757 C 0.43967 0.58034 0.66224 0.0
C758 C 0.45778 0.59762 0.68657 0.0
C759 C 0.41082 0.56296 0.66805 0.0
C760 C 0.39988 0.56262 0.69827 0.0
C761 C 0.41836 0.57838 0.72314 0.0
C762 C 0.44708 0.5961 0.7172 0.0
C763 C 0.36923 0.55258 0.7016 0.0
C764 C 0.35943 0.57088 0.69354 0.0
C765 C 0.35026 0.52661 0.71413 0.0
C766 C 0.3593 0.5062 0.7221 0.0
C767 C 0.35558 0.49583 0.75294 0.0
C768 C 0.36217 0.47507 0.75995 0.0
C769 C 0.37225 0.46435 0.7362 0.0
C770 C 0.37597 0.47454 0.70547 0.0
C771 C 0.36961 0.49543 0.69841 0.0
H772 H 0.37723 0.4482 0.74163 0.0
H773 H 0.29756 0.63742 0.66739 0.0
H774 H 0.01501 0.24962 0.92725 0.0
H775 H 0.02382 0.28368 0.88657 0.0
H776 H 0.07289 0.34971 0.95387 0.0
H777 H 0.06473 0.31579 0.99472 0.0
H778 H 0.02981 0.35395 0.90189 0.0
H779 H 0.1146 0.34446 0.92008 0.0
H780 H 0.1371 0.3158 0.92957 0.0
H781 H 0.10062 0.27055 0.84246 0.0
H782 H 0.07762 0.29885 0.8327 0.0
H783 H 0.11631 0.45953 0.79116 0.0
H784 H 0.09525 0.42958 0.83668 0.0
H785 H 0.07629 0.35818 0.77771 0.0
H786 H 0.09784 0.38788 0.73259 0.0
H787 H 0.10378 0.35831 0.82869 0.0
H788 H 0.02373 0.37145 0.80661 0.0
H789 H -0.00101 0.39816 0.79755 0.0
H790 H 0.02388 0.43507 0.89079 0.0
H791 H 0.04912 0.40885 0.90025 0.0
C792 C 0.02714 0.27138 0.93366 0.0
C793 C 0.03945 0.28003 0.96409 0.0
C794 C 0.03204 0.29077 0.91043 0.0
C795 C 0.04888 0.31907 0.91741 0.0
C796 C 0.05963 0.3279 0.94826 0.0
C797 C 0.05516 0.30851 0.97141 0.0
C798 C 0.05882 0.33884 0.89132 0.0
C799 C 0.04622 0.35532 0.88601 0.0
C800 C 0.07983 0.34007 0.87054 0.0
C801 C 0.09421 0.32355 0.87584 0.0
C802 C 0.11124 0.32827 0.90308 0.0
C803 C 0.12409 0.31211 0.90849 0.0
C804 C 0.1202 0.29127 0.8867 0.0
C805 C 0.10357 0.28667 0.85935 0.0
C806 C 0.09066 0.30279 0.85384 0.0
C807 C 0.10717 0.43739 0.78783 0.0
C808 C 0.10897 0.42607 0.75841 0.0
C809 C 0.09509 0.4203 0.81382 0.0
C810 C 0.08422 0.39163 0.8106 0.0
C811 C 0.08474 0.38025 0.78081 0.0
C812 C 0.09706 0.39727 0.75503 0.0
C813 C 0.07461 0.37358 0.83857 0.0
C814 C 0.0874 0.35728 0.8444 0.0
C815 C 0.05373 0.37262 0.85964 0.0
C816 C 0.03858 0.3884 0.854 0.0
C817 C 0.02415 0.38544 0.82508 0.0
C818 C 0.00998 0.40046 0.81989 0.0
C819 C 0.00993 0.41836 0.84354 0.0
C820 C 0.02398 0.42123 0.87247 0.0
C821 C 0.03819 0.40628 0.87777 0.0
H822 H -0.00105 0.42996 0.83948 0.0
H823 H 0.13013 0.27873 0.89096 0.0
H824 H 0.76014 0.82111 0.93647 0.0
H825 H 0.72985 0.81591 0.89024 0.0
H826 H 0.71766 0.73409 0.87211 0.0
H827 H 0.74764 0.73903 0.91764 0.0
H828 H 0.73486 0.76666 0.8192 0.0
H829 H 0.6664 0.744 0.90622 0.0
H830 H 0.6491 0.75594 0.95486 0.0
H831 H 0.64823 0.8234 0.90749 0.0
H832 H 0.66585 0.81201 0.85866 0.0
H833 H 0.6113 0.66602 0.74968 0.0
H834 H 0.65139 0.69848 0.78267 0.0
H835 H 0.63399 0.76404 0.75877 0.0
H836 H 0.59359 0.73152 0.72533 0.0
H837 H 0.63917 0.75866 0.82426 0.0
H838 H 0.69353 0.77069 0.73269 0.0
H839 H 0.70938 0.75726 0.68405 0.0
H840 H 0.73696 0.71008 0.739 0.0
H841 H 0.72089 0.72283 0.78793 0.0
C842 C 0.75062 0.80188 0.92286 0.0
C843 C 0.75643 0.78054 0.93055 0.0
C844 C 0.73349 0.79903 0.89643 0.0
C845 C 0.72191 0.77477 0.87763 0.0
C846 C 0.7268 0.75315 0.88608 0.0
C847 C 0.74384 0.75597 0.91223 0.0
C848 C 0.70487 0.7713 0.84871 0.0
C849 C 0.714 0.76509 0.82013 0.0
C850 C 0.67836 0.77066 0.84968 0.0
C851 C 0.6678 0.77741 0.879 0.0
C852 C 0.66275 0.76152 0.90629 0.0
C853 C 0.65284 0.76816 0.93386 0.0
C854 C 0.64767 0.79048 0.93431 0.0
C855 C 0.65232 0.80617 0.90714 0.0
C856 C 0.66226 0.79963 0.87952 0.0
C857 C 0.61615 0.6874 0.75107 0.0
C858 C 0.59927 0.6962 0.73499 0.0
C859 C 0.63919 0.70597 0.76976 0.0
C860 C 0.64573 0.73367 0.77284 0.0
C861 C 0.62931 0.74276 0.75642 0.0
C862 C 0.60636 0.72419 0.73733 0.0
C863 C 0.66834 0.75201 0.79548 0.0
C864 C 0.66044 0.76125 0.8228 0.0
C865 C 0.69603 0.75542 0.79339 0.0
C866 C 0.70597 0.74775 0.76404 0.0
C867 C 0.70284 0.75733 0.73441 0.0
C868 C 0.71188 0.74984 0.70677 0.0
C869 C 0.72417 0.73283 0.70843 0.0
C870 C 0.72748 0.7233 0.73775 0.0
C871 C 0.71846 0.7307 0.76547 0.0
H872 H 0.73114 0.72705 0.687 0.0
H873 H 0.63999 0.79558 0.95567 0.0
H874 H 0.37767 0.94838 0.76838 0.0
H875 H 0.35304 0.95929 0.8095 0.0
H876 H 0.27211 0.90151 0.76655 0.0
H877 H 0.29662 0.88993 0.72535 0.0
H878 H 0.31899 0.98073 0.80913 0.0
H879 H 0.224 0.87121 0.82603 0.0
H880 H 0.21222 0.82255 0.81858 0.0
H881 H 0.30039 0.84591 0.8308 0.0
H882 H 0.31262 0.89461 0.83874 0.0
H883 H 0.22121 0.99056 0.91288 0.0
H884 H 0.24261 0.97961 0.86797 0.0
H885 H 0.26861 0.93439 0.92951 0.0
H886 H 0.24632 0.94443 0.97437 0.0
H887 H 0.24844 0.9066 0.87664 0.0
H888 H 0.31593 0.00107 0.90402 0.0
H889 H 0.33176 0.05031 0.91495 0.0
H890 H 0.30621 0.05823 0.82081 0.0
H891 H 0.28989 0.00893 0.80946 0.0
C892 C 0.35463 0.93802 0.76744 0.0
C893 C 0.33912 0.91813 0.74358 0.0
C894 C 0.34059 0.94439 0.79098 0.0
C895 C 0.31078 0.93105 0.79123 0.0
C896 C 0.29516 0.91175 0.76701 0.0
C897 C 0.30921 0.90523 0.74345 0.0
C898 C 0.29629 0.93697 0.81747 0.0
C899 C 0.30345 0.96452 0.82381 0.0
C900 C 0.27639 0.91585 0.8369 0.0
C901 C 0.26923 0.88658 0.8326 0.0
C902 C 0.24084 0.86593 0.82722 0.0
C903 C 0.23409 0.83835 0.8229 0.0
C904 C 0.25556 0.83116 0.8241 0.0
C905 C 0.2838 0.85152 0.82975 0.0
C906 C 0.29066 0.87911 0.83413 0.0
C907 C 0.23163 0.97842 0.91691 0.0
C908 C 0.23227 0.96853 0.94722 0.0
C909 C 0.24387 0.9722 0.8912 0.0
C910 C 0.25753 0.95649 0.89545 0.0
C911 C 0.25814 0.94652 0.92568 0.0
C912 C 0.24551 0.95238 0.95132 0.0
C913 C 0.27123 0.95042 0.86844 0.0
C914 C 0.26382 0.92282 0.86185 0.0
C915 C 0.29149 0.97158 0.84929 0.0
C916 C 0.30144 0.00126 0.85601 0.0
C917 C 0.31351 0.01328 0.88573 0.0
C918 C 0.3226 0.0412 0.89199 0.0
C919 C 0.31992 0.05737 0.86862 0.0
C920 C 0.30823 0.04567 0.8389 0.0
C921 C 0.29909 0.01775 0.83254 0.0
H922 H 0.32697 0.07898 0.87351 0.0
H923 H 0.25029 0.8098 0.82071 0.0
H924 H 0.45531 0.10331 0.22623 0.0
H925 H 0.41771 0.0905 0.18616 0.0
H926 H 0.36994 0.11154 0.25197 0.0
H927 H 0.40794 0.12528 0.29204 0.0
H928 H 0.34271 0.05332 0.21965 0.0
H929 H 0.39025 0.15115 0.20095 0.0
H930 H 0.43188 0.19652 0.19052 0.0
H931 H 0.4466 0.16442 0.10354 0.0
H932 H 0.40529 0.11869 0.11373 0.0
H933 H 0.22963 0.0225 0.11424 0.0
H934 H 0.26766 0.04687 0.15376 0.0
H935 H 0.33019 0.05757 0.08347 0.0
H936 H 0.29193 0.03403 0.04353 0.0
H937 H 0.34965 0.10234 0.11982 0.0
H938 H 0.30647 0.00522 0.13798 0.0
H939 H 0.26696 0.95823 0.14712 0.0
H940 H 0.24673 0.98647 0.23355 0.0
H941 H 0.2859 0.03374 0.22468 0.0
C942 C 0.43695 0.10549 0.23208 0.0
C943 C 0.43447 0.11522 0.26224 0.0
C944 C 0.41562 0.09829 0.20916 0.0
C945 C 0.3913 0.10025 0.21625 0.0
C946 C 0.38876 0.11012 0.24619 0.0
C947 C 0.41042 0.11795 0.26893 0.0
C948 C 0.36772 0.09001 0.19297 0.0
C949 C 0.34385 0.06422 0.19808 0.0
C950 C 0.37001 0.10394 0.16449 0.0
C951 C 0.39486 0.13141 0.15829 0.0
C952 C 0.40255 0.15367 0.17978 0.0
C953 C 0.42605 0.17948 0.17387 0.0
C954 C 0.44193 0.18333 0.14643 0.0
C955 C 0.4343 0.1614 0.12481 0.0
C956 C 0.41083 0.13553 0.13063 0.0
C957 C 0.25153 0.03018 0.10735 0.0
C958 C 0.25813 0.02622 0.07627 0.0
C959 C 0.2732 0.04404 0.12984 0.0
C960 C 0.3017 0.05348 0.12173 0.0
C961 C 0.30832 0.05035 0.09024 0.0
C962 C 0.2866 0.03686 0.06755 0.0
C963 C 0.32437 0.06552 0.14643 0.0
C964 C 0.34822 0.09152 0.14153 0.0
C965 C 0.32234 0.05153 0.17494 0.0
C966 C 0.29892 0.02307 0.18049 0.0
C967 C 0.29347 0.00144 0.15882 0.0
C968 C 0.27116 0.97476 0.16397 0.0
C969 C 0.2543 0.96939 0.19085 0.0
C970 C 0.25978 0.99068 0.21271 0.0
C971 C 0.28204 0.01742 0.20765 0.0
H972 H 0.23703 0.94871 0.19479 0.0
H973 H 0.46011 0.20334 0.14189 0.0
H974 H 0.95114 0.20298 0.08056 0.0
H975 H 0.92691 0.2112 0.12499 0.0
H976 H 0.00658 0.28062 0.1566 0.0
H977 H 0.03096 0.27232 0.113 0.0
H978 H 0.97812 0.25034 0.2056 0.0
H979 H 0.95632 0.28822 0.11251 0.0
H980 H 0.93628 0.28505 0.05888 0.0
H981 H 0.85385 0.22381 0.0904 0.0
H982 H 0.87353 0.22641 0.14416 0.0
H983 H 0.95977 0.35545 0.27446 0.0
H984 H 0.96868 0.32425 0.24106 0.0
H985 H 0.88075 0.26112 0.24861 0.0
H986 H 0.87167 0.2922 0.28268 0.0
H987 H 0.90231 0.27442 0.18485 0.0
H988 H 0.92402 0.24678 0.28204 0.0
H989 H 0.94533 0.25295 0.33547 0.0
H990 H 0.02907 0.29715 0.29639 0.0
H991 H 0.00829 0.29165 0.24276 0.0
C992 C 0.96348 0.22002 0.09696 0.0
C993 C 0.99299 0.23708 0.09311 0.0
C994 C 0.94959 0.22464 0.12235 0.0
C995 C 0.96494 0.24657 0.14401 0.0
C996 C 0.99436 0.26345 0.14029 0.0
C997 C 0.00824 0.25875 0.11518 0.0
C998 C 0.95067 0.25295 0.17012 0.0
C999 C 0.96149 0.25555 0.20111 0.0
C1000 C 0.92825 0.25874 0.16442 0.0
C1001 C 0.91645 0.25723 0.13218 0.0
C1002 C 0.93397 0.27393 0.10792 0.0
C1003 C 0.92268 0.27226 0.07752 0.0
C1004 C 0.89383 0.25416 0.07121 0.0
C1005 C 0.87621 0.23776 0.09531 0.0
C1006 C 0.88741 0.23932 0.12573 0.0
C1007 C 0.94239 0.33482 0.26935 0.0
C1008 C 0.91503 0.32626 0.28108 0.0
C1009 C 0.94754 0.31699 0.25043 0.0
C1010 C 0.92538 0.29041 0.24262 0.0
C1011 C 0.8981 0.28155 0.25462 0.0
C1012 C 0.89302 0.29926 0.27409 0.0
C1013 C 0.93078 0.27308 0.21989 0.0
C1014 C 0.91828 0.26837 0.18956 0.0
C1015 C 0.95184 0.2656 0.22612 0.0
C1016 C 0.96455 0.26888 0.25834 0.0
C1017 C 0.94698 0.25799 0.28484 0.0
C1018 C 0.95897 0.26134 0.31518 0.0
C1019 C 0.98853 0.27545 0.31933 0.0
C1020 C 0.00617 0.28621 0.29314 0.0
C1021 C 0.99429 0.28294 0.26275 0.0
H1022 H -0.00223 0.27803 0.34284 0.0
H1023 H 0.88512 0.25291 0.04767 0.0
H1024 H 0.72624 0.63989 0.29693 0.0
H1025 H 0.73153 0.66981 0.25248 0.0
H1026 H 0.68189 0.59808 0.19245 0.0
H1027 H 0.67595 0.56795 0.23691 0.0
H1028 H 0.74057 0.63868 0.17263 0.0
H1029 H 0.65223 0.63217 0.20664 0.0
H1030 H 0.61999 0.63547 0.24561 0.0
H1031 H 0.67891 0.72183 0.26067 0.0
H1032 H 0.71174 0.71896 0.22212 0.0
H1033 H 0.74951 0.70623 0.03374 0.0
H1034 H 0.72633 0.67605 0.07813 0.0
H1035 H 0.75919 0.74688 0.14188 0.0
H1036 H 0.78199 0.77745 0.09724 0.0
H1037 H 0.70618 0.70621 0.15999 0.0
H1038 H 0.79613 0.71429 0.1361 0.0
H1039 H 0.83334 0.71506 0.10183 0.0
H1040 H 0.77746 0.63061 0.07321 0.0
H1041 H 0.73981 0.62939 0.10752 0.0
C1042 C 0.71609 0.63049 0.27439 0.0
C1043 C 0.70082 0.60159 0.2703 0.0
C1044 C 0.71897 0.6476 0.24915 0.0
C1045 C 0.70696 0.63605 0.2194 0.0
C1046 C 0.69109 0.60726 0.21541 0.0
C1047 C 0.68774 0.59013 0.24079 0.0
C1048 C 0.71379 0.65395 0.19168 0.0
C1049 C 0.73255 0.65301 0.16947 0.0
C1050 C 0.70433 0.67348 0.1886 0.0
C1051 C 0.68458 0.67528 0.2117 0.0
C1052 C 0.65846 0.65181 0.21848 0.0
C1053 C 0.64004 0.65362 0.24045 0.0
C1054 C 0.64743 0.67883 0.25567 0.0
C1055 C 0.67323 0.70231 0.24889 0.0
C1056 C 0.69173 0.70061 0.22695 0.0
C1057 C 0.75143 0.71546 0.0571 0.0
C1058 C 0.76798 0.74417 0.06212 0.0
C1059 C 0.73811 0.69819 0.08242 0.0
C1060 C 0.74154 0.70922 0.11333 0.0
C1061 C 0.75636 0.73799 0.11817 0.0
C1062 C 0.76944 0.7554 0.09269 0.0
C1063 C 0.73255 0.69053 0.14065 0.0
C1064 C 0.71377 0.69154 0.16292 0.0
C1065 C 0.74257 0.67148 0.14446 0.0
C1066 C 0.7651 0.67185 0.12407 0.0
C1067 C 0.79173 0.69594 0.12235 0.0
C1068 C 0.81291 0.69645 0.10292 0.0
C1069 C 0.80774 0.67296 0.08511 0.0
C1070 C 0.78142 0.64882 0.08694 0.0
C1071 C 0.76017 0.64817 0.10645 0.0
H1072 H 0.82417 0.67344 0.07001 0.0
H1073 H 0.63314 0.68019 0.27266 0.0
H1074 H 0.10711 0.41949 0.59974 0.0
H1075 H 0.07545 0.40703 0.5538 0.0
H1076 H 0.04222 0.45862 0.58968 0.0
H1077 H 0.07442 0.47184 0.63564 0.0
H1078 H 0.02006 0.38222 0.54441 0.0
H1079 H 0.03009 0.48988 0.52751 0.0
H1080 H 0.06429 0.53884 0.53988 0.0
H1081 H 0.13317 0.52078 0.53901 0.0
H1082 H 0.09945 0.47184 0.52618 0.0
H1083 H 0.91794 0.37197 0.43215 0.0
H1084 H 0.94827 0.38199 0.47899 0.0
H1085 H 0.02246 0.43177 0.42312 0.0
H1086 H 0.99212 0.42249 0.37611 0.0
H1087 H 0.02576 0.45723 0.47712 0.0
H1088 H 0.00595 0.36632 0.44627 0.0
H1089 H 0.97601 0.31717 0.431 0.0
H1090 H 0.93456 0.30133 0.52111 0.0
H1091 H 0.96399 0.35048 0.53677 0.0
C1092 C 0.09294 0.42808 0.59813 0.0
C1093 C 0.09353 0.44692 0.6213 0.0
C1094 C 0.07477 0.42082 0.57183 0.0
C1095 C 0.0568 0.43219 0.56813 0.0
C1096 C 0.05632 0.45 0.59186 0.0
C1097 C 0.07466 0.45744 0.61816 0.0
C1098 C 0.03953 0.42624 0.53873 0.0
C1099 C 0.0212 0.39859 0.52974 0.0
C1100 C 0.04165 0.44764 0.5192 0.0
C1101 C 0.06219 0.47715 0.52623 0.0
C1102 C 0.05255 0.4964 0.52982 0.0
C1103 C 0.07185 0.52414 0.53693 0.0
C1104 C 0.10087 0.53289 0.54035 0.0
C1105 C 0.11067 0.51396 0.53648 0.0
C1106 C 0.09148 0.48621 0.52931 0.0
C1107 C 0.94072 0.38494 0.42969 0.0
C1108 C 0.95263 0.39633 0.40031 0.0
C1109 C 0.95804 0.39058 0.45653 0.0
C1110 C 0.98764 0.40731 0.45445 0.0
C1111 C -0.00037 0.41878 0.42521 0.0
C1112 C 0.98228 0.41338 0.39837 0.0
C1113 C 0.00599 0.41317 0.48296 0.0
C1114 C 0.02452 0.44082 0.49181 0.0
C1115 C 0.00468 0.39175 0.50185 0.0
C1116 C 0.98701 0.36214 0.49258 0.0
C1117 C 0.99031 0.3524 0.46274 0.0
C1118 C 0.97345 0.32453 0.45403 0.0
C1119 C 0.95335 0.30616 0.47504 0.0
C1120 C 0.95011 0.3156 0.50484 0.0
C1121 C 0.9669 0.34345 0.51367 0.0
H1122 H 0.94032 0.28459 0.46825 0.0
H1123 H 0.11576 0.55436 0.54592 0.0
H1124 H 0.70206 0.59287 0.43755 0.0
H1125 H 0.68054 0.60487 0.48163 0.0
H1126 H 0.60506 0.58101 0.42473 0.0
H1127 H 0.62607 0.56817 0.3806 0.0
H1128 H 0.63408 0.63737 0.46541 0.0
H1129 H 0.59326 0.53683 0.46735 0.0
H1130 H 0.59796 0.49482 0.46669 0.0
H1131 H 0.65108 0.52402 0.55038 0.0
H1132 H 0.64707 0.56645 0.55119 0.0
H1133 H 0.53927 0.63267 0.58277 0.0
H1134 H 0.56132 0.62371 0.53695 0.0
H1135 H 0.61529 0.60814 0.59959 0.0
H1136 H 0.59208 0.61559 0.64552 0.0
H1137 H 0.59838 0.57244 0.55495 0.0
H1138 H 0.63928 0.67055 0.55719 0.0
H1139 H 0.64 0.71529 0.55903 0.0
H1140 H 0.5939 0.69527 0.47041 0.0
H1141 H 0.59257 0.65023 0.46824 0.0
C1142 C 0.68099 0.5904 0.43426 0.0
C1143 C 0.66563 0.5794 0.40571 0.0
C1144 C 0.66879 0.59726 0.45943 0.0
C1145 C 0.64133 0.59371 0.45622 0.0
C1146 C 0.62634 0.58385 0.42742 0.0
C1147 C 0.63829 0.57643 0.4024 0.0
C1148 C 0.62771 0.59885 0.48365 0.0
C1149 C 0.62586 0.62311 0.48489 0.0
C1150 C 0.61812 0.5806 0.5093 0.0
C1151 C 0.62012 0.55491 0.50912 0.0
C1152 C 0.60616 0.5344 0.48543 0.0
C1153 C 0.60865 0.5105 0.48506 0.0
C1154 C 0.62487 0.50679 0.50843 0.0
C1155 C 0.63855 0.52694 0.53227 0.0
C1156 C 0.63616 0.5509 0.53271 0.0
C1157 C 0.55587 0.62737 0.5867 0.0
C1158 C 0.56412 0.62494 0.61759 0.0
C1159 C 0.56859 0.62242 0.56053 0.0
C1160 C 0.59042 0.61585 0.56479 0.0
C1161 C 0.59853 0.61324 0.59571 0.0
C1162 C 0.58531 0.61752 0.62191 0.0
C1163 C 0.60437 0.61111 0.53701 0.0
C1164 C 0.60645 0.58688 0.53563 0.0
C1165 C 0.61477 0.62978 0.51155 0.0
C1166 C 0.6156 0.6569 0.51271 0.0
C1167 C 0.62912 0.6756 0.5382 0.0
C1168 C 0.62966 0.70103 0.53929 0.0
C1169 C 0.61694 0.70809 0.51489 0.0
C1170 C 0.60371 0.68976 0.48931 0.0
C1171 C 0.60308 0.66429 0.48812 0.0
H1172 H 0.61738 0.72778 0.51578 0.0
H1173 H 0.62678 0.48828 0.5081 0.0
H1174 H 0.4202 0.98539 0.63459 0.0
H1175 H 0.42652 0.01461 0.58946 0.0
H1176 H 0.36063 0.94467 0.53755 0.0
H1177 H 0.35374 0.91524 0.58289 0.0
H1178 H 0.4447 0.0099 0.53342 0.0
H1179 H 0.33018 0.96788 0.48266 0.0
H1180 H 0.28102 0.9479 0.50209 0.0
H1181 H 0.31245 0.98926 0.59228 0.0
H1182 H 0.36176 0.00978 0.57326 0.0
H1183 H 0.45167 0.04438 0.37512 0.0
H1184 H 0.43108 0.01565 0.42121 0.0
H1185 H 0.41395 0.07733 0.46282 0.0
H1186 H 0.43467 0.10652 0.41675 0.0
H1187 H 0.37053 0.01961 0.47388 0.0
H1188 H 0.47104 0.08284 0.48464 0.0
H1189 H 0.52081 0.10573 0.46677 0.0
H1190 H 0.51857 0.0274 0.46191 0.0
H1191 H 0.46856 0.00397 0.47917 0.0
C1192 C 0.40676 0.97621 0.61376 0.0
C1193 C 0.38658 0.94788 0.61231 0.0
C1194 C 0.41043 0.99298 0.58796 0.0
C1195 C 0.39404 0.98184 0.56017 0.0
C1196 C 0.37325 0.95378 0.55893 0.0
C1197 C 0.36944 0.93696 0.58484 0.0
C1198 C 0.40043 -0.00089 0.53171 0.0
C1199 C 0.42844 0.01204 0.52056 0.0
C1200 C 0.37929 0.00214 0.51502 0.0
C1201 C 0.34969 0.99014 0.5266 0.0
C1202 C 0.3266 0.97279 0.50659 0.0
C1203 C 0.2987 0.96136 0.51755 0.0
C1204 C 0.29362 0.96723 0.54844 0.0
C1205 C 0.31642 0.98463 0.56841 0.0
C1206 C 0.34435 0.99613 0.55756 0.0
C1207 C 0.44302 0.0517 0.39368 0.0
C1208 C 0.44531 0.07802 0.39245 0.0
C1209 C 0.43119 0.03518 0.41997 0.0
C1210 C 0.42131 0.04457 0.44541 0.0
C1211 C 0.42147 0.0698 0.4433 0.0
C1212 C 0.43351 0.08649 0.41706 0.0
C1213 C 0.41453 0.0298 0.47568 0.0
C1214 C 0.38662 0.01738 0.487 0.0
C1215 C 0.43582 0.0276 0.49298 0.0
C1216 C 0.46599 0.04163 0.48293 0.0
C1217 C 0.48108 0.07047 0.4795 0.0
C1218 C 0.50934 0.08354 0.46951 0.0
C1219 C 0.52284 0.06802 0.46321 0.0
C1220 C 0.50808 0.03939 0.46681 0.0
C1221 C 0.47978 0.0262 0.4767 0.0
H1222 H 0.54476 0.0782 0.45565 0.0
H1223 H 0.27201 0.95835 0.55687 0.0
loop_
_geom_bond_atom_site_label_1
_geom_bond_atom_site_label_2
_geom_bond_distance
_geom_bond_site_symmetry_2
_ccdc_geom_bond_type
Mn0 O5 2.095 1_455 S
Mn0 O15 2.162 1_454 S
Mn0 O16 2.297 1_455 S
Mn0 O24 2.385 1_554 S
Mn0 O25 2.209 . S
Mn0 O26 2.094 1_554 S
Mn1 O6 2.121 . S
Mn1 N8 2.257 . S
Mn1 N17 2.282 . S
Mn1 O25 2.215 . S
Mn1 O27 2.117 1_554 S
C2 O24 1.234 1_554 S
C2 O25 1.283 . S
C3 O15 1.281 1_554 S
C3 O16 1.236 . S
C4 O26 1.240 . S
C4 O27 1.264 . S
O5 Mn0 2.095 1_655 S
O5 C14 1.250 1_655 S
O6 Mn1 2.121 . S
O6 C14 1.258 . S
C7 N8 1.326 . S
C7 C11 1.460 . S
C7 H13 0.929 . S
N8 Mn1 2.257 . S
N8 C7 1.326 . S
N8 C12 1.362 . S
C9 C10 1.258 . S
C9 C12 1.431 . S
C9 C29 1.449 . S
C10 C9 1.258 . S
C10 C11 1.477 . S
C10 H30 0.931 . S
C11 C7 1.460 . S
C11 C10 1.477 . S
C11 H31 0.930 . S
C12 N8 1.362 . S
C12 C9 1.431 . S
C12 C22 1.476 . S
H13 C7 0.929 . S
C14 O5 1.250 1_455 S
C14 O6 1.258 . S
O15 Mn0 2.162 1_656 S
O15 C3 1.281 1_556 S
O16 Mn0 2.297 1_655 S
O16 C3 1.236 . S
N17 Mn1 2.282 . S
N17 C18 1.328 1_554 S
N17 C22 1.318 . S
C18 N17 1.328 1_556 S
C18 C19 1.457 . S
C18 H23 0.929 . S
C19 C18 1.457 . S
C19 C20 1.291 . S
C19 H32 0.931 . S
C20 C19 1.291 . S
C20 C21 1.373 1_556 S
C20 H33 0.929 . S
C21 C20 1.373 1_554 S
C21 C22 1.396 . S
C21 C28 1.403 . S
C22 C12 1.476 . S
C22 N17 1.318 . S
C22 C21 1.396 . S
H23 C18 0.929 . S
O24 Mn0 2.385 1_556 S
O24 C2 1.234 1_556 S
O25 Mn0 2.209 . S
O25 Mn1 2.215 . S
O25 C2 1.283 . S
O26 Mn0 2.094 1_556 S
O26 C4 1.240 . S
O27 Mn1 2.117 1_556 S
O27 C4 1.264 . S
C28 C21 1.403 . S
C28 C29 1.399 . S
C28 H34 0.929 . S
C29 C9 1.449 . S
C29 C28 1.399 . S
C29 H35 0.930 . S
H30 C10 0.931 . S
H31 C11 0.930 . S
H32 C19 0.931 . S
H33 C20 0.929 . S
H34 C28 0.929 . S
H35 C29 0.930 . S
Mn36 O41 2.095 1_554 S
Mn36 O51 2.162 . S
Mn36 O52 2.297 1_554 S
Mn36 O60 2.385 . S
Mn36 O61 2.209 1_554 S
Mn36 O62 2.094 . S
Mn37 O42 2.121 . S
Mn37 N44 2.257 . S
Mn37 N53 2.282 1_556 S
Mn37 O61 2.215 . S
Mn37 O63 2.117 1_556 S
C38 O60 1.234 . S
C38 O61 1.283 1_554 S
C39 O51 1.281 . S
C39 O52 1.236 1_554 S
C40 O62 1.240 . S
C40 O63 1.264 . S
O41 Mn36 2.095 1_556 S
O41 C50 1.250 . S
O42 Mn37 2.121 . S
O42 C50 1.258 . S
C43 N44 1.326 . S
C43 C47 1.460 . S
C43 H49 0.929 . S
N44 Mn37 2.257 . S
N44 C43 1.326 . S
N44 C48 1.362 . S
C45 C46 1.258 . S
C45 C48 1.431 . S
C45 C65 1.449 . S
C46 C45 1.258 . S
C46 C47 1.477 . S
C46 H66 0.931 . S
C47 C43 1.460 . S
C47 C46 1.477 . S
C47 H67 0.930 . S
C48 N44 1.362 . S
C48 C45 1.431 . S
C48 C58 1.476 . S
H49 C43 0.929 . S
C50 O41 1.250 . S
C50 O42 1.258 . S
O51 Mn36 2.162 . S
O51 C39 1.281 . S
O52 Mn36 2.297 1_556 S
O52 C39 1.236 1_556 S
N53 Mn37 2.282 1_554 S
N53 C54 1.328 . S
N53 C58 1.318 1_554 S
C54 N53 1.328 . S
C54 C55 1.457 . S
C54 H59 0.929 . S
C55 C54 1.457 . S
C55 C56 1.291 . S
C55 H68 0.931 . S
C56 C55 1.291 . S
C56 C57 1.373 1_554 S
C56 H69 0.929 . S
C57 C56 1.373 1_556 S
C57 C58 1.396 . S
C57 C64 1.403 . S
C58 C48 1.476 . S
C58 N53 1.318 1_556 S
C58 C57 1.396 . S
H59 C54 0.929 . S
O60 Mn36 2.385 . S
O60 C38 1.234 . S
O61 Mn36 2.209 1_556 S
O61 Mn37 2.215 . S
O61 C38 1.283 1_556 S
O62 Mn36 2.094 . S
O62 C40 1.240 . S
O63 Mn37 2.117 1_554 S
O63 C40 1.264 . S
C64 C57 1.403 . S
C64 C65 1.399 . S
C64 H70 0.929 . S
C65 C45 1.449 . S
C65 C64 1.399 . S
C65 H71 0.930 . S
H66 C46 0.931 . S
H67 C47 0.930 . S
H68 C55 0.931 . S
H69 C56 0.929 . S
H70 C64 0.929 . S
H71 C65 0.930 . S
Mn72 O77 2.095 . S
Mn72 O87 2.162 1_554 S
Mn72 O88 2.297 . S
Mn72 O96 2.385 1_544 S
Mn72 O97 2.209 1_545 S
Mn72 O98 2.094 1_554 S
Mn73 O78 2.149 . S
Mn73 N80 2.257 . S
Mn73 N89 2.282 . S
Mn73 O97 2.215 . S
Mn73 O99 2.117 1_554 S
C74 O96 1.234 1_554 S
C74 O97 1.283 . S
C75 O87 1.281 1_554 S
C75 O88 1.236 . S
C76 O98 1.240 1_565 S
C76 O99 1.264 . S
O77 Mn72 2.095 . S
O77 C86 1.250 . S
O78 Mn73 2.149 . S
O78 C86 1.217 1_565 S
C79 N80 1.326 . S
C79 C83 1.460 . S
C79 H85 0.929 . S
N80 Mn73 2.257 . S
N80 C79 1.326 . S
N80 C84 1.362 . S
C81 C82 1.258 . S
C81 C84 1.431 . S
C81 C101 1.449 . S
C82 C81 1.258 . S
C82 C83 1.477 . S
C82 H102 0.931 . S
C83 C79 1.460 . S
C83 C82 1.477 . S
C83 H103 0.930 . S
C84 N80 1.362 . S
C84 C81 1.431 . S
C84 C94 1.476 . S
H85 C79 0.929 . S
C86 O77 1.250 . S
C86 O78 1.217 1_545 S
O87 Mn72 2.162 1_556 S
O87 C75 1.281 1_556 S
O88 Mn72 2.297 . S
O88 C75 1.236 . S
N89 Mn73 2.282 . S
N89 C90 1.328 1_554 S
N89 C94 1.318 . S
C90 N89 1.328 1_556 S
C90 C91 1.457 . S
C90 H95 0.929 . S
C91 C90 1.457 . S
C91 C92 1.291 . S
C91 H104 0.931 . S
C92 C91 1.291 . S
C92 C93 1.373 1_556 S
C92 H105 0.929 . S
C93 C92 1.373 1_554 S
C93 C94 1.396 . S
C93 C100 1.403 . S
C94 C84 1.476 . S
C94 N89 1.318 . S
C94 C93 1.396 . S
H95 C90 0.929 . S
O96 Mn72 2.385 1_566 S
O96 C74 1.234 1_556 S
O97 Mn72 2.209 1_565 S
O97 Mn73 2.215 . S
O97 C74 1.283 . S
O98 Mn72 2.094 1_556 S
O98 C76 1.240 1_545 S
O99 Mn73 2.117 1_556 S
O99 C76 1.264 . S
C100 C93 1.403 . S
C100 C101 1.399 . S
C100 H106 0.929 . S
C101 C81 1.449 . S
C101 C100 1.399 . S
C101 H107 0.930 . S
H102 C82 0.931 . S
H103 C83 0.930 . S
H104 C91 0.931 . S
H105 C92 0.929 . S
H106 C100 0.929 . S
H107 C101 0.930 . S
Mn108 O113 2.095 . S
Mn108 O123 2.162 . S
Mn108 O124 2.297 . S
Mn108 O132 2.385 . S
Mn108 O133 2.209 . S
Mn108 O134 2.094 . S
Mn109 O114 2.121 . S
Mn109 N116 2.257 . S
Mn109 N125 2.282 . S
Mn109 O133 2.215 . S
Mn109 O135 2.117 . S
C110 O132 1.234 . S
C110 O133 1.283 . S
C111 O123 1.281 . S
C111 O124 1.236 . S
C112 O134 1.240 . S
C112 O135 1.264 . S
O113 Mn108 2.095 . S
O113 C122 1.250 . S
O114 Mn109 2.121 . S
O114 C122 1.258 . S
C115 N116 1.326 . S
C115 C119 1.460 . S
C115 H121 0.929 . S
N116 Mn109 2.257 . S
N116 C115 1.326 . S
N116 C120 1.362 . S
C117 C118 1.258 . S
C117 C120 1.431 . S
C117 C137 1.449 . S
C118 C117 1.258 . S
C118 C119 1.477 . S
C118 H138 0.931 . S
C119 C115 1.460 . S
C119 C118 1.477 . S
C119 H139 0.930 . S
C120 N116 1.362 . S
C120 C117 1.431 . S
C120 C130 1.476 . S
H121 C115 0.929 . S
C122 O113 1.250 . S
C122 O114 1.258 . S
O123 Mn108 2.162 . S
O123 C111 1.281 . S
O124 Mn108 2.297 . S
O124 C111 1.236 . S
N125 Mn109 2.282 . S
N125 C126 1.328 . S
N125 C130 1.318 . S
C126 N125 1.328 . S
C126 C127 1.457 . S
C126 H131 0.929 . S
C127 C126 1.457 . S
C127 C128 1.291 . S
C127 H140 0.931 . S
C128 C127 1.291 . S
C128 C129 1.373 . S
C128 H141 0.929 . S
C129 C128 1.373 . S
C129 C130 1.396 . S
C129 C136 1.403 . S
C130 C120 1.476 . S
C130 N125 1.318 . S
C130 C129 1.396 . S
H131 C126 0.929 . S
O132 Mn108 2.385 . S
O132 C110 1.234 . S
O133 Mn108 2.209 . S
O133 Mn109 2.215 . S
O133 C110 1.283 . S
O134 Mn108 2.094 . S
O134 C112 1.240 . S
O135 Mn109 2.117 . S
O135 C112 1.264 . S
C136 C129 1.403 . S
C136 C137 1.399 . S
C136 H142 0.929 . S
C137 C117 1.449 . S
C137 C136 1.399 . S
C137 H143 0.930 . S
H138 C118 0.931 . S
H139 C119 0.930 . S
H140 C127 0.931 . S
H141 C128 0.929 . S
H142 C136 0.929 . S
H143 C137 0.930 . S
Mn144 O149 2.095 . S
Mn144 O159 2.162 . S
Mn144 O160 2.297 . S
Mn144 O168 2.385 . S
Mn144 O169 2.209 . S
Mn144 O170 2.094 . S
Mn145 O150 2.121 . S
Mn145 N152 2.257 . S
Mn145 N161 2.282 . S
Mn145 O169 2.215 . S
Mn145 O171 2.117 . S
C146 O168 1.234 . S
C146 O169 1.283 . S
C147 O159 1.281 . S
C147 O160 1.236 . S
C148 O170 1.240 . S
C148 O171 1.264 . S
O149 Mn144 2.095 . S
O149 C158 1.250 . S
O150 Mn145 2.121 . S
O150 C158 1.258 . S
C151 N152 1.326 . S
C151 C155 1.460 . S
C151 H157 0.929 . S
N152 Mn145 2.257 . S
N152 C151 1.326 . S
N152 C156 1.362 . S
C153 C154 1.258 . S
C153 C156 1.431 . S
C153 C173 1.449 . S
C154 C153 1.258 . S
C154 C155 1.477 . S
C154 H174 0.931 . S
C155 C151 1.460 . S
C155 C154 1.477 . S
C155 H175 0.930 . S
C156 N152 1.362 . S
C156 C153 1.431 . S
C156 C166 1.476 . S
H157 C151 0.929 . S
C158 O149 1.250 . S
C158 O150 1.258 . S
O159 Mn144 2.162 . S
O159 C147 1.281 . S
O160 Mn144 2.297 . S
O160 C147 1.236 . S
N161 Mn145 2.282 . S
N161 C162 1.328 . S
N161 C166 1.318 . S
C162 N161 1.328 . S
C162 C163 1.457 . S
C162 H167 0.929 . S
C163 C162 1.457 . S
C163 C164 1.291 . S
C163 H176 0.931 . S
C164 C163 1.291 . S
C164 C165 1.373 . S
C164 H177 0.929 . S
C165 C164 1.373 . S
C165 C166 1.396 . S
C165 C172 1.403 . S
C166 C156 1.476 . S
C166 N161 1.318 . S
C166 C165 1.396 . S
H167 C162 0.929 . S
O168 Mn144 2.385 . S
O168 C146 1.234 . S
O169 Mn144 2.209 . S
O169 Mn145 2.215 . S
O169 C146 1.283 . S
O170 Mn144 2.094 . S
O170 C148 1.240 . S
O171 Mn145 2.117 . S
O171 C148 1.264 . S
C172 C165 1.403 . S
C172 C173 1.399 . S
C172 H178 0.929 . S
C173 C153 1.449 . S
C173 C172 1.399 . S
C173 H179 0.930 . S
H174 C154 0.931 . S
H175 C155 0.930 . S
H176 C163 0.931 . S
H177 C164 0.929 . S
H178 C172 0.929 . S
H179 C173 0.930 . S
Mn180 O185 2.095 . S
Mn180 O195 2.162 . S
Mn180 O196 2.297 . S
Mn180 O204 2.385 . S
Mn180 O205 2.209 . S
Mn180 O206 2.094 . S
Mn181 O186 2.121 . S
Mn181 N188 2.257 . S
Mn181 N197 2.282 . S
Mn181 O205 2.215 . S
Mn181 O207 2.117 . S
C182 O204 1.234 . S
C182 O205 1.283 . S
C183 O195 1.281 . S
C183 O196 1.236 . S
C184 O206 1.240 . S
C184 O207 1.264 . S
O185 Mn180 2.095 . S
O185 C194 1.250 . S
O186 Mn181 2.121 . S
O186 C194 1.258 . S
C187 N188 1.326 . S
C187 C191 1.460 . S
C187 H193 0.929 . S
N188 Mn181 2.257 . S
N188 C187 1.326 . S
N188 C192 1.362 . S
C189 C190 1.258 . S
C189 C192 1.431 . S
C189 C209 1.449 . S
C190 C189 1.258 . S
C190 C191 1.477 . S
C190 H210 0.931 . S
C191 C187 1.460 . S
C191 C190 1.477 . S
C191 H211 0.930 . S
C192 N188 1.362 . S
C192 C189 1.431 . S
C192 C202 1.476 . S
H193 C187 0.929 . S
C194 O185 1.250 . S
C194 O186 1.258 . S
O195 Mn180 2.162 . S
O195 C183 1.281 . S
O196 Mn180 2.297 . S
O196 C183 1.236 . S
N197 Mn181 2.282 . S
N197 C198 1.328 . S
N197 C202 1.318 . S
C198 N197 1.328 . S
C198 C199 1.457 . S
C198 H203 0.929 . S
C199 C198 1.457 . S
C199 C200 1.291 . S
C199 H212 0.931 . S
C200 C199 1.291 . S
C200 C201 1.373 . S
C200 H213 0.929 . S
C201 C200 1.373 . S
C201 C202 1.396 . S
C201 C208 1.403 . S
C202 C192 1.476 . S
C202 N197 1.318 . S
C202 C201 1.396 . S
H203 C198 0.929 . S
O204 Mn180 2.385 . S
O204 C182 1.234 . S
O205 Mn180 2.209 . S
O205 Mn181 2.215 . S
O205 C182 1.283 . S
O206 Mn180 2.094 . S
O206 C184 1.240 . S
O207 Mn181 2.117 . S
O207 C184 1.264 . S
C208 C201 1.403 . S
C208 C209 1.399 . S
C208 H214 0.929 . S
C209 C189 1.449 . S
C209 C208 1.399 . S
C209 H215 0.930 . S
H210 C190 0.931 . S
H211 C191 0.930 . S
H212 C199 0.931 . S
H213 C200 0.929 . S
H214 C208 0.929 . S
H215 C209 0.930 . S
Mn216 O221 2.095 . S
Mn216 O231 2.162 . S
Mn216 O232 2.297 . S
Mn216 O240 2.385 . S
Mn216 O241 2.209 . S
Mn216 O242 2.094 . S
Mn217 O222 2.121 . S
Mn217 N224 2.257 . S
Mn217 N233 2.282 . S
Mn217 O241 2.215 . S
Mn217 O243 2.117 . S
C218 O240 1.234 . S
C218 O241 1.283 . S
C219 O231 1.281 . S
C219 O232 1.236 . S
C220 O242 1.240 . S
C220 O243 1.264 . S
O221 Mn216 2.095 . S
O221 C230 1.250 . S
O222 Mn217 2.121 . S
O222 C230 1.258 . S
C223 N224 1.326 . S
C223 C227 1.460 . S
C223 H229 0.929 . S
N224 Mn217 2.257 . S
N224 C223 1.326 . S
N224 C228 1.362 . S
C225 C226 1.258 . S
C225 C228 1.431 . S
C225 C245 1.449 . S
C226 C225 1.258 . S
C226 C227 1.477 . S
C226 H246 0.931 . S
C227 C223 1.460 . S
C227 C226 1.477 . S
C227 H247 0.930 . S
C228 N224 1.362 . S
C228 C225 1.431 . S
C228 C238 1.476 . S
H229 C223 0.929 . S
C230 O221 1.250 . S
C230 O222 1.258 . S
O231 Mn216 2.162 . S
O231 C219 1.281 . S
O232 Mn216 2.297 . S
O232 C219 1.236 . S
N233 Mn217 2.282 . S
N233 C234 1.328 . S
N233 C238 1.318 . S
C234 N233 1.328 . S
C234 C235 1.457 . S
C234 H239 0.929 . S
C235 C234 1.457 . S
C235 C236 1.291 . S
C235 H248 0.931 . S
C236 C235 1.291 . S
C236 C237 1.373 . S
C236 H249 0.929 . S
C237 C236 1.373 . S
C237 C238 1.396 . S
C237 C244 1.403 . S
C238 C228 1.476 . S
C238 N233 1.318 . S
C238 C237 1.396 . S
H239 C234 0.929 . S
O240 Mn216 2.385 . S
O240 C218 1.234 . S
O241 Mn216 2.209 . S
O241 Mn217 2.215 . S
O241 C218 1.283 . S
O242 Mn216 2.094 . S
O242 C220 1.240 . S
O243 Mn217 2.117 . S
O243 C220 1.264 . S
C244 C237 1.403 . S
C244 C245 1.399 . S
C244 H250 0.929 . S
C245 C225 1.449 . S
C245 C244 1.399 . S
C245 H251 0.930 . S
H246 C226 0.931 . S
H247 C227 0.930 . S
H248 C235 0.931 . S
H249 C236 0.929 . S
H250 C244 0.929 . S
H251 C245 0.930 . S
Mn252 O257 2.095 . S
Mn252 O267 2.162 . S
Mn252 O268 2.297 . S
Mn252 O276 2.385 . S
Mn252 O277 2.209 . S
Mn252 O278 2.094 . S
Mn253 O258 2.121 . S
Mn253 N260 2.257 . S
Mn253 N269 2.282 . S
Mn253 O277 2.215 . S
Mn253 O279 2.117 . S
C254 O276 1.234 . S
C254 O277 1.283 . S
C255 O267 1.281 . S
C255 O268 1.236 . S
C256 O278 1.240 . S
C256 O279 1.264 . S
O257 Mn252 2.095 . S
O257 C266 1.250 . S
O258 Mn253 2.121 . S
O258 C266 1.258 . S
C259 N260 1.326 . S
C259 C263 1.460 . S
C259 H265 0.929 . S
N260 Mn253 2.257 . S
N260 C259 1.326 . S
N260 C264 1.362 . S
C261 C262 1.258 . S
C261 C264 1.431 . S
C261 C281 1.449 . S
C262 C261 1.258 . S
C262 C263 1.477 . S
C262 H282 0.931 . S
C263 C259 1.460 . S
C263 C262 1.477 . S
C263 H283 0.930 . S
C264 N260 1.362 . S
C264 C261 1.431 . S
C264 C274 1.476 . S
H265 C259 0.929 . S
C266 O257 1.250 . S
C266 O258 1.258 . S
O267 Mn252 2.162 . S
O267 C255 1.281 . S
O268 Mn252 2.297 . S
O268 C255 1.236 . S
N269 Mn253 2.282 . S
N269 C270 1.328 . S
N269 C274 1.318 . S
C270 N269 1.328 . S
C270 C271 1.457 . S
C270 H275 0.929 . S
C271 C270 1.457 . S
C271 C272 1.291 . S
C271 H284 0.931 . S
C272 C271 1.291 . S
C272 C273 1.373 . S
C272 H285 0.929 . S
C273 C272 1.373 . S
C273 C274 1.396 . S
C273 C280 1.403 . S
C274 C264 1.476 . S
C274 N269 1.318 . S
C274 C273 1.396 . S
H275 C270 0.929 . S
O276 Mn252 2.385 . S
O276 C254 1.234 . S
O277 Mn252 2.209 . S
O277 Mn253 2.215 . S
O277 C254 1.283 . S
O278 Mn252 2.094 . S
O278 C256 1.240 . S
O279 Mn253 2.117 . S
O279 C256 1.264 . S
C280 C273 1.403 . S
C280 C281 1.399 . S
C280 H286 0.929 . S
C281 C261 1.449 . S
C281 C280 1.399 . S
C281 H287 0.930 . S
H282 C262 0.931 . S
H283 C263 0.930 . S
H284 C271 0.931 . S
H285 C272 0.929 . S
H286 C280 0.929 . S
H287 C281 0.930 . S
Mn288 O293 2.095 . S
Mn288 O303 2.162 . S
Mn288 O304 2.297 . S
Mn288 O312 2.385 . S
Mn288 O313 2.209 . S
Mn288 O314 2.094 . S
Mn289 O294 2.121 . S
Mn289 N296 2.257 . S
Mn289 N305 2.282 . S
Mn289 O313 2.215 . S
Mn289 O315 2.117 . S
C290 O312 1.234 . S
C290 O313 1.283 . S
C291 O303 1.281 . S
C291 O304 1.236 . S
C292 O314 1.240 . S
C292 O315 1.264 . S
O293 Mn288 2.095 . S
O293 C302 1.250 . S
O294 Mn289 2.121 . S
O294 C302 1.258 . S
C295 N296 1.326 . S
C295 C299 1.460 . S
C295 H301 0.929 . S
N296 Mn289 2.257 . S
N296 C295 1.326 . S
N296 C300 1.362 . S
C297 C298 1.258 . S
C297 C300 1.431 . S
C297 C317 1.449 . S
C298 C297 1.258 . S
C298 C299 1.477 . S
C298 H318 0.931 . S
C299 C295 1.460 . S
C299 C298 1.477 . S
C299 H319 0.930 . S
C300 N296 1.362 . S
C300 C297 1.431 . S
C300 C310 1.476 . S
H301 C295 0.929 . S
C302 O293 1.250 . S
C302 O294 1.258 . S
O303 Mn288 2.162 . S
O303 C291 1.281 . S
O304 Mn288 2.297 . S
O304 C291 1.236 . S
N305 Mn289 2.282 . S
N305 C306 1.328 . S
N305 C310 1.318 . S
C306 N305 1.328 . S
C306 C307 1.457 . S
C306 H311 0.929 . S
C307 C306 1.457 . S
C307 C308 1.291 . S
C307 H320 0.931 . S
C308 C307 1.291 . S
C308 C309 1.373 . S
C308 H321 0.929 . S
C309 C308 1.373 . S
C309 C310 1.396 . S
C309 C316 1.403 . S
C310 C300 1.476 . S
C310 N305 1.318 . S
C310 C309 1.396 . S
H311 C306 0.929 . S
O312 Mn288 2.385 . S
O312 C290 1.234 . S
O313 Mn288 2.209 . S
O313 Mn289 2.215 . S
O313 C290 1.283 . S
O314 Mn288 2.094 . S
O314 C292 1.240 . S
O315 Mn289 2.117 . S
O315 C292 1.264 . S
C316 C309 1.403 . S
C316 C317 1.399 . S
C316 H322 0.929 . S
C317 C297 1.449 . S
C317 C316 1.399 . S
C317 H323 0.930 . S
H318 C298 0.931 . S
H319 C299 0.930 . S
H320 C307 0.931 . S
H321 C308 0.929 . S
H322 C316 0.929 . S
H323 C317 0.930 . S
H324 C342 0.951 . S
H325 C344 0.957 . S
H326 C346 0.950 . S
H327 C347 0.950 . S
H328 C349 0.950 1_556 S
H329 C352 0.950 . S
H330 C353 0.950 . S
H331 C355 0.950 . S
H332 C356 0.950 . S
H333 C357 0.951 . S
H334 C359 0.951 . S
H335 C361 0.950 1_556 S
H336 C362 0.950 1_556 S
H337 C364 0.950 . S
H338 C367 0.950 . S
H339 C368 0.950 . S
H340 C370 0.950 . S
H341 C371 0.950 1_554 S
C342 H324 0.951 . S
C342 C343 1.366 1_556 S
C342 C344 1.389 . S
C343 C342 1.366 1_554 S
C343 C347 1.385 . S
C344 H325 0.957 . S
C344 C342 1.389 . S
C344 C345 1.359 1_556 S
C345 C344 1.359 1_554 S
C345 C346 1.414 . S
C345 C348 1.499 . S
C346 H326 0.950 . S
C346 C345 1.414 . S
C346 C347 1.374 . S
C347 H327 0.950 . S
C347 C343 1.385 . S
C347 C346 1.374 . S
C348 C345 1.499 . S
C348 C349 1.373 . S
C348 C350 1.389 . S
C349 H328 0.950 1_554 S
C349 C348 1.373 . S
C349 C365 1.377 . S
C350 C348 1.389 . S
C350 C351 1.524 . S
C350 C364 1.377 . S
C351 C350 1.524 . S
C351 C352 1.397 . S
C351 C356 1.363 . S
C352 H329 0.950 . S
C352 C351 1.397 . S
C352 C353 1.334 . S
C353 H330 0.950 . S
C353 C352 1.334 . S
C353 C354 1.287 . S
C354 C353 1.287 . S
C354 C355 1.524 . S
C354 H373 0.913 . S
C355 H331 0.950 . S
C355 C354 1.524 . S
C355 C356 1.415 . S
C356 H332 0.950 . S
C356 C351 1.363 . S
C356 C355 1.415 . S
C357 H333 0.951 . S
C357 C358 1.366 . S
C357 C359 1.388 . S
C358 C357 1.366 . S
C358 C362 1.385 . S
C359 H334 0.951 . S
C359 C357 1.388 . S
C359 C360 1.366 . S
C360 C359 1.366 . S
C360 C361 1.414 . S
C360 C363 1.499 . S
C361 H335 0.950 1_554 S
C361 C360 1.414 . S
C361 C362 1.374 . S
C362 H336 0.950 1_554 S
C362 C358 1.385 . S
C362 C361 1.374 . S
C363 C360 1.499 . S
C363 C364 1.373 . S
C363 C365 1.389 . S
C364 H337 0.950 . S
C364 C350 1.377 . S
C364 C363 1.373 . S
C365 C349 1.377 . S
C365 C363 1.389 . S
C365 C366 1.524 1_554 S
C366 C365 1.524 1_556 S
C366 C367 1.397 . S
C366 C371 1.363 . S
C367 H338 0.950 . S
C367 C366 1.397 . S
C367 C368 1.334 . S
C368 H339 0.950 . S
C368 C367 1.334 . S
C368 C369 1.287 . S
C369 C368 1.287 . S
C369 C370 1.524 . S
C369 H372 0.999 . S
C370 H340 0.950 . S
C370 C369 1.524 . S
C370 C371 1.415 . S
C371 H341 0.950 1_556 S
C371 C366 1.363 . S
C371 C370 1.415 . S
H372 C369 0.999 . S
H373 C354 0.913 . S
H374 C392 0.951 . S
H375 C394 0.951 . S
H376 C396 0.950 . S
H377 C397 0.950 . S
H378 C399 0.950 . S
H379 C402 0.950 . S
H380 C403 0.950 . S
H381 C405 0.950 . S
H382 C406 0.950 1_545 S
H383 C407 0.951 . S
H384 C409 0.951 . S
H385 C411 0.950 . S
H386 C412 0.950 . S
H387 C414 0.953 . S
H388 C417 0.950 . S
H389 C418 0.950 . S
H390 C420 0.950 . S
H391 C421 0.950 . S
C392 H374 0.951 . S
C392 C393 1.366 1_556 S
C392 C394 1.388 . S
C393 C392 1.366 1_554 S
C393 C397 1.385 . S
C394 H375 0.951 . S
C394 C392 1.388 . S
C394 C395 1.366 1_556 S
C395 C394 1.366 1_554 S
C395 C396 1.414 . S
C395 C398 1.499 . S
C396 H376 0.950 . S
C396 C395 1.414 . S
C396 C397 1.374 . S
C397 H377 0.950 . S
C397 C393 1.385 . S
C397 C396 1.374 . S
C398 C395 1.499 . S
C398 C399 1.373 . S
C398 C400 1.389 1_565 S
C399 H378 0.950 . S
C399 C398 1.373 . S
C399 C415 1.377 1_565 S
C400 C398 1.389 1_545 S
C400 C401 1.524 1_545 S
C400 C414 1.377 . S
C401 C400 1.524 1_565 S
C401 C402 1.397 . S
C401 C406 1.363 1_554 S
C402 H379 0.950 . S
C402 C401 1.397 . S
C402 C403 1.334 . S
C403 H380 0.950 . S
C403 C402 1.334 . S
C403 C404 1.287 . S
C404 C403 1.287 . S
C404 C405 1.524 1_554 S
C404 H423 0.913 . S
C405 H381 0.950 . S
C405 C404 1.524 1_556 S
C405 C406 1.415 . S
C406 H382 0.950 1_565 S
C406 C401 1.363 1_556 S
C406 C405 1.415 . S
C407 H383 0.951 . S
C407 C408 1.366 . S
C407 C409 1.388 . S
C408 C407 1.366 . S
C408 C412 1.385 1_554 S
C409 H384 0.951 . S
C409 C407 1.388 . S
C409 C410 1.366 . S
C410 C409 1.366 . S
C410 C411 1.414 1_554 S
C410 C413 1.499 . S
C411 H385 0.950 . S
C411 C410 1.414 1_556 S
C411 C412 1.374 . S
C412 H386 0.950 . S
C412 C408 1.385 1_556 S
C412 C411 1.374 . S
C413 C410 1.499 . S
C413 C414 1.373 . S
C413 C415 1.389 . S
C414 H387 0.953 . S
C414 C400 1.377 . S
C414 C413 1.373 . S
C415 C399 1.377 1_545 S
C415 C413 1.389 . S
C415 C416 1.524 . S
C416 C415 1.524 . S
C416 C417 1.397 1_554 S
C416 C421 1.363 . S
C417 H388 0.950 . S
C417 C416 1.397 1_556 S
C417 C418 1.334 . S
C418 H389 0.950 . S
C418 C417 1.334 . S
C418 C419 1.287 1_556 S
C419 C418 1.287 1_554 S
C419 C420 1.524 . S
C419 H422 0.999 . S
C420 H390 0.950 . S
C420 C419 1.524 . S
C420 C421 1.415 . S
C421 H391 0.950 . S
C421 C416 1.363 . S
C421 C420 1.415 . S
H422 C419 0.999 . S
H423 C404 0.913 . S
H424 C442 0.955 . S
H425 C444 0.951 1_556 S
H426 C446 0.950 . S
H427 C447 0.950 . S
H428 C449 0.971 . S
H429 C452 0.950 . S
H430 C453 0.950 . S
H431 C455 0.950 . S
H432 C456 0.950 1_455 S
H433 C457 0.951 . S
H434 C459 0.951 . S
H435 C461 0.950 1_556 S
H436 C462 0.950 . S
H437 C464 0.950 . S
H438 C467 0.950 . S
H439 C468 0.950 . S
H440 C470 0.950 1_545 S
H441 C471 0.950 . S
C442 H424 0.955 . S
C442 C443 1.362 1_556 S
C442 C444 1.387 1_556 S
C443 C442 1.362 1_554 S
C443 C447 1.385 . S
C444 H425 0.951 1_554 S
C444 C442 1.387 1_554 S
C444 C445 1.366 . S
C445 C444 1.366 . S
C445 C446 1.414 . S
C445 C448 1.499 . S
C446 H426 0.950 . S
C446 C445 1.414 . S
C446 C447 1.374 . S
C447 H427 0.950 . S
C447 C443 1.385 . S
C447 C446 1.374 . S
C448 C445 1.499 . S
C448 C449 1.374 1_554 S
C448 C450 1.389 1_655 S
C449 H428 0.971 . S
C449 C448 1.374 1_556 S
C449 C465 1.355 1_655 S
C450 C448 1.389 1_455 S
C450 C451 1.524 1_455 S
C450 C464 1.377 . S
C451 C450 1.524 1_655 S
C451 C452 1.397 . S
C451 C456 1.363 . S
C452 H429 0.950 . S
C452 C451 1.397 . S
C452 C453 1.334 . S
C453 H430 0.950 . S
C453 C452 1.334 . S
C453 C454 1.287 . S
C454 C453 1.287 . S
C454 C455 1.524 . S
C454 H473 0.913 . S
C455 H431 0.950 . S
C455 C454 1.524 . S
C455 C456 1.415 . S
C456 H432 0.950 1_655 S
C456 C451 1.363 . S
C456 C455 1.415 . S
C457 H433 0.951 . S
C457 C458 1.366 . S
C457 C459 1.388 . S
C458 C457 1.366 . S
C458 C462 1.385 . S
C459 H434 0.951 . S
C459 C457 1.388 . S
C459 C460 1.366 . S
C460 C459 1.366 . S
C460 C461 1.414 . S
C460 C463 1.499 . S
C461 H435 0.950 1_554 S
C461 C460 1.414 . S
C461 C462 1.374 . S
C462 H436 0.950 . S
C462 C458 1.385 . S
C462 C461 1.374 . S
C463 C460 1.499 . S
C463 C464 1.373 . S
C463 C465 1.389 1_554 S
C464 H437 0.950 . S
C464 C450 1.377 . S
C464 C463 1.373 . S
C465 C449 1.355 1_455 S
C465 C463 1.389 1_556 S
C465 C466 1.524 . S
C466 C465 1.524 . S
C466 C467 1.397 . S
C466 C471 1.363 . S
C467 H438 0.950 . S
C467 C466 1.397 . S
C467 C468 1.334 . S
C468 H439 0.950 . S
C468 C467 1.334 . S
C468 C469 1.287 . S
C469 C468 1.287 . S
C469 C470 1.524 . S
C469 H472 0.999 1_565 S
C470 H440 0.950 1_565 S
C470 C469 1.524 . S
C470 C471 1.415 . S
C471 H441 0.950 . S
C471 C466 1.363 . S
C471 C470 1.415 . S
H472 C469 0.999 1_545 S
H473 C454 0.913 . S
H474 C492 0.951 . S
H475 C494 0.951 . S
H476 C496 0.950 . S
H477 C497 0.950 . S
H478 C499 0.950 . S
H479 C502 0.950 . S
H480 C503 0.950 . S
H481 C505 0.950 . S
H482 C506 0.950 . S
H483 C507 0.951 . S
H484 C509 0.951 . S
H485 C511 0.950 . S
H486 C512 0.950 . S
H487 C514 0.950 . S
H488 C517 0.950 . S
H489 C518 0.950 . S
H490 C520 0.950 . S
H491 C521 0.950 . S
C492 H474 0.951 . S
C492 C493 1.366 . S
C492 C494 1.388 . S
C493 C492 1.366 . S
C493 C497 1.385 . S
C494 H475 0.951 . S
C494 C492 1.388 . S
C494 C495 1.366 . S
C495 C494 1.366 . S
C495 C496 1.414 . S
C495 C498 1.499 . S
C496 H476 0.950 . S
C496 C495 1.414 . S
C496 C497 1.374 . S
C497 H477 0.950 . S
C497 C493 1.385 . S
C497 C496 1.374 . S
C498 C495 1.499 . S
C498 C499 1.373 . S
C498 C500 1.389 . S
C499 H478 0.950 . S
C499 C498 1.373 . S
C499 C515 1.377 . S
C500 C498 1.389 . S
C500 C501 1.524 . S
C500 C514 1.377 . S
C501 C500 1.524 . S
C501 C502 1.397 . S
C501 C506 1.363 . S
C502 H479 0.950 . S
C502 C501 1.397 . S
C502 C503 1.334 . S
C503 H480 0.950 . S
C503 C502 1.334 . S
C503 C504 1.287 . S
C504 C503 1.287 . S
C504 C505 1.524 . S
C504 H523 0.913 . S
C505 H481 0.950 . S
C505 C504 1.524 . S
C505 C506 1.415 . S
C506 H482 0.950 . S
C506 C501 1.363 . S
C506 C505 1.415 . S
C507 H483 0.951 . S
C507 C508 1.366 . S
C507 C509 1.388 . S
C508 C507 1.366 . S
C508 C512 1.385 . S
C509 H484 0.951 . S
C509 C507 1.388 . S
C509 C510 1.366 . S
C510 C509 1.366 . S
C510 C511 1.414 . S
C510 C513 1.499 . S
C511 H485 0.950 . S
C511 C510 1.414 . S
C511 C512 1.374 . S
C512 H486 0.950 . S
C512 C508 1.385 . S
C512 C511 1.374 . S
C513 C510 1.499 . S
C513 C514 1.373 . S
C513 C515 1.389 . S
C514 H487 0.950 . S
C514 C500 1.377 . S
C514 C513 1.373 . S
C515 C499 1.377 . S
C515 C513 1.389 . S
C515 C516 1.524 . S
C516 C515 1.524 . S
C516 C517 1.397 . S
C516 C521 1.363 . S
C517 H488 0.950 . S
C517 C516 1.397 . S
C517 C518 1.334 . S
C518 H489 0.950 . S
C518 C517 1.334 . S
C518 C519 1.287 . S
C519 C518 1.287 . S
C519 C520 1.524 . S
C519 H522 0.999 . S
C520 H490 0.950 . S
C520 C519 1.524 . S
C520 C521 1.415 . S
C521 H491 0.950 . S
C521 C516 1.363 . S
C521 C520 1.415 . S
H522 C519 0.999 . S
H523 C504 0.913 . S
H524 C542 0.951 . S
H525 C544 0.951 . S
H526 C546 0.950 . S
H527 C547 0.950 . S
H528 C549 0.950 . S
H529 C552 0.950 . S
H530 C553 0.950 . S
H531 C555 0.950 . S
H532 C556 0.950 . S
H533 C557 0.951 . S
H534 C559 0.951 . S
H535 C561 0.950 . S
H536 C562 0.950 . S
H537 C564 0.950 . S
H538 C567 0.950 . S
H539 C568 0.950 . S
H540 C570 0.950 . S
H541 C571 0.950 . S
C542 H524 0.951 . S
C542 C543 1.366 . S
C542 C544 1.388 . S
C543 C542 1.366 . S
C543 C547 1.385 . S
C544 H525 0.951 . S
C544 C542 1.388 . S
C544 C545 1.366 . S
C545 C544 1.366 . S
C545 C546 1.414 . S
C545 C548 1.499 . S
C546 H526 0.950 . S
C546 C545 1.414 . S
C546 C547 1.374 . S
C547 H527 0.950 . S
C547 C543 1.385 . S
C547 C546 1.374 . S
C548 C545 1.499 . S
C548 C549 1.373 . S
C548 C550 1.389 . S
C549 H528 0.950 . S
C549 C548 1.373 . S
C549 C565 1.377 . S
C550 C548 1.389 . S
C550 C551 1.524 . S
C550 C564 1.377 . S
C551 C550 1.524 . S
C551 C552 1.397 . S
C551 C556 1.363 . S
C552 H529 0.950 . S
C552 C551 1.397 . S
C552 C553 1.334 . S
C553 H530 0.950 . S
C553 C552 1.334 . S
C553 C554 1.287 . S
C554 C553 1.287 . S
C554 C555 1.524 . S
C554 H573 0.913 . S
C555 H531 0.950 . S
C555 C554 1.524 . S
C555 C556 1.415 . S
C556 H532 0.950 . S
C556 C551 1.363 . S
C556 C555 1.415 . S
C557 H533 0.951 . S
C557 C558 1.366 . S
C557 C559 1.388 . S
C558 C557 1.366 . S
C558 C562 1.385 . S
C559 H534 0.951 . S
C559 C557 1.388 . S
C559 C560 1.366 . S
C560 C559 1.366 . S
C560 C561 1.414 . S
C560 C563 1.499 . S
C561 H535 0.950 . S
C561 C560 1.414 . S
C561 C562 1.374 . S
C562 H536 0.950 . S
C562 C558 1.385 . S
C562 C561 1.374 . S
C563 C560 1.499 . S
C563 C564 1.373 . S
C563 C565 1.389 . S
C564 H537 0.950 . S
C564 C550 1.377 . S
C564 C563 1.373 . S
C565 C549 1.377 . S
C565 C563 1.389 . S
C565 C566 1.524 . S
C566 C565 1.524 . S
C566 C567 1.397 . S
C566 C571 1.363 . S
C567 H538 0.950 . S
C567 C566 1.397 . S
C567 C568 1.334 . S
C568 H539 0.950 . S
C568 C567 1.334 . S
C568 C569 1.287 . S
C569 C568 1.287 . S
C569 C570 1.524 . S
C569 H572 0.999 . S
C570 H540 0.950 . S
C570 C569 1.524 . S
C570 C571 1.415 . S
C571 H541 0.950 . S
C571 C566 1.363 . S
C571 C570 1.415 . S
H572 C569 0.999 . S
H573 C554 0.913 . S
H574 C592 0.951 . S
H575 C594 0.951 . S
H576 C596 0.950 . S
H577 C597 0.950 . S
H578 C599 0.950 . S
H579 C602 0.950 . S
H580 C603 0.950 . S
H581 C605 0.950 . S
H582 C606 0.950 . S
H583 C607 0.951 . S
H584 C609 0.951 . S
H585 C611 0.950 . S
H586 C612 0.950 . S
H587 C614 0.950 . S
H588 C617 0.950 . S
H589 C618 0.950 . S
H590 C620 0.950 . S
H591 C621 0.950 . S
C592 H574 0.951 . S
C592 C593 1.366 . S
C592 C594 1.388 . S
C593 C592 1.366 . S
C593 C597 1.385 . S
C594 H575 0.951 . S
C594 C592 1.388 . S
C594 C595 1.366 . S
C595 C594 1.366 . S
C595 C596 1.414 . S
C595 C598 1.499 . S
C596 H576 0.950 . S
C596 C595 1.414 . S
C596 C597 1.374 . S
C597 H577 0.950 . S
C597 C593 1.385 . S
C597 C596 1.374 . S
C598 C595 1.499 . S
C598 C599 1.373 . S
C598 C600 1.389 . S
C599 H578 0.950 . S
C599 C598 1.373 . S
C599 C615 1.377 . S
C600 C598 1.389 . S
C600 C601 1.524 . S
C600 C614 1.377 . S
C601 C600 1.524 . S
C601 C602 1.397 . S
C601 C606 1.363 . S
C602 H579 0.950 . S
C602 C601 1.397 . S
C602 C603 1.334 . S
C603 H580 0.950 . S
C603 C602 1.334 . S
C603 C604 1.287 . S
C604 C603 1.287 . S
C604 C605 1.524 . S
C604 H623 0.913 . S
C605 H581 0.950 . S
C605 C604 1.524 . S
C605 C606 1.415 . S
C606 H582 0.950 . S
C606 C601 1.363 . S
C606 C605 1.415 . S
C607 H583 0.951 . S
C607 C608 1.366 . S
C607 C609 1.388 . S
C608 C607 1.366 . S
C608 C612 1.385 . S
C609 H584 0.951 . S
C609 C607 1.388 . S
C609 C610 1.366 . S
C610 C609 1.366 . S
C610 C611 1.414 . S
C610 C613 1.499 . S
C611 H585 0.950 . S
C611 C610 1.414 . S
C611 C612 1.374 . S
C612 H586 0.950 . S
C612 C608 1.385 . S
C612 C611 1.374 . S
C613 C610 1.499 . S
C613 C614 1.373 . S
C613 C615 1.389 . S
C614 H587 0.950 . S
C614 C600 1.377 . S
C614 C613 1.373 . S
C615 C599 1.377 . S
C615 C613 1.389 . S
C615 C616 1.524 . S
C616 C615 1.524 . S
C616 C617 1.397 . S
C616 C621 1.363 . S
C617 H588 0.950 . S
C617 C616 1.397 . S
C617 C618 1.334 . S
C618 H589 0.950 . S
C618 C617 1.334 . S
C618 C619 1.287 . S
C619 C618 1.287 . S
C619 C620 1.524 . S
C619 H622 0.999 . S
C620 H590 0.950 . S
C620 C619 1.524 . S
C620 C621 1.415 . S
C621 H591 0.950 . S
C621 C616 1.363 . S
C621 C620 1.415 . S
H622 C619 0.999 . S
H623 C604 0.913 . S
H624 C642 0.951 . S
H625 C644 0.951 . S
H626 C646 0.950 . S
H627 C647 0.950 . S
H628 C649 0.950 . S
H629 C652 0.950 . S
H630 C653 0.950 . S
H631 C655 0.950 . S
H632 C656 0.950 . S
H633 C657 0.951 . S
H634 C659 0.951 . S
H635 C661 0.950 . S
H636 C662 0.950 . S
H637 C664 0.950 . S
H638 C667 0.950 . S
H639 C668 0.950 . S
H640 C670 0.950 . S
H641 C671 0.950 . S
C642 H624 0.951 . S
C642 C643 1.366 . S
C642 C644 1.388 . S
C643 C642 1.366 . S
C643 C647 1.385 . S
C644 H625 0.951 . S
C644 C642 1.388 . S
C644 C645 1.366 . S
C645 C644 1.366 . S
C645 C646 1.414 . S
C645 C648 1.499 . S
C646 H626 0.950 . S
C646 C645 1.414 . S
C646 C647 1.374 . S
C647 H627 0.950 . S
C647 C643 1.385 . S
C647 C646 1.374 . S
C648 C645 1.499 . S
C648 C649 1.373 . S
C648 C650 1.389 . S
C649 H628 0.950 . S
C649 C648 1.373 . S
C649 C665 1.377 . S
C650 C648 1.389 . S
C650 C651 1.524 . S
C650 C664 1.377 . S
C651 C650 1.524 . S
C651 C652 1.397 . S
C651 C656 1.363 . S
C652 H629 0.950 . S
C652 C651 1.397 . S
C652 C653 1.334 . S
C653 H630 0.950 . S
C653 C652 1.334 . S
C653 C654 1.287 . S
C654 C653 1.287 . S
C654 C655 1.524 . S
C654 H673 0.913 . S
C655 H631 0.950 . S
C655 C654 1.524 . S
C655 C656 1.415 . S
C656 H632 0.950 . S
C656 C651 1.363 . S
C656 C655 1.415 . S
C657 H633 0.951 . S
C657 C658 1.366 . S
C657 C659 1.388 . S
C658 C657 1.366 . S
C658 C662 1.385 . S
C659 H634 0.951 . S
C659 C657 1.388 . S
C659 C660 1.366 . S
C660 C659 1.366 . S
C660 C661 1.414 . S
C660 C663 1.499 . S
C661 H635 0.950 . S
C661 C660 1.414 . S
C661 C662 1.374 . S
C662 H636 0.950 . S
C662 C658 1.385 . S
C662 C661 1.374 . S
C663 C660 1.499 . S
C663 C664 1.373 . S
C663 C665 1.389 . S
C664 H637 0.950 . S
C664 C650 1.377 . S
C664 C663 1.373 . S
C665 C649 1.377 . S
C665 C663 1.389 . S
C665 C666 1.524 . S
C666 C665 1.524 . S
C666 C667 1.397 . S
C666 C671 1.363 . S
C667 H638 0.950 . S
C667 C666 1.397 . S
C667 C668 1.334 . S
C668 H639 0.950 . S
C668 C667 1.334 . S
C668 C669 1.287 . S
C669 C668 1.287 . S
C669 C670 1.524 . S
C669 H672 0.999 . S
C670 H640 0.950 . S
C670 C669 1.524 . S
C670 C671 1.415 . S
C671 H641 0.950 . S
C671 C666 1.363 . S
C671 C670 1.415 . S
H672 C669 0.999 . S
H673 C654 0.913 . S
H674 C692 0.951 . S
H675 C694 0.951 . S
H676 C696 0.950 . S
H677 C697 0.950 . S
H678 C699 0.950 . S
H679 C702 0.950 . S
H680 C703 0.950 . S
H681 C705 0.950 . S
H682 C706 0.950 . S
H683 C707 0.951 . S
H684 C709 0.951 . S
H685 C711 0.950 . S
H686 C712 0.950 . S
H687 C714 0.950 . S
H688 C717 0.950 . S
H689 C718 0.950 . S
H690 C720 0.950 . S
H691 C721 0.950 . S
C692 H674 0.951 . S
C692 C693 1.366 . S
C692 C694 1.388 . S
C693 C692 1.366 . S
C693 C697 1.385 . S
C694 H675 0.951 . S
C694 C692 1.388 . S
C694 C695 1.366 . S
C695 C694 1.366 . S
C695 C696 1.414 . S
C695 C698 1.499 . S
C696 H676 0.950 . S
C696 C695 1.414 . S
C696 C697 1.374 . S
C697 H677 0.950 . S
C697 C693 1.385 . S
C697 C696 1.374 . S
C698 C695 1.499 . S
C698 C699 1.373 . S
C698 C700 1.389 . S
C699 H678 0.950 . S
C699 C698 1.373 . S
C699 C715 1.377 . S
C700 C698 1.389 . S
C700 C701 1.524 . S
C700 C714 1.377 . S
C701 C700 1.524 . S
C701 C702 1.397 . S
C701 C706 1.363 . S
C702 H679 0.950 . S
C702 C701 1.397 . S
C702 C703 1.334 . S
C703 H680 0.950 . S
C703 C702 1.334 . S
C703 C704 1.287 . S
C704 C703 1.287 . S
C704 C705 1.524 . S
C704 H723 0.913 . S
C705 H681 0.950 . S
C705 C704 1.524 . S
C705 C706 1.415 . S
C706 H682 0.950 . S
C706 C701 1.363 . S
C706 C705 1.415 . S
C707 H683 0.951 . S
C707 C708 1.366 . S
C707 C709 1.388 . S
C708 C707 1.366 . S
C708 C712 1.385 . S
C709 H684 0.951 . S
C709 C707 1.388 . S
C709 C710 1.366 . S
C710 C709 1.366 . S
C710 C711 1.414 . S
C710 C713 1.499 . S
C711 H685 0.950 . S
C711 C710 1.414 . S
C711 C712 1.374 . S
C712 H686 0.950 . S
C712 C708 1.385 . S
C712 C711 1.374 . S
C713 C710 1.499 . S
C713 C714 1.373 . S
C713 C715 1.389 . S
C714 H687 0.950 . S
C714 C700 1.377 . S
C714 C713 1.373 . S
C715 C699 1.377 . S
C715 C713 1.389 . S
C715 C716 1.524 . S
C716 C715 1.524 . S
C716 C717 1.397 . S
C716 C721 1.363 . S
C717 H688 0.950 . S
C717 C716 1.397 . S
C717 C718 1.334 . S
C718 H689 0.950 . S
C718 C717 1.334 . S
C718 C719 1.287 . S
C719 C718 1.287 . S
C719 C720 1.524 . S
C719 H722 0.999 . S
C720 H690 0.950 . S
C720 C719 1.524 . S
C720 C721 1.415 . S
C721 H691 0.950 . S
C721 C716 1.363 . S
C721 C720 1.415 . S
H722 C719 0.999 . S
H723 C704 0.913 . S
H724 C742 0.951 . S
H725 C744 0.951 . S
H726 C746 0.950 . S
H727 C747 0.950 . S
H728 C749 0.950 . S
H729 C752 0.950 . S
H730 C753 0.950 . S
H731 C755 0.950 . S
H732 C756 0.950 . S
H733 C757 0.951 . S
H734 C759 0.951 . S
H735 C761 0.950 . S
H736 C762 0.950 . S
H737 C764 0.950 . S
H738 C767 0.950 . S
H739 C768 0.950 . S
H740 C770 0.950 . S
H741 C771 0.950 . S
C742 H724 0.951 . S
C742 C743 1.366 . S
C742 C744 1.388 . S
C743 C742 1.366 . S
C743 C747 1.385 . S
C744 H725 0.951 . S
C744 C742 1.388 . S
C744 C745 1.366 . S
C745 C744 1.366 . S
C745 C746 1.414 . S
C745 C748 1.499 . S
C746 H726 0.950 . S
C746 C745 1.414 . S
C746 C747 1.374 . S
C747 H727 0.950 . S
C747 C743 1.385 . S
C747 C746 1.374 . S
C748 C745 1.499 . S
C748 C749 1.373 . S
C748 C750 1.389 . S
C749 H728 0.950 . S
C749 C748 1.373 . S
C749 C765 1.377 . S
C750 C748 1.389 . S
C750 C751 1.524 . S
C750 C764 1.377 . S
C751 C750 1.524 . S
C751 C752 1.397 . S
C751 C756 1.363 . S
C752 H729 0.950 . S
C752 C751 1.397 . S
C752 C753 1.334 . S
C753 H730 0.950 . S
C753 C752 1.334 . S
C753 C754 1.287 . S
C754 C753 1.287 . S
C754 C755 1.524 . S
C754 H773 0.913 . S
C755 H731 0.950 . S
C755 C754 1.524 . S
C755 C756 1.415 . S
C756 H732 0.950 . S
C756 C751 1.363 . S
C756 C755 1.415 . S
C757 H733 0.951 . S
C757 C758 1.366 . S
C757 C759 1.388 . S
C758 C757 1.366 . S
C758 C762 1.385 . S
C759 H734 0.951 . S
C759 C757 1.388 . S
C759 C760 1.366 . S
C760 C759 1.366 . S
C760 C761 1.414 . S
C760 C763 1.499 . S
C761 H735 0.950 . S
C761 C760 1.414 . S
C761 C762 1.374 . S
C762 H736 0.950 . S
C762 C758 1.385 . S
C762 C761 1.374 . S
C763 C760 1.499 . S
C763 C764 1.373 . S
C763 C765 1.389 . S
C764 H737 0.950 . S
C764 C750 1.377 . S
C764 C763 1.373 . S
C765 C749 1.377 . S
C765 C763 1.389 . S
C765 C766 1.524 . S
C766 C765 1.524 . S
C766 C767 1.397 . S
C766 C771 1.363 . S
C767 H738 0.950 . S
C767 C766 1.397 . S
C767 C768 1.334 . S
C768 H739 0.950 . S
C768 C767 1.334 . S
C768 C769 1.287 . S
C769 C768 1.287 . S
C769 C770 1.524 . S
C769 H772 0.999 . S
C770 H740 0.950 . S
C770 C769 1.524 . S
C770 C771 1.415 . S
C771 H741 0.950 . S
C771 C766 1.363 . S
C771 C770 1.415 . S
H772 C769 0.999 . S
H773 C754 0.913 . S
H774 C792 0.951 . S
H775 C794 0.951 . S
H776 C796 0.950 . S
H777 C797 0.950 . S
H778 C799 0.950 . S
H779 C802 0.950 . S
H780 C803 0.950 . S
H781 C805 0.950 . S
H782 C806 0.950 . S
H783 C807 0.951 . S
H784 C809 0.951 . S
H785 C811 0.950 . S
H786 C812 0.950 . S
H787 C814 0.950 . S
H788 C817 0.950 . S
H789 C818 0.950 . S
H790 C820 0.950 . S
H791 C821 0.950 . S
C792 H774 0.951 . S
C792 C793 1.366 . S
C792 C794 1.388 . S
C793 C792 1.366 . S
C793 C797 1.385 . S
C794 H775 0.951 . S
C794 C792 1.388 . S
C794 C795 1.366 . S
C795 C794 1.366 . S
C795 C796 1.414 . S
C795 C798 1.499 . S
C796 H776 0.950 . S
C796 C795 1.414 . S
C796 C797 1.374 . S
C797 H777 0.950 . S
C797 C793 1.385 . S
C797 C796 1.374 . S
C798 C795 1.499 . S
C798 C799 1.373 . S
C798 C800 1.389 . S
C799 H778 0.950 . S
C799 C798 1.373 . S
C799 C815 1.377 . S
C800 C798 1.389 . S
C800 C801 1.524 . S
C800 C814 1.377 . S
C801 C800 1.524 . S
C801 C802 1.397 . S
C801 C806 1.363 . S
C802 H779 0.950 . S
C802 C801 1.397 . S
C802 C803 1.334 . S
C803 H780 0.950 . S
C803 C802 1.334 . S
C803 C804 1.287 . S
C804 C803 1.287 . S
C804 C805 1.524 . S
C804 H823 0.913 . S
C805 H781 0.950 . S
C805 C804 1.524 . S
C805 C806 1.415 . S
C806 H782 0.950 . S
C806 C801 1.363 . S
C806 C805 1.415 . S
C807 H783 0.951 . S
C807 C808 1.366 . S
C807 C809 1.388 . S
C808 C807 1.366 . S
C808 C812 1.385 . S
C809 H784 0.951 . S
C809 C807 1.388 . S
C809 C810 1.366 . S
C810 C809 1.366 . S
C810 C811 1.414 . S
C810 C813 1.499 . S
C811 H785 0.950 . S
C811 C810 1.414 . S
C811 C812 1.374 . S
C812 H786 0.950 . S
C812 C808 1.385 . S
C812 C811 1.374 . S
C813 C810 1.499 . S
C813 C814 1.373 . S
C813 C815 1.389 . S
C814 H787 0.950 . S
C814 C800 1.377 . S
C814 C813 1.373 . S
C815 C799 1.377 . S
C815 C813 1.389 . S
C815 C816 1.524 . S
C816 C815 1.524 . S
C816 C817 1.397 . S
C816 C821 1.363 . S
C817 H788 0.950 . S
C817 C816 1.397 . S
C817 C818 1.334 . S
C818 H789 0.950 . S
C818 C817 1.334 . S
C818 C819 1.287 . S
C819 C818 1.287 . S
C819 C820 1.524 . S
C819 H822 0.999 . S
C820 H790 0.950 . S
C820 C819 1.524 . S
C820 C821 1.415 . S
C821 H791 0.950 . S
C821 C816 1.363 . S
C821 C820 1.415 . S
H822 C819 0.999 . S
H823 C804 0.913 . S
H824 C842 0.951 . S
H825 C844 0.951 . S
H826 C846 0.950 . S
H827 C847 0.950 . S
H828 C849 0.950 . S
H829 C852 0.950 . S
H830 C853 0.950 . S
H831 C855 0.950 . S
H832 C856 0.950 . S
H833 C857 0.951 . S
H834 C859 0.951 . S
H835 C861 0.950 . S
H836 C862 0.950 . S
H837 C864 0.950 . S
H838 C867 0.950 . S
H839 C868 0.950 . S
H840 C870 0.950 . S
H841 C871 0.950 . S
C842 H824 0.951 . S
C842 C843 1.366 . S
C842 C844 1.388 . S
C843 C842 1.366 . S
C843 C847 1.385 . S
C844 H825 0.951 . S
C844 C842 1.388 . S
C844 C845 1.366 . S
C845 C844 1.366 . S
C845 C846 1.414 . S
C845 C848 1.499 . S
C846 H826 0.950 . S
C846 C845 1.414 . S
C846 C847 1.374 . S
C847 H827 0.950 . S
C847 C843 1.385 . S
C847 C846 1.374 . S
C848 C845 1.499 . S
C848 C849 1.373 . S
C848 C850 1.389 . S
C849 H828 0.950 . S
C849 C848 1.373 . S
C849 C865 1.377 . S
C850 C848 1.389 . S
C850 C851 1.524 . S
C850 C864 1.377 . S
C851 C850 1.524 . S
C851 C852 1.397 . S
C851 C856 1.363 . S
C852 H829 0.950 . S
C852 C851 1.397 . S
C852 C853 1.334 . S
C853 H830 0.950 . S
C853 C852 1.334 . S
C853 C854 1.287 . S
C854 C853 1.287 . S
C854 C855 1.524 . S
C854 H873 0.913 . S
C855 H831 0.950 . S
C855 C854 1.524 . S
C855 C856 1.415 . S
C856 H832 0.950 . S
C856 C851 1.363 . S
C856 C855 1.415 . S
C857 H833 0.951 . S
C857 C858 1.366 . S
C857 C859 1.388 . S
C858 C857 1.366 . S
C858 C862 1.385 . S
C859 H834 0.951 . S
C859 C857 1.388 . S
C859 C860 1.366 . S
C860 C859 1.366 . S
C860 C861 1.414 . S
C860 C863 1.499 . S
C861 H835 0.950 . S
C861 C860 1.414 . S
C861 C862 1.374 . S
C862 H836 0.950 . S
C862 C858 1.385 . S
C862 C861 1.374 . S
C863 C860 1.499 . S
C863 C864 1.373 . S
C863 C865 1.389 . S
C864 H837 0.950 . S
C864 C850 1.377 . S
C864 C863 1.373 . S
C865 C849 1.377 . S
C865 C863 1.389 . S
C865 C866 1.524 . S
C866 C865 1.524 . S
C866 C867 1.397 . S
C866 C871 1.363 . S
C867 H838 0.950 . S
C867 C866 1.397 . S
C867 C868 1.334 . S
C868 H839 0.950 . S
C868 C867 1.334 . S
C868 C869 1.287 . S
C869 C868 1.287 . S
C869 C870 1.524 . S
C869 H872 0.999 . S
C870 H840 0.950 . S
C870 C869 1.524 . S
C870 C871 1.415 . S
C871 H841 0.950 . S
C871 C866 1.363 . S
C871 C870 1.415 . S
H872 C869 0.999 . S
H873 C854 0.913 . S
H874 C892 0.951 . S
H875 C894 0.951 . S
H876 C896 0.950 . S
H877 C897 0.950 . S
H878 C899 0.950 . S
H879 C902 0.950 . S
H880 C903 0.950 . S
H881 C905 0.950 . S
H882 C906 0.950 . S
H883 C907 0.951 . S
H884 C909 0.951 . S
H885 C911 0.950 . S
H886 C912 0.950 . S
H887 C914 0.950 . S
H888 C917 0.950 . S
H889 C918 0.950 . S
H890 C920 0.950 . S
H891 C921 0.950 1_565 S
C892 H874 0.951 . S
C892 C893 1.366 . S
C892 C894 1.388 . S
C893 C892 1.366 . S
C893 C897 1.385 . S
C894 H875 0.951 . S
C894 C892 1.388 . S
C894 C895 1.366 . S
C895 C894 1.366 . S
C895 C896 1.414 . S
C895 C898 1.499 . S
C896 H876 0.950 . S
C896 C895 1.414 . S
C896 C897 1.374 . S
C897 H877 0.950 . S
C897 C893 1.385 . S
C897 C896 1.374 . S
C898 C895 1.499 . S
C898 C899 1.373 . S
C898 C900 1.389 . S
C899 H878 0.950 . S
C899 C898 1.373 . S
C899 C915 1.377 . S
C900 C898 1.389 . S
C900 C901 1.524 . S
C900 C914 1.377 . S
C901 C900 1.524 . S
C901 C902 1.397 . S
C901 C906 1.363 . S
C902 H879 0.950 . S
C902 C901 1.397 . S
C902 C903 1.334 . S
C903 H880 0.950 . S
C903 C902 1.334 . S
C903 C904 1.287 . S
C904 C903 1.287 . S
C904 C905 1.524 . S
C904 H923 0.913 . S
C905 H881 0.950 . S
C905 C904 1.524 . S
C905 C906 1.415 . S
C906 H882 0.950 . S
C906 C901 1.363 . S
C906 C905 1.415 . S
C907 H883 0.951 . S
C907 C908 1.366 . S
C907 C909 1.388 . S
C908 C907 1.366 . S
C908 C912 1.385 . S
C909 H884 0.951 . S
C909 C907 1.388 . S
C909 C910 1.366 . S
C910 C909 1.366 . S
C910 C911 1.414 . S
C910 C913 1.499 . S
C911 H885 0.950 . S
C911 C910 1.414 . S
C911 C912 1.374 . S
C912 H886 0.950 . S
C912 C908 1.385 . S
C912 C911 1.374 . S
C913 C910 1.499 . S
C913 C914 1.373 . S
C913 C915 1.389 . S
C914 H887 0.950 . S
C914 C900 1.377 . S
C914 C913 1.373 . S
C915 C899 1.377 . S
C915 C913 1.389 . S
C915 C916 1.510 1_565 S
C916 C915 1.510 1_545 S
C916 C917 1.403 . S
C916 C921 1.370 . S
C917 H888 0.950 . S
C917 C916 1.403 . S
C917 C918 1.334 . S
C918 H889 0.950 . S
C918 C917 1.334 . S
C918 C919 1.287 . S
C919 C918 1.287 . S
C919 C920 1.524 . S
C919 H922 0.999 . S
C920 H890 0.950 . S
C920 C919 1.524 . S
C920 C921 1.415 . S
C921 H891 0.950 1_545 S
C921 C916 1.370 . S
C921 C920 1.415 . S
H922 C919 0.999 . S
H923 C904 0.913 . S
H924 C942 0.951 . S
H925 C944 0.951 . S
H926 C946 0.950 . S
H927 C947 0.950 . S
H928 C949 0.950 . S
H929 C952 0.950 . S
H930 C953 0.950 . S
H931 C955 0.950 . S
H932 C956 0.950 . S
H933 C957 0.951 . S
H934 C959 0.951 . S
H935 C961 0.950 . S
H936 C962 0.950 . S
H937 C964 0.950 . S
H938 C967 0.950 . S
H939 C968 0.950 . S
H940 C970 0.950 . S
H941 C971 0.950 . S
C942 H924 0.951 . S
C942 C943 1.366 . S
C942 C944 1.388 . S
C943 C942 1.366 . S
C943 C947 1.385 . S
C944 H925 0.951 . S
C944 C942 1.388 . S
C944 C945 1.366 . S
C945 C944 1.366 . S
C945 C946 1.414 . S
C945 C948 1.499 . S
C946 H926 0.950 . S
C946 C945 1.414 . S
C946 C947 1.374 . S
C947 H927 0.950 . S
C947 C943 1.385 . S
C947 C946 1.374 . S
C948 C945 1.499 . S
C948 C949 1.373 . S
C948 C950 1.389 . S
C949 H928 0.950 . S
C949 C948 1.373 . S
C949 C965 1.377 . S
C950 C948 1.389 . S
C950 C951 1.524 . S
C950 C964 1.377 . S
C951 C950 1.524 . S
C951 C952 1.397 . S
C951 C956 1.363 . S
C952 H929 0.950 . S
C952 C951 1.397 . S
C952 C953 1.334 . S
C953 H930 0.950 . S
C953 C952 1.334 . S
C953 C954 1.287 . S
C954 C953 1.287 . S
C954 C955 1.524 . S
C954 H973 0.913 . S
C955 H931 0.950 . S
C955 C954 1.524 . S
C955 C956 1.415 . S
C956 H932 0.950 . S
C956 C951 1.363 . S
C956 C955 1.415 . S
C957 H933 0.951 . S
C957 C958 1.366 . S
C957 C959 1.388 . S
C958 C957 1.366 . S
C958 C962 1.385 . S
C959 H934 0.951 . S
C959 C957 1.388 . S
C959 C960 1.366 . S
C960 C959 1.366 . S
C960 C961 1.414 . S
C960 C963 1.499 . S
C961 H935 0.950 . S
C961 C960 1.414 . S
C961 C962 1.374 . S
C962 H936 0.950 . S
C962 C958 1.385 . S
C962 C961 1.374 . S
C963 C960 1.499 . S
C963 C964 1.373 . S
C963 C965 1.389 . S
C964 H937 0.950 . S
C964 C950 1.377 . S
C964 C963 1.373 . S
C965 C949 1.377 . S
C965 C963 1.389 . S
C965 C966 1.524 . S
C966 C965 1.524 . S
C966 C967 1.397 . S
C966 C971 1.363 . S
C967 H938 0.950 . S
C967 C966 1.397 . S
C967 C968 1.334 1_545 S
C968 H939 0.950 . S
C968 C967 1.334 1_565 S
C968 C969 1.287 . S
C969 C968 1.287 . S
C969 C970 1.524 . S
C969 H972 0.999 . S
C970 H940 0.950 . S
C970 C969 1.524 . S
C970 C971 1.415 1_565 S
C971 H941 0.950 . S
C971 C966 1.363 . S
C971 C970 1.415 1_545 S
H972 C969 0.999 . S
H973 C954 0.913 . S
H974 C992 0.951 . S
H975 C994 0.951 . S
H976 C996 0.950 1_455 S
H977 C997 0.950 . S
H978 C999 0.950 . S
H979 C1002 0.950 . S
H980 C1003 0.950 . S
H981 C1005 0.950 . S
H982 C1006 0.950 . S
H983 C1007 0.951 . S
H984 C1009 0.951 . S
H985 C1011 0.950 . S
H986 C1012 0.950 . S
H987 C1014 0.950 . S
H988 C1017 0.950 . S
H989 C1018 0.950 . S
H990 C1020 0.950 . S
H991 C1021 0.967 . S
C992 H974 0.951 . S
C992 C993 1.366 . S
C992 C994 1.388 . S
C993 C992 1.366 . S
C993 C997 1.385 1_655 S
C994 H975 0.951 . S
C994 C992 1.388 . S
C994 C995 1.366 . S
C995 C994 1.366 . S
C995 C996 1.414 . S
C995 C998 1.499 . S
C996 H976 0.950 1_655 S
C996 C995 1.414 . S
C996 C997 1.374 1_655 S
C997 H977 0.950 . S
C997 C993 1.385 1_455 S
C997 C996 1.374 1_455 S
C998 C995 1.499 . S
C998 C999 1.373 . S
C998 C1000 1.389 . S
C999 H978 0.950 . S
C999 C998 1.373 . S
C999 C1015 1.377 . S
C1000 C998 1.389 . S
C1000 C1001 1.524 . S
C1000 C1014 1.377 . S
C1001 C1000 1.524 . S
C1001 C1002 1.397 . S
C1001 C1006 1.363 . S
C1002 H979 0.950 . S
C1002 C1001 1.397 . S
C1002 C1003 1.334 . S
C1003 H980 0.950 . S
C1003 C1002 1.334 . S
C1003 C1004 1.287 . S
C1004 C1003 1.287 . S
C1004 C1005 1.524 . S
C1004 H1023 0.913 . S
C1005 H981 0.950 . S
C1005 C1004 1.524 . S
C1005 C1006 1.415 . S
C1006 H982 0.950 . S
C1006 C1001 1.363 . S
C1006 C1005 1.415 . S
C1007 H983 0.951 . S
C1007 C1008 1.366 . S
C1007 C1009 1.388 . S
C1008 C1007 1.366 . S
C1008 C1012 1.385 . S
C1009 H984 0.951 . S
C1009 C1007 1.388 . S
C1009 C1010 1.366 . S
C1010 C1009 1.366 . S
C1010 C1011 1.414 . S
C1010 C1013 1.499 . S
C1011 H985 0.950 . S
C1011 C1010 1.414 . S
C1011 C1012 1.374 . S
C1012 H986 0.950 . S
C1012 C1008 1.385 . S
C1012 C1011 1.374 . S
C1013 C1010 1.499 . S
C1013 C1014 1.373 . S
C1013 C1015 1.389 . S
C1014 H987 0.950 . S
C1014 C1000 1.377 . S
C1014 C1013 1.373 . S
C1015 C999 1.377 . S
C1015 C1013 1.389 . S
C1015 C1016 1.524 . S
C1016 C1015 1.524 . S
C1016 C1017 1.397 . S
C1016 C1021 1.329 1_655 S
C1017 H988 0.950 . S
C1017 C1016 1.397 . S
C1017 C1018 1.334 . S
C1018 H989 0.950 . S
C1018 C1017 1.334 . S
C1018 C1019 1.287 . S
C1019 C1018 1.287 . S
C1019 C1020 1.524 1_655 S
C1019 H1022 1.011 . S
C1020 H990 0.950 . S
C1020 C1019 1.524 1_455 S
C1020 C1021 1.433 . S
C1021 H991 0.967 . S
C1021 C1016 1.329 1_455 S
C1021 C1020 1.433 . S
H1022 C1019 1.011 . S
H1023 C1004 0.913 . S
H1024 C1042 0.951 . S
H1025 C1044 0.951 . S
H1026 C1046 0.950 . S
H1027 C1047 0.950 . S
H1028 C1049 0.950 . S
H1029 C1052 0.950 . S
H1030 C1053 0.950 . S
H1031 C1055 0.950 . S
H1032 C1056 0.950 . S
H1033 C1057 0.951 . S
H1034 C1059 0.951 . S
H1035 C1061 0.950 . S
H1036 C1062 0.950 . S
H1037 C1064 0.950 . S
H1038 C1067 0.950 . S
H1039 C1068 0.950 . S
H1040 C1070 0.950 . S
H1041 C1071 0.950 . S
C1042 H1024 0.951 . S
C1042 C1043 1.366 . S
C1042 C1044 1.388 . S
C1043 C1042 1.366 . S
C1043 C1047 1.385 . S
C1044 H1025 0.951 . S
C1044 C1042 1.388 . S
C1044 C1045 1.366 . S
C1045 C1044 1.366 . S
C1045 C1046 1.414 . S
C1045 C1048 1.499 . S
C1046 H1026 0.950 . S
C1046 C1045 1.414 . S
C1046 C1047 1.374 . S
C1047 H1027 0.950 . S
C1047 C1043 1.385 . S
C1047 C1046 1.374 . S
C1048 C1045 1.499 . S
C1048 C1049 1.373 . S
C1048 C1050 1.389 . S
C1049 H1028 0.950 . S
C1049 C1048 1.373 . S
C1049 C1065 1.377 . S
C1050 C1048 1.389 . S
C1050 C1051 1.524 . S
C1050 C1064 1.377 . S
C1051 C1050 1.524 . S
C1051 C1052 1.397 . S
C1051 C1056 1.363 . S
C1052 H1029 0.950 . S
C1052 C1051 1.397 . S
C1052 C1053 1.334 . S
C1053 H1030 0.950 . S
C1053 C1052 1.334 . S
C1053 C1054 1.287 . S
C1054 C1053 1.287 . S
C1054 C1055 1.524 . S
C1054 H1073 0.913 . S
C1055 H1031 0.950 . S
C1055 C1054 1.524 . S
C1055 C1056 1.415 . S
C1056 H1032 0.950 . S
C1056 C1051 1.363 . S
C1056 C1055 1.415 . S
C1057 H1033 0.951 . S
C1057 C1058 1.366 . S
C1057 C1059 1.388 . S
C1058 C1057 1.366 . S
C1058 C1062 1.385 . S
C1059 H1034 0.951 . S
C1059 C1057 1.388 . S
C1059 C1060 1.366 . S
C1060 C1059 1.366 . S
C1060 C1061 1.414 . S
C1060 C1063 1.499 . S
C1061 H1035 0.950 . S
C1061 C1060 1.414 . S
C1061 C1062 1.374 . S
C1062 H1036 0.950 . S
C1062 C1058 1.385 . S
C1062 C1061 1.374 . S
C1063 C1060 1.499 . S
C1063 C1064 1.373 . S
C1063 C1065 1.389 . S
C1064 H1037 0.950 . S
C1064 C1050 1.377 . S
C1064 C1063 1.373 . S
C1065 C1049 1.377 . S
C1065 C1063 1.389 . S
C1065 C1066 1.524 . S
C1066 C1065 1.524 . S
C1066 C1067 1.397 . S
C1066 C1071 1.363 . S
C1067 H1038 0.950 . S
C1067 C1066 1.397 . S
C1067 C1068 1.334 . S
C1068 H1039 0.950 . S
C1068 C1067 1.334 . S
C1068 C1069 1.287 . S
C1069 C1068 1.287 . S
C1069 C1070 1.524 . S
C1069 H1072 0.999 . S
C1070 H1040 0.950 . S
C1070 C1069 1.524 . S
C1070 C1071 1.415 . S
C1071 H1041 0.950 . S
C1071 C1066 1.363 . S
C1071 C1070 1.415 . S
H1072 C1069 0.999 . S
H1073 C1054 0.913 . S
H1074 C1092 0.951 . S
H1075 C1094 0.951 . S
H1076 C1096 0.950 . S
H1077 C1097 0.950 . S
H1078 C1099 0.950 . S
H1079 C1102 0.950 . S
H1080 C1103 0.950 . S
H1081 C1105 0.950 . S
H1082 C1106 0.950 . S
H1083 C1107 0.951 . S
H1084 C1109 0.951 . S
H1085 C1111 0.950 1_455 S
H1086 C1112 0.950 . S
H1087 C1114 0.950 . S
H1088 C1117 0.950 . S
H1089 C1118 0.950 . S
H1090 C1120 0.950 . S
H1091 C1121 0.950 . S
C1092 H1074 0.951 . S
C1092 C1093 1.366 . S
C1092 C1094 1.388 . S
C1093 C1092 1.366 . S
C1093 C1097 1.385 . S
C1094 H1075 0.951 . S
C1094 C1092 1.388 . S
C1094 C1095 1.366 . S
C1095 C1094 1.366 . S
C1095 C1096 1.414 . S
C1095 C1098 1.499 . S
C1096 H1076 0.950 . S
C1096 C1095 1.414 . S
C1096 C1097 1.374 . S
C1097 H1077 0.950 . S
C1097 C1093 1.385 . S
C1097 C1096 1.374 . S
C1098 C1095 1.499 . S
C1098 C1099 1.373 . S
C1098 C1100 1.389 . S
C1099 H1078 0.950 . S
C1099 C1098 1.373 . S
C1099 C1115 1.379 . S
C1100 C1098 1.389 . S
C1100 C1101 1.524 . S
C1100 C1114 1.377 . S
C1101 C1100 1.524 . S
C1101 C1102 1.397 . S
C1101 C1106 1.363 . S
C1102 H1079 0.950 . S
C1102 C1101 1.397 . S
C1102 C1103 1.334 . S
C1103 H1080 0.950 . S
C1103 C1102 1.334 . S
C1103 C1104 1.287 . S
C1104 C1103 1.287 . S
C1104 C1105 1.524 . S
C1104 H1123 0.913 . S
C1105 H1081 0.950 . S
C1105 C1104 1.524 . S
C1105 C1106 1.415 . S
C1106 H1082 0.950 . S
C1106 C1101 1.363 . S
C1106 C1105 1.415 . S
C1107 H1083 0.951 . S
C1107 C1108 1.366 . S
C1107 C1109 1.388 . S
C1108 C1107 1.366 . S
C1108 C1112 1.385 . S
C1109 H1084 0.951 . S
C1109 C1107 1.388 . S
C1109 C1110 1.366 . S
C1110 C1109 1.366 . S
C1110 C1111 1.414 . S
C1110 C1113 1.499 1_655 S
C1111 H1085 0.950 1_655 S
C1111 C1110 1.414 . S
C1111 C1112 1.374 . S
C1112 H1086 0.950 . S
C1112 C1108 1.385 . S
C1112 C1111 1.374 . S
C1113 C1110 1.499 1_455 S
C1113 C1114 1.373 . S
C1113 C1115 1.388 . S
C1114 H1087 0.950 . S
C1114 C1100 1.377 . S
C1114 C1113 1.373 . S
C1115 C1099 1.379 . S
C1115 C1113 1.388 . S
C1115 C1116 1.524 1_455 S
C1116 C1115 1.524 1_655 S
C1116 C1117 1.397 . S
C1116 C1121 1.363 . S
C1117 H1088 0.950 . S
C1117 C1116 1.397 . S
C1117 C1118 1.334 . S
C1118 H1089 0.950 . S
C1118 C1117 1.334 . S
C1118 C1119 1.287 . S
C1119 C1118 1.287 . S
C1119 C1120 1.524 . S
C1119 H1122 0.999 . S
C1120 H1090 0.950 . S
C1120 C1119 1.524 . S
C1120 C1121 1.415 . S
C1121 H1091 0.950 . S
C1121 C1116 1.363 . S
C1121 C1120 1.415 . S
H1122 C1119 0.999 . S
H1123 C1104 0.913 . S
H1124 C1142 0.951 . S
H1125 C1144 0.951 . S
H1126 C1146 0.950 . S
H1127 C1147 0.950 . S
H1128 C1149 0.950 . S
H1129 C1152 0.950 . S
H1130 C1153 0.950 . S
H1131 C1155 0.950 . S
H1132 C1156 0.950 . S
H1133 C1157 0.951 . S
H1134 C1159 0.951 . S
H1135 C1161 0.950 . S
H1136 C1162 0.950 . S
H1137 C1164 0.950 . S
H1138 C1167 0.950 . S
H1139 C1168 0.950 . S
H1140 C1170 0.950 . S
H1141 C1171 0.950 . S
C1142 H1124 0.951 . S
C1142 C1143 1.366 . S
C1142 C1144 1.388 . S
C1143 C1142 1.366 . S
C1143 C1147 1.385 . S
C1144 H1125 0.951 . S
C1144 C1142 1.388 . S
C1144 C1145 1.366 . S
C1145 C1144 1.366 . S
C1145 C1146 1.414 . S
C1145 C1148 1.499 . S
C1146 H1126 0.950 . S
C1146 C1145 1.414 . S
C1146 C1147 1.374 . S
C1147 H1127 0.950 . S
C1147 C1143 1.385 . S
C1147 C1146 1.374 . S
C1148 C1145 1.499 . S
C1148 C1149 1.373 . S
C1148 C1150 1.389 . S
C1149 H1128 0.950 . S
C1149 C1148 1.373 . S
C1149 C1165 1.377 . S
C1150 C1148 1.389 . S
C1150 C1151 1.524 . S
C1150 C1164 1.377 . S
C1151 C1150 1.524 . S
C1151 C1152 1.397 . S
C1151 C1156 1.363 . S
C1152 H1129 0.950 . S
C1152 C1151 1.397 . S
C1152 C1153 1.334 . S
C1153 H1130 0.950 . S
C1153 C1152 1.334 . S
C1153 C1154 1.287 . S
C1154 C1153 1.287 . S
C1154 C1155 1.524 . S
C1154 H1173 0.913 . S
C1155 H1131 0.950 . S
C1155 C1154 1.524 . S
C1155 C1156 1.415 . S
C1156 H1132 0.950 . S
C1156 C1151 1.363 . S
C1156 C1155 1.415 . S
C1157 H1133 0.951 . S
C1157 C1158 1.366 . S
C1157 C1159 1.388 . S
C1158 C1157 1.366 . S
C1158 C1162 1.385 . S
C1159 H1134 0.951 . S
C1159 C1157 1.388 . S
C1159 C1160 1.366 . S
C1160 C1159 1.366 . S
C1160 C1161 1.414 . S
C1160 C1163 1.499 . S
C1161 H1135 0.950 . S
C1161 C1160 1.414 . S
C1161 C1162 1.374 . S
C1162 H1136 0.950 . S
C1162 C1158 1.385 . S
C1162 C1161 1.374 . S
C1163 C1160 1.499 . S
C1163 C1164 1.373 . S
C1163 C1165 1.389 . S
C1164 H1137 0.950 . S
C1164 C1150 1.377 . S
C1164 C1163 1.373 . S
C1165 C1149 1.377 . S
C1165 C1163 1.389 . S
C1165 C1166 1.524 . S
C1166 C1165 1.524 . S
C1166 C1167 1.397 . S
C1166 C1171 1.363 . S
C1167 H1138 0.950 . S
C1167 C1166 1.397 . S
C1167 C1168 1.334 . S
C1168 H1139 0.950 . S
C1168 C1167 1.334 . S
C1168 C1169 1.287 . S
C1169 C1168 1.287 . S
C1169 C1170 1.524 . S
C1169 H1172 0.999 . S
C1170 H1140 0.950 . S
C1170 C1169 1.524 . S
C1170 C1171 1.415 . S
C1171 H1141 0.950 . S
C1171 C1166 1.363 . S
C1171 C1170 1.415 . S
H1172 C1169 0.999 . S
H1173 C1154 0.913 . S
H1174 C1192 0.951 . S
H1175 C1194 0.951 . S
H1176 C1196 0.950 . S
H1177 C1197 0.950 . S
H1178 C1199 0.939 1_565 S
H1179 C1202 0.950 . S
H1180 C1203 0.950 . S
H1181 C1205 0.950 . S
H1182 C1206 0.950 1_545 S
H1183 C1207 0.951 . S
H1184 C1209 0.951 . S
H1185 C1211 0.950 . S
H1186 C1212 0.950 . S
H1187 C1214 0.950 . S
H1188 C1217 0.950 . S
H1189 C1218 0.950 . S
H1190 C1220 0.950 . S
H1191 C1221 0.950 . S
C1192 H1174 0.951 . S
C1192 C1193 1.366 . S
C1192 C1194 1.388 . S
C1193 C1192 1.366 . S
C1193 C1197 1.385 . S
C1194 H1175 0.951 . S
C1194 C1192 1.388 . S
C1194 C1195 1.366 . S
C1195 C1194 1.366 . S
C1195 C1196 1.414 . S
C1195 C1198 1.499 . S
C1196 H1176 0.950 . S
C1196 C1195 1.414 . S
C1196 C1197 1.374 . S
C1197 H1177 0.950 . S
C1197 C1193 1.385 . S
C1197 C1196 1.374 . S
C1198 C1195 1.499 . S
C1198 C1199 1.373 1_565 S
C1198 C1200 1.389 . S
C1199 H1178 0.939 1_545 S
C1199 C1198 1.373 1_545 S
C1199 C1215 1.377 . S
C1200 C1198 1.389 . S
C1200 C1201 1.524 . S
C1200 C1214 1.377 1_565 S
C1201 C1200 1.524 . S
C1201 C1202 1.397 . S
C1201 C1206 1.363 . S
C1202 H1179 0.950 . S
C1202 C1201 1.397 . S
C1202 C1203 1.334 . S
C1203 H1180 0.950 . S
C1203 C1202 1.334 . S
C1203 C1204 1.287 . S
C1204 C1203 1.287 . S
C1204 C1205 1.524 . S
C1204 H1223 0.913 . S
C1205 H1181 0.950 . S
C1205 C1204 1.524 . S
C1205 C1206 1.415 . S
C1206 H1182 0.950 1_565 S
C1206 C1201 1.363 . S
C1206 C1205 1.415 . S
C1207 H1183 0.951 . S
C1207 C1208 1.366 . S
C1207 C1209 1.388 . S
C1208 C1207 1.366 . S
C1208 C1212 1.385 . S
C1209 H1184 0.951 . S
C1209 C1207 1.388 . S
C1209 C1210 1.366 . S
C1210 C1209 1.366 . S
C1210 C1211 1.414 . S
C1210 C1213 1.499 . S
C1211 H1185 0.950 . S
C1211 C1210 1.414 . S
C1211 C1212 1.374 . S
C1212 H1186 0.950 . S
C1212 C1208 1.385 . S
C1212 C1211 1.374 . S
C1213 C1210 1.499 . S
C1213 C1214 1.373 . S
C1213 C1215 1.389 . S
C1214 H1187 0.950 . S
C1214 C1200 1.377 1_545 S
C1214 C1213 1.373 . S
C1215 C1199 1.377 . S
C1215 C1213 1.389 . S
C1215 C1216 1.524 . S
C1216 C1215 1.524 . S
C1216 C1217 1.397 . S
C1216 C1221 1.363 . S
C1217 H1188 0.950 . S
C1217 C1216 1.397 . S
C1217 C1218 1.334 . S
C1218 H1189 0.950 . S
C1218 C1217 1.334 . S
C1218 C1219 1.287 . S
C1219 C1218 1.287 . S
C1219 C1220 1.524 . S
C1219 H1222 0.999 . S
C1220 H1190 0.950 . S
C1220 C1219 1.524 . S
C1220 C1221 1.415 . S
C1221 H1191 0.950 . S
C1221 C1216 1.363 . S
C1221 C1220 1.415 . S
H1222 C1219 0.999 . S
H1223 C1204 0.913 . S
C343 C75 0.796 . S
C358 C2 0.792 . S
C393 C39 0.824 . S
C408 C3 0.822 . S
C443 C38 0.847 . S
C458 C74 0.849 . S
C493 C182 0.865 . S
C508 C110 0.864 . S
C543 C147 0.772 . S
C558 C111 0.772 . S
C593 C146 0.797 . S
C608 C183 0.804 . S
C643 C218 0.815 . S
C658 C291 0.821 . S
C693 C219 0.718 . S
C708 C255 0.717 . S
C743 C254 0.868 . S
C758 C290 0.869 . S
C793 C4 1.350 . S
C808 C256 1.353 . S
C843 C50 1.335 . S
C858 C302 1.334 . S
C893 C230 1.285 . S
C908 C76 1.308 . S
C943 C158 1.267 . S
C958 C86 1.267 . S
C993 C14 1.299 1_655 S
C1008 C194 1.298 . S
C1043 C112 1.368 . S
C1058 C40 1.367 . S
C1093 C266 1.322 . S
C1108 C184 1.345 . S
C1143 C122 1.352 . S
C1158 C292 1.376 . S
C1193 C220 1.334 . S
C1208 C148 1.333 . S
