# Generated by pormake.
# Topology unj, (4)-cn, num edge types: 1
# Building blocks:
#     Node 0, Type 0, BuildingBlock: NAHDIM_clean_sbu_0, # of connection points: 4
#     Node 1, Type 0, BuildingBlock: NAHDIM_clean_sbu_0, # of connection points: 4
#     Node 2, Type 0, BuildingBlock: NAHDIM_clean_sbu_0, # of connection points: 4
#     Node 3, Type 0, BuildingBlock: NAHDIM_clean_sbu_0, # of connection points: 4
#     Node 4, Type 0, BuildingBlock: NAHDIM_clean_sbu_0, # of connection points: 4
#     Node 5, Type 0, BuildingBlock: NAHDIM_clean_sbu_0, # of connection points: 4
#     Edge 6, Type (0, 0), BuildingBlock: ZUJKAS_clean_linker_0, # of connection points: 2
#     Edge 7, Type (0, 0), BuildingBlock: ZUJKAS_clean_linker_0, # of connection points: 2
#     Edge 8, Type (0, 0), BuildingBlock: ZUJKAS_clean_linker_0, # of connection points: 2
#     Edge 9, Type (0, 0), BuildingBlock: ZUJKAS_clean_linker_0, # of connection points: 2
#     Edge 10, Type (0, 0), BuildingBlock: ZUJKAS_clean_linker_0, # of connection points: 2
#     Edge 11, Type (0, 0), BuildingBlock: ZUJKAS_clean_linker_0, # of connection points: 2
#     Edge 12, Type (0, 0), BuildingBlock: ZUJKAS_clean_linker_0, # of connection points: 2
#     Edge 13, Type (0, 0), BuildingBlock: ZUJKAS_clean_linker_0, # of connection points: 2
#     Edge 14, Type (0, 0), BuildingBlock: ZUJKAS_clean_linker_0, # of connection points: 2
#     Edge 15, Type (0, 0), BuildingBlock: ZUJKAS_clean_linker_0, # of connection points: 2
#     Edge 16, Type (0, 0), BuildingBlock: ZUJKAS_clean_linker_0, # of connection points: 2
#     Edge 17, Type (0, 0), BuildingBlock: ZUJKAS_clean_linker_0, # of connection points: 2
# Relax obj value: 0.006
# Max RMSD: 0.036
# Mean RMSD: 0.036
data_MOF--net-unj--node1-NAHDIM_clean_sbu_0--edge1-ZUJKAS_clean_linker_0
_symmetry_space_group_name_H-M    P1
_symmetry_Int_Tables_number       1
_symmetry_cell_setting            triclinic
loop_
_symmetry_equiv_pos_as_xyz
'x, y, z'
_cell_length_a     44.731224
_cell_length_b     44.725047
_cell_length_c     44.562238
_cell_angle_alpha  90.024555
_cell_angle_beta   89.981015
_cell_angle_gamma 119.97716
loop_
_atom_site_label
_atom_site_type_symbol
_atom_site_fract_x
_atom_site_fract_y
_atom_site_fract_z
_atom_type_partial_charge
C0 C 0.41346 0.2657 0.60657 0.0
O1 O 0.41029 0.2568 0.57814 0.0
O2 O 0.49449 0.27848 0.57206 0.0
Zn3 Zn 0.46639 0.24657 0.6058 0.0
O4 O 0.4977 0.24827 0.63925 0.0
C5 C 0.44866 0.18782 0.56799 0.0
O6 O 0.47865 0.20943 0.55597 0.0
O7 O 0.43545 0.26302 0.62266 0.0
C8 C 0.50503 0.22464 0.64404 0.0
O9 O 0.49201 0.19745 0.62645 0.0
C10 C 0.52632 0.28846 0.56845 0.0
O11 O 0.54178 0.27817 0.58745 0.0
O12 O 0.43768 0.19788 0.58991 0.0
C13 C 0.15131 0.4325 0.76626 0.0
O14 O 0.15493 0.43551 0.73698 0.0
O15 O 0.22295 0.50598 0.73074 0.0
Zn16 Zn 0.22528 0.47817 0.76533 0.0
O17 O 0.25615 0.51074 0.79736 0.0
C18 C 0.23664 0.43387 0.72531 0.0
O19 O 0.21483 0.43774 0.70831 0.0
O20 O 0.17783 0.44835 0.78284 0.0
C21 C 0.26939 0.50063 0.81733 0.0
O22 O 0.26296 0.46858 0.81669 0.0
C23 C 0.24848 0.52107 0.71298 0.0
O24 O 0.2761 0.51852 0.71782 0.0
O25 O 0.24469 0.44848 0.75086 0.0
C26 C 0.70856 0.15517 0.94414 0.0
O27 O 0.68729 0.16247 0.9299 0.0
O28 O 0.72555 0.22592 0.89955 0.0
Zn29 Zn 0.75567 0.22737 0.93379 0.0
O30 O 0.75199 0.25497 0.96801 0.0
C31 C 0.81053 0.24294 0.89233 0.0
O32 O 0.78438 0.22176 0.87541 0.0
O33 O 0.73957 0.17895 0.94836 0.0
C34 C 0.77643 0.28475 0.97521 0.0
O35 O 0.80536 0.29847 0.95986 0.0
C36 C 0.72275 0.25187 0.89227 0.0
O37 O 0.7398 0.28067 0.90762 0.0
O38 O 0.8047 0.24904 0.91891 0.0
C39 C 0.55009 0.70815 0.12227 0.0
O40 O 0.51642 0.68804 0.12358 0.0
O41 O 0.4974 0.72287 0.06897 0.0
Zn42 Zn 0.52938 0.75495 0.1009 0.0
O43 O 0.50208 0.75372 0.13734 0.0
C44 C 0.56787 0.81039 0.05871 0.0
O45 O 0.56307 0.78491 0.04094 0.0
O46 O 0.5624 0.73893 0.11294 0.0
C47 C 0.48696 0.77136 0.13852 0.0
O48 O 0.48894 0.79045 0.11537 0.0
C49 C 0.48034 0.73127 0.0515 0.0
O50 O 0.48321 0.76183 0.05432 0.0
O51 O 0.55601 0.80367 0.08529 0.0
C52 C 0.84348 0.56529 0.26822 0.0
O53 O 0.83883 0.5544 0.24031 0.0
O54 O 0.77079 0.49473 0.23656 0.0
Zn55 Zn 0.76909 0.52408 0.27011 0.0
O56 O 0.74093 0.49388 0.30456 0.0
C57 C 0.7545 0.56476 0.22875 0.0
O58 O 0.77631 0.56092 0.21168 0.0
O59 O 0.81734 0.55609 0.28502 0.0
C60 C 0.70946 0.48523 0.30844 0.0
O61 O 0.69445 0.49576 0.28919 0.0
C62 C 0.74387 0.46873 0.22624 0.0
O63 O 0.71371 0.4601 0.23806 0.0
O64 O 0.74785 0.55161 0.25487 0.0
C65 C 0.28827 0.83945 0.45899 0.0
O66 O 0.30669 0.8241 0.46122 0.0
O67 O 0.27594 0.77916 0.39758 0.0
Zn68 Zn 0.2432 0.77582 0.43043 0.0
O69 O 0.24302 0.74616 0.46452 0.0
C70 C 0.18711 0.7383 0.38904 0.0
O71 O 0.21087 0.73485 0.37469 0.0
O72 O 0.25893 0.82356 0.4463 0.0
C73 C 0.23496 0.71485 0.46073 0.0
O74 O 0.22664 0.70131 0.43374 0.0
C75 C 0.29976 0.77177 0.40071 0.0
O76 O 0.30474 0.76187 0.42708 0.0
O77 O 0.19491 0.75505 0.41359 0.0
H78 H 0.38602 0.13588 0.58786 0.0
H79 H 0.35435 0.07613 0.56992 0.0
H80 H 0.43479 0.09873 0.50539 0.0
H81 H 0.46632 0.15845 0.52279 0.0
H82 H 0.36855 0.06091 0.48146 0.0
H83 H 0.3814 0.00266 0.58739 0.0
H84 H 0.36236 0.02957 0.59132 0.0
H85 H 0.40662 0.04833 0.57979 0.0
C86 C 0.39694 0.12814 0.56982 0.0
C87 C 0.4288 0.15188 0.55687 0.0
C88 C 0.37889 0.09396 0.55971 0.0
C89 C 0.39248 0.08292 0.53663 0.0
C90 C 0.42391 0.10672 0.5233 0.0
H91 H 0.351 0.88095 0.4849 0.0
H92 H 0.37391 0.93969 0.50368 0.0
C93 C 0.44193 0.14084 0.53333 0.0
C94 C 0.37426 0.04658 0.52629 0.0
H95 H 0.34873 0.96422 0.54857 0.0
C96 C 0.36403 0.0397 0.49613 0.0
C97 C 0.36879 0.01909 0.54546 0.0
C98 C 0.38059 0.02514 0.57774 0.0
C99 C 0.3487 0.00606 0.48451 0.0
C100 C 0.34297 0.97854 0.50374 0.0
C101 C 0.35294 0.98537 0.53396 0.0
C102 C 0.32841 0.94271 0.49258 0.0
C103 C 0.33985 0.00046 0.45155 0.0
C104 C 0.29504 0.92477 0.4804 0.0
C105 C 0.28187 0.89116 0.46949 0.0
C106 C 0.30179 0.87485 0.47081 0.0
C107 C 0.33499 0.89275 0.48347 0.0
C108 C 0.34813 0.92632 0.49427 0.0
H109 H 0.35302 0.02499 0.43867 0.0
H110 H 0.34706 0.98211 0.44174 0.0
H111 H 0.3116 0.98931 0.44876 0.0
H112 H 0.27915 0.93673 0.4794 0.0
H113 H 0.25611 0.878 0.46006 0.0
H114 H 0.41569 0.28854 0.66389 0.0
H115 H 0.38315 0.31424 0.68474 0.0
H116 H 0.33243 0.30169 0.59959 0.0
H117 H 0.36466 0.27565 0.57852 0.0
H118 H 0.38431 0.37422 0.66351 0.0
H119 H 0.25203 0.26032 0.66015 0.0
H120 H 0.29032 0.25663 0.6571 0.0
H121 H 0.27531 0.27012 0.62532 0.0
C122 C 0.39741 0.29095 0.64962 0.0
C123 C 0.39274 0.27999 0.61952 0.0
C124 C 0.37887 0.30567 0.66159 0.0
C125 C 0.35512 0.30948 0.64381 0.0
C126 C 0.35019 0.29839 0.61384 0.0
H127 H 0.2283 0.40332 0.67045 0.0
H128 H 0.25715 0.37302 0.65129 0.0
C129 C 0.36877 0.28369 0.6018 0.0
C130 C 0.3368 0.3266 0.65629 0.0
H131 H 0.25675 0.31413 0.67249 0.0
C132 C 0.35644 0.36107 0.66564 0.0
C133 C 0.30045 0.30935 0.65888 0.0
C134 C 0.27822 0.27197 0.65009 0.0
C135 C 0.34065 0.37901 0.67708 0.0
C136 C 0.30428 0.36175 0.67978 0.0
C137 C 0.28463 0.32726 0.67043 0.0
C138 C 0.28615 0.37923 0.69193 0.0
C139 C 0.363 0.41654 0.68543 0.0
C140 C 0.29243 0.39221 0.72134 0.0
C141 C 0.27609 0.40967 0.73234 0.0
C142 C 0.25294 0.4142 0.71419 0.0
C143 C 0.24606 0.40038 0.685 0.0
C144 C 0.26248 0.38301 0.674 0.0
H145 H 0.38892 0.42813 0.67485 0.0
H146 H 0.35069 0.43177 0.67864 0.0
H147 H 0.36662 0.41873 0.71013 0.0
H148 H 0.31006 0.38892 0.73576 0.0
H149 H 0.28177 0.41977 0.755 0.0
H150 H 0.8707 0.28621 0.92177 0.0
H151 H 0.92905 0.31718 0.90065 0.0
H152 H 0.88911 0.27082 0.81433 0.0
H153 H 0.83075 0.23977 0.83512 0.0
H154 H 0.96687 0.28832 0.86901 0.0
H155 H 0.94323 0.37752 0.79924 0.0
H156 H 0.9159 0.35373 0.83046 0.0
H157 H 0.91221 0.33236 0.79541 0.0
C158 C 0.87432 0.28252 0.8983 0.0
C159 C 0.84604 0.26065 0.88008 0.0
C160 C 0.90766 0.3002 0.88632 0.0
C161 C 0.91322 0.29655 0.85589 0.0
C162 C 0.88521 0.27429 0.83778 0.0
H163 H 0.09026 0.39154 0.73737 0.0
H164 H 0.03299 0.35734 0.7597 0.0
C165 C 0.85191 0.25648 0.84975 0.0
C166 C 0.9483 0.31621 0.84297 0.0
H167 H 0.99679 0.37988 0.79281 0.0
C168 C 0.97355 0.30843 0.85242 0.0
C169 C 0.95673 0.3423 0.82131 0.0
C170 C 0.93075 0.35229 0.81108 0.0
C171 C 0.007 0.32569 0.84029 0.0
C172 C 0.01552 0.35194 0.81868 0.0
C173 C 0.9902 0.35972 0.80933 0.0
C174 C 0.05053 0.37178 0.80545 0.0
C175 C 0.0326 0.31505 0.85017 0.0
C176 C 0.07938 0.39146 0.82375 0.0
C177 C 0.1122 0.41089 0.81107 0.0
C178 C 0.1167 0.41135 0.77979 0.0
C179 C 0.08771 0.39176 0.76152 0.0
C180 C 0.05495 0.3722 0.77424 0.0
H181 H 0.01951 0.28868 0.85997 0.0
H182 H 0.04894 0.31573 0.83112 0.0
H183 H 0.0497 0.33322 0.86766 0.0
H184 H 0.07647 0.3922 0.84782 0.0
H185 H 0.13394 0.42589 0.82577 0.0
H186 H 0.58621 0.83277 0.00097 0.0
H187 H 0.61307 0.89207 0.98247 0.0
H188 H 0.617 0.9287 0.07276 0.0
H189 H 0.58926 0.86939 0.09133 0.0
H190 H 0.59195 0.95672 0.03461 0.0
H191 H 0.71202 0.96882 0.98728 0.0
H192 H 0.67389 0.93263 0.97227 0.0
H193 H 0.68373 0.93365 0.01155 0.0
C194 C 0.59307 0.85347 0.01693 0.0
C195 C 0.58566 0.84638 0.04763 0.0
C196 C 0.60865 0.88739 0.00634 0.0
C197 C 0.61762 0.9149 0.02629 0.0
C198 C 0.61046 0.90789 0.05698 0.0
H199 H 0.74312 0.1329 0.98021 0.0
H200 H 0.7214 0.07498 0.00093 0.0
C201 C 0.59461 0.87397 0.06755 0.0
C202 C 0.63273 0.95079 0.01504 0.0
H203 H 0.69893 0.01267 0.9735 0.0
C204 C 0.61548 0.96903 0.02142 0.0
C205 C 0.66369 0.96703 0.99819 0.0
C206 C 0.68461 0.94966 0.99217 0.0
C207 C 0.6279 0.00276 0.01091 0.0
C208 C 0.65793 0.01837 0.99284 0.0
C209 C 0.67566 0.00048 0.98703 0.0
C210 C 0.67128 0.05323 0.97977 0.0
C211 C 0.60897 0.0215 0.01963 0.0
C212 C 0.65054 0.06003 0.96055 0.0
C213 C 0.66276 0.0931 0.94885 0.0
C214 C 0.69616 0.11993 0.95584 0.0
C215 C 0.71724 0.11283 0.97445 0.0
C216 C 0.70489 0.07975 0.9863 0.0
H217 H 0.59322 0.01032 0.0402 0.0
H218 H 0.62721 0.04935 0.02359 0.0
H219 H 0.59123 0.01911 0.0012 0.0
H220 H 0.62485 0.03974 0.95459 0.0
H221 H 0.64598 0.0976 0.93435 0.0
H222 H 0.76192 0.59493 0.17378 0.0
H223 H 0.7311 0.62323 0.15445 0.0
H224 H 0.67581 0.60332 0.23809 0.0
H225 H 0.70671 0.57537 0.25774 0.0
H226 H 0.66034 0.59409 0.1471 0.0
H227 H 0.71131 0.70613 0.2244 0.0
H228 H 0.73133 0.67992 0.22011 0.0
H229 H 0.69369 0.66536 0.24334 0.0
C230 C 0.74343 0.59684 0.18817 0.0
C231 C 0.73685 0.58299 0.21734 0.0
C232 C 0.72583 0.61299 0.17707 0.0
C233 C 0.70154 0.61579 0.19499 0.0
C234 C 0.69498 0.60208 0.22412 0.0
H235 H 0.53177 0.64376 0.14302 0.0
H236 H 0.56988 0.62241 0.15917 0.0
C237 C 0.71254 0.58594 0.23525 0.0
C238 C 0.6818 0.63151 0.18274 0.0
H239 H 0.66194 0.6949 0.19531 0.0
C240 C 0.66088 0.6163 0.15748 0.0
C241 C 0.6829 0.66074 0.1961 0.0
C242 C 0.70627 0.67924 0.22231 0.0
C243 C 0.6402 0.62891 0.14575 0.0
C244 C 0.64009 0.65713 0.15997 0.0
C245 C 0.66182 0.67303 0.18465 0.0
C246 C 0.61711 0.67012 0.14991 0.0
C247 C 0.61875 0.61199 0.11818 0.0
C248 C 0.63104 0.70429 0.13999 0.0
C249 C 0.6093 0.71667 0.13086 0.0
C250 C 0.57323 0.69513 0.13172 0.0
C251 C 0.55941 0.66098 0.14192 0.0
C252 C 0.58115 0.64865 0.15101 0.0
H253 H 0.62873 0.59746 0.10542 0.0
H254 H 0.59187 0.59347 0.1251 0.0
H255 H 0.61815 0.63142 0.10307 0.0
H256 H 0.65874 0.72132 0.13916 0.0
H257 H 0.62078 0.74313 0.12321 0.0
H258 H 0.12983 0.73419 0.41552 0.0
H259 H 0.07088 0.7059 0.39568 0.0
H260 H 0.10544 0.67888 0.31511 0.0
H261 H 0.16411 0.70636 0.33493 0.0
H262 H 0.04468 0.71848 0.34409 0.0
H263 H 0.0261 0.5863 0.34187 0.0
H264 H 0.06141 0.62144 0.36159 0.0
H265 H 0.06367 0.61705 0.32163 0.0
C266 C 0.12486 0.72216 0.3936 0.0
C267 C 0.1516 0.72226 0.37691 0.0
C268 C 0.09118 0.70605 0.3823 0.0
C269 C 0.08368 0.68973 0.35418 0.0
C270 C 0.11049 0.69056 0.33719 0.0
H271 H 0.90454 0.58281 0.24042 0.0
H272 H 0.96265 0.61478 0.26166 0.0
C273 C 0.14407 0.70646 0.3485 0.0
C274 C 0.04791 0.67205 0.34242 0.0
H275 H 0.98396 0.59445 0.31632 0.0
C276 C 0.03127 0.69131 0.33822 0.0
C277 C 0.03046 0.63655 0.33489 0.0
C278 C 0.04616 0.61402 0.34049 0.0
C279 C 0.99795 0.67619 0.32591 0.0
C280 C 0.98088 0.64092 0.31785 0.0
C281 C 0.99732 0.62158 0.32234 0.0
C282 C 0.94586 0.62343 0.30467 0.0
C283 C 0.98151 0.69814 0.32096 0.0
C284 C 0.91725 0.61777 0.32189 0.0
C285 C 0.88398 0.59938 0.3099 0.0
C286 C 0.87878 0.58634 0.28045 0.0
C287 C 0.90762 0.59255 0.26313 0.0
C288 C 0.94084 0.61077 0.27522 0.0
H289 H 0.00051 0.72614 0.32292 0.0
H290 H 0.96922 0.69306 0.29847 0.0
H291 H 0.96106 0.69148 0.33803 0.0
H292 H 0.92061 0.62696 0.34482 0.0
H293 H 0.86232 0.59501 0.32384 0.0
H294 H 0.5938 0.31256 0.55331 0.0
H295 H 0.62462 0.34674 0.50928 0.0
H296 H 0.53268 0.34661 0.48003 0.0
H297 H 0.50169 0.31275 0.52413 0.0
H298 H 0.60767 0.32847 0.44863 0.0
H299 H 0.60702 0.44916 0.47668 0.0
H300 H 0.59788 0.41596 0.50411 0.0
H301 H 0.56536 0.41074 0.47759 0.0
C302 C 0.58017 0.32 0.53765 0.0
C303 C 0.54531 0.31003 0.5423 0.0
C304 C 0.59782 0.33949 0.51248 0.0
C305 C 0.58105 0.34954 0.49163 0.0
C306 C 0.54628 0.33966 0.49617 0.0
H307 H 0.6422 0.46256 0.32351 0.0
H308 H 0.61078 0.42856 0.36745 0.0
C309 C 0.52858 0.32016 0.52132 0.0
C310 C 0.59962 0.36935 0.46458 0.0
H311 H 0.62673 0.44575 0.42808 0.0
C312 C 0.612 0.35417 0.44416 0.0
C313 C 0.60506 0.4028 0.45883 0.0
C314 C 0.59342 0.42084 0.48055 0.0
C315 C 0.62927 0.37138 0.41786 0.0
C316 C 0.63482 0.40488 0.41215 0.0
C317 C 0.62237 0.42003 0.43253 0.0
C318 C 0.65377 0.42483 0.38527 0.0
C319 C 0.64081 0.35327 0.39612 0.0
C320 C 0.68844 0.4342 0.38089 0.0
C321 C 0.70646 0.45357 0.35579 0.0
C322 C 0.69019 0.46412 0.33472 0.0
C323 C 0.65547 0.45479 0.33926 0.0
C324 C 0.63748 0.4354 0.36437 0.0
H325 H 0.6268 0.3249 0.39974 0.0
H326 H 0.63681 0.35852 0.37255 0.0
H327 H 0.66876 0.36291 0.39938 0.0
H328 H 0.70169 0.42689 0.39707 0.0
H329 H 0.73322 0.46048 0.35307 0.0
H330 H 0.24334 0.73235 0.52014 0.0
H331 H 0.24542 0.69862 0.56235 0.0
H332 H 0.23154 0.61752 0.50164 0.0
H333 H 0.22852 0.65073 0.4593 0.0
H334 H 0.19127 0.59208 0.5509 0.0
H335 H 0.32533 0.68531 0.58519 0.0
H336 H 0.29812 0.70414 0.58413 0.0
H337 H 0.30736 0.68875 0.55 0.0
C338 C 0.2408 0.70736 0.51573 0.0
C339 C 0.23595 0.69429 0.48633 0.0
C340 C 0.24222 0.68821 0.53988 0.0
C341 C 0.23935 0.65586 0.53509 0.0
C342 C 0.23403 0.64252 0.50582 0.0
H343 H 0.29422 0.54793 0.66652 0.0
H344 H 0.2911 0.57921 0.6228 0.0
C345 C 0.23232 0.66155 0.48165 0.0
C346 C 0.24129 0.63568 0.56066 0.0
H347 H 0.29213 0.63959 0.61938 0.0
C348 C 0.2134 0.60237 0.56579 0.0
C349 C 0.27041 0.64894 0.5798 0.0
C350 C 0.30215 0.6836 0.57437 0.0
C351 C 0.21353 0.5822 0.58987 0.0
C352 C 0.24198 0.59608 0.60978 0.0
C353 C 0.27015 0.62913 0.60432 0.0
C354 C 0.24335 0.57663 0.63621 0.0
C355 C 0.18346 0.54601 0.59337 0.0
C356 C 0.21775 0.56511 0.65848 0.0
C357 C 0.21931 0.54695 0.68339 0.0
C358 C 0.24681 0.54045 0.68674 0.0
C359 C 0.2727 0.55251 0.66464 0.0
C360 C 0.27096 0.5704 0.63963 0.0
H361 H 0.16929 0.53594 0.5719 0.0
H362 H 0.19215 0.52808 0.60137 0.0
H363 H 0.16512 0.54613 0.61006 0.0
H364 H 0.19669 0.5704 0.65673 0.0
H365 H 0.19911 0.53825 0.70014 0.0
H366 H 0.68854 0.19805 0.85328 0.0
H367 H 0.6525 0.19453 0.8107 0.0
H368 H 0.67023 0.29643 0.83099 0.0
H369 H 0.70688 0.30049 0.87331 0.0
H370 H 0.59284 0.19806 0.81033 0.0
H371 H 0.69427 0.30422 0.74223 0.0
H372 H 0.70426 0.28571 0.77398 0.0
H373 H 0.69038 0.31672 0.77967 0.0
C374 C 0.68491 0.2198 0.84864 0.0
C375 C 0.70074 0.24965 0.86661 0.0
C376 C 0.66429 0.21772 0.82429 0.0
C377 C 0.65914 0.24542 0.81739 0.0
C378 C 0.67452 0.27507 0.8355 0.0
H379 H 0.5369 0.27782 0.68411 0.0
H380 H 0.57383 0.2823 0.72636 0.0
C381 C 0.69529 0.27726 0.85979 0.0
C382 C 0.63691 0.24281 0.79172 0.0
H383 H 0.6365 0.2806 0.72525 0.0
C384 C 0.60241 0.216 0.79165 0.0
C385 C 0.64949 0.26629 0.76741 0.0
C386 C 0.6867 0.29467 0.76557 0.0
C387 C 0.57996 0.21232 0.76813 0.0
C388 C 0.59253 0.23582 0.74387 0.0
C389 C 0.62699 0.26267 0.74394 0.0
C390 C 0.57028 0.23295 0.71818 0.0
C391 C 0.54282 0.18372 0.7697 0.0
C392 C 0.55647 0.20391 0.69938 0.0
C393 C 0.53535 0.20124 0.67522 0.0
C394 C 0.5278 0.22766 0.66937 0.0
C395 C 0.54209 0.25695 0.68805 0.0
C396 C 0.56323 0.25959 0.71217 0.0
H397 H 0.53531 0.17334 0.79283 0.0
H398 H 0.52519 0.1929 0.76195 0.0
H399 H 0.53919 0.16226 0.75483 0.0
H400 H 0.56215 0.18337 0.70332 0.0
H401 H 0.52494 0.17844 0.66118 0.0
H402 H 0.30373 0.4881 0.86192 0.0
H403 H 0.33917 0.52736 0.90191 0.0
H404 H 0.32039 0.60634 0.86691 0.0
H405 H 0.28475 0.56728 0.82693 0.0
H406 H 0.39931 0.59417 0.89586 0.0
H407 H 0.29327 0.59904 0.95656 0.0
H408 H 0.28544 0.56594 0.92938 0.0
H409 H 0.2959 0.60833 0.9171 0.0
C410 C 0.30705 0.51379 0.86274 0.0
C411 C 0.29127 0.5245 0.8413 0.0
C412 C 0.32734 0.53617 0.88559 0.0
C413 C 0.33197 0.56953 0.88757 0.0
C414 C 0.31661 0.58046 0.86605 0.0
H415 H 0.44306 0.74236 0.00877 0.0
H416 H 0.40772 0.70309 0.96878 0.0
C417 C 0.29641 0.55816 0.84314 0.0
C418 C 0.35338 0.5931 0.91188 0.0
H419 H 0.35024 0.63739 0.97308 0.0
C420 C 0.38861 0.60354 0.91285 0.0
C421 C 0.33929 0.60529 0.93388 0.0
C422 C 0.30135 0.59392 0.93447 0.0
C423 C 0.41033 0.62641 0.93499 0.0
C424 C 0.39622 0.63853 0.95709 0.0
C425 C 0.36097 0.62806 0.9561 0.0
C426 C 0.41761 0.66213 0.98143 0.0
C427 C 0.44833 0.63801 0.93411 0.0
C428 C 0.43447 0.6519 0.00208 0.0
C429 C 0.45475 0.6743 0.02491 0.0
C430 C 0.45833 0.70727 0.02767 0.0
C431 C 0.44092 0.7172 0.00724 0.0
C432 C 0.4207 0.6948 0.98438 0.0
H433 H 0.45641 0.63386 0.91164 0.0
H434 H 0.46419 0.66576 0.94002 0.0
H435 H 0.45384 0.62287 0.95067 0.0
H436 H 0.43181 0.62651 0.00061 0.0
H437 H 0.46761 0.66574 0.04038 0.0
H438 H 0.71904 0.26517 0.00987 0.0
H439 H 0.71253 0.29654 0.05199 0.0
H440 H 0.81805 0.37788 0.04086 0.0
H441 H 0.82465 0.34704 0.99842 0.0
H442 H 0.74857 0.31634 0.10536 0.0
H443 H 0.76608 0.43096 0.04237 0.0
H444 H 0.75821 0.39172 0.02396 0.0
H445 H 0.80074 0.42215 0.03726 0.0
C446 C 0.74083 0.28983 0.01626 0.0
C447 C 0.77233 0.30369 0.00067 0.0
C448 C 0.73705 0.30769 0.04036 0.0
C449 C 0.76462 0.33978 0.04925 0.0
C450 C 0.79619 0.35352 0.03394 0.0
H451 H 0.80131 0.48347 0.19347 0.0
H452 H 0.80549 0.45113 0.15096 0.0
C453 C 0.79998 0.33574 0.00979 0.0
C454 C 0.76065 0.3584 0.07508 0.0
H455 H 0.76638 0.43467 0.09566 0.0
C456 C 0.75222 0.34211 0.10322 0.0
C457 C 0.76541 0.39202 0.07219 0.0
C458 C 0.77279 0.41015 0.04227 0.0
C459 C 0.74917 0.35885 0.12872 0.0
C460 C 0.75434 0.39259 0.12586 0.0
C461 C 0.76257 0.40882 0.09773 0.0
C462 C 0.7516 0.41165 0.15188 0.0
C463 C 0.74123 0.34069 0.15864 0.0
C464 C 0.71982 0.40022 0.16629 0.0
C465 C 0.71728 0.41868 0.19055 0.0
C466 C 0.74652 0.44889 0.2008 0.0
C467 C 0.77832 0.46024 0.18623 0.0
C468 C 0.78077 0.44186 0.16191 0.0
H469 H 0.74516 0.31805 0.15821 0.0
H470 H 0.75768 0.35865 0.17656 0.0
H471 H 0.71389 0.33145 0.16455 0.0
H472 H 0.69691 0.37722 0.15857 0.0
H473 H 0.69241 0.4093 0.2012 0.0
H474 H 0.34694 0.74991 0.39751 0.0
H475 H 0.38027 0.75064 0.35359 0.0
H476 H 0.33338 0.79708 0.30092 0.0
H477 H 0.29992 0.79644 0.34456 0.0
H478 H 0.3508 0.71828 0.2953 0.0
H479 H 0.44001 0.85998 0.28808 0.0
H480 H 0.41692 0.83902 0.32201 0.0
H481 H 0.39492 0.8463 0.29168 0.0
C482 C 0.34388 0.7605 0.37664 0.0
C483 C 0.32083 0.77319 0.37455 0.0
C484 C 0.36289 0.76083 0.3516 0.0
C485 C 0.35949 0.77423 0.32418 0.0
C486 C 0.33668 0.78707 0.32203 0.0
H487 H 0.4475 0.80166 0.14661 0.0
H488 H 0.41622 0.8011 0.19181 0.0
C489 C 0.3175 0.78654 0.34697 0.0
C490 C 0.37891 0.77376 0.29749 0.0
H491 H 0.4412 0.82613 0.24774 0.0
C492 C 0.37073 0.7418 0.28494 0.0
C493 C 0.40467 0.80453 0.28406 0.0
C494 C 0.41496 0.83947 0.29719 0.0
C495 C 0.38717 0.73979 0.2588 0.0
C496 C 0.41306 0.77059 0.24535 0.0
C497 C 0.42134 0.80256 0.25807 0.0
C498 C 0.43169 0.77031 0.21792 0.0
C499 C 0.37591 0.70476 0.24537 0.0
C500 C 0.45103 0.75344 0.21768 0.0
C501 C 0.46875 0.7535 0.19181 0.0
C502 C 0.46781 0.77083 0.1658 0.0
C503 C 0.44872 0.78803 0.16623 0.0
C504 C 0.43086 0.78777 0.19205 0.0
H505 H 0.34983 0.68508 0.2533 0.0
H506 H 0.3756 0.7057 0.22048 0.0
H507 H 0.39432 0.69621 0.2522 0.0
H508 H 0.45271 0.7405 0.2376 0.0
H509 H 0.48345 0.74025 0.19232 0.0
loop_
_geom_bond_atom_site_label_1
_geom_bond_atom_site_label_2
_geom_bond_distance
_geom_bond_site_symmetry_2
_ccdc_geom_bond_type
C0 O1 1.160 . S
C0 O7 1.185 . S
O1 C0 1.160 . S
O2 Zn3 1.899 . S
O2 C10 1.284 . S
Zn3 O2 1.899 . S
Zn3 O4 2.032 . S
Zn3 O7 2.086 . S
Zn3 O12 1.977 . S
O4 Zn3 2.032 . S
O4 C8 1.278 . S
C5 O6 1.203 . S
C5 O12 1.267 . S
O6 C5 1.203 . S
O7 C0 1.185 . S
O7 Zn3 2.086 . S
C8 O4 1.278 . S
C8 O9 1.211 . S
O9 C8 1.211 . S
C10 O2 1.284 . S
C10 O11 1.273 . S
O11 C10 1.273 . S
O12 Zn3 1.977 . S
O12 C5 1.267 . S
C13 O14 1.160 . S
C13 O20 1.185 . S
O14 C13 1.160 . S
O15 Zn16 1.899 . S
O15 C23 1.284 . S
Zn16 O15 1.899 . S
Zn16 O17 2.032 . S
Zn16 O20 2.086 . S
Zn16 O25 1.977 . S
O17 Zn16 2.032 . S
O17 C21 1.278 . S
C18 O19 1.203 . S
C18 O25 1.267 . S
O19 C18 1.203 . S
O20 C13 1.185 . S
O20 Zn16 2.086 . S
C21 O17 1.278 . S
C21 O22 1.211 . S
O22 C21 1.211 . S
C23 O15 1.284 . S
C23 O24 1.273 . S
O24 C23 1.273 . S
O25 Zn16 1.977 . S
O25 C18 1.267 . S
C26 O27 1.160 . S
C26 O33 1.185 . S
O27 C26 1.160 . S
O28 Zn29 1.899 . S
O28 C36 1.284 . S
Zn29 O28 1.899 . S
Zn29 O30 2.032 . S
Zn29 O33 2.086 . S
Zn29 O38 1.977 . S
O30 Zn29 2.032 . S
O30 C34 1.278 . S
C31 O32 1.203 . S
C31 O38 1.267 . S
O32 C31 1.203 . S
O33 C26 1.185 . S
O33 Zn29 2.086 . S
C34 O30 1.278 . S
C34 O35 1.211 . S
O35 C34 1.211 . S
C36 O28 1.284 . S
C36 O37 1.273 . S
O37 C36 1.273 . S
O38 Zn29 1.977 . S
O38 C31 1.267 . S
C39 O40 1.160 . S
C39 O46 1.185 . S
O40 C39 1.160 . S
O41 Zn42 1.899 . S
O41 C49 1.284 . S
Zn42 O41 1.899 . S
Zn42 O43 2.032 . S
Zn42 O46 2.086 . S
Zn42 O51 1.977 . S
O43 Zn42 2.032 . S
O43 C47 1.278 . S
C44 O45 1.203 . S
C44 O51 1.267 . S
O45 C44 1.203 . S
O46 C39 1.185 . S
O46 Zn42 2.086 . S
C47 O43 1.278 . S
C47 O48 1.211 . S
O48 C47 1.211 . S
C49 O41 1.284 . S
C49 O50 1.273 . S
O50 C49 1.273 . S
O51 Zn42 1.977 . S
O51 C44 1.267 . S
C52 O53 1.160 . S
C52 O59 1.185 . S
O53 C52 1.160 . S
O54 Zn55 1.899 . S
O54 C62 1.284 . S
Zn55 O54 1.899 . S
Zn55 O56 2.032 . S
Zn55 O59 2.086 . S
Zn55 O64 1.977 . S
O56 Zn55 2.032 . S
O56 C60 1.278 . S
C57 O58 1.203 . S
C57 O64 1.267 . S
O58 C57 1.203 . S
O59 C52 1.185 . S
O59 Zn55 2.086 . S
C60 O56 1.278 . S
C60 O61 1.211 . S
O61 C60 1.211 . S
C62 O54 1.284 . S
C62 O63 1.273 . S
O63 C62 1.273 . S
O64 Zn55 1.977 . S
O64 C57 1.267 . S
C65 O66 1.160 . S
C65 O72 1.185 . S
O66 C65 1.160 . S
O67 Zn68 1.899 . S
O67 C75 1.284 . S
Zn68 O67 1.899 . S
Zn68 O69 2.032 . S
Zn68 O72 2.086 . S
Zn68 O77 1.977 . S
O69 Zn68 2.032 . S
O69 C73 1.278 . S
C70 O71 1.203 . S
C70 O77 1.267 . S
O71 C70 1.203 . S
O72 C65 1.185 . S
O72 Zn68 2.086 . S
C73 O69 1.278 . S
C73 O74 1.211 . S
O74 C73 1.211 . S
C75 O67 1.284 . S
C75 O76 1.273 . S
O76 C75 1.273 . S
O77 Zn68 1.977 . S
O77 C70 1.267 . S
H78 C86 0.929 . S
H79 C88 0.930 . S
H80 C90 0.930 . S
H81 C93 0.929 . S
H82 C96 0.930 . S
H83 C98 0.949 1_565 S
H84 C98 0.960 . S
H85 C98 0.960 . S
C86 H78 0.929 . S
C86 C87 1.377 . S
C86 C88 1.384 . S
C87 C86 1.377 . S
C87 C93 1.390 . S
C88 H79 0.930 . S
C88 C86 1.384 . S
C88 C89 1.372 . S
C89 C88 1.372 . S
C89 C90 1.400 . S
C89 C94 1.490 . S
C90 H80 0.930 . S
C90 C89 1.400 . S
C90 C93 1.386 . S
H91 C107 0.930 . S
H92 C108 0.931 . S
C93 H81 0.929 . S
C93 C87 1.390 . S
C93 C90 1.386 . S
C94 C89 1.490 . S
C94 C96 1.395 . S
C94 C97 1.403 . S
H95 C101 0.930 . S
C96 H82 0.930 . S
C96 C94 1.395 . S
C96 C99 1.429 . S
C97 C94 1.403 . S
C97 C98 1.524 . S
C97 C101 1.400 1_545 S
C98 H83 0.949 1_545 S
C98 H84 0.960 . S
C98 H85 0.960 . S
C98 C97 1.524 . S
C99 C96 1.429 . S
C99 C100 1.361 1_545 S
C99 C103 1.502 1_545 S
C100 C99 1.361 1_565 S
C100 C101 1.385 . S
C100 C102 1.478 . S
C101 H95 0.930 . S
C101 C97 1.400 1_565 S
C101 C100 1.385 . S
C102 C100 1.478 . S
C102 C104 1.381 . S
C102 C108 1.383 . S
C103 C99 1.502 1_565 S
C103 H109 0.959 1_565 S
C103 H110 0.961 . S
C103 H111 0.960 . S
C104 C102 1.381 . S
C104 C105 1.394 . S
C104 H112 0.930 . S
C105 C104 1.394 . S
C105 C106 1.383 . S
C105 H113 0.929 . S
C106 C105 1.383 . S
C106 C107 1.377 . S
C107 H91 0.930 . S
C107 C106 1.377 . S
C107 C108 1.379 . S
C108 H92 0.931 . S
C108 C102 1.383 . S
C108 C107 1.379 . S
H109 C103 0.959 1_545 S
H110 C103 0.961 . S
H111 C103 0.960 . S
H112 C104 0.930 . S
H113 C105 0.929 . S
H114 C122 0.929 . S
H115 C124 0.930 . S
H116 C126 0.930 . S
H117 C129 0.929 . S
H118 C132 0.930 . S
H119 C134 0.960 . S
H120 C134 0.960 . S
H121 C134 0.960 . S
C122 H114 0.929 . S
C122 C123 1.377 . S
C122 C124 1.384 . S
C123 C122 1.377 . S
C123 C129 1.390 . S
C124 H115 0.930 . S
C124 C122 1.384 . S
C124 C125 1.372 . S
C125 C124 1.372 . S
C125 C126 1.400 . S
C125 C130 1.490 . S
C126 H116 0.930 . S
C126 C125 1.400 . S
C126 C129 1.386 . S
H127 C143 0.930 . S
H128 C144 0.931 . S
C129 H117 0.929 . S
C129 C123 1.390 . S
C129 C126 1.386 . S
C130 C125 1.490 . S
C130 C132 1.395 . S
C130 C133 1.403 . S
H131 C137 0.930 . S
C132 H118 0.930 . S
C132 C130 1.395 . S
C132 C135 1.403 . S
C133 C130 1.403 . S
C133 C134 1.524 . S
C133 C137 1.400 . S
C134 H119 0.960 . S
C134 H120 0.960 . S
C134 H121 0.960 . S
C134 C133 1.524 . S
C135 C132 1.403 . S
C135 C136 1.392 . S
C135 C139 1.495 . S
C136 C135 1.392 . S
C136 C137 1.385 . S
C136 C138 1.478 . S
C137 H131 0.930 . S
C137 C133 1.400 . S
C137 C136 1.385 . S
C138 C136 1.478 . S
C138 C140 1.381 . S
C138 C144 1.383 . S
C139 C135 1.495 . S
C139 H145 0.959 . S
C139 H146 0.961 . S
C139 H147 0.960 . S
C140 C138 1.381 . S
C140 C141 1.394 . S
C140 H148 0.930 . S
C141 C140 1.394 . S
C141 C142 1.383 . S
C141 H149 0.929 . S
C142 C141 1.383 . S
C142 C143 1.377 . S
C143 H127 0.930 . S
C143 C142 1.377 . S
C143 C144 1.379 . S
C144 H128 0.931 . S
C144 C138 1.383 . S
C144 C143 1.379 . S
H145 C139 0.959 . S
H146 C139 0.961 . S
H147 C139 0.960 . S
H148 C140 0.930 . S
H149 C141 0.929 . S
H150 C158 0.929 . S
H151 C160 0.930 . S
H152 C162 0.930 . S
H153 C165 0.929 . S
H154 C168 0.930 . S
H155 C170 0.960 . S
H156 C170 0.960 . S
H157 C170 0.960 . S
C158 H150 0.929 . S
C158 C159 1.377 . S
C158 C160 1.384 . S
C159 C158 1.377 . S
C159 C165 1.390 . S
C160 H151 0.930 . S
C160 C158 1.384 . S
C160 C161 1.372 . S
C161 C160 1.372 . S
C161 C162 1.400 . S
C161 C166 1.490 . S
C162 H152 0.930 . S
C162 C161 1.400 . S
C162 C165 1.386 . S
H163 C179 0.930 . S
H164 C180 0.931 . S
C165 H153 0.929 . S
C165 C159 1.390 . S
C165 C162 1.386 . S
C166 C161 1.490 . S
C166 C168 1.395 . S
C166 C169 1.403 . S
H167 C173 0.930 . S
C168 H154 0.930 . S
C168 C166 1.395 . S
C168 C171 1.403 1_655 S
C169 C166 1.403 . S
C169 C170 1.524 . S
C169 C173 1.400 1_655 S
C170 H155 0.960 . S
C170 H156 0.960 . S
C170 H157 0.960 . S
C170 C169 1.524 . S
C171 C168 1.403 1_455 S
C171 C172 1.392 . S
C171 C175 1.495 . S
C172 C171 1.392 . S
C172 C173 1.385 . S
C172 C174 1.478 . S
C173 H167 0.930 . S
C173 C169 1.400 1_455 S
C173 C172 1.385 . S
C174 C172 1.478 . S
C174 C176 1.381 . S
C174 C180 1.383 . S
C175 C171 1.495 . S
C175 H181 0.959 . S
C175 H182 0.961 . S
C175 H183 0.960 . S
C176 C174 1.381 . S
C176 C177 1.394 . S
C176 H184 0.930 . S
C177 C176 1.394 . S
C177 C178 1.383 . S
C177 H185 0.929 . S
C178 C177 1.383 . S
C178 C179 1.377 . S
C179 H163 0.930 . S
C179 C178 1.377 . S
C179 C180 1.379 . S
C180 H164 0.931 . S
C180 C174 1.383 . S
C180 C179 1.379 . S
H181 C175 0.959 . S
H182 C175 0.961 . S
H183 C175 0.960 . S
H184 C176 0.930 . S
H185 C177 0.929 . S
H186 C194 0.929 . S
H187 C196 0.930 . S
H188 C198 0.930 . S
H189 C201 0.929 . S
H190 C204 0.930 . S
H191 C206 0.960 . S
H192 C206 0.960 . S
H193 C206 0.960 . S
C194 H186 0.929 . S
C194 C195 1.377 . S
C194 C196 1.384 . S
C195 C194 1.377 . S
C195 C201 1.390 . S
C196 H187 0.930 . S
C196 C194 1.384 . S
C196 C197 1.372 . S
C197 C196 1.372 . S
C197 C198 1.400 . S
C197 C202 1.490 . S
C198 H188 0.930 . S
C198 C197 1.400 . S
C198 C201 1.386 . S
H199 C215 0.930 . S
H200 C216 0.931 . S
C201 H189 0.929 . S
C201 C195 1.390 . S
C201 C198 1.386 . S
C202 C197 1.490 . S
C202 C204 1.395 . S
C202 C205 1.403 1_554 S
H203 C209 0.930 . S
C204 H190 0.930 . S
C204 C202 1.395 . S
C204 C207 1.403 1_565 S
C205 C202 1.403 1_556 S
C205 C206 1.524 . S
C205 C209 1.400 1_565 S
C206 H191 0.960 . S
C206 H192 0.960 . S
C206 H193 0.960 . S
C206 C205 1.524 . S
C207 C204 1.403 1_545 S
C207 C208 1.392 . S
C207 C211 1.495 . S
C208 C207 1.392 . S
C208 C209 1.385 1_554 S
C208 C210 1.478 1_554 S
C209 H203 0.930 . S
C209 C205 1.400 1_545 S
C209 C208 1.385 1_556 S
C210 C208 1.478 1_556 S
C210 C212 1.381 . S
C210 C216 1.383 . S
C211 C207 1.495 . S
C211 H217 0.959 . S
C211 H218 0.961 . S
C211 H219 0.960 . S
C212 C210 1.381 . S
C212 C213 1.394 . S
C212 H220 0.930 . S
C213 C212 1.394 . S
C213 C214 1.383 . S
C213 H221 0.929 . S
C214 C213 1.383 . S
C214 C215 1.377 . S
C215 H199 0.930 . S
C215 C214 1.377 . S
C215 C216 1.379 . S
C216 H200 0.931 . S
C216 C210 1.383 . S
C216 C215 1.379 . S
H217 C211 0.959 . S
H218 C211 0.961 . S
H219 C211 0.960 . S
H220 C212 0.930 . S
H221 C213 0.929 . S
H222 C230 0.929 . S
H223 C232 0.930 . S
H224 C234 0.930 . S
H225 C237 0.929 . S
H226 C240 0.930 . S
H227 C242 0.960 . S
H228 C242 0.960 . S
H229 C242 0.960 . S
C230 H222 0.929 . S
C230 C231 1.377 . S
C230 C232 1.384 . S
C231 C230 1.377 . S
C231 C237 1.390 . S
C232 H223 0.930 . S
C232 C230 1.384 . S
C232 C233 1.372 . S
C233 C232 1.372 . S
C233 C234 1.400 . S
C233 C238 1.490 . S
C234 H224 0.930 . S
C234 C233 1.400 . S
C234 C237 1.386 . S
H235 C251 0.930 . S
H236 C252 0.931 . S
C237 H225 0.929 . S
C237 C231 1.390 . S
C237 C234 1.386 . S
C238 C233 1.490 . S
C238 C240 1.395 . S
C238 C241 1.403 . S
H239 C245 0.930 . S
C240 H226 0.930 . S
C240 C238 1.395 . S
C240 C243 1.403 . S
C241 C238 1.403 . S
C241 C242 1.524 . S
C241 C245 1.400 . S
C242 H227 0.960 . S
C242 H228 0.960 . S
C242 H229 0.960 . S
C242 C241 1.524 . S
C243 C240 1.403 . S
C243 C244 1.392 . S
C243 C247 1.495 . S
C244 C243 1.392 . S
C244 C245 1.385 . S
C244 C246 1.478 . S
C245 H239 0.930 . S
C245 C241 1.400 . S
C245 C244 1.385 . S
C246 C244 1.478 . S
C246 C248 1.381 . S
C246 C252 1.383 . S
C247 C243 1.495 . S
C247 H253 0.959 . S
C247 H254 0.961 . S
C247 H255 0.960 . S
C248 C246 1.381 . S
C248 C249 1.394 . S
C248 H256 0.930 . S
C249 C248 1.394 . S
C249 C250 1.383 . S
C249 H257 0.929 . S
C250 C249 1.383 . S
C250 C251 1.377 . S
C251 H235 0.930 . S
C251 C250 1.377 . S
C251 C252 1.379 . S
C252 H236 0.931 . S
C252 C246 1.383 . S
C252 C251 1.379 . S
H253 C247 0.959 . S
H254 C247 0.961 . S
H255 C247 0.960 . S
H256 C248 0.930 . S
H257 C249 0.929 . S
H258 C266 0.929 . S
H259 C268 0.930 . S
H260 C270 0.930 . S
H261 C273 0.929 . S
H262 C276 0.930 . S
H263 C278 0.960 . S
H264 C278 0.960 . S
H265 C278 0.960 . S
C266 H258 0.929 . S
C266 C267 1.377 . S
C266 C268 1.384 . S
C267 C266 1.377 . S
C267 C273 1.390 . S
C268 H259 0.930 . S
C268 C266 1.384 . S
C268 C269 1.372 . S
C269 C268 1.372 . S
C269 C270 1.400 . S
C269 C274 1.490 . S
C270 H260 0.930 . S
C270 C269 1.400 . S
C270 C273 1.386 . S
H271 C287 0.930 . S
H272 C288 0.931 . S
C273 H261 0.929 . S
C273 C267 1.390 . S
C273 C270 1.386 . S
C274 C269 1.490 . S
C274 C276 1.395 . S
C274 C277 1.403 . S
H275 C281 0.930 . S
C276 H262 0.930 . S
C276 C274 1.395 . S
C276 C279 1.403 1_455 S
C277 C274 1.403 . S
C277 C278 1.524 . S
C277 C281 1.400 1_455 S
C278 H263 0.960 . S
C278 H264 0.960 . S
C278 H265 0.960 . S
C278 C277 1.524 . S
C279 C276 1.403 1_655 S
C279 C280 1.392 . S
C279 C283 1.495 . S
C280 C279 1.392 . S
C280 C281 1.385 . S
C280 C282 1.478 . S
C281 H275 0.930 . S
C281 C277 1.400 1_655 S
C281 C280 1.385 . S
C282 C280 1.478 . S
C282 C284 1.381 . S
C282 C288 1.383 . S
C283 C279 1.495 . S
C283 H289 0.959 . S
C283 H290 0.961 . S
C283 H291 0.960 . S
C284 C282 1.381 . S
C284 C285 1.394 . S
C284 H292 0.930 . S
C285 C284 1.394 . S
C285 C286 1.383 . S
C285 H293 0.929 . S
C286 C285 1.383 . S
C286 C287 1.377 . S
C287 H271 0.930 . S
C287 C286 1.377 . S
C287 C288 1.379 . S
C288 H272 0.931 . S
C288 C282 1.383 . S
C288 C287 1.379 . S
H289 C283 0.959 . S
H290 C283 0.961 . S
H291 C283 0.960 . S
H292 C284 0.930 . S
H293 C285 0.929 . S
H294 C302 0.929 . S
H295 C304 0.930 . S
H296 C306 0.930 . S
H297 C309 0.929 . S
H298 C312 0.930 . S
H299 C314 0.960 . S
H300 C314 0.960 . S
H301 C314 0.960 . S
C302 H294 0.929 . S
C302 C303 1.377 . S
C302 C304 1.384 . S
C303 C302 1.377 . S
C303 C309 1.390 . S
C304 H295 0.930 . S
C304 C302 1.384 . S
C304 C305 1.372 . S
C305 C304 1.372 . S
C305 C306 1.400 . S
C305 C310 1.490 . S
C306 H296 0.930 . S
C306 C305 1.400 . S
C306 C309 1.386 . S
H307 C323 0.930 . S
H308 C324 0.931 . S
C309 H297 0.929 . S
C309 C303 1.390 . S
C309 C306 1.386 . S
C310 C305 1.490 . S
C310 C312 1.395 . S
C310 C313 1.403 . S
H311 C317 0.930 . S
C312 H298 0.930 . S
C312 C310 1.395 . S
C312 C315 1.403 . S
C313 C310 1.403 . S
C313 C314 1.524 . S
C313 C317 1.400 . S
C314 H299 0.960 . S
C314 H300 0.960 . S
C314 H301 0.960 . S
C314 C313 1.524 . S
C315 C312 1.403 . S
C315 C316 1.392 . S
C315 C319 1.495 . S
C316 C315 1.392 . S
C316 C317 1.385 . S
C316 C318 1.478 . S
C317 H311 0.930 . S
C317 C313 1.400 . S
C317 C316 1.385 . S
C318 C316 1.478 . S
C318 C320 1.381 . S
C318 C324 1.383 . S
C319 C315 1.495 . S
C319 H325 0.959 . S
C319 H326 0.961 . S
C319 H327 0.960 . S
C320 C318 1.381 . S
C320 C321 1.394 . S
C320 H328 0.930 . S
C321 C320 1.394 . S
C321 C322 1.383 . S
C321 H329 0.929 . S
C322 C321 1.383 . S
C322 C323 1.377 . S
C323 H307 0.930 . S
C323 C322 1.377 . S
C323 C324 1.379 . S
C324 H308 0.931 . S
C324 C318 1.383 . S
C324 C323 1.379 . S
H325 C319 0.959 . S
H326 C319 0.961 . S
H327 C319 0.960 . S
H328 C320 0.930 . S
H329 C321 0.929 . S
H330 C338 0.929 . S
H331 C340 0.930 . S
H332 C342 0.930 . S
H333 C345 0.929 . S
H334 C348 0.930 . S
H335 C350 0.960 . S
H336 C350 0.960 . S
H337 C350 0.960 . S
C338 H330 0.929 . S
C338 C339 1.377 . S
C338 C340 1.384 . S
C339 C338 1.377 . S
C339 C345 1.390 . S
C340 H331 0.930 . S
C340 C338 1.384 . S
C340 C341 1.372 . S
C341 C340 1.372 . S
C341 C342 1.400 . S
C341 C346 1.490 . S
C342 H332 0.930 . S
C342 C341 1.400 . S
C342 C345 1.386 . S
H343 C359 0.930 . S
H344 C360 0.931 . S
C345 H333 0.929 . S
C345 C339 1.390 . S
C345 C342 1.386 . S
C346 C341 1.490 . S
C346 C348 1.395 . S
C346 C349 1.403 . S
H347 C353 0.930 . S
C348 H334 0.930 . S
C348 C346 1.395 . S
C348 C351 1.403 . S
C349 C346 1.403 . S
C349 C350 1.524 . S
C349 C353 1.400 . S
C350 H335 0.960 . S
C350 H336 0.960 . S
C350 H337 0.960 . S
C350 C349 1.524 . S
C351 C348 1.403 . S
C351 C352 1.392 . S
C351 C355 1.495 . S
C352 C351 1.392 . S
C352 C353 1.385 . S
C352 C354 1.478 . S
C353 H347 0.930 . S
C353 C349 1.400 . S
C353 C352 1.385 . S
C354 C352 1.478 . S
C354 C356 1.381 . S
C354 C360 1.383 . S
C355 C351 1.495 . S
C355 H361 0.959 . S
C355 H362 0.961 . S
C355 H363 0.960 . S
C356 C354 1.381 . S
C356 C357 1.394 . S
C356 H364 0.930 . S
C357 C356 1.394 . S
C357 C358 1.383 . S
C357 H365 0.929 . S
C358 C357 1.383 . S
C358 C359 1.377 . S
C359 H343 0.930 . S
C359 C358 1.377 . S
C359 C360 1.379 . S
C360 H344 0.931 . S
C360 C354 1.383 . S
C360 C359 1.379 . S
H361 C355 0.959 . S
H362 C355 0.961 . S
H363 C355 0.960 . S
H364 C356 0.930 . S
H365 C357 0.929 . S
H366 C374 0.929 . S
H367 C376 0.930 . S
H368 C378 0.930 . S
H369 C381 0.929 . S
H370 C384 0.930 . S
H371 C386 0.960 . S
H372 C386 0.960 . S
H373 C386 0.960 . S
C374 H366 0.929 . S
C374 C375 1.377 . S
C374 C376 1.384 . S
C375 C374 1.377 . S
C375 C381 1.390 . S
C376 H367 0.930 . S
C376 C374 1.384 . S
C376 C377 1.372 . S
C377 C376 1.372 . S
C377 C378 1.400 . S
C377 C382 1.490 . S
C378 H368 0.930 . S
C378 C377 1.400 . S
C378 C381 1.386 . S
H379 C395 0.930 . S
H380 C396 0.931 . S
C381 H369 0.929 . S
C381 C375 1.390 . S
C381 C378 1.386 . S
C382 C377 1.490 . S
C382 C384 1.395 . S
C382 C385 1.403 . S
H383 C389 0.930 . S
C384 H370 0.930 . S
C384 C382 1.395 . S
C384 C387 1.403 . S
C385 C382 1.403 . S
C385 C386 1.524 . S
C385 C389 1.400 . S
C386 H371 0.960 . S
C386 H372 0.960 . S
C386 H373 0.960 . S
C386 C385 1.524 . S
C387 C384 1.403 . S
C387 C388 1.392 . S
C387 C391 1.495 . S
C388 C387 1.392 . S
C388 C389 1.385 . S
C388 C390 1.478 . S
C389 H383 0.930 . S
C389 C385 1.400 . S
C389 C388 1.385 . S
C390 C388 1.478 . S
C390 C392 1.381 . S
C390 C396 1.383 . S
C391 C387 1.495 . S
C391 H397 0.959 . S
C391 H398 0.961 . S
C391 H399 0.960 . S
C392 C390 1.381 . S
C392 C393 1.394 . S
C392 H400 0.930 . S
C393 C392 1.394 . S
C393 C394 1.383 . S
C393 H401 0.929 . S
C394 C393 1.383 . S
C394 C395 1.377 . S
C395 H379 0.930 . S
C395 C394 1.377 . S
C395 C396 1.379 . S
C396 H380 0.931 . S
C396 C390 1.383 . S
C396 C395 1.379 . S
H397 C391 0.959 . S
H398 C391 0.961 . S
H399 C391 0.960 . S
H400 C392 0.930 . S
H401 C393 0.929 . S
H402 C410 0.929 . S
H403 C412 0.930 . S
H404 C414 0.930 . S
H405 C417 0.929 . S
H406 C420 0.930 . S
H407 C422 0.960 . S
H408 C422 0.960 . S
H409 C422 0.960 . S
C410 H402 0.929 . S
C410 C411 1.377 . S
C410 C412 1.384 . S
C411 C410 1.377 . S
C411 C417 1.390 . S
C412 H403 0.930 . S
C412 C410 1.384 . S
C412 C413 1.372 . S
C413 C412 1.372 . S
C413 C414 1.400 . S
C413 C418 1.490 . S
C414 H404 0.930 . S
C414 C413 1.400 . S
C414 C417 1.386 . S
H415 C431 0.930 . S
H416 C432 0.931 . S
C417 H405 0.929 . S
C417 C411 1.390 . S
C417 C414 1.386 . S
C418 C413 1.490 . S
C418 C420 1.395 . S
C418 C421 1.403 . S
H419 C425 0.930 . S
C420 H406 0.930 . S
C420 C418 1.395 . S
C420 C423 1.403 . S
C421 C418 1.403 . S
C421 C422 1.524 . S
C421 C425 1.400 . S
C422 H407 0.960 . S
C422 H408 0.960 . S
C422 H409 0.960 . S
C422 C421 1.524 . S
C423 C420 1.403 . S
C423 C424 1.392 . S
C423 C427 1.495 . S
C424 C423 1.392 . S
C424 C425 1.385 . S
C424 C426 1.478 . S
C425 H419 0.930 . S
C425 C421 1.400 . S
C425 C424 1.385 . S
C426 C424 1.478 . S
C426 C428 1.383 . S
C426 C432 1.383 . S
C427 C423 1.495 . S
C427 H433 0.959 . S
C427 H434 0.961 . S
C427 H435 0.960 . S
C428 C426 1.383 . S
C428 C429 1.392 1_556 S
C428 H436 0.930 1_556 S
C429 C428 1.392 1_554 S
C429 C430 1.383 . S
C429 H437 0.929 . S
C430 C429 1.383 . S
C430 C431 1.377 1_554 S
C431 H415 0.930 . S
C431 C430 1.377 1_556 S
C431 C432 1.379 . S
C432 H416 0.931 . S
C432 C426 1.383 . S
C432 C431 1.379 . S
H433 C427 0.959 . S
H434 C427 0.961 . S
H435 C427 0.960 . S
H436 C428 0.930 1_554 S
H437 C429 0.929 . S
H438 C446 0.929 . S
H439 C448 0.930 . S
H440 C450 0.930 . S
H441 C453 0.929 . S
H442 C456 0.930 . S
H443 C458 0.960 . S
H444 C458 0.960 . S
H445 C458 0.960 . S
C446 H438 0.929 . S
C446 C447 1.377 1_554 S
C446 C448 1.384 . S
C447 C446 1.377 1_556 S
C447 C453 1.390 . S
C448 H439 0.930 . S
C448 C446 1.384 . S
C448 C449 1.372 . S
C449 C448 1.372 . S
C449 C450 1.400 . S
C449 C454 1.490 . S
C450 H440 0.930 . S
C450 C449 1.400 . S
C450 C453 1.386 1_554 S
H451 C467 0.930 . S
H452 C468 0.931 . S
C453 H441 0.929 . S
C453 C447 1.390 . S
C453 C450 1.386 1_556 S
C454 C449 1.490 . S
C454 C456 1.395 . S
C454 C457 1.403 . S
H455 C461 0.930 . S
C456 H442 0.930 . S
C456 C454 1.395 . S
C456 C459 1.403 . S
C457 C454 1.403 . S
C457 C458 1.524 . S
C457 C461 1.400 . S
C458 H443 0.960 . S
C458 H444 0.960 . S
C458 H445 0.960 . S
C458 C457 1.524 . S
C459 C456 1.403 . S
C459 C460 1.392 . S
C459 C463 1.495 . S
C460 C459 1.392 . S
C460 C461 1.385 . S
C460 C462 1.478 . S
C461 H455 0.930 . S
C461 C457 1.400 . S
C461 C460 1.385 . S
C462 C460 1.478 . S
C462 C464 1.381 . S
C462 C468 1.383 . S
C463 C459 1.495 . S
C463 H469 0.959 . S
C463 H470 0.961 . S
C463 H471 0.960 . S
C464 C462 1.381 . S
C464 C465 1.394 . S
C464 H472 0.930 . S
C465 C464 1.394 . S
C465 C466 1.383 . S
C465 H473 0.929 . S
C466 C465 1.383 . S
C466 C467 1.377 . S
C467 H451 0.930 . S
C467 C466 1.377 . S
C467 C468 1.379 . S
C468 H452 0.931 . S
C468 C462 1.383 . S
C468 C467 1.379 . S
H469 C463 0.959 . S
H470 C463 0.961 . S
H471 C463 0.960 . S
H472 C464 0.930 . S
H473 C465 0.929 . S
H474 C482 0.929 . S
H475 C484 0.930 . S
H476 C486 0.930 . S
H477 C489 0.929 . S
H478 C492 0.930 . S
H479 C494 0.960 . S
H480 C494 0.960 . S
H481 C494 0.960 . S
C482 H474 0.929 . S
C482 C483 1.377 . S
C482 C484 1.384 . S
C483 C482 1.377 . S
C483 C489 1.390 . S
C484 H475 0.930 . S
C484 C482 1.384 . S
C484 C485 1.372 . S
C485 C484 1.372 . S
C485 C486 1.400 . S
C485 C490 1.490 . S
C486 H476 0.930 . S
C486 C485 1.400 . S
C486 C489 1.386 . S
H487 C503 0.930 . S
H488 C504 0.931 . S
C489 H477 0.929 . S
C489 C483 1.390 . S
C489 C486 1.386 . S
C490 C485 1.490 . S
C490 C492 1.395 . S
C490 C493 1.403 . S
H491 C497 0.930 . S
C492 H478 0.930 . S
C492 C490 1.395 . S
C492 C495 1.403 . S
C493 C490 1.403 . S
C493 C494 1.524 . S
C493 C497 1.400 . S
C494 H479 0.960 . S
C494 H480 0.960 . S
C494 H481 0.960 . S
C494 C493 1.524 . S
C495 C492 1.403 . S
C495 C496 1.392 . S
C495 C499 1.495 . S
C496 C495 1.392 . S
C496 C497 1.385 . S
C496 C498 1.478 . S
C497 H491 0.930 . S
C497 C493 1.400 . S
C497 C496 1.385 . S
C498 C496 1.478 . S
C498 C500 1.381 . S
C498 C504 1.383 . S
C499 C495 1.495 . S
C499 H505 0.959 . S
C499 H506 0.961 . S
C499 H507 0.960 . S
C500 C498 1.381 . S
C500 C501 1.394 . S
C500 H508 0.930 . S
C501 C500 1.394 . S
C501 C502 1.383 . S
C501 H509 0.929 . S
C502 C501 1.383 . S
C502 C503 1.377 . S
C503 H487 0.930 . S
C503 C502 1.377 . S
C503 C504 1.379 . S
C504 H488 0.931 . S
C504 C498 1.383 . S
C504 C503 1.379 . S
H505 C499 0.959 . S
H506 C499 0.961 . S
H507 C499 0.960 . S
H508 C500 0.930 . S
H509 C501 0.929 . S
C87 C5 1.392 . S
C106 C65 1.383 . S
C123 C0 1.391 . S
C142 C18 1.378 . S
C159 C31 1.387 . S
C178 C13 1.404 . S
C195 C44 1.384 . S
C214 C26 1.389 . S
C231 C57 1.392 . S
C250 C39 1.362 . S
C267 C70 1.388 . S
C286 C52 1.402 . S
C303 C10 1.528 . S
C322 C60 1.522 . S
C339 C73 1.515 . S
C358 C23 1.537 . S
C375 C36 1.531 . S
C394 C8 1.491 . S
C411 C21 1.514 . S
C430 C49 1.538 . S
C447 C34 1.515 . S
C466 C62 1.518 . S
C483 C75 1.529 . S
C502 C47 1.527 . S
