# Generated by pormake.
# Topology uoz, (4)-cn, num edge types: 1
# Building blocks:
#     Node 0, Type 0, BuildingBlock: QUQFOY_clean_sbu_3, # of connection points: 4
#     Node 1, Type 0, BuildingBlock: QUQFOY_clean_sbu_3, # of connection points: 4
#     Node 2, Type 0, BuildingBlock: QUQFOY_clean_sbu_3, # of connection points: 4
#     Node 3, Type 0, BuildingBlock: QUQFOY_clean_sbu_3, # of connection points: 4
#     Node 4, Type 0, BuildingBlock: QUQFOY_clean_sbu_3, # of connection points: 4
#     Node 5, Type 0, BuildingBlock: QUQFOY_clean_sbu_3, # of connection points: 4
#     Node 6, Type 0, BuildingBlock: QUQFOY_clean_sbu_3, # of connection points: 4
#     Node 7, Type 0, BuildingBlock: QUQFOY_clean_sbu_3, # of connection points: 4
#     Node 8, Type 0, BuildingBlock: QUQFOY_clean_sbu_3, # of connection points: 4
#     Node 9, Type 0, BuildingBlock: QUQFOY_clean_sbu_3, # of connection points: 4
#     Node 10, Type 0, BuildingBlock: QUQFOY_clean_sbu_3, # of connection points: 4
#     Node 11, Type 0, BuildingBlock: QUQFOY_clean_sbu_3, # of connection points: 4
#     Node 12, Type 0, BuildingBlock: QUQFOY_clean_sbu_3, # of connection points: 4
#     Node 13, Type 0, BuildingBlock: QUQFOY_clean_sbu_3, # of connection points: 4
#     Node 14, Type 0, BuildingBlock: QUQFOY_clean_sbu_3, # of connection points: 4
#     Node 15, Type 0, BuildingBlock: QUQFOY_clean_sbu_3, # of connection points: 4
#     Edge 16, Type (0, 0), BuildingBlock: XUDNAN_clean_linker_2, # of connection points: 2
#     Edge 17, Type (0, 0), BuildingBlock: XUDNAN_clean_linker_2, # of connection points: 2
#     Edge 18, Type (0, 0), BuildingBlock: XUDNAN_clean_linker_2, # of connection points: 2
#     Edge 19, Type (0, 0), BuildingBlock: XUDNAN_clean_linker_2, # of connection points: 2
#     Edge 20, Type (0, 0), BuildingBlock: XUDNAN_clean_linker_2, # of connection points: 2
#     Edge 21, Type (0, 0), BuildingBlock: XUDNAN_clean_linker_2, # of connection points: 2
#     Edge 22, Type (0, 0), BuildingBlock: XUDNAN_clean_linker_2, # of connection points: 2
#     Edge 23, Type (0, 0), BuildingBlock: XUDNAN_clean_linker_2, # of connection points: 2
#     Edge 24, Type (0, 0), BuildingBlock: XUDNAN_clean_linker_2, # of connection points: 2
#     Edge 25, Type (0, 0), BuildingBlock: XUDNAN_clean_linker_2, # of connection points: 2
#     Edge 26, Type (0, 0), BuildingBlock: XUDNAN_clean_linker_2, # of connection points: 2
#     Edge 27, Type (0, 0), BuildingBlock: XUDNAN_clean_linker_2, # of connection points: 2
#     Edge 28, Type (0, 0), BuildingBlock: XUDNAN_clean_linker_2, # of connection points: 2
#     Edge 29, Type (0, 0), BuildingBlock: XUDNAN_clean_linker_2, # of connection points: 2
#     Edge 30, Type (0, 0), BuildingBlock: XUDNAN_clean_linker_2, # of connection points: 2
#     Edge 31, Type (0, 0), BuildingBlock: XUDNAN_clean_linker_2, # of connection points: 2
#     Edge 32, Type (0, 0), BuildingBlock: XUDNAN_clean_linker_2, # of connection points: 2
#     Edge 33, Type (0, 0), BuildingBlock: XUDNAN_clean_linker_2, # of connection points: 2
#     Edge 34, Type (0, 0), BuildingBlock: XUDNAN_clean_linker_2, # of connection points: 2
#     Edge 35, Type (0, 0), BuildingBlock: XUDNAN_clean_linker_2, # of connection points: 2
#     Edge 36, Type (0, 0), BuildingBlock: XUDNAN_clean_linker_2, # of connection points: 2
#     Edge 37, Type (0, 0), BuildingBlock: XUDNAN_clean_linker_2, # of connection points: 2
#     Edge 38, Type (0, 0), BuildingBlock: XUDNAN_clean_linker_2, # of connection points: 2
#     Edge 39, Type (0, 0), BuildingBlock: XUDNAN_clean_linker_2, # of connection points: 2
#     Edge 40, Type (0, 0), BuildingBlock: XUDNAN_clean_linker_2, # of connection points: 2
#     Edge 41, Type (0, 0), BuildingBlock: XUDNAN_clean_linker_2, # of connection points: 2
#     Edge 42, Type (0, 0), BuildingBlock: XUDNAN_clean_linker_2, # of connection points: 2
#     Edge 43, Type (0, 0), BuildingBlock: XUDNAN_clean_linker_2, # of connection points: 2
#     Edge 44, Type (0, 0), BuildingBlock: XUDNAN_clean_linker_2, # of connection points: 2
#     Edge 45, Type (0, 0), BuildingBlock: XUDNAN_clean_linker_2, # of connection points: 2
#     Edge 46, Type (0, 0), BuildingBlock: XUDNAN_clean_linker_2, # of connection points: 2
#     Edge 47, Type (0, 0), BuildingBlock: XUDNAN_clean_linker_2, # of connection points: 2
# Relax obj value: 0.179
# Max RMSD: 0.165
# Mean RMSD: 0.165
data_MOF--net-uoz--node1-QUQFOY_clean_sbu_3--edge1-XUDNAN_clean_linker_2
_symmetry_space_group_name_H-M    P1
_symmetry_Int_Tables_number       1
_symmetry_cell_setting            triclinic
loop_
_symmetry_equiv_pos_as_xyz
'x, y, z'
_cell_length_a     62.291096
_cell_length_b     61.962696
_cell_length_c     22.186137
_cell_angle_alpha  89.992117
_cell_angle_beta   89.925744
_cell_angle_gamma 89.955975
loop_
_atom_site_label
_atom_site_type_symbol
_atom_site_fract_x
_atom_site_fract_y
_atom_site_fract_z
_atom_type_partial_charge
C0 C 0.97383 0.60826 0.18212 0.0
O1 O 0.98465 0.59975 0.13992 0.0
Cd2 Cd 0.01288 0.57494 0.14876 0.0
O3 O 0.97685 0.60279 0.23712 0.0
Cd4 Cd 0.00177 0.5763 0.2894 0.0
C5 C 0.0437 0.60575 0.2471 0.0
O6 O 0.00156 0.5484 0.21683 0.0
O7 O 0.0309 0.54986 0.26759 0.0
O8 O 0.97362 0.55633 0.33847 0.0
C9 C 0.01897 0.53945 0.23169 0.0
O10 O 0.0399 0.59702 0.19628 0.0
C11 C 0.98277 0.5547 0.38926 0.0
O12 O 0.03162 0.60222 0.29258 0.0
O13 O -0.00046 0.56608 0.39731 0.0
C14 C 0.65026 0.70211 0.46028 0.0
O15 O 0.66297 0.70754 0.41829 0.0
Cd16 Cd 0.68607 0.737 0.4208 0.0
O17 O 0.6497 0.71263 0.50998 0.0
Cd18 Cd 0.67176 0.74382 0.55129 0.0
C19 C 0.64881 0.77691 0.45404 0.0
O20 O 0.7039 0.72979 0.51346 0.0
O21 O 0.70286 0.76411 0.50713 0.0
O22 O 0.67611 0.7245 0.64463 0.0
C23 C 0.71358 0.7469 0.49961 0.0
O24 O 0.66182 0.76792 0.41752 0.0
C25 C 0.68231 0.74071 0.67486 0.0
O26 O 0.64774 0.77082 0.50887 0.0
O27 O 0.67953 0.75912 0.65079 0.0
C28 C 0.53065 0.39077 0.6976 0.0
O29 O 0.51983 0.39847 0.6543 0.0
Cd30 Cd 0.48697 0.4161 0.66242 0.0
O31 O 0.52445 0.39291 0.75244 0.0
Cd32 Cd 0.49374 0.41361 0.80235 0.0
C33 C 0.45792 0.3792 0.7484 0.0
O34 O 0.49615 0.44217 0.73482 0.0
O35 O 0.46396 0.43824 0.76544 0.0
O36 O 0.51733 0.43172 0.87454 0.0
C37 C 0.47734 0.44949 0.73607 0.0
O38 O 0.46148 0.38918 0.69918 0.0
C39 C 0.50293 0.43405 0.91444 0.0
O40 O 0.46851 0.38372 0.79585 0.0
O41 O 0.48548 0.42395 0.90584 0.0
C42 C 0.85015 0.27925 0.94681 0.0
O43 O 0.83645 0.27347 0.9078 0.0
Cd44 Cd 0.80893 0.24767 0.9154 0.0
O45 O 0.84996 0.27131 7e-05 0.0
Cd46 Cd 0.82681 0.24228 0.04684 0.0
C47 C 0.84488 0.20743 0.94107 0.0
O48 O 0.79293 0.25374 0.0109 0.0
O49 O 0.79476 0.21973 0.02697 0.0
O50 O 0.82082 0.2585 0.14528 0.0
C51 C 0.7831 0.23607 0.0165 0.0
O52 O 0.83016 0.21472 0.90689 0.0
C53 C 0.82261 0.24081 0.17383 0.0
O54 O 0.84801 0.21546 0.99325 0.0
O55 O 0.83021 0.22488 0.14461 0.0
C56 C 0.96467 0.38518 0.878 0.0
O57 O 0.97191 0.39041 0.92943 0.0
Cd58 Cd 0.00175 0.41259 0.95041 0.0
O59 O 0.9729 0.3928 0.82958 0.0
Cd60 Cd 0.00193 0.41892 0.79916 0.0
C61 C 0.03986 0.3865 0.86014 0.0
O62 O -0.00244 0.44116 0.88309 0.0
O63 O 0.02785 0.44608 0.83865 0.0
O64 O 0.98094 0.44388 0.73962 0.0
C65 C 0.0151 0.45132 0.88084 0.0
O66 O 0.03194 0.39207 0.91086 0.0
C67 C 0.99018 0.44014 0.68982 0.0
O68 O 0.03167 0.39305 0.8106 0.0
O69 O 0.00443 0.42542 0.68919 0.0
C70 C 0.85454 0.70931 0.12079 0.0
O71 O 0.84353 0.709 0.16897 0.0
Cd72 Cd 0.81469 0.73182 0.1926 0.0
O73 O 0.84967 0.72195 0.07719 0.0
Cd74 Cd 0.82061 0.74899 0.05209 0.0
C75 C 0.84179 0.77987 0.1616 0.0
O76 O 0.79451 0.72949 0.10379 0.0
O77 O 0.78557 0.76246 0.09171 0.0
O78 O 0.81638 0.7307 0.95749 0.0
C79 C 0.78046 0.74388 0.11079 0.0
O80 O 0.83307 0.76659 0.19804 0.0
C81 C 0.80907 0.74689 0.92906 0.0
O82 O 0.84062 0.77715 0.1046 0.0
O83 O 0.81047 0.76511 0.95519 0.0
C84 C 0.5305 0.60297 0.39489 0.0
O85 O 0.52097 0.59919 0.44433 0.0
Cd86 Cd 0.48968 0.578 0.45561 0.0
O87 O 0.52328 0.59569 0.34498 0.0
Cd88 Cd 0.49186 0.57392 0.30978 0.0
C89 C 0.45537 0.60829 0.36773 0.0
O90 O 0.49436 0.54883 0.38822 0.0
O91 O 0.4637 0.54787 0.34376 0.0
O92 O 0.51311 0.55139 0.24253 0.0
C93 C 0.47652 0.5395 0.38144 0.0
O94 O 0.46105 0.60088 0.41881 0.0
C95 C 0.50177 0.55484 0.19613 0.0
O96 O 0.46485 0.60242 0.31943 0.0
O97 O 0.48665 0.56851 0.20137 0.0
C98 C 0.63736 0.28023 0.60905 0.0
O99 O 0.64084 0.27253 0.66107 0.0
Cd100 Cd 0.66623 0.2474 0.69224 0.0
O101 O 0.6479 0.27359 0.56298 0.0
Cd102 Cd 0.67532 0.24333 0.5564 0.0
C103 C 0.64165 0.20702 0.61741 0.0
O104 O 0.69626 0.25869 0.63416 0.0
O105 O 0.69772 0.22417 0.63239 0.0
O106 O 0.69734 0.25712 0.4724 0.0
C107 C 0.70398 0.24165 0.65631 0.0
O108 O 0.64894 0.21361 0.66766 0.0
C109 C 0.70136 0.23851 0.45107 0.0
O110 O 0.64698 0.21634 0.56842 0.0
O111 O 0.69145 0.22276 0.47475 0.0
C112 C 0.35553 0.19821 0.59882 0.0
O113 O 0.34597 0.19688 0.64919 0.0
Cd114 Cd 0.32137 0.22061 0.69283 0.0
O115 O 0.35102 0.21306 0.56064 0.0
Cd116 Cd 0.32239 0.24227 0.55565 0.0
C117 C 0.34973 0.26815 0.66547 0.0
O118 O 0.29669 0.22399 0.61472 0.0
O119 O 0.29196 0.25807 0.61304 0.0
O120 O 0.30728 0.23185 0.45918 0.0
C121 C 0.28571 0.23987 0.63225 0.0
O122 O 0.34182 0.25414 0.70127 0.0
C123 C 0.30474 0.25107 0.44046 0.0
O124 O 0.34623 0.26725 0.6088 0.0
O125 O 0.31336 0.26596 0.4715 0.0
C126 C 0.15491 0.78526 0.15775 0.0
O127 O 0.16843 0.77993 0.19783 0.0
Cd128 Cd 0.19385 0.75194 0.20111 0.0
O129 O 0.15435 0.77556 0.10676 0.0
Cd130 Cd 0.1759 0.74489 0.06101 0.0
C131 C 0.15655 0.71202 0.17088 0.0
O132 O 0.20934 0.75232 0.10507 0.0
O133 O 0.20607 0.7195 0.07735 0.0
O134 O 0.18475 0.76235 0.96704 0.0
C135 C 0.21773 0.73379 0.10154 0.0
O136 O 0.1701 0.72074 0.20637 0.0
C137 C 0.18209 0.74548 0.93538 0.0
O138 O 0.15442 0.71846 0.11646 0.0
O139 O 0.17246 0.72975 0.96053 0.0
C140 C 0.14892 0.20948 0.95833 0.0
O141 O 0.16255 0.21514 0.91887 0.0
Cd142 Cd 0.18941 0.24137 0.92527 0.0
O143 O 0.14876 0.21824 0.01066 0.0
Cd144 Cd 0.17214 0.24822 0.05322 0.0
C145 C 0.15447 0.28313 0.94936 0.0
O146 O 0.20512 0.23374 0.02071 0.0
O147 O 0.20445 0.26817 0.01746 0.0
O148 O 0.17882 0.23364 0.15307 0.0
C149 C 0.2154 0.251 0.01264 0.0
O150 O 0.16858 0.27453 0.91545 0.0
C151 C 0.1795 0.25197 0.17862 0.0
O152 O 0.15111 0.2759 0.00233 0.0
O153 O 0.17264 0.26792 0.14822 0.0
C154 C 0.34469 0.78361 0.46388 0.0
O155 O 0.33173 0.78001 0.42099 0.0
Cd156 Cd 0.30498 0.75401 0.40751 0.0
O157 O 0.34328 0.77346 0.51402 0.0
Cd158 Cd 0.31803 0.74412 0.55145 0.0
C159 C 0.34032 0.71264 0.44332 0.0
O160 O 0.28641 0.75259 0.4984 0.0
O161 O 0.28885 0.7193 0.52284 0.0
O162 O 0.30602 0.76052 0.64436 0.0
C163 C 0.27822 0.73392 0.49643 0.0
O164 O 0.32814 0.72238 0.40596 0.0
C165 C 0.30705 0.74308 0.67441 0.0
O166 O 0.34083 0.71795 0.49902 0.0
O167 O 0.31711 0.72741 0.65025 0.0
C168 C 0.46091 0.09223 0.71737 0.0
O169 O 0.46039 0.0757 0.68376 0.0
Cd170 Cd 0.49457 0.0594 0.66727 0.0
O171 O 0.47563 0.09442 0.75677 0.0
Cd172 Cd 0.50347 0.0707 0.80393 0.0
C173 C 0.52825 0.10271 0.71036 0.0
O174 O 0.50514 0.03781 0.74814 0.0
O175 O 0.53567 0.05104 0.77631 0.0
O176 O 0.47798 0.05693 0.87627 0.0
C177 C 0.52546 0.03607 0.75008 0.0
O178 O 0.51924 0.09014 0.67245 0.0
C179 C 0.49108 0.05647 0.92006 0.0
O180 O 0.52538 0.1004 0.76709 0.0
O181 O 0.50949 0.06498 0.91184 0.0
C182 C 0.03377 0.88521 0.21045 0.0
O183 O 0.02499 0.88856 0.15966 0.0
Cd184 Cd -0.00703 0.90878 0.14245 0.0
O185 O 0.02583 0.89317 0.25872 0.0
Cd186 Cd -0.00461 0.91616 0.29392 0.0
C187 C 0.9577 0.88196 0.23858 0.0
O188 O -0.00506 0.93847 0.20777 0.0
O189 O 0.96761 0.94286 0.26648 0.0
O190 O 0.01556 0.94182 0.3536 0.0
C191 C 0.97727 0.94789 0.21814 0.0
O192 O 0.96437 0.88759 0.18656 0.0
C193 C 0.00835 0.93576 0.40429 0.0
O194 O 0.96678 0.88879 0.28657 0.0
O195 O -0.00444 0.91976 0.4046 0.0
C196 C 0.46267 0.8867 0.40845 0.0
O197 O 0.47004 0.89195 0.45969 0.0
Cd198 Cd 0.5017 0.91237 0.47541 0.0
O199 O 0.47105 0.89396 0.35981 0.0
Cd200 Cd 0.4997 0.91949 0.32455 0.0
C201 C 0.53592 0.88391 0.37886 0.0
O202 O 0.49873 0.94207 0.4106 0.0
O203 O 0.52626 0.94728 0.35372 0.0
O204 O 0.47381 0.93859 0.26216 0.0
C205 C 0.51605 0.95217 0.40116 0.0
O206 O 0.52941 0.88996 0.43068 0.0
C207 C 0.48599 0.94014 0.21642 0.0
O208 O 0.52735 0.89119 0.33063 0.0
O209 O 0.5039 0.93029 0.21895 0.0
C210 C 0.03623 0.10077 0.90086 0.0
O211 O 0.02786 0.09659 0.95168 0.0
Cd212 Cd -0.00625 0.07981 0.96172 0.0
O213 O 0.02767 0.09379 0.85238 0.0
Cd214 Cd -0.0027 0.07017 0.82038 0.0
C215 C 0.96392 0.10957 0.85712 0.0
O216 O -0.00758 0.04736 0.90646 0.0
O217 O 0.96409 0.05227 0.85116 0.0
O218 O 0.01943 0.04172 0.78064 0.0
C219 C 0.97323 0.04227 0.89381 0.0
O220 O 0.96931 0.10405 0.91033 0.0
C221 C 0.01209 0.04203 0.72743 0.0
O222 O 0.97225 0.10052 0.81098 0.0
O223 O -0.00137 0.05686 0.71482 0.0
H224 H 0.12811 0.68721 0.10758 0.0
H225 H 0.15278 0.69818 0.28797 0.0
H226 H 0.12717 0.67142 0.32833 0.0
H227 H 0.07375 0.68238 0.14792 0.0
H228 H 0.06795 0.66146 0.09393 0.0
H229 H 0.08905 0.68055 0.07907 0.0
H230 H 0.11626 0.64921 0.06537 0.0
H231 H 0.09518 0.62999 0.07967 0.0
H232 H 0.1193 0.62946 0.12444 0.0
H233 H 0.09657 0.64516 0.34966 0.0
H234 H 0.06562 0.61989 0.34795 0.0
H235 H 0.06261 0.62623 0.15329 0.0
C236 C 0.1283 0.68388 0.1555 0.0
C237 C 0.14238 0.69488 0.19455 0.0
C238 C 0.14212 0.68997 0.25705 0.0
C239 C 0.12762 0.67481 0.28049 0.0
C240 C 0.11365 0.66458 0.24078 0.0
C241 C 0.11409 0.66876 0.17953 0.0
C242 C 0.09725 0.65596 0.14638 0.0
C243 C 0.08105 0.67099 0.115 0.0
C244 C 0.10762 0.64022 0.10132 0.0
C245 C 0.08707 0.64413 0.19856 0.0
C246 C 0.0966 0.64927 0.2528 0.0
C247 C 0.08913 0.64083 0.30732 0.0
C248 C 0.07152 0.62661 0.30603 0.0
C249 C 0.06187 0.62096 0.25053 0.0
C250 C 0.06983 0.62994 0.19645 0.0
H251 H 0.55525 0.86383 0.47373 0.0
H252 H 0.55702 0.86834 0.27838 0.0
H253 H 0.58716 0.84225 0.27646 0.0
H254 H 0.61221 0.85992 0.49693 0.0
H255 H 0.60962 0.8411 0.55847 0.0
H256 H 0.58862 0.86042 0.54408 0.0
H257 H 0.56087 0.82937 0.53627 0.0
H258 H 0.58175 0.80997 0.55081 0.0
H259 H 0.56555 0.80762 0.48389 0.0
H260 H 0.61705 0.81555 0.29683 0.0
H261 H 0.64313 0.78923 0.33661 0.0
H262 H 0.62091 0.8023 0.51866 0.0
C263 C 0.56193 0.85946 0.43034 0.0
C264 C 0.55378 0.86819 0.37612 0.0
C265 C 0.563 0.86186 0.32047 0.0
C266 C 0.58014 0.84712 0.31898 0.0
C267 C 0.58778 0.83891 0.37348 0.0
C268 C 0.5789 0.84483 0.42805 0.0
C269 C 0.58961 0.83344 0.48026 0.0
C270 C 0.60067 0.84969 0.52241 0.0
C271 C 0.57348 0.81926 0.51481 0.0
C272 C 0.60585 0.81992 0.44661 0.0
C273 C 0.60469 0.82344 0.38513 0.0
C274 C 0.61809 0.81269 0.34487 0.0
C275 C 0.63288 0.7978 0.36802 0.0
C276 C 0.63405 0.79367 0.43087 0.0
C277 C 0.62042 0.80506 0.47048 0.0
H278 H 0.43582 0.36291 0.65233 0.0
H279 H 0.44219 0.35715 0.84661 0.0
H280 H 0.41391 0.32913 0.84703 0.0
H281 H 0.3785 0.35579 0.64519 0.0
H282 H 0.37956 0.34037 0.57636 0.0
H283 H 0.39985 0.36032 0.59173 0.0
H284 H 0.42955 0.33136 0.57854 0.0
H285 H 0.40938 0.31136 0.56282 0.0
H286 H 0.42841 0.30697 0.62273 0.0
H287 H 0.38531 0.30147 0.8256 0.0
H288 H 0.35965 0.27514 0.78411 0.0
H289 H 0.37245 0.29909 0.60354 0.0
C290 C 0.43126 0.35587 0.69514 0.0
C291 C 0.44119 0.36228 0.74953 0.0
C292 C 0.43481 0.35249 0.8044 0.0
C293 C 0.41873 0.33663 0.80509 0.0
C294 C 0.40926 0.33077 0.75058 0.0
C295 C 0.41536 0.34004 0.69662 0.0
C296 C 0.40317 0.3305 0.64403 0.0
C297 C 0.38945 0.34777 0.61249 0.0
C298 C 0.41855 0.31939 0.59942 0.0
C299 C 0.38931 0.31426 0.67673 0.0
C300 C 0.39296 0.31476 0.73817 0.0
C301 C 0.3823 0.30096 0.77758 0.0
C302 C 0.36775 0.28605 0.75347 0.0
C303 C 0.36403 0.28499 0.69044 0.0
C304 C 0.37484 0.29951 0.65187 0.0
H305 H 0.88199 0.19347 0.99334 0.0
H306 H 0.84243 0.18511 0.83405 0.0
H307 H 0.86993 0.16086 0.79044 0.0
H308 H 0.93229 0.19502 0.91636 0.0
H309 H 0.94642 0.18062 0.97473 0.0
H310 H 0.92344 0.19696 0.99358 0.0
H311 H 0.90497 0.16403 0.04398 0.0
H312 H 0.92808 0.14775 0.02646 0.0
H313 H 0.90182 0.1394 0.00167 0.0
H314 H 0.90253 0.13748 0.76441 0.0
H315 H 0.93538 0.11476 0.76332 0.0
H316 H 0.95287 0.13998 0.9389 0.0
C317 C 0.87892 0.1864 0.94954 0.0
C318 C 0.86004 0.19116 0.91721 0.0
C319 C 0.8568 0.18166 0.85976 0.0
C320 C 0.87237 0.16798 0.83445 0.0
C321 C 0.89109 0.16409 0.86705 0.0
C322 C 0.89428 0.17293 0.92356 0.0
C323 C 0.91557 0.16624 0.94989 0.0
C324 C 0.93029 0.18588 0.95916 0.0
C325 C 0.91241 0.1536 0.00896 0.0
C326 C 0.92377 0.15191 0.89991 0.0
C327 C 0.90963 0.15097 0.85208 0.0
C328 C 0.91375 0.13817 0.80155 0.0
C329 C 0.93249 0.12547 0.80105 0.0
C330 C 0.9466 0.12564 0.85103 0.0
C331 C 0.94237 0.1395 0.90004 0.0
H332 H 0.05844 0.36725 0.95758 0.0
H333 H 0.06421 0.37308 0.76313 0.0
H334 H 0.09593 0.34897 0.76547 0.0
H335 H 0.1153 0.36604 0.99093 0.0
H336 H 0.11217 0.34663 0.05081 0.0
H337 H 0.09071 0.36516 0.0338 0.0
H338 H 0.06454 0.33305 0.01934 0.0
H339 H 0.08586 0.31445 0.03657 0.0
H340 H 0.07132 0.31193 0.96674 0.0
H341 H 0.12659 0.32351 0.78974 0.0
H342 H 0.15214 0.29718 0.83238 0.0
H343 H 0.12531 0.30802 0.0106 0.0
C344 C 0.06639 0.36364 0.91532 0.0
C345 C 0.05886 0.37214 0.86011 0.0
C346 C 0.06969 0.36678 0.80596 0.0
C347 C 0.08776 0.35318 0.8069 0.0
C348 C 0.09472 0.34514 0.8623 0.0
C349 C 0.08428 0.35013 0.91543 0.0
C350 C 0.09428 0.33877 0.9688 0.0
C351 C 0.10367 0.35513 0.01372 0.0
C352 C 0.07803 0.32365 -0.00036 0.0
C353 C 0.11181 0.32623 0.93737 0.0
C354 C 0.11202 0.33032 0.87609 0.0
C355 C 0.12661 0.32026 0.83767 0.0
C356 C 0.14109 0.30536 0.86241 0.0
C357 C 0.14071 0.3005 0.9249 0.0
C358 C 0.12604 0.31136 0.96273 0.0
H359 H 0.93291 0.86845 0.14487 0.0
H360 H 0.93944 0.86321 0.33922 0.0
H361 H 0.90781 0.839 0.34188 0.0
H362 H 0.87433 0.86776 0.14064 0.0
H363 H 0.87373 0.85221 0.07201 0.0
H364 H 0.89576 0.87033 0.08641 0.0
H365 H 0.92276 0.83884 0.07244 0.0
H366 H 0.90088 0.8207 0.05766 0.0
H367 H 0.9197 0.8147 0.11701 0.0
H368 H 0.87676 0.81374 0.32163 0.0
H369 H 0.85022 0.78822 0.28061 0.0
H370 H 0.86463 0.81048 0.09937 0.0
C371 C 0.9277 0.86239 0.18826 0.0
C372 C 0.9387 0.86771 0.24191 0.0
C373 C 0.93125 0.85936 0.29756 0.0
C374 C 0.91327 0.8457 0.2995 0.0
C375 C 0.90288 0.84077 0.24551 0.0
C376 C 0.90986 0.8489 0.191 0.0
C377 C 0.89671 0.8404 0.13894 0.0
C378 C 0.8844 0.85877 0.10767 0.0
C379 C 0.91086 0.82791 0.0939 0.0
C380 C 0.88161 0.82557 0.17235 0.0
C381 C 0.88516 0.82625 0.23386 0.0
C382 C 0.87373 0.81322 0.27363 0.0
C383 C 0.85867 0.79877 0.24977 0.0
C384 C 0.85534 0.7973 0.18662 0.0
C385 C 0.86667 0.81127 0.14778 0.0
H386 H 0.3674 0.68655 0.50823 0.0
H387 H 0.34702 0.70126 0.32555 0.0
H388 H 0.37378 0.67563 0.28587 0.0
H389 H 0.42273 0.68276 0.4778 0.0
H390 H 0.42746 0.66057 0.52865 0.0
H391 H 0.40584 0.67916 0.54308 0.0
H392 H 0.37873 0.64743 0.54559 0.0
H393 H 0.40031 0.62871 0.53169 0.0
H394 H 0.37732 0.62917 0.48245 0.0
H395 H 0.40437 0.65004 0.26569 0.0
H396 H 0.43513 0.62475 0.26751 0.0
H397 H 0.43475 0.62676 0.46325 0.0
C398 C 0.36838 0.68424 0.45993 0.0
C399 C 0.35513 0.69596 0.42012 0.0
C400 C 0.35696 0.69244 0.35711 0.0
C401 C 0.37214 0.67794 0.33401 0.0
C402 C 0.38522 0.66696 0.37448 0.0
C403 C 0.38334 0.66976 0.4361 0.0
C404 C 0.39956 0.65626 0.46986 0.0
C405 C 0.4148 0.67055 0.50701 0.0
C406 C 0.3883 0.63939 0.50974 0.0
C407 C 0.41109 0.64575 0.41755 0.0
C408 C 0.40261 0.65207 0.36287 0.0
C409 C 0.41106 0.64481 0.30826 0.0
C410 C 0.42855 0.63054 0.30972 0.0
C411 C 0.43731 0.62372 0.36545 0.0
C412 C 0.42839 0.63153 0.41983 0.0
H413 H 0.62842 0.18259 0.71326 0.0
H414 H 0.61694 0.19338 0.52249 0.0
H415 H 0.58623 0.16824 0.52653 0.0
H416 H 0.61426 0.12539 0.71387 0.0
H417 H 0.60199 0.12693 0.78737 0.0
H418 H 0.62377 0.14478 0.76819 0.0
H419 H 0.59988 0.17763 0.79562 0.0
H420 H 0.57791 0.15991 0.81384 0.0
H421 H 0.57431 0.18101 0.75881 0.0
H422 H 0.55588 0.1436 0.55237 0.0
H423 H 0.52939 0.11861 0.59606 0.0
H424 H 0.56045 0.12412 0.77054 0.0
C425 C 0.61965 0.17949 0.67205 0.0
C426 C 0.62509 0.18998 0.6175 0.0
C427 C 0.61316 0.18546 0.56469 0.0
C428 C 0.59563 0.1713 0.56662 0.0
C429 C 0.59036 0.16175 0.62156 0.0
C430 C 0.60217 0.16542 0.67313 0.0
C431 C 0.59302 0.1533 0.72658 0.0
C432 C 0.60922 0.13661 0.75039 0.0
C433 C 0.58586 0.1689 0.77665 0.0
C434 C 0.57398 0.14245 0.69716 0.0
C435 C 0.57279 0.14754 0.63656 0.0
C436 C 0.55671 0.1394 0.59965 0.0
C437 C 0.54173 0.12524 0.62499 0.0
C438 C 0.54289 0.1194 0.68672 0.0
C439 C 0.55905 0.12843 0.7234 0.0
H440 H 0.9399 0.37084 0.97176 0.0
H441 H 0.94955 0.36354 0.77883 0.0
H442 H 0.92137 0.3355 0.7767 0.0
H443 H 0.93162 0.31553 0.0061 0.0
H444 H 0.91106 0.32044 0.06171 0.0
H445 H 0.93145 0.34044 0.04809 0.0
H446 H 0.90215 0.36906 0.02605 0.0
H447 H 0.88164 0.34918 0.04007 0.0
H448 H 0.88211 0.36361 0.96953 0.0
H449 H 0.89293 0.30824 0.79554 0.0
H450 H 0.86506 0.2836 0.83294 0.0
H451 H 0.8741 0.30797 0.0147 0.0
C452 C 0.93607 0.36344 0.9289 0.0
C453 C 0.94695 0.36938 0.87534 0.0
C454 C 0.94136 0.35934 0.82028 0.0
C455 C 0.92544 0.34336 0.8187 0.0
C456 C 0.91526 0.33775 0.87247 0.0
C457 C 0.92022 0.34755 0.92649 0.0
C458 C 0.90684 0.33855 0.97781 0.0
C459 C 0.9211 0.32811 0.02627 0.0
C460 C 0.89232 0.35615 0.00495 0.0
C461 C 0.8938 0.32182 0.94432 0.0
C462 C 0.89885 0.32181 0.88355 0.0
C463 C 0.88878 0.30814 0.84292 0.0
C464 C 0.87292 0.29426 0.86471 0.0
C465 C 0.86735 0.29397 0.92674 0.0
C466 C 0.87811 0.30779 0.96719 0.0
H467 H 0.41754 0.09366 0.69843 0.0
H468 H 0.47534 0.13251 0.69429 0.0
H469 H 0.45509 0.16251 0.6475 0.0
H470 H 0.39355 0.11158 0.56156 0.0
H471 H 0.36664 0.11283 0.59132 0.0
H472 H 0.38568 0.09399 0.62245 0.0
H473 H 0.37997 0.10992 0.72941 0.0
H474 H 0.36037 0.12823 0.69884 0.0
H475 H 0.38288 0.13857 0.74081 0.0
H476 H 0.42872 0.18775 0.59782 0.0
H477 H 0.39664 0.20956 0.57234 0.0
H478 H 0.35587 0.15508 0.61522 0.0
C479 C 0.42578 0.1086 0.6882 0.0
C480 C 0.44788 0.11094 0.69982 0.0
C481 C 0.45829 0.13065 0.68626 0.0
C482 C 0.44702 0.14761 0.65892 0.0
C483 C 0.42531 0.14465 0.64645 0.0
C484 C 0.41464 0.12591 0.66249 0.0
C485 C 0.39089 0.12759 0.6494 0.0
C486 C 0.38379 0.11048 0.60343 0.0
C487 C 0.37776 0.126 0.70809 0.0
C488 C 0.38991 0.15006 0.62273 0.0
C489 C 0.40998 0.15949 0.62021 0.0
C490 C 0.41292 0.18053 0.5993 0.0
C491 C 0.39469 0.19269 0.58397 0.0
C492 C 0.37396 0.18378 0.59077 0.0
C493 C 0.37165 0.162 0.60819 0.0
H494 H 0.54165 0.6342 0.47566 0.0
H495 H 0.56451 0.5998 0.3177 0.0
H496 H 0.59896 0.61947 0.32374 0.0
H497 H 0.56456 0.68503 0.4345 0.0
H498 H 0.57089 0.69269 0.51081 0.0
H499 H 0.54863 0.67494 0.49627 0.0
H500 H 0.56502 0.64661 0.56884 0.0
H501 H 0.58745 0.66421 0.58316 0.0
H502 H 0.59203 0.63714 0.5563 0.0
H503 H 0.6303 0.64265 0.3461 0.0
H504 H 0.65574 0.67093 0.37586 0.0
H505 H 0.61223 0.6917 0.51771 0.0
C506 C 0.55398 0.63075 0.44255 0.0
C507 C 0.55058 0.61544 0.39634 0.0
C508 C 0.56684 0.61156 0.35319 0.0
C509 C 0.58647 0.6225 0.35662 0.0
C510 C 0.58937 0.63738 0.40302 0.0
C511 C 0.5735 0.64178 0.44471 0.0
C512 C 0.58021 0.65961 0.48751 0.0
C513 C 0.56518 0.67923 0.48191 0.0
C514 C 0.58124 0.65139 0.55282 0.0
C515 C 0.60239 0.66458 0.46324 0.0
C516 C 0.60737 0.65134 0.41498 0.0
C517 C 0.6266 0.65313 0.38373 0.0
C518 C 0.64091 0.6693 0.40103 0.0
C519 C 0.6359 0.68362 0.44894 0.0
C520 C 0.61657 0.68089 0.48131 0.0
H521 H 0.12514 0.806 0.08467 0.0
H522 H 0.14762 0.80142 0.26973 0.0
H523 H 0.11982 0.82686 0.30182 0.0
H524 H 0.11234 0.86383 0.09215 0.0
H525 H 0.08886 0.86136 0.0453 0.0
H526 H 0.11108 0.84306 0.03538 0.0
H527 H 0.0855 0.81055 0.05063 0.0
H528 H 0.06323 0.82874 0.06071 0.0
H529 H 0.06935 0.80904 0.118 0.0
H530 H 0.089 0.85126 0.31623 0.0
H531 H 0.05706 0.87464 0.31074 0.0
H532 H 0.05443 0.86467 0.11693 0.0
C533 C 0.1243 0.81051 0.13176 0.0
C534 C 0.13868 0.80169 0.17442 0.0
C535 C 0.13698 0.808 0.2358 0.0
C536 C 0.12117 0.82245 0.25477 0.0
C537 C 0.10722 0.83072 0.21191 0.0
C538 C 0.10865 0.82521 0.15164 0.0
C539 C 0.09143 0.83659 0.11532 0.0
C540 C 0.10153 0.85213 0.06932 0.0
C541 C 0.07649 0.82025 0.08436 0.0
C542 C 0.07989 0.84882 0.16501 0.0
C543 C 0.08938 0.84524 0.22026 0.0
C544 C 0.08146 0.85438 0.27318 0.0
C545 C 0.0633 0.86762 0.2696 0.0
C546 C 0.05324 0.87157 0.21347 0.0
C547 C 0.06177 0.86205 0.16054 0.0
H548 H 0.93687 0.62059 0.24193 0.0
H549 H 0.9758 0.6342 0.08396 0.0
H550 H 0.94954 0.66132 0.05062 0.0
H551 H 0.88623 0.62483 0.16587 0.0
H552 H 0.87251 0.63727 0.22846 0.0
H553 H 0.89482 0.61941 0.24195 0.0
H554 H 0.91416 0.6494 0.30258 0.0
H555 H 0.89182 0.66727 0.28967 0.0
H556 H 0.91853 0.6754 0.26817 0.0
H557 H 0.91887 0.68642 0.03259 0.0
H558 H 0.88589 0.70867 0.03341 0.0
H559 H 0.8666 0.67828 0.20149 0.0
C560 C 0.93993 0.62947 0.20076 0.0
C561 C 0.95833 0.62528 0.16554 0.0
C562 C 0.9617 0.63703 0.11146 0.0
C563 C 0.94691 0.65251 0.0921 0.0
C564 C 0.92873 0.65599 0.12706 0.0
C565 C 0.92515 0.64487 0.18025 0.0
C566 C 0.90395 0.65138 0.20827 0.0
C567 C 0.88847 0.63207 0.2113 0.0
C568 C 0.90733 0.66147 0.27087 0.0
C569 C 0.89642 0.66799 0.16286 0.0
C570 C 0.91089 0.67037 0.11625 0.0
C571 C 0.90737 0.68474 0.06888 0.0
C572 C 0.88858 0.69725 0.06958 0.0
C573 C 0.87368 0.69527 0.11743 0.0
C574 C 0.87768 0.68027 0.16425 0.0
H575 H 0.05861 0.11844 -0.00449 0.0
H576 H 0.05626 0.11615 0.79981 0.0
H577 H 0.0854 0.14295 0.79484 0.0
H578 H 0.06686 0.17418 0.00987 0.0
H579 H 0.08533 0.17244 0.07218 0.0
H580 H 0.06548 0.1517 0.06135 0.0
H581 H 0.09533 0.12257 0.05893 0.0
H582 H 0.11529 0.1432 0.07042 0.0
H583 H 0.11732 0.12532 0.0066 0.0
H584 H 0.11272 0.17112 0.81012 0.0
H585 H 0.13824 0.19859 0.84407 0.0
H586 H 0.12329 0.18346 0.0308 0.0
C587 C 0.06441 0.12333 0.95156 0.0
C588 C 0.05513 0.11516 0.89796 0.0
C589 C 0.06314 0.12208 0.84144 0.0
C590 C 0.07967 0.13732 0.83814 0.0
C591 C 0.0881 0.14536 0.89174 0.0
C592 C 0.08095 0.13851 0.94741 0.0
C593 C 0.09247 0.15024 -0.002 0.0
C594 C 0.07658 0.16289 0.03767 0.0
C595 C 0.1059 0.13439 0.03571 0.0
C596 C 0.10673 0.16526 0.96189 0.0
C597 C 0.10403 0.16191 0.90073 0.0
C598 C 0.11514 0.17378 0.85784 0.0
C599 C 0.12962 0.18937 0.8778 0.0
C600 C 0.13287 0.19314 0.94025 0.0
C601 C 0.12112 0.18099 0.98288 0.0
H602 H 0.60378 0.28645 0.68405 0.0
H603 H 0.63572 0.31408 0.52821 0.0
H604 H 0.61271 0.3467 0.53727 0.0
H605 H 0.55042 0.30765 0.65317 0.0
H606 H 0.54479 0.31184 0.73202 0.0
H607 H 0.56265 0.2905 0.70909 0.0
H608 H 0.59202 0.30619 0.77922 0.0
H609 H 0.57448 0.32795 0.80105 0.0
H610 H 0.60052 0.33378 0.76949 0.0
H611 H 0.58729 0.37672 0.56747 0.0
H612 H 0.5589 0.40033 0.60874 0.0
H613 H 0.54513 0.35308 0.74764 0.0
C614 C 0.60577 0.29922 0.65114 0.0
C615 C 0.62152 0.29785 0.6054 0.0
C616 C 0.62357 0.31479 0.56313 0.0
C617 C 0.61075 0.3334 0.56841 0.0
C618 C 0.59604 0.33457 0.61596 0.0
C619 C 0.59329 0.31775 0.65594 0.0
C620 C 0.57665 0.32289 0.70355 0.0
C621 C 0.55749 0.3073 0.69916 0.0
C622 C 0.58652 0.32269 0.76707 0.0
C623 C 0.57047 0.34544 0.68467 0.0
C624 C 0.58183 0.35189 0.63404 0.0
C625 C 0.57835 0.37183 0.60704 0.0
C626 C 0.5623 0.38514 0.63099 0.0
C627 C 0.55007 0.37853 0.68166 0.0
C628 C 0.5546 0.35869 0.70976 0.0
H629 H 0.36698 0.81286 0.536 0.0
H630 H 0.36495 0.78429 0.35731 0.0
H631 H 0.39466 0.80741 0.32478 0.0
H632 H 0.37773 0.86675 0.485 0.0
H633 H 0.3958 0.87347 0.54552 0.0
H634 H 0.37488 0.85387 0.55745 0.0
H635 H 0.40311 0.82568 0.5914 0.0
H636 H 0.4241 0.84527 0.58013 0.0
H637 H 0.42544 0.8195 0.54258 0.0
H638 H 0.42277 0.83432 0.30827 0.0
H639 H 0.45036 0.86276 0.31128 0.0
H640 H 0.43535 0.87455 0.49978 0.0
C641 C 0.37302 0.8114 0.4904 0.0
C642 C 0.36354 0.79697 0.449 0.0
C643 C 0.37176 0.79551 0.3895 0.0
C644 C 0.38869 0.8085 0.37051 0.0
C645 C 0.39732 0.82299 0.41144 0.0
C646 C 0.38999 0.82452 0.47022 0.0
C647 C 0.40204 0.84203 0.50392 0.0
C648 C 0.38669 0.8601 0.52416 0.0
C649 C 0.41441 0.83255 0.55768 0.0
C650 C 0.41717 0.84984 0.4548 0.0
C651 C 0.414 0.83867 0.40182 0.0
C652 C 0.42556 0.84318 0.34954 0.0
C653 C 0.44109 0.85945 0.35156 0.0
C654 C 0.44502 0.87085 0.40564 0.0
C655 C 0.43277 0.86603 0.4578 0.0
H656 H -0.00406 0.50588 0.19464 0.0
H657 H 0.05896 0.53481 0.18142 0.0
H658 H 0.0672 0.5116 0.09327 0.0
H659 H 0.01032 0.45024 0.13525 0.0
H660 H 0.98501 0.44894 0.0961 0.0
H661 H 0.98693 0.46324 0.16662 0.0
H662 H 0.9713 0.49724 0.11454 0.0
H663 H 0.97006 0.48346 0.04353 0.0
H664 H 0.98485 0.50835 0.04971 0.0
H665 H 0.06508 0.49066 -0.00574 0.0
H666 H 0.05412 0.47144 0.90091 0.0
H667 H -0.00817 0.45864 0.98109 0.0
C668 C 0.01186 0.50648 0.17495 0.0
C669 C 0.02693 0.52173 0.19454 0.0
C670 C 0.04744 0.52274 0.16735 0.0
C671 C 0.05215 0.50976 0.11712 0.0
C672 C 0.03622 0.49585 0.09594 0.0
C673 C 0.01665 0.49384 0.12509 0.0
C674 C 0.00105 0.48029 0.08978 0.0
C675 C -0.00448 0.45943 0.12397 0.0
C676 C 0.98064 0.49311 0.07344 0.0
C677 C 0.0145 0.4757 0.03492 0.0
C678 C 0.03483 0.48445 0.03908 0.0
C679 C 0.04935 0.48334 0.99115 0.0
C680 C 0.04295 0.47263 0.93822 0.0
C681 C 0.02216 0.46356 0.93396 0.0
C682 C 0.0079 0.46527 0.98297 0.0
H683 H 0.76039 0.77547 0.17825 0.0
H684 H 0.76735 0.70604 0.15807 0.0
H685 H 0.75541 0.70088 0.26248 0.0
H686 H 0.77802 0.78052 0.32376 0.0
H687 H 0.75827 0.7996 0.35007 0.0
H688 H 0.76539 0.79877 0.27138 0.0
H689 H 0.72574 0.79246 0.24062 0.0
H690 H 0.71835 0.79459 0.31889 0.0
H691 H 0.71073 0.77107 0.27616 0.0
H692 H 0.75116 0.70357 0.37163 0.0
H693 H 0.73697 0.71151 0.47233 0.0
H694 H 0.72731 0.77849 0.42078 0.0
C695 C 0.75853 0.75917 0.19501 0.0
C696 C 0.76541 0.74116 0.161 0.0
C697 C 0.76257 0.72005 0.18407 0.0
C698 C 0.75609 0.71695 0.24346 0.0
C699 C 0.75169 0.7351 0.27794 0.0
C700 C 0.75141 0.75567 0.25398 0.0
C701 C 0.7448 0.77212 0.30108 0.0
C702 C 0.76269 0.78873 0.31219 0.0
C703 C 0.72364 0.7832 0.28314 0.0
C704 C 0.74188 0.75747 0.35517 0.0
C705 C 0.74682 0.73635 0.34086 0.0
C706 C 0.7465 0.71988 0.38319 0.0
C707 C 0.73871 0.72465 0.44046 0.0
C708 C 0.73041 0.74543 0.45346 0.0
C709 C 0.73338 0.76242 0.41183 0.0
H710 H 0.50309 0.51441 0.44382 0.0
H711 H 0.43554 0.52891 0.42048 0.0
H712 H 0.42703 0.50676 0.51106 0.0
H713 H 0.49768 0.4598 0.5048 0.0
H714 H 0.51991 0.46415 0.55525 0.0
H715 H 0.51915 0.47777 0.48362 0.0
H716 H 0.52334 0.5144 0.53929 0.0
H717 H 0.52331 0.50101 0.61113 0.0
H718 H 0.50397 0.52197 0.59594 0.0
H719 H 0.42734 0.48412 0.61084 0.0
H720 H 0.43637 0.46299 0.703 0.0
H721 H 0.50406 0.46966 0.66031 0.0
C722 C 0.48641 0.51256 0.45682 0.0
C723 C 0.46997 0.52325 0.42567 0.0
C724 C 0.44834 0.52055 0.44383 0.0
C725 C 0.44342 0.50817 0.49531 0.0
C726 C 0.46037 0.49883 0.52725 0.0
C727 C 0.4814 0.50084 0.5079 0.0
C728 C 0.49713 0.49111 0.55122 0.0
C729 C 0.50916 0.47207 0.52199 0.0
C730 C 0.51284 0.50815 0.57583 0.0
C731 C 0.48184 0.48357 0.59901 0.0
C732 C 0.46064 0.48763 0.58469 0.0
C733 C 0.44392 0.48095 0.62239 0.0
C734 C 0.44916 0.46919 0.67478 0.0
C735 C 0.4709 0.46475 0.68873 0.0
C736 C 0.48725 0.47277 0.65121 0.0
H737 H 0.77079 0.2045 0.93943 0.0
H738 H 0.75027 0.26427 0.02276 0.0
H739 H 0.72293 0.26899 0.944 0.0
H740 H 0.77246 0.22207 0.80355 0.0
H741 H 0.76237 0.19913 0.76249 0.0
H742 H 0.77472 0.19529 0.83474 0.0
H743 H 0.7408 0.17636 0.87639 0.0
H744 H 0.72853 0.17907 0.80318 0.0
H745 H 0.71499 0.18928 0.86914 0.0
H746 H 0.708 0.27366 0.84458 0.0
H747 H 0.69853 0.27388 0.73751 0.0
H748 H 0.72712 0.2104 0.71558 0.0
C749 C 0.75948 0.21771 0.94322 0.0
C750 C 0.76229 0.23395 0.987 0.0
C751 C 0.74801 0.25161 0.98968 0.0
C752 C 0.73252 0.25443 0.94505 0.0
C753 C 0.73151 0.23927 0.89884 0.0
C754 C 0.74404 0.22082 0.89846 0.0
C755 C 0.74219 0.20897 0.83885 0.0
C756 C 0.76424 0.20623 0.80816 0.0
C757 C 0.73095 0.18712 0.84741 0.0
C758 C 0.72812 0.22456 0.80444 0.0
C759 C 0.72206 0.2418 0.84022 0.0
C760 C 0.71178 0.25983 0.81674 0.0
C761 C 0.70682 0.25993 0.75555 0.0
C762 C 0.71189 0.24198 0.71858 0.0
C763 C 0.72273 0.2241 0.7433 0.0
H764 H 0.22926 0.28118 0.93157 0.0
H765 H 0.24356 0.21799 0.00572 0.0
H766 H 0.26429 0.209 0.91486 0.0
H767 H 0.21857 0.26637 0.79364 0.0
H768 H 0.2313 0.28777 0.75177 0.0
H769 H 0.22246 0.29248 0.82781 0.0
H770 H 0.26061 0.30399 0.86086 0.0
H771 H 0.26943 0.30063 0.784 0.0
H772 H 0.28316 0.28673 0.84405 0.0
H773 H 0.27232 0.2028 0.8087 0.0
H774 H 0.2812 0.20388 0.7011 0.0
H775 H 0.26533 0.27219 0.69578 0.0
C776 C 0.2379 0.26602 0.93027 0.0
C777 C 0.23466 0.25011 0.9749 0.0
C778 C 0.24584 0.23028 0.97154 0.0
C779 C 0.25748 0.22497 0.91998 0.0
C780 C 0.25832 0.24003 0.87362 0.0
C781 C 0.24988 0.26057 0.87922 0.0
C782 C 0.25182 0.273 0.82058 0.0
C783 C 0.22972 0.28032 0.79712 0.0
C784 C 0.26718 0.29222 0.8278 0.0
C785 C 0.26141 0.25572 0.7806 0.0
C786 C 0.2647 0.2368 0.81216 0.0
C787 C 0.2709 0.21778 0.78398 0.0
C788 C 0.27557 0.21853 0.7226 0.0
C789 C 0.27468 0.23832 0.69065 0.0
C790 C 0.26666 0.25697 0.71948 0.0
H791 H 0.26128 0.76176 0.41603 0.0
H792 H 0.26662 0.6934 0.45615 0.0
H793 H 0.25483 0.68484 0.35225 0.0
H794 H 0.2172 0.76015 0.30978 0.0
H795 H 0.22949 0.78066 0.26365 0.0
H796 H 0.23432 0.78023 0.34352 0.0
H797 H 0.2753 0.77933 0.32147 0.0
H798 H 0.27056 0.77853 0.24147 0.0
H799 H 0.28631 0.75767 0.27687 0.0
H800 H 0.24303 0.68461 0.24147 0.0
H801 H 0.22891 0.69289 0.13985 0.0
H802 H 0.24021 0.76104 0.17144 0.0
C803 C 0.25941 0.74494 0.40381 0.0
C804 C 0.26498 0.72826 0.44392 0.0
C805 C 0.26237 0.70646 0.42599 0.0
C806 C 0.25599 0.70146 0.36691 0.0
C807 C 0.25272 0.71846 0.32678 0.0
C808 C 0.25421 0.73974 0.34489 0.0
C809 C 0.25162 0.75519 0.29314 0.0
C810 C 0.23199 0.76991 0.3031 0.0
C811 C 0.27217 0.76845 0.28265 0.0
C812 C 0.24799 0.73935 0.24281 0.0
C813 C 0.24843 0.71822 0.26277 0.0
C814 C 0.24292 0.70107 0.22516 0.0
C815 C 0.23519 0.70589 0.16726 0.0
C816 C 0.23332 0.72764 0.14818 0.0
C817 C 0.24153 0.74425 0.18468 0.0
H818 H 0.51069 0.94601 0.52042 0.0
H819 H 0.54382 0.98638 0.39098 0.0
H820 H 0.55792 0.00875 0.47491 0.0
H821 H 0.49198 0.98329 0.61037 0.0
H822 H 0.49593 0.96917 0.68059 0.0
H823 H 0.49296 0.9542 0.61217 0.0
H824 H 0.5294 0.93513 0.63185 0.0
H825 H 0.53255 0.95028 0.7007 0.0
H826 H 0.55321 0.95105 0.64381 0.0
H827 H 0.5621 0.03008 0.57047 0.0
H828 H 0.55401 0.04934 0.66536 0.0
H829 H 0.51889 -0.00613 0.73064 0.0
C830 C 0.52141 0.95914 0.50966 0.0
C831 C 0.52618 0.96457 0.44962 0.0
C832 C 0.54012 0.982 0.4371 0.0
C833 C 0.54832 -0.0054 0.48442 0.0
C834 C 0.54297 0.98895 0.54354 0.0
C835 C 0.53005 0.97137 0.55605 0.0
C836 C 0.52441 0.96992 0.622 0.0
C837 C 0.49989 0.96914 0.63176 0.0
C838 C 0.53556 0.95044 0.65132 0.0
C839 C 0.53407 0.99077 0.64385 0.0
C840 C 0.54559 0.00109 0.59877 0.0
C841 C 0.55375 0.02185 0.60659 0.0
C842 C 0.54917 0.03263 0.66064 0.0
C843 C 0.53615 0.02272 0.70497 0.0
C844 C 0.52932 0.00135 0.69759 0.0
H845 H 0.97955 -0.00012 0.9018 0.0
H846 H 0.94286 0.05261 0.9769 0.0
H847 H 0.93229 0.02958 0.06324 0.0
H848 H 0.94421 0.95329 0.96896 0.0
H849 H 0.9682 0.93755 0.9806 0.0
H850 H 0.96613 0.95515 0.91609 0.0
H851 H 0.00157 0.97375 0.94789 0.0
H852 H 0.00355 0.95675 0.01279 0.0
H853 H 0.00353 0.98567 0.02189 0.0
H854 H 0.93428 0.00479 0.15193 0.0
H855 H 0.9477 0.98038 0.23211 0.0
H856 H 0.98393 0.94466 0.09845 0.0
C857 C 0.96825 0.00599 0.93483 0.0
C858 C 0.96157 0.02756 0.93303 0.0
C859 C 0.94756 0.03577 0.97747 0.0
C860 C 0.94151 0.02281 0.02646 0.0
C861 C 0.94945 0.00175 0.0292 0.0
C862 C 0.96213 0.99323 0.98356 0.0
C863 C 0.97186 0.97187 0.00144 0.0
C864 C 0.962 0.95337 0.96459 0.0
C865 C -0.00343 0.97207 -0.00428 0.0
C866 C 0.96469 0.97084 0.06626 0.0
C867 C 0.95105 0.98765 0.08106 0.0
C868 C 0.94441 0.99121 0.14042 0.0
C869 C 0.9522 0.97742 0.18567 0.0
C870 C 0.96688 0.96082 0.17109 0.0
C871 C 0.97266 0.95722 0.11065 0.0
H872 H 0.98523 0.48359 0.68912 0.0
H873 H 0.98629 0.42765 0.57192 0.0
H874 H 0.97967 0.45137 0.48371 0.0
H875 H 0.94551 0.51609 0.60576 0.0
H876 H 0.95979 0.54095 0.61852 0.0
H877 H 0.96132 0.51944 0.67309 0.0
H878 H 0.00284 0.51973 0.66536 0.0
H879 H 0.00143 0.54127 0.61114 0.0
H880 H 0.0154 0.51665 0.59259 0.0
H881 H 0.97302 0.48108 0.40938 0.0
H882 H 0.97395 0.51466 0.35022 0.0
H883 H 0.98245 0.55185 0.5141 0.0
C884 C 0.98364 0.47634 0.64491 0.0
C885 C 0.98577 0.45382 0.637 0.0
C886 C 0.98442 0.44487 0.57859 0.0
C887 C 0.98053 0.45819 0.52854 0.0
C888 C 0.97852 0.4804 0.53784 0.0
C889 C 0.98047 0.48947 0.59441 0.0
C890 C 0.98029 0.51394 0.59131 0.0
C891 C 0.96055 0.52314 0.62412 0.0
C892 C 0.00124 0.52345 0.61657 0.0
C893 C 0.97856 0.51728 0.52385 0.0
C894 C 0.97669 0.4977 0.49427 0.0
C895 C 0.97451 0.49647 0.43203 0.0
C896 C 0.9749 0.51568 0.3989 0.0
C897 C 0.97815 0.53583 0.42773 0.0
C898 C 0.97981 0.53667 0.49112 0.0
H899 H 0.7822 0.77648 0.87505 0.0
H900 H 0.80157 0.70913 0.87003 0.0
H901 H 0.76922 0.70032 0.81166 0.0
H902 H 0.72784 0.76846 0.89494 0.0
H903 H 0.7186 0.78964 0.84568 0.0
H904 H 0.74441 0.79182 0.88164 0.0
H905 H 0.7633 0.79636 0.77833 0.0
H906 H 0.73745 0.79521 0.74223 0.0
H907 H 0.75845 0.77688 0.71954 0.0
H908 H 0.73238 0.69764 0.77 0.0
H909 H 0.69818 0.7026 0.71675 0.0
H910 H 0.70329 0.772 0.74097 0.0
C911 C 0.78009 0.76003 0.85966 0.0
C912 C 0.79436 0.74346 0.8777 0.0
C913 C 0.79087 0.7221 0.85703 0.0
C914 C 0.77239 0.71687 0.82441 0.0
C915 C 0.7578 0.73325 0.81165 0.0
C916 C 0.76181 0.75454 0.8262 0.0
C917 C 0.74343 0.76897 0.80626 0.0
C918 C 0.73296 0.78039 0.86037 0.0
C919 C 0.75112 0.78531 0.75874 0.0
C920 C 0.72839 0.75235 0.77916 0.0
C921 C 0.73686 0.73183 0.78413 0.0
C922 C 0.72576 0.71368 0.76457 0.0
C923 C 0.70615 0.71668 0.73505 0.0
C924 C 0.69809 0.73772 0.72399 0.0
C925 C 0.70896 0.75571 0.74873 0.0
H926 H 0.52389 0.51682 0.18479 0.0
H927 H 0.48405 0.56198 0.08545 0.0
H928 H 0.48255 0.53642 0.00032 0.0
H929 H 0.55335 0.49401 0.05173 0.0
H930 H 0.55318 0.46718 0.08316 0.0
H931 H 0.55396 0.49033 0.13232 0.0
H932 H 0.52012 0.47625 0.18744 0.0
H933 H 0.51892 0.45331 0.13783 0.0
H934 H 0.49605 0.47099 0.14486 0.0
H935 H 0.48097 0.50482 0.93333 0.0
H936 H 0.48187 0.46947 0.88245 0.0
H937 H 0.52306 0.44403 0.02296 0.0
C938 C 0.51545 0.52163 0.1443 0.0
C939 C 0.50419 0.54146 0.14144 0.0
C940 C 0.49286 0.54694 0.0884 0.0
C941 C 0.49192 0.53252 0.03988 0.0
C942 C 0.50243 0.51274 0.04514 0.0
C943 C 0.51424 0.50733 0.09553 0.0
C944 C 0.52257 0.48431 0.0914 0.0
C945 C 0.54723 0.48394 0.08952 0.0
C946 C 0.51389 0.4704 0.14347 0.0
C947 C 0.51306 0.47744 0.0315 0.0
C948 C 0.50158 0.49422 0.00576 0.0
C949 C 0.49016 0.49167 0.95248 0.0
C950 C 0.49061 0.47154 0.92429 0.0
C951 C 0.50243 0.45421 0.94916 0.0
C952 C 0.51395 0.45714 0.00324 0.0
H953 H 0.80002 0.27072 0.23949 0.0
H954 H 0.81614 0.20258 0.23276 0.0
H955 H 0.78661 0.19472 0.30338 0.0
H956 H 0.78256 0.27112 0.40245 0.0
H957 H 0.76161 0.29039 0.38661 0.0
H958 H 0.78612 0.29078 0.34337 0.0
H959 H 0.76364 0.28765 0.24561 0.0
H960 H 0.73913 0.28636 0.28846 0.0
H961 H 0.74571 0.26508 0.2362 0.0
H962 H 0.75171 0.19351 0.35962 0.0
H963 H 0.7183 0.19978 0.41667 0.0
H964 H 0.7253 0.26884 0.3899 0.0
C965 C 0.79795 0.25425 0.25482 0.0
C966 C 0.81044 0.23728 0.23041 0.0
C967 C 0.80693 0.2159 0.25101 0.0
C968 C 0.79003 0.21123 0.29073 0.0
C969 C 0.77705 0.22815 0.31035 0.0
C970 C 0.78123 0.24933 0.29477 0.0
C971 C 0.76428 0.2644 0.32015 0.0
C972 C 0.77424 0.2801 0.36588 0.0
C973 C 0.7525 0.27658 0.26957 0.0
C974 C 0.74958 0.24832 0.35087 0.0
C975 C 0.75718 0.22749 0.3443 0.0
C976 C 0.74585 0.20978 0.36618 0.0
C977 C 0.72674 0.21352 0.39798 0.0
C978 C 0.71921 0.23482 0.40808 0.0
C979 C 0.73064 0.25238 0.38312 0.0
H980 H 0.28205 0.2224 0.37161 0.0
H981 H 0.28939 0.29084 0.40778 0.0
H982 H 0.25594 0.29822 0.35179 0.0
H983 H 0.25929 0.22868 0.21901 0.0
H984 H 0.24179 0.20581 0.22902 0.0
H985 H 0.26722 0.20671 0.26743 0.0
H986 H 0.24724 0.20091 0.36877 0.0
H987 H 0.22169 0.20092 0.33093 0.0
H988 H 0.22664 0.21971 0.39135 0.0
H989 H 0.21996 0.29769 0.29902 0.0
H990 H 0.1882 0.29017 0.23596 0.0
H991 H 0.20436 0.222 0.23632 0.0
C992 C 0.27697 0.23901 0.36641 0.0
C993 C 0.28837 0.25603 0.39416 0.0
C994 C 0.28104 0.27753 0.3866 0.0
C995 C 0.2619 0.28187 0.35547 0.0
C996 C 0.2504 0.26455 0.33182 0.0
C997 C 0.25796 0.24362 0.33551 0.0
C998 C 0.24261 0.22789 0.30618 0.0
C999 C 0.25336 0.21662 0.2522 0.0
C1000 C 0.23405 0.21139 0.35207 0.0
C1001 C 0.22508 0.24319 0.28599 0.0
C1002 C 0.22978 0.26425 0.30156 0.0
C1003 C 0.21618 0.28127 0.28634 0.0
C1004 C 0.19801 0.27679 0.25111 0.0
C1005 C 0.19369 0.25549 0.23122 0.0
C1006 C 0.20697 0.23842 0.25132 0.0
H1007 H 0.28477 0.77321 0.74008 0.0
H1008 H 0.293 0.70415 0.71642 0.0
H1009 H 0.25925 0.69772 0.7716 0.0
H1010 H 0.26116 0.76928 0.89403 0.0
H1011 H 0.24367 0.79194 0.88041 0.0
H1012 H 0.26937 0.79048 0.84337 0.0
H1013 H 0.24999 0.79473 0.74063 0.0
H1014 H 0.22417 0.79513 0.77723 0.0
H1015 H 0.22968 0.77549 0.71929 0.0
H1016 H 0.22237 0.69903 0.81783 0.0
H1017 H 0.19019 0.70716 0.87847 0.0
H1018 H 0.20655 0.77526 0.87518 0.0
C1019 C 0.27986 0.75671 0.74829 0.0
C1020 C 0.29153 0.73921 0.72374 0.0
C1021 C 0.28448 0.71784 0.73516 0.0
C1022 C 0.26512 0.71401 0.76566 0.0
C1023 C 0.25324 0.7317 0.78544 0.0
C1024 C 0.26073 0.75257 0.77936 0.0
C1025 C 0.2451 0.76868 0.80608 0.0
C1026 C 0.25543 0.7808 0.85913 0.0
C1027 C 0.23675 0.78443 0.75791 0.0
C1028 C 0.22749 0.75363 0.82727 0.0
C1029 C 0.23233 0.7324 0.81396 0.0
C1030 C 0.21854 0.71558 0.82922 0.0
C1031 C 0.20009 0.72041 0.86295 0.0
C1032 C 0.19587 0.74185 0.88196 0.0
C1033 C 0.20923 0.75873 0.86114 0.0
H1034 H 0.51332 0.95523 0.12958 0.0
H1035 H 0.44791 0.96094 0.19516 0.0
H1036 H 0.44199 0.99196 0.12714 0.0
H1037 H 0.52474 0.00959 0.1252 0.0
H1038 H 0.54044 0.00904 0.0569 0.0
H1039 H 0.53881 0.98535 0.10356 0.0
H1040 H 0.52482 0.96274 0.01358 0.0
H1041 H 0.52708 0.98619 0.96598 0.0
H1042 H 0.50186 0.97211 0.97168 0.0
H1043 H 0.44393 0.0237 0.05516 0.0
H1044 H 0.45323 0.05235 0.98151 0.0
H1045 H 0.51814 0.02748 0.97074 0.0
C1046 C 0.49755 0.96259 0.12841 0.0
C1047 C 0.48104 0.95557 0.16743 0.0
C1048 C 0.46076 0.96594 0.16535 0.0
C1049 C 0.45727 0.98364 0.12704 0.0
C1050 C 0.47423 0.99078 0.09122 0.0
C1051 C 0.49389 0.98039 0.09102 0.0
C1052 C 0.50982 0.99187 0.05065 0.0
C1053 C 0.52961 -0.00059 0.08624 0.0
C1054 C 0.51627 0.97737 -0.00269 0.0
C1055 C 0.49634 0.01079 0.02991 0.0
C1056 C 0.47572 0.00967 0.0528 0.0
C1057 C 0.46008 0.02482 0.03738 0.0
C1058 C 0.46552 0.04114 -0.00389 0.0
C1059 C 0.48655 0.04248 0.97221 0.0
C1060 C 0.50219 0.02731 0.99023 0.0
H1061 H 0.01215 0.04218 0.603 0.0
H1062 H 0.02188 0.00099 0.75876 0.0
H1063 H 0.02488 0.96927 0.69239 0.0
H1064 H 0.98081 0.00777 0.51838 0.0
H1065 H -0.00715 0.01368 0.44631 0.0
H1066 H -0.00659 0.03356 0.50536 0.0
H1067 H 0.03486 0.0357 0.49735 0.0
H1068 H 0.03442 0.01589 0.43784 0.0
H1069 H 0.05059 0.01138 0.50397 0.0
H1070 H 0.02055 0.9415 0.61128 0.0
H1071 H 0.01448 0.92013 0.51835 0.0
H1072 H 0.01199 0.97923 0.41409 0.0
C1073 C 0.01536 0.02653 0.62281 0.0
C1074 C 0.01675 0.02401 0.68589 0.0
C1075 C 0.02093 0.00331 0.71043 0.0
C1076 C 0.02261 0.98516 0.67315 0.0
C1077 C 0.0207 0.98805 0.61123 0.0
C1078 C 0.01777 0.00827 0.586 0.0
C1079 C 0.01602 0.0068 0.51804 0.0
C1080 C -0.00551 0.01599 0.49576 0.0
C1081 C 0.03511 0.01811 0.4875 0.0
C1082 C 0.01718 0.98255 0.50954 0.0
C1083 C 0.01986 0.97201 0.56387 0.0
C1084 C 0.01909 0.94954 0.56817 0.0
C1085 C 0.01553 0.93755 0.51544 0.0
C1086 C 0.01321 0.94807 0.45933 0.0
C1087 C 0.01433 0.97081 0.45637 0.0
loop_
_geom_bond_atom_site_label_1
_geom_bond_atom_site_label_2
_geom_bond_distance
_geom_bond_site_symmetry_2
_ccdc_geom_bond_type
C0 O1 1.306 . S
C0 O3 1.160 . S
O1 C0 1.306 . S
O1 Cd2 2.228 . S
Cd2 O1 2.228 . S
Cd2 O6 2.273 . S
Cd2 O10 2.277 1_655 S
O3 C0 1.160 . S
O3 Cd4 2.203 1_655 S
Cd4 O3 2.203 1_455 S
Cd4 O6 2.411 1_455 S
Cd4 O7 2.333 . S
Cd4 O8 2.352 1_455 S
Cd4 O12 2.277 . S
Cd4 O13 2.356 . S
C5 O10 1.209 . S
C5 O12 1.226 . S
O6 Cd2 2.273 . S
O6 Cd4 2.411 1_655 S
O6 C9 1.320 1_655 S
O7 Cd4 2.333 . S
O7 C9 1.214 . S
O8 Cd4 2.352 1_655 S
O8 C11 1.258 1_655 S
C9 O6 1.320 1_455 S
C9 O7 1.214 . S
O10 Cd2 2.277 1_455 S
O10 C5 1.209 . S
C11 O8 1.258 1_455 S
C11 O13 1.282 . S
O12 Cd4 2.277 . S
O12 C5 1.226 . S
O13 Cd4 2.356 . S
O13 C11 1.282 . S
C14 O15 1.306 . S
C14 O17 1.160 . S
O15 C14 1.306 . S
O15 Cd16 2.228 . S
Cd16 O15 2.228 . S
Cd16 O20 2.273 . S
Cd16 O24 2.277 . S
O17 C14 1.160 . S
O17 Cd18 2.203 . S
Cd18 O17 2.203 . S
Cd18 O20 2.411 . S
Cd18 O21 2.333 . S
Cd18 O22 2.352 . S
Cd18 O26 2.277 . S
Cd18 O27 2.356 . S
C19 O24 1.209 . S
C19 O26 1.226 . S
O20 Cd16 2.273 . S
O20 Cd18 2.411 . S
O20 C23 1.320 . S
O21 Cd18 2.333 . S
O21 C23 1.214 . S
O22 Cd18 2.352 . S
O22 C25 1.258 . S
C23 O20 1.320 . S
C23 O21 1.214 . S
O24 Cd16 2.277 . S
O24 C19 1.209 . S
C25 O22 1.258 . S
C25 O27 1.282 . S
O26 Cd18 2.277 . S
O26 C19 1.226 . S
O27 Cd18 2.356 . S
O27 C25 1.282 . S
C28 O29 1.306 . S
C28 O31 1.160 . S
O29 C28 1.306 . S
O29 Cd30 2.228 . S
Cd30 O29 2.228 . S
Cd30 O34 2.273 . S
Cd30 O38 2.277 . S
O31 C28 1.160 . S
O31 Cd32 2.203 . S
Cd32 O31 2.203 . S
Cd32 O34 2.411 . S
Cd32 O35 2.333 . S
Cd32 O36 2.352 . S
Cd32 O40 2.277 . S
Cd32 O41 2.356 . S
C33 O38 1.209 . S
C33 O40 1.226 . S
O34 Cd30 2.273 . S
O34 Cd32 2.411 . S
O34 C37 1.320 . S
O35 Cd32 2.333 . S
O35 C37 1.214 . S
O36 Cd32 2.352 . S
O36 C39 1.258 . S
C37 O34 1.320 . S
C37 O35 1.214 . S
O38 Cd30 2.277 . S
O38 C33 1.209 . S
C39 O36 1.258 . S
C39 O41 1.282 . S
O40 Cd32 2.277 . S
O40 C33 1.226 . S
O41 Cd32 2.356 . S
O41 C39 1.282 . S
C42 O43 1.306 1_554 S
C42 O45 1.160 . S
O43 C42 1.306 1_556 S
O43 Cd44 2.228 . S
Cd44 O43 2.228 . S
Cd44 O48 2.273 . S
Cd44 O52 2.277 . S
O45 C42 1.160 . S
O45 Cd46 2.203 . S
Cd46 O45 2.203 . S
Cd46 O48 2.411 1_554 S
Cd46 O49 2.333 1_554 S
Cd46 O50 2.352 . S
Cd46 O54 2.277 . S
Cd46 O55 2.356 . S
C47 O52 1.209 . S
C47 O54 1.226 1_556 S
O48 Cd44 2.273 . S
O48 Cd46 2.411 1_556 S
O48 C51 1.320 . S
O49 Cd46 2.333 1_556 S
O49 C51 1.214 . S
O50 Cd46 2.352 . S
O50 C53 1.258 . S
C51 O48 1.320 . S
C51 O49 1.214 . S
O52 Cd44 2.277 . S
O52 C47 1.209 . S
C53 O50 1.258 . S
C53 O55 1.282 . S
O54 Cd46 2.277 . S
O54 C47 1.226 1_554 S
O55 Cd46 2.356 . S
O55 C53 1.282 . S
C56 O57 1.306 . S
C56 O59 1.160 . S
O57 C56 1.306 . S
O57 Cd58 2.228 . S
Cd58 O57 2.228 . S
Cd58 O62 2.273 . S
Cd58 O66 2.277 1_655 S
O59 C56 1.160 . S
O59 Cd60 2.203 1_655 S
Cd60 O59 2.203 1_455 S
Cd60 O62 2.411 1_455 S
Cd60 O63 2.333 . S
Cd60 O64 2.352 1_455 S
Cd60 O68 2.277 . S
Cd60 O69 2.356 . S
C61 O66 1.209 . S
C61 O68 1.226 . S
O62 Cd58 2.273 . S
O62 Cd60 2.411 1_655 S
O62 C65 1.320 1_655 S
O63 Cd60 2.333 . S
O63 C65 1.214 . S
O64 Cd60 2.352 1_655 S
O64 C67 1.258 1_655 S
C65 O62 1.320 1_455 S
C65 O63 1.214 . S
O66 Cd58 2.277 1_455 S
O66 C61 1.209 . S
C67 O64 1.258 1_455 S
C67 O69 1.282 . S
O68 Cd60 2.277 . S
O68 C61 1.226 . S
O69 Cd60 2.356 . S
O69 C67 1.282 . S
C70 O71 1.306 . S
C70 O73 1.160 . S
O71 C70 1.306 . S
O71 Cd72 2.228 . S
Cd72 O71 2.228 . S
Cd72 O76 2.273 . S
Cd72 O80 2.277 . S
O73 C70 1.160 . S
O73 Cd74 2.203 . S
Cd74 O73 2.203 . S
Cd74 O76 2.411 . S
Cd74 O77 2.333 . S
Cd74 O78 2.352 . S
Cd74 O82 2.277 . S
Cd74 O83 2.356 1_554 S
C75 O80 1.209 . S
C75 O82 1.226 . S
O76 Cd72 2.273 . S
O76 Cd74 2.411 . S
O76 C79 1.320 . S
O77 Cd74 2.333 . S
O77 C79 1.214 . S
O78 Cd74 2.352 . S
O78 C81 1.258 1_554 S
C79 O76 1.320 . S
C79 O77 1.214 . S
O80 Cd72 2.277 . S
O80 C75 1.209 . S
C81 O78 1.258 1_556 S
C81 O83 1.282 . S
O82 Cd74 2.277 . S
O82 C75 1.226 . S
O83 Cd74 2.356 1_556 S
O83 C81 1.282 . S
C84 O85 1.306 . S
C84 O87 1.160 . S
O85 C84 1.306 . S
O85 Cd86 2.228 . S
Cd86 O85 2.228 . S
Cd86 O90 2.273 . S
Cd86 O94 2.277 . S
O87 C84 1.160 . S
O87 Cd88 2.203 . S
Cd88 O87 2.203 . S
Cd88 O90 2.411 . S
Cd88 O91 2.333 . S
Cd88 O92 2.352 . S
Cd88 O96 2.277 . S
Cd88 O97 2.356 . S
C89 O94 1.209 . S
C89 O96 1.226 . S
O90 Cd86 2.273 . S
O90 Cd88 2.411 . S
O90 C93 1.320 . S
O91 Cd88 2.333 . S
O91 C93 1.214 . S
O92 Cd88 2.352 . S
O92 C95 1.258 . S
C93 O90 1.320 . S
C93 O91 1.214 . S
O94 Cd86 2.277 . S
O94 C89 1.209 . S
C95 O92 1.258 . S
C95 O97 1.282 . S
O96 Cd88 2.277 . S
O96 C89 1.226 . S
O97 Cd88 2.356 . S
O97 C95 1.282 . S
C98 O99 1.306 . S
C98 O101 1.160 . S
O99 C98 1.306 . S
O99 Cd100 2.228 . S
Cd100 O99 2.228 . S
Cd100 O104 2.273 . S
Cd100 O108 2.277 . S
O101 C98 1.160 . S
O101 Cd102 2.203 . S
Cd102 O101 2.203 . S
Cd102 O104 2.411 . S
Cd102 O105 2.333 . S
Cd102 O106 2.352 . S
Cd102 O110 2.277 . S
Cd102 O111 2.356 . S
C103 O108 1.209 . S
C103 O110 1.226 . S
O104 Cd100 2.273 . S
O104 Cd102 2.411 . S
O104 C107 1.320 . S
O105 Cd102 2.333 . S
O105 C107 1.214 . S
O106 Cd102 2.352 . S
O106 C109 1.258 . S
C107 O104 1.320 . S
C107 O105 1.214 . S
O108 Cd100 2.277 . S
O108 C103 1.209 . S
C109 O106 1.258 . S
C109 O111 1.282 . S
O110 Cd102 2.277 . S
O110 C103 1.226 . S
O111 Cd102 2.356 . S
O111 C109 1.282 . S
C112 O113 1.306 . S
C112 O115 1.160 . S
O113 C112 1.306 . S
O113 Cd114 2.228 . S
Cd114 O113 2.228 . S
Cd114 O118 2.273 . S
Cd114 O122 2.277 . S
O115 C112 1.160 . S
O115 Cd116 2.203 . S
Cd116 O115 2.203 . S
Cd116 O118 2.411 . S
Cd116 O119 2.333 . S
Cd116 O120 2.352 . S
Cd116 O124 2.277 . S
Cd116 O125 2.356 . S
C117 O122 1.209 . S
C117 O124 1.226 . S
O118 Cd114 2.273 . S
O118 Cd116 2.411 . S
O118 C121 1.320 . S
O119 Cd116 2.333 . S
O119 C121 1.214 . S
O120 Cd116 2.352 . S
O120 C123 1.258 . S
C121 O118 1.320 . S
C121 O119 1.214 . S
O122 Cd114 2.277 . S
O122 C117 1.209 . S
C123 O120 1.258 . S
C123 O125 1.282 . S
O124 Cd116 2.277 . S
O124 C117 1.226 . S
O125 Cd116 2.356 . S
O125 C123 1.282 . S
C126 O127 1.306 . S
C126 O129 1.160 . S
O127 C126 1.306 . S
O127 Cd128 2.228 . S
Cd128 O127 2.228 . S
Cd128 O132 2.273 . S
Cd128 O136 2.277 . S
O129 C126 1.160 . S
O129 Cd130 2.203 . S
Cd130 O129 2.203 . S
Cd130 O132 2.411 . S
Cd130 O133 2.333 . S
Cd130 O134 2.352 . S
Cd130 O138 2.277 . S
Cd130 O139 2.356 1_554 S
C131 O136 1.209 . S
C131 O138 1.226 . S
O132 Cd128 2.273 . S
O132 Cd130 2.411 . S
O132 C135 1.320 . S
O133 Cd130 2.333 . S
O133 C135 1.214 . S
O134 Cd130 2.352 . S
O134 C137 1.258 1_554 S
C135 O132 1.320 . S
C135 O133 1.214 . S
O136 Cd128 2.277 . S
O136 C131 1.209 . S
C137 O134 1.258 1_556 S
C137 O139 1.282 . S
O138 Cd130 2.277 . S
O138 C131 1.226 . S
O139 Cd130 2.356 1_556 S
O139 C137 1.282 . S
C140 O141 1.306 1_554 S
C140 O143 1.160 . S
O141 C140 1.306 1_556 S
O141 Cd142 2.228 . S
Cd142 O141 2.228 . S
Cd142 O146 2.273 . S
Cd142 O150 2.277 . S
O143 C140 1.160 . S
O143 Cd144 2.203 . S
Cd144 O143 2.203 . S
Cd144 O146 2.411 1_554 S
Cd144 O147 2.333 1_554 S
Cd144 O148 2.352 . S
Cd144 O152 2.277 . S
Cd144 O153 2.356 . S
C145 O150 1.209 . S
C145 O152 1.226 1_556 S
O146 Cd142 2.273 . S
O146 Cd144 2.411 1_556 S
O146 C149 1.320 . S
O147 Cd144 2.333 1_556 S
O147 C149 1.214 . S
O148 Cd144 2.352 . S
O148 C151 1.258 . S
C149 O146 1.320 . S
C149 O147 1.214 . S
O150 Cd142 2.277 . S
O150 C145 1.209 . S
C151 O148 1.258 . S
C151 O153 1.282 . S
O152 Cd144 2.277 . S
O152 C145 1.226 1_554 S
O153 Cd144 2.356 . S
O153 C151 1.282 . S
C154 O155 1.306 . S
C154 O157 1.160 . S
O155 C154 1.306 . S
O155 Cd156 2.228 . S
Cd156 O155 2.228 . S
Cd156 O160 2.273 . S
Cd156 O164 2.277 . S
O157 C154 1.160 . S
O157 Cd158 2.203 . S
Cd158 O157 2.203 . S
Cd158 O160 2.411 . S
Cd158 O161 2.333 . S
Cd158 O162 2.352 . S
Cd158 O166 2.277 . S
Cd158 O167 2.356 . S
C159 O164 1.209 . S
C159 O166 1.226 . S
O160 Cd156 2.273 . S
O160 Cd158 2.411 . S
O160 C163 1.320 . S
O161 Cd158 2.333 . S
O161 C163 1.214 . S
O162 Cd158 2.352 . S
O162 C165 1.258 . S
C163 O160 1.320 . S
C163 O161 1.214 . S
O164 Cd156 2.277 . S
O164 C159 1.209 . S
C165 O162 1.258 . S
C165 O167 1.282 . S
O166 Cd158 2.277 . S
O166 C159 1.226 . S
O167 Cd158 2.356 . S
O167 C165 1.282 . S
C168 O169 1.306 . S
C168 O171 1.160 . S
O169 C168 1.306 . S
O169 Cd170 2.228 . S
Cd170 O169 2.228 . S
Cd170 O174 2.273 . S
Cd170 O178 2.277 . S
O171 C168 1.160 . S
O171 Cd172 2.203 . S
Cd172 O171 2.203 . S
Cd172 O174 2.411 . S
Cd172 O175 2.333 . S
Cd172 O176 2.352 . S
Cd172 O180 2.277 . S
Cd172 O181 2.356 . S
C173 O178 1.209 . S
C173 O180 1.226 . S
O174 Cd170 2.273 . S
O174 Cd172 2.411 . S
O174 C177 1.320 . S
O175 Cd172 2.333 . S
O175 C177 1.214 . S
O176 Cd172 2.352 . S
O176 C179 1.258 . S
C177 O174 1.320 . S
C177 O175 1.214 . S
O178 Cd170 2.277 . S
O178 C173 1.209 . S
C179 O176 1.258 . S
C179 O181 1.282 . S
O180 Cd172 2.277 . S
O180 C173 1.226 . S
O181 Cd172 2.356 . S
O181 C179 1.282 . S
C182 O183 1.306 . S
C182 O185 1.160 . S
O183 C182 1.306 . S
O183 Cd184 2.228 . S
Cd184 O183 2.228 . S
Cd184 O188 2.273 . S
Cd184 O192 2.277 1_455 S
O185 C182 1.160 . S
O185 Cd186 2.203 . S
Cd186 O185 2.203 . S
Cd186 O188 2.411 . S
Cd186 O189 2.333 1_455 S
Cd186 O190 2.352 . S
Cd186 O194 2.277 1_455 S
Cd186 O195 2.356 1_455 S
C187 O192 1.209 . S
C187 O194 1.226 . S
O188 Cd184 2.273 . S
O188 Cd186 2.411 . S
O188 C191 1.320 . S
O189 Cd186 2.333 1_655 S
O189 C191 1.214 1_655 S
O190 Cd186 2.352 . S
O190 C193 1.258 . S
C191 O188 1.320 . S
C191 O189 1.214 1_455 S
O192 Cd184 2.277 1_655 S
O192 C187 1.209 . S
C193 O190 1.258 . S
C193 O195 1.282 1_455 S
O194 Cd186 2.277 1_655 S
O194 C187 1.226 . S
O195 Cd186 2.356 1_655 S
O195 C193 1.282 1_655 S
C196 O197 1.306 . S
C196 O199 1.160 . S
O197 C196 1.306 . S
O197 Cd198 2.228 . S
Cd198 O197 2.228 . S
Cd198 O202 2.273 . S
Cd198 O206 2.277 . S
O199 C196 1.160 . S
O199 Cd200 2.203 . S
Cd200 O199 2.203 . S
Cd200 O202 2.411 . S
Cd200 O203 2.333 . S
Cd200 O204 2.352 . S
Cd200 O208 2.277 . S
Cd200 O209 2.356 . S
C201 O206 1.209 . S
C201 O208 1.226 . S
O202 Cd198 2.273 . S
O202 Cd200 2.411 . S
O202 C205 1.320 . S
O203 Cd200 2.333 . S
O203 C205 1.214 . S
O204 Cd200 2.352 . S
O204 C207 1.258 . S
C205 O202 1.320 . S
C205 O203 1.214 . S
O206 Cd198 2.277 . S
O206 C201 1.209 . S
C207 O204 1.258 . S
C207 O209 1.282 . S
O208 Cd200 2.277 . S
O208 C201 1.226 . S
O209 Cd200 2.356 . S
O209 C207 1.282 . S
C210 O211 1.306 . S
C210 O213 1.160 . S
O211 C210 1.306 . S
O211 Cd212 2.228 . S
Cd212 O211 2.228 . S
Cd212 O216 2.273 . S
Cd212 O220 2.277 1_455 S
O213 C210 1.160 . S
O213 Cd214 2.203 . S
Cd214 O213 2.203 . S
Cd214 O216 2.411 . S
Cd214 O217 2.333 1_455 S
Cd214 O218 2.352 . S
Cd214 O222 2.277 1_455 S
Cd214 O223 2.356 1_455 S
C215 O220 1.209 . S
C215 O222 1.226 . S
O216 Cd212 2.273 . S
O216 Cd214 2.411 . S
O216 C219 1.320 . S
O217 Cd214 2.333 1_655 S
O217 C219 1.214 1_655 S
O218 Cd214 2.352 . S
O218 C221 1.258 . S
C219 O216 1.320 . S
C219 O217 1.214 1_455 S
O220 Cd212 2.277 1_655 S
O220 C215 1.209 . S
C221 O218 1.258 . S
C221 O223 1.282 1_455 S
O222 Cd214 2.277 1_655 S
O222 C215 1.226 . S
O223 Cd214 2.356 1_655 S
O223 C221 1.282 1_655 S
H224 C236 0.930 . S
H225 C238 0.930 . S
H226 C239 0.930 . S
H227 C243 0.959 . S
H228 C243 0.959 . S
H229 C243 0.961 . S
H230 C244 0.960 . S
H231 C244 0.961 . S
H232 C244 0.959 . S
H233 C247 0.929 . S
H234 C248 0.931 . S
H235 C250 0.930 . S
C236 H224 0.930 . S
C236 C237 1.399 . S
C236 C241 1.399 . S
C237 C236 1.399 . S
C237 C238 1.376 . S
C238 H225 0.930 . S
C238 C237 1.376 . S
C238 C239 1.388 . S
C239 H226 0.930 . S
C239 C238 1.388 . S
C239 C240 1.390 . S
C240 C239 1.390 . S
C240 C241 1.394 . S
C240 C246 1.465 . S
C241 C236 1.399 . S
C241 C240 1.394 . S
C241 C242 1.516 . S
C242 C241 1.516 . S
C242 C243 1.502 . S
C242 C244 1.561 . S
C242 C245 1.526 . S
C243 H227 0.959 . S
C243 H228 0.959 . S
C243 H229 0.961 . S
C243 C242 1.502 . S
C244 H230 0.960 . S
C244 H231 0.961 . S
C244 H232 0.959 . S
C244 C242 1.561 . S
C245 C242 1.526 . S
C245 C246 1.396 . S
C245 C250 1.390 . S
C246 C240 1.465 . S
C246 C245 1.396 . S
C246 C247 1.399 . S
C247 H233 0.929 . S
C247 C246 1.399 . S
C247 C248 1.385 . S
C248 H234 0.931 . S
C248 C247 1.385 . S
C248 C249 1.389 . S
C249 C248 1.389 . S
C249 C250 1.387 . S
C250 H235 0.930 . S
C250 C245 1.390 . S
C250 C249 1.387 . S
H251 C263 0.930 . S
H252 C265 0.930 . S
H253 C266 0.930 . S
H254 C270 0.959 . S
H255 C270 0.959 . S
H256 C270 0.961 . S
H257 C271 0.960 . S
H258 C271 0.961 . S
H259 C271 0.959 . S
H260 C274 0.929 . S
H261 C275 0.931 . S
H262 C277 0.930 . S
C263 H251 0.930 . S
C263 C264 1.399 . S
C263 C268 1.399 . S
C264 C263 1.399 . S
C264 C265 1.376 . S
C265 H252 0.930 . S
C265 C264 1.376 . S
C265 C266 1.388 . S
C266 H253 0.930 . S
C266 C265 1.388 . S
C266 C267 1.390 . S
C267 C266 1.390 . S
C267 C268 1.394 . S
C267 C273 1.465 . S
C268 C263 1.399 . S
C268 C267 1.394 . S
C268 C269 1.516 . S
C269 C268 1.516 . S
C269 C270 1.502 . S
C269 C271 1.561 . S
C269 C272 1.526 . S
C270 H254 0.959 . S
C270 H255 0.959 . S
C270 H256 0.961 . S
C270 C269 1.502 . S
C271 H257 0.960 . S
C271 H258 0.961 . S
C271 H259 0.959 . S
C271 C269 1.561 . S
C272 C269 1.526 . S
C272 C273 1.396 . S
C272 C277 1.390 . S
C273 C267 1.465 . S
C273 C272 1.396 . S
C273 C274 1.399 . S
C274 H260 0.929 . S
C274 C273 1.399 . S
C274 C275 1.385 . S
C275 H261 0.931 . S
C275 C274 1.385 . S
C275 C276 1.389 . S
C276 C275 1.389 . S
C276 C277 1.387 . S
C277 H262 0.930 . S
C277 C272 1.390 . S
C277 C276 1.387 . S
H278 C290 0.930 . S
H279 C292 0.930 . S
H280 C293 0.930 . S
H281 C297 0.959 . S
H282 C297 0.959 . S
H283 C297 0.961 . S
H284 C298 0.960 . S
H285 C298 0.961 . S
H286 C298 0.959 . S
H287 C301 0.929 . S
H288 C302 0.931 . S
H289 C304 0.930 . S
C290 H278 0.930 . S
C290 C291 1.399 . S
C290 C295 1.399 . S
C291 C290 1.399 . S
C291 C292 1.376 . S
C292 H279 0.930 . S
C292 C291 1.376 . S
C292 C293 1.388 . S
C293 H280 0.930 . S
C293 C292 1.388 . S
C293 C294 1.390 . S
C294 C293 1.390 . S
C294 C295 1.394 . S
C294 C300 1.465 . S
C295 C290 1.399 . S
C295 C294 1.394 . S
C295 C296 1.516 . S
C296 C295 1.516 . S
C296 C297 1.502 . S
C296 C298 1.561 . S
C296 C299 1.526 . S
C297 H281 0.959 . S
C297 H282 0.959 . S
C297 H283 0.961 . S
C297 C296 1.502 . S
C298 H284 0.960 . S
C298 H285 0.961 . S
C298 H286 0.959 . S
C298 C296 1.561 . S
C299 C296 1.526 . S
C299 C300 1.396 . S
C299 C304 1.390 . S
C300 C294 1.465 . S
C300 C299 1.396 . S
C300 C301 1.399 . S
C301 H287 0.929 . S
C301 C300 1.399 . S
C301 C302 1.385 . S
C302 H288 0.931 . S
C302 C301 1.385 . S
C302 C303 1.389 . S
C303 C302 1.389 . S
C303 C304 1.387 . S
C304 H289 0.930 . S
C304 C299 1.390 . S
C304 C303 1.387 . S
H305 C317 0.930 . S
H306 C319 0.930 . S
H307 C320 0.930 . S
H308 C324 0.959 . S
H309 C324 0.959 . S
H310 C324 0.961 . S
H311 C325 0.960 . S
H312 C325 0.961 . S
H313 C325 0.959 . S
H314 C328 0.929 . S
H315 C329 0.931 . S
H316 C331 0.930 . S
C317 H305 0.930 . S
C317 C318 1.399 . S
C317 C322 1.399 . S
C318 C317 1.399 . S
C318 C319 1.376 . S
C319 H306 0.930 . S
C319 C318 1.376 . S
C319 C320 1.388 . S
C320 H307 0.930 . S
C320 C319 1.388 . S
C320 C321 1.390 . S
C321 C320 1.390 . S
C321 C322 1.394 . S
C321 C327 1.465 . S
C322 C317 1.399 . S
C322 C321 1.394 . S
C322 C323 1.516 . S
C323 C322 1.516 . S
C323 C324 1.502 . S
C323 C325 1.561 1_556 S
C323 C326 1.526 . S
C324 H308 0.959 . S
C324 H309 0.959 . S
C324 H310 0.961 . S
C324 C323 1.502 . S
C325 H311 0.960 . S
C325 H312 0.961 . S
C325 H313 0.959 . S
C325 C323 1.561 1_554 S
C326 C323 1.526 . S
C326 C327 1.396 . S
C326 C331 1.390 . S
C327 C321 1.465 . S
C327 C326 1.396 . S
C327 C328 1.399 . S
C328 H314 0.929 . S
C328 C327 1.399 . S
C328 C329 1.385 . S
C329 H315 0.931 . S
C329 C328 1.385 . S
C329 C330 1.389 . S
C330 C329 1.389 . S
C330 C331 1.387 . S
C331 H316 0.930 . S
C331 C326 1.390 . S
C331 C330 1.387 . S
H332 C344 0.930 . S
H333 C346 0.930 . S
H334 C347 0.930 . S
H335 C351 0.959 1_556 S
H336 C351 0.959 . S
H337 C351 0.961 . S
H338 C352 0.960 . S
H339 C352 0.961 . S
H340 C352 0.959 . S
H341 C355 0.929 . S
H342 C356 0.931 . S
H343 C358 0.930 1_554 S
C344 H332 0.930 . S
C344 C345 1.399 . S
C344 C349 1.399 . S
C345 C344 1.399 . S
C345 C346 1.376 . S
C346 H333 0.930 . S
C346 C345 1.376 . S
C346 C347 1.388 . S
C347 H334 0.930 . S
C347 C346 1.388 . S
C347 C348 1.390 . S
C348 C347 1.390 . S
C348 C349 1.394 . S
C348 C354 1.465 . S
C349 C344 1.399 . S
C349 C348 1.394 . S
C349 C350 1.516 1_556 S
C350 C349 1.516 1_554 S
C350 C351 1.502 . S
C350 C352 1.561 . S
C350 C353 1.526 1_554 S
C351 H335 0.959 1_554 S
C351 H336 0.959 . S
C351 H337 0.961 . S
C351 C350 1.502 . S
C352 H338 0.960 . S
C352 H339 0.961 . S
C352 H340 0.959 . S
C352 C350 1.561 . S
C353 C350 1.526 1_556 S
C353 C354 1.396 . S
C353 C358 1.390 . S
C354 C348 1.465 . S
C354 C353 1.396 . S
C354 C355 1.399 . S
C355 H341 0.929 . S
C355 C354 1.399 . S
C355 C356 1.385 . S
C356 H342 0.931 . S
C356 C355 1.385 . S
C356 C357 1.389 . S
C357 C356 1.389 . S
C357 C358 1.387 . S
C358 H343 0.930 1_556 S
C358 C353 1.390 . S
C358 C357 1.387 . S
H359 C371 0.930 . S
H360 C373 0.930 . S
H361 C374 0.930 . S
H362 C378 0.959 . S
H363 C378 0.959 . S
H364 C378 0.961 . S
H365 C379 0.960 . S
H366 C379 0.961 . S
H367 C379 0.959 . S
H368 C382 0.929 . S
H369 C383 0.931 . S
H370 C385 0.930 . S
C371 H359 0.930 . S
C371 C372 1.399 . S
C371 C376 1.399 . S
C372 C371 1.399 . S
C372 C373 1.376 . S
C373 H360 0.930 . S
C373 C372 1.376 . S
C373 C374 1.388 . S
C374 H361 0.930 . S
C374 C373 1.388 . S
C374 C375 1.390 . S
C375 C374 1.390 . S
C375 C376 1.394 . S
C375 C381 1.465 . S
C376 C371 1.399 . S
C376 C375 1.394 . S
C376 C377 1.516 . S
C377 C376 1.516 . S
C377 C378 1.502 . S
C377 C379 1.561 . S
C377 C380 1.526 . S
C378 H362 0.959 . S
C378 H363 0.959 . S
C378 H364 0.961 . S
C378 C377 1.502 . S
C379 H365 0.960 . S
C379 H366 0.961 . S
C379 H367 0.959 . S
C379 C377 1.561 . S
C380 C377 1.526 . S
C380 C381 1.396 . S
C380 C385 1.390 . S
C381 C375 1.465 . S
C381 C380 1.396 . S
C381 C382 1.399 . S
C382 H368 0.929 . S
C382 C381 1.399 . S
C382 C383 1.385 . S
C383 H369 0.931 . S
C383 C382 1.385 . S
C383 C384 1.389 . S
C384 C383 1.389 . S
C384 C385 1.387 . S
C385 H370 0.930 . S
C385 C380 1.390 . S
C385 C384 1.387 . S
H386 C398 0.930 . S
H387 C400 0.930 . S
H388 C401 0.930 . S
H389 C405 0.959 . S
H390 C405 0.959 . S
H391 C405 0.961 . S
H392 C406 0.960 . S
H393 C406 0.961 . S
H394 C406 0.959 . S
H395 C409 0.929 . S
H396 C410 0.931 . S
H397 C412 0.930 . S
C398 H386 0.930 . S
C398 C399 1.399 . S
C398 C403 1.399 . S
C399 C398 1.399 . S
C399 C400 1.376 . S
C400 H387 0.930 . S
C400 C399 1.376 . S
C400 C401 1.388 . S
C401 H388 0.930 . S
C401 C400 1.388 . S
C401 C402 1.390 . S
C402 C401 1.390 . S
C402 C403 1.394 . S
C402 C408 1.465 . S
C403 C398 1.399 . S
C403 C402 1.394 . S
C403 C404 1.516 . S
C404 C403 1.516 . S
C404 C405 1.502 . S
C404 C406 1.561 . S
C404 C407 1.526 . S
C405 H389 0.959 . S
C405 H390 0.959 . S
C405 H391 0.961 . S
C405 C404 1.502 . S
C406 H392 0.960 . S
C406 H393 0.961 . S
C406 H394 0.959 . S
C406 C404 1.561 . S
C407 C404 1.526 . S
C407 C408 1.396 . S
C407 C412 1.390 . S
C408 C402 1.465 . S
C408 C407 1.396 . S
C408 C409 1.399 . S
C409 H395 0.929 . S
C409 C408 1.399 . S
C409 C410 1.385 . S
C410 H396 0.931 . S
C410 C409 1.385 . S
C410 C411 1.389 . S
C411 C410 1.389 . S
C411 C412 1.387 . S
C412 H397 0.930 . S
C412 C407 1.390 . S
C412 C411 1.387 . S
H413 C425 0.930 . S
H414 C427 0.930 . S
H415 C428 0.930 . S
H416 C432 0.959 . S
H417 C432 0.959 . S
H418 C432 0.961 . S
H419 C433 0.960 . S
H420 C433 0.961 . S
H421 C433 0.959 . S
H422 C436 0.929 . S
H423 C437 0.931 . S
H424 C439 0.930 . S
C425 H413 0.930 . S
C425 C426 1.399 . S
C425 C430 1.399 . S
C426 C425 1.399 . S
C426 C427 1.376 . S
C427 H414 0.930 . S
C427 C426 1.376 . S
C427 C428 1.388 . S
C428 H415 0.930 . S
C428 C427 1.388 . S
C428 C429 1.390 . S
C429 C428 1.390 . S
C429 C430 1.394 . S
C429 C435 1.465 . S
C430 C425 1.399 . S
C430 C429 1.394 . S
C430 C431 1.516 . S
C431 C430 1.516 . S
C431 C432 1.502 . S
C431 C433 1.561 . S
C431 C434 1.526 . S
C432 H416 0.959 . S
C432 H417 0.959 . S
C432 H418 0.961 . S
C432 C431 1.502 . S
C433 H419 0.960 . S
C433 H420 0.961 . S
C433 H421 0.959 . S
C433 C431 1.561 . S
C434 C431 1.526 . S
C434 C435 1.396 . S
C434 C439 1.390 . S
C435 C429 1.465 . S
C435 C434 1.396 . S
C435 C436 1.399 . S
C436 H422 0.929 . S
C436 C435 1.399 . S
C436 C437 1.385 . S
C437 H423 0.931 . S
C437 C436 1.385 . S
C437 C438 1.389 . S
C438 C437 1.389 . S
C438 C439 1.387 . S
C439 H424 0.930 . S
C439 C434 1.390 . S
C439 C438 1.387 . S
H440 C452 0.930 . S
H441 C454 0.930 . S
H442 C455 0.930 . S
H443 C459 0.959 . S
H444 C459 0.959 . S
H445 C459 0.961 . S
H446 C460 0.960 . S
H447 C460 0.961 1_554 S
H448 C460 0.959 . S
H449 C463 0.929 . S
H450 C464 0.931 . S
H451 C466 0.930 . S
C452 H440 0.930 . S
C452 C453 1.399 . S
C452 C457 1.399 . S
C453 C452 1.399 . S
C453 C454 1.376 . S
C454 H441 0.930 . S
C454 C453 1.376 . S
C454 C455 1.388 . S
C455 H442 0.930 . S
C455 C454 1.388 . S
C455 C456 1.390 . S
C456 C455 1.390 . S
C456 C457 1.394 . S
C456 C462 1.465 . S
C457 C452 1.399 . S
C457 C456 1.394 . S
C457 C458 1.516 . S
C458 C457 1.516 . S
C458 C459 1.502 1_556 S
C458 C460 1.561 . S
C458 C461 1.526 . S
C459 H443 0.959 . S
C459 H444 0.959 . S
C459 H445 0.961 . S
C459 C458 1.502 1_554 S
C460 H446 0.960 . S
C460 H447 0.961 1_556 S
C460 H448 0.959 . S
C460 C458 1.561 . S
C461 C458 1.526 . S
C461 C462 1.396 . S
C461 C466 1.390 1_556 S
C462 C456 1.465 . S
C462 C461 1.396 . S
C462 C463 1.399 . S
C463 H449 0.929 . S
C463 C462 1.399 . S
C463 C464 1.385 . S
C464 H450 0.931 . S
C464 C463 1.385 . S
C464 C465 1.389 . S
C465 C464 1.389 . S
C465 C466 1.387 1_556 S
C466 H451 0.930 . S
C466 C461 1.390 1_554 S
C466 C465 1.387 1_554 S
H467 C479 0.930 . S
H468 C481 0.930 . S
H469 C482 0.930 . S
H470 C486 0.959 . S
H471 C486 0.959 . S
H472 C486 0.961 . S
H473 C487 0.960 . S
H474 C487 0.961 . S
H475 C487 0.959 . S
H476 C490 0.929 . S
H477 C491 0.931 . S
H478 C493 0.930 . S
C479 H467 0.930 . S
C479 C480 1.399 . S
C479 C484 1.399 . S
C480 C479 1.399 . S
C480 C481 1.376 . S
C481 H468 0.930 . S
C481 C480 1.376 . S
C481 C482 1.388 . S
C482 H469 0.930 . S
C482 C481 1.388 . S
C482 C483 1.390 . S
C483 C482 1.390 . S
C483 C484 1.394 . S
C483 C489 1.465 . S
C484 C479 1.399 . S
C484 C483 1.394 . S
C484 C485 1.516 . S
C485 C484 1.516 . S
C485 C486 1.502 . S
C485 C487 1.561 . S
C485 C488 1.526 . S
C486 H470 0.959 . S
C486 H471 0.959 . S
C486 H472 0.961 . S
C486 C485 1.502 . S
C487 H473 0.960 . S
C487 H474 0.961 . S
C487 H475 0.959 . S
C487 C485 1.561 . S
C488 C485 1.526 . S
C488 C489 1.396 . S
C488 C493 1.390 . S
C489 C483 1.465 . S
C489 C488 1.396 . S
C489 C490 1.399 . S
C490 H476 0.929 . S
C490 C489 1.399 . S
C490 C491 1.385 . S
C491 H477 0.931 . S
C491 C490 1.385 . S
C491 C492 1.389 . S
C492 C491 1.389 . S
C492 C493 1.387 . S
C493 H478 0.930 . S
C493 C488 1.390 . S
C493 C492 1.387 . S
H494 C506 0.930 . S
H495 C508 0.930 . S
H496 C509 0.930 . S
H497 C513 0.959 . S
H498 C513 0.959 . S
H499 C513 0.961 . S
H500 C514 0.960 . S
H501 C514 0.961 . S
H502 C514 0.959 . S
H503 C517 0.929 . S
H504 C518 0.931 . S
H505 C520 0.930 . S
C506 H494 0.930 . S
C506 C507 1.399 . S
C506 C511 1.399 . S
C507 C506 1.399 . S
C507 C508 1.376 . S
C508 H495 0.930 . S
C508 C507 1.376 . S
C508 C509 1.388 . S
C509 H496 0.930 . S
C509 C508 1.388 . S
C509 C510 1.390 . S
C510 C509 1.390 . S
C510 C511 1.394 . S
C510 C516 1.465 . S
C511 C506 1.399 . S
C511 C510 1.394 . S
C511 C512 1.516 . S
C512 C511 1.516 . S
C512 C513 1.502 . S
C512 C514 1.561 . S
C512 C515 1.526 . S
C513 H497 0.959 . S
C513 H498 0.959 . S
C513 H499 0.961 . S
C513 C512 1.502 . S
C514 H500 0.960 . S
C514 H501 0.961 . S
C514 H502 0.959 . S
C514 C512 1.561 . S
C515 C512 1.526 . S
C515 C516 1.396 . S
C515 C520 1.390 . S
C516 C510 1.465 . S
C516 C515 1.396 . S
C516 C517 1.399 . S
C517 H503 0.929 . S
C517 C516 1.399 . S
C517 C518 1.385 . S
C518 H504 0.931 . S
C518 C517 1.385 . S
C518 C519 1.389 . S
C519 C518 1.389 . S
C519 C520 1.387 . S
C520 H505 0.930 . S
C520 C515 1.390 . S
C520 C519 1.387 . S
H521 C533 0.930 . S
H522 C535 0.930 . S
H523 C536 0.930 . S
H524 C540 0.959 . S
H525 C540 0.959 . S
H526 C540 0.961 . S
H527 C541 0.960 . S
H528 C541 0.961 . S
H529 C541 0.959 . S
H530 C544 0.929 . S
H531 C545 0.931 . S
H532 C547 0.930 . S
C533 H521 0.930 . S
C533 C534 1.399 . S
C533 C538 1.399 . S
C534 C533 1.399 . S
C534 C535 1.376 . S
C535 H522 0.930 . S
C535 C534 1.376 . S
C535 C536 1.388 . S
C536 H523 0.930 . S
C536 C535 1.388 . S
C536 C537 1.390 . S
C537 C536 1.390 . S
C537 C538 1.394 . S
C537 C543 1.465 . S
C538 C533 1.399 . S
C538 C537 1.394 . S
C538 C539 1.516 . S
C539 C538 1.516 . S
C539 C540 1.502 . S
C539 C541 1.561 . S
C539 C542 1.526 . S
C540 H524 0.959 . S
C540 H525 0.959 . S
C540 H526 0.961 . S
C540 C539 1.502 . S
C541 H527 0.960 . S
C541 H528 0.961 . S
C541 H529 0.959 . S
C541 C539 1.561 . S
C542 C539 1.526 . S
C542 C543 1.396 . S
C542 C547 1.390 . S
C543 C537 1.465 . S
C543 C542 1.396 . S
C543 C544 1.399 . S
C544 H530 0.929 . S
C544 C543 1.399 . S
C544 C545 1.385 . S
C545 H531 0.931 . S
C545 C544 1.385 . S
C545 C546 1.389 . S
C546 C545 1.389 . S
C546 C547 1.387 . S
C547 H532 0.930 . S
C547 C542 1.390 . S
C547 C546 1.387 . S
H548 C560 0.930 . S
H549 C562 0.930 . S
H550 C563 0.930 . S
H551 C567 0.959 . S
H552 C567 0.959 . S
H553 C567 0.961 . S
H554 C568 0.960 . S
H555 C568 0.961 . S
H556 C568 0.959 . S
H557 C571 0.929 . S
H558 C572 0.931 . S
H559 C574 0.930 . S
C560 H548 0.930 . S
C560 C561 1.399 . S
C560 C565 1.399 . S
C561 C560 1.399 . S
C561 C562 1.376 . S
C562 H549 0.930 . S
C562 C561 1.376 . S
C562 C563 1.388 . S
C563 H550 0.930 . S
C563 C562 1.388 . S
C563 C564 1.390 . S
C564 C563 1.390 . S
C564 C565 1.394 . S
C564 C570 1.465 . S
C565 C560 1.399 . S
C565 C564 1.394 . S
C565 C566 1.516 . S
C566 C565 1.516 . S
C566 C567 1.502 . S
C566 C568 1.561 . S
C566 C569 1.526 . S
C567 H551 0.959 . S
C567 H552 0.959 . S
C567 H553 0.961 . S
C567 C566 1.502 . S
C568 H554 0.960 . S
C568 H555 0.961 . S
C568 H556 0.959 . S
C568 C566 1.561 . S
C569 C566 1.526 . S
C569 C570 1.396 . S
C569 C574 1.390 . S
C570 C564 1.465 . S
C570 C569 1.396 . S
C570 C571 1.399 . S
C571 H557 0.929 . S
C571 C570 1.399 . S
C571 C572 1.385 . S
C572 H558 0.931 . S
C572 C571 1.385 . S
C572 C573 1.389 . S
C573 C572 1.389 . S
C573 C574 1.387 . S
C574 H559 0.930 . S
C574 C569 1.390 . S
C574 C573 1.387 . S
H575 C587 0.930 . S
H576 C589 0.930 . S
H577 C590 0.930 . S
H578 C594 0.959 . S
H579 C594 0.959 . S
H580 C594 0.961 . S
H581 C595 0.960 . S
H582 C595 0.961 . S
H583 C595 0.959 1_556 S
H584 C598 0.929 . S
H585 C599 0.931 . S
H586 C601 0.930 . S
C587 H575 0.930 . S
C587 C588 1.399 . S
C587 C592 1.399 . S
C588 C587 1.399 . S
C588 C589 1.376 . S
C589 H576 0.930 . S
C589 C588 1.376 . S
C589 C590 1.388 . S
C590 H577 0.930 . S
C590 C589 1.388 . S
C590 C591 1.390 . S
C591 C590 1.390 . S
C591 C592 1.394 . S
C591 C597 1.465 . S
C592 C587 1.399 . S
C592 C591 1.394 . S
C592 C593 1.517 . S
C593 C592 1.517 . S
C593 C594 1.501 1_556 S
C593 C595 1.561 1_556 S
C593 C596 1.526 . S
C594 H578 0.959 . S
C594 H579 0.959 . S
C594 H580 0.961 . S
C594 C593 1.501 1_554 S
C595 H581 0.960 . S
C595 H582 0.961 . S
C595 H583 0.959 1_554 S
C595 C593 1.561 1_554 S
C596 C593 1.526 . S
C596 C597 1.396 . S
C596 C601 1.390 1_556 S
C597 C591 1.465 . S
C597 C596 1.396 . S
C597 C598 1.399 . S
C598 H584 0.929 . S
C598 C597 1.399 . S
C598 C599 1.385 . S
C599 H585 0.931 . S
C599 C598 1.385 . S
C599 C600 1.389 . S
C600 C599 1.389 . S
C600 C601 1.387 1_556 S
C601 H586 0.930 . S
C601 C596 1.390 1_554 S
C601 C600 1.387 1_554 S
H602 C614 0.930 . S
H603 C616 0.930 . S
H604 C617 0.930 . S
H605 C621 0.959 . S
H606 C621 0.959 . S
H607 C621 0.961 . S
H608 C622 0.960 . S
H609 C622 0.961 . S
H610 C622 0.959 . S
H611 C625 0.929 . S
H612 C626 0.931 . S
H613 C628 0.930 . S
C614 H602 0.930 . S
C614 C615 1.399 . S
C614 C619 1.399 . S
C615 C614 1.399 . S
C615 C616 1.376 . S
C616 H603 0.930 . S
C616 C615 1.376 . S
C616 C617 1.388 . S
C617 H604 0.930 . S
C617 C616 1.388 . S
C617 C618 1.390 . S
C618 C617 1.390 . S
C618 C619 1.394 . S
C618 C624 1.465 . S
C619 C614 1.399 . S
C619 C618 1.394 . S
C619 C620 1.516 . S
C620 C619 1.516 . S
C620 C621 1.502 . S
C620 C622 1.561 . S
C620 C623 1.526 . S
C621 H605 0.959 . S
C621 H606 0.959 . S
C621 H607 0.961 . S
C621 C620 1.502 . S
C622 H608 0.960 . S
C622 H609 0.961 . S
C622 H610 0.959 . S
C622 C620 1.561 . S
C623 C620 1.526 . S
C623 C624 1.396 . S
C623 C628 1.390 . S
C624 C618 1.465 . S
C624 C623 1.396 . S
C624 C625 1.399 . S
C625 H611 0.929 . S
C625 C624 1.399 . S
C625 C626 1.385 . S
C626 H612 0.931 . S
C626 C625 1.385 . S
C626 C627 1.389 . S
C627 C626 1.389 . S
C627 C628 1.387 . S
C628 H613 0.930 . S
C628 C623 1.390 . S
C628 C627 1.387 . S
H629 C641 0.930 . S
H630 C643 0.930 . S
H631 C644 0.930 . S
H632 C648 0.959 . S
H633 C648 0.959 . S
H634 C648 0.961 . S
H635 C649 0.960 . S
H636 C649 0.961 . S
H637 C649 0.959 . S
H638 C652 0.929 . S
H639 C653 0.931 . S
H640 C655 0.930 . S
C641 H629 0.930 . S
C641 C642 1.399 . S
C641 C646 1.399 . S
C642 C641 1.399 . S
C642 C643 1.376 . S
C643 H630 0.930 . S
C643 C642 1.376 . S
C643 C644 1.388 . S
C644 H631 0.930 . S
C644 C643 1.388 . S
C644 C645 1.390 . S
C645 C644 1.390 . S
C645 C646 1.394 . S
C645 C651 1.465 . S
C646 C641 1.399 . S
C646 C645 1.394 . S
C646 C647 1.516 . S
C647 C646 1.516 . S
C647 C648 1.502 . S
C647 C649 1.561 . S
C647 C650 1.526 . S
C648 H632 0.959 . S
C648 H633 0.959 . S
C648 H634 0.961 . S
C648 C647 1.502 . S
C649 H635 0.960 . S
C649 H636 0.961 . S
C649 H637 0.959 . S
C649 C647 1.561 . S
C650 C647 1.526 . S
C650 C651 1.396 . S
C650 C655 1.390 . S
C651 C645 1.465 . S
C651 C650 1.396 . S
C651 C652 1.399 . S
C652 H638 0.929 . S
C652 C651 1.399 . S
C652 C653 1.385 . S
C653 H639 0.931 . S
C653 C652 1.385 . S
C653 C654 1.389 . S
C654 C653 1.389 . S
C654 C655 1.387 . S
C655 H640 0.930 . S
C655 C650 1.390 . S
C655 C654 1.387 . S
H656 C668 0.930 1_655 S
H657 C670 0.930 . S
H658 C671 0.930 . S
H659 C675 0.959 1_455 S
H660 C675 0.959 . S
H661 C675 0.961 . S
H662 C676 0.960 . S
H663 C676 0.961 . S
H664 C676 0.959 . S
H665 C679 0.929 . S
H666 C680 0.931 . S
H667 C682 0.930 1_654 S
C668 H656 0.930 1_455 S
C668 C669 1.399 . S
C668 C673 1.399 . S
C669 C668 1.399 . S
C669 C670 1.376 . S
C670 H657 0.930 . S
C670 C669 1.376 . S
C670 C671 1.388 . S
C671 H658 0.930 . S
C671 C670 1.388 . S
C671 C672 1.390 . S
C672 C671 1.390 . S
C672 C673 1.394 . S
C672 C678 1.465 . S
C673 C668 1.399 . S
C673 C672 1.394 . S
C673 C674 1.516 1_455 S
C674 C673 1.516 1_655 S
C674 C675 1.502 . S
C674 C676 1.561 . S
C674 C677 1.526 1_655 S
C675 H659 0.959 1_655 S
C675 H660 0.959 . S
C675 H661 0.961 . S
C675 C674 1.502 . S
C676 H662 0.960 . S
C676 H663 0.961 . S
C676 H664 0.959 . S
C676 C674 1.561 . S
C677 C674 1.526 1_455 S
C677 C678 1.396 . S
C677 C682 1.390 1_554 S
C678 C672 1.465 . S
C678 C677 1.396 . S
C678 C679 1.399 1_554 S
C679 H665 0.929 . S
C679 C678 1.399 1_556 S
C679 C680 1.385 . S
C680 H666 0.931 . S
C680 C679 1.385 . S
C680 C681 1.389 . S
C681 C680 1.389 . S
C681 C682 1.387 . S
C682 H667 0.930 1_456 S
C682 C677 1.390 1_556 S
C682 C681 1.387 . S
H683 C695 0.930 . S
H684 C697 0.930 . S
H685 C698 0.930 . S
H686 C702 0.959 . S
H687 C702 0.959 . S
H688 C702 0.961 . S
H689 C703 0.960 . S
H690 C703 0.961 . S
H691 C703 0.959 . S
H692 C706 0.929 . S
H693 C707 0.931 . S
H694 C709 0.930 . S
C695 H683 0.930 . S
C695 C696 1.399 . S
C695 C700 1.399 . S
C696 C695 1.399 . S
C696 C697 1.376 . S
C697 H684 0.930 . S
C697 C696 1.376 . S
C697 C698 1.388 . S
C698 H685 0.930 . S
C698 C697 1.388 . S
C698 C699 1.390 . S
C699 C698 1.390 . S
C699 C700 1.394 . S
C699 C705 1.465 . S
C700 C695 1.399 . S
C700 C699 1.394 . S
C700 C701 1.516 . S
C701 C700 1.516 . S
C701 C702 1.502 . S
C701 C703 1.561 . S
C701 C704 1.526 . S
C702 H686 0.959 . S
C702 H687 0.959 . S
C702 H688 0.961 . S
C702 C701 1.502 . S
C703 H689 0.960 . S
C703 H690 0.961 . S
C703 H691 0.959 . S
C703 C701 1.561 . S
C704 C701 1.526 . S
C704 C705 1.396 . S
C704 C709 1.390 . S
C705 C699 1.465 . S
C705 C704 1.396 . S
C705 C706 1.399 . S
C706 H692 0.929 . S
C706 C705 1.399 . S
C706 C707 1.385 . S
C707 H693 0.931 . S
C707 C706 1.385 . S
C707 C708 1.389 . S
C708 C707 1.389 . S
C708 C709 1.387 . S
C709 H694 0.930 . S
C709 C704 1.390 . S
C709 C708 1.387 . S
H710 C722 0.930 . S
H711 C724 0.930 . S
H712 C725 0.930 . S
H713 C729 0.959 . S
H714 C729 0.959 . S
H715 C729 0.961 . S
H716 C730 0.960 . S
H717 C730 0.961 . S
H718 C730 0.959 . S
H719 C733 0.929 . S
H720 C734 0.931 . S
H721 C736 0.930 . S
C722 H710 0.930 . S
C722 C723 1.399 . S
C722 C727 1.399 . S
C723 C722 1.399 . S
C723 C724 1.376 . S
C724 H711 0.930 . S
C724 C723 1.376 . S
C724 C725 1.388 . S
C725 H712 0.930 . S
C725 C724 1.388 . S
C725 C726 1.390 . S
C726 C725 1.390 . S
C726 C727 1.394 . S
C726 C732 1.465 . S
C727 C722 1.399 . S
C727 C726 1.394 . S
C727 C728 1.516 . S
C728 C727 1.516 . S
C728 C729 1.502 . S
C728 C730 1.561 . S
C728 C731 1.526 . S
C729 H713 0.959 . S
C729 H714 0.959 . S
C729 H715 0.961 . S
C729 C728 1.502 . S
C730 H716 0.960 . S
C730 H717 0.961 . S
C730 H718 0.959 . S
C730 C728 1.561 . S
C731 C728 1.526 . S
C731 C732 1.396 . S
C731 C736 1.390 . S
C732 C726 1.465 . S
C732 C731 1.396 . S
C732 C733 1.399 . S
C733 H719 0.929 . S
C733 C732 1.399 . S
C733 C734 1.385 . S
C734 H720 0.931 . S
C734 C733 1.385 . S
C734 C735 1.389 . S
C735 C734 1.389 . S
C735 C736 1.387 . S
C736 H721 0.930 . S
C736 C731 1.390 . S
C736 C735 1.387 . S
H737 C749 0.930 . S
H738 C751 0.930 . S
H739 C752 0.930 . S
H740 C756 0.959 . S
H741 C756 0.959 . S
H742 C756 0.961 . S
H743 C757 0.960 . S
H744 C757 0.961 . S
H745 C757 0.959 . S
H746 C760 0.929 . S
H747 C761 0.931 . S
H748 C763 0.930 . S
C749 H737 0.930 . S
C749 C750 1.399 . S
C749 C754 1.399 . S
C750 C749 1.399 . S
C750 C751 1.376 . S
C751 H738 0.930 . S
C751 C750 1.376 . S
C751 C752 1.388 . S
C752 H739 0.930 . S
C752 C751 1.388 . S
C752 C753 1.390 . S
C753 C752 1.390 . S
C753 C754 1.394 . S
C753 C759 1.465 . S
C754 C749 1.399 . S
C754 C753 1.394 . S
C754 C755 1.516 . S
C755 C754 1.516 . S
C755 C756 1.502 . S
C755 C757 1.561 . S
C755 C758 1.526 . S
C756 H740 0.959 . S
C756 H741 0.959 . S
C756 H742 0.961 . S
C756 C755 1.502 . S
C757 H743 0.960 . S
C757 H744 0.961 . S
C757 H745 0.959 . S
C757 C755 1.561 . S
C758 C755 1.526 . S
C758 C759 1.396 . S
C758 C763 1.390 . S
C759 C753 1.465 . S
C759 C758 1.396 . S
C759 C760 1.399 . S
C760 H746 0.929 . S
C760 C759 1.399 . S
C760 C761 1.385 . S
C761 H747 0.931 . S
C761 C760 1.385 . S
C761 C762 1.389 . S
C762 C761 1.389 . S
C762 C763 1.387 . S
C763 H748 0.930 . S
C763 C758 1.390 . S
C763 C762 1.387 . S
H764 C776 0.930 . S
H765 C778 0.930 . S
H766 C779 0.930 . S
H767 C783 0.959 . S
H768 C783 0.959 . S
H769 C783 0.961 . S
H770 C784 0.960 . S
H771 C784 0.961 . S
H772 C784 0.959 . S
H773 C787 0.929 . S
H774 C788 0.931 . S
H775 C790 0.930 . S
C776 H764 0.930 . S
C776 C777 1.399 . S
C776 C781 1.399 . S
C777 C776 1.399 . S
C777 C778 1.376 . S
C778 H765 0.930 . S
C778 C777 1.376 . S
C778 C779 1.388 . S
C779 H766 0.930 . S
C779 C778 1.388 . S
C779 C780 1.390 . S
C780 C779 1.390 . S
C780 C781 1.394 . S
C780 C786 1.465 . S
C781 C776 1.399 . S
C781 C780 1.394 . S
C781 C782 1.516 . S
C782 C781 1.516 . S
C782 C783 1.502 . S
C782 C784 1.561 . S
C782 C785 1.526 . S
C783 H767 0.959 . S
C783 H768 0.959 . S
C783 H769 0.961 . S
C783 C782 1.502 . S
C784 H770 0.960 . S
C784 H771 0.961 . S
C784 H772 0.959 . S
C784 C782 1.561 . S
C785 C782 1.526 . S
C785 C786 1.396 . S
C785 C790 1.390 . S
C786 C780 1.465 . S
C786 C785 1.396 . S
C786 C787 1.399 . S
C787 H773 0.929 . S
C787 C786 1.399 . S
C787 C788 1.385 . S
C788 H774 0.931 . S
C788 C787 1.385 . S
C788 C789 1.389 . S
C789 C788 1.389 . S
C789 C790 1.387 . S
C790 H775 0.930 . S
C790 C785 1.390 . S
C790 C789 1.387 . S
H791 C803 0.930 . S
H792 C805 0.930 . S
H793 C806 0.930 . S
H794 C810 0.959 . S
H795 C810 0.959 . S
H796 C810 0.961 . S
H797 C811 0.960 . S
H798 C811 0.961 . S
H799 C811 0.959 . S
H800 C814 0.929 . S
H801 C815 0.931 . S
H802 C817 0.930 . S
C803 H791 0.930 . S
C803 C804 1.399 . S
C803 C808 1.399 . S
C804 C803 1.399 . S
C804 C805 1.376 . S
C805 H792 0.930 . S
C805 C804 1.376 . S
C805 C806 1.388 . S
C806 H793 0.930 . S
C806 C805 1.388 . S
C806 C807 1.390 . S
C807 C806 1.390 . S
C807 C808 1.394 . S
C807 C813 1.465 . S
C808 C803 1.399 . S
C808 C807 1.394 . S
C808 C809 1.516 . S
C809 C808 1.516 . S
C809 C810 1.502 . S
C809 C811 1.561 . S
C809 C812 1.526 . S
C810 H794 0.959 . S
C810 H795 0.959 . S
C810 H796 0.961 . S
C810 C809 1.502 . S
C811 H797 0.960 . S
C811 H798 0.961 . S
C811 H799 0.959 . S
C811 C809 1.561 . S
C812 C809 1.526 . S
C812 C813 1.396 . S
C812 C817 1.390 . S
C813 C807 1.465 . S
C813 C812 1.396 . S
C813 C814 1.399 . S
C814 H800 0.929 . S
C814 C813 1.399 . S
C814 C815 1.385 . S
C815 H801 0.931 . S
C815 C814 1.385 . S
C815 C816 1.389 . S
C816 C815 1.389 . S
C816 C817 1.387 . S
C817 H802 0.930 . S
C817 C812 1.390 . S
C817 C816 1.387 . S
H818 C830 0.930 . S
H819 C832 0.930 . S
H820 C833 0.927 1_545 S
H821 C837 0.959 . S
H822 C837 0.959 . S
H823 C837 0.961 . S
H824 C838 0.960 . S
H825 C838 0.961 . S
H826 C838 0.959 . S
H827 C841 0.929 . S
H828 C842 0.931 . S
H829 C844 0.930 . S
C830 H818 0.930 . S
C830 C831 1.399 . S
C830 C835 1.399 . S
C831 C830 1.399 . S
C831 C832 1.376 . S
C832 H819 0.930 . S
C832 C831 1.376 . S
C832 C833 1.391 . S
C833 H820 0.927 1_565 S
C833 C832 1.391 . S
C833 C834 1.389 . S
C834 C833 1.389 . S
C834 C835 1.431 . S
C834 C840 1.435 1_565 S
C835 C830 1.399 . S
C835 C834 1.431 . S
C835 C836 1.516 . S
C836 C835 1.516 . S
C836 C837 1.502 . S
C836 C838 1.561 . S
C836 C839 1.526 1_565 S
C837 H821 0.959 . S
C837 H822 0.959 . S
C837 H823 0.961 . S
C837 C836 1.502 . S
C838 H824 0.960 . S
C838 H825 0.961 . S
C838 H826 0.959 . S
C838 C836 1.561 . S
C839 C836 1.526 1_545 S
C839 C840 1.396 . S
C839 C844 1.390 . S
C840 C834 1.435 1_545 S
C840 C839 1.396 . S
C840 C841 1.399 . S
C841 H827 0.929 . S
C841 C840 1.399 . S
C841 C842 1.385 . S
C842 H828 0.931 . S
C842 C841 1.385 . S
C842 C843 1.389 . S
C843 C842 1.389 . S
C843 C844 1.387 . S
C844 H829 0.930 . S
C844 C839 1.390 . S
C844 C843 1.387 . S
H845 C857 0.930 . S
H846 C859 0.930 . S
H847 C860 0.930 . S
H848 C864 0.959 1_554 S
H849 C864 0.959 . S
H850 C864 0.961 . S
H851 C865 0.960 . S
H852 C865 0.961 . S
H853 C865 0.959 . S
H854 C868 0.893 1_545 S
H855 C869 0.931 . S
H856 C871 0.930 . S
C857 H845 0.930 . S
C857 C858 1.399 1_655 S
C857 C862 1.399 1_556 S
C858 C857 1.399 1_455 S
C858 C859 1.376 1_556 S
C859 H846 0.930 . S
C859 C858 1.376 1_554 S
C859 C860 1.388 . S
C860 H847 0.930 . S
C860 C859 1.388 . S
C860 C861 1.390 . S
C861 C860 1.390 . S
C861 C862 1.394 1_455 S
C861 C867 1.465 1_545 S
C862 C857 1.399 1_554 S
C862 C861 1.394 1_655 S
C862 C863 1.516 1_545 S
C863 C862 1.516 1_565 S
C863 C864 1.502 1_554 S
C863 C865 1.561 1_654 S
C863 C866 1.526 . S
C864 H848 0.959 1_556 S
C864 H849 0.959 . S
C864 H850 0.961 . S
C864 C863 1.502 1_556 S
C865 H851 0.960 . S
C865 H852 0.961 . S
C865 H853 0.959 . S
C865 C863 1.561 1_456 S
C866 C863 1.526 . S
C866 C867 1.396 1_655 S
C866 C871 1.390 . S
C867 C861 1.465 1_565 S
C867 C866 1.396 1_455 S
C867 C868 1.401 . S
C868 H854 0.893 1_565 S
C868 C867 1.401 . S
C868 C869 1.421 . S
C869 H855 0.931 . S
C869 C868 1.421 . S
C869 C870 1.406 . S
C870 C869 1.406 . S
C870 C871 1.377 1_455 S
C871 H856 0.930 . S
C871 C866 1.390 . S
C871 C870 1.377 1_655 S
H872 C884 0.930 . S
H873 C886 0.930 . S
H874 C887 0.930 . S
H875 C891 0.959 . S
H876 C891 0.959 . S
H877 C891 0.961 . S
H878 C892 0.960 . S
H879 C892 0.961 . S
H880 C892 0.959 . S
H881 C895 0.929 . S
H882 C896 0.931 . S
H883 C898 0.930 . S
C884 H872 0.930 . S
C884 C885 1.402 . S
C884 C889 1.399 . S
C885 C884 1.402 . S
C885 C886 1.372 1_655 S
C886 H873 0.930 . S
C886 C885 1.372 1_455 S
C886 C887 1.388 . S
C887 H874 0.930 . S
C887 C886 1.388 . S
C887 C888 1.390 . S
C888 C887 1.390 . S
C888 C889 1.394 1_455 S
C888 C894 1.465 . S
C889 C884 1.399 . S
C889 C888 1.394 1_655 S
C889 C890 1.516 . S
C890 C889 1.516 . S
C890 C891 1.502 . S
C890 C892 1.561 1_655 S
C890 C893 1.526 . S
C891 H875 0.959 . S
C891 H876 0.959 . S
C891 H877 0.961 . S
C891 C890 1.502 . S
C892 H878 0.960 . S
C892 H879 0.961 . S
C892 H880 0.959 . S
C892 C890 1.561 1_455 S
C893 C890 1.526 . S
C893 C894 1.396 1_655 S
C893 C898 1.390 . S
C894 C888 1.465 . S
C894 C893 1.396 1_455 S
C894 C895 1.399 . S
C895 H881 0.929 . S
C895 C894 1.399 . S
C895 C896 1.385 . S
C896 H882 0.931 . S
C896 C895 1.385 . S
C896 C897 1.389 1_455 S
C897 C896 1.389 1_655 S
C897 C898 1.387 . S
C898 H883 0.930 . S
C898 C893 1.390 . S
C898 C897 1.387 . S
H899 C911 0.930 . S
H900 C913 0.930 . S
H901 C914 0.930 . S
H902 C918 0.959 . S
H903 C918 0.959 . S
H904 C918 0.961 . S
H905 C919 0.960 . S
H906 C919 0.961 . S
H907 C919 0.959 . S
H908 C922 0.929 . S
H909 C923 0.931 . S
H910 C925 0.930 . S
C911 H899 0.930 . S
C911 C912 1.399 . S
C911 C916 1.399 . S
C912 C911 1.399 . S
C912 C913 1.376 . S
C913 H900 0.930 . S
C913 C912 1.376 . S
C913 C914 1.388 . S
C914 H901 0.930 . S
C914 C913 1.388 . S
C914 C915 1.390 . S
C915 C914 1.390 . S
C915 C916 1.394 . S
C915 C921 1.465 . S
C916 C911 1.399 . S
C916 C915 1.394 . S
C916 C917 1.516 . S
C917 C916 1.516 . S
C917 C918 1.502 . S
C917 C919 1.561 . S
C917 C920 1.526 . S
C918 H902 0.959 . S
C918 H903 0.959 . S
C918 H904 0.961 . S
C918 C917 1.502 . S
C919 H905 0.960 . S
C919 H906 0.961 . S
C919 H907 0.959 . S
C919 C917 1.561 . S
C920 C917 1.526 . S
C920 C921 1.396 . S
C920 C925 1.390 . S
C921 C915 1.465 . S
C921 C920 1.396 . S
C921 C922 1.399 . S
C922 H908 0.929 . S
C922 C921 1.399 . S
C922 C923 1.385 . S
C923 H909 0.931 . S
C923 C922 1.385 . S
C923 C924 1.389 . S
C924 C923 1.389 . S
C924 C925 1.387 . S
C925 H910 0.930 . S
C925 C920 1.390 . S
C925 C924 1.387 . S
H926 C938 0.930 . S
H927 C940 0.930 . S
H928 C941 0.930 . S
H929 C945 0.959 . S
H930 C945 0.959 . S
H931 C945 0.961 . S
H932 C946 0.960 . S
H933 C946 0.961 . S
H934 C946 0.959 . S
H935 C949 0.929 . S
H936 C950 0.931 . S
H937 C952 0.930 1_554 S
C938 H926 0.930 . S
C938 C939 1.399 . S
C938 C943 1.399 . S
C939 C938 1.399 . S
C939 C940 1.376 . S
C940 H927 0.930 . S
C940 C939 1.376 . S
C940 C941 1.388 . S
C941 H928 0.930 . S
C941 C940 1.388 . S
C941 C942 1.390 . S
C942 C941 1.390 . S
C942 C943 1.394 . S
C942 C948 1.465 . S
C943 C938 1.399 . S
C943 C942 1.394 . S
C943 C944 1.516 . S
C944 C943 1.516 . S
C944 C945 1.502 . S
C944 C946 1.561 . S
C944 C947 1.526 . S
C945 H929 0.959 . S
C945 H930 0.959 . S
C945 H931 0.961 . S
C945 C944 1.502 . S
C946 H932 0.960 . S
C946 H933 0.961 . S
C946 H934 0.959 . S
C946 C944 1.561 . S
C947 C944 1.526 . S
C947 C948 1.396 . S
C947 C952 1.390 1_554 S
C948 C942 1.465 . S
C948 C947 1.396 . S
C948 C949 1.399 1_554 S
C949 H935 0.929 . S
C949 C948 1.399 1_556 S
C949 C950 1.385 . S
C950 H936 0.931 . S
C950 C949 1.385 . S
C950 C951 1.389 . S
C951 C950 1.389 . S
C951 C952 1.387 . S
C952 H937 0.930 1_556 S
C952 C947 1.390 1_556 S
C952 C951 1.387 . S
H953 C965 0.930 . S
H954 C967 0.930 . S
H955 C968 0.930 . S
H956 C972 0.959 . S
H957 C972 0.959 . S
H958 C972 0.961 . S
H959 C973 0.960 . S
H960 C973 0.961 . S
H961 C973 0.959 . S
H962 C976 0.929 . S
H963 C977 0.931 . S
H964 C979 0.930 . S
C965 H953 0.930 . S
C965 C966 1.399 . S
C965 C970 1.399 . S
C966 C965 1.399 . S
C966 C967 1.376 . S
C967 H954 0.930 . S
C967 C966 1.376 . S
C967 C968 1.388 . S
C968 H955 0.930 . S
C968 C967 1.388 . S
C968 C969 1.390 . S
C969 C968 1.390 . S
C969 C970 1.394 . S
C969 C975 1.465 . S
C970 C965 1.399 . S
C970 C969 1.394 . S
C970 C971 1.516 . S
C971 C970 1.516 . S
C971 C972 1.502 . S
C971 C973 1.561 . S
C971 C974 1.526 . S
C972 H956 0.959 . S
C972 H957 0.959 . S
C972 H958 0.961 . S
C972 C971 1.502 . S
C973 H959 0.960 . S
C973 H960 0.961 . S
C973 H961 0.959 . S
C973 C971 1.561 . S
C974 C971 1.526 . S
C974 C975 1.396 . S
C974 C979 1.390 . S
C975 C969 1.465 . S
C975 C974 1.396 . S
C975 C976 1.399 . S
C976 H962 0.929 . S
C976 C975 1.399 . S
C976 C977 1.385 . S
C977 H963 0.931 . S
C977 C976 1.385 . S
C977 C978 1.389 . S
C978 C977 1.389 . S
C978 C979 1.387 . S
C979 H964 0.930 . S
C979 C974 1.390 . S
C979 C978 1.387 . S
H980 C992 0.930 . S
H981 C994 0.930 . S
H982 C995 0.930 . S
H983 C999 0.959 . S
H984 C999 0.959 . S
H985 C999 0.961 . S
H986 C1000 0.960 . S
H987 C1000 0.961 . S
H988 C1000 0.959 . S
H989 C1003 0.929 . S
H990 C1004 0.931 . S
H991 C1006 0.930 . S
C992 H980 0.930 . S
C992 C993 1.399 . S
C992 C997 1.399 . S
C993 C992 1.399 . S
C993 C994 1.376 . S
C994 H981 0.930 . S
C994 C993 1.376 . S
C994 C995 1.388 . S
C995 H982 0.930 . S
C995 C994 1.388 . S
C995 C996 1.390 . S
C996 C995 1.390 . S
C996 C997 1.394 . S
C996 C1002 1.465 . S
C997 C992 1.399 . S
C997 C996 1.394 . S
C997 C998 1.516 . S
C998 C997 1.516 . S
C998 C999 1.502 . S
C998 C1000 1.561 . S
C998 C1001 1.526 . S
C999 H983 0.959 . S
C999 H984 0.959 . S
C999 H985 0.961 . S
C999 C998 1.502 . S
C1000 H986 0.960 . S
C1000 H987 0.961 . S
C1000 H988 0.959 . S
C1000 C998 1.561 . S
C1001 C998 1.526 . S
C1001 C1002 1.396 . S
C1001 C1006 1.390 . S
C1002 C996 1.465 . S
C1002 C1001 1.396 . S
C1002 C1003 1.399 . S
C1003 H989 0.929 . S
C1003 C1002 1.399 . S
C1003 C1004 1.385 . S
C1004 H990 0.931 . S
C1004 C1003 1.385 . S
C1004 C1005 1.389 . S
C1005 C1004 1.389 . S
C1005 C1006 1.387 . S
C1006 H991 0.930 . S
C1006 C1001 1.390 . S
C1006 C1005 1.387 . S
H1007 C1019 0.930 . S
H1008 C1021 0.930 . S
H1009 C1022 0.930 . S
H1010 C1026 0.959 . S
H1011 C1026 0.959 . S
H1012 C1026 0.961 . S
H1013 C1027 0.960 . S
H1014 C1027 0.961 . S
H1015 C1027 0.959 . S
H1016 C1030 0.929 . S
H1017 C1031 0.931 . S
H1018 C1033 0.930 . S
C1019 H1007 0.930 . S
C1019 C1020 1.399 . S
C1019 C1024 1.399 . S
C1020 C1019 1.399 . S
C1020 C1021 1.376 . S
C1021 H1008 0.930 . S
C1021 C1020 1.376 . S
C1021 C1022 1.388 . S
C1022 H1009 0.930 . S
C1022 C1021 1.388 . S
C1022 C1023 1.390 . S
C1023 C1022 1.390 . S
C1023 C1024 1.394 . S
C1023 C1029 1.465 . S
C1024 C1019 1.399 . S
C1024 C1023 1.394 . S
C1024 C1025 1.516 . S
C1025 C1024 1.516 . S
C1025 C1026 1.502 . S
C1025 C1027 1.561 . S
C1025 C1028 1.526 . S
C1026 H1010 0.959 . S
C1026 H1011 0.959 . S
C1026 H1012 0.961 . S
C1026 C1025 1.502 . S
C1027 H1013 0.960 . S
C1027 H1014 0.961 . S
C1027 H1015 0.959 . S
C1027 C1025 1.561 . S
C1028 C1025 1.526 . S
C1028 C1029 1.396 . S
C1028 C1033 1.390 . S
C1029 C1023 1.465 . S
C1029 C1028 1.396 . S
C1029 C1030 1.399 . S
C1030 H1016 0.929 . S
C1030 C1029 1.399 . S
C1030 C1031 1.385 . S
C1031 H1017 0.931 . S
C1031 C1030 1.385 . S
C1031 C1032 1.389 . S
C1032 C1031 1.389 . S
C1032 C1033 1.387 . S
C1033 H1018 0.930 . S
C1033 C1028 1.390 . S
C1033 C1032 1.387 . S
H1034 C1046 0.930 . S
H1035 C1048 0.930 . S
H1036 C1049 0.930 . S
H1037 C1053 0.959 1_554 S
H1038 C1053 0.959 . S
H1039 C1053 0.961 1_554 S
H1040 C1054 0.960 . S
H1041 C1054 0.961 . S
H1042 C1054 0.959 . S
H1043 C1057 0.929 . S
H1044 C1058 0.931 . S
H1045 C1060 0.930 . S
C1046 H1034 0.930 . S
C1046 C1047 1.399 . S
C1046 C1051 1.399 . S
C1047 C1046 1.399 . S
C1047 C1048 1.376 . S
C1048 H1035 0.930 . S
C1048 C1047 1.376 . S
C1048 C1049 1.388 1_565 S
C1049 H1036 0.930 . S
C1049 C1048 1.388 1_545 S
C1049 C1050 1.389 1_545 S
C1050 C1049 1.389 1_565 S
C1050 C1051 1.402 . S
C1050 C1056 1.459 1_565 S
C1051 C1046 1.399 . S
C1051 C1050 1.402 . S
C1051 C1052 1.516 . S
C1052 C1051 1.516 . S
C1052 C1053 1.502 1_554 S
C1052 C1054 1.561 1_554 S
C1052 C1055 1.525 1_564 S
C1053 H1037 0.959 1_556 S
C1053 H1038 0.959 . S
C1053 H1039 0.961 1_556 S
C1053 C1052 1.502 1_556 S
C1054 H1040 0.960 . S
C1054 H1041 0.961 . S
C1054 H1042 0.959 . S
C1054 C1052 1.561 1_556 S
C1055 C1052 1.525 1_546 S
C1055 C1056 1.394 1_556 S
C1055 C1060 1.392 . S
C1056 C1050 1.459 1_545 S
C1056 C1055 1.394 1_554 S
C1056 C1057 1.399 . S
C1057 H1043 0.929 . S
C1057 C1056 1.399 . S
C1057 C1058 1.385 1_554 S
C1058 H1044 0.931 . S
C1058 C1057 1.385 1_556 S
C1058 C1059 1.389 . S
C1059 C1058 1.389 . S
C1059 C1060 1.387 . S
C1060 H1045 0.930 . S
C1060 C1055 1.392 . S
C1060 C1059 1.387 . S
H1061 C1073 0.930 . S
H1062 C1075 0.930 . S
H1063 C1076 0.930 . S
H1064 C1080 0.959 1_655 S
H1065 C1080 0.959 . S
H1066 C1080 0.961 . S
H1067 C1081 0.960 . S
H1068 C1081 0.961 . S
H1069 C1081 0.959 . S
H1070 C1084 0.929 . S
H1071 C1085 0.931 . S
H1072 C1087 0.930 . S
C1073 H1061 0.930 . S
C1073 C1074 1.399 . S
C1073 C1078 1.399 . S
C1074 C1073 1.399 . S
C1074 C1075 1.376 . S
C1075 H1062 0.930 . S
C1075 C1074 1.376 . S
C1075 C1076 1.388 1_545 S
C1076 H1063 0.930 . S
C1076 C1075 1.388 1_565 S
C1076 C1077 1.396 . S
C1077 C1076 1.396 . S
C1077 C1078 1.359 1_565 S
C1077 C1083 1.490 . S
C1078 C1073 1.399 . S
C1078 C1077 1.359 1_545 S
C1078 C1079 1.516 . S
C1079 C1078 1.516 . S
C1079 C1080 1.502 . S
C1079 C1081 1.561 . S
C1079 C1082 1.526 1_545 S
C1080 H1064 0.959 1_455 S
C1080 H1065 0.959 . S
C1080 H1066 0.961 . S
C1080 C1079 1.502 . S
C1081 H1067 0.960 . S
C1081 H1068 0.961 . S
C1081 H1069 0.959 . S
C1081 C1079 1.561 . S
C1082 C1079 1.526 1_565 S
C1082 C1083 1.396 . S
C1082 C1087 1.390 . S
C1083 C1077 1.490 . S
C1083 C1082 1.396 . S
C1083 C1084 1.399 . S
C1084 H1070 0.929 . S
C1084 C1083 1.399 . S
C1084 C1085 1.385 . S
C1085 H1071 0.931 . S
C1085 C1084 1.385 . S
C1085 C1086 1.389 . S
C1086 C1085 1.389 . S
C1086 C1087 1.387 . S
C1087 H1072 0.930 . S
C1087 C1082 1.390 . S
C1087 C1086 1.387 . S
C237 C131 1.457 . S
C249 C5 1.446 . S
C264 C201 1.438 . S
C276 C19 1.451 . S
C291 C33 1.438 . S
C303 C117 1.449 . S
C318 C47 1.454 . S
C330 C215 1.454 . S
C345 C61 1.438 . S
C357 C145 1.450 . S
C372 C187 1.439 . S
C384 C75 1.445 . S
C399 C159 1.456 . S
C411 C89 1.442 . S
C426 C103 1.438 . S
C438 C173 1.446 . S
C453 C56 1.569 . S
C465 C42 1.489 1_556 S
C480 C168 1.514 . S
C492 C112 1.541 . S
C507 C84 1.539 . S
C519 C14 1.524 . S
C534 C126 1.493 . S
C546 C182 1.562 . S
C561 C0 1.510 . S
C573 C70 1.545 . S
C588 C210 1.570 . S
C600 C140 1.490 1_556 S
C615 C98 1.530 . S
C627 C28 1.532 . S
C642 C154 1.498 . S
C654 C196 1.556 . S
C669 C9 0.617 . S
C681 C65 0.593 . S
C696 C79 0.573 . S
C708 C23 0.586 . S
C723 C93 0.619 . S
C735 C37 0.601 . S
C750 C51 0.573 . S
C762 C107 0.588 . S
C777 C149 0.572 . S
C789 C121 0.592 . S
C804 C163 0.619 . S
C816 C135 0.603 . S
C831 C205 0.581 . S
C843 C177 0.609 . S
C858 C219 0.597 . S
C870 C191 0.577 . S
C885 C67 1.727 1_655 S
C897 C11 1.715 1_655 S
C912 C81 1.740 . S
C924 C25 1.726 . S
C939 C95 1.727 . S
C951 C39 1.715 . S
C966 C53 1.711 . S
C978 C109 1.719 . S
C993 C123 1.711 . S
C1005 C151 1.721 . S
C1020 C165 1.713 . S
C1032 C137 1.725 . S
C1047 C207 1.732 . S
C1059 C179 1.745 . S
C1074 C221 1.725 . S
C1086 C193 1.740 . S
