# Generated by pormake.
# Topology unn, (4)-cn, num edge types: 1
# Building blocks:
#     Node 0, Type 0, BuildingBlock: QUQFOY_clean_sbu_1, # of connection points: 4
#     Node 1, Type 0, BuildingBlock: QUQFOY_clean_sbu_1, # of connection points: 4
#     Node 2, Type 0, BuildingBlock: QUQFOY_clean_sbu_1, # of connection points: 4
#     Node 3, Type 0, BuildingBlock: QUQFOY_clean_sbu_1, # of connection points: 4
#     Node 4, Type 0, BuildingBlock: QUQFOY_clean_sbu_1, # of connection points: 4
#     Node 5, Type 0, BuildingBlock: QUQFOY_clean_sbu_1, # of connection points: 4
#     Node 6, Type 0, BuildingBlock: QUQFOY_clean_sbu_1, # of connection points: 4
#     Node 7, Type 0, BuildingBlock: QUQFOY_clean_sbu_1, # of connection points: 4
#     Node 8, Type 0, BuildingBlock: QUQFOY_clean_sbu_1, # of connection points: 4
#     Node 9, Type 0, BuildingBlock: QUQFOY_clean_sbu_1, # of connection points: 4
#     Node 10, Type 0, BuildingBlock: QUQFOY_clean_sbu_1, # of connection points: 4
#     Node 11, Type 0, BuildingBlock: QUQFOY_clean_sbu_1, # of connection points: 4
#     Node 12, Type 0, BuildingBlock: QUQFOY_clean_sbu_1, # of connection points: 4
#     Node 13, Type 0, BuildingBlock: QUQFOY_clean_sbu_1, # of connection points: 4
#     Node 14, Type 0, BuildingBlock: QUQFOY_clean_sbu_1, # of connection points: 4
#     Node 15, Type 0, BuildingBlock: QUQFOY_clean_sbu_1, # of connection points: 4
#     Node 16, Type 0, BuildingBlock: QUQFOY_clean_sbu_1, # of connection points: 4
#     Node 17, Type 0, BuildingBlock: QUQFOY_clean_sbu_1, # of connection points: 4
#     Edge 18, Type (0, 0), BuildingBlock: OJICUG_clean_linker_0, # of connection points: 2
#     Edge 19, Type (0, 0), BuildingBlock: OJICUG_clean_linker_0, # of connection points: 2
#     Edge 20, Type (0, 0), BuildingBlock: OJICUG_clean_linker_0, # of connection points: 2
#     Edge 21, Type (0, 0), BuildingBlock: OJICUG_clean_linker_0, # of connection points: 2
#     Edge 22, Type (0, 0), BuildingBlock: OJICUG_clean_linker_0, # of connection points: 2
#     Edge 23, Type (0, 0), BuildingBlock: OJICUG_clean_linker_0, # of connection points: 2
#     Edge 24, Type (0, 0), BuildingBlock: OJICUG_clean_linker_0, # of connection points: 2
#     Edge 25, Type (0, 0), BuildingBlock: OJICUG_clean_linker_0, # of connection points: 2
#     Edge 26, Type (0, 0), BuildingBlock: OJICUG_clean_linker_0, # of connection points: 2
#     Edge 27, Type (0, 0), BuildingBlock: OJICUG_clean_linker_0, # of connection points: 2
#     Edge 28, Type (0, 0), BuildingBlock: OJICUG_clean_linker_0, # of connection points: 2
#     Edge 29, Type (0, 0), BuildingBlock: OJICUG_clean_linker_0, # of connection points: 2
#     Edge 30, Type (0, 0), BuildingBlock: OJICUG_clean_linker_0, # of connection points: 2
#     Edge 31, Type (0, 0), BuildingBlock: OJICUG_clean_linker_0, # of connection points: 2
#     Edge 32, Type (0, 0), BuildingBlock: OJICUG_clean_linker_0, # of connection points: 2
#     Edge 33, Type (0, 0), BuildingBlock: OJICUG_clean_linker_0, # of connection points: 2
#     Edge 34, Type (0, 0), BuildingBlock: OJICUG_clean_linker_0, # of connection points: 2
#     Edge 35, Type (0, 0), BuildingBlock: OJICUG_clean_linker_0, # of connection points: 2
#     Edge 36, Type (0, 0), BuildingBlock: OJICUG_clean_linker_0, # of connection points: 2
#     Edge 37, Type (0, 0), BuildingBlock: OJICUG_clean_linker_0, # of connection points: 2
#     Edge 38, Type (0, 0), BuildingBlock: OJICUG_clean_linker_0, # of connection points: 2
#     Edge 39, Type (0, 0), BuildingBlock: OJICUG_clean_linker_0, # of connection points: 2
#     Edge 40, Type (0, 0), BuildingBlock: OJICUG_clean_linker_0, # of connection points: 2
#     Edge 41, Type (0, 0), BuildingBlock: OJICUG_clean_linker_0, # of connection points: 2
#     Edge 42, Type (0, 0), BuildingBlock: OJICUG_clean_linker_0, # of connection points: 2
#     Edge 43, Type (0, 0), BuildingBlock: OJICUG_clean_linker_0, # of connection points: 2
#     Edge 44, Type (0, 0), BuildingBlock: OJICUG_clean_linker_0, # of connection points: 2
#     Edge 45, Type (0, 0), BuildingBlock: OJICUG_clean_linker_0, # of connection points: 2
#     Edge 46, Type (0, 0), BuildingBlock: OJICUG_clean_linker_0, # of connection points: 2
#     Edge 47, Type (0, 0), BuildingBlock: OJICUG_clean_linker_0, # of connection points: 2
#     Edge 48, Type (0, 0), BuildingBlock: OJICUG_clean_linker_0, # of connection points: 2
#     Edge 49, Type (0, 0), BuildingBlock: OJICUG_clean_linker_0, # of connection points: 2
#     Edge 50, Type (0, 0), BuildingBlock: OJICUG_clean_linker_0, # of connection points: 2
#     Edge 51, Type (0, 0), BuildingBlock: OJICUG_clean_linker_0, # of connection points: 2
#     Edge 52, Type (0, 0), BuildingBlock: OJICUG_clean_linker_0, # of connection points: 2
#     Edge 53, Type (0, 0), BuildingBlock: OJICUG_clean_linker_0, # of connection points: 2
# Relax obj value: 0.142
# Max RMSD: 0.250
# Mean RMSD: 0.196
data_MOF--net-unn--node1-QUQFOY_clean_sbu_1--edge1-OJICUG_clean_linker_0
_symmetry_space_group_name_H-M    P1
_symmetry_Int_Tables_number       1
_symmetry_cell_setting            triclinic
loop_
_symmetry_equiv_pos_as_xyz
'x, y, z'
_cell_length_a     32.851908
_cell_length_b     33.734619
_cell_length_c     29.790654
_cell_angle_alpha  90.591514
_cell_angle_beta   88.165798
_cell_angle_gamma 121.62017
loop_
_atom_site_label
_atom_site_type_symbol
_atom_site_fract_x
_atom_site_fract_y
_atom_site_fract_z
_atom_type_partial_charge
O0 O 0.12627 0.77159 0.27085 0.0
Cd1 Cd 0.06966 0.71103 0.24741 0.0
Cd2 Cd 1.03272 0.76046 0.25142 0.0
O3 O 0.07952 0.79152 0.30492 0.0
O4 O 0.08615 0.66555 0.26716 0.0
O5 O 1.02581 0.67058 0.29644 0.0
C6 C 1.05387 0.65453 0.29859 0.0
C7 C 0.94993 0.72482 0.24939 0.0
C8 C 0.11974 0.79438 0.30136 0.0
C9 C 0.05701 0.74105 0.16206 0.0
O10 O 0.06026 0.77388 0.18618 0.0
O11 O 1.05253 0.70528 0.18088 0.0
O12 O 0.97754 0.76961 0.25142 0.0
O13 O 0.96907 0.70007 0.25437 0.0
O14 O 0.49828 0.2785 0.21215 0.0
Cd15 Cd 0.47651 0.32529 0.21601 0.0
Cd16 Cd 0.40815 0.26231 0.2623 0.0
O17 O 0.42263 0.22234 0.21578 0.0
O18 O 0.49511 0.36201 0.15848 0.0
O19 O 0.42102 0.30547 0.17625 0.0
C20 C 0.45099 0.33562 0.14736 0.0
C21 C 0.34644 0.2766 0.27789 0.0
C22 C 0.46628 0.23634 0.20513 0.0
C23 C 0.4755 0.33686 0.31366 0.0
O24 O 0.45477 0.29283 0.31301 0.0
O25 O 0.48238 0.35911 0.27708 0.0
O26 O 0.34207 0.23773 0.29002 0.0
O27 O 0.38239 0.30393 0.25182 0.0
O28 O 0.83025 0.17468 0.22837 0.0
Cd29 Cd 0.78142 0.10466 0.23438 0.0
Cd30 Cd 0.84166 0.11223 0.28928 0.0
O31 O 0.8881 0.16199 0.24085 0.0
O32 O 0.74983 0.08077 0.17537 0.0
O33 O 0.80469 0.06815 0.20112 0.0
C34 C 0.7775 0.06446 0.16904 0.0
C35 C 0.82126 0.03848 0.31574 0.0
C36 C 0.87435 0.18828 0.22555 0.0
C37 C 0.75996 0.10614 0.32838 0.0
O38 O 0.80491 0.13402 0.32767 0.0
O39 O 0.74037 0.08088 0.29424 0.0
O40 O 0.85937 0.07554 0.32951 0.0
O41 O 0.79922 0.04312 0.28304 0.0
O42 O 0.13041 0.35684 0.76821 0.0
Cd43 Cd 0.07564 0.35956 0.74114 0.0
Cd44 Cd 1.03546 0.27184 0.749 0.0
O45 O 0.07988 0.29257 0.80514 0.0
O46 O 0.085 0.41889 0.76536 0.0
O47 O 1.02682 0.34839 0.78791 0.0
C48 C 1.05128 0.39278 0.79427 0.0
C49 C 0.95208 0.22657 0.74375 0.0
C50 C 0.12118 0.32958 0.8012 0.0
C51 C 0.06703 0.31157 0.65855 0.0
O52 O 0.06707 0.28273 0.68571 0.0
O53 O 0.06237 0.34445 0.67375 0.0
O54 O 0.97692 0.20742 0.74943 0.0
O55 O 0.97403 0.27133 0.74595 0.0
O56 O 0.85104 0.64634 0.71279 0.0
Cd57 Cd 0.81098 0.6767 0.72138 0.0
Cd58 Cd 0.87601 0.72941 0.77252 0.0
O59 O 0.91531 0.71488 0.72518 0.0
O60 O 0.77342 0.67182 0.66746 0.0
O61 O 0.84254 0.73516 0.68375 0.0
C62 C 0.80753 0.71363 0.65694 0.0
C63 C 0.86527 0.79094 0.79273 0.0
C64 C 0.89629 0.67322 0.71045 0.0
C65 C 0.79412 0.66334 0.81868 0.0
O66 O 0.83804 0.67664 0.81714 0.0
O67 O 0.77539 0.66813 0.78393 0.0
O68 O 0.90223 0.79044 0.80591 0.0
O69 O 0.83866 0.76035 0.76369 0.0
O70 O 0.36583 1.02152 0.74929 0.0
Cd71 Cd 0.42781 0.08237 0.73476 0.0
Cd72 Cd 0.37451 0.11272 0.74226 0.0
O73 O 0.34455 0.06092 0.79265 0.0
O74 O 0.47542 0.07086 0.76077 0.0
O75 O 0.45336 0.11749 0.79139 0.0
C76 C 0.4734 0.09344 0.79539 0.0
C77 C 0.41233 0.19364 0.74206 0.0
C78 C 0.34193 1.0227 0.78296 0.0
C79 C 0.39755 0.09903 0.65186 0.0
O80 O 0.36176 0.08984 0.67719 0.0
O81 O 0.43614 0.10721 0.66939 0.0
O82 O 0.36627 0.16729 0.74678 0.0
O83 O 0.4371 0.17401 0.74348 0.0
O84 O 0.77838 0.10368 0.61748 0.0
Cd85 Cd 0.71543 0.04591 0.60025 0.0
Cd86 Cd 0.68956 0.10263 0.60162 0.0
O87 O 0.7382 0.12981 0.65433 0.0
O88 O 0.71643 0.99382 0.62931 0.0
O89 O 0.67437 1.0242 0.65543 0.0
C90 C 0.69296 0.99922 0.66211 0.0
C91 C 0.60797 0.07066 0.59331 0.0
C92 C 0.77634 0.12875 0.64853 0.0
C93 C 0.70872 0.07832 0.51433 0.0
O94 O 0.71921 0.11364 0.53823 0.0
O95 O 0.69609 0.03983 0.53361 0.0
O96 O 0.63675 0.1152 0.59734 0.0
O97 O 0.62447 0.04413 0.60125 0.0
O98 O 1.03428 0.64086 0.58104 0.0
Cd99 Cd 0.09788 0.64644 0.56724 0.0
Cd100 Cd 1.04501 0.56208 0.56353 0.0
O101 O 1.01006 0.57564 0.61737 0.0
O102 O 0.14166 0.70521 0.59834 0.0
O103 O 0.12242 0.63538 0.62333 0.0
C104 C 0.13984 0.67918 0.63098 0.0
C105 C 0.08566 0.52271 0.55167 0.0
C106 C 1.00788 0.61199 0.61144 0.0
C107 C 0.07146 0.61247 0.47935 0.0
O108 O 1.03534 0.5819 0.50211 0.0
O109 O 0.10993 0.64045 0.49934 0.0
O110 O 1.03933 0.50052 0.55345 0.0
O111 O 0.10868 0.56606 0.56321 0.0
O112 O 0.44685 0.3482 0.61056 0.0
Cd113 Cd 0.4402 0.39871 0.5819 0.0
Cd114 Cd 0.53127 0.44149 0.57905 0.0
O115 O 0.51721 0.39932 0.63688 0.0
O116 O 0.38127 0.39002 0.61269 0.0
O117 O 0.4547 0.44898 0.62548 0.0
C118 C 0.40999 0.42479 0.63747 0.0
C119 C 0.57566 0.52266 0.56857 0.0
C120 C 0.47923 0.35885 0.63856 0.0
C121 C 0.48197 0.40202 0.49393 0.0
O122 O 0.51693 0.40933 0.51738 0.0
O123 O 0.44706 0.4032 0.51243 0.0
O124 O 0.59659 0.49939 0.57239 0.0
O125 O 0.52995 0.50054 0.57554 0.0
O126 O 0.79415 0.68856 0.11466 0.0
Cd127 Cd 0.74214 0.69606 0.08787 0.0
Cd128 Cd 0.69946 0.60888 0.0908 0.0
O129 O 0.74096 0.6229 0.14807 0.0
O130 O 0.75536 0.75591 0.11395 0.0
O131 O 0.69347 0.68641 0.13437 0.0
C132 C 0.72053 0.73042 0.14216 0.0
C133 C 0.61725 0.5667 0.07952 0.0
C134 C 0.78309 0.6589 0.14581 0.0
C135 C 0.73591 0.65314 0.00317 0.0
O136 O 0.73438 0.62269 0.02915 0.0
O137 O 0.73117 0.6855 0.01967 0.0
O138 O 0.64043 0.54585 0.08523 0.0
O139 O 0.63962 0.61106 0.08616 0.0
O140 O 0.51283 0.97377 0.04111 0.0
Cd141 Cd 0.47027 1.00155 0.04531 0.0
Cd142 Cd 0.53535 0.05813 0.09334 0.0
O143 O 0.57595 0.04428 0.04644 0.0
O144 O 0.43616 0.9888 0.98743 0.0
O145 O 0.49701 0.05827 0.00579 0.0
C146 C 0.46691 1.03164 0.97634 0.0
C147 C 0.52518 0.12006 0.11357 0.0
C148 C 0.55758 1.00158 0.03534 0.0
C149 C 0.45402 0.99179 0.14172 0.0
O150 O 0.49824 1.00615 0.13928 0.0
O151 O 0.43375 0.99424 0.10693 0.0
O152 O 0.56214 0.11932 0.12625 0.0
O153 O 0.49795 0.0893 0.0849 0.0
O154 O 1.01813 0.34972 0.08554 0.0
Cd155 Cd 0.08203 0.40824 0.06884 0.0
Cd156 Cd 1.03059 0.4409 0.06925 0.0
O157 O 0.99698 0.39284 0.12274 0.0
O158 O 0.12748 0.3938 0.09471 0.0
O159 O 0.11099 0.44489 0.12417 0.0
C160 C 0.12869 0.41877 0.12855 0.0
C161 C 0.07255 0.52163 0.0611 0.0
C162 C 0.99346 0.35358 0.11693 0.0
C163 C 1.0554 0.42184 0.98261 0.0
O164 O 1.01868 0.41316 0.0061 0.0
O165 O 0.09314 0.43059 0.00225 0.0
O166 O 1.02623 0.49756 0.0638 0.0
O167 O 0.09493 0.50062 0.06979 0.0
O168 O 0.46223 0.46506 0.93054 0.0
Cd169 Cd 0.40432 0.40225 0.91394 0.0
Cd170 Cd 0.36875 0.45133 0.91568 0.0
O171 O 0.41447 0.47927 0.97059 0.0
O172 O 0.42302 0.35913 0.93593 0.0
O173 O 0.36686 0.36822 0.96917 0.0
C174 C 0.3958 0.35312 0.9708 0.0
C175 C 0.28579 0.41011 0.9113 0.0
C176 C 0.45556 0.48446 0.96423 0.0
C177 C 0.38913 0.42878 0.82807 0.0
O178 O 0.3975 0.46434 0.8507 0.0
O179 O 0.38133 0.39241 0.84862 0.0
O180 O 0.31018 0.45505 0.91448 0.0
O181 O 0.30796 0.38832 0.91707 0.0
O182 O 0.82801 0.94375 0.89085 0.0
Cd183 Cd 0.79672 0.98242 0.89781 0.0
Cd184 Cd 0.73418 0.91665 0.94596 0.0
O185 O 0.75499 0.88228 0.89847 0.0
O186 O 0.80251 1.02089 0.8439 0.0
O187 O 0.73972 0.9505 0.85824 0.0
C188 C 0.76123 0.98654 0.83245 0.0
C189 C 0.67152 0.93087 0.95733 0.0
C190 C 0.79891 0.90037 0.88552 0.0
C191 C 0.79346 0.9916 0.99763 0.0
O192 O 0.7797 0.94875 0.99714 0.0
O193 O 0.79685 1.01204 0.96065 0.0
O194 O 0.66638 0.89201 0.97068 0.0
O195 O 0.70865 0.9579 0.93264 0.0
O196 O 0.18356 0.83452 0.88203 0.0
Cd197 Cd 0.13526 0.7642 0.88477 0.0
Cd198 Cd 0.19401 0.77321 0.9412 0.0
O199 O 0.24291 0.82458 0.89599 0.0
O200 O 0.10433 0.74747 0.82521 0.0
O201 O 0.15529 0.72741 0.84632 0.0
C202 C 0.13006 0.72969 0.81522 0.0
C203 C 0.17292 0.69949 0.96669 0.0
C204 C 0.2281 0.85012 0.88122 0.0
C205 C 0.1098 0.76589 0.97703 0.0
O206 O 0.15472 0.79369 0.97755 0.0
O207 O 0.09144 0.73997 0.94296 0.0
O208 O 0.20956 0.73627 0.98289 0.0
O209 O 0.15349 0.70464 0.93196 0.0
O210 O 0.46232 1.03126 0.43957 0.0
Cd211 Cd 0.40807 1.03398 0.41085 0.0
Cd212 Cd 0.36904 0.94713 0.41705 0.0
O213 O 0.41083 0.96628 0.4748 0.0
O214 O 0.41813 0.09349 0.43433 0.0
O215 O 0.35871 1.02346 0.45691 0.0
C216 C 0.38442 0.06786 0.46345 0.0
C217 C 0.2867 0.89866 0.40813 0.0
C218 C 0.45202 1.00354 0.47241 0.0
C219 C 0.40243 0.98849 0.32758 0.0
O220 O 0.40291 0.95982 0.35464 0.0
O221 O 0.39659 1.02056 0.343 0.0
O222 O 0.31336 0.88167 0.41477 0.0
O223 O 0.3059 0.9431 0.41217 0.0
O224 O 0.18611 0.3109 0.37154 0.0
Cd225 Cd 0.1401 0.33459 0.37792 0.0
Cd226 Cd 0.20351 0.38905 0.43058 0.0
O227 O 0.24759 0.38148 0.38195 0.0
O228 O 0.10459 0.31905 0.32088 0.0
O229 O 0.16118 0.3908 0.3389 0.0
C230 C 0.132 0.36246 0.3097 0.0
C231 C 0.1838 0.44371 0.45488 0.0
C232 C 0.23075 0.34003 0.36733 0.0
C233 C 0.12089 0.3172 0.47329 0.0
O234 O 0.16527 0.3321 0.47133 0.0
O235 O 0.10146 0.32178 0.43896 0.0
O236 O 0.22154 0.44567 0.46955 0.0
O237 O 0.16258 0.4161 0.42184 0.0
O238 O 0.6962 0.69316 0.43426 0.0
Cd239 Cd 0.75505 0.75607 0.41817 0.0
Cd240 Cd 0.69464 0.77862 0.41644 0.0
O241 O 0.66631 0.72978 0.47036 0.0
O242 O 0.80798 0.75699 0.45011 0.0
O243 O 0.77124 0.79345 0.47383 0.0
C244 C 0.79844 0.77748 0.48211 0.0
C245 C 0.73081 0.85937 0.40772 0.0
C246 C 0.66903 0.6935 0.46535 0.0
C247 C 0.72459 0.76321 0.33078 0.0
O248 O 0.68648 0.75074 0.35375 0.0
O249 O 0.76343 0.77699 0.35102 0.0
O250 O 0.68468 0.83231 0.41062 0.0
O251 O 0.75614 0.84137 0.41591 0.0
C252 C 1.04887 0.70696 0.0853 0.0
C253 C 0.06148 0.74577 0.11265 0.0
H254 H 1.05264 0.6829 0.01926 0.0
C255 C 0.08137 0.78984 0.09249 0.0
H256 H 1.03291 0.67246 0.09988 0.0
C257 C 0.09271 0.79568 0.04658 0.0
C258 C 0.08329 0.75745 0.01989 0.0
H259 H 0.09114 0.82034 0.11259 0.0
H260 H 0.11177 0.83056 0.03244 0.0
C261 C 0.05936 0.71273 0.0391 0.0
C262 C 0.37419 0.32842 0.05157 0.0
C263 C 0.40623 0.34055 0.01454 0.0
H264 H 0.36323 0.31694 0.12286 0.0
C265 C 0.45241 0.34933 0.02157 0.0
H266 H 0.33861 0.32201 0.04728 0.0
C267 C 0.46713 0.34861 0.06485 0.0
C268 C 0.43551 0.33752 0.10189 0.0
H269 H 0.47825 0.35942 0.99391 0.0
H270 H 0.50331 0.35669 0.06932 0.0
C271 C 0.38847 0.32611 0.0948 0.0
C272 C 0.77002 0.05941 0.08557 0.0
C273 C 0.78102 0.04532 0.12524 0.0
H274 H 0.76717 0.05479 0.01383 0.0
C275 C 0.7987 1.01536 0.12236 0.0
H276 H 0.75691 0.08294 0.08673 0.0
C277 C 0.80415 0.9989 0.08068 0.0
C278 C 0.79341 1.0132 0.041 0.0
H279 H 0.80775 1.00416 0.1524 0.0
H280 H 0.81651 0.97477 0.07949 0.0
C281 C 0.77667 0.04393 0.0438 0.0
C282 C 0.73405 0.12794 0.44551 0.0
C283 C 0.71366 0.08341 0.46491 0.0
H284 H 0.76394 0.16976 0.3861 0.0
C285 C 0.70057 0.04504 0.4368 0.0
H286 H 0.7441 0.15823 0.46605 0.0
C287 C 0.71087 0.05173 0.39052 0.0
C288 C 0.7348 0.09686 0.37208 0.0
H289 H 0.68437 1.01027 0.45073 0.0
H290 H 0.70367 1.02223 0.36989 0.0
C291 C 0.74493 0.13462 0.39964 0.0
C292 C 1.02105 0.60183 0.41425 0.0
C293 C 0.06656 0.61736 0.43104 0.0
H294 H 0.98118 0.60132 0.35847 0.0
C295 C 0.1067 0.63891 0.40172 0.0
H296 H 0.98939 0.58497 0.43612 0.0
C297 C 0.10162 0.6467 0.35682 0.0
C298 C 0.05652 0.63418 0.34097 0.0
H299 H 0.14206 0.65081 0.41374 0.0
H300 H 0.13351 0.6656 0.33547 0.0
C301 C 1.01617 0.61079 0.36977 0.0
C302 C 0.43867 0.36844 0.42248 0.0
C303 C 0.48147 0.38996 0.44589 0.0
H304 H 0.40373 0.33459 0.36186 0.0
C305 C 0.52352 0.39744 0.42368 0.0
H306 H 0.40569 0.36201 0.43858 0.0
C307 C 0.52241 0.38223 0.37957 0.0
C308 C 0.47923 0.35914 0.35716 0.0
H309 H 0.55716 0.4142 0.44072 0.0
H310 H 0.55481 0.38703 0.36361 0.0
C311 C 0.43753 0.35284 0.37862 0.0
C312 C 1.00761 0.38611 0.86614 0.0
C313 C 1.04959 0.41017 0.83934 0.0
H314 H 0.97665 0.37136 0.93271 0.0
C315 C 0.09276 0.44224 0.85956 0.0
H316 H 0.97402 0.36082 0.8514 0.0
C317 C 0.09473 0.44674 0.90627 0.0
C318 C 1.05323 0.42042 0.93324 0.0
H319 H 0.1258 0.46085 0.83974 0.0
H320 H 0.12887 0.46976 0.92132 0.0
C321 C 1.0093 0.39171 0.91267 0.0
C322 C 0.76478 0.62536 0.93904 0.0
C323 C 0.74503 0.65139 0.95454 0.0
H324 H 0.79552 0.60859 0.88316 0.0
C325 C 0.73543 0.67625 0.92338 0.0
H326 H 0.77243 0.60568 0.96216 0.0
C327 C 0.74739 0.67666 0.87778 0.0
C328 C 0.76988 0.65294 0.86302 0.0
H329 H 0.71981 0.69625 0.93436 0.0
H330 H 0.742 0.69798 0.85466 0.0
C331 C 0.77764 0.62663 0.89381 0.0
C332 C 0.48663 0.09566 0.92132 0.0
C333 C 0.47066 0.04873 0.93001 0.0
H334 H 0.50006 0.14705 0.87134 0.0
C335 C 0.46091 1.0185 0.89373 0.0
H336 H 0.49483 0.11978 0.94877 0.0
C337 C 0.46623 1.03459 0.84963 0.0
C338 C 0.48004 0.08096 0.84083 0.0
H339 H 0.44931 0.98235 0.89942 0.0
H340 H 0.45684 1.0099 0.82252 0.0
C341 C 0.49031 0.11142 0.87711 0.0
C342 C 0.43331 0.12281 0.57412 0.0
C343 C 0.39296 0.09745 0.60267 0.0
H344 H 0.46145 0.13531 0.5066 0.0
C345 C 0.34797 0.06878 0.5838 0.0
H346 H 0.46827 0.1456 0.5878 0.0
C347 C 0.34409 0.06233 0.53738 0.0
C348 C 0.3849 0.08555 0.50897 0.0
H349 H 0.31617 0.04901 0.60507 0.0
H350 H 0.3097 1.03712 0.52394 0.0
C351 C 0.42919 0.11747 0.5276 0.0
C352 C 0.06185 0.32953 0.57806 0.0
C353 C 0.07457 0.30774 0.60991 0.0
H354 H 0.06473 0.34761 0.50869 0.0
C355 C 0.09618 0.28319 0.59501 0.0
H356 H 1.04471 0.34829 0.58855 0.0
C357 C 0.108 0.28327 0.54961 0.0
C358 C 0.09727 0.30678 0.51805 0.0
H359 H 0.10624 0.26589 0.61869 0.0
H360 H 0.12752 0.26673 0.53938 0.0
C361 C 0.07264 0.32858 0.53235 0.0
C362 C 0.76667 0.75397 0.56011 0.0
C363 C 0.80552 0.76985 0.52917 0.0
H364 H 0.7363 0.72215 0.62435 0.0
C365 C 0.84625 0.76976 0.54179 0.0
H366 H 0.73427 0.75251 0.55089 0.0
C367 C 0.84782 0.75363 0.58452 0.0
C368 C 0.80785 0.73542 0.61427 0.0
H369 H 0.87619 0.78093 0.51825 0.0
H370 H 0.87926 0.75313 0.59343 0.0
C371 C 0.76747 0.73608 0.60193 0.0
C372 C 0.41872 0.47124 0.75447 0.0
C373 C 0.38883 0.42972 0.77854 0.0
H374 H 0.44874 0.50243 0.68997 0.0
C375 C 0.35989 0.38855 0.7548 0.0
H376 H 0.44117 0.50352 0.772 0.0
C377 C 0.36279 0.38832 0.70791 0.0
C378 C 0.39572 0.42897 0.68393 0.0
H379 H 0.33601 0.3562 0.77256 0.0
H380 H 0.34207 0.35542 0.69077 0.0
C381 C 0.42269 0.47073 0.70756 0.0
C382 C 0.71716 1.02778 0.73922 0.0
C383 C 0.70131 0.99102 0.7084 0.0
H384 H 0.75047 0.0559 0.80203 0.0
C385 C 0.70324 0.95179 0.71969 0.0
H386 H 0.71727 0.05902 0.73085 0.0
C387 C 0.72108 0.94961 0.76107 0.0
C388 C 0.73932 0.98755 0.79059 0.0
H389 H 0.69221 0.92356 0.69609 0.0
H390 H 0.72273 0.91924 0.76911 0.0
C391 C 0.73684 1.02643 0.7796 0.0
C392 C 0.14582 0.68304 0.75829 0.0
C393 C 0.13448 0.71707 0.76828 0.0
H394 H 0.15644 0.644 0.70663 0.0
C395 C 0.13003 0.7414 0.73274 0.0
H396 H 0.14998 0.6641 0.78509 0.0
C397 C 0.13592 0.73151 0.6882 0.0
C398 C 0.14505 0.69603 0.6779 0.0
H399 H 0.12218 0.7684 0.73934 0.0
H400 H 0.13083 0.75018 0.66178 0.0
C401 C 0.15015 0.67198 0.71347 0.0
C402 C 0.6789 0.73101 0.26072 0.0
C403 C 0.72276 0.76029 0.2813 0.0
H404 H 0.64361 0.69903 0.19976 0.0
C405 C 0.7644 0.78559 0.25423 0.0
H406 H 0.64609 0.71131 0.28069 0.0
C407 C 0.76258 0.77974 0.20764 0.0
C408 C 0.71931 0.74763 0.18752 0.0
H409 H 0.79855 0.80889 0.26913 0.0
H410 H 0.79573 0.79765 0.18788 0.0
C411 C 0.67729 0.72432 0.21434 0.0
C412 C 0.4086 1.00641 0.20132 0.0
C413 C 0.43118 0.98271 0.18675 0.0
H414 H 0.38264 1.02776 0.25782 0.0
C415 C 0.44086 0.95828 0.21816 0.0
H416 H 0.40183 1.0264 0.17776 0.0
C417 C 0.4298 0.95884 0.26366 0.0
C418 C 0.40993 0.98486 0.27884 0.0
H419 H 0.45891 0.94035 0.20769 0.0
H420 H 0.4389 0.94058 0.28715 0.0
C421 C 0.3984 1.00781 0.24714 0.0
C422 C 0.14636 0.42449 0.25413 0.0
C423 C 0.13331 0.37841 0.26334 0.0
H424 H 0.15519 0.47382 0.20373 0.0
C425 C 0.12396 0.34784 0.22745 0.0
H426 H 0.15424 0.44889 0.28124 0.0
C427 C 0.12667 0.36263 0.18327 0.0
C428 C 0.13748 0.408 0.17395 0.0
H429 H 0.11466 0.31239 0.23348 0.0
H430 H 0.11771 0.33757 0.15658 0.0
C431 C 0.14754 0.43892 0.20983 0.0
C432 C 0.2238 0.82409 0.37434 0.0
C433 C 0.23856 0.86931 0.38882 0.0
H434 H 0.17511 0.76562 0.33525 0.0
C435 C 0.21038 0.88806 0.37825 0.0
H436 H 0.24437 0.80839 0.38175 0.0
C437 C 0.16991 0.86302 0.3517 0.0
C438 C 0.15767 0.81931 0.33455 0.0
H439 H 0.22079 0.92288 0.38878 0.0
H440 H 0.1499 0.87883 0.34259 0.0
C441 C 0.18424 0.79967 0.34728 0.0
C442 C 0.27158 0.26094 0.31967 0.0
C443 C 0.3154 0.29253 0.2981 0.0
H444 H 0.21081 0.2512 0.35812 0.0
C445 C 0.33178 0.34044 0.29997 0.0
H446 H 0.25816 0.22397 0.31937 0.0
C447 C 0.30522 0.35634 0.32331 0.0
C448 C 0.26119 0.32462 0.34459 0.0
H449 H 0.36587 0.36588 0.28439 0.0
H450 H 0.31886 0.39334 0.32422 0.0
C451 C 0.24462 0.27671 0.34214 0.0
C452 C 0.74962 0.96139 0.33798 0.0
C453 C 0.79925 0.99308 0.34007 0.0
H454 H 0.6891 0.89568 0.35888 0.0
C455 C 0.82587 0.98186 0.36756 0.0
H456 H 0.72776 0.96919 0.31785 0.0
C457 C 0.80353 0.93909 0.39094 0.0
C458 C 0.75387 0.90729 0.38845 0.0
H459 H 0.86402 1.00571 0.37034 0.0
H460 H 0.82524 0.93067 0.41056 0.0
C461 C 0.72721 0.91941 0.36215 0.0
C462 C 0.94976 0.24046 0.18028 0.0
C463 C 0.90763 0.23285 0.20175 0.0
H464 H 1.00942 0.28433 0.13631 0.0
C465 C 0.89527 0.26683 0.19726 0.0
H466 H 0.96023 0.21502 0.18296 0.0
C467 C 0.92372 0.30691 0.17093 0.0
C468 C 0.96453 0.31331 0.14768 0.0
H469 H 0.86307 0.2621 0.21363 0.0
H470 H 0.91292 0.33203 0.16757 0.0
C471 C 0.97763 0.28 0.15323 0.0
C472 C 0.83279 0.64027 0.19411 0.0
C473 C 0.81832 0.6708 0.18112 0.0
H474 H 0.88626 0.63341 0.22668 0.0
C475 C 0.84259 0.71646 0.19768 0.0
H476 H 0.81471 0.60495 0.18167 0.0
C477 C 0.88278 0.73258 0.22377 0.0
C478 C 0.90031 0.70364 0.23341 0.0
H479 H 0.8318 0.74058 0.18852 0.0
H480 H 0.90196 0.76877 0.23373 0.0
C481 C 0.87372 0.65666 0.21992 0.0
C482 C 0.52863 0.21741 0.18259 0.0
C483 C 0.48061 0.20564 0.1824 0.0
H484 H 0.5804 0.19994 0.16132 0.0
C485 C 0.44784 0.16621 0.15827 0.0
H486 H 0.55494 0.24759 0.20079 0.0
C487 C 0.46285 0.13957 0.13464 0.0
C488 C 0.51082 0.15119 0.13517 0.0
H489 H 0.41076 0.15632 0.15707 0.0
H490 H 0.43652 0.10919 0.11669 0.0
C491 C 0.54341 0.19028 0.15974 0.0
C492 C 0.83316 0.19679 0.69625 0.0
C493 C 0.81677 0.15204 0.67942 0.0
H494 H 0.88928 0.25585 0.73015 0.0
C495 C 0.84156 0.12986 0.68981 0.0
H496 H 0.81458 0.21454 0.68895 0.0
C497 C 0.88349 0.15286 0.714 0.0
C498 C 0.90225 0.19902 0.72785 0.0
H499 H 0.82918 0.09494 0.67802 0.0
H500 H 0.90262 0.13528 0.71954 0.0
C501 C 0.87585 0.22029 0.71991 0.0
C502 C 0.93353 0.59308 0.65709 0.0
C503 C 0.98022 0.62529 0.64156 0.0
H504 H 0.86995 0.58311 0.69062 0.0
C505 C 1.00011 0.67273 0.65172 0.0
H506 H 0.91731 0.55643 0.64966 0.0
C507 C 0.97353 0.68801 0.67541 0.0
C508 C 0.92595 0.65634 0.68899 0.0
H509 H 1.03627 0.69839 0.64052 0.0
H510 H 0.98982 0.7249 0.68172 0.0
C511 C 0.90645 0.60854 0.68024 0.0
C512 C 0.48231 0.26776 0.70919 0.0
C513 C 0.43481 0.24283 0.7267 0.0
H514 H 0.53443 0.32508 0.66756 0.0
C515 C 0.40618 0.26194 0.72147 0.0
H516 H 0.50536 0.25399 0.7125 0.0
C517 C 0.42275 0.30215 0.69561 0.0
C518 C 0.46852 0.32466 0.67474 0.0
H519 H 0.36964 0.24402 0.7346 0.0
H520 H 0.39855 0.31416 0.68969 0.0
C521 C 0.49911 0.30851 0.68346 0.0
C522 C 0.32969 0.94827 0.81332 0.0
C523 C 0.31491 0.98064 0.81167 0.0
H524 H 0.31458 0.88204 0.83766 0.0
C525 C 0.27402 0.9716 0.83661 0.0
H526 H 0.36164 0.95473 0.79497 0.0
C527 C 0.24686 0.92973 0.86055 0.0
C528 C 0.2607 0.89661 0.86091 0.0
H529 H 0.26203 0.99601 0.83621 0.0
H530 H 0.21437 0.92282 0.87813 0.0
C531 C 0.30312 0.90687 0.83808 0.0
C532 C 0.17863 0.39253 0.8506 0.0
C533 C 0.15667 0.34589 0.83705 0.0
H534 H 0.23506 0.44876 0.8862 0.0
C535 C 0.17274 0.31812 0.85443 0.0
H536 H 0.16666 0.41461 0.83799 0.0
C537 C 0.21286 0.33802 0.88185 0.0
C538 C 0.2369 0.38574 0.89283 0.0
H539 H 0.15642 0.28208 0.84447 0.0
H540 H 0.22666 0.31671 0.89221 0.0
C541 C 0.21781 0.41206 0.87848 0.0
C542 C 0.80084 0.80677 0.81478 0.0
C543 C 0.84955 0.82087 0.81447 0.0
H544 H 0.74648 0.81982 0.83826 0.0
C545 C 0.88132 0.86109 0.83821 0.0
H546 H 0.77516 0.77551 0.79746 0.0
C547 C 0.86484 0.88686 0.86115 0.0
C548 C 0.81598 0.87229 0.862 0.0
H549 H 0.91889 0.87263 0.83904 0.0
H550 H 0.89033 0.91795 0.8788 0.0
C551 C 0.78419 0.83182 0.83863 0.0
C552 C 0.6491 0.59044 0.53329 0.0
C553 C 0.60191 0.57092 0.54992 0.0
H554 H 0.70677 0.64417 0.4937 0.0
C555 C 0.57836 0.59519 0.54262 0.0
H556 H 0.66848 0.573 0.53826 0.0
C557 C 0.60068 0.63662 0.51705 0.0
C558 C 0.64653 0.65391 0.49771 0.0
H559 H 0.54194 0.58114 0.55498 0.0
H560 H 0.5812 0.65363 0.51046 0.0
C561 C 0.67093 0.63113 0.50733 0.0
C562 C 0.55094 0.08234 0.55026 0.0
C563 C 0.56144 0.05163 0.57092 0.0
H564 H 0.50876 0.09104 0.50272 0.0
C565 C 0.53167 1.00351 0.56271 0.0
H566 H 0.57289 0.11953 0.55558 0.0
C567 C 0.49416 0.98699 0.53244 0.0
C568 C 0.48654 1.01841 0.50914 0.0
H569 H 0.53881 0.97884 0.57792 0.0
H570 H 0.47301 0.95009 0.52538 0.0
C571 C 0.51438 0.06601 0.51949 0.0
C572 C 0.11106 0.44703 0.47501 0.0
C573 C 0.16045 0.46594 0.47932 0.0
H574 H 1.04888 0.44856 0.49548 0.0
C575 C 0.18497 0.50261 0.50982 0.0
H576 H 0.09064 0.41827 0.45251 0.0
C577 C 0.1608 0.52063 0.53431 0.0
C578 C 0.11124 0.50129 0.53003 0.0
H579 H 0.22285 0.51763 0.51445 0.0
H580 H 0.1809 0.54975 0.55652 0.0
C581 C 0.08679 0.46398 0.50031 0.0
C582 C 0.5161 0.48028 0.00826 0.0
C583 C 0.49224 0.50365 -0.00089 0.0
H584 H 0.57249 0.4806 0.04223 0.0
C585 C 0.50556 0.5452 0.02185 0.0
H586 H 0.50619 0.44785 0.99168 0.0
C587 C 0.54462 0.56471 0.05056 0.0
C588 C 0.57002 0.54228 0.05784 0.0
H589 H 0.48755 0.56374 0.01561 0.0
H590 H 0.55614 0.59824 0.06552 0.0
C591 C 0.55398 0.49895 0.03762 0.0
C592 C 0.65752 0.99594 0.97348 0.0
C593 C 0.64042 0.94786 0.9747 0.0
H594 H 0.64566 0.05077 0.99245 0.0
C595 C 0.59601 0.91783 0.99616 0.0
H596 H 0.69198 1.02028 0.95779 0.0
C597 C 0.56925 0.93543 0.01562 0.0
C598 C 0.58676 0.98361 0.01504 0.0
H599 H 0.58205 0.88081 -0.00187 0.0
H600 H 0.53502 0.91125 0.03178 0.0
C601 C 0.63127 1.01364 0.99377 0.0
C602 C 0.17314 0.64164 0.02028 0.0
C603 C 0.14872 0.65405 0.99107 0.0
H604 H 0.16837 0.58972 0.06531 0.0
C605 C 0.09898 0.62401 0.98781 0.0
H606 H 0.21133 0.66432 0.024 0.0
C607 C 0.07423 0.58259 0.01271 0.0
C608 C 0.09859 0.56923 0.04085 0.0
H609 H 0.0788 0.63286 0.96639 0.0
H610 H 1.03605 0.56021 0.00862 0.0
C611 C 0.14844 0.59921 0.0443 0.0
loop_
_geom_bond_atom_site_label_1
_geom_bond_atom_site_label_2
_geom_bond_distance
_geom_bond_site_symmetry_2
_ccdc_geom_bond_type
O0 Cd1 2.223 . S
O0 C8 1.315 . S
Cd1 O0 2.223 . S
Cd1 O4 2.297 . S
Cd1 O5 2.439 1_455 S
Cd1 O11 2.240 . S
Cd2 O3 2.240 . S
Cd2 O10 2.223 . S
Cd2 O12 2.297 1_455 S
Cd2 O13 2.439 1_455 S
O3 Cd2 2.240 . S
O3 C8 1.279 . S
O4 Cd1 2.297 . S
O4 C6 1.247 1_455 S
O5 Cd1 2.439 1_655 S
O5 C6 1.208 . S
C6 O4 1.247 1_655 S
C6 O5 1.208 . S
C7 O12 1.247 . S
C7 O13 1.208 . S
C8 O0 1.315 . S
C8 O3 1.279 . S
C9 O10 1.315 . S
C9 O11 1.279 . S
O10 Cd2 2.223 . S
O10 C9 1.315 . S
O11 Cd1 2.240 . S
O11 C9 1.279 . S
O12 Cd2 2.297 1_655 S
O12 C7 1.247 . S
O13 Cd2 2.439 1_655 S
O13 C7 1.208 . S
O14 Cd15 2.223 . S
O14 C22 1.315 . S
Cd15 O14 2.223 . S
Cd15 O18 2.297 . S
Cd15 O19 2.439 . S
Cd15 O25 2.240 . S
Cd16 O17 2.240 . S
Cd16 O24 2.223 . S
Cd16 O26 2.297 . S
Cd16 O27 2.439 . S
O17 Cd16 2.240 . S
O17 C22 1.279 . S
O18 Cd15 2.297 . S
O18 C20 1.247 . S
O19 Cd15 2.439 . S
O19 C20 1.208 . S
C20 O18 1.247 . S
C20 O19 1.208 . S
C21 O26 1.247 . S
C21 O27 1.208 . S
C22 O14 1.315 . S
C22 O17 1.279 . S
C23 O24 1.315 . S
C23 O25 1.279 . S
O24 Cd16 2.223 . S
O24 C23 1.315 . S
O25 Cd15 2.240 . S
O25 C23 1.279 . S
O26 Cd16 2.297 . S
O26 C21 1.247 . S
O27 Cd16 2.439 . S
O27 C21 1.208 . S
O28 Cd29 2.223 . S
O28 C36 1.315 . S
Cd29 O28 2.223 . S
Cd29 O32 2.297 . S
Cd29 O33 2.439 1_545 S
Cd29 O39 2.240 . S
Cd30 O31 2.240 . S
Cd30 O38 2.223 . S
Cd30 O40 2.297 1_545 S
Cd30 O41 2.439 1_545 S
O31 Cd30 2.240 . S
O31 C36 1.279 . S
O32 Cd29 2.297 . S
O32 C34 1.247 . S
O33 Cd29 2.439 1_565 S
O33 C34 1.208 1_565 S
C34 O32 1.247 . S
C34 O33 1.208 1_545 S
C35 O40 1.247 . S
C35 O41 1.208 . S
C36 O28 1.315 . S
C36 O31 1.279 . S
C37 O38 1.315 . S
C37 O39 1.279 . S
O38 Cd30 2.223 . S
O38 C37 1.315 . S
O39 Cd29 2.240 . S
O39 C37 1.279 . S
O40 Cd30 2.297 1_565 S
O40 C35 1.247 . S
O41 Cd30 2.439 1_565 S
O41 C35 1.208 . S
O42 Cd43 2.223 . S
O42 C50 1.315 . S
Cd43 O42 2.223 . S
Cd43 O46 2.297 . S
Cd43 O47 2.439 1_455 S
Cd43 O53 2.240 . S
Cd44 O45 2.240 . S
Cd44 O52 2.223 . S
Cd44 O54 2.297 1_455 S
Cd44 O55 2.439 1_455 S
O45 Cd44 2.240 . S
O45 C50 1.279 . S
O46 Cd43 2.297 . S
O46 C48 1.247 1_455 S
O47 Cd43 2.439 1_655 S
O47 C48 1.208 . S
C48 O46 1.247 1_655 S
C48 O47 1.208 . S
C49 O54 1.247 . S
C49 O55 1.208 . S
C50 O42 1.315 . S
C50 O45 1.279 . S
C51 O52 1.315 . S
C51 O53 1.279 . S
O52 Cd44 2.223 . S
O52 C51 1.315 . S
O53 Cd43 2.240 . S
O53 C51 1.279 . S
O54 Cd44 2.297 1_655 S
O54 C49 1.247 . S
O55 Cd44 2.439 1_655 S
O55 C49 1.208 . S
O56 Cd57 2.223 . S
O56 C64 1.315 . S
Cd57 O56 2.223 . S
Cd57 O60 2.297 . S
Cd57 O61 2.439 . S
Cd57 O67 2.240 . S
Cd58 O59 2.240 . S
Cd58 O66 2.223 . S
Cd58 O68 2.297 . S
Cd58 O69 2.439 . S
O59 Cd58 2.240 . S
O59 C64 1.279 . S
O60 Cd57 2.297 . S
O60 C62 1.247 . S
O61 Cd57 2.439 . S
O61 C62 1.208 . S
C62 O60 1.247 . S
C62 O61 1.208 . S
C63 O68 1.247 . S
C63 O69 1.208 . S
C64 O56 1.315 . S
C64 O59 1.279 . S
C65 O66 1.315 . S
C65 O67 1.279 . S
O66 Cd58 2.223 . S
O66 C65 1.315 . S
O67 Cd57 2.240 . S
O67 C65 1.279 . S
O68 Cd58 2.297 . S
O68 C63 1.247 . S
O69 Cd58 2.439 . S
O69 C63 1.208 . S
O70 Cd71 2.223 . S
O70 C78 1.315 . S
Cd71 O70 2.223 . S
Cd71 O74 2.297 . S
Cd71 O75 2.439 1_565 S
Cd71 O81 2.240 1_565 S
Cd72 O73 2.240 1_545 S
Cd72 O80 2.223 1_545 S
Cd72 O82 2.297 . S
Cd72 O83 2.439 . S
O73 Cd72 2.240 1_565 S
O73 C78 1.279 . S
O74 Cd71 2.297 . S
O74 C76 1.247 1_565 S
O75 Cd71 2.439 1_545 S
O75 C76 1.208 . S
C76 O74 1.247 1_545 S
C76 O75 1.208 . S
C77 O82 1.247 . S
C77 O83 1.208 . S
C78 O70 1.315 . S
C78 O73 1.279 . S
C79 O80 1.315 . S
C79 O81 1.279 1_565 S
O80 Cd72 2.223 1_565 S
O80 C79 1.315 . S
O81 Cd71 2.240 1_545 S
O81 C79 1.279 1_545 S
O82 Cd72 2.297 . S
O82 C77 1.247 . S
O83 Cd72 2.439 . S
O83 C77 1.208 . S
O84 Cd85 2.223 . S
O84 C92 1.315 . S
Cd85 O84 2.223 . S
Cd85 O88 2.297 . S
Cd85 O89 2.439 . S
Cd85 O95 2.240 . S
Cd86 O87 2.240 . S
Cd86 O94 2.223 . S
Cd86 O96 2.297 . S
Cd86 O97 2.439 . S
O87 Cd86 2.240 . S
O87 C92 1.279 . S
O88 Cd85 2.297 . S
O88 C90 1.247 . S
O89 Cd85 2.439 . S
O89 C90 1.208 . S
C90 O88 1.247 . S
C90 O89 1.208 . S
C91 O96 1.247 . S
C91 O97 1.208 . S
C92 O84 1.315 . S
C92 O87 1.279 . S
C93 O94 1.315 . S
C93 O95 1.279 . S
O94 Cd86 2.223 . S
O94 C93 1.315 . S
O95 Cd85 2.240 . S
O95 C93 1.279 . S
O96 Cd86 2.297 . S
O96 C91 1.247 . S
O97 Cd86 2.439 . S
O97 C91 1.208 . S
O98 Cd99 2.223 . S
O98 C106 1.315 . S
Cd99 O98 2.223 . S
Cd99 O102 2.297 1_655 S
Cd99 O103 2.439 . S
Cd99 O109 2.240 . S
Cd100 O101 2.240 . S
Cd100 O108 2.223 . S
Cd100 O110 2.297 . S
Cd100 O111 2.439 . S
O101 Cd100 2.240 . S
O101 C106 1.279 . S
O102 Cd99 2.297 1_455 S
O102 C104 1.247 . S
O103 Cd99 2.439 . S
O103 C104 1.208 1_655 S
C104 O102 1.247 . S
C104 O103 1.208 1_455 S
C105 O110 1.247 . S
C105 O111 1.208 . S
C106 O98 1.315 . S
C106 O101 1.279 . S
C107 O108 1.315 . S
C107 O109 1.279 . S
O108 Cd100 2.223 . S
O108 C107 1.315 . S
O109 Cd99 2.240 . S
O109 C107 1.279 . S
O110 Cd100 2.297 . S
O110 C105 1.247 . S
O111 Cd100 2.439 . S
O111 C105 1.208 . S
O112 Cd113 2.223 . S
O112 C120 1.315 . S
Cd113 O112 2.223 . S
Cd113 O116 2.297 . S
Cd113 O117 2.439 . S
Cd113 O123 2.240 . S
Cd114 O115 2.240 . S
Cd114 O122 2.223 . S
Cd114 O124 2.297 . S
Cd114 O125 2.439 . S
O115 Cd114 2.240 . S
O115 C120 1.279 . S
O116 Cd113 2.297 . S
O116 C118 1.247 . S
O117 Cd113 2.439 . S
O117 C118 1.208 . S
C118 O116 1.247 . S
C118 O117 1.208 . S
C119 O124 1.247 . S
C119 O125 1.208 . S
C120 O112 1.315 . S
C120 O115 1.279 . S
C121 O122 1.315 . S
C121 O123 1.279 . S
O122 Cd114 2.223 . S
O122 C121 1.315 . S
O123 Cd113 2.240 . S
O123 C121 1.279 . S
O124 Cd114 2.297 . S
O124 C119 1.247 . S
O125 Cd114 2.439 . S
O125 C119 1.208 . S
O126 Cd127 2.223 . S
O126 C134 1.315 . S
Cd127 O126 2.223 . S
Cd127 O130 2.297 . S
Cd127 O131 2.439 . S
Cd127 O137 2.240 . S
Cd128 O129 2.240 . S
Cd128 O136 2.223 1_554 S
Cd128 O138 2.297 1_554 S
Cd128 O139 2.439 . S
O129 Cd128 2.240 . S
O129 C134 1.279 . S
O130 Cd127 2.297 . S
O130 C132 1.247 . S
O131 Cd127 2.439 . S
O131 C132 1.208 . S
C132 O130 1.247 . S
C132 O131 1.208 . S
C133 O138 1.247 1_554 S
C133 O139 1.208 . S
C134 O126 1.315 . S
C134 O129 1.279 . S
C135 O136 1.315 . S
C135 O137 1.279 1_556 S
O136 Cd128 2.223 1_556 S
O136 C135 1.315 . S
O137 Cd127 2.240 . S
O137 C135 1.279 1_554 S
O138 Cd128 2.297 1_556 S
O138 C133 1.247 1_556 S
O139 Cd128 2.439 . S
O139 C133 1.208 . S
O140 Cd141 2.223 . S
O140 C148 1.315 . S
Cd141 O140 2.223 . S
Cd141 O144 2.297 . S
Cd141 O145 2.439 . S
Cd141 O151 2.240 . S
Cd142 O143 2.240 . S
Cd142 O150 2.223 . S
Cd142 O152 2.297 . S
Cd142 O153 2.439 . S
O143 Cd142 2.240 . S
O143 C148 1.279 . S
O144 Cd141 2.297 . S
O144 C146 1.247 . S
O145 Cd141 2.439 . S
O145 C146 1.208 . S
C146 O144 1.247 . S
C146 O145 1.208 . S
C147 O152 1.247 . S
C147 O153 1.208 . S
C148 O140 1.315 . S
C148 O143 1.279 . S
C149 O150 1.315 . S
C149 O151 1.279 . S
O150 Cd142 2.223 . S
O150 C149 1.315 . S
O151 Cd141 2.240 . S
O151 C149 1.279 . S
O152 Cd142 2.297 . S
O152 C147 1.247 . S
O153 Cd142 2.439 . S
O153 C147 1.208 . S
O154 Cd155 2.223 1_655 S
O154 C162 1.315 . S
Cd155 O154 2.223 1_455 S
Cd155 O158 2.297 . S
Cd155 O159 2.439 . S
Cd155 O165 2.240 1_455 S
Cd156 O157 2.240 . S
Cd156 O164 2.223 . S
Cd156 O166 2.297 . S
Cd156 O167 2.439 . S
O157 Cd156 2.240 . S
O157 C162 1.279 . S
O158 Cd155 2.297 . S
O158 C160 1.247 . S
O159 Cd155 2.439 . S
O159 C160 1.208 . S
C160 O158 1.247 . S
C160 O159 1.208 . S
C161 O166 1.247 . S
C161 O167 1.208 . S
C162 O154 1.315 . S
C162 O157 1.279 . S
C163 O164 1.315 . S
C163 O165 1.279 . S
O164 Cd156 2.223 . S
O164 C163 1.315 . S
O165 Cd155 2.240 1_655 S
O165 C163 1.279 . S
O166 Cd156 2.297 . S
O166 C161 1.247 . S
O167 Cd156 2.439 . S
O167 C161 1.208 . S
O168 Cd169 2.223 . S
O168 C176 1.315 . S
Cd169 O168 2.223 . S
Cd169 O172 2.297 1_556 S
Cd169 O173 2.439 . S
Cd169 O179 2.240 . S
Cd170 O171 2.240 . S
Cd170 O178 2.223 . S
Cd170 O180 2.297 . S
Cd170 O181 2.439 . S
O171 Cd170 2.240 . S
O171 C176 1.279 . S
O172 Cd169 2.297 1_554 S
O172 C174 1.247 . S
O173 Cd169 2.439 . S
O173 C174 1.208 1_556 S
C174 O172 1.247 . S
C174 O173 1.208 1_554 S
C175 O180 1.247 . S
C175 O181 1.208 . S
C176 O168 1.315 . S
C176 O171 1.279 . S
C177 O178 1.315 . S
C177 O179 1.279 . S
O178 Cd170 2.223 . S
O178 C177 1.315 . S
O179 Cd169 2.240 . S
O179 C177 1.279 . S
O180 Cd170 2.297 . S
O180 C175 1.247 . S
O181 Cd170 2.439 . S
O181 C175 1.208 . S
O182 Cd183 2.223 . S
O182 C190 1.315 . S
Cd183 O182 2.223 . S
Cd183 O186 2.297 . S
Cd183 O187 2.439 . S
Cd183 O193 2.240 . S
Cd184 O185 2.240 . S
Cd184 O192 2.223 1_556 S
Cd184 O194 2.297 1_556 S
Cd184 O195 2.439 . S
O185 Cd184 2.240 . S
O185 C190 1.279 . S
O186 Cd183 2.297 . S
O186 C188 1.247 . S
O187 Cd183 2.439 . S
O187 C188 1.208 . S
C188 O186 1.247 . S
C188 O187 1.208 . S
C189 O194 1.247 1_556 S
C189 O195 1.208 . S
C190 O182 1.315 . S
C190 O185 1.279 . S
C191 O192 1.315 1_556 S
C191 O193 1.279 . S
O192 Cd184 2.223 1_554 S
O192 C191 1.315 1_554 S
O193 Cd183 2.240 . S
O193 C191 1.279 . S
O194 Cd184 2.297 1_554 S
O194 C189 1.247 1_554 S
O195 Cd184 2.439 . S
O195 C189 1.208 . S
O196 Cd197 2.223 . S
O196 C204 1.315 . S
Cd197 O196 2.223 . S
Cd197 O200 2.297 . S
Cd197 O201 2.439 . S
Cd197 O207 2.240 . S
Cd198 O199 2.240 . S
Cd198 O206 2.223 1_556 S
Cd198 O208 2.297 1_556 S
Cd198 O209 2.439 . S
O199 Cd198 2.240 . S
O199 C204 1.279 . S
O200 Cd197 2.297 . S
O200 C202 1.247 . S
O201 Cd197 2.439 . S
O201 C202 1.208 . S
C202 O200 1.247 . S
C202 O201 1.208 . S
C203 O208 1.247 1_556 S
C203 O209 1.208 . S
C204 O196 1.315 . S
C204 O199 1.279 . S
C205 O206 1.315 . S
C205 O207 1.279 1_554 S
O206 Cd198 2.223 1_554 S
O206 C205 1.315 . S
O207 Cd197 2.240 . S
O207 C205 1.279 1_556 S
O208 Cd198 2.297 1_554 S
O208 C203 1.247 1_554 S
O209 Cd198 2.439 . S
O209 C203 1.208 . S
O210 Cd211 2.223 . S
O210 C218 1.315 . S
Cd211 O210 2.223 . S
Cd211 O214 2.297 . S
Cd211 O215 2.439 . S
Cd211 O221 2.240 . S
Cd212 O213 2.240 . S
Cd212 O220 2.223 . S
Cd212 O222 2.297 . S
Cd212 O223 2.439 . S
O213 Cd212 2.240 . S
O213 C218 1.279 . S
O214 Cd211 2.297 . S
O214 C216 1.247 . S
O215 Cd211 2.439 . S
O215 C216 1.208 . S
C216 O214 1.247 . S
C216 O215 1.208 . S
C217 O222 1.247 . S
C217 O223 1.208 . S
C218 O210 1.315 . S
C218 O213 1.279 . S
C219 O220 1.315 . S
C219 O221 1.279 . S
O220 Cd212 2.223 . S
O220 C219 1.315 . S
O221 Cd211 2.240 . S
O221 C219 1.279 . S
O222 Cd212 2.297 . S
O222 C217 1.247 . S
O223 Cd212 2.439 . S
O223 C217 1.208 . S
O224 Cd225 2.223 . S
O224 C232 1.315 . S
Cd225 O224 2.223 . S
Cd225 O228 2.297 . S
Cd225 O229 2.439 . S
Cd225 O235 2.240 . S
Cd226 O227 2.240 . S
Cd226 O234 2.223 . S
Cd226 O236 2.297 . S
Cd226 O237 2.439 . S
O227 Cd226 2.240 . S
O227 C232 1.279 . S
O228 Cd225 2.297 . S
O228 C230 1.247 . S
O229 Cd225 2.439 . S
O229 C230 1.208 . S
C230 O228 1.247 . S
C230 O229 1.208 . S
C231 O236 1.247 . S
C231 O237 1.208 . S
C232 O224 1.315 . S
C232 O227 1.279 . S
C233 O234 1.315 . S
C233 O235 1.279 . S
O234 Cd226 2.223 . S
O234 C233 1.315 . S
O235 Cd225 2.240 . S
O235 C233 1.279 . S
O236 Cd226 2.297 . S
O236 C231 1.247 . S
O237 Cd226 2.439 . S
O237 C231 1.208 . S
O238 Cd239 2.223 . S
O238 C246 1.315 . S
Cd239 O238 2.223 . S
Cd239 O242 2.297 . S
Cd239 O243 2.439 . S
Cd239 O249 2.240 . S
Cd240 O241 2.240 . S
Cd240 O248 2.223 . S
Cd240 O250 2.297 . S
Cd240 O251 2.439 . S
O241 Cd240 2.240 . S
O241 C246 1.279 . S
O242 Cd239 2.297 . S
O242 C244 1.247 . S
O243 Cd239 2.439 . S
O243 C244 1.208 . S
C244 O242 1.247 . S
C244 O243 1.208 . S
C245 O250 1.247 . S
C245 O251 1.208 . S
C246 O238 1.315 . S
C246 O241 1.279 . S
C247 O248 1.315 . S
C247 O249 1.279 . S
O248 Cd240 2.223 . S
O248 C247 1.315 . S
O249 Cd239 2.240 . S
O249 C247 1.279 . S
O250 Cd240 2.297 . S
O250 C245 1.247 . S
O251 Cd240 2.439 . S
O251 C245 1.208 . S
C252 C253 1.387 . S
C252 H256 0.950 . S
C252 C261 1.390 . S
C253 C252 1.387 . S
C253 C255 1.387 . S
H254 C261 0.950 . S
C255 C253 1.387 . S
C255 C257 1.390 . S
C255 H259 0.950 . S
H256 C252 0.950 . S
C257 C255 1.390 . S
C257 C258 1.387 . S
C257 H260 0.950 . S
C258 C257 1.387 . S
C258 C261 1.387 . S
H259 C255 0.950 . S
H260 C257 0.950 . S
C261 C252 1.390 . S
C261 H254 0.950 . S
C261 C258 1.387 . S
C262 C263 1.387 . S
C262 H266 0.950 . S
C262 C271 1.390 . S
C263 C262 1.387 . S
C263 C265 1.387 . S
H264 C271 0.950 . S
C265 C263 1.387 . S
C265 C267 1.390 . S
C265 H269 0.950 . S
H266 C262 0.950 . S
C267 C265 1.390 . S
C267 C268 1.387 . S
C267 H270 0.950 . S
C268 C267 1.387 . S
C268 C271 1.387 . S
H269 C265 0.950 . S
H270 C267 0.950 . S
C271 C262 1.390 . S
C271 H264 0.950 . S
C271 C268 1.387 . S
C272 C273 1.387 1_545 S
C272 H276 0.950 . S
C272 C281 1.390 1_545 S
C273 C272 1.387 1_565 S
C273 C275 1.387 . S
H274 C281 0.950 1_546 S
C275 C273 1.387 . S
C275 C277 1.390 . S
C275 H279 0.950 . S
H276 C272 0.950 . S
C277 C275 1.390 . S
C277 C278 1.387 . S
C277 H280 0.950 . S
C278 C277 1.387 . S
C278 C281 1.387 . S
H279 C275 0.950 . S
H280 C277 0.950 . S
C281 C272 1.390 1_565 S
C281 H274 0.950 1_564 S
C281 C278 1.387 . S
C282 C283 1.387 . S
C282 H286 0.950 . S
C282 C291 1.390 . S
C283 C282 1.387 . S
C283 C285 1.387 . S
H284 C291 0.950 . S
C285 C283 1.387 . S
C285 C287 1.390 . S
C285 H289 0.950 . S
H286 C282 0.950 . S
C287 C285 1.390 . S
C287 C288 1.387 . S
C287 H290 0.950 1_545 S
C288 C287 1.387 . S
C288 C291 1.387 . S
H289 C285 0.950 . S
H290 C287 0.950 1_565 S
C291 C282 1.390 . S
C291 H284 0.950 . S
C291 C288 1.387 . S
C292 C293 1.387 . S
C292 H296 0.950 . S
C292 C301 1.390 . S
C293 C292 1.387 . S
C293 C295 1.387 . S
H294 C301 0.950 . S
C295 C293 1.387 . S
C295 C297 1.390 1_655 S
C295 H299 0.950 1_655 S
H296 C292 0.950 . S
C297 C295 1.390 1_455 S
C297 C298 1.387 1_455 S
C297 H300 0.950 . S
C298 C297 1.387 1_655 S
C298 C301 1.387 . S
H299 C295 0.950 1_455 S
H300 C297 0.950 . S
C301 C292 1.390 . S
C301 H294 0.950 . S
C301 C298 1.387 . S
C302 C303 1.387 . S
C302 H306 0.950 . S
C302 C311 1.390 . S
C303 C302 1.387 . S
C303 C305 1.387 . S
H304 C311 0.950 . S
C305 C303 1.387 . S
C305 C307 1.390 . S
C305 H309 0.950 . S
H306 C302 0.950 . S
C307 C305 1.390 . S
C307 C308 1.387 . S
C307 H310 0.950 . S
C308 C307 1.387 . S
C308 C311 1.387 . S
H309 C305 0.950 . S
H310 C307 0.950 . S
C311 C302 1.390 . S
C311 H304 0.950 . S
C311 C308 1.387 . S
C312 C313 1.387 . S
C312 H316 0.950 . S
C312 C321 1.390 . S
C313 C312 1.387 . S
C313 C315 1.387 1_655 S
H314 C321 0.950 . S
C315 C313 1.387 1_455 S
C315 C317 1.390 1_455 S
C315 H319 0.950 . S
H316 C312 0.950 . S
C317 C315 1.390 1_655 S
C317 C318 1.387 . S
C317 H320 0.950 1_655 S
C318 C317 1.387 . S
C318 C321 1.387 . S
H319 C315 0.950 . S
H320 C317 0.950 1_455 S
C321 C312 1.390 . S
C321 H314 0.950 . S
C321 C318 1.387 . S
C322 C323 1.387 . S
C322 H326 0.950 . S
C322 C331 1.390 . S
C323 C322 1.387 . S
C323 C325 1.387 . S
H324 C331 0.950 . S
C325 C323 1.387 . S
C325 C327 1.390 . S
C325 H329 0.950 . S
H326 C322 0.950 . S
C327 C325 1.390 . S
C327 C328 1.387 . S
C327 H330 0.950 . S
C328 C327 1.387 . S
C328 C331 1.387 . S
H329 C325 0.950 . S
H330 C327 0.950 . S
C331 C322 1.390 . S
C331 H324 0.950 . S
C331 C328 1.387 . S
C332 C333 1.387 . S
C332 H336 0.950 . S
C332 C341 1.390 . S
C333 C332 1.387 . S
C333 C335 1.387 . S
H334 C341 0.950 . S
C335 C333 1.387 . S
C335 C337 1.390 . S
C335 H339 0.950 . S
H336 C332 0.950 . S
C337 C335 1.390 . S
C337 C338 1.387 . S
C337 H340 0.950 1_545 S
C338 C337 1.387 . S
C338 C341 1.387 . S
H339 C335 0.950 . S
H340 C337 0.950 1_565 S
C341 C332 1.390 . S
C341 H334 0.950 . S
C341 C338 1.387 . S
C342 C343 1.387 . S
C342 H346 0.950 1_565 S
C342 C351 1.390 . S
C343 C342 1.387 . S
C343 C345 1.387 . S
H344 C351 0.950 . S
C345 C343 1.387 . S
C345 C347 1.390 . S
C345 H349 0.950 . S
H346 C342 0.950 1_545 S
C347 C345 1.390 . S
C347 C348 1.387 . S
C347 H350 0.950 . S
C348 C347 1.387 . S
C348 C351 1.387 . S
H349 C345 0.950 . S
H350 C347 0.950 . S
C351 C342 1.390 . S
C351 H344 0.950 . S
C351 C348 1.387 . S
C352 C353 1.387 . S
C352 H356 0.950 . S
C352 C361 1.390 . S
C353 C352 1.387 . S
C353 C355 1.387 . S
H354 C361 0.950 . S
C355 C353 1.387 . S
C355 C357 1.390 . S
C355 H359 0.950 . S
H356 C352 0.950 . S
C357 C355 1.390 . S
C357 C358 1.387 . S
C357 H360 0.950 . S
C358 C357 1.387 . S
C358 C361 1.387 . S
H359 C355 0.950 . S
H360 C357 0.950 . S
C361 C352 1.390 . S
C361 H354 0.950 . S
C361 C358 1.387 . S
C362 C363 1.387 . S
C362 H366 0.950 . S
C362 C371 1.390 . S
C363 C362 1.387 . S
C363 C365 1.387 . S
H364 C371 0.950 . S
C365 C363 1.387 . S
C365 C367 1.390 . S
C365 H369 0.950 . S
H366 C362 0.950 . S
C367 C365 1.390 . S
C367 C368 1.387 . S
C367 H370 0.950 . S
C368 C367 1.387 . S
C368 C371 1.387 . S
H369 C365 0.950 . S
H370 C367 0.950 . S
C371 C362 1.390 . S
C371 H364 0.950 . S
C371 C368 1.387 . S
C372 C373 1.387 . S
C372 H376 0.950 . S
C372 C381 1.390 . S
C373 C372 1.387 . S
C373 C375 1.387 . S
H374 C381 0.950 . S
C375 C373 1.387 . S
C375 C377 1.390 . S
C375 H379 0.950 . S
H376 C372 0.950 . S
C377 C375 1.390 . S
C377 C378 1.387 . S
C377 H380 0.950 . S
C378 C377 1.387 . S
C378 C381 1.387 . S
H379 C375 0.950 . S
H380 C377 0.950 . S
C381 C372 1.390 . S
C381 H374 0.950 . S
C381 C378 1.387 . S
C382 C383 1.387 . S
C382 H386 0.950 . S
C382 C391 1.390 . S
C383 C382 1.387 . S
C383 C385 1.387 1_545 S
H384 C391 0.950 . S
C385 C383 1.387 1_565 S
C385 C387 1.390 . S
C385 H389 0.950 . S
H386 C382 0.950 . S
C387 C385 1.390 . S
C387 C388 1.387 . S
C387 H390 0.950 . S
C388 C387 1.387 . S
C388 C391 1.387 1_565 S
H389 C385 0.950 . S
H390 C387 0.950 . S
C391 C382 1.390 . S
C391 H384 0.950 . S
C391 C388 1.387 1_545 S
C392 C393 1.387 . S
C392 H396 0.950 . S
C392 C401 1.390 . S
C393 C392 1.387 . S
C393 C395 1.387 . S
H394 C401 0.950 . S
C395 C393 1.387 . S
C395 C397 1.390 . S
C395 H399 0.950 . S
H396 C392 0.950 . S
C397 C395 1.390 . S
C397 C398 1.387 . S
C397 H400 0.950 . S
C398 C397 1.387 . S
C398 C401 1.387 . S
H399 C395 0.950 . S
H400 C397 0.950 . S
C401 C392 1.390 . S
C401 H394 0.950 . S
C401 C398 1.387 . S
C402 C403 1.387 . S
C402 H406 0.950 . S
C402 C411 1.390 . S
C403 C402 1.387 . S
C403 C405 1.387 . S
H404 C411 0.950 . S
C405 C403 1.387 . S
C405 C407 1.390 . S
C405 H409 0.950 . S
H406 C402 0.950 . S
C407 C405 1.390 . S
C407 C408 1.387 . S
C407 H410 0.950 . S
C408 C407 1.387 . S
C408 C411 1.387 . S
H409 C405 0.950 . S
H410 C407 0.950 . S
C411 C402 1.390 . S
C411 H404 0.950 . S
C411 C408 1.387 . S
C412 C413 1.387 . S
C412 H416 0.950 . S
C412 C421 1.390 1_545 S
C413 C412 1.387 . S
C413 C415 1.387 . S
H414 C421 0.950 . S
C415 C413 1.387 . S
C415 C417 1.390 1_545 S
C415 H419 0.950 . S
H416 C412 0.950 . S
C417 C415 1.390 1_565 S
C417 C418 1.387 . S
C417 H420 0.950 . S
C418 C417 1.387 . S
C418 C421 1.387 . S
H419 C415 0.950 . S
H420 C417 0.950 . S
C421 C412 1.390 1_565 S
C421 H414 0.950 . S
C421 C418 1.387 . S
C422 C423 1.387 . S
C422 H426 0.950 . S
C422 C431 1.390 . S
C423 C422 1.387 . S
C423 C425 1.387 . S
H424 C431 0.950 . S
C425 C423 1.387 . S
C425 C427 1.390 . S
C425 H429 0.950 . S
H426 C422 0.950 . S
C427 C425 1.390 . S
C427 C428 1.387 . S
C427 H430 0.950 1_455 S
C428 C427 1.387 . S
C428 C431 1.387 . S
H429 C425 0.950 . S
H430 C427 0.950 1_655 S
C431 C422 1.390 . S
C431 H424 0.950 . S
C431 C428 1.387 . S
C432 C433 1.387 . S
C432 H436 0.950 . S
C432 C441 1.390 . S
C433 C432 1.387 . S
C433 C435 1.387 . S
H434 C441 0.950 . S
C435 C433 1.387 . S
C435 C437 1.390 . S
C435 H439 0.950 . S
H436 C432 0.950 . S
C437 C435 1.390 . S
C437 C438 1.387 . S
C437 H440 0.950 . S
C438 C437 1.387 . S
C438 C441 1.387 . S
H439 C435 0.950 . S
H440 C437 0.950 . S
C441 C432 1.390 . S
C441 H434 0.950 . S
C441 C438 1.387 . S
C442 C443 1.387 . S
C442 H446 0.950 . S
C442 C451 1.390 . S
C443 C442 1.387 . S
C443 C445 1.387 . S
H444 C451 0.950 . S
C445 C443 1.387 . S
C445 C447 1.390 . S
C445 H449 0.950 . S
H446 C442 0.950 . S
C447 C445 1.390 . S
C447 C448 1.387 . S
C447 H450 0.950 . S
C448 C447 1.387 . S
C448 C451 1.387 . S
H449 C445 0.950 . S
H450 C447 0.950 . S
C451 C442 1.390 . S
C451 H444 0.950 . S
C451 C448 1.387 . S
C452 C453 1.387 . S
C452 H456 0.950 . S
C452 C461 1.390 . S
C453 C452 1.387 . S
C453 C455 1.387 . S
H454 C461 0.950 . S
C455 C453 1.387 . S
C455 C457 1.390 . S
C455 H459 0.950 . S
H456 C452 0.950 . S
C457 C455 1.390 . S
C457 C458 1.387 . S
C457 H460 0.950 . S
C458 C457 1.387 . S
C458 C461 1.387 . S
H459 C455 0.950 . S
H460 C457 0.950 . S
C461 C452 1.390 . S
C461 H454 0.950 . S
C461 C458 1.387 . S
C462 C463 1.387 . S
C462 H466 0.950 . S
C462 C471 1.390 . S
C463 C462 1.387 . S
C463 C465 1.387 . S
H464 C471 0.950 . S
C465 C463 1.387 . S
C465 C467 1.390 . S
C465 H469 0.950 . S
H466 C462 0.950 . S
C467 C465 1.390 . S
C467 C468 1.387 . S
C467 H470 0.950 . S
C468 C467 1.387 . S
C468 C471 1.387 . S
H469 C465 0.950 . S
H470 C467 0.950 . S
C471 C462 1.390 . S
C471 H464 0.950 . S
C471 C468 1.387 . S
C472 C473 1.387 . S
C472 H476 0.950 . S
C472 C481 1.390 . S
C473 C472 1.387 . S
C473 C475 1.387 . S
H474 C481 0.950 . S
C475 C473 1.387 . S
C475 C477 1.390 . S
C475 H479 0.950 . S
H476 C472 0.950 . S
C477 C475 1.390 . S
C477 C478 1.387 . S
C477 H480 0.950 . S
C478 C477 1.387 . S
C478 C481 1.387 . S
H479 C475 0.950 . S
H480 C477 0.950 . S
C481 C472 1.390 . S
C481 H474 0.950 . S
C481 C478 1.387 . S
C482 C483 1.387 . S
C482 H486 0.950 . S
C482 C491 1.390 . S
C483 C482 1.387 . S
C483 C485 1.387 . S
H484 C491 0.950 . S
C485 C483 1.387 . S
C485 C487 1.390 . S
C485 H489 0.950 . S
H486 C482 0.950 . S
C487 C485 1.390 . S
C487 C488 1.387 . S
C487 H490 0.950 . S
C488 C487 1.387 . S
C488 C491 1.387 . S
H489 C485 0.950 . S
H490 C487 0.950 . S
C491 C482 1.390 . S
C491 H484 0.950 . S
C491 C488 1.387 . S
C492 C493 1.387 . S
C492 H496 0.950 . S
C492 C501 1.390 . S
C493 C492 1.387 . S
C493 C495 1.387 . S
H494 C501 0.950 . S
C495 C493 1.387 . S
C495 C497 1.390 . S
C495 H499 0.950 . S
H496 C492 0.950 . S
C497 C495 1.390 . S
C497 C498 1.387 . S
C497 H500 0.950 . S
C498 C497 1.387 . S
C498 C501 1.387 . S
H499 C495 0.950 . S
H500 C497 0.950 . S
C501 C492 1.390 . S
C501 H494 0.950 . S
C501 C498 1.387 . S
C502 C503 1.387 . S
C502 H506 0.950 . S
C502 C511 1.390 . S
C503 C502 1.387 . S
C503 C505 1.387 . S
H504 C511 0.950 . S
C505 C503 1.387 . S
C505 C507 1.390 . S
C505 H509 0.950 . S
H506 C502 0.950 . S
C507 C505 1.390 . S
C507 C508 1.387 . S
C507 H510 0.950 . S
C508 C507 1.387 . S
C508 C511 1.387 . S
H509 C505 0.950 . S
H510 C507 0.950 . S
C511 C502 1.390 . S
C511 H504 0.950 . S
C511 C508 1.387 . S
C512 C513 1.387 . S
C512 H516 0.950 . S
C512 C521 1.390 . S
C513 C512 1.387 . S
C513 C515 1.387 . S
H514 C521 0.950 . S
C515 C513 1.387 . S
C515 C517 1.390 . S
C515 H519 0.950 . S
H516 C512 0.950 . S
C517 C515 1.390 . S
C517 C518 1.387 . S
C517 H520 0.950 . S
C518 C517 1.387 . S
C518 C521 1.387 . S
H519 C515 0.950 . S
H520 C517 0.950 . S
C521 C512 1.390 . S
C521 H514 0.950 . S
C521 C518 1.387 . S
C522 C523 1.387 . S
C522 H526 0.950 . S
C522 C531 1.390 . S
C523 C522 1.387 . S
C523 C525 1.387 . S
H524 C531 0.950 . S
C525 C523 1.387 . S
C525 C527 1.390 . S
C525 H529 0.950 . S
H526 C522 0.950 . S
C527 C525 1.390 . S
C527 C528 1.387 . S
C527 H530 0.950 . S
C528 C527 1.387 . S
C528 C531 1.387 . S
H529 C525 0.950 . S
H530 C527 0.950 . S
C531 C522 1.390 . S
C531 H524 0.950 . S
C531 C528 1.387 . S
C532 C533 1.387 . S
C532 H536 0.950 . S
C532 C541 1.390 . S
C533 C532 1.387 . S
C533 C535 1.387 . S
H534 C541 0.950 . S
C535 C533 1.387 . S
C535 C537 1.390 . S
C535 H539 0.950 . S
H536 C532 0.950 . S
C537 C535 1.390 . S
C537 C538 1.387 . S
C537 H540 0.950 . S
C538 C537 1.387 . S
C538 C541 1.387 . S
H539 C535 0.950 . S
H540 C537 0.950 . S
C541 C532 1.390 . S
C541 H534 0.950 . S
C541 C538 1.387 . S
C542 C543 1.387 . S
C542 H546 0.950 . S
C542 C551 1.390 . S
C543 C542 1.387 . S
C543 C545 1.387 . S
H544 C551 0.950 . S
C545 C543 1.387 . S
C545 C547 1.390 . S
C545 H549 0.950 . S
H546 C542 0.950 . S
C547 C545 1.390 . S
C547 C548 1.387 . S
C547 H550 0.950 . S
C548 C547 1.387 . S
C548 C551 1.387 . S
H549 C545 0.950 . S
H550 C547 0.950 . S
C551 C542 1.390 . S
C551 H544 0.950 . S
C551 C548 1.387 . S
C552 C553 1.387 . S
C552 H556 0.950 . S
C552 C561 1.390 . S
C553 C552 1.387 . S
C553 C555 1.387 . S
H554 C561 0.950 . S
C555 C553 1.387 . S
C555 C557 1.390 . S
C555 H559 0.950 . S
H556 C552 0.950 . S
C557 C555 1.390 . S
C557 C558 1.387 . S
C557 H560 0.950 . S
C558 C557 1.387 . S
C558 C561 1.387 . S
H559 C555 0.950 . S
H560 C557 0.950 . S
C561 C552 1.390 . S
C561 H554 0.950 . S
C561 C558 1.387 . S
C562 C563 1.387 . S
C562 H566 0.950 . S
C562 C571 1.390 1_545 S
C563 C562 1.387 . S
C563 C565 1.387 1_545 S
H564 C571 0.950 . S
C565 C563 1.387 1_565 S
C565 C567 1.390 . S
C565 H569 0.955 1_565 S
H566 C562 0.950 . S
C567 C565 1.390 . S
C567 C568 1.387 . S
C567 H570 0.950 . S
C568 C567 1.387 . S
C568 C571 1.387 . S
H569 C565 0.955 1_545 S
H570 C567 0.950 . S
C571 C562 1.390 1_565 S
C571 H564 0.950 . S
C571 C568 1.387 . S
C572 C573 1.387 . S
C572 H576 0.950 . S
C572 C581 1.390 1_455 S
C573 C572 1.387 . S
C573 C575 1.387 . S
H574 C581 0.950 . S
C575 C573 1.387 . S
C575 C577 1.390 . S
C575 H579 0.950 . S
H576 C572 0.950 . S
C577 C575 1.390 . S
C577 C578 1.387 1_455 S
C577 H580 0.950 . S
C578 C577 1.387 1_655 S
C578 C581 1.387 . S
H579 C575 0.950 . S
H580 C577 0.950 . S
C581 C572 1.390 1_655 S
C581 H574 0.950 . S
C581 C578 1.387 . S
C582 C583 1.387 . S
C582 H586 0.950 . S
C582 C591 1.390 . S
C583 C582 1.387 . S
C583 C585 1.387 . S
H584 C591 0.950 . S
C585 C583 1.387 . S
C585 C587 1.390 . S
C585 H589 0.950 . S
H586 C582 0.950 . S
C587 C585 1.390 . S
C587 C588 1.387 . S
C587 H590 0.950 . S
C588 C587 1.387 . S
C588 C591 1.387 . S
H589 C585 0.950 . S
H590 C587 0.950 . S
C591 C582 1.390 . S
C591 H584 0.950 . S
C591 C588 1.387 . S
C592 C593 1.387 1_545 S
C592 H596 0.950 1_544 S
C592 C601 1.390 . S
C593 C592 1.387 1_565 S
C593 C595 1.387 . S
H594 C601 0.950 . S
C595 C593 1.387 . S
C595 C597 1.390 1_565 S
C595 H599 0.950 . S
H596 C592 0.950 1_566 S
C597 C595 1.390 1_545 S
C597 C598 1.387 . S
C597 H600 0.950 . S
C598 C597 1.387 . S
C598 C601 1.387 . S
H599 C595 0.950 . S
H600 C597 0.950 . S
C601 C592 1.390 . S
C601 H594 0.950 . S
C601 C598 1.387 . S
C602 C603 1.409 . S
C602 H606 0.950 . S
C602 C611 1.390 . S
C603 C602 1.409 . S
C603 C605 1.371 1_554 S
H604 C611 0.950 . S
C605 C603 1.371 1_556 S
C605 C607 1.390 . S
C605 H609 0.950 . S
H606 C602 0.950 . S
C607 C605 1.390 . S
C607 C608 1.387 1_556 S
C607 H610 0.950 . S
C608 C607 1.387 1_554 S
C608 C611 1.387 . S
H609 C605 0.950 . S
H610 C607 0.950 . S
C611 C602 1.390 . S
C611 H604 0.950 . S
C611 C608 1.387 . S
C253 C9 1.508 . S
C258 C205 1.505 . S
C263 C174 1.298 . S
C268 C20 1.300 . S
C273 C34 1.158 1_565 S
C278 C191 1.194 1_554 S
C283 C93 1.632 . S
C288 C37 1.633 . S
C293 C107 1.524 . S
C298 C6 1.529 . S
C303 C121 1.512 . S
C308 C23 1.511 . S
C313 C48 1.417 . S
C318 C163 1.437 1_556 S
C323 C135 1.567 . S
C328 C65 1.567 . S
C333 C146 1.197 1_556 S
C338 C76 1.207 . S
C343 C79 1.500 . S
C348 C216 1.484 . S
C353 C51 1.294 . S
C358 C233 1.302 . S
C363 C244 1.135 . S
C368 C62 1.104 . S
C373 C177 1.252 . S
C378 C118 1.231 . S
C383 C90 1.200 . S
C388 C188 1.205 . S
C393 C202 0.875 . S
C398 C104 0.884 . S
C403 C247 1.264 . S
C408 C132 1.255 . S
C413 C149 1.391 . S
C418 C219 1.395 . S
C423 C230 1.063 . S
C428 C160 1.069 . S
C433 C217 2.132 . S
C438 C8 1.769 . S
C443 C21 1.907 . S
C448 C232 1.642 . S
C453 C35 1.853 . S
C458 C245 1.862 . S
C463 C36 1.627 . S
C468 C162 1.624 . S
C473 C134 1.782 . S
C478 C7 2.100 . S
C483 C22 1.664 . S
C488 C147 1.969 . S
C493 C92 1.656 . S
C498 C49 1.991 . S
C503 C106 1.703 . S
C508 C64 1.680 . S
C513 C77 1.976 . S
C518 C120 1.671 . S
C523 C78 1.703 . S
C528 C204 1.721 . S
C533 C50 1.560 . S
C538 C175 1.830 . S
C543 C63 1.994 . S
C548 C190 1.749 . S
C553 C119 1.897 . S
C558 C246 1.629 . S
C563 C91 2.032 . S
C568 C218 1.710 . S
C573 C231 1.951 . S
C578 C105 1.960 . S
C583 C176 1.665 . S
C588 C133 1.910 1_556 S
C593 C189 1.916 1_554 S
C598 C148 1.627 . S
C603 C203 1.931 1_554 S
C608 C161 1.936 1_455 S
