# Generated by pormake.
# Topology sml, (6)-cn, num edge types: 1
# Building blocks:
#     Node 0, Type 0, BuildingBlock: NUHQIS_clean_sbu_0, # of connection points: 6
#     Node 1, Type 0, BuildingBlock: NUHQIS_clean_sbu_0, # of connection points: 6
#     Node 2, Type 0, BuildingBlock: NUHQIS_clean_sbu_0, # of connection points: 6
#     Node 3, Type 0, BuildingBlock: NUHQIS_clean_sbu_0, # of connection points: 6
#     Node 4, Type 0, BuildingBlock: NUHQIS_clean_sbu_0, # of connection points: 6
#     Node 5, Type 0, BuildingBlock: NUHQIS_clean_sbu_0, # of connection points: 6
#     Edge 6, Type (0, 0), BuildingBlock: UVAHIK_clean_linker_0, # of connection points: 2
#     Edge 7, Type (0, 0), BuildingBlock: UVAHIK_clean_linker_0, # of connection points: 2
#     Edge 8, Type (0, 0), BuildingBlock: UVAHIK_clean_linker_0, # of connection points: 2
#     Edge 9, Type (0, 0), BuildingBlock: UVAHIK_clean_linker_0, # of connection points: 2
#     Edge 10, Type (0, 0), BuildingBlock: UVAHIK_clean_linker_0, # of connection points: 2
#     Edge 11, Type (0, 0), BuildingBlock: UVAHIK_clean_linker_0, # of connection points: 2
#     Edge 12, Type (0, 0), BuildingBlock: UVAHIK_clean_linker_0, # of connection points: 2
#     Edge 13, Type (0, 0), BuildingBlock: UVAHIK_clean_linker_0, # of connection points: 2
#     Edge 14, Type (0, 0), BuildingBlock: UVAHIK_clean_linker_0, # of connection points: 2
#     Edge 15, Type (0, 0), BuildingBlock: UVAHIK_clean_linker_0, # of connection points: 2
#     Edge 16, Type (0, 0), BuildingBlock: UVAHIK_clean_linker_0, # of connection points: 2
#     Edge 17, Type (0, 0), BuildingBlock: UVAHIK_clean_linker_0, # of connection points: 2
#     Edge 18, Type (0, 0), BuildingBlock: UVAHIK_clean_linker_0, # of connection points: 2
#     Edge 19, Type (0, 0), BuildingBlock: UVAHIK_clean_linker_0, # of connection points: 2
#     Edge 20, Type (0, 0), BuildingBlock: UVAHIK_clean_linker_0, # of connection points: 2
#     Edge 21, Type (0, 0), BuildingBlock: UVAHIK_clean_linker_0, # of connection points: 2
#     Edge 22, Type (0, 0), BuildingBlock: UVAHIK_clean_linker_0, # of connection points: 2
#     Edge 23, Type (0, 0), BuildingBlock: UVAHIK_clean_linker_0, # of connection points: 2
# Relax obj value: 0.143
# Max RMSD: 0.196
# Mean RMSD: 0.196
data_MOF--net-sml--node1-NUHQIS_clean_sbu_0--edge1-UVAHIK_clean_linker_0
_symmetry_space_group_name_H-M    P1
_symmetry_Int_Tables_number       1
_symmetry_cell_setting            triclinic
loop_
_symmetry_equiv_pos_as_xyz
'x, y, z'
_cell_length_a     43.746572
_cell_length_b     43.671906
_cell_length_c     29.580539
_cell_angle_alpha  90.005664
_cell_angle_beta   89.891969
_cell_angle_gamma 120.02934
loop_
_atom_site_label
_atom_site_type_symbol
_atom_site_fract_x
_atom_site_fract_y
_atom_site_fract_z
_atom_type_partial_charge
Tb0 Tb 0.19614 0.41638 0.09146 0.0
Eu1 Eu 0.14666 0.40744 1.00144 0.0
C2 C 0.1826 0.35926 0.01887 0.0
C3 C 0.23073 0.45169 0.99762 0.0
C4 C 0.21952 0.4212 0.21258 0.0
C5 C 0.235 0.42256 0.29169 0.0
C6 C 0.24375 0.42457 0.24582 0.0
C7 C 0.18624 0.41561 0.22571 0.0
C8 C 0.17745 0.41364 0.27161 0.0
C9 C 0.20177 0.41719 0.30527 0.0
C10 C 0.22903 0.42324 0.16441 0.0
O11 O 0.1654 0.44143 0.10677 0.0
O12 O 0.16252 0.45967 0.03548 0.0
O13 O 0.10996 0.38619 0.06124 0.0
O14 O 0.14445 0.37 0.10111 0.0
C15 C 0.16211 0.46314 0.07948 0.0
O16 O 0.13379 0.43236 0.94663 0.0
O17 O 0.10474 0.37538 0.95324 0.0
O18 O 0.15499 0.3604 1.00334 0.0
O19 O 0.20591 0.38361 0.04585 0.0
O20 O 0.23185 0.45522 0.04198 0.0
O21 O 0.20181 0.42919 0.97646 0.0
C22 C 0.11409 0.36841 0.09417 0.0
O23 O 0.21239 0.39374 0.14187 0.0
O24 O 0.23067 0.44965 0.14177 0.0
C25 C 0.11599 0.39948 0.87929 0.0
C26 C 0.12737 0.3986 0.78523 0.0
C27 C 0.09602 0.39616 0.80183 0.0
C28 C 0.09046 0.39668 0.84842 0.0
C29 C 0.147 0.40124 0.86306 0.0
C30 C 0.15265 0.40082 0.81651 0.0
C31 C 0.111 0.40246 0.92806 0.0
H32 H 0.25417 0.42479 0.3165 0.0
H33 H 0.26946 0.42866 0.23631 0.0
H34 H 0.16712 0.41287 0.20045 0.0
H35 H 0.15179 0.40986 0.28069 0.0
H36 H 0.07618 0.39483 0.77881 0.0
H37 H 0.06646 0.39551 0.86031 0.0
H38 H 0.16704 0.4034 0.88642 0.0
H39 H 0.17685 0.40225 0.80501 0.0
Tb40 Tb 0.78704 0.21395 0.46535 0.0
Eu41 Eu 0.83791 0.25698 0.55422 0.0
C42 C 0.80745 0.17473 0.53737 0.0
C43 C 0.75287 0.2142 0.55762 0.0
C44 C 0.7604 0.19477 0.34487 0.0
C45 C 0.744 0.17967 0.26603 0.0
C46 C 0.73665 0.17226 0.31216 0.0
C47 C 0.79156 0.22504 0.33083 0.0
C48 C 0.79902 0.23243 0.2847 0.0
C49 C 0.77541 0.20975 0.2516 0.0
C50 C 0.7533 0.18562 0.3933 0.0
O51 O 0.78913 0.26443 0.47298 0.0
O52 O 0.84407 0.29826 0.50358 0.0
O53 O 0.87405 0.25435 0.50174 0.0
O54 O 0.83965 0.24765 0.43955 0.0
C55 C 0.81773 0.29524 0.47903 0.0
O56 O 0.85353 0.29761 0.60622 0.0
O57 O 0.87612 0.26341 0.60618 0.0
O58 O 0.81265 0.19871 0.56778 0.0
O59 O 0.80501 0.18003 0.49421 0.0
O60 O 0.75126 0.19453 0.52299 0.0
O61 O 0.782 0.24351 0.5681 0.0
C62 C 0.8695 0.25379 0.45774 0.0
O63 O 0.77455 0.17708 0.41299 0.0
O64 O 0.74778 0.20687 0.41847 0.0
C65 C 0.86518 0.28094 0.67722 0.0
C66 C 0.85103 0.26947 0.77113 0.0
C67 C 0.88285 0.2983 0.75527 0.0
C68 C 0.88981 0.30395 0.70882 0.0
C69 C 0.83344 0.25211 0.69267 0.0
C70 C 0.82643 0.24642 0.73912 0.0
C71 C 0.8726 0.28733 0.62834 0.0
H72 H 0.72542 0.16135 0.24164 0.0
H73 H 0.71259 0.14864 0.32228 0.0
H74 H 0.81028 0.2428 0.35553 0.0
H75 H 0.82321 0.25604 0.27498 0.0
H76 H 0.90221 0.3169 0.77874 0.0
H77 H 0.9144 0.32643 0.69756 0.0
H78 H 0.81407 0.23399 0.66877 0.0
H79 H 0.80188 0.22369 0.74992 0.0
Tb80 Tb 0.57948 0.77625 0.74692 0.0
Eu81 Eu 0.58317 0.73391 0.65532 0.0
C82 C 0.6326 0.81817 0.66997 0.0
C83 C 0.53885 0.77358 0.65723 0.0
C84 C 0.57992 0.79778 0.86807 0.0
C85 C 0.58336 0.81462 0.94692 0.0
C86 C 0.58043 0.82092 0.9012 0.0
C87 C 0.58251 0.76824 0.88108 0.0
C88 C 0.58532 0.76184 0.92683 0.0
C89 C 0.58578 0.78497 0.96033 0.0
C90 C 0.57679 0.80468 0.82012 0.0
O91 O 0.55377 0.72081 0.76403 0.0
O92 O 0.53311 0.69761 0.69408 0.0
O93 O 0.60547 0.7179 0.71297 0.0
O94 O 0.6252 0.76932 0.75268 0.0
C95 C 0.531 0.69512 0.73839 0.0
O96 O 0.55604 0.69726 0.60011 0.0
O97 O 0.6127 0.7207 0.60703 0.0
O98 O 0.63064 0.78924 0.65351 0.0
O99 O 0.60945 0.81753 0.69874 0.0
O100 O 0.53796 0.77184 0.70173 0.0
O101 O 0.56004 0.76687 0.63327 0.0
C102 C 0.62518 0.73974 0.7448 0.0
O103 O 0.60533 0.81582 0.79591 0.0
O104 O 0.54909 0.78023 0.79917 0.0
C105 C 0.58911 0.70953 0.53314 0.0
C106 C 0.59309 0.72256 0.43918 0.0
C107 C 0.59147 0.69163 0.45607 0.0
C108 C 0.58948 0.6852 0.50262 0.0
C109 C 0.59118 0.74065 0.51668 0.0
C110 C 0.59318 0.74712 0.47013 0.0
C111 C 0.5851 0.70159 0.58181 0.0
H112 H 0.58319 0.83271 0.97183 0.0
H113 H 0.57844 0.84382 0.89173 0.0
H114 H 0.58237 0.75018 0.85584 0.0
H115 H 0.58756 0.73901 0.93593 0.0
H116 H 0.59186 0.6724 0.4333 0.0
H117 H 0.58789 0.66104 0.51478 0.0
H118 H 0.59073 0.75966 0.53983 0.0
H119 H 0.59394 0.77098 0.45836 0.0
Tb120 Tb 0.7848 0.58725 0.12296 0.0
Eu121 Eu 0.73851 0.5847 0.21439 0.0
C122 C 0.82087 0.64275 0.19969 0.0
C123 C 0.78769 0.54997 0.21319 0.0
C124 C 0.80772 0.58968 1.002 0.0
C125 C 0.82438 0.59325 0.923 0.0
C126 C 0.83197 0.59276 0.96883 0.0
C127 C 0.7758 0.58736 0.98889 0.0
C128 C 0.76814 0.5878 0.94304 0.0
C129 C 0.79229 0.59061 0.90946 0.0
C130 C 0.81585 0.58883 0.05006 0.0
O131 O 0.72981 0.55446 0.10547 0.0
O132 O 0.70606 0.53381 0.17564 0.0
O133 O 0.71872 0.60311 0.15644 0.0
O134 O 0.7705 0.62806 0.11627 0.0
C135 C 0.70499 0.53069 0.1314 0.0
O136 O 0.70346 0.55455 0.2698 0.0
O137 O 0.72051 0.61022 0.26277 0.0
O138 O 0.79023 0.63644 0.21593 0.0
O139 O 0.82411 0.62177 0.17077 0.0
O140 O 0.7863 0.54878 0.16872 0.0
O141 O 0.77699 0.56829 0.23672 0.0
C142 C 0.73935 0.62432 0.12463 0.0
O143 O 0.82278 0.61685 0.07345 0.0
O144 O 0.79455 0.55987 0.07177 0.0
C145 C 0.7124 0.58684 0.33676 0.0
C146 C 0.72606 0.5914 0.43056 0.0
C147 C 0.69359 0.58624 0.41426 0.0
C148 C 0.68683 0.58393 0.36778 0.0
C149 C 0.74507 0.59264 0.35266 0.0
C150 C 0.75184 0.59489 0.39912 0.0
C151 C 0.70419 0.58207 0.28817 0.0
H152 H 0.84384 0.59604 0.89819 0.0
H153 H 0.85682 0.59477 0.97837 0.0
H154 H 0.75674 0.58499 0.01413 0.0
H155 H 0.74304 0.58535 0.93392 0.0
H156 H 0.67301 0.58303 0.43746 0.0
H157 H 0.66139 0.57924 0.35608 0.0
H158 H 0.76515 0.59495 0.32913 0.0
H159 H 0.77729 0.59935 0.41043 0.0
Tb160 Tb 0.20335 0.79612 0.42475 0.0
Eu161 Eu 0.2474 0.84119 0.33371 0.0
C162 C 0.16424 0.812 0.34864 0.0
C163 C 0.2037 0.75757 0.33504 0.0
C164 C 0.18121 0.77412 0.54559 0.0
C165 C 0.16507 0.75975 0.62453 0.0
C166 C 0.15793 0.75149 0.57866 0.0
C167 C 0.21167 0.80533 0.55884 0.0
C168 C 0.21889 0.8136 0.60473 0.0
C169 C 0.19574 0.79082 0.63822 0.0
C170 C 0.17367 0.76489 0.49748 0.0
O171 O 0.25859 0.82353 0.44244 0.0
O172 O 0.28151 0.8248 0.37259 0.0
O173 O 0.26519 0.87995 0.39111 0.0
O174 O 0.21392 0.85016 0.43197 0.0
C175 C 0.28384 0.82524 0.4169 0.0
O176 O 0.2832 0.84802 0.27839 0.0
O177 O 0.26297 0.88408 0.28482 0.0
O178 O 0.19429 0.83811 0.33328 0.0
O179 O 0.16289 0.78808 0.37675 0.0
O180 O 0.2071 0.7586 0.37929 0.0
O181 O 0.21048 0.7857 0.3116 0.0
C182 C 0.24401 0.87898 0.42324 0.0
O183 O 0.16432 0.78414 0.47413 0.0
O184 O 0.19679 0.7599 0.47581 0.0
C185 C 0.27243 0.86956 0.21108 0.0
C186 C 0.259 0.85959 0.1173 0.0
C187 C 0.29043 0.88853 0.13357 0.0
C188 C 0.29709 0.8934 0.18005 0.0
C189 C 0.24075 0.84101 0.1952 0.0
C190 C 0.2341 0.83605 0.14874 0.0
C191 C 0.28063 0.87369 0.25967 0.0
H192 H 0.14636 0.74189 0.64927 0.0
H193 H 0.13421 0.72739 0.56901 0.0
H194 H 0.22996 0.82315 0.53368 0.0
H195 H 0.24291 0.83753 0.61396 0.0
H196 H 0.31034 0.90691 0.11036 0.0
H197 H 0.32176 0.91548 0.19173 0.0
H198 H 0.22138 0.82233 0.21874 0.0
H199 H 0.20943 0.81378 0.13744 0.0
Tb200 Tb 0.39996 0.18553 0.80645 0.0
Eu201 Eu 0.3993 0.13968 0.89744 0.0
C202 C 0.34798 0.17276 0.88553 0.0
C203 C 0.44208 0.22428 0.89551 0.0
C204 C 0.39821 0.20641 0.68521 0.0
C205 C 0.39605 0.22091 0.60646 0.0
C206 C 0.39761 0.2292 0.65239 0.0
C207 C 0.39691 0.17497 0.67162 0.0
C208 C 0.3954 0.16666 0.62564 0.0
C209 C 0.39515 0.18965 0.5924 0.0
C210 C 0.40056 0.21586 0.73335 0.0
O211 O 0.42716 0.15751 0.78812 0.0
O212 O 0.44873 0.154 0.85711 0.0
O213 O 0.37691 0.10152 0.83949 0.0
O214 O 0.35499 0.1322 0.80211 0.0
C215 C 0.45046 0.15466 0.81272 0.0
O216 O 0.42739 0.13069 0.95189 0.0
O217 O 0.3708 0.09665 0.9458 0.0
O218 O 0.35139 0.1465 0.90145 0.0
O219 O 0.36956 0.19542 0.85555 0.0
O220 O 0.44092 0.22422 0.85098 0.0
O221 O 0.42302 0.19581 0.91981 0.0
C222 C 0.35626 0.10315 0.80867 0.0
O223 O 0.37227 0.19688 0.75747 0.0
O224 O 0.42892 0.22091 0.75426 0.0
C225 C 0.39489 0.11033 0.01937 0.0
C226 C 0.39115 0.12072 0.11308 0.0
C227 C 0.39347 0.09157 0.09708 0.0
C228 C 0.39538 0.08649 0.05064 0.0
C229 C 0.39207 0.13916 0.03499 0.0
C230 C 0.39023 0.14432 0.08139 0.0
C231 C 0.39866 0.10581 0.97074 0.0
H232 H 0.39526 0.23893 0.58196 0.0
H233 H 0.39842 0.25348 0.66229 0.0
H234 H 0.39733 0.15702 0.69658 0.0
H235 H 0.39507 0.14255 0.61614 0.0
H236 H 0.39465 0.07312 0.12047 0.0
H237 H 0.39772 0.06418 0.03917 0.0
H238 H 0.39163 0.15785 0.01128 0.0
H239 H 0.38797 0.16675 0.09244 0.0
C240 C 0.31267 0.18082 0.9457 0.0
C241 C 0.31821 0.17684 0.89998 0.0
C242 C 0.28812 0.19096 0.95806 0.0
C243 C 0.24627 0.2383 0.9074 0.0
H244 H 0.201 0.22117 0.02475 0.0
C245 C 0.17389 0.31112 0.96533 0.0
C246 C 0.18801 0.32979 1.00572 0.0
C247 C 0.18129 0.28479 0.95195 0.0
C248 C 0.21325 0.22587 0.99169 0.0
H249 H 0.30096 0.17698 0.83154 0.0
H250 H 0.25664 0.19246 0.85297 0.0
H251 H 0.22861 0.18688 1.00155 0.0
H252 H 0.21916 0.33434 0.065 0.0
H253 H 0.23172 0.28824 0.04181 0.0
H254 H 0.23127 0.27753 0.89788 0.0
C255 C 0.27213 0.18956 0.87936 0.0
C256 C 0.22927 0.20647 0.97851 0.0
C257 C 0.29724 0.1804 0.86704 0.0
C258 C 0.20825 0.32063 0.03343 0.0
C259 C 0.21511 0.29399 0.02046 0.0
C260 C 0.22981 0.25722 0.92031 0.0
C261 C 0.26832 0.19653 0.92481 0.0
C262 C 0.24685 0.21315 0.93667 0.0
C263 C 0.20228 0.2763 0.97923 0.0
C264 C 0.21404 0.25188 0.96302 0.0
H265 H 0.32883 0.17831 0.97151 0.0
H266 H 0.28621 0.19637 0.99335 0.0
H267 H 0.26011 0.24486 0.87536 0.0
H268 H 0.15816 0.31764 0.9434 0.0
H269 H 0.17115 0.27147 0.91996 0.0
C270 C 0.08748 0.3253 0.1573 0.0
C271 C 0.08637 0.35034 0.12855 0.0
C272 C 0.06526 0.31241 0.19482 0.0
C273 C 0.01881 0.33807 0.27468 0.0
H274 H 0.96483 0.23818 0.3041 0.0
C275 C 0.93374 0.28546 0.43686 0.0
C276 C 0.89847 0.26102 0.42646 0.0
C277 C 0.96005 0.29478 0.40399 0.0
C278 C 0.98009 0.26617 0.29646 0.0
H279 H 0.0605 0.38076 0.11559 0.0
H280 H 0.02144 0.35806 0.18143 0.0
H281 H 0.00223 0.25742 0.2366 0.0
H282 H 0.86309 0.22556 0.37512 0.0
H283 H 0.90883 0.2413 0.31844 0.0
H284 H -0.00393 0.34674 0.33407 0.0
C285 C 0.03969 0.34863 0.17487 0.0
C286 C 0.0014 0.27714 0.25796 0.0
C287 C 0.06166 0.36123 0.13696 0.0
C288 C 0.89012 0.24471 0.38384 0.0
C289 C 0.9163 0.25349 0.35152 0.0
C290 C -0.00222 0.32713 0.31348 0.0
C291 C 0.04182 0.32463 0.20455 0.0
C292 C 0.02037 0.31311 0.24627 0.0
C293 C 0.95135 0.2791 0.3609 0.0
C294 C 0.97771 0.29103 0.32416 0.0
H295 H 0.10633 0.31648 0.15163 0.0
H296 H 0.06742 0.29397 0.21723 0.0
H297 H 0.03366 0.36602 0.26669 0.0
H298 H 0.9407 0.29841 0.4695 0.0
H299 H 0.987 0.3146 0.41188 0.0
C300 C 0.79347 0.11296 0.5201 0.0
C301 C 0.80149 0.13981 0.55202 0.0
C302 C 0.78364 0.07873 0.53416 0.0
C303 C 0.74035 0.02112 0.63022 0.0
H304 H 0.76232 0.95585 0.56906 0.0
C305 C 0.67693 0.87928 0.69059 0.0
C306 C 0.66189 0.85309 0.65723 0.0
C307 C 0.70108 0.91402 0.67891 0.0
C308 C 0.75588 0.97378 0.5863 0.0
H309 H 0.80788 0.15237 0.6236 0.0
H310 H 0.79091 0.09265 0.64806 0.0
H311 H 0.79284 0.01834 0.54686 0.0
H312 H 0.66151 0.84174 0.58596 0.0
H313 H 0.7031 0.90333 0.56487 0.0
H314 H 0.70265 0.97696 0.66846 0.0
C315 C 0.79167 0.098 0.61219 0.0
C316 C 0.77338 0.00949 0.5737 0.0
C317 C 0.80147 0.13222 0.59816 0.0
C318 C 0.67289 0.86167 0.61216 0.0
C319 C 0.69673 0.89682 0.60024 0.0
C320 C 0.72287 0.98564 0.64261 0.0
C321 C 0.78164 0.07069 0.58039 0.0
C322 C 0.76563 0.03345 0.59549 0.0
C323 C 0.71009 0.92353 0.63343 0.0
C324 C 0.73032 0.96149 0.62081 0.0
H325 H 0.79345 0.11796 0.48424 0.0
H326 H 0.77583 0.05821 0.50889 0.0
H327 H 0.73309 0.03867 0.64684 0.0
H328 H 0.66925 0.87304 0.72573 0.0
H329 H 0.71169 0.93373 0.70544 0.0
C330 C 0.67082 0.75376 0.8037 0.0
C331 C 0.64254 0.72846 0.77794 0.0
C332 C 0.68312 0.7434 0.84078 0.0
C333 C 0.67616 0.6645 0.89937 0.0
H334 H 0.70195 0.72592 1.00422 0.0
C335 C 0.69061 0.62224 0.07919 0.0
C336 C 0.72602 0.64077 0.09304 0.0
C337 C 0.67961 0.63437 0.04249 0.0
C338 C 0.69471 0.70862 0.97511 0.0
H339 H 0.60557 0.67249 0.76961 0.0
H340 H 0.62611 0.65438 0.8351 0.0
H341 H 0.68605 0.74362 0.93385 0.0
H342 H 0.77716 0.68737 0.0818 0.0
H343 H 0.75739 0.70939 0.01867 0.0
H344 H 0.68367 0.629 0.94175 0.0
C345 C 0.6396 0.68216 0.82619 0.0
C346 C 0.68603 0.71883 0.93465 0.0
C347 C 0.62778 0.6925 0.78857 0.0
C348 C 0.74969 0.67274 0.0717 0.0
C349 C 0.73847 0.6853 0.03576 0.0
C350 C 0.68413 0.65402 0.94011 0.0
C351 C 0.66685 0.70757 0.85343 0.0
C352 C 0.67684 0.69698 0.89616 0.0
C353 C 0.70368 0.66559 0.02009 0.0
C354 C 0.69353 0.67607 0.9781 0.0
H355 H 0.68274 0.78169 0.79599 0.0
H356 H 0.70482 0.76361 0.86017 0.0
H357 H 0.66982 0.64728 0.87034 0.0
H358 H 0.67203 0.59727 0.09479 0.0
H359 H 0.65264 0.61889 0.03069 0.0
C360 C 0.1002 0.78983 0.36011 0.0
C361 C 0.13064 0.8086 0.33342 0.0
C362 C 0.06764 0.78405 0.34478 0.0
C363 C 0.02061 0.76859 0.24077 0.0
H364 H 0.94829 0.76956 0.31585 0.0
C365 C 0.87818 0.69546 0.18135 0.0
C366 C 0.85335 0.67434 0.21408 0.0
C367 C 0.91157 0.72228 0.19422 0.0
C368 C 0.96814 0.76902 0.29447 0.0
H369 H 0.15132 0.83731 0.27063 0.0
H370 H 0.09383 0.82627 0.2431 0.0
H371 H 0.00936 0.79847 0.34236 0.0
H372 H 0.84263 0.66529 0.28568 0.0
H373 H 0.90179 0.71089 0.3086 0.0
H374 H 0.97969 0.73705 0.19443 0.0
C375 C 0.09542 0.81639 0.27609 0.0
C376 C 0.00309 0.78579 0.30954 0.0
C377 C 0.12821 0.82269 0.2918 0.0
C378 C 0.86152 0.68152 0.25999 0.0
C379 C 0.89536 0.70779 0.27297 0.0
C380 C 0.98571 0.75145 0.226 0.0
C381 C 0.0648 0.79653 0.30219 0.0
C382 C 0.02942 0.78491 0.28327 0.0
C383 C 0.92119 0.72769 0.24011 0.0
C384 C 0.95882 0.75063 0.25314 0.0
H385 H 0.10138 0.77901 0.39259 0.0
H386 H 0.0444 0.76829 0.36532 0.0
H387 H 0.04029 0.76704 0.22017 0.0
H388 H 0.87207 0.69051 0.14567 0.0
H389 H 0.9303 0.73776 0.16802 0.0
C390 C 0.30997 0.07114 0.75058 0.0
C391 C 0.33898 0.07471 0.77515 0.0
C392 C 0.29762 0.04892 0.71304 0.0
C393 C 0.30582 0.97908 0.65084 0.0
H394 H 0.2775 0.01496 0.54872 0.0
C395 C 0.29193 0.92686 0.46842 0.0
C396 C 0.25628 0.90827 0.45558 0.0
C397 C 0.3024 0.94933 0.50583 0.0
C398 C 0.28541 0.00482 0.57707 0.0
H399 H 0.37718 0.05715 0.78089 0.0
H400 H 0.35648 0.01923 0.71461 0.0
H401 H 0.29357 0.04755 0.61995 0.0
H402 H 0.20402 0.9 0.4695 0.0
H403 H 0.22278 0.94067 0.53393 0.0
H404 H 0.29884 0.93706 0.6068 0.0
C405 C 0.34251 0.03273 0.72479 0.0
C406 C 0.29421 0.02312 0.61802 0.0
C407 C 0.35443 0.05447 0.76287 0.0
C408 C 0.23168 0.91421 0.47874 0.0
C409 C 0.24232 0.93733 0.51545 0.0
C410 C 0.2977 0.96121 0.60962 0.0
C411 C 0.31453 0.03039 0.69873 0.0
C412 C 0.30437 0.01039 0.65552 0.0
C413 C 0.27749 0.95409 0.53 0.0
C414 C 0.2874 0.97396 0.57262 0.0
H415 H 0.2975 0.08639 0.75956 0.0
H416 H 0.27538 0.047 0.69459 0.0
H417 H 0.31293 0.96814 0.67908 0.0
H418 H 0.31127 0.92229 0.45148 0.0
H419 H 0.32966 0.96211 0.51677 0.0
C420 C 0.10684 0.37808 0.70551 0.0
C421 C 0.13406 0.39977 0.73557 0.0
C422 C 0.11311 0.37971 0.65885 0.0
C423 C 0.17455 0.43819 0.5701 0.0
H424 H 0.13544 0.35222 0.499 0.0
C425 C 0.21826 0.43779 0.38575 0.0
C426 C 0.1927 0.41542 0.3543 0.0
C427 C 0.21009 0.43588 0.43178 0.0
C428 C 0.14619 0.37655 0.51818 0.0
H429 H 0.18922 0.44046 0.73973 0.0
H430 H 0.20025 0.4429 0.65867 0.0
H431 H 0.12313 0.34872 0.5799 0.0
H432 H 0.13831 0.37338 0.34713 0.0
H433 H 0.12384 0.37061 0.42726 0.0
H434 H 0.19757 0.46606 0.50853 0.0
C435 C 0.17394 0.42479 0.6711 0.0
C436 C 0.13915 0.37452 0.56465 0.0
C437 C 0.16772 0.42307 0.71772 0.0
C438 C 0.15861 0.39126 0.37021 0.0
C439 C 0.15042 0.38937 0.41633 0.0
C440 C 0.18152 0.44023 0.52366 0.0
C441 C 0.14672 0.4032 0.64101 0.0
C442 C 0.15344 0.40531 0.59129 0.0
C443 C 0.17608 0.41161 0.44778 0.0
C444 C 0.16765 0.40943 0.49707 0.0
H445 H 0.08068 0.35961 0.71806 0.0
H446 H 0.09145 0.36289 0.63669 0.0
H447 H 0.18546 0.4625 0.58935 0.0
H448 H 0.24465 0.45706 0.37478 0.0
H449 H 0.23068 0.45317 0.45495 0.0
C450 C 0.81817 0.22978 0.18596 0.0
C451 C 0.78364 0.21707 0.20233 0.0
C452 C 0.82569 0.23586 0.13965 0.0
C453 C 0.78262 0.21204 0.02673 0.0
H454 H 0.87012 0.29283 0.9859 0.0
C455 C 0.80928 0.25182 0.83769 0.0
C456 C 0.84348 0.26358 0.82075 0.0
C457 C 0.80221 0.24636 0.88413 0.0
C458 C 0.84573 0.2699 0.99667 0.0
H459 H 0.73017 0.2017 0.18243 0.0
H460 H 0.74325 0.21239 0.10197 0.0
H461 H 0.85749 0.28325 0.06664 0.0
H462 H 0.89694 0.27827 0.83993 0.0
H463 H 0.88464 0.26884 0.92073 0.0
H464 H 0.77083 0.19871 0.9568 0.0
C465 C 0.76446 0.21703 0.12481 0.0
C466 C 0.83846 0.26438 0.04309 0.0
C467 C 0.75693 0.21091 0.17109 0.0
C468 C 0.87041 0.26976 0.85167 0.0
C469 C 0.86334 0.26433 0.89812 0.0
C470 C 0.78986 0.21757 0.98034 0.0
C471 C 0.79892 0.22944 0.10836 0.0
C472 C 0.80677 0.23539 0.05881 0.0
C473 C 0.82912 0.25252 0.91504 0.0
C474 C 0.8215 0.2466 0.96461 0.0
H475 H 0.83933 0.23434 0.20883 0.0
H476 H 0.85243 0.24492 0.12831 0.0
H477 H 0.75824 0.18906 0.03744 0.0
H478 H 0.78797 0.24735 0.81513 0.0
H479 H 0.77567 0.23782 0.89587 0.0
C480 C 0.57307 0.70088 0.35991 0.0
C481 C 0.59399 0.72883 0.38953 0.0
C482 C 0.57338 0.70684 0.3134 0.0
C483 C 0.59433 0.77776 0.23009 0.0
H484 H 0.59314 0.71012 0.14414 0.0
C485 C 0.60998 0.80616 0.03831 0.0
C486 C 0.58849 0.77818 1.0091 0.0
C487 C 0.61174 0.80003 0.08438 0.0
C488 C 0.59309 0.7291 0.16766 0.0
H489 H 0.63223 0.78488 0.39307 0.0
H490 H 0.6327 0.79527 0.31199 0.0
H491 H 0.59416 0.6997 0.225 0.0
H492 H 0.55198 0.72172 1.00558 0.0
H493 H 0.55485 0.71101 0.08599 0.0
H494 H 0.59297 0.80704 0.17291 0.0
C495 C 0.61565 0.76881 0.32486 0.0
C496 C 0.5937 0.72313 0.21406 0.0
C497 C 0.61537 0.76285 0.37137 0.0
C498 C 0.56913 0.74381 0.02702 0.0
C499 C 0.57081 0.73767 0.07316 0.0
C500 C 0.59366 0.7837 0.18374 0.0
C501 C 0.59457 0.7409 0.29529 0.0
C502 C 0.59431 0.74738 0.24586 0.0
C503 C 0.59197 0.76575 0.1025 0.0
C504 C 0.59301 0.75946 0.15189 0.0
H505 H 0.55583 0.67446 0.37275 0.0
H506 H 0.55641 0.68484 0.29172 0.0
H507 H 0.59419 0.79669 0.25362 0.0
H508 H 0.62572 0.83287 0.02548 0.0
H509 H 0.62884 0.82218 0.10575 0.0
C510 C 0.79318 0.57226 0.82905 0.0
C511 C 0.78402 0.59048 0.86053 0.0
C512 C 0.7858 0.5723 0.78309 0.0
C513 C 0.76622 0.6216 0.6969 0.0
H514 H 0.73509 0.53622 0.62639 0.0
C515 C 0.72138 0.6096 0.51001 0.0
C516 C 0.7326 0.59211 0.4801 0.0
C517 C 0.72694 0.60957 0.55661 0.0
C518 C 0.7441 0.5604 0.64547 0.0
H519 H 0.75989 0.62316 0.86799 0.0
H520 H 0.74636 0.62262 0.7879 0.0
H521 H 0.74548 0.53555 0.70717 0.0
H522 H 0.75823 0.56063 0.47604 0.0
H523 H 0.76842 0.56107 0.55704 0.0
H524 H 0.76481 0.64641 0.63506 0.0
C525 C 0.75966 0.60862 0.79876 0.0
C526 C 0.75008 0.56002 0.69185 0.0
C527 C 0.76706 0.60858 0.84481 0.0
C528 C 0.7496 0.5747 0.49798 0.0
C529 C 0.75505 0.57458 0.54453 0.0
C530 C 0.76017 0.62195 0.65048 0.0
C531 C 0.76898 0.59049 0.76729 0.0
C532 C 0.76147 0.59068 0.71814 0.0
C533 C 0.7437 0.59191 0.57448 0.0
C534 C 0.74929 0.59142 0.62412 0.0
H535 H 0.80584 0.55764 0.83994 0.0
H536 H 0.79374 0.55839 0.75984 0.0
H537 H 0.77541 0.64582 0.71594 0.0
H538 H 0.70848 0.62353 0.49738 0.0
H539 H 0.71762 0.62295 0.57872 0.0
C540 C 0.19665 0.77212 0.71845 0.0
C541 C 0.20361 0.79913 0.68719 0.0
C542 C 0.20364 0.77969 0.76445 0.0
C543 C 0.21762 0.84669 0.85117 0.0
H544 H 0.25514 0.79789 0.92115 0.0
C545 C 0.26173 0.88186 0.03794 0.0
C546 C 0.25265 0.85347 0.06777 0.0
C547 C 0.25636 0.87607 0.99134 0.0
C548 C 0.24432 0.8115 0.90222 0.0
H549 H 0.22343 0.85544 0.68019 0.0
H550 H 0.23634 0.86875 0.76034 0.0
H551 H 0.24527 0.78661 0.84034 0.0
H552 H 0.23105 0.79672 0.07172 0.0
H553 H 0.2212 0.78658 0.9907 0.0
H554 H 0.21672 0.87158 0.9132 0.0
C555 C 0.22503 0.84159 0.74927 0.0
C556 C 0.23865 0.80502 0.85582 0.0
C557 C 0.218 0.83401 0.70319 0.0
C558 C 0.23799 0.81916 0.04983 0.0
C559 C 0.23274 0.81339 1.00327 0.0
C560 C 0.22337 0.85322 0.89761 0.0
C561 C 0.21789 0.8145 0.78052 0.0
C562 C 0.22499 0.82233 0.82971 0.0
C563 C 0.24194 0.84177 0.9734 0.0
C564 C 0.23657 0.83552 0.92377 0.0
H565 H 0.18601 0.74504 0.70735 0.0
H566 H 0.19742 0.75808 0.78753 0.0
H567 H 0.20663 0.86015 0.8323 0.0
H568 H 0.2728 0.90859 0.05063 0.0
H569 H 0.264 0.89857 0.9693 0.0
C570 C 0.37352 0.14658 0.5272 0.0
C571 C 0.3943 0.18138 0.54329 0.0
C572 C 0.37246 0.13913 0.48096 0.0
C573 C 0.38933 0.18192 0.36848 0.0
H574 H 0.39156 0.0988 0.32721 0.0
C575 C 0.40978 0.16127 0.18046 0.0
C576 C 0.39044 0.12691 0.16256 0.0
C577 C 0.40947 0.16717 0.22689 0.0
C578 C 0.39046 0.1219 0.33813 0.0
H579 H 0.43112 0.2354 0.52315 0.0
H580 H 0.4291 0.22246 0.44283 0.0
H581 H 0.39241 0.11024 0.4081 0.0
H582 H 0.35521 0.07186 0.17972 0.0
H583 H 0.35454 0.08216 0.26071 0.0
H584 H 0.38731 0.19362 0.29868 0.0
C585 C 0.4131 0.201 0.46583 0.0
C586 C 0.39098 0.12846 0.38456 0.0
C587 C 0.41423 0.20842 0.51198 0.0
C588 C 0.37077 0.0986 0.19238 0.0
C589 C 0.37042 0.10451 0.23887 0.0
C590 C 0.38874 0.17533 0.32212 0.0
C591 C 0.39209 0.1663 0.44966 0.0
C592 C 0.39065 0.15869 0.40031 0.0
C593 C 0.38976 0.1389 0.25675 0.0
C594 C 0.38952 0.14536 0.30627 0.0
H595 H 0.35749 0.12514 0.55021 0.0
H596 H 0.35569 0.11217 0.46964 0.0
H597 H 0.38839 0.20511 0.37939 0.0
H598 H 0.42574 0.18362 0.15865 0.0
H599 H 0.42521 0.19392 0.23947 0.0
C600 C 0.14141 0.48685 0.14134 0.0
C601 C 0.15874 0.49211 0.0996 0.0
C602 C 0.14192 0.51515 0.16387 0.0
C603 C 0.199 0.60615 0.18516 0.0
H604 H 0.11709 0.61038 0.22723 0.0
C605 C 0.2031 0.70031 0.32608 0.0
C606 C 0.1934 0.72456 0.31024 0.0
C607 C 0.19641 0.67095 0.29986 0.0
C608 C 0.14007 0.60935 0.21569 0.0
H609 H 0.18937 0.5306 0.048 0.0
H610 H 0.19135 0.58071 0.08852 0.0
H611 H 0.10908 0.56107 0.17886 0.0
H612 H 0.16775 0.73645 0.25587 0.0
H613 H 0.15491 0.6843 0.21093 0.0
H614 H 0.22994 0.65366 0.22325 0.0
C615 C 0.1769 0.55448 0.10316 0.0
C616 C 0.13553 0.58137 0.1881 0.0
C617 C 0.17562 0.52592 0.07999 0.0
C618 C 0.17561 0.71819 0.26875 0.0
C619 C 0.16817 0.68841 0.24314 0.0
C620 C 0.20349 0.63362 0.21359 0.0
C621 C 0.16046 0.54931 0.14554 0.0
C622 C 0.16499 0.5797 0.17252 0.0
C623 C 0.17913 0.66499 0.2581 0.0
C624 C 0.17408 0.6354 0.22901 0.0
H625 H 0.12815 0.46094 0.15706 0.0
H626 H 0.12924 0.51067 0.19663 0.0
H627 H 0.22203 0.60509 0.17388 0.0
H628 H 0.21702 0.70476 0.35782 0.0
H629 H 0.20501 0.65306 0.31193 0.0
C630 C 0.72 0.22911 0.61405 0.0
C631 C 0.72116 0.20395 0.58557 0.0
C632 C 0.69024 0.22016 0.64033 0.0
C633 C 0.61362 0.1486 0.69525 0.0
H634 H 0.57324 0.20944 0.68118 0.0
C635 C 0.50701 0.15252 0.81227 0.0
C636 C 0.4792 0.15277 0.78879 0.0
C637 C 0.53565 0.15434 0.78851 0.0
C638 C 0.58422 0.19221 0.68541 0.0
H639 H 0.69242 0.14932 0.56334 0.0
H640 H 0.64014 0.13353 0.61015 0.0
H641 H 0.62544 0.22143 0.63756 0.0
H642 H 0.45877 0.15303 0.72185 0.0
H643 H 0.50861 0.15668 0.68114 0.0
H644 H 0.57235 0.11971 0.74382 0.0
C645 C 0.66242 0.16022 0.61165 0.0
C646 C 0.6141 0.19915 0.66064 0.0
C647 C 0.69213 0.16933 0.58469 0.0
C648 C 0.47986 0.15322 0.74122 0.0
C649 C 0.50841 0.15531 0.71773 0.0
C650 C 0.58388 0.14196 0.72073 0.0
C651 C 0.66114 0.18575 0.63922 0.0
C652 C 0.62904 0.17742 0.66524 0.0
C653 C 0.53691 0.15672 0.74109 0.0
C654 C 0.56886 0.16363 0.71569 0.0
H655 H 0.74191 0.256 0.61562 0.0
H656 H 0.68991 0.24023 0.66153 0.0
H657 H 0.6249 0.13164 0.69945 0.0
H658 H 0.50719 0.15204 0.84887 0.0
H659 H 0.55746 0.15547 0.80719 0.0
C660 C 0.29521 0.497 0.99001 0.0
C661 C 0.26267 0.47342 0.96995 0.0
C662 C 0.32497 0.51751 0.96308 0.0
C663 C 0.34995 0.55406 0.84818 0.0
H664 H 0.44211 0.5685 0.88033 0.0
C665 C 0.47232 0.63879 0.73703 0.0
C666 C 0.50222 0.66364 0.76095 0.0
C667 C 0.44364 0.61147 0.76012 0.0
C668 C 0.41655 0.56482 0.87099 0.0
H669 H 0.23607 0.45268 0.90577 0.0
H670 H 0.28773 0.48821 0.85936 0.0
H671 H 0.39086 0.5299 0.92678 0.0
H672 H 0.52628 0.67822 0.82749 0.0
H673 H 0.47651 0.63126 0.86735 0.0
H674 H 0.3756 0.58957 0.79309 0.0
C675 C 0.29023 0.49114 0.89575 0.0
C676 C 0.38726 0.54281 0.89767 0.0
C677 C 0.26063 0.47063 0.92252 0.0
C678 C 0.50355 0.65968 0.80797 0.0
C679 C 0.47507 0.63249 0.8309 0.0
C680 C 0.37922 0.57617 0.82161 0.0
C681 C 0.32267 0.51493 0.91565 0.0
C682 C 0.35371 0.53747 0.88678 0.0
C683 C 0.44449 0.60846 0.80745 0.0
C684 C 0.41294 0.58214 0.833 0.0
H685 H 0.29768 0.49975 0.0264 0.0
H686 H 0.3496 0.53589 0.97936 0.0
H687 H 0.32448 0.55079 0.83921 0.0
H688 H 0.47056 0.64109 0.7008 0.0
H689 H 0.42058 0.59306 0.74103 0.0
C690 C 0.8528 0.35783 0.45059 0.0
C691 C 0.82039 0.32613 0.4549 0.0
C692 C 0.85546 0.38526 0.4232 0.0
C693 C 0.81076 0.39958 0.32676 0.0
H694 H 0.85821 0.49756 0.36509 0.0
C695 C 0.80249 0.53082 0.28557 0.0
C696 C 0.8006 0.52928 0.23809 0.0
C697 C 0.81208 0.5095 0.30969 0.0
C698 C 0.84495 0.4703 0.35388 0.0
H699 H 0.76508 0.29905 0.43561 0.0
H700 H 0.7697 0.3467 0.38878 0.0
H701 H 0.85996 0.45299 0.41335 0.0
H702 H 0.80898 0.50528 0.17866 0.0
H703 H 0.82595 0.46808 0.22092 0.0
H704 H 0.79431 0.4163 0.26843 0.0
C705 C 0.79323 0.35017 0.40552 0.0
C706 C 0.84622 0.44488 0.38133 0.0
C707 C 0.79056 0.32294 0.43272 0.0
C708 C 0.80989 0.5069 0.2152 0.0
C709 C 0.81951 0.48552 0.23942 0.0
C710 C 0.80949 0.42491 0.29938 0.0
C711 C 0.8258 0.38131 0.39966 0.0
C712 C 0.82828 0.40911 0.36858 0.0
C713 C 0.82007 0.48613 0.28698 0.0
C714 C 0.82583 0.46042 0.31312 0.0
H715 H 0.87628 0.36102 0.46713 0.0
H716 H 0.88091 0.40904 0.41932 0.0
H717 H 0.79722 0.37229 0.31565 0.0
H718 H 0.79569 0.54787 0.30439 0.0
H719 H 0.81176 0.51031 0.34627 0.0
C720 C 0.33878 0.82044 0.41577 0.0
C721 C 0.31475 0.82694 0.4395 0.0
C722 C 0.3657 0.81856 0.43891 0.0
C723 C 0.3853 0.79876 0.55239 0.0
H724 H 0.48076 0.83731 0.50697 0.0
C725 C 0.49312 0.79229 0.65656 0.0
C726 C 0.51522 0.78307 0.63291 0.0
C727 C 0.47044 0.80055 0.63312 0.0
C728 C 0.45411 0.82615 0.5199 0.0
H729 H 0.30143 0.8387 0.50562 0.0
H730 H 0.34831 0.83577 0.54546 0.0
H731 H 0.43829 0.8468 0.4646 0.0
H732 H 0.53102 0.7756 0.56596 0.0
H733 H 0.49118 0.78936 0.52544 0.0
H734 H 0.40071 0.77762 0.60722 0.0
C735 C 0.34595 0.8313 0.5093 0.0
C736 C 0.42984 0.8316 0.49563 0.0
C737 C 0.31915 0.8331 0.48633 0.0
C738 C 0.51441 0.78266 0.58536 0.0
C739 C 0.49173 0.79081 0.562 0.0
C740 C 0.40947 0.79324 0.57654 0.0
C741 C 0.36902 0.8232 0.48609 0.0
C742 C 0.39517 0.81795 0.51165 0.0
C743 C 0.46934 0.79967 0.58557 0.0
C744 C 0.44414 0.80679 0.56057 0.0
H745 H 0.33605 0.81559 0.3797 0.0
H746 H 0.38305 0.81216 0.42015 0.0
H747 H 0.35858 0.78733 0.5652 0.0
H748 H 0.49324 0.79307 0.69315 0.0
H749 H 0.45383 0.80772 0.65227 0.0
C750 C 0.68015 0.48956 0.06628 0.0
C751 C 0.67515 0.50012 0.10917 0.0
C752 C 0.65237 0.46123 0.04403 0.0
C753 C 0.56327 0.38317 0.06296 0.0
H754 H 0.56302 0.38317 0.93191 0.0
C755 C 0.47867 0.25558 0.96268 0.0
C756 C 0.46605 0.25728 0.9197 0.0
C757 C 0.50152 0.28642 0.986 0.0
C758 C 0.56211 0.3828 0.96848 0.0
H759 H 0.63706 0.48957 0.16237 0.0
H760 H 0.58777 0.44074 0.12267 0.0
H761 H 0.60622 0.43516 0.97208 0.0
H762 H 0.46668 0.29253 0.86777 0.0
H763 H 0.50538 0.34661 0.90929 0.0
H764 H 0.518 0.33146 0.05934 0.0
C765 C 0.61351 0.45372 0.10668 0.0
C766 C 0.58748 0.41254 0.99167 0.0
C767 C 0.64167 0.48177 0.12944 0.0
C768 C 0.47633 0.29049 0.90069 0.0
C769 C 0.49866 0.32147 0.9245 0.0
C770 C 0.5374 0.35369 0.03975 0.0
C771 C 0.6185 0.44309 0.06358 0.0
C772 C 0.58907 0.41279 0.03922 0.0
C773 C 0.51178 0.31987 0.96741 0.0
C774 C 0.53702 0.35269 0.99215 0.0
H775 H 0.70581 0.50293 0.05001 0.0
H776 H 0.65774 0.45332 0.01166 0.0
H777 H 0.56357 0.38215 0.0995 0.0
H778 H 0.47147 0.23032 0.97804 0.0
H779 H 0.51166 0.28386 0.01827 0.0
loop_
_geom_bond_atom_site_label_1
_geom_bond_atom_site_label_2
_geom_bond_distance
_geom_bond_site_symmetry_2
_ccdc_geom_bond_type
Tb0 C10 2.825 . S
Tb0 O11 2.347 . S
Tb0 O14 2.366 . S
Tb0 O19 2.418 . S
Tb0 O20 2.384 . S
Tb0 O23 2.479 . S
Tb0 O24 2.471 . S
Eu1 O12 2.418 . S
Eu1 O13 2.384 1_556 S
Eu1 O16 2.479 . S
Eu1 O17 2.471 . S
Eu1 O18 2.347 . S
Eu1 O21 2.366 . S
Eu1 C31 2.825 . S
C2 O18 1.259 1_554 S
C2 O19 1.265 . S
C3 O20 1.255 1_556 S
C3 O21 1.265 . S
C4 C6 1.380 . S
C4 C7 1.374 . S
C4 C10 1.507 . S
C5 C6 1.384 . S
C5 C9 1.387 . S
C5 H32 0.930 . S
C6 C4 1.380 . S
C6 C5 1.384 . S
C6 H33 0.931 . S
C7 C4 1.374 . S
C7 C8 1.390 . S
C7 H34 0.930 . S
C8 C7 1.390 . S
C8 C9 1.391 . S
C8 H35 0.930 . S
C9 C5 1.387 . S
C9 C8 1.391 . S
C10 Tb0 2.825 . S
C10 C4 1.507 . S
C10 O23 1.238 . S
C10 O24 1.247 . S
O11 Tb0 2.347 . S
O11 C15 1.259 . S
O12 Eu1 2.418 . S
O12 C15 1.265 1_556 S
O13 Eu1 2.384 1_554 S
O13 C22 1.255 . S
O14 Tb0 2.366 . S
O14 C22 1.265 . S
C15 O11 1.259 . S
C15 O12 1.265 1_554 S
O16 Eu1 2.479 . S
O16 C31 1.238 . S
O17 Eu1 2.471 . S
O17 C31 1.247 . S
O18 Eu1 2.347 . S
O18 C2 1.259 1_556 S
O19 Tb0 2.418 . S
O19 C2 1.265 . S
O20 Tb0 2.384 . S
O20 C3 1.255 1_554 S
O21 Eu1 2.366 . S
O21 C3 1.265 . S
C22 O13 1.255 . S
C22 O14 1.265 . S
O23 Tb0 2.479 . S
O23 C10 1.238 . S
O24 Tb0 2.471 . S
O24 C10 1.247 . S
C25 C28 1.380 . S
C25 C29 1.374 . S
C25 C31 1.507 . S
C26 C27 1.387 . S
C26 C30 1.391 . S
C27 C26 1.387 . S
C27 C28 1.384 . S
C27 H36 0.930 . S
C28 C25 1.380 . S
C28 C27 1.384 . S
C28 H37 0.931 . S
C29 C25 1.374 . S
C29 C30 1.390 . S
C29 H38 0.930 . S
C30 C26 1.391 . S
C30 C29 1.390 . S
C30 H39 0.930 . S
C31 Eu1 2.825 . S
C31 O16 1.238 . S
C31 O17 1.247 . S
C31 C25 1.507 . S
H32 C5 0.930 . S
H33 C6 0.931 . S
H34 C7 0.930 . S
H35 C8 0.930 . S
H36 C27 0.930 . S
H37 C28 0.931 . S
H38 C29 0.930 . S
H39 C30 0.930 . S
Tb40 C50 2.825 . S
Tb40 O51 2.347 . S
Tb40 O54 2.366 . S
Tb40 O59 2.418 . S
Tb40 O60 2.384 . S
Tb40 O63 2.479 . S
Tb40 O64 2.471 . S
Eu41 O52 2.418 . S
Eu41 O53 2.384 . S
Eu41 O56 2.479 . S
Eu41 O57 2.471 . S
Eu41 O58 2.347 . S
Eu41 O61 2.366 . S
Eu41 C71 2.825 . S
C42 O58 1.259 . S
C42 O59 1.265 . S
C43 O60 1.255 . S
C43 O61 1.265 . S
C44 C46 1.380 . S
C44 C47 1.374 . S
C44 C50 1.507 . S
C45 C46 1.384 . S
C45 C49 1.387 . S
C45 H72 0.930 . S
C46 C44 1.380 . S
C46 C45 1.384 . S
C46 H73 0.931 . S
C47 C44 1.374 . S
C47 C48 1.390 . S
C47 H74 0.930 . S
C48 C47 1.390 . S
C48 C49 1.391 . S
C48 H75 0.930 . S
C49 C45 1.387 . S
C49 C48 1.391 . S
C50 Tb40 2.825 . S
C50 C44 1.507 . S
C50 O63 1.238 . S
C50 O64 1.247 . S
O51 Tb40 2.347 . S
O51 C55 1.259 . S
O52 Eu41 2.418 . S
O52 C55 1.265 . S
O53 Eu41 2.384 . S
O53 C62 1.255 . S
O54 Tb40 2.366 . S
O54 C62 1.265 . S
C55 O51 1.259 . S
C55 O52 1.265 . S
O56 Eu41 2.479 . S
O56 C71 1.238 . S
O57 Eu41 2.471 . S
O57 C71 1.247 . S
O58 Eu41 2.347 . S
O58 C42 1.259 . S
O59 Tb40 2.418 . S
O59 C42 1.265 . S
O60 Tb40 2.384 . S
O60 C43 1.255 . S
O61 Eu41 2.366 . S
O61 C43 1.265 . S
C62 O53 1.255 . S
C62 O54 1.265 . S
O63 Tb40 2.479 . S
O63 C50 1.238 . S
O64 Tb40 2.471 . S
O64 C50 1.247 . S
C65 C68 1.380 . S
C65 C69 1.374 . S
C65 C71 1.507 . S
C66 C67 1.387 . S
C66 C70 1.391 . S
C67 C66 1.387 . S
C67 C68 1.384 . S
C67 H76 0.930 . S
C68 C65 1.380 . S
C68 C67 1.384 . S
C68 H77 0.931 . S
C69 C65 1.374 . S
C69 C70 1.390 . S
C69 H78 0.930 . S
C70 C66 1.391 . S
C70 C69 1.390 . S
C70 H79 0.930 . S
C71 Eu41 2.825 . S
C71 O56 1.238 . S
C71 O57 1.247 . S
C71 C65 1.507 . S
H72 C45 0.930 . S
H73 C46 0.931 . S
H74 C47 0.930 . S
H75 C48 0.930 . S
H76 C67 0.930 . S
H77 C68 0.931 . S
H78 C69 0.930 . S
H79 C70 0.930 . S
Tb80 C90 2.825 . S
Tb80 O91 2.347 . S
Tb80 O94 2.366 . S
Tb80 O99 2.418 . S
Tb80 O100 2.384 . S
Tb80 O103 2.479 . S
Tb80 O104 2.471 . S
Eu81 O92 2.418 . S
Eu81 O93 2.384 . S
Eu81 O96 2.479 . S
Eu81 O97 2.471 . S
Eu81 O98 2.347 . S
Eu81 O101 2.366 . S
Eu81 C111 2.825 . S
C82 O98 1.259 . S
C82 O99 1.265 . S
C83 O100 1.255 . S
C83 O101 1.265 . S
C84 C86 1.380 . S
C84 C87 1.374 . S
C84 C90 1.507 . S
C85 C86 1.384 . S
C85 C89 1.387 . S
C85 H112 0.930 . S
C86 C84 1.380 . S
C86 C85 1.384 . S
C86 H113 0.931 . S
C87 C84 1.374 . S
C87 C88 1.390 . S
C87 H114 0.930 . S
C88 C87 1.390 . S
C88 C89 1.391 . S
C88 H115 0.930 . S
C89 C85 1.387 . S
C89 C88 1.391 . S
C90 Tb80 2.825 . S
C90 C84 1.507 . S
C90 O103 1.238 . S
C90 O104 1.247 . S
O91 Tb80 2.347 . S
O91 C95 1.259 . S
O92 Eu81 2.418 . S
O92 C95 1.265 . S
O93 Eu81 2.384 . S
O93 C102 1.255 . S
O94 Tb80 2.366 . S
O94 C102 1.265 . S
C95 O91 1.259 . S
C95 O92 1.265 . S
O96 Eu81 2.479 . S
O96 C111 1.238 . S
O97 Eu81 2.471 . S
O97 C111 1.247 . S
O98 Eu81 2.347 . S
O98 C82 1.259 . S
O99 Tb80 2.418 . S
O99 C82 1.265 . S
O100 Tb80 2.384 . S
O100 C83 1.255 . S
O101 Eu81 2.366 . S
O101 C83 1.265 . S
C102 O93 1.255 . S
C102 O94 1.265 . S
O103 Tb80 2.479 . S
O103 C90 1.238 . S
O104 Tb80 2.471 . S
O104 C90 1.247 . S
C105 C108 1.380 . S
C105 C109 1.374 . S
C105 C111 1.507 . S
C106 C107 1.387 . S
C106 C110 1.391 . S
C107 C106 1.387 . S
C107 C108 1.384 . S
C107 H116 0.930 . S
C108 C105 1.380 . S
C108 C107 1.384 . S
C108 H117 0.931 . S
C109 C105 1.374 . S
C109 C110 1.390 . S
C109 H118 0.930 . S
C110 C106 1.391 . S
C110 C109 1.390 . S
C110 H119 0.930 . S
C111 Eu81 2.825 . S
C111 O96 1.238 . S
C111 O97 1.247 . S
C111 C105 1.507 . S
H112 C85 0.930 . S
H113 C86 0.931 . S
H114 C87 0.930 . S
H115 C88 0.930 . S
H116 C107 0.930 . S
H117 C108 0.931 . S
H118 C109 0.930 . S
H119 C110 0.930 . S
Tb120 C130 2.825 . S
Tb120 O131 2.347 . S
Tb120 O134 2.366 . S
Tb120 O139 2.418 . S
Tb120 O140 2.384 . S
Tb120 O143 2.479 . S
Tb120 O144 2.471 . S
Eu121 O132 2.418 . S
Eu121 O133 2.384 . S
Eu121 O136 2.479 . S
Eu121 O137 2.471 . S
Eu121 O138 2.347 . S
Eu121 O141 2.366 . S
Eu121 C151 2.825 . S
C122 O138 1.259 . S
C122 O139 1.265 . S
C123 O140 1.255 . S
C123 O141 1.265 . S
C124 C126 1.380 . S
C124 C127 1.374 . S
C124 C130 1.507 1_556 S
C125 C126 1.384 . S
C125 C129 1.387 . S
C125 H152 0.930 . S
C126 C124 1.380 . S
C126 C125 1.384 . S
C126 H153 0.931 . S
C127 C124 1.374 . S
C127 C128 1.390 . S
C127 H154 0.930 . S
C128 C127 1.390 . S
C128 C129 1.391 . S
C128 H155 0.930 . S
C129 C125 1.387 . S
C129 C128 1.391 . S
C130 Tb120 2.825 . S
C130 C124 1.507 1_554 S
C130 O143 1.238 . S
C130 O144 1.247 . S
O131 Tb120 2.347 . S
O131 C135 1.259 . S
O132 Eu121 2.418 . S
O132 C135 1.265 . S
O133 Eu121 2.384 . S
O133 C142 1.255 . S
O134 Tb120 2.366 . S
O134 C142 1.265 . S
C135 O131 1.259 . S
C135 O132 1.265 . S
O136 Eu121 2.479 . S
O136 C151 1.238 . S
O137 Eu121 2.471 . S
O137 C151 1.247 . S
O138 Eu121 2.347 . S
O138 C122 1.259 . S
O139 Tb120 2.418 . S
O139 C122 1.265 . S
O140 Tb120 2.384 . S
O140 C123 1.255 . S
O141 Eu121 2.366 . S
O141 C123 1.265 . S
C142 O133 1.255 . S
C142 O134 1.265 . S
O143 Tb120 2.479 . S
O143 C130 1.238 . S
O144 Tb120 2.471 . S
O144 C130 1.247 . S
C145 C148 1.380 . S
C145 C149 1.374 . S
C145 C151 1.507 . S
C146 C147 1.387 . S
C146 C150 1.391 . S
C147 C146 1.387 . S
C147 C148 1.384 . S
C147 H156 0.930 . S
C148 C145 1.380 . S
C148 C147 1.384 . S
C148 H157 0.931 . S
C149 C145 1.374 . S
C149 C150 1.390 . S
C149 H158 0.930 . S
C150 C146 1.391 . S
C150 C149 1.390 . S
C150 H159 0.930 . S
C151 Eu121 2.825 . S
C151 O136 1.238 . S
C151 O137 1.247 . S
C151 C145 1.507 . S
H152 C125 0.930 . S
H153 C126 0.931 . S
H154 C127 0.930 . S
H155 C128 0.930 . S
H156 C147 0.930 . S
H157 C148 0.931 . S
H158 C149 0.930 . S
H159 C150 0.930 . S
Tb160 C170 2.825 . S
Tb160 O171 2.347 . S
Tb160 O174 2.366 . S
Tb160 O179 2.418 . S
Tb160 O180 2.384 . S
Tb160 O183 2.479 . S
Tb160 O184 2.471 . S
Eu161 O172 2.418 . S
Eu161 O173 2.384 . S
Eu161 O176 2.479 . S
Eu161 O177 2.471 . S
Eu161 O178 2.347 . S
Eu161 O181 2.366 . S
Eu161 C191 2.825 . S
C162 O178 1.259 . S
C162 O179 1.265 . S
C163 O180 1.255 . S
C163 O181 1.265 . S
C164 C166 1.380 . S
C164 C167 1.374 . S
C164 C170 1.507 . S
C165 C166 1.384 . S
C165 C169 1.387 . S
C165 H192 0.930 . S
C166 C164 1.380 . S
C166 C165 1.384 . S
C166 H193 0.931 . S
C167 C164 1.374 . S
C167 C168 1.390 . S
C167 H194 0.930 . S
C168 C167 1.390 . S
C168 C169 1.391 . S
C168 H195 0.930 . S
C169 C165 1.387 . S
C169 C168 1.391 . S
C170 Tb160 2.825 . S
C170 C164 1.507 . S
C170 O183 1.238 . S
C170 O184 1.247 . S
O171 Tb160 2.347 . S
O171 C175 1.259 . S
O172 Eu161 2.418 . S
O172 C175 1.265 . S
O173 Eu161 2.384 . S
O173 C182 1.255 . S
O174 Tb160 2.366 . S
O174 C182 1.265 . S
C175 O171 1.259 . S
C175 O172 1.265 . S
O176 Eu161 2.479 . S
O176 C191 1.238 . S
O177 Eu161 2.471 . S
O177 C191 1.247 . S
O178 Eu161 2.347 . S
O178 C162 1.259 . S
O179 Tb160 2.418 . S
O179 C162 1.265 . S
O180 Tb160 2.384 . S
O180 C163 1.255 . S
O181 Eu161 2.366 . S
O181 C163 1.265 . S
C182 O173 1.255 . S
C182 O174 1.265 . S
O183 Tb160 2.479 . S
O183 C170 1.238 . S
O184 Tb160 2.471 . S
O184 C170 1.247 . S
C185 C188 1.380 . S
C185 C189 1.374 . S
C185 C191 1.507 . S
C186 C187 1.387 . S
C186 C190 1.391 . S
C187 C186 1.387 . S
C187 C188 1.384 . S
C187 H196 0.930 . S
C188 C185 1.380 . S
C188 C187 1.384 . S
C188 H197 0.931 . S
C189 C185 1.374 . S
C189 C190 1.390 . S
C189 H198 0.930 . S
C190 C186 1.391 . S
C190 C189 1.390 . S
C190 H199 0.930 . S
C191 Eu161 2.825 . S
C191 O176 1.238 . S
C191 O177 1.247 . S
C191 C185 1.507 . S
H192 C165 0.930 . S
H193 C166 0.931 . S
H194 C167 0.930 . S
H195 C168 0.930 . S
H196 C187 0.930 . S
H197 C188 0.931 . S
H198 C189 0.930 . S
H199 C190 0.930 . S
Tb200 C210 2.825 . S
Tb200 O211 2.347 . S
Tb200 O214 2.366 . S
Tb200 O219 2.418 . S
Tb200 O220 2.384 . S
Tb200 O223 2.479 . S
Tb200 O224 2.471 . S
Eu201 O212 2.418 . S
Eu201 O213 2.384 . S
Eu201 O216 2.479 . S
Eu201 O217 2.471 . S
Eu201 O218 2.347 . S
Eu201 O221 2.366 . S
Eu201 C231 2.825 . S
C202 O218 1.259 . S
C202 O219 1.265 . S
C203 O220 1.255 . S
C203 O221 1.265 . S
C204 C206 1.380 . S
C204 C207 1.374 . S
C204 C210 1.507 . S
C205 C206 1.384 . S
C205 C209 1.387 . S
C205 H232 0.930 . S
C206 C204 1.380 . S
C206 C205 1.384 . S
C206 H233 0.931 . S
C207 C204 1.374 . S
C207 C208 1.390 . S
C207 H234 0.930 . S
C208 C207 1.390 . S
C208 C209 1.391 . S
C208 H235 0.930 . S
C209 C205 1.387 . S
C209 C208 1.391 . S
C210 Tb200 2.825 . S
C210 C204 1.507 . S
C210 O223 1.238 . S
C210 O224 1.247 . S
O211 Tb200 2.347 . S
O211 C215 1.259 . S
O212 Eu201 2.418 . S
O212 C215 1.265 . S
O213 Eu201 2.384 . S
O213 C222 1.255 . S
O214 Tb200 2.366 . S
O214 C222 1.265 . S
C215 O211 1.259 . S
C215 O212 1.265 . S
O216 Eu201 2.479 . S
O216 C231 1.238 . S
O217 Eu201 2.471 . S
O217 C231 1.247 . S
O218 Eu201 2.347 . S
O218 C202 1.259 . S
O219 Tb200 2.418 . S
O219 C202 1.265 . S
O220 Tb200 2.384 . S
O220 C203 1.255 . S
O221 Eu201 2.366 . S
O221 C203 1.265 . S
C222 O213 1.255 . S
C222 O214 1.265 . S
O223 Tb200 2.479 . S
O223 C210 1.238 . S
O224 Tb200 2.471 . S
O224 C210 1.247 . S
C225 C228 1.380 . S
C225 C229 1.374 . S
C225 C231 1.507 1_554 S
C226 C227 1.387 . S
C226 C230 1.391 . S
C227 C226 1.387 . S
C227 C228 1.384 . S
C227 H236 0.930 . S
C228 C225 1.380 . S
C228 C227 1.384 . S
C228 H237 0.931 . S
C229 C225 1.374 . S
C229 C230 1.390 . S
C229 H238 0.930 . S
C230 C226 1.391 . S
C230 C229 1.390 . S
C230 H239 0.930 . S
C231 Eu201 2.825 . S
C231 O216 1.238 . S
C231 O217 1.247 . S
C231 C225 1.507 1_556 S
H232 C205 0.930 . S
H233 C206 0.931 . S
H234 C207 0.930 . S
H235 C208 0.930 . S
H236 C227 0.930 . S
H237 C228 0.931 . S
H238 C229 0.930 . S
H239 C230 0.930 . S
C240 C241 1.349 . S
C240 C242 1.327 . S
C240 H265 0.950 . S
C241 C240 1.349 . S
C241 C257 1.349 . S
C242 C240 1.327 . S
C242 C261 1.429 . S
C242 H266 0.950 . S
C243 C260 1.574 . S
C243 C262 1.368 . S
C243 H267 0.949 . S
H244 C248 0.949 1_554 S
C245 C246 1.349 . S
C245 C247 1.327 . S
C245 H268 0.950 . S
C246 C245 1.349 . S
C246 C258 1.349 1_556 S
C247 C245 1.327 . S
C247 C263 1.429 . S
C247 H269 0.950 . S
C248 H244 0.949 1_556 S
C248 C256 1.574 . S
C248 C264 1.368 . S
H249 C257 0.950 . S
H250 C255 0.950 . S
H251 C256 0.949 . S
H252 C258 0.950 . S
H253 C259 0.950 . S
H254 C260 0.949 . S
C255 H250 0.950 . S
C255 C257 1.327 . S
C255 C261 1.429 . S
C256 C248 1.574 . S
C256 H251 0.949 . S
C256 C262 1.368 . S
C257 C241 1.349 . S
C257 H249 0.950 . S
C257 C255 1.327 . S
C258 C246 1.349 1_554 S
C258 H252 0.950 . S
C258 C259 1.327 . S
C259 H253 0.950 . S
C259 C258 1.327 . S
C259 C263 1.429 1_554 S
C260 C243 1.574 . S
C260 H254 0.949 . S
C260 C264 1.368 . S
C261 C242 1.429 . S
C261 C255 1.429 . S
C261 C262 1.523 . S
C262 C243 1.368 . S
C262 C256 1.368 . S
C262 C261 1.523 . S
C263 C247 1.429 . S
C263 C259 1.429 1_556 S
C263 C264 1.523 . S
C264 C248 1.368 . S
C264 C260 1.368 . S
C264 C263 1.523 . S
H265 C240 0.950 . S
H266 C242 0.950 . S
H267 C243 0.949 . S
H268 C245 0.950 . S
H269 C247 0.950 . S
C270 C271 1.349 . S
C270 C272 1.327 . S
C270 H295 0.950 . S
C271 C270 1.349 . S
C271 C287 1.349 . S
C272 C270 1.327 . S
C272 C291 1.429 . S
C272 H296 0.950 . S
C273 C290 1.574 1_455 S
C273 C292 1.368 . S
C273 H297 0.949 . S
H274 C278 0.949 . S
C275 C276 1.349 . S
C275 C277 1.327 . S
C275 H298 0.950 . S
C276 C275 1.349 . S
C276 C288 1.349 . S
C277 C275 1.327 . S
C277 C293 1.429 . S
C277 H299 0.950 . S
C278 H274 0.949 . S
C278 C286 1.574 1_655 S
C278 C294 1.368 . S
H279 C287 0.950 . S
H280 C285 0.950 . S
H281 C286 0.949 . S
H282 C288 0.950 . S
H283 C289 0.950 . S
H284 C290 0.949 . S
C285 H280 0.950 . S
C285 C287 1.327 . S
C285 C291 1.429 . S
C286 C278 1.574 1_455 S
C286 H281 0.949 . S
C286 C292 1.368 . S
C287 C271 1.349 . S
C287 H279 0.950 . S
C287 C285 1.327 . S
C288 C276 1.349 . S
C288 H282 0.950 . S
C288 C289 1.327 . S
C289 H283 0.950 . S
C289 C288 1.327 . S
C289 C293 1.429 . S
C290 C273 1.574 1_655 S
C290 H284 0.949 . S
C290 C294 1.368 . S
C291 C272 1.429 . S
C291 C285 1.429 . S
C291 C292 1.523 . S
C292 C273 1.368 . S
C292 C286 1.368 . S
C292 C291 1.523 . S
C293 C277 1.429 . S
C293 C289 1.429 . S
C293 C294 1.523 . S
C294 C278 1.368 . S
C294 C290 1.368 . S
C294 C293 1.523 . S
H295 C270 0.950 . S
H296 C272 0.950 . S
H297 C273 0.949 . S
H298 C275 0.950 . S
H299 C277 0.950 . S
C300 C301 1.349 . S
C300 C302 1.327 . S
C300 H325 0.950 . S
C301 C300 1.349 . S
C301 C317 1.349 . S
C302 C300 1.327 . S
C302 C321 1.429 . S
C302 H326 0.950 . S
C303 C320 1.574 1_545 S
C303 C322 1.368 . S
C303 H327 0.949 . S
H304 C308 0.949 . S
C305 C306 1.349 . S
C305 C307 1.327 . S
C305 H328 0.950 . S
C306 C305 1.349 . S
C306 C318 1.349 . S
C307 C305 1.327 . S
C307 C323 1.429 . S
C307 H329 0.950 . S
C308 H304 0.949 . S
C308 C316 1.574 1_565 S
C308 C324 1.368 . S
H309 C317 0.950 . S
H310 C315 0.950 . S
H311 C316 0.949 . S
H312 C318 0.950 . S
H313 C319 0.950 . S
H314 C320 0.949 . S
C315 H310 0.950 . S
C315 C317 1.327 . S
C315 C321 1.429 . S
C316 C308 1.574 1_545 S
C316 H311 0.949 . S
C316 C322 1.368 . S
C317 C301 1.349 . S
C317 H309 0.950 . S
C317 C315 1.327 . S
C318 C306 1.349 . S
C318 H312 0.950 . S
C318 C319 1.327 . S
C319 H313 0.950 . S
C319 C318 1.327 . S
C319 C323 1.429 . S
C320 C303 1.574 1_565 S
C320 H314 0.949 . S
C320 C324 1.368 . S
C321 C302 1.429 . S
C321 C315 1.429 . S
C321 C322 1.523 . S
C322 C303 1.368 . S
C322 C316 1.368 . S
C322 C321 1.523 . S
C323 C307 1.429 . S
C323 C319 1.429 . S
C323 C324 1.523 . S
C324 C308 1.368 . S
C324 C320 1.368 . S
C324 C323 1.523 . S
H325 C300 0.950 . S
H326 C302 0.950 . S
H327 C303 0.949 . S
H328 C305 0.950 . S
H329 C307 0.950 . S
C330 C331 1.349 . S
C330 C332 1.327 . S
C330 H355 0.950 . S
C331 C330 1.349 . S
C331 C347 1.349 . S
C332 C330 1.327 . S
C332 C351 1.429 . S
C332 H356 0.950 . S
C333 C350 1.574 . S
C333 C352 1.368 . S
C333 H357 0.949 . S
H334 C338 0.949 1_554 S
C335 C336 1.349 . S
C335 C337 1.327 . S
C335 H358 0.950 . S
C336 C335 1.349 . S
C336 C348 1.349 . S
C337 C335 1.327 . S
C337 C353 1.429 . S
C337 H359 0.950 1_554 S
C338 H334 0.949 1_556 S
C338 C346 1.574 . S
C338 C354 1.368 . S
H339 C347 0.950 . S
H340 C345 0.950 . S
H341 C346 0.949 . S
H342 C348 0.950 . S
H343 C349 0.950 . S
H344 C350 0.949 . S
C345 H340 0.950 . S
C345 C347 1.327 . S
C345 C351 1.429 . S
C346 C338 1.574 . S
C346 H341 0.949 . S
C346 C352 1.368 . S
C347 C331 1.349 . S
C347 H339 0.950 . S
C347 C345 1.327 . S
C348 C336 1.349 . S
C348 H342 0.950 . S
C348 C349 1.327 . S
C349 H343 0.950 . S
C349 C348 1.327 . S
C349 C353 1.429 . S
C350 C333 1.574 . S
C350 H344 0.949 . S
C350 C354 1.368 . S
C351 C332 1.429 . S
C351 C345 1.429 . S
C351 C352 1.523 . S
C352 C333 1.368 . S
C352 C346 1.368 . S
C352 C351 1.523 . S
C353 C337 1.429 . S
C353 C349 1.429 . S
C353 C354 1.523 1_554 S
C354 C338 1.368 . S
C354 C350 1.368 . S
C354 C353 1.523 1_556 S
H355 C330 0.950 . S
H356 C332 0.950 . S
H357 C333 0.949 . S
H358 C335 0.950 . S
H359 C337 0.950 1_556 S
C360 C361 1.349 . S
C360 C362 1.327 . S
C360 H385 0.950 . S
C361 C360 1.349 . S
C361 C377 1.349 . S
C362 C360 1.327 . S
C362 C381 1.429 . S
C362 H386 0.950 . S
C363 C380 1.574 1_455 S
C363 C382 1.368 . S
C363 H387 0.949 . S
H364 C368 0.949 . S
C365 C366 1.349 . S
C365 C367 1.327 . S
C365 H388 0.950 . S
C366 C365 1.349 . S
C366 C378 1.349 . S
C367 C365 1.327 . S
C367 C383 1.429 . S
C367 H389 0.950 . S
C368 H364 0.949 . S
C368 C376 1.574 1_655 S
C368 C384 1.368 . S
H369 C377 0.950 . S
H370 C375 0.950 . S
H371 C376 0.949 . S
H372 C378 0.950 . S
H373 C379 0.950 . S
H374 C380 0.949 . S
C375 H370 0.950 . S
C375 C377 1.327 . S
C375 C381 1.429 . S
C376 C368 1.574 1_455 S
C376 H371 0.949 . S
C376 C382 1.368 . S
C377 C361 1.349 . S
C377 H369 0.950 . S
C377 C375 1.327 . S
C378 C366 1.349 . S
C378 H372 0.950 . S
C378 C379 1.327 . S
C379 H373 0.950 . S
C379 C378 1.327 . S
C379 C383 1.429 . S
C380 C363 1.574 1_655 S
C380 H374 0.949 . S
C380 C384 1.368 . S
C381 C362 1.429 . S
C381 C375 1.429 . S
C381 C382 1.523 . S
C382 C363 1.368 . S
C382 C376 1.368 . S
C382 C381 1.523 . S
C383 C367 1.429 . S
C383 C379 1.429 . S
C383 C384 1.523 . S
C384 C368 1.368 . S
C384 C380 1.368 . S
C384 C383 1.523 . S
H385 C360 0.950 . S
H386 C362 0.950 . S
H387 C363 0.949 . S
H388 C365 0.950 . S
H389 C367 0.950 . S
C390 C391 1.349 . S
C390 C392 1.327 . S
C390 H415 0.950 . S
C391 C390 1.349 . S
C391 C407 1.349 . S
C392 C390 1.327 . S
C392 C411 1.429 . S
C392 H416 0.950 . S
C393 C410 1.574 . S
C393 C412 1.368 1_565 S
C393 H417 0.949 . S
H394 C398 0.949 . S
C395 C396 1.349 . S
C395 C397 1.327 . S
C395 H418 0.950 . S
C396 C395 1.349 . S
C396 C408 1.349 . S
C397 C395 1.327 . S
C397 C413 1.429 . S
C397 H419 0.950 . S
C398 H394 0.949 . S
C398 C406 1.574 . S
C398 C414 1.368 1_545 S
H399 C407 0.950 . S
H400 C405 0.950 . S
H401 C406 0.949 . S
H402 C408 0.950 . S
H403 C409 0.950 . S
H404 C410 0.949 . S
C405 H400 0.950 . S
C405 C407 1.327 . S
C405 C411 1.429 . S
C406 C398 1.574 . S
C406 H401 0.949 . S
C406 C412 1.368 . S
C407 C391 1.349 . S
C407 H399 0.950 . S
C407 C405 1.327 . S
C408 C396 1.349 . S
C408 H402 0.950 . S
C408 C409 1.327 . S
C409 H403 0.950 . S
C409 C408 1.327 . S
C409 C413 1.429 . S
C410 C393 1.574 . S
C410 H404 0.949 . S
C410 C414 1.368 . S
C411 C392 1.429 . S
C411 C405 1.429 . S
C411 C412 1.523 . S
C412 C393 1.368 1_545 S
C412 C406 1.368 . S
C412 C411 1.523 . S
C413 C397 1.429 . S
C413 C409 1.429 . S
C413 C414 1.523 . S
C414 C398 1.368 1_565 S
C414 C410 1.368 . S
C414 C413 1.523 . S
H415 C390 0.950 . S
H416 C392 0.950 . S
H417 C393 0.949 . S
H418 C395 0.950 . S
H419 C397 0.950 . S
C420 C421 1.349 . S
C420 C422 1.327 . S
C420 H445 0.950 . S
C421 C420 1.349 . S
C421 C437 1.349 . S
C422 C420 1.327 . S
C422 C441 1.429 . S
C422 H446 0.950 . S
C423 C440 1.574 . S
C423 C442 1.368 . S
C423 H447 0.949 . S
H424 C428 0.949 . S
C425 C426 1.349 . S
C425 C427 1.327 . S
C425 H448 0.950 . S
C426 C425 1.349 . S
C426 C438 1.349 . S
C427 C425 1.327 . S
C427 C443 1.429 . S
C427 H449 0.950 . S
C428 H424 0.949 . S
C428 C436 1.574 . S
C428 C444 1.368 . S
H429 C437 0.950 . S
H430 C435 0.950 . S
H431 C436 0.949 . S
H432 C438 0.950 . S
H433 C439 0.950 . S
H434 C440 0.949 . S
C435 H430 0.950 . S
C435 C437 1.327 . S
C435 C441 1.429 . S
C436 C428 1.574 . S
C436 H431 0.949 . S
C436 C442 1.368 . S
C437 C421 1.349 . S
C437 H429 0.950 . S
C437 C435 1.327 . S
C438 C426 1.349 . S
C438 H432 0.950 . S
C438 C439 1.327 . S
C439 H433 0.950 . S
C439 C438 1.327 . S
C439 C443 1.429 . S
C440 C423 1.574 . S
C440 H434 0.949 . S
C440 C444 1.368 . S
C441 C422 1.429 . S
C441 C435 1.429 . S
C441 C442 1.523 . S
C442 C423 1.368 . S
C442 C436 1.368 . S
C442 C441 1.523 . S
C443 C427 1.429 . S
C443 C439 1.429 . S
C443 C444 1.523 . S
C444 C428 1.368 . S
C444 C440 1.368 . S
C444 C443 1.523 . S
H445 C420 0.950 . S
H446 C422 0.950 . S
H447 C423 0.949 . S
H448 C425 0.950 . S
H449 C427 0.950 . S
C450 C451 1.349 . S
C450 C452 1.327 . S
C450 H475 0.950 . S
C451 C450 1.349 . S
C451 C467 1.349 . S
C452 C450 1.327 . S
C452 C471 1.429 . S
C452 H476 0.950 . S
C453 C470 1.574 1_554 S
C453 C472 1.368 . S
C453 H477 0.949 . S
H454 C458 0.949 . S
C455 C456 1.349 . S
C455 C457 1.327 . S
C455 H478 0.950 . S
C456 C455 1.349 . S
C456 C468 1.349 . S
C457 C455 1.327 . S
C457 C473 1.429 . S
C457 H479 0.950 . S
C458 H454 0.949 . S
C458 C466 1.574 1_556 S
C458 C474 1.368 . S
H459 C467 0.950 . S
H460 C465 0.950 . S
H461 C466 0.949 . S
H462 C468 0.950 . S
H463 C469 0.950 . S
H464 C470 0.949 . S
C465 H460 0.950 . S
C465 C467 1.327 . S
C465 C471 1.429 . S
C466 C458 1.574 1_554 S
C466 H461 0.949 . S
C466 C472 1.368 . S
C467 C451 1.349 . S
C467 H459 0.950 . S
C467 C465 1.327 . S
C468 C456 1.349 . S
C468 H462 0.950 . S
C468 C469 1.327 . S
C469 H463 0.950 . S
C469 C468 1.327 . S
C469 C473 1.429 . S
C470 C453 1.574 1_556 S
C470 H464 0.949 . S
C470 C474 1.368 . S
C471 C452 1.429 . S
C471 C465 1.429 . S
C471 C472 1.523 . S
C472 C453 1.368 . S
C472 C466 1.368 . S
C472 C471 1.523 . S
C473 C457 1.429 . S
C473 C469 1.429 . S
C473 C474 1.523 . S
C474 C458 1.368 . S
C474 C470 1.368 . S
C474 C473 1.523 . S
H475 C450 0.950 . S
H476 C452 0.950 . S
H477 C453 0.949 . S
H478 C455 0.950 . S
H479 C457 0.950 . S
C480 C481 1.349 . S
C480 C482 1.327 . S
C480 H505 0.950 . S
C481 C480 1.349 . S
C481 C497 1.349 . S
C482 C480 1.327 . S
C482 C501 1.429 . S
C482 H506 0.950 . S
C483 C500 1.574 . S
C483 C502 1.368 . S
C483 H507 0.949 . S
H484 C488 0.949 . S
C485 C486 1.349 . S
C485 C487 1.327 . S
C485 H508 0.950 . S
C486 C485 1.349 . S
C486 C498 1.349 . S
C487 C485 1.327 . S
C487 C503 1.429 . S
C487 H509 0.950 . S
C488 H484 0.949 . S
C488 C496 1.574 . S
C488 C504 1.368 . S
H489 C497 0.950 . S
H490 C495 0.950 . S
H491 C496 0.949 . S
H492 C498 0.950 1_556 S
H493 C499 0.950 . S
H494 C500 0.949 . S
C495 H490 0.950 . S
C495 C497 1.327 . S
C495 C501 1.429 . S
C496 C488 1.574 . S
C496 H491 0.949 . S
C496 C502 1.368 . S
C497 C481 1.349 . S
C497 H489 0.950 . S
C497 C495 1.327 . S
C498 C486 1.349 . S
C498 H492 0.950 1_554 S
C498 C499 1.327 . S
C499 H493 0.950 . S
C499 C498 1.327 . S
C499 C503 1.429 . S
C500 C483 1.574 . S
C500 H494 0.949 . S
C500 C504 1.368 . S
C501 C482 1.429 . S
C501 C495 1.429 . S
C501 C502 1.523 . S
C502 C483 1.368 . S
C502 C496 1.368 . S
C502 C501 1.523 . S
C503 C487 1.429 . S
C503 C499 1.429 . S
C503 C504 1.523 . S
C504 C488 1.368 . S
C504 C500 1.368 . S
C504 C503 1.523 . S
H505 C480 0.950 . S
H506 C482 0.950 . S
H507 C483 0.949 . S
H508 C485 0.950 . S
H509 C487 0.950 . S
C510 C511 1.349 . S
C510 C512 1.327 . S
C510 H535 0.950 . S
C511 C510 1.349 . S
C511 C527 1.349 . S
C512 C510 1.327 . S
C512 C531 1.429 . S
C512 H536 0.950 . S
C513 C530 1.574 . S
C513 C532 1.368 . S
C513 H537 0.949 . S
H514 C518 0.949 . S
C515 C516 1.349 . S
C515 C517 1.327 . S
C515 H538 0.950 . S
C516 C515 1.349 . S
C516 C528 1.349 . S
C517 C515 1.327 . S
C517 C533 1.429 . S
C517 H539 0.950 . S
C518 H514 0.949 . S
C518 C526 1.574 . S
C518 C534 1.368 . S
H519 C527 0.950 . S
H520 C525 0.950 . S
H521 C526 0.949 . S
H522 C528 0.950 . S
H523 C529 0.950 . S
H524 C530 0.949 . S
C525 H520 0.950 . S
C525 C527 1.327 . S
C525 C531 1.429 . S
C526 C518 1.574 . S
C526 H521 0.949 . S
C526 C532 1.368 . S
C527 C511 1.349 . S
C527 H519 0.950 . S
C527 C525 1.327 . S
C528 C516 1.349 . S
C528 H522 0.950 . S
C528 C529 1.327 . S
C529 H523 0.950 . S
C529 C528 1.327 . S
C529 C533 1.429 . S
C530 C513 1.574 . S
C530 H524 0.949 . S
C530 C534 1.368 . S
C531 C512 1.429 . S
C531 C525 1.429 . S
C531 C532 1.523 . S
C532 C513 1.368 . S
C532 C526 1.368 . S
C532 C531 1.523 . S
C533 C517 1.429 . S
C533 C529 1.429 . S
C533 C534 1.523 . S
C534 C518 1.368 . S
C534 C530 1.368 . S
C534 C533 1.523 . S
H535 C510 0.950 . S
H536 C512 0.950 . S
H537 C513 0.949 . S
H538 C515 0.950 . S
H539 C517 0.950 . S
C540 C541 1.349 . S
C540 C542 1.327 . S
C540 H565 0.950 . S
C541 C540 1.349 . S
C541 C557 1.349 . S
C542 C540 1.327 . S
C542 C561 1.429 . S
C542 H566 0.950 . S
C543 C560 1.574 . S
C543 C562 1.368 . S
C543 H567 0.949 . S
H544 C548 0.949 . S
C545 C546 1.349 . S
C545 C547 1.327 1_554 S
C545 H568 0.950 . S
C546 C545 1.349 . S
C546 C558 1.349 . S
C547 C545 1.327 1_556 S
C547 C563 1.429 . S
C547 H569 0.950 . S
C548 H544 0.949 . S
C548 C556 1.574 . S
C548 C564 1.368 . S
H549 C557 0.950 . S
H550 C555 0.950 . S
H551 C556 0.949 . S
H552 C558 0.950 . S
H553 C559 0.950 . S
H554 C560 0.949 . S
C555 H550 0.950 . S
C555 C557 1.327 . S
C555 C561 1.429 . S
C556 C548 1.574 . S
C556 H551 0.949 . S
C556 C562 1.368 . S
C557 C541 1.349 . S
C557 H549 0.950 . S
C557 C555 1.327 . S
C558 C546 1.349 . S
C558 H552 0.950 . S
C558 C559 1.327 1_554 S
C559 H553 0.950 . S
C559 C558 1.327 1_556 S
C559 C563 1.429 . S
C560 C543 1.574 . S
C560 H554 0.949 . S
C560 C564 1.368 . S
C561 C542 1.429 . S
C561 C555 1.429 . S
C561 C562 1.523 . S
C562 C543 1.368 . S
C562 C556 1.368 . S
C562 C561 1.523 . S
C563 C547 1.429 . S
C563 C559 1.429 . S
C563 C564 1.523 . S
C564 C548 1.368 . S
C564 C560 1.368 . S
C564 C563 1.523 . S
H565 C540 0.950 . S
H566 C542 0.950 . S
H567 C543 0.949 . S
H568 C545 0.950 . S
H569 C547 0.950 . S
C570 C571 1.349 . S
C570 C572 1.327 . S
C570 H595 0.950 . S
C571 C570 1.349 . S
C571 C587 1.349 . S
C572 C570 1.327 . S
C572 C591 1.429 . S
C572 H596 0.950 . S
C573 C590 1.574 . S
C573 C592 1.368 . S
C573 H597 0.949 . S
H574 C578 0.949 . S
C575 C576 1.349 . S
C575 C577 1.327 . S
C575 H598 0.950 . S
C576 C575 1.349 . S
C576 C588 1.349 . S
C577 C575 1.327 . S
C577 C593 1.429 . S
C577 H599 0.950 . S
C578 H574 0.949 . S
C578 C586 1.574 . S
C578 C594 1.368 . S
H579 C587 0.950 . S
H580 C585 0.950 . S
H581 C586 0.949 . S
H582 C588 0.950 . S
H583 C589 0.950 . S
H584 C590 0.949 . S
C585 H580 0.950 . S
C585 C587 1.327 . S
C585 C591 1.429 . S
C586 C578 1.574 . S
C586 H581 0.949 . S
C586 C592 1.368 . S
C587 C571 1.349 . S
C587 H579 0.950 . S
C587 C585 1.327 . S
C588 C576 1.349 . S
C588 H582 0.950 . S
C588 C589 1.327 . S
C589 H583 0.950 . S
C589 C588 1.327 . S
C589 C593 1.429 . S
C590 C573 1.574 . S
C590 H584 0.949 . S
C590 C594 1.368 . S
C591 C572 1.429 . S
C591 C585 1.429 . S
C591 C592 1.523 . S
C592 C573 1.368 . S
C592 C586 1.368 . S
C592 C591 1.523 . S
C593 C577 1.429 . S
C593 C589 1.429 . S
C593 C594 1.523 . S
C594 C578 1.368 . S
C594 C590 1.368 . S
C594 C593 1.523 . S
H595 C570 0.950 . S
H596 C572 0.950 . S
H597 C573 0.949 . S
H598 C575 0.950 . S
H599 C577 0.950 . S
C600 C601 1.349 . S
C600 C602 1.327 . S
C600 H625 0.950 . S
C601 C600 1.349 . S
C601 C617 1.349 . S
C602 C600 1.327 . S
C602 C621 1.429 . S
C602 H626 0.950 . S
C603 C620 1.574 . S
C603 C622 1.368 . S
C603 H627 0.949 . S
H604 C608 0.949 . S
C605 C606 1.349 . S
C605 C607 1.327 . S
C605 H628 0.950 . S
C606 C605 1.349 . S
C606 C618 1.349 . S
C607 C605 1.327 . S
C607 C623 1.429 . S
C607 H629 0.950 . S
C608 H604 0.949 . S
C608 C616 1.574 . S
C608 C624 1.368 . S
H609 C617 0.950 . S
H610 C615 0.950 . S
H611 C616 0.949 . S
H612 C618 0.950 . S
H613 C619 0.950 . S
H614 C620 0.949 . S
C615 H610 0.950 . S
C615 C617 1.327 . S
C615 C621 1.429 . S
C616 C608 1.574 . S
C616 H611 0.949 . S
C616 C622 1.368 . S
C617 C601 1.349 . S
C617 H609 0.950 . S
C617 C615 1.327 . S
C618 C606 1.349 . S
C618 H612 0.950 . S
C618 C619 1.327 . S
C619 H613 0.950 . S
C619 C618 1.327 . S
C619 C623 1.429 . S
C620 C603 1.574 . S
C620 H614 0.949 . S
C620 C624 1.368 . S
C621 C602 1.429 . S
C621 C615 1.429 . S
C621 C622 1.523 . S
C622 C603 1.368 . S
C622 C616 1.368 . S
C622 C621 1.523 . S
C623 C607 1.429 . S
C623 C619 1.429 . S
C623 C624 1.523 . S
C624 C608 1.368 . S
C624 C620 1.368 . S
C624 C623 1.523 . S
H625 C600 0.950 . S
H626 C602 0.950 . S
H627 C603 0.949 . S
H628 C605 0.950 . S
H629 C607 0.950 . S
C630 C631 1.349 . S
C630 C632 1.327 . S
C630 H655 0.950 . S
C631 C630 1.349 . S
C631 C647 1.349 . S
C632 C630 1.327 . S
C632 C651 1.429 . S
C632 H656 0.950 . S
C633 C650 1.574 . S
C633 C652 1.368 . S
C633 H657 0.949 . S
H634 C638 0.949 . S
C635 C636 1.349 . S
C635 C637 1.327 . S
C635 H658 0.950 . S
C636 C635 1.349 . S
C636 C648 1.349 . S
C637 C635 1.327 . S
C637 C653 1.429 . S
C637 H659 0.950 . S
C638 H634 0.949 . S
C638 C646 1.574 . S
C638 C654 1.368 . S
H639 C647 0.950 . S
H640 C645 0.950 . S
H641 C646 0.949 . S
H642 C648 0.950 . S
H643 C649 0.950 . S
H644 C650 0.949 . S
C645 H640 0.950 . S
C645 C647 1.327 . S
C645 C651 1.429 . S
C646 C638 1.574 . S
C646 H641 0.949 . S
C646 C652 1.368 . S
C647 C631 1.349 . S
C647 H639 0.950 . S
C647 C645 1.327 . S
C648 C636 1.349 . S
C648 H642 0.950 . S
C648 C649 1.327 . S
C649 H643 0.950 . S
C649 C648 1.327 . S
C649 C653 1.429 . S
C650 C633 1.574 . S
C650 H644 0.949 . S
C650 C654 1.368 . S
C651 C632 1.429 . S
C651 C645 1.429 . S
C651 C652 1.523 . S
C652 C633 1.368 . S
C652 C646 1.368 . S
C652 C651 1.523 . S
C653 C637 1.429 . S
C653 C649 1.429 . S
C653 C654 1.523 . S
C654 C638 1.368 . S
C654 C650 1.368 . S
C654 C653 1.523 . S
H655 C630 0.950 . S
H656 C632 0.950 . S
H657 C633 0.949 . S
H658 C635 0.950 . S
H659 C637 0.950 . S
C660 C661 1.349 . S
C660 C662 1.327 . S
C660 H685 0.950 . S
C661 C660 1.349 . S
C661 C677 1.349 . S
C662 C660 1.327 . S
C662 C681 1.429 . S
C662 H686 0.950 . S
C663 C680 1.574 . S
C663 C682 1.368 . S
C663 H687 0.949 . S
H664 C668 0.949 . S
C665 C666 1.349 . S
C665 C667 1.327 . S
C665 H688 0.950 . S
C666 C665 1.349 . S
C666 C678 1.349 . S
C667 C665 1.327 . S
C667 C683 1.429 . S
C667 H689 0.950 . S
C668 H664 0.949 . S
C668 C676 1.574 . S
C668 C684 1.368 . S
H669 C677 0.950 . S
H670 C675 0.950 . S
H671 C676 0.949 . S
H672 C678 0.950 . S
H673 C679 0.950 . S
H674 C680 0.949 . S
C675 H670 0.950 . S
C675 C677 1.327 . S
C675 C681 1.429 . S
C676 C668 1.574 . S
C676 H671 0.949 . S
C676 C682 1.368 . S
C677 C661 1.349 . S
C677 H669 0.950 . S
C677 C675 1.327 . S
C678 C666 1.349 . S
C678 H672 0.950 . S
C678 C679 1.327 . S
C679 H673 0.950 . S
C679 C678 1.327 . S
C679 C683 1.429 . S
C680 C663 1.574 . S
C680 H674 0.949 . S
C680 C684 1.368 . S
C681 C662 1.429 . S
C681 C675 1.429 . S
C681 C682 1.523 . S
C682 C663 1.368 . S
C682 C676 1.368 . S
C682 C681 1.523 . S
C683 C667 1.429 . S
C683 C679 1.429 . S
C683 C684 1.523 . S
C684 C668 1.368 . S
C684 C680 1.368 . S
C684 C683 1.523 . S
H685 C660 0.950 . S
H686 C662 0.950 . S
H687 C663 0.949 . S
H688 C665 0.950 . S
H689 C667 0.950 . S
C690 C691 1.349 . S
C690 C692 1.327 . S
C690 H715 0.950 . S
C691 C690 1.349 . S
C691 C707 1.349 . S
C692 C690 1.327 . S
C692 C711 1.429 . S
C692 H716 0.950 . S
C693 C710 1.574 . S
C693 C712 1.368 . S
C693 H717 0.949 . S
H694 C698 0.949 . S
C695 C696 1.349 . S
C695 C697 1.327 . S
C695 H718 0.950 . S
C696 C695 1.349 . S
C696 C708 1.349 . S
C697 C695 1.327 . S
C697 C713 1.429 . S
C697 H719 0.950 . S
C698 H694 0.949 . S
C698 C706 1.574 . S
C698 C714 1.368 . S
H699 C707 0.950 . S
H700 C705 0.950 . S
H701 C706 0.949 . S
H702 C708 0.950 . S
H703 C709 0.950 . S
H704 C710 0.949 . S
C705 H700 0.950 . S
C705 C707 1.327 . S
C705 C711 1.429 . S
C706 C698 1.574 . S
C706 H701 0.949 . S
C706 C712 1.368 . S
C707 C691 1.349 . S
C707 H699 0.950 . S
C707 C705 1.327 . S
C708 C696 1.349 . S
C708 H702 0.950 . S
C708 C709 1.327 . S
C709 H703 0.950 . S
C709 C708 1.327 . S
C709 C713 1.429 . S
C710 C693 1.574 . S
C710 H704 0.949 . S
C710 C714 1.368 . S
C711 C692 1.429 . S
C711 C705 1.429 . S
C711 C712 1.523 . S
C712 C693 1.368 . S
C712 C706 1.368 . S
C712 C711 1.523 . S
C713 C697 1.429 . S
C713 C709 1.429 . S
C713 C714 1.523 . S
C714 C698 1.368 . S
C714 C710 1.368 . S
C714 C713 1.523 . S
H715 C690 0.950 . S
H716 C692 0.950 . S
H717 C693 0.949 . S
H718 C695 0.950 . S
H719 C697 0.950 . S
C720 C721 1.349 . S
C720 C722 1.327 . S
C720 H745 0.950 . S
C721 C720 1.349 . S
C721 C737 1.349 . S
C722 C720 1.327 . S
C722 C741 1.429 . S
C722 H746 0.950 . S
C723 C740 1.574 . S
C723 C742 1.368 . S
C723 H747 0.949 . S
H724 C728 0.949 . S
C725 C726 1.349 . S
C725 C727 1.327 . S
C725 H748 0.950 . S
C726 C725 1.349 . S
C726 C738 1.349 . S
C727 C725 1.327 . S
C727 C743 1.429 . S
C727 H749 0.950 . S
C728 H724 0.949 . S
C728 C736 1.574 . S
C728 C744 1.368 . S
H729 C737 0.950 . S
H730 C735 0.950 . S
H731 C736 0.949 . S
H732 C738 0.950 . S
H733 C739 0.950 . S
H734 C740 0.949 . S
C735 H730 0.950 . S
C735 C737 1.327 . S
C735 C741 1.429 . S
C736 C728 1.574 . S
C736 H731 0.949 . S
C736 C742 1.368 . S
C737 C721 1.349 . S
C737 H729 0.950 . S
C737 C735 1.327 . S
C738 C726 1.349 . S
C738 H732 0.950 . S
C738 C739 1.327 . S
C739 H733 0.950 . S
C739 C738 1.327 . S
C739 C743 1.429 . S
C740 C723 1.574 . S
C740 H734 0.949 . S
C740 C744 1.368 . S
C741 C722 1.429 . S
C741 C735 1.429 . S
C741 C742 1.523 . S
C742 C723 1.368 . S
C742 C736 1.368 . S
C742 C741 1.523 . S
C743 C727 1.429 . S
C743 C739 1.429 . S
C743 C744 1.523 . S
C744 C728 1.368 . S
C744 C740 1.368 . S
C744 C743 1.523 . S
H745 C720 0.950 . S
H746 C722 0.950 . S
H747 C723 0.949 . S
H748 C725 0.950 . S
H749 C727 0.950 . S
C750 C751 1.349 . S
C750 C752 1.327 . S
C750 H775 0.950 . S
C751 C750 1.349 . S
C751 C767 1.349 . S
C752 C750 1.327 . S
C752 C771 1.429 . S
C752 H776 0.950 . S
C753 C770 1.574 . S
C753 C772 1.368 . S
C753 H777 0.949 . S
H754 C758 0.949 . S
C755 C756 1.349 . S
C755 C757 1.327 . S
C755 H778 0.950 . S
C756 C755 1.349 . S
C756 C768 1.349 . S
C757 C755 1.327 . S
C757 C773 1.429 . S
C757 H779 0.950 1_556 S
C758 H754 0.949 . S
C758 C766 1.574 1_556 S
C758 C774 1.368 1_556 S
H759 C767 0.950 . S
H760 C765 0.950 . S
H761 C766 0.949 . S
H762 C768 0.950 . S
H763 C769 0.950 . S
H764 C770 0.949 . S
C765 H760 0.950 . S
C765 C767 1.327 . S
C765 C771 1.429 . S
C766 C758 1.574 1_554 S
C766 H761 0.949 . S
C766 C772 1.368 . S
C767 C751 1.349 . S
C767 H759 0.950 . S
C767 C765 1.327 . S
C768 C756 1.349 . S
C768 H762 0.950 . S
C768 C769 1.327 . S
C769 H763 0.950 . S
C769 C768 1.327 . S
C769 C773 1.429 . S
C770 C753 1.574 . S
C770 H764 0.949 . S
C770 C774 1.368 . S
C771 C752 1.429 . S
C771 C765 1.429 . S
C771 C772 1.523 . S
C772 C753 1.368 . S
C772 C766 1.368 . S
C772 C771 1.523 . S
C773 C757 1.429 . S
C773 C769 1.429 . S
C773 C774 1.523 1_556 S
C774 C758 1.368 1_554 S
C774 C770 1.368 . S
C774 C773 1.523 1_554 S
H775 C750 0.950 . S
H776 C752 0.950 . S
H777 C753 0.949 . S
H778 C755 0.950 . S
H779 C757 0.950 1_554 S
C241 C202 1.331 . S
C246 C2 1.331 1_556 S
C271 C22 1.574 . S
C276 C62 1.574 . S
C301 C42 1.330 . S
C306 C82 1.330 . S
C331 C102 1.574 . S
C336 C142 1.574 . S
C361 C162 1.330 . S
C366 C122 1.330 . S
C391 C222 1.574 . S
C396 C182 1.574 . S
C421 C26 0.993 . S
C426 C9 0.993 . S
C451 C49 0.993 . S
C456 C66 0.993 . S
C481 C106 0.993 . S
C486 C89 0.993 1_554 S
C511 C129 0.994 . S
C516 C146 0.994 . S
C541 C169 0.993 . S
C546 C186 0.993 . S
C571 C209 0.993 . S
C576 C226 0.993 . S
C601 C15 1.828 . S
C606 C163 1.825 . S
C631 C43 1.825 . S
C636 C215 1.827 . S
C661 C3 1.825 . S
C666 C95 1.827 . S
C691 C55 1.828 . S
C696 C123 1.826 . S
C721 C175 1.827 . S
C726 C83 1.825 . S
C751 C135 1.828 . S
C756 C203 1.825 . S
