# Generated by pormake.
# Topology sml, (6)-cn, num edge types: 1
# Building blocks:
#     Node 0, Type 0, BuildingBlock: UKALOJ_clean_sbu_0, # of connection points: 6
#     Node 1, Type 0, BuildingBlock: UKALOJ_clean_sbu_0, # of connection points: 6
#     Node 2, Type 0, BuildingBlock: UKALOJ_clean_sbu_0, # of connection points: 6
#     Node 3, Type 0, BuildingBlock: UKALOJ_clean_sbu_0, # of connection points: 6
#     Node 4, Type 0, BuildingBlock: UKALOJ_clean_sbu_0, # of connection points: 6
#     Node 5, Type 0, BuildingBlock: UKALOJ_clean_sbu_0, # of connection points: 6
#     Edge 6, Type (0, 0), BuildingBlock: AJUNOK_clean_linker_0, # of connection points: 2
#     Edge 7, Type (0, 0), BuildingBlock: AJUNOK_clean_linker_0, # of connection points: 2
#     Edge 8, Type (0, 0), BuildingBlock: AJUNOK_clean_linker_0, # of connection points: 2
#     Edge 9, Type (0, 0), BuildingBlock: AJUNOK_clean_linker_0, # of connection points: 2
#     Edge 10, Type (0, 0), BuildingBlock: AJUNOK_clean_linker_0, # of connection points: 2
#     Edge 11, Type (0, 0), BuildingBlock: AJUNOK_clean_linker_0, # of connection points: 2
#     Edge 12, Type (0, 0), BuildingBlock: AJUNOK_clean_linker_0, # of connection points: 2
#     Edge 13, Type (0, 0), BuildingBlock: AJUNOK_clean_linker_0, # of connection points: 2
#     Edge 14, Type (0, 0), BuildingBlock: AJUNOK_clean_linker_0, # of connection points: 2
#     Edge 15, Type (0, 0), BuildingBlock: AJUNOK_clean_linker_0, # of connection points: 2
#     Edge 16, Type (0, 0), BuildingBlock: AJUNOK_clean_linker_0, # of connection points: 2
#     Edge 17, Type (0, 0), BuildingBlock: AJUNOK_clean_linker_0, # of connection points: 2
#     Edge 18, Type (0, 0), BuildingBlock: AJUNOK_clean_linker_0, # of connection points: 2
#     Edge 19, Type (0, 0), BuildingBlock: AJUNOK_clean_linker_0, # of connection points: 2
#     Edge 20, Type (0, 0), BuildingBlock: AJUNOK_clean_linker_0, # of connection points: 2
#     Edge 21, Type (0, 0), BuildingBlock: AJUNOK_clean_linker_0, # of connection points: 2
#     Edge 22, Type (0, 0), BuildingBlock: AJUNOK_clean_linker_0, # of connection points: 2
#     Edge 23, Type (0, 0), BuildingBlock: AJUNOK_clean_linker_0, # of connection points: 2
# Relax obj value: 0.385
# Max RMSD: 0.245
# Mean RMSD: 0.245
data_MOF--net-sml--node1-UKALOJ_clean_sbu_0--edge1-AJUNOK_clean_linker_0
_symmetry_space_group_name_H-M    P1
_symmetry_Int_Tables_number       1
_symmetry_cell_setting            triclinic
loop_
_symmetry_equiv_pos_as_xyz
'x, y, z'
_cell_length_a     26.774566
_cell_length_b     26.558331
_cell_length_c     15.100927
_cell_angle_alpha  90.170661
_cell_angle_beta   89.929736
_cell_angle_gamma 119.94354
loop_
_atom_site_label
_atom_site_type_symbol
_atom_site_fract_x
_atom_site_fract_y
_atom_site_fract_z
_atom_type_partial_charge
Zn0 Zn 0.20267 0.3931 0.07714 0.0
O1 O 0.18906 0.46012 0.12346 0.0
C2 C 0.07102 0.31482 0.07083 0.0
Zn3 Zn 0.15709 0.40587 0.9621 0.0
C4 C 0.16186 0.48407 0.09337 0.0
O5 O 0.13888 0.46961 0.01687 0.0
C6 C 0.20285 0.31959 0.94301 0.0
O7 O 0.24083 0.47029 0.93187 0.0
O8 O 0.28807 0.45754 0.04005 0.0
N9 N 0.12958 0.40895 0.83436 0.0
C10 C 0.1617 0.43343 0.76078 0.0
C11 C 0.08573 0.35707 0.71927 0.0
N12 N 0.08186 0.3622 0.80744 0.0
N13 N 0.13588 0.40076 0.68825 0.0
C14 C 0.20261 0.39392 0.28163 0.0
C15 C 0.27206 0.38175 0.32128 0.0
N16 N 0.22671 0.38758 0.20648 0.0
N17 N 0.26992 0.3799 0.2315 0.0
N18 N 0.23051 0.3912 0.35366 0.0
H19 H 0.12503 0.38895 0.22665 0.0
H20 H 0.16393 0.44681 0.30286 0.0
H21 H 0.12178 0.37387 0.34214 0.0
C22 C 0.15029 0.4009 0.28755 0.0
C23 C 0.21931 0.48816 0.75961 0.0
H24 H 0.25407 0.47727 0.76628 0.0
H25 H 0.22195 0.51796 0.81331 0.0
H26 H 0.22659 0.51188 0.69665 0.0
O27 O 0.17699 0.34416 0.90962 0.0
O28 O 0.21826 0.32845 0.02405 0.0
C29 C 0.28805 0.48325 0.96917 0.0
O30 O 0.11752 0.32802 0.11112 0.0
O31 O 0.07294 0.34047 0.99904 0.0
Zn32 Zn 0.73792 0.16572 0.28959 0.0
O33 O 0.75898 0.24915 0.24834 0.0
C34 C 0.86931 0.20988 0.29407 0.0
Zn35 Zn 0.78933 0.21952 0.40345 0.0
C36 C 0.79079 0.29963 0.27945 0.0
O37 O 0.81464 0.30497 0.35458 0.0
C38 C 0.73272 0.08396 0.41049 0.0
O39 O 0.71013 0.2102 0.43425 0.0
O40 O 0.65402 0.15153 0.3306 0.0
N41 N 0.81369 0.24608 0.5328 0.0
C42 C 0.78091 0.22365 0.60622 0.0
C43 C 0.86627 0.28223 0.64996 0.0
N44 N 0.86682 0.28261 0.56027 0.0
N45 N 0.81253 0.24607 0.67973 0.0
C46 C 0.74763 0.16712 0.08734 0.0
C47 C 0.66431 0.10439 0.0407 0.0
N48 N 0.71448 0.14182 0.15963 0.0
N49 N 0.6626 0.10288 0.13037 0.0
N50 N 0.71755 0.14377 0.01291 0.0
H51 H 0.81595 0.24632 0.0294 0.0
H52 H 0.83856 0.19973 0.07782 0.0
H53 H 0.82165 0.2444 0.14606 0.0
C54 C 0.80892 0.21721 0.08633 0.0
C55 C 0.71876 0.1761 0.60864 0.0
H56 H 0.70587 0.1487 0.54947 0.0
H57 H 0.69102 0.19594 0.61543 0.0
H58 H 0.71014 0.14703 0.66619 0.0
O59 O 0.76336 0.13291 0.44808 0.0
O60 O 0.71403 0.08187 0.33254 0.0
C61 C 0.66047 0.18092 0.40086 0.0
O62 O 0.82157 0.1794 0.25451 0.0
O63 O 0.86999 0.23248 0.36856 0.0
Zn64 Zn 0.55472 0.80737 0.76873 0.0
O65 O 0.4895 0.72497 0.80745 0.0
C66 C 0.63886 0.75904 0.76152 0.0
Zn67 Zn 0.55058 0.75416 0.65301 0.0
C68 C 0.46874 0.67468 0.77422 0.0
O69 O 0.48809 0.66896 0.69997 0.0
C70 C 0.63304 0.88791 0.64755 0.0
O71 O 0.48229 0.76771 0.62345 0.0
O72 O 0.48909 0.82686 0.73044 0.0
N73 N 0.5485 0.72876 0.52411 0.0
C74 C 0.54027 0.75348 0.45152 0.0
C75 C 0.56884 0.69596 0.40644 0.0
N76 N 0.56635 0.69304 0.49593 0.0
N77 N 0.55227 0.73335 0.37786 0.0
C78 C 0.55251 0.802 0.97094 0.0
C79 C 0.5651 0.88393 0.01449 0.0
N80 N 0.55702 0.83309 0.8976 0.0
N81 N 0.565 0.88414 0.92479 0.0
N82 N 0.55682 0.83254 0.0441 0.0
H83 H 0.55724 0.72835 0.91259 0.0
H84 H 0.50058 0.71008 0.99088 0.0
H85 H 0.57308 0.74011 0.02791 0.0
C86 C 0.54585 0.74215 0.97425 0.0
C87 C 0.52234 0.79909 0.45052 0.0
H88 H 0.47475 0.77727 0.45659 0.0
H89 H 0.53406 0.82377 0.38761 0.0
H90 H 0.54216 0.83101 0.50456 0.0
O91 O 0.61303 0.83919 0.60868 0.0
O92 O 0.61709 0.89003 0.72607 0.0
C93 C 0.46514 0.79934 0.65965 0.0
O94 O 0.62126 0.78859 0.804 0.0
O95 O 0.61711 0.73835 0.68625 0.0
Zn96 Zn 0.79465 0.56806 0.95209 0.0
O97 O 0.71228 0.50971 0.90493 0.0
C98 C 0.74755 0.65046 0.95014 0.0
Zn99 Zn 0.74852 0.56795 0.07458 0.0
C100 C 0.66579 0.48639 0.9488 0.0
O101 O 0.66663 0.49845 0.03071 0.0
C102 C 0.8763 0.65135 0.0782 0.0
O103 O 0.77419 0.50938 0.11868 0.0
O104 O 0.80855 0.49883 0.99238 0.0
N105 N 0.71944 0.57066 0.20029 0.0
C106 C 0.71603 0.53909 0.27252 0.0
C107 C 0.72979 0.6206 0.31888 0.0
N108 N 0.72696 0.621 0.22978 0.0
N109 N 0.72327 0.56968 0.34743 0.0
C110 C 0.80136 0.54064 0.75536 0.0
C111 C 0.86676 0.62306 0.70946 0.0
N112 N 0.82793 0.57316 0.82758 0.0
N113 N 0.86914 0.62413 0.79862 0.0
N114 N 0.82411 0.57129 0.68047 0.0
H115 H 0.7577 0.45719 0.82003 0.0
H116 H 0.76166 0.45456 0.70033 0.0
H117 H 0.71243 0.47301 0.75031 0.0
C118 C 0.75572 0.47767 0.75716 0.0
C119 C 0.70661 0.47853 0.27153 0.0
H120 H 0.685 0.45561 0.20941 0.0
H121 H 0.6795 0.45393 0.3289 0.0
H122 H 0.74854 0.48002 0.27913 0.0
O123 O 0.82871 0.63583 0.11663 0.0
O124 O 0.87632 0.62864 1.00384 0.0
C125 C 0.79738 0.48616 0.07389 0.0
O126 O 0.78033 0.63536 0.91234 0.0
O127 O 0.72563 0.62865 0.02504 0.0
Zn128 Zn 0.15567 0.74701 0.4198 0.0
O129 O 0.23538 0.75847 0.46233 0.0
C130 C 0.20837 0.8795 0.4115 0.0
Zn131 Zn 0.21321 0.79258 0.30656 0.0
C132 C 0.28654 0.78811 0.43384 0.0
O133 O 0.29564 0.81499 0.3606 0.0
C134 C 0.08159 0.74826 0.29182 0.0
O135 O 0.19882 0.70839 0.28295 0.0
O136 O 0.13116 0.66005 0.38157 0.0
N137 N 0.24154 0.81481 0.17717 0.0
C138 C 0.22043 0.78085 0.10408 0.0
C139 C 0.26722 0.86847 0.05979 0.0
N140 N 0.27077 0.86929 0.14917 0.0
N141 N 0.23627 0.81336 0.03022 0.0
C142 C 0.15982 0.7515 0.62304 0.0
C143 C 0.07709 0.6854 0.6663 0.0
N144 N 0.12844 0.72569 0.54937 0.0
N145 N 0.07685 0.68475 0.57652 0.0
N146 N 0.12887 0.72692 0.69616 0.0
H147 H 0.23557 0.82771 0.56702 0.0
H148 H 0.25008 0.78217 0.63739 0.0
H149 H 0.22778 0.82947 0.68399 0.0
C150 C 0.22143 0.80059 0.62675 0.0
C151 C 0.17913 0.71633 0.10388 0.0
H152 H 0.14541 0.7043 0.15446 0.0
H153 H 0.2034 0.69341 0.11739 0.0
H154 H 0.15679 0.70024 0.03963 0.0
O155 O 0.13079 0.77008 0.25541 0.0
O156 O 0.07617 0.73428 0.37323 0.0
C157 C 0.16177 0.6605 0.31672 0.0
O158 O 0.1785 0.83266 0.45369 0.0
O159 O 0.22899 0.87742 0.33652 0.0
Zn160 Zn 0.40209 0.22917 0.61414 0.0
O161 O 0.47 0.21526 0.58666 0.0
C162 C 0.31673 0.09576 0.60518 0.0
Zn163 Zn 0.39412 0.17448 0.72957 0.0
C164 C 0.48467 0.18138 0.62135 0.0
O165 O 0.45866 0.15276 0.69025 0.0
C166 C 0.31271 0.22519 0.72132 0.0
O167 O 0.46002 0.25596 0.77264 0.0
O168 O 0.46377 0.313 0.66555 0.0
N169 N 0.39143 0.14864 0.85845 0.0
C170 C 0.38764 0.17588 0.93195 0.0
C171 C 0.40175 0.10773 0.97527 0.0
N172 N 0.40028 0.10627 0.8856 0.0
N173 N 0.39323 0.1507 1.00504 0.0
C174 C 0.41893 0.23498 0.41234 0.0
C175 C 0.3903 0.29238 0.36809 0.0
N176 N 0.4075 0.25713 0.48547 0.0
N177 N 0.38974 0.29288 0.45769 0.0
N178 N 0.4094 0.25706 0.33862 0.0
H179 H 0.48237 0.2083 0.4158 0.0
H180 H 0.42138 0.16255 0.3483 0.0
H181 H 0.41475 0.15655 0.46507 0.0
C182 C 0.43483 0.18789 0.41079 0.0
C183 C 0.38155 0.22938 0.93558 0.0
H184 H 0.39259 0.25443 0.87394 0.0
H185 H 0.40953 0.25928 0.98838 0.0
H186 H 0.33653 0.2161 0.95373 0.0
O187 O 0.32886 0.19451 0.76336 0.0
O188 O 0.33526 0.24589 0.64647 0.0
C189 C 0.48096 0.30668 0.74121 0.0
O190 O 0.34012 0.14455 0.5659 0.0
O191 O 0.32991 0.09326 0.68526 0.0
C192 C 0.24658 0.21526 0.84587 0.0
C193 C 0.27605 0.24415 0.76787 0.0
C194 C 0.22204 0.23906 0.90252 0.0
C195 C 0.2248 0.29176 0.88178 0.0
H196 H 0.24453 0.17504 0.86538 0.0
H197 H 0.2015 0.21654 0.96321 0.0
S198 S 0.29707 0.38526 0.68701 0.0
N199 N 0.30643 0.3288 0.67394 0.0
N200 N 0.25888 0.37238 0.77852 0.0
C201 C 0.25204 0.31998 0.80249 0.0
C202 C 0.27777 0.29633 0.7457 0.0
C203 C 0.0067 0.31878 0.18328 0.0
C204 C 0.0174 0.28534 0.1222 0.0
C205 C 0.96094 0.29289 0.24301 0.0
C206 C 0.9228 0.23263 0.24195 0.0
H207 H 0.034 0.36559 0.18498 0.0
H208 H 0.9539 0.32077 0.28768 0.0
S209 S 0.92984 0.12623 0.09039 0.0
N210 N -0.01373 0.18921 0.06267 0.0
N211 N 0.89704 0.14032 0.17151 0.0
C212 C 0.93199 0.19868 0.17938 0.0
C213 C -0.01997 0.2251 0.12011 0.0
C214 C 0.7338 -0.00097 0.48091 0.0
C215 C 0.70672 0.03198 0.46665 0.0
C216 C 0.71086 0.95289 0.54201 0.0
C217 C 0.66209 0.94066 0.59319 0.0
H218 H 0.77253 0.00881 0.44464 0.0
H219 H 0.7313 0.92677 0.54945 0.0
S220 S 0.57461 0.01289 0.57669 0.0
N221 N 0.62674 0.04681 0.50361 0.0
N222 N 0.58653 0.9636 0.6229 0.0
C223 C 0.63516 0.97367 0.57944 0.0
C224 C 0.65687 0.01859 0.51503 0.0
C225 C 0.68176 0.74466 0.89948 0.0
C226 C 0.67673 0.74115 0.80637 0.0
C227 C 0.70664 0.71704 0.94586 0.0
C228 C 0.72912 0.68648 0.90072 0.0
H229 H 0.66371 0.76634 0.93755 0.0
H230 H 0.70686 0.71835 0.01758 0.0
S231 S 0.73468 0.67185 0.65633 0.0
N232 N 0.70157 0.7096 0.67043 0.0
N233 N 0.74994 0.65917 0.75678 0.0
C234 C 0.72849 0.68652 0.80722 0.0
C235 C 0.70203 0.71359 0.76023 0.0
C236 C 0.03148 0.71545 0.14717 0.0
C237 C 0.03107 0.73278 0.23524 0.0
C238 C -0.01784 0.69279 0.09438 0.0
C239 C 0.93068 0.68752 0.12709 0.0
H240 H 0.06931 0.71668 0.11964 0.0
H241 H -0.01617 0.67669 0.02908 0.0
S242 S 0.91218 0.7421 0.34485 0.0
N243 N -0.02142 0.75307 0.34754 0.0
N244 N 0.88566 0.71213 0.24751 0.0
C245 C 0.93144 0.71035 0.21204 0.0
C246 C -0.01836 0.73247 0.26644 0.0
C247 C 0.29 0.04071 0.46246 0.0
C248 C 0.28038 0.04214 0.55398 0.0
C249 C 0.2638 -0.01168 0.41497 0.0
C250 C 0.22584 0.93561 0.45676 0.0
H251 H 0.3204 0.07976 0.42793 0.0
H252 H 0.27544 -0.01108 0.34609 0.0
S253 S 0.17646 0.91847 0.69109 0.0
N254 N 0.22461 -0.01188 0.6818 0.0
N255 N 0.17253 0.89003 0.59225 0.0
C256 C 0.2114 0.93756 0.54636 0.0
C257 C 0.23944 -0.0093 0.59511 0.0
C258 C 0.18669 0.44719 0.54894 0.0
C259 C 0.16321 0.3994 0.60653 0.0
C260 C 0.21381 0.44624 0.46992 0.0
C261 C 0.21676 0.39678 0.44409 0.0
H262 H 0.18251 0.48482 0.5636 0.0
H263 H 0.23009 0.48337 0.42619 0.0
S264 S 0.16282 0.26078 0.5718 0.0
N265 N 0.14674 0.30206 0.63393 0.0
N266 N 0.19523 0.29956 0.48285 0.0
C267 C 0.19453 0.34923 0.50164 0.0
C268 C 0.16774 0.35045 0.58291 0.0
C269 C 0.71934 0.19892 0.88173 0.0
C270 C 0.73742 0.16405 0.92488 0.0
C271 C 0.74692 0.22915 0.80429 0.0
C272 C 0.79363 0.22572 0.76815 0.0
H273 H 0.68477 0.20394 0.90948 0.0
H274 H 0.73098 0.2544 0.77099 0.0
S275 S 0.85706 0.14035 0.85694 0.0
N276 N 0.80467 0.128 0.92695 0.0
N277 N 0.85622 0.18449 0.78074 0.0
C278 C 0.81221 0.19131 0.81112 0.0
C279 C 0.78398 0.16035 0.88947 0.0
C280 C 0.50483 0.73519 0.24078 0.0
C281 C 0.55547 0.75534 0.29051 0.0
C282 C 0.50455 0.76343 0.16281 0.0
C283 C 0.55471 0.81307 0.13305 0.0
H284 H 0.46521 0.69798 0.26336 0.0
H285 H 0.46536 0.74572 0.12402 0.0
S286 S 0.69684 0.88523 0.24391 0.0
N287 N 0.65577 0.82946 0.30848 0.0
N288 N 0.65551 0.88216 0.16038 0.0
C289 C 0.60512 0.83442 0.18345 0.0
C290 C 0.60547 0.80551 0.26256 0.0
C291 C 0.73864 0.54695 0.58855 0.0
C292 C 0.79706 0.56216 0.59501 0.0
C293 C 0.71386 0.54755 0.50692 0.0
C294 C 0.7467 0.56303 0.42916 0.0
H295 H 0.713 0.53818 0.64772 0.0
H296 H 0.66948 0.53778 0.50479 0.0
S297 S 0.901 0.6065 0.41019 0.0
N298 N 0.88666 0.59322 0.5167 0.0
N299 N 0.83999 0.59313 0.36265 0.0
C300 C 0.80461 0.57687 0.43419 0.0
C301 C 0.82985 0.57686 0.51729 0.0
C302 C 0.13917 0.78083 0.83377 0.0
C303 C 0.14958 0.74177 0.78532 0.0
C304 C 0.1697 0.80644 0.91221 0.0
C305 C 0.21189 0.79414 0.94362 0.0
H306 H 0.10858 0.79285 0.80922 0.0
H307 H 0.15986 0.83537 0.9493 0.0
S308 S 0.25517 0.69531 0.84005 0.0
N309 N 0.20481 0.69238 0.77354 0.0
N310 N 0.26212 0.7404 0.921 0.0
C311 C 0.2225 0.75519 0.89566 0.0
C312 C 0.19127 0.72894 0.81657 0.0
C313 C 0.35248 0.19848 0.21209 0.0
C314 C 0.40644 0.23545 0.25054 0.0
C315 C 0.34807 0.16761 0.1342 0.0
C316 C 0.39736 0.17215 0.09342 0.0
H317 H 0.31358 0.19244 0.24379 0.0
H318 H 0.3061 0.14082 0.10442 0.0
S319 S 0.54843 0.26513 0.16609 0.0
N320 N 0.50999 0.27608 0.24146 0.0
N321 N 0.50159 0.21825 0.09433 0.0
C322 C 0.45144 0.20934 0.13081 0.0
C323 C 0.456 0.24105 0.20952 0.0
C324 C 0.2021 0.55752 0.21404 0.0
C325 C 0.15815 0.52743 0.15095 0.0
C326 C 0.2002 0.59706 0.27332 0.0
C327 C 0.15376 0.60738 0.27341 0.0
H328 H 0.23919 0.55143 0.21658 0.0
H329 H 0.23651 0.62148 0.31726 0.0
S330 S 0.02716 0.53994 0.12373 0.0
N331 N 0.06616 0.51034 0.09344 0.0
N332 N 0.06265 0.58498 0.20591 0.0
C333 C 0.1088 0.57695 0.2124 0.0
C334 C 0.11104 0.53702 0.15075 0.0
C335 C 0.56031 0.129 0.46607 0.0
C336 C 0.61277 0.18059 0.45102 0.0
C337 C 0.52009 0.12748 0.52816 0.0
C338 C 0.53151 0.1774 0.57704 0.0
H339 H 0.55084 0.08953 0.43117 0.0
H340 H 0.47911 0.0878 0.53562 0.0
S341 S 0.66082 0.32355 0.559 0.0
N342 N 0.67247 0.28312 0.48809 0.0
N343 N 0.59751 0.27968 0.60403 0.0
C344 C 0.58341 0.22896 0.56182 0.0
C345 C 0.62376 0.23074 0.49889 0.0
C346 C 0.371 0.52175 0.86421 0.0
C347 C 0.34059 0.53171 0.93163 0.0
C348 C 0.41219 0.56782 0.81221 0.0
C349 C 0.42354 0.62508 0.82554 0.0
H350 H 0.3615 0.47787 0.84973 0.0
H351 H 0.43496 0.55851 0.76126 0.0
S352 S 0.35179 0.67207 0.99149 0.0
N353 N 0.32289 0.60155 1.00765 0.0
N354 N 0.39848 0.68796 0.91012 0.0
C355 C 0.39261 0.63495 0.8929 0.0
C356 C 0.3516 0.58832 0.94588 0.0
C357 C 0.76519 0.33802 0.14664 0.0
C358 C 0.79846 0.34951 0.2247 0.0
C359 C 0.76858 0.38284 0.09389 0.0
C360 C 0.80526 0.441 0.11689 0.0
H361 H 0.73485 0.29384 0.12678 0.0
H362 H 0.74008 0.37187 0.03732 0.0
S363 S 0.90786 0.49537 0.30493 0.0
N364 N 0.87421 0.42401 0.31563 0.0
N365 N 0.87944 0.50864 0.21717 0.0
C366 C 0.84074 0.45356 0.19184 0.0
C367 C 0.83771 0.40776 0.24547 0.0
C368 C 0.38583 0.84392 0.50066 0.0
C369 C 0.33312 0.79175 0.49091 0.0
C370 C 0.42726 0.84841 0.5625 0.0
C371 C 0.41694 0.80107 0.61649 0.0
H372 H 0.39493 0.8814 0.46083 0.0
H373 H 0.4685 0.88813 0.56525 0.0
S374 S 0.28727 0.65457 0.61414 0.0
N375 N 0.27382 0.69153 0.53947 0.0
N376 N 0.35156 0.70047 0.65456 0.0
C377 C 0.36452 0.74907 0.60745 0.0
C378 C 0.32266 0.7443 0.54495 0.0
C379 C 0.58015 0.38768 0.9343 0.0
C380 C 0.6126 0.44449 0.90263 0.0
C381 C 0.53698 0.34417 0.88188 0.0
C382 C 0.52421 0.35585 0.79592 0.0
H383 H 0.59023 0.37606 0.99786 0.0
H384 H 0.51459 0.30055 0.90859 0.0
S385 S 0.59164 0.50076 0.68962 0.0
N386 N 0.62595 0.51232 0.78497 0.0
N387 N 0.54393 0.43059 0.6867 0.0
C388 C 0.55416 0.41356 0.76609 0.0
C389 C 0.5986 0.45781 0.81936 0.0
loop_
_geom_bond_atom_site_label_1
_geom_bond_atom_site_label_2
_geom_bond_distance
_geom_bond_site_symmetry_2
_ccdc_geom_bond_type
Zn0 O1 2.055 . S
Zn0 O8 2.046 . S
Zn0 N16 2.036 . S
Zn0 O28 2.053 . S
Zn0 O30 2.066 . S
O1 Zn0 2.055 . S
O1 C4 1.259 . S
C2 O30 1.256 . S
C2 O31 1.244 1_554 S
Zn3 O5 2.046 . S
Zn3 O7 2.055 . S
Zn3 N9 2.036 . S
Zn3 O27 2.066 . S
Zn3 O31 2.053 . S
C4 O1 1.259 . S
C4 O5 1.254 1_554 S
O5 Zn3 2.046 . S
O5 C4 1.254 1_556 S
C6 O27 1.256 . S
C6 O28 1.244 1_556 S
O7 Zn3 2.055 . S
O7 C29 1.259 . S
O8 Zn0 2.046 . S
O8 C29 1.254 1_554 S
N9 Zn3 2.036 . S
N9 C10 1.298 . S
N9 N12 1.398 . S
C10 N9 1.298 . S
C10 N13 1.367 . S
C10 C23 1.481 . S
C11 N12 1.299 . S
C11 N13 1.379 . S
N12 N9 1.398 . S
N12 C11 1.299 . S
N13 C10 1.367 . S
N13 C11 1.379 . S
C14 N16 1.298 . S
C14 N18 1.367 . S
C14 C22 1.481 . S
C15 N17 1.299 . S
C15 N18 1.379 . S
N16 Zn0 2.036 . S
N16 C14 1.298 . S
N16 N17 1.398 . S
N17 C15 1.299 . S
N17 N16 1.398 . S
N18 C14 1.367 . S
N18 C15 1.379 . S
H19 C22 0.980 . S
H20 C22 0.981 . S
H21 C22 0.981 . S
C22 C14 1.481 . S
C22 H19 0.980 . S
C22 H20 0.981 . S
C22 H21 0.981 . S
C23 C10 1.481 . S
C23 H24 0.980 . S
C23 H25 0.981 . S
C23 H26 0.981 . S
H24 C23 0.980 . S
H25 C23 0.981 . S
H26 C23 0.981 . S
O27 Zn3 2.066 . S
O27 C6 1.256 . S
O28 Zn0 2.053 . S
O28 C6 1.244 1_554 S
C29 O7 1.259 . S
C29 O8 1.254 1_556 S
O30 Zn0 2.066 . S
O30 C2 1.256 . S
O31 C2 1.244 1_556 S
O31 Zn3 2.053 . S
Zn32 O33 2.055 . S
Zn32 O40 2.046 . S
Zn32 N48 2.036 . S
Zn32 O60 2.053 . S
Zn32 O62 2.066 . S
O33 Zn32 2.055 . S
O33 C36 1.259 . S
C34 O62 1.256 . S
C34 O63 1.244 . S
Zn35 O37 2.046 . S
Zn35 O39 2.055 . S
Zn35 N41 2.036 . S
Zn35 O59 2.066 . S
Zn35 O63 2.053 . S
C36 O33 1.259 . S
C36 O37 1.254 . S
O37 Zn35 2.046 . S
O37 C36 1.254 . S
C38 O59 1.256 . S
C38 O60 1.244 . S
O39 Zn35 2.055 . S
O39 C61 1.259 . S
O40 Zn32 2.046 . S
O40 C61 1.254 . S
N41 Zn35 2.036 . S
N41 C42 1.298 . S
N41 N44 1.398 . S
C42 N41 1.298 . S
C42 N45 1.367 . S
C42 C55 1.481 . S
C43 N44 1.299 . S
C43 N45 1.379 . S
N44 N41 1.398 . S
N44 C43 1.299 . S
N45 C42 1.367 . S
N45 C43 1.379 . S
C46 N48 1.298 . S
C46 N50 1.367 1_554 S
C46 C54 1.481 . S
C47 N49 1.299 . S
C47 N50 1.379 1_554 S
N48 Zn32 2.036 . S
N48 C46 1.298 . S
N48 N49 1.398 . S
N49 C47 1.299 . S
N49 N48 1.398 . S
N50 C46 1.367 1_556 S
N50 C47 1.379 1_556 S
H51 C54 0.980 . S
H52 C54 0.981 1_556 S
H53 C54 0.981 . S
C54 C46 1.481 . S
C54 H51 0.980 . S
C54 H52 0.981 1_554 S
C54 H53 0.981 . S
C55 C42 1.481 . S
C55 H56 0.980 . S
C55 H57 0.981 . S
C55 H58 0.981 . S
H56 C55 0.980 . S
H57 C55 0.981 . S
H58 C55 0.981 . S
O59 Zn35 2.066 . S
O59 C38 1.256 . S
O60 Zn32 2.053 . S
O60 C38 1.244 . S
C61 O39 1.259 . S
C61 O40 1.254 . S
O62 Zn32 2.066 . S
O62 C34 1.256 . S
O63 C34 1.244 . S
O63 Zn35 2.053 . S
Zn64 O65 2.055 . S
Zn64 O72 2.046 . S
Zn64 N80 2.036 . S
Zn64 O92 2.053 . S
Zn64 O94 2.066 . S
O65 Zn64 2.055 . S
O65 C68 1.259 . S
C66 O94 1.256 . S
C66 O95 1.244 . S
Zn67 O69 2.046 . S
Zn67 O71 2.055 . S
Zn67 N73 2.036 . S
Zn67 O91 2.066 . S
Zn67 O95 2.053 . S
C68 O65 1.259 . S
C68 O69 1.254 . S
O69 Zn67 2.046 . S
O69 C68 1.254 . S
C70 O91 1.256 . S
C70 O92 1.244 . S
O71 Zn67 2.055 . S
O71 C93 1.259 . S
O72 Zn64 2.046 . S
O72 C93 1.254 . S
N73 Zn67 2.036 . S
N73 C74 1.298 . S
N73 N76 1.398 . S
C74 N73 1.298 . S
C74 N77 1.367 . S
C74 C87 1.481 . S
C75 N76 1.299 . S
C75 N77 1.379 . S
N76 N73 1.398 . S
N76 C75 1.299 . S
N77 C74 1.367 . S
N77 C75 1.379 . S
C78 N80 1.298 . S
C78 N82 1.367 1_556 S
C78 C86 1.481 . S
C79 N81 1.299 . S
C79 N82 1.379 1_556 S
N80 Zn64 2.036 . S
N80 C78 1.298 . S
N80 N81 1.398 . S
N81 C79 1.299 . S
N81 N80 1.398 . S
N82 C78 1.367 1_554 S
N82 C79 1.379 1_554 S
H83 C86 0.980 . S
H84 C86 0.981 1_554 S
H85 C86 0.981 . S
C86 C78 1.481 . S
C86 H83 0.980 . S
C86 H84 0.981 1_556 S
C86 H85 0.981 . S
C87 C74 1.481 . S
C87 H88 0.980 . S
C87 H89 0.981 . S
C87 H90 0.981 . S
H88 C87 0.980 . S
H89 C87 0.981 . S
H90 C87 0.981 . S
O91 Zn67 2.066 . S
O91 C70 1.256 . S
O92 Zn64 2.053 . S
O92 C70 1.244 . S
C93 O71 1.259 . S
C93 O72 1.254 . S
O94 Zn64 2.066 . S
O94 C66 1.256 . S
O95 C66 1.244 . S
O95 Zn67 2.053 . S
Zn96 O97 2.055 . S
Zn96 O104 2.046 . S
Zn96 N112 2.036 . S
Zn96 O124 2.053 . S
Zn96 O126 2.066 . S
O97 Zn96 2.055 . S
O97 C100 1.259 . S
C98 O126 1.256 . S
C98 O127 1.244 1_556 S
Zn99 O101 2.046 . S
Zn99 O103 2.055 . S
Zn99 N105 2.036 . S
Zn99 O123 2.066 . S
Zn99 O127 2.053 . S
C100 O97 1.259 . S
C100 O101 1.254 1_556 S
O101 Zn99 2.046 . S
O101 C100 1.254 1_554 S
C102 O123 1.256 . S
C102 O124 1.244 1_554 S
O103 Zn99 2.055 . S
O103 C125 1.259 . S
O104 Zn96 2.046 . S
O104 C125 1.254 1_556 S
N105 Zn99 2.036 . S
N105 C106 1.298 . S
N105 N108 1.398 . S
C106 N105 1.298 . S
C106 N109 1.367 . S
C106 C119 1.481 . S
C107 N108 1.299 . S
C107 N109 1.379 . S
N108 N105 1.398 . S
N108 C107 1.299 . S
N109 C106 1.367 . S
N109 C107 1.379 . S
C110 N112 1.298 . S
C110 N114 1.367 . S
C110 C118 1.481 . S
C111 N113 1.299 . S
C111 N114 1.379 . S
N112 Zn96 2.036 . S
N112 C110 1.298 . S
N112 N113 1.398 . S
N113 C111 1.299 . S
N113 N112 1.398 . S
N114 C110 1.367 . S
N114 C111 1.379 . S
H115 C118 0.980 . S
H116 C118 0.981 . S
H117 C118 0.981 . S
C118 C110 1.481 . S
C118 H115 0.980 . S
C118 H116 0.981 . S
C118 H117 0.981 . S
C119 C106 1.481 . S
C119 H120 0.980 . S
C119 H121 0.981 . S
C119 H122 0.981 . S
H120 C119 0.980 . S
H121 C119 0.981 . S
H122 C119 0.981 . S
O123 Zn99 2.066 . S
O123 C102 1.256 . S
O124 Zn96 2.053 . S
O124 C102 1.244 1_556 S
C125 O103 1.259 . S
C125 O104 1.254 1_554 S
O126 Zn96 2.066 . S
O126 C98 1.256 . S
O127 C98 1.244 1_554 S
O127 Zn99 2.053 . S
Zn128 O129 2.055 . S
Zn128 O136 2.046 . S
Zn128 N144 2.036 . S
Zn128 O156 2.053 . S
Zn128 O158 2.066 . S
O129 Zn128 2.055 . S
O129 C132 1.259 . S
C130 O158 1.256 . S
C130 O159 1.244 . S
Zn131 O133 2.046 . S
Zn131 O135 2.055 . S
Zn131 N137 2.036 . S
Zn131 O155 2.066 . S
Zn131 O159 2.053 . S
C132 O129 1.259 . S
C132 O133 1.254 . S
O133 Zn131 2.046 . S
O133 C132 1.254 . S
C134 O155 1.256 . S
C134 O156 1.244 . S
O135 Zn131 2.055 . S
O135 C157 1.259 . S
O136 Zn128 2.046 . S
O136 C157 1.254 . S
N137 Zn131 2.036 . S
N137 C138 1.298 . S
N137 N140 1.398 . S
C138 N137 1.298 . S
C138 N141 1.367 1_554 S
C138 C151 1.481 . S
C139 N140 1.299 . S
C139 N141 1.379 1_554 S
N140 N137 1.398 . S
N140 C139 1.299 . S
N141 C138 1.367 1_556 S
N141 C139 1.379 1_556 S
C142 N144 1.298 . S
C142 N146 1.367 . S
C142 C150 1.481 . S
C143 N145 1.299 . S
C143 N146 1.379 . S
N144 Zn128 2.036 . S
N144 C142 1.298 . S
N144 N145 1.398 . S
N145 C143 1.299 . S
N145 N144 1.398 . S
N146 C142 1.367 . S
N146 C143 1.379 . S
H147 C150 0.980 . S
H148 C150 0.981 . S
H149 C150 0.981 . S
C150 C142 1.481 . S
C150 H147 0.980 . S
C150 H148 0.981 . S
C150 H149 0.981 . S
C151 C138 1.481 . S
C151 H152 0.980 . S
C151 H153 0.981 1_554 S
C151 H154 0.981 . S
H152 C151 0.980 . S
H153 C151 0.981 1_556 S
H154 C151 0.981 . S
O155 Zn131 2.066 . S
O155 C134 1.256 . S
O156 Zn128 2.053 . S
O156 C134 1.244 . S
C157 O135 1.259 . S
C157 O136 1.254 . S
O158 Zn128 2.066 . S
O158 C130 1.256 . S
O159 C130 1.244 . S
O159 Zn131 2.053 . S
Zn160 O161 2.055 . S
Zn160 O168 2.046 . S
Zn160 N176 2.036 . S
Zn160 O188 2.053 . S
Zn160 O190 2.066 . S
O161 Zn160 2.055 . S
O161 C164 1.259 . S
C162 O190 1.256 . S
C162 O191 1.244 . S
Zn163 O165 2.046 . S
Zn163 O167 2.055 . S
Zn163 N169 2.036 . S
Zn163 O187 2.066 . S
Zn163 O191 2.053 . S
C164 O161 1.259 . S
C164 O165 1.254 . S
O165 Zn163 2.046 . S
O165 C164 1.254 . S
C166 O187 1.256 . S
C166 O188 1.244 . S
O167 Zn163 2.055 . S
O167 C189 1.259 . S
O168 Zn160 2.046 . S
O168 C189 1.254 . S
N169 Zn163 2.036 . S
N169 C170 1.298 . S
N169 N172 1.398 . S
C170 N169 1.298 . S
C170 N173 1.367 1_556 S
C170 C183 1.481 . S
C171 N172 1.299 . S
C171 N173 1.379 1_556 S
N172 N169 1.398 . S
N172 C171 1.299 . S
N173 C170 1.367 1_554 S
N173 C171 1.379 1_554 S
C174 N176 1.298 . S
C174 N178 1.367 . S
C174 C182 1.481 . S
C175 N177 1.299 . S
C175 N178 1.379 . S
N176 Zn160 2.036 . S
N176 C174 1.298 . S
N176 N177 1.398 . S
N177 C175 1.299 . S
N177 N176 1.398 . S
N178 C174 1.367 . S
N178 C175 1.379 . S
H179 C182 0.980 . S
H180 C182 0.981 . S
H181 C182 0.981 . S
C182 C174 1.481 . S
C182 H179 0.980 . S
C182 H180 0.981 . S
C182 H181 0.981 . S
C183 C170 1.481 . S
C183 H184 0.980 . S
C183 H185 0.981 1_556 S
C183 H186 0.981 . S
H184 C183 0.980 . S
H185 C183 0.981 1_554 S
H186 C183 0.981 . S
O187 Zn163 2.066 . S
O187 C166 1.256 . S
O188 Zn160 2.053 . S
O188 C166 1.244 . S
C189 O167 1.259 . S
C189 O168 1.254 . S
O190 Zn160 2.066 . S
O190 C162 1.256 . S
O191 C162 1.244 . S
O191 Zn163 2.053 . S
C192 C193 1.369 . S
C192 C194 1.419 . S
C192 H196 0.930 . S
C193 C192 1.369 . S
C193 C202 1.429 . S
C194 C192 1.419 . S
C194 C195 1.363 . S
C194 H197 0.929 . S
C195 C194 1.363 . S
C195 C201 1.428 . S
H196 C192 0.930 . S
H197 C194 0.929 . S
S198 N199 1.613 . S
S198 N200 1.610 . S
N199 S198 1.613 . S
N199 C202 1.350 . S
N200 S198 1.610 . S
N200 C201 1.351 . S
C201 C195 1.428 . S
C201 N200 1.351 . S
C201 C202 1.434 . S
C202 C193 1.429 . S
C202 N199 1.350 . S
C202 C201 1.434 . S
C203 C204 1.369 . S
C203 C205 1.419 1_455 S
C203 H207 0.930 . S
C204 C203 1.369 . S
C204 C213 1.429 . S
C205 C203 1.419 1_655 S
C205 C206 1.363 . S
C205 H208 0.929 . S
C206 C205 1.363 . S
C206 C212 1.428 . S
H207 C203 0.930 . S
H208 C205 0.929 . S
S209 N210 1.613 1_655 S
S209 N211 1.610 . S
N210 S209 1.613 1_455 S
N210 C213 1.350 . S
N211 S209 1.610 . S
N211 C212 1.351 . S
C212 C206 1.428 . S
C212 N211 1.351 . S
C212 C213 1.434 1_655 S
C213 C204 1.429 . S
C213 N210 1.350 . S
C213 C212 1.434 1_455 S
C214 C215 1.369 . S
C214 C216 1.419 1_545 S
C214 H218 0.936 . S
C215 C214 1.369 . S
C215 C224 1.429 . S
C216 C214 1.419 1_565 S
C216 C217 1.363 . S
C216 H219 0.929 . S
C217 C216 1.363 . S
C217 C223 1.423 1_565 S
H218 C214 0.936 . S
H219 C216 0.929 . S
S220 N221 1.613 . S
S220 N222 1.610 . S
N221 S220 1.613 . S
N221 C224 1.350 . S
N222 S220 1.610 . S
N222 C223 1.353 . S
C223 C217 1.423 1_545 S
C223 N222 1.353 . S
C223 C224 1.438 . S
C224 C215 1.429 . S
C224 N221 1.350 . S
C224 C223 1.438 . S
C225 C226 1.369 . S
C225 C227 1.419 . S
C225 H229 0.930 . S
C226 C225 1.369 . S
C226 C235 1.429 . S
C227 C225 1.419 . S
C227 C228 1.363 . S
C227 H230 0.929 . S
C228 C227 1.363 . S
C228 C234 1.428 . S
H229 C225 0.930 . S
H230 C227 0.929 . S
S231 N232 1.613 . S
S231 N233 1.610 . S
N232 S231 1.613 . S
N232 C235 1.350 . S
N233 S231 1.610 . S
N233 C234 1.351 . S
C234 C228 1.428 . S
C234 N233 1.351 . S
C234 C235 1.434 . S
C235 C226 1.429 . S
C235 N232 1.350 . S
C235 C234 1.434 . S
C236 C237 1.369 . S
C236 C238 1.419 . S
C236 H240 0.930 . S
C237 C236 1.369 . S
C237 C246 1.429 1_455 S
C238 C236 1.419 . S
C238 C239 1.363 1_455 S
C238 H241 0.929 . S
C239 C238 1.363 1_655 S
C239 C245 1.428 . S
H240 C236 0.930 . S
H241 C238 0.929 . S
S242 N243 1.613 . S
S242 N244 1.610 . S
N243 S242 1.613 . S
N243 C246 1.350 . S
N244 S242 1.610 . S
N244 C245 1.351 . S
C245 C239 1.428 . S
C245 N244 1.351 . S
C245 C246 1.434 . S
C246 C237 1.429 1_655 S
C246 N243 1.350 . S
C246 C245 1.434 . S
C247 C248 1.369 . S
C247 C249 1.419 . S
C247 H251 0.930 . S
C248 C247 1.369 . S
C248 C257 1.429 1_545 S
C249 C247 1.419 . S
C249 C250 1.363 1_545 S
C249 H252 0.929 . S
C250 C249 1.363 1_565 S
C250 C256 1.428 . S
H251 C247 0.930 . S
H252 C249 0.929 . S
S253 N254 1.613 . S
S253 N255 1.610 . S
N254 S253 1.613 . S
N254 C257 1.350 . S
N255 S253 1.610 . S
N255 C256 1.351 . S
C256 C250 1.428 . S
C256 N255 1.351 . S
C256 C257 1.434 . S
C257 C248 1.429 1_565 S
C257 N254 1.350 . S
C257 C256 1.434 . S
C258 C259 1.369 . S
C258 C260 1.419 . S
C258 H262 0.930 . S
C259 C258 1.369 . S
C259 C268 1.429 . S
C260 C258 1.419 . S
C260 C261 1.363 . S
C260 H263 0.929 . S
C261 C260 1.363 . S
C261 C267 1.428 . S
H262 C258 0.930 . S
H263 C260 0.929 . S
S264 N265 1.613 . S
S264 N266 1.610 . S
N265 S264 1.613 . S
N265 C268 1.350 . S
N266 S264 1.610 . S
N266 C267 1.351 . S
C267 C261 1.428 . S
C267 N266 1.351 . S
C267 C268 1.434 . S
C268 C259 1.429 . S
C268 N265 1.350 . S
C268 C267 1.434 . S
C269 C270 1.369 . S
C269 C271 1.419 . S
C269 H273 0.930 . S
C270 C269 1.369 . S
C270 C279 1.429 . S
C271 C269 1.419 . S
C271 C272 1.363 . S
C271 H274 0.929 . S
C272 C271 1.363 . S
C272 C278 1.428 . S
H273 C269 0.930 . S
H274 C271 0.929 . S
S275 N276 1.613 . S
S275 N277 1.610 . S
N276 S275 1.613 . S
N276 C279 1.350 . S
N277 S275 1.610 . S
N277 C278 1.351 . S
C278 C272 1.428 . S
C278 N277 1.351 . S
C278 C279 1.434 . S
C279 C270 1.429 . S
C279 N276 1.350 . S
C279 C278 1.434 . S
C280 C281 1.369 . S
C280 C282 1.419 . S
C280 H284 0.930 . S
C281 C280 1.369 . S
C281 C290 1.429 . S
C282 C280 1.419 . S
C282 C283 1.363 . S
C282 H285 0.929 . S
C283 C282 1.363 . S
C283 C289 1.428 . S
H284 C280 0.930 . S
H285 C282 0.929 . S
S286 N287 1.613 . S
S286 N288 1.610 . S
N287 S286 1.613 . S
N287 C290 1.350 . S
N288 S286 1.610 . S
N288 C289 1.351 . S
C289 C283 1.428 . S
C289 N288 1.351 . S
C289 C290 1.434 . S
C290 C281 1.429 . S
C290 N287 1.350 . S
C290 C289 1.434 . S
C291 C292 1.369 . S
C291 C293 1.419 . S
C291 H295 0.930 . S
C292 C291 1.369 . S
C292 C301 1.429 . S
C293 C291 1.419 . S
C293 C294 1.363 . S
C293 H296 0.929 . S
C294 C293 1.363 . S
C294 C300 1.428 . S
H295 C291 0.930 . S
H296 C293 0.929 . S
S297 N298 1.613 . S
S297 N299 1.610 . S
N298 S297 1.613 . S
N298 C301 1.350 . S
N299 S297 1.610 . S
N299 C300 1.351 . S
C300 C294 1.428 . S
C300 N299 1.351 . S
C300 C301 1.434 . S
C301 C292 1.429 . S
C301 N298 1.350 . S
C301 C300 1.434 . S
C302 C303 1.369 . S
C302 C304 1.419 . S
C302 H306 0.930 . S
C303 C302 1.369 . S
C303 C312 1.429 . S
C304 C302 1.419 . S
C304 C305 1.363 . S
C304 H307 0.929 . S
C305 C304 1.363 . S
C305 C311 1.428 . S
H306 C302 0.930 . S
H307 C304 0.929 . S
S308 N309 1.613 . S
S308 N310 1.610 . S
N309 S308 1.613 . S
N309 C312 1.350 . S
N310 S308 1.610 . S
N310 C311 1.351 . S
C311 C305 1.428 . S
C311 N310 1.351 . S
C311 C312 1.434 . S
C312 C303 1.429 . S
C312 N309 1.350 . S
C312 C311 1.434 . S
C313 C314 1.369 . S
C313 C315 1.419 . S
C313 H317 0.930 . S
C314 C313 1.369 . S
C314 C323 1.429 . S
C315 C313 1.419 . S
C315 C316 1.363 . S
C315 H318 0.929 . S
C316 C315 1.363 . S
C316 C322 1.428 . S
H317 C313 0.930 . S
H318 C315 0.929 . S
S319 N320 1.613 . S
S319 N321 1.610 . S
N320 S319 1.613 . S
N320 C323 1.350 . S
N321 S319 1.610 . S
N321 C322 1.351 . S
C322 C316 1.428 . S
C322 N321 1.351 . S
C322 C323 1.434 . S
C323 C314 1.429 . S
C323 N320 1.350 . S
C323 C322 1.434 . S
C324 C325 1.369 . S
C324 C326 1.419 . S
C324 H328 0.930 . S
C325 C324 1.369 . S
C325 C334 1.429 . S
C326 C324 1.419 . S
C326 C327 1.363 . S
C326 H329 0.929 . S
C327 C326 1.363 . S
C327 C333 1.428 . S
H328 C324 0.930 . S
H329 C326 0.929 . S
S330 N331 1.613 . S
S330 N332 1.610 . S
N331 S330 1.613 . S
N331 C334 1.350 . S
N332 S330 1.610 . S
N332 C333 1.351 . S
C333 C327 1.428 . S
C333 N332 1.351 . S
C333 C334 1.434 . S
C334 C325 1.429 . S
C334 N331 1.350 . S
C334 C333 1.434 . S
C335 C336 1.369 . S
C335 C337 1.419 . S
C335 H339 0.930 . S
C336 C335 1.369 . S
C336 C345 1.429 . S
C337 C335 1.419 . S
C337 C338 1.363 . S
C337 H340 0.929 . S
C338 C337 1.363 . S
C338 C344 1.428 . S
H339 C335 0.930 . S
H340 C337 0.929 . S
S341 N342 1.613 . S
S341 N343 1.610 . S
N342 S341 1.613 . S
N342 C345 1.350 . S
N343 S341 1.610 . S
N343 C344 1.351 . S
C344 C338 1.428 . S
C344 N343 1.351 . S
C344 C345 1.434 . S
C345 C336 1.429 . S
C345 N342 1.350 . S
C345 C344 1.434 . S
C346 C347 1.369 . S
C346 C348 1.419 . S
C346 H350 0.930 . S
C347 C346 1.369 . S
C347 C356 1.429 . S
C348 C346 1.419 . S
C348 C349 1.363 . S
C348 H351 0.929 . S
C349 C348 1.363 . S
C349 C355 1.428 . S
H350 C346 0.930 . S
H351 C348 0.929 . S
S352 N353 1.613 . S
S352 N354 1.610 . S
N353 S352 1.613 . S
N353 C356 1.350 . S
N354 S352 1.610 . S
N354 C355 1.351 . S
C355 C349 1.428 . S
C355 N354 1.351 . S
C355 C356 1.434 . S
C356 C347 1.429 . S
C356 N353 1.350 . S
C356 C355 1.434 . S
C357 C358 1.369 . S
C357 C359 1.419 . S
C357 H361 0.930 . S
C358 C357 1.369 . S
C358 C367 1.429 . S
C359 C357 1.419 . S
C359 C360 1.363 . S
C359 H362 0.929 . S
C360 C359 1.363 . S
C360 C366 1.428 . S
H361 C357 0.930 . S
H362 C359 0.929 . S
S363 N364 1.613 . S
S363 N365 1.610 . S
N364 S363 1.613 . S
N364 C367 1.350 . S
N365 S363 1.610 . S
N365 C366 1.351 . S
C366 C360 1.428 . S
C366 N365 1.351 . S
C366 C367 1.434 . S
C367 C358 1.429 . S
C367 N364 1.350 . S
C367 C366 1.434 . S
C368 C369 1.369 . S
C368 C370 1.419 . S
C368 H372 0.930 . S
C369 C368 1.369 . S
C369 C378 1.429 . S
C370 C368 1.419 . S
C370 C371 1.363 . S
C370 H373 0.929 . S
C371 C370 1.363 . S
C371 C377 1.428 . S
H372 C368 0.930 . S
H373 C370 0.929 . S
S374 N375 1.613 . S
S374 N376 1.610 . S
N375 S374 1.613 . S
N375 C378 1.350 . S
N376 S374 1.610 . S
N376 C377 1.351 . S
C377 C371 1.428 . S
C377 N376 1.351 . S
C377 C378 1.434 . S
C378 C369 1.429 . S
C378 N375 1.350 . S
C378 C377 1.434 . S
C379 C380 1.369 . S
C379 C381 1.419 . S
C379 H383 0.930 . S
C380 C379 1.369 . S
C380 C389 1.429 . S
C381 C379 1.419 . S
C381 C382 1.363 . S
C381 H384 0.929 . S
C382 C381 1.363 . S
C382 C388 1.428 . S
H383 C379 0.930 . S
H384 C381 0.929 . S
S385 N386 1.613 . S
S385 N387 1.610 1_554 S
N386 S385 1.613 . S
N386 C389 1.350 1_554 S
N387 S385 1.610 1_556 S
N387 C388 1.351 . S
C388 C382 1.428 . S
C388 N387 1.351 . S
C388 C389 1.434 . S
C389 C380 1.429 . S
C389 N386 1.350 1_556 S
C389 C388 1.434 . S
C193 C166 1.508 . S
C195 C6 1.506 . S
C204 C2 1.510 . S
C206 C34 1.508 . S
C215 C38 1.504 . S
C217 C70 1.510 . S
C226 C66 1.507 . S
C228 C98 1.507 . S
C237 C134 1.511 . S
C239 C102 1.505 . S
C248 C162 1.509 . S
C250 C130 1.505 . S
C259 N13 1.607 . S
C261 N18 1.608 . S
C270 N50 1.603 . S
C272 N45 1.611 . S
C281 N77 1.603 . S
C283 N82 1.611 . S
C292 N114 1.612 . S
C294 N109 1.604 . S
C303 N146 1.611 . S
C305 N141 1.604 . S
C314 N178 1.611 . S
C316 N173 1.604 . S
C325 C4 1.627 . S
C327 C157 1.625 . S
C336 C61 1.620 . S
C338 C164 1.624 . S
C347 C29 1.621 . S
C349 C68 1.620 . S
C358 C36 1.627 . S
C360 C125 1.624 . S
C369 C132 1.619 . S
C371 C93 1.623 . S
C380 C100 1.623 . S
C382 C189 1.620 . S
