# Generated by pormake.
# Topology wnr, (7)-cn, num edge types: 1
# Building blocks:
#     Node 0, Type 0, BuildingBlock: NUHQUE_clean_sbu_2, # of connection points: 7
#     Node 1, Type 0, BuildingBlock: NUHQUE_clean_sbu_2, # of connection points: 7
#     Node 2, Type 0, BuildingBlock: NUHQUE_clean_sbu_2, # of connection points: 7
#     Node 3, Type 0, BuildingBlock: NUHQUE_clean_sbu_2, # of connection points: 7
#     Node 4, Type 0, BuildingBlock: NUHQUE_clean_sbu_2, # of connection points: 7
#     Node 5, Type 0, BuildingBlock: NUHQUE_clean_sbu_2, # of connection points: 7
#     Edge 6, Type (0, 0), BuildingBlock: OJICUG_clean_linker_0, # of connection points: 2
#     Edge 7, Type (0, 0), BuildingBlock: OJICUG_clean_linker_0, # of connection points: 2
#     Edge 8, Type (0, 0), BuildingBlock: OJICUG_clean_linker_0, # of connection points: 2
#     Edge 9, Type (0, 0), BuildingBlock: OJICUG_clean_linker_0, # of connection points: 2
#     Edge 10, Type (0, 0), BuildingBlock: OJICUG_clean_linker_0, # of connection points: 2
#     Edge 11, Type (0, 0), BuildingBlock: OJICUG_clean_linker_0, # of connection points: 2
#     Edge 12, Type (0, 0), BuildingBlock: OJICUG_clean_linker_0, # of connection points: 2
#     Edge 13, Type (0, 0), BuildingBlock: OJICUG_clean_linker_0, # of connection points: 2
#     Edge 14, Type (0, 0), BuildingBlock: OJICUG_clean_linker_0, # of connection points: 2
#     Edge 15, Type (0, 0), BuildingBlock: OJICUG_clean_linker_0, # of connection points: 2
#     Edge 16, Type (0, 0), BuildingBlock: OJICUG_clean_linker_0, # of connection points: 2
#     Edge 17, Type (0, 0), BuildingBlock: OJICUG_clean_linker_0, # of connection points: 2
#     Edge 18, Type (0, 0), BuildingBlock: OJICUG_clean_linker_0, # of connection points: 2
#     Edge 19, Type (0, 0), BuildingBlock: OJICUG_clean_linker_0, # of connection points: 2
#     Edge 20, Type (0, 0), BuildingBlock: OJICUG_clean_linker_0, # of connection points: 2
#     Edge 21, Type (0, 0), BuildingBlock: OJICUG_clean_linker_0, # of connection points: 2
#     Edge 22, Type (0, 0), BuildingBlock: OJICUG_clean_linker_0, # of connection points: 2
#     Edge 23, Type (0, 0), BuildingBlock: OJICUG_clean_linker_0, # of connection points: 2
#     Edge 24, Type (0, 0), BuildingBlock: OJICUG_clean_linker_0, # of connection points: 2
#     Edge 25, Type (0, 0), BuildingBlock: OJICUG_clean_linker_0, # of connection points: 2
#     Edge 26, Type (0, 0), BuildingBlock: OJICUG_clean_linker_0, # of connection points: 2
# Relax obj value: 0.194
# Max RMSD: 0.215
# Mean RMSD: 0.215
data_MOF--net-wnr--node1-NUHQUE_clean_sbu_2--edge1-OJICUG_clean_linker_0
_symmetry_space_group_name_H-M    P1
_symmetry_Int_Tables_number       1
_symmetry_cell_setting            triclinic
loop_
_symmetry_equiv_pos_as_xyz
'x, y, z'
_cell_length_a     35.198982
_cell_length_b     35.088674
_cell_length_c     14.33797
_cell_angle_alpha  89.998209
_cell_angle_beta   90.013451
_cell_angle_gamma 119.98544
loop_
_atom_site_label
_atom_site_type_symbol
_atom_site_fract_x
_atom_site_fract_y
_atom_site_fract_z
_atom_type_partial_charge
O0 O 0.28211 0.47524 0.81844 0.0
Tb1 Tb 0.31954 0.5043 0.94541 0.0
Eu2 Eu 0.28074 0.44603 0.15432 0.0
C3 C 0.29926 0.46126 0.75474 0.0
O4 O 0.33681 0.4633 0.77286 0.0
C5 C 0.35304 0.44044 0.03093 0.0
O6 O 0.2779 0.43434 0.30907 0.0
C7 C 0.2074 0.3899 0.07513 0.0
C8 C 0.25326 0.44225 0.36574 0.0
O9 O 0.22738 0.4557 0.33129 0.0
C10 C 0.2765 0.53104 0.10797 0.0
C11 C 0.16035 0.377 0.07443 0.0
C12 C 0.13799 0.36827 0.98862 0.0
C13 C 0.09234 0.35098 0.98674 0.0
C14 C 0.06932 0.34321 0.07023 0.0
C15 C 0.09082 0.35192 0.15588 0.0
C16 C 0.13652 0.36943 0.15824 0.0
O17 O 0.34111 0.4552 0.95825 0.0
O18 O 0.34025 0.44206 0.11597 0.0
O19 O 0.35513 0.55467 0.83981 0.0
O20 O 0.3813 0.56539 0.9767 0.0
C21 C 0.38699 0.58203 0.89296 0.0
O22 O 0.28862 0.51271 0.17203 0.0
O23 O 0.27404 0.5198 0.01927 0.0
O24 O 0.22245 0.38151 0.15174 0.0
O25 O 0.23543 0.42764 0.03621 0.0
H26 H 0.15573 0.37333 0.92376 0.0
H27 H 1.03412 0.33017 0.06851 0.0
H28 H 0.15302 0.37548 0.22498 0.0
O29 O 0.57237 0.82605 0.48838 0.0
Tb30 Tb 0.53835 0.8271 0.61549 0.0
Eu31 Eu 0.61075 0.83855 0.81706 0.0
C32 C 0.58348 0.85682 0.42418 0.0
O33 O 0.57864 0.89079 0.44316 0.0
C34 C 0.61393 0.92013 0.69804 0.0
O35 O 0.61617 0.85517 0.97155 0.0
C36 C 0.65913 0.80517 0.76862 0.0
C37 C 0.60778 0.8252 0.03623 0.0
O38 O 0.59814 0.78546 0.01007 0.0
C39 C 0.51811 0.7572 0.77228 0.0
C40 C 0.66883 0.76869 0.77354 0.0
C41 C 0.67779 0.75366 0.69004 0.0
C42 C 0.69415 0.72436 0.69146 0.0
C43 C 0.7007 0.70964 0.77725 0.0
C44 C 0.69168 0.72374 0.86139 0.0
C45 C 0.6755 0.75328 0.85931 0.0
O46 O 0.57408 0.89605 0.66274 0.0
O47 O 0.6347 0.90373 0.74498 0.0
O48 O 0.49008 0.8172 0.50758 0.0
O49 O 0.47188 0.81399 0.64922 0.0
C50 C 0.45846 0.81095 0.56345 0.0
O51 O 0.53996 0.78724 0.83564 0.0
O52 O 0.52689 0.76605 0.68286 0.0
O53 O 0.66668 0.82989 0.84303 0.0
O54 O 0.62528 0.79973 0.719 0.0
H55 H 0.67358 0.76612 0.62397 0.0
H56 H 0.71593 0.68937 0.77868 0.0
H57 H 0.66948 0.76525 0.92411 0.0
O58 O 0.22104 0.76209 0.15749 0.0
Tb59 Tb 0.21507 0.72429 0.28272 0.0
Eu60 Eu 0.1976 0.76947 0.49066 0.0
C61 C 0.18971 0.74466 0.09435 0.0
O62 O 0.15429 0.70706 0.11331 0.0
C63 C 0.11722 0.6924 0.3701 0.0
O64 O 0.1872 0.76838 0.64593 0.0
C65 C 0.2214 0.84677 0.42225 0.0
C66 C 0.21921 0.79179 0.70484 0.0
O67 O 0.2588 0.81834 0.67259 0.0
C68 C 0.2835 0.76728 0.44521 0.0
C69 C 0.25756 0.89318 0.42432 0.0
C70 C 0.2727 0.91637 0.33988 0.0
C71 C 0.30293 0.96188 0.33981 0.0
C72 C 0.31793 0.98384 0.42489 0.0
C73 C 0.30369 0.96153 0.50977 0.0
C74 C 0.27365 0.91595 0.50925 0.0
O75 O 0.14365 0.69385 0.30277 0.0
O76 O 0.13095 0.71581 0.44711 0.0
O77 O 0.23021 0.68981 0.17494 0.0
O78 O 0.22056 0.66586 0.31376 0.0
C79 C 0.22958 0.65976 0.22875 0.0
O80 O 0.253 0.75607 0.50874 0.0
O81 O 0.27519 0.77102 0.357 0.0
O82 O 0.19805 0.8313 0.49878 0.0
O83 O 0.22809 0.8177 0.37816 0.0
H84 H 0.26002 0.89917 0.27441 0.0
H85 H 0.33881 1.01931 0.4251 0.0
H86 H 0.26197 0.89857 0.5748 0.0
O87 O 0.47533 0.26843 0.18967 0.0
Tb88 Tb 0.50672 0.30629 0.06436 0.0
Eu89 Eu 0.44472 0.26227 0.85591 0.0
C90 C 0.4614 0.28584 0.25291 0.0
O91 O 0.46358 0.32352 0.2342 0.0
C92 C 0.44158 0.33917 0.97683 0.0
O93 O 0.43517 0.26262 0.70065 0.0
C94 C 0.39016 0.18582 0.92607 0.0
C95 C 0.44356 0.23883 0.64225 0.0
O96 O 0.45654 0.21223 0.67499 0.0
C97 C 0.53223 0.26315 0.90175 0.0
C98 C 0.37827 0.13888 0.92451 0.0
C99 C 0.3695 0.11574 0.00939 0.0
C100 C 0.35197 0.0699 0.00947 0.0
C101 C 0.3441 0.04745 0.92513 0.0
C102 C 0.35268 0.06968 0.84033 0.0
C103 C 0.37041 0.11558 0.8397 0.0
O104 O 0.46473 0.33584 0.04585 0.0
O105 O 0.43365 0.31745 0.89784 0.0
O106 O 0.55635 0.34076 0.17195 0.0
O107 O 0.57018 0.36511 0.0334 0.0
C108 C 0.58546 0.37107 0.11828 0.0
O109 O 0.51299 0.27438 0.83802 0.0
O110 O 0.52027 0.25956 0.99 0.0
O111 O 0.38243 0.20159 0.84975 0.0
O112 O 0.42656 0.21417 0.96895 0.0
H113 H 0.3744 0.13298 0.07498 0.0
H114 H 0.33072 1.01207 0.92551 0.0
H115 H 0.37614 0.13258 0.7736 0.0
O116 O 0.7626 0.20447 0.85829 0.0
Tb117 Tb 0.72759 0.20368 0.73127 0.0
Eu118 Eu 0.788 0.19185 0.52971 0.0
C119 C 0.74289 0.17374 0.92251 0.0
O120 O 0.70408 0.13994 0.90354 0.0
C121 C 0.70956 0.11038 0.64826 0.0
O122 O 0.77694 0.17528 0.3752 0.0
C123 C 0.86956 0.22488 0.57861 0.0
C124 C 0.79858 0.20521 0.31054 0.0
O125 O 0.82866 0.24489 0.33673 0.0
C126 C 0.77706 0.27357 0.57444 0.0
C127 C 0.91557 0.26144 0.57383 0.0
C128 C 0.93947 0.27654 0.65741 0.0
C129 C 0.98499 0.30597 0.65611 0.0
C130 C 1.00623 0.32074 0.57037 0.0
C131 C 0.98321 0.30657 0.48617 0.0
C132 C 0.93763 0.27692 0.48812 0.0
O133 O 0.69415 0.13471 0.68422 0.0
O134 O 0.74658 0.12654 0.60105 0.0
O135 O 0.68949 0.21389 0.83936 0.0
O136 O 0.67414 0.21674 0.69777 0.0
C137 C 0.66395 0.21997 0.78357 0.0
O138 O 0.76877 0.24348 0.51108 0.0
O139 O 0.777 0.26469 0.66386 0.0
O140 O 0.8525 0.20032 0.50397 0.0
O141 O 0.84109 0.23021 0.62834 0.0
H142 H 0.92281 0.26404 0.72343 0.0
H143 H 0.04165 0.34111 0.56903 0.0
H144 H 0.91971 0.26491 0.42327 0.0
O145 O 0.82206 0.5554 0.52871 0.0
Tb146 Tb 0.83066 0.52654 0.40161 0.0
Eu147 Eu 0.85004 0.58426 0.19269 0.0
C148 C 0.85317 0.56945 0.59237 0.0
O149 O 0.88873 0.56751 0.5742 0.0
C150 C 0.92772 0.59018 0.31644 0.0
O151 O 0.85882 0.59607 0.03799 0.0
C152 C 0.83307 0.6406 0.27231 0.0
C153 C 0.82629 0.58831 0.98145 0.0
O154 O 0.78705 0.57495 0.016 0.0
C155 C 0.76077 0.49959 0.23909 0.0
C156 C 0.79899 0.65365 0.27312 0.0
C157 C 0.7854 0.66242 0.35896 0.0
C158 C 0.757 0.67973 0.36092 0.0
C159 C 0.74169 0.68751 0.27746 0.0
C160 C 0.75443 0.67876 0.19177 0.0
C161 C 0.78266 0.66123 0.18935 0.0
O162 O 0.90104 0.57618 0.38904 0.0
O163 O 0.91327 0.58768 0.23114 0.0
O164 O 0.81625 0.4762 0.50715 0.0
O165 O 0.83192 0.46563 0.37032 0.0
C166 C 0.82102 0.44894 0.45402 0.0
O167 O 0.79117 0.51779 0.17501 0.0
O168 O 0.76959 0.5108 0.32783 0.0
O169 O 0.85645 0.64896 0.19569 0.0
O170 O 0.82333 0.60278 0.31105 0.0
H171 H 0.79811 0.65732 0.42379 0.0
H172 H 0.71948 0.70055 0.27923 0.0
H173 H 0.79305 0.65512 0.12258 0.0
C174 C 0.07576 0.37111 0.83106 0.0
C175 C 0.06715 0.33915 0.89903 0.0
H176 H 0.05515 0.38626 0.70283 0.0
C177 C 1.03094 0.29662 0.88815 0.0
H178 H 0.10299 0.40432 0.83921 0.0
C179 C 1.00366 0.28613 0.81051 0.0
C180 C 1.01183 0.3181 0.74246 0.0
H181 H 1.02366 0.27152 0.94026 0.0
H182 H 0.97669 0.25275 0.80304 0.0
C183 C 0.04815 0.36077 0.75372 0.0
C184 C 0.74962 0.73397 0.4596 0.0
C185 C 0.74357 0.69149 0.44868 0.0
H186 H 0.73888 0.77769 0.54469 0.0
C187 C 0.7204 0.65949 0.51661 0.0
H188 H 0.76731 0.75911 0.40753 0.0
C189 C 0.70301 0.66973 0.59392 0.0
C190 C 0.70906 0.71234 0.60519 0.0
H191 H 0.71464 0.62632 0.50843 0.0
H192 H 0.68464 0.6442 0.64476 0.0
C193 C 0.7327 0.74436 0.5372 0.0
C194 C 0.35927 1.02376 0.24201 0.0
C195 C 0.31617 0.9882 0.25265 0.0
H196 H 0.40407 0.07841 0.15747 0.0
C197 C 0.28495 0.9807 0.18355 0.0
H198 H 0.38423 0.03013 0.29363 0.0
C199 C 0.29649 1.0082 0.10591 0.0
C200 C 0.33934 0.04391 0.09617 0.0
H201 H 0.25134 0.95427 0.19044 0.0
H202 H 0.27189 1.00163 0.05319 0.0
C203 C 0.37064 0.0516 0.16478 0.0
C204 C 0.25648 0.58911 0.07286 0.0
C205 C 0.26267 0.56282 0.13812 0.0
H206 H 0.24139 0.64055 0.05066 0.0
C207 C 0.25652 0.56788 0.2335 0.0
H208 H 0.26104 0.58618 0.99904 0.0
C209 C 0.2449 0.59872 0.26291 0.0
C210 C 0.23961 0.62552 0.19778 0.0
H211 H 0.26086 0.54813 0.28585 0.0
H212 H 0.24077 0.60208 0.33677 0.0
C213 C 0.24529 0.62029 0.10246 0.0
C214 C 0.45084 0.65724 0.92709 0.0
C215 C 0.42204 0.62614 0.86254 0.0
H216 H 0.50351 0.72304 0.94956 0.0
C217 C 0.42564 0.63808 0.76793 0.0
H218 H 0.44873 0.64902 1.00044 0.0
C219 C 0.4571 0.68033 0.73844 0.0
C220 C 0.4855 0.71185 0.80304 0.0
H221 H 0.40384 0.61479 0.71649 0.0
H222 H 0.45869 0.68846 0.66514 0.0
C223 C 0.48209 0.69971 0.89777 0.0
C224 C 0.38112 0.79155 0.59942 0.0
C225 C 0.41406 0.80076 0.53347 0.0
H226 H 0.31426 0.77375 0.62359 0.0
C227 C 0.40404 0.79945 0.43816 0.0
H228 H 0.38789 0.79227 0.67331 0.0
C229 C 0.36183 0.78895 0.40934 0.0
C230 C 0.32864 0.77934 0.47524 0.0
H231 H 0.42881 0.80639 0.38569 0.0
H232 H 0.35517 0.78801 0.33537 0.0
C233 C 0.33889 0.78087 0.5707 0.0
C234 C 0.5892 0.2418 0.93779 0.0
C235 C 0.56536 0.2511 0.87185 0.0
H236 H 0.63909 0.22477 0.96143 0.0
C237 C 0.57394 0.2494 0.77638 0.0
H238 H 0.58358 0.24289 0.01176 0.0
C239 C 0.60563 0.23888 0.74767 0.0
C240 C 0.62964 0.23002 0.81364 0.0
H241 H 0.55622 0.25628 0.72345 0.0
H242 H 0.61156 0.23803 0.67377 0.0
C243 C 0.62105 0.23146 0.90896 0.0
C244 C 0.79861 0.33116 0.44903 0.0
C245 C 0.78985 0.31898 0.54373 0.0
H246 H 0.81591 0.38192 0.34643 0.0
C247 C 0.793 0.35054 0.60838 0.0
H248 H 0.79669 0.30781 0.39721 0.0
C249 C 0.80379 0.39285 0.57896 0.0
C250 C 0.81211 0.40481 0.48436 0.0
H251 H 0.78646 0.34239 0.68167 0.0
H252 H 0.80526 0.41615 0.63043 0.0
C253 C 0.80982 0.37369 0.41977 0.0
C254 C 0.64058 0.41042 0.24454 0.0
C255 C 0.62961 0.40534 0.14925 0.0
H256 H 0.6904 0.44435 0.34796 0.0
C257 C 0.66155 0.43225 0.08418 0.0
H258 H 0.61653 0.39008 0.29631 0.0
C259 C 0.70395 0.46304 0.1136 0.0
C260 C 0.71522 0.46793 0.20896 0.0
H261 H 0.65403 0.42901 0.01034 0.0
H262 H 0.72794 0.48285 0.06128 0.0
C263 C 0.68287 0.44156 0.27417 0.0
C264 C 0.99996 0.28769 0.32878 0.0
C265 C 1.00864 0.31934 0.39789 0.0
H266 H 1.02002 0.27318 0.19904 0.0
C267 C 0.04504 0.362 0.38689 0.0
H268 H 0.97286 0.25436 0.33592 0.0
C269 C 0.07277 0.37237 0.30981 0.0
C270 C 0.06411 0.34054 0.24154 0.0
H271 H 0.05237 0.38728 0.43855 0.0
H272 H 0.10043 0.4054 0.30265 0.0
C273 C 1.02734 0.29825 0.25128 0.0
C274 C 0.71593 0.65817 0.0379 0.0
C275 C 0.73895 0.69005 0.10613 0.0
H276 H 0.68066 0.64314 0.90915 0.0
C277 C 0.74417 0.73228 0.09635 0.0
H278 H 0.71079 0.62518 0.04509 0.0
C279 C 0.72723 0.74275 0.01881 0.0
C280 C 0.70444 0.71106 0.94973 0.0
H281 H 0.76179 0.75738 0.14855 0.0
H282 H 0.73324 0.77604 0.01162 0.0
C283 C 0.69846 0.66845 0.96079 0.0
C284 C 0.37146 0.0514 0.68477 0.0
C285 C 0.34027 0.04336 0.75392 0.0
H286 H 0.38496 0.03027 0.55533 0.0
C287 C 0.29762 1.00721 0.74465 0.0
H288 H 0.40473 0.07858 0.69155 0.0
C289 C 0.28615 0.97968 0.66707 0.0
C290 C 0.3172 0.98759 0.59734 0.0
H291 H 0.27305 1.00038 0.79758 0.0
H292 H 0.25264 0.95298 0.66058 0.0
C293 C 0.36013 1.02353 0.60751 0.0
C294 C 0.39711 0.40699 0.09195 0.0
C295 C 0.37857 0.41742 0.01592 0.0
H296 H 0.43174 0.37485 0.13958 0.0
C297 C 0.38292 0.40366 0.92637 0.0
H298 H 0.39465 0.41713 0.16197 0.0
C299 C 0.40391 0.37897 0.91365 0.0
C300 C 0.42165 0.36774 0.98995 0.0
H301 H 0.36908 0.41093 0.86612 0.0
H302 H 0.40582 0.36831 0.84379 0.0
C303 C 0.41856 0.38275 0.07909 0.0
C304 C 0.61492 0.99243 0.67845 0.0
C305 C 0.63745 0.96878 0.6846 0.0
H306 H 0.61996 0.05592 0.66458 0.0
C307 C 0.68349 0.99218 0.67877 0.0
H308 H 0.57947 0.97541 0.68303 0.0
C309 C 0.70645 0.03784 0.66618 0.0
C310 C 0.68419 0.06172 0.66135 0.0
H311 H 0.70192 0.97508 0.68275 0.0
H312 H 0.74189 0.05458 0.66151 0.0
C313 C 0.63811 0.03853 0.66838 0.0
C314 C 1.00515 0.62281 0.25603 0.0
C315 C 0.97622 0.61353 0.33159 0.0
H316 H 0.07181 0.65423 0.20864 0.0
C317 C 0.99426 0.62875 0.42063 0.0
H318 H 0.99257 0.61154 0.18642 0.0
C319 C 0.03987 0.65371 0.4332 0.0
C320 C 0.0688 0.66372 0.35731 0.0
H321 H 0.97317 0.6224 0.48049 0.0
H322 H 0.0524 0.66549 0.50259 0.0
C323 C 0.05076 0.64729 0.2688 0.0
C324 C 0.28696 0.42647 0.5027 0.0
C325 C 0.25903 0.44094 0.46785 0.0
H326 H 0.32089 0.42094 0.62066 0.0
C327 C 0.23991 0.45725 0.53085 0.0
H328 H 0.30184 0.4132 0.45652 0.0
C329 C 0.25083 0.46159 0.62588 0.0
C330 C 0.2811 0.44978 0.65918 0.0
H331 H 0.21804 0.46844 0.50626 0.0
H332 H 0.23729 0.47617 0.67214 0.0
C333 C 0.29788 0.43088 0.59708 0.0
C334 C 0.59122 0.81032 0.29949 0.0
C335 C 0.59476 0.85042 0.32723 0.0
H336 H 0.59254 0.77093 0.18658 0.0
C337 C 0.60562 0.88324 0.25914 0.0
H338 H 0.58286 0.78426 0.34973 0.0
C339 C 0.61118 0.87562 0.1654 0.0
C340 C 0.60591 0.8349 0.137 0.0
H341 H 0.60873 0.91459 0.27773 0.0
H342 H 0.61846 0.9013 0.11483 0.0
C343 C 0.59665 0.80264 0.20561 0.0
C344 C 0.16887 0.75496 0.83958 0.0
C345 C 0.21115 0.78467 0.80663 0.0
H346 H 0.12895 0.71966 0.95612 0.0
C347 C 0.2457 0.80499 0.87136 0.0
H348 H 0.14138 0.73899 0.79201 0.0
C349 C 0.23847 0.79395 0.96628 0.0
C350 C 0.19659 0.7623 0.99804 0.0
H351 H 0.27864 0.82823 0.84836 0.0
H352 H 0.26604 0.80873 0.01386 0.0
C353 C 0.16171 0.7439 0.93398 0.0
C354 C 0.45711 0.22551 0.47599 0.0
C355 C 0.44255 0.24571 0.5404 0.0
H356 H 0.4741 0.22192 0.3337 0.0
C357 C 0.42967 0.27521 0.50711 0.0
H358 H 0.46705 0.20243 0.49928 0.0
C359 C 0.43364 0.28626 0.41274 0.0
C360 C 0.45052 0.26806 0.34903 0.0
H361 H 0.41786 0.29106 0.55442 0.0
H362 H 0.42488 0.31036 0.39035 0.0
C363 C 0.46101 0.23655 0.38105 0.0
C364 C 0.75161 0.15491 0.18137 0.0
C365 C 0.78708 0.19553 0.20976 0.0
H366 H 0.71022 0.11606 0.06903 0.0
C367 C 0.81015 0.2277 0.14112 0.0
H368 H 0.73314 0.12929 0.23196 0.0
C369 C 0.79709 0.22004 0.04722 0.0
C370 C 0.76052 0.18006 0.01948 0.0
H371 H 0.83777 0.25933 0.16015 0.0
H372 H 0.81485 0.24605 0.99694 0.0
C373 C 0.73848 0.14732 0.08761 0.0
C374 C 0.88212 0.5999 0.74995 0.0
C375 C 0.84647 0.58091 0.68794 0.0
H376 H 0.90378 0.61762 0.89046 0.0
C377 C 0.80442 0.56899 0.72135 0.0
H378 H 0.91504 0.60994 0.72627 0.0
C379 C 0.79787 0.5733 0.81642 0.0
C380 C 0.8333 0.58969 0.87931 0.0
H381 H 0.77631 0.55433 0.67517 0.0
H382 H 0.76486 0.56202 0.8411 0.0
C383 C 0.87565 0.60428 0.84435 0.0
loop_
_geom_bond_atom_site_label_1
_geom_bond_atom_site_label_2
_geom_bond_distance
_geom_bond_site_symmetry_2
_ccdc_geom_bond_type
O0 Tb1 2.292 . S
O0 C3 1.255 . S
Tb1 O0 2.292 . S
Tb1 O17 2.326 . S
Tb1 O19 2.500 . S
Tb1 O20 2.473 1_556 S
Tb1 O23 2.324 1_556 S
Eu2 O6 2.292 . S
Eu2 C7 2.852 . S
Eu2 O18 2.324 . S
Eu2 O22 2.326 . S
Eu2 O24 2.500 . S
Eu2 O25 2.473 . S
C3 O0 1.255 . S
C3 O4 1.247 . S
O4 C3 1.247 . S
C5 O17 1.242 1_554 S
C5 O18 1.258 . S
O6 Eu2 2.292 . S
O6 C8 1.255 . S
C7 Eu2 2.852 . S
C7 C11 1.503 . S
C7 O24 1.273 . S
C7 O25 1.257 . S
C8 O6 1.255 . S
C8 O9 1.247 . S
O9 C8 1.247 . S
C10 O22 1.242 . S
C10 O23 1.258 . S
C11 C7 1.503 . S
C11 C12 1.379 . S
C11 C16 1.392 . S
C12 C11 1.379 . S
C12 C13 1.404 . S
C12 H26 0.929 . S
C13 C12 1.404 . S
C13 C14 1.389 . S
C14 C13 1.389 . S
C14 C15 1.399 . S
C14 H27 0.931 . S
C15 C14 1.399 . S
C15 C16 1.390 . S
C16 C11 1.392 . S
C16 C15 1.390 . S
C16 H28 0.929 . S
O17 Tb1 2.326 . S
O17 C5 1.242 1_556 S
O18 Eu2 2.324 . S
O18 C5 1.258 . S
O19 Tb1 2.500 . S
O19 C21 1.273 . S
O20 Tb1 2.473 1_554 S
O20 C21 1.257 1_554 S
C21 O19 1.273 . S
C21 O20 1.257 1_556 S
O22 Eu2 2.326 . S
O22 C10 1.242 . S
O23 Tb1 2.324 1_554 S
O23 C10 1.258 . S
O24 Eu2 2.500 . S
O24 C7 1.273 . S
O25 Eu2 2.473 . S
O25 C7 1.257 . S
H26 C12 0.929 . S
H27 C14 0.931 . S
H28 C16 0.929 . S
O29 Tb30 2.292 . S
O29 C32 1.255 . S
Tb30 O29 2.292 . S
Tb30 O46 2.326 . S
Tb30 O48 2.500 . S
Tb30 O49 2.473 . S
Tb30 O52 2.324 . S
Eu31 O35 2.292 1_556 S
Eu31 C36 2.852 . S
Eu31 O47 2.324 . S
Eu31 O51 2.326 . S
Eu31 O53 2.500 . S
Eu31 O54 2.473 . S
C32 O29 1.255 . S
C32 O33 1.247 . S
O33 C32 1.247 . S
C34 O46 1.242 . S
C34 O47 1.258 . S
O35 Eu31 2.292 1_554 S
O35 C37 1.255 . S
C36 Eu31 2.852 . S
C36 C40 1.503 . S
C36 O53 1.273 . S
C36 O54 1.257 . S
C37 O35 1.255 . S
C37 O38 1.247 . S
O38 C37 1.247 . S
C39 O51 1.242 . S
C39 O52 1.258 . S
C40 C36 1.503 . S
C40 C41 1.379 . S
C40 C45 1.392 . S
C41 C40 1.379 . S
C41 C42 1.404 . S
C41 H55 0.929 . S
C42 C41 1.404 . S
C42 C43 1.389 . S
C43 C42 1.389 . S
C43 C44 1.399 . S
C43 H56 0.931 . S
C44 C43 1.399 . S
C44 C45 1.390 . S
C45 C40 1.392 . S
C45 C44 1.390 . S
C45 H57 0.929 . S
O46 Tb30 2.326 . S
O46 C34 1.242 . S
O47 Eu31 2.324 . S
O47 C34 1.258 . S
O48 Tb30 2.500 . S
O48 C50 1.273 . S
O49 Tb30 2.473 . S
O49 C50 1.257 . S
C50 O48 1.273 . S
C50 O49 1.257 . S
O51 Eu31 2.326 . S
O51 C39 1.242 . S
O52 Tb30 2.324 . S
O52 C39 1.258 . S
O53 Eu31 2.500 . S
O53 C36 1.273 . S
O54 Eu31 2.473 . S
O54 C36 1.257 . S
H55 C41 0.929 . S
H56 C43 0.931 . S
H57 C45 0.929 . S
O58 Tb59 2.292 . S
O58 C61 1.255 . S
Tb59 O58 2.292 . S
Tb59 O75 2.326 . S
Tb59 O77 2.500 . S
Tb59 O78 2.473 . S
Tb59 O81 2.324 . S
Eu60 O64 2.292 . S
Eu60 C65 2.852 . S
Eu60 O76 2.324 . S
Eu60 O80 2.326 . S
Eu60 O82 2.500 . S
Eu60 O83 2.473 . S
C61 O58 1.255 . S
C61 O62 1.247 . S
O62 C61 1.247 . S
C63 O75 1.242 . S
C63 O76 1.258 . S
O64 Eu60 2.292 . S
O64 C66 1.255 . S
C65 Eu60 2.852 . S
C65 C69 1.503 . S
C65 O82 1.273 . S
C65 O83 1.257 . S
C66 O64 1.255 . S
C66 O67 1.247 . S
O67 C66 1.247 . S
C68 O80 1.242 . S
C68 O81 1.258 . S
C69 C65 1.503 . S
C69 C70 1.379 . S
C69 C74 1.392 . S
C70 C69 1.379 . S
C70 C71 1.404 . S
C70 H84 0.929 . S
C71 C70 1.404 . S
C71 C72 1.389 . S
C72 C71 1.389 . S
C72 C73 1.399 . S
C72 H85 0.931 . S
C73 C72 1.399 . S
C73 C74 1.390 . S
C74 C69 1.392 . S
C74 C73 1.390 . S
C74 H86 0.929 . S
O75 Tb59 2.326 . S
O75 C63 1.242 . S
O76 Eu60 2.324 . S
O76 C63 1.258 . S
O77 Tb59 2.500 . S
O77 C79 1.273 . S
O78 Tb59 2.473 . S
O78 C79 1.257 . S
C79 O77 1.273 . S
C79 O78 1.257 . S
O80 Eu60 2.326 . S
O80 C68 1.242 . S
O81 Tb59 2.324 . S
O81 C68 1.258 . S
O82 Eu60 2.500 . S
O82 C65 1.273 . S
O83 Eu60 2.473 . S
O83 C65 1.257 . S
H84 C70 0.929 . S
H85 C72 0.931 . S
H86 C74 0.929 . S
O87 Tb88 2.292 . S
O87 C90 1.255 . S
Tb88 O87 2.292 . S
Tb88 O104 2.326 . S
Tb88 O106 2.500 . S
Tb88 O107 2.473 1_554 S
Tb88 O110 2.324 1_554 S
Eu89 O93 2.292 . S
Eu89 C94 2.852 . S
Eu89 O105 2.324 . S
Eu89 O109 2.326 . S
Eu89 O111 2.500 . S
Eu89 O112 2.473 . S
C90 O87 1.255 . S
C90 O91 1.247 . S
O91 C90 1.247 . S
C92 O104 1.242 1_556 S
C92 O105 1.258 . S
O93 Eu89 2.292 . S
O93 C95 1.255 . S
C94 Eu89 2.852 . S
C94 C98 1.503 . S
C94 O111 1.273 . S
C94 O112 1.257 . S
C95 O93 1.255 . S
C95 O96 1.247 . S
O96 C95 1.247 . S
C97 O109 1.242 . S
C97 O110 1.258 . S
C98 C94 1.503 . S
C98 C99 1.379 . S
C98 C103 1.392 . S
C99 C98 1.379 . S
C99 C100 1.404 . S
C99 H113 0.929 . S
C100 C99 1.404 . S
C100 C101 1.389 . S
C101 C100 1.389 . S
C101 C102 1.399 . S
C101 H114 0.931 . S
C102 C101 1.399 . S
C102 C103 1.390 . S
C103 C98 1.392 . S
C103 C102 1.390 . S
C103 H115 0.929 . S
O104 Tb88 2.326 . S
O104 C92 1.242 1_554 S
O105 Eu89 2.324 . S
O105 C92 1.258 . S
O106 Tb88 2.500 . S
O106 C108 1.273 . S
O107 Tb88 2.473 1_556 S
O107 C108 1.257 1_556 S
C108 O106 1.273 . S
C108 O107 1.257 1_554 S
O109 Eu89 2.326 . S
O109 C97 1.242 . S
O110 Tb88 2.324 1_556 S
O110 C97 1.258 . S
O111 Eu89 2.500 . S
O111 C94 1.273 . S
O112 Eu89 2.473 . S
O112 C94 1.257 . S
H113 C99 0.929 . S
H114 C101 0.931 . S
H115 C103 0.929 . S
O116 Tb117 2.292 . S
O116 C119 1.255 . S
Tb117 O116 2.292 . S
Tb117 O133 2.326 . S
Tb117 O135 2.500 . S
Tb117 O136 2.473 . S
Tb117 O139 2.324 . S
Eu118 O122 2.292 . S
Eu118 C123 2.852 . S
Eu118 O134 2.324 . S
Eu118 O138 2.326 . S
Eu118 O140 2.500 . S
Eu118 O141 2.473 . S
C119 O116 1.255 . S
C119 O120 1.247 . S
O120 C119 1.247 . S
C121 O133 1.242 . S
C121 O134 1.258 . S
O122 Eu118 2.292 . S
O122 C124 1.255 . S
C123 Eu118 2.852 . S
C123 C127 1.503 . S
C123 O140 1.273 . S
C123 O141 1.257 . S
C124 O122 1.255 . S
C124 O125 1.247 . S
O125 C124 1.247 . S
C126 O138 1.242 . S
C126 O139 1.258 . S
C127 C123 1.503 . S
C127 C128 1.379 . S
C127 C132 1.392 . S
C128 C127 1.379 . S
C128 C129 1.404 . S
C128 H142 0.929 . S
C129 C128 1.404 . S
C129 C130 1.389 . S
C130 C129 1.389 . S
C130 C131 1.399 . S
C130 H143 0.931 . S
C131 C130 1.399 . S
C131 C132 1.390 . S
C132 C127 1.392 . S
C132 C131 1.390 . S
C132 H144 0.929 . S
O133 Tb117 2.326 . S
O133 C121 1.242 . S
O134 Eu118 2.324 . S
O134 C121 1.258 . S
O135 Tb117 2.500 . S
O135 C137 1.273 . S
O136 Tb117 2.473 . S
O136 C137 1.257 . S
C137 O135 1.273 . S
C137 O136 1.257 . S
O138 Eu118 2.326 . S
O138 C126 1.242 . S
O139 Tb117 2.324 . S
O139 C126 1.258 . S
O140 Eu118 2.500 . S
O140 C123 1.273 . S
O141 Eu118 2.473 . S
O141 C123 1.257 . S
H142 C128 0.929 . S
H143 C130 0.931 . S
H144 C132 0.929 . S
O145 Tb146 2.292 . S
O145 C148 1.255 . S
Tb146 O145 2.292 . S
Tb146 O162 2.326 . S
Tb146 O164 2.500 . S
Tb146 O165 2.473 . S
Tb146 O168 2.324 . S
Eu147 O151 2.292 1_554 S
Eu147 C152 2.852 . S
Eu147 O163 2.324 . S
Eu147 O167 2.326 . S
Eu147 O169 2.500 . S
Eu147 O170 2.473 . S
C148 O145 1.255 . S
C148 O149 1.247 . S
O149 C148 1.247 . S
C150 O162 1.242 . S
C150 O163 1.258 . S
O151 Eu147 2.292 1_556 S
O151 C153 1.255 . S
C152 Eu147 2.852 . S
C152 C156 1.503 . S
C152 O169 1.273 . S
C152 O170 1.257 . S
C153 O151 1.255 . S
C153 O154 1.247 . S
O154 C153 1.247 . S
C155 O167 1.242 . S
C155 O168 1.258 . S
C156 C152 1.503 . S
C156 C157 1.379 . S
C156 C161 1.392 . S
C157 C156 1.379 . S
C157 C158 1.404 . S
C157 H171 0.929 . S
C158 C157 1.404 . S
C158 C159 1.389 . S
C159 C158 1.389 . S
C159 C160 1.399 . S
C159 H172 0.931 . S
C160 C159 1.399 . S
C160 C161 1.390 . S
C161 C156 1.392 . S
C161 C160 1.390 . S
C161 H173 0.929 . S
O162 Tb146 2.326 . S
O162 C150 1.242 . S
O163 Eu147 2.324 . S
O163 C150 1.258 . S
O164 Tb146 2.500 . S
O164 C166 1.273 . S
O165 Tb146 2.473 . S
O165 C166 1.257 . S
C166 O164 1.273 . S
C166 O165 1.257 . S
O167 Eu147 2.326 . S
O167 C155 1.242 . S
O168 Tb146 2.324 . S
O168 C155 1.258 . S
O169 Eu147 2.500 . S
O169 C152 1.273 . S
O170 Eu147 2.473 . S
O170 C152 1.257 . S
H171 C157 0.929 . S
H172 C159 0.931 . S
H173 C161 0.929 . S
C174 C175 1.387 . S
C174 H178 0.950 . S
C174 C183 1.390 1_455 S
C175 C174 1.387 . S
C175 C177 1.387 1_455 S
H176 C183 0.950 . S
C177 C175 1.387 1_655 S
C177 C179 1.390 . S
C177 H181 0.950 1_655 S
H178 C174 0.950 . S
C179 C177 1.390 . S
C179 C180 1.387 . S
C179 H182 0.950 . S
C180 C179 1.387 . S
C180 C183 1.387 . S
H181 C177 0.950 1_455 S
H182 C179 0.950 . S
C183 C174 1.390 1_655 S
C183 H176 0.950 . S
C183 C180 1.387 . S
C184 C185 1.387 . S
C184 H188 0.950 . S
C184 C193 1.390 . S
C185 C184 1.387 . S
C185 C187 1.387 . S
H186 C193 0.950 . S
C187 C185 1.387 . S
C187 C189 1.390 . S
C187 H191 0.950 . S
H188 C184 0.950 . S
C189 C187 1.390 . S
C189 C190 1.387 . S
C189 H192 0.950 . S
C190 C189 1.387 . S
C190 C193 1.387 . S
H191 C187 0.950 . S
H192 C189 0.950 . S
C193 C184 1.390 . S
C193 H186 0.950 . S
C193 C190 1.387 . S
C194 C195 1.387 . S
C194 H198 0.950 . S
C194 C203 1.390 1_565 S
C195 C194 1.387 . S
C195 C197 1.387 . S
H196 C203 0.950 . S
C197 C195 1.387 . S
C197 C199 1.390 1_565 S
C197 H201 0.950 . S
H198 C194 0.950 . S
C199 C197 1.390 1_545 S
C199 C200 1.387 . S
C199 H202 0.950 . S
C200 C199 1.387 . S
C200 C203 1.387 . S
H201 C197 0.950 . S
H202 C199 0.950 . S
C203 C194 1.390 1_545 S
C203 H196 0.950 . S
C203 C200 1.387 . S
C204 C205 1.387 . S
C204 H208 0.950 . S
C204 C213 1.390 . S
C205 C204 1.387 . S
C205 C207 1.387 . S
H206 C213 0.950 . S
C207 C205 1.387 . S
C207 C209 1.390 . S
C207 H211 0.950 . S
H208 C204 0.950 . S
C209 C207 1.390 . S
C209 C210 1.387 . S
C209 H212 0.950 . S
C210 C209 1.387 . S
C210 C213 1.387 . S
H211 C207 0.950 . S
H212 C209 0.950 . S
C213 C204 1.390 . S
C213 H206 0.950 . S
C213 C210 1.387 . S
C214 C215 1.387 . S
C214 H218 0.950 1_556 S
C214 C223 1.390 . S
C215 C214 1.387 . S
C215 C217 1.387 . S
H216 C223 0.950 . S
C217 C215 1.387 . S
C217 C219 1.390 . S
C217 H221 0.950 . S
H218 C214 0.950 1_554 S
C219 C217 1.390 . S
C219 C220 1.387 . S
C219 H222 0.950 . S
C220 C219 1.387 . S
C220 C223 1.387 . S
H221 C217 0.950 . S
H222 C219 0.950 . S
C223 C214 1.390 . S
C223 H216 0.950 . S
C223 C220 1.387 . S
C224 C225 1.387 . S
C224 H228 0.950 . S
C224 C233 1.390 . S
C225 C224 1.387 . S
C225 C227 1.387 . S
H226 C233 0.950 . S
C227 C225 1.387 . S
C227 C229 1.390 . S
C227 H231 0.950 . S
H228 C224 0.950 . S
C229 C227 1.390 . S
C229 C230 1.387 . S
C229 H232 0.950 . S
C230 C229 1.387 . S
C230 C233 1.387 . S
H231 C227 0.950 . S
H232 C229 0.950 . S
C233 C224 1.390 . S
C233 H226 0.950 . S
C233 C230 1.387 . S
C234 C235 1.387 . S
C234 H238 0.950 . S
C234 C243 1.390 . S
C235 C234 1.387 . S
C235 C237 1.387 . S
H236 C243 0.950 . S
C237 C235 1.387 . S
C237 C239 1.390 . S
C237 H241 0.950 . S
H238 C234 0.950 . S
C239 C237 1.390 . S
C239 C240 1.387 . S
C239 H242 0.950 . S
C240 C239 1.387 . S
C240 C243 1.387 . S
H241 C237 0.950 . S
H242 C239 0.950 . S
C243 C234 1.390 . S
C243 H236 0.950 . S
C243 C240 1.387 . S
C244 C245 1.387 . S
C244 H248 0.950 . S
C244 C253 1.390 . S
C245 C244 1.387 . S
C245 C247 1.387 . S
H246 C253 0.950 . S
C247 C245 1.387 . S
C247 C249 1.390 . S
C247 H251 0.950 . S
H248 C244 0.950 . S
C249 C247 1.390 . S
C249 C250 1.387 . S
C249 H252 0.950 . S
C250 C249 1.387 . S
C250 C253 1.387 . S
H251 C247 0.950 . S
H252 C249 0.950 . S
C253 C244 1.390 . S
C253 H246 0.950 . S
C253 C250 1.387 . S
C254 C255 1.387 . S
C254 H258 0.950 . S
C254 C263 1.390 . S
C255 C254 1.387 . S
C255 C257 1.387 . S
H256 C263 0.950 . S
C257 C255 1.387 . S
C257 C259 1.390 . S
C257 H261 0.950 1_554 S
H258 C254 0.950 . S
C259 C257 1.390 . S
C259 C260 1.387 . S
C259 H262 0.950 . S
C260 C259 1.387 . S
C260 C263 1.387 . S
H261 C257 0.950 1_556 S
H262 C259 0.950 . S
C263 C254 1.390 . S
C263 H256 0.950 . S
C263 C260 1.387 . S
C264 C265 1.387 . S
C264 H268 0.950 . S
C264 C273 1.390 1_655 S
C265 C264 1.387 . S
C265 C267 1.387 . S
H266 C273 0.950 . S
C267 C265 1.387 . S
C267 C269 1.390 1_655 S
C267 H271 0.950 . S
H268 C264 0.950 . S
C269 C267 1.390 1_455 S
C269 C270 1.387 . S
C269 H272 0.950 . S
C270 C269 1.387 . S
C270 C273 1.387 . S
H271 C267 0.950 . S
H272 C269 0.950 . S
C273 C264 1.390 1_455 S
C273 H266 0.950 . S
C273 C270 1.387 . S
C274 C275 1.387 1_556 S
C274 H278 0.950 . S
C274 C283 1.390 . S
C275 C274 1.387 1_554 S
C275 C277 1.387 . S
H276 C283 0.950 . S
C277 C275 1.387 . S
C277 C279 1.390 . S
C277 H281 0.950 . S
H278 C274 0.950 . S
C279 C277 1.390 . S
C279 C280 1.387 1_554 S
C279 H282 0.950 . S
C280 C279 1.387 1_556 S
C280 C283 1.387 . S
H281 C277 0.950 . S
H282 C279 0.950 . S
C283 C274 1.390 . S
C283 H276 0.950 . S
C283 C280 1.387 . S
C284 C285 1.387 . S
C284 H288 0.950 . S
C284 C293 1.390 1_545 S
C285 C284 1.387 . S
C285 C287 1.387 . S
H286 C293 0.950 . S
C287 C285 1.387 . S
C287 C289 1.390 1_545 S
C287 H291 0.950 . S
H288 C284 0.950 . S
C289 C287 1.390 1_565 S
C289 C290 1.387 . S
C289 H292 0.950 . S
C290 C289 1.387 . S
C290 C293 1.387 . S
H291 C287 0.950 . S
H292 C289 0.950 . S
C293 C284 1.390 1_565 S
C293 H286 0.950 . S
C293 C290 1.387 . S
C294 C295 1.387 1_554 S
C294 H298 0.950 . S
C294 C303 1.390 . S
C295 C294 1.387 1_556 S
C295 C297 1.387 . S
H296 C303 0.950 . S
C297 C295 1.387 . S
C297 C299 1.390 . S
C297 H301 0.950 . S
H298 C294 0.950 . S
C299 C297 1.390 . S
C299 C300 1.387 1_556 S
C299 H302 0.950 . S
C300 C299 1.387 1_554 S
C300 C303 1.387 . S
H301 C297 0.950 . S
H302 C299 0.950 . S
C303 C294 1.390 . S
C303 H296 0.950 . S
C303 C300 1.387 . S
C304 C305 1.387 . S
C304 H308 0.950 . S
C304 C313 1.390 1_565 S
C305 C304 1.387 . S
C305 C307 1.387 . S
H306 C313 0.950 . S
C307 C305 1.387 . S
C307 C309 1.390 1_565 S
C307 H311 0.950 . S
H308 C304 0.950 . S
C309 C307 1.390 1_545 S
C309 C310 1.387 . S
C309 H312 0.950 . S
C310 C309 1.387 . S
C310 C313 1.387 . S
H311 C307 0.950 . S
H312 C309 0.950 . S
C313 C304 1.390 1_545 S
C313 H306 0.950 . S
C313 C310 1.387 . S
C314 C315 1.387 . S
C314 H318 0.950 . S
C314 C323 1.390 1_655 S
C315 C314 1.387 . S
C315 C317 1.387 . S
H316 C323 0.950 . S
C317 C315 1.387 . S
C317 C319 1.390 1_655 S
C317 H321 0.950 . S
H318 C314 0.950 . S
C319 C317 1.390 1_455 S
C319 C320 1.387 . S
C319 H322 0.950 . S
C320 C319 1.387 . S
C320 C323 1.387 . S
H321 C317 0.950 . S
H322 C319 0.950 . S
C323 C314 1.390 1_455 S
C323 H316 0.950 . S
C323 C320 1.387 . S
C324 C325 1.387 . S
C324 H328 0.950 . S
C324 C333 1.390 . S
C325 C324 1.387 . S
C325 C327 1.387 . S
H326 C333 0.950 . S
C327 C325 1.387 . S
C327 C329 1.390 . S
C327 H331 0.950 . S
H328 C324 0.950 . S
C329 C327 1.390 . S
C329 C330 1.387 . S
C329 H332 0.950 . S
C330 C329 1.387 . S
C330 C333 1.387 . S
H331 C327 0.950 . S
H332 C329 0.950 . S
C333 C324 1.390 . S
C333 H326 0.950 . S
C333 C330 1.387 . S
C334 C335 1.387 . S
C334 H338 0.950 . S
C334 C343 1.390 . S
C335 C334 1.387 . S
C335 C337 1.387 . S
H336 C343 0.950 . S
C337 C335 1.387 . S
C337 C339 1.390 . S
C337 H341 0.950 . S
H338 C334 0.950 . S
C339 C337 1.390 . S
C339 C340 1.387 . S
C339 H342 0.950 . S
C340 C339 1.387 . S
C340 C343 1.387 . S
H341 C337 0.950 . S
H342 C339 0.950 . S
C343 C334 1.390 . S
C343 H336 0.950 . S
C343 C340 1.387 . S
C344 C345 1.387 . S
C344 H348 0.950 . S
C344 C353 1.390 . S
C345 C344 1.387 . S
C345 C347 1.387 . S
H346 C353 0.950 . S
C347 C345 1.387 . S
C347 C349 1.390 . S
C347 H351 0.950 . S
H348 C344 0.950 . S
C349 C347 1.390 . S
C349 C350 1.388 1_556 S
C349 H352 0.950 . S
C350 C349 1.388 1_554 S
C350 C353 1.388 1_554 S
H351 C347 0.950 . S
H352 C349 0.950 . S
C353 C344 1.390 . S
C353 H346 0.950 . S
C353 C350 1.388 1_556 S
C354 C355 1.387 . S
C354 H358 0.950 . S
C354 C363 1.390 . S
C355 C354 1.387 . S
C355 C357 1.387 . S
H356 C363 0.950 . S
C357 C355 1.387 . S
C357 C359 1.390 . S
C357 H361 0.950 . S
H358 C354 0.950 . S
C359 C357 1.390 . S
C359 C360 1.387 . S
C359 H362 0.950 . S
C360 C359 1.387 . S
C360 C363 1.387 . S
H361 C357 0.950 . S
H362 C359 0.950 . S
C363 C354 1.390 . S
C363 H356 0.950 . S
C363 C360 1.387 . S
C364 C365 1.387 . S
C364 H368 0.950 . S
C364 C373 1.390 . S
C365 C364 1.387 . S
C365 C367 1.387 . S
H366 C373 0.950 . S
C367 C365 1.387 . S
C367 C369 1.390 . S
C367 H371 0.950 . S
H368 C364 0.950 . S
C369 C367 1.390 . S
C369 C370 1.387 1_554 S
C369 H372 0.950 1_554 S
C370 C369 1.387 1_556 S
C370 C373 1.386 1_556 S
H371 C367 0.950 . S
H372 C369 0.950 1_556 S
C373 C364 1.390 . S
C373 H366 0.950 . S
C373 C370 1.386 1_554 S
C374 C375 1.387 . S
C374 H378 0.950 . S
C374 C383 1.390 . S
C375 C374 1.387 . S
C375 C377 1.387 . S
H376 C383 0.950 . S
C377 C375 1.387 . S
C377 C379 1.390 . S
C377 H381 0.950 . S
H378 C374 0.950 . S
C379 C377 1.390 . S
C379 C380 1.387 . S
C379 H382 0.950 . S
C380 C379 1.387 . S
C380 C383 1.387 . S
H381 C377 0.950 . S
H382 C379 0.950 . S
C383 C374 1.390 . S
C383 H376 0.950 . S
C383 C380 1.387 . S
C175 C13 2.361 1_556 S
C180 C129 2.361 . S
C185 C158 2.362 . S
C190 C42 2.362 . S
C195 C71 2.361 . S
C200 C100 2.361 1_554 S
C205 C10 2.153 . S
C210 C79 1.714 . S
C215 C21 1.712 . S
C220 C39 2.152 . S
C225 C50 1.714 . S
C230 C68 2.152 . S
C235 C97 2.152 . S
C240 C137 1.715 . S
C245 C126 2.152 . S
C250 C166 1.712 . S
C255 C108 1.715 . S
C260 C155 2.152 . S
C265 C131 1.421 . S
C270 C15 1.421 . S
C275 C160 1.420 . S
C280 C44 1.422 . S
C285 C102 1.421 . S
C290 C73 1.421 . S
C295 C5 2.553 1_556 S
C300 C92 2.553 1_554 S
C305 C34 2.554 . S
C310 C121 2.554 . S
C315 C150 2.553 . S
C320 C63 2.553 . S
C325 C8 1.245 . S
C330 C3 1.245 . S
C335 C32 1.242 . S
C340 C37 1.242 . S
C345 C66 1.245 . S
C350 C61 1.244 . S
C355 C95 1.242 . S
C360 C90 1.242 . S
C365 C124 1.243 . S
C370 C119 1.245 . S
C375 C148 1.245 . S
C380 C153 1.245 . S
