# Generated by pormake.
# Topology unj, (4)-cn, num edge types: 1
# Building blocks:
#     Node 0, Type 0, BuildingBlock: CEKHIL_clean_sbu_0, # of connection points: 4
#     Node 1, Type 0, BuildingBlock: CEKHIL_clean_sbu_0, # of connection points: 4
#     Node 2, Type 0, BuildingBlock: CEKHIL_clean_sbu_0, # of connection points: 4
#     Node 3, Type 0, BuildingBlock: CEKHIL_clean_sbu_0, # of connection points: 4
#     Node 4, Type 0, BuildingBlock: CEKHIL_clean_sbu_0, # of connection points: 4
#     Node 5, Type 0, BuildingBlock: CEKHIL_clean_sbu_0, # of connection points: 4
#     Edge 6, Type (0, 0), BuildingBlock: KIFKEQ_clean_linker_1, # of connection points: 2
#     Edge 7, Type (0, 0), BuildingBlock: KIFKEQ_clean_linker_1, # of connection points: 2
#     Edge 8, Type (0, 0), BuildingBlock: KIFKEQ_clean_linker_1, # of connection points: 2
#     Edge 9, Type (0, 0), BuildingBlock: KIFKEQ_clean_linker_1, # of connection points: 2
#     Edge 10, Type (0, 0), BuildingBlock: KIFKEQ_clean_linker_1, # of connection points: 2
#     Edge 11, Type (0, 0), BuildingBlock: KIFKEQ_clean_linker_1, # of connection points: 2
#     Edge 12, Type (0, 0), BuildingBlock: KIFKEQ_clean_linker_1, # of connection points: 2
#     Edge 13, Type (0, 0), BuildingBlock: KIFKEQ_clean_linker_1, # of connection points: 2
#     Edge 14, Type (0, 0), BuildingBlock: KIFKEQ_clean_linker_1, # of connection points: 2
#     Edge 15, Type (0, 0), BuildingBlock: KIFKEQ_clean_linker_1, # of connection points: 2
#     Edge 16, Type (0, 0), BuildingBlock: KIFKEQ_clean_linker_1, # of connection points: 2
#     Edge 17, Type (0, 0), BuildingBlock: KIFKEQ_clean_linker_1, # of connection points: 2
# Relax obj value: 0.029
# Max RMSD: 0.081
# Mean RMSD: 0.081
data_MOF--net-unj--node1-CEKHIL_clean_sbu_0--edge1-KIFKEQ_clean_linker_1
_symmetry_space_group_name_H-M    P1
_symmetry_Int_Tables_number       1
_symmetry_cell_setting            triclinic
loop_
_symmetry_equiv_pos_as_xyz
'x, y, z'
_cell_length_a     32.830704
_cell_length_b     32.837415
_cell_length_c     36.866736
_cell_angle_alpha  89.861851
_cell_angle_beta   90.140954
_cell_angle_gamma 120.03514
loop_
_atom_site_label
_atom_site_type_symbol
_atom_site_fract_x
_atom_site_fract_y
_atom_site_fract_z
_atom_type_partial_charge
Co0 Co 0.50693 0.26137 0.58579 0.0
O1 O 0.51711 0.31865 0.60807 0.0
O2 O 0.4503 0.25099 0.61081 0.0
C3 C 0.54013 0.29703 0.53269 0.0
O4 O 0.48173 0.19512 0.56469 0.0
Co5 Co 0.58846 0.24882 0.55703 0.0
O6 O 0.5382 0.19352 0.53164 0.0
C7 C 0.56825 0.24099 0.63581 0.0
C8 C 0.47363 0.29561 0.61862 0.0
C9 C 0.49567 0.17455 0.54223 0.0
O10 O 0.53165 0.24521 0.63071 0.0
O11 O 0.59591 0.24348 0.61042 0.0
O12 O 0.49615 0.28306 0.53914 0.0
O13 O 0.56268 0.29034 0.5585 0.0
Co14 Co 0.26104 0.50413 0.75414 0.0
O15 O 0.21557 0.5163 0.77704 0.0
O16 O 0.21664 0.44984 0.78245 0.0
C17 C 0.25479 0.53253 0.69958 0.0
O18 O 0.30034 0.4769 0.73321 0.0
Co19 Co 0.35299 0.58388 0.71959 0.0
O20 O 0.36301 0.53254 0.70275 0.0
C21 C 0.34509 0.57195 0.79956 0.0
C22 C 0.19567 0.47364 0.78949 0.0
C23 C 0.33741 0.49032 0.7136 0.0
O24 O 0.30566 0.53283 0.79688 0.0
O25 O 0.36635 0.59831 0.77233 0.0
O26 O 0.2249 0.48947 0.70884 0.0
O27 O 0.28584 0.55705 0.72372 0.0
Co28 Co 0.77202 0.25459 0.9198 0.0
O29 O 0.71476 0.20736 0.9422 0.0
O30 O 0.7831 0.20996 0.94678 0.0
C31 C 0.73657 0.24933 0.86581 0.0
O32 O 0.83852 0.29599 0.89922 0.0
Co33 Co 0.78228 0.34656 0.88718 0.0
O34 O 0.84444 0.35905 0.87013 0.0
C35 C 0.78562 0.33593 0.96697 0.0
C36 C 0.7383 0.18795 0.95396 0.0
C37 C 0.86184 0.33389 0.88034 0.0
O38 O 0.78669 0.29731 0.96353 0.0
O39 O 0.77995 0.35748 0.94019 0.0
O40 O 0.7514 0.22032 0.87363 0.0
O41 O 0.74259 0.27926 0.89067 0.0
Co42 Co 0.53538 0.76517 0.08748 0.0
O43 O 0.52478 0.70851 0.11163 0.0
O44 O 0.59106 0.77663 0.11447 0.0
C45 C 0.50478 0.72871 0.03387 0.0
O46 O 0.56125 0.83106 0.06535 0.0
Co47 Co 0.45395 0.77571 0.0541 0.0
O48 O 0.50419 0.83731 0.03639 0.0
C49 C 0.46924 0.7824 0.13379 0.0
C50 C 0.56793 0.73224 0.12303 0.0
C51 C 0.54685 0.85436 0.04623 0.0
O52 O 0.50828 0.78213 0.13049 0.0
O53 O 0.44179 0.77639 0.10709 0.0
O54 O 0.54827 0.74244 0.04215 0.0
O55 O 0.48116 0.73574 0.05841 0.0
Co56 Co 0.78523 0.52718 0.25447 0.0
O57 O 0.83209 0.51725 0.27792 0.0
O58 O 0.83087 0.58387 0.27959 0.0
C59 C 0.78856 0.49436 0.20148 0.0
O60 O 0.7445 0.55235 0.23239 0.0
Co61 Co 0.6914 0.44557 0.22488 0.0
O62 O 0.68613 0.49574 0.19945 0.0
C63 C 0.70315 0.46535 0.30374 0.0
C64 C 0.85219 0.56083 0.28823 0.0
C65 C 0.70988 0.53833 0.20987 0.0
O66 O 0.74365 0.50242 0.29885 0.0
O67 O 0.67841 0.43748 0.27824 0.0
O68 O 0.81871 0.53812 0.20853 0.0
O69 O 0.75878 0.47154 0.22692 0.0
Co70 Co 0.27345 0.77458 0.42028 0.0
O71 O 0.32872 0.81967 0.44635 0.0
O72 O 0.26038 0.8175 0.44726 0.0
C73 C 0.31278 0.78297 0.36788 0.0
O74 O 0.20891 0.73551 0.39591 0.0
Co75 Co 0.26406 0.68429 0.38538 0.0
O76 O 0.2085 0.67973 0.36057 0.0
C77 C 0.25319 0.68893 0.46506 0.0
C78 C 0.30432 0.83857 0.45711 0.0
C79 C 0.18911 0.70246 0.37212 0.0
O80 O 0.25439 0.72874 0.46232 0.0
O81 O 0.25953 0.66815 0.43813 0.0
O82 O 0.29851 0.81227 0.37605 0.0
O83 O 0.30444 0.75113 0.39184 0.0
H84 H 0.40512 0.11306 0.56568 0.0
H85 H 0.51146 0.12479 0.49061 0.0
H86 H 0.35522 0.03015 0.54859 0.0
H87 H 0.46198 0.0431 0.47373 0.0
H88 H 0.39426 0.88713 0.48219 0.0
H89 H 0.43658 0.96757 0.50439 0.0
H90 H 0.31012 0.97652 0.4957 0.0
H91 H 0.26722 0.89516 0.47364 0.0
C92 C 0.4177 0.09825 0.54535 0.0
C93 C 0.46266 0.12564 0.5299 0.0
C94 C 0.3891 0.05078 0.53557 0.0
C95 C 0.40503 0.02978 0.51032 0.0
C96 C 0.44911 0.05777 0.49395 0.0
C97 C 0.47743 0.10488 0.50355 0.0
C98 C 0.37515 0.90587 0.48546 0.0
C99 C 0.32742 0.88478 0.47583 0.0
C100 C 0.39955 0.95218 0.49797 0.0
C101 C 0.37696 0.9788 0.50117 0.0
C102 C 0.32853 0.95696 0.49352 0.0
C103 C 0.30399 0.91038 0.48087 0.0
H104 H 0.50909 0.38972 0.62169 0.0
H105 H 0.38794 0.25837 0.6536 0.0
H106 H 0.47353 0.43253 0.64636 0.0
H107 H 0.35267 0.30181 0.68053 0.0
H108 H 0.28581 0.39862 0.68987 0.0
H109 H 0.31683 0.3484 0.66904 0.0
H110 H 0.45692 0.45657 0.7 0.0
H111 H 0.4263 0.50697 0.7182 0.0
C112 C 0.47507 0.36992 0.63467 0.0
C113 C 0.4516 0.32059 0.63596 0.0
C114 C 0.45463 0.39462 0.64917 0.0
C115 C 0.41036 0.37095 0.6662 0.0
C116 C 0.38666 0.32137 0.66752 0.0
C117 C 0.40699 0.29643 0.65235 0.0
C118 C 0.32315 0.41122 0.69227 0.0
C119 C 0.35382 0.4569 0.70499 0.0
C120 C 0.34099 0.38246 0.68052 0.0
C121 C 0.38972 0.39865 0.68197 0.0
C122 C 0.41955 0.44332 0.69702 0.0
C123 C 0.40197 0.47222 0.7078 0.0
H124 H 0.90474 0.28401 0.85903 0.0
H125 H 0.93232 0.42401 0.88315 0.0
H126 H 0.98673 0.31649 0.83962 0.0
H127 H 1.01408 0.45616 0.86645 0.0
H128 H 0.1368 0.50895 0.79116 0.0
H129 H 0.05774 0.47302 0.81465 0.0
H130 H 0.06838 0.35384 0.85233 0.0
H131 H 0.1477 0.38934 0.82648 0.0
C132 C 0.92859 0.3216 0.86074 0.0
C133 C 0.91205 0.3516 0.87191 0.0
C134 C 0.97567 0.3403 0.84983 0.0
C135 C 1.00726 0.38928 0.85064 0.0
C136 C 0.99081 0.41858 0.86398 0.0
C137 C 0.94385 0.40011 0.8739 0.0
C138 C 0.12263 0.47529 0.80475 0.0
C139 C 0.14885 0.45228 0.8072 0.0
C140 C 0.07705 0.45461 0.81855 0.0
C141 C 0.05634 0.41057 0.83606 0.0
C142 C 0.08278 0.38756 0.83884 0.0
C143 C 0.12846 0.40808 0.82434 0.0
H144 H 0.63824 0.89608 0.02135 0.0
H145 H 0.52905 0.92565 0.05208 0.0
H146 H 0.68756 0.97807 1.00147 0.0
H147 H 0.57857 1.00734 0.03488 0.0
H148 H 0.64419 0.1291 0.95827 0.0
H149 H 0.60206 0.0501 0.98212 0.0
H150 H 0.73357 0.06011 0.01418 0.0
H151 H 0.77632 0.13951 0.98809 0.0
C152 C 0.62522 0.92037 0.02441 0.0
C153 C 0.57956 0.90444 0.03755 0.0
C154 C 0.65348 0.96741 0.01323 0.0
C155 C 0.63685 0.9995 0.01573 0.0
C156 C 0.59216 0.98364 0.03109 0.0
C157 C 0.56375 0.93675 0.04128 0.0
C158 C 0.66432 0.11481 0.97067 0.0
C159 C 0.71367 0.14091 0.97152 0.0
C160 C 0.64001 0.06928 0.98468 0.0
C161 C 0.6641 0.04845 1.00077 0.0
C162 C 0.71369 0.07467 1.00185 0.0
C163 C 0.73823 0.12036 0.9872 0.0
H164 H 0.73888 0.62886 0.2332 0.0
H165 H 0.64489 0.52277 0.15752 0.0
H166 H 0.70636 0.67895 0.21539 0.0
H167 H 0.61323 0.57251 0.13981 0.0
H168 H 0.52571 0.64132 0.14595 0.0
H169 H 0.56293 0.59818 0.16841 0.0
H170 H 0.69885 0.72464 0.16318 0.0
H171 H 0.66124 0.76835 0.14097 0.0
C172 C 0.71174 0.61638 0.21257 0.0
C173 C 0.69422 0.57144 0.19715 0.0
C174 C 0.69314 0.64511 0.20236 0.0
C175 C 0.65654 0.62937 0.17667 0.0
C176 C 0.64048 0.58528 0.16037 0.0
C177 C 0.65896 0.55679 0.17044 0.0
C178 C 0.56348 0.66022 0.14998 0.0
C179 C 0.5905 0.70824 0.14137 0.0
C180 C 0.5849 0.63535 0.16263 0.0
C181 C 0.63401 0.65772 0.16697 0.0
C182 C 0.66095 0.70635 0.16015 0.0
C183 C 0.6394 0.73137 0.1474 0.0
H184 H 0.13986 0.63902 0.31885 0.0
H185 H 0.12764 0.73089 0.39639 0.0
H186 H 0.05832 0.60768 0.30145 0.0
H187 H 0.04501 0.69877 0.37884 0.0
H188 H 0.90976 0.65432 0.30533 0.0
H189 H 0.9916 0.69218 0.32649 0.0
H190 H 0.98259 0.55652 0.33125 0.0
H191 H 0.90171 0.51903 0.30998 0.0
C192 C 0.1199 0.65276 0.33219 0.0
C193 C 0.14046 0.68724 0.35938 0.0
C194 C 0.07289 0.63448 0.3223 0.0
C195 C 0.04485 0.65004 0.33922 0.0
C196 C 0.06568 0.68598 0.36533 0.0
C197 C 0.11301 0.70433 0.37539 0.0
C198 C 0.92514 0.6326 0.31141 0.0
C199 C 0.89931 0.58369 0.30566 0.0
C200 C 0.97198 0.65429 0.32355 0.0
C201 C 0.99387 0.62746 0.32995 0.0
C202 C 0.96717 0.57836 0.32579 0.0
C203 C 0.9206 0.5568 0.31382 0.0
H204 H 0.50235 0.29784 0.46665 0.0
H205 H 0.63366 0.35753 0.52528 0.0
H206 H 0.54398 0.34319 0.41313 0.0
H207 H 0.67504 0.4055 0.47309 0.0
H208 H 0.74287 0.44583 0.36074 0.0
H209 H 0.70383 0.40601 0.41674 0.0
H210 H 0.58151 0.41541 0.38557 0.0
H211 H 0.61974 0.45173 0.32842 0.0
C212 C 0.5401 0.32105 0.46811 0.0
C213 C 0.5648 0.32388 0.49992 0.0
C214 C 0.56408 0.34761 0.43758 0.0
C215 C 0.6132 0.37857 0.43851 0.0
C216 C 0.63756 0.38155 0.47076 0.0
C217 C 0.61375 0.35414 0.50088 0.0
C218 C 0.70802 0.44012 0.36644 0.0
C219 C 0.68424 0.45186 0.34062 0.0
C220 C 0.68544 0.41726 0.39856 0.0
C221 C 0.63893 0.40663 0.40581 0.0
C222 C 0.61659 0.42143 0.38066 0.0
C223 C 0.63871 0.44303 0.34816 0.0
H224 H 0.22351 0.59673 0.47769 0.0
H225 H 0.26579 0.72774 0.53326 0.0
H226 H 0.22047 0.55902 0.53492 0.0
H227 H 0.26163 0.68922 0.59129 0.0
H228 H 0.31431 0.62135 0.67566 0.0
H229 H 0.30792 0.6591 0.62079 0.0
H230 H 0.1802 0.53154 0.59197 0.0
H231 H 0.18719 0.49334 0.64674 0.0
C232 C 0.23159 0.61743 0.50225 0.0
C233 C 0.24545 0.66549 0.50083 0.0
C234 C 0.22941 0.59556 0.53519 0.0
C235 C 0.24105 0.62108 0.56771 0.0
C236 C 0.25306 0.66874 0.56659 0.0
C237 C 0.25505 0.69071 0.53344 0.0
C238 C 0.28491 0.60124 0.65756 0.0
C239 C 0.25143 0.5542 0.66535 0.0
C240 C 0.28096 0.62313 0.62631 0.0
C241 C 0.2434 0.59851 0.60208 0.0
C242 C 0.2098 0.55141 0.60993 0.0
C243 C 0.2138 0.52946 0.64125 0.0
H244 H 0.67241 0.27737 0.85818 0.0
H245 H 0.73783 0.21149 0.79986 0.0
H246 H 0.62431 0.26934 0.80577 0.0
H247 H 0.69222 0.20648 0.74595 0.0
H248 H 0.58459 0.17261 0.65984 0.0
H249 H 0.62071 0.17061 0.71712 0.0
H250 H 0.62399 0.29879 0.74991 0.0
H251 H 0.58445 0.29802 0.69371 0.0
C252 C 0.67699 0.26176 0.83378 0.0
C253 C 0.70903 0.24525 0.83296 0.0
C254 C 0.6495 0.25738 0.80352 0.0
C255 C 0.65418 0.23747 0.77118 0.0
C256 C 0.68662 0.22111 0.77043 0.0
C257 C 0.71328 0.22439 0.80118 0.0
C258 C 0.59191 0.19945 0.67995 0.0
C259 C 0.58146 0.23518 0.67276 0.0
C260 C 0.61339 0.19889 0.71255 0.0
C261 C 0.62637 0.23502 0.73822 0.0
C262 C 0.61412 0.26987 0.73132 0.0
C263 C 0.5914 0.26959 0.69908 0.0
H264 H 0.43635 0.63767 0.812 0.0
H265 H 0.30689 0.54466 0.86812 0.0
H266 H 0.47424 0.67189 0.86907 0.0
H267 H 0.34579 0.57872 0.92613 0.0
H268 H 0.41458 0.69743 0.01229 0.0
H269 H 0.37557 0.65409 0.95749 0.0
H270 H 0.50357 0.65765 0.92464 0.0
H271 H 0.54297 0.70201 0.97932 0.0
C272 C 0.41595 0.62411 0.83662 0.0
C273 C 0.36827 0.58865 0.83537 0.0
C274 C 0.438 0.64355 0.8695 0.0
C275 C 0.41315 0.62818 0.90223 0.0
C276 C 0.36579 0.5917 0.90129 0.0
C277 C 0.34358 0.57195 0.86814 0.0
C278 C 0.43449 0.68909 0.99333 0.0
C279 C 0.48204 0.70354 0.99995 0.0
C280 C 0.4119 0.66371 0.96211 0.0
C281 C 0.43631 0.65218 0.93671 0.0
C282 C 0.48384 0.66635 0.94349 0.0
C283 C 0.50648 0.69181 0.97477 0.0
H284 H 0.81097 0.42666 0.98036 0.0
H285 H 0.77321 0.29593 0.03518 0.0
H286 H 0.81362 0.46325 0.03763 0.0
H287 H 0.77711 0.33365 0.0936 0.0
H288 H 0.72853 0.40377 0.18073 0.0
H289 H 0.73221 0.36413 0.12595 0.0
H290 H 0.85762 0.49123 0.09269 0.0
H291 H 0.85321 0.53112 0.14695 0.0
C292 C 0.80361 0.40569 0.00476 0.0
C293 C 0.79141 0.35808 1.00306 0.0
C294 C 0.80562 0.427 0.03778 0.0
C295 C 0.79567 0.40151 0.07028 0.0
C296 C 0.78457 0.35412 0.06893 0.0
C297 C 0.78269 0.33262 0.03558 0.0
C298 C 0.75681 0.42326 0.16163 0.0
C299 C 0.79031 0.47075 0.16792 0.0
C300 C 0.75922 0.40035 0.13046 0.0
C301 C 0.79519 0.42444 0.10492 0.0
C302 C 0.82906 0.47178 0.11157 0.0
C303 C 0.82656 0.49471 0.14265 0.0
H304 H 0.34349 0.724 0.34563 0.0
H305 H 0.34219 0.85036 0.31487 0.0
H306 H 0.38762 0.72964 0.29107 0.0
H307 H 0.38744 0.85668 0.26051 0.0
H308 H 0.40649 0.81137 0.14692 0.0
H309 H 0.37303 0.81507 0.20428 0.0
H310 H 0.46327 0.77475 0.26024 0.0
H311 H 0.49645 0.76983 0.20192 0.0
C312 C 0.3528 0.75314 0.32724 0.0
C313 C 0.33895 0.78652 0.33435 0.0
C314 C 0.37862 0.75666 0.29617 0.0
C315 C 0.39126 0.79368 0.27144 0.0
C316 C 0.37786 0.82743 0.27882 0.0
C317 C 0.35191 0.82384 0.30992 0.0
C318 C 0.41959 0.8035 0.17139 0.0
C319 C 0.45383 0.78971 0.16975 0.0
C320 C 0.40062 0.80613 0.20443 0.0
C321 C 0.41529 0.7951 0.23691 0.0
C322 C 0.45082 0.78294 0.23559 0.0
C323 C 0.4701 0.78047 0.20228 0.0
loop_
_geom_bond_atom_site_label_1
_geom_bond_atom_site_label_2
_geom_bond_distance
_geom_bond_site_symmetry_2
_ccdc_geom_bond_type
Co0 O1 2.216 . S
Co0 O2 2.091 . S
Co0 O4 2.004 . S
Co0 O10 2.021 . S
Co0 O12 2.137 . S
Co0 O13 2.244 . S
O1 Co0 2.216 . S
O1 C8 1.247 . S
O2 Co0 2.091 . S
O2 C8 1.261 . S
C3 O12 1.247 . S
C3 O13 1.272 . S
O4 Co0 2.004 . S
O4 C9 1.259 . S
Co5 O6 2.061 . S
Co5 O11 2.052 . S
Co5 O13 2.135 . S
O6 Co5 2.061 . S
O6 C9 1.235 . S
C7 O10 1.238 . S
C7 O11 1.241 . S
C8 O1 1.247 . S
C8 O2 1.261 . S
C9 O4 1.259 . S
C9 O6 1.235 . S
O10 Co0 2.021 . S
O10 C7 1.238 . S
O11 Co5 2.052 . S
O11 C7 1.241 . S
O12 Co0 2.137 . S
O12 C3 1.247 . S
O13 Co0 2.244 . S
O13 C3 1.272 . S
O13 Co5 2.135 . S
Co14 O15 2.216 . S
Co14 O16 2.091 . S
Co14 O18 2.004 . S
Co14 O24 2.021 . S
Co14 O26 2.137 . S
Co14 O27 2.244 . S
O15 Co14 2.216 . S
O15 C22 1.247 . S
O16 Co14 2.091 . S
O16 C22 1.261 . S
C17 O26 1.247 . S
C17 O27 1.272 . S
O18 Co14 2.004 . S
O18 C23 1.259 . S
Co19 O20 2.061 . S
Co19 O25 2.052 . S
Co19 O27 2.135 . S
O20 Co19 2.061 . S
O20 C23 1.235 . S
C21 O24 1.238 . S
C21 O25 1.241 . S
C22 O15 1.247 . S
C22 O16 1.261 . S
C23 O18 1.259 . S
C23 O20 1.235 . S
O24 Co14 2.021 . S
O24 C21 1.238 . S
O25 Co19 2.052 . S
O25 C21 1.241 . S
O26 Co14 2.137 . S
O26 C17 1.247 . S
O27 Co14 2.244 . S
O27 C17 1.272 . S
O27 Co19 2.135 . S
Co28 O29 2.216 . S
Co28 O30 2.091 . S
Co28 O32 2.004 . S
Co28 O38 2.021 . S
Co28 O40 2.137 . S
Co28 O41 2.244 . S
O29 Co28 2.216 . S
O29 C36 1.247 . S
O30 Co28 2.091 . S
O30 C36 1.261 . S
C31 O40 1.247 . S
C31 O41 1.272 . S
O32 Co28 2.004 . S
O32 C37 1.259 . S
Co33 O34 2.061 . S
Co33 O39 2.052 . S
Co33 O41 2.135 . S
O34 Co33 2.061 . S
O34 C37 1.235 . S
C35 O38 1.238 . S
C35 O39 1.241 . S
C36 O29 1.247 . S
C36 O30 1.261 . S
C37 O32 1.259 . S
C37 O34 1.235 . S
O38 Co28 2.021 . S
O38 C35 1.238 . S
O39 Co33 2.052 . S
O39 C35 1.241 . S
O40 Co28 2.137 . S
O40 C31 1.247 . S
O41 Co28 2.244 . S
O41 C31 1.272 . S
O41 Co33 2.135 . S
Co42 O43 2.216 . S
Co42 O44 2.091 . S
Co42 O46 2.004 . S
Co42 O52 2.021 . S
Co42 O54 2.137 . S
Co42 O55 2.244 . S
O43 Co42 2.216 . S
O43 C50 1.247 . S
O44 Co42 2.091 . S
O44 C50 1.261 . S
C45 O54 1.247 . S
C45 O55 1.272 . S
O46 Co42 2.004 . S
O46 C51 1.259 . S
Co47 O48 2.061 . S
Co47 O53 2.052 . S
Co47 O55 2.135 . S
O48 Co47 2.061 . S
O48 C51 1.235 . S
C49 O52 1.238 . S
C49 O53 1.241 . S
C50 O43 1.247 . S
C50 O44 1.261 . S
C51 O46 1.259 . S
C51 O48 1.235 . S
O52 Co42 2.021 . S
O52 C49 1.238 . S
O53 Co47 2.052 . S
O53 C49 1.241 . S
O54 Co42 2.137 . S
O54 C45 1.247 . S
O55 Co42 2.244 . S
O55 C45 1.272 . S
O55 Co47 2.135 . S
Co56 O57 2.216 . S
Co56 O58 2.091 . S
Co56 O60 2.004 . S
Co56 O66 2.021 . S
Co56 O68 2.137 . S
Co56 O69 2.244 . S
O57 Co56 2.216 . S
O57 C64 1.247 . S
O58 Co56 2.091 . S
O58 C64 1.261 . S
C59 O68 1.247 . S
C59 O69 1.272 . S
O60 Co56 2.004 . S
O60 C65 1.259 . S
Co61 O62 2.061 . S
Co61 O67 2.052 . S
Co61 O69 2.135 . S
O62 Co61 2.061 . S
O62 C65 1.235 . S
C63 O66 1.238 . S
C63 O67 1.241 . S
C64 O57 1.247 . S
C64 O58 1.261 . S
C65 O60 1.259 . S
C65 O62 1.235 . S
O66 Co56 2.021 . S
O66 C63 1.238 . S
O67 Co61 2.052 . S
O67 C63 1.241 . S
O68 Co56 2.137 . S
O68 C59 1.247 . S
O69 Co56 2.244 . S
O69 C59 1.272 . S
O69 Co61 2.135 . S
Co70 O71 2.216 . S
Co70 O72 2.091 . S
Co70 O74 2.004 . S
Co70 O80 2.021 . S
Co70 O82 2.137 . S
Co70 O83 2.244 . S
O71 Co70 2.216 . S
O71 C78 1.247 . S
O72 Co70 2.091 . S
O72 C78 1.261 . S
C73 O82 1.247 . S
C73 O83 1.272 . S
O74 Co70 2.004 . S
O74 C79 1.259 . S
Co75 O76 2.061 . S
Co75 O81 2.052 . S
Co75 O83 2.135 . S
O76 Co75 2.061 . S
O76 C79 1.235 . S
C77 O80 1.238 . S
C77 O81 1.241 . S
C78 O71 1.247 . S
C78 O72 1.261 . S
C79 O74 1.259 . S
C79 O76 1.235 . S
O80 Co70 2.021 . S
O80 C77 1.238 . S
O81 Co75 2.052 . S
O81 C77 1.241 . S
O82 Co70 2.137 . S
O82 C73 1.247 . S
O83 Co70 2.244 . S
O83 C73 1.272 . S
O83 Co75 2.135 . S
H84 C92 0.950 . S
H85 C97 0.950 . S
H86 C94 0.950 . S
H87 C96 0.950 . S
H88 C98 0.950 . S
H89 C100 0.953 . S
H90 C102 0.950 . S
H91 C103 0.950 . S
C92 H84 0.950 . S
C92 C93 1.386 . S
C92 C94 1.391 . S
C93 C92 1.386 . S
C93 C97 1.393 . S
C94 H86 0.950 . S
C94 C92 1.391 . S
C94 C95 1.400 . S
C95 C94 1.400 . S
C95 C96 1.398 . S
C95 C101 1.491 1_545 S
C96 H87 0.950 . S
C96 C95 1.398 . S
C96 C97 1.391 . S
C97 H85 0.950 . S
C97 C93 1.393 . S
C97 C96 1.391 . S
C98 H88 0.950 . S
C98 C99 1.386 . S
C98 C100 1.391 . S
C99 C98 1.386 . S
C99 C103 1.393 . S
C100 H89 0.953 . S
C100 C98 1.391 . S
C100 C101 1.400 . S
C101 C95 1.491 1_565 S
C101 C100 1.400 . S
C101 C102 1.398 . S
C102 H90 0.950 . S
C102 C101 1.398 . S
C102 C103 1.391 . S
C103 H91 0.950 . S
C103 C99 1.393 . S
C103 C102 1.391 . S
H104 C112 0.950 . S
H105 C117 0.950 . S
H106 C114 0.950 . S
H107 C116 0.950 . S
H108 C118 0.950 . S
H109 C120 0.950 . S
H110 C122 0.950 . S
H111 C123 0.950 . S
C112 H104 0.950 . S
C112 C113 1.386 . S
C112 C114 1.391 . S
C113 C112 1.386 . S
C113 C117 1.393 . S
C114 H106 0.950 . S
C114 C112 1.391 . S
C114 C115 1.400 . S
C115 C114 1.400 . S
C115 C116 1.398 . S
C115 C121 1.491 . S
C116 H107 0.950 . S
C116 C115 1.398 . S
C116 C117 1.391 . S
C117 H105 0.950 . S
C117 C113 1.393 . S
C117 C116 1.391 . S
C118 H108 0.950 . S
C118 C119 1.386 . S
C118 C120 1.391 . S
C119 C118 1.386 . S
C119 C123 1.393 . S
C120 H109 0.950 . S
C120 C118 1.391 . S
C120 C121 1.400 . S
C121 C115 1.491 . S
C121 C120 1.400 . S
C121 C122 1.398 . S
C122 H110 0.950 . S
C122 C121 1.398 . S
C122 C123 1.391 . S
C123 H111 0.950 . S
C123 C119 1.393 . S
C123 C122 1.391 . S
H124 C132 0.950 . S
H125 C137 0.950 . S
H126 C134 0.950 . S
H127 C136 0.950 . S
H128 C138 0.950 . S
H129 C140 0.950 . S
H130 C142 0.950 . S
H131 C143 0.950 . S
C132 H124 0.950 . S
C132 C133 1.386 . S
C132 C134 1.391 . S
C133 C132 1.386 . S
C133 C137 1.393 . S
C134 H126 0.950 . S
C134 C132 1.391 . S
C134 C135 1.400 . S
C135 C134 1.400 . S
C135 C136 1.398 . S
C135 C141 1.491 1_655 S
C136 H127 0.950 . S
C136 C135 1.398 . S
C136 C137 1.391 . S
C137 H125 0.950 . S
C137 C133 1.393 . S
C137 C136 1.391 . S
C138 H128 0.950 . S
C138 C139 1.386 . S
C138 C140 1.391 . S
C139 C138 1.386 . S
C139 C143 1.393 . S
C140 H129 0.950 . S
C140 C138 1.391 . S
C140 C141 1.400 . S
C141 C135 1.491 1_455 S
C141 C140 1.400 . S
C141 C142 1.398 . S
C142 H130 0.950 . S
C142 C141 1.398 . S
C142 C143 1.391 . S
C143 H131 0.950 . S
C143 C139 1.393 . S
C143 C142 1.391 . S
H144 C152 0.950 1_556 S
H145 C157 0.950 . S
H146 C154 0.950 . S
H147 C156 0.950 . S
H148 C158 0.950 1_554 S
H149 C160 0.950 . S
H150 C162 0.967 . S
H151 C163 0.950 . S
C152 H144 0.950 1_554 S
C152 C153 1.386 . S
C152 C154 1.391 1_554 S
C153 C152 1.386 . S
C153 C157 1.393 . S
C154 H146 0.950 . S
C154 C152 1.391 1_556 S
C154 C155 1.400 1_556 S
C155 C154 1.400 1_554 S
C155 C156 1.398 . S
C155 C161 1.491 1_564 S
C156 H147 0.950 . S
C156 C155 1.398 . S
C156 C157 1.391 . S
C157 H145 0.950 . S
C157 C153 1.393 . S
C157 C156 1.391 . S
C158 H148 0.950 1_556 S
C158 C159 1.386 . S
C158 C160 1.391 1_556 S
C159 C158 1.386 . S
C159 C163 1.393 . S
C160 H149 0.950 . S
C160 C158 1.391 1_554 S
C160 C161 1.400 1_554 S
C161 C155 1.491 1_546 S
C161 C160 1.400 1_556 S
C161 C162 1.398 . S
C162 H150 0.967 . S
C162 C161 1.398 . S
C162 C163 1.391 . S
C163 H151 0.950 . S
C163 C159 1.393 . S
C163 C162 1.391 . S
H164 C172 0.950 . S
H165 C177 0.950 . S
H166 C174 0.950 . S
H167 C176 0.950 . S
H168 C178 0.950 . S
H169 C180 0.950 . S
H170 C182 0.950 . S
H171 C183 0.950 . S
C172 H164 0.950 . S
C172 C173 1.386 . S
C172 C174 1.391 . S
C173 C172 1.386 . S
C173 C177 1.393 . S
C174 H166 0.950 . S
C174 C172 1.391 . S
C174 C175 1.400 . S
C175 C174 1.400 . S
C175 C176 1.398 . S
C175 C181 1.491 . S
C176 H167 0.950 . S
C176 C175 1.398 . S
C176 C177 1.391 . S
C177 H165 0.950 . S
C177 C173 1.393 . S
C177 C176 1.391 . S
C178 H168 0.950 . S
C178 C179 1.386 . S
C178 C180 1.391 . S
C179 C178 1.386 . S
C179 C183 1.393 . S
C180 H169 0.950 . S
C180 C178 1.391 . S
C180 C181 1.400 . S
C181 C175 1.491 . S
C181 C180 1.400 . S
C181 C182 1.398 . S
C182 H170 0.950 . S
C182 C181 1.398 . S
C182 C183 1.391 . S
C183 H171 0.950 . S
C183 C179 1.393 . S
C183 C182 1.391 . S
H184 C192 0.950 . S
H185 C197 0.950 . S
H186 C194 0.950 . S
H187 C196 0.950 . S
H188 C198 0.950 . S
H189 C200 0.950 . S
H190 C202 0.950 1_455 S
H191 C203 0.950 . S
C192 H184 0.950 . S
C192 C193 1.386 . S
C192 C194 1.391 . S
C193 C192 1.386 . S
C193 C197 1.393 . S
C194 H186 0.950 . S
C194 C192 1.391 . S
C194 C195 1.400 . S
C195 C194 1.400 . S
C195 C196 1.398 . S
C195 C201 1.491 1_455 S
C196 H187 0.950 . S
C196 C195 1.398 . S
C196 C197 1.391 . S
C197 H185 0.950 . S
C197 C193 1.393 . S
C197 C196 1.391 . S
C198 H188 0.950 . S
C198 C199 1.386 . S
C198 C200 1.391 . S
C199 C198 1.386 . S
C199 C203 1.393 . S
C200 H189 0.950 . S
C200 C198 1.391 . S
C200 C201 1.400 . S
C201 C195 1.491 1_655 S
C201 C200 1.400 . S
C201 C202 1.398 . S
C202 H190 0.950 1_655 S
C202 C201 1.398 . S
C202 C203 1.391 . S
C203 H191 0.950 . S
C203 C199 1.393 . S
C203 C202 1.391 . S
H204 C212 0.950 . S
H205 C217 0.950 . S
H206 C214 0.950 . S
H207 C216 0.950 . S
H208 C218 0.950 . S
H209 C220 0.950 . S
H210 C222 0.950 . S
H211 C223 0.950 . S
C212 H204 0.950 . S
C212 C213 1.386 . S
C212 C214 1.391 . S
C213 C212 1.386 . S
C213 C217 1.393 . S
C214 H206 0.950 . S
C214 C212 1.391 . S
C214 C215 1.400 . S
C215 C214 1.400 . S
C215 C216 1.398 . S
C215 C221 1.491 . S
C216 H207 0.950 . S
C216 C215 1.398 . S
C216 C217 1.391 . S
C217 H205 0.950 . S
C217 C213 1.393 . S
C217 C216 1.391 . S
C218 H208 0.950 . S
C218 C219 1.386 . S
C218 C220 1.391 . S
C219 C218 1.386 . S
C219 C223 1.393 . S
C220 H209 0.950 . S
C220 C218 1.391 . S
C220 C221 1.400 . S
C221 C215 1.491 . S
C221 C220 1.400 . S
C221 C222 1.398 . S
C222 H210 0.950 . S
C222 C221 1.398 . S
C222 C223 1.391 . S
C223 H211 0.950 . S
C223 C219 1.393 . S
C223 C222 1.391 . S
H224 C232 0.950 . S
H225 C237 0.950 . S
H226 C234 0.950 . S
H227 C236 0.950 . S
H228 C238 0.950 . S
H229 C240 0.950 . S
H230 C242 0.950 . S
H231 C243 0.950 . S
C232 H224 0.950 . S
C232 C233 1.386 . S
C232 C234 1.391 . S
C233 C232 1.386 . S
C233 C237 1.393 . S
C234 H226 0.950 . S
C234 C232 1.391 . S
C234 C235 1.400 . S
C235 C234 1.400 . S
C235 C236 1.398 . S
C235 C241 1.491 . S
C236 H227 0.950 . S
C236 C235 1.398 . S
C236 C237 1.391 . S
C237 H225 0.950 . S
C237 C233 1.393 . S
C237 C236 1.391 . S
C238 H228 0.950 . S
C238 C239 1.386 . S
C238 C240 1.391 . S
C239 C238 1.386 . S
C239 C243 1.393 . S
C240 H229 0.950 . S
C240 C238 1.391 . S
C240 C241 1.400 . S
C241 C235 1.491 . S
C241 C240 1.400 . S
C241 C242 1.398 . S
C242 H230 0.950 . S
C242 C241 1.398 . S
C242 C243 1.391 . S
C243 H231 0.950 . S
C243 C239 1.393 . S
C243 C242 1.391 . S
H244 C252 0.950 . S
H245 C257 0.950 . S
H246 C254 0.950 . S
H247 C256 0.950 . S
H248 C258 0.950 . S
H249 C260 0.950 . S
H250 C262 0.950 . S
H251 C263 0.950 . S
C252 H244 0.950 . S
C252 C253 1.386 . S
C252 C254 1.391 . S
C253 C252 1.386 . S
C253 C257 1.393 . S
C254 H246 0.950 . S
C254 C252 1.391 . S
C254 C255 1.400 . S
C255 C254 1.400 . S
C255 C256 1.398 . S
C255 C261 1.491 . S
C256 H247 0.950 . S
C256 C255 1.398 . S
C256 C257 1.391 . S
C257 H245 0.950 . S
C257 C253 1.393 . S
C257 C256 1.391 . S
C258 H248 0.950 . S
C258 C259 1.386 . S
C258 C260 1.391 . S
C259 C258 1.386 . S
C259 C263 1.393 . S
C260 H249 0.950 . S
C260 C258 1.391 . S
C260 C261 1.400 . S
C261 C255 1.491 . S
C261 C260 1.400 . S
C261 C262 1.398 . S
C262 H250 0.950 . S
C262 C261 1.398 . S
C262 C263 1.391 . S
C263 H251 0.950 . S
C263 C259 1.393 . S
C263 C262 1.391 . S
H264 C272 0.950 . S
H265 C277 0.950 . S
H266 C274 0.950 . S
H267 C276 0.950 . S
H268 C278 0.950 1_554 S
H269 C280 0.950 . S
H270 C282 0.950 . S
H271 C283 0.950 . S
C272 H264 0.950 . S
C272 C273 1.386 . S
C272 C274 1.391 . S
C273 C272 1.386 . S
C273 C277 1.393 . S
C274 H266 0.950 . S
C274 C272 1.391 . S
C274 C275 1.400 . S
C275 C274 1.400 . S
C275 C276 1.398 . S
C275 C281 1.491 . S
C276 H267 0.950 . S
C276 C275 1.398 . S
C276 C277 1.391 . S
C277 H265 0.950 . S
C277 C273 1.393 . S
C277 C276 1.391 . S
C278 H268 0.950 1_556 S
C278 C279 1.386 . S
C278 C280 1.391 . S
C279 C278 1.386 . S
C279 C283 1.393 . S
C280 H269 0.950 . S
C280 C278 1.391 . S
C280 C281 1.400 . S
C281 C275 1.491 . S
C281 C280 1.400 . S
C281 C282 1.398 . S
C282 H270 0.950 . S
C282 C281 1.398 . S
C282 C283 1.391 . S
C283 H271 0.950 . S
C283 C279 1.393 . S
C283 C282 1.391 . S
H284 C292 0.950 1_556 S
H285 C297 0.950 . S
H286 C294 0.950 . S
H287 C296 0.950 . S
H288 C298 0.950 . S
H289 C300 0.950 . S
H290 C302 0.950 . S
H291 C303 0.950 . S
C292 H284 0.950 1_554 S
C292 C293 1.386 . S
C292 C294 1.391 . S
C293 C292 1.386 . S
C293 C297 1.393 . S
C294 H286 0.950 . S
C294 C292 1.391 . S
C294 C295 1.400 . S
C295 C294 1.400 . S
C295 C296 1.398 . S
C295 C301 1.491 . S
C296 H287 0.950 . S
C296 C295 1.398 . S
C296 C297 1.391 . S
C297 H285 0.950 . S
C297 C293 1.393 . S
C297 C296 1.391 . S
C298 H288 0.950 . S
C298 C299 1.386 . S
C298 C300 1.391 . S
C299 C298 1.386 . S
C299 C303 1.393 . S
C300 H289 0.950 . S
C300 C298 1.391 . S
C300 C301 1.400 . S
C301 C295 1.491 . S
C301 C300 1.400 . S
C301 C302 1.398 . S
C302 H290 0.950 . S
C302 C301 1.398 . S
C302 C303 1.391 . S
C303 H291 0.950 . S
C303 C299 1.393 . S
C303 C302 1.391 . S
H304 C312 0.950 . S
H305 C317 0.950 . S
H306 C314 0.950 . S
H307 C316 0.950 . S
H308 C318 0.950 . S
H309 C320 0.950 . S
H310 C322 0.950 . S
H311 C323 0.950 . S
C312 H304 0.950 . S
C312 C313 1.386 . S
C312 C314 1.391 . S
C313 C312 1.386 . S
C313 C317 1.393 . S
C314 H306 0.950 . S
C314 C312 1.391 . S
C314 C315 1.400 . S
C315 C314 1.400 . S
C315 C316 1.398 . S
C315 C321 1.491 . S
C316 H307 0.950 . S
C316 C315 1.398 . S
C316 C317 1.391 . S
C317 H305 0.950 . S
C317 C313 1.393 . S
C317 C316 1.391 . S
C318 H308 0.950 . S
C318 C319 1.386 . S
C318 C320 1.391 . S
C319 C318 1.386 . S
C319 C323 1.393 . S
C320 H309 0.950 . S
C320 C318 1.391 . S
C320 C321 1.400 . S
C321 C315 1.491 . S
C321 C320 1.400 . S
C321 C322 1.398 . S
C322 H310 0.950 . S
C322 C321 1.398 . S
C322 C323 1.391 . S
C323 H311 0.950 . S
C323 C319 1.393 . S
C323 C322 1.391 . S
C93 C9 1.610 . S
C99 C78 1.620 . S
C113 C8 1.617 . S
C119 C23 1.612 . S
C133 C37 1.603 . S
C139 C22 1.616 . S
C153 C51 1.603 . S
C159 C36 1.615 . S
C173 C65 1.611 . S
C179 C50 1.620 . S
C193 C79 1.605 . S
C199 C64 1.614 . S
C213 C3 1.455 . S
C219 C63 1.417 . S
C233 C77 1.432 . S
C239 C17 1.455 . S
C253 C31 1.455 . S
C259 C7 1.429 . S
C273 C21 1.431 . S
C279 C45 1.455 1_556 S
C293 C35 1.429 1_554 S
C299 C59 1.455 . S
C313 C73 1.456 . S
C319 C49 1.419 . S
