# Generated by pormake.
# Topology uli, (4)-cn, num edge types: 1
# Building blocks:
#     Node 0, Type 0, BuildingBlock: NAHDIM_clean_sbu_0, # of connection points: 4
#     Node 1, Type 0, BuildingBlock: NAHDIM_clean_sbu_0, # of connection points: 4
#     Node 2, Type 0, BuildingBlock: NAHDIM_clean_sbu_0, # of connection points: 4
#     Node 3, Type 0, BuildingBlock: NAHDIM_clean_sbu_0, # of connection points: 4
#     Node 4, Type 0, BuildingBlock: NAHDIM_clean_sbu_0, # of connection points: 4
#     Node 5, Type 0, BuildingBlock: NAHDIM_clean_sbu_0, # of connection points: 4
#     Node 6, Type 0, BuildingBlock: NAHDIM_clean_sbu_0, # of connection points: 4
#     Node 7, Type 0, BuildingBlock: NAHDIM_clean_sbu_0, # of connection points: 4
#     Node 8, Type 0, BuildingBlock: NAHDIM_clean_sbu_0, # of connection points: 4
#     Node 9, Type 0, BuildingBlock: NAHDIM_clean_sbu_0, # of connection points: 4
#     Node 10, Type 0, BuildingBlock: NAHDIM_clean_sbu_0, # of connection points: 4
#     Node 11, Type 0, BuildingBlock: NAHDIM_clean_sbu_0, # of connection points: 4
#     Node 12, Type 0, BuildingBlock: NAHDIM_clean_sbu_0, # of connection points: 4
#     Node 13, Type 0, BuildingBlock: NAHDIM_clean_sbu_0, # of connection points: 4
#     Node 14, Type 0, BuildingBlock: NAHDIM_clean_sbu_0, # of connection points: 4
#     Node 15, Type 0, BuildingBlock: NAHDIM_clean_sbu_0, # of connection points: 4
#     Node 16, Type 0, BuildingBlock: NAHDIM_clean_sbu_0, # of connection points: 4
#     Node 17, Type 0, BuildingBlock: NAHDIM_clean_sbu_0, # of connection points: 4
#     Node 18, Type 0, BuildingBlock: NAHDIM_clean_sbu_0, # of connection points: 4
#     Node 19, Type 0, BuildingBlock: NAHDIM_clean_sbu_0, # of connection points: 4
#     Node 20, Type 0, BuildingBlock: NAHDIM_clean_sbu_0, # of connection points: 4
#     Node 21, Type 0, BuildingBlock: NAHDIM_clean_sbu_0, # of connection points: 4
#     Node 22, Type 0, BuildingBlock: NAHDIM_clean_sbu_0, # of connection points: 4
#     Node 23, Type 0, BuildingBlock: NAHDIM_clean_sbu_0, # of connection points: 4
#     Node 24, Type 0, BuildingBlock: NAHDIM_clean_sbu_0, # of connection points: 4
#     Node 25, Type 0, BuildingBlock: NAHDIM_clean_sbu_0, # of connection points: 4
#     Node 26, Type 0, BuildingBlock: NAHDIM_clean_sbu_0, # of connection points: 4
#     Node 27, Type 0, BuildingBlock: NAHDIM_clean_sbu_0, # of connection points: 4
#     Node 28, Type 0, BuildingBlock: NAHDIM_clean_sbu_0, # of connection points: 4
#     Node 29, Type 0, BuildingBlock: NAHDIM_clean_sbu_0, # of connection points: 4
#     Node 30, Type 0, BuildingBlock: NAHDIM_clean_sbu_0, # of connection points: 4
#     Node 31, Type 0, BuildingBlock: NAHDIM_clean_sbu_0, # of connection points: 4
#     Node 32, Type 0, BuildingBlock: NAHDIM_clean_sbu_0, # of connection points: 4
#     Node 33, Type 0, BuildingBlock: NAHDIM_clean_sbu_0, # of connection points: 4
#     Node 34, Type 0, BuildingBlock: NAHDIM_clean_sbu_0, # of connection points: 4
#     Node 35, Type 0, BuildingBlock: NAHDIM_clean_sbu_0, # of connection points: 4
#     Node 36, Type 0, BuildingBlock: NAHDIM_clean_sbu_0, # of connection points: 4
#     Node 37, Type 0, BuildingBlock: NAHDIM_clean_sbu_0, # of connection points: 4
#     Node 38, Type 0, BuildingBlock: NAHDIM_clean_sbu_0, # of connection points: 4
#     Node 39, Type 0, BuildingBlock: NAHDIM_clean_sbu_0, # of connection points: 4
#     Node 40, Type 0, BuildingBlock: NAHDIM_clean_sbu_0, # of connection points: 4
#     Node 41, Type 0, BuildingBlock: NAHDIM_clean_sbu_0, # of connection points: 4
#     Node 42, Type 0, BuildingBlock: NAHDIM_clean_sbu_0, # of connection points: 4
#     Node 43, Type 0, BuildingBlock: NAHDIM_clean_sbu_0, # of connection points: 4
#     Node 44, Type 0, BuildingBlock: NAHDIM_clean_sbu_0, # of connection points: 4
#     Node 45, Type 0, BuildingBlock: NAHDIM_clean_sbu_0, # of connection points: 4
#     Node 46, Type 0, BuildingBlock: NAHDIM_clean_sbu_0, # of connection points: 4
#     Node 47, Type 0, BuildingBlock: NAHDIM_clean_sbu_0, # of connection points: 4
#     Edge 48, Type (0, 0), BuildingBlock: ZUJKAS_clean_linker_0, # of connection points: 2
#     Edge 49, Type (0, 0), BuildingBlock: ZUJKAS_clean_linker_0, # of connection points: 2
#     Edge 50, Type (0, 0), BuildingBlock: ZUJKAS_clean_linker_0, # of connection points: 2
#     Edge 51, Type (0, 0), BuildingBlock: ZUJKAS_clean_linker_0, # of connection points: 2
#     Edge 52, Type (0, 0), BuildingBlock: ZUJKAS_clean_linker_0, # of connection points: 2
#     Edge 53, Type (0, 0), BuildingBlock: ZUJKAS_clean_linker_0, # of connection points: 2
#     Edge 54, Type (0, 0), BuildingBlock: ZUJKAS_clean_linker_0, # of connection points: 2
#     Edge 55, Type (0, 0), BuildingBlock: ZUJKAS_clean_linker_0, # of connection points: 2
#     Edge 56, Type (0, 0), BuildingBlock: ZUJKAS_clean_linker_0, # of connection points: 2
#     Edge 57, Type (0, 0), BuildingBlock: ZUJKAS_clean_linker_0, # of connection points: 2
#     Edge 58, Type (0, 0), BuildingBlock: ZUJKAS_clean_linker_0, # of connection points: 2
#     Edge 59, Type (0, 0), BuildingBlock: ZUJKAS_clean_linker_0, # of connection points: 2
#     Edge 60, Type (0, 0), BuildingBlock: ZUJKAS_clean_linker_0, # of connection points: 2
#     Edge 61, Type (0, 0), BuildingBlock: ZUJKAS_clean_linker_0, # of connection points: 2
#     Edge 62, Type (0, 0), BuildingBlock: ZUJKAS_clean_linker_0, # of connection points: 2
#     Edge 63, Type (0, 0), BuildingBlock: ZUJKAS_clean_linker_0, # of connection points: 2
#     Edge 64, Type (0, 0), BuildingBlock: ZUJKAS_clean_linker_0, # of connection points: 2
#     Edge 65, Type (0, 0), BuildingBlock: ZUJKAS_clean_linker_0, # of connection points: 2
#     Edge 66, Type (0, 0), BuildingBlock: ZUJKAS_clean_linker_0, # of connection points: 2
#     Edge 67, Type (0, 0), BuildingBlock: ZUJKAS_clean_linker_0, # of connection points: 2
#     Edge 68, Type (0, 0), BuildingBlock: ZUJKAS_clean_linker_0, # of connection points: 2
#     Edge 69, Type (0, 0), BuildingBlock: ZUJKAS_clean_linker_0, # of connection points: 2
#     Edge 70, Type (0, 0), BuildingBlock: ZUJKAS_clean_linker_0, # of connection points: 2
#     Edge 71, Type (0, 0), BuildingBlock: ZUJKAS_clean_linker_0, # of connection points: 2
#     Edge 72, Type (0, 0), BuildingBlock: ZUJKAS_clean_linker_0, # of connection points: 2
#     Edge 73, Type (0, 0), BuildingBlock: ZUJKAS_clean_linker_0, # of connection points: 2
#     Edge 74, Type (0, 0), BuildingBlock: ZUJKAS_clean_linker_0, # of connection points: 2
#     Edge 75, Type (0, 0), BuildingBlock: ZUJKAS_clean_linker_0, # of connection points: 2
#     Edge 76, Type (0, 0), BuildingBlock: ZUJKAS_clean_linker_0, # of connection points: 2
#     Edge 77, Type (0, 0), BuildingBlock: ZUJKAS_clean_linker_0, # of connection points: 2
#     Edge 78, Type (0, 0), BuildingBlock: ZUJKAS_clean_linker_0, # of connection points: 2
#     Edge 79, Type (0, 0), BuildingBlock: ZUJKAS_clean_linker_0, # of connection points: 2
#     Edge 80, Type (0, 0), BuildingBlock: ZUJKAS_clean_linker_0, # of connection points: 2
#     Edge 81, Type (0, 0), BuildingBlock: ZUJKAS_clean_linker_0, # of connection points: 2
#     Edge 82, Type (0, 0), BuildingBlock: ZUJKAS_clean_linker_0, # of connection points: 2
#     Edge 83, Type (0, 0), BuildingBlock: ZUJKAS_clean_linker_0, # of connection points: 2
#     Edge 84, Type (0, 0), BuildingBlock: ZUJKAS_clean_linker_0, # of connection points: 2
#     Edge 85, Type (0, 0), BuildingBlock: ZUJKAS_clean_linker_0, # of connection points: 2
#     Edge 86, Type (0, 0), BuildingBlock: ZUJKAS_clean_linker_0, # of connection points: 2
#     Edge 87, Type (0, 0), BuildingBlock: ZUJKAS_clean_linker_0, # of connection points: 2
#     Edge 88, Type (0, 0), BuildingBlock: ZUJKAS_clean_linker_0, # of connection points: 2
#     Edge 89, Type (0, 0), BuildingBlock: ZUJKAS_clean_linker_0, # of connection points: 2
#     Edge 90, Type (0, 0), BuildingBlock: ZUJKAS_clean_linker_0, # of connection points: 2
#     Edge 91, Type (0, 0), BuildingBlock: ZUJKAS_clean_linker_0, # of connection points: 2
#     Edge 92, Type (0, 0), BuildingBlock: ZUJKAS_clean_linker_0, # of connection points: 2
#     Edge 93, Type (0, 0), BuildingBlock: ZUJKAS_clean_linker_0, # of connection points: 2
#     Edge 94, Type (0, 0), BuildingBlock: ZUJKAS_clean_linker_0, # of connection points: 2
#     Edge 95, Type (0, 0), BuildingBlock: ZUJKAS_clean_linker_0, # of connection points: 2
#     Edge 96, Type (0, 0), BuildingBlock: ZUJKAS_clean_linker_0, # of connection points: 2
#     Edge 97, Type (0, 0), BuildingBlock: ZUJKAS_clean_linker_0, # of connection points: 2
#     Edge 98, Type (0, 0), BuildingBlock: ZUJKAS_clean_linker_0, # of connection points: 2
#     Edge 99, Type (0, 0), BuildingBlock: ZUJKAS_clean_linker_0, # of connection points: 2
#     Edge 100, Type (0, 0), BuildingBlock: ZUJKAS_clean_linker_0, # of connection points: 2
#     Edge 101, Type (0, 0), BuildingBlock: ZUJKAS_clean_linker_0, # of connection points: 2
#     Edge 102, Type (0, 0), BuildingBlock: ZUJKAS_clean_linker_0, # of connection points: 2
#     Edge 103, Type (0, 0), BuildingBlock: ZUJKAS_clean_linker_0, # of connection points: 2
#     Edge 104, Type (0, 0), BuildingBlock: ZUJKAS_clean_linker_0, # of connection points: 2
#     Edge 105, Type (0, 0), BuildingBlock: ZUJKAS_clean_linker_0, # of connection points: 2
#     Edge 106, Type (0, 0), BuildingBlock: ZUJKAS_clean_linker_0, # of connection points: 2
#     Edge 107, Type (0, 0), BuildingBlock: ZUJKAS_clean_linker_0, # of connection points: 2
#     Edge 108, Type (0, 0), BuildingBlock: ZUJKAS_clean_linker_0, # of connection points: 2
#     Edge 109, Type (0, 0), BuildingBlock: ZUJKAS_clean_linker_0, # of connection points: 2
#     Edge 110, Type (0, 0), BuildingBlock: ZUJKAS_clean_linker_0, # of connection points: 2
#     Edge 111, Type (0, 0), BuildingBlock: ZUJKAS_clean_linker_0, # of connection points: 2
#     Edge 112, Type (0, 0), BuildingBlock: ZUJKAS_clean_linker_0, # of connection points: 2
#     Edge 113, Type (0, 0), BuildingBlock: ZUJKAS_clean_linker_0, # of connection points: 2
#     Edge 114, Type (0, 0), BuildingBlock: ZUJKAS_clean_linker_0, # of connection points: 2
#     Edge 115, Type (0, 0), BuildingBlock: ZUJKAS_clean_linker_0, # of connection points: 2
#     Edge 116, Type (0, 0), BuildingBlock: ZUJKAS_clean_linker_0, # of connection points: 2
#     Edge 117, Type (0, 0), BuildingBlock: ZUJKAS_clean_linker_0, # of connection points: 2
#     Edge 118, Type (0, 0), BuildingBlock: ZUJKAS_clean_linker_0, # of connection points: 2
#     Edge 119, Type (0, 0), BuildingBlock: ZUJKAS_clean_linker_0, # of connection points: 2
#     Edge 120, Type (0, 0), BuildingBlock: ZUJKAS_clean_linker_0, # of connection points: 2
#     Edge 121, Type (0, 0), BuildingBlock: ZUJKAS_clean_linker_0, # of connection points: 2
#     Edge 122, Type (0, 0), BuildingBlock: ZUJKAS_clean_linker_0, # of connection points: 2
#     Edge 123, Type (0, 0), BuildingBlock: ZUJKAS_clean_linker_0, # of connection points: 2
#     Edge 124, Type (0, 0), BuildingBlock: ZUJKAS_clean_linker_0, # of connection points: 2
#     Edge 125, Type (0, 0), BuildingBlock: ZUJKAS_clean_linker_0, # of connection points: 2
#     Edge 126, Type (0, 0), BuildingBlock: ZUJKAS_clean_linker_0, # of connection points: 2
#     Edge 127, Type (0, 0), BuildingBlock: ZUJKAS_clean_linker_0, # of connection points: 2
#     Edge 128, Type (0, 0), BuildingBlock: ZUJKAS_clean_linker_0, # of connection points: 2
#     Edge 129, Type (0, 0), BuildingBlock: ZUJKAS_clean_linker_0, # of connection points: 2
#     Edge 130, Type (0, 0), BuildingBlock: ZUJKAS_clean_linker_0, # of connection points: 2
#     Edge 131, Type (0, 0), BuildingBlock: ZUJKAS_clean_linker_0, # of connection points: 2
#     Edge 132, Type (0, 0), BuildingBlock: ZUJKAS_clean_linker_0, # of connection points: 2
#     Edge 133, Type (0, 0), BuildingBlock: ZUJKAS_clean_linker_0, # of connection points: 2
#     Edge 134, Type (0, 0), BuildingBlock: ZUJKAS_clean_linker_0, # of connection points: 2
#     Edge 135, Type (0, 0), BuildingBlock: ZUJKAS_clean_linker_0, # of connection points: 2
#     Edge 136, Type (0, 0), BuildingBlock: ZUJKAS_clean_linker_0, # of connection points: 2
#     Edge 137, Type (0, 0), BuildingBlock: ZUJKAS_clean_linker_0, # of connection points: 2
#     Edge 138, Type (0, 0), BuildingBlock: ZUJKAS_clean_linker_0, # of connection points: 2
#     Edge 139, Type (0, 0), BuildingBlock: ZUJKAS_clean_linker_0, # of connection points: 2
#     Edge 140, Type (0, 0), BuildingBlock: ZUJKAS_clean_linker_0, # of connection points: 2
#     Edge 141, Type (0, 0), BuildingBlock: ZUJKAS_clean_linker_0, # of connection points: 2
#     Edge 142, Type (0, 0), BuildingBlock: ZUJKAS_clean_linker_0, # of connection points: 2
#     Edge 143, Type (0, 0), BuildingBlock: ZUJKAS_clean_linker_0, # of connection points: 2
# Relax obj value: 0.429
# Max RMSD: 0.220
# Mean RMSD: 0.220
data_MOF--net-uli--node1-NAHDIM_clean_sbu_0--edge1-ZUJKAS_clean_linker_0
_symmetry_space_group_name_H-M    P1
_symmetry_Int_Tables_number       1
_symmetry_cell_setting            triclinic
loop_
_symmetry_equiv_pos_as_xyz
'x, y, z'
_cell_length_a     86.663465
_cell_length_b     86.652093
_cell_length_c     86.66274
_cell_angle_alpha  89.99255
_cell_angle_beta   90.001286
_cell_angle_gamma 90.000416
loop_
_atom_site_label
_atom_site_type_symbol
_atom_site_fract_x
_atom_site_fract_y
_atom_site_fract_z
_atom_type_partial_charge
C0 C 0.06975 0.2706 0.21468 0.0
O1 O 0.08142 0.27179 0.22429 0.0
O2 O 0.10643 0.28678 0.20546 0.0
Zn3 Zn 0.09527 0.26839 0.1965 0.0
O4 O 0.10133 0.24901 0.20773 0.0
C5 C 0.10896 0.27543 0.16698 0.0
O6 O 0.11094 0.28911 0.1732 0.0
O7 O 0.07254 0.27009 0.20029 0.0
C8 C 0.11301 0.24083 0.20437 0.0
O9 O 0.1222 0.24524 0.19315 0.0
C10 C 0.11519 0.28552 0.21716 0.0
O11 O 0.11688 0.27197 0.22373 0.0
O12 O 0.10125 0.26533 0.17431 0.0
C13 C 0.72493 0.06738 0.20963 0.0
O14 O 0.71887 0.07635 0.22025 0.0
O15 O 0.70913 0.10506 0.20669 0.0
Zn16 Zn 0.72853 0.09641 0.19724 0.0
O17 O 0.74636 0.10155 0.21113 0.0
C18 C 0.72262 0.11501 0.17025 0.0
O19 O 0.70845 0.11493 0.1756 0.0
O20 O 0.72862 0.07332 0.19673 0.0
C21 C 0.75958 0.09637 0.20749 0.0
O22 O 0.76108 0.08829 0.19475 0.0
C23 C 0.71027 0.11837 0.21272 0.0
O24 O 0.72367 0.12544 0.21242 0.0
O25 O 0.73279 0.10677 0.17688 0.0
C26 C 0.9346 0.71971 0.20155 0.0
O27 O 0.92826 0.70847 0.20949 0.0
O28 O 0.89591 0.70484 0.20077 0.0
Zn29 Zn 0.90321 0.72542 0.19267 0.0
O30 O 0.89653 0.7422 0.20725 0.0
C31 C 0.88117 0.72315 0.16812 0.0
O32 O 0.87605 0.71184 0.17683 0.0
O33 O 0.92631 0.72736 0.19219 0.0
C34 C 0.88294 0.74766 0.20766 0.0
O35 O 0.87231 0.74182 0.19857 0.0
C36 C 0.8938 0.70275 0.21513 0.0
O37 O 0.89727 0.71389 0.22481 0.0
O38 O 0.89342 0.73019 0.1721 0.0
C39 C 0.27858 0.93609 0.19222 0.0
O40 O 0.29118 0.9299 0.19792 0.0
O41 O 0.28866 0.89697 0.19755 0.0
Zn42 Zn 0.27014 0.90447 0.18572 0.0
O43 O 0.25122 0.89805 0.19752 0.0
C44 C 0.27718 0.88276 0.16173 0.0
O45 O 0.28792 0.87865 0.1716 0.0
O46 O 0.26901 0.92756 0.1851 0.0
C47 C 0.24546 0.8846 0.19667 0.0
O48 O 0.25212 0.87422 0.18786 0.0
C49 C 0.28841 0.89683 0.21221 0.0
O50 O 0.27629 0.90238 0.21943 0.0
O51 O 0.26881 0.89443 0.16478 0.0
C52 C 0.07583 0.73233 0.78075 0.0
O53 O 0.08814 0.73216 0.77191 0.0
O54 O 0.11119 0.71384 0.78959 0.0
Zn55 Zn 0.10019 0.73134 0.8004 0.0
O56 O 0.10751 0.7517 0.79195 0.0
C57 C 0.11449 0.72162 0.8287 0.0
O58 O 0.11734 0.70908 0.82069 0.0
O59 O 0.07758 0.73081 0.79524 0.0
C60 C 0.09942 0.76366 0.79451 0.0
O61 O 0.08692 0.76244 0.803 0.0
C62 C 0.12043 0.71635 0.77849 0.0
O63 O 0.12287 0.7306 0.77394 0.0
O64 O 0.10562 0.73181 0.82297 0.0
C65 C 0.27829 0.06279 0.79786 0.0
O66 O 0.28854 0.07076 0.79003 0.0
O67 O 0.28845 0.10187 0.79774 0.0
Zn68 Zn 0.26965 0.09286 0.808 0.0
O69 O 0.25113 0.09882 0.79522 0.0
C70 C 0.27742 0.10941 0.83603 0.0
O71 O 0.29153 0.10889 0.83054 0.0
O72 O 0.26986 0.06973 0.80765 0.0
C73 C 0.24216 0.10986 0.79879 0.0
O74 O 0.24507 0.11809 0.81118 0.0
C75 C 0.2888 0.1163 0.79524 0.0
O76 O 0.27712 0.12485 0.79977 0.0
O77 O 0.2668 0.10202 0.82912 0.0
C78 C 0.93997 0.27611 0.80223 0.0
O79 O 0.93356 0.28826 0.79583 0.0
O80 O 0.90075 0.28593 0.79674 0.0
Zn81 Zn 0.90851 0.26793 0.80928 0.0
O82 O 0.90243 0.24841 0.79836 0.0
C83 C 0.88516 0.27419 0.83154 0.0
O84 O 0.88068 0.28359 0.82053 0.0
O85 O 0.93163 0.26703 0.81017 0.0
C86 C 0.88881 0.24595 0.79355 0.0
O87 O 0.8782 0.25659 0.79556 0.0
C88 C 0.90039 0.28544 0.78209 0.0
O89 O 0.90635 0.27347 0.77495 0.0
O90 O 0.89786 0.267 0.82999 0.0
C91 C 0.72089 0.93456 0.79782 0.0
O92 O 0.70901 0.92792 0.79115 0.0
O93 O 0.71085 0.89454 0.79495 0.0
Zn94 Zn 0.73 0.90321 0.80488 0.0
O95 O 0.74841 0.89768 0.79199 0.0
C96 C 0.72311 0.88465 0.83172 0.0
O97 O 0.70951 0.88349 0.82514 0.0
O98 O 0.73021 0.92635 0.8056 0.0
C99 C 0.75095 0.88424 0.78675 0.0
O100 O 0.74101 0.87315 0.78959 0.0
C101 C 0.70897 0.89385 0.78042 0.0
O102 O 0.71955 0.89972 0.77128 0.0
O103 O 0.73328 0.8933 0.82563 0.0
C104 C 0.20991 0.06187 0.27157 0.0
O105 O 0.21972 0.0718 0.27749 0.0
O106 O 0.20441 0.09993 0.28508 0.0
Zn107 Zn 0.19475 0.08967 0.26668 0.0
O108 O 0.20683 0.09599 0.24797 0.0
C109 C 0.16535 0.1041 0.2738 0.0
O110 O 0.17035 0.1037 0.28811 0.0
O111 O 0.19673 0.06669 0.26732 0.0
C112 C 0.20204 0.09131 0.23493 0.0
O113 O 0.18947 0.08285 0.23431 0.0
C114 C 0.20537 0.11455 0.28469 0.0
O115 O 0.19965 0.12196 0.27276 0.0
O116 O 0.17321 0.09753 0.26332 0.0
C117 C 0.92541 0.21143 0.26874 0.0
O118 O 0.91341 0.22068 0.26896 0.0
O119 O 0.89078 0.20231 0.28936 0.0
Zn120 Zn 0.90051 0.19236 0.27064 0.0
O121 O 0.89208 0.20224 0.25145 0.0
C122 C 0.88729 0.16328 0.27999 0.0
O123 O 0.88545 0.17048 0.2932 0.0
O124 O 0.92321 0.19699 0.27018 0.0
C125 C 0.89621 0.19758 0.23819 0.0
O126 O 0.90551 0.18566 0.23708 0.0
C127 C 0.88249 0.21434 0.28798 0.0
O128 O 0.88023 0.22024 0.2742 0.0
O129 O 0.89484 0.16989 0.2693 0.0
C130 C 0.8067 0.94152 0.27471 0.0
O131 O 0.80136 0.93595 0.28775 0.0
O132 O 0.79828 0.90255 0.28528 0.0
Zn133 Zn 0.80909 0.90939 0.26591 0.0
O134 O 0.79532 0.90472 0.24792 0.0
C135 C 0.83389 0.88831 0.27324 0.0
O136 O 0.82823 0.88931 0.28727 0.0
O137 O 0.81233 0.93228 0.26481 0.0
C138 C 0.78876 0.89175 0.24609 0.0
O139 O 0.7908 0.88088 0.25646 0.0
C140 C 0.78395 0.90484 0.28739 0.0
O141 O 0.77608 0.91262 0.27703 0.0
O142 O 0.82829 0.89678 0.26266 0.0
C143 C 0.05994 0.79471 0.27569 0.0
O144 O 0.06633 0.78671 0.28686 0.0
O145 O 0.099 0.79508 0.29001 0.0
Zn146 Zn 0.09139 0.80283 0.26942 0.0
O147 O 0.09777 0.78783 0.25294 0.0
C148 C 0.11101 0.82969 0.27297 0.0
O149 O 0.11222 0.82483 0.28728 0.0
O150 O 0.0683 0.80381 0.26779 0.0
C151 C 0.11142 0.78774 0.24763 0.0
O152 O 0.12171 0.79718 0.25353 0.0
C153 C 0.10089 0.78073 0.29234 0.0
O154 O 0.09701 0.7709 0.28146 0.0
O155 O 0.10177 0.82285 0.26387 0.0
C156 C 0.21168 0.93342 0.72235 0.0
O157 O 0.22124 0.92275 0.71739 0.0
O158 O 0.20233 0.89565 0.70833 0.0
Zn159 Zn 0.19451 0.90676 0.72712 0.0
O160 O 0.20692 0.89983 0.74541 0.0
C161 C 0.16384 0.89375 0.72257 0.0
O162 O 0.16838 0.89167 0.70826 0.0
O163 O 0.19803 0.92951 0.72598 0.0
C164 C 0.20412 0.90645 0.7582 0.0
O165 O 0.19342 0.91718 0.75871 0.0
C166 C 0.2031 0.88103 0.70915 0.0
O167 O 0.19848 0.87414 0.72184 0.0
O168 O 0.17259 0.90095 0.73188 0.0
C169 C 0.06194 0.20377 0.71969 0.0
O170 O 0.0687 0.21244 0.70926 0.0
O171 O 0.10047 0.2019 0.7041 0.0
Zn172 Zn 0.09288 0.19367 0.72453 0.0
O173 O 0.09969 0.20805 0.74138 0.0
C174 C 0.11168 0.16648 0.71974 0.0
O175 O 0.113 0.17206 0.7057 0.0
O176 O 0.06979 0.19339 0.72644 0.0
C177 C 0.11318 0.20771 0.74708 0.0
O178 O 0.12336 0.19797 0.74149 0.0
C179 C 0.10329 0.21619 0.70241 0.0
O180 O 0.10037 0.2257 0.71385 0.0
O181 O 0.10272 0.17315 0.72924 0.0
C182 C 0.78646 0.06596 0.72468 0.0
O183 O 0.77631 0.07562 0.71887 0.0
O184 O 0.79171 0.10412 0.71062 0.0
Zn185 Zn 0.80056 0.09422 0.72965 0.0
O186 O 0.78708 0.09992 0.7476 0.0
C187 C 0.8295 0.11046 0.7246 0.0
O188 O 0.82473 0.11128 0.71023 0.0
O189 O 0.79947 0.07117 0.72896 0.0
C190 C 0.7919 0.0965 0.76101 0.0
O191 O 0.80547 0.08989 0.7625 0.0
C192 C 0.7895 0.1186 0.71125 0.0
O193 O 0.79333 0.12606 0.72388 0.0
O194 O 0.82168 0.10272 0.7343 0.0
C195 C 0.93155 0.78871 0.72395 0.0
O196 O 0.9202 0.77867 0.72399 0.0
O197 O 0.89467 0.79465 0.70715 0.0
Zn198 Zn 0.90533 0.80603 0.72453 0.0
O199 O 0.89925 0.7967 0.74485 0.0
C200 C 0.88859 0.8331 0.71536 0.0
O201 O 0.88652 0.82513 0.70264 0.0
O202 O 0.92827 0.80301 0.72327 0.0
C203 C 0.88644 0.79956 0.75137 0.0
O204 O 0.8765 0.80872 0.74451 0.0
C205 C 0.88726 0.78218 0.70935 0.0
O206 O 0.88666 0.77624 0.72328 0.0
O207 O 0.89802 0.82805 0.72541 0.0
C208 C 0.26985 0.21114 0.06691 0.0
O209 O 0.27482 0.22097 0.07732 0.0
O210 O 0.28684 0.20298 0.10354 0.0
Zn211 Zn 0.26762 0.19433 0.09386 0.0
O212 O 0.24965 0.20684 0.10138 0.0
C213 C 0.27354 0.16459 0.10822 0.0
O214 O 0.2876 0.16998 0.10993 0.0
O215 O 0.26726 0.19729 0.07099 0.0
C216 C 0.23648 0.20396 0.0956 0.0
O217 O 0.2352 0.19279 0.08542 0.0
C218 C 0.28657 0.20477 0.11808 0.0
O219 O 0.27419 0.20056 0.12576 0.0
O220 O 0.26371 0.17247 0.10072 0.0
C221 C 0.27519 0.80524 0.9416 0.0
O222 O 0.28812 0.79962 0.93605 0.0
O223 O 0.28686 0.79889 0.90292 0.0
Zn224 Zn 0.26776 0.81042 0.9095 0.0
O225 O 0.24921 0.79803 0.9032 0.0
C226 C 0.27321 0.83241 0.88566 0.0
O227 O 0.28256 0.8214 0.88105 0.0
O228 O 0.2659 0.81203 0.93251 0.0
C229 C 0.24772 0.79181 0.89002 0.0
O230 O 0.25877 0.7934 0.87976 0.0
C231 C 0.28762 0.78427 0.90376 0.0
O232 O 0.27611 0.77661 0.90999 0.0
O233 O 0.2661 0.83081 0.89839 0.0
C234 C 0.19222 0.27727 0.9387 0.0
O235 O 0.19736 0.29052 0.93342 0.0
O236 O 0.20155 0.28814 0.90009 0.0
Zn237 Zn 0.19065 0.26864 0.9064 0.0
O238 O 0.20435 0.25064 0.90143 0.0
C239 C 0.16611 0.27612 0.885 0.0
O240 O 0.17224 0.28998 0.88547 0.0
O241 O 0.18725 0.26725 0.92923 0.0
C242 C 0.21172 0.24942 0.88883 0.0
O243 O 0.21063 0.26046 0.87849 0.0
C244 C 0.21584 0.29015 0.9027 0.0
O245 O 0.22352 0.27957 0.91038 0.0
O246 O 0.17142 0.26566 0.8938 0.0
C247 C 0.72254 0.20042 0.93557 0.0
O248 O 0.71496 0.20953 0.92612 0.0
O249 O 0.71079 0.19658 0.89731 0.0
Zn250 Zn 0.72917 0.18633 0.90722 0.0
O251 O 0.7482 0.19827 0.9014 0.0
C252 C 0.72099 0.15684 0.89344 0.0
O253 O 0.70679 0.16208 0.89434 0.0
O254 O 0.72845 0.18809 0.93026 0.0
C255 C 0.75616 0.19561 0.88939 0.0
O256 O 0.75175 0.18475 0.87977 0.0
C257 C 0.70908 0.1965 0.88275 0.0
O258 O 0.71915 0.18912 0.87417 0.0
O259 O 0.73188 0.16468 0.89934 0.0
C260 C 0.80388 0.72206 0.94279 0.0
O261 O 0.79868 0.70857 0.93825 0.0
O262 O 0.79603 0.70793 0.90501 0.0
Zn263 Zn 0.80611 0.72819 0.91015 0.0
O264 O 0.79174 0.74519 0.90373 0.0
C265 C 0.82291 0.72808 0.88309 0.0
O266 O 0.80943 0.72254 0.87888 0.0
O267 O 0.8093 0.73133 0.93282 0.0
C268 C 0.79671 0.75894 0.9048 0.0
O269 O 0.81081 0.76127 0.90989 0.0
C270 C 0.78153 0.70636 0.90648 0.0
O271 O 0.77349 0.71764 0.91264 0.0
O272 O 0.82518 0.73103 0.89728 0.0
C273 C 0.7233 0.79345 0.06628 0.0
O274 O 0.71788 0.78335 0.07621 0.0
O275 O 0.70809 0.79788 0.10361 0.0
Zn276 Zn 0.72621 0.80877 0.09401 0.0
O277 O 0.74525 0.79725 0.10046 0.0
C278 C 0.71819 0.83659 0.11063 0.0
O279 O 0.70467 0.82987 0.11195 0.0
O280 O 0.72633 0.807 0.071 0.0
C281 C 0.75829 0.8015 0.09527 0.0
O282 O 0.75901 0.81356 0.08611 0.0
C283 C 0.70964 0.79399 0.11766 0.0
O284 O 0.7223 0.79795 0.125 0.0
O285 O 0.72849 0.83031 0.10229 0.0
C286 C 0.20191 0.71952 0.06031 0.0
O287 O 0.21091 0.70924 0.06684 0.0
O288 O 0.20279 0.70515 0.0992 0.0
Zn289 Zn 0.19322 0.72489 0.09152 0.0
O290 O 0.2069 0.74274 0.0972 0.0
C291 C 0.16648 0.71847 0.11055 0.0
O292 O 0.17161 0.70422 0.11009 0.0
O293 O 0.19163 0.72608 0.06844 0.0
C294 C 0.20325 0.75582 0.09167 0.0
O295 O 0.19091 0.75691 0.08292 0.0
C296 C 0.21727 0.704 0.10121 0.0
O297 O 0.22622 0.71566 0.09746 0.0
O298 O 0.17319 0.72875 0.10252 0.0
C299 C 0.79875 0.27889 0.05727 0.0
O300 O 0.79185 0.29096 0.0633 0.0
O301 O 0.79754 0.29209 0.09659 0.0
Zn302 Zn 0.80636 0.27197 0.08895 0.0
O303 O 0.79265 0.25455 0.09566 0.0
C304 C 0.83202 0.27629 0.1096 0.0
O305 O 0.82478 0.28923 0.11273 0.0
O306 O 0.80695 0.27033 0.06589 0.0
C307 C 0.78778 0.25297 0.10939 0.0
O308 O 0.79133 0.26343 0.11977 0.0
C309 C 0.7831 0.29445 0.09759 0.0
O310 O 0.7735 0.28383 0.0926 0.0
O311 O 0.8269 0.26768 0.0989 0.0
C312 C 0.55891 0.77891 0.69794 0.0
O313 O 0.56592 0.79059 0.70458 0.0
O314 O 0.59909 0.78812 0.70036 0.0
Zn315 Zn 0.5899 0.76944 0.69 0.0
O316 O 0.59552 0.75059 0.70221 0.0
C317 C 0.60918 0.77565 0.66353 0.0
O318 O 0.61157 0.78883 0.67062 0.0
O319 O 0.56676 0.76958 0.68981 0.0
C320 C 0.6094 0.74734 0.70561 0.0
O321 O 0.62046 0.75683 0.70142 0.0
C322 C 0.6001 0.78908 0.71496 0.0
O323 O 0.59431 0.77798 0.72352 0.0
O324 O 0.59939 0.76625 0.66908 0.0
C325 C 0.22861 0.55783 0.70273 0.0
O326 O 0.22201 0.56775 0.71209 0.0
O327 O 0.21697 0.59633 0.69792 0.0
Zn328 Zn 0.23486 0.58562 0.68762 0.0
O329 O 0.25405 0.59181 0.69927 0.0
C330 C 0.22643 0.60099 0.65932 0.0
O331 O 0.21264 0.60118 0.6656 0.0
O332 O 0.23385 0.56265 0.68991 0.0
C333 C 0.26421 0.6009 0.69386 0.0
O334 O 0.2623 0.60682 0.68003 0.0
C335 C 0.21861 0.61069 0.70038 0.0
O336 O 0.23132 0.61752 0.69574 0.0
O337 O 0.23707 0.59325 0.6658 0.0
C338 C 0.43889 0.21539 0.69257 0.0
O339 O 0.43293 0.20299 0.69893 0.0
O340 O 0.39983 0.20468 0.69885 0.0
Zn341 Zn 0.40704 0.22365 0.68754 0.0
O342 O 0.4016 0.242 0.7006 0.0
C343 C 0.38462 0.21724 0.66388 0.0
O344 O 0.38229 0.20483 0.67227 0.0
O345 O 0.43006 0.22469 0.68548 0.0
C346 C 0.3878 0.24668 0.70209 0.0
O347 O 0.37665 0.23928 0.69496 0.0
C348 C 0.39998 0.20437 0.71351 0.0
O349 O 0.40586 0.21612 0.72108 0.0
O350 O 0.39556 0.22633 0.66751 0.0
C351 C 0.7678 0.4244 0.71184 0.0
O352 O 0.76836 0.41267 0.72144 0.0
O353 O 0.78429 0.38808 0.70357 0.0
Zn354 Zn 0.76617 0.39892 0.69378 0.0
O355 O 0.74657 0.39303 0.70475 0.0
C356 C 0.77348 0.38468 0.66439 0.0
O357 O 0.78722 0.38281 0.67051 0.0
O358 O 0.76783 0.42168 0.69742 0.0
C359 C 0.73802 0.38168 0.70113 0.0
O360 O 0.74217 0.37244 0.68986 0.0
C361 C 0.78448 0.37348 0.70491 0.0
O362 O 0.77277 0.36544 0.69966 0.0
O363 O 0.76348 0.39262 0.67161 0.0
C364 C 0.55679 0.22046 0.30566 0.0
O365 O 0.56302 0.20767 0.30042 0.0
O366 O 0.59683 0.21083 0.3015 0.0
Zn367 Zn 0.58832 0.22933 0.31265 0.0
O368 O 0.59469 0.24809 0.30068 0.0
C369 C 0.60769 0.22189 0.33873 0.0
O370 O 0.60969 0.20887 0.33123 0.0
O371 O 0.56521 0.2301 0.31281 0.0
C372 C 0.60862 0.25026 0.2967 0.0
O373 O 0.61906 0.23989 0.30036 0.0
C374 C 0.59567 0.20968 0.28693 0.0
O375 O 0.58795 0.22024 0.27926 0.0
O376 O 0.59807 0.23169 0.33356 0.0
C377 C 0.77635 0.5592 0.30337 0.0
O378 O 0.789 0.56462 0.29704 0.0
O379 O 0.7879 0.59805 0.29597 0.0
Zn380 Zn 0.7687 0.59143 0.30729 0.0
O381 O 0.75031 0.59645 0.29416 0.0
C382 C 0.77557 0.6143 0.33046 0.0
O383 O 0.78821 0.61595 0.32226 0.0
O384 O 0.76728 0.56848 0.3102 0.0
C385 C 0.74853 0.60904 0.28689 0.0
O386 O 0.75933 0.61966 0.28765 0.0
C387 C 0.78956 0.59635 0.2815 0.0
O388 O 0.77877 0.58923 0.27358 0.0
O389 O 0.76608 0.60369 0.32689 0.0
C390 C 0.43102 0.77225 0.29121 0.0
O391 O 0.42071 0.77695 0.28113 0.0
O392 O 0.39462 0.78938 0.29742 0.0
Zn393 Zn 0.40367 0.7702 0.3068 0.0
O394 O 0.39666 0.75227 0.29392 0.0
C395 C 0.38819 0.77728 0.33548 0.0
O396 O 0.3889 0.79153 0.33035 0.0
O397 O 0.42669 0.76974 0.305 0.0
C398 C 0.40236 0.73906 0.29677 0.0
O399 O 0.4122 0.7376 0.30822 0.0
C400 C 0.38015 0.78927 0.29511 0.0
O401 O 0.37214 0.7771 0.29934 0.0
O402 O 0.39514 0.76669 0.32808 0.0
C403 C 0.22205 0.44197 0.29986 0.0
O404 O 0.20993 0.43547 0.29353 0.0
O405 O 0.21138 0.40238 0.2973 0.0
Zn406 Zn 0.23003 0.41072 0.30832 0.0
O407 O 0.24865 0.4041 0.29617 0.0
C408 C 0.22399 0.38987 0.33335 0.0
O409 O 0.21277 0.38551 0.32415 0.0
O410 O 0.23099 0.43384 0.30816 0.0
C411 C 0.25433 0.39063 0.29717 0.0
O412 O 0.24784 0.38051 0.30641 0.0
C413 C 0.21122 0.40171 0.28265 0.0
O414 O 0.22286 0.40753 0.27487 0.0
O415 O 0.23224 0.40139 0.32952 0.0
C416 C 0.71535 0.57069 0.76819 0.0
O417 O 0.72526 0.58207 0.76965 0.0
O418 O 0.70742 0.60576 0.78815 0.0
Zn419 Zn 0.69806 0.5968 0.76876 0.0
O420 O 0.70935 0.60399 0.74983 0.0
C421 C 0.67046 0.61394 0.77539 0.0
O422 O 0.678 0.61715 0.78814 0.0
O423 O 0.70101 0.57381 0.76848 0.0
C424 C 0.70943 0.61767 0.7446 0.0
O425 O 0.70218 0.62862 0.75217 0.0
C426 C 0.71979 0.61363 0.78826 0.0
O427 O 0.72729 0.61588 0.77528 0.0
O428 O 0.67614 0.60414 0.76606 0.0
C429 C 0.43175 0.71187 0.77678 0.0
O430 O 0.42243 0.72179 0.78344 0.0
O431 O 0.39379 0.70621 0.79173 0.0
Zn432 Zn 0.40329 0.6971 0.77247 0.0
O433 O 0.39652 0.70904 0.75377 0.0
C434 C 0.386 0.66909 0.77796 0.0
O435 O 0.3826 0.67588 0.79108 0.0
O436 O 0.42634 0.69897 0.77238 0.0
C437 C 0.40278 0.70551 0.74098 0.0
O438 O 0.413 0.69432 0.74065 0.0
C439 C 0.38674 0.71907 0.79126 0.0
O440 O 0.38615 0.7267 0.77818 0.0
O441 O 0.39565 0.67547 0.76894 0.0
C442 C 0.30045 0.4325 0.77984 0.0
O443 O 0.29288 0.42657 0.79156 0.0
O444 O 0.29898 0.39341 0.79377 0.0
Zn445 Zn 0.30682 0.40069 0.77313 0.0
O446 O 0.29134 0.39509 0.75681 0.0
C447 C 0.33369 0.3811 0.77695 0.0
O448 O 0.32946 0.3809 0.7915 0.0
O449 O 0.3087 0.4237 0.77153 0.0
C450 C 0.29054 0.38162 0.7511 0.0
O451 O 0.29972 0.37078 0.75639 0.0
C452 C 0.28456 0.39223 0.79622 0.0
O453 O 0.27486 0.39659 0.78542 0.0
O454 O 0.32638 0.38958 0.76749 0.0
C455 C 0.56139 0.28661 0.77447 0.0
O456 O 0.57126 0.27684 0.78057 0.0
O457 O 0.59848 0.29274 0.79043 0.0
Zn458 Zn 0.58904 0.3023 0.77151 0.0
O459 O 0.59625 0.28977 0.75344 0.0
C460 C 0.60496 0.33099 0.77795 0.0
O461 O 0.60649 0.32508 0.79182 0.0
O462 O 0.56609 0.30005 0.77093 0.0
C463 C 0.59238 0.29391 0.73992 0.0
O464 O 0.58413 0.3065 0.73814 0.0
C465 C 0.61294 0.29039 0.78987 0.0
O466 O 0.62063 0.29488 0.77759 0.0
O467 O 0.59679 0.32394 0.76802 0.0
C468 C 0.70238 0.43748 0.22318 0.0
O469 O 0.71002 0.43199 0.21131 0.0
O470 O 0.70635 0.39869 0.20927 0.0
Zn471 Zn 0.69614 0.40535 0.22909 0.0
O472 O 0.7096 0.39939 0.24696 0.0
C473 C 0.67334 0.38182 0.2245 0.0
O474 O 0.68278 0.37797 0.21329 0.0
O475 O 0.69411 0.42836 0.23114 0.0
C476 C 0.7151 0.38597 0.24904 0.0
O477 O 0.71237 0.37514 0.23879 0.0
C478 C 0.72092 0.39865 0.20762 0.0
O479 O 0.72966 0.40404 0.21877 0.0
O480 O 0.67611 0.39395 0.23228 0.0
C481 C 0.56331 0.70106 0.22423 0.0
O482 O 0.5737 0.71105 0.21949 0.0
O483 O 0.60076 0.69537 0.20969 0.0
Zn484 Zn 0.5907 0.68575 0.22826 0.0
O485 O 0.59692 0.69851 0.24655 0.0
C486 C 0.6067 0.65735 0.22153 0.0
O487 O 0.60625 0.66255 0.2073 0.0
O488 O 0.56767 0.68746 0.22755 0.0
C489 C 0.58995 0.69686 0.25934 0.0
O490 O 0.57887 0.68657 0.26045 0.0
C491 C 0.61515 0.69788 0.21084 0.0
O492 O 0.62235 0.69358 0.22348 0.0
O493 O 0.59927 0.66451 0.23196 0.0
C494 C 0.30329 0.55917 0.21927 0.0
O495 O 0.2975 0.5649 0.2065 0.0
O496 O 0.30084 0.59855 0.20673 0.0
Zn497 Zn 0.31078 0.591 0.2263 0.0
O498 O 0.29749 0.59804 0.24394 0.0
C499 C 0.33704 0.6105 0.22002 0.0
O500 O 0.32983 0.61281 0.20689 0.0
O501 O 0.31095 0.56793 0.22819 0.0
C502 C 0.29863 0.61141 0.24983 0.0
O503 O 0.30862 0.62124 0.24406 0.0
C504 C 0.28624 0.59824 0.20538 0.0
O505 O 0.27792 0.59211 0.21649 0.0
O506 O 0.33164 0.60069 0.22948 0.0
C507 C 0.43947 0.29824 0.22226 0.0
O508 O 0.43286 0.29116 0.21061 0.0
O509 O 0.39963 0.29481 0.212 0.0
Zn510 Zn 0.40822 0.30582 0.2306 0.0
O511 O 0.40292 0.29345 0.24946 0.0
C512 C 0.38827 0.33177 0.22387 0.0
O513 O 0.38697 0.32512 0.21031 0.0
O514 O 0.43133 0.3069 0.23085 0.0
C515 C 0.3894 0.28841 0.25203 0.0
O516 O 0.37843 0.29113 0.24191 0.0
C517 C 0.39931 0.28015 0.21151 0.0
O518 O 0.40558 0.27224 0.22282 0.0
O519 O 0.39769 0.32624 0.23366 0.0
C520 C 0.77283 0.7043 0.55605 0.0
O521 O 0.78003 0.714 0.56519 0.0
O522 O 0.78436 0.70246 0.59465 0.0
Zn523 Zn 0.76667 0.69095 0.58489 0.0
O524 O 0.74711 0.70214 0.5908 0.0
C525 C 0.77615 0.66426 0.60226 0.0
O526 O 0.78952 0.6714 0.60248 0.0
O527 O 0.76725 0.69201 0.56179 0.0
C528 C 0.73727 0.69668 0.6002 0.0
O529 O 0.73979 0.68318 0.60662 0.0
C530 C 0.78276 0.70655 0.60863 0.0
O531 O 0.77 0.70288 0.61595 0.0
O532 O 0.76544 0.66949 0.59372 0.0
C533 C 0.77321 0.29883 0.44148 0.0
O534 O 0.78261 0.28994 0.43358 0.0
O535 O 0.78397 0.29706 0.40273 0.0
Zn536 Zn 0.76601 0.30902 0.41135 0.0
O537 O 0.74675 0.29698 0.40623 0.0
C538 C 0.77542 0.33482 0.39253 0.0
O539 O 0.78891 0.32792 0.39304 0.0
O540 O 0.76621 0.30966 0.43448 0.0
C541 C 0.73698 0.30117 0.39613 0.0
O542 O 0.73936 0.31394 0.38832 0.0
C543 C 0.78248 0.29172 0.38916 0.0
O544 O 0.76972 0.2946 0.3815 0.0
O545 O 0.7645 0.32971 0.40088 0.0
C546 C 0.70075 0.78105 0.43013 0.0
O547 O 0.70813 0.793 0.42443 0.0
O548 O 0.70027 0.79704 0.39188 0.0
Zn549 Zn 0.69163 0.77649 0.3985 0.0
O550 O 0.70515 0.75948 0.39039 0.0
C551 C 0.66962 0.7769 0.37491 0.0
O552 O 0.68146 0.78355 0.36818 0.0
O553 O 0.69172 0.77344 0.42145 0.0
C554 C 0.70073 0.74578 0.39319 0.0
O555 O 0.68769 0.74366 0.40062 0.0
C556 C 0.71472 0.79871 0.39005 0.0
O557 O 0.72397 0.78717 0.39339 0.0
O558 O 0.67072 0.77317 0.38905 0.0
C559 C 0.21973 0.69653 0.43769 0.0
O560 O 0.20715 0.70283 0.43208 0.0
O561 O 0.20833 0.7026 0.3983 0.0
Zn562 Zn 0.22791 0.69243 0.4056 0.0
O563 O 0.24574 0.70638 0.40078 0.0
C564 C 0.22256 0.66761 0.38383 0.0
O565 O 0.20875 0.67376 0.38277 0.0
O566 O 0.22896 0.68972 0.42857 0.0
C567 C 0.24747 0.71315 0.38791 0.0
O568 O 0.23698 0.71138 0.37711 0.0
C569 C 0.20616 0.71703 0.39975 0.0
O570 O 0.21655 0.72539 0.40695 0.0
O571 O 0.23204 0.67297 0.39366 0.0
C572 C 0.28926 0.22819 0.43369 0.0
O573 O 0.27941 0.22275 0.42353 0.0
O574 O 0.29498 0.21317 0.39635 0.0
Zn575 Zn 0.30511 0.23154 0.40624 0.0
O576 O 0.29341 0.25033 0.39948 0.0
C577 C 0.33388 0.22359 0.3912 0.0
O578 O 0.32809 0.20957 0.39122 0.0
O579 O 0.30283 0.23152 0.42922 0.0
C580 C 0.29761 0.26332 0.40483 0.0
O581 O 0.30953 0.26392 0.41418 0.0
C582 C 0.29338 0.21364 0.38179 0.0
O583 O 0.2988 0.22561 0.3742 0.0
O584 O 0.32677 0.23424 0.39835 0.0
C585 C 0.21965 0.30621 0.5596 0.0
O586 O 0.20668 0.30063 0.5651 0.0
O587 O 0.20883 0.29801 0.59846 0.0
Zn588 Zn 0.2282 0.30891 0.59177 0.0
O589 O 0.24624 0.29534 0.59678 0.0
C590 C 0.22072 0.33377 0.61277 0.0
O591 O 0.20679 0.32781 0.61216 0.0
O592 O 0.22943 0.31196 0.56887 0.0
C593 C 0.24851 0.28994 0.61021 0.0
O594 O 0.23856 0.29305 0.62122 0.0
C595 C 0.20711 0.28357 0.59657 0.0
O596 O 0.21792 0.27571 0.5894 0.0
O597 O 0.23122 0.32828 0.60413 0.0
C598 C 0.69215 0.21967 0.55901 0.0
O599 O 0.69925 0.2081 0.56574 0.0
O600 O 0.69672 0.21048 0.59876 0.0
Zn601 Zn 0.68448 0.22831 0.59018 0.0
O602 O 0.69571 0.24787 0.59541 0.0
C603 C 0.65962 0.2201 0.61069 0.0
O604 O 0.66805 0.20769 0.61285 0.0
O605 O 0.68353 0.22837 0.56707 0.0
C606 C 0.70022 0.25102 0.60899 0.0
O607 O 0.69752 0.24114 0.62017 0.0
C608 C 0.71138 0.21087 0.59917 0.0
O609 O 0.71864 0.22266 0.59299 0.0
O610 O 0.66378 0.22988 0.60058 0.0
C611 C 0.2973 0.77373 0.55959 0.0
O612 O 0.29002 0.78526 0.56618 0.0
O613 O 0.29319 0.7839 0.59904 0.0
Zn614 Zn 0.30564 0.76602 0.59085 0.0
O615 O 0.29488 0.74634 0.59662 0.0
C616 C 0.3292 0.77319 0.61292 0.0
O617 O 0.31883 0.78332 0.61735 0.0
O618 O 0.30623 0.76539 0.5677 0.0
C619 C 0.28973 0.74344 0.61002 0.0
O620 O 0.29133 0.75377 0.621 0.0
C621 C 0.27855 0.78346 0.59968 0.0
O622 O 0.27125 0.77147 0.59394 0.0
O623 O 0.32659 0.7651 0.60096 0.0
H624 H 0.95339 0.19651 0.26895 0.0
H625 H 0.97849 0.20731 0.2615 0.0
H626 H 0.95688 0.25121 0.25229 0.0
H627 H 0.93209 0.24079 0.26015 0.0
H628 H 0.98705 0.21863 0.23408 0.0
H629 H 0.99289 0.26462 0.27789 0.0
H630 H 0.97863 0.24953 0.27943 0.0
H631 H 0.97503 0.26624 0.26759 0.0
C632 C 0.95407 0.20853 0.26556 0.0
C633 C 0.9408 0.21782 0.26524 0.0
C634 C 0.96838 0.21466 0.26129 0.0
C635 C 0.96958 0.23015 0.25661 0.0
C636 C 0.95632 0.23939 0.25629 0.0
H637 H 0.04267 0.26733 0.19856 0.0
H638 H 0.01789 0.25824 0.2087 0.0
C639 C 0.94212 0.23334 0.26071 0.0
C640 C 0.98446 0.2365 0.25116 0.0
H641 H 0.00901 0.26696 0.25551 0.0
C642 C 0.99195 0.22911 0.23886 0.0
C643 C 0.9909 0.25009 0.25751 0.0
C644 C 0.98402 0.25798 0.27144 0.0
C645 C 0.00558 0.2351 0.23253 0.0
C646 C 0.01157 0.24914 0.23836 0.0
C647 C 0.00423 0.25636 0.25086 0.0
C648 C 0.02594 0.25606 0.23227 0.0
C649 C 0.01357 0.22614 0.21991 0.0
C650 C 0.03834 0.25872 0.24229 0.0
C651 C 0.05233 0.26423 0.23662 0.0
C652 C 0.05424 0.26707 0.22076 0.0
C653 C 0.04158 0.26511 0.21081 0.0
C654 C 0.02748 0.25976 0.21656 0.0
H655 H 0.00998 0.21384 0.21983 0.0
H656 H 0.01048 0.23119 0.20855 0.0
H657 H 0.02631 0.22666 0.22122 0.0
H658 H 0.03737 0.25606 0.25447 0.0
H659 H 0.06182 0.26566 0.24462 0.0
H660 H 0.81442 0.9561 0.24782 0.0
H661 H 0.80139 0.97836 0.23652 0.0
H662 H 0.77505 0.98431 0.2783 0.0
H663 H 0.78791 0.96197 0.2897 0.0
H664 H 0.75724 0.97997 0.25111 0.0
H665 H 0.80175 0.02545 0.24317 0.0
H666 H 0.80713 0.0066 0.23642 0.0
H667 H 0.80404 0.00973 0.25667 0.0
C668 C 0.80619 0.9624 0.2548 0.0
C669 C 0.80207 0.95713 0.2696 0.0
C670 C 0.79879 0.97516 0.24832 0.0
C671 C 0.78725 0.98293 0.25657 0.0
C672 C 0.78393 0.97842 0.27176 0.0
H673 H 0.71884 0.05149 0.23602 0.0
H674 H 0.73323 0.0296 0.24626 0.0
C675 C 0.79135 0.96569 0.27827 0.0
C676 C 0.77736 0.99439 0.24872 0.0
H677 H 0.77772 0.02934 0.23063 0.0
C678 C 0.76168 0.99082 0.2467 0.0
C679 C 0.78327 0.00837 0.24279 0.0
C680 C 0.79994 0.01288 0.24495 0.0
C681 C 0.75173 0.00086 0.23884 0.0
C682 C 0.75758 0.01496 0.2331 0.0
C683 C 0.7733 0.01846 0.23498 0.0
C684 C 0.74746 0.02669 0.22594 0.0
C685 C 0.73511 0.9962 0.23658 0.0
C686 C 0.75051 0.03215 0.21101 0.0
C687 C 0.7423 0.04473 0.20511 0.0
C688 C 0.73104 0.05212 0.21416 0.0
C689 C 0.72743 0.04604 0.22876 0.0
C690 C 0.73562 0.03349 0.23462 0.0
H691 H 0.73363 0.98349 0.23738 0.0
H692 H 0.72796 0.00156 0.24576 0.0
H693 H 0.73069 0.00016 0.22523 0.0
H694 H 0.75964 0.02705 0.20415 0.0
H695 H 0.74542 0.04917 0.19385 0.0
H696 H 0.0444 0.80675 0.25096 0.0
H697 H 0.02198 0.79552 0.23805 0.0
H698 H 0.01882 0.76081 0.27359 0.0
H699 H 0.04098 0.77209 0.28671 0.0
H700 H 0.02239 0.76609 0.22652 0.0
H701 H 0.97401 0.77264 0.26777 0.0
H702 H 0.99165 0.78361 0.2694 0.0
H703 H 0.99076 0.76408 0.27641 0.0
C704 C 0.03867 0.797 0.25627 0.0
C705 C 0.04456 0.79024 0.26981 0.0
C706 C 0.0259 0.79056 0.24884 0.0
C707 C 0.01873 0.77736 0.25487 0.0
C708 C 0.02401 0.77116 0.26886 0.0
H709 H 0.95326 0.70923 0.22469 0.0
H710 H 0.97494 0.72292 0.23639 0.0
C711 C 0.03674 0.7776 0.27633 0.0
C712 C 0.00691 0.76907 0.24576 0.0
H713 H 0.97058 0.75405 0.24763 0.0
C714 C 0.01099 0.7636 0.23105 0.0
C715 C 0.99209 0.76579 0.25174 0.0
C716 C 0.9868 0.77196 0.26714 0.0
C717 C 0.00078 0.75457 0.22232 0.0
C718 C 0.98611 0.75103 0.22846 0.0
C719 C 0.98194 0.75667 0.24306 0.0
C720 C 0.97474 0.74165 0.2199 0.0
C721 C 0.00586 0.74853 0.20681 0.0
C722 C 0.96784 0.74744 0.20647 0.0
C723 C 0.95545 0.73964 0.19972 0.0
C724 C 0.94972 0.72599 0.20639 0.0
C725 C 0.95735 0.71972 0.21927 0.0
C726 C 0.9697 0.72756 0.22603 0.0
H727 H 0.01854 0.74955 0.20519 0.0
H728 H 0.00248 0.73625 0.20541 0.0
H729 H 0.0001 0.75527 0.19757 0.0
H730 H 0.9715 0.75839 0.20167 0.0
H731 H 0.94984 0.74478 0.1898 0.0
H732 H 0.25219 0.95144 0.18433 0.0
H733 H 0.24101 0.97363 0.19761 0.0
H734 H 0.28178 0.97741 0.22588 0.0
H735 H 0.29314 0.95529 0.21261 0.0
H736 H 0.2356 0.9722 0.22983 0.0
H737 H 0.27214 0.02247 0.21405 0.0
H738 H 0.27166 0.00495 0.20276 0.0
H739 H 0.28256 0.00569 0.22037 0.0
C740 C 0.25898 0.95723 0.19308 0.0
C741 C 0.2735 0.95149 0.19752 0.0
C742 C 0.25254 0.96988 0.20068 0.0
C743 C 0.26056 0.9771 0.21272 0.0
C744 C 0.27549 0.97208 0.21649 0.0
H745 H 0.2372 0.04806 0.27888 0.0
H746 H 0.24896 0.02597 0.26591 0.0
C747 C 0.28195 0.95942 0.20889 0.0
C748 C 0.25268 0.98868 0.22242 0.0
H749 H 0.25433 0.02606 0.23452 0.0
C750 C 0.23962 0.98401 0.23081 0.0
C751 C 0.25809 0.00399 0.22376 0.0
C752 C 0.27181 0.00966 0.21467 0.0
C753 C 0.23189 0.99424 0.24067 0.0
C754 C 0.23723 0.00959 0.24193 0.0
C755 C 0.25032 0.01424 0.23357 0.0
C756 C 0.22918 0.02124 0.25144 0.0
C757 C 0.21826 0.98846 0.24984 0.0
C758 C 0.21397 0.02556 0.24794 0.0
C759 C 0.20716 0.03811 0.25541 0.0
C760 C 0.21556 0.04667 0.26635 0.0
C761 C 0.23046 0.04174 0.27047 0.0
C762 C 0.23722 0.02916 0.26304 0.0
H763 H 0.21842 0.97569 0.25099 0.0
H764 H 0.21804 0.99365 0.26155 0.0
H765 H 0.20745 0.99173 0.24381 0.0
H766 H 0.20766 0.01976 0.23885 0.0
H767 H 0.1957 0.04167 0.25191 0.0
H768 H 0.95806 0.80598 0.72631 0.0
H769 H 0.98378 0.79669 0.73369 0.0
H770 H 0.96624 0.75016 0.73624 0.0
H771 H 0.94089 0.75916 0.72845 0.0
H772 H 0.99165 0.78295 0.76031 0.0
H773 H 0.00504 0.7434 0.71215 0.0
H774 H 0.98948 0.7572 0.7112 0.0
H775 H 0.98674 0.73886 0.72063 0.0
C776 C 0.9598 0.79374 0.72814 0.0
C777 C 0.94746 0.78331 0.72676 0.0
C778 C 0.97446 0.78846 0.7324 0.0
C779 C 0.97696 0.7727 0.73529 0.0
C780 C 0.9647 0.76229 0.73366 0.0
H781 H 0.04746 0.73336 0.7949 0.0
H782 H 0.02328 0.74301 0.7838 0.0
C783 C 0.95015 0.76751 0.7293 0.0
C784 C 0.99201 0.76714 0.74113 0.0
H785 H 0.01935 0.7394 0.73558 0.0
C786 C 0.99784 0.77356 0.7548 0.0
C787 C 0.00012 0.75499 0.73385 0.0
C788 C 0.9951 0.74834 0.71856 0.0
C789 C 0.01136 0.76788 0.76164 0.0
C790 C 0.01896 0.75512 0.75484 0.0
C791 C 0.01335 0.74898 0.74095 0.0
C792 C 0.0332 0.74843 0.7615 0.0
C793 C 0.01747 0.77578 0.77591 0.0
C794 C 0.04655 0.74756 0.75243 0.0
C795 C 0.06019 0.74174 0.75859 0.0
C796 C 0.06083 0.73677 0.77402 0.0
C797 C 0.04734 0.7372 0.78301 0.0
C798 C 0.03358 0.74286 0.77673 0.0
H799 H 0.01298 0.78774 0.77697 0.0
H800 H 0.01372 0.76926 0.78627 0.0
H801 H 0.03028 0.77622 0.77584 0.0
H802 H 0.04651 0.7517 0.74063 0.0
H803 H 0.07037 0.74159 0.75133 0.0
H804 H 0.2534 0.0456 0.80684 0.0
H805 H 0.24313 0.02279 0.79385 0.0
H806 H 0.28257 0.02208 0.76355 0.0
H807 H 0.29297 0.04493 0.77642 0.0
H808 H 0.23734 0.02469 0.76014 0.0
H809 H 0.27548 0.97591 0.77729 0.0
H810 H 0.27327 0.99304 0.78899 0.0
H811 H 0.28474 0.99367 0.77178 0.0
C812 C 0.26012 0.04037 0.7977 0.0
C813 C 0.27394 0.04717 0.79255 0.0
C814 C 0.25419 0.02737 0.79026 0.0
C815 C 0.26209 0.02084 0.77776 0.0
C816 C 0.27638 0.02693 0.77327 0.0
H817 H 0.23972 0.9459 0.71535 0.0
H818 H 0.25168 0.96849 0.72727 0.0
C819 C 0.28229 0.03999 0.78063 0.0
C820 C 0.25459 0.0088 0.76836 0.0
H821 H 0.25693 0.97096 0.75797 0.0
C822 C 0.24156 0.01291 0.75967 0.0
C823 C 0.26031 0.99358 0.76767 0.0
C824 C 0.27417 0.98866 0.77698 0.0
C825 C 0.23409 0.00215 0.75018 0.0
C826 C 0.23961 0.9868 0.7497 0.0
C827 C 0.25275 0.98275 0.75832 0.0
C828 C 0.23164 0.97456 0.74087 0.0
C829 C 0.22054 0.00739 0.74058 0.0
C830 C 0.21627 0.97075 0.74425 0.0
C831 C 0.20934 0.95796 0.73733 0.0
C832 C 0.21777 0.94861 0.7271 0.0
C833 C 0.23293 0.95287 0.7232 0.0
C834 C 0.2398 0.96573 0.73004 0.0
H835 H 0.2209 0.02003 0.73846 0.0
H836 H 0.2202 0.00134 0.7293 0.0
H837 H 0.20969 0.00481 0.74687 0.0
H838 H 0.20985 0.97721 0.75281 0.0
H839 H 0.19769 0.95492 0.74069 0.0
H840 H 0.04417 0.22831 0.71101 0.0
H841 H 0.02329 0.24006 0.72581 0.0
H842 H 0.02522 0.20265 0.75856 0.0
H843 H 0.04632 0.19088 0.74398 0.0
H844 H 0.99426 0.23027 0.73607 0.0
H845 H 0.0344 0.24097 0.78496 0.0
H846 H 0.04102 0.23508 0.76612 0.0
H847 H 0.03286 0.22114 0.77912 0.0
C848 C 0.03998 0.2224 0.7212 0.0
C849 C 0.0471 0.2088 0.72646 0.0
C850 C 0.02807 0.22917 0.72966 0.0
C851 C 0.02306 0.22244 0.7435 0.0
C852 C 0.02924 0.20821 0.74811 0.0
H853 H 0.95576 0.25037 0.81146 0.0
H854 H 0.97712 0.23801 0.7978 0.0
C855 C 0.0412 0.20144 0.73968 0.0
C856 C 0.012 0.23078 0.75345 0.0
H857 H 0.0083 0.24807 0.78869 0.0
C858 C 0.99732 0.23418 0.74757 0.0
C859 C 0.0161 0.23593 0.76841 0.0
C860 C 0.03199 0.23324 0.77502 0.0
C861 C 0.98652 0.24243 0.75634 0.0
C862 C 0.99063 0.24758 0.77127 0.0
C863 C 0.00526 0.24413 0.77721 0.0
C864 C 0.97964 0.25626 0.78097 0.0
C865 C 0.97069 0.24536 0.74969 0.0
C866 C 0.97463 0.27098 0.7765 0.0
C867 C 0.96248 0.27812 0.7843 0.0
C868 C 0.95513 0.2706 0.79666 0.0
C869 C 0.96108 0.25642 0.8019 0.0
C870 C 0.97327 0.24932 0.79411 0.0
H871 H 0.96834 0.23798 0.73947 0.0
H872 H 0.96161 0.24323 0.75848 0.0
H873 H 0.96985 0.25761 0.74604 0.0
H874 H 0.97965 0.27661 0.76652 0.0
H875 H 0.95826 0.28908 0.78002 0.0
H876 H 0.80127 0.04593 0.74412 0.0
H877 H 0.79021 0.02298 0.75629 0.0
H878 H 0.74888 0.02835 0.72912 0.0
H879 H 0.75982 0.05121 0.71682 0.0
H880 H 0.76223 0.02489 0.77354 0.0
H881 H 0.75823 0.98177 0.7263 0.0
H882 H 0.77095 0.99826 0.72541 0.0
H883 H 0.7507 0.00051 0.72161 0.0
C884 C 0.79 0.04199 0.74041 0.0
C885 C 0.78137 0.05044 0.72956 0.0
C886 C 0.78368 0.02892 0.74744 0.0
C887 C 0.76876 0.024 0.74358 0.0
C888 C 0.76049 0.03187 0.73212 0.0
H889 H 0.70629 0.95388 0.77756 0.0
H890 H 0.71706 0.97707 0.76563 0.0
C891 C 0.76676 0.04496 0.72513 0.0
C892 C 0.76121 0.01162 0.75255 0.0
H893 H 0.74454 0.97614 0.74935 0.0
C894 C 0.75844 0.01417 0.76831 0.0
C895 C 0.75617 0.99777 0.74561 0.0
C896 C 0.75926 0.9943 0.72883 0.0
C897 C 0.75053 0.00328 0.7773 0.0
C898 C 0.74551 0.9894 0.77037 0.0
C899 C 0.7483 0.98686 0.7546 0.0
C900 C 0.73793 0.977 0.77931 0.0
C901 C 0.74736 0.00686 0.79404 0.0
C902 C 0.7459 0.96959 0.7913 0.0
C903 C 0.73975 0.9564 0.7982 0.0
C904 C 0.7256 0.95028 0.79311 0.0
C905 C 0.71722 0.95827 0.78174 0.0
C906 C 0.72338 0.97149 0.77486 0.0
H907 H 0.74785 0.01947 0.79635 0.0
H908 H 0.73586 0.00246 0.79761 0.0
H909 H 0.75625 0.0012 0.80131 0.0
H910 H 0.75725 0.97351 0.79475 0.0
H911 H 0.74652 0.95053 0.80691 0.0
H912 H 0.25156 0.19605 0.04606 0.0
H913 H 0.23773 0.20754 0.02434 0.0
H914 H 0.26057 0.25099 0.03259 0.0
H915 H 0.27426 0.23969 0.05448 0.0
H916 H 0.22877 0.2535 0.03135 0.0
H917 H 0.25087 0.22046 0.98113 0.0
H918 H 0.24393 0.20857 0.99661 0.0
H919 H 0.26056 0.22061 -0.00043 0.0
C920 C 0.25395 0.20794 0.04301 0.0
C921 C 0.26397 0.21698 0.05202 0.0
C922 C 0.24604 0.21448 0.03059 0.0
C923 C 0.24817 0.23009 0.02684 0.0
C924 C 0.25875 0.23892 0.03533 0.0
H925 H 0.20938 0.29281 0.96017 0.0
H926 H 0.22129 0.28178 0.98321 0.0
C927 C 0.26661 0.23242 0.04779 0.0
C928 C 0.23849 0.23755 0.01493 0.0
H929 H 0.22882 0.23616 0.97683 0.0
C930 C 0.22883 0.24978 0.0194 0.0
C931 C 0.23855 0.23259 -0.0006 0.0
C932 C 0.24913 0.21993 0.99383 0.0
C933 C 0.21907 0.25709 0.00875 0.0
C934 C 0.21912 0.2521 0.99325 0.0
C935 C 0.22874 0.23985 0.98879 0.0
C936 C 0.20975 0.25973 0.98121 0.0
C937 C 0.20863 0.26991 0.0142 0.0
C938 C 0.19899 0.25112 0.97275 0.0
C939 C 0.19218 0.25737 0.95957 0.0
C940 C 0.19616 0.27229 0.95454 0.0
C941 C 0.20606 0.2813 0.96372 0.0
C942 C 0.21287 0.27502 0.97692 0.0
H943 H 0.20708 0.26969 0.02693 0.0
H944 H 0.21382 0.28118 0.01104 0.0
H945 H 0.19713 0.26913 0.00861 0.0
H946 H 0.19643 0.2393 0.97592 0.0
H947 H 0.18453 0.25015 0.95281 0.0
H948 H 0.28826 0.78388 0.96079 0.0
H949 H 0.27535 0.77014 0.98177 0.0
H950 H 0.23584 0.80001 0.97726 0.0
H951 H 0.2486 0.81386 0.95625 0.0
H952 H 0.24588 0.79063 0.00955 0.0
H953 H 0.23699 0.74262 0.96778 0.0
H954 H 0.25636 0.74984 0.9697 0.0
H955 H 0.24163 0.76202 0.96172 0.0
C956 C 0.27701 0.78783 0.96452 0.0
C957 C 0.26935 0.7998 0.95667 0.0
C958 C 0.26963 0.77991 0.97645 0.0
C959 C 0.25456 0.78391 0.98077 0.0
C960 C 0.24744 0.79671 0.97395 0.0
H961 H 0.18878 0.74423 0.04558 0.0
H962 H 0.20048 0.75967 0.02506 0.0
C963 C 0.25477 0.80461 0.96197 0.0
C964 C 0.2457 0.77386 0.99127 0.0
H965 H 0.22847 0.7385 0.99331 0.0
C966 C 0.24201 0.77925 0.00604 0.0
C967 C 0.24067 0.75908 0.98652 0.0
C968 C 0.24398 0.75301 0.97054 0.0
C969 C 0.2337 0.77001 0.01643 0.0
C970 C 0.22866 0.7552 0.01169 0.0
C971 C 0.23228 0.74989 0.99685 0.0
C972 C 0.2203 0.74475 0.02228 0.0
C973 C 0.23081 0.776 0.03253 0.0
C974 C 0.22703 0.73071 0.02668 0.0
C975 C 0.22029 0.72175 0.03823 0.0
C976 C 0.20672 0.72672 0.04561 0.0
C977 C 0.19932 0.74014 0.04024 0.0
C978 C 0.20606 0.74907 0.02863 0.0
H979 H 0.23849 0.78585 0.03542 0.0
H980 H 0.2187 0.78006 0.03341 0.0
H981 H 0.23255 0.76676 0.04124 0.0
H982 H 0.23794 0.72709 0.02175 0.0
H983 H 0.22624 0.71142 0.04201 0.0
H984 H 0.74438 0.18834 0.95494 0.0
H985 H 0.75707 0.2017 0.97625 0.0
H986 H 0.72538 0.23977 0.97145 0.0
H987 H 0.71273 0.22661 0.94998 0.0
H988 H 0.75624 0.24832 0.96941 0.0
H989 H 0.74605 0.21167 0.02095 0.0
H990 H 0.75334 0.20133 0.00455 0.0
H991 H 0.73456 0.2101 0.00364 0.0
C992 C 0.73981 0.19935 0.9587 0.0
C993 C 0.72765 0.20649 0.95066 0.0
C994 C 0.74707 0.20696 0.97091 0.0
C995 C 0.74215 0.22172 0.97539 0.0
C996 C 0.72935 0.2284 0.9681 0.0
H997 H 0.77664 0.29083 0.03819 0.0
H998 H 0.76404 0.27757 0.01678 0.0
C999 C 0.72211 0.22083 0.95587 0.0
C1000 C 0.75136 0.23086 0.98646 0.0
H1001 H 0.76523 0.23117 0.02326 0.0
C1002 C 0.75813 0.24464 0.98123 0.0
C1003 C 0.75389 0.22594 0.00178 0.0
C1004 C 0.74648 0.21153 0.00814 0.0
C1005 C 0.76755 0.25356 0.9909 0.0
C1006 C 0.77009 0.24862 0.00622 0.0
C1007 C 0.76333 0.23485 0.01144 0.0
C1008 C 0.77927 0.25778 0.01728 0.0
C1009 C 0.77492 0.26801 0.98459 0.0
C1010 C 0.79224 0.25122 0.02438 0.0
C1011 C 0.79945 0.25875 0.03664 0.0
C1012 C 0.7937 0.27291 0.04212 0.0
C1013 C 0.78137 0.27995 0.03426 0.0
C1014 C 0.77415 0.2724 0.02199 0.0
H1015 H 0.77519 0.26799 0.97177 0.0
H1016 H 0.76815 0.27819 0.98839 0.0
H1017 H 0.78689 0.26934 0.98896 0.0
H1018 H 0.79636 0.23995 0.02086 0.0
H1019 H 0.80897 0.25303 0.04239 0.0
H1020 H 0.78644 0.70788 0.96495 0.0
H1021 H 0.77361 0.72044 0.9867 0.0
H1022 H 0.7977 0.7628 0.97668 0.0
H1023 H 0.8107 0.75036 0.95498 0.0
H1024 H 0.79361 0.75559 0.00937 0.0
H1025 H 0.73953 0.7526 0.97494 0.0
H1026 H 0.7493 0.73453 0.97781 0.0
H1027 H 0.75834 0.74942 0.96658 0.0
C1028 C 0.78934 0.71974 0.9676 0.0
C1029 C 0.79937 0.7282 0.95806 0.0
C1030 C 0.78192 0.72692 0.97997 0.0
C1031 C 0.78445 0.74261 0.98297 0.0
C1032 C 0.79551 0.7507 0.97439 0.0
H1033 H 0.74266 0.80867 0.04642 0.0
H1034 H 0.7571 0.79724 0.02499 0.0
C1035 C 0.80293 0.74355 0.96202 0.0
C1036 C 0.77461 0.75095 0.99409 0.0
H1037 H 0.73748 0.76257 0.00024 0.0
C1038 C 0.78136 0.75718 0.0074 0.0
C1039 C 0.75866 0.75308 0.99133 0.0
C1040 C 0.751 0.74718 0.97684 0.0
C1041 C 0.77243 0.76515 0.01831 0.0
C1042 C 0.75644 0.76716 0.0156 0.0
C1043 C 0.74975 0.76105 0.00221 0.0
C1044 C 0.74634 0.7748 0.02699 0.0
C1045 C 0.78007 0.77095 0.03285 0.0
C1046 C 0.73489 0.76621 0.03451 0.0
C1047 C 0.72653 0.77271 0.04663 0.0
C1048 C 0.72948 0.78794 0.05139 0.0
C1049 C 0.74015 0.79689 0.04306 0.0
C1050 C 0.74852 0.79035 0.03093 0.0
H1051 H 0.79161 0.76566 0.03464 0.0
H1052 H 0.7816 0.78364 0.03203 0.0
H1053 H 0.77279 0.76849 0.0431 0.0
H1054 H 0.73293 0.75423 0.0315 0.0
H1055 H 0.71832 0.76555 0.05275 0.0
H1056 H 0.54214 0.75388 0.68859 0.0
H1057 H 0.51958 0.74298 0.70146 0.0
H1058 H 0.51823 0.78194 0.73238 0.0
H1059 H 0.54073 0.79303 0.71954 0.0
H1060 H 0.52114 0.73538 0.73321 0.0
H1061 H 0.47259 0.77534 0.72076 0.0
H1062 H 0.48989 0.77474 0.70915 0.0
H1063 H 0.48995 0.78452 0.72743 0.0
C1064 C 0.53681 0.76036 0.69785 0.0
C1065 C 0.54334 0.77426 0.70315 0.0
C1066 C 0.52395 0.75408 0.70522 0.0
C1067 C 0.51729 0.76165 0.71786 0.0
C1068 C 0.52311 0.77601 0.72251 0.0
H1069 H 0.44697 0.73826 0.7846 0.0
H1070 H 0.46909 0.74963 0.77132 0.0
C1071 C 0.536 0.78232 0.71516 0.0
C1072 C 0.50545 0.75372 0.72724 0.0
H1073 H 0.46848 0.75661 0.74033 0.0
C1074 C 0.50958 0.73995 0.73471 0.0
C1075 C 0.49049 0.75983 0.72925 0.0
C1076 C 0.48537 0.77435 0.72114 0.0
C1077 C 0.49916 0.73219 0.74435 0.0
C1078 C 0.48416 0.73826 0.74634 0.0
C1079 C 0.48004 0.75204 0.73885 0.0
C1080 C 0.47235 0.73036 0.75579 0.0
C1081 C 0.50441 0.71776 0.75258 0.0
C1082 C 0.46718 0.71555 0.75176 0.0
C1083 C 0.45462 0.70896 0.75942 0.0
C1084 C 0.44691 0.71718 0.77109 0.0
C1085 C 0.45264 0.73166 0.77564 0.0
C1086 C 0.46524 0.7382 0.76803 0.0
H1087 H 0.5172 0.71717 0.75338 0.0
H1088 H 0.49952 0.71714 0.7644 0.0
H1089 H 0.50041 0.7075 0.74605 0.0
H1090 H 0.47234 0.70941 0.74217 0.0
H1091 H 0.45042 0.69784 0.75555 0.0
H1092 H 0.31074 0.44666 0.75358 0.0
H1093 H 0.29888 0.46864 0.74062 0.0
H1094 H 0.2681 0.47498 0.7792 0.0
H1095 H 0.27974 0.45283 0.79221 0.0
H1096 H 0.25305 0.47123 0.75109 0.0
H1097 H 0.29924 0.51535 0.74637 0.0
H1098 H 0.30489 0.49652 0.73984 0.0
H1099 H 0.30023 0.49947 0.75984 0.0
C1100 C 0.30175 0.45297 0.75953 0.0
C1101 C 0.29607 0.44788 0.77386 0.0
C1102 C 0.29501 0.46558 0.7521 0.0
C1103 C 0.28262 0.47341 0.75896 0.0
C1104 C 0.27764 0.46903 0.77372 0.0
H1105 H 0.21954 0.54417 0.72957 0.0
H1106 H 0.23171 0.52219 0.74227 0.0
C1107 C 0.28436 0.45641 0.78116 0.0
C1108 C 0.27378 0.48495 0.75003 0.0
H1109 H 0.27687 0.5192 0.73091 0.0
C1110 C 0.25822 0.48178 0.74676 0.0
C1111 C 0.28061 0.49858 0.74427 0.0
C1112 C 0.29712 0.50279 0.74786 0.0
C1113 C 0.24933 0.49186 0.73775 0.0
C1114 C 0.25615 0.5055 0.73203 0.0
C1115 C 0.27172 0.50864 0.73523 0.0
C1116 C 0.2472 0.51713 0.72335 0.0
C1117 C 0.23279 0.48772 0.73422 0.0
C1118 C 0.25166 0.52133 0.70837 0.0
C1119 C 0.24471 0.53391 0.70106 0.0
C1120 C 0.23335 0.54259 0.70873 0.0
C1121 C 0.22827 0.53774 0.72336 0.0
C1122 C 0.23519 0.52514 0.73063 0.0
H1123 H 0.23058 0.47519 0.73586 0.0
H1124 H 0.22506 0.49416 0.74214 0.0
H1125 H 0.22972 0.49092 0.7222 0.0
H1126 H 0.26094 0.51526 0.7026 0.0
H1127 H 0.2489 0.53735 0.6898 0.0
H1128 H 0.45362 0.24189 0.68386 0.0
H1129 H 0.47568 0.2538 0.69671 0.0
H1130 H 0.48083 0.21352 0.72547 0.0
H1131 H 0.45885 0.20144 0.71264 0.0
H1132 H 0.47409 0.25968 0.72865 0.0
H1133 H 0.52552 0.22443 0.71389 0.0
H1134 H 0.50804 0.2241 0.70254 0.0
H1135 H 0.50914 0.21347 0.72031 0.0
C1136 C 0.45971 0.23536 0.6926 0.0
C1137 C 0.45435 0.22078 0.69736 0.0
C1138 C 0.47229 0.24221 0.69996 0.0
C1139 C 0.47983 0.23456 0.71204 0.0
C1140 C 0.47526 0.21955 0.71604 0.0
H1141 H 0.54774 0.25896 0.78056 0.0
H1142 H 0.52659 0.24702 0.76625 0.0
C1143 C 0.46267 0.21267 0.7087 0.0
C1144 C 0.49111 0.24294 0.72169 0.0
H1145 H 0.52821 0.24211 0.73471 0.0
C1146 C 0.48598 0.25594 0.72989 0.0
C1147 C 0.50651 0.2379 0.72337 0.0
C1148 C 0.51271 0.22429 0.71447 0.0
C1149 C 0.49579 0.2639 0.73999 0.0
C1150 C 0.51119 0.25885 0.74171 0.0
C1151 C 0.51635 0.24589 0.73343 0.0
C1152 C 0.52231 0.26693 0.75181 0.0
C1153 C 0.48948 0.27739 0.74902 0.0
C1154 C 0.52655 0.28226 0.74874 0.0
C1155 C 0.53856 0.28917 0.75699 0.0
C1156 C 0.54663 0.28077 0.76828 0.0
C1157 C 0.54177 0.26572 0.77189 0.0
C1158 C 0.52974 0.25885 0.7637 0.0
H1159 H 0.47668 0.27713 0.74962 0.0
H1160 H 0.49416 0.27755 0.76094 0.0
H1161 H 0.49293 0.28829 0.74324 0.0
H1162 H 0.52112 0.28861 0.73945 0.0
H1163 H 0.54209 0.30074 0.75385 0.0
H1164 H 0.7671 0.45176 0.69588 0.0
H1165 H 0.75977 0.47718 0.70596 0.0
H1166 H 0.7535 0.45739 0.75122 0.0
H1167 H 0.76132 0.4323 0.74146 0.0
H1168 H 0.73282 0.48555 0.71809 0.0
H1169 H 0.77837 0.49468 0.76181 0.0
H1170 H 0.77962 0.47969 0.74743 0.0
H1171 H 0.76856 0.47671 0.76479 0.0
C1172 C 0.76444 0.45293 0.70803 0.0
C1173 C 0.76487 0.44006 0.71788 0.0
C1174 C 0.76021 0.46742 0.71377 0.0
C1175 C 0.75632 0.46922 0.7294 0.0
C1176 C 0.75688 0.45639 0.73923 0.0
H1177 H 0.69884 0.54371 0.7657 0.0
H1178 H 0.7085 0.51862 0.75682 0.0
C1179 C 0.76127 0.44201 0.73358 0.0
C1180 C 0.7507 0.48423 0.73531 0.0
H1181 H 0.75578 0.51043 0.76423 0.0
C1182 C 0.73793 0.49109 0.72809 0.0
C1183 C 0.75746 0.49149 0.74828 0.0
C1184 C 0.77186 0.48534 0.75591 0.0
C1185 C 0.73158 0.50492 0.7336 0.0
C1186 C 0.73789 0.51178 0.74702 0.0
C1187 C 0.75079 0.50502 0.75411 0.0
C1188 C 0.73197 0.52652 0.75333 0.0
C1189 C 0.71845 0.5122 0.72478 0.0
C1190 C 0.74208 0.53902 0.75503 0.0
C1191 C 0.7367 0.55316 0.76041 0.0
C1192 C 0.72102 0.55517 0.76409 0.0
C1193 C 0.71094 0.54253 0.76283 0.0
C1194 C 0.71642 0.52825 0.75763 0.0
H1195 H 0.71789 0.5079 0.71271 0.0
H1196 H 0.70738 0.50924 0.73049 0.0
H1197 H 0.71956 0.52496 0.7245 0.0
H1198 H 0.75413 0.53794 0.75186 0.0
H1199 H 0.74479 0.56265 0.76124 0.0
H1200 H 0.45638 0.27373 0.2118 0.0
H1201 H 0.47661 0.26017 0.22599 0.0
H1202 H 0.4764 0.29585 0.26066 0.0
H1203 H 0.45601 0.30942 0.2467 0.0
H1204 H 0.50618 0.26762 0.23776 0.0
H1205 H 0.46354 0.25659 0.28435 0.0
H1206 H 0.45806 0.26383 0.26561 0.0
H1207 H 0.46626 0.27661 0.27974 0.0
C1208 C 0.46089 0.27892 0.22223 0.0
C1209 C 0.45436 0.2925 0.22829 0.0
C1210 C 0.47241 0.27111 0.23036 0.0
C1211 C 0.4776 0.27679 0.24459 0.0
C1212 C 0.47221 0.29109 0.24989 0.0
H1213 H 0.54042 0.24593 0.31435 0.0
H1214 H 0.51977 0.25835 0.29972 0.0
C1215 C 0.46065 0.29888 0.24182 0.0
C1216 C 0.48776 0.26723 0.25439 0.0
H1217 H 0.48928 0.24862 0.28911 0.0
C1218 C 0.50249 0.26339 0.24895 0.0
C1219 C 0.48279 0.26164 0.26892 0.0
C1220 C 0.46675 0.26474 0.27498 0.0
C1221 C 0.51261 0.25445 0.25788 0.0
C1222 C 0.5077 0.24905 0.27249 0.0
C1223 C 0.49293 0.25276 0.27788 0.0
C1224 C 0.51815 0.24023 0.28265 0.0
C1225 C 0.52861 0.2512 0.25183 0.0
C1226 C 0.52339 0.22554 0.27834 0.0
C1227 C 0.53514 0.21835 0.28671 0.0
C1228 C 0.54184 0.22582 0.29947 0.0
C1229 C 0.53559 0.23994 0.3045 0.0
C1230 C 0.52382 0.24707 0.29615 0.0
H1231 H 0.53154 0.25858 0.24176 0.0
H1232 H 0.53737 0.25308 0.26098 0.0
H1233 H 0.52932 0.23896 0.24814 0.0
H1234 H 0.5189 0.21998 0.26808 0.0
H1235 H 0.53963 0.20745 0.28257 0.0
H1236 H 0.69 0.45188 0.24842 0.0
H1237 H 0.70119 0.47354 0.26261 0.0
H1238 H 0.73639 0.47827 0.22774 0.0
H1239 H 0.72512 0.45694 0.21332 0.0
H1240 H 0.72995 0.47243 0.27474 0.0
H1241 H 0.72543 0.52271 0.23559 0.0
H1242 H 0.71441 0.50528 0.23266 0.0
H1243 H 0.73418 0.50639 0.22636 0.0
C1244 C 0.69985 0.45783 0.24353 0.0
C1245 C 0.70674 0.4526 0.22978 0.0
C1246 C 0.70626 0.47016 0.25169 0.0
C1247 C 0.7196 0.47752 0.24623 0.0
C1248 C 0.72593 0.47294 0.23205 0.0
H1249 H 0.78834 0.5397 0.28169 0.0
H1250 H 0.7749 0.51832 0.26915 0.0
C1251 C 0.71948 0.46069 0.22382 0.0
C1252 C 0.72787 0.48877 0.25608 0.0
H1253 H 0.74371 0.52481 0.25625 0.0
C1254 C 0.7328 0.48396 0.27078 0.0
C1255 C 0.73164 0.50377 0.25086 0.0
C1256 C 0.726 0.5099 0.23557 0.0
C1257 C 0.74172 0.49362 0.28022 0.0
C1258 C 0.74577 0.50842 0.27481 0.0
C1259 C 0.7407 0.51333 0.26024 0.0
C1260 C 0.755 0.51925 0.28417 0.0
C1261 C 0.74707 0.48786 0.29575 0.0
C1262 C 0.74847 0.5264 0.29712 0.0
C1263 C 0.75609 0.53865 0.30431 0.0
C1264 C 0.77034 0.54395 0.29861 0.0
C1265 C 0.77738 0.53593 0.28638 0.0
C1266 C 0.7697 0.52376 0.27914 0.0
H1267 H 0.7452 0.47525 0.29712 0.0
H1268 H 0.75951 0.49042 0.29743 0.0
H1269 H 0.74056 0.49392 0.30497 0.0
H1270 H 0.73708 0.52312 0.30109 0.0
H1271 H 0.75037 0.54455 0.31373 0.0
H1272 H 0.55083 0.7293 0.21858 0.0
H1273 H 0.52799 0.7405 0.23066 0.0
H1274 H 0.51831 0.69714 0.25304 0.0
H1275 H 0.54125 0.68574 0.241 0.0
H1276 H 0.49161 0.71435 0.23963 0.0
H1277 H 0.52889 0.74892 0.27873 0.0
H1278 H 0.5336 0.75022 0.25856 0.0
H1279 H 0.53581 0.73214 0.26846 0.0
C1280 C 0.54372 0.72204 0.22585 0.0
C1281 C 0.54794 0.70668 0.22898 0.0
C1282 C 0.53073 0.72849 0.2328 0.0
C1283 C 0.52174 0.71971 0.24296 0.0
C1284 C 0.52526 0.7041 0.24531 0.0
H1285 H 0.45289 0.75586 0.30723 0.0
H1286 H 0.47554 0.74284 0.29635 0.0
C1287 C 0.5383 0.6976 0.23837 0.0
C1288 C 0.50915 0.72716 0.25165 0.0
H1289 H 0.50215 0.75507 0.27856 0.0
C1290 C 0.49387 0.72317 0.24822 0.0
C1291 C 0.51224 0.73848 0.263 0.0
C1292 C 0.52852 0.74264 0.26755 0.0
C1293 C 0.48151 0.73069 0.25546 0.0
C1294 C 0.4846 0.74253 0.26627 0.0
C1295 C 0.49988 0.74609 0.27014 0.0
C1296 C 0.47203 0.75163 0.27326 0.0
C1297 C 0.46522 0.726 0.25146 0.0
C1298 C 0.46309 0.76138 0.26398 0.0
C1299 C 0.45027 0.76889 0.27013 0.0
C1300 C 0.44617 0.76676 0.28569 0.0
C1301 C 0.45574 0.75773 0.2952 0.0
C1302 C 0.46862 0.75023 0.28901 0.0
H1303 H 0.46483 0.71451 0.24577 0.0
H1304 H 0.45788 0.72566 0.26195 0.0
H1305 H 0.46022 0.73461 0.24341 0.0
H1306 H 0.46576 0.7628 0.25185 0.0
H1307 H 0.44321 0.77586 0.26252 0.0
H1308 H 0.27968 0.5416 0.2079 0.0
H1309 H 0.26557 0.52153 0.22182 0.0
H1310 H 0.29883 0.52358 0.25877 0.0
H1311 H 0.3129 0.54382 0.24508 0.0
H1312 H 0.27282 0.49259 0.2346 0.0
H1313 H 0.25803 0.53561 0.27976 0.0
H1314 H 0.26637 0.54099 0.26146 0.0
H1315 H 0.27836 0.53327 0.27653 0.0
C1316 C 0.28422 0.53754 0.21882 0.0
C1317 C 0.29725 0.54451 0.22553 0.0
C1318 C 0.2761 0.52612 0.22678 0.0
C1319 C 0.28092 0.52147 0.24151 0.0
C1320 C 0.29471 0.52736 0.24759 0.0
H1321 H 0.24701 0.45844 0.30989 0.0
H1322 H 0.26013 0.47913 0.29593 0.0
C1323 C 0.3028 0.53882 0.23969 0.0
C1324 C 0.27103 0.51123 0.2509 0.0
H1325 H 0.25045 0.50973 0.28449 0.0
C1326 C 0.26786 0.49634 0.24547 0.0
C1327 C 0.26449 0.51626 0.26501 0.0
C1328 C 0.26684 0.53245 0.271 0.0
C1329 C 0.25864 0.48614 0.254 0.0
C1330 C 0.25227 0.49111 0.26819 0.0
C1331 C 0.25534 0.50603 0.27358 0.0
C1332 C 0.24298 0.48063 0.27787 0.0
C1333 C 0.25606 0.47 0.24798 0.0
C1334 C 0.22859 0.4753 0.27274 0.0
C1335 C 0.22101 0.46353 0.28072 0.0
C1336 C 0.22778 0.45689 0.29389 0.0
C1337 C 0.24156 0.46321 0.2997 0.0
C1338 C 0.24909 0.47501 0.29174 0.0
H1339 H 0.26404 0.46711 0.23837 0.0
H1340 H 0.2576 0.46139 0.25735 0.0
H1341 H 0.24405 0.46898 0.24364 0.0
H1342 H 0.22361 0.47974 0.26217 0.0
H1343 H 0.21037 0.45899 0.27598 0.0
H1344 H 0.78196 0.73024 0.54077 0.0
H1345 H 0.76945 0.74191 0.5184 0.0
H1346 H 0.73982 0.70218 0.51403 0.0
H1347 H 0.75215 0.69042 0.53655 0.0
H1348 H 0.76374 0.73218 0.48734 0.0
H1349 H 0.71002 0.73887 0.52189 0.0
H1350 H 0.72835 0.73409 0.53054 0.0
H1351 H 0.71752 0.71958 0.52046 0.0
C1352 C 0.773 0.72382 0.53488 0.0
C1353 C 0.76787 0.70952 0.54059 0.0
C1354 C 0.76586 0.73052 0.52211 0.0
C1355 C 0.75348 0.72306 0.51486 0.0
C1356 C 0.74916 0.70824 0.51972 0.0
H1357 H 0.6907 0.75427 0.4435 0.0
H1358 H 0.70301 0.74033 0.4647 0.0
C1359 C 0.7563 0.70149 0.5325 0.0
C1360 C 0.74448 0.73132 0.50298 0.0
H1361 H 0.70934 0.74782 0.4962 0.0
C1362 C 0.75184 0.73558 0.48923 0.0
C1363 C 0.72898 0.73576 0.50559 0.0
C1364 C 0.72073 0.73197 0.52046 0.0
C1365 C 0.74405 0.74411 0.4779 0.0
C1366 C 0.72862 0.74874 0.4806 0.0
C1367 C 0.7212 0.74431 0.49426 0.0
C1368 C 0.72 0.75804 0.46922 0.0
C1369 C 0.75232 0.74795 0.46306 0.0
C1370 C 0.72502 0.77293 0.46533 0.0
C1371 C 0.718 0.78096 0.45325 0.0
C1372 C 0.70583 0.77421 0.4449 0.0
C1373 C 0.7001 0.75976 0.44963 0.0
C1374 C 0.70714 0.75175 0.46171 0.0
H1375 H 0.76262 0.74051 0.46128 0.0
H1376 H 0.7445 0.74662 0.453 0.0
H1377 H 0.75626 0.76013 0.46346 0.0
H1378 H 0.73473 0.7781 0.47127 0.0
H1379 H 0.72262 0.7921 0.44999 0.0
H1380 H 0.74927 0.31068 0.45837 0.0
H1381 H 0.7356 0.29771 0.47934 0.0
H1382 H 0.76959 0.26136 0.47914 0.0
H1383 H 0.78344 0.2743 0.45836 0.0
H1384 H 0.72329 0.26837 0.47462 0.0
H1385 H 0.76261 0.26859 0.52512 0.0
H1386 H 0.76495 0.28164 0.50903 0.0
H1387 H 0.77155 0.26201 0.50763 0.0
C1388 C 0.75413 0.30019 0.46311 0.0
C1389 C 0.76735 0.29342 0.45656 0.0
C1390 C 0.74625 0.29276 0.47505 0.0
C1391 C 0.75157 0.27857 0.48074 0.0
C1392 C 0.76539 0.27239 0.47504 0.0
H1393 H 0.71572 0.20813 0.54149 0.0
H1394 H 0.72914 0.22153 0.52063 0.0
C1395 C 0.77328 0.2798 0.46311 0.0
C1396 C 0.74178 0.26933 0.49122 0.0
H1397 H 0.74138 0.25114 0.52609 0.0
C1398 C 0.72717 0.2647 0.48594 0.0
C1399 C 0.74697 0.26446 0.50588 0.0
C1400 C 0.76232 0.26953 0.51234 0.0
C1401 C 0.71768 0.25509 0.49485 0.0
C1402 C 0.72291 0.25016 0.50948 0.0
C1403 C 0.73749 0.25483 0.51478 0.0
C1404 C 0.71321 0.24073 0.51987 0.0
C1405 C 0.7023 0.25004 0.48844 0.0
C1406 C 0.69949 0.24682 0.52588 0.0
C1407 C 0.69175 0.23918 0.53777 0.0
C1408 C 0.69773 0.2254 0.54394 0.0
C1409 C 0.71083 0.21874 0.53705 0.0
C1410 C 0.71856 0.22641 0.52517 0.0
H1411 H 0.70183 0.25131 0.47569 0.0
H1412 H 0.69984 0.23784 0.49148 0.0
H1413 H 0.69306 0.25734 0.49348 0.0
H1414 H 0.69527 0.25795 0.52206 0.0
H1415 H 0.68168 0.24462 0.54278 0.0
H1416 H 0.20723 0.71796 0.4572 0.0
H1417 H 0.22035 0.73061 0.47873 0.0
H1418 H 0.25859 0.69915 0.47415 0.0
H1419 H 0.24561 0.68637 0.45261 0.0
H1420 H 0.24891 0.70777 0.50618 0.0
H1421 H 0.25953 0.75723 0.46657 0.0
H1422 H 0.23988 0.75076 0.46826 0.0
H1423 H 0.25405 0.73834 0.45968 0.0
C1424 C 0.21823 0.71343 0.46102 0.0
C1425 C 0.2255 0.70132 0.45302 0.0
C1426 C 0.22574 0.72075 0.47326 0.0
C1427 C 0.24055 0.716 0.47772 0.0
C1428 C 0.24722 0.70304 0.47072 0.0
H1429 H 0.30869 0.74926 0.5432 0.0
H1430 H 0.29574 0.73566 0.52216 0.0
C1431 C 0.23976 0.69575 0.45844 0.0
C1432 C 0.24965 0.72533 0.48867 0.0
H1433 H 0.26832 0.75985 0.4922 0.0
C1434 C 0.25319 0.71914 0.50317 0.0
C1435 C 0.25521 0.74012 0.48458 0.0
C1436 C 0.25211 0.74704 0.46889 0.0
C1437 C 0.26193 0.72754 0.51389 0.0
C1438 C 0.26758 0.74232 0.50978 0.0
C1439 C 0.26404 0.74849 0.49525 0.0
C1440 C 0.27672 0.75176 0.52067 0.0
C1441 C 0.26471 0.72068 0.52966 0.0
C1442 C 0.27088 0.76589 0.52597 0.0
C1443 C 0.27836 0.77382 0.53784 0.0
C1444 C 0.29176 0.76768 0.54463 0.0
C1445 C 0.29828 0.7542 0.53836 0.0
C1446 C 0.29083 0.74633 0.52644 0.0
H1447 H 0.25652 0.71115 0.53223 0.0
H1448 H 0.27658 0.71591 0.53016 0.0
H1449 H 0.26361 0.7296 0.5388 0.0
H1450 H 0.2601 0.77037 0.5215 0.0
H1451 H 0.27307 0.78421 0.54233 0.0
H1452 H 0.24659 0.3142 0.54529 0.0
H1453 H 0.25793 0.3017 0.52279 0.0
H1454 H 0.21612 0.27557 0.51604 0.0
H1455 H 0.2047 0.28787 0.5387 0.0
H1456 H 0.24253 0.25746 0.51952 0.0
H1457 H 0.25215 0.30348 0.47605 0.0
H1458 H 0.25919 0.30817 0.49496 0.0
H1459 H 0.23882 0.30566 0.49192 0.0
C1460 C 0.23961 0.30613 0.53878 0.0
C1461 C 0.2248 0.30189 0.54391 0.0
C1462 C 0.24611 0.29904 0.52586 0.0
C1463 C 0.23786 0.28771 0.51777 0.0
C1464 C 0.22266 0.28429 0.52217 0.0
H1465 H 0.2614 0.22215 0.44687 0.0
H1466 H 0.24962 0.23575 0.46852 0.0
C1467 C 0.21614 0.29138 0.53509 0.0
C1468 C 0.24575 0.27813 0.50607 0.0
H1469 H 0.26531 0.27969 0.47196 0.0
C1470 C 0.2474 0.26229 0.50905 0.0
C1471 C 0.25225 0.28452 0.49255 0.0
C1472 C 0.25042 0.30137 0.48857 0.0
C1473 C 0.25554 0.25265 0.49893 0.0
C1474 C 0.26202 0.25903 0.4854 0.0
C1475 C 0.26041 0.27488 0.48242 0.0
C1476 C 0.26989 0.24936 0.47376 0.0
C1477 C 0.25739 0.2358 0.50292 0.0
C1478 C 0.28527 0.25234 0.46971 0.0
C1479 C 0.29207 0.24457 0.45732 0.0
C1480 C 0.28348 0.23385 0.44868 0.0
C1481 C 0.26833 0.23033 0.4533 0.0
C1482 C 0.26158 0.23806 0.4657 0.0
H1483 H 0.25552 0.23366 0.51542 0.0
H1484 H 0.24874 0.22897 0.49642 0.0
H1485 H 0.26905 0.23156 0.49971 0.0
H1486 H 0.29185 0.26106 0.47581 0.0
H1487 H 0.30373 0.2476 0.454 0.0
H1488 H 0.15138 0.12596 0.29182 0.0
H1489 H 0.13701 0.14847 0.28272 0.0
H1490 H 0.13861 0.13077 0.23623 0.0
H1491 H 0.15276 0.1082 0.24521 0.0
H1492 H 0.15109 0.16812 0.26241 0.0
H1493 H 0.09528 0.14872 0.2382 0.0
H1494 H 0.10642 0.13708 0.25144 0.0
H1495 H 0.11123 0.13749 0.23124 0.0
C1496 C 0.14821 0.12658 0.27975 0.0
C1497 C 0.15339 0.11538 0.26921 0.0
C1498 C 0.14003 0.13948 0.27456 0.0
C1499 C 0.13673 0.14128 0.25881 0.0
C1500 C 0.1408 0.12951 0.24847 0.0
H1501 H 0.13766 0.22132 0.20144 0.0
H1502 H 0.1425 0.19748 0.21579 0.0
C1503 C 0.14899 0.11664 0.25363 0.0
C1504 C 0.1314 0.15636 0.25279 0.0
H1505 H 0.10495 0.17316 0.22891 0.0
C1506 C 0.14085 0.16928 0.25531 0.0
C1507 C 0.11803 0.15786 0.24356 0.0
C1508 C 0.10707 0.14457 0.24107 0.0
C1509 C 0.13766 0.18349 0.24829 0.0
C1510 C 0.12482 0.18475 0.23834 0.0
C1511 C 0.11493 0.17206 0.23638 0.0
C1512 C 0.12174 0.19905 0.22957 0.0
C1513 C 0.14819 0.19701 0.25141 0.0
C1514 C 0.10834 0.20763 0.23242 0.0
C1515 C 0.10555 0.22125 0.22427 0.0
C1516 C 0.11606 0.22644 0.21302 0.0
C1517 C 0.12938 0.21769 0.21007 0.0
C1518 C 0.13219 0.2041 0.21828 0.0
H1519 H 0.15505 0.1953 0.26211 0.0
H1520 H 0.15636 0.19833 0.24164 0.0
H1521 H 0.14149 0.20788 0.25249 0.0
H1522 H 0.10012 0.20386 0.24106 0.0
H1523 H 0.09513 0.22769 0.22678 0.0
H1524 H 0.88676 0.1467 0.25312 0.0
H1525 H 0.86583 0.13003 0.24423 0.0
H1526 H 0.84397 0.13342 0.28875 0.0
H1527 H 0.86484 0.15009 0.29784 0.0
H1528 H 0.84794 0.10108 0.25847 0.0
H1529 H 0.81705 0.15736 0.25372 0.0
H1530 H 0.83784 0.15622 0.25431 0.0
H1531 H 0.82683 0.15298 0.27152 0.0
C1532 C 0.87777 0.14352 0.26121 0.0
C1533 C 0.8773 0.14998 0.2761 0.0
C1534 C 0.86585 0.13395 0.2561 0.0
C1535 C 0.85334 0.1307 0.2658 0.0
C1536 C 0.85356 0.13588 0.28112 0.0
H1537 H 0.75992 0.10877 0.23648 0.0
H1538 H 0.78247 0.11499 0.25224 0.0
C1539 C 0.8655 0.14541 0.28627 0.0
C1540 C 0.83905 0.12425 0.25916 0.0
H1541 H 0.80405 0.13536 0.24508 0.0
C1542 C 0.83825 0.10848 0.25564 0.0
C1543 C 0.82651 0.13402 0.25552 0.0
C1544 C 0.827 0.15112 0.25885 0.0
C1545 C 0.82512 0.1022 0.24847 0.0
C1546 C 0.81274 0.11208 0.24441 0.0
C1547 C 0.81351 0.1278 0.24823 0.0
C1548 C 0.79912 0.10668 0.23558 0.0
C1549 C 0.8246 0.08507 0.24544 0.0
C1550 C 0.80098 0.09992 0.22097 0.0
C1551 C 0.78811 0.09627 0.21198 0.0
C1552 C 0.77315 0.09956 0.21732 0.0
C1553 C 0.7713 0.10617 0.23201 0.0
C1554 C 0.78417 0.10967 0.24106 0.0
H1555 H 0.83219 0.07866 0.25356 0.0
H1556 H 0.81268 0.0805 0.24649 0.0
H1557 H 0.82879 0.08278 0.23356 0.0
H1558 H 0.81239 0.09792 0.2163 0.0
H1559 H 0.78992 0.09125 0.20068 0.0
H1560 H 0.90214 0.76203 0.22818 0.0
H1561 H 0.89701 0.78546 0.24305 0.0
H1562 H 0.85119 0.78772 0.22375 0.0
H1563 H 0.85611 0.76419 0.20904 0.0
H1564 H 0.89018 0.81407 0.23179 0.0
H1565 H 0.8429 0.7936 0.26948 0.0
H1566 H 0.85512 0.78055 0.25877 0.0
H1567 H 0.83907 0.78991 0.24947 0.0
C1568 C 0.8909 0.7674 0.22724 0.0
C1569 C 0.87951 0.76122 0.21744 0.0
C1570 C 0.888 0.7808 0.23573 0.0
C1571 C 0.87366 0.78821 0.23466 0.0
C1572 C 0.86222 0.78199 0.22502 0.0
H1573 H 0.84474 0.88076 0.24462 0.0
H1574 H 0.85729 0.85679 0.23705 0.0
C1575 C 0.86508 0.76857 0.21655 0.0
C1576 C 0.8709 0.80294 0.24287 0.0
H1577 H 0.84535 0.82109 0.26666 0.0
C1578 C 0.88052 0.81557 0.2396 0.0
C1579 C 0.85849 0.80481 0.2533 0.0
C1580 C 0.84841 0.79145 0.2581 0.0
C1581 C 0.87754 0.83022 0.24582 0.0
C1582 C 0.86444 0.83233 0.25532 0.0
C1583 C 0.85533 0.81951 0.25926 0.0
C1584 C 0.85915 0.84782 0.26029 0.0
C1585 C 0.88836 0.84332 0.24202 0.0
C1586 C 0.85612 0.85084 0.27591 0.0
C1587 C 0.84877 0.86452 0.28029 0.0
C1588 C 0.84424 0.87537 0.26909 0.0
C1589 C 0.84809 0.87268 0.25355 0.0
C1590 C 0.85537 0.85899 0.2492 0.0
H1591 H 0.90016 0.839 0.23949 0.0
H1592 H 0.88411 0.84938 0.23157 0.0
H1593 H 0.88903 0.85178 0.25162 0.0
H1594 H 0.8589 0.84235 0.28465 0.0
H1595 H 0.846 0.86624 0.29235 0.0
H1596 H 0.22872 0.85789 0.19558 0.0
H1597 H 0.20507 0.85182 0.20971 0.0
H1598 H 0.20661 0.89642 0.23175 0.0
H1599 H 0.23012 0.90271 0.21748 0.0
H1600 H 0.20068 0.85037 0.24115 0.0
H1601 H 0.1626 0.89479 0.21494 0.0
H1602 H 0.18109 0.88967 0.20682 0.0
H1603 H 0.18005 0.90216 0.22334 0.0
C1604 C 0.22402 0.86644 0.20339 0.0
C1605 C 0.23126 0.88081 0.20535 0.0
C1606 C 0.2105 0.86295 0.21145 0.0
C1607 C 0.20397 0.87376 0.22159 0.0
C1608 C 0.21127 0.88804 0.22373 0.0
H1609 H 0.13413 0.8447 0.28843 0.0
H1610 H 0.15635 0.85784 0.277 0.0
C1611 C 0.22476 0.89157 0.21563 0.0
C1612 C 0.18977 0.86982 0.23023 0.0
H1613 H 0.15202 0.87997 0.23531 0.0
C1614 C 0.19005 0.85687 0.23994 0.0
C1615 C 0.17591 0.87828 0.22851 0.0
C1616 C 0.17477 0.89193 0.21775 0.0
C1617 C 0.17681 0.85201 0.24784 0.0
C1618 C 0.16298 0.86056 0.24626 0.0
C1619 C 0.1627 0.87359 0.23665 0.0
C1620 C 0.14842 0.85528 0.25346 0.0
C1621 C 0.17759 0.83744 0.25736 0.0
C1622 C 0.13618 0.85039 0.24408 0.0
C1623 C 0.12341 0.84302 0.25056 0.0
C1624 C 0.12268 0.84038 0.26657 0.0
C1625 C 0.13441 0.8464 0.27605 0.0
C1626 C 0.14715 0.85383 0.26954 0.0
H1627 H 0.18807 0.83053 0.25472 0.0
H1628 H 0.17793 0.84051 0.26979 0.0
H1629 H 0.16727 0.83012 0.25535 0.0
H1630 H 0.1369 0.8515 0.23164 0.0
H1631 H 0.11455 0.83863 0.24292 0.0
H1632 H 0.12486 0.77029 0.77712 0.0
H1633 H 0.13179 0.79506 0.76554 0.0
H1634 H 0.09067 0.81567 0.7845 0.0
H1635 H 0.08355 0.7909 0.79609 0.0
H1636 H 0.09655 0.82278 0.75248 0.0
H1637 H 0.1473 0.83307 0.79015 0.0
H1638 H 0.14725 0.81448 0.78097 0.0
H1639 H 0.1325 0.81914 0.79479 0.0
C1640 C 0.1173 0.78009 0.77888 0.0
C1641 C 0.10371 0.77866 0.78762 0.0
C1642 C 0.12129 0.79423 0.77228 0.0
C1643 C 0.11181 0.80719 0.77434 0.0
C1644 C 0.09814 0.80578 0.78286 0.0
H1645 H 0.15037 0.89655 0.75091 0.0
H1646 H 0.13404 0.87747 0.76368 0.0
C1647 C 0.09415 0.79164 0.78951 0.0
C1648 C 0.11629 0.82219 0.76759 0.0
H1649 H 0.14517 0.84884 0.76776 0.0
C1650 C 0.10708 0.82862 0.75591 0.0
C1651 C 0.12987 0.82987 0.7723 0.0
C1652 C 0.13975 0.82389 0.78534 0.0
C1653 C 0.11152 0.84224 0.74831 0.0
C1654 C 0.12558 0.84942 0.75242 0.0
C1655 C 0.1344 0.84331 0.76457 0.0
C1656 C 0.1321 0.86261 0.74372 0.0
C1657 C 0.10119 0.84872 0.7359 0.0
C1658 C 0.13587 0.86091 0.72805 0.0
C1659 C 0.14512 0.87187 0.72067 0.0
C1660 C 0.15095 0.88456 0.72893 0.0
C1661 C 0.14615 0.88684 0.74426 0.0
C1662 C 0.13682 0.87594 0.75159 0.0
H1663 H 0.089 0.84514 0.73764 0.0
H1664 H 0.10174 0.86152 0.7356 0.0
H1665 H 0.10498 0.84425 0.72452 0.0
H1666 H 0.13261 0.85059 0.72182 0.0
H1667 H 0.14863 0.86975 0.70887 0.0
H1668 H 0.23101 0.0933 0.7743 0.0
H1669 H 0.2084 0.09922 0.75839 0.0
H1670 H 0.19984 0.13999 0.78557 0.0
H1671 H 0.22236 0.13421 0.80155 0.0
H1672 H 0.17622 0.10416 0.76891 0.0
H1673 H 0.20232 0.15473 0.73941 0.0
H1674 H 0.21374 0.14018 0.74904 0.0
H1675 H 0.20407 0.15482 0.76008 0.0
C1676 C 0.22433 0.10354 0.77688 0.0
C1677 C 0.22852 0.11334 0.78914 0.0
C1678 C 0.21141 0.10686 0.76781 0.0
C1679 C 0.20259 0.12009 0.77075 0.0
C1680 C 0.20664 0.12981 0.78304 0.0
H1681 H 0.11386 0.15437 0.7488 0.0
H1682 H 0.13552 0.13993 0.75949 0.0
C1683 C 0.21949 0.12646 0.79217 0.0
C1684 C 0.18913 0.12387 0.761 0.0
H1685 H 0.1752 0.15155 0.73679 0.0
C1686 C 0.176 0.11441 0.76173 0.0
C1687 C 0.18903 0.1371 0.75149 0.0
C1688 C 0.20308 0.14725 0.7498 0.0
C1689 C 0.16246 0.1183 0.75371 0.0
C1690 C 0.1621 0.13201 0.74487 0.0
C1691 C 0.17548 0.14105 0.74361 0.0
C1692 C 0.14774 0.13797 0.73779 0.0
C1693 C 0.14864 0.1078 0.75488 0.0
C1694 C 0.14728 0.14143 0.72198 0.0
C1695 C 0.13492 0.14977 0.71583 0.0
C1696 C 0.1229 0.15493 0.72543 0.0
C1697 C 0.12293 0.15058 0.74107 0.0
C1698 C 0.13528 0.14223 0.7472 0.0
H1699 H 0.15209 0.09582 0.75789 0.0
H1700 H 0.14088 0.11208 0.76412 0.0
H1701 H 0.14205 0.10757 0.74389 0.0
H1702 H 0.15682 0.13829 0.71455 0.0
H1703 H 0.13525 0.15289 0.70373 0.0
H1704 H 0.86152 0.23763 0.78011 0.0
H1705 H 0.85506 0.21288 0.76821 0.0
H1706 H 0.9008 0.19597 0.77813 0.0
H1707 H 0.90748 0.22079 0.78978 0.0
H1708 H 0.89118 0.18834 0.74884 0.0
H1709 H 0.84646 0.17334 0.79198 0.0
H1710 H 0.84306 0.19168 0.783 0.0
H1711 H 0.85993 0.18898 0.7948 0.0
C1712 C 0.87021 0.22865 0.77976 0.0
C1713 C 0.88497 0.23113 0.78601 0.0
C1714 C 0.86648 0.2145 0.77302 0.0
C1715 C 0.87736 0.2025 0.77256 0.0
C1716 C 0.89221 0.20505 0.77846 0.0
H1717 H 0.84412 0.11003 0.75251 0.0
H1718 H 0.85914 0.13093 0.76403 0.0
C1719 C 0.89599 0.21923 0.78514 0.0
C1720 C 0.8732 0.1873 0.76598 0.0
H1721 H 0.84688 0.15823 0.76899 0.0
C1722 C 0.88159 0.18166 0.75331 0.0
C1723 C 0.86092 0.17844 0.77206 0.0
C1724 C 0.85217 0.18333 0.78631 0.0
C1725 C 0.8776 0.16766 0.74616 0.0
C1726 C 0.86471 0.15929 0.75166 0.0
C1727 C 0.85672 0.16468 0.7647 0.0
C1728 C 0.85859 0.14543 0.74369 0.0
C1729 C 0.88726 0.162 0.73284 0.0
C1730 C 0.8538 0.14637 0.72824 0.0
C1731 C 0.84539 0.13434 0.72156 0.0
C1732 C 0.84136 0.1213 0.73033 0.0
C1733 C 0.84699 0.11996 0.74548 0.0
C1734 C 0.85555 0.13191 0.75209 0.0
H1735 H 0.89926 0.16644 0.73359 0.0
H1736 H 0.88762 0.1492 0.73241 0.0
H1737 H 0.88222 0.16629 0.72188 0.0
H1738 H 0.85569 0.1568 0.72162 0.0
H1739 H 0.84115 0.13578 0.7099 0.0
H1740 H 0.88811 0.8506 0.74168 0.0
H1741 H 0.86559 0.86356 0.75264 0.0
H1742 H 0.83969 0.85381 0.71131 0.0
H1743 H 0.86219 0.84115 0.70009 0.0
H1744 H 0.83178 0.88211 0.7249 0.0
H1745 H 0.83167 0.83393 0.76726 0.0
H1746 H 0.84902 0.84524 0.76712 0.0
H1747 H 0.84393 0.834 0.75045 0.0
C1748 C 0.87777 0.85161 0.73472 0.0
C1749 C 0.87684 0.84454 0.72014 0.0
C1750 C 0.86489 0.85893 0.74106 0.0
C1751 C 0.85087 0.85919 0.73296 0.0
C1752 C 0.85037 0.85357 0.7178 0.0
H1753 H 0.75932 0.85745 0.77228 0.0
H1754 H 0.78335 0.8522 0.75841 0.0
C1755 C 0.86328 0.84634 0.7114 0.0
C1756 C 0.83637 0.86362 0.74082 0.0
H1757 H 0.81236 0.85285 0.77013 0.0
C1758 C 0.82753 0.87579 0.73483 0.0
C1759 C 0.83072 0.85507 0.75356 0.0
C1760 C 0.83922 0.84124 0.75992 0.0
C1761 C 0.81322 0.87975 0.74133 0.0
C1762 C 0.80778 0.87144 0.75431 0.0
C1763 C 0.8166 0.85924 0.76024 0.0
C1764 C 0.79288 0.87503 0.76189 0.0
C1765 C 0.80388 0.89249 0.73401 0.0
C1766 C 0.79029 0.88959 0.76846 0.0
C1767 C 0.77656 0.89264 0.77631 0.0
C1768 C 0.76522 0.88112 0.77791 0.0
C1769 C 0.76782 0.86656 0.77127 0.0
C1770 C 0.78153 0.86355 0.76334 0.0
H1771 H 0.80755 0.8947 0.72192 0.0
H1772 H 0.79139 0.88966 0.73406 0.0
H1773 H 0.80557 0.9033 0.74066 0.0
H1774 H 0.79903 0.8985 0.7678 0.0
H1775 H 0.77496 0.90396 0.78137 0.0
H1776 H 0.19229 0.08731 0.20523 0.0
H1777 H 0.20536 0.09551 0.18157 0.0
H1778 H 0.24333 0.11307 0.20847 0.0
H1779 H 0.23032 0.10505 0.23224 0.0
H1780 H 0.21538 0.12868 0.17723 0.0
H1781 H 0.26258 0.08543 0.17225 0.0
H1782 H 0.2448 0.08152 0.18246 0.0
H1783 H 0.25917 0.0937 0.19102 0.0
C1784 C 0.20349 0.09278 0.20613 0.0
C1785 C 0.21026 0.09559 0.22061 0.0
C1786 C 0.21093 0.09742 0.1926 0.0
C1787 C 0.22535 0.10471 0.19333 0.0
C1788 C 0.23229 0.10726 0.20771 0.0
H1789 H 0.28751 0.1525 0.13373 0.0
H1790 H 0.27565 0.13579 0.15306 0.0
C1791 C 0.2248 0.10276 0.22126 0.0
C1792 C 0.23253 0.11087 0.17917 0.0
H1793 H 0.2635 0.10682 0.1552 0.0
C1794 C 0.2258 0.12383 0.17226 0.0
C1795 C 0.24618 0.10453 0.17292 0.0
C1796 C 0.25363 0.09046 0.17993 0.0
C1797 C 0.23266 0.13102 0.15951 0.0
C1798 C 0.24635 0.12471 0.15317 0.0
C1799 C 0.25294 0.11154 0.15997 0.0
C1800 C 0.25451 0.13234 0.14022 0.0
C1801 C 0.22554 0.14574 0.15344 0.0
C1802 C 0.24691 0.13524 0.12621 0.0
C1803 C 0.25357 0.14497 0.11523 0.0
C1804 C 0.26808 0.15169 0.11795 0.0
C1805 C 0.2763 0.14754 0.13131 0.0
C1806 C 0.26952 0.138 0.14239 0.0
H1807 H 0.21754 0.15103 0.16194 0.0
H1808 H 0.23456 0.15434 0.15047 0.0
H1809 H 0.21883 0.14313 0.14286 0.0
H1810 H 0.2355 0.1306 0.12411 0.0
H1811 H 0.24705 0.14781 0.10494 0.0
H1812 H 0.84181 0.2894 0.13653 0.0
H1813 H 0.85628 0.27679 0.15716 0.0
H1814 H 0.86259 0.23666 0.12847 0.0
H1815 H 0.84806 0.24912 0.10772 0.0
H1816 H 0.8436 0.24633 0.16785 0.0
H1817 H 0.90562 0.24471 0.15109 0.0
H1818 H 0.8926 0.25948 0.14418 0.0
H1819 H 0.89144 0.2403 0.13653 0.0
C1820 C 0.84662 0.27806 0.13441 0.0
C1821 C 0.84361 0.27018 0.12054 0.0
C1822 C 0.85488 0.27089 0.14622 0.0
C1823 C 0.86047 0.25584 0.14428 0.0
C1824 C 0.85848 0.24835 0.13009 0.0
H1825 H 0.89914 0.18861 0.20805 0.0
H1826 H 0.89054 0.20263 0.18505 0.0
C1827 C 0.85013 0.25548 0.11827 0.0
C1828 C 0.86627 0.2472 0.15776 0.0
H1829 H 0.89848 0.23114 0.17367 0.0
C1830 C 0.85561 0.24305 0.16919 0.0
C1831 C 0.88186 0.24277 0.15924 0.0
C1832 C 0.89364 0.24706 0.14718 0.0
C1833 C 0.86012 0.2345 0.18214 0.0
C1834 C 0.87582 0.23038 0.18389 0.0
C1835 C 0.88647 0.23439 0.17234 0.0
C1836 C 0.88137 0.22207 0.19775 0.0
C1837 C 0.84793 0.22966 0.19361 0.0
C1838 C 0.87924 0.22847 0.21246 0.0
C1839 C 0.88394 0.22043 0.22559 0.0
C1840 C 0.89111 0.20594 0.22424 0.0
C1841 C 0.89359 0.19972 0.20946 0.0
C1842 C 0.88873 0.20772 0.19632 0.0
H1843 H 0.83624 0.2296 0.18834 0.0
H1844 H 0.85034 0.21799 0.19832 0.0
H1845 H 0.84776 0.23799 0.20334 0.0
H1846 H 0.87394 0.23971 0.2138 0.0
H1847 H 0.88208 0.22565 0.2368 0.0
H1848 H 0.77358 0.86525 0.23811 0.0
H1849 H 0.76007 0.85986 0.21392 0.0
H1850 H 0.76999 0.90591 0.19788 0.0
H1851 H 0.78334 0.91151 0.22209 0.0
H1852 H 0.73954 0.89587 0.19129 0.0
H1853 H 0.7838 0.85323 0.17329 0.0
H1854 H 0.77551 0.84935 0.19188 0.0
H1855 H 0.7868 0.86653 0.18903 0.0
C1856 C 0.77281 0.87427 0.22949 0.0
C1857 C 0.77968 0.88875 0.23195 0.0
C1858 C 0.76513 0.87115 0.21566 0.0
C1859 C 0.76428 0.88241 0.20405 0.0
C1860 C 0.7706 0.89705 0.20669 0.0
H1861 H 0.74447 0.85399 0.1103 0.0
H1862 H 0.75504 0.86879 0.13183 0.0
C1863 C 0.77826 0.9002 0.22052 0.0
C1864 C 0.75734 0.87868 0.18891 0.0
H1865 H 0.7609 0.85425 0.15832 0.0
C1866 C 0.74423 0.88685 0.184 0.0
C1867 C 0.76371 0.86716 0.1793 0.0
C1868 C 0.77832 0.85865 0.18354 0.0
C1869 C 0.73698 0.88337 0.16991 0.0
C1870 C 0.74292 0.87129 0.16068 0.0
C1871 C 0.75632 0.8635 0.16541 0.0
C1872 C 0.73508 0.86574 0.14654 0.0
C1873 C 0.7231 0.89266 0.16506 0.0
C1874 C 0.72008 0.8597 0.1474 0.0
C1875 C 0.71394 0.85136 0.13504 0.0
C1876 C 0.72284 0.84868 0.12173 0.0
C1877 C 0.73738 0.85576 0.12044 0.0
C1878 C 0.74344 0.86421 0.13274 0.0
H1879 H 0.72315 0.9043 0.17044 0.0
H1880 H 0.7226 0.894 0.15232 0.0
H1881 H 0.71247 0.88663 0.1689 0.0
H1882 H 0.71352 0.86047 0.158 0.0
H1883 H 0.70272 0.84603 0.13643 0.0
H1884 H 0.13835 0.78739 0.23128 0.0
H1885 H 0.14403 0.77278 0.20787 0.0
H1886 H 0.09916 0.75137 0.21011 0.0
H1887 H 0.09323 0.76618 0.23341 0.0
H1888 H 0.1449 0.74138 0.20263 0.0
H1889 H 0.09987 0.76953 0.16659 0.0
H1890 H 0.10561 0.77699 0.18517 0.0
H1891 H 0.09302 0.76055 0.18398 0.0
C1892 C 0.1297 0.77954 0.22685 0.0
C1893 C 0.11529 0.77804 0.23414 0.0
C1894 C 0.13297 0.77119 0.21346 0.0
C1895 C 0.12191 0.7612 0.20712 0.0
C1896 C 0.10771 0.75928 0.21463 0.0
H1897 H 0.15209 0.70021 0.132 0.0
H1898 H 0.13844 0.70889 0.15515 0.0
C1899 C 0.10439 0.76768 0.228 0.0
C1900 C 0.12537 0.75294 0.19257 0.0
H1901 H 0.11496 0.75031 0.15465 0.0
C1902 C 0.13829 0.7432 0.19216 0.0
C1903 C 0.11675 0.75546 0.17893 0.0
C1904 C 0.10311 0.76629 0.17857 0.0
C1905 C 0.1431 0.73623 0.17837 0.0
C1906 C 0.13453 0.7388 0.1647 0.0
C1907 C 0.12138 0.74823 0.16519 0.0
C1908 C 0.14006 0.73317 0.14955 0.0
C1909 C 0.15777 0.72682 0.17843 0.0
C1910 C 0.14457 0.74388 0.13828 0.0
C1911 C 0.15219 0.73897 0.12498 0.0
C1912 C 0.15551 0.72324 0.12274 0.0
C1913 C 0.14988 0.71242 0.13346 0.0
C1914 C 0.14216 0.71736 0.14675 0.0
H1915 H 0.16458 0.72859 0.18915 0.0
H1916 H 0.15481 0.71438 0.17764 0.0
H1917 H 0.16513 0.72981 0.16838 0.0
H1918 H 0.14295 0.75614 0.14017 0.0
H1919 H 0.15625 0.74761 0.11691 0.0
H1920 H 0.22795 0.88591 0.76094 0.0
H1921 H 0.24096 0.87776 0.78466 0.0
H1922 H 0.21228 0.90857 0.81117 0.0
H1923 H 0.19919 0.91682 0.78755 0.0
H1924 H 0.25645 0.89756 0.80888 0.0
H1925 H 0.20571 0.86375 0.82936 0.0
H1926 H 0.2081 0.86917 0.80938 0.0
H1927 H 0.20239 0.88335 0.82334 0.0
C1928 C 0.22445 0.89101 0.7718 0.0
C1929 C 0.21246 0.90193 0.77238 0.0
C1930 C 0.23193 0.88639 0.78531 0.0
C1931 C 0.22748 0.89252 0.79961 0.0
C1932 C 0.21577 0.90365 0.80022 0.0
H1933 H 0.25207 0.85556 0.89001 0.0
H1934 H 0.24212 0.87333 0.87044 0.0
C1935 C 0.20833 0.90834 0.78671 0.0
C1936 C 0.23468 0.88673 0.81393 0.0
H1937 H 0.22787 0.86342 0.84487 0.0
C1938 C 0.25021 0.8902 0.81685 0.0
C1939 C 0.22641 0.87726 0.82431 0.0
C1940 C 0.20975 0.87303 0.82149 0.0
C1941 C 0.25782 0.88418 0.82983 0.0
C1942 C 0.24973 0.87417 0.83989 0.0
C1943 C 0.23404 0.87114 0.83719 0.0
C1944 C 0.25753 0.86551 0.85241 0.0
C1945 C 0.27442 0.88859 0.83262 0.0
C1946 C 0.26971 0.85547 0.84887 0.0
C1947 C 0.27547 0.84538 0.86002 0.0
C1948 C 0.269 0.84497 0.87489 0.0
C1949 C 0.2573 0.85557 0.87865 0.0
C1950 C 0.25159 0.86572 0.86749 0.0
H1951 H 0.27707 0.90008 0.82757 0.0
H1952 H 0.27717 0.88886 0.84513 0.0
H1953 H 0.28205 0.88001 0.82696 0.0
H1954 H 0.27424 0.85481 0.83724 0.0
H1955 H 0.28447 0.83736 0.85671 0.0
H1956 H 0.09491 0.22937 0.76099 0.0
H1957 H 0.10078 0.24465 0.78398 0.0
H1958 H 0.14564 0.22326 0.78679 0.0
H1959 H 0.13999 0.20813 0.7637 0.0
H1960 H 0.10733 0.23408 0.81305 0.0
H1961 H 0.15603 0.26884 0.79073 0.0
H1962 H 0.14318 0.25823 0.77821 0.0
H1963 H 0.15888 0.24854 0.78777 0.0
C1964 C 0.1061 0.22803 0.7664 0.0
C1965 C 0.11701 0.21756 0.76049 0.0
C1966 C 0.10941 0.23676 0.77954 0.0
C1967 C 0.12371 0.23525 0.78696 0.0
C1968 C 0.13466 0.22487 0.78104 0.0
H1969 H 0.15401 0.24769 0.87874 0.0
H1970 H 0.14086 0.23968 0.85524 0.0
C1971 C 0.13138 0.21616 0.76788 0.0
C1972 C 0.12696 0.24388 0.80134 0.0
H1973 H 0.15365 0.26729 0.81829 0.0
C1974 C 0.11733 0.24153 0.81415 0.0
C1975 C 0.13981 0.25384 0.80268 0.0
C1976 C 0.14997 0.25766 0.78906 0.0
C1977 C 0.12071 0.24821 0.82852 0.0
C1978 C 0.13421 0.25723 0.83012 0.0
C1979 C 0.14336 0.26025 0.8171 0.0
C1980 C 0.13984 0.2626 0.84535 0.0
C1981 C 0.10987 0.24539 0.84184 0.0
C1982 C 0.14356 0.2782 0.8477 0.0
C1983 C 0.15126 0.28281 0.8611 0.0
C1984 C 0.15546 0.27188 0.87234 0.0
C1985 C 0.15094 0.25642 0.87033 0.0
C1986 C 0.1433 0.25182 0.85692 0.0
H1987 H 0.09793 0.24317 0.83772 0.0
H1988 H 0.11374 0.23503 0.8483 0.0
H1989 H 0.10967 0.25536 0.8499 0.0
H1990 H 0.14104 0.28669 0.83888 0.0
H1991 H 0.15455 0.29481 0.8623 0.0
H1992 H 0.76127 0.10398 0.76204 0.0
H1993 H 0.74577 0.10982 0.78491 0.0
H1994 H 0.78568 0.10277 0.81383 0.0
H1995 H 0.80109 0.09639 0.7911 0.0
H1996 H 0.76 0.09008 0.82645 0.0
H1997 H 0.74791 0.15021 0.80769 0.0
H1998 H 0.74156 0.13578 0.79428 0.0
H1999 H 0.76184 0.13813 0.79806 0.0
C2000 C 0.76673 0.10368 0.77328 0.0
C2001 C 0.78243 0.09989 0.77477 0.0
C2002 C 0.75788 0.10706 0.78633 0.0
C2003 C 0.76464 0.10702 0.80105 0.0
C2004 C 0.78023 0.1029 0.80258 0.0
H2005 H 0.74835 0.14153 0.89065 0.0
H2006 H 0.7568 0.12612 0.86863 0.0
C2007 C 0.78904 0.09932 0.78957 0.0
C2008 C 0.75569 0.11167 0.81486 0.0
H2009 H 0.73636 0.14201 0.83085 0.0
C2010 C 0.75475 0.1014 0.82738 0.0
C2011 C 0.74887 0.12646 0.81606 0.0
C2012 C 0.75019 0.13835 0.80338 0.0
C2013 C 0.74736 0.10564 0.84117 0.0
C2014 C 0.74077 0.12048 0.8424 0.0
C2015 C 0.7413 0.13056 0.82975 0.0
C2016 C 0.73466 0.12655 0.85712 0.0
C2017 C 0.74679 0.09432 0.85437 0.0
C2018 C 0.71928 0.13151 0.85813 0.0
C2019 C 0.71439 0.14028 0.87075 0.0
C2020 C 0.7249 0.14445 0.88239 0.0
C2021 C 0.74 0.13853 0.88185 0.0
C2022 C 0.74483 0.12965 0.86931 0.0
H2023 H 0.74876 0.08229 0.85039 0.0
H2024 H 0.75594 0.09727 0.86282 0.0
H2025 H 0.7355 0.09491 0.8604 0.0
H2026 H 0.71131 0.1293 0.84876 0.0
H2027 H 0.7027 0.1447 0.87079 0.0
H2028 H 0.82141 0.72237 0.8523 0.0
H2029 H 0.83736 0.73348 0.83206 0.0
H2030 H 0.86569 0.75582 0.86636 0.0
H2031 H 0.84949 0.74492 0.88683 0.0
H2032 H 0.85541 0.77584 0.84476 0.0
H2033 H 0.87994 0.72485 0.81554 0.0
H2034 H 0.85944 0.72303 0.81754 0.0
H2035 H 0.87141 0.72378 0.83453 0.0
C2036 C 0.8312 0.7294 0.8556 0.0
C2037 C 0.83414 0.73282 0.87117 0.0
C2038 C 0.84041 0.73565 0.84399 0.0
C2039 C 0.85284 0.74531 0.84769 0.0
C2040 C 0.8562 0.74829 0.86326 0.0
H2041 H 0.90529 0.78181 0.76936 0.0
H2042 H 0.89909 0.76962 0.79401 0.0
C2043 C 0.84696 0.74203 0.87494 0.0
C2044 C 0.86107 0.75358 0.83521 0.0
H2045 H 0.87775 0.74803 0.80001 0.0
C2046 C 0.86058 0.76977 0.83511 0.0
C2047 C 0.868 0.74569 0.82273 0.0
C2048 C 0.86988 0.72838 0.82266 0.0
C2049 C 0.866 0.77824 0.82243 0.0
C2050 C 0.87173 0.77027 0.80939 0.0
C2051 C 0.8731 0.75413 0.8099 0.0
C2052 C 0.87571 0.77834 0.79487 0.0
C2053 C 0.86536 0.79563 0.82307 0.0
C2054 C 0.86458 0.7872 0.78711 0.0
C2055 C 0.8681 0.79427 0.77306 0.0
C2056 C 0.88276 0.7924 0.7664 0.0
C2057 C 0.89388 0.78347 0.77417 0.0
C2058 C 0.89037 0.7765 0.78827 0.0
H2059 H 0.86566 0.79986 0.83517 0.0
H2060 H 0.8751 0.80091 0.81663 0.0
H2061 H 0.85439 0.79964 0.81782 0.0
H2062 H 0.85306 0.78844 0.79179 0.0
H2063 H 0.85926 0.80099 0.76732 0.0
H2064 H 0.10963 0.24718 0.15293 0.0
H2065 H 0.13018 0.23717 0.13643 0.0
H2066 H 0.15147 0.28209 0.13535 0.0
H2067 H 0.13098 0.2923 0.15187 0.0
H2068 H 0.14971 0.25673 0.10482 0.0
H2069 H 0.17631 0.24124 0.16138 0.0
H2070 H 0.15578 0.23902 0.1588 0.0
H2071 H 0.16405 0.25796 0.15933 0.0
C2072 C 0.1184 0.25508 0.14882 0.0
C2073 C 0.11881 0.27049 0.15394 0.0
C2074 C 0.1301 0.24933 0.13936 0.0
C2075 C 0.14231 0.2589 0.13482 0.0
C2076 C 0.14207 0.27458 0.13875 0.0
H2077 H 0.23563 0.22978 0.11369 0.0
H2078 H 0.21287 0.24437 0.12176 0.0
C2079 C 0.13036 0.28037 0.14821 0.0
C2080 C 0.15639 0.252 0.12825 0.0
H2081 H 0.18936 0.23347 0.139 0.0
C2082 C 0.15844 0.25167 0.11222 0.0
C2083 C 0.16773 0.2456 0.13803 0.0
C2084 C 0.16601 0.24593 0.15537 0.0
C2085 C 0.17163 0.24486 0.10567 0.0
C2086 C 0.18281 0.23806 0.11547 0.0
C2087 C 0.18078 0.23867 0.13152 0.0
C2088 C 0.1966 0.22996 0.10946 0.0
C2089 C 0.17356 0.24518 0.08838 0.0
C2090 C 0.19499 0.21698 0.09991 0.0
C2091 C 0.20798 0.20865 0.09524 0.0
C2092 C 0.22279 0.21303 0.10021 0.0
C2093 C 0.22438 0.22608 0.10971 0.0
C2094 C 0.2114 0.23445 0.11429 0.0
H2095 H 0.16661 0.25454 0.08303 0.0
H2096 H 0.18584 0.24679 0.08511 0.0
H2097 H 0.16954 0.23404 0.0835 0.0
H2098 H 0.18367 0.21306 0.09638 0.0
H2099 H 0.20637 0.19861 0.08797 0.0
H2100 H 0.22228 0.78757 0.90821 0.0
H2101 H 0.19841 0.77411 0.90158 0.0
H2102 H 0.21714 0.76274 0.8569 0.0
H2103 H 0.24098 0.7764 0.86332 0.0
H2104 H 0.18823 0.77563 0.85546 0.0
H2105 H 0.18934 0.72792 0.89824 0.0
H2106 H 0.19143 0.74688 0.90637 0.0
H2107 H 0.20614 0.73943 0.8938 0.0
C2108 C 0.22139 0.78211 0.89701 0.0
C2109 C 0.23353 0.78308 0.88627 0.0
C2110 C 0.20777 0.77432 0.8933 0.0
C2111 C 0.2061 0.76724 0.87885 0.0
C2112 C 0.21825 0.76806 0.86816 0.0
H2113 H 0.14001 0.70616 0.83896 0.0
H2114 H 0.16111 0.71712 0.85402 0.0
C2115 C 0.23186 0.77588 0.87184 0.0
C2116 C 0.19133 0.75988 0.87441 0.0
H2117 H 0.16644 0.73064 0.88342 0.0
C2118 C 0.18345 0.76581 0.86159 0.0
C2119 C 0.18519 0.74703 0.8824 0.0
C2120 C 0.1935 0.73982 0.89589 0.0
C2121 C 0.16964 0.75919 0.85643 0.0
C2122 C 0.16334 0.74649 0.86455 0.0
C2123 C 0.17119 0.74054 0.8774 0.0
C2124 C 0.1493 0.73856 0.85891 0.0
C2125 C 0.16221 0.76554 0.84199 0.0
C2126 C 0.1353 0.74658 0.85756 0.0
C2127 C 0.12323 0.7404 0.84885 0.0
C2128 C 0.12497 0.72605 0.84145 0.0
C2129 C 0.13834 0.71731 0.84435 0.0
C2130 C 0.15044 0.72355 0.85297 0.0
H2131 H 0.17023 0.77303 0.83535 0.0
H2132 H 0.15824 0.75606 0.83435 0.0
H2133 H 0.15202 0.77258 0.84523 0.0
H2134 H 0.13409 0.75805 0.86238 0.0
H2135 H 0.11299 0.74734 0.84703 0.0
H2136 H 0.21431 0.22365 0.90683 0.0
H2137 H 0.22783 0.19971 0.90074 0.0
H2138 H 0.24334 0.2193 0.85769 0.0
H2139 H 0.22958 0.24324 0.86354 0.0
H2140 H 0.23005 0.19125 0.854 0.0
H2141 H 0.27332 0.18845 0.90103 0.0
H2142 H 0.25392 0.19099 0.90786 0.0
H2143 H 0.26283 0.20587 0.89645 0.0
C2144 C 0.22074 0.22296 0.89613 0.0
C2145 C 0.22083 0.23535 0.88563 0.0
C2146 C 0.22857 0.20929 0.89274 0.0
C2147 C 0.23678 0.2078 0.87887 0.0
C2148 C 0.23714 0.22025 0.8685 0.0
H2149 H 0.29491 0.13372 0.846 0.0
H2150 H 0.28537 0.15717 0.85845 0.0
C2151 C 0.22926 0.23391 0.87186 0.0
C2152 C 0.24387 0.19285 0.87459 0.0
H2153 H 0.26966 0.16541 0.8863 0.0
C2154 C 0.23876 0.18565 0.86103 0.0
C2155 C 0.25532 0.18562 0.88372 0.0
C2156 C 0.26179 0.19319 0.898 0.0
C2157 C 0.24463 0.17131 0.85644 0.0
C2158 C 0.25565 0.16379 0.86586 0.0
C2159 C 0.261 0.17109 0.87928 0.0
C2160 C 0.26212 0.14863 0.86144 0.0
C2161 C 0.23915 0.16445 0.84137 0.0
C2162 C 0.2524 0.13578 0.85984 0.0
C2163 C 0.25777 0.1224 0.85266 0.0
C2164 C 0.27299 0.12163 0.84709 0.0
C2165 C 0.28311 0.13397 0.8501 0.0
C2166 C 0.27768 0.1474 0.8572 0.0
H2167 H 0.23363 0.17325 0.83385 0.0
H2168 H 0.24887 0.15912 0.83495 0.0
H2169 H 0.23049 0.15533 0.84379 0.0
H2170 H 0.24042 0.13643 0.86335 0.0
H2171 H 0.24974 0.11303 0.85067 0.0
H2172 H 0.77254 0.19755 0.86257 0.0
H2173 H 0.79637 0.21187 0.85798 0.0
H2174 H 0.7964 0.2273 0.90532 0.0
H2175 H 0.77221 0.21347 0.90983 0.0
H2176 H 0.80344 0.25032 0.88699 0.0
H2177 H 0.83922 0.20039 0.87036 0.0
H2178 H 0.82241 0.20146 0.85837 0.0
H2179 H 0.82033 0.19815 0.87881 0.0
C2180 C 0.77765 0.20395 0.87202 0.0
C2181 C 0.77055 0.20432 0.88658 0.0
C2182 C 0.79134 0.21203 0.86942 0.0
C2183 C 0.79841 0.22033 0.88142 0.0
C2184 C 0.79124 0.22086 0.89593 0.0
H2185 H 0.88986 0.25445 0.85587 0.0
H2186 H 0.87 0.24286 0.87228 0.0
C2187 C 0.77741 0.21296 0.89848 0.0
C2188 C 0.81294 0.22892 0.87858 0.0
H2189 H 0.84837 0.22533 0.86189 0.0
C2190 C 0.81337 0.24481 0.88175 0.0
C2191 C 0.82612 0.22169 0.8722 0.0
C2192 C 0.82706 0.20445 0.86992 0.0
C2193 C 0.82622 0.25383 0.87773 0.0
C2194 C 0.83874 0.24685 0.8699 0.0
C2195 C 0.83871 0.23079 0.8677 0.0
C2196 C 0.85115 0.256 0.86244 0.0
C2197 C 0.82612 0.27075 0.8818 0.0
C2198 C 0.84727 0.26758 0.8518 0.0
C2199 C 0.8586 0.27437 0.84261 0.0
C2200 C 0.87403 0.26945 0.84358 0.0
C2201 C 0.87807 0.25845 0.85481 0.0
C2202 C 0.86672 0.2518 0.86417 0.0
H2203 H 0.81959 0.2728 0.89265 0.0
H2204 H 0.83799 0.27537 0.88322 0.0
H2205 H 0.82023 0.2773 0.8725 0.0
H2206 H 0.83534 0.27075 0.84989 0.0
H2207 H 0.85505 0.28276 0.83406 0.0
H2208 H 0.70622 0.86069 0.84339 0.0
H2209 H 0.7155 0.83996 0.86013 0.0
H2210 H 0.7594 0.86296 0.86447 0.0
H2211 H 0.75026 0.88376 0.84778 0.0
H2212 H 0.74149 0.82243 0.85077 0.0
H2213 H 0.75024 0.8479 0.90883 0.0
H2214 H 0.73761 0.85641 0.89458 0.0
H2215 H 0.75812 0.85913 0.89328 0.0
C2216 C 0.71772 0.86157 0.84823 0.0
C2217 C 0.72756 0.87381 0.84414 0.0
C2218 C 0.72299 0.84969 0.85778 0.0
C2219 C 0.73809 0.84999 0.86359 0.0
C2220 C 0.74762 0.86265 0.8603 0.0
H2221 H 0.80533 0.78907 0.90185 0.0
H2222 H 0.78963 0.81066 0.89281 0.0
C2223 C 0.7424 0.87448 0.85068 0.0
C2224 C 0.74461 0.83618 0.87121 0.0
H2225 H 0.76288 0.82387 0.90384 0.0
C2226 C 0.74596 0.82263 0.86247 0.0
C2227 C 0.75053 0.8366 0.88639 0.0
C2228 C 0.74896 0.85074 0.8964 0.0
C2229 C 0.75366 0.80964 0.86825 0.0
C2230 C 0.75983 0.81011 0.88336 0.0
C2231 C 0.75812 0.82354 0.89227 0.0
C2232 C 0.7689 0.7971 0.88973 0.0
C2233 C 0.75577 0.79583 0.85783 0.0
C2234 C 0.76236 0.78236 0.89127 0.0
C2235 C 0.77135 0.76994 0.89627 0.0
C2236 C 0.78699 0.77211 0.90003 0.0
C2237 C 0.79334 0.787 0.89899 0.0
C2238 C 0.78438 0.79937 0.89387 0.0
H2239 H 0.7537 0.79876 0.84552 0.0
H2240 H 0.76759 0.79101 0.85894 0.0
H2241 H 0.74741 0.78672 0.86116 0.0
H2242 H 0.75034 0.78043 0.88846 0.0
H2243 H 0.76608 0.75864 0.89713 0.0
H2244 H 0.78821 0.8096 0.08937 0.0
H2245 H 0.81163 0.79578 0.09713 0.0
H2246 H 0.78382 0.76045 0.11843 0.0
H2247 H 0.76038 0.77416 0.1108 0.0
H2248 H 0.81894 0.78805 0.12898 0.0
H2249 H 0.81565 0.7365 0.09112 0.0
H2250 H 0.80556 0.75427 0.0869 0.0
H2251 H 0.79806 0.74116 0.1011 0.0
C2252 C 0.78708 0.79883 0.0956 0.0
C2253 C 0.77244 0.79298 0.09951 0.0
C2254 C 0.80045 0.79095 0.09999 0.0
C2255 C 0.7994 0.77702 0.10814 0.0
C2256 C 0.78483 0.77106 0.1119 0.0
H2257 H 0.85225 0.71373 0.16005 0.0
H2258 H 0.83414 0.72702 0.14313 0.0
C2259 C 0.77147 0.77897 0.10763 0.0
C2260 C 0.81347 0.76922 0.11378 0.0
H2261 H 0.83305 0.73508 0.11243 0.0
C2262 C 0.82223 0.77658 0.12521 0.0
C2263 C 0.81761 0.75425 0.10882 0.0
C2264 C 0.80883 0.74609 0.09621 0.0
C2265 C 0.83457 0.76902 0.13245 0.0
C2266 C 0.83849 0.75385 0.1278 0.0
C2267 C 0.83006 0.74672 0.11594 0.0
C2268 C 0.8503 0.74472 0.13613 0.0
C2269 C 0.84271 0.77704 0.14562 0.0
C2270 C 0.86561 0.74988 0.13729 0.0
C2271 C 0.87599 0.74238 0.14711 0.0
C2272 C 0.87126 0.72949 0.15576 0.0
C2273 C 0.85626 0.72368 0.15364 0.0
C2274 C 0.84587 0.73126 0.14395 0.0
H2275 H 0.83611 0.78716 0.1499 0.0
H2276 H 0.84459 0.76898 0.15541 0.0
H2277 H 0.85414 0.7812 0.14162 0.0
H2278 H 0.86936 0.76004 0.13105 0.0
H2279 H 0.88752 0.74704 0.14835 0.0
H2280 H 0.19677 0.78566 0.08394 0.0
H2281 H 0.2111 0.80884 0.09123 0.0
H2282 H 0.24464 0.78079 0.11496 0.0
H2283 H 0.23039 0.75749 0.10776 0.0
H2284 H 0.21714 0.81676 0.12301 0.0
H2285 H 0.27081 0.81147 0.08838 0.0
H2286 H 0.25317 0.80152 0.08341 0.0
H2287 H 0.26514 0.79441 0.09875 0.0
C2288 C 0.20728 0.78439 0.09058 0.0
C2289 C 0.21241 0.76974 0.09534 0.0
C2290 C 0.21546 0.79765 0.09469 0.0
C2291 C 0.229 0.79648 0.10345 0.0
C2292 C 0.23435 0.78188 0.10796 0.0
H2293 H 0.28862 0.85399 0.15597 0.0
H2294 H 0.27727 0.83429 0.13939 0.0
C2295 C 0.22613 0.7686 0.10393 0.0
C2296 C 0.23674 0.81058 0.10911 0.0
H2297 H 0.2708 0.83035 0.10837 0.0
C2298 C 0.22879 0.81989 0.11968 0.0
C2299 C 0.25195 0.81449 0.10475 0.0
C2300 C 0.26078 0.80504 0.09311 0.0
C2301 C 0.23588 0.8327 0.12653 0.0
C2302 C 0.25119 0.83656 0.12233 0.0
C2303 C 0.25903 0.82743 0.11147 0.0
C2304 C 0.25959 0.84926 0.13008 0.0
C2305 C 0.22714 0.84151 0.13878 0.0
C2306 C 0.2539 0.86442 0.12974 0.0
C2307 C 0.26027 0.87571 0.13934 0.0
C2308 C 0.27256 0.87203 0.14929 0.0
C2309 C 0.27909 0.85719 0.14855 0.0
C2310 C 0.27262 0.84589 0.13906 0.0
H2311 H 0.21703 0.83494 0.14313 0.0
H2312 H 0.23474 0.84431 0.14871 0.0
H2313 H 0.22283 0.8525 0.13382 0.0
H2314 H 0.24408 0.86735 0.12258 0.0
H2315 H 0.25509 0.88709 0.1395 0.0
H2316 H 0.75048 0.11776 0.15564 0.0
H2317 H 0.76022 0.14046 0.14198 0.0
H2318 H 0.71595 0.16263 0.14698 0.0
H2319 H 0.70597 0.13985 0.16025 0.0
H2320 H 0.72982 0.16956 0.1192 0.0
H2321 H 0.77033 0.17816 0.16807 0.0
H2322 H 0.77257 0.15995 0.15847 0.0
H2323 H 0.75496 0.16415 0.16864 0.0
C2324 C 0.74271 0.12733 0.15353 0.0
C2325 C 0.72753 0.12711 0.15925 0.0
C2326 C 0.74833 0.14033 0.14582 0.0
C2327 C 0.73894 0.15338 0.1439 0.0
C2328 C 0.72343 0.15272 0.14849 0.0
H2329 H 0.7732 0.24702 0.13674 0.0
H2330 H 0.76004 0.22323 0.14436 0.0
C2331 C 0.71775 0.13967 0.15606 0.0
C2332 C 0.74556 0.16814 0.13836 0.0
H2333 H 0.77271 0.19531 0.14702 0.0
C2334 C 0.7392 0.17521 0.12525 0.0
C2335 C 0.75756 0.17565 0.14651 0.0
C2336 C 0.76417 0.16919 0.16129 0.0
C2337 C 0.74469 0.18952 0.11993 0.0
C2338 C 0.75706 0.19674 0.12778 0.0
C2339 C 0.76329 0.18972 0.14097 0.0
C2340 C 0.76384 0.21157 0.1226 0.0
C2341 C 0.73695 0.19689 0.10619 0.0
C2342 C 0.77029 0.21295 0.10781 0.0
C2343 C 0.77769 0.22657 0.10338 0.0
C2344 C 0.77901 0.23899 0.11375 0.0
C2345 C 0.7724 0.23765 0.1285 0.0
C2346 C 0.76488 0.22407 0.13287 0.0
H2347 H 0.72506 0.1924 0.10451 0.0
H2348 H 0.73638 0.20963 0.10746 0.0
H2349 H 0.74367 0.1942 0.09563 0.0
H2350 H 0.76999 0.20334 0.09983 0.0
H2351 H 0.78275 0.22718 0.09197 0.0
H2352 H 0.66027 0.64026 0.78933 0.0
H2353 H 0.64472 0.6605 0.77769 0.0
H2354 H 0.63677 0.63171 0.73786 0.0
H2355 H 0.65284 0.61151 0.74925 0.0
H2356 H 0.64856 0.65827 0.72958 0.0
H2357 H 0.6005 0.67037 0.76952 0.0
H2358 H 0.61853 0.67065 0.77962 0.0
H2359 H 0.61191 0.65299 0.77084 0.0
C2360 C 0.65487 0.63801 0.77829 0.0
C2361 C 0.65797 0.62433 0.77013 0.0
C2362 C 0.64584 0.6496 0.77168 0.0
C2363 C 0.63948 0.64763 0.75692 0.0
C2364 C 0.64157 0.63349 0.74926 0.0
H2365 H 0.58958 0.72386 0.71286 0.0
H2366 H 0.59589 0.69904 0.7247 0.0
C2367 C 0.65073 0.62194 0.75581 0.0
C2368 C 0.6328 0.66105 0.74864 0.0
H2369 H 0.60811 0.69149 0.75272 0.0
C2370 C 0.63951 0.66536 0.73453 0.0
C2371 C 0.6209 0.67027 0.75497 0.0
C2372 C 0.61245 0.66572 0.76949 0.0
C2373 C 0.63517 0.67897 0.72696 0.0
C2374 C 0.62412 0.68877 0.73388 0.0
C2375 C 0.61682 0.68411 0.74758 0.0
C2376 C 0.62022 0.70401 0.72719 0.0
C2377 C 0.64253 0.68272 0.71162 0.0
C2378 C 0.63175 0.71518 0.72499 0.0
C2379 C 0.62823 0.72933 0.71813 0.0
C2380 C 0.61304 0.73266 0.71353 0.0
C2381 C 0.60141 0.72164 0.71622 0.0
C2382 C 0.60498 0.70745 0.72299 0.0
H2383 H 0.64685 0.67215 0.70578 0.0
H2384 H 0.63427 0.68863 0.70381 0.0
H2385 H 0.65254 0.69048 0.71354 0.0
H2386 H 0.64353 0.71291 0.72851 0.0
H2387 H 0.63741 0.73762 0.71636 0.0
H2388 H 0.28641 0.62218 0.68699 0.0
H2389 H 0.30836 0.6299 0.70294 0.0
H2390 H 0.29476 0.59717 0.73786 0.0
H2391 H 0.27274 0.5893 0.72198 0.0
H2392 H 0.30527 0.64177 0.73403 0.0
H2393 H 0.34205 0.5892 0.73064 0.0
H2394 H 0.32726 0.59346 0.71657 0.0
H2395 H 0.322 0.58639 0.7353 0.0
C2396 C 0.28814 0.61651 0.698 0.0
C2397 C 0.27782 0.60514 0.70323 0.0
C2398 C 0.30068 0.62093 0.70708 0.0
C2399 C 0.30323 0.61397 0.72147 0.0
C2400 C 0.29309 0.60249 0.72667 0.0
H2401 H 0.36099 0.65596 0.79206 0.0
H2402 H 0.34123 0.64 0.77977 0.0
C2403 C 0.28048 0.5981 0.71762 0.0
C2404 C 0.31593 0.61951 0.73139 0.0
H2405 H 0.35081 0.60944 0.74675 0.0
C2406 C 0.31519 0.6347 0.73689 0.0
C2407 C 0.32883 0.61021 0.73501 0.0
C2408 C 0.33024 0.59393 0.72903 0.0
C2409 C 0.32712 0.64093 0.74584 0.0
C2410 C 0.34004 0.63164 0.74949 0.0
C2411 C 0.34078 0.61642 0.74405 0.0
C2412 C 0.35329 0.63815 0.75801 0.0
C2413 C 0.32603 0.65755 0.75095 0.0
C2414 C 0.36695 0.64161 0.75008 0.0
C2415 C 0.37827 0.65073 0.75704 0.0
C2416 C 0.37607 0.65651 0.77205 0.0
C2417 C 0.36298 0.65182 0.78044 0.0
C2418 C 0.35166 0.64272 0.77344 0.0
H2419 H 0.31656 0.66383 0.74501 0.0
H2420 H 0.32381 0.65797 0.76355 0.0
H2421 H 0.33706 0.66369 0.7487 0.0
H2422 H 0.3684 0.63812 0.73816 0.0
H2423 H 0.38827 0.65402 0.7503 0.0
H2424 H 0.40794 0.26339 0.71974 0.0
H2425 H 0.40238 0.28638 0.73513 0.0
H2426 H 0.35471 0.2844 0.72097 0.0
H2427 H 0.36008 0.26126 0.70577 0.0
H2428 H 0.39148 0.31449 0.72571 0.0
H2429 H 0.35114 0.28805 0.76756 0.0
H2430 H 0.36334 0.27668 0.75508 0.0
H2431 H 0.34549 0.28456 0.74796 0.0
C2432 C 0.39625 0.26778 0.71997 0.0
C2433 C 0.38442 0.26045 0.71158 0.0
C2434 C 0.39311 0.28093 0.72877 0.0
C2435 C 0.3781 0.28694 0.72939 0.0
C2436 C 0.36631 0.27972 0.72094 0.0
H2437 H 0.34178 0.37579 0.74696 0.0
H2438 H 0.35557 0.35353 0.73681 0.0
C2439 C 0.36941 0.26655 0.71219 0.0
C2440 C 0.37481 0.30108 0.7384 0.0
H2441 H 0.35064 0.31567 0.76578 0.0
C2442 C 0.3827 0.31473 0.73463 0.0
C2443 C 0.36361 0.3013 0.75025 0.0
C2444 C 0.35553 0.28682 0.75558 0.0
C2445 C 0.37908 0.32877 0.74185 0.0
C2446 C 0.36707 0.32919 0.75289 0.0
C2447 C 0.35976 0.31539 0.75722 0.0
C2448 C 0.36097 0.34386 0.75921 0.0
C2449 C 0.38807 0.34302 0.73747 0.0
C2450 C 0.35946 0.34592 0.77521 0.0
C2451 C 0.35139 0.35859 0.78108 0.0
C2452 C 0.34461 0.36938 0.77103 0.0
C2453 C 0.34688 0.36773 0.75504 0.0
C2454 C 0.35488 0.35503 0.7492 0.0
H2455 H 0.39986 0.34 0.73342 0.0
H2456 H 0.38207 0.34899 0.72786 0.0
H2457 H 0.38906 0.35115 0.74732 0.0
H2458 H 0.36403 0.33739 0.78314 0.0
H2459 H 0.34987 0.35954 0.79345 0.0
H2460 H 0.63347 0.33711 0.78939 0.0
H2461 H 0.65389 0.35144 0.77663 0.0
H2462 H 0.6218 0.36618 0.74148 0.0
H2463 H 0.60147 0.35089 0.75376 0.0
H2464 H 0.64478 0.3548 0.72824 0.0
H2465 H 0.66889 0.39376 0.77203 0.0
H2466 H 0.66867 0.37466 0.77985 0.0
H2467 H 0.65072 0.38403 0.77492 0.0
C2468 C 0.63062 0.3438 0.77922 0.0
C2469 C 0.61589 0.34286 0.77253 0.0
C2470 C 0.64233 0.35212 0.77195 0.0
C2471 C 0.63943 0.3601 0.75814 0.0
C2472 C 0.62437 0.36012 0.75211 0.0
H2473 H 0.72076 0.40336 0.71597 0.0
H2474 H 0.69575 0.39981 0.72853 0.0
C2475 C 0.61273 0.35145 0.75916 0.0
C2476 C 0.6525 0.36633 0.74893 0.0
H2477 H 0.68707 0.38487 0.75228 0.0
C2478 C 0.65384 0.36169 0.73345 0.0
C2479 C 0.66428 0.37557 0.75548 0.0
C2480 C 0.66294 0.38241 0.77143 0.0
C2481 C 0.66693 0.36527 0.72466 0.0
C2482 C 0.67941 0.37307 0.73174 0.0
C2483 C 0.67771 0.37852 0.74692 0.0
C2484 C 0.69443 0.3753 0.7238 0.0
C2485 C 0.66715 0.36064 0.70786 0.0
C2486 C 0.70216 0.36269 0.71712 0.0
C2487 C 0.71627 0.36477 0.70961 0.0
C2488 C 0.72318 0.3794 0.70912 0.0
C2489 C 0.7157 0.39193 0.71621 0.0
C2490 C 0.70141 0.38992 0.72339 0.0
H2491 H 0.65529 0.36036 0.703 0.0
H2492 H 0.67423 0.36868 0.70083 0.0
H2493 H 0.67201 0.34885 0.7068 0.0
H2494 H 0.69734 0.35118 0.71779 0.0
H2495 H 0.72189 0.35488 0.70442 0.0
H2496 H 0.66639 0.35377 0.212 0.0
H2497 H 0.65093 0.33337 0.22362 0.0
H2498 H 0.63827 0.36394 0.26081 0.0
H2499 H 0.65401 0.3844 0.24939 0.0
H2500 H 0.65093 0.33747 0.27112 0.0
H2501 H 0.60558 0.32355 0.22845 0.0
H2502 H 0.62444 0.32373 0.21992 0.0
H2503 H 0.61654 0.34127 0.22775 0.0
C2504 C 0.66003 0.35631 0.22245 0.0
C2505 C 0.66156 0.37067 0.22985 0.0
C2506 C 0.65109 0.34464 0.22903 0.0
C2507 C 0.64335 0.34716 0.24302 0.0
C2508 C 0.64412 0.36177 0.24997 0.0
H2509 H 0.58998 0.27436 0.28842 0.0
H2510 H 0.59755 0.29843 0.27576 0.0
C2511 C 0.65311 0.37346 0.24342 0.0
C2512 C 0.63627 0.334 0.25134 0.0
H2513 H 0.61143 0.30371 0.2471 0.0
C2514 C 0.64212 0.33022 0.26596 0.0
C2515 C 0.6247 0.32462 0.24466 0.0
C2516 C 0.61734 0.32859 0.22939 0.0
C2517 C 0.63718 0.31698 0.27382 0.0
C2518 C 0.62633 0.30709 0.26672 0.0
C2519 C 0.61995 0.3112 0.2524 0.0
C2520 C 0.62168 0.29231 0.27391 0.0
C2521 C 0.6437 0.31367 0.28963 0.0
C2522 C 0.6327 0.28079 0.27676 0.0
C2523 C 0.62844 0.26705 0.28403 0.0
C2524 C 0.61305 0.26454 0.28847 0.0
C2525 C 0.60195 0.27596 0.28521 0.0
C2526 C 0.60624 0.28971 0.27796 0.0
H2527 H 0.64831 0.32429 0.29515 0.0
H2528 H 0.6348 0.30858 0.29732 0.0
H2529 H 0.65333 0.30531 0.28855 0.0
H2530 H 0.64462 0.28246 0.27341 0.0
H2531 H 0.63723 0.25845 0.28625 0.0
H2532 H 0.7232 0.59037 0.28512 0.0
H2533 H 0.69884 0.5956 0.27201 0.0
H2534 H 0.71684 0.63902 0.25563 0.0
H2535 H 0.74121 0.63404 0.26901 0.0
H2536 H 0.68888 0.64206 0.26911 0.0
H2537 H 0.68703 0.59417 0.22676 0.0
H2538 H 0.68994 0.58776 0.24624 0.0
H2539 H 0.7044 0.59944 0.23699 0.0
C2540 C 0.72206 0.60097 0.2786 0.0
C2541 C 0.73414 0.61182 0.27814 0.0
C2542 C 0.70815 0.60387 0.271 0.0
C2543 C 0.70611 0.61758 0.26264 0.0
C2544 C 0.71823 0.62832 0.26195 0.0
H2545 H 0.63104 0.64709 0.20427 0.0
H2546 H 0.65468 0.63529 0.2141 0.0
C2547 C 0.73213 0.62547 0.26961 0.0
C2548 C 0.69095 0.62127 0.25567 0.0
H2549 H 0.66361 0.60828 0.23039 0.0
C2550 C 0.68339 0.6347 0.2606 0.0
C2551 C 0.68386 0.61171 0.24448 0.0
C2552 C 0.69178 0.59754 0.23818 0.0
C2553 C 0.66888 0.63878 0.25478 0.0
C2554 C 0.66153 0.62894 0.24401 0.0
C2555 C 0.66916 0.61562 0.23887 0.0
C2556 C 0.64626 0.63289 0.23747 0.0
C2557 C 0.66168 0.65378 0.26 0.0
C2558 C 0.6334 0.63455 0.24716 0.0
C2559 C 0.6199 0.64138 0.24162 0.0
C2560 C 0.61901 0.64651 0.22624 0.0
C2561 C 0.63136 0.64335 0.21619 0.0
C2562 C 0.64491 0.63662 0.22179 0.0
H2563 H 0.67032 0.66163 0.2653 0.0
H2564 H 0.65613 0.65986 0.25018 0.0
H2565 H 0.65269 0.65132 0.26877 0.0
H2566 H 0.63413 0.63141 0.25924 0.0
H2567 H 0.61052 0.64348 0.24961 0.0
H2568 H 0.35265 0.61052 0.24746 0.0
H2569 H 0.3676 0.63184 0.25833 0.0
H2570 H 0.36288 0.65711 0.21577 0.0
H2571 H 0.34793 0.63587 0.20471 0.0
H2572 H 0.39593 0.65386 0.24131 0.0
H2573 H 0.3384 0.67792 0.25739 0.0
H2574 H 0.34154 0.65735 0.25643 0.0
H2575 H 0.341 0.66848 0.23902 0.0
C2576 C 0.35514 0.62041 0.24024 0.0
C2577 C 0.34891 0.62159 0.22528 0.0
C2578 C 0.36371 0.63255 0.24647 0.0
C2579 C 0.36621 0.64599 0.23784 0.0
C2580 C 0.36105 0.64676 0.22254 0.0
H2581 H 0.38478 0.73864 0.27059 0.0
H2582 H 0.37735 0.71618 0.25523 0.0
C2583 C 0.3525 0.63461 0.21627 0.0
C2584 C 0.37223 0.65992 0.24549 0.0
H2585 H 0.36025 0.69196 0.2649 0.0
C2586 C 0.3882 0.66225 0.24645 0.0
C2587 C 0.36203 0.67079 0.25206 0.0
C2588 C 0.34476 0.66863 0.25127 0.0
C2589 C 0.39427 0.67531 0.25391 0.0
C2590 C 0.38404 0.68605 0.26078 0.0
C2591 C 0.36806 0.68372 0.25963 0.0
C2592 C 0.38954 0.69969 0.26949 0.0
C2593 C 0.41152 0.6776 0.25416 0.0
C2594 C 0.3988 0.69786 0.28265 0.0
C2595 C 0.40311 0.71068 0.29142 0.0
C2596 C 0.39807 0.72554 0.2873 0.0
C2597 C 0.38882 0.72734 0.2741 0.0
C2598 C 0.3846 0.71453 0.26529 0.0
H2599 H 0.41728 0.67108 0.24475 0.0
H2600 H 0.41456 0.69 0.25304 0.0
H2601 H 0.41616 0.67333 0.2653 0.0
H2602 H 0.40241 0.68648 0.28634 0.0
H2603 H 0.41018 0.70889 0.30157 0.0
H2604 H 0.38476 0.34413 0.25267 0.0
H2605 H 0.36226 0.35782 0.26253 0.0
H2606 H 0.34259 0.35877 0.21683 0.0
H2607 H 0.36495 0.34469 0.20686 0.0
H2608 H 0.34672 0.38505 0.25643 0.0
H2609 H 0.31121 0.33371 0.24145 0.0
H2610 H 0.332 0.33353 0.2406 0.0
H2611 H 0.32103 0.34257 0.22549 0.0
C2612 C 0.37581 0.34749 0.24462 0.0
C2613 C 0.37651 0.34304 0.22902 0.0
C2614 C 0.36295 0.35534 0.25029 0.0
C2615 C 0.3506 0.35894 0.24048 0.0
C2616 C 0.35186 0.35575 0.22465 0.0
H2617 H 0.26873 0.40775 0.2749 0.0
H2618 H 0.29187 0.40096 0.26024 0.0
C2619 C 0.36469 0.34778 0.21897 0.0
C2620 C 0.33596 0.36468 0.24717 0.0
H2621 H 0.29847 0.35436 0.25353 0.0
C2622 C 0.33611 0.37844 0.2557 0.0
C2623 C 0.32223 0.35585 0.2464 0.0
C2624 C 0.32155 0.34053 0.23812 0.0
C2625 C 0.32295 0.38353 0.26367 0.0
C2626 C 0.30922 0.37473 0.26282 0.0
C2627 C 0.309 0.36111 0.25408 0.0
C2628 C 0.29515 0.37894 0.27156 0.0
C2629 C 0.32404 0.39792 0.27341 0.0
C2630 C 0.28907 0.36862 0.28247 0.0
C2631 C 0.27575 0.37237 0.29073 0.0
C2632 C 0.26827 0.38653 0.28823 0.0
C2633 C 0.2743 0.3968 0.27718 0.0
C2634 C 0.28758 0.39299 0.26886 0.0
H2635 H 0.33621 0.40118 0.27577 0.0
H2636 H 0.31849 0.40764 0.26719 0.0
H2637 H 0.31797 0.39636 0.28458 0.0
H2638 H 0.29471 0.35768 0.28467 0.0
H2639 H 0.27141 0.36421 0.29915 0.0
H2640 H 0.71922 0.59694 0.72308 0.0
H2641 H 0.73165 0.60228 0.69841 0.0
H2642 H 0.7305 0.65107 0.70828 0.0
H2643 H 0.71745 0.64584 0.73279 0.0
H2644 H 0.7213 0.64569 0.67986 0.0
H2645 H 0.77552 0.61336 0.68966 0.0
H2646 H 0.75877 0.60141 0.69183 0.0
H2647 H 0.76193 0.61722 0.70494 0.0
C2648 C 0.7217 0.60882 0.72006 0.0
C2649 C 0.71741 0.62099 0.7299 0.0
C2650 C 0.72893 0.61183 0.70599 0.0
C2651 C 0.73233 0.62704 0.70163 0.0
C2652 C 0.72807 0.63923 0.71145 0.0
H2653 H 0.79163 0.65992 0.62934 0.0
H2654 H 0.7811 0.64885 0.65296 0.0
C2655 C 0.72062 0.63623 0.72545 0.0
C2656 C 0.73965 0.63032 0.6865 0.0
H2657 H 0.77079 0.62177 0.66389 0.0
C2658 C 0.73215 0.6405 0.6764 0.0
C2659 C 0.7539 0.62365 0.68205 0.0
C2660 C 0.76308 0.61343 0.69276 0.0
C2661 C 0.73845 0.64422 0.66198 0.0
C2662 C 0.7524 0.6371 0.65727 0.0
C2663 C 0.75995 0.62696 0.66739 0.0
C2664 C 0.75986 0.64104 0.64239 0.0
C2665 C 0.73036 0.65617 0.65219 0.0
C2666 C 0.75185 0.63945 0.6284 0.0
C2667 C 0.75775 0.64595 0.61488 0.0
C2668 C 0.77192 0.65386 0.6151 0.0
C2669 C 0.78066 0.65395 0.62877 0.0
C2670 C 0.77463 0.64766 0.64232 0.0
H2671 H 0.72228 0.66333 0.65912 0.0
H2672 H 0.73878 0.66396 0.64649 0.0
H2673 H 0.72353 0.65028 0.64311 0.0
H2674 H 0.74065 0.63392 0.62811 0.0
H2675 H 0.75084 0.64554 0.60448 0.0
H2676 H 0.38334 0.7302 0.73778 0.0
H2677 H 0.37548 0.74287 0.71378 0.0
H2678 H 0.40451 0.71199 0.68776 0.0
H2679 H 0.41247 0.69921 0.71165 0.0
H2680 H 0.39554 0.75669 0.68878 0.0
H2681 H 0.35918 0.7069 0.67048 0.0
H2682 H 0.36506 0.70965 0.69028 0.0
H2683 H 0.37871 0.70289 0.67627 0.0
C2684 C 0.38811 0.72613 0.72697 0.0
C2685 C 0.39844 0.71362 0.72661 0.0
C2686 C 0.38365 0.73343 0.7133 0.0
C2687 C 0.38936 0.72827 0.69906 0.0
C2688 C 0.39992 0.71603 0.69866 0.0
H2689 H 0.35156 0.7512 0.6087 0.0
H2690 H 0.36952 0.74138 0.62814 0.0
C2691 C 0.40444 0.70877 0.71233 0.0
C2692 C 0.38368 0.73527 0.6846 0.0
H2693 H 0.35958 0.72854 0.65427 0.0
C2694 C 0.38778 0.75054 0.68113 0.0
C2695 C 0.37368 0.72712 0.67465 0.0
C2696 C 0.36877 0.71076 0.67806 0.0
C2697 C 0.38189 0.75799 0.668 0.0
C2698 C 0.37136 0.75005 0.65836 0.0
C2699 C 0.36769 0.7346 0.66162 0.0
C2700 C 0.36283 0.75781 0.64573 0.0
C2701 C 0.38699 0.77429 0.66461 0.0
C2702 C 0.35342 0.77057 0.64901 0.0
C2703 C 0.34323 0.77626 0.63791 0.0
C2704 C 0.34208 0.76915 0.62338 0.0
C2705 C 0.35213 0.75692 0.6198 0.0
C2706 C 0.36239 0.75128 0.6309 0.0
H2707 H 0.39869 0.77655 0.66934 0.0
H2708 H 0.38711 0.77665 0.65201 0.0
H2709 H 0.3789 0.78248 0.6702 0.0
H2710 H 0.35327 0.77558 0.66046 0.0
H2711 H 0.33566 0.78569 0.64107 0.0
H2712 H 0.26971 0.40134 0.73789 0.0
H2713 H 0.25378 0.39675 0.71504 0.0
H2714 H 0.27236 0.35073 0.71129 0.0
H2715 H 0.28811 0.35509 0.73424 0.0
H2716 H 0.26362 0.39028 0.6859 0.0
H2717 H 0.2264 0.34302 0.70719 0.0
H2718 H 0.23779 0.3549 0.71997 0.0
H2719 H 0.24648 0.33886 0.71001 0.0
C2720 C 0.27027 0.39017 0.73232 0.0
C2721 C 0.28016 0.37855 0.7379 0.0
C2722 C 0.26117 0.38759 0.71926 0.0
C2723 C 0.26172 0.37334 0.7116 0.0
C2724 C 0.27148 0.36169 0.71723 0.0
H2725 H 0.24929 0.34522 0.61953 0.0
H2726 H 0.25723 0.35796 0.64326 0.0
C2727 C 0.28054 0.36423 0.73031 0.0
C2728 C 0.25287 0.37089 0.69719 0.0
H2729 H 0.22844 0.34558 0.6796 0.0
C2730 C 0.25572 0.38066 0.68458 0.0
C2731 C 0.24233 0.35855 0.69556 0.0
C2732 C 0.23793 0.34834 0.70896 0.0
C2733 C 0.24901 0.37784 0.67011 0.0
C2734 C 0.23946 0.36475 0.66818 0.0
C2735 C 0.23589 0.35554 0.68103 0.0
C2736 C 0.23417 0.35949 0.65278 0.0
C2737 C 0.2524 0.38879 0.65701 0.0
C2738 C 0.21854 0.3562 0.65013 0.0
C2739 C 0.21396 0.34872 0.63659 0.0
C2740 C 0.22497 0.34432 0.62551 0.0
C2741 C 0.24049 0.34846 0.6278 0.0
C2742 C 0.24506 0.35587 0.64135 0.0
H2743 H 0.25488 0.40059 0.66138 0.0
H2744 H 0.26278 0.38473 0.65071 0.0
H2745 H 0.24261 0.38942 0.64876 0.0
H2746 H 0.20996 0.35885 0.65883 0.0
H2747 H 0.20191 0.34573 0.63517 0.0
H2748 H 0.65166 0.20456 0.63695 0.0
H2749 H 0.63626 0.21442 0.6584 0.0
H2750 H 0.62553 0.25527 0.6321 0.0
H2751 H 0.64089 0.24553 0.61056 0.0
H2752 H 0.64552 0.24335 0.67175 0.0
H2753 H 0.58404 0.24381 0.65359 0.0
H2754 H 0.59826 0.23131 0.64485 0.0
H2755 H 0.59753 0.25138 0.63975 0.0
C2756 C 0.64568 0.21544 0.63553 0.0
C2757 C 0.64765 0.22435 0.62211 0.0
C2758 C 0.63689 0.22105 0.64782 0.0
C2759 C 0.62975 0.23553 0.6468 0.0
C2760 C 0.63078 0.24396 0.63302 0.0
H2761 H 0.59013 0.30176 0.70947 0.0
H2762 H 0.59871 0.28674 0.68716 0.0
C2763 C 0.63964 0.2384 0.62075 0.0
C2764 C 0.62324 0.24281 0.66078 0.0
H2765 H 0.59041 0.25817 0.67613 0.0
C2766 C 0.63343 0.24643 0.67282 0.0
C2767 C 0.60754 0.24699 0.66196 0.0
C2768 C 0.59614 0.24309 0.64942 0.0
C2769 C 0.62843 0.2545 0.6859 0.0
C2770 C 0.61269 0.25867 0.68715 0.0
C2771 C 0.60245 0.2549 0.67516 0.0
C2772 C 0.6068 0.26734 0.70065 0.0
C2773 C 0.64019 0.25899 0.69795 0.0
C2774 C 0.60826 0.26129 0.7156 0.0
C2775 C 0.60356 0.26992 0.72837 0.0
C2776 C 0.59708 0.28466 0.7264 0.0
C2777 C 0.59515 0.29047 0.71137 0.0
C2778 C 0.59999 0.28189 0.69861 0.0
H2779 H 0.65213 0.25867 0.6933 0.0
H2780 H 0.6379 0.27076 0.70248 0.0
H2781 H 0.63958 0.25073 0.70772 0.0
H2782 H 0.61314 0.24992 0.7174 0.0
H2783 H 0.60501 0.26503 0.73979 0.0
H2784 H 0.72011 0.4051 0.27358 0.0
H2785 H 0.73261 0.39883 0.298 0.0
H2786 H 0.74223 0.35289 0.28144 0.0
H2787 H 0.72939 0.35894 0.25702 0.0
H2788 H 0.72889 0.35269 0.30954 0.0
H2789 H 0.7776 0.39412 0.30956 0.0
H2790 H 0.75922 0.40321 0.30662 0.0
H2791 H 0.76649 0.38989 0.29245 0.0
C2792 C 0.72504 0.3937 0.27504 0.0
C2793 C 0.72373 0.38249 0.26336 0.0
C2794 C 0.7323 0.39019 0.28898 0.0
C2795 C 0.73857 0.37548 0.29146 0.0
C2796 C 0.73754 0.36435 0.27972 0.0
H2797 H 0.79339 0.34173 0.36753 0.0
H2798 H 0.78475 0.35344 0.34339 0.0
C2799 C 0.7302 0.36782 0.26578 0.0
C2800 C 0.74509 0.37132 0.30671 0.0
H2801 H 0.77212 0.38158 0.33352 0.0
C2802 C 0.73839 0.35896 0.31474 0.0
C2803 C 0.75756 0.37945 0.31343 0.0
C2804 C 0.76575 0.39231 0.30501 0.0
C2805 C 0.7437 0.35459 0.32937 0.0
C2806 C 0.75578 0.36308 0.33635 0.0
C2807 C 0.76267 0.37529 0.32825 0.0
C2808 C 0.76185 0.35881 0.35174 0.0
C2809 C 0.73651 0.34071 0.33708 0.0
C2810 C 0.75211 0.35878 0.36467 0.0
C2811 C 0.75696 0.352 0.37847 0.0
C2812 C 0.7717 0.34529 0.37958 0.0
C2813 C 0.78193 0.3467 0.36705 0.0
C2814 C 0.77701 0.35338 0.35322 0.0
H2815 H 0.73021 0.33333 0.32869 0.0
H2816 H 0.7454 0.33356 0.34291 0.0
H2817 H 0.72813 0.34465 0.34592 0.0
H2818 H 0.74047 0.36327 0.36385 0.0
H2819 H 0.74887 0.35127 0.38796 0.0
H2820 H 0.61121 0.72009 0.26039 0.0
H2821 H 0.61926 0.73505 0.28289 0.0
H2822 H 0.58686 0.71015 0.31128 0.0
H2823 H 0.57871 0.69504 0.28881 0.0
H2824 H 0.60009 0.75367 0.30439 0.0
H2825 H 0.63039 0.70391 0.33174 0.0
H2826 H 0.62542 0.70404 0.31151 0.0
H2827 H 0.61069 0.7012 0.32576 0.0
C2828 C 0.60575 0.7178 0.2714 0.0
C2829 C 0.59441 0.70628 0.27285 0.0
C2830 C 0.61031 0.72641 0.28422 0.0
C2831 C 0.60371 0.7236 0.29871 0.0
C2832 C 0.59216 0.71236 0.30018 0.0
H2833 H 0.64525 0.75877 0.38384 0.0
H2834 H 0.62564 0.74721 0.36707 0.0
C2835 C 0.58753 0.70377 0.28734 0.0
C2836 C 0.60949 0.73208 0.31232 0.0
H2837 H 0.63288 0.72801 0.34368 0.0
C2838 C 0.60709 0.74806 0.31312 0.0
C2839 C 0.61847 0.72466 0.32373 0.0
C2840 C 0.62153 0.70752 0.32321 0.0
C2841 C 0.61391 0.75695 0.3248 0.0
C2842 C 0.62366 0.74968 0.33569 0.0
C2843 C 0.62539 0.73357 0.33533 0.0
C2844 C 0.63365 0.75858 0.34633 0.0
C2845 C 0.61082 0.77408 0.32521 0.0
C2846 C 0.64447 0.76899 0.34027 0.0
C2847 C 0.65563 0.77561 0.34979 0.0
C2848 C 0.6563 0.77182 0.36554 0.0
C2849 C 0.64502 0.76194 0.37175 0.0
C2850 C 0.63382 0.75531 0.36219 0.0
H2851 H 0.59932 0.77681 0.32024 0.0
H2852 H 0.61135 0.77866 0.33716 0.0
H2853 H 0.61963 0.78011 0.31814 0.0
H2854 H 0.64482 0.77139 0.32801 0.0
H2855 H 0.66414 0.78316 0.34463 0.0
H2856 H 0.25172 0.65613 0.38022 0.0
H2857 H 0.26215 0.64328 0.35746 0.0
H2858 H 0.21678 0.64216 0.33708 0.0
H2859 H 0.20623 0.65536 0.3597 0.0
H2860 H 0.25637 0.61613 0.34134 0.0
H2861 H 0.2418 0.66808 0.30656 0.0
H2862 H 0.2407 0.66789 0.32734 0.0
H2863 H 0.22574 0.65903 0.31603 0.0
C2864 C 0.24387 0.65292 0.37104 0.0
C2865 C 0.22818 0.65703 0.37166 0.0
C2866 C 0.24987 0.64555 0.35803 0.0
C2867 C 0.2403 0.64212 0.34545 0.0
C2868 C 0.22441 0.64505 0.34654 0.0
H2869 H 0.2756 0.59454 0.26333 0.0
H2870 H 0.26053 0.60121 0.28623 0.0
C2871 C 0.2184 0.65251 0.35952 0.0
C2872 C 0.24726 0.6367 0.33082 0.0
H2873 H 0.25406 0.64765 0.29359 0.0
C2874 C 0.25578 0.62292 0.33084 0.0
C2875 C 0.24666 0.64576 0.31724 0.0
C2876 C 0.23836 0.66108 0.31674 0.0
C2877 C 0.26387 0.61804 0.31768 0.0
C2878 C 0.26318 0.62708 0.30409 0.0
C2879 C 0.25449 0.64073 0.30401 0.0
C2880 C 0.27203 0.62304 0.29004 0.0
C2881 C 0.27355 0.6036 0.31862 0.0
C2882 C 0.28317 0.63332 0.28432 0.0
C2883 C 0.29169 0.62964 0.27115 0.0
C2884 C 0.28922 0.61558 0.26344 0.0
C2885 C 0.27787 0.60541 0.26907 0.0
C2886 C 0.26931 0.60915 0.28221 0.0
H2887 H 0.27575 0.6001 0.33076 0.0
H2888 H 0.26738 0.59401 0.3128 0.0
H2889 H 0.28481 0.60525 0.31273 0.0
H2890 H 0.28539 0.64415 0.29016 0.0
H2891 H 0.30032 0.63773 0.26712 0.0
H2892 H 0.35012 0.25055 0.38939 0.0
H2893 H 0.36393 0.26028 0.36678 0.0
H2894 H 0.35714 0.2167 0.34375 0.0
H2895 H 0.3437 0.20673 0.36642 0.0
H2896 H 0.38523 0.23073 0.3361 0.0
H2897 H 0.33581 0.27119 0.33049 0.0
H2898 H 0.34617 0.27286 0.34834 0.0
H2899 H 0.33583 0.25539 0.34402 0.0
C2900 C 0.35196 0.24289 0.37968 0.0
C2901 C 0.34557 0.22797 0.37957 0.0
C2902 C 0.35977 0.2485 0.36675 0.0
C2903 C 0.36112 0.23936 0.35345 0.0
C2904 C 0.35609 0.22398 0.35386 0.0
H2905 H 0.36275 0.27351 0.2599 0.0
H2906 H 0.35687 0.26052 0.28425 0.0
C2907 C 0.34842 0.21829 0.36686 0.0
C2908 C 0.36604 0.2463 0.33863 0.0
H2909 H 0.35579 0.27366 0.31223 0.0
C2910 C 0.37885 0.24015 0.33087 0.0
C2911 C 0.35745 0.25834 0.3317 0.0
C2912 C 0.34296 0.26476 0.33896 0.0
C2913 C 0.38341 0.24585 0.31638 0.0
C2914 C 0.37506 0.25819 0.30967 0.0
C2915 C 0.36222 0.26426 0.31743 0.0
C2916 C 0.3792 0.26496 0.29453 0.0
C2917 C 0.39684 0.23835 0.30823 0.0
C2918 C 0.39372 0.27174 0.29221 0.0
C2919 C 0.39715 0.27908 0.27827 0.0
C2920 C 0.38603 0.27997 0.26647 0.0
C2921 C 0.37154 0.27306 0.26877 0.0
C2922 C 0.36818 0.26562 0.28267 0.0
H2923 H 0.3991 0.22655 0.31272 0.0
H2924 H 0.39477 0.23762 0.29561 0.0
H2925 H 0.40737 0.24537 0.31017 0.0
H2926 H 0.40227 0.27171 0.30132 0.0
H2927 H 0.40839 0.28435 0.27689 0.0
H2928 H 0.71505 0.68923 0.62126 0.0
H2929 H 0.69233 0.70434 0.62837 0.0
H2930 H 0.70513 0.73943 0.5955 0.0
H2931 H 0.72789 0.72437 0.58821 0.0
H2932 H 0.69325 0.73505 0.64014 0.0
H2933 H 0.65881 0.73055 0.58614 0.0
H2934 H 0.67432 0.71738 0.59069 0.0
H2935 H 0.67858 0.73651 0.58399 0.0
C2936 C 0.713 0.7001 0.61544 0.0
C2937 C 0.72328 0.7056 0.60417 0.0
C2938 C 0.70001 0.70871 0.61952 0.0
C2939 C 0.697 0.72289 0.61232 0.0
C2940 C 0.70714 0.72838 0.60098 0.0
H2941 H 0.63464 0.7907 0.65246 0.0
H2942 H 0.65577 0.77934 0.63761 0.0
C2943 C 0.72018 0.7198 0.59692 0.0
C2944 C 0.68369 0.73228 0.6174 0.0
H2945 H 0.64873 0.74644 0.60594 0.0
C2946 C 0.68355 0.73762 0.63266 0.0
C2947 C 0.67107 0.7355 0.60757 0.0
C2948 C 0.67055 0.72962 0.5912 0.0
C2949 C 0.67102 0.74602 0.63845 0.0
C2950 C 0.6584 0.74932 0.62863 0.0
C2951 C 0.65854 0.74404 0.61333 0.0
C2952 C 0.64455 0.75725 0.63459 0.0
C2953 C 0.67115 0.75092 0.65517 0.0
C2954 C 0.63096 0.74883 0.63703 0.0
C2955 C 0.61885 0.75527 0.6455 0.0
C2956 C 0.62018 0.77024 0.65165 0.0
C2957 C 0.63329 0.7791 0.64801 0.0
C2958 C 0.6454 0.77263 0.63955 0.0
H2959 H 0.68048 0.74516 0.66182 0.0
H2960 H 0.67299 0.76357 0.65586 0.0
H2961 H 0.65992 0.74826 0.66074 0.0
H2962 H 0.6301 0.73695 0.63322 0.0
H2963 H 0.60887 0.74818 0.64798 0.0
H2964 H 0.72751 0.27526 0.41154 0.0
H2965 H 0.70521 0.25892 0.40565 0.0
H2966 H 0.69322 0.28884 0.36775 0.0
H2967 H 0.71544 0.30524 0.3735 0.0
H2968 H 0.67244 0.26773 0.40323 0.0
H2969 H 0.69729 0.24447 0.34895 0.0
H2970 H 0.70892 0.25362 0.36363 0.0
H2971 H 0.69777 0.26515 0.35049 0.0
C2972 C 0.72012 0.27838 0.40196 0.0
C2973 C 0.7233 0.2915 0.39292 0.0
C2974 C 0.70738 0.26905 0.39865 0.0
C2975 C 0.69772 0.27262 0.38619 0.0
C2976 C 0.70069 0.28583 0.37732 0.0
H2977 H 0.60868 0.24922 0.35447 0.0
H2978 H 0.63037 0.25935 0.36922 0.0
C2979 C 0.71336 0.2952 0.38065 0.0
C2980 C 0.68462 0.26247 0.38222 0.0
H2981 H 0.67051 0.24012 0.35312 0.0
C2982 C 0.67204 0.26152 0.39237 0.0
C2983 C 0.68431 0.2542 0.36818 0.0
C2984 C 0.69784 0.25425 0.35722 0.0
C2985 C 0.65877 0.25308 0.38845 0.0
C2986 C 0.65811 0.24556 0.37399 0.0
C2987 C 0.67101 0.24592 0.3642 0.0
C2988 C 0.64381 0.23833 0.36804 0.0
C2989 C 0.64554 0.25243 0.39973 0.0
C2990 C 0.64401 0.22303 0.36275 0.0
C2991 C 0.63164 0.21722 0.35419 0.0
C2992 C 0.61893 0.22668 0.35066 0.0
C2993 C 0.61829 0.24163 0.35695 0.0
C2994 C 0.63066 0.24743 0.36549 0.0
H2995 H 0.64956 0.25428 0.41176 0.0
H2996 H 0.63717 0.26171 0.39692 0.0
H2997 H 0.63943 0.24118 0.39909 0.0
H2998 H 0.65408 0.21584 0.36456 0.0
H2999 H 0.63248 0.20563 0.34957 0.0
H3000 H 0.7911 0.64084 0.33746 0.0
H3001 H 0.78116 0.66309 0.35164 0.0
H3002 H 0.73956 0.63793 0.36221 0.0
H3003 H 0.74938 0.61559 0.34809 0.0
H3004 H 0.75329 0.67723 0.34174 0.0
H3005 H 0.75029 0.65985 0.40331 0.0
H3006 H 0.76265 0.65027 0.3895 0.0
H3007 H 0.74235 0.64608 0.38999 0.0
C3008 C 0.78 0.63987 0.34312 0.0
C3009 C 0.77096 0.62648 0.34152 0.0
C3010 C 0.77435 0.65261 0.35121 0.0
C3011 C 0.75967 0.65212 0.35801 0.0
C3012 C 0.75102 0.63846 0.35724 0.0
H3013 H 0.69276 0.71535 0.39428 0.0
H3014 H 0.70815 0.69319 0.38612 0.0
C3015 C 0.75662 0.62572 0.34909 0.0
C3016 C 0.75259 0.66641 0.36408 0.0
H3017 H 0.73622 0.68239 0.39612 0.0
C3018 C 0.74973 0.67847 0.35367 0.0
C3019 C 0.74786 0.66787 0.37961 0.0
C3020 C 0.75104 0.65539 0.39131 0.0
C3021 C 0.74176 0.69179 0.35823 0.0
C3022 C 0.73688 0.69323 0.37375 0.0
C3023 C 0.74 0.68127 0.38424 0.0
C3024 C 0.7279 0.70675 0.37911 0.0
C3025 C 0.73808 0.70388 0.34623 0.0
C3026 C 0.73398 0.72173 0.37804 0.0
C3027 C 0.72514 0.73446 0.38253 0.0
C3028 C 0.71015 0.73239 0.38838 0.0
C3029 C 0.70425 0.71734 0.38978 0.0
C3030 C 0.71304 0.70465 0.38517 0.0
H3031 H 0.73911 0.69924 0.33432 0.0
H3032 H 0.72622 0.70846 0.3478 0.0
H3033 H 0.74632 0.71361 0.34738 0.0
H3034 H 0.74556 0.72359 0.37371 0.0
H3035 H 0.73008 0.7459 0.38149 0.0
H3036 H 0.27275 0.71605 0.40652 0.0
H3037 H 0.29698 0.72914 0.40068 0.0
H3038 H 0.27858 0.74387 0.35683 0.0
H3039 H 0.25438 0.73046 0.36242 0.0
H3040 H 0.30629 0.73035 0.35389 0.0
H3041 H 0.30918 0.7742 0.40034 0.0
H3042 H 0.30639 0.75495 0.40748 0.0
H3043 H 0.2917 0.76381 0.39579 0.0
C3044 C 0.27377 0.72223 0.3957 0.0
C3045 C 0.26165 0.72216 0.38489 0.0
C3046 C 0.2876 0.72982 0.39245 0.0
C3047 C 0.28951 0.73768 0.37843 0.0
C3048 C 0.27731 0.73793 0.36777 0.0
H3049 H 0.36423 0.79489 0.34601 0.0
H3050 H 0.34085 0.78544 0.35862 0.0
C3051 C 0.26349 0.73025 0.37096 0.0
C3052 C 0.30466 0.74444 0.37428 0.0
H3053 H 0.33236 0.76995 0.386 0.0
C3054 C 0.31195 0.73906 0.36088 0.0
C3055 C 0.31197 0.75588 0.38337 0.0
C3056 C 0.30435 0.76267 0.39747 0.0
C3057 C 0.3264 0.74468 0.35635 0.0
C3058 C 0.33399 0.7557 0.36572 0.0
C3059 C 0.32663 0.76128 0.37902 0.0
C3060 C 0.3492 0.76207 0.36127 0.0
C3061 C 0.33326 0.73899 0.34136 0.0
C3062 C 0.36196 0.75227 0.35946 0.0
C3063 C 0.37529 0.75758 0.35215 0.0
C3064 C 0.37613 0.77285 0.3467 0.0
C3065 C 0.36393 0.78305 0.35 0.0
C3066 C 0.35054 0.77767 0.35719 0.0
H3067 H 0.32442 0.73357 0.33383 0.0
H3068 H 0.33878 0.74859 0.33491 0.0
H3069 H 0.34221 0.73019 0.34389 0.0
H3070 H 0.36125 0.74026 0.36288 0.0
H3071 H 0.38457 0.7495 0.34995 0.0
H3072 H 0.30569 0.29309 0.41135 0.0
H3073 H 0.29215 0.31668 0.40369 0.0
H3074 H 0.25717 0.28941 0.38115 0.0
H3075 H 0.27061 0.26576 0.38869 0.0
H3076 H 0.2852 0.32446 0.37176 0.0
H3077 H 0.23282 0.32101 0.40851 0.0
H3078 H 0.25042 0.31073 0.41297 0.0
H3079 H 0.23766 0.30362 0.39827 0.0
C3080 C 0.29505 0.2921 0.40486 0.0
C3081 C 0.28923 0.27756 0.40059 0.0
C3082 C 0.28733 0.30558 0.40053 0.0
C3083 C 0.27358 0.30473 0.39206 0.0
C3084 C 0.26764 0.29026 0.38793 0.0
H3085 H 0.2127 0.36138 0.3406 0.0
H3086 H 0.2247 0.34217 0.35728 0.0
C3087 C 0.2754 0.27678 0.39215 0.0
C3088 C 0.26602 0.31897 0.38651 0.0
H3089 H 0.23234 0.33931 0.38799 0.0
C3090 C 0.27374 0.32788 0.37544 0.0
C3091 C 0.25106 0.32326 0.39133 0.0
C3092 C 0.2425 0.31425 0.40352 0.0
C3093 C 0.2666 0.34063 0.3685 0.0
C3094 C 0.25149 0.34482 0.37313 0.0
C3095 C 0.24394 0.33613 0.38454 0.0
C3096 C 0.2429 0.35731 0.36523 0.0
C3097 C 0.27501 0.34897 0.35571 0.0
C3098 C 0.24871 0.37242 0.36477 0.0
C3099 C 0.24195 0.38343 0.35509 0.0
C3100 C 0.22917 0.37951 0.34589 0.0
C3101 C 0.2226 0.36476 0.34744 0.0
C3102 C 0.22944 0.35374 0.35699 0.0
H3103 H 0.2849 0.34215 0.35123 0.0
H3104 H 0.2671 0.35154 0.34595 0.0
H3105 H 0.27958 0.36006 0.36018 0.0
H3106 H 0.25886 0.37552 0.37137 0.0
H3107 H 0.24718 0.39475 0.3543 0.0
H3108 H 0.35709 0.20332 0.65746 0.0
H3109 H 0.3352 0.21467 0.64395 0.0
H3110 H 0.36291 0.25424 0.63196 0.0
H3111 H 0.38483 0.24312 0.64577 0.0
H3112 H 0.33706 0.26225 0.64707 0.0
H3113 H 0.32187 0.22202 0.59988 0.0
H3114 H 0.32366 0.21239 0.61811 0.0
H3115 H 0.3403 0.22143 0.60959 0.0
C3116 C 0.35869 0.21425 0.6516 0.0
C3117 C 0.37267 0.2224 0.65284 0.0
C3118 C 0.34615 0.22068 0.64378 0.0
C3119 C 0.34743 0.23527 0.63688 0.0
C3120 C 0.36168 0.24296 0.6372 0.0
H3121 H 0.27177 0.2826 0.59021 0.0
H3122 H 0.29593 0.26927 0.59606 0.0
C3123 C 0.37421 0.23657 0.64509 0.0
C3124 C 0.33344 0.24337 0.6313 0.0
H3125 H 0.30196 0.23969 0.60789 0.0
C3126 C 0.3295 0.2574 0.63836 0.0
C3127 C 0.32362 0.23708 0.61988 0.0
C3128 C 0.32765 0.22248 0.61132 0.0
C3129 C 0.31578 0.2651 0.63466 0.0
C3130 C 0.30556 0.25841 0.62384 0.0
C3131 C 0.30972 0.24465 0.61637 0.0
C3132 C 0.29054 0.26563 0.62015 0.0
C3133 C 0.31237 0.28036 0.64234 0.0
C3134 C 0.27936 0.26766 0.6317 0.0
C3135 C 0.26556 0.27533 0.62843 0.0
C3136 C 0.26266 0.28099 0.61351 0.0
C3137 C 0.27367 0.27845 0.60184 0.0
C3138 C 0.28748 0.27081 0.60514 0.0
H3139 H 0.323 0.2858 0.647 0.0
H3140 H 0.30684 0.28852 0.63415 0.0
H3141 H 0.30433 0.27845 0.65212 0.0
H3142 H 0.2814 0.26347 0.6433 0.0
H3143 H 0.25727 0.27698 0.63763 0.0
H3144 H 0.71293 0.26071 0.63619 0.0
H3145 H 0.72586 0.28524 0.64134 0.0
H3146 H 0.71868 0.29917 0.5941 0.0
H3147 H 0.70597 0.27454 0.58875 0.0
H3148 H 0.74809 0.30591 0.60456 0.0
H3149 H 0.70383 0.32653 0.64581 0.0
H3150 H 0.71155 0.30802 0.65096 0.0
H3151 H 0.70073 0.31014 0.63335 0.0
C3152 C 0.71409 0.26898 0.62689 0.0
C3153 C 0.7083 0.26572 0.6121 0.0
C3154 C 0.72142 0.28302 0.62987 0.0
C3155 C 0.72297 0.29412 0.61817 0.0
C3156 C 0.71752 0.29078 0.60331 0.0
H3157 H 0.74708 0.38688 0.64733 0.0
H3158 H 0.73522 0.36631 0.63213 0.0
C3159 C 0.71023 0.27672 0.6003 0.0
C3160 C 0.7302 0.30923 0.62151 0.0
H3161 H 0.72772 0.34021 0.64557 0.0
C3162 C 0.74357 0.31352 0.61341 0.0
C3163 C 0.72408 0.31929 0.63279 0.0
C3164 C 0.70917 0.31586 0.64111 0.0
C3165 C 0.75138 0.32732 0.6168 0.0
C3166 C 0.74579 0.33689 0.6288 0.0
C3167 C 0.73206 0.33287 0.63641 0.0
C3168 C 0.75442 0.35051 0.63455 0.0
C3169 C 0.76551 0.33147 0.60753 0.0
C3170 C 0.76944 0.34875 0.64035 0.0
C3171 C 0.77634 0.36058 0.64886 0.0
C3172 C 0.76818 0.37425 0.65199 0.0
C3173 C 0.75362 0.37644 0.64518 0.0
C3174 C 0.74681 0.36468 0.63652 0.0
H3175 H 0.765 0.32637 0.59578 0.0
H3176 H 0.76686 0.34417 0.60646 0.0
H3177 H 0.77589 0.32675 0.61336 0.0
H3178 H 0.77543 0.33783 0.63928 0.0
H3179 H 0.78753 0.35848 0.65401 0.0
H3180 H 0.25354 0.60367 0.64339 0.0
H3181 H 0.26334 0.627 0.63094 0.0
H3182 H 0.21955 0.64946 0.6383 0.0
H3183 H 0.20952 0.62609 0.65043 0.0
H3184 H 0.23393 0.65841 0.61072 0.0
H3185 H 0.27359 0.66207 0.66098 0.0
H3186 H 0.27548 0.6447 0.64986 0.0
H3187 H 0.25785 0.64849 0.66013 0.0
C3188 C 0.24584 0.61341 0.64196 0.0
C3189 C 0.23085 0.61313 0.64817 0.0
C3190 C 0.2515 0.62677 0.63493 0.0
C3191 C 0.24231 0.64007 0.63415 0.0
C3192 C 0.22687 0.63934 0.63894 0.0
H3193 H 0.27504 0.7343 0.63644 0.0
H3194 H 0.26271 0.70942 0.64152 0.0
C3195 C 0.22115 0.62594 0.64585 0.0
C3196 C 0.24921 0.65515 0.63002 0.0
H3197 H 0.27618 0.68129 0.64188 0.0
C3198 C 0.24321 0.66342 0.61747 0.0
C3199 C 0.26105 0.66178 0.63912 0.0
C3200 C 0.26729 0.6539 0.65336 0.0
C3201 C 0.24887 0.67812 0.61364 0.0
C3202 C 0.26102 0.68454 0.62247 0.0
C3203 C 0.26693 0.67629 0.63508 0.0
C3204 C 0.26777 0.69986 0.619 0.0
C3205 C 0.24153 0.68679 0.60044 0.0
C3206 C 0.27477 0.70271 0.60469 0.0
C3207 C 0.28175 0.71693 0.60173 0.0
C3208 C 0.28203 0.72852 0.61311 0.0
C3209 C 0.27504 0.72562 0.62744 0.0
C3210 C 0.26798 0.71142 0.63036 0.0
H3211 H 0.22981 0.68232 0.59778 0.0
H3212 H 0.24066 0.6993 0.60305 0.0
H3213 H 0.24875 0.68538 0.58996 0.0
H3214 H 0.27509 0.69384 0.5959 0.0
H3215 H 0.28712 0.71875 0.59059 0.0
H3216 H 0.18698 0.38616 0.29552 0.0
H3217 H 0.16891 0.36891 0.28244 0.0
H3218 H 0.18957 0.38023 0.23862 0.0
H3219 H 0.20784 0.3974 0.25159 0.0
H3220 H 0.14733 0.3729 0.25765 0.0
H3221 H 0.19558 0.33307 0.24314 0.0
H3222 H 0.19761 0.34852 0.25695 0.0
H3223 H 0.19781 0.35264 0.23663 0.0
C3224 C 0.18757 0.38516 0.28307 0.0
C3225 C 0.19899 0.39298 0.2746 0.0
C3226 C 0.17721 0.37532 0.27563 0.0
C3227 C 0.1781 0.37314 0.25963 0.0
C3228 C 0.18888 0.3816 0.25102 0.0
H3229 H 0.11495 0.31511 0.20599 0.0
H3230 H 0.1296 0.33723 0.21573 0.0
C3231 C 0.19928 0.39143 0.25845 0.0
C3232 C 0.16853 0.36116 0.25219 0.0
H3233 H 0.17077 0.32595 0.23473 0.0
C3234 C 0.15241 0.36267 0.25252 0.0
C3235 C 0.17526 0.34777 0.24573 0.0
C3236 C 0.1925 0.34526 0.24566 0.0
C3237 C 0.1428 0.35104 0.24662 0.0
C3238 C 0.14956 0.33768 0.24013 0.0
C3239 C 0.16567 0.33627 0.23966 0.0
C3240 C 0.14019 0.32461 0.23449 0.0
C3241 C 0.12553 0.35287 0.2478 0.0
C3242 C 0.14146 0.31019 0.24172 0.0
C3243 C 0.13321 0.29754 0.23617 0.0
C3244 C 0.12356 0.29907 0.22322 0.0
C3245 C 0.12224 0.31357 0.21603 0.0
C3246 C 0.13053 0.32624 0.22161 0.0
H3247 H 0.12224 0.36236 0.25577 0.0
H3248 H 0.12077 0.35556 0.23622 0.0
H3249 H 0.1201 0.34199 0.25186 0.0
H3250 H 0.14892 0.30872 0.25165 0.0
H3251 H 0.13449 0.28655 0.24197 0.0
H3252 H 0.71004 0.14467 0.22984 0.0
H3253 H 0.68782 0.15768 0.24117 0.0
H3254 H 0.65762 0.12282 0.22244 0.0
H3255 H 0.67994 0.10945 0.21133 0.0
H3256 H 0.66312 0.17004 0.2265 0.0
H3257 H 0.64421 0.12434 0.26736 0.0
H3258 H 0.6627 0.12384 0.25781 0.0
H3259 H 0.64553 0.11843 0.24754 0.0
C3260 C 0.69869 0.1397 0.22819 0.0
C3261 C 0.69674 0.12601 0.21973 0.0
C3262 C 0.686 0.14716 0.23466 0.0
C3263 C 0.6711 0.14113 0.23279 0.0
C3264 C 0.66906 0.12749 0.22429 0.0
H3265 H 0.59346 0.20186 0.25644 0.0
H3266 H 0.60975 0.18367 0.24223 0.0
C3267 C 0.68181 0.11992 0.21789 0.0
C3268 C 0.65779 0.14953 0.23944 0.0
H3269 H 0.62903 0.14693 0.26624 0.0
C3270 C 0.65559 0.16497 0.23512 0.0
C3271 C 0.64806 0.14287 0.25074 0.0
C3272 C 0.65027 0.1265 0.25627 0.0
C3273 C 0.64424 0.17413 0.24211 0.0
C3274 C 0.6345 0.16749 0.25342 0.0
C3275 C 0.63642 0.15192 0.25746 0.0
C3276 C 0.62324 0.17693 0.26214 0.0
C3277 C 0.64331 0.191 0.23782 0.0
C3278 C 0.62488 0.17853 0.27816 0.0
C3279 C 0.61546 0.18871 0.28634 0.0
C3280 C 0.60426 0.19754 0.27861 0.0
C3281 C 0.60212 0.19535 0.26268 0.0
C3282 C 0.61145 0.18503 0.25453 0.0
H3283 H 0.65385 0.19498 0.23171 0.0
H3284 H 0.63332 0.19283 0.23003 0.0
H3285 H 0.64165 0.19829 0.24823 0.0
H3286 H 0.63386 0.17233 0.28427 0.0
H3287 H 0.61737 0.19008 0.29861 0.0
H3288 H 0.81188 0.61463 0.29413 0.0
H3289 H 0.83208 0.62885 0.28061 0.0
H3290 H 0.81775 0.60851 0.23751 0.0
H3291 H 0.79723 0.59446 0.25091 0.0
H3292 H 0.85681 0.62009 0.26202 0.0
H3293 H 0.81371 0.6547 0.22931 0.0
H3294 H 0.80841 0.64265 0.24543 0.0
H3295 H 0.81226 0.63417 0.2269 0.0
C3296 C 0.81308 0.61306 0.28179 0.0
C3297 C 0.80281 0.60357 0.27355 0.0
C3298 C 0.82467 0.62117 0.27409 0.0
C3299 C 0.82622 0.61994 0.25803 0.0
C3300 C 0.81652 0.60987 0.24987 0.0
H3301 H 0.88161 0.67921 0.19798 0.0
H3302 H 0.86693 0.65699 0.20739 0.0
C3303 C 0.80485 0.6018 0.25755 0.0
C3304 C 0.83746 0.62989 0.24988 0.0
H3305 H 0.83985 0.66024 0.22489 0.0
C3306 C 0.85314 0.62879 0.2538 0.0
C3307 C 0.83261 0.64123 0.23918 0.0
C3308 C 0.81583 0.64341 0.23501 0.0
C3309 C 0.86408 0.63891 0.24747 0.0
C3310 C 0.85915 0.6505 0.23712 0.0
C3311 C 0.84358 0.65127 0.2328 0.0
C3312 C 0.86964 0.66275 0.23152 0.0
C3313 C 0.8808 0.63722 0.25202 0.0
C3314 C 0.87608 0.67327 0.242 0.0
C3315 C 0.8844 0.686 0.23668 0.0
C3316 C 0.88637 0.68846 0.22077 0.0
C3317 C 0.88031 0.67763 0.21031 0.0
C3318 C 0.87194 0.66492 0.21565 0.0
H3319 H 0.88335 0.62541 0.25629 0.0
H3320 H 0.88854 0.63982 0.24214 0.0
H3321 H 0.88344 0.64548 0.26144 0.0
H3322 H 0.87417 0.67197 0.25428 0.0
H3323 H 0.8889 0.69414 0.24503 0.0
H3324 H 0.34945 0.79255 0.28911 0.0
H3325 H 0.33685 0.81327 0.27479 0.0
H3326 H 0.38066 0.83607 0.26876 0.0
H3327 H 0.39344 0.81541 0.28325 0.0
H3328 H 0.35579 0.85608 0.2772 0.0
H3329 H 0.34111 0.8184 0.22761 0.0
H3330 H 0.33486 0.81084 0.24586 0.0
H3331 H 0.35514 0.81302 0.24205 0.0
C3332 C 0.35643 0.80198 0.28479 0.0
C3333 C 0.37247 0.80227 0.28719 0.0
C3334 C 0.34921 0.81377 0.27657 0.0
C3335 C 0.35788 0.82602 0.27051 0.0
C3336 C 0.37381 0.82664 0.27328 0.0
H3337 H 0.31532 0.88486 0.20092 0.0
H3338 H 0.33452 0.86969 0.21497 0.0
C3339 C 0.38107 0.81483 0.28153 0.0
C3340 C 0.35023 0.838 0.26109 0.0
H3341 H 0.32822 0.84269 0.22884 0.0
C3342 C 0.34989 0.85324 0.26653 0.0
C3343 C 0.34283 0.83427 0.24705 0.0
C3344 C 0.34361 0.81828 0.24019 0.0
C3345 C 0.34169 0.86475 0.25861 0.0
C3346 C 0.33347 0.86079 0.24507 0.0
C3347 C 0.33442 0.84569 0.23929 0.0
C3348 C 0.32311 0.87178 0.23709 0.0
C3349 C 0.34184 0.881 0.26484 0.0
C3350 C 0.31044 0.87815 0.24491 0.0
C3351 C 0.29949 0.88686 0.23693 0.0
C3352 C 0.30091 0.8892 0.22094 0.0
C3353 C 0.31387 0.88323 0.21323 0.0
C3354 C 0.32486 0.87458 0.22124 0.0
H3355 H 0.35231 0.88318 0.27192 0.0
H3356 H 0.3414 0.88963 0.25537 0.0
H3357 H 0.33162 0.88272 0.27235 0.0
H3358 H 0.30865 0.87583 0.25706 0.0
H3359 H 0.28961 0.89125 0.2432 0.0
H3360 H 0.12037 0.68579 0.78665 0.0
H3361 H 0.13435 0.66465 0.77408 0.0
H3362 H 0.15241 0.69653 0.74041 0.0
H3363 H 0.13852 0.71768 0.7528 0.0
H3364 H 0.13992 0.66703 0.72849 0.0
H3365 H 0.18283 0.6609 0.77604 0.0
H3366 H 0.16268 0.66073 0.78108 0.0
H3367 H 0.17125 0.67807 0.77373 0.0
C3368 C 0.12727 0.68828 0.77653 0.0
C3369 C 0.12842 0.70342 0.77076 0.0
C3370 C 0.13525 0.67621 0.7694 0.0
C3371 C 0.14444 0.67911 0.75641 0.0
C3372 C 0.14534 0.69411 0.75044 0.0
H3373 H 0.2201 0.64072 0.70943 0.0
H3374 H 0.20067 0.65549 0.72345 0.0
C3375 C 0.13745 0.70618 0.75758 0.0
C3376 C 0.15362 0.66671 0.7492 0.0
H3377 H 0.18652 0.64563 0.75396 0.0
C3378 C 0.14998 0.66213 0.73411 0.0
C3379 C 0.16674 0.66049 0.75661 0.0
C3380 C 0.17125 0.6653 0.77273 0.0
C3381 C 0.15944 0.65178 0.72602 0.0
C3382 C 0.1728 0.64593 0.73328 0.0
C3383 C 0.17618 0.65013 0.74853 0.0
C3384 C 0.18426 0.63673 0.72471 0.0
C3385 C 0.15554 0.64768 0.70957 0.0
C3386 C 0.18139 0.62129 0.72082 0.0
C3387 C 0.19252 0.61276 0.71282 0.0
C3388 C 0.20663 0.6196 0.70859 0.0
C3389 C 0.20936 0.63511 0.71248 0.0
C3390 C 0.1983 0.64356 0.72052 0.0
H3391 H 0.14536 0.65415 0.70522 0.0
H3392 H 0.16555 0.65012 0.70195 0.0
H3393 H 0.15303 0.63514 0.70877 0.0
H3394 H 0.17062 0.61585 0.72406 0.0
H3395 H 0.19009 0.60083 0.70999 0.0
H3396 H 0.39458 0.20236 0.74448 0.0
H3397 H 0.37839 0.18359 0.75779 0.0
H3398 H 0.37116 0.15924 0.71498 0.0
H3399 H 0.38709 0.1782 0.70147 0.0
H3400 H 0.34447 0.16628 0.7289 0.0
H3401 H 0.38355 0.13935 0.77156 0.0
H3402 H 0.38406 0.16002 0.77259 0.0
H3403 H 0.39059 0.15042 0.75536 0.0
C3404 C 0.3898 0.19285 0.73793 0.0
C3405 C 0.39204 0.19183 0.7219 0.0
C3406 C 0.38064 0.18204 0.7456 0.0
C3407 C 0.37372 0.1699 0.73742 0.0
C3408 C 0.37646 0.16849 0.72152 0.0
H3409 H 0.31416 0.10186 0.78308 0.0
H3410 H 0.33524 0.11368 0.76841 0.0
C3411 C 0.38556 0.17934 0.71382 0.0
C3412 C 0.36222 0.15986 0.74509 0.0
H3413 H 0.35627 0.13727 0.77682 0.0
C3414 C 0.34712 0.15975 0.73924 0.0
C3415 C 0.36571 0.15121 0.75849 0.0
C3416 C 0.38191 0.15011 0.76478 0.0
C3417 C 0.33526 0.15179 0.74681 0.0
C3418 C 0.33854 0.144 0.76076 0.0
C3419 C 0.35377 0.14347 0.76624 0.0
C3420 C 0.32616 0.13687 0.77007 0.0
C3421 C 0.31929 0.15192 0.73987 0.0
C3422 C 0.3143 0.14608 0.77611 0.0
C3423 C 0.30226 0.13939 0.78444 0.0
C3424 C 0.30193 0.12338 0.78698 0.0
C3425 C 0.31406 0.11423 0.78127 0.0
C3426 C 0.32611 0.12094 0.7729 0.0
H3427 H 0.31963 0.15445 0.7273 0.0
H3428 H 0.31339 0.14068 0.74164 0.0
H3429 H 0.31231 0.16105 0.74552 0.0
H3430 H 0.31432 0.15845 0.7743 0.0
H3431 H 0.29317 0.14679 0.78879 0.0
H3432 H 0.81035 0.38664 0.71741 0.0
H3433 H 0.83192 0.37347 0.73003 0.0
H3434 H 0.81023 0.32951 0.72145 0.0
H3435 H 0.78856 0.34253 0.70899 0.0
H3436 H 0.81999 0.33352 0.75182 0.0
H3437 H 0.8666 0.34779 0.71014 0.0
H3438 H 0.85584 0.36402 0.71726 0.0
H3439 H 0.84639 0.34981 0.7055 0.0
C3440 C 0.81021 0.37416 0.71813 0.0
C3441 C 0.79774 0.36562 0.7122 0.0
C3442 C 0.82259 0.36666 0.72526 0.0
C3443 C 0.82274 0.35052 0.72648 0.0
C3444 C 0.81034 0.34198 0.72054 0.0
H3445 H 0.89325 0.28538 0.75137 0.0
H3446 H 0.87533 0.3026 0.73801 0.0
C3447 C 0.79797 0.34945 0.71343 0.0
C3448 C 0.83544 0.34249 0.73456 0.0
H3449 H 0.87407 0.33487 0.73306 0.0
C3450 C 0.83183 0.33384 0.74775 0.0
C3451 C 0.85082 0.34285 0.72912 0.0
C3452 C 0.85519 0.3515 0.71466 0.0
C3453 C 0.84317 0.32545 0.75565 0.0
C3454 C 0.85861 0.32599 0.75035 0.0
C3455 C 0.86225 0.33465 0.73716 0.0
C3456 C 0.87091 0.31693 0.75796 0.0
C3457 C 0.83845 0.31574 0.76932 0.0
C3458 C 0.87476 0.31966 0.77344 0.0
C3459 C 0.88491 0.3098 0.78114 0.0
C3460 C 0.89148 0.29712 0.77343 0.0
C3461 C 0.88833 0.295 0.75765 0.0
C3462 C 0.87812 0.30483 0.74999 0.0
H3463 H 0.82578 0.31381 0.76967 0.0
H3464 H 0.84431 0.30434 0.76907 0.0
H3465 H 0.84183 0.32172 0.78012 0.0
H3466 H 0.86953 0.32914 0.77969 0.0
H3467 H 0.88722 0.31184 0.79325 0.0
H3468 H 0.6864 0.87856 0.79624 0.0
H3469 H 0.66569 0.86269 0.78556 0.0
H3470 H 0.68055 0.874 0.73946 0.0
H3471 H 0.70136 0.88998 0.75001 0.0
H3472 H 0.64652 0.87465 0.74571 0.0
H3473 H 0.67628 0.82061 0.76362 0.0
H3474 H 0.67389 0.83509 0.7783 0.0
H3475 H 0.6862 0.83887 0.76208 0.0
C3476 C 0.6852 0.87782 0.78382 0.0
C3477 C 0.69562 0.88543 0.77396 0.0
C3478 C 0.67338 0.86872 0.77776 0.0
C3479 C 0.67175 0.86707 0.76176 0.0
C3480 C 0.68169 0.87513 0.75186 0.0
H3481 H 0.61519 0.81267 0.70043 0.0
H3482 H 0.63131 0.83255 0.71221 0.0
C3483 C 0.69358 0.88421 0.75791 0.0
C3484 C 0.66018 0.85631 0.75538 0.0
H3485 H 0.65169 0.818 0.75236 0.0
C3486 C 0.64759 0.86226 0.74714 0.0
C3487 C 0.66169 0.84019 0.75733 0.0
C3488 C 0.67528 0.83322 0.76571 0.0
C3489 C 0.63631 0.85244 0.74089 0.0
C3490 C 0.6379 0.83629 0.74271 0.0
C3491 C 0.65047 0.83039 0.75104 0.0
C3492 C 0.62699 0.82518 0.73568 0.0
C3493 C 0.62269 0.85944 0.73262 0.0
C3494 C 0.61933 0.81434 0.74496 0.0
C3495 C 0.61021 0.80286 0.73825 0.0
C3496 C 0.60866 0.80198 0.72213 0.0
C3497 C 0.61608 0.81307 0.71289 0.0
C3498 C 0.62522 0.82452 0.71961 0.0
H3499 H 0.62084 0.87166 0.73606 0.0
H3500 H 0.62487 0.85921 0.72 0.0
H3501 H 0.61197 0.85283 0.73496 0.0
H3502 H 0.62063 0.8146 0.75739 0.0
H3503 H 0.60465 0.7945 0.7457 0.0
H3504 H 0.29014 0.21029 0.3507 0.0
H3505 H 0.27512 0.19079 0.33697 0.0
H3506 H 0.26275 0.16956 0.38024 0.0
H3507 H 0.27774 0.1891 0.39416 0.0
H3508 H 0.27776 0.15725 0.33825 0.0
H3509 H 0.22092 0.1798 0.35813 0.0
H3510 H 0.23839 0.19112 0.35922 0.0
H3511 H 0.23517 0.17574 0.37269 0.0
C3512 C 0.28429 0.20145 0.35732 0.0
C3513 C 0.28504 0.2013 0.37352 0.0
C3514 C 0.27575 0.1903 0.34945 0.0
C3515 C 0.26774 0.17888 0.35763 0.0
C3516 C 0.26874 0.17842 0.37377 0.0
H3517 H 0.22151 0.10267 0.30915 0.0
H3518 H 0.23631 0.11704 0.3285 0.0
C3519 C 0.27735 0.18955 0.38167 0.0
C3520 C 0.25805 0.16774 0.34912 0.0
H3521 H 0.22058 0.1588 0.34094 0.0
C3522 C 0.26527 0.15742 0.33895 0.0
C3523 C 0.24177 0.16815 0.35003 0.0
C3524 C 0.23351 0.17934 0.36051 0.0
C3525 C 0.25658 0.14768 0.32938 0.0
C3526 C 0.24029 0.14827 0.33012 0.0
C3527 C 0.23308 0.15835 0.34053 0.0
C3528 C 0.23058 0.13949 0.31922 0.0
C3529 C 0.26483 0.13732 0.31808 0.0
C3530 C 0.22218 0.14742 0.3079 0.0
C3531 C 0.21374 0.13929 0.29686 0.0
C3532 C 0.21349 0.12308 0.29702 0.0
C3533 C 0.22152 0.11516 0.3087 0.0
C3534 C 0.23002 0.12332 0.31972 0.0
H3535 H 0.27735 0.14001 0.3173 0.0
H3536 H 0.26357 0.12514 0.3218 0.0
H3537 H 0.25966 0.13841 0.3064 0.0
H3538 H 0.22246 0.15991 0.30739 0.0
H3539 H 0.2076 0.14573 0.28808 0.0
H3540 H 0.86691 0.24158 0.28902 0.0
H3541 H 0.854 0.25319 0.31112 0.0
H3542 H 0.86878 0.21538 0.33992 0.0
H3543 H 0.88175 0.20353 0.31772 0.0
H3544 H 0.83722 0.22179 0.34178 0.0
H3545 H 0.87145 0.27512 0.34922 0.0
H3546 H 0.86564 0.27232 0.32954 0.0
H3547 H 0.87848 0.25866 0.3385 0.0
C3548 C 0.86756 0.23577 0.30006 0.0
C3549 C 0.87534 0.22162 0.30161 0.0
C3550 C 0.8603 0.2425 0.31272 0.0
C3551 C 0.8607 0.23528 0.32719 0.0
C3552 C 0.86852 0.2212 0.32886 0.0
H3553 H 0.81136 0.28557 0.40056 0.0
H3554 H 0.83172 0.2702 0.38826 0.0
C3555 C 0.87589 0.21446 0.31618 0.0
C3556 C 0.85174 0.24191 0.34009 0.0
H3557 H 0.84525 0.27583 0.35895 0.0
C3558 C 0.83917 0.23348 0.34582 0.0
C3559 C 0.85445 0.25705 0.34552 0.0
C3560 C 0.86834 0.26626 0.34049 0.0
C3561 C 0.82852 0.24027 0.35593 0.0
C3562 C 0.83046 0.25589 0.36021 0.0
C3563 C 0.84369 0.26391 0.35547 0.0
C3564 C 0.81811 0.26455 0.36812 0.0
C3565 C 0.815 0.23084 0.36151 0.0
C3566 C 0.80387 0.2666 0.36072 0.0
C3567 C 0.79232 0.2754 0.36761 0.0
C3568 C 0.7948 0.28236 0.38204 0.0
C3569 C 0.80909 0.2803 0.38946 0.0
C3570 C 0.82071 0.27153 0.38248 0.0
H3571 H 0.81765 0.2183 0.36132 0.0
H3572 H 0.81161 0.23418 0.3734 0.0
H3573 H 0.80499 0.23285 0.35377 0.0
H3574 H 0.80178 0.26158 0.34946 0.0
H3575 H 0.78146 0.27678 0.36157 0.0
H3576 H 0.7963 0.88537 0.30887 0.0
H3577 H 0.78264 0.87119 0.32901 0.0
H3578 H 0.74016 0.89381 0.31635 0.0
H3579 H 0.75368 0.90786 0.2959 0.0
H3580 H 0.76495 0.88008 0.35446 0.0
H3581 H 0.72995 0.8481 0.31115 0.0
H3582 H 0.74648 0.85958 0.30584 0.0
H3583 H 0.72841 0.86875 0.31026 0.0
C3584 C 0.78408 0.88745 0.31043 0.0
C3585 C 0.77602 0.89759 0.30065 0.0
C3586 C 0.7763 0.87936 0.32198 0.0
C3587 C 0.76036 0.88126 0.32397 0.0
C3588 C 0.75242 0.89196 0.31477 0.0
H3589 H 0.69854 0.82332 0.37866 0.0
H3590 H 0.70881 0.84547 0.36447 0.0
C3591 C 0.76017 0.90001 0.30314 0.0
C3592 C 0.75203 0.87134 0.33511 0.0
H3593 H 0.72573 0.84212 0.33723 0.0
C3594 C 0.75628 0.87186 0.35073 0.0
C3595 C 0.74074 0.86062 0.33019 0.0
C3596 C 0.73618 0.85907 0.31344 0.0
C3597 C 0.74968 0.86177 0.36155 0.0
C3598 C 0.73871 0.8508 0.35653 0.0
C3599 C 0.73411 0.85061 0.34102 0.0
C3600 C 0.73268 0.83859 0.36683 0.0
C3601 C 0.75458 0.86284 0.37822 0.0
C3602 C 0.74274 0.82747 0.37294 0.0
C3603 C 0.73693 0.81479 0.38099 0.0
C3604 C 0.72094 0.81296 0.38301 0.0
C3605 C 0.71092 0.8244 0.37732 0.0
C3606 C 0.71675 0.83706 0.36922 0.0
H3607 H 0.7594 0.8744 0.38097 0.0
H3608 H 0.74474 0.86047 0.38608 0.0
H3609 H 0.76369 0.85413 0.38049 0.0
H3610 H 0.75505 0.82828 0.37094 0.0
H3611 H 0.74495 0.80618 0.38522 0.0
H3612 H 0.18451 0.70352 0.38125 0.0
H3613 H 0.16411 0.7163 0.3666 0.0
H3614 H 0.17689 0.76002 0.38666 0.0
H3615 H 0.19756 0.74738 0.40117 0.0
H3616 H 0.13869 0.73451 0.37503 0.0
H3617 H 0.18138 0.76759 0.34029 0.0
H3618 H 0.18689 0.7517 0.35254 0.0
H3619 H 0.18269 0.77025 0.3608 0.0
C3620 C 0.18291 0.71583 0.38267 0.0
C3621 C 0.19278 0.72447 0.39222 0.0
C3622 C 0.17123 0.72311 0.37431 0.0
C3623 C 0.16919 0.73913 0.37535 0.0
C3624 C 0.17849 0.74768 0.38547 0.0
H3625 H 0.11327 0.79808 0.31564 0.0
H3626 H 0.12814 0.78886 0.33781 0.0
C3627 C 0.19025 0.74043 0.39379 0.0
C3628 C 0.15787 0.74688 0.36518 0.0
H3629 H 0.15517 0.77162 0.33467 0.0
C3630 C 0.14225 0.74271 0.36627 0.0
C3631 C 0.16258 0.75756 0.35377 0.0
C3632 C 0.1793 0.76198 0.35163 0.0
C3633 C 0.13123 0.74883 0.3561 0.0
C3634 C 0.13602 0.7592 0.34446 0.0
C3635 C 0.15154 0.76371 0.34367 0.0
C3636 C 0.12545 0.76468 0.33224 0.0
C3637 C 0.11457 0.74408 0.35783 0.0
C3638 C 0.11895 0.75411 0.32184 0.0
C3639 C 0.1105 0.75932 0.30915 0.0
C3640 C 0.10848 0.77521 0.30659 0.0
C3641 C 0.11461 0.78577 0.31729 0.0
C3642 C 0.1231 0.78053 0.32996 0.0
H3643 H 0.11208 0.73989 0.36969 0.0
H3644 H 0.10669 0.75383 0.35514 0.0
H3645 H 0.11205 0.73454 0.34968 0.0
H3646 H 0.12091 0.74184 0.32321 0.0
H3647 H 0.10595 0.7509 0.30112 0.0
H3648 H 0.29013 0.80981 0.61258 0.0
H3649 H 0.27654 0.82815 0.62916 0.0
H3650 H 0.23428 0.80262 0.62299 0.0
H3651 H 0.24769 0.78433 0.6062 0.0
H3652 H 0.23047 0.83522 0.62238 0.0
H3653 H 0.26415 0.81527 0.6732 0.0
H3654 H 0.2756 0.82187 0.65723 0.0
H3655 H 0.26389 0.80487 0.65516 0.0
C3656 C 0.2779 0.80818 0.6146 0.0
C3657 C 0.27002 0.79551 0.60822 0.0
C3658 C 0.27018 0.81864 0.62411 0.0
C3659 C 0.2545 0.81654 0.62751 0.0
C3660 C 0.24641 0.80437 0.62055 0.0
H3661 H 0.20496 0.8497 0.70695 0.0
H3662 H 0.21667 0.83455 0.68629 0.0
C3663 C 0.25411 0.79392 0.61098 0.0
C3664 C 0.24673 0.82647 0.639 0.0
H3665 H 0.24715 0.83619 0.67714 0.0
C3666 C 0.2341 0.83548 0.63435 0.0
C3667 C 0.2514 0.82657 0.65464 0.0
C3668 C 0.26441 0.81654 0.66044 0.0
C3669 C 0.22606 0.84472 0.64497 0.0
C3670 C 0.23093 0.84504 0.66054 0.0
C3671 C 0.24352 0.83597 0.66516 0.0
C3672 C 0.22294 0.85434 0.67241 0.0
C3673 C 0.21222 0.85377 0.63952 0.0
C3674 C 0.22256 0.8705 0.67142 0.0
C3675 C 0.21584 0.87921 0.68322 0.0
C3676 C 0.2095 0.87189 0.69625 0.0
C3677 C 0.20976 0.8557 0.69709 0.0
C3678 C 0.21644 0.84702 0.6853 0.0
H3679 H 0.20781 0.84943 0.62829 0.0
H3680 H 0.20275 0.85326 0.64814 0.0
H3681 H 0.21554 0.86604 0.638 0.0
H3682 H 0.22778 0.87638 0.66171 0.0
H3683 H 0.21588 0.89168 0.68226 0.0
H3684 H 0.19993 0.25286 0.59496 0.0
H3685 H 0.17912 0.2394 0.60852 0.0
H3686 H 0.16366 0.28263 0.62776 0.0
H3687 H 0.18416 0.29618 0.61407 0.0
H3688 H 0.17626 0.23829 0.63957 0.0
H3689 H 0.12321 0.2635 0.61465 0.0
H3690 H 0.14185 0.26542 0.60553 0.0
H3691 H 0.1364 0.27808 0.62108 0.0
C3692 C 0.19193 0.25953 0.60186 0.0
C3693 C 0.19371 0.27558 0.60347 0.0
C3694 C 0.18004 0.25183 0.60958 0.0
C3695 C 0.16971 0.26004 0.61896 0.0
C3696 C 0.17125 0.2761 0.62027 0.0
H3697 H 0.11014 0.24602 0.69499 0.0
H3698 H 0.12507 0.2552 0.67291 0.0
C3699 C 0.18307 0.28382 0.61253 0.0
C3700 C 0.1584 0.25173 0.62872 0.0
H3701 H 0.12055 0.25148 0.63965 0.0
C3702 C 0.16402 0.24093 0.63939 0.0
C3703 C 0.14245 0.25523 0.62846 0.0
C3704 C 0.1356 0.26608 0.6167 0.0
C3705 C 0.15428 0.23414 0.65036 0.0
C3706 C 0.13846 0.23813 0.65052 0.0
C3707 C 0.1327 0.24849 0.6395 0.0
C3708 C 0.12806 0.23257 0.66282 0.0
C3709 C 0.1611 0.22333 0.66221 0.0
C3710 C 0.12448 0.21685 0.66419 0.0
C3711 C 0.11595 0.21154 0.67682 0.0
C3712 C 0.11089 0.2219 0.68825 0.0
C3713 C 0.11395 0.23773 0.68644 0.0
C3714 C 0.12243 0.24301 0.67382 0.0
H3715 H 0.17392 0.22348 0.66208 0.0
H3716 H 0.15709 0.22644 0.67398 0.0
H3717 H 0.15723 0.21138 0.65977 0.0
H3718 H 0.12859 0.20865 0.6557 0.0
H3719 H 0.11372 0.19928 0.67783 0.0
H3720 H 0.77754 0.10645 0.68462 0.0
H3721 H 0.76481 0.12043 0.66361 0.0
H3722 H 0.773 0.16349 0.68719 0.0
H3723 H 0.78548 0.14965 0.70831 0.0
H3724 H 0.74295 0.15997 0.67776 0.0
H3725 H 0.78349 0.14749 0.62969 0.0
H3726 H 0.77643 0.13076 0.63971 0.0
H3727 H 0.78848 0.14437 0.64967 0.0
C3728 C 0.77675 0.11891 0.68526 0.0
C3729 C 0.78249 0.12695 0.69814 0.0
C3730 C 0.76955 0.12688 0.67321 0.0
C3731 C 0.76813 0.143 0.67378 0.0
C3732 C 0.77403 0.15104 0.68652 0.0
H3733 H 0.74219 0.21049 0.60586 0.0
H3734 H 0.75572 0.1927 0.62307 0.0
C3735 C 0.78115 0.14311 0.69858 0.0
C3736 C 0.75978 0.15151 0.66156 0.0
H3737 H 0.76035 0.16059 0.62322 0.0
C3738 C 0.74673 0.16009 0.66583 0.0
C3739 C 0.76484 0.15172 0.64605 0.0
C3740 C 0.77915 0.14321 0.64097 0.0
C3741 C 0.73862 0.16896 0.65502 0.0
C3742 C 0.74351 0.16898 0.63944 0.0
C3743 C 0.75655 0.16039 0.63514 0.0
C3744 C 0.73567 0.17856 0.62769 0.0
C3745 C 0.72518 0.17861 0.66048 0.0
C3746 C 0.72004 0.17618 0.62421 0.0
C3747 C 0.71224 0.18638 0.61448 0.0
C3748 C 0.71999 0.19905 0.60794 0.0
C3749 C 0.73586 0.20089 0.61076 0.0
C3750 C 0.74363 0.19072 0.62057 0.0
H3751 H 0.72524 0.18013 0.67321 0.0
H3752 H 0.72532 0.19019 0.655 0.0
H3753 H 0.71423 0.17281 0.65725 0.0
H3754 H 0.71378 0.16666 0.62936 0.0
H3755 H 0.70005 0.18455 0.61241 0.0
H3756 H 0.78174 0.71859 0.63764 0.0
H3757 H 0.80195 0.73282 0.6511 0.0
H3758 H 0.83175 0.72844 0.6115 0.0
H3759 H 0.81153 0.71408 0.59784 0.0
H3760 H 0.84557 0.7205 0.64055 0.0
H3761 H 0.81657 0.77749 0.6422 0.0
H3762 H 0.80455 0.76192 0.64873 0.0
H3763 H 0.81095 0.76237 0.629 0.0
C3764 C 0.79256 0.72068 0.63173 0.0
C3765 C 0.79503 0.71525 0.61665 0.0
C3766 C 0.80405 0.7289 0.63942 0.0
C3767 C 0.81821 0.73186 0.63218 0.0
C3768 C 0.82082 0.72635 0.61719 0.0
H3769 H 0.8836 0.79272 0.67978 0.0
H3770 H 0.86883 0.78059 0.65896 0.0
C3771 C 0.80927 0.71817 0.60943 0.0
C3772 C 0.83042 0.7402 0.64065 0.0
H3773 H 0.83733 0.7737 0.6601 0.0
C3774 C 0.84392 0.73222 0.64464 0.0
C3775 C 0.8283 0.75555 0.64573 0.0
C3776 C 0.81438 0.76491 0.64108 0.0
C3777 C 0.85498 0.73891 0.65438 0.0
C3778 C 0.85232 0.75386 0.66035 0.0
C3779 C 0.83926 0.76217 0.65561 0.0
C3780 C 0.86226 0.76063 0.67244 0.0
C3781 C 0.86927 0.72983 0.65841 0.0
C3782 C 0.86335 0.75343 0.68689 0.0
C3783 C 0.8717 0.76033 0.6988 0.0
C3784 C 0.87906 0.7746 0.69648 0.0
C3785 C 0.8781 0.7817 0.68191 0.0
C3786 C 0.86968 0.7748 0.67001 0.0
H3787 H 0.87186 0.72097 0.64952 0.0
H3788 H 0.87944 0.73753 0.65968 0.0
H3789 H 0.8674 0.72379 0.66955 0.0
H3790 H 0.85742 0.74265 0.68909 0.0
H3791 H 0.87218 0.75457 0.70988 0.0
H3792 H 0.3126 0.21766 0.10558 0.0
H3793 H 0.33376 0.23036 0.11936 0.0
H3794 H 0.31161 0.22025 0.16277 0.0
H3795 H 0.29035 0.20781 0.14914 0.0
H3796 H 0.32041 0.25059 0.16003 0.0
H3797 H 0.36876 0.21133 0.14474 0.0
H3798 H 0.35813 0.21886 0.12861 0.0
H3799 H 0.34878 0.2061 0.14202 0.0
C3800 C 0.31231 0.21803 0.11807 0.0
C3801 C 0.29979 0.21175 0.12628 0.0
C3802 C 0.32445 0.22521 0.12592 0.0
C3803 C 0.32432 0.22608 0.14208 0.0
C3804 C 0.31193 0.21966 0.15029 0.0
H3805 H 0.39295 0.24937 0.20934 0.0
H3806 H 0.37569 0.23674 0.19097 0.0
C3807 C 0.29979 0.21256 0.14247 0.0
C3808 C 0.33663 0.23434 0.15054 0.0
H3809 H 0.37516 0.2339 0.15878 0.0
C3810 C 0.3324 0.24698 0.15972 0.0
C3811 C 0.35222 0.22951 0.15018 0.0
C3812 C 0.35729 0.21563 0.14097 0.0
C3813 C 0.34329 0.25484 0.16872 0.0
C3814 C 0.35891 0.25013 0.16824 0.0
C3815 C 0.36319 0.23756 0.15897 0.0
C3816 C 0.37072 0.25754 0.17809 0.0
C3817 C 0.33785 0.26777 0.17907 0.0
C3818 C 0.37402 0.27332 0.17659 0.0
C3819 C 0.38379 0.28061 0.18714 0.0
C3820 C 0.39052 0.27218 0.19927 0.0
C3821 C 0.38788 0.2562 0.20018 0.0
C3822 C 0.37805 0.24895 0.18968 0.0
H3823 H 0.32514 0.26754 0.18074 0.0
H3824 H 0.34349 0.2671 0.19056 0.0
H3825 H 0.34093 0.27901 0.17376 0.0
H3826 H 0.36871 0.28007 0.16751 0.0
H3827 H 0.38572 0.29291 0.18603 0.0
H3828 H 0.38586 0.7065 0.82029 0.0
H3829 H 0.37086 0.71564 0.84248 0.0
H3830 H 0.35417 0.75396 0.81551 0.0
H3831 H 0.36907 0.74502 0.79333 0.0
H3832 H 0.37084 0.74748 0.85727 0.0
H3833 H 0.31512 0.72892 0.83146 0.0
H3834 H 0.33348 0.72115 0.82537 0.0
H3835 H 0.32752 0.73994 0.81899 0.0
C3836 C 0.37908 0.71694 0.81912 0.0
C3837 C 0.37857 0.72498 0.80502 0.0
C3838 C 0.37057 0.72213 0.8318 0.0
C3839 C 0.36134 0.73536 0.83051 0.0
C3840 C 0.36114 0.74364 0.81663 0.0
H3841 H 0.31294 0.79667 0.88965 0.0
H3842 H 0.33214 0.78316 0.87409 0.0
C3843 C 0.36968 0.73852 0.80399 0.0
C3844 C 0.35147 0.74034 0.84345 0.0
H3845 H 0.31375 0.74516 0.85347 0.0
C3846 C 0.35836 0.74684 0.85657 0.0
C3847 C 0.33523 0.73926 0.84253 0.0
C3848 C 0.32734 0.73183 0.8289 0.0
C3849 C 0.34932 0.75295 0.86856 0.0
C3850 C 0.33306 0.75259 0.86725 0.0
C3851 C 0.32622 0.74547 0.85442 0.0
C3852 C 0.32282 0.76041 0.87845 0.0
C3853 C 0.35723 0.75985 0.88244 0.0
C3854 C 0.31123 0.75208 0.88609 0.0
C3855 C 0.30017 0.75977 0.89495 0.0
C3856 C 0.30044 0.77595 0.89616 0.0
C3857 C 0.31242 0.7842 0.88896 0.0
C3858 C 0.32348 0.77649 0.88015 0.0
H3859 H 0.36911 0.75525 0.88385 0.0
H3860 H 0.35807 0.77254 0.88092 0.0
H3861 H 0.35059 0.75754 0.89316 0.0
H3862 H 0.31048 0.73966 0.88482 0.0
H3863 H 0.2911 0.75309 0.90035 0.0
H3864 H 0.24656 0.2972 0.9046 0.0
H3865 H 0.26026 0.3178 0.89097 0.0
H3866 H 0.21727 0.33355 0.87144 0.0
H3867 H 0.20348 0.31322 0.88515 0.0
H3868 H 0.26109 0.32014 0.85959 0.0
H3869 H 0.23719 0.37393 0.8843 0.0
H3870 H 0.23515 0.35542 0.89368 0.0
H3871 H 0.22238 0.36081 0.8782 0.0
C3872 C 0.23998 0.30523 0.89764 0.0
C3873 C 0.22394 0.30354 0.89591 0.0
C3874 C 0.24783 0.317 0.88988 0.0
C3875 C 0.23976 0.32732 0.88037 0.0
C3876 C 0.22369 0.32595 0.87901 0.0
H3877 H 0.2546 0.38706 0.80443 0.0
H3878 H 0.24519 0.37246 0.82663 0.0
C3879 C 0.21583 0.31422 0.88677 0.0
C3880 C 0.24821 0.33839 0.87047 0.0
H3881 H 0.24929 0.37617 0.85935 0.0
C3882 C 0.25876 0.33244 0.85972 0.0
C3883 C 0.24508 0.35441 0.87066 0.0
C3884 C 0.23444 0.36155 0.88244 0.0
C3885 C 0.26566 0.34196 0.84861 0.0
C3886 C 0.26209 0.35788 0.84844 0.0
C3887 C 0.25197 0.36394 0.85953 0.0
C3888 C 0.26788 0.36813 0.83609 0.0
C3889 C 0.27609 0.33475 0.83666 0.0
C3890 C 0.28373 0.37087 0.83433 0.0
C3891 C 0.28917 0.37915 0.82161 0.0
C3892 C 0.27881 0.38488 0.81049 0.0
C3893 C 0.26289 0.38273 0.81272 0.0
C3894 C 0.25748 0.37443 0.82543 0.0
H3895 H 0.2753 0.32196 0.83664 0.0
H3896 H 0.27319 0.33905 0.82494 0.0
H3897 H 0.28823 0.33797 0.83915 0.0
H3898 H 0.29191 0.36627 0.84259 0.0
H3899 H 0.3015 0.38071 0.82028 0.0
H3900 H 0.60012 0.27564 0.81473 0.0
H3901 H 0.61358 0.26041 0.83442 0.0
H3902 H 0.65716 0.27099 0.81285 0.0
H3903 H 0.6439 0.28624 0.79325 0.0
H3904 H 0.63239 0.23441 0.82822 0.0
H3905 H 0.66494 0.2801 0.85886 0.0
H3906 H 0.64844 0.28421 0.8468 0.0
H3907 H 0.66709 0.281 0.83828 0.0
C3908 C 0.61259 0.27489 0.81432 0.0
C3909 C 0.62096 0.28213 0.80244 0.0
C3910 C 0.62024 0.26618 0.82555 0.0
C3911 C 0.63635 0.26476 0.82517 0.0
C3912 C 0.64474 0.2722 0.8135 0.0
H3913 H 0.70133 0.19738 0.85225 0.0
H3914 H 0.68159 0.21332 0.84001 0.0
C3915 C 0.63712 0.28082 0.80225 0.0
C3916 C 0.64446 0.25462 0.83622 0.0
H3917 H 0.67422 0.25415 0.86197 0.0
C3918 C 0.64136 0.23873 0.8358 0.0
C3919 C 0.65601 0.26033 0.84622 0.0
C3920 C 0.65923 0.27737 0.84771 0.0
C3921 C 0.65015 0.22828 0.8445 0.0
C3922 C 0.6624 0.23391 0.85368 0.0
C3923 C 0.6649 0.24987 0.85478 0.0
C3924 C 0.67345 0.22342 0.86135 0.0
C3925 C 0.64643 0.2113 0.84358 0.0
C3926 C 0.67549 0.22395 0.87739 0.0
C3927 C 0.68681 0.21487 0.88443 0.0
C3928 C 0.69639 0.20527 0.8755 0.0
C3929 C 0.69414 0.20463 0.85946 0.0
C3930 C 0.68279 0.21365 0.85245 0.0
H3931 H 0.63429 0.20935 0.83994 0.0
H3932 H 0.65407 0.20579 0.83491 0.0
H3933 H 0.64835 0.20553 0.85486 0.0
H3934 H 0.66846 0.23152 0.88442 0.0
H3935 H 0.68828 0.21565 0.89682 0.0
H3936 H 0.70783 0.61033 0.81733 0.0
H3937 H 0.7162 0.62349 0.84093 0.0
H3938 H 0.75235 0.64629 0.81547 0.0
H3939 H 0.74417 0.63322 0.79187 0.0
H3940 H 0.74824 0.62449 0.85516 0.0
H3941 H 0.72455 0.681 0.83622 0.0
H3942 H 0.71817 0.66285 0.82818 0.0
H3943 H 0.73621 0.67111 0.82218 0.0
C3944 C 0.71763 0.61807 0.81677 0.0
C3945 C 0.72529 0.62081 0.80271 0.0
C3946 C 0.72239 0.62553 0.83026 0.0
C3947 C 0.73477 0.63591 0.82983 0.0
C3948 C 0.74268 0.63838 0.81594 0.0
H3949 H 0.79466 0.68218 0.89108 0.0
H3950 H 0.78153 0.66312 0.87509 0.0
C3951 C 0.73799 0.63089 0.80249 0.0
C3952 C 0.73924 0.64464 0.84374 0.0
H3953 H 0.74151 0.6813 0.85774 0.0
C3954 C 0.74663 0.63688 0.85588 0.0
C3955 C 0.73685 0.66073 0.84467 0.0
C3956 C 0.7284 0.66945 0.8322 0.0
C3957 C 0.75241 0.645 0.86865 0.0
C3958 C 0.75083 0.66124 0.86913 0.0
C3959 C 0.74275 0.66885 0.85733 0.0
C3960 C 0.75851 0.67084 0.88097 0.0
C3961 C 0.7603 0.63618 0.8814 0.0
C3962 C 0.74993 0.68142 0.88972 0.0
C3963 C 0.75742 0.69244 0.8988 0.0
C3964 C 0.77362 0.69314 0.89915 0.0
C3965 C 0.78216 0.68197 0.89105 0.0
C3966 C 0.77467 0.67096 0.88199 0.0
H3967 H 0.75629 0.62401 0.88184 0.0
H3968 H 0.77292 0.63607 0.87924 0.0
H3969 H 0.75823 0.64165 0.89281 0.0
H3970 H 0.73745 0.68155 0.88902 0.0
H3971 H 0.7505 0.70085 0.90494 0.0
H3972 H 0.68187 0.78407 0.10615 0.0
H3973 H 0.66325 0.76687 0.11879 0.0
H3974 H 0.69236 0.76484 0.15907 0.0
H3975 H 0.71095 0.782 0.14667 0.0
H3976 H 0.68094 0.73452 0.14327 0.0
H3977 H 0.63602 0.77765 0.15958 0.0
H3978 H 0.64467 0.77834 0.14066 0.0
H3979 H 0.65599 0.78317 0.15727 0.0
C3980 C 0.68424 0.78006 0.11774 0.0
C3981 C 0.69789 0.78438 0.12541 0.0
C3982 C 0.6736 0.77026 0.12492 0.0
C3983 C 0.6765 0.76467 0.13982 0.0
C3984 C 0.68998 0.76909 0.14755 0.0
H3985 H 0.64575 0.70499 0.21022 0.0
H3986 H 0.65952 0.72002 0.19086 0.0
C3987 C 0.70056 0.77891 0.14045 0.0
C3988 C 0.66581 0.75379 0.14733 0.0
H3989 H 0.63281 0.75229 0.16869 0.0
C3990 C 0.6703 0.73831 0.14868 0.0
C3991 C 0.65192 0.75883 0.15417 0.0
C3992 C 0.64675 0.7754 0.15295 0.0
C3993 C 0.66147 0.72778 0.15719 0.0
C3994 C 0.64803 0.73301 0.16484 0.0
C3995 C 0.64315 0.74834 0.16286 0.0
C3996 C 0.63968 0.72317 0.17601 0.0
C3997 C 0.66673 0.7112 0.15809 0.0
C3998 C 0.62387 0.7202 0.17424 0.0
C3999 C 0.61589 0.71168 0.18539 0.0
C4000 C 0.62361 0.70612 0.19855 0.0
C4001 C 0.63947 0.70903 0.20019 0.0
C4002 C 0.6474 0.71754 0.18907 0.0
H4003 H 0.67377 0.70799 0.14786 0.0
H4004 H 0.67404 0.70966 0.16849 0.0
H4005 H 0.65677 0.70318 0.15892 0.0
H4006 H 0.61768 0.72458 0.16429 0.0
H4007 H 0.60366 0.70967 0.18382 0.0
H4008 H 0.29958 0.61639 0.18333 0.0
H4009 H 0.28653 0.63123 0.1632 0.0
H4010 H 0.24284 0.61182 0.17706 0.0
H4011 H 0.25574 0.59722 0.19749 0.0
H4012 H 0.26792 0.62348 0.1383 0.0
H4013 H 0.23566 0.65798 0.18171 0.0
H4014 H 0.25144 0.64546 0.18691 0.0
H4015 H 0.23266 0.63753 0.18304 0.0
C4016 C 0.28721 0.61517 0.18202 0.0
C4017 C 0.27865 0.60581 0.19213 0.0
C4018 C 0.27978 0.62363 0.17049 0.0
C4019 C 0.2637 0.62285 0.16886 0.0
C4020 C 0.25523 0.61286 0.17838 0.0
H4021 H 0.20167 0.67959 0.11371 0.0
H4022 H 0.21248 0.65812 0.12851 0.0
C4023 C 0.26262 0.60448 0.19 0.0
C4024 C 0.25578 0.63311 0.15774 0.0
H4025 H 0.23038 0.66311 0.15556 0.0
C4026 C 0.25965 0.63211 0.14204 0.0
C4027 C 0.24506 0.64439 0.1627 0.0
C4028 C 0.24103 0.64655 0.17952 0.0
C4029 C 0.25309 0.64215 0.13115 0.0
C4030 C 0.24252 0.6535 0.13616 0.0
C4031 C 0.23843 0.6543 0.15179 0.0
C4032 C 0.2362 0.66532 0.12562 0.0
C4033 C 0.25751 0.64056 0.11439 0.0
C4034 C 0.246 0.67639 0.11904 0.0
C4035 C 0.23988 0.68871 0.11065 0.0
C4036 C 0.22383 0.69018 0.10875 0.0
C4037 C 0.21408 0.67878 0.11495 0.0
C4038 C 0.22022 0.6665 0.12339 0.0
H4039 H 0.2625 0.62902 0.11187 0.0
H4040 H 0.24736 0.64244 0.10679 0.0
H4041 H 0.2663 0.64941 0.11151 0.0
H4042 H 0.25835 0.67582 0.12088 0.0
H4043 H 0.2477 0.6973 0.10603 0.0
H4044 H 0.7063 0.38261 0.18475 0.0
H4045 H 0.7182 0.368 0.16379 0.0
H4046 H 0.76318 0.3836 0.17828 0.0
H4047 H 0.75142 0.39799 0.19953 0.0
H4048 H 0.73726 0.37583 0.13914 0.0
H4049 H 0.76702 0.33677 0.18044 0.0
H4050 H 0.75214 0.35005 0.18638 0.0
H4051 H 0.77143 0.35686 0.1829 0.0
C4052 C 0.71872 0.38306 0.18342 0.0
C4053 C 0.72794 0.3913 0.19393 0.0
C4054 C 0.72549 0.37472 0.17141 0.0
C4055 C 0.74157 0.37449 0.16968 0.0
C4056 C 0.75076 0.38336 0.17964 0.0
H4057 H 0.79996 0.31708 0.11167 0.0
H4058 H 0.79029 0.33823 0.12761 0.0
C4059 C 0.74401 0.39163 0.19173 0.0
C4060 C 0.7487 0.3643 0.15797 0.0
H4061 H 0.77194 0.33276 0.15402 0.0
C4062 C 0.7449 0.36644 0.14236 0.0
C4063 C 0.75858 0.35203 0.16225 0.0
C4064 C 0.76245 0.34865 0.1789 0.0
C4065 C 0.75076 0.35661 0.13089 0.0
C4066 C 0.76052 0.34429 0.13521 0.0
C4067 C 0.76451 0.34231 0.15077 0.0
C4068 C 0.76621 0.33279 0.12397 0.0
C4069 C 0.7465 0.35948 0.11426 0.0
C4070 C 0.75584 0.32283 0.11653 0.0
C4071 C 0.76132 0.31069 0.10745 0.0
C4072 C 0.77727 0.30827 0.10572 0.0
C4073 C 0.78761 0.31861 0.11276 0.0
C4074 C 0.78212 0.33071 0.12187 0.0
H4075 H 0.7423 0.37145 0.11244 0.0
H4076 H 0.75652 0.35739 0.10655 0.0
H4077 H 0.73714 0.35142 0.11087 0.0
H4078 H 0.74352 0.32408 0.11825 0.0
H4079 H 0.75305 0.30292 0.1022 0.0
loop_
_geom_bond_atom_site_label_1
_geom_bond_atom_site_label_2
_geom_bond_distance
_geom_bond_site_symmetry_2
_ccdc_geom_bond_type
C0 O1 1.160 . S
C0 O7 1.185 . S
O1 C0 1.160 . S
O2 Zn3 1.899 . S
O2 C10 1.284 . S
Zn3 O2 1.899 . S
Zn3 O4 2.032 . S
Zn3 O7 2.086 . S
Zn3 O12 1.977 . S
O4 Zn3 2.032 . S
O4 C8 1.278 . S
C5 O6 1.203 . S
C5 O12 1.267 . S
O6 C5 1.203 . S
O7 C0 1.185 . S
O7 Zn3 2.086 . S
C8 O4 1.278 . S
C8 O9 1.211 . S
O9 C8 1.211 . S
C10 O2 1.284 . S
C10 O11 1.273 . S
O11 C10 1.273 . S
O12 Zn3 1.977 . S
O12 C5 1.267 . S
C13 O14 1.160 . S
C13 O20 1.185 . S
O14 C13 1.160 . S
O15 Zn16 1.899 . S
O15 C23 1.284 . S
Zn16 O15 1.899 . S
Zn16 O17 2.032 . S
Zn16 O20 2.086 . S
Zn16 O25 1.977 . S
O17 Zn16 2.032 . S
O17 C21 1.278 . S
C18 O19 1.203 . S
C18 O25 1.267 . S
O19 C18 1.203 . S
O20 C13 1.185 . S
O20 Zn16 2.086 . S
C21 O17 1.278 . S
C21 O22 1.211 . S
O22 C21 1.211 . S
C23 O15 1.284 . S
C23 O24 1.273 . S
O24 C23 1.273 . S
O25 Zn16 1.977 . S
O25 C18 1.267 . S
C26 O27 1.160 . S
C26 O33 1.185 . S
O27 C26 1.160 . S
O28 Zn29 1.899 . S
O28 C36 1.284 . S
Zn29 O28 1.899 . S
Zn29 O30 2.032 . S
Zn29 O33 2.086 . S
Zn29 O38 1.977 . S
O30 Zn29 2.032 . S
O30 C34 1.278 . S
C31 O32 1.203 . S
C31 O38 1.267 . S
O32 C31 1.203 . S
O33 C26 1.185 . S
O33 Zn29 2.086 . S
C34 O30 1.278 . S
C34 O35 1.211 . S
O35 C34 1.211 . S
C36 O28 1.284 . S
C36 O37 1.273 . S
O37 C36 1.273 . S
O38 Zn29 1.977 . S
O38 C31 1.267 . S
C39 O40 1.160 . S
C39 O46 1.185 . S
O40 C39 1.160 . S
O41 Zn42 1.899 . S
O41 C49 1.284 . S
Zn42 O41 1.899 . S
Zn42 O43 2.032 . S
Zn42 O46 2.086 . S
Zn42 O51 1.977 . S
O43 Zn42 2.032 . S
O43 C47 1.278 . S
C44 O45 1.203 . S
C44 O51 1.267 . S
O45 C44 1.203 . S
O46 C39 1.185 . S
O46 Zn42 2.086 . S
C47 O43 1.278 . S
C47 O48 1.211 . S
O48 C47 1.211 . S
C49 O41 1.284 . S
C49 O50 1.273 . S
O50 C49 1.273 . S
O51 Zn42 1.977 . S
O51 C44 1.267 . S
C52 O53 1.160 . S
C52 O59 1.185 . S
O53 C52 1.160 . S
O54 Zn55 1.899 . S
O54 C62 1.284 . S
Zn55 O54 1.899 . S
Zn55 O56 2.032 . S
Zn55 O59 2.086 . S
Zn55 O64 1.977 . S
O56 Zn55 2.032 . S
O56 C60 1.278 . S
C57 O58 1.203 . S
C57 O64 1.267 . S
O58 C57 1.203 . S
O59 C52 1.185 . S
O59 Zn55 2.086 . S
C60 O56 1.278 . S
C60 O61 1.211 . S
O61 C60 1.211 . S
C62 O54 1.284 . S
C62 O63 1.273 . S
O63 C62 1.273 . S
O64 Zn55 1.977 . S
O64 C57 1.267 . S
C65 O66 1.160 . S
C65 O72 1.185 . S
O66 C65 1.160 . S
O67 Zn68 1.899 . S
O67 C75 1.284 . S
Zn68 O67 1.899 . S
Zn68 O69 2.032 . S
Zn68 O72 2.086 . S
Zn68 O77 1.977 . S
O69 Zn68 2.032 . S
O69 C73 1.278 . S
C70 O71 1.203 . S
C70 O77 1.267 . S
O71 C70 1.203 . S
O72 C65 1.185 . S
O72 Zn68 2.086 . S
C73 O69 1.278 . S
C73 O74 1.211 . S
O74 C73 1.211 . S
C75 O67 1.284 . S
C75 O76 1.273 . S
O76 C75 1.273 . S
O77 Zn68 1.977 . S
O77 C70 1.267 . S
C78 O79 1.160 . S
C78 O85 1.185 . S
O79 C78 1.160 . S
O80 Zn81 1.899 . S
O80 C88 1.284 . S
Zn81 O80 1.899 . S
Zn81 O82 2.032 . S
Zn81 O85 2.086 . S
Zn81 O90 1.977 . S
O82 Zn81 2.032 . S
O82 C86 1.278 . S
C83 O84 1.203 . S
C83 O90 1.267 . S
O84 C83 1.203 . S
O85 C78 1.185 . S
O85 Zn81 2.086 . S
C86 O82 1.278 . S
C86 O87 1.211 . S
O87 C86 1.211 . S
C88 O80 1.284 . S
C88 O89 1.273 . S
O89 C88 1.273 . S
O90 Zn81 1.977 . S
O90 C83 1.267 . S
C91 O92 1.160 . S
C91 O98 1.185 . S
O92 C91 1.160 . S
O93 Zn94 1.899 . S
O93 C101 1.284 . S
Zn94 O93 1.899 . S
Zn94 O95 2.032 . S
Zn94 O98 2.086 . S
Zn94 O103 1.977 . S
O95 Zn94 2.032 . S
O95 C99 1.278 . S
C96 O97 1.203 . S
C96 O103 1.267 . S
O97 C96 1.203 . S
O98 C91 1.185 . S
O98 Zn94 2.086 . S
C99 O95 1.278 . S
C99 O100 1.211 . S
O100 C99 1.211 . S
C101 O93 1.284 . S
C101 O102 1.273 . S
O102 C101 1.273 . S
O103 Zn94 1.977 . S
O103 C96 1.267 . S
C104 O105 1.160 . S
C104 O111 1.185 . S
O105 C104 1.160 . S
O106 Zn107 1.899 . S
O106 C114 1.284 . S
Zn107 O106 1.899 . S
Zn107 O108 2.032 . S
Zn107 O111 2.086 . S
Zn107 O116 1.977 . S
O108 Zn107 2.032 . S
O108 C112 1.278 . S
C109 O110 1.203 . S
C109 O116 1.267 . S
O110 C109 1.203 . S
O111 C104 1.185 . S
O111 Zn107 2.086 . S
C112 O108 1.278 . S
C112 O113 1.211 . S
O113 C112 1.211 . S
C114 O106 1.284 . S
C114 O115 1.273 . S
O115 C114 1.273 . S
O116 Zn107 1.977 . S
O116 C109 1.267 . S
C117 O118 1.160 . S
C117 O124 1.185 . S
O118 C117 1.160 . S
O119 Zn120 1.899 . S
O119 C127 1.284 . S
Zn120 O119 1.899 . S
Zn120 O121 2.032 . S
Zn120 O124 2.086 . S
Zn120 O129 1.977 . S
O121 Zn120 2.032 . S
O121 C125 1.278 . S
C122 O123 1.203 . S
C122 O129 1.267 . S
O123 C122 1.203 . S
O124 C117 1.185 . S
O124 Zn120 2.086 . S
C125 O121 1.278 . S
C125 O126 1.211 . S
O126 C125 1.211 . S
C127 O119 1.284 . S
C127 O128 1.273 . S
O128 C127 1.273 . S
O129 Zn120 1.977 . S
O129 C122 1.267 . S
C130 O131 1.160 . S
C130 O137 1.185 . S
O131 C130 1.160 . S
O132 Zn133 1.899 . S
O132 C140 1.284 . S
Zn133 O132 1.899 . S
Zn133 O134 2.032 . S
Zn133 O137 2.086 . S
Zn133 O142 1.977 . S
O134 Zn133 2.032 . S
O134 C138 1.278 . S
C135 O136 1.203 . S
C135 O142 1.267 . S
O136 C135 1.203 . S
O137 C130 1.185 . S
O137 Zn133 2.086 . S
C138 O134 1.278 . S
C138 O139 1.211 . S
O139 C138 1.211 . S
C140 O132 1.284 . S
C140 O141 1.273 . S
O141 C140 1.273 . S
O142 Zn133 1.977 . S
O142 C135 1.267 . S
C143 O144 1.160 . S
C143 O150 1.185 . S
O144 C143 1.160 . S
O145 Zn146 1.899 . S
O145 C153 1.284 . S
Zn146 O145 1.899 . S
Zn146 O147 2.032 . S
Zn146 O150 2.086 . S
Zn146 O155 1.977 . S
O147 Zn146 2.032 . S
O147 C151 1.278 . S
C148 O149 1.203 . S
C148 O155 1.267 . S
O149 C148 1.203 . S
O150 C143 1.185 . S
O150 Zn146 2.086 . S
C151 O147 1.278 . S
C151 O152 1.211 . S
O152 C151 1.211 . S
C153 O145 1.284 . S
C153 O154 1.273 . S
O154 C153 1.273 . S
O155 Zn146 1.977 . S
O155 C148 1.267 . S
C156 O157 1.160 . S
C156 O163 1.185 . S
O157 C156 1.160 . S
O158 Zn159 1.899 . S
O158 C166 1.284 . S
Zn159 O158 1.899 . S
Zn159 O160 2.032 . S
Zn159 O163 2.086 . S
Zn159 O168 1.977 . S
O160 Zn159 2.032 . S
O160 C164 1.278 . S
C161 O162 1.203 . S
C161 O168 1.267 . S
O162 C161 1.203 . S
O163 C156 1.185 . S
O163 Zn159 2.086 . S
C164 O160 1.278 . S
C164 O165 1.211 . S
O165 C164 1.211 . S
C166 O158 1.284 . S
C166 O167 1.273 . S
O167 C166 1.273 . S
O168 Zn159 1.977 . S
O168 C161 1.267 . S
C169 O170 1.160 . S
C169 O176 1.185 . S
O170 C169 1.160 . S
O171 Zn172 1.899 . S
O171 C179 1.284 . S
Zn172 O171 1.899 . S
Zn172 O173 2.032 . S
Zn172 O176 2.086 . S
Zn172 O181 1.977 . S
O173 Zn172 2.032 . S
O173 C177 1.278 . S
C174 O175 1.203 . S
C174 O181 1.267 . S
O175 C174 1.203 . S
O176 C169 1.185 . S
O176 Zn172 2.086 . S
C177 O173 1.278 . S
C177 O178 1.211 . S
O178 C177 1.211 . S
C179 O171 1.284 . S
C179 O180 1.273 . S
O180 C179 1.273 . S
O181 Zn172 1.977 . S
O181 C174 1.267 . S
C182 O183 1.160 . S
C182 O189 1.185 . S
O183 C182 1.160 . S
O184 Zn185 1.899 . S
O184 C192 1.284 . S
Zn185 O184 1.899 . S
Zn185 O186 2.032 . S
Zn185 O189 2.086 . S
Zn185 O194 1.977 . S
O186 Zn185 2.032 . S
O186 C190 1.278 . S
C187 O188 1.203 . S
C187 O194 1.267 . S
O188 C187 1.203 . S
O189 C182 1.185 . S
O189 Zn185 2.086 . S
C190 O186 1.278 . S
C190 O191 1.211 . S
O191 C190 1.211 . S
C192 O184 1.284 . S
C192 O193 1.273 . S
O193 C192 1.273 . S
O194 Zn185 1.977 . S
O194 C187 1.267 . S
C195 O196 1.160 . S
C195 O202 1.185 . S
O196 C195 1.160 . S
O197 Zn198 1.899 . S
O197 C205 1.284 . S
Zn198 O197 1.899 . S
Zn198 O199 2.032 . S
Zn198 O202 2.086 . S
Zn198 O207 1.977 . S
O199 Zn198 2.032 . S
O199 C203 1.278 . S
C200 O201 1.203 . S
C200 O207 1.267 . S
O201 C200 1.203 . S
O202 C195 1.185 . S
O202 Zn198 2.086 . S
C203 O199 1.278 . S
C203 O204 1.211 . S
O204 C203 1.211 . S
C205 O197 1.284 . S
C205 O206 1.273 . S
O206 C205 1.273 . S
O207 Zn198 1.977 . S
O207 C200 1.267 . S
C208 O209 1.160 . S
C208 O215 1.185 . S
O209 C208 1.160 . S
O210 Zn211 1.899 . S
O210 C218 1.284 . S
Zn211 O210 1.899 . S
Zn211 O212 2.032 . S
Zn211 O215 2.086 . S
Zn211 O220 1.977 . S
O212 Zn211 2.032 . S
O212 C216 1.278 . S
C213 O214 1.203 . S
C213 O220 1.267 . S
O214 C213 1.203 . S
O215 C208 1.185 . S
O215 Zn211 2.086 . S
C216 O212 1.278 . S
C216 O217 1.211 . S
O217 C216 1.211 . S
C218 O210 1.284 . S
C218 O219 1.273 . S
O219 C218 1.273 . S
O220 Zn211 1.977 . S
O220 C213 1.267 . S
C221 O222 1.160 . S
C221 O228 1.185 . S
O222 C221 1.160 . S
O223 Zn224 1.899 . S
O223 C231 1.284 . S
Zn224 O223 1.899 . S
Zn224 O225 2.032 . S
Zn224 O228 2.086 . S
Zn224 O233 1.977 . S
O225 Zn224 2.032 . S
O225 C229 1.278 . S
C226 O227 1.203 . S
C226 O233 1.267 . S
O227 C226 1.203 . S
O228 C221 1.185 . S
O228 Zn224 2.086 . S
C229 O225 1.278 . S
C229 O230 1.211 . S
O230 C229 1.211 . S
C231 O223 1.284 . S
C231 O232 1.273 . S
O232 C231 1.273 . S
O233 Zn224 1.977 . S
O233 C226 1.267 . S
C234 O235 1.160 . S
C234 O241 1.185 . S
O235 C234 1.160 . S
O236 Zn237 1.899 . S
O236 C244 1.284 . S
Zn237 O236 1.899 . S
Zn237 O238 2.032 . S
Zn237 O241 2.086 . S
Zn237 O246 1.977 . S
O238 Zn237 2.032 . S
O238 C242 1.278 . S
C239 O240 1.203 . S
C239 O246 1.267 . S
O240 C239 1.203 . S
O241 C234 1.185 . S
O241 Zn237 2.086 . S
C242 O238 1.278 . S
C242 O243 1.211 . S
O243 C242 1.211 . S
C244 O236 1.284 . S
C244 O245 1.273 . S
O245 C244 1.273 . S
O246 Zn237 1.977 . S
O246 C239 1.267 . S
C247 O248 1.160 . S
C247 O254 1.185 . S
O248 C247 1.160 . S
O249 Zn250 1.899 . S
O249 C257 1.284 . S
Zn250 O249 1.899 . S
Zn250 O251 2.032 . S
Zn250 O254 2.086 . S
Zn250 O259 1.977 . S
O251 Zn250 2.032 . S
O251 C255 1.278 . S
C252 O253 1.203 . S
C252 O259 1.267 . S
O253 C252 1.203 . S
O254 C247 1.185 . S
O254 Zn250 2.086 . S
C255 O251 1.278 . S
C255 O256 1.211 . S
O256 C255 1.211 . S
C257 O249 1.284 . S
C257 O258 1.273 . S
O258 C257 1.273 . S
O259 Zn250 1.977 . S
O259 C252 1.267 . S
C260 O261 1.160 . S
C260 O267 1.185 . S
O261 C260 1.160 . S
O262 Zn263 1.899 . S
O262 C270 1.284 . S
Zn263 O262 1.899 . S
Zn263 O264 2.032 . S
Zn263 O267 2.086 . S
Zn263 O272 1.977 . S
O264 Zn263 2.032 . S
O264 C268 1.278 . S
C265 O266 1.203 . S
C265 O272 1.267 . S
O266 C265 1.203 . S
O267 C260 1.185 . S
O267 Zn263 2.086 . S
C268 O264 1.278 . S
C268 O269 1.211 . S
O269 C268 1.211 . S
C270 O262 1.284 . S
C270 O271 1.273 . S
O271 C270 1.273 . S
O272 Zn263 1.977 . S
O272 C265 1.267 . S
C273 O274 1.160 . S
C273 O280 1.185 . S
O274 C273 1.160 . S
O275 Zn276 1.899 . S
O275 C283 1.284 . S
Zn276 O275 1.899 . S
Zn276 O277 2.032 . S
Zn276 O280 2.086 . S
Zn276 O285 1.977 . S
O277 Zn276 2.032 . S
O277 C281 1.278 . S
C278 O279 1.203 . S
C278 O285 1.267 . S
O279 C278 1.203 . S
O280 C273 1.185 . S
O280 Zn276 2.086 . S
C281 O277 1.278 . S
C281 O282 1.211 . S
O282 C281 1.211 . S
C283 O275 1.284 . S
C283 O284 1.273 . S
O284 C283 1.273 . S
O285 Zn276 1.977 . S
O285 C278 1.267 . S
C286 O287 1.160 . S
C286 O293 1.185 . S
O287 C286 1.160 . S
O288 Zn289 1.899 . S
O288 C296 1.284 . S
Zn289 O288 1.899 . S
Zn289 O290 2.032 . S
Zn289 O293 2.086 . S
Zn289 O298 1.977 . S
O290 Zn289 2.032 . S
O290 C294 1.278 . S
C291 O292 1.203 . S
C291 O298 1.267 . S
O292 C291 1.203 . S
O293 C286 1.185 . S
O293 Zn289 2.086 . S
C294 O290 1.278 . S
C294 O295 1.211 . S
O295 C294 1.211 . S
C296 O288 1.284 . S
C296 O297 1.273 . S
O297 C296 1.273 . S
O298 Zn289 1.977 . S
O298 C291 1.267 . S
C299 O300 1.160 . S
C299 O306 1.185 . S
O300 C299 1.160 . S
O301 Zn302 1.899 . S
O301 C309 1.284 . S
Zn302 O301 1.899 . S
Zn302 O303 2.032 . S
Zn302 O306 2.086 . S
Zn302 O311 1.977 . S
O303 Zn302 2.032 . S
O303 C307 1.278 . S
C304 O305 1.203 . S
C304 O311 1.267 . S
O305 C304 1.203 . S
O306 C299 1.185 . S
O306 Zn302 2.086 . S
C307 O303 1.278 . S
C307 O308 1.211 . S
O308 C307 1.211 . S
C309 O301 1.284 . S
C309 O310 1.273 . S
O310 C309 1.273 . S
O311 Zn302 1.977 . S
O311 C304 1.267 . S
C312 O313 1.160 . S
C312 O319 1.185 . S
O313 C312 1.160 . S
O314 Zn315 1.899 . S
O314 C322 1.284 . S
Zn315 O314 1.899 . S
Zn315 O316 2.032 . S
Zn315 O319 2.086 . S
Zn315 O324 1.977 . S
O316 Zn315 2.032 . S
O316 C320 1.278 . S
C317 O318 1.203 . S
C317 O324 1.267 . S
O318 C317 1.203 . S
O319 C312 1.185 . S
O319 Zn315 2.086 . S
C320 O316 1.278 . S
C320 O321 1.211 . S
O321 C320 1.211 . S
C322 O314 1.284 . S
C322 O323 1.273 . S
O323 C322 1.273 . S
O324 Zn315 1.977 . S
O324 C317 1.267 . S
C325 O326 1.160 . S
C325 O332 1.185 . S
O326 C325 1.160 . S
O327 Zn328 1.899 . S
O327 C335 1.284 . S
Zn328 O327 1.899 . S
Zn328 O329 2.032 . S
Zn328 O332 2.086 . S
Zn328 O337 1.977 . S
O329 Zn328 2.032 . S
O329 C333 1.278 . S
C330 O331 1.203 . S
C330 O337 1.267 . S
O331 C330 1.203 . S
O332 C325 1.185 . S
O332 Zn328 2.086 . S
C333 O329 1.278 . S
C333 O334 1.211 . S
O334 C333 1.211 . S
C335 O327 1.284 . S
C335 O336 1.273 . S
O336 C335 1.273 . S
O337 Zn328 1.977 . S
O337 C330 1.267 . S
C338 O339 1.160 . S
C338 O345 1.185 . S
O339 C338 1.160 . S
O340 Zn341 1.899 . S
O340 C348 1.284 . S
Zn341 O340 1.899 . S
Zn341 O342 2.032 . S
Zn341 O345 2.086 . S
Zn341 O350 1.977 . S
O342 Zn341 2.032 . S
O342 C346 1.278 . S
C343 O344 1.203 . S
C343 O350 1.267 . S
O344 C343 1.203 . S
O345 C338 1.185 . S
O345 Zn341 2.086 . S
C346 O342 1.278 . S
C346 O347 1.211 . S
O347 C346 1.211 . S
C348 O340 1.284 . S
C348 O349 1.273 . S
O349 C348 1.273 . S
O350 Zn341 1.977 . S
O350 C343 1.267 . S
C351 O352 1.160 . S
C351 O358 1.185 . S
O352 C351 1.160 . S
O353 Zn354 1.899 . S
O353 C361 1.284 . S
Zn354 O353 1.899 . S
Zn354 O355 2.032 . S
Zn354 O358 2.086 . S
Zn354 O363 1.977 . S
O355 Zn354 2.032 . S
O355 C359 1.278 . S
C356 O357 1.203 . S
C356 O363 1.267 . S
O357 C356 1.203 . S
O358 C351 1.185 . S
O358 Zn354 2.086 . S
C359 O355 1.278 . S
C359 O360 1.211 . S
O360 C359 1.211 . S
C361 O353 1.284 . S
C361 O362 1.273 . S
O362 C361 1.273 . S
O363 Zn354 1.977 . S
O363 C356 1.267 . S
C364 O365 1.160 . S
C364 O371 1.185 . S
O365 C364 1.160 . S
O366 Zn367 1.899 . S
O366 C374 1.284 . S
Zn367 O366 1.899 . S
Zn367 O368 2.032 . S
Zn367 O371 2.086 . S
Zn367 O376 1.977 . S
O368 Zn367 2.032 . S
O368 C372 1.278 . S
C369 O370 1.203 . S
C369 O376 1.267 . S
O370 C369 1.203 . S
O371 C364 1.185 . S
O371 Zn367 2.086 . S
C372 O368 1.278 . S
C372 O373 1.211 . S
O373 C372 1.211 . S
C374 O366 1.284 . S
C374 O375 1.273 . S
O375 C374 1.273 . S
O376 Zn367 1.977 . S
O376 C369 1.267 . S
C377 O378 1.160 . S
C377 O384 1.185 . S
O378 C377 1.160 . S
O379 Zn380 1.899 . S
O379 C387 1.284 . S
Zn380 O379 1.899 . S
Zn380 O381 2.032 . S
Zn380 O384 2.086 . S
Zn380 O389 1.977 . S
O381 Zn380 2.032 . S
O381 C385 1.278 . S
C382 O383 1.203 . S
C382 O389 1.267 . S
O383 C382 1.203 . S
O384 C377 1.185 . S
O384 Zn380 2.086 . S
C385 O381 1.278 . S
C385 O386 1.211 . S
O386 C385 1.211 . S
C387 O379 1.284 . S
C387 O388 1.273 . S
O388 C387 1.273 . S
O389 Zn380 1.977 . S
O389 C382 1.267 . S
C390 O391 1.160 . S
C390 O397 1.185 . S
O391 C390 1.160 . S
O392 Zn393 1.899 . S
O392 C400 1.284 . S
Zn393 O392 1.899 . S
Zn393 O394 2.032 . S
Zn393 O397 2.086 . S
Zn393 O402 1.977 . S
O394 Zn393 2.032 . S
O394 C398 1.278 . S
C395 O396 1.203 . S
C395 O402 1.267 . S
O396 C395 1.203 . S
O397 C390 1.185 . S
O397 Zn393 2.086 . S
C398 O394 1.278 . S
C398 O399 1.211 . S
O399 C398 1.211 . S
C400 O392 1.284 . S
C400 O401 1.273 . S
O401 C400 1.273 . S
O402 Zn393 1.977 . S
O402 C395 1.267 . S
C403 O404 1.160 . S
C403 O410 1.185 . S
O404 C403 1.160 . S
O405 Zn406 1.899 . S
O405 C413 1.284 . S
Zn406 O405 1.899 . S
Zn406 O407 2.032 . S
Zn406 O410 2.086 . S
Zn406 O415 1.977 . S
O407 Zn406 2.032 . S
O407 C411 1.278 . S
C408 O409 1.203 . S
C408 O415 1.267 . S
O409 C408 1.203 . S
O410 C403 1.185 . S
O410 Zn406 2.086 . S
C411 O407 1.278 . S
C411 O412 1.211 . S
O412 C411 1.211 . S
C413 O405 1.284 . S
C413 O414 1.273 . S
O414 C413 1.273 . S
O415 Zn406 1.977 . S
O415 C408 1.267 . S
C416 O417 1.160 . S
C416 O423 1.185 . S
O417 C416 1.160 . S
O418 Zn419 1.899 . S
O418 C426 1.284 . S
Zn419 O418 1.899 . S
Zn419 O420 2.032 . S
Zn419 O423 2.086 . S
Zn419 O428 1.977 . S
O420 Zn419 2.032 . S
O420 C424 1.278 . S
C421 O422 1.203 . S
C421 O428 1.267 . S
O422 C421 1.203 . S
O423 C416 1.185 . S
O423 Zn419 2.086 . S
C424 O420 1.278 . S
C424 O425 1.211 . S
O425 C424 1.211 . S
C426 O418 1.284 . S
C426 O427 1.273 . S
O427 C426 1.273 . S
O428 Zn419 1.977 . S
O428 C421 1.267 . S
C429 O430 1.160 . S
C429 O436 1.185 . S
O430 C429 1.160 . S
O431 Zn432 1.899 . S
O431 C439 1.284 . S
Zn432 O431 1.899 . S
Zn432 O433 2.032 . S
Zn432 O436 2.086 . S
Zn432 O441 1.977 . S
O433 Zn432 2.032 . S
O433 C437 1.278 . S
C434 O435 1.203 . S
C434 O441 1.267 . S
O435 C434 1.203 . S
O436 C429 1.185 . S
O436 Zn432 2.086 . S
C437 O433 1.278 . S
C437 O438 1.211 . S
O438 C437 1.211 . S
C439 O431 1.284 . S
C439 O440 1.273 . S
O440 C439 1.273 . S
O441 Zn432 1.977 . S
O441 C434 1.267 . S
C442 O443 1.160 . S
C442 O449 1.185 . S
O443 C442 1.160 . S
O444 Zn445 1.899 . S
O444 C452 1.284 . S
Zn445 O444 1.899 . S
Zn445 O446 2.032 . S
Zn445 O449 2.086 . S
Zn445 O454 1.977 . S
O446 Zn445 2.032 . S
O446 C450 1.278 . S
C447 O448 1.203 . S
C447 O454 1.267 . S
O448 C447 1.203 . S
O449 C442 1.185 . S
O449 Zn445 2.086 . S
C450 O446 1.278 . S
C450 O451 1.211 . S
O451 C450 1.211 . S
C452 O444 1.284 . S
C452 O453 1.273 . S
O453 C452 1.273 . S
O454 Zn445 1.977 . S
O454 C447 1.267 . S
C455 O456 1.160 . S
C455 O462 1.185 . S
O456 C455 1.160 . S
O457 Zn458 1.899 . S
O457 C465 1.284 . S
Zn458 O457 1.899 . S
Zn458 O459 2.032 . S
Zn458 O462 2.086 . S
Zn458 O467 1.977 . S
O459 Zn458 2.032 . S
O459 C463 1.278 . S
C460 O461 1.203 . S
C460 O467 1.267 . S
O461 C460 1.203 . S
O462 C455 1.185 . S
O462 Zn458 2.086 . S
C463 O459 1.278 . S
C463 O464 1.211 . S
O464 C463 1.211 . S
C465 O457 1.284 . S
C465 O466 1.273 . S
O466 C465 1.273 . S
O467 Zn458 1.977 . S
O467 C460 1.267 . S
C468 O469 1.160 . S
C468 O475 1.185 . S
O469 C468 1.160 . S
O470 Zn471 1.899 . S
O470 C478 1.284 . S
Zn471 O470 1.899 . S
Zn471 O472 2.032 . S
Zn471 O475 2.086 . S
Zn471 O480 1.977 . S
O472 Zn471 2.032 . S
O472 C476 1.278 . S
C473 O474 1.203 . S
C473 O480 1.267 . S
O474 C473 1.203 . S
O475 C468 1.185 . S
O475 Zn471 2.086 . S
C476 O472 1.278 . S
C476 O477 1.211 . S
O477 C476 1.211 . S
C478 O470 1.284 . S
C478 O479 1.273 . S
O479 C478 1.273 . S
O480 Zn471 1.977 . S
O480 C473 1.267 . S
C481 O482 1.160 . S
C481 O488 1.185 . S
O482 C481 1.160 . S
O483 Zn484 1.899 . S
O483 C491 1.284 . S
Zn484 O483 1.899 . S
Zn484 O485 2.032 . S
Zn484 O488 2.086 . S
Zn484 O493 1.977 . S
O485 Zn484 2.032 . S
O485 C489 1.278 . S
C486 O487 1.203 . S
C486 O493 1.267 . S
O487 C486 1.203 . S
O488 C481 1.185 . S
O488 Zn484 2.086 . S
C489 O485 1.278 . S
C489 O490 1.211 . S
O490 C489 1.211 . S
C491 O483 1.284 . S
C491 O492 1.273 . S
O492 C491 1.273 . S
O493 Zn484 1.977 . S
O493 C486 1.267 . S
C494 O495 1.160 . S
C494 O501 1.185 . S
O495 C494 1.160 . S
O496 Zn497 1.899 . S
O496 C504 1.284 . S
Zn497 O496 1.899 . S
Zn497 O498 2.032 . S
Zn497 O501 2.086 . S
Zn497 O506 1.977 . S
O498 Zn497 2.032 . S
O498 C502 1.278 . S
C499 O500 1.203 . S
C499 O506 1.267 . S
O500 C499 1.203 . S
O501 C494 1.185 . S
O501 Zn497 2.086 . S
C502 O498 1.278 . S
C502 O503 1.211 . S
O503 C502 1.211 . S
C504 O496 1.284 . S
C504 O505 1.273 . S
O505 C504 1.273 . S
O506 Zn497 1.977 . S
O506 C499 1.267 . S
C507 O508 1.160 . S
C507 O514 1.185 . S
O508 C507 1.160 . S
O509 Zn510 1.899 . S
O509 C517 1.284 . S
Zn510 O509 1.899 . S
Zn510 O511 2.032 . S
Zn510 O514 2.086 . S
Zn510 O519 1.977 . S
O511 Zn510 2.032 . S
O511 C515 1.278 . S
C512 O513 1.203 . S
C512 O519 1.267 . S
O513 C512 1.203 . S
O514 C507 1.185 . S
O514 Zn510 2.086 . S
C515 O511 1.278 . S
C515 O516 1.211 . S
O516 C515 1.211 . S
C517 O509 1.284 . S
C517 O518 1.273 . S
O518 C517 1.273 . S
O519 Zn510 1.977 . S
O519 C512 1.267 . S
C520 O521 1.160 . S
C520 O527 1.185 . S
O521 C520 1.160 . S
O522 Zn523 1.899 . S
O522 C530 1.284 . S
Zn523 O522 1.899 . S
Zn523 O524 2.032 . S
Zn523 O527 2.086 . S
Zn523 O532 1.977 . S
O524 Zn523 2.032 . S
O524 C528 1.278 . S
C525 O526 1.203 . S
C525 O532 1.267 . S
O526 C525 1.203 . S
O527 C520 1.185 . S
O527 Zn523 2.086 . S
C528 O524 1.278 . S
C528 O529 1.211 . S
O529 C528 1.211 . S
C530 O522 1.284 . S
C530 O531 1.273 . S
O531 C530 1.273 . S
O532 Zn523 1.977 . S
O532 C525 1.267 . S
C533 O534 1.160 . S
C533 O540 1.185 . S
O534 C533 1.160 . S
O535 Zn536 1.899 . S
O535 C543 1.284 . S
Zn536 O535 1.899 . S
Zn536 O537 2.032 . S
Zn536 O540 2.086 . S
Zn536 O545 1.977 . S
O537 Zn536 2.032 . S
O537 C541 1.278 . S
C538 O539 1.203 . S
C538 O545 1.267 . S
O539 C538 1.203 . S
O540 C533 1.185 . S
O540 Zn536 2.086 . S
C541 O537 1.278 . S
C541 O542 1.211 . S
O542 C541 1.211 . S
C543 O535 1.284 . S
C543 O544 1.273 . S
O544 C543 1.273 . S
O545 Zn536 1.977 . S
O545 C538 1.267 . S
C546 O547 1.160 . S
C546 O553 1.185 . S
O547 C546 1.160 . S
O548 Zn549 1.899 . S
O548 C556 1.284 . S
Zn549 O548 1.899 . S
Zn549 O550 2.032 . S
Zn549 O553 2.086 . S
Zn549 O558 1.977 . S
O550 Zn549 2.032 . S
O550 C554 1.278 . S
C551 O552 1.203 . S
C551 O558 1.267 . S
O552 C551 1.203 . S
O553 C546 1.185 . S
O553 Zn549 2.086 . S
C554 O550 1.278 . S
C554 O555 1.211 . S
O555 C554 1.211 . S
C556 O548 1.284 . S
C556 O557 1.273 . S
O557 C556 1.273 . S
O558 Zn549 1.977 . S
O558 C551 1.267 . S
C559 O560 1.160 . S
C559 O566 1.185 . S
O560 C559 1.160 . S
O561 Zn562 1.899 . S
O561 C569 1.284 . S
Zn562 O561 1.899 . S
Zn562 O563 2.032 . S
Zn562 O566 2.086 . S
Zn562 O571 1.977 . S
O563 Zn562 2.032 . S
O563 C567 1.278 . S
C564 O565 1.203 . S
C564 O571 1.267 . S
O565 C564 1.203 . S
O566 C559 1.185 . S
O566 Zn562 2.086 . S
C567 O563 1.278 . S
C567 O568 1.211 . S
O568 C567 1.211 . S
C569 O561 1.284 . S
C569 O570 1.273 . S
O570 C569 1.273 . S
O571 Zn562 1.977 . S
O571 C564 1.267 . S
C572 O573 1.160 . S
C572 O579 1.185 . S
O573 C572 1.160 . S
O574 Zn575 1.899 . S
O574 C582 1.284 . S
Zn575 O574 1.899 . S
Zn575 O576 2.032 . S
Zn575 O579 2.086 . S
Zn575 O584 1.977 . S
O576 Zn575 2.032 . S
O576 C580 1.278 . S
C577 O578 1.203 . S
C577 O584 1.267 . S
O578 C577 1.203 . S
O579 C572 1.185 . S
O579 Zn575 2.086 . S
C580 O576 1.278 . S
C580 O581 1.211 . S
O581 C580 1.211 . S
C582 O574 1.284 . S
C582 O583 1.273 . S
O583 C582 1.273 . S
O584 Zn575 1.977 . S
O584 C577 1.267 . S
C585 O586 1.160 . S
C585 O592 1.185 . S
O586 C585 1.160 . S
O587 Zn588 1.899 . S
O587 C595 1.284 . S
Zn588 O587 1.899 . S
Zn588 O589 2.032 . S
Zn588 O592 2.086 . S
Zn588 O597 1.977 . S
O589 Zn588 2.032 . S
O589 C593 1.278 . S
C590 O591 1.203 . S
C590 O597 1.267 . S
O591 C590 1.203 . S
O592 C585 1.185 . S
O592 Zn588 2.086 . S
C593 O589 1.278 . S
C593 O594 1.211 . S
O594 C593 1.211 . S
C595 O587 1.284 . S
C595 O596 1.273 . S
O596 C595 1.273 . S
O597 Zn588 1.977 . S
O597 C590 1.267 . S
C598 O599 1.160 . S
C598 O605 1.185 . S
O599 C598 1.160 . S
O600 Zn601 1.899 . S
O600 C608 1.284 . S
Zn601 O600 1.899 . S
Zn601 O602 2.032 . S
Zn601 O605 2.086 . S
Zn601 O610 1.977 . S
O602 Zn601 2.032 . S
O602 C606 1.278 . S
C603 O604 1.203 . S
C603 O610 1.267 . S
O604 C603 1.203 . S
O605 C598 1.185 . S
O605 Zn601 2.086 . S
C606 O602 1.278 . S
C606 O607 1.211 . S
O607 C606 1.211 . S
C608 O600 1.284 . S
C608 O609 1.273 . S
O609 C608 1.273 . S
O610 Zn601 1.977 . S
O610 C603 1.267 . S
C611 O612 1.160 . S
C611 O618 1.185 . S
O612 C611 1.160 . S
O613 Zn614 1.899 . S
O613 C621 1.284 . S
Zn614 O613 1.899 . S
Zn614 O615 2.032 . S
Zn614 O618 2.086 . S
Zn614 O623 1.977 . S
O615 Zn614 2.032 . S
O615 C619 1.278 . S
C616 O617 1.203 . S
C616 O623 1.267 . S
O617 C616 1.203 . S
O618 C611 1.185 . S
O618 Zn614 2.086 . S
C619 O615 1.278 . S
C619 O620 1.211 . S
O620 C619 1.211 . S
C621 O613 1.284 . S
C621 O622 1.273 . S
O622 C621 1.273 . S
O623 Zn614 1.977 . S
O623 C616 1.267 . S
H624 C632 0.929 . S
H625 C634 0.930 . S
H626 C636 0.930 . S
H627 C639 0.929 . S
H628 C642 0.930 . S
H629 C644 0.960 . S
H630 C644 0.960 . S
H631 C644 0.960 . S
C632 H624 0.929 . S
C632 C633 1.377 . S
C632 C634 1.384 . S
C633 C632 1.377 . S
C633 C639 1.390 . S
C634 H625 0.930 . S
C634 C632 1.384 . S
C634 C635 1.372 . S
C635 C634 1.372 . S
C635 C636 1.400 . S
C635 C640 1.490 . S
C636 H626 0.930 . S
C636 C635 1.400 . S
C636 C639 1.386 . S
H637 C653 0.930 . S
H638 C654 0.931 . S
C639 H627 0.929 . S
C639 C633 1.390 . S
C639 C636 1.386 . S
C640 C635 1.490 . S
C640 C642 1.395 . S
C640 C643 1.403 . S
H641 C647 0.930 . S
C642 H628 0.930 . S
C642 C640 1.395 . S
C642 C645 1.403 1_655 S
C643 C640 1.403 . S
C643 C644 1.524 . S
C643 C647 1.400 1_655 S
C644 H629 0.960 . S
C644 H630 0.960 . S
C644 H631 0.960 . S
C644 C643 1.524 . S
C645 C642 1.403 1_455 S
C645 C646 1.392 . S
C645 C649 1.495 . S
C646 C645 1.392 . S
C646 C647 1.385 . S
C646 C648 1.478 . S
C647 H641 0.930 . S
C647 C643 1.400 1_455 S
C647 C646 1.385 . S
C648 C646 1.478 . S
C648 C650 1.381 . S
C648 C654 1.383 . S
C649 C645 1.495 . S
C649 H655 0.959 . S
C649 H656 0.961 . S
C649 H657 0.960 . S
C650 C648 1.381 . S
C650 C651 1.394 . S
C650 H658 0.930 . S
C651 C650 1.394 . S
C651 C652 1.383 . S
C651 H659 0.929 . S
C652 C651 1.383 . S
C652 C653 1.377 . S
C653 H637 0.930 . S
C653 C652 1.377 . S
C653 C654 1.379 . S
C654 H638 0.931 . S
C654 C648 1.383 . S
C654 C653 1.379 . S
H655 C649 0.959 . S
H656 C649 0.961 . S
H657 C649 0.960 . S
H658 C650 0.930 . S
H659 C651 0.929 . S
H660 C668 0.929 . S
H661 C670 0.930 . S
H662 C672 0.930 . S
H663 C675 0.929 . S
H664 C678 0.930 . S
H665 C680 0.960 1_545 S
H666 C680 0.960 . S
H667 C680 0.960 . S
C668 H660 0.929 . S
C668 C669 1.377 . S
C668 C670 1.384 . S
C669 C668 1.377 . S
C669 C675 1.390 . S
C670 H661 0.930 . S
C670 C668 1.384 . S
C670 C671 1.372 . S
C671 C670 1.372 . S
C671 C672 1.400 . S
C671 C676 1.490 . S
C672 H662 0.930 . S
C672 C671 1.400 . S
C672 C675 1.386 . S
H673 C689 0.930 . S
H674 C690 0.931 . S
C675 H663 0.929 . S
C675 C669 1.390 . S
C675 C672 1.386 . S
C676 C671 1.490 . S
C676 C678 1.395 . S
C676 C679 1.403 . S
H677 C683 0.930 . S
C678 H664 0.930 . S
C678 C676 1.395 . S
C678 C681 1.422 . S
C679 C676 1.403 . S
C679 C680 1.524 . S
C679 C683 1.400 1_565 S
C680 H665 0.960 1_565 S
C680 H666 0.960 . S
C680 H667 0.960 . S
C680 C679 1.524 . S
C681 C678 1.422 . S
C681 C682 1.374 1_565 S
C681 C685 1.495 . S
C682 C681 1.374 1_545 S
C682 C683 1.385 . S
C682 C684 1.478 . S
C683 H677 0.930 . S
C683 C679 1.400 1_545 S
C683 C682 1.385 . S
C684 C682 1.478 . S
C684 C686 1.381 . S
C684 C690 1.383 . S
C685 C681 1.495 . S
C685 H691 0.972 . S
C685 H692 0.948 1_565 S
C685 H693 0.960 . S
C686 C684 1.381 . S
C686 C687 1.394 . S
C686 H694 0.930 . S
C687 C686 1.394 . S
C687 C688 1.383 . S
C687 H695 0.929 . S
C688 C687 1.383 . S
C688 C689 1.377 . S
C689 H673 0.930 . S
C689 C688 1.377 . S
C689 C690 1.379 . S
C690 H674 0.931 . S
C690 C684 1.383 . S
C690 C689 1.379 . S
H691 C685 0.972 . S
H692 C685 0.948 1_545 S
H693 C685 0.960 . S
H694 C686 0.930 . S
H695 C687 0.929 . S
H696 C704 0.929 . S
H697 C706 0.930 . S
H698 C708 0.930 . S
H699 C711 0.929 . S
H700 C714 0.930 . S
H701 C716 0.960 . S
H702 C716 0.960 . S
H703 C716 0.960 . S
C704 H696 0.929 . S
C704 C705 1.377 . S
C704 C706 1.384 . S
C705 C704 1.377 . S
C705 C711 1.390 . S
C706 H697 0.930 . S
C706 C704 1.384 . S
C706 C707 1.372 . S
C707 C706 1.372 . S
C707 C708 1.400 . S
C707 C712 1.490 . S
C708 H698 0.930 . S
C708 C707 1.400 . S
C708 C711 1.386 . S
H709 C725 0.930 . S
H710 C726 0.931 . S
C711 H699 0.929 . S
C711 C705 1.390 . S
C711 C708 1.386 . S
C712 C707 1.490 . S
C712 C714 1.395 . S
C712 C715 1.403 1_455 S
H713 C719 0.930 . S
C714 H700 0.930 . S
C714 C712 1.395 . S
C714 C717 1.403 . S
C715 C712 1.403 1_655 S
C715 C716 1.524 . S
C715 C719 1.400 . S
C716 H701 0.960 . S
C716 H702 0.960 . S
C716 H703 0.960 . S
C716 C715 1.524 . S
C717 C714 1.403 . S
C717 C718 1.392 1_455 S
C717 C721 1.495 . S
C718 C717 1.392 1_655 S
C718 C719 1.385 . S
C718 C720 1.478 . S
C719 H713 0.930 . S
C719 C715 1.400 . S
C719 C718 1.385 . S
C720 C718 1.478 . S
C720 C722 1.381 . S
C720 C726 1.383 . S
C721 C717 1.495 . S
C721 H727 0.959 . S
C721 H728 0.961 . S
C721 H729 0.960 . S
C722 C720 1.381 . S
C722 C723 1.394 . S
C722 H730 0.930 . S
C723 C722 1.394 . S
C723 C724 1.383 . S
C723 H731 0.929 . S
C724 C723 1.383 . S
C724 C725 1.377 . S
C725 H709 0.930 . S
C725 C724 1.377 . S
C725 C726 1.379 . S
C726 H710 0.931 . S
C726 C720 1.383 . S
C726 C725 1.379 . S
H727 C721 0.959 . S
H728 C721 0.961 . S
H729 C721 0.960 . S
H730 C722 0.930 . S
H731 C723 0.929 . S
H732 C740 0.929 . S
H733 C742 0.930 . S
H734 C744 0.930 . S
H735 C747 0.929 . S
H736 C750 0.930 . S
H737 C752 0.960 . S
H738 C752 0.960 . S
H739 C752 0.960 1_565 S
C740 H732 0.929 . S
C740 C741 1.377 . S
C740 C742 1.384 . S
C741 C740 1.377 . S
C741 C747 1.390 . S
C742 H733 0.930 . S
C742 C740 1.384 . S
C742 C743 1.372 . S
C743 C742 1.372 . S
C743 C744 1.400 . S
C743 C748 1.490 . S
C744 H734 0.930 . S
C744 C743 1.400 . S
C744 C747 1.386 . S
H745 C761 0.930 . S
H746 C762 0.931 . S
C747 H735 0.929 . S
C747 C741 1.390 . S
C747 C744 1.386 . S
C748 C743 1.490 . S
C748 C750 1.395 . S
C748 C751 1.396 . S
H749 C755 0.930 . S
C750 H736 0.930 . S
C750 C748 1.395 . S
C750 C753 1.427 . S
C751 C748 1.396 . S
C751 C752 1.524 1_565 S
C751 C755 1.406 1_565 S
C752 H737 0.960 . S
C752 H738 0.960 . S
C752 H739 0.960 1_545 S
C752 C751 1.524 1_545 S
C753 C750 1.427 . S
C753 C754 1.368 1_565 S
C753 C757 1.497 . S
C754 C753 1.368 1_545 S
C754 C755 1.385 . S
C754 C756 1.478 . S
C755 H749 0.930 . S
C755 C751 1.406 1_545 S
C755 C754 1.385 . S
C756 C754 1.478 . S
C756 C758 1.381 . S
C756 C762 1.383 . S
C757 C753 1.497 . S
C757 H763 0.959 . S
C757 H764 0.961 . S
C757 H765 0.960 1_565 S
C758 C756 1.381 . S
C758 C759 1.394 . S
C758 H766 0.930 . S
C759 C758 1.394 . S
C759 C760 1.383 . S
C759 H767 0.929 . S
C760 C759 1.383 . S
C760 C761 1.377 . S
C761 H745 0.930 . S
C761 C760 1.377 . S
C761 C762 1.379 . S
C762 H746 0.931 . S
C762 C756 1.383 . S
C762 C761 1.379 . S
H763 C757 0.959 . S
H764 C757 0.961 . S
H765 C757 0.960 1_545 S
H766 C758 0.930 . S
H767 C759 0.929 . S
H768 C776 0.929 . S
H769 C778 0.930 . S
H770 C780 0.930 . S
H771 C783 0.929 . S
H772 C786 0.930 . S
H773 C788 0.960 . S
H774 C788 0.960 . S
H775 C788 0.960 . S
C776 H768 0.929 . S
C776 C777 1.377 . S
C776 C778 1.384 . S
C777 C776 1.377 . S
C777 C783 1.390 . S
C778 H769 0.930 . S
C778 C776 1.384 . S
C778 C779 1.372 . S
C779 C778 1.372 . S
C779 C780 1.400 . S
C779 C784 1.490 . S
C780 H770 0.930 . S
C780 C779 1.400 . S
C780 C783 1.386 . S
H781 C797 0.930 . S
H782 C798 0.931 . S
C783 H771 0.929 . S
C783 C777 1.390 . S
C783 C780 1.386 . S
C784 C779 1.490 . S
C784 C786 1.395 . S
C784 C787 1.403 . S
H785 C791 0.930 . S
C786 H772 0.930 . S
C786 C784 1.395 . S
C786 C789 1.403 1_655 S
C787 C784 1.403 . S
C787 C788 1.524 . S
C787 C791 1.400 1_655 S
C788 H773 0.960 . S
C788 H774 0.960 . S
C788 H775 0.960 . S
C788 C787 1.524 . S
C789 C786 1.403 1_455 S
C789 C790 1.392 . S
C789 C793 1.495 . S
C790 C789 1.392 . S
C790 C791 1.385 . S
C790 C792 1.478 . S
C791 H785 0.930 . S
C791 C787 1.400 1_455 S
C791 C790 1.385 . S
C792 C790 1.478 . S
C792 C794 1.381 . S
C792 C798 1.383 . S
C793 C789 1.495 . S
C793 H799 0.959 . S
C793 H800 0.961 . S
C793 H801 0.960 . S
C794 C792 1.381 . S
C794 C795 1.394 . S
C794 H802 0.930 . S
C795 C794 1.394 . S
C795 C796 1.383 . S
C795 H803 0.929 . S
C796 C795 1.383 . S
C796 C797 1.377 . S
C797 H781 0.930 . S
C797 C796 1.377 . S
C797 C798 1.379 . S
C798 H782 0.931 . S
C798 C792 1.383 . S
C798 C797 1.379 . S
H799 C793 0.959 . S
H800 C793 0.961 . S
H801 C793 0.960 . S
H802 C794 0.930 . S
H803 C795 0.929 . S
H804 C812 0.929 . S
H805 C814 0.930 . S
H806 C816 0.930 . S
H807 C819 0.929 . S
H808 C822 0.930 . S
H809 C824 0.960 . S
H810 C824 0.960 . S
H811 C824 0.960 . S
C812 H804 0.929 . S
C812 C813 1.377 . S
C812 C814 1.384 . S
C813 C812 1.377 . S
C813 C819 1.390 . S
C814 H805 0.930 . S
C814 C812 1.384 . S
C814 C815 1.372 . S
C815 C814 1.372 . S
C815 C816 1.400 . S
C815 C820 1.490 . S
C816 H806 0.930 . S
C816 C815 1.400 . S
C816 C819 1.386 . S
H817 C833 0.930 . S
H818 C834 0.931 . S
C819 H807 0.929 . S
C819 C813 1.390 . S
C819 C816 1.386 . S
C820 C815 1.490 . S
C820 C822 1.395 . S
C820 C823 1.403 1_545 S
H821 C827 0.930 . S
C822 H808 0.930 . S
C822 C820 1.395 . S
C822 C825 1.403 . S
C823 C820 1.403 1_565 S
C823 C824 1.524 . S
C823 C827 1.400 . S
C824 H809 0.960 . S
C824 H810 0.960 . S
C824 H811 0.960 . S
C824 C823 1.524 . S
C825 C822 1.403 . S
C825 C826 1.392 1_545 S
C825 C829 1.495 . S
C826 C825 1.392 1_565 S
C826 C827 1.385 . S
C826 C828 1.478 . S
C827 H821 0.930 . S
C827 C823 1.400 . S
C827 C826 1.385 . S
C828 C826 1.478 . S
C828 C830 1.381 . S
C828 C834 1.383 . S
C829 C825 1.495 . S
C829 H835 0.959 . S
C829 H836 0.961 . S
C829 H837 0.960 . S
C830 C828 1.381 . S
C830 C831 1.394 . S
C830 H838 0.930 . S
C831 C830 1.394 . S
C831 C832 1.383 . S
C831 H839 0.929 . S
C832 C831 1.383 . S
C832 C833 1.377 . S
C833 H817 0.930 . S
C833 C832 1.377 . S
C833 C834 1.379 . S
C834 H818 0.931 . S
C834 C828 1.383 . S
C834 C833 1.379 . S
H835 C829 0.959 . S
H836 C829 0.961 . S
H837 C829 0.960 . S
H838 C830 0.930 . S
H839 C831 0.929 . S
H840 C848 0.929 . S
H841 C850 0.930 . S
H842 C852 0.930 . S
H843 C855 0.929 . S
H844 C858 0.930 . S
H845 C860 0.960 . S
H846 C860 0.960 . S
H847 C860 0.960 . S
C848 H840 0.929 . S
C848 C849 1.377 . S
C848 C850 1.384 . S
C849 C848 1.377 . S
C849 C855 1.390 . S
C850 H841 0.930 . S
C850 C848 1.384 . S
C850 C851 1.372 . S
C851 C850 1.372 . S
C851 C852 1.400 . S
C851 C856 1.490 . S
C852 H842 0.930 . S
C852 C851 1.400 . S
C852 C855 1.386 . S
H853 C869 0.930 . S
H854 C870 0.931 . S
C855 H843 0.929 . S
C855 C849 1.390 . S
C855 C852 1.386 . S
C856 C851 1.490 . S
C856 C858 1.395 1_455 S
C856 C859 1.403 . S
H857 C863 0.930 . S
C858 H844 0.930 . S
C858 C856 1.395 1_655 S
C858 C861 1.403 . S
C859 C856 1.403 . S
C859 C860 1.524 . S
C859 C863 1.362 1_455 S
C860 H845 0.960 . S
C860 H846 0.960 . S
C860 H847 0.960 . S
C860 C859 1.524 . S
C861 C858 1.403 . S
C861 C862 1.392 . S
C861 C865 1.495 . S
C862 C861 1.392 . S
C862 C863 1.424 . S
C862 C864 1.478 . S
C863 H857 0.930 . S
C863 C859 1.362 1_655 S
C863 C862 1.424 . S
C864 C862 1.478 . S
C864 C866 1.381 . S
C864 C870 1.383 . S
C865 C861 1.495 . S
C865 H871 0.959 . S
C865 H872 0.961 . S
C865 H873 0.960 . S
C866 C864 1.381 . S
C866 C867 1.394 . S
C866 H874 0.930 . S
C867 C866 1.394 . S
C867 C868 1.383 . S
C867 H875 0.929 . S
C868 C867 1.383 . S
C868 C869 1.377 . S
C869 H853 0.930 . S
C869 C868 1.377 . S
C869 C870 1.379 . S
C870 H854 0.931 . S
C870 C864 1.383 . S
C870 C869 1.379 . S
H871 C865 0.959 . S
H872 C865 0.961 . S
H873 C865 0.960 . S
H874 C866 0.930 . S
H875 C867 0.929 . S
H876 C884 0.929 . S
H877 C886 0.930 . S
H878 C888 0.930 . S
H879 C891 0.929 . S
H880 C894 0.930 . S
H881 C896 0.960 . S
H882 C896 0.960 . S
H883 C896 0.960 . S
C884 H876 0.929 . S
C884 C885 1.377 . S
C884 C886 1.384 . S
C885 C884 1.377 . S
C885 C891 1.390 . S
C886 H877 0.930 . S
C886 C884 1.384 . S
C886 C887 1.372 . S
C887 C886 1.372 . S
C887 C888 1.400 . S
C887 C892 1.490 . S
C888 H878 0.930 . S
C888 C887 1.400 . S
C888 C891 1.386 . S
H889 C905 0.930 . S
H890 C906 0.931 . S
C891 H879 0.929 . S
C891 C885 1.390 . S
C891 C888 1.386 . S
C892 C887 1.490 . S
C892 C894 1.395 . S
C892 C895 1.403 1_545 S
H893 C899 0.930 . S
C894 H880 0.930 . S
C894 C892 1.395 . S
C894 C897 1.403 . S
C895 C892 1.403 1_565 S
C895 C896 1.524 . S
C895 C899 1.400 . S
C896 H881 0.960 . S
C896 H882 0.960 . S
C896 H883 0.960 . S
C896 C895 1.524 . S
C897 C894 1.403 . S
C897 C898 1.392 1_545 S
C897 C901 1.495 . S
C898 C897 1.392 1_565 S
C898 C899 1.385 . S
C898 C900 1.478 . S
C899 H893 0.930 . S
C899 C895 1.400 . S
C899 C898 1.385 . S
C900 C898 1.478 . S
C900 C902 1.381 . S
C900 C906 1.383 . S
C901 C897 1.495 . S
C901 H907 0.959 . S
C901 H908 0.961 . S
C901 H909 0.960 . S
C902 C900 1.381 . S
C902 C903 1.394 . S
C902 H910 0.930 . S
C903 C902 1.394 . S
C903 C904 1.383 . S
C903 H911 0.929 . S
C904 C903 1.383 . S
C904 C905 1.377 . S
C905 H889 0.930 . S
C905 C904 1.377 . S
C905 C906 1.379 . S
C906 H890 0.931 . S
C906 C900 1.383 . S
C906 C905 1.379 . S
H907 C901 0.959 . S
H908 C901 0.961 . S
H909 C901 0.960 . S
H910 C902 0.930 . S
H911 C903 0.929 . S
H912 C920 0.929 . S
H913 C922 0.930 . S
H914 C924 0.930 . S
H915 C927 0.929 . S
H916 C930 0.930 . S
H917 C932 0.960 . S
H918 C932 0.960 . S
H919 C932 0.960 . S
C920 H912 0.929 . S
C920 C921 1.377 . S
C920 C922 1.384 . S
C921 C920 1.377 . S
C921 C927 1.390 . S
C922 H913 0.930 . S
C922 C920 1.384 . S
C922 C923 1.372 . S
C923 C922 1.372 . S
C923 C924 1.400 . S
C923 C928 1.490 . S
C924 H914 0.930 . S
C924 C923 1.400 . S
C924 C927 1.386 . S
H925 C941 0.930 . S
H926 C942 0.931 . S
C927 H915 0.929 . S
C927 C921 1.390 . S
C927 C924 1.386 . S
C928 C923 1.490 . S
C928 C930 1.395 . S
C928 C931 1.403 1_554 S
H929 C935 0.930 . S
C930 H916 0.930 . S
C930 C928 1.395 . S
C930 C933 1.403 . S
C931 C928 1.403 1_556 S
C931 C932 1.524 . S
C931 C935 1.400 . S
C932 H917 0.960 . S
C932 H918 0.960 . S
C932 H919 0.960 . S
C932 C931 1.524 . S
C933 C930 1.403 . S
C933 C934 1.392 1_554 S
C933 C937 1.495 . S
C934 C933 1.392 1_556 S
C934 C935 1.385 . S
C934 C936 1.478 . S
C935 H929 0.930 . S
C935 C931 1.400 . S
C935 C934 1.385 . S
C936 C934 1.478 . S
C936 C938 1.381 . S
C936 C942 1.383 . S
C937 C933 1.495 . S
C937 H943 0.959 . S
C937 H944 0.961 . S
C937 H945 0.960 . S
C938 C936 1.381 . S
C938 C939 1.394 . S
C938 H946 0.930 . S
C939 C938 1.394 . S
C939 C940 1.383 . S
C939 H947 0.929 . S
C940 C939 1.383 . S
C940 C941 1.377 . S
C941 H925 0.930 . S
C941 C940 1.377 . S
C941 C942 1.379 . S
C942 H926 0.931 . S
C942 C936 1.383 . S
C942 C941 1.379 . S
H943 C937 0.959 . S
H944 C937 0.961 . S
H945 C937 0.960 . S
H946 C938 0.930 . S
H947 C939 0.929 . S
H948 C956 0.929 . S
H949 C958 0.930 . S
H950 C960 0.930 . S
H951 C963 0.929 . S
H952 C966 0.930 . S
H953 C968 0.960 . S
H954 C968 0.960 . S
H955 C968 0.960 . S
C956 H948 0.929 . S
C956 C957 1.377 . S
C956 C958 1.384 . S
C957 C956 1.377 . S
C957 C963 1.390 . S
C958 H949 0.930 . S
C958 C956 1.384 . S
C958 C959 1.372 . S
C959 C958 1.372 . S
C959 C960 1.400 . S
C959 C964 1.490 . S
C960 H950 0.930 . S
C960 C959 1.400 . S
C960 C963 1.386 . S
H961 C977 0.930 . S
H962 C978 0.931 . S
C963 H951 0.929 . S
C963 C957 1.390 . S
C963 C960 1.386 . S
C964 C959 1.490 . S
C964 C966 1.395 1_556 S
C964 C967 1.403 . S
H965 C971 0.928 1_556 S
C966 H952 0.930 . S
C966 C964 1.395 1_554 S
C966 C969 1.403 . S
C967 C964 1.403 . S
C967 C968 1.524 . S
C967 C971 1.382 1_556 S
C968 H953 0.960 . S
C968 H954 0.960 . S
C968 H955 0.960 . S
C968 C967 1.524 . S
C969 C966 1.403 . S
C969 C970 1.392 . S
C969 C973 1.495 . S
C970 C969 1.392 . S
C970 C971 1.404 . S
C970 C972 1.478 . S
C971 H965 0.928 1_554 S
C971 C967 1.382 1_554 S
C971 C970 1.404 . S
C972 C970 1.478 . S
C972 C974 1.381 . S
C972 C978 1.383 . S
C973 C969 1.495 . S
C973 H979 0.959 . S
C973 H980 0.961 . S
C973 H981 0.960 . S
C974 C972 1.381 . S
C974 C975 1.394 . S
C974 H982 0.930 . S
C975 C974 1.394 . S
C975 C976 1.383 . S
C975 H983 0.929 . S
C976 C975 1.383 . S
C976 C977 1.377 . S
C977 H961 0.930 . S
C977 C976 1.377 . S
C977 C978 1.379 . S
C978 H962 0.931 . S
C978 C972 1.383 . S
C978 C977 1.379 . S
H979 C973 0.959 . S
H980 C973 0.961 . S
H981 C973 0.960 . S
H982 C974 0.930 . S
H983 C975 0.929 . S
H984 C992 0.929 . S
H985 C994 0.930 . S
H986 C996 0.930 . S
H987 C999 0.929 . S
H988 C1002 0.930 . S
H989 C1004 0.960 . S
H990 C1004 0.994 . S
H991 C1004 0.960 . S
C992 H984 0.929 . S
C992 C993 1.377 . S
C992 C994 1.384 . S
C993 C992 1.377 . S
C993 C999 1.390 . S
C994 H985 0.930 . S
C994 C992 1.384 . S
C994 C995 1.372 . S
C995 C994 1.372 . S
C995 C996 1.400 . S
C995 C1000 1.490 . S
C996 H986 0.930 . S
C996 C995 1.400 . S
C996 C999 1.386 . S
H997 C1013 0.930 . S
H998 C1014 0.931 . S
C999 H987 0.929 . S
C999 C993 1.390 . S
C999 C996 1.386 . S
C1000 C995 1.490 . S
C1000 C1002 1.395 . S
C1000 C1003 1.403 1_556 S
H1001 C1007 0.930 . S
C1002 H988 0.930 . S
C1002 C1000 1.395 . S
C1002 C1005 1.403 . S
C1003 C1000 1.403 1_554 S
C1003 C1004 1.524 . S
C1003 C1007 1.400 . S
C1004 H989 0.960 . S
C1004 H990 0.994 . S
C1004 H991 0.960 . S
C1004 C1003 1.524 . S
C1005 C1002 1.403 . S
C1005 C1006 1.392 1_556 S
C1005 C1009 1.495 . S
C1006 C1005 1.392 1_554 S
C1006 C1007 1.385 . S
C1006 C1008 1.478 . S
C1007 H1001 0.930 . S
C1007 C1003 1.400 . S
C1007 C1006 1.385 . S
C1008 C1006 1.478 . S
C1008 C1010 1.381 . S
C1008 C1014 1.383 . S
C1009 C1005 1.495 . S
C1009 H1015 0.959 . S
C1009 H1016 0.961 . S
C1009 H1017 0.960 . S
C1010 C1008 1.381 . S
C1010 C1011 1.394 . S
C1010 H1018 0.930 . S
C1011 C1010 1.394 . S
C1011 C1012 1.383 . S
C1011 H1019 0.929 . S
C1012 C1011 1.383 . S
C1012 C1013 1.377 . S
C1013 H997 0.930 . S
C1013 C1012 1.377 . S
C1013 C1014 1.379 . S
C1014 H998 0.931 . S
C1014 C1008 1.383 . S
C1014 C1013 1.379 . S
H1015 C1009 0.959 . S
H1016 C1009 0.961 . S
H1017 C1009 0.960 . S
H1018 C1010 0.930 . S
H1019 C1011 0.929 . S
H1020 C1028 0.929 . S
H1021 C1030 0.930 . S
H1022 C1032 0.930 . S
H1023 C1035 0.929 . S
H1024 C1038 0.928 1_556 S
H1025 C1040 0.960 . S
H1026 C1040 0.960 . S
H1027 C1040 0.960 . S
C1028 H1020 0.929 . S
C1028 C1029 1.377 . S
C1028 C1030 1.384 . S
C1029 C1028 1.377 . S
C1029 C1035 1.390 . S
C1030 H1021 0.930 . S
C1030 C1028 1.384 . S
C1030 C1031 1.372 . S
C1031 C1030 1.372 . S
C1031 C1032 1.400 . S
C1031 C1036 1.490 . S
C1032 H1022 0.930 . S
C1032 C1031 1.400 . S
C1032 C1035 1.386 . S
H1033 C1049 0.930 . S
H1034 C1050 0.931 . S
C1035 H1023 0.929 . S
C1035 C1029 1.390 . S
C1035 C1032 1.386 . S
C1036 C1031 1.490 . S
C1036 C1038 1.379 1_556 S
C1036 C1039 1.403 . S
H1037 C1043 0.930 . S
C1038 H1024 0.928 1_554 S
C1038 C1036 1.379 1_554 S
C1038 C1041 1.420 . S
C1039 C1036 1.403 . S
C1039 C1040 1.524 . S
C1039 C1043 1.400 1_556 S
C1040 H1025 0.960 . S
C1040 H1026 0.960 . S
C1040 H1027 0.960 . S
C1040 C1039 1.524 . S
C1041 C1038 1.420 . S
C1041 C1042 1.392 . S
C1041 C1045 1.495 . S
C1042 C1041 1.392 . S
C1042 C1043 1.385 . S
C1042 C1044 1.478 . S
C1043 H1037 0.930 . S
C1043 C1039 1.400 1_554 S
C1043 C1042 1.385 . S
C1044 C1042 1.478 . S
C1044 C1046 1.381 . S
C1044 C1050 1.383 . S
C1045 C1041 1.495 . S
C1045 H1051 0.959 . S
C1045 H1052 0.961 . S
C1045 H1053 0.960 . S
C1046 C1044 1.381 . S
C1046 C1047 1.394 . S
C1046 H1054 0.930 . S
C1047 C1046 1.394 . S
C1047 C1048 1.383 . S
C1047 H1055 0.929 . S
C1048 C1047 1.383 . S
C1048 C1049 1.377 . S
C1049 H1033 0.930 . S
C1049 C1048 1.377 . S
C1049 C1050 1.379 . S
C1050 H1034 0.931 . S
C1050 C1044 1.383 . S
C1050 C1049 1.379 . S
H1051 C1045 0.959 . S
H1052 C1045 0.961 . S
H1053 C1045 0.960 . S
H1054 C1046 0.930 . S
H1055 C1047 0.929 . S
H1056 C1064 0.929 . S
H1057 C1066 0.930 . S
H1058 C1068 0.930 . S
H1059 C1071 0.929 . S
H1060 C1074 0.930 . S
H1061 C1076 0.960 . S
H1062 C1076 0.960 . S
H1063 C1076 0.960 . S
C1064 H1056 0.929 . S
C1064 C1065 1.377 . S
C1064 C1066 1.384 . S
C1065 C1064 1.377 . S
C1065 C1071 1.390 . S
C1066 H1057 0.930 . S
C1066 C1064 1.384 . S
C1066 C1067 1.372 . S
C1067 C1066 1.372 . S
C1067 C1068 1.400 . S
C1067 C1072 1.490 . S
C1068 H1058 0.930 . S
C1068 C1067 1.400 . S
C1068 C1071 1.386 . S
H1069 C1085 0.930 . S
H1070 C1086 0.931 . S
C1071 H1059 0.929 . S
C1071 C1065 1.390 . S
C1071 C1068 1.386 . S
C1072 C1067 1.490 . S
C1072 C1074 1.395 . S
C1072 C1075 1.403 . S
H1073 C1079 0.930 . S
C1074 H1060 0.930 . S
C1074 C1072 1.395 . S
C1074 C1077 1.403 . S
C1075 C1072 1.403 . S
C1075 C1076 1.524 . S
C1075 C1079 1.400 . S
C1076 H1061 0.960 . S
C1076 H1062 0.960 . S
C1076 H1063 0.960 . S
C1076 C1075 1.524 . S
C1077 C1074 1.403 . S
C1077 C1078 1.392 . S
C1077 C1081 1.495 . S
C1078 C1077 1.392 . S
C1078 C1079 1.385 . S
C1078 C1080 1.478 . S
C1079 H1073 0.930 . S
C1079 C1075 1.400 . S
C1079 C1078 1.385 . S
C1080 C1078 1.478 . S
C1080 C1082 1.381 . S
C1080 C1086 1.383 . S
C1081 C1077 1.495 . S
C1081 H1087 0.959 . S
C1081 H1088 0.961 . S
C1081 H1089 0.960 . S
C1082 C1080 1.381 . S
C1082 C1083 1.394 . S
C1082 H1090 0.930 . S
C1083 C1082 1.394 . S
C1083 C1084 1.383 . S
C1083 H1091 0.929 . S
C1084 C1083 1.383 . S
C1084 C1085 1.377 . S
C1085 H1069 0.930 . S
C1085 C1084 1.377 . S
C1085 C1086 1.379 . S
C1086 H1070 0.931 . S
C1086 C1080 1.383 . S
C1086 C1085 1.379 . S
H1087 C1081 0.959 . S
H1088 C1081 0.961 . S
H1089 C1081 0.960 . S
H1090 C1082 0.930 . S
H1091 C1083 0.929 . S
H1092 C1100 0.929 . S
H1093 C1102 0.930 . S
H1094 C1104 0.930 . S
H1095 C1107 0.929 . S
H1096 C1110 0.930 . S
H1097 C1112 0.960 . S
H1098 C1112 0.960 . S
H1099 C1112 0.960 . S
C1100 H1092 0.929 . S
C1100 C1101 1.377 . S
C1100 C1102 1.384 . S
C1101 C1100 1.377 . S
C1101 C1107 1.390 . S
C1102 H1093 0.930 . S
C1102 C1100 1.384 . S
C1102 C1103 1.372 . S
C1103 C1102 1.372 . S
C1103 C1104 1.400 . S
C1103 C1108 1.490 . S
C1104 H1094 0.930 . S
C1104 C1103 1.400 . S
C1104 C1107 1.386 . S
H1105 C1121 0.930 . S
H1106 C1122 0.931 . S
C1107 H1095 0.929 . S
C1107 C1101 1.390 . S
C1107 C1104 1.386 . S
C1108 C1103 1.490 . S
C1108 C1110 1.395 . S
C1108 C1111 1.403 . S
H1109 C1115 0.930 . S
C1110 H1096 0.930 . S
C1110 C1108 1.395 . S
C1110 C1113 1.403 . S
C1111 C1108 1.403 . S
C1111 C1112 1.524 . S
C1111 C1115 1.400 . S
C1112 H1097 0.960 . S
C1112 H1098 0.960 . S
C1112 H1099 0.960 . S
C1112 C1111 1.524 . S
C1113 C1110 1.403 . S
C1113 C1114 1.392 . S
C1113 C1117 1.495 . S
C1114 C1113 1.392 . S
C1114 C1115 1.385 . S
C1114 C1116 1.478 . S
C1115 H1109 0.930 . S
C1115 C1111 1.400 . S
C1115 C1114 1.385 . S
C1116 C1114 1.478 . S
C1116 C1118 1.381 . S
C1116 C1122 1.383 . S
C1117 C1113 1.495 . S
C1117 H1123 0.959 . S
C1117 H1124 0.961 . S
C1117 H1125 0.960 . S
C1118 C1116 1.381 . S
C1118 C1119 1.394 . S
C1118 H1126 0.930 . S
C1119 C1118 1.394 . S
C1119 C1120 1.383 . S
C1119 H1127 0.929 . S
C1120 C1119 1.383 . S
C1120 C1121 1.377 . S
C1121 H1105 0.930 . S
C1121 C1120 1.377 . S
C1121 C1122 1.379 . S
C1122 H1106 0.931 . S
C1122 C1116 1.383 . S
C1122 C1121 1.379 . S
H1123 C1117 0.959 . S
H1124 C1117 0.961 . S
H1125 C1117 0.960 . S
H1126 C1118 0.930 . S
H1127 C1119 0.929 . S
H1128 C1136 0.929 . S
H1129 C1138 0.930 . S
H1130 C1140 0.930 . S
H1131 C1143 0.929 . S
H1132 C1146 0.930 . S
H1133 C1148 0.960 . S
H1134 C1148 0.960 . S
H1135 C1148 0.960 . S
C1136 H1128 0.929 . S
C1136 C1137 1.377 . S
C1136 C1138 1.384 . S
C1137 C1136 1.377 . S
C1137 C1143 1.390 . S
C1138 H1129 0.930 . S
C1138 C1136 1.384 . S
C1138 C1139 1.372 . S
C1139 C1138 1.372 . S
C1139 C1140 1.400 . S
C1139 C1144 1.490 . S
C1140 H1130 0.930 . S
C1140 C1139 1.400 . S
C1140 C1143 1.386 . S
H1141 C1157 0.930 . S
H1142 C1158 0.931 . S
C1143 H1131 0.929 . S
C1143 C1137 1.390 . S
C1143 C1140 1.386 . S
C1144 C1139 1.490 . S
C1144 C1146 1.395 . S
C1144 C1147 1.403 . S
H1145 C1151 0.930 . S
C1146 H1132 0.930 . S
C1146 C1144 1.395 . S
C1146 C1149 1.403 . S
C1147 C1144 1.403 . S
C1147 C1148 1.524 . S
C1147 C1151 1.400 . S
C1148 H1133 0.960 . S
C1148 H1134 0.960 . S
C1148 H1135 0.960 . S
C1148 C1147 1.524 . S
C1149 C1146 1.403 . S
C1149 C1150 1.392 . S
C1149 C1153 1.495 . S
C1150 C1149 1.392 . S
C1150 C1151 1.385 . S
C1150 C1152 1.478 . S
C1151 H1145 0.930 . S
C1151 C1147 1.400 . S
C1151 C1150 1.385 . S
C1152 C1150 1.478 . S
C1152 C1154 1.381 . S
C1152 C1158 1.383 . S
C1153 C1149 1.495 . S
C1153 H1159 0.959 . S
C1153 H1160 0.961 . S
C1153 H1161 0.960 . S
C1154 C1152 1.381 . S
C1154 C1155 1.394 . S
C1154 H1162 0.930 . S
C1155 C1154 1.394 . S
C1155 C1156 1.383 . S
C1155 H1163 0.929 . S
C1156 C1155 1.383 . S
C1156 C1157 1.377 . S
C1157 H1141 0.930 . S
C1157 C1156 1.377 . S
C1157 C1158 1.379 . S
C1158 H1142 0.931 . S
C1158 C1152 1.383 . S
C1158 C1157 1.379 . S
H1159 C1153 0.959 . S
H1160 C1153 0.961 . S
H1161 C1153 0.960 . S
H1162 C1154 0.930 . S
H1163 C1155 0.929 . S
H1164 C1172 0.929 . S
H1165 C1174 0.930 . S
H1166 C1176 0.930 . S
H1167 C1179 0.929 . S
H1168 C1182 0.930 . S
H1169 C1184 0.960 . S
H1170 C1184 0.960 . S
H1171 C1184 0.960 . S
C1172 H1164 0.929 . S
C1172 C1173 1.377 . S
C1172 C1174 1.384 . S
C1173 C1172 1.377 . S
C1173 C1179 1.390 . S
C1174 H1165 0.930 . S
C1174 C1172 1.384 . S
C1174 C1175 1.372 . S
C1175 C1174 1.372 . S
C1175 C1176 1.400 . S
C1175 C1180 1.490 . S
C1176 H1166 0.930 . S
C1176 C1175 1.400 . S
C1176 C1179 1.386 . S
H1177 C1193 0.930 . S
H1178 C1194 0.931 . S
C1179 H1167 0.929 . S
C1179 C1173 1.390 . S
C1179 C1176 1.386 . S
C1180 C1175 1.490 . S
C1180 C1182 1.395 . S
C1180 C1183 1.403 . S
H1181 C1187 0.930 . S
C1182 H1168 0.930 . S
C1182 C1180 1.395 . S
C1182 C1185 1.403 . S
C1183 C1180 1.403 . S
C1183 C1184 1.524 . S
C1183 C1187 1.400 . S
C1184 H1169 0.960 . S
C1184 H1170 0.960 . S
C1184 H1171 0.960 . S
C1184 C1183 1.524 . S
C1185 C1182 1.403 . S
C1185 C1186 1.392 . S
C1185 C1189 1.495 . S
C1186 C1185 1.392 . S
C1186 C1187 1.385 . S
C1186 C1188 1.478 . S
C1187 H1181 0.930 . S
C1187 C1183 1.400 . S
C1187 C1186 1.385 . S
C1188 C1186 1.478 . S
C1188 C1190 1.381 . S
C1188 C1194 1.383 . S
C1189 C1185 1.495 . S
C1189 H1195 0.959 . S
C1189 H1196 0.961 . S
C1189 H1197 0.960 . S
C1190 C1188 1.381 . S
C1190 C1191 1.394 . S
C1190 H1198 0.930 . S
C1191 C1190 1.394 . S
C1191 C1192 1.383 . S
C1191 H1199 0.929 . S
C1192 C1191 1.383 . S
C1192 C1193 1.377 . S
C1193 H1177 0.930 . S
C1193 C1192 1.377 . S
C1193 C1194 1.379 . S
C1194 H1178 0.931 . S
C1194 C1188 1.383 . S
C1194 C1193 1.379 . S
H1195 C1189 0.959 . S
H1196 C1189 0.961 . S
H1197 C1189 0.960 . S
H1198 C1190 0.930 . S
H1199 C1191 0.929 . S
H1200 C1208 0.929 . S
H1201 C1210 0.930 . S
H1202 C1212 0.930 . S
H1203 C1215 0.929 . S
H1204 C1218 0.930 . S
H1205 C1220 0.960 . S
H1206 C1220 0.960 . S
H1207 C1220 0.960 . S
C1208 H1200 0.929 . S
C1208 C1209 1.377 . S
C1208 C1210 1.384 . S
C1209 C1208 1.377 . S
C1209 C1215 1.390 . S
C1210 H1201 0.930 . S
C1210 C1208 1.384 . S
C1210 C1211 1.372 . S
C1211 C1210 1.372 . S
C1211 C1212 1.400 . S
C1211 C1216 1.490 . S
C1212 H1202 0.930 . S
C1212 C1211 1.400 . S
C1212 C1215 1.386 . S
H1213 C1229 0.930 . S
H1214 C1230 0.931 . S
C1215 H1203 0.929 . S
C1215 C1209 1.390 . S
C1215 C1212 1.386 . S
C1216 C1211 1.490 . S
C1216 C1218 1.395 . S
C1216 C1219 1.403 . S
H1217 C1223 0.930 . S
C1218 H1204 0.930 . S
C1218 C1216 1.395 . S
C1218 C1221 1.403 . S
C1219 C1216 1.403 . S
C1219 C1220 1.524 . S
C1219 C1223 1.400 . S
C1220 H1205 0.960 . S
C1220 H1206 0.960 . S
C1220 H1207 0.960 . S
C1220 C1219 1.524 . S
C1221 C1218 1.403 . S
C1221 C1222 1.392 . S
C1221 C1225 1.495 . S
C1222 C1221 1.392 . S
C1222 C1223 1.385 . S
C1222 C1224 1.478 . S
C1223 H1217 0.930 . S
C1223 C1219 1.400 . S
C1223 C1222 1.385 . S
C1224 C1222 1.478 . S
C1224 C1226 1.381 . S
C1224 C1230 1.383 . S
C1225 C1221 1.495 . S
C1225 H1231 0.959 . S
C1225 H1232 0.961 . S
C1225 H1233 0.960 . S
C1226 C1224 1.381 . S
C1226 C1227 1.394 . S
C1226 H1234 0.930 . S
C1227 C1226 1.394 . S
C1227 C1228 1.383 . S
C1227 H1235 0.929 . S
C1228 C1227 1.383 . S
C1228 C1229 1.377 . S
C1229 H1213 0.930 . S
C1229 C1228 1.377 . S
C1229 C1230 1.379 . S
C1230 H1214 0.931 . S
C1230 C1224 1.383 . S
C1230 C1229 1.379 . S
H1231 C1225 0.959 . S
H1232 C1225 0.961 . S
H1233 C1225 0.960 . S
H1234 C1226 0.930 . S
H1235 C1227 0.929 . S
H1236 C1244 0.929 . S
H1237 C1246 0.930 . S
H1238 C1248 0.930 . S
H1239 C1251 0.929 . S
H1240 C1254 0.930 . S
H1241 C1256 0.960 . S
H1242 C1256 0.960 . S
H1243 C1256 0.960 . S
C1244 H1236 0.929 . S
C1244 C1245 1.377 . S
C1244 C1246 1.384 . S
C1245 C1244 1.377 . S
C1245 C1251 1.390 . S
C1246 H1237 0.930 . S
C1246 C1244 1.384 . S
C1246 C1247 1.372 . S
C1247 C1246 1.372 . S
C1247 C1248 1.400 . S
C1247 C1252 1.490 . S
C1248 H1238 0.930 . S
C1248 C1247 1.400 . S
C1248 C1251 1.386 . S
H1249 C1265 0.930 . S
H1250 C1266 0.931 . S
C1251 H1239 0.929 . S
C1251 C1245 1.390 . S
C1251 C1248 1.386 . S
C1252 C1247 1.490 . S
C1252 C1254 1.395 . S
C1252 C1255 1.403 . S
H1253 C1259 0.930 . S
C1254 H1240 0.930 . S
C1254 C1252 1.395 . S
C1254 C1257 1.403 . S
C1255 C1252 1.403 . S
C1255 C1256 1.524 . S
C1255 C1259 1.400 . S
C1256 H1241 0.960 . S
C1256 H1242 0.960 . S
C1256 H1243 0.960 . S
C1256 C1255 1.524 . S
C1257 C1254 1.403 . S
C1257 C1258 1.392 . S
C1257 C1261 1.495 . S
C1258 C1257 1.392 . S
C1258 C1259 1.385 . S
C1258 C1260 1.478 . S
C1259 H1253 0.930 . S
C1259 C1255 1.400 . S
C1259 C1258 1.385 . S
C1260 C1258 1.478 . S
C1260 C1262 1.381 . S
C1260 C1266 1.383 . S
C1261 C1257 1.495 . S
C1261 H1267 0.959 . S
C1261 H1268 0.961 . S
C1261 H1269 0.960 . S
C1262 C1260 1.381 . S
C1262 C1263 1.394 . S
C1262 H1270 0.930 . S
C1263 C1262 1.394 . S
C1263 C1264 1.383 . S
C1263 H1271 0.929 . S
C1264 C1263 1.383 . S
C1264 C1265 1.377 . S
C1265 H1249 0.930 . S
C1265 C1264 1.377 . S
C1265 C1266 1.379 . S
C1266 H1250 0.931 . S
C1266 C1260 1.383 . S
C1266 C1265 1.379 . S
H1267 C1261 0.959 . S
H1268 C1261 0.961 . S
H1269 C1261 0.960 . S
H1270 C1262 0.930 . S
H1271 C1263 0.929 . S
H1272 C1280 0.929 . S
H1273 C1282 0.930 . S
H1274 C1284 0.930 . S
H1275 C1287 0.929 . S
H1276 C1290 0.930 . S
H1277 C1292 0.960 . S
H1278 C1292 0.960 . S
H1279 C1292 0.960 . S
C1280 H1272 0.929 . S
C1280 C1281 1.377 . S
C1280 C1282 1.384 . S
C1281 C1280 1.377 . S
C1281 C1287 1.390 . S
C1282 H1273 0.930 . S
C1282 C1280 1.384 . S
C1282 C1283 1.372 . S
C1283 C1282 1.372 . S
C1283 C1284 1.400 . S
C1283 C1288 1.490 . S
C1284 H1274 0.930 . S
C1284 C1283 1.400 . S
C1284 C1287 1.386 . S
H1285 C1301 0.930 . S
H1286 C1302 0.931 . S
C1287 H1275 0.929 . S
C1287 C1281 1.390 . S
C1287 C1284 1.386 . S
C1288 C1283 1.490 . S
C1288 C1290 1.395 . S
C1288 C1291 1.403 . S
H1289 C1295 0.930 . S
C1290 H1276 0.930 . S
C1290 C1288 1.395 . S
C1290 C1293 1.403 . S
C1291 C1288 1.403 . S
C1291 C1292 1.524 . S
C1291 C1295 1.400 . S
C1292 H1277 0.960 . S
C1292 H1278 0.960 . S
C1292 H1279 0.960 . S
C1292 C1291 1.524 . S
C1293 C1290 1.403 . S
C1293 C1294 1.392 . S
C1293 C1297 1.495 . S
C1294 C1293 1.392 . S
C1294 C1295 1.385 . S
C1294 C1296 1.478 . S
C1295 H1289 0.930 . S
C1295 C1291 1.400 . S
C1295 C1294 1.385 . S
C1296 C1294 1.478 . S
C1296 C1298 1.381 . S
C1296 C1302 1.383 . S
C1297 C1293 1.495 . S
C1297 H1303 0.959 . S
C1297 H1304 0.961 . S
C1297 H1305 0.960 . S
C1298 C1296 1.381 . S
C1298 C1299 1.394 . S
C1298 H1306 0.930 . S
C1299 C1298 1.394 . S
C1299 C1300 1.383 . S
C1299 H1307 0.929 . S
C1300 C1299 1.383 . S
C1300 C1301 1.377 . S
C1301 H1285 0.930 . S
C1301 C1300 1.377 . S
C1301 C1302 1.379 . S
C1302 H1286 0.931 . S
C1302 C1296 1.383 . S
C1302 C1301 1.379 . S
H1303 C1297 0.959 . S
H1304 C1297 0.961 . S
H1305 C1297 0.960 . S
H1306 C1298 0.930 . S
H1307 C1299 0.929 . S
H1308 C1316 0.929 . S
H1309 C1318 0.930 . S
H1310 C1320 0.930 . S
H1311 C1323 0.929 . S
H1312 C1326 0.930 . S
H1313 C1328 0.960 . S
H1314 C1328 0.960 . S
H1315 C1328 0.960 . S
C1316 H1308 0.929 . S
C1316 C1317 1.377 . S
C1316 C1318 1.384 . S
C1317 C1316 1.377 . S
C1317 C1323 1.390 . S
C1318 H1309 0.930 . S
C1318 C1316 1.384 . S
C1318 C1319 1.372 . S
C1319 C1318 1.372 . S
C1319 C1320 1.400 . S
C1319 C1324 1.490 . S
C1320 H1310 0.930 . S
C1320 C1319 1.400 . S
C1320 C1323 1.386 . S
H1321 C1337 0.930 . S
H1322 C1338 0.931 . S
C1323 H1311 0.929 . S
C1323 C1317 1.390 . S
C1323 C1320 1.386 . S
C1324 C1319 1.490 . S
C1324 C1326 1.395 . S
C1324 C1327 1.403 . S
H1325 C1331 0.930 . S
C1326 H1312 0.930 . S
C1326 C1324 1.395 . S
C1326 C1329 1.403 . S
C1327 C1324 1.403 . S
C1327 C1328 1.524 . S
C1327 C1331 1.400 . S
C1328 H1313 0.960 . S
C1328 H1314 0.960 . S
C1328 H1315 0.960 . S
C1328 C1327 1.524 . S
C1329 C1326 1.403 . S
C1329 C1330 1.392 . S
C1329 C1333 1.495 . S
C1330 C1329 1.392 . S
C1330 C1331 1.385 . S
C1330 C1332 1.478 . S
C1331 H1325 0.930 . S
C1331 C1327 1.400 . S
C1331 C1330 1.385 . S
C1332 C1330 1.478 . S
C1332 C1334 1.381 . S
C1332 C1338 1.383 . S
C1333 C1329 1.495 . S
C1333 H1339 0.959 . S
C1333 H1340 0.961 . S
C1333 H1341 0.960 . S
C1334 C1332 1.381 . S
C1334 C1335 1.394 . S
C1334 H1342 0.930 . S
C1335 C1334 1.394 . S
C1335 C1336 1.383 . S
C1335 H1343 0.929 . S
C1336 C1335 1.383 . S
C1336 C1337 1.377 . S
C1337 H1321 0.930 . S
C1337 C1336 1.377 . S
C1337 C1338 1.379 . S
C1338 H1322 0.931 . S
C1338 C1332 1.383 . S
C1338 C1337 1.379 . S
H1339 C1333 0.959 . S
H1340 C1333 0.961 . S
H1341 C1333 0.960 . S
H1342 C1334 0.930 . S
H1343 C1335 0.929 . S
H1344 C1352 0.929 . S
H1345 C1354 0.930 . S
H1346 C1356 0.930 . S
H1347 C1359 0.929 . S
H1348 C1362 0.930 . S
H1349 C1364 0.960 . S
H1350 C1364 0.960 . S
H1351 C1364 0.960 . S
C1352 H1344 0.929 . S
C1352 C1353 1.377 . S
C1352 C1354 1.384 . S
C1353 C1352 1.377 . S
C1353 C1359 1.390 . S
C1354 H1345 0.930 . S
C1354 C1352 1.384 . S
C1354 C1355 1.372 . S
C1355 C1354 1.372 . S
C1355 C1356 1.400 . S
C1355 C1360 1.490 . S
C1356 H1346 0.930 . S
C1356 C1355 1.400 . S
C1356 C1359 1.386 . S
H1357 C1373 0.930 . S
H1358 C1374 0.931 . S
C1359 H1347 0.929 . S
C1359 C1353 1.390 . S
C1359 C1356 1.386 . S
C1360 C1355 1.490 . S
C1360 C1362 1.395 . S
C1360 C1363 1.403 . S
H1361 C1367 0.930 . S
C1362 H1348 0.930 . S
C1362 C1360 1.395 . S
C1362 C1365 1.403 . S
C1363 C1360 1.403 . S
C1363 C1364 1.524 . S
C1363 C1367 1.400 . S
C1364 H1349 0.960 . S
C1364 H1350 0.960 . S
C1364 H1351 0.960 . S
C1364 C1363 1.524 . S
C1365 C1362 1.403 . S
C1365 C1366 1.392 . S
C1365 C1369 1.495 . S
C1366 C1365 1.392 . S
C1366 C1367 1.385 . S
C1366 C1368 1.478 . S
C1367 H1361 0.930 . S
C1367 C1363 1.400 . S
C1367 C1366 1.385 . S
C1368 C1366 1.478 . S
C1368 C1370 1.381 . S
C1368 C1374 1.383 . S
C1369 C1365 1.495 . S
C1369 H1375 0.959 . S
C1369 H1376 0.961 . S
C1369 H1377 0.960 . S
C1370 C1368 1.381 . S
C1370 C1371 1.394 . S
C1370 H1378 0.930 . S
C1371 C1370 1.394 . S
C1371 C1372 1.383 . S
C1371 H1379 0.929 . S
C1372 C1371 1.383 . S
C1372 C1373 1.377 . S
C1373 H1357 0.930 . S
C1373 C1372 1.377 . S
C1373 C1374 1.379 . S
C1374 H1358 0.931 . S
C1374 C1368 1.383 . S
C1374 C1373 1.379 . S
H1375 C1369 0.959 . S
H1376 C1369 0.961 . S
H1377 C1369 0.960 . S
H1378 C1370 0.930 . S
H1379 C1371 0.929 . S
H1380 C1388 0.929 . S
H1381 C1390 0.930 . S
H1382 C1392 0.930 . S
H1383 C1395 0.929 . S
H1384 C1398 0.930 . S
H1385 C1400 0.960 . S
H1386 C1400 0.960 . S
H1387 C1400 0.960 . S
C1388 H1380 0.929 . S
C1388 C1389 1.377 . S
C1388 C1390 1.384 . S
C1389 C1388 1.377 . S
C1389 C1395 1.390 . S
C1390 H1381 0.930 . S
C1390 C1388 1.384 . S
C1390 C1391 1.372 . S
C1391 C1390 1.372 . S
C1391 C1392 1.400 . S
C1391 C1396 1.490 . S
C1392 H1382 0.930 . S
C1392 C1391 1.400 . S
C1392 C1395 1.386 . S
H1393 C1409 0.930 . S
H1394 C1410 0.931 . S
C1395 H1383 0.929 . S
C1395 C1389 1.390 . S
C1395 C1392 1.386 . S
C1396 C1391 1.490 . S
C1396 C1398 1.395 . S
C1396 C1399 1.403 . S
H1397 C1403 0.930 . S
C1398 H1384 0.930 . S
C1398 C1396 1.395 . S
C1398 C1401 1.403 . S
C1399 C1396 1.403 . S
C1399 C1400 1.524 . S
C1399 C1403 1.400 . S
C1400 H1385 0.960 . S
C1400 H1386 0.960 . S
C1400 H1387 0.960 . S
C1400 C1399 1.524 . S
C1401 C1398 1.403 . S
C1401 C1402 1.392 . S
C1401 C1405 1.495 . S
C1402 C1401 1.392 . S
C1402 C1403 1.385 . S
C1402 C1404 1.478 . S
C1403 H1397 0.930 . S
C1403 C1399 1.400 . S
C1403 C1402 1.385 . S
C1404 C1402 1.478 . S
C1404 C1406 1.381 . S
C1404 C1410 1.383 . S
C1405 C1401 1.495 . S
C1405 H1411 0.959 . S
C1405 H1412 0.961 . S
C1405 H1413 0.960 . S
C1406 C1404 1.381 . S
C1406 C1407 1.394 . S
C1406 H1414 0.930 . S
C1407 C1406 1.394 . S
C1407 C1408 1.383 . S
C1407 H1415 0.929 . S
C1408 C1407 1.383 . S
C1408 C1409 1.377 . S
C1409 H1393 0.930 . S
C1409 C1408 1.377 . S
C1409 C1410 1.379 . S
C1410 H1394 0.931 . S
C1410 C1404 1.383 . S
C1410 C1409 1.379 . S
H1411 C1405 0.959 . S
H1412 C1405 0.961 . S
H1413 C1405 0.960 . S
H1414 C1406 0.930 . S
H1415 C1407 0.929 . S
H1416 C1424 0.929 . S
H1417 C1426 0.930 . S
H1418 C1428 0.930 . S
H1419 C1431 0.929 . S
H1420 C1434 0.930 . S
H1421 C1436 0.960 . S
H1422 C1436 0.960 . S
H1423 C1436 0.960 . S
C1424 H1416 0.929 . S
C1424 C1425 1.377 . S
C1424 C1426 1.384 . S
C1425 C1424 1.377 . S
C1425 C1431 1.390 . S
C1426 H1417 0.930 . S
C1426 C1424 1.384 . S
C1426 C1427 1.372 . S
C1427 C1426 1.372 . S
C1427 C1428 1.400 . S
C1427 C1432 1.490 . S
C1428 H1418 0.930 . S
C1428 C1427 1.400 . S
C1428 C1431 1.386 . S
H1429 C1445 0.930 . S
H1430 C1446 0.931 . S
C1431 H1419 0.929 . S
C1431 C1425 1.390 . S
C1431 C1428 1.386 . S
C1432 C1427 1.490 . S
C1432 C1434 1.395 . S
C1432 C1435 1.403 . S
H1433 C1439 0.930 . S
C1434 H1420 0.930 . S
C1434 C1432 1.395 . S
C1434 C1437 1.403 . S
C1435 C1432 1.403 . S
C1435 C1436 1.524 . S
C1435 C1439 1.400 . S
C1436 H1421 0.960 . S
C1436 H1422 0.960 . S
C1436 H1423 0.960 . S
C1436 C1435 1.524 . S
C1437 C1434 1.403 . S
C1437 C1438 1.392 . S
C1437 C1441 1.495 . S
C1438 C1437 1.392 . S
C1438 C1439 1.385 . S
C1438 C1440 1.478 . S
C1439 H1433 0.930 . S
C1439 C1435 1.400 . S
C1439 C1438 1.385 . S
C1440 C1438 1.478 . S
C1440 C1442 1.381 . S
C1440 C1446 1.383 . S
C1441 C1437 1.495 . S
C1441 H1447 0.959 . S
C1441 H1448 0.961 . S
C1441 H1449 0.960 . S
C1442 C1440 1.381 . S
C1442 C1443 1.394 . S
C1442 H1450 0.930 . S
C1443 C1442 1.394 . S
C1443 C1444 1.383 . S
C1443 H1451 0.929 . S
C1444 C1443 1.383 . S
C1444 C1445 1.377 . S
C1445 H1429 0.930 . S
C1445 C1444 1.377 . S
C1445 C1446 1.379 . S
C1446 H1430 0.931 . S
C1446 C1440 1.383 . S
C1446 C1445 1.379 . S
H1447 C1441 0.959 . S
H1448 C1441 0.961 . S
H1449 C1441 0.960 . S
H1450 C1442 0.930 . S
H1451 C1443 0.929 . S
H1452 C1460 0.929 . S
H1453 C1462 0.930 . S
H1454 C1464 0.930 . S
H1455 C1467 0.929 . S
H1456 C1470 0.930 . S
H1457 C1472 0.960 . S
H1458 C1472 0.960 . S
H1459 C1472 0.960 . S
C1460 H1452 0.929 . S
C1460 C1461 1.377 . S
C1460 C1462 1.384 . S
C1461 C1460 1.377 . S
C1461 C1467 1.390 . S
C1462 H1453 0.930 . S
C1462 C1460 1.384 . S
C1462 C1463 1.372 . S
C1463 C1462 1.372 . S
C1463 C1464 1.400 . S
C1463 C1468 1.490 . S
C1464 H1454 0.930 . S
C1464 C1463 1.400 . S
C1464 C1467 1.386 . S
H1465 C1481 0.930 . S
H1466 C1482 0.931 . S
C1467 H1455 0.929 . S
C1467 C1461 1.390 . S
C1467 C1464 1.386 . S
C1468 C1463 1.490 . S
C1468 C1470 1.395 . S
C1468 C1471 1.403 . S
H1469 C1475 0.930 . S
C1470 H1456 0.930 . S
C1470 C1468 1.395 . S
C1470 C1473 1.403 . S
C1471 C1468 1.403 . S
C1471 C1472 1.524 . S
C1471 C1475 1.400 . S
C1472 H1457 0.960 . S
C1472 H1458 0.960 . S
C1472 H1459 0.960 . S
C1472 C1471 1.524 . S
C1473 C1470 1.403 . S
C1473 C1474 1.392 . S
C1473 C1477 1.495 . S
C1474 C1473 1.392 . S
C1474 C1475 1.385 . S
C1474 C1476 1.478 . S
C1475 H1469 0.930 . S
C1475 C1471 1.400 . S
C1475 C1474 1.385 . S
C1476 C1474 1.478 . S
C1476 C1478 1.381 . S
C1476 C1482 1.383 . S
C1477 C1473 1.495 . S
C1477 H1483 0.959 . S
C1477 H1484 0.961 . S
C1477 H1485 0.960 . S
C1478 C1476 1.381 . S
C1478 C1479 1.394 . S
C1478 H1486 0.930 . S
C1479 C1478 1.394 . S
C1479 C1480 1.383 . S
C1479 H1487 0.929 . S
C1480 C1479 1.383 . S
C1480 C1481 1.377 . S
C1481 H1465 0.930 . S
C1481 C1480 1.377 . S
C1481 C1482 1.379 . S
C1482 H1466 0.931 . S
C1482 C1476 1.383 . S
C1482 C1481 1.379 . S
H1483 C1477 0.959 . S
H1484 C1477 0.961 . S
H1485 C1477 0.960 . S
H1486 C1478 0.930 . S
H1487 C1479 0.929 . S
H1488 C1496 0.929 . S
H1489 C1498 0.930 . S
H1490 C1500 0.930 . S
H1491 C1503 0.929 . S
H1492 C1506 0.930 . S
H1493 C1508 0.960 . S
H1494 C1508 0.960 . S
H1495 C1508 0.960 . S
C1496 H1488 0.929 . S
C1496 C1497 1.377 . S
C1496 C1498 1.384 . S
C1497 C1496 1.377 . S
C1497 C1503 1.390 . S
C1498 H1489 0.930 . S
C1498 C1496 1.384 . S
C1498 C1499 1.372 . S
C1499 C1498 1.372 . S
C1499 C1500 1.400 . S
C1499 C1504 1.490 . S
C1500 H1490 0.930 . S
C1500 C1499 1.400 . S
C1500 C1503 1.386 . S
H1501 C1517 0.930 . S
H1502 C1518 0.931 . S
C1503 H1491 0.929 . S
C1503 C1497 1.390 . S
C1503 C1500 1.386 . S
C1504 C1499 1.490 . S
C1504 C1506 1.395 . S
C1504 C1507 1.403 . S
H1505 C1511 0.930 . S
C1506 H1492 0.930 . S
C1506 C1504 1.395 . S
C1506 C1509 1.403 . S
C1507 C1504 1.403 . S
C1507 C1508 1.524 . S
C1507 C1511 1.400 . S
C1508 H1493 0.960 . S
C1508 H1494 0.960 . S
C1508 H1495 0.960 . S
C1508 C1507 1.524 . S
C1509 C1506 1.403 . S
C1509 C1510 1.392 . S
C1509 C1513 1.495 . S
C1510 C1509 1.392 . S
C1510 C1511 1.385 . S
C1510 C1512 1.478 . S
C1511 H1505 0.930 . S
C1511 C1507 1.400 . S
C1511 C1510 1.385 . S
C1512 C1510 1.478 . S
C1512 C1514 1.381 . S
C1512 C1518 1.383 . S
C1513 C1509 1.495 . S
C1513 H1519 0.959 . S
C1513 H1520 0.961 . S
C1513 H1521 0.960 . S
C1514 C1512 1.381 . S
C1514 C1515 1.394 . S
C1514 H1522 0.930 . S
C1515 C1514 1.394 . S
C1515 C1516 1.383 . S
C1515 H1523 0.929 . S
C1516 C1515 1.383 . S
C1516 C1517 1.377 . S
C1517 H1501 0.930 . S
C1517 C1516 1.377 . S
C1517 C1518 1.379 . S
C1518 H1502 0.931 . S
C1518 C1512 1.383 . S
C1518 C1517 1.379 . S
H1519 C1513 0.959 . S
H1520 C1513 0.961 . S
H1521 C1513 0.960 . S
H1522 C1514 0.930 . S
H1523 C1515 0.929 . S
H1524 C1532 0.929 . S
H1525 C1534 0.930 . S
H1526 C1536 0.930 . S
H1527 C1539 0.929 . S
H1528 C1542 0.930 . S
H1529 C1544 0.960 . S
H1530 C1544 0.960 . S
H1531 C1544 0.960 . S
C1532 H1524 0.929 . S
C1532 C1533 1.377 . S
C1532 C1534 1.384 . S
C1533 C1532 1.377 . S
C1533 C1539 1.390 . S
C1534 H1525 0.930 . S
C1534 C1532 1.384 . S
C1534 C1535 1.372 . S
C1535 C1534 1.372 . S
C1535 C1536 1.400 . S
C1535 C1540 1.490 . S
C1536 H1526 0.930 . S
C1536 C1535 1.400 . S
C1536 C1539 1.386 . S
H1537 C1553 0.930 . S
H1538 C1554 0.931 . S
C1539 H1527 0.929 . S
C1539 C1533 1.390 . S
C1539 C1536 1.386 . S
C1540 C1535 1.490 . S
C1540 C1542 1.395 . S
C1540 C1543 1.403 . S
H1541 C1547 0.930 . S
C1542 H1528 0.930 . S
C1542 C1540 1.395 . S
C1542 C1545 1.403 . S
C1543 C1540 1.403 . S
C1543 C1544 1.524 . S
C1543 C1547 1.400 . S
C1544 H1529 0.960 . S
C1544 H1530 0.960 . S
C1544 H1531 0.960 . S
C1544 C1543 1.524 . S
C1545 C1542 1.403 . S
C1545 C1546 1.392 . S
C1545 C1549 1.495 . S
C1546 C1545 1.392 . S
C1546 C1547 1.385 . S
C1546 C1548 1.478 . S
C1547 H1541 0.930 . S
C1547 C1543 1.400 . S
C1547 C1546 1.385 . S
C1548 C1546 1.478 . S
C1548 C1550 1.381 . S
C1548 C1554 1.383 . S
C1549 C1545 1.495 . S
C1549 H1555 0.959 . S
C1549 H1556 0.961 . S
C1549 H1557 0.960 . S
C1550 C1548 1.381 . S
C1550 C1551 1.394 . S
C1550 H1558 0.930 . S
C1551 C1550 1.394 . S
C1551 C1552 1.383 . S
C1551 H1559 0.929 . S
C1552 C1551 1.383 . S
C1552 C1553 1.377 . S
C1553 H1537 0.930 . S
C1553 C1552 1.377 . S
C1553 C1554 1.379 . S
C1554 H1538 0.931 . S
C1554 C1548 1.383 . S
C1554 C1553 1.379 . S
H1555 C1549 0.959 . S
H1556 C1549 0.961 . S
H1557 C1549 0.960 . S
H1558 C1550 0.930 . S
H1559 C1551 0.929 . S
H1560 C1568 0.929 . S
H1561 C1570 0.930 . S
H1562 C1572 0.930 . S
H1563 C1575 0.929 . S
H1564 C1578 0.930 . S
H1565 C1580 0.960 . S
H1566 C1580 0.960 . S
H1567 C1580 0.960 . S
C1568 H1560 0.929 . S
C1568 C1569 1.377 . S
C1568 C1570 1.384 . S
C1569 C1568 1.377 . S
C1569 C1575 1.390 . S
C1570 H1561 0.930 . S
C1570 C1568 1.384 . S
C1570 C1571 1.372 . S
C1571 C1570 1.372 . S
C1571 C1572 1.400 . S
C1571 C1576 1.490 . S
C1572 H1562 0.930 . S
C1572 C1571 1.400 . S
C1572 C1575 1.386 . S
H1573 C1589 0.930 . S
H1574 C1590 0.931 . S
C1575 H1563 0.929 . S
C1575 C1569 1.390 . S
C1575 C1572 1.386 . S
C1576 C1571 1.490 . S
C1576 C1578 1.395 . S
C1576 C1579 1.403 . S
H1577 C1583 0.930 . S
C1578 H1564 0.930 . S
C1578 C1576 1.395 . S
C1578 C1581 1.403 . S
C1579 C1576 1.403 . S
C1579 C1580 1.524 . S
C1579 C1583 1.400 . S
C1580 H1565 0.960 . S
C1580 H1566 0.960 . S
C1580 H1567 0.960 . S
C1580 C1579 1.524 . S
C1581 C1578 1.403 . S
C1581 C1582 1.392 . S
C1581 C1585 1.495 . S
C1582 C1581 1.392 . S
C1582 C1583 1.385 . S
C1582 C1584 1.478 . S
C1583 H1577 0.930 . S
C1583 C1579 1.400 . S
C1583 C1582 1.385 . S
C1584 C1582 1.478 . S
C1584 C1586 1.381 . S
C1584 C1590 1.383 . S
C1585 C1581 1.495 . S
C1585 H1591 0.959 . S
C1585 H1592 0.961 . S
C1585 H1593 0.960 . S
C1586 C1584 1.381 . S
C1586 C1587 1.394 . S
C1586 H1594 0.930 . S
C1587 C1586 1.394 . S
C1587 C1588 1.383 . S
C1587 H1595 0.929 . S
C1588 C1587 1.383 . S
C1588 C1589 1.377 . S
C1589 H1573 0.930 . S
C1589 C1588 1.377 . S
C1589 C1590 1.379 . S
C1590 H1574 0.931 . S
C1590 C1584 1.383 . S
C1590 C1589 1.379 . S
H1591 C1585 0.959 . S
H1592 C1585 0.961 . S
H1593 C1585 0.960 . S
H1594 C1586 0.930 . S
H1595 C1587 0.929 . S
H1596 C1604 0.929 . S
H1597 C1606 0.930 . S
H1598 C1608 0.930 . S
H1599 C1611 0.929 . S
H1600 C1614 0.930 . S
H1601 C1616 0.960 . S
H1602 C1616 0.960 . S
H1603 C1616 0.960 . S
C1604 H1596 0.929 . S
C1604 C1605 1.377 . S
C1604 C1606 1.384 . S
C1605 C1604 1.377 . S
C1605 C1611 1.390 . S
C1606 H1597 0.930 . S
C1606 C1604 1.384 . S
C1606 C1607 1.372 . S
C1607 C1606 1.372 . S
C1607 C1608 1.400 . S
C1607 C1612 1.490 . S
C1608 H1598 0.930 . S
C1608 C1607 1.400 . S
C1608 C1611 1.386 . S
H1609 C1625 0.930 . S
H1610 C1626 0.931 . S
C1611 H1599 0.929 . S
C1611 C1605 1.390 . S
C1611 C1608 1.386 . S
C1612 C1607 1.490 . S
C1612 C1614 1.395 . S
C1612 C1615 1.403 . S
H1613 C1619 0.930 . S
C1614 H1600 0.930 . S
C1614 C1612 1.395 . S
C1614 C1617 1.403 . S
C1615 C1612 1.403 . S
C1615 C1616 1.524 . S
C1615 C1619 1.400 . S
C1616 H1601 0.960 . S
C1616 H1602 0.960 . S
C1616 H1603 0.960 . S
C1616 C1615 1.524 . S
C1617 C1614 1.403 . S
C1617 C1618 1.392 . S
C1617 C1621 1.495 . S
C1618 C1617 1.392 . S
C1618 C1619 1.385 . S
C1618 C1620 1.478 . S
C1619 H1613 0.930 . S
C1619 C1615 1.400 . S
C1619 C1618 1.385 . S
C1620 C1618 1.478 . S
C1620 C1622 1.381 . S
C1620 C1626 1.383 . S
C1621 C1617 1.495 . S
C1621 H1627 0.959 . S
C1621 H1628 0.961 . S
C1621 H1629 0.960 . S
C1622 C1620 1.381 . S
C1622 C1623 1.394 . S
C1622 H1630 0.930 . S
C1623 C1622 1.394 . S
C1623 C1624 1.383 . S
C1623 H1631 0.929 . S
C1624 C1623 1.383 . S
C1624 C1625 1.377 . S
C1625 H1609 0.930 . S
C1625 C1624 1.377 . S
C1625 C1626 1.379 . S
C1626 H1610 0.931 . S
C1626 C1620 1.383 . S
C1626 C1625 1.379 . S
H1627 C1621 0.959 . S
H1628 C1621 0.961 . S
H1629 C1621 0.960 . S
H1630 C1622 0.930 . S
H1631 C1623 0.929 . S
H1632 C1640 0.929 . S
H1633 C1642 0.930 . S
H1634 C1644 0.930 . S
H1635 C1647 0.929 . S
H1636 C1650 0.930 . S
H1637 C1652 0.960 . S
H1638 C1652 0.960 . S
H1639 C1652 0.960 . S
C1640 H1632 0.929 . S
C1640 C1641 1.377 . S
C1640 C1642 1.384 . S
C1641 C1640 1.377 . S
C1641 C1647 1.390 . S
C1642 H1633 0.930 . S
C1642 C1640 1.384 . S
C1642 C1643 1.372 . S
C1643 C1642 1.372 . S
C1643 C1644 1.400 . S
C1643 C1648 1.490 . S
C1644 H1634 0.930 . S
C1644 C1643 1.400 . S
C1644 C1647 1.386 . S
H1645 C1661 0.930 . S
H1646 C1662 0.931 . S
C1647 H1635 0.929 . S
C1647 C1641 1.390 . S
C1647 C1644 1.386 . S
C1648 C1643 1.490 . S
C1648 C1650 1.395 . S
C1648 C1651 1.403 . S
H1649 C1655 0.930 . S
C1650 H1636 0.930 . S
C1650 C1648 1.395 . S
C1650 C1653 1.403 . S
C1651 C1648 1.403 . S
C1651 C1652 1.524 . S
C1651 C1655 1.400 . S
C1652 H1637 0.960 . S
C1652 H1638 0.960 . S
C1652 H1639 0.960 . S
C1652 C1651 1.524 . S
C1653 C1650 1.403 . S
C1653 C1654 1.392 . S
C1653 C1657 1.495 . S
C1654 C1653 1.392 . S
C1654 C1655 1.385 . S
C1654 C1656 1.478 . S
C1655 H1649 0.930 . S
C1655 C1651 1.400 . S
C1655 C1654 1.385 . S
C1656 C1654 1.478 . S
C1656 C1658 1.381 . S
C1656 C1662 1.383 . S
C1657 C1653 1.495 . S
C1657 H1663 0.959 . S
C1657 H1664 0.961 . S
C1657 H1665 0.960 . S
C1658 C1656 1.381 . S
C1658 C1659 1.394 . S
C1658 H1666 0.930 . S
C1659 C1658 1.394 . S
C1659 C1660 1.383 . S
C1659 H1667 0.929 . S
C1660 C1659 1.383 . S
C1660 C1661 1.377 . S
C1661 H1645 0.930 . S
C1661 C1660 1.377 . S
C1661 C1662 1.379 . S
C1662 H1646 0.931 . S
C1662 C1656 1.383 . S
C1662 C1661 1.379 . S
H1663 C1657 0.959 . S
H1664 C1657 0.961 . S
H1665 C1657 0.960 . S
H1666 C1658 0.930 . S
H1667 C1659 0.929 . S
H1668 C1676 0.929 . S
H1669 C1678 0.930 . S
H1670 C1680 0.930 . S
H1671 C1683 0.929 . S
H1672 C1686 0.930 . S
H1673 C1688 0.960 . S
H1674 C1688 0.960 . S
H1675 C1688 0.960 . S
C1676 H1668 0.929 . S
C1676 C1677 1.377 . S
C1676 C1678 1.384 . S
C1677 C1676 1.377 . S
C1677 C1683 1.390 . S
C1678 H1669 0.930 . S
C1678 C1676 1.384 . S
C1678 C1679 1.372 . S
C1679 C1678 1.372 . S
C1679 C1680 1.400 . S
C1679 C1684 1.490 . S
C1680 H1670 0.930 . S
C1680 C1679 1.400 . S
C1680 C1683 1.386 . S
H1681 C1697 0.930 . S
H1682 C1698 0.931 . S
C1683 H1671 0.929 . S
C1683 C1677 1.390 . S
C1683 C1680 1.386 . S
C1684 C1679 1.490 . S
C1684 C1686 1.395 . S
C1684 C1687 1.403 . S
H1685 C1691 0.930 . S
C1686 H1672 0.930 . S
C1686 C1684 1.395 . S
C1686 C1689 1.403 . S
C1687 C1684 1.403 . S
C1687 C1688 1.524 . S
C1687 C1691 1.400 . S
C1688 H1673 0.960 . S
C1688 H1674 0.960 . S
C1688 H1675 0.960 . S
C1688 C1687 1.524 . S
C1689 C1686 1.403 . S
C1689 C1690 1.392 . S
C1689 C1693 1.495 . S
C1690 C1689 1.392 . S
C1690 C1691 1.385 . S
C1690 C1692 1.478 . S
C1691 H1685 0.930 . S
C1691 C1687 1.400 . S
C1691 C1690 1.385 . S
C1692 C1690 1.478 . S
C1692 C1694 1.381 . S
C1692 C1698 1.383 . S
C1693 C1689 1.495 . S
C1693 H1699 0.959 . S
C1693 H1700 0.961 . S
C1693 H1701 0.960 . S
C1694 C1692 1.381 . S
C1694 C1695 1.394 . S
C1694 H1702 0.930 . S
C1695 C1694 1.394 . S
C1695 C1696 1.383 . S
C1695 H1703 0.929 . S
C1696 C1695 1.383 . S
C1696 C1697 1.377 . S
C1697 H1681 0.930 . S
C1697 C1696 1.377 . S
C1697 C1698 1.379 . S
C1698 H1682 0.931 . S
C1698 C1692 1.383 . S
C1698 C1697 1.379 . S
H1699 C1693 0.959 . S
H1700 C1693 0.961 . S
H1701 C1693 0.960 . S
H1702 C1694 0.930 . S
H1703 C1695 0.929 . S
H1704 C1712 0.929 . S
H1705 C1714 0.930 . S
H1706 C1716 0.930 . S
H1707 C1719 0.929 . S
H1708 C1722 0.930 . S
H1709 C1724 0.960 . S
H1710 C1724 0.960 . S
H1711 C1724 0.960 . S
C1712 H1704 0.929 . S
C1712 C1713 1.377 . S
C1712 C1714 1.384 . S
C1713 C1712 1.377 . S
C1713 C1719 1.390 . S
C1714 H1705 0.930 . S
C1714 C1712 1.384 . S
C1714 C1715 1.372 . S
C1715 C1714 1.372 . S
C1715 C1716 1.400 . S
C1715 C1720 1.490 . S
C1716 H1706 0.930 . S
C1716 C1715 1.400 . S
C1716 C1719 1.386 . S
H1717 C1733 0.930 . S
H1718 C1734 0.931 . S
C1719 H1707 0.929 . S
C1719 C1713 1.390 . S
C1719 C1716 1.386 . S
C1720 C1715 1.490 . S
C1720 C1722 1.395 . S
C1720 C1723 1.403 . S
H1721 C1727 0.930 . S
C1722 H1708 0.930 . S
C1722 C1720 1.395 . S
C1722 C1725 1.403 . S
C1723 C1720 1.403 . S
C1723 C1724 1.524 . S
C1723 C1727 1.400 . S
C1724 H1709 0.960 . S
C1724 H1710 0.960 . S
C1724 H1711 0.960 . S
C1724 C1723 1.524 . S
C1725 C1722 1.403 . S
C1725 C1726 1.392 . S
C1725 C1729 1.495 . S
C1726 C1725 1.392 . S
C1726 C1727 1.385 . S
C1726 C1728 1.478 . S
C1727 H1721 0.930 . S
C1727 C1723 1.400 . S
C1727 C1726 1.385 . S
C1728 C1726 1.478 . S
C1728 C1730 1.381 . S
C1728 C1734 1.383 . S
C1729 C1725 1.495 . S
C1729 H1735 0.959 . S
C1729 H1736 0.961 . S
C1729 H1737 0.960 . S
C1730 C1728 1.381 . S
C1730 C1731 1.394 . S
C1730 H1738 0.930 . S
C1731 C1730 1.394 . S
C1731 C1732 1.383 . S
C1731 H1739 0.929 . S
C1732 C1731 1.383 . S
C1732 C1733 1.377 . S
C1733 H1717 0.930 . S
C1733 C1732 1.377 . S
C1733 C1734 1.379 . S
C1734 H1718 0.931 . S
C1734 C1728 1.383 . S
C1734 C1733 1.379 . S
H1735 C1729 0.959 . S
H1736 C1729 0.961 . S
H1737 C1729 0.960 . S
H1738 C1730 0.930 . S
H1739 C1731 0.929 . S
H1740 C1748 0.929 . S
H1741 C1750 0.930 . S
H1742 C1752 0.930 . S
H1743 C1755 0.929 . S
H1744 C1758 0.930 . S
H1745 C1760 0.960 . S
H1746 C1760 0.960 . S
H1747 C1760 0.960 . S
C1748 H1740 0.929 . S
C1748 C1749 1.377 . S
C1748 C1750 1.384 . S
C1749 C1748 1.377 . S
C1749 C1755 1.390 . S
C1750 H1741 0.930 . S
C1750 C1748 1.384 . S
C1750 C1751 1.372 . S
C1751 C1750 1.372 . S
C1751 C1752 1.400 . S
C1751 C1756 1.490 . S
C1752 H1742 0.930 . S
C1752 C1751 1.400 . S
C1752 C1755 1.386 . S
H1753 C1769 0.930 . S
H1754 C1770 0.931 . S
C1755 H1743 0.929 . S
C1755 C1749 1.390 . S
C1755 C1752 1.386 . S
C1756 C1751 1.490 . S
C1756 C1758 1.395 . S
C1756 C1759 1.403 . S
H1757 C1763 0.930 . S
C1758 H1744 0.930 . S
C1758 C1756 1.395 . S
C1758 C1761 1.403 . S
C1759 C1756 1.403 . S
C1759 C1760 1.524 . S
C1759 C1763 1.400 . S
C1760 H1745 0.960 . S
C1760 H1746 0.960 . S
C1760 H1747 0.960 . S
C1760 C1759 1.524 . S
C1761 C1758 1.403 . S
C1761 C1762 1.392 . S
C1761 C1765 1.495 . S
C1762 C1761 1.392 . S
C1762 C1763 1.385 . S
C1762 C1764 1.478 . S
C1763 H1757 0.930 . S
C1763 C1759 1.400 . S
C1763 C1762 1.385 . S
C1764 C1762 1.478 . S
C1764 C1766 1.381 . S
C1764 C1770 1.383 . S
C1765 C1761 1.495 . S
C1765 H1771 0.959 . S
C1765 H1772 0.961 . S
C1765 H1773 0.960 . S
C1766 C1764 1.381 . S
C1766 C1767 1.394 . S
C1766 H1774 0.930 . S
C1767 C1766 1.394 . S
C1767 C1768 1.383 . S
C1767 H1775 0.929 . S
C1768 C1767 1.383 . S
C1768 C1769 1.377 . S
C1769 H1753 0.930 . S
C1769 C1768 1.377 . S
C1769 C1770 1.379 . S
C1770 H1754 0.931 . S
C1770 C1764 1.383 . S
C1770 C1769 1.379 . S
H1771 C1765 0.959 . S
H1772 C1765 0.961 . S
H1773 C1765 0.960 . S
H1774 C1766 0.930 . S
H1775 C1767 0.929 . S
H1776 C1784 0.929 . S
H1777 C1786 0.930 . S
H1778 C1788 0.930 . S
H1779 C1791 0.929 . S
H1780 C1794 0.930 . S
H1781 C1796 0.960 . S
H1782 C1796 0.960 . S
H1783 C1796 0.960 . S
C1784 H1776 0.929 . S
C1784 C1785 1.377 . S
C1784 C1786 1.384 . S
C1785 C1784 1.377 . S
C1785 C1791 1.390 . S
C1786 H1777 0.930 . S
C1786 C1784 1.384 . S
C1786 C1787 1.372 . S
C1787 C1786 1.372 . S
C1787 C1788 1.400 . S
C1787 C1792 1.490 . S
C1788 H1778 0.930 . S
C1788 C1787 1.400 . S
C1788 C1791 1.386 . S
H1789 C1805 0.930 . S
H1790 C1806 0.931 . S
C1791 H1779 0.929 . S
C1791 C1785 1.390 . S
C1791 C1788 1.386 . S
C1792 C1787 1.490 . S
C1792 C1794 1.395 . S
C1792 C1795 1.403 . S
H1793 C1799 0.930 . S
C1794 H1780 0.930 . S
C1794 C1792 1.395 . S
C1794 C1797 1.403 . S
C1795 C1792 1.403 . S
C1795 C1796 1.524 . S
C1795 C1799 1.400 . S
C1796 H1781 0.960 . S
C1796 H1782 0.960 . S
C1796 H1783 0.960 . S
C1796 C1795 1.524 . S
C1797 C1794 1.403 . S
C1797 C1798 1.392 . S
C1797 C1801 1.495 . S
C1798 C1797 1.392 . S
C1798 C1799 1.385 . S
C1798 C1800 1.478 . S
C1799 H1793 0.930 . S
C1799 C1795 1.400 . S
C1799 C1798 1.385 . S
C1800 C1798 1.478 . S
C1800 C1802 1.381 . S
C1800 C1806 1.383 . S
C1801 C1797 1.495 . S
C1801 H1807 0.959 . S
C1801 H1808 0.961 . S
C1801 H1809 0.960 . S
C1802 C1800 1.381 . S
C1802 C1803 1.394 . S
C1802 H1810 0.930 . S
C1803 C1802 1.394 . S
C1803 C1804 1.383 . S
C1803 H1811 0.929 . S
C1804 C1803 1.383 . S
C1804 C1805 1.377 . S
C1805 H1789 0.930 . S
C1805 C1804 1.377 . S
C1805 C1806 1.379 . S
C1806 H1790 0.931 . S
C1806 C1800 1.383 . S
C1806 C1805 1.379 . S
H1807 C1801 0.959 . S
H1808 C1801 0.961 . S
H1809 C1801 0.960 . S
H1810 C1802 0.930 . S
H1811 C1803 0.929 . S
H1812 C1820 0.929 . S
H1813 C1822 0.930 . S
H1814 C1824 0.930 . S
H1815 C1827 0.929 . S
H1816 C1830 0.930 . S
H1817 C1832 0.960 . S
H1818 C1832 0.960 . S
H1819 C1832 0.960 . S
C1820 H1812 0.929 . S
C1820 C1821 1.377 . S
C1820 C1822 1.384 . S
C1821 C1820 1.377 . S
C1821 C1827 1.390 . S
C1822 H1813 0.930 . S
C1822 C1820 1.384 . S
C1822 C1823 1.372 . S
C1823 C1822 1.372 . S
C1823 C1824 1.400 . S
C1823 C1828 1.490 . S
C1824 H1814 0.930 . S
C1824 C1823 1.400 . S
C1824 C1827 1.386 . S
H1825 C1841 0.930 . S
H1826 C1842 0.931 . S
C1827 H1815 0.929 . S
C1827 C1821 1.390 . S
C1827 C1824 1.386 . S
C1828 C1823 1.490 . S
C1828 C1830 1.395 . S
C1828 C1831 1.403 . S
H1829 C1835 0.930 . S
C1830 H1816 0.930 . S
C1830 C1828 1.395 . S
C1830 C1833 1.403 . S
C1831 C1828 1.403 . S
C1831 C1832 1.524 . S
C1831 C1835 1.400 . S
C1832 H1817 0.960 . S
C1832 H1818 0.960 . S
C1832 H1819 0.960 . S
C1832 C1831 1.524 . S
C1833 C1830 1.403 . S
C1833 C1834 1.392 . S
C1833 C1837 1.495 . S
C1834 C1833 1.392 . S
C1834 C1835 1.385 . S
C1834 C1836 1.478 . S
C1835 H1829 0.930 . S
C1835 C1831 1.400 . S
C1835 C1834 1.385 . S
C1836 C1834 1.478 . S
C1836 C1838 1.381 . S
C1836 C1842 1.383 . S
C1837 C1833 1.495 . S
C1837 H1843 0.959 . S
C1837 H1844 0.961 . S
C1837 H1845 0.960 . S
C1838 C1836 1.381 . S
C1838 C1839 1.394 . S
C1838 H1846 0.930 . S
C1839 C1838 1.394 . S
C1839 C1840 1.383 . S
C1839 H1847 0.929 . S
C1840 C1839 1.383 . S
C1840 C1841 1.377 . S
C1841 H1825 0.930 . S
C1841 C1840 1.377 . S
C1841 C1842 1.379 . S
C1842 H1826 0.931 . S
C1842 C1836 1.383 . S
C1842 C1841 1.379 . S
H1843 C1837 0.959 . S
H1844 C1837 0.961 . S
H1845 C1837 0.960 . S
H1846 C1838 0.930 . S
H1847 C1839 0.929 . S
H1848 C1856 0.929 . S
H1849 C1858 0.930 . S
H1850 C1860 0.930 . S
H1851 C1863 0.929 . S
H1852 C1866 0.930 . S
H1853 C1868 0.960 . S
H1854 C1868 0.960 . S
H1855 C1868 0.960 . S
C1856 H1848 0.929 . S
C1856 C1857 1.377 . S
C1856 C1858 1.384 . S
C1857 C1856 1.377 . S
C1857 C1863 1.390 . S
C1858 H1849 0.930 . S
C1858 C1856 1.384 . S
C1858 C1859 1.372 . S
C1859 C1858 1.372 . S
C1859 C1860 1.400 . S
C1859 C1864 1.490 . S
C1860 H1850 0.930 . S
C1860 C1859 1.400 . S
C1860 C1863 1.386 . S
H1861 C1877 0.930 . S
H1862 C1878 0.931 . S
C1863 H1851 0.929 . S
C1863 C1857 1.390 . S
C1863 C1860 1.386 . S
C1864 C1859 1.490 . S
C1864 C1866 1.395 . S
C1864 C1867 1.403 . S
H1865 C1871 0.930 . S
C1866 H1852 0.930 . S
C1866 C1864 1.395 . S
C1866 C1869 1.403 . S
C1867 C1864 1.403 . S
C1867 C1868 1.524 . S
C1867 C1871 1.400 . S
C1868 H1853 0.960 . S
C1868 H1854 0.960 . S
C1868 H1855 0.960 . S
C1868 C1867 1.524 . S
C1869 C1866 1.403 . S
C1869 C1870 1.392 . S
C1869 C1873 1.495 . S
C1870 C1869 1.392 . S
C1870 C1871 1.385 . S
C1870 C1872 1.478 . S
C1871 H1865 0.930 . S
C1871 C1867 1.400 . S
C1871 C1870 1.385 . S
C1872 C1870 1.478 . S
C1872 C1874 1.381 . S
C1872 C1878 1.383 . S
C1873 C1869 1.495 . S
C1873 H1879 0.959 . S
C1873 H1880 0.961 . S
C1873 H1881 0.960 . S
C1874 C1872 1.381 . S
C1874 C1875 1.394 . S
C1874 H1882 0.930 . S
C1875 C1874 1.394 . S
C1875 C1876 1.383 . S
C1875 H1883 0.929 . S
C1876 C1875 1.383 . S
C1876 C1877 1.377 . S
C1877 H1861 0.930 . S
C1877 C1876 1.377 . S
C1877 C1878 1.379 . S
C1878 H1862 0.931 . S
C1878 C1872 1.383 . S
C1878 C1877 1.379 . S
H1879 C1873 0.959 . S
H1880 C1873 0.961 . S
H1881 C1873 0.960 . S
H1882 C1874 0.930 . S
H1883 C1875 0.929 . S
H1884 C1892 0.929 . S
H1885 C1894 0.930 . S
H1886 C1896 0.930 . S
H1887 C1899 0.929 . S
H1888 C1902 0.930 . S
H1889 C1904 0.960 . S
H1890 C1904 0.960 . S
H1891 C1904 0.960 . S
C1892 H1884 0.929 . S
C1892 C1893 1.377 . S
C1892 C1894 1.384 . S
C1893 C1892 1.377 . S
C1893 C1899 1.390 . S
C1894 H1885 0.930 . S
C1894 C1892 1.384 . S
C1894 C1895 1.372 . S
C1895 C1894 1.372 . S
C1895 C1896 1.400 . S
C1895 C1900 1.490 . S
C1896 H1886 0.930 . S
C1896 C1895 1.400 . S
C1896 C1899 1.386 . S
H1897 C1913 0.930 . S
H1898 C1914 0.931 . S
C1899 H1887 0.929 . S
C1899 C1893 1.390 . S
C1899 C1896 1.386 . S
C1900 C1895 1.490 . S
C1900 C1902 1.395 . S
C1900 C1903 1.403 . S
H1901 C1907 0.930 . S
C1902 H1888 0.930 . S
C1902 C1900 1.395 . S
C1902 C1905 1.403 . S
C1903 C1900 1.403 . S
C1903 C1904 1.524 . S
C1903 C1907 1.400 . S
C1904 H1889 0.960 . S
C1904 H1890 0.960 . S
C1904 H1891 0.960 . S
C1904 C1903 1.524 . S
C1905 C1902 1.403 . S
C1905 C1906 1.392 . S
C1905 C1909 1.495 . S
C1906 C1905 1.392 . S
C1906 C1907 1.385 . S
C1906 C1908 1.478 . S
C1907 H1901 0.930 . S
C1907 C1903 1.400 . S
C1907 C1906 1.385 . S
C1908 C1906 1.478 . S
C1908 C1910 1.381 . S
C1908 C1914 1.383 . S
C1909 C1905 1.495 . S
C1909 H1915 0.959 . S
C1909 H1916 0.961 . S
C1909 H1917 0.960 . S
C1910 C1908 1.381 . S
C1910 C1911 1.394 . S
C1910 H1918 0.930 . S
C1911 C1910 1.394 . S
C1911 C1912 1.383 . S
C1911 H1919 0.929 . S
C1912 C1911 1.383 . S
C1912 C1913 1.377 . S
C1913 H1897 0.930 . S
C1913 C1912 1.377 . S
C1913 C1914 1.379 . S
C1914 H1898 0.931 . S
C1914 C1908 1.383 . S
C1914 C1913 1.379 . S
H1915 C1909 0.959 . S
H1916 C1909 0.961 . S
H1917 C1909 0.960 . S
H1918 C1910 0.930 . S
H1919 C1911 0.929 . S
H1920 C1928 0.929 . S
H1921 C1930 0.930 . S
H1922 C1932 0.930 . S
H1923 C1935 0.929 . S
H1924 C1938 0.930 . S
H1925 C1940 0.960 . S
H1926 C1940 0.960 . S
H1927 C1940 0.960 . S
C1928 H1920 0.929 . S
C1928 C1929 1.377 . S
C1928 C1930 1.384 . S
C1929 C1928 1.377 . S
C1929 C1935 1.390 . S
C1930 H1921 0.930 . S
C1930 C1928 1.384 . S
C1930 C1931 1.372 . S
C1931 C1930 1.372 . S
C1931 C1932 1.400 . S
C1931 C1936 1.490 . S
C1932 H1922 0.930 . S
C1932 C1931 1.400 . S
C1932 C1935 1.386 . S
H1933 C1949 0.930 . S
H1934 C1950 0.931 . S
C1935 H1923 0.929 . S
C1935 C1929 1.390 . S
C1935 C1932 1.386 . S
C1936 C1931 1.490 . S
C1936 C1938 1.395 . S
C1936 C1939 1.403 . S
H1937 C1943 0.930 . S
C1938 H1924 0.930 . S
C1938 C1936 1.395 . S
C1938 C1941 1.403 . S
C1939 C1936 1.403 . S
C1939 C1940 1.524 . S
C1939 C1943 1.400 . S
C1940 H1925 0.960 . S
C1940 H1926 0.960 . S
C1940 H1927 0.960 . S
C1940 C1939 1.524 . S
C1941 C1938 1.403 . S
C1941 C1942 1.392 . S
C1941 C1945 1.495 . S
C1942 C1941 1.392 . S
C1942 C1943 1.385 . S
C1942 C1944 1.478 . S
C1943 H1937 0.930 . S
C1943 C1939 1.400 . S
C1943 C1942 1.385 . S
C1944 C1942 1.478 . S
C1944 C1946 1.381 . S
C1944 C1950 1.383 . S
C1945 C1941 1.495 . S
C1945 H1951 0.959 . S
C1945 H1952 0.961 . S
C1945 H1953 0.960 . S
C1946 C1944 1.381 . S
C1946 C1947 1.394 . S
C1946 H1954 0.930 . S
C1947 C1946 1.394 . S
C1947 C1948 1.383 . S
C1947 H1955 0.929 . S
C1948 C1947 1.383 . S
C1948 C1949 1.377 . S
C1949 H1933 0.930 . S
C1949 C1948 1.377 . S
C1949 C1950 1.379 . S
C1950 H1934 0.931 . S
C1950 C1944 1.383 . S
C1950 C1949 1.379 . S
H1951 C1945 0.959 . S
H1952 C1945 0.961 . S
H1953 C1945 0.960 . S
H1954 C1946 0.930 . S
H1955 C1947 0.929 . S
H1956 C1964 0.929 . S
H1957 C1966 0.930 . S
H1958 C1968 0.930 . S
H1959 C1971 0.929 . S
H1960 C1974 0.930 . S
H1961 C1976 0.960 . S
H1962 C1976 0.960 . S
H1963 C1976 0.960 . S
C1964 H1956 0.929 . S
C1964 C1965 1.377 . S
C1964 C1966 1.384 . S
C1965 C1964 1.377 . S
C1965 C1971 1.390 . S
C1966 H1957 0.930 . S
C1966 C1964 1.384 . S
C1966 C1967 1.372 . S
C1967 C1966 1.372 . S
C1967 C1968 1.400 . S
C1967 C1972 1.490 . S
C1968 H1958 0.930 . S
C1968 C1967 1.400 . S
C1968 C1971 1.386 . S
H1969 C1985 0.930 . S
H1970 C1986 0.931 . S
C1971 H1959 0.929 . S
C1971 C1965 1.390 . S
C1971 C1968 1.386 . S
C1972 C1967 1.490 . S
C1972 C1974 1.395 . S
C1972 C1975 1.403 . S
H1973 C1979 0.930 . S
C1974 H1960 0.930 . S
C1974 C1972 1.395 . S
C1974 C1977 1.403 . S
C1975 C1972 1.403 . S
C1975 C1976 1.524 . S
C1975 C1979 1.400 . S
C1976 H1961 0.960 . S
C1976 H1962 0.960 . S
C1976 H1963 0.960 . S
C1976 C1975 1.524 . S
C1977 C1974 1.403 . S
C1977 C1978 1.392 . S
C1977 C1981 1.495 . S
C1978 C1977 1.392 . S
C1978 C1979 1.385 . S
C1978 C1980 1.478 . S
C1979 H1973 0.930 . S
C1979 C1975 1.400 . S
C1979 C1978 1.385 . S
C1980 C1978 1.478 . S
C1980 C1982 1.381 . S
C1980 C1986 1.383 . S
C1981 C1977 1.495 . S
C1981 H1987 0.959 . S
C1981 H1988 0.961 . S
C1981 H1989 0.960 . S
C1982 C1980 1.381 . S
C1982 C1983 1.394 . S
C1982 H1990 0.930 . S
C1983 C1982 1.394 . S
C1983 C1984 1.383 . S
C1983 H1991 0.929 . S
C1984 C1983 1.383 . S
C1984 C1985 1.377 . S
C1985 H1969 0.930 . S
C1985 C1984 1.377 . S
C1985 C1986 1.379 . S
C1986 H1970 0.931 . S
C1986 C1980 1.383 . S
C1986 C1985 1.379 . S
H1987 C1981 0.959 . S
H1988 C1981 0.961 . S
H1989 C1981 0.960 . S
H1990 C1982 0.930 . S
H1991 C1983 0.929 . S
H1992 C2000 0.929 . S
H1993 C2002 0.930 . S
H1994 C2004 0.930 . S
H1995 C2007 0.929 . S
H1996 C2010 0.930 . S
H1997 C2012 0.960 . S
H1998 C2012 0.960 . S
H1999 C2012 0.960 . S
C2000 H1992 0.929 . S
C2000 C2001 1.377 . S
C2000 C2002 1.384 . S
C2001 C2000 1.377 . S
C2001 C2007 1.390 . S
C2002 H1993 0.930 . S
C2002 C2000 1.384 . S
C2002 C2003 1.372 . S
C2003 C2002 1.372 . S
C2003 C2004 1.400 . S
C2003 C2008 1.490 . S
C2004 H1994 0.930 . S
C2004 C2003 1.400 . S
C2004 C2007 1.386 . S
H2005 C2021 0.930 . S
H2006 C2022 0.931 . S
C2007 H1995 0.929 . S
C2007 C2001 1.390 . S
C2007 C2004 1.386 . S
C2008 C2003 1.490 . S
C2008 C2010 1.395 . S
C2008 C2011 1.403 . S
H2009 C2015 0.930 . S
C2010 H1996 0.930 . S
C2010 C2008 1.395 . S
C2010 C2013 1.403 . S
C2011 C2008 1.403 . S
C2011 C2012 1.524 . S
C2011 C2015 1.400 . S
C2012 H1997 0.960 . S
C2012 H1998 0.960 . S
C2012 H1999 0.960 . S
C2012 C2011 1.524 . S
C2013 C2010 1.403 . S
C2013 C2014 1.392 . S
C2013 C2017 1.495 . S
C2014 C2013 1.392 . S
C2014 C2015 1.385 . S
C2014 C2016 1.478 . S
C2015 H2009 0.930 . S
C2015 C2011 1.400 . S
C2015 C2014 1.385 . S
C2016 C2014 1.478 . S
C2016 C2018 1.381 . S
C2016 C2022 1.383 . S
C2017 C2013 1.495 . S
C2017 H2023 0.959 . S
C2017 H2024 0.961 . S
C2017 H2025 0.960 . S
C2018 C2016 1.381 . S
C2018 C2019 1.394 . S
C2018 H2026 0.930 . S
C2019 C2018 1.394 . S
C2019 C2020 1.383 . S
C2019 H2027 0.929 . S
C2020 C2019 1.383 . S
C2020 C2021 1.377 . S
C2021 H2005 0.930 . S
C2021 C2020 1.377 . S
C2021 C2022 1.379 . S
C2022 H2006 0.931 . S
C2022 C2016 1.383 . S
C2022 C2021 1.379 . S
H2023 C2017 0.959 . S
H2024 C2017 0.961 . S
H2025 C2017 0.960 . S
H2026 C2018 0.930 . S
H2027 C2019 0.929 . S
H2028 C2036 0.929 . S
H2029 C2038 0.930 . S
H2030 C2040 0.930 . S
H2031 C2043 0.929 . S
H2032 C2046 0.930 . S
H2033 C2048 0.960 . S
H2034 C2048 0.960 . S
H2035 C2048 0.960 . S
C2036 H2028 0.929 . S
C2036 C2037 1.377 . S
C2036 C2038 1.384 . S
C2037 C2036 1.377 . S
C2037 C2043 1.390 . S
C2038 H2029 0.930 . S
C2038 C2036 1.384 . S
C2038 C2039 1.372 . S
C2039 C2038 1.372 . S
C2039 C2040 1.400 . S
C2039 C2044 1.490 . S
C2040 H2030 0.930 . S
C2040 C2039 1.400 . S
C2040 C2043 1.386 . S
H2041 C2057 0.930 . S
H2042 C2058 0.931 . S
C2043 H2031 0.929 . S
C2043 C2037 1.390 . S
C2043 C2040 1.386 . S
C2044 C2039 1.490 . S
C2044 C2046 1.395 . S
C2044 C2047 1.403 . S
H2045 C2051 0.930 . S
C2046 H2032 0.930 . S
C2046 C2044 1.395 . S
C2046 C2049 1.403 . S
C2047 C2044 1.403 . S
C2047 C2048 1.524 . S
C2047 C2051 1.400 . S
C2048 H2033 0.960 . S
C2048 H2034 0.960 . S
C2048 H2035 0.960 . S
C2048 C2047 1.524 . S
C2049 C2046 1.403 . S
C2049 C2050 1.392 . S
C2049 C2053 1.495 . S
C2050 C2049 1.392 . S
C2050 C2051 1.385 . S
C2050 C2052 1.478 . S
C2051 H2045 0.930 . S
C2051 C2047 1.400 . S
C2051 C2050 1.385 . S
C2052 C2050 1.478 . S
C2052 C2054 1.381 . S
C2052 C2058 1.383 . S
C2053 C2049 1.495 . S
C2053 H2059 0.959 . S
C2053 H2060 0.961 . S
C2053 H2061 0.960 . S
C2054 C2052 1.381 . S
C2054 C2055 1.394 . S
C2054 H2062 0.930 . S
C2055 C2054 1.394 . S
C2055 C2056 1.383 . S
C2055 H2063 0.929 . S
C2056 C2055 1.383 . S
C2056 C2057 1.377 . S
C2057 H2041 0.930 . S
C2057 C2056 1.377 . S
C2057 C2058 1.379 . S
C2058 H2042 0.931 . S
C2058 C2052 1.383 . S
C2058 C2057 1.379 . S
H2059 C2053 0.959 . S
H2060 C2053 0.961 . S
H2061 C2053 0.960 . S
H2062 C2054 0.930 . S
H2063 C2055 0.929 . S
H2064 C2072 0.929 . S
H2065 C2074 0.930 . S
H2066 C2076 0.930 . S
H2067 C2079 0.929 . S
H2068 C2082 0.930 . S
H2069 C2084 0.960 . S
H2070 C2084 0.960 . S
H2071 C2084 0.960 . S
C2072 H2064 0.929 . S
C2072 C2073 1.377 . S
C2072 C2074 1.384 . S
C2073 C2072 1.377 . S
C2073 C2079 1.390 . S
C2074 H2065 0.930 . S
C2074 C2072 1.384 . S
C2074 C2075 1.372 . S
C2075 C2074 1.372 . S
C2075 C2076 1.400 . S
C2075 C2080 1.490 . S
C2076 H2066 0.930 . S
C2076 C2075 1.400 . S
C2076 C2079 1.386 . S
H2077 C2093 0.930 . S
H2078 C2094 0.931 . S
C2079 H2067 0.929 . S
C2079 C2073 1.390 . S
C2079 C2076 1.386 . S
C2080 C2075 1.490 . S
C2080 C2082 1.395 . S
C2080 C2083 1.403 . S
H2081 C2087 0.930 . S
C2082 H2068 0.930 . S
C2082 C2080 1.395 . S
C2082 C2085 1.403 . S
C2083 C2080 1.403 . S
C2083 C2084 1.524 . S
C2083 C2087 1.400 . S
C2084 H2069 0.960 . S
C2084 H2070 0.960 . S
C2084 H2071 0.960 . S
C2084 C2083 1.524 . S
C2085 C2082 1.403 . S
C2085 C2086 1.392 . S
C2085 C2089 1.495 . S
C2086 C2085 1.392 . S
C2086 C2087 1.385 . S
C2086 C2088 1.478 . S
C2087 H2081 0.930 . S
C2087 C2083 1.400 . S
C2087 C2086 1.385 . S
C2088 C2086 1.478 . S
C2088 C2090 1.381 . S
C2088 C2094 1.383 . S
C2089 C2085 1.495 . S
C2089 H2095 0.959 . S
C2089 H2096 0.961 . S
C2089 H2097 0.960 . S
C2090 C2088 1.381 . S
C2090 C2091 1.394 . S
C2090 H2098 0.930 . S
C2091 C2090 1.394 . S
C2091 C2092 1.383 . S
C2091 H2099 0.929 . S
C2092 C2091 1.383 . S
C2092 C2093 1.377 . S
C2093 H2077 0.930 . S
C2093 C2092 1.377 . S
C2093 C2094 1.379 . S
C2094 H2078 0.931 . S
C2094 C2088 1.383 . S
C2094 C2093 1.379 . S
H2095 C2089 0.959 . S
H2096 C2089 0.961 . S
H2097 C2089 0.960 . S
H2098 C2090 0.930 . S
H2099 C2091 0.929 . S
H2100 C2108 0.929 . S
H2101 C2110 0.930 . S
H2102 C2112 0.930 . S
H2103 C2115 0.929 . S
H2104 C2118 0.930 . S
H2105 C2120 0.960 . S
H2106 C2120 0.960 . S
H2107 C2120 0.960 . S
C2108 H2100 0.929 . S
C2108 C2109 1.377 . S
C2108 C2110 1.384 . S
C2109 C2108 1.377 . S
C2109 C2115 1.390 . S
C2110 H2101 0.930 . S
C2110 C2108 1.384 . S
C2110 C2111 1.372 . S
C2111 C2110 1.372 . S
C2111 C2112 1.400 . S
C2111 C2116 1.490 . S
C2112 H2102 0.930 . S
C2112 C2111 1.400 . S
C2112 C2115 1.386 . S
H2113 C2129 0.930 . S
H2114 C2130 0.931 . S
C2115 H2103 0.929 . S
C2115 C2109 1.390 . S
C2115 C2112 1.386 . S
C2116 C2111 1.490 . S
C2116 C2118 1.395 . S
C2116 C2119 1.403 . S
H2117 C2123 0.930 . S
C2118 H2104 0.930 . S
C2118 C2116 1.395 . S
C2118 C2121 1.403 . S
C2119 C2116 1.403 . S
C2119 C2120 1.524 . S
C2119 C2123 1.400 . S
C2120 H2105 0.960 . S
C2120 H2106 0.960 . S
C2120 H2107 0.960 . S
C2120 C2119 1.524 . S
C2121 C2118 1.403 . S
C2121 C2122 1.392 . S
C2121 C2125 1.495 . S
C2122 C2121 1.392 . S
C2122 C2123 1.385 . S
C2122 C2124 1.478 . S
C2123 H2117 0.930 . S
C2123 C2119 1.400 . S
C2123 C2122 1.385 . S
C2124 C2122 1.478 . S
C2124 C2126 1.381 . S
C2124 C2130 1.383 . S
C2125 C2121 1.495 . S
C2125 H2131 0.959 . S
C2125 H2132 0.961 . S
C2125 H2133 0.960 . S
C2126 C2124 1.381 . S
C2126 C2127 1.394 . S
C2126 H2134 0.930 . S
C2127 C2126 1.394 . S
C2127 C2128 1.383 . S
C2127 H2135 0.929 . S
C2128 C2127 1.383 . S
C2128 C2129 1.377 . S
C2129 H2113 0.930 . S
C2129 C2128 1.377 . S
C2129 C2130 1.379 . S
C2130 H2114 0.931 . S
C2130 C2124 1.383 . S
C2130 C2129 1.379 . S
H2131 C2125 0.959 . S
H2132 C2125 0.961 . S
H2133 C2125 0.960 . S
H2134 C2126 0.930 . S
H2135 C2127 0.929 . S
H2136 C2144 0.929 . S
H2137 C2146 0.930 . S
H2138 C2148 0.930 . S
H2139 C2151 0.929 . S
H2140 C2154 0.930 . S
H2141 C2156 0.960 . S
H2142 C2156 0.960 . S
H2143 C2156 0.960 . S
C2144 H2136 0.929 . S
C2144 C2145 1.377 . S
C2144 C2146 1.384 . S
C2145 C2144 1.377 . S
C2145 C2151 1.390 . S
C2146 H2137 0.930 . S
C2146 C2144 1.384 . S
C2146 C2147 1.372 . S
C2147 C2146 1.372 . S
C2147 C2148 1.400 . S
C2147 C2152 1.490 . S
C2148 H2138 0.930 . S
C2148 C2147 1.400 . S
C2148 C2151 1.386 . S
H2149 C2165 0.930 . S
H2150 C2166 0.931 . S
C2151 H2139 0.929 . S
C2151 C2145 1.390 . S
C2151 C2148 1.386 . S
C2152 C2147 1.490 . S
C2152 C2154 1.395 . S
C2152 C2155 1.403 . S
H2153 C2159 0.930 . S
C2154 H2140 0.930 . S
C2154 C2152 1.395 . S
C2154 C2157 1.403 . S
C2155 C2152 1.403 . S
C2155 C2156 1.524 . S
C2155 C2159 1.400 . S
C2156 H2141 0.960 . S
C2156 H2142 0.960 . S
C2156 H2143 0.960 . S
C2156 C2155 1.524 . S
C2157 C2154 1.403 . S
C2157 C2158 1.392 . S
C2157 C2161 1.495 . S
C2158 C2157 1.392 . S
C2158 C2159 1.385 . S
C2158 C2160 1.478 . S
C2159 H2153 0.930 . S
C2159 C2155 1.400 . S
C2159 C2158 1.385 . S
C2160 C2158 1.478 . S
C2160 C2162 1.381 . S
C2160 C2166 1.383 . S
C2161 C2157 1.495 . S
C2161 H2167 0.959 . S
C2161 H2168 0.961 . S
C2161 H2169 0.960 . S
C2162 C2160 1.381 . S
C2162 C2163 1.394 . S
C2162 H2170 0.930 . S
C2163 C2162 1.394 . S
C2163 C2164 1.383 . S
C2163 H2171 0.929 . S
C2164 C2163 1.383 . S
C2164 C2165 1.377 . S
C2165 H2149 0.930 . S
C2165 C2164 1.377 . S
C2165 C2166 1.379 . S
C2166 H2150 0.931 . S
C2166 C2160 1.383 . S
C2166 C2165 1.379 . S
H2167 C2161 0.959 . S
H2168 C2161 0.961 . S
H2169 C2161 0.960 . S
H2170 C2162 0.930 . S
H2171 C2163 0.929 . S
H2172 C2180 0.929 . S
H2173 C2182 0.930 . S
H2174 C2184 0.930 . S
H2175 C2187 0.929 . S
H2176 C2190 0.930 . S
H2177 C2192 0.960 . S
H2178 C2192 0.960 . S
H2179 C2192 0.960 . S
C2180 H2172 0.929 . S
C2180 C2181 1.377 . S
C2180 C2182 1.384 . S
C2181 C2180 1.377 . S
C2181 C2187 1.390 . S
C2182 H2173 0.930 . S
C2182 C2180 1.384 . S
C2182 C2183 1.372 . S
C2183 C2182 1.372 . S
C2183 C2184 1.400 . S
C2183 C2188 1.490 . S
C2184 H2174 0.930 . S
C2184 C2183 1.400 . S
C2184 C2187 1.386 . S
H2185 C2201 0.930 . S
H2186 C2202 0.931 . S
C2187 H2175 0.929 . S
C2187 C2181 1.390 . S
C2187 C2184 1.386 . S
C2188 C2183 1.490 . S
C2188 C2190 1.395 . S
C2188 C2191 1.403 . S
H2189 C2195 0.930 . S
C2190 H2176 0.930 . S
C2190 C2188 1.395 . S
C2190 C2193 1.403 . S
C2191 C2188 1.403 . S
C2191 C2192 1.524 . S
C2191 C2195 1.400 . S
C2192 H2177 0.960 . S
C2192 H2178 0.960 . S
C2192 H2179 0.960 . S
C2192 C2191 1.524 . S
C2193 C2190 1.403 . S
C2193 C2194 1.392 . S
C2193 C2197 1.495 . S
C2194 C2193 1.392 . S
C2194 C2195 1.385 . S
C2194 C2196 1.478 . S
C2195 H2189 0.930 . S
C2195 C2191 1.400 . S
C2195 C2194 1.385 . S
C2196 C2194 1.478 . S
C2196 C2198 1.381 . S
C2196 C2202 1.383 . S
C2197 C2193 1.495 . S
C2197 H2203 0.959 . S
C2197 H2204 0.961 . S
C2197 H2205 0.960 . S
C2198 C2196 1.381 . S
C2198 C2199 1.394 . S
C2198 H2206 0.930 . S
C2199 C2198 1.394 . S
C2199 C2200 1.383 . S
C2199 H2207 0.929 . S
C2200 C2199 1.383 . S
C2200 C2201 1.377 . S
C2201 H2185 0.930 . S
C2201 C2200 1.377 . S
C2201 C2202 1.379 . S
C2202 H2186 0.931 . S
C2202 C2196 1.383 . S
C2202 C2201 1.379 . S
H2203 C2197 0.959 . S
H2204 C2197 0.961 . S
H2205 C2197 0.960 . S
H2206 C2198 0.930 . S
H2207 C2199 0.929 . S
H2208 C2216 0.929 . S
H2209 C2218 0.930 . S
H2210 C2220 0.930 . S
H2211 C2223 0.929 . S
H2212 C2226 0.930 . S
H2213 C2228 0.960 . S
H2214 C2228 0.960 . S
H2215 C2228 0.960 . S
C2216 H2208 0.929 . S
C2216 C2217 1.377 . S
C2216 C2218 1.384 . S
C2217 C2216 1.377 . S
C2217 C2223 1.390 . S
C2218 H2209 0.930 . S
C2218 C2216 1.384 . S
C2218 C2219 1.372 . S
C2219 C2218 1.372 . S
C2219 C2220 1.400 . S
C2219 C2224 1.490 . S
C2220 H2210 0.930 . S
C2220 C2219 1.400 . S
C2220 C2223 1.386 . S
H2221 C2237 0.930 . S
H2222 C2238 0.931 . S
C2223 H2211 0.929 . S
C2223 C2217 1.390 . S
C2223 C2220 1.386 . S
C2224 C2219 1.490 . S
C2224 C2226 1.395 . S
C2224 C2227 1.403 . S
H2225 C2231 0.930 . S
C2226 H2212 0.930 . S
C2226 C2224 1.395 . S
C2226 C2229 1.403 . S
C2227 C2224 1.403 . S
C2227 C2228 1.524 . S
C2227 C2231 1.400 . S
C2228 H2213 0.960 . S
C2228 H2214 0.960 . S
C2228 H2215 0.960 . S
C2228 C2227 1.524 . S
C2229 C2226 1.403 . S
C2229 C2230 1.392 . S
C2229 C2233 1.495 . S
C2230 C2229 1.392 . S
C2230 C2231 1.385 . S
C2230 C2232 1.478 . S
C2231 H2225 0.930 . S
C2231 C2227 1.400 . S
C2231 C2230 1.385 . S
C2232 C2230 1.478 . S
C2232 C2234 1.381 . S
C2232 C2238 1.383 . S
C2233 C2229 1.495 . S
C2233 H2239 0.959 . S
C2233 H2240 0.961 . S
C2233 H2241 0.960 . S
C2234 C2232 1.381 . S
C2234 C2235 1.394 . S
C2234 H2242 0.930 . S
C2235 C2234 1.394 . S
C2235 C2236 1.383 . S
C2235 H2243 0.929 . S
C2236 C2235 1.383 . S
C2236 C2237 1.377 . S
C2237 H2221 0.930 . S
C2237 C2236 1.377 . S
C2237 C2238 1.379 . S
C2238 H2222 0.931 . S
C2238 C2232 1.383 . S
C2238 C2237 1.379 . S
H2239 C2233 0.959 . S
H2240 C2233 0.961 . S
H2241 C2233 0.960 . S
H2242 C2234 0.930 . S
H2243 C2235 0.929 . S
H2244 C2252 0.929 . S
H2245 C2254 0.930 . S
H2246 C2256 0.930 . S
H2247 C2259 0.929 . S
H2248 C2262 0.930 . S
H2249 C2264 0.960 . S
H2250 C2264 0.960 . S
H2251 C2264 0.960 . S
C2252 H2244 0.929 . S
C2252 C2253 1.377 . S
C2252 C2254 1.384 . S
C2253 C2252 1.377 . S
C2253 C2259 1.390 . S
C2254 H2245 0.930 . S
C2254 C2252 1.384 . S
C2254 C2255 1.372 . S
C2255 C2254 1.372 . S
C2255 C2256 1.400 . S
C2255 C2260 1.490 . S
C2256 H2246 0.930 . S
C2256 C2255 1.400 . S
C2256 C2259 1.386 . S
H2257 C2273 0.930 . S
H2258 C2274 0.931 . S
C2259 H2247 0.929 . S
C2259 C2253 1.390 . S
C2259 C2256 1.386 . S
C2260 C2255 1.490 . S
C2260 C2262 1.395 . S
C2260 C2263 1.403 . S
H2261 C2267 0.930 . S
C2262 H2248 0.930 . S
C2262 C2260 1.395 . S
C2262 C2265 1.403 . S
C2263 C2260 1.403 . S
C2263 C2264 1.524 . S
C2263 C2267 1.400 . S
C2264 H2249 0.960 . S
C2264 H2250 0.960 . S
C2264 H2251 0.960 . S
C2264 C2263 1.524 . S
C2265 C2262 1.403 . S
C2265 C2266 1.392 . S
C2265 C2269 1.495 . S
C2266 C2265 1.392 . S
C2266 C2267 1.385 . S
C2266 C2268 1.478 . S
C2267 H2261 0.930 . S
C2267 C2263 1.400 . S
C2267 C2266 1.385 . S
C2268 C2266 1.478 . S
C2268 C2270 1.381 . S
C2268 C2274 1.383 . S
C2269 C2265 1.495 . S
C2269 H2275 0.959 . S
C2269 H2276 0.961 . S
C2269 H2277 0.960 . S
C2270 C2268 1.381 . S
C2270 C2271 1.394 . S
C2270 H2278 0.930 . S
C2271 C2270 1.394 . S
C2271 C2272 1.383 . S
C2271 H2279 0.929 . S
C2272 C2271 1.383 . S
C2272 C2273 1.377 . S
C2273 H2257 0.930 . S
C2273 C2272 1.377 . S
C2273 C2274 1.379 . S
C2274 H2258 0.931 . S
C2274 C2268 1.383 . S
C2274 C2273 1.379 . S
H2275 C2269 0.959 . S
H2276 C2269 0.961 . S
H2277 C2269 0.960 . S
H2278 C2270 0.930 . S
H2279 C2271 0.929 . S
H2280 C2288 0.929 . S
H2281 C2290 0.930 . S
H2282 C2292 0.930 . S
H2283 C2295 0.929 . S
H2284 C2298 0.930 . S
H2285 C2300 0.960 . S
H2286 C2300 0.960 . S
H2287 C2300 0.960 . S
C2288 H2280 0.929 . S
C2288 C2289 1.377 . S
C2288 C2290 1.384 . S
C2289 C2288 1.377 . S
C2289 C2295 1.390 . S
C2290 H2281 0.930 . S
C2290 C2288 1.384 . S
C2290 C2291 1.372 . S
C2291 C2290 1.372 . S
C2291 C2292 1.400 . S
C2291 C2296 1.490 . S
C2292 H2282 0.930 . S
C2292 C2291 1.400 . S
C2292 C2295 1.386 . S
H2293 C2309 0.930 . S
H2294 C2310 0.931 . S
C2295 H2283 0.929 . S
C2295 C2289 1.390 . S
C2295 C2292 1.386 . S
C2296 C2291 1.490 . S
C2296 C2298 1.395 . S
C2296 C2299 1.403 . S
H2297 C2303 0.930 . S
C2298 H2284 0.930 . S
C2298 C2296 1.395 . S
C2298 C2301 1.403 . S
C2299 C2296 1.403 . S
C2299 C2300 1.524 . S
C2299 C2303 1.400 . S
C2300 H2285 0.960 . S
C2300 H2286 0.960 . S
C2300 H2287 0.960 . S
C2300 C2299 1.524 . S
C2301 C2298 1.403 . S
C2301 C2302 1.392 . S
C2301 C2305 1.495 . S
C2302 C2301 1.392 . S
C2302 C2303 1.385 . S
C2302 C2304 1.478 . S
C2303 H2297 0.930 . S
C2303 C2299 1.400 . S
C2303 C2302 1.385 . S
C2304 C2302 1.478 . S
C2304 C2306 1.381 . S
C2304 C2310 1.383 . S
C2305 C2301 1.495 . S
C2305 H2311 0.959 . S
C2305 H2312 0.961 . S
C2305 H2313 0.960 . S
C2306 C2304 1.381 . S
C2306 C2307 1.394 . S
C2306 H2314 0.930 . S
C2307 C2306 1.394 . S
C2307 C2308 1.383 . S
C2307 H2315 0.929 . S
C2308 C2307 1.383 . S
C2308 C2309 1.377 . S
C2309 H2293 0.930 . S
C2309 C2308 1.377 . S
C2309 C2310 1.379 . S
C2310 H2294 0.931 . S
C2310 C2304 1.383 . S
C2310 C2309 1.379 . S
H2311 C2305 0.959 . S
H2312 C2305 0.961 . S
H2313 C2305 0.960 . S
H2314 C2306 0.930 . S
H2315 C2307 0.929 . S
H2316 C2324 0.929 . S
H2317 C2326 0.930 . S
H2318 C2328 0.930 . S
H2319 C2331 0.929 . S
H2320 C2334 0.930 . S
H2321 C2336 0.960 . S
H2322 C2336 0.960 . S
H2323 C2336 0.960 . S
C2324 H2316 0.929 . S
C2324 C2325 1.377 . S
C2324 C2326 1.384 . S
C2325 C2324 1.377 . S
C2325 C2331 1.390 . S
C2326 H2317 0.930 . S
C2326 C2324 1.384 . S
C2326 C2327 1.372 . S
C2327 C2326 1.372 . S
C2327 C2328 1.400 . S
C2327 C2332 1.490 . S
C2328 H2318 0.930 . S
C2328 C2327 1.400 . S
C2328 C2331 1.386 . S
H2329 C2345 0.930 . S
H2330 C2346 0.931 . S
C2331 H2319 0.929 . S
C2331 C2325 1.390 . S
C2331 C2328 1.386 . S
C2332 C2327 1.490 . S
C2332 C2334 1.395 . S
C2332 C2335 1.403 . S
H2333 C2339 0.930 . S
C2334 H2320 0.930 . S
C2334 C2332 1.395 . S
C2334 C2337 1.403 . S
C2335 C2332 1.403 . S
C2335 C2336 1.524 . S
C2335 C2339 1.400 . S
C2336 H2321 0.960 . S
C2336 H2322 0.960 . S
C2336 H2323 0.960 . S
C2336 C2335 1.524 . S
C2337 C2334 1.403 . S
C2337 C2338 1.392 . S
C2337 C2341 1.495 . S
C2338 C2337 1.392 . S
C2338 C2339 1.385 . S
C2338 C2340 1.478 . S
C2339 H2333 0.930 . S
C2339 C2335 1.400 . S
C2339 C2338 1.385 . S
C2340 C2338 1.478 . S
C2340 C2342 1.381 . S
C2340 C2346 1.383 . S
C2341 C2337 1.495 . S
C2341 H2347 0.959 . S
C2341 H2348 0.961 . S
C2341 H2349 0.960 . S
C2342 C2340 1.381 . S
C2342 C2343 1.394 . S
C2342 H2350 0.930 . S
C2343 C2342 1.394 . S
C2343 C2344 1.383 . S
C2343 H2351 0.929 . S
C2344 C2343 1.383 . S
C2344 C2345 1.377 . S
C2345 H2329 0.930 . S
C2345 C2344 1.377 . S
C2345 C2346 1.379 . S
C2346 H2330 0.931 . S
C2346 C2340 1.383 . S
C2346 C2345 1.379 . S
H2347 C2341 0.959 . S
H2348 C2341 0.961 . S
H2349 C2341 0.960 . S
H2350 C2342 0.930 . S
H2351 C2343 0.929 . S
H2352 C2360 0.929 . S
H2353 C2362 0.930 . S
H2354 C2364 0.930 . S
H2355 C2367 0.929 . S
H2356 C2370 0.930 . S
H2357 C2372 0.960 . S
H2358 C2372 0.960 . S
H2359 C2372 0.960 . S
C2360 H2352 0.929 . S
C2360 C2361 1.377 . S
C2360 C2362 1.384 . S
C2361 C2360 1.377 . S
C2361 C2367 1.390 . S
C2362 H2353 0.930 . S
C2362 C2360 1.384 . S
C2362 C2363 1.372 . S
C2363 C2362 1.372 . S
C2363 C2364 1.400 . S
C2363 C2368 1.490 . S
C2364 H2354 0.930 . S
C2364 C2363 1.400 . S
C2364 C2367 1.386 . S
H2365 C2381 0.930 . S
H2366 C2382 0.931 . S
C2367 H2355 0.929 . S
C2367 C2361 1.390 . S
C2367 C2364 1.386 . S
C2368 C2363 1.490 . S
C2368 C2370 1.395 . S
C2368 C2371 1.403 . S
H2369 C2375 0.930 . S
C2370 H2356 0.930 . S
C2370 C2368 1.395 . S
C2370 C2373 1.403 . S
C2371 C2368 1.403 . S
C2371 C2372 1.524 . S
C2371 C2375 1.400 . S
C2372 H2357 0.960 . S
C2372 H2358 0.960 . S
C2372 H2359 0.960 . S
C2372 C2371 1.524 . S
C2373 C2370 1.403 . S
C2373 C2374 1.392 . S
C2373 C2377 1.495 . S
C2374 C2373 1.392 . S
C2374 C2375 1.385 . S
C2374 C2376 1.478 . S
C2375 H2369 0.930 . S
C2375 C2371 1.400 . S
C2375 C2374 1.385 . S
C2376 C2374 1.478 . S
C2376 C2378 1.381 . S
C2376 C2382 1.383 . S
C2377 C2373 1.495 . S
C2377 H2383 0.959 . S
C2377 H2384 0.961 . S
C2377 H2385 0.960 . S
C2378 C2376 1.381 . S
C2378 C2379 1.394 . S
C2378 H2386 0.930 . S
C2379 C2378 1.394 . S
C2379 C2380 1.383 . S
C2379 H2387 0.929 . S
C2380 C2379 1.383 . S
C2380 C2381 1.377 . S
C2381 H2365 0.930 . S
C2381 C2380 1.377 . S
C2381 C2382 1.379 . S
C2382 H2366 0.931 . S
C2382 C2376 1.383 . S
C2382 C2381 1.379 . S
H2383 C2377 0.959 . S
H2384 C2377 0.961 . S
H2385 C2377 0.960 . S
H2386 C2378 0.930 . S
H2387 C2379 0.929 . S
H2388 C2396 0.929 . S
H2389 C2398 0.930 . S
H2390 C2400 0.930 . S
H2391 C2403 0.929 . S
H2392 C2406 0.930 . S
H2393 C2408 0.960 . S
H2394 C2408 0.960 . S
H2395 C2408 0.960 . S
C2396 H2388 0.929 . S
C2396 C2397 1.377 . S
C2396 C2398 1.384 . S
C2397 C2396 1.377 . S
C2397 C2403 1.390 . S
C2398 H2389 0.930 . S
C2398 C2396 1.384 . S
C2398 C2399 1.372 . S
C2399 C2398 1.372 . S
C2399 C2400 1.400 . S
C2399 C2404 1.490 . S
C2400 H2390 0.930 . S
C2400 C2399 1.400 . S
C2400 C2403 1.386 . S
H2401 C2417 0.930 . S
H2402 C2418 0.931 . S
C2403 H2391 0.929 . S
C2403 C2397 1.390 . S
C2403 C2400 1.386 . S
C2404 C2399 1.490 . S
C2404 C2406 1.395 . S
C2404 C2407 1.403 . S
H2405 C2411 0.930 . S
C2406 H2392 0.930 . S
C2406 C2404 1.395 . S
C2406 C2409 1.403 . S
C2407 C2404 1.403 . S
C2407 C2408 1.524 . S
C2407 C2411 1.400 . S
C2408 H2393 0.960 . S
C2408 H2394 0.960 . S
C2408 H2395 0.960 . S
C2408 C2407 1.524 . S
C2409 C2406 1.403 . S
C2409 C2410 1.392 . S
C2409 C2413 1.495 . S
C2410 C2409 1.392 . S
C2410 C2411 1.385 . S
C2410 C2412 1.478 . S
C2411 H2405 0.930 . S
C2411 C2407 1.400 . S
C2411 C2410 1.385 . S
C2412 C2410 1.478 . S
C2412 C2414 1.381 . S
C2412 C2418 1.383 . S
C2413 C2409 1.495 . S
C2413 H2419 0.959 . S
C2413 H2420 0.961 . S
C2413 H2421 0.960 . S
C2414 C2412 1.381 . S
C2414 C2415 1.394 . S
C2414 H2422 0.930 . S
C2415 C2414 1.394 . S
C2415 C2416 1.383 . S
C2415 H2423 0.929 . S
C2416 C2415 1.383 . S
C2416 C2417 1.377 . S
C2417 H2401 0.930 . S
C2417 C2416 1.377 . S
C2417 C2418 1.379 . S
C2418 H2402 0.931 . S
C2418 C2412 1.383 . S
C2418 C2417 1.379 . S
H2419 C2413 0.959 . S
H2420 C2413 0.961 . S
H2421 C2413 0.960 . S
H2422 C2414 0.930 . S
H2423 C2415 0.929 . S
H2424 C2432 0.929 . S
H2425 C2434 0.930 . S
H2426 C2436 0.930 . S
H2427 C2439 0.929 . S
H2428 C2442 0.930 . S
H2429 C2444 0.960 . S
H2430 C2444 0.960 . S
H2431 C2444 0.960 . S
C2432 H2424 0.929 . S
C2432 C2433 1.377 . S
C2432 C2434 1.384 . S
C2433 C2432 1.377 . S
C2433 C2439 1.390 . S
C2434 H2425 0.930 . S
C2434 C2432 1.384 . S
C2434 C2435 1.372 . S
C2435 C2434 1.372 . S
C2435 C2436 1.400 . S
C2435 C2440 1.490 . S
C2436 H2426 0.930 . S
C2436 C2435 1.400 . S
C2436 C2439 1.386 . S
H2437 C2453 0.930 . S
H2438 C2454 0.931 . S
C2439 H2427 0.929 . S
C2439 C2433 1.390 . S
C2439 C2436 1.386 . S
C2440 C2435 1.490 . S
C2440 C2442 1.395 . S
C2440 C2443 1.403 . S
H2441 C2447 0.930 . S
C2442 H2428 0.930 . S
C2442 C2440 1.395 . S
C2442 C2445 1.403 . S
C2443 C2440 1.403 . S
C2443 C2444 1.524 . S
C2443 C2447 1.400 . S
C2444 H2429 0.960 . S
C2444 H2430 0.960 . S
C2444 H2431 0.960 . S
C2444 C2443 1.524 . S
C2445 C2442 1.403 . S
C2445 C2446 1.392 . S
C2445 C2449 1.495 . S
C2446 C2445 1.392 . S
C2446 C2447 1.385 . S
C2446 C2448 1.478 . S
C2447 H2441 0.930 . S
C2447 C2443 1.400 . S
C2447 C2446 1.385 . S
C2448 C2446 1.478 . S
C2448 C2450 1.381 . S
C2448 C2454 1.383 . S
C2449 C2445 1.495 . S
C2449 H2455 0.959 . S
C2449 H2456 0.961 . S
C2449 H2457 0.960 . S
C2450 C2448 1.381 . S
C2450 C2451 1.394 . S
C2450 H2458 0.930 . S
C2451 C2450 1.394 . S
C2451 C2452 1.383 . S
C2451 H2459 0.929 . S
C2452 C2451 1.383 . S
C2452 C2453 1.377 . S
C2453 H2437 0.930 . S
C2453 C2452 1.377 . S
C2453 C2454 1.379 . S
C2454 H2438 0.931 . S
C2454 C2448 1.383 . S
C2454 C2453 1.379 . S
H2455 C2449 0.959 . S
H2456 C2449 0.961 . S
H2457 C2449 0.960 . S
H2458 C2450 0.930 . S
H2459 C2451 0.929 . S
H2460 C2468 0.929 . S
H2461 C2470 0.930 . S
H2462 C2472 0.930 . S
H2463 C2475 0.929 . S
H2464 C2478 0.930 . S
H2465 C2480 0.960 . S
H2466 C2480 0.960 . S
H2467 C2480 0.960 . S
C2468 H2460 0.929 . S
C2468 C2469 1.377 . S
C2468 C2470 1.384 . S
C2469 C2468 1.377 . S
C2469 C2475 1.390 . S
C2470 H2461 0.930 . S
C2470 C2468 1.384 . S
C2470 C2471 1.372 . S
C2471 C2470 1.372 . S
C2471 C2472 1.400 . S
C2471 C2476 1.490 . S
C2472 H2462 0.930 . S
C2472 C2471 1.400 . S
C2472 C2475 1.386 . S
H2473 C2489 0.930 . S
H2474 C2490 0.931 . S
C2475 H2463 0.929 . S
C2475 C2469 1.390 . S
C2475 C2472 1.386 . S
C2476 C2471 1.490 . S
C2476 C2478 1.395 . S
C2476 C2479 1.403 . S
H2477 C2483 0.930 . S
C2478 H2464 0.930 . S
C2478 C2476 1.395 . S
C2478 C2481 1.403 . S
C2479 C2476 1.403 . S
C2479 C2480 1.524 . S
C2479 C2483 1.400 . S
C2480 H2465 0.960 . S
C2480 H2466 0.960 . S
C2480 H2467 0.960 . S
C2480 C2479 1.524 . S
C2481 C2478 1.403 . S
C2481 C2482 1.392 . S
C2481 C2485 1.495 . S
C2482 C2481 1.392 . S
C2482 C2483 1.385 . S
C2482 C2484 1.478 . S
C2483 H2477 0.930 . S
C2483 C2479 1.400 . S
C2483 C2482 1.385 . S
C2484 C2482 1.478 . S
C2484 C2486 1.381 . S
C2484 C2490 1.383 . S
C2485 C2481 1.495 . S
C2485 H2491 0.959 . S
C2485 H2492 0.961 . S
C2485 H2493 0.960 . S
C2486 C2484 1.381 . S
C2486 C2487 1.394 . S
C2486 H2494 0.930 . S
C2487 C2486 1.394 . S
C2487 C2488 1.383 . S
C2487 H2495 0.929 . S
C2488 C2487 1.383 . S
C2488 C2489 1.377 . S
C2489 H2473 0.930 . S
C2489 C2488 1.377 . S
C2489 C2490 1.379 . S
C2490 H2474 0.931 . S
C2490 C2484 1.383 . S
C2490 C2489 1.379 . S
H2491 C2485 0.959 . S
H2492 C2485 0.961 . S
H2493 C2485 0.960 . S
H2494 C2486 0.930 . S
H2495 C2487 0.929 . S
H2496 C2504 0.929 . S
H2497 C2506 0.930 . S
H2498 C2508 0.930 . S
H2499 C2511 0.929 . S
H2500 C2514 0.930 . S
H2501 C2516 0.960 . S
H2502 C2516 0.960 . S
H2503 C2516 0.960 . S
C2504 H2496 0.929 . S
C2504 C2505 1.377 . S
C2504 C2506 1.384 . S
C2505 C2504 1.377 . S
C2505 C2511 1.390 . S
C2506 H2497 0.930 . S
C2506 C2504 1.384 . S
C2506 C2507 1.372 . S
C2507 C2506 1.372 . S
C2507 C2508 1.400 . S
C2507 C2512 1.490 . S
C2508 H2498 0.930 . S
C2508 C2507 1.400 . S
C2508 C2511 1.386 . S
H2509 C2525 0.930 . S
H2510 C2526 0.931 . S
C2511 H2499 0.929 . S
C2511 C2505 1.390 . S
C2511 C2508 1.386 . S
C2512 C2507 1.490 . S
C2512 C2514 1.395 . S
C2512 C2515 1.403 . S
H2513 C2519 0.930 . S
C2514 H2500 0.930 . S
C2514 C2512 1.395 . S
C2514 C2517 1.403 . S
C2515 C2512 1.403 . S
C2515 C2516 1.524 . S
C2515 C2519 1.400 . S
C2516 H2501 0.960 . S
C2516 H2502 0.960 . S
C2516 H2503 0.960 . S
C2516 C2515 1.524 . S
C2517 C2514 1.403 . S
C2517 C2518 1.392 . S
C2517 C2521 1.495 . S
C2518 C2517 1.392 . S
C2518 C2519 1.385 . S
C2518 C2520 1.478 . S
C2519 H2513 0.930 . S
C2519 C2515 1.400 . S
C2519 C2518 1.385 . S
C2520 C2518 1.478 . S
C2520 C2522 1.381 . S
C2520 C2526 1.383 . S
C2521 C2517 1.495 . S
C2521 H2527 0.959 . S
C2521 H2528 0.961 . S
C2521 H2529 0.960 . S
C2522 C2520 1.381 . S
C2522 C2523 1.394 . S
C2522 H2530 0.930 . S
C2523 C2522 1.394 . S
C2523 C2524 1.383 . S
C2523 H2531 0.929 . S
C2524 C2523 1.383 . S
C2524 C2525 1.377 . S
C2525 H2509 0.930 . S
C2525 C2524 1.377 . S
C2525 C2526 1.379 . S
C2526 H2510 0.931 . S
C2526 C2520 1.383 . S
C2526 C2525 1.379 . S
H2527 C2521 0.959 . S
H2528 C2521 0.961 . S
H2529 C2521 0.960 . S
H2530 C2522 0.930 . S
H2531 C2523 0.929 . S
H2532 C2540 0.929 . S
H2533 C2542 0.930 . S
H2534 C2544 0.930 . S
H2535 C2547 0.929 . S
H2536 C2550 0.930 . S
H2537 C2552 0.960 . S
H2538 C2552 0.960 . S
H2539 C2552 0.960 . S
C2540 H2532 0.929 . S
C2540 C2541 1.377 . S
C2540 C2542 1.384 . S
C2541 C2540 1.377 . S
C2541 C2547 1.390 . S
C2542 H2533 0.930 . S
C2542 C2540 1.384 . S
C2542 C2543 1.372 . S
C2543 C2542 1.372 . S
C2543 C2544 1.400 . S
C2543 C2548 1.490 . S
C2544 H2534 0.930 . S
C2544 C2543 1.400 . S
C2544 C2547 1.386 . S
H2545 C2561 0.930 . S
H2546 C2562 0.931 . S
C2547 H2535 0.929 . S
C2547 C2541 1.390 . S
C2547 C2544 1.386 . S
C2548 C2543 1.490 . S
C2548 C2550 1.395 . S
C2548 C2551 1.403 . S
H2549 C2555 0.930 . S
C2550 H2536 0.930 . S
C2550 C2548 1.395 . S
C2550 C2553 1.403 . S
C2551 C2548 1.403 . S
C2551 C2552 1.524 . S
C2551 C2555 1.400 . S
C2552 H2537 0.960 . S
C2552 H2538 0.960 . S
C2552 H2539 0.960 . S
C2552 C2551 1.524 . S
C2553 C2550 1.403 . S
C2553 C2554 1.392 . S
C2553 C2557 1.495 . S
C2554 C2553 1.392 . S
C2554 C2555 1.385 . S
C2554 C2556 1.478 . S
C2555 H2549 0.930 . S
C2555 C2551 1.400 . S
C2555 C2554 1.385 . S
C2556 C2554 1.478 . S
C2556 C2558 1.381 . S
C2556 C2562 1.383 . S
C2557 C2553 1.495 . S
C2557 H2563 0.959 . S
C2557 H2564 0.961 . S
C2557 H2565 0.960 . S
C2558 C2556 1.381 . S
C2558 C2559 1.394 . S
C2558 H2566 0.930 . S
C2559 C2558 1.394 . S
C2559 C2560 1.383 . S
C2559 H2567 0.929 . S
C2560 C2559 1.383 . S
C2560 C2561 1.377 . S
C2561 H2545 0.930 . S
C2561 C2560 1.377 . S
C2561 C2562 1.379 . S
C2562 H2546 0.931 . S
C2562 C2556 1.383 . S
C2562 C2561 1.379 . S
H2563 C2557 0.959 . S
H2564 C2557 0.961 . S
H2565 C2557 0.960 . S
H2566 C2558 0.930 . S
H2567 C2559 0.929 . S
H2568 C2576 0.929 . S
H2569 C2578 0.930 . S
H2570 C2580 0.930 . S
H2571 C2583 0.929 . S
H2572 C2586 0.930 . S
H2573 C2588 0.960 . S
H2574 C2588 0.960 . S
H2575 C2588 0.960 . S
C2576 H2568 0.929 . S
C2576 C2577 1.377 . S
C2576 C2578 1.384 . S
C2577 C2576 1.377 . S
C2577 C2583 1.390 . S
C2578 H2569 0.930 . S
C2578 C2576 1.384 . S
C2578 C2579 1.372 . S
C2579 C2578 1.372 . S
C2579 C2580 1.400 . S
C2579 C2584 1.490 . S
C2580 H2570 0.930 . S
C2580 C2579 1.400 . S
C2580 C2583 1.386 . S
H2581 C2597 0.930 . S
H2582 C2598 0.931 . S
C2583 H2571 0.929 . S
C2583 C2577 1.390 . S
C2583 C2580 1.386 . S
C2584 C2579 1.490 . S
C2584 C2586 1.395 . S
C2584 C2587 1.403 . S
H2585 C2591 0.930 . S
C2586 H2572 0.930 . S
C2586 C2584 1.395 . S
C2586 C2589 1.403 . S
C2587 C2584 1.403 . S
C2587 C2588 1.524 . S
C2587 C2591 1.400 . S
C2588 H2573 0.960 . S
C2588 H2574 0.960 . S
C2588 H2575 0.960 . S
C2588 C2587 1.524 . S
C2589 C2586 1.403 . S
C2589 C2590 1.392 . S
C2589 C2593 1.495 . S
C2590 C2589 1.392 . S
C2590 C2591 1.385 . S
C2590 C2592 1.478 . S
C2591 H2585 0.930 . S
C2591 C2587 1.400 . S
C2591 C2590 1.385 . S
C2592 C2590 1.478 . S
C2592 C2594 1.381 . S
C2592 C2598 1.383 . S
C2593 C2589 1.495 . S
C2593 H2599 0.959 . S
C2593 H2600 0.961 . S
C2593 H2601 0.960 . S
C2594 C2592 1.381 . S
C2594 C2595 1.394 . S
C2594 H2602 0.930 . S
C2595 C2594 1.394 . S
C2595 C2596 1.383 . S
C2595 H2603 0.929 . S
C2596 C2595 1.383 . S
C2596 C2597 1.377 . S
C2597 H2581 0.930 . S
C2597 C2596 1.377 . S
C2597 C2598 1.379 . S
C2598 H2582 0.931 . S
C2598 C2592 1.383 . S
C2598 C2597 1.379 . S
H2599 C2593 0.959 . S
H2600 C2593 0.961 . S
H2601 C2593 0.960 . S
H2602 C2594 0.930 . S
H2603 C2595 0.929 . S
H2604 C2612 0.929 . S
H2605 C2614 0.930 . S
H2606 C2616 0.930 . S
H2607 C2619 0.929 . S
H2608 C2622 0.930 . S
H2609 C2624 0.960 . S
H2610 C2624 0.960 . S
H2611 C2624 0.960 . S
C2612 H2604 0.929 . S
C2612 C2613 1.377 . S
C2612 C2614 1.384 . S
C2613 C2612 1.377 . S
C2613 C2619 1.390 . S
C2614 H2605 0.930 . S
C2614 C2612 1.384 . S
C2614 C2615 1.372 . S
C2615 C2614 1.372 . S
C2615 C2616 1.400 . S
C2615 C2620 1.490 . S
C2616 H2606 0.930 . S
C2616 C2615 1.400 . S
C2616 C2619 1.386 . S
H2617 C2633 0.930 . S
H2618 C2634 0.931 . S
C2619 H2607 0.929 . S
C2619 C2613 1.390 . S
C2619 C2616 1.386 . S
C2620 C2615 1.490 . S
C2620 C2622 1.395 . S
C2620 C2623 1.403 . S
H2621 C2627 0.930 . S
C2622 H2608 0.930 . S
C2622 C2620 1.395 . S
C2622 C2625 1.403 . S
C2623 C2620 1.403 . S
C2623 C2624 1.524 . S
C2623 C2627 1.400 . S
C2624 H2609 0.960 . S
C2624 H2610 0.960 . S
C2624 H2611 0.960 . S
C2624 C2623 1.524 . S
C2625 C2622 1.403 . S
C2625 C2626 1.392 . S
C2625 C2629 1.495 . S
C2626 C2625 1.392 . S
C2626 C2627 1.385 . S
C2626 C2628 1.478 . S
C2627 H2621 0.930 . S
C2627 C2623 1.400 . S
C2627 C2626 1.385 . S
C2628 C2626 1.478 . S
C2628 C2630 1.381 . S
C2628 C2634 1.383 . S
C2629 C2625 1.495 . S
C2629 H2635 0.959 . S
C2629 H2636 0.961 . S
C2629 H2637 0.960 . S
C2630 C2628 1.381 . S
C2630 C2631 1.394 . S
C2630 H2638 0.930 . S
C2631 C2630 1.394 . S
C2631 C2632 1.383 . S
C2631 H2639 0.929 . S
C2632 C2631 1.383 . S
C2632 C2633 1.377 . S
C2633 H2617 0.930 . S
C2633 C2632 1.377 . S
C2633 C2634 1.379 . S
C2634 H2618 0.931 . S
C2634 C2628 1.383 . S
C2634 C2633 1.379 . S
H2635 C2629 0.959 . S
H2636 C2629 0.961 . S
H2637 C2629 0.960 . S
H2638 C2630 0.930 . S
H2639 C2631 0.929 . S
H2640 C2648 0.929 . S
H2641 C2650 0.930 . S
H2642 C2652 0.930 . S
H2643 C2655 0.929 . S
H2644 C2658 0.930 . S
H2645 C2660 0.960 . S
H2646 C2660 0.960 . S
H2647 C2660 0.960 . S
C2648 H2640 0.929 . S
C2648 C2649 1.377 . S
C2648 C2650 1.384 . S
C2649 C2648 1.377 . S
C2649 C2655 1.390 . S
C2650 H2641 0.930 . S
C2650 C2648 1.384 . S
C2650 C2651 1.372 . S
C2651 C2650 1.372 . S
C2651 C2652 1.400 . S
C2651 C2656 1.490 . S
C2652 H2642 0.930 . S
C2652 C2651 1.400 . S
C2652 C2655 1.386 . S
H2653 C2669 0.930 . S
H2654 C2670 0.931 . S
C2655 H2643 0.929 . S
C2655 C2649 1.390 . S
C2655 C2652 1.386 . S
C2656 C2651 1.490 . S
C2656 C2658 1.395 . S
C2656 C2659 1.403 . S
H2657 C2663 0.930 . S
C2658 H2644 0.930 . S
C2658 C2656 1.395 . S
C2658 C2661 1.403 . S
C2659 C2656 1.403 . S
C2659 C2660 1.524 . S
C2659 C2663 1.400 . S
C2660 H2645 0.960 . S
C2660 H2646 0.960 . S
C2660 H2647 0.960 . S
C2660 C2659 1.524 . S
C2661 C2658 1.403 . S
C2661 C2662 1.392 . S
C2661 C2665 1.495 . S
C2662 C2661 1.392 . S
C2662 C2663 1.385 . S
C2662 C2664 1.478 . S
C2663 H2657 0.930 . S
C2663 C2659 1.400 . S
C2663 C2662 1.385 . S
C2664 C2662 1.478 . S
C2664 C2666 1.381 . S
C2664 C2670 1.383 . S
C2665 C2661 1.495 . S
C2665 H2671 0.959 . S
C2665 H2672 0.961 . S
C2665 H2673 0.960 . S
C2666 C2664 1.381 . S
C2666 C2667 1.394 . S
C2666 H2674 0.930 . S
C2667 C2666 1.394 . S
C2667 C2668 1.383 . S
C2667 H2675 0.929 . S
C2668 C2667 1.383 . S
C2668 C2669 1.377 . S
C2669 H2653 0.930 . S
C2669 C2668 1.377 . S
C2669 C2670 1.379 . S
C2670 H2654 0.931 . S
C2670 C2664 1.383 . S
C2670 C2669 1.379 . S
H2671 C2665 0.959 . S
H2672 C2665 0.961 . S
H2673 C2665 0.960 . S
H2674 C2666 0.930 . S
H2675 C2667 0.929 . S
H2676 C2684 0.929 . S
H2677 C2686 0.930 . S
H2678 C2688 0.930 . S
H2679 C2691 0.929 . S
H2680 C2694 0.930 . S
H2681 C2696 0.960 . S
H2682 C2696 0.960 . S
H2683 C2696 0.960 . S
C2684 H2676 0.929 . S
C2684 C2685 1.377 . S
C2684 C2686 1.384 . S
C2685 C2684 1.377 . S
C2685 C2691 1.390 . S
C2686 H2677 0.930 . S
C2686 C2684 1.384 . S
C2686 C2687 1.372 . S
C2687 C2686 1.372 . S
C2687 C2688 1.400 . S
C2687 C2692 1.490 . S
C2688 H2678 0.930 . S
C2688 C2687 1.400 . S
C2688 C2691 1.386 . S
H2689 C2705 0.930 . S
H2690 C2706 0.931 . S
C2691 H2679 0.929 . S
C2691 C2685 1.390 . S
C2691 C2688 1.386 . S
C2692 C2687 1.490 . S
C2692 C2694 1.395 . S
C2692 C2695 1.403 . S
H2693 C2699 0.930 . S
C2694 H2680 0.930 . S
C2694 C2692 1.395 . S
C2694 C2697 1.403 . S
C2695 C2692 1.403 . S
C2695 C2696 1.524 . S
C2695 C2699 1.400 . S
C2696 H2681 0.960 . S
C2696 H2682 0.960 . S
C2696 H2683 0.960 . S
C2696 C2695 1.524 . S
C2697 C2694 1.403 . S
C2697 C2698 1.392 . S
C2697 C2701 1.495 . S
C2698 C2697 1.392 . S
C2698 C2699 1.385 . S
C2698 C2700 1.478 . S
C2699 H2693 0.930 . S
C2699 C2695 1.400 . S
C2699 C2698 1.385 . S
C2700 C2698 1.478 . S
C2700 C2702 1.381 . S
C2700 C2706 1.383 . S
C2701 C2697 1.495 . S
C2701 H2707 0.959 . S
C2701 H2708 0.961 . S
C2701 H2709 0.960 . S
C2702 C2700 1.381 . S
C2702 C2703 1.394 . S
C2702 H2710 0.930 . S
C2703 C2702 1.394 . S
C2703 C2704 1.383 . S
C2703 H2711 0.929 . S
C2704 C2703 1.383 . S
C2704 C2705 1.377 . S
C2705 H2689 0.930 . S
C2705 C2704 1.377 . S
C2705 C2706 1.379 . S
C2706 H2690 0.931 . S
C2706 C2700 1.383 . S
C2706 C2705 1.379 . S
H2707 C2701 0.959 . S
H2708 C2701 0.961 . S
H2709 C2701 0.960 . S
H2710 C2702 0.930 . S
H2711 C2703 0.929 . S
H2712 C2720 0.929 . S
H2713 C2722 0.930 . S
H2714 C2724 0.930 . S
H2715 C2727 0.929 . S
H2716 C2730 0.930 . S
H2717 C2732 0.960 . S
H2718 C2732 0.960 . S
H2719 C2732 0.960 . S
C2720 H2712 0.929 . S
C2720 C2721 1.377 . S
C2720 C2722 1.384 . S
C2721 C2720 1.377 . S
C2721 C2727 1.390 . S
C2722 H2713 0.930 . S
C2722 C2720 1.384 . S
C2722 C2723 1.372 . S
C2723 C2722 1.372 . S
C2723 C2724 1.400 . S
C2723 C2728 1.490 . S
C2724 H2714 0.930 . S
C2724 C2723 1.400 . S
C2724 C2727 1.386 . S
H2725 C2741 0.930 . S
H2726 C2742 0.931 . S
C2727 H2715 0.929 . S
C2727 C2721 1.390 . S
C2727 C2724 1.386 . S
C2728 C2723 1.490 . S
C2728 C2730 1.395 . S
C2728 C2731 1.403 . S
H2729 C2735 0.930 . S
C2730 H2716 0.930 . S
C2730 C2728 1.395 . S
C2730 C2733 1.403 . S
C2731 C2728 1.403 . S
C2731 C2732 1.524 . S
C2731 C2735 1.400 . S
C2732 H2717 0.960 . S
C2732 H2718 0.960 . S
C2732 H2719 0.960 . S
C2732 C2731 1.524 . S
C2733 C2730 1.403 . S
C2733 C2734 1.392 . S
C2733 C2737 1.495 . S
C2734 C2733 1.392 . S
C2734 C2735 1.385 . S
C2734 C2736 1.478 . S
C2735 H2729 0.930 . S
C2735 C2731 1.400 . S
C2735 C2734 1.385 . S
C2736 C2734 1.478 . S
C2736 C2738 1.381 . S
C2736 C2742 1.383 . S
C2737 C2733 1.495 . S
C2737 H2743 0.959 . S
C2737 H2744 0.961 . S
C2737 H2745 0.960 . S
C2738 C2736 1.381 . S
C2738 C2739 1.394 . S
C2738 H2746 0.930 . S
C2739 C2738 1.394 . S
C2739 C2740 1.383 . S
C2739 H2747 0.929 . S
C2740 C2739 1.383 . S
C2740 C2741 1.377 . S
C2741 H2725 0.930 . S
C2741 C2740 1.377 . S
C2741 C2742 1.379 . S
C2742 H2726 0.931 . S
C2742 C2736 1.383 . S
C2742 C2741 1.379 . S
H2743 C2737 0.959 . S
H2744 C2737 0.961 . S
H2745 C2737 0.960 . S
H2746 C2738 0.930 . S
H2747 C2739 0.929 . S
H2748 C2756 0.929 . S
H2749 C2758 0.930 . S
H2750 C2760 0.930 . S
H2751 C2763 0.929 . S
H2752 C2766 0.930 . S
H2753 C2768 0.960 . S
H2754 C2768 0.960 . S
H2755 C2768 0.960 . S
C2756 H2748 0.929 . S
C2756 C2757 1.377 . S
C2756 C2758 1.384 . S
C2757 C2756 1.377 . S
C2757 C2763 1.390 . S
C2758 H2749 0.930 . S
C2758 C2756 1.384 . S
C2758 C2759 1.372 . S
C2759 C2758 1.372 . S
C2759 C2760 1.400 . S
C2759 C2764 1.490 . S
C2760 H2750 0.930 . S
C2760 C2759 1.400 . S
C2760 C2763 1.386 . S
H2761 C2777 0.930 . S
H2762 C2778 0.931 . S
C2763 H2751 0.929 . S
C2763 C2757 1.390 . S
C2763 C2760 1.386 . S
C2764 C2759 1.490 . S
C2764 C2766 1.395 . S
C2764 C2767 1.403 . S
H2765 C2771 0.930 . S
C2766 H2752 0.930 . S
C2766 C2764 1.395 . S
C2766 C2769 1.403 . S
C2767 C2764 1.403 . S
C2767 C2768 1.524 . S
C2767 C2771 1.400 . S
C2768 H2753 0.960 . S
C2768 H2754 0.960 . S
C2768 H2755 0.960 . S
C2768 C2767 1.524 . S
C2769 C2766 1.403 . S
C2769 C2770 1.392 . S
C2769 C2773 1.495 . S
C2770 C2769 1.392 . S
C2770 C2771 1.385 . S
C2770 C2772 1.478 . S
C2771 H2765 0.930 . S
C2771 C2767 1.400 . S
C2771 C2770 1.385 . S
C2772 C2770 1.478 . S
C2772 C2774 1.381 . S
C2772 C2778 1.383 . S
C2773 C2769 1.495 . S
C2773 H2779 0.959 . S
C2773 H2780 0.961 . S
C2773 H2781 0.960 . S
C2774 C2772 1.381 . S
C2774 C2775 1.394 . S
C2774 H2782 0.930 . S
C2775 C2774 1.394 . S
C2775 C2776 1.383 . S
C2775 H2783 0.929 . S
C2776 C2775 1.383 . S
C2776 C2777 1.377 . S
C2777 H2761 0.930 . S
C2777 C2776 1.377 . S
C2777 C2778 1.379 . S
C2778 H2762 0.931 . S
C2778 C2772 1.383 . S
C2778 C2777 1.379 . S
H2779 C2773 0.959 . S
H2780 C2773 0.961 . S
H2781 C2773 0.960 . S
H2782 C2774 0.930 . S
H2783 C2775 0.929 . S
H2784 C2792 0.929 . S
H2785 C2794 0.930 . S
H2786 C2796 0.930 . S
H2787 C2799 0.929 . S
H2788 C2802 0.930 . S
H2789 C2804 0.960 . S
H2790 C2804 0.960 . S
H2791 C2804 0.960 . S
C2792 H2784 0.929 . S
C2792 C2793 1.377 . S
C2792 C2794 1.384 . S
C2793 C2792 1.377 . S
C2793 C2799 1.390 . S
C2794 H2785 0.930 . S
C2794 C2792 1.384 . S
C2794 C2795 1.372 . S
C2795 C2794 1.372 . S
C2795 C2796 1.400 . S
C2795 C2800 1.490 . S
C2796 H2786 0.930 . S
C2796 C2795 1.400 . S
C2796 C2799 1.386 . S
H2797 C2813 0.930 . S
H2798 C2814 0.931 . S
C2799 H2787 0.929 . S
C2799 C2793 1.390 . S
C2799 C2796 1.386 . S
C2800 C2795 1.490 . S
C2800 C2802 1.395 . S
C2800 C2803 1.403 . S
H2801 C2807 0.930 . S
C2802 H2788 0.930 . S
C2802 C2800 1.395 . S
C2802 C2805 1.403 . S
C2803 C2800 1.403 . S
C2803 C2804 1.524 . S
C2803 C2807 1.400 . S
C2804 H2789 0.960 . S
C2804 H2790 0.960 . S
C2804 H2791 0.960 . S
C2804 C2803 1.524 . S
C2805 C2802 1.403 . S
C2805 C2806 1.392 . S
C2805 C2809 1.495 . S
C2806 C2805 1.392 . S
C2806 C2807 1.385 . S
C2806 C2808 1.478 . S
C2807 H2801 0.930 . S
C2807 C2803 1.400 . S
C2807 C2806 1.385 . S
C2808 C2806 1.478 . S
C2808 C2810 1.381 . S
C2808 C2814 1.383 . S
C2809 C2805 1.495 . S
C2809 H2815 0.959 . S
C2809 H2816 0.961 . S
C2809 H2817 0.960 . S
C2810 C2808 1.381 . S
C2810 C2811 1.394 . S
C2810 H2818 0.930 . S
C2811 C2810 1.394 . S
C2811 C2812 1.383 . S
C2811 H2819 0.929 . S
C2812 C2811 1.383 . S
C2812 C2813 1.377 . S
C2813 H2797 0.930 . S
C2813 C2812 1.377 . S
C2813 C2814 1.379 . S
C2814 H2798 0.931 . S
C2814 C2808 1.383 . S
C2814 C2813 1.379 . S
H2815 C2809 0.959 . S
H2816 C2809 0.961 . S
H2817 C2809 0.960 . S
H2818 C2810 0.930 . S
H2819 C2811 0.929 . S
H2820 C2828 0.929 . S
H2821 C2830 0.930 . S
H2822 C2832 0.930 . S
H2823 C2835 0.929 . S
H2824 C2838 0.930 . S
H2825 C2840 0.960 . S
H2826 C2840 0.960 . S
H2827 C2840 0.960 . S
C2828 H2820 0.929 . S
C2828 C2829 1.377 . S
C2828 C2830 1.384 . S
C2829 C2828 1.377 . S
C2829 C2835 1.390 . S
C2830 H2821 0.930 . S
C2830 C2828 1.384 . S
C2830 C2831 1.372 . S
C2831 C2830 1.372 . S
C2831 C2832 1.400 . S
C2831 C2836 1.490 . S
C2832 H2822 0.930 . S
C2832 C2831 1.400 . S
C2832 C2835 1.386 . S
H2833 C2849 0.930 . S
H2834 C2850 0.931 . S
C2835 H2823 0.929 . S
C2835 C2829 1.390 . S
C2835 C2832 1.386 . S
C2836 C2831 1.490 . S
C2836 C2838 1.395 . S
C2836 C2839 1.403 . S
H2837 C2843 0.930 . S
C2838 H2824 0.930 . S
C2838 C2836 1.395 . S
C2838 C2841 1.403 . S
C2839 C2836 1.403 . S
C2839 C2840 1.524 . S
C2839 C2843 1.400 . S
C2840 H2825 0.960 . S
C2840 H2826 0.960 . S
C2840 H2827 0.960 . S
C2840 C2839 1.524 . S
C2841 C2838 1.403 . S
C2841 C2842 1.392 . S
C2841 C2845 1.495 . S
C2842 C2841 1.392 . S
C2842 C2843 1.385 . S
C2842 C2844 1.478 . S
C2843 H2837 0.930 . S
C2843 C2839 1.400 . S
C2843 C2842 1.385 . S
C2844 C2842 1.478 . S
C2844 C2846 1.381 . S
C2844 C2850 1.383 . S
C2845 C2841 1.495 . S
C2845 H2851 0.959 . S
C2845 H2852 0.961 . S
C2845 H2853 0.960 . S
C2846 C2844 1.381 . S
C2846 C2847 1.394 . S
C2846 H2854 0.930 . S
C2847 C2846 1.394 . S
C2847 C2848 1.383 . S
C2847 H2855 0.929 . S
C2848 C2847 1.383 . S
C2848 C2849 1.377 . S
C2849 H2833 0.930 . S
C2849 C2848 1.377 . S
C2849 C2850 1.379 . S
C2850 H2834 0.931 . S
C2850 C2844 1.383 . S
C2850 C2849 1.379 . S
H2851 C2845 0.959 . S
H2852 C2845 0.961 . S
H2853 C2845 0.960 . S
H2854 C2846 0.930 . S
H2855 C2847 0.929 . S
H2856 C2864 0.929 . S
H2857 C2866 0.930 . S
H2858 C2868 0.930 . S
H2859 C2871 0.929 . S
H2860 C2874 0.930 . S
H2861 C2876 0.960 . S
H2862 C2876 0.960 . S
H2863 C2876 0.960 . S
C2864 H2856 0.929 . S
C2864 C2865 1.377 . S
C2864 C2866 1.384 . S
C2865 C2864 1.377 . S
C2865 C2871 1.390 . S
C2866 H2857 0.930 . S
C2866 C2864 1.384 . S
C2866 C2867 1.372 . S
C2867 C2866 1.372 . S
C2867 C2868 1.400 . S
C2867 C2872 1.490 . S
C2868 H2858 0.930 . S
C2868 C2867 1.400 . S
C2868 C2871 1.386 . S
H2869 C2885 0.930 . S
H2870 C2886 0.931 . S
C2871 H2859 0.929 . S
C2871 C2865 1.390 . S
C2871 C2868 1.386 . S
C2872 C2867 1.490 . S
C2872 C2874 1.395 . S
C2872 C2875 1.403 . S
H2873 C2879 0.930 . S
C2874 H2860 0.930 . S
C2874 C2872 1.395 . S
C2874 C2877 1.403 . S
C2875 C2872 1.403 . S
C2875 C2876 1.524 . S
C2875 C2879 1.400 . S
C2876 H2861 0.960 . S
C2876 H2862 0.960 . S
C2876 H2863 0.960 . S
C2876 C2875 1.524 . S
C2877 C2874 1.403 . S
C2877 C2878 1.392 . S
C2877 C2881 1.495 . S
C2878 C2877 1.392 . S
C2878 C2879 1.385 . S
C2878 C2880 1.478 . S
C2879 H2873 0.930 . S
C2879 C2875 1.400 . S
C2879 C2878 1.385 . S
C2880 C2878 1.478 . S
C2880 C2882 1.381 . S
C2880 C2886 1.383 . S
C2881 C2877 1.495 . S
C2881 H2887 0.959 . S
C2881 H2888 0.961 . S
C2881 H2889 0.960 . S
C2882 C2880 1.381 . S
C2882 C2883 1.394 . S
C2882 H2890 0.930 . S
C2883 C2882 1.394 . S
C2883 C2884 1.383 . S
C2883 H2891 0.929 . S
C2884 C2883 1.383 . S
C2884 C2885 1.377 . S
C2885 H2869 0.930 . S
C2885 C2884 1.377 . S
C2885 C2886 1.379 . S
C2886 H2870 0.931 . S
C2886 C2880 1.383 . S
C2886 C2885 1.379 . S
H2887 C2881 0.959 . S
H2888 C2881 0.961 . S
H2889 C2881 0.960 . S
H2890 C2882 0.930 . S
H2891 C2883 0.929 . S
H2892 C2900 0.929 . S
H2893 C2902 0.930 . S
H2894 C2904 0.930 . S
H2895 C2907 0.929 . S
H2896 C2910 0.930 . S
H2897 C2912 0.960 . S
H2898 C2912 0.960 . S
H2899 C2912 0.960 . S
C2900 H2892 0.929 . S
C2900 C2901 1.377 . S
C2900 C2902 1.384 . S
C2901 C2900 1.377 . S
C2901 C2907 1.390 . S
C2902 H2893 0.930 . S
C2902 C2900 1.384 . S
C2902 C2903 1.372 . S
C2903 C2902 1.372 . S
C2903 C2904 1.400 . S
C2903 C2908 1.490 . S
C2904 H2894 0.930 . S
C2904 C2903 1.400 . S
C2904 C2907 1.386 . S
H2905 C2921 0.930 . S
H2906 C2922 0.931 . S
C2907 H2895 0.929 . S
C2907 C2901 1.390 . S
C2907 C2904 1.386 . S
C2908 C2903 1.490 . S
C2908 C2910 1.395 . S
C2908 C2911 1.403 . S
H2909 C2915 0.930 . S
C2910 H2896 0.930 . S
C2910 C2908 1.395 . S
C2910 C2913 1.403 . S
C2911 C2908 1.403 . S
C2911 C2912 1.524 . S
C2911 C2915 1.400 . S
C2912 H2897 0.960 . S
C2912 H2898 0.960 . S
C2912 H2899 0.960 . S
C2912 C2911 1.524 . S
C2913 C2910 1.403 . S
C2913 C2914 1.392 . S
C2913 C2917 1.495 . S
C2914 C2913 1.392 . S
C2914 C2915 1.385 . S
C2914 C2916 1.478 . S
C2915 H2909 0.930 . S
C2915 C2911 1.400 . S
C2915 C2914 1.385 . S
C2916 C2914 1.478 . S
C2916 C2918 1.381 . S
C2916 C2922 1.383 . S
C2917 C2913 1.495 . S
C2917 H2923 0.959 . S
C2917 H2924 0.961 . S
C2917 H2925 0.960 . S
C2918 C2916 1.381 . S
C2918 C2919 1.394 . S
C2918 H2926 0.930 . S
C2919 C2918 1.394 . S
C2919 C2920 1.383 . S
C2919 H2927 0.929 . S
C2920 C2919 1.383 . S
C2920 C2921 1.377 . S
C2921 H2905 0.930 . S
C2921 C2920 1.377 . S
C2921 C2922 1.379 . S
C2922 H2906 0.931 . S
C2922 C2916 1.383 . S
C2922 C2921 1.379 . S
H2923 C2917 0.959 . S
H2924 C2917 0.961 . S
H2925 C2917 0.960 . S
H2926 C2918 0.930 . S
H2927 C2919 0.929 . S
H2928 C2936 0.929 . S
H2929 C2938 0.930 . S
H2930 C2940 0.930 . S
H2931 C2943 0.929 . S
H2932 C2946 0.930 . S
H2933 C2948 0.960 . S
H2934 C2948 0.960 . S
H2935 C2948 0.960 . S
C2936 H2928 0.929 . S
C2936 C2937 1.377 . S
C2936 C2938 1.384 . S
C2937 C2936 1.377 . S
C2937 C2943 1.390 . S
C2938 H2929 0.930 . S
C2938 C2936 1.384 . S
C2938 C2939 1.372 . S
C2939 C2938 1.372 . S
C2939 C2940 1.400 . S
C2939 C2944 1.490 . S
C2940 H2930 0.930 . S
C2940 C2939 1.400 . S
C2940 C2943 1.386 . S
H2941 C2957 0.930 . S
H2942 C2958 0.931 . S
C2943 H2931 0.929 . S
C2943 C2937 1.390 . S
C2943 C2940 1.386 . S
C2944 C2939 1.490 . S
C2944 C2946 1.395 . S
C2944 C2947 1.403 . S
H2945 C2951 0.930 . S
C2946 H2932 0.930 . S
C2946 C2944 1.395 . S
C2946 C2949 1.403 . S
C2947 C2944 1.403 . S
C2947 C2948 1.524 . S
C2947 C2951 1.400 . S
C2948 H2933 0.960 . S
C2948 H2934 0.960 . S
C2948 H2935 0.960 . S
C2948 C2947 1.524 . S
C2949 C2946 1.403 . S
C2949 C2950 1.392 . S
C2949 C2953 1.495 . S
C2950 C2949 1.392 . S
C2950 C2951 1.385 . S
C2950 C2952 1.478 . S
C2951 H2945 0.930 . S
C2951 C2947 1.400 . S
C2951 C2950 1.385 . S
C2952 C2950 1.478 . S
C2952 C2954 1.381 . S
C2952 C2958 1.383 . S
C2953 C2949 1.495 . S
C2953 H2959 0.959 . S
C2953 H2960 0.961 . S
C2953 H2961 0.960 . S
C2954 C2952 1.381 . S
C2954 C2955 1.394 . S
C2954 H2962 0.930 . S
C2955 C2954 1.394 . S
C2955 C2956 1.383 . S
C2955 H2963 0.929 . S
C2956 C2955 1.383 . S
C2956 C2957 1.377 . S
C2957 H2941 0.930 . S
C2957 C2956 1.377 . S
C2957 C2958 1.379 . S
C2958 H2942 0.931 . S
C2958 C2952 1.383 . S
C2958 C2957 1.379 . S
H2959 C2953 0.959 . S
H2960 C2953 0.961 . S
H2961 C2953 0.960 . S
H2962 C2954 0.930 . S
H2963 C2955 0.929 . S
H2964 C2972 0.929 . S
H2965 C2974 0.930 . S
H2966 C2976 0.930 . S
H2967 C2979 0.929 . S
H2968 C2982 0.930 . S
H2969 C2984 0.960 . S
H2970 C2984 0.960 . S
H2971 C2984 0.960 . S
C2972 H2964 0.929 . S
C2972 C2973 1.377 . S
C2972 C2974 1.384 . S
C2973 C2972 1.377 . S
C2973 C2979 1.390 . S
C2974 H2965 0.930 . S
C2974 C2972 1.384 . S
C2974 C2975 1.372 . S
C2975 C2974 1.372 . S
C2975 C2976 1.400 . S
C2975 C2980 1.490 . S
C2976 H2966 0.930 . S
C2976 C2975 1.400 . S
C2976 C2979 1.386 . S
H2977 C2993 0.930 . S
H2978 C2994 0.931 . S
C2979 H2967 0.929 . S
C2979 C2973 1.390 . S
C2979 C2976 1.386 . S
C2980 C2975 1.490 . S
C2980 C2982 1.395 . S
C2980 C2983 1.403 . S
H2981 C2987 0.930 . S
C2982 H2968 0.930 . S
C2982 C2980 1.395 . S
C2982 C2985 1.403 . S
C2983 C2980 1.403 . S
C2983 C2984 1.524 . S
C2983 C2987 1.400 . S
C2984 H2969 0.960 . S
C2984 H2970 0.960 . S
C2984 H2971 0.960 . S
C2984 C2983 1.524 . S
C2985 C2982 1.403 . S
C2985 C2986 1.392 . S
C2985 C2989 1.495 . S
C2986 C2985 1.392 . S
C2986 C2987 1.385 . S
C2986 C2988 1.478 . S
C2987 H2981 0.930 . S
C2987 C2983 1.400 . S
C2987 C2986 1.385 . S
C2988 C2986 1.478 . S
C2988 C2990 1.381 . S
C2988 C2994 1.383 . S
C2989 C2985 1.495 . S
C2989 H2995 0.959 . S
C2989 H2996 0.961 . S
C2989 H2997 0.960 . S
C2990 C2988 1.381 . S
C2990 C2991 1.394 . S
C2990 H2998 0.930 . S
C2991 C2990 1.394 . S
C2991 C2992 1.383 . S
C2991 H2999 0.929 . S
C2992 C2991 1.383 . S
C2992 C2993 1.377 . S
C2993 H2977 0.930 . S
C2993 C2992 1.377 . S
C2993 C2994 1.379 . S
C2994 H2978 0.931 . S
C2994 C2988 1.383 . S
C2994 C2993 1.379 . S
H2995 C2989 0.959 . S
H2996 C2989 0.961 . S
H2997 C2989 0.960 . S
H2998 C2990 0.930 . S
H2999 C2991 0.929 . S
H3000 C3008 0.929 . S
H3001 C3010 0.930 . S
H3002 C3012 0.930 . S
H3003 C3015 0.929 . S
H3004 C3018 0.930 . S
H3005 C3020 0.960 . S
H3006 C3020 0.960 . S
H3007 C3020 0.960 . S
C3008 H3000 0.929 . S
C3008 C3009 1.377 . S
C3008 C3010 1.384 . S
C3009 C3008 1.377 . S
C3009 C3015 1.390 . S
C3010 H3001 0.930 . S
C3010 C3008 1.384 . S
C3010 C3011 1.372 . S
C3011 C3010 1.372 . S
C3011 C3012 1.400 . S
C3011 C3016 1.490 . S
C3012 H3002 0.930 . S
C3012 C3011 1.400 . S
C3012 C3015 1.386 . S
H3013 C3029 0.930 . S
H3014 C3030 0.931 . S
C3015 H3003 0.929 . S
C3015 C3009 1.390 . S
C3015 C3012 1.386 . S
C3016 C3011 1.490 . S
C3016 C3018 1.395 . S
C3016 C3019 1.403 . S
H3017 C3023 0.930 . S
C3018 H3004 0.930 . S
C3018 C3016 1.395 . S
C3018 C3021 1.403 . S
C3019 C3016 1.403 . S
C3019 C3020 1.524 . S
C3019 C3023 1.400 . S
C3020 H3005 0.960 . S
C3020 H3006 0.960 . S
C3020 H3007 0.960 . S
C3020 C3019 1.524 . S
C3021 C3018 1.403 . S
C3021 C3022 1.392 . S
C3021 C3025 1.495 . S
C3022 C3021 1.392 . S
C3022 C3023 1.385 . S
C3022 C3024 1.478 . S
C3023 H3017 0.930 . S
C3023 C3019 1.400 . S
C3023 C3022 1.385 . S
C3024 C3022 1.478 . S
C3024 C3026 1.381 . S
C3024 C3030 1.383 . S
C3025 C3021 1.495 . S
C3025 H3031 0.959 . S
C3025 H3032 0.961 . S
C3025 H3033 0.960 . S
C3026 C3024 1.381 . S
C3026 C3027 1.394 . S
C3026 H3034 0.930 . S
C3027 C3026 1.394 . S
C3027 C3028 1.383 . S
C3027 H3035 0.929 . S
C3028 C3027 1.383 . S
C3028 C3029 1.377 . S
C3029 H3013 0.930 . S
C3029 C3028 1.377 . S
C3029 C3030 1.379 . S
C3030 H3014 0.931 . S
C3030 C3024 1.383 . S
C3030 C3029 1.379 . S
H3031 C3025 0.959 . S
H3032 C3025 0.961 . S
H3033 C3025 0.960 . S
H3034 C3026 0.930 . S
H3035 C3027 0.929 . S
H3036 C3044 0.929 . S
H3037 C3046 0.930 . S
H3038 C3048 0.930 . S
H3039 C3051 0.929 . S
H3040 C3054 0.930 . S
H3041 C3056 0.960 . S
H3042 C3056 0.960 . S
H3043 C3056 0.960 . S
C3044 H3036 0.929 . S
C3044 C3045 1.377 . S
C3044 C3046 1.384 . S
C3045 C3044 1.377 . S
C3045 C3051 1.390 . S
C3046 H3037 0.930 . S
C3046 C3044 1.384 . S
C3046 C3047 1.372 . S
C3047 C3046 1.372 . S
C3047 C3048 1.400 . S
C3047 C3052 1.490 . S
C3048 H3038 0.930 . S
C3048 C3047 1.400 . S
C3048 C3051 1.386 . S
H3049 C3065 0.930 . S
H3050 C3066 0.931 . S
C3051 H3039 0.929 . S
C3051 C3045 1.390 . S
C3051 C3048 1.386 . S
C3052 C3047 1.490 . S
C3052 C3054 1.395 . S
C3052 C3055 1.403 . S
H3053 C3059 0.930 . S
C3054 H3040 0.930 . S
C3054 C3052 1.395 . S
C3054 C3057 1.403 . S
C3055 C3052 1.403 . S
C3055 C3056 1.524 . S
C3055 C3059 1.400 . S
C3056 H3041 0.960 . S
C3056 H3042 0.960 . S
C3056 H3043 0.960 . S
C3056 C3055 1.524 . S
C3057 C3054 1.403 . S
C3057 C3058 1.392 . S
C3057 C3061 1.495 . S
C3058 C3057 1.392 . S
C3058 C3059 1.385 . S
C3058 C3060 1.478 . S
C3059 H3053 0.930 . S
C3059 C3055 1.400 . S
C3059 C3058 1.385 . S
C3060 C3058 1.478 . S
C3060 C3062 1.381 . S
C3060 C3066 1.383 . S
C3061 C3057 1.495 . S
C3061 H3067 0.959 . S
C3061 H3068 0.961 . S
C3061 H3069 0.960 . S
C3062 C3060 1.381 . S
C3062 C3063 1.394 . S
C3062 H3070 0.930 . S
C3063 C3062 1.394 . S
C3063 C3064 1.383 . S
C3063 H3071 0.929 . S
C3064 C3063 1.383 . S
C3064 C3065 1.377 . S
C3065 H3049 0.930 . S
C3065 C3064 1.377 . S
C3065 C3066 1.379 . S
C3066 H3050 0.931 . S
C3066 C3060 1.383 . S
C3066 C3065 1.379 . S
H3067 C3061 0.959 . S
H3068 C3061 0.961 . S
H3069 C3061 0.960 . S
H3070 C3062 0.930 . S
H3071 C3063 0.929 . S
H3072 C3080 0.929 . S
H3073 C3082 0.930 . S
H3074 C3084 0.930 . S
H3075 C3087 0.929 . S
H3076 C3090 0.930 . S
H3077 C3092 0.960 . S
H3078 C3092 0.960 . S
H3079 C3092 0.960 . S
C3080 H3072 0.929 . S
C3080 C3081 1.377 . S
C3080 C3082 1.384 . S
C3081 C3080 1.377 . S
C3081 C3087 1.390 . S
C3082 H3073 0.930 . S
C3082 C3080 1.384 . S
C3082 C3083 1.372 . S
C3083 C3082 1.372 . S
C3083 C3084 1.400 . S
C3083 C3088 1.490 . S
C3084 H3074 0.930 . S
C3084 C3083 1.400 . S
C3084 C3087 1.386 . S
H3085 C3101 0.930 . S
H3086 C3102 0.931 . S
C3087 H3075 0.929 . S
C3087 C3081 1.390 . S
C3087 C3084 1.386 . S
C3088 C3083 1.490 . S
C3088 C3090 1.395 . S
C3088 C3091 1.403 . S
H3089 C3095 0.930 . S
C3090 H3076 0.930 . S
C3090 C3088 1.395 . S
C3090 C3093 1.403 . S
C3091 C3088 1.403 . S
C3091 C3092 1.524 . S
C3091 C3095 1.400 . S
C3092 H3077 0.960 . S
C3092 H3078 0.960 . S
C3092 H3079 0.960 . S
C3092 C3091 1.524 . S
C3093 C3090 1.403 . S
C3093 C3094 1.392 . S
C3093 C3097 1.495 . S
C3094 C3093 1.392 . S
C3094 C3095 1.385 . S
C3094 C3096 1.478 . S
C3095 H3089 0.930 . S
C3095 C3091 1.400 . S
C3095 C3094 1.385 . S
C3096 C3094 1.478 . S
C3096 C3098 1.381 . S
C3096 C3102 1.383 . S
C3097 C3093 1.495 . S
C3097 H3103 0.959 . S
C3097 H3104 0.961 . S
C3097 H3105 0.960 . S
C3098 C3096 1.381 . S
C3098 C3099 1.394 . S
C3098 H3106 0.930 . S
C3099 C3098 1.394 . S
C3099 C3100 1.383 . S
C3099 H3107 0.929 . S
C3100 C3099 1.383 . S
C3100 C3101 1.377 . S
C3101 H3085 0.930 . S
C3101 C3100 1.377 . S
C3101 C3102 1.379 . S
C3102 H3086 0.931 . S
C3102 C3096 1.383 . S
C3102 C3101 1.379 . S
H3103 C3097 0.959 . S
H3104 C3097 0.961 . S
H3105 C3097 0.960 . S
H3106 C3098 0.930 . S
H3107 C3099 0.929 . S
H3108 C3116 0.929 . S
H3109 C3118 0.930 . S
H3110 C3120 0.930 . S
H3111 C3123 0.929 . S
H3112 C3126 0.930 . S
H3113 C3128 0.960 . S
H3114 C3128 0.960 . S
H3115 C3128 0.960 . S
C3116 H3108 0.929 . S
C3116 C3117 1.377 . S
C3116 C3118 1.384 . S
C3117 C3116 1.377 . S
C3117 C3123 1.390 . S
C3118 H3109 0.930 . S
C3118 C3116 1.384 . S
C3118 C3119 1.372 . S
C3119 C3118 1.372 . S
C3119 C3120 1.400 . S
C3119 C3124 1.490 . S
C3120 H3110 0.930 . S
C3120 C3119 1.400 . S
C3120 C3123 1.386 . S
H3121 C3137 0.930 . S
H3122 C3138 0.931 . S
C3123 H3111 0.929 . S
C3123 C3117 1.390 . S
C3123 C3120 1.386 . S
C3124 C3119 1.490 . S
C3124 C3126 1.395 . S
C3124 C3127 1.403 . S
H3125 C3131 0.930 . S
C3126 H3112 0.930 . S
C3126 C3124 1.395 . S
C3126 C3129 1.403 . S
C3127 C3124 1.403 . S
C3127 C3128 1.524 . S
C3127 C3131 1.400 . S
C3128 H3113 0.960 . S
C3128 H3114 0.960 . S
C3128 H3115 0.960 . S
C3128 C3127 1.524 . S
C3129 C3126 1.403 . S
C3129 C3130 1.392 . S
C3129 C3133 1.495 . S
C3130 C3129 1.392 . S
C3130 C3131 1.385 . S
C3130 C3132 1.478 . S
C3131 H3125 0.930 . S
C3131 C3127 1.400 . S
C3131 C3130 1.385 . S
C3132 C3130 1.478 . S
C3132 C3134 1.381 . S
C3132 C3138 1.383 . S
C3133 C3129 1.495 . S
C3133 H3139 0.959 . S
C3133 H3140 0.961 . S
C3133 H3141 0.960 . S
C3134 C3132 1.381 . S
C3134 C3135 1.394 . S
C3134 H3142 0.930 . S
C3135 C3134 1.394 . S
C3135 C3136 1.383 . S
C3135 H3143 0.929 . S
C3136 C3135 1.383 . S
C3136 C3137 1.377 . S
C3137 H3121 0.930 . S
C3137 C3136 1.377 . S
C3137 C3138 1.379 . S
C3138 H3122 0.931 . S
C3138 C3132 1.383 . S
C3138 C3137 1.379 . S
H3139 C3133 0.959 . S
H3140 C3133 0.961 . S
H3141 C3133 0.960 . S
H3142 C3134 0.930 . S
H3143 C3135 0.929 . S
H3144 C3152 0.929 . S
H3145 C3154 0.930 . S
H3146 C3156 0.930 . S
H3147 C3159 0.929 . S
H3148 C3162 0.930 . S
H3149 C3164 0.960 . S
H3150 C3164 0.960 . S
H3151 C3164 0.960 . S
C3152 H3144 0.929 . S
C3152 C3153 1.377 . S
C3152 C3154 1.384 . S
C3153 C3152 1.377 . S
C3153 C3159 1.390 . S
C3154 H3145 0.930 . S
C3154 C3152 1.384 . S
C3154 C3155 1.372 . S
C3155 C3154 1.372 . S
C3155 C3156 1.400 . S
C3155 C3160 1.490 . S
C3156 H3146 0.930 . S
C3156 C3155 1.400 . S
C3156 C3159 1.386 . S
H3157 C3173 0.930 . S
H3158 C3174 0.931 . S
C3159 H3147 0.929 . S
C3159 C3153 1.390 . S
C3159 C3156 1.386 . S
C3160 C3155 1.490 . S
C3160 C3162 1.395 . S
C3160 C3163 1.403 . S
H3161 C3167 0.930 . S
C3162 H3148 0.930 . S
C3162 C3160 1.395 . S
C3162 C3165 1.403 . S
C3163 C3160 1.403 . S
C3163 C3164 1.524 . S
C3163 C3167 1.400 . S
C3164 H3149 0.960 . S
C3164 H3150 0.960 . S
C3164 H3151 0.960 . S
C3164 C3163 1.524 . S
C3165 C3162 1.403 . S
C3165 C3166 1.392 . S
C3165 C3169 1.495 . S
C3166 C3165 1.392 . S
C3166 C3167 1.385 . S
C3166 C3168 1.478 . S
C3167 H3161 0.930 . S
C3167 C3163 1.400 . S
C3167 C3166 1.385 . S
C3168 C3166 1.478 . S
C3168 C3170 1.381 . S
C3168 C3174 1.383 . S
C3169 C3165 1.495 . S
C3169 H3175 0.959 . S
C3169 H3176 0.961 . S
C3169 H3177 0.960 . S
C3170 C3168 1.381 . S
C3170 C3171 1.394 . S
C3170 H3178 0.930 . S
C3171 C3170 1.394 . S
C3171 C3172 1.383 . S
C3171 H3179 0.929 . S
C3172 C3171 1.383 . S
C3172 C3173 1.377 . S
C3173 H3157 0.930 . S
C3173 C3172 1.377 . S
C3173 C3174 1.379 . S
C3174 H3158 0.931 . S
C3174 C3168 1.383 . S
C3174 C3173 1.379 . S
H3175 C3169 0.959 . S
H3176 C3169 0.961 . S
H3177 C3169 0.960 . S
H3178 C3170 0.930 . S
H3179 C3171 0.929 . S
H3180 C3188 0.929 . S
H3181 C3190 0.930 . S
H3182 C3192 0.930 . S
H3183 C3195 0.929 . S
H3184 C3198 0.930 . S
H3185 C3200 0.960 . S
H3186 C3200 0.960 . S
H3187 C3200 0.960 . S
C3188 H3180 0.929 . S
C3188 C3189 1.377 . S
C3188 C3190 1.384 . S
C3189 C3188 1.377 . S
C3189 C3195 1.390 . S
C3190 H3181 0.930 . S
C3190 C3188 1.384 . S
C3190 C3191 1.372 . S
C3191 C3190 1.372 . S
C3191 C3192 1.400 . S
C3191 C3196 1.490 . S
C3192 H3182 0.930 . S
C3192 C3191 1.400 . S
C3192 C3195 1.386 . S
H3193 C3209 0.930 . S
H3194 C3210 0.931 . S
C3195 H3183 0.929 . S
C3195 C3189 1.390 . S
C3195 C3192 1.386 . S
C3196 C3191 1.490 . S
C3196 C3198 1.395 . S
C3196 C3199 1.403 . S
H3197 C3203 0.930 . S
C3198 H3184 0.930 . S
C3198 C3196 1.395 . S
C3198 C3201 1.403 . S
C3199 C3196 1.403 . S
C3199 C3200 1.524 . S
C3199 C3203 1.400 . S
C3200 H3185 0.960 . S
C3200 H3186 0.960 . S
C3200 H3187 0.960 . S
C3200 C3199 1.524 . S
C3201 C3198 1.403 . S
C3201 C3202 1.392 . S
C3201 C3205 1.495 . S
C3202 C3201 1.392 . S
C3202 C3203 1.385 . S
C3202 C3204 1.478 . S
C3203 H3197 0.930 . S
C3203 C3199 1.400 . S
C3203 C3202 1.385 . S
C3204 C3202 1.478 . S
C3204 C3206 1.381 . S
C3204 C3210 1.383 . S
C3205 C3201 1.495 . S
C3205 H3211 0.959 . S
C3205 H3212 0.961 . S
C3205 H3213 0.960 . S
C3206 C3204 1.381 . S
C3206 C3207 1.394 . S
C3206 H3214 0.930 . S
C3207 C3206 1.394 . S
C3207 C3208 1.383 . S
C3207 H3215 0.929 . S
C3208 C3207 1.383 . S
C3208 C3209 1.377 . S
C3209 H3193 0.930 . S
C3209 C3208 1.377 . S
C3209 C3210 1.379 . S
C3210 H3194 0.931 . S
C3210 C3204 1.383 . S
C3210 C3209 1.379 . S
H3211 C3205 0.959 . S
H3212 C3205 0.961 . S
H3213 C3205 0.960 . S
H3214 C3206 0.930 . S
H3215 C3207 0.929 . S
H3216 C3224 0.929 . S
H3217 C3226 0.930 . S
H3218 C3228 0.930 . S
H3219 C3231 0.929 . S
H3220 C3234 0.930 . S
H3221 C3236 0.960 . S
H3222 C3236 0.960 . S
H3223 C3236 0.960 . S
C3224 H3216 0.929 . S
C3224 C3225 1.377 . S
C3224 C3226 1.384 . S
C3225 C3224 1.377 . S
C3225 C3231 1.390 . S
C3226 H3217 0.930 . S
C3226 C3224 1.384 . S
C3226 C3227 1.372 . S
C3227 C3226 1.372 . S
C3227 C3228 1.400 . S
C3227 C3232 1.490 . S
C3228 H3218 0.930 . S
C3228 C3227 1.400 . S
C3228 C3231 1.386 . S
H3229 C3245 0.930 . S
H3230 C3246 0.931 . S
C3231 H3219 0.929 . S
C3231 C3225 1.390 . S
C3231 C3228 1.386 . S
C3232 C3227 1.490 . S
C3232 C3234 1.395 . S
C3232 C3235 1.403 . S
H3233 C3239 0.930 . S
C3234 H3220 0.930 . S
C3234 C3232 1.395 . S
C3234 C3237 1.403 . S
C3235 C3232 1.403 . S
C3235 C3236 1.524 . S
C3235 C3239 1.400 . S
C3236 H3221 0.960 . S
C3236 H3222 0.960 . S
C3236 H3223 0.960 . S
C3236 C3235 1.524 . S
C3237 C3234 1.403 . S
C3237 C3238 1.392 . S
C3237 C3241 1.495 . S
C3238 C3237 1.392 . S
C3238 C3239 1.385 . S
C3238 C3240 1.478 . S
C3239 H3233 0.930 . S
C3239 C3235 1.400 . S
C3239 C3238 1.385 . S
C3240 C3238 1.478 . S
C3240 C3242 1.381 . S
C3240 C3246 1.383 . S
C3241 C3237 1.495 . S
C3241 H3247 0.959 . S
C3241 H3248 0.961 . S
C3241 H3249 0.960 . S
C3242 C3240 1.381 . S
C3242 C3243 1.394 . S
C3242 H3250 0.930 . S
C3243 C3242 1.394 . S
C3243 C3244 1.383 . S
C3243 H3251 0.929 . S
C3244 C3243 1.383 . S
C3244 C3245 1.377 . S
C3245 H3229 0.930 . S
C3245 C3244 1.377 . S
C3245 C3246 1.379 . S
C3246 H3230 0.931 . S
C3246 C3240 1.383 . S
C3246 C3245 1.379 . S
H3247 C3241 0.959 . S
H3248 C3241 0.961 . S
H3249 C3241 0.960 . S
H3250 C3242 0.930 . S
H3251 C3243 0.929 . S
H3252 C3260 0.929 . S
H3253 C3262 0.930 . S
H3254 C3264 0.930 . S
H3255 C3267 0.929 . S
H3256 C3270 0.930 . S
H3257 C3272 0.960 . S
H3258 C3272 0.960 . S
H3259 C3272 0.960 . S
C3260 H3252 0.929 . S
C3260 C3261 1.377 . S
C3260 C3262 1.384 . S
C3261 C3260 1.377 . S
C3261 C3267 1.390 . S
C3262 H3253 0.930 . S
C3262 C3260 1.384 . S
C3262 C3263 1.372 . S
C3263 C3262 1.372 . S
C3263 C3264 1.400 . S
C3263 C3268 1.490 . S
C3264 H3254 0.930 . S
C3264 C3263 1.400 . S
C3264 C3267 1.386 . S
H3265 C3281 0.930 . S
H3266 C3282 0.931 . S
C3267 H3255 0.929 . S
C3267 C3261 1.390 . S
C3267 C3264 1.386 . S
C3268 C3263 1.490 . S
C3268 C3270 1.395 . S
C3268 C3271 1.403 . S
H3269 C3275 0.930 . S
C3270 H3256 0.930 . S
C3270 C3268 1.395 . S
C3270 C3273 1.403 . S
C3271 C3268 1.403 . S
C3271 C3272 1.524 . S
C3271 C3275 1.400 . S
C3272 H3257 0.960 . S
C3272 H3258 0.960 . S
C3272 H3259 0.960 . S
C3272 C3271 1.524 . S
C3273 C3270 1.403 . S
C3273 C3274 1.392 . S
C3273 C3277 1.495 . S
C3274 C3273 1.392 . S
C3274 C3275 1.385 . S
C3274 C3276 1.478 . S
C3275 H3269 0.930 . S
C3275 C3271 1.400 . S
C3275 C3274 1.385 . S
C3276 C3274 1.478 . S
C3276 C3278 1.381 . S
C3276 C3282 1.383 . S
C3277 C3273 1.495 . S
C3277 H3283 0.959 . S
C3277 H3284 0.961 . S
C3277 H3285 0.960 . S
C3278 C3276 1.381 . S
C3278 C3279 1.394 . S
C3278 H3286 0.930 . S
C3279 C3278 1.394 . S
C3279 C3280 1.383 . S
C3279 H3287 0.929 . S
C3280 C3279 1.383 . S
C3280 C3281 1.377 . S
C3281 H3265 0.930 . S
C3281 C3280 1.377 . S
C3281 C3282 1.379 . S
C3282 H3266 0.931 . S
C3282 C3276 1.383 . S
C3282 C3281 1.379 . S
H3283 C3277 0.959 . S
H3284 C3277 0.961 . S
H3285 C3277 0.960 . S
H3286 C3278 0.930 . S
H3287 C3279 0.929 . S
H3288 C3296 0.929 . S
H3289 C3298 0.930 . S
H3290 C3300 0.930 . S
H3291 C3303 0.929 . S
H3292 C3306 0.930 . S
H3293 C3308 0.960 . S
H3294 C3308 0.960 . S
H3295 C3308 0.960 . S
C3296 H3288 0.929 . S
C3296 C3297 1.377 . S
C3296 C3298 1.384 . S
C3297 C3296 1.377 . S
C3297 C3303 1.390 . S
C3298 H3289 0.930 . S
C3298 C3296 1.384 . S
C3298 C3299 1.372 . S
C3299 C3298 1.372 . S
C3299 C3300 1.400 . S
C3299 C3304 1.490 . S
C3300 H3290 0.930 . S
C3300 C3299 1.400 . S
C3300 C3303 1.386 . S
H3301 C3317 0.930 . S
H3302 C3318 0.931 . S
C3303 H3291 0.929 . S
C3303 C3297 1.390 . S
C3303 C3300 1.386 . S
C3304 C3299 1.490 . S
C3304 C3306 1.395 . S
C3304 C3307 1.403 . S
H3305 C3311 0.930 . S
C3306 H3292 0.930 . S
C3306 C3304 1.395 . S
C3306 C3309 1.403 . S
C3307 C3304 1.403 . S
C3307 C3308 1.524 . S
C3307 C3311 1.400 . S
C3308 H3293 0.960 . S
C3308 H3294 0.960 . S
C3308 H3295 0.960 . S
C3308 C3307 1.524 . S
C3309 C3306 1.403 . S
C3309 C3310 1.392 . S
C3309 C3313 1.495 . S
C3310 C3309 1.392 . S
C3310 C3311 1.385 . S
C3310 C3312 1.478 . S
C3311 H3305 0.930 . S
C3311 C3307 1.400 . S
C3311 C3310 1.385 . S
C3312 C3310 1.478 . S
C3312 C3314 1.381 . S
C3312 C3318 1.383 . S
C3313 C3309 1.495 . S
C3313 H3319 0.959 . S
C3313 H3320 0.961 . S
C3313 H3321 0.960 . S
C3314 C3312 1.381 . S
C3314 C3315 1.394 . S
C3314 H3322 0.930 . S
C3315 C3314 1.394 . S
C3315 C3316 1.383 . S
C3315 H3323 0.929 . S
C3316 C3315 1.383 . S
C3316 C3317 1.377 . S
C3317 H3301 0.930 . S
C3317 C3316 1.377 . S
C3317 C3318 1.379 . S
C3318 H3302 0.931 . S
C3318 C3312 1.383 . S
C3318 C3317 1.379 . S
H3319 C3313 0.959 . S
H3320 C3313 0.961 . S
H3321 C3313 0.960 . S
H3322 C3314 0.930 . S
H3323 C3315 0.929 . S
H3324 C3332 0.929 . S
H3325 C3334 0.930 . S
H3326 C3336 0.930 . S
H3327 C3339 0.929 . S
H3328 C3342 0.930 . S
H3329 C3344 0.960 . S
H3330 C3344 0.960 . S
H3331 C3344 0.960 . S
C3332 H3324 0.929 . S
C3332 C3333 1.377 . S
C3332 C3334 1.384 . S
C3333 C3332 1.377 . S
C3333 C3339 1.390 . S
C3334 H3325 0.930 . S
C3334 C3332 1.384 . S
C3334 C3335 1.372 . S
C3335 C3334 1.372 . S
C3335 C3336 1.400 . S
C3335 C3340 1.490 . S
C3336 H3326 0.930 . S
C3336 C3335 1.400 . S
C3336 C3339 1.386 . S
H3337 C3353 0.930 . S
H3338 C3354 0.931 . S
C3339 H3327 0.929 . S
C3339 C3333 1.390 . S
C3339 C3336 1.386 . S
C3340 C3335 1.490 . S
C3340 C3342 1.395 . S
C3340 C3343 1.403 . S
H3341 C3347 0.930 . S
C3342 H3328 0.930 . S
C3342 C3340 1.395 . S
C3342 C3345 1.403 . S
C3343 C3340 1.403 . S
C3343 C3344 1.524 . S
C3343 C3347 1.400 . S
C3344 H3329 0.960 . S
C3344 H3330 0.960 . S
C3344 H3331 0.960 . S
C3344 C3343 1.524 . S
C3345 C3342 1.403 . S
C3345 C3346 1.392 . S
C3345 C3349 1.495 . S
C3346 C3345 1.392 . S
C3346 C3347 1.385 . S
C3346 C3348 1.478 . S
C3347 H3341 0.930 . S
C3347 C3343 1.400 . S
C3347 C3346 1.385 . S
C3348 C3346 1.478 . S
C3348 C3350 1.381 . S
C3348 C3354 1.383 . S
C3349 C3345 1.495 . S
C3349 H3355 0.959 . S
C3349 H3356 0.961 . S
C3349 H3357 0.960 . S
C3350 C3348 1.381 . S
C3350 C3351 1.394 . S
C3350 H3358 0.930 . S
C3351 C3350 1.394 . S
C3351 C3352 1.383 . S
C3351 H3359 0.929 . S
C3352 C3351 1.383 . S
C3352 C3353 1.377 . S
C3353 H3337 0.930 . S
C3353 C3352 1.377 . S
C3353 C3354 1.379 . S
C3354 H3338 0.931 . S
C3354 C3348 1.383 . S
C3354 C3353 1.379 . S
H3355 C3349 0.959 . S
H3356 C3349 0.961 . S
H3357 C3349 0.960 . S
H3358 C3350 0.930 . S
H3359 C3351 0.929 . S
H3360 C3368 0.929 . S
H3361 C3370 0.930 . S
H3362 C3372 0.930 . S
H3363 C3375 0.929 . S
H3364 C3378 0.930 . S
H3365 C3380 0.960 . S
H3366 C3380 0.960 . S
H3367 C3380 0.960 . S
C3368 H3360 0.929 . S
C3368 C3369 1.377 . S
C3368 C3370 1.384 . S
C3369 C3368 1.377 . S
C3369 C3375 1.390 . S
C3370 H3361 0.930 . S
C3370 C3368 1.384 . S
C3370 C3371 1.372 . S
C3371 C3370 1.372 . S
C3371 C3372 1.400 . S
C3371 C3376 1.490 . S
C3372 H3362 0.930 . S
C3372 C3371 1.400 . S
C3372 C3375 1.386 . S
H3373 C3389 0.930 . S
H3374 C3390 0.931 . S
C3375 H3363 0.929 . S
C3375 C3369 1.390 . S
C3375 C3372 1.386 . S
C3376 C3371 1.490 . S
C3376 C3378 1.395 . S
C3376 C3379 1.403 . S
H3377 C3383 0.930 . S
C3378 H3364 0.930 . S
C3378 C3376 1.395 . S
C3378 C3381 1.403 . S
C3379 C3376 1.403 . S
C3379 C3380 1.524 . S
C3379 C3383 1.400 . S
C3380 H3365 0.960 . S
C3380 H3366 0.960 . S
C3380 H3367 0.960 . S
C3380 C3379 1.524 . S
C3381 C3378 1.403 . S
C3381 C3382 1.392 . S
C3381 C3385 1.495 . S
C3382 C3381 1.392 . S
C3382 C3383 1.385 . S
C3382 C3384 1.478 . S
C3383 H3377 0.930 . S
C3383 C3379 1.400 . S
C3383 C3382 1.385 . S
C3384 C3382 1.478 . S
C3384 C3386 1.381 . S
C3384 C3390 1.383 . S
C3385 C3381 1.495 . S
C3385 H3391 0.959 . S
C3385 H3392 0.961 . S
C3385 H3393 0.960 . S
C3386 C3384 1.381 . S
C3386 C3387 1.394 . S
C3386 H3394 0.930 . S
C3387 C3386 1.394 . S
C3387 C3388 1.383 . S
C3387 H3395 0.929 . S
C3388 C3387 1.383 . S
C3388 C3389 1.377 . S
C3389 H3373 0.930 . S
C3389 C3388 1.377 . S
C3389 C3390 1.379 . S
C3390 H3374 0.931 . S
C3390 C3384 1.383 . S
C3390 C3389 1.379 . S
H3391 C3385 0.959 . S
H3392 C3385 0.961 . S
H3393 C3385 0.960 . S
H3394 C3386 0.930 . S
H3395 C3387 0.929 . S
H3396 C3404 0.929 . S
H3397 C3406 0.930 . S
H3398 C3408 0.930 . S
H3399 C3411 0.929 . S
H3400 C3414 0.930 . S
H3401 C3416 0.960 . S
H3402 C3416 0.960 . S
H3403 C3416 0.960 . S
C3404 H3396 0.929 . S
C3404 C3405 1.377 . S
C3404 C3406 1.384 . S
C3405 C3404 1.377 . S
C3405 C3411 1.390 . S
C3406 H3397 0.930 . S
C3406 C3404 1.384 . S
C3406 C3407 1.372 . S
C3407 C3406 1.372 . S
C3407 C3408 1.400 . S
C3407 C3412 1.490 . S
C3408 H3398 0.930 . S
C3408 C3407 1.400 . S
C3408 C3411 1.386 . S
H3409 C3425 0.930 . S
H3410 C3426 0.931 . S
C3411 H3399 0.929 . S
C3411 C3405 1.390 . S
C3411 C3408 1.386 . S
C3412 C3407 1.490 . S
C3412 C3414 1.395 . S
C3412 C3415 1.403 . S
H3413 C3419 0.930 . S
C3414 H3400 0.930 . S
C3414 C3412 1.395 . S
C3414 C3417 1.403 . S
C3415 C3412 1.403 . S
C3415 C3416 1.524 . S
C3415 C3419 1.400 . S
C3416 H3401 0.960 . S
C3416 H3402 0.960 . S
C3416 H3403 0.960 . S
C3416 C3415 1.524 . S
C3417 C3414 1.403 . S
C3417 C3418 1.392 . S
C3417 C3421 1.495 . S
C3418 C3417 1.392 . S
C3418 C3419 1.385 . S
C3418 C3420 1.478 . S
C3419 H3413 0.930 . S
C3419 C3415 1.400 . S
C3419 C3418 1.385 . S
C3420 C3418 1.478 . S
C3420 C3422 1.381 . S
C3420 C3426 1.383 . S
C3421 C3417 1.495 . S
C3421 H3427 0.959 . S
C3421 H3428 0.961 . S
C3421 H3429 0.960 . S
C3422 C3420 1.381 . S
C3422 C3423 1.394 . S
C3422 H3430 0.930 . S
C3423 C3422 1.394 . S
C3423 C3424 1.383 . S
C3423 H3431 0.929 . S
C3424 C3423 1.383 . S
C3424 C3425 1.377 . S
C3425 H3409 0.930 . S
C3425 C3424 1.377 . S
C3425 C3426 1.379 . S
C3426 H3410 0.931 . S
C3426 C3420 1.383 . S
C3426 C3425 1.379 . S
H3427 C3421 0.959 . S
H3428 C3421 0.961 . S
H3429 C3421 0.960 . S
H3430 C3422 0.930 . S
H3431 C3423 0.929 . S
H3432 C3440 0.929 . S
H3433 C3442 0.930 . S
H3434 C3444 0.930 . S
H3435 C3447 0.929 . S
H3436 C3450 0.930 . S
H3437 C3452 0.960 . S
H3438 C3452 0.960 . S
H3439 C3452 0.960 . S
C3440 H3432 0.929 . S
C3440 C3441 1.377 . S
C3440 C3442 1.384 . S
C3441 C3440 1.377 . S
C3441 C3447 1.390 . S
C3442 H3433 0.930 . S
C3442 C3440 1.384 . S
C3442 C3443 1.372 . S
C3443 C3442 1.372 . S
C3443 C3444 1.400 . S
C3443 C3448 1.490 . S
C3444 H3434 0.930 . S
C3444 C3443 1.400 . S
C3444 C3447 1.386 . S
H3445 C3461 0.930 . S
H3446 C3462 0.931 . S
C3447 H3435 0.929 . S
C3447 C3441 1.390 . S
C3447 C3444 1.386 . S
C3448 C3443 1.490 . S
C3448 C3450 1.395 . S
C3448 C3451 1.403 . S
H3449 C3455 0.930 . S
C3450 H3436 0.930 . S
C3450 C3448 1.395 . S
C3450 C3453 1.403 . S
C3451 C3448 1.403 . S
C3451 C3452 1.524 . S
C3451 C3455 1.400 . S
C3452 H3437 0.960 . S
C3452 H3438 0.960 . S
C3452 H3439 0.960 . S
C3452 C3451 1.524 . S
C3453 C3450 1.403 . S
C3453 C3454 1.392 . S
C3453 C3457 1.495 . S
C3454 C3453 1.392 . S
C3454 C3455 1.385 . S
C3454 C3456 1.478 . S
C3455 H3449 0.930 . S
C3455 C3451 1.400 . S
C3455 C3454 1.385 . S
C3456 C3454 1.478 . S
C3456 C3458 1.381 . S
C3456 C3462 1.383 . S
C3457 C3453 1.495 . S
C3457 H3463 0.959 . S
C3457 H3464 0.961 . S
C3457 H3465 0.960 . S
C3458 C3456 1.381 . S
C3458 C3459 1.394 . S
C3458 H3466 0.930 . S
C3459 C3458 1.394 . S
C3459 C3460 1.383 . S
C3459 H3467 0.929 . S
C3460 C3459 1.383 . S
C3460 C3461 1.377 . S
C3461 H3445 0.930 . S
C3461 C3460 1.377 . S
C3461 C3462 1.379 . S
C3462 H3446 0.931 . S
C3462 C3456 1.383 . S
C3462 C3461 1.379 . S
H3463 C3457 0.959 . S
H3464 C3457 0.961 . S
H3465 C3457 0.960 . S
H3466 C3458 0.930 . S
H3467 C3459 0.929 . S
H3468 C3476 0.929 . S
H3469 C3478 0.930 . S
H3470 C3480 0.930 . S
H3471 C3483 0.929 . S
H3472 C3486 0.930 . S
H3473 C3488 0.960 . S
H3474 C3488 0.960 . S
H3475 C3488 0.960 . S
C3476 H3468 0.929 . S
C3476 C3477 1.377 . S
C3476 C3478 1.384 . S
C3477 C3476 1.377 . S
C3477 C3483 1.390 . S
C3478 H3469 0.930 . S
C3478 C3476 1.384 . S
C3478 C3479 1.372 . S
C3479 C3478 1.372 . S
C3479 C3480 1.400 . S
C3479 C3484 1.490 . S
C3480 H3470 0.930 . S
C3480 C3479 1.400 . S
C3480 C3483 1.386 . S
H3481 C3497 0.930 . S
H3482 C3498 0.931 . S
C3483 H3471 0.929 . S
C3483 C3477 1.390 . S
C3483 C3480 1.386 . S
C3484 C3479 1.490 . S
C3484 C3486 1.395 . S
C3484 C3487 1.403 . S
H3485 C3491 0.930 . S
C3486 H3472 0.930 . S
C3486 C3484 1.395 . S
C3486 C3489 1.403 . S
C3487 C3484 1.403 . S
C3487 C3488 1.524 . S
C3487 C3491 1.400 . S
C3488 H3473 0.960 . S
C3488 H3474 0.960 . S
C3488 H3475 0.960 . S
C3488 C3487 1.524 . S
C3489 C3486 1.403 . S
C3489 C3490 1.392 . S
C3489 C3493 1.495 . S
C3490 C3489 1.392 . S
C3490 C3491 1.385 . S
C3490 C3492 1.478 . S
C3491 H3485 0.930 . S
C3491 C3487 1.400 . S
C3491 C3490 1.385 . S
C3492 C3490 1.478 . S
C3492 C3494 1.381 . S
C3492 C3498 1.383 . S
C3493 C3489 1.495 . S
C3493 H3499 0.959 . S
C3493 H3500 0.961 . S
C3493 H3501 0.960 . S
C3494 C3492 1.381 . S
C3494 C3495 1.394 . S
C3494 H3502 0.930 . S
C3495 C3494 1.394 . S
C3495 C3496 1.383 . S
C3495 H3503 0.929 . S
C3496 C3495 1.383 . S
C3496 C3497 1.377 . S
C3497 H3481 0.930 . S
C3497 C3496 1.377 . S
C3497 C3498 1.379 . S
C3498 H3482 0.931 . S
C3498 C3492 1.383 . S
C3498 C3497 1.379 . S
H3499 C3493 0.959 . S
H3500 C3493 0.961 . S
H3501 C3493 0.960 . S
H3502 C3494 0.930 . S
H3503 C3495 0.929 . S
H3504 C3512 0.929 . S
H3505 C3514 0.930 . S
H3506 C3516 0.930 . S
H3507 C3519 0.929 . S
H3508 C3522 0.930 . S
H3509 C3524 0.960 . S
H3510 C3524 0.960 . S
H3511 C3524 0.960 . S
C3512 H3504 0.929 . S
C3512 C3513 1.377 . S
C3512 C3514 1.384 . S
C3513 C3512 1.377 . S
C3513 C3519 1.390 . S
C3514 H3505 0.930 . S
C3514 C3512 1.384 . S
C3514 C3515 1.372 . S
C3515 C3514 1.372 . S
C3515 C3516 1.400 . S
C3515 C3520 1.490 . S
C3516 H3506 0.930 . S
C3516 C3515 1.400 . S
C3516 C3519 1.386 . S
H3517 C3533 0.930 . S
H3518 C3534 0.931 . S
C3519 H3507 0.929 . S
C3519 C3513 1.390 . S
C3519 C3516 1.386 . S
C3520 C3515 1.490 . S
C3520 C3522 1.395 . S
C3520 C3523 1.403 . S
H3521 C3527 0.930 . S
C3522 H3508 0.930 . S
C3522 C3520 1.395 . S
C3522 C3525 1.403 . S
C3523 C3520 1.403 . S
C3523 C3524 1.524 . S
C3523 C3527 1.400 . S
C3524 H3509 0.960 . S
C3524 H3510 0.960 . S
C3524 H3511 0.960 . S
C3524 C3523 1.524 . S
C3525 C3522 1.403 . S
C3525 C3526 1.392 . S
C3525 C3529 1.495 . S
C3526 C3525 1.392 . S
C3526 C3527 1.385 . S
C3526 C3528 1.478 . S
C3527 H3521 0.930 . S
C3527 C3523 1.400 . S
C3527 C3526 1.385 . S
C3528 C3526 1.478 . S
C3528 C3530 1.381 . S
C3528 C3534 1.383 . S
C3529 C3525 1.495 . S
C3529 H3535 0.959 . S
C3529 H3536 0.961 . S
C3529 H3537 0.960 . S
C3530 C3528 1.381 . S
C3530 C3531 1.394 . S
C3530 H3538 0.930 . S
C3531 C3530 1.394 . S
C3531 C3532 1.383 . S
C3531 H3539 0.929 . S
C3532 C3531 1.383 . S
C3532 C3533 1.377 . S
C3533 H3517 0.930 . S
C3533 C3532 1.377 . S
C3533 C3534 1.379 . S
C3534 H3518 0.931 . S
C3534 C3528 1.383 . S
C3534 C3533 1.379 . S
H3535 C3529 0.959 . S
H3536 C3529 0.961 . S
H3537 C3529 0.960 . S
H3538 C3530 0.930 . S
H3539 C3531 0.929 . S
H3540 C3548 0.929 . S
H3541 C3550 0.930 . S
H3542 C3552 0.930 . S
H3543 C3555 0.929 . S
H3544 C3558 0.930 . S
H3545 C3560 0.960 . S
H3546 C3560 0.960 . S
H3547 C3560 0.960 . S
C3548 H3540 0.929 . S
C3548 C3549 1.377 . S
C3548 C3550 1.384 . S
C3549 C3548 1.377 . S
C3549 C3555 1.390 . S
C3550 H3541 0.930 . S
C3550 C3548 1.384 . S
C3550 C3551 1.372 . S
C3551 C3550 1.372 . S
C3551 C3552 1.400 . S
C3551 C3556 1.490 . S
C3552 H3542 0.930 . S
C3552 C3551 1.400 . S
C3552 C3555 1.386 . S
H3553 C3569 0.930 . S
H3554 C3570 0.931 . S
C3555 H3543 0.929 . S
C3555 C3549 1.390 . S
C3555 C3552 1.386 . S
C3556 C3551 1.490 . S
C3556 C3558 1.395 . S
C3556 C3559 1.403 . S
H3557 C3563 0.930 . S
C3558 H3544 0.930 . S
C3558 C3556 1.395 . S
C3558 C3561 1.403 . S
C3559 C3556 1.403 . S
C3559 C3560 1.524 . S
C3559 C3563 1.400 . S
C3560 H3545 0.960 . S
C3560 H3546 0.960 . S
C3560 H3547 0.960 . S
C3560 C3559 1.524 . S
C3561 C3558 1.403 . S
C3561 C3562 1.392 . S
C3561 C3565 1.495 . S
C3562 C3561 1.392 . S
C3562 C3563 1.385 . S
C3562 C3564 1.478 . S
C3563 H3557 0.930 . S
C3563 C3559 1.400 . S
C3563 C3562 1.385 . S
C3564 C3562 1.478 . S
C3564 C3566 1.381 . S
C3564 C3570 1.383 . S
C3565 C3561 1.495 . S
C3565 H3571 0.959 . S
C3565 H3572 0.961 . S
C3565 H3573 0.960 . S
C3566 C3564 1.381 . S
C3566 C3567 1.394 . S
C3566 H3574 0.930 . S
C3567 C3566 1.394 . S
C3567 C3568 1.383 . S
C3567 H3575 0.929 . S
C3568 C3567 1.383 . S
C3568 C3569 1.377 . S
C3569 H3553 0.930 . S
C3569 C3568 1.377 . S
C3569 C3570 1.379 . S
C3570 H3554 0.931 . S
C3570 C3564 1.383 . S
C3570 C3569 1.379 . S
H3571 C3565 0.959 . S
H3572 C3565 0.961 . S
H3573 C3565 0.960 . S
H3574 C3566 0.930 . S
H3575 C3567 0.929 . S
H3576 C3584 0.929 . S
H3577 C3586 0.930 . S
H3578 C3588 0.930 . S
H3579 C3591 0.929 . S
H3580 C3594 0.930 . S
H3581 C3596 0.960 . S
H3582 C3596 0.960 . S
H3583 C3596 0.960 . S
C3584 H3576 0.929 . S
C3584 C3585 1.377 . S
C3584 C3586 1.384 . S
C3585 C3584 1.377 . S
C3585 C3591 1.390 . S
C3586 H3577 0.930 . S
C3586 C3584 1.384 . S
C3586 C3587 1.372 . S
C3587 C3586 1.372 . S
C3587 C3588 1.400 . S
C3587 C3592 1.490 . S
C3588 H3578 0.930 . S
C3588 C3587 1.400 . S
C3588 C3591 1.386 . S
H3589 C3605 0.930 . S
H3590 C3606 0.931 . S
C3591 H3579 0.929 . S
C3591 C3585 1.390 . S
C3591 C3588 1.386 . S
C3592 C3587 1.490 . S
C3592 C3594 1.395 . S
C3592 C3595 1.403 . S
H3593 C3599 0.930 . S
C3594 H3580 0.930 . S
C3594 C3592 1.395 . S
C3594 C3597 1.403 . S
C3595 C3592 1.403 . S
C3595 C3596 1.524 . S
C3595 C3599 1.400 . S
C3596 H3581 0.960 . S
C3596 H3582 0.960 . S
C3596 H3583 0.960 . S
C3596 C3595 1.524 . S
C3597 C3594 1.403 . S
C3597 C3598 1.392 . S
C3597 C3601 1.495 . S
C3598 C3597 1.392 . S
C3598 C3599 1.385 . S
C3598 C3600 1.478 . S
C3599 H3593 0.930 . S
C3599 C3595 1.400 . S
C3599 C3598 1.385 . S
C3600 C3598 1.478 . S
C3600 C3602 1.381 . S
C3600 C3606 1.383 . S
C3601 C3597 1.495 . S
C3601 H3607 0.959 . S
C3601 H3608 0.961 . S
C3601 H3609 0.960 . S
C3602 C3600 1.381 . S
C3602 C3603 1.394 . S
C3602 H3610 0.930 . S
C3603 C3602 1.394 . S
C3603 C3604 1.383 . S
C3603 H3611 0.929 . S
C3604 C3603 1.383 . S
C3604 C3605 1.377 . S
C3605 H3589 0.930 . S
C3605 C3604 1.377 . S
C3605 C3606 1.379 . S
C3606 H3590 0.931 . S
C3606 C3600 1.383 . S
C3606 C3605 1.379 . S
H3607 C3601 0.959 . S
H3608 C3601 0.961 . S
H3609 C3601 0.960 . S
H3610 C3602 0.930 . S
H3611 C3603 0.929 . S
H3612 C3620 0.929 . S
H3613 C3622 0.930 . S
H3614 C3624 0.930 . S
H3615 C3627 0.929 . S
H3616 C3630 0.930 . S
H3617 C3632 0.960 . S
H3618 C3632 0.960 . S
H3619 C3632 0.960 . S
C3620 H3612 0.929 . S
C3620 C3621 1.377 . S
C3620 C3622 1.384 . S
C3621 C3620 1.377 . S
C3621 C3627 1.390 . S
C3622 H3613 0.930 . S
C3622 C3620 1.384 . S
C3622 C3623 1.372 . S
C3623 C3622 1.372 . S
C3623 C3624 1.400 . S
C3623 C3628 1.490 . S
C3624 H3614 0.930 . S
C3624 C3623 1.400 . S
C3624 C3627 1.386 . S
H3625 C3641 0.930 . S
H3626 C3642 0.931 . S
C3627 H3615 0.929 . S
C3627 C3621 1.390 . S
C3627 C3624 1.386 . S
C3628 C3623 1.490 . S
C3628 C3630 1.395 . S
C3628 C3631 1.403 . S
H3629 C3635 0.930 . S
C3630 H3616 0.930 . S
C3630 C3628 1.395 . S
C3630 C3633 1.403 . S
C3631 C3628 1.403 . S
C3631 C3632 1.524 . S
C3631 C3635 1.400 . S
C3632 H3617 0.960 . S
C3632 H3618 0.960 . S
C3632 H3619 0.960 . S
C3632 C3631 1.524 . S
C3633 C3630 1.403 . S
C3633 C3634 1.392 . S
C3633 C3637 1.495 . S
C3634 C3633 1.392 . S
C3634 C3635 1.385 . S
C3634 C3636 1.478 . S
C3635 H3629 0.930 . S
C3635 C3631 1.400 . S
C3635 C3634 1.385 . S
C3636 C3634 1.478 . S
C3636 C3638 1.381 . S
C3636 C3642 1.383 . S
C3637 C3633 1.495 . S
C3637 H3643 0.959 . S
C3637 H3644 0.961 . S
C3637 H3645 0.960 . S
C3638 C3636 1.381 . S
C3638 C3639 1.394 . S
C3638 H3646 0.930 . S
C3639 C3638 1.394 . S
C3639 C3640 1.383 . S
C3639 H3647 0.929 . S
C3640 C3639 1.383 . S
C3640 C3641 1.377 . S
C3641 H3625 0.930 . S
C3641 C3640 1.377 . S
C3641 C3642 1.379 . S
C3642 H3626 0.931 . S
C3642 C3636 1.383 . S
C3642 C3641 1.379 . S
H3643 C3637 0.959 . S
H3644 C3637 0.961 . S
H3645 C3637 0.960 . S
H3646 C3638 0.930 . S
H3647 C3639 0.929 . S
H3648 C3656 0.929 . S
H3649 C3658 0.930 . S
H3650 C3660 0.930 . S
H3651 C3663 0.929 . S
H3652 C3666 0.930 . S
H3653 C3668 0.960 . S
H3654 C3668 0.960 . S
H3655 C3668 0.960 . S
C3656 H3648 0.929 . S
C3656 C3657 1.377 . S
C3656 C3658 1.384 . S
C3657 C3656 1.377 . S
C3657 C3663 1.390 . S
C3658 H3649 0.930 . S
C3658 C3656 1.384 . S
C3658 C3659 1.372 . S
C3659 C3658 1.372 . S
C3659 C3660 1.400 . S
C3659 C3664 1.490 . S
C3660 H3650 0.930 . S
C3660 C3659 1.400 . S
C3660 C3663 1.386 . S
H3661 C3677 0.930 . S
H3662 C3678 0.931 . S
C3663 H3651 0.929 . S
C3663 C3657 1.390 . S
C3663 C3660 1.386 . S
C3664 C3659 1.490 . S
C3664 C3666 1.395 . S
C3664 C3667 1.403 . S
H3665 C3671 0.930 . S
C3666 H3652 0.930 . S
C3666 C3664 1.395 . S
C3666 C3669 1.403 . S
C3667 C3664 1.403 . S
C3667 C3668 1.524 . S
C3667 C3671 1.400 . S
C3668 H3653 0.960 . S
C3668 H3654 0.960 . S
C3668 H3655 0.960 . S
C3668 C3667 1.524 . S
C3669 C3666 1.403 . S
C3669 C3670 1.392 . S
C3669 C3673 1.495 . S
C3670 C3669 1.392 . S
C3670 C3671 1.385 . S
C3670 C3672 1.478 . S
C3671 H3665 0.930 . S
C3671 C3667 1.400 . S
C3671 C3670 1.385 . S
C3672 C3670 1.478 . S
C3672 C3674 1.381 . S
C3672 C3678 1.383 . S
C3673 C3669 1.495 . S
C3673 H3679 0.959 . S
C3673 H3680 0.961 . S
C3673 H3681 0.960 . S
C3674 C3672 1.381 . S
C3674 C3675 1.394 . S
C3674 H3682 0.930 . S
C3675 C3674 1.394 . S
C3675 C3676 1.383 . S
C3675 H3683 0.929 . S
C3676 C3675 1.383 . S
C3676 C3677 1.377 . S
C3677 H3661 0.930 . S
C3677 C3676 1.377 . S
C3677 C3678 1.379 . S
C3678 H3662 0.931 . S
C3678 C3672 1.383 . S
C3678 C3677 1.379 . S
H3679 C3673 0.959 . S
H3680 C3673 0.961 . S
H3681 C3673 0.960 . S
H3682 C3674 0.930 . S
H3683 C3675 0.929 . S
H3684 C3692 0.929 . S
H3685 C3694 0.930 . S
H3686 C3696 0.930 . S
H3687 C3699 0.929 . S
H3688 C3702 0.930 . S
H3689 C3704 0.960 . S
H3690 C3704 0.960 . S
H3691 C3704 0.960 . S
C3692 H3684 0.929 . S
C3692 C3693 1.377 . S
C3692 C3694 1.384 . S
C3693 C3692 1.377 . S
C3693 C3699 1.390 . S
C3694 H3685 0.930 . S
C3694 C3692 1.384 . S
C3694 C3695 1.372 . S
C3695 C3694 1.372 . S
C3695 C3696 1.400 . S
C3695 C3700 1.490 . S
C3696 H3686 0.930 . S
C3696 C3695 1.400 . S
C3696 C3699 1.386 . S
H3697 C3713 0.930 . S
H3698 C3714 0.931 . S
C3699 H3687 0.929 . S
C3699 C3693 1.390 . S
C3699 C3696 1.386 . S
C3700 C3695 1.490 . S
C3700 C3702 1.395 . S
C3700 C3703 1.403 . S
H3701 C3707 0.930 . S
C3702 H3688 0.930 . S
C3702 C3700 1.395 . S
C3702 C3705 1.403 . S
C3703 C3700 1.403 . S
C3703 C3704 1.524 . S
C3703 C3707 1.400 . S
C3704 H3689 0.960 . S
C3704 H3690 0.960 . S
C3704 H3691 0.960 . S
C3704 C3703 1.524 . S
C3705 C3702 1.403 . S
C3705 C3706 1.392 . S
C3705 C3709 1.495 . S
C3706 C3705 1.392 . S
C3706 C3707 1.385 . S
C3706 C3708 1.478 . S
C3707 H3701 0.930 . S
C3707 C3703 1.400 . S
C3707 C3706 1.385 . S
C3708 C3706 1.478 . S
C3708 C3710 1.381 . S
C3708 C3714 1.383 . S
C3709 C3705 1.495 . S
C3709 H3715 0.959 . S
C3709 H3716 0.961 . S
C3709 H3717 0.960 . S
C3710 C3708 1.381 . S
C3710 C3711 1.394 . S
C3710 H3718 0.930 . S
C3711 C3710 1.394 . S
C3711 C3712 1.383 . S
C3711 H3719 0.929 . S
C3712 C3711 1.383 . S
C3712 C3713 1.377 . S
C3713 H3697 0.930 . S
C3713 C3712 1.377 . S
C3713 C3714 1.379 . S
C3714 H3698 0.931 . S
C3714 C3708 1.383 . S
C3714 C3713 1.379 . S
H3715 C3709 0.959 . S
H3716 C3709 0.961 . S
H3717 C3709 0.960 . S
H3718 C3710 0.930 . S
H3719 C3711 0.929 . S
H3720 C3728 0.929 . S
H3721 C3730 0.930 . S
H3722 C3732 0.930 . S
H3723 C3735 0.929 . S
H3724 C3738 0.930 . S
H3725 C3740 0.960 . S
H3726 C3740 0.960 . S
H3727 C3740 0.960 . S
C3728 H3720 0.929 . S
C3728 C3729 1.377 . S
C3728 C3730 1.384 . S
C3729 C3728 1.377 . S
C3729 C3735 1.390 . S
C3730 H3721 0.930 . S
C3730 C3728 1.384 . S
C3730 C3731 1.372 . S
C3731 C3730 1.372 . S
C3731 C3732 1.400 . S
C3731 C3736 1.490 . S
C3732 H3722 0.930 . S
C3732 C3731 1.400 . S
C3732 C3735 1.386 . S
H3733 C3749 0.930 . S
H3734 C3750 0.931 . S
C3735 H3723 0.929 . S
C3735 C3729 1.390 . S
C3735 C3732 1.386 . S
C3736 C3731 1.490 . S
C3736 C3738 1.395 . S
C3736 C3739 1.403 . S
H3737 C3743 0.930 . S
C3738 H3724 0.930 . S
C3738 C3736 1.395 . S
C3738 C3741 1.403 . S
C3739 C3736 1.403 . S
C3739 C3740 1.524 . S
C3739 C3743 1.400 . S
C3740 H3725 0.960 . S
C3740 H3726 0.960 . S
C3740 H3727 0.960 . S
C3740 C3739 1.524 . S
C3741 C3738 1.403 . S
C3741 C3742 1.392 . S
C3741 C3745 1.495 . S
C3742 C3741 1.392 . S
C3742 C3743 1.385 . S
C3742 C3744 1.478 . S
C3743 H3737 0.930 . S
C3743 C3739 1.400 . S
C3743 C3742 1.385 . S
C3744 C3742 1.478 . S
C3744 C3746 1.381 . S
C3744 C3750 1.383 . S
C3745 C3741 1.495 . S
C3745 H3751 0.959 . S
C3745 H3752 0.961 . S
C3745 H3753 0.960 . S
C3746 C3744 1.381 . S
C3746 C3747 1.394 . S
C3746 H3754 0.930 . S
C3747 C3746 1.394 . S
C3747 C3748 1.383 . S
C3747 H3755 0.929 . S
C3748 C3747 1.383 . S
C3748 C3749 1.377 . S
C3749 H3733 0.930 . S
C3749 C3748 1.377 . S
C3749 C3750 1.379 . S
C3750 H3734 0.931 . S
C3750 C3744 1.383 . S
C3750 C3749 1.379 . S
H3751 C3745 0.959 . S
H3752 C3745 0.961 . S
H3753 C3745 0.960 . S
H3754 C3746 0.930 . S
H3755 C3747 0.929 . S
H3756 C3764 0.929 . S
H3757 C3766 0.930 . S
H3758 C3768 0.930 . S
H3759 C3771 0.929 . S
H3760 C3774 0.930 . S
H3761 C3776 0.960 . S
H3762 C3776 0.960 . S
H3763 C3776 0.960 . S
C3764 H3756 0.929 . S
C3764 C3765 1.377 . S
C3764 C3766 1.384 . S
C3765 C3764 1.377 . S
C3765 C3771 1.390 . S
C3766 H3757 0.930 . S
C3766 C3764 1.384 . S
C3766 C3767 1.372 . S
C3767 C3766 1.372 . S
C3767 C3768 1.400 . S
C3767 C3772 1.490 . S
C3768 H3758 0.930 . S
C3768 C3767 1.400 . S
C3768 C3771 1.386 . S
H3769 C3785 0.930 . S
H3770 C3786 0.931 . S
C3771 H3759 0.929 . S
C3771 C3765 1.390 . S
C3771 C3768 1.386 . S
C3772 C3767 1.490 . S
C3772 C3774 1.395 . S
C3772 C3775 1.403 . S
H3773 C3779 0.930 . S
C3774 H3760 0.930 . S
C3774 C3772 1.395 . S
C3774 C3777 1.403 . S
C3775 C3772 1.403 . S
C3775 C3776 1.524 . S
C3775 C3779 1.400 . S
C3776 H3761 0.960 . S
C3776 H3762 0.960 . S
C3776 H3763 0.960 . S
C3776 C3775 1.524 . S
C3777 C3774 1.403 . S
C3777 C3778 1.392 . S
C3777 C3781 1.495 . S
C3778 C3777 1.392 . S
C3778 C3779 1.385 . S
C3778 C3780 1.478 . S
C3779 H3773 0.930 . S
C3779 C3775 1.400 . S
C3779 C3778 1.385 . S
C3780 C3778 1.478 . S
C3780 C3782 1.381 . S
C3780 C3786 1.383 . S
C3781 C3777 1.495 . S
C3781 H3787 0.959 . S
C3781 H3788 0.961 . S
C3781 H3789 0.960 . S
C3782 C3780 1.381 . S
C3782 C3783 1.394 . S
C3782 H3790 0.930 . S
C3783 C3782 1.394 . S
C3783 C3784 1.383 . S
C3783 H3791 0.929 . S
C3784 C3783 1.383 . S
C3784 C3785 1.377 . S
C3785 H3769 0.930 . S
C3785 C3784 1.377 . S
C3785 C3786 1.379 . S
C3786 H3770 0.931 . S
C3786 C3780 1.383 . S
C3786 C3785 1.379 . S
H3787 C3781 0.959 . S
H3788 C3781 0.961 . S
H3789 C3781 0.960 . S
H3790 C3782 0.930 . S
H3791 C3783 0.929 . S
H3792 C3800 0.929 . S
H3793 C3802 0.930 . S
H3794 C3804 0.930 . S
H3795 C3807 0.929 . S
H3796 C3810 0.930 . S
H3797 C3812 0.960 . S
H3798 C3812 0.960 . S
H3799 C3812 0.960 . S
C3800 H3792 0.929 . S
C3800 C3801 1.377 . S
C3800 C3802 1.384 . S
C3801 C3800 1.377 . S
C3801 C3807 1.390 . S
C3802 H3793 0.930 . S
C3802 C3800 1.384 . S
C3802 C3803 1.372 . S
C3803 C3802 1.372 . S
C3803 C3804 1.400 . S
C3803 C3808 1.490 . S
C3804 H3794 0.930 . S
C3804 C3803 1.400 . S
C3804 C3807 1.386 . S
H3805 C3821 0.930 . S
H3806 C3822 0.931 . S
C3807 H3795 0.929 . S
C3807 C3801 1.390 . S
C3807 C3804 1.386 . S
C3808 C3803 1.490 . S
C3808 C3810 1.395 . S
C3808 C3811 1.403 . S
H3809 C3815 0.930 . S
C3810 H3796 0.930 . S
C3810 C3808 1.395 . S
C3810 C3813 1.403 . S
C3811 C3808 1.403 . S
C3811 C3812 1.524 . S
C3811 C3815 1.400 . S
C3812 H3797 0.960 . S
C3812 H3798 0.960 . S
C3812 H3799 0.960 . S
C3812 C3811 1.524 . S
C3813 C3810 1.403 . S
C3813 C3814 1.392 . S
C3813 C3817 1.495 . S
C3814 C3813 1.392 . S
C3814 C3815 1.385 . S
C3814 C3816 1.478 . S
C3815 H3809 0.930 . S
C3815 C3811 1.400 . S
C3815 C3814 1.385 . S
C3816 C3814 1.478 . S
C3816 C3818 1.381 . S
C3816 C3822 1.383 . S
C3817 C3813 1.495 . S
C3817 H3823 0.959 . S
C3817 H3824 0.961 . S
C3817 H3825 0.960 . S
C3818 C3816 1.381 . S
C3818 C3819 1.394 . S
C3818 H3826 0.930 . S
C3819 C3818 1.394 . S
C3819 C3820 1.383 . S
C3819 H3827 0.929 . S
C3820 C3819 1.383 . S
C3820 C3821 1.377 . S
C3821 H3805 0.930 . S
C3821 C3820 1.377 . S
C3821 C3822 1.379 . S
C3822 H3806 0.931 . S
C3822 C3816 1.383 . S
C3822 C3821 1.379 . S
H3823 C3817 0.959 . S
H3824 C3817 0.961 . S
H3825 C3817 0.960 . S
H3826 C3818 0.930 . S
H3827 C3819 0.929 . S
H3828 C3836 0.929 . S
H3829 C3838 0.930 . S
H3830 C3840 0.930 . S
H3831 C3843 0.929 . S
H3832 C3846 0.930 . S
H3833 C3848 0.960 . S
H3834 C3848 0.960 . S
H3835 C3848 0.960 . S
C3836 H3828 0.929 . S
C3836 C3837 1.377 . S
C3836 C3838 1.384 . S
C3837 C3836 1.377 . S
C3837 C3843 1.390 . S
C3838 H3829 0.930 . S
C3838 C3836 1.384 . S
C3838 C3839 1.372 . S
C3839 C3838 1.372 . S
C3839 C3840 1.400 . S
C3839 C3844 1.490 . S
C3840 H3830 0.930 . S
C3840 C3839 1.400 . S
C3840 C3843 1.386 . S
H3841 C3857 0.930 . S
H3842 C3858 0.931 . S
C3843 H3831 0.929 . S
C3843 C3837 1.390 . S
C3843 C3840 1.386 . S
C3844 C3839 1.490 . S
C3844 C3846 1.395 . S
C3844 C3847 1.403 . S
H3845 C3851 0.930 . S
C3846 H3832 0.930 . S
C3846 C3844 1.395 . S
C3846 C3849 1.403 . S
C3847 C3844 1.403 . S
C3847 C3848 1.524 . S
C3847 C3851 1.400 . S
C3848 H3833 0.960 . S
C3848 H3834 0.960 . S
C3848 H3835 0.960 . S
C3848 C3847 1.524 . S
C3849 C3846 1.403 . S
C3849 C3850 1.392 . S
C3849 C3853 1.495 . S
C3850 C3849 1.392 . S
C3850 C3851 1.385 . S
C3850 C3852 1.478 . S
C3851 H3845 0.930 . S
C3851 C3847 1.400 . S
C3851 C3850 1.385 . S
C3852 C3850 1.478 . S
C3852 C3854 1.381 . S
C3852 C3858 1.383 . S
C3853 C3849 1.495 . S
C3853 H3859 0.959 . S
C3853 H3860 0.961 . S
C3853 H3861 0.960 . S
C3854 C3852 1.381 . S
C3854 C3855 1.394 . S
C3854 H3862 0.930 . S
C3855 C3854 1.394 . S
C3855 C3856 1.383 . S
C3855 H3863 0.929 . S
C3856 C3855 1.383 . S
C3856 C3857 1.377 . S
C3857 H3841 0.930 . S
C3857 C3856 1.377 . S
C3857 C3858 1.379 . S
C3858 H3842 0.931 . S
C3858 C3852 1.383 . S
C3858 C3857 1.379 . S
H3859 C3853 0.959 . S
H3860 C3853 0.961 . S
H3861 C3853 0.960 . S
H3862 C3854 0.930 . S
H3863 C3855 0.929 . S
H3864 C3872 0.929 . S
H3865 C3874 0.930 . S
H3866 C3876 0.930 . S
H3867 C3879 0.929 . S
H3868 C3882 0.930 . S
H3869 C3884 0.960 . S
H3870 C3884 0.960 . S
H3871 C3884 0.960 . S
C3872 H3864 0.929 . S
C3872 C3873 1.377 . S
C3872 C3874 1.384 . S
C3873 C3872 1.377 . S
C3873 C3879 1.390 . S
C3874 H3865 0.930 . S
C3874 C3872 1.384 . S
C3874 C3875 1.372 . S
C3875 C3874 1.372 . S
C3875 C3876 1.400 . S
C3875 C3880 1.490 . S
C3876 H3866 0.930 . S
C3876 C3875 1.400 . S
C3876 C3879 1.386 . S
H3877 C3893 0.930 . S
H3878 C3894 0.931 . S
C3879 H3867 0.929 . S
C3879 C3873 1.390 . S
C3879 C3876 1.386 . S
C3880 C3875 1.490 . S
C3880 C3882 1.395 . S
C3880 C3883 1.403 . S
H3881 C3887 0.930 . S
C3882 H3868 0.930 . S
C3882 C3880 1.395 . S
C3882 C3885 1.403 . S
C3883 C3880 1.403 . S
C3883 C3884 1.524 . S
C3883 C3887 1.400 . S
C3884 H3869 0.960 . S
C3884 H3870 0.960 . S
C3884 H3871 0.960 . S
C3884 C3883 1.524 . S
C3885 C3882 1.403 . S
C3885 C3886 1.392 . S
C3885 C3889 1.495 . S
C3886 C3885 1.392 . S
C3886 C3887 1.385 . S
C3886 C3888 1.478 . S
C3887 H3881 0.930 . S
C3887 C3883 1.400 . S
C3887 C3886 1.385 . S
C3888 C3886 1.478 . S
C3888 C3890 1.381 . S
C3888 C3894 1.383 . S
C3889 C3885 1.495 . S
C3889 H3895 0.959 . S
C3889 H3896 0.961 . S
C3889 H3897 0.960 . S
C3890 C3888 1.381 . S
C3890 C3891 1.394 . S
C3890 H3898 0.930 . S
C3891 C3890 1.394 . S
C3891 C3892 1.383 . S
C3891 H3899 0.929 . S
C3892 C3891 1.383 . S
C3892 C3893 1.377 . S
C3893 H3877 0.930 . S
C3893 C3892 1.377 . S
C3893 C3894 1.379 . S
C3894 H3878 0.931 . S
C3894 C3888 1.383 . S
C3894 C3893 1.379 . S
H3895 C3889 0.959 . S
H3896 C3889 0.961 . S
H3897 C3889 0.960 . S
H3898 C3890 0.930 . S
H3899 C3891 0.929 . S
H3900 C3908 0.929 . S
H3901 C3910 0.930 . S
H3902 C3912 0.930 . S
H3903 C3915 0.929 . S
H3904 C3918 0.930 . S
H3905 C3920 0.960 . S
H3906 C3920 0.960 . S
H3907 C3920 0.960 . S
C3908 H3900 0.929 . S
C3908 C3909 1.377 . S
C3908 C3910 1.384 . S
C3909 C3908 1.377 . S
C3909 C3915 1.390 . S
C3910 H3901 0.930 . S
C3910 C3908 1.384 . S
C3910 C3911 1.372 . S
C3911 C3910 1.372 . S
C3911 C3912 1.400 . S
C3911 C3916 1.490 . S
C3912 H3902 0.930 . S
C3912 C3911 1.400 . S
C3912 C3915 1.386 . S
H3913 C3929 0.930 . S
H3914 C3930 0.931 . S
C3915 H3903 0.929 . S
C3915 C3909 1.390 . S
C3915 C3912 1.386 . S
C3916 C3911 1.490 . S
C3916 C3918 1.395 . S
C3916 C3919 1.403 . S
H3917 C3923 0.930 . S
C3918 H3904 0.930 . S
C3918 C3916 1.395 . S
C3918 C3921 1.403 . S
C3919 C3916 1.403 . S
C3919 C3920 1.524 . S
C3919 C3923 1.400 . S
C3920 H3905 0.960 . S
C3920 H3906 0.960 . S
C3920 H3907 0.960 . S
C3920 C3919 1.524 . S
C3921 C3918 1.403 . S
C3921 C3922 1.392 . S
C3921 C3925 1.495 . S
C3922 C3921 1.392 . S
C3922 C3923 1.385 . S
C3922 C3924 1.478 . S
C3923 H3917 0.930 . S
C3923 C3919 1.400 . S
C3923 C3922 1.385 . S
C3924 C3922 1.478 . S
C3924 C3926 1.381 . S
C3924 C3930 1.383 . S
C3925 C3921 1.495 . S
C3925 H3931 0.959 . S
C3925 H3932 0.961 . S
C3925 H3933 0.960 . S
C3926 C3924 1.381 . S
C3926 C3927 1.394 . S
C3926 H3934 0.930 . S
C3927 C3926 1.394 . S
C3927 C3928 1.383 . S
C3927 H3935 0.929 . S
C3928 C3927 1.383 . S
C3928 C3929 1.377 . S
C3929 H3913 0.930 . S
C3929 C3928 1.377 . S
C3929 C3930 1.379 . S
C3930 H3914 0.931 . S
C3930 C3924 1.383 . S
C3930 C3929 1.379 . S
H3931 C3925 0.959 . S
H3932 C3925 0.961 . S
H3933 C3925 0.960 . S
H3934 C3926 0.930 . S
H3935 C3927 0.929 . S
H3936 C3944 0.929 . S
H3937 C3946 0.930 . S
H3938 C3948 0.930 . S
H3939 C3951 0.929 . S
H3940 C3954 0.930 . S
H3941 C3956 0.960 . S
H3942 C3956 0.960 . S
H3943 C3956 0.960 . S
C3944 H3936 0.929 . S
C3944 C3945 1.377 . S
C3944 C3946 1.384 . S
C3945 C3944 1.377 . S
C3945 C3951 1.390 . S
C3946 H3937 0.930 . S
C3946 C3944 1.384 . S
C3946 C3947 1.372 . S
C3947 C3946 1.372 . S
C3947 C3948 1.400 . S
C3947 C3952 1.490 . S
C3948 H3938 0.930 . S
C3948 C3947 1.400 . S
C3948 C3951 1.386 . S
H3949 C3965 0.930 . S
H3950 C3966 0.931 . S
C3951 H3939 0.929 . S
C3951 C3945 1.390 . S
C3951 C3948 1.386 . S
C3952 C3947 1.490 . S
C3952 C3954 1.395 . S
C3952 C3955 1.403 . S
H3953 C3959 0.930 . S
C3954 H3940 0.930 . S
C3954 C3952 1.395 . S
C3954 C3957 1.403 . S
C3955 C3952 1.403 . S
C3955 C3956 1.524 . S
C3955 C3959 1.400 . S
C3956 H3941 0.960 . S
C3956 H3942 0.960 . S
C3956 H3943 0.960 . S
C3956 C3955 1.524 . S
C3957 C3954 1.403 . S
C3957 C3958 1.392 . S
C3957 C3961 1.495 . S
C3958 C3957 1.392 . S
C3958 C3959 1.385 . S
C3958 C3960 1.478 . S
C3959 H3953 0.930 . S
C3959 C3955 1.400 . S
C3959 C3958 1.385 . S
C3960 C3958 1.478 . S
C3960 C3962 1.381 . S
C3960 C3966 1.383 . S
C3961 C3957 1.495 . S
C3961 H3967 0.959 . S
C3961 H3968 0.961 . S
C3961 H3969 0.960 . S
C3962 C3960 1.381 . S
C3962 C3963 1.394 . S
C3962 H3970 0.930 . S
C3963 C3962 1.394 . S
C3963 C3964 1.383 . S
C3963 H3971 0.929 . S
C3964 C3963 1.383 . S
C3964 C3965 1.377 . S
C3965 H3949 0.930 . S
C3965 C3964 1.377 . S
C3965 C3966 1.379 . S
C3966 H3950 0.931 . S
C3966 C3960 1.383 . S
C3966 C3965 1.379 . S
H3967 C3961 0.959 . S
H3968 C3961 0.961 . S
H3969 C3961 0.960 . S
H3970 C3962 0.930 . S
H3971 C3963 0.929 . S
H3972 C3980 0.929 . S
H3973 C3982 0.930 . S
H3974 C3984 0.930 . S
H3975 C3987 0.929 . S
H3976 C3990 0.930 . S
H3977 C3992 0.960 . S
H3978 C3992 0.960 . S
H3979 C3992 0.960 . S
C3980 H3972 0.929 . S
C3980 C3981 1.377 . S
C3980 C3982 1.384 . S
C3981 C3980 1.377 . S
C3981 C3987 1.390 . S
C3982 H3973 0.930 . S
C3982 C3980 1.384 . S
C3982 C3983 1.372 . S
C3983 C3982 1.372 . S
C3983 C3984 1.400 . S
C3983 C3988 1.490 . S
C3984 H3974 0.930 . S
C3984 C3983 1.400 . S
C3984 C3987 1.386 . S
H3985 C4001 0.930 . S
H3986 C4002 0.931 . S
C3987 H3975 0.929 . S
C3987 C3981 1.390 . S
C3987 C3984 1.386 . S
C3988 C3983 1.490 . S
C3988 C3990 1.395 . S
C3988 C3991 1.403 . S
H3989 C3995 0.930 . S
C3990 H3976 0.930 . S
C3990 C3988 1.395 . S
C3990 C3993 1.403 . S
C3991 C3988 1.403 . S
C3991 C3992 1.524 . S
C3991 C3995 1.400 . S
C3992 H3977 0.960 . S
C3992 H3978 0.960 . S
C3992 H3979 0.960 . S
C3992 C3991 1.524 . S
C3993 C3990 1.403 . S
C3993 C3994 1.392 . S
C3993 C3997 1.495 . S
C3994 C3993 1.392 . S
C3994 C3995 1.385 . S
C3994 C3996 1.478 . S
C3995 H3989 0.930 . S
C3995 C3991 1.400 . S
C3995 C3994 1.385 . S
C3996 C3994 1.478 . S
C3996 C3998 1.381 . S
C3996 C4002 1.383 . S
C3997 C3993 1.495 . S
C3997 H4003 0.959 . S
C3997 H4004 0.961 . S
C3997 H4005 0.960 . S
C3998 C3996 1.381 . S
C3998 C3999 1.394 . S
C3998 H4006 0.930 . S
C3999 C3998 1.394 . S
C3999 C4000 1.383 . S
C3999 H4007 0.929 . S
C4000 C3999 1.383 . S
C4000 C4001 1.377 . S
C4001 H3985 0.930 . S
C4001 C4000 1.377 . S
C4001 C4002 1.379 . S
C4002 H3986 0.931 . S
C4002 C3996 1.383 . S
C4002 C4001 1.379 . S
H4003 C3997 0.959 . S
H4004 C3997 0.961 . S
H4005 C3997 0.960 . S
H4006 C3998 0.930 . S
H4007 C3999 0.929 . S
H4008 C4016 0.929 . S
H4009 C4018 0.930 . S
H4010 C4020 0.930 . S
H4011 C4023 0.929 . S
H4012 C4026 0.930 . S
H4013 C4028 0.960 . S
H4014 C4028 0.960 . S
H4015 C4028 0.960 . S
C4016 H4008 0.929 . S
C4016 C4017 1.377 . S
C4016 C4018 1.384 . S
C4017 C4016 1.377 . S
C4017 C4023 1.390 . S
C4018 H4009 0.930 . S
C4018 C4016 1.384 . S
C4018 C4019 1.372 . S
C4019 C4018 1.372 . S
C4019 C4020 1.400 . S
C4019 C4024 1.490 . S
C4020 H4010 0.930 . S
C4020 C4019 1.400 . S
C4020 C4023 1.386 . S
H4021 C4037 0.930 . S
H4022 C4038 0.931 . S
C4023 H4011 0.929 . S
C4023 C4017 1.390 . S
C4023 C4020 1.386 . S
C4024 C4019 1.490 . S
C4024 C4026 1.395 . S
C4024 C4027 1.403 . S
H4025 C4031 0.930 . S
C4026 H4012 0.930 . S
C4026 C4024 1.395 . S
C4026 C4029 1.403 . S
C4027 C4024 1.403 . S
C4027 C4028 1.524 . S
C4027 C4031 1.400 . S
C4028 H4013 0.960 . S
C4028 H4014 0.960 . S
C4028 H4015 0.960 . S
C4028 C4027 1.524 . S
C4029 C4026 1.403 . S
C4029 C4030 1.392 . S
C4029 C4033 1.495 . S
C4030 C4029 1.392 . S
C4030 C4031 1.385 . S
C4030 C4032 1.478 . S
C4031 H4025 0.930 . S
C4031 C4027 1.400 . S
C4031 C4030 1.385 . S
C4032 C4030 1.478 . S
C4032 C4034 1.381 . S
C4032 C4038 1.383 . S
C4033 C4029 1.495 . S
C4033 H4039 0.959 . S
C4033 H4040 0.961 . S
C4033 H4041 0.960 . S
C4034 C4032 1.381 . S
C4034 C4035 1.394 . S
C4034 H4042 0.930 . S
C4035 C4034 1.394 . S
C4035 C4036 1.383 . S
C4035 H4043 0.929 . S
C4036 C4035 1.383 . S
C4036 C4037 1.377 . S
C4037 H4021 0.930 . S
C4037 C4036 1.377 . S
C4037 C4038 1.379 . S
C4038 H4022 0.931 . S
C4038 C4032 1.383 . S
C4038 C4037 1.379 . S
H4039 C4033 0.959 . S
H4040 C4033 0.961 . S
H4041 C4033 0.960 . S
H4042 C4034 0.930 . S
H4043 C4035 0.929 . S
H4044 C4052 0.929 . S
H4045 C4054 0.930 . S
H4046 C4056 0.930 . S
H4047 C4059 0.929 . S
H4048 C4062 0.930 . S
H4049 C4064 0.960 . S
H4050 C4064 0.960 . S
H4051 C4064 0.960 . S
C4052 H4044 0.929 . S
C4052 C4053 1.377 . S
C4052 C4054 1.384 . S
C4053 C4052 1.377 . S
C4053 C4059 1.390 . S
C4054 H4045 0.930 . S
C4054 C4052 1.384 . S
C4054 C4055 1.372 . S
C4055 C4054 1.372 . S
C4055 C4056 1.400 . S
C4055 C4060 1.490 . S
C4056 H4046 0.930 . S
C4056 C4055 1.400 . S
C4056 C4059 1.386 . S
H4057 C4073 0.930 . S
H4058 C4074 0.931 . S
C4059 H4047 0.929 . S
C4059 C4053 1.390 . S
C4059 C4056 1.386 . S
C4060 C4055 1.490 . S
C4060 C4062 1.395 . S
C4060 C4063 1.403 . S
H4061 C4067 0.930 . S
C4062 H4048 0.930 . S
C4062 C4060 1.395 . S
C4062 C4065 1.403 . S
C4063 C4060 1.403 . S
C4063 C4064 1.524 . S
C4063 C4067 1.400 . S
C4064 H4049 0.960 . S
C4064 H4050 0.960 . S
C4064 H4051 0.960 . S
C4064 C4063 1.524 . S
C4065 C4062 1.403 . S
C4065 C4066 1.392 . S
C4065 C4069 1.495 . S
C4066 C4065 1.392 . S
C4066 C4067 1.385 . S
C4066 C4068 1.478 . S
C4067 H4061 0.930 . S
C4067 C4063 1.400 . S
C4067 C4066 1.385 . S
C4068 C4066 1.478 . S
C4068 C4070 1.381 . S
C4068 C4074 1.383 . S
C4069 C4065 1.495 . S
C4069 H4075 0.959 . S
C4069 H4076 0.961 . S
C4069 H4077 0.960 . S
C4070 C4068 1.381 . S
C4070 C4071 1.394 . S
C4070 H4078 0.930 . S
C4071 C4070 1.394 . S
C4071 C4072 1.383 . S
C4071 H4079 0.929 . S
C4072 C4071 1.383 . S
C4072 C4073 1.377 . S
C4073 H4057 0.930 . S
C4073 C4072 1.377 . S
C4073 C4074 1.379 . S
C4074 H4058 0.931 . S
C4074 C4068 1.383 . S
C4074 C4073 1.379 . S
H4075 C4069 0.959 . S
H4076 C4069 0.961 . S
H4077 C4069 0.960 . S
H4078 C4070 0.930 . S
H4079 C4071 0.929 . S
C633 C117 1.483 . S
C652 C0 1.492 . S
C669 C130 1.482 . S
C688 C13 1.475 . S
C705 C143 1.487 . S
C724 C26 1.503 . S
C741 C39 1.487 . S
C760 C104 1.507 . S
C777 C195 1.483 . S
C796 C52 1.495 . S
C813 C65 1.486 . S
C832 C156 1.500 . S
C849 C169 1.475 . S
C868 C78 1.449 . S
C885 C182 1.486 . S
C904 C91 1.497 . S
C921 C208 1.486 . S
C940 C234 1.496 . S
C957 C221 1.477 . S
C976 C286 1.461 . S
C993 C247 1.486 . S
C1012 C299 1.495 . S
C1029 C260 1.480 . S
C1048 C273 1.477 . S
C1065 C312 1.487 . S
C1084 C429 1.503 . S
C1101 C442 1.486 . S
C1120 C325 1.494 . S
C1137 C338 1.487 . S
C1156 C455 1.507 . S
C1173 C351 1.481 . S
C1192 C416 1.483 . S
C1209 C507 1.475 . S
C1228 C364 1.448 . S
C1245 C468 1.485 . S
C1264 C377 1.502 . S
C1281 C481 1.477 . S
C1300 C390 1.463 . S
C1317 C494 1.476 . S
C1336 C403 1.451 . S
C1353 C520 1.476 . S
C1372 C546 1.456 . S
C1389 C533 1.487 . S
C1408 C598 1.503 . S
C1425 C559 1.481 . S
C1444 C611 1.482 . S
C1461 C585 1.484 . S
C1480 C572 1.487 . S
C1497 C109 0.794 . S
C1516 C8 0.817 . S
C1533 C122 0.762 . S
C1552 C21 0.798 . S
C1569 C34 0.803 . S
C1588 C135 0.833 . S
C1605 C47 0.785 . S
C1624 C148 0.712 . S
C1641 C60 0.791 . S
C1660 C161 0.839 . S
C1677 C73 0.803 . S
C1696 C174 0.828 . S
C1713 C86 0.785 . S
C1732 C187 0.765 . S
C1749 C200 0.780 . S
C1768 C99 0.836 . S
C1785 C112 0.796 . S
C1804 C213 0.714 . S
C1821 C304 0.792 . S
C1840 C125 0.829 . S
C1857 C138 0.786 . S
C1876 C278 0.795 . S
C1893 C151 0.790 . S
C1912 C291 0.691 . S
C1929 C164 0.795 . S
C1948 C226 0.855 . S
C1965 C177 0.796 . S
C1984 C239 0.857 . S
C2001 C190 0.803 . S
C2020 C252 0.833 . S
C2037 C265 0.763 . S
C2056 C203 0.751 . S
C2073 C5 0.760 . S
C2092 C216 0.785 . S
C2109 C229 0.803 . S
C2128 C57 0.810 . S
C2145 C242 0.801 . S
C2164 C70 0.757 . S
C2181 C255 0.784 . S
C2200 C83 0.736 . S
C2217 C96 0.792 . S
C2236 C268 0.792 . S
C2253 C281 0.793 . S
C2272 C31 0.697 . S
C2289 C294 0.792 . S
C2308 C44 0.696 . S
C2325 C18 0.781 . S
C2344 C307 0.837 . S
C2361 C421 0.765 . S
C2380 C320 0.749 . S
C2397 C333 0.785 . S
C2416 C434 0.712 . S
C2433 C346 0.800 . S
C2452 C447 0.855 . S
C2469 C460 0.764 . S
C2488 C359 0.750 . S
C2505 C473 0.784 . S
C2524 C372 0.766 . S
C2541 C385 0.803 . S
C2560 C486 0.815 . S
C2577 C499 0.767 . S
C2596 C398 0.815 . S
C2613 C512 0.760 . S
C2632 C411 0.761 . S
C2649 C424 0.803 . S
C2668 C525 0.793 . S
C2685 C437 0.794 . S
C2704 C616 0.850 . S
C2721 C450 0.801 . S
C2740 C590 0.849 . S
C2757 C603 0.791 . S
C2776 C463 0.788 . S
C2793 C476 0.801 . S
C2812 C538 0.763 . S
C2829 C489 0.789 . S
C2848 C551 0.823 . S
C2865 C564 0.759 . S
C2884 C502 0.784 . S
C2901 C577 0.774 . S
C2920 C515 0.831 . S
C2937 C528 0.788 . S
C2956 C317 0.692 . S
C2973 C541 0.801 . S
C2992 C369 0.851 . S
C3009 C382 0.784 . S
C3028 C554 0.766 . S
C3045 C567 0.803 . S
C3064 C395 0.791 . S
C3081 C580 0.792 . S
C3100 C408 0.695 . S
C3117 C343 0.779 . S
C3136 C593 0.755 . S
C3153 C606 0.788 . S
C3172 C356 0.814 . S
C3189 C330 0.791 . S
C3208 C619 0.832 . S
C3225 C413 1.359 . S
C3244 C10 1.385 . S
C3261 C23 1.354 . S
C3280 C374 1.329 . S
C3297 C387 1.356 . S
C3316 C36 1.380 . S
C3333 C400 1.352 . S
C3352 C49 1.353 . S
C3369 C62 1.359 . S
C3388 C335 1.385 . S
C3405 C348 1.355 . S
C3424 C75 1.327 . S
C3441 C361 1.364 . S
C3460 C88 1.369 . S
C3477 C101 1.357 . S
C3496 C322 1.383 . S
C3513 C582 1.352 . S
C3532 C114 1.358 . S
C3549 C127 1.353 . S
C3568 C543 1.337 . S
C3585 C140 1.353 . S
C3604 C556 1.368 . S
C3621 C569 1.355 . S
C3640 C153 1.378 . S
C3657 C621 1.361 . S
C3676 C166 1.384 . S
C3693 C595 1.365 . S
C3712 C179 1.364 . S
C3729 C192 1.365 . S
C3748 C608 1.357 . S
C3765 C530 1.352 . S
C3784 C205 1.362 . S
C3801 C218 1.364 . S
C3820 C517 1.373 . S
C3837 C439 1.358 . S
C3856 C231 1.384 . S
C3873 C244 1.363 . S
C3892 C452 1.341 . S
C3909 C465 1.364 . S
C3928 C257 1.372 . S
C3945 C426 1.356 . S
C3964 C270 1.382 . S
C3981 C283 1.363 . S
C4000 C491 1.342 . S
C4017 C504 1.353 . S
C4036 C296 1.369 . S
C4053 C478 1.354 . S
C4072 C309 1.375 . S
