# Generated by pormake.
# Topology uks, (4)-cn, num edge types: 1
# Building blocks:
#     Node 0, Type 0, BuildingBlock: MUDLON_clean_sbu_0, # of connection points: 4
#     Node 1, Type 0, BuildingBlock: MUDLON_clean_sbu_0, # of connection points: 4
#     Node 2, Type 0, BuildingBlock: MUDLON_clean_sbu_0, # of connection points: 4
#     Node 3, Type 0, BuildingBlock: MUDLON_clean_sbu_0, # of connection points: 4
#     Node 4, Type 0, BuildingBlock: MUDLON_clean_sbu_0, # of connection points: 4
#     Node 5, Type 0, BuildingBlock: MUDLON_clean_sbu_0, # of connection points: 4
#     Node 6, Type 0, BuildingBlock: MUDLON_clean_sbu_0, # of connection points: 4
#     Node 7, Type 0, BuildingBlock: MUDLON_clean_sbu_0, # of connection points: 4
#     Node 8, Type 0, BuildingBlock: MUDLON_clean_sbu_0, # of connection points: 4
#     Node 9, Type 0, BuildingBlock: MUDLON_clean_sbu_0, # of connection points: 4
#     Node 10, Type 0, BuildingBlock: MUDLON_clean_sbu_0, # of connection points: 4
#     Node 11, Type 0, BuildingBlock: MUDLON_clean_sbu_0, # of connection points: 4
#     Node 12, Type 0, BuildingBlock: MUDLON_clean_sbu_0, # of connection points: 4
#     Node 13, Type 0, BuildingBlock: MUDLON_clean_sbu_0, # of connection points: 4
#     Node 14, Type 0, BuildingBlock: MUDLON_clean_sbu_0, # of connection points: 4
#     Node 15, Type 0, BuildingBlock: MUDLON_clean_sbu_0, # of connection points: 4
#     Node 16, Type 0, BuildingBlock: MUDLON_clean_sbu_0, # of connection points: 4
#     Node 17, Type 0, BuildingBlock: MUDLON_clean_sbu_0, # of connection points: 4
#     Node 18, Type 0, BuildingBlock: MUDLON_clean_sbu_0, # of connection points: 4
#     Node 19, Type 0, BuildingBlock: MUDLON_clean_sbu_0, # of connection points: 4
#     Node 20, Type 0, BuildingBlock: MUDLON_clean_sbu_0, # of connection points: 4
#     Node 21, Type 0, BuildingBlock: MUDLON_clean_sbu_0, # of connection points: 4
#     Node 22, Type 0, BuildingBlock: MUDLON_clean_sbu_0, # of connection points: 4
#     Node 23, Type 0, BuildingBlock: MUDLON_clean_sbu_0, # of connection points: 4
#     Edge 24, Type (0, 0), BuildingBlock: MIFKUJ_clean_linker_0, # of connection points: 2
#     Edge 25, Type (0, 0), BuildingBlock: MIFKUJ_clean_linker_0, # of connection points: 2
#     Edge 26, Type (0, 0), BuildingBlock: MIFKUJ_clean_linker_0, # of connection points: 2
#     Edge 27, Type (0, 0), BuildingBlock: MIFKUJ_clean_linker_0, # of connection points: 2
#     Edge 28, Type (0, 0), BuildingBlock: MIFKUJ_clean_linker_0, # of connection points: 2
#     Edge 29, Type (0, 0), BuildingBlock: MIFKUJ_clean_linker_0, # of connection points: 2
#     Edge 30, Type (0, 0), BuildingBlock: MIFKUJ_clean_linker_0, # of connection points: 2
#     Edge 31, Type (0, 0), BuildingBlock: MIFKUJ_clean_linker_0, # of connection points: 2
#     Edge 32, Type (0, 0), BuildingBlock: MIFKUJ_clean_linker_0, # of connection points: 2
#     Edge 33, Type (0, 0), BuildingBlock: MIFKUJ_clean_linker_0, # of connection points: 2
#     Edge 34, Type (0, 0), BuildingBlock: MIFKUJ_clean_linker_0, # of connection points: 2
#     Edge 35, Type (0, 0), BuildingBlock: MIFKUJ_clean_linker_0, # of connection points: 2
#     Edge 36, Type (0, 0), BuildingBlock: MIFKUJ_clean_linker_0, # of connection points: 2
#     Edge 37, Type (0, 0), BuildingBlock: MIFKUJ_clean_linker_0, # of connection points: 2
#     Edge 38, Type (0, 0), BuildingBlock: MIFKUJ_clean_linker_0, # of connection points: 2
#     Edge 39, Type (0, 0), BuildingBlock: MIFKUJ_clean_linker_0, # of connection points: 2
#     Edge 40, Type (0, 0), BuildingBlock: MIFKUJ_clean_linker_0, # of connection points: 2
#     Edge 41, Type (0, 0), BuildingBlock: MIFKUJ_clean_linker_0, # of connection points: 2
#     Edge 42, Type (0, 0), BuildingBlock: MIFKUJ_clean_linker_0, # of connection points: 2
#     Edge 43, Type (0, 0), BuildingBlock: MIFKUJ_clean_linker_0, # of connection points: 2
#     Edge 44, Type (0, 0), BuildingBlock: MIFKUJ_clean_linker_0, # of connection points: 2
#     Edge 45, Type (0, 0), BuildingBlock: MIFKUJ_clean_linker_0, # of connection points: 2
#     Edge 46, Type (0, 0), BuildingBlock: MIFKUJ_clean_linker_0, # of connection points: 2
#     Edge 47, Type (0, 0), BuildingBlock: MIFKUJ_clean_linker_0, # of connection points: 2
#     Edge 48, Type (0, 0), BuildingBlock: MIFKUJ_clean_linker_0, # of connection points: 2
#     Edge 49, Type (0, 0), BuildingBlock: MIFKUJ_clean_linker_0, # of connection points: 2
#     Edge 50, Type (0, 0), BuildingBlock: MIFKUJ_clean_linker_0, # of connection points: 2
#     Edge 51, Type (0, 0), BuildingBlock: MIFKUJ_clean_linker_0, # of connection points: 2
#     Edge 52, Type (0, 0), BuildingBlock: MIFKUJ_clean_linker_0, # of connection points: 2
#     Edge 53, Type (0, 0), BuildingBlock: MIFKUJ_clean_linker_0, # of connection points: 2
#     Edge 54, Type (0, 0), BuildingBlock: MIFKUJ_clean_linker_0, # of connection points: 2
#     Edge 55, Type (0, 0), BuildingBlock: MIFKUJ_clean_linker_0, # of connection points: 2
#     Edge 56, Type (0, 0), BuildingBlock: MIFKUJ_clean_linker_0, # of connection points: 2
#     Edge 57, Type (0, 0), BuildingBlock: MIFKUJ_clean_linker_0, # of connection points: 2
#     Edge 58, Type (0, 0), BuildingBlock: MIFKUJ_clean_linker_0, # of connection points: 2
#     Edge 59, Type (0, 0), BuildingBlock: MIFKUJ_clean_linker_0, # of connection points: 2
#     Edge 60, Type (0, 0), BuildingBlock: MIFKUJ_clean_linker_0, # of connection points: 2
#     Edge 61, Type (0, 0), BuildingBlock: MIFKUJ_clean_linker_0, # of connection points: 2
#     Edge 62, Type (0, 0), BuildingBlock: MIFKUJ_clean_linker_0, # of connection points: 2
#     Edge 63, Type (0, 0), BuildingBlock: MIFKUJ_clean_linker_0, # of connection points: 2
#     Edge 64, Type (0, 0), BuildingBlock: MIFKUJ_clean_linker_0, # of connection points: 2
#     Edge 65, Type (0, 0), BuildingBlock: MIFKUJ_clean_linker_0, # of connection points: 2
#     Edge 66, Type (0, 0), BuildingBlock: MIFKUJ_clean_linker_0, # of connection points: 2
#     Edge 67, Type (0, 0), BuildingBlock: MIFKUJ_clean_linker_0, # of connection points: 2
#     Edge 68, Type (0, 0), BuildingBlock: MIFKUJ_clean_linker_0, # of connection points: 2
#     Edge 69, Type (0, 0), BuildingBlock: MIFKUJ_clean_linker_0, # of connection points: 2
#     Edge 70, Type (0, 0), BuildingBlock: MIFKUJ_clean_linker_0, # of connection points: 2
#     Edge 71, Type (0, 0), BuildingBlock: MIFKUJ_clean_linker_0, # of connection points: 2
# Relax obj value: 0.065
# Max RMSD: 0.060
# Mean RMSD: 0.060
data_MOF--net-uks--node1-MUDLON_clean_sbu_0--edge1-MIFKUJ_clean_linker_0
_symmetry_space_group_name_H-M    P1
_symmetry_Int_Tables_number       1
_symmetry_cell_setting            triclinic
loop_
_symmetry_equiv_pos_as_xyz
'x, y, z'
_cell_length_a     71.782863
_cell_length_b     72.059372
_cell_length_c     72.24012
_cell_angle_alpha  90.061985
_cell_angle_beta   90.175143
_cell_angle_gamma 89.70483
loop_
_atom_site_label
_atom_site_type_symbol
_atom_site_fract_x
_atom_site_fract_y
_atom_site_fract_z
_atom_type_partial_charge
Mg0 Mg 0.12768 0.40326 0.73959 0.0
C1 C 0.15372 0.41439 0.77062 0.0
O2 O 0.15643 0.42825 0.75918 0.0
C3 C 0.09148 0.39415 0.72237 0.0
O4 O 0.10385 0.39097 0.70936 0.0
C5 C 0.14901 0.43193 0.71512 0.0
O6 O 0.16085 0.41828 0.7122 0.0
O7 O 0.13477 0.42906 0.72514 0.0
O8 O 0.14062 0.40304 0.76714 0.0
O9 O 0.1389 0.37724 0.72885 0.0
C10 C 0.15479 0.3717 0.73452 0.0
O11 O 0.16586 0.38369 0.74263 0.0
O12 O 0.09726 0.39991 0.73806 0.0
Mg13 Mg 0.63967 0.62735 0.23574 0.0
C14 C 0.6622 0.66281 0.23575 0.0
O15 O 0.67529 0.65129 0.24132 0.0
C16 C 0.64102 0.59639 0.20623 0.0
O17 O 0.62424 0.60265 0.20244 0.0
C18 C 0.60291 0.635 0.21964 0.0
O19 O 0.61499 0.6427 0.20841 0.0
O20 O 0.6091 0.62688 0.2341 0.0
O21 O 0.64689 0.65618 0.22982 0.0
O22 O 0.65326 0.62473 0.26274 0.0
C23 C 0.66552 0.61217 0.26537 0.0
O24 O 0.66638 0.59819 0.25373 0.0
O25 O 0.65086 0.60484 0.21827 0.0
Mg26 Mg 0.37363 0.15669 0.68004 0.0
C27 C 0.38267 0.17377 0.7201 0.0
O28 O 0.37741 0.15835 0.72819 0.0
C29 C 0.36331 0.11662 0.68965 0.0
O30 O 0.34916 0.12514 0.69742 0.0
C31 C 0.40978 0.15836 0.66167 0.0
O32 O 0.41139 0.14528 0.67425 0.0
O33 O 0.39378 0.1657 0.65913 0.0
O34 O 0.38235 0.17498 0.70255 0.0
O35 O 0.34357 0.16182 0.67576 0.0
C36 C 0.33459 0.16331 0.6909 0.0
O37 O 0.34405 0.1637 0.70646 0.0
O38 O 0.37641 0.12633 0.68283 0.0
Mg39 Mg 0.87741 0.8661 0.17938 0.0
C40 C 0.8585 0.87869 0.21753 0.0
O41 O 0.87292 0.88898 0.22188 0.0
C42 C 0.91601 0.86708 0.16736 0.0
O43 O 0.90606 0.86303 0.1526 0.0
C44 C 0.86314 0.90204 0.16802 0.0
O45 O 0.86974 0.90393 0.18488 0.0
O46 O 0.86522 0.8864 0.15996 0.0
O47 O 0.85875 0.86896 0.20285 0.0
O48 O 0.87589 0.8361 0.17463 0.0
C49 C 0.88557 0.82797 0.18707 0.0
O50 O 0.89434 0.8383 0.19927 0.0
O51 O 0.9074 0.87079 0.18232 0.0
Mg52 Mg 0.13704 0.14597 0.79718 0.0
C53 C 0.13498 0.18689 0.79679 0.0
O54 O 0.11831 0.18163 0.79146 0.0
C55 C 0.14302 0.10756 0.80955 0.0
O56 O 0.13316 0.1063 0.79424 0.0
C57 C 0.0994 0.14469 0.8148 0.0
O58 O 0.11051 0.14039 0.82866 0.0
O59 O 0.10647 0.14676 0.79878 0.0
O60 O 0.14652 0.17447 0.80207 0.0
O61 O 0.15005 0.13968 0.77055 0.0
C62 C 0.15176 0.15164 0.75771 0.0
O63 O 0.14247 0.16735 0.75885 0.0
O64 O 0.14722 0.12371 0.81542 0.0
Mg65 Mg 0.89305 0.62477 0.30053 0.0
C66 C 0.90351 0.65497 0.2737 0.0
O67 O 0.91526 0.65818 0.28729 0.0
C68 C 0.89715 0.5861 0.31299 0.0
O69 O 0.89715 0.59591 0.32833 0.0
C70 C 0.93185 0.62745 0.31584 0.0
O71 O 0.93346 0.61373 0.30395 0.0
O72 O 0.91586 0.63485 0.31816 0.0
O73 O 0.89291 0.6409 0.27476 0.0
O74 O 0.86499 0.62778 0.31172 0.0
C75 C 0.85475 0.64183 0.30826 0.0
O76 O 0.86206 0.65615 0.29977 0.0
O77 O 0.89615 0.59468 0.2976 0.0
Mg78 Mg 0.37091 0.37844 0.84169 0.0
C79 C 0.32834 0.36747 0.85447 0.0
O80 O 0.33321 0.35239 0.86351 0.0
C81 C 0.39866 0.35434 0.86352 0.0
O82 O 0.38974 0.34103 0.85487 0.0
C83 C 0.36382 0.41763 0.84883 0.0
O84 O 0.35511 0.40846 0.86187 0.0
O85 O 0.37354 0.40851 0.83714 0.0
O86 O 0.34066 0.37741 0.84669 0.0
O87 O 0.37606 0.35964 0.81819 0.0
C88 C 0.36718 0.34443 0.81954 0.0
O89 O 0.3554 0.34262 0.83325 0.0
O90 O 0.39248 0.37092 0.86223 0.0
Mg91 Mg 0.64741 0.88223 0.32352 0.0
C92 C 0.66587 0.84404 0.31966 0.0
O93 O 0.68069 0.85416 0.31655 0.0
C94 C 0.65158 0.91719 0.34286 0.0
O95 O 0.64117 0.92047 0.32821 0.0
C96 C 0.60874 0.88595 0.3356 0.0
O97 O 0.61861 0.88379 0.35081 0.0
O98 O 0.61733 0.88643 0.3202 0.0
O99 O 0.6509 0.85203 0.32486 0.0
O100 O 0.66606 0.89064 0.30109 0.0
C101 C 0.68191 0.89622 0.30682 0.0
O102 O 0.68494 0.8971 0.32472 0.0
O103 O 0.65589 0.90039 0.34644 0.0
Mg104 Mg 0.7381 0.13031 0.38787 0.0
C105 C 0.73248 0.12378 0.347 0.0
O106 O 0.7343 0.10663 0.3529 0.0
C107 C 0.72554 0.13874 0.42592 0.0
O108 O 0.74102 0.12917 0.42817 0.0
C109 C 0.72259 0.09275 0.39472 0.0
O110 O 0.70842 0.10382 0.39814 0.0
O111 O 0.73822 0.09999 0.39068 0.0
O112 O 0.73132 0.1368 0.35891 0.0
O113 O 0.76467 0.14466 0.39108 0.0
C114 C 0.77478 0.14648 0.37675 0.0
O115 O 0.77082 0.13656 0.36201 0.0
O116 O 0.71989 0.14185 0.40946 0.0
Mg117 Mg 0.87437 0.19226 0.87448 0.0
C118 C 0.8627 0.20097 0.83629 0.0
O119 O 0.85997 0.21638 0.84563 0.0
C120 C 0.87736 0.17653 0.91115 0.0
O121 O 0.88774 0.1915 0.91094 0.0
C122 C 0.91286 0.20368 0.86065 0.0
O123 O 0.90284 0.20976 0.84666 0.0
O124 O 0.90452 0.19768 0.87498 0.0
O125 O 0.8684 0.18665 0.84505 0.0
O126 O 0.85332 0.2128 0.88296 0.0
C127 C 0.83721 0.20624 0.87949 0.0
O128 O 0.83618 0.18971 0.87186 0.0
O129 O 0.86974 0.17142 0.89602 0.0
Mg130 Mg 0.8434 0.36757 0.3716 0.0
C131 C 0.84655 0.32889 0.35475 0.0
O132 O 0.83889 0.33726 0.34046 0.0
C133 C 0.86574 0.39285 0.34658 0.0
O134 O 0.85815 0.38214 0.33394 0.0
C135 C 0.85334 0.36661 0.41075 0.0
O136 O 0.86899 0.36402 0.40169 0.0
O137 O 0.83855 0.36968 0.40141 0.0
O138 O 0.8516 0.33857 0.3686 0.0
O139 O 0.81978 0.37173 0.35288 0.0
C140 C 0.81622 0.38774 0.3463 0.0
O141 O 0.82454 0.40224 0.35356 0.0
O142 O 0.86349 0.38879 0.36358 0.0
Mg143 Mg 0.63422 0.31522 0.88599 0.0
C144 C 0.62732 0.3085 0.84558 0.0
O145 O 0.61132 0.30365 0.85283 0.0
C146 C 0.64208 0.34507 0.91492 0.0
O147 O 0.62382 0.34508 0.91595 0.0
C148 C 0.59157 0.30694 0.89115 0.0
O149 O 0.59643 0.2894 0.88961 0.0
O150 O 0.60414 0.31934 0.89067 0.0
O151 O 0.63973 0.31539 0.85614 0.0
O152 O 0.6476 0.28917 0.89422 0.0
C153 C 0.6576 0.28887 0.90882 0.0
O154 O 0.65554 0.30226 0.92099 0.0
O155 O 0.64993 0.33553 0.90228 0.0
Mg156 Mg 0.70681 0.37723 0.13935 0.0
C157 C 0.73592 0.39646 0.16382 0.0
O158 O 0.72577 0.41127 0.16034 0.0
C159 C 0.71279 0.36712 0.09848 0.0
O160 O 0.7202 0.35216 0.1059 0.0
C161 C 0.68156 0.4114 0.14079 0.0
O162 O 0.68302 0.40986 0.12273 0.0
O163 O 0.68848 0.3987 0.151 0.0
O164 O 0.7325 0.38148 0.15512 0.0
O165 O 0.70005 0.34792 0.14458 0.0
C166 C 0.71434 0.33754 0.14679 0.0
O167 O 0.73085 0.34529 0.14667 0.0
O168 O 0.70738 0.38023 0.10907 0.0
Mg169 Mg 0.63281 0.23385 0.62464 0.0
C170 C 0.66562 0.25563 0.61394 0.0
O171 O 0.66994 0.23842 0.6097 0.0
C172 C 0.59542 0.21855 0.62499 0.0
O173 O 0.60698 0.20478 0.6285 0.0
C174 C 0.63663 0.21478 0.58843 0.0
O175 O 0.62396 0.22765 0.58537 0.0
O176 O 0.64295 0.21291 0.60484 0.0
O177 O 0.64916 0.25904 0.61964 0.0
O178 O 0.6371 0.22928 0.65432 0.0
C179 C 0.65191 0.23439 0.66262 0.0
O180 O 0.66639 0.23925 0.65272 0.0
O181 O 0.60232 0.23452 0.62188 0.0
Mg182 Mg 0.78431 0.11798 0.12211 0.0
C183 C 0.76397 0.15268 0.11251 0.0
O184 O 0.78008 0.1545 0.10417 0.0
C185 C 0.78713 0.07735 0.11097 0.0
O186 O 0.79552 0.08498 0.09678 0.0
C187 C 0.81649 0.13212 0.09543 0.0
O188 O 0.82408 0.14052 0.1097 0.0
O189 O 0.80165 0.12282 0.09763 0.0
O190 O 0.76051 0.13733 0.12053 0.0
O191 O 0.7951 0.12302 0.14997 0.0
C192 C 0.79229 0.13831 0.15838 0.0
O193 O 0.78678 0.15283 0.14881 0.0
O194 O 0.7793 0.08789 0.12287 0.0
Mg195 Mg 0.87816 0.32308 0.64401 0.0
C196 C 0.83992 0.34254 0.64279 0.0
O197 O 0.84774 0.35243 0.62969 0.0
C198 C 0.90327 0.34994 0.66782 0.0
O199 O 0.88841 0.35261 0.67809 0.0
C200 C 0.86343 0.31986 0.60452 0.0
O201 O 0.84865 0.31408 0.61345 0.0
O202 O 0.87826 0.32327 0.61361 0.0
O203 O 0.85005 0.33151 0.65226 0.0
O204 O 0.88087 0.29549 0.6566 0.0
C205 C 0.88619 0.29577 0.67343 0.0
O206 O 0.89053 0.31182 0.68084 0.0
O207 O 0.90212 0.33958 0.65356 0.0
Mg208 Mg 0.38806 0.69356 0.14602 0.0
C209 C 0.34997 0.69559 0.16384 0.0
O210 O 0.35993 0.70352 0.1769 0.0
C211 C 0.42223 0.66945 0.14641 0.0
O212 O 0.42457 0.67896 0.13109 0.0
C213 C 0.37647 0.70323 0.10689 0.0
O214 O 0.36158 0.70831 0.11618 0.0
O215 O 0.39075 0.69774 0.11592 0.0
O216 O 0.35836 0.68835 0.1501 0.0
O217 O 0.39457 0.71678 0.16469 0.0
C218 C 0.40972 0.71651 0.17393 0.0
O219 O 0.42262 0.70436 0.16944 0.0
O220 O 0.40695 0.67136 0.15514 0.0
Mg221 Mg 0.39304 0.81726 0.3845 0.0
C222 C 0.4161 0.79547 0.35701 0.0
O223 O 0.42694 0.8099 0.35934 0.0
C224 C 0.38679 0.83074 0.42228 0.0
O225 O 0.37971 0.84337 0.41115 0.0
C226 C 0.42365 0.84539 0.38425 0.0
O227 O 0.42563 0.83812 0.40081 0.0
O228 O 0.40973 0.84053 0.37443 0.0
O229 O 0.40227 0.79344 0.36783 0.0
O230 O 0.36323 0.81826 0.37866 0.0
C231 C 0.35656 0.81071 0.36415 0.0
O232 O 0.36804 0.80522 0.3511 0.0
O233 O 0.39449 0.81651 0.41499 0.0
Mg234 Mg 0.2218 0.89553 0.89096 0.0
C235 C 0.25125 0.90712 0.86339 0.0
O236 O 0.23936 0.92086 0.86122 0.0
C237 C 0.20748 0.89449 0.92933 0.0
O238 O 0.19238 0.89491 0.91899 0.0
C239 C 0.20797 0.93494 0.88931 0.0
O240 O 0.2197 0.93552 0.9033 0.0
O241 O 0.20516 0.91939 0.88137 0.0
O242 O 0.2484 0.89536 0.8762 0.0
O243 O 0.21128 0.86801 0.88424 0.0
C244 C 0.21534 0.86031 0.86889 0.0
O245 O 0.22262 0.87047 0.85569 0.0
O246 O 0.22325 0.89535 0.92132 0.0
Mg247 Mg 0.13886 0.72508 0.39083 0.0
C248 C 0.14062 0.74794 0.35867 0.0
O249 O 0.14567 0.731 0.35407 0.0
C250 C 0.13952 0.70959 0.42884 0.0
O251 O 0.13681 0.69492 0.41837 0.0
C252 C 0.10057 0.71316 0.383 0.0
O253 O 0.09891 0.72969 0.39055 0.0
O254 O 0.11689 0.70639 0.38106 0.0
O255 O 0.13521 0.75087 0.37523 0.0
O256 O 0.16795 0.71955 0.3838 0.0
C257 C 0.17825 0.73064 0.39294 0.0
O258 O 0.17039 0.74139 0.4054 0.0
O259 O 0.13946 0.72552 0.4212 0.0
Mg260 Mg 0.32709 0.65306 0.87748 0.0
C261 C 0.34224 0.65107 0.83752 0.0
O262 O 0.34743 0.63424 0.84229 0.0
C263 C 0.33332 0.66229 0.91681 0.0
O264 O 0.31546 0.65864 0.91541 0.0
C265 C 0.34057 0.61416 0.87808 0.0
O266 O 0.35561 0.62394 0.88142 0.0
O267 O 0.32506 0.6227 0.87645 0.0
O268 O 0.33592 0.66203 0.84987 0.0
O269 O 0.30136 0.66943 0.87939 0.0
C270 C 0.3054 0.68647 0.88175 0.0
O271 O 0.32306 0.69093 0.8834 0.0
O272 O 0.34332 0.66092 0.9023 0.0
Mg273 Mg 0.15242 0.82333 0.14889 0.0
C274 C 0.14635 0.83964 0.18797 0.0
O275 O 0.13006 0.84462 0.18125 0.0
C276 C 0.17724 0.84117 0.11906 0.0
O277 O 0.19041 0.83183 0.12769 0.0
C278 C 0.11302 0.8353 0.14343 0.0
O279 O 0.12252 0.84978 0.13786 0.0
O280 O 0.12198 0.82075 0.14822 0.0
O281 O 0.15852 0.8328 0.1771 0.0
O282 O 0.16837 0.79727 0.14658 0.0
C283 C 0.18331 0.79696 0.15618 0.0
O284 O 0.18751 0.81163 0.16612 0.0
O285 O 0.16075 0.84097 0.12556 0.0
Mg286 Mg 0.21303 0.65302 0.64796 0.0
C287 C 0.21165 0.68804 0.67126 0.0
O288 O 0.22141 0.6775 0.68255 0.0
C289 C 0.20354 0.61366 0.65227 0.0
O290 O 0.21918 0.61378 0.64286 0.0
C291 C 0.21552 0.67 0.60973 0.0
O292 O 0.22133 0.684 0.61985 0.0
O293 O 0.21235 0.65455 0.61765 0.0
O294 O 0.20428 0.68071 0.657 0.0
O295 O 0.23995 0.6481 0.6614 0.0
C296 C 0.25348 0.65942 0.66226 0.0
O297 O 0.25294 0.6746 0.65221 0.0
O298 O 0.19624 0.62921 0.65668 0.0
Mg299 Mg 0.32367 0.88575 0.64494 0.0
C300 C 0.28512 0.86944 0.65311 0.0
O301 O 0.28586 0.88051 0.66754 0.0
C302 C 0.33788 0.92434 0.64033 0.0
O303 O 0.35309 0.91427 0.63856 0.0
C304 C 0.33911 0.88162 0.60726 0.0
O305 O 0.32634 0.89467 0.60577 0.0
O306 O 0.34224 0.87474 0.62325 0.0
O307 O 0.29791 0.8703 0.64097 0.0
O308 O 0.33031 0.88099 0.67438 0.0
C309 C 0.32449 0.89386 0.68508 0.0
O310 O 0.31673 0.9086 0.67761 0.0
O311 O 0.32233 0.91605 0.64192 0.0
H312 H 0.11337 0.215 0.78363 0.0
H313 H 0.12319 0.24545 0.7731 0.0
H314 H 0.17935 0.23385 0.79104 0.0
H315 H 0.1697 0.20277 0.80137 0.0
H316 H 0.15943 0.27347 0.79918 0.0
H317 H 0.18007 0.2311 0.75174 0.0
H318 H 0.17665 0.20418 0.73096 0.0
H319 H 0.12871 0.22959 0.70565 0.0
H320 H 0.13176 0.25662 0.72644 0.0
H321 H 0.1848 0.35502 0.75119 0.0
H322 H 0.18738 0.32269 0.76107 0.0
H323 H 0.1353 0.31041 0.7339 0.0
H324 H 0.1327 0.34265 0.72376 0.0
H325 H 0.15943 0.28153 0.73092 0.0
H326 H 0.13654 0.32179 0.77937 0.0
H327 H 0.13807 0.34874 0.80039 0.0
H328 H 0.18857 0.32733 0.82439 0.0
H329 H 0.1875 0.30038 0.80328 0.0
C330 C 0.1278 0.21888 0.7856 0.0
C331 C 0.14078 0.20632 0.79325 0.0
C332 C 0.13337 0.23634 0.77955 0.0
C333 C 0.15198 0.24181 0.78116 0.0
C334 C 0.16489 0.22981 0.78968 0.0
C335 C 0.15936 0.21211 0.79558 0.0
C336 C 0.15771 0.25967 0.77282 0.0
C337 C 0.16 0.2752 0.78428 0.0
C338 C 0.1579 0.26193 0.75338 0.0
C339 C 0.15607 0.24581 0.74074 0.0
C340 C 0.16871 0.23088 0.74184 0.0
C341 C 0.16686 0.21561 0.73004 0.0
C342 C 0.15243 0.21514 0.71702 0.0
C343 C 0.13987 0.22997 0.71574 0.0
C344 C 0.14168 0.24529 0.72751 0.0
C345 C 0.1741 0.34536 0.7469 0.0
C346 C 0.15841 0.35152 0.73684 0.0
C347 C 0.17556 0.32688 0.75268 0.0
C348 C 0.16134 0.31421 0.74858 0.0
C349 C 0.14641 0.31996 0.73732 0.0
C350 C 0.14493 0.33843 0.73153 0.0
C351 C 0.1611 0.29548 0.75725 0.0
C352 C 0.15952 0.2798 0.74583 0.0
C353 C 0.16149 0.29313 0.77675 0.0
C354 C 0.16205 0.30918 0.78961 0.0
C355 C 0.14804 0.32289 0.78905 0.0
C356 C 0.14881 0.33815 0.80099 0.0
C357 C 0.16341 0.33975 0.81371 0.0
C358 C 0.17727 0.32608 0.81452 0.0
C359 C 0.17659 0.31081 0.80257 0.0
H360 H 0.16395 0.35157 0.82293 0.0
H361 H 0.15102 0.20331 0.70789 0.0
H362 H 0.69199 0.58755 0.27735 0.0
H363 H 0.72218 0.5949 0.2913 0.0
H364 H 0.70669 0.65272 0.29386 0.0
H365 H 0.6763 0.64546 0.28033 0.0
H366 H 0.74028 0.6448 0.27394 0.0
H367 H 0.71263 0.63176 0.33278 0.0
H368 H 0.69494 0.61325 0.35531 0.0
H369 H 0.73522 0.5692 0.3511 0.0
H370 H 0.75302 0.58734 0.32833 0.0
H371 H 0.82907 0.67 0.3061 0.0
H372 H 0.79514 0.66723 0.30533 0.0
H373 H 0.80008 0.60813 0.31372 0.0
H374 H 0.83391 0.61093 0.31531 0.0
H375 H 0.77037 0.61949 0.33051 0.0
H376 H 0.79494 0.62811 0.2695 0.0
H377 H 0.81298 0.64376 0.24513 0.0
H378 H 0.77899 0.6926 0.25105 0.0
H379 H 0.76083 0.67727 0.27562 0.0
C380 C 0.69478 0.60176 0.28138 0.0
C381 C 0.68175 0.61591 0.27761 0.0
C382 C 0.71206 0.60594 0.28935 0.0
C383 C 0.71672 0.62437 0.29353 0.0
C384 C 0.70338 0.6384 0.29073 0.0
C385 C 0.68596 0.63419 0.28307 0.0
C386 C 0.73613 0.62912 0.29892 0.0
C387 C 0.74675 0.63964 0.28653 0.0
C388 C 0.74474 0.6218 0.31499 0.0
C389 C 0.73409 0.61087 0.32872 0.0
C390 C 0.71764 0.61806 0.33653 0.0
C391 C 0.7076 0.60765 0.34938 0.0
C392 C 0.71393 0.59005 0.35461 0.0
C393 C 0.73033 0.58284 0.34703 0.0
C394 C 0.74041 0.59319 0.33417 0.0
C395 C 0.82291 0.65646 0.30813 0.0
C396 C 0.83423 0.64067 0.31059 0.0
C397 C 0.80349 0.65487 0.30757 0.0
C398 C 0.79498 0.63739 0.30898 0.0
C399 C 0.80623 0.62177 0.31251 0.0
C400 C 0.82563 0.62339 0.31339 0.0
C401 C 0.77461 0.63511 0.30546 0.0
C402 C 0.76383 0.62496 0.31809 0.0
C403 C 0.7659 0.64239 0.28936 0.0
C404 C 0.77666 0.65162 0.27452 0.0
C405 C 0.79138 0.64223 0.26568 0.0
C406 C 0.80161 0.65103 0.25182 0.0
C407 C 0.79715 0.66916 0.24657 0.0
C408 C 0.78243 0.67855 0.25515 0.0
C409 C 0.77215 0.66981 0.26903 0.0
H410 H 0.80506 0.67591 0.2358 0.0
H411 H 0.70614 0.58201 0.36456 0.0
H412 H 0.38899 0.34215 0.78805 0.0
H413 H 0.39625 0.31397 0.77004 0.0
H414 H 0.36255 0.28157 0.80711 0.0
H415 H 0.35508 0.30927 0.8248 0.0
H416 H 0.39764 0.2656 0.80014 0.0
H417 H 0.34529 0.29306 0.76691 0.0
H418 H 0.32945 0.31806 0.74957 0.0
H419 H 0.37282 0.31699 0.70877 0.0
H420 H 0.38905 0.29213 0.72603 0.0
H421 H 0.3738 0.18094 0.75636 0.0
H422 H 0.37597 0.2107 0.77253 0.0
H423 H 0.4021 0.23496 0.72465 0.0
H424 H 0.39951 0.20543 0.70828 0.0
H425 H 0.37576 0.25678 0.73557 0.0
H426 H 0.42636 0.22689 0.76603 0.0
H427 H 0.44301 0.20221 0.78305 0.0
H428 H 0.40513 0.20822 0.82858 0.0
H429 H 0.38808 0.23277 0.81172 0.0
C430 C 0.38308 0.32902 0.79226 0.0
C431 C 0.37141 0.32801 0.80783 0.0
C432 C 0.38726 0.31295 0.782 0.0
C433 C 0.37999 0.29567 0.78732 0.0
C434 C 0.36841 0.29471 0.80284 0.0
C435 C 0.36406 0.31066 0.81287 0.0
C436 C 0.38402 0.27839 0.7768 0.0
C437 C 0.39284 0.26361 0.78603 0.0
C438 C 0.37825 0.27601 0.75824 0.0
C439 C 0.3685 0.29093 0.74788 0.0
C440 C 0.35153 0.29828 0.75434 0.0
C441 C 0.34247 0.3124 0.74451 0.0
C442 C 0.35016 0.31916 0.72811 0.0
C443 C 0.36691 0.31178 0.72149 0.0
C444 C 0.37604 0.29767 0.73129 0.0
C445 C 0.38031 0.19252 0.7494 0.0
C446 C 0.3864 0.19082 0.73101 0.0
C447 C 0.3816 0.20955 0.75868 0.0
C448 C 0.38929 0.22514 0.74986 0.0
C449 C 0.39603 0.22322 0.73174 0.0
C450 C 0.39459 0.20628 0.72242 0.0
C451 C 0.3891 0.2437 0.75901 0.0
C452 C 0.38094 0.25875 0.74956 0.0
C453 C 0.39567 0.24637 0.77733 0.0
C454 C 0.40585 0.23158 0.78753 0.0
C455 C 0.42149 0.22285 0.77961 0.0
C456 C 0.43102 0.2089 0.78924 0.0
C457 C 0.42511 0.20362 0.80687 0.0
C458 C 0.40968 0.21231 0.81492 0.0
C459 C 0.4001 0.22627 0.80534 0.0
H460 H 0.43251 0.19282 0.81431 0.0
H461 H 0.34312 0.33008 0.72051 0.0
H462 H 0.71319 0.91567 0.31403 0.0
H463 H 0.74234 0.91492 0.29694 0.0
H464 H 0.71655 0.88141 0.25457 0.0
H465 H 0.68712 0.882 0.27187 0.0
H466 H 0.74828 0.86574 0.26816 0.0
H467 H 0.73057 0.92604 0.24561 0.0
H468 H 0.71956 0.95836 0.24881 0.0
H469 H 0.76725 0.97128 0.28234 0.0
H470 H 0.77843 0.93898 0.27955 0.0
H471 H 0.82558 0.862 0.20914 0.0
H472 H 0.79541 0.86695 0.22336 0.0
H473 H 0.82017 0.90406 0.26325 0.0
H474 H 0.85066 0.89967 0.24852 0.0
H475 H 0.78872 0.91846 0.25063 0.0
H476 H 0.8061 0.85941 0.27502 0.0
H477 H 0.81727 0.827 0.27439 0.0
H478 H 0.77063 0.81159 0.24044 0.0
H479 H 0.75932 0.84398 0.24065 0.0
C480 C 0.71356 0.90852 0.30083 0.0
C481 C 0.69789 0.89885 0.29429 0.0
C482 C 0.73025 0.90816 0.29104 0.0
C483 C 0.73165 0.89815 0.27445 0.0
C484 C 0.71575 0.88925 0.26735 0.0
C485 C 0.69892 0.8897 0.27715 0.0
C486 C 0.75015 0.89544 0.26571 0.0
C487 C 0.75697 0.87725 0.26394 0.0
C488 C 0.76181 0.9105 0.26105 0.0
C489 C 0.75529 0.93004 0.26245 0.0
C490 C 0.73866 0.93575 0.25374 0.0
C491 C 0.7324 0.95407 0.25547 0.0
C492 C 0.7427 0.96686 0.26577 0.0
C493 C 0.7593 0.96136 0.27434 0.0
C494 C 0.76563 0.94305 0.27267 0.0
C495 C 0.82477 0.87111 0.22106 0.0
C496 C 0.84064 0.8804 0.22772 0.0
C497 C 0.80742 0.87386 0.22924 0.0
C498 C 0.80549 0.88568 0.24455 0.0
C499 C 0.82132 0.89484 0.25145 0.0
C500 C 0.83876 0.89222 0.24311 0.0
C501 C 0.7868 0.88871 0.2529 0.0
C502 C 0.77998 0.90694 0.2547 0.0
C503 C 0.77519 0.87368 0.25788 0.0
C504 C 0.78196 0.85417 0.25771 0.0
C505 C 0.79831 0.84914 0.2673 0.0
C506 C 0.80465 0.83077 0.26703 0.0
C507 C 0.79469 0.81726 0.25734 0.0
C508 C 0.77834 0.82208 0.24792 0.0
C509 C 0.77195 0.84044 0.24812 0.0
H510 H 0.79962 0.80304 0.25716 0.0
H511 H 0.73781 0.98103 0.26712 0.0
H512 H 0.78915 0.10851 0.18161 0.0
H513 H 0.77928 0.10892 0.21395 0.0
H514 H 0.78032 0.16872 0.21393 0.0
H515 H 0.79017 0.16844 0.18141 0.0
H516 H 0.79458 0.15082 0.24773 0.0
H517 H 0.74092 0.15132 0.20781 0.0
H518 H 0.72165 0.14033 0.18178 0.0
H519 H 0.71717 0.08681 0.20744 0.0
H520 H 0.73669 0.09745 0.23351 0.0
H521 H 0.74127 0.15722 0.33091 0.0
H522 H 0.75163 0.16243 0.29902 0.0
H523 H 0.74281 0.10456 0.28661 0.0
H524 H 0.73222 0.09936 0.31821 0.0
H525 H 0.73171 0.12469 0.2585 0.0
H526 H 0.7866 0.12204 0.29658 0.0
H527 H 0.80843 0.13074 0.32151 0.0
H528 H 0.81212 0.18587 0.29938 0.0
H529 H 0.79014 0.17754 0.27439 0.0
C530 C 0.78772 0.12177 0.18855 0.0
C531 C 0.79027 0.13848 0.17885 0.0
C532 C 0.78195 0.12197 0.20703 0.0
C533 C 0.77879 0.13885 0.21625 0.0
C534 C 0.78258 0.15554 0.20704 0.0
C535 C 0.78816 0.15536 0.18846 0.0
C536 C 0.77029 0.13894 0.23499 0.0
C537 C 0.7807 0.14543 0.2501 0.0
C538 C 0.75234 0.13155 0.23807 0.0
C539 C 0.74041 0.12516 0.22253 0.0
C540 C 0.73595 0.13718 0.20784 0.0
C541 C 0.72496 0.13102 0.19308 0.0
C542 C 0.71822 0.11286 0.19293 0.0
C543 C 0.72242 0.10086 0.20757 0.0
C544 C 0.73343 0.10697 0.22235 0.0
C545 C 0.74117 0.1457 0.32128 0.0
C546 C 0.73591 0.12786 0.32714 0.0
C547 C 0.74731 0.14865 0.30309 0.0
C548 C 0.74832 0.13382 0.29044 0.0
C549 C 0.74224 0.11623 0.29607 0.0
C550 C 0.73616 0.11327 0.31419 0.0
C551 C 0.75608 0.13632 0.27147 0.0
C552 C 0.7455 0.13031 0.25622 0.0
C553 C 0.77397 0.14396 0.26832 0.0
C554 C 0.78658 0.14922 0.28373 0.0
C555 C 0.7919 0.13608 0.29715 0.0
C556 C 0.80437 0.14091 0.31123 0.0
C557 C 0.81172 0.15882 0.31197 0.0
C558 C 0.80646 0.17198 0.29874 0.0
C559 C 0.794 0.16722 0.28461 0.0
H560 H 0.82145 0.16249 0.32282 0.0
H561 H 0.70971 0.1081 0.1815 0.0
H562 H 0.87058 0.26148 0.66625 0.0
H563 H 0.86684 0.23576 0.68829 0.0
H564 H 0.8966 0.26712 0.72972 0.0
H565 H 0.90071 0.29232 0.70792 0.0
H566 H 0.90607 0.2324 0.73264 0.0
H567 H 0.84746 0.2669 0.7259 0.0
H568 H 0.82031 0.27833 0.70813 0.0
H569 H 0.80568 0.22233 0.69407 0.0
H570 H 0.83288 0.21061 0.71161 0.0
H571 H 0.84363 0.22591 0.81562 0.0
H572 H 0.84711 0.23226 0.78283 0.0
H573 H 0.88327 0.18455 0.7773 0.0
H574 H 0.8802 0.17841 0.81064 0.0
H575 H 0.84117 0.2178 0.75062 0.0
H576 H 0.91638 0.19406 0.74753 0.0
H577 H 0.94372 0.18842 0.76768 0.0
H578 H 0.92479 0.23097 0.80495 0.0
H579 H 0.89728 0.23655 0.78521 0.0
C580 C 0.87662 0.26268 0.67995 0.0
C581 C 0.88579 0.27903 0.68538 0.0
C582 C 0.8744 0.24801 0.69257 0.0
C583 C 0.88125 0.24954 0.71078 0.0
C584 C 0.8912 0.2655 0.71579 0.0
C585 C 0.89345 0.28002 0.70328 0.0
C586 C 0.8771 0.23553 0.72535 0.0
C587 C 0.89188 0.22886 0.73631 0.0
C588 C 0.85862 0.23088 0.73029 0.0
C589 C 0.8423 0.23791 0.71983 0.0
C590 C 0.8385 0.25705 0.71891 0.0
C591 C 0.82311 0.26357 0.7089 0.0
C592 C 0.81132 0.25107 0.69992 0.0
C593 C 0.81486 0.232 0.70099 0.0
C594 C 0.83026 0.22541 0.71095 0.0
C595 C 0.85208 0.21653 0.80741 0.0
C596 C 0.86183 0.20179 0.81579 0.0
C597 C 0.85398 0.22013 0.78855 0.0
C598 C 0.86569 0.2091 0.77752 0.0
C599 C 0.87438 0.19346 0.78555 0.0
C600 C 0.87249 0.18985 0.80457 0.0
C601 C 0.87011 0.2155 0.75839 0.0
C602 C 0.8554 0.22063 0.74651 0.0
C603 C 0.88861 0.21927 0.75287 0.0
C604 C 0.90475 0.21553 0.76507 0.0
C605 C 0.91804 0.20208 0.76011 0.0
C606 C 0.93353 0.19886 0.77148 0.0
C607 C 0.93593 0.20921 0.78768 0.0
C608 C 0.92284 0.22277 0.79256 0.0
C609 C 0.90727 0.22593 0.78133 0.0
H610 H 0.94799 0.20678 0.79637 0.0
H611 H 0.79941 0.25614 0.69218 0.0
H612 H 0.81232 0.41881 0.32496 0.0
H613 H 0.79989 0.42091 0.29354 0.0
H614 H 0.78557 0.36291 0.2951 0.0
H615 H 0.79836 0.36057 0.32648 0.0
H616 H 0.80367 0.37174 0.26346 0.0
H617 H 0.7516 0.39753 0.2979 0.0
H618 H 0.73739 0.41924 0.32028 0.0
H619 H 0.75618 0.46552 0.28806 0.0
H620 H 0.77064 0.44408 0.26558 0.0
H621 H 0.74705 0.36604 0.18354 0.0
H622 H 0.7618 0.3655 0.21391 0.0
H623 H 0.76695 0.42515 0.21259 0.0
H624 H 0.75113 0.42581 0.18253 0.0
H625 H 0.75487 0.41668 0.24406 0.0
H626 H 0.80576 0.39288 0.20905 0.0
H627 H 0.82207 0.37271 0.1867 0.0
H628 H 0.80879 0.32485 0.21935 0.0
H629 H 0.79219 0.3447 0.24179 0.0
C630 C 0.80622 0.40656 0.31879 0.0
C631 C 0.80625 0.38954 0.32833 0.0
C632 C 0.79912 0.4078 0.30078 0.0
C633 C 0.79165 0.39212 0.29197 0.0
C634 C 0.79127 0.3752 0.3016 0.0
C635 C 0.79847 0.37392 0.3196 0.0
C636 C 0.78486 0.39323 0.2725 0.0
C637 C 0.79281 0.38137 0.25923 0.0
C638 C 0.77128 0.40635 0.26681 0.0
C639 C 0.76227 0.41921 0.28013 0.0
C640 C 0.75275 0.41234 0.29563 0.0
C641 C 0.74464 0.42459 0.30833 0.0
C642 C 0.7459 0.44374 0.30561 0.0
C643 C 0.75521 0.45068 0.29015 0.0
C644 C 0.76332 0.43849 0.27741 0.0
C645 C 0.75166 0.37904 0.18951 0.0
C646 C 0.74796 0.39599 0.18056 0.0
C647 C 0.76019 0.37871 0.20694 0.0
C648 C 0.76577 0.39526 0.21562 0.0
C649 C 0.76276 0.41216 0.20631 0.0
C650 C 0.75384 0.41253 0.18903 0.0
C651 C 0.77353 0.395 0.23485 0.0
C652 C 0.76578 0.40704 0.24814 0.0
C653 C 0.78758 0.38227 0.24048 0.0
C654 C 0.79759 0.37028 0.22703 0.0
C655 C 0.8062 0.37804 0.2114 0.0
C656 C 0.81552 0.36667 0.19873 0.0
C657 C 0.81643 0.34751 0.20158 0.0
C658 C 0.80806 0.33969 0.21715 0.0
C659 C 0.79872 0.351 0.22987 0.0
H660 H 0.82364 0.33872 0.19175 0.0
H661 H 0.73964 0.4532 0.31547 0.0
H662 H 0.62172 0.23464 0.68578 0.0
H663 H 0.62011 0.24748 0.71706 0.0
H664 H 0.67922 0.25776 0.71619 0.0
H665 H 0.68099 0.24472 0.68489 0.0
H666 H 0.66667 0.24535 0.75088 0.0
H667 H 0.65189 0.29241 0.70676 0.0
H668 H 0.63582 0.30592 0.67972 0.0
H669 H 0.58316 0.30007 0.7071 0.0
H670 H 0.59892 0.28626 0.73423 0.0
H671 H 0.66118 0.30811 0.82773 0.0
H672 H 0.66779 0.29623 0.79656 0.0
H673 H 0.60932 0.28535 0.78833 0.0
H674 H 0.60262 0.29729 0.8192 0.0
H675 H 0.62452 0.29975 0.75758 0.0
H676 H 0.63978 0.25092 0.80114 0.0
H677 H 0.65633 0.23756 0.82801 0.0
H678 H 0.70884 0.24732 0.80151 0.0
H679 H 0.69259 0.26099 0.77458 0.0
C680 C 0.63447 0.23925 0.69235 0.0
C681 C 0.65147 0.23884 0.68271 0.0
C682 C 0.6335 0.2467 0.71021 0.0
C683 C 0.64948 0.25388 0.71885 0.0
C684 C 0.66669 0.25239 0.70978 0.0
C685 C 0.66766 0.24498 0.69186 0.0
C686 C 0.64791 0.26399 0.73676 0.0
C687 C 0.65767 0.2574 0.75231 0.0
C688 C 0.63611 0.27968 0.73866 0.0
C689 C 0.62658 0.28815 0.72246 0.0
C690 C 0.63687 0.29388 0.70697 0.0
C691 C 0.62782 0.30161 0.69163 0.0
C692 C 0.60847 0.30382 0.69167 0.0
C693 C 0.59815 0.29834 0.70708 0.0
C694 C 0.60713 0.29057 0.72245 0.0
C695 C 0.64971 0.30345 0.81917 0.0
C696 C 0.63138 0.30357 0.82602 0.0
C697 C 0.65353 0.29653 0.8014 0.0
C698 C 0.63908 0.28962 0.79018 0.0
C699 C 0.62071 0.29052 0.79672 0.0
C700 C 0.61691 0.29734 0.81443 0.0
C701 C 0.64294 0.28088 0.77187 0.0
C702 C 0.63363 0.28777 0.75618 0.0
C703 C 0.65522 0.26554 0.76986 0.0
C704 C 0.66498 0.25716 0.78595 0.0
C705 C 0.65486 0.25034 0.80111 0.0
C706 C 0.66418 0.2427 0.81633 0.0
C707 C 0.68363 0.24165 0.81649 0.0
C708 C 0.69378 0.24818 0.80139 0.0
C709 C 0.68452 0.25587 0.78614 0.0
H710 H 0.69082 0.23574 0.8283 0.0
H711 H 0.60148 0.3098 0.67978 0.0
H712 H 0.32509 0.68511 0.13676 0.0
H713 H 0.29244 0.69477 0.13383 0.0
H714 H 0.29614 0.72314 0.18632 0.0
H715 H 0.32843 0.71314 0.18959 0.0
H716 H 0.26282 0.70823 0.1827 0.0
H717 H 0.30354 0.74528 0.14351 0.0
H718 H 0.32643 0.74892 0.11837 0.0
H719 H 0.28795 0.72478 0.07974 0.0
H720 H 0.26493 0.72076 0.10473 0.0
H721 H 0.20995 0.78926 0.18168 0.0
H722 H 0.23354 0.76497 0.18094 0.0
H723 H 0.21057 0.74409 0.12982 0.0
H724 H 0.18659 0.7687 0.13046 0.0
H725 H 0.24918 0.74852 0.12862 0.0
H726 H 0.20586 0.71834 0.16768 0.0
H727 H 0.18349 0.71542 0.19333 0.0
H728 H 0.22687 0.72722 0.23259 0.0
H729 H 0.24946 0.73048 0.20718 0.0
C730 C 0.31882 0.69306 0.14787 0.0
C731 C 0.32947 0.69852 0.16333 0.0
C732 C 0.30017 0.69868 0.14611 0.0
C733 C 0.2919 0.71004 0.15966 0.0
C734 C 0.30218 0.71445 0.17563 0.0
C735 C 0.32072 0.70875 0.17746 0.0
C736 C 0.27319 0.71866 0.15682 0.0
C737 C 0.25983 0.71702 0.17087 0.0
C738 C 0.26897 0.72969 0.14108 0.0
C739 C 0.28262 0.73253 0.126 0.0
C740 C 0.3 0.74068 0.12966 0.0
C741 C 0.313 0.7428 0.11545 0.0
C742 C 0.30867 0.73703 0.09748 0.0
C743 C 0.2913 0.7292 0.09367 0.0
C744 C 0.27827 0.72701 0.10785 0.0
C745 C 0.20972 0.77943 0.17032 0.0
C746 C 0.19638 0.78094 0.1561 0.0
C747 C 0.2232 0.76544 0.16999 0.0
C748 C 0.22376 0.75256 0.15543 0.0
C749 C 0.21034 0.75383 0.14124 0.0
C750 C 0.19662 0.76782 0.14167 0.0
C751 C 0.23913 0.73864 0.15486 0.0
C752 C 0.2519 0.73932 0.1402 0.0
C753 C 0.24286 0.72681 0.17009 0.0
C754 C 0.22935 0.72472 0.18548 0.0
C755 C 0.21062 0.72042 0.18178 0.0
C756 C 0.19789 0.71869 0.19628 0.0
C757 C 0.20375 0.72115 0.21457 0.0
C758 C 0.22235 0.7253 0.21841 0.0
C759 C 0.23514 0.72706 0.20396 0.0
H760 H 0.19387 0.71981 0.22578 0.0
H761 H 0.31876 0.73865 0.0865 0.0
H762 H 0.33791 0.79337 0.33589 0.0
H763 H 0.30757 0.77809 0.33753 0.0
H764 H 0.30059 0.79795 0.39341 0.0
H765 H 0.3308 0.8133 0.39192 0.0
H766 H 0.2966 0.75983 0.39012 0.0
H767 H 0.27335 0.81529 0.35952 0.0
H768 H 0.27225 0.8387 0.33464 0.0
H769 H 0.26189 0.79592 0.29455 0.0
H770 H 0.26295 0.77225 0.3192 0.0
H771 H 0.20439 0.7456 0.41528 0.0
H772 H 0.23524 0.75633 0.40689 0.0
H773 H 0.22801 0.73429 0.35179 0.0
H774 H 0.19656 0.72371 0.36013 0.0
H775 H 0.24067 0.76947 0.35072 0.0
H776 H 0.25953 0.71446 0.38147 0.0
H777 H 0.26014 0.69075 0.40605 0.0
H778 H 0.27967 0.73128 0.44506 0.0
H779 H 0.27891 0.75531 0.42079 0.0
C780 C 0.32975 0.79483 0.3484 0.0
C781 C 0.33688 0.80447 0.36383 0.0
C782 C 0.3124 0.78608 0.34929 0.0
C783 C 0.30188 0.78678 0.36563 0.0
C784 C 0.30854 0.79715 0.3807 0.0
C785 C 0.32579 0.80601 0.37978 0.0
C786 C 0.2847 0.77556 0.36766 0.0
C787 C 0.28431 0.76204 0.38161 0.0
C788 C 0.26899 0.77782 0.35598 0.0
C789 C 0.26846 0.792 0.34116 0.0
C790 C 0.27099 0.81087 0.34537 0.0
C791 C 0.2703 0.82419 0.33133 0.0
C792 C 0.26705 0.8188 0.31302 0.0
C793 C 0.26444 0.80008 0.30873 0.0
C794 C 0.26503 0.78671 0.32274 0.0
C795 C 0.20944 0.7427 0.40145 0.0
C796 C 0.19806 0.73376 0.38838 0.0
C797 C 0.22716 0.74879 0.39668 0.0
C798 C 0.23407 0.74599 0.37875 0.0
C799 C 0.22299 0.73654 0.36574 0.0
C800 C 0.20513 0.73034 0.37056 0.0
C801 C 0.25235 0.75413 0.37362 0.0
C802 C 0.25303 0.76702 0.35906 0.0
C803 C 0.26844 0.75116 0.38464 0.0
C804 C 0.26907 0.73672 0.3993 0.0
C805 C 0.26384 0.71835 0.39532 0.0
C806 C 0.26423 0.70485 0.40919 0.0
C807 C 0.26992 0.70951 0.42711 0.0
C808 C 0.27527 0.72769 0.43117 0.0
C809 C 0.27489 0.74125 0.41735 0.0
H810 H 0.2702 0.69904 0.43784 0.0
H811 H 0.26651 0.82913 0.30216 0.0
H812 H 0.21208 0.8351 0.897 0.0
H813 H 0.22165 0.80261 0.8964 0.0
H814 H 0.23069 0.80616 0.83748 0.0
H815 H 0.22183 0.83898 0.83814 0.0
H816 H 0.21395 0.77041 0.88165 0.0
H817 H 0.27056 0.78119 0.82656 0.0
H818 H 0.28913 0.80601 0.81223 0.0
H819 H 0.28278 0.83952 0.861 0.0
H820 H 0.26461 0.81468 0.87583 0.0
H821 H 0.26951 0.68582 0.86769 0.0
H822 H 0.24851 0.71267 0.86356 0.0
H823 H 0.28864 0.74777 0.89084 0.0
H824 H 0.30948 0.72139 0.89479 0.0
H825 H 0.27841 0.76213 0.8585 0.0
H826 H 0.24804 0.73525 0.91174 0.0
H827 H 0.23179 0.71054 0.92879 0.0
H828 H 0.18827 0.71033 0.88788 0.0
H829 H 0.2044 0.73489 0.87045 0.0
C830 C 0.21569 0.8289 0.88382 0.0
C831 C 0.21652 0.83976 0.86767 0.0
C832 C 0.22114 0.81024 0.88349 0.0
C833 C 0.22737 0.80199 0.86699 0.0
C834 C 0.22639 0.8123 0.85049 0.0
C835 C 0.22122 0.83107 0.85086 0.0
C836 C 0.23685 0.78352 0.86763 0.0
C837 C 0.22797 0.76856 0.8764 0.0
C838 C 0.25524 0.781 0.86092 0.0
C839 C 0.26599 0.79617 0.85218 0.0
C840 C 0.27314 0.79385 0.83423 0.0
C841 C 0.28364 0.80789 0.82605 0.0
C842 C 0.28705 0.82435 0.83567 0.0
C843 C 0.28005 0.82678 0.85354 0.0
C844 C 0.26968 0.81271 0.86186 0.0
C845 C 0.27365 0.69922 0.87307 0.0
C846 C 0.29123 0.70152 0.8814 0.0
C847 C 0.26167 0.71455 0.87068 0.0
C848 C 0.26708 0.7323 0.87674 0.0
C849 C 0.28424 0.7343 0.88583 0.0
C850 C 0.29614 0.71915 0.88812 0.0
C851 C 0.25569 0.7492 0.87286 0.0
C852 C 0.26423 0.76386 0.86341 0.0
C853 C 0.23721 0.75149 0.87923 0.0
C854 C 0.22754 0.73673 0.88968 0.0
C855 C 0.23509 0.72981 0.90629 0.0
C856 C 0.22589 0.71586 0.91604 0.0
C857 C 0.20904 0.70882 0.90939 0.0
C858 C 0.20134 0.71576 0.89299 0.0
C859 C 0.2105 0.7297 0.88318 0.0
H860 H 0.20193 0.69803 0.91696 0.0
H861 H 0.29523 0.83514 0.82929 0.0
H862 H 0.1896 0.71471 0.6549 0.0
H863 H 0.19575 0.74809 0.65315 0.0
H864 H 0.24492 0.74055 0.68694 0.0
H865 H 0.23816 0.70766 0.68968 0.0
H866 H 0.23202 0.7716 0.69516 0.0
H867 H 0.24423 0.74197 0.63613 0.0
H868 H 0.23625 0.7241 0.60814 0.0
H869 H 0.19418 0.76432 0.59406 0.0
H870 H 0.20183 0.78233 0.62209 0.0
H871 H 0.28693 0.83799 0.63202 0.0
H872 H 0.26892 0.80971 0.63577 0.0
H873 H 0.23509 0.83666 0.67725 0.0
H874 H 0.25376 0.86483 0.67418 0.0
H875 H 0.23599 0.79788 0.63189 0.0
H876 H 0.22213 0.80558 0.71014 0.0
H877 H 0.23522 0.82155 0.73745 0.0
H878 H 0.28923 0.82182 0.71205 0.0
H879 H 0.27651 0.80562 0.68473 0.0
C880 C 0.20147 0.7203 0.66229 0.0
C881 C 0.21341 0.70852 0.67238 0.0
C882 C 0.2051 0.73937 0.66114 0.0
C883 C 0.22112 0.74691 0.66949 0.0
C884 C 0.23248 0.73524 0.68033 0.0
C885 C 0.22859 0.71633 0.68188 0.0
C886 C 0.22689 0.76654 0.66617 0.0
C887 C 0.23273 0.77735 0.68131 0.0
C888 C 0.22807 0.77418 0.64813 0.0
C889 C 0.22343 0.76335 0.6313 0.0
C890 C 0.23318 0.74691 0.62712 0.0
C891 C 0.22871 0.73675 0.61124 0.0
C892 C 0.21459 0.74297 0.59935 0.0
C893 C 0.20502 0.75943 0.6033 0.0
C894 C 0.20943 0.76963 0.61917 0.0
C895 C 0.2755 0.83804 0.64177 0.0
C896 C 0.27194 0.85363 0.65296 0.0
C897 C 0.26515 0.8218 0.64389 0.0
C898 C 0.25085 0.82082 0.6571 0.0
C899 C 0.24636 0.83684 0.66732 0.0
C900 C 0.25696 0.85301 0.66545 0.0
C901 C 0.24161 0.80268 0.6608 0.0
C902 C 0.23501 0.79222 0.64576 0.0
C903 C 0.24044 0.79507 0.67886 0.0
C904 C 0.2483 0.80462 0.6953 0.0
C905 C 0.2368 0.80901 0.71042 0.0
C906 C 0.24416 0.8181 0.7259 0.0
C907 C 0.26303 0.82277 0.72646 0.0
C908 C 0.2746 0.81826 0.71158 0.0
C909 C 0.26732 0.80914 0.69609 0.0
H910 H 0.26869 0.82983 0.73844 0.0
H911 H 0.21113 0.73511 0.58705 0.0
H912 H 0.91235 0.80848 0.20491 0.0
H913 H 0.91313 0.77556 0.21193 0.0
H914 H 0.86221 0.76773 0.18111 0.0
H915 H 0.86126 0.80122 0.17406 0.0
H916 H 0.86113 0.75112 0.21548 0.0
H917 H 0.90219 0.74964 0.16427 0.0
H918 H 0.92806 0.75997 0.14448 0.0
H919 H 0.9669 0.7497 0.18866 0.0
H920 H 0.94125 0.73956 0.20882 0.0
H921 H 0.87592 0.65747 0.24715 0.0
H922 H 0.87083 0.68288 0.22504 0.0
H923 H 0.92068 0.70966 0.24485 0.0
H924 H 0.92598 0.68439 0.26658 0.0
H925 H 0.91817 0.71267 0.20819 0.0
H926 H 0.87619 0.72016 0.26064 0.0
H927 H 0.85037 0.71059 0.28089 0.0
H928 H 0.81306 0.7104 0.23433 0.0
H929 H 0.83879 0.71944 0.2137 0.0
C930 C 0.90139 0.79979 0.19938 0.0
C931 C 0.88672 0.80749 0.18893 0.0
C932 C 0.90192 0.78088 0.20333 0.0
C933 C 0.88785 0.76906 0.19691 0.0
C934 C 0.87329 0.77657 0.18613 0.0
C935 C 0.87281 0.79565 0.18201 0.0
C936 C 0.88813 0.74922 0.20269 0.0
C937 C 0.87338 0.74248 0.21346 0.0
C938 C 0.90419 0.73799 0.20023 0.0
C939 C 0.91975 0.74387 0.18808 0.0
C940 C 0.91623 0.74966 0.16981 0.0
C941 C 0.93087 0.75548 0.15852 0.0
C942 C 0.94911 0.7555 0.16531 0.0
C943 C 0.95276 0.74966 0.1834 0.0
C944 C 0.93818 0.74384 0.19476 0.0
C945 C 0.88595 0.66863 0.24655 0.0
C946 C 0.90131 0.66894 0.25873 0.0
C947 C 0.88296 0.6832 0.23398 0.0
C948 C 0.89524 0.69834 0.23341 0.0
C949 C 0.91099 0.69818 0.24499 0.0
C950 C 0.91397 0.68371 0.2575 0.0
C951 C 0.89153 0.71493 0.22163 0.0
C952 C 0.90567 0.72106 0.20976 0.0
C953 C 0.87493 0.72559 0.22312 0.0
C954 C 0.85949 0.72018 0.23558 0.0
C955 C 0.86253 0.71786 0.25468 0.0
C956 C 0.84791 0.71252 0.26623 0.0
C957 C 0.83011 0.70975 0.25888 0.0
C958 C 0.82688 0.7124 0.23998 0.0
C959 C 0.84149 0.71759 0.22835 0.0
H960 H 0.8188 0.70563 0.26784 0.0
H961 H 0.96042 0.76002 0.15656 0.0
H962 H 0.16025 0.38096 0.78794 0.0
H963 H 0.18806 0.37205 0.80566 0.0
H964 H 0.20859 0.42801 0.80169 0.0
H965 H 0.18111 0.43694 0.78375 0.0
H966 H 0.23417 0.40311 0.79044 0.0
H967 H 0.19262 0.4094 0.84271 0.0
H968 H 0.16437 0.40252 0.86072 0.0
H969 H 0.18017 0.34503 0.86347 0.0
H970 H 0.20838 0.35152 0.84521 0.0
H971 H 0.31359 0.40106 0.84528 0.0
H972 H 0.28199 0.40795 0.83482 0.0
H973 H 0.26644 0.35097 0.84407 0.0
H974 H 0.29813 0.34408 0.85513 0.0
H975 H 0.23778 0.37367 0.8524 0.0
H976 H 0.27802 0.36572 0.80081 0.0
H977 H 0.30604 0.3705 0.78178 0.0
H978 H 0.29224 0.42827 0.77607 0.0
H979 H 0.26426 0.42388 0.79531 0.0
C980 C 0.17044 0.39149 0.79126 0.0
C981 C 0.16843 0.4097 0.7844 0.0
C982 C 0.18636 0.38635 0.80139 0.0
C983 C 0.20044 0.39935 0.80506 0.0
C984 C 0.19798 0.4177 0.79899 0.0
C985 C 0.18219 0.42282 0.78879 0.0
C986 C 0.2184 0.39367 0.81389 0.0
C987 C 0.23493 0.39693 0.80411 0.0
C988 C 0.21942 0.38478 0.83136 0.0
C989 C 0.20251 0.38092 0.84242 0.0
C990 C 0.19 0.39526 0.84701 0.0
C991 C 0.174 0.39144 0.8573 0.0
C992 C 0.17046 0.37334 0.8632 0.0
C993 C 0.18294 0.35904 0.85889 0.0
C994 C 0.19892 0.36279 0.84858 0.0
C995 C 0.3034 0.39002 0.84536 0.0
C996 C 0.30845 0.37196 0.85085 0.0
C997 C 0.28532 0.39397 0.83929 0.0
C998 C 0.2719 0.37988 0.83817 0.0
C999 C 0.27656 0.36205 0.84467 0.0
C1000 C 0.29468 0.35813 0.85101 0.0
C1001 C 0.25353 0.38368 0.82916 0.0
C1002 C 0.23697 0.3799 0.83876 0.0
C1003 C 0.25238 0.39181 0.81134 0.0
C1004 C 0.26913 0.3945 0.79964 0.0
C1005 C 0.28103 0.37947 0.7956 0.0
C1006 C 0.2969 0.3821 0.78477 0.0
C1007 C 0.30094 0.39968 0.77776 0.0
C1008 C 0.2891 0.41466 0.78153 0.0
C1009 C 0.27322 0.4121 0.79238 0.0
H1010 H 0.31324 0.4017 0.76937 0.0
H1011 H 0.15806 0.37041 0.87115 0.0
H1012 H 0.63556 0.82241 0.31194 0.0
H1013 H 0.63535 0.79187 0.29733 0.0
H1014 H 0.69545 0.79036 0.29895 0.0
H1015 H 0.69571 0.82133 0.31282 0.0
H1016 H 0.68522 0.77963 0.26692 0.0
H1017 H 0.66612 0.76245 0.32783 0.0
H1018 H 0.64735 0.76375 0.35634 0.0
H1019 H 0.59811 0.75062 0.32518 0.0
H1020 H 0.61655 0.74947 0.29643 0.0
H1021 H 0.69292 0.68187 0.24759 0.0
H1022 H 0.69381 0.71307 0.26095 0.0
H1023 H 0.6352 0.71998 0.24955 0.0
H1024 H 0.6342 0.68886 0.23601 0.0
H1025 H 0.64482 0.7276 0.28636 0.0
H1026 H 0.6655 0.74424 0.22535 0.0
H1027 H 0.68547 0.7421 0.19771 0.0
H1028 H 0.73353 0.75503 0.23074 0.0
H1029 H 0.71388 0.75699 0.25863 0.0
C1030 C 0.64873 0.81544 0.30951 0.0
C1031 C 0.66566 0.82432 0.31362 0.0
C1032 C 0.64861 0.7979 0.30115 0.0
C1033 C 0.66539 0.78858 0.29712 0.0
C1034 C 0.68229 0.7972 0.30181 0.0
C1035 C 0.68243 0.81488 0.30988 0.0
C1036 C 0.66535 0.77034 0.28721 0.0
C1037 C 0.67659 0.76818 0.27141 0.0
C1038 C 0.65383 0.75541 0.29269 0.0
C1039 C 0.6427 0.75605 0.30995 0.0
C1040 C 0.65127 0.75997 0.32704 0.0
C1041 C 0.64069 0.76066 0.34325 0.0
C1042 C 0.62154 0.75731 0.34257 0.0
C1043 C 0.61294 0.75323 0.32568 0.0
C1044 C 0.62345 0.75253 0.30943 0.0
C1045 C 0.68029 0.69016 0.24754 0.0
C1046 C 0.66349 0.68281 0.2407 0.0
C1047 C 0.68083 0.70801 0.25522 0.0
C1048 C 0.66455 0.71885 0.25633 0.0
C1049 C 0.64791 0.71184 0.2489 0.0
C1050 C 0.64741 0.69407 0.24103 0.0
C1051 C 0.66465 0.737 0.26621 0.0
C1052 C 0.65344 0.7391 0.28198 0.0
C1053 C 0.6764 0.75175 0.26088 0.0
C1054 C 0.68824 0.75058 0.24412 0.0
C1055 C 0.68035 0.74646 0.22675 0.0
C1056 C 0.69161 0.74531 0.21103 0.0
C1057 C 0.71077 0.74837 0.21248 0.0
C1058 C 0.7187 0.75263 0.22964 0.0
C1059 C 0.7075 0.75378 0.24541 0.0
H1060 H 0.71946 0.74748 0.20029 0.0
H1061 H 0.61338 0.75785 0.35513 0.0
H1062 H 0.30744 0.17526 0.66626 0.0
H1063 H 0.27334 0.17238 0.67001 0.0
H1064 H 0.28197 0.14279 0.7212 0.0
H1065 H 0.31551 0.14607 0.71787 0.0
H1066 H 0.25454 0.12659 0.6956 0.0
H1067 H 0.27284 0.18517 0.72518 0.0
H1068 H 0.28618 0.21663 0.72456 0.0
H1069 H 0.24653 0.23287 0.68291 0.0
H1070 H 0.23313 0.20137 0.68312 0.0
H1071 H 0.18141 0.12776 0.75899 0.0
H1072 H 0.20945 0.12866 0.74026 0.0
H1073 H 0.18528 0.17213 0.70668 0.0
H1074 H 0.15736 0.17182 0.72609 0.0
H1075 H 0.21797 0.18191 0.71476 0.0
H1076 H 0.19501 0.12582 0.68973 0.0
H1077 H 0.18126 0.09454 0.68947 0.0
H1078 H 0.22837 0.07326 0.71961 0.0
H1079 H 0.2423 0.10445 0.72028 0.0
C1080 C 0.30197 0.16809 0.67821 0.0
C1081 C 0.31411 0.16106 0.69185 0.0
C1082 C 0.28256 0.16644 0.68035 0.0
C1083 C 0.27517 0.15733 0.69589 0.0
C1084 C 0.28735 0.14981 0.70909 0.0
C1085 C 0.30654 0.15182 0.70721 0.0
C1086 C 0.25481 0.15619 0.69929 0.0
C1087 C 0.24643 0.13865 0.6997 0.0
C1088 C 0.24412 0.172 0.70406 0.0
C1089 C 0.25218 0.19087 0.70396 0.0
C1090 C 0.2671 0.19539 0.71575 0.0
C1091 C 0.27464 0.21324 0.71551 0.0
C1092 C 0.26725 0.22672 0.70365 0.0
C1093 C 0.25227 0.22239 0.69205 0.0
C1094 C 0.24471 0.20455 0.69222 0.0
C1095 C 0.18183 0.13723 0.74736 0.0
C1096 C 0.16711 0.14975 0.74407 0.0
C1097 C 0.19793 0.13768 0.73653 0.0
C1098 C 0.19955 0.1503 0.72178 0.0
C1099 C 0.18447 0.16224 0.71794 0.0
C1100 C 0.16845 0.16201 0.72899 0.0
C1101 C 0.21762 0.1521 0.71168 0.0
C1102 C 0.22567 0.16979 0.7101 0.0
C1103 C 0.22791 0.1364 0.70556 0.0
C1104 C 0.21967 0.11753 0.70511 0.0
C1105 C 0.2024 0.1145 0.69639 0.0
C1106 C 0.19457 0.09677 0.69616 0.0
C1107 C 0.20392 0.08192 0.70453 0.0
C1108 C 0.22114 0.08477 0.71312 0.0
C1109 C 0.22903 0.10247 0.71339 0.0
H1110 H 0.19784 0.06821 0.70435 0.0
H1111 H 0.2731 0.24054 0.70349 0.0
H1112 H 0.3196 0.92145 0.71003 0.0
H1113 H 0.31413 0.91887 0.74301 0.0
H1114 H 0.32272 0.85964 0.74003 0.0
H1115 H 0.32783 0.86213 0.70641 0.0
H1116 H 0.29221 0.86725 0.75937 0.0
H1117 H 0.35434 0.88785 0.76317 0.0
H1118 H 0.38197 0.90659 0.7558 0.0
H1119 H 0.35401 0.95568 0.77516 0.0
H1120 H 0.32609 0.9373 0.78241 0.0
H1121 H 0.27033 0.87474 0.85613 0.0
H1122 H 0.28977 0.86799 0.82903 0.0
H1123 H 0.28317 0.9245 0.81057 0.0
H1124 H 0.26393 0.93139 0.83752 0.0
H1125 H 0.3188 0.91133 0.80503 0.0
H1126 H 0.25501 0.88989 0.79612 0.0
H1127 H 0.22793 0.87041 0.80359 0.0
H1128 H 0.26045 0.82127 0.79371 0.0
H1129 H 0.28797 0.84044 0.78684 0.0
C1130 C 0.32063 0.90785 0.71635 0.0
C1131 C 0.32418 0.89199 0.70554 0.0
C1132 C 0.31762 0.90641 0.73533 0.0
C1133 C 0.31826 0.88909 0.74419 0.0
C1134 C 0.32227 0.87318 0.73356 0.0
C1135 C 0.32533 0.87463 0.71438 0.0
C1136 C 0.3133 0.8879 0.7642 0.0
C1137 C 0.29839 0.87651 0.76949 0.0
C1138 C 0.32126 0.90001 0.77749 0.0
C1139 C 0.33808 0.91117 0.77329 0.0
C1140 C 0.35403 0.90266 0.76576 0.0
C1141 C 0.36976 0.91322 0.76162 0.0
C1142 C 0.36974 0.93231 0.765 0.0
C1143 C 0.35401 0.94088 0.77257 0.0
C1144 C 0.33824 0.93039 0.77674 0.0
C1145 C 0.27338 0.88583 0.84651 0.0
C1146 C 0.2655 0.9036 0.84894 0.0
C1147 C 0.28438 0.88189 0.83097 0.0
C1148 C 0.28772 0.89565 0.81763 0.0
C1149 C 0.28077 0.91364 0.82063 0.0
C1150 C 0.26972 0.91756 0.83605 0.0
C1151 C 0.29729 0.89131 0.79987 0.0
C1152 C 0.31303 0.90168 0.79504 0.0
C1153 C 0.29022 0.87811 0.78711 0.0
C1154 C 0.27365 0.86662 0.79127 0.0
C1155 C 0.25648 0.87493 0.79579 0.0
C1156 C 0.24105 0.86394 0.79993 0.0
C1157 C 0.24252 0.84461 0.79925 0.0
C1158 C 0.2594 0.83624 0.79438 0.0
C1159 C 0.27492 0.84716 0.79041 0.0
H1160 H 0.23055 0.83612 0.8024 0.0
H1161 H 0.38192 0.94046 0.76177 0.0
H1162 H 0.16249 0.74753 0.32832 0.0
H1163 H 0.16448 0.77046 0.30381 0.0
H1164 H 0.12473 0.80521 0.33229 0.0
H1165 H 0.12271 0.78202 0.35731 0.0
H1166 H 0.11638 0.79872 0.29433 0.0
H1167 H 0.16841 0.81998 0.33005 0.0
H1168 H 0.19737 0.81615 0.34815 0.0
H1169 H 0.2247 0.79282 0.30067 0.0
H1170 H 0.19591 0.79639 0.28233 0.0
H1171 H 0.12539 0.85549 0.21547 0.0
H1172 H 0.12579 0.84759 0.24841 0.0
H1173 H 0.17231 0.8106 0.23916 0.0
H1174 H 0.17251 0.81906 0.20652 0.0
H1175 H 0.17597 0.82473 0.27166 0.0
H1176 H 0.12495 0.79608 0.23874 0.0
H1177 H 0.09647 0.79578 0.21955 0.0
H1178 H 0.0678 0.82838 0.26041 0.0
H1179 H 0.09622 0.82907 0.27974 0.0
C1180 C 0.15422 0.76009 0.32953 0.0
C1181 C 0.14234 0.76291 0.34474 0.0
C1182 C 0.15551 0.77328 0.31553 0.0
C1183 C 0.14492 0.78965 0.31628 0.0
C1184 C 0.13313 0.79271 0.33152 0.0
C1185 C 0.13201 0.77951 0.34579 0.0
C1186 C 0.14546 0.80266 0.30033 0.0
C1187 C 0.12928 0.80491 0.28964 0.0
C1188 C 0.16244 0.8102 0.29392 0.0
C1189 C 0.17995 0.80843 0.30482 0.0
C1190 C 0.18058 0.81399 0.32348 0.0
C1191 C 0.19699 0.81188 0.33378 0.0
C1192 C 0.21289 0.80427 0.32557 0.0
C1193 C 0.21242 0.7988 0.30701 0.0
C1194 C 0.19607 0.8009 0.29664 0.0
C1195 C 0.13598 0.84601 0.22055 0.0
C1196 C 0.14879 0.83777 0.2083 0.0
C1197 C 0.13612 0.84139 0.23939 0.0
C1198 C 0.14874 0.82807 0.24626 0.0
C1199 C 0.16235 0.82083 0.23427 0.0
C1200 C 0.16244 0.82569 0.21553 0.0
C1201 C 0.14695 0.82044 0.26538 0.0
C1202 C 0.16292 0.81909 0.2766 0.0
C1203 C 0.12986 0.81331 0.2721 0.0
C1204 C 0.11276 0.81284 0.26056 0.0
C1205 C 0.1126 0.80329 0.24357 0.0
C1206 C 0.09648 0.80304 0.23267 0.0
C1207 C 0.08036 0.81211 0.23872 0.0
C1208 C 0.08032 0.8214 0.25572 0.0
C1209 C 0.09642 0.82173 0.26665 0.0
H1210 H 0.06788 0.8119 0.23027 0.0
H1211 H 0.22555 0.80261 0.33358 0.0
H1212 H 0.35947 0.63517 0.80769 0.0
H1213 H 0.35086 0.6384 0.77506 0.0
H1214 H 0.30859 0.6785 0.79 0.0
H1215 H 0.31789 0.67608 0.82234 0.0
H1216 H 0.32206 0.62876 0.75898 0.0
H1217 H 0.29461 0.70525 0.75547 0.0
H1218 H 0.30326 0.73607 0.76752 0.0
H1219 H 0.35994 0.71787 0.77409 0.0
H1220 H 0.3517 0.68702 0.76185 0.0
H1221 H 0.25169 0.63687 0.69251 0.0
H1222 H 0.27212 0.63655 0.71937 0.0
H1223 H 0.30768 0.67691 0.69333 0.0
H1224 H 0.28653 0.67803 0.66664 0.0
H1225 H 0.30401 0.6867 0.72647 0.0
H1226 H 0.32067 0.62896 0.70007 0.0
H1227 H 0.31619 0.59816 0.68588 0.0
H1228 H 0.28913 0.57906 0.73518 0.0
H1229 H 0.29321 0.60982 0.74959 0.0
C1230 C 0.34872 0.64508 0.80392 0.0
C1231 C 0.33944 0.65542 0.81762 0.0
C1232 C 0.34369 0.64683 0.78524 0.0
C1233 C 0.32907 0.65875 0.77985 0.0
C1234 C 0.32022 0.66954 0.79353 0.0
C1235 C 0.32553 0.6681 0.81214 0.0
C1236 C 0.3219 0.65865 0.76037 0.0
C1237 C 0.3183 0.64147 0.75185 0.0
C1238 C 0.31738 0.67516 0.75064 0.0
C1239 C 0.32249 0.69376 0.75786 0.0
C1240 C 0.30894 0.70784 0.75939 0.0
C1241 C 0.31377 0.72532 0.76628 0.0
C1242 C 0.33213 0.72891 0.77161 0.0
C1243 C 0.34571 0.71505 0.77002 0.0
C1244 C 0.34096 0.69756 0.76313 0.0
C1245 C 0.26401 0.64548 0.6923 0.0
C1246 C 0.2675 0.65741 0.67732 0.0
C1247 C 0.2758 0.64522 0.70772 0.0
C1248 C 0.29174 0.65647 0.70841 0.0
C1249 C 0.29552 0.66807 0.69323 0.0
C1250 C 0.28348 0.66861 0.6779 0.0
C1251 C 0.30368 0.65682 0.72542 0.0
C1252 C 0.30809 0.67401 0.73349 0.0
C1253 C 0.3096 0.64033 0.73443 0.0
C1254 C 0.30716 0.62175 0.72587 0.0
C1255 C 0.31367 0.61823 0.70785 0.0
C1256 C 0.31121 0.60077 0.69977 0.0
C1257 C 0.30236 0.58667 0.70961 0.0
C1258 C 0.29598 0.58999 0.72757 0.0
C1259 C 0.29839 0.60743 0.73571 0.0
H1260 H 0.30046 0.57316 0.70333 0.0
H1261 H 0.33583 0.74244 0.77695 0.0
H1262 H 0.39321 0.76748 0.34454 0.0
H1263 H 0.39279 0.75361 0.31351 0.0
H1264 H 0.44094 0.78573 0.29855 0.0
H1265 H 0.44161 0.79947 0.3294 0.0
H1266 H 0.41234 0.78909 0.27299 0.0
H1267 H 0.44574 0.74064 0.3052 0.0
H1268 H 0.45044 0.71714 0.32959 0.0
H1269 H 0.40091 0.6889 0.31198 0.0
H1270 H 0.39578 0.71238 0.28763 0.0
H1271 H 0.43897 0.716 0.19812 0.0
H1272 H 0.4404 0.72935 0.22912 0.0
H1273 H 0.38586 0.75353 0.22142 0.0
H1274 H 0.38424 0.74009 0.19024 0.0
H1275 H 0.41739 0.72199 0.25836 0.0
H1276 H 0.38497 0.79441 0.24741 0.0
H1277 H 0.38182 0.81807 0.22291 0.0
H1278 H 0.43243 0.79862 0.19779 0.0
H1279 H 0.436 0.77502 0.22226 0.0
C1280 C 0.40394 0.77131 0.33478 0.0
C1281 C 0.41742 0.78463 0.33951 0.0
C1282 C 0.40363 0.76342 0.31701 0.0
C1283 C 0.41675 0.76875 0.30365 0.0
C1284 C 0.43059 0.78153 0.30857 0.0
C1285 C 0.43101 0.78928 0.3263 0.0
C1286 C 0.41577 0.76163 0.28432 0.0
C1287 C 0.41337 0.7744 0.26981 0.0
C1288 C 0.4172 0.7425 0.28011 0.0
C1289 C 0.42027 0.72838 0.29473 0.0
C1290 C 0.43576 0.72951 0.30664 0.0
C1291 C 0.43852 0.71617 0.32043 0.0
C1292 C 0.42595 0.70156 0.32237 0.0
C1293 C 0.41062 0.70024 0.31048 0.0
C1294 C 0.40779 0.71355 0.29668 0.0
C1295 C 0.42734 0.72435 0.20285 0.0
C1296 C 0.41147 0.72694 0.19162 0.0
C1297 C 0.42815 0.73188 0.22068 0.0
C1298 C 0.41322 0.74236 0.22767 0.0
C1299 C 0.39759 0.74554 0.2163 0.0
C1300 C 0.39671 0.7379 0.19845 0.0
C1301 C 0.41393 0.74945 0.24703 0.0
C1302 C 0.41621 0.73666 0.26156 0.0
C1303 C 0.4125 0.76858 0.25124 0.0
C1304 C 0.41062 0.78282 0.23655 0.0
C1305 C 0.39544 0.79522 0.23668 0.0
C1306 C 0.39358 0.80862 0.2228 0.0
C1307 C 0.40688 0.8098 0.20876 0.0
C1308 C 0.4221 0.79763 0.20862 0.0
C1309 C 0.42403 0.78423 0.22248 0.0
H1310 H 0.40541 0.82017 0.19802 0.0
H1311 H 0.42812 0.69125 0.33305 0.0
H1312 H 0.68546 0.28951 0.93472 0.0
H1313 H 0.71609 0.27474 0.93267 0.0
H1314 H 0.69939 0.24703 0.88243 0.0
H1315 H 0.66865 0.26179 0.88429 0.0
H1316 H 0.72119 0.22457 0.90612 0.0
H1317 H 0.72282 0.28627 0.87946 0.0
H1318 H 0.71805 0.32017 0.88037 0.0
H1319 H 0.75628 0.32442 0.926 0.0
H1320 H 0.76107 0.29048 0.92552 0.0
H1321 H 0.80409 0.20197 0.86218 0.0
H1322 H 0.77417 0.21578 0.87003 0.0
H1323 H 0.80013 0.24691 0.91407 0.0
H1324 H 0.83059 0.23338 0.90576 0.0
H1325 H 0.77424 0.2676 0.89742 0.0
H1326 H 0.775 0.20694 0.92312 0.0
H1327 H 0.77959 0.17301 0.92369 0.0
H1328 H 0.73704 0.16648 0.88232 0.0
H1329 H 0.73237 0.2004 0.8813 0.0
C1330 C 0.68811 0.27997 0.92341 0.0
C1331 C 0.67458 0.27697 0.90957 0.0
C1332 C 0.7057 0.27163 0.92222 0.0
C1333 C 0.71015 0.26005 0.90723 0.0
C1334 C 0.69629 0.256 0.89408 0.0
C1335 C 0.6787 0.26443 0.89518 0.0
C1336 C 0.72952 0.25313 0.90458 0.0
C1337 C 0.73277 0.23395 0.90407 0.0
C1338 C 0.74475 0.2654 0.90253 0.0
C1339 C 0.74216 0.28583 0.90258 0.0
C1340 C 0.73012 0.29442 0.88976 0.0
C1341 C 0.72742 0.31364 0.89019 0.0
C1342 C 0.73682 0.32444 0.90327 0.0
C1343 C 0.74899 0.31604 0.91589 0.0
C1344 C 0.75171 0.29681 0.91555 0.0
C1345 C 0.80352 0.21184 0.87349 0.0
C1346 C 0.81968 0.21643 0.8835 0.0
C1347 C 0.78633 0.21966 0.87804 0.0
C1348 C 0.78471 0.23198 0.89302 0.0
C1349 C 0.80097 0.23728 0.90258 0.0
C1350 C 0.81836 0.2296 0.89782 0.0
C1351 C 0.76593 0.23894 0.8986 0.0
C1352 C 0.76275 0.25815 0.89966 0.0
C1353 C 0.75078 0.22668 0.9014 0.0
C1354 C 0.75343 0.20624 0.90205 0.0
C1355 C 0.7667 0.19828 0.91406 0.0
C1356 C 0.76931 0.17905 0.91447 0.0
C1357 C 0.75864 0.1676 0.90302 0.0
C1358 C 0.7453 0.17536 0.89117 0.0
C1359 C 0.74265 0.19459 0.89069 0.0
H1360 H 0.76068 0.15271 0.90336 0.0
H1361 H 0.7347 0.33932 0.90359 0.0
H1362 H 0.81918 0.31994 0.66517 0.0
H1363 H 0.78669 0.31104 0.66079 0.0
H1364 H 0.78139 0.35052 0.61623 0.0
H1365 H 0.81399 0.35928 0.62029 0.0
H1366 H 0.75265 0.32507 0.66112 0.0
H1367 H 0.75723 0.33088 0.58102 0.0
H1368 H 0.78037 0.32791 0.55591 0.0
H1369 H 0.81513 0.29423 0.59092 0.0
H1370 H 0.79222 0.29692 0.61616 0.0
H1371 H 0.66445 0.29144 0.62791 0.0
H1372 H 0.69107 0.31221 0.63293 0.0
H1373 H 0.72773 0.27113 0.60889 0.0
H1374 H 0.70146 0.25101 0.60314 0.0
H1375 H 0.73863 0.30196 0.59793 0.0
H1376 H 0.72202 0.2778 0.65803 0.0
H1377 H 0.70112 0.27226 0.68447 0.0
H1378 H 0.69414 0.33099 0.69195 0.0
H1379 H 0.71505 0.33688 0.66553 0.0
C1380 C 0.81102 0.32705 0.65469 0.0
C1381 C 0.81933 0.34019 0.64294 0.0
C1382 C 0.79238 0.32195 0.65222 0.0
C1383 C 0.78163 0.32985 0.63795 0.0
C1384 C 0.78947 0.34399 0.62714 0.0
C1385 C 0.80813 0.34907 0.62956 0.0
C1386 C 0.76299 0.32202 0.6333 0.0
C1387 C 0.7495 0.3202 0.64725 0.0
C1388 C 0.75891 0.31524 0.61533 0.0
C1389 C 0.77315 0.31435 0.60054 0.0
C1390 C 0.76986 0.32293 0.58336 0.0
C1391 C 0.78291 0.32125 0.56911 0.0
C1392 C 0.79917 0.31088 0.57185 0.0
C1393 C 0.80252 0.30226 0.58885 0.0
C1394 C 0.78956 0.30394 0.60316 0.0
C1395 C 0.67816 0.28705 0.62339 0.0
C1396 C 0.68079 0.26952 0.61516 0.0
C1397 C 0.69341 0.29885 0.62645 0.0
C1398 C 0.71155 0.29319 0.62155 0.0
C1399 C 0.71396 0.27596 0.61278 0.0
C1400 C 0.69883 0.26437 0.60954 0.0
C1401 C 0.72834 0.30463 0.62579 0.0
C1402 C 0.74151 0.30724 0.61171 0.0
C1403 C 0.73243 0.31124 0.64384 0.0
C1404 C 0.71989 0.30777 0.6597 0.0
C1405 C 0.71592 0.28952 0.66525 0.0
C1406 C 0.70409 0.28632 0.68023 0.0
C1407 C 0.6962 0.30125 0.68981 0.0
C1408 C 0.70021 0.31943 0.68448 0.0
C1409 C 0.71209 0.32272 0.66953 0.0
H1410 H 0.68705 0.29873 0.70141 0.0
H1411 H 0.80924 0.30957 0.56084 0.0
H1412 H 0.74291 0.31317 0.15171 0.0
H1413 H 0.74253 0.27962 0.14818 0.0
H1414 H 0.68308 0.28112 0.13986 0.0
H1415 H 0.68333 0.31517 0.14285 0.0
H1416 H 0.71695 0.24915 0.16675 0.0
H1417 H 0.6838 0.27017 0.10749 0.0
H1418 H 0.682 0.29582 0.08501 0.0
H1419 H 0.74089 0.29148 0.07549 0.0
H1420 H 0.7431 0.26628 0.09858 0.0
H1421 H 0.73213 0.15673 0.13368 0.0
H1422 H 0.71543 0.18576 0.14055 0.0
H1423 H 0.75304 0.21554 0.10493 0.0
H1424 H 0.76905 0.18681 0.09747 0.0
H1425 H 0.72176 0.23046 0.10082 0.0
H1426 H 0.75822 0.21378 0.15461 0.0
H1427 H 0.76876 0.19454 0.18086 0.0
H1428 H 0.71302 0.19341 0.20219 0.0
H1429 H 0.70218 0.21283 0.17608 0.0
C1430 C 0.72964 0.30646 0.14933 0.0
C1431 C 0.71316 0.31696 0.14729 0.0
C1432 C 0.72948 0.28721 0.14743 0.0
C1433 C 0.71285 0.27791 0.14358 0.0
C1434 C 0.69611 0.2881 0.14266 0.0
C1435 C 0.69627 0.30753 0.1444 0.0
C1436 C 0.71381 0.25795 0.13849 0.0
C1437 C 0.7173 0.2448 0.15237 0.0
C1438 C 0.7152 0.25256 0.11975 0.0
C1439 C 0.7136 0.26646 0.10476 0.0
C1440 C 0.69634 0.27471 0.10059 0.0
C1441 C 0.69527 0.28921 0.0878 0.0
C1442 C 0.71133 0.29528 0.07878 0.0
C1443 C 0.72847 0.28678 0.08249 0.0
C1444 C 0.72965 0.27243 0.09547 0.0
C1445 C 0.73656 0.16943 0.12704 0.0
C1446 C 0.75202 0.16941 0.1151 0.0
C1447 C 0.72711 0.18607 0.13111 0.0
C1448 C 0.7331 0.20302 0.12351 0.0
C1449 C 0.74802 0.20277 0.11098 0.0
C1450 C 0.75727 0.18623 0.10678 0.0
C1451 C 0.72479 0.22125 0.12912 0.0
C1452 C 0.72034 0.23429 0.11527 0.0
C1453 C 0.72308 0.22664 0.14795 0.0
C1454 C 0.72936 0.21452 0.16331 0.0
C1455 C 0.74819 0.20927 0.16481 0.0
C1456 C 0.75422 0.19837 0.17967 0.0
C1457 C 0.74156 0.19265 0.19313 0.0
C1458 C 0.72281 0.19782 0.19174 0.0
C1459 C 0.71672 0.20881 0.17694 0.0
H1460 H 0.74631 0.18437 0.20471 0.0
H1461 H 0.71049 0.30658 0.06893 0.0
H1462 H 0.8406 0.30358 0.32713 0.0
H1463 H 0.83337 0.27066 0.33062 0.0
H1464 H 0.84157 0.2751 0.38965 0.0
H1465 H 0.84956 0.30782 0.38616 0.0
H1466 H 0.85256 0.24218 0.37895 0.0
H1467 H 0.79756 0.27886 0.36916 0.0
H1468 H 0.77717 0.30131 0.35306 0.0
H1469 H 0.77618 0.26619 0.305 0.0
H1470 H 0.79679 0.24364 0.32074 0.0
H1471 H 0.78879 0.16876 0.40443 0.0
H1472 H 0.80589 0.19794 0.40058 0.0
H1473 H 0.80583 0.19006 0.34142 0.0
H1474 H 0.78897 0.161 0.34512 0.0
H1475 H 0.79154 0.22408 0.35225 0.0
H1476 H 0.84561 0.18622 0.36436 0.0
H1477 H 0.86476 0.16406 0.38223 0.0
H1478 H 0.86564 0.20173 0.42832 0.0
H1479 H 0.84626 0.22402 0.41081 0.0
C1480 C 0.84125 0.29746 0.34081 0.0
C1481 C 0.84546 0.30839 0.35638 0.0
C1482 C 0.83698 0.27864 0.34281 0.0
C1483 C 0.83638 0.27047 0.36047 0.0
C1484 C 0.8418 0.28107 0.37589 0.0
C1485 C 0.84637 0.29982 0.37386 0.0
C1486 C 0.82883 0.2514 0.36302 0.0
C1487 C 0.83915 0.23829 0.37324 0.0
C1488 C 0.81134 0.24618 0.35553 0.0
C1489 C 0.79888 0.25967 0.34605 0.0
C1490 C 0.7931 0.27599 0.35511 0.0
C1491 C 0.78149 0.28872 0.34606 0.0
C1492 C 0.77542 0.28521 0.328 0.0
C1493 C 0.78091 0.26892 0.31898 0.0
C1494 C 0.79255 0.25615 0.32796 0.0
C1495 C 0.79281 0.17305 0.39064 0.0
C1496 C 0.78761 0.16248 0.37508 0.0
C1497 C 0.80258 0.18971 0.38846 0.0
C1498 C 0.80716 0.19614 0.3707 0.0
C1499 C 0.80251 0.18531 0.35525 0.0
C1500 C 0.79298 0.16861 0.35741 0.0
C1501 C 0.81535 0.21485 0.36799 0.0
C1502 C 0.80503 0.22794 0.35784 0.0
C1503 C 0.83263 0.22007 0.37581 0.0
C1504 C 0.84432 0.20671 0.38634 0.0
C1505 C 0.84974 0.18971 0.37837 0.0
C1506 C 0.86067 0.17714 0.38842 0.0
C1507 C 0.86637 0.18146 0.40642 0.0
C1508 C 0.8612 0.19839 0.41439 0.0
C1509 C 0.85025 0.21101 0.4044 0.0
H1510 H 0.87484 0.17171 0.41418 0.0
H1511 H 0.76644 0.29508 0.32101 0.0
H1512 H 0.2167 0.57905 0.64441 0.0
H1513 H 0.20465 0.54926 0.65443 0.0
H1514 H 0.15986 0.57698 0.68318 0.0
H1515 H 0.17216 0.60719 0.67336 0.0
H1516 H 0.17476 0.55004 0.70431 0.0
H1517 H 0.15188 0.55338 0.64243 0.0
H1518 H 0.15337 0.55824 0.60869 0.0
H1519 H 0.19236 0.51313 0.6037 0.0
H1520 H 0.19131 0.50816 0.63745 0.0
H1521 H 0.12906 0.46392 0.72121 0.0
H1522 H 0.1358 0.49517 0.70998 0.0
H1523 H 0.18404 0.47423 0.68114 0.0
H1524 H 0.17734 0.44288 0.69223 0.0
H1525 H 0.16425 0.49859 0.65984 0.0
H1526 H 0.18858 0.49694 0.72205 0.0
H1527 H 0.18691 0.49207 0.75579 0.0
H1528 H 0.14455 0.53416 0.75995 0.0
H1529 H 0.14579 0.53909 0.72618 0.0
C1530 C 0.20422 0.57892 0.65278 0.0
C1531 C 0.19538 0.5956 0.65801 0.0
C1532 C 0.19726 0.56178 0.65844 0.0
C1533 C 0.18116 0.56076 0.66935 0.0
C1534 C 0.17227 0.57737 0.67469 0.0
C1535 C 0.17927 0.59464 0.66902 0.0
C1536 C 0.17412 0.54231 0.67551 0.0
C1537 C 0.1721 0.53891 0.69454 0.0
C1538 C 0.17098 0.52759 0.66285 0.0
C1539 C 0.17162 0.53049 0.64251 0.0
C1540 C 0.16088 0.54458 0.63416 0.0
C1541 C 0.16163 0.54734 0.61503 0.0
C1542 C 0.17298 0.53602 0.60406 0.0
C1543 C 0.18358 0.52189 0.61221 0.0
C1544 C 0.1829 0.51909 0.63134 0.0
C1545 C 0.14107 0.46591 0.71241 0.0
C1546 C 0.15269 0.45083 0.70769 0.0
C1547 C 0.14495 0.48384 0.70606 0.0
C1548 C 0.16055 0.48714 0.69486 0.0
C1549 C 0.17193 0.47206 0.68978 0.0
C1550 C 0.16811 0.45413 0.69618 0.0
C1551 C 0.16516 0.5063 0.68861 0.0
C1552 C 0.16672 0.5098 0.66957 0.0
C1553 C 0.16782 0.52111 0.70126 0.0
C1554 C 0.16713 0.51824 0.72157 0.0
C1555 C 0.17881 0.50505 0.73014 0.0
C1556 C 0.17795 0.5023 0.74927 0.0
C1557 C 0.16559 0.51276 0.76 0.0
C1558 C 0.1541 0.52604 0.75162 0.0
C1559 C 0.15488 0.52883 0.73249 0.0
H1560 H 0.16496 0.51062 0.77481 0.0
H1561 H 0.17354 0.53818 0.58925 0.0
H1562 H 0.45646 0.66352 0.13124 0.0
H1563 H 0.48457 0.6524 0.14659 0.0
H1564 H 0.45345 0.64285 0.19665 0.0
H1565 H 0.42513 0.65448 0.18139 0.0
H1566 H 0.4844 0.66073 0.20458 0.0
H1567 H 0.47113 0.60613 0.17051 0.0
H1568 H 0.46264 0.58714 0.14339 0.0
H1569 H 0.51201 0.60491 0.11524 0.0
H1570 H 0.52069 0.62422 0.14209 0.0
H1571 H 0.57247 0.62554 0.241 0.0
H1572 H 0.53943 0.62632 0.23164 0.0
H1573 H 0.55527 0.64516 0.17732 0.0
H1574 H 0.58789 0.64455 0.18646 0.0
H1575 H 0.52939 0.61693 0.17593 0.0
H1576 H 0.53909 0.6753 0.20854 0.0
H1577 H 0.54725 0.69431 0.23576 0.0
H1578 H 0.50397 0.66823 0.26716 0.0
H1579 H 0.49572 0.64888 0.24016 0.0
C1580 C 0.45545 0.65877 0.14543 0.0
C1581 C 0.43848 0.6599 0.15505 0.0
C1582 C 0.47159 0.65231 0.1542 0.0
C1583 C 0.47119 0.64656 0.17277 0.0
C1584 C 0.45414 0.64715 0.1823 0.0
C1585 C 0.43793 0.65368 0.17351 0.0
C1586 C 0.48887 0.64123 0.18236 0.0
C1587 C 0.49403 0.65079 0.19855 0.0
C1588 C 0.5016 0.62838 0.17449 0.0
C1589 C 0.49651 0.61671 0.15831 0.0
C1590 C 0.48012 0.60608 0.1585 0.0
C1591 C 0.47528 0.59525 0.14317 0.0
C1592 C 0.48676 0.59484 0.1276 0.0
C1593 C 0.50313 0.60524 0.12732 0.0
C1594 C 0.50804 0.61611 0.1426 0.0
C1595 C 0.56886 0.62981 0.22707 0.0
C1596 C 0.58284 0.63505 0.21453 0.0
C1597 C 0.55 0.63028 0.22175 0.0
C1598 C 0.54487 0.63582 0.20376 0.0
C1599 C 0.55886 0.64077 0.19123 0.0
C1600 C 0.57755 0.64051 0.19656 0.0
C1601 C 0.52505 0.63687 0.1977 0.0
C1602 C 0.51953 0.62651 0.18217 0.0
C1603 C 0.51197 0.64887 0.20623 0.0
C1604 C 0.51697 0.66047 0.22243 0.0
C1605 C 0.53144 0.67349 0.22131 0.0
C1606 C 0.53605 0.68436 0.23668 0.0
C1607 C 0.52618 0.68243 0.2532 0.0
C1608 C 0.51164 0.66967 0.25437 0.0
C1609 C 0.50699 0.65876 0.23904 0.0
H1610 H 0.52977 0.69086 0.26509 0.0
H1611 H 0.48299 0.58644 0.11575 0.0
H1612 H 0.31228 0.94828 0.65558 0.0
H1613 H 0.31686 0.98095 0.66361 0.0
H1614 H 0.37169 0.97911 0.63933 0.0
H1615 H 0.3674 0.94636 0.63183 0.0
H1616 H 0.374 0.99543 0.67103 0.0
H1617 H 0.33335 1.00252 0.61878 0.0
H1618 H 0.30521 0.99732 0.59986 0.0
H1619 H 0.27106 0.01937 0.64343 0.0
H1620 H 0.29899 0.02449 0.66272 0.0
H1621 H 0.38834 0.09422 0.67118 0.0
H1622 H 0.38444 0.06149 0.66277 0.0
H1623 H 0.33206 0.06035 0.6918 0.0
H1624 H 0.3358 0.0929 0.70022 0.0
H1625 H 0.32879 0.04585 0.6573 0.0
H1626 H 0.37012 0.03859 0.70938 0.0
H1627 H 0.39863 0.04405 0.72768 0.0
H1628 H 0.43202 0.02268 0.6832 0.0
H1629 H 0.40371 0.01732 0.66453 0.0
C1630 C 0.32518 0.95493 0.65168 0.0
C1631 C 0.33946 0.94471 0.64303 0.0
C1632 C 0.32781 0.97365 0.65627 0.0
C1633 C 0.34461 0.98265 0.652 0.0
C1634 C 0.35864 0.97255 0.64288 0.0
C1635 C 0.35612 0.95381 0.6385 0.0
C1636 C 0.34796 1.0023 0.65769 0.0
C1637 C 0.36422 1.00648 0.66774 0.0
C1638 C 0.33508 0.01677 0.65383 0.0
C1639 C 0.31825 0.01372 0.64226 0.0
C1640 C 0.31983 1.00613 0.62438 0.0
C1641 C 0.30391 1.00322 0.61358 0.0
C1642 C 0.28635 1.00797 0.62046 0.0
C1643 C 0.28467 0.01568 0.63813 0.0
C1644 C 0.30054 0.0186 0.649 0.0
C1645 C 0.37613 0.08693 0.67601 0.0
C1646 C 0.36238 0.09625 0.68636 0.0
C1647 C 0.37391 0.0682 0.67118 0.0
C1648 C 0.35792 0.05843 0.67663 0.0
C1649 C 0.34446 0.06759 0.68735 0.0
C1650 C 0.34669 0.08623 0.69224 0.0
C1651 C 0.35479 0.0389 0.67059 0.0
C1652 C 0.33857 0.03477 0.66049 0.0
C1653 C 0.36777 0.02452 0.67429 0.0
C1654 C 0.3848 0.02774 0.68548 0.0
C1655 C 0.38355 0.03521 0.70344 0.0
C1656 C 0.39967 0.03825 0.71389 0.0
C1657 C 0.41713 0.03376 0.70659 0.0
C1658 C 0.41849 0.02618 0.68883 0.0
C1659 C 0.40241 0.02312 0.67831 0.0
H1660 H 0.42959 0.03613 0.7147 0.0
H1661 H 0.27405 1.00571 0.61207 0.0
H1662 H 0.089 0.81043 0.15968 0.0
H1663 H 0.05569 0.81495 0.16599 0.0
H1664 H 0.05762 0.86868 0.13985 0.0
H1665 H 0.0907 0.86438 0.13367 0.0
H1666 H 0.03908 0.8709 0.17174 0.0
H1667 H 0.03888 0.83081 0.11797 0.0
H1668 H 0.04656 0.8025 0.10029 0.0
H1669 H 0.01874 0.76921 0.14088 0.0
H1670 H 1.01111 0.79732 0.15893 0.0
H1671 H 0.9373 0.86195 0.13672 0.0
H1672 H 0.97063 0.85592 0.135 0.0
H1673 H 0.97503 0.8611 0.19434 0.0
H1674 H 0.94139 0.86737 0.19617 0.0
H1675 H 0.99053 0.82792 0.14865 0.0
H1676 H 0.0198 0.87698 0.2042 0.0
H1677 H 1.01193 0.90657 0.21961 0.0
H1678 H 0.98127 0.92411 0.17153 0.0
H1679 H 0.98914 0.89473 0.15577 0.0
C1680 C 0.08227 0.82313 0.15513 0.0
C1681 C 0.09255 0.83702 0.14612 0.0
C1682 C 0.06323 0.82571 0.15878 0.0
C1683 C 0.0541 0.84219 0.15342 0.0
C1684 C 0.06434 0.85593 0.14427 0.0
C1685 C 0.08328 0.85337 0.14063 0.0
C1686 C 0.03391 0.84531 0.15717 0.0
C1687 C 0.02847 0.86141 0.16681 0.0
C1688 C 0.02 0.83303 0.15071 0.0
C1689 C 0.02463 0.81614 0.13991 0.0
C1690 C 0.03455 0.81744 0.1232 0.0
C1691 C 0.03886 0.80143 0.1131 0.0
C1692 C 0.0332 0.78406 0.11949 0.0
C1693 C 0.02316 0.78266 0.13597 0.0
C1694 C 0.01883 0.79863 0.14614 0.0
C1695 C 0.94531 0.86197 0.14945 0.0
C1696 C 0.93662 0.86517 0.1666 0.0
C1697 C 0.96441 0.8584 0.14843 0.0
C1698 C 0.9754 0.85796 0.16451 0.0
C1699 C 0.96688 0.86148 0.1817 0.0
C1700 C 0.94766 0.8651 0.18273 0.0
C1701 C 0.99567 0.85364 0.16299 0.0
C1702 C 1.00113 0.83727 0.15385 0.0
C1703 C 1.00959 0.8658 0.16967 0.0
C1704 C 1.00487 0.88357 0.17892 0.0
C1705 C 1.01141 0.88718 0.19692 0.0
C1706 C 1.00695 0.90391 0.20571 0.0
C1707 C 0.99604 0.91718 0.19658 0.0
C1708 C 0.98964 0.91379 0.17862 0.0
C1709 C 0.99407 0.89709 0.16976 0.0
H1710 H 0.9926 0.93012 0.20341 0.0
H1711 H 0.03654 0.77168 0.11165 0.0
H1712 H 0.21085 0.96969 0.90414 0.0
H1713 H 0.19912 0.9989 0.89156 0.0
H1714 H 0.17444 0.9695 0.84568 0.0
H1715 H 0.18642 0.94009 0.85811 0.0
H1716 H 0.19284 0.99942 0.8338 0.0
H1717 H 0.14763 0.98777 0.8809 0.0
H1718 H 0.13651 0.9806 0.91234 0.0
H1719 H 0.1621 0.03021 0.93309 0.0
H1720 H 0.17361 0.03754 0.90181 0.0
H1721 H 0.13696 0.07191 0.79865 0.0
H1722 H 0.14766 0.04334 0.81322 0.0
H1723 H 0.17415 0.07495 0.85653 0.0
H1724 H 0.16331 0.10392 0.84196 0.0
H1725 H 0.1553 0.04444 0.87017 0.0
H1726 H 0.20019 0.05617 0.82285 0.0
H1727 H 0.21099 0.06335 0.79131 0.0
H1728 H 0.18574 0.01344 0.7709 0.0
H1729 H 0.17454 1.00609 0.80229 0.0
C1730 C 0.2028 0.96935 0.89144 0.0
C1731 C 0.19957 0.95247 0.88216 0.0
C1732 C 0.19602 0.98612 0.88429 0.0
C1733 C 0.18572 0.98647 0.86774 0.0
C1734 C 0.18232 0.96962 0.85849 0.0
C1735 C 0.1891 0.95279 0.86566 0.0
C1736 C 0.17911 1.00448 0.85979 0.0
C1737 C 0.18439 1.00912 0.84168 0.0
C1738 C 0.16855 0.01747 0.87021 0.0
C1739 C 0.16164 0.01311 0.88904 0.0
C1740 C 0.15102 0.99707 0.8922 0.0
C1741 C 0.14463 0.99299 0.90998 0.0
C1742 C 0.14864 1.00492 0.92471 0.0
C1743 C 0.15903 0.02097 0.92167 0.0
C1744 C 0.16547 0.0251 0.90391 0.0
C1745 C 0.14504 0.07291 0.8113 0.0
C1746 C 0.14935 0.0903 0.81906 0.0
C1747 C 0.15122 0.05648 0.81959 0.0
C1748 C 0.16194 0.05694 0.83585 0.0
C1749 C 0.16595 0.07424 0.84394 0.0
C1750 C 0.1598 0.09079 0.83557 0.0
C1751 C 0.16894 0.03927 0.84417 0.0
C1752 C 0.16377 0.03473 0.86233 0.0
C1753 C 0.17959 0.02634 0.8338 0.0
C1754 C 0.18638 0.03067 0.81491 0.0
C1755 C 0.19681 0.0468 0.81162 0.0
C1756 C 0.20303 0.05088 0.79377 0.0
C1757 C 0.19902 0.03888 0.7791 0.0
C1758 C 0.18882 0.02273 0.78227 0.0
C1759 C 0.18255 0.01859 0.80009 0.0
H1760 H 0.20384 0.04207 0.76529 0.0
H1761 H 0.14367 1.00174 0.93847 0.0
H1762 H 0.93529 0.65947 0.33632 0.0
H1763 H 0.964 0.67296 0.34882 0.0
H1764 H 0.99548 0.62627 0.32812 0.0
H1765 H 0.96694 0.61266 0.31578 0.0
H1766 H 1.00752 0.63622 0.36229 0.0
H1767 H 0.99453 0.66658 0.30455 0.0
H1768 H 0.97523 0.684 0.28218 0.0
H1769 H 0.97112 0.72952 0.32038 0.0
H1770 H 0.99017 0.71224 0.34311 0.0
H1771 H 0.09787 0.67859 0.36667 0.0
H1772 H 0.06942 0.66297 0.35607 0.0
H1773 H 0.03648 0.70957 0.37467 0.0
H1774 H 0.06461 0.72523 0.38503 0.0
H1775 H 0.02546 0.69911 0.34118 0.0
H1776 H 0.03831 0.66864 0.39906 0.0
H1777 H 0.05727 0.65102 0.42156 0.0
H1778 H 0.06169 0.6057 0.38315 0.0
H1779 H 0.04295 0.62317 0.3603 0.0
C1780 C 0.94829 0.65198 0.33461 0.0
C1781 C 0.9488 0.63504 0.32494 0.0
C1782 C 0.96472 0.65975 0.34168 0.0
C1783 C 0.98198 0.65075 0.3392 0.0
C1784 C 0.98238 0.6335 0.33018 0.0
C1785 C 0.96602 0.62577 0.32307 0.0
C1786 C 0.9997 0.65958 0.34535 0.0
C1787 C 1.01155 0.64989 0.35752 0.0
C1788 C 1.00489 0.67752 0.33933 0.0
C1789 C 0.99362 0.68803 0.32561 0.0
C1790 C 0.9894 0.68025 0.30823 0.0
C1791 C 0.97852 0.6901 0.29548 0.0
C1792 C 0.97191 0.70783 0.29987 0.0
C1793 C 0.97623 0.71577 0.31701 0.0
C1794 C 0.98707 0.70596 0.32983 0.0
C1795 C 0.08456 0.68547 0.36853 0.0
C1796 C 0.08358 0.70317 0.37672 0.0
C1797 C 0.06829 0.6765 0.36252 0.0
C1798 C 0.05073 0.68503 0.36467 0.0
C1799 C 0.0498 0.70269 0.37281 0.0
C1800 C 0.06597 0.71161 0.37879 0.0
C1801 C 0.03326 0.67583 0.35829 0.0
C1802 C 0.02146 0.68544 0.34599 0.0
C1803 C 0.02815 0.65783 0.36419 0.0
C1804 C 0.0394 0.6473 0.3779 0.0
C1805 C 0.04346 0.65498 0.39535 0.0
C1806 C 0.05414 0.64501 0.40817 0.0
C1807 C 0.06073 0.62728 0.40376 0.0
C1808 C 0.0566 0.61946 0.38653 0.0
C1809 C 0.04594 0.62938 0.37364 0.0
H1810 H 0.06899 0.61958 0.41371 0.0
H1811 H 0.96348 0.71544 0.28999 0.0
H1812 H 0.31278 0.58803 0.87535 0.0
H1813 H 0.31639 0.55478 0.8685 0.0
H1814 H 0.37589 0.56157 0.86485 0.0
H1815 H 0.37248 0.59454 0.87189 0.0
H1816 H 0.36063 0.54032 0.83546 0.0
H1817 H 0.35939 0.5433 0.9023 0.0
H1818 H 0.34594 0.55184 0.93252 0.0
H1819 H 0.29699 0.52009 0.92011 0.0
H1820 H 0.31006 0.51157 0.88968 0.0
H1821 H 0.3892 0.44452 0.83911 0.0
H1822 H 0.38512 0.47829 0.84216 0.0
H1823 H 0.32808 0.4701 0.85898 0.0
H1824 H 0.33246 0.43665 0.85686 0.0
H1825 H 0.34214 0.49273 0.88128 0.0
H1826 H 0.3422 0.4891 0.81502 0.0
H1827 H 0.35422 0.48084 0.78413 0.0
H1828 H 0.40302 0.51367 0.79398 0.0
H1829 H 0.39139 0.52193 0.82504 0.0
C1830 C 0.32662 0.58242 0.87314 0.0
C1831 C 0.34233 0.59394 0.87429 0.0
C1832 C 0.32867 0.56343 0.86921 0.0
C1833 C 0.34643 0.5557 0.86616 0.0
C1834 C 0.36207 0.56723 0.86708 0.0
C1835 C 0.36007 0.58608 0.87125 0.0
C1836 C 0.34887 0.53552 0.86239 0.0
C1837 C 0.35673 0.52986 0.84551 0.0
C1838 C 0.34344 0.52191 0.87533 0.0
C1839 C 0.33561 0.52697 0.89364 0.0
C1840 C 0.34569 0.53827 0.90595 0.0
C1841 C 0.33815 0.54308 0.92313 0.0
C1842 C 0.3206 0.53655 0.92821 0.0
C1843 C 0.31057 0.52516 0.91614 0.0
C1844 C 0.31804 0.52033 0.89893 0.0
C1845 C 0.37576 0.45003 0.84318 0.0
C1846 C 0.36119 0.43799 0.84784 0.0
C1847 C 0.37338 0.46934 0.84489 0.0
C1848 C 0.35622 0.47691 0.85079 0.0
C1849 C 0.3415 0.46476 0.85461 0.0
C1850 C 0.344 0.44559 0.85331 0.0
C1851 C 0.3537 0.49726 0.85412 0.0
C1852 C 0.34593 0.50304 0.87106 0.0
C1853 C 0.35897 0.51094 0.84108 0.0
C1854 C 0.36601 0.50597 0.82243 0.0
C1855 C 0.35556 0.49443 0.81066 0.0
C1856 C 0.36229 0.48977 0.79311 0.0
C1857 C 0.37939 0.49668 0.78712 0.0
C1858 C 0.38978 0.5083 0.79865 0.0
C1859 C 0.38312 0.51299 0.81622 0.0
H1860 H 0.38458 0.49306 0.77352 0.0
H1861 H 0.31479 0.54029 0.94152 0.0
H1862 H 0.45278 0.8612 0.40248 0.0
H1863 H 0.4813 0.87354 0.3892 0.0
H1864 H 0.4592 0.86523 0.33424 0.0
H1865 H 0.4305 0.85262 0.34752 0.0
H1866 H 0.49356 0.85045 0.33753 0.0
H1867 H 0.46639 0.90919 0.35062 0.0
H1868 H 0.4501 0.93298 0.36912 0.0
H1869 H 0.49479 0.93266 0.40876 0.0
H1870 H 0.51124 0.90867 0.39065 0.0
H1871 H 0.58273 0.88387 0.3074 0.0
H1872 H 0.54867 0.88233 0.31063 0.0
H1873 H 0.5543 0.88761 0.36986 0.0
H1874 H 0.58795 0.88939 0.36677 0.0
H1875 H 0.52552 0.90783 0.35796 0.0
H1876 H 0.54891 0.84507 0.34831 0.0
H1877 H 0.56508 0.82044 0.33077 0.0
H1878 H 0.52722 0.82812 0.28525 0.0
H1879 H 0.51096 0.85297 0.30246 0.0
C1880 C 0.45378 0.86233 0.38756 0.0
C1881 C 0.43934 0.8559 0.37607 0.0
C1882 C 0.47012 0.86948 0.37997 0.0
C1883 C 0.47241 0.87045 0.36069 0.0
C1884 C 0.45774 0.86468 0.34915 0.0
C1885 C 0.44129 0.85759 0.35677 0.0
C1886 C 0.49076 0.87597 0.35287 0.0
C1887 C 0.50036 0.86324 0.3416 0.0
C1888 C 0.49979 0.89252 0.35837 0.0
C1889 C 0.49001 0.90705 0.36929 0.0
C1890 C 0.47269 0.9141 0.36334 0.0
C1891 C 0.46344 0.92764 0.37376 0.0
C1892 C 0.47139 0.93432 0.39012 0.0
C1893 C 0.48864 0.92749 0.39608 0.0
C1894 C 0.49796 0.91394 0.38572 0.0
C1895 C 0.57665 0.88493 0.32107 0.0
C1896 C 0.58809 0.88661 0.33683 0.0
C1897 C 0.5572 0.88397 0.32291 0.0
C1898 C 0.54889 0.88467 0.34053 0.0
C1899 C 0.56031 0.88706 0.35613 0.0
C1900 C 0.57962 0.88797 0.35432 0.0
C1901 C 0.52849 0.88203 0.34317 0.0
C1902 C 0.51852 0.89528 0.35349 0.0
C1903 C 0.51914 0.86594 0.33687 0.0
C1904 C 0.5289 0.85103 0.32655 0.0
C1905 C 0.54414 0.8416 0.3345 0.0
C1906 C 0.5533 0.82759 0.32463 0.0
C1907 C 0.54723 0.82276 0.30688 0.0
C1908 C 0.53194 0.83191 0.29898 0.0
C1909 C 0.52275 0.84595 0.30878 0.0
H1910 H 0.55433 0.8119 0.29927 0.0
H1911 H 0.4642 0.94479 0.39816 0.0
H1912 H 0.62379 0.21418 0.55289 0.0
H1913 H 0.63805 0.19966 0.52592 0.0
H1914 H 0.68171 0.17714 0.56048 0.0
H1915 H 0.66755 0.19194 0.58769 0.0
H1916 H 0.69589 0.19316 0.53009 0.0
H1917 H 0.64773 0.14919 0.54182 0.0
H1918 H 0.61569 0.13861 0.54774 0.0
H1919 H 0.59799 0.16052 0.49527 0.0
H1920 H 0.62988 0.17147 0.48914 0.0
H1921 H 0.73542 0.13466 0.46216 0.0
H1922 H 0.71948 0.14635 0.48953 0.0
H1923 H 0.67669 0.17053 0.45503 0.0
H1924 H 0.6926 0.15865 0.42732 0.0
H1925 H 0.66196 0.15322 0.48545 0.0
H1926 H 0.70991 0.19768 0.47404 0.0
H1927 H 0.74192 0.20836 0.46812 0.0
H1928 H 0.75992 0.18558 0.52011 0.0
H1929 H 0.72806 0.17453 0.52624 0.0
C1930 C 0.63632 0.20598 0.55486 0.0
C1931 C 0.6445 0.20423 0.57252 0.0
C1932 C 0.64444 0.19759 0.53937 0.0
C1933 C 0.6609 0.18714 0.54111 0.0
C1934 C 0.66898 0.1851 0.55877 0.0
C1935 C 0.66082 0.19348 0.57434 0.0
C1936 C 0.67007 0.17918 0.52433 0.0
C1937 C 0.68856 0.18416 0.52052 0.0
C1938 C 0.66037 0.16788 0.51148 0.0
C1939 C 0.64118 0.1613 0.5151 0.0
C1940 C 0.63698 0.15189 0.53161 0.0
C1941 C 0.61885 0.1458 0.53499 0.0
C1942 C 0.6048 0.14894 0.52191 0.0
C1943 C 0.60887 0.15812 0.5054 0.0
C1944 C 0.62698 0.16425 0.50196 0.0
C1945 C 0.72261 0.14246 0.46028 0.0
C1946 C 0.71536 0.14579 0.44245 0.0
C1947 C 0.71353 0.1492 0.47602 0.0
C1948 C 0.697 0.15956 0.47439 0.0
C1949 C 0.68947 0.16263 0.45664 0.0
C1950 C 0.6986 0.15589 0.44081 0.0
C1951 C 0.68777 0.16717 0.49127 0.0
C1952 C 0.66929 0.16217 0.49508 0.0
C1953 C 0.69745 0.17846 0.50413 0.0
C1954 C 0.71663 0.18512 0.50051 0.0
C1955 C 0.72073 0.19481 0.48414 0.0
C1956 C 0.73884 0.20096 0.48076 0.0
C1957 C 0.75296 0.19761 0.49371 0.0
C1958 C 0.74898 0.18814 0.51009 0.0
C1959 C 0.73089 0.18195 0.51353 0.0
H1960 H 0.76697 0.20238 0.49107 0.0
H1961 H 0.59077 0.14421 0.52456 0.0
H1962 H 0.84724 0.15195 0.08469 0.0
H1963 H 0.85858 0.15695 0.05317 0.0
H1964 H 0.81427 0.12288 0.03166 0.0
H1965 H 0.80311 0.11751 0.06306 0.0
H1966 H 0.84548 0.11572 0.01336 0.0
H1967 H 0.8116 0.17052 0.03045 0.0
H1968 H 0.80342 0.19748 0.04989 0.0
H1969 H 0.85845 0.21941 0.04288 0.0
H1970 H 0.86705 0.19243 0.0236 0.0
H1971 H 0.84972 0.15135 0.91953 0.0
H1972 H 0.8403 0.14108 0.95057 0.0
H1973 H 0.88547 0.17221 0.97463 0.0
H1974 H 0.89485 0.18246 0.94398 0.0
H1975 H 0.85298 0.18037 0.99122 0.0
H1976 H 0.88646 0.12507 0.97358 0.0
H1977 H 0.89383 0.09814 0.95377 0.0
H1978 H 0.83838 0.07738 0.96112 0.0
H1979 H 0.8306 0.10433 0.98079 0.0
C1980 C 0.83998 0.14542 0.07328 0.0
C1981 C 0.82417 0.13444 0.07646 0.0
C1982 C 0.84644 0.14835 0.05522 0.0
C1983 C 0.83712 0.14052 0.03995 0.0
C1984 C 0.82169 0.1291 0.04316 0.0
C1985 C 0.81528 0.12611 0.06118 0.0
C1986 C 0.84309 0.14465 0.02062 0.0
C1987 C 0.84692 0.12986 1.00846 0.0
C1988 C 0.84516 0.16308 0.01419 0.0
C1989 C 0.84002 0.17936 0.02574 0.0
C1990 C 0.822 0.18102 0.03317 0.0
C1991 C 0.81728 0.19632 0.04414 0.0
C1992 C 0.83042 0.21013 0.04766 0.0
C1993 C 0.84829 0.20869 0.04017 0.0
C1994 C 0.8531 0.1934 0.02921 0.0
C1995 C 0.85784 0.15569 0.93142 0.0
C1996 C 0.87298 0.16781 0.92925 0.0
C1997 C 0.85243 0.14984 0.94916 0.0
C1998 C 0.86213 0.15595 0.96498 0.0
C1999 C 0.87767 0.16742 0.9627 0.0
C2000 C 0.88305 0.17323 0.94509 0.0
C2001 C 0.85563 0.15146 0.98403 0.0
C2002 C 0.85158 0.16621 0.99612 0.0
C2003 C 0.85325 0.13302 0.99031 0.0
C2004 C 0.85789 0.11682 0.97849 0.0
C2005 C 0.87579 0.11485 0.97084 0.0
C2006 C 0.88005 0.09956 0.95966 0.0
C2007 C 0.86656 0.08609 0.95614 0.0
C2008 C 0.8488 0.08785 0.96383 0.0
C2009 C 0.84447 0.10312 0.97501 0.0
H2010 H 0.86989 0.07426 0.94749 0.0
H2011 H 0.82674 0.22196 0.05616 0.0
H2012 H 0.83211 0.32913 0.58546 0.0
H2013 H 0.82921 0.33802 0.55292 0.0
H2014 H 0.88856 0.33151 0.54621 0.0
H2015 H 0.89149 0.32263 0.57891 0.0
H2016 H 0.8762 0.36315 0.53053 0.0
H2017 H 0.85759 0.29919 0.52971 0.0
H2018 H 0.83928 0.27172 0.53841 0.0
H2019 H 0.78913 0.29876 0.51998 0.0
H2020 H 0.80709 0.32656 0.51151 0.0
H2021 H 0.88313 0.36088 0.43344 0.0
H2022 H 0.88327 0.35465 0.4665 0.0
H2023 H 0.8235 0.36081 0.4679 0.0
H2024 H 0.8232 0.36677 0.43441 0.0
H2025 H 0.83423 0.33061 0.48667 0.0
H2026 H 0.85233 0.39409 0.4867 0.0
H2027 H 0.8703 0.4216 0.4774 0.0
H2028 H 0.92066 0.3959 0.49713 0.0
H2029 H 0.90303 0.36812 0.50633 0.0
C2030 C 0.84447 0.32914 0.57694 0.0
C2031 C 0.86195 0.32469 0.58462 0.0
C2032 C 0.84282 0.33434 0.55836 0.0
C2033 C 0.8586 0.33508 0.54697 0.0
C2034 C 0.87615 0.33091 0.55467 0.0
C2035 C 0.87782 0.32579 0.57334 0.0
C2036 C 0.85683 0.34068 0.52718 0.0
C2037 C 0.8672 0.35588 0.52089 0.0
C2038 C 0.84455 0.33164 0.51472 0.0
C2039 C 0.83368 0.31505 0.52015 0.0
C2040 C 0.84263 0.29937 0.5277 0.0
C2041 C 0.83232 0.28371 0.53255 0.0
C2042 C 0.81305 0.28348 0.52973 0.0
C2043 C 0.80406 0.29893 0.5221 0.0
C2044 C 0.8143 0.31466 0.51732 0.0
C2045 C 0.86997 0.36109 0.44072 0.0
C2046 C 0.85314 0.36437 0.43121 0.0
C2047 C 0.8701 0.3576 0.45973 0.0
C2048 C 0.85343 0.35747 0.46982 0.0
C2049 C 0.83656 0.3609 0.46044 0.0
C2050 C 0.83641 0.36439 0.44131 0.0
C2051 C 0.85376 0.35295 0.48997 0.0
C2052 C 0.84313 0.33797 0.49634 0.0
C2053 C 0.8657 0.36225 0.50255 0.0
C2054 C 0.87637 0.37895 0.49707 0.0
C2055 C 0.86726 0.39424 0.48893 0.0
C2056 C 0.87738 0.4099 0.4837 0.0
C2057 C 0.89662 0.41048 0.48664 0.0
C2058 C 0.90576 0.39542 0.49485 0.0
C2059 C 0.89571 0.37973 0.5001 0.0
H2060 H 0.90443 0.42261 0.48258 0.0
H2061 H 0.80509 0.27135 0.53349 0.0
H2062 H 0.63109 0.36991 0.94143 0.0
H2063 H 0.64708 0.37712 0.97054 0.0
H2064 H 0.69364 0.34304 0.9539 0.0
H2065 H 0.67796 0.33608 0.9246 0.0
H2066 H 0.67626 0.33314 0.98833 0.0
H2067 H 0.7013 0.38666 0.95791 0.0
H2068 H 0.69959 0.41559 0.93979 0.0
H2069 H 0.66535 0.44061 0.98167 0.0
H2070 H 0.66662 0.41173 0.99994 0.0
H2071 H 0.72643 0.34405 0.07158 0.0
H2072 H 0.7177 0.34297 0.03892 0.0
H2073 H 0.68026 0.38929 0.0471 0.0
H2074 H 0.68959 0.39093 0.07964 0.0
H2075 H 0.69483 0.39348 0.01558 0.0
H2076 H 0.66498 0.34157 0.04369 0.0
H2077 H 0.66042 0.31222 0.06057 0.0
H2078 H 0.69805 0.28437 0.02359 0.0
H2079 H 0.70284 0.31358 1.00649 0.0
C2080 C 0.64494 0.36434 0.94374 0.0
C2081 C 0.65319 0.35235 0.9307 0.0
C2082 C 0.65408 0.3685 0.96039 0.0
C2083 C 0.67154 0.36059 0.96441 0.0
C2084 C 0.6802 0.34933 0.95106 0.0
C2085 C 0.67122 0.34542 0.93427 0.0
C2086 C 0.67967 0.3623 0.98329 0.0
C2087 C 0.68073 0.34626 0.9942 0.0
C2088 C 0.68466 0.37955 0.99115 0.0
C2089 C 0.68392 0.39696 0.98022 0.0
C2090 C 0.69326 0.39827 0.96318 0.0
C2091 C 0.6924 0.41468 0.9529 0.0
C2092 C 0.68233 0.42992 0.95955 0.0
C2093 C 0.67313 0.42879 0.97653 0.0
C2094 C 0.67394 0.41241 0.98686 0.0
C2095 C 0.71648 0.35415 0.0664 0.0
C2096 C 0.70869 0.36756 0.07828 0.0
C2097 C 0.71134 0.3534 0.0477 0.0
C2098 C 0.69795 0.36576 0.04048 0.0
C2099 C 0.69058 0.37954 0.05222 0.0
C2100 C 0.69593 0.38047 0.07088 0.0
C2101 C 0.69147 0.36421 0.02082 0.0
C2102 C 0.69061 0.38027 1.00975 0.0
C2103 C 0.68615 0.34701 0.01288 0.0
C2104 C 0.68441 0.32979 0.02394 0.0
C2105 C 0.67247 0.32924 0.03932 0.0
C2106 C 0.66974 0.3126 0.04884 0.0
C2107 C 0.67887 0.29643 0.04309 0.0
C2108 C 0.69093 0.2969 0.02797 0.0
C2109 C 0.69365 0.31348 0.01835 0.0
H2110 H 0.67664 0.28352 0.05039 0.0
H2111 H 0.68169 0.44261 0.95157 0.0
H2112 H 0.90199 0.56478 0.34374 0.0
H2113 H 0.89982 0.53119 0.34644 0.0
H2114 H 0.88999 0.52682 0.28768 0.0
H2115 H 0.89196 0.56074 0.28485 0.0
H2116 H 0.86529 0.50629 0.30747 0.0
H2117 H 0.93153 0.51294 0.30624 0.0
H2118 H 0.96186 0.52595 0.3155 0.0
H2119 H 0.95366 0.5067 0.3711 0.0
H2120 H 0.92315 0.49379 0.36224 0.0
H2121 H 0.8677 0.40798 0.3119 0.0
H2122 H 0.87592 0.43978 0.30369 0.0
H2123 H 0.88824 0.45162 0.36095 0.0
H2124 H 0.88023 0.41975 0.36928 0.0
H2125 H 0.91334 0.46767 0.33876 0.0
H2126 H 0.84655 0.46482 0.34185 0.0
H2127 H 0.81502 0.45356 0.33441 0.0
H2128 H 0.8235 0.4664 0.27703 0.0
H2129 H 0.85515 0.4777 0.28414 0.0
C2130 C 0.89952 0.55673 0.3313 0.0
C2131 C 0.89716 0.5655 0.31405 0.0
C2132 C 0.89838 0.53746 0.33288 0.0
C2133 C 0.89495 0.5264 0.31724 0.0
C2134 C 0.89273 0.53506 0.29993 0.0
C2135 C 0.89393 0.55443 0.29832 0.0
C2136 C 0.89285 0.50595 0.31932 0.0
C2137 C 0.87598 0.49776 0.31392 0.0
C2138 C 0.90655 0.49488 0.32824 0.0
C2139 C 0.92498 0.5025 0.33359 0.0
C2140 C 0.93613 0.51159 0.32047 0.0
C2141 C 0.95337 0.51893 0.32565 0.0
C2142 C 0.95967 0.51718 0.34388 0.0
C2143 C 0.94876 0.50804 0.35698 0.0
C2144 C 0.9315 0.50069 0.35188 0.0
C2145 C 0.87244 0.41724 0.32274 0.0
C2146 C 0.87323 0.41128 0.34129 0.0
C2147 C 0.877 0.43549 0.31802 0.0
C2148 C 0.8824 0.44822 0.33173 0.0
C2149 C 0.88405 0.44208 0.35012 0.0
C2150 C 0.87947 0.42383 0.35487 0.0
C2151 C 0.88572 0.46807 0.32707 0.0
C2152 C 0.90278 0.47614 0.33203 0.0
C2153 C 0.87212 0.47907 0.3179 0.0
C2154 C 0.85329 0.4719 0.3135 0.0
C2155 C 0.84176 0.46507 0.32762 0.0
C2156 C 0.82385 0.45875 0.32347 0.0
C2157 C 0.81727 0.45922 0.30525 0.0
C2158 C 0.82862 0.46602 0.29114 0.0
C2159 C 0.84653 0.47242 0.29522 0.0
H2160 H 0.80336 0.45442 0.30209 0.0
H2161 H 0.97302 0.52288 0.34786 0.0
H2162 H 0.41482 0.32048 0.86967 0.0
H2163 H 0.4471 0.31383 0.8781 0.0
H2164 H 0.45776 0.37243 0.88348 0.0
H2165 H 0.42537 0.37923 0.87484 0.0
H2166 H 0.48388 0.35588 0.86248 0.0
H2167 H 0.45691 0.34394 0.92163 0.0
H2168 H 0.43485 0.33011 0.9437 0.0
H2169 H 0.45375 0.27553 0.92864 0.0
H2170 H 0.47576 0.28903 0.90628 0.0
H2171 H 0.57663 0.34195 0.89414 0.0
H2172 H 0.54377 0.35101 0.89303 0.0
H2173 H 0.52812 0.29353 0.88793 0.0
H2174 H 0.56095 0.28433 0.88934 0.0
H2175 H 0.50464 0.31121 0.9106 0.0
H2176 H 0.52958 0.32261 0.85006 0.0
H2177 H 0.55142 0.3359 0.82743 0.0
H2178 H 0.53593 0.39093 0.84454 0.0
H2179 H 0.51417 0.37795 0.86747 0.0
C2180 C 0.4239 0.33199 0.87296 0.0
C2181 C 0.41742 0.35042 0.87156 0.0
C2182 C 0.44241 0.32814 0.87785 0.0
C2183 C 0.45494 0.3426 0.88153 0.0
C2184 C 0.44839 0.36101 0.88071 0.0
C2185 C 0.42981 0.36488 0.87589 0.0
C2186 C 0.47509 0.33846 0.885 0.0
C2187 C 0.48843 0.3464 0.87326 0.0
C2188 C 0.48108 0.32568 0.8987 0.0
C2189 C 0.46789 0.3175 0.91217 0.0
C2190 C 0.45627 0.32899 0.92292 0.0
C2191 C 0.44379 0.3212 0.9355 0.0
C2192 C 0.44287 0.30195 0.93754 0.0
C2193 C 0.45447 0.29044 0.92703 0.0
C2194 C 0.46696 0.29815 0.91442 0.0
C2195 C 0.56621 0.3312 0.89291 0.0
C2196 C 0.57151 0.31239 0.89172 0.0
C2197 C 0.54739 0.33642 0.89219 0.0
C2198 C 0.53339 0.323 0.8901 0.0
C2199 C 0.5386 0.30418 0.8895 0.0
C2200 C 0.55743 0.29894 0.89027 0.0
C2201 C 0.51339 0.32856 0.88803 0.0
C2202 C 0.50009 0.32084 0.89996 0.0
C2203 C 0.50739 0.34147 0.87444 0.0
C2204 C 0.52041 0.34931 0.86062 0.0
C2205 C 0.53094 0.33755 0.8491 0.0
C2206 C 0.54328 0.34502 0.8362 0.0
C2207 C 0.5451 0.36425 0.83459 0.0
C2208 C 0.53453 0.37604 0.84583 0.0
C2209 C 0.52219 0.36863 0.85877 0.0
H2210 H 0.55466 0.37001 0.82459 0.0
H2211 H 0.4332 0.29595 0.94729 0.0
H2212 H 0.69155 0.07374 0.40483 0.0
H2213 H 0.68468 0.04108 0.39985 0.0
H2214 H 0.73952 0.03265 0.37697 0.0
H2215 H 0.74642 0.06566 0.38166 0.0
H2216 H 0.71433 0.01773 0.35509 0.0
H2217 H 0.72734 0.01358 0.41925 0.0
H2218 H 0.7259 0.02218 0.45225 0.0
H2219 H 0.66717 1.0112 0.45278 0.0
H2220 H 0.66819 1.00279 0.4197 0.0
H2221 H 0.67899 0.91667 0.36986 0.0
H2222 H 0.69607 0.94354 0.38224 0.0
H2223 H 0.66174 0.98026 0.3495 0.0
H2224 H 0.64464 0.95386 0.33734 0.0
H2225 H 0.68426 0.97669 0.40123 0.0
H2226 H 0.68987 1.011 0.32888 0.0
H2227 H 0.69293 1.00141 0.29623 0.0
H2228 H 0.71874 0.95029 0.31316 0.0
H2229 H 0.71587 0.95957 0.34592 0.0
C2230 C 0.7023 0.06494 0.39896 0.0
C2231 C 0.71955 0.07238 0.39362 0.0
C2232 C 0.69837 0.04617 0.39623 0.0
C2233 C 0.71162 0.03426 0.3882 0.0
C2234 C 0.72907 0.04152 0.38325 0.0
C2235 C 0.73304 0.06038 0.38601 0.0
C2236 C 0.70654 0.01471 0.38372 0.0
C2237 C 0.70797 1.00871 0.36527 0.0
C2238 C 0.69855 1.00267 0.397 0.0
C2239 C 0.69784 1.00763 0.41694 0.0
C2240 C 0.71409 0.01311 0.42636 0.0
C2241 C 0.71335 0.01794 0.44509 0.0
C2242 C 0.69645 0.01726 0.4546 0.0
C2243 C 0.68025 1.01172 0.4454 0.0
C2244 C 0.68092 1.00688 0.42666 0.0
C2245 C 0.6749 0.9305 0.36556 0.0
C2246 C 0.66049 0.93307 0.35253 0.0
C2247 C 0.68471 0.94582 0.37259 0.0
C2248 C 0.68038 0.96387 0.36653 0.0
C2249 C 0.66552 0.96645 0.35414 0.0
C2250 C 0.6557 0.95128 0.34726 0.0
C2251 C 0.69141 0.98021 0.37257 0.0
C2252 C 0.691 0.98561 0.39122 0.0
C2253 C 0.70063 0.99159 0.35956 0.0
C2254 C 0.70254 0.98595 0.33987 0.0
C2255 C 0.69625 0.99774 0.32564 0.0
C2256 C 0.6979 0.99233 0.30712 0.0
C2257 C 0.70592 0.9752 0.30264 0.0
C2258 C 0.71239 0.96348 0.31667 0.0
C2259 C 0.71071 0.96879 0.33522 0.0
H2260 H 0.70714 0.97102 0.2883 0.0
H2261 H 0.6959 0.02101 0.4691 0.0
H2262 H 0.07946 0.13662 0.8458 0.0
H2263 H 0.04792 0.14665 0.85362 0.0
H2264 H 0.04309 0.17407 0.80074 0.0
H2265 H 0.07454 0.16359 0.79264 0.0
H2266 H 0.03435 0.17947 0.85896 0.0
H2267 H 0.99757 0.17728 0.78735 0.0
H2268 H 0.9985 0.15913 0.75839 0.0
H2269 H 0.02085 0.1123 0.78789 0.0
H2270 H 0.01981 0.13007 0.81706 0.0
H2271 H 0.93476 0.21607 0.83255 0.0
H2272 H 0.96678 0.20693 0.82543 0.0
H2273 H 0.96909 0.17449 0.87548 0.0
H2274 H 0.937 0.18367 0.88274 0.0
H2275 H 0.97887 0.17171 0.8187 0.0
H2276 H 0.01514 0.17278 0.89014 0.0
H2277 H 1.01366 0.1901 0.91959 0.0
H2278 H 0.99165 0.23768 0.89106 0.0
H2279 H 0.99323 0.22075 0.86143 0.0
C2280 C 0.0716 0.14457 0.83571 0.0
C2281 C 0.07953 0.14924 0.81855 0.0
C2282 C 0.05356 0.15039 0.84025 0.0
C2283 C 0.04297 0.1611 0.8278 0.0
C2284 C 0.05077 0.16557 0.81051 0.0
C2285 C 0.06879 0.15957 0.80587 0.0
C2286 C 0.02412 0.16809 0.83327 0.0
C2287 C 0.02219 0.17751 0.85024 0.0
C2288 C 1.00822 0.16596 0.8218 0.0
C2289 C 1.00883 0.15511 0.80435 0.0
C2290 C 1.00264 0.1631 0.78766 0.0
C2291 C 1.00319 0.15287 0.77121 0.0
C2292 C 1.0098 0.1346 0.77129 0.0
C2293 C 0.01581 0.12649 0.78783 0.0
C2294 C 0.01527 0.13664 0.80432 0.0
C2295 C 0.94213 0.20718 0.84216 0.0
C2296 C 0.93321 0.20052 0.85813 0.0
C2297 C 0.96042 0.20189 0.83802 0.0
C2298 C 0.97033 0.1899 0.8498 0.0
C2299 C 0.96179 0.18384 0.8662 0.0
C2300 C 0.94343 0.18914 0.87036 0.0
C2301 C 0.98916 0.18301 0.84434 0.0
C2302 C 0.99106 0.17362 0.82739 0.0
C2303 C 1.00498 0.18502 0.85589 0.0
C2304 C 1.00411 0.19541 0.8736 0.0
C2305 C 1.01003 0.18696 0.89015 0.0
C2306 C 1.00917 0.19671 0.90688 0.0
C2307 C 1.00251 0.21496 0.90721 0.0
C2308 C 0.99674 0.22352 0.8908 0.0
C2309 C 0.99758 0.21384 0.87404 0.0
H2310 H 1.00185 0.22248 0.92017 0.0
H2311 H 1.01022 0.12671 0.75854 0.0
H2312 H 0.77861 0.05776 0.14248 0.0
H2313 H 0.78839 0.02609 0.15021 0.0
H2314 H 0.81258 0.01986 0.09599 0.0
H2315 H 0.80268 0.05136 0.08807 0.0
H2316 H 0.79649 0.9874 0.10758 0.0
H2317 H 0.83956 0.03253 0.13197 0.0
H2318 H 0.84838 0.06022 0.15002 0.0
H2319 H 0.8274 0.03499 0.19953 0.0
H2320 H 0.81822 1.00724 0.18171 0.0
H2321 H 0.86002 0.91278 0.13135 0.0
H2322 H 0.84459 0.941 0.11954 0.0
H2323 H 0.82593 0.95408 0.17482 0.0
H2324 H 0.84191 0.92669 0.18658 0.0
H2325 H 0.83942 0.98323 0.16134 0.0
H2326 H 0.79629 0.93793 0.13762 0.0
H2327 H 0.78681 0.9103 0.11982 0.0
H2328 H 0.80694 0.93523 0.06982 0.0
H2329 H 0.81675 0.96293 0.08736 0.0
C2330 C 0.78565 0.04953 0.13205 0.0
C2331 C 0.79 0.05722 0.11471 0.0
C2332 C 0.79134 0.03144 0.13652 0.0
C2333 C 0.80154 0.02067 0.12379 0.0
C2334 C 0.80481 0.02788 0.10607 0.0
C2335 C 0.79916 0.04596 0.10159 0.0
C2336 C 0.81008 1.0026 0.12939 0.0
C2337 C 0.80598 0.98647 0.11926 0.0
C2338 C 0.82234 1.00131 0.14472 0.0
C2339 C 0.82805 0.01789 0.15548 0.0
C2340 C 0.83672 0.03294 0.14668 0.0
C2341 C 0.8418 0.04864 0.15687 0.0
C2342 C 0.83841 0.04938 0.1759 0.0
C2343 C 0.82999 0.0344 0.18478 0.0
C2344 C 0.82487 0.01868 0.17465 0.0
C2345 C 0.85243 0.92163 0.14086 0.0
C2346 C 0.8523 0.91762 0.15989 0.0
C2347 C 0.84354 0.93773 0.13412 0.0
C2348 C 0.83398 0.9498 0.14626 0.0
C2349 C 0.83332 0.94524 0.16514 0.0
C2350 C 0.84245 0.9295 0.17186 0.0
C2351 C 0.82551 0.96772 0.13985 0.0
C2352 C 0.8298 0.98398 0.14974 0.0
C2353 C 0.81334 0.96903 0.1244 0.0
C2354 C 0.80742 0.95242 0.11383 0.0
C2355 C 0.79882 0.93746 0.12285 0.0
C2356 C 0.79337 0.9218 0.1128 0.0
C2357 C 0.79632 0.92099 0.09371 0.0
C2358 C 0.80469 0.93587 0.08461 0.0
C2359 C 0.81018 0.95156 0.09459 0.0
H2360 H 0.79209 0.90885 0.08596 0.0
H2361 H 0.84234 0.06155 0.18376 0.0
H2362 H 0.06093 0.4015 0.74451 0.0
H2363 H 0.02794 0.39657 0.73685 0.0
H2364 H 0.04374 0.37449 0.68361 0.0
H2365 H 0.07638 0.37967 0.69095 0.0
H2366 H 0.01567 0.39732 0.67929 0.0
H2367 H 0.0297 0.34651 0.72073 0.0
H2368 H 0.04018 0.33233 0.75005 0.0
H2369 H 0.99714 0.36155 0.77941 0.0
H2370 H 0.98655 0.37608 0.75027 0.0
H2371 H 0.93671 0.34691 0.64984 0.0
H2372 H 0.96732 0.35694 0.66059 0.0
H2373 H 0.9426 0.37933 0.7102 0.0
H2374 H 0.91184 0.36913 0.69961 0.0
H2375 H 0.97364 0.35958 0.71831 0.0
H2376 H 0.95791 0.40812 0.67597 0.0
H2377 H 0.9474 0.42169 0.64639 0.0
H2378 H 0.99373 0.39636 0.61845 0.0
H2379 H 1.00439 0.38243 0.64783 0.0
C2380 C 0.05734 0.39557 0.7312 0.0
C2381 C 0.07136 0.391 0.71837 0.0
C2382 C 0.03846 0.39269 0.72684 0.0
C2383 C 0.03326 0.38503 0.70965 0.0
C2384 C 0.04729 0.38048 0.69691 0.0
C2385 C 0.06603 0.38342 0.70119 0.0
C2386 C 1.01332 0.38175 0.70461 0.0
C2387 C 1.00655 0.38893 0.68778 0.0
C2388 C 1.00113 0.37127 0.71587 0.0
C2389 C 1.00748 0.36254 0.73337 0.0
C2390 C 0.02257 0.35002 0.73346 0.0
C2391 C 0.02851 0.3419 0.75004 0.0
C2392 C 0.01937 0.34609 0.76659 0.0
C2393 C 1.00423 0.35835 0.76659 0.0
C2394 C 0.99825 0.36653 0.75005 0.0
C2395 C 0.9377 0.35411 0.66298 0.0
C2396 C 0.92172 0.35724 0.67381 0.0
C2397 C 0.95527 0.3599 0.66909 0.0
C2398 C 0.95733 0.36907 0.68616 0.0
C2399 C 0.94141 0.37231 0.69698 0.0
C2400 C 0.92379 0.36655 0.69085 0.0
C2401 C 0.97618 0.3748 0.6928 0.0
C2402 C 0.98271 0.36812 0.70992 0.0
C2403 C 0.9882 0.38569 0.68178 0.0
C2404 C 0.98187 0.39411 0.66409 0.0
C2405 C 0.96579 0.40534 0.6635 0.0
C2406 C 0.95981 0.41311 0.64677 0.0
C2407 C 0.96987 0.40986 0.63055 0.0
C2408 C 0.98595 0.39886 0.63103 0.0
C2409 C 0.99198 0.39104 0.64772 0.0
H2410 H 0.96522 0.41589 0.61761 0.0
H2411 H 0.02399 0.33978 0.77941 0.0
H2412 H 0.68966 0.42562 0.17506 0.0
H2413 H 0.6831 0.45689 0.18643 0.0
H2414 H 0.65216 0.46887 0.13648 0.0
H2415 H 0.65955 0.4379 0.12468 0.0
H2416 H 0.67289 0.49636 0.14282 0.0
H2417 H 0.63151 0.46215 0.18166 0.0
H2418 H 0.62219 0.43792 0.20381 0.0
H2419 H 0.66035 0.45969 0.24413 0.0
H2420 H 0.67007 0.48393 0.22213 0.0
H2421 H 0.627 0.57832 0.17603 0.0
H2422 H 0.63461 0.54701 0.1652 0.0
H2423 H 0.67592 0.54167 0.20833 0.0
H2424 H 0.66855 0.57315 0.21913 0.0
H2425 H 0.6506 0.51131 0.20604 0.0
H2426 H 0.69061 0.5465 0.16613 0.0
H2427 H 0.698 0.57104 0.1436 0.0
H2428 H 0.65948 0.54739 0.1047 0.0
H2429 H 0.65166 0.52284 0.12711 0.0
C2430 C 0.68118 0.4348 0.16663 0.0
C2431 C 0.67508 0.42922 0.14897 0.0
C2432 C 0.67738 0.45274 0.17318 0.0
C2433 C 0.66694 0.46537 0.16244 0.0
C2434 C 0.66031 0.45953 0.14506 0.0
C2435 C 0.66443 0.44174 0.13835 0.0
C2436 C 0.66376 0.48491 0.16882 0.0
C2437 C 0.66773 0.49953 0.15657 0.0
C2438 C 0.65746 0.48929 0.18691 0.0
C2439 C 0.65165 0.47474 0.20018 0.0
C2440 C 0.63801 0.46169 0.1952 0.0
C2441 C 0.63264 0.44797 0.20774 0.0
C2442 C 0.64071 0.44723 0.22535 0.0
C2443 C 0.65413 0.46026 0.23048 0.0
C2444 C 0.65956 0.474 0.21799 0.0
C2445 C 0.63789 0.5706 0.18308 0.0
C2446 C 0.64719 0.57828 0.19843 0.0
C2447 C 0.64222 0.55269 0.17686 0.0
C2448 C 0.65582 0.54197 0.18596 0.0
C2449 C 0.66536 0.54968 0.20112 0.0
C2450 C 0.66122 0.56773 0.20719 0.0
C2451 C 0.65958 0.52252 0.17999 0.0
C2452 C 0.65574 0.508 0.19231 0.0
C2453 C 0.6657 0.51821 0.16189 0.0
C2454 C 0.67042 0.53293 0.14837 0.0
C2455 C 0.6836 0.54662 0.15284 0.0
C2456 C 0.68789 0.56051 0.14007 0.0
C2457 C 0.67918 0.5608 0.12275 0.0
C2458 C 0.6662 0.54716 0.11813 0.0
C2459 C 0.66184 0.53324 0.13085 0.0
H2460 H 0.68252 0.57157 0.11289 0.0
H2461 H 0.63654 0.4366 0.23503 0.0
H2462 H 0.41478 0.19181 0.64363 0.0
H2463 H 0.44463 0.20569 0.63454 0.0
H2464 H 0.47343 0.15595 0.6518 0.0
H2465 H 0.44398 0.14217 0.6609 0.0
H2466 H 0.4885 0.18611 0.66744 0.0
H2467 H 0.46864 0.1676 0.60609 0.0
H2468 H 0.44743 0.16717 0.57918 0.0
H2469 H 0.45255 0.22626 0.5737 0.0
H2470 H 0.47362 0.22706 0.60075 0.0
H2471 H 0.57819 0.18599 0.63259 0.0
H2472 H 0.54511 0.18009 0.63618 0.0
H2473 H 0.5327 0.23716 0.62304 0.0
H2474 H 0.56626 0.24334 0.61943 0.0
H2475 H 0.50774 0.20953 0.60587 0.0
H2476 H 0.53032 0.22732 0.66546 0.0
H2477 H 0.55208 0.22723 0.69193 0.0
H2478 H 0.5417 0.16928 0.70072 0.0
H2479 H 0.5201 0.16895 0.67411 0.0
C2480 C 0.42745 0.18371 0.6451 0.0
C2481 C 0.42698 0.16591 0.65311 0.0
C2482 C 0.44451 0.19168 0.63994 0.0
C2483 C 0.46135 0.18193 0.64262 0.0
C2484 C 0.46071 0.16384 0.64976 0.0
C2485 C 0.44378 0.15594 0.65491 0.0
C2486 C 0.47985 0.19066 0.63922 0.0
C2487 C 0.49268 0.19115 0.65393 0.0
C2488 C 0.48518 0.1979 0.6218 0.0
C2489 C 0.4725 0.19742 0.60559 0.0
C2490 C 0.4651 0.18053 0.59926 0.0
C2491 C 0.45314 0.18021 0.58396 0.0
C2492 C 0.44859 0.19669 0.57478 0.0
C2493 C 0.45605 0.21351 0.58085 0.0
C2494 C 0.46801 0.2139 0.59616 0.0
C2495 C 0.56853 0.19736 0.63032 0.0
C2496 C 0.57498 0.21522 0.62585 0.0
C2497 C 0.54955 0.19392 0.6324 0.0
C2498 C 0.53642 0.20819 0.63006 0.0
C2499 C 0.54262 0.22594 0.62493 0.0
C2500 C 0.56178 0.22946 0.62293 0.0
C2501 C 0.51644 0.20435 0.63394 0.0
C2502 C 0.50338 0.2048 0.61942 0.0
C2503 C 0.5108 0.19795 0.65156 0.0
C2504 C 0.52367 0.19809 0.6677 0.0
C2505 C 0.53278 0.21453 0.67295 0.0
C2506 C 0.54507 0.21455 0.688 0.0
C2507 C 0.54829 0.19825 0.69799 0.0
C2508 C 0.5392 0.1819 0.69297 0.0
C2509 C 0.52691 0.18179 0.67792 0.0
H2510 H 0.55782 0.1983 0.70963 0.0
H2511 H 0.43934 0.19641 0.56292 0.0
H2512 H 0.37325 0.86105 0.44027 0.0
H2513 H 0.37021 0.86623 0.47333 0.0
H2514 H 0.3941 0.81231 0.48421 0.0
H2515 H 0.3971 0.80685 0.45065 0.0
H2516 H 0.36323 0.81948 0.50621 0.0
H2517 H 0.4199 0.85012 0.49245 0.0
H2518 H 0.44109 0.87048 0.4751 0.0
H2519 H 0.40602 0.91743 0.48695 0.0
H2520 H 0.38445 0.89731 0.50414 0.0
H2521 H 0.35932 0.84921 0.60211 0.0
H2522 H 0.37229 0.83738 0.57283 0.0
H2523 H 0.35285 0.88662 0.54477 0.0
H2524 H 0.34005 0.89842 0.57365 0.0
H2525 H 0.38761 0.87757 0.53387 0.0
H2526 H 0.32875 0.84573 0.54281 0.0
H2527 H 0.30707 0.8254 0.55964 0.0
H2528 H 0.3467 0.78064 0.55687 0.0
H2529 H 0.36871 0.80081 0.54021 0.0
C2530 C 0.37796 0.85022 0.44958 0.0
C2531 C 0.38551 0.83352 0.4427 0.0
C2532 C 0.37627 0.85327 0.46858 0.0
C2533 C 0.38216 0.8398 0.48136 0.0
C2534 C 0.38954 0.82297 0.47464 0.0
C2535 C 0.39131 0.81989 0.45546 0.0
C2536 C 0.38021 0.84358 0.50162 0.0
C2537 C 0.36895 0.83195 0.5124 0.0
C2538 C 0.38749 0.85994 0.50973 0.0
C2539 C 0.4005 0.87217 0.49953 0.0
C2540 C 0.41664 0.86477 0.49127 0.0
C2541 C 0.42873 0.87627 0.48147 0.0
C2542 C 0.4249 0.89523 0.4799 0.0
C2543 C 0.40898 0.90274 0.48817 0.0
C2544 C 0.39683 0.89129 0.49798 0.0
C2545 C 0.35802 0.85757 0.58972 0.0
C2546 C 0.34857 0.87474 0.59024 0.0
C2547 C 0.36534 0.85075 0.57297 0.0
C2548 C 0.36343 0.86103 0.55649 0.0
C2549 C 0.35454 0.8784 0.55722 0.0
C2550 C 0.34715 0.88511 0.5738 0.0
C2551 C 0.37012 0.85383 0.53826 0.0
C2552 C 0.38227 0.86487 0.52784 0.0
C2553 C 0.36368 0.83694 0.53053 0.0
C2554 C 0.35046 0.82484 0.5405 0.0
C2555 C 0.33289 0.8316 0.54594 0.0
C2556 C 0.32054 0.8201 0.55541 0.0
C2557 C 0.32553 0.80176 0.55938 0.0
C2558 C 0.34287 0.79487 0.55382 0.0
C2559 C 0.35529 0.80632 0.54437 0.0
H2560 H 0.31595 0.79288 0.56671 0.0
H2561 H 0.43427 0.90412 0.4723 0.0
H2562 H 0.21117 0.84733 0.10297 0.0
H2563 H 0.21738 0.85864 0.07165 0.0
H2564 H 0.15842 0.86545 0.06219 0.0
H2565 H 0.15207 0.85427 0.09352 0.0
H2566 H 0.17586 0.84578 0.03425 0.0
H2567 H 0.18511 0.90279 0.06739 0.0
H2568 H 0.19875 0.92303 0.09135 0.0
H2569 H 0.2534 0.91299 0.0694 0.0
H2570 H 0.24011 0.89246 0.04545 0.0
H2571 H 0.17555 0.89291 0.94955 0.0
H2572 H 0.17204 0.8857 0.98226 0.0
H2573 H 0.23172 0.88186 0.98823 0.0
H2574 H 0.23541 0.88928 0.95523 0.0
H2575 H 0.21547 0.89958 0.01806 0.0
H2576 H 0.20684 0.84296 0.98502 0.0
H2577 H 0.19381 0.82229 0.9611 0.0
H2578 H 0.1389 0.8307 0.98308 0.0
H2579 H 0.15157 0.85166 1.00698 0.0
C2580 C 0.19951 0.85146 0.09432 0.0
C2581 C 0.18111 0.84986 0.10079 0.0
C2582 C 0.20311 0.85797 0.07641 0.0
C2583 C 0.18838 0.86293 0.06454 0.0
C2584 C 0.17001 0.8617 0.07108 0.0
C2585 C 0.16641 0.85538 0.08905 0.0
C2586 C 0.19203 0.86846 0.045 0.0
C2587 C 0.1843 0.85771 0.03073 0.0
C2588 C 0.2036 0.88362 0.04036 0.0
C2589 C 0.21163 0.89592 0.05476 0.0
C2590 C 0.20006 0.90475 0.06778 0.0
C2591 C 0.20772 0.91631 0.08133 0.0
C2592 C 0.22694 0.91925 0.08193 0.0
C2593 C 0.23852 0.91067 0.06894 0.0
C2594 C 0.23093 0.89909 0.05536 0.0
C2595 C 0.188 0.89066 0.95776 0.0
C2596 C 0.20578 0.89154 0.94965 0.0
C2597 C 0.18594 0.88647 0.97652 0.0
C2598 C 0.20158 0.88292 0.9877 0.0
C2599 C 0.21943 0.88447 0.97987 0.0
C2600 C 0.22152 0.88868 0.961 0.0
C2601 C 0.19907 0.87705 1.00733 0.0
C2602 C 0.20705 0.88765 0.0216 0.0
C2603 C 0.18783 0.86164 0.01202 0.0
C2604 C 0.18014 0.84902 0.99768 0.0
C2605 C 0.19196 0.84053 0.98466 0.0
C2606 C 0.18464 0.82874 0.97112 0.0
C2607 C 0.16553 0.82522 0.97054 0.0
C2608 C 0.1537 0.83346 0.98353 0.0
C2609 C 0.16094 0.84528 0.99709 0.0
H2610 H 0.15989 0.81608 0.96005 0.0
H2611 H 0.23284 0.92821 0.09243 0.0
H2612 H 0.22222 0.70061 0.58857 0.0
H2613 H 0.20999 0.7077 0.5578 0.0
H2614 H 0.18418 0.65384 0.55545 0.0
H2615 H 0.19647 0.64663 0.58632 0.0
H2616 H 0.19961 0.66344 0.5222 0.0
H2617 H 0.15926 0.69235 0.56728 0.0
H2618 H 0.15249 0.71258 0.59401 0.0
H2619 H 0.17339 0.75962 0.5643 0.0
H2620 H 0.18065 0.7396 0.53753 0.0
H2621 H 0.13589 0.67852 0.44996 0.0
H2622 H 0.14911 0.67251 0.48053 0.0
H2623 H 0.17047 0.72832 0.48252 0.0
H2624 H 0.15684 0.73458 0.45195 0.0
H2625 H 0.1583 0.71852 0.51576 0.0
H2626 H 0.19877 0.69115 0.4711 0.0
H2627 H 0.20741 0.67179 0.44428 0.0
H2628 H 0.18836 0.62314 0.47263 0.0
H2629 H 0.17936 0.64226 0.49955 0.0
C2630 C 0.21406 0.6902 0.58149 0.0
C2631 C 0.21015 0.67314 0.59006 0.0
C2632 C 0.20702 0.6943 0.56388 0.0
C2633 C 0.19582 0.68146 0.55442 0.0
C2634 C 0.19268 0.66403 0.56251 0.0
C2635 C 0.19974 0.65991 0.58017 0.0
C2636 C 0.18688 0.68646 0.53642 0.0
C2637 C 0.19039 0.67534 0.52085 0.0
C2638 C 0.1753 0.70234 0.53447 0.0
C2639 C 0.17065 0.71444 0.55046 0.0
C2640 C 0.16253 0.70698 0.5665 0.0
C2641 C 0.15861 0.71841 0.58166 0.0
C2642 C 0.16256 0.73736 0.58088 0.0
C2643 C 0.17038 0.74493 0.5649 0.0
C2644 C 0.1744 0.73355 0.54973 0.0
C2645 C 0.1432 0.68963 0.45697 0.0
C2646 C 0.14539 0.70701 0.44843 0.0
C2647 C 0.15089 0.68611 0.47443 0.0
C2648 C 0.16122 0.69979 0.4837 0.0
C2649 C 0.16268 0.71748 0.47562 0.0
C2650 C 0.15483 0.72107 0.45815 0.0
C2651 C 0.17087 0.69538 0.50153 0.0
C2652 C 0.16753 0.70662 0.51707 0.0
C2653 C 0.1828 0.67973 0.50341 0.0
C2654 C 0.18823 0.66817 0.48728 0.0
C2655 C 0.19629 0.67634 0.47157 0.0
C2656 C 0.20128 0.66541 0.45635 0.0
C2657 C 0.19839 0.64625 0.45673 0.0
C2658 C 0.19056 0.63798 0.47235 0.0
C2659 C 0.18553 0.64886 0.4876 0.0
H2660 H 0.20226 0.63781 0.44494 0.0
H2661 H 0.15954 0.74618 0.59263 0.0
H2662 H 0.40362 0.69122 0.08256 0.0
H2663 H 0.40003 0.68511 0.04926 0.0
H2664 H 0.34322 0.70463 0.05162 0.0
H2665 H 0.34667 0.71087 0.08461 0.0
H2666 H 0.34663 0.66989 0.0355 0.0
H2667 H 0.37576 0.73018 0.03092 0.0
H2668 H 0.40082 0.75283 0.0364 0.0
H2669 H 0.43972 0.71733 1.00821 0.0
H2670 H 0.41493 0.69434 1.00278 0.0
H2671 H 0.31403 0.67673 0.94563 0.0
H2672 H 0.32514 0.68419 0.97655 0.0
H2673 H 0.3809 0.66809 0.96101 0.0
H2674 H 0.3698 0.66105 0.92944 0.0
H2675 H 0.38184 0.69794 0.98368 0.0
H2676 H 0.35345 0.63859 0.98634 0.0
H2677 H 0.32926 0.61501 0.98094 0.0
H2678 H 0.29043 0.64678 0.0133 0.0
H2679 H 0.31431 0.67069 0.01868 0.0
C2680 C 0.39046 0.69448 0.07592 0.0
C2681 C 0.37542 0.70148 0.08635 0.0
C2682 C 0.38844 0.69099 0.05687 0.0
C2683 C 0.37133 0.69434 0.04792 0.0
C2684 C 0.35653 0.70184 0.0582 0.0
C2685 C 0.35857 0.70546 0.07712 0.0
C2686 C 0.36823 0.68908 0.02816 0.0
C2687 C 0.35423 0.67616 0.02417 0.0
C2688 C 0.37867 0.69663 0.01338 0.0
C2689 C 0.39355 0.71044 0.01664 0.0
C2690 C 0.3897 0.72712 0.02605 0.0
C2691 C 0.40384 0.74004 0.02911 0.0
C2692 C 0.42187 0.73649 0.02271 0.0
C2693 C 0.42577 0.72004 0.01319 0.0
C2694 C 0.41167 0.70707 1.01011 0.0
C2695 C 0.3287 0.67481 0.94868 0.0
C2696 C 0.34098 0.66804 0.9351 0.0
C2697 C 0.33504 0.67905 0.96646 0.0
C2698 C 0.35378 0.67625 0.97137 0.0
C2699 C 0.36633 0.67022 0.95764 0.0
C2700 C 0.35998 0.66618 0.93961 0.0
C2701 C 0.35979 0.67918 0.991 0.0
C2702 C 0.37436 0.69154 0.995 0.0
C2703 C 0.35005 0.67092 1.0059 0.0
C2704 C 0.33565 0.6565 1.00281 0.0
C2705 C 0.33972 0.64061 0.99221 0.0
C2706 C 0.32606 0.62717 0.98917 0.0
C2707 C 0.30831 0.62941 0.99675 0.0
C2708 C 0.30419 0.64507 1.00743 0.0
C2709 C 0.31778 0.65856 1.0105 0.0
H2710 H 0.29775 0.61899 0.99437 0.0
H2711 H 0.4328 0.74652 0.02509 0.0
loop_
_geom_bond_atom_site_label_1
_geom_bond_atom_site_label_2
_geom_bond_distance
_geom_bond_site_symmetry_2
_ccdc_geom_bond_type
Mg0 O7 2.141 . S
Mg0 O8 2.048 . S
Mg0 O9 2.048 . S
Mg0 O12 2.141 . S
C1 O2 1.313 . S
C1 O8 1.195 . S
O2 C1 1.313 . S
C3 O4 1.245 . S
C3 O12 1.289 . S
O4 C3 1.245 . S
C5 O6 1.245 . S
C5 O7 1.289 . S
O6 C5 1.245 . S
O7 Mg0 2.141 . S
O7 C5 1.289 . S
O8 Mg0 2.048 . S
O8 C1 1.195 . S
O9 Mg0 2.048 . S
O9 C10 1.195 . S
C10 O9 1.195 . S
C10 O11 1.313 . S
O11 C10 1.313 . S
O12 Mg0 2.141 . S
O12 C3 1.289 . S
Mg13 O20 2.141 . S
Mg13 O21 2.048 . S
Mg13 O22 2.048 . S
Mg13 O25 2.141 . S
C14 O15 1.313 . S
C14 O21 1.195 . S
O15 C14 1.313 . S
C16 O17 1.245 . S
C16 O25 1.289 . S
O17 C16 1.245 . S
C18 O19 1.245 . S
C18 O20 1.289 . S
O19 C18 1.245 . S
O20 Mg13 2.141 . S
O20 C18 1.289 . S
O21 Mg13 2.048 . S
O21 C14 1.195 . S
O22 Mg13 2.048 . S
O22 C23 1.195 . S
C23 O22 1.195 . S
C23 O24 1.313 . S
O24 C23 1.313 . S
O25 Mg13 2.141 . S
O25 C16 1.289 . S
Mg26 O33 2.141 . S
Mg26 O34 2.048 . S
Mg26 O35 2.048 . S
Mg26 O38 2.141 . S
C27 O28 1.313 . S
C27 O34 1.195 . S
O28 C27 1.313 . S
C29 O30 1.245 . S
C29 O38 1.289 . S
O30 C29 1.245 . S
C31 O32 1.245 . S
C31 O33 1.289 . S
O32 C31 1.245 . S
O33 Mg26 2.141 . S
O33 C31 1.289 . S
O34 Mg26 2.048 . S
O34 C27 1.195 . S
O35 Mg26 2.048 . S
O35 C36 1.195 . S
C36 O35 1.195 . S
C36 O37 1.313 . S
O37 C36 1.313 . S
O38 Mg26 2.141 . S
O38 C29 1.289 . S
Mg39 O46 2.141 . S
Mg39 O47 2.048 . S
Mg39 O48 2.048 . S
Mg39 O51 2.141 . S
C40 O41 1.313 . S
C40 O47 1.195 . S
O41 C40 1.313 . S
C42 O43 1.245 . S
C42 O51 1.289 . S
O43 C42 1.245 . S
C44 O45 1.245 . S
C44 O46 1.289 . S
O45 C44 1.245 . S
O46 Mg39 2.141 . S
O46 C44 1.289 . S
O47 Mg39 2.048 . S
O47 C40 1.195 . S
O48 Mg39 2.048 . S
O48 C49 1.195 . S
C49 O48 1.195 . S
C49 O50 1.313 . S
O50 C49 1.313 . S
O51 Mg39 2.141 . S
O51 C42 1.289 . S
Mg52 O59 2.141 . S
Mg52 O60 2.048 . S
Mg52 O61 2.048 . S
Mg52 O64 2.141 . S
C53 O54 1.313 . S
C53 O60 1.195 . S
O54 C53 1.313 . S
C55 O56 1.245 . S
C55 O64 1.289 . S
O56 C55 1.245 . S
C57 O58 1.245 . S
C57 O59 1.289 . S
O58 C57 1.245 . S
O59 Mg52 2.141 . S
O59 C57 1.289 . S
O60 Mg52 2.048 . S
O60 C53 1.195 . S
O61 Mg52 2.048 . S
O61 C62 1.195 . S
C62 O61 1.195 . S
C62 O63 1.313 . S
O63 C62 1.313 . S
O64 Mg52 2.141 . S
O64 C55 1.289 . S
Mg65 O72 2.141 . S
Mg65 O73 2.048 . S
Mg65 O74 2.048 . S
Mg65 O77 2.141 . S
C66 O67 1.313 . S
C66 O73 1.195 . S
O67 C66 1.313 . S
C68 O69 1.245 . S
C68 O77 1.289 . S
O69 C68 1.245 . S
C70 O71 1.245 . S
C70 O72 1.289 . S
O71 C70 1.245 . S
O72 Mg65 2.141 . S
O72 C70 1.289 . S
O73 Mg65 2.048 . S
O73 C66 1.195 . S
O74 Mg65 2.048 . S
O74 C75 1.195 . S
C75 O74 1.195 . S
C75 O76 1.313 . S
O76 C75 1.313 . S
O77 Mg65 2.141 . S
O77 C68 1.289 . S
Mg78 O85 2.141 . S
Mg78 O86 2.048 . S
Mg78 O87 2.048 . S
Mg78 O90 2.141 . S
C79 O80 1.313 . S
C79 O86 1.195 . S
O80 C79 1.313 . S
C81 O82 1.245 . S
C81 O90 1.289 . S
O82 C81 1.245 . S
C83 O84 1.245 . S
C83 O85 1.289 . S
O84 C83 1.245 . S
O85 Mg78 2.141 . S
O85 C83 1.289 . S
O86 Mg78 2.048 . S
O86 C79 1.195 . S
O87 Mg78 2.048 . S
O87 C88 1.195 . S
C88 O87 1.195 . S
C88 O89 1.313 . S
O89 C88 1.313 . S
O90 Mg78 2.141 . S
O90 C81 1.289 . S
Mg91 O98 2.141 . S
Mg91 O99 2.048 . S
Mg91 O100 2.048 . S
Mg91 O103 2.141 . S
C92 O93 1.313 . S
C92 O99 1.195 . S
O93 C92 1.313 . S
C94 O95 1.245 . S
C94 O103 1.289 . S
O95 C94 1.245 . S
C96 O97 1.245 . S
C96 O98 1.289 . S
O97 C96 1.245 . S
O98 Mg91 2.141 . S
O98 C96 1.289 . S
O99 Mg91 2.048 . S
O99 C92 1.195 . S
O100 Mg91 2.048 . S
O100 C101 1.195 . S
C101 O100 1.195 . S
C101 O102 1.313 . S
O102 C101 1.313 . S
O103 Mg91 2.141 . S
O103 C94 1.289 . S
Mg104 O111 2.141 . S
Mg104 O112 2.048 . S
Mg104 O113 2.048 . S
Mg104 O116 2.141 . S
C105 O106 1.313 . S
C105 O112 1.195 . S
O106 C105 1.313 . S
C107 O108 1.245 . S
C107 O116 1.289 . S
O108 C107 1.245 . S
C109 O110 1.245 . S
C109 O111 1.289 . S
O110 C109 1.245 . S
O111 Mg104 2.141 . S
O111 C109 1.289 . S
O112 Mg104 2.048 . S
O112 C105 1.195 . S
O113 Mg104 2.048 . S
O113 C114 1.195 . S
C114 O113 1.195 . S
C114 O115 1.313 . S
O115 C114 1.313 . S
O116 Mg104 2.141 . S
O116 C107 1.289 . S
Mg117 O124 2.141 . S
Mg117 O125 2.048 . S
Mg117 O126 2.048 . S
Mg117 O129 2.141 . S
C118 O119 1.313 . S
C118 O125 1.195 . S
O119 C118 1.313 . S
C120 O121 1.245 . S
C120 O129 1.289 . S
O121 C120 1.245 . S
C122 O123 1.245 . S
C122 O124 1.289 . S
O123 C122 1.245 . S
O124 Mg117 2.141 . S
O124 C122 1.289 . S
O125 Mg117 2.048 . S
O125 C118 1.195 . S
O126 Mg117 2.048 . S
O126 C127 1.195 . S
C127 O126 1.195 . S
C127 O128 1.313 . S
O128 C127 1.313 . S
O129 Mg117 2.141 . S
O129 C120 1.289 . S
Mg130 O137 2.141 . S
Mg130 O138 2.048 . S
Mg130 O139 2.048 . S
Mg130 O142 2.141 . S
C131 O132 1.313 . S
C131 O138 1.195 . S
O132 C131 1.313 . S
C133 O134 1.245 . S
C133 O142 1.289 . S
O134 C133 1.245 . S
C135 O136 1.245 . S
C135 O137 1.289 . S
O136 C135 1.245 . S
O137 Mg130 2.141 . S
O137 C135 1.289 . S
O138 Mg130 2.048 . S
O138 C131 1.195 . S
O139 Mg130 2.048 . S
O139 C140 1.195 . S
C140 O139 1.195 . S
C140 O141 1.313 . S
O141 C140 1.313 . S
O142 Mg130 2.141 . S
O142 C133 1.289 . S
Mg143 O150 2.141 . S
Mg143 O151 2.048 . S
Mg143 O152 2.048 . S
Mg143 O155 2.141 . S
C144 O145 1.313 . S
C144 O151 1.195 . S
O145 C144 1.313 . S
C146 O147 1.245 . S
C146 O155 1.289 . S
O147 C146 1.245 . S
C148 O149 1.245 . S
C148 O150 1.289 . S
O149 C148 1.245 . S
O150 Mg143 2.141 . S
O150 C148 1.289 . S
O151 Mg143 2.048 . S
O151 C144 1.195 . S
O152 Mg143 2.048 . S
O152 C153 1.195 . S
C153 O152 1.195 . S
C153 O154 1.313 . S
O154 C153 1.313 . S
O155 Mg143 2.141 . S
O155 C146 1.289 . S
Mg156 O163 2.141 . S
Mg156 O164 2.048 . S
Mg156 O165 2.048 . S
Mg156 O168 2.141 . S
C157 O158 1.313 . S
C157 O164 1.195 . S
O158 C157 1.313 . S
C159 O160 1.245 . S
C159 O168 1.289 . S
O160 C159 1.245 . S
C161 O162 1.245 . S
C161 O163 1.289 . S
O162 C161 1.245 . S
O163 Mg156 2.141 . S
O163 C161 1.289 . S
O164 Mg156 2.048 . S
O164 C157 1.195 . S
O165 Mg156 2.048 . S
O165 C166 1.195 . S
C166 O165 1.195 . S
C166 O167 1.313 . S
O167 C166 1.313 . S
O168 Mg156 2.141 . S
O168 C159 1.289 . S
Mg169 O176 2.141 . S
Mg169 O177 2.048 . S
Mg169 O178 2.048 . S
Mg169 O181 2.141 . S
C170 O171 1.313 . S
C170 O177 1.195 . S
O171 C170 1.313 . S
C172 O173 1.245 . S
C172 O181 1.289 . S
O173 C172 1.245 . S
C174 O175 1.245 . S
C174 O176 1.289 . S
O175 C174 1.245 . S
O176 Mg169 2.141 . S
O176 C174 1.289 . S
O177 Mg169 2.048 . S
O177 C170 1.195 . S
O178 Mg169 2.048 . S
O178 C179 1.195 . S
C179 O178 1.195 . S
C179 O180 1.313 . S
O180 C179 1.313 . S
O181 Mg169 2.141 . S
O181 C172 1.289 . S
Mg182 O189 2.141 . S
Mg182 O190 2.048 . S
Mg182 O191 2.048 . S
Mg182 O194 2.141 . S
C183 O184 1.313 . S
C183 O190 1.195 . S
O184 C183 1.313 . S
C185 O186 1.245 . S
C185 O194 1.289 . S
O186 C185 1.245 . S
C187 O188 1.245 . S
C187 O189 1.289 . S
O188 C187 1.245 . S
O189 Mg182 2.141 . S
O189 C187 1.289 . S
O190 Mg182 2.048 . S
O190 C183 1.195 . S
O191 Mg182 2.048 . S
O191 C192 1.195 . S
C192 O191 1.195 . S
C192 O193 1.313 . S
O193 C192 1.313 . S
O194 Mg182 2.141 . S
O194 C185 1.289 . S
Mg195 O202 2.141 . S
Mg195 O203 2.048 . S
Mg195 O204 2.048 . S
Mg195 O207 2.141 . S
C196 O197 1.313 . S
C196 O203 1.195 . S
O197 C196 1.313 . S
C198 O199 1.245 . S
C198 O207 1.289 . S
O199 C198 1.245 . S
C200 O201 1.245 . S
C200 O202 1.289 . S
O201 C200 1.245 . S
O202 Mg195 2.141 . S
O202 C200 1.289 . S
O203 Mg195 2.048 . S
O203 C196 1.195 . S
O204 Mg195 2.048 . S
O204 C205 1.195 . S
C205 O204 1.195 . S
C205 O206 1.313 . S
O206 C205 1.313 . S
O207 Mg195 2.141 . S
O207 C198 1.289 . S
Mg208 O215 2.141 . S
Mg208 O216 2.048 . S
Mg208 O217 2.048 . S
Mg208 O220 2.141 . S
C209 O210 1.313 . S
C209 O216 1.195 . S
O210 C209 1.313 . S
C211 O212 1.245 . S
C211 O220 1.289 . S
O212 C211 1.245 . S
C213 O214 1.245 . S
C213 O215 1.289 . S
O214 C213 1.245 . S
O215 Mg208 2.141 . S
O215 C213 1.289 . S
O216 Mg208 2.048 . S
O216 C209 1.195 . S
O217 Mg208 2.048 . S
O217 C218 1.195 . S
C218 O217 1.195 . S
C218 O219 1.313 . S
O219 C218 1.313 . S
O220 Mg208 2.141 . S
O220 C211 1.289 . S
Mg221 O228 2.141 . S
Mg221 O229 2.048 . S
Mg221 O230 2.048 . S
Mg221 O233 2.141 . S
C222 O223 1.313 . S
C222 O229 1.195 . S
O223 C222 1.313 . S
C224 O225 1.245 . S
C224 O233 1.289 . S
O225 C224 1.245 . S
C226 O227 1.245 . S
C226 O228 1.289 . S
O227 C226 1.245 . S
O228 Mg221 2.141 . S
O228 C226 1.289 . S
O229 Mg221 2.048 . S
O229 C222 1.195 . S
O230 Mg221 2.048 . S
O230 C231 1.195 . S
C231 O230 1.195 . S
C231 O232 1.313 . S
O232 C231 1.313 . S
O233 Mg221 2.141 . S
O233 C224 1.289 . S
Mg234 O241 2.141 . S
Mg234 O242 2.048 . S
Mg234 O243 2.048 . S
Mg234 O246 2.141 . S
C235 O236 1.313 . S
C235 O242 1.195 . S
O236 C235 1.313 . S
C237 O238 1.245 . S
C237 O246 1.289 . S
O238 C237 1.245 . S
C239 O240 1.245 . S
C239 O241 1.289 . S
O240 C239 1.245 . S
O241 Mg234 2.141 . S
O241 C239 1.289 . S
O242 Mg234 2.048 . S
O242 C235 1.195 . S
O243 Mg234 2.048 . S
O243 C244 1.195 . S
C244 O243 1.195 . S
C244 O245 1.313 . S
O245 C244 1.313 . S
O246 Mg234 2.141 . S
O246 C237 1.289 . S
Mg247 O254 2.141 . S
Mg247 O255 2.048 . S
Mg247 O256 2.048 . S
Mg247 O259 2.141 . S
C248 O249 1.313 . S
C248 O255 1.195 . S
O249 C248 1.313 . S
C250 O251 1.245 . S
C250 O259 1.289 . S
O251 C250 1.245 . S
C252 O253 1.245 . S
C252 O254 1.289 . S
O253 C252 1.245 . S
O254 Mg247 2.141 . S
O254 C252 1.289 . S
O255 Mg247 2.048 . S
O255 C248 1.195 . S
O256 Mg247 2.048 . S
O256 C257 1.195 . S
C257 O256 1.195 . S
C257 O258 1.313 . S
O258 C257 1.313 . S
O259 Mg247 2.141 . S
O259 C250 1.289 . S
Mg260 O267 2.141 . S
Mg260 O268 2.048 . S
Mg260 O269 2.048 . S
Mg260 O272 2.141 . S
C261 O262 1.313 . S
C261 O268 1.195 . S
O262 C261 1.313 . S
C263 O264 1.245 . S
C263 O272 1.289 . S
O264 C263 1.245 . S
C265 O266 1.245 . S
C265 O267 1.289 . S
O266 C265 1.245 . S
O267 Mg260 2.141 . S
O267 C265 1.289 . S
O268 Mg260 2.048 . S
O268 C261 1.195 . S
O269 Mg260 2.048 . S
O269 C270 1.195 . S
C270 O269 1.195 . S
C270 O271 1.313 . S
O271 C270 1.313 . S
O272 Mg260 2.141 . S
O272 C263 1.289 . S
Mg273 O280 2.141 . S
Mg273 O281 2.048 . S
Mg273 O282 2.048 . S
Mg273 O285 2.141 . S
C274 O275 1.313 . S
C274 O281 1.195 . S
O275 C274 1.313 . S
C276 O277 1.245 . S
C276 O285 1.289 . S
O277 C276 1.245 . S
C278 O279 1.245 . S
C278 O280 1.289 . S
O279 C278 1.245 . S
O280 Mg273 2.141 . S
O280 C278 1.289 . S
O281 Mg273 2.048 . S
O281 C274 1.195 . S
O282 Mg273 2.048 . S
O282 C283 1.195 . S
C283 O282 1.195 . S
C283 O284 1.313 . S
O284 C283 1.313 . S
O285 Mg273 2.141 . S
O285 C276 1.289 . S
Mg286 O293 2.141 . S
Mg286 O294 2.048 . S
Mg286 O295 2.048 . S
Mg286 O298 2.141 . S
C287 O288 1.313 . S
C287 O294 1.195 . S
O288 C287 1.313 . S
C289 O290 1.245 . S
C289 O298 1.289 . S
O290 C289 1.245 . S
C291 O292 1.245 . S
C291 O293 1.289 . S
O292 C291 1.245 . S
O293 Mg286 2.141 . S
O293 C291 1.289 . S
O294 Mg286 2.048 . S
O294 C287 1.195 . S
O295 Mg286 2.048 . S
O295 C296 1.195 . S
C296 O295 1.195 . S
C296 O297 1.313 . S
O297 C296 1.313 . S
O298 Mg286 2.141 . S
O298 C289 1.289 . S
Mg299 O306 2.141 . S
Mg299 O307 2.048 . S
Mg299 O308 2.048 . S
Mg299 O311 2.141 . S
C300 O301 1.313 . S
C300 O307 1.195 . S
O301 C300 1.313 . S
C302 O303 1.245 . S
C302 O311 1.289 . S
O303 C302 1.245 . S
C304 O305 1.245 . S
C304 O306 1.289 . S
O305 C304 1.245 . S
O306 Mg299 2.141 . S
O306 C304 1.289 . S
O307 Mg299 2.048 . S
O307 C300 1.195 . S
O308 Mg299 2.048 . S
O308 C309 1.195 . S
C309 O308 1.195 . S
C309 O310 1.313 . S
O310 C309 1.313 . S
O311 Mg299 2.141 . S
O311 C302 1.289 . S
H312 C330 0.951 . S
H313 C332 0.951 . S
H314 C334 0.950 . S
H315 C335 0.950 . S
H316 C337 0.950 . S
H317 C340 0.950 . S
H318 C341 0.950 . S
H319 C343 0.950 . S
H320 C344 0.950 . S
H321 C345 0.951 . S
H322 C347 0.951 . S
H323 C349 0.950 . S
H324 C350 0.950 . S
H325 C352 0.950 . S
H326 C355 0.950 . S
H327 C356 0.950 . S
H328 C358 0.950 . S
H329 C359 0.950 . S
C330 H312 0.951 . S
C330 C331 1.366 . S
C330 C332 1.388 . S
C331 C330 1.366 . S
C331 C335 1.385 . S
C332 H313 0.951 . S
C332 C330 1.388 . S
C332 C333 1.366 . S
C333 C332 1.366 . S
C333 C334 1.414 . S
C333 C336 1.499 . S
C334 H314 0.950 . S
C334 C333 1.414 . S
C334 C335 1.374 . S
C335 H315 0.950 . S
C335 C331 1.385 . S
C335 C334 1.374 . S
C336 C333 1.499 . S
C336 C337 1.373 . S
C336 C338 1.389 . S
C337 H316 0.950 . S
C337 C336 1.373 . S
C337 C353 1.377 . S
C338 C336 1.389 . S
C338 C339 1.524 . S
C338 C352 1.377 . S
C339 C338 1.524 . S
C339 C340 1.397 . S
C339 C344 1.363 . S
C340 H317 0.950 . S
C340 C339 1.397 . S
C340 C341 1.334 . S
C341 H318 0.950 . S
C341 C340 1.334 . S
C341 C342 1.287 . S
C342 C341 1.287 . S
C342 C343 1.524 . S
C342 H361 0.913 . S
C343 H319 0.950 . S
C343 C342 1.524 . S
C343 C344 1.415 . S
C344 H320 0.950 . S
C344 C339 1.363 . S
C344 C343 1.415 . S
C345 H321 0.951 . S
C345 C346 1.366 . S
C345 C347 1.388 . S
C346 C345 1.366 . S
C346 C350 1.385 . S
C347 H322 0.951 . S
C347 C345 1.388 . S
C347 C348 1.366 . S
C348 C347 1.366 . S
C348 C349 1.414 . S
C348 C351 1.499 . S
C349 H323 0.950 . S
C349 C348 1.414 . S
C349 C350 1.374 . S
C350 H324 0.950 . S
C350 C346 1.385 . S
C350 C349 1.374 . S
C351 C348 1.499 . S
C351 C352 1.373 . S
C351 C353 1.389 . S
C352 H325 0.950 . S
C352 C338 1.377 . S
C352 C351 1.373 . S
C353 C337 1.377 . S
C353 C351 1.389 . S
C353 C354 1.524 . S
C354 C353 1.524 . S
C354 C355 1.397 . S
C354 C359 1.363 . S
C355 H326 0.950 . S
C355 C354 1.397 . S
C355 C356 1.334 . S
C356 H327 0.950 . S
C356 C355 1.334 . S
C356 C357 1.287 . S
C357 C356 1.287 . S
C357 C358 1.524 . S
C357 H360 0.999 . S
C358 H328 0.950 . S
C358 C357 1.524 . S
C358 C359 1.415 . S
C359 H329 0.950 . S
C359 C354 1.363 . S
C359 C358 1.415 . S
H360 C357 0.999 . S
H361 C342 0.913 . S
H362 C380 0.951 . S
H363 C382 0.951 . S
H364 C384 0.950 . S
H365 C385 0.950 . S
H366 C387 0.950 . S
H367 C390 0.950 . S
H368 C391 0.950 . S
H369 C393 0.950 . S
H370 C394 0.950 . S
H371 C395 0.951 . S
H372 C397 0.951 . S
H373 C399 0.950 . S
H374 C400 0.950 . S
H375 C402 0.950 . S
H376 C405 0.950 . S
H377 C406 0.950 . S
H378 C408 0.950 . S
H379 C409 0.950 . S
C380 H362 0.951 . S
C380 C381 1.366 . S
C380 C382 1.388 . S
C381 C380 1.366 . S
C381 C385 1.385 . S
C382 H363 0.951 . S
C382 C380 1.388 . S
C382 C383 1.366 . S
C383 C382 1.366 . S
C383 C384 1.414 . S
C383 C386 1.499 . S
C384 H364 0.950 . S
C384 C383 1.414 . S
C384 C385 1.374 . S
C385 H365 0.950 . S
C385 C381 1.385 . S
C385 C384 1.374 . S
C386 C383 1.499 . S
C386 C387 1.373 . S
C386 C388 1.389 . S
C387 H366 0.950 . S
C387 C386 1.373 . S
C387 C403 1.377 . S
C388 C386 1.389 . S
C388 C389 1.524 . S
C388 C402 1.377 . S
C389 C388 1.524 . S
C389 C390 1.397 . S
C389 C394 1.363 . S
C390 H367 0.950 . S
C390 C389 1.397 . S
C390 C391 1.334 . S
C391 H368 0.950 . S
C391 C390 1.334 . S
C391 C392 1.287 . S
C392 C391 1.287 . S
C392 C393 1.524 . S
C392 H411 0.913 . S
C393 H369 0.950 . S
C393 C392 1.524 . S
C393 C394 1.415 . S
C394 H370 0.950 . S
C394 C389 1.363 . S
C394 C393 1.415 . S
C395 H371 0.951 . S
C395 C396 1.366 . S
C395 C397 1.388 . S
C396 C395 1.366 . S
C396 C400 1.385 . S
C397 H372 0.951 . S
C397 C395 1.388 . S
C397 C398 1.366 . S
C398 C397 1.366 . S
C398 C399 1.414 . S
C398 C401 1.499 . S
C399 H373 0.950 . S
C399 C398 1.414 . S
C399 C400 1.374 . S
C400 H374 0.950 . S
C400 C396 1.385 . S
C400 C399 1.374 . S
C401 C398 1.499 . S
C401 C402 1.373 . S
C401 C403 1.389 . S
C402 H375 0.950 . S
C402 C388 1.377 . S
C402 C401 1.373 . S
C403 C387 1.377 . S
C403 C401 1.389 . S
C403 C404 1.524 . S
C404 C403 1.524 . S
C404 C405 1.397 . S
C404 C409 1.363 . S
C405 H376 0.950 . S
C405 C404 1.397 . S
C405 C406 1.334 . S
C406 H377 0.950 . S
C406 C405 1.334 . S
C406 C407 1.287 . S
C407 C406 1.287 . S
C407 C408 1.524 . S
C407 H410 0.999 . S
C408 H378 0.950 . S
C408 C407 1.524 . S
C408 C409 1.415 . S
C409 H379 0.950 . S
C409 C404 1.363 . S
C409 C408 1.415 . S
H410 C407 0.999 . S
H411 C392 0.913 . S
H412 C430 0.951 . S
H413 C432 0.951 . S
H414 C434 0.950 . S
H415 C435 0.950 . S
H416 C437 0.950 . S
H417 C440 0.950 . S
H418 C441 0.950 . S
H419 C443 0.950 . S
H420 C444 0.950 . S
H421 C445 0.951 . S
H422 C447 0.951 . S
H423 C449 0.950 . S
H424 C450 0.950 . S
H425 C452 0.950 . S
H426 C455 0.950 . S
H427 C456 0.950 . S
H428 C458 0.950 . S
H429 C459 0.950 . S
C430 H412 0.951 . S
C430 C431 1.366 . S
C430 C432 1.388 . S
C431 C430 1.366 . S
C431 C435 1.385 . S
C432 H413 0.951 . S
C432 C430 1.388 . S
C432 C433 1.366 . S
C433 C432 1.366 . S
C433 C434 1.414 . S
C433 C436 1.499 . S
C434 H414 0.950 . S
C434 C433 1.414 . S
C434 C435 1.374 . S
C435 H415 0.950 . S
C435 C431 1.385 . S
C435 C434 1.374 . S
C436 C433 1.499 . S
C436 C437 1.373 . S
C436 C438 1.389 . S
C437 H416 0.950 . S
C437 C436 1.373 . S
C437 C453 1.377 . S
C438 C436 1.389 . S
C438 C439 1.524 . S
C438 C452 1.377 . S
C439 C438 1.524 . S
C439 C440 1.397 . S
C439 C444 1.363 . S
C440 H417 0.950 . S
C440 C439 1.397 . S
C440 C441 1.334 . S
C441 H418 0.950 . S
C441 C440 1.334 . S
C441 C442 1.287 . S
C442 C441 1.287 . S
C442 C443 1.524 . S
C442 H461 0.913 . S
C443 H419 0.950 . S
C443 C442 1.524 . S
C443 C444 1.415 . S
C444 H420 0.950 . S
C444 C439 1.363 . S
C444 C443 1.415 . S
C445 H421 0.951 . S
C445 C446 1.366 . S
C445 C447 1.388 . S
C446 C445 1.366 . S
C446 C450 1.385 . S
C447 H422 0.951 . S
C447 C445 1.388 . S
C447 C448 1.366 . S
C448 C447 1.366 . S
C448 C449 1.414 . S
C448 C451 1.499 . S
C449 H423 0.950 . S
C449 C448 1.414 . S
C449 C450 1.374 . S
C450 H424 0.950 . S
C450 C446 1.385 . S
C450 C449 1.374 . S
C451 C448 1.499 . S
C451 C452 1.373 . S
C451 C453 1.389 . S
C452 H425 0.950 . S
C452 C438 1.377 . S
C452 C451 1.373 . S
C453 C437 1.377 . S
C453 C451 1.389 . S
C453 C454 1.524 . S
C454 C453 1.524 . S
C454 C455 1.397 . S
C454 C459 1.363 . S
C455 H426 0.950 . S
C455 C454 1.397 . S
C455 C456 1.334 . S
C456 H427 0.950 . S
C456 C455 1.334 . S
C456 C457 1.287 . S
C457 C456 1.287 . S
C457 C458 1.524 . S
C457 H460 0.999 . S
C458 H428 0.950 . S
C458 C457 1.524 . S
C458 C459 1.415 . S
C459 H429 0.950 . S
C459 C454 1.363 . S
C459 C458 1.415 . S
H460 C457 0.999 . S
H461 C442 0.913 . S
H462 C480 0.951 . S
H463 C482 0.951 . S
H464 C484 0.950 . S
H465 C485 0.950 . S
H466 C487 0.950 . S
H467 C490 0.950 . S
H468 C491 0.950 . S
H469 C493 0.950 . S
H470 C494 0.950 . S
H471 C495 0.951 . S
H472 C497 0.951 . S
H473 C499 0.950 . S
H474 C500 0.950 . S
H475 C502 0.950 . S
H476 C505 0.950 . S
H477 C506 0.950 . S
H478 C508 0.950 . S
H479 C509 0.950 . S
C480 H462 0.951 . S
C480 C481 1.366 . S
C480 C482 1.388 . S
C481 C480 1.366 . S
C481 C485 1.385 . S
C482 H463 0.951 . S
C482 C480 1.388 . S
C482 C483 1.366 . S
C483 C482 1.366 . S
C483 C484 1.414 . S
C483 C486 1.499 . S
C484 H464 0.950 . S
C484 C483 1.414 . S
C484 C485 1.374 . S
C485 H465 0.950 . S
C485 C481 1.385 . S
C485 C484 1.374 . S
C486 C483 1.499 . S
C486 C487 1.373 . S
C486 C488 1.389 . S
C487 H466 0.950 . S
C487 C486 1.373 . S
C487 C503 1.377 . S
C488 C486 1.389 . S
C488 C489 1.524 . S
C488 C502 1.377 . S
C489 C488 1.524 . S
C489 C490 1.397 . S
C489 C494 1.363 . S
C490 H467 0.950 . S
C490 C489 1.397 . S
C490 C491 1.334 . S
C491 H468 0.950 . S
C491 C490 1.334 . S
C491 C492 1.287 . S
C492 C491 1.287 . S
C492 C493 1.524 . S
C492 H511 0.913 . S
C493 H469 0.950 . S
C493 C492 1.524 . S
C493 C494 1.415 . S
C494 H470 0.950 . S
C494 C489 1.363 . S
C494 C493 1.415 . S
C495 H471 0.951 . S
C495 C496 1.366 . S
C495 C497 1.388 . S
C496 C495 1.366 . S
C496 C500 1.385 . S
C497 H472 0.951 . S
C497 C495 1.388 . S
C497 C498 1.366 . S
C498 C497 1.366 . S
C498 C499 1.414 . S
C498 C501 1.499 . S
C499 H473 0.950 . S
C499 C498 1.414 . S
C499 C500 1.374 . S
C500 H474 0.950 . S
C500 C496 1.385 . S
C500 C499 1.374 . S
C501 C498 1.499 . S
C501 C502 1.373 . S
C501 C503 1.389 . S
C502 H475 0.950 . S
C502 C488 1.377 . S
C502 C501 1.373 . S
C503 C487 1.377 . S
C503 C501 1.389 . S
C503 C504 1.524 . S
C504 C503 1.524 . S
C504 C505 1.397 . S
C504 C509 1.363 . S
C505 H476 0.950 . S
C505 C504 1.397 . S
C505 C506 1.334 . S
C506 H477 0.950 . S
C506 C505 1.334 . S
C506 C507 1.287 . S
C507 C506 1.287 . S
C507 C508 1.524 . S
C507 H510 0.999 . S
C508 H478 0.950 . S
C508 C507 1.524 . S
C508 C509 1.415 . S
C509 H479 0.950 . S
C509 C504 1.363 . S
C509 C508 1.415 . S
H510 C507 0.999 . S
H511 C492 0.913 . S
H512 C530 0.951 . S
H513 C532 0.951 . S
H514 C534 0.950 . S
H515 C535 0.950 . S
H516 C537 0.950 . S
H517 C540 0.950 . S
H518 C541 0.950 . S
H519 C543 0.950 . S
H520 C544 0.950 . S
H521 C545 0.951 . S
H522 C547 0.951 . S
H523 C549 0.950 . S
H524 C550 0.950 . S
H525 C552 0.950 . S
H526 C555 0.950 . S
H527 C556 0.950 . S
H528 C558 0.950 . S
H529 C559 0.950 . S
C530 H512 0.951 . S
C530 C531 1.366 . S
C530 C532 1.388 . S
C531 C530 1.366 . S
C531 C535 1.385 . S
C532 H513 0.951 . S
C532 C530 1.388 . S
C532 C533 1.366 . S
C533 C532 1.366 . S
C533 C534 1.414 . S
C533 C536 1.499 . S
C534 H514 0.950 . S
C534 C533 1.414 . S
C534 C535 1.374 . S
C535 H515 0.950 . S
C535 C531 1.385 . S
C535 C534 1.374 . S
C536 C533 1.499 . S
C536 C537 1.373 . S
C536 C538 1.389 . S
C537 H516 0.950 . S
C537 C536 1.373 . S
C537 C553 1.377 . S
C538 C536 1.389 . S
C538 C539 1.524 . S
C538 C552 1.377 . S
C539 C538 1.524 . S
C539 C540 1.397 . S
C539 C544 1.363 . S
C540 H517 0.950 . S
C540 C539 1.397 . S
C540 C541 1.334 . S
C541 H518 0.950 . S
C541 C540 1.334 . S
C541 C542 1.287 . S
C542 C541 1.287 . S
C542 C543 1.524 . S
C542 H561 0.913 . S
C543 H519 0.950 . S
C543 C542 1.524 . S
C543 C544 1.415 . S
C544 H520 0.950 . S
C544 C539 1.363 . S
C544 C543 1.415 . S
C545 H521 0.951 . S
C545 C546 1.366 . S
C545 C547 1.388 . S
C546 C545 1.366 . S
C546 C550 1.385 . S
C547 H522 0.951 . S
C547 C545 1.388 . S
C547 C548 1.366 . S
C548 C547 1.366 . S
C548 C549 1.414 . S
C548 C551 1.499 . S
C549 H523 0.950 . S
C549 C548 1.414 . S
C549 C550 1.374 . S
C550 H524 0.950 . S
C550 C546 1.385 . S
C550 C549 1.374 . S
C551 C548 1.499 . S
C551 C552 1.373 . S
C551 C553 1.389 . S
C552 H525 0.950 . S
C552 C538 1.377 . S
C552 C551 1.373 . S
C553 C537 1.377 . S
C553 C551 1.389 . S
C553 C554 1.524 . S
C554 C553 1.524 . S
C554 C555 1.397 . S
C554 C559 1.363 . S
C555 H526 0.950 . S
C555 C554 1.397 . S
C555 C556 1.334 . S
C556 H527 0.950 . S
C556 C555 1.334 . S
C556 C557 1.287 . S
C557 C556 1.287 . S
C557 C558 1.524 . S
C557 H560 0.999 . S
C558 H528 0.950 . S
C558 C557 1.524 . S
C558 C559 1.415 . S
C559 H529 0.950 . S
C559 C554 1.363 . S
C559 C558 1.415 . S
H560 C557 0.999 . S
H561 C542 0.913 . S
H562 C580 0.951 . S
H563 C582 0.951 . S
H564 C584 0.950 . S
H565 C585 0.950 . S
H566 C587 0.950 . S
H567 C590 0.950 . S
H568 C591 0.950 . S
H569 C593 0.950 . S
H570 C594 0.950 . S
H571 C595 0.951 . S
H572 C597 0.951 . S
H573 C599 0.950 . S
H574 C600 0.950 . S
H575 C602 0.950 . S
H576 C605 0.950 . S
H577 C606 0.950 . S
H578 C608 0.950 . S
H579 C609 0.950 . S
C580 H562 0.951 . S
C580 C581 1.366 . S
C580 C582 1.388 . S
C581 C580 1.366 . S
C581 C585 1.385 . S
C582 H563 0.951 . S
C582 C580 1.388 . S
C582 C583 1.366 . S
C583 C582 1.366 . S
C583 C584 1.414 . S
C583 C586 1.499 . S
C584 H564 0.950 . S
C584 C583 1.414 . S
C584 C585 1.374 . S
C585 H565 0.950 . S
C585 C581 1.385 . S
C585 C584 1.374 . S
C586 C583 1.499 . S
C586 C587 1.373 . S
C586 C588 1.389 . S
C587 H566 0.950 . S
C587 C586 1.373 . S
C587 C603 1.377 . S
C588 C586 1.389 . S
C588 C589 1.524 . S
C588 C602 1.377 . S
C589 C588 1.524 . S
C589 C590 1.397 . S
C589 C594 1.363 . S
C590 H567 0.950 . S
C590 C589 1.397 . S
C590 C591 1.334 . S
C591 H568 0.950 . S
C591 C590 1.334 . S
C591 C592 1.287 . S
C592 C591 1.287 . S
C592 C593 1.524 . S
C592 H611 0.913 . S
C593 H569 0.950 . S
C593 C592 1.524 . S
C593 C594 1.415 . S
C594 H570 0.950 . S
C594 C589 1.363 . S
C594 C593 1.415 . S
C595 H571 0.951 . S
C595 C596 1.366 . S
C595 C597 1.388 . S
C596 C595 1.366 . S
C596 C600 1.385 . S
C597 H572 0.951 . S
C597 C595 1.388 . S
C597 C598 1.366 . S
C598 C597 1.366 . S
C598 C599 1.414 . S
C598 C601 1.499 . S
C599 H573 0.950 . S
C599 C598 1.414 . S
C599 C600 1.374 . S
C600 H574 0.950 . S
C600 C596 1.385 . S
C600 C599 1.374 . S
C601 C598 1.499 . S
C601 C602 1.373 . S
C601 C603 1.389 . S
C602 H575 0.950 . S
C602 C588 1.377 . S
C602 C601 1.373 . S
C603 C587 1.377 . S
C603 C601 1.389 . S
C603 C604 1.524 . S
C604 C603 1.524 . S
C604 C605 1.397 . S
C604 C609 1.363 . S
C605 H576 0.950 . S
C605 C604 1.397 . S
C605 C606 1.334 . S
C606 H577 0.950 . S
C606 C605 1.334 . S
C606 C607 1.287 . S
C607 C606 1.287 . S
C607 C608 1.524 . S
C607 H610 0.999 . S
C608 H578 0.950 . S
C608 C607 1.524 . S
C608 C609 1.415 . S
C609 H579 0.950 . S
C609 C604 1.363 . S
C609 C608 1.415 . S
H610 C607 0.999 . S
H611 C592 0.913 . S
H612 C630 0.951 . S
H613 C632 0.951 . S
H614 C634 0.950 . S
H615 C635 0.950 . S
H616 C637 0.950 . S
H617 C640 0.950 . S
H618 C641 0.950 . S
H619 C643 0.950 . S
H620 C644 0.950 . S
H621 C645 0.951 . S
H622 C647 0.951 . S
H623 C649 0.950 . S
H624 C650 0.950 . S
H625 C652 0.950 . S
H626 C655 0.950 . S
H627 C656 0.950 . S
H628 C658 0.950 . S
H629 C659 0.950 . S
C630 H612 0.951 . S
C630 C631 1.366 . S
C630 C632 1.388 . S
C631 C630 1.366 . S
C631 C635 1.385 . S
C632 H613 0.951 . S
C632 C630 1.388 . S
C632 C633 1.366 . S
C633 C632 1.366 . S
C633 C634 1.414 . S
C633 C636 1.499 . S
C634 H614 0.950 . S
C634 C633 1.414 . S
C634 C635 1.374 . S
C635 H615 0.950 . S
C635 C631 1.385 . S
C635 C634 1.374 . S
C636 C633 1.499 . S
C636 C637 1.373 . S
C636 C638 1.389 . S
C637 H616 0.950 . S
C637 C636 1.373 . S
C637 C653 1.377 . S
C638 C636 1.389 . S
C638 C639 1.524 . S
C638 C652 1.377 . S
C639 C638 1.524 . S
C639 C640 1.397 . S
C639 C644 1.363 . S
C640 H617 0.950 . S
C640 C639 1.397 . S
C640 C641 1.334 . S
C641 H618 0.950 . S
C641 C640 1.334 . S
C641 C642 1.287 . S
C642 C641 1.287 . S
C642 C643 1.524 . S
C642 H661 0.913 . S
C643 H619 0.950 . S
C643 C642 1.524 . S
C643 C644 1.415 . S
C644 H620 0.950 . S
C644 C639 1.363 . S
C644 C643 1.415 . S
C645 H621 0.951 . S
C645 C646 1.366 . S
C645 C647 1.388 . S
C646 C645 1.366 . S
C646 C650 1.385 . S
C647 H622 0.951 . S
C647 C645 1.388 . S
C647 C648 1.366 . S
C648 C647 1.366 . S
C648 C649 1.414 . S
C648 C651 1.499 . S
C649 H623 0.950 . S
C649 C648 1.414 . S
C649 C650 1.374 . S
C650 H624 0.950 . S
C650 C646 1.385 . S
C650 C649 1.374 . S
C651 C648 1.499 . S
C651 C652 1.373 . S
C651 C653 1.389 . S
C652 H625 0.950 . S
C652 C638 1.377 . S
C652 C651 1.373 . S
C653 C637 1.377 . S
C653 C651 1.389 . S
C653 C654 1.524 . S
C654 C653 1.524 . S
C654 C655 1.397 . S
C654 C659 1.363 . S
C655 H626 0.950 . S
C655 C654 1.397 . S
C655 C656 1.334 . S
C656 H627 0.950 . S
C656 C655 1.334 . S
C656 C657 1.287 . S
C657 C656 1.287 . S
C657 C658 1.524 . S
C657 H660 0.999 . S
C658 H628 0.950 . S
C658 C657 1.524 . S
C658 C659 1.415 . S
C659 H629 0.950 . S
C659 C654 1.363 . S
C659 C658 1.415 . S
H660 C657 0.999 . S
H661 C642 0.913 . S
H662 C680 0.951 . S
H663 C682 0.951 . S
H664 C684 0.950 . S
H665 C685 0.950 . S
H666 C687 0.950 . S
H667 C690 0.950 . S
H668 C691 0.950 . S
H669 C693 0.950 . S
H670 C694 0.950 . S
H671 C695 0.951 . S
H672 C697 0.951 . S
H673 C699 0.950 . S
H674 C700 0.950 . S
H675 C702 0.950 . S
H676 C705 0.950 . S
H677 C706 0.950 . S
H678 C708 0.950 . S
H679 C709 0.950 . S
C680 H662 0.951 . S
C680 C681 1.366 . S
C680 C682 1.388 . S
C681 C680 1.366 . S
C681 C685 1.385 . S
C682 H663 0.951 . S
C682 C680 1.388 . S
C682 C683 1.366 . S
C683 C682 1.366 . S
C683 C684 1.414 . S
C683 C686 1.499 . S
C684 H664 0.950 . S
C684 C683 1.414 . S
C684 C685 1.374 . S
C685 H665 0.950 . S
C685 C681 1.385 . S
C685 C684 1.374 . S
C686 C683 1.499 . S
C686 C687 1.373 . S
C686 C688 1.389 . S
C687 H666 0.950 . S
C687 C686 1.373 . S
C687 C703 1.377 . S
C688 C686 1.389 . S
C688 C689 1.524 . S
C688 C702 1.377 . S
C689 C688 1.524 . S
C689 C690 1.397 . S
C689 C694 1.363 . S
C690 H667 0.950 . S
C690 C689 1.397 . S
C690 C691 1.334 . S
C691 H668 0.950 . S
C691 C690 1.334 . S
C691 C692 1.287 . S
C692 C691 1.287 . S
C692 C693 1.524 . S
C692 H711 0.913 . S
C693 H669 0.950 . S
C693 C692 1.524 . S
C693 C694 1.415 . S
C694 H670 0.950 . S
C694 C689 1.363 . S
C694 C693 1.415 . S
C695 H671 0.951 . S
C695 C696 1.366 . S
C695 C697 1.388 . S
C696 C695 1.366 . S
C696 C700 1.385 . S
C697 H672 0.951 . S
C697 C695 1.388 . S
C697 C698 1.366 . S
C698 C697 1.366 . S
C698 C699 1.414 . S
C698 C701 1.499 . S
C699 H673 0.950 . S
C699 C698 1.414 . S
C699 C700 1.374 . S
C700 H674 0.950 . S
C700 C696 1.385 . S
C700 C699 1.374 . S
C701 C698 1.499 . S
C701 C702 1.373 . S
C701 C703 1.389 . S
C702 H675 0.950 . S
C702 C688 1.377 . S
C702 C701 1.373 . S
C703 C687 1.377 . S
C703 C701 1.389 . S
C703 C704 1.524 . S
C704 C703 1.524 . S
C704 C705 1.397 . S
C704 C709 1.363 . S
C705 H676 0.950 . S
C705 C704 1.397 . S
C705 C706 1.334 . S
C706 H677 0.950 . S
C706 C705 1.334 . S
C706 C707 1.287 . S
C707 C706 1.287 . S
C707 C708 1.524 . S
C707 H710 0.999 . S
C708 H678 0.950 . S
C708 C707 1.524 . S
C708 C709 1.415 . S
C709 H679 0.950 . S
C709 C704 1.363 . S
C709 C708 1.415 . S
H710 C707 0.999 . S
H711 C692 0.913 . S
H712 C730 0.951 . S
H713 C732 0.951 . S
H714 C734 0.950 . S
H715 C735 0.950 . S
H716 C737 0.950 . S
H717 C740 0.950 . S
H718 C741 0.950 . S
H719 C743 0.950 . S
H720 C744 0.950 . S
H721 C745 0.951 . S
H722 C747 0.951 . S
H723 C749 0.950 . S
H724 C750 0.950 . S
H725 C752 0.950 . S
H726 C755 0.950 . S
H727 C756 0.950 . S
H728 C758 0.950 . S
H729 C759 0.950 . S
C730 H712 0.951 . S
C730 C731 1.366 . S
C730 C732 1.388 . S
C731 C730 1.366 . S
C731 C735 1.385 . S
C732 H713 0.951 . S
C732 C730 1.388 . S
C732 C733 1.366 . S
C733 C732 1.366 . S
C733 C734 1.414 . S
C733 C736 1.499 . S
C734 H714 0.950 . S
C734 C733 1.414 . S
C734 C735 1.374 . S
C735 H715 0.950 . S
C735 C731 1.385 . S
C735 C734 1.374 . S
C736 C733 1.499 . S
C736 C737 1.373 . S
C736 C738 1.389 . S
C737 H716 0.950 . S
C737 C736 1.373 . S
C737 C753 1.377 . S
C738 C736 1.389 . S
C738 C739 1.524 . S
C738 C752 1.377 . S
C739 C738 1.524 . S
C739 C740 1.397 . S
C739 C744 1.363 . S
C740 H717 0.950 . S
C740 C739 1.397 . S
C740 C741 1.334 . S
C741 H718 0.950 . S
C741 C740 1.334 . S
C741 C742 1.287 . S
C742 C741 1.287 . S
C742 C743 1.524 . S
C742 H761 0.913 . S
C743 H719 0.950 . S
C743 C742 1.524 . S
C743 C744 1.415 . S
C744 H720 0.950 . S
C744 C739 1.363 . S
C744 C743 1.415 . S
C745 H721 0.951 . S
C745 C746 1.366 . S
C745 C747 1.388 . S
C746 C745 1.366 . S
C746 C750 1.385 . S
C747 H722 0.951 . S
C747 C745 1.388 . S
C747 C748 1.366 . S
C748 C747 1.366 . S
C748 C749 1.414 . S
C748 C751 1.499 . S
C749 H723 0.950 . S
C749 C748 1.414 . S
C749 C750 1.374 . S
C750 H724 0.950 . S
C750 C746 1.385 . S
C750 C749 1.374 . S
C751 C748 1.499 . S
C751 C752 1.373 . S
C751 C753 1.389 . S
C752 H725 0.950 . S
C752 C738 1.377 . S
C752 C751 1.373 . S
C753 C737 1.377 . S
C753 C751 1.389 . S
C753 C754 1.524 . S
C754 C753 1.524 . S
C754 C755 1.397 . S
C754 C759 1.363 . S
C755 H726 0.950 . S
C755 C754 1.397 . S
C755 C756 1.334 . S
C756 H727 0.950 . S
C756 C755 1.334 . S
C756 C757 1.287 . S
C757 C756 1.287 . S
C757 C758 1.524 . S
C757 H760 0.999 . S
C758 H728 0.950 . S
C758 C757 1.524 . S
C758 C759 1.415 . S
C759 H729 0.950 . S
C759 C754 1.363 . S
C759 C758 1.415 . S
H760 C757 0.999 . S
H761 C742 0.913 . S
H762 C780 0.951 . S
H763 C782 0.951 . S
H764 C784 0.950 . S
H765 C785 0.950 . S
H766 C787 0.950 . S
H767 C790 0.950 . S
H768 C791 0.950 . S
H769 C793 0.950 . S
H770 C794 0.950 . S
H771 C795 0.951 . S
H772 C797 0.951 . S
H773 C799 0.950 . S
H774 C800 0.950 . S
H775 C802 0.950 . S
H776 C805 0.950 . S
H777 C806 0.950 . S
H778 C808 0.950 . S
H779 C809 0.950 . S
C780 H762 0.951 . S
C780 C781 1.366 . S
C780 C782 1.388 . S
C781 C780 1.366 . S
C781 C785 1.385 . S
C782 H763 0.951 . S
C782 C780 1.388 . S
C782 C783 1.366 . S
C783 C782 1.366 . S
C783 C784 1.414 . S
C783 C786 1.499 . S
C784 H764 0.950 . S
C784 C783 1.414 . S
C784 C785 1.374 . S
C785 H765 0.950 . S
C785 C781 1.385 . S
C785 C784 1.374 . S
C786 C783 1.499 . S
C786 C787 1.373 . S
C786 C788 1.389 . S
C787 H766 0.950 . S
C787 C786 1.373 . S
C787 C803 1.377 . S
C788 C786 1.389 . S
C788 C789 1.524 . S
C788 C802 1.377 . S
C789 C788 1.524 . S
C789 C790 1.397 . S
C789 C794 1.363 . S
C790 H767 0.950 . S
C790 C789 1.397 . S
C790 C791 1.334 . S
C791 H768 0.950 . S
C791 C790 1.334 . S
C791 C792 1.287 . S
C792 C791 1.287 . S
C792 C793 1.524 . S
C792 H811 0.913 . S
C793 H769 0.950 . S
C793 C792 1.524 . S
C793 C794 1.415 . S
C794 H770 0.950 . S
C794 C789 1.363 . S
C794 C793 1.415 . S
C795 H771 0.951 . S
C795 C796 1.366 . S
C795 C797 1.388 . S
C796 C795 1.366 . S
C796 C800 1.385 . S
C797 H772 0.951 . S
C797 C795 1.388 . S
C797 C798 1.366 . S
C798 C797 1.366 . S
C798 C799 1.414 . S
C798 C801 1.499 . S
C799 H773 0.950 . S
C799 C798 1.414 . S
C799 C800 1.374 . S
C800 H774 0.950 . S
C800 C796 1.385 . S
C800 C799 1.374 . S
C801 C798 1.499 . S
C801 C802 1.373 . S
C801 C803 1.389 . S
C802 H775 0.950 . S
C802 C788 1.377 . S
C802 C801 1.373 . S
C803 C787 1.377 . S
C803 C801 1.389 . S
C803 C804 1.524 . S
C804 C803 1.524 . S
C804 C805 1.397 . S
C804 C809 1.363 . S
C805 H776 0.950 . S
C805 C804 1.397 . S
C805 C806 1.334 . S
C806 H777 0.950 . S
C806 C805 1.334 . S
C806 C807 1.287 . S
C807 C806 1.287 . S
C807 C808 1.524 . S
C807 H810 0.999 . S
C808 H778 0.950 . S
C808 C807 1.524 . S
C808 C809 1.415 . S
C809 H779 0.950 . S
C809 C804 1.363 . S
C809 C808 1.415 . S
H810 C807 0.999 . S
H811 C792 0.913 . S
H812 C830 0.951 . S
H813 C832 0.951 . S
H814 C834 0.950 . S
H815 C835 0.950 . S
H816 C837 0.950 . S
H817 C840 0.950 . S
H818 C841 0.950 . S
H819 C843 0.950 . S
H820 C844 0.950 . S
H821 C845 0.951 . S
H822 C847 0.951 . S
H823 C849 0.950 . S
H824 C850 0.950 . S
H825 C852 0.950 . S
H826 C855 0.950 . S
H827 C856 0.950 . S
H828 C858 0.950 . S
H829 C859 0.950 . S
C830 H812 0.951 . S
C830 C831 1.366 . S
C830 C832 1.388 . S
C831 C830 1.366 . S
C831 C835 1.385 . S
C832 H813 0.951 . S
C832 C830 1.388 . S
C832 C833 1.366 . S
C833 C832 1.366 . S
C833 C834 1.414 . S
C833 C836 1.499 . S
C834 H814 0.950 . S
C834 C833 1.414 . S
C834 C835 1.374 . S
C835 H815 0.950 . S
C835 C831 1.385 . S
C835 C834 1.374 . S
C836 C833 1.499 . S
C836 C837 1.373 . S
C836 C838 1.389 . S
C837 H816 0.950 . S
C837 C836 1.373 . S
C837 C853 1.377 . S
C838 C836 1.389 . S
C838 C839 1.524 . S
C838 C852 1.377 . S
C839 C838 1.524 . S
C839 C840 1.397 . S
C839 C844 1.363 . S
C840 H817 0.950 . S
C840 C839 1.397 . S
C840 C841 1.334 . S
C841 H818 0.950 . S
C841 C840 1.334 . S
C841 C842 1.287 . S
C842 C841 1.287 . S
C842 C843 1.524 . S
C842 H861 0.913 . S
C843 H819 0.950 . S
C843 C842 1.524 . S
C843 C844 1.415 . S
C844 H820 0.950 . S
C844 C839 1.363 . S
C844 C843 1.415 . S
C845 H821 0.951 . S
C845 C846 1.366 . S
C845 C847 1.388 . S
C846 C845 1.366 . S
C846 C850 1.385 . S
C847 H822 0.951 . S
C847 C845 1.388 . S
C847 C848 1.366 . S
C848 C847 1.366 . S
C848 C849 1.414 . S
C848 C851 1.499 . S
C849 H823 0.950 . S
C849 C848 1.414 . S
C849 C850 1.374 . S
C850 H824 0.950 . S
C850 C846 1.385 . S
C850 C849 1.374 . S
C851 C848 1.499 . S
C851 C852 1.373 . S
C851 C853 1.389 . S
C852 H825 0.950 . S
C852 C838 1.377 . S
C852 C851 1.373 . S
C853 C837 1.377 . S
C853 C851 1.389 . S
C853 C854 1.524 . S
C854 C853 1.524 . S
C854 C855 1.397 . S
C854 C859 1.363 . S
C855 H826 0.950 . S
C855 C854 1.397 . S
C855 C856 1.334 . S
C856 H827 0.950 . S
C856 C855 1.334 . S
C856 C857 1.287 . S
C857 C856 1.287 . S
C857 C858 1.524 . S
C857 H860 0.999 . S
C858 H828 0.950 . S
C858 C857 1.524 . S
C858 C859 1.415 . S
C859 H829 0.950 . S
C859 C854 1.363 . S
C859 C858 1.415 . S
H860 C857 0.999 . S
H861 C842 0.913 . S
H862 C880 0.951 . S
H863 C882 0.951 . S
H864 C884 0.950 . S
H865 C885 0.950 . S
H866 C887 0.950 . S
H867 C890 0.950 . S
H868 C891 0.950 . S
H869 C893 0.950 . S
H870 C894 0.950 . S
H871 C895 0.951 . S
H872 C897 0.951 . S
H873 C899 0.950 . S
H874 C900 0.950 . S
H875 C902 0.950 . S
H876 C905 0.950 . S
H877 C906 0.950 . S
H878 C908 0.950 . S
H879 C909 0.950 . S
C880 H862 0.951 . S
C880 C881 1.366 . S
C880 C882 1.388 . S
C881 C880 1.366 . S
C881 C885 1.385 . S
C882 H863 0.951 . S
C882 C880 1.388 . S
C882 C883 1.366 . S
C883 C882 1.366 . S
C883 C884 1.414 . S
C883 C886 1.499 . S
C884 H864 0.950 . S
C884 C883 1.414 . S
C884 C885 1.374 . S
C885 H865 0.950 . S
C885 C881 1.385 . S
C885 C884 1.374 . S
C886 C883 1.499 . S
C886 C887 1.373 . S
C886 C888 1.389 . S
C887 H866 0.950 . S
C887 C886 1.373 . S
C887 C903 1.377 . S
C888 C886 1.389 . S
C888 C889 1.524 . S
C888 C902 1.377 . S
C889 C888 1.524 . S
C889 C890 1.397 . S
C889 C894 1.363 . S
C890 H867 0.950 . S
C890 C889 1.397 . S
C890 C891 1.334 . S
C891 H868 0.950 . S
C891 C890 1.334 . S
C891 C892 1.287 . S
C892 C891 1.287 . S
C892 C893 1.524 . S
C892 H911 0.913 . S
C893 H869 0.950 . S
C893 C892 1.524 . S
C893 C894 1.415 . S
C894 H870 0.950 . S
C894 C889 1.363 . S
C894 C893 1.415 . S
C895 H871 0.951 . S
C895 C896 1.366 . S
C895 C897 1.388 . S
C896 C895 1.366 . S
C896 C900 1.385 . S
C897 H872 0.951 . S
C897 C895 1.388 . S
C897 C898 1.366 . S
C898 C897 1.366 . S
C898 C899 1.414 . S
C898 C901 1.499 . S
C899 H873 0.950 . S
C899 C898 1.414 . S
C899 C900 1.374 . S
C900 H874 0.950 . S
C900 C896 1.385 . S
C900 C899 1.374 . S
C901 C898 1.499 . S
C901 C902 1.373 . S
C901 C903 1.389 . S
C902 H875 0.950 . S
C902 C888 1.377 . S
C902 C901 1.373 . S
C903 C887 1.377 . S
C903 C901 1.389 . S
C903 C904 1.524 . S
C904 C903 1.524 . S
C904 C905 1.397 . S
C904 C909 1.363 . S
C905 H876 0.950 . S
C905 C904 1.397 . S
C905 C906 1.334 . S
C906 H877 0.950 . S
C906 C905 1.334 . S
C906 C907 1.287 . S
C907 C906 1.287 . S
C907 C908 1.524 . S
C907 H910 0.999 . S
C908 H878 0.950 . S
C908 C907 1.524 . S
C908 C909 1.415 . S
C909 H879 0.950 . S
C909 C904 1.363 . S
C909 C908 1.415 . S
H910 C907 0.999 . S
H911 C892 0.913 . S
H912 C930 0.951 . S
H913 C932 0.951 . S
H914 C934 0.950 . S
H915 C935 0.950 . S
H916 C937 0.950 . S
H917 C940 0.950 . S
H918 C941 0.950 . S
H919 C943 0.950 . S
H920 C944 0.950 . S
H921 C945 0.951 . S
H922 C947 0.951 . S
H923 C949 0.950 . S
H924 C950 0.950 . S
H925 C952 0.950 . S
H926 C955 0.950 . S
H927 C956 0.950 . S
H928 C958 0.950 . S
H929 C959 0.950 . S
C930 H912 0.951 . S
C930 C931 1.366 . S
C930 C932 1.388 . S
C931 C930 1.366 . S
C931 C935 1.385 . S
C932 H913 0.951 . S
C932 C930 1.388 . S
C932 C933 1.366 . S
C933 C932 1.366 . S
C933 C934 1.414 . S
C933 C936 1.499 . S
C934 H914 0.950 . S
C934 C933 1.414 . S
C934 C935 1.374 . S
C935 H915 0.950 . S
C935 C931 1.385 . S
C935 C934 1.374 . S
C936 C933 1.499 . S
C936 C937 1.373 . S
C936 C938 1.389 . S
C937 H916 0.950 . S
C937 C936 1.373 . S
C937 C953 1.377 . S
C938 C936 1.389 . S
C938 C939 1.524 . S
C938 C952 1.377 . S
C939 C938 1.524 . S
C939 C940 1.397 . S
C939 C944 1.363 . S
C940 H917 0.950 . S
C940 C939 1.397 . S
C940 C941 1.334 . S
C941 H918 0.950 . S
C941 C940 1.334 . S
C941 C942 1.287 . S
C942 C941 1.287 . S
C942 C943 1.524 . S
C942 H961 0.913 . S
C943 H919 0.950 . S
C943 C942 1.524 . S
C943 C944 1.415 . S
C944 H920 0.950 . S
C944 C939 1.363 . S
C944 C943 1.415 . S
C945 H921 0.951 . S
C945 C946 1.366 . S
C945 C947 1.388 . S
C946 C945 1.366 . S
C946 C950 1.385 . S
C947 H922 0.951 . S
C947 C945 1.388 . S
C947 C948 1.366 . S
C948 C947 1.366 . S
C948 C949 1.414 . S
C948 C951 1.499 . S
C949 H923 0.950 . S
C949 C948 1.414 . S
C949 C950 1.374 . S
C950 H924 0.950 . S
C950 C946 1.385 . S
C950 C949 1.374 . S
C951 C948 1.499 . S
C951 C952 1.373 . S
C951 C953 1.389 . S
C952 H925 0.950 . S
C952 C938 1.377 . S
C952 C951 1.373 . S
C953 C937 1.377 . S
C953 C951 1.389 . S
C953 C954 1.524 . S
C954 C953 1.524 . S
C954 C955 1.397 . S
C954 C959 1.363 . S
C955 H926 0.950 . S
C955 C954 1.397 . S
C955 C956 1.334 . S
C956 H927 0.950 . S
C956 C955 1.334 . S
C956 C957 1.287 . S
C957 C956 1.287 . S
C957 C958 1.524 . S
C957 H960 0.999 . S
C958 H928 0.950 . S
C958 C957 1.524 . S
C958 C959 1.415 . S
C959 H929 0.950 . S
C959 C954 1.363 . S
C959 C958 1.415 . S
H960 C957 0.999 . S
H961 C942 0.913 . S
H962 C980 0.951 . S
H963 C982 0.951 . S
H964 C984 0.950 . S
H965 C985 0.950 . S
H966 C987 0.950 . S
H967 C990 0.950 . S
H968 C991 0.950 . S
H969 C993 0.950 . S
H970 C994 0.950 . S
H971 C995 0.951 . S
H972 C997 0.951 . S
H973 C999 0.950 . S
H974 C1000 0.950 . S
H975 C1002 0.950 . S
H976 C1005 0.950 . S
H977 C1006 0.950 . S
H978 C1008 0.950 . S
H979 C1009 0.950 . S
C980 H962 0.951 . S
C980 C981 1.366 . S
C980 C982 1.388 . S
C981 C980 1.366 . S
C981 C985 1.385 . S
C982 H963 0.951 . S
C982 C980 1.388 . S
C982 C983 1.366 . S
C983 C982 1.366 . S
C983 C984 1.414 . S
C983 C986 1.499 . S
C984 H964 0.950 . S
C984 C983 1.414 . S
C984 C985 1.374 . S
C985 H965 0.950 . S
C985 C981 1.385 . S
C985 C984 1.374 . S
C986 C983 1.499 . S
C986 C987 1.373 . S
C986 C988 1.389 . S
C987 H966 0.950 . S
C987 C986 1.373 . S
C987 C1003 1.377 . S
C988 C986 1.389 . S
C988 C989 1.524 . S
C988 C1002 1.377 . S
C989 C988 1.524 . S
C989 C990 1.397 . S
C989 C994 1.363 . S
C990 H967 0.950 . S
C990 C989 1.397 . S
C990 C991 1.334 . S
C991 H968 0.950 . S
C991 C990 1.334 . S
C991 C992 1.287 . S
C992 C991 1.287 . S
C992 C993 1.524 . S
C992 H1011 0.913 . S
C993 H969 0.950 . S
C993 C992 1.524 . S
C993 C994 1.415 . S
C994 H970 0.950 . S
C994 C989 1.363 . S
C994 C993 1.415 . S
C995 H971 0.951 . S
C995 C996 1.366 . S
C995 C997 1.388 . S
C996 C995 1.366 . S
C996 C1000 1.385 . S
C997 H972 0.951 . S
C997 C995 1.388 . S
C997 C998 1.366 . S
C998 C997 1.366 . S
C998 C999 1.414 . S
C998 C1001 1.499 . S
C999 H973 0.950 . S
C999 C998 1.414 . S
C999 C1000 1.374 . S
C1000 H974 0.950 . S
C1000 C996 1.385 . S
C1000 C999 1.374 . S
C1001 C998 1.499 . S
C1001 C1002 1.373 . S
C1001 C1003 1.389 . S
C1002 H975 0.950 . S
C1002 C988 1.377 . S
C1002 C1001 1.373 . S
C1003 C987 1.377 . S
C1003 C1001 1.389 . S
C1003 C1004 1.524 . S
C1004 C1003 1.524 . S
C1004 C1005 1.397 . S
C1004 C1009 1.363 . S
C1005 H976 0.950 . S
C1005 C1004 1.397 . S
C1005 C1006 1.334 . S
C1006 H977 0.950 . S
C1006 C1005 1.334 . S
C1006 C1007 1.287 . S
C1007 C1006 1.287 . S
C1007 C1008 1.524 . S
C1007 H1010 0.999 . S
C1008 H978 0.950 . S
C1008 C1007 1.524 . S
C1008 C1009 1.415 . S
C1009 H979 0.950 . S
C1009 C1004 1.363 . S
C1009 C1008 1.415 . S
H1010 C1007 0.999 . S
H1011 C992 0.913 . S
H1012 C1030 0.951 . S
H1013 C1032 0.951 . S
H1014 C1034 0.950 . S
H1015 C1035 0.950 . S
H1016 C1037 0.950 . S
H1017 C1040 0.950 . S
H1018 C1041 0.950 . S
H1019 C1043 0.950 . S
H1020 C1044 0.950 . S
H1021 C1045 0.951 . S
H1022 C1047 0.951 . S
H1023 C1049 0.950 . S
H1024 C1050 0.950 . S
H1025 C1052 0.950 . S
H1026 C1055 0.950 . S
H1027 C1056 0.950 . S
H1028 C1058 0.950 . S
H1029 C1059 0.950 . S
C1030 H1012 0.951 . S
C1030 C1031 1.366 . S
C1030 C1032 1.388 . S
C1031 C1030 1.366 . S
C1031 C1035 1.385 . S
C1032 H1013 0.951 . S
C1032 C1030 1.388 . S
C1032 C1033 1.366 . S
C1033 C1032 1.366 . S
C1033 C1034 1.414 . S
C1033 C1036 1.499 . S
C1034 H1014 0.950 . S
C1034 C1033 1.414 . S
C1034 C1035 1.374 . S
C1035 H1015 0.950 . S
C1035 C1031 1.385 . S
C1035 C1034 1.374 . S
C1036 C1033 1.499 . S
C1036 C1037 1.373 . S
C1036 C1038 1.389 . S
C1037 H1016 0.950 . S
C1037 C1036 1.373 . S
C1037 C1053 1.377 . S
C1038 C1036 1.389 . S
C1038 C1039 1.524 . S
C1038 C1052 1.377 . S
C1039 C1038 1.524 . S
C1039 C1040 1.397 . S
C1039 C1044 1.363 . S
C1040 H1017 0.950 . S
C1040 C1039 1.397 . S
C1040 C1041 1.334 . S
C1041 H1018 0.950 . S
C1041 C1040 1.334 . S
C1041 C1042 1.287 . S
C1042 C1041 1.287 . S
C1042 C1043 1.524 . S
C1042 H1061 0.913 . S
C1043 H1019 0.950 . S
C1043 C1042 1.524 . S
C1043 C1044 1.415 . S
C1044 H1020 0.950 . S
C1044 C1039 1.363 . S
C1044 C1043 1.415 . S
C1045 H1021 0.951 . S
C1045 C1046 1.366 . S
C1045 C1047 1.388 . S
C1046 C1045 1.366 . S
C1046 C1050 1.385 . S
C1047 H1022 0.951 . S
C1047 C1045 1.388 . S
C1047 C1048 1.366 . S
C1048 C1047 1.366 . S
C1048 C1049 1.414 . S
C1048 C1051 1.499 . S
C1049 H1023 0.950 . S
C1049 C1048 1.414 . S
C1049 C1050 1.374 . S
C1050 H1024 0.950 . S
C1050 C1046 1.385 . S
C1050 C1049 1.374 . S
C1051 C1048 1.499 . S
C1051 C1052 1.373 . S
C1051 C1053 1.389 . S
C1052 H1025 0.950 . S
C1052 C1038 1.377 . S
C1052 C1051 1.373 . S
C1053 C1037 1.377 . S
C1053 C1051 1.389 . S
C1053 C1054 1.524 . S
C1054 C1053 1.524 . S
C1054 C1055 1.397 . S
C1054 C1059 1.363 . S
C1055 H1026 0.950 . S
C1055 C1054 1.397 . S
C1055 C1056 1.334 . S
C1056 H1027 0.950 . S
C1056 C1055 1.334 . S
C1056 C1057 1.287 . S
C1057 C1056 1.287 . S
C1057 C1058 1.524 . S
C1057 H1060 0.999 . S
C1058 H1028 0.950 . S
C1058 C1057 1.524 . S
C1058 C1059 1.415 . S
C1059 H1029 0.950 . S
C1059 C1054 1.363 . S
C1059 C1058 1.415 . S
H1060 C1057 0.999 . S
H1061 C1042 0.913 . S
H1062 C1080 0.951 . S
H1063 C1082 0.951 . S
H1064 C1084 0.950 . S
H1065 C1085 0.950 . S
H1066 C1087 0.950 . S
H1067 C1090 0.950 . S
H1068 C1091 0.950 . S
H1069 C1093 0.950 . S
H1070 C1094 0.950 . S
H1071 C1095 0.951 . S
H1072 C1097 0.951 . S
H1073 C1099 0.950 . S
H1074 C1100 0.950 . S
H1075 C1102 0.950 . S
H1076 C1105 0.950 . S
H1077 C1106 0.950 . S
H1078 C1108 0.950 . S
H1079 C1109 0.950 . S
C1080 H1062 0.951 . S
C1080 C1081 1.366 . S
C1080 C1082 1.388 . S
C1081 C1080 1.366 . S
C1081 C1085 1.385 . S
C1082 H1063 0.951 . S
C1082 C1080 1.388 . S
C1082 C1083 1.366 . S
C1083 C1082 1.366 . S
C1083 C1084 1.414 . S
C1083 C1086 1.499 . S
C1084 H1064 0.950 . S
C1084 C1083 1.414 . S
C1084 C1085 1.374 . S
C1085 H1065 0.950 . S
C1085 C1081 1.385 . S
C1085 C1084 1.374 . S
C1086 C1083 1.499 . S
C1086 C1087 1.373 . S
C1086 C1088 1.389 . S
C1087 H1066 0.950 . S
C1087 C1086 1.373 . S
C1087 C1103 1.377 . S
C1088 C1086 1.389 . S
C1088 C1089 1.524 . S
C1088 C1102 1.377 . S
C1089 C1088 1.524 . S
C1089 C1090 1.397 . S
C1089 C1094 1.363 . S
C1090 H1067 0.950 . S
C1090 C1089 1.397 . S
C1090 C1091 1.334 . S
C1091 H1068 0.950 . S
C1091 C1090 1.334 . S
C1091 C1092 1.287 . S
C1092 C1091 1.287 . S
C1092 C1093 1.524 . S
C1092 H1111 0.913 . S
C1093 H1069 0.950 . S
C1093 C1092 1.524 . S
C1093 C1094 1.415 . S
C1094 H1070 0.950 . S
C1094 C1089 1.363 . S
C1094 C1093 1.415 . S
C1095 H1071 0.951 . S
C1095 C1096 1.366 . S
C1095 C1097 1.388 . S
C1096 C1095 1.366 . S
C1096 C1100 1.385 . S
C1097 H1072 0.951 . S
C1097 C1095 1.388 . S
C1097 C1098 1.366 . S
C1098 C1097 1.366 . S
C1098 C1099 1.414 . S
C1098 C1101 1.499 . S
C1099 H1073 0.950 . S
C1099 C1098 1.414 . S
C1099 C1100 1.374 . S
C1100 H1074 0.950 . S
C1100 C1096 1.385 . S
C1100 C1099 1.374 . S
C1101 C1098 1.499 . S
C1101 C1102 1.373 . S
C1101 C1103 1.389 . S
C1102 H1075 0.950 . S
C1102 C1088 1.377 . S
C1102 C1101 1.373 . S
C1103 C1087 1.377 . S
C1103 C1101 1.389 . S
C1103 C1104 1.524 . S
C1104 C1103 1.524 . S
C1104 C1105 1.397 . S
C1104 C1109 1.363 . S
C1105 H1076 0.950 . S
C1105 C1104 1.397 . S
C1105 C1106 1.334 . S
C1106 H1077 0.950 . S
C1106 C1105 1.334 . S
C1106 C1107 1.287 . S
C1107 C1106 1.287 . S
C1107 C1108 1.524 . S
C1107 H1110 0.999 . S
C1108 H1078 0.950 . S
C1108 C1107 1.524 . S
C1108 C1109 1.415 . S
C1109 H1079 0.950 . S
C1109 C1104 1.363 . S
C1109 C1108 1.415 . S
H1110 C1107 0.999 . S
H1111 C1092 0.913 . S
H1112 C1130 0.951 . S
H1113 C1132 0.951 . S
H1114 C1134 0.950 . S
H1115 C1135 0.950 . S
H1116 C1137 0.950 . S
H1117 C1140 0.950 . S
H1118 C1141 0.950 . S
H1119 C1143 0.950 . S
H1120 C1144 0.950 . S
H1121 C1145 0.951 . S
H1122 C1147 0.951 . S
H1123 C1149 0.950 . S
H1124 C1150 0.950 . S
H1125 C1152 0.950 . S
H1126 C1155 0.950 . S
H1127 C1156 0.950 . S
H1128 C1158 0.950 . S
H1129 C1159 0.950 . S
C1130 H1112 0.951 . S
C1130 C1131 1.366 . S
C1130 C1132 1.388 . S
C1131 C1130 1.366 . S
C1131 C1135 1.385 . S
C1132 H1113 0.951 . S
C1132 C1130 1.388 . S
C1132 C1133 1.366 . S
C1133 C1132 1.366 . S
C1133 C1134 1.414 . S
C1133 C1136 1.499 . S
C1134 H1114 0.950 . S
C1134 C1133 1.414 . S
C1134 C1135 1.374 . S
C1135 H1115 0.950 . S
C1135 C1131 1.385 . S
C1135 C1134 1.374 . S
C1136 C1133 1.499 . S
C1136 C1137 1.373 . S
C1136 C1138 1.389 . S
C1137 H1116 0.950 . S
C1137 C1136 1.373 . S
C1137 C1153 1.377 . S
C1138 C1136 1.389 . S
C1138 C1139 1.524 . S
C1138 C1152 1.377 . S
C1139 C1138 1.524 . S
C1139 C1140 1.397 . S
C1139 C1144 1.363 . S
C1140 H1117 0.950 . S
C1140 C1139 1.397 . S
C1140 C1141 1.334 . S
C1141 H1118 0.950 . S
C1141 C1140 1.334 . S
C1141 C1142 1.287 . S
C1142 C1141 1.287 . S
C1142 C1143 1.524 . S
C1142 H1161 0.913 . S
C1143 H1119 0.950 . S
C1143 C1142 1.524 . S
C1143 C1144 1.415 . S
C1144 H1120 0.950 . S
C1144 C1139 1.363 . S
C1144 C1143 1.415 . S
C1145 H1121 0.951 . S
C1145 C1146 1.366 . S
C1145 C1147 1.388 . S
C1146 C1145 1.366 . S
C1146 C1150 1.385 . S
C1147 H1122 0.951 . S
C1147 C1145 1.388 . S
C1147 C1148 1.366 . S
C1148 C1147 1.366 . S
C1148 C1149 1.414 . S
C1148 C1151 1.499 . S
C1149 H1123 0.950 . S
C1149 C1148 1.414 . S
C1149 C1150 1.374 . S
C1150 H1124 0.950 . S
C1150 C1146 1.385 . S
C1150 C1149 1.374 . S
C1151 C1148 1.499 . S
C1151 C1152 1.373 . S
C1151 C1153 1.389 . S
C1152 H1125 0.950 . S
C1152 C1138 1.377 . S
C1152 C1151 1.373 . S
C1153 C1137 1.377 . S
C1153 C1151 1.389 . S
C1153 C1154 1.524 . S
C1154 C1153 1.524 . S
C1154 C1155 1.397 . S
C1154 C1159 1.363 . S
C1155 H1126 0.950 . S
C1155 C1154 1.397 . S
C1155 C1156 1.334 . S
C1156 H1127 0.950 . S
C1156 C1155 1.334 . S
C1156 C1157 1.287 . S
C1157 C1156 1.287 . S
C1157 C1158 1.524 . S
C1157 H1160 0.999 . S
C1158 H1128 0.950 . S
C1158 C1157 1.524 . S
C1158 C1159 1.415 . S
C1159 H1129 0.950 . S
C1159 C1154 1.363 . S
C1159 C1158 1.415 . S
H1160 C1157 0.999 . S
H1161 C1142 0.913 . S
H1162 C1180 0.951 . S
H1163 C1182 0.951 . S
H1164 C1184 0.950 . S
H1165 C1185 0.950 . S
H1166 C1187 0.950 . S
H1167 C1190 0.950 . S
H1168 C1191 0.950 . S
H1169 C1193 0.950 . S
H1170 C1194 0.950 . S
H1171 C1195 0.951 . S
H1172 C1197 0.951 . S
H1173 C1199 0.950 . S
H1174 C1200 0.950 . S
H1175 C1202 0.950 . S
H1176 C1205 0.950 . S
H1177 C1206 0.950 . S
H1178 C1208 0.950 . S
H1179 C1209 0.950 . S
C1180 H1162 0.951 . S
C1180 C1181 1.366 . S
C1180 C1182 1.388 . S
C1181 C1180 1.366 . S
C1181 C1185 1.385 . S
C1182 H1163 0.951 . S
C1182 C1180 1.388 . S
C1182 C1183 1.366 . S
C1183 C1182 1.366 . S
C1183 C1184 1.414 . S
C1183 C1186 1.499 . S
C1184 H1164 0.950 . S
C1184 C1183 1.414 . S
C1184 C1185 1.374 . S
C1185 H1165 0.950 . S
C1185 C1181 1.385 . S
C1185 C1184 1.374 . S
C1186 C1183 1.499 . S
C1186 C1187 1.373 . S
C1186 C1188 1.389 . S
C1187 H1166 0.950 . S
C1187 C1186 1.373 . S
C1187 C1203 1.377 . S
C1188 C1186 1.389 . S
C1188 C1189 1.524 . S
C1188 C1202 1.377 . S
C1189 C1188 1.524 . S
C1189 C1190 1.397 . S
C1189 C1194 1.363 . S
C1190 H1167 0.950 . S
C1190 C1189 1.397 . S
C1190 C1191 1.334 . S
C1191 H1168 0.950 . S
C1191 C1190 1.334 . S
C1191 C1192 1.287 . S
C1192 C1191 1.287 . S
C1192 C1193 1.524 . S
C1192 H1211 0.913 . S
C1193 H1169 0.950 . S
C1193 C1192 1.524 . S
C1193 C1194 1.415 . S
C1194 H1170 0.950 . S
C1194 C1189 1.363 . S
C1194 C1193 1.415 . S
C1195 H1171 0.951 . S
C1195 C1196 1.366 . S
C1195 C1197 1.388 . S
C1196 C1195 1.366 . S
C1196 C1200 1.385 . S
C1197 H1172 0.951 . S
C1197 C1195 1.388 . S
C1197 C1198 1.366 . S
C1198 C1197 1.366 . S
C1198 C1199 1.414 . S
C1198 C1201 1.499 . S
C1199 H1173 0.950 . S
C1199 C1198 1.414 . S
C1199 C1200 1.374 . S
C1200 H1174 0.950 . S
C1200 C1196 1.385 . S
C1200 C1199 1.374 . S
C1201 C1198 1.499 . S
C1201 C1202 1.373 . S
C1201 C1203 1.389 . S
C1202 H1175 0.950 . S
C1202 C1188 1.377 . S
C1202 C1201 1.373 . S
C1203 C1187 1.377 . S
C1203 C1201 1.389 . S
C1203 C1204 1.524 . S
C1204 C1203 1.524 . S
C1204 C1205 1.397 . S
C1204 C1209 1.363 . S
C1205 H1176 0.950 . S
C1205 C1204 1.397 . S
C1205 C1206 1.334 . S
C1206 H1177 0.950 . S
C1206 C1205 1.334 . S
C1206 C1207 1.287 . S
C1207 C1206 1.287 . S
C1207 C1208 1.524 . S
C1207 H1210 0.999 . S
C1208 H1178 0.950 . S
C1208 C1207 1.524 . S
C1208 C1209 1.415 . S
C1209 H1179 0.950 . S
C1209 C1204 1.363 . S
C1209 C1208 1.415 . S
H1210 C1207 0.999 . S
H1211 C1192 0.913 . S
H1212 C1230 0.951 . S
H1213 C1232 0.951 . S
H1214 C1234 0.950 . S
H1215 C1235 0.950 . S
H1216 C1237 0.950 . S
H1217 C1240 0.950 . S
H1218 C1241 0.950 . S
H1219 C1243 0.950 . S
H1220 C1244 0.950 . S
H1221 C1245 0.951 . S
H1222 C1247 0.951 . S
H1223 C1249 0.950 . S
H1224 C1250 0.950 . S
H1225 C1252 0.950 . S
H1226 C1255 0.950 . S
H1227 C1256 0.950 . S
H1228 C1258 0.950 . S
H1229 C1259 0.950 . S
C1230 H1212 0.951 . S
C1230 C1231 1.366 . S
C1230 C1232 1.388 . S
C1231 C1230 1.366 . S
C1231 C1235 1.385 . S
C1232 H1213 0.951 . S
C1232 C1230 1.388 . S
C1232 C1233 1.366 . S
C1233 C1232 1.366 . S
C1233 C1234 1.414 . S
C1233 C1236 1.499 . S
C1234 H1214 0.950 . S
C1234 C1233 1.414 . S
C1234 C1235 1.374 . S
C1235 H1215 0.950 . S
C1235 C1231 1.385 . S
C1235 C1234 1.374 . S
C1236 C1233 1.499 . S
C1236 C1237 1.373 . S
C1236 C1238 1.389 . S
C1237 H1216 0.950 . S
C1237 C1236 1.373 . S
C1237 C1253 1.377 . S
C1238 C1236 1.389 . S
C1238 C1239 1.524 . S
C1238 C1252 1.377 . S
C1239 C1238 1.524 . S
C1239 C1240 1.397 . S
C1239 C1244 1.363 . S
C1240 H1217 0.950 . S
C1240 C1239 1.397 . S
C1240 C1241 1.334 . S
C1241 H1218 0.950 . S
C1241 C1240 1.334 . S
C1241 C1242 1.287 . S
C1242 C1241 1.287 . S
C1242 C1243 1.524 . S
C1242 H1261 0.913 . S
C1243 H1219 0.950 . S
C1243 C1242 1.524 . S
C1243 C1244 1.415 . S
C1244 H1220 0.950 . S
C1244 C1239 1.363 . S
C1244 C1243 1.415 . S
C1245 H1221 0.951 . S
C1245 C1246 1.366 . S
C1245 C1247 1.388 . S
C1246 C1245 1.366 . S
C1246 C1250 1.385 . S
C1247 H1222 0.951 . S
C1247 C1245 1.388 . S
C1247 C1248 1.366 . S
C1248 C1247 1.366 . S
C1248 C1249 1.414 . S
C1248 C1251 1.499 . S
C1249 H1223 0.950 . S
C1249 C1248 1.414 . S
C1249 C1250 1.374 . S
C1250 H1224 0.950 . S
C1250 C1246 1.385 . S
C1250 C1249 1.374 . S
C1251 C1248 1.499 . S
C1251 C1252 1.373 . S
C1251 C1253 1.389 . S
C1252 H1225 0.950 . S
C1252 C1238 1.377 . S
C1252 C1251 1.373 . S
C1253 C1237 1.377 . S
C1253 C1251 1.389 . S
C1253 C1254 1.524 . S
C1254 C1253 1.524 . S
C1254 C1255 1.397 . S
C1254 C1259 1.363 . S
C1255 H1226 0.950 . S
C1255 C1254 1.397 . S
C1255 C1256 1.334 . S
C1256 H1227 0.950 . S
C1256 C1255 1.334 . S
C1256 C1257 1.287 . S
C1257 C1256 1.287 . S
C1257 C1258 1.524 . S
C1257 H1260 0.999 . S
C1258 H1228 0.950 . S
C1258 C1257 1.524 . S
C1258 C1259 1.415 . S
C1259 H1229 0.950 . S
C1259 C1254 1.363 . S
C1259 C1258 1.415 . S
H1260 C1257 0.999 . S
H1261 C1242 0.913 . S
H1262 C1280 0.951 . S
H1263 C1282 0.951 . S
H1264 C1284 0.950 . S
H1265 C1285 0.950 . S
H1266 C1287 0.950 . S
H1267 C1290 0.950 . S
H1268 C1291 0.950 . S
H1269 C1293 0.950 . S
H1270 C1294 0.950 . S
H1271 C1295 0.951 . S
H1272 C1297 0.951 . S
H1273 C1299 0.950 . S
H1274 C1300 0.950 . S
H1275 C1302 0.950 . S
H1276 C1305 0.950 . S
H1277 C1306 0.950 . S
H1278 C1308 0.950 . S
H1279 C1309 0.950 . S
C1280 H1262 0.951 . S
C1280 C1281 1.366 . S
C1280 C1282 1.388 . S
C1281 C1280 1.366 . S
C1281 C1285 1.385 . S
C1282 H1263 0.951 . S
C1282 C1280 1.388 . S
C1282 C1283 1.366 . S
C1283 C1282 1.366 . S
C1283 C1284 1.414 . S
C1283 C1286 1.499 . S
C1284 H1264 0.950 . S
C1284 C1283 1.414 . S
C1284 C1285 1.374 . S
C1285 H1265 0.950 . S
C1285 C1281 1.385 . S
C1285 C1284 1.374 . S
C1286 C1283 1.499 . S
C1286 C1287 1.373 . S
C1286 C1288 1.389 . S
C1287 H1266 0.950 . S
C1287 C1286 1.373 . S
C1287 C1303 1.377 . S
C1288 C1286 1.389 . S
C1288 C1289 1.524 . S
C1288 C1302 1.377 . S
C1289 C1288 1.524 . S
C1289 C1290 1.397 . S
C1289 C1294 1.363 . S
C1290 H1267 0.950 . S
C1290 C1289 1.397 . S
C1290 C1291 1.334 . S
C1291 H1268 0.950 . S
C1291 C1290 1.334 . S
C1291 C1292 1.287 . S
C1292 C1291 1.287 . S
C1292 C1293 1.524 . S
C1292 H1311 0.913 . S
C1293 H1269 0.950 . S
C1293 C1292 1.524 . S
C1293 C1294 1.415 . S
C1294 H1270 0.950 . S
C1294 C1289 1.363 . S
C1294 C1293 1.415 . S
C1295 H1271 0.951 . S
C1295 C1296 1.366 . S
C1295 C1297 1.388 . S
C1296 C1295 1.366 . S
C1296 C1300 1.385 . S
C1297 H1272 0.951 . S
C1297 C1295 1.388 . S
C1297 C1298 1.366 . S
C1298 C1297 1.366 . S
C1298 C1299 1.414 . S
C1298 C1301 1.499 . S
C1299 H1273 0.950 . S
C1299 C1298 1.414 . S
C1299 C1300 1.374 . S
C1300 H1274 0.950 . S
C1300 C1296 1.385 . S
C1300 C1299 1.374 . S
C1301 C1298 1.499 . S
C1301 C1302 1.373 . S
C1301 C1303 1.389 . S
C1302 H1275 0.950 . S
C1302 C1288 1.377 . S
C1302 C1301 1.373 . S
C1303 C1287 1.377 . S
C1303 C1301 1.389 . S
C1303 C1304 1.524 . S
C1304 C1303 1.524 . S
C1304 C1305 1.397 . S
C1304 C1309 1.363 . S
C1305 H1276 0.950 . S
C1305 C1304 1.397 . S
C1305 C1306 1.334 . S
C1306 H1277 0.950 . S
C1306 C1305 1.334 . S
C1306 C1307 1.287 . S
C1307 C1306 1.287 . S
C1307 C1308 1.524 . S
C1307 H1310 0.999 . S
C1308 H1278 0.950 . S
C1308 C1307 1.524 . S
C1308 C1309 1.415 . S
C1309 H1279 0.950 . S
C1309 C1304 1.363 . S
C1309 C1308 1.415 . S
H1310 C1307 0.999 . S
H1311 C1292 0.913 . S
H1312 C1330 0.951 . S
H1313 C1332 0.951 . S
H1314 C1334 0.950 . S
H1315 C1335 0.950 . S
H1316 C1337 0.950 . S
H1317 C1340 0.950 . S
H1318 C1341 0.950 . S
H1319 C1343 0.950 . S
H1320 C1344 0.950 . S
H1321 C1345 0.951 . S
H1322 C1347 0.951 . S
H1323 C1349 0.950 . S
H1324 C1350 0.950 . S
H1325 C1352 0.950 . S
H1326 C1355 0.950 . S
H1327 C1356 0.950 . S
H1328 C1358 0.950 . S
H1329 C1359 0.950 . S
C1330 H1312 0.951 . S
C1330 C1331 1.366 . S
C1330 C1332 1.388 . S
C1331 C1330 1.366 . S
C1331 C1335 1.385 . S
C1332 H1313 0.951 . S
C1332 C1330 1.388 . S
C1332 C1333 1.366 . S
C1333 C1332 1.366 . S
C1333 C1334 1.414 . S
C1333 C1336 1.499 . S
C1334 H1314 0.950 . S
C1334 C1333 1.414 . S
C1334 C1335 1.374 . S
C1335 H1315 0.950 . S
C1335 C1331 1.385 . S
C1335 C1334 1.374 . S
C1336 C1333 1.499 . S
C1336 C1337 1.373 . S
C1336 C1338 1.389 . S
C1337 H1316 0.950 . S
C1337 C1336 1.373 . S
C1337 C1353 1.377 . S
C1338 C1336 1.389 . S
C1338 C1339 1.524 . S
C1338 C1352 1.377 . S
C1339 C1338 1.524 . S
C1339 C1340 1.397 . S
C1339 C1344 1.363 . S
C1340 H1317 0.950 . S
C1340 C1339 1.397 . S
C1340 C1341 1.334 . S
C1341 H1318 0.950 . S
C1341 C1340 1.334 . S
C1341 C1342 1.287 . S
C1342 C1341 1.287 . S
C1342 C1343 1.524 . S
C1342 H1361 0.913 . S
C1343 H1319 0.950 . S
C1343 C1342 1.524 . S
C1343 C1344 1.415 . S
C1344 H1320 0.950 . S
C1344 C1339 1.363 . S
C1344 C1343 1.415 . S
C1345 H1321 0.951 . S
C1345 C1346 1.366 . S
C1345 C1347 1.388 . S
C1346 C1345 1.366 . S
C1346 C1350 1.385 . S
C1347 H1322 0.951 . S
C1347 C1345 1.388 . S
C1347 C1348 1.366 . S
C1348 C1347 1.366 . S
C1348 C1349 1.414 . S
C1348 C1351 1.499 . S
C1349 H1323 0.950 . S
C1349 C1348 1.414 . S
C1349 C1350 1.374 . S
C1350 H1324 0.950 . S
C1350 C1346 1.385 . S
C1350 C1349 1.374 . S
C1351 C1348 1.499 . S
C1351 C1352 1.373 . S
C1351 C1353 1.389 . S
C1352 H1325 0.950 . S
C1352 C1338 1.377 . S
C1352 C1351 1.373 . S
C1353 C1337 1.377 . S
C1353 C1351 1.389 . S
C1353 C1354 1.524 . S
C1354 C1353 1.524 . S
C1354 C1355 1.397 . S
C1354 C1359 1.363 . S
C1355 H1326 0.950 . S
C1355 C1354 1.397 . S
C1355 C1356 1.334 . S
C1356 H1327 0.950 . S
C1356 C1355 1.334 . S
C1356 C1357 1.287 . S
C1357 C1356 1.287 . S
C1357 C1358 1.524 . S
C1357 H1360 0.999 . S
C1358 H1328 0.950 . S
C1358 C1357 1.524 . S
C1358 C1359 1.415 . S
C1359 H1329 0.950 . S
C1359 C1354 1.363 . S
C1359 C1358 1.415 . S
H1360 C1357 0.999 . S
H1361 C1342 0.913 . S
H1362 C1380 0.951 . S
H1363 C1382 0.951 . S
H1364 C1384 0.950 . S
H1365 C1385 0.950 . S
H1366 C1387 0.950 . S
H1367 C1390 0.950 . S
H1368 C1391 0.950 . S
H1369 C1393 0.950 . S
H1370 C1394 0.950 . S
H1371 C1395 0.951 . S
H1372 C1397 0.951 . S
H1373 C1399 0.950 . S
H1374 C1400 0.950 . S
H1375 C1402 0.950 . S
H1376 C1405 0.950 . S
H1377 C1406 0.950 . S
H1378 C1408 0.950 . S
H1379 C1409 0.950 . S
C1380 H1362 0.951 . S
C1380 C1381 1.366 . S
C1380 C1382 1.388 . S
C1381 C1380 1.366 . S
C1381 C1385 1.385 . S
C1382 H1363 0.951 . S
C1382 C1380 1.388 . S
C1382 C1383 1.366 . S
C1383 C1382 1.366 . S
C1383 C1384 1.414 . S
C1383 C1386 1.499 . S
C1384 H1364 0.950 . S
C1384 C1383 1.414 . S
C1384 C1385 1.374 . S
C1385 H1365 0.950 . S
C1385 C1381 1.385 . S
C1385 C1384 1.374 . S
C1386 C1383 1.499 . S
C1386 C1387 1.373 . S
C1386 C1388 1.389 . S
C1387 H1366 0.950 . S
C1387 C1386 1.373 . S
C1387 C1403 1.377 . S
C1388 C1386 1.389 . S
C1388 C1389 1.524 . S
C1388 C1402 1.377 . S
C1389 C1388 1.524 . S
C1389 C1390 1.397 . S
C1389 C1394 1.363 . S
C1390 H1367 0.950 . S
C1390 C1389 1.397 . S
C1390 C1391 1.334 . S
C1391 H1368 0.950 . S
C1391 C1390 1.334 . S
C1391 C1392 1.287 . S
C1392 C1391 1.287 . S
C1392 C1393 1.524 . S
C1392 H1411 0.913 . S
C1393 H1369 0.950 . S
C1393 C1392 1.524 . S
C1393 C1394 1.415 . S
C1394 H1370 0.950 . S
C1394 C1389 1.363 . S
C1394 C1393 1.415 . S
C1395 H1371 0.951 . S
C1395 C1396 1.366 . S
C1395 C1397 1.388 . S
C1396 C1395 1.366 . S
C1396 C1400 1.385 . S
C1397 H1372 0.951 . S
C1397 C1395 1.388 . S
C1397 C1398 1.366 . S
C1398 C1397 1.366 . S
C1398 C1399 1.414 . S
C1398 C1401 1.499 . S
C1399 H1373 0.950 . S
C1399 C1398 1.414 . S
C1399 C1400 1.374 . S
C1400 H1374 0.950 . S
C1400 C1396 1.385 . S
C1400 C1399 1.374 . S
C1401 C1398 1.499 . S
C1401 C1402 1.373 . S
C1401 C1403 1.389 . S
C1402 H1375 0.950 . S
C1402 C1388 1.377 . S
C1402 C1401 1.373 . S
C1403 C1387 1.377 . S
C1403 C1401 1.389 . S
C1403 C1404 1.524 . S
C1404 C1403 1.524 . S
C1404 C1405 1.397 . S
C1404 C1409 1.363 . S
C1405 H1376 0.950 . S
C1405 C1404 1.397 . S
C1405 C1406 1.334 . S
C1406 H1377 0.950 . S
C1406 C1405 1.334 . S
C1406 C1407 1.287 . S
C1407 C1406 1.287 . S
C1407 C1408 1.524 . S
C1407 H1410 0.999 . S
C1408 H1378 0.950 . S
C1408 C1407 1.524 . S
C1408 C1409 1.415 . S
C1409 H1379 0.950 . S
C1409 C1404 1.363 . S
C1409 C1408 1.415 . S
H1410 C1407 0.999 . S
H1411 C1392 0.913 . S
H1412 C1430 0.951 . S
H1413 C1432 0.951 . S
H1414 C1434 0.950 . S
H1415 C1435 0.950 . S
H1416 C1437 0.950 . S
H1417 C1440 0.950 . S
H1418 C1441 0.950 . S
H1419 C1443 0.950 . S
H1420 C1444 0.950 . S
H1421 C1445 0.951 . S
H1422 C1447 0.951 . S
H1423 C1449 0.950 . S
H1424 C1450 0.950 . S
H1425 C1452 0.950 . S
H1426 C1455 0.950 . S
H1427 C1456 0.950 . S
H1428 C1458 0.950 . S
H1429 C1459 0.950 . S
C1430 H1412 0.951 . S
C1430 C1431 1.366 . S
C1430 C1432 1.388 . S
C1431 C1430 1.366 . S
C1431 C1435 1.385 . S
C1432 H1413 0.951 . S
C1432 C1430 1.388 . S
C1432 C1433 1.366 . S
C1433 C1432 1.366 . S
C1433 C1434 1.414 . S
C1433 C1436 1.499 . S
C1434 H1414 0.950 . S
C1434 C1433 1.414 . S
C1434 C1435 1.374 . S
C1435 H1415 0.950 . S
C1435 C1431 1.385 . S
C1435 C1434 1.374 . S
C1436 C1433 1.499 . S
C1436 C1437 1.373 . S
C1436 C1438 1.389 . S
C1437 H1416 0.950 . S
C1437 C1436 1.373 . S
C1437 C1453 1.377 . S
C1438 C1436 1.389 . S
C1438 C1439 1.524 . S
C1438 C1452 1.377 . S
C1439 C1438 1.524 . S
C1439 C1440 1.397 . S
C1439 C1444 1.363 . S
C1440 H1417 0.950 . S
C1440 C1439 1.397 . S
C1440 C1441 1.334 . S
C1441 H1418 0.950 . S
C1441 C1440 1.334 . S
C1441 C1442 1.287 . S
C1442 C1441 1.287 . S
C1442 C1443 1.524 . S
C1442 H1461 0.913 . S
C1443 H1419 0.950 . S
C1443 C1442 1.524 . S
C1443 C1444 1.415 . S
C1444 H1420 0.950 . S
C1444 C1439 1.363 . S
C1444 C1443 1.415 . S
C1445 H1421 0.951 . S
C1445 C1446 1.366 . S
C1445 C1447 1.388 . S
C1446 C1445 1.366 . S
C1446 C1450 1.385 . S
C1447 H1422 0.951 . S
C1447 C1445 1.388 . S
C1447 C1448 1.366 . S
C1448 C1447 1.366 . S
C1448 C1449 1.414 . S
C1448 C1451 1.499 . S
C1449 H1423 0.950 . S
C1449 C1448 1.414 . S
C1449 C1450 1.374 . S
C1450 H1424 0.950 . S
C1450 C1446 1.385 . S
C1450 C1449 1.374 . S
C1451 C1448 1.499 . S
C1451 C1452 1.373 . S
C1451 C1453 1.389 . S
C1452 H1425 0.950 . S
C1452 C1438 1.377 . S
C1452 C1451 1.373 . S
C1453 C1437 1.377 . S
C1453 C1451 1.389 . S
C1453 C1454 1.524 . S
C1454 C1453 1.524 . S
C1454 C1455 1.397 . S
C1454 C1459 1.363 . S
C1455 H1426 0.950 . S
C1455 C1454 1.397 . S
C1455 C1456 1.334 . S
C1456 H1427 0.950 . S
C1456 C1455 1.334 . S
C1456 C1457 1.287 . S
C1457 C1456 1.287 . S
C1457 C1458 1.524 . S
C1457 H1460 0.999 . S
C1458 H1428 0.950 . S
C1458 C1457 1.524 . S
C1458 C1459 1.415 . S
C1459 H1429 0.950 . S
C1459 C1454 1.363 . S
C1459 C1458 1.415 . S
H1460 C1457 0.999 . S
H1461 C1442 0.913 . S
H1462 C1480 0.951 . S
H1463 C1482 0.951 . S
H1464 C1484 0.950 . S
H1465 C1485 0.950 . S
H1466 C1487 0.950 . S
H1467 C1490 0.950 . S
H1468 C1491 0.950 . S
H1469 C1493 0.950 . S
H1470 C1494 0.950 . S
H1471 C1495 0.951 . S
H1472 C1497 0.951 . S
H1473 C1499 0.950 . S
H1474 C1500 0.950 . S
H1475 C1502 0.950 . S
H1476 C1505 0.950 . S
H1477 C1506 0.950 . S
H1478 C1508 0.950 . S
H1479 C1509 0.950 . S
C1480 H1462 0.951 . S
C1480 C1481 1.366 . S
C1480 C1482 1.388 . S
C1481 C1480 1.366 . S
C1481 C1485 1.385 . S
C1482 H1463 0.951 . S
C1482 C1480 1.388 . S
C1482 C1483 1.366 . S
C1483 C1482 1.366 . S
C1483 C1484 1.414 . S
C1483 C1486 1.499 . S
C1484 H1464 0.950 . S
C1484 C1483 1.414 . S
C1484 C1485 1.374 . S
C1485 H1465 0.950 . S
C1485 C1481 1.385 . S
C1485 C1484 1.374 . S
C1486 C1483 1.499 . S
C1486 C1487 1.373 . S
C1486 C1488 1.389 . S
C1487 H1466 0.950 . S
C1487 C1486 1.373 . S
C1487 C1503 1.377 . S
C1488 C1486 1.389 . S
C1488 C1489 1.524 . S
C1488 C1502 1.377 . S
C1489 C1488 1.524 . S
C1489 C1490 1.397 . S
C1489 C1494 1.363 . S
C1490 H1467 0.950 . S
C1490 C1489 1.397 . S
C1490 C1491 1.334 . S
C1491 H1468 0.950 . S
C1491 C1490 1.334 . S
C1491 C1492 1.287 . S
C1492 C1491 1.287 . S
C1492 C1493 1.524 . S
C1492 H1511 0.913 . S
C1493 H1469 0.950 . S
C1493 C1492 1.524 . S
C1493 C1494 1.415 . S
C1494 H1470 0.950 . S
C1494 C1489 1.363 . S
C1494 C1493 1.415 . S
C1495 H1471 0.951 . S
C1495 C1496 1.366 . S
C1495 C1497 1.388 . S
C1496 C1495 1.366 . S
C1496 C1500 1.385 . S
C1497 H1472 0.951 . S
C1497 C1495 1.388 . S
C1497 C1498 1.366 . S
C1498 C1497 1.366 . S
C1498 C1499 1.414 . S
C1498 C1501 1.499 . S
C1499 H1473 0.950 . S
C1499 C1498 1.414 . S
C1499 C1500 1.374 . S
C1500 H1474 0.950 . S
C1500 C1496 1.385 . S
C1500 C1499 1.374 . S
C1501 C1498 1.499 . S
C1501 C1502 1.373 . S
C1501 C1503 1.389 . S
C1502 H1475 0.950 . S
C1502 C1488 1.377 . S
C1502 C1501 1.373 . S
C1503 C1487 1.377 . S
C1503 C1501 1.389 . S
C1503 C1504 1.524 . S
C1504 C1503 1.524 . S
C1504 C1505 1.397 . S
C1504 C1509 1.363 . S
C1505 H1476 0.950 . S
C1505 C1504 1.397 . S
C1505 C1506 1.334 . S
C1506 H1477 0.950 . S
C1506 C1505 1.334 . S
C1506 C1507 1.287 . S
C1507 C1506 1.287 . S
C1507 C1508 1.524 . S
C1507 H1510 0.999 . S
C1508 H1478 0.950 . S
C1508 C1507 1.524 . S
C1508 C1509 1.415 . S
C1509 H1479 0.950 . S
C1509 C1504 1.363 . S
C1509 C1508 1.415 . S
H1510 C1507 0.999 . S
H1511 C1492 0.913 . S
H1512 C1530 0.951 . S
H1513 C1532 0.951 . S
H1514 C1534 0.950 . S
H1515 C1535 0.950 . S
H1516 C1537 0.950 . S
H1517 C1540 0.950 . S
H1518 C1541 0.950 . S
H1519 C1543 0.950 . S
H1520 C1544 0.950 . S
H1521 C1545 0.951 . S
H1522 C1547 0.951 . S
H1523 C1549 0.950 . S
H1524 C1550 0.950 . S
H1525 C1552 0.950 . S
H1526 C1555 0.950 . S
H1527 C1556 0.950 . S
H1528 C1558 0.950 . S
H1529 C1559 0.950 . S
C1530 H1512 0.951 . S
C1530 C1531 1.366 . S
C1530 C1532 1.388 . S
C1531 C1530 1.366 . S
C1531 C1535 1.385 . S
C1532 H1513 0.951 . S
C1532 C1530 1.388 . S
C1532 C1533 1.366 . S
C1533 C1532 1.366 . S
C1533 C1534 1.414 . S
C1533 C1536 1.499 . S
C1534 H1514 0.950 . S
C1534 C1533 1.414 . S
C1534 C1535 1.374 . S
C1535 H1515 0.950 . S
C1535 C1531 1.385 . S
C1535 C1534 1.374 . S
C1536 C1533 1.499 . S
C1536 C1537 1.373 . S
C1536 C1538 1.389 . S
C1537 H1516 0.950 . S
C1537 C1536 1.373 . S
C1537 C1553 1.377 . S
C1538 C1536 1.389 . S
C1538 C1539 1.524 . S
C1538 C1552 1.377 . S
C1539 C1538 1.524 . S
C1539 C1540 1.397 . S
C1539 C1544 1.363 . S
C1540 H1517 0.950 . S
C1540 C1539 1.397 . S
C1540 C1541 1.334 . S
C1541 H1518 0.950 . S
C1541 C1540 1.334 . S
C1541 C1542 1.287 . S
C1542 C1541 1.287 . S
C1542 C1543 1.524 . S
C1542 H1561 0.913 . S
C1543 H1519 0.950 . S
C1543 C1542 1.524 . S
C1543 C1544 1.415 . S
C1544 H1520 0.950 . S
C1544 C1539 1.363 . S
C1544 C1543 1.415 . S
C1545 H1521 0.951 . S
C1545 C1546 1.366 . S
C1545 C1547 1.388 . S
C1546 C1545 1.366 . S
C1546 C1550 1.385 . S
C1547 H1522 0.951 . S
C1547 C1545 1.388 . S
C1547 C1548 1.366 . S
C1548 C1547 1.366 . S
C1548 C1549 1.414 . S
C1548 C1551 1.499 . S
C1549 H1523 0.950 . S
C1549 C1548 1.414 . S
C1549 C1550 1.374 . S
C1550 H1524 0.950 . S
C1550 C1546 1.385 . S
C1550 C1549 1.374 . S
C1551 C1548 1.499 . S
C1551 C1552 1.373 . S
C1551 C1553 1.389 . S
C1552 H1525 0.950 . S
C1552 C1538 1.377 . S
C1552 C1551 1.373 . S
C1553 C1537 1.377 . S
C1553 C1551 1.389 . S
C1553 C1554 1.524 . S
C1554 C1553 1.524 . S
C1554 C1555 1.397 . S
C1554 C1559 1.363 . S
C1555 H1526 0.950 . S
C1555 C1554 1.397 . S
C1555 C1556 1.334 . S
C1556 H1527 0.950 . S
C1556 C1555 1.334 . S
C1556 C1557 1.287 . S
C1557 C1556 1.287 . S
C1557 C1558 1.524 . S
C1557 H1560 0.999 . S
C1558 H1528 0.950 . S
C1558 C1557 1.524 . S
C1558 C1559 1.415 . S
C1559 H1529 0.950 . S
C1559 C1554 1.363 . S
C1559 C1558 1.415 . S
H1560 C1557 0.999 . S
H1561 C1542 0.913 . S
H1562 C1580 0.951 . S
H1563 C1582 0.951 . S
H1564 C1584 0.950 . S
H1565 C1585 0.950 . S
H1566 C1587 0.950 . S
H1567 C1590 0.950 . S
H1568 C1591 0.950 . S
H1569 C1593 0.950 . S
H1570 C1594 0.950 . S
H1571 C1595 0.951 . S
H1572 C1597 0.951 . S
H1573 C1599 0.950 . S
H1574 C1600 0.950 . S
H1575 C1602 0.950 . S
H1576 C1605 0.950 . S
H1577 C1606 0.950 . S
H1578 C1608 0.950 . S
H1579 C1609 0.950 . S
C1580 H1562 0.951 . S
C1580 C1581 1.366 . S
C1580 C1582 1.388 . S
C1581 C1580 1.366 . S
C1581 C1585 1.385 . S
C1582 H1563 0.951 . S
C1582 C1580 1.388 . S
C1582 C1583 1.366 . S
C1583 C1582 1.366 . S
C1583 C1584 1.414 . S
C1583 C1586 1.499 . S
C1584 H1564 0.950 . S
C1584 C1583 1.414 . S
C1584 C1585 1.374 . S
C1585 H1565 0.950 . S
C1585 C1581 1.385 . S
C1585 C1584 1.374 . S
C1586 C1583 1.499 . S
C1586 C1587 1.373 . S
C1586 C1588 1.389 . S
C1587 H1566 0.950 . S
C1587 C1586 1.373 . S
C1587 C1603 1.377 . S
C1588 C1586 1.389 . S
C1588 C1589 1.524 . S
C1588 C1602 1.377 . S
C1589 C1588 1.524 . S
C1589 C1590 1.397 . S
C1589 C1594 1.363 . S
C1590 H1567 0.950 . S
C1590 C1589 1.397 . S
C1590 C1591 1.334 . S
C1591 H1568 0.950 . S
C1591 C1590 1.334 . S
C1591 C1592 1.287 . S
C1592 C1591 1.287 . S
C1592 C1593 1.524 . S
C1592 H1611 0.913 . S
C1593 H1569 0.950 . S
C1593 C1592 1.524 . S
C1593 C1594 1.415 . S
C1594 H1570 0.950 . S
C1594 C1589 1.363 . S
C1594 C1593 1.415 . S
C1595 H1571 0.951 . S
C1595 C1596 1.366 . S
C1595 C1597 1.388 . S
C1596 C1595 1.366 . S
C1596 C1600 1.385 . S
C1597 H1572 0.951 . S
C1597 C1595 1.388 . S
C1597 C1598 1.366 . S
C1598 C1597 1.366 . S
C1598 C1599 1.414 . S
C1598 C1601 1.499 . S
C1599 H1573 0.950 . S
C1599 C1598 1.414 . S
C1599 C1600 1.374 . S
C1600 H1574 0.950 . S
C1600 C1596 1.385 . S
C1600 C1599 1.374 . S
C1601 C1598 1.499 . S
C1601 C1602 1.373 . S
C1601 C1603 1.389 . S
C1602 H1575 0.950 . S
C1602 C1588 1.377 . S
C1602 C1601 1.373 . S
C1603 C1587 1.377 . S
C1603 C1601 1.389 . S
C1603 C1604 1.524 . S
C1604 C1603 1.524 . S
C1604 C1605 1.397 . S
C1604 C1609 1.363 . S
C1605 H1576 0.950 . S
C1605 C1604 1.397 . S
C1605 C1606 1.334 . S
C1606 H1577 0.950 . S
C1606 C1605 1.334 . S
C1606 C1607 1.287 . S
C1607 C1606 1.287 . S
C1607 C1608 1.524 . S
C1607 H1610 0.999 . S
C1608 H1578 0.950 . S
C1608 C1607 1.524 . S
C1608 C1609 1.415 . S
C1609 H1579 0.950 . S
C1609 C1604 1.363 . S
C1609 C1608 1.415 . S
H1610 C1607 0.999 . S
H1611 C1592 0.913 . S
H1612 C1630 0.951 . S
H1613 C1632 0.951 . S
H1614 C1634 0.950 . S
H1615 C1635 0.950 . S
H1616 C1637 0.950 . S
H1617 C1640 0.950 . S
H1618 C1641 0.950 . S
H1619 C1643 0.950 . S
H1620 C1644 0.950 . S
H1621 C1645 0.951 . S
H1622 C1647 0.951 . S
H1623 C1649 0.950 . S
H1624 C1650 0.950 . S
H1625 C1652 0.950 . S
H1626 C1655 0.950 . S
H1627 C1656 0.950 . S
H1628 C1658 0.950 . S
H1629 C1659 0.950 . S
C1630 H1612 0.951 . S
C1630 C1631 1.366 . S
C1630 C1632 1.388 . S
C1631 C1630 1.366 . S
C1631 C1635 1.385 . S
C1632 H1613 0.951 . S
C1632 C1630 1.388 . S
C1632 C1633 1.366 . S
C1633 C1632 1.366 . S
C1633 C1634 1.414 . S
C1633 C1636 1.499 . S
C1634 H1614 0.950 . S
C1634 C1633 1.414 . S
C1634 C1635 1.374 . S
C1635 H1615 0.950 . S
C1635 C1631 1.385 . S
C1635 C1634 1.374 . S
C1636 C1633 1.499 . S
C1636 C1637 1.373 . S
C1636 C1638 1.389 . S
C1637 H1616 0.950 . S
C1637 C1636 1.373 . S
C1637 C1653 1.377 1_565 S
C1638 C1636 1.389 . S
C1638 C1639 1.524 . S
C1638 C1652 1.377 1_565 S
C1639 C1638 1.524 . S
C1639 C1640 1.397 . S
C1639 C1644 1.363 . S
C1640 H1617 0.950 . S
C1640 C1639 1.397 . S
C1640 C1641 1.334 . S
C1641 H1618 0.950 . S
C1641 C1640 1.334 . S
C1641 C1642 1.287 . S
C1642 C1641 1.287 . S
C1642 C1643 1.524 . S
C1642 H1661 0.913 . S
C1643 H1619 0.950 . S
C1643 C1642 1.524 . S
C1643 C1644 1.415 . S
C1644 H1620 0.950 . S
C1644 C1639 1.363 . S
C1644 C1643 1.415 . S
C1645 H1621 0.951 . S
C1645 C1646 1.366 . S
C1645 C1647 1.388 . S
C1646 C1645 1.366 . S
C1646 C1650 1.385 . S
C1647 H1622 0.951 . S
C1647 C1645 1.388 . S
C1647 C1648 1.366 . S
C1648 C1647 1.366 . S
C1648 C1649 1.414 . S
C1648 C1651 1.499 . S
C1649 H1623 0.950 . S
C1649 C1648 1.414 . S
C1649 C1650 1.374 . S
C1650 H1624 0.950 . S
C1650 C1646 1.385 . S
C1650 C1649 1.374 . S
C1651 C1648 1.499 . S
C1651 C1652 1.373 . S
C1651 C1653 1.389 . S
C1652 H1625 0.950 . S
C1652 C1638 1.377 1_545 S
C1652 C1651 1.373 . S
C1653 C1637 1.377 1_545 S
C1653 C1651 1.389 . S
C1653 C1654 1.524 . S
C1654 C1653 1.524 . S
C1654 C1655 1.397 . S
C1654 C1659 1.363 . S
C1655 H1626 0.950 . S
C1655 C1654 1.397 . S
C1655 C1656 1.334 . S
C1656 H1627 0.950 . S
C1656 C1655 1.334 . S
C1656 C1657 1.287 . S
C1657 C1656 1.287 . S
C1657 C1658 1.524 . S
C1657 H1660 0.999 . S
C1658 H1628 0.950 . S
C1658 C1657 1.524 . S
C1658 C1659 1.415 . S
C1659 H1629 0.950 . S
C1659 C1654 1.363 . S
C1659 C1658 1.415 . S
H1660 C1657 0.999 . S
H1661 C1642 0.913 . S
H1662 C1680 0.951 . S
H1663 C1682 0.951 . S
H1664 C1684 0.950 . S
H1665 C1685 0.950 . S
H1666 C1687 0.950 . S
H1667 C1690 0.950 . S
H1668 C1691 0.950 . S
H1669 C1693 0.950 . S
H1670 C1694 0.950 1_655 S
H1671 C1695 0.951 . S
H1672 C1697 0.951 . S
H1673 C1699 0.950 . S
H1674 C1700 0.950 . S
H1675 C1702 0.950 . S
H1676 C1705 0.950 . S
H1677 C1706 0.950 . S
H1678 C1708 0.950 . S
H1679 C1709 0.950 1_455 S
C1680 H1662 0.951 . S
C1680 C1681 1.366 . S
C1680 C1682 1.388 . S
C1681 C1680 1.366 . S
C1681 C1685 1.385 . S
C1682 H1663 0.951 . S
C1682 C1680 1.388 . S
C1682 C1683 1.366 . S
C1683 C1682 1.366 . S
C1683 C1684 1.414 . S
C1683 C1686 1.499 . S
C1684 H1664 0.950 . S
C1684 C1683 1.414 . S
C1684 C1685 1.374 . S
C1685 H1665 0.950 . S
C1685 C1681 1.385 . S
C1685 C1684 1.374 . S
C1686 C1683 1.499 . S
C1686 C1687 1.373 . S
C1686 C1688 1.389 . S
C1687 H1666 0.950 . S
C1687 C1686 1.373 . S
C1687 C1703 1.377 1_455 S
C1688 C1686 1.389 . S
C1688 C1689 1.524 . S
C1688 C1702 1.377 1_455 S
C1689 C1688 1.524 . S
C1689 C1690 1.397 . S
C1689 C1694 1.363 . S
C1690 H1667 0.950 . S
C1690 C1689 1.397 . S
C1690 C1691 1.334 . S
C1691 H1668 0.950 . S
C1691 C1690 1.334 . S
C1691 C1692 1.287 . S
C1692 C1691 1.287 . S
C1692 C1693 1.524 . S
C1692 H1711 0.913 . S
C1693 H1669 0.950 . S
C1693 C1692 1.524 . S
C1693 C1694 1.415 . S
C1694 H1670 0.950 1_455 S
C1694 C1689 1.363 . S
C1694 C1693 1.415 . S
C1695 H1671 0.951 . S
C1695 C1696 1.366 . S
C1695 C1697 1.388 . S
C1696 C1695 1.366 . S
C1696 C1700 1.385 . S
C1697 H1672 0.951 . S
C1697 C1695 1.388 . S
C1697 C1698 1.366 . S
C1698 C1697 1.366 . S
C1698 C1699 1.414 . S
C1698 C1701 1.499 . S
C1699 H1673 0.950 . S
C1699 C1698 1.414 . S
C1699 C1700 1.374 . S
C1700 H1674 0.950 . S
C1700 C1696 1.385 . S
C1700 C1699 1.374 . S
C1701 C1698 1.499 . S
C1701 C1702 1.373 . S
C1701 C1703 1.389 . S
C1702 H1675 0.950 . S
C1702 C1688 1.377 1_655 S
C1702 C1701 1.373 . S
C1703 C1687 1.377 1_655 S
C1703 C1701 1.389 . S
C1703 C1704 1.524 . S
C1704 C1703 1.524 . S
C1704 C1705 1.397 . S
C1704 C1709 1.363 . S
C1705 H1676 0.950 . S
C1705 C1704 1.397 . S
C1705 C1706 1.334 . S
C1706 H1677 0.950 . S
C1706 C1705 1.334 . S
C1706 C1707 1.287 . S
C1707 C1706 1.287 . S
C1707 C1708 1.524 . S
C1707 H1710 0.999 . S
C1708 H1678 0.950 . S
C1708 C1707 1.524 . S
C1708 C1709 1.415 . S
C1709 H1679 0.950 1_655 S
C1709 C1704 1.363 . S
C1709 C1708 1.415 . S
H1710 C1707 0.999 . S
H1711 C1692 0.913 . S
H1712 C1730 0.951 . S
H1713 C1732 0.951 . S
H1714 C1734 0.950 . S
H1715 C1735 0.950 . S
H1716 C1737 0.950 . S
H1717 C1740 0.950 . S
H1718 C1741 0.950 . S
H1719 C1743 0.950 . S
H1720 C1744 0.950 . S
H1721 C1745 0.951 . S
H1722 C1747 0.951 . S
H1723 C1749 0.950 . S
H1724 C1750 0.950 . S
H1725 C1752 0.950 . S
H1726 C1755 0.950 . S
H1727 C1756 0.950 . S
H1728 C1758 0.950 . S
H1729 C1759 0.950 . S
C1730 H1712 0.951 . S
C1730 C1731 1.366 . S
C1730 C1732 1.388 . S
C1731 C1730 1.366 . S
C1731 C1735 1.385 . S
C1732 H1713 0.951 . S
C1732 C1730 1.388 . S
C1732 C1733 1.366 . S
C1733 C1732 1.366 . S
C1733 C1734 1.414 . S
C1733 C1736 1.499 . S
C1734 H1714 0.950 . S
C1734 C1733 1.414 . S
C1734 C1735 1.374 . S
C1735 H1715 0.950 . S
C1735 C1731 1.385 . S
C1735 C1734 1.374 . S
C1736 C1733 1.499 . S
C1736 C1737 1.373 . S
C1736 C1738 1.389 . S
C1737 H1716 0.950 . S
C1737 C1736 1.373 . S
C1737 C1753 1.377 1_565 S
C1738 C1736 1.389 . S
C1738 C1739 1.524 . S
C1738 C1752 1.377 1_565 S
C1739 C1738 1.524 . S
C1739 C1740 1.397 . S
C1739 C1744 1.363 . S
C1740 H1717 0.950 . S
C1740 C1739 1.397 . S
C1740 C1741 1.334 . S
C1741 H1718 0.950 . S
C1741 C1740 1.334 . S
C1741 C1742 1.287 . S
C1742 C1741 1.287 . S
C1742 C1743 1.524 . S
C1742 H1761 0.913 . S
C1743 H1719 0.950 . S
C1743 C1742 1.524 . S
C1743 C1744 1.415 . S
C1744 H1720 0.950 . S
C1744 C1739 1.363 . S
C1744 C1743 1.415 . S
C1745 H1721 0.951 . S
C1745 C1746 1.366 . S
C1745 C1747 1.388 . S
C1746 C1745 1.366 . S
C1746 C1750 1.385 . S
C1747 H1722 0.951 . S
C1747 C1745 1.388 . S
C1747 C1748 1.366 . S
C1748 C1747 1.366 . S
C1748 C1749 1.414 . S
C1748 C1751 1.499 . S
C1749 H1723 0.950 . S
C1749 C1748 1.414 . S
C1749 C1750 1.374 . S
C1750 H1724 0.950 . S
C1750 C1746 1.385 . S
C1750 C1749 1.374 . S
C1751 C1748 1.499 . S
C1751 C1752 1.373 . S
C1751 C1753 1.389 . S
C1752 H1725 0.950 . S
C1752 C1738 1.377 1_545 S
C1752 C1751 1.373 . S
C1753 C1737 1.377 1_545 S
C1753 C1751 1.389 . S
C1753 C1754 1.524 . S
C1754 C1753 1.524 . S
C1754 C1755 1.397 . S
C1754 C1759 1.363 . S
C1755 H1726 0.950 . S
C1755 C1754 1.397 . S
C1755 C1756 1.334 . S
C1756 H1727 0.950 . S
C1756 C1755 1.334 . S
C1756 C1757 1.287 . S
C1757 C1756 1.287 . S
C1757 C1758 1.524 . S
C1757 H1760 0.999 . S
C1758 H1728 0.950 . S
C1758 C1757 1.524 . S
C1758 C1759 1.415 . S
C1759 H1729 0.950 . S
C1759 C1754 1.363 . S
C1759 C1758 1.415 . S
H1760 C1757 0.999 . S
H1761 C1742 0.913 . S
H1762 C1780 0.951 . S
H1763 C1782 0.951 . S
H1764 C1784 0.950 . S
H1765 C1785 0.950 . S
H1766 C1787 0.950 . S
H1767 C1790 0.950 . S
H1768 C1791 0.950 . S
H1769 C1793 0.950 . S
H1770 C1794 0.950 1_455 S
H1771 C1795 0.951 . S
H1772 C1797 0.951 . S
H1773 C1799 0.950 . S
H1774 C1800 0.950 . S
H1775 C1802 0.950 . S
H1776 C1805 0.950 . S
H1777 C1806 0.950 . S
H1778 C1808 0.950 . S
H1779 C1809 0.950 1_655 S
C1780 H1762 0.951 . S
C1780 C1781 1.366 . S
C1780 C1782 1.388 . S
C1781 C1780 1.366 . S
C1781 C1785 1.385 . S
C1782 H1763 0.951 . S
C1782 C1780 1.388 . S
C1782 C1783 1.366 . S
C1783 C1782 1.366 . S
C1783 C1784 1.414 . S
C1783 C1786 1.499 . S
C1784 H1764 0.950 . S
C1784 C1783 1.414 . S
C1784 C1785 1.374 . S
C1785 H1765 0.950 . S
C1785 C1781 1.385 . S
C1785 C1784 1.374 . S
C1786 C1783 1.499 . S
C1786 C1787 1.373 . S
C1786 C1788 1.389 . S
C1787 H1766 0.950 . S
C1787 C1786 1.373 . S
C1787 C1803 1.377 1_655 S
C1788 C1786 1.389 . S
C1788 C1789 1.524 . S
C1788 C1802 1.377 1_655 S
C1789 C1788 1.524 . S
C1789 C1790 1.397 . S
C1789 C1794 1.363 . S
C1790 H1767 0.950 . S
C1790 C1789 1.397 . S
C1790 C1791 1.334 . S
C1791 H1768 0.950 . S
C1791 C1790 1.334 . S
C1791 C1792 1.287 . S
C1792 C1791 1.287 . S
C1792 C1793 1.524 . S
C1792 H1811 0.913 . S
C1793 H1769 0.950 . S
C1793 C1792 1.524 . S
C1793 C1794 1.415 . S
C1794 H1770 0.950 1_655 S
C1794 C1789 1.363 . S
C1794 C1793 1.415 . S
C1795 H1771 0.951 . S
C1795 C1796 1.366 . S
C1795 C1797 1.388 . S
C1796 C1795 1.366 . S
C1796 C1800 1.385 . S
C1797 H1772 0.951 . S
C1797 C1795 1.388 . S
C1797 C1798 1.366 . S
C1798 C1797 1.366 . S
C1798 C1799 1.414 . S
C1798 C1801 1.499 . S
C1799 H1773 0.950 . S
C1799 C1798 1.414 . S
C1799 C1800 1.374 . S
C1800 H1774 0.950 . S
C1800 C1796 1.385 . S
C1800 C1799 1.374 . S
C1801 C1798 1.499 . S
C1801 C1802 1.373 . S
C1801 C1803 1.389 . S
C1802 H1775 0.950 . S
C1802 C1788 1.377 1_455 S
C1802 C1801 1.373 . S
C1803 C1787 1.377 1_455 S
C1803 C1801 1.389 . S
C1803 C1804 1.524 . S
C1804 C1803 1.524 . S
C1804 C1805 1.397 . S
C1804 C1809 1.363 . S
C1805 H1776 0.950 . S
C1805 C1804 1.397 . S
C1805 C1806 1.334 . S
C1806 H1777 0.950 . S
C1806 C1805 1.334 . S
C1806 C1807 1.287 . S
C1807 C1806 1.287 . S
C1807 C1808 1.524 . S
C1807 H1810 0.999 . S
C1808 H1778 0.950 . S
C1808 C1807 1.524 . S
C1808 C1809 1.415 . S
C1809 H1779 0.950 1_455 S
C1809 C1804 1.363 . S
C1809 C1808 1.415 . S
H1810 C1807 0.999 . S
H1811 C1792 0.913 . S
H1812 C1830 0.951 . S
H1813 C1832 0.951 . S
H1814 C1834 0.950 . S
H1815 C1835 0.950 . S
H1816 C1837 0.950 . S
H1817 C1840 0.950 . S
H1818 C1841 0.950 . S
H1819 C1843 0.950 . S
H1820 C1844 0.950 . S
H1821 C1845 0.951 . S
H1822 C1847 0.951 . S
H1823 C1849 0.950 . S
H1824 C1850 0.950 . S
H1825 C1852 0.950 . S
H1826 C1855 0.950 . S
H1827 C1856 0.950 . S
H1828 C1858 0.950 . S
H1829 C1859 0.950 . S
C1830 H1812 0.951 . S
C1830 C1831 1.366 . S
C1830 C1832 1.388 . S
C1831 C1830 1.366 . S
C1831 C1835 1.385 . S
C1832 H1813 0.951 . S
C1832 C1830 1.388 . S
C1832 C1833 1.366 . S
C1833 C1832 1.366 . S
C1833 C1834 1.414 . S
C1833 C1836 1.499 . S
C1834 H1814 0.950 . S
C1834 C1833 1.414 . S
C1834 C1835 1.374 . S
C1835 H1815 0.950 . S
C1835 C1831 1.385 . S
C1835 C1834 1.374 . S
C1836 C1833 1.499 . S
C1836 C1837 1.373 . S
C1836 C1838 1.389 . S
C1837 H1816 0.950 . S
C1837 C1836 1.373 . S
C1837 C1853 1.377 . S
C1838 C1836 1.389 . S
C1838 C1839 1.524 . S
C1838 C1852 1.377 . S
C1839 C1838 1.524 . S
C1839 C1840 1.397 . S
C1839 C1844 1.363 . S
C1840 H1817 0.950 . S
C1840 C1839 1.397 . S
C1840 C1841 1.334 . S
C1841 H1818 0.950 . S
C1841 C1840 1.334 . S
C1841 C1842 1.287 . S
C1842 C1841 1.287 . S
C1842 C1843 1.524 . S
C1842 H1861 0.913 . S
C1843 H1819 0.950 . S
C1843 C1842 1.524 . S
C1843 C1844 1.415 . S
C1844 H1820 0.950 . S
C1844 C1839 1.363 . S
C1844 C1843 1.415 . S
C1845 H1821 0.951 . S
C1845 C1846 1.366 . S
C1845 C1847 1.388 . S
C1846 C1845 1.366 . S
C1846 C1850 1.385 . S
C1847 H1822 0.951 . S
C1847 C1845 1.388 . S
C1847 C1848 1.366 . S
C1848 C1847 1.366 . S
C1848 C1849 1.414 . S
C1848 C1851 1.499 . S
C1849 H1823 0.950 . S
C1849 C1848 1.414 . S
C1849 C1850 1.374 . S
C1850 H1824 0.950 . S
C1850 C1846 1.385 . S
C1850 C1849 1.374 . S
C1851 C1848 1.499 . S
C1851 C1852 1.373 . S
C1851 C1853 1.389 . S
C1852 H1825 0.950 . S
C1852 C1838 1.377 . S
C1852 C1851 1.373 . S
C1853 C1837 1.377 . S
C1853 C1851 1.389 . S
C1853 C1854 1.524 . S
C1854 C1853 1.524 . S
C1854 C1855 1.397 . S
C1854 C1859 1.363 . S
C1855 H1826 0.950 . S
C1855 C1854 1.397 . S
C1855 C1856 1.334 . S
C1856 H1827 0.950 . S
C1856 C1855 1.334 . S
C1856 C1857 1.287 . S
C1857 C1856 1.287 . S
C1857 C1858 1.524 . S
C1857 H1860 0.999 . S
C1858 H1828 0.950 . S
C1858 C1857 1.524 . S
C1858 C1859 1.415 . S
C1859 H1829 0.950 . S
C1859 C1854 1.363 . S
C1859 C1858 1.415 . S
H1860 C1857 0.999 . S
H1861 C1842 0.913 . S
H1862 C1880 0.951 . S
H1863 C1882 0.951 . S
H1864 C1884 0.950 . S
H1865 C1885 0.950 . S
H1866 C1887 0.950 . S
H1867 C1890 0.950 . S
H1868 C1891 0.950 . S
H1869 C1893 0.950 . S
H1870 C1894 0.950 . S
H1871 C1895 0.951 . S
H1872 C1897 0.951 . S
H1873 C1899 0.950 . S
H1874 C1900 0.950 . S
H1875 C1902 0.950 . S
H1876 C1905 0.950 . S
H1877 C1906 0.950 . S
H1878 C1908 0.950 . S
H1879 C1909 0.950 . S
C1880 H1862 0.951 . S
C1880 C1881 1.366 . S
C1880 C1882 1.388 . S
C1881 C1880 1.366 . S
C1881 C1885 1.385 . S
C1882 H1863 0.951 . S
C1882 C1880 1.388 . S
C1882 C1883 1.366 . S
C1883 C1882 1.366 . S
C1883 C1884 1.414 . S
C1883 C1886 1.499 . S
C1884 H1864 0.950 . S
C1884 C1883 1.414 . S
C1884 C1885 1.374 . S
C1885 H1865 0.950 . S
C1885 C1881 1.385 . S
C1885 C1884 1.374 . S
C1886 C1883 1.499 . S
C1886 C1887 1.373 . S
C1886 C1888 1.389 . S
C1887 H1866 0.950 . S
C1887 C1886 1.373 . S
C1887 C1903 1.377 . S
C1888 C1886 1.389 . S
C1888 C1889 1.524 . S
C1888 C1902 1.377 . S
C1889 C1888 1.524 . S
C1889 C1890 1.397 . S
C1889 C1894 1.363 . S
C1890 H1867 0.950 . S
C1890 C1889 1.397 . S
C1890 C1891 1.334 . S
C1891 H1868 0.950 . S
C1891 C1890 1.334 . S
C1891 C1892 1.287 . S
C1892 C1891 1.287 . S
C1892 C1893 1.524 . S
C1892 H1911 0.913 . S
C1893 H1869 0.950 . S
C1893 C1892 1.524 . S
C1893 C1894 1.415 . S
C1894 H1870 0.950 . S
C1894 C1889 1.363 . S
C1894 C1893 1.415 . S
C1895 H1871 0.951 . S
C1895 C1896 1.366 . S
C1895 C1897 1.388 . S
C1896 C1895 1.366 . S
C1896 C1900 1.385 . S
C1897 H1872 0.951 . S
C1897 C1895 1.388 . S
C1897 C1898 1.366 . S
C1898 C1897 1.366 . S
C1898 C1899 1.414 . S
C1898 C1901 1.499 . S
C1899 H1873 0.950 . S
C1899 C1898 1.414 . S
C1899 C1900 1.374 . S
C1900 H1874 0.950 . S
C1900 C1896 1.385 . S
C1900 C1899 1.374 . S
C1901 C1898 1.499 . S
C1901 C1902 1.373 . S
C1901 C1903 1.389 . S
C1902 H1875 0.950 . S
C1902 C1888 1.377 . S
C1902 C1901 1.373 . S
C1903 C1887 1.377 . S
C1903 C1901 1.389 . S
C1903 C1904 1.524 . S
C1904 C1903 1.524 . S
C1904 C1905 1.397 . S
C1904 C1909 1.363 . S
C1905 H1876 0.950 . S
C1905 C1904 1.397 . S
C1905 C1906 1.334 . S
C1906 H1877 0.950 . S
C1906 C1905 1.334 . S
C1906 C1907 1.287 . S
C1907 C1906 1.287 . S
C1907 C1908 1.524 . S
C1907 H1910 0.999 . S
C1908 H1878 0.950 . S
C1908 C1907 1.524 . S
C1908 C1909 1.415 . S
C1909 H1879 0.950 . S
C1909 C1904 1.363 . S
C1909 C1908 1.415 . S
H1910 C1907 0.999 . S
H1911 C1892 0.913 . S
H1912 C1930 0.951 . S
H1913 C1932 0.951 . S
H1914 C1934 0.950 . S
H1915 C1935 0.950 . S
H1916 C1937 0.950 . S
H1917 C1940 0.950 . S
H1918 C1941 0.950 . S
H1919 C1943 0.950 . S
H1920 C1944 0.950 . S
H1921 C1945 0.951 . S
H1922 C1947 0.951 . S
H1923 C1949 0.950 . S
H1924 C1950 0.950 . S
H1925 C1952 0.950 . S
H1926 C1955 0.950 . S
H1927 C1956 0.950 . S
H1928 C1958 0.950 . S
H1929 C1959 0.950 . S
C1930 H1912 0.951 . S
C1930 C1931 1.366 . S
C1930 C1932 1.388 . S
C1931 C1930 1.366 . S
C1931 C1935 1.385 . S
C1932 H1913 0.951 . S
C1932 C1930 1.388 . S
C1932 C1933 1.366 . S
C1933 C1932 1.366 . S
C1933 C1934 1.414 . S
C1933 C1936 1.499 . S
C1934 H1914 0.950 . S
C1934 C1933 1.414 . S
C1934 C1935 1.374 . S
C1935 H1915 0.950 . S
C1935 C1931 1.385 . S
C1935 C1934 1.374 . S
C1936 C1933 1.499 . S
C1936 C1937 1.373 . S
C1936 C1938 1.389 . S
C1937 H1916 0.950 . S
C1937 C1936 1.373 . S
C1937 C1953 1.377 . S
C1938 C1936 1.389 . S
C1938 C1939 1.524 . S
C1938 C1952 1.377 . S
C1939 C1938 1.524 . S
C1939 C1940 1.397 . S
C1939 C1944 1.363 . S
C1940 H1917 0.950 . S
C1940 C1939 1.397 . S
C1940 C1941 1.334 . S
C1941 H1918 0.950 . S
C1941 C1940 1.334 . S
C1941 C1942 1.287 . S
C1942 C1941 1.287 . S
C1942 C1943 1.524 . S
C1942 H1961 0.913 . S
C1943 H1919 0.950 . S
C1943 C1942 1.524 . S
C1943 C1944 1.415 . S
C1944 H1920 0.950 . S
C1944 C1939 1.363 . S
C1944 C1943 1.415 . S
C1945 H1921 0.951 . S
C1945 C1946 1.366 . S
C1945 C1947 1.388 . S
C1946 C1945 1.366 . S
C1946 C1950 1.385 . S
C1947 H1922 0.951 . S
C1947 C1945 1.388 . S
C1947 C1948 1.366 . S
C1948 C1947 1.366 . S
C1948 C1949 1.414 . S
C1948 C1951 1.499 . S
C1949 H1923 0.950 . S
C1949 C1948 1.414 . S
C1949 C1950 1.374 . S
C1950 H1924 0.950 . S
C1950 C1946 1.385 . S
C1950 C1949 1.374 . S
C1951 C1948 1.499 . S
C1951 C1952 1.373 . S
C1951 C1953 1.389 . S
C1952 H1925 0.950 . S
C1952 C1938 1.377 . S
C1952 C1951 1.373 . S
C1953 C1937 1.377 . S
C1953 C1951 1.389 . S
C1953 C1954 1.524 . S
C1954 C1953 1.524 . S
C1954 C1955 1.397 . S
C1954 C1959 1.363 . S
C1955 H1926 0.950 . S
C1955 C1954 1.397 . S
C1955 C1956 1.334 . S
C1956 H1927 0.950 . S
C1956 C1955 1.334 . S
C1956 C1957 1.287 . S
C1957 C1956 1.287 . S
C1957 C1958 1.524 . S
C1957 H1960 0.999 . S
C1958 H1928 0.950 . S
C1958 C1957 1.524 . S
C1958 C1959 1.415 . S
C1959 H1929 0.950 . S
C1959 C1954 1.363 . S
C1959 C1958 1.415 . S
H1960 C1957 0.999 . S
H1961 C1942 0.913 . S
H1962 C1980 0.951 . S
H1963 C1982 0.951 . S
H1964 C1984 0.950 . S
H1965 C1985 0.950 . S
H1966 C1987 0.950 . S
H1967 C1990 0.950 . S
H1968 C1991 0.950 . S
H1969 C1993 0.950 . S
H1970 C1994 0.950 . S
H1971 C1995 0.951 . S
H1972 C1997 0.951 . S
H1973 C1999 0.950 . S
H1974 C2000 0.950 . S
H1975 C2002 0.950 . S
H1976 C2005 0.950 . S
H1977 C2006 0.950 . S
H1978 C2008 0.950 . S
H1979 C2009 0.950 . S
C1980 H1962 0.951 . S
C1980 C1981 1.366 . S
C1980 C1982 1.388 . S
C1981 C1980 1.366 . S
C1981 C1985 1.385 . S
C1982 H1963 0.951 . S
C1982 C1980 1.388 . S
C1982 C1983 1.366 . S
C1983 C1982 1.366 . S
C1983 C1984 1.414 . S
C1983 C1986 1.499 . S
C1984 H1964 0.950 . S
C1984 C1983 1.414 . S
C1984 C1985 1.374 . S
C1985 H1965 0.950 . S
C1985 C1981 1.385 . S
C1985 C1984 1.374 . S
C1986 C1983 1.499 . S
C1986 C1987 1.373 . S
C1986 C1988 1.389 . S
C1987 H1966 0.950 . S
C1987 C1986 1.373 . S
C1987 C2003 1.377 1_554 S
C1988 C1986 1.389 . S
C1988 C1989 1.524 . S
C1988 C2002 1.377 1_554 S
C1989 C1988 1.524 . S
C1989 C1990 1.397 . S
C1989 C1994 1.363 . S
C1990 H1967 0.950 . S
C1990 C1989 1.397 . S
C1990 C1991 1.334 . S
C1991 H1968 0.950 . S
C1991 C1990 1.334 . S
C1991 C1992 1.287 . S
C1992 C1991 1.287 . S
C1992 C1993 1.524 . S
C1992 H2011 0.913 . S
C1993 H1969 0.950 . S
C1993 C1992 1.524 . S
C1993 C1994 1.415 . S
C1994 H1970 0.950 . S
C1994 C1989 1.363 . S
C1994 C1993 1.415 . S
C1995 H1971 0.951 . S
C1995 C1996 1.366 . S
C1995 C1997 1.388 . S
C1996 C1995 1.366 . S
C1996 C2000 1.385 . S
C1997 H1972 0.951 . S
C1997 C1995 1.388 . S
C1997 C1998 1.366 . S
C1998 C1997 1.366 . S
C1998 C1999 1.414 . S
C1998 C2001 1.499 . S
C1999 H1973 0.950 . S
C1999 C1998 1.414 . S
C1999 C2000 1.374 . S
C2000 H1974 0.950 . S
C2000 C1996 1.385 . S
C2000 C1999 1.374 . S
C2001 C1998 1.499 . S
C2001 C2002 1.373 . S
C2001 C2003 1.389 . S
C2002 H1975 0.950 . S
C2002 C1988 1.377 1_556 S
C2002 C2001 1.373 . S
C2003 C1987 1.377 1_556 S
C2003 C2001 1.389 . S
C2003 C2004 1.524 . S
C2004 C2003 1.524 . S
C2004 C2005 1.397 . S
C2004 C2009 1.363 . S
C2005 H1976 0.950 . S
C2005 C2004 1.397 . S
C2005 C2006 1.334 . S
C2006 H1977 0.950 . S
C2006 C2005 1.334 . S
C2006 C2007 1.287 . S
C2007 C2006 1.287 . S
C2007 C2008 1.524 . S
C2007 H2010 0.999 . S
C2008 H1978 0.950 . S
C2008 C2007 1.524 . S
C2008 C2009 1.415 . S
C2009 H1979 0.950 . S
C2009 C2004 1.363 . S
C2009 C2008 1.415 . S
H2010 C2007 0.999 . S
H2011 C1992 0.913 . S
H2012 C2030 0.951 . S
H2013 C2032 0.951 . S
H2014 C2034 0.950 . S
H2015 C2035 0.950 . S
H2016 C2037 0.950 . S
H2017 C2040 0.950 . S
H2018 C2041 0.950 . S
H2019 C2043 0.950 . S
H2020 C2044 0.950 . S
H2021 C2045 0.951 . S
H2022 C2047 0.951 . S
H2023 C2049 0.950 . S
H2024 C2050 0.950 . S
H2025 C2052 0.950 . S
H2026 C2055 0.950 . S
H2027 C2056 0.950 . S
H2028 C2058 0.950 . S
H2029 C2059 0.950 . S
C2030 H2012 0.951 . S
C2030 C2031 1.366 . S
C2030 C2032 1.388 . S
C2031 C2030 1.366 . S
C2031 C2035 1.385 . S
C2032 H2013 0.951 . S
C2032 C2030 1.388 . S
C2032 C2033 1.366 . S
C2033 C2032 1.366 . S
C2033 C2034 1.414 . S
C2033 C2036 1.499 . S
C2034 H2014 0.950 . S
C2034 C2033 1.414 . S
C2034 C2035 1.374 . S
C2035 H2015 0.950 . S
C2035 C2031 1.385 . S
C2035 C2034 1.374 . S
C2036 C2033 1.499 . S
C2036 C2037 1.373 . S
C2036 C2038 1.389 . S
C2037 H2016 0.950 . S
C2037 C2036 1.373 . S
C2037 C2053 1.377 . S
C2038 C2036 1.389 . S
C2038 C2039 1.524 . S
C2038 C2052 1.377 . S
C2039 C2038 1.524 . S
C2039 C2040 1.397 . S
C2039 C2044 1.363 . S
C2040 H2017 0.950 . S
C2040 C2039 1.397 . S
C2040 C2041 1.334 . S
C2041 H2018 0.950 . S
C2041 C2040 1.334 . S
C2041 C2042 1.287 . S
C2042 C2041 1.287 . S
C2042 C2043 1.524 . S
C2042 H2061 0.913 . S
C2043 H2019 0.950 . S
C2043 C2042 1.524 . S
C2043 C2044 1.415 . S
C2044 H2020 0.950 . S
C2044 C2039 1.363 . S
C2044 C2043 1.415 . S
C2045 H2021 0.951 . S
C2045 C2046 1.366 . S
C2045 C2047 1.388 . S
C2046 C2045 1.366 . S
C2046 C2050 1.385 . S
C2047 H2022 0.951 . S
C2047 C2045 1.388 . S
C2047 C2048 1.366 . S
C2048 C2047 1.366 . S
C2048 C2049 1.414 . S
C2048 C2051 1.499 . S
C2049 H2023 0.950 . S
C2049 C2048 1.414 . S
C2049 C2050 1.374 . S
C2050 H2024 0.950 . S
C2050 C2046 1.385 . S
C2050 C2049 1.374 . S
C2051 C2048 1.499 . S
C2051 C2052 1.373 . S
C2051 C2053 1.389 . S
C2052 H2025 0.950 . S
C2052 C2038 1.377 . S
C2052 C2051 1.373 . S
C2053 C2037 1.377 . S
C2053 C2051 1.389 . S
C2053 C2054 1.524 . S
C2054 C2053 1.524 . S
C2054 C2055 1.397 . S
C2054 C2059 1.363 . S
C2055 H2026 0.950 . S
C2055 C2054 1.397 . S
C2055 C2056 1.334 . S
C2056 H2027 0.950 . S
C2056 C2055 1.334 . S
C2056 C2057 1.287 . S
C2057 C2056 1.287 . S
C2057 C2058 1.524 . S
C2057 H2060 0.999 . S
C2058 H2028 0.950 . S
C2058 C2057 1.524 . S
C2058 C2059 1.415 . S
C2059 H2029 0.950 . S
C2059 C2054 1.363 . S
C2059 C2058 1.415 . S
H2060 C2057 0.999 . S
H2061 C2042 0.913 . S
H2062 C2080 0.951 . S
H2063 C2082 0.951 . S
H2064 C2084 0.950 . S
H2065 C2085 0.950 . S
H2066 C2087 0.950 . S
H2067 C2090 0.950 . S
H2068 C2091 0.950 . S
H2069 C2093 0.950 . S
H2070 C2094 0.950 . S
H2071 C2095 0.951 . S
H2072 C2097 0.951 . S
H2073 C2099 0.950 . S
H2074 C2100 0.950 . S
H2075 C2102 0.950 . S
H2076 C2105 0.950 . S
H2077 C2106 0.950 . S
H2078 C2108 0.950 . S
H2079 C2109 0.950 . S
C2080 H2062 0.951 . S
C2080 C2081 1.366 . S
C2080 C2082 1.388 . S
C2081 C2080 1.366 . S
C2081 C2085 1.385 . S
C2082 H2063 0.951 . S
C2082 C2080 1.388 . S
C2082 C2083 1.366 . S
C2083 C2082 1.366 . S
C2083 C2084 1.414 . S
C2083 C2086 1.499 . S
C2084 H2064 0.950 . S
C2084 C2083 1.414 . S
C2084 C2085 1.374 . S
C2085 H2065 0.950 . S
C2085 C2081 1.385 . S
C2085 C2084 1.374 . S
C2086 C2083 1.499 . S
C2086 C2087 1.373 . S
C2086 C2088 1.389 . S
C2087 H2066 0.950 . S
C2087 C2086 1.373 . S
C2087 C2103 1.377 1_556 S
C2088 C2086 1.389 . S
C2088 C2089 1.524 . S
C2088 C2102 1.377 1_556 S
C2089 C2088 1.524 . S
C2089 C2090 1.397 . S
C2089 C2094 1.363 . S
C2090 H2067 0.950 . S
C2090 C2089 1.397 . S
C2090 C2091 1.334 . S
C2091 H2068 0.950 . S
C2091 C2090 1.334 . S
C2091 C2092 1.287 . S
C2092 C2091 1.287 . S
C2092 C2093 1.524 . S
C2092 H2111 0.913 . S
C2093 H2069 0.950 . S
C2093 C2092 1.524 . S
C2093 C2094 1.415 . S
C2094 H2070 0.950 . S
C2094 C2089 1.363 . S
C2094 C2093 1.415 . S
C2095 H2071 0.951 . S
C2095 C2096 1.366 . S
C2095 C2097 1.388 . S
C2096 C2095 1.366 . S
C2096 C2100 1.385 . S
C2097 H2072 0.951 . S
C2097 C2095 1.388 . S
C2097 C2098 1.366 . S
C2098 C2097 1.366 . S
C2098 C2099 1.414 . S
C2098 C2101 1.499 . S
C2099 H2073 0.950 . S
C2099 C2098 1.414 . S
C2099 C2100 1.374 . S
C2100 H2074 0.950 . S
C2100 C2096 1.385 . S
C2100 C2099 1.374 . S
C2101 C2098 1.499 . S
C2101 C2102 1.373 . S
C2101 C2103 1.389 . S
C2102 H2075 0.950 . S
C2102 C2088 1.377 1_554 S
C2102 C2101 1.373 . S
C2103 C2087 1.377 1_554 S
C2103 C2101 1.389 . S
C2103 C2104 1.524 . S
C2104 C2103 1.524 . S
C2104 C2105 1.397 . S
C2104 C2109 1.363 . S
C2105 H2076 0.950 . S
C2105 C2104 1.397 . S
C2105 C2106 1.334 . S
C2106 H2077 0.950 . S
C2106 C2105 1.334 . S
C2106 C2107 1.287 . S
C2107 C2106 1.287 . S
C2107 C2108 1.524 . S
C2107 H2110 0.999 . S
C2108 H2078 0.950 . S
C2108 C2107 1.524 . S
C2108 C2109 1.415 . S
C2109 H2079 0.950 . S
C2109 C2104 1.363 . S
C2109 C2108 1.415 . S
H2110 C2107 0.999 . S
H2111 C2092 0.913 . S
H2112 C2130 0.951 . S
H2113 C2132 0.951 . S
H2114 C2134 0.950 . S
H2115 C2135 0.950 . S
H2116 C2137 0.950 . S
H2117 C2140 0.950 . S
H2118 C2141 0.950 . S
H2119 C2143 0.950 . S
H2120 C2144 0.950 . S
H2121 C2145 0.951 . S
H2122 C2147 0.951 . S
H2123 C2149 0.950 . S
H2124 C2150 0.950 . S
H2125 C2152 0.950 . S
H2126 C2155 0.950 . S
H2127 C2156 0.950 . S
H2128 C2158 0.950 . S
H2129 C2159 0.950 . S
C2130 H2112 0.951 . S
C2130 C2131 1.366 . S
C2130 C2132 1.388 . S
C2131 C2130 1.366 . S
C2131 C2135 1.385 . S
C2132 H2113 0.951 . S
C2132 C2130 1.388 . S
C2132 C2133 1.366 . S
C2133 C2132 1.366 . S
C2133 C2134 1.414 . S
C2133 C2136 1.499 . S
C2134 H2114 0.950 . S
C2134 C2133 1.414 . S
C2134 C2135 1.374 . S
C2135 H2115 0.950 . S
C2135 C2131 1.385 . S
C2135 C2134 1.374 . S
C2136 C2133 1.499 . S
C2136 C2137 1.373 . S
C2136 C2138 1.389 . S
C2137 H2116 0.950 . S
C2137 C2136 1.373 . S
C2137 C2153 1.377 . S
C2138 C2136 1.389 . S
C2138 C2139 1.524 . S
C2138 C2152 1.377 . S
C2139 C2138 1.524 . S
C2139 C2140 1.397 . S
C2139 C2144 1.363 . S
C2140 H2117 0.950 . S
C2140 C2139 1.397 . S
C2140 C2141 1.334 . S
C2141 H2118 0.950 . S
C2141 C2140 1.334 . S
C2141 C2142 1.287 . S
C2142 C2141 1.287 . S
C2142 C2143 1.524 . S
C2142 H2161 0.913 . S
C2143 H2119 0.950 . S
C2143 C2142 1.524 . S
C2143 C2144 1.415 . S
C2144 H2120 0.950 . S
C2144 C2139 1.363 . S
C2144 C2143 1.415 . S
C2145 H2121 0.951 . S
C2145 C2146 1.366 . S
C2145 C2147 1.388 . S
C2146 C2145 1.366 . S
C2146 C2150 1.385 . S
C2147 H2122 0.951 . S
C2147 C2145 1.388 . S
C2147 C2148 1.366 . S
C2148 C2147 1.366 . S
C2148 C2149 1.414 . S
C2148 C2151 1.499 . S
C2149 H2123 0.950 . S
C2149 C2148 1.414 . S
C2149 C2150 1.374 . S
C2150 H2124 0.950 . S
C2150 C2146 1.385 . S
C2150 C2149 1.374 . S
C2151 C2148 1.499 . S
C2151 C2152 1.373 . S
C2151 C2153 1.389 . S
C2152 H2125 0.950 . S
C2152 C2138 1.377 . S
C2152 C2151 1.373 . S
C2153 C2137 1.377 . S
C2153 C2151 1.389 . S
C2153 C2154 1.524 . S
C2154 C2153 1.524 . S
C2154 C2155 1.397 . S
C2154 C2159 1.363 . S
C2155 H2126 0.950 . S
C2155 C2154 1.397 . S
C2155 C2156 1.334 . S
C2156 H2127 0.950 . S
C2156 C2155 1.334 . S
C2156 C2157 1.287 . S
C2157 C2156 1.287 . S
C2157 C2158 1.524 . S
C2157 H2160 0.999 . S
C2158 H2128 0.950 . S
C2158 C2157 1.524 . S
C2158 C2159 1.415 . S
C2159 H2129 0.950 . S
C2159 C2154 1.363 . S
C2159 C2158 1.415 . S
H2160 C2157 0.999 . S
H2161 C2142 0.913 . S
H2162 C2180 0.951 . S
H2163 C2182 0.951 . S
H2164 C2184 0.950 . S
H2165 C2185 0.950 . S
H2166 C2187 0.950 . S
H2167 C2190 0.950 . S
H2168 C2191 0.950 . S
H2169 C2193 0.950 . S
H2170 C2194 0.950 . S
H2171 C2195 0.951 . S
H2172 C2197 0.951 . S
H2173 C2199 0.950 . S
H2174 C2200 0.950 . S
H2175 C2202 0.950 . S
H2176 C2205 0.950 . S
H2177 C2206 0.950 . S
H2178 C2208 0.950 . S
H2179 C2209 0.950 . S
C2180 H2162 0.951 . S
C2180 C2181 1.366 . S
C2180 C2182 1.388 . S
C2181 C2180 1.366 . S
C2181 C2185 1.385 . S
C2182 H2163 0.951 . S
C2182 C2180 1.388 . S
C2182 C2183 1.366 . S
C2183 C2182 1.366 . S
C2183 C2184 1.414 . S
C2183 C2186 1.499 . S
C2184 H2164 0.950 . S
C2184 C2183 1.414 . S
C2184 C2185 1.374 . S
C2185 H2165 0.950 . S
C2185 C2181 1.385 . S
C2185 C2184 1.374 . S
C2186 C2183 1.499 . S
C2186 C2187 1.373 . S
C2186 C2188 1.389 . S
C2187 H2166 0.950 . S
C2187 C2186 1.373 . S
C2187 C2203 1.377 . S
C2188 C2186 1.389 . S
C2188 C2189 1.524 . S
C2188 C2202 1.377 . S
C2189 C2188 1.524 . S
C2189 C2190 1.397 . S
C2189 C2194 1.363 . S
C2190 H2167 0.950 . S
C2190 C2189 1.397 . S
C2190 C2191 1.334 . S
C2191 H2168 0.950 . S
C2191 C2190 1.334 . S
C2191 C2192 1.287 . S
C2192 C2191 1.287 . S
C2192 C2193 1.524 . S
C2192 H2211 0.913 . S
C2193 H2169 0.950 . S
C2193 C2192 1.524 . S
C2193 C2194 1.415 . S
C2194 H2170 0.950 . S
C2194 C2189 1.363 . S
C2194 C2193 1.415 . S
C2195 H2171 0.951 . S
C2195 C2196 1.366 . S
C2195 C2197 1.388 . S
C2196 C2195 1.366 . S
C2196 C2200 1.385 . S
C2197 H2172 0.951 . S
C2197 C2195 1.388 . S
C2197 C2198 1.366 . S
C2198 C2197 1.366 . S
C2198 C2199 1.414 . S
C2198 C2201 1.499 . S
C2199 H2173 0.950 . S
C2199 C2198 1.414 . S
C2199 C2200 1.374 . S
C2200 H2174 0.950 . S
C2200 C2196 1.385 . S
C2200 C2199 1.374 . S
C2201 C2198 1.499 . S
C2201 C2202 1.373 . S
C2201 C2203 1.389 . S
C2202 H2175 0.950 . S
C2202 C2188 1.377 . S
C2202 C2201 1.373 . S
C2203 C2187 1.377 . S
C2203 C2201 1.389 . S
C2203 C2204 1.524 . S
C2204 C2203 1.524 . S
C2204 C2205 1.397 . S
C2204 C2209 1.363 . S
C2205 H2176 0.950 . S
C2205 C2204 1.397 . S
C2205 C2206 1.334 . S
C2206 H2177 0.950 . S
C2206 C2205 1.334 . S
C2206 C2207 1.287 . S
C2207 C2206 1.287 . S
C2207 C2208 1.524 . S
C2207 H2210 0.999 . S
C2208 H2178 0.950 . S
C2208 C2207 1.524 . S
C2208 C2209 1.415 . S
C2209 H2179 0.950 . S
C2209 C2204 1.363 . S
C2209 C2208 1.415 . S
H2210 C2207 0.999 . S
H2211 C2192 0.913 . S
H2212 C2230 0.951 . S
H2213 C2232 0.951 . S
H2214 C2234 0.950 . S
H2215 C2235 0.950 . S
H2216 C2237 0.950 . S
H2217 C2240 0.950 . S
H2218 C2241 0.950 . S
H2219 C2243 0.950 . S
H2220 C2244 0.950 1_565 S
H2221 C2245 0.951 . S
H2222 C2247 0.951 . S
H2223 C2249 0.950 . S
H2224 C2250 0.950 . S
H2225 C2252 0.950 . S
H2226 C2255 0.950 . S
H2227 C2256 0.950 . S
H2228 C2258 0.950 . S
H2229 C2259 0.950 1_545 S
C2230 H2212 0.951 . S
C2230 C2231 1.366 . S
C2230 C2232 1.388 . S
C2231 C2230 1.366 . S
C2231 C2235 1.385 . S
C2232 H2213 0.951 . S
C2232 C2230 1.388 . S
C2232 C2233 1.366 . S
C2233 C2232 1.366 . S
C2233 C2234 1.414 . S
C2233 C2236 1.499 . S
C2234 H2214 0.950 . S
C2234 C2233 1.414 . S
C2234 C2235 1.374 . S
C2235 H2215 0.950 . S
C2235 C2231 1.385 . S
C2235 C2234 1.374 . S
C2236 C2233 1.499 . S
C2236 C2237 1.373 . S
C2236 C2238 1.389 . S
C2237 H2216 0.950 . S
C2237 C2236 1.373 . S
C2237 C2253 1.377 1_545 S
C2238 C2236 1.389 . S
C2238 C2239 1.524 . S
C2238 C2252 1.377 1_545 S
C2239 C2238 1.524 . S
C2239 C2240 1.397 . S
C2239 C2244 1.363 . S
C2240 H2217 0.950 . S
C2240 C2239 1.397 . S
C2240 C2241 1.334 . S
C2241 H2218 0.950 . S
C2241 C2240 1.334 . S
C2241 C2242 1.287 . S
C2242 C2241 1.287 . S
C2242 C2243 1.524 . S
C2242 H2261 0.913 . S
C2243 H2219 0.950 . S
C2243 C2242 1.524 . S
C2243 C2244 1.415 . S
C2244 H2220 0.950 1_545 S
C2244 C2239 1.363 . S
C2244 C2243 1.415 . S
C2245 H2221 0.951 . S
C2245 C2246 1.366 . S
C2245 C2247 1.388 . S
C2246 C2245 1.366 . S
C2246 C2250 1.385 . S
C2247 H2222 0.951 . S
C2247 C2245 1.388 . S
C2247 C2248 1.366 . S
C2248 C2247 1.366 . S
C2248 C2249 1.414 . S
C2248 C2251 1.499 . S
C2249 H2223 0.950 . S
C2249 C2248 1.414 . S
C2249 C2250 1.374 . S
C2250 H2224 0.950 . S
C2250 C2246 1.385 . S
C2250 C2249 1.374 . S
C2251 C2248 1.499 . S
C2251 C2252 1.373 . S
C2251 C2253 1.389 . S
C2252 H2225 0.950 . S
C2252 C2238 1.377 1_565 S
C2252 C2251 1.373 . S
C2253 C2237 1.377 1_565 S
C2253 C2251 1.389 . S
C2253 C2254 1.524 . S
C2254 C2253 1.524 . S
C2254 C2255 1.397 . S
C2254 C2259 1.363 . S
C2255 H2226 0.950 . S
C2255 C2254 1.397 . S
C2255 C2256 1.334 . S
C2256 H2227 0.950 . S
C2256 C2255 1.334 . S
C2256 C2257 1.287 . S
C2257 C2256 1.287 . S
C2257 C2258 1.524 . S
C2257 H2260 0.999 . S
C2258 H2228 0.950 . S
C2258 C2257 1.524 . S
C2258 C2259 1.415 . S
C2259 H2229 0.950 1_565 S
C2259 C2254 1.363 . S
C2259 C2258 1.415 . S
H2260 C2257 0.999 . S
H2261 C2242 0.913 . S
H2262 C2280 0.951 . S
H2263 C2282 0.951 . S
H2264 C2284 0.950 . S
H2265 C2285 0.950 . S
H2266 C2287 0.950 . S
H2267 C2290 0.950 . S
H2268 C2291 0.950 . S
H2269 C2293 0.950 . S
H2270 C2294 0.950 1_655 S
H2271 C2295 0.951 . S
H2272 C2297 0.951 . S
H2273 C2299 0.950 . S
H2274 C2300 0.950 . S
H2275 C2302 0.950 . S
H2276 C2305 0.950 . S
H2277 C2306 0.950 . S
H2278 C2308 0.950 . S
H2279 C2309 0.950 1_455 S
C2280 H2262 0.951 . S
C2280 C2281 1.366 . S
C2280 C2282 1.388 . S
C2281 C2280 1.366 . S
C2281 C2285 1.385 . S
C2282 H2263 0.951 . S
C2282 C2280 1.388 . S
C2282 C2283 1.366 . S
C2283 C2282 1.366 . S
C2283 C2284 1.414 . S
C2283 C2286 1.499 . S
C2284 H2264 0.950 . S
C2284 C2283 1.414 . S
C2284 C2285 1.374 . S
C2285 H2265 0.950 . S
C2285 C2281 1.385 . S
C2285 C2284 1.374 . S
C2286 C2283 1.499 . S
C2286 C2287 1.373 . S
C2286 C2288 1.389 . S
C2287 H2266 0.950 . S
C2287 C2286 1.373 . S
C2287 C2303 1.377 1_455 S
C2288 C2286 1.389 . S
C2288 C2289 1.524 . S
C2288 C2302 1.377 1_455 S
C2289 C2288 1.524 . S
C2289 C2290 1.397 . S
C2289 C2294 1.363 . S
C2290 H2267 0.950 . S
C2290 C2289 1.397 . S
C2290 C2291 1.334 . S
C2291 H2268 0.950 . S
C2291 C2290 1.334 . S
C2291 C2292 1.287 . S
C2292 C2291 1.287 . S
C2292 C2293 1.524 . S
C2292 H2311 0.913 . S
C2293 H2269 0.950 . S
C2293 C2292 1.524 . S
C2293 C2294 1.415 . S
C2294 H2270 0.950 1_455 S
C2294 C2289 1.363 . S
C2294 C2293 1.415 . S
C2295 H2271 0.951 . S
C2295 C2296 1.366 . S
C2295 C2297 1.388 . S
C2296 C2295 1.366 . S
C2296 C2300 1.385 . S
C2297 H2272 0.951 . S
C2297 C2295 1.388 . S
C2297 C2298 1.366 . S
C2298 C2297 1.366 . S
C2298 C2299 1.414 . S
C2298 C2301 1.499 . S
C2299 H2273 0.950 . S
C2299 C2298 1.414 . S
C2299 C2300 1.374 . S
C2300 H2274 0.950 . S
C2300 C2296 1.385 . S
C2300 C2299 1.374 . S
C2301 C2298 1.499 . S
C2301 C2302 1.373 . S
C2301 C2303 1.389 . S
C2302 H2275 0.950 . S
C2302 C2288 1.377 1_655 S
C2302 C2301 1.373 . S
C2303 C2287 1.377 1_655 S
C2303 C2301 1.389 . S
C2303 C2304 1.524 . S
C2304 C2303 1.524 . S
C2304 C2305 1.397 . S
C2304 C2309 1.363 . S
C2305 H2276 0.950 . S
C2305 C2304 1.397 . S
C2305 C2306 1.334 . S
C2306 H2277 0.950 . S
C2306 C2305 1.334 . S
C2306 C2307 1.287 . S
C2307 C2306 1.287 . S
C2307 C2308 1.524 . S
C2307 H2310 0.999 . S
C2308 H2278 0.950 . S
C2308 C2307 1.524 . S
C2308 C2309 1.415 . S
C2309 H2279 0.950 1_655 S
C2309 C2304 1.363 . S
C2309 C2308 1.415 . S
H2310 C2307 0.999 . S
H2311 C2292 0.913 . S
H2312 C2330 0.951 . S
H2313 C2332 0.951 . S
H2314 C2334 0.950 . S
H2315 C2335 0.950 . S
H2316 C2337 0.950 . S
H2317 C2340 0.950 . S
H2318 C2341 0.950 . S
H2319 C2343 0.950 . S
H2320 C2344 0.950 . S
H2321 C2345 0.951 . S
H2322 C2347 0.951 . S
H2323 C2349 0.950 . S
H2324 C2350 0.950 . S
H2325 C2352 0.950 . S
H2326 C2355 0.950 . S
H2327 C2356 0.950 . S
H2328 C2358 0.950 . S
H2329 C2359 0.950 . S
C2330 H2312 0.951 . S
C2330 C2331 1.366 . S
C2330 C2332 1.388 . S
C2331 C2330 1.366 . S
C2331 C2335 1.385 . S
C2332 H2313 0.951 . S
C2332 C2330 1.388 . S
C2332 C2333 1.366 . S
C2333 C2332 1.366 . S
C2333 C2334 1.414 . S
C2333 C2336 1.499 . S
C2334 H2314 0.950 . S
C2334 C2333 1.414 . S
C2334 C2335 1.374 . S
C2335 H2315 0.950 . S
C2335 C2331 1.385 . S
C2335 C2334 1.374 . S
C2336 C2333 1.499 . S
C2336 C2337 1.373 . S
C2336 C2338 1.389 . S
C2337 H2316 0.950 . S
C2337 C2336 1.373 . S
C2337 C2353 1.377 1_545 S
C2338 C2336 1.389 . S
C2338 C2339 1.524 . S
C2338 C2352 1.377 1_545 S
C2339 C2338 1.524 . S
C2339 C2340 1.397 . S
C2339 C2344 1.363 . S
C2340 H2317 0.950 . S
C2340 C2339 1.397 . S
C2340 C2341 1.334 . S
C2341 H2318 0.950 . S
C2341 C2340 1.334 . S
C2341 C2342 1.287 . S
C2342 C2341 1.287 . S
C2342 C2343 1.524 . S
C2342 H2361 0.913 . S
C2343 H2319 0.950 . S
C2343 C2342 1.524 . S
C2343 C2344 1.415 . S
C2344 H2320 0.950 . S
C2344 C2339 1.363 . S
C2344 C2343 1.415 . S
C2345 H2321 0.951 . S
C2345 C2346 1.366 . S
C2345 C2347 1.388 . S
C2346 C2345 1.366 . S
C2346 C2350 1.385 . S
C2347 H2322 0.951 . S
C2347 C2345 1.388 . S
C2347 C2348 1.366 . S
C2348 C2347 1.366 . S
C2348 C2349 1.414 . S
C2348 C2351 1.499 . S
C2349 H2323 0.950 . S
C2349 C2348 1.414 . S
C2349 C2350 1.374 . S
C2350 H2324 0.950 . S
C2350 C2346 1.385 . S
C2350 C2349 1.374 . S
C2351 C2348 1.499 . S
C2351 C2352 1.373 . S
C2351 C2353 1.389 . S
C2352 H2325 0.950 . S
C2352 C2338 1.377 1_565 S
C2352 C2351 1.373 . S
C2353 C2337 1.377 1_565 S
C2353 C2351 1.389 . S
C2353 C2354 1.524 . S
C2354 C2353 1.524 . S
C2354 C2355 1.397 . S
C2354 C2359 1.363 . S
C2355 H2326 0.950 . S
C2355 C2354 1.397 . S
C2355 C2356 1.334 . S
C2356 H2327 0.950 . S
C2356 C2355 1.334 . S
C2356 C2357 1.287 . S
C2357 C2356 1.287 . S
C2357 C2358 1.524 . S
C2357 H2360 0.999 . S
C2358 H2328 0.950 . S
C2358 C2357 1.524 . S
C2358 C2359 1.415 . S
C2359 H2329 0.950 . S
C2359 C2354 1.363 . S
C2359 C2358 1.415 . S
H2360 C2357 0.999 . S
H2361 C2342 0.913 . S
H2362 C2380 0.951 . S
H2363 C2382 0.951 . S
H2364 C2384 0.950 . S
H2365 C2385 0.950 . S
H2366 C2387 0.950 . S
H2367 C2390 0.950 . S
H2368 C2391 0.950 . S
H2369 C2393 0.950 . S
H2370 C2394 0.950 1_655 S
H2371 C2395 0.951 . S
H2372 C2397 0.951 . S
H2373 C2399 0.950 . S
H2374 C2400 0.950 . S
H2375 C2402 0.950 . S
H2376 C2405 0.950 . S
H2377 C2406 0.950 . S
H2378 C2408 0.950 . S
H2379 C2409 0.950 1_455 S
C2380 H2362 0.951 . S
C2380 C2381 1.366 . S
C2380 C2382 1.388 . S
C2381 C2380 1.366 . S
C2381 C2385 1.385 . S
C2382 H2363 0.951 . S
C2382 C2380 1.388 . S
C2382 C2383 1.366 . S
C2383 C2382 1.366 . S
C2383 C2384 1.414 . S
C2383 C2386 1.499 . S
C2384 H2364 0.950 . S
C2384 C2383 1.414 . S
C2384 C2385 1.374 . S
C2385 H2365 0.950 . S
C2385 C2381 1.385 . S
C2385 C2384 1.374 . S
C2386 C2383 1.499 . S
C2386 C2387 1.373 . S
C2386 C2388 1.389 . S
C2387 H2366 0.950 . S
C2387 C2386 1.373 . S
C2387 C2403 1.377 1_455 S
C2388 C2386 1.389 . S
C2388 C2389 1.524 . S
C2388 C2402 1.377 1_455 S
C2389 C2388 1.524 . S
C2389 C2390 1.397 . S
C2389 C2394 1.363 . S
C2390 H2367 0.950 . S
C2390 C2389 1.397 . S
C2390 C2391 1.334 . S
C2391 H2368 0.950 . S
C2391 C2390 1.334 . S
C2391 C2392 1.287 . S
C2392 C2391 1.287 . S
C2392 C2393 1.524 . S
C2392 H2411 0.913 . S
C2393 H2369 0.950 . S
C2393 C2392 1.524 . S
C2393 C2394 1.415 . S
C2394 H2370 0.950 1_455 S
C2394 C2389 1.363 . S
C2394 C2393 1.415 . S
C2395 H2371 0.951 . S
C2395 C2396 1.366 . S
C2395 C2397 1.388 . S
C2396 C2395 1.366 . S
C2396 C2400 1.385 . S
C2397 H2372 0.951 . S
C2397 C2395 1.388 . S
C2397 C2398 1.366 . S
C2398 C2397 1.366 . S
C2398 C2399 1.414 . S
C2398 C2401 1.499 . S
C2399 H2373 0.950 . S
C2399 C2398 1.414 . S
C2399 C2400 1.374 . S
C2400 H2374 0.950 . S
C2400 C2396 1.385 . S
C2400 C2399 1.374 . S
C2401 C2398 1.499 . S
C2401 C2402 1.373 . S
C2401 C2403 1.389 . S
C2402 H2375 0.950 . S
C2402 C2388 1.377 1_655 S
C2402 C2401 1.373 . S
C2403 C2387 1.377 1_655 S
C2403 C2401 1.389 . S
C2403 C2404 1.524 . S
C2404 C2403 1.524 . S
C2404 C2405 1.397 . S
C2404 C2409 1.363 . S
C2405 H2376 0.950 . S
C2405 C2404 1.397 . S
C2405 C2406 1.334 . S
C2406 H2377 0.950 . S
C2406 C2405 1.334 . S
C2406 C2407 1.287 . S
C2407 C2406 1.287 . S
C2407 C2408 1.524 . S
C2407 H2410 0.999 . S
C2408 H2378 0.950 . S
C2408 C2407 1.524 . S
C2408 C2409 1.415 . S
C2409 H2379 0.950 1_655 S
C2409 C2404 1.363 . S
C2409 C2408 1.415 . S
H2410 C2407 0.999 . S
H2411 C2392 0.913 . S
H2412 C2430 0.951 . S
H2413 C2432 0.951 . S
H2414 C2434 0.950 . S
H2415 C2435 0.950 . S
H2416 C2437 0.950 . S
H2417 C2440 0.950 . S
H2418 C2441 0.950 . S
H2419 C2443 0.950 . S
H2420 C2444 0.950 . S
H2421 C2445 0.951 . S
H2422 C2447 0.951 . S
H2423 C2449 0.950 . S
H2424 C2450 0.950 . S
H2425 C2452 0.950 . S
H2426 C2455 0.950 . S
H2427 C2456 0.950 . S
H2428 C2458 0.950 . S
H2429 C2459 0.950 . S
C2430 H2412 0.951 . S
C2430 C2431 1.366 . S
C2430 C2432 1.388 . S
C2431 C2430 1.366 . S
C2431 C2435 1.385 . S
C2432 H2413 0.951 . S
C2432 C2430 1.388 . S
C2432 C2433 1.366 . S
C2433 C2432 1.366 . S
C2433 C2434 1.414 . S
C2433 C2436 1.499 . S
C2434 H2414 0.950 . S
C2434 C2433 1.414 . S
C2434 C2435 1.374 . S
C2435 H2415 0.950 . S
C2435 C2431 1.385 . S
C2435 C2434 1.374 . S
C2436 C2433 1.499 . S
C2436 C2437 1.373 . S
C2436 C2438 1.389 . S
C2437 H2416 0.950 . S
C2437 C2436 1.373 . S
C2437 C2453 1.377 . S
C2438 C2436 1.389 . S
C2438 C2439 1.524 . S
C2438 C2452 1.377 . S
C2439 C2438 1.524 . S
C2439 C2440 1.397 . S
C2439 C2444 1.363 . S
C2440 H2417 0.950 . S
C2440 C2439 1.397 . S
C2440 C2441 1.334 . S
C2441 H2418 0.950 . S
C2441 C2440 1.334 . S
C2441 C2442 1.287 . S
C2442 C2441 1.287 . S
C2442 C2443 1.524 . S
C2442 H2461 0.913 . S
C2443 H2419 0.950 . S
C2443 C2442 1.524 . S
C2443 C2444 1.415 . S
C2444 H2420 0.950 . S
C2444 C2439 1.363 . S
C2444 C2443 1.415 . S
C2445 H2421 0.951 . S
C2445 C2446 1.366 . S
C2445 C2447 1.388 . S
C2446 C2445 1.366 . S
C2446 C2450 1.385 . S
C2447 H2422 0.951 . S
C2447 C2445 1.388 . S
C2447 C2448 1.366 . S
C2448 C2447 1.366 . S
C2448 C2449 1.414 . S
C2448 C2451 1.499 . S
C2449 H2423 0.950 . S
C2449 C2448 1.414 . S
C2449 C2450 1.374 . S
C2450 H2424 0.950 . S
C2450 C2446 1.385 . S
C2450 C2449 1.374 . S
C2451 C2448 1.499 . S
C2451 C2452 1.373 . S
C2451 C2453 1.389 . S
C2452 H2425 0.950 . S
C2452 C2438 1.377 . S
C2452 C2451 1.373 . S
C2453 C2437 1.377 . S
C2453 C2451 1.389 . S
C2453 C2454 1.524 . S
C2454 C2453 1.524 . S
C2454 C2455 1.397 . S
C2454 C2459 1.363 . S
C2455 H2426 0.950 . S
C2455 C2454 1.397 . S
C2455 C2456 1.334 . S
C2456 H2427 0.950 . S
C2456 C2455 1.334 . S
C2456 C2457 1.287 . S
C2457 C2456 1.287 . S
C2457 C2458 1.524 . S
C2457 H2460 0.999 . S
C2458 H2428 0.950 . S
C2458 C2457 1.524 . S
C2458 C2459 1.415 . S
C2459 H2429 0.950 . S
C2459 C2454 1.363 . S
C2459 C2458 1.415 . S
H2460 C2457 0.999 . S
H2461 C2442 0.913 . S
H2462 C2480 0.951 . S
H2463 C2482 0.951 . S
H2464 C2484 0.950 . S
H2465 C2485 0.950 . S
H2466 C2487 0.950 . S
H2467 C2490 0.950 . S
H2468 C2491 0.950 . S
H2469 C2493 0.950 . S
H2470 C2494 0.950 . S
H2471 C2495 0.951 . S
H2472 C2497 0.951 . S
H2473 C2499 0.950 . S
H2474 C2500 0.950 . S
H2475 C2502 0.950 . S
H2476 C2505 0.950 . S
H2477 C2506 0.950 . S
H2478 C2508 0.950 . S
H2479 C2509 0.950 . S
C2480 H2462 0.951 . S
C2480 C2481 1.366 . S
C2480 C2482 1.388 . S
C2481 C2480 1.366 . S
C2481 C2485 1.385 . S
C2482 H2463 0.951 . S
C2482 C2480 1.388 . S
C2482 C2483 1.366 . S
C2483 C2482 1.366 . S
C2483 C2484 1.414 . S
C2483 C2486 1.499 . S
C2484 H2464 0.950 . S
C2484 C2483 1.414 . S
C2484 C2485 1.374 . S
C2485 H2465 0.950 . S
C2485 C2481 1.385 . S
C2485 C2484 1.374 . S
C2486 C2483 1.499 . S
C2486 C2487 1.373 . S
C2486 C2488 1.389 . S
C2487 H2466 0.950 . S
C2487 C2486 1.373 . S
C2487 C2503 1.377 . S
C2488 C2486 1.389 . S
C2488 C2489 1.524 . S
C2488 C2502 1.377 . S
C2489 C2488 1.524 . S
C2489 C2490 1.397 . S
C2489 C2494 1.363 . S
C2490 H2467 0.950 . S
C2490 C2489 1.397 . S
C2490 C2491 1.334 . S
C2491 H2468 0.950 . S
C2491 C2490 1.334 . S
C2491 C2492 1.287 . S
C2492 C2491 1.287 . S
C2492 C2493 1.524 . S
C2492 H2511 0.913 . S
C2493 H2469 0.950 . S
C2493 C2492 1.524 . S
C2493 C2494 1.415 . S
C2494 H2470 0.950 . S
C2494 C2489 1.363 . S
C2494 C2493 1.415 . S
C2495 H2471 0.951 . S
C2495 C2496 1.366 . S
C2495 C2497 1.388 . S
C2496 C2495 1.366 . S
C2496 C2500 1.385 . S
C2497 H2472 0.951 . S
C2497 C2495 1.388 . S
C2497 C2498 1.366 . S
C2498 C2497 1.366 . S
C2498 C2499 1.414 . S
C2498 C2501 1.499 . S
C2499 H2473 0.950 . S
C2499 C2498 1.414 . S
C2499 C2500 1.374 . S
C2500 H2474 0.950 . S
C2500 C2496 1.385 . S
C2500 C2499 1.374 . S
C2501 C2498 1.499 . S
C2501 C2502 1.373 . S
C2501 C2503 1.389 . S
C2502 H2475 0.950 . S
C2502 C2488 1.377 . S
C2502 C2501 1.373 . S
C2503 C2487 1.377 . S
C2503 C2501 1.389 . S
C2503 C2504 1.524 . S
C2504 C2503 1.524 . S
C2504 C2505 1.397 . S
C2504 C2509 1.363 . S
C2505 H2476 0.950 . S
C2505 C2504 1.397 . S
C2505 C2506 1.334 . S
C2506 H2477 0.950 . S
C2506 C2505 1.334 . S
C2506 C2507 1.287 . S
C2507 C2506 1.287 . S
C2507 C2508 1.524 . S
C2507 H2510 0.999 . S
C2508 H2478 0.950 . S
C2508 C2507 1.524 . S
C2508 C2509 1.415 . S
C2509 H2479 0.950 . S
C2509 C2504 1.363 . S
C2509 C2508 1.415 . S
H2510 C2507 0.999 . S
H2511 C2492 0.913 . S
H2512 C2530 0.951 . S
H2513 C2532 0.951 . S
H2514 C2534 0.950 . S
H2515 C2535 0.950 . S
H2516 C2537 0.950 . S
H2517 C2540 0.950 . S
H2518 C2541 0.950 . S
H2519 C2543 0.950 . S
H2520 C2544 0.950 . S
H2521 C2545 0.951 . S
H2522 C2547 0.951 . S
H2523 C2549 0.950 . S
H2524 C2550 0.950 . S
H2525 C2552 0.950 . S
H2526 C2555 0.950 . S
H2527 C2556 0.950 . S
H2528 C2558 0.950 . S
H2529 C2559 0.950 . S
C2530 H2512 0.951 . S
C2530 C2531 1.366 . S
C2530 C2532 1.388 . S
C2531 C2530 1.366 . S
C2531 C2535 1.385 . S
C2532 H2513 0.951 . S
C2532 C2530 1.388 . S
C2532 C2533 1.366 . S
C2533 C2532 1.366 . S
C2533 C2534 1.414 . S
C2533 C2536 1.499 . S
C2534 H2514 0.950 . S
C2534 C2533 1.414 . S
C2534 C2535 1.374 . S
C2535 H2515 0.950 . S
C2535 C2531 1.385 . S
C2535 C2534 1.374 . S
C2536 C2533 1.499 . S
C2536 C2537 1.373 . S
C2536 C2538 1.389 . S
C2537 H2516 0.950 . S
C2537 C2536 1.373 . S
C2537 C2553 1.377 . S
C2538 C2536 1.389 . S
C2538 C2539 1.524 . S
C2538 C2552 1.377 . S
C2539 C2538 1.524 . S
C2539 C2540 1.397 . S
C2539 C2544 1.363 . S
C2540 H2517 0.950 . S
C2540 C2539 1.397 . S
C2540 C2541 1.334 . S
C2541 H2518 0.950 . S
C2541 C2540 1.334 . S
C2541 C2542 1.287 . S
C2542 C2541 1.287 . S
C2542 C2543 1.524 . S
C2542 H2561 0.913 . S
C2543 H2519 0.950 . S
C2543 C2542 1.524 . S
C2543 C2544 1.415 . S
C2544 H2520 0.950 . S
C2544 C2539 1.363 . S
C2544 C2543 1.415 . S
C2545 H2521 0.951 . S
C2545 C2546 1.366 . S
C2545 C2547 1.388 . S
C2546 C2545 1.366 . S
C2546 C2550 1.385 . S
C2547 H2522 0.951 . S
C2547 C2545 1.388 . S
C2547 C2548 1.366 . S
C2548 C2547 1.366 . S
C2548 C2549 1.414 . S
C2548 C2551 1.499 . S
C2549 H2523 0.950 . S
C2549 C2548 1.414 . S
C2549 C2550 1.374 . S
C2550 H2524 0.950 . S
C2550 C2546 1.385 . S
C2550 C2549 1.374 . S
C2551 C2548 1.499 . S
C2551 C2552 1.373 . S
C2551 C2553 1.389 . S
C2552 H2525 0.950 . S
C2552 C2538 1.377 . S
C2552 C2551 1.373 . S
C2553 C2537 1.377 . S
C2553 C2551 1.389 . S
C2553 C2554 1.524 . S
C2554 C2553 1.524 . S
C2554 C2555 1.397 . S
C2554 C2559 1.363 . S
C2555 H2526 0.950 . S
C2555 C2554 1.397 . S
C2555 C2556 1.334 . S
C2556 H2527 0.950 . S
C2556 C2555 1.334 . S
C2556 C2557 1.287 . S
C2557 C2556 1.287 . S
C2557 C2558 1.524 . S
C2557 H2560 0.999 . S
C2558 H2528 0.950 . S
C2558 C2557 1.524 . S
C2558 C2559 1.415 . S
C2559 H2529 0.950 . S
C2559 C2554 1.363 . S
C2559 C2558 1.415 . S
H2560 C2557 0.999 . S
H2561 C2542 0.913 . S
H2562 C2580 0.951 . S
H2563 C2582 0.951 . S
H2564 C2584 0.950 . S
H2565 C2585 0.950 . S
H2566 C2587 0.950 . S
H2567 C2590 0.950 . S
H2568 C2591 0.950 . S
H2569 C2593 0.950 . S
H2570 C2594 0.950 . S
H2571 C2595 0.951 . S
H2572 C2597 0.951 . S
H2573 C2599 0.950 . S
H2574 C2600 0.950 . S
H2575 C2602 0.950 . S
H2576 C2605 0.950 . S
H2577 C2606 0.950 . S
H2578 C2608 0.950 . S
H2579 C2609 0.950 . S
C2580 H2562 0.951 . S
C2580 C2581 1.366 . S
C2580 C2582 1.388 . S
C2581 C2580 1.366 . S
C2581 C2585 1.385 . S
C2582 H2563 0.951 . S
C2582 C2580 1.388 . S
C2582 C2583 1.366 . S
C2583 C2582 1.366 . S
C2583 C2584 1.414 . S
C2583 C2586 1.499 . S
C2584 H2564 0.950 . S
C2584 C2583 1.414 . S
C2584 C2585 1.374 . S
C2585 H2565 0.950 . S
C2585 C2581 1.385 . S
C2585 C2584 1.374 . S
C2586 C2583 1.499 . S
C2586 C2587 1.373 . S
C2586 C2588 1.389 . S
C2587 H2566 0.950 . S
C2587 C2586 1.373 . S
C2587 C2603 1.377 1_554 S
C2588 C2586 1.389 . S
C2588 C2589 1.524 . S
C2588 C2602 1.377 1_554 S
C2589 C2588 1.524 . S
C2589 C2590 1.397 . S
C2589 C2594 1.363 . S
C2590 H2567 0.950 . S
C2590 C2589 1.397 . S
C2590 C2591 1.334 . S
C2591 H2568 0.950 . S
C2591 C2590 1.334 . S
C2591 C2592 1.287 . S
C2592 C2591 1.287 . S
C2592 C2593 1.524 . S
C2592 H2611 0.913 . S
C2593 H2569 0.950 . S
C2593 C2592 1.524 . S
C2593 C2594 1.415 . S
C2594 H2570 0.950 . S
C2594 C2589 1.363 . S
C2594 C2593 1.415 . S
C2595 H2571 0.951 . S
C2595 C2596 1.366 . S
C2595 C2597 1.388 . S
C2596 C2595 1.366 . S
C2596 C2600 1.385 . S
C2597 H2572 0.951 . S
C2597 C2595 1.388 . S
C2597 C2598 1.366 . S
C2598 C2597 1.366 . S
C2598 C2599 1.414 . S
C2598 C2601 1.499 . S
C2599 H2573 0.950 . S
C2599 C2598 1.414 . S
C2599 C2600 1.374 . S
C2600 H2574 0.950 . S
C2600 C2596 1.385 . S
C2600 C2599 1.374 . S
C2601 C2598 1.499 . S
C2601 C2602 1.373 . S
C2601 C2603 1.389 . S
C2602 H2575 0.950 . S
C2602 C2588 1.377 1_556 S
C2602 C2601 1.373 . S
C2603 C2587 1.377 1_556 S
C2603 C2601 1.389 . S
C2603 C2604 1.524 . S
C2604 C2603 1.524 . S
C2604 C2605 1.397 . S
C2604 C2609 1.363 . S
C2605 H2576 0.950 . S
C2605 C2604 1.397 . S
C2605 C2606 1.334 . S
C2606 H2577 0.950 . S
C2606 C2605 1.334 . S
C2606 C2607 1.287 . S
C2607 C2606 1.287 . S
C2607 C2608 1.524 . S
C2607 H2610 0.999 . S
C2608 H2578 0.950 . S
C2608 C2607 1.524 . S
C2608 C2609 1.415 . S
C2609 H2579 0.950 . S
C2609 C2604 1.363 . S
C2609 C2608 1.415 . S
H2610 C2607 0.999 . S
H2611 C2592 0.913 . S
H2612 C2630 0.951 . S
H2613 C2632 0.951 . S
H2614 C2634 0.950 . S
H2615 C2635 0.950 . S
H2616 C2637 0.950 . S
H2617 C2640 0.950 . S
H2618 C2641 0.950 . S
H2619 C2643 0.950 . S
H2620 C2644 0.950 . S
H2621 C2645 0.951 . S
H2622 C2647 0.951 . S
H2623 C2649 0.950 . S
H2624 C2650 0.950 . S
H2625 C2652 0.950 . S
H2626 C2655 0.950 . S
H2627 C2656 0.950 . S
H2628 C2658 0.950 . S
H2629 C2659 0.950 . S
C2630 H2612 0.951 . S
C2630 C2631 1.366 . S
C2630 C2632 1.388 . S
C2631 C2630 1.366 . S
C2631 C2635 1.385 . S
C2632 H2613 0.951 . S
C2632 C2630 1.388 . S
C2632 C2633 1.366 . S
C2633 C2632 1.366 . S
C2633 C2634 1.414 . S
C2633 C2636 1.499 . S
C2634 H2614 0.950 . S
C2634 C2633 1.414 . S
C2634 C2635 1.374 . S
C2635 H2615 0.950 . S
C2635 C2631 1.385 . S
C2635 C2634 1.374 . S
C2636 C2633 1.499 . S
C2636 C2637 1.373 . S
C2636 C2638 1.389 . S
C2637 H2616 0.950 . S
C2637 C2636 1.373 . S
C2637 C2653 1.377 . S
C2638 C2636 1.389 . S
C2638 C2639 1.524 . S
C2638 C2652 1.377 . S
C2639 C2638 1.524 . S
C2639 C2640 1.397 . S
C2639 C2644 1.363 . S
C2640 H2617 0.950 . S
C2640 C2639 1.397 . S
C2640 C2641 1.334 . S
C2641 H2618 0.950 . S
C2641 C2640 1.334 . S
C2641 C2642 1.287 . S
C2642 C2641 1.287 . S
C2642 C2643 1.524 . S
C2642 H2661 0.913 . S
C2643 H2619 0.950 . S
C2643 C2642 1.524 . S
C2643 C2644 1.415 . S
C2644 H2620 0.950 . S
C2644 C2639 1.363 . S
C2644 C2643 1.415 . S
C2645 H2621 0.951 . S
C2645 C2646 1.366 . S
C2645 C2647 1.388 . S
C2646 C2645 1.366 . S
C2646 C2650 1.385 . S
C2647 H2622 0.951 . S
C2647 C2645 1.388 . S
C2647 C2648 1.366 . S
C2648 C2647 1.366 . S
C2648 C2649 1.414 . S
C2648 C2651 1.499 . S
C2649 H2623 0.950 . S
C2649 C2648 1.414 . S
C2649 C2650 1.374 . S
C2650 H2624 0.950 . S
C2650 C2646 1.385 . S
C2650 C2649 1.374 . S
C2651 C2648 1.499 . S
C2651 C2652 1.373 . S
C2651 C2653 1.389 . S
C2652 H2625 0.950 . S
C2652 C2638 1.377 . S
C2652 C2651 1.373 . S
C2653 C2637 1.377 . S
C2653 C2651 1.389 . S
C2653 C2654 1.524 . S
C2654 C2653 1.524 . S
C2654 C2655 1.397 . S
C2654 C2659 1.363 . S
C2655 H2626 0.950 . S
C2655 C2654 1.397 . S
C2655 C2656 1.334 . S
C2656 H2627 0.950 . S
C2656 C2655 1.334 . S
C2656 C2657 1.287 . S
C2657 C2656 1.287 . S
C2657 C2658 1.524 . S
C2657 H2660 0.999 . S
C2658 H2628 0.950 . S
C2658 C2657 1.524 . S
C2658 C2659 1.415 . S
C2659 H2629 0.950 . S
C2659 C2654 1.363 . S
C2659 C2658 1.415 . S
H2660 C2657 0.999 . S
H2661 C2642 0.913 . S
H2662 C2680 0.951 . S
H2663 C2682 0.951 . S
H2664 C2684 0.950 . S
H2665 C2685 0.950 . S
H2666 C2687 0.950 . S
H2667 C2690 0.950 . S
H2668 C2691 0.950 . S
H2669 C2693 0.950 . S
H2670 C2694 0.950 . S
H2671 C2695 0.951 . S
H2672 C2697 0.951 . S
H2673 C2699 0.950 . S
H2674 C2700 0.950 . S
H2675 C2702 0.950 . S
H2676 C2705 0.950 . S
H2677 C2706 0.950 . S
H2678 C2708 0.950 . S
H2679 C2709 0.950 . S
C2680 H2662 0.951 . S
C2680 C2681 1.366 . S
C2680 C2682 1.388 . S
C2681 C2680 1.366 . S
C2681 C2685 1.385 . S
C2682 H2663 0.951 . S
C2682 C2680 1.388 . S
C2682 C2683 1.366 . S
C2683 C2682 1.366 . S
C2683 C2684 1.414 . S
C2683 C2686 1.499 . S
C2684 H2664 0.950 . S
C2684 C2683 1.414 . S
C2684 C2685 1.374 . S
C2685 H2665 0.950 . S
C2685 C2681 1.385 . S
C2685 C2684 1.374 . S
C2686 C2683 1.499 . S
C2686 C2687 1.373 . S
C2686 C2688 1.389 . S
C2687 H2666 0.950 . S
C2687 C2686 1.373 . S
C2687 C2703 1.377 1_554 S
C2688 C2686 1.389 . S
C2688 C2689 1.524 . S
C2688 C2702 1.377 1_554 S
C2689 C2688 1.524 . S
C2689 C2690 1.397 . S
C2689 C2694 1.363 . S
C2690 H2667 0.950 . S
C2690 C2689 1.397 . S
C2690 C2691 1.334 . S
C2691 H2668 0.950 . S
C2691 C2690 1.334 . S
C2691 C2692 1.287 . S
C2692 C2691 1.287 . S
C2692 C2693 1.524 . S
C2692 H2711 0.913 . S
C2693 H2669 0.950 . S
C2693 C2692 1.524 . S
C2693 C2694 1.415 . S
C2694 H2670 0.950 . S
C2694 C2689 1.363 . S
C2694 C2693 1.415 . S
C2695 H2671 0.951 . S
C2695 C2696 1.366 . S
C2695 C2697 1.388 . S
C2696 C2695 1.366 . S
C2696 C2700 1.385 . S
C2697 H2672 0.951 . S
C2697 C2695 1.388 . S
C2697 C2698 1.366 . S
C2698 C2697 1.366 . S
C2698 C2699 1.414 . S
C2698 C2701 1.499 . S
C2699 H2673 0.950 . S
C2699 C2698 1.414 . S
C2699 C2700 1.374 . S
C2700 H2674 0.950 . S
C2700 C2696 1.385 . S
C2700 C2699 1.374 . S
C2701 C2698 1.499 . S
C2701 C2702 1.373 . S
C2701 C2703 1.389 . S
C2702 H2675 0.950 . S
C2702 C2688 1.377 1_556 S
C2702 C2701 1.373 . S
C2703 C2687 1.377 1_556 S
C2703 C2701 1.389 . S
C2703 C2704 1.524 . S
C2704 C2703 1.524 . S
C2704 C2705 1.397 . S
C2704 C2709 1.363 . S
C2705 H2676 0.950 . S
C2705 C2704 1.397 . S
C2705 C2706 1.334 . S
C2706 H2677 0.950 . S
C2706 C2705 1.334 . S
C2706 C2707 1.287 . S
C2707 C2706 1.287 . S
C2707 C2708 1.524 . S
C2707 H2710 0.999 . S
C2708 H2678 0.950 . S
C2708 C2707 1.524 . S
C2708 C2709 1.415 . S
C2709 H2679 0.950 . S
C2709 C2704 1.363 . S
C2709 C2708 1.415 . S
H2710 C2707 0.999 . S
H2711 C2692 0.913 . S
C331 C53 1.490 . S
C346 C10 1.522 . S
C381 C23 1.522 . S
C396 C75 1.522 . S
C431 C88 1.522 . S
C446 C27 1.490 . S
C481 C101 1.522 . S
C496 C40 1.490 . S
C531 C192 1.522 . S
C546 C105 1.490 . S
C581 C205 1.522 . S
C596 C118 1.490 . S
C631 C140 1.522 . S
C646 C157 1.490 . S
C681 C179 1.522 . S
C696 C144 1.490 . S
C731 C209 1.490 . S
C746 C283 1.522 . S
C781 C231 1.521 . S
C796 C257 1.522 . S
C831 C244 1.522 . S
C846 C270 1.521 . S
C881 C287 1.490 . S
C896 C300 1.490 . S
C931 C49 1.490 . S
C946 C66 1.522 . S
C981 C1 1.522 . S
C996 C79 1.522 . S
C1031 C92 1.521 . S
C1046 C14 1.522 . S
C1081 C36 1.490 . S
C1096 C62 1.490 . S
C1131 C309 1.490 . S
C1146 C235 1.522 . S
C1181 C248 1.522 . S
C1196 C274 1.522 . S
C1231 C261 1.522 . S
C1246 C296 1.490 . S
C1281 C222 1.522 . S
C1296 C218 1.490 . S
C1331 C153 1.489 . S
C1346 C127 1.489 . S
C1381 C196 1.522 . S
C1396 C170 1.522 . S
C1431 C166 1.490 . S
C1446 C183 1.522 . S
C1481 C131 1.522 . S
C1496 C114 1.490 . S
C1531 C289 1.604 . S
C1546 C5 1.638 . S
C1581 C211 1.604 . S
C1596 C18 1.638 . S
C1631 C302 1.604 . S
C1646 C29 1.603 . S
C1681 C278 1.638 . S
C1696 C42 1.604 . S
C1731 C239 1.638 . S
C1746 C55 1.603 . S
C1781 C70 1.638 . S
C1796 C252 1.638 . S
C1831 C265 1.638 . S
C1846 C83 1.638 . S
C1881 C226 1.638 . S
C1896 C96 1.638 . S
C1931 C174 1.638 . S
C1946 C107 1.603 . S
C1981 C187 1.638 . S
C1996 C120 1.603 . S
C2031 C200 1.638 . S
C2046 C135 1.638 . S
C2081 C146 1.603 . S
C2096 C159 1.603 . S
C2131 C68 1.638 . S
C2146 C133 1.638 . S
C2181 C81 1.638 . S
C2196 C148 1.603 . S
C2231 C109 1.604 . S
C2246 C94 1.638 . S
C2281 C57 1.604 . S
C2296 C122 1.604 . S
C2331 C185 1.638 . S
C2346 C44 1.603 . S
C2381 C3 1.638 . S
C2396 C198 1.638 . S
C2431 C161 1.603 . S
C2446 C16 1.638 . S
C2481 C31 1.603 . S
C2496 C172 1.638 . S
C2531 C224 1.638 . S
C2546 C304 1.603 . S
C2581 C276 1.638 . S
C2596 C237 1.638 . S
C2631 C291 1.603 . S
C2646 C250 1.638 . S
C2681 C213 1.604 . S
C2696 C263 1.638 . S
