# Generated by pormake.
# Topology soe, (5)-cn, num edge types: 1
# Building blocks:
#     Node 0, Type 0, BuildingBlock: BEQFEK_clean_sbu_0, # of connection points: 5
#     Node 1, Type 0, BuildingBlock: BEQFEK_clean_sbu_0, # of connection points: 5
#     Node 2, Type 0, BuildingBlock: BEQFEK_clean_sbu_0, # of connection points: 5
#     Node 3, Type 0, BuildingBlock: BEQFEK_clean_sbu_0, # of connection points: 5
#     Node 4, Type 0, BuildingBlock: BEQFEK_clean_sbu_0, # of connection points: 5
#     Node 5, Type 0, BuildingBlock: BEQFEK_clean_sbu_0, # of connection points: 5
#     Node 6, Type 0, BuildingBlock: BEQFEK_clean_sbu_0, # of connection points: 5
#     Node 7, Type 0, BuildingBlock: BEQFEK_clean_sbu_0, # of connection points: 5
#     Edge 8, Type (0, 0), BuildingBlock: ZUJKAS_clean_linker_0, # of connection points: 2
#     Edge 9, Type (0, 0), BuildingBlock: ZUJKAS_clean_linker_0, # of connection points: 2
#     Edge 10, Type (0, 0), BuildingBlock: ZUJKAS_clean_linker_0, # of connection points: 2
#     Edge 11, Type (0, 0), BuildingBlock: ZUJKAS_clean_linker_0, # of connection points: 2
#     Edge 12, Type (0, 0), BuildingBlock: ZUJKAS_clean_linker_0, # of connection points: 2
#     Edge 13, Type (0, 0), BuildingBlock: ZUJKAS_clean_linker_0, # of connection points: 2
#     Edge 14, Type (0, 0), BuildingBlock: ZUJKAS_clean_linker_0, # of connection points: 2
#     Edge 15, Type (0, 0), BuildingBlock: ZUJKAS_clean_linker_0, # of connection points: 2
#     Edge 16, Type (0, 0), BuildingBlock: ZUJKAS_clean_linker_0, # of connection points: 2
#     Edge 17, Type (0, 0), BuildingBlock: ZUJKAS_clean_linker_0, # of connection points: 2
#     Edge 18, Type (0, 0), BuildingBlock: ZUJKAS_clean_linker_0, # of connection points: 2
#     Edge 19, Type (0, 0), BuildingBlock: ZUJKAS_clean_linker_0, # of connection points: 2
#     Edge 20, Type (0, 0), BuildingBlock: ZUJKAS_clean_linker_0, # of connection points: 2
#     Edge 21, Type (0, 0), BuildingBlock: ZUJKAS_clean_linker_0, # of connection points: 2
#     Edge 22, Type (0, 0), BuildingBlock: ZUJKAS_clean_linker_0, # of connection points: 2
#     Edge 23, Type (0, 0), BuildingBlock: ZUJKAS_clean_linker_0, # of connection points: 2
#     Edge 24, Type (0, 0), BuildingBlock: ZUJKAS_clean_linker_0, # of connection points: 2
#     Edge 25, Type (0, 0), BuildingBlock: ZUJKAS_clean_linker_0, # of connection points: 2
#     Edge 26, Type (0, 0), BuildingBlock: ZUJKAS_clean_linker_0, # of connection points: 2
#     Edge 27, Type (0, 0), BuildingBlock: ZUJKAS_clean_linker_0, # of connection points: 2
# Relax obj value: 0.150
# Max RMSD: 0.227
# Mean RMSD: 0.168
data_MOF--net-soe--node1-BEQFEK_clean_sbu_0--edge1-ZUJKAS_clean_linker_0
_symmetry_space_group_name_H-M    P1
_symmetry_Int_Tables_number       1
_symmetry_cell_setting            triclinic
loop_
_symmetry_equiv_pos_as_xyz
'x, y, z'
_cell_length_a     75.58193
_cell_length_b     50.851309
_cell_length_c     23.364355
_cell_angle_alpha  89.47369
_cell_angle_beta   90.619882
_cell_angle_gamma 92.898777
loop_
_atom_site_label
_atom_site_type_symbol
_atom_site_fract_x
_atom_site_fract_y
_atom_site_fract_z
_atom_type_partial_charge
Co0 Co 0.11854 0.98988 0.15951 0.0
Co1 Co 0.12103 0.01296 0.03513 0.0
C2 C 0.14972 0.98087 0.08742 0.0
O3 O 0.14134 0.97692 0.13392 0.0
O4 O 0.14331 0.99437 0.04671 0.0
C5 C 0.12333 0.96355 0.26825 0.0
O6 O 0.13838 0.95664 0.24682 0.0
C7 C 0.12182 0.00664 0.91183 0.0
C8 C 0.11431 0.04555 0.87953 0.0
C9 C 0.11842 0.02062 0.862 0.0
N10 N 0.11976 0.02254 0.95655 0.0
N11 N 0.11547 0.04587 0.93706 0.0
C12 C 0.12531 0.97803 0.91781 0.0
H13 H 0.12142 0.9706 0.96092 0.0
H14 H 0.11798 0.96639 0.88442 0.0
H15 H 0.13969 0.97545 0.91266 0.0
C16 C 0.08437 0.9675 0.11368 0.0
N17 N 0.1 0.98105 0.10718 0.0
N18 N 0.10068 0.99152 0.05551 0.0
C19 C 0.08529 0.98545 0.02782 0.0
C20 C 0.07448 0.96983 0.06356 0.0
C21 C 0.07907 0.95293 0.16722 0.0
H22 H 0.07505 0.96723 0.19961 0.0
H23 H 0.09054 0.9426 0.18484 0.0
H24 H 0.0679 0.9384 0.15911 0.0
O25 O 0.12106 0.02867 0.16866 0.0
O26 O 0.12224 0.04545 0.08073 0.0
H27 H 0.08518 0.01799 0.96876 0.0
H28 H 0.06557 0.99655 0.96516 0.0
C29 C 0.08015 0.99719 0.97137 0.0
H30 H 0.08607 0.98607 0.93639 0.0
H31 H 0.11285 0.06176 0.96309 0.0
O32 O 0.11282 0.97637 0.23716 0.0
C33 C 0.12228 0.04842 0.13476 0.0
Co34 Co 0.36411 0.91201 0.17817 0.0
Co35 Co 0.363 0.89061 0.05334 0.0
C36 C 0.33256 0.91846 0.10325 0.0
O37 O 0.34062 0.92251 0.1507 0.0
O38 O 0.33976 0.90642 0.06278 0.0
C39 C 0.35834 0.93933 0.28391 0.0
O40 O 0.34369 0.94673 0.25924 0.0
C41 C 0.36214 0.8984 0.93036 0.0
C42 C 0.37099 0.86063 0.89779 0.0
C43 C 0.36595 0.88535 0.88045 0.0
N44 N 0.36485 0.88219 0.97487 0.0
N45 N 0.36996 0.85954 0.95524 0.0
C46 C 0.35757 0.92651 0.93679 0.0
H47 H 0.3612 0.93365 0.98031 0.0
H48 H 0.36445 0.93917 0.90417 0.0
H49 H 0.34306 0.92796 0.93086 0.0
C50 C 0.39759 0.93787 0.13671 0.0
N51 N 0.38236 0.92353 0.12784 0.0
N52 N 0.38223 0.91396 0.07572 0.0
C53 C 0.39755 0.92157 0.04997 0.0
C54 C 0.40775 0.93715 0.08761 0.0
C55 C 0.40249 0.9511 0.19198 0.0
H56 H 0.40597 0.93597 0.22415 0.0
H57 H 0.39097 0.96135 0.20821 0.0
H58 H 0.41389 0.96552 0.18674 0.0
O59 O 0.36385 0.87311 0.18695 0.0
O60 O 0.36353 0.85766 0.09843 0.0
H61 H 0.3993 0.88988 0.99067 0.0
H62 H 0.41793 0.91329 0.98886 0.0
C63 C 0.40336 0.91105 0.99389 0.0
H64 H 0.39695 0.92184 0.9585 0.0
H65 H 0.37316 0.84358 0.98115 0.0
O66 O 0.36885 0.92567 0.25598 0.0
C67 C 0.36375 0.85389 0.15237 0.0
Co68 Co 0.13579 0.36867 0.32743 0.0
Co69 Co 0.14046 0.34871 0.45364 0.0
C70 C 0.16844 0.38309 0.39588 0.0
O71 O 0.15932 0.38409 0.34987 0.0
O72 O 0.1627 0.3702 0.43945 0.0
C73 C 0.13882 0.39832 0.22156 0.0
O74 O 0.15245 0.41062 0.24662 0.0
C75 C 0.14375 0.35472 0.57759 0.0
C76 C 0.13359 0.31576 0.60894 0.0
C77 C 0.13968 0.3405 0.62717 0.0
N78 N 0.14001 0.33916 0.53244 0.0
N79 N 0.13423 0.31577 0.55143 0.0
C80 C 0.14914 0.38337 0.57228 0.0
H81 H 0.14567 0.39096 0.52912 0.0
H82 H 0.14262 0.3949 0.60542 0.0
H83 H 0.1637 0.38599 0.57836 0.0
C84 C 0.10272 0.38773 0.37527 0.0
N85 N 0.11838 0.37644 0.38124 0.0
N86 N 0.12005 0.36759 0.43406 0.0
C87 C 0.10534 0.37271 0.46325 0.0
C88 C 0.09391 0.38563 0.42702 0.0
C89 C 0.09581 0.39801 0.31961 0.0
H90 H 0.09518 0.38193 0.28776 0.0
H91 H 0.10516 0.41378 0.30322 0.0
H92 H 0.08246 0.40582 0.32405 0.0
O93 O 0.13683 0.33012 0.32044 0.0
O94 O 0.14017 0.31558 0.40948 0.0
H95 H 0.10395 0.3437 0.53033 0.0
H96 H 0.08876 0.36968 0.53881 0.0
C97 C 0.10216 0.36506 0.52448 0.0
H98 H 0.11191 0.37605 0.55203 0.0
H99 H 0.1301 0.30013 0.52507 0.0
O100 O 0.12958 0.38117 0.24961 0.0
C101 C 0.13853 0.3113 0.35604 0.0
Co102 Co 0.37317 0.5309 0.32438 0.0
Co103 Co 0.36971 0.54734 0.45208 0.0
C104 C 0.34131 0.51412 0.39091 0.0
O105 O 0.35004 0.51388 0.34471 0.0
O106 O 0.34739 0.52643 0.43464 0.0
C107 C 0.37308 0.49952 0.22215 0.0
O108 O 0.36329 0.48226 0.25157 0.0
C109 C 0.36769 0.53631 0.57541 0.0
C110 C 0.37573 0.57511 0.61183 0.0
C111 C 0.37109 0.54925 0.6267 0.0
N112 N 0.3706 0.55363 0.53225 0.0
N113 N 0.37523 0.57683 0.55433 0.0
C114 C 0.36134 0.50816 0.56747 0.0
H115 H 0.35373 0.50568 0.5271 0.0
H116 H 0.37286 0.49558 0.56532 0.0
H117 H 0.35292 0.50127 0.60382 0.0
C118 C 0.40666 0.51047 0.36905 0.0
N119 N 0.39115 0.52184 0.37656 0.0
N120 N 0.39012 0.52957 0.42997 0.0
C121 C 0.40518 0.52387 0.45791 0.0
C122 C 0.41607 0.51142 0.42033 0.0
C123 C 0.41283 0.50092 0.31265 0.0
H124 H 0.41253 0.51716 0.28067 0.0
H125 H 0.40361 0.48473 0.29754 0.0
H126 H 0.42646 0.49384 0.31552 0.0
O127 O 0.37142 0.5696 0.3216 0.0
O128 O 0.36933 0.58182 0.4121 0.0
H129 H 0.4065 0.55157 0.52658 0.0
H130 H 0.42313 0.52728 0.53116 0.0
C131 C 0.40921 0.53067 0.51908 0.0
H132 H 0.40056 0.5182 0.54726 0.0
H133 H 0.37835 0.59374 0.5301 0.0
O134 O 0.3789 0.52062 0.246 0.0
C135 C 0.37005 0.58745 0.35893 0.0
Co136 Co 0.86167 0.86556 0.95414 0.0
Co137 Co 0.86709 0.88277 0.82631 0.0
C138 C 0.83741 0.90217 0.8966 0.0
O139 O 0.84234 0.88931 0.94031 0.0
O140 O 0.84577 0.9015 0.84963 0.0
C141 C 0.84364 0.84816 0.05604 0.0
O142 O 0.82931 0.85271 0.026 0.0
C143 C 0.85796 0.88243 0.70369 0.0
C144 C 0.88369 0.8945 0.66502 0.0
C145 C 0.86639 0.8863 0.65151 0.0
N146 N 0.86987 0.88754 0.74585 0.0
N147 N 0.88516 0.89504 0.72242 0.0
C148 C 0.83881 0.87492 0.71369 0.0
H149 H 0.83448 0.88274 0.75502 0.0
H150 H 0.83685 0.85319 0.71555 0.0
H151 H 0.83043 0.88245 0.67846 0.0
C152 C 0.86049 0.81257 0.90175 0.0
N153 N 0.86157 0.83904 0.89787 0.0
N154 N 0.86456 0.84613 0.84434 0.0
C155 C 0.86596 0.82429 0.81272 0.0
C156 C 0.86314 0.80238 0.84781 0.0
C157 C 0.857 0.79759 0.95621 0.0
H158 H 0.84518 0.80512 0.97705 0.0
H159 H 0.85473 0.77619 0.9486 0.0
H160 H 0.86846 0.80093 0.98582 0.0
O161 O 0.88482 0.88549 0.95463 0.0
O162 O 0.88892 0.89778 0.86414 0.0
H163 H 0.87866 0.80547 0.74258 0.0
H164 H 0.86099 0.82602 0.72242 0.0
C165 C 0.87235 0.82414 0.75224 0.0
H166 H 0.88215 0.84071 0.74487 0.0
H167 H 0.89672 0.8999 0.74563 0.0
O168 O 0.85868 0.85089 0.03229 0.0
C169 C 0.89418 0.89705 0.91607 0.0
Co170 Co 0.63226 0.01765 0.85452 0.0
Co171 Co 0.63819 0.03912 0.9788 0.0
C172 C 0.66515 0.00726 0.92041 0.0
O173 O 0.65558 0.00467 0.87553 0.0
O174 O 0.65998 0.01992 0.96343 0.0
C175 C 0.63379 0.98841 0.7495 0.0
O176 O 0.64703 0.97694 0.77458 0.0
C177 C 0.64044 0.03191 0.10253 0.0
C178 C 0.63555 0.07166 0.13427 0.0
C179 C 0.63834 0.04612 0.15229 0.0
N180 N 0.63881 0.04827 0.05754 0.0
N181 N 0.63615 0.07209 0.07673 0.0
C182 C 0.64218 0.00287 0.09687 0.0
H183 H 0.63822 0.99631 0.0532 0.0
H184 H 0.63394 0.99195 0.12914 0.0
H185 H 0.65623 0.99826 0.10415 0.0
C186 C 0.59888 0.99622 0.90553 0.0
N187 N 0.61502 0.00852 0.91009 0.0
N188 N 0.61708 0.01833 0.96181 0.0
C189 C 0.60209 0.01301 0.99151 0.0
C190 C 0.59012 0.99863 0.95701 0.0
C191 C 0.59188 0.98336 0.852 0.0
H192 H 0.58807 0.99881 0.82102 0.0
H193 H 0.60238 0.97209 0.83227 0.0
H194 H 0.58017 0.96994 0.86083 0.0
O195 O 0.63432 0.05632 0.84565 0.0
O196 O 0.63836 0.0722 0.93319 0.0
H197 H 0.60419 0.04511 0.05067 0.0
H198 H 0.58382 0.0254 0.05567 0.0
C199 C 0.59827 0.02478 0.04834 0.0
H200 H 0.60409 0.01274 0.08284 0.0
H201 H 0.63414 0.08842 0.0505 0.0
O202 O 0.62521 0.00481 0.77742 0.0
C203 C 0.63661 0.07571 0.87943 0.0
Co204 Co 0.87709 0.48275 0.6677 0.0
Co205 Co 0.87759 0.50293 0.54097 0.0
C206 C 0.84658 0.47097 0.58982 0.0
O207 O 0.85436 0.46748 0.63769 0.0
O208 O 0.85394 0.48462 0.54991 0.0
C209 C 0.87894 0.45048 0.77502 0.0
O210 O 0.87721 0.4284 0.74632 0.0
C211 C 0.87642 0.49544 0.41732 0.0
C212 C 0.89235 0.53019 0.38608 0.0
C213 C 0.88364 0.50701 0.36842 0.0
N214 N 0.88085 0.51094 0.46201 0.0
N215 N 0.89004 0.53196 0.44295 0.0
C216 C 0.86754 0.46857 0.4229 0.0
H217 H 0.87032 0.46004 0.46576 0.0
H218 H 0.87203 0.45528 0.38917 0.0
H219 H 0.85301 0.47021 0.41824 0.0
C220 C 0.91163 0.46217 0.63335 0.0
N221 N 0.89639 0.47397 0.62193 0.0
N222 N 0.8964 0.48216 0.56826 0.0
C223 C 0.91163 0.4756 0.54381 0.0
C224 C 0.92177 0.46287 0.5842 0.0
C225 C 0.91709 0.45267 0.69137 0.0
H226 H 0.91335 0.46684 0.72436 0.0
H227 H 0.91006 0.43343 0.70037 0.0
H228 H 0.93157 0.4501 0.69394 0.0
O229 O 0.87609 0.52141 0.67142 0.0
O230 O 0.87779 0.53671 0.58247 0.0
H231 H 0.91758 0.50299 0.47584 0.0
H232 H 0.92912 0.47287 0.47107 0.0
C233 C 0.91646 0.48139 0.48284 0.0
H234 H 0.90598 0.47283 0.45426 0.0
H235 H 0.89548 0.54685 0.46916 0.0
O236 O 0.87957 0.47248 0.74879 0.0
C237 C 0.87674 0.54057 0.63603 0.0
Co238 Co 0.62817 0.39329 0.6609 0.0
Co239 Co 0.6288 0.37116 0.53644 0.0
C240 C 0.66036 0.40058 0.59191 0.0
O241 O 0.6521 0.40606 0.63708 0.0
O242 O 0.6529 0.387 0.55214 0.0
C243 C 0.63236 0.4233 0.76584 0.0
O244 O 0.64537 0.43655 0.73995 0.0
C245 C 0.63124 0.37994 0.41274 0.0
C246 C 0.62021 0.34217 0.37833 0.0
C247 C 0.62672 0.36708 0.36209 0.0
N248 N 0.62718 0.36359 0.45677 0.0
N249 N 0.62075 0.34096 0.43592 0.0
C250 C 0.63959 0.40711 0.41945 0.0
H251 H 0.6475 0.40864 0.45943 0.0
H252 H 0.62909 0.42152 0.42178 0.0
H253 H 0.64823 0.41241 0.38255 0.0
C254 C 0.59616 0.41755 0.61531 0.0
N255 N 0.61062 0.40353 0.60858 0.0
N256 N 0.61051 0.39369 0.55669 0.0
C257 C 0.59572 0.40076 0.52897 0.0
C258 C 0.58619 0.4162 0.56511 0.0
C259 C 0.59124 0.42962 0.67072 0.0
H260 H 0.58959 0.41391 0.7038 0.0
H261 H 0.60217 0.44348 0.68511 0.0
H262 H 0.57878 0.44015 0.66692 0.0
O263 O 0.62749 0.35435 0.66823 0.0
O264 O 0.62642 0.33789 0.58054 0.0
H265 H 0.59152 0.37065 0.46598 0.0
H266 H 0.57701 0.39766 0.45758 0.0
C267 C 0.59057 0.39225 0.4696 0.0
H268 H 0.59981 0.40198 0.4387 0.0
H269 H 0.61644 0.32486 0.46102 0.0
O270 O 0.62338 0.40556 0.73878 0.0
C271 C 0.62659 0.33472 0.63467 0.0
H272 H 0.31262 0.94414 0.18013 0.0
H273 H 0.2814 0.95407 0.17107 0.0
H274 H 0.27935 0.92092 0.00183 0.0
H275 H 0.31055 0.91077 0.01034 0.0
H276 H 0.26385 0.98474 0.08555 0.0
H277 H 0.2392 0.87981 0.09109 0.0
H278 H 0.26136 0.89029 0.11365 0.0
H279 H 0.2559 0.88813 0.0388 0.0
C280 C 0.30559 0.93907 0.14079 0.0
C281 C 0.31408 0.92645 0.09614 0.0
C282 C 0.28775 0.94477 0.13574 0.0
C283 C 0.27805 0.93783 0.08618 0.0
C284 C 0.28657 0.926 0.04081 0.0
H285 H 0.17273 0.98903 0.99849 0.0
H286 H 0.20375 0.97765 0.99508 0.0
C287 C 0.30442 0.92035 0.04571 0.0
C288 C 0.25895 0.94272 0.08243 0.0
H289 H 0.21785 0.91165 0.07611 0.0
C290 C 0.25377 0.9688 0.08326 0.0
C291 C 0.2459 0.92181 0.08011 0.0
C292 C 0.25077 0.89339 0.08131 0.0
C293 C 0.23582 0.97457 0.08158 0.0
C294 C 0.22277 0.95368 0.07847 0.0
C295 C 0.22794 0.92758 0.07791 0.0
C296 C 0.20366 0.9586 0.07822 0.0
C297 C 0.23091 0.00292 0.08453 0.0
C298 C 0.19323 0.95078 0.12523 0.0
C299 C 0.17549 0.9572 0.12739 0.0
C300 C 0.16786 0.97145 0.08234 0.0
C301 C 0.17819 0.97819 0.0341 0.0
C302 C 0.19594 0.97183 0.03212 0.0
H303 H 0.2423 0.01617 0.09811 0.0
H304 H 0.22641 0.00948 0.04158 0.0
H305 H 0.21986 0.00506 0.1148 0.0
H306 H 0.19896 0.94042 0.16107 0.0
H307 H 0.16792 0.95158 0.16504 0.0
H308 H 0.1877 0.40359 0.30638 0.0
H309 H 0.21724 0.42526 0.30947 0.0
H310 H 0.21869 0.41608 0.49318 0.0
H311 H 0.18928 0.39366 0.49037 0.0
H312 H 0.22887 0.46999 0.36108 0.0
H313 H 0.26503 0.38614 0.4495 0.0
H314 H 0.24254 0.38238 0.42301 0.0
H315 H 0.24705 0.39536 0.49334 0.0
C316 C 0.1943 0.40611 0.3475 0.0
C317 C 0.18618 0.39675 0.39813 0.0
C318 C 0.2112 0.41849 0.34916 0.0
C319 C 0.2203 0.42188 0.40142 0.0
C320 C 0.21211 0.41305 0.45221 0.0
H321 H 0.32055 0.50507 0.48513 0.0
H322 H 0.29111 0.48274 0.48867 0.0
C323 C 0.19525 0.4004 0.45056 0.0
C324 C 0.2382 0.4352 0.40248 0.0
H325 H 0.2813 0.42721 0.44175 0.0
C326 C 0.24033 0.46059 0.37859 0.0
C327 C 0.25316 0.42287 0.42525 0.0
C328 C 0.25192 0.39509 0.44873 0.0
C329 C 0.25698 0.47404 0.37713 0.0
C330 C 0.27184 0.46175 0.40007 0.0
C331 C 0.26977 0.43652 0.42444 0.0
C332 C 0.28974 0.4747 0.398 0.0
C333 C 0.25862 0.50135 0.35133 0.0
C334 C 0.2987 0.47718 0.34588 0.0
C335 C 0.31555 0.48975 0.34366 0.0
C336 C 0.32367 0.50016 0.39357 0.0
C337 C 0.31466 0.49738 0.44587 0.0
C338 C 0.29787 0.48461 0.44806 0.0
H339 H 0.24549 0.50972 0.3438 0.0
H340 H 0.26667 0.51477 0.37972 0.0
H341 H 0.2655 0.50058 0.30971 0.0
H342 H 0.29263 0.46943 0.30692 0.0
H343 H 0.32211 0.49152 0.30271 0.0
H344 H 0.68251 0.98633 0.83099 0.0
H345 H 0.71243 0.97033 0.8308 0.0
H346 H 0.71826 0.98768 0.01042 0.0
H347 H 0.68826 0.00392 0.01129 0.0
H348 H 0.74531 0.00236 0.87096 0.0
H349 H 0.73105 0.90752 0.98682 0.0
H350 H 0.71402 0.92455 0.94895 0.0
H351 H 0.72246 0.93689 0.01603 0.0
C352 C 0.69006 0.98661 0.87067 0.0
C353 C 0.68296 0.99639 0.92123 0.0
C354 C 0.70718 0.97754 0.87033 0.0
C355 C 0.71745 0.9778 0.92057 0.0
C356 C 0.71043 0.98724 0.97131 0.0
H357 H 0.82014 0.91578 0.993 0.0
H358 H 0.79185 0.93662 -0.00083 0.0
C359 C 0.69332 0.99652 0.97166 0.0
C360 C 0.73564 0.96852 0.91938 0.0
H361 H 0.76057 0.91744 0.96014 0.0
C362 C 0.74873 0.98384 0.89053 0.0
C363 C 0.73994 0.94445 0.9452 0.0
C364 C 0.72617 0.9272 0.97583 0.0
C365 C 0.76616 0.97573 0.88707 0.0
C366 C 0.77042 0.95131 0.91185 0.0
C367 C 0.75729 0.93614 0.94115 0.0
C368 C 0.78832 0.94084 0.90757 0.0
C369 C 0.77988 0.99362 0.85786 0.0
C370 C 0.79584 0.9365 0.85397 0.0
C371 C 0.81215 0.92485 0.85027 0.0
C372 C 0.82107 0.9169 0.90013 0.0
C373 C 0.81361 0.92162 0.95374 0.0
C374 C 0.79742 0.93351 0.95738 0.0
H375 H 0.77599 0.0144 0.85733 0.0
H376 H 0.79302 0.9927 0.87929 0.0
H377 H 0.78119 0.98737 0.81279 0.0
H378 H 0.78885 0.94139 0.8149 0.0
H379 H 0.81746 0.92124 0.80834 0.0
H380 H 0.8301 0.4285 0.64269 0.0
H381 H 0.79874 0.41426 0.63614 0.0
H382 H 0.78975 0.478 0.51773 0.0
H383 H 0.8212 0.49123 0.52146 0.0
H384 H 0.7718 0.43807 0.66852 0.0
H385 H 0.76274 0.42127 0.4367 0.0
H386 H 0.78438 0.4264 0.46907 0.0
H387 H 0.7715 0.45408 0.44957 0.0
C388 C 0.82146 0.4391 0.61437 0.0
C389 C 0.82808 0.46084 0.58227 0.0
C390 C 0.80354 0.43101 0.61076 0.0
C391 C 0.79186 0.44479 0.57576 0.0
C392 C 0.79852 0.46646 0.54352 0.0
H393 H 0.67849 0.44205 0.6433 0.0
H394 H 0.71027 0.45362 0.63779 0.0
C395 C 0.81651 0.47413 0.54599 0.0
C396 C 0.77255 0.4377 0.57632 0.0
H397 H 0.73624 0.42657 0.49017 0.0
C398 C 0.76408 0.43525 0.62946 0.0
C399 C 0.76243 0.43368 0.52549 0.0
C400 C 0.77079 0.43371 0.46711 0.0
C401 C 0.74582 0.42918 0.63327 0.0
C402 C 0.73554 0.42674 0.58238 0.0
C403 C 0.74404 0.42887 0.52923 0.0
C404 C 0.71608 0.42099 0.58317 0.0
C405 C 0.73793 0.42475 0.69188 0.0
C406 C 0.70858 0.39976 0.55172 0.0
C407 C 0.69038 0.39371 0.55322 0.0
C408 C 0.67933 0.40852 0.58698 0.0
C409 C 0.68674 0.43011 0.61752 0.0
C410 C 0.70492 0.43657 0.61483 0.0
H411 H 0.74808 0.4189 0.72365 0.0
H412 H 0.73253 0.44334 0.70685 0.0
H413 H 0.72706 0.40923 0.69114 0.0
H414 H 0.71686 0.38751 0.52675 0.0
H415 H 0.68504 0.3769 0.52934 0.0
H416 H 0.90724 0.90831 0.02301 0.0
H417 H 0.93751 0.92282 0.04939 0.0
H418 H 0.95206 0.9239 0.8713 0.0
H419 H 0.92168 0.91023 0.84441 0.0
H420 H 0.96679 0.89697 0.03354 0.0
H421 H 0.97386 0.99346 0.92188 0.0
H422 H 0.95266 0.97606 0.93095 0.0
H423 H 0.96718 0.96719 0.87443 0.0
C424 C 0.91681 0.91205 0.98936 0.0
C425 C 0.91204 0.90819 0.93158 0.0
C426 C 0.93412 0.92029 0.00453 0.0
C427 C 0.94702 0.92475 0.96233 0.0
C428 C 0.94224 0.92125 0.90454 0.0
H429 H 0.06132 0.94447 0.96915 0.0
H430 H 0.03013 0.93286 0.94624 0.0
C431 C 0.92487 0.91331 0.88924 0.0
C432 C 0.96569 0.93134 0.97914 0.0
H433 H 0.00059 0.97547 0.9568 0.0
C434 C 0.97411 0.91427 0.01714 0.0
C435 C 0.97525 0.95394 0.95776 0.0
C436 C 0.96672 0.97385 0.91947 0.0
C437 C 0.9919 0.91894 0.03347 0.0
C438 C 0.00148 0.94115 0.01109 0.0
C439 C 0.99313 0.95834 0.97347 0.0
C440 C 0.02026 0.9469 0.02631 0.0
C441 C 0.00051 0.9 0.07384 0.0
C442 C 0.02489 0.95842 0.07902 0.0
C443 C 0.04262 0.96525 0.09194 0.0
C444 C 0.05592 0.96055 0.05234 0.0
C445 C 0.05126 0.94841 0.00018 0.0
C446 C 0.03353 0.94177 0.98711 0.0
H447 H 0.9917 0.88239 0.08347 0.0
H448 H 0.01299 0.89348 0.05518 0.0
H449 H 0.00399 0.91013 0.11462 0.0
H450 H 0.01474 0.96264 0.10954 0.0
H451 H 0.04585 0.97496 0.13204 0.0
H452 H 0.42137 0.96637 -0.0009 0.0
H453 H 0.45273 0.97773 0.9802 0.0
H454 H 0.46725 0.94071 0.1396 0.0
H455 H 0.43596 0.9288 0.15788 0.0
H456 H 0.47901 0.00678 0.04485 0.0
H457 H 0.49527 0.90222 0.01849 0.0
H458 H 0.47278 0.91257 0.01871 0.0
H459 H 0.48487 0.90949 0.08488 0.0
C460 C 0.4313 0.9609 0.0302 0.0
C461 C 0.42636 0.94672 0.07981 0.0
C462 C 0.44914 0.96739 0.01946 0.0
C463 C 0.46229 0.95967 0.05807 0.0
C464 C 0.4573 0.94646 0.10886 0.0
H465 H 0.57736 0.97193 0.05031 0.0
H466 H 0.54621 0.96278 0.07577 0.0
C467 C 0.43946 0.93994 0.11956 0.0
C468 C 0.48122 0.96475 0.04424 0.0
H469 H 0.51918 0.934 0.01501 0.0
C470 C 0.48781 0.99091 0.03825 0.0
C471 C 0.49262 0.94395 0.03562 0.0
C472 C 0.48605 0.91545 0.03922 0.0
C473 C 0.50561 0.99684 0.02451 0.0
C474 C 0.51697 0.97603 0.01557 0.0
C475 C 0.51041 0.94988 0.0219 0.0
C476 C 0.53573 0.98098 -0.00063 0.0
C477 C 0.51218 0.02531 0.02062 0.0
C478 C 0.54009 0.99369 0.94746 0.0
C479 C 0.55781 0.9989 0.93295 0.0
C480 C 0.57142 0.9913 0.96998 0.0
C481 C 0.56705 0.97801 0.02122 0.0
C482 C 0.54933 0.97279 0.03572 0.0
H483 H 0.50317 0.0385 0.04252 0.0
H484 H 0.52565 0.02814 0.03975 0.0
H485 H 0.5129 0.03138 0.97493 0.0
H486 H 0.52978 -0.00024 0.91839 0.0
H487 H 0.56087 0.00943 0.89351 0.0
H488 H 0.08109 0.43461 0.42222 0.0
H489 H 0.05159 0.44739 0.4514 0.0
H490 H 0.03688 0.36617 0.49054 0.0
H491 H 0.0662 0.35339 0.46035 0.0
H492 H 0.01066 0.3925 0.43092 0.0
H493 H 0.03586 0.44943 0.61918 0.0
H494 H 0.04584 0.45934 0.55244 0.0
H495 H 0.04926 0.42707 0.58124 0.0
C496 C 0.07144 0.41957 0.43657 0.0
C497 C 0.07581 0.39313 0.43981 0.0
C498 C 0.05472 0.42686 0.45366 0.0
C499 C 0.04223 0.40777 0.47429 0.0
C500 C 0.0464 0.3812 0.47528 0.0
H501 H 0.9339 0.41379 0.60023 0.0
H502 H 0.96358 0.39925 0.5777 0.0
C503 C 0.06309 0.37394 0.45818 0.0
C504 C 0.02483 0.41541 0.4952 0.0
H505 H 0.00531 0.45201 0.59633 0.0
C506 C 0.00945 0.40538 0.46727 0.0
C507 C 0.02337 0.43212 0.54282 0.0
C508 C 0.03943 0.44246 0.57609 0.0
C509 C 0.9926 0.41219 0.48476 0.0
C510 C 0.99115 0.42911 0.532 0.0
C511 C 0.00652 0.43897 0.56025 0.0
C512 C 0.9738 0.4379 0.55076 0.0
C513 C 0.97651 0.40187 0.45157 0.0
C514 C 0.97006 0.46453 0.5453 0.0
C515 C 0.95327 0.47278 0.55838 0.0
C516 C 0.94 0.45452 0.57719 0.0
C517 C 0.94397 0.42811 0.58548 0.0
C518 C 0.96081 0.41981 0.57226 0.0
H519 H 0.98011 0.3936 0.40965 0.0
H520 H 0.96953 0.38599 0.47675 0.0
H521 H 0.96715 0.4177 0.44392 0.0
H522 H 0.97997 0.47879 0.52919 0.0
H523 H 0.95048 0.49332 0.55235 0.0
H524 H 0.44524 0.54101 0.45363 0.0
H525 H 0.47474 0.52558 0.47709 0.0
H526 H 0.45645 0.44609 0.43645 0.0
H527 H 0.427 0.46161 0.4126 0.0
H528 H 0.48314 0.48906 0.56092 0.0
H529 H 0.50226 0.4555 0.34596 0.0
H530 H 0.48404 0.47649 0.35659 0.0
H531 H 0.48126 0.44162 0.36963 0.0
C532 C 0.44763 0.52028 0.44956 0.0
C533 C 0.43399 0.50238 0.4317 0.0
C534 C 0.46441 0.51151 0.46284 0.0
C535 C 0.46781 0.48475 0.45795 0.0
C536 C 0.4542 0.46689 0.43947 0.0
H537 H 0.55565 0.38834 0.5389 0.0
H538 H 0.52677 0.40574 0.51496 0.0
C539 C 0.43742 0.47569 0.42611 0.0
C540 C 0.48539 0.47537 0.47446 0.0
H541 H 0.52052 0.44317 0.42435 0.0
C542 C 0.49138 0.47919 0.53101 0.0
C543 C 0.49608 0.46252 0.43526 0.0
C544 C 0.49069 0.45898 0.37332 0.0
C545 C 0.50765 0.46995 0.54979 0.0
C546 C 0.51823 0.45683 0.51077 0.0
C547 C 0.5123 0.45317 0.45415 0.0
C548 C 0.53545 0.44648 0.52786 0.0
C549 C 0.51323 0.47369 0.6115 0.0
C550 C 0.5498 0.46367 0.54318 0.0
C551 C 0.56629 0.45376 0.5565 0.0
C552 C 0.5686 0.4266 0.55433 0.0
C553 C 0.55415 0.4094 0.54016 0.0
C554 C 0.53771 0.41929 0.52664 0.0
H555 H 0.50202 0.47912 0.63863 0.0
H556 H 0.51877 0.45547 0.6292 0.0
H557 H 0.52372 0.48971 0.61413 0.0
H558 H 0.54835 0.48475 0.54365 0.0
H559 H 0.57732 0.46731 0.56724 0.0
H560 H 0.14116 0.98818 0.81012 0.0
H561 H 0.1403 0.97375 0.71037 0.0
H562 H 0.09362 0.01748 0.6799 0.0
H563 H 0.09453 0.03216 0.77936 0.0
H564 H 0.11452 0.94583 0.64631 0.0
H565 H 0.12733 0.04661 0.55822 0.0
H566 H 0.13009 0.0389 0.63319 0.0
H567 H 0.10838 0.04377 0.60387 0.0
C568 C 0.13058 0.9944 0.78236 0.0
C569 C 0.11784 0.01115 0.80246 0.0
C570 C 0.13015 0.98625 0.72537 0.0
C571 C 0.11703 0.99482 0.68764 0.0
C572 C 0.10407 0.01107 0.70803 0.0
H573 H 0.09458 0.97884 0.32692 0.0
H574 H 0.09187 0.98247 0.43055 0.0
C575 C 0.10458 0.0194 0.76479 0.0
C576 C 0.11711 0.98732 0.6266 0.0
H577 H 0.11929 0.01314 0.49146 0.0
C578 C 0.11562 0.9605 0.61238 0.0
C579 C 0.11867 0.00653 0.58253 0.0
C580 C 0.12139 0.03554 0.5951 0.0
C581 C 0.11529 0.95244 0.55499 0.0
C582 C 0.11654 0.97171 0.51114 0.0
C583 C 0.11812 0.99846 0.52538 0.0
C584 C 0.11671 0.96487 0.44985 0.0
C585 C 0.11334 0.9235 0.54149 0.0
C586 C 0.13138 0.9531 0.42666 0.0
C587 C 0.13303 0.95108 0.36733 0.0
C588 C 0.12007 0.96095 0.33041 0.0
C589 C 0.10486 0.97119 0.3541 0.0
C590 C 0.10326 0.97327 0.4133 0.0
H591 H 0.10905 0.91153 0.57934 0.0
H592 H 0.10362 0.91992 0.50609 0.0
H593 H 0.12629 0.91667 0.52731 0.0
H594 H 0.14201 0.94682 0.45424 0.0
H595 H 0.1449 0.94306 0.35048 0.0
H596 H 0.38754 0.92743 0.34679 0.0
H597 H 0.38992 0.92458 0.45095 0.0
H598 H 0.33806 0.95518 0.46649 0.0
H599 H 0.33549 0.9582 0.36204 0.0
H600 H 0.3672 0.97332 0.55292 0.0
H601 H 0.35552 0.86513 0.5264 0.0
H602 H 0.37268 0.88065 0.48318 0.0
H603 H 0.35005 0.88854 0.47121 0.0
C604 C 0.37676 0.93407 0.37226 0.0
C605 C 0.36118 0.9426 0.34616 0.0
C606 C 0.37818 0.93244 0.43173 0.0
C607 C 0.36406 0.93933 0.466 0.0
C608 C 0.34905 0.94974 0.44046 0.0
H609 H 0.34233 0.91754 0.82881 0.0
H610 H 0.34235 0.93299 0.72939 0.0
C611 C 0.34761 0.9514 0.38084 0.0
C612 C 0.3642 0.93275 0.52759 0.0
H613 H 0.36204 0.8803 0.6196 0.0
C614 C 0.36604 0.95304 0.56777 0.0
C615 C 0.36258 0.90625 0.54635 0.0
C616 C 0.35996 0.88382 0.50472 0.0
C617 C 0.36676 0.94738 0.62671 0.0
C618 C 0.3653 0.92081 0.64541 0.0
C619 C 0.36326 0.90063 0.60504 0.0
C620 C 0.36594 0.91324 0.7066 0.0
C621 C 0.3695 0.96975 0.66834 0.0
C622 C 0.379 0.89663 0.72637 0.0
C623 C 0.379 0.88776 0.78303 0.0
C624 C 0.36598 0.89544 0.821 0.0
C625 C 0.35288 0.91203 0.80112 0.0
C626 C 0.35285 0.92084 0.7443 0.0
H627 H 0.37468 0.9881 0.64686 0.0
H628 H 0.35664 0.9738 0.68804 0.0
H629 H 0.37885 0.96456 0.70317 0.0
H630 H 0.38911 0.89034 0.69772 0.0
H631 H 0.38922 0.87492 0.7972 0.0
H632 H 0.16345 0.37476 0.68188 0.0
H633 H 0.16246 0.38941 0.78142 0.0
H634 H 0.11443 0.34148 0.80677 0.0
H635 H 0.11527 0.32689 0.70757 0.0
H636 H 0.13529 0.41492 0.84195 0.0
H637 H 0.14827 0.31637 0.93237 0.0
H638 H 0.15199 0.3248 0.85811 0.0
H639 H 0.12997 0.3162 0.88274 0.0
C640 C 0.15254 0.36768 0.7084 0.0
C641 C 0.13935 0.34985 0.68685 0.0
C642 C 0.15205 0.37595 0.76528 0.0
C643 C 0.13846 0.36632 0.80144 0.0
C644 C 0.12517 0.34882 0.77974 0.0
H645 H 0.11199 0.37567 0.15683 0.0
H646 H 0.11098 0.37175 0.05277 0.0
C647 C 0.12569 0.3405 0.72312 0.0
C648 C 0.13829 0.37398 0.86232 0.0
H649 H 0.13925 0.34841 0.99765 0.0
C650 C 0.13626 0.40047 0.87613 0.0
C651 C 0.13964 0.35505 0.90661 0.0
C652 C 0.14276 0.32655 0.89439 0.0
C653 C 0.13501 0.40838 0.93338 0.0
C654 C 0.13598 0.3893 0.9775 0.0
C655 C 0.13829 0.36293 0.96358 0.0
C656 C 0.13492 0.39597 0.03881 0.0
C657 C 0.13225 0.43688 0.94625 0.0
C658 C 0.14845 0.41156 0.06519 0.0
C659 C 0.14908 0.41387 0.12479 0.0
C660 C 0.13627 0.40039 0.15884 0.0
C661 C 0.12213 0.38616 0.1319 0.0
C662 C 0.12152 0.38389 0.07243 0.0
H663 H 0.12781 0.44781 0.90773 0.0
H664 H 0.12231 0.43857 0.98052 0.0
H665 H 0.14493 0.44642 0.96155 0.0
H666 H 0.15907 0.42071 0.04004 0.0
H667 H 0.16015 0.42497 0.14419 0.0
H668 H 0.3928 0.53155 0.15077 0.0
H669 H 0.393 0.53078 0.04662 0.0
H670 H 0.35926 0.45979 0.04781 0.0
H671 H 0.35864 0.46069 0.15266 0.0
H672 H 0.40228 0.49475 0.96512 0.0
H673 H 0.33013 0.51224 0.95769 0.0
H674 H 0.34304 0.51496 0.02291 0.0
H675 H 0.33639 0.48309 0.99526 0.0
C676 C 0.38556 0.51557 0.12908 0.0
C677 C 0.37543 0.49643 0.15994 0.0
C678 C 0.38575 0.51512 0.0695 0.0
C679 C 0.37587 0.49553 0.0396 0.0
C680 C 0.36669 0.47537 0.07021 0.0
H681 H 0.38154 0.50095 0.66384 0.0
H682 H 0.38169 0.48397 0.7619 0.0
C683 C 0.36643 0.47584 0.13005 0.0
C684 C 0.37425 0.49777 0.97666 0.0
H685 H 0.34505 0.51271 0.87025 0.0
C686 C 0.38975 0.4983 0.94408 0.0
C687 C 0.35788 0.50272 0.94975 0.0
C688 C 0.3409 0.50345 0.98305 0.0
C689 C 0.38943 0.50459 0.88551 0.0
C690 C 0.3731 0.50996 0.85885 0.0
C691 C 0.35751 0.50848 0.89098 0.0
C692 C 0.37208 0.51933 0.79889 0.0
C693 C 0.40668 0.50678 0.85343 0.0
C694 C 0.36615 0.54453 0.78709 0.0
C695 C 0.36565 0.55404 0.73093 0.0
C696 C 0.3709 0.53841 0.68556 0.0
C697 C 0.37678 0.51312 0.69749 0.0
C698 C 0.3772 0.50356 0.75368 0.0
H699 H 0.41835 0.5075 0.88285 0.0
H700 H 0.40759 0.48937 0.82554 0.0
H701 H 0.40737 0.52467 0.8258 0.0
H702 H 0.36218 0.55702 0.8215 0.0
H703 H 0.36117 0.57367 0.72299 0.0
H704 H 0.81402 0.84543 0.12288 0.0
H705 H 0.81306 0.84612 0.22758 0.0
H706 H 0.86999 0.84361 0.23547 0.0
H707 H 0.87107 0.84232 0.1313 0.0
H708 H 0.85324 0.81325 0.32001 0.0
H709 H 0.82827 0.91433 0.30994 0.0
H710 H 0.81481 0.88927 0.27412 0.0
H711 H 0.83657 0.89828 0.24792 0.0
C712 C 0.82631 0.84456 0.14693 0.0
C713 C 0.84265 0.84423 0.11874 0.0
C714 C 0.82573 0.84512 0.20672 0.0
C715 C 0.84149 0.84555 0.23911 0.0
C716 C 0.85768 0.84347 0.2112 0.0
H717 H 0.8755 0.9128 0.55419 0.0
H718 H 0.86707 0.90145 0.45582 0.0
C719 C 0.85827 0.84279 0.15159 0.0
C720 C 0.84146 0.85007 0.30161 0.0
H721 H 0.83418 0.89695 0.40116 0.0
C722 C 0.84887 0.83138 0.338 0.0
C723 C 0.83594 0.87393 0.32463 0.0
C724 C 0.82858 0.89525 0.28725 0.0
C725 C 0.8514 0.83622 0.39663 0.0
C726 C 0.84605 0.8602 0.4195 0.0
C727 C 0.83814 0.87853 0.38343 0.0
C728 C 0.85002 0.86771 0.4795 0.0
C729 C 0.86057 0.81622 0.43298 0.0
C730 C 0.84297 0.85278 0.52541 0.0
C731 C 0.84786 0.85915 0.58168 0.0
C732 C 0.85965 0.88082 0.59292 0.0
C733 C 0.86632 0.89609 0.54685 0.0
C734 C 0.86148 0.88967 0.4907 0.0
H735 H 0.86707 0.8015 0.40657 0.0
H736 H 0.87074 0.82604 0.46128 0.0
H737 H 0.85068 0.80553 0.4605 0.0
H738 H 0.83398 0.8359 0.51767 0.0
H739 H 0.84293 0.84644 0.6159 0.0
H740 H 0.65372 0.96272 0.67259 0.0
H741 H 0.65293 0.96752 0.56824 0.0
H742 H 0.60749 0.01502 0.5801 0.0
H743 H 0.60815 0.01048 0.68427 0.0
H744 H 0.62433 0.95938 0.47854 0.0
H745 H 0.64894 0.06327 0.5095 0.0
H746 H 0.6501 0.03858 0.56525 0.0
H747 H 0.62945 0.05311 0.54904 0.0
C748 C 0.6433 0.9737 0.65298 0.0
C749 C 0.63118 0.9866 0.68679 0.0
C750 C 0.64289 0.9764 0.59337 0.0
C751 C 0.63035 0.99199 0.56685 0.0
C752 C 0.6174 0.00319 0.60006 0.0
H753 H 0.61674 0.06286 0.23477 0.0
H754 H 0.61464 0.0478 0.33418 0.0
C755 C 0.6178 0.00053 0.65956 0.0
C756 C 0.63182 0.99877 0.50542 0.0
H757 H 0.64154 0.05043 0.41509 0.0
C758 C 0.62813 0.97922 0.46444 0.0
C759 C 0.63693 0.02466 0.48754 0.0
C760 C 0.64174 0.04613 0.52999 0.0
C761 C 0.62891 0.98515 0.4056 0.0
C762 C 0.6338 0.01116 0.38777 0.0
C763 C 0.63772 0.03055 0.42894 0.0
C764 C 0.63461 0.01904 0.32668 0.0
C765 C 0.62403 0.96377 0.36309 0.0
C766 C 0.64669 0.00806 0.28969 0.0
C767 C 0.64793 0.01667 0.23277 0.0
C768 C 0.63713 0.03644 0.21208 0.0
C769 C 0.6252 0.04756 0.24947 0.0
C770 C 0.62394 0.03891 0.30617 0.0
H771 H 0.61661 0.94681 0.38348 0.0
H772 H 0.61587 0.97147 0.32749 0.0
H773 H 0.63631 0.95649 0.34461 0.0
H774 H 0.65542 0.99325 0.30515 0.0
H775 H 0.65767 0.00835 0.20561 0.0
H776 H 0.85628 0.48678 0.30295 0.0
H777 H 0.85779 0.47007 0.20521 0.0
H778 H 0.91467 0.48362 0.20872 0.0
H779 H 0.91297 0.50173 0.30503 0.0
H780 H 0.90296 0.5023 0.11671 0.0
H781 H 0.87093 0.40291 0.13765 0.0
H782 H 0.85638 0.42692 0.16277 0.0
H783 H 0.8772 0.42255 0.19923 0.0
C784 C 0.86907 0.48589 0.28279 0.0
C785 C 0.8845 0.49554 0.31099 0.0
C786 C 0.86998 0.47605 0.22727 0.0
C787 C 0.8864 0.47499 0.19983 0.0
C788 C 0.90186 0.48411 0.22891 0.0
H789 H 0.89076 0.41224 0.84815 0.0
H790 H 0.8942 0.41542 0.95291 0.0
C791 C 0.90089 0.49453 0.28376 0.0
C792 C 0.88729 0.46711 0.13889 0.0
H793 H 0.87123 0.42187 0.04164 0.0
C794 C 0.89628 0.48442 0.10071 0.0
C795 C 0.87893 0.44354 0.11766 0.0
C796 C 0.87051 0.42281 0.1567 0.0
C797 C 0.89637 0.47958 0.04187 0.0
C798 C 0.88657 0.45737 0.02011 0.0
C799 C 0.87843 0.43919 0.05831 0.0
C800 C 0.88357 0.45408 0.95779 0.0
C801 C 0.90684 0.49857 0.00359 0.0
C802 C 0.87589 0.47426 0.92644 0.0
C803 C 0.8742 0.47268 0.86725 0.0
C804 C 0.87974 0.45055 0.83811 0.0
C805 C 0.88648 0.42956 0.86966 0.0
C806 C 0.88845 0.43136 0.92929 0.0
H807 H 0.91821 0.50825 0.02711 0.0
H808 H 0.91197 0.48852 0.96565 0.0
H809 H 0.89817 0.51426 0.98858 0.0
H810 H 0.87147 0.49155 0.94775 0.0
H811 H 0.86862 0.48894 0.8442 0.0
H812 H 0.6203 0.41691 0.32301 0.0
H813 H 0.62181 0.43324 0.22463 0.0
H814 H 0.63456 0.35611 0.16737 0.0
H815 H 0.63405 0.33998 0.26639 0.0
H816 H 0.6555 0.39543 0.11821 0.0
H817 H 0.58451 0.4183 0.10182 0.0
H818 H 0.5965 0.43456 0.15925 0.0
H819 H 0.59323 0.3993 0.16027 0.0
C820 C 0.62393 0.40359 0.28984 0.0
C821 C 0.62757 0.37732 0.30268 0.0
C822 C 0.62442 0.41284 0.23338 0.0
C823 C 0.62813 0.39584 0.18866 0.0
C824 C 0.63168 0.36958 0.20133 0.0
H825 H 0.60802 0.39631 0.83206 0.0
H826 H 0.60714 0.39433 0.93611 0.0
C827 C 0.63133 0.36037 0.2578 0.0
C828 C 0.62837 0.40524 0.12851 0.0
H829 H 0.60233 0.4292 0.02181 0.0
C830 C 0.64393 0.40297 0.09713 0.0
C831 C 0.61318 0.41494 0.10124 0.0
C832 C 0.59585 0.41674 0.13212 0.0
C833 C 0.64461 0.40948 0.03872 0.0
C834 C 0.62942 0.41918 0.01137 0.0
C835 C 0.614 0.42207 0.04312 0.0
C836 C 0.62868 0.42346 0.94864 0.0
C837 C 0.6613 0.40468 0.00632 0.0
C838 C 0.64062 0.44131 0.9211 0.0
C839 C 0.64129 0.44233 0.86128 0.0
C840 C 0.6299 0.42567 0.82826 0.0
C841 C 0.61712 0.40923 0.85614 0.0
C842 C 0.61655 0.40811 0.91571 0.0
H843 H 0.6703 0.39205 0.03094 0.0
H844 H 0.65812 0.39513 0.96466 0.0
H845 H 0.66855 0.42379 0.99762 0.0
H846 H 0.6498 0.45381 0.94582 0.0
H847 H 0.65115 0.45541 0.84109 0.0
H848 H 0.12416 0.09545 0.07651 0.0
H849 H 0.12743 0.13968 0.11676 0.0
H850 H 0.12732 0.10655 0.28728 0.0
H851 H 0.1242 0.06224 0.24769 0.0
H852 H 0.10441 0.16341 0.19517 0.0
H853 H 0.17252 0.15586 0.28398 0.0
H854 H 0.16318 0.13331 0.23117 0.0
H855 H 0.15685 0.12987 0.30483 0.0
C856 C 0.12488 0.09752 0.12258 0.0
C857 C 0.124 0.07527 0.15885 0.0
C858 C 0.12674 0.12281 0.14546 0.0
C859 C 0.12787 0.12629 0.20488 0.0
C860 C 0.1268 0.1042 0.24125 0.0
H861 H 0.13898 0.26548 0.41881 0.0
H862 H 0.13619 0.22035 0.38293 0.0
C863 C 0.12491 0.07891 0.21848 0.0
C864 C 0.12978 0.1531 0.22881 0.0
H865 H 0.1577 0.19435 0.30611 0.0
C866 C 0.11607 0.17024 0.2193 0.0
C867 C 0.14498 0.16179 0.26052 0.0
C868 C 0.16032 0.14438 0.27048 0.0
C869 C 0.11707 0.19587 0.24111 0.0
C870 C 0.13236 0.2047 0.27222 0.0
C871 C 0.14601 0.18748 0.2822 0.0
C872 C 0.13456 0.23194 0.29378 0.0
C873 C 0.10162 0.21313 0.23147 0.0
C874 C 0.13497 0.2533 0.25538 0.0
C875 C 0.13653 0.27904 0.27562 0.0
C876 C 0.13785 0.28393 0.33474 0.0
C877 C 0.13795 0.26243 0.37305 0.0
C878 C 0.13635 0.23664 0.35268 0.0
H879 H 0.08926 0.20134 0.22093 0.0
H880 H 0.09927 0.22515 0.26983 0.0
H881 H 0.10457 0.22672 0.195 0.0
H882 H 0.13401 0.25004 0.20967 0.0
H883 H 0.13655 0.29511 0.24485 0.0
H884 H 0.36479 0.80801 0.0923 0.0
H885 H 0.36559 0.7632 0.13078 0.0
H886 H 0.36451 0.79326 0.30259 0.0
H887 H 0.36355 0.83812 0.26475 0.0
H888 H 0.39149 0.74327 0.20647 0.0
H889 H 0.32406 0.73564 0.29984 0.0
H890 H 0.33067 0.76062 0.24781 0.0
H891 H 0.33763 0.76398 0.32125 0.0
C892 C 0.36463 0.80513 0.13829 0.0
C893 C 0.36404 0.82668 0.17543 0.0
C894 C 0.36511 0.77951 0.16015 0.0
C895 C 0.36488 0.77495 0.21943 0.0
C896 C 0.36437 0.79636 0.25666 0.0
H897 H 0.36794 0.63143 0.42522 0.0
H898 H 0.36728 0.67729 0.39269 0.0
C899 C 0.36391 0.822 0.2349 0.0
C900 C 0.36571 0.74782 0.24225 0.0
H901 H 0.34259 0.70039 0.31905 0.0
C902 C 0.3808 0.73384 0.23099 0.0
C903 C 0.35177 0.73572 0.27449 0.0
C904 C 0.33503 0.74962 0.2863 0.0
C905 C 0.38238 0.70805 0.25143 0.0
C906 C 0.36834 0.6958 0.28301 0.0
C907 C 0.35333 0.70988 0.29484 0.0
C908 C 0.36877 0.66811 0.3027 0.0
C909 C 0.39917 0.69426 0.23971 0.0
C910 C 0.36955 0.6478 0.26277 0.0
C911 C 0.36995 0.62164 0.2811 0.0
C912 C 0.36944 0.61525 0.33981 0.0
C913 C 0.3684 0.63566 0.37972 0.0
C914 C 0.36802 0.66186 0.36126 0.0
H915 H 0.41034 0.70849 0.22928 0.0
H916 H 0.40307 0.6821 0.27706 0.0
H917 H 0.39694 0.68105 0.2025 0.0
H918 H 0.36976 0.65218 0.21731 0.0
H919 H 0.37063 0.60645 0.24912 0.0
H920 H 0.84469 0.7782 0.76162 0.0
H921 H 0.84709 0.73297 0.72806 0.0
H922 H 0.8857 0.71921 0.86088 0.0
H923 H 0.88339 0.7646 0.89439 0.0
H924 H 0.89506 0.7049 0.74321 0.0
H925 H 0.82911 0.6634 0.81205 0.0
H926 H 0.82911 0.69417 0.77346 0.0
H927 H 0.83949 0.69286 0.84283 0.0
C928 C 0.85355 0.76537 0.78386 0.0
C929 C 0.86374 0.7746 0.83077 0.0
C930 C 0.85487 0.73963 0.76484 0.0
C931 C 0.86644 0.7228 0.79239 0.0
C932 C 0.87662 0.73195 0.8394 0.0
H933 H 0.87322 0.55539 0.74714 0.0
H934 H 0.87147 0.59984 0.78415 0.0
C935 C 0.87521 0.75769 0.85869 0.0
C936 C 0.86832 0.69592 0.7707 0.0
H937 H 0.84583 0.63668 0.75267 0.0
C938 C 0.88435 0.68991 0.74538 0.0
C939 C 0.85432 0.67651 0.774 0.0
C940 C 0.83705 0.68186 0.80242 0.0
C941 C 0.88666 0.66493 0.7224 0.0
C942 C 0.87252 0.64569 0.72458 0.0
C943 C 0.85659 0.65161 0.75069 0.0
C944 C 0.87411 0.61897 0.70145 0.0
C945 C 0.90426 0.65917 0.69666 0.0
C946 C 0.8761 0.61507 0.64254 0.0
C947 C 0.87708 0.58961 0.62103 0.0
C948 C 0.87604 0.56767 0.65818 0.0
C949 C 0.87409 0.57179 0.71723 0.0
C950 C 0.87307 0.59718 0.73856 0.0
H951 H 0.91485 0.67405 0.70907 0.0
H952 H 0.90836 0.63937 0.71011 0.0
H953 H 0.90299 0.65939 0.6493 0.0
H954 H 0.87667 0.63169 0.61316 0.0
H955 H 0.87854 0.58714 0.57535 0.0
H956 H 0.63566 0.09021 0.76667 0.0
H957 H 0.63436 0.13453 0.72664 0.0
H958 H 0.6358 0.16677 0.8968 0.0
H959 H 0.63738 0.12242 0.93753 0.0
H960 H 0.60826 0.16983 0.745 0.0
H961 H 0.67432 0.2115 0.81435 0.0
H962 H 0.66863 0.17659 0.81541 0.0
H963 H 0.66103 0.19728 0.87107 0.0
C964 C 0.63585 0.1067 0.79574 0.0
C965 C 0.63666 0.10275 0.85539 0.0
C966 C 0.63509 0.13202 0.7727 0.0
C967 C 0.63517 0.15391 0.80871 0.0
C968 C 0.63607 0.15014 0.86824 0.0
H969 H 0.62658 0.32085 0.74794 0.0
H970 H 0.62786 0.27677 0.78937 0.0
C971 C 0.63689 0.12478 0.89143 0.0
C972 C 0.63357 0.18053 0.78372 0.0
H973 H 0.65467 0.24125 0.77239 0.0
C974 C 0.61843 0.18545 0.75078 0.0
C975 C 0.64686 0.2008 0.79148 0.0
C976 C 0.66371 0.19631 0.82456 0.0
C977 C 0.6161 0.21025 0.7259 0.0
C978 C 0.62939 0.2305 0.73358 0.0
C979 C 0.64451 0.22563 0.76667 0.0
C980 C 0.62787 0.25697 0.70785 0.0
C981 C 0.59929 0.21474 0.69255 0.0
C982 C 0.62745 0.2604 0.64819 0.0
C983 C 0.62668 0.28561 0.62421 0.0
C984 C 0.62644 0.30783 0.65957 0.0
C985 C 0.62673 0.30421 0.71937 0.0
C986 C 0.62749 0.27904 0.74322 0.0
H987 H 0.58869 0.19947 0.70237 0.0
H988 H 0.59432 0.23441 0.70184 0.0
H989 H 0.60207 0.21393 0.64608 0.0
H990 H 0.62804 0.24362 0.62019 0.0
H991 H 0.62657 0.28769 0.57803 0.0
loop_
_geom_bond_atom_site_label_1
_geom_bond_atom_site_label_2
_geom_bond_distance
_geom_bond_site_symmetry_2
_ccdc_geom_bond_type
Co0 O3 1.970 1_545 S
Co0 N17 1.989 1_545 S
Co0 O25 1.967 . S
Co0 O32 1.920 . S
Co1 O4 1.966 . S
Co1 N10 2.022 1_554 S
Co1 N18 1.993 1_545 S
Co1 O26 1.941 . S
C2 O3 1.258 . S
C2 O4 1.263 1_565 S
O3 Co0 1.970 1_565 S
O3 C2 1.258 . S
O4 Co1 1.966 . S
O4 C2 1.263 1_545 S
C5 O6 1.235 . S
C5 O32 1.289 1_565 S
O6 C5 1.235 . S
C7 C9 1.400 . S
C7 N10 1.351 . S
C7 C12 1.501 1_545 S
C8 C9 1.387 . S
C8 N11 1.341 . S
C9 C7 1.400 . S
C9 C8 1.387 . S
N10 Co1 2.022 1_556 S
N10 C7 1.351 . S
N10 N11 1.365 . S
N11 C8 1.341 . S
N11 N10 1.365 . S
N11 H31 0.862 . S
C12 C7 1.501 1_565 S
C12 H13 0.961 . S
C12 H14 0.961 . S
C12 H15 0.960 . S
H13 C12 0.961 . S
H14 C12 0.961 . S
H15 C12 0.960 . S
C16 N17 1.342 . S
C16 C20 1.401 . S
C16 C21 1.499 . S
N17 Co0 1.989 1_565 S
N17 C16 1.342 . S
N17 N18 1.388 . S
N18 Co1 1.993 1_565 S
N18 N17 1.388 . S
N18 C19 1.346 . S
C19 N18 1.346 . S
C19 C20 1.396 . S
C19 C29 1.510 1_554 S
C20 C16 1.401 . S
C20 C19 1.396 . S
C21 C16 1.499 . S
C21 H22 0.959 . S
C21 H23 0.960 . S
C21 H24 0.961 . S
H22 C21 0.959 . S
H23 C21 0.960 . S
H24 C21 0.961 . S
O25 Co0 1.967 . S
O25 C33 1.258 . S
O26 Co1 1.941 . S
O26 C33 1.266 . S
H27 C29 0.959 . S
H28 C29 0.961 . S
C29 C19 1.510 1_556 S
C29 H27 0.959 . S
C29 H28 0.961 . S
C29 H30 0.960 . S
H30 C29 0.960 . S
H31 N11 0.862 . S
O32 Co0 1.920 . S
O32 C5 1.289 1_545 S
C33 O25 1.258 . S
C33 O26 1.266 . S
Co34 O37 1.970 . S
Co34 N51 1.989 . S
Co34 O59 1.967 . S
Co34 O66 1.920 . S
Co35 O38 1.966 . S
Co35 N44 2.022 1_554 S
Co35 N52 1.993 . S
Co35 O60 1.941 . S
C36 O37 1.258 . S
C36 O38 1.263 . S
O37 Co34 1.970 . S
O37 C36 1.258 . S
O38 Co35 1.966 . S
O38 C36 1.263 . S
C39 O40 1.235 . S
C39 O66 1.289 . S
O40 C39 1.235 . S
C41 C43 1.400 . S
C41 N44 1.351 . S
C41 C46 1.501 . S
C42 C43 1.387 . S
C42 N45 1.341 . S
C43 C41 1.400 . S
C43 C42 1.387 . S
N44 Co35 2.022 1_556 S
N44 C41 1.351 . S
N44 N45 1.365 . S
N45 C42 1.341 . S
N45 N44 1.365 . S
N45 H65 0.862 . S
C46 C41 1.501 . S
C46 H47 0.961 . S
C46 H48 0.961 . S
C46 H49 0.960 . S
H47 C46 0.961 . S
H48 C46 0.961 . S
H49 C46 0.960 . S
C50 N51 1.342 . S
C50 C54 1.401 . S
C50 C55 1.499 . S
N51 Co34 1.989 . S
N51 C50 1.342 . S
N51 N52 1.388 . S
N52 Co35 1.993 . S
N52 N51 1.388 . S
N52 C53 1.346 . S
C53 N52 1.346 . S
C53 C54 1.396 . S
C53 C63 1.510 1_554 S
C54 C50 1.401 . S
C54 C53 1.396 . S
C55 C50 1.499 . S
C55 H56 0.959 . S
C55 H57 0.960 . S
C55 H58 0.961 . S
H56 C55 0.959 . S
H57 C55 0.960 . S
H58 C55 0.961 . S
O59 Co34 1.967 . S
O59 C67 1.258 . S
O60 Co35 1.941 . S
O60 C67 1.266 . S
H61 C63 0.959 . S
H62 C63 0.961 . S
C63 C53 1.510 1_556 S
C63 H61 0.959 . S
C63 H62 0.961 . S
C63 H64 0.960 . S
H64 C63 0.960 . S
H65 N45 0.862 . S
O66 Co34 1.920 . S
O66 C39 1.289 . S
C67 O59 1.258 . S
C67 O60 1.266 . S
Co68 O71 1.970 . S
Co68 N85 1.989 . S
Co68 O93 1.967 . S
Co68 O100 1.920 . S
Co69 O72 1.966 . S
Co69 N78 2.022 . S
Co69 N86 1.993 . S
Co69 O94 1.941 . S
C70 O71 1.258 . S
C70 O72 1.263 . S
O71 Co68 1.970 . S
O71 C70 1.258 . S
O72 Co69 1.966 . S
O72 C70 1.263 . S
C73 O74 1.235 . S
C73 O100 1.289 . S
O74 C73 1.235 . S
C75 C77 1.400 . S
C75 N78 1.351 . S
C75 C80 1.501 . S
C76 C77 1.387 . S
C76 N79 1.341 . S
C77 C75 1.400 . S
C77 C76 1.387 . S
N78 Co69 2.022 . S
N78 C75 1.351 . S
N78 N79 1.365 . S
N79 C76 1.341 . S
N79 N78 1.365 . S
N79 H99 0.862 . S
C80 C75 1.501 . S
C80 H81 0.961 . S
C80 H82 0.961 . S
C80 H83 0.960 . S
H81 C80 0.961 . S
H82 C80 0.961 . S
H83 C80 0.960 . S
C84 N85 1.342 . S
C84 C88 1.401 . S
C84 C89 1.499 . S
N85 Co68 1.989 . S
N85 C84 1.342 . S
N85 N86 1.388 . S
N86 Co69 1.993 . S
N86 N85 1.388 . S
N86 C87 1.346 . S
C87 N86 1.346 . S
C87 C88 1.396 . S
C87 C97 1.510 . S
C88 C84 1.401 . S
C88 C87 1.396 . S
C89 C84 1.499 . S
C89 H90 0.959 . S
C89 H91 0.960 . S
C89 H92 0.961 . S
H90 C89 0.959 . S
H91 C89 0.960 . S
H92 C89 0.961 . S
O93 Co68 1.967 . S
O93 C101 1.258 . S
O94 Co69 1.941 . S
O94 C101 1.266 . S
H95 C97 0.959 . S
H96 C97 0.961 . S
C97 C87 1.510 . S
C97 H95 0.959 . S
C97 H96 0.961 . S
C97 H98 0.960 . S
H98 C97 0.960 . S
H99 N79 0.862 . S
O100 Co68 1.920 . S
O100 C73 1.289 . S
C101 O93 1.258 . S
C101 O94 1.266 . S
Co102 O105 1.970 . S
Co102 N119 1.989 . S
Co102 O127 1.967 . S
Co102 O134 1.920 . S
Co103 O106 1.966 . S
Co103 N112 2.022 . S
Co103 N120 1.993 . S
Co103 O128 1.941 . S
C104 O105 1.258 . S
C104 O106 1.263 . S
O105 Co102 1.970 . S
O105 C104 1.258 . S
O106 Co103 1.966 . S
O106 C104 1.263 . S
C107 O108 1.235 . S
C107 O134 1.289 . S
O108 C107 1.235 . S
C109 C111 1.400 . S
C109 N112 1.351 . S
C109 C114 1.501 . S
C110 C111 1.387 . S
C110 N113 1.341 . S
C111 C109 1.400 . S
C111 C110 1.387 . S
N112 Co103 2.022 . S
N112 C109 1.351 . S
N112 N113 1.365 . S
N113 C110 1.341 . S
N113 N112 1.365 . S
N113 H133 0.862 . S
C114 C109 1.501 . S
C114 H115 0.961 . S
C114 H116 0.961 . S
C114 H117 0.960 . S
H115 C114 0.961 . S
H116 C114 0.961 . S
H117 C114 0.960 . S
C118 N119 1.342 . S
C118 C122 1.401 . S
C118 C123 1.499 . S
N119 Co102 1.989 . S
N119 C118 1.342 . S
N119 N120 1.388 . S
N120 Co103 1.993 . S
N120 N119 1.388 . S
N120 C121 1.346 . S
C121 N120 1.346 . S
C121 C122 1.396 . S
C121 C131 1.510 . S
C122 C118 1.401 . S
C122 C121 1.396 . S
C123 C118 1.499 . S
C123 H124 0.959 . S
C123 H125 0.960 . S
C123 H126 0.961 . S
H124 C123 0.959 . S
H125 C123 0.960 . S
H126 C123 0.961 . S
O127 Co102 1.967 . S
O127 C135 1.258 . S
O128 Co103 1.941 . S
O128 C135 1.266 . S
H129 C131 0.959 . S
H130 C131 0.961 . S
C131 C121 1.510 . S
C131 H129 0.959 . S
C131 H130 0.961 . S
C131 H132 0.960 . S
H132 C131 0.960 . S
H133 N113 0.862 . S
O134 Co102 1.920 . S
O134 C107 1.289 . S
C135 O127 1.258 . S
C135 O128 1.266 . S
Co136 O139 1.970 . S
Co136 N153 1.989 . S
Co136 O161 1.967 . S
Co136 O168 1.920 1_556 S
Co137 O140 1.966 . S
Co137 N146 2.022 . S
Co137 N154 1.993 . S
Co137 O162 1.941 . S
C138 O139 1.258 . S
C138 O140 1.263 . S
O139 Co136 1.970 . S
O139 C138 1.258 . S
O140 Co137 1.966 . S
O140 C138 1.263 . S
C141 O142 1.235 . S
C141 O168 1.289 . S
O142 C141 1.235 . S
C143 C145 1.400 . S
C143 N146 1.351 . S
C143 C148 1.501 . S
C144 C145 1.387 . S
C144 N147 1.341 . S
C145 C143 1.400 . S
C145 C144 1.387 . S
N146 Co137 2.022 . S
N146 C143 1.351 . S
N146 N147 1.365 . S
N147 C144 1.341 . S
N147 N146 1.365 . S
N147 H167 0.862 . S
C148 C143 1.501 . S
C148 H149 0.961 . S
C148 H150 0.961 . S
C148 H151 0.960 . S
H149 C148 0.961 . S
H150 C148 0.961 . S
H151 C148 0.960 . S
C152 N153 1.342 . S
C152 C156 1.401 . S
C152 C157 1.499 . S
N153 Co136 1.989 . S
N153 C152 1.342 . S
N153 N154 1.388 . S
N154 Co137 1.993 . S
N154 N153 1.388 . S
N154 C155 1.346 . S
C155 N154 1.346 . S
C155 C156 1.396 . S
C155 C165 1.510 . S
C156 C152 1.401 . S
C156 C155 1.396 . S
C157 C152 1.499 . S
C157 H158 0.959 . S
C157 H159 0.960 . S
C157 H160 0.961 . S
H158 C157 0.959 . S
H159 C157 0.960 . S
H160 C157 0.961 . S
O161 Co136 1.967 . S
O161 C169 1.258 . S
O162 Co137 1.941 . S
O162 C169 1.266 . S
H163 C165 0.959 . S
H164 C165 0.961 . S
C165 C155 1.510 . S
C165 H163 0.959 . S
C165 H164 0.961 . S
C165 H166 0.960 . S
H166 C165 0.960 . S
H167 N147 0.862 . S
O168 Co136 1.920 1_554 S
O168 C141 1.289 . S
C169 O161 1.258 . S
C169 O162 1.266 . S
Co170 O173 1.970 . S
Co170 N187 1.989 . S
Co170 O195 1.967 . S
Co170 O202 1.920 . S
Co171 O174 1.966 . S
Co171 N180 2.022 1_556 S
Co171 N188 1.993 . S
Co171 O196 1.941 . S
C172 O173 1.258 . S
C172 O174 1.263 . S
O173 Co170 1.970 . S
O173 C172 1.258 . S
O174 Co171 1.966 . S
O174 C172 1.263 . S
C175 O176 1.262 . S
C175 O202 1.289 . S
O176 C175 1.262 . S
C177 C179 1.400 . S
C177 N180 1.351 . S
C177 C182 1.501 . S
C178 C179 1.387 . S
C178 N181 1.341 . S
C179 C177 1.400 . S
C179 C178 1.387 . S
N180 Co171 2.022 1_554 S
N180 C177 1.351 . S
N180 N181 1.365 . S
N181 C178 1.341 . S
N181 N180 1.365 . S
N181 H201 0.862 . S
C182 C177 1.501 . S
C182 H183 0.961 . S
C182 H184 0.961 . S
C182 H185 0.960 . S
H183 C182 0.961 . S
H184 C182 0.961 . S
H185 C182 0.960 . S
C186 N187 1.342 . S
C186 C190 1.401 . S
C186 C191 1.499 . S
N187 Co170 1.989 . S
N187 C186 1.342 . S
N187 N188 1.388 . S
N188 Co171 1.993 . S
N188 N187 1.388 . S
N188 C189 1.346 . S
C189 N188 1.346 . S
C189 C190 1.396 . S
C189 C199 1.510 1_556 S
C190 C186 1.401 . S
C190 C189 1.396 . S
C191 C186 1.499 . S
C191 H192 0.959 . S
C191 H193 0.960 . S
C191 H194 0.961 . S
H192 C191 0.959 . S
H193 C191 0.960 . S
H194 C191 0.961 . S
O195 Co170 1.967 . S
O195 C203 1.258 . S
O196 Co171 1.941 . S
O196 C203 1.266 . S
H197 C199 0.959 . S
H198 C199 0.961 . S
C199 C189 1.510 1_554 S
C199 H197 0.959 . S
C199 H198 0.961 . S
C199 H200 0.960 . S
H200 C199 0.960 . S
H201 N181 0.862 . S
O202 Co170 1.920 . S
O202 C175 1.289 . S
C203 O195 1.258 . S
C203 O196 1.266 . S
Co204 O207 1.970 . S
Co204 N221 1.989 . S
Co204 O229 1.967 . S
Co204 O236 1.920 . S
Co205 O208 1.966 . S
Co205 N214 2.022 . S
Co205 N222 1.993 . S
Co205 O230 1.941 . S
C206 O207 1.258 . S
C206 O208 1.263 . S
O207 Co204 1.970 . S
O207 C206 1.258 . S
O208 Co205 1.966 . S
O208 C206 1.263 . S
C209 O210 1.235 . S
C209 O236 1.289 . S
O210 C209 1.235 . S
C211 C213 1.400 . S
C211 N214 1.351 . S
C211 C216 1.501 . S
C212 C213 1.387 . S
C212 N215 1.341 . S
C213 C211 1.400 . S
C213 C212 1.387 . S
N214 Co205 2.022 . S
N214 C211 1.351 . S
N214 N215 1.365 . S
N215 C212 1.341 . S
N215 N214 1.365 . S
N215 H235 0.862 . S
C216 C211 1.501 . S
C216 H217 0.961 . S
C216 H218 0.961 . S
C216 H219 0.960 . S
H217 C216 0.961 . S
H218 C216 0.961 . S
H219 C216 0.960 . S
C220 N221 1.342 . S
C220 C224 1.401 . S
C220 C225 1.499 . S
N221 Co204 1.989 . S
N221 C220 1.342 . S
N221 N222 1.388 . S
N222 Co205 1.993 . S
N222 N221 1.388 . S
N222 C223 1.346 . S
C223 N222 1.346 . S
C223 C224 1.396 . S
C223 C233 1.510 . S
C224 C220 1.401 . S
C224 C223 1.396 . S
C225 C220 1.499 . S
C225 H226 0.959 . S
C225 H227 0.960 . S
C225 H228 0.961 . S
H226 C225 0.959 . S
H227 C225 0.960 . S
H228 C225 0.961 . S
O229 Co204 1.967 . S
O229 C237 1.258 . S
O230 Co205 1.941 . S
O230 C237 1.266 . S
H231 C233 0.959 . S
H232 C233 0.961 . S
C233 C223 1.510 . S
C233 H231 0.959 . S
C233 H232 0.961 . S
C233 H234 0.960 . S
H234 C233 0.960 . S
H235 N215 0.862 . S
O236 Co204 1.920 . S
O236 C209 1.289 . S
C237 O229 1.258 . S
C237 O230 1.266 . S
Co238 O241 1.970 . S
Co238 N255 1.989 . S
Co238 O263 1.967 . S
Co238 O270 1.920 . S
Co239 O242 1.966 . S
Co239 N248 2.022 . S
Co239 N256 1.993 . S
Co239 O264 1.941 . S
C240 O241 1.258 . S
C240 O242 1.263 . S
O241 Co238 1.970 . S
O241 C240 1.258 . S
O242 Co239 1.966 . S
O242 C240 1.263 . S
C243 O244 1.235 . S
C243 O270 1.289 . S
O244 C243 1.235 . S
C245 C247 1.400 . S
C245 N248 1.351 . S
C245 C250 1.501 . S
C246 C247 1.387 . S
C246 N249 1.341 . S
C247 C245 1.400 . S
C247 C246 1.387 . S
N248 Co239 2.022 . S
N248 C245 1.351 . S
N248 N249 1.365 . S
N249 C246 1.341 . S
N249 N248 1.365 . S
N249 H269 0.862 . S
C250 C245 1.501 . S
C250 H251 0.961 . S
C250 H252 0.961 . S
C250 H253 0.960 . S
H251 C250 0.961 . S
H252 C250 0.961 . S
H253 C250 0.960 . S
C254 N255 1.342 . S
C254 C258 1.401 . S
C254 C259 1.499 . S
N255 Co238 1.989 . S
N255 C254 1.342 . S
N255 N256 1.388 . S
N256 Co239 1.993 . S
N256 N255 1.388 . S
N256 C257 1.346 . S
C257 N256 1.346 . S
C257 C258 1.396 . S
C257 C267 1.510 . S
C258 C254 1.401 . S
C258 C257 1.396 . S
C259 C254 1.499 . S
C259 H260 0.959 . S
C259 H261 0.960 . S
C259 H262 0.961 . S
H260 C259 0.959 . S
H261 C259 0.960 . S
H262 C259 0.961 . S
O263 Co238 1.967 . S
O263 C271 1.258 . S
O264 Co239 1.941 . S
O264 C271 1.266 . S
H265 C267 0.959 . S
H266 C267 0.961 . S
C267 C257 1.510 . S
C267 H265 0.959 . S
C267 H266 0.961 . S
C267 H268 0.960 . S
H268 C267 0.960 . S
H269 N249 0.862 . S
O270 Co238 1.920 . S
O270 C243 1.289 . S
C271 O263 1.258 . S
C271 O264 1.266 . S
H272 C280 0.929 . S
H273 C282 0.930 . S
H274 C284 0.930 . S
H275 C287 0.929 . S
H276 C290 0.930 . S
H277 C292 0.960 . S
H278 C292 0.960 . S
H279 C292 0.960 . S
C280 H272 0.929 . S
C280 C281 1.377 . S
C280 C282 1.384 . S
C281 C280 1.377 . S
C281 C287 1.390 . S
C282 H273 0.930 . S
C282 C280 1.384 . S
C282 C283 1.372 . S
C283 C282 1.372 . S
C283 C284 1.400 . S
C283 C288 1.490 . S
C284 H274 0.930 . S
C284 C283 1.400 . S
C284 C287 1.386 . S
H285 C301 0.930 . S
H286 C302 0.931 . S
C287 H275 0.929 . S
C287 C281 1.390 . S
C287 C284 1.386 . S
C288 C283 1.490 . S
C288 C290 1.395 . S
C288 C291 1.403 . S
H289 C295 0.930 . S
C290 H276 0.930 . S
C290 C288 1.395 . S
C290 C293 1.403 . S
C291 C288 1.403 . S
C291 C292 1.524 . S
C291 C295 1.400 . S
C292 H277 0.960 . S
C292 H278 0.960 . S
C292 H279 0.960 . S
C292 C291 1.524 . S
C293 C290 1.403 . S
C293 C294 1.392 . S
C293 C297 1.495 1_565 S
C294 C293 1.392 . S
C294 C295 1.385 . S
C294 C296 1.478 . S
C295 H289 0.930 . S
C295 C291 1.400 . S
C295 C294 1.385 . S
C296 C294 1.478 . S
C296 C298 1.381 . S
C296 C302 1.383 . S
C297 C293 1.495 1_545 S
C297 H303 0.959 . S
C297 H304 0.961 . S
C297 H305 0.960 . S
C298 C296 1.381 . S
C298 C299 1.394 . S
C298 H306 0.930 . S
C299 C298 1.394 . S
C299 C300 1.383 . S
C299 H307 0.929 . S
C300 C299 1.383 . S
C300 C301 1.377 . S
C301 H285 0.930 . S
C301 C300 1.377 . S
C301 C302 1.379 . S
C302 H286 0.931 . S
C302 C296 1.383 . S
C302 C301 1.379 . S
H303 C297 0.959 . S
H304 C297 0.961 . S
H305 C297 0.960 . S
H306 C298 0.930 . S
H307 C299 0.929 . S
H308 C316 0.929 . S
H309 C318 0.930 . S
H310 C320 0.930 . S
H311 C323 0.929 . S
H312 C326 0.930 . S
H313 C328 0.960 . S
H314 C328 0.960 . S
H315 C328 0.960 . S
C316 H308 0.929 . S
C316 C317 1.377 . S
C316 C318 1.384 . S
C317 C316 1.377 . S
C317 C323 1.390 . S
C318 H309 0.930 . S
C318 C316 1.384 . S
C318 C319 1.372 . S
C319 C318 1.372 . S
C319 C320 1.400 . S
C319 C324 1.490 . S
C320 H310 0.930 . S
C320 C319 1.400 . S
C320 C323 1.386 . S
H321 C337 0.930 . S
H322 C338 0.931 . S
C323 H311 0.929 . S
C323 C317 1.390 . S
C323 C320 1.386 . S
C324 C319 1.490 . S
C324 C326 1.395 . S
C324 C327 1.403 . S
H325 C331 0.930 . S
C326 H312 0.930 . S
C326 C324 1.395 . S
C326 C329 1.403 . S
C327 C324 1.403 . S
C327 C328 1.524 . S
C327 C331 1.400 . S
C328 H313 0.960 . S
C328 H314 0.960 . S
C328 H315 0.960 . S
C328 C327 1.524 . S
C329 C326 1.403 . S
C329 C330 1.392 . S
C329 C333 1.495 . S
C330 C329 1.392 . S
C330 C331 1.385 . S
C330 C332 1.478 . S
C331 H325 0.930 . S
C331 C327 1.400 . S
C331 C330 1.385 . S
C332 C330 1.478 . S
C332 C334 1.381 . S
C332 C338 1.383 . S
C333 C329 1.495 . S
C333 H339 0.959 . S
C333 H340 0.961 . S
C333 H341 0.960 . S
C334 C332 1.381 . S
C334 C335 1.394 . S
C334 H342 0.930 . S
C335 C334 1.394 . S
C335 C336 1.383 . S
C335 H343 0.929 . S
C336 C335 1.383 . S
C336 C337 1.377 . S
C337 H321 0.930 . S
C337 C336 1.377 . S
C337 C338 1.379 . S
C338 H322 0.931 . S
C338 C332 1.383 . S
C338 C337 1.379 . S
H339 C333 0.959 . S
H340 C333 0.961 . S
H341 C333 0.960 . S
H342 C334 0.930 . S
H343 C335 0.929 . S
H344 C352 0.929 . S
H345 C354 0.937 . S
H346 C356 0.930 . S
H347 C359 0.929 1_554 S
H348 C362 0.930 1_545 S
H349 C364 0.960 . S
H350 C364 0.960 . S
H351 C364 0.960 . S
C352 H344 0.929 . S
C352 C353 1.377 . S
C352 C354 1.369 1_545 S
C353 C352 1.377 . S
C353 C359 1.390 . S
C354 H345 0.937 . S
C354 C352 1.369 1_565 S
C354 C355 1.381 . S
C355 C354 1.381 . S
C355 C356 1.400 . S
C355 C360 1.490 . S
C356 H346 0.930 . S
C356 C355 1.400 . S
C356 C359 1.386 1_565 S
H357 C373 0.930 . S
H358 C374 0.931 . S
C359 H347 0.929 1_556 S
C359 C353 1.390 . S
C359 C356 1.386 1_545 S
C360 C355 1.490 . S
C360 C362 1.395 . S
C360 C363 1.403 . S
H361 C367 0.930 . S
C362 H348 0.930 1_565 S
C362 C360 1.395 . S
C362 C365 1.403 . S
C363 C360 1.403 . S
C363 C364 1.524 . S
C363 C367 1.400 . S
C364 H349 0.960 . S
C364 H350 0.960 . S
C364 H351 0.960 . S
C364 C363 1.524 . S
C365 C362 1.403 . S
C365 C366 1.392 . S
C365 C369 1.495 . S
C366 C365 1.392 . S
C366 C367 1.385 . S
C366 C368 1.478 . S
C367 H361 0.930 . S
C367 C363 1.400 . S
C367 C366 1.385 . S
C368 C366 1.478 . S
C368 C370 1.381 . S
C368 C374 1.383 . S
C369 C365 1.495 . S
C369 H375 0.959 1_565 S
C369 H376 0.961 . S
C369 H377 0.960 . S
C370 C368 1.381 . S
C370 C371 1.394 . S
C370 H378 0.930 . S
C371 C370 1.394 . S
C371 C372 1.383 . S
C371 H379 0.929 . S
C372 C371 1.383 . S
C372 C373 1.377 . S
C373 H357 0.930 . S
C373 C372 1.377 . S
C373 C374 1.379 . S
C374 H358 0.931 . S
C374 C368 1.383 . S
C374 C373 1.379 . S
H375 C369 0.959 1_545 S
H376 C369 0.961 . S
H377 C369 0.960 . S
H378 C370 0.930 . S
H379 C371 0.929 . S
H380 C388 0.929 . S
H381 C390 0.930 . S
H382 C392 0.930 . S
H383 C395 0.929 . S
H384 C398 0.930 . S
H385 C400 0.960 . S
H386 C400 0.960 . S
H387 C400 0.960 . S
C388 H380 0.929 . S
C388 C389 1.377 . S
C388 C390 1.384 . S
C389 C388 1.377 . S
C389 C395 1.390 . S
C390 H381 0.930 . S
C390 C388 1.384 . S
C390 C391 1.372 . S
C391 C390 1.372 . S
C391 C392 1.400 . S
C391 C396 1.490 . S
C392 H382 0.930 . S
C392 C391 1.400 . S
C392 C395 1.386 . S
H393 C409 0.930 . S
H394 C410 0.931 . S
C395 H383 0.929 . S
C395 C389 1.390 . S
C395 C392 1.386 . S
C396 C391 1.490 . S
C396 C398 1.395 . S
C396 C399 1.403 . S
H397 C403 0.930 . S
C398 H384 0.930 . S
C398 C396 1.395 . S
C398 C401 1.403 . S
C399 C396 1.403 . S
C399 C400 1.524 . S
C399 C403 1.400 . S
C400 H385 0.960 . S
C400 H386 0.960 . S
C400 H387 0.960 . S
C400 C399 1.524 . S
C401 C398 1.403 . S
C401 C402 1.392 . S
C401 C405 1.495 . S
C402 C401 1.392 . S
C402 C403 1.385 . S
C402 C404 1.478 . S
C403 H397 0.930 . S
C403 C399 1.400 . S
C403 C402 1.385 . S
C404 C402 1.478 . S
C404 C406 1.381 . S
C404 C410 1.383 . S
C405 C401 1.495 . S
C405 H411 0.959 . S
C405 H412 0.961 . S
C405 H413 0.960 . S
C406 C404 1.381 . S
C406 C407 1.394 . S
C406 H414 0.930 . S
C407 C406 1.394 . S
C407 C408 1.383 . S
C407 H415 0.929 . S
C408 C407 1.383 . S
C408 C409 1.377 . S
C409 H393 0.930 . S
C409 C408 1.377 . S
C409 C410 1.379 . S
C410 H394 0.931 . S
C410 C404 1.383 . S
C410 C409 1.379 . S
H411 C405 0.959 . S
H412 C405 0.961 . S
H413 C405 0.960 . S
H414 C406 0.930 . S
H415 C407 0.929 . S
H416 C424 0.929 . S
H417 C426 0.930 . S
H418 C428 0.930 . S
H419 C431 0.929 . S
H420 C434 0.930 . S
H421 C436 0.960 . S
H422 C436 0.960 . S
H423 C436 0.960 . S
C424 H416 0.929 . S
C424 C425 1.377 . S
C424 C426 1.384 . S
C425 C424 1.377 . S
C425 C431 1.390 . S
C426 H417 0.930 . S
C426 C424 1.384 . S
C426 C427 1.372 . S
C427 C426 1.372 . S
C427 C428 1.400 . S
C427 C432 1.490 . S
C428 H418 0.930 . S
C428 C427 1.400 . S
C428 C431 1.386 . S
H429 C445 0.930 . S
H430 C446 0.931 . S
C431 H419 0.929 . S
C431 C425 1.390 . S
C431 C428 1.386 . S
C432 C427 1.490 . S
C432 C434 1.395 1_556 S
C432 C435 1.403 . S
H433 C439 0.930 1_455 S
C434 H420 0.930 . S
C434 C432 1.395 1_554 S
C434 C437 1.403 . S
C435 C432 1.403 . S
C435 C436 1.524 . S
C435 C439 1.400 . S
C436 H421 0.960 . S
C436 H422 0.960 . S
C436 H423 0.960 . S
C436 C435 1.524 . S
C437 C434 1.403 . S
C437 C438 1.392 . S
C437 C441 1.495 . S
C438 C437 1.392 . S
C438 C439 1.385 1_554 S
C438 C440 1.478 1_655 S
C439 H433 0.930 1_655 S
C439 C435 1.400 . S
C439 C438 1.385 1_556 S
C440 C438 1.478 1_455 S
C440 C442 1.381 . S
C440 C446 1.383 . S
C441 C437 1.495 . S
C441 H447 0.959 . S
C441 H448 0.961 . S
C441 H449 0.960 . S
C442 C440 1.381 . S
C442 C443 1.394 . S
C442 H450 0.930 . S
C443 C442 1.394 . S
C443 C444 1.383 . S
C443 H451 0.929 1_565 S
C444 C443 1.383 . S
C444 C445 1.377 . S
C445 H429 0.930 . S
C445 C444 1.377 . S
C445 C446 1.379 . S
C446 H430 0.931 . S
C446 C440 1.383 . S
C446 C445 1.379 . S
H447 C441 0.959 . S
H448 C441 0.961 . S
H449 C441 0.960 . S
H450 C442 0.930 . S
H451 C443 0.929 1_545 S
H452 C460 0.929 . S
H453 C462 0.930 . S
H454 C464 0.930 . S
H455 C467 0.929 . S
H456 C470 0.930 1_545 S
H457 C472 0.960 . S
H458 C472 0.960 . S
H459 C472 0.960 . S
C460 H452 0.929 . S
C460 C461 1.377 . S
C460 C462 1.384 . S
C461 C460 1.377 . S
C461 C467 1.390 . S
C462 H453 0.930 . S
C462 C460 1.384 . S
C462 C463 1.372 . S
C463 C462 1.372 . S
C463 C464 1.400 . S
C463 C468 1.490 . S
C464 H454 0.930 . S
C464 C463 1.400 . S
C464 C467 1.386 . S
H465 C481 0.930 . S
H466 C482 0.931 . S
C467 H455 0.929 . S
C467 C461 1.390 . S
C467 C464 1.386 . S
C468 C463 1.490 . S
C468 C470 1.395 . S
C468 C471 1.403 . S
H469 C475 0.930 . S
C470 H456 0.930 1_565 S
C470 C468 1.395 . S
C470 C473 1.403 1_565 S
C471 C468 1.403 . S
C471 C472 1.524 1_554 S
C471 C475 1.400 1_554 S
C472 H457 0.960 . S
C472 H458 0.960 . S
C472 H459 0.960 . S
C472 C471 1.524 1_556 S
C473 C470 1.403 1_545 S
C473 C474 1.392 1_545 S
C473 C477 1.495 . S
C474 C473 1.392 1_565 S
C474 C475 1.385 1_554 S
C474 C476 1.473 1_565 S
C475 H469 0.930 . S
C475 C471 1.400 1_556 S
C475 C474 1.385 1_556 S
C476 C474 1.473 1_545 S
C476 C478 1.396 1_554 S
C476 C482 1.372 1_545 S
C477 C473 1.495 . S
C477 H483 0.959 . S
C477 H484 0.961 . S
C477 H485 0.960 . S
C478 C476 1.396 1_556 S
C478 C479 1.394 . S
C478 H486 0.930 . S
C479 C478 1.394 . S
C479 C480 1.383 . S
C479 H487 0.929 . S
C480 C479 1.383 . S
C480 C481 1.377 1_546 S
C481 H465 0.930 . S
C481 C480 1.377 1_564 S
C481 C482 1.379 . S
C482 H466 0.931 . S
C482 C476 1.372 1_565 S
C482 C481 1.379 . S
H483 C477 0.959 . S
H484 C477 0.961 . S
H485 C477 0.960 . S
H486 C478 0.930 . S
H487 C479 0.929 . S
H488 C496 0.929 . S
H489 C498 0.930 . S
H490 C500 0.930 . S
H491 C503 0.929 . S
H492 C506 0.930 . S
H493 C508 0.960 . S
H494 C508 0.960 . S
H495 C508 0.960 . S
C496 H488 0.929 . S
C496 C497 1.377 . S
C496 C498 1.384 . S
C497 C496 1.377 . S
C497 C503 1.390 . S
C498 H489 0.930 . S
C498 C496 1.384 . S
C498 C499 1.372 . S
C499 C498 1.372 . S
C499 C500 1.400 . S
C499 C504 1.490 . S
C500 H490 0.930 . S
C500 C499 1.400 . S
C500 C503 1.386 . S
H501 C517 0.930 . S
H502 C518 0.931 . S
C503 H491 0.929 . S
C503 C497 1.390 . S
C503 C500 1.386 . S
C504 C499 1.490 . S
C504 C506 1.395 . S
C504 C507 1.403 . S
H505 C511 0.917 1_655 S
C506 H492 0.930 . S
C506 C504 1.395 . S
C506 C509 1.403 1_455 S
C507 C504 1.403 . S
C507 C508 1.524 . S
C507 C511 1.460 . S
C508 H493 0.960 . S
C508 H494 0.960 . S
C508 H495 0.960 . S
C508 C507 1.524 . S
C509 C506 1.403 1_655 S
C509 C510 1.392 . S
C509 C513 1.495 . S
C510 C509 1.392 . S
C510 C511 1.340 1_655 S
C510 C512 1.478 . S
C511 H505 0.917 1_455 S
C511 C507 1.460 . S
C511 C510 1.340 1_455 S
C512 C510 1.478 . S
C512 C514 1.381 . S
C512 C518 1.383 . S
C513 C509 1.495 . S
C513 H519 0.959 . S
C513 H520 0.961 . S
C513 H521 0.960 . S
C514 C512 1.381 . S
C514 C515 1.394 . S
C514 H522 0.930 . S
C515 C514 1.394 . S
C515 C516 1.383 . S
C515 H523 0.929 . S
C516 C515 1.383 . S
C516 C517 1.377 . S
C517 H501 0.930 . S
C517 C516 1.377 . S
C517 C518 1.379 . S
C518 H502 0.931 . S
C518 C512 1.383 . S
C518 C517 1.379 . S
H519 C513 0.959 . S
H520 C513 0.961 . S
H521 C513 0.960 . S
H522 C514 0.930 . S
H523 C515 0.929 . S
H524 C532 0.929 . S
H525 C534 0.930 . S
H526 C536 0.930 . S
H527 C539 0.929 . S
H528 C542 0.930 . S
H529 C544 0.960 . S
H530 C544 0.960 . S
H531 C544 0.960 . S
C532 H524 0.929 . S
C532 C533 1.377 . S
C532 C534 1.384 . S
C533 C532 1.377 . S
C533 C539 1.390 . S
C534 H525 0.930 . S
C534 C532 1.384 . S
C534 C535 1.372 . S
C535 C534 1.372 . S
C535 C536 1.400 . S
C535 C540 1.490 . S
C536 H526 0.930 . S
C536 C535 1.400 . S
C536 C539 1.386 . S
H537 C553 0.930 . S
H538 C554 0.931 . S
C539 H527 0.929 . S
C539 C533 1.390 . S
C539 C536 1.386 . S
C540 C535 1.490 . S
C540 C542 1.395 . S
C540 C543 1.403 . S
H541 C547 0.930 . S
C542 H528 0.930 . S
C542 C540 1.395 . S
C542 C545 1.403 . S
C543 C540 1.403 . S
C543 C544 1.524 . S
C543 C547 1.400 . S
C544 H529 0.960 . S
C544 H530 0.960 . S
C544 H531 0.960 . S
C544 C543 1.524 . S
C545 C542 1.403 . S
C545 C546 1.392 . S
C545 C549 1.495 . S
C546 C545 1.392 . S
C546 C547 1.385 . S
C546 C548 1.478 . S
C547 H541 0.930 . S
C547 C543 1.400 . S
C547 C546 1.385 . S
C548 C546 1.478 . S
C548 C550 1.381 . S
C548 C554 1.383 . S
C549 C545 1.495 . S
C549 H555 0.959 . S
C549 H556 0.961 . S
C549 H557 0.960 . S
C550 C548 1.381 . S
C550 C551 1.394 . S
C550 H558 0.930 . S
C551 C550 1.394 . S
C551 C552 1.383 . S
C551 H559 0.929 . S
C552 C551 1.383 . S
C552 C553 1.377 . S
C553 H537 0.930 . S
C553 C552 1.377 . S
C553 C554 1.379 . S
C554 H538 0.931 . S
C554 C548 1.383 . S
C554 C553 1.379 . S
H555 C549 0.959 . S
H556 C549 0.961 . S
H557 C549 0.960 . S
H558 C550 0.930 . S
H559 C551 0.929 . S
H560 C568 0.929 . S
H561 C570 0.930 . S
H562 C572 0.930 . S
H563 C575 0.929 . S
H564 C578 0.930 . S
H565 C580 0.960 . S
H566 C580 0.960 . S
H567 C580 0.960 . S
C568 H560 0.929 . S
C568 C569 1.363 1_565 S
C568 C570 1.384 . S
C569 C568 1.363 1_545 S
C569 C575 1.401 . S
C570 H561 0.930 . S
C570 C568 1.384 . S
C570 C571 1.372 . S
C571 C570 1.372 . S
C571 C572 1.400 1_565 S
C571 C576 1.490 . S
C572 H562 0.930 . S
C572 C571 1.400 1_545 S
C572 C575 1.386 . S
H573 C589 0.930 . S
H574 C590 0.931 . S
C575 H563 0.929 . S
C575 C569 1.401 . S
C575 C572 1.386 . S
C576 C571 1.490 . S
C576 C578 1.395 . S
C576 C579 1.403 1_565 S
H577 C583 0.930 . S
C578 H564 0.930 . S
C578 C576 1.395 . S
C578 C581 1.403 . S
C579 C576 1.403 1_545 S
C579 C580 1.524 . S
C579 C583 1.400 . S
C580 H565 0.960 . S
C580 H566 0.960 . S
C580 H567 0.960 . S
C580 C579 1.524 . S
C581 C578 1.403 . S
C581 C582 1.392 . S
C581 C585 1.495 . S
C582 C581 1.392 . S
C582 C583 1.385 1_565 S
C582 C584 1.478 . S
C583 H577 0.930 . S
C583 C579 1.400 . S
C583 C582 1.385 1_545 S
C584 C582 1.478 . S
C584 C586 1.381 . S
C584 C590 1.383 . S
C585 C581 1.495 . S
C585 H591 0.959 . S
C585 H592 0.961 . S
C585 H593 0.960 . S
C586 C584 1.381 . S
C586 C587 1.394 . S
C586 H594 0.930 . S
C587 C586 1.394 . S
C587 C588 1.383 . S
C587 H595 0.929 . S
C588 C587 1.383 . S
C588 C589 1.377 . S
C589 H573 0.930 . S
C589 C588 1.377 . S
C589 C590 1.379 . S
C590 H574 0.931 . S
C590 C584 1.383 . S
C590 C589 1.379 . S
H591 C585 0.959 . S
H592 C585 0.961 . S
H593 C585 0.960 . S
H594 C586 0.930 . S
H595 C587 0.929 . S
H596 C604 0.929 . S
H597 C606 0.930 . S
H598 C608 0.930 . S
H599 C611 0.929 . S
H600 C614 0.930 . S
H601 C616 0.960 . S
H602 C616 0.960 . S
H603 C616 0.960 . S
C604 H596 0.929 . S
C604 C605 1.377 . S
C604 C606 1.384 . S
C605 C604 1.377 . S
C605 C611 1.390 . S
C606 H597 0.930 . S
C606 C604 1.384 . S
C606 C607 1.372 . S
C607 C606 1.372 . S
C607 C608 1.400 . S
C607 C612 1.490 . S
C608 H598 0.930 . S
C608 C607 1.400 . S
C608 C611 1.386 . S
H609 C625 0.930 . S
H610 C626 0.931 . S
C611 H599 0.929 . S
C611 C605 1.390 . S
C611 C608 1.386 . S
C612 C607 1.490 . S
C612 C614 1.395 . S
C612 C615 1.403 . S
H613 C619 0.930 . S
C614 H600 0.930 . S
C614 C612 1.395 . S
C614 C617 1.403 . S
C615 C612 1.403 . S
C615 C616 1.524 . S
C615 C619 1.400 . S
C616 H601 0.960 . S
C616 H602 0.960 . S
C616 H603 0.960 . S
C616 C615 1.524 . S
C617 C614 1.403 . S
C617 C618 1.392 . S
C617 C621 1.495 . S
C618 C617 1.392 . S
C618 C619 1.385 . S
C618 C620 1.478 . S
C619 H613 0.930 . S
C619 C615 1.400 . S
C619 C618 1.385 . S
C620 C618 1.478 . S
C620 C622 1.381 . S
C620 C626 1.383 . S
C621 C617 1.495 . S
C621 H627 0.959 . S
C621 H628 0.961 . S
C621 H629 0.960 . S
C622 C620 1.381 . S
C622 C623 1.394 . S
C622 H630 0.930 . S
C623 C622 1.394 . S
C623 C624 1.383 . S
C623 H631 0.929 . S
C624 C623 1.383 . S
C624 C625 1.377 . S
C625 H609 0.930 . S
C625 C624 1.377 . S
C625 C626 1.379 . S
C626 H610 0.931 . S
C626 C620 1.383 . S
C626 C625 1.379 . S
H627 C621 0.959 . S
H628 C621 0.961 . S
H629 C621 0.960 . S
H630 C622 0.930 . S
H631 C623 0.929 . S
H632 C640 0.929 . S
H633 C642 0.930 . S
H634 C644 0.930 . S
H635 C647 0.929 . S
H636 C650 0.930 . S
H637 C652 0.960 . S
H638 C652 0.960 . S
H639 C652 0.960 . S
C640 H632 0.929 . S
C640 C641 1.377 . S
C640 C642 1.384 . S
C641 C640 1.377 . S
C641 C647 1.390 . S
C642 H633 0.930 . S
C642 C640 1.384 . S
C642 C643 1.372 . S
C643 C642 1.372 . S
C643 C644 1.400 . S
C643 C648 1.490 . S
C644 H634 0.930 . S
C644 C643 1.400 . S
C644 C647 1.386 . S
H645 C661 0.930 . S
H646 C662 0.931 . S
C647 H635 0.929 . S
C647 C641 1.390 . S
C647 C644 1.386 . S
C648 C643 1.490 . S
C648 C650 1.395 . S
C648 C651 1.403 . S
H649 C655 0.930 . S
C650 H636 0.930 . S
C650 C648 1.395 . S
C650 C653 1.403 . S
C651 C648 1.403 . S
C651 C652 1.524 . S
C651 C655 1.400 . S
C652 H637 0.960 . S
C652 H638 0.960 . S
C652 H639 0.960 . S
C652 C651 1.524 . S
C653 C650 1.403 . S
C653 C654 1.392 . S
C653 C657 1.495 . S
C654 C653 1.392 . S
C654 C655 1.385 . S
C654 C656 1.478 1_556 S
C655 H649 0.930 . S
C655 C651 1.400 . S
C655 C654 1.385 . S
C656 C654 1.478 1_554 S
C656 C658 1.381 . S
C656 C662 1.383 . S
C657 C653 1.495 . S
C657 H663 0.959 . S
C657 H664 0.961 . S
C657 H665 0.960 . S
C658 C656 1.381 . S
C658 C659 1.394 . S
C658 H666 0.930 . S
C659 C658 1.394 . S
C659 C660 1.383 . S
C659 H667 0.929 . S
C660 C659 1.383 . S
C660 C661 1.377 . S
C661 H645 0.930 . S
C661 C660 1.377 . S
C661 C662 1.379 . S
C662 H646 0.931 . S
C662 C656 1.383 . S
C662 C661 1.379 . S
H663 C657 0.959 . S
H664 C657 0.961 . S
H665 C657 0.960 . S
H666 C658 0.930 . S
H667 C659 0.929 . S
H668 C676 0.929 . S
H669 C678 0.930 . S
H670 C680 0.930 . S
H671 C683 0.929 . S
H672 C686 0.930 . S
H673 C688 0.960 . S
H674 C688 0.960 1_554 S
H675 C688 0.960 1_554 S
C676 H668 0.929 . S
C676 C677 1.377 . S
C676 C678 1.384 . S
C677 C676 1.377 . S
C677 C683 1.390 . S
C678 H669 0.930 . S
C678 C676 1.384 . S
C678 C679 1.372 . S
C679 C678 1.372 . S
C679 C680 1.400 . S
C679 C684 1.490 1_554 S
C680 H670 0.930 . S
C680 C679 1.400 . S
C680 C683 1.386 . S
H681 C697 0.930 . S
H682 C698 0.931 . S
C683 H671 0.929 . S
C683 C677 1.390 . S
C683 C680 1.386 . S
C684 C679 1.490 1_556 S
C684 C686 1.395 . S
C684 C687 1.403 . S
H685 C691 0.930 . S
C686 H672 0.930 . S
C686 C684 1.395 . S
C686 C689 1.403 . S
C687 C684 1.403 . S
C687 C688 1.524 . S
C687 C691 1.400 . S
C688 H673 0.960 . S
C688 H674 0.960 1_556 S
C688 H675 0.960 1_556 S
C688 C687 1.524 . S
C689 C686 1.403 . S
C689 C690 1.392 . S
C689 C693 1.495 . S
C690 C689 1.392 . S
C690 C691 1.385 . S
C690 C692 1.478 . S
C691 H685 0.930 . S
C691 C687 1.400 . S
C691 C690 1.385 . S
C692 C690 1.478 . S
C692 C694 1.381 . S
C692 C698 1.383 . S
C693 C689 1.495 . S
C693 H699 0.959 . S
C693 H700 0.961 . S
C693 H701 0.960 . S
C694 C692 1.381 . S
C694 C695 1.394 . S
C694 H702 0.930 . S
C695 C694 1.394 . S
C695 C696 1.383 . S
C695 H703 0.929 . S
C696 C695 1.383 . S
C696 C697 1.377 . S
C697 H681 0.930 . S
C697 C696 1.377 . S
C697 C698 1.379 . S
C698 H682 0.931 . S
C698 C692 1.383 . S
C698 C697 1.379 . S
H699 C693 0.959 . S
H700 C693 0.961 . S
H701 C693 0.960 . S
H702 C694 0.930 . S
H703 C695 0.929 . S
H704 C712 0.929 . S
H705 C714 0.930 . S
H706 C716 0.930 . S
H707 C719 0.929 . S
H708 C722 0.930 . S
H709 C724 0.960 . S
H710 C724 0.960 . S
H711 C724 0.960 . S
C712 H704 0.929 . S
C712 C713 1.377 . S
C712 C714 1.384 . S
C713 C712 1.377 . S
C713 C719 1.390 . S
C714 H705 0.930 . S
C714 C712 1.384 . S
C714 C715 1.372 . S
C715 C714 1.372 . S
C715 C716 1.400 . S
C715 C720 1.490 . S
C716 H706 0.930 . S
C716 C715 1.400 . S
C716 C719 1.386 . S
H717 C733 0.930 . S
H718 C734 0.931 . S
C719 H707 0.929 . S
C719 C713 1.390 . S
C719 C716 1.386 . S
C720 C715 1.490 . S
C720 C722 1.395 . S
C720 C723 1.403 . S
H721 C727 0.930 . S
C722 H708 0.930 . S
C722 C720 1.395 . S
C722 C725 1.403 . S
C723 C720 1.403 . S
C723 C724 1.524 . S
C723 C727 1.400 . S
C724 H709 0.960 . S
C724 H710 0.960 . S
C724 H711 0.960 . S
C724 C723 1.524 . S
C725 C722 1.403 . S
C725 C726 1.392 . S
C725 C729 1.495 . S
C726 C725 1.392 . S
C726 C727 1.385 . S
C726 C728 1.478 . S
C727 H721 0.930 . S
C727 C723 1.400 . S
C727 C726 1.385 . S
C728 C726 1.478 . S
C728 C730 1.381 . S
C728 C734 1.383 . S
C729 C725 1.495 . S
C729 H735 0.959 . S
C729 H736 0.961 . S
C729 H737 0.960 . S
C730 C728 1.381 . S
C730 C731 1.394 . S
C730 H738 0.930 . S
C731 C730 1.394 . S
C731 C732 1.383 . S
C731 H739 0.929 . S
C732 C731 1.383 . S
C732 C733 1.377 . S
C733 H717 0.930 . S
C733 C732 1.377 . S
C733 C734 1.379 . S
C734 H718 0.931 . S
C734 C728 1.383 . S
C734 C733 1.379 . S
H735 C729 0.959 . S
H736 C729 0.961 . S
H737 C729 0.960 . S
H738 C730 0.930 . S
H739 C731 0.929 . S
H740 C748 0.929 1_565 S
H741 C750 0.930 1_565 S
H742 C752 0.930 . S
H743 C755 0.929 . S
H744 C758 0.930 1_565 S
H745 C760 0.960 . S
H746 C760 0.960 . S
H747 C760 0.960 . S
C748 H740 0.929 1_545 S
C748 C749 1.377 . S
C748 C750 1.384 . S
C749 C748 1.377 . S
C749 C755 1.390 . S
C750 H741 0.930 1_545 S
C750 C748 1.384 . S
C750 C751 1.372 . S
C751 C750 1.372 . S
C751 C752 1.400 . S
C751 C756 1.490 . S
C752 H742 0.930 . S
C752 C751 1.400 . S
C752 C755 1.386 . S
H753 C769 0.930 . S
H754 C770 0.931 . S
C755 H743 0.929 . S
C755 C749 1.390 . S
C755 C752 1.386 . S
C756 C751 1.490 . S
C756 C758 1.395 . S
C756 C759 1.403 . S
H757 C763 0.930 . S
C758 H744 0.930 1_545 S
C758 C756 1.395 . S
C758 C761 1.403 . S
C759 C756 1.403 . S
C759 C760 1.524 . S
C759 C763 1.400 . S
C760 H745 0.960 . S
C760 H746 0.960 . S
C760 H747 0.960 . S
C760 C759 1.524 . S
C761 C758 1.403 . S
C761 C762 1.392 . S
C761 C765 1.495 1_545 S
C762 C761 1.392 . S
C762 C763 1.385 . S
C762 C764 1.478 . S
C763 H757 0.930 . S
C763 C759 1.400 . S
C763 C762 1.385 . S
C764 C762 1.478 . S
C764 C766 1.381 . S
C764 C770 1.383 . S
C765 C761 1.495 1_565 S
C765 H771 0.959 . S
C765 H772 0.961 . S
C765 H773 0.960 . S
C766 C764 1.381 . S
C766 C767 1.394 . S
C766 H774 0.937 . S
C767 C766 1.394 . S
C767 C768 1.383 . S
C767 H775 0.929 . S
C768 C767 1.383 . S
C768 C769 1.377 . S
C769 H753 0.930 . S
C769 C768 1.377 . S
C769 C770 1.379 . S
C770 H754 0.931 . S
C770 C764 1.383 . S
C770 C769 1.379 . S
H771 C765 0.959 . S
H772 C765 0.961 . S
H773 C765 0.960 . S
H774 C766 0.937 . S
H775 C767 0.929 . S
H776 C784 0.929 . S
H777 C786 0.930 . S
H778 C788 0.930 . S
H779 C791 0.929 . S
H780 C794 0.930 . S
H781 C796 0.960 . S
H782 C796 0.960 . S
H783 C796 0.960 . S
C784 H776 0.929 . S
C784 C785 1.377 . S
C784 C786 1.384 . S
C785 C784 1.377 . S
C785 C791 1.390 . S
C786 H777 0.930 . S
C786 C784 1.384 . S
C786 C787 1.372 . S
C787 C786 1.372 . S
C787 C788 1.400 . S
C787 C792 1.490 . S
C788 H778 0.930 . S
C788 C787 1.400 . S
C788 C791 1.386 . S
H789 C805 0.930 . S
H790 C806 0.931 . S
C791 H779 0.929 . S
C791 C785 1.390 . S
C791 C788 1.386 . S
C792 C787 1.490 . S
C792 C794 1.395 . S
C792 C795 1.403 . S
H793 C799 0.930 . S
C794 H780 0.930 . S
C794 C792 1.395 . S
C794 C797 1.403 . S
C795 C792 1.403 . S
C795 C796 1.524 . S
C795 C799 1.400 . S
C796 H781 0.960 . S
C796 H782 0.960 . S
C796 H783 0.960 . S
C796 C795 1.524 . S
C797 C794 1.403 . S
C797 C798 1.392 . S
C797 C801 1.495 . S
C798 C797 1.392 . S
C798 C799 1.385 . S
C798 C800 1.478 1_554 S
C799 H793 0.930 . S
C799 C795 1.400 . S
C799 C798 1.385 . S
C800 C798 1.478 1_556 S
C800 C802 1.381 . S
C800 C806 1.383 . S
C801 C797 1.495 . S
C801 H807 0.959 . S
C801 H808 0.961 1_554 S
C801 H809 0.960 1_554 S
C802 C800 1.381 . S
C802 C803 1.394 . S
C802 H810 0.930 . S
C803 C802 1.394 . S
C803 C804 1.383 . S
C803 H811 0.929 . S
C804 C803 1.383 . S
C804 C805 1.377 . S
C805 H789 0.930 . S
C805 C804 1.377 . S
C805 C806 1.379 . S
C806 H790 0.931 . S
C806 C800 1.383 . S
C806 C805 1.379 . S
H807 C801 0.959 . S
H808 C801 0.961 1_556 S
H809 C801 0.960 1_556 S
H810 C802 0.930 . S
H811 C803 0.929 . S
H812 C820 0.929 . S
H813 C822 0.930 . S
H814 C824 0.930 . S
H815 C827 0.929 . S
H816 C830 0.930 . S
H817 C832 0.960 . S
H818 C832 0.960 . S
H819 C832 0.960 . S
C820 H812 0.929 . S
C820 C821 1.377 . S
C820 C822 1.384 . S
C821 C820 1.377 . S
C821 C827 1.390 . S
C822 H813 0.930 . S
C822 C820 1.384 . S
C822 C823 1.372 . S
C823 C822 1.372 . S
C823 C824 1.400 . S
C823 C828 1.490 . S
C824 H814 0.930 . S
C824 C823 1.400 . S
C824 C827 1.386 . S
H825 C841 0.930 . S
H826 C842 0.931 . S
C827 H815 0.929 . S
C827 C821 1.390 . S
C827 C824 1.386 . S
C828 C823 1.490 . S
C828 C830 1.395 . S
C828 C831 1.403 . S
H829 C835 0.930 . S
C830 H816 0.930 . S
C830 C828 1.395 . S
C830 C833 1.403 . S
C831 C828 1.403 . S
C831 C832 1.524 . S
C831 C835 1.400 . S
C832 H817 0.960 . S
C832 H818 0.960 . S
C832 H819 0.960 . S
C832 C831 1.524 . S
C833 C830 1.403 . S
C833 C834 1.392 . S
C833 C837 1.495 . S
C834 C833 1.392 . S
C834 C835 1.385 . S
C834 C836 1.478 1_554 S
C835 H829 0.930 . S
C835 C831 1.400 . S
C835 C834 1.385 . S
C836 C834 1.478 1_556 S
C836 C838 1.381 . S
C836 C842 1.383 . S
C837 C833 1.495 . S
C837 H843 0.959 . S
C837 H844 0.961 1_554 S
C837 H845 0.963 . S
C838 C836 1.381 . S
C838 C839 1.394 . S
C838 H846 0.930 . S
C839 C838 1.394 . S
C839 C840 1.383 . S
C839 H847 0.929 . S
C840 C839 1.383 . S
C840 C841 1.377 . S
C841 H825 0.930 . S
C841 C840 1.377 . S
C841 C842 1.379 . S
C842 H826 0.931 . S
C842 C836 1.383 . S
C842 C841 1.379 . S
H843 C837 0.959 . S
H844 C837 0.961 1_556 S
H845 C837 0.963 . S
H846 C838 0.930 . S
H847 C839 0.929 . S
H848 C856 0.929 . S
H849 C858 0.930 . S
H850 C860 0.930 . S
H851 C863 0.929 . S
H852 C866 0.930 . S
H853 C868 0.960 . S
H854 C868 0.960 . S
H855 C868 0.960 . S
C856 H848 0.929 . S
C856 C857 1.377 . S
C856 C858 1.384 . S
C857 C856 1.377 . S
C857 C863 1.390 . S
C858 H849 0.930 . S
C858 C856 1.384 . S
C858 C859 1.372 . S
C859 C858 1.372 . S
C859 C860 1.400 . S
C859 C864 1.490 . S
C860 H850 0.930 . S
C860 C859 1.400 . S
C860 C863 1.386 . S
H861 C877 0.930 . S
H862 C878 0.931 . S
C863 H851 0.929 . S
C863 C857 1.390 . S
C863 C860 1.386 . S
C864 C859 1.490 . S
C864 C866 1.395 . S
C864 C867 1.403 . S
H865 C871 0.930 . S
C866 H852 0.930 . S
C866 C864 1.395 . S
C866 C869 1.403 . S
C867 C864 1.403 . S
C867 C868 1.524 . S
C867 C871 1.400 . S
C868 H853 0.960 . S
C868 H854 0.960 . S
C868 H855 0.960 . S
C868 C867 1.524 . S
C869 C866 1.403 . S
C869 C870 1.392 . S
C869 C873 1.495 . S
C870 C869 1.392 . S
C870 C871 1.385 . S
C870 C872 1.478 . S
C871 H865 0.930 . S
C871 C867 1.400 . S
C871 C870 1.385 . S
C872 C870 1.478 . S
C872 C874 1.381 . S
C872 C878 1.383 . S
C873 C869 1.495 . S
C873 H879 0.959 . S
C873 H880 0.961 . S
C873 H881 0.960 . S
C874 C872 1.381 . S
C874 C875 1.394 . S
C874 H882 0.930 . S
C875 C874 1.394 . S
C875 C876 1.383 . S
C875 H883 0.929 . S
C876 C875 1.383 . S
C876 C877 1.377 . S
C877 H861 0.930 . S
C877 C876 1.377 . S
C877 C878 1.379 . S
C878 H862 0.931 . S
C878 C872 1.383 . S
C878 C877 1.379 . S
H879 C873 0.959 . S
H880 C873 0.961 . S
H881 C873 0.960 . S
H882 C874 0.930 . S
H883 C875 0.929 . S
H884 C892 0.929 . S
H885 C894 0.930 . S
H886 C896 0.930 . S
H887 C899 0.929 . S
H888 C902 0.930 . S
H889 C904 0.960 . S
H890 C904 0.960 . S
H891 C904 0.960 . S
C892 H884 0.929 . S
C892 C893 1.377 . S
C892 C894 1.384 . S
C893 C892 1.377 . S
C893 C899 1.390 . S
C894 H885 0.930 . S
C894 C892 1.384 . S
C894 C895 1.372 . S
C895 C894 1.372 . S
C895 C896 1.400 . S
C895 C900 1.490 . S
C896 H886 0.930 . S
C896 C895 1.400 . S
C896 C899 1.386 . S
H897 C913 0.930 . S
H898 C914 0.931 . S
C899 H887 0.929 . S
C899 C893 1.390 . S
C899 C896 1.386 . S
C900 C895 1.490 . S
C900 C902 1.395 . S
C900 C903 1.403 . S
H901 C907 0.930 . S
C902 H888 0.930 . S
C902 C900 1.395 . S
C902 C905 1.403 . S
C903 C900 1.403 . S
C903 C904 1.524 . S
C903 C907 1.400 . S
C904 H889 0.960 . S
C904 H890 0.960 . S
C904 H891 0.960 . S
C904 C903 1.524 . S
C905 C902 1.403 . S
C905 C906 1.392 . S
C905 C909 1.495 . S
C906 C905 1.392 . S
C906 C907 1.385 . S
C906 C908 1.478 . S
C907 H901 0.930 . S
C907 C903 1.400 . S
C907 C906 1.385 . S
C908 C906 1.478 . S
C908 C910 1.381 . S
C908 C914 1.383 . S
C909 C905 1.495 . S
C909 H915 0.959 . S
C909 H916 0.961 . S
C909 H917 0.960 . S
C910 C908 1.381 . S
C910 C911 1.394 . S
C910 H918 0.930 . S
C911 C910 1.394 . S
C911 C912 1.383 . S
C911 H919 0.929 . S
C912 C911 1.383 . S
C912 C913 1.377 . S
C913 H897 0.930 . S
C913 C912 1.377 . S
C913 C914 1.379 . S
C914 H898 0.931 . S
C914 C908 1.383 . S
C914 C913 1.379 . S
H915 C909 0.959 . S
H916 C909 0.961 . S
H917 C909 0.960 . S
H918 C910 0.930 . S
H919 C911 0.929 . S
H920 C928 0.929 . S
H921 C930 0.930 . S
H922 C932 0.930 . S
H923 C935 0.929 . S
H924 C938 0.930 . S
H925 C940 0.960 . S
H926 C940 0.960 . S
H927 C940 0.960 . S
C928 H920 0.929 . S
C928 C929 1.377 . S
C928 C930 1.384 . S
C929 C928 1.377 . S
C929 C935 1.390 . S
C930 H921 0.930 . S
C930 C928 1.384 . S
C930 C931 1.372 . S
C931 C930 1.372 . S
C931 C932 1.400 . S
C931 C936 1.490 . S
C932 H922 0.930 . S
C932 C931 1.400 . S
C932 C935 1.386 . S
H933 C949 0.930 . S
H934 C950 0.931 . S
C935 H923 0.929 . S
C935 C929 1.390 . S
C935 C932 1.386 . S
C936 C931 1.490 . S
C936 C938 1.395 . S
C936 C939 1.403 . S
H937 C943 0.930 . S
C938 H924 0.930 . S
C938 C936 1.395 . S
C938 C941 1.403 . S
C939 C936 1.403 . S
C939 C940 1.524 . S
C939 C943 1.400 . S
C940 H925 0.960 . S
C940 H926 0.960 . S
C940 H927 0.960 . S
C940 C939 1.524 . S
C941 C938 1.403 . S
C941 C942 1.392 . S
C941 C945 1.495 . S
C942 C941 1.392 . S
C942 C943 1.385 . S
C942 C944 1.478 . S
C943 H937 0.930 . S
C943 C939 1.400 . S
C943 C942 1.385 . S
C944 C942 1.478 . S
C944 C946 1.381 . S
C944 C950 1.383 . S
C945 C941 1.495 . S
C945 H951 0.959 . S
C945 H952 0.961 . S
C945 H953 0.960 . S
C946 C944 1.381 . S
C946 C947 1.394 . S
C946 H954 0.930 . S
C947 C946 1.394 . S
C947 C948 1.383 . S
C947 H955 0.929 . S
C948 C947 1.383 . S
C948 C949 1.377 . S
C949 H933 0.930 . S
C949 C948 1.377 . S
C949 C950 1.379 . S
C950 H934 0.931 . S
C950 C944 1.383 . S
C950 C949 1.379 . S
H951 C945 0.959 . S
H952 C945 0.961 . S
H953 C945 0.960 . S
H954 C946 0.930 . S
H955 C947 0.929 . S
H956 C964 0.929 . S
H957 C966 0.930 . S
H958 C968 0.930 . S
H959 C971 0.929 . S
H960 C974 0.930 . S
H961 C976 0.960 . S
H962 C976 0.960 . S
H963 C976 0.960 . S
C964 H956 0.929 . S
C964 C965 1.377 . S
C964 C966 1.384 . S
C965 C964 1.377 . S
C965 C971 1.390 . S
C966 H957 0.930 . S
C966 C964 1.384 . S
C966 C967 1.372 . S
C967 C966 1.372 . S
C967 C968 1.400 . S
C967 C972 1.490 . S
C968 H958 0.930 . S
C968 C967 1.400 . S
C968 C971 1.386 . S
H969 C985 0.930 . S
H970 C986 0.931 . S
C971 H959 0.929 . S
C971 C965 1.390 . S
C971 C968 1.386 . S
C972 C967 1.490 . S
C972 C974 1.395 . S
C972 C975 1.403 . S
H973 C979 0.930 . S
C974 H960 0.930 . S
C974 C972 1.395 . S
C974 C977 1.403 . S
C975 C972 1.403 . S
C975 C976 1.524 . S
C975 C979 1.400 . S
C976 H961 0.960 . S
C976 H962 0.960 . S
C976 H963 0.960 . S
C976 C975 1.524 . S
C977 C974 1.403 . S
C977 C978 1.392 . S
C977 C981 1.495 . S
C978 C977 1.392 . S
C978 C979 1.385 . S
C978 C980 1.478 . S
C979 H973 0.930 . S
C979 C975 1.400 . S
C979 C978 1.385 . S
C980 C978 1.478 . S
C980 C982 1.381 . S
C980 C986 1.383 . S
C981 C977 1.495 . S
C981 H987 0.959 . S
C981 H988 0.961 . S
C981 H989 0.960 . S
C982 C980 1.381 . S
C982 C983 1.394 . S
C982 H990 0.930 . S
C983 C982 1.394 . S
C983 C984 1.383 . S
C983 H991 0.929 . S
C984 C983 1.383 . S
C984 C985 1.377 . S
C985 H969 0.930 . S
C985 C984 1.377 . S
C985 C986 1.379 . S
C986 H970 0.931 . S
C986 C980 1.383 . S
C986 C985 1.379 . S
H987 C981 0.959 . S
H988 C981 0.961 . S
H989 C981 0.960 . S
H990 C982 0.930 . S
H991 C983 0.929 . S
C281 C36 1.870 . S
C300 C2 1.870 . S
C317 C70 1.414 . S
C336 C104 1.410 . S
C353 C172 1.745 . S
C372 C138 1.751 . S
C389 C206 1.044 . S
C408 C240 1.037 . S
C425 C169 1.789 . S
C444 C20 1.800 . S
C461 C54 1.779 . S
C480 C190 1.777 . S
C497 C88 1.077 . S
C516 C224 1.069 . S
C533 C122 1.564 . S
C552 C258 1.566 . S
C569 C9 1.176 . S
C588 C5 1.198 . S
C605 C39 1.172 . S
C624 C43 1.154 . S
C641 C77 1.158 . S
C660 C73 1.197 . S
C677 C107 1.168 . S
C696 C111 1.121 . S
C713 C141 1.207 . S
C732 C145 1.130 . S
C749 C175 1.198 . S
C768 C179 1.170 . S
C785 C213 1.134 . S
C804 C209 1.167 . S
C821 C247 1.164 . S
C840 C243 1.187 . S
C857 C33 1.633 . S
C876 C101 1.616 . S
C893 C67 1.920 . S
C912 C135 1.915 . S
C929 C156 1.362 . S
C948 C237 1.370 . S
C965 C203 1.280 . S
C984 C271 1.295 . S
