# Generated by pormake.
# Topology unc, (4)-cn, num edge types: 1
# Building blocks:
#     Node 0, Type 0, BuildingBlock: ICAMEG_clean_sbu_1, # of connection points: 4
#     Node 1, Type 0, BuildingBlock: ICAMEG_clean_sbu_1, # of connection points: 4
#     Node 2, Type 0, BuildingBlock: ICAMEG_clean_sbu_1, # of connection points: 4
#     Node 3, Type 0, BuildingBlock: ICAMEG_clean_sbu_1, # of connection points: 4
#     Edge 4, Type (0, 0), BuildingBlock: KIFKEQ_clean_linker_1, # of connection points: 2
#     Edge 5, Type (0, 0), BuildingBlock: KIFKEQ_clean_linker_1, # of connection points: 2
#     Edge 6, Type (0, 0), BuildingBlock: KIFKEQ_clean_linker_1, # of connection points: 2
#     Edge 7, Type (0, 0), BuildingBlock: KIFKEQ_clean_linker_1, # of connection points: 2
#     Edge 8, Type (0, 0), BuildingBlock: KIFKEQ_clean_linker_1, # of connection points: 2
#     Edge 9, Type (0, 0), BuildingBlock: KIFKEQ_clean_linker_1, # of connection points: 2
#     Edge 10, Type (0, 0), BuildingBlock: KIFKEQ_clean_linker_1, # of connection points: 2
#     Edge 11, Type (0, 0), BuildingBlock: KIFKEQ_clean_linker_1, # of connection points: 2
# Relax obj value: 0.023
# Max RMSD: 0.081
# Mean RMSD: 0.081
data_MOF--net-unc--node1-ICAMEG_clean_sbu_1--edge1-KIFKEQ_clean_linker_1
_symmetry_space_group_name_H-M    P1
_symmetry_Int_Tables_number       1
_symmetry_cell_setting            triclinic
loop_
_symmetry_equiv_pos_as_xyz
'x, y, z'
_cell_length_a     32.87965
_cell_length_b     32.84094
_cell_length_c     22.485894
_cell_angle_alpha  89.787199
_cell_angle_beta   90.103668
_cell_angle_gamma 89.977661
loop_
_atom_site_label
_atom_site_type_symbol
_atom_site_fract_x
_atom_site_fract_y
_atom_site_fract_z
_atom_type_partial_charge
Co0 Co 0.07057 0.66908 0.99601 0.0
Co1 Co 0.96861 0.66828 0.02467 0.0
O2 O 0.0194 0.69843 0.01062 0.0
C3 C 0.09395 0.7382 0.07667 0.0
O4 O 0.05774 0.73804 0.10102 0.0
C5 C 0.94457 0.73544 0.9412 0.0
O6 O 0.97972 0.7324 0.91408 0.0
O7 O 0.97503 0.64009 0.94706 0.0
O8 O 0.04101 0.62412 0.95397 0.0
H9 H 0.88107 0.54292 0.02855 0.0
H10 H 0.06439 0.75558 0.95879 0.0
O11 O 0.10293 0.71283 0.03613 0.0
H12 H 0.09492 0.67983 0.7753 0.0
H13 H 0.2187 0.65656 0.9419 0.0
H14 H 0.09582 0.58267 1.00635 0.0
H15 H 0.08863 0.64384 0.8712 0.0
H16 H 0.1542 0.69323 0.95775 0.0
O17 O 0.93604 0.71219 0.9848 0.0
H18 H 0.94446 0.58168 0.01345 0.0
H19 H 0.88461 0.69114 0.06254 0.0
H20 H 0.15961 0.54477 0.99053 0.0
H21 H 0.07111 0.79289 0.86397 0.0
H22 H 0.22165 0.58176 0.95808 0.0
H23 H 0.08631 0.75494 0.77128 0.0
O24 O 0.06456 0.64 0.07333 0.0
H25 H 0.96503 0.79074 0.1579 0.0
H26 H 0.95117 0.64139 0.14921 0.0
H27 H 0.94395 0.6763 0.24544 0.0
H28 H 0.95072 0.75155 0.2502 0.0
H29 H 0.97274 0.75451 0.06271 0.0
H30 H 0.8205 0.65361 0.0777 0.0
H31 H 0.81849 0.57892 0.0609 0.0
O32 O 0.99876 0.6232 0.06633 0.0
C33 C 1.00595 0.61974 0.93036 0.0
C34 C 0.88158 0.57544 0.03618 0.0
C35 C 0.84758 0.63757 0.0637 0.0
N36 N 0.91834 0.63858 0.03749 0.0
C37 C 0.91742 0.59754 0.02783 0.0
C38 C 0.88396 0.65867 0.05491 0.0
C39 C 0.84648 0.59566 0.05428 0.0
C40 C 0.07147 0.7389 0.91881 0.0
N41 N 0.07615 0.69758 0.92065 0.0
C42 C 0.07503 0.76017 0.86517 0.0
C43 C 0.08348 0.73886 0.81316 0.0
C44 C 0.08826 0.69671 0.81537 0.0
C45 C 0.08446 0.67647 0.8698 0.0
C46 C 0.19185 0.64009 0.95595 0.0
C47 C 0.12262 0.59896 0.99195 0.0
C48 C 0.15525 0.6607 0.96514 0.0
N49 N 0.12117 0.64007 0.98263 0.0
C50 C 0.15868 0.57734 0.98318 0.0
C51 C 0.19349 0.59812 0.96502 0.0
C52 C 0.03394 0.61899 0.08974 0.0
C53 C 0.96196 0.75795 0.1564 0.0
C54 C 0.9546 0.67409 0.15094 0.0
C55 C 0.95026 0.69372 0.20555 0.0
C56 C 0.954 0.73594 0.20818 0.0
N57 N 0.96248 0.69589 0.10033 0.0
C58 C 0.96611 0.73729 0.10256 0.0
Co59 Co 0.36824 0.97043 0.2776 0.0
Co60 Co 0.36894 0.07187 0.23328 0.0
O61 O 0.34049 0.02126 0.25483 0.0
C62 C 0.30799 0.94546 0.18429 0.0
O63 O 0.31263 0.98044 0.1568 0.0
C64 C 0.31083 0.09839 0.3278 0.0
O65 O 0.32146 0.06712 0.36092 0.0
O66 O 0.40408 0.06839 0.30601 0.0
O67 O 0.40801 1.00146 0.32691 0.0
H68 H 0.49217 0.15945 0.20099 0.0
H69 H 0.27974 0.98159 0.29659 0.0
O70 O 0.32836 0.93728 0.23098 0.0
H71 H 0.33591 0.94778 0.49416 0.0
H72 H 0.37555 0.82303 0.34014 0.0
H73 H 0.45452 0.94572 0.28827 0.0
H74 H 0.38052 0.95086 0.4062 0.0
H75 H 0.3407 0.88708 0.31361 0.0
O76 O 0.32792 0.1046 0.2779 0.0
H77 H 0.45544 0.09622 0.22617 0.0
H78 H 0.34227 0.1554 0.19658 0.0
H79 H 0.49062 0.88238 0.31515 0.0
H80 H 0.23393 0.97845 0.38319 0.0
H81 H 0.45105 0.82045 0.34129 0.0
H82 H 0.262 0.9616 0.48292 0.0
O83 O 0.40449 0.9737 0.20632 0.0
H84 H 0.23608 0.06799 0.12253 0.0
H85 H 0.38383 0.09049 0.10511 0.0
H86 H 0.3407 0.09505 0.01547 0.0
H87 H 0.26622 0.08383 0.0239 0.0
H88 H 0.28046 0.06312 0.2108 0.0
H89 H 0.37775 0.21934 0.17166 0.0
H90 H 0.45325 0.2216 0.17352 0.0
O91 O 0.40947 0.04064 0.18566 0.0
C92 C 0.41775 0.03845 0.33636 0.0
C93 C 0.45927 0.15882 0.19985 0.0
C94 C 0.39505 0.19245 0.18349 0.0
N95 N 0.39679 0.12203 0.21249 0.0
C96 C 0.43832 0.12308 0.21389 0.0
C97 C 0.37512 0.15618 0.19785 0.0
C98 C 0.43741 0.19369 0.18451 0.0
C99 C 0.29217 0.97409 0.33979 0.0
N100 N 0.33284 0.96672 0.34641 0.0
C101 C 0.26608 0.97242 0.38869 0.0
C102 C 0.28185 0.96299 0.44463 0.0
C103 C 0.32332 0.95528 0.45098 0.0
C104 C 0.34847 0.95727 0.40108 0.0
C105 C 0.39313 0.84983 0.32892 0.0
C106 C 0.43711 0.91897 0.3 0.0
C107 C 0.37356 0.88617 0.31366 0.0
N108 N 0.39558 0.9202 0.29977 0.0
C109 C 0.45771 0.88316 0.315 0.0
C110 C 0.43549 0.84841 0.32959 0.0
C111 C 0.41889 1.00351 0.17653 0.0
C112 C 0.2685 0.07286 0.11824 0.0
C113 C 0.35154 0.08503 0.10896 0.0
C114 C 0.32722 0.08793 0.05814 0.0
C115 C 0.28543 0.0817 0.06291 0.0
N116 N 0.33479 0.07602 0.16299 0.0
C117 C 0.29378 0.07023 0.1681 0.0
Co118 Co 0.97158 0.36895 0.49752 0.0
Co119 Co 0.07317 0.3708 0.52767 0.0
O120 O 0.02277 0.34024 0.51388 0.0
C121 C 0.94852 0.29974 0.57899 0.0
O122 O 0.9849 0.2997 0.60295 0.0
C123 C 0.0991 0.30645 0.44266 0.0
O124 O 0.06829 0.31614 0.40816 0.0
O125 O 0.06705 0.39816 0.44885 0.0
O126 O 1.00097 0.41379 0.45468 0.0
H127 H 0.16063 0.49623 0.52842 0.0
H128 H 0.9806 0.28249 0.46264 0.0
O129 O 0.93935 0.32522 0.53835 0.0
H130 H 0.94863 0.35601 0.27676 0.0
H131 H 0.82366 0.37959 0.4406 0.0
H132 H 0.94548 0.45519 0.50497 0.0
H133 H 0.95311 0.39279 0.3719 0.0
H134 H 0.88842 0.34369 0.45855 0.0
O135 O 0.10533 0.32585 0.49066 0.0
H136 H 0.09732 0.45728 0.5138 0.0
H137 H 0.15705 0.34838 0.56718 0.0
H138 H 0.88141 0.49234 0.48701 0.0
H139 H 0.97597 0.24442 0.36856 0.0
H140 H 0.8199 0.45449 0.45459 0.0
H141 H 0.95998 0.28124 0.2747 0.0
O142 O 0.97707 0.39874 0.57409 0.0
H143 H 0.07702 0.25038 0.66627 0.0
H144 H 0.08978 0.39964 0.65124 0.0
H145 H 0.09681 0.36629 0.74906 0.0
H146 H 0.0906 0.29109 0.75703 0.0
H147 H 0.06942 0.28505 0.56942 0.0
H148 H 0.22109 0.3861 0.58193 0.0
H149 H 0.22311 0.46061 0.56273 0.0
O150 O 0.04267 0.41638 0.56683 0.0
C151 C 0.03604 0.41825 0.43132 0.0
C152 C 0.16011 0.46379 0.5371 0.0
C153 C 0.19405 0.40198 0.56706 0.0
N154 N 0.12338 0.40066 0.54001 0.0
C155 C 0.12431 0.44159 0.52903 0.0
C156 C 0.15771 0.38076 0.55849 0.0
C157 C 0.19516 0.44378 0.5563 0.0
C158 C 0.97321 0.29866 0.42211 0.0
N159 N 0.96688 0.33977 0.4229 0.0
C160 C 0.97081 0.27697 0.36892 0.0
C161 C 0.96191 0.29766 0.31625 0.0
C162 C 0.95556 0.33961 0.31737 0.0
C163 C 0.95824 0.36029 0.37139 0.0
C164 C 0.85026 0.39643 0.45462 0.0
C165 C 0.91891 0.43853 0.49058 0.0
C166 C 0.88701 0.37626 0.46499 0.0
N167 N 0.92081 0.39736 0.48244 0.0
C168 C 0.88269 0.45972 0.4806 0.0
C169 C 0.84818 0.43846 0.46246 0.0
C170 C 1.00745 0.42025 0.59006 0.0
C171 C 0.07981 0.28316 0.66338 0.0
C172 C 0.08651 0.36696 0.65436 0.0
C173 C 0.09078 0.34822 0.70987 0.0
C174 C 0.08736 0.30603 0.71429 0.0
N175 N 0.07897 0.34434 0.60461 0.0
C176 C 0.0757 0.30296 0.6086 0.0
Co177 Co 0.66725 0.06989 0.77199 0.0
Co178 Co 0.66696 0.96805 0.741 0.0
O179 O 0.69655 0.01888 0.75659 0.0
C180 C 0.73292 0.09378 0.68681 0.0
O181 O 0.72784 0.05947 0.65803 0.0
C182 C 0.73263 0.9439 0.82648 0.0
O183 O 0.72822 0.97858 0.85448 0.0
O184 O 0.63761 0.97361 0.81803 0.0
O185 O 0.62245 0.04002 0.81428 0.0
H186 H 0.54241 0.87973 0.73188 0.0
H187 H 0.75376 0.06347 0.80803 0.0
O188 O 0.71109 0.10206 0.73182 0.0
H189 H 0.67896 0.09265 0.9929 0.0
H190 H 0.65531 0.21786 0.82769 0.0
H191 H 0.58098 0.09535 0.76295 0.0
H192 H 0.64259 0.08718 0.89735 0.0
H193 H 0.69174 0.15332 0.81067 0.0
O194 O 0.7105 0.93552 0.7817 0.0
H195 H 0.5805 0.9433 0.74912 0.0
H196 H 0.69097 0.88438 0.70283 0.0
H197 H 0.5433 0.1592 0.77994 0.0
H198 H 0.79145 0.06937 0.90251 0.0
H199 H 0.58052 0.22104 0.81255 0.0
H200 H 0.75398 0.08386 0.99589 0.0
O201 O 0.63799 0.06459 0.69472 0.0
H202 H 0.79139 0.96804 0.61163 0.0
H203 H 0.64248 0.95067 0.61546 0.0
H204 H 0.67902 0.945 0.52025 0.0
H205 H 0.75406 0.95356 0.51793 0.0
H206 H 0.75354 0.9741 0.70576 0.0
H207 H 0.65413 0.8201 0.68558 0.0
H208 H 0.57927 0.81754 0.69988 0.0
O209 O 0.62244 0.99827 0.69815 0.0
C210 C 0.61793 1.0045 0.8366 0.0
C211 C 0.57501 0.88049 0.72534 0.0
C212 C 0.63771 0.84701 0.69942 0.0
N213 N 0.63786 0.91765 0.72659 0.0
C214 C 0.59672 0.91642 0.7349 0.0
C215 C 0.65842 0.88349 0.70939 0.0
C216 C 0.59571 0.8456 0.70743 0.0
C217 C 0.73728 0.07021 0.84835 0.0
N218 N 0.69601 0.07492 0.8471 0.0
C219 C 0.75878 0.07333 0.90178 0.0
C220 C 0.73773 0.08139 0.95417 0.0
C221 C 0.69563 0.08626 0.95254 0.0
C222 C 0.67516 0.08291 0.8983 0.0
C223 C 0.63874 0.19111 0.81358 0.0
C224 C 0.59736 0.12208 0.77742 0.0
C225 C 0.65922 0.15448 0.80373 0.0
N226 N 0.63846 0.12051 0.78618 0.0
C227 C 0.57587 0.15817 0.78685 0.0
C228 C 0.59678 0.19287 0.80509 0.0
C229 C 0.6181 0.03388 0.67595 0.0
C230 C 0.75871 0.96417 0.61207 0.0
C231 C 0.67507 0.95482 0.6148 0.0
C232 C 0.69563 0.95137 0.56076 0.0
C233 C 0.73773 0.95612 0.55951 0.0
N234 N 0.69584 0.96278 0.66618 0.0
C235 C 0.73713 0.96739 0.6653 0.0
H236 H 0.09969 0.60496 0.16376 0.0
H237 H 0.97852 0.56188 0.1235 0.0
H238 H 0.10368 0.55635 0.24676 0.0
H239 H 0.98291 0.51349 0.20461 0.0
H240 H 0.97865 0.47231 0.39384 0.0
H241 H 0.98201 0.51987 0.31181 0.0
H242 H 0.10503 0.48173 0.27452 0.0
H243 H 0.10204 0.43383 0.35856 0.0
C244 C 0.07413 0.58497 0.17215 0.0
C245 C 0.03857 0.58783 0.13738 0.0
C246 C 0.0765 0.55703 0.2195 0.0
C247 C 0.04336 0.53151 0.2329 0.0
C248 C 1.00862 0.53337 0.19652 0.0
C249 C 1.0062 0.56113 0.14967 0.0
C250 C 1.00661 0.47385 0.36854 0.0
C251 C 0.03995 0.44872 0.38262 0.0
C252 C 1.00842 0.50114 0.3211 0.0
C253 C 0.04352 0.50414 0.28587 0.0
C254 C 0.07753 0.48012 0.30085 0.0
C255 C 0.07575 0.4526 0.34881 0.0
H256 H 0.48792 0.0841 0.34122 0.0
H257 H 0.40761 1.01064 0.44825 0.0
H258 H 0.53647 0.0872 0.4247 0.0
H259 H 0.45498 0.01393 0.53097 0.0
H260 H 0.56842 0.97587 0.62874 0.0
H261 H 0.52029 0.98243 0.54792 0.0
H262 H 0.55017 0.10989 0.52973 0.0
H263 H 0.59971 0.1032 0.611 0.0
C264 C 0.48041 0.06922 0.38285 0.0
C265 C 0.44456 0.04621 0.38794 0.0
C266 C 0.50808 0.07099 0.4306 0.0
C267 C 0.50005 0.04998 0.48411 0.0
C268 C 0.46281 0.02937 0.4899 0.0
C269 C 0.4356 0.0274 0.44243 0.0
C270 C 0.56497 1.00545 0.60787 0.0
C271 C 0.58807 0.03904 0.62683 0.0
C272 C 0.537 1.00926 0.56152 0.0
C273 C 0.53093 0.04682 0.53264 0.0
C274 C 0.55421 0.0805 0.55092 0.0
C275 C 0.5824 0.07669 0.59771 0.0
H276 H 0.06333 0.56583 0.89309 0.0
H277 H 0.93964 0.60405 0.85832 0.0
H278 H 0.05968 0.51857 0.81109 0.0
H279 H 0.93633 0.55642 0.77454 0.0
H280 H 0.94207 0.43315 0.66466 0.0
H281 H 0.93816 0.4814 0.74759 0.0
H282 H 0.05776 0.52638 0.70333 0.0
H283 H 0.06206 0.47846 0.62214 0.0
C284 C 0.03525 0.56426 0.86796 0.0
C285 C 1.00192 0.58926 0.88207 0.0
C286 C 0.03326 0.53715 0.82059 0.0
C287 C 0.99797 0.53421 0.78561 0.0
C288 C 0.96396 0.55803 0.80072 0.0
C289 C 0.96593 0.58539 0.84852 0.0
C290 C 0.96736 0.45357 0.6725 0.0
C291 C 1.00261 0.45144 0.63718 0.0
C292 C 0.96504 0.48127 0.71983 0.0
C293 C 0.99794 0.50722 0.73262 0.0
C294 C 0.03229 0.50615 0.69563 0.0
C295 C 0.03464 0.47866 0.64877 0.0
H296 H 0.49 0.95925 0.17369 0.0
H297 H 0.40783 0.02878 0.06361 0.0
H298 H 0.53823 0.9551 0.09012 0.0
H299 H 0.45493 0.02452 0.98087 0.0
H300 H 0.56764 0.06266 0.88171 0.0
H301 H 0.51991 0.05691 0.96288 0.0
H302 H 0.55138 0.93013 0.98554 0.0
H303 H 0.60048 0.93598 0.90379 0.0
C304 C 0.48206 0.97308 0.13142 0.0
C305 C 0.44577 0.99532 0.12538 0.0
C306 C 0.50952 0.97068 0.08363 0.0
C307 C 0.50084 0.99031 0.02919 0.0
C308 C 0.46321 1.01015 0.02261 0.0
C309 C 0.43619 0.01272 0.07009 0.0
C310 C 0.56461 0.03339 0.9036 0.0
C311 C 0.58801 0.99973 0.88576 0.0
C312 C 0.53689 0.03005 0.95017 0.0
C313 C 0.53142 0.99294 0.98042 0.0
C314 C 0.55497 0.95919 0.96324 0.0
C315 C 0.58289 0.9625 0.91618 0.0
H316 H 0.30674 0.86424 0.20701 0.0
H317 H 0.2391 0.95946 0.11797 0.0
H318 H 0.25413 0.81519 0.18106 0.0
H319 H 0.18586 0.90996 0.09244 0.0
H320 H 0.08188 0.81239 0.13006 0.0
H321 H 0.13358 0.86405 0.15289 0.0
H322 H 0.22685 0.78497 0.08352 0.0
H323 H 0.17567 0.73384 0.06024 0.0
C324 C 0.28068 0.87467 0.18163 0.0
C325 C 0.27713 0.91569 0.16431 0.0
C326 C 0.2506 0.84654 0.16674 0.0
C327 C 0.2159 0.85882 0.13494 0.0
C328 C 0.21222 0.89981 0.11739 0.0
C329 C 0.2428 0.92797 0.13146 0.0
C330 C 0.11345 0.80605 0.12 0.0
C331 C 0.12471 0.769 0.09355 0.0
C332 C 0.14291 0.83572 0.13252 0.0
C333 C 0.18415 0.82847 0.11983 0.0
C334 C 0.19532 0.79128 0.09398 0.0
C335 C 0.16596 0.76205 0.08061 0.0
H336 H 0.27606 0.15874 0.26169 0.0
H337 H 0.2701 0.10121 0.43468 0.0
H338 H 0.22265 0.20567 0.29019 0.0
H339 H 0.2158 0.14841 0.4631 0.0
H340 H 0.16047 0.27472 0.51032 0.0
H341 H 0.20887 0.22187 0.48374 0.0
H342 H 0.14984 0.20841 0.3132 0.0
H343 H 0.10141 0.26191 0.33951 0.0
C344 C 0.26331 0.15598 0.3059 0.0
C345 C 0.27769 0.12631 0.34613 0.0
C346 C 0.2323 0.18274 0.32198 0.0
C347 C 0.21482 0.18075 0.37881 0.0
C348 C 0.22889 0.15091 0.41908 0.0
C349 C 0.2599 0.12382 0.4028 0.0
C350 C 0.15762 0.26048 0.46713 0.0
C351 C 0.12723 0.27289 0.42675 0.0
C352 C 0.18523 0.22986 0.45217 0.0
C353 C 0.18332 0.21095 0.39635 0.0
C354 C 0.15241 0.22273 0.35636 0.0
C355 C 0.12458 0.25329 0.37146 0.0
H356 H 0.80134 0.07986 0.61978 0.0
H357 H 0.73683 0.17416 0.71436 0.0
H358 H 0.85513 0.12896 0.59485 0.0
H359 H 0.78997 0.2228 0.68894 0.0
H360 H 0.86657 0.30505 0.56545 0.0
H361 H 0.81536 0.25414 0.59013 0.0
H362 H 0.90921 0.17346 0.65508 0.0
H363 H 0.96092 0.22493 0.63102 0.0
C364 C 0.79852 0.11102 0.63486 0.0
C365 C 0.76483 0.12316 0.6689 0.0
C366 C 0.82939 0.13895 0.62103 0.0
C367 C 0.82664 0.17961 0.64006 0.0
C368 C 0.79275 0.19171 0.67348 0.0
C369 C 0.76238 0.16379 0.6881 0.0
C370 C 0.87639 0.27654 0.58518 0.0
C371 C 0.91779 0.26907 0.59657 0.0
C372 C 0.84702 0.24744 0.59936 0.0
C373 C 0.85836 0.20989 0.62437 0.0
C374 C 0.89975 0.20212 0.63545 0.0
C375 C 0.92922 0.23165 0.6222 0.0
H376 H 0.80267 0.95795 0.88994 0.0
H377 H 0.73386 0.86265 0.80414 0.0
H378 H 0.85565 0.90818 0.91626 0.0
H379 H 0.78616 0.81329 0.83127 0.0
H380 H 0.86307 0.73407 0.96085 0.0
H381 H 0.81279 0.78555 0.93393 0.0
H382 H 0.90701 0.8593 0.85489 0.0
H383 H 0.95774 0.80716 0.88097 0.0
C384 C 0.79873 0.92643 0.87712 0.0
C385 C 0.76408 0.91418 0.84512 0.0
C386 C 0.82914 0.89811 0.89173 0.0
C387 C 0.82492 0.85698 0.87568 0.0
C388 C 0.79008 0.84477 0.84434 0.0
C389 C 0.7602 0.87308 0.82878 0.0
C390 C 0.87317 0.76118 0.93758 0.0
C391 C 0.91437 0.76651 0.92281 0.0
C392 C 0.84433 0.79059 0.92213 0.0
C393 C 0.85608 0.82637 0.89251 0.0
C394 C 0.89729 0.83204 0.87808 0.0
C395 C 0.92617 0.80212 0.89255 0.0
loop_
_geom_bond_atom_site_label_1
_geom_bond_atom_site_label_2
_geom_bond_distance
_geom_bond_site_symmetry_2
_ccdc_geom_bond_type
Co0 O2 2.143 . S
Co0 O8 2.074 . S
Co0 O11 2.093 1_556 S
Co0 O24 2.097 1_556 S
Co0 N41 2.151 . S
Co0 N49 2.214 . S
Co1 O2 2.160 1_654 S
Co1 O7 2.058 1_554 S
Co1 O17 2.057 1_554 S
Co1 O32 2.037 . S
Co1 N36 2.145 . S
Co1 N57 2.257 . S
O2 Co0 2.143 . S
O2 Co1 2.160 1_456 S
C3 O4 1.278 . S
C3 O11 1.224 . S
O4 C3 1.278 . S
C5 O6 1.245 . S
C5 O17 1.232 . S
O6 C5 1.245 . S
O7 Co1 2.058 1_556 S
O7 C33 1.269 1_655 S
O8 Co0 2.074 . S
O8 C33 1.257 . S
H9 C34 0.930 . S
H10 C40 0.930 . S
O11 Co0 2.093 1_554 S
O11 C3 1.224 . S
H12 C44 0.929 . S
H13 C46 0.930 . S
H14 C47 0.930 . S
H15 C45 0.929 . S
H16 C48 0.928 . S
O17 Co1 2.057 1_556 S
O17 C5 1.232 . S
H18 C37 0.929 . S
H19 C38 0.929 1_556 S
H20 C50 0.931 . S
H21 C42 0.929 . S
H22 C51 0.930 . S
H23 C43 0.931 . S
O24 Co0 2.097 1_554 S
O24 C52 1.214 . S
H25 C53 0.929 . S
H26 C54 0.929 . S
H27 C55 0.930 . S
H28 C56 0.929 . S
H29 C58 0.930 . S
H30 C35 0.930 . S
H31 C39 0.930 . S
O32 Co1 2.037 . S
O32 C52 1.234 1_655 S
C33 O7 1.269 1_455 S
C33 O8 1.257 . S
C34 H9 0.930 . S
C34 C37 1.388 . S
C34 C39 1.418 . S
C35 H30 0.930 . S
C35 C38 1.404 . S
C35 C39 1.353 . S
N36 Co1 2.145 . S
N36 C37 1.397 . S
N36 C38 1.334 . S
C37 H18 0.929 . S
C37 C34 1.388 . S
C37 N36 1.397 . S
C38 H19 0.929 1_554 S
C38 C35 1.404 . S
C38 N36 1.334 . S
C39 H31 0.930 . S
C39 C34 1.418 . S
C39 C35 1.353 . S
C40 H10 0.930 . S
C40 N41 1.330 . S
C40 C42 1.446 . S
N41 Co0 2.151 . S
N41 C40 1.330 . S
N41 C45 1.418 . S
C42 H21 0.929 . S
C42 C40 1.446 . S
C42 C43 1.332 . S
C43 H23 0.931 . S
C43 C42 1.332 . S
C43 C44 1.267 . S
C44 H12 0.929 . S
C44 C43 1.267 . S
C44 C45 1.251 . S
C45 H15 0.929 . S
C45 N41 1.418 . S
C45 C44 1.251 . S
C46 H13 0.930 . S
C46 C48 1.406 . S
C46 C51 1.261 . S
C47 H14 0.930 . S
C47 N49 1.324 1_554 S
C47 C50 1.357 . S
C48 H16 0.928 . S
C48 C46 1.406 . S
C48 N49 1.263 . S
N49 Co0 2.214 . S
N49 C47 1.324 1_556 S
N49 C48 1.263 . S
C50 H20 0.931 . S
C50 C47 1.357 . S
C50 C51 1.312 1_554 S
C51 H22 0.930 . S
C51 C46 1.261 . S
C51 C50 1.312 1_556 S
C52 O24 1.214 . S
C52 O32 1.234 1_455 S
C53 H25 0.929 . S
C53 C56 1.391 . S
C53 C58 1.391 . S
C54 H26 0.929 . S
C54 C55 1.390 . S
C54 N57 1.391 . S
C55 H27 0.930 . S
C55 C54 1.390 . S
C55 C56 1.392 . S
C56 H28 0.929 . S
C56 C53 1.391 . S
C56 C55 1.392 . S
N57 Co1 2.257 . S
N57 C54 1.391 . S
N57 C58 1.388 . S
C58 H29 0.930 . S
C58 C53 1.391 . S
C58 N57 1.388 . S
Co59 O61 2.143 1_565 S
Co59 O67 2.074 . S
Co59 O70 2.093 . S
Co59 O83 2.097 . S
Co59 N100 2.151 . S
Co59 N108 2.214 . S
Co60 O61 2.160 . S
Co60 O66 2.058 . S
Co60 O76 2.057 . S
Co60 O91 2.037 . S
Co60 N95 2.145 . S
Co60 N116 2.257 . S
O61 Co59 2.143 1_545 S
O61 Co60 2.160 . S
C62 O63 1.278 . S
C62 O70 1.224 . S
O63 C62 1.278 . S
C64 O65 1.245 . S
C64 O76 1.232 . S
O65 C64 1.245 . S
O66 Co60 2.058 . S
O66 C92 1.269 . S
O67 Co59 2.074 . S
O67 C92 1.257 1_565 S
H68 C93 0.930 . S
H69 C99 0.930 . S
O70 Co59 2.093 . S
O70 C62 1.224 . S
H71 C103 0.929 . S
H72 C105 0.930 . S
H73 C106 0.930 . S
H74 C104 0.929 . S
H75 C107 0.928 . S
O76 Co60 2.057 . S
O76 C64 1.232 . S
H77 C96 0.929 . S
H78 C97 0.929 . S
H79 C109 0.931 . S
H80 C101 0.929 . S
H81 C110 0.930 . S
H82 C102 0.931 . S
O83 Co59 2.097 . S
O83 C111 1.214 1_565 S
H84 C112 0.929 . S
H85 C113 0.929 . S
H86 C114 0.930 . S
H87 C115 0.929 . S
H88 C117 0.930 . S
H89 C94 0.930 . S
H90 C98 0.930 . S
O91 Co60 2.037 . S
O91 C111 1.234 . S
C92 O66 1.269 . S
C92 O67 1.257 1_545 S
C93 H68 0.930 . S
C93 C96 1.388 . S
C93 C98 1.418 . S
C94 H89 0.930 . S
C94 C97 1.404 . S
C94 C98 1.353 . S
N95 Co60 2.145 . S
N95 C96 1.397 . S
N95 C97 1.334 . S
C96 H77 0.929 . S
C96 C93 1.388 . S
C96 N95 1.397 . S
C97 H78 0.929 . S
C97 C94 1.404 . S
C97 N95 1.334 . S
C98 H90 0.930 . S
C98 C93 1.418 . S
C98 C94 1.353 . S
C99 H69 0.930 . S
C99 N100 1.330 . S
C99 C101 1.446 . S
N100 Co59 2.151 . S
N100 C99 1.330 . S
N100 C104 1.418 . S
C101 H80 0.929 . S
C101 C99 1.446 . S
C101 C102 1.332 . S
C102 H82 0.931 . S
C102 C101 1.332 . S
C102 C103 1.267 . S
C103 H71 0.929 . S
C103 C102 1.267 . S
C103 C104 1.251 . S
C104 H74 0.929 . S
C104 N100 1.418 . S
C104 C103 1.251 . S
C105 H72 0.930 . S
C105 C107 1.406 . S
C105 C110 1.261 . S
C106 H73 0.930 . S
C106 N108 1.325 . S
C106 C109 1.357 . S
C107 H75 0.928 . S
C107 C105 1.406 . S
C107 N108 1.261 . S
N108 Co59 2.214 . S
N108 C106 1.325 . S
N108 C107 1.261 . S
C109 H79 0.931 . S
C109 C106 1.357 . S
C109 C110 1.312 . S
C110 H81 0.930 . S
C110 C105 1.261 . S
C110 C109 1.312 . S
C111 O83 1.214 1_545 S
C111 O91 1.234 . S
C112 H84 0.929 . S
C112 C115 1.391 . S
C112 C117 1.391 . S
C113 H85 0.929 . S
C113 C114 1.390 . S
C113 N116 1.391 . S
C114 H86 0.930 . S
C114 C113 1.390 . S
C114 C115 1.392 . S
C115 H87 0.929 . S
C115 C112 1.391 . S
C115 C114 1.392 . S
N116 Co60 2.257 . S
N116 C113 1.391 . S
N116 C117 1.388 . S
C117 H88 0.930 . S
C117 C112 1.391 . S
C117 N116 1.388 . S
Co118 O120 2.143 1_655 S
Co118 O126 2.074 . S
Co118 O129 2.093 . S
Co118 O142 2.097 . S
Co118 N159 2.151 . S
Co118 N167 2.214 . S
Co119 O120 2.160 . S
Co119 O125 2.058 . S
Co119 O135 2.057 . S
Co119 O150 2.037 . S
Co119 N154 2.145 . S
Co119 N175 2.257 . S
O120 Co118 2.143 1_455 S
O120 Co119 2.160 . S
C121 O122 1.278 . S
C121 O129 1.224 . S
O122 C121 1.278 . S
C123 O124 1.245 . S
C123 O135 1.232 . S
O124 C123 1.245 . S
O125 Co119 2.058 . S
O125 C151 1.269 . S
O126 Co118 2.074 . S
O126 C151 1.257 1_655 S
H127 C152 0.930 . S
H128 C158 0.930 . S
O129 Co118 2.093 . S
O129 C121 1.224 . S
H130 C162 0.929 . S
H131 C164 0.930 . S
H132 C165 0.930 . S
H133 C163 0.929 . S
H134 C166 0.928 . S
O135 Co119 2.057 . S
O135 C123 1.232 . S
H136 C155 0.929 . S
H137 C156 0.929 . S
H138 C168 0.931 . S
H139 C160 0.929 . S
H140 C169 0.930 . S
H141 C161 0.931 . S
O142 Co118 2.097 . S
O142 C170 1.214 1_655 S
H143 C171 0.929 . S
H144 C172 0.929 . S
H145 C173 0.930 . S
H146 C174 0.929 . S
H147 C176 0.930 . S
H148 C153 0.930 . S
H149 C157 0.930 . S
O150 Co119 2.037 . S
O150 C170 1.234 . S
C151 O125 1.269 . S
C151 O126 1.257 1_455 S
C152 H127 0.930 . S
C152 C155 1.388 . S
C152 C157 1.418 . S
C153 H148 0.930 . S
C153 C156 1.404 . S
C153 C157 1.353 . S
N154 Co119 2.145 . S
N154 C155 1.397 . S
N154 C156 1.334 . S
C155 H136 0.929 . S
C155 C152 1.388 . S
C155 N154 1.397 . S
C156 H137 0.929 . S
C156 C153 1.404 . S
C156 N154 1.334 . S
C157 H149 0.930 . S
C157 C152 1.418 . S
C157 C153 1.353 . S
C158 H128 0.930 . S
C158 N159 1.330 . S
C158 C160 1.446 . S
N159 Co118 2.151 . S
N159 C158 1.330 . S
N159 C163 1.418 . S
C160 H139 0.929 . S
C160 C158 1.446 . S
C160 C161 1.332 . S
C161 H141 0.931 . S
C161 C160 1.332 . S
C161 C162 1.267 . S
C162 H130 0.929 . S
C162 C161 1.267 . S
C162 C163 1.251 . S
C163 H133 0.929 . S
C163 N159 1.418 . S
C163 C162 1.251 . S
C164 H131 0.930 . S
C164 C166 1.406 . S
C164 C169 1.261 . S
C165 H132 0.930 . S
C165 N167 1.325 . S
C165 C168 1.357 . S
C166 H134 0.928 . S
C166 C164 1.406 . S
C166 N167 1.261 . S
N167 Co118 2.214 . S
N167 C165 1.325 . S
N167 C166 1.261 . S
C168 H138 0.931 . S
C168 C165 1.357 . S
C168 C169 1.312 . S
C169 H140 0.930 . S
C169 C164 1.261 . S
C169 C168 1.312 . S
C170 O142 1.214 1_455 S
C170 O150 1.234 . S
C171 H143 0.929 . S
C171 C174 1.391 . S
C171 C176 1.391 . S
C172 H144 0.929 . S
C172 C173 1.390 . S
C172 N175 1.391 . S
C173 H145 0.930 . S
C173 C172 1.390 . S
C173 C174 1.392 . S
C174 H146 0.929 . S
C174 C171 1.391 . S
C174 C173 1.392 . S
N175 Co119 2.257 . S
N175 C172 1.391 . S
N175 C176 1.388 . S
C176 H147 0.930 . S
C176 C171 1.391 . S
C176 N175 1.388 . S
Co177 O179 2.143 . S
Co177 O185 2.074 . S
Co177 O188 2.093 . S
Co177 O201 2.097 . S
Co177 N218 2.151 . S
Co177 N226 2.214 . S
Co178 O179 2.160 1_565 S
Co178 O184 2.058 . S
Co178 O194 2.057 . S
Co178 O209 2.037 . S
Co178 N213 2.145 . S
Co178 N234 2.257 . S
O179 Co177 2.143 . S
O179 Co178 2.160 1_545 S
C180 O181 1.278 . S
C180 O188 1.224 . S
O181 C180 1.278 . S
C182 O183 1.245 . S
C182 O194 1.232 . S
O183 C182 1.245 . S
O184 Co178 2.058 . S
O184 C210 1.269 1_565 S
O185 Co177 2.074 . S
O185 C210 1.257 . S
H186 C211 0.930 . S
H187 C217 0.930 . S
O188 Co177 2.093 . S
O188 C180 1.224 . S
H189 C221 0.929 . S
H190 C223 0.930 . S
H191 C224 0.930 . S
H192 C222 0.929 . S
H193 C225 0.928 . S
O194 Co178 2.057 . S
O194 C182 1.232 . S
H195 C214 0.929 . S
H196 C215 0.929 . S
H197 C227 0.931 . S
H198 C219 0.929 . S
H199 C228 0.930 . S
H200 C220 0.931 . S
O201 Co177 2.097 . S
O201 C229 1.214 . S
H202 C230 0.929 . S
H203 C231 0.929 . S
H204 C232 0.930 . S
H205 C233 0.929 . S
H206 C235 0.930 . S
H207 C212 0.930 . S
H208 C216 0.930 . S
O209 Co178 2.037 . S
O209 C229 1.234 1_565 S
C210 O184 1.269 1_545 S
C210 O185 1.257 . S
C211 H186 0.930 . S
C211 C214 1.388 . S
C211 C216 1.418 . S
C212 H207 0.930 . S
C212 C215 1.404 . S
C212 C216 1.353 . S
N213 Co178 2.145 . S
N213 C214 1.397 . S
N213 C215 1.334 . S
C214 H195 0.929 . S
C214 C211 1.388 . S
C214 N213 1.397 . S
C215 H196 0.929 . S
C215 C212 1.404 . S
C215 N213 1.334 . S
C216 H208 0.930 . S
C216 C211 1.418 . S
C216 C212 1.353 . S
C217 H187 0.930 . S
C217 N218 1.330 . S
C217 C219 1.446 . S
N218 Co177 2.151 . S
N218 C217 1.330 . S
N218 C222 1.418 . S
C219 H198 0.929 . S
C219 C217 1.446 . S
C219 C220 1.332 . S
C220 H200 0.931 . S
C220 C219 1.332 . S
C220 C221 1.267 . S
C221 H189 0.929 . S
C221 C220 1.267 . S
C221 C222 1.251 . S
C222 H192 0.929 . S
C222 N218 1.418 . S
C222 C221 1.251 . S
C223 H190 0.930 . S
C223 C225 1.406 . S
C223 C228 1.261 . S
C224 H191 0.930 . S
C224 N226 1.325 . S
C224 C227 1.357 . S
C225 H193 0.928 . S
C225 C223 1.406 . S
C225 N226 1.261 . S
N226 Co177 2.214 . S
N226 C224 1.325 . S
N226 C225 1.261 . S
C227 H197 0.931 . S
C227 C224 1.357 . S
C227 C228 1.312 . S
C228 H199 0.930 . S
C228 C223 1.261 . S
C228 C227 1.312 . S
C229 O201 1.214 . S
C229 O209 1.234 1_545 S
C230 H202 0.929 . S
C230 C233 1.391 . S
C230 C235 1.391 . S
C231 H203 0.929 . S
C231 C232 1.390 . S
C231 N234 1.391 . S
C232 H204 0.930 . S
C232 C231 1.390 . S
C232 C233 1.392 . S
C233 H205 0.929 . S
C233 C230 1.391 . S
C233 C232 1.392 . S
N234 Co178 2.257 . S
N234 C231 1.391 . S
N234 C235 1.388 . S
C235 H206 0.930 . S
C235 C230 1.391 . S
C235 N234 1.388 . S
H236 C244 0.950 . S
H237 C249 0.950 . S
H238 C246 0.950 . S
H239 C248 0.950 . S
H240 C250 0.950 . S
H241 C252 0.950 . S
H242 C254 0.950 . S
H243 C255 0.950 . S
C244 H236 0.950 . S
C244 C245 1.386 . S
C244 C246 1.391 . S
C245 C244 1.386 . S
C245 C249 1.393 1_455 S
C246 H238 0.950 . S
C246 C244 1.391 . S
C246 C247 1.400 . S
C247 C246 1.400 . S
C247 C248 1.398 1_455 S
C247 C253 1.491 . S
C248 H239 0.950 . S
C248 C247 1.398 1_655 S
C248 C249 1.391 . S
C249 H237 0.950 . S
C249 C245 1.393 1_655 S
C249 C248 1.391 . S
C250 H240 0.950 . S
C250 C251 1.386 1_655 S
C250 C252 1.391 . S
C251 C250 1.386 1_455 S
C251 C255 1.393 . S
C252 H241 0.950 . S
C252 C250 1.391 . S
C252 C253 1.400 1_655 S
C253 C247 1.491 . S
C253 C252 1.400 1_455 S
C253 C254 1.398 . S
C254 H242 0.950 . S
C254 C253 1.398 . S
C254 C255 1.391 . S
C255 H243 0.950 . S
C255 C251 1.393 . S
C255 C254 1.391 . S
H256 C264 0.950 . S
H257 C269 0.950 . S
H258 C266 0.950 . S
H259 C268 0.950 . S
H260 C270 0.950 . S
H261 C272 0.950 . S
H262 C274 0.950 . S
H263 C275 0.950 . S
C264 H256 0.950 . S
C264 C265 1.386 . S
C264 C266 1.391 . S
C265 C264 1.386 . S
C265 C269 1.393 1_545 S
C266 H258 0.950 . S
C266 C264 1.391 . S
C266 C267 1.400 . S
C267 C266 1.400 . S
C267 C268 1.398 1_545 S
C267 C273 1.491 . S
C268 H259 0.950 . S
C268 C267 1.398 1_565 S
C268 C269 1.391 . S
C269 H257 0.950 . S
C269 C265 1.393 1_565 S
C269 C268 1.391 . S
C270 H260 0.950 . S
C270 C271 1.386 1_565 S
C270 C272 1.391 . S
C271 C270 1.386 1_545 S
C271 C275 1.393 . S
C272 H261 0.950 . S
C272 C270 1.391 . S
C272 C273 1.400 1_565 S
C273 C267 1.491 . S
C273 C272 1.400 1_545 S
C273 C274 1.398 . S
C274 H262 0.950 . S
C274 C273 1.398 . S
C274 C275 1.391 . S
C275 H263 0.950 . S
C275 C271 1.393 . S
C275 C274 1.391 . S
H276 C284 0.950 . S
H277 C289 0.950 . S
H278 C286 0.950 . S
H279 C288 0.950 . S
H280 C290 0.950 . S
H281 C292 0.950 . S
H282 C294 0.950 . S
H283 C295 0.950 . S
C284 H276 0.950 . S
C284 C285 1.405 . S
C284 C286 1.391 . S
C285 C284 1.405 . S
C285 C289 1.374 1_455 S
C286 H278 0.950 . S
C286 C284 1.391 . S
C286 C287 1.420 . S
C287 C286 1.420 . S
C287 C288 1.379 1_455 S
C287 C293 1.491 . S
C288 H279 0.950 . S
C288 C287 1.379 1_655 S
C288 C289 1.391 . S
C289 H277 0.950 . S
C289 C285 1.374 1_655 S
C289 C288 1.391 . S
C290 H280 0.950 . S
C290 C291 1.371 1_655 S
C290 C292 1.391 . S
C291 C290 1.371 1_455 S
C291 C295 1.407 . S
C292 H281 0.950 . S
C292 C290 1.391 . S
C292 C293 1.386 1_655 S
C293 C287 1.491 . S
C293 C292 1.386 1_455 S
C293 C294 1.412 . S
C294 H282 0.950 . S
C294 C293 1.412 . S
C294 C295 1.391 . S
C295 H283 0.950 . S
C295 C291 1.407 . S
C295 C294 1.391 . S
H296 C304 0.950 . S
H297 C309 0.950 . S
H298 C306 0.950 . S
H299 C308 0.950 1_556 S
H300 C310 0.950 . S
H301 C312 0.950 . S
H302 C314 0.950 1_554 S
H303 C315 0.950 . S
C304 H296 0.950 . S
C304 C305 1.388 . S
C304 C306 1.391 . S
C305 C304 1.388 . S
C305 C309 1.391 1_565 S
C306 H298 0.950 . S
C306 C304 1.391 . S
C306 C307 1.398 1_565 S
C307 C306 1.398 1_545 S
C307 C308 1.400 . S
C307 C313 1.491 1_554 S
C308 H299 0.950 1_554 S
C308 C307 1.400 . S
C308 C309 1.391 . S
C309 H297 0.950 . S
C309 C305 1.391 1_545 S
C309 C308 1.391 . S
C310 H300 0.950 . S
C310 C311 1.386 . S
C310 C312 1.391 . S
C311 C310 1.386 . S
C311 C315 1.393 1_545 S
C312 H301 0.950 . S
C312 C310 1.391 . S
C312 C313 1.400 . S
C313 C307 1.491 1_556 S
C313 C312 1.400 . S
C313 C314 1.398 1_545 S
C314 H302 0.950 1_556 S
C314 C313 1.398 1_565 S
C314 C315 1.391 . S
C315 H303 0.950 . S
C315 C311 1.393 1_565 S
C315 C314 1.391 . S
H316 C324 0.950 . S
H317 C329 0.950 . S
H318 C326 0.950 . S
H319 C328 0.950 . S
H320 C330 0.950 . S
H321 C332 0.950 . S
H322 C334 0.950 . S
H323 C335 0.950 . S
C324 H316 0.950 . S
C324 C325 1.386 . S
C324 C326 1.391 . S
C325 C324 1.386 . S
C325 C329 1.393 . S
C326 H318 0.950 . S
C326 C324 1.391 . S
C326 C327 1.400 . S
C327 C326 1.400 . S
C327 C328 1.398 . S
C327 C333 1.491 . S
C328 H319 0.950 . S
C328 C327 1.398 . S
C328 C329 1.391 . S
C329 H317 0.950 . S
C329 C325 1.393 . S
C329 C328 1.391 . S
C330 H320 0.950 . S
C330 C331 1.386 . S
C330 C332 1.391 . S
C331 C330 1.386 . S
C331 C335 1.393 . S
C332 H321 0.950 . S
C332 C330 1.391 . S
C332 C333 1.400 . S
C333 C327 1.491 . S
C333 C332 1.400 . S
C333 C334 1.398 . S
C334 H322 0.950 . S
C334 C333 1.398 . S
C334 C335 1.391 . S
C335 H323 0.950 . S
C335 C331 1.393 . S
C335 C334 1.391 . S
H336 C344 0.950 . S
H337 C349 0.950 . S
H338 C346 0.950 . S
H339 C348 0.950 . S
H340 C350 0.950 . S
H341 C352 0.950 . S
H342 C354 0.950 . S
H343 C355 0.950 . S
C344 H336 0.950 . S
C344 C345 1.386 . S
C344 C346 1.391 . S
C345 C344 1.386 . S
C345 C349 1.393 . S
C346 H338 0.950 . S
C346 C344 1.391 . S
C346 C347 1.400 . S
C347 C346 1.400 . S
C347 C348 1.398 . S
C347 C353 1.491 . S
C348 H339 0.950 . S
C348 C347 1.398 . S
C348 C349 1.391 . S
C349 H337 0.950 . S
C349 C345 1.393 . S
C349 C348 1.391 . S
C350 H340 0.950 . S
C350 C351 1.386 . S
C350 C352 1.391 . S
C351 C350 1.386 . S
C351 C355 1.393 . S
C352 H341 0.950 . S
C352 C350 1.391 . S
C352 C353 1.400 . S
C353 C347 1.491 . S
C353 C352 1.400 . S
C353 C354 1.398 . S
C354 H342 0.950 . S
C354 C353 1.398 . S
C354 C355 1.391 . S
C355 H343 0.950 . S
C355 C351 1.393 . S
C355 C354 1.391 . S
H356 C364 0.950 . S
H357 C369 0.950 . S
H358 C366 0.950 . S
H359 C368 0.950 . S
H360 C370 0.950 . S
H361 C372 0.950 . S
H362 C374 0.950 . S
H363 C375 0.950 . S
C364 H356 0.950 . S
C364 C365 1.386 . S
C364 C366 1.391 . S
C365 C364 1.386 . S
C365 C369 1.393 . S
C366 H358 0.950 . S
C366 C364 1.391 . S
C366 C367 1.400 . S
C367 C366 1.400 . S
C367 C368 1.398 . S
C367 C373 1.491 . S
C368 H359 0.950 . S
C368 C367 1.398 . S
C368 C369 1.391 . S
C369 H357 0.950 . S
C369 C365 1.393 . S
C369 C368 1.391 . S
C370 H360 0.950 . S
C370 C371 1.386 . S
C370 C372 1.391 . S
C371 C370 1.386 . S
C371 C375 1.393 . S
C372 H361 0.950 . S
C372 C370 1.391 . S
C372 C373 1.400 . S
C373 C367 1.491 . S
C373 C372 1.400 . S
C373 C374 1.398 . S
C374 H362 0.950 . S
C374 C373 1.398 . S
C374 C375 1.391 . S
C375 H363 0.950 . S
C375 C371 1.393 . S
C375 C374 1.391 . S
H376 C384 0.950 . S
H377 C389 0.950 . S
H378 C386 0.950 . S
H379 C388 0.950 . S
H380 C390 0.950 . S
H381 C392 0.950 . S
H382 C394 0.950 . S
H383 C395 0.950 . S
C384 H376 0.950 . S
C384 C385 1.386 . S
C384 C386 1.391 . S
C385 C384 1.386 . S
C385 C389 1.393 . S
C386 H378 0.950 . S
C386 C384 1.391 . S
C386 C387 1.400 . S
C387 C386 1.400 . S
C387 C388 1.398 . S
C387 C393 1.491 . S
C388 H379 0.950 . S
C388 C387 1.398 . S
C388 C389 1.391 . S
C389 H377 0.950 . S
C389 C385 1.393 . S
C389 C388 1.391 . S
C390 H380 0.950 . S
C390 C391 1.386 . S
C390 C392 1.391 . S
C391 C390 1.386 . S
C391 C395 1.393 . S
C392 H381 0.950 . S
C392 C390 1.391 . S
C392 C393 1.400 . S
C393 C387 1.491 . S
C393 C392 1.400 . S
C393 C394 1.398 . S
C394 H382 0.950 . S
C394 C393 1.398 . S
C394 C395 1.391 . S
C395 H383 0.950 . S
C395 C391 1.393 . S
C395 C394 1.391 . S
C245 C52 1.657 . S
C251 C151 1.662 . S
C265 C92 1.663 . S
C271 C229 1.656 . S
C285 C33 1.664 . S
C291 C170 1.663 . S
C305 C111 1.658 1_565 S
C311 C210 1.662 . S
C325 C62 1.493 . S
C331 C3 1.487 . S
C345 C64 1.493 . S
C351 C123 1.493 . S
C365 C180 1.488 . S
C371 C121 1.490 . S
C385 C182 1.493 . S
C391 C5 1.493 . S
