# Generated by pormake.
# Topology uom, (4)-cn, num edge types: 1
# Building blocks:
#     Node 0, Type 0, BuildingBlock: NAWXER_clean_sbu_0, # of connection points: 4
#     Node 1, Type 0, BuildingBlock: NAWXER_clean_sbu_0, # of connection points: 4
#     Node 2, Type 0, BuildingBlock: NAWXER_clean_sbu_0, # of connection points: 4
#     Node 3, Type 0, BuildingBlock: NAWXER_clean_sbu_0, # of connection points: 4
#     Node 4, Type 0, BuildingBlock: NAWXER_clean_sbu_0, # of connection points: 4
#     Node 5, Type 0, BuildingBlock: NAWXER_clean_sbu_0, # of connection points: 4
#     Edge 6, Type (0, 0), BuildingBlock: TEMPAE_clean_linker_10, # of connection points: 2
#     Edge 7, Type (0, 0), BuildingBlock: TEMPAE_clean_linker_10, # of connection points: 2
#     Edge 8, Type (0, 0), BuildingBlock: TEMPAE_clean_linker_10, # of connection points: 2
#     Edge 9, Type (0, 0), BuildingBlock: TEMPAE_clean_linker_10, # of connection points: 2
#     Edge 10, Type (0, 0), BuildingBlock: TEMPAE_clean_linker_10, # of connection points: 2
#     Edge 11, Type (0, 0), BuildingBlock: TEMPAE_clean_linker_10, # of connection points: 2
#     Edge 12, Type (0, 0), BuildingBlock: TEMPAE_clean_linker_10, # of connection points: 2
#     Edge 13, Type (0, 0), BuildingBlock: TEMPAE_clean_linker_10, # of connection points: 2
#     Edge 14, Type (0, 0), BuildingBlock: TEMPAE_clean_linker_10, # of connection points: 2
#     Edge 15, Type (0, 0), BuildingBlock: TEMPAE_clean_linker_10, # of connection points: 2
#     Edge 16, Type (0, 0), BuildingBlock: TEMPAE_clean_linker_10, # of connection points: 2
#     Edge 17, Type (0, 0), BuildingBlock: TEMPAE_clean_linker_10, # of connection points: 2
# Relax obj value: 0.104
# Max RMSD: 0.115
# Mean RMSD: 0.115
data_MOF--net-uom--node1-NAWXER_clean_sbu_0--edge1-TEMPAE_clean_linker_10
_symmetry_space_group_name_H-M    P1
_symmetry_Int_Tables_number       1
_symmetry_cell_setting            triclinic
loop_
_symmetry_equiv_pos_as_xyz
'x, y, z'
_cell_length_a     29.400616
_cell_length_b     29.423267
_cell_length_c     38.451194
_cell_angle_alpha  90.048658
_cell_angle_beta   90.432852
_cell_angle_gamma 119.83677
loop_
_atom_site_label
_atom_site_type_symbol
_atom_site_fract_x
_atom_site_fract_y
_atom_site_fract_z
_atom_type_partial_charge
C0 C 0.20813 0.9118 1.00852 0.0
C1 C 0.28156 0.00377 0.12131 0.0
O2 O 0.23469 0.96185 1.00675 0.0
Zn3 Zn 0.27976 0.0283 0.03959 0.0
O4 O 0.2066 0.88988 0.03741 0.0
Zn5 Zn 0.24791 0.95443 0.06563 0.0
O6 O 0.19823 0.98768 0.06169 0.0
O7 O 0.23984 0.06351 0.03432 0.0
O8 O 0.25534 0.95429 0.1167 0.0
O9 O 0.29295 0.03394 0.09487 0.0
O10 O 0.34905 0.06021 1.02079 0.0
O11 O 0.32703 0.98625 0.04817 0.0
C12 C 0.19894 0.0284 0.04929 0.0
C13 C 0.36096 0.02662 1.03151 0.0
C14 C 0.38055 0.36319 0.36643 0.0
C15 C 0.21422 0.20488 0.38481 0.0
O16 O 0.38592 0.3284 0.38318 0.0
Zn17 Zn 0.33676 0.24955 0.40074 0.0
O18 O 0.33537 0.35281 0.35583 0.0
Zn19 Zn 0.29641 0.28375 0.37487 0.0
O20 O 0.30499 0.29666 0.43019 0.0
O21 O 0.3452 0.25648 0.45175 0.0
O22 O 0.22131 0.2464 0.36977 0.0
O23 O 0.25348 0.20231 0.39712 0.0
O24 O 0.35767 0.20651 0.37253 0.0
O25 O 0.3148 0.23658 0.34203 0.0
C26 C 0.32337 0.28409 0.45652 0.0
C27 C 0.33694 0.20857 0.34378 0.0
C28 C 0.17723 0.33876 0.67943 0.0
C29 C 0.08842 0.32285 0.79227 0.0
O30 O 0.12711 0.31595 0.67782 0.0
Zn31 Zn 0.06162 0.29581 0.71074 0.0
O32 O 0.20015 0.35932 0.7082 0.0
Zn33 Zn 0.13631 0.33715 0.7365 0.0
O34 O 0.10245 0.25424 0.73248 0.0
O35 O 0.02568 0.22094 0.70556 0.0
O36 O 0.13778 0.34526 0.78757 0.0
O37 O 0.0575 0.30414 0.76592 0.0
O38 O 0.02984 0.33348 0.69161 0.0
O39 O 0.10486 0.38509 0.71857 0.0
C40 C 0.06116 0.21465 0.72011 0.0
C41 C 0.06417 0.37891 0.70186 0.0
C42 C 0.72598 0.08254 1.03338 0.0
C43 C 0.87258 0.05446 0.05354 0.0
O44 O 0.7624 0.12009 0.05123 0.0
Zn45 Zn 0.8396 0.14139 0.06993 0.0
O46 O 0.73243 0.04536 1.02268 0.0
Zn47 Zn 0.79989 0.0682 0.04292 0.0
O48 O 0.78692 0.06299 0.09823 0.0
O49 O 0.83293 0.14221 0.12084 0.0
O50 O 0.83022 0.02412 0.03731 0.0
O51 O 0.8798 0.09773 0.06649 0.0
O52 O 0.88779 0.20461 0.04294 0.0
O53 O 0.85229 0.13256 1.01135 0.0
C54 C 0.80206 0.09326 0.12498 0.0
C55 C 0.88404 0.18191 1.01395 0.0
C56 C 0.86163 0.87941 0.38498 0.0
C57 C 0.68957 0.72806 0.36628 0.0
O58 O 0.82458 0.88488 0.39787 0.0
Zn59 Zn 0.74108 0.84218 0.40167 0.0
O60 O 0.85119 0.83737 0.36901 0.0
Zn61 Zn 0.77651 0.80425 0.37478 0.0
O62 O 0.76088 0.85434 0.34285 0.0
O63 O 0.72307 0.8884 0.37433 0.0
O64 O 0.73346 0.73588 0.35527 0.0
O65 O 0.68732 0.7641 0.38373 0.0
O66 O 0.73475 0.83582 0.45266 0.0
O67 O 0.77003 0.79171 0.43014 0.0
C68 C 0.74163 0.88483 0.34526 0.0
C69 C 0.75443 0.80613 0.45686 0.0
C70 C 0.00843 0.68837 0.69714 0.0
C71 C 0.03498 0.86254 0.7155 0.0
O72 O 0.97117 0.68749 0.71486 0.0
Zn73 Zn 0.94931 0.74313 0.73263 0.0
O74 O 0.04479 0.73162 0.68573 0.0
Zn75 Zn 0.02169 0.77636 0.70523 0.0
O76 O 0.02877 0.77026 0.76073 0.0
O77 O 0.95006 0.73696 0.78356 0.0
O78 O 0.06496 0.85063 0.69898 0.0
O79 O -0.00772 0.82659 0.7287 0.0
O80 O 0.88507 0.72705 0.70576 0.0
O81 O 0.95598 0.76297 0.67371 0.0
C82 C -0.00071 0.75564 0.7876 0.0
C83 C 0.90659 0.74512 0.67653 0.0
C84 C 0.33776 0.07991 0.16035 0.0
C85 C 0.29675 0.02794 0.15669 0.0
C86 C 0.34872 0.10659 0.1924 0.0
C87 C 0.31745 0.08122 0.22171 0.0
C88 C 0.27755 0.0279 0.21864 0.0
C89 C 0.26794 0.00178 0.18626 0.0
C90 C 0.39209 0.16303 0.19433 0.0
C91 C 0.24287 -0.00065 0.249 0.0
C92 C 0.36124 0.14862 0.31107 0.0
C93 C 0.33357 0.17607 0.31285 0.0
C94 C 0.35628 0.11722 0.2818 0.0
C95 C 0.32229 0.11249 0.25385 0.0
C96 C 0.2939 0.13963 0.25583 0.0
C97 C 0.30012 0.1711 0.28497 0.0
C98 C 0.38775 0.08951 0.28059 0.0
C99 C 0.25686 0.13565 0.22699 0.0
H100 H 0.36064 0.1004 0.13778 0.0
H101 H 0.23607 0.96175 0.18372 0.0
H102 H 0.37484 0.18887 0.19708 0.0
H103 H 0.4174 0.16953 0.21748 0.0
H104 H 0.41695 0.17503 0.17076 0.0
H105 H 0.21796 0.9567 0.24381 0.0
H106 H 0.26685 0.00496 0.27272 0.0
H107 H 0.21692 0.0158 0.25456 0.0
H108 H 0.38701 0.15192 0.33242 0.0
H109 H 0.27797 0.19149 0.28599 0.0
H110 H 0.41432 0.10338 0.25791 0.0
H111 H 0.36121 0.04676 0.27709 0.0
H112 H 0.41163 0.0962 0.30457 0.0
H113 H 0.27894 0.15153 0.20255 0.0
H114 H 0.23597 0.15738 0.23311 0.0
H115 H 0.22729 0.09398 0.22206 0.0
C116 C 0.30621 0.34163 0.49596 0.0
C117 C 0.31538 0.29939 0.492 0.0
C118 C 0.29122 0.35278 0.52809 0.0
C119 C 0.28418 0.32042 0.55715 0.0
C120 C 0.29589 0.27926 0.5538 0.0
C121 C 0.31174 0.26949 0.52137 0.0
C122 C 0.28002 0.39751 0.53034 0.0
C123 C 0.28848 0.2434 0.58388 0.0
C124 C 0.26122 0.36264 0.64695 0.0
C125 C 0.20619 0.33618 0.64833 0.0
C126 C 0.28742 0.35789 0.61763 0.0
C127 C 0.258 0.3254 0.5892 0.0
C128 C 0.20256 0.29842 0.5907 0.0
C129 C 0.17758 0.30437 0.61991 0.0
C130 C 0.34653 0.38782 0.61694 0.0
C131 C 0.16932 0.26304 0.56131 0.0
H132 H 0.30939 0.36534 0.47355 0.0
H133 H 0.31851 0.23667 0.51859 0.0
H134 H 0.23715 0.38166 0.53266 0.0
H135 H 0.29896 0.42176 0.55382 0.0
H136 H 0.29393 0.42308 0.50707 0.0
H137 H 0.30513 0.21751 0.57856 0.0
H138 H 0.30708 0.26647 0.60783 0.0
H139 H 0.24598 0.21844 0.58909 0.0
H140 H 0.2838 0.38712 0.66871 0.0
H141 H 0.1351 0.28322 0.62055 0.0
H142 H 0.36011 0.41475 0.59438 0.0
H143 H 0.36168 0.36031 0.61358 0.0
H144 H 0.36383 0.41109 0.64108 0.0
H145 H 0.17659 0.28612 0.53713 0.0
H146 H 0.12672 0.24331 0.56699 0.0
H147 H 0.18018 0.23256 0.55616 0.0
C148 C 0.94714 0.26478 0.98168 0.0
C149 C 0.91817 0.20987 0.98367 0.0
C150 C 0.979 0.29002 0.9526 0.0
C151 C 0.98265 0.25973 0.92512 0.0
C152 C 0.95437 0.2044 0.9275 0.0
C153 C 0.92246 0.18037 0.95641 0.0
C154 C 0.00801 0.34904 0.95098 0.0
C155 C 0.95728 0.17026 0.89921 0.0
C156 C 0.01362 0.30533 0.83125 0.0
C157 C 0.0652 0.315 0.82767 0.0
C158 C 0.98769 0.29084 0.86336 0.0
C159 C 0.01343 0.28487 0.89283 0.0
C160 C 0.06641 0.29696 0.88982 0.0
C161 C 0.09179 0.31226 0.85736 0.0
C162 C 0.9316 0.27914 0.86521 0.0
C163 C 0.0953 0.29071 0.92037 0.0
H164 H 0.94436 0.28799 1.00257 0.0
H165 H 0.90099 0.13796 0.95769 0.0
H166 H 0.05046 0.36401 0.94703 0.0
H167 H -0.00638 0.36193 0.92839 0.0
H168 H 0.00298 0.36711 0.97496 0.0
H169 H 0.93518 0.12796 0.90582 0.0
H170 H 0.94106 0.17611 0.87456 0.0
H171 H -0.00127 0.18151 0.89444 0.0
H172 H -0.00718 0.30783 0.80859 0.0
H173 H 0.13153 0.31943 0.85488 0.0
H174 H 0.92622 0.29899 0.88805 0.0
H175 H 0.90518 0.23638 0.86847 0.0
H176 H 0.91932 0.29172 0.84139 0.0
H177 H 0.09059 0.30975 0.9439 0.0
H178 H 0.1378 0.30759 0.91519 0.0
H179 H 0.07839 0.24844 0.92623 0.0
C180 C 0.81786 0.09366 0.18969 0.0
C181 C 0.78643 0.06946 0.16024 0.0
C182 C 0.80765 0.06715 0.22178 0.0
C183 C 0.76452 0.01547 0.22473 0.0
C184 C 0.73077 -0.00761 0.19565 0.0
C185 C 0.74235 0.01936 0.16384 0.0
C186 C 0.84503 0.0932 0.25189 0.0
C187 C 0.68394 0.93784 0.1975 0.0
C188 C 0.7758 0.91969 0.28596 0.0
C189 C 0.74566 0.91805 0.31467 0.0
C190 C 0.78275 0.95174 0.25713 0.0
C191 C 0.75852 0.98298 0.25635 0.0
C192 C 0.72779 0.98155 0.28511 0.0
C193 C 0.722 0.9494 0.31402 0.0
C194 C 0.81623 0.95207 0.22739 0.0
C195 C 0.70079 0.01373 0.2852 0.0
H196 H 0.85212 0.1322 0.1872 0.0
H197 H 0.71749 0.00042 0.14137 0.0
H198 H 0.82312 0.08964 0.27604 0.0
H199 H 0.8681 0.07324 0.2565 0.0
H200 H 0.87271 0.13534 0.24697 0.0
H201 H 0.65785 0.92817 0.17435 0.0
H202 H 0.69754 0.90884 0.19921 0.0
H203 H 0.6608 0.93351 0.22117 0.0
H204 H 0.79481 0.8962 0.28607 0.0
H205 H 0.69882 0.94869 0.336 0.0
H206 H 0.84828 -0.00737 0.22253 0.0
H207 H 0.79221 0.93795 0.20325 0.0
H208 H 0.8339 0.92697 0.2325 0.0
H209 H 0.73008 0.05583 0.28209 0.0
H210 H 0.6787 0.00879 0.30953 0.0
H211 H 0.67318 0.00227 0.26279 0.0
C212 C 0.90512 0.78039 0.61751 0.0
C213 C 0.8771 0.74993 0.64618 0.0
C214 C 0.87962 0.78766 0.58881 0.0
C215 C 0.82423 0.76341 0.58812 0.0
C216 C 0.79543 0.73249 0.61689 0.0
C217 C 0.82218 0.7264 0.64567 0.0
C218 C 0.91223 0.82136 0.55905 0.0
C219 C 0.73636 0.70546 0.61707 0.0
C220 C 0.77098 0.82223 0.52147 0.0
C221 C 0.76359 0.79082 0.49211 0.0
C222 C 0.78809 0.81225 0.55353 0.0
C223 C 0.79725 0.76936 0.55651 0.0
C224 C 0.78649 0.73565 0.52752 0.0
C225 C 0.77033 0.74702 0.49575 0.0
C226 C 0.7995 0.84958 0.58354 0.0
C227 C 0.79482 0.68905 0.52942 0.0
H228 H 0.94755 0.79932 0.61755 0.0
H229 H 0.80008 0.70296 0.66763 0.0
H230 H 0.90239 0.79748 0.53493 0.0
H231 H 0.90324 0.85324 0.55416 0.0
H232 H 0.95499 0.83922 0.56416 0.0
H233 H 0.71963 0.68355 0.64153 0.0
H234 H 0.72326 0.73465 0.61375 0.0
H235 H 0.72013 0.6777 0.59483 0.0
H236 H 0.76617 0.85629 0.51894 0.0
H237 H 0.76429 0.72219 0.47333 0.0
H238 H 0.8425 0.87277 0.58802 0.0
H239 H 0.78169 0.82768 0.60777 0.0
H240 H 0.78465 0.87712 0.5786 0.0
H241 H 0.83743 0.70285 0.53111 0.0
H242 H 0.77841 0.66301 0.50631 0.0
H243 H 0.77644 0.66581 0.55312 0.0
C244 C 0.17366 0.90903 0.94829 0.0
C245 C 0.17642 0.88162 0.97745 0.0
C246 C 0.14208 0.88288 0.91925 0.0
C247 C 0.11249 0.82746 0.91871 0.0
C248 C 0.1154 0.79925 0.94779 0.0
C249 C 0.14704 0.82662 0.97689 0.0
C250 C 0.14022 0.91487 0.8891 0.0
C251 C 0.08506 0.74017 0.94813 0.0
C252 C 7e-05 0.77221 0.85212 0.0
C253 C 0.02422 0.76527 0.82283 0.0
C254 C 0.02729 0.78976 0.88414 0.0
C255 C 0.0797 0.7999 0.88717 0.0
C256 C 0.1029 0.78963 0.85827 0.0
C257 C 0.07516 0.77294 0.82653 0.0
C258 C 0.00107 0.8006 0.91405 0.0
C259 C 0.15824 0.79906 0.86023 0.0
H260 H 0.19573 0.95148 0.94825 0.0
H261 H 0.14863 0.80496 0.9992 0.0
H262 H 0.15441 0.90501 0.86517 0.0
H263 H 0.09919 0.90533 0.88406 0.0
H264 H 0.16451 0.9577 0.89389 0.0
H265 H 0.0918 0.72388 0.97242 0.0
H266 H 0.0425 0.72606 0.94539 0.0
H267 H 0.09648 0.72451 0.92563 0.0
H268 H 0.96088 0.76667 0.84957 0.0
H269 H 0.09411 0.76729 0.80418 0.0
H270 H 0.02015 0.84353 0.91846 0.0
H271 H 0.00571 0.78294 0.93833 0.0
H272 H 0.95862 0.78522 0.90904 0.0
H273 H 0.18624 0.8418 0.86158 0.0
H274 H 0.16811 0.78275 0.83729 0.0
H275 H 0.16399 0.78132 0.88413 0.0
C276 C 0.14627 0.0708 1.03312 0.0
C277 C 0.15082 0.03195 0.0512 0.0
C278 C 0.09917 0.07193 1.03345 0.0
C279 C 0.05611 0.03342 0.0524 0.0
C280 C 0.06063 -0.0056 0.07087 0.0
C281 C 0.10797 -0.00583 0.07007 0.0
C282 C 0.09541 0.11418 1.01355 0.0
C283 C 0.01552 0.95301 0.09155 0.0
C284 C 0.95515 0.0687 0.08081 0.0
C285 C 0.91583 0.04317 0.05552 0.0
C286 C 0.00062 0.06492 0.08047 0.0
C287 C 0.00686 0.03511 0.05406 0.0
C288 C 0.96648 0.00757 1.0292 0.0
C289 C 0.92105 0.01173 1.03034 0.0
C290 C 0.0426 0.09408 0.10774 0.0
C291 C 0.9721 0.97533 1.00076 0.0
H292 H 0.17918 0.09987 1.01838 0.0
H293 H 0.1112 0.96401 0.08419 0.0
H294 H 0.06265 0.09617 0.9944 0.0
H295 H 0.08669 0.13817 1.03166 0.0
H296 H 0.13213 0.1405 0.99952 0.0
H297 H 0.02531 0.92484 0.10399 0.0
H298 H 0.0042 0.97181 0.11215 0.0
H299 H 0.98076 0.93086 0.07439 0.0
H300 H 0.95088 0.09268 0.10051 0.0
H301 H 0.89077 -0.00771 1.01065 0.0
H302 H 0.07897 0.12425 0.09513 0.0
H303 H 0.05231 0.06676 0.12142 0.0
H304 H 0.0305 0.11367 0.12735 0.0
H305 H 0.00541 0.00114 0.9838 0.0
H306 H 0.93613 0.95453 0.9844 0.0
H307 H 0.98106 0.94601 1.01216 0.0
C308 C 0.92723 0.96383 0.41156 0.0
C309 C 0.91541 0.9239 0.38718 0.0
C310 C 0.97606 0.00956 0.41186 0.0
C311 C 0.01382 0.01549 0.38707 0.0
C312 C 0.00279 0.97478 0.36299 0.0
C313 C 0.95355 0.92911 0.36343 0.0
C314 C 0.98684 0.05192 0.43827 0.0
C315 C 0.04249 0.98005 0.33626 0.0
C316 C 0.11988 0.15402 0.3668 0.0
C317 C 0.16187 0.15794 0.3866 0.0
C318 C 0.07132 0.10753 0.36648 0.0
C319 C 0.06493 0.06446 0.38657 0.0
C320 C 0.1069 0.06852 0.40701 0.0
C321 C 0.15488 0.11524 0.40678 0.0
C322 C 0.02703 0.1043 0.34448 0.0
C323 C 0.1012 0.02346 0.42901 0.0
H324 H 0.8979 0.95969 0.43018 0.0
H325 H 0.94431 0.8984 0.34444 0.0
H326 H 0.02247 0.06129 0.45375 0.0
H327 H -0.00552 0.08831 0.42474 0.0
H328 H 0.95363 0.0404 0.45637 0.0
H329 H 0.02818 0.94428 0.31991 0.0
H330 H 0.05183 0.0138 0.31906 0.0
H331 H 0.07955 0.98807 0.34931 0.0
H332 H 0.12522 0.18683 0.35105 0.0
H333 H 0.18715 0.11807 0.42228 0.0
H334 H -0.00696 0.09567 0.36114 0.0
H335 H 0.01373 0.0717 0.32542 0.0
H336 H 0.0386 0.14117 0.33011 0.0
H337 H 0.06937 0.01242 0.44814 0.0
H338 H 0.13789 0.03308 0.44335 0.0
H339 H 0.09009 0.98861 0.41235 0.0
C340 C 0.0972 0.15763 0.73793 0.0
C341 C 0.05775 0.16302 0.72089 0.0
C342 C 0.09724 0.1102 0.7372 0.0
C343 C 0.05676 0.06714 0.7191 0.0
C344 C 0.01658 0.07201 0.70202 0.0
C345 C 0.0175 0.12007 0.70316 0.0
C346 C 0.14049 0.10614 0.75588 0.0
C347 C 0.9727 0.02649 0.68259 0.0
C348 C 0.07594 0.95378 0.6929 0.0
C349 C 0.04649 0.91697 0.7183 0.0
C350 C 0.08034 0.00346 0.69303 0.0
C351 C 0.05514 0.01621 0.71941 0.0
C352 C 0.02745 0.97995 0.74598 0.0
C353 C 0.02332 0.93063 0.74502 0.0
C354 C 0.11026 0.04153 0.66437 0.0
C355 C 0.00086 -0.00736 0.77484 0.0
H356 H 0.12851 0.19068 0.75171 0.0
H357 H 0.98714 0.12415 0.6898 0.0
H358 H 0.12357 0.07582 0.77639 0.0
H359 H 0.16111 0.09375 0.73741 0.0
H360 H 0.16973 0.14379 0.76814 0.0
H361 H 0.9452 0.03716 0.66998 0.0
H362 H -0.01089 0.01204 0.6623 0.0
H363 H 0.95024 -0.0064 0.70072 0.0
H364 H 0.09357 0.943 0.67214 0.0
H365 H 0.00096 0.90224 0.7649 0.0
H366 H 0.14056 0.07949 0.67558 0.0
H367 H 0.08309 0.04939 0.64869 0.0
H368 H 0.12963 0.02647 0.64679 0.0
H369 H 0.02949 0.02929 0.78835 0.0
H370 H 0.98289 0.96079 0.79434 0.0
H371 H 0.9697 -0.00074 0.76374 0.0
C372 C 0.63951 0.04595 1.0027 0.0
C373 C 0.67536 0.08062 1.0274 0.0
C374 C 0.5892 0.03974 0.99933 0.0
C375 C 0.57423 0.06824 1.0216 0.0
C376 C 0.61098 0.1049 0.04558 0.0
C377 C 0.6613 0.11094 0.048 0.0
C378 C 0.55135 0.00101 0.97302 0.0
C379 C 0.59626 0.13562 0.07002 0.0
C380 C 0.45009 0.07469 1.00474 0.0
C381 C 0.4146 0.03538 1.02693 0.0
C382 C 0.50201 0.08509 1.00199 0.0
C383 C 0.51881 0.05601 1.02231 0.0
C384 C 0.48295 0.01584 0.04436 0.0
C385 C 0.43121 0.00577 0.0462 0.0
C386 C 0.53905 0.12766 0.97781 0.0
C387 C 0.49955 0.98431 0.06673 0.0
H388 H 0.65039 0.02282 0.98644 0.0
H389 H 0.68883 0.13778 0.06716 0.0
H390 H 0.51974 0.96682 0.98671 0.0
H391 H 0.53251 0.01905 0.95753 0.0
H392 H 0.57088 0.9867 0.95498 0.0
H393 H 0.63049 0.16544 0.08519 0.0
H394 H 0.57872 0.15563 0.05534 0.0
H395 H 0.56626 0.10842 0.08851 0.0
H396 H 0.43741 0.09756 0.98967 0.0
H397 H 0.40412 0.97551 0.06354 0.0
H398 H 0.55721 0.11195 0.95976 0.0
H399 H 0.57129 0.15963 0.99306 0.0
H400 H 0.51904 0.14451 0.96228 0.0
H401 H 0.51537 0.96454 0.05022 0.0
H402 H 0.46667 0.95411 0.08223 0.0
H403 H 0.53138 0.01077 0.08485 0.0
C404 C 0.6414 0.64034 0.33707 0.0
C405 C 0.64189 0.67648 0.3611 0.0
C406 C 0.59797 0.58966 0.33415 0.0
C407 C 0.55448 0.5746 0.3562 0.0
C408 C 0.55409 0.61143 0.37973 0.0
C409 C 0.59765 0.66207 0.3817 0.0
C410 C 0.59934 0.5517 0.3083 0.0
C411 C 0.50867 0.59666 0.40396 0.0
C412 C 0.4234 0.45198 0.33893 0.0
C413 C 0.42628 0.4161 0.36157 0.0
C414 C 0.46553 0.50338 0.33602 0.0
C415 C 0.51113 0.51935 0.35665 0.0
C416 C 0.51459 0.48301 0.37903 0.0
C417 C 0.47229 0.43174 0.38102 0.0
C418 C 0.46085 0.54088 0.31145 0.0
C419 C 0.56235 0.49872 0.40175 0.0
H420 H 0.67531 0.6514 0.32086 0.0
H421 H 0.5978 0.68976 0.40039 0.0
H422 H 0.60127 0.5198 0.32238 0.0
H423 H 0.56294 0.5333 0.29227 0.0
H424 H 0.6336 0.57098 0.29075 0.0
H425 H 0.51321 0.63064 0.41939 0.0
H426 H 0.47135 0.57998 0.389 0.0
H427 H 0.50541 0.56599 0.4222 0.0
H428 H 0.38804 0.44005 0.32369 0.0
H429 H 0.47474 0.40432 0.39868 0.0
H430 H 0.49509 0.55893 0.29387 0.0
H431 H 0.46088 0.5731 0.32647 0.0
H432 H 0.42444 0.52131 0.29541 0.0
H433 H 0.59804 0.51456 0.38555 0.0
H434 H 0.55933 0.46541 0.41715 0.0
H435 H 0.56765 0.53029 0.41998 0.0
C436 C 0.98146 0.59638 0.71349 0.0
C437 C 0.0111 0.63993 0.69231 0.0
C438 C 0.98801 0.55237 0.71212 0.0
C439 C 0.02448 0.55165 0.68863 0.0
C440 C 0.05245 0.59429 0.66587 0.0
C441 C 0.04575 0.63818 0.66818 0.0
C442 C 0.95785 0.50784 0.73707 0.0
C443 C 0.09096 0.59444 0.64005 0.0
C444 C 0.08641 0.47064 0.71522 0.0
C445 C 0.05604 0.4241 0.69645 0.0
C446 C 0.0769 0.51266 0.7125 0.0
C447 C 0.03653 0.50833 0.69006 0.0
C448 C 0.00676 0.46211 0.67019 0.0
C449 C 0.01662 0.4203 0.67383 0.0
C450 C 0.10914 0.56115 0.7344 0.0
C451 C 0.96397 0.45651 0.64561 0.0
H452 H 0.95468 0.59751 0.73223 0.0
H453 H 0.0684 0.67155 0.65152 0.0
H454 H 0.93728 0.47002 0.72278 0.0
H455 H 0.98552 0.50528 0.75568 0.0
H456 H 0.92852 0.51291 0.75207 0.0
H457 H 0.10522 0.62786 0.62174 0.0
H458 H 0.12524 0.597 0.65414 0.0
H459 H 0.07268 0.55738 0.62484 0.0
H460 H 0.11678 0.47379 0.73287 0.0
H461 H -0.00681 0.38451 0.65911 0.0
H462 H 0.08316 0.56721 0.75229 0.0
H463 H 0.12864 0.59619 0.71754 0.0
H464 H 0.13964 0.55859 0.75011 0.0
H465 H 0.93225 0.45739 0.66051 0.0
H466 H 0.94673 0.41943 0.63039 0.0
H467 H 0.9796 0.48992 0.62727 0.0
loop_
_geom_bond_atom_site_label_1
_geom_bond_atom_site_label_2
_geom_bond_distance
_geom_bond_site_symmetry_2
_ccdc_geom_bond_type
C0 O2 1.247 . S
C0 O4 1.258 . S
C1 O8 1.247 . S
C1 O9 1.258 . S
O2 C0 1.247 . S
O2 Zn3 2.028 1_556 S
Zn3 O2 2.028 1_554 S
Zn3 O7 2.035 . S
Zn3 O9 2.035 . S
Zn3 O10 2.028 . S
O4 C0 1.258 . S
O4 Zn5 2.035 1_556 S
Zn5 O4 2.035 1_554 S
Zn5 O6 2.028 . S
Zn5 O8 2.028 . S
Zn5 O11 2.035 . S
O6 Zn5 2.028 . S
O6 C12 1.247 . S
O7 Zn3 2.035 . S
O7 C12 1.258 . S
O8 C1 1.247 . S
O8 Zn5 2.028 . S
O9 C1 1.258 . S
O9 Zn3 2.035 . S
O10 Zn3 2.028 . S
O10 C13 1.247 . S
O11 Zn5 2.035 . S
O11 C13 1.258 . S
C12 O6 1.247 . S
C12 O7 1.258 . S
C13 O10 1.247 . S
C13 O11 1.258 . S
C14 O16 1.247 . S
C14 O18 1.258 . S
C15 O22 1.247 . S
C15 O23 1.258 . S
O16 C14 1.247 . S
O16 Zn17 2.028 . S
Zn17 O16 2.028 . S
Zn17 O21 2.035 . S
Zn17 O23 2.035 . S
Zn17 O24 2.028 . S
O18 C14 1.258 . S
O18 Zn19 2.035 . S
Zn19 O18 2.035 . S
Zn19 O20 2.028 . S
Zn19 O22 2.028 . S
Zn19 O25 2.035 . S
O20 Zn19 2.028 . S
O20 C26 1.247 . S
O21 Zn17 2.035 . S
O21 C26 1.258 . S
O22 C15 1.247 . S
O22 Zn19 2.028 . S
O23 C15 1.258 . S
O23 Zn17 2.035 . S
O24 Zn17 2.028 . S
O24 C27 1.247 . S
O25 Zn19 2.035 . S
O25 C27 1.258 . S
C26 O20 1.247 . S
C26 O21 1.258 . S
C27 O24 1.247 . S
C27 O25 1.258 . S
C28 O30 1.247 1_455 S
C28 O32 1.258 . S
C29 O36 1.247 1_655 S
C29 O37 1.258 . S
O30 C28 1.247 1_655 S
O30 Zn31 2.028 . S
Zn31 O30 2.028 . S
Zn31 O35 2.035 . S
Zn31 O37 2.035 . S
Zn31 O38 2.028 . S
O32 C28 1.258 . S
O32 Zn33 2.035 . S
Zn33 O32 2.035 . S
Zn33 O34 2.028 . S
Zn33 O36 2.028 . S
Zn33 O39 2.035 . S
O34 Zn33 2.028 . S
O34 C40 1.247 . S
O35 Zn31 2.035 . S
O35 C40 1.258 1_655 S
O36 C29 1.247 1_455 S
O36 Zn33 2.028 . S
O37 C29 1.258 . S
O37 Zn31 2.035 . S
O38 Zn31 2.028 . S
O38 C41 1.247 1_655 S
O39 Zn33 2.035 . S
O39 C41 1.258 . S
C40 O34 1.247 . S
C40 O35 1.258 1_455 S
C41 O38 1.247 1_455 S
C41 O39 1.258 . S
C42 O44 1.247 . S
C42 O46 1.258 1_545 S
C43 O50 1.247 1_545 S
C43 O51 1.258 . S
O44 C42 1.247 . S
O44 Zn45 2.028 . S
Zn45 O44 2.028 . S
Zn45 O49 2.035 . S
Zn45 O51 2.035 . S
Zn45 O52 2.028 1_554 S
O46 C42 1.258 1_565 S
O46 Zn47 2.035 . S
Zn47 O46 2.035 . S
Zn47 O48 2.028 . S
Zn47 O50 2.028 . S
Zn47 O53 2.035 1_554 S
O48 Zn47 2.028 . S
O48 C54 1.247 . S
O49 Zn45 2.035 . S
O49 C54 1.258 1_545 S
O50 C43 1.247 1_565 S
O50 Zn47 2.028 . S
O51 C43 1.258 . S
O51 Zn45 2.035 . S
O52 Zn45 2.028 1_556 S
O52 C55 1.247 . S
O53 Zn47 2.035 1_556 S
O53 C55 1.258 1_565 S
C54 O48 1.247 . S
C54 O49 1.258 1_565 S
C55 O52 1.247 . S
C55 O53 1.258 1_545 S
C56 O58 1.247 . S
C56 O60 1.258 . S
C57 O64 1.247 . S
C57 O65 1.258 . S
O58 C56 1.247 . S
O58 Zn59 2.028 . S
Zn59 O58 2.028 . S
Zn59 O63 2.035 . S
Zn59 O65 2.035 . S
Zn59 O66 2.028 . S
O60 C56 1.258 . S
O60 Zn61 2.035 . S
Zn61 O60 2.035 . S
Zn61 O62 2.028 . S
Zn61 O64 2.028 . S
Zn61 O67 2.035 . S
O62 Zn61 2.028 . S
O62 C68 1.247 . S
O63 Zn59 2.035 . S
O63 C68 1.258 . S
O64 C57 1.247 . S
O64 Zn61 2.028 . S
O65 C57 1.258 . S
O65 Zn59 2.035 . S
O66 Zn59 2.028 . S
O66 C69 1.247 . S
O67 Zn61 2.035 . S
O67 C69 1.258 . S
C68 O62 1.247 . S
C68 O63 1.258 . S
C69 O66 1.247 . S
C69 O67 1.258 . S
C70 O72 1.247 . S
C70 O74 1.258 . S
C71 O78 1.247 . S
C71 O79 1.258 . S
O72 C70 1.247 . S
O72 Zn73 2.028 . S
Zn73 O72 2.028 . S
Zn73 O77 2.035 . S
Zn73 O79 2.035 . S
Zn73 O80 2.028 . S
O74 C70 1.258 . S
O74 Zn75 2.035 . S
Zn75 O74 2.035 . S
Zn75 O76 2.028 . S
Zn75 O78 2.028 . S
Zn75 O81 2.035 . S
O76 Zn75 2.028 . S
O76 C82 1.247 . S
O77 Zn73 2.035 . S
O77 C82 1.258 . S
O78 C71 1.247 . S
O78 Zn75 2.028 . S
O79 C71 1.258 . S
O79 Zn73 2.035 . S
O80 Zn73 2.028 . S
O80 C83 1.247 . S
O81 Zn75 2.035 . S
O81 C83 1.258 . S
C82 O76 1.247 . S
C82 O77 1.258 . S
C83 O80 1.247 . S
C83 O81 1.258 . S
C84 C85 1.391 . S
C84 C86 1.394 . S
C84 H100 0.931 . S
C85 C84 1.391 . S
C85 C89 1.376 . S
C86 C84 1.394 . S
C86 C87 1.369 . S
C86 C90 1.531 . S
C87 C86 1.369 . S
C87 C88 1.410 . S
C87 C95 1.503 . S
C88 C87 1.410 . S
C88 C89 1.392 . S
C88 C91 1.511 . S
C89 C85 1.376 . S
C89 C88 1.392 . S
C89 H101 0.929 . S
C90 C86 1.531 . S
C90 H102 0.960 . S
C90 H103 0.962 . S
C90 H104 0.960 . S
C91 C88 1.511 . S
C91 H105 0.961 . S
C91 H106 0.961 . S
C91 H107 0.961 . S
C92 C93 1.370 . S
C92 C94 1.363 . S
C92 H108 0.931 . S
C93 C92 1.370 . S
C93 C97 1.408 . S
C94 C92 1.363 . S
C94 C95 1.370 . S
C94 C98 1.524 . S
C95 C87 1.503 . S
C95 C94 1.370 . S
C95 C96 1.403 . S
C96 C95 1.403 . S
C96 C97 1.404 . S
C96 C99 1.539 . S
C97 C93 1.408 . S
C97 C96 1.404 . S
C97 H109 0.930 . S
C98 C94 1.524 . S
C98 H110 0.956 . S
C98 H111 0.961 . S
C98 H112 0.961 . S
C99 C96 1.539 . S
C99 H113 0.958 . S
C99 H114 0.961 . S
C99 H115 0.960 . S
H100 C84 0.931 . S
H101 C89 0.929 . S
H102 C90 0.960 . S
H103 C90 0.962 . S
H104 C90 0.960 . S
H105 C91 0.961 . S
H106 C91 0.961 . S
H107 C91 0.961 . S
H108 C92 0.931 . S
H109 C97 0.930 . S
H110 C98 0.956 . S
H111 C98 0.961 . S
H112 C98 0.961 . S
H113 C99 0.958 . S
H114 C99 0.961 . S
H115 C99 0.960 . S
C116 C117 1.391 . S
C116 C118 1.394 . S
C116 H132 0.931 . S
C117 C116 1.391 . S
C117 C121 1.376 . S
C118 C116 1.394 . S
C118 C119 1.369 . S
C118 C122 1.531 . S
C119 C118 1.369 . S
C119 C120 1.410 . S
C119 C127 1.503 . S
C120 C119 1.410 . S
C120 C121 1.392 . S
C120 C123 1.511 . S
C121 C117 1.376 . S
C121 C120 1.392 . S
C121 H133 0.929 . S
C122 C118 1.531 . S
C122 H134 0.960 . S
C122 H135 0.962 . S
C122 H136 0.960 . S
C123 C120 1.511 . S
C123 H137 0.961 . S
C123 H138 0.961 . S
C123 H139 0.961 . S
C124 C125 1.370 . S
C124 C126 1.363 . S
C124 H140 0.931 . S
C125 C124 1.370 . S
C125 C129 1.408 . S
C126 C124 1.363 . S
C126 C127 1.370 . S
C126 C130 1.524 . S
C127 C119 1.503 . S
C127 C126 1.370 . S
C127 C128 1.403 . S
C128 C127 1.403 . S
C128 C129 1.404 . S
C128 C131 1.539 . S
C129 C125 1.408 . S
C129 C128 1.404 . S
C129 H141 0.930 . S
C130 C126 1.524 . S
C130 H142 0.956 . S
C130 H143 0.961 . S
C130 H144 0.961 . S
C131 C128 1.539 . S
C131 H145 0.958 . S
C131 H146 0.961 . S
C131 H147 0.960 . S
H132 C116 0.931 . S
H133 C121 0.929 . S
H134 C122 0.960 . S
H135 C122 0.962 . S
H136 C122 0.960 . S
H137 C123 0.961 . S
H138 C123 0.961 . S
H139 C123 0.961 . S
H140 C124 0.931 . S
H141 C129 0.930 . S
H142 C130 0.956 . S
H143 C130 0.961 . S
H144 C130 0.961 . S
H145 C131 0.958 . S
H146 C131 0.961 . S
H147 C131 0.960 . S
C148 C149 1.391 . S
C148 C150 1.394 . S
C148 H164 0.931 . S
C149 C148 1.391 . S
C149 C153 1.376 . S
C150 C148 1.394 . S
C150 C151 1.369 . S
C150 C154 1.531 . S
C151 C150 1.369 . S
C151 C152 1.410 . S
C151 C159 1.503 . S
C152 C151 1.410 . S
C152 C153 1.392 . S
C152 C155 1.511 . S
C153 C149 1.376 . S
C153 C152 1.392 . S
C153 H165 0.929 . S
C154 C150 1.531 . S
C154 H166 0.960 . S
C154 H167 0.962 . S
C154 H168 0.960 . S
C155 C152 1.511 . S
C155 H169 0.961 . S
C155 H170 0.961 . S
C155 H171 0.961 . S
C156 C157 1.370 . S
C156 C158 1.363 . S
C156 H172 0.931 . S
C157 C156 1.370 . S
C157 C161 1.408 . S
C158 C156 1.363 . S
C158 C159 1.370 . S
C158 C162 1.524 . S
C159 C151 1.503 . S
C159 C158 1.370 . S
C159 C160 1.403 . S
C160 C159 1.403 . S
C160 C161 1.404 . S
C160 C163 1.539 . S
C161 C157 1.408 . S
C161 C160 1.404 . S
C161 H173 0.930 . S
C162 C158 1.524 . S
C162 H174 0.956 . S
C162 H175 0.961 . S
C162 H176 0.961 . S
C163 C160 1.539 . S
C163 H177 0.958 . S
C163 H178 0.963 1_655 S
C163 H179 0.960 . S
H164 C148 0.931 . S
H165 C153 0.929 . S
H166 C154 0.960 . S
H167 C154 0.962 . S
H168 C154 0.960 . S
H169 C155 0.961 . S
H170 C155 0.961 . S
H171 C155 0.961 . S
H172 C156 0.931 . S
H173 C161 0.930 . S
H174 C162 0.956 . S
H175 C162 0.961 . S
H176 C162 0.961 . S
H177 C163 0.958 . S
H178 C163 0.963 1_455 S
H179 C163 0.960 . S
C180 C181 1.391 . S
C180 C182 1.394 . S
C180 H196 0.931 . S
C181 C180 1.391 . S
C181 C185 1.376 . S
C182 C180 1.394 . S
C182 C183 1.369 . S
C182 C186 1.531 . S
C183 C182 1.369 . S
C183 C184 1.410 . S
C183 C191 1.503 . S
C184 C183 1.410 . S
C184 C185 1.392 . S
C184 C187 1.511 . S
C185 C181 1.376 . S
C185 C184 1.392 . S
C185 H197 0.929 . S
C186 C182 1.531 . S
C186 H198 0.960 . S
C186 H199 0.962 . S
C186 H200 0.982 . S
C187 C184 1.511 . S
C187 H201 0.961 . S
C187 H202 0.961 . S
C187 H203 0.961 . S
C188 C189 1.370 . S
C188 C190 1.363 . S
C188 H204 0.931 . S
C189 C188 1.370 . S
C189 C193 1.408 . S
C190 C188 1.363 . S
C190 C191 1.370 . S
C190 C194 1.524 . S
C191 C183 1.503 . S
C191 C190 1.370 . S
C191 C192 1.403 . S
C192 C191 1.403 . S
C192 C193 1.404 . S
C192 C195 1.539 . S
C193 C189 1.408 . S
C193 C192 1.404 . S
C193 H205 0.930 . S
C194 C190 1.524 . S
C194 H206 0.956 . S
C194 H207 0.961 . S
C194 H208 0.961 . S
C195 C192 1.539 . S
C195 H209 0.958 . S
C195 H210 0.961 . S
C195 H211 0.960 . S
H196 C180 0.931 . S
H197 C185 0.929 . S
H198 C186 0.960 . S
H199 C186 0.962 . S
H200 C186 0.982 . S
H201 C187 0.961 . S
H202 C187 0.961 . S
H203 C187 0.961 . S
H204 C188 0.931 . S
H205 C193 0.930 . S
H206 C194 0.956 . S
H207 C194 0.961 . S
H208 C194 0.961 . S
H209 C195 0.958 . S
H210 C195 0.961 . S
H211 C195 0.960 . S
C212 C213 1.391 . S
C212 C214 1.394 1_455 S
C212 H228 0.931 . S
C213 C212 1.391 . S
C213 C217 1.379 . S
C214 C212 1.394 1_655 S
C214 C215 1.369 . S
C214 C218 1.531 . S
C215 C214 1.369 . S
C215 C216 1.410 . S
C215 C223 1.503 . S
C216 C215 1.410 . S
C216 C217 1.390 1_655 S
C216 C219 1.511 . S
C217 C213 1.379 . S
C217 C216 1.390 1_455 S
C217 H229 0.928 . S
C218 C214 1.531 . S
C218 H230 0.960 . S
C218 H231 0.962 1_655 S
C218 H232 0.960 . S
C219 C216 1.511 . S
C219 H233 0.961 . S
C219 H234 0.961 . S
C219 H235 0.961 . S
C220 C221 1.370 . S
C220 C222 1.363 . S
C220 H236 0.931 . S
C221 C220 1.370 . S
C221 C225 1.408 . S
C222 C220 1.363 . S
C222 C223 1.370 . S
C222 C226 1.524 1_655 S
C223 C215 1.503 . S
C223 C222 1.370 . S
C223 C224 1.403 . S
C224 C223 1.403 . S
C224 C225 1.404 . S
C224 C227 1.539 . S
C225 C221 1.408 . S
C225 C224 1.404 . S
C225 H237 0.930 . S
C226 C222 1.524 1_455 S
C226 H238 0.956 . S
C226 H239 0.961 . S
C226 H240 0.961 . S
C227 C224 1.539 . S
C227 H241 0.958 . S
C227 H242 0.961 . S
C227 H243 0.960 . S
H228 C212 0.931 . S
H229 C217 0.928 . S
H230 C218 0.960 . S
H231 C218 0.962 1_455 S
H232 C218 0.960 . S
H233 C219 0.961 . S
H234 C219 0.961 . S
H235 C219 0.961 . S
H236 C220 0.931 . S
H237 C225 0.930 . S
H238 C226 0.956 . S
H239 C226 0.961 . S
H240 C226 0.961 . S
H241 C227 0.958 . S
H242 C227 0.961 . S
H243 C227 0.960 . S
C244 C245 1.391 . S
C244 C246 1.394 . S
C244 H260 0.931 . S
C245 C244 1.391 . S
C245 C249 1.376 1_545 S
C246 C244 1.394 . S
C246 C247 1.369 1_545 S
C246 C250 1.531 . S
C247 C246 1.369 1_565 S
C247 C248 1.410 . S
C247 C255 1.503 . S
C248 C247 1.410 . S
C248 C249 1.392 . S
C248 C251 1.511 . S
C249 C245 1.376 1_565 S
C249 C248 1.392 . S
C249 H261 0.929 . S
C250 C246 1.531 . S
C250 H262 0.960 . S
C250 H263 0.962 . S
C250 H264 0.960 . S
C251 C248 1.511 . S
C251 H265 0.961 . S
C251 H266 0.961 . S
C251 H267 0.961 . S
C252 C253 1.370 . S
C252 C254 1.363 . S
C252 H268 0.931 . S
C253 C252 1.370 . S
C253 C257 1.408 . S
C254 C252 1.363 . S
C254 C255 1.370 . S
C254 C258 1.524 . S
C255 C247 1.503 . S
C255 C254 1.370 . S
C255 C256 1.403 . S
C256 C255 1.403 . S
C256 C257 1.404 . S
C256 C259 1.539 . S
C257 C253 1.408 . S
C257 C256 1.404 . S
C257 H269 0.930 . S
C258 C254 1.524 . S
C258 H270 0.956 . S
C258 H271 0.961 . S
C258 H272 0.961 . S
C259 C256 1.539 . S
C259 H273 0.958 1_565 S
C259 H274 0.961 . S
C259 H275 0.960 . S
H260 C244 0.931 . S
H261 C249 0.929 . S
H262 C250 0.960 . S
H263 C250 0.962 . S
H264 C250 0.960 . S
H265 C251 0.961 . S
H266 C251 0.961 . S
H267 C251 0.961 . S
H268 C252 0.931 . S
H269 C257 0.930 . S
H270 C258 0.956 . S
H271 C258 0.961 . S
H272 C258 0.961 . S
H273 C259 0.958 1_545 S
H274 C259 0.961 . S
H275 C259 0.960 . S
C276 C277 1.391 . S
C276 C278 1.394 . S
C276 H292 0.931 . S
C277 C276 1.391 . S
C277 C281 1.376 1_554 S
C278 C276 1.394 . S
C278 C279 1.369 . S
C278 C282 1.531 . S
C279 C278 1.369 . S
C279 C280 1.410 1_554 S
C279 C287 1.503 . S
C280 C279 1.410 1_556 S
C280 C281 1.392 . S
C280 C283 1.511 . S
C281 C277 1.376 1_556 S
C281 C280 1.392 . S
C281 H293 0.929 . S
C282 C278 1.531 . S
C282 H294 0.960 . S
C282 H295 0.962 . S
C282 H296 0.960 . S
C283 C280 1.511 . S
C283 H297 0.961 1_545 S
C283 H298 0.961 1_545 S
C283 H299 0.961 . S
C284 C285 1.370 1_565 S
C284 C286 1.363 1_565 S
C284 H300 0.931 . S
C285 C284 1.370 1_545 S
C285 C289 1.406 . S
C286 C284 1.363 1_545 S
C286 C287 1.370 1_655 S
C286 C290 1.524 1_645 S
C287 C279 1.503 . S
C287 C286 1.370 1_455 S
C287 C288 1.381 1_554 S
C288 C287 1.381 1_556 S
C288 C289 1.403 1_456 S
C288 C291 1.564 . S
C289 C285 1.406 . S
C289 C288 1.403 1_654 S
C289 H301 0.932 1_554 S
C290 C286 1.524 1_465 S
C290 H302 0.956 1_565 S
C290 H303 0.961 . S
C290 H304 0.961 1_455 S
C291 C288 1.564 . S
C291 H305 0.958 . S
C291 H306 0.961 . S
C291 H307 0.960 . S
H292 C276 0.931 . S
H293 C281 0.929 . S
H294 C282 0.960 . S
H295 C282 0.962 . S
H296 C282 0.960 . S
H297 C283 0.961 1_565 S
H298 C283 0.961 1_565 S
H299 C283 0.961 . S
H300 C284 0.931 . S
H301 C289 0.932 1_556 S
H302 C290 0.956 1_545 S
H303 C290 0.961 . S
H304 C290 0.961 1_655 S
H305 C291 0.958 . S
H306 C291 0.961 . S
H307 C291 0.960 . S
C308 C309 1.391 . S
C308 C310 1.395 . S
C308 H324 0.931 . S
C309 C308 1.391 . S
C309 C313 1.376 1_655 S
C310 C308 1.395 . S
C310 C311 1.366 1_665 S
C310 C314 1.532 1_565 S
C311 C310 1.366 1_445 S
C311 C312 1.410 1_545 S
C311 C319 1.503 . S
C312 C311 1.410 1_565 S
C312 C313 1.392 . S
C312 C315 1.511 1_565 S
C313 C309 1.376 1_455 S
C313 C312 1.392 . S
C313 H325 0.929 . S
C314 C310 1.532 1_545 S
C314 H326 0.960 1_655 S
C314 H327 0.962 . S
C314 H328 0.960 . S
C315 C312 1.511 1_545 S
C315 H329 0.961 1_545 S
C315 H330 0.961 . S
C315 H331 0.961 . S
C316 C317 1.370 . S
C316 C318 1.363 . S
C316 H332 0.931 . S
C317 C316 1.370 . S
C317 C321 1.408 . S
C318 C316 1.363 . S
C318 C319 1.370 . S
C318 C322 1.524 . S
C319 C311 1.503 . S
C319 C318 1.370 . S
C319 C320 1.403 . S
C320 C319 1.403 . S
C320 C321 1.404 . S
C320 C323 1.539 . S
C321 C317 1.408 . S
C321 C320 1.404 . S
C321 H333 0.930 . S
C322 C318 1.524 . S
C322 H334 0.956 1_455 S
C322 H335 0.961 . S
C322 H336 0.961 . S
C323 C320 1.539 . S
C323 H337 0.958 . S
C323 H338 0.961 . S
C323 H339 0.960 . S
H324 C308 0.931 . S
H325 C313 0.929 . S
H326 C314 0.960 1_455 S
H327 C314 0.962 . S
H328 C314 0.960 . S
H329 C315 0.961 1_565 S
H330 C315 0.961 . S
H331 C315 0.961 . S
H332 C316 0.931 . S
H333 C321 0.930 . S
H334 C322 0.956 1_655 S
H335 C322 0.961 . S
H336 C322 0.961 . S
H337 C323 0.958 . S
H338 C323 0.961 . S
H339 C323 0.960 . S
C340 C341 1.391 . S
C340 C342 1.394 . S
C340 H356 0.931 . S
C341 C340 1.391 . S
C341 C345 1.376 1_455 S
C342 C340 1.394 . S
C342 C343 1.369 . S
C342 C346 1.531 . S
C343 C342 1.369 . S
C343 C344 1.410 . S
C343 C351 1.503 . S
C344 C343 1.410 . S
C344 C345 1.392 1_455 S
C344 C347 1.511 1_455 S
C345 C341 1.376 1_655 S
C345 C344 1.392 1_655 S
C345 H357 0.929 . S
C346 C342 1.531 . S
C346 H358 0.960 . S
C346 H359 0.962 . S
C346 H360 0.960 . S
C347 C344 1.511 1_655 S
C347 H361 0.961 . S
C347 H362 0.961 1_545 S
C347 H363 0.961 1_655 S
C348 C349 1.370 . S
C348 C350 1.363 . S
C348 H364 0.931 . S
C349 C348 1.370 . S
C349 C353 1.408 1_565 S
C350 C348 1.363 . S
C350 C351 1.370 1_565 S
C350 C354 1.524 1_455 S
C351 C343 1.503 . S
C351 C350 1.370 1_545 S
C351 C352 1.403 . S
C352 C351 1.403 . S
C352 C353 1.404 . S
C352 C355 1.539 . S
C353 C349 1.408 1_545 S
C353 C352 1.404 . S
C353 H365 0.930 . S
C354 C350 1.524 1_655 S
C354 H366 0.956 1_665 S
C354 H367 0.961 . S
C354 H368 0.961 . S
C355 C352 1.539 . S
C355 H369 0.958 . S
C355 H370 0.961 . S
C355 H371 0.960 . S
H356 C340 0.931 . S
H357 C345 0.929 . S
H358 C346 0.960 . S
H359 C346 0.962 . S
H360 C346 0.960 . S
H361 C347 0.961 . S
H362 C347 0.961 1_565 S
H363 C347 0.961 1_455 S
H364 C348 0.931 . S
H365 C353 0.930 . S
H366 C354 0.956 1_445 S
H367 C354 0.961 . S
H368 C354 0.961 . S
H369 C355 0.958 . S
H370 C355 0.961 . S
H371 C355 0.960 . S
C372 C373 1.391 1_565 S
C372 C374 1.394 . S
C372 H388 0.931 . S
C373 C372 1.391 1_545 S
C373 C377 1.376 . S
C374 C372 1.394 . S
C374 C375 1.369 1_565 S
C374 C378 1.531 . S
C375 C374 1.369 1_545 S
C375 C376 1.410 . S
C375 C383 1.503 . S
C376 C375 1.410 . S
C376 C377 1.392 . S
C376 C379 1.511 . S
C377 C373 1.376 . S
C377 C376 1.392 . S
C377 H389 0.929 . S
C378 C374 1.531 . S
C378 H390 0.960 . S
C378 H391 0.962 . S
C378 H392 0.960 . S
C379 C376 1.511 . S
C379 H393 0.961 . S
C379 H394 0.961 . S
C379 H395 0.961 . S
C380 C381 1.370 1_556 S
C380 C382 1.363 . S
C380 H396 0.931 . S
C381 C380 1.370 1_554 S
C381 C385 1.408 . S
C382 C380 1.363 . S
C382 C383 1.370 1_556 S
C382 C386 1.524 . S
C383 C375 1.503 . S
C383 C382 1.370 1_554 S
C383 C384 1.403 . S
C384 C383 1.403 . S
C384 C385 1.404 . S
C384 C387 1.539 . S
C385 C381 1.408 . S
C385 C384 1.404 . S
C385 H397 0.930 . S
C386 C382 1.524 . S
C386 H398 0.956 . S
C386 H399 0.961 . S
C386 H400 0.961 . S
C387 C384 1.539 . S
C387 H401 0.958 . S
C387 H402 0.961 . S
C387 H403 0.960 . S
H388 C372 0.931 . S
H389 C377 0.929 . S
H390 C378 0.960 . S
H391 C378 0.962 . S
H392 C378 0.960 . S
H393 C379 0.961 . S
H394 C379 0.961 . S
H395 C379 0.961 . S
H396 C380 0.931 . S
H397 C385 0.930 . S
H398 C386 0.956 . S
H399 C386 0.961 . S
H400 C386 0.961 . S
H401 C387 0.958 . S
H402 C387 0.961 . S
H403 C387 0.960 . S
C404 C405 1.391 . S
C404 C406 1.394 . S
C404 H420 0.931 . S
C405 C404 1.391 . S
C405 C409 1.376 . S
C406 C404 1.394 . S
C406 C407 1.369 . S
C406 C410 1.531 . S
C407 C406 1.369 . S
C407 C408 1.410 . S
C407 C415 1.503 . S
C408 C407 1.410 . S
C408 C409 1.392 . S
C408 C411 1.511 . S
C409 C405 1.376 . S
C409 C408 1.392 . S
C409 H421 0.929 . S
C410 C406 1.531 . S
C410 H422 0.960 . S
C410 H423 0.962 . S
C410 H424 0.960 . S
C411 C408 1.511 . S
C411 H425 0.961 . S
C411 H426 0.961 . S
C411 H427 0.961 . S
C412 C413 1.370 . S
C412 C414 1.363 . S
C412 H428 0.931 . S
C413 C412 1.370 . S
C413 C417 1.408 . S
C414 C412 1.363 . S
C414 C415 1.370 . S
C414 C418 1.524 . S
C415 C407 1.503 . S
C415 C414 1.370 . S
C415 C416 1.403 . S
C416 C415 1.403 . S
C416 C417 1.404 . S
C416 C419 1.539 . S
C417 C413 1.408 . S
C417 C416 1.404 . S
C417 H429 0.930 . S
C418 C414 1.524 . S
C418 H430 0.956 . S
C418 H431 0.961 . S
C418 H432 0.961 . S
C419 C416 1.539 . S
C419 H433 0.958 . S
C419 H434 0.961 . S
C419 H435 0.960 . S
H420 C404 0.931 . S
H421 C409 0.929 . S
H422 C410 0.960 . S
H423 C410 0.962 . S
H424 C410 0.960 . S
H425 C411 0.961 . S
H426 C411 0.961 . S
H427 C411 0.961 . S
H428 C412 0.931 . S
H429 C417 0.930 . S
H430 C418 0.956 . S
H431 C418 0.961 . S
H432 C418 0.961 . S
H433 C419 0.958 . S
H434 C419 0.961 . S
H435 C419 0.960 . S
C436 C437 1.391 . S
C436 C438 1.394 . S
C436 H452 0.931 . S
C437 C436 1.391 . S
C437 C441 1.376 . S
C438 C436 1.394 . S
C438 C439 1.369 . S
C438 C442 1.531 . S
C439 C438 1.369 . S
C439 C440 1.410 . S
C439 C447 1.503 . S
C440 C439 1.410 . S
C440 C441 1.392 . S
C440 C443 1.511 . S
C441 C437 1.376 . S
C441 C440 1.392 . S
C441 H453 0.929 . S
C442 C438 1.531 . S
C442 H454 0.960 . S
C442 H455 0.962 . S
C442 H456 0.960 . S
C443 C440 1.511 . S
C443 H457 0.961 . S
C443 H458 0.961 . S
C443 H459 0.961 1_455 S
C444 C445 1.370 . S
C444 C446 1.363 . S
C444 H460 0.931 . S
C445 C444 1.370 . S
C445 C449 1.408 1_455 S
C446 C444 1.363 . S
C446 C447 1.370 . S
C446 C450 1.524 . S
C447 C439 1.503 . S
C447 C446 1.370 . S
C447 C448 1.403 1_455 S
C448 C447 1.403 1_655 S
C448 C449 1.404 . S
C448 C451 1.539 . S
C449 C445 1.408 1_655 S
C449 C448 1.404 . S
C449 H461 0.930 . S
C450 C446 1.524 . S
C450 H462 0.956 . S
C450 H463 0.961 . S
C450 H464 0.961 . S
C451 C448 1.539 . S
C451 H465 0.958 . S
C451 H466 0.961 . S
C451 H467 0.960 . S
H452 C436 0.931 . S
H453 C441 0.929 . S
H454 C442 0.960 . S
H455 C442 0.962 . S
H456 C442 0.960 . S
H457 C443 0.961 . S
H458 C443 0.961 . S
H459 C443 0.961 1_655 S
H460 C444 0.931 . S
H461 C449 0.930 . S
H462 C450 0.956 . S
H463 C450 0.961 . S
H464 C450 0.961 . S
H465 C451 0.958 . S
H466 C451 0.961 . S
H467 C451 0.960 . S
C85 C1 1.727 . S
C93 C27 1.698 . S
C117 C26 1.730 . S
C125 C28 1.713 . S
C149 C55 1.691 . S
C157 C29 1.739 . S
C181 C54 1.739 . S
C189 C68 1.712 . S
C213 C83 1.703 . S
C221 C69 1.740 . S
C245 C0 1.720 . S
C253 C82 1.736 . S
C277 C12 1.126 . S
C285 C43 1.106 . S
C309 C56 1.141 . S
C317 C15 1.108 . S
C341 C40 1.099 . S
C349 C71 1.126 . S
C373 C42 1.546 . S
C381 C13 1.560 . S
C405 C57 1.543 . S
C413 C14 1.562 . S
C437 C70 1.540 . S
C445 C41 1.565 . S
