# Generated by pormake.
# Topology uoo, (4)-cn, num edge types: 1
# Building blocks:
#     Node 0, Type 0, BuildingBlock: GALJAG_clean_sbu_0, # of connection points: 4
#     Node 1, Type 0, BuildingBlock: GALJAG_clean_sbu_0, # of connection points: 4
#     Node 2, Type 0, BuildingBlock: GALJAG_clean_sbu_0, # of connection points: 4
#     Node 3, Type 0, BuildingBlock: GALJAG_clean_sbu_0, # of connection points: 4
#     Node 4, Type 0, BuildingBlock: GALJAG_clean_sbu_0, # of connection points: 4
#     Node 5, Type 0, BuildingBlock: GALJAG_clean_sbu_0, # of connection points: 4
#     Edge 6, Type (0, 0), BuildingBlock: FUNLAD_clean_linker_1, # of connection points: 2
#     Edge 7, Type (0, 0), BuildingBlock: FUNLAD_clean_linker_1, # of connection points: 2
#     Edge 8, Type (0, 0), BuildingBlock: FUNLAD_clean_linker_1, # of connection points: 2
#     Edge 9, Type (0, 0), BuildingBlock: FUNLAD_clean_linker_1, # of connection points: 2
#     Edge 10, Type (0, 0), BuildingBlock: FUNLAD_clean_linker_1, # of connection points: 2
#     Edge 11, Type (0, 0), BuildingBlock: FUNLAD_clean_linker_1, # of connection points: 2
#     Edge 12, Type (0, 0), BuildingBlock: FUNLAD_clean_linker_1, # of connection points: 2
#     Edge 13, Type (0, 0), BuildingBlock: FUNLAD_clean_linker_1, # of connection points: 2
#     Edge 14, Type (0, 0), BuildingBlock: FUNLAD_clean_linker_1, # of connection points: 2
#     Edge 15, Type (0, 0), BuildingBlock: FUNLAD_clean_linker_1, # of connection points: 2
#     Edge 16, Type (0, 0), BuildingBlock: FUNLAD_clean_linker_1, # of connection points: 2
#     Edge 17, Type (0, 0), BuildingBlock: FUNLAD_clean_linker_1, # of connection points: 2
# Relax obj value: 0.098
# Max RMSD: 0.113
# Mean RMSD: 0.113
data_MOF--net-uoo--node1-GALJAG_clean_sbu_0--edge1-FUNLAD_clean_linker_1
_symmetry_space_group_name_H-M    P1
_symmetry_Int_Tables_number       1
_symmetry_cell_setting            triclinic
loop_
_symmetry_equiv_pos_as_xyz
'x, y, z'
_cell_length_a     26.473743
_cell_length_b     26.465296
_cell_length_c     40.431695
_cell_angle_alpha  89.972252
_cell_angle_beta   90.058729
_cell_angle_gamma 120.02165
loop_
_atom_site_label
_atom_site_type_symbol
_atom_site_fract_x
_atom_site_fract_y
_atom_site_fract_z
_atom_type_partial_charge
In0 In 0.16442 0.33118 0.01881 0.0
O1 O 0.09115 0.25823 0.0495 0.0
O2 O 0.17198 0.31322 0.07321 0.0
C3 C 0.1485 0.26625 0.96397 0.0
C4 C 0.11777 0.40015 0.00849 0.0
C5 C 0.28044 0.40103 0.02646 0.0
O6 O 0.16884 0.25853 0.99048 0.0
O7 O 0.13434 0.30504 0.96541 0.0
O8 O 0.24404 0.41449 0.03723 0.0
O9 O 0.25854 0.3524 0.01192 0.0
C10 C 0.12067 0.27129 0.07581 0.0
O11 O 0.1676 0.41288 0.99805 0.0
O12 O 0.09099 0.35239 0.02394 0.0
In13 In 0.83504 0.15812 0.34528 0.0
O14 O 0.85215 0.09675 0.37742 0.0
O15 O 0.83725 0.15968 0.40141 0.0
C16 C 0.8707 0.14734 0.28465 0.0
C17 C 0.71791 0.09495 0.34102 0.0
C18 C 0.90193 0.2749 0.3505 0.0
O19 O 0.89178 0.13854 0.31064 0.0
O20 O 0.83139 0.1601 0.28933 0.0
O21 O 0.84694 0.24973 0.34854 0.0
O22 O 0.92288 0.24134 0.35019 0.0
C23 C 0.84682 0.11784 0.40436 0.0
O24 O 0.74472 0.14976 0.34461 0.0
O25 O 0.74997 0.0724 0.33942 0.0
In26 In 0.68979 0.83662 0.67853 0.0
O27 O 0.61085 0.7456 0.68516 0.0
O28 O 0.68246 0.75255 0.65789 0.0
C29 C 0.61686 0.87933 0.68365 0.0
C30 C 0.75082 0.85549 0.73555 0.0
C31 C 0.74829 0.88666 0.62192 0.0
O32 O 0.60369 0.83289 0.66823 0.0
O33 O 0.66713 0.90474 0.69661 0.0
O34 O 0.75847 0.85274 0.63885 0.0
O35 O 0.70953 0.8958 0.63364 0.0
C36 C 0.63235 0.71968 0.66953 0.0
O37 O 0.77419 0.88356 0.70948 0.0
O38 O 0.69718 0.81948 0.733 0.0
In39 In 0.84896 0.69933 0.01887 0.0
O40 O 0.93248 0.7728 0.04195 0.0
O41 O 0.85635 0.73224 0.07181 0.0
C42 C 0.85232 0.76528 0.96692 0.0
C43 C 0.89469 0.62856 0.02071 0.0
C44 C 0.73351 0.62201 0.01813 0.0
O45 O 0.82871 0.76464 0.99405 0.0
O46 O 0.8763 0.73438 0.96621 0.0
O47 O 0.76959 0.61546 0.00106 0.0
O48 O 0.75545 0.66719 0.03599 0.0
C49 C 0.90997 0.76937 0.06991 0.0
O50 O 0.86177 0.62902 0.04307 0.0
O51 O 0.9047 0.66374 0.99713 0.0
In52 In 0.15261 0.8439 0.35541 0.0
O53 O 0.24279 0.8559 0.34533 0.0
O54 O 0.23365 0.93139 0.34419 0.0
C55 C 0.08908 0.72653 0.36094 0.0
C56 C 0.15608 0.88087 0.41796 0.0
C57 C 0.10178 0.85852 0.30121 0.0
O58 O 0.14201 0.75267 0.35238 0.0
O59 O 0.06851 0.75934 0.36709 0.0
O60 O 0.09525 0.87424 0.3296 0.0
O61 O 0.13458 0.83671 0.30017 0.0
C62 C 0.26715 0.91055 0.3417 0.0
O63 O 0.12789 0.88917 0.39544 0.0
O64 O 0.18124 0.85343 0.40907 0.0
In65 In 0.32272 0.15266 0.69209 0.0
O66 O 0.39864 0.24612 0.69474 0.0
O67 O 0.31916 0.23284 0.67401 0.0
C68 C 0.39619 0.11014 0.69077 0.0
C69 C 0.281 0.14587 0.75397 0.0
C70 C 0.25227 0.09012 0.64152 0.0
O71 O 0.4108 0.16096 0.68112 0.0
O72 O 0.34435 0.08036 0.70109 0.0
O73 O 0.23548 0.08066 0.6712 0.0
O74 O 0.30388 0.1311 0.63741 0.0
C75 C 0.37109 0.26862 0.68194 0.0
O76 O 0.25587 0.15092 0.72873 0.0
O77 O 0.32599 0.14276 0.74804 0.0
H78 H 0.28858 0.14567 0.8082 0.0
C79 C 0.26305 0.14874 0.78804 0.0
H80 H 0.19407 0.16338 0.77495 0.0
H81 H 0.08637 0.10787 0.92017 0.0
H82 H 0.01698 0.01866 0.89204 0.0
H83 H 0.03403 0.99961 0.83459 0.0
H84 H 0.12159 0.06904 0.80513 0.0
C85 C 0.22044 0.16066 0.79472 0.0
C86 C 0.20953 0.17256 0.82916 0.0
C87 C 0.15774 0.13201 0.84574 0.0
C88 C 0.14742 0.14323 0.87872 0.0
C89 C 0.09594 0.10161 0.89498 0.0
C90 C 0.05575 0.05032 0.87911 0.0
C91 C 0.06551 0.03951 0.84679 0.0
C92 C 0.11588 0.07971 0.83017 0.0
H93 H 0.12817 0.24639 0.91113 0.0
C94 C 0.14763 0.23782 0.93254 0.0
H95 H 0.19945 0.20287 0.94935 0.0
H96 H 0.31089 0.26252 0.80351 0.0
H97 H 0.38124 0.34995 0.83232 0.0
H98 H 0.36495 0.3673 0.89028 0.0
H99 H 0.27775 0.29746 0.91958 0.0
C100 C 0.17691 0.20899 0.92861 0.0
C101 C 0.18863 0.19513 0.89488 0.0
C102 C 0.24068 0.23549 0.87846 0.0
C103 C 0.25076 0.22471 0.84537 0.0
C104 C 0.30178 0.26732 0.82902 0.0
C105 C 0.34242 0.31804 0.8452 0.0
C106 C 0.3332 0.32787 0.87779 0.0
C107 C 0.28292 0.28738 0.89431 0.0
H108 H 0.8727 0.15859 0.23084 0.0
C109 C 0.89345 0.14911 0.25126 0.0
H110 H 0.96437 0.13813 0.26551 0.0
H111 H 0.00045 0.09917 0.11152 0.0
H112 H 0.95473 0.99879 0.13063 0.0
H113 H 0.91722 0.97289 0.1876 0.0
H114 H 0.92387 0.04712 0.22569 0.0
C115 C 0.94235 0.1471 0.24562 0.0
C116 C 0.97031 0.16321 0.21246 0.0
C117 C 0.96683 0.1196 0.19075 0.0
C118 C 0.9889 0.13464 0.15796 0.0
C119 C 0.98432 0.0901 0.13665 0.0
C120 C 0.9583 0.03238 0.14733 0.0
C121 C 0.93703 0.01776 0.17941 0.0
C122 C 0.94107 0.0607 0.20098 0.0
H123 H 0.12578 0.25921 0.12925 0.0
C124 C 0.0964 0.24461 0.10812 0.0
H125 H 0.00881 0.19411 0.09227 0.0
H126 H 0.99079 0.25868 0.24925 0.0
H127 H 0.03154 0.358 0.2295 0.0
H128 H 0.0625 0.38281 0.17139 0.0
H129 H 0.05402 0.30882 0.13299 0.0
C130 C 0.03897 0.20937 0.11302 0.0
C131 C 0.01484 0.19334 0.14711 0.0
C132 C 0.0179 0.23696 0.16884 0.0
C133 C 0.9972 0.22213 0.20182 0.0
C134 C 0.00365 0.26705 0.22354 0.0
C135 C 0.02731 0.32437 0.2126 0.0
C136 C 0.04496 0.33837 0.17994 0.0
C137 C 0.04032 0.29542 0.15821 0.0
H138 H 0.84282 0.11566 0.45862 0.0
C139 C 0.84593 0.09289 0.43703 0.0
H140 H 0.84051 0.01529 0.41932 0.0
H141 H 0.87454 0.01739 0.58418 0.0
H142 H 0.97536 0.09036 0.57351 0.0
H143 H 0.00862 0.12669 0.51693 0.0
H144 H 0.94086 0.0906 0.47065 0.0
C145 C 0.84111 0.04028 0.44079 0.0
C146 C 0.8245 0.01086 0.47357 0.0
C147 C 0.8649 0.03085 0.50013 0.0
C148 C 0.84602 0.00866 0.5326 0.0
C149 C 0.88674 0.03152 0.5589 0.0
C150 C 0.94474 0.07363 0.55313 0.0
C151 C 0.96345 0.09419 0.52128 0.0
C152 C 0.92414 0.07332 0.49499 0.0
H153 H 0.80797 0.89898 0.58047 0.0
C154 C 0.77736 0.91134 0.59008 0.0
H155 H 0.73235 0.95703 0.58141 0.0
H156 H 0.73696 0.95999 0.42759 0.0
H157 H 0.637 0.88441 0.43774 0.0
H158 H 0.60471 0.84415 0.49375 0.0
H159 H 0.67214 0.87955 0.54001 0.0
C160 C 0.76457 0.94641 0.57234 0.0
C161 C 0.78695 0.96556 0.53821 0.0
C162 C 0.74736 0.94337 0.51129 0.0
C163 C 0.76614 0.96601 0.47893 0.0
C164 C 0.72521 0.94409 0.45266 0.0
C165 C 0.66764 0.90066 0.45812 0.0
C166 C 0.64945 0.87804 0.48966 0.0
C167 C 0.6886 0.89892 0.51601 0.0
H168 H 0.81494 0.81032 0.93917 0.0
C169 C 0.84472 0.79337 0.93736 0.0
H170 H 0.89563 0.77351 0.90581 0.0
H171 H 0.73481 0.72488 0.78147 0.0
H172 H 0.72506 0.63032 0.79201 0.0
H173 H 0.76924 0.61373 0.84156 0.0
H174 H 0.8237 0.69156 0.88066 0.0
C175 C 0.86722 0.79202 0.90783 0.0
C176 C 0.84459 0.80416 0.87682 0.0
C177 C 0.81284 0.75791 0.85415 0.0
C178 C 0.78625 0.76706 0.82597 0.0
C179 C 0.75503 0.72017 0.80363 0.0
C180 C 0.74922 0.66562 0.8093 0.0
C181 C 0.77417 0.65632 0.83715 0.0
C182 C 0.80555 0.70164 0.85939 0.0
H183 H 0.83169 0.88692 0.76493 0.0
C184 C 0.78442 0.86036 0.76568 0.0
H185 H 0.71066 0.80068 0.79295 0.0
H186 H 0.90893 0.90413 0.91271 0.0
H187 H 0.91494 0.99766 0.90343 0.0
H188 H 0.86412 0.01184 0.85632 0.0
H189 H 0.80677 0.93266 0.81824 0.0
C190 C 0.75781 0.82873 0.79275 0.0
C191 C 0.7908 0.82216 0.82063 0.0
C192 C 0.82355 0.86878 0.84286 0.0
C193 C 0.85134 0.86004 0.87068 0.0
C194 C 0.8852 0.90778 0.89192 0.0
C195 C 0.88945 0.96182 0.8867 0.0
C196 C 0.86089 0.96984 0.86014 0.0
C197 C 0.82827 0.92404 0.83839 0.0
H198 H 0.03844 0.8759 0.27523 0.0
C199 C 0.06952 0.86084 0.27204 0.0
H200 H 0.1035 0.82267 0.23975 0.0
H201 H 0.88074 0.6898 0.15166 0.0
H202 H 0.87064 0.61136 0.18689 0.0
H203 H 0.93387 0.63163 0.23572 0.0
H204 H 0.00785 0.7306 0.24944 0.0
C205 C 0.07419 0.83998 0.24263 0.0
C206 C 0.03285 0.8297 0.21512 0.0
C207 C 0.98899 0.77171 0.20778 0.0
C208 C 0.95191 0.76022 0.17998 0.0
C209 C 0.90956 0.70151 0.17277 0.0
C210 C 0.90333 0.65586 0.19276 0.0
C211 C 0.93897 0.66724 0.22021 0.0
C212 C 0.98138 0.72433 0.22774 0.0
H213 H 0.99288 0.82291 0.09634 0.0
C214 C 0.94571 0.79995 0.09906 0.0
H215 H 0.87491 0.76872 0.13209 0.0
H216 H 0.11246 0.94571 0.22243 0.0
H217 H 0.12115 0.02502 0.18813 0.0
H218 H 0.05483 0.00561 0.14096 0.0
H219 H 0.9788 0.90672 0.12791 0.0
C220 C 0.92204 0.79324 0.12926 0.0
C221 C 0.95857 0.80687 0.1596 0.0
C222 C 0.00114 0.86514 0.16763 0.0
C223 C 0.03873 0.8765 0.19528 0.0
C224 C 0.08218 0.93479 0.20208 0.0
C225 C 0.0877 0.98068 0.18257 0.0
C226 C 0.0503 0.96973 0.15599 0.0
C227 C 0.00721 0.91276 0.1486 0.0
H228 H 0.16955 0.02304 0.61879 0.0
C229 C 0.215 0.05471 0.61389 0.0
H230 H 0.28222 0.09179 0.57844 0.0
H231 H 0.09937 0.84223 0.50453 0.0
H232 H 0.10847 0.79282 0.55289 0.0
H233 H 0.16329 0.84887 0.60197 0.0
H234 H 0.2075 0.95393 0.60347 0.0
C235 C 0.23704 0.05926 0.5834 0.0
C236 C 0.2014 0.02367 0.55485 0.0
C237 C 0.17826 0.96232 0.55405 0.0
C238 C 0.15014 0.93033 0.52494 0.0
C239 C 0.12394 0.86877 0.5254 0.0
C240 C 0.12842 0.83988 0.55306 0.0
C241 C 0.15904 0.87141 0.58074 0.0
C242 C 0.18388 0.93188 0.58134 0.0
H243 H 0.19681 0.90374 0.46698 0.0
C244 C 0.16365 0.9048 0.45158 0.0
H245 H 0.10105 0.93152 0.44784 0.0
H246 H 0.23302 0.13887 0.54984 0.0
H247 H 0.22439 0.18781 0.50123 0.0
H248 H 0.18204 0.13342 0.44951 0.0
H249 H 0.14749 0.02985 0.44617 0.0
C250 C 0.13361 0.92952 0.46328 0.0
C251 C 0.1493 0.9601 0.49591 0.0
C252 C 0.16925 0.02076 0.49735 0.0
C253 C 0.19486 0.05241 0.52695 0.0
C254 C 0.21424 0.11294 0.52779 0.0
C255 C 0.20937 0.14155 0.50011 0.0
C256 C 0.18546 0.11091 0.47101 0.0
C257 C 0.16574 0.05131 0.46946 0.0
H258 H 0.35882 0.48186 0.04243 0.0
C259 C 0.34365 0.43988 0.0305 0.0
H260 H 0.36793 0.38405 0.00687 0.0
H261 H 0.615 0.59626 0.96623 0.0
H262 H 0.56654 0.56775 0.91307 0.0
H263 H 0.46264 0.4922 0.90909 0.0
H264 H 0.40648 0.44538 0.95835 0.0
C265 C 0.38248 0.42514 0.01971 0.0
C266 C 0.44624 0.46665 0.02227 0.0
C267 C 0.47888 0.49226 0.99314 0.0
C268 C 0.5392 0.53457 0.99538 0.0
C269 C 0.56979 0.56204 0.96598 0.0
C270 C 0.54232 0.54651 0.93526 0.0
C271 C 0.48381 0.5041 0.93302 0.0
C272 C 0.45213 0.47745 0.96153 0.0
H273 H 0.65616 0.53983 0.00284 0.0
C274 C 0.67053 0.58029 0.01634 0.0
H275 H 0.64478 0.63192 0.04328 0.0
H276 H 0.39747 0.42164 0.08267 0.0
H277 H 0.4461 0.44902 0.13588 0.0
H278 H 0.55067 0.52253 0.13986 0.0
H279 H 0.60724 0.56892 0.09063 0.0
C280 C 0.63086 0.59195 0.02937 0.0
C281 C 0.56723 0.5495 0.02673 0.0
C282 C 0.53459 0.52352 0.05584 0.0
C283 C 0.47412 0.4817 0.0536 0.0
C284 C 0.44308 0.45489 0.08297 0.0
C285 C 0.47058 0.46986 0.11369 0.0
C286 C 0.52946 0.51119 0.11593 0.0
C287 C 0.56138 0.53762 0.08744 0.0
H288 H 0.98676 0.3563 0.35279 0.0
C289 C 0.93983 0.33871 0.35223 0.0
H290 H 0.87185 0.35865 0.35279 0.0
H291 H 0.04412 0.60599 0.41916 0.0
H292 H 0.98888 0.55244 0.46734 0.0
H293 H 0.91858 0.44686 0.46405 0.0
H294 H 0.90367 0.39408 0.41256 0.0
C295 C 0.91861 0.37533 0.35247 0.0
C296 C 0.95854 0.4396 0.35372 0.0
C297 C 0.96539 0.47015 0.38366 0.0
C298 C 0.00473 0.53136 0.3853 0.0
C299 C 0.01311 0.56005 0.41608 0.0
C300 C 0.98206 0.5297 0.44406 0.0
C301 C 0.94258 0.47023 0.44223 0.0
C302 C 0.93436 0.44051 0.4125 0.0
H303 H 0.00654 0.64401 0.36801 0.0
C304 C 0.05271 0.66252 0.36267 0.0
H305 H 0.12012 0.64501 0.35106 0.0
H306 H 0.95414 0.39437 0.29215 0.0
H307 H 0.009 0.44771 0.2438 0.0
H308 H 0.07616 0.55405 0.24629 0.0
H309 H 0.08902 0.60763 0.29713 0.0
C310 C 0.07436 0.6269 0.35733 0.0
C311 C 0.03561 0.56226 0.35657 0.0
C312 C 0.02897 0.53151 0.32665 0.0
C313 C 0.99032 0.47015 0.3252 0.0
C314 C 0.9836 0.44078 0.29481 0.0
C315 C 0.0146 0.47092 0.26679 0.0
C316 C 0.05239 0.53078 0.26819 0.0
C317 C 0.05948 0.56099 0.29762 0.0
H318 H 0.48125 0.11719 0.68084 0.0
C319 C 0.43733 0.08808 0.68985 0.0
H320 H 0.37918 0.00488 0.70949 0.0
H321 H 0.5905 0.97703 0.63601 0.0
H322 H 0.55437 0.99448 0.58467 0.0
H323 H 0.47516 0.01794 0.5848 0.0
H324 H 0.43262 0.02539 0.63631 0.0
C325 C 0.42233 0.0338 0.69946 0.0
C326 C 0.46544 0.01331 0.69889 0.0
C327 C 0.48781 0.00636 0.6684 0.0
C328 C 0.53117 0.98963 0.66822 0.0
C329 C 0.55551 0.98682 0.63755 0.0
C330 C 0.5355 0.9972 0.60787 0.0
C331 C 0.4911 0.01065 0.60796 0.0
C332 C 0.46735 0.01521 0.63776 0.0
H333 H 0.53364 0.87631 0.67391 0.0
C334 C 0.57652 0.90232 0.68503 0.0
H335 H 0.63364 0.98041 0.71016 0.0
H336 H 0.43198 0.02294 0.76155 0.0
H337 H 0.46553 0.00188 0.8128 0.0
H338 H 0.53738 0.96844 0.81233 0.0
H339 H 0.57647 0.95627 0.76063 0.0
C340 C 0.59146 0.95445 0.69828 0.0
C341 C 0.54963 0.97658 0.69842 0.0
C342 C 0.52697 0.98312 0.72884 0.0
C343 C 0.48492 0.00161 0.72908 0.0
C344 C 0.46351 0.0084 0.75988 0.0
C345 C 0.48245 0.99653 0.7895 0.0
C346 C 0.52293 0.97775 0.78924 0.0
C347 C 0.54505 0.971 0.75936 0.0
H348 H 0.36899 0.34826 0.66817 0.0
C349 C 0.39677 0.33196 0.67735 0.0
H350 H 0.48025 0.35353 0.69497 0.0
H351 H 0.52369 0.59601 0.6183 0.0
H352 H 0.49621 0.5388 0.56786 0.0
H353 H 0.46217 0.43336 0.56936 0.0
H354 H 0.4543 0.38435 0.62137 0.0
C355 C 0.45278 0.36951 0.68486 0.0
C356 C 0.47721 0.43373 0.68318 0.0
C357 C 0.48382 0.46205 0.65235 0.0
C358 C 0.50613 0.52335 0.6513 0.0
C359 C 0.50924 0.55002 0.62041 0.0
C360 C 0.49325 0.51762 0.59126 0.0
C361 C 0.47389 0.45822 0.59213 0.0
C362 C 0.4692 0.43054 0.62221 0.0
H363 H 0.62572 0.63663 0.65409 0.0
C364 C 0.60287 0.65575 0.66653 0.0
H365 H 0.52824 0.63986 0.69362 0.0
H366 H 0.46907 0.39289 0.74643 0.0
H367 H 0.50026 0.45074 0.79658 0.0
H368 H 0.54387 0.55773 0.79444 0.0
H369 H 0.55578 0.60736 0.74219 0.0
C370 C 0.55032 0.62101 0.6801 0.0
C371 C 0.52438 0.55654 0.6809 0.0
C372 C 0.51836 0.5283 0.71166 0.0
C373 C 0.49444 0.46681 0.71282 0.0
C374 C 0.4879 0.43961 0.74398 0.0
C375 C 0.50551 0.47228 0.77302 0.0
C376 C 0.52995 0.53248 0.77182 0.0
C377 C 0.53641 0.5604 0.74161 0.0
H378 H 0.91018 0.56288 0.04471 0.0
C379 C 0.91964 0.58992 0.02276 0.0
H380 H 0.9619 0.61252 0.97633 0.0
H381 H 0.09971 0.50016 0.06029 0.0
H382 H 0.13936 0.58864 0.09304 0.0
H383 H 0.10702 0.66027 0.08389 0.0
H384 H 0.03426 0.64343 0.04224 0.0
C385 C 0.95353 0.58735 0.99894 0.0
C386 C 0.97763 0.54743 0.00218 0.0
C387 C 0.02167 0.55897 0.02589 0.0
C388 C 0.04182 0.51869 0.03036 0.0
C389 C 0.08402 0.53006 0.05518 0.0
C390 C 0.10699 0.58058 0.07427 0.0
C391 C 0.08865 0.62082 0.06919 0.0
C392 C 0.04658 0.61042 0.04531 0.0
H393 H 0.12158 0.48115 0.99156 0.0
C394 C 0.09413 0.43951 0.00369 0.0
H395 H 0.01231 0.38421 0.02588 0.0
H396 H 0.89412 0.51316 0.95401 0.0
H397 H 0.85635 0.42588 0.92021 0.0
H398 H 0.89285 0.35708 0.92716 0.0
H399 H 0.96724 0.37502 0.96805 0.0
C400 C 0.04099 0.42625 0.0145 0.0
C401 C 0.01927 0.46794 0.01036 0.0
C402 C 0.97597 0.45691 0.98631 0.0
C403 C 0.95523 0.49679 0.98215 0.0
C404 C 0.91167 0.48449 0.95808 0.0
C405 C 0.88959 0.43454 0.93852 0.0
C406 C 0.91012 0.39579 0.94245 0.0
C407 C 0.9528 0.40659 0.96601 0.0
H408 H 0.63506 0.0118 0.33768 0.0
C409 C 0.65394 0.05883 0.33954 0.0
H410 H 0.63662 0.12852 0.34203 0.0
H411 H 0.38488 0.9702 0.2777 0.0
H412 H 0.43667 0.03347 0.23149 0.0
H413 H 0.54264 0.10214 0.23461 0.0
H414 H 0.59752 0.10763 0.28392 0.0
C415 C 0.61867 0.08155 0.34113 0.0
C416 C 0.55416 0.043 0.34031 0.0
C417 C 0.52247 0.04145 0.3117 0.0
C418 C 0.46116 0.00263 0.31015 0.0
C419 C 0.43111 1.00011 0.28064 0.0
C420 C 0.4604 0.0359 0.25381 0.0
C421 C 0.52008 0.07449 0.25555 0.0
C422 C 0.55103 0.07726 0.28402 0.0
H423 H 0.348 0.99518 0.33575 0.0
C424 C 0.33052 0.94831 0.33716 0.0
H425 H 0.3501 0.88032 0.33963 0.0
H426 H 0.60116 0.03848 0.39994 0.0
H427 H 0.54955 0.97545 0.44621 0.0
H428 H 0.44335 0.90781 0.44351 0.0
H429 H 0.38818 0.90284 0.39456 0.0
C430 C 0.36705 0.92693 0.33689 0.0
C431 C 0.43148 0.96644 0.3376 0.0
C432 C 0.46322 0.9682 0.3663 0.0
C433 C 0.52454 0.00681 0.36776 0.0
C434 C 0.55481 0.00897 0.39713 0.0
C435 C 0.52564 0.97331 0.42401 0.0
C436 C 0.46586 0.93526 0.4225 0.0
C437 C 0.43475 0.93274 0.39415 0.0
loop_
_geom_bond_atom_site_label_1
_geom_bond_atom_site_label_2
_geom_bond_distance
_geom_bond_site_symmetry_2
_ccdc_geom_bond_type
In0 O1 2.294 . S
In0 O2 2.326 . S
In0 O6 2.266 1_554 S
In0 O7 2.326 1_554 S
In0 O8 2.266 . S
In0 O9 2.326 . S
In0 O11 2.294 . S
In0 O12 2.326 . S
O1 In0 2.294 . S
O1 C10 1.240 . S
O2 In0 2.326 . S
O2 C10 1.252 . S
C3 O6 1.252 . S
C3 O7 1.260 . S
C4 O11 1.240 . S
C4 O12 1.252 . S
C5 O8 1.252 . S
C5 O9 1.260 . S
O6 In0 2.266 1_556 S
O6 C3 1.252 . S
O7 In0 2.326 1_556 S
O7 C3 1.260 . S
O8 In0 2.266 . S
O8 C5 1.252 . S
O9 In0 2.326 . S
O9 C5 1.260 . S
C10 O1 1.240 . S
C10 O2 1.252 . S
O11 In0 2.294 . S
O11 C4 1.240 . S
O12 In0 2.326 . S
O12 C4 1.252 . S
In13 O14 2.294 . S
In13 O15 2.326 . S
In13 O19 2.266 . S
In13 O20 2.326 . S
In13 O21 2.266 . S
In13 O22 2.326 . S
In13 O24 2.294 . S
In13 O25 2.326 . S
O14 In13 2.294 . S
O14 C23 1.240 . S
O15 In13 2.326 . S
O15 C23 1.252 . S
C16 O19 1.252 . S
C16 O20 1.260 . S
C17 O24 1.240 . S
C17 O25 1.252 . S
C18 O21 1.252 . S
C18 O22 1.260 . S
O19 In13 2.266 . S
O19 C16 1.252 . S
O20 In13 2.326 . S
O20 C16 1.260 . S
O21 In13 2.266 . S
O21 C18 1.252 . S
O22 In13 2.326 . S
O22 C18 1.260 . S
C23 O14 1.240 . S
C23 O15 1.252 . S
O24 In13 2.294 . S
O24 C17 1.240 . S
O25 In13 2.326 . S
O25 C17 1.252 . S
In26 O27 2.294 . S
In26 O28 2.326 . S
In26 O32 2.266 . S
In26 O33 2.326 . S
In26 O34 2.266 . S
In26 O35 2.326 . S
In26 O37 2.294 . S
In26 O38 2.326 . S
O27 In26 2.294 . S
O27 C36 1.240 . S
O28 In26 2.326 . S
O28 C36 1.252 . S
C29 O32 1.252 . S
C29 O33 1.260 . S
C30 O37 1.240 . S
C30 O38 1.252 . S
C31 O34 1.252 . S
C31 O35 1.260 . S
O32 In26 2.266 . S
O32 C29 1.252 . S
O33 In26 2.326 . S
O33 C29 1.260 . S
O34 In26 2.266 . S
O34 C31 1.252 . S
O35 In26 2.326 . S
O35 C31 1.260 . S
C36 O27 1.240 . S
C36 O28 1.252 . S
O37 In26 2.294 . S
O37 C30 1.240 . S
O38 In26 2.326 . S
O38 C30 1.252 . S
In39 O40 2.294 . S
In39 O41 2.326 . S
In39 O45 2.266 1_554 S
In39 O46 2.326 1_554 S
In39 O47 2.266 . S
In39 O48 2.326 . S
In39 O50 2.294 . S
In39 O51 2.326 . S
O40 In39 2.294 . S
O40 C49 1.240 . S
O41 In39 2.326 . S
O41 C49 1.252 . S
C42 O45 1.252 . S
C42 O46 1.260 . S
C43 O50 1.240 . S
C43 O51 1.252 . S
C44 O47 1.252 . S
C44 O48 1.260 . S
O45 In39 2.266 1_556 S
O45 C42 1.252 . S
O46 In39 2.326 1_556 S
O46 C42 1.260 . S
O47 In39 2.266 . S
O47 C44 1.252 . S
O48 In39 2.326 . S
O48 C44 1.260 . S
C49 O40 1.240 . S
C49 O41 1.252 . S
O50 In39 2.294 . S
O50 C43 1.240 . S
O51 In39 2.326 . S
O51 C43 1.252 . S
In52 O53 2.294 . S
In52 O54 2.326 . S
In52 O58 2.266 . S
In52 O59 2.326 . S
In52 O60 2.266 . S
In52 O61 2.326 . S
In52 O63 2.294 . S
In52 O64 2.326 . S
O53 In52 2.294 . S
O53 C62 1.240 . S
O54 In52 2.326 . S
O54 C62 1.252 . S
C55 O58 1.252 . S
C55 O59 1.260 . S
C56 O63 1.240 . S
C56 O64 1.252 . S
C57 O60 1.252 . S
C57 O61 1.260 . S
O58 In52 2.266 . S
O58 C55 1.252 . S
O59 In52 2.326 . S
O59 C55 1.260 . S
O60 In52 2.266 . S
O60 C57 1.252 . S
O61 In52 2.326 . S
O61 C57 1.260 . S
C62 O53 1.240 . S
C62 O54 1.252 . S
O63 In52 2.294 . S
O63 C56 1.240 . S
O64 In52 2.326 . S
O64 C56 1.252 . S
In65 O66 2.294 . S
In65 O67 2.326 . S
In65 O71 2.266 . S
In65 O72 2.326 . S
In65 O73 2.266 . S
In65 O74 2.326 . S
In65 O76 2.294 . S
In65 O77 2.326 . S
O66 In65 2.294 . S
O66 C75 1.240 . S
O67 In65 2.326 . S
O67 C75 1.252 . S
C68 O71 1.252 . S
C68 O72 1.260 . S
C69 O76 1.240 . S
C69 O77 1.252 . S
C70 O73 1.252 . S
C70 O74 1.260 . S
O71 In65 2.266 . S
O71 C68 1.252 . S
O72 In65 2.326 . S
O72 C68 1.260 . S
O73 In65 2.266 . S
O73 C70 1.252 . S
O74 In65 2.326 . S
O74 C70 1.260 . S
C75 O66 1.240 . S
C75 O67 1.252 . S
O76 In65 2.294 . S
O76 C69 1.240 . S
O77 In65 2.326 . S
O77 C69 1.252 . S
H78 C79 0.951 . S
C79 H78 0.951 . S
C79 C85 1.265 . S
H80 C85 0.950 . S
H81 C89 0.949 . S
H82 C90 0.950 . S
H83 C91 0.951 . S
H84 C92 0.951 . S
C85 C79 1.265 . S
C85 H80 0.950 . S
C85 C86 1.478 . S
C86 C85 1.478 . S
C86 C87 1.397 . S
C86 C103 1.394 . S
C87 C86 1.397 . S
C87 C88 1.438 . S
C87 C92 1.429 . S
C88 C87 1.438 . S
C88 C89 1.428 . S
C88 C101 1.394 . S
C89 H81 0.949 . S
C89 C88 1.428 . S
C89 C90 1.345 . S
C90 H82 0.950 . S
C90 C89 1.345 . S
C90 C91 1.424 . S
C91 H83 0.951 . S
C91 C90 1.424 . S
C91 C92 1.347 . S
C92 H84 0.951 . S
C92 C87 1.429 . S
C92 C91 1.347 . S
H93 C94 0.951 . S
C94 H93 0.951 . S
C94 C100 1.265 . S
H95 C100 0.950 . S
H96 C104 0.949 . S
H97 C105 0.950 . S
H98 C106 0.951 . S
H99 C107 0.951 . S
C100 C94 1.265 . S
C100 H95 0.950 . S
C100 C101 1.478 . S
C101 C88 1.394 . S
C101 C100 1.478 . S
C101 C102 1.397 . S
C102 C101 1.397 . S
C102 C103 1.438 . S
C102 C107 1.429 . S
C103 C86 1.394 . S
C103 C102 1.438 . S
C103 C104 1.428 . S
C104 H96 0.949 . S
C104 C103 1.428 . S
C104 C105 1.345 . S
C105 H97 0.950 . S
C105 C104 1.345 . S
C105 C106 1.424 . S
C106 H98 0.951 . S
C106 C105 1.424 . S
C106 C107 1.347 . S
C107 H99 0.951 . S
C107 C102 1.429 . S
C107 C106 1.347 . S
H108 C109 0.951 . S
C109 H108 0.951 . S
C109 C115 1.265 . S
H110 C115 0.950 . S
H111 C119 0.949 . S
H112 C120 0.953 . S
H113 C121 0.951 . S
H114 C122 0.951 . S
C115 C109 1.265 . S
C115 H110 0.950 . S
C115 C116 1.478 . S
C116 C115 1.478 . S
C116 C117 1.397 . S
C116 C133 1.394 . S
C117 C116 1.397 . S
C117 C118 1.438 1_655 S
C117 C122 1.429 . S
C118 C117 1.438 1_455 S
C118 C119 1.428 . S
C118 C131 1.394 . S
C119 H111 0.949 . S
C119 C118 1.428 . S
C119 C120 1.343 . S
C120 H112 0.953 . S
C120 C119 1.343 . S
C120 C121 1.422 1_455 S
C121 H113 0.951 . S
C121 C120 1.422 1_655 S
C121 C122 1.347 . S
C122 H114 0.951 . S
C122 C117 1.429 . S
C122 C121 1.347 . S
H123 C124 0.951 . S
C124 H123 0.951 . S
C124 C130 1.265 . S
H125 C130 0.950 . S
H126 C134 0.949 . S
H127 C135 0.953 . S
H128 C136 0.951 . S
H129 C137 0.951 . S
C130 C124 1.265 . S
C130 H125 0.950 . S
C130 C131 1.478 . S
C131 C118 1.394 . S
C131 C130 1.478 . S
C131 C132 1.397 . S
C132 C131 1.397 . S
C132 C133 1.438 1_455 S
C132 C137 1.429 . S
C133 C116 1.394 . S
C133 C132 1.438 1_655 S
C133 C134 1.428 . S
C134 H126 0.949 . S
C134 C133 1.428 . S
C134 C135 1.343 . S
C135 H127 0.953 . S
C135 C134 1.343 . S
C135 C136 1.422 1_655 S
C136 H128 0.951 . S
C136 C135 1.422 1_455 S
C136 C137 1.347 . S
C137 H129 0.951 . S
C137 C132 1.429 . S
C137 C136 1.347 . S
H138 C139 0.951 . S
C139 H138 0.951 . S
C139 C145 1.265 . S
H140 C145 0.950 . S
H141 C149 0.949 . S
H142 C150 0.950 . S
H143 C151 0.951 . S
H144 C152 0.951 . S
C145 C139 1.265 . S
C145 H140 0.950 . S
C145 C146 1.478 . S
C146 C145 1.478 . S
C146 C147 1.397 . S
C146 C163 1.394 1_545 S
C147 C146 1.397 . S
C147 C148 1.438 . S
C147 C152 1.429 . S
C148 C147 1.438 . S
C148 C149 1.428 . S
C148 C161 1.394 1_545 S
C149 H141 0.949 . S
C149 C148 1.428 . S
C149 C150 1.345 . S
C150 H142 0.950 . S
C150 C149 1.345 . S
C150 C151 1.424 . S
C151 H143 0.951 . S
C151 C150 1.424 . S
C151 C152 1.347 . S
C152 H144 0.951 . S
C152 C147 1.429 . S
C152 C151 1.347 . S
H153 C154 0.951 . S
C154 H153 0.951 . S
C154 C160 1.265 . S
H155 C160 0.950 . S
H156 C164 0.949 . S
H157 C165 0.950 . S
H158 C166 0.951 . S
H159 C167 0.951 . S
C160 C154 1.265 . S
C160 H155 0.950 . S
C160 C161 1.478 . S
C161 C148 1.394 1_565 S
C161 C160 1.478 . S
C161 C162 1.397 . S
C162 C161 1.397 . S
C162 C163 1.438 . S
C162 C167 1.429 . S
C163 C146 1.394 1_565 S
C163 C162 1.438 . S
C163 C164 1.428 . S
C164 H156 0.949 . S
C164 C163 1.428 . S
C164 C165 1.345 . S
C165 H157 0.950 . S
C165 C164 1.345 . S
C165 C166 1.424 . S
C166 H158 0.951 . S
C166 C165 1.424 . S
C166 C167 1.347 . S
C167 H159 0.951 . S
C167 C162 1.429 . S
C167 C166 1.347 . S
H168 C169 0.951 . S
C169 H168 0.951 . S
C169 C175 1.265 . S
H170 C175 0.950 . S
H171 C179 0.949 . S
H172 C180 0.950 . S
H173 C181 0.951 . S
H174 C182 0.951 . S
C175 C169 1.265 . S
C175 H170 0.950 . S
C175 C176 1.478 . S
C176 C175 1.478 . S
C176 C177 1.397 . S
C176 C193 1.394 . S
C177 C176 1.397 . S
C177 C178 1.438 . S
C177 C182 1.429 . S
C178 C177 1.438 . S
C178 C179 1.428 . S
C178 C191 1.394 . S
C179 H171 0.949 . S
C179 C178 1.428 . S
C179 C180 1.345 . S
C180 H172 0.950 . S
C180 C179 1.345 . S
C180 C181 1.424 . S
C181 H173 0.951 . S
C181 C180 1.424 . S
C181 C182 1.347 . S
C182 H174 0.951 . S
C182 C177 1.429 . S
C182 C181 1.347 . S
H183 C184 0.951 . S
C184 H183 0.951 . S
C184 C190 1.265 . S
H185 C190 0.950 . S
H186 C194 0.949 . S
H187 C195 0.950 . S
H188 C196 0.951 . S
H189 C197 0.951 . S
C190 C184 1.265 . S
C190 H185 0.950 . S
C190 C191 1.478 . S
C191 C178 1.394 . S
C191 C190 1.478 . S
C191 C192 1.397 . S
C192 C191 1.397 . S
C192 C193 1.438 . S
C192 C197 1.429 . S
C193 C176 1.394 . S
C193 C192 1.438 . S
C193 C194 1.428 . S
C194 H186 0.949 . S
C194 C193 1.428 . S
C194 C195 1.345 . S
C195 H187 0.950 . S
C195 C194 1.345 . S
C195 C196 1.424 . S
C196 H188 0.951 . S
C196 C195 1.424 . S
C196 C197 1.347 . S
C197 H189 0.951 . S
C197 C192 1.429 . S
C197 C196 1.347 . S
H198 C199 0.951 . S
C199 H198 0.951 . S
C199 C205 1.265 . S
H200 C205 0.950 . S
H201 C209 0.949 . S
H202 C210 0.950 . S
H203 C211 0.951 . S
H204 C212 0.951 . S
C205 C199 1.265 . S
C205 H200 0.950 . S
C205 C206 1.478 . S
C206 C205 1.478 . S
C206 C207 1.397 1_455 S
C206 C223 1.394 . S
C207 C206 1.397 1_655 S
C207 C208 1.438 . S
C207 C212 1.429 . S
C208 C207 1.438 . S
C208 C209 1.428 . S
C208 C221 1.394 . S
C209 H201 0.949 . S
C209 C208 1.428 . S
C209 C210 1.345 . S
C210 H202 0.950 . S
C210 C209 1.345 . S
C210 C211 1.424 . S
C211 H203 0.951 . S
C211 C210 1.424 . S
C211 C212 1.347 . S
C212 H204 0.951 . S
C212 C207 1.429 . S
C212 C211 1.347 . S
H213 C214 0.951 . S
C214 H213 0.951 . S
C214 C220 1.265 . S
H215 C220 0.950 . S
H216 C224 0.949 . S
H217 C225 0.950 . S
H218 C226 0.951 . S
H219 C227 0.951 . S
C220 C214 1.265 . S
C220 H215 0.950 . S
C220 C221 1.478 . S
C221 C208 1.394 . S
C221 C220 1.478 . S
C221 C222 1.397 1_655 S
C222 C221 1.397 1_455 S
C222 C223 1.438 . S
C222 C227 1.429 . S
C223 C206 1.394 . S
C223 C222 1.438 . S
C223 C224 1.428 . S
C224 H216 0.949 . S
C224 C223 1.428 . S
C224 C225 1.345 . S
C225 H217 0.950 . S
C225 C224 1.345 . S
C225 C226 1.424 . S
C226 H218 0.951 . S
C226 C225 1.424 . S
C226 C227 1.347 . S
C227 H219 0.951 . S
C227 C222 1.429 . S
C227 C226 1.347 . S
H228 C229 0.951 . S
C229 H228 0.951 . S
C229 C235 1.265 . S
H230 C235 0.950 . S
H231 C239 0.949 . S
H232 C240 0.950 . S
H233 C241 0.951 . S
H234 C242 0.951 . S
C235 C229 1.265 . S
C235 H230 0.950 . S
C235 C236 1.478 . S
C236 C235 1.478 . S
C236 C237 1.397 1_545 S
C236 C253 1.394 . S
C237 C236 1.397 1_565 S
C237 C238 1.438 . S
C237 C242 1.429 . S
C238 C237 1.438 . S
C238 C239 1.428 . S
C238 C251 1.394 . S
C239 H231 0.949 . S
C239 C238 1.428 . S
C239 C240 1.345 . S
C240 H232 0.950 . S
C240 C239 1.345 . S
C240 C241 1.424 . S
C241 H233 0.951 . S
C241 C240 1.424 . S
C241 C242 1.347 . S
C242 H234 0.951 . S
C242 C237 1.429 . S
C242 C241 1.347 . S
H243 C244 0.951 . S
C244 H243 0.951 . S
C244 C250 1.265 . S
H245 C250 0.950 . S
H246 C254 0.949 . S
H247 C255 0.950 . S
H248 C256 0.951 . S
H249 C257 0.951 . S
C250 C244 1.265 . S
C250 H245 0.950 . S
C250 C251 1.478 . S
C251 C238 1.394 . S
C251 C250 1.478 . S
C251 C252 1.397 1_565 S
C252 C251 1.397 1_545 S
C252 C253 1.438 . S
C252 C257 1.429 . S
C253 C236 1.394 . S
C253 C252 1.438 . S
C253 C254 1.428 . S
C254 H246 0.949 . S
C254 C253 1.428 . S
C254 C255 1.345 . S
C255 H247 0.950 . S
C255 C254 1.345 . S
C255 C256 1.424 . S
C256 H248 0.951 . S
C256 C255 1.424 . S
C256 C257 1.347 . S
C257 H249 0.951 . S
C257 C252 1.429 . S
C257 C256 1.347 . S
H258 C259 0.951 . S
C259 H258 0.951 . S
C259 C265 1.265 . S
H260 C265 0.950 . S
H261 C269 0.949 . S
H262 C270 0.950 . S
H263 C271 0.951 . S
H264 C272 0.951 . S
C265 C259 1.265 . S
C265 H260 0.950 . S
C265 C266 1.478 . S
C266 C265 1.478 . S
C266 C267 1.397 1_554 S
C266 C283 1.394 . S
C267 C266 1.397 1_556 S
C267 C268 1.438 . S
C267 C272 1.429 . S
C268 C267 1.438 . S
C268 C269 1.431 . S
C268 C281 1.391 1_556 S
C269 H261 0.949 . S
C269 C268 1.431 . S
C269 C270 1.345 . S
C270 H262 0.950 . S
C270 C269 1.345 . S
C270 C271 1.424 . S
C271 H263 0.951 . S
C271 C270 1.424 . S
C271 C272 1.347 . S
C272 H264 0.951 . S
C272 C267 1.429 . S
C272 C271 1.347 . S
H273 C274 0.951 . S
C274 H273 0.951 . S
C274 C280 1.265 . S
H275 C280 0.950 . S
H276 C284 0.949 . S
H277 C285 0.950 . S
H278 C286 0.951 . S
H279 C287 0.951 . S
C280 C274 1.265 . S
C280 H275 0.950 . S
C280 C281 1.478 . S
C281 C268 1.391 1_554 S
C281 C280 1.478 . S
C281 C282 1.397 . S
C282 C281 1.397 . S
C282 C283 1.438 . S
C282 C287 1.429 . S
C283 C266 1.394 . S
C283 C282 1.438 . S
C283 C284 1.428 . S
C284 H276 0.949 . S
C284 C283 1.428 . S
C284 C285 1.345 . S
C285 H277 0.950 . S
C285 C284 1.345 . S
C285 C286 1.424 . S
C286 H278 0.951 . S
C286 C285 1.424 . S
C286 C287 1.347 . S
C287 H279 0.951 . S
C287 C282 1.429 . S
C287 C286 1.347 . S
H288 C289 0.951 . S
C289 H288 0.951 . S
C289 C295 1.265 . S
H290 C295 0.950 . S
H291 C299 0.949 . S
H292 C300 0.950 . S
H293 C301 0.951 . S
H294 C302 0.951 . S
C295 C289 1.265 . S
C295 H290 0.950 . S
C295 C296 1.478 . S
C296 C295 1.478 . S
C296 C297 1.397 . S
C296 C313 1.394 1_655 S
C297 C296 1.397 . S
C297 C298 1.438 . S
C297 C302 1.429 . S
C298 C297 1.438 . S
C298 C299 1.428 . S
C298 C311 1.394 1_655 S
C299 H291 0.949 . S
C299 C298 1.428 . S
C299 C300 1.345 . S
C300 H292 0.950 . S
C300 C299 1.345 . S
C300 C301 1.424 . S
C301 H293 0.951 . S
C301 C300 1.424 . S
C301 C302 1.347 . S
C302 H294 0.951 . S
C302 C297 1.429 . S
C302 C301 1.347 . S
H303 C304 0.951 . S
C304 H303 0.951 . S
C304 C310 1.265 . S
H305 C310 0.950 . S
H306 C314 0.949 . S
H307 C315 0.950 . S
H308 C316 0.951 . S
H309 C317 0.951 . S
C310 C304 1.265 . S
C310 H305 0.950 . S
C310 C311 1.478 . S
C311 C298 1.394 1_455 S
C311 C310 1.478 . S
C311 C312 1.397 . S
C312 C311 1.397 . S
C312 C313 1.438 . S
C312 C317 1.429 . S
C313 C296 1.394 1_455 S
C313 C312 1.438 . S
C313 C314 1.428 . S
C314 H306 0.949 . S
C314 C313 1.428 . S
C314 C315 1.345 . S
C315 H307 0.950 . S
C315 C314 1.345 . S
C315 C316 1.424 . S
C316 H308 0.951 . S
C316 C315 1.424 . S
C316 C317 1.347 . S
C317 H309 0.951 . S
C317 C312 1.429 . S
C317 C316 1.347 . S
H318 C319 0.951 . S
C319 H318 0.951 . S
C319 C325 1.265 . S
H320 C325 0.950 1_565 S
H321 C329 0.949 . S
H322 C330 0.950 . S
H323 C331 0.951 . S
H324 C332 0.951 . S
C325 C319 1.265 . S
C325 H320 0.950 1_545 S
C325 C326 1.478 . S
C326 C325 1.478 . S
C326 C327 1.397 . S
C326 C343 1.394 . S
C327 C326 1.397 . S
C327 C328 1.438 1_545 S
C327 C332 1.429 . S
C328 C327 1.438 1_565 S
C328 C329 1.428 . S
C328 C341 1.394 . S
C329 H321 0.949 . S
C329 C328 1.428 . S
C329 C330 1.345 . S
C330 H322 0.950 . S
C330 C329 1.345 . S
C330 C331 1.424 1_565 S
C331 H323 0.951 . S
C331 C330 1.424 1_545 S
C331 C332 1.347 . S
C332 H324 0.951 . S
C332 C327 1.429 . S
C332 C331 1.347 . S
H333 C334 0.951 . S
C334 H333 0.951 . S
C334 C340 1.265 . S
H335 C340 0.950 1_545 S
H336 C344 0.949 . S
H337 C345 0.950 . S
H338 C346 0.951 . S
H339 C347 0.951 . S
C340 C334 1.265 . S
C340 H335 0.950 1_565 S
C340 C341 1.478 . S
C341 C328 1.394 . S
C341 C340 1.478 . S
C341 C342 1.397 . S
C342 C341 1.397 . S
C342 C343 1.438 1_565 S
C342 C347 1.429 . S
C343 C326 1.394 . S
C343 C342 1.438 1_545 S
C343 C344 1.428 . S
C344 H336 0.949 . S
C344 C343 1.428 . S
C344 C345 1.345 . S
C345 H337 0.950 . S
C345 C344 1.345 . S
C345 C346 1.424 1_545 S
C346 H338 0.951 . S
C346 C345 1.424 1_565 S
C346 C347 1.347 . S
C347 H339 0.951 . S
C347 C342 1.429 . S
C347 C346 1.347 . S
H348 C349 0.951 . S
C349 H348 0.951 . S
C349 C355 1.265 . S
H350 C355 0.950 . S
H351 C359 0.949 . S
H352 C360 0.950 . S
H353 C361 0.951 . S
H354 C362 0.951 . S
C355 C349 1.265 . S
C355 H350 0.950 . S
C355 C356 1.478 . S
C356 C355 1.478 . S
C356 C357 1.397 . S
C356 C373 1.394 . S
C357 C356 1.397 . S
C357 C358 1.438 . S
C357 C362 1.429 . S
C358 C357 1.438 . S
C358 C359 1.428 . S
C358 C371 1.394 . S
C359 H351 0.949 . S
C359 C358 1.428 . S
C359 C360 1.345 . S
C360 H352 0.950 . S
C360 C359 1.345 . S
C360 C361 1.424 . S
C361 H353 0.951 . S
C361 C360 1.424 . S
C361 C362 1.347 . S
C362 H354 0.951 . S
C362 C357 1.429 . S
C362 C361 1.347 . S
H363 C364 0.951 . S
C364 H363 0.951 . S
C364 C370 1.265 . S
H365 C370 0.950 . S
H366 C374 0.949 . S
H367 C375 0.950 . S
H368 C376 0.951 . S
H369 C377 0.951 . S
C370 C364 1.265 . S
C370 H365 0.950 . S
C370 C371 1.478 . S
C371 C358 1.394 . S
C371 C370 1.478 . S
C371 C372 1.397 . S
C372 C371 1.397 . S
C372 C373 1.438 . S
C372 C377 1.429 . S
C373 C356 1.394 . S
C373 C372 1.438 . S
C373 C374 1.428 . S
C374 H366 0.949 . S
C374 C373 1.428 . S
C374 C375 1.345 . S
C375 H367 0.950 . S
C375 C374 1.345 . S
C375 C376 1.424 . S
C376 H368 0.951 . S
C376 C375 1.424 . S
C376 C377 1.347 . S
C377 H369 0.951 . S
C377 C372 1.429 . S
C377 C376 1.347 . S
H378 C379 0.951 . S
C379 H378 0.951 . S
C379 C385 1.265 . S
H380 C385 0.950 1_456 S
H381 C389 0.949 . S
H382 C390 0.950 . S
H383 C391 0.951 . S
H384 C392 0.951 . S
C385 C379 1.265 . S
C385 H380 0.950 1_654 S
C385 C386 1.478 . S
C386 C385 1.478 . S
C386 C387 1.397 1_655 S
C386 C403 1.394 1_554 S
C387 C386 1.397 1_455 S
C387 C388 1.438 . S
C387 C392 1.429 . S
C388 C387 1.438 . S
C388 C389 1.428 . S
C388 C401 1.394 . S
C389 H381 0.949 . S
C389 C388 1.428 . S
C389 C390 1.345 . S
C390 H382 0.950 . S
C390 C389 1.345 . S
C390 C391 1.424 . S
C391 H383 0.951 . S
C391 C390 1.424 . S
C391 C392 1.347 . S
C392 H384 0.951 . S
C392 C387 1.429 . S
C392 C391 1.347 . S
H393 C394 0.951 . S
C394 H393 0.951 . S
C394 C400 1.265 . S
H395 C400 0.950 1_655 S
H396 C404 0.949 . S
H397 C405 0.950 . S
H398 C406 0.951 . S
H399 C407 0.951 . S
C400 C394 1.265 . S
C400 H395 0.950 1_455 S
C400 C401 1.478 . S
C401 C388 1.394 . S
C401 C400 1.478 . S
C401 C402 1.397 1_454 S
C402 C401 1.397 1_656 S
C402 C403 1.438 . S
C402 C407 1.429 . S
C403 C386 1.394 1_556 S
C403 C402 1.438 . S
C403 C404 1.428 . S
C404 H396 0.949 . S
C404 C403 1.428 . S
C404 C405 1.345 . S
C405 H397 0.950 . S
C405 C404 1.345 . S
C405 C406 1.424 . S
C406 H398 0.951 . S
C406 C405 1.424 . S
C406 C407 1.347 . S
C407 H399 0.951 . S
C407 C402 1.429 . S
C407 C406 1.347 . S
H408 C409 0.951 . S
C409 H408 0.951 . S
C409 C415 1.265 . S
H410 C415 0.950 . S
H411 C419 0.949 . S
H412 C420 0.950 . S
H413 C421 0.951 . S
H414 C422 0.951 . S
C415 C409 1.265 . S
C415 H410 0.950 . S
C415 C416 1.478 . S
C416 C415 1.478 . S
C416 C417 1.397 . S
C416 C433 1.394 . S
C417 C416 1.397 . S
C417 C418 1.438 1_545 S
C417 C422 1.429 . S
C418 C417 1.438 1_565 S
C418 C419 1.428 . S
C418 C431 1.394 . S
C419 H411 0.949 . S
C419 C418 1.428 . S
C419 C420 1.345 1_565 S
C420 H412 0.950 . S
C420 C419 1.345 1_545 S
C420 C421 1.424 . S
C421 H413 0.951 . S
C421 C420 1.424 . S
C421 C422 1.347 . S
C422 H414 0.951 . S
C422 C417 1.429 . S
C422 C421 1.347 . S
H423 C424 0.951 . S
C424 H423 0.951 . S
C424 C430 1.265 . S
H425 C430 0.950 . S
H426 C434 0.949 . S
H427 C435 0.950 . S
H428 C436 0.951 . S
H429 C437 0.951 . S
C430 C424 1.265 . S
C430 H425 0.950 . S
C430 C431 1.478 . S
C431 C418 1.394 . S
C431 C430 1.478 . S
C431 C432 1.397 . S
C432 C431 1.397 . S
C432 C433 1.438 1_565 S
C432 C437 1.429 . S
C433 C416 1.394 . S
C433 C432 1.438 1_545 S
C433 C434 1.428 . S
C434 H426 0.949 . S
C434 C433 1.428 . S
C434 C435 1.345 1_545 S
C435 H427 0.950 . S
C435 C434 1.345 1_565 S
C435 C436 1.424 . S
C436 H428 0.951 . S
C436 C435 1.424 . S
C436 C437 1.347 . S
C437 H429 0.951 . S
C437 C432 1.429 . S
C437 C436 1.347 . S
C79 C69 1.314 . S
C94 C3 1.321 . S
C109 C16 1.304 . S
C124 C10 1.329 . S
C139 C23 1.294 . S
C154 C31 1.332 . S
C169 C42 1.297 . S
C184 C30 1.310 . S
C199 C57 1.328 . S
C214 C49 1.284 . S
C229 C70 1.332 . S
C244 C56 1.285 . S
C259 C5 1.415 . S
C274 C44 1.415 . S
C289 C18 1.463 . S
C304 C55 1.457 . S
C319 C68 1.423 . S
C334 C29 1.413 . S
C349 C75 1.426 . S
C364 C36 1.441 . S
C379 C43 1.384 . S
C394 C4 1.395 . S
C409 C17 1.436 . S
C424 C62 1.438 . S
