# Generated by pormake.
# Topology zfe, (5)-cn, num edge types: 1
# Building blocks:
#     Node 0, Type 0, BuildingBlock: BEQFEK_clean_sbu_0, # of connection points: 5
#     Node 1, Type 0, BuildingBlock: BEQFEK_clean_sbu_0, # of connection points: 5
#     Node 2, Type 0, BuildingBlock: BEQFEK_clean_sbu_0, # of connection points: 5
#     Node 3, Type 0, BuildingBlock: BEQFEK_clean_sbu_0, # of connection points: 5
#     Node 4, Type 0, BuildingBlock: BEQFEK_clean_sbu_0, # of connection points: 5
#     Node 5, Type 0, BuildingBlock: BEQFEK_clean_sbu_0, # of connection points: 5
#     Node 6, Type 0, BuildingBlock: BEQFEK_clean_sbu_0, # of connection points: 5
#     Node 7, Type 0, BuildingBlock: BEQFEK_clean_sbu_0, # of connection points: 5
#     Node 8, Type 0, BuildingBlock: BEQFEK_clean_sbu_0, # of connection points: 5
#     Node 9, Type 0, BuildingBlock: BEQFEK_clean_sbu_0, # of connection points: 5
#     Node 10, Type 0, BuildingBlock: BEQFEK_clean_sbu_0, # of connection points: 5
#     Node 11, Type 0, BuildingBlock: BEQFEK_clean_sbu_0, # of connection points: 5
#     Node 12, Type 0, BuildingBlock: BEQFEK_clean_sbu_0, # of connection points: 5
#     Node 13, Type 0, BuildingBlock: BEQFEK_clean_sbu_0, # of connection points: 5
#     Node 14, Type 0, BuildingBlock: BEQFEK_clean_sbu_0, # of connection points: 5
#     Node 15, Type 0, BuildingBlock: BEQFEK_clean_sbu_0, # of connection points: 5
#     Edge 16, Type (0, 0), BuildingBlock: EZIPEK_clean_linker_0, # of connection points: 2
#     Edge 17, Type (0, 0), BuildingBlock: EZIPEK_clean_linker_0, # of connection points: 2
#     Edge 18, Type (0, 0), BuildingBlock: EZIPEK_clean_linker_0, # of connection points: 2
#     Edge 19, Type (0, 0), BuildingBlock: EZIPEK_clean_linker_0, # of connection points: 2
#     Edge 20, Type (0, 0), BuildingBlock: EZIPEK_clean_linker_0, # of connection points: 2
#     Edge 21, Type (0, 0), BuildingBlock: EZIPEK_clean_linker_0, # of connection points: 2
#     Edge 22, Type (0, 0), BuildingBlock: EZIPEK_clean_linker_0, # of connection points: 2
#     Edge 23, Type (0, 0), BuildingBlock: EZIPEK_clean_linker_0, # of connection points: 2
#     Edge 24, Type (0, 0), BuildingBlock: EZIPEK_clean_linker_0, # of connection points: 2
#     Edge 25, Type (0, 0), BuildingBlock: EZIPEK_clean_linker_0, # of connection points: 2
#     Edge 26, Type (0, 0), BuildingBlock: EZIPEK_clean_linker_0, # of connection points: 2
#     Edge 27, Type (0, 0), BuildingBlock: EZIPEK_clean_linker_0, # of connection points: 2
#     Edge 28, Type (0, 0), BuildingBlock: EZIPEK_clean_linker_0, # of connection points: 2
#     Edge 29, Type (0, 0), BuildingBlock: EZIPEK_clean_linker_0, # of connection points: 2
#     Edge 30, Type (0, 0), BuildingBlock: EZIPEK_clean_linker_0, # of connection points: 2
#     Edge 31, Type (0, 0), BuildingBlock: EZIPEK_clean_linker_0, # of connection points: 2
#     Edge 32, Type (0, 0), BuildingBlock: EZIPEK_clean_linker_0, # of connection points: 2
#     Edge 33, Type (0, 0), BuildingBlock: EZIPEK_clean_linker_0, # of connection points: 2
#     Edge 34, Type (0, 0), BuildingBlock: EZIPEK_clean_linker_0, # of connection points: 2
#     Edge 35, Type (0, 0), BuildingBlock: EZIPEK_clean_linker_0, # of connection points: 2
#     Edge 36, Type (0, 0), BuildingBlock: EZIPEK_clean_linker_0, # of connection points: 2
#     Edge 37, Type (0, 0), BuildingBlock: EZIPEK_clean_linker_0, # of connection points: 2
#     Edge 38, Type (0, 0), BuildingBlock: EZIPEK_clean_linker_0, # of connection points: 2
#     Edge 39, Type (0, 0), BuildingBlock: EZIPEK_clean_linker_0, # of connection points: 2
#     Edge 40, Type (0, 0), BuildingBlock: EZIPEK_clean_linker_0, # of connection points: 2
#     Edge 41, Type (0, 0), BuildingBlock: EZIPEK_clean_linker_0, # of connection points: 2
#     Edge 42, Type (0, 0), BuildingBlock: EZIPEK_clean_linker_0, # of connection points: 2
#     Edge 43, Type (0, 0), BuildingBlock: EZIPEK_clean_linker_0, # of connection points: 2
#     Edge 44, Type (0, 0), BuildingBlock: EZIPEK_clean_linker_0, # of connection points: 2
#     Edge 45, Type (0, 0), BuildingBlock: EZIPEK_clean_linker_0, # of connection points: 2
#     Edge 46, Type (0, 0), BuildingBlock: EZIPEK_clean_linker_0, # of connection points: 2
#     Edge 47, Type (0, 0), BuildingBlock: EZIPEK_clean_linker_0, # of connection points: 2
#     Edge 48, Type (0, 0), BuildingBlock: EZIPEK_clean_linker_0, # of connection points: 2
#     Edge 49, Type (0, 0), BuildingBlock: EZIPEK_clean_linker_0, # of connection points: 2
#     Edge 50, Type (0, 0), BuildingBlock: EZIPEK_clean_linker_0, # of connection points: 2
#     Edge 51, Type (0, 0), BuildingBlock: EZIPEK_clean_linker_0, # of connection points: 2
#     Edge 52, Type (0, 0), BuildingBlock: EZIPEK_clean_linker_0, # of connection points: 2
#     Edge 53, Type (0, 0), BuildingBlock: EZIPEK_clean_linker_0, # of connection points: 2
#     Edge 54, Type (0, 0), BuildingBlock: EZIPEK_clean_linker_0, # of connection points: 2
#     Edge 55, Type (0, 0), BuildingBlock: EZIPEK_clean_linker_0, # of connection points: 2
# Relax obj value: 0.096
# Max RMSD: 0.099
# Mean RMSD: 0.099
data_MOF--net-zfe--node1-BEQFEK_clean_sbu_0--edge1-EZIPEK_clean_linker_0
_symmetry_space_group_name_H-M    P1
_symmetry_Int_Tables_number       1
_symmetry_cell_setting            triclinic
loop_
_symmetry_equiv_pos_as_xyz
'x, y, z'
_cell_length_a     43.886506
_cell_length_b     43.851772
_cell_length_c     22.910736
_cell_angle_alpha  89.956664
_cell_angle_beta   90.095558
_cell_angle_gamma 89.933465
loop_
_atom_site_label
_atom_site_type_symbol
_atom_site_fract_x
_atom_site_fract_y
_atom_site_fract_z
_atom_type_partial_charge
Co0 Co 0.99758 0.17719 0.05622 0.0
Co1 Co 0.05324 0.22124 0.06468 0.0
C2 C 0.01105 0.2165 0.16318 0.0
O3 O 0.99652 0.19614 0.13494 0.0
O4 O 0.03379 0.23018 0.14098 0.0
C5 C 0.93402 0.16397 0.06715 0.0
O6 O 0.93291 0.19043 0.09381 0.0
C7 C 0.0906 0.27698 0.06323 0.0
C8 C 0.13412 0.25872 0.02939 0.0
C9 C 0.11994 0.28524 0.04757 0.0
N10 N 0.08763 0.24681 0.05465 0.0
N11 N 0.11377 0.23604 0.03483 0.0
C12 C 0.06549 0.29741 0.08365 0.0
H13 H 0.043 0.28764 0.07171 0.0
H14 H 0.06804 0.32061 0.06487 0.0
H15 H 0.0665 0.29923 0.13191 0.0
C16 C 0.99084 0.20764 0.94225 0.0
N17 N 0.00321 0.20596 0.99599 0.0
N18 N 0.02619 0.22513 0.99963 0.0
C19 C 0.02875 0.24005 0.94831 0.0
C20 C 0.00659 0.22929 0.91023 0.0
C21 C 0.96751 0.18579 0.91966 0.0
H22 H 0.97462 0.16209 0.92991 0.0
H23 H 0.94563 0.1901 0.94223 0.0
H24 H 0.96405 0.18829 0.87189 0.0
O25 O 0.0313 0.14727 0.05499 0.0
O26 O 0.07017 0.17894 0.06826 0.0
H27 H 0.07634 0.24871 0.93706 0.0
H28 H 0.05213 0.26987 0.88765 0.0
C29 C 0.05437 0.26102 0.93285 0.0
H30 H 0.05448 0.2806 0.96329 0.0
H31 H 0.11757 0.21323 0.02401 0.0
O32 O 0.95908 0.15432 0.04652 0.0
C33 C 0.05961 0.15202 0.06295 0.0
Co34 Co 0.828 0.00707 0.06757 0.0
Co35 Co 0.77357 0.05307 0.0592 0.0
C36 C 0.78046 0.01644 0.16473 0.0
O37 O 0.80434 0.00481 0.14203 0.0
O38 O 0.76401 0.03559 0.13696 0.0
C39 C 0.84861 0.94507 0.06288 0.0
O40 O 0.81949 0.93926 0.05571 0.0
C41 C 0.72222 0.09725 0.0599 0.0
C42 C 0.72842 0.11787 0.97251 0.0
C43 C 0.71092 0.11953 0.02253 0.0
N44 N 0.74515 0.0828 0.03264 0.0
N45 N 0.74879 0.09541 0.98069 0.0
C46 C 0.71346 0.09164 0.12201 0.0
H47 H 0.73388 0.09408 0.15027 0.0
H48 H 0.70525 0.06784 0.12654 0.0
H49 H 0.69545 0.10767 0.13669 0.0
C50 C 0.80609 0.99383 0.94725 0.0
N51 N 0.80248 0.00614 1.00066 0.0
N52 N 0.77707 0.02205 1.00132 0.0
C53 C 0.76249 0.01815 0.94994 0.0
C54 C 0.78088 0.00103 0.9133 0.0
C55 C 0.83517 0.97999 0.92629 0.0
H56 H 0.85461 0.99257 0.94563 0.0
H57 H 0.83622 0.95583 0.94046 0.0
H58 H 0.83692 0.98072 0.878 0.0
O59 O 0.85123 0.04489 0.06735 0.0
O60 O 0.81221 0.07719 0.06508 0.0
H61 H 0.73366 0.0505 0.90615 0.0
H62 H 0.71837 0.01295 0.91113 0.0
C63 C 0.73157 0.03046 0.93533 0.0
H64 H 0.71905 0.0369 0.97549 0.0
H65 H 0.76603 0.08941 0.95156 0.0
O66 O 0.85737 0.97252 0.06829 0.0
C67 C 0.84074 0.07188 0.0669 0.0
Co68 Co 0.99525 0.82116 0.06478 0.0
Co69 Co 0.94132 0.77419 0.07471 0.0
C70 C 0.98527 0.78191 0.17193 0.0
O71 O 0.00018 0.80084 0.141 0.0
O72 O 0.9614 0.76889 0.15237 0.0
C73 C 0.05891 0.83823 0.05431 0.0
O74 O 0.06424 0.80878 0.05677 0.0
C75 C 0.90635 0.7162 0.07451 0.0
C76 C 0.86262 0.73268 0.03805 0.0
C77 C 0.87751 0.70677 0.05735 0.0
N78 N 0.90831 0.74648 0.06555 0.0
N79 N 0.88201 0.75612 0.04419 0.0
C80 C 0.93192 0.69677 0.09652 0.0
H81 H 0.95415 0.70802 0.08821 0.0
H82 H 0.93127 0.67394 0.07567 0.0
H83 H 0.92947 0.69368 0.14434 0.0
C84 C -0.00063 0.79328 0.94866 0.0
N85 N 0.98911 0.79293 0.00383 0.0
N86 N 0.96842 0.7714 0.00932 0.0
C87 C 0.96613 0.75634 0.95798 0.0
C88 C 0.98533 0.77012 0.91761 0.0
C89 C 0.01794 0.81864 0.92389 0.0
H90 H 0.01015 0.84047 0.94319 0.0
H91 H 0.0422 0.81484 0.93546 0.0
H92 H 0.01588 0.82007 0.87571 0.0
O93 O 0.95992 0.84838 0.06846 0.0
O94 O 0.92166 0.81531 0.07409 0.0
H95 H 0.92058 0.73971 0.94904 0.0
H96 H 0.94785 0.72105 0.90205 0.0
C97 C 0.94424 0.73099 0.94604 0.0
H98 H 0.94729 0.71284 0.97914 0.0
H99 H 0.87749 0.77868 0.03251 0.0
O100 O 0.03159 0.84787 0.05428 0.0
C101 C 0.93162 0.84255 0.07185 0.0
Co102 Co 0.17052 0.9926 0.07444 0.0
Co103 Co 0.22258 0.94331 0.07205 0.0
C104 C 0.21484 0.98242 0.17528 0.0
O105 O 0.19202 0.99531 0.15105 0.0
O106 O 0.23047 0.96213 0.14907 0.0
C107 C 0.14791 0.05425 0.0855 0.0
O108 O 0.17384 0.0595 0.11232 0.0
C109 C 0.28148 0.90981 0.06777 0.0
C110 C 0.26745 0.86993 0.01513 0.0
C111 C 0.29202 0.88273 0.04381 0.0
N112 N 0.2518 0.91271 0.05399 0.0
N113 N 0.24365 0.8888 0.02257 0.0
C114 C 0.29915 0.9326 0.10244 0.0
H115 H 0.29204 0.95605 0.09014 0.0
H116 H 0.32403 0.92965 0.09572 0.0
H117 H 0.29394 0.92946 0.14944 0.0
C118 C 0.19484 0.00377 0.95694 0.0
N119 N 0.19755 0.99145 0.01049 0.0
N120 N 0.22095 0.97268 0.01118 0.0
C121 C 0.23492 0.97376 0.95882 0.0
C122 C 0.2184 0.99295 0.92224 0.0
C123 C 0.16759 0.02161 0.93724 0.0
H124 H 0.14661 0.01166 0.95628 0.0
H125 H 0.16969 0.04538 0.95311 0.0
H126 H 0.1655 0.02195 0.88898 0.0
O127 O 0.14615 0.95531 0.07301 0.0
O128 O 0.18314 0.92057 0.07451 0.0
H129 H 0.25495 0.93096 0.93554 0.0
H130 H 0.27266 0.96353 0.90163 0.0
C131 C 0.26205 0.95494 0.94239 0.0
H132 H 0.27906 0.95547 0.97816 0.0
H133 H 0.22177 0.88542 0.00591 0.0
O134 O 0.14207 0.02771 0.0663 0.0
C135 C 0.15502 0.92772 0.07394 0.0
Co136 Co 0.00131 0.82486 0.52053 0.0
Co137 Co 0.05319 0.77632 0.52208 0.0
C138 C 0.01639 0.78206 0.41752 0.0
O139 O 0.00249 0.80366 0.44366 0.0
O140 O 0.03751 0.76696 0.44264 0.0
C141 C 0.93857 0.83867 0.50314 0.0
O142 O 0.93737 0.81092 0.48182 0.0
C143 C 0.09779 0.72535 0.52247 0.0
C144 C 0.12242 0.73569 0.60449 0.0
C145 C 0.12122 0.71532 0.5585 0.0
N146 N 0.08552 0.75043 0.54656 0.0
N147 N 0.10045 0.75651 0.59534 0.0
C148 C 0.08789 0.71218 0.46535 0.0
H149 H 0.08989 0.72985 0.43087 0.0
H150 H 0.06351 0.70565 0.46817 0.0
H151 H 0.10176 0.69199 0.45324 0.0
C152 C 0.98963 0.79765 0.63587 0.0
N153 N 0.00297 0.79744 0.58309 0.0
N154 N 0.02202 0.77439 0.58002 0.0
C155 C 0.01964 0.75775 0.62937 0.0
C156 C -0.00015 0.77256 0.66733 0.0
C157 C 0.97081 0.82358 0.65836 0.0
H158 H 0.97606 0.84484 0.63416 0.0
H159 H 0.94636 0.81814 0.65222 0.0
H160 H 0.97491 0.82718 0.70567 0.0
O161 O 0.03579 0.85278 0.52515 0.0
O162 O 0.0725 0.81803 0.5191 0.0
H163 H 0.05781 0.73292 0.66398 0.0
H164 H 0.02215 0.71338 0.66898 0.0
C165 C 0.03614 0.72843 0.64074 0.0
H166 H 0.04122 0.71665 0.59904 0.0
H167 H 0.09559 0.77499 0.62244 0.0
O168 O 0.96351 0.84914 0.52274 0.0
C169 C 0.06382 0.8458 0.52151 0.0
Co170 Co 0.17177 0.00533 0.51745 0.0
Co171 Co 0.22275 0.05536 0.51956 0.0
C172 C 0.21633 0.01562 0.41727 0.0
O173 O 0.19362 0.0027 0.44154 0.0
O174 O 0.23177 0.0361 0.44333 0.0
C175 C 0.15325 0.9427 0.5095 0.0
O176 O 0.18069 0.93843 0.48825 0.0
C177 C 0.28041 0.09063 0.52374 0.0
C178 C 0.26532 0.13002 0.57665 0.0
C179 C 0.29016 0.11797 0.5477 0.0
N180 N 0.25091 0.08683 0.53777 0.0
N181 N 0.24211 0.11045 0.56935 0.0
C182 C 0.29864 0.06849 0.4886 0.0
H183 H 0.29228 0.04481 0.50059 0.0
H184 H 0.32344 0.07211 0.49522 0.0
H185 H 0.29318 0.07171 0.44168 0.0
C186 C 0.19559 0.99545 0.63587 0.0
N187 N 0.19824 0.00754 0.58217 0.0
N188 N 0.2213 0.02665 0.58149 0.0
C189 C 0.23511 0.02609 0.63412 0.0
C190 C 0.21881 0.00683 0.67078 0.0
C191 C 0.16876 0.97699 0.65529 0.0
H192 H 0.14768 0.98572 0.63433 0.0
H193 H 0.17207 0.95301 0.64143 0.0
H194 H 0.16601 0.97756 0.7034 0.0
O195 O 0.14623 0.04192 0.51606 0.0
O196 O 0.18276 0.07703 0.51383 0.0
H197 H 0.2545 0.06916 0.65734 0.0
H198 H 0.27278 0.03685 0.69125 0.0
C199 C 0.26197 0.04528 0.65049 0.0
H200 H 0.27891 0.04501 0.61466 0.0
H201 H 0.22019 0.11316 0.58615 0.0
O202 O 0.14487 0.96928 0.52468 0.0
C203 C 0.1547 0.0696 0.51387 0.0
Co204 Co 0.99498 0.17373 0.51645 0.0
Co205 Co 0.94009 0.21908 0.51072 0.0
C206 C 0.98274 0.21199 0.41002 0.0
O207 O -0.00133 0.19346 0.4399 0.0
O208 O 0.95901 0.22445 0.43149 0.0
C209 C 0.05819 0.15881 0.50937 0.0
O210 O 0.06065 0.18645 0.48785 0.0
C211 C 0.90693 0.2779 0.52232 0.0
C212 C 0.85972 0.26104 0.53167 0.0
C213 C 0.87707 0.28731 0.53061 0.0
N214 N 0.90716 0.24726 0.51863 0.0
N215 N 0.87883 0.23744 0.52395 0.0
C216 C 0.93472 0.29752 0.52017 0.0
H217 H 0.95568 0.28336 0.52214 0.0
H218 H 0.93437 0.31402 0.55689 0.0
H219 H 0.9347 0.31081 0.47896 0.0
C220 C 0.00464 0.20362 0.6287 0.0
N221 N 0.99106 0.20281 0.57625 0.0
N222 N 0.96822 0.22209 0.57513 0.0
C223 C 0.9663 0.2358 0.6278 0.0
C224 C 0.99158 0.22704 0.66229 0.0
C225 C 0.02203 0.1764 0.65084 0.0
H226 H 0.01366 0.15543 0.62908 0.0
H227 H 0.0465 0.17881 0.64015 0.0
H228 H 0.01914 0.17304 0.69844 0.0
O229 O 0.95953 0.14554 0.51631 0.0
O230 O 0.92088 0.17826 0.51157 0.0
H231 H 0.93324 0.24305 0.69691 0.0
H232 H 0.93429 0.27227 0.64064 0.0
C233 C 0.93627 0.24753 0.64969 0.0
H234 H 0.91734 0.23584 0.6269 0.0
H235 H 0.87253 0.2145 0.52323 0.0
O236 O 0.03236 0.14891 0.52555 0.0
C237 C 0.93107 0.15112 0.51375 0.0
Co238 Co 0.82439 0.99104 0.50661 0.0
Co239 Co 0.7736 0.94117 0.50821 0.0
C240 C 0.77946 0.98184 0.40644 0.0
O241 O 0.80221 0.99465 0.43085 0.0
O242 O 0.76428 0.96103 0.43216 0.0
C243 C 0.84277 0.05348 0.5018 0.0
O244 O 0.81494 0.05807 0.48254 0.0
C245 C 0.71572 0.90651 0.51551 0.0
C246 C 0.7322 0.8653 0.56163 0.0
C247 C 0.70649 0.87857 0.53767 0.0
N248 N 0.74575 0.90946 0.52575 0.0
N249 N 0.75538 0.88475 0.55329 0.0
C250 C 0.6965 0.93015 0.48614 0.0
H251 H 0.69958 0.92832 0.43821 0.0
H252 H 0.70407 0.95327 0.49945 0.0
H253 H 0.67203 0.92688 0.49662 0.0
C254 C 0.80172 -0.00032 0.62627 0.0
N255 N 0.79844 0.98831 0.57209 0.0
N256 N 0.7755 0.96905 0.57151 0.0
C257 C 0.76252 0.96866 0.62489 0.0
C258 C 0.77908 0.98766 0.66163 0.0
C259 C 0.82874 0.01786 0.64573 0.0
H260 H 0.8496 0.00951 0.62359 0.0
H261 H 0.82523 0.04203 0.63342 0.0
H262 H 0.83201 0.01655 0.6937 0.0
O263 O 0.84995 0.95448 0.50384 0.0
O264 O 0.81338 0.91944 0.50177 0.0
H265 H 0.74456 0.92464 0.64548 0.0
H266 H 0.72683 0.95554 0.68473 0.0
C267 C 0.73651 0.94855 0.64206 0.0
H268 H 0.71847 0.94961 0.60825 0.0
H269 H 0.77783 0.88125 0.5668 0.0
O270 O 0.85151 0.02669 0.51464 0.0
C271 C 0.84142 0.92683 0.50154 0.0
Co272 Co 0.49902 0.67546 0.553 0.0
Co273 Co 0.55332 0.7213 0.56458 0.0
C274 C 0.5102 0.71454 0.6616 0.0
O275 O 0.49642 0.69398 0.6324 0.0
O276 O 0.53278 0.72895 0.64041 0.0
C277 C 0.43501 0.65953 0.54893 0.0
O278 O 0.43026 0.68881 0.55703 0.0
C279 C 0.58945 0.77817 0.5647 0.0
C280 C 0.6336 0.76072 0.53232 0.0
C281 C 0.61873 0.787 0.54966 0.0
N282 N 0.58717 0.7479 0.55643 0.0
N283 N 0.61371 0.73763 0.53759 0.0
C284 C 0.56376 0.79819 0.58391 0.0
H285 H 0.54154 0.78737 0.5735 0.0
H286 H 0.5654 0.82095 0.56291 0.0
H287 H 0.56507 0.80135 0.63188 0.0
C288 C 0.49214 0.70764 0.43934 0.0
N289 N 0.50418 0.70522 0.49334 0.0
N290 N 0.52671 0.72488 0.49854 0.0
C291 C 0.52929 0.74062 0.44808 0.0
C292 C 0.50758 0.73009 0.40894 0.0
C293 C 0.46985 0.68562 0.41421 0.0
H294 H 0.44802 0.68766 0.43813 0.0
H295 H 0.46562 0.68993 0.36715 0.0
H296 H 0.47887 0.66218 0.42 0.0
O297 O 0.53396 0.647 0.55222 0.0
O298 O 0.57172 0.67963 0.56776 0.0
H299 H 0.57678 0.75058 0.43979 0.0
H300 H 0.55286 0.77108 0.3889 0.0
C301 C 0.55456 0.76227 0.43421 0.0
H302 H 0.55355 0.78185 0.46458 0.0
H303 H 0.61808 0.71489 0.52706 0.0
O304 O 0.46208 0.6497 0.54313 0.0
C305 C 0.56202 0.65247 0.5613 0.0
Co306 Co 0.32498 0.50491 0.57113 0.0
Co307 Co 0.2721 0.55267 0.56185 0.0
C308 C 0.27872 0.51642 0.66872 0.0
O309 O 0.30203 0.5036 0.64625 0.0
O310 O 0.26296 0.53598 0.64054 0.0
C311 C 0.34595 0.4435 0.5864 0.0
O312 O 0.31889 0.43901 0.6092 0.0
C313 C 0.21992 0.59594 0.56191 0.0
C314 C 0.22825 0.61919 0.47766 0.0
C315 C 0.20927 0.61904 0.52574 0.0
N316 N 0.24397 0.58277 0.53581 0.0
N317 N 0.24882 0.59688 0.48566 0.0
C318 C 0.20931 0.58825 0.62211 0.0
H319 H 0.20361 0.56363 0.62419 0.0
H320 H 0.18915 0.60203 0.63474 0.0
H321 H 0.22814 0.59238 0.65353 0.0
C322 C 0.30289 0.49102 0.45292 0.0
N323 N 0.29917 0.50409 0.50554 0.0
N324 N 0.27462 0.52128 0.50464 0.0
C325 C 0.26067 0.51783 0.45253 0.0
C326 C 0.27869 0.49945 0.41733 0.0
C327 C 0.33125 0.47458 0.43485 0.0
H328 H 0.35143 0.48513 0.45591 0.0
H329 H 0.32981 0.45054 0.44957 0.0
H330 H 0.33418 0.47485 0.38676 0.0
O331 O 0.34915 0.54211 0.56837 0.0
O332 O 0.31131 0.57583 0.56487 0.0
H333 H 0.23527 0.55296 0.40889 0.0
H334 H 0.21772 0.51628 0.40793 0.0
C335 C 0.23105 0.53228 0.43545 0.0
H336 H 0.21761 0.53843 0.47467 0.0
H337 H 0.26687 0.59186 0.45767 0.0
O338 O 0.35326 0.46978 0.56788 0.0
C339 C 0.33959 0.56943 0.56669 0.0
Co340 Co 0.49698 0.32108 0.57137 0.0
Co341 Co 0.44175 0.27675 0.58011 0.0
C342 C 0.48521 0.28312 0.67928 0.0
O343 O 0.50012 0.30269 0.64988 0.0
O344 O 0.46193 0.26987 0.6578 0.0
C345 C 0.56023 0.33737 0.57844 0.0
O346 O 0.56361 0.31076 0.60395 0.0
C347 C 0.40723 0.21891 0.56977 0.0
C348 C 0.36024 0.23678 0.56232 0.0
C349 C 0.37711 0.21015 0.56281 0.0
N350 N 0.40809 0.24953 0.57333 0.0
N351 N 0.3799 0.25997 0.56911 0.0
C352 C 0.43466 0.1987 0.57071 0.0
H353 H 0.45587 0.21244 0.56902 0.0
H354 H 0.4338 0.18268 0.53326 0.0
H355 H 0.43459 0.18488 0.61128 0.0
C356 C 0.50524 0.29003 0.45948 0.0
N357 N 0.49228 0.29144 0.51243 0.0
N358 N 0.46876 0.27308 0.51433 0.0
C359 C 0.46561 0.25956 0.46169 0.0
C360 C 0.49077 0.26727 0.42619 0.0
C361 C 0.52389 0.31627 0.43705 0.0
H362 H 0.51628 0.33773 0.45803 0.0
H363 H 0.5482 0.31281 0.44849 0.0
H364 H 0.52133 0.31956 0.38936 0.0
O365 O 0.46232 0.35 0.5695 0.0
O366 O 0.42345 0.31824 0.58113 0.0
H367 H 0.43129 0.25404 0.39407 0.0
H368 H 0.43197 0.22455 0.44988 0.0
C369 C 0.43483 0.24921 0.44105 0.0
H370 H 0.41672 0.2616 0.46488 0.0
H371 H 0.37406 0.28305 0.57 0.0
O372 O 0.53417 0.34567 0.56028 0.0
C373 C 0.43394 0.34515 0.57581 0.0
Co374 Co 0.67271 0.49339 0.57283 0.0
Co375 Co 0.72295 0.44229 0.5766 0.0
C376 C 0.7143 0.48175 0.67824 0.0
O377 O 0.69257 0.49495 0.65101 0.0
O378 O 0.72996 0.46062 0.65466 0.0
C379 C 0.65149 0.55573 0.58321 0.0
O380 O 0.67696 0.56046 0.61195 0.0
C381 C 0.78071 0.40672 0.57412 0.0
C382 C 0.76546 0.36677 0.52296 0.0
C383 C 0.79047 0.3792 0.55083 0.0
N384 N 0.75105 0.41028 0.56064 0.0
N385 N 0.74217 0.38628 0.5302 0.0
C386 C 0.79921 0.42942 0.6074 0.0
H387 H 0.79036 0.45281 0.59968 0.0
H388 H 0.8236 0.42794 0.59487 0.0
H389 H 0.79726 0.42446 0.65474 0.0
C390 C 0.70038 0.50372 0.45855 0.0
N391 N 0.70114 0.49112 0.51198 0.0
N392 N 0.72379 0.47152 0.51498 0.0
C393 C 0.73924 0.47225 0.46411 0.0
C394 C 0.72443 0.49214 0.42616 0.0
C395 C 0.67446 0.52284 0.43666 0.0
H396 H 0.65263 0.51407 0.45424 0.0
H397 H 0.67748 0.54655 0.45237 0.0
H398 H 0.67329 0.52306 0.38829 0.0
O399 O 0.64669 0.45721 0.5697 0.0
O400 O 0.68228 0.4214 0.57832 0.0
H401 H 0.75882 0.42869 0.4448 0.0
H402 H 0.77762 0.46032 0.40967 0.0
C403 C 0.76623 0.45267 0.45034 0.0
H404 H 0.78271 0.45357 0.48699 0.0
H405 H 0.72017 0.38335 0.5138 0.0
O406 O 0.64563 0.5294 0.56305 0.0
C407 C 0.65441 0.42938 0.57435 0.0
Co408 Co 0.49745 0.3197 0.03326 0.0
Co409 Co 0.55354 0.27581 0.02963 0.0
C410 C 0.51535 0.28119 0.92598 0.0
O411 O 0.49978 0.30068 0.95448 0.0
O412 O 0.53784 0.26741 0.94942 0.0
C413 C 0.43735 0.3388 1.00043 0.0
O414 O 0.44035 0.31858 0.95861 0.0
C415 C 0.59943 0.22621 0.02534 0.0
C416 C 0.62919 0.2401 0.09876 0.0
C417 C 0.62528 0.21791 0.05655 0.0
N418 N 0.58837 0.25204 0.04867 0.0
N419 N 0.60638 0.26027 0.0922 0.0
C420 C 0.58575 0.21046 0.97374 0.0
H421 H 0.58651 0.22599 0.9355 0.0
H422 H 0.56143 0.20544 0.98275 0.0
H423 H 0.59805 0.18905 0.96316 0.0
C424 C 0.48853 0.28873 0.14651 0.0
N425 N 0.50155 0.29072 0.09342 0.0
N426 N 0.52351 0.27038 0.08945 0.0
C427 C 0.524 0.25375 0.13907 0.0
C428 C 0.50242 0.26532 0.17736 0.0
C429 C 0.46628 0.31146 0.16999 0.0
H430 H 0.47047 0.33425 0.1506 0.0
H431 H 0.44292 0.30415 0.15798 0.0
H432 H 0.46765 0.31288 0.2183 0.0
O433 O 0.53027 0.35006 0.03982 0.0
O434 O 0.56953 0.31851 0.03039 0.0
H435 H 0.56736 0.23966 0.17205 0.0
H436 H 0.53712 0.21317 0.18556 0.0
C437 C 0.54663 0.22927 0.15291 0.0
H438 H 0.55276 0.21658 0.11281 0.0
H439 H 0.60291 0.27963 0.11781 0.0
O440 O 0.45828 0.34208 0.03829 0.0
C441 C 0.55876 0.34537 0.03534 0.0
Co442 Co 0.66991 0.50393 0.03031 0.0
Co443 Co 0.71972 0.5551 0.02171 0.0
C444 C 0.71048 0.51186 0.92418 0.0
O445 O 0.69083 0.49772 0.95484 0.0
O446 O 0.72444 0.53515 0.94405 0.0
C447 C 0.64818 0.44215 0.02519 0.0
O448 O 0.67401 0.43677 0.99826 0.0
C449 C 0.77848 0.58902 0.0227 0.0
C450 C 0.7632 0.63153 0.06572 0.0
C451 C 0.78851 0.61717 0.0427 0.0
N452 N 0.74841 0.58699 0.0335 0.0
N453 N 0.73951 0.61253 0.05894 0.0
C454 C 0.79713 0.56418 0.99589 0.0
H455 H 0.78674 0.54161 0.00506 0.0
H456 H 0.82092 0.56495 0.0124 0.0
H457 H 0.79757 0.56733 0.94786 0.0
C458 C 0.69768 0.49651 0.14565 0.0
N459 N 0.69797 0.50813 0.09143 0.0
N460 N 0.72067 0.52752 0.08638 0.0
C461 C 0.73647 0.52776 0.13702 0.0
C462 C 0.72204 0.50854 0.17657 0.0
C463 C 0.67227 0.47738 0.16924 0.0
H464 H 0.65018 0.48533 0.15119 0.0
H465 H 0.67578 0.45341 0.15546 0.0
H466 H 0.67133 0.47822 0.2176 0.0
O467 O 0.64428 0.54079 0.02562 0.0
O468 O 0.67989 0.57667 0.02034 0.0
H469 H 0.75637 0.57175 0.14997 0.0
H470 H 0.77444 0.5416 0.19119 0.0
C471 C 0.76355 0.54751 0.14892 0.0
H472 H 0.78044 0.54466 0.1135 0.0
H473 H 0.71726 0.6168 0.07273 0.0
O474 O 0.64221 0.46884 0.04345 0.0
C475 C 0.65206 0.56865 0.02204 0.0
Co476 Co 0.49298 0.67434 0.0168 0.0
Co477 Co 0.43924 0.72077 0.01037 0.0
C478 C 0.48157 0.71158 0.90909 0.0
O479 O 0.49749 0.6933 0.93957 0.0
O480 O 0.45804 0.72449 0.93046 0.0
C481 C 0.55583 0.65824 0.01323 0.0
O482 O 0.5591 0.68594 0.99239 0.0
C483 C 0.40771 0.78058 0.01989 0.0
C484 C 0.36003 0.76504 0.02893 0.0
C485 C 0.37807 0.79082 0.0274 0.0
N486 N 0.40714 0.74992 0.01708 0.0
N487 N 0.37853 0.74089 0.0222 0.0
C488 C 0.43601 0.79944 0.01753 0.0
H489 H 0.45659 0.78476 0.02019 0.0
H490 H 0.43597 0.81624 0.05375 0.0
H491 H 0.43647 0.81239 0.97593 0.0
C492 C 0.50347 0.70463 0.12849 0.0
N493 N 0.48982 0.70386 0.07609 0.0
N494 N 0.46756 0.72378 0.07456 0.0
C495 C 0.46614 0.73794 0.1269 0.0
C496 C 0.49121 0.72867 0.16153 0.0
C497 C 0.51995 0.67704 0.15151 0.0
H498 H 0.51084 0.65616 0.13054 0.0
H499 H 0.54447 0.67852 0.14076 0.0
H500 H 0.51701 0.67425 0.19924 0.0
O501 O 0.45684 0.64706 0.01675 0.0
O502 O 0.41883 0.68058 0.01343 0.0
H503 H 0.43334 0.74657 0.19583 0.0
H504 H 0.43538 0.77553 0.13913 0.0
C505 C 0.43652 0.75078 0.14856 0.0
H506 H 0.4172 0.73966 0.12589 0.0
H507 H 0.37162 0.71812 0.022 0.0
O508 O 0.52957 0.64868 0.02746 0.0
C509 C 0.42848 0.65324 0.0154 0.0
Co510 Co 0.32377 0.49223 0.00977 0.0
Co511 Co 0.27322 0.4421 0.0118 0.0
C512 C 0.27824 0.48283 0.91045 0.0
O513 O 0.30114 0.49561 0.93445 0.0
O514 O 0.26319 0.46204 0.93641 0.0
C515 C 0.34073 0.5551 0.00699 0.0
O516 O 0.31228 0.55932 0.99104 0.0
C517 C 0.21615 0.40611 0.01809 0.0
C518 C 0.23318 0.36573 0.06615 0.0
C519 C 0.20744 0.37805 0.04048 0.0
N520 N 0.24592 0.41001 0.02975 0.0
N521 N 0.25587 0.38581 0.05849 0.0
C522 C 0.19671 0.42892 0.98689 0.0
H523 H 0.20116 0.42732 0.93933 0.0
H524 H 0.20289 0.45232 1.00098 0.0
H525 H 0.17215 0.42458 0.99497 0.0
C526 C 0.3017 0.49993 0.13018 0.0
N527 N 0.2982 0.489 0.07573 0.0
N528 N 0.2751 0.46993 0.0749 0.0
C529 C 0.26212 0.46939 0.12823 0.0
C530 C 0.27894 0.48794 0.16533 0.0
C531 C 0.32899 0.51757 0.15005 0.0
H532 H 0.34945 0.51037 0.12528 0.0
H533 H 0.325 0.54213 0.14175 0.0
H534 H 0.3332 0.51439 0.19745 0.0
O535 O 0.34967 0.45602 0.00621 0.0
O536 O 0.31323 0.42082 0.0047 0.0
H537 H 0.24348 0.42572 0.1495 0.0
H538 H 0.22556 0.45717 0.18674 0.0
C539 C 0.23571 0.44966 0.14478 0.0
H540 H 0.21812 0.45052 0.11006 0.0
H541 H 0.27824 0.38306 0.07311 0.0
O542 O 0.35042 0.52832 0.01721 0.0
C543 C 0.34123 0.42834 0.00396 0.0
C544 C 0.14357 0.33055 0.09717 0.0
C545 C 0.13405 0.31581 0.0452 0.0
C546 C 0.16703 0.34877 0.98688 0.0
C547 C 0.17755 0.36258 0.03907 0.0
N548 N 0.16904 0.37421 0.14024 0.0
N549 N 0.12839 0.3174 0.94079 0.0
C550 C 0.16325 0.35612 0.09301 0.0
C551 C 0.14289 0.32734 0.99002 0.0
N552 N 0.13575 0.31884 0.15034 0.0
N553 N 0.18151 0.35423 0.93519 0.0
H554 H 0.11045 0.30182 0.94233 0.0
H555 H 0.132 0.32682 0.89964 0.0
H556 H 0.19936 0.3697 0.931 0.0
H557 H 0.17716 0.34195 0.89718 0.0
H558 H 0.14494 0.32657 0.18957 0.0
H559 H 0.12156 0.29998 0.15516 0.0
H560 H 0.15748 0.37225 0.17972 0.0
H561 H 0.18332 0.39321 0.1377 0.0
C562 C 0.65746 0.1374 0.04311 0.0
C563 C 0.68877 0.14414 0.03505 0.0
C564 C 0.67721 0.19863 0.03221 0.0
C565 C 0.64645 0.19219 0.04624 0.0
N566 N 0.60831 0.15574 0.0761 0.0
N567 N 0.72938 0.18124 0.03695 0.0
C568 C 0.63678 0.16162 0.05483 0.0
C569 C 0.69894 0.1748 0.03402 0.0
N570 N 0.64729 0.10809 0.03773 0.0
N571 N 0.68553 0.2273 0.01505 0.0
H572 H 0.74606 0.1644 0.04096 0.0
H573 H 0.73781 0.20329 0.04197 0.0
H574 H 0.67003 0.24524 0.01105 0.0
H575 H 0.70709 0.23243 0.99883 0.0
H576 H 0.62427 0.10235 0.03689 0.0
H577 H 0.66178 0.08974 0.02943 0.0
H578 H 0.60123 0.13409 0.08896 0.0
H579 H 0.5926 0.17287 0.08564 0.0
C580 C 0.83216 0.64336 0.99288 0.0
C581 C 0.81949 0.63044 0.04406 0.0
C582 C 0.85308 0.66143 0.10523 0.0
C583 C 0.86431 0.67576 0.05418 0.0
N584 N 0.87299 0.67344 0.95075 0.0
N585 N 0.82478 0.61894 0.14611 0.0
C586 C 0.85683 0.66408 0.99836 0.0
C587 C 0.8326 0.63657 0.09933 0.0
N588 N 0.8192 0.63778 0.93972 0.0
N589 N 0.86002 0.67299 0.15897 0.0
H590 H 0.8099 0.6005 0.14215 0.0
H591 H 0.83523 0.62064 0.18682 0.0
H592 H 0.87493 0.6912 0.16486 0.0
H593 H 0.84963 0.66572 0.19736 0.0
H594 H 0.82516 0.64943 0.90181 0.0
H595 H 0.80111 0.6227 0.93406 0.0
H596 H 0.87031 0.66404 0.90933 0.0
H597 H 0.89129 0.6885 0.95431 0.0
C598 C 0.33149 0.85186 0.09673 0.0
C599 C 0.32257 0.86847 0.04641 0.0
C600 C 0.35936 0.84049 0.98679 0.0
C601 C 0.36631 0.82212 0.03594 0.0
N602 N 0.36745 0.81625 0.14012 0.0
N603 N 0.33437 0.88611 0.94985 0.0
C604 C 0.35538 0.83012 0.09196 0.0
C605 C 0.33898 0.86543 0.99359 0.0
N606 N 0.31565 0.85513 0.14763 0.0
N607 N 0.37049 0.83277 0.93315 0.0
H608 H 0.31952 0.90457 0.95459 0.0
H609 H 0.34715 0.88668 0.91163 0.0
H610 H 0.3859 0.81494 0.92711 0.0
H611 H 0.36345 0.84303 0.89442 0.0
H612 H 0.31861 0.84102 0.18375 0.0
H613 H 0.29832 0.87115 0.15285 0.0
H614 H 0.36233 0.82267 0.18273 0.0
H615 H 0.3849 0.80014 0.13704 0.0
C616 C 0.17448 0.69727 0.5425 0.0
C617 C 0.14316 0.69018 0.54884 0.0
C618 C 0.15484 0.63573 0.53918 0.0
C619 C 0.18635 0.64288 0.53844 0.0
N620 N 0.22634 0.67972 0.55408 0.0
N621 N 0.10381 0.65257 0.56378 0.0
C622 C 0.19623 0.67346 0.54451 0.0
C623 C 0.13334 0.65934 0.55015 0.0
N624 N 0.18342 0.72664 0.53216 0.0
N625 N 0.14541 0.60666 0.52762 0.0
H626 H 0.08745 0.66924 0.57228 0.0
H627 H 0.09614 0.63045 0.57137 0.0
H628 H 0.16053 0.58872 0.52014 0.0
H629 H 0.12266 0.60082 0.52116 0.0
H630 H 0.20572 0.73254 0.52144 0.0
H631 H 0.16808 0.7447 0.52807 0.0
H632 H 0.23431 0.70141 0.56454 0.0
H633 H 0.24291 0.66275 0.55786 0.0
C634 C 0.35209 0.17195 0.49868 0.0
C635 C 0.36399 0.17941 0.55434 0.0
C636 C 0.33728 0.13585 0.59689 0.0
C637 C 0.32024 0.13306 0.54466 0.0
N638 N 0.31167 0.14721 0.44427 0.0
N639 N 0.36933 0.16822 0.65684 0.0
C640 C 0.32825 0.15017 0.49448 0.0
C641 C 0.35763 0.16079 0.60341 0.0
N642 N 0.36333 0.18619 0.45026 0.0
N643 N 0.33342 0.11485 0.6403 0.0
H644 H 0.38466 0.18609 0.66287 0.0
H645 H 0.36271 0.15774 0.69558 0.0
H646 H 0.31861 0.09636 0.63585 0.0
H647 H 0.34677 0.11405 0.67787 0.0
H648 H 0.35753 0.18009 0.40777 0.0
H649 H 0.38074 0.20232 0.45275 0.0
H650 H 0.31391 0.16167 0.40848 0.0
H651 H 0.29442 0.13109 0.43937 0.0
C652 C 0.8298 0.34745 0.60208 0.0
C653 C 0.82085 0.36456 0.55242 0.0
C654 C 0.85746 0.33703 0.49159 0.0
C655 C 0.86457 0.31826 0.54012 0.0
N656 N 0.86567 0.31132 0.64412 0.0
N657 N 0.83242 0.38297 0.45627 0.0
C658 C 0.85361 0.32567 0.59645 0.0
C659 C 0.8371 0.36191 0.49933 0.0
N660 N 0.81409 0.35041 0.6532 0.0
N661 N 0.86844 0.32977 0.43759 0.0
H662 H 0.81761 0.40141 0.46168 0.0
H663 H 0.84513 0.38386 0.41799 0.0
H664 H 0.88381 0.31198 0.43076 0.0
H665 H 0.86127 0.34035 0.39926 0.0
H666 H 0.81702 0.33599 0.68889 0.0
H667 H 0.79691 0.36655 0.65902 0.0
H668 H 0.86056 0.31731 0.68696 0.0
H669 H 0.88308 0.29521 0.64051 0.0
C670 C 0.64224 0.83281 0.59756 0.0
C671 C 0.63218 0.81785 0.54624 0.0
C672 C 0.66473 0.85032 0.48608 0.0
C673 C 0.67613 0.86404 0.53766 0.0
N674 N 0.66903 0.87615 0.63899 0.0
N675 N 0.62541 0.81898 0.4421 0.0
C676 C 0.66232 0.85802 0.59226 0.0
C677 C 0.64047 0.8291 0.49055 0.0
N678 N 0.6345 0.82161 0.65117 0.0
N679 N 0.67854 0.85565 0.43366 0.0
H680 H 0.60745 0.80348 0.44473 0.0
H681 H 0.6286 0.82813 0.40061 0.0
H682 H 0.69636 0.87108 0.42854 0.0
H683 H 0.67359 0.84341 0.39589 0.0
H684 H 0.64402 0.82939 0.69004 0.0
H685 H 0.61981 0.80317 0.65664 0.0
H686 H 0.65797 0.87453 0.67904 0.0
H687 H 0.68365 0.89485 0.63552 0.0
C688 C 0.1305 0.10342 0.04007 0.0
C689 C 0.12501 0.07892 0.07914 0.0
C690 C 0.07652 0.10231 0.10845 0.0
C691 C 0.08106 0.12578 0.06644 0.0
N692 N 0.10886 0.14482 0.98333 0.0
N693 N 0.09129 0.05256 0.1452 0.0
C694 C 0.10714 0.12531 0.02982 0.0
C695 C 0.09746 0.07753 0.1114 0.0
N696 N 0.15811 0.10593 0.01291 0.0
N697 N 0.05322 0.10445 0.14782 0.0
H698 H 0.10687 0.03496 0.15218 0.0
H699 H 0.07001 0.04831 0.16351 0.0
H700 H 0.03707 0.12183 0.14723 0.0
H701 H 0.05113 0.0903 0.18409 0.0
H702 H 0.16472 0.12513 0.98937 0.0
H703 H 0.17542 0.0898 0.01739 0.0
H704 H 0.12574 0.14355 0.95153 0.0
H705 H 0.09168 0.16037 0.97297 0.0
C706 C 0.90718 0.12074 0.11589 0.0
C707 C 0.90791 0.14288 0.07077 0.0
C708 C 0.86371 0.11932 0.02379 0.0
C709 C 0.8624 0.09765 0.06985 0.0
N710 N 0.87776 0.08225 0.16664 0.0
N711 N 0.88312 0.16806 0.99026 0.0
C712 C 0.88267 0.09968 0.118 0.0
C713 C 0.88489 0.14375 0.02744 0.0
N714 N 0.93021 0.1195 0.15614 0.0
N715 N 0.84595 0.11567 0.97519 0.0
H716 H 0.89817 0.18642 0.99243 0.0
H717 H 0.86513 0.17146 0.96127 0.0
H718 H 0.83045 0.09785 0.97028 0.0
H719 H 0.84834 0.12881 0.93761 0.0
H720 H 0.93295 0.10162 0.18563 0.0
H721 H 0.94778 0.1355 0.15791 0.0
H722 H 0.88988 0.08487 0.20541 0.0
H723 H 0.85953 0.06712 0.17031 0.0
C724 C 0.88963 0.87362 0.11712 0.0
C725 C 0.90983 0.86828 0.06991 0.0
C726 C 0.89361 0.91593 0.02376 0.0
C727 C 0.87082 0.91959 0.06717 0.0
N728 N 0.84573 0.90111 0.15408 0.0
N729 N 0.92635 0.88066 0.97235 0.0
C730 C 0.86827 0.89803 0.11334 0.0
C731 C 0.91053 0.88842 0.02158 0.0
N732 N 0.89193 0.8564 0.16674 0.0
N733 N 0.89969 0.93886 0.98515 0.0
H734 H 0.93839 0.86025 0.96821 0.0
H735 H 0.92491 0.89289 0.93344 0.0
H736 H 0.88844 0.95968 0.98568 0.0
H737 H 0.91817 0.93849 0.95669 0.0
H738 H 0.88021 0.86126 0.2051 0.0
H739 H 0.90756 0.83863 0.17143 0.0
H740 H 0.84025 0.88418 0.18417 0.0
H741 H 0.83144 0.92008 0.15629 0.0
C742 C 0.11642 0.90003 0.01476 0.0
C743 C 0.13197 0.90342 0.06852 0.0
C744 C 0.10191 0.86189 0.11115 0.0
C745 C 0.08444 0.86035 0.05877 0.0
N746 N 0.07209 0.88121 0.96396 0.0
N747 N 0.13851 0.89018 0.16971 0.0
C748 C 0.09083 0.88038 0.01153 0.0
C749 C 0.12466 0.88486 0.11715 0.0
N750 N 0.12681 0.91488 0.96612 0.0
N751 N 0.09643 0.84172 0.15549 0.0
H752 H 0.15556 0.90649 0.17528 0.0
H753 H 0.13194 0.87997 0.20871 0.0
H754 H 0.07828 0.82642 0.15535 0.0
H755 H 0.11066 0.83908 0.19152 0.0
H756 H 0.11867 0.91065 0.92419 0.0
H757 H 0.14559 0.92945 0.96666 0.0
H758 H 0.07333 0.89786 0.93163 0.0
H759 H 0.05365 0.8667 0.95896 0.0
C760 C 0.13516 0.89297 0.55136 0.0
C761 C 0.1311 0.91728 0.51115 0.0
C762 C 0.08426 0.89349 0.47454 0.0
C763 C 0.08682 0.87059 0.51835 0.0
N764 N 0.11156 0.85174 0.60537 0.0
N765 N 0.10085 0.94246 0.43737 0.0
C766 C 0.11154 0.87106 0.55845 0.0
C767 C 0.10529 0.9181 0.47379 0.0
N768 N 0.16156 0.89079 0.58286 0.0
N769 N 0.06265 0.89099 0.43171 0.0
H770 H 0.11697 0.95962 0.43123 0.0
H771 H 0.08047 0.94662 0.41542 0.0
H772 H 0.04638 0.8738 0.43067 0.0
H773 H 0.06218 0.90458 0.39444 0.0
H774 H 0.16735 0.87178 0.60778 0.0
H775 H 0.17889 0.90699 0.5807 0.0
H776 H 0.1272 0.85311 0.63947 0.0
H777 H 0.09414 0.83615 0.61342 0.0
C778 C 0.08559 0.11484 0.46403 0.0
C779 C 0.08443 0.13776 0.50767 0.0
C780 C 0.12925 0.11592 0.55581 0.0
C781 C 0.13126 0.09378 0.51076 0.0
N782 N 0.11578 0.07609 0.41555 0.0
N783 N 0.10843 0.16443 0.58733 0.0
C784 C 0.11064 0.09431 0.463 0.0
C785 C 0.10739 0.13973 0.55104 0.0
N786 N 0.06264 0.1126 0.42377 0.0
N787 N 0.14709 0.11329 0.60458 0.0
H788 H 0.0927 0.18223 0.58505 0.0
H789 H 0.12637 0.16866 0.61598 0.0
H790 H 0.16297 0.09583 0.61038 0.0
H791 H 0.14433 0.12678 0.64158 0.0
H792 H 0.0602 0.09417 0.39552 0.0
H793 H 0.04491 0.12839 0.42062 0.0
H794 H 0.10343 0.07766 0.37683 0.0
H795 H 0.1343 0.06123 0.41267 0.0
C796 C 0.88959 0.07928 0.46416 0.0
C797 C 0.86485 0.07889 0.50395 0.0
C798 C 0.88558 0.1237 0.55403 0.0
C799 C 0.909 0.12555 0.51151 0.0
N800 N 0.92993 0.10866 0.41967 0.0
N801 N 0.83616 0.10336 0.58055 0.0
C802 C 0.91025 0.10417 0.46501 0.0
C803 C 0.86182 0.10198 0.5469 0.0
N804 N 0.89323 0.05599 0.42507 0.0
N805 N 0.88678 0.14179 0.60259 0.0
H806 H 0.81851 0.08756 0.57743 0.0
H807 H 0.83117 0.12154 0.60813 0.0
H808 H 0.90422 0.15746 0.61008 0.0
H809 H 0.8722 0.13931 0.63808 0.0
H810 H 0.91293 0.05288 0.40049 0.0
H811 H 0.87727 0.03864 0.41932 0.0
H812 H 0.92951 0.09603 0.38123 0.0
H813 H 0.94498 0.12691 0.41805 0.0
C814 C 0.91014 0.88075 0.45357 0.0
C815 C 0.91184 0.85895 0.49925 0.0
C816 C 0.8672 0.88147 0.54637 0.0
C817 C 0.86475 0.90258 0.49955 0.0
N818 N 0.87944 0.91841 0.40279 0.0
N819 N 0.88889 0.83404 0.5819 0.0
C820 C 0.88498 0.90112 0.4514 0.0
C821 C 0.88928 0.85782 0.5433 0.0
N822 N 0.93283 0.88224 0.4128 0.0
N823 N 0.84958 0.88499 0.59512 0.0
H824 H 0.90486 0.81641 0.58084 0.0
H825 H 0.87128 0.83029 0.61143 0.0
H826 H 0.83346 0.90232 0.59961 0.0
H827 H 0.85267 0.87238 0.6332 0.0
H828 H 0.93486 0.89991 0.38268 0.0
H829 H 0.95078 0.86664 0.41111 0.0
H830 H 0.89148 0.91612 0.36393 0.0
H831 H 0.86093 0.93327 0.39938 0.0
C832 C 0.63404 0.60527 0.53938 0.0
C833 C 0.62857 0.58039 0.57755 0.0
C834 C 0.57961 0.60292 0.60636 0.0
C835 C 0.58409 0.62676 0.56508 0.0
N836 N 0.61235 0.64701 0.48357 0.0
N837 N 0.59489 0.5532 0.64242 0.0
C838 C 0.6105 0.627 0.52927 0.0
C839 C 0.60088 0.57845 0.60927 0.0
N840 N 0.66177 0.60822 0.51288 0.0
N841 N 0.55597 0.6044 0.64507 0.0
H842 H 0.61071 0.53583 0.64957 0.0
H843 H 0.57356 0.5485 0.66011 0.0
H844 H 0.53948 0.62144 0.64431 0.0
H845 H 0.55384 0.59001 0.68099 0.0
H846 H 0.66836 0.62764 0.48999 0.0
H847 H 0.67919 0.59219 0.51733 0.0
H848 H 0.62951 0.6463 0.45227 0.0
H849 H 0.59508 0.66247 0.4733 0.0
C850 C 0.37627 0.59926 0.50718 0.0
C851 C 0.36209 0.5942 0.56172 0.0
C852 C 0.39329 0.63424 0.60648 0.0
C853 C 0.40939 0.63751 0.55288 0.0
N854 N 0.41909 0.62003 0.45459 0.0
N855 N 0.35773 0.60442 0.6645 0.0
C856 C 0.40169 0.61913 0.5039 0.0
C857 C 0.37055 0.61123 0.61168 0.0
N858 N 0.36483 0.58561 0.45808 0.0
N859 N 0.40011 0.65275 0.65273 0.0
H860 H 0.34049 0.58825 0.66939 0.0
H861 H 0.36518 0.61333 0.70409 0.0
H862 H 0.41848 0.66778 0.65308 0.0
H863 H 0.38685 0.65426 0.69023 0.0
H864 H 0.37184 0.59105 0.41595 0.0
H865 H 0.34632 0.5707 0.45885 0.0
H866 H 0.417 0.60453 0.42042 0.0
H867 H 0.43731 0.63482 0.44949 0.0
C868 C 0.36371 0.39358 0.54518 0.0
C869 C 0.36842 0.41834 0.58397 0.0
C870 C 0.41597 0.395 0.61862 0.0
C871 C 0.41234 0.37126 0.5769 0.0
N872 N 0.38632 0.35145 0.49219 0.0
N873 N 0.40034 0.44484 0.65318 0.0
C874 C 0.38711 0.37145 0.53799 0.0
C875 C 0.39505 0.41979 0.61908 0.0
N876 N 0.33685 0.39113 0.51521 0.0
N877 N 0.4384 0.39312 0.65995 0.0
H878 H 0.38452 0.46234 0.65877 0.0
H879 H 0.42114 0.4492 0.67344 0.0
H880 H 0.45459 0.37582 0.6609 0.0
H881 H 0.43975 0.40744 0.69608 0.0
H882 H 0.33062 0.3718 0.49173 0.0
H883 H 0.31965 0.40752 0.51712 0.0
H884 H 0.37022 0.35247 0.45883 0.0
H885 H 0.40357 0.33564 0.48408 0.0
C886 C 0.60984 0.35704 0.5399 0.0
C887 C 0.58522 0.35986 0.57945 0.0
C888 C 0.60702 0.40704 0.6187 0.0
C889 C 0.63033 0.40566 0.57569 0.0
N890 N 0.65073 0.38259 0.48844 0.0
N891 N 0.55851 0.38817 0.65381 0.0
C892 C 0.63103 0.38141 0.53459 0.0
C893 C 0.58326 0.38508 0.618 0.0
N894 N 0.61295 0.33109 0.50742 0.0
N895 N 0.60825 0.42854 0.66186 0.0
H896 H 0.54187 0.37139 0.65851 0.0
H897 H 0.5535 0.40803 0.67675 0.0
H898 H 0.62453 0.44571 0.66334 0.0
H899 H 0.59443 0.42824 0.69873 0.0
H900 H 0.63217 0.3262 0.48252 0.0
H901 H 0.59733 0.3132 0.5089 0.0
H902 H 0.65026 0.36725 0.45379 0.0
H903 H 0.66574 0.40065 0.48159 0.0
C904 C 0.62869 0.39344 0.06873 0.0
C905 C 0.62476 0.41799 0.0291 0.0
C906 C 0.57721 0.39524 0.99327 0.0
C907 C 0.58018 0.37159 0.03548 0.0
N908 N 0.60482 0.35211 0.12201 0.0
N909 N 0.59372 0.4448 0.95868 0.0
C910 C 0.60488 0.37177 0.07561 0.0
C911 C 0.59842 0.41975 0.99321 0.0
N912 N 0.65529 0.39064 0.09942 0.0
N913 N 0.55521 0.39349 0.95106 0.0
H914 H 0.60968 0.4622 0.95377 0.0
H915 H 0.57318 0.44934 0.93757 0.0
H916 H 0.53882 0.3764 0.94965 0.0
H917 H 0.55443 0.40771 0.91469 0.0
H918 H 0.66091 0.37142 0.12391 0.0
H919 H 0.67287 0.40656 0.09696 0.0
H920 H 0.62058 0.35308 0.15597 0.0
H921 H 0.58713 0.33678 0.12987 0.0
C922 C 0.60484 0.63926 0.05609 0.0
C923 C 0.58174 0.63678 0.01305 0.0
C924 C 0.60735 0.59228 0.9711 0.0
C925 C 0.62817 0.5924 0.01856 0.0
N926 N 0.64454 0.61343 0.11077 0.0
N927 N 0.55945 0.61027 0.93112 0.0
C928 C 0.62649 0.61533 0.06217 0.0
C929 C 0.58249 0.61301 0.97109 0.0
N930 N 0.60626 0.66457 0.09077 0.0
N931 N 0.61227 0.57342 0.92456 0.0
H932 H 0.54202 0.6263 0.9266 0.0
H933 H 0.55667 0.59126 0.90445 0.0
H934 H 0.63083 0.55866 0.92222 0.0
H935 H 0.59981 0.57443 0.8859 0.0
H936 H 0.62434 0.66911 0.11892 0.0
H937 H 0.59072 0.68249 0.08762 0.0
H938 H 0.64205 0.62757 0.14693 0.0
H939 H 0.66033 0.59596 0.11739 0.0
C940 C 0.38551 0.58263 0.96499 0.0
C941 C 0.36231 0.58096 0.00792 0.0
C942 C 0.38394 0.62528 0.05828 0.0
C943 C 0.40598 0.62811 0.01335 0.0
N944 N 0.42356 0.61383 0.91751 0.0
N945 N 0.33577 0.60365 0.08922 0.0
C946 C 0.40575 0.60787 0.96503 0.0
C947 C 0.36033 0.60327 0.0526 0.0
N948 N 0.3881 0.56022 0.92376 0.0
N949 N 0.38632 0.64276 0.10749 0.0
H950 H 0.31823 0.58769 0.08692 0.0
H951 H 0.33143 0.62121 0.11861 0.0
H952 H 0.40353 0.65885 0.11354 0.0
H953 H 0.37296 0.63952 0.14447 0.0
H954 H 0.40687 0.55806 0.8963 0.0
H955 H 0.37229 0.54266 0.91894 0.0
H956 H 0.42207 0.6019 0.87833 0.0
H957 H 0.43777 0.63274 0.9151 0.0
C958 C 0.39014 0.36016 0.04574 0.0
C959 C 0.4115 0.36034 0.99944 0.0
C960 C 0.38379 0.40209 0.95199 0.0
C961 C 0.36462 0.40421 1.00155 0.0
N962 N 0.35166 0.38821 0.09926 0.0
N963 N 0.43164 0.38404 0.91242 0.0
C964 C 0.36824 0.38395 0.04941 0.0
C965 C 0.40908 0.3819 0.95337 0.0
N966 N 0.39026 0.33675 0.08518 0.0
N967 N 0.3773 0.41874 0.90301 0.0
H968 H 0.45072 0.36985 0.91194 0.0
H969 H 0.43279 0.40154 0.88175 0.0
H970 H 0.35882 0.43368 0.90033 0.0
H971 H 0.38849 0.41572 0.86338 0.0
H972 H 0.37339 0.33367 0.11651 0.0
H973 H 0.40575 0.31873 0.08306 0.0
H974 H 0.35569 0.37627 0.13782 0.0
H975 H 0.33546 0.40546 0.10384 0.0
C976 C 0.99788 0.18801 0.31518 0.0
C977 C 0.9899 0.21486 0.34655 0.0
C978 C 0.9953 0.24442 0.25563 0.0
C979 C 0.00613 0.21785 0.22709 0.0
N980 N 0.02764 0.16745 0.23634 0.0
N981 N 0.98659 0.26989 0.34832 0.0
C982 C 0.01058 0.19067 0.25905 0.0
C983 C 0.99009 0.24355 0.31727 0.0
N984 N 0.99172 0.15971 0.33713 0.0
N985 N 0.98944 0.27012 0.22388 0.0
H986 H 0.98377 0.2702 0.39348 0.0
H987 H 0.98928 0.29148 0.33009 0.0
H988 H 0.9937 0.27147 0.17915 0.0
H989 H 0.97854 0.28921 0.24106 0.0
H990 H 0.99478 0.13976 0.31309 0.0
H991 H 0.97998 0.15627 0.37591 0.0
H992 H 0.03369 0.14817 0.2604 0.0
H993 H 0.0388 0.16924 0.19632 0.0
C994 C 0.77482 0.96754 0.30006 0.0
C995 C 0.77266 0.98995 0.34472 0.0
C996 C 0.77176 0.03038 0.27057 0.0
C997 C 0.773 0.00789 0.22592 0.0
N998 N 0.7668 0.95532 0.19802 0.0
N999 N 0.76071 0.04158 0.37206 0.0
C1000 C 0.7715 0.97653 0.24076 0.0
C1001 C 0.76828 0.02103 0.32969 0.0
N1002 N 0.78229 0.93808 0.31353 0.0
N1003 N 0.77609 0.06048 0.2574 0.0
H1004 H 0.75765 0.03528 0.4156 0.0
H1005 H 0.75444 0.06403 0.3631 0.0
H1006 H 0.77943 0.06852 0.21512 0.0
H1007 H 0.77898 0.07727 0.28906 0.0
H1008 H 0.78775 0.92183 0.28206 0.0
H1009 H 0.78575 0.93032 0.356 0.0
H1010 H 0.76271 0.93236 0.20672 0.0
H1011 H 0.7638 0.96126 0.15425 0.0
C1012 C 0.99574 0.75171 0.26518 0.0
C1013 C 0.99311 0.78001 0.23506 0.0
C1014 C 0.0134 0.80638 0.32019 0.0
C1015 C 0.01144 0.77934 0.35357 0.0
N1016 N 0.99782 0.7262 0.3595 0.0
N1017 N 0.99013 0.83511 0.24292 0.0
C1018 C 0.00189 0.75181 0.32657 0.0
C1019 C -0.00073 0.80762 0.26512 0.0
N1020 N 0.99336 0.72492 0.2352 0.0
N1021 N 0.02958 0.83076 0.34043 0.0
H1022 H 0.97691 0.83719 0.20525 0.0
H1023 H 0.99226 0.85544 0.26618 0.0
H1024 H 0.04236 0.82964 0.37879 0.0
H1025 H 0.03344 0.85027 0.31542 0.0
H1026 H 0.99786 0.70373 0.2539 0.0
H1027 H 0.98947 0.72405 0.19032 0.0
H1028 H 0.98792 0.70634 0.34332 0.0
H1029 H 0.00239 0.72557 0.40417 0.0
C1030 C 0.22599 0.97656 0.34015 0.0
C1031 C 0.22302 0.00771 0.35562 0.0
C1032 C 0.22514 0.02159 0.25202 0.0
C1033 C 0.22194 0.99044 0.23675 0.0
N1034 N 0.21555 0.93799 0.26762 0.0
N1035 N 0.21587 0.06016 0.32507 0.0
C1036 C 0.22183 0.96771 0.28104 0.0
C1037 C 0.22203 0.03044 0.31134 0.0
N1038 N 0.23289 0.95546 0.38206 0.0
N1039 N 0.2313 0.0427 0.20977 0.0
H1040 H 0.21244 0.06787 0.36752 0.0
H1041 H 0.21141 0.07678 0.29367 0.0
H1042 H 0.23426 0.03679 0.16601 0.0
H1043 H 0.23664 0.06533 0.21902 0.0
H1044 H 0.23806 0.9328 0.37257 0.0
H1045 H 0.23662 0.96141 0.4256 0.0
H1046 H 0.21176 0.92132 0.29922 0.0
H1047 H 0.2113 0.93034 0.22537 0.0
C1048 C 0.96221 0.76916 0.816 0.0
C1049 C 0.98776 0.76518 0.85348 0.0
C1050 C 0.02151 0.76713 0.76907 0.0
C1051 C 0.99588 0.76735 0.73111 0.0
N1052 N 0.94166 0.76062 0.71931 0.0
N1053 N 0.04084 0.75173 0.86337 0.0
C1054 C 0.96614 0.76553 0.7549 0.0
C1055 C 0.01707 0.76092 0.82907 0.0
N1056 N 0.93485 0.77871 0.83762 0.0
N1057 N 0.04966 0.77557 0.74954 0.0
H1058 H 0.03824 0.74667 0.90761 0.0
H1059 H 0.06216 0.74618 0.84634 0.0
H1060 H 0.05359 0.78355 0.70739 0.0
H1061 H 0.06831 0.77821 0.77731 0.0
H1062 H 0.91652 0.78459 0.81088 0.0
H1063 H 0.93143 0.78403 0.88141 0.0
H1064 H 0.91979 0.7567 0.73534 0.0
H1065 H 0.94385 0.75743 0.67437 0.0
C1066 C 0.22391 0.97408 0.76009 0.0
C1067 C 0.22142 0.00357 0.73524 0.0
C1068 C 0.22334 0.02585 0.83308 0.0
C1069 C 0.22106 0.99632 0.85783 0.0
N1070 N 0.21047 0.94273 0.84263 0.0
N1071 N 0.21015 0.05708 0.75008 0.0
C1072 C 0.21908 0.97041 0.82084 0.0
C1073 C 0.21891 0.02948 0.77216 0.0
N1074 N 0.23084 0.94955 0.72587 0.0
N1075 N 0.22968 0.05044 0.86755 0.0
H1076 H 0.20417 0.06033 0.70649 0.0
H1077 H 0.2054 0.07586 0.77643 0.0
H1078 H 0.23341 0.04859 0.9124 0.0
H1079 H 0.23415 0.07204 0.85056 0.0
H1080 H 0.23544 0.92801 0.74304 0.0
H1081 H 0.23496 0.95146 0.68117 0.0
H1082 H 0.2061 0.92392 0.81612 0.0
H1083 H 0.2042 0.93944 0.88603 0.0
C1084 C 0.98338 0.25278 0.82015 0.0
C1085 C 0.0057 0.23356 0.84597 0.0
C1086 C 0.02783 0.2255 0.74956 0.0
C1087 C 0.00062 0.23636 0.7239 0.0
N1088 N 0.97183 0.28251 0.73411 0.0
N1089 N 0.05042 0.20167 0.83399 0.0
C1090 C 0.98331 0.25662 0.75854 0.0
C1091 C 0.02864 0.22025 0.81048 0.0
N1092 N 0.96224 0.26719 0.85393 0.0
N1093 N 0.05374 0.22372 0.71705 0.0
H1094 H 0.05158 0.1965 0.87836 0.0
H1095 H 0.06576 0.18945 0.80827 0.0
H1096 H 0.05422 0.23123 0.67378 0.0
H1097 H 0.07496 0.21843 0.73492 0.0
H1098 H 0.94385 0.27909 0.83612 0.0
H1099 H 0.96218 0.26568 0.89939 0.0
H1100 H 0.96126 0.29964 0.75826 0.0
H1101 H 0.97698 0.28837 0.69106 0.0
C1102 C 0.7814 0.96467 0.76278 0.0
C1103 C 0.777 0.99052 0.72624 0.0
C1104 C 0.77793 0.02354 0.81213 0.0
C1105 C 0.77808 0.99745 0.84893 0.0
N1106 N 0.77416 0.94284 0.85886 0.0
N1107 N 0.76462 0.04395 0.71738 0.0
C1108 C 0.77785 0.96787 0.82407 0.0
C1109 C 0.77308 0.01976 0.75138 0.0
N1110 N 0.79093 0.93757 0.7397 0.0
N1111 N 0.78454 0.05171 0.83419 0.0
H1112 H 0.76057 0.04199 0.67265 0.0
H1113 H 0.75879 0.06514 0.73468 0.0
H1114 H 0.79045 0.05532 0.8777 0.0
H1115 H 0.78753 0.0709 0.80796 0.0
H1116 H 0.79724 0.91895 0.76533 0.0
H1117 H 0.79576 0.93465 0.69554 0.0
H1118 H 0.77098 0.92096 0.84223 0.0
H1119 H 0.77141 0.94436 0.904 0.0
C1120 C 0.48874 0.74229 0.81521 0.0
C1121 C 0.48857 0.71384 0.84537 0.0
C1122 C 0.50874 0.6889 0.75806 0.0
C1123 C 0.50441 0.71591 0.72541 0.0
N1124 N 0.48775 0.76817 0.72113 0.0
N1125 N 0.49037 0.65859 0.83762 0.0
C1126 C 0.49371 0.74268 0.75345 0.0
C1127 C 0.49631 0.68672 0.81459 0.0
N1128 N 0.48553 0.76889 0.84555 0.0
N1129 N 0.52573 0.66549 0.73589 0.0
H1130 H 0.47918 0.65537 0.87707 0.0
H1131 H 0.49318 0.63846 0.81402 0.0
H1132 H 0.53692 0.66702 0.69589 0.0
H1133 H 0.53178 0.64635 0.76037 0.0
H1134 H 0.48829 0.79032 0.82665 0.0
H1135 H 0.48298 0.7696 0.89075 0.0
H1136 H 0.47694 0.78739 0.738 0.0
H1137 H 0.49169 0.76918 0.67627 0.0
C1138 C 0.26783 0.52222 0.83369 0.0
C1139 C 0.27106 0.49101 0.84893 0.0
C1140 C 0.26792 0.4774 0.74528 0.0
C1141 C 0.27097 0.50857 0.73003 0.0
N1142 N 0.27665 0.56106 0.76063 0.0
N1143 N 0.27804 0.43867 0.81771 0.0
C1144 C 0.27117 0.53123 0.77437 0.0
C1145 C 0.27162 0.4684 0.80445 0.0
N1146 N 0.26144 0.54319 0.87602 0.0
N1147 N 0.26148 0.45639 0.70303 0.0
H1148 H 0.28205 0.43083 0.85993 0.0
H1149 H 0.28219 0.42215 0.78604 0.0
H1150 H 0.25818 0.46244 0.65939 0.0
H1151 H 0.25624 0.43373 0.71222 0.0
H1152 H 0.25611 0.56587 0.86695 0.0
H1153 H 0.25834 0.53713 0.91967 0.0
H1154 H 0.28064 0.5778 0.79196 0.0
H1155 H 0.27972 0.56883 0.71808 0.0
C1156 C 0.50402 0.25171 0.83226 0.0
C1157 C 0.51008 0.27957 0.8618 0.0
C1158 C 0.4948 0.3081 0.77516 0.0
C1159 C 0.49215 0.28068 0.74284 0.0
N1160 N 0.4984 0.22607 0.73864 0.0
N1161 N 0.52101 0.33336 0.85358 0.0
C1162 C 0.49789 0.25226 0.77079 0.0
C1163 C 0.50846 0.30747 0.83079 0.0
N1164 N 0.5031 0.22503 0.86293 0.0
N1165 N 0.48287 0.3347 0.75406 0.0
H1166 H 0.53346 0.33326 0.89237 0.0
H1167 H 0.5224 0.35376 0.83033 0.0
H1168 H 0.47029 0.33563 0.71553 0.0
H1169 H 0.48207 0.35474 0.77851 0.0
H1170 H 0.4958 0.20448 0.84496 0.0
H1171 H 0.50753 0.22391 0.90761 0.0
H1172 H 0.50538 0.20512 0.75545 0.0
H1173 H 0.49411 0.22578 0.69385 0.0
C1174 C 0.74264 0.49741 0.77053 0.0
C1175 C 0.71605 0.48651 0.74223 0.0
C1176 C 0.68638 0.49534 0.83011 0.0
C1177 C 0.71325 0.50335 0.86137 0.0
N1178 N 0.76834 0.50557 0.86317 0.0
N1179 N 0.66625 0.46415 0.75295 0.0
C1180 C 0.74191 0.5026 0.83216 0.0
C1181 C 0.68911 0.48195 0.77463 0.0
N1182 N 0.76819 0.50345 0.73869 0.0
N1183 N 0.65805 0.50218 0.85111 0.0
H1184 H 0.66859 0.45207 0.71402 0.0
H1185 H 0.64702 0.45835 0.77723 0.0
H1186 H 0.65444 0.51497 0.88869 0.0
H1187 H 0.63823 0.49869 0.82686 0.0
H1188 H 0.78723 0.51439 0.75598 0.0
H1189 H 0.76943 0.49942 0.69388 0.0
H1190 H 0.78982 0.50259 0.84475 0.0
H1191 H 0.76879 0.50793 0.90843 0.0
C1192 C 0.47915 0.2427 0.26818 0.0
C1193 C 0.50205 0.26083 0.24164 0.0
C1194 C 0.52584 0.26729 0.33726 0.0
C1195 C 0.49849 0.25775 0.36398 0.0
N1196 N 0.46743 0.21313 0.35423 0.0
N1197 N 0.54839 0.29043 0.25232 0.0
C1198 C 0.47975 0.23857 0.32975 0.0
C1199 C 0.52608 0.27277 0.27639 0.0
N1200 N 0.45688 0.22957 0.23512 0.0
N1201 N 0.55222 0.26766 0.3687 0.0
H1202 H 0.5492 0.29587 0.20806 0.0
H1203 H 0.56462 0.30172 0.27762 0.0
H1204 H 0.55289 0.26005 0.4119 0.0
H1205 H 0.57343 0.2719 0.34998 0.0
H1206 H 0.43819 0.21852 0.25355 0.0
H1207 H 0.45627 0.23136 0.1897 0.0
H1208 H 0.45572 0.19668 0.33025 0.0
H1209 H 0.47294 0.20677 0.39689 0.0
C1210 C 0.72663 0.47051 0.32399 0.0
C1211 C 0.72881 0.49591 0.36223 0.0
C1212 C 0.72639 0.5303 0.27847 0.0
C1213 C 0.72773 0.50487 0.24018 0.0
N1214 N 0.73773 0.45115 0.22758 0.0
N1215 N 0.73898 0.54959 0.37437 0.0
C1216 C 0.73099 0.4751 0.26339 0.0
C1217 C 0.73169 0.52568 0.33886 0.0
N1218 N 0.7179 0.44255 0.34425 0.0
N1219 N 0.71767 0.55835 0.25853 0.0
H1220 H 0.74329 0.54688 0.41889 0.0
H1221 H 0.74369 0.57134 0.35836 0.0
H1222 H 0.711 0.5624 0.21557 0.0
H1223 H 0.71372 0.57678 0.28623 0.0
H1224 H 0.71342 0.42419 0.31666 0.0
H1225 H 0.71162 0.43858 0.3874 0.0
H1226 H 0.74265 0.4294 0.24342 0.0
H1227 H 0.74143 0.45384 0.18288 0.0
C1228 C 0.48454 0.75463 0.3196 0.0
C1229 C 0.50689 0.73521 0.34482 0.0
C1230 C 0.52818 0.72694 0.24772 0.0
C1231 C 0.50084 0.73805 0.22285 0.0
N1232 N 0.47275 0.78456 0.23396 0.0
N1233 N 0.55149 0.70329 0.33173 0.0
C1234 C 0.48404 0.75849 0.25799 0.0
C1235 C 0.52953 0.72185 0.30871 0.0
N1236 N 0.46377 0.76919 0.35396 0.0
N1237 N 0.55369 0.72457 0.21418 0.0
H1238 H 0.55317 0.69844 0.37617 0.0
H1239 H 0.56651 0.69088 0.3057 0.0
H1240 H 0.5538 0.73176 0.17071 0.0
H1241 H 0.57504 0.71907 0.23125 0.0
H1242 H 0.44536 0.78125 0.33665 0.0
H1243 H 0.46408 0.7677 0.39943 0.0
H1244 H 0.46255 0.80178 0.25845 0.0
H1245 H 0.47779 0.79044 0.19087 0.0
C1246 C 0.28009 0.46417 0.26586 0.0
C1247 C 0.27687 0.49043 0.22995 0.0
C1248 C 0.27861 0.52269 0.31675 0.0
C1249 C 0.27708 0.49635 0.35277 0.0
N1250 N 0.27085 0.44187 0.36087 0.0
N1251 N 0.26664 0.5444 0.2225 0.0
C1252 C 0.27596 0.46701 0.32706 0.0
C1253 C 0.27399 0.51961 0.25584 0.0
N1254 N 0.28906 0.43698 0.24239 0.0
N1255 N 0.28654 0.55032 0.33974 0.0
H1256 H 0.2626 0.54298 0.1777 0.0
H1257 H 0.26164 0.56566 0.24043 0.0
H1258 H 0.2924 0.55331 0.38346 0.0
H1259 H 0.29067 0.56949 0.31404 0.0
H1260 H 0.29441 0.41796 0.26773 0.0
H1261 H 0.2945 0.43434 0.19842 0.0
H1262 H 0.26703 0.42027 0.34336 0.0
H1263 H 0.26764 0.44312 0.40592 0.0
loop_
_geom_bond_atom_site_label_1
_geom_bond_atom_site_label_2
_geom_bond_distance
_geom_bond_site_symmetry_2
_ccdc_geom_bond_type
Co0 O3 1.970 . S
Co0 N17 1.989 1_655 S
Co0 O25 1.967 1_655 S
Co0 O32 1.920 . S
Co1 O4 1.966 . S
Co1 N10 2.022 . S
Co1 N18 1.993 . S
Co1 O26 1.941 . S
C2 O3 1.258 1_455 S
C2 O4 1.263 . S
O3 Co0 1.970 . S
O3 C2 1.258 1_655 S
O4 Co1 1.966 . S
O4 C2 1.263 . S
C5 O6 1.235 . S
C5 O32 1.289 . S
O6 C5 1.235 . S
C7 C9 1.400 . S
C7 N10 1.351 . S
C7 C12 1.501 . S
C8 C9 1.387 . S
C8 N11 1.341 . S
C9 C7 1.400 . S
C9 C8 1.387 . S
N10 Co1 2.022 . S
N10 C7 1.351 . S
N10 N11 1.365 . S
N11 C8 1.341 . S
N11 N10 1.365 . S
N11 H31 0.862 1_554 S
C12 C7 1.501 . S
C12 H13 0.961 . S
C12 H14 0.961 . S
C12 H15 0.960 . S
H13 C12 0.961 . S
H14 C12 0.961 . S
H15 C12 0.960 . S
C16 N17 1.342 1_656 S
C16 C20 1.401 1_655 S
C16 C21 1.499 . S
N17 Co0 1.989 1_455 S
N17 C16 1.342 1_454 S
N17 N18 1.388 . S
N18 Co1 1.993 . S
N18 N17 1.388 . S
N18 C19 1.346 1_554 S
C19 N18 1.346 1_556 S
C19 C20 1.396 . S
C19 C29 1.510 . S
C20 C16 1.401 1_455 S
C20 C19 1.396 . S
C21 C16 1.499 . S
C21 H22 0.959 . S
C21 H23 0.960 . S
C21 H24 0.961 . S
H22 C21 0.959 . S
H23 C21 0.960 . S
H24 C21 0.961 . S
O25 Co0 1.967 1_455 S
O25 C33 1.258 . S
O26 Co1 1.941 . S
O26 C33 1.266 . S
H27 C29 0.959 . S
H28 C29 0.961 . S
C29 C19 1.510 . S
C29 H27 0.959 . S
C29 H28 0.961 . S
C29 H30 0.960 . S
H30 C29 0.960 . S
H31 N11 0.862 1_556 S
O32 Co0 1.920 . S
O32 C5 1.289 . S
C33 O25 1.258 . S
C33 O26 1.266 . S
Co34 O37 1.970 . S
Co34 N51 1.989 1_565 S
Co34 O59 1.967 1_565 S
Co34 O66 1.920 . S
Co35 O38 1.966 . S
Co35 N44 2.022 . S
Co35 N52 1.993 . S
Co35 O60 1.941 . S
C36 O37 1.258 1_545 S
C36 O38 1.263 . S
O37 Co34 1.970 . S
O37 C36 1.258 1_565 S
O38 Co35 1.966 . S
O38 C36 1.263 . S
C39 O40 1.235 . S
C39 O66 1.289 . S
O40 C39 1.235 . S
C41 C43 1.400 . S
C41 N44 1.351 . S
C41 C46 1.501 . S
C42 C43 1.387 . S
C42 N45 1.341 . S
C43 C41 1.400 . S
C43 C42 1.387 . S
N44 Co35 2.022 . S
N44 C41 1.351 . S
N44 N45 1.365 . S
N45 C42 1.341 . S
N45 N44 1.365 . S
N45 H65 0.862 1_554 S
C46 C41 1.501 . S
C46 H47 0.961 . S
C46 H48 0.961 . S
C46 H49 0.960 . S
H47 C46 0.961 . S
H48 C46 0.961 . S
H49 C46 0.960 . S
C50 N51 1.342 1_566 S
C50 C54 1.401 1_565 S
C50 C55 1.499 . S
N51 Co34 1.989 1_545 S
N51 C50 1.342 1_544 S
N51 N52 1.388 . S
N52 Co35 1.993 . S
N52 N51 1.388 . S
N52 C53 1.346 1_554 S
C53 N52 1.346 1_556 S
C53 C54 1.396 . S
C53 C63 1.510 . S
C54 C50 1.401 1_545 S
C54 C53 1.396 . S
C55 C50 1.499 . S
C55 H56 0.959 . S
C55 H57 0.960 . S
C55 H58 0.961 . S
H56 C55 0.959 . S
H57 C55 0.960 . S
H58 C55 0.961 . S
O59 Co34 1.967 1_545 S
O59 C67 1.258 . S
O60 Co35 1.941 . S
O60 C67 1.266 . S
H61 C63 0.959 . S
H62 C63 0.961 . S
C63 C53 1.510 . S
C63 H61 0.959 . S
C63 H62 0.961 . S
C63 H64 0.960 . S
H64 C63 0.960 . S
H65 N45 0.862 1_556 S
O66 Co34 1.920 . S
O66 C39 1.289 . S
C67 O59 1.258 . S
C67 O60 1.266 . S
Co68 O71 1.970 . S
Co68 N85 1.989 1_455 S
Co68 O93 1.967 1_455 S
Co68 O100 1.920 . S
Co69 O72 1.966 . S
Co69 N78 2.022 . S
Co69 N86 1.993 . S
Co69 O94 1.941 . S
C70 O71 1.258 1_655 S
C70 O72 1.263 . S
O71 Co68 1.970 . S
O71 C70 1.258 1_455 S
O72 Co69 1.966 . S
O72 C70 1.263 . S
C73 O74 1.235 . S
C73 O100 1.289 . S
O74 C73 1.235 . S
C75 C77 1.400 . S
C75 N78 1.351 . S
C75 C80 1.501 . S
C76 C77 1.387 . S
C76 N79 1.341 . S
C77 C75 1.400 . S
C77 C76 1.387 . S
N78 Co69 2.022 . S
N78 C75 1.351 . S
N78 N79 1.365 . S
N79 C76 1.341 . S
N79 N78 1.365 . S
N79 H99 0.862 1_554 S
C80 C75 1.501 . S
C80 H81 0.961 . S
C80 H82 0.961 . S
C80 H83 0.960 . S
H81 C80 0.961 . S
H82 C80 0.961 . S
H83 C80 0.960 . S
C84 N85 1.342 1_456 S
C84 C88 1.401 1_455 S
C84 C89 1.499 . S
N85 Co68 1.989 1_655 S
N85 C84 1.342 1_654 S
N85 N86 1.388 . S
N86 Co69 1.993 . S
N86 N85 1.388 . S
N86 C87 1.346 1_554 S
C87 N86 1.346 1_556 S
C87 C88 1.396 . S
C87 C97 1.510 . S
C88 C84 1.401 1_655 S
C88 C87 1.396 . S
C89 C84 1.499 . S
C89 H90 0.959 . S
C89 H91 0.960 . S
C89 H92 0.961 . S
H90 C89 0.959 . S
H91 C89 0.960 . S
H92 C89 0.961 . S
O93 Co68 1.967 1_655 S
O93 C101 1.258 . S
O94 Co69 1.941 . S
O94 C101 1.266 . S
H95 C97 0.959 . S
H96 C97 0.961 . S
C97 C87 1.510 . S
C97 H95 0.959 . S
C97 H96 0.961 . S
C97 H98 0.960 . S
H98 C97 0.960 . S
H99 N79 0.862 1_556 S
O100 Co68 1.920 . S
O100 C73 1.289 . S
C101 O93 1.258 . S
C101 O94 1.266 . S
Co102 O105 1.970 . S
Co102 N119 1.989 1_545 S
Co102 O127 1.967 1_545 S
Co102 O134 1.920 . S
Co103 O106 1.966 . S
Co103 N112 2.022 . S
Co103 N120 1.993 . S
Co103 O128 1.941 . S
C104 O105 1.258 1_565 S
C104 O106 1.263 . S
O105 Co102 1.970 . S
O105 C104 1.258 1_545 S
O106 Co103 1.966 . S
O106 C104 1.263 . S
C107 O108 1.235 . S
C107 O134 1.289 . S
O108 C107 1.235 . S
C109 C111 1.400 . S
C109 N112 1.351 . S
C109 C114 1.501 . S
C110 C111 1.387 . S
C110 N113 1.341 . S
C111 C109 1.400 . S
C111 C110 1.387 . S
N112 Co103 2.022 . S
N112 C109 1.351 . S
N112 N113 1.365 . S
N113 C110 1.341 . S
N113 N112 1.365 . S
N113 H133 0.862 1_554 S
C114 C109 1.501 . S
C114 H115 0.961 . S
C114 H116 0.961 . S
C114 H117 0.960 . S
H115 C114 0.961 . S
H116 C114 0.961 . S
H117 C114 0.960 . S
C118 N119 1.342 1_546 S
C118 C122 1.401 1_545 S
C118 C123 1.499 . S
N119 Co102 1.989 1_565 S
N119 C118 1.342 1_564 S
N119 N120 1.388 . S
N120 Co103 1.993 . S
N120 N119 1.388 . S
N120 C121 1.346 1_554 S
C121 N120 1.346 1_556 S
C121 C122 1.396 . S
C121 C131 1.510 . S
C122 C118 1.401 1_565 S
C122 C121 1.396 . S
C123 C118 1.499 . S
C123 H124 0.959 . S
C123 H125 0.960 . S
C123 H126 0.961 . S
H124 C123 0.959 . S
H125 C123 0.960 . S
H126 C123 0.961 . S
O127 Co102 1.967 1_565 S
O127 C135 1.258 . S
O128 Co103 1.941 . S
O128 C135 1.266 . S
H129 C131 0.959 . S
H130 C131 0.961 . S
C131 C121 1.510 . S
C131 H129 0.959 . S
C131 H130 0.961 . S
C131 H132 0.960 . S
H132 C131 0.960 . S
H133 N113 0.862 1_556 S
O134 Co102 1.920 . S
O134 C107 1.289 . S
C135 O127 1.258 . S
C135 O128 1.266 . S
Co136 O139 1.970 . S
Co136 N153 1.989 1_655 S
Co136 O161 1.967 1_655 S
Co136 O168 1.920 . S
Co137 O140 1.966 . S
Co137 N146 2.022 . S
Co137 N154 1.993 . S
Co137 O162 1.941 . S
C138 O139 1.258 1_455 S
C138 O140 1.263 . S
O139 Co136 1.970 . S
O139 C138 1.258 1_655 S
O140 Co137 1.966 . S
O140 C138 1.263 . S
C141 O142 1.235 . S
C141 O168 1.289 . S
O142 C141 1.235 . S
C143 C145 1.400 . S
C143 N146 1.351 . S
C143 C148 1.501 . S
C144 C145 1.387 . S
C144 N147 1.341 . S
C145 C143 1.400 . S
C145 C144 1.387 . S
N146 Co137 2.022 . S
N146 C143 1.351 . S
N146 N147 1.365 . S
N147 C144 1.341 . S
N147 N146 1.365 . S
N147 H167 0.862 . S
C148 C143 1.501 . S
C148 H149 0.961 . S
C148 H150 0.961 . S
C148 H151 0.960 . S
H149 C148 0.961 . S
H150 C148 0.961 . S
H151 C148 0.960 . S
C152 N153 1.342 1_655 S
C152 C156 1.401 1_655 S
C152 C157 1.499 . S
N153 Co136 1.989 1_455 S
N153 C152 1.342 1_455 S
N153 N154 1.388 . S
N154 Co137 1.993 . S
N154 N153 1.388 . S
N154 C155 1.346 . S
C155 N154 1.346 . S
C155 C156 1.396 . S
C155 C165 1.510 . S
C156 C152 1.401 1_455 S
C156 C155 1.396 . S
C157 C152 1.499 . S
C157 H158 0.959 . S
C157 H159 0.960 . S
C157 H160 0.961 . S
H158 C157 0.959 . S
H159 C157 0.960 . S
H160 C157 0.961 . S
O161 Co136 1.967 1_455 S
O161 C169 1.258 . S
O162 Co137 1.941 . S
O162 C169 1.266 . S
H163 C165 0.959 . S
H164 C165 0.961 . S
C165 C155 1.510 . S
C165 H163 0.959 . S
C165 H164 0.961 . S
C165 H166 0.960 . S
H166 C165 0.960 . S
H167 N147 0.862 . S
O168 Co136 1.920 . S
O168 C141 1.289 . S
C169 O161 1.258 . S
C169 O162 1.266 . S
Co170 O173 1.970 . S
Co170 N187 1.989 1_565 S
Co170 O195 1.967 1_565 S
Co170 O202 1.920 . S
Co171 O174 1.966 . S
Co171 N180 2.022 . S
Co171 N188 1.993 . S
Co171 O196 1.941 . S
C172 O173 1.258 1_545 S
C172 O174 1.263 . S
O173 Co170 1.970 . S
O173 C172 1.258 1_565 S
O174 Co171 1.966 . S
O174 C172 1.263 . S
C175 O176 1.235 . S
C175 O202 1.289 . S
O176 C175 1.235 . S
C177 C179 1.400 . S
C177 N180 1.351 . S
C177 C182 1.501 . S
C178 C179 1.387 . S
C178 N181 1.341 . S
C179 C177 1.400 . S
C179 C178 1.387 . S
N180 Co171 2.022 . S
N180 C177 1.351 . S
N180 N181 1.365 . S
N181 C178 1.341 . S
N181 N180 1.365 . S
N181 H201 0.862 . S
C182 C177 1.501 . S
C182 H183 0.961 . S
C182 H184 0.961 . S
C182 H185 0.960 . S
H183 C182 0.961 . S
H184 C182 0.961 . S
H185 C182 0.960 . S
C186 N187 1.342 1_565 S
C186 C190 1.401 1_565 S
C186 C191 1.499 . S
N187 Co170 1.989 1_545 S
N187 C186 1.342 1_545 S
N187 N188 1.388 . S
N188 Co171 1.993 . S
N188 N187 1.388 . S
N188 C189 1.346 . S
C189 N188 1.346 . S
C189 C190 1.396 . S
C189 C199 1.510 . S
C190 C186 1.401 1_545 S
C190 C189 1.396 . S
C191 C186 1.499 . S
C191 H192 0.959 . S
C191 H193 0.960 . S
C191 H194 0.961 . S
H192 C191 0.959 . S
H193 C191 0.960 . S
H194 C191 0.961 . S
O195 Co170 1.967 1_545 S
O195 C203 1.258 . S
O196 Co171 1.941 . S
O196 C203 1.266 . S
H197 C199 0.959 . S
H198 C199 0.961 . S
C199 C189 1.510 . S
C199 H197 0.959 . S
C199 H198 0.961 . S
C199 H200 0.960 . S
H200 C199 0.960 . S
H201 N181 0.862 . S
O202 Co170 1.920 . S
O202 C175 1.289 . S
C203 O195 1.258 . S
C203 O196 1.266 . S
Co204 O207 1.970 . S
Co204 N221 1.989 1_455 S
Co204 O229 1.967 1_455 S
Co204 O236 1.920 . S
Co205 O208 1.966 . S
Co205 N214 2.022 . S
Co205 N222 1.993 . S
Co205 O230 1.941 . S
C206 O207 1.258 1_655 S
C206 O208 1.263 . S
O207 Co204 1.970 . S
O207 C206 1.258 1_455 S
O208 Co205 1.966 . S
O208 C206 1.263 . S
C209 O210 1.235 . S
C209 O236 1.289 . S
O210 C209 1.235 . S
C211 C213 1.400 . S
C211 N214 1.351 . S
C211 C216 1.501 . S
C212 C213 1.387 . S
C212 N215 1.341 . S
C213 C211 1.400 . S
C213 C212 1.387 . S
N214 Co205 2.022 . S
N214 C211 1.351 . S
N214 N215 1.365 . S
N215 C212 1.341 . S
N215 N214 1.365 . S
N215 H235 0.862 . S
C216 C211 1.501 . S
C216 H217 0.961 . S
C216 H218 0.961 . S
C216 H219 0.960 . S
H217 C216 0.961 . S
H218 C216 0.961 . S
H219 C216 0.960 . S
C220 N221 1.342 1_455 S
C220 C224 1.401 1_455 S
C220 C225 1.499 . S
N221 Co204 1.989 1_655 S
N221 C220 1.342 1_655 S
N221 N222 1.388 . S
N222 Co205 1.993 . S
N222 N221 1.388 . S
N222 C223 1.346 . S
C223 N222 1.346 . S
C223 C224 1.396 . S
C223 C233 1.510 . S
C224 C220 1.401 1_655 S
C224 C223 1.396 . S
C225 C220 1.499 . S
C225 H226 0.959 . S
C225 H227 0.960 . S
C225 H228 0.961 . S
H226 C225 0.959 . S
H227 C225 0.960 . S
H228 C225 0.961 . S
O229 Co204 1.967 1_655 S
O229 C237 1.258 . S
O230 Co205 1.941 . S
O230 C237 1.266 . S
H231 C233 0.959 . S
H232 C233 0.961 . S
C233 C223 1.510 . S
C233 H231 0.959 . S
C233 H232 0.961 . S
C233 H234 0.960 . S
H234 C233 0.960 . S
H235 N215 0.862 . S
O236 Co204 1.920 . S
O236 C209 1.289 . S
C237 O229 1.258 . S
C237 O230 1.266 . S
Co238 O241 1.970 . S
Co238 N255 1.989 1_545 S
Co238 O263 1.967 1_545 S
Co238 O270 1.920 . S
Co239 O242 1.966 . S
Co239 N248 2.022 . S
Co239 N256 1.993 . S
Co239 O264 1.941 . S
C240 O241 1.258 1_565 S
C240 O242 1.263 . S
O241 Co238 1.970 . S
O241 C240 1.258 1_545 S
O242 Co239 1.966 . S
O242 C240 1.263 . S
C243 O244 1.235 . S
C243 O270 1.289 . S
O244 C243 1.235 . S
C245 C247 1.400 . S
C245 N248 1.351 . S
C245 C250 1.501 . S
C246 C247 1.387 . S
C246 N249 1.341 . S
C247 C245 1.400 . S
C247 C246 1.387 . S
N248 Co239 2.022 . S
N248 C245 1.351 . S
N248 N249 1.365 . S
N249 C246 1.341 . S
N249 N248 1.365 . S
N249 H269 0.862 . S
C250 C245 1.501 . S
C250 H251 0.961 . S
C250 H252 0.961 . S
C250 H253 0.960 . S
H251 C250 0.961 . S
H252 C250 0.961 . S
H253 C250 0.960 . S
C254 N255 1.342 1_545 S
C254 C258 1.401 1_545 S
C254 C259 1.499 . S
N255 Co238 1.989 1_565 S
N255 C254 1.342 1_565 S
N255 N256 1.388 . S
N256 Co239 1.993 . S
N256 N255 1.388 . S
N256 C257 1.346 . S
C257 N256 1.346 . S
C257 C258 1.396 . S
C257 C267 1.510 . S
C258 C254 1.401 1_565 S
C258 C257 1.396 . S
C259 C254 1.499 . S
C259 H260 0.959 . S
C259 H261 0.960 . S
C259 H262 0.961 . S
H260 C259 0.959 . S
H261 C259 0.960 . S
H262 C259 0.961 . S
O263 Co238 1.967 1_565 S
O263 C271 1.258 . S
O264 Co239 1.941 . S
O264 C271 1.266 . S
H265 C267 0.959 . S
H266 C267 0.961 . S
C267 C257 1.510 . S
C267 H265 0.959 . S
C267 H266 0.961 . S
C267 H268 0.960 . S
H268 C267 0.960 . S
H269 N249 0.862 . S
O270 Co238 1.920 . S
O270 C243 1.289 . S
C271 O263 1.258 . S
C271 O264 1.266 . S
Co272 O275 1.970 . S
Co272 N289 1.989 . S
Co272 O297 1.967 . S
Co272 O304 1.920 . S
Co273 O276 1.966 . S
Co273 N282 2.022 . S
Co273 N290 1.993 . S
Co273 O298 1.941 . S
C274 O275 1.258 . S
C274 O276 1.263 . S
O275 Co272 1.970 . S
O275 C274 1.258 . S
O276 Co273 1.966 . S
O276 C274 1.263 . S
C277 O278 1.235 . S
C277 O304 1.289 . S
O278 C277 1.235 . S
C279 C281 1.400 . S
C279 N282 1.351 . S
C279 C284 1.501 . S
C280 C281 1.387 . S
C280 N283 1.341 . S
C281 C279 1.400 . S
C281 C280 1.387 . S
N282 Co273 2.022 . S
N282 C279 1.351 . S
N282 N283 1.365 . S
N283 C280 1.341 . S
N283 N282 1.365 . S
N283 H303 0.862 . S
C284 C279 1.501 . S
C284 H285 0.961 . S
C284 H286 0.961 . S
C284 H287 0.960 . S
H285 C284 0.961 . S
H286 C284 0.961 . S
H287 C284 0.960 . S
C288 N289 1.342 . S
C288 C292 1.401 . S
C288 C293 1.499 . S
N289 Co272 1.989 . S
N289 C288 1.342 . S
N289 N290 1.388 . S
N290 Co273 1.993 . S
N290 N289 1.388 . S
N290 C291 1.346 . S
C291 N290 1.346 . S
C291 C292 1.396 . S
C291 C301 1.510 . S
C292 C288 1.401 . S
C292 C291 1.396 . S
C293 C288 1.499 . S
C293 H294 0.959 . S
C293 H295 0.960 . S
C293 H296 0.961 . S
H294 C293 0.959 . S
H295 C293 0.960 . S
H296 C293 0.961 . S
O297 Co272 1.967 . S
O297 C305 1.258 . S
O298 Co273 1.941 . S
O298 C305 1.266 . S
H299 C301 0.959 . S
H300 C301 0.961 . S
C301 C291 1.510 . S
C301 H299 0.959 . S
C301 H300 0.961 . S
C301 H302 0.960 . S
H302 C301 0.960 . S
H303 N283 0.862 . S
O304 Co272 1.920 . S
O304 C277 1.289 . S
C305 O297 1.258 . S
C305 O298 1.266 . S
Co306 O309 1.970 . S
Co306 N323 1.989 . S
Co306 O331 1.967 . S
Co306 O338 1.920 . S
Co307 O310 1.966 . S
Co307 N316 2.022 . S
Co307 N324 1.993 . S
Co307 O332 1.941 . S
C308 O309 1.258 . S
C308 O310 1.263 . S
O309 Co306 1.970 . S
O309 C308 1.258 . S
O310 Co307 1.966 . S
O310 C308 1.263 . S
C311 O312 1.235 . S
C311 O338 1.289 . S
O312 C311 1.235 . S
C313 C315 1.400 . S
C313 N316 1.351 . S
C313 C318 1.501 . S
C314 C315 1.387 . S
C314 N317 1.341 . S
C315 C313 1.400 . S
C315 C314 1.387 . S
N316 Co307 2.022 . S
N316 C313 1.351 . S
N316 N317 1.365 . S
N317 C314 1.341 . S
N317 N316 1.365 . S
N317 H337 0.862 . S
C318 C313 1.501 . S
C318 H319 0.961 . S
C318 H320 0.961 . S
C318 H321 0.960 . S
H319 C318 0.961 . S
H320 C318 0.961 . S
H321 C318 0.960 . S
C322 N323 1.342 . S
C322 C326 1.401 . S
C322 C327 1.499 . S
N323 Co306 1.989 . S
N323 C322 1.342 . S
N323 N324 1.388 . S
N324 Co307 1.993 . S
N324 N323 1.388 . S
N324 C325 1.346 . S
C325 N324 1.346 . S
C325 C326 1.396 . S
C325 C335 1.510 . S
C326 C322 1.401 . S
C326 C325 1.396 . S
C327 C322 1.499 . S
C327 H328 0.959 . S
C327 H329 0.960 . S
C327 H330 0.961 . S
H328 C327 0.959 . S
H329 C327 0.960 . S
H330 C327 0.961 . S
O331 Co306 1.967 . S
O331 C339 1.258 . S
O332 Co307 1.941 . S
O332 C339 1.266 . S
H333 C335 0.959 . S
H334 C335 0.961 . S
C335 C325 1.510 . S
C335 H333 0.959 . S
C335 H334 0.961 . S
C335 H336 0.960 . S
H336 C335 0.960 . S
H337 N317 0.862 . S
O338 Co306 1.920 . S
O338 C311 1.289 . S
C339 O331 1.258 . S
C339 O332 1.266 . S
Co340 O343 1.970 . S
Co340 N357 1.989 . S
Co340 O365 1.967 . S
Co340 O372 1.920 . S
Co341 O344 1.966 . S
Co341 N350 2.022 . S
Co341 N358 1.993 . S
Co341 O366 1.941 . S
C342 O343 1.258 . S
C342 O344 1.263 . S
O343 Co340 1.970 . S
O343 C342 1.258 . S
O344 Co341 1.966 . S
O344 C342 1.263 . S
C345 O346 1.235 . S
C345 O372 1.289 . S
O346 C345 1.235 . S
C347 C349 1.400 . S
C347 N350 1.351 . S
C347 C352 1.501 . S
C348 C349 1.387 . S
C348 N351 1.341 . S
C349 C347 1.400 . S
C349 C348 1.387 . S
N350 Co341 2.022 . S
N350 C347 1.351 . S
N350 N351 1.365 . S
N351 C348 1.341 . S
N351 N350 1.365 . S
N351 H371 0.862 . S
C352 C347 1.501 . S
C352 H353 0.961 . S
C352 H354 0.961 . S
C352 H355 0.960 . S
H353 C352 0.961 . S
H354 C352 0.961 . S
H355 C352 0.960 . S
C356 N357 1.342 . S
C356 C360 1.401 . S
C356 C361 1.499 . S
N357 Co340 1.989 . S
N357 C356 1.342 . S
N357 N358 1.388 . S
N358 Co341 1.993 . S
N358 N357 1.388 . S
N358 C359 1.346 . S
C359 N358 1.346 . S
C359 C360 1.396 . S
C359 C369 1.510 . S
C360 C356 1.401 . S
C360 C359 1.396 . S
C361 C356 1.499 . S
C361 H362 0.959 . S
C361 H363 0.960 . S
C361 H364 0.961 . S
H362 C361 0.959 . S
H363 C361 0.960 . S
H364 C361 0.961 . S
O365 Co340 1.967 . S
O365 C373 1.258 . S
O366 Co341 1.941 . S
O366 C373 1.266 . S
H367 C369 0.959 . S
H368 C369 0.961 . S
C369 C359 1.510 . S
C369 H367 0.959 . S
C369 H368 0.961 . S
C369 H370 0.960 . S
H370 C369 0.960 . S
H371 N351 0.862 . S
O372 Co340 1.920 . S
O372 C345 1.289 . S
C373 O365 1.258 . S
C373 O366 1.266 . S
Co374 O377 1.970 . S
Co374 N391 1.989 . S
Co374 O399 1.967 . S
Co374 O406 1.920 . S
Co375 O378 1.966 . S
Co375 N384 2.022 . S
Co375 N392 1.993 . S
Co375 O400 1.941 . S
C376 O377 1.258 . S
C376 O378 1.263 . S
O377 Co374 1.970 . S
O377 C376 1.258 . S
O378 Co375 1.966 . S
O378 C376 1.263 . S
C379 O380 1.235 . S
C379 O406 1.289 . S
O380 C379 1.235 . S
C381 C383 1.400 . S
C381 N384 1.351 . S
C381 C386 1.501 . S
C382 C383 1.387 . S
C382 N385 1.341 . S
C383 C381 1.400 . S
C383 C382 1.387 . S
N384 Co375 2.022 . S
N384 C381 1.351 . S
N384 N385 1.365 . S
N385 C382 1.341 . S
N385 N384 1.365 . S
N385 H405 0.862 . S
C386 C381 1.501 . S
C386 H387 0.961 . S
C386 H388 0.961 . S
C386 H389 0.960 . S
H387 C386 0.961 . S
H388 C386 0.961 . S
H389 C386 0.960 . S
C390 N391 1.342 . S
C390 C394 1.401 . S
C390 C395 1.499 . S
N391 Co374 1.989 . S
N391 C390 1.342 . S
N391 N392 1.388 . S
N392 Co375 1.993 . S
N392 N391 1.388 . S
N392 C393 1.346 . S
C393 N392 1.346 . S
C393 C394 1.396 . S
C393 C403 1.510 . S
C394 C390 1.401 . S
C394 C393 1.396 . S
C395 C390 1.499 . S
C395 H396 0.959 . S
C395 H397 0.960 . S
C395 H398 0.961 . S
H396 C395 0.959 . S
H397 C395 0.960 . S
H398 C395 0.961 . S
O399 Co374 1.967 . S
O399 C407 1.258 . S
O400 Co375 1.941 . S
O400 C407 1.266 . S
H401 C403 0.959 . S
H402 C403 0.961 . S
C403 C393 1.510 . S
C403 H401 0.959 . S
C403 H402 0.961 . S
C403 H404 0.960 . S
H404 C403 0.960 . S
H405 N385 0.862 . S
O406 Co374 1.920 . S
O406 C379 1.289 . S
C407 O399 1.258 . S
C407 O400 1.266 . S
Co408 O411 1.970 1_554 S
Co408 N425 1.989 . S
Co408 O433 1.967 1_554 S
Co408 O440 1.920 . S
Co409 O412 1.966 1_554 S
Co409 N418 2.022 . S
Co409 N426 1.993 . S
Co409 O434 1.941 . S
C410 O411 1.258 . S
C410 O412 1.263 . S
O411 Co408 1.970 1_556 S
O411 C410 1.258 . S
O412 Co409 1.966 1_556 S
O412 C410 1.263 . S
C413 O414 1.235 . S
C413 O440 1.289 . S
O414 C413 1.235 . S
C415 C417 1.400 1_556 S
C415 N418 1.351 1_556 S
C415 C420 1.501 . S
C416 C417 1.387 . S
C416 N419 1.341 . S
C417 C415 1.400 1_554 S
C417 C416 1.387 . S
N418 Co409 2.022 . S
N418 C415 1.351 1_554 S
N418 N419 1.365 . S
N419 C416 1.341 . S
N419 N418 1.365 . S
N419 H439 0.862 . S
C420 C415 1.501 . S
C420 H421 0.961 . S
C420 H422 0.961 . S
C420 H423 0.960 . S
H421 C420 0.961 . S
H422 C420 0.961 . S
H423 C420 0.960 . S
C424 N425 1.342 . S
C424 C428 1.401 . S
C424 C429 1.499 . S
N425 Co408 1.989 . S
N425 C424 1.342 . S
N425 N426 1.388 . S
N426 Co409 1.993 . S
N426 N425 1.388 . S
N426 C427 1.346 . S
C427 N426 1.346 . S
C427 C428 1.396 . S
C427 C437 1.510 . S
C428 C424 1.401 . S
C428 C427 1.396 . S
C429 C424 1.499 . S
C429 H430 0.959 . S
C429 H431 0.960 . S
C429 H432 0.961 . S
H430 C429 0.959 . S
H431 C429 0.960 . S
H432 C429 0.961 . S
O433 Co408 1.967 1_556 S
O433 C441 1.258 . S
O434 Co409 1.941 . S
O434 C441 1.266 1_554 S
H435 C437 0.959 . S
H436 C437 0.961 . S
C437 C427 1.510 . S
C437 H435 0.959 . S
C437 H436 0.961 . S
C437 H438 0.960 . S
H438 C437 0.960 . S
H439 N419 0.862 . S
O440 Co408 1.920 . S
O440 C413 1.289 . S
C441 O433 1.258 . S
C441 O434 1.266 1_556 S
Co442 O445 1.970 1_554 S
Co442 N459 1.989 . S
Co442 O467 1.967 1_554 S
Co442 O474 1.920 . S
Co443 O446 1.966 1_554 S
Co443 N452 2.022 . S
Co443 N460 1.993 . S
Co443 O468 1.941 . S
C444 O445 1.258 . S
C444 O446 1.263 . S
O445 Co442 1.970 1_556 S
O445 C444 1.258 . S
O446 Co443 1.966 1_556 S
O446 C444 1.263 . S
C447 O448 1.235 . S
C447 O474 1.289 . S
O448 C447 1.235 . S
C449 C451 1.400 1_556 S
C449 N452 1.351 1_556 S
C449 C454 1.501 . S
C450 C451 1.387 . S
C450 N453 1.341 . S
C451 C449 1.400 1_554 S
C451 C450 1.387 . S
N452 Co443 2.022 . S
N452 C449 1.351 1_554 S
N452 N453 1.365 . S
N453 C450 1.341 . S
N453 N452 1.365 . S
N453 H473 0.862 . S
C454 C449 1.501 . S
C454 H455 0.961 . S
C454 H456 0.961 . S
C454 H457 0.960 . S
H455 C454 0.961 . S
H456 C454 0.961 . S
H457 C454 0.960 . S
C458 N459 1.342 . S
C458 C462 1.401 . S
C458 C463 1.499 . S
N459 Co442 1.989 . S
N459 C458 1.342 . S
N459 N460 1.388 . S
N460 Co443 1.993 . S
N460 N459 1.388 . S
N460 C461 1.346 . S
C461 N460 1.346 . S
C461 C462 1.396 . S
C461 C471 1.510 . S
C462 C458 1.401 . S
C462 C461 1.396 . S
C463 C458 1.499 . S
C463 H464 0.959 . S
C463 H465 0.960 . S
C463 H466 0.961 . S
H464 C463 0.959 . S
H465 C463 0.960 . S
H466 C463 0.961 . S
O467 Co442 1.967 1_556 S
O467 C475 1.258 . S
O468 Co443 1.941 . S
O468 C475 1.266 1_554 S
H469 C471 0.959 . S
H470 C471 0.961 . S
C471 C461 1.510 . S
C471 H469 0.959 . S
C471 H470 0.961 . S
C471 H472 0.960 . S
H472 C471 0.960 . S
H473 N453 0.862 . S
O474 Co442 1.920 . S
O474 C447 1.289 . S
C475 O467 1.258 . S
C475 O468 1.266 1_556 S
Co476 O479 1.970 1_554 S
Co476 N493 1.989 . S
Co476 O501 1.967 1_554 S
Co476 O508 1.920 . S
Co477 O480 1.966 1_554 S
Co477 N486 2.022 . S
Co477 N494 1.993 . S
Co477 O502 1.941 . S
C478 O479 1.258 . S
C478 O480 1.263 . S
O479 Co476 1.970 1_556 S
O479 C478 1.258 . S
O480 Co477 1.966 1_556 S
O480 C478 1.263 . S
C481 O482 1.235 . S
C481 O508 1.289 . S
O482 C481 1.235 . S
C483 C485 1.400 1_556 S
C483 N486 1.351 1_556 S
C483 C488 1.501 . S
C484 C485 1.387 . S
C484 N487 1.341 . S
C485 C483 1.400 1_554 S
C485 C484 1.387 . S
N486 Co477 2.022 . S
N486 C483 1.351 1_554 S
N486 N487 1.365 . S
N487 C484 1.341 . S
N487 N486 1.365 . S
N487 H507 0.862 . S
C488 C483 1.501 . S
C488 H489 0.961 . S
C488 H490 0.961 . S
C488 H491 0.960 . S
H489 C488 0.961 . S
H490 C488 0.961 . S
H491 C488 0.960 . S
C492 N493 1.342 . S
C492 C496 1.401 . S
C492 C497 1.499 . S
N493 Co476 1.989 . S
N493 C492 1.342 . S
N493 N494 1.388 . S
N494 Co477 1.993 . S
N494 N493 1.388 . S
N494 C495 1.346 . S
C495 N494 1.346 . S
C495 C496 1.396 . S
C495 C505 1.510 . S
C496 C492 1.401 . S
C496 C495 1.396 . S
C497 C492 1.499 . S
C497 H498 0.959 . S
C497 H499 0.960 . S
C497 H500 0.961 . S
H498 C497 0.959 . S
H499 C497 0.960 . S
H500 C497 0.961 . S
O501 Co476 1.967 1_556 S
O501 C509 1.258 . S
O502 Co477 1.941 . S
O502 C509 1.266 1_554 S
H503 C505 0.959 . S
H504 C505 0.961 . S
C505 C495 1.510 . S
C505 H503 0.959 . S
C505 H504 0.961 . S
C505 H506 0.960 . S
H506 C505 0.960 . S
H507 N487 0.862 . S
O508 Co476 1.920 . S
O508 C481 1.289 . S
C509 O501 1.258 . S
C509 O502 1.266 1_556 S
Co510 O513 1.970 1_554 S
Co510 N527 1.989 . S
Co510 O535 1.967 1_554 S
Co510 O542 1.920 . S
Co511 O514 1.966 1_554 S
Co511 N520 2.022 . S
Co511 N528 1.993 . S
Co511 O536 1.941 . S
C512 O513 1.258 . S
C512 O514 1.263 . S
O513 Co510 1.970 1_556 S
O513 C512 1.258 . S
O514 Co511 1.966 1_556 S
O514 C512 1.263 . S
C515 O516 1.235 . S
C515 O542 1.289 . S
O516 C515 1.235 . S
C517 C519 1.400 1_556 S
C517 N520 1.351 1_556 S
C517 C522 1.501 . S
C518 C519 1.387 . S
C518 N521 1.341 . S
C519 C517 1.400 1_554 S
C519 C518 1.387 . S
N520 Co511 2.022 . S
N520 C517 1.351 1_554 S
N520 N521 1.365 . S
N521 C518 1.341 . S
N521 N520 1.365 . S
N521 H541 0.862 . S
C522 C517 1.501 . S
C522 H523 0.961 . S
C522 H524 0.961 . S
C522 H525 0.960 . S
H523 C522 0.961 . S
H524 C522 0.961 . S
H525 C522 0.960 . S
C526 N527 1.342 . S
C526 C530 1.401 . S
C526 C531 1.499 . S
N527 Co510 1.989 . S
N527 C526 1.342 . S
N527 N528 1.388 . S
N528 Co511 1.993 . S
N528 N527 1.388 . S
N528 C529 1.346 . S
C529 N528 1.346 . S
C529 C530 1.396 . S
C529 C539 1.510 . S
C530 C526 1.401 . S
C530 C529 1.396 . S
C531 C526 1.499 . S
C531 H532 0.959 . S
C531 H533 0.960 . S
C531 H534 0.961 . S
H532 C531 0.959 . S
H533 C531 0.960 . S
H534 C531 0.961 . S
O535 Co510 1.967 1_556 S
O535 C543 1.258 . S
O536 Co511 1.941 . S
O536 C543 1.266 1_554 S
H537 C539 0.959 . S
H538 C539 0.961 . S
C539 C529 1.510 . S
C539 H537 0.959 . S
C539 H538 0.961 . S
C539 H540 0.960 . S
H540 C539 0.960 . S
H541 N521 0.862 . S
O542 Co510 1.920 . S
O542 C515 1.289 . S
C543 O535 1.258 . S
C543 O536 1.266 1_556 S
C544 C545 1.363 . S
C544 C550 1.379 . S
C544 N552 1.356 . S
C545 C544 1.363 . S
C545 C551 1.363 . S
C546 C547 1.363 1_556 S
C546 C551 1.379 1_556 S
C546 N553 1.356 . S
C547 C546 1.363 1_554 S
C547 C550 1.363 . S
N548 C550 1.356 . S
N548 H560 0.984 . S
N548 H561 0.985 . S
N549 C551 1.356 1_556 S
N549 H554 0.984 1_556 S
N549 H555 0.985 . S
C550 C544 1.379 . S
C550 C547 1.363 . S
C550 N548 1.356 . S
C551 C545 1.363 . S
C551 C546 1.379 1_554 S
C551 N549 1.356 1_554 S
N552 C544 1.356 . S
N552 H558 0.984 . S
N552 H559 0.984 . S
N553 C546 1.356 . S
N553 H556 0.984 . S
N553 H557 0.985 . S
H554 N549 0.984 1_554 S
H555 N549 0.985 . S
H556 N553 0.984 . S
H557 N553 0.985 . S
H558 N552 0.984 . S
H559 N552 0.984 . S
H560 N548 0.984 . S
H561 N548 0.985 . S
C562 C563 1.363 . S
C562 C568 1.379 . S
C562 N570 1.356 . S
C563 C562 1.363 . S
C563 C569 1.363 . S
C564 C565 1.363 . S
C564 C569 1.379 . S
C564 N571 1.356 . S
C565 C564 1.363 . S
C565 C568 1.363 . S
N566 C568 1.356 . S
N566 H578 0.984 . S
N566 H579 0.985 . S
N567 C569 1.356 . S
N567 H572 0.984 . S
N567 H573 0.985 . S
C568 C562 1.379 . S
C568 C565 1.363 . S
C568 N566 1.356 . S
C569 C563 1.363 . S
C569 C564 1.379 . S
C569 N567 1.356 . S
N570 C562 1.356 . S
N570 H576 0.984 . S
N570 H577 0.984 . S
N571 C564 1.356 . S
N571 H574 0.984 . S
N571 H575 0.985 . S
H572 N567 0.984 . S
H573 N567 0.985 . S
H574 N571 0.984 . S
H575 N571 0.985 . S
H576 N570 0.984 . S
H577 N570 0.984 . S
H578 N566 0.984 . S
H579 N566 0.985 . S
C580 C581 1.363 1_556 S
C580 C586 1.379 1_556 S
C580 N588 1.356 . S
C581 C580 1.363 1_554 S
C581 C587 1.363 . S
C582 C583 1.363 . S
C582 C587 1.379 . S
C582 N589 1.356 . S
C583 C582 1.363 . S
C583 C586 1.363 . S
N584 C586 1.356 1_556 S
N584 H596 0.984 . S
N584 H597 0.985 . S
N585 C587 1.356 . S
N585 H590 0.984 . S
N585 H591 0.985 . S
C586 C580 1.379 1_554 S
C586 C583 1.363 . S
C586 N584 1.356 1_554 S
C587 C581 1.363 . S
C587 C582 1.379 . S
C587 N585 1.356 . S
N588 C580 1.356 . S
N588 H594 0.984 . S
N588 H595 0.984 . S
N589 C582 1.356 . S
N589 H592 0.984 . S
N589 H593 0.985 . S
H590 N585 0.984 . S
H591 N585 0.985 . S
H592 N589 0.984 . S
H593 N589 0.985 . S
H594 N588 0.984 . S
H595 N588 0.984 . S
H596 N584 0.984 . S
H597 N584 0.985 . S
C598 C599 1.363 . S
C598 C604 1.379 . S
C598 N606 1.356 . S
C599 C598 1.363 . S
C599 C605 1.363 . S
C600 C601 1.363 1_556 S
C600 C605 1.379 1_556 S
C600 N607 1.356 . S
C601 C600 1.363 1_554 S
C601 C604 1.363 . S
N602 C604 1.356 . S
N602 H614 0.984 . S
N602 H615 0.985 . S
N603 C605 1.356 1_556 S
N603 H608 0.989 . S
N603 H609 0.985 . S
C604 C598 1.379 . S
C604 C601 1.363 . S
C604 N602 1.356 . S
C605 C599 1.363 . S
C605 C600 1.379 1_554 S
C605 N603 1.356 1_554 S
N606 C598 1.356 . S
N606 H612 0.984 . S
N606 H613 0.984 . S
N607 C600 1.356 . S
N607 H610 0.984 . S
N607 H611 0.985 . S
H608 N603 0.989 . S
H609 N603 0.985 . S
H610 N607 0.984 . S
H611 N607 0.985 . S
H612 N606 0.984 . S
H613 N606 0.984 . S
H614 N602 0.984 . S
H615 N602 0.985 . S
C616 C617 1.363 . S
C616 C622 1.379 . S
C616 N624 1.356 . S
C617 C616 1.363 . S
C617 C623 1.363 . S
C618 C619 1.363 . S
C618 C623 1.379 . S
C618 N625 1.356 . S
C619 C618 1.363 . S
C619 C622 1.363 . S
N620 C622 1.356 . S
N620 H632 0.984 . S
N620 H633 0.985 . S
N621 C623 1.356 . S
N621 H626 0.984 . S
N621 H627 0.985 . S
C622 C616 1.379 . S
C622 C619 1.363 . S
C622 N620 1.356 . S
C623 C617 1.363 . S
C623 C618 1.379 . S
C623 N621 1.356 . S
N624 C616 1.356 . S
N624 H630 0.984 . S
N624 H631 0.984 . S
N625 C618 1.356 . S
N625 H628 0.984 . S
N625 H629 0.985 . S
H626 N621 0.984 . S
H627 N621 0.985 . S
H628 N625 0.984 . S
H629 N625 0.985 . S
H630 N624 0.984 . S
H631 N624 0.984 . S
H632 N620 0.984 . S
H633 N620 0.985 . S
C634 C635 1.363 . S
C634 C640 1.379 . S
C634 N642 1.356 . S
C635 C634 1.363 . S
C635 C641 1.363 . S
C636 C637 1.363 . S
C636 C641 1.379 . S
C636 N643 1.356 . S
C637 C636 1.363 . S
C637 C640 1.363 . S
N638 C640 1.356 . S
N638 H650 0.984 . S
N638 H651 0.985 . S
N639 C641 1.356 . S
N639 H644 0.984 . S
N639 H645 0.985 . S
C640 C634 1.379 . S
C640 C637 1.363 . S
C640 N638 1.356 . S
C641 C635 1.363 . S
C641 C636 1.379 . S
C641 N639 1.356 . S
N642 C634 1.356 . S
N642 H648 0.984 . S
N642 H649 0.984 . S
N643 C636 1.356 . S
N643 H646 0.984 . S
N643 H647 0.985 . S
H644 N639 0.984 . S
H645 N639 0.985 . S
H646 N643 0.984 . S
H647 N643 0.985 . S
H648 N642 0.984 . S
H649 N642 0.984 . S
H650 N638 0.984 . S
H651 N638 0.985 . S
C652 C653 1.363 . S
C652 C658 1.379 . S
C652 N660 1.356 . S
C653 C652 1.363 . S
C653 C659 1.363 . S
C654 C655 1.363 . S
C654 C659 1.379 . S
C654 N661 1.356 . S
C655 C654 1.363 . S
C655 C658 1.363 . S
N656 C658 1.356 . S
N656 H668 0.984 . S
N656 H669 0.985 . S
N657 C659 1.356 . S
N657 H662 0.984 . S
N657 H663 0.985 . S
C658 C652 1.379 . S
C658 C655 1.363 . S
C658 N656 1.356 . S
C659 C653 1.363 . S
C659 C654 1.379 . S
C659 N657 1.356 . S
N660 C652 1.356 . S
N660 H666 0.984 . S
N660 H667 0.984 . S
N661 C654 1.356 . S
N661 H664 0.984 . S
N661 H665 0.985 . S
H662 N657 0.984 . S
H663 N657 0.985 . S
H664 N661 0.984 . S
H665 N661 0.985 . S
H666 N660 0.984 . S
H667 N660 0.984 . S
H668 N656 0.984 . S
H669 N656 0.985 . S
C670 C671 1.363 . S
C670 C676 1.379 . S
C670 N678 1.356 . S
C671 C670 1.363 . S
C671 C677 1.363 . S
C672 C673 1.363 . S
C672 C677 1.379 . S
C672 N679 1.356 . S
C673 C672 1.363 . S
C673 C676 1.363 . S
N674 C676 1.356 . S
N674 H686 0.984 . S
N674 H687 0.985 . S
N675 C677 1.356 . S
N675 H680 0.984 . S
N675 H681 0.985 . S
C676 C670 1.379 . S
C676 C673 1.363 . S
C676 N674 1.356 . S
C677 C671 1.363 . S
C677 C672 1.379 . S
C677 N675 1.356 . S
N678 C670 1.356 . S
N678 H684 0.984 . S
N678 H685 0.984 . S
N679 C672 1.356 . S
N679 H682 0.984 . S
N679 H683 0.985 . S
H680 N675 0.984 . S
H681 N675 0.985 . S
H682 N679 0.984 . S
H683 N679 0.985 . S
H684 N678 0.984 . S
H685 N678 0.984 . S
H686 N674 0.984 . S
H687 N674 0.985 . S
C688 C689 1.363 . S
C688 C694 1.379 . S
C688 N696 1.356 1_554 S
C689 C688 1.363 . S
C689 C695 1.363 . S
C690 C691 1.363 . S
C690 C695 1.379 . S
C690 N697 1.356 . S
C691 C690 1.363 . S
C691 C694 1.363 . S
N692 C694 1.356 . S
N692 H704 0.984 1_554 S
N692 H705 0.985 . S
N693 C695 1.356 . S
N693 H698 0.984 . S
N693 H699 0.985 . S
C694 C688 1.379 . S
C694 C691 1.363 . S
C694 N692 1.356 . S
C695 C689 1.363 . S
C695 C690 1.379 . S
C695 N693 1.356 . S
N696 C688 1.356 1_556 S
N696 H702 0.984 . S
N696 H703 0.984 1_556 S
N697 C690 1.356 . S
N697 H700 0.984 . S
N697 H701 0.985 . S
H698 N693 0.984 . S
H699 N693 0.985 . S
H700 N697 0.984 . S
H701 N697 0.985 . S
H702 N696 0.984 . S
H703 N696 0.984 1_554 S
H704 N692 0.984 1_556 S
H705 N692 0.985 . S
C706 C707 1.363 . S
C706 C712 1.379 . S
C706 N714 1.356 . S
C707 C706 1.363 . S
C707 C713 1.363 . S
C708 C709 1.363 . S
C708 C713 1.379 . S
C708 N715 1.356 . S
C709 C708 1.363 . S
C709 C712 1.363 . S
N710 C712 1.356 . S
N710 H722 0.984 . S
N710 H723 0.985 . S
N711 C713 1.356 1_556 S
N711 H716 0.988 . S
N711 H717 0.985 . S
C712 C706 1.379 . S
C712 C709 1.363 . S
C712 N710 1.356 . S
C713 C707 1.363 . S
C713 C708 1.379 . S
C713 N711 1.356 1_554 S
N714 C706 1.356 . S
N714 H720 0.984 . S
N714 H721 0.984 . S
N715 C708 1.356 . S
N715 H718 0.984 . S
N715 H719 0.985 1_554 S
H716 N711 0.988 . S
H717 N711 0.985 . S
H718 N715 0.984 . S
H719 N715 0.985 1_556 S
H720 N714 0.984 . S
H721 N714 0.984 . S
H722 N710 0.984 . S
H723 N710 0.985 . S
C724 C725 1.363 . S
C724 C730 1.379 . S
C724 N732 1.356 . S
C725 C724 1.363 . S
C725 C731 1.363 . S
C726 C727 1.363 . S
C726 C731 1.379 . S
C726 N733 1.361 . S
C727 C726 1.363 . S
C727 C730 1.363 . S
N728 C730 1.356 . S
N728 H740 0.984 . S
N728 H741 0.985 . S
N729 C731 1.356 . S
N729 H734 0.984 . S
N729 H735 0.985 1_554 S
C730 C724 1.379 . S
C730 C727 1.363 . S
C730 N728 1.356 . S
C731 C725 1.363 . S
C731 C726 1.379 . S
C731 N729 1.356 . S
N732 C724 1.356 . S
N732 H738 0.984 . S
N732 H739 0.984 . S
N733 C726 1.361 . S
N733 H736 0.986 . S
N733 H737 0.978 1_554 S
H734 N729 0.984 . S
H735 N729 0.985 1_556 S
H736 N733 0.986 . S
H737 N733 0.978 1_556 S
H738 N732 0.984 . S
H739 N732 0.984 . S
H740 N728 0.984 . S
H741 N728 0.985 . S
C742 C743 1.363 . S
C742 C748 1.379 . S
C742 N750 1.356 . S
C743 C742 1.363 . S
C743 C749 1.363 . S
C744 C745 1.363 . S
C744 C749 1.379 . S
C744 N751 1.356 . S
C745 C744 1.363 . S
C745 C748 1.363 . S
N746 C748 1.356 . S
N746 H758 0.984 1_554 S
N746 H759 0.985 . S
N747 C749 1.356 . S
N747 H752 0.984 . S
N747 H753 0.985 . S
C748 C742 1.379 . S
C748 C745 1.363 . S
C748 N746 1.356 . S
C749 C743 1.363 . S
C749 C744 1.379 . S
C749 N747 1.356 . S
N750 C742 1.356 . S
N750 H756 0.984 . S
N750 H757 0.984 . S
N751 C744 1.356 . S
N751 H754 0.984 . S
N751 H755 0.985 . S
H752 N747 0.984 . S
H753 N747 0.985 . S
H754 N751 0.984 . S
H755 N751 0.985 . S
H756 N750 0.984 . S
H757 N750 0.984 . S
H758 N746 0.984 1_556 S
H759 N746 0.985 . S
C760 C761 1.363 . S
C760 C766 1.379 . S
C760 N768 1.356 . S
C761 C760 1.363 . S
C761 C767 1.363 . S
C762 C763 1.363 . S
C762 C767 1.379 . S
C762 N769 1.356 . S
C763 C762 1.363 . S
C763 C766 1.363 . S
N764 C766 1.356 . S
N764 H776 0.984 . S
N764 H777 0.985 . S
N765 C767 1.356 . S
N765 H770 0.984 . S
N765 H771 0.985 . S
C766 C760 1.379 . S
C766 C763 1.363 . S
C766 N764 1.356 . S
C767 C761 1.363 . S
C767 C762 1.379 . S
C767 N765 1.356 . S
N768 C760 1.356 . S
N768 H774 0.984 . S
N768 H775 0.984 . S
N769 C762 1.356 . S
N769 H772 0.984 . S
N769 H773 0.985 . S
H770 N765 0.984 . S
H771 N765 0.985 . S
H772 N769 0.984 . S
H773 N769 0.985 . S
H774 N768 0.984 . S
H775 N768 0.984 . S
H776 N764 0.984 . S
H777 N764 0.985 . S
C778 C779 1.363 . S
C778 C784 1.379 . S
C778 N786 1.356 . S
C779 C778 1.363 . S
C779 C785 1.363 . S
C780 C781 1.363 . S
C780 C785 1.379 . S
C780 N787 1.356 . S
C781 C780 1.363 . S
C781 C784 1.363 . S
N782 C784 1.356 . S
N782 H794 0.984 . S
N782 H795 0.985 . S
N783 C785 1.356 . S
N783 H788 0.984 . S
N783 H789 0.985 . S
C784 C778 1.379 . S
C784 C781 1.363 . S
C784 N782 1.356 . S
C785 C779 1.363 . S
C785 C780 1.379 . S
C785 N783 1.356 . S
N786 C778 1.356 . S
N786 H792 0.984 . S
N786 H793 0.984 . S
N787 C780 1.356 . S
N787 H790 0.984 . S
N787 H791 0.985 . S
H788 N783 0.984 . S
H789 N783 0.985 . S
H790 N787 0.984 . S
H791 N787 0.985 . S
H792 N786 0.984 . S
H793 N786 0.984 . S
H794 N782 0.984 . S
H795 N782 0.985 . S
C796 C797 1.363 . S
C796 C802 1.379 . S
C796 N804 1.356 . S
C797 C796 1.363 . S
C797 C803 1.363 . S
C798 C799 1.363 . S
C798 C803 1.379 . S
C798 N805 1.356 . S
C799 C798 1.363 . S
C799 C802 1.363 . S
N800 C802 1.356 . S
N800 H812 0.984 . S
N800 H813 0.985 . S
N801 C803 1.356 . S
N801 H806 0.984 . S
N801 H807 0.985 . S
C802 C796 1.379 . S
C802 C799 1.363 . S
C802 N800 1.356 . S
C803 C797 1.363 . S
C803 C798 1.379 . S
C803 N801 1.356 . S
N804 C796 1.356 . S
N804 H810 0.984 . S
N804 H811 0.984 . S
N805 C798 1.356 . S
N805 H808 0.984 . S
N805 H809 0.985 . S
H806 N801 0.984 . S
H807 N801 0.985 . S
H808 N805 0.984 . S
H809 N805 0.985 . S
H810 N804 0.984 . S
H811 N804 0.984 . S
H812 N800 0.984 . S
H813 N800 0.985 . S
C814 C815 1.363 . S
C814 C820 1.379 . S
C814 N822 1.356 . S
C815 C814 1.363 . S
C815 C821 1.363 . S
C816 C817 1.363 . S
C816 C821 1.379 . S
C816 N823 1.356 . S
C817 C816 1.363 . S
C817 C820 1.363 . S
N818 C820 1.356 . S
N818 H830 0.984 . S
N818 H831 0.985 . S
N819 C821 1.356 . S
N819 H824 0.984 . S
N819 H825 0.985 . S
C820 C814 1.379 . S
C820 C817 1.363 . S
C820 N818 1.356 . S
C821 C815 1.363 . S
C821 C816 1.379 . S
C821 N819 1.356 . S
N822 C814 1.356 . S
N822 H828 0.984 . S
N822 H829 0.984 . S
N823 C816 1.356 . S
N823 H826 0.984 . S
N823 H827 0.985 . S
H824 N819 0.984 . S
H825 N819 0.985 . S
H826 N823 0.984 . S
H827 N823 0.985 . S
H828 N822 0.984 . S
H829 N822 0.984 . S
H830 N818 0.984 . S
H831 N818 0.985 . S
C832 C833 1.363 . S
C832 C838 1.379 . S
C832 N840 1.356 . S
C833 C832 1.363 . S
C833 C839 1.363 . S
C834 C835 1.363 . S
C834 C839 1.379 . S
C834 N841 1.356 . S
C835 C834 1.363 . S
C835 C838 1.363 . S
N836 C838 1.356 . S
N836 H848 0.984 . S
N836 H849 0.985 . S
N837 C839 1.356 . S
N837 H842 0.984 . S
N837 H843 0.985 . S
C838 C832 1.379 . S
C838 C835 1.363 . S
C838 N836 1.356 . S
C839 C833 1.363 . S
C839 C834 1.379 . S
C839 N837 1.356 . S
N840 C832 1.356 . S
N840 H846 0.984 . S
N840 H847 0.984 . S
N841 C834 1.356 . S
N841 H844 0.984 . S
N841 H845 0.985 . S
H842 N837 0.984 . S
H843 N837 0.985 . S
H844 N841 0.984 . S
H845 N841 0.985 . S
H846 N840 0.984 . S
H847 N840 0.984 . S
H848 N836 0.984 . S
H849 N836 0.985 . S
C850 C851 1.363 . S
C850 C856 1.379 . S
C850 N858 1.356 . S
C851 C850 1.363 . S
C851 C857 1.363 . S
C852 C853 1.363 . S
C852 C857 1.379 . S
C852 N859 1.356 . S
C853 C852 1.363 . S
C853 C856 1.363 . S
N854 C856 1.356 . S
N854 H866 0.984 . S
N854 H867 0.985 . S
N855 C857 1.356 . S
N855 H860 0.984 . S
N855 H861 0.985 . S
C856 C850 1.379 . S
C856 C853 1.363 . S
C856 N854 1.356 . S
C857 C851 1.363 . S
C857 C852 1.379 . S
C857 N855 1.356 . S
N858 C850 1.356 . S
N858 H864 0.984 . S
N858 H865 0.984 . S
N859 C852 1.356 . S
N859 H862 0.984 . S
N859 H863 0.985 . S
H860 N855 0.984 . S
H861 N855 0.985 . S
H862 N859 0.984 . S
H863 N859 0.985 . S
H864 N858 0.984 . S
H865 N858 0.984 . S
H866 N854 0.984 . S
H867 N854 0.985 . S
C868 C869 1.363 . S
C868 C874 1.379 . S
C868 N876 1.356 . S
C869 C868 1.363 . S
C869 C875 1.363 . S
C870 C871 1.363 . S
C870 C875 1.379 . S
C870 N877 1.356 . S
C871 C870 1.363 . S
C871 C874 1.363 . S
N872 C874 1.356 . S
N872 H884 0.984 . S
N872 H885 0.985 . S
N873 C875 1.356 . S
N873 H878 0.984 . S
N873 H879 0.985 . S
C874 C868 1.379 . S
C874 C871 1.363 . S
C874 N872 1.356 . S
C875 C869 1.363 . S
C875 C870 1.379 . S
C875 N873 1.356 . S
N876 C868 1.356 . S
N876 H882 0.984 . S
N876 H883 0.984 . S
N877 C870 1.356 . S
N877 H880 0.984 . S
N877 H881 0.985 . S
H878 N873 0.984 . S
H879 N873 0.985 . S
H880 N877 0.984 . S
H881 N877 0.985 . S
H882 N876 0.984 . S
H883 N876 0.984 . S
H884 N872 0.984 . S
H885 N872 0.985 . S
C886 C887 1.363 . S
C886 C892 1.379 . S
C886 N894 1.356 . S
C887 C886 1.363 . S
C887 C893 1.363 . S
C888 C889 1.363 . S
C888 C893 1.379 . S
C888 N895 1.356 . S
C889 C888 1.363 . S
C889 C892 1.363 . S
N890 C892 1.356 . S
N890 H902 0.984 . S
N890 H903 0.985 . S
N891 C893 1.356 . S
N891 H896 0.984 . S
N891 H897 0.985 . S
C892 C886 1.379 . S
C892 C889 1.363 . S
C892 N890 1.356 . S
C893 C887 1.363 . S
C893 C888 1.379 . S
C893 N891 1.356 . S
N894 C886 1.356 . S
N894 H900 0.984 . S
N894 H901 0.984 . S
N895 C888 1.356 . S
N895 H898 0.984 . S
N895 H899 0.985 . S
H896 N891 0.984 . S
H897 N891 0.985 . S
H898 N895 0.984 . S
H899 N895 0.985 . S
H900 N894 0.984 . S
H901 N894 0.984 . S
H902 N890 0.984 . S
H903 N890 0.985 . S
C904 C905 1.363 . S
C904 C910 1.379 . S
C904 N912 1.356 . S
C905 C904 1.363 . S
C905 C911 1.363 1_554 S
C906 C907 1.363 . S
C906 C911 1.379 . S
C906 N913 1.356 . S
C907 C906 1.363 . S
C907 C910 1.363 1_556 S
N908 C910 1.356 . S
N908 H920 0.984 . S
N908 H921 0.985 . S
N909 C911 1.356 . S
N909 H914 0.984 . S
N909 H915 0.985 . S
C910 C904 1.379 . S
C910 C907 1.363 1_554 S
C910 N908 1.356 . S
C911 C905 1.363 1_556 S
C911 C906 1.379 . S
C911 N909 1.356 . S
N912 C904 1.356 . S
N912 H918 0.984 . S
N912 H919 0.984 . S
N913 C906 1.356 . S
N913 H916 0.984 . S
N913 H917 0.985 . S
H914 N909 0.984 . S
H915 N909 0.985 . S
H916 N913 0.984 . S
H917 N913 0.985 . S
H918 N912 0.984 . S
H919 N912 0.984 . S
H920 N908 0.984 . S
H921 N908 0.985 . S
C922 C923 1.363 . S
C922 C928 1.379 . S
C922 N930 1.356 . S
C923 C922 1.363 . S
C923 C929 1.363 1_554 S
C924 C925 1.363 . S
C924 C929 1.379 . S
C924 N931 1.356 . S
C925 C924 1.363 . S
C925 C928 1.363 1_556 S
N926 C928 1.356 . S
N926 H938 0.984 . S
N926 H939 0.985 . S
N927 C929 1.356 . S
N927 H932 0.984 . S
N927 H933 0.985 . S
C928 C922 1.379 . S
C928 C925 1.363 1_554 S
C928 N926 1.356 . S
C929 C923 1.363 1_556 S
C929 C924 1.379 . S
C929 N927 1.356 . S
N930 C922 1.356 . S
N930 H936 0.984 . S
N930 H937 0.984 . S
N931 C924 1.356 . S
N931 H934 0.984 . S
N931 H935 0.985 . S
H932 N927 0.984 . S
H933 N927 0.985 . S
H934 N931 0.984 . S
H935 N931 0.985 . S
H936 N930 0.984 . S
H937 N930 0.984 . S
H938 N926 0.984 . S
H939 N926 0.985 . S
C940 C941 1.363 1_556 S
C940 C946 1.379 . S
C940 N948 1.356 . S
C941 C940 1.363 1_554 S
C941 C947 1.363 . S
C942 C943 1.363 1_554 S
C942 C947 1.379 . S
C942 N949 1.356 . S
C943 C942 1.363 1_556 S
C943 C946 1.363 . S
N944 C946 1.356 . S
N944 H956 0.984 . S
N944 H957 0.985 . S
N945 C947 1.356 . S
N945 H950 0.984 . S
N945 H951 0.985 . S
C946 C940 1.379 . S
C946 C943 1.363 . S
C946 N944 1.356 . S
C947 C941 1.363 . S
C947 C942 1.379 . S
C947 N945 1.356 . S
N948 C940 1.356 . S
N948 H954 0.984 . S
N948 H955 0.984 . S
N949 C942 1.356 . S
N949 H952 0.984 . S
N949 H953 0.985 . S
H950 N945 0.984 . S
H951 N945 0.985 . S
H952 N949 0.984 . S
H953 N949 0.985 . S
H954 N948 0.984 . S
H955 N948 0.984 . S
H956 N944 0.984 . S
H957 N944 0.985 . S
C958 C959 1.363 . S
C958 C964 1.379 . S
C958 N966 1.356 . S
C959 C958 1.363 . S
C959 C965 1.363 1_554 S
C960 C961 1.363 . S
C960 C965 1.379 . S
C960 N967 1.356 . S
C961 C960 1.363 . S
C961 C964 1.363 1_556 S
N962 C964 1.356 . S
N962 H974 0.984 . S
N962 H975 0.985 . S
N963 C965 1.356 . S
N963 H968 0.984 . S
N963 H969 0.985 . S
C964 C958 1.379 . S
C964 C961 1.363 1_554 S
C964 N962 1.356 . S
C965 C959 1.363 1_556 S
C965 C960 1.379 . S
C965 N963 1.356 . S
N966 C958 1.356 . S
N966 H972 0.984 . S
N966 H973 0.984 . S
N967 C960 1.356 . S
N967 H970 0.984 . S
N967 H971 0.985 . S
H968 N963 0.984 . S
H969 N963 0.985 . S
H970 N967 0.984 . S
H971 N967 0.985 . S
H972 N966 0.984 . S
H973 N966 0.984 . S
H974 N962 0.984 . S
H975 N962 0.985 . S
C976 C977 1.363 1_455 S
C976 C982 1.379 . S
C976 N984 1.356 . S
C977 C976 1.363 1_655 S
C977 C983 1.363 . S
C978 C979 1.363 1_655 S
C978 C983 1.379 . S
C978 N985 1.356 . S
C979 C978 1.363 1_455 S
C979 C982 1.363 . S
N980 C982 1.356 . S
N980 H992 0.984 . S
N980 H993 0.985 . S
N981 C983 1.356 . S
N981 H986 0.984 . S
N981 H987 0.985 . S
C982 C976 1.379 . S
C982 C979 1.363 . S
C982 N980 1.356 . S
C983 C977 1.363 . S
C983 C978 1.379 . S
C983 N981 1.356 . S
N984 C976 1.356 . S
N984 H990 0.984 . S
N984 H991 0.984 . S
N985 C978 1.356 . S
N985 H988 0.984 . S
N985 H989 0.985 . S
H986 N981 0.984 . S
H987 N981 0.985 . S
H988 N985 0.984 . S
H989 N985 0.985 . S
H990 N984 0.984 . S
H991 N984 0.984 . S
H992 N980 0.984 . S
H993 N980 0.985 . S
C994 C995 1.363 . S
C994 C1000 1.379 . S
C994 N1002 1.356 . S
C995 C994 1.363 . S
C995 C1001 1.363 1_565 S
C996 C997 1.363 . S
C996 C1001 1.379 . S
C996 N1003 1.356 . S
C997 C996 1.363 . S
C997 C1000 1.363 1_545 S
N998 C1000 1.356 . S
N998 H1010 0.984 . S
N998 H1011 0.985 . S
N999 C1001 1.356 . S
N999 H1004 0.984 . S
N999 H1005 0.985 . S
C1000 C994 1.379 . S
C1000 C997 1.363 1_565 S
C1000 N998 1.356 . S
C1001 C995 1.363 1_545 S
C1001 C996 1.379 . S
C1001 N999 1.356 . S
N1002 C994 1.356 . S
N1002 H1008 0.984 . S
N1002 H1009 0.984 . S
N1003 C996 1.356 . S
N1003 H1006 0.984 . S
N1003 H1007 0.985 . S
H1004 N999 0.984 . S
H1005 N999 0.985 . S
H1006 N1003 0.984 . S
H1007 N1003 0.985 . S
H1008 N1002 0.984 . S
H1009 N1002 0.984 . S
H1010 N998 0.984 . S
H1011 N998 0.985 . S
C1012 C1013 1.363 . S
C1012 C1018 1.379 . S
C1012 N1020 1.356 . S
C1013 C1012 1.363 . S
C1013 C1019 1.363 1_655 S
C1014 C1015 1.363 . S
C1014 C1019 1.379 . S
C1014 N1021 1.356 . S
C1015 C1014 1.363 . S
C1015 C1018 1.363 1_455 S
N1016 C1018 1.356 . S
N1016 H1028 0.984 . S
N1016 H1029 0.985 . S
N1017 C1019 1.356 . S
N1017 H1022 0.984 . S
N1017 H1023 0.985 . S
C1018 C1012 1.379 . S
C1018 C1015 1.363 1_655 S
C1018 N1016 1.356 . S
C1019 C1013 1.363 1_455 S
C1019 C1014 1.379 . S
C1019 N1017 1.356 . S
N1020 C1012 1.356 . S
N1020 H1026 0.984 . S
N1020 H1027 0.984 . S
N1021 C1014 1.356 . S
N1021 H1024 0.984 . S
N1021 H1025 0.985 . S
H1022 N1017 0.984 . S
H1023 N1017 0.985 . S
H1024 N1021 0.984 . S
H1025 N1021 0.985 . S
H1026 N1020 0.984 . S
H1027 N1020 0.984 . S
H1028 N1016 0.984 . S
H1029 N1016 0.985 . S
C1030 C1031 1.363 1_565 S
C1030 C1036 1.379 . S
C1030 N1038 1.356 . S
C1031 C1030 1.363 1_545 S
C1031 C1037 1.363 . S
C1032 C1033 1.363 1_545 S
C1032 C1037 1.379 . S
C1032 N1039 1.356 . S
C1033 C1032 1.363 1_565 S
C1033 C1036 1.363 . S
N1034 C1036 1.356 . S
N1034 H1046 0.984 . S
N1034 H1047 0.985 . S
N1035 C1037 1.356 . S
N1035 H1040 0.984 . S
N1035 H1041 0.985 . S
C1036 C1030 1.379 . S
C1036 C1033 1.363 . S
C1036 N1034 1.356 . S
C1037 C1031 1.363 . S
C1037 C1032 1.379 . S
C1037 N1035 1.356 . S
N1038 C1030 1.356 . S
N1038 H1044 0.984 . S
N1038 H1045 0.984 . S
N1039 C1032 1.356 . S
N1039 H1042 0.984 . S
N1039 H1043 0.985 . S
H1040 N1035 0.984 . S
H1041 N1035 0.985 . S
H1042 N1039 0.984 . S
H1043 N1039 0.985 . S
H1044 N1038 0.984 . S
H1045 N1038 0.984 . S
H1046 N1034 0.984 . S
H1047 N1034 0.985 . S
C1048 C1049 1.363 . S
C1048 C1054 1.379 . S
C1048 N1056 1.356 . S
C1049 C1048 1.363 . S
C1049 C1055 1.363 1_655 S
C1050 C1051 1.363 . S
C1050 C1055 1.379 . S
C1050 N1057 1.356 . S
C1051 C1050 1.363 . S
C1051 C1054 1.363 1_455 S
N1052 C1054 1.356 . S
N1052 H1064 0.984 . S
N1052 H1065 0.985 . S
N1053 C1055 1.356 . S
N1053 H1058 0.984 . S
N1053 H1059 0.985 . S
C1054 C1048 1.379 . S
C1054 C1051 1.363 1_655 S
C1054 N1052 1.356 . S
C1055 C1049 1.363 1_455 S
C1055 C1050 1.379 . S
C1055 N1053 1.356 . S
N1056 C1048 1.356 . S
N1056 H1062 0.984 . S
N1056 H1063 0.984 . S
N1057 C1050 1.356 . S
N1057 H1060 0.984 . S
N1057 H1061 0.985 . S
H1058 N1053 0.984 . S
H1059 N1053 0.985 . S
H1060 N1057 0.984 . S
H1061 N1057 0.985 . S
H1062 N1056 0.984 . S
H1063 N1056 0.984 . S
H1064 N1052 0.984 . S
H1065 N1052 0.985 . S
C1066 C1067 1.363 1_565 S
C1066 C1072 1.379 . S
C1066 N1074 1.356 . S
C1067 C1066 1.363 1_545 S
C1067 C1073 1.363 . S
C1068 C1069 1.363 1_545 S
C1068 C1073 1.379 . S
C1068 N1075 1.356 . S
C1069 C1068 1.363 1_565 S
C1069 C1072 1.363 . S
N1070 C1072 1.356 . S
N1070 H1082 0.984 . S
N1070 H1083 0.985 . S
N1071 C1073 1.356 . S
N1071 H1076 0.984 . S
N1071 H1077 0.985 . S
C1072 C1066 1.379 . S
C1072 C1069 1.363 . S
C1072 N1070 1.356 . S
C1073 C1067 1.363 . S
C1073 C1068 1.379 . S
C1073 N1071 1.356 . S
N1074 C1066 1.356 . S
N1074 H1080 0.984 . S
N1074 H1081 0.984 . S
N1075 C1068 1.356 . S
N1075 H1078 0.984 . S
N1075 H1079 0.985 . S
H1076 N1071 0.984 . S
H1077 N1071 0.985 . S
H1078 N1075 0.984 . S
H1079 N1075 0.985 . S
H1080 N1074 0.984 . S
H1081 N1074 0.984 . S
H1082 N1070 0.984 . S
H1083 N1070 0.985 . S
C1084 C1085 1.363 1_655 S
C1084 C1090 1.379 . S
C1084 N1092 1.356 . S
C1085 C1084 1.363 1_455 S
C1085 C1091 1.363 . S
C1086 C1087 1.363 1_455 S
C1086 C1091 1.379 . S
C1086 N1093 1.356 . S
C1087 C1086 1.363 1_655 S
C1087 C1090 1.363 . S
N1088 C1090 1.356 . S
N1088 H1100 0.984 . S
N1088 H1101 0.985 . S
N1089 C1091 1.356 . S
N1089 H1094 0.984 . S
N1089 H1095 0.985 . S
C1090 C1084 1.379 . S
C1090 C1087 1.363 . S
C1090 N1088 1.356 . S
C1091 C1085 1.363 . S
C1091 C1086 1.379 . S
C1091 N1089 1.356 . S
N1092 C1084 1.356 . S
N1092 H1098 0.984 . S
N1092 H1099 0.984 . S
N1093 C1086 1.356 . S
N1093 H1096 0.984 . S
N1093 H1097 0.985 . S
H1094 N1089 0.984 . S
H1095 N1089 0.985 . S
H1096 N1093 0.984 . S
H1097 N1093 0.985 . S
H1098 N1092 0.984 . S
H1099 N1092 0.984 . S
H1100 N1088 0.984 . S
H1101 N1088 0.985 . S
C1102 C1103 1.363 . S
C1102 C1108 1.379 . S
C1102 N1110 1.356 . S
C1103 C1102 1.363 . S
C1103 C1109 1.363 1_565 S
C1104 C1105 1.363 . S
C1104 C1109 1.379 . S
C1104 N1111 1.356 . S
C1105 C1104 1.363 . S
C1105 C1108 1.363 1_545 S
N1106 C1108 1.356 . S
N1106 H1118 0.984 . S
N1106 H1119 0.985 . S
N1107 C1109 1.356 . S
N1107 H1112 0.984 . S
N1107 H1113 0.985 . S
C1108 C1102 1.379 . S
C1108 C1105 1.363 1_565 S
C1108 N1106 1.356 . S
C1109 C1103 1.363 1_545 S
C1109 C1104 1.379 . S
C1109 N1107 1.356 . S
N1110 C1102 1.356 . S
N1110 H1116 0.984 . S
N1110 H1117 0.984 . S
N1111 C1104 1.356 . S
N1111 H1114 0.984 . S
N1111 H1115 0.985 . S
H1112 N1107 0.984 . S
H1113 N1107 0.985 . S
H1114 N1111 0.984 . S
H1115 N1111 0.985 . S
H1116 N1110 0.984 . S
H1117 N1110 0.984 . S
H1118 N1106 0.984 . S
H1119 N1106 0.985 . S
C1120 C1121 1.363 . S
C1120 C1126 1.379 . S
C1120 N1128 1.356 . S
C1121 C1120 1.363 . S
C1121 C1127 1.363 . S
C1122 C1123 1.363 . S
C1122 C1127 1.379 . S
C1122 N1129 1.356 . S
C1123 C1122 1.363 . S
C1123 C1126 1.363 . S
N1124 C1126 1.356 . S
N1124 H1136 0.984 . S
N1124 H1137 0.985 . S
N1125 C1127 1.356 . S
N1125 H1130 0.984 . S
N1125 H1131 0.985 . S
C1126 C1120 1.379 . S
C1126 C1123 1.363 . S
C1126 N1124 1.356 . S
C1127 C1121 1.363 . S
C1127 C1122 1.379 . S
C1127 N1125 1.356 . S
N1128 C1120 1.356 . S
N1128 H1134 0.984 . S
N1128 H1135 0.984 . S
N1129 C1122 1.356 . S
N1129 H1132 0.984 . S
N1129 H1133 0.985 . S
H1130 N1125 0.984 . S
H1131 N1125 0.985 . S
H1132 N1129 0.984 . S
H1133 N1129 0.985 . S
H1134 N1128 0.984 . S
H1135 N1128 0.984 . S
H1136 N1124 0.984 . S
H1137 N1124 0.985 . S
C1138 C1139 1.363 . S
C1138 C1144 1.379 . S
C1138 N1146 1.356 . S
C1139 C1138 1.363 . S
C1139 C1145 1.363 . S
C1140 C1141 1.363 . S
C1140 C1145 1.379 . S
C1140 N1147 1.356 . S
C1141 C1140 1.363 . S
C1141 C1144 1.363 . S
N1142 C1144 1.356 . S
N1142 H1154 0.984 . S
N1142 H1155 0.985 . S
N1143 C1145 1.356 . S
N1143 H1148 0.984 . S
N1143 H1149 0.985 . S
C1144 C1138 1.379 . S
C1144 C1141 1.363 . S
C1144 N1142 1.356 . S
C1145 C1139 1.363 . S
C1145 C1140 1.379 . S
C1145 N1143 1.356 . S
N1146 C1138 1.356 . S
N1146 H1152 0.984 . S
N1146 H1153 0.984 . S
N1147 C1140 1.356 . S
N1147 H1150 0.984 . S
N1147 H1151 0.985 . S
H1148 N1143 0.984 . S
H1149 N1143 0.985 . S
H1150 N1147 0.984 . S
H1151 N1147 0.985 . S
H1152 N1146 0.984 . S
H1153 N1146 0.984 . S
H1154 N1142 0.984 . S
H1155 N1142 0.985 . S
C1156 C1157 1.363 . S
C1156 C1162 1.379 . S
C1156 N1164 1.356 . S
C1157 C1156 1.363 . S
C1157 C1163 1.363 . S
C1158 C1159 1.363 . S
C1158 C1163 1.379 . S
C1158 N1165 1.356 . S
C1159 C1158 1.363 . S
C1159 C1162 1.363 . S
N1160 C1162 1.356 . S
N1160 H1172 0.984 . S
N1160 H1173 0.985 . S
N1161 C1163 1.356 . S
N1161 H1166 0.984 . S
N1161 H1167 0.985 . S
C1162 C1156 1.379 . S
C1162 C1159 1.363 . S
C1162 N1160 1.356 . S
C1163 C1157 1.363 . S
C1163 C1158 1.379 . S
C1163 N1161 1.356 . S
N1164 C1156 1.356 . S
N1164 H1170 0.984 . S
N1164 H1171 0.984 . S
N1165 C1158 1.356 . S
N1165 H1168 0.984 . S
N1165 H1169 0.985 . S
H1166 N1161 0.984 . S
H1167 N1161 0.985 . S
H1168 N1165 0.984 . S
H1169 N1165 0.985 . S
H1170 N1164 0.984 . S
H1171 N1164 0.984 . S
H1172 N1160 0.984 . S
H1173 N1160 0.985 . S
C1174 C1175 1.363 . S
C1174 C1180 1.379 . S
C1174 N1182 1.356 . S
C1175 C1174 1.363 . S
C1175 C1181 1.363 . S
C1176 C1177 1.363 . S
C1176 C1181 1.379 . S
C1176 N1183 1.356 . S
C1177 C1176 1.363 . S
C1177 C1180 1.363 . S
N1178 C1180 1.356 . S
N1178 H1190 0.984 . S
N1178 H1191 0.985 . S
N1179 C1181 1.356 . S
N1179 H1184 0.984 . S
N1179 H1185 0.985 . S
C1180 C1174 1.379 . S
C1180 C1177 1.363 . S
C1180 N1178 1.356 . S
C1181 C1175 1.363 . S
C1181 C1176 1.379 . S
C1181 N1179 1.356 . S
N1182 C1174 1.356 . S
N1182 H1188 0.984 . S
N1182 H1189 0.984 . S
N1183 C1176 1.356 . S
N1183 H1186 0.984 . S
N1183 H1187 0.985 . S
H1184 N1179 0.984 . S
H1185 N1179 0.985 . S
H1186 N1183 0.984 . S
H1187 N1183 0.985 . S
H1188 N1182 0.984 . S
H1189 N1182 0.984 . S
H1190 N1178 0.984 . S
H1191 N1178 0.985 . S
C1192 C1193 1.363 . S
C1192 C1198 1.379 . S
C1192 N1200 1.356 . S
C1193 C1192 1.363 . S
C1193 C1199 1.363 . S
C1194 C1195 1.363 . S
C1194 C1199 1.379 . S
C1194 N1201 1.356 . S
C1195 C1194 1.363 . S
C1195 C1198 1.363 . S
N1196 C1198 1.356 . S
N1196 H1208 0.984 . S
N1196 H1209 0.985 . S
N1197 C1199 1.356 . S
N1197 H1202 0.984 . S
N1197 H1203 0.985 . S
C1198 C1192 1.379 . S
C1198 C1195 1.363 . S
C1198 N1196 1.356 . S
C1199 C1193 1.363 . S
C1199 C1194 1.379 . S
C1199 N1197 1.356 . S
N1200 C1192 1.356 . S
N1200 H1206 0.984 . S
N1200 H1207 0.984 . S
N1201 C1194 1.356 . S
N1201 H1204 0.984 . S
N1201 H1205 0.985 . S
H1202 N1197 0.984 . S
H1203 N1197 0.985 . S
H1204 N1201 0.984 . S
H1205 N1201 0.985 . S
H1206 N1200 0.984 . S
H1207 N1200 0.984 . S
H1208 N1196 0.984 . S
H1209 N1196 0.985 . S
C1210 C1211 1.363 . S
C1210 C1216 1.379 . S
C1210 N1218 1.356 . S
C1211 C1210 1.363 . S
C1211 C1217 1.363 . S
C1212 C1213 1.363 . S
C1212 C1217 1.379 . S
C1212 N1219 1.356 . S
C1213 C1212 1.363 . S
C1213 C1216 1.363 . S
N1214 C1216 1.356 . S
N1214 H1226 0.984 . S
N1214 H1227 0.985 . S
N1215 C1217 1.356 . S
N1215 H1220 0.984 . S
N1215 H1221 0.985 . S
C1216 C1210 1.379 . S
C1216 C1213 1.363 . S
C1216 N1214 1.356 . S
C1217 C1211 1.363 . S
C1217 C1212 1.379 . S
C1217 N1215 1.356 . S
N1218 C1210 1.356 . S
N1218 H1224 0.984 . S
N1218 H1225 0.984 . S
N1219 C1212 1.356 . S
N1219 H1222 0.984 . S
N1219 H1223 0.985 . S
H1220 N1215 0.984 . S
H1221 N1215 0.985 . S
H1222 N1219 0.984 . S
H1223 N1219 0.985 . S
H1224 N1218 0.984 . S
H1225 N1218 0.984 . S
H1226 N1214 0.984 . S
H1227 N1214 0.985 . S
C1228 C1229 1.363 . S
C1228 C1234 1.379 . S
C1228 N1236 1.356 . S
C1229 C1228 1.363 . S
C1229 C1235 1.363 . S
C1230 C1231 1.363 . S
C1230 C1235 1.379 . S
C1230 N1237 1.356 . S
C1231 C1230 1.363 . S
C1231 C1234 1.363 . S
N1232 C1234 1.356 . S
N1232 H1244 0.984 . S
N1232 H1245 0.985 . S
N1233 C1235 1.356 . S
N1233 H1238 0.984 . S
N1233 H1239 0.985 . S
C1234 C1228 1.379 . S
C1234 C1231 1.363 . S
C1234 N1232 1.356 . S
C1235 C1229 1.363 . S
C1235 C1230 1.379 . S
C1235 N1233 1.356 . S
N1236 C1228 1.356 . S
N1236 H1242 0.984 . S
N1236 H1243 0.984 . S
N1237 C1230 1.356 . S
N1237 H1240 0.984 . S
N1237 H1241 0.985 . S
H1238 N1233 0.984 . S
H1239 N1233 0.985 . S
H1240 N1237 0.984 . S
H1241 N1237 0.985 . S
H1242 N1236 0.984 . S
H1243 N1236 0.984 . S
H1244 N1232 0.984 . S
H1245 N1232 0.985 . S
C1246 C1247 1.363 . S
C1246 C1252 1.379 . S
C1246 N1254 1.356 . S
C1247 C1246 1.363 . S
C1247 C1253 1.363 . S
C1248 C1249 1.363 . S
C1248 C1253 1.379 . S
C1248 N1255 1.356 . S
C1249 C1248 1.363 . S
C1249 C1252 1.363 . S
N1250 C1252 1.356 . S
N1250 H1262 0.984 . S
N1250 H1263 0.985 . S
N1251 C1253 1.356 . S
N1251 H1256 0.984 . S
N1251 H1257 0.985 . S
C1252 C1246 1.379 . S
C1252 C1249 1.363 . S
C1252 N1250 1.356 . S
C1253 C1247 1.363 . S
C1253 C1248 1.379 . S
C1253 N1251 1.356 . S
N1254 C1246 1.356 . S
N1254 H1260 0.984 . S
N1254 H1261 0.984 . S
N1255 C1248 1.356 . S
N1255 H1258 0.984 . S
N1255 H1259 0.985 . S
H1256 N1251 0.984 . S
H1257 N1251 0.985 . S
H1258 N1255 0.984 . S
H1259 N1255 0.985 . S
H1260 N1254 0.984 . S
H1261 N1254 0.984 . S
H1262 N1250 0.984 . S
H1263 N1250 0.985 . S
C545 C9 1.422 . S
C547 C519 1.422 . S
C563 C43 1.422 . S
C565 C417 1.422 . S
C581 C451 1.422 . S
C583 C77 1.422 . S
C599 C111 1.422 . S
C601 C485 1.422 . S
C617 C145 1.422 . S
C619 C315 1.422 . S
C635 C349 1.422 . S
C637 C179 1.422 . S
C653 C383 1.422 . S
C655 C213 1.422 . S
C671 C281 1.422 . S
C673 C247 1.422 . S
C689 C107 1.539 . S
C691 C33 1.533 . S
C707 C5 1.539 . S
C709 C67 1.533 . S
C725 C101 1.532 . S
C727 C39 1.539 . S
C743 C135 1.533 . S
C745 C73 1.539 . S
C761 C175 1.539 . S
C763 C169 1.532 . S
C779 C209 1.539 . S
C781 C203 1.532 . S
C797 C243 1.539 . S
C799 C237 1.532 . S
C815 C141 1.539 . S
C817 C271 1.533 . S
C833 C379 1.539 . S
C835 C305 1.532 . S
C851 C339 1.533 . S
C853 C277 1.539 . S
C869 C311 1.539 . S
C871 C373 1.533 . S
C887 C345 1.539 . S
C889 C407 1.533 . S
C905 C447 1.539 . S
C907 C441 1.532 . S
C923 C481 1.539 . S
C925 C475 1.533 . S
C941 C515 1.539 . S
C943 C509 1.532 . S
C959 C413 1.539 . S
C961 C543 1.532 . S
C977 C206 1.428 . S
C979 C2 1.428 . S
C995 C240 1.428 . S
C997 C36 1.428 . S
C1013 C70 1.428 . S
C1015 C138 1.428 . S
C1031 C172 1.428 . S
C1033 C104 1.428 . S
C1049 C88 1.538 . S
C1051 C156 1.538 . S
C1067 C190 1.538 . S
C1069 C122 1.538 . S
C1085 C20 1.538 . S
C1087 C224 1.538 . S
C1103 C258 1.538 . S
C1105 C54 1.538 . S
C1121 C478 1.428 . S
C1123 C274 1.428 . S
C1139 C512 1.428 . S
C1141 C308 1.428 . S
C1157 C410 1.428 . S
C1159 C342 1.428 . S
C1175 C376 1.428 . S
C1177 C444 1.428 . S
C1193 C428 1.538 . S
C1195 C360 1.538 . S
C1211 C394 1.538 . S
C1213 C462 1.538 . S
C1229 C292 1.538 . S
C1231 C496 1.538 . S
C1247 C530 1.538 . S
C1249 C326 1.538 . S
