# Generated by pormake.
# Topology vmg, (6)-cn, num edge types: 1
# Building blocks:
#     Node 0, Type 0, BuildingBlock: OJICUG_clean_sbu_0, # of connection points: 6
#     Node 1, Type 0, BuildingBlock: OJICUG_clean_sbu_0, # of connection points: 6
#     Node 2, Type 0, BuildingBlock: OJICUG_clean_sbu_0, # of connection points: 6
#     Node 3, Type 0, BuildingBlock: OJICUG_clean_sbu_0, # of connection points: 6
#     Node 4, Type 0, BuildingBlock: OJICUG_clean_sbu_0, # of connection points: 6
#     Node 5, Type 0, BuildingBlock: OJICUG_clean_sbu_0, # of connection points: 6
#     Node 6, Type 0, BuildingBlock: OJICUG_clean_sbu_0, # of connection points: 6
#     Node 7, Type 0, BuildingBlock: OJICUG_clean_sbu_0, # of connection points: 6
#     Edge 8, Type (0, 0), BuildingBlock: CIFDUS_clean_linker_0, # of connection points: 2
#     Edge 9, Type (0, 0), BuildingBlock: CIFDUS_clean_linker_0, # of connection points: 2
#     Edge 10, Type (0, 0), BuildingBlock: CIFDUS_clean_linker_0, # of connection points: 2
#     Edge 11, Type (0, 0), BuildingBlock: CIFDUS_clean_linker_0, # of connection points: 2
#     Edge 12, Type (0, 0), BuildingBlock: CIFDUS_clean_linker_0, # of connection points: 2
#     Edge 13, Type (0, 0), BuildingBlock: CIFDUS_clean_linker_0, # of connection points: 2
#     Edge 14, Type (0, 0), BuildingBlock: CIFDUS_clean_linker_0, # of connection points: 2
#     Edge 15, Type (0, 0), BuildingBlock: CIFDUS_clean_linker_0, # of connection points: 2
#     Edge 16, Type (0, 0), BuildingBlock: CIFDUS_clean_linker_0, # of connection points: 2
#     Edge 17, Type (0, 0), BuildingBlock: CIFDUS_clean_linker_0, # of connection points: 2
#     Edge 18, Type (0, 0), BuildingBlock: CIFDUS_clean_linker_0, # of connection points: 2
#     Edge 19, Type (0, 0), BuildingBlock: CIFDUS_clean_linker_0, # of connection points: 2
#     Edge 20, Type (0, 0), BuildingBlock: CIFDUS_clean_linker_0, # of connection points: 2
#     Edge 21, Type (0, 0), BuildingBlock: CIFDUS_clean_linker_0, # of connection points: 2
#     Edge 22, Type (0, 0), BuildingBlock: CIFDUS_clean_linker_0, # of connection points: 2
#     Edge 23, Type (0, 0), BuildingBlock: CIFDUS_clean_linker_0, # of connection points: 2
#     Edge 24, Type (0, 0), BuildingBlock: CIFDUS_clean_linker_0, # of connection points: 2
#     Edge 25, Type (0, 0), BuildingBlock: CIFDUS_clean_linker_0, # of connection points: 2
#     Edge 26, Type (0, 0), BuildingBlock: CIFDUS_clean_linker_0, # of connection points: 2
#     Edge 27, Type (0, 0), BuildingBlock: CIFDUS_clean_linker_0, # of connection points: 2
#     Edge 28, Type (0, 0), BuildingBlock: CIFDUS_clean_linker_0, # of connection points: 2
#     Edge 29, Type (0, 0), BuildingBlock: CIFDUS_clean_linker_0, # of connection points: 2
#     Edge 30, Type (0, 0), BuildingBlock: CIFDUS_clean_linker_0, # of connection points: 2
#     Edge 31, Type (0, 0), BuildingBlock: CIFDUS_clean_linker_0, # of connection points: 2
# Relax obj value: 0.217
# Max RMSD: 0.229
# Mean RMSD: 0.229
data_MOF--net-vmg--node1-OJICUG_clean_sbu_0--edge1-CIFDUS_clean_linker_0
_symmetry_space_group_name_H-M    P1
_symmetry_Int_Tables_number       1
_symmetry_cell_setting            triclinic
loop_
_symmetry_equiv_pos_as_xyz
'x, y, z'
_cell_length_a     26.738387
_cell_length_b     39.160999
_cell_length_c     24.317681
_cell_angle_alpha  89.879755
_cell_angle_beta   107.25686
_cell_angle_gamma 89.943784
loop_
_atom_site_label
_atom_site_type_symbol
_atom_site_fract_x
_atom_site_fract_y
_atom_site_fract_z
_atom_type_partial_charge
Sc0 Sc 0.13651 0.3831 0.07788 0.0
Sc1 Sc 0.23219 0.43853 0.15165 0.0
Sc2 Sc 0.22565 0.35596 0.20516 0.0
O3 O 0.19969 0.39195 0.1447 0.0
C4 C 0.10391 0.34278 0.17411 0.0
C5 C 0.10992 0.45424 0.10682 0.0
C6 C 0.22812 0.42523 0.27758 0.0
C7 C 0.20508 0.43269 0.02253 0.0
C8 C 0.20023 0.31716 0.08116 0.0
C9 C 0.33226 0.38969 0.20222 0.0
O10 O 0.09873 0.34832 0.12138 0.0
O11 O 0.15696 0.46379 0.11372 0.0
O12 O 0.23558 0.39291 0.2762 0.0
O13 O 0.16261 0.41745 0.02122 0.0
O14 O 0.21735 0.31702 0.1366 0.0
O15 O 0.31092 0.41884 0.18835 0.0
O16 O 0.17472 0.34182 0.05183 0.0
O17 O 0.2427 0.43547 0.06847 0.0
O18 O 0.30592 0.36299 0.20507 0.0
O19 O 0.0975 0.42314 0.10678 0.0
O20 O 0.14752 0.34711 0.21256 0.0
O21 O 0.22223 0.44449 0.23413 0.0
Sc22 Sc 0.74579 0.36899 0.2731 0.0
Sc23 Sc 0.75091 0.45114 0.33105 0.0
Sc24 Sc 0.83532 0.38891 0.40376 0.0
O25 O 0.77575 0.40268 0.33606 0.0
C26 C 0.76232 0.3274 0.39365 0.0
C27 C 0.6443 0.40892 0.27655 0.0
C28 C 0.77392 0.44313 0.45972 0.0
C29 C 0.75397 0.43848 0.205 0.0
C30 C 0.8648 0.3487 0.30601 0.0
C31 C 0.87501 0.45778 0.37984 0.0
O32 O 0.74897 0.32849 0.33822 0.0
O33 O 0.66991 0.43656 0.29163 0.0
O34 O 0.81374 0.42476 0.46138 0.0
O35 O 0.74077 0.40698 0.20441 0.0
O36 O 0.86817 0.35169 0.35891 0.0
O37 O 0.82959 0.47077 0.37166 0.0
O38 O 0.82313 0.35669 0.26678 0.0
O39 O 0.76365 0.45684 0.24977 0.0
O40 O 0.88258 0.42592 0.3798 0.0
O41 O 0.66656 0.38049 0.27327 0.0
O42 O 0.7882 0.35104 0.42519 0.0
O43 O 0.73796 0.44881 0.41323 0.0
Sc44 Sc 0.76298 0.64277 0.77658 0.0
Sc45 Sc 0.75821 0.56106 0.83375 0.0
Sc46 Sc 0.84958 0.61937 0.90752 0.0
O47 O 0.78881 0.60809 0.83934 0.0
C48 C 0.88419 0.65686 0.81006 0.0
C49 C 0.76257 0.57278 0.70762 0.0
C50 C 0.88146 0.54834 0.88269 0.0
C51 C 0.65699 0.60857 0.78003 0.0
C52 C 0.78156 0.68399 0.89697 0.0
C53 C 0.78255 0.56822 0.96275 0.0
O54 O 0.84162 0.65104 0.77079 0.0
O55 O 0.76942 0.55413 0.75192 0.0
O56 O 0.89275 0.57971 0.88377 0.0
O57 O 0.68279 0.63535 0.77607 0.0
O58 O 0.80637 0.65993 0.92873 0.0
O59 O 0.74598 0.56439 0.9162 0.0
O60 O 0.76902 0.68321 0.84164 0.0
O61 O 0.67888 0.57967 0.79532 0.0
O62 O 0.82398 0.58497 0.96483 0.0
O63 O 0.75415 0.60495 0.70772 0.0
O64 O 0.88711 0.65419 0.86296 0.0
O65 O 0.83462 0.53766 0.87362 0.0
Sc66 Sc 0.15528 0.61088 0.58093 0.0
Sc67 Sc 0.23823 0.54772 0.65342 0.0
Sc68 Sc 0.24456 0.62969 0.71236 0.0
O69 O 0.21422 0.59638 0.64877 0.0
C70 C 0.23005 0.67191 0.59335 0.0
C71 C 0.21576 0.55574 0.52468 0.0
C72 C 0.34537 0.58927 0.70824 0.0
C73 C 0.11401 0.54205 0.60359 0.0
C74 C 0.12556 0.65021 0.67974 0.0
C75 C 0.2355 0.56037 0.77951 0.0
O76 O 0.20354 0.64878 0.56097 0.0
O77 O 0.2514 0.54974 0.57129 0.0
O78 O 0.32348 0.61779 0.71185 0.0
O79 O 0.10686 0.57397 0.60318 0.0
O80 O 0.16727 0.64209 0.71882 0.0
O81 O 0.22524 0.5421 0.7346 0.0
O82 O 0.12236 0.64777 0.62673 0.0
O83 O 0.15927 0.52869 0.61254 0.0
O84 O 0.24932 0.59169 0.78035 0.0
O85 O 0.17674 0.57499 0.52285 0.0
O86 O 0.24245 0.67049 0.64862 0.0
O87 O 0.31947 0.56174 0.69302 0.0
Sc88 Sc 0.64312 0.88508 0.09701 0.0
Sc89 Sc 0.72442 0.95068 0.15976 0.0
Sc90 Sc 0.74381 0.8704 0.22269 0.0
O91 O 0.70465 0.90158 0.15977 0.0
C92 C 0.62859 0.84605 0.20616 0.0
C93 C 0.6001 0.95367 0.11162 0.0
C94 C 0.73047 0.94023 0.287 0.0
C95 C 0.69998 0.93851 0.03311 0.0
C96 C 0.72287 0.82603 0.10579 0.0
C97 C 0.8355 0.91487 0.20999 0.0
O98 O 0.61626 0.85001 0.15174 0.0
O99 O 0.64457 0.9671 0.11673 0.0
O100 O 0.74979 0.91012 0.28843 0.0
O101 O 0.66065 0.91994 0.03364 0.0
O102 O 0.74105 0.82892 0.16074 0.0
O103 O 0.80699 0.94152 0.20034 0.0
O104 O 0.68986 0.84684 0.0747 0.0
O105 O 0.73688 0.94458 0.07852 0.0
O106 O 0.81687 0.88518 0.21122 0.0
O107 O 0.59547 0.92227 0.12056 0.0
O108 O 0.67313 0.85451 0.23922 0.0
O109 O 0.71185 0.95692 0.24063 0.0
Sc110 Sc 0.24798 0.86524 0.26889 0.0
Sc111 Sc 0.24584 0.94689 0.32625 0.0
Sc112 Sc 0.33899 0.88813 0.39781 0.0
O113 O 0.27667 0.8996 0.33127 0.0
C114 C 0.27192 0.82199 0.38767 0.0
C115 C 0.14464 0.90076 0.2727 0.0
C116 C 0.26842 0.93641 0.45463 0.0
C117 C 0.25228 0.93552 0.20162 0.0
C118 C 0.36807 0.84957 0.29543 0.0
C119 C 0.36756 0.96102 0.38192 0.0
O120 O 0.25409 0.82442 0.33267 0.0
O121 O 0.16656 0.92974 0.285 0.0
O122 O 0.3101 0.91967 0.45662 0.0
O123 O 0.2404 0.90379 0.201 0.0
O124 O 0.3779 0.85698 0.34854 0.0
O125 O 0.32019 0.97087 0.36962 0.0
O126 O 0.32313 0.85383 0.25982 0.0
O127 O 0.26007 0.9542 0.24592 0.0
O128 O 0.37946 0.93023 0.37665 0.0
O129 O 0.17012 0.87363 0.27153 0.0
O130 O 0.30018 0.84488 0.41892 0.0
O131 O 0.23248 0.94173 0.40783 0.0
Sc132 Sc 0.25218 0.13494 0.77327 0.0
Sc133 Sc 0.25124 0.05287 0.82961 0.0
Sc134 Sc 0.35191 0.10769 0.89292 0.0
O135 O 0.28412 0.09916 0.83208 0.0
C136 C 0.37102 0.15009 0.78902 0.0
C137 C 0.24745 0.06489 0.70118 0.0
C138 C 0.37286 0.03543 0.86641 0.0
C139 C 0.15054 0.10078 0.78645 0.0
C140 C 0.28854 0.174 0.89694 0.0
C141 C 0.28729 0.06087 0.95803 0.0
O142 O 0.32444 0.14691 0.75687 0.0
O143 O 0.25565 0.04585 0.74528 0.0
O144 O 0.38505 0.06601 0.86015 0.0
O145 O 0.17609 0.12728 0.78199 0.0
O146 O 0.31949 0.15053 0.92304 0.0
O147 O 0.24704 0.0588 0.91461 0.0
O148 O 0.2641 0.17338 0.84265 0.0
O149 O 0.17173 0.0715 0.79745 0.0
O150 O 0.32972 0.07485 0.95533 0.0
O151 O 0.23943 0.09726 0.70231 0.0
O152 O 0.3851 0.14043 0.84123 0.0
O153 O 0.32628 0.02713 0.86413 0.0
Sc154 Sc 0.6498 0.11807 0.59429 0.0
Sc155 Sc 0.73132 0.0535 0.66518 0.0
Sc156 Sc 0.74579 0.13525 0.72375 0.0
O157 O 0.70954 0.10268 0.66099 0.0
C158 C 0.72777 0.17898 0.60615 0.0
C159 C 0.71404 0.06581 0.5376 0.0
C160 C 0.84081 0.09036 0.72028 0.0
C161 C 0.60804 0.04773 0.60796 0.0
C162 C 0.62846 0.15881 0.69871 0.0
C163 C 0.72837 0.06659 0.78964 0.0
O164 O 0.69547 0.15791 0.57537 0.0
O165 O 0.74711 0.05731 0.58491 0.0
O166 O 0.82156 0.12003 0.71976 0.0
O167 O 0.60026 0.07945 0.61025 0.0
O168 O 0.67318 0.15258 0.73372 0.0
O169 O 0.71478 0.04857 0.74439 0.0
O170 O 0.61679 0.15144 0.64544 0.0
O171 O 0.65382 0.03508 0.62093 0.0
O172 O 0.74725 0.09682 0.79091 0.0
O173 O 0.67468 0.08503 0.53497 0.0
O174 O 0.74639 0.17595 0.66103 0.0
O175 O 0.81259 0.06375 0.70862 0.0
H176 H 0.57461 0.35565 0.26031 0.0
H177 H 0.58264 0.46584 0.26001 0.0
H178 H 0.48783 0.46936 0.23671 0.0
H179 H 0.4025 0.4417 0.21682 0.0
H180 H 0.39301 0.33168 0.21861 0.0
H181 H 0.48823 0.32774 0.2409 0.0
C182 C 0.55565 0.38044 0.25502 0.0
C183 C 0.58614 0.4104 0.26199 0.0
C184 C 0.50068 0.38241 0.24192 0.0
C185 C 0.56058 0.44228 0.25521 0.0
C186 C 0.50616 0.44438 0.24175 0.0
C187 C 0.42105 0.41678 0.2219 0.0
C188 C 0.39028 0.38705 0.21586 0.0
C189 C 0.47583 0.41467 0.23508 0.0
C190 C 0.41547 0.35505 0.22307 0.0
C191 C 0.47003 0.35275 0.23577 0.0
H192 H 0.58713 0.55635 0.7673 0.0
H193 H 0.59596 0.66634 0.76186 0.0
H194 H 0.50088 0.67021 0.74009 0.0
H195 H 0.41485 0.64234 0.72233 0.0
H196 H 0.40693 0.53222 0.72601 0.0
H197 H 0.50178 0.52864 0.74873 0.0
C198 C 0.56843 0.58123 0.76149 0.0
C199 C 0.599 0.61098 0.76638 0.0
C200 C 0.51366 0.58331 0.7486 0.0
C201 C 0.57366 0.64294 0.75827 0.0
C202 C 0.51917 0.64521 0.74588 0.0
C203 C 0.43384 0.61755 0.72826 0.0
C204 C 0.40344 0.58763 0.72245 0.0
C205 C 0.48872 0.61556 0.74094 0.0
C206 C 0.42898 0.55574 0.72995 0.0
C207 C 0.4834 0.55361 0.74307 0.0
H208 H 0.07427 0.95264 0.26234 0.0
H209 H 0.08573 0.84278 0.25326 0.0
H210 H 0.99142 0.83779 0.23267 0.0
H211 H 0.9061 0.86411 0.21818 0.0
H212 H 0.89316 0.97382 0.22641 0.0
H213 H 0.98785 0.97923 0.24628 0.0
C214 C 0.05617 0.92761 0.25586 0.0
C215 C 0.08719 0.89819 0.25948 0.0
C216 C 0.00171 0.92481 0.2439 0.0
C217 C 0.06296 0.86594 0.25072 0.0
C218 C 0.00895 0.86298 0.23897 0.0
C219 C 0.92385 0.88926 0.22438 0.0
C220 C 0.89258 0.91847 0.22104 0.0
C221 C 0.97805 0.89221 0.23565 0.0
C222 C 0.91632 0.95086 0.22873 0.0
C223 C 0.97046 0.954 0.24018 0.0
H224 H 0.0787 0.04998 0.77394 0.0
H225 H 0.09454 0.15983 0.77813 0.0
H226 H 0.0004 0.16615 0.75931 0.0
H227 H 0.91357 0.14078 0.73933 0.0
H228 H 0.89713 0.03097 0.73367 0.0
H229 H 0.99166 0.02452 0.75552 0.0
C230 C 0.06164 0.0753 0.77105 0.0
C231 C 0.09367 0.10432 0.77722 0.0
C232 C 0.00737 0.07885 0.75978 0.0
C233 C 0.07082 0.13698 0.77319 0.0
C234 C 0.01696 0.14068 0.76248 0.0
C235 C 0.93056 0.1154 0.74304 0.0
C236 C 0.8982 0.08646 0.73471 0.0
C237 C 0.98486 0.11181 0.75528 0.0
C238 C 0.92104 0.05377 0.73965 0.0
C239 C 0.97514 0.05 0.7522 0.0
H240 H 0.29034 0.28172 0.09049 0.0
H241 H 0.1271 0.28789 0.9933 0.0
H242 H 0.13998 0.24592 0.9247 0.0
H243 H 0.19822 0.20833 0.8904 0.0
H244 H 0.36158 0.20205 0.98738 0.0
H245 H 0.3485 0.2434 0.05679 0.0
C246 C 0.25757 0.27323 0.05497 0.0
C247 C 0.20785 0.28751 0.04721 0.0
C248 C 0.2655 0.24964 0.01467 0.0
C249 C 0.16576 0.27697 0.00025 0.0
C250 C 0.17312 0.25322 0.96071 0.0
C251 C 0.23098 0.2165 0.9262 0.0
C252 C 0.28078 0.20246 0.93342 0.0
C253 C 0.22299 0.23977 0.96685 0.0
C254 C 0.3228 0.21268 0.98077 0.0
C255 C 0.31535 0.23615 0.02075 0.0
H256 H 0.7946 0.31544 0.50899 0.0
H257 H 0.70419 0.27062 0.34789 0.0
H258 H 0.68735 0.22049 0.40005 0.0
H259 H 0.69798 0.19003 0.49057 0.0
H260 H 0.78826 0.23491 0.65168 0.0
H261 H 0.80606 0.28469 0.59941 0.0
C262 C 0.77099 0.29485 0.48488 0.0
C263 C 0.75046 0.297 0.42426 0.0
C264 C 0.76179 0.26617 0.51504 0.0
C265 C 0.72035 0.26979 0.39432 0.0
C266 C 0.71082 0.24112 0.42417 0.0
C267 C 0.72169 0.21059 0.51466 0.0
C268 C 0.74163 0.20865 0.57536 0.0
C269 C 0.73137 0.23911 0.48445 0.0
C270 C 0.77245 0.2356 0.60521 0.0
C271 C 0.78246 0.26411 0.5753 0.0
H272 H 0.69814 0.81595 0.99019 0.0
H273 H 0.78647 0.77172 0.1531 0.0
H274 H 0.8129 0.72447 0.10221 0.0
H275 H 0.80971 0.69558 0.01228 0.0
H276 H 0.72126 0.73967 0.84931 0.0
H277 H 0.69617 0.78752 0.90009 0.0
C278 C 0.72316 0.79602 0.01489 0.0
C279 C 0.74003 0.79739 0.07568 0.0
C280 C 0.73817 0.76901 0.98542 0.0
C281 C 0.77277 0.77136 0.10648 0.0
C282 C 0.78788 0.74433 0.07737 0.0
C283 C 0.78493 0.71559 0.98752 0.0
C284 C 0.76726 0.71385 0.92679 0.0
C285 C 0.7706 0.74288 0.01693 0.0
C286 C 0.73546 0.74026 0.8959 0.0
C287 C 0.72104 0.76759 0.92496 0.0
H288 H 0.20366 0.684 0.47829 0.0
H289 H 0.28827 0.72803 0.64229 0.0
H290 H 0.3087 0.77815 0.59261 0.0
H291 H 0.30137 0.80944 0.50312 0.0
H292 H 0.21571 0.76528 0.33955 0.0
H293 H 0.19669 0.71494 0.38928 0.0
C294 C 0.22676 0.70441 0.50355 0.0
C295 C 0.24439 0.70212 0.56423 0.0
C296 C 0.23797 0.73311 0.47484 0.0
C297 C 0.27416 0.72902 0.59571 0.0
C298 C 0.28579 0.7577 0.5673 0.0
C299 C 0.27854 0.78885 0.47807 0.0
C300 C 0.26 0.79127 0.41741 0.0
C301 C 0.26768 0.76003 0.50691 0.0
C302 C 0.23046 0.76423 0.38609 0.0
C303 C 0.2196 0.73541 0.41453 0.0
H304 H 0.89005 0.51196 0.97745 0.0
H305 H 0.97171 0.53962 0.8555 0.0
H306 H 0.05375 0.51715 0.92024 0.0
H307 H 0.10191 0.49125 0.01259 0.0
H308 H 0.0202 0.4638 0.13464 0.0
H309 H 0.93832 0.48652 0.07009 0.0
C310 C 0.92555 0.51191 0.96443 0.0
C311 C 0.92513 0.52622 0.91147 0.0
C312 C 0.97262 0.50074 0.00298 0.0
C313 C 0.97142 0.52762 0.8956 0.0
C314 C 0.01826 0.51551 0.93299 0.0
C315 C 0.06647 0.49143 0.02573 0.0
C316 C 0.0668 0.47694 0.07855 0.0
C317 C 0.01945 0.50279 0.98729 0.0
C318 C 0.02058 0.47584 0.09459 0.0
C319 C 0.9738 0.48809 0.0573 0.0
H320 H 0.1015 0.50353 0.51048 0.0
H321 H 0.02225 0.54055 0.62923 0.0
H322 H 0.93797 0.52177 0.56444 0.0
H323 H 0.88735 0.49651 0.47279 0.0
H324 H 0.96663 0.45959 0.35399 0.0
H325 H 0.05086 0.47844 0.41873 0.0
C326 C 0.06587 0.50636 0.52283 0.0
C327 C 0.06761 0.52231 0.57485 0.0
C328 C 0.01777 0.49719 0.48424 0.0
C329 C 0.02138 0.52734 0.58983 0.0
C330 C 0.97336 0.5173 0.55241 0.0
C331 C 0.92295 0.49373 0.46041 0.0
C332 C 0.92125 0.47773 0.40843 0.0
C333 C 0.97106 0.50297 0.49896 0.0
C334 C 0.96747 0.4728 0.39338 0.0
C335 C 0.01547 0.48289 0.43077 0.0
H336 H 0.59202 0.98522 0.01216 0.0
H337 H 0.50341 0.95573 0.12654 0.0
H338 H 0.42197 0.97351 0.05461 0.0
H339 H 0.37722 0.99806 0.96006 0.0
H340 H 0.46636 0.02724 0.84592 0.0
H341 H 0.5469 0.00691 0.91596 0.0
C342 C 0.55494 0.9835 0.02173 0.0
C343 C 0.55331 0.97039 0.07484 0.0
C344 C 0.50864 0.99221 0.97949 0.0
C345 C 0.50517 0.96676 0.08625 0.0
C346 C 0.45881 0.97632 0.04492 0.0
C347 C 0.41403 0.99881 0.94976 0.0
C348 C 0.41619 0.01357 0.89789 0.0
C349 C 0.46013 0.98872 0.99121 0.0
C350 C 0.46411 0.01539 0.88543 0.0
C351 C 0.51007 0.00442 0.92577 0.0
H352 H 0.45949 0.94031 0.45412 0.0
H353 H 0.36666 0.03064 0.3926 0.0
H354 H 0.431 0.06528 0.46309 0.0
H355 H 0.51328 0.06934 0.54097 0.0
H356 H 0.60452 0.97829 0.60238 0.0
H357 H 0.539 0.9439 0.53383 0.0
C358 C 0.45349 0.96768 0.45528 0.0
C359 C 0.40885 0.98307 0.41759 0.0
C360 C 0.48935 0.98697 0.49673 0.0
C361 C 0.40117 0.01838 0.42075 0.0
C362 C 0.43755 0.03804 0.46134 0.0
C363 C 0.51845 0.04188 0.54023 0.0
C364 C 0.5638 0.02634 0.5765 0.0
C365 C 0.48151 0.02248 0.49977 0.0
C366 C 0.56996 0.9908 0.5748 0.0
C367 C 0.53286 0.97121 0.53529 0.0
H368 H 0.09284 0.33607 0.28246 0.0
H369 H 0.00493 0.33302 0.10214 0.0
H370 H 0.92329 0.33147 0.1268 0.0
H371 H 0.87595 0.33753 0.19888 0.0
H372 H 0.96361 0.33976 0.37927 0.0
H373 H 0.04528 0.33466 0.35506 0.0
C374 C 0.05594 0.33438 0.24854 0.0
C375 C 0.05552 0.33516 0.19049 0.0
C376 C 0.00855 0.33369 0.26291 0.0
C377 C 0.00695 0.3328 0.14728 0.0
C378 C 0.95991 0.33202 0.16127 0.0
C379 C 0.91279 0.3363 0.23299 0.0
C380 C 0.91319 0.33945 0.29078 0.0
C381 C 0.96011 0.33349 0.21887 0.0
C382 C 0.96164 0.33756 0.33429 0.0
C383 C 0.00869 0.33478 0.32054 0.0
H384 H 0.11372 0.65858 0.78745 0.0
H385 H 0.02709 0.66115 0.60673 0.0
H386 H 0.94527 0.6663 0.63065 0.0
H387 H 0.89698 0.6644 0.70258 0.0
H388 H 0.98366 0.66259 0.88331 0.0
H389 H 0.06583 0.66324 0.85947 0.0
C390 C 0.07709 0.66085 0.75322 0.0
C391 C 0.07708 0.65914 0.69531 0.0
C392 C 0.02963 0.6637 0.7672 0.0
C393 C 0.02884 0.66227 0.65175 0.0
C394 C 0.98169 0.66509 0.66535 0.0
C395 C 0.93377 0.66474 0.73684 0.0
C396 C 0.93358 0.66314 0.79471 0.0
C397 C 0.98142 0.66497 0.72291 0.0
C398 C 0.98205 0.66372 0.83832 0.0
C399 C 0.02938 0.66394 0.82476 0.0
H400 H 0.47228 0.84232 0.35386 0.0
H401 H 0.36139 0.83315 0.18435 0.0
H402 H 0.43275 0.82617 0.14247 0.0
H403 H 0.52622 0.83067 0.15189 0.0
H404 H 0.63748 0.84055 0.32097 0.0
H405 H 0.56653 0.83845 0.36464 0.0
C406 C 0.46362 0.83817 0.30791 0.0
C407 C 0.41138 0.83898 0.27241 0.0
C408 C 0.50502 0.83449 0.28367 0.0
C409 C 0.40112 0.83316 0.21292 0.0
C410 C 0.44199 0.82919 0.18871 0.0
C411 C 0.5352 0.83162 0.19838 0.0
C412 C 0.58721 0.83641 0.23277 0.0
C413 C 0.49409 0.83103 0.22338 0.0
C414 C 0.59787 0.83721 0.2931 0.0
C415 C 0.55721 0.83621 0.31827 0.0
H416 H 0.52492 0.16755 0.64118 0.0
H417 H 0.63636 0.17387 0.81081 0.0
H418 H 0.56501 0.17645 0.85376 0.0
H419 H 0.47219 0.16716 0.84426 0.0
H420 H 0.36099 0.15929 0.67478 0.0
H421 H 0.43105 0.1675 0.631 0.0
C422 C 0.53373 0.1703 0.68745 0.0
C423 C 0.58605 0.16964 0.72266 0.0
C424 C 0.49251 0.17096 0.71214 0.0
C425 C 0.59651 0.17377 0.78253 0.0
C426 C 0.55569 0.17507 0.80729 0.0
C427 C 0.4631 0.16781 0.79773 0.0
C428 C 0.41157 0.16182 0.76301 0.0
C429 C 0.50368 0.17205 0.77269 0.0
C430 C 0.40038 0.16343 0.70273 0.0
C431 C 0.44048 0.16801 0.67753 0.0
H432 H 0.26205 0.4898 0.02004 0.0
H433 H 0.15073 0.42047 0.91072 0.0
H434 H 0.1481 0.45557 0.82682 0.0
H435 H 0.1773 0.50528 0.78488 0.0
H436 H 0.2874 0.57581 0.89258 0.0
H437 H 0.28954 0.54123 0.97763 0.0
C438 C 0.2378 0.48213 0.9777 0.0
C439 C 0.20725 0.45224 0.97135 0.0
C440 C 0.23557 0.50287 0.92986 0.0
C441 C 0.17494 0.44313 0.91655 0.0
C442 C 0.17321 0.46328 0.8687 0.0
C443 C 0.20179 0.51324 0.82697 0.0
C444 C 0.23258 0.54291 0.83242 0.0
C445 C 0.20323 0.49316 0.87497 0.0
C446 C 0.26324 0.55316 0.88734 0.0
C447 C 0.26481 0.53322 0.93576 0.0
H448 H 0.72794 0.50461 0.464 0.0
H449 H 0.8221 0.42617 0.57142 0.0
H450 H 0.82912 0.46071 0.65685 0.0
H451 H 0.80899 0.51265 0.70059 0.0
H452 H 0.71643 0.59226 0.59487 0.0
H453 H 0.70945 0.558 0.50845 0.0
C454 C 0.74933 0.49488 0.50623 0.0
C455 C 0.7738 0.46261 0.51158 0.0
C456 C 0.75425 0.51525 0.55503 0.0
C457 C 0.80256 0.45074 0.56632 0.0
C458 C 0.80681 0.47054 0.61506 0.0
C459 C 0.78724 0.52266 0.65866 0.0
C460 C 0.76282 0.55487 0.65417 0.0
C461 C 0.78302 0.50281 0.6098 0.0
C462 C 0.7357 0.56763 0.59944 0.0
C463 C 0.73134 0.54791 0.55019 0.0
H464 H 0.81102 0.49432 0.19998 0.0
H465 H 0.70314 0.42299 0.09138 0.0
H466 H 0.70065 0.45804 0.00666 0.0
H467 H 0.72707 0.51013 0.96473 0.0
H468 H 0.83601 0.58033 0.0751 0.0
H469 H 0.83912 0.5447 0.15857 0.0
C470 C 0.78693 0.48625 0.15777 0.0
C471 C 0.75687 0.45618 0.15207 0.0
C472 C 0.78523 0.50664 0.10993 0.0
C473 C 0.72675 0.4459 0.09693 0.0
C474 C 0.72497 0.46613 0.04867 0.0
C475 C 0.75093 0.51789 0.00718 0.0
C476 C 0.78065 0.54823 0.01384 0.0
C477 C 0.75343 0.49684 0.05487 0.0
C478 C 0.81241 0.55738 0.06889 0.0
C479 C 0.81442 0.53691 0.11654 0.0
H480 H 0.17857 0.48401 0.28481 0.0
H481 H 0.27602 0.40642 0.39065 0.0
H482 H 0.28274 0.44103 0.47679 0.0
H483 H 0.26322 0.4945 0.52073 0.0
H484 H 0.16479 0.57104 0.41277 0.0
H485 H 0.15722 0.53579 0.32804 0.0
C486 C 0.2013 0.47449 0.32672 0.0
C487 C 0.22723 0.44277 0.33126 0.0
C488 C 0.2055 0.49461 0.37533 0.0
C489 C 0.25557 0.43063 0.38601 0.0
C490 C 0.25979 0.45059 0.43508 0.0
C491 C 0.24071 0.50368 0.47854 0.0
C492 C 0.21527 0.5357 0.47294 0.0
C493 C 0.23561 0.4829 0.43005 0.0
C494 C 0.18514 0.54675 0.41819 0.0
C495 C 0.18056 0.52652 0.36981 0.0
H496 H 0.75894 0.99408 0.02808 0.0
H497 H 0.6366 0.92989 0.92246 0.0
H498 H 0.63175 0.96621 0.83901 0.0
H499 H 0.66374 0.01495 0.79624 0.0
H500 H 0.78531 0.07953 0.90178 0.0
H501 H 0.7878 0.04455 0.98629 0.0
C502 C 0.73149 0.98768 0.98673 0.0
C503 C 0.69882 0.95879 0.98129 0.0
C504 C 0.72824 0.009 0.93946 0.0
C505 C 0.66267 0.95159 0.92765 0.0
C506 C 0.65967 0.97247 0.88009 0.0
C507 C 0.69067 0.02157 0.83782 0.0
C508 C 0.72478 0.04962 0.8427 0.0
C509 C 0.6924 0.00111 0.88559 0.0
C510 C 0.75863 0.05819 0.89696 0.0
C511 C 0.76039 0.03798 0.94504 0.0
H512 H 0.2973 0.00618 0.69437 0.0
H513 H 0.19867 0.08302 0.58767 0.0
H514 H 0.1939 0.04857 0.50176 0.0
H515 H 0.21684 0.99597 0.45815 0.0
H516 H 0.31704 0.92053 0.56696 0.0
H517 H 0.32089 0.95497 0.65176 0.0
C518 C 0.27451 0.01556 0.65237 0.0
C519 C 0.24785 0.04706 0.64751 0.0
C520 C 0.27162 0.9956 0.60392 0.0
C521 C 0.21961 0.05897 0.5926 0.0
C522 C 0.21657 0.03912 0.54366 0.0
C523 C 0.23882 0.98678 0.50054 0.0
C524 C 0.26601 0.95537 0.50639 0.0
C525 C 0.24194 0.00719 0.54899 0.0
C526 C 0.29544 0.94434 0.56139 0.0
C527 C 0.29788 0.96413 0.60977 0.0
H528 H 0.31399 0.98901 0.19687 0.0
H529 H 0.20023 0.9206 0.08895 0.0
H530 H 0.20047 0.95434 0.00391 0.0
H531 H 0.2301 0.00457 0.96175 0.0
H532 H 0.34638 0.07163 0.06945 0.0
H533 H 0.34768 0.03708 0.15398 0.0
C534 C 0.28934 0.98137 0.15466 0.0
C535 C 0.25659 0.95262 0.14909 0.0
C536 C 0.28968 0.00083 0.10645 0.0
C537 C 0.22573 0.9426 0.09419 0.0
C538 C 0.2256 0.96203 0.04578 0.0
C539 C 0.25534 0.01189 0.00384 0.0
C540 C 0.28724 0.04111 0.00974 0.0
C541 C 0.25672 0.9915 0.05168 0.0
C542 C 0.32099 0.04956 0.06411 0.0
C543 C 0.32186 0.02976 0.11224 0.0
H544 H 0.76595 0.00707 0.53131 0.0
H545 H 0.66597 0.08407 0.42612 0.0
H546 H 0.66119 0.05087 0.33988 0.0
H547 H 0.68277 0.99989 0.29545 0.0
H548 H 0.78187 0.92197 0.39915 0.0
H549 H 0.78853 0.95564 0.48592 0.0
C550 C 0.74377 0.01691 0.48945 0.0
C551 C 0.71661 0.04817 0.48502 0.0
C552 C 0.74023 0.99733 0.44028 0.0
C553 C 0.68735 0.0602 0.43059 0.0
C554 C 0.68437 0.04115 0.3814 0.0
C555 C 0.70601 0.99005 0.3369 0.0
C556 C 0.732 0.95841 0.34072 0.0
C557 C 0.7101 0.00957 0.38596 0.0
C558 C 0.76133 0.94613 0.395 0.0
C559 C 0.76543 0.96549 0.44448 0.0
loop_
_geom_bond_atom_site_label_1
_geom_bond_atom_site_label_2
_geom_bond_distance
_geom_bond_site_symmetry_2
_ccdc_geom_bond_type
Sc0 O3 2.025 . S
Sc0 O10 2.105 . S
Sc0 O13 2.099 1_554 S
Sc0 O16 2.105 . S
Sc0 O19 2.105 . S
Sc1 O3 2.025 . S
Sc1 O11 2.105 . S
Sc1 O15 2.105 . S
Sc1 O17 2.105 . S
Sc1 O21 2.105 . S
Sc2 O3 2.025 . S
Sc2 O12 2.105 . S
Sc2 O14 2.105 . S
Sc2 O18 2.105 . S
Sc2 O20 2.105 . S
O3 Sc0 2.025 . S
O3 Sc1 2.025 . S
O3 Sc2 2.025 . S
C4 O10 1.268 . S
C4 O20 1.268 . S
C5 O11 1.268 . S
C5 O19 1.268 . S
C6 O12 1.268 . S
C6 O21 1.268 . S
C7 O13 1.270 1_554 S
C7 O17 1.268 . S
C8 O14 1.268 . S
C8 O16 1.268 . S
C9 O15 1.268 . S
C9 O18 1.268 . S
O10 Sc0 2.105 . S
O10 C4 1.268 . S
O11 Sc1 2.105 . S
O11 C5 1.268 . S
O12 Sc2 2.105 . S
O12 C6 1.268 . S
O13 Sc0 2.099 1_556 S
O13 C7 1.270 1_556 S
O14 Sc2 2.105 . S
O14 C8 1.268 . S
O15 Sc1 2.105 . S
O15 C9 1.268 . S
O16 Sc0 2.105 . S
O16 C8 1.268 . S
O17 Sc1 2.105 . S
O17 C7 1.268 . S
O18 Sc2 2.105 . S
O18 C9 1.268 . S
O19 Sc0 2.105 . S
O19 C5 1.268 . S
O20 Sc2 2.105 . S
O20 C4 1.268 . S
O21 Sc1 2.105 . S
O21 C6 1.268 . S
Sc22 O25 2.025 . S
Sc22 O32 2.105 . S
Sc22 O35 2.105 . S
Sc22 O38 2.105 . S
Sc22 O41 2.105 . S
Sc23 O25 2.025 . S
Sc23 O33 2.105 . S
Sc23 O37 2.105 . S
Sc23 O39 2.105 . S
Sc23 O43 2.105 . S
Sc24 O25 2.025 . S
Sc24 O34 2.105 . S
Sc24 O36 2.105 . S
Sc24 O40 2.105 . S
Sc24 O42 2.105 . S
O25 Sc22 2.025 . S
O25 Sc23 2.025 . S
O25 Sc24 2.025 . S
C26 O32 1.268 . S
C26 O42 1.268 . S
C27 O33 1.268 . S
C27 O41 1.268 . S
C28 O34 1.268 . S
C28 O43 1.268 . S
C29 O35 1.268 . S
C29 O39 1.268 . S
C30 O36 1.268 . S
C30 O38 1.268 . S
C31 O37 1.268 . S
C31 O40 1.268 . S
O32 Sc22 2.105 . S
O32 C26 1.268 . S
O33 Sc23 2.105 . S
O33 C27 1.268 . S
O34 Sc24 2.105 . S
O34 C28 1.268 . S
O35 Sc22 2.105 . S
O35 C29 1.268 . S
O36 Sc24 2.105 . S
O36 C30 1.268 . S
O37 Sc23 2.105 . S
O37 C31 1.268 . S
O38 Sc22 2.105 . S
O38 C30 1.268 . S
O39 Sc23 2.105 . S
O39 C29 1.268 . S
O40 Sc24 2.105 . S
O40 C31 1.268 . S
O41 Sc22 2.105 . S
O41 C27 1.268 . S
O42 Sc24 2.105 . S
O42 C26 1.268 . S
O43 Sc23 2.105 . S
O43 C28 1.268 . S
Sc44 O47 2.025 . S
Sc44 O54 2.105 . S
Sc44 O57 2.105 . S
Sc44 O60 2.105 . S
Sc44 O63 2.105 . S
Sc45 O47 2.025 . S
Sc45 O55 2.105 . S
Sc45 O59 2.105 . S
Sc45 O61 2.105 . S
Sc45 O65 2.105 . S
Sc46 O47 2.025 . S
Sc46 O56 2.105 . S
Sc46 O58 2.105 . S
Sc46 O62 2.099 1_556 S
Sc46 O64 2.105 . S
O47 Sc44 2.025 . S
O47 Sc45 2.025 . S
O47 Sc46 2.025 . S
C48 O54 1.268 . S
C48 O64 1.268 . S
C49 O55 1.268 . S
C49 O63 1.268 . S
C50 O56 1.268 . S
C50 O65 1.268 . S
C51 O57 1.268 . S
C51 O61 1.268 . S
C52 O58 1.268 . S
C52 O60 1.268 . S
C53 O59 1.268 . S
C53 O62 1.270 1_556 S
O54 Sc44 2.105 . S
O54 C48 1.268 . S
O55 Sc45 2.105 . S
O55 C49 1.268 . S
O56 Sc46 2.105 . S
O56 C50 1.268 . S
O57 Sc44 2.105 . S
O57 C51 1.268 . S
O58 Sc46 2.105 . S
O58 C52 1.268 . S
O59 Sc45 2.105 . S
O59 C53 1.268 . S
O60 Sc44 2.105 . S
O60 C52 1.268 . S
O61 Sc45 2.105 . S
O61 C51 1.268 . S
O62 Sc46 2.099 1_554 S
O62 C53 1.270 1_554 S
O63 Sc44 2.105 . S
O63 C49 1.268 . S
O64 Sc46 2.105 . S
O64 C48 1.268 . S
O65 Sc45 2.105 . S
O65 C50 1.268 . S
Sc66 O69 2.025 . S
Sc66 O76 2.105 . S
Sc66 O79 2.105 . S
Sc66 O82 2.105 . S
Sc66 O85 2.105 . S
Sc67 O69 2.025 . S
Sc67 O77 2.105 . S
Sc67 O81 2.105 . S
Sc67 O83 2.105 . S
Sc67 O87 2.105 . S
Sc68 O69 2.025 . S
Sc68 O78 2.105 . S
Sc68 O80 2.105 . S
Sc68 O84 2.105 . S
Sc68 O86 2.105 . S
O69 Sc66 2.025 . S
O69 Sc67 2.025 . S
O69 Sc68 2.025 . S
C70 O76 1.268 . S
C70 O86 1.268 . S
C71 O77 1.268 . S
C71 O85 1.268 . S
C72 O78 1.268 . S
C72 O87 1.268 . S
C73 O79 1.268 . S
C73 O83 1.268 . S
C74 O80 1.268 . S
C74 O82 1.268 . S
C75 O81 1.268 . S
C75 O84 1.268 . S
O76 Sc66 2.105 . S
O76 C70 1.268 . S
O77 Sc67 2.105 . S
O77 C71 1.268 . S
O78 Sc68 2.105 . S
O78 C72 1.268 . S
O79 Sc66 2.105 . S
O79 C73 1.268 . S
O80 Sc68 2.105 . S
O80 C74 1.268 . S
O81 Sc67 2.105 . S
O81 C75 1.268 . S
O82 Sc66 2.105 . S
O82 C74 1.268 . S
O83 Sc67 2.105 . S
O83 C73 1.268 . S
O84 Sc68 2.105 . S
O84 C75 1.268 . S
O85 Sc66 2.105 . S
O85 C71 1.268 . S
O86 Sc68 2.105 . S
O86 C70 1.268 . S
O87 Sc67 2.105 . S
O87 C72 1.268 . S
Sc88 O91 2.025 . S
Sc88 O98 2.105 . S
Sc88 O101 2.099 1_554 S
Sc88 O104 2.105 . S
Sc88 O107 2.105 . S
Sc89 O91 2.025 . S
Sc89 O99 2.105 . S
Sc89 O103 2.105 . S
Sc89 O105 2.105 . S
Sc89 O109 2.105 . S
Sc90 O91 2.025 . S
Sc90 O100 2.105 . S
Sc90 O102 2.105 . S
Sc90 O106 2.105 . S
Sc90 O108 2.105 . S
O91 Sc88 2.025 . S
O91 Sc89 2.025 . S
O91 Sc90 2.025 . S
C92 O98 1.268 . S
C92 O108 1.268 . S
C93 O99 1.268 . S
C93 O107 1.268 . S
C94 O100 1.268 . S
C94 O109 1.268 . S
C95 O101 1.270 1_554 S
C95 O105 1.268 . S
C96 O102 1.268 . S
C96 O104 1.268 . S
C97 O103 1.268 . S
C97 O106 1.268 . S
O98 Sc88 2.105 . S
O98 C92 1.268 . S
O99 Sc89 2.105 . S
O99 C93 1.268 . S
O100 Sc90 2.105 . S
O100 C94 1.268 . S
O101 Sc88 2.099 1_556 S
O101 C95 1.270 1_556 S
O102 Sc90 2.105 . S
O102 C96 1.268 . S
O103 Sc89 2.105 . S
O103 C97 1.268 . S
O104 Sc88 2.105 . S
O104 C96 1.268 . S
O105 Sc89 2.105 . S
O105 C95 1.268 . S
O106 Sc90 2.105 . S
O106 C97 1.268 . S
O107 Sc88 2.105 . S
O107 C93 1.268 . S
O108 Sc90 2.105 . S
O108 C92 1.268 . S
O109 Sc89 2.105 . S
O109 C94 1.268 . S
Sc110 O113 2.025 . S
Sc110 O120 2.105 . S
Sc110 O123 2.105 . S
Sc110 O126 2.105 . S
Sc110 O129 2.105 . S
Sc111 O113 2.025 . S
Sc111 O121 2.105 . S
Sc111 O125 2.105 . S
Sc111 O127 2.105 . S
Sc111 O131 2.105 . S
Sc112 O113 2.025 . S
Sc112 O122 2.105 . S
Sc112 O124 2.105 . S
Sc112 O128 2.105 . S
Sc112 O130 2.105 . S
O113 Sc110 2.025 . S
O113 Sc111 2.025 . S
O113 Sc112 2.025 . S
C114 O120 1.268 . S
C114 O130 1.268 . S
C115 O121 1.268 . S
C115 O129 1.268 . S
C116 O122 1.268 . S
C116 O131 1.268 . S
C117 O123 1.268 . S
C117 O127 1.268 . S
C118 O124 1.268 . S
C118 O126 1.268 . S
C119 O125 1.268 . S
C119 O128 1.268 . S
O120 Sc110 2.105 . S
O120 C114 1.268 . S
O121 Sc111 2.105 . S
O121 C115 1.268 . S
O122 Sc112 2.105 . S
O122 C116 1.268 . S
O123 Sc110 2.105 . S
O123 C117 1.268 . S
O124 Sc112 2.105 . S
O124 C118 1.268 . S
O125 Sc111 2.105 . S
O125 C119 1.268 . S
O126 Sc110 2.105 . S
O126 C118 1.268 . S
O127 Sc111 2.105 . S
O127 C117 1.268 . S
O128 Sc112 2.105 . S
O128 C119 1.268 . S
O129 Sc110 2.105 . S
O129 C115 1.268 . S
O130 Sc112 2.105 . S
O130 C114 1.268 . S
O131 Sc111 2.105 . S
O131 C116 1.268 . S
Sc132 O135 2.025 . S
Sc132 O142 2.105 . S
Sc132 O145 2.105 . S
Sc132 O148 2.105 . S
Sc132 O151 2.105 . S
Sc133 O135 2.025 . S
Sc133 O143 2.105 . S
Sc133 O147 2.105 . S
Sc133 O149 2.105 . S
Sc133 O153 2.105 . S
Sc134 O135 2.025 . S
Sc134 O144 2.105 . S
Sc134 O146 2.105 . S
Sc134 O150 2.099 1_556 S
Sc134 O152 2.105 . S
O135 Sc132 2.025 . S
O135 Sc133 2.025 . S
O135 Sc134 2.025 . S
C136 O142 1.268 . S
C136 O152 1.268 . S
C137 O143 1.268 . S
C137 O151 1.268 . S
C138 O144 1.268 . S
C138 O153 1.268 . S
C139 O145 1.268 . S
C139 O149 1.268 . S
C140 O146 1.268 . S
C140 O148 1.268 . S
C141 O147 1.268 . S
C141 O150 1.270 1_556 S
O142 Sc132 2.105 . S
O142 C136 1.268 . S
O143 Sc133 2.105 . S
O143 C137 1.268 . S
O144 Sc134 2.105 . S
O144 C138 1.268 . S
O145 Sc132 2.105 . S
O145 C139 1.268 . S
O146 Sc134 2.105 . S
O146 C140 1.268 . S
O147 Sc133 2.105 . S
O147 C141 1.268 . S
O148 Sc132 2.105 . S
O148 C140 1.268 . S
O149 Sc133 2.105 . S
O149 C139 1.268 . S
O150 Sc134 2.099 1_554 S
O150 C141 1.270 1_554 S
O151 Sc132 2.105 . S
O151 C137 1.268 . S
O152 Sc134 2.105 . S
O152 C136 1.268 . S
O153 Sc133 2.105 . S
O153 C138 1.268 . S
Sc154 O157 2.025 . S
Sc154 O164 2.105 . S
Sc154 O167 2.105 . S
Sc154 O170 2.105 . S
Sc154 O173 2.105 . S
Sc155 O157 2.025 . S
Sc155 O165 2.105 . S
Sc155 O169 2.105 . S
Sc155 O171 2.105 . S
Sc155 O175 2.105 . S
Sc156 O157 2.025 . S
Sc156 O166 2.105 . S
Sc156 O168 2.105 . S
Sc156 O172 2.105 . S
Sc156 O174 2.105 . S
O157 Sc154 2.025 . S
O157 Sc155 2.025 . S
O157 Sc156 2.025 . S
C158 O164 1.268 . S
C158 O174 1.268 . S
C159 O165 1.268 . S
C159 O173 1.268 . S
C160 O166 1.268 . S
C160 O175 1.268 . S
C161 O167 1.268 . S
C161 O171 1.268 . S
C162 O168 1.268 . S
C162 O170 1.268 . S
C163 O169 1.268 . S
C163 O172 1.268 . S
O164 Sc154 2.105 . S
O164 C158 1.268 . S
O165 Sc155 2.105 . S
O165 C159 1.268 . S
O166 Sc156 2.105 . S
O166 C160 1.268 . S
O167 Sc154 2.105 . S
O167 C161 1.268 . S
O168 Sc156 2.105 . S
O168 C162 1.268 . S
O169 Sc155 2.105 . S
O169 C163 1.268 . S
O170 Sc154 2.105 . S
O170 C162 1.268 . S
O171 Sc155 2.105 . S
O171 C161 1.268 . S
O172 Sc156 2.105 . S
O172 C163 1.268 . S
O173 Sc154 2.105 . S
O173 C159 1.268 . S
O174 Sc156 2.105 . S
O174 C158 1.268 . S
O175 Sc155 2.105 . S
O175 C160 1.268 . S
H176 C182 0.930 . S
H177 C185 0.930 . S
H178 C186 0.930 . S
H179 C187 0.930 . S
H180 C190 0.930 . S
H181 C191 0.930 . S
C182 H176 0.930 . S
C182 C183 1.355 . S
C182 C184 1.415 . S
C183 C182 1.355 . S
C183 C185 1.419 . S
C184 C182 1.415 . S
C184 C189 1.425 . S
C184 C191 1.409 . S
C185 H177 0.930 . S
C185 C183 1.419 . S
C185 C186 1.362 . S
C186 H178 0.930 . S
C186 C185 1.362 . S
C186 C189 1.409 . S
C187 H179 0.930 . S
C187 C188 1.355 . S
C187 C189 1.415 . S
C188 C187 1.355 . S
C188 C190 1.419 . S
C189 C184 1.425 . S
C189 C186 1.409 . S
C189 C187 1.415 . S
C190 H180 0.930 . S
C190 C188 1.419 . S
C190 C191 1.362 . S
C191 H181 0.930 . S
C191 C184 1.409 . S
C191 C190 1.362 . S
H192 C198 0.930 . S
H193 C201 0.930 . S
H194 C202 0.930 . S
H195 C203 0.930 . S
H196 C206 0.930 . S
H197 C207 0.930 . S
C198 H192 0.930 . S
C198 C199 1.355 . S
C198 C200 1.415 . S
C199 C198 1.355 . S
C199 C201 1.419 . S
C200 C198 1.415 . S
C200 C205 1.425 . S
C200 C207 1.409 . S
C201 H193 0.930 . S
C201 C199 1.419 . S
C201 C202 1.362 . S
C202 H194 0.930 . S
C202 C201 1.362 . S
C202 C205 1.409 . S
C203 H195 0.930 . S
C203 C204 1.355 . S
C203 C205 1.415 . S
C204 C203 1.355 . S
C204 C206 1.419 . S
C205 C200 1.425 . S
C205 C202 1.409 . S
C205 C203 1.415 . S
C206 H196 0.930 . S
C206 C204 1.419 . S
C206 C207 1.362 . S
C207 H197 0.930 . S
C207 C200 1.409 . S
C207 C206 1.362 . S
H208 C214 0.930 . S
H209 C217 0.930 . S
H210 C218 0.930 . S
H211 C219 0.930 . S
H212 C222 0.930 . S
H213 C223 0.930 . S
C214 H208 0.930 . S
C214 C215 1.355 . S
C214 C216 1.415 . S
C215 C214 1.355 . S
C215 C217 1.419 . S
C216 C214 1.415 . S
C216 C221 1.425 1_455 S
C216 C223 1.409 1_455 S
C217 H209 0.930 . S
C217 C215 1.419 . S
C217 C218 1.362 . S
C218 H210 0.930 . S
C218 C217 1.362 . S
C218 C221 1.409 1_455 S
C219 H211 0.930 . S
C219 C220 1.355 . S
C219 C221 1.415 . S
C220 C219 1.355 . S
C220 C222 1.419 . S
C221 C216 1.425 1_655 S
C221 C218 1.409 1_655 S
C221 C219 1.415 . S
C222 H212 0.930 . S
C222 C220 1.419 . S
C222 C223 1.362 . S
C223 H213 0.930 . S
C223 C216 1.409 1_655 S
C223 C222 1.362 . S
H224 C230 0.930 . S
H225 C233 0.930 . S
H226 C234 0.930 . S
H227 C235 0.930 . S
H228 C238 0.930 . S
H229 C239 0.930 . S
C230 H224 0.930 . S
C230 C231 1.355 . S
C230 C232 1.415 . S
C231 C230 1.355 . S
C231 C233 1.419 . S
C232 C230 1.415 . S
C232 C237 1.425 1_455 S
C232 C239 1.409 1_455 S
C233 H225 0.930 . S
C233 C231 1.419 . S
C233 C234 1.362 . S
C234 H226 0.930 . S
C234 C233 1.362 . S
C234 C237 1.409 1_455 S
C235 H227 0.930 . S
C235 C236 1.355 . S
C235 C237 1.415 . S
C236 C235 1.355 . S
C236 C238 1.419 . S
C237 C232 1.425 1_655 S
C237 C234 1.409 1_655 S
C237 C235 1.415 . S
C238 H228 0.930 . S
C238 C236 1.419 . S
C238 C239 1.362 . S
C239 H229 0.930 . S
C239 C232 1.409 1_655 S
C239 C238 1.362 . S
H240 C246 0.930 . S
H241 C249 0.930 . S
H242 C250 0.930 . S
H243 C251 0.930 . S
H244 C254 0.930 . S
H245 C255 0.930 . S
C246 H240 0.930 . S
C246 C247 1.355 . S
C246 C248 1.415 . S
C247 C246 1.355 . S
C247 C249 1.419 . S
C248 C246 1.415 . S
C248 C253 1.425 1_554 S
C248 C255 1.409 . S
C249 H241 0.930 . S
C249 C247 1.419 . S
C249 C250 1.362 1_554 S
C250 H242 0.930 . S
C250 C249 1.362 1_556 S
C250 C253 1.409 . S
C251 H243 0.930 . S
C251 C252 1.355 . S
C251 C253 1.415 . S
C252 C251 1.355 . S
C252 C254 1.419 . S
C253 C248 1.425 1_556 S
C253 C250 1.409 . S
C253 C251 1.415 . S
C254 H244 0.930 . S
C254 C252 1.419 . S
C254 C255 1.362 1_556 S
C255 H245 0.930 . S
C255 C248 1.409 . S
C255 C254 1.362 1_554 S
H256 C262 0.930 . S
H257 C265 0.930 . S
H258 C266 0.930 . S
H259 C267 0.930 . S
H260 C270 0.930 . S
H261 C271 0.930 . S
C262 H256 0.930 . S
C262 C263 1.355 . S
C262 C264 1.415 . S
C263 C262 1.355 . S
C263 C265 1.419 . S
C264 C262 1.415 . S
C264 C269 1.425 . S
C264 C271 1.409 . S
C265 H257 0.930 . S
C265 C263 1.419 . S
C265 C266 1.362 . S
C266 H258 0.930 . S
C266 C265 1.362 . S
C266 C269 1.409 . S
C267 H259 0.930 . S
C267 C268 1.355 . S
C267 C269 1.415 . S
C268 C267 1.355 . S
C268 C270 1.419 . S
C269 C264 1.425 . S
C269 C266 1.409 . S
C269 C267 1.415 . S
C270 H260 0.930 . S
C270 C268 1.419 . S
C270 C271 1.362 . S
C271 H261 0.930 . S
C271 C264 1.409 . S
C271 C270 1.362 . S
H272 C278 0.930 . S
H273 C281 0.930 . S
H274 C282 0.930 . S
H275 C283 0.930 . S
H276 C286 0.930 . S
H277 C287 0.930 . S
C278 H272 0.930 . S
C278 C279 1.355 . S
C278 C280 1.423 . S
C279 C278 1.355 . S
C279 C281 1.419 . S
C280 C278 1.423 . S
C280 C285 1.432 1_554 S
C280 C287 1.398 1_554 S
C281 H273 0.930 . S
C281 C279 1.419 . S
C281 C282 1.362 . S
C282 H274 0.930 . S
C282 C281 1.362 . S
C282 C285 1.398 1_554 S
C283 H275 0.930 . S
C283 C284 1.355 . S
C283 C285 1.423 . S
C284 C283 1.355 . S
C284 C286 1.419 . S
C285 C280 1.432 1_556 S
C285 C282 1.398 1_556 S
C285 C283 1.423 . S
C286 H276 0.930 . S
C286 C284 1.419 . S
C286 C287 1.362 . S
C287 H277 0.930 . S
C287 C280 1.398 1_556 S
C287 C286 1.362 . S
H288 C294 0.930 . S
H289 C297 0.930 . S
H290 C298 0.930 . S
H291 C299 0.930 . S
H292 C302 0.930 . S
H293 C303 0.930 . S
C294 H288 0.930 . S
C294 C295 1.355 . S
C294 C296 1.415 . S
C295 C294 1.355 . S
C295 C297 1.419 . S
C296 C294 1.415 . S
C296 C301 1.425 . S
C296 C303 1.409 . S
C297 H289 0.930 . S
C297 C295 1.419 . S
C297 C298 1.362 . S
C298 H290 0.930 . S
C298 C297 1.362 . S
C298 C301 1.409 . S
C299 H291 0.930 . S
C299 C300 1.355 . S
C299 C301 1.415 . S
C300 C299 1.355 . S
C300 C302 1.419 . S
C301 C296 1.425 . S
C301 C298 1.409 . S
C301 C299 1.415 . S
C302 H292 0.930 . S
C302 C300 1.419 . S
C302 C303 1.362 . S
C303 H293 0.930 . S
C303 C296 1.409 . S
C303 C302 1.362 . S
H304 C310 0.930 . S
H305 C313 0.930 . S
H306 C314 0.930 . S
H307 C315 0.930 . S
H308 C318 0.930 . S
H309 C319 0.930 . S
C310 H304 0.930 . S
C310 C311 1.355 . S
C310 C312 1.415 1_556 S
C311 C310 1.355 . S
C311 C313 1.419 . S
C312 C310 1.415 1_554 S
C312 C317 1.425 1_654 S
C312 C319 1.409 . S
C313 H305 0.930 . S
C313 C311 1.419 . S
C313 C314 1.362 1_655 S
C314 H306 0.930 . S
C314 C313 1.362 1_455 S
C314 C317 1.409 . S
C315 H307 0.930 . S
C315 C316 1.355 . S
C315 C317 1.415 1_554 S
C316 C315 1.355 . S
C316 C318 1.419 . S
C317 C312 1.425 1_456 S
C317 C314 1.409 . S
C317 C315 1.415 1_556 S
C318 H308 0.930 . S
C318 C316 1.419 . S
C318 C319 1.362 1_455 S
C319 H309 0.930 . S
C319 C312 1.409 . S
C319 C318 1.362 1_655 S
H320 C326 0.930 . S
H321 C329 0.930 . S
H322 C330 0.930 1_655 S
H323 C331 0.930 . S
H324 C334 0.930 . S
H325 C335 0.930 1_455 S
C326 H320 0.930 . S
C326 C327 1.355 . S
C326 C328 1.415 . S
C327 C326 1.355 . S
C327 C329 1.419 . S
C328 C326 1.415 . S
C328 C333 1.425 1_455 S
C328 C335 1.409 1_455 S
C329 H321 0.930 . S
C329 C327 1.419 . S
C329 C330 1.362 . S
C330 H322 0.930 1_455 S
C330 C329 1.362 . S
C330 C333 1.409 1_455 S
C331 H323 0.930 . S
C331 C332 1.355 . S
C331 C333 1.415 . S
C332 C331 1.355 . S
C332 C334 1.419 . S
C333 C328 1.425 1_655 S
C333 C330 1.409 1_655 S
C333 C331 1.415 . S
C334 H324 0.930 . S
C334 C332 1.419 . S
C334 C335 1.362 . S
C335 H325 0.930 1_655 S
C335 C328 1.409 1_655 S
C335 C334 1.362 . S
H336 C342 0.930 . S
H337 C345 0.930 . S
H338 C346 0.930 . S
H339 C347 0.930 . S
H340 C350 0.930 . S
H341 C351 0.930 . S
C342 H336 0.930 . S
C342 C343 1.355 1_545 S
C342 C344 1.415 . S
C343 C342 1.355 1_565 S
C343 C345 1.419 . S
C344 C342 1.415 . S
C344 C349 1.425 1_544 S
C344 C351 1.409 1_554 S
C345 H337 0.930 . S
C345 C343 1.419 . S
C345 C346 1.362 . S
C346 H338 0.930 . S
C346 C345 1.362 . S
C346 C349 1.409 1_554 S
C347 H339 0.930 . S
C347 C348 1.355 1_565 S
C347 C349 1.415 . S
C348 C347 1.355 1_545 S
C348 C350 1.419 . S
C349 C344 1.425 1_566 S
C349 C346 1.409 1_556 S
C349 C347 1.415 . S
C350 H340 0.930 . S
C350 C348 1.419 . S
C350 C351 1.362 . S
C351 H341 0.930 . S
C351 C344 1.409 1_556 S
C351 C350 1.362 . S
H352 C358 0.930 . S
H353 C361 0.930 . S
H354 C362 0.930 . S
H355 C363 0.930 . S
H356 C366 0.930 . S
H357 C367 0.930 . S
C358 H352 0.930 . S
C358 C359 1.355 . S
C358 C360 1.415 . S
C359 C358 1.355 . S
C359 C361 1.419 1_565 S
C360 C358 1.415 . S
C360 C365 1.425 1_565 S
C360 C367 1.409 . S
C361 H353 0.930 . S
C361 C359 1.419 1_545 S
C361 C362 1.362 . S
C362 H354 0.930 . S
C362 C361 1.362 . S
C362 C365 1.409 . S
C363 H355 0.930 . S
C363 C364 1.355 . S
C363 C365 1.415 . S
C364 C363 1.355 . S
C364 C366 1.419 1_545 S
C365 C360 1.425 1_545 S
C365 C362 1.409 . S
C365 C363 1.415 . S
C366 H356 0.930 . S
C366 C364 1.419 1_565 S
C366 C367 1.362 . S
C367 H357 0.930 . S
C367 C360 1.409 . S
C367 C366 1.362 . S
H368 C374 0.930 . S
H369 C377 0.930 . S
H370 C378 0.930 . S
H371 C379 0.930 . S
H372 C382 0.930 . S
H373 C383 0.930 . S
C374 H368 0.930 . S
C374 C375 1.355 . S
C374 C376 1.415 . S
C375 C374 1.355 . S
C375 C377 1.419 . S
C376 C374 1.415 . S
C376 C381 1.425 1_455 S
C376 C383 1.409 . S
C377 H369 0.930 . S
C377 C375 1.419 . S
C377 C378 1.362 1_455 S
C378 H370 0.930 . S
C378 C377 1.362 1_655 S
C378 C381 1.409 . S
C379 H371 0.930 . S
C379 C380 1.355 . S
C379 C381 1.415 . S
C380 C379 1.355 . S
C380 C382 1.419 . S
C381 C376 1.425 1_655 S
C381 C378 1.409 . S
C381 C379 1.415 . S
C382 H372 0.930 . S
C382 C380 1.419 . S
C382 C383 1.362 1_655 S
C383 H373 0.930 . S
C383 C376 1.409 . S
C383 C382 1.362 1_455 S
H384 C390 0.930 . S
H385 C393 0.930 . S
H386 C394 0.930 . S
H387 C395 0.930 . S
H388 C398 0.930 . S
H389 C399 0.930 . S
C390 H384 0.930 . S
C390 C391 1.355 . S
C390 C392 1.415 . S
C391 C390 1.355 . S
C391 C393 1.419 . S
C392 C390 1.415 . S
C392 C397 1.425 1_455 S
C392 C399 1.409 . S
C393 H385 0.930 . S
C393 C391 1.419 . S
C393 C394 1.362 1_455 S
C394 H386 0.930 . S
C394 C393 1.362 1_655 S
C394 C397 1.409 . S
C395 H387 0.930 . S
C395 C396 1.355 . S
C395 C397 1.415 . S
C396 C395 1.355 . S
C396 C398 1.419 . S
C397 C392 1.425 1_655 S
C397 C394 1.409 . S
C397 C395 1.415 . S
C398 H388 0.930 . S
C398 C396 1.419 . S
C398 C399 1.362 1_655 S
C399 H389 0.930 . S
C399 C392 1.409 . S
C399 C398 1.362 1_455 S
H400 C406 0.930 . S
H401 C409 0.930 . S
H402 C410 0.930 . S
H403 C411 0.930 . S
H404 C414 0.930 . S
H405 C415 0.930 . S
C406 H400 0.930 . S
C406 C407 1.355 . S
C406 C408 1.415 . S
C407 C406 1.355 . S
C407 C409 1.419 . S
C408 C406 1.415 . S
C408 C413 1.425 . S
C408 C415 1.409 . S
C409 H401 0.930 . S
C409 C407 1.419 . S
C409 C410 1.362 . S
C410 H402 0.930 . S
C410 C409 1.362 . S
C410 C413 1.409 . S
C411 H403 0.930 . S
C411 C412 1.355 . S
C411 C413 1.415 . S
C412 C411 1.355 . S
C412 C414 1.419 . S
C413 C408 1.425 . S
C413 C410 1.409 . S
C413 C411 1.415 . S
C414 H404 0.930 . S
C414 C412 1.419 . S
C414 C415 1.362 . S
C415 H405 0.930 . S
C415 C408 1.409 . S
C415 C414 1.362 . S
H416 C422 0.930 . S
H417 C425 0.930 . S
H418 C426 0.930 . S
H419 C427 0.930 . S
H420 C430 0.930 . S
H421 C431 0.930 . S
C422 H416 0.930 . S
C422 C423 1.355 . S
C422 C424 1.415 . S
C423 C422 1.355 . S
C423 C425 1.419 . S
C424 C422 1.415 . S
C424 C429 1.425 . S
C424 C431 1.409 . S
C425 H417 0.930 . S
C425 C423 1.419 . S
C425 C426 1.362 . S
C426 H418 0.930 . S
C426 C425 1.362 . S
C426 C429 1.409 . S
C427 H419 0.930 . S
C427 C428 1.355 . S
C427 C429 1.415 . S
C428 C427 1.355 . S
C428 C430 1.419 . S
C429 C424 1.425 . S
C429 C426 1.409 . S
C429 C427 1.415 . S
C430 H420 0.930 . S
C430 C428 1.419 . S
C430 C431 1.362 . S
C431 H421 0.930 . S
C431 C424 1.409 . S
C431 C430 1.362 . S
H432 C438 0.930 . S
H433 C441 0.930 . S
H434 C442 0.930 . S
H435 C443 0.930 . S
H436 C446 0.930 . S
H437 C447 0.930 . S
C438 H432 0.930 . S
C438 C439 1.355 . S
C438 C440 1.415 . S
C439 C438 1.355 . S
C439 C441 1.419 . S
C440 C438 1.415 . S
C440 C445 1.425 . S
C440 C447 1.409 . S
C441 H433 0.930 . S
C441 C439 1.419 . S
C441 C442 1.362 . S
C442 H434 0.930 . S
C442 C441 1.362 . S
C442 C445 1.409 . S
C443 H435 0.930 . S
C443 C444 1.355 . S
C443 C445 1.415 . S
C444 C443 1.355 . S
C444 C446 1.419 . S
C445 C440 1.425 . S
C445 C442 1.409 . S
C445 C443 1.415 . S
C446 H436 0.930 . S
C446 C444 1.419 . S
C446 C447 1.362 . S
C447 H437 0.930 . S
C447 C440 1.409 . S
C447 C446 1.362 . S
H448 C454 0.930 . S
H449 C457 0.930 . S
H450 C458 0.930 . S
H451 C459 0.930 . S
H452 C462 0.930 . S
H453 C463 0.930 . S
C454 H448 0.930 . S
C454 C455 1.355 . S
C454 C456 1.415 . S
C455 C454 1.355 . S
C455 C457 1.419 . S
C456 C454 1.415 . S
C456 C461 1.425 . S
C456 C463 1.409 . S
C457 H449 0.930 . S
C457 C455 1.419 . S
C457 C458 1.362 . S
C458 H450 0.930 . S
C458 C457 1.362 . S
C458 C461 1.409 . S
C459 H451 0.930 . S
C459 C460 1.355 . S
C459 C461 1.415 . S
C460 C459 1.355 . S
C460 C462 1.419 . S
C461 C456 1.425 . S
C461 C458 1.409 . S
C461 C459 1.415 . S
C462 H452 0.930 . S
C462 C460 1.419 . S
C462 C463 1.362 . S
C463 H453 0.930 . S
C463 C456 1.409 . S
C463 C462 1.362 . S
H464 C470 0.930 . S
H465 C473 0.930 . S
H466 C474 0.930 . S
H467 C475 0.930 . S
H468 C478 0.930 . S
H469 C479 0.930 . S
C470 H464 0.930 . S
C470 C471 1.355 . S
C470 C472 1.415 . S
C471 C470 1.355 . S
C471 C473 1.419 . S
C472 C470 1.415 . S
C472 C477 1.425 . S
C472 C479 1.409 . S
C473 H465 0.930 . S
C473 C471 1.419 . S
C473 C474 1.362 . S
C474 H466 0.930 . S
C474 C473 1.362 . S
C474 C477 1.409 . S
C475 H467 0.930 . S
C475 C476 1.355 . S
C475 C477 1.415 . S
C476 C475 1.355 . S
C476 C478 1.419 . S
C477 C472 1.425 . S
C477 C474 1.409 . S
C477 C475 1.415 . S
C478 H468 0.930 . S
C478 C476 1.419 . S
C478 C479 1.362 . S
C479 H469 0.930 . S
C479 C472 1.409 . S
C479 C478 1.362 . S
H480 C486 0.930 . S
H481 C489 0.930 . S
H482 C490 0.930 . S
H483 C491 0.930 . S
H484 C494 0.930 . S
H485 C495 0.930 . S
C486 H480 0.930 . S
C486 C487 1.355 . S
C486 C488 1.415 . S
C487 C486 1.355 . S
C487 C489 1.419 . S
C488 C486 1.415 . S
C488 C493 1.425 . S
C488 C495 1.409 . S
C489 H481 0.930 . S
C489 C487 1.419 . S
C489 C490 1.362 . S
C490 H482 0.930 . S
C490 C489 1.362 . S
C490 C493 1.409 . S
C491 H483 0.930 . S
C491 C492 1.355 . S
C491 C493 1.415 . S
C492 C491 1.355 . S
C492 C494 1.419 . S
C493 C488 1.425 . S
C493 C490 1.409 . S
C493 C491 1.415 . S
C494 H484 0.930 . S
C494 C492 1.419 . S
C494 C495 1.362 . S
C495 H485 0.930 . S
C495 C488 1.409 . S
C495 C494 1.362 . S
H496 C502 0.930 . S
H497 C505 0.930 . S
H498 C506 0.930 . S
H499 C507 0.930 1_565 S
H500 C510 0.930 . S
H501 C511 0.930 . S
C502 H496 0.930 . S
C502 C503 1.355 . S
C502 C504 1.415 . S
C503 C502 1.355 . S
C503 C505 1.419 . S
C504 C502 1.415 . S
C504 C509 1.425 . S
C504 C511 1.409 1_565 S
C505 H497 0.930 . S
C505 C503 1.419 . S
C505 C506 1.362 . S
C506 H498 0.930 . S
C506 C505 1.362 . S
C506 C509 1.409 . S
C507 H499 0.930 1_545 S
C507 C508 1.355 . S
C507 C509 1.415 1_545 S
C508 C507 1.355 . S
C508 C510 1.419 . S
C509 C504 1.425 . S
C509 C506 1.409 . S
C509 C507 1.415 1_565 S
C510 H500 0.930 . S
C510 C508 1.419 . S
C510 C511 1.362 . S
C511 H501 0.930 . S
C511 C504 1.409 1_545 S
C511 C510 1.362 . S
H512 C518 0.930 . S
H513 C521 0.930 . S
H514 C522 0.930 . S
H515 C523 0.930 . S
H516 C526 0.930 . S
H517 C527 0.930 . S
C518 H512 0.930 . S
C518 C519 1.355 . S
C518 C520 1.415 . S
C519 C518 1.355 . S
C519 C521 1.419 1_545 S
C520 C518 1.415 . S
C520 C525 1.425 1_545 S
C520 C527 1.409 . S
C521 H513 0.930 . S
C521 C519 1.419 1_565 S
C521 C522 1.362 . S
C522 H514 0.930 . S
C522 C521 1.362 . S
C522 C525 1.409 . S
C523 H515 0.930 . S
C523 C524 1.355 . S
C523 C525 1.415 . S
C524 C523 1.355 . S
C524 C526 1.419 . S
C525 C520 1.425 1_565 S
C525 C522 1.409 . S
C525 C523 1.415 . S
C526 H516 0.930 . S
C526 C524 1.419 . S
C526 C527 1.362 1_565 S
C527 H517 0.930 . S
C527 C520 1.409 . S
C527 C526 1.362 1_545 S
H528 C534 0.930 . S
H529 C537 0.930 . S
H530 C538 0.930 . S
H531 C539 0.930 . S
H532 C542 0.930 1_556 S
H533 C543 0.930 . S
C534 H528 0.930 . S
C534 C535 1.355 . S
C534 C536 1.415 . S
C535 C534 1.355 . S
C535 C537 1.419 1_565 S
C536 C534 1.415 . S
C536 C541 1.425 1_565 S
C536 C543 1.409 . S
C537 H529 0.930 . S
C537 C535 1.419 1_545 S
C537 C538 1.362 . S
C538 H530 0.930 . S
C538 C537 1.362 . S
C538 C541 1.409 . S
C539 H531 0.930 . S
C539 C540 1.355 . S
C539 C541 1.415 . S
C540 C539 1.355 . S
C540 C542 1.419 . S
C541 C536 1.425 1_545 S
C541 C538 1.409 . S
C541 C539 1.415 . S
C542 H532 0.930 1_554 S
C542 C540 1.419 . S
C542 C543 1.362 1_545 S
C543 H533 0.930 . S
C543 C536 1.409 . S
C543 C542 1.362 1_565 S
H544 C550 0.930 . S
H545 C553 0.930 . S
H546 C554 0.930 . S
H547 C555 0.930 . S
H548 C558 0.930 . S
H549 C559 0.930 . S
C550 H544 0.930 . S
C550 C551 1.355 . S
C550 C552 1.415 . S
C551 C550 1.355 . S
C551 C553 1.419 . S
C552 C550 1.415 . S
C552 C557 1.425 1_545 S
C552 C559 1.409 . S
C553 H545 0.930 . S
C553 C551 1.419 . S
C553 C554 1.362 1_545 S
C554 H546 0.930 . S
C554 C553 1.362 1_565 S
C554 C557 1.409 . S
C555 H547 0.930 . S
C555 C556 1.355 . S
C555 C557 1.415 . S
C556 C555 1.355 . S
C556 C558 1.419 1_565 S
C557 C552 1.425 1_565 S
C557 C554 1.409 . S
C557 C555 1.415 . S
C558 H548 0.930 . S
C558 C556 1.419 1_545 S
C558 C559 1.362 . S
C559 H549 0.930 . S
C559 C552 1.409 . S
C559 C558 1.362 . S
C183 C27 1.438 . S
C188 C9 1.442 . S
C199 C51 1.442 . S
C204 C72 1.435 . S
C215 C115 1.439 . S
C220 C97 1.423 . S
C231 C139 1.439 . S
C236 C160 1.423 . S
C247 C8 1.582 . S
C252 C140 1.582 . S
C263 C26 1.602 . S
C268 C158 1.602 . S
C279 C96 1.583 . S
C284 C52 1.583 . S
C295 C70 1.610 . S
C300 C114 1.610 . S
C311 C50 0.919 . S
C316 C5 0.919 . S
C327 C73 0.871 . S
C332 C31 0.871 . S
C343 C93 0.899 . S
C348 C138 0.899 . S
C359 C119 0.982 . S
C364 C161 0.982 . S
C375 C4 1.835 . S
C380 C30 1.837 . S
C391 C74 1.829 . S
C396 C48 1.840 . S
C407 C118 1.820 . S
C412 C92 1.826 . S
C423 C162 1.825 . S
C428 C136 1.821 . S
C439 C7 1.264 1_556 S
C444 C75 1.354 . S
C455 C28 1.318 . S
C460 C49 1.378 . S
C471 C29 1.381 . S
C476 C53 1.316 1_554 S
C487 C6 1.336 . S
C492 C71 1.204 . S
C503 C95 1.320 1_556 S
C508 C163 1.379 . S
C519 C137 1.336 . S
C524 C116 1.204 . S
C535 C117 1.357 . S
C540 C141 1.243 1_554 S
C551 C159 1.203 . S
C556 C94 1.336 . S
