# Generated by pormake.
# Topology sml, (6)-cn, num edge types: 1
# Building blocks:
#     Node 0, Type 0, BuildingBlock: KUMBUR_clean_sbu_1, # of connection points: 6
#     Node 1, Type 0, BuildingBlock: KUMBUR_clean_sbu_1, # of connection points: 6
#     Node 2, Type 0, BuildingBlock: KUMBUR_clean_sbu_1, # of connection points: 6
#     Node 3, Type 0, BuildingBlock: KUMBUR_clean_sbu_1, # of connection points: 6
#     Node 4, Type 0, BuildingBlock: KUMBUR_clean_sbu_1, # of connection points: 6
#     Node 5, Type 0, BuildingBlock: KUMBUR_clean_sbu_1, # of connection points: 6
#     Edge 6, Type (0, 0), BuildingBlock: TEMPAE_clean_linker_10, # of connection points: 2
#     Edge 7, Type (0, 0), BuildingBlock: TEMPAE_clean_linker_10, # of connection points: 2
#     Edge 8, Type (0, 0), BuildingBlock: TEMPAE_clean_linker_10, # of connection points: 2
#     Edge 9, Type (0, 0), BuildingBlock: TEMPAE_clean_linker_10, # of connection points: 2
#     Edge 10, Type (0, 0), BuildingBlock: TEMPAE_clean_linker_10, # of connection points: 2
#     Edge 11, Type (0, 0), BuildingBlock: TEMPAE_clean_linker_10, # of connection points: 2
#     Edge 12, Type (0, 0), BuildingBlock: TEMPAE_clean_linker_10, # of connection points: 2
#     Edge 13, Type (0, 0), BuildingBlock: TEMPAE_clean_linker_10, # of connection points: 2
#     Edge 14, Type (0, 0), BuildingBlock: TEMPAE_clean_linker_10, # of connection points: 2
#     Edge 15, Type (0, 0), BuildingBlock: TEMPAE_clean_linker_10, # of connection points: 2
#     Edge 16, Type (0, 0), BuildingBlock: TEMPAE_clean_linker_10, # of connection points: 2
#     Edge 17, Type (0, 0), BuildingBlock: TEMPAE_clean_linker_10, # of connection points: 2
#     Edge 18, Type (0, 0), BuildingBlock: TEMPAE_clean_linker_10, # of connection points: 2
#     Edge 19, Type (0, 0), BuildingBlock: TEMPAE_clean_linker_10, # of connection points: 2
#     Edge 20, Type (0, 0), BuildingBlock: TEMPAE_clean_linker_10, # of connection points: 2
#     Edge 21, Type (0, 0), BuildingBlock: TEMPAE_clean_linker_10, # of connection points: 2
#     Edge 22, Type (0, 0), BuildingBlock: TEMPAE_clean_linker_10, # of connection points: 2
#     Edge 23, Type (0, 0), BuildingBlock: TEMPAE_clean_linker_10, # of connection points: 2
# Relax obj value: 0.063
# Max RMSD: 0.175
# Mean RMSD: 0.175
data_MOF--net-sml--node1-KUMBUR_clean_sbu_1--edge1-TEMPAE_clean_linker_10
_symmetry_space_group_name_H-M    P1
_symmetry_Int_Tables_number       1
_symmetry_cell_setting            triclinic
loop_
_symmetry_equiv_pos_as_xyz
'x, y, z'
_cell_length_a     33.53415
_cell_length_b     33.50205
_cell_length_c     24.323498
_cell_angle_alpha  89.939075
_cell_angle_beta   90.070211
_cell_angle_gamma 120.04577
loop_
_atom_site_label
_atom_site_type_symbol
_atom_site_fract_x
_atom_site_fract_y
_atom_site_fract_z
_atom_type_partial_charge
Tb0 Tb 0.16137 0.42758 0.93543 0.0
C1 C 0.32368 0.41113 0.0553 0.0
N2 N 0.27838 0.37847 0.05277 0.0
C3 C 0.29844 0.32001 0.03759 0.0
C4 C 0.35838 0.3996 0.04821 0.0
C5 C 0.26529 0.3332 0.04516 0.0
C6 C 0.3452 0.35339 0.03871 0.0
C7 C 0.38166 0.49108 0.07086 0.0
C8 C 0.3352 0.45618 0.06643 0.0
C9 C 0.41651 0.48002 0.06284 0.0
C10 C 0.4049 0.43438 0.05146 0.0
Tb11 Tb 0.22755 0.40438 0.06246 0.0
N12 N 0.30047 0.46567 0.0725 0.0
C13 C 0.39156 0.53588 0.08358 0.0
C14 C 0.3098 0.5088 0.08738 0.0
C15 C 0.35545 0.54464 0.09245 0.0
H16 H 0.22919 0.30724 0.04562 0.0
H17 H 0.36276 0.57899 0.10327 0.0
H18 H 0.12326 0.49621 0.97777 0.0
H19 H 0.07183 0.24823 0.87065 0.0
H20 H 0.28227 0.51586 0.09477 0.0
H21 H 0.42685 0.56374 0.08742 0.0
H22 H 0.13888 0.3253 0.88089 0.0
H23 H 0.2879 0.2841 0.03114 0.0
H24 H 0.4525 0.5064 0.06577 0.0
H25 H 0.43212 0.42628 0.04585 0.0
H26 H 0.04815 0.48998 0.99786 0.0
H27 H 0.37081 0.34307 0.03301 0.0
H28 H 0.99435 0.23377 0.89622 0.0
N29 N 0.09397 0.42617 0.95327 0.0
C30 C 0.05478 0.38519 0.94512 0.0
C31 C 0.04954 0.46022 0.98315 0.0
C32 C 0.0112 0.37986 0.95688 0.0
C33 C 0.09204 0.4636 0.97193 0.0
C34 C 0.00893 0.41815 0.97569 0.0
N35 N 0.10173 0.35417 0.91894 0.0
C36 C 0.10627 0.31952 0.89571 0.0
C37 C 0.01905 0.30426 0.92151 0.0
C38 C 0.05884 0.34782 0.92825 0.0
C39 C 0.02408 0.26776 0.90214 0.0
C40 C 0.06779 0.2757 0.88814 0.0
H41 H 0.9761 0.41546 0.98519 0.0
H42 H 0.93791 0.33123 0.96122 0.0
H43 H 0.94489 0.26511 0.93048 0.0
O44 O 0.16738 0.42432 0.84833 0.0
O45 O 0.12451 0.39653 0.01248 0.0
O46 O 0.15709 0.35405 0.03911 0.0
O47 O 0.15518 0.4758 0.88649 0.0
O48 O 0.20299 0.39496 0.91884 0.0
O49 O 0.19524 0.35305 0.99716 0.0
O50 O 0.2089 0.41458 0.14175 0.0
O51 O 0.27083 0.44851 0.9946 0.0
O52 O 0.23199 0.48155 0.95276 0.0
O53 O 0.22911 0.36397 0.12806 0.0
O54 O 0.2012 0.45159 0.07701 0.0
O55 O 0.19106 0.48367 0.99624 0.0
C56 C 0.12373 0.36357 0.04253 0.0
C57 C 0.1614 0.47984 0.7868 0.0
C58 C 0.17151 0.48511 0.6863 0.0
C59 C 0.16521 0.52366 0.68677 0.0
C60 C 0.15446 0.51785 0.78515 0.0
C61 C 0.15646 0.53953 0.73559 0.0
C62 C 0.16985 0.46341 0.73704 0.0
C63 C 0.20796 0.36344 0.94548 0.0
C64 C 0.16159 0.45956 0.84109 0.0
C65 C 0.97164 0.33627 0.95141 0.0
C66 C 0.9756 0.29857 0.93397 0.0
C67 C 0.26913 0.47857 0.96113 0.0
C68 C 0.25028 0.40394 0.21338 0.0
C69 C 0.26327 0.42778 0.31021 0.0
C70 C 0.31022 0.44235 0.30351 0.0
C71 C 0.29729 0.41829 0.20833 0.0
C72 C 0.23325 0.40832 0.2648 0.0
C73 C 0.32695 0.43738 0.25305 0.0
C74 C 0.19516 0.48254 0.05039 0.0
C75 C 0.21944 0.38601 0.16486 0.0
H76 H 0.16771 0.54226 0.6493 0.0
H77 H 0.14804 0.5314 0.82243 0.0
H78 H 0.15166 0.56916 0.73507 0.0
H79 H 0.17495 0.43394 0.73784 0.0
H80 H 0.33397 0.45714 0.33766 0.0
H81 H 0.31125 0.41484 0.16983 0.0
H82 H 0.19706 0.39749 0.26916 0.0
H83 H 0.36314 0.44844 0.24854 0.0
Tb84 Tb 0.84417 0.26771 0.44154 0.0
C85 C 0.66448 0.11339 0.31453 0.0
N86 N 0.70524 0.11484 0.32286 0.0
C87 C 0.66524 0.03388 0.34306 0.0
C88 C 0.62221 0.07204 0.32112 0.0
C89 C 0.70624 0.07573 0.33593 0.0
C90 C 0.623 0.03206 0.33604 0.0
C91 C 0.62375 0.15374 0.29047 0.0
C92 C 0.66529 0.15377 0.29982 0.0
C93 C 0.58148 0.11267 0.29713 0.0
C94 C 0.58071 0.07195 0.31255 0.0
Tb95 Tb 0.76984 0.18505 0.31128 0.0
N96 N 0.70688 0.19324 0.29583 0.0
C97 C 0.626 0.19505 0.27506 0.0
C98 C 0.70917 0.23312 0.27851 0.0
C99 C 0.66891 0.23478 0.26858 0.0
H100 H 0.73869 0.07656 0.3391 0.0
H101 H 0.67105 0.26667 0.25537 0.0
H102 H 0.87921 0.37644 0.40812 0.0
H103 H 0.93682 0.17625 0.47935 0.0
H104 H 0.74163 0.26361 0.2709 0.0
H105 H 0.59493 0.19653 0.26746 0.0
H106 H 0.86801 0.1837 0.47248 0.0
H107 H 0.66629 1.00299 0.35327 0.0
H108 H 0.54921 0.11204 0.29048 0.0
H109 H 0.54786 0.04054 0.31752 0.0
H110 H 0.95328 0.44751 0.39067 0.0
H111 H 0.59129 0.99957 0.34152 0.0
H112 H 0.01399 0.24408 0.46389 0.0
N113 N 0.91007 0.33583 0.42604 0.0
C114 C 0.94988 0.33495 0.43242 0.0
C115 C 0.95279 0.41603 0.40212 0.0
C116 C 0.99291 0.37466 0.42264 0.0
C117 C 0.91086 0.3756 0.41142 0.0
C118 C 0.99402 0.41556 0.40762 0.0
N119 N 0.90472 0.2547 0.44991 0.0
C120 C 0.90087 0.21343 0.46391 0.0
C121 C 0.98764 0.2903 0.44854 0.0
C122 C 0.94716 0.29308 0.4448 0.0
C123 C 0.98368 0.24763 0.46054 0.0
C124 C 0.94015 0.20919 0.46885 0.0
H125 H 0.02644 0.44681 0.39976 0.0
H126 H 0.06639 0.40171 0.41752 0.0
H127 H 0.06189 0.32808 0.44075 0.0
O128 O 0.83662 0.25137 0.52631 0.0
O129 O 0.88117 0.27021 0.36585 0.0
O130 O 0.83826 0.19709 0.33278 0.0
O131 O 0.85795 0.31997 0.49875 0.0
O132 O 0.80086 0.19318 0.45622 0.0
O133 O 0.79763 0.15783 0.37332 0.0
O134 O 0.78444 0.20543 0.22704 0.0
O135 O 0.72971 0.18506 0.3831 0.0
O136 O 0.77509 0.25586 0.4246 0.0
O137 O 0.76339 0.13561 0.25399 0.0
O138 O 0.80969 0.26008 0.29984 0.0
O139 O 0.81529 0.29682 0.38323 0.0
C140 C 0.87545 0.23784 0.33107 0.0
C141 C 0.81785 0.2972 0.58356 0.0
C142 C 0.79497 0.29091 0.68007 0.0
C143 C 0.76961 0.31266 0.66759 0.0
C144 C 0.79147 0.31814 0.57172 0.0
C145 C 0.76768 0.3259 0.61361 0.0
C146 C 0.81903 0.28318 0.6379 0.0
C147 C 0.78933 0.15601 0.42655 0.0
C148 C 0.84689 0.29278 0.54097 0.0
C149 C 0.0332 0.37185 0.42617 0.0
C150 C 0.03059 0.32986 0.43915 0.0
C151 C 0.73677 0.21597 0.42102 0.0
C152 C 0.77884 0.14974 0.15644 0.0
C153 C 0.79024 0.16358 0.05704 0.0
C154 C 0.7874 0.12044 0.05117 0.0
C155 C 0.77634 0.10696 0.14889 0.0
C156 C 0.78573 0.17809 0.11017 0.0
C157 C 0.78057 0.09253 0.09669 0.0
C158 C 0.81817 0.29678 0.32894 0.0
C159 C 0.77559 0.16423 0.21307 0.0
H160 H 0.75088 0.31888 0.69953 0.0
H161 H 0.7897 0.32905 0.5303 0.0
H162 H 0.74783 0.34245 0.60426 0.0
H163 H 0.83927 0.26703 0.64759 0.0
H164 H 0.78975 0.10781 1.01102 0.0
H165 H 0.77137 0.08455 0.18349 0.0
H166 H 0.78805 0.2113 0.11547 0.0
H167 H 0.77843 0.05942 0.09146 0.0
Tb168 Tb 0.57326 0.73644 0.60718 0.0
C169 C 0.57602 0.90154 0.74585 0.0
N170 N 0.61246 0.8958 0.73436 0.0
C171 C 0.6594 0.97667 0.71574 0.0
C172 C 0.57965 0.94521 0.74183 0.0
C173 C 0.65402 0.93262 0.72018 0.0
C174 C 0.62198 0.98299 0.72629 0.0
C175 C 0.49571 0.86738 0.77195 0.0
C176 C 0.5346 0.86311 0.76049 0.0
C177 C 0.49913 0.91086 0.76825 0.0
C178 C 0.54097 0.94965 0.75314 0.0
Tb179 Tb 0.59942 0.82232 0.74112 0.0
N180 N 0.53217 0.82128 0.76144 0.0
C181 C 0.45453 0.82778 0.78646 0.0
C182 C 0.49247 0.78287 0.77743 0.0
C183 C 0.45306 0.78544 0.78965 0.0
H184 H 0.68335 0.92814 0.71371 0.0
H185 H 0.42159 0.75474 0.80181 0.0
H186 H 0.50225 0.62893 0.6457 0.0
H187 H 0.74853 0.82114 0.52905 0.0
H188 H 0.49078 0.75021 0.78159 0.0
H189 H 0.42386 0.82957 0.7957 0.0
H190 H 0.67636 0.8169 0.55533 0.0
H191 H 0.69249 0.00573 0.70466 0.0
H192 H 0.46958 0.91481 0.77677 0.0
H193 H 0.54303 0.98292 0.75023 0.0
H194 H 0.50369 0.55618 0.65323 0.0
H195 H 0.62622 0.01715 0.7227 0.0
H196 H 0.75657 0.75183 0.53445 0.0
N197 N 0.57059 0.6674 0.6151 0.0
C198 C 0.609 0.66666 0.59919 0.0
C199 C 0.53359 0.58704 0.63809 0.0
C200 C 0.61123 0.62581 0.60224 0.0
C201 C 0.53302 0.62841 0.63428 0.0
C202 C 0.57286 0.58569 0.62198 0.0
N203 N 0.6437 0.74665 0.58148 0.0
C204 C 0.67929 0.78674 0.56105 0.0
C205 C 0.6875 0.70829 0.5656 0.0
C206 C 0.64679 0.70759 0.58183 0.0
C207 C 0.72472 0.74987 0.5474 0.0
C208 C 0.7204 0.78911 0.54465 0.0
H209 H 0.57325 0.55361 0.62505 0.0
H210 H 0.65388 0.59526 0.5878 0.0
H211 H 0.72058 0.66748 0.55499 0.0
O212 O 0.57097 0.75135 0.5224 0.0
O213 O 0.61254 0.72969 0.6752 0.0
O214 O 0.6481 0.8031 0.70797 0.0
O215 O 0.52058 0.68569 0.55825 0.0
O216 O 0.60799 0.81154 0.59336 0.0
O217 O 0.64905 0.84523 0.67302 0.0
O218 O 0.59581 0.80163 0.8248 0.0
O219 O 0.55693 0.82685 0.67457 0.0
O220 O 0.52382 0.75354 0.64212 0.0
O221 O 0.65008 0.8684 0.79566 0.0
O222 O 0.56047 0.74735 0.75558 0.0
O223 O 0.5227 0.7096 0.67483 0.0
C224 C 0.6417 0.76118 0.70922 0.0
C225 C 0.51049 0.69501 0.46101 0.0
C226 C 0.50854 0.69876 0.36033 0.0
C227 C 0.46297 0.66166 0.36115 0.0
C228 C 0.46497 0.65796 0.46031 0.0
C229 C 0.44142 0.64162 0.41075 0.0
C230 C 0.53205 0.71579 0.41077 0.0
C231 C 0.6385 0.84792 0.62132 0.0
C232 C 0.53466 0.71113 0.51442 0.0
C233 C 0.65169 0.62641 0.58611 0.0
C234 C 0.68967 0.66752 0.56765 0.0
C235 C 0.5281 0.79446 0.64111 0.0
C236 C 0.65382 0.85277 0.89255 0.0
C237 C 0.65254 0.83938 0.99208 0.0
C238 C 0.69714 0.87799 0.9958 0.0
C239 C 0.69838 0.89097 0.89797 0.0
C240 C 0.63089 0.8269 0.9399 0.0
C241 C 0.71977 0.90337 0.94916 0.0
C242 C 0.52963 0.71038 0.72869 0.0
C243 C 0.63257 0.84049 0.8371 0.0
H244 H 0.44379 0.64832 0.32328 0.0
H245 H 0.4474 0.64162 0.49821 0.0
H246 H 0.40628 0.61317 0.41078 0.0
H247 H 0.56726 0.74419 0.4108 0.0
H248 H 0.71443 0.88919 0.03512 0.0
H249 H 0.71698 0.91131 0.86247 0.0
H250 H 0.59664 0.79717 0.93614 0.0
H251 H 0.75406 0.93299 0.95277 0.0
Tb252 Tb 0.74768 0.57448 0.09928 0.0
C253 C 0.89071 0.53942 0.98335 0.0
N254 N 0.89518 0.58162 0.99156 0.0
C255 C 0.9724 0.61077 0.02404 0.0
C256 C 0.92667 0.5309 0.99671 0.0
C257 C 0.93557 0.61743 1.01065 0.0
C258 C 0.96784 0.56725 0.01748 0.0
C259 C 0.84305 0.46013 0.95411 0.0
C260 C 0.84909 0.5044 0.96332 0.0
C261 C 0.87864 0.45124 0.96773 0.0
C262 C 0.92031 0.48652 0.98911 0.0
Tb263 Tb 0.83251 0.58852 0.97055 0.0
N264 N 0.81506 0.51413 0.95165 0.0
C265 C 0.8019 0.42646 0.93023 0.0
C266 C 0.77694 0.48261 0.92341 0.0
C267 C 0.76914 0.43809 0.91377 0.0
H268 H 0.93957 0.65129 0.01482 0.0
H269 H 0.73833 0.41311 0.8924 0.0
H270 H 0.64261 0.48677 0.07681 0.0
H271 H 0.81287 0.75613 0.13438 0.0
H272 H 0.75325 0.49177 0.90582 0.0
H273 H 0.79595 0.39207 0.92227 0.0
H274 H 0.81868 0.68604 0.1262 0.0
H275 H 1.00434 0.63925 0.03912 0.0
H276 H 0.87448 0.41736 0.96126 0.0
H277 H 0.9475 0.47922 0.99924 0.0
H278 H 0.56443 0.47534 0.06378 0.0
H279 H 0.99638 0.56218 0.02815 0.0
H280 H 0.73748 0.75172 0.12295 0.0
N281 N 0.67366 0.55893 0.09018 0.0
C282 C 0.66722 0.5957 0.09508 0.0
C283 C 0.59308 0.5094 0.07242 0.0
C284 C 0.62328 0.59083 0.08819 0.0
C285 C 0.63743 0.51603 0.07931 0.0
C286 C 0.58597 0.54698 0.07674 0.0
N287 N 0.7474 0.64212 0.10912 0.0
C288 C 0.78562 0.68343 0.12077 0.0
C289 C 0.70034 0.67791 0.10972 0.0
C290 C 0.70524 0.63865 0.1057 0.0
C291 C 0.73967 0.72065 0.11975 0.0
C292 C 0.78238 0.72331 0.12587 0.0
H293 H 0.55162 0.54178 0.0711 0.0
H294 H 0.58477 0.62693 0.08636 0.0
H295 H 0.65229 0.7032 0.10466 0.0
O296 O 0.77417 0.58238 0.17963 0.0
O297 O 0.74577 0.61341 0.0276 0.0
O298 O 0.81675 0.64376 0.98577 0.0
O299 O 0.70299 0.53413 0.16292 0.0
O300 O 0.8225 0.6145 0.11211 0.0
O301 O 0.85992 0.64603 0.02936 0.0
O302 O 0.82375 0.58645 0.88367 0.0
O303 O 0.83682 0.55616 0.0478 0.0
O304 O 0.76191 0.52048 0.07471 0.0
O305 O 0.88908 0.63418 0.92206 0.0
O306 O 0.75762 0.55538 0.95571 0.0
O307 O 0.72311 0.51939 0.03766 0.0
C308 C 0.77591 0.63998 0.99043 0.0
C309 C 0.7213 0.57055 0.25045 0.0
C310 C 0.73092 0.58906 0.34881 0.0
C311 C 0.69971 0.60532 0.34384 0.0
C312 C 0.69005 0.58678 0.24683 0.0
C313 C 0.67933 0.60395 0.29328 0.0
C314 C 0.74136 0.57135 0.30179 0.0
C315 C 0.85951 0.64259 0.0835 0.0
C316 C 0.73418 0.55397 0.20092 0.0
C317 C 0.61819 0.62989 0.09206 0.0
C318 C 0.65664 0.67332 0.10267 0.0
C319 C 0.80311 0.52573 0.07839 0.0
C320 C 0.8871 0.63797 0.82214 0.0
C321 C 0.8828 0.63968 0.72123 0.0
C322 C 0.928 0.67772 0.72089 0.0
C323 C 0.93233 0.67541 0.81988 0.0
C324 C 0.86244 0.62001 0.77257 0.0
C325 C 0.95249 0.69505 0.76965 0.0
C326 C 0.72139 0.52521 0.98414 0.0
C327 C 0.86615 0.61907 0.87656 0.0
H328 H 0.69081 0.61883 0.37928 0.0
H329 H 0.67391 0.58629 0.20819 0.0
H330 H 0.65524 0.61642 0.29003 0.0
H331 H 0.76579 0.5592 0.30485 0.0
H332 H 0.94446 0.69489 0.68289 0.0
H333 H 0.95213 0.68998 0.8571 0.0
H334 H 0.82775 0.59076 0.77404 0.0
H335 H 0.9872 0.72425 0.76853 0.0
Tb336 Tb 0.27353 0.84206 0.27685 0.0
C337 C 0.12377 0.66012 0.39308 0.0
N338 N 0.12226 0.69964 0.38652 0.0
C339 C 0.04322 0.65586 0.35834 0.0
C340 C 0.08511 0.61675 0.38135 0.0
C341 C 0.08256 0.69809 0.37017 0.0
C342 C 0.04454 0.61501 0.3636 0.0
C343 C 0.16806 0.62341 0.41681 0.0
C344 C 0.16486 0.66353 0.41004 0.0
C345 C 0.12964 0.58004 0.4052 0.0
C346 C 0.0883 0.57673 0.38741 0.0
Tb347 Tb 0.18884 0.76669 0.40507 0.0
N348 N 0.20177 0.70629 0.41918 0.0
C349 C 0.20967 0.62808 0.43542 0.0
C350 C 0.24141 0.71061 0.44056 0.0
C351 C 0.24626 0.67184 0.44807 0.0
H352 H 0.08092 0.72937 0.36735 0.0
H353 H 0.27806 0.67571 0.46438 0.0
H354 H 0.38228 0.87554 0.30647 0.0
H355 H 0.18739 0.93783 0.22687 0.0
H356 H 0.269 0.74338 0.45368 0.0
H357 H 0.21354 0.59813 0.44135 0.0
H358 H 0.19286 0.86805 0.23803 0.0
H359 H 0.01182 0.65483 0.34556 0.0
H360 H 0.13151 0.54885 0.40997 0.0
H361 H 0.05899 0.54306 0.37855 0.0
H362 H 0.45427 0.94901 0.32347 0.0
H363 H 0.01404 0.58237 0.3542 0.0
H364 H 0.25564 0.01463 0.24325 0.0
N365 N 0.34275 0.9076 0.28925 0.0
C366 C 0.34278 0.94791 0.28299 0.0
C367 C 0.42308 0.94917 0.31239 0.0
C368 C 0.38295 0.99065 0.29252 0.0
C369 C 0.38217 0.90758 0.30323 0.0
C370 C 0.42343 0.9909 0.30732 0.0
N371 N 0.26315 0.90396 0.26332 0.0
C372 C 0.22276 0.90081 0.24673 0.0
C373 C 0.30017 0.98711 0.26291 0.0
C374 C 0.30182 0.94608 0.26865 0.0
C375 C 0.25834 0.98393 0.24826 0.0
C376 C 0.21966 0.94061 0.23943 0.0
H377 H 0.45506 0.02304 0.3149 0.0
H378 H 0.41152 0.06468 0.29593 0.0
H379 H 0.33902 0.0616 0.27044 0.0
O380 O 0.25229 0.82392 0.19466 0.0
O381 O 0.27312 0.88054 0.34974 0.0
O382 O 0.20098 0.83569 0.38627 0.0
O383 O 0.32322 0.85186 0.21719 0.0
O384 O 0.1988 0.80056 0.26249 0.0
O385 O 0.16157 0.79577 0.34468 0.0
O386 O 0.20237 0.7757 0.49145 0.0
O387 O 0.18918 0.73004 0.33015 0.0
O388 O 0.26324 0.77483 0.30069 0.0
O389 O 0.13506 0.75644 0.45756 0.0
O390 O 0.26349 0.80916 0.4205 0.0
O391 O 0.30275 0.8158 0.33883 0.0
C392 C 0.24118 0.87364 0.38585 0.0
C393 C 0.30737 0.86992 0.12803 0.0
C394 C 0.29977 0.88038 0.02948 0.0
C395 C 0.3293 0.9281 0.0361 0.0
C396 C 0.33702 0.91769 0.13326 0.0
C397 C 0.34788 0.94648 0.08755 0.0
C398 C 0.28915 0.85135 0.07581 0.0
C399 C 0.16139 0.79033 0.29091 0.0
C400 C 0.29401 0.83931 0.17671 0.0
C401 C 0.38119 0.03154 0.28799 0.0
C402 C 0.33991 0.02977 0.27326 0.0
C403 C 0.22335 0.73682 0.29787 0.0
C404 C 0.1413 0.76502 0.55683 0.0
C405 C 0.1489 0.77458 0.65731 0.0
C406 C 0.10363 0.76706 0.65918 0.0
C407 C 0.09599 0.75677 0.56083 0.0
C408 C 0.16779 0.77391 0.60538 0.0
C409 C 0.07747 0.7579 0.61153 0.0
C410 C 0.30138 0.81888 0.39312 0.0
C411 C 0.16026 0.76589 0.5014 0.0
H412 H 0.33831 0.95122 1.00127 0.0
H413 H 0.35178 0.93288 0.17259 0.0
H414 H 0.3707 0.98326 0.09205 0.0
H415 H 0.26593 0.81456 0.07151 0.0
H416 H 0.08833 0.76889 0.69758 0.0
H417 H 0.0748 0.75 0.52452 0.0
H418 H 0.20264 0.77998 0.60272 0.0
H419 H 0.04271 0.75208 0.61387 0.0
Tb420 Tb 0.42033 0.15725 0.77719 0.0
C421 C 0.39147 0.30945 0.65305 0.0
N422 N 0.37307 0.26429 0.64061 0.0
C423 C 0.29902 0.25783 0.62822 0.0
C424 C 0.36416 0.33042 0.65641 0.0
C425 C 0.3278 0.23871 0.62578 0.0
C426 C 0.31705 0.30361 0.64501 0.0
C427 C 0.46044 0.3835 0.66356 0.0
C428 C 0.43845 0.33537 0.65638 0.0
C429 C 0.43352 0.40441 0.67167 0.0
C430 C 0.3853 0.37783 0.66803 0.0
Tb431 Tb 0.42149 0.23458 0.64413 0.0
N432 N 0.46258 0.31376 0.64643 0.0
C433 C 0.5085 0.40915 0.6594 0.0
C434 C 0.50903 0.33902 0.63718 0.0
C435 C 0.53282 0.38688 0.64496 0.0
H436 H 0.31343 0.20294 0.61451 0.0
H437 H 0.56982 0.40652 0.63969 0.0
H438 H 0.45513 0.08535 0.74194 0.0
H439 H 0.2585 0.1179 0.87478 0.0
H440 H 0.52793 0.32189 0.62608 0.0
H441 H 0.52687 0.44624 0.66478 0.0
H442 H 0.34229 0.16333 0.86046 0.0
H443 H 0.26286 0.23705 0.61804 0.0
H444 H 0.44964 0.44127 0.67817 0.0
H445 H 0.36493 0.39458 0.6718 0.0
H446 H 0.41963 0.00442 0.7096 0.0
H447 H 0.29473 0.3183 0.64708 0.0
H448 H 0.21284 0.04124 0.83108 0.0
N449 N 0.39084 0.08101 0.75802 0.0
C450 C 0.34464 0.05367 0.76071 0.0
C451 C 0.3981 0.01786 0.72389 0.0
C452 C 0.32271 0.0076 0.74267 0.0
C453 C 0.41809 0.06348 0.74233 0.0
C454 C 0.35009 0.99016 0.72267 0.0
N455 N 0.34386 0.11568 0.8034 0.0
C456 C 0.32278 0.13092 0.83903 0.0
C457 C 0.27222 0.04385 0.79243 0.0
C458 C 0.32 0.07185 0.78408 0.0
C459 C 0.24955 0.06156 0.82353 0.0
C460 C 0.27521 0.10483 0.8482 0.0
H461 H 0.33465 0.95531 0.70708 0.0
H462 H 0.25677 0.94526 0.7317 0.0
H463 H 0.21242 0.97667 0.77676 0.0
O464 O 0.42072 0.13324 0.8576 0.0
O465 O 0.40521 0.13226 0.69259 0.0
O466 O 0.36469 0.16447 0.65886 0.0
O467 O 0.48318 0.17048 0.81152 0.0
O468 O 0.39318 0.20432 0.787 0.0
O469 O 0.36314 0.20403 0.702 0.0
O470 O 0.42959 0.19557 0.58139 0.0
O471 O 0.47705 0.26811 0.70601 0.0
O472 O 0.45105 0.23185 0.79103 0.0
O473 O 0.42225 0.25355 0.56121 0.0
O474 O 0.48486 0.23391 0.66483 0.0
O475 O 0.46787 0.16582 0.70929 0.0
C476 C 0.37114 0.12913 0.66307 0.0
C477 C 0.48959 0.18199 0.90833 0.0
C478 C 0.4923 0.20066 1.00676 0.0
C479 C 0.53905 0.23428 1.0004 0.0
C480 C 0.53633 0.21601 0.90392 0.0
C481 C 0.5607 0.24171 0.94956 0.0
C482 C 0.46774 0.17426 0.96025 0.0
C483 C 0.36683 0.21309 0.75492 0.0
C484 C 0.46539 0.15335 0.85928 0.0
C485 C 0.27454 0.98053 0.74639 0.0
C486 C 0.24929 0.99853 0.77171 0.0
C487 C 0.47739 0.26811 0.76026 0.0
C488 C 0.39279 0.19229 0.49712 0.0
C489 C 0.37684 0.16819 0.40021 0.0
C490 C 0.32963 0.14243 0.41321 0.0
C491 C 0.34556 0.1665 0.50831 0.0
C492 C 0.40845 0.19293 0.44297 0.0
C493 C 0.31427 0.1418 0.46666 0.0
C494 C 0.49159 0.19887 0.67306 0.0
C495 C 0.42542 0.21916 0.54167 0.0
H496 H 0.55941 0.25437 0.03515 0.0
H497 H 0.55448 0.22247 0.86519 0.0
H498 H 0.59683 0.26729 0.94561 0.0
H499 H 0.43184 0.14797 0.96438 0.0
H500 H 0.3044 0.12229 0.38207 0.0
H501 H 0.33289 0.16559 0.54934 0.0
H502 H 0.44492 0.21346 0.43402 0.0
H503 H 0.27784 0.12208 0.47582 0.0
C504 C 0.29934 0.22636 0.7596 0.0
C505 C 0.34133 0.23375 0.78079 0.0
C506 C 0.27589 0.24675 0.78422 0.0
C507 C 0.29442 0.27426 0.83196 0.0
C508 C 0.33634 0.28091 0.85417 0.0
C509 C 0.35896 0.26028 0.82863 0.0
C510 C 0.23143 0.23901 0.75907 0.0
C511 C 0.35709 0.30916 0.90552 0.0
C512 C 0.26018 0.36255 0.87303 0.0
C513 C 0.22831 0.3395 0.91529 0.0
C514 C 0.28115 0.34137 0.84475 0.0
C515 C 0.27008 0.29599 0.8591 0.0
C516 C 0.23727 0.27223 0.90107 0.0
C517 C 0.21637 0.2941 0.92819 0.0
C518 C 0.31594 0.36794 0.80033 0.0
C519 C 0.22495 0.22406 0.91811 0.0
H520 H 0.28433 0.2039 0.72449 0.0
H521 H 0.39066 0.26496 0.84636 0.0
H522 H 0.20334 0.22384 0.78994 0.0
H523 H 0.23529 0.27254 0.74613 0.0
H524 H 0.22103 0.21585 0.72275 0.0
H525 H 0.3925 0.3157 0.91353 0.0
H526 H 0.3583 0.3428 0.90262 0.0
H527 H 0.33517 0.29041 0.94126 0.0
H528 H 0.26945 0.39765 0.86271 0.0
H529 H 0.19083 0.27573 0.95975 0.0
H530 H 0.30555 0.34816 0.7613 0.0
H531 H 0.35008 0.37273 0.81198 0.0
H532 H 0.31974 0.40242 0.79293 0.0
H533 H 0.21273 0.2007 0.88202 0.0
H534 H 0.19783 0.20982 0.9503 0.0
H535 H 0.256 0.22424 0.93423 0.0
C536 C 0.04911 0.34811 0.08426 0.0
C537 C 0.0849 0.33794 0.0815 0.0
C538 C 0.01271 0.32565 0.12164 0.0
C539 C 0.01275 0.29329 0.15902 0.0
C540 C 0.04839 0.28229 0.15619 0.0
C541 C 0.08385 0.30446 0.11714 0.0
C542 C 0.97524 0.33819 0.12263 0.0
C543 C 0.05012 0.2486 0.19597 0.0
C544 C 0.95462 0.28901 0.29407 0.0
C545 C 0.91157 0.2488 0.28889 0.0
C546 C 0.98845 0.30242 0.25337 0.0
C547 C 0.97876 0.27569 0.20501 0.0
C548 C 0.93562 0.23456 0.19955 0.0
C549 C 0.90275 0.22126 0.24197 0.0
C550 C 0.03407 0.34626 0.26143 0.0
C551 C 0.92343 0.2057 0.14804 0.0
H552 H 0.04994 0.37459 0.05812 0.0
H553 H 0.11141 0.29647 0.11566 0.0
H554 H 0.94077 0.30662 0.12301 0.0
H555 H 0.97827 0.35776 0.16067 0.0
H556 H 0.97718 0.35962 0.08671 0.0
H557 H 0.07756 0.24057 0.18533 0.0
H558 H 0.05673 0.26329 0.23808 0.0
H559 H 0.01651 0.21601 0.19684 0.0
H560 H 0.96192 0.31075 0.32966 0.0
H561 H 0.86963 0.19016 0.23745 0.0
H562 H 0.03776 0.37237 0.23068 0.0
H563 H 0.06295 0.33956 0.25497 0.0
H564 H 0.03744 0.36115 0.30311 0.0
H565 H 0.92038 0.22528 0.11304 0.0
H566 H 0.89036 0.17269 0.15215 0.0
H567 H 0.95111 0.19802 0.13768 0.0
C568 C 0.77704 0.07599 0.43681 0.0
C569 C 0.76987 0.11135 0.45596 0.0
C570 C 0.75656 0.03285 0.46318 0.0
C571 C 0.72897 0.02516 0.51046 0.0
C572 C 0.72252 0.06118 0.53068 0.0
C573 C 0.74314 0.10382 0.50327 0.0
C574 C 0.76396 0.99528 0.44 0.0
C575 C 0.69376 0.05471 0.5812 0.0
C576 C 0.64023 0.90198 0.5495 0.0
C577 C 0.66268 0.89272 0.59206 0.0
C578 C 0.66134 0.94485 0.52266 0.0
C579 C 0.7063 0.97928 0.53834 0.0
C580 C 0.72942 0.96984 0.58077 0.0
C581 C 0.70748 0.92652 0.60678 0.0
C582 C 0.63544 0.95322 0.47749 0.0
C583 C 0.77716 0.0057 0.59909 0.0
H584 H 0.79841 0.08197 0.40089 0.0
H585 H 0.73758 0.1311 0.51837 0.0
H586 H 0.7792 0.98315 0.4718 0.0
H587 H 0.73036 0.96529 0.42796 0.0
H588 H 0.78694 0.00698 0.4035 0.0
H589 H 0.68898 0.08474 0.58891 0.0
H590 H 0.65936 0.02332 0.57716 0.0
H591 H 0.71082 0.04984 0.61757 0.0
H592 H 0.60566 0.87587 0.53771 0.0
H593 H 0.72533 0.91914 0.63885 0.0
H594 H 0.65325 0.95718 0.43778 0.0
H595 H 0.63498 0.98563 0.48512 0.0
H596 H 0.59933 0.92448 0.47357 0.0
H597 H 0.8013 0.01665 0.56379 0.0
H598 H 0.79058 0.99283 0.63231 0.0
H599 H 0.77675 0.03672 0.61423 0.0
C600 C 0.69433 0.77924 0.79062 0.0
C601 C 0.66776 0.74885 0.74855 0.0
C602 C 0.71609 0.76619 0.8305 0.0
C603 C 0.71153 0.72181 0.82795 0.0
C604 C 0.68599 0.6916 0.78449 0.0
C605 C 0.66432 0.70539 0.74559 0.0
C606 C 0.7425 0.79929 0.87643 0.0
C607 C 0.68023 0.644 0.78 0.0
C608 C 0.79033 0.69059 0.90745 0.0
C609 C 0.76213 0.6655 0.95184 0.0
C610 C 0.77504 0.71055 0.86769 0.0
C611 C 0.73058 0.70543 0.87249 0.0
C612 C 0.7027 0.68158 0.91822 0.0
C613 C 0.71866 0.66178 0.95695 0.0
C614 C 0.80583 0.73577 0.81957 0.0
C615 C 0.6551 0.67527 0.9252 0.0
H616 H 0.69729 0.8129 0.79326 0.0
H617 H 0.64401 0.68161 0.71327 0.0
H618 H 0.72304 0.78641 0.91544 0.0
H619 H 0.77643 0.80166 0.88236 0.0
H620 H 0.7481 0.8344 0.86852 0.0
H621 H 0.66182 0.62589 0.74184 0.0
H622 H 0.71434 0.64619 0.78061 0.0
H623 H 0.6605 0.62285 0.81587 0.0
H624 H 0.82384 0.69352 0.90275 0.0
H625 H 0.69617 0.64213 0.99041 0.0
H626 H 0.80965 0.7705 0.81542 0.0
H627 H 0.7899 0.7167 0.78102 0.0
H628 H 0.84058 0.73961 0.82375 0.0
H629 H 0.6566 0.70907 0.92303 0.0
H630 H 0.63904 0.65854 0.9649 0.0
H631 H 0.63247 0.65366 0.89125 0.0
C632 C 0.08317 0.78143 0.27609 0.0
C633 C 0.11755 0.77174 0.26008 0.0
C634 C 0.04128 0.7629 0.24706 0.0
C635 C 0.03343 0.73351 0.20144 0.0
C636 C 0.06816 0.72364 0.18531 0.0
C637 C 0.10991 0.74327 0.21442 0.0
C638 C 0.00528 0.77446 0.26543 0.0
C639 C 0.061 0.69175 0.13782 0.0
C640 C 0.90978 0.64752 0.16167 0.0
C641 C 0.90344 0.66773 0.11437 0.0
C642 C 0.95179 0.66849 0.19021 0.0
C643 C 0.98826 0.71148 0.17192 0.0
C644 C 0.98184 0.73256 0.12471 0.0
C645 C 0.93958 0.71023 0.09618 0.0
C646 C 0.95721 0.64424 0.23959 0.0
C647 C 0.01975 0.77848 0.10408 0.0
H648 H 0.08912 0.80362 0.31122 0.0
H649 H 0.13629 0.73535 0.20221 0.0
H650 H 0.9951 0.78879 0.23049 0.0
H651 H 0.97393 0.74265 0.27915 0.0
H652 H 0.01761 0.79975 0.2997 0.0
H653 H 0.09051 0.68582 0.13223 0.0
H654 H 0.02933 0.65794 0.14438 0.0
H655 H 0.0562 0.70662 0.09932 0.0
H656 H 0.88218 0.61438 0.17565 0.0
H657 H 0.93481 0.72594 0.05965 0.0
H658 H 0.96196 0.66502 0.27703 0.0
H659 H 0.98829 0.64082 0.23505 0.0
H660 H 0.92685 0.60933 0.2458 0.0
H661 H 0.03145 0.80445 0.13752 0.0
H662 H 0.00861 0.79135 0.0685 0.0
H663 H 0.04985 0.77535 0.09144 0.0
C664 C 0.36583 0.06201 0.6126 0.0
C665 C 0.34629 0.08922 0.6259 0.0
C666 C 0.34332 0.02405 0.57745 0.0
C667 C 0.30102 0.01408 0.55307 0.0
C668 C 0.28093 0.04131 0.56636 0.0
C669 C 0.30351 0.07821 0.6034 0.0
C670 C 0.36571 0.9956 0.56498 0.0
C671 C 0.23659 0.03255 0.53978 0.0
C672 C 0.28385 0.95598 0.41498 0.0
C673 C 0.25153 0.91005 0.42702 0.0
C674 C 0.29814 0.99055 0.45477 0.0
C675 C 0.28096 0.97866 0.50905 0.0
C676 C 0.24769 0.93238 0.5216 0.0
C677 C 0.2327 0.89873 0.48003 0.0
C678 C 0.33381 0.03914 0.43857 0.0
C679 C 0.23024 0.91781 0.57954 0.0
H680 H 0.39934 0.07086 0.62885 0.0
H681 H 0.28811 0.09894 0.61395 0.0
H682 H 0.34028 0.95829 0.56904 0.0
H683 H 0.37833 1.00186 0.52194 0.0
H684 H 0.39531 0.00414 0.59264 0.0
H685 H 0.22608 0.05758 0.5534 0.0
H686 H 0.2406 0.03474 0.49438 0.0
H687 H 0.20853 0.99721 0.54968 0.0
H688 H 0.29887 0.96511 0.37459 0.0
H689 H 0.20812 0.8632 0.48982 0.0
H690 H 0.36853 0.04277 0.44084 0.0
H691 H 0.33346 0.06551 0.46564 0.0
H692 H 0.32843 0.04645 0.39547 0.0
H693 H 0.25869 0.92079 0.60584 0.0
H694 H 0.20127 0.88165 0.58149 0.0
H695 H 0.21873 0.94083 0.59731 0.0
C696 C 0.21346 0.455 0.62812 0.0
C697 C 0.18066 0.46924 0.63258 0.0
C698 C 0.22564 0.44515 0.57645 0.0
C699 C 0.20496 0.45009 0.52792 0.0
C700 C 0.17078 0.46292 0.5324 0.0
C701 C 0.15876 0.47174 0.5844 0.0
C702 C 0.26186 0.43107 0.57361 0.0
C703 C 0.14836 0.46979 0.48219 0.0
C704 C 0.2694 0.47635 0.39161 0.0
C705 C 0.24663 0.43353 0.3648 0.0
C706 C 0.25644 0.48207 0.44469 0.0
C707 C 0.22018 0.44387 0.47225 0.0
C708 C 0.197 0.40051 0.44531 0.0
C709 C 0.21028 0.39593 0.39177 0.0
C710 C 0.28141 0.52915 0.4711 0.0
C711 C 0.15861 0.3588 0.47339 0.0
H712 H 0.23091 0.4532 0.66475 0.0
H713 H 0.1326 0.48162 0.58707 0.0
H714 H 0.24889 0.39882 0.54949 0.0
H715 H 0.2928 0.45817 0.55212 0.0
H716 H 0.27232 0.42561 0.61503 0.0
H717 H 0.11498 0.46752 0.49231 0.0
H718 H 0.17156 0.50454 0.46485 0.0
H719 H 0.14248 0.44416 0.44982 0.0
H720 H 0.29742 0.50556 0.37081 0.0
H721 H 0.19303 0.36264 0.37153 0.0
H722 H 0.29569 0.52713 0.51151 0.0
H723 H 0.25686 0.54161 0.47871 0.0
H724 H 0.31001 0.5549 0.44513 0.0
H725 H 0.17311 0.34796 0.50748 0.0
H726 H 0.14017 0.32927 0.44474 0.0
H727 H 0.13347 0.36728 0.4917 0.0
C728 C 0.7685 0.21107 0.99689 0.0
C729 C 0.79652 0.19174 1.00675 0.0
C730 C 0.7692 0.23111 0.94564 0.0
C731 C 0.79859 0.2318 0.9033 0.0
C732 C 0.82851 0.21435 0.91403 0.0
C733 C 0.8274 0.19497 0.96562 0.0
C734 C 0.73687 0.24948 0.93588 0.0
C735 C 0.86035 0.21437 0.87014 0.0
C736 C 0.76717 0.23008 0.75244 0.0
C737 C 0.79586 0.27612 0.73717 0.0
C738 C 0.7667 0.21558 0.80681 0.0
C739 C 0.79617 0.24785 0.84665 0.0
C740 C 0.82497 0.2946 0.83127 0.0
C741 C 0.82426 0.30822 0.77668 0.0
C742 C 0.73501 0.16557 0.82146 0.0
C743 C 0.85746 0.32998 0.87197 0.0
H744 H 0.7444 0.20853 0.02826 0.0
H745 H 0.84984 0.18093 0.97325 0.0
H746 H 0.75613 0.28523 0.91972 0.0
H747 H 0.71095 0.2281 0.90438 0.0
H748 H 0.7185 0.24934 0.97393 0.0
H749 H 0.88108 0.19897 0.88475 0.0
H750 H 0.84014 0.19455 0.83381 0.0
H751 H 0.88402 0.2502 0.85621 0.0
H752 H 0.74491 0.20549 0.72179 0.0
H753 H 0.84627 0.3439 0.76462 0.0
H754 H 0.71284 0.16292 0.85672 0.0
H755 H 0.7556 0.1496 0.83435 0.0
H756 H 0.71259 0.14544 0.78652 0.0
H757 H 0.87272 0.36571 0.85585 0.0
H758 H 0.88584 0.3231 0.88137 0.0
H759 H 0.83953 0.32761 0.91118 0.0
C760 C 0.52672 0.68948 0.26275 0.0
C761 C 0.5309 0.71872 0.30644 0.0
C762 C 0.54529 0.70716 0.21067 0.0
C763 C 0.56843 0.75539 0.20162 0.0
C764 C 0.57303 0.78517 0.24565 0.0
C765 C 0.55446 0.76651 0.2976 0.0
C766 C 0.54015 0.67419 0.16529 0.0
C767 C 0.5972 0.83676 0.23773 0.0
C768 C 0.65437 0.8056 0.08378 0.0
C769 C 0.62919 0.81368 0.04339 0.0
C770 C 0.63499 0.78663 0.13516 0.0
C771 C 0.58894 0.77465 0.14654 0.0
C772 C 0.56273 0.78115 0.10536 0.0
C773 C 0.58314 0.80058 0.05432 0.0
C774 C 0.66418 0.78031 0.17777 0.0
C775 C 0.51349 0.76877 0.11579 0.0
H776 H 0.50896 0.65252 0.26943 0.0
H777 H 0.55738 0.78924 0.33098 0.0
H778 H 0.52024 0.67724 0.1307 0.0
H779 H 0.57454 0.68322 0.14907 0.0
H780 H 0.52246 0.63774 0.17936 0.0
H781 H 0.59754 0.85517 0.27585 0.0
H782 H 0.63328 0.84977 0.22447 0.0
H783 H 0.57992 0.8454 0.20471 0.0
H784 H 0.6897 0.81478 0.07546 0.0
H785 H 0.56352 0.80702 0.0237 0.0
H786 H 0.64756 0.74358 0.19032 0.0
H787 H 0.66711 0.80056 0.21513 0.0
H788 H 0.69942 0.79141 0.16256 0.0
H789 H 0.49266 0.73196 0.12779 0.0
H790 H 0.49738 0.77483 0.07919 0.0
H791 H 0.5122 0.78954 0.15052 0.0
C792 C 0.81007 0.60713 0.66389 0.0
C793 C 0.85735 0.62233 0.66788 0.0
C794 C 0.78748 0.59623 0.61258 0.0
C795 C 0.81277 0.60128 0.56384 0.0
C796 C 0.85987 0.61442 0.56783 0.0
C797 C 0.88129 0.62405 0.61963 0.0
C798 C 0.7368 0.58066 0.61034 0.0
C799 C 0.88836 0.62056 0.51712 0.0
C800 C 0.75229 0.5532 0.42617 0.0
C801 C 0.75297 0.5919 0.40301 0.0
C802 C 0.77088 0.55532 0.47885 0.0
C803 C 0.79143 0.5974 0.50855 0.0
C804 C 0.79268 0.63668 0.48483 0.0
C805 C 0.77321 0.63335 0.43269 0.0
C806 C 0.76793 0.51243 0.50303 0.0
C807 C 0.81512 0.68252 0.51428 0.0
H808 H 0.79098 0.60551 0.70052 0.0
H809 H 0.91739 0.63412 0.62205 0.0
H810 H 0.71746 0.5448 0.59462 0.0
H811 H 0.72272 0.58188 0.65123 0.0
H812 H 0.73068 0.60253 0.58134 0.0
H813 H 0.92377 0.62812 0.52733 0.0
H814 H 0.87156 0.58913 0.49123 0.0
H815 H 0.8909 0.64945 0.49206 0.0
H816 H 0.73621 0.52096 0.40361 0.0
H817 H 0.77416 0.66345 0.41475 0.0
H818 H 0.74744 0.50298 0.5415 0.0
H819 H 0.8028 0.51894 0.514 0.0
H820 H 0.75175 0.48269 0.47432 0.0
H821 H 0.80065 0.67851 0.55623 0.0
H822 H 0.81051 0.70889 0.49196 0.0
H823 H 0.85256 0.69543 0.51884 0.0
C824 C 0.15251 0.76198 0.75882 0.0
C825 C 0.17551 0.78397 0.70997 0.0
C826 C 0.17442 0.7751 0.81022 0.0
C827 C 0.22124 0.81004 0.81323 0.0
C828 C 0.24582 0.82985 0.7639 0.0
C829 C 0.22259 0.81708 0.71293 0.0
C830 C 0.14663 0.75313 0.86155 0.0
C831 C 0.29621 0.86598 0.76525 0.0
C832 C 0.2591 0.88234 0.94392 0.0
C833 C 0.27949 0.86168 0.97438 0.0
C834 C 0.24058 0.86615 0.8914 0.0
C835 C 0.24291 0.82861 0.86812 0.0
C836 C 0.26395 0.80787 0.89842 0.0
C837 C 0.28157 0.82435 0.95143 0.0
C838 C 0.21759 0.8887 0.86134 0.0
C839 C 0.26801 0.76842 0.87478 0.0
H840 H 0.11662 0.73518 0.75718 0.0
H841 H 0.24093 0.83442 0.67579 0.0
H842 H 0.16415 0.73939 0.88766 0.0
H843 H 0.14383 0.77954 0.88606 0.0
H844 H 0.11132 0.72463 0.85212 0.0
H845 H 0.31167 0.87412 0.72349 0.0
H846 H 0.3004 0.89798 0.78415 0.0
H847 H 0.31561 0.85419 0.7911 0.0
H848 H 0.25701 0.91092 0.96165 0.0
H849 H 0.29778 0.80861 0.97455 0.0
H850 H 0.18021 0.86371 0.85713 0.0
H851 H 0.23185 0.89874 0.8193 0.0
H852 H 0.22191 0.91983 0.88295 0.0
H853 H 0.23324 0.73852 0.86692 0.0
H854 H 0.28689 0.75726 0.90259 0.0
H855 H 0.2862 0.77869 0.8347 0.0
C856 C 0.36593 0.17252 0.29824 0.0
C857 C 0.39208 0.16981 0.34184 0.0
C858 C 0.37915 0.1739 0.24308 0.0
C859 C 0.41991 0.17297 0.23055 0.0
C860 C 0.44614 0.16946 0.2742 0.0
C861 C 0.43198 0.16797 0.32918 0.0
C862 C 0.34992 0.17741 0.19817 0.0
C863 C 0.48958 0.16792 0.26287 0.0
C864 C 0.44107 0.1485 0.0826 0.0
C865 C 0.4706 0.1931 0.06249 0.0
C866 C 0.42392 0.14127 0.13682 0.0
C867 C 0.43687 0.17949 0.17227 0.0
C868 C 0.4658 0.2246 0.1517 0.0
C869 C 0.48193 0.23082 0.09727 0.0
C870 C 0.39275 0.09261 0.15634 0.0
C871 C 0.48022 0.26649 0.18745 0.0
H872 H 0.33534 0.17452 0.30723 0.0
H873 H 0.45203 0.16504 0.36228 0.0
H874 H 0.36973 0.21093 0.17657 0.0
H875 H 0.34077 0.14983 0.16724 0.0
H876 H 0.31765 0.17463 0.21435 0.0
H877 H 0.5052 0.16344 0.30101 0.0
H878 H 0.48208 0.13912 0.23443 0.0
H879 H 0.51523 0.20033 0.24238 0.0
H880 H 0.43237 0.11906 0.05648 0.0
H881 H 0.50388 0.26553 0.08198 0.0
H882 H 0.36121 0.08946 0.17518 0.0
H883 H 0.4109 0.08396 0.18814 0.0
H884 H 0.3824 0.06705 0.12251 0.0
H885 H 0.44937 0.2674 0.20208 0.0
H886 H 0.50301 0.29922 0.16542 0.0
H887 H 0.49871 0.26456 0.22433 0.0
C888 C 0.19591 0.55784 0.06017 0.0
C889 C 0.19522 0.51945 0.08438 0.0
C890 C 0.19769 0.5934 0.09272 0.0
C891 C 0.19949 0.5908 0.15075 0.0
C892 C 0.19808 0.55188 0.1754 0.0
C893 C 0.19569 0.51669 0.14205 0.0
C894 C 0.19855 0.63417 0.06503 0.0
C895 C 0.20029 0.54788 0.23712 0.0
C896 C 0.25544 0.70072 0.23541 0.0
C897 C 0.21709 0.70009 0.25923 0.0
C898 C 0.25009 0.66574 0.1993 0.0
C899 C 0.20526 0.62967 0.18596 0.0
C900 C 0.16634 0.62945 0.20888 0.0
C901 C 0.17274 0.66447 0.24563 0.0
C902 C 0.29249 0.6668 0.1765 0.0
C903 C 0.11797 0.59195 0.19515 0.0
H904 H 0.19577 0.56054 0.01579 0.0
H905 H 0.19482 0.4872 0.16155 0.0
H906 H 0.17123 0.63992 0.08233 0.0
H907 H 0.23205 0.6658 0.07305 0.0
H908 H 0.19353 0.62945 0.01985 0.0
H909 H 0.19778 0.51484 0.24986 0.0
H910 H 0.2332 0.57671 0.25294 0.0
H911 H 0.17197 0.55056 0.25702 0.0
H912 H 0.2898 0.72814 0.24578 0.0
H913 H 0.14292 0.66408 0.26344 0.0
H914 H 0.29126 0.66599 0.13092 0.0
H915 H 0.29352 0.63575 0.19032 0.0
H916 H 0.32483 0.69791 0.18974 0.0
H917 H 0.11318 0.58851 0.14991 0.0
H918 H 0.09147 0.59876 0.21302 0.0
H919 H 0.11212 0.5584 0.21108 0.0
C920 C 0.65572 0.19646 0.43923 0.0
C921 C 0.69904 0.20693 0.45905 0.0
C922 C 0.62056 0.1905 0.4755 0.0
C923 C 0.629 0.19462 0.53294 0.0
C924 C 0.67209 0.20279 0.55309 0.0
C925 C 0.70678 0.20934 0.5158 0.0
C926 C 0.5751 0.18166 0.45219 0.0
C927 C 0.68186 0.20566 0.61398 0.0
C928 C 0.5636 0.23836 0.61726 0.0
C929 C 0.52862 0.19775 0.64113 0.0
C930 C 0.59676 0.23771 0.58284 0.0
C931 C 0.59478 0.19531 0.57141 0.0
C932 C 0.56011 0.15423 0.59624 0.0
C933 C 0.52747 0.15595 0.63101 0.0
C934 C 0.63348 0.28241 0.55784 0.0
C935 C 0.5566 0.1083 0.58479 0.0
H936 H 0.64994 0.1948 0.39537 0.0
H937 H 0.74004 0.21629 0.53097 0.0
H938 H 0.54613 0.15172 0.47299 0.0
H939 H 0.571 0.21206 0.45983 0.0
H940 H 0.57249 0.17496 0.40722 0.0
H941 H 0.71642 0.21033 0.62289 0.0
H942 H 0.6796 0.23483 0.63212 0.0
H943 H 0.65559 0.17381 0.63478 0.0
H944 H 0.56493 0.27084 0.62516 0.0
H945 H 0.50018 0.12435 0.64878 0.0
H946 H 0.62949 0.28097 0.51247 0.0
H947 H 0.66814 0.28748 0.56692 0.0
H948 H 0.63188 0.31275 0.57335 0.0
H949 H 0.54694 0.09876 0.54114 0.0
H950 H 0.53048 0.08037 0.6112 0.0
H951 H 0.59038 0.11047 0.59131 0.0
C952 C 0.31842 0.55508 0.91714 0.0
C953 C 0.3116 0.51172 0.93213 0.0
C954 C 0.35668 0.58567 0.88574 0.0
C955 C 0.38829 0.5721 0.86772 0.0
C956 C 0.382 0.5286 0.88356 0.0
C957 C 0.34396 0.49911 0.91627 0.0
C958 C 0.36277 0.63222 0.87096 0.0
C959 C 0.41437 0.51248 0.86427 0.0
C960 C 0.45386 0.63706 0.74026 0.0
C961 C 0.49564 0.67126 0.76279 0.0
C962 C 0.4197 0.60272 0.77357 0.0
C963 C 0.42698 0.60327 0.83101 0.0
C964 C 0.46966 0.63664 0.85376 0.0
C965 C 0.50359 0.66992 0.81934 0.0
C966 C 0.37495 0.56713 0.74758 0.0
C967 C 0.47859 0.63882 0.91488 0.0
H968 H 0.29365 0.56505 0.92983 0.0
H969 H 0.33853 0.46541 0.92754 0.0
H970 H 0.39765 0.66004 0.88306 0.0
H971 H 0.35973 0.6346 0.8258 0.0
H972 H 0.33679 0.63861 0.89118 0.0
H973 H 0.40609 0.47881 0.88267 0.0
H974 H 0.41231 0.50883 0.81885 0.0
H975 H 0.45046 0.53835 0.87469 0.0
H976 H 0.44699 0.63795 0.69689 0.0
H977 H 0.53585 0.69592 0.83725 0.0
H978 H 0.34692 0.5737 0.75995 0.0
H979 H 0.3654 0.53205 0.76213 0.0
H980 H 0.3769 0.56777 0.70196 0.0
H981 H 0.4559 0.64898 0.9365 0.0
H982 H 0.51495 0.66407 0.92542 0.0
H983 H 0.47022 0.60446 0.9308 0.0
C984 C 0.81949 0.37231 0.31986 0.0
C985 C 0.82687 0.33814 0.29704 0.0
C986 C 0.82214 0.40818 0.28708 0.0
C987 C 0.83152 0.40927 0.2301 0.0
C988 C 0.8415 0.37634 0.20762 0.0
C989 C 0.83942 0.34149 0.24142 0.0
C990 C 0.81234 0.44336 0.31277 0.0
C991 C 0.85117 0.37582 0.14702 0.0
C992 C 0.77397 0.45415 0.13388 0.0
C993 C 0.81111 0.49647 0.11701 0.0
C994 C 0.78031 0.42573 0.17084 0.0
C995 C 0.82475 0.44051 0.19262 0.0
C996 C 0.86236 0.48365 0.17643 0.0
C997 C 0.8552 0.51087 0.13805 0.0
C998 C 0.73948 0.37947 0.18588 0.0
C999 C 0.91001 0.50104 0.19965 0.0
H1000 H 0.80974 0.37001 0.36271 0.0
H1001 H 0.84596 0.31568 0.22352 0.0
H1002 H 0.83783 0.47863 0.29875 0.0
H1003 H 0.77778 0.43654 0.29967 0.0
H1004 H 0.81302 0.44232 0.35841 0.0
H1005 H 0.86305 0.35108 0.1372 0.0
H1006 H 0.81929 0.36592 0.12319 0.0
H1007 H 0.87767 0.41062 0.13289 0.0
H1008 H 0.73989 0.44279 0.11738 0.0
H1009 H 0.88393 0.54377 0.12528 0.0
H1010 H 0.73372 0.37739 0.23093 0.0
H1011 H 0.74644 0.35145 0.17452 0.0
H1012 H 0.70731 0.37305 0.16499 0.0
H1013 H 0.90877 0.50063 0.24524 0.0
H1014 H 0.93478 0.53663 0.1857 0.0
H1015 H 0.92314 0.47794 0.18695 0.0
C1016 C 0.34241 0.83409 0.48331 0.0
C1017 C 0.34153 0.82578 0.42659 0.0
C1018 C 0.37582 0.83364 0.51764 0.0
C1019 C 0.41014 0.82595 0.49463 0.0
C1020 C 0.41144 0.82075 0.43695 0.0
C1021 C 0.37675 0.82007 0.40369 0.0
C1022 C 0.37255 0.8385 0.57898 0.0
C1023 C 0.4482 0.81368 0.41062 0.0
C1024 C 0.51059 0.84797 0.58799 0.0
C1025 C 0.49793 0.80304 0.6045 0.0
C1026 C 0.48315 0.85602 0.5509 0.0
C1027 C 0.44131 0.81837 0.53151 0.0
C1028 C 0.42819 0.77301 0.54873 0.0
C1029 C 0.45697 0.76588 0.58433 0.0
C1030 C 0.49914 0.90467 0.53204 0.0
C1031 C 0.38344 0.73194 0.53001 0.0
H1032 H 0.31566 0.83899 0.50148 0.0
H1033 H 0.37627 0.81315 0.36014 0.0
H1034 H 0.36383 0.80549 0.59947 0.0
H1035 H 0.40615 0.86535 0.59572 0.0
H1036 H 0.34589 0.84755 0.58996 0.0
H1037 H 0.44887 0.8176 0.36521 0.0
H1038 H 0.48267 0.83862 0.42731 0.0
H1039 H 0.4417 0.77853 0.42018 0.0
H1040 H 0.5425 0.87675 0.60307 0.0
H1041 H 0.44699 0.73107 0.59701 0.0
H1042 H 0.47419 0.91531 0.54523 0.0
H1043 H 0.50066 0.90636 0.48647 0.0
H1044 H 0.53367 0.92975 0.54865 0.0
H1045 H 0.35408 0.73681 0.54122 0.0
H1046 H 0.37769 0.69912 0.54845 0.0
H1047 H 0.38326 0.72875 0.48462 0.0
C1048 C 0.67222 0.50193 0.89982 0.0
C1049 C 0.68066 0.49116 0.95276 0.0
C1050 C 0.6372 0.46829 0.86675 0.0
C1051 C 0.61016 0.42284 0.88713 0.0
C1052 C 0.61728 0.41233 0.9414 0.0
C1053 C 0.65246 0.44663 0.97357 0.0
C1054 C 0.63042 0.48095 0.80927 0.0
C1055 C 0.58906 0.36429 0.9646 0.0
C1056 C 0.49776 0.3362 0.81889 0.0
C1057 C 0.51168 0.3099 0.78853 0.0
C1058 C 0.5297 0.37411 0.84995 0.0
C1059 C 0.57645 0.38545 0.85074 0.0
C1060 C 0.59073 0.3595 0.81868 0.0
C1061 C 0.55804 0.32205 0.78762 0.0
C1062 C 0.51323 0.40123 0.88293 0.0
C1063 C 0.64015 0.37019 0.81882 0.0
H1064 H 0.69381 0.53643 0.8837 0.0
H1065 H 0.65914 0.43794 0.01418 0.0
H1066 H 0.64084 0.46319 0.77891 0.0
H1067 H 0.59353 0.46925 0.80181 0.0
H1068 H 0.65098 0.51869 0.80168 0.0
H1069 H 0.59829 0.36187 1.00787 0.0
H1070 H 0.55185 0.35305 0.9627 0.0
H1071 H 0.5944 0.33989 0.93927 0.0
H1072 H 0.46187 0.32698 0.81851 0.0
H1073 H 0.56842 0.30132 0.76399 0.0
H1074 H 0.53442 0.43853 0.87339 0.0
H1075 H 0.51734 0.39701 0.92746 0.0
H1076 H 0.47647 0.38996 0.87475 0.0
H1077 H 0.66367 0.40707 0.80895 0.0
H1078 H 0.64615 0.34872 0.78889 0.0
H1079 H 0.64941 0.3639 0.86047 0.0
loop_
_geom_bond_atom_site_label_1
_geom_bond_atom_site_label_2
_geom_bond_distance
_geom_bond_site_symmetry_2
_ccdc_geom_bond_type
Tb0 N29 2.617 . S
Tb0 N35 2.572 . S
Tb0 O44 2.465 . S
Tb0 O45 2.387 1_556 S
Tb0 O47 2.428 . S
Tb0 O48 2.308 . S
Tb0 O52 2.349 . S
Tb0 O55 2.393 . S
Tb0 C64 2.802 . S
C1 N2 1.379 . S
C1 C4 1.416 . S
C1 C8 1.424 . S
N2 C1 1.379 . S
N2 C5 1.334 . S
N2 Tb11 2.617 . S
C3 C5 1.390 . S
C3 C6 1.339 . S
C3 H23 0.930 . S
C4 C1 1.416 . S
C4 C6 1.416 . S
C4 C10 1.448 . S
C5 N2 1.334 . S
C5 C3 1.390 . S
C5 H16 0.930 . S
C6 C3 1.339 . S
C6 C4 1.416 . S
C6 H27 0.930 . S
C7 C8 1.413 . S
C7 C9 1.427 . S
C7 C13 1.416 . S
C8 C1 1.424 . S
C8 C7 1.413 . S
C8 N12 1.361 . S
C9 C7 1.427 . S
C9 C10 1.328 . S
C9 H24 0.929 . S
C10 C4 1.448 . S
C10 C9 1.328 . S
C10 H25 0.930 . S
Tb11 N2 2.617 . S
Tb11 N12 2.572 . S
Tb11 O46 2.349 . S
Tb11 O49 2.393 . S
Tb11 O50 2.465 . S
Tb11 O51 2.387 1_554 S
Tb11 O53 2.428 . S
Tb11 O54 2.308 . S
Tb11 C75 2.802 . S
N12 C8 1.361 . S
N12 Tb11 2.572 . S
N12 C14 1.340 . S
C13 C7 1.416 . S
C13 C15 1.332 . S
C13 H21 0.931 . S
C14 N12 1.340 . S
C14 C15 1.407 . S
C14 H20 0.930 . S
C15 C13 1.332 . S
C15 C14 1.407 . S
C15 H17 0.929 . S
H16 C5 0.930 . S
H17 C15 0.929 . S
H18 C33 0.930 . S
H19 C40 0.929 . S
H20 C14 0.930 . S
H21 C13 0.931 . S
H22 C36 0.930 . S
H23 C3 0.930 . S
H24 C9 0.929 . S
H25 C10 0.930 . S
H26 C31 0.930 . S
H27 C6 0.930 . S
H28 C39 0.931 1_655 S
N29 Tb0 2.617 . S
N29 C30 1.379 . S
N29 C33 1.334 . S
C30 N29 1.379 . S
C30 C32 1.416 . S
C30 C38 1.424 . S
C31 H26 0.930 . S
C31 C33 1.390 . S
C31 C34 1.339 . S
C32 C30 1.416 . S
C32 C34 1.416 . S
C32 C65 1.448 1_455 S
C33 H18 0.930 . S
C33 N29 1.334 . S
C33 C31 1.390 . S
C34 C31 1.339 . S
C34 C32 1.416 . S
C34 H41 0.930 1_455 S
N35 Tb0 2.572 . S
N35 C36 1.340 . S
N35 C38 1.361 . S
C36 H22 0.930 . S
C36 N35 1.340 . S
C36 C40 1.407 . S
C37 C38 1.413 . S
C37 C39 1.416 . S
C37 C66 1.427 1_455 S
C38 C30 1.424 . S
C38 N35 1.361 . S
C38 C37 1.413 . S
C39 H28 0.931 1_455 S
C39 C37 1.416 . S
C39 C40 1.332 . S
C40 H19 0.929 . S
C40 C36 1.407 . S
C40 C39 1.332 . S
H41 C34 0.930 1_655 S
H42 C65 0.930 . S
H43 C66 0.929 . S
O44 Tb0 2.465 . S
O44 C64 1.264 . S
O45 Tb0 2.387 1_554 S
O45 C56 1.264 . S
O46 Tb11 2.349 . S
O46 C56 1.243 . S
O47 Tb0 2.428 . S
O47 C64 1.256 . S
O48 Tb0 2.308 . S
O48 C63 1.266 . S
O49 Tb11 2.393 . S
O49 C63 1.248 1_554 S
O50 Tb11 2.465 . S
O50 C75 1.264 . S
O51 Tb11 2.387 1_556 S
O51 C67 1.264 . S
O52 Tb0 2.349 . S
O52 C67 1.243 . S
O53 Tb11 2.428 . S
O53 C75 1.256 . S
O54 Tb11 2.308 . S
O54 C74 1.266 . S
O55 Tb0 2.393 . S
O55 C74 1.248 1_556 S
C56 O45 1.264 . S
C56 O46 1.243 . S
C57 C60 1.399 . S
C57 C62 1.383 . S
C57 C64 1.496 . S
C58 C59 1.399 . S
C58 C62 1.389 . S
C59 C58 1.399 . S
C59 C61 1.380 . S
C59 H76 0.929 . S
C60 C57 1.399 . S
C60 C61 1.392 . S
C60 H77 0.929 . S
C61 C59 1.380 . S
C61 C60 1.392 . S
C61 H78 0.929 . S
C62 C57 1.383 . S
C62 C58 1.389 . S
C62 H79 0.931 . S
C63 O48 1.266 . S
C63 O49 1.248 1_556 S
C64 Tb0 2.802 . S
C64 O44 1.264 . S
C64 O47 1.256 . S
C64 C57 1.496 . S
C65 C32 1.448 1_655 S
C65 H42 0.930 . S
C65 C66 1.328 . S
C66 C37 1.427 1_655 S
C66 H43 0.929 . S
C66 C65 1.328 . S
C67 O51 1.264 . S
C67 O52 1.243 . S
C68 C71 1.399 . S
C68 C72 1.383 . S
C68 C75 1.496 . S
C69 C70 1.399 . S
C69 C72 1.389 . S
C70 C69 1.399 . S
C70 C73 1.380 . S
C70 H80 0.929 . S
C71 C68 1.399 . S
C71 C73 1.392 . S
C71 H81 0.929 . S
C72 C68 1.383 . S
C72 C69 1.389 . S
C72 H82 0.931 . S
C73 C70 1.380 . S
C73 C71 1.392 . S
C73 H83 0.929 . S
C74 O54 1.266 . S
C74 O55 1.248 1_554 S
C75 Tb11 2.802 . S
C75 O50 1.264 . S
C75 O53 1.256 . S
C75 C68 1.496 . S
H76 C59 0.929 . S
H77 C60 0.929 . S
H78 C61 0.929 . S
H79 C62 0.931 . S
H80 C70 0.929 . S
H81 C71 0.929 . S
H82 C72 0.931 . S
H83 C73 0.929 . S
Tb84 N113 2.617 . S
Tb84 N119 2.572 . S
Tb84 O128 2.465 . S
Tb84 O129 2.387 . S
Tb84 O131 2.428 . S
Tb84 O132 2.308 . S
Tb84 O136 2.349 . S
Tb84 O139 2.393 . S
Tb84 C148 2.802 . S
C85 N86 1.379 . S
C85 C88 1.416 . S
C85 C92 1.424 . S
N86 C85 1.379 . S
N86 C89 1.334 . S
N86 Tb95 2.617 . S
C87 C89 1.390 . S
C87 C90 1.339 . S
C87 H107 0.930 1_545 S
C88 C85 1.416 . S
C88 C90 1.416 . S
C88 C94 1.448 . S
C89 N86 1.334 . S
C89 C87 1.390 . S
C89 H100 0.930 . S
C90 C87 1.339 . S
C90 C88 1.416 . S
C90 H111 0.930 1_545 S
C91 C92 1.413 . S
C91 C93 1.427 . S
C91 C97 1.416 . S
C92 C85 1.424 . S
C92 C91 1.413 . S
C92 N96 1.361 . S
C93 C91 1.427 . S
C93 C94 1.328 . S
C93 H108 0.929 . S
C94 C88 1.448 . S
C94 C93 1.328 . S
C94 H109 0.930 . S
Tb95 N86 2.617 . S
Tb95 N96 2.572 . S
Tb95 O130 2.349 . S
Tb95 O133 2.393 . S
Tb95 O134 2.465 . S
Tb95 O135 2.387 . S
Tb95 O137 2.428 . S
Tb95 O138 2.308 . S
Tb95 C159 2.802 . S
N96 C92 1.361 . S
N96 Tb95 2.572 . S
N96 C98 1.340 . S
C97 C91 1.416 . S
C97 C99 1.332 . S
C97 H105 0.931 . S
C98 N96 1.340 . S
C98 C99 1.407 . S
C98 H104 0.930 . S
C99 C97 1.332 . S
C99 C98 1.407 . S
C99 H101 0.929 . S
H100 C89 0.930 . S
H101 C99 0.929 . S
H102 C117 0.930 . S
H103 C124 0.929 . S
H104 C98 0.930 . S
H105 C97 0.931 . S
H106 C120 0.930 . S
H107 C87 0.930 1_565 S
H108 C93 0.929 . S
H109 C94 0.930 . S
H110 C115 0.930 . S
H111 C90 0.930 1_565 S
H112 C123 0.931 1_455 S
N113 Tb84 2.617 . S
N113 C114 1.379 . S
N113 C117 1.334 . S
C114 N113 1.379 . S
C114 C116 1.416 . S
C114 C122 1.424 . S
C115 H110 0.930 . S
C115 C117 1.390 . S
C115 C118 1.339 . S
C116 C114 1.416 . S
C116 C118 1.416 . S
C116 C149 1.448 1_655 S
C117 H102 0.930 . S
C117 N113 1.334 . S
C117 C115 1.390 . S
C118 C115 1.339 . S
C118 C116 1.416 . S
C118 H125 0.930 1_655 S
N119 Tb84 2.572 . S
N119 C120 1.340 . S
N119 C122 1.361 . S
C120 H106 0.930 . S
C120 N119 1.340 . S
C120 C124 1.407 . S
C121 C122 1.413 . S
C121 C123 1.416 . S
C121 C150 1.427 1_655 S
C122 C114 1.424 . S
C122 N119 1.361 . S
C122 C121 1.413 . S
C123 H112 0.931 1_655 S
C123 C121 1.416 . S
C123 C124 1.332 . S
C124 H103 0.929 . S
C124 C120 1.407 . S
C124 C123 1.332 . S
H125 C118 0.930 1_455 S
H126 C149 0.930 . S
H127 C150 0.929 . S
O128 Tb84 2.465 . S
O128 C148 1.264 . S
O129 Tb84 2.387 . S
O129 C140 1.264 . S
O130 Tb95 2.349 . S
O130 C140 1.243 . S
O131 Tb84 2.428 . S
O131 C148 1.256 . S
O132 Tb84 2.308 . S
O132 C147 1.266 . S
O133 Tb95 2.393 . S
O133 C147 1.248 . S
O134 Tb95 2.465 . S
O134 C159 1.264 . S
O135 Tb95 2.387 . S
O135 C151 1.264 . S
O136 Tb84 2.349 . S
O136 C151 1.243 . S
O137 Tb95 2.428 . S
O137 C159 1.256 . S
O138 Tb95 2.308 . S
O138 C158 1.266 . S
O139 Tb84 2.393 . S
O139 C158 1.248 . S
C140 O129 1.264 . S
C140 O130 1.243 . S
C141 C144 1.399 . S
C141 C146 1.383 . S
C141 C148 1.496 . S
C142 C143 1.399 . S
C142 C146 1.389 . S
C143 C142 1.399 . S
C143 C145 1.380 . S
C143 H160 0.929 . S
C144 C141 1.399 . S
C144 C145 1.392 . S
C144 H161 0.929 . S
C145 C143 1.380 . S
C145 C144 1.392 . S
C145 H162 0.929 . S
C146 C141 1.383 . S
C146 C142 1.389 . S
C146 H163 0.931 . S
C147 O132 1.266 . S
C147 O133 1.248 . S
C148 Tb84 2.802 . S
C148 O128 1.264 . S
C148 O131 1.256 . S
C148 C141 1.496 . S
C149 C116 1.448 1_455 S
C149 H126 0.930 . S
C149 C150 1.328 . S
C150 C121 1.427 1_455 S
C150 H127 0.929 . S
C150 C149 1.328 . S
C151 O135 1.264 . S
C151 O136 1.243 . S
C152 C155 1.399 . S
C152 C156 1.383 . S
C152 C159 1.496 . S
C153 C154 1.399 . S
C153 C156 1.389 . S
C154 C153 1.399 . S
C154 C157 1.380 . S
C154 H164 0.929 1_554 S
C155 C152 1.399 . S
C155 C157 1.392 . S
C155 H165 0.929 . S
C156 C152 1.383 . S
C156 C153 1.389 . S
C156 H166 0.931 . S
C157 C154 1.380 . S
C157 C155 1.392 . S
C157 H167 0.929 . S
C158 O138 1.266 . S
C158 O139 1.248 . S
C159 Tb95 2.802 . S
C159 O134 1.264 . S
C159 O137 1.256 . S
C159 C152 1.496 . S
H160 C143 0.929 . S
H161 C144 0.929 . S
H162 C145 0.929 . S
H163 C146 0.931 . S
H164 C154 0.929 1_556 S
H165 C155 0.929 . S
H166 C156 0.931 . S
H167 C157 0.929 . S
Tb168 N197 2.617 . S
Tb168 N203 2.572 . S
Tb168 O212 2.465 . S
Tb168 O213 2.387 . S
Tb168 O215 2.428 . S
Tb168 O216 2.308 . S
Tb168 O220 2.349 . S
Tb168 O223 2.393 . S
Tb168 C232 2.802 . S
C169 N170 1.379 . S
C169 C172 1.416 . S
C169 C176 1.424 . S
N170 C169 1.379 . S
N170 C173 1.334 . S
N170 Tb179 2.617 . S
C171 C173 1.390 . S
C171 C174 1.339 . S
C171 H191 0.930 1_565 S
C172 C169 1.416 . S
C172 C174 1.416 . S
C172 C178 1.448 . S
C173 N170 1.334 . S
C173 C171 1.390 . S
C173 H184 0.930 . S
C174 C171 1.339 . S
C174 C172 1.416 . S
C174 H195 0.930 1_565 S
C175 C176 1.413 . S
C175 C177 1.427 . S
C175 C181 1.416 . S
C176 C169 1.424 . S
C176 C175 1.413 . S
C176 N180 1.361 . S
C177 C175 1.427 . S
C177 C178 1.328 . S
C177 H192 0.929 . S
C178 C172 1.448 . S
C178 C177 1.328 . S
C178 H193 0.930 . S
Tb179 N170 2.617 . S
Tb179 N180 2.572 . S
Tb179 O214 2.349 . S
Tb179 O217 2.393 . S
Tb179 O218 2.465 . S
Tb179 O219 2.387 . S
Tb179 O221 2.428 . S
Tb179 O222 2.308 . S
Tb179 C243 2.802 . S
N180 C176 1.361 . S
N180 Tb179 2.572 . S
N180 C182 1.340 . S
C181 C175 1.416 . S
C181 C183 1.332 . S
C181 H189 0.931 . S
C182 N180 1.340 . S
C182 C183 1.407 . S
C182 H188 0.930 . S
C183 C181 1.332 . S
C183 C182 1.407 . S
C183 H185 0.929 . S
H184 C173 0.930 . S
H185 C183 0.929 . S
H186 C201 0.930 . S
H187 C208 0.929 . S
H188 C182 0.930 . S
H189 C181 0.931 . S
H190 C204 0.930 . S
H191 C171 0.930 1_545 S
H192 C177 0.929 . S
H193 C178 0.930 . S
H194 C199 0.930 . S
H195 C174 0.930 1_545 S
H196 C207 0.931 . S
N197 Tb168 2.617 . S
N197 C198 1.379 . S
N197 C201 1.334 . S
C198 N197 1.379 . S
C198 C200 1.416 . S
C198 C206 1.424 . S
C199 H194 0.930 . S
C199 C201 1.390 . S
C199 C202 1.339 . S
C200 C198 1.416 . S
C200 C202 1.416 . S
C200 C233 1.448 . S
C201 H186 0.930 . S
C201 N197 1.334 . S
C201 C199 1.390 . S
C202 C199 1.339 . S
C202 C200 1.416 . S
C202 H209 0.930 . S
N203 Tb168 2.572 . S
N203 C204 1.340 . S
N203 C206 1.361 . S
C204 H190 0.930 . S
C204 N203 1.340 . S
C204 C208 1.407 . S
C205 C206 1.413 . S
C205 C207 1.416 . S
C205 C234 1.427 . S
C206 C198 1.424 . S
C206 N203 1.361 . S
C206 C205 1.413 . S
C207 H196 0.931 . S
C207 C205 1.416 . S
C207 C208 1.332 . S
C208 H187 0.929 . S
C208 C204 1.407 . S
C208 C207 1.332 . S
H209 C202 0.930 . S
H210 C233 0.930 . S
H211 C234 0.929 . S
O212 Tb168 2.465 . S
O212 C232 1.264 . S
O213 Tb168 2.387 . S
O213 C224 1.264 . S
O214 Tb179 2.349 . S
O214 C224 1.243 . S
O215 Tb168 2.428 . S
O215 C232 1.256 . S
O216 Tb168 2.308 . S
O216 C231 1.266 . S
O217 Tb179 2.393 . S
O217 C231 1.248 . S
O218 Tb179 2.465 . S
O218 C243 1.264 . S
O219 Tb179 2.387 . S
O219 C235 1.264 . S
O220 Tb168 2.349 . S
O220 C235 1.243 . S
O221 Tb179 2.428 . S
O221 C243 1.256 . S
O222 Tb179 2.308 . S
O222 C242 1.266 . S
O223 Tb168 2.393 . S
O223 C242 1.248 . S
C224 O213 1.264 . S
C224 O214 1.243 . S
C225 C228 1.399 . S
C225 C230 1.383 . S
C225 C232 1.496 . S
C226 C227 1.399 . S
C226 C230 1.389 . S
C227 C226 1.399 . S
C227 C229 1.380 . S
C227 H244 0.929 . S
C228 C225 1.399 . S
C228 C229 1.392 . S
C228 H245 0.929 . S
C229 C227 1.380 . S
C229 C228 1.392 . S
C229 H246 0.929 . S
C230 C225 1.383 . S
C230 C226 1.389 . S
C230 H247 0.931 . S
C231 O216 1.266 . S
C231 O217 1.248 . S
C232 Tb168 2.802 . S
C232 O212 1.264 . S
C232 O215 1.256 . S
C232 C225 1.496 . S
C233 C200 1.448 . S
C233 H210 0.930 . S
C233 C234 1.328 . S
C234 C205 1.427 . S
C234 H211 0.929 . S
C234 C233 1.328 . S
C235 O219 1.264 . S
C235 O220 1.243 . S
C236 C239 1.399 . S
C236 C240 1.383 . S
C236 C243 1.496 . S
C237 C238 1.399 1_556 S
C237 C240 1.389 . S
C238 C237 1.399 1_554 S
C238 C241 1.380 1_554 S
C238 H248 0.929 . S
C239 C236 1.399 . S
C239 C241 1.392 . S
C239 H249 0.929 . S
C240 C236 1.383 . S
C240 C237 1.389 . S
C240 H250 0.931 . S
C241 C238 1.380 1_556 S
C241 C239 1.392 . S
C241 H251 0.929 . S
C242 O222 1.266 . S
C242 O223 1.248 . S
C243 Tb179 2.802 . S
C243 O218 1.264 . S
C243 O221 1.256 . S
C243 C236 1.496 . S
H244 C227 0.929 . S
H245 C228 0.929 . S
H246 C229 0.929 . S
H247 C230 0.931 . S
H248 C238 0.929 . S
H249 C239 0.929 . S
H250 C240 0.931 . S
H251 C241 0.929 . S
Tb252 N281 2.617 . S
Tb252 N287 2.572 . S
Tb252 O296 2.465 . S
Tb252 O297 2.389 . S
Tb252 O299 2.428 . S
Tb252 O300 2.308 . S
Tb252 O304 2.349 . S
Tb252 O307 2.393 . S
Tb252 C316 2.802 . S
C253 N254 1.379 . S
C253 C256 1.416 . S
C253 C260 1.424 . S
N254 C253 1.379 . S
N254 C257 1.334 . S
N254 Tb263 2.617 . S
C255 C257 1.390 . S
C255 C258 1.339 . S
C255 H275 0.930 1_655 S
C256 C253 1.416 . S
C256 C258 1.416 . S
C256 C262 1.448 . S
C257 N254 1.334 . S
C257 C255 1.390 . S
C257 H268 0.930 . S
C258 C255 1.339 . S
C258 C256 1.416 . S
C258 H279 0.930 1_655 S
C259 C260 1.413 . S
C259 C261 1.427 . S
C259 C265 1.416 . S
C260 C253 1.424 . S
C260 C259 1.413 . S
C260 N264 1.361 . S
C261 C259 1.427 . S
C261 C262 1.328 . S
C261 H276 0.929 . S
C262 C256 1.448 . S
C262 C261 1.328 . S
C262 H277 0.930 . S
Tb263 N254 2.617 . S
Tb263 N264 2.572 . S
Tb263 O298 2.349 . S
Tb263 O301 2.393 1_556 S
Tb263 O302 2.465 . S
Tb263 O303 2.387 1_556 S
Tb263 O305 2.428 . S
Tb263 O306 2.308 . S
Tb263 C327 2.802 . S
N264 C260 1.361 . S
N264 Tb263 2.572 . S
N264 C266 1.340 . S
C265 C259 1.416 . S
C265 C267 1.332 . S
C265 H273 0.931 . S
C266 N264 1.340 . S
C266 C267 1.407 . S
C266 H272 0.930 . S
C267 C265 1.332 . S
C267 C266 1.407 . S
C267 H269 0.929 . S
H268 C257 0.930 . S
H269 C267 0.929 . S
H270 C285 0.930 . S
H271 C292 0.929 . S
H272 C266 0.930 . S
H273 C265 0.931 . S
H274 C288 0.930 . S
H275 C255 0.930 1_455 S
H276 C261 0.929 . S
H277 C262 0.930 . S
H278 C283 0.930 . S
H279 C258 0.930 1_455 S
H280 C291 0.931 . S
N281 Tb252 2.617 . S
N281 C282 1.379 . S
N281 C285 1.334 . S
C282 N281 1.379 . S
C282 C284 1.416 . S
C282 C290 1.424 . S
C283 H278 0.930 . S
C283 C285 1.390 . S
C283 C286 1.339 . S
C284 C282 1.416 . S
C284 C286 1.416 . S
C284 C317 1.448 . S
C285 H270 0.930 . S
C285 N281 1.334 . S
C285 C283 1.390 . S
C286 C283 1.339 . S
C286 C284 1.416 . S
C286 H293 0.930 . S
N287 Tb252 2.572 . S
N287 C288 1.340 . S
N287 C290 1.361 . S
C288 H274 0.930 . S
C288 N287 1.340 . S
C288 C292 1.407 . S
C289 C290 1.413 . S
C289 C291 1.416 . S
C289 C318 1.427 . S
C290 C282 1.424 . S
C290 N287 1.361 . S
C290 C289 1.413 . S
C291 H280 0.931 . S
C291 C289 1.416 . S
C291 C292 1.332 . S
C292 H271 0.929 . S
C292 C288 1.407 . S
C292 C291 1.332 . S
H293 C286 0.930 . S
H294 C317 0.930 . S
H295 C318 0.929 . S
O296 Tb252 2.465 . S
O296 C316 1.264 . S
O297 Tb252 2.389 . S
O297 C308 1.261 1_554 S
O298 Tb263 2.349 . S
O298 C308 1.243 . S
O299 Tb252 2.428 . S
O299 C316 1.256 . S
O300 Tb252 2.308 . S
O300 C315 1.266 . S
O301 Tb263 2.393 1_554 S
O301 C315 1.248 . S
O302 Tb263 2.465 . S
O302 C327 1.264 . S
O303 Tb263 2.387 1_554 S
O303 C319 1.264 . S
O304 Tb252 2.349 . S
O304 C319 1.243 . S
O305 Tb263 2.428 . S
O305 C327 1.256 . S
O306 Tb263 2.308 . S
O306 C326 1.266 . S
O307 Tb252 2.393 . S
O307 C326 1.248 1_554 S
C308 O297 1.261 1_556 S
C308 O298 1.243 . S
C309 C312 1.399 . S
C309 C314 1.383 . S
C309 C316 1.496 . S
C310 C311 1.399 . S
C310 C314 1.389 . S
C311 C310 1.399 . S
C311 C313 1.380 . S
C311 H328 0.929 . S
C312 C309 1.399 . S
C312 C313 1.392 . S
C312 H329 0.929 . S
C313 C311 1.380 . S
C313 C312 1.392 . S
C313 H330 0.929 . S
C314 C309 1.383 . S
C314 C310 1.389 . S
C314 H331 0.931 . S
C315 O300 1.266 . S
C315 O301 1.248 . S
C316 Tb252 2.802 . S
C316 O296 1.264 . S
C316 O299 1.256 . S
C316 C309 1.496 . S
C317 C284 1.448 . S
C317 H294 0.930 . S
C317 C318 1.328 . S
C318 C289 1.427 . S
C318 H295 0.929 . S
C318 C317 1.328 . S
C319 O303 1.264 . S
C319 O304 1.243 . S
C320 C323 1.399 . S
C320 C324 1.383 . S
C320 C327 1.496 . S
C321 C322 1.399 . S
C321 C324 1.389 . S
C322 C321 1.399 . S
C322 C325 1.380 . S
C322 H332 0.929 . S
C323 C320 1.399 . S
C323 C325 1.392 . S
C323 H333 0.929 . S
C324 C320 1.383 . S
C324 C321 1.389 . S
C324 H334 0.931 . S
C325 C322 1.380 . S
C325 C323 1.392 . S
C325 H335 0.929 . S
C326 O306 1.266 . S
C326 O307 1.248 1_556 S
C327 Tb263 2.802 . S
C327 O302 1.264 . S
C327 O305 1.256 . S
C327 C320 1.496 . S
H328 C311 0.929 . S
H329 C312 0.929 . S
H330 C313 0.929 . S
H331 C314 0.931 . S
H332 C322 0.929 . S
H333 C323 0.929 . S
H334 C324 0.931 . S
H335 C325 0.929 . S
Tb336 N365 2.617 . S
Tb336 N371 2.572 . S
Tb336 O380 2.465 . S
Tb336 O381 2.387 . S
Tb336 O383 2.428 . S
Tb336 O384 2.308 . S
Tb336 O388 2.349 . S
Tb336 O391 2.393 . S
Tb336 C400 2.802 . S
C337 N338 1.379 . S
C337 C340 1.416 . S
C337 C344 1.424 . S
N338 C337 1.379 . S
N338 C341 1.334 . S
N338 Tb347 2.617 . S
C339 C341 1.390 . S
C339 C342 1.339 . S
C339 H359 0.930 1_455 S
C340 C337 1.416 . S
C340 C342 1.416 . S
C340 C346 1.448 . S
C341 N338 1.334 . S
C341 C339 1.390 . S
C341 H352 0.930 . S
C342 C339 1.339 . S
C342 C340 1.416 . S
C342 H363 0.930 1_455 S
C343 C344 1.413 . S
C343 C345 1.427 . S
C343 C349 1.416 . S
C344 C337 1.424 . S
C344 C343 1.413 . S
C344 N348 1.361 . S
C345 C343 1.427 . S
C345 C346 1.328 . S
C345 H360 0.929 . S
C346 C340 1.448 . S
C346 C345 1.328 . S
C346 H361 0.930 . S
Tb347 N338 2.617 . S
Tb347 N348 2.572 . S
Tb347 O382 2.349 . S
Tb347 O385 2.393 . S
Tb347 O386 2.465 . S
Tb347 O387 2.387 . S
Tb347 O389 2.428 . S
Tb347 O390 2.308 . S
Tb347 C411 2.802 . S
N348 C344 1.361 . S
N348 Tb347 2.572 . S
N348 C350 1.340 . S
C349 C343 1.416 . S
C349 C351 1.332 . S
C349 H357 0.931 . S
C350 N348 1.340 . S
C350 C351 1.407 . S
C350 H356 0.930 . S
C351 C349 1.332 . S
C351 C350 1.407 . S
C351 H353 0.929 . S
H352 C341 0.930 . S
H353 C351 0.929 . S
H354 C369 0.930 . S
H355 C376 0.929 . S
H356 C350 0.930 . S
H357 C349 0.931 . S
H358 C372 0.930 . S
H359 C339 0.930 1_655 S
H360 C345 0.929 . S
H361 C346 0.930 . S
H362 C367 0.930 . S
H363 C342 0.930 1_655 S
H364 C375 0.931 1_545 S
N365 Tb336 2.617 . S
N365 C366 1.379 . S
N365 C369 1.334 . S
C366 N365 1.379 . S
C366 C368 1.416 . S
C366 C374 1.424 . S
C367 H362 0.930 . S
C367 C369 1.390 . S
C367 C370 1.339 . S
C368 C366 1.416 . S
C368 C370 1.416 . S
C368 C401 1.448 1_565 S
C369 H354 0.930 . S
C369 N365 1.334 . S
C369 C367 1.390 . S
C370 C367 1.339 . S
C370 C368 1.416 . S
C370 H377 0.930 1_565 S
N371 Tb336 2.572 . S
N371 C372 1.340 . S
N371 C374 1.361 . S
C372 H358 0.930 . S
C372 N371 1.340 . S
C372 C376 1.407 . S
C373 C374 1.413 . S
C373 C375 1.416 . S
C373 C402 1.427 1_565 S
C374 C366 1.424 . S
C374 N371 1.361 . S
C374 C373 1.413 . S
C375 H364 0.931 1_565 S
C375 C373 1.416 . S
C375 C376 1.332 . S
C376 H355 0.929 . S
C376 C372 1.407 . S
C376 C375 1.332 . S
H377 C370 0.930 1_545 S
H378 C401 0.930 . S
H379 C402 0.929 . S
O380 Tb336 2.465 . S
O380 C400 1.264 . S
O381 Tb336 2.387 . S
O381 C392 1.264 . S
O382 Tb347 2.349 . S
O382 C392 1.243 . S
O383 Tb336 2.428 . S
O383 C400 1.256 . S
O384 Tb336 2.308 . S
O384 C399 1.266 . S
O385 Tb347 2.393 . S
O385 C399 1.248 . S
O386 Tb347 2.465 . S
O386 C411 1.264 . S
O387 Tb347 2.387 . S
O387 C403 1.264 . S
O388 Tb336 2.349 . S
O388 C403 1.243 . S
O389 Tb347 2.428 . S
O389 C411 1.256 . S
O390 Tb347 2.308 . S
O390 C410 1.266 . S
O391 Tb336 2.393 . S
O391 C410 1.248 . S
C392 O381 1.264 . S
C392 O382 1.243 . S
C393 C396 1.399 . S
C393 C398 1.383 . S
C393 C400 1.496 . S
C394 C395 1.399 1_554 S
C394 C398 1.389 . S
C395 C394 1.399 1_556 S
C395 C397 1.380 1_556 S
C395 H412 0.929 . S
C396 C393 1.399 . S
C396 C397 1.392 . S
C396 H413 0.929 . S
C397 C395 1.380 1_554 S
C397 C396 1.392 . S
C397 H414 0.929 . S
C398 C393 1.383 . S
C398 C394 1.389 . S
C398 H415 0.931 . S
C399 O384 1.266 . S
C399 O385 1.248 . S
C400 Tb336 2.802 . S
C400 O380 1.264 . S
C400 O383 1.256 . S
C400 C393 1.496 . S
C401 C368 1.448 1_545 S
C401 H378 0.930 . S
C401 C402 1.328 . S
C402 C373 1.427 1_545 S
C402 H379 0.929 . S
C402 C401 1.328 . S
C403 O387 1.264 . S
C403 O388 1.243 . S
C404 C407 1.399 . S
C404 C408 1.383 . S
C404 C411 1.496 . S
C405 C406 1.399 . S
C405 C408 1.389 . S
C406 C405 1.399 . S
C406 C409 1.380 . S
C406 H416 0.929 . S
C407 C404 1.399 . S
C407 C409 1.392 . S
C407 H417 0.929 . S
C408 C404 1.383 . S
C408 C405 1.389 . S
C408 H418 0.931 . S
C409 C406 1.380 . S
C409 C407 1.392 . S
C409 H419 0.929 . S
C410 O390 1.266 . S
C410 O391 1.248 . S
C411 Tb347 2.802 . S
C411 O386 1.264 . S
C411 O389 1.256 . S
C411 C404 1.496 . S
H412 C395 0.929 . S
H413 C396 0.929 . S
H414 C397 0.929 . S
H415 C398 0.931 . S
H416 C406 0.929 . S
H417 C407 0.929 . S
H418 C408 0.931 . S
H419 C409 0.929 . S
Tb420 N449 2.617 . S
Tb420 N455 2.572 . S
Tb420 O464 2.465 . S
Tb420 O465 2.387 . S
Tb420 O467 2.428 . S
Tb420 O468 2.308 . S
Tb420 O472 2.349 . S
Tb420 O475 2.393 . S
Tb420 C484 2.802 . S
C421 N422 1.379 . S
C421 C424 1.416 . S
C421 C428 1.424 . S
N422 C421 1.379 . S
N422 C425 1.334 . S
N422 Tb431 2.617 . S
C423 C425 1.390 . S
C423 C426 1.339 . S
C423 H443 0.930 . S
C424 C421 1.416 . S
C424 C426 1.416 . S
C424 C430 1.448 . S
C425 N422 1.334 . S
C425 C423 1.390 . S
C425 H436 0.930 . S
C426 C423 1.339 . S
C426 C424 1.416 . S
C426 H447 0.930 . S
C427 C428 1.413 . S
C427 C429 1.427 . S
C427 C433 1.416 . S
C428 C421 1.424 . S
C428 C427 1.413 . S
C428 N432 1.361 . S
C429 C427 1.427 . S
C429 C430 1.328 . S
C429 H444 0.929 . S
C430 C424 1.448 . S
C430 C429 1.328 . S
C430 H445 0.930 . S
Tb431 N422 2.617 . S
Tb431 N432 2.572 . S
Tb431 O466 2.349 . S
Tb431 O469 2.393 . S
Tb431 O470 2.465 . S
Tb431 O471 2.387 . S
Tb431 O473 2.428 . S
Tb431 O474 2.308 . S
Tb431 C495 2.802 . S
N432 C428 1.361 . S
N432 Tb431 2.572 . S
N432 C434 1.340 . S
C433 C427 1.416 . S
C433 C435 1.332 . S
C433 H441 0.931 . S
C434 N432 1.340 . S
C434 C435 1.407 . S
C434 H440 0.930 . S
C435 C433 1.332 . S
C435 C434 1.407 . S
C435 H437 0.929 . S
H436 C425 0.930 . S
H437 C435 0.929 . S
H438 C453 0.930 . S
H439 C460 0.929 . S
H440 C434 0.930 . S
H441 C433 0.931 . S
H442 C456 0.930 . S
H443 C423 0.930 . S
H444 C429 0.929 . S
H445 C430 0.930 . S
H446 C451 0.930 . S
H447 C426 0.930 . S
H448 C459 0.931 1_565 S
N449 Tb420 2.617 . S
N449 C450 1.379 . S
N449 C453 1.334 . S
C450 N449 1.379 . S
C450 C452 1.416 . S
C450 C458 1.424 . S
C451 H446 0.930 . S
C451 C453 1.390 . S
C451 C454 1.339 . S
C452 C450 1.416 . S
C452 C454 1.416 . S
C452 C485 1.448 1_545 S
C453 H438 0.930 . S
C453 N449 1.334 . S
C453 C451 1.390 . S
C454 C451 1.339 . S
C454 C452 1.416 . S
C454 H461 0.930 1_545 S
N455 Tb420 2.572 . S
N455 C456 1.340 . S
N455 C458 1.361 . S
C456 H442 0.930 . S
C456 N455 1.340 . S
C456 C460 1.407 . S
C457 C458 1.413 . S
C457 C459 1.416 . S
C457 C486 1.427 1_545 S
C458 C450 1.424 . S
C458 N455 1.361 . S
C458 C457 1.413 . S
C459 H448 0.931 1_545 S
C459 C457 1.416 . S
C459 C460 1.332 . S
C460 H439 0.929 . S
C460 C456 1.407 . S
C460 C459 1.332 . S
H461 C454 0.930 1_565 S
H462 C485 0.930 . S
H463 C486 0.929 . S
O464 Tb420 2.465 . S
O464 C484 1.264 . S
O465 Tb420 2.387 . S
O465 C476 1.264 . S
O466 Tb431 2.349 . S
O466 C476 1.243 . S
O467 Tb420 2.428 . S
O467 C484 1.256 . S
O468 Tb420 2.308 . S
O468 C483 1.266 . S
O469 Tb431 2.393 . S
O469 C483 1.248 . S
O470 Tb431 2.465 . S
O470 C495 1.264 . S
O471 Tb431 2.387 . S
O471 C487 1.264 . S
O472 Tb420 2.349 . S
O472 C487 1.243 . S
O473 Tb431 2.428 . S
O473 C495 1.256 . S
O474 Tb431 2.308 . S
O474 C494 1.266 . S
O475 Tb420 2.393 . S
O475 C494 1.248 . S
C476 O465 1.264 . S
C476 O466 1.243 . S
C477 C480 1.399 . S
C477 C482 1.383 . S
C477 C484 1.496 . S
C478 C479 1.399 . S
C478 C482 1.389 1_554 S
C479 C478 1.399 . S
C479 C481 1.380 1_554 S
C479 H496 0.929 . S
C480 C477 1.399 . S
C480 C481 1.392 . S
C480 H497 0.929 . S
C481 C479 1.380 1_556 S
C481 C480 1.392 . S
C481 H498 0.929 . S
C482 C477 1.383 . S
C482 C478 1.389 1_556 S
C482 H499 0.931 . S
C483 O468 1.266 . S
C483 O469 1.248 . S
C484 Tb420 2.802 . S
C484 O464 1.264 . S
C484 O467 1.256 . S
C484 C477 1.496 . S
C485 C452 1.448 1_565 S
C485 H462 0.930 . S
C485 C486 1.328 . S
C486 C457 1.427 1_565 S
C486 H463 0.929 . S
C486 C485 1.328 . S
C487 O471 1.264 . S
C487 O472 1.243 . S
C488 C491 1.399 . S
C488 C492 1.383 . S
C488 C495 1.496 . S
C489 C490 1.399 . S
C489 C492 1.389 . S
C490 C489 1.399 . S
C490 C493 1.380 . S
C490 H500 0.929 . S
C491 C488 1.399 . S
C491 C493 1.392 . S
C491 H501 0.929 . S
C492 C488 1.383 . S
C492 C489 1.389 . S
C492 H502 0.931 . S
C493 C490 1.380 . S
C493 C491 1.392 . S
C493 H503 0.929 . S
C494 O474 1.266 . S
C494 O475 1.248 . S
C495 Tb431 2.802 . S
C495 O470 1.264 . S
C495 O473 1.256 . S
C495 C488 1.496 . S
H496 C479 0.929 . S
H497 C480 0.929 . S
H498 C481 0.929 . S
H499 C482 0.931 . S
H500 C490 0.929 . S
H501 C491 0.929 . S
H502 C492 0.931 . S
H503 C493 0.929 . S
C504 C505 1.391 . S
C504 C506 1.394 . S
C504 H520 0.931 . S
C505 C504 1.391 . S
C505 C509 1.376 . S
C506 C504 1.394 . S
C506 C507 1.369 . S
C506 C510 1.531 . S
C507 C506 1.369 . S
C507 C508 1.410 . S
C507 C515 1.503 . S
C508 C507 1.410 . S
C508 C509 1.392 . S
C508 C511 1.511 . S
C509 C505 1.376 . S
C509 C508 1.392 . S
C509 H521 0.929 . S
C510 C506 1.531 . S
C510 H522 0.960 . S
C510 H523 0.962 . S
C510 H524 0.960 . S
C511 C508 1.511 . S
C511 H525 0.961 . S
C511 H526 0.961 . S
C511 H527 0.961 . S
C512 C513 1.370 . S
C512 C514 1.363 . S
C512 H528 0.931 . S
C513 C512 1.370 . S
C513 C517 1.408 . S
C514 C512 1.363 . S
C514 C515 1.370 . S
C514 C518 1.524 . S
C515 C507 1.503 . S
C515 C514 1.370 . S
C515 C516 1.403 . S
C516 C515 1.403 . S
C516 C517 1.404 . S
C516 C519 1.539 . S
C517 C513 1.408 . S
C517 C516 1.404 . S
C517 H529 0.930 . S
C518 C514 1.524 . S
C518 H530 0.956 . S
C518 H531 0.961 . S
C518 H532 0.961 . S
C519 C516 1.539 . S
C519 H533 0.958 . S
C519 H534 0.961 . S
C519 H535 0.960 . S
H520 C504 0.931 . S
H521 C509 0.929 . S
H522 C510 0.960 . S
H523 C510 0.962 . S
H524 C510 0.960 . S
H525 C511 0.961 . S
H526 C511 0.961 . S
H527 C511 0.961 . S
H528 C512 0.931 . S
H529 C517 0.930 . S
H530 C518 0.956 . S
H531 C518 0.961 . S
H532 C518 0.961 . S
H533 C519 0.958 . S
H534 C519 0.961 . S
H535 C519 0.960 . S
C536 C537 1.391 . S
C536 C538 1.394 . S
C536 H552 0.931 . S
C537 C536 1.391 . S
C537 C541 1.376 . S
C538 C536 1.394 . S
C538 C539 1.369 . S
C538 C542 1.531 1_455 S
C539 C538 1.369 . S
C539 C540 1.410 . S
C539 C547 1.503 1_455 S
C540 C539 1.410 . S
C540 C541 1.392 . S
C540 C543 1.511 . S
C541 C537 1.376 . S
C541 C540 1.392 . S
C541 H553 0.929 . S
C542 C538 1.531 1_655 S
C542 H554 0.960 . S
C542 H555 0.962 . S
C542 H556 0.960 . S
C543 C540 1.511 . S
C543 H557 0.961 . S
C543 H558 0.961 . S
C543 H559 0.961 . S
C544 C545 1.370 . S
C544 C546 1.363 . S
C544 H560 0.931 . S
C545 C544 1.370 . S
C545 C549 1.408 . S
C546 C544 1.363 . S
C546 C547 1.370 . S
C546 C550 1.524 1_655 S
C547 C539 1.503 1_655 S
C547 C546 1.370 . S
C547 C548 1.403 . S
C548 C547 1.403 . S
C548 C549 1.404 . S
C548 C551 1.539 . S
C549 C545 1.408 . S
C549 C548 1.404 . S
C549 H561 0.930 . S
C550 C546 1.524 1_455 S
C550 H562 0.956 . S
C550 H563 0.961 . S
C550 H564 0.961 . S
C551 C548 1.539 . S
C551 H565 0.958 . S
C551 H566 0.961 . S
C551 H567 0.960 . S
H552 C536 0.931 . S
H553 C541 0.929 . S
H554 C542 0.960 . S
H555 C542 0.962 . S
H556 C542 0.960 . S
H557 C543 0.961 . S
H558 C543 0.961 . S
H559 C543 0.961 . S
H560 C544 0.931 . S
H561 C549 0.930 . S
H562 C550 0.956 . S
H563 C550 0.961 . S
H564 C550 0.961 . S
H565 C551 0.958 . S
H566 C551 0.961 . S
H567 C551 0.960 . S
C568 C569 1.391 . S
C568 C570 1.394 . S
C568 H584 0.931 . S
C569 C568 1.391 . S
C569 C573 1.376 . S
C570 C568 1.394 . S
C570 C571 1.369 . S
C570 C574 1.531 . S
C571 C570 1.369 . S
C571 C572 1.410 . S
C571 C579 1.503 1_545 S
C572 C571 1.410 . S
C572 C573 1.392 . S
C572 C575 1.511 . S
C573 C569 1.376 . S
C573 C572 1.392 . S
C573 H585 0.929 . S
C574 C570 1.531 . S
C574 H586 0.960 . S
C574 H587 0.962 1_545 S
C574 H588 0.960 . S
C575 C572 1.511 . S
C575 H589 0.961 . S
C575 H590 0.961 . S
C575 H591 0.961 . S
C576 C577 1.370 . S
C576 C578 1.363 . S
C576 H592 0.931 . S
C577 C576 1.370 . S
C577 C581 1.408 . S
C578 C576 1.363 . S
C578 C579 1.370 . S
C578 C582 1.524 . S
C579 C571 1.503 1_565 S
C579 C578 1.370 . S
C579 C580 1.403 . S
C580 C579 1.403 . S
C580 C581 1.404 . S
C580 C583 1.539 1_565 S
C581 C577 1.408 . S
C581 C580 1.404 . S
C581 H593 0.930 . S
C582 C578 1.524 . S
C582 H594 0.956 . S
C582 H595 0.961 . S
C582 H596 0.961 . S
C583 C580 1.539 1_545 S
C583 H597 0.958 . S
C583 H598 0.961 . S
C583 H599 0.960 . S
H584 C568 0.931 . S
H585 C573 0.929 . S
H586 C574 0.960 . S
H587 C574 0.962 1_565 S
H588 C574 0.960 . S
H589 C575 0.961 . S
H590 C575 0.961 . S
H591 C575 0.961 . S
H592 C576 0.931 . S
H593 C581 0.930 . S
H594 C582 0.956 . S
H595 C582 0.961 . S
H596 C582 0.961 . S
H597 C583 0.958 . S
H598 C583 0.961 . S
H599 C583 0.960 . S
C600 C601 1.391 . S
C600 C602 1.394 . S
C600 H616 0.931 . S
C601 C600 1.391 . S
C601 C605 1.376 . S
C602 C600 1.394 . S
C602 C603 1.369 . S
C602 C606 1.531 . S
C603 C602 1.369 . S
C603 C604 1.410 . S
C603 C611 1.503 . S
C604 C603 1.410 . S
C604 C605 1.392 . S
C604 C607 1.511 . S
C605 C601 1.376 . S
C605 C604 1.392 . S
C605 H617 0.929 . S
C606 C602 1.531 . S
C606 H618 0.960 . S
C606 H619 0.962 . S
C606 H620 0.960 . S
C607 C604 1.511 . S
C607 H621 0.961 . S
C607 H622 0.961 . S
C607 H623 0.961 . S
C608 C609 1.370 . S
C608 C610 1.363 . S
C608 H624 0.931 . S
C609 C608 1.370 . S
C609 C613 1.408 . S
C610 C608 1.363 . S
C610 C611 1.370 . S
C610 C614 1.524 . S
C611 C603 1.503 . S
C611 C610 1.370 . S
C611 C612 1.403 . S
C612 C611 1.403 . S
C612 C613 1.404 . S
C612 C615 1.539 . S
C613 C609 1.408 . S
C613 C612 1.404 . S
C613 H625 0.930 . S
C614 C610 1.524 . S
C614 H626 0.956 . S
C614 H627 0.961 . S
C614 H628 0.961 . S
C615 C612 1.539 . S
C615 H629 0.958 . S
C615 H630 0.961 . S
C615 H631 0.960 . S
H616 C600 0.931 . S
H617 C605 0.929 . S
H618 C606 0.960 . S
H619 C606 0.962 . S
H620 C606 0.960 . S
H621 C607 0.961 . S
H622 C607 0.961 . S
H623 C607 0.961 . S
H624 C608 0.931 . S
H625 C613 0.930 . S
H626 C614 0.956 . S
H627 C614 0.961 . S
H628 C614 0.961 . S
H629 C615 0.958 . S
H630 C615 0.961 . S
H631 C615 0.960 . S
C632 C633 1.391 . S
C632 C634 1.394 . S
C632 H648 0.931 . S
C633 C632 1.391 . S
C633 C637 1.376 . S
C634 C632 1.394 . S
C634 C635 1.369 . S
C634 C638 1.531 1_455 S
C635 C634 1.369 . S
C635 C636 1.410 . S
C635 C643 1.503 1_455 S
C636 C635 1.410 . S
C636 C637 1.392 . S
C636 C639 1.511 . S
C637 C633 1.376 . S
C637 C636 1.392 . S
C637 H649 0.929 . S
C638 C634 1.531 1_655 S
C638 H650 0.960 . S
C638 H651 0.962 . S
C638 H652 0.960 . S
C639 C636 1.511 . S
C639 H653 0.961 . S
C639 H654 0.961 . S
C639 H655 0.961 . S
C640 C641 1.370 . S
C640 C642 1.363 . S
C640 H656 0.931 . S
C641 C640 1.370 . S
C641 C645 1.408 . S
C642 C640 1.363 . S
C642 C643 1.370 . S
C642 C646 1.524 1_655 S
C643 C635 1.503 1_655 S
C643 C642 1.370 . S
C643 C644 1.403 . S
C644 C643 1.403 . S
C644 C645 1.404 . S
C644 C647 1.539 . S
C645 C641 1.408 . S
C645 C644 1.404 . S
C645 H657 0.930 . S
C646 C642 1.524 1_455 S
C646 H658 0.956 . S
C646 H659 0.961 . S
C646 H660 0.960 . S
C647 C644 1.539 . S
C647 H661 0.958 . S
C647 H662 0.961 . S
C647 H663 0.960 . S
H648 C632 0.931 . S
H649 C637 0.929 . S
H650 C638 0.960 . S
H651 C638 0.962 . S
H652 C638 0.960 . S
H653 C639 0.961 . S
H654 C639 0.961 . S
H655 C639 0.961 . S
H656 C640 0.931 . S
H657 C645 0.930 . S
H658 C646 0.956 . S
H659 C646 0.961 . S
H660 C646 0.960 . S
H661 C647 0.958 . S
H662 C647 0.961 . S
H663 C647 0.960 . S
C664 C665 1.391 . S
C664 C666 1.394 . S
C664 H680 0.931 . S
C665 C664 1.391 . S
C665 C669 1.376 . S
C666 C664 1.394 . S
C666 C667 1.369 . S
C666 C670 1.531 1_545 S
C667 C666 1.369 . S
C667 C668 1.410 . S
C667 C675 1.503 1_545 S
C668 C667 1.410 . S
C668 C669 1.392 . S
C668 C671 1.511 . S
C669 C665 1.376 . S
C669 C668 1.392 . S
C669 H681 0.929 . S
C670 C666 1.531 1_565 S
C670 H682 0.960 . S
C670 H683 0.962 . S
C670 H684 0.960 . S
C671 C668 1.511 . S
C671 H685 0.961 . S
C671 H686 0.961 . S
C671 H687 0.961 . S
C672 C673 1.370 . S
C672 C674 1.363 . S
C672 H688 0.931 . S
C673 C672 1.370 . S
C673 C677 1.408 . S
C674 C672 1.363 . S
C674 C675 1.370 . S
C674 C678 1.524 1_565 S
C675 C667 1.503 1_565 S
C675 C674 1.370 . S
C675 C676 1.403 . S
C676 C675 1.403 . S
C676 C677 1.404 . S
C676 C679 1.539 . S
C677 C673 1.408 . S
C677 C676 1.404 . S
C677 H689 0.930 . S
C678 C674 1.524 1_545 S
C678 H690 0.956 . S
C678 H691 0.961 . S
C678 H692 0.961 . S
C679 C676 1.539 . S
C679 H693 0.958 . S
C679 H694 0.961 . S
C679 H695 0.960 . S
H680 C664 0.931 . S
H681 C669 0.929 . S
H682 C670 0.960 . S
H683 C670 0.962 . S
H684 C670 0.960 . S
H685 C671 0.961 . S
H686 C671 0.961 . S
H687 C671 0.961 . S
H688 C672 0.931 . S
H689 C677 0.930 . S
H690 C678 0.956 . S
H691 C678 0.961 . S
H692 C678 0.961 . S
H693 C679 0.958 . S
H694 C679 0.961 . S
H695 C679 0.960 . S
C696 C697 1.391 . S
C696 C698 1.394 . S
C696 H712 0.931 . S
C697 C696 1.391 . S
C697 C701 1.376 . S
C698 C696 1.394 . S
C698 C699 1.369 . S
C698 C702 1.531 . S
C699 C698 1.369 . S
C699 C700 1.410 . S
C699 C707 1.503 . S
C700 C699 1.410 . S
C700 C701 1.392 . S
C700 C703 1.511 . S
C701 C697 1.376 . S
C701 C700 1.392 . S
C701 H713 0.929 . S
C702 C698 1.531 . S
C702 H714 0.960 . S
C702 H715 0.962 . S
C702 H716 0.960 . S
C703 C700 1.511 . S
C703 H717 0.961 . S
C703 H718 0.961 . S
C703 H719 0.961 . S
C704 C705 1.370 . S
C704 C706 1.363 . S
C704 H720 0.931 . S
C705 C704 1.370 . S
C705 C709 1.408 . S
C706 C704 1.363 . S
C706 C707 1.370 . S
C706 C710 1.524 . S
C707 C699 1.503 . S
C707 C706 1.370 . S
C707 C708 1.403 . S
C708 C707 1.403 . S
C708 C709 1.404 . S
C708 C711 1.539 . S
C709 C705 1.408 . S
C709 C708 1.404 . S
C709 H721 0.930 . S
C710 C706 1.524 . S
C710 H722 0.956 . S
C710 H723 0.961 . S
C710 H724 0.961 . S
C711 C708 1.539 . S
C711 H725 0.958 . S
C711 H726 0.961 . S
C711 H727 0.960 . S
H712 C696 0.931 . S
H713 C701 0.929 . S
H714 C702 0.960 . S
H715 C702 0.962 . S
H716 C702 0.960 . S
H717 C703 0.961 . S
H718 C703 0.961 . S
H719 C703 0.961 . S
H720 C704 0.931 . S
H721 C709 0.930 . S
H722 C710 0.956 . S
H723 C710 0.961 . S
H724 C710 0.961 . S
H725 C711 0.958 . S
H726 C711 0.961 . S
H727 C711 0.960 . S
C728 C729 1.391 . S
C728 C730 1.394 . S
C728 H744 0.931 . S
C729 C728 1.391 . S
C729 C733 1.376 . S
C730 C728 1.394 . S
C730 C731 1.369 . S
C730 C734 1.531 . S
C731 C730 1.369 . S
C731 C732 1.410 . S
C731 C739 1.503 . S
C732 C731 1.410 . S
C732 C733 1.392 . S
C732 C735 1.511 . S
C733 C729 1.376 . S
C733 C732 1.392 . S
C733 H745 0.929 . S
C734 C730 1.531 . S
C734 H746 0.960 . S
C734 H747 0.962 . S
C734 H748 0.960 . S
C735 C732 1.511 . S
C735 H749 0.961 . S
C735 H750 0.961 . S
C735 H751 0.961 . S
C736 C737 1.370 . S
C736 C738 1.363 . S
C736 H752 0.931 . S
C737 C736 1.370 . S
C737 C741 1.408 . S
C738 C736 1.363 . S
C738 C739 1.370 . S
C738 C742 1.524 . S
C739 C731 1.503 . S
C739 C738 1.370 . S
C739 C740 1.403 . S
C740 C739 1.403 . S
C740 C741 1.404 . S
C740 C743 1.539 . S
C741 C737 1.408 . S
C741 C740 1.404 . S
C741 H753 0.930 . S
C742 C738 1.524 . S
C742 H754 0.956 . S
C742 H755 0.961 . S
C742 H756 0.961 . S
C743 C740 1.539 . S
C743 H757 0.958 . S
C743 H758 0.961 . S
C743 H759 0.960 . S
H744 C728 0.931 . S
H745 C733 0.929 . S
H746 C734 0.960 . S
H747 C734 0.962 . S
H748 C734 0.960 . S
H749 C735 0.961 . S
H750 C735 0.961 . S
H751 C735 0.961 . S
H752 C736 0.931 . S
H753 C741 0.930 . S
H754 C742 0.956 . S
H755 C742 0.961 . S
H756 C742 0.961 . S
H757 C743 0.958 . S
H758 C743 0.961 . S
H759 C743 0.960 . S
C760 C761 1.391 . S
C760 C762 1.394 . S
C760 H776 0.931 . S
C761 C760 1.391 . S
C761 C765 1.376 . S
C762 C760 1.394 . S
C762 C763 1.369 . S
C762 C766 1.531 . S
C763 C762 1.369 . S
C763 C764 1.410 . S
C763 C771 1.503 . S
C764 C763 1.410 . S
C764 C765 1.392 . S
C764 C767 1.511 . S
C765 C761 1.376 . S
C765 C764 1.392 . S
C765 H777 0.929 . S
C766 C762 1.531 . S
C766 H778 0.960 . S
C766 H779 0.962 . S
C766 H780 0.960 . S
C767 C764 1.511 . S
C767 H781 0.961 . S
C767 H782 0.961 . S
C767 H783 0.961 . S
C768 C769 1.370 . S
C768 C770 1.363 . S
C768 H784 0.931 . S
C769 C768 1.370 . S
C769 C773 1.408 . S
C770 C768 1.363 . S
C770 C771 1.370 . S
C770 C774 1.524 . S
C771 C763 1.503 . S
C771 C770 1.370 . S
C771 C772 1.403 . S
C772 C771 1.403 . S
C772 C773 1.404 . S
C772 C775 1.539 . S
C773 C769 1.408 . S
C773 C772 1.404 . S
C773 H785 0.930 . S
C774 C770 1.524 . S
C774 H786 0.956 . S
C774 H787 0.961 . S
C774 H788 0.961 . S
C775 C772 1.539 . S
C775 H789 0.958 . S
C775 H790 0.961 . S
C775 H791 0.960 . S
H776 C760 0.931 . S
H777 C765 0.929 . S
H778 C766 0.960 . S
H779 C766 0.962 . S
H780 C766 0.960 . S
H781 C767 0.961 . S
H782 C767 0.961 . S
H783 C767 0.961 . S
H784 C768 0.931 . S
H785 C773 0.930 . S
H786 C774 0.956 . S
H787 C774 0.961 . S
H788 C774 0.961 . S
H789 C775 0.958 . S
H790 C775 0.961 . S
H791 C775 0.960 . S
C792 C793 1.391 . S
C792 C794 1.394 . S
C792 H808 0.931 . S
C793 C792 1.391 . S
C793 C797 1.376 . S
C794 C792 1.394 . S
C794 C795 1.369 . S
C794 C798 1.531 . S
C795 C794 1.369 . S
C795 C796 1.410 . S
C795 C803 1.503 . S
C796 C795 1.410 . S
C796 C797 1.392 . S
C796 C799 1.511 . S
C797 C793 1.376 . S
C797 C796 1.392 . S
C797 H809 0.929 . S
C798 C794 1.531 . S
C798 H810 0.960 . S
C798 H811 0.962 . S
C798 H812 0.960 . S
C799 C796 1.511 . S
C799 H813 0.961 . S
C799 H814 0.961 . S
C799 H815 0.961 . S
C800 C801 1.370 . S
C800 C802 1.363 . S
C800 H816 0.931 . S
C801 C800 1.370 . S
C801 C805 1.408 . S
C802 C800 1.363 . S
C802 C803 1.370 . S
C802 C806 1.524 . S
C803 C795 1.503 . S
C803 C802 1.370 . S
C803 C804 1.403 . S
C804 C803 1.403 . S
C804 C805 1.404 . S
C804 C807 1.539 . S
C805 C801 1.408 . S
C805 C804 1.404 . S
C805 H817 0.930 . S
C806 C802 1.524 . S
C806 H818 0.956 . S
C806 H819 0.961 . S
C806 H820 0.961 . S
C807 C804 1.539 . S
C807 H821 0.958 . S
C807 H822 0.961 . S
C807 H823 0.960 . S
H808 C792 0.931 . S
H809 C797 0.929 . S
H810 C798 0.960 . S
H811 C798 0.962 . S
H812 C798 0.960 . S
H813 C799 0.961 . S
H814 C799 0.961 . S
H815 C799 0.961 . S
H816 C800 0.931 . S
H817 C805 0.930 . S
H818 C806 0.956 . S
H819 C806 0.961 . S
H820 C806 0.961 . S
H821 C807 0.958 . S
H822 C807 0.961 . S
H823 C807 0.960 . S
C824 C825 1.391 . S
C824 C826 1.394 . S
C824 H840 0.931 . S
C825 C824 1.391 . S
C825 C829 1.376 . S
C826 C824 1.394 . S
C826 C827 1.369 . S
C826 C830 1.531 . S
C827 C826 1.369 . S
C827 C828 1.410 . S
C827 C835 1.503 . S
C828 C827 1.410 . S
C828 C829 1.392 . S
C828 C831 1.511 . S
C829 C825 1.376 . S
C829 C828 1.392 . S
C829 H841 0.929 . S
C830 C826 1.531 . S
C830 H842 0.960 . S
C830 H843 0.962 . S
C830 H844 0.960 . S
C831 C828 1.511 . S
C831 H845 0.961 . S
C831 H846 0.961 . S
C831 H847 0.961 . S
C832 C833 1.370 . S
C832 C834 1.363 . S
C832 H848 0.931 . S
C833 C832 1.370 . S
C833 C837 1.408 . S
C834 C832 1.363 . S
C834 C835 1.370 . S
C834 C838 1.524 . S
C835 C827 1.503 . S
C835 C834 1.370 . S
C835 C836 1.403 . S
C836 C835 1.403 . S
C836 C837 1.404 . S
C836 C839 1.539 . S
C837 C833 1.408 . S
C837 C836 1.404 . S
C837 H849 0.930 . S
C838 C834 1.524 . S
C838 H850 0.956 . S
C838 H851 0.961 . S
C838 H852 0.961 . S
C839 C836 1.539 . S
C839 H853 0.958 . S
C839 H854 0.961 . S
C839 H855 0.960 . S
H840 C824 0.931 . S
H841 C829 0.929 . S
H842 C830 0.960 . S
H843 C830 0.962 . S
H844 C830 0.960 . S
H845 C831 0.961 . S
H846 C831 0.961 . S
H847 C831 0.961 . S
H848 C832 0.931 . S
H849 C837 0.930 . S
H850 C838 0.956 . S
H851 C838 0.961 . S
H852 C838 0.961 . S
H853 C839 0.958 . S
H854 C839 0.961 . S
H855 C839 0.960 . S
C856 C857 1.391 . S
C856 C858 1.394 . S
C856 H872 0.931 . S
C857 C856 1.391 . S
C857 C861 1.376 . S
C858 C856 1.394 . S
C858 C859 1.369 . S
C858 C862 1.531 . S
C859 C858 1.369 . S
C859 C860 1.410 . S
C859 C867 1.503 . S
C860 C859 1.410 . S
C860 C861 1.392 . S
C860 C863 1.511 . S
C861 C857 1.376 . S
C861 C860 1.392 . S
C861 H873 0.929 . S
C862 C858 1.531 . S
C862 H874 0.960 . S
C862 H875 0.962 . S
C862 H876 0.960 . S
C863 C860 1.511 . S
C863 H877 0.961 . S
C863 H878 0.961 . S
C863 H879 0.961 . S
C864 C865 1.370 . S
C864 C866 1.363 . S
C864 H880 0.931 . S
C865 C864 1.370 . S
C865 C869 1.408 . S
C866 C864 1.363 . S
C866 C867 1.370 . S
C866 C870 1.524 . S
C867 C859 1.503 . S
C867 C866 1.370 . S
C867 C868 1.403 . S
C868 C867 1.403 . S
C868 C869 1.404 . S
C868 C871 1.539 . S
C869 C865 1.408 . S
C869 C868 1.404 . S
C869 H881 0.930 . S
C870 C866 1.524 . S
C870 H882 0.956 . S
C870 H883 0.961 . S
C870 H884 0.961 . S
C871 C868 1.539 . S
C871 H885 0.958 . S
C871 H886 0.961 . S
C871 H887 0.960 . S
H872 C856 0.931 . S
H873 C861 0.929 . S
H874 C862 0.960 . S
H875 C862 0.962 . S
H876 C862 0.960 . S
H877 C863 0.961 . S
H878 C863 0.961 . S
H879 C863 0.961 . S
H880 C864 0.931 . S
H881 C869 0.930 . S
H882 C870 0.956 . S
H883 C870 0.961 . S
H884 C870 0.961 . S
H885 C871 0.958 . S
H886 C871 0.961 . S
H887 C871 0.960 . S
C888 C889 1.391 . S
C888 C890 1.394 . S
C888 H904 0.931 . S
C889 C888 1.391 . S
C889 C893 1.376 . S
C890 C888 1.394 . S
C890 C891 1.369 . S
C890 C894 1.531 . S
C891 C890 1.369 . S
C891 C892 1.410 . S
C891 C899 1.503 . S
C892 C891 1.410 . S
C892 C893 1.392 . S
C892 C895 1.511 . S
C893 C889 1.376 . S
C893 C892 1.392 . S
C893 H905 0.929 . S
C894 C890 1.531 . S
C894 H906 0.960 . S
C894 H907 0.962 . S
C894 H908 0.960 . S
C895 C892 1.511 . S
C895 H909 0.961 . S
C895 H910 0.961 . S
C895 H911 0.961 . S
C896 C897 1.370 . S
C896 C898 1.363 . S
C896 H912 0.931 . S
C897 C896 1.370 . S
C897 C901 1.408 . S
C898 C896 1.363 . S
C898 C899 1.370 . S
C898 C902 1.524 . S
C899 C891 1.503 . S
C899 C898 1.370 . S
C899 C900 1.403 . S
C900 C899 1.403 . S
C900 C901 1.404 . S
C900 C903 1.539 . S
C901 C897 1.408 . S
C901 C900 1.404 . S
C901 H913 0.930 . S
C902 C898 1.524 . S
C902 H914 0.956 . S
C902 H915 0.961 . S
C902 H916 0.961 . S
C903 C900 1.539 . S
C903 H917 0.958 . S
C903 H918 0.961 . S
C903 H919 0.960 . S
H904 C888 0.931 . S
H905 C893 0.929 . S
H906 C894 0.960 . S
H907 C894 0.962 . S
H908 C894 0.960 . S
H909 C895 0.961 . S
H910 C895 0.961 . S
H911 C895 0.961 . S
H912 C896 0.931 . S
H913 C901 0.930 . S
H914 C902 0.956 . S
H915 C902 0.961 . S
H916 C902 0.961 . S
H917 C903 0.958 . S
H918 C903 0.961 . S
H919 C903 0.960 . S
C920 C921 1.391 . S
C920 C922 1.394 . S
C920 H936 0.931 . S
C921 C920 1.391 . S
C921 C925 1.376 . S
C922 C920 1.394 . S
C922 C923 1.369 . S
C922 C926 1.531 . S
C923 C922 1.369 . S
C923 C924 1.410 . S
C923 C931 1.503 . S
C924 C923 1.410 . S
C924 C925 1.392 . S
C924 C927 1.511 . S
C925 C921 1.376 . S
C925 C924 1.392 . S
C925 H937 0.929 . S
C926 C922 1.531 . S
C926 H938 0.960 . S
C926 H939 0.962 . S
C926 H940 0.960 . S
C927 C924 1.511 . S
C927 H941 0.961 . S
C927 H942 0.961 . S
C927 H943 0.961 . S
C928 C929 1.370 . S
C928 C930 1.363 . S
C928 H944 0.931 . S
C929 C928 1.370 . S
C929 C933 1.408 . S
C930 C928 1.363 . S
C930 C931 1.370 . S
C930 C934 1.524 . S
C931 C923 1.503 . S
C931 C930 1.370 . S
C931 C932 1.403 . S
C932 C931 1.403 . S
C932 C933 1.404 . S
C932 C935 1.539 . S
C933 C929 1.408 . S
C933 C932 1.404 . S
C933 H945 0.930 . S
C934 C930 1.524 . S
C934 H946 0.956 . S
C934 H947 0.961 . S
C934 H948 0.961 . S
C935 C932 1.539 . S
C935 H949 0.958 . S
C935 H950 0.961 . S
C935 H951 0.960 . S
H936 C920 0.931 . S
H937 C925 0.929 . S
H938 C926 0.960 . S
H939 C926 0.962 . S
H940 C926 0.960 . S
H941 C927 0.961 . S
H942 C927 0.961 . S
H943 C927 0.961 . S
H944 C928 0.931 . S
H945 C933 0.930 . S
H946 C934 0.956 . S
H947 C934 0.961 . S
H948 C934 0.961 . S
H949 C935 0.958 . S
H950 C935 0.961 . S
H951 C935 0.960 . S
C952 C953 1.391 . S
C952 C954 1.394 . S
C952 H968 0.931 . S
C953 C952 1.391 . S
C953 C957 1.376 . S
C954 C952 1.394 . S
C954 C955 1.369 . S
C954 C958 1.531 . S
C955 C954 1.369 . S
C955 C956 1.410 . S
C955 C963 1.503 . S
C956 C955 1.410 . S
C956 C957 1.392 . S
C956 C959 1.511 . S
C957 C953 1.376 . S
C957 C956 1.392 . S
C957 H969 0.929 . S
C958 C954 1.531 . S
C958 H970 0.960 . S
C958 H971 0.962 . S
C958 H972 0.960 . S
C959 C956 1.511 . S
C959 H973 0.961 . S
C959 H974 0.961 . S
C959 H975 0.961 . S
C960 C961 1.370 . S
C960 C962 1.363 . S
C960 H976 0.931 . S
C961 C960 1.370 . S
C961 C965 1.408 . S
C962 C960 1.363 . S
C962 C963 1.370 . S
C962 C966 1.524 . S
C963 C955 1.503 . S
C963 C962 1.370 . S
C963 C964 1.403 . S
C964 C963 1.403 . S
C964 C965 1.404 . S
C964 C967 1.539 . S
C965 C961 1.408 . S
C965 C964 1.404 . S
C965 H977 0.930 . S
C966 C962 1.524 . S
C966 H978 0.956 . S
C966 H979 0.961 . S
C966 H980 0.961 . S
C967 C964 1.539 . S
C967 H981 0.958 . S
C967 H982 0.961 . S
C967 H983 0.960 . S
H968 C952 0.931 . S
H969 C957 0.929 . S
H970 C958 0.960 . S
H971 C958 0.962 . S
H972 C958 0.960 . S
H973 C959 0.961 . S
H974 C959 0.961 . S
H975 C959 0.961 . S
H976 C960 0.931 . S
H977 C965 0.930 . S
H978 C966 0.956 . S
H979 C966 0.961 . S
H980 C966 0.961 . S
H981 C967 0.958 . S
H982 C967 0.961 . S
H983 C967 0.960 . S
C984 C985 1.391 . S
C984 C986 1.394 . S
C984 H1000 0.931 . S
C985 C984 1.391 . S
C985 C989 1.376 . S
C986 C984 1.394 . S
C986 C987 1.369 . S
C986 C990 1.531 . S
C987 C986 1.369 . S
C987 C988 1.410 . S
C987 C995 1.503 . S
C988 C987 1.410 . S
C988 C989 1.392 . S
C988 C991 1.511 . S
C989 C985 1.376 . S
C989 C988 1.392 . S
C989 H1001 0.929 . S
C990 C986 1.531 . S
C990 H1002 0.960 . S
C990 H1003 0.962 . S
C990 H1004 0.960 . S
C991 C988 1.511 . S
C991 H1005 0.961 . S
C991 H1006 0.961 . S
C991 H1007 0.961 . S
C992 C993 1.370 . S
C992 C994 1.363 . S
C992 H1008 0.931 . S
C993 C992 1.370 . S
C993 C997 1.408 . S
C994 C992 1.363 . S
C994 C995 1.370 . S
C994 C998 1.524 . S
C995 C987 1.503 . S
C995 C994 1.370 . S
C995 C996 1.403 . S
C996 C995 1.403 . S
C996 C997 1.404 . S
C996 C999 1.539 . S
C997 C993 1.408 . S
C997 C996 1.404 . S
C997 H1009 0.930 . S
C998 C994 1.524 . S
C998 H1010 0.956 . S
C998 H1011 0.961 . S
C998 H1012 0.961 . S
C999 C996 1.539 . S
C999 H1013 0.958 . S
C999 H1014 0.961 . S
C999 H1015 0.960 . S
H1000 C984 0.931 . S
H1001 C989 0.929 . S
H1002 C990 0.960 . S
H1003 C990 0.962 . S
H1004 C990 0.960 . S
H1005 C991 0.961 . S
H1006 C991 0.961 . S
H1007 C991 0.961 . S
H1008 C992 0.931 . S
H1009 C997 0.930 . S
H1010 C998 0.956 . S
H1011 C998 0.961 . S
H1012 C998 0.961 . S
H1013 C999 0.958 . S
H1014 C999 0.961 . S
H1015 C999 0.960 . S
C1016 C1017 1.391 . S
C1016 C1018 1.394 . S
C1016 H1032 0.931 . S
C1017 C1016 1.391 . S
C1017 C1021 1.376 . S
C1018 C1016 1.394 . S
C1018 C1019 1.369 . S
C1018 C1022 1.531 . S
C1019 C1018 1.369 . S
C1019 C1020 1.410 . S
C1019 C1027 1.503 . S
C1020 C1019 1.410 . S
C1020 C1021 1.392 . S
C1020 C1023 1.511 . S
C1021 C1017 1.376 . S
C1021 C1020 1.392 . S
C1021 H1033 0.929 . S
C1022 C1018 1.531 . S
C1022 H1034 0.960 . S
C1022 H1035 0.962 . S
C1022 H1036 0.960 . S
C1023 C1020 1.511 . S
C1023 H1037 0.961 . S
C1023 H1038 0.961 . S
C1023 H1039 0.961 . S
C1024 C1025 1.370 . S
C1024 C1026 1.363 . S
C1024 H1040 0.931 . S
C1025 C1024 1.370 . S
C1025 C1029 1.408 . S
C1026 C1024 1.363 . S
C1026 C1027 1.370 . S
C1026 C1030 1.524 . S
C1027 C1019 1.503 . S
C1027 C1026 1.370 . S
C1027 C1028 1.403 . S
C1028 C1027 1.403 . S
C1028 C1029 1.404 . S
C1028 C1031 1.539 . S
C1029 C1025 1.408 . S
C1029 C1028 1.404 . S
C1029 H1041 0.930 . S
C1030 C1026 1.524 . S
C1030 H1042 0.956 . S
C1030 H1043 0.961 . S
C1030 H1044 0.961 . S
C1031 C1028 1.539 . S
C1031 H1045 0.958 . S
C1031 H1046 0.961 . S
C1031 H1047 0.960 . S
H1032 C1016 0.931 . S
H1033 C1021 0.929 . S
H1034 C1022 0.960 . S
H1035 C1022 0.962 . S
H1036 C1022 0.960 . S
H1037 C1023 0.961 . S
H1038 C1023 0.961 . S
H1039 C1023 0.961 . S
H1040 C1024 0.931 . S
H1041 C1029 0.930 . S
H1042 C1030 0.956 . S
H1043 C1030 0.961 . S
H1044 C1030 0.961 . S
H1045 C1031 0.958 . S
H1046 C1031 0.961 . S
H1047 C1031 0.960 . S
C1048 C1049 1.391 . S
C1048 C1050 1.394 . S
C1048 H1064 0.931 . S
C1049 C1048 1.391 . S
C1049 C1053 1.376 . S
C1050 C1048 1.394 . S
C1050 C1051 1.369 . S
C1050 C1054 1.531 . S
C1051 C1050 1.369 . S
C1051 C1052 1.410 . S
C1051 C1059 1.503 . S
C1052 C1051 1.410 . S
C1052 C1053 1.392 . S
C1052 C1055 1.511 . S
C1053 C1049 1.376 . S
C1053 C1052 1.392 . S
C1053 H1065 0.929 . S
C1054 C1050 1.531 . S
C1054 H1066 0.960 . S
C1054 H1067 0.962 . S
C1054 H1068 0.960 . S
C1055 C1052 1.511 . S
C1055 H1069 0.961 . S
C1055 H1070 0.961 . S
C1055 H1071 0.961 . S
C1056 C1057 1.370 . S
C1056 C1058 1.363 . S
C1056 H1072 0.931 . S
C1057 C1056 1.370 . S
C1057 C1061 1.408 . S
C1058 C1056 1.363 . S
C1058 C1059 1.370 . S
C1058 C1062 1.524 . S
C1059 C1051 1.503 . S
C1059 C1058 1.370 . S
C1059 C1060 1.403 . S
C1060 C1059 1.403 . S
C1060 C1061 1.404 . S
C1060 C1063 1.539 . S
C1061 C1057 1.408 . S
C1061 C1060 1.404 . S
C1061 H1073 0.930 . S
C1062 C1058 1.524 . S
C1062 H1074 0.956 . S
C1062 H1075 0.961 . S
C1062 H1076 0.961 . S
C1063 C1060 1.539 . S
C1063 H1077 0.958 . S
C1063 H1078 0.961 . S
C1063 H1079 0.960 . S
H1064 C1048 0.931 . S
H1065 C1053 0.929 . S
H1066 C1054 0.960 . S
H1067 C1054 0.962 . S
H1068 C1054 0.960 . S
H1069 C1055 0.961 . S
H1070 C1055 0.961 . S
H1071 C1055 0.961 . S
H1072 C1056 0.931 . S
H1073 C1061 0.930 . S
H1074 C1062 0.956 . S
H1075 C1062 0.961 . S
H1076 C1062 0.961 . S
H1077 C1063 0.958 . S
H1078 C1063 0.961 . S
H1079 C1063 0.960 . S
C505 C483 1.363 . S
C513 C63 1.371 . S
C537 C56 1.354 . S
C545 C140 1.334 . S
C569 C147 1.374 . S
C577 C231 1.360 . S
C601 C224 1.286 . S
C609 C308 1.313 . S
C633 C399 1.367 . S
C641 C315 1.370 . S
C665 C476 1.347 . S
C673 C392 1.327 . S
C697 C58 1.125 . S
C705 C69 1.108 . S
C729 C153 1.146 1_556 S
C737 C142 1.099 . S
C761 C226 1.063 . S
C769 C237 1.129 1_554 S
C793 C321 1.057 . S
C801 C310 1.133 . S
C825 C405 1.147 . S
C833 C394 1.093 1_556 S
C857 C489 1.124 . S
C865 C478 1.102 . S
C889 C74 1.618 . S
C897 C403 1.625 . S
C921 C151 1.628 . S
C929 C494 1.630 . S
C953 C67 1.637 . S
C961 C242 1.630 . S
C985 C158 1.628 . S
C993 C319 1.628 . S
C1017 C410 1.617 . S
C1025 C235 1.631 . S
C1049 C326 1.632 . S
C1057 C487 1.634 . S
