# Generated by pormake.
# Topology zfu, (5)-cn, num edge types: 1
# Building blocks:
#     Node 0, Type 0, BuildingBlock: BEQFEK_clean_sbu_0, # of connection points: 5
#     Node 1, Type 0, BuildingBlock: BEQFEK_clean_sbu_0, # of connection points: 5
#     Node 2, Type 0, BuildingBlock: BEQFEK_clean_sbu_0, # of connection points: 5
#     Node 3, Type 0, BuildingBlock: BEQFEK_clean_sbu_0, # of connection points: 5
#     Node 4, Type 0, BuildingBlock: BEQFEK_clean_sbu_0, # of connection points: 5
#     Node 5, Type 0, BuildingBlock: BEQFEK_clean_sbu_0, # of connection points: 5
#     Node 6, Type 0, BuildingBlock: BEQFEK_clean_sbu_0, # of connection points: 5
#     Node 7, Type 0, BuildingBlock: BEQFEK_clean_sbu_0, # of connection points: 5
#     Edge 8, Type (0, 0), BuildingBlock: ZUJKAS_clean_linker_0, # of connection points: 2
#     Edge 9, Type (0, 0), BuildingBlock: ZUJKAS_clean_linker_0, # of connection points: 2
#     Edge 10, Type (0, 0), BuildingBlock: ZUJKAS_clean_linker_0, # of connection points: 2
#     Edge 11, Type (0, 0), BuildingBlock: ZUJKAS_clean_linker_0, # of connection points: 2
#     Edge 12, Type (0, 0), BuildingBlock: ZUJKAS_clean_linker_0, # of connection points: 2
#     Edge 13, Type (0, 0), BuildingBlock: ZUJKAS_clean_linker_0, # of connection points: 2
#     Edge 14, Type (0, 0), BuildingBlock: ZUJKAS_clean_linker_0, # of connection points: 2
#     Edge 15, Type (0, 0), BuildingBlock: ZUJKAS_clean_linker_0, # of connection points: 2
#     Edge 16, Type (0, 0), BuildingBlock: ZUJKAS_clean_linker_0, # of connection points: 2
#     Edge 17, Type (0, 0), BuildingBlock: ZUJKAS_clean_linker_0, # of connection points: 2
#     Edge 18, Type (0, 0), BuildingBlock: ZUJKAS_clean_linker_0, # of connection points: 2
#     Edge 19, Type (0, 0), BuildingBlock: ZUJKAS_clean_linker_0, # of connection points: 2
#     Edge 20, Type (0, 0), BuildingBlock: ZUJKAS_clean_linker_0, # of connection points: 2
#     Edge 21, Type (0, 0), BuildingBlock: ZUJKAS_clean_linker_0, # of connection points: 2
#     Edge 22, Type (0, 0), BuildingBlock: ZUJKAS_clean_linker_0, # of connection points: 2
#     Edge 23, Type (0, 0), BuildingBlock: ZUJKAS_clean_linker_0, # of connection points: 2
#     Edge 24, Type (0, 0), BuildingBlock: ZUJKAS_clean_linker_0, # of connection points: 2
#     Edge 25, Type (0, 0), BuildingBlock: ZUJKAS_clean_linker_0, # of connection points: 2
#     Edge 26, Type (0, 0), BuildingBlock: ZUJKAS_clean_linker_0, # of connection points: 2
#     Edge 27, Type (0, 0), BuildingBlock: ZUJKAS_clean_linker_0, # of connection points: 2
# Relax obj value: 0.065
# Max RMSD: 0.102
# Mean RMSD: 0.102
data_MOF--net-zfu--node1-BEQFEK_clean_sbu_0--edge1-ZUJKAS_clean_linker_0
_symmetry_space_group_name_H-M    P1
_symmetry_Int_Tables_number       1
_symmetry_cell_setting            triclinic
loop_
_symmetry_equiv_pos_as_xyz
'x, y, z'
_cell_length_a     52.12022
_cell_length_b     52.121415
_cell_length_c     34.237192
_cell_angle_alpha  90.039286
_cell_angle_beta   90.00536
_cell_angle_gamma 90.06035
loop_
_atom_site_label
_atom_site_type_symbol
_atom_site_fract_x
_atom_site_fract_y
_atom_site_fract_z
_atom_type_partial_charge
Co0 Co 0.44222 0.70937 0.06257 0.0
Co1 Co 0.40612 0.75739 0.05858 0.0
C2 C 0.46187 0.76274 0.07775 0.0
O3 O 0.46498 0.73863 0.07452 0.0
O4 O 0.43997 0.77294 0.07219 0.0
C5 C 0.485 0.68011 0.03736 0.0
O6 O 0.48986 0.7012 0.01768 0.0
C7 C 0.38627 0.80548 0.02601 0.0
C8 C 0.34659 0.80596 0.04864 0.0
C9 C 0.36355 0.81946 0.02512 0.0
N10 N 0.38271 0.78475 0.04874 0.0
N11 N 0.35905 0.7853 0.06253 0.0
C12 C 0.41028 0.8102 0.00316 0.0
H13 H 0.42141 0.79217 1.00003 0.0
H14 H 0.40567 0.81805 0.97387 0.0
H15 H 0.42234 0.82435 0.019 0.0
C16 C 0.41937 0.70003 0.98451 0.0
N17 N 0.42309 0.71487 0.01626 0.0
N18 N 0.40804 0.73512 0.01415 0.0
C19 C 0.39436 0.7338 0.98069 0.0
C20 C 0.40118 0.71161 0.9608 0.0
C21 C 0.43231 0.67477 0.97787 0.0
H22 H 0.45284 0.67821 0.97122 0.0
H23 H 0.42379 0.66409 0.95305 0.0
H24 H 0.43115 0.66297 0.00476 0.0
O25 O 0.41846 0.70373 0.10673 0.0
O26 O 0.3928 0.73772 0.1043 0.0
H27 H 0.36142 0.74422 0.94539 0.0
H28 H 0.38106 0.77052 0.96191 0.0
C29 C 0.37295 0.75163 0.9702 0.0
H30 H 0.36019 0.75434 0.99574 0.0
H31 H 0.35122 0.77124 0.08067 0.0
O32 O 0.46483 0.67893 0.05814 0.0
C33 C 0.39961 0.71662 0.12004 0.0
Co34 Co 0.79283 0.9421 0.31154 0.0
Co35 Co 0.74351 0.90771 0.30488 0.0
C36 C 0.73967 0.96322 0.32497 0.0
O37 O 0.76393 0.96539 0.32273 0.0
O38 O 0.72863 0.94182 0.31845 0.0
C39 C 0.82378 0.98285 0.28384 0.0
O40 O 0.80392 0.98613 0.26074 0.0
C41 C 0.69428 0.8889 0.2737 0.0
C42 C 0.69614 0.84771 0.28858 0.0
C43 C 0.68112 0.8658 0.26966 0.0
N44 N 0.71605 0.88448 0.29373 0.0
N45 N 0.71685 0.8599 0.303 0.0
C46 C 0.68792 0.91419 0.25545 0.0
H47 H 0.70546 0.9261 0.25235 0.0
H48 H 0.67891 0.91139 0.22638 0.0
H49 H 0.67418 0.92457 0.27452 0.0
C50 C 0.80303 0.91887 0.23409 0.0
N51 N 0.78765 0.92314 0.26505 0.0
N52 N 0.76654 0.90945 0.26128 0.0
C53 C 0.76764 0.89645 0.22717 0.0
C54 C 0.79082 0.90196 0.20885 0.0
C55 C 0.8302 0.92807 0.23131 0.0
H56 H 0.8388 0.92954 0.26083 0.0
H57 H 0.83047 0.9473 0.21746 0.0
H58 H 0.84202 0.91488 0.21334 0.0
O59 O 0.79703 0.91838 0.35568 0.0
O60 O 0.7622 0.89388 0.35152 0.0
H61 H 0.74541 0.86207 0.23178 0.0
H62 H 0.75045 0.87272 0.18205 0.0
C63 C 0.7469 0.87908 0.21246 0.0
H64 H 0.72836 0.88937 0.21305 0.0
H65 H 0.73194 0.8513 0.31813 0.0
O66 O 0.8236 0.96436 0.30803 0.0
C67 C 0.7832 0.90001 0.36831 0.0
Co68 Co 0.56102 0.29417 0.56004 0.0
Co69 Co 0.5955 0.24476 0.55674 0.0
C70 C 0.53975 0.24211 0.57831 0.0
O71 O 0.53731 0.2662 0.57397 0.0
O72 O 0.56122 0.23113 0.57255 0.0
C73 C 0.51934 0.32471 0.53448 0.0
O74 O 0.51407 0.30382 0.51451 0.0
C75 C 0.61312 0.19495 0.52513 0.0
C76 C 0.6534 0.19422 0.54514 0.0
C77 C 0.6356 0.18061 0.52327 0.0
N78 N 0.61771 0.21625 0.54634 0.0
N79 N 0.64175 0.21551 0.55852 0.0
C80 C 0.58755 0.18836 0.50782 0.0
H81 H 0.57183 0.19705 0.52497 0.0
H82 H 0.5864 0.19607 0.47769 0.0
H83 H 0.58482 0.16725 0.5067 0.0
C84 C 0.58313 0.30148 0.48109 0.0
N85 N 0.5792 0.28719 0.51336 0.0
N86 N 0.5938 0.2666 0.51181 0.0
C87 C 0.60758 0.26726 0.47841 0.0
C88 C 0.60115 0.28928 0.4578 0.0
C89 C 0.57244 0.32784 0.47521 0.0
H90 H 0.57268 0.33854 0.50321 0.0
H91 H 0.55227 0.32624 0.46517 0.0
H92 H 0.58351 0.33876 0.45308 0.0
O93 O 0.58559 0.29938 0.6032 0.0
O94 O 0.61025 0.2646 0.60148 0.0
H95 H 0.64218 0.24671 0.49068 0.0
H96 H 0.63689 0.2526 0.43921 0.0
C97 C 0.62748 0.24788 0.46734 0.0
H98 H 0.61831 0.22885 0.46431 0.0
H99 H 0.65036 0.22981 0.57539 0.0
O100 O 0.53943 0.3253 0.5555 0.0
C101 C 0.60417 0.28615 0.61659 0.0
Co102 Co 0.20952 0.05884 0.808 0.0
Co103 Co 0.25844 0.09401 0.80639 0.0
C104 C 0.26146 0.03788 0.82664 0.0
O105 O 0.23746 0.03515 0.82148 0.0
O106 O 0.27224 0.05961 0.82187 0.0
C107 C 0.17335 0.02096 0.82753 0.0
O108 O 0.18872 0.01909 0.85782 0.0
C109 C 0.30697 0.11245 0.77264 0.0
C110 C 0.31081 0.15065 0.79996 0.0
C111 C 0.32252 0.13419 0.77358 0.0
N112 N 0.28697 0.11621 0.79682 0.0
N113 N 0.28947 0.13902 0.81322 0.0
C114 C 0.31134 0.08804 0.75054 0.0
H115 H 0.30091 0.07191 0.76438 0.0
H116 H 0.30394 0.09015 0.72035 0.0
H117 H 0.33213 0.08356 0.74909 0.0
C118 C 0.20298 0.08047 0.72923 0.0
N119 N 0.21693 0.07717 0.76189 0.0
N120 N 0.2369 0.09263 0.76117 0.0
C121 C 0.2359 0.10679 0.72815 0.0
C122 C 0.21443 0.09944 0.70673 0.0
C123 C 0.17866 0.06625 0.72065 0.0
H124 H 0.16324 0.07341 0.74016 0.0
H125 H 0.18141 0.04554 0.72673 0.0
H126 H 0.17267 0.06866 0.68977 0.0
O127 O 0.20393 0.08306 0.85182 0.0
O128 O 0.23845 0.10817 0.85102 0.0
H129 H 0.25637 0.1402 0.74751 0.0
H130 H 0.24394 0.14265 0.69854 0.0
C131 C 0.25276 0.12947 0.72012 0.0
H132 H 0.27136 0.12274 0.70831 0.0
H133 H 0.27646 0.14675 0.83316 0.0
O134 O 0.17818 0.0377 0.80157 0.0
C135 C 0.21692 0.10169 0.86576 0.0
Co136 Co 0.94165 0.79387 0.75991 0.0
Co137 Co 0.90682 0.74486 0.76579 0.0
C138 C 0.96206 0.74059 0.74458 0.0
O139 O 0.96454 0.76482 0.74719 0.0
O140 O 0.94061 0.72975 0.75134 0.0
C141 C 0.98397 0.82287 0.78619 0.0
O142 O 0.98834 0.80142 0.80521 0.0
C143 C 0.88725 0.69556 0.7956 0.0
C144 C 0.84612 0.69834 0.78058 0.0
C145 C 0.86391 0.68276 0.79913 0.0
N146 N 0.88323 0.71766 0.77627 0.0
N147 N 0.85868 0.71902 0.76692 0.0
C148 C 0.91243 0.68848 0.8136 0.0
H149 H 0.92471 0.70574 0.8171 0.0
H150 H 0.90948 0.67924 0.84245 0.0
H151 H 0.92249 0.67474 0.79416 0.0
C152 C 0.91946 0.80316 0.83825 0.0
N153 N 0.9232 0.78815 0.80671 0.0
N154 N 0.9092 0.76723 0.81003 0.0
C155 C 0.89643 0.76809 0.84434 0.0
C156 C 0.90246 0.79093 0.86332 0.0
C157 C 0.92935 0.83005 0.84179 0.0
H158 H 0.92985 0.83932 0.81268 0.0
H159 H 0.94914 0.82955 0.85369 0.0
H160 H 0.91721 0.84173 0.86158 0.0
O161 O 0.91736 0.79919 0.7166 0.0
O162 O 0.89283 0.76436 0.72022 0.0
H163 H 0.86163 0.74656 0.83923 0.0
H164 H 0.87245 0.75086 0.88906 0.0
C165 C 0.87869 0.74752 0.85854 0.0
H166 H 0.88864 0.72881 0.85742 0.0
H167 H 0.85037 0.73444 0.7522 0.0
O168 O 0.96417 0.82441 0.76463 0.0
C169 C 0.89876 0.78561 0.70406 0.0
Co170 Co 0.70997 0.44308 0.01345 0.0
Co171 Co 0.75866 0.40765 0.01685 0.0
C172 C 0.76241 0.46361 0.99637 0.0
O173 O 0.73838 0.46646 1.0007 0.0
O174 O 0.77297 0.44186 1.00157 0.0
C175 C 0.68055 0.48596 0.03677 0.0
O176 O 0.70225 0.49191 0.0541 0.0
C177 C 0.80672 0.38942 0.05225 0.0
C178 C 0.81105 0.35118 0.02523 0.0
C179 C 0.82238 0.36778 0.05185 0.0
N180 N 0.78702 0.38548 0.02753 0.0
N181 N 0.78981 0.36265 0.01134 0.0
C182 C 0.8107 0.4139 0.07436 0.0
H183 H 0.80016 0.42988 0.06041 0.0
H184 H 0.80318 0.4117 0.10447 0.0
H185 H 0.83143 0.41866 0.07604 0.0
C186 C 0.70179 0.42072 0.09199 0.0
N187 N 0.71634 0.42447 0.05996 0.0
N188 N 0.73637 0.40911 0.06126 0.0
C189 C 0.73488 0.39471 0.09398 0.0
C190 C 0.71302 0.40171 0.11464 0.0
C191 C 0.6773 0.43475 0.10003 0.0
H192 H 0.68143 0.45553 0.10236 0.0
H193 H 0.66818 0.42857 0.1277 0.0
H194 H 0.66378 0.43183 0.07538 0.0
O195 O 0.70494 0.41881 0.9694 0.0
O196 O 0.73925 0.3935 0.97162 0.0
H197 H 0.74279 0.35888 0.12377 0.0
H198 H 0.77025 0.37886 0.11428 0.0
C199 C 0.7517 0.37208 0.10229 0.0
H200 H 0.75544 0.36132 0.07497 0.0
H201 H 0.77709 0.3548 0.99104 0.0
O202 O 0.67895 0.46496 0.01801 0.0
C203 C 0.71802 0.40009 0.95603 0.0
Co204 Co 0.06032 0.20876 0.26335 0.0
Co205 Co 0.09586 0.25742 0.26532 0.0
C206 C 0.03958 0.26119 0.24712 0.0
O207 O 0.03688 0.23709 0.2509 0.0
O208 O 0.06132 0.27184 0.25222 0.0
C209 C 0.01742 0.17912 0.28697 0.0
O210 O 0.01118 0.2008 0.3041 0.0
C211 C 0.1154 0.30507 0.30045 0.0
C212 C 0.15106 0.31156 0.26701 0.0
C213 C 0.13611 0.32167 0.29673 0.0
N214 N 0.11817 0.28592 0.27442 0.0
N215 N 0.13949 0.28997 0.25446 0.0
C216 C 0.09248 0.30816 0.32639 0.0
H217 H 0.07645 0.29584 0.3163 0.0
H218 H 0.09747 0.30245 0.35662 0.0
H219 H 0.08638 0.32856 0.32705 0.0
C220 C 0.08384 0.20073 0.34101 0.0
N221 N 0.07968 0.21528 0.30914 0.0
N222 N 0.09525 0.23521 0.30983 0.0
C223 C 0.1102 0.23362 0.34199 0.0
C224 C 0.1033 0.21186 0.36292 0.0
C225 C 0.06991 0.17622 0.34943 0.0
H226 H 0.07274 0.16263 0.32485 0.0
H227 H 0.04911 0.18026 0.3519 0.0
H228 H 0.07632 0.16723 0.37707 0.0
O229 O 0.08388 0.20344 0.21878 0.0
O230 O 0.10914 0.23784 0.21951 0.0
H231 H 0.14278 0.25505 0.32157 0.0
H232 H 0.14723 0.24033 0.36876 0.0
C233 C 0.13321 0.25013 0.34948 0.0
H234 H 0.12709 0.26808 0.36406 0.0
H235 H 0.14615 0.27799 0.23222 0.0
O236 O 0.03855 0.1777 0.26856 0.0
C237 C 0.10235 0.21647 0.20452 0.0
Co238 Co 0.29322 0.55965 0.51519 0.0
Co239 Co 0.24368 0.59398 0.51884 0.0
C240 C 0.24091 0.53795 0.4994 0.0
O241 O 0.26499 0.53547 0.50395 0.0
O242 O 0.23003 0.55962 0.50369 0.0
C243 C 0.32459 0.51931 0.54325 0.0
O244 O 0.30441 0.51518 0.56541 0.0
C245 C 0.19328 0.61207 0.5481 0.0
C246 C 0.19466 0.65304 0.53176 0.0
C247 C 0.17973 0.63498 0.5509 0.0
N248 N 0.21544 0.61662 0.52904 0.0
N249 N 0.21595 0.64109 0.51901 0.0
C250 C 0.18513 0.5862 0.56256 0.0
H251 H 0.19191 0.57098 0.5426 0.0
H252 H 0.1937 0.58269 0.59172 0.0
H253 H 0.16393 0.58493 0.56496 0.0
C254 C 0.30171 0.58338 0.59282 0.0
N255 N 0.28701 0.57881 0.56119 0.0
N256 N 0.26588 0.59258 0.56354 0.0
C257 C 0.26636 0.60604 0.59727 0.0
C258 C 0.28909 0.60066 0.61693 0.0
C259 C 0.32873 0.57406 0.59729 0.0
H260 H 0.33816 0.5728 0.56835 0.0
H261 H 0.32848 0.55469 0.6107 0.0
H262 H 0.34012 0.58703 0.61629 0.0
O263 O 0.29767 0.58327 0.47067 0.0
O264 O 0.26315 0.60823 0.47341 0.0
H265 H 0.24482 0.64061 0.59003 0.0
H266 H 0.24865 0.63088 0.64044 0.0
C267 C 0.24561 0.62397 0.61017 0.0
H268 H 0.22693 0.61394 0.60908 0.0
H269 H 0.23111 0.64977 0.5041 0.0
O270 O 0.32442 0.53817 0.51975 0.0
C271 C 0.28433 0.60182 0.45747 0.0
H272 H 0.67287 0.52464 0.08902 0.0
H273 H 0.63742 0.55524 0.09084 0.0
H274 H 0.60372 0.51889 0.9898 0.0
H275 H 0.63859 0.48753 0.9889 0.0
H276 H 0.62498 0.58978 0.03953 0.0
H277 H 0.54182 0.52477 0.05758 0.0
H278 H 0.57445 0.51394 0.06334 0.0
H279 H 0.56054 0.51679 0.01537 0.0
C280 C 0.65773 0.52297 0.06748 0.0
C281 C 0.65846 0.50366 0.03887 0.0
C282 C 0.63748 0.54048 0.06854 0.0
C283 C 0.61766 0.5392 0.0408 0.0
C284 C 0.61834 0.51986 0.01221 0.0
H285 H 0.5229 0.67136 0.98405 0.0
H286 H 0.55427 0.63653 0.98389 0.0
C287 C 0.6384 0.50205 0.01154 0.0
C288 C 0.59725 0.55909 0.04048 0.0
H289 H 0.53234 0.568 0.03931 0.0
C290 C 0.60472 0.58498 0.03975 0.0
C291 C 0.5708 0.5529 0.04128 0.0
C292 C 0.56141 0.5256 0.04486 0.0
C293 C 0.58656 0.60482 0.03944 0.0
C294 C 0.56012 0.59861 0.03832 0.0
C295 C 0.55261 0.57274 0.03957 0.0
C296 C 0.54 0.61874 0.03676 0.0
C297 C 0.59599 0.63219 0.04131 0.0
C298 C 0.5207 0.6196 0.06535 0.0
C299 C 0.50239 0.63918 0.065 0.0
C300 C 0.50318 0.65838 0.0362 0.0
C301 C 0.52204 0.65706 0.00695 0.0
C302 C 0.54009 0.63725 0.00697 0.0
H303 H 0.61557 0.63339 0.05406 0.0
H304 H 0.59692 0.64017 0.01131 0.0
H305 H 0.58295 0.64437 0.05901 0.0
H306 H 0.52013 0.60542 0.08847 0.0
H307 H 0.48805 0.63966 0.08789 0.0
H308 H 0.0184 0.13606 0.24127 0.0
H309 H 0.98679 0.10132 0.2395 0.0
H310 H 0.94517 0.13705 0.33385 0.0
H311 H 0.97615 0.17226 0.33487 0.0
H312 H 0.97115 0.06631 0.29152 0.0
H313 H 0.88955 0.12948 0.25348 0.0
H314 H 0.92235 0.14049 0.2526 0.0
H315 H 0.90496 0.13904 0.298 0.0
C316 C 0.00254 0.13648 0.2617 0.0
C317 C 0.99957 0.15706 0.28789 0.0
C318 C 0.9845 0.11661 0.26066 0.0
C319 C 0.96327 0.11689 0.28591 0.0
C320 C 0.96094 0.13683 0.31327 0.0
H321 H 0.86194 0.98906 0.33781 0.0
H322 H 0.89665 0.02061 0.33691 0.0
C323 C 0.97876 0.15686 0.31399 0.0
C324 C 0.94346 0.09649 0.28339 0.0
H325 H 0.8791 0.08679 0.27239 0.0
C326 C 0.95103 0.07076 0.28711 0.0
C327 C 0.91728 0.10226 0.27683 0.0
C328 C 0.90806 0.12929 0.26957 0.0
C329 C 0.93307 0.05068 0.2853 0.0
C330 C 0.90672 0.05656 0.28076 0.0
C331 C 0.89925 0.08227 0.27628 0.0
C332 C 0.88645 0.03651 0.28058 0.0
C333 C 0.94261 0.02339 0.28753 0.0
C334 C 0.86875 0.0353 0.24969 0.0
C335 C 0.84857 0.01765 0.25054 0.0
C336 C 0.84578 1.00074 0.2822 0.0
C337 C 0.86372 0.00168 0.31283 0.0
C338 C 0.88371 0.01959 0.31221 0.0
H339 H 0.963 0.02195 0.27829 0.0
H340 H 0.94137 0.01663 0.31819 0.0
H341 H 0.93093 0.0104 0.26892 0.0
H342 H 0.87042 0.04821 0.22503 0.0
H343 H 0.8351 0.01734 0.22645 0.0
H344 H 0.51888 0.36618 0.58345 0.0
H345 H 0.48707 0.40061 0.58605 0.0
H346 H 0.44801 0.36784 0.48673 0.0
H347 H 0.47924 0.33291 0.48472 0.0
H348 H 0.47257 0.43719 0.53539 0.0
H349 H 0.39054 0.3724 0.56499 0.0
H350 H 0.42338 0.36163 0.56689 0.0
H351 H 0.40708 0.36437 0.52072 0.0
C352 C 0.50355 0.36633 0.56209 0.0
C353 C 0.50138 0.34665 0.53416 0.0
C354 C 0.4854 0.38603 0.56361 0.0
C355 C 0.46483 0.38647 0.53715 0.0
C356 C 0.46328 0.36747 0.50817 0.0
H357 H 0.36367 0.51505 0.49044 0.0
H358 H 0.39854 0.48377 0.49044 0.0
C359 C 0.48125 0.34761 0.5069 0.0
C360 C 0.44487 0.40666 0.54015 0.0
H361 H 0.38031 0.41565 0.54935 0.0
C362 C 0.4524 0.43251 0.53864 0.0
C363 C 0.41861 0.40054 0.5452 0.0
C364 C 0.40942 0.37324 0.54997 0.0
C365 C 0.43432 0.45242 0.54123 0.0
C366 C 0.40794 0.44625 0.54435 0.0
C367 C 0.4005 0.4204 0.54659 0.0
C368 C 0.38761 0.46617 0.54527 0.0
C369 C 0.44377 0.47979 0.54135 0.0
C370 C 0.36947 0.46637 0.57561 0.0
C371 C 0.34921 0.4839 0.57527 0.0
C372 C 0.34677 0.50168 0.54466 0.0
C373 C 0.36517 0.50176 0.51464 0.0
C374 C 0.38524 0.48399 0.51473 0.0
H375 H 0.46402 0.48106 0.55137 0.0
H376 H 0.44293 0.48753 0.51119 0.0
H377 H 0.43178 0.49211 0.56049 0.0
H378 H 0.37085 0.45276 0.59941 0.0
H379 H 0.33538 0.48341 0.59886 0.0
H380 H 0.98264 0.86869 0.74699 0.0
H381 H 0.01364 0.90395 0.75113 0.0
H382 H 0.05654 0.86198 0.83775 0.0
H383 H 0.02604 0.82654 0.83332 0.0
H384 H 0.02846 0.93418 0.8137 0.0
H385 H 0.11117 0.87883 0.75696 0.0
H386 H 0.07854 0.86748 0.7531 0.0
H387 H 0.09606 0.8637 0.79803 0.0
C388 C 0.9987 0.86695 0.76688 0.0
C389 C 0.00201 0.8447 0.78955 0.0
C390 C 0.01637 0.88712 0.76922 0.0
C391 C 0.03766 0.88535 0.79416 0.0
C392 C 0.04061 0.86347 0.81758 0.0
H393 H 0.16186 0.97961 0.87307 0.0
H394 H 0.12766 0.94815 0.86332 0.0
C395 C 0.02305 0.84328 0.81516 0.0
C396 C 0.05676 0.9064 0.79608 0.0
H397 H 0.12082 0.91897 0.78736 0.0
C398 C 0.04861 0.93096 0.80754 0.0
C399 C 0.08302 0.90217 0.78772 0.0
C400 C 0.09271 0.87669 0.77288 0.0
C401 C 0.06622 0.95114 0.81232 0.0
C402 C 0.09253 0.94659 0.80531 0.0
C403 C 0.1006 0.92226 0.79297 0.0
C404 C 0.1122 0.96656 0.8119 0.0
C405 C 0.05683 0.977 0.82596 0.0
C406 C 0.11473 0.98732 0.78613 0.0
C407 C 0.13439 0.0053 0.79145 0.0
C408 C 0.15174 0.0028 0.82272 0.0
C409 C 0.14881 0.98215 0.84877 0.0
C410 C 0.1293 0.96413 0.84325 0.0
H411 H 0.03628 0.97657 0.83454 0.0
H412 H 0.06841 0.9837 0.85123 0.0
H413 H 0.05925 0.99119 0.8021 0.0
H414 H 0.10181 0.98932 0.76154 0.0
H415 H 0.13615 0.02097 0.77085 0.0
H416 H 0.32712 0.59161 0.41416 0.0
H417 H 0.34245 0.6141 0.35628 0.0
H418 H 0.27837 0.66612 0.36311 0.0
H419 H 0.26277 0.64377 0.4215 0.0
H420 H 0.31424 0.62134 0.2846 0.0
H421 H 0.34286 0.71344 0.35494 0.0
H422 H 0.33815 0.68431 0.3826 0.0
H423 H 0.31098 0.70177 0.36459 0.0
C424 C 0.31626 0.6079 0.4036 0.0
C425 C 0.29369 0.61589 0.4226 0.0
C426 C 0.32507 0.6207 0.37043 0.0
C427 C 0.31167 0.64187 0.35565 0.0
C428 C 0.28916 0.65001 0.37442 0.0
H429 H 0.3569 0.73708 0.15528 0.0
H430 H 0.33311 0.71973 0.21111 0.0
C431 C 0.28024 0.63714 0.40766 0.0
C432 C 0.32117 0.6548 0.31997 0.0
H433 H 0.35 0.70959 0.28729 0.0
C434 C 0.3219 0.64071 0.28507 0.0
C435 C 0.33092 0.68011 0.3207 0.0
C436 C 0.33092 0.69586 0.35769 0.0
C437 C 0.33261 0.65107 0.25098 0.0
C438 C 0.34339 0.67598 0.25209 0.0
C439 C 0.34182 0.69045 0.28661 0.0
C440 C 0.3577 0.68667 0.2184 0.0
C441 C 0.33237 0.63519 0.21411 0.0
C442 C 0.37965 0.67408 0.2045 0.0
C443 C 0.39323 0.68386 0.17268 0.0
C444 C 0.38528 0.70662 0.15424 0.0
C445 C 0.36351 0.71948 0.1687 0.0
C446 C 0.34989 0.70961 0.20059 0.0
H447 H 0.31689 0.62051 0.21476 0.0
H448 H 0.3297 0.64742 0.18789 0.0
H449 H 0.35095 0.62499 0.21128 0.0
H450 H 0.38637 0.65667 0.2184 0.0
H451 H 0.41 0.67353 0.16261 0.0
H452 H 0.7618 0.85693 0.40147 0.0
H453 H 0.77624 0.83436 0.46044 0.0
H454 H 0.83825 0.88848 0.47345 0.0
H455 H 0.82415 0.91108 0.41504 0.0
H456 H 0.8274 0.81265 0.47552 0.0
H457 H 0.80035 0.88893 0.5807 0.0
H458 H 0.78703 0.88698 0.53206 0.0
H459 H 0.81849 0.90027 0.53956 0.0
C460 C 0.77847 0.86405 0.41695 0.0
C461 C 0.79174 0.8859 0.40358 0.0
C462 C 0.78668 0.85112 0.45056 0.0
C463 C 0.80806 0.86002 0.4715 0.0
C464 C 0.82145 0.88159 0.45801 0.0
H465 H 0.90682 0.82917 0.66147 0.0
H466 H 0.88224 0.84475 0.60579 0.0
C467 C 0.8134 0.8944 0.42446 0.0
C468 C 0.81696 0.84675 0.50719 0.0
H469 H 0.82978 0.85719 0.60361 0.0
C470 C 0.82756 0.82212 0.50374 0.0
C471 C 0.81704 0.85921 0.54386 0.0
C472 C 0.80491 0.88522 0.5495 0.0
C473 C 0.83963 0.81021 0.53565 0.0
C474 C 0.84068 0.8232 0.57193 0.0
C475 C 0.82905 0.84734 0.5757 0.0
C476 C 0.8554 0.81307 0.60556 0.0
C477 C 0.85229 0.78448 0.52982 0.0
C478 C 0.84836 0.79011 0.62407 0.0
C479 C 0.86245 0.78104 0.65602 0.0
C480 C 0.88375 0.79489 0.67009 0.0
C481 C 0.89058 0.81796 0.65148 0.0
C482 C 0.87653 0.82695 0.61963 0.0
H483 H 0.85388 0.77931 0.49843 0.0
H484 H 0.87179 0.78437 0.54292 0.0
H485 H 0.84075 0.76946 0.54461 0.0
H486 H 0.83184 0.77933 0.61405 0.0
H487 H 0.85657 0.76328 0.66978 0.0
H488 H 0.67554 0.41089 0.91219 0.0
H489 H 0.6603 0.38858 0.85394 0.0
H490 H 0.72344 0.3355 0.86204 0.0
H491 H 0.73894 0.35766 0.92064 0.0
H492 H 0.68966 0.38069 0.78273 0.0
H493 H 0.65794 0.28942 0.85229 0.0
H494 H 0.66264 0.31857 0.87996 0.0
H495 H 0.68983 0.30055 0.86332 0.0
C496 C 0.68618 0.39439 0.90183 0.0
C497 C 0.70847 0.38606 0.92121 0.0
C498 C 0.67743 0.38169 0.86847 0.0
C499 C 0.69063 0.3603 0.85394 0.0
C500 C 0.71282 0.3518 0.87315 0.0
H501 H 0.6462 0.26493 0.65286 0.0
H502 H 0.6699 0.28214 0.709 0.0
C503 C 0.72168 0.36456 0.90652 0.0
C504 C 0.68137 0.34752 0.81797 0.0
H505 H 0.65221 0.29313 0.7843 0.0
C506 C 0.68162 0.36148 0.78297 0.0
C507 C 0.67115 0.32239 0.8184 0.0
C508 C 0.67014 0.30679 0.85547 0.0
C509 C 0.67145 0.35116 0.74844 0.0
C510 C 0.6602 0.32645 0.74918 0.0
C511 C 0.66078 0.3121 0.78387 0.0
C512 C 0.6462 0.31597 0.71501 0.0
C513 C 0.67279 0.36688 0.71149 0.0
C514 C 0.62483 0.32908 0.70024 0.0
C515 C 0.61133 0.3194 0.66828 0.0
C516 C 0.61876 0.29621 0.65052 0.0
C517 C 0.64001 0.28288 0.66572 0.0
C518 C 0.65357 0.29266 0.69779 0.0
H519 H 0.68866 0.38111 0.7127 0.0
H520 H 0.67556 0.35447 0.68544 0.0
H521 H 0.65457 0.3776 0.70786 0.0
H522 H 0.61842 0.34677 0.71367 0.0
H523 H 0.59496 0.3301 0.65765 0.0
H524 H 0.17279 0.09199 0.90631 0.0
H525 H 0.15668 0.11418 0.96406 0.0
H526 H 0.22202 0.16494 0.96186 0.0
H527 H 0.23835 0.14295 0.9037 0.0
H528 H 0.18334 0.11968 0.03694 0.0
H529 H 0.15916 0.21376 0.96943 0.0
H530 H 0.16382 0.18503 0.94076 0.0
H531 H 0.19097 0.20165 0.96083 0.0
C532 C 0.18373 0.10796 0.91785 0.0
C533 C 0.20688 0.11569 0.90025 0.0
C534 C 0.17448 0.1206 0.95092 0.0
C535 C 0.18804 0.14132 0.96697 0.0
C536 C 0.21109 0.14922 0.94953 0.0
H537 H 0.14567 0.23576 0.16935 0.0
H538 H 0.1686 0.21805 0.11294 0.0
C539 C 0.22043 0.13654 0.91641 0.0
C540 C 0.17828 0.15394 0.00275 0.0
H541 H 0.15178 0.20945 0.03704 0.0
C542 C 0.17654 0.13934 0.03705 0.0
C543 C 0.16968 0.17966 0.00281 0.0
C544 C 0.17077 0.196 0.9665 0.0
C545 C 0.16606 0.14965 0.07136 0.0
C546 C 0.15653 0.17506 0.07107 0.0
C547 C 0.15901 0.18995 0.03711 0.0
C548 C 0.14271 0.18598 0.10508 0.0
C549 C 0.16537 0.13321 0.10762 0.0
C550 C 0.12033 0.17409 0.11885 0.0
C551 C 0.10728 0.18404 0.15105 0.0
C552 C 0.11617 0.20631 0.16995 0.0
C553 C 0.13833 0.21854 0.15557 0.0
C554 C 0.15146 0.20846 0.12335 0.0
H555 H 0.18021 0.11793 0.10664 0.0
H556 H 0.16836 0.14491 0.13436 0.0
H557 H 0.14636 0.12372 0.10976 0.0
H558 H 0.11285 0.1571 0.10456 0.0
H559 H 0.09014 0.17425 0.161 0.0
H560 H 0.29176 0.65174 0.63443 0.0
H561 H 0.30993 0.67157 0.69333 0.0
H562 H 0.32874 0.5967 0.73838 0.0
H563 H 0.30991 0.57672 0.68001 0.0
H564 H 0.29584 0.65649 0.78023 0.0
H565 H 0.39753 0.64451 0.73341 0.0
H566 H 0.37141 0.64626 0.69877 0.0
H567 H 0.37598 0.61775 0.72715 0.0
C568 C 0.29934 0.63952 0.65725 0.0
C569 C 0.29921 0.61271 0.65299 0.0
C570 C 0.30984 0.65085 0.69066 0.0
C571 C 0.32069 0.63555 0.71998 0.0
C572 C 0.32051 0.60878 0.7159 0.0
H573 H 0.37399 0.66732 0.95427 0.0
H574 H 0.35376 0.64964 0.89527 0.0
C575 C 0.30982 0.59743 0.68265 0.0
C576 C 0.3325 0.64759 0.75471 0.0
H577 H 0.39037 0.66146 0.79646 0.0
C578 C 0.31649 0.65764 0.78385 0.0
C579 C 0.35941 0.64916 0.75899 0.0
C580 C 0.37724 0.639 0.72794 0.0
C581 C 0.3268 0.6689 0.81768 0.0
C582 C 0.35373 0.67007 0.82229 0.0
C583 C 0.36972 0.66043 0.79279 0.0
C584 C 0.36565 0.68091 0.85787 0.0
C585 C 0.30891 0.67959 0.84823 0.0
C586 C 0.37914 0.7042 0.85615 0.0
C587 C 0.39061 0.7143 0.88976 0.0
C588 C 0.38907 0.701 0.9253 0.0
C589 C 0.37559 0.67771 0.92699 0.0
C590 C 0.36396 0.66772 0.89349 0.0
H591 H 0.28894 0.68137 0.83721 0.0
H592 H 0.30877 0.66664 0.87395 0.0
H593 H 0.31563 0.69874 0.85819 0.0
H594 H 0.38065 0.7146 0.82885 0.0
H595 H 0.40085 0.73237 0.88801 0.0
H596 H 0.79266 0.85125 0.18875 0.0
H597 H 0.81126 0.8324 0.12972 0.0
H598 H 0.83367 0.90779 0.09028 0.0
H599 H 0.81372 0.92679 0.14827 0.0
H600 H 0.81409 0.88066 0.0318 0.0
H601 H 0.88608 0.82123 0.10878 0.0
H602 H 0.85393 0.8142 0.12409 0.0
H603 H 0.8674 0.84545 0.1334 0.0
C604 C 0.80118 0.8638 0.16714 0.0
C605 C 0.80159 0.89048 0.17283 0.0
C606 C 0.8122 0.85299 0.13375 0.0
C607 C 0.82436 0.86862 0.10593 0.0
C608 C 0.82455 0.89532 0.11145 0.0
H609 H 0.92747 0.81258 0.92491 0.0
H610 H 0.90853 0.83228 0.98321 0.0
C611 C 0.81326 0.90615 0.14461 0.0
C612 C 0.8365 0.85723 0.07073 0.0
H613 H 0.88043 0.81277 0.04087 0.0
C614 C 0.82869 0.86591 0.03379 0.0
C615 C 0.85589 0.83829 0.07331 0.0
C616 C 0.86653 0.82944 0.11203 0.0
C617 C 0.8394 0.8559 0.99938 0.0
C618 C 0.85788 0.83608 1.00195 0.0
C619 C 0.86601 0.82771 0.03889 0.0
C620 C 0.86927 0.824 0.9667 0.0
C621 C 0.83118 0.86713 0.96073 0.0
C622 C 0.85356 0.81249 0.93832 0.0
C623 C 0.86434 0.80163 0.9048 0.0
C624 C 0.89106 0.80154 0.8995 0.0
C625 C 0.90681 0.81251 0.92829 0.0
C626 C 0.89601 0.82365 0.9616 0.0
H627 H 0.82341 0.88684 0.96428 0.0
H628 H 0.8474 0.86783 0.93975 0.0
H629 H 0.81576 0.85503 0.94802 0.0
H630 H 0.83294 0.81196 0.942 0.0
H631 H 0.85174 0.79363 0.88277 0.0
H632 H 0.73687 0.39355 0.18426 0.0
H633 H 0.71917 0.37247 0.24252 0.0
H634 H 0.64735 0.36101 0.18223 0.0
H635 H 0.66535 0.38108 0.12369 0.0
H636 H 0.67816 0.3865 0.28698 0.0
H637 H 0.66114 0.29 0.22409 0.0
H638 H 0.68047 0.31389 0.1998 0.0
H639 H 0.64602 0.31505 0.19657 0.0
C640 C 0.71738 0.38632 0.18353 0.0
C641 C 0.70234 0.38911 0.1498 0.0
C642 C 0.70728 0.37436 0.21673 0.0
C643 C 0.68204 0.36486 0.21657 0.0
C644 C 0.66702 0.36771 0.18281 0.0
H645 H 0.57796 0.30273 0.38978 0.0
H646 H 0.59821 0.32109 0.33121 0.0
C647 C 0.67717 0.3795 0.14959 0.0
C648 C 0.67108 0.35281 0.25212 0.0
H649 H 0.64149 0.29861 0.28575 0.0
C650 C 0.67036 0.3672 0.2868 0.0
C651 C 0.6609 0.32761 0.25185 0.0
C652 C 0.66237 0.31064 0.21619 0.0
C653 C 0.65918 0.3573 0.32093 0.0
C654 C 0.64863 0.33232 0.32039 0.0
C655 C 0.6495 0.31783 0.2859 0.0
C656 C 0.63655 0.32092 0.35544 0.0
C657 C 0.65821 0.3738 0.35712 0.0
C658 C 0.65149 0.31457 0.38812 0.0
C659 C 0.64 0.30403 0.42132 0.0
C660 C 0.61343 0.29961 0.42223 0.0
C661 C 0.5985 0.3059 0.38952 0.0
C662 C 0.61002 0.31632 0.35621 0.0
H663 H 0.66275 0.3942 0.35071 0.0
H664 H 0.63894 0.37277 0.37088 0.0
H665 H 0.67242 0.36662 0.37862 0.0
H666 H 0.67202 0.31782 0.38793 0.0
H667 H 0.6518 0.2996 0.44647 0.0
H668 H 0.12506 0.16472 0.37084 0.0
H669 H 0.14515 0.14652 0.42932 0.0
H670 H 0.13109 0.2171 0.49161 0.0
H671 H 0.11113 0.23541 0.43284 0.0
H672 H 0.17996 0.19737 0.50451 0.0
H673 H 0.10562 0.12238 0.52551 0.0
H674 H 0.12018 0.12189 0.478 0.0
H675 H 0.10132 0.14911 0.49269 0.0
C676 C 0.12613 0.17622 0.39716 0.0
C677 C 0.11614 0.20121 0.39782 0.0
C678 C 0.13757 0.16584 0.43048 0.0
C679 C 0.1391 0.18026 0.46505 0.0
C680 C 0.1299 0.20558 0.46532 0.0
H681 H 0.16654 0.11903 0.6966 0.0
H682 H 0.149 0.13954 0.63808 0.0
C683 C 0.11851 0.216 0.43189 0.0
C684 C 0.15016 0.16883 0.50095 0.0
H685 H 0.14281 0.11933 0.56523 0.0
C686 C 0.17183 0.18035 0.5179 0.0
C687 C 0.13928 0.14683 0.51862 0.0
C688 C 0.11517 0.13444 0.50304 0.0
C689 C 0.18317 0.1702 0.55176 0.0
C690 C 0.17279 0.1477 0.56867 0.0
C691 C 0.1509 0.13642 0.552 0.0
C692 C 0.18387 0.1358 0.60422 0.0
C693 C 0.20584 0.18394 0.56953 0.0
C694 C 0.20925 0.12673 0.60454 0.0
C695 C 0.21927 0.11499 0.63796 0.0
C696 C 0.20395 0.11186 0.67135 0.0
C697 C 0.1786 0.1209 0.67099 0.0
C698 C 0.16862 0.1327 0.63769 0.0
H699 H 0.20708 0.20417 0.55945 0.0
H700 H 0.20476 0.18379 0.60192 0.0
H701 H 0.22376 0.17405 0.56067 0.0
H702 H 0.22119 0.12843 0.57879 0.0
H703 H 0.23885 0.10806 0.63762 0.0
H704 H 0.31754 0.83089 0.99271 0.0
H705 H 0.3054 0.86944 0.95673 0.0
H706 H 0.38195 0.89953 0.97066 0.0
H707 H 0.39422 0.86103 0.0071 0.0
H708 H 0.30726 0.91974 0.98535 0.0
H709 H 0.36794 0.90858 0.85264 0.0
H710 H 0.36143 0.88227 0.88549 0.0
H711 H 0.38418 0.9066 0.89889 0.0
C712 C 0.33187 0.84563 0.98794 0.0
C713 C 0.35698 0.84265 0.00216 0.0
C714 C 0.32491 0.86761 0.96729 0.0
C715 C 0.34287 0.88716 0.96047 0.0
C716 C 0.36797 0.88438 0.97473 0.0
H717 H 0.31208 0.03654 0.84966 0.0
H718 H 0.33446 1.00081 0.88165 0.0
C719 C 0.37498 0.86229 0.99542 0.0
C720 C 0.33463 0.9109 0.94023 0.0
H721 H 0.34198 0.94564 0.85628 0.0
C722 C 0.31497 0.92547 0.95724 0.0
C723 C 0.34486 0.91843 0.90369 0.0
C724 C 0.36565 0.90312 0.88381 0.0
C725 C 0.30484 0.94705 0.93836 0.0
C726 C 0.3144 0.95406 0.90123 0.0
C727 C 0.3347 0.9401 0.88473 0.0
C728 C 0.30219 0.9748 0.87834 0.0
C729 C 0.28373 0.96205 0.95807 0.0
C730 C 0.27701 0.97162 0.86487 0.0
C731 C 0.26422 0.99183 0.84667 0.0
C732 C 0.27638 0.01571 0.84148 0.0
C733 C 0.30212 0.01845 0.85331 0.0
C734 C 0.31494 0.99809 0.87158 0.0
H735 H 0.28295 0.95816 0.98995 0.0
H736 H 0.28636 0.98298 0.95351 0.0
H737 H 0.26499 0.95646 0.9452 0.0
H738 H 0.26698 0.95364 0.86938 0.0
H739 H 0.24451 0.98889 0.83768 0.0
H740 H 0.51162 0.74768 0.08712 0.0
H741 H 0.54701 0.77225 0.11486 0.0
H742 H 0.49795 0.83843 0.12566 0.0
H743 H 0.46208 0.81382 0.09816 0.0
H744 H 0.57023 0.81901 0.09118 0.0
H745 H 0.5246 0.82636 0.2379 0.0
H746 H 0.51324 0.80431 0.20108 0.0
H747 H 0.50625 0.83792 0.19708 0.0
C748 C 0.50828 0.76751 0.09511 0.0
C749 C 0.48387 0.77868 0.09077 0.0
C750 C 0.5286 0.78155 0.11091 0.0
C751 C 0.525 0.80701 0.12287 0.0
C752 C 0.50099 0.81864 0.11721 0.0
H753 H 0.63768 0.89534 0.26008 0.0
H754 H 0.59949 0.88479 0.22139 0.0
C755 C 0.48057 0.80458 0.10128 0.0
C756 C 0.54636 0.82078 0.14242 0.0
H757 H 0.56631 0.84286 0.23137 0.0
C758 C 0.56929 0.82451 0.12171 0.0
C759 C 0.54504 0.82801 0.18222 0.0
C760 C 0.52107 0.82385 0.20612 0.0
C761 C 0.59118 0.83462 0.14 0.0
C762 C 0.59023 0.84073 0.18024 0.0
C763 C 0.56698 0.8381 0.20054 0.0
C764 C 0.61362 0.8478 0.20247 0.0
C765 C 0.61524 0.83838 0.11619 0.0
C766 C 0.63401 0.83035 0.20517 0.0
C767 C 0.65582 0.83637 0.22698 0.0
C768 C 0.65776 0.86 0.24654 0.0
C769 C 0.63715 0.87734 0.24435 0.0
C770 C 0.61522 0.87125 0.22255 0.0
H771 H 0.6108 0.84052 0.08462 0.0
H772 H 0.6261 0.85553 0.12611 0.0
H773 H 0.62776 0.82131 0.11959 0.0
H774 H 0.63292 0.81187 0.19076 0.0
H775 H 0.67128 0.82252 0.22832 0.0
H776 H 0.75764 0.01083 0.34369 0.0
H777 H 0.73411 0.0463 0.37274 0.0
H778 H 0.6639 0.00268 0.36557 0.0
H779 H 0.68753 0.96653 0.33714 0.0
H780 H 0.69427 0.07547 0.34777 0.0
H781 H 0.66709 0.0209 0.48104 0.0
H782 H 0.69024 0.00904 0.4463 0.0
H783 H 0.65652 0.00714 0.43569 0.0
C784 C 0.73716 0.0087 0.34801 0.0
C785 C 0.72455 0.98564 0.33846 0.0
C786 C 0.72371 0.02909 0.36461 0.0
C787 C 0.69734 0.02699 0.37202 0.0
C788 C 0.68437 0.00449 0.36093 0.0
H789 H 0.61639 0.16532 0.45181 0.0
H790 H 0.62767 0.12698 0.4148 0.0
C791 C 0.69788 0.98392 0.34442 0.0
C792 C 0.68397 0.04828 0.39239 0.0
H793 H 0.65368 0.06394 0.47762 0.0
C794 C 0.68516 0.07294 0.376 0.0
C795 C 0.67242 0.04496 0.42947 0.0
C796 C 0.67161 0.01916 0.44944 0.0
C797 C 0.67572 0.09446 0.39604 0.0
C798 C 0.66414 0.09114 0.4331 0.0
C799 C 0.6624 0.0664 0.44909 0.0
C800 C 0.65539 0.11327 0.45693 0.0
C801 C 0.67935 0.12067 0.37808 0.0
C802 C 0.66644 0.11782 0.49368 0.0
C803 C 0.65947 0.13939 0.51547 0.0
C804 C 0.64115 0.15677 0.50113 0.0
C805 C 0.62983 0.15196 0.46453 0.0
C806 C 0.63667 0.13025 0.44287 0.0
H807 H 0.69403 0.12047 0.35455 0.0
H808 H 0.66095 0.12709 0.36506 0.0
H809 H 0.68521 0.13493 0.40048 0.0
H810 H 0.68094 0.10498 0.50512 0.0
H811 H 0.66864 0.14261 0.54345 0.0
H812 H 0.49324 0.26048 0.60177 0.0
H813 H 0.45774 0.23667 0.63037 0.0
H814 H 0.49947 0.16593 0.61532 0.0
H815 H 0.53567 0.18981 0.5875 0.0
H816 H 0.42724 0.19922 0.60267 0.0
H817 H 0.48242 0.1637 0.73059 0.0
H818 H 0.49479 0.18793 0.69804 0.0
H819 H 0.49529 0.1547 0.68391 0.0
C820 C 0.49496 0.23984 0.60435 0.0
C821 C 0.51747 0.2271 0.59266 0.0
C822 C 0.47456 0.22624 0.62071 0.0
C823 C 0.47609 0.19957 0.62564 0.0
C824 C 0.49811 0.18658 0.61267 0.0
H825 H 0.33593 0.11881 0.69897 0.0
H826 H 0.37414 0.13085 0.66226 0.0
C827 C 0.51871 0.20024 0.59653 0.0
C828 C 0.45463 0.18581 0.64503 0.0
H829 H 0.43907 0.1512 0.72636 0.0
C830 C 0.42983 0.18854 0.62956 0.0
C831 C 0.45804 0.17214 0.68036 0.0
C832 C 0.484 0.16957 0.69949 0.0
C833 C 0.40827 0.17858 0.6489 0.0
C834 C 0.41167 0.16484 0.68419 0.0
C835 C 0.43654 0.16157 0.69917 0.0
C836 C 0.38957 0.15543 0.70751 0.0
C837 C 0.38199 0.18394 0.63228 0.0
C838 C 0.38603 0.16435 0.7458 0.0
C839 C 0.36454 0.15687 0.76737 0.0
C840 C 0.34618 0.14018 0.7512 0.0
C841 C 0.34999 0.13094 0.71302 0.0
C842 C 0.37164 0.13826 0.69157 0.0
H843 H 0.38237 0.19994 0.61086 0.0
H844 H 0.37487 0.16657 0.61695 0.0
H845 H 0.36815 0.18884 0.65578 0.0
H846 H 0.39961 0.17762 0.75874 0.0
H847 H 0.36217 0.16441 0.79664 0.0
H848 H 0.82002 0.67279 0.83871 0.0
H849 H 0.8082 0.63377 0.87373 0.0
H850 H 0.88098 0.59982 0.84375 0.0
H851 H 0.8929 0.63882 0.80811 0.0
H852 H 0.80497 0.58423 0.84058 0.0
H853 H 0.87498 0.58775 0.96335 0.0
H854 H 0.86752 0.61557 0.93404 0.0
H855 H 0.88775 0.59078 0.91475 0.0
C856 C 0.83361 0.65708 0.83967 0.0
C857 C 0.8576 0.65911 0.82117 0.0
C858 C 0.82684 0.63483 0.85981 0.0
C859 C 0.84387 0.61407 0.86186 0.0
C860 C 0.86783 0.61588 0.84332 0.0
H861 H 0.81212 0.46382 0.96919 0.0
H862 H 0.83447 0.49946 0.93682 0.0
C863 C 0.87464 0.63823 0.82309 0.0
C864 C 0.83564 0.59018 0.88172 0.0
H865 H 0.84623 0.55272 0.96204 0.0
C866 C 0.81409 0.57725 0.86699 0.0
C867 C 0.84773 0.58102 0.91598 0.0
C868 C 0.87069 0.59451 0.93328 0.0
C869 C 0.80392 0.55576 0.88607 0.0
C870 C 0.81534 0.54719 0.92118 0.0
C871 C 0.83748 0.55947 0.93521 0.0
C872 C 0.80343 0.52648 0.94458 0.0
C873 C 0.78083 0.5425 0.86866 0.0
C874 C 0.77905 0.53025 0.96085 0.0
C875 C 0.76627 0.51007 0.97919 0.0
C876 C 0.77766 0.48567 0.98184 0.0
C877 C 0.80276 0.48234 0.96752 0.0
C878 C 0.81556 0.50264 0.94901 0.0
H879 H 0.77861 0.54699 0.83712 0.0
H880 H 0.78221 0.52136 0.87218 0.0
H881 H 0.76328 0.54912 0.88399 0.0
H882 H 0.76957 0.54866 0.95831 0.0
H883 H 0.7471 0.51345 0.99029 0.0
H884 H 0.9924 0.24342 0.22577 0.0
H885 H 0.95695 0.26751 0.19791 0.0
H886 H 0.99985 0.33781 0.21105 0.0
H887 H 0.03606 0.31359 0.23806 0.0
H888 H 0.92711 0.30523 0.22509 0.0
H889 H 0.9821 0.3397 0.09622 0.0
H890 H 0.99444 0.31563 0.12901 0.0
H891 H 0.99512 0.34893 0.14271 0.0
C892 C 0.99439 0.26403 0.22297 0.0
C893 C 0.01726 0.27652 0.2338 0.0
C894 C 0.97401 0.2778 0.20704 0.0
C895 C 0.97587 0.30441 0.20169 0.0
C896 C 0.99822 0.31719 0.21399 0.0
H897 H 0.83531 0.38374 0.12646 0.0
H898 H 0.87347 0.37243 0.16371 0.0
C899 C 0.01883 0.30335 0.22969 0.0
C900 C 0.95445 0.31824 0.18234 0.0
H901 H 0.93877 0.35201 0.10026 0.0
C902 C 0.92967 0.31566 0.19796 0.0
C903 C 0.95781 0.3316 0.1467 0.0
C904 C 0.98373 0.33401 0.12739 0.0
C905 C 0.90807 0.32533 0.17841 0.0
C906 C 0.91142 0.33867 0.14276 0.0
C907 C 0.93627 0.34192 0.12771 0.0
C908 C 0.88928 0.34762 0.1191 0.0
C909 C 0.88181 0.31999 0.19519 0.0
C910 C 0.88593 0.33833 0.08096 0.0
C911 C 0.86448 0.34542 0.05905 0.0
C912 C 0.84592 0.36208 0.0747 0.0
C913 C 0.84951 0.37165 0.11276 0.0
C914 C 0.87114 0.36473 0.13454 0.0
H915 H 0.88226 0.30421 0.21699 0.0
H916 H 0.87464 0.33747 0.2101 0.0
H917 H 0.86798 0.31477 0.17182 0.0
H918 H 0.89966 0.32509 0.0684 0.0
H919 H 0.8623 0.33764 0.02989 0.0
H920 H 0.19434 0.53761 0.46227 0.0
H921 H 0.1729 0.5008 0.43215 0.0
H922 H 0.23188 0.45068 0.47668 0.0
H923 H 0.25388 0.48746 0.50549 0.0
H924 H 0.2253 0.4429 0.40201 0.0
H925 H 0.12962 0.44304 0.47218 0.0
H926 H 0.13717 0.47322 0.44982 0.0
H927 H 0.15601 0.46201 0.49043 0.0
C928 C 0.20247 0.51867 0.46624 0.0
C929 C 0.22588 0.51546 0.48608 0.0
C930 C 0.1901 0.49759 0.44919 0.0
C931 C 0.20061 0.47286 0.45243 0.0
C932 C 0.2234 0.46954 0.47371 0.0
H933 H 0.13221 0.32882 0.37585 0.0
H934 H 0.14655 0.36606 0.41359 0.0
C935 C 0.23595 0.4906 0.49021 0.0
C936 C 0.18938 0.45082 0.43072 0.0
H937 H 0.13414 0.41693 0.41504 0.0
C938 C 0.2054 0.43715 0.40513 0.0
C939 C 0.16347 0.44311 0.43496 0.0
C940 C 0.14564 0.45594 0.46364 0.0
C941 C 0.19627 0.41621 0.38347 0.0
C942 C 0.1701 0.4092 0.38638 0.0
C943 C 0.1541 0.42258 0.41238 0.0
C944 C 0.15925 0.38767 0.3632 0.0
C945 C 0.21498 0.40149 0.35833 0.0
C946 C 0.16094 0.38773 0.32227 0.0
C947 C 0.15286 0.36643 0.3007 0.0
C948 C 0.14231 0.34496 0.31956 0.0
C949 C 0.13964 0.34533 0.3604 0.0
C950 C 0.14802 0.36653 0.38204 0.0
H951 H 0.2351 0.40442 0.36812 0.0
H952 H 0.21074 0.38061 0.35874 0.0
H953 H 0.21354 0.40838 0.32775 0.0
H954 H 0.16897 0.40406 0.30702 0.0
H955 H 0.15505 0.36666 0.26923 0.0
H956 H 0.16299 0.61513 0.6208 0.0
H957 H 0.12393 0.62625 0.65639 0.0
H958 H 0.10427 0.68092 0.56677 0.0
H959 H 0.14272 0.66899 0.53011 0.0
H960 H 0.11156 0.67192 0.68692 0.0
H961 H 0.03678 0.6438 0.58052 0.0
H962 H 0.06972 0.6335 0.5761 0.0
H963 H 0.06021 0.6648 0.55929 0.0
C964 C 0.14988 0.62878 0.60788 0.0
C965 C 0.15551 0.64055 0.57192 0.0
C966 C 0.12771 0.63539 0.62856 0.0
C967 C 0.11083 0.65399 0.61384 0.0
C968 C 0.11657 0.66595 0.57816 0.0
H969 H 0.01056 0.75759 0.72911 0.0
H970 H 0.04613 0.73351 0.70137 0.0
C971 C 0.13867 0.65928 0.5574 0.0
C972 C 0.08824 0.66228 0.63703 0.0
H973 H 0.02378 0.67321 0.63096 0.0
C974 C 0.09231 0.67186 0.67488 0.0
C975 C 0.06303 0.6618 0.62166 0.0
C976 C 0.0571 0.65016 0.58232 0.0
C977 C 0.07208 0.68213 0.69697 0.0
C978 C 0.04723 0.68332 0.68046 0.0
C979 C 0.0429 0.67256 0.64344 0.0
C980 C 0.02592 0.69724 0.69985 0.0
C981 C 0.07761 0.6918 0.73766 0.0
C982 C 0.00251 0.68494 0.7078 0.0
C983 C 0.9819 0.69876 0.72351 0.0
C984 C 0.98431 0.72519 0.73118 0.0
C985 C 0.00797 0.73727 0.72372 0.0
C986 C 0.02847 0.72348 0.70808 0.0
H987 H 0.09457 0.68203 0.75049 0.0
H988 H 0.08191 0.71264 0.73639 0.0
H989 H 0.06091 0.68888 0.75731 0.0
H990 H 1.00009 0.66472 0.70141 0.0
H991 H 0.96395 0.68887 0.72879 0.0
loop_
_geom_bond_atom_site_label_1
_geom_bond_atom_site_label_2
_geom_bond_distance
_geom_bond_site_symmetry_2
_ccdc_geom_bond_type
Co0 O3 1.970 . S
Co0 N17 1.989 . S
Co0 O25 1.967 . S
Co0 O32 1.920 . S
Co1 O4 1.966 . S
Co1 N10 2.022 . S
Co1 N18 1.993 . S
Co1 O26 1.941 . S
C2 O3 1.258 . S
C2 O4 1.263 . S
O3 Co0 1.970 . S
O3 C2 1.258 . S
O4 Co1 1.966 . S
O4 C2 1.263 . S
C5 O6 1.235 . S
C5 O32 1.289 . S
O6 C5 1.235 . S
C7 C9 1.400 . S
C7 N10 1.351 . S
C7 C12 1.501 . S
C8 C9 1.387 . S
C8 N11 1.341 . S
C9 C7 1.400 . S
C9 C8 1.387 . S
N10 Co1 2.022 . S
N10 C7 1.351 . S
N10 N11 1.365 . S
N11 C8 1.341 . S
N11 N10 1.365 . S
N11 H31 0.862 . S
C12 C7 1.501 . S
C12 H13 0.961 . S
C12 H14 0.961 . S
C12 H15 0.960 . S
H13 C12 0.961 . S
H14 C12 0.961 . S
H15 C12 0.960 . S
C16 N17 1.342 1_556 S
C16 C20 1.401 . S
C16 C21 1.499 . S
N17 Co0 1.989 . S
N17 C16 1.342 1_554 S
N17 N18 1.388 . S
N18 Co1 1.993 . S
N18 N17 1.388 . S
N18 C19 1.346 1_554 S
C19 N18 1.346 1_556 S
C19 C20 1.396 . S
C19 C29 1.510 . S
C20 C16 1.401 . S
C20 C19 1.396 . S
C21 C16 1.499 . S
C21 H22 0.935 1_556 S
C21 H23 0.960 . S
C21 H24 0.961 . S
H22 C21 0.935 1_554 S
H23 C21 0.960 . S
H24 C21 0.961 . S
O25 Co0 1.967 . S
O25 C33 1.258 . S
O26 Co1 1.941 . S
O26 C33 1.266 . S
H27 C29 0.959 . S
H28 C29 0.961 . S
C29 C19 1.510 . S
C29 H27 0.959 . S
C29 H28 0.961 . S
C29 H30 0.960 . S
H30 C29 0.960 . S
H31 N11 0.862 . S
O32 Co0 1.920 . S
O32 C5 1.289 . S
C33 O25 1.258 . S
C33 O26 1.266 . S
Co34 O37 1.970 . S
Co34 N51 1.989 . S
Co34 O59 1.967 . S
Co34 O66 1.920 . S
Co35 O38 1.966 . S
Co35 N44 2.022 . S
Co35 N52 1.993 . S
Co35 O60 1.941 . S
C36 O37 1.258 . S
C36 O38 1.263 . S
O37 Co34 1.970 . S
O37 C36 1.258 . S
O38 Co35 1.966 . S
O38 C36 1.263 . S
C39 O40 1.235 . S
C39 O66 1.289 . S
O40 C39 1.235 . S
C41 C43 1.400 . S
C41 N44 1.351 . S
C41 C46 1.501 . S
C42 C43 1.387 . S
C42 N45 1.341 . S
C43 C41 1.400 . S
C43 C42 1.387 . S
N44 Co35 2.022 . S
N44 C41 1.351 . S
N44 N45 1.365 . S
N45 C42 1.341 . S
N45 N44 1.365 . S
N45 H65 0.862 . S
C46 C41 1.501 . S
C46 H47 0.961 . S
C46 H48 0.961 . S
C46 H49 0.960 . S
H47 C46 0.961 . S
H48 C46 0.961 . S
H49 C46 0.960 . S
C50 N51 1.342 . S
C50 C54 1.401 . S
C50 C55 1.499 . S
N51 Co34 1.989 . S
N51 C50 1.342 . S
N51 N52 1.388 . S
N52 Co35 1.993 . S
N52 N51 1.388 . S
N52 C53 1.346 . S
C53 N52 1.346 . S
C53 C54 1.396 . S
C53 C63 1.510 . S
C54 C50 1.401 . S
C54 C53 1.396 . S
C55 C50 1.499 . S
C55 H56 0.959 . S
C55 H57 0.960 . S
C55 H58 0.961 . S
H56 C55 0.959 . S
H57 C55 0.960 . S
H58 C55 0.961 . S
O59 Co34 1.967 . S
O59 C67 1.258 . S
O60 Co35 1.941 . S
O60 C67 1.266 . S
H61 C63 0.959 . S
H62 C63 0.961 . S
C63 C53 1.510 . S
C63 H61 0.959 . S
C63 H62 0.961 . S
C63 H64 0.960 . S
H64 C63 0.960 . S
H65 N45 0.862 . S
O66 Co34 1.920 . S
O66 C39 1.289 . S
C67 O59 1.258 . S
C67 O60 1.266 . S
Co68 O71 1.970 . S
Co68 N85 1.989 . S
Co68 O93 1.967 . S
Co68 O100 1.920 . S
Co69 O72 1.966 . S
Co69 N78 2.022 . S
Co69 N86 1.993 . S
Co69 O94 1.941 . S
C70 O71 1.258 . S
C70 O72 1.263 . S
O71 Co68 1.970 . S
O71 C70 1.258 . S
O72 Co69 1.966 . S
O72 C70 1.263 . S
C73 O74 1.235 . S
C73 O100 1.289 . S
O74 C73 1.235 . S
C75 C77 1.400 . S
C75 N78 1.351 . S
C75 C80 1.501 . S
C76 C77 1.387 . S
C76 N79 1.341 . S
C77 C75 1.400 . S
C77 C76 1.387 . S
N78 Co69 2.022 . S
N78 C75 1.351 . S
N78 N79 1.365 . S
N79 C76 1.341 . S
N79 N78 1.365 . S
N79 H99 0.862 . S
C80 C75 1.501 . S
C80 H81 0.961 . S
C80 H82 0.961 . S
C80 H83 0.960 . S
H81 C80 0.961 . S
H82 C80 0.961 . S
H83 C80 0.960 . S
C84 N85 1.342 . S
C84 C88 1.401 . S
C84 C89 1.499 . S
N85 Co68 1.989 . S
N85 C84 1.342 . S
N85 N86 1.388 . S
N86 Co69 1.993 . S
N86 N85 1.388 . S
N86 C87 1.346 . S
C87 N86 1.346 . S
C87 C88 1.396 . S
C87 C97 1.510 . S
C88 C84 1.401 . S
C88 C87 1.396 . S
C89 C84 1.499 . S
C89 H90 0.959 . S
C89 H91 0.960 . S
C89 H92 0.961 . S
H90 C89 0.959 . S
H91 C89 0.960 . S
H92 C89 0.961 . S
O93 Co68 1.967 . S
O93 C101 1.258 . S
O94 Co69 1.941 . S
O94 C101 1.266 . S
H95 C97 0.959 . S
H96 C97 0.961 . S
C97 C87 1.510 . S
C97 H95 0.959 . S
C97 H96 0.961 . S
C97 H98 0.960 . S
H98 C97 0.960 . S
H99 N79 0.862 . S
O100 Co68 1.920 . S
O100 C73 1.289 . S
C101 O93 1.258 . S
C101 O94 1.266 . S
Co102 O105 1.970 . S
Co102 N119 1.989 . S
Co102 O127 1.967 . S
Co102 O134 1.920 . S
Co103 O106 1.966 . S
Co103 N112 2.022 . S
Co103 N120 1.993 . S
Co103 O128 1.941 . S
C104 O105 1.258 . S
C104 O106 1.263 . S
O105 Co102 1.970 . S
O105 C104 1.258 . S
O106 Co103 1.966 . S
O106 C104 1.263 . S
C107 O108 1.235 . S
C107 O134 1.289 . S
O108 C107 1.235 . S
C109 C111 1.400 . S
C109 N112 1.351 . S
C109 C114 1.501 . S
C110 C111 1.387 . S
C110 N113 1.341 . S
C111 C109 1.400 . S
C111 C110 1.387 . S
N112 Co103 2.022 . S
N112 C109 1.351 . S
N112 N113 1.365 . S
N113 C110 1.341 . S
N113 N112 1.365 . S
N113 H133 0.862 . S
C114 C109 1.501 . S
C114 H115 0.961 . S
C114 H116 0.961 . S
C114 H117 0.960 . S
H115 C114 0.961 . S
H116 C114 0.961 . S
H117 C114 0.960 . S
C118 N119 1.342 . S
C118 C122 1.401 . S
C118 C123 1.499 . S
N119 Co102 1.989 . S
N119 C118 1.342 . S
N119 N120 1.388 . S
N120 Co103 1.993 . S
N120 N119 1.388 . S
N120 C121 1.346 . S
C121 N120 1.346 . S
C121 C122 1.396 . S
C121 C131 1.510 . S
C122 C118 1.401 . S
C122 C121 1.396 . S
C123 C118 1.499 . S
C123 H124 0.959 . S
C123 H125 0.960 . S
C123 H126 0.961 . S
H124 C123 0.959 . S
H125 C123 0.960 . S
H126 C123 0.961 . S
O127 Co102 1.967 . S
O127 C135 1.258 . S
O128 Co103 1.941 . S
O128 C135 1.266 . S
H129 C131 0.959 . S
H130 C131 0.961 . S
C131 C121 1.510 . S
C131 H129 0.959 . S
C131 H130 0.961 . S
C131 H132 0.960 . S
H132 C131 0.960 . S
H133 N113 0.862 . S
O134 Co102 1.920 . S
O134 C107 1.289 . S
C135 O127 1.258 . S
C135 O128 1.266 . S
Co136 O139 1.970 . S
Co136 N153 1.989 . S
Co136 O161 1.967 . S
Co136 O168 1.920 . S
Co137 O140 1.966 . S
Co137 N146 2.022 . S
Co137 N154 1.993 . S
Co137 O162 1.941 . S
C138 O139 1.258 . S
C138 O140 1.263 . S
O139 Co136 1.970 . S
O139 C138 1.258 . S
O140 Co137 1.966 . S
O140 C138 1.263 . S
C141 O142 1.235 . S
C141 O168 1.289 . S
O142 C141 1.235 . S
C143 C145 1.400 . S
C143 N146 1.351 . S
C143 C148 1.501 . S
C144 C145 1.387 . S
C144 N147 1.341 . S
C145 C143 1.400 . S
C145 C144 1.387 . S
N146 Co137 2.022 . S
N146 C143 1.351 . S
N146 N147 1.365 . S
N147 C144 1.341 . S
N147 N146 1.365 . S
N147 H167 0.862 . S
C148 C143 1.501 . S
C148 H149 0.961 . S
C148 H150 0.961 . S
C148 H151 0.960 . S
H149 C148 0.961 . S
H150 C148 0.961 . S
H151 C148 0.960 . S
C152 N153 1.342 . S
C152 C156 1.401 . S
C152 C157 1.499 . S
N153 Co136 1.989 . S
N153 C152 1.342 . S
N153 N154 1.388 . S
N154 Co137 1.993 . S
N154 N153 1.388 . S
N154 C155 1.346 . S
C155 N154 1.346 . S
C155 C156 1.396 . S
C155 C165 1.510 . S
C156 C152 1.401 . S
C156 C155 1.396 . S
C157 C152 1.499 . S
C157 H158 0.959 . S
C157 H159 0.960 . S
C157 H160 0.961 . S
H158 C157 0.959 . S
H159 C157 0.960 . S
H160 C157 0.961 . S
O161 Co136 1.967 . S
O161 C169 1.258 . S
O162 Co137 1.941 . S
O162 C169 1.266 . S
H163 C165 0.959 . S
H164 C165 0.961 . S
C165 C155 1.510 . S
C165 H163 0.959 . S
C165 H164 0.961 . S
C165 H166 0.960 . S
H166 C165 0.960 . S
H167 N147 0.862 . S
O168 Co136 1.920 . S
O168 C141 1.289 . S
C169 O161 1.258 . S
C169 O162 1.266 . S
Co170 O173 1.967 1_554 S
Co170 N187 1.989 . S
Co170 O195 1.967 1_554 S
Co170 O202 1.920 . S
Co171 O174 1.966 1_554 S
Co171 N180 2.022 . S
Co171 N188 1.993 . S
Co171 O196 1.941 1_554 S
C172 O173 1.263 . S
C172 O174 1.263 . S
O173 Co170 1.967 1_556 S
O173 C172 1.263 . S
O174 Co171 1.966 1_556 S
O174 C172 1.263 . S
C175 O176 1.235 . S
C175 O202 1.289 . S
O176 C175 1.235 . S
C177 C179 1.400 . S
C177 N180 1.351 . S
C177 C182 1.501 . S
C178 C179 1.387 . S
C178 N181 1.341 . S
C179 C177 1.400 . S
C179 C178 1.387 . S
N180 Co171 2.022 . S
N180 C177 1.351 . S
N180 N181 1.365 . S
N181 C178 1.341 . S
N181 N180 1.365 . S
N181 H201 0.862 . S
C182 C177 1.501 . S
C182 H183 0.961 . S
C182 H184 0.961 . S
C182 H185 0.960 . S
H183 C182 0.961 . S
H184 C182 0.961 . S
H185 C182 0.960 . S
C186 N187 1.342 . S
C186 C190 1.401 . S
C186 C191 1.499 . S
N187 Co170 1.989 . S
N187 C186 1.342 . S
N187 N188 1.388 . S
N188 Co171 1.993 . S
N188 N187 1.388 . S
N188 C189 1.346 . S
C189 N188 1.346 . S
C189 C190 1.396 . S
C189 C199 1.510 . S
C190 C186 1.401 . S
C190 C189 1.396 . S
C191 C186 1.499 . S
C191 H192 0.959 . S
C191 H193 0.960 . S
C191 H194 0.961 . S
H192 C191 0.959 . S
H193 C191 0.960 . S
H194 C191 0.961 . S
O195 Co170 1.967 1_556 S
O195 C203 1.258 . S
O196 Co171 1.941 1_556 S
O196 C203 1.266 . S
H197 C199 0.959 . S
H198 C199 0.961 . S
C199 C189 1.510 . S
C199 H197 0.959 . S
C199 H198 0.961 . S
C199 H200 0.960 . S
H200 C199 0.960 . S
H201 N181 0.862 . S
O202 Co170 1.920 . S
O202 C175 1.289 . S
C203 O195 1.258 . S
C203 O196 1.266 . S
Co204 O207 1.970 . S
Co204 N221 1.989 . S
Co204 O229 1.967 . S
Co204 O236 1.920 . S
Co205 O208 1.966 . S
Co205 N214 2.022 . S
Co205 N222 1.993 . S
Co205 O230 1.941 . S
C206 O207 1.258 . S
C206 O208 1.263 . S
O207 Co204 1.970 . S
O207 C206 1.258 . S
O208 Co205 1.966 . S
O208 C206 1.263 . S
C209 O210 1.235 . S
C209 O236 1.289 . S
O210 C209 1.235 . S
C211 C213 1.400 . S
C211 N214 1.351 . S
C211 C216 1.501 . S
C212 C213 1.387 . S
C212 N215 1.341 . S
C213 C211 1.400 . S
C213 C212 1.387 . S
N214 Co205 2.022 . S
N214 C211 1.351 . S
N214 N215 1.365 . S
N215 C212 1.341 . S
N215 N214 1.365 . S
N215 H235 0.862 . S
C216 C211 1.501 . S
C216 H217 0.961 . S
C216 H218 0.961 . S
C216 H219 0.960 . S
H217 C216 0.961 . S
H218 C216 0.961 . S
H219 C216 0.960 . S
C220 N221 1.342 . S
C220 C224 1.401 . S
C220 C225 1.499 . S
N221 Co204 1.989 . S
N221 C220 1.342 . S
N221 N222 1.388 . S
N222 Co205 1.993 . S
N222 N221 1.388 . S
N222 C223 1.346 . S
C223 N222 1.346 . S
C223 C224 1.396 . S
C223 C233 1.510 . S
C224 C220 1.401 . S
C224 C223 1.396 . S
C225 C220 1.499 . S
C225 H226 0.959 . S
C225 H227 0.960 . S
C225 H228 0.961 . S
H226 C225 0.959 . S
H227 C225 0.960 . S
H228 C225 0.961 . S
O229 Co204 1.967 . S
O229 C237 1.258 . S
O230 Co205 1.941 . S
O230 C237 1.266 . S
H231 C233 0.959 . S
H232 C233 0.961 . S
C233 C223 1.510 . S
C233 H231 0.959 . S
C233 H232 0.961 . S
C233 H234 0.960 . S
H234 C233 0.960 . S
H235 N215 0.862 . S
O236 Co204 1.920 . S
O236 C209 1.289 . S
C237 O229 1.258 . S
C237 O230 1.266 . S
Co238 O241 1.970 . S
Co238 N255 1.989 . S
Co238 O263 1.967 . S
Co238 O270 1.920 . S
Co239 O242 1.966 . S
Co239 N248 2.022 . S
Co239 N256 1.993 . S
Co239 O264 1.941 . S
C240 O241 1.258 . S
C240 O242 1.263 . S
O241 Co238 1.970 . S
O241 C240 1.258 . S
O242 Co239 1.966 . S
O242 C240 1.263 . S
C243 O244 1.235 . S
C243 O270 1.289 . S
O244 C243 1.235 . S
C245 C247 1.400 . S
C245 N248 1.351 . S
C245 C250 1.501 . S
C246 C247 1.387 . S
C246 N249 1.341 . S
C247 C245 1.400 . S
C247 C246 1.387 . S
N248 Co239 2.022 . S
N248 C245 1.351 . S
N248 N249 1.365 . S
N249 C246 1.341 . S
N249 N248 1.365 . S
N249 H269 0.862 . S
C250 C245 1.501 . S
C250 H251 0.961 . S
C250 H252 0.961 . S
C250 H253 0.960 . S
H251 C250 0.961 . S
H252 C250 0.961 . S
H253 C250 0.960 . S
C254 N255 1.342 . S
C254 C258 1.401 . S
C254 C259 1.499 . S
N255 Co238 1.989 . S
N255 C254 1.342 . S
N255 N256 1.388 . S
N256 Co239 1.993 . S
N256 N255 1.388 . S
N256 C257 1.346 . S
C257 N256 1.346 . S
C257 C258 1.396 . S
C257 C267 1.510 . S
C258 C254 1.401 . S
C258 C257 1.396 . S
C259 C254 1.499 . S
C259 H260 0.959 . S
C259 H261 0.960 . S
C259 H262 0.961 . S
H260 C259 0.959 . S
H261 C259 0.960 . S
H262 C259 0.961 . S
O263 Co238 1.967 . S
O263 C271 1.258 . S
O264 Co239 1.941 . S
O264 C271 1.266 . S
H265 C267 0.959 . S
H266 C267 0.961 . S
C267 C257 1.510 . S
C267 H265 0.959 . S
C267 H266 0.961 . S
C267 H268 0.960 . S
H268 C267 0.960 . S
H269 N249 0.862 . S
O270 Co238 1.920 . S
O270 C243 1.289 . S
C271 O263 1.258 . S
C271 O264 1.266 . S
H272 C280 0.929 . S
H273 C282 0.930 . S
H274 C284 0.930 . S
H275 C287 0.929 . S
H276 C290 0.930 . S
H277 C292 0.960 . S
H278 C292 0.960 . S
H279 C292 0.960 . S
C280 H272 0.929 . S
C280 C281 1.377 . S
C280 C282 1.384 . S
C281 C280 1.377 . S
C281 C287 1.390 1_554 S
C282 H273 0.930 . S
C282 C280 1.384 . S
C282 C283 1.372 . S
C283 C282 1.372 . S
C283 C284 1.400 1_554 S
C283 C288 1.490 . S
C284 H274 0.930 . S
C284 C283 1.400 1_556 S
C284 C287 1.386 . S
H285 C301 0.930 1_556 S
H286 C302 0.931 1_556 S
C287 H275 0.929 . S
C287 C281 1.390 1_556 S
C287 C284 1.386 . S
C288 C283 1.490 . S
C288 C290 1.395 . S
C288 C291 1.403 . S
H289 C295 0.930 . S
C290 H276 0.930 . S
C290 C288 1.395 . S
C290 C293 1.403 . S
C291 C288 1.403 . S
C291 C292 1.524 . S
C291 C295 1.400 . S
C292 H277 0.960 . S
C292 H278 0.960 . S
C292 H279 0.960 . S
C292 C291 1.524 . S
C293 C290 1.403 . S
C293 C294 1.392 . S
C293 C297 1.495 . S
C294 C293 1.392 . S
C294 C295 1.385 . S
C294 C296 1.478 . S
C295 H289 0.930 . S
C295 C291 1.400 . S
C295 C294 1.385 . S
C296 C294 1.478 . S
C296 C298 1.381 . S
C296 C302 1.383 . S
C297 C293 1.495 . S
C297 H303 0.959 . S
C297 H304 0.961 . S
C297 H305 0.960 . S
C298 C296 1.381 . S
C298 C299 1.394 . S
C298 H306 0.930 . S
C299 C298 1.394 . S
C299 C300 1.383 . S
C299 H307 0.929 . S
C300 C299 1.383 . S
C300 C301 1.377 . S
C301 H285 0.930 1_554 S
C301 C300 1.377 . S
C301 C302 1.379 . S
C302 H286 0.931 1_554 S
C302 C296 1.383 . S
C302 C301 1.379 . S
H303 C297 0.959 . S
H304 C297 0.961 . S
H305 C297 0.960 . S
H306 C298 0.930 . S
H307 C299 0.929 . S
H308 C316 0.929 . S
H309 C318 0.930 . S
H310 C320 0.930 . S
H311 C323 0.929 . S
H312 C326 0.930 . S
H313 C328 0.960 . S
H314 C328 0.960 . S
H315 C328 0.960 . S
C316 H308 0.929 . S
C316 C317 1.377 . S
C316 C318 1.384 1_455 S
C317 C316 1.377 . S
C317 C323 1.390 1_455 S
C318 H309 0.930 . S
C318 C316 1.384 1_655 S
C318 C319 1.372 . S
C319 C318 1.372 . S
C319 C320 1.400 . S
C319 C324 1.490 . S
C320 H310 0.930 . S
C320 C319 1.400 . S
C320 C323 1.386 . S
H321 C337 0.930 . S
H322 C338 0.931 . S
C323 H311 0.929 . S
C323 C317 1.390 1_655 S
C323 C320 1.386 . S
C324 C319 1.490 . S
C324 C326 1.395 . S
C324 C327 1.403 . S
H325 C331 0.930 . S
C326 H312 0.930 . S
C326 C324 1.395 . S
C326 C329 1.403 . S
C327 C324 1.403 . S
C327 C328 1.524 . S
C327 C331 1.400 . S
C328 H313 0.960 . S
C328 H314 0.960 . S
C328 H315 0.960 . S
C328 C327 1.524 . S
C329 C326 1.403 . S
C329 C330 1.392 . S
C329 C333 1.495 . S
C330 C329 1.392 . S
C330 C331 1.385 . S
C330 C332 1.478 . S
C331 H325 0.930 . S
C331 C327 1.400 . S
C331 C330 1.385 . S
C332 C330 1.478 . S
C332 C334 1.381 . S
C332 C338 1.383 . S
C333 C329 1.495 . S
C333 H339 0.959 . S
C333 H340 0.961 . S
C333 H341 0.960 . S
C334 C332 1.381 . S
C334 C335 1.394 1_545 S
C334 H342 0.930 . S
C335 C334 1.394 1_565 S
C335 C336 1.383 . S
C335 H343 0.929 . S
C336 C335 1.383 . S
C336 C337 1.377 1_565 S
C337 H321 0.930 . S
C337 C336 1.377 1_545 S
C337 C338 1.379 . S
C338 H322 0.931 . S
C338 C332 1.383 . S
C338 C337 1.379 . S
H339 C333 0.959 . S
H340 C333 0.961 . S
H341 C333 0.960 . S
H342 C334 0.930 . S
H343 C335 0.929 . S
H344 C352 0.929 . S
H345 C354 0.930 . S
H346 C356 0.930 . S
H347 C359 0.929 . S
H348 C362 0.930 . S
H349 C364 0.960 . S
H350 C364 0.960 . S
H351 C364 0.960 . S
C352 H344 0.929 . S
C352 C353 1.377 . S
C352 C354 1.384 . S
C353 C352 1.377 . S
C353 C359 1.390 . S
C354 H345 0.930 . S
C354 C352 1.384 . S
C354 C355 1.372 . S
C355 C354 1.372 . S
C355 C356 1.400 . S
C355 C360 1.490 . S
C356 H346 0.930 . S
C356 C355 1.400 . S
C356 C359 1.386 . S
H357 C373 0.930 . S
H358 C374 0.931 . S
C359 H347 0.929 . S
C359 C353 1.390 . S
C359 C356 1.386 . S
C360 C355 1.490 . S
C360 C362 1.395 . S
C360 C363 1.403 . S
H361 C367 0.930 . S
C362 H348 0.930 . S
C362 C360 1.395 . S
C362 C365 1.403 . S
C363 C360 1.403 . S
C363 C364 1.524 . S
C363 C367 1.400 . S
C364 H349 0.960 . S
C364 H350 0.960 . S
C364 H351 0.960 . S
C364 C363 1.524 . S
C365 C362 1.403 . S
C365 C366 1.392 . S
C365 C369 1.495 . S
C366 C365 1.392 . S
C366 C367 1.385 . S
C366 C368 1.478 . S
C367 H361 0.930 . S
C367 C363 1.400 . S
C367 C366 1.385 . S
C368 C366 1.478 . S
C368 C370 1.381 . S
C368 C374 1.383 . S
C369 C365 1.495 . S
C369 H375 0.959 . S
C369 H376 0.961 . S
C369 H377 0.960 . S
C370 C368 1.381 . S
C370 C371 1.394 . S
C370 H378 0.930 . S
C371 C370 1.394 . S
C371 C372 1.383 . S
C371 H379 0.929 . S
C372 C371 1.383 . S
C372 C373 1.377 . S
C373 H357 0.930 . S
C373 C372 1.377 . S
C373 C374 1.379 . S
C374 H358 0.931 . S
C374 C368 1.383 . S
C374 C373 1.379 . S
H375 C369 0.959 . S
H376 C369 0.961 . S
H377 C369 0.960 . S
H378 C370 0.930 . S
H379 C371 0.929 . S
H380 C388 0.929 . S
H381 C390 0.930 . S
H382 C392 0.930 . S
H383 C395 0.929 . S
H384 C398 0.930 . S
H385 C400 0.960 . S
H386 C400 0.960 . S
H387 C400 0.960 . S
C388 H380 0.929 . S
C388 C389 1.377 . S
C388 C390 1.384 1_655 S
C389 C388 1.377 . S
C389 C395 1.390 1_655 S
C390 H381 0.930 . S
C390 C388 1.384 1_455 S
C390 C391 1.372 . S
C391 C390 1.372 . S
C391 C392 1.400 . S
C391 C396 1.490 . S
C392 H382 0.930 . S
C392 C391 1.400 . S
C392 C395 1.386 . S
H393 C409 0.930 . S
H394 C410 0.931 . S
C395 H383 0.929 . S
C395 C389 1.390 1_455 S
C395 C392 1.386 . S
C396 C391 1.490 . S
C396 C398 1.395 . S
C396 C399 1.403 . S
H397 C403 0.930 . S
C398 H384 0.930 . S
C398 C396 1.395 . S
C398 C401 1.403 . S
C399 C396 1.403 . S
C399 C400 1.524 . S
C399 C403 1.400 . S
C400 H385 0.960 . S
C400 H386 0.960 . S
C400 H387 0.960 . S
C400 C399 1.524 . S
C401 C398 1.403 . S
C401 C402 1.392 . S
C401 C405 1.495 . S
C402 C401 1.392 . S
C402 C403 1.385 . S
C402 C404 1.478 . S
C403 H397 0.930 . S
C403 C399 1.400 . S
C403 C402 1.385 . S
C404 C402 1.478 . S
C404 C406 1.381 . S
C404 C410 1.383 . S
C405 C401 1.495 . S
C405 H411 0.959 . S
C405 H412 0.961 . S
C405 H413 0.960 . S
C406 C404 1.381 . S
C406 C407 1.394 1_565 S
C406 H414 0.930 . S
C407 C406 1.394 1_545 S
C407 C408 1.383 . S
C407 H415 0.929 . S
C408 C407 1.383 . S
C408 C409 1.377 1_545 S
C409 H393 0.930 . S
C409 C408 1.377 1_565 S
C409 C410 1.379 . S
C410 H394 0.931 . S
C410 C404 1.383 . S
C410 C409 1.379 . S
H411 C405 0.959 . S
H412 C405 0.961 . S
H413 C405 0.960 . S
H414 C406 0.930 . S
H415 C407 0.929 . S
H416 C424 0.929 . S
H417 C426 0.930 . S
H418 C428 0.930 . S
H419 C431 0.929 . S
H420 C434 0.930 . S
H421 C436 0.960 . S
H422 C436 0.960 . S
H423 C436 0.960 . S
C424 H416 0.929 . S
C424 C425 1.377 . S
C424 C426 1.384 . S
C425 C424 1.377 . S
C425 C431 1.390 . S
C426 H417 0.930 . S
C426 C424 1.384 . S
C426 C427 1.372 . S
C427 C426 1.372 . S
C427 C428 1.400 . S
C427 C432 1.490 . S
C428 H418 0.930 . S
C428 C427 1.400 . S
C428 C431 1.386 . S
H429 C445 0.930 . S
H430 C446 0.931 . S
C431 H419 0.929 . S
C431 C425 1.390 . S
C431 C428 1.386 . S
C432 C427 1.490 . S
C432 C434 1.395 . S
C432 C435 1.403 . S
H433 C439 0.930 . S
C434 H420 0.930 . S
C434 C432 1.395 . S
C434 C437 1.403 . S
C435 C432 1.403 . S
C435 C436 1.524 . S
C435 C439 1.400 . S
C436 H421 0.960 . S
C436 H422 0.960 . S
C436 H423 0.960 . S
C436 C435 1.524 . S
C437 C434 1.403 . S
C437 C438 1.392 . S
C437 C441 1.495 . S
C438 C437 1.392 . S
C438 C439 1.385 . S
C438 C440 1.478 . S
C439 H433 0.930 . S
C439 C435 1.400 . S
C439 C438 1.385 . S
C440 C438 1.478 . S
C440 C442 1.381 . S
C440 C446 1.383 . S
C441 C437 1.495 . S
C441 H447 0.959 . S
C441 H448 0.961 . S
C441 H449 0.960 . S
C442 C440 1.381 . S
C442 C443 1.394 . S
C442 H450 0.930 . S
C443 C442 1.394 . S
C443 C444 1.383 . S
C443 H451 0.929 . S
C444 C443 1.383 . S
C444 C445 1.377 . S
C445 H429 0.930 . S
C445 C444 1.377 . S
C445 C446 1.379 . S
C446 H430 0.931 . S
C446 C440 1.383 . S
C446 C445 1.379 . S
H447 C441 0.959 . S
H448 C441 0.961 . S
H449 C441 0.960 . S
H450 C442 0.930 . S
H451 C443 0.929 . S
H452 C460 0.929 . S
H453 C462 0.930 . S
H454 C464 0.930 . S
H455 C467 0.929 . S
H456 C470 0.930 . S
H457 C472 0.960 . S
H458 C472 0.960 . S
H459 C472 0.960 . S
C460 H452 0.929 . S
C460 C461 1.377 . S
C460 C462 1.384 . S
C461 C460 1.377 . S
C461 C467 1.390 . S
C462 H453 0.930 . S
C462 C460 1.384 . S
C462 C463 1.372 . S
C463 C462 1.372 . S
C463 C464 1.400 . S
C463 C468 1.490 . S
C464 H454 0.930 . S
C464 C463 1.400 . S
C464 C467 1.386 . S
H465 C481 0.930 . S
H466 C482 0.931 . S
C467 H455 0.929 . S
C467 C461 1.390 . S
C467 C464 1.386 . S
C468 C463 1.490 . S
C468 C470 1.395 . S
C468 C471 1.403 . S
H469 C475 0.930 . S
C470 H456 0.930 . S
C470 C468 1.395 . S
C470 C473 1.403 . S
C471 C468 1.403 . S
C471 C472 1.524 . S
C471 C475 1.400 . S
C472 H457 0.960 . S
C472 H458 0.960 . S
C472 H459 0.960 . S
C472 C471 1.524 . S
C473 C470 1.403 . S
C473 C474 1.392 . S
C473 C477 1.495 . S
C474 C473 1.392 . S
C474 C475 1.385 . S
C474 C476 1.478 . S
C475 H469 0.930 . S
C475 C471 1.400 . S
C475 C474 1.385 . S
C476 C474 1.478 . S
C476 C478 1.381 . S
C476 C482 1.383 . S
C477 C473 1.495 . S
C477 H483 0.959 . S
C477 H484 0.961 . S
C477 H485 0.960 . S
C478 C476 1.381 . S
C478 C479 1.394 . S
C478 H486 0.930 . S
C479 C478 1.394 . S
C479 C480 1.383 . S
C479 H487 0.929 . S
C480 C479 1.383 . S
C480 C481 1.377 . S
C481 H465 0.930 . S
C481 C480 1.377 . S
C481 C482 1.379 . S
C482 H466 0.931 . S
C482 C476 1.383 . S
C482 C481 1.379 . S
H483 C477 0.959 . S
H484 C477 0.961 . S
H485 C477 0.960 . S
H486 C478 0.930 . S
H487 C479 0.929 . S
H488 C496 0.929 . S
H489 C498 0.930 . S
H490 C500 0.930 . S
H491 C503 0.929 . S
H492 C506 0.930 . S
H493 C508 0.960 . S
H494 C508 0.960 . S
H495 C508 0.960 . S
C496 H488 0.929 . S
C496 C497 1.377 . S
C496 C498 1.384 . S
C497 C496 1.377 . S
C497 C503 1.390 . S
C498 H489 0.930 . S
C498 C496 1.384 . S
C498 C499 1.372 . S
C499 C498 1.372 . S
C499 C500 1.400 . S
C499 C504 1.490 . S
C500 H490 0.930 . S
C500 C499 1.400 . S
C500 C503 1.386 . S
H501 C517 0.930 . S
H502 C518 0.931 . S
C503 H491 0.929 . S
C503 C497 1.390 . S
C503 C500 1.386 . S
C504 C499 1.490 . S
C504 C506 1.395 . S
C504 C507 1.403 . S
H505 C511 0.930 . S
C506 H492 0.930 . S
C506 C504 1.395 . S
C506 C509 1.403 . S
C507 C504 1.403 . S
C507 C508 1.524 . S
C507 C511 1.400 . S
C508 H493 0.960 . S
C508 H494 0.960 . S
C508 H495 0.960 . S
C508 C507 1.524 . S
C509 C506 1.403 . S
C509 C510 1.392 . S
C509 C513 1.495 . S
C510 C509 1.392 . S
C510 C511 1.385 . S
C510 C512 1.478 . S
C511 H505 0.930 . S
C511 C507 1.400 . S
C511 C510 1.385 . S
C512 C510 1.478 . S
C512 C514 1.381 . S
C512 C518 1.383 . S
C513 C509 1.495 . S
C513 H519 0.959 . S
C513 H520 0.961 . S
C513 H521 0.960 . S
C514 C512 1.381 . S
C514 C515 1.394 . S
C514 H522 0.930 . S
C515 C514 1.394 . S
C515 C516 1.383 . S
C515 H523 0.929 . S
C516 C515 1.383 . S
C516 C517 1.377 . S
C517 H501 0.930 . S
C517 C516 1.377 . S
C517 C518 1.379 . S
C518 H502 0.931 . S
C518 C512 1.383 . S
C518 C517 1.379 . S
H519 C513 0.959 . S
H520 C513 0.961 . S
H521 C513 0.960 . S
H522 C514 0.930 . S
H523 C515 0.929 . S
H524 C532 0.929 . S
H525 C534 0.930 . S
H526 C536 0.930 . S
H527 C539 0.929 . S
H528 C542 0.930 1_556 S
H529 C544 0.960 . S
H530 C544 0.960 1_556 S
H531 C544 0.960 . S
C532 H524 0.929 . S
C532 C533 1.377 . S
C532 C534 1.384 . S
C533 C532 1.377 . S
C533 C539 1.390 . S
C534 H525 0.930 . S
C534 C532 1.384 . S
C534 C535 1.372 . S
C535 C534 1.372 . S
C535 C536 1.400 . S
C535 C540 1.490 1_556 S
C536 H526 0.930 . S
C536 C535 1.400 . S
C536 C539 1.386 . S
H537 C553 0.930 . S
H538 C554 0.931 . S
C539 H527 0.929 . S
C539 C533 1.390 . S
C539 C536 1.386 . S
C540 C535 1.490 1_554 S
C540 C542 1.395 . S
C540 C543 1.403 . S
H541 C547 0.930 . S
C542 H528 0.930 1_554 S
C542 C540 1.395 . S
C542 C545 1.403 . S
C543 C540 1.403 . S
C543 C544 1.524 . S
C543 C547 1.400 . S
C544 H529 0.960 . S
C544 H530 0.960 1_554 S
C544 H531 0.960 . S
C544 C543 1.524 . S
C545 C542 1.403 . S
C545 C546 1.392 . S
C545 C549 1.495 . S
C546 C545 1.392 . S
C546 C547 1.385 . S
C546 C548 1.478 . S
C547 H541 0.930 . S
C547 C543 1.400 . S
C547 C546 1.385 . S
C548 C546 1.478 . S
C548 C550 1.381 . S
C548 C554 1.383 . S
C549 C545 1.495 . S
C549 H555 0.959 . S
C549 H556 0.961 . S
C549 H557 0.960 . S
C550 C548 1.381 . S
C550 C551 1.394 . S
C550 H558 0.930 . S
C551 C550 1.394 . S
C551 C552 1.383 . S
C551 H559 0.929 . S
C552 C551 1.383 . S
C552 C553 1.377 . S
C553 H537 0.930 . S
C553 C552 1.377 . S
C553 C554 1.379 . S
C554 H538 0.931 . S
C554 C548 1.383 . S
C554 C553 1.379 . S
H555 C549 0.959 . S
H556 C549 0.961 . S
H557 C549 0.960 . S
H558 C550 0.930 . S
H559 C551 0.929 . S
H560 C568 0.929 . S
H561 C570 0.930 . S
H562 C572 0.930 . S
H563 C575 0.929 . S
H564 C578 0.930 . S
H565 C580 0.960 . S
H566 C580 0.960 . S
H567 C580 0.960 . S
C568 H560 0.929 . S
C568 C569 1.377 . S
C568 C570 1.384 . S
C569 C568 1.377 . S
C569 C575 1.390 . S
C570 H561 0.930 . S
C570 C568 1.384 . S
C570 C571 1.372 . S
C571 C570 1.372 . S
C571 C572 1.400 . S
C571 C576 1.490 . S
C572 H562 0.930 . S
C572 C571 1.400 . S
C572 C575 1.386 . S
H573 C589 0.930 . S
H574 C590 0.931 . S
C575 H563 0.929 . S
C575 C569 1.390 . S
C575 C572 1.386 . S
C576 C571 1.490 . S
C576 C578 1.395 . S
C576 C579 1.403 . S
H577 C583 0.930 . S
C578 H564 0.930 . S
C578 C576 1.395 . S
C578 C581 1.403 . S
C579 C576 1.403 . S
C579 C580 1.524 . S
C579 C583 1.400 . S
C580 H565 0.960 . S
C580 H566 0.960 . S
C580 H567 0.960 . S
C580 C579 1.524 . S
C581 C578 1.403 . S
C581 C582 1.392 . S
C581 C585 1.495 . S
C582 C581 1.392 . S
C582 C583 1.385 . S
C582 C584 1.478 . S
C583 H577 0.930 . S
C583 C579 1.400 . S
C583 C582 1.385 . S
C584 C582 1.478 . S
C584 C586 1.381 . S
C584 C590 1.383 . S
C585 C581 1.495 . S
C585 H591 0.959 . S
C585 H592 0.961 . S
C585 H593 0.960 . S
C586 C584 1.381 . S
C586 C587 1.394 . S
C586 H594 0.930 . S
C587 C586 1.394 . S
C587 C588 1.383 . S
C587 H595 0.929 . S
C588 C587 1.383 . S
C588 C589 1.377 . S
C589 H573 0.930 . S
C589 C588 1.377 . S
C589 C590 1.379 . S
C590 H574 0.931 . S
C590 C584 1.383 . S
C590 C589 1.379 . S
H591 C585 0.959 . S
H592 C585 0.961 . S
H593 C585 0.960 . S
H594 C586 0.930 . S
H595 C587 0.929 . S
H596 C604 0.929 . S
H597 C606 0.930 . S
H598 C608 0.930 . S
H599 C611 0.929 . S
H600 C614 0.930 . S
H601 C616 0.960 . S
H602 C616 0.960 . S
H603 C616 0.960 . S
C604 H596 0.929 . S
C604 C605 1.377 . S
C604 C606 1.384 . S
C605 C604 1.377 . S
C605 C611 1.390 . S
C606 H597 0.930 . S
C606 C604 1.384 . S
C606 C607 1.372 . S
C607 C606 1.372 . S
C607 C608 1.400 . S
C607 C612 1.490 . S
C608 H598 0.930 . S
C608 C607 1.400 . S
C608 C611 1.386 . S
H609 C625 0.930 . S
H610 C626 0.931 . S
C611 H599 0.929 . S
C611 C605 1.390 . S
C611 C608 1.386 . S
C612 C607 1.490 . S
C612 C614 1.395 . S
C612 C615 1.403 . S
H613 C619 0.930 . S
C614 H600 0.930 . S
C614 C612 1.395 . S
C614 C617 1.403 1_554 S
C615 C612 1.403 . S
C615 C616 1.524 . S
C615 C619 1.400 . S
C616 H601 0.960 . S
C616 H602 0.960 . S
C616 H603 0.960 . S
C616 C615 1.524 . S
C617 C614 1.403 1_556 S
C617 C618 1.392 . S
C617 C621 1.495 . S
C618 C617 1.392 . S
C618 C619 1.385 1_556 S
C618 C620 1.478 . S
C619 H613 0.930 . S
C619 C615 1.400 . S
C619 C618 1.385 1_554 S
C620 C618 1.478 . S
C620 C622 1.381 . S
C620 C626 1.383 . S
C621 C617 1.495 . S
C621 H627 0.959 . S
C621 H628 0.961 . S
C621 H629 0.960 . S
C622 C620 1.381 . S
C622 C623 1.394 . S
C622 H630 0.930 . S
C623 C622 1.394 . S
C623 C624 1.383 . S
C623 H631 0.929 . S
C624 C623 1.383 . S
C624 C625 1.377 . S
C625 H609 0.930 . S
C625 C624 1.377 . S
C625 C626 1.379 . S
C626 H610 0.931 . S
C626 C620 1.383 . S
C626 C625 1.379 . S
H627 C621 0.959 . S
H628 C621 0.961 . S
H629 C621 0.960 . S
H630 C622 0.930 . S
H631 C623 0.929 . S
H632 C640 0.929 . S
H633 C642 0.930 . S
H634 C644 0.930 . S
H635 C647 0.929 . S
H636 C650 0.930 . S
H637 C652 0.960 . S
H638 C652 0.960 . S
H639 C652 0.960 . S
C640 H632 0.929 . S
C640 C641 1.377 . S
C640 C642 1.384 . S
C641 C640 1.377 . S
C641 C647 1.390 . S
C642 H633 0.930 . S
C642 C640 1.384 . S
C642 C643 1.372 . S
C643 C642 1.372 . S
C643 C644 1.400 . S
C643 C648 1.490 . S
C644 H634 0.930 . S
C644 C643 1.400 . S
C644 C647 1.386 . S
H645 C661 0.930 . S
H646 C662 0.931 . S
C647 H635 0.929 . S
C647 C641 1.390 . S
C647 C644 1.386 . S
C648 C643 1.490 . S
C648 C650 1.395 . S
C648 C651 1.403 . S
H649 C655 0.930 . S
C650 H636 0.930 . S
C650 C648 1.395 . S
C650 C653 1.403 . S
C651 C648 1.403 . S
C651 C652 1.524 . S
C651 C655 1.400 . S
C652 H637 0.960 . S
C652 H638 0.960 . S
C652 H639 0.960 . S
C652 C651 1.524 . S
C653 C650 1.403 . S
C653 C654 1.392 . S
C653 C657 1.495 . S
C654 C653 1.392 . S
C654 C655 1.385 . S
C654 C656 1.478 . S
C655 H649 0.930 . S
C655 C651 1.400 . S
C655 C654 1.385 . S
C656 C654 1.478 . S
C656 C658 1.381 . S
C656 C662 1.383 . S
C657 C653 1.495 . S
C657 H663 0.959 . S
C657 H664 0.961 . S
C657 H665 0.960 . S
C658 C656 1.381 . S
C658 C659 1.394 . S
C658 H666 0.930 . S
C659 C658 1.394 . S
C659 C660 1.383 . S
C659 H667 0.929 . S
C660 C659 1.383 . S
C660 C661 1.377 . S
C661 H645 0.930 . S
C661 C660 1.377 . S
C661 C662 1.379 . S
C662 H646 0.931 . S
C662 C656 1.383 . S
C662 C661 1.379 . S
H663 C657 0.959 . S
H664 C657 0.961 . S
H665 C657 0.960 . S
H666 C658 0.930 . S
H667 C659 0.929 . S
H668 C676 0.929 . S
H669 C678 0.930 . S
H670 C680 0.930 . S
H671 C683 0.929 . S
H672 C686 0.930 . S
H673 C688 0.960 . S
H674 C688 0.960 . S
H675 C688 0.960 . S
C676 H668 0.929 . S
C676 C677 1.377 . S
C676 C678 1.384 . S
C677 C676 1.377 . S
C677 C683 1.390 . S
C678 H669 0.930 . S
C678 C676 1.384 . S
C678 C679 1.372 . S
C679 C678 1.372 . S
C679 C680 1.400 . S
C679 C684 1.490 . S
C680 H670 0.930 . S
C680 C679 1.400 . S
C680 C683 1.386 . S
H681 C697 0.930 . S
H682 C698 0.931 . S
C683 H671 0.929 . S
C683 C677 1.390 . S
C683 C680 1.386 . S
C684 C679 1.490 . S
C684 C686 1.395 . S
C684 C687 1.403 . S
H685 C691 0.930 . S
C686 H672 0.930 . S
C686 C684 1.395 . S
C686 C689 1.403 . S
C687 C684 1.403 . S
C687 C688 1.524 . S
C687 C691 1.400 . S
C688 H673 0.960 . S
C688 H674 0.960 . S
C688 H675 0.960 . S
C688 C687 1.524 . S
C689 C686 1.403 . S
C689 C690 1.392 . S
C689 C693 1.495 . S
C690 C689 1.392 . S
C690 C691 1.385 . S
C690 C692 1.478 . S
C691 H685 0.930 . S
C691 C687 1.400 . S
C691 C690 1.385 . S
C692 C690 1.478 . S
C692 C694 1.381 . S
C692 C698 1.383 . S
C693 C689 1.495 . S
C693 H699 0.959 . S
C693 H700 0.961 . S
C693 H701 0.960 . S
C694 C692 1.381 . S
C694 C695 1.394 . S
C694 H702 0.930 . S
C695 C694 1.394 . S
C695 C696 1.383 . S
C695 H703 0.929 . S
C696 C695 1.383 . S
C696 C697 1.377 . S
C697 H681 0.930 . S
C697 C696 1.377 . S
C697 C698 1.379 . S
C698 H682 0.931 . S
C698 C692 1.383 . S
C698 C697 1.379 . S
H699 C693 0.959 . S
H700 C693 0.961 . S
H701 C693 0.960 . S
H702 C694 0.930 . S
H703 C695 0.929 . S
H704 C712 0.929 . S
H705 C714 0.930 . S
H706 C716 0.930 . S
H707 C719 0.928 1_554 S
H708 C722 0.930 . S
H709 C724 0.960 . S
H710 C724 0.960 . S
H711 C724 0.960 . S
C712 H704 0.929 . S
C712 C713 1.377 . S
C712 C714 1.384 . S
C713 C712 1.377 . S
C713 C719 1.390 . S
C714 H705 0.930 . S
C714 C712 1.384 . S
C714 C715 1.372 . S
C715 C714 1.372 . S
C715 C716 1.400 . S
C715 C720 1.490 . S
C716 H706 0.930 . S
C716 C715 1.400 . S
C716 C719 1.386 . S
H717 C733 0.930 . S
H718 C734 0.932 . S
C719 H707 0.928 1_556 S
C719 C713 1.390 . S
C719 C716 1.386 . S
C720 C715 1.490 . S
C720 C722 1.395 . S
C720 C723 1.403 . S
H721 C727 0.930 . S
C722 H708 0.930 . S
C722 C720 1.395 . S
C722 C725 1.403 . S
C723 C720 1.403 . S
C723 C724 1.524 . S
C723 C727 1.400 . S
C724 H709 0.960 . S
C724 H710 0.960 . S
C724 H711 0.960 . S
C724 C723 1.524 . S
C725 C722 1.403 . S
C725 C726 1.392 . S
C725 C729 1.495 . S
C726 C725 1.392 . S
C726 C727 1.385 . S
C726 C728 1.478 . S
C727 H721 0.930 . S
C727 C723 1.400 . S
C727 C726 1.385 . S
C728 C726 1.478 . S
C728 C730 1.381 . S
C728 C734 1.383 . S
C729 C725 1.495 . S
C729 H735 0.959 . S
C729 H736 0.961 . S
C729 H737 0.960 . S
C730 C728 1.381 . S
C730 C731 1.394 . S
C730 H738 0.930 . S
C731 C730 1.394 . S
C731 C732 1.383 1_565 S
C731 H739 0.929 . S
C732 C731 1.383 1_545 S
C732 C733 1.377 . S
C733 H717 0.930 . S
C733 C732 1.377 . S
C733 C734 1.379 1_545 S
C734 H718 0.932 . S
C734 C728 1.383 . S
C734 C733 1.379 1_565 S
H735 C729 0.959 . S
H736 C729 0.961 . S
H737 C729 0.960 . S
H738 C730 0.930 . S
H739 C731 0.929 . S
H740 C748 0.929 . S
H741 C750 0.930 . S
H742 C752 0.930 . S
H743 C755 0.929 . S
H744 C758 0.930 . S
H745 C760 0.960 . S
H746 C760 0.960 . S
H747 C760 0.960 . S
C748 H740 0.929 . S
C748 C749 1.377 . S
C748 C750 1.384 . S
C749 C748 1.377 . S
C749 C755 1.390 . S
C750 H741 0.930 . S
C750 C748 1.384 . S
C750 C751 1.372 . S
C751 C750 1.372 . S
C751 C752 1.400 . S
C751 C756 1.490 . S
C752 H742 0.930 . S
C752 C751 1.400 . S
C752 C755 1.386 . S
H753 C769 0.930 . S
H754 C770 0.931 . S
C755 H743 0.929 . S
C755 C749 1.390 . S
C755 C752 1.386 . S
C756 C751 1.490 . S
C756 C758 1.395 . S
C756 C759 1.403 . S
H757 C763 0.930 . S
C758 H744 0.930 . S
C758 C756 1.395 . S
C758 C761 1.403 . S
C759 C756 1.403 . S
C759 C760 1.524 . S
C759 C763 1.400 . S
C760 H745 0.960 . S
C760 H746 0.960 . S
C760 H747 0.960 . S
C760 C759 1.524 . S
C761 C758 1.403 . S
C761 C762 1.392 . S
C761 C765 1.495 . S
C762 C761 1.392 . S
C762 C763 1.385 . S
C762 C764 1.478 . S
C763 H757 0.930 . S
C763 C759 1.400 . S
C763 C762 1.385 . S
C764 C762 1.478 . S
C764 C766 1.381 . S
C764 C770 1.383 . S
C765 C761 1.495 . S
C765 H771 0.959 . S
C765 H772 0.961 . S
C765 H773 0.960 . S
C766 C764 1.381 . S
C766 C767 1.394 . S
C766 H774 0.930 . S
C767 C766 1.394 . S
C767 C768 1.383 . S
C767 H775 0.929 . S
C768 C767 1.383 . S
C768 C769 1.377 . S
C769 H753 0.930 . S
C769 C768 1.377 . S
C769 C770 1.379 . S
C770 H754 0.931 . S
C770 C764 1.383 . S
C770 C769 1.379 . S
H771 C765 0.959 . S
H772 C765 0.961 . S
H773 C765 0.960 . S
H774 C766 0.930 . S
H775 C767 0.929 . S
H776 C784 0.929 . S
H777 C786 0.930 . S
H778 C788 0.930 . S
H779 C791 0.929 . S
H780 C794 0.930 . S
H781 C796 0.960 . S
H782 C796 0.960 . S
H783 C796 0.960 . S
C784 H776 0.929 . S
C784 C785 1.374 . S
C784 C786 1.388 1_565 S
C785 C784 1.374 . S
C785 C791 1.390 . S
C786 H777 0.930 . S
C786 C784 1.388 1_545 S
C786 C787 1.372 . S
C787 C786 1.372 . S
C787 C788 1.400 . S
C787 C792 1.490 . S
C788 H778 0.930 . S
C788 C787 1.400 . S
C788 C791 1.386 1_545 S
H789 C805 0.930 . S
H790 C806 0.931 . S
C791 H779 0.929 . S
C791 C785 1.390 . S
C791 C788 1.386 1_565 S
C792 C787 1.490 . S
C792 C794 1.395 . S
C792 C795 1.403 . S
H793 C799 0.930 . S
C794 H780 0.930 . S
C794 C792 1.395 . S
C794 C797 1.403 . S
C795 C792 1.403 . S
C795 C796 1.524 . S
C795 C799 1.400 . S
C796 H781 0.960 . S
C796 H782 0.960 . S
C796 H783 0.960 . S
C796 C795 1.524 . S
C797 C794 1.403 . S
C797 C798 1.392 . S
C797 C801 1.495 . S
C798 C797 1.392 . S
C798 C799 1.385 . S
C798 C800 1.478 . S
C799 H793 0.930 . S
C799 C795 1.400 . S
C799 C798 1.385 . S
C800 C798 1.478 . S
C800 C802 1.381 . S
C800 C806 1.383 . S
C801 C797 1.495 . S
C801 H807 0.959 . S
C801 H808 0.961 . S
C801 H809 0.960 . S
C802 C800 1.381 . S
C802 C803 1.394 . S
C802 H810 0.930 . S
C803 C802 1.394 . S
C803 C804 1.383 . S
C803 H811 0.929 . S
C804 C803 1.383 . S
C804 C805 1.377 . S
C805 H789 0.930 . S
C805 C804 1.377 . S
C805 C806 1.379 . S
C806 H790 0.931 . S
C806 C800 1.383 . S
C806 C805 1.379 . S
H807 C801 0.959 . S
H808 C801 0.961 . S
H809 C801 0.960 . S
H810 C802 0.930 . S
H811 C803 0.929 . S
H812 C820 0.929 . S
H813 C822 0.930 . S
H814 C824 0.930 . S
H815 C827 0.929 . S
H816 C830 0.930 . S
H817 C832 0.960 . S
H818 C832 0.960 . S
H819 C832 0.960 . S
C820 H812 0.929 . S
C820 C821 1.377 . S
C820 C822 1.384 . S
C821 C820 1.377 . S
C821 C827 1.390 . S
C822 H813 0.930 . S
C822 C820 1.384 . S
C822 C823 1.372 . S
C823 C822 1.372 . S
C823 C824 1.400 . S
C823 C828 1.490 . S
C824 H814 0.930 . S
C824 C823 1.400 . S
C824 C827 1.386 . S
H825 C841 0.930 . S
H826 C842 0.931 . S
C827 H815 0.929 . S
C827 C821 1.390 . S
C827 C824 1.386 . S
C828 C823 1.490 . S
C828 C830 1.395 . S
C828 C831 1.403 . S
H829 C835 0.930 . S
C830 H816 0.930 . S
C830 C828 1.395 . S
C830 C833 1.403 . S
C831 C828 1.403 . S
C831 C832 1.524 . S
C831 C835 1.400 . S
C832 H817 0.960 . S
C832 H818 0.960 . S
C832 H819 0.960 . S
C832 C831 1.524 . S
C833 C830 1.403 . S
C833 C834 1.392 . S
C833 C837 1.495 . S
C834 C833 1.392 . S
C834 C835 1.385 . S
C834 C836 1.478 . S
C835 H829 0.930 . S
C835 C831 1.400 . S
C835 C834 1.385 . S
C836 C834 1.478 . S
C836 C838 1.381 . S
C836 C842 1.383 . S
C837 C833 1.495 . S
C837 H843 0.959 . S
C837 H844 0.961 . S
C837 H845 0.960 . S
C838 C836 1.381 . S
C838 C839 1.394 . S
C838 H846 0.930 . S
C839 C838 1.394 . S
C839 C840 1.383 . S
C839 H847 0.929 . S
C840 C839 1.383 . S
C840 C841 1.377 . S
C841 H825 0.930 . S
C841 C840 1.377 . S
C841 C842 1.379 . S
C842 H826 0.931 . S
C842 C836 1.383 . S
C842 C841 1.379 . S
H843 C837 0.959 . S
H844 C837 0.961 . S
H845 C837 0.960 . S
H846 C838 0.930 . S
H847 C839 0.929 . S
H848 C856 0.929 . S
H849 C858 0.930 . S
H850 C860 0.930 . S
H851 C863 0.929 . S
H852 C866 0.930 . S
H853 C868 0.960 . S
H854 C868 0.960 . S
H855 C868 0.960 . S
C856 H848 0.929 . S
C856 C857 1.377 . S
C856 C858 1.384 . S
C857 C856 1.377 . S
C857 C863 1.390 . S
C858 H849 0.930 . S
C858 C856 1.384 . S
C858 C859 1.372 . S
C859 C858 1.372 . S
C859 C860 1.400 . S
C859 C864 1.490 . S
C860 H850 0.930 . S
C860 C859 1.400 . S
C860 C863 1.386 . S
H861 C877 0.930 . S
H862 C878 0.931 . S
C863 H851 0.929 . S
C863 C857 1.390 . S
C863 C860 1.386 . S
C864 C859 1.490 . S
C864 C866 1.395 . S
C864 C867 1.403 . S
H865 C871 0.930 . S
C866 H852 0.930 . S
C866 C864 1.395 . S
C866 C869 1.403 . S
C867 C864 1.403 . S
C867 C868 1.524 . S
C867 C871 1.400 . S
C868 H853 0.960 . S
C868 H854 0.960 . S
C868 H855 0.960 . S
C868 C867 1.524 . S
C869 C866 1.403 . S
C869 C870 1.392 . S
C869 C873 1.495 . S
C870 C869 1.392 . S
C870 C871 1.385 . S
C870 C872 1.478 . S
C871 H865 0.930 . S
C871 C867 1.400 . S
C871 C870 1.385 . S
C872 C870 1.478 . S
C872 C874 1.381 . S
C872 C878 1.383 . S
C873 C869 1.495 . S
C873 H879 0.959 . S
C873 H880 0.961 . S
C873 H881 0.960 . S
C874 C872 1.381 . S
C874 C875 1.394 . S
C874 H882 0.930 . S
C875 C874 1.394 . S
C875 C876 1.383 . S
C875 H883 0.929 1_556 S
C876 C875 1.383 . S
C876 C877 1.377 . S
C877 H861 0.930 . S
C877 C876 1.377 . S
C877 C878 1.379 . S
C878 H862 0.931 . S
C878 C872 1.383 . S
C878 C877 1.379 . S
H879 C873 0.959 . S
H880 C873 0.961 . S
H881 C873 0.960 . S
H882 C874 0.930 . S
H883 C875 0.929 1_554 S
H884 C892 0.929 . S
H885 C894 0.930 . S
H886 C896 0.930 . S
H887 C899 0.929 . S
H888 C902 0.930 . S
H889 C904 0.960 . S
H890 C904 0.960 . S
H891 C904 0.960 . S
C892 H884 0.929 . S
C892 C893 1.377 . S
C892 C894 1.384 1_455 S
C893 C892 1.377 . S
C893 C899 1.390 . S
C894 H885 0.930 . S
C894 C892 1.384 1_655 S
C894 C895 1.372 . S
C895 C894 1.372 . S
C895 C896 1.400 . S
C895 C900 1.490 . S
C896 H886 0.930 . S
C896 C895 1.400 . S
C896 C899 1.386 1_655 S
H897 C913 0.930 . S
H898 C914 0.931 . S
C899 H887 0.929 . S
C899 C893 1.390 . S
C899 C896 1.386 1_455 S
C900 C895 1.490 . S
C900 C902 1.395 . S
C900 C903 1.403 . S
H901 C907 0.930 . S
C902 H888 0.930 . S
C902 C900 1.395 . S
C902 C905 1.403 . S
C903 C900 1.403 . S
C903 C904 1.524 . S
C903 C907 1.400 . S
C904 H889 0.960 . S
C904 H890 0.960 . S
C904 H891 0.960 . S
C904 C903 1.524 . S
C905 C902 1.403 . S
C905 C906 1.392 . S
C905 C909 1.495 . S
C906 C905 1.392 . S
C906 C907 1.385 . S
C906 C908 1.478 . S
C907 H901 0.930 . S
C907 C903 1.400 . S
C907 C906 1.385 . S
C908 C906 1.478 . S
C908 C910 1.381 . S
C908 C914 1.383 . S
C909 C905 1.495 . S
C909 H915 0.959 . S
C909 H916 0.961 . S
C909 H917 0.960 . S
C910 C908 1.381 . S
C910 C911 1.394 . S
C910 H918 0.930 . S
C911 C910 1.394 . S
C911 C912 1.383 . S
C911 H919 0.929 . S
C912 C911 1.383 . S
C912 C913 1.377 . S
C913 H897 0.930 . S
C913 C912 1.377 . S
C913 C914 1.379 . S
C914 H898 0.931 . S
C914 C908 1.383 . S
C914 C913 1.379 . S
H915 C909 0.959 . S
H916 C909 0.961 . S
H917 C909 0.960 . S
H918 C910 0.930 . S
H919 C911 0.929 . S
H920 C928 0.929 . S
H921 C930 0.930 . S
H922 C932 0.930 . S
H923 C935 0.929 . S
H924 C938 0.930 . S
H925 C940 0.960 . S
H926 C940 0.960 . S
H927 C940 0.960 . S
C928 H920 0.929 . S
C928 C929 1.377 . S
C928 C930 1.384 . S
C929 C928 1.377 . S
C929 C935 1.390 . S
C930 H921 0.930 . S
C930 C928 1.384 . S
C930 C931 1.372 . S
C931 C930 1.372 . S
C931 C932 1.400 . S
C931 C936 1.490 . S
C932 H922 0.930 . S
C932 C931 1.400 . S
C932 C935 1.386 . S
H933 C949 0.930 . S
H934 C950 0.931 . S
C935 H923 0.929 . S
C935 C929 1.390 . S
C935 C932 1.386 . S
C936 C931 1.490 . S
C936 C938 1.395 . S
C936 C939 1.403 . S
H937 C943 0.930 . S
C938 H924 0.930 . S
C938 C936 1.395 . S
C938 C941 1.403 . S
C939 C936 1.403 . S
C939 C940 1.524 . S
C939 C943 1.400 . S
C940 H925 0.960 . S
C940 H926 0.960 . S
C940 H927 0.960 . S
C940 C939 1.524 . S
C941 C938 1.403 . S
C941 C942 1.392 . S
C941 C945 1.495 . S
C942 C941 1.392 . S
C942 C943 1.385 . S
C942 C944 1.478 . S
C943 H937 0.930 . S
C943 C939 1.400 . S
C943 C942 1.385 . S
C944 C942 1.478 . S
C944 C946 1.381 . S
C944 C950 1.383 . S
C945 C941 1.495 . S
C945 H951 0.959 . S
C945 H952 0.961 . S
C945 H953 0.960 . S
C946 C944 1.381 . S
C946 C947 1.394 . S
C946 H954 0.930 . S
C947 C946 1.394 . S
C947 C948 1.383 . S
C947 H955 0.929 . S
C948 C947 1.383 . S
C948 C949 1.377 . S
C949 H933 0.930 . S
C949 C948 1.377 . S
C949 C950 1.379 . S
C950 H934 0.931 . S
C950 C944 1.383 . S
C950 C949 1.379 . S
H951 C945 0.959 . S
H952 C945 0.961 . S
H953 C945 0.960 . S
H954 C946 0.930 . S
H955 C947 0.929 . S
H956 C964 0.929 . S
H957 C966 0.930 . S
H958 C968 0.930 . S
H959 C971 0.929 . S
H960 C974 0.930 . S
H961 C976 0.960 . S
H962 C976 0.960 . S
H963 C976 0.960 . S
C964 H956 0.929 . S
C964 C965 1.377 . S
C964 C966 1.384 . S
C965 C964 1.377 . S
C965 C971 1.390 . S
C966 H957 0.930 . S
C966 C964 1.384 . S
C966 C967 1.372 . S
C967 C966 1.372 . S
C967 C968 1.400 . S
C967 C972 1.490 . S
C968 H958 0.930 . S
C968 C967 1.400 . S
C968 C971 1.386 . S
H969 C985 0.928 1_655 S
H970 C986 0.931 . S
C971 H959 0.929 . S
C971 C965 1.390 . S
C971 C968 1.386 . S
C972 C967 1.490 . S
C972 C974 1.395 . S
C972 C975 1.403 . S
H973 C979 0.930 . S
C974 H960 0.930 . S
C974 C972 1.395 . S
C974 C977 1.403 . S
C975 C972 1.403 . S
C975 C976 1.524 . S
C975 C979 1.400 . S
C976 H961 0.960 . S
C976 H962 0.960 . S
C976 H963 0.960 . S
C976 C975 1.524 . S
C977 C974 1.403 . S
C977 C978 1.392 . S
C977 C981 1.495 . S
C978 C977 1.392 . S
C978 C979 1.385 . S
C978 C980 1.478 . S
C979 H973 0.930 . S
C979 C975 1.400 . S
C979 C978 1.385 . S
C980 C978 1.478 . S
C980 C982 1.381 . S
C980 C986 1.383 . S
C981 C977 1.495 . S
C981 H987 0.959 . S
C981 H988 0.961 . S
C981 H989 0.960 . S
C982 C980 1.381 . S
C982 C983 1.394 1_455 S
C982 H990 0.930 . S
C983 C982 1.394 1_655 S
C983 C984 1.383 . S
C983 H991 0.929 . S
C984 C983 1.383 . S
C984 C985 1.364 1_655 S
C985 H969 0.928 1_455 S
C985 C984 1.364 1_455 S
C985 C986 1.394 . S
C986 H970 0.931 . S
C986 C980 1.383 . S
C986 C985 1.394 . S
H987 C981 0.959 . S
H988 C981 0.961 . S
H989 C981 0.960 . S
H990 C982 0.930 . S
H991 C983 0.929 . S
C281 C175 1.365 . S
C300 C5 1.347 . S
C317 C209 1.367 . S
C336 C39 1.380 . S
C353 C73 1.368 . S
C372 C243 1.383 . S
C389 C141 1.369 . S
C408 C107 1.385 . S
C425 C271 1.395 . S
C444 C33 1.389 . S
C461 C67 1.396 . S
C480 C169 1.397 . S
C497 C203 1.395 . S
C516 C101 1.389 . S
C533 C135 1.395 . S
C552 C237 1.391 . S
C569 C258 1.358 . S
C588 C20 1.358 . S
C605 C54 1.358 . S
C624 C156 1.357 . S
C641 C190 1.358 . S
C660 C88 1.355 . S
C677 C224 1.356 . S
C696 C122 1.356 . S
C713 C9 1.640 1_556 S
C732 C104 1.655 . S
C749 C2 1.664 . S
C768 C43 1.636 . S
C785 C36 1.665 . S
C804 C77 1.630 . S
C821 C70 1.667 . S
C840 C111 1.620 . S
C857 C145 1.644 . S
C876 C172 1.652 . S
C893 C206 1.667 . S
C912 C179 1.620 . S
C929 C240 1.668 . S
C948 C213 1.620 . S
C965 C247 1.645 . S
C984 C138 1.665 . S
