# Generated by pormake.
# Topology mon, (4)-cn, num edge types: 1
# Building blocks:
#     Node 0, Type 0, BuildingBlock: UXUYUI_clean_sbu_0, # of connection points: 4
#     Node 1, Type 0, BuildingBlock: UXUYUI_clean_sbu_0, # of connection points: 4
#     Node 2, Type 0, BuildingBlock: UXUYUI_clean_sbu_0, # of connection points: 4
#     Node 3, Type 0, BuildingBlock: UXUYUI_clean_sbu_0, # of connection points: 4
#     Node 4, Type 0, BuildingBlock: UXUYUI_clean_sbu_0, # of connection points: 4
#     Node 5, Type 0, BuildingBlock: UXUYUI_clean_sbu_0, # of connection points: 4
#     Node 6, Type 0, BuildingBlock: UXUYUI_clean_sbu_0, # of connection points: 4
#     Node 7, Type 0, BuildingBlock: UXUYUI_clean_sbu_0, # of connection points: 4
#     Node 8, Type 0, BuildingBlock: UXUYUI_clean_sbu_0, # of connection points: 4
#     Node 9, Type 0, BuildingBlock: UXUYUI_clean_sbu_0, # of connection points: 4
#     Node 10, Type 0, BuildingBlock: UXUYUI_clean_sbu_0, # of connection points: 4
#     Node 11, Type 0, BuildingBlock: UXUYUI_clean_sbu_0, # of connection points: 4
#     Node 12, Type 0, BuildingBlock: UXUYUI_clean_sbu_0, # of connection points: 4
#     Node 13, Type 0, BuildingBlock: UXUYUI_clean_sbu_0, # of connection points: 4
#     Node 14, Type 0, BuildingBlock: UXUYUI_clean_sbu_0, # of connection points: 4
#     Node 15, Type 0, BuildingBlock: UXUYUI_clean_sbu_0, # of connection points: 4
#     Edge 16, Type (0, 0), BuildingBlock: CIFDUS_clean_linker_0, # of connection points: 2
#     Edge 17, Type (0, 0), BuildingBlock: CIFDUS_clean_linker_0, # of connection points: 2
#     Edge 18, Type (0, 0), BuildingBlock: CIFDUS_clean_linker_0, # of connection points: 2
#     Edge 19, Type (0, 0), BuildingBlock: CIFDUS_clean_linker_0, # of connection points: 2
#     Edge 20, Type (0, 0), BuildingBlock: CIFDUS_clean_linker_0, # of connection points: 2
#     Edge 21, Type (0, 0), BuildingBlock: CIFDUS_clean_linker_0, # of connection points: 2
#     Edge 22, Type (0, 0), BuildingBlock: CIFDUS_clean_linker_0, # of connection points: 2
#     Edge 23, Type (0, 0), BuildingBlock: CIFDUS_clean_linker_0, # of connection points: 2
#     Edge 24, Type (0, 0), BuildingBlock: CIFDUS_clean_linker_0, # of connection points: 2
#     Edge 25, Type (0, 0), BuildingBlock: CIFDUS_clean_linker_0, # of connection points: 2
#     Edge 26, Type (0, 0), BuildingBlock: CIFDUS_clean_linker_0, # of connection points: 2
#     Edge 27, Type (0, 0), BuildingBlock: CIFDUS_clean_linker_0, # of connection points: 2
#     Edge 28, Type (0, 0), BuildingBlock: CIFDUS_clean_linker_0, # of connection points: 2
#     Edge 29, Type (0, 0), BuildingBlock: CIFDUS_clean_linker_0, # of connection points: 2
#     Edge 30, Type (0, 0), BuildingBlock: CIFDUS_clean_linker_0, # of connection points: 2
#     Edge 31, Type (0, 0), BuildingBlock: CIFDUS_clean_linker_0, # of connection points: 2
#     Edge 32, Type (0, 0), BuildingBlock: CIFDUS_clean_linker_0, # of connection points: 2
#     Edge 33, Type (0, 0), BuildingBlock: CIFDUS_clean_linker_0, # of connection points: 2
#     Edge 34, Type (0, 0), BuildingBlock: CIFDUS_clean_linker_0, # of connection points: 2
#     Edge 35, Type (0, 0), BuildingBlock: CIFDUS_clean_linker_0, # of connection points: 2
#     Edge 36, Type (0, 0), BuildingBlock: CIFDUS_clean_linker_0, # of connection points: 2
#     Edge 37, Type (0, 0), BuildingBlock: CIFDUS_clean_linker_0, # of connection points: 2
#     Edge 38, Type (0, 0), BuildingBlock: CIFDUS_clean_linker_0, # of connection points: 2
#     Edge 39, Type (0, 0), BuildingBlock: CIFDUS_clean_linker_0, # of connection points: 2
#     Edge 40, Type (0, 0), BuildingBlock: CIFDUS_clean_linker_0, # of connection points: 2
#     Edge 41, Type (0, 0), BuildingBlock: CIFDUS_clean_linker_0, # of connection points: 2
#     Edge 42, Type (0, 0), BuildingBlock: CIFDUS_clean_linker_0, # of connection points: 2
#     Edge 43, Type (0, 0), BuildingBlock: CIFDUS_clean_linker_0, # of connection points: 2
#     Edge 44, Type (0, 0), BuildingBlock: CIFDUS_clean_linker_0, # of connection points: 2
#     Edge 45, Type (0, 0), BuildingBlock: CIFDUS_clean_linker_0, # of connection points: 2
#     Edge 46, Type (0, 0), BuildingBlock: CIFDUS_clean_linker_0, # of connection points: 2
#     Edge 47, Type (0, 0), BuildingBlock: CIFDUS_clean_linker_0, # of connection points: 2
# Relax obj value: 0.204
# Max RMSD: 0.157
# Mean RMSD: 0.156
data_MOF--net-mon--node1-UXUYUI_clean_sbu_0--edge1-CIFDUS_clean_linker_0
_symmetry_space_group_name_H-M    P1
_symmetry_Int_Tables_number       1
_symmetry_cell_setting            triclinic
loop_
_symmetry_equiv_pos_as_xyz
'x, y, z'
_cell_length_a     45.663259
_cell_length_b     45.595718
_cell_length_c     112.8955
_cell_angle_alpha  89.991629
_cell_angle_beta   90.010379
_cell_angle_gamma 89.983453
loop_
_atom_site_label
_atom_site_type_symbol
_atom_site_fract_x
_atom_site_fract_y
_atom_site_fract_z
_atom_type_partial_charge
Li0 Li 0.01008 0.02683 0.57433 0.0
Li1 Li 0.00994 0.0608 0.59094 0.0
Li2 Li 0.03986 0.01649 0.59137 0.0
Li3 Li 0.98687 0.01403 0.59315 0.0
C4 C 0.07211 0.05628 0.58175 0.0
N5 N 0.13108 0.0662 0.58555 0.0
C6 C 0.08116 0.07629 0.59039 0.0
C7 C 0.09308 0.04126 0.57506 0.0
C8 C 0.11107 0.08103 0.59216 0.0
C9 C 0.12278 0.04659 0.57712 0.0
C10 C 0.95945 0.0697 0.58008 0.0
C11 C 0.92783 0.10821 0.58726 0.0
N12 N 0.92866 0.12112 0.57641 0.0
C13 C 0.95991 0.08333 0.56899 0.0
C14 C 0.94317 0.08217 0.58928 0.0
C15 C 0.94421 0.10931 0.56731 0.0
C16 C 0.97954 0.01595 0.55326 0.0
N17 N 0.00622 0.02342 0.55764 0.0
C18 C 0.02705 0.02281 0.53826 0.0
C19 C 0.02971 0.02728 0.55044 0.0
C20 C -0.00016 0.01458 0.53346 0.0
C21 C 0.97581 0.01147 0.54113 0.0
H22 H 0.96121 0.01318 0.55922 0.0
H23 H 0.05062 0.0333 0.55417 0.0
C24 C 0.00356 0.11245 0.60535 0.0
N25 N 0.00812 0.10146 0.5943 0.0
C26 C 8e-05 0.14266 0.60696 0.0
C27 C 0.00682 0.14938 0.58588 0.0
C28 C 0.01061 0.11925 0.58471 0.0
C29 C 0.00111 0.16133 0.59708 0.0
H30 H 0.00225 0.09782 0.61285 0.0
H31 H 0.01483 0.10985 0.57608 0.0
C32 C 0.0063 0.96995 0.57442 0.0
N33 N 0.99195 0.933 0.55587 0.0
C34 C 0.97793 0.95866 0.57343 0.0
C35 C 0.02732 0.96247 0.56593 0.0
C36 C 0.97114 0.93997 0.56401 0.0
C37 C 0.01964 0.94379 0.55663 0.0
C38 C 0.00372 0.0241 0.61469 0.0
C39 C 0.0153 -0.00062 0.62033 0.0
C40 C 0.97953 0.0384 0.61962 0.0
C41 C 0.0025 0.98941 0.63082 0.0
C42 C 0.96731 0.02771 0.63011 0.0
N43 N 0.97896 0.00365 0.63545 0.0
C44 C 0.08667 0.00859 0.60753 0.0
C45 C 0.0887 0.97845 0.59047 0.0
C46 C 0.11101 0.99438 0.61236 0.0
N47 N 0.07558 -0.00016 0.59693 0.0
C48 C 0.11338 0.96408 0.59483 0.0
C49 C 0.12433 0.97127 0.60611 0.0
H50 H 0.07589 0.02587 0.61245 0.0
H51 H 0.07972 0.97218 0.58202 0.0
C52 C 0.9282 0.00282 0.60072 0.0
N53 N 0.95609 0.99246 0.60035 0.0
C54 C 0.90604 0.98609 0.60593 0.0
C55 C 0.9418 0.94835 0.61014 0.0
C56 C 0.96319 0.96579 0.60489 0.0
C57 C 0.91275 0.95838 0.61066 0.0
H58 H 0.92307 0.02387 0.59687 0.0
H59 H 0.98554 0.95804 0.60434 0.0
O60 O 0.04294 0.05068 0.58013 0.0
O61 O 0.97522 0.04458 0.58198 0.0
O62 O 0.01323 0.98888 0.58343 0.0
O63 O 0.01552 0.03382 0.60425 0.0
H64 H 0.06533 0.08779 0.59578 0.0
H65 H 0.08656 0.02518 0.56854 0.0
H66 H 0.11837 0.0964 0.59883 0.0
H67 H 0.13923 0.03498 0.57206 0.0
H68 H 0.91538 0.11821 0.59434 0.0
H69 H 0.97263 0.07427 0.56179 0.0
H70 H 0.94282 0.07218 0.59796 0.0
H71 H 0.94452 0.12017 0.55879 0.0
H72 H 0.04626 0.0251 0.53272 0.0
H73 H 0.95433 0.00565 0.53782 0.0
H74 H 0.99591 0.15124 0.61575 0.0
H75 H 0.00832 0.16321 0.5781 0.0
H76 H 0.96113 0.96452 0.57972 0.0
H77 H 0.0491 0.97165 0.56628 0.0
H78 H 0.94925 0.93116 0.56313 0.0
H79 H 0.03564 0.93808 0.54995 0.0
H80 H 0.0336 0.98763 0.61654 0.0
H81 H 0.96998 0.05727 0.6153 0.0
H82 H 0.01115 0.97022 0.63524 0.0
H83 H 0.94849 0.03847 0.63397 0.0
H84 H 0.11845 0.00063 0.62111 0.0
H85 H 0.12336 0.94705 0.5895 0.0
H86 H 0.88384 0.99444 0.60602 0.0
H87 H 0.94796 0.92727 0.6138 0.0
Li88 Li 0.24064 0.72691 0.84402 0.0
Li89 Li 0.19607 0.75566 0.84118 0.0
Li90 Li 0.23498 0.7533 0.8257 0.0
Li91 Li 0.24266 0.78219 0.84369 0.0
C92 C 0.20429 0.69193 0.83212 0.0
N93 N 0.19385 0.6323 0.83313 0.0
C94 C 0.179 0.6813 0.83761 0.0
C95 C 0.22411 0.67226 0.82703 0.0
C96 C 0.17414 0.65106 0.83805 0.0
C97 C 0.2185 0.64218 0.82767 0.0
C98 C 0.21043 0.76098 0.86592 0.0
C99 C 0.19209 0.79474 0.88061 0.0
N100 N 0.18614 0.7718 0.88792 0.0
C101 C 0.20453 0.73777 0.87365 0.0
C102 C 0.2045 0.78973 0.86948 0.0
C103 C 0.19209 0.74367 0.88471 0.0
C104 C 0.28684 0.69047 0.8508 0.0
N105 N 0.25724 0.69305 0.85128 0.0
C106 C 0.25349 0.64798 0.86203 0.0
C107 C 0.24047 0.67258 0.85684 0.0
C108 C 0.28405 0.6446 0.86154 0.0
C109 C 0.30075 0.66634 0.85588 0.0
H110 H 0.29974 0.70731 0.84657 0.0
H111 H 0.217 0.67529 0.85724 0.0
C112 C 0.13948 0.76776 0.83387 0.0
N113 N 0.15491 0.75764 0.84331 0.0
C114 C 0.10904 0.76955 0.83437 0.0
C115 C 0.11083 0.75006 0.85428 0.0
C116 C 0.14129 0.74871 0.85339 0.0
C117 C 0.09432 0.76056 0.84467 0.0
H118 H 0.15088 0.77421 0.82589 0.0
H119 H 0.15391 0.7401 0.86067 0.0
C120 C 0.29244 0.75378 0.82852 0.0
N121 N 0.33764 0.75528 0.81227 0.0
C122 C 0.30839 0.77958 0.82681 0.0
C123 C 0.29972 0.72863 0.82209 0.0
C124 C 0.33111 0.77992 0.81853 0.0
C125 C 0.32256 0.72986 0.81387 0.0
C126 C 0.20063 0.81527 0.83069 0.0
C127 C 0.20504 0.83275 0.82068 0.0
C128 C 0.1835 0.82583 0.84002 0.0
C129 C 0.19267 0.86076 0.82026 0.0
C130 C 0.17146 0.85393 0.83926 0.0
N131 N 0.17629 0.87069 0.82949 0.0
C132 C 0.23332 0.73064 0.80233 0.0
C133 C 0.25681 0.77672 0.80446 0.0
C134 C 0.23903 0.73061 0.79018 0.0
N135 N 0.24237 0.75342 0.80917 0.0
C136 C 0.26324 0.77746 0.79239 0.0
C137 C 0.25429 0.7542 0.78509 0.0
H138 H 0.22166 0.71252 0.80631 0.0
H139 H 0.26341 0.79469 0.8101 0.0
C140 C 0.27423 0.81287 0.86091 0.0
N141 N 0.26177 0.81549 0.85004 0.0
C142 C 0.29088 0.83578 0.86557 0.0
C143 C 0.28126 0.86377 0.8478 0.0
C144 C 0.26484 0.84029 0.84348 0.0
C145 C 0.29489 0.86152 0.85892 0.0
H146 H 0.27189 0.79263 0.86582 0.0
H147 H 0.25544 0.84151 0.83472 0.0
O148 O 0.2095 0.72144 0.83166 0.0
O149 O 0.22287 0.75555 0.85511 0.0
O150 O 0.26978 0.75315 0.83645 0.0
O151 O 0.21265 0.78779 0.83122 0.0
H152 H 0.16336 0.69619 0.84154 0.0
H153 H 0.24371 0.68011 0.8227 0.0
H154 H 0.15473 0.64252 0.84232 0.0
H155 H 0.23375 0.6267 0.82384 0.0
H156 H 0.18731 0.81689 0.88345 0.0
H157 H 0.20928 0.71542 0.87112 0.0
H158 H 0.20973 0.80806 0.8638 0.0
H159 H 0.18719 0.72589 0.89073 0.0
H160 H 0.23978 0.63171 0.86628 0.0
H161 H 0.32441 0.66502 0.85554 0.0
H162 H 0.09714 0.77724 0.82668 0.0
H163 H 0.10033 0.74297 0.86239 0.0
H164 H 0.30316 0.7992 0.83176 0.0
H165 H 0.28771 0.70844 0.82336 0.0
H166 H 0.34353 0.79979 0.81706 0.0
H167 H 0.32829 0.71063 0.80877 0.0
H168 H 0.21799 0.82483 0.81332 0.0
H169 H 0.17919 0.81236 0.84768 0.0
H170 H 0.19605 0.87458 0.8126 0.0
H171 H 0.15817 0.86237 0.84642 0.0
H172 H 0.2319 0.71219 0.78485 0.0
H173 H 0.2747 0.79623 0.78877 0.0
H174 H 0.30145 0.83286 0.87408 0.0
H175 H 0.28368 0.88324 0.8424 0.0
Li176 Li 0.53739 0.98214 0.09215 0.0
Li177 Li 0.48531 0.97929 0.09162 0.0
Li178 Li 0.51247 0.93509 0.09081 0.0
Li179 Li 0.51121 0.96947 0.07348 0.0
C180 C 0.52782 0.9544 0.11351 0.0
N181 N 0.56181 0.9363 0.13241 0.0
C182 C 0.51974 0.96164 0.12509 0.0
C183 C 0.55324 0.93805 0.11156 0.0
C184 C 0.5372 0.95227 0.13453 0.0
C185 C 0.57011 0.92906 0.12122 0.0
C186 C 0.5103 0.03489 0.08635 0.0
C187 C 0.51538 0.08665 0.08248 0.0
N188 N 0.5106 0.09232 0.09415 0.0
C189 C 0.50542 0.04122 0.0983 0.0
C190 C 0.51529 0.05775 0.07836 0.0
C191 C 0.50567 0.07039 0.10207 0.0
C192 C 0.59511 0.00374 0.09126 0.0
N193 N 0.57054 0.00229 0.09801 0.0
C194 C 0.59265 0.03172 0.11301 0.0
C195 C 0.56898 0.01564 0.10874 0.0
C196 C 0.61842 0.03378 0.10624 0.0
C197 C 0.61954 0.01924 0.09526 0.0
H198 H 0.59562 0.99303 0.08271 0.0
H199 H 0.54913 0.01427 0.11392 0.0
C200 C 0.44258 0.99228 0.10887 0.0
N201 N 0.45076 0.99719 0.09747 0.0
C202 C 0.41909 0.00768 0.11374 0.0
C203 C 0.41208 0.03175 0.09486 0.0
C204 C 0.43594 0.01618 0.09041 0.0
C205 C 0.40378 0.02815 0.10677 0.0
H206 H 0.4549 0.97706 0.11426 0.0
H207 H 0.44308 0.01965 0.08138 0.0
C208 C 0.56528 0.93174 0.07572 0.0
N209 N 0.60525 0.8949 0.0649 0.0
C210 C 0.55842 0.91825 0.06495 0.0
C211 C 0.59268 0.92681 0.08089 0.0
C212 C 0.57886 0.8996 0.05965 0.0
C213 C 0.61252 0.90802 0.07531 0.0
C214 C 0.4496 0.94299 0.08156 0.0
C215 C 0.4378 0.92705 0.091 0.0
C216 C 0.43092 0.95688 0.07351 0.0
C217 C 0.40742 0.92535 0.09225 0.0
C218 C 0.40065 0.95464 0.07507 0.0
N219 N 0.38963 0.93907 0.08433 0.0
C220 C 0.50428 0.88617 0.10611 0.0
C221 C 0.52119 0.87474 0.08682 0.0
C222 C 0.50409 0.8565 0.10918 0.0
N223 N 0.51311 0.8947 0.09512 0.0
C224 C 0.5215 0.84495 0.08951 0.0
C225 C 0.51291 0.83551 0.10082 0.0
H226 H 0.49696 0.90232 0.11245 0.0
H227 H 0.52673 0.88183 0.078 0.0
C228 C 0.5322 0.99272 0.05225 0.0
N229 N 0.51202 0.97412 0.05689 0.0
C230 C 0.53282 -0.00197 0.04008 0.0
C231 C 0.492 0.9647 0.03775 0.0
C232 C 0.49233 0.95986 0.04995 0.0
C233 C 0.51229 0.98418 0.03269 0.0
H234 H 0.54753 0.00373 0.05805 0.0
H235 H 0.47679 0.9449 0.05391 0.0
O236 O 0.51116 0.96396 0.1042 0.0
O237 O 0.5101 0.00652 0.08241 0.0
O238 O 0.54577 0.95059 0.08092 0.0
O239 O 0.47929 0.94549 0.08038 0.0
H240 H 0.50027 0.97452 0.12677 0.0
H241 H 0.55974 0.93217 0.1027 0.0
H242 H 0.53121 0.95774 0.14353 0.0
H243 H 0.58979 0.91632 0.11982 0.0
H244 H 0.51923 0.10457 0.0764 0.0
H245 H 0.50152 0.02382 0.10462 0.0
H246 H 0.51907 0.05318 0.06908 0.0
H247 H 0.50194 0.0756 0.1113 0.0
H248 H 0.59039 0.04304 0.12139 0.0
H249 H 0.639 0.01989 0.08979 0.0
H250 H 0.41378 0.0044 0.12299 0.0
H251 H 0.40062 0.04684 0.08908 0.0
H252 H 0.53736 0.9217 0.06082 0.0
H253 H 0.5987 0.93748 0.08909 0.0
H254 H 0.57371 0.88883 0.05137 0.0
H255 H 0.63375 0.90396 0.07923 0.0
H256 H 0.45196 0.91638 0.09736 0.0
H257 H 0.43969 0.96964 0.06625 0.0
H258 H 0.39798 0.9132 0.09954 0.0
H259 H 0.38592 0.96541 0.06895 0.0
H260 H 0.4971 0.85007 0.11797 0.0
H261 H 0.52759 0.82939 0.08269 0.0
H262 H 0.54864 0.01338 0.03652 0.0
H263 H 0.47608 0.95332 0.03232 0.0
Li264 Li 0.27161 0.2775 0.34267 0.0
Li265 Li 0.31718 0.25331 0.3407 0.0
Li266 Li 0.2783 0.25135 0.32453 0.0
Li267 Li 0.2716 0.22596 0.34423 0.0
C268 C 0.30794 0.31389 0.33032 0.0
N269 N 0.32001 0.37321 0.33039 0.0
C270 C 0.32035 0.32695 0.34032 0.0
C271 C 0.30184 0.33089 0.32032 0.0
C272 C 0.32623 0.35701 0.3402 0.0
C273 C 0.30807 0.36088 0.32054 0.0
C274 C 0.30551 0.23883 0.36381 0.0
C275 C 0.33225 0.19636 0.37058 0.0
N276 N 0.33359 0.20817 0.38163 0.0
C277 C 0.30718 0.25053 0.37523 0.0
C278 C 0.31817 0.21153 0.36146 0.0
C279 C 0.32146 0.2347 0.38412 0.0
C280 C 0.24813 0.31056 0.36113 0.0
N281 N 0.25361 0.31156 0.34931 0.0
C282 C 0.23012 0.35824 0.34778 0.0
C283 C 0.24513 0.33486 0.34261 0.0
C284 C 0.22369 0.35754 0.35995 0.0
C285 C 0.23319 0.33342 0.36666 0.0
H286 H 0.25456 0.29151 0.3662 0.0
H287 H 0.24919 0.33492 0.33319 0.0
C288 C 0.37562 0.243 0.33468 0.0
N289 N 0.35798 0.25454 0.34316 0.0
C290 C 0.40594 0.24357 0.33608 0.0
C291 C 0.39933 0.26834 0.35484 0.0
C292 C 0.36912 0.2672 0.35309 0.0
C293 C 0.41813 0.25636 0.34627 0.0
H294 H 0.36607 0.23353 0.32679 0.0
H295 H 0.35455 0.27654 0.35962 0.0
C296 C 0.21825 0.26527 0.33634 0.0
N297 N 0.16799 0.29807 0.33958 0.0
C298 C 0.20137 0.26159 0.34655 0.0
C299 C 0.20948 0.2855 0.32773 0.0
C300 C 0.17608 0.27844 0.34805 0.0
C301 C 0.184 0.30188 0.32954 0.0
C302 C 0.30674 0.19227 0.32676 0.0
C303 C 0.28682 0.18119 0.31849 0.0
C304 C 0.33172 0.17601 0.32963 0.0
C305 C 0.29217 0.15394 0.31326 0.0
C306 C 0.33627 0.14884 0.32421 0.0
N307 N 0.31658 0.13847 0.31621 0.0
C308 C 0.29585 0.2507 0.30067 0.0
C309 C 0.24503 0.24334 0.30374 0.0
C310 C 0.29229 0.24756 0.28845 0.0
N311 N 0.27236 0.24856 0.308 0.0
C312 C 0.24041 0.24033 0.29159 0.0
C313 C 0.26423 0.24232 0.28375 0.0
H314 H 0.31739 0.25447 0.30436 0.0
H315 H 0.22684 0.24118 0.30981 0.0
C316 C 0.2422 0.19874 0.36284 0.0
N317 N 0.25439 0.19322 0.35208 0.0
C318 C 0.22716 0.17674 0.36889 0.0
C319 C 0.23832 0.1434 0.35287 0.0
C320 C 0.25305 0.1661 0.34712 0.0
C321 C 0.22468 0.14872 0.36381 0.0
H322 H 0.24352 0.22054 0.36658 0.0
H323 H 0.26284 0.16206 0.33861 0.0
O324 O 0.30181 0.28457 0.33028 0.0
O325 O 0.29172 0.25433 0.35503 0.0
O326 O 0.24347 0.24947 0.33485 0.0
O327 O 0.30225 0.2192 0.3318 0.0
H328 H 0.32499 0.31408 0.34815 0.0
H329 H 0.29225 0.32102 0.31251 0.0
H330 H 0.33567 0.36747 0.3479 0.0
H331 H 0.30338 0.37437 0.31289 0.0
H332 H 0.34209 0.1752 0.36888 0.0
H333 H 0.29765 0.27171 0.37721 0.0
H334 H 0.31709 0.20203 0.35273 0.0
H335 H 0.32293 0.24353 0.39299 0.0
H336 H 0.22326 0.37646 0.34229 0.0
H337 H 0.22818 0.33168 0.37601 0.0
H338 H 0.41971 0.23457 0.32916 0.0
H339 H 0.40786 0.27827 0.36284 0.0
H340 H 0.20785 0.24611 0.35331 0.0
H341 H 0.22253 0.28901 0.31986 0.0
H342 H 0.16291 0.27596 0.35595 0.0
H343 H 0.17708 0.31778 0.323 0.0
H344 H 0.26716 0.1932 0.31629 0.0
H345 H 0.34745 0.18426 0.33598 0.0
H346 H 0.27687 0.14505 0.30689 0.0
H347 H 0.35549 0.13602 0.32637 0.0
H348 H 0.31137 0.24876 0.28278 0.0
H349 H 0.21835 0.23667 0.2884 0.0
H350 H 0.21669 0.18195 0.37723 0.0
H351 H 0.2373 0.12202 0.34872 0.0
Li352 Li 0.97552 0.97756 0.40368 0.0
Li353 Li 0.03032 0.98227 0.40434 0.0
Li354 Li 0.00695 0.93612 0.40813 0.0
Li355 Li 0.00521 0.9737 0.42261 0.0
C356 C 0.00971 0.93955 0.3848 0.0
N357 N 0.01918 0.89642 0.36808 0.0
C358 C 0.03825 0.93095 0.382 0.0
C359 C 0.98599 0.92641 0.37907 0.0
C360 C 0.04258 0.90904 0.37352 0.0
C361 C 0.99124 0.9046 0.37064 0.0
C362 C 0.00952 0.03529 0.40875 0.0
C363 C 0.04414 0.07504 0.41051 0.0
N364 N 0.02972 0.08982 0.40182 0.0
C365 C 0.99491 0.05101 0.39991 0.0
C366 C 0.03419 0.04752 0.41417 0.0
C367 C 0.00549 0.0785 0.39651 0.0
C368 C 0.91774 -0.00061 0.40305 0.0
N369 N 0.9414 0.99213 0.39638 0.0
C370 C 0.91905 0.01194 0.37903 0.0
C371 C 0.9423 0.99759 0.38456 0.0
C372 C 0.89457 0.0206 0.38573 0.0
C373 C 0.89382 0.01348 0.39786 0.0
H374 H 0.91783 0.99491 0.41246 0.0
H375 H 0.96169 0.99201 0.37955 0.0
C376 C 0.08943 -0.00013 0.40058 0.0
N377 N 0.06151 0.0014 0.39647 0.0
C378 C 0.11171 0.01545 0.39492 0.0
C379 C 0.07617 0.03288 0.38067 0.0
C380 C 0.05465 0.01693 0.38659 0.0
C381 C 0.10511 0.03252 0.3849 0.0
H382 H 0.0944 0.98671 0.40827 0.0
H383 H 0.03228 0.01735 0.38345 0.0
C384 C 0.95555 0.92481 0.41919 0.0
N385 N 0.92306 0.87481 0.42352 0.0
C386 C 0.9661 0.90334 0.42694 0.0
C387 C 0.92842 0.92088 0.41368 0.0
C388 C 0.94938 0.8782 0.42899 0.0
C389 C 0.91233 0.89545 0.41598 0.0
C390 C 0.05566 0.95009 0.42697 0.0
C391 C 0.05489 0.92343 0.43309 0.0
C392 C 0.07126 0.97369 0.43173 0.0
C393 C 0.06968 0.92088 0.44388 0.0
C394 C 0.08569 0.9703 0.44255 0.0
N395 N 0.08461 0.94418 0.44835 0.0
C396 C 0.03828 0.88329 0.4066 0.0
C397 C 0.98825 0.87831 0.40148 0.0
C398 C 0.04262 0.85319 0.40535 0.0
N399 N 0.01118 0.89504 0.40512 0.0
C400 C 0.99151 0.84807 0.4002 0.0
C401 C 0.01885 0.83504 0.40243 0.0
H402 H 0.0565 0.89728 0.40892 0.0
H403 H 0.96724 0.88831 0.39976 0.0
C404 C 0.00442 0.01229 0.44222 0.0
N405 N 0.00412 0.98354 0.43905 0.0
C406 C 0.00471 0.02025 0.45416 0.0
C407 C 0.00394 0.96886 0.45936 0.0
C408 C 0.00337 0.96194 0.44734 0.0
C409 C 0.0047 -0.00163 0.46293 0.0
H410 H 0.00443 0.0291 0.43548 0.0
H411 H 0.00288 0.93928 0.44465 0.0
O412 O 0.00502 0.96039 0.39328 0.0
O413 O -0.00013 0.00802 0.41201 0.0
O414 O 0.97148 0.94967 0.41708 0.0
O415 O 0.04101 0.95317 0.41644 0.0
H416 H 0.05681 0.94087 0.38641 0.0
H417 H 0.96376 0.93275 0.38121 0.0
H418 H 0.06453 0.90202 0.3713 0.0
H419 H 0.9731 0.89409 0.36618 0.0
H420 H 0.06335 0.08462 0.41456 0.0
H421 H 0.9757 0.04207 0.39566 0.0
H422 H 0.04572 0.03579 0.42105 0.0
H423 H 0.99447 0.09081 0.38964 0.0
H424 H 0.92094 0.0174 0.36973 0.0
H425 H 0.87526 0.01932 0.40334 0.0
H426 H 0.13384 0.01414 0.39833 0.0
H427 H 0.07003 0.04595 0.37306 0.0
H428 H 0.98726 0.90568 0.43109 0.0
H429 H 0.91995 0.93717 0.40761 0.0
H430 H 0.95741 0.8613 0.43489 0.0
H431 H 0.89134 0.89209 0.41175 0.0
H432 H 0.04259 0.90502 0.4297 0.0
H433 H 0.07198 0.99453 0.42719 0.0
H434 H 0.06911 0.90043 0.44873 0.0
H435 H 0.09768 0.98845 0.44636 0.0
H436 H 0.06428 0.8442 0.40679 0.0
H437 H 0.97255 0.835 0.39791 0.0
H438 H 0.00472 0.04329 0.45648 0.0
H439 H 0.00432 0.95119 0.46577 0.0
Li440 Li 0.27906 0.77653 0.65463 0.0
Li441 Li 0.28202 0.75112 0.67379 0.0
Li442 Li 0.32215 0.74782 0.65868 0.0
Li443 Li 0.27623 0.72147 0.65559 0.0
C444 C 0.3092 0.81252 0.66869 0.0
N445 N 0.31097 0.87287 0.67068 0.0
C446 C 0.2953 0.82645 0.67817 0.0
C447 C 0.32431 0.82921 0.6603 0.0
C448 C 0.29639 0.85701 0.679 0.0
C449 C 0.32484 0.85972 0.66143 0.0
C450 C 0.22179 0.74799 0.66693 0.0
C451 C 0.18425 0.7176 0.6756 0.0
N452 N 0.16617 0.74126 0.67619 0.0
C453 C 0.2027 0.77193 0.66749 0.0
C454 C 0.21239 0.72053 0.6709 0.0
C455 C 0.17473 0.76812 0.67226 0.0
C456 C 0.26208 0.80738 0.63444 0.0
N457 N 0.2627 0.80912 0.64645 0.0
C458 C 0.23359 0.8527 0.64605 0.0
C459 C 0.24919 0.83139 0.65232 0.0
C460 C 0.23153 0.85066 0.63367 0.0
C461 C 0.24657 0.82804 0.62784 0.0
H462 H 0.27254 0.7892 0.63 0.0
H463 H 0.24926 0.83182 0.66189 0.0
C464 C 0.29352 0.74014 0.69769 0.0
N465 N 0.27363 0.75255 0.69027 0.0
C466 C 0.2884 0.7395 0.70987 0.0
C467 C 0.24271 0.76502 0.70657 0.0
C468 C 0.2488 0.76531 0.69446 0.0
C469 C 0.26258 0.75184 0.71444 0.0
H470 H 0.31325 0.73044 0.69412 0.0
H471 H 0.23379 0.77587 0.68845 0.0
C472 C 0.31681 0.74346 0.63511 0.0
N473 N 0.35659 0.7365 0.6169 0.0
C474 C 0.31935 0.71644 0.62935 0.0
C475 C 0.33419 0.76704 0.6315 0.0
C476 C 0.33967 0.71334 0.62019 0.0
C477 C 0.35428 0.76305 0.62231 0.0
C478 C 0.30536 0.68858 0.67324 0.0
C479 C 0.32868 0.66967 0.67078 0.0
C480 C 0.28275 0.67921 0.68067 0.0
C481 C 0.32866 0.64145 0.6756 0.0
C482 C 0.28353 0.65084 0.68532 0.0
N483 N 0.30626 0.63268 0.6827 0.0
C484 C 0.3806 0.76568 0.66178 0.0
C485 C 0.37483 0.72173 0.65082 0.0
C486 C 0.41101 0.76357 0.66092 0.0
N487 N 0.36327 0.74491 0.65676 0.0
C488 C 0.40509 0.71895 0.6496 0.0
C489 C 0.42369 0.73993 0.65477 0.0
H490 H 0.37081 0.78363 0.66662 0.0
H491 H 0.36055 0.70524 0.64711 0.0
C492 C 0.23088 0.69366 0.64384 0.0
N493 N 0.25759 0.68848 0.6487 0.0
C494 C 0.21525 0.67098 0.63853 0.0
C495 C 0.25527 0.63805 0.64301 0.0
C496 C 0.27014 0.66145 0.64826 0.0
C497 C 0.22741 0.6427 0.63806 0.0
H498 H 0.22166 0.7155 0.64414 0.0
H499 H 0.29179 0.65808 0.65184 0.0
O500 O 0.3083 0.78265 0.6677 0.0
O501 O 0.24925 0.75139 0.66226 0.0
O502 O 0.2972 0.74685 0.64415 0.0
O503 O 0.3051 0.71631 0.66859 0.0
H504 H 0.28367 0.81384 0.68478 0.0
H505 H 0.33542 0.81873 0.65298 0.0
H506 H 0.2856 0.86811 0.68626 0.0
H507 H 0.33631 0.87294 0.65497 0.0
H508 H 0.17673 0.69647 0.67872 0.0
H509 H 0.20947 0.79328 0.66436 0.0
H510 H 0.22649 0.70159 0.67023 0.0
H511 H 0.15982 0.7865 0.67282 0.0
H512 H 0.2219 0.86958 0.65088 0.0
H513 H 0.24554 0.8258 0.6183 0.0
H514 H 0.30422 0.729 0.71563 0.0
H515 H 0.22283 0.77528 0.70977 0.0
H516 H 0.30593 0.69802 0.63199 0.0
H517 H 0.33226 0.78815 0.63579 0.0
H518 H 0.34201 0.69251 0.6157 0.0
H519 H 0.36801 0.78106 0.61948 0.0
H520 H 0.34654 0.67664 0.66516 0.0
H521 H 0.26496 0.69376 0.68294 0.0
H522 H 0.34648 0.62653 0.6737 0.0
H523 H 0.26613 0.64329 0.69106 0.0
H524 H 0.42439 0.77994 0.66527 0.0
H525 H 0.41376 0.70054 0.64466 0.0
H526 H 0.19371 0.6755 0.63496 0.0
H527 H 0.26562 0.6167 0.64266 0.0
Li528 Li 0.51638 0.06157 0.90633 0.0
Li529 Li 0.52057 0.03075 0.92318 0.0
Li530 Li 0.5415 0.01594 0.90372 0.0
Li531 Li 0.48725 0.01849 0.90688 0.0
C532 C 0.56543 0.07088 0.92084 0.0
N533 N 0.58967 0.11484 0.93453 0.0
C534 C 0.54736 0.0909 0.92672 0.0
C535 C 0.59581 0.07323 0.92192 0.0
C536 C 0.56004 0.11296 0.9336 0.0
C537 C 0.60766 0.09561 0.92888 0.0
C538 C 0.46262 0.04949 0.92585 0.0
C539 C 0.43553 0.01992 0.93977 0.0
N540 N 0.41853 0.0435 0.94244 0.0
C541 C 0.44496 0.07346 0.92876 0.0
C542 C 0.45794 0.02253 0.93142 0.0
C543 C 0.42274 0.06998 0.93716 0.0
C544 C 0.48975 0.11534 0.90151 0.0
N545 N 0.51587 0.10115 0.90124 0.0
C546 C 0.54026 0.14454 0.89472 0.0
C547 C 0.54086 0.11488 0.89778 0.0
C548 C 0.51366 0.16001 0.89521 0.0
C549 C 0.48811 0.14492 0.89849 0.0
H550 H 0.47025 0.10371 0.90424 0.0
H551 H 0.56129 0.10288 0.89758 0.0
C552 C 0.54394 0.00471 0.94354 0.0
N553 N 0.52698 0.02731 0.93973 0.0
C554 C 0.54752 -0.00042 0.95564 0.0
C555 C 0.51677 0.04162 0.95964 0.0
C556 C 0.51405 0.04611 0.94748 0.0
C557 C 0.53333 0.01785 0.96384 0.0
H558 H 0.55408 0.99023 0.93715 0.0
H559 H 0.5011 0.06425 0.94423 0.0
C560 C 0.5067 0.05055 0.88407 0.0
N561 N 0.4984 0.08928 0.86557 0.0
C562 C 0.47853 0.06033 0.88127 0.0
C563 C 0.53062 0.06025 0.87743 0.0
C564 C 0.4748 0.07998 0.87189 0.0
C565 C 0.52597 0.07989 0.86812 0.0
C566 C 0.51126 0.96367 0.91535 0.0
C567 C 0.51484 0.94633 0.90525 0.0
C568 C 0.50253 0.95052 0.92598 0.0
C569 C 0.509 0.9163 0.90586 0.0
C570 C 0.49693 0.92041 0.92624 0.0
N571 N 0.50021 0.90406 0.91625 0.0
C572 C 0.59561 0.98634 0.90217 0.0
C573 C 0.56594 0.98462 0.88492 0.0
C574 C 0.61575 0.96705 0.89706 0.0
N575 N 0.57112 0.99422 0.89612 0.0
C576 C 0.58522 0.96502 0.87955 0.0
C577 C 0.61018 0.95562 0.88573 0.0
H578 H 0.59893 0.99423 0.91111 0.0
H579 H 0.54612 0.99116 0.88039 0.0
C580 C 0.42483 0.00508 0.90588 0.0
N581 N 0.45223 -0.00041 0.90167 0.0
C582 C 0.40083 0.98945 0.9015 0.0
C583 C 0.4334 0.96403 0.88813 0.0
C584 C 0.45668 0.98009 0.89276 0.0
C585 C 0.40503 0.96844 0.89257 0.0
H586 H 0.42132 0.02167 0.91252 0.0
H587 H 0.47842 0.97706 0.8892 0.0
O588 O 0.55365 0.04905 0.91402 0.0
O589 O 0.48497 0.0529 0.91789 0.0
O590 O 0.51087 0.03197 0.89341 0.0
O591 O 0.51713 0.99313 0.91497 0.0
H592 H 0.5238 0.08954 0.92598 0.0
H593 H 0.61009 0.0579 0.91741 0.0
H594 H 0.54631 0.12859 0.9382 0.0
H595 H 0.63115 0.09768 0.9298 0.0
H596 H 0.43165 -0.00086 0.94412 0.0
H597 H 0.44849 0.09459 0.92464 0.0
H598 H 0.47132 0.00385 0.92926 0.0
H599 H 0.40891 0.08835 0.9395 0.0
H600 H 0.56039 0.1553 0.89212 0.0
H601 H 0.46723 0.15608 0.89914 0.0
H602 H 0.56037 0.98094 0.95855 0.0
H603 H 0.50585 0.05642 0.96571 0.0
H604 H 0.45982 0.05308 0.88638 0.0
H605 H 0.55257 0.05292 0.87954 0.0
H606 H 0.45316 0.08789 0.86966 0.0
H607 H 0.54429 0.08774 0.86294 0.0
H608 H 0.52191 0.95593 0.897 0.0
H609 H 0.50026 0.96333 0.93399 0.0
H610 H 0.51151 0.90271 0.89807 0.0
H611 H 0.49006 0.91001 0.93439 0.0
H612 H 0.63469 0.96007 0.90211 0.0
H613 H 0.58035 0.95674 0.87078 0.0
H614 H 0.37919 0.99399 0.90498 0.0
H615 H 0.43771 0.94802 0.88126 0.0
Li616 Li 0.23686 0.24734 0.17244 0.0
Li617 Li 0.24488 0.22427 0.15245 0.0
Li618 Li 0.24062 0.27682 0.15462 0.0
Li619 Li 0.19848 0.24678 0.1562 0.0
C620 C 0.29617 0.26427 0.15889 0.0
N621 N 0.34616 0.29448 0.15248 0.0
C622 C 0.30871 0.25984 0.14774 0.0
C623 C 0.30913 0.28396 0.16681 0.0
C624 C 0.33397 0.27535 0.14466 0.0
C625 C 0.33438 0.29904 0.16339 0.0
C626 C 0.21961 0.18368 0.16628 0.0
C627 C 0.21213 0.13425 0.15932 0.0
N628 N 0.2279 0.12394 0.16865 0.0
C629 C 0.23555 0.17259 0.17586 0.0
C630 C 0.20759 0.16437 0.15799 0.0
C631 C 0.23956 0.14232 0.17689 0.0
C632 C 0.22129 0.24635 0.19651 0.0
N633 N 0.24427 0.24548 0.18887 0.0
C634 C 0.27833 0.24485 0.20491 0.0
C635 C 0.27237 0.24426 0.19279 0.0
C636 C 0.25508 0.24632 0.21303 0.0
C637 C 0.22623 0.24669 0.20871 0.0
H638 H 0.19918 0.24732 0.19309 0.0
H639 H 0.29017 0.24307 0.1865 0.0
C640 C 0.26462 0.19334 0.13245 0.0
N641 N 0.26539 0.1939 0.14448 0.0
C642 C 0.28132 0.17294 0.1262 0.0
C643 C 0.29906 0.1538 0.14485 0.0
C644 C 0.2823 0.17485 0.15073 0.0
C645 C 0.29893 0.15298 0.13242 0.0
H646 H 0.25176 0.20931 0.12767 0.0
H647 H 0.28339 0.17651 0.16027 0.0
C648 C 0.20496 0.30795 0.16907 0.0
N649 N 0.19484 0.36687 0.17307 0.0
C650 C 0.19369 0.32562 0.16004 0.0
C651 C 0.21102 0.32022 0.18015 0.0
C652 C 0.18877 0.35537 0.16222 0.0
C653 C 0.20575 0.35006 0.18199 0.0
C654 C 0.20387 0.25111 0.13313 0.0
C655 C 0.19539 0.27691 0.12738 0.0
C656 C 0.19143 0.22439 0.12975 0.0
C657 C 0.17441 0.27555 0.11839 0.0
C658 C 0.17049 0.22395 0.12073 0.0
N659 N 0.16248 0.24932 0.11528 0.0
C660 C 0.26341 0.31471 0.13732 0.0
C661 C 0.26531 0.3341 0.15678 0.0
C662 C 0.27867 0.33885 0.13293 0.0
N663 N 0.25712 0.31274 0.14906 0.0
C664 C 0.28057 0.35864 0.15278 0.0
C665 C 0.28782 0.36101 0.14073 0.0
H666 H 0.25773 0.29687 0.13145 0.0
H667 H 0.26117 0.33152 0.16614 0.0
C668 C 0.14324 0.21974 0.15808 0.0
N669 N 0.1574 0.24367 0.15376 0.0
C670 C 0.11294 0.21711 0.15681 0.0
C671 C 0.11251 0.26352 0.14647 0.0
C672 C 0.14267 0.26545 0.14811 0.0
C673 C 0.09712 0.23929 0.15097 0.0
H674 H 0.15539 0.20294 0.16271 0.0
H675 H 0.15426 0.2844 0.14487 0.0
O676 O 0.27088 0.25002 0.1619 0.0
O677 O 0.21563 0.21327 0.16509 0.0
O678 O 0.20996 0.27878 0.16713 0.0
O679 O 0.22425 0.25198 0.14203 0.0
H680 H 0.2988 0.24494 0.14146 0.0
H681 H 0.29945 0.28803 0.1754 0.0
H682 H 0.3438 0.27228 0.13603 0.0
H683 H 0.3445 0.31454 0.16938 0.0
H684 H 0.20308 0.11906 0.15293 0.0
H685 H 0.24494 0.18719 0.18238 0.0
H686 H 0.19493 0.17254 0.1506 0.0
H687 H 0.25199 0.13344 0.18422 0.0
H688 H 0.30085 0.24413 0.20792 0.0
H689 H 0.20773 0.24803 0.2147 0.0
H690 H 0.28077 0.17302 0.11661 0.0
H691 H 0.31284 0.13912 0.14993 0.0
H692 H 0.18947 0.31664 0.15135 0.0
H693 H 0.21981 0.30687 0.18723 0.0
H694 H 0.18028 0.36935 0.15528 0.0
H695 H 0.21038 0.35986 0.19051 0.0
H696 H 0.20451 0.29785 0.12995 0.0
H697 H 0.1978 0.20423 0.13407 0.0
H698 H 0.16751 0.29536 0.11392 0.0
H699 H 0.16061 0.20343 0.11806 0.0
H700 H 0.28444 0.33946 0.12363 0.0
H701 H 0.28725 0.37522 0.15909 0.0
H702 H 0.10201 0.19829 0.16063 0.0
H703 H 0.1014 0.28095 0.14174 0.0
Li704 Li 0.7865 0.25 0.17264 0.0
Li705 Li 0.77606 0.27603 0.15356 0.0
Li706 Li 0.77857 0.22269 0.1541 0.0
Li707 Li 0.8216 0.25126 0.15597 0.0
C708 C 0.72491 0.23503 0.16151 0.0
N709 N 0.67359 0.20417 0.15809 0.0
C710 C 0.70601 0.2427 0.15228 0.0
C711 C 0.71766 0.21186 0.16906 0.0
C712 C 0.68016 0.22679 0.15069 0.0
C713 C 0.69163 0.19646 0.16716 0.0
C714 C 0.80468 0.31374 0.16744 0.0
C715 C 0.81446 0.36352 0.1614 0.0
N716 N 0.7988 0.37345 0.17083 0.0
C717 C 0.78891 0.32442 0.17713 0.0
C718 C 0.81779 0.3334 0.15956 0.0
C719 C 0.78612 0.3547 0.17867 0.0
C720 C 0.80636 0.24686 0.19597 0.0
N721 N 0.78201 0.25012 0.1892 0.0
C722 C 0.75178 0.25342 0.20638 0.0
C723 C 0.75505 0.25351 0.19409 0.0
C724 C 0.77652 0.24984 0.21365 0.0
C725 C 0.80411 0.24659 0.20829 0.0
H726 H 0.82751 0.24441 0.19178 0.0
H727 H 0.73614 0.2564 0.18844 0.0
C728 C 0.75642 0.31273 0.13507 0.0
N729 N 0.7554 0.30815 0.14696 0.0
C730 C 0.73943 0.33471 0.12991 0.0
C731 C 0.72097 0.34712 0.14934 0.0
C732 C 0.7381 0.32469 0.15411 0.0
C733 C 0.72115 0.35211 0.13705 0.0
H734 H 0.76971 0.29873 0.12954 0.0
H735 H 0.73712 0.32004 0.16349 0.0
C736 C 0.829 0.19452 0.16488 0.0
N737 N 0.86811 0.14857 0.16277 0.0
C738 C 0.83311 0.1808 0.15395 0.0
C739 C 0.8447 0.18483 0.17476 0.0
C740 C 0.85302 0.15764 0.15305 0.0
C741 C 0.86438 0.16156 0.17351 0.0
C742 C 0.81239 0.25036 0.13242 0.0
C743 C 0.81509 0.22584 0.12507 0.0
C744 C 0.8278 0.27598 0.12972 0.0
C745 C 0.8336 0.22722 0.11523 0.0
C746 C 0.84612 0.27648 0.11982 0.0
N747 N 0.84864 0.25229 0.11284 0.0
C748 C 0.74551 0.19163 0.1377 0.0
C749 C 0.76104 0.1628 0.15401 0.0
C750 C 0.72947 0.16822 0.13317 0.0
N751 N 0.76057 0.18859 0.14798 0.0
C752 C 0.74562 0.13862 0.14971 0.0
C753 C 0.72922 0.14125 0.13921 0.0
H754 H 0.74525 0.2126 0.13322 0.0
H755 H 0.77293 0.1612 0.16228 0.0
C756 C 0.87745 0.27236 0.16032 0.0
N757 N 0.86266 0.25335 0.15325 0.0
C758 C 0.90778 0.27482 0.15947 0.0
C759 C 0.90723 0.23816 0.14401 0.0
C760 C 0.87688 0.23627 0.14522 0.0
C761 C 0.92311 0.25754 0.15125 0.0
H762 H 0.86572 0.2853 0.16678 0.0
H763 H 0.8648 0.22102 0.13979 0.0
O764 O 0.75074 0.24972 0.16298 0.0
O765 O 0.80738 0.28419 0.16569 0.0
O766 O 0.80943 0.21708 0.166 0.0
O767 O 0.79434 0.24942 0.14208 0.0
H768 H 0.71142 0.26051 0.14633 0.0
H769 H 0.73222 0.20555 0.17619 0.0
H770 H 0.66538 0.23234 0.14354 0.0
H771 H 0.68583 0.17831 0.17287 0.0
H772 H 0.82436 0.37899 0.15534 0.0
H773 H 0.77868 0.30953 0.18332 0.0
H774 H 0.83039 0.3255 0.15211 0.0
H775 H 0.7738 0.36328 0.18608 0.0
H776 H 0.73018 0.25647 0.21014 0.0
H777 H 0.8237 0.24348 0.21356 0.0
H778 H 0.73983 0.33728 0.12038 0.0
H779 H 0.70745 0.36012 0.15521 0.0
H780 H 0.82114 0.18801 0.14622 0.0
H781 H 0.84165 0.19509 0.18331 0.0
H782 H 0.85646 0.14689 0.14462 0.0
H783 H 0.87666 0.1538 0.18108 0.0
H784 H 0.80308 0.20592 0.12694 0.0
H785 H 0.82573 0.2952 0.13525 0.0
H786 H 0.83602 0.20837 0.1095 0.0
H787 H 0.85832 0.2961 0.11767 0.0
H788 H 0.71664 0.1716 0.12522 0.0
H789 H 0.74631 0.11823 0.15462 0.0
H790 H 0.91913 0.28959 0.16541 0.0
H791 H 0.91811 0.2246 0.13748 0.0
Li792 Li 0.73834 0.74596 0.67489 0.0
Li793 Li 0.7432 0.71382 0.65683 0.0
Li794 Li 0.74636 0.76657 0.65532 0.0
Li795 Li 0.70036 0.74421 0.6585 0.0
C796 C 0.79958 0.74863 0.66146 0.0
N797 N 0.85413 0.76852 0.6546 0.0
C798 C 0.81176 0.73932 0.65075 0.0
C799 C 0.81519 0.76792 0.66872 0.0
C800 C 0.83935 0.74967 0.64742 0.0
C801 C 0.84274 0.77774 0.66508 0.0
C802 C 0.71116 0.68369 0.67275 0.0
C803 C 0.69526 0.63419 0.66884 0.0
N804 N 0.70846 0.62516 0.67901 0.0
C805 C 0.72432 0.67398 0.68322 0.0
C806 C 0.69627 0.66371 0.66556 0.0
C807 C 0.7228 0.64428 0.68621 0.0
C808 C 0.7237 0.75744 0.69867 0.0
N809 N 0.7455 0.74857 0.6913 0.0
C810 C 0.77802 0.74167 0.70762 0.0
C811 C 0.77225 0.74066 0.6955 0.0
C812 C 0.75594 0.75066 0.71548 0.0
C813 C 0.72847 0.75865 0.71087 0.0
H814 H 0.70261 0.76345 0.69504 0.0
H815 H 0.78895 0.73315 0.68943 0.0
C816 C 0.76274 0.67314 0.63974 0.0
N817 N 0.76064 0.67838 0.65155 0.0
C818 C 0.77997 0.65007 0.63556 0.0
C819 C 0.79158 0.63749 0.65583 0.0
C820 C 0.77448 0.66107 0.65959 0.0
C821 C 0.79523 0.63223 0.64365 0.0
H822 H 0.75242 0.6879 0.63351 0.0
H823 H 0.77338 0.66637 0.6689 0.0
C824 C 0.71732 0.80839 0.66715 0.0
N825 N 0.71926 0.86894 0.66694 0.0
C826 C 0.70826 0.82388 0.65711 0.0
C827 C 0.72719 0.82368 0.67711 0.0
C828 C 0.70949 0.85449 0.65716 0.0
C829 C 0.72803 0.8543 0.67682 0.0
C830 C 0.70647 0.73653 0.63554 0.0
C831 C 0.69994 0.76048 0.62827 0.0
C832 C 0.69238 0.70974 0.63364 0.0
C833 C 0.67913 0.75729 0.61929 0.0
C834 C 0.67168 0.70744 0.62457 0.0
N835 N 0.66552 0.73107 0.61765 0.0
C836 C 0.77282 0.79308 0.6356 0.0
C837 C 0.78082 0.81881 0.65355 0.0
C838 C 0.79097 0.81247 0.6295 0.0
N839 N 0.76806 0.79658 0.6474 0.0
C840 C 0.79909 0.83876 0.6478 0.0
C841 C 0.8046 0.83552 0.63564 0.0
H842 H 0.76332 0.77462 0.631 0.0
H843 H 0.77776 0.82042 0.66301 0.0
C844 C 0.64196 0.7271 0.66212 0.0
N845 N 0.65915 0.74622 0.65606 0.0
C846 C 0.61153 0.72869 0.66121 0.0
C847 C 0.61702 0.76935 0.64766 0.0
C848 C 0.64731 0.76724 0.64899 0.0
C849 C 0.59861 0.7501 0.65391 0.0
H850 H 0.65185 0.71103 0.66791 0.0
H851 H 0.6613 0.78261 0.64445 0.0
O852 O 0.77222 0.73943 0.66469 0.0
O853 O 0.71255 0.71267 0.66965 0.0
O854 O 0.71632 0.77842 0.66729 0.0
O855 O 0.72663 0.73925 0.64445 0.0
H856 H 0.79985 0.72463 0.64497 0.0
H857 H 0.80591 0.77564 0.67697 0.0
H858 H 0.84896 0.74282 0.63911 0.0
H859 H 0.85498 0.79284 0.67057 0.0
H860 H 0.68393 0.61847 0.66333 0.0
H861 H 0.73579 0.68913 0.68894 0.0
H862 H 0.68555 0.67091 0.65753 0.0
H863 H 0.73305 0.63644 0.69425 0.0
H864 H 0.79933 0.73488 0.71083 0.0
H865 H 0.71095 0.7659 0.71664 0.0
H866 H 0.78259 0.64736 0.6261 0.0
H867 H 0.80264 0.62421 0.6624 0.0
H868 H 0.70097 0.81239 0.64928 0.0
H869 H 0.7343 0.81202 0.68494 0.0
H870 H 0.70279 0.86676 0.64942 0.0
H871 H 0.73571 0.86642 0.68445 0.0
H872 H 0.71043 0.78146 0.62966 0.0
H873 H 0.6974 0.69093 0.63909 0.0
H874 H 0.6737 0.77569 0.61365 0.0
H875 H 0.66054 0.68686 0.62303 0.0
H876 H 0.79462 0.80921 0.62011 0.0
H877 H 0.8097 0.85579 0.65292 0.0
H878 H 0.59833 0.71379 0.66642 0.0
H879 H 0.60817 0.786 0.64183 0.0
Li880 Li 0.6926 0.24642 0.33933 0.0
Li881 Li 0.73846 0.2206 0.34253 0.0
Li882 Li 0.73703 0.27386 0.34028 0.0
Li883 Li 0.7282 0.24143 0.32346 0.0
C884 C 0.70066 0.24863 0.36216 0.0
N885 N 0.65993 0.24502 0.38019 0.0
C886 C 0.69661 0.22223 0.36823 0.0
C887 C 0.68415 0.27325 0.36531 0.0
C888 C 0.67588 0.22084 0.37732 0.0
C889 C 0.66361 0.27096 0.37443 0.0
C890 C 0.69758 0.19313 0.32247 0.0
C891 C 0.70802 0.15826 0.30697 0.0
N892 N 0.6802 0.16137 0.30285 0.0
C893 C 0.66907 0.19592 0.31811 0.0
C894 C 0.71721 0.17407 0.31689 0.0
C895 C 0.6607 0.17967 0.30818 0.0
C896 C 0.63504 0.26874 0.33948 0.0
N897 N 0.65212 0.2457 0.34269 0.0
C898 C 0.61039 0.21868 0.34922 0.0
C899 C 0.64055 0.22102 0.34755 0.0
C900 C 0.59206 0.24191 0.34577 0.0
C901 C 0.60477 0.26735 0.34098 0.0
H902 H 0.64481 0.28783 0.33543 0.0
H903 H 0.65473 0.20289 0.34984 0.0
C904 C 0.77522 0.19741 0.35992 0.0
N905 N 0.75683 0.1898 0.35099 0.0
C906 C 0.79036 0.17589 0.36619 0.0
C907 C 0.76619 0.13895 0.35433 0.0
C908 C 0.75175 0.16127 0.34819 0.0
C909 C 0.78608 0.14615 0.3634 0.0
H910 H 0.77846 0.22031 0.36204 0.0
H911 H 0.73655 0.15586 0.34119 0.0
C912 C 0.70674 0.30568 0.3253 0.0
N913 N 0.71084 0.36466 0.31993 0.0
C914 C 0.71976 0.31468 0.3147 0.0
C915 C 0.69567 0.32666 0.33314 0.0
C916 C 0.72164 0.34461 0.31215 0.0
C917 C 0.69801 0.35638 0.33028 0.0
C918 C 0.79134 0.23508 0.33533 0.0
C919 C 0.8097 0.25034 0.34309 0.0
C920 C 0.80047 0.2082 0.33066 0.0
C921 C 0.83683 0.23831 0.34612 0.0
C922 C 0.82773 0.19687 0.33392 0.0
N923 N 0.8452 0.21204 0.34152 0.0
C924 C 0.75472 0.31727 0.35659 0.0
C925 C 0.77256 0.3234 0.33703 0.0
C926 C 0.77168 0.34078 0.36054 0.0
N927 N 0.75581 0.30889 0.34506 0.0
C928 C 0.78961 0.3472 0.34055 0.0
C929 C 0.78992 0.35571 0.35252 0.0
H930 H 0.74169 0.3049 0.36283 0.0
H931 H 0.77348 0.31579 0.32797 0.0
C932 C 0.7086 0.24152 0.29991 0.0
N933 N 0.73259 0.23757 0.30685 0.0
C934 C 0.71101 0.23987 0.28761 0.0
C935 C 0.76284 0.23041 0.28986 0.0
C936 C 0.75939 0.23211 0.30212 0.0
C937 C 0.73846 0.23445 0.28245 0.0
H938 H 0.68768 0.2464 0.30394 0.0
H939 H 0.77814 0.22947 0.30785 0.0
O940 O 0.72043 0.25029 0.3531 0.0
O941 O 0.70639 0.20928 0.33203 0.0
O942 O 0.70498 0.27649 0.32803 0.0
O943 O 0.76446 0.24622 0.33243 0.0
H944 H 0.70911 0.20293 0.36588 0.0
H945 H 0.68697 0.29382 0.36067 0.0
H946 H 0.67241 0.20052 0.38206 0.0
H947 H 0.65055 0.28978 0.37691 0.0
H948 H 0.72304 0.14359 0.30252 0.0
H949 H 0.65364 0.21071 0.32225 0.0
H950 H 0.73941 0.1718 0.3201 0.0
H951 H 0.63875 0.18171 0.30467 0.0
H952 H 0.60149 0.19878 0.35302 0.0
H953 H 0.59141 0.28553 0.338 0.0
H954 H 0.80574 0.1826 0.37297 0.0
H955 H 0.76176 0.11634 0.35202 0.0
H956 H 0.72859 0.29879 0.30856 0.0
H957 H 0.6857 0.32009 0.34142 0.0
H958 H 0.73176 0.3519 0.30401 0.0
H959 H 0.6897 0.37286 0.3363 0.0
H960 H 0.80299 0.27108 0.34685 0.0
H961 H 0.78647 0.19599 0.32471 0.0
H962 H 0.8512 0.24981 0.35215 0.0
H963 H 0.83496 0.17599 0.33044 0.0
H964 H 0.77161 0.34616 0.36988 0.0
H965 H 0.80308 0.35824 0.33404 0.0
H966 H 0.69177 0.24356 0.2822 0.0
H967 H 0.78434 0.22601 0.28623 0.0
Li968 Li 0.77588 0.76221 0.845 0.0
Li969 Li 0.82038 0.73399 0.84171 0.0
Li970 Li 0.78202 0.73606 0.82673 0.0
Li971 Li 0.77538 0.70852 0.84513 0.0
C972 C 0.81415 0.78234 0.82273 0.0
N973 N 0.82936 0.80724 0.80128 0.0
C974 C 0.84163 0.77675 0.81777 0.0
C975 C 0.79446 0.80071 0.81682 0.0
C976 C 0.84891 0.78955 0.80691 0.0
C977 C 0.80253 0.81302 0.80597 0.0
C978 C 0.81593 0.73825 0.86476 0.0
C979 C 0.85384 0.71794 0.87716 0.0
N980 N 0.85941 0.74517 0.88153 0.0
C981 C 0.82191 0.76601 0.8694 0.0
C982 C 0.83188 0.71397 0.8687 0.0
C983 C 0.84402 0.76906 0.87787 0.0
C984 C 0.74198 0.79101 0.86194 0.0
N985 N 0.75961 0.79571 0.85243 0.0
C986 C 0.74982 0.84714 0.85303 0.0
C987 C 0.76431 0.8231 0.84808 0.0
C988 C 0.73023 0.84264 0.86243 0.0
C989 C 0.7267 0.81427 0.86702 0.0
H990 H 0.73907 0.769 0.86531 0.0
H991 H 0.77875 0.82618 0.8406 0.0
C992 C 0.87722 0.70921 0.84231 0.0
N993 N 0.86134 0.73394 0.84424 0.0
C994 C 0.90751 0.70942 0.84392 0.0
C995 C 0.90444 0.76055 0.84949 0.0
C996 C 0.87423 0.75935 0.84775 0.0
C997 C 0.92151 0.7354 0.84749 0.0
H998 H 0.86644 0.68946 0.83934 0.0
H999 H 0.861 0.77874 0.8491 0.0
C1000 C 0.72132 0.7474 0.8401 0.0
N1001 N 0.6693 0.77338 0.84693 0.0
C1002 C 0.70381 0.73424 0.84875 0.0
C1003 C 0.71223 0.77367 0.83485 0.0
C1004 C 0.6776 0.74772 0.85209 0.0
C1005 C 0.68592 0.7865 0.83846 0.0
C1006 C 0.80257 0.67191 0.83072 0.0
C1007 C 0.7884 0.6605 0.82076 0.0
C1008 C 0.81408 0.65283 0.83923 0.0
C1009 C 0.78584 0.63012 0.81951 0.0
C1010 C 0.81102 0.62259 0.83766 0.0
N1011 N 0.79708 0.61196 0.82792 0.0
C1012 C 0.79616 0.72958 0.80253 0.0
C1013 C 0.74697 0.74332 0.8063 0.0
C1014 C 0.79114 0.73013 0.79034 0.0
N1015 N 0.77424 0.73634 0.8102 0.0
C1016 C 0.74097 0.74415 0.79419 0.0
C1017 C 0.76323 0.73756 0.78603 0.0
H1018 H 0.81754 0.72372 0.80592 0.0
H1019 H 0.72987 0.74827 0.81258 0.0
C1020 C 0.75867 0.67207 0.86409 0.0
N1021 N 0.75689 0.67562 0.85216 0.0
C1022 C 0.74286 0.6498 0.86966 0.0
C1023 C 0.72447 0.63475 0.85051 0.0
C1024 C 0.7402 0.65763 0.84533 0.0
C1025 C 0.72536 0.63099 0.86283 0.0
H1026 H 0.77161 0.6871 0.86932 0.0
H1027 H 0.73844 0.66159 0.83592 0.0
O1028 O 0.80635 0.76948 0.83321 0.0
O1029 O 0.79484 0.7349 0.85627 0.0
O1030 O 0.74738 0.73487 0.83688 0.0
O1031 O 0.80511 0.70159 0.83215 0.0
H1032 H 0.85706 0.76242 0.82217 0.0
H1033 H 0.773 0.80504 0.82048 0.0
H1034 H 0.87004 0.78532 0.80294 0.0
H1035 H 0.78743 0.8271 0.80126 0.0
H1036 H 0.86651 0.69938 0.88024 0.0
H1037 H 0.80985 0.78505 0.86641 0.0
H1038 H 0.82755 0.69234 0.86516 0.0
H1039 H 0.849 0.79043 0.88151 0.0
H1040 H 0.75299 0.86877 0.84928 0.0
H1041 H 0.71196 0.8101 0.87435 0.0
H1042 H 0.91989 0.68968 0.84208 0.0
H1043 H 0.9143 0.78095 0.85235 0.0
H1044 H 0.71047 0.71398 0.85293 0.0
H1045 H 0.72565 0.78436 0.82824 0.0
H1046 H 0.66391 0.73785 0.85881 0.0
H1047 H 0.67879 0.80698 0.83457 0.0
H1048 H 0.77924 0.67491 0.81411 0.0
H1049 H 0.8249 0.66128 0.84704 0.0
H1050 H 0.77484 0.62099 0.81187 0.0
H1051 H 0.81965 0.60758 0.84422 0.0
H1052 H 0.80881 0.72443 0.78437 0.0
H1053 H 0.71922 0.75023 0.79126 0.0
H1054 H 0.7439 0.64758 0.8792 0.0
H1055 H 0.71074 0.62098 0.845 0.0
Li1056 Li 0.5015 0.52838 0.07534 0.0
Li1057 Li 0.50248 0.56278 0.09188 0.0
Li1058 Li 0.52328 0.51456 0.09429 0.0
Li1059 Li 0.47044 0.52286 0.09255 0.0
C1060 C 0.55013 0.56642 0.07659 0.0
N1061 N 0.57695 0.60928 0.0631 0.0
C1062 C 0.53326 0.58578 0.06981 0.0
C1063 C 0.58063 0.56894 0.07652 0.0
C1064 C 0.54724 0.60727 0.06305 0.0
C1065 C 0.59378 0.59072 0.06963 0.0
C1066 C 0.44055 0.56071 0.07965 0.0
C1067 C 0.39429 0.57464 0.08834 0.0
N1068 N 0.38111 0.57127 0.07762 0.0
C1069 C 0.42661 0.55792 0.06869 0.0
C1070 C 0.42433 0.56966 0.08951 0.0
C1071 C 0.39653 0.56316 0.06786 0.0
C1072 C 0.47968 0.51061 0.05329 0.0
N1073 N 0.50403 0.52128 0.0587 0.0
C1074 C 0.53016 0.5209 0.04037 0.0
C1075 C 0.52928 0.52562 0.05257 0.0
C1076 C 0.50487 0.51135 0.03441 0.0
C1077 C 0.47948 0.50578 0.04108 0.0
H1078 H 0.46032 0.506 0.05848 0.0
H1079 H 0.54889 0.53256 0.05711 0.0
C1080 C 0.53495 0.61141 0.09993 0.0
N1081 N 0.50834 0.60277 0.0958 0.0
C1082 C 0.54041 0.64098 0.10219 0.0
C1083 C 0.49085 0.65203 0.09607 0.0
C1084 C 0.4864 0.62229 0.0939 0.0
C1085 C 0.51824 0.66173 0.10015 0.0
H1086 H 0.55207 0.59534 0.10126 0.0
H1087 H 0.46567 0.61492 0.09042 0.0
C1088 C 0.50732 0.46915 0.07905 0.0
N1089 N 0.53333 0.42202 0.06783 0.0
C1090 C 0.49183 0.443 0.07754 0.0
C1091 C 0.53603 0.47137 0.07483 0.0
C1092 C 0.50537 0.4194 0.07185 0.0
C1093 C 0.54879 0.44729 0.06919 0.0
C1094 C 0.50386 0.55359 0.11465 0.0
C1095 C 0.53184 0.55271 0.11966 0.0
C1096 C 0.48323 0.57354 0.11901 0.0
C1097 C 0.53884 0.57201 0.12885 0.0
C1098 C 0.49109 0.59252 0.12819 0.0
N1099 N 0.5185 0.59138 0.13287 0.0
C1100 C 0.58037 0.4993 0.10222 0.0
C1101 C 0.54281 0.46476 0.10615 0.0
C1102 C 0.60096 0.48157 0.10791 0.0
N1103 N 0.55194 0.49068 0.10154 0.0
C1104 C 0.56267 0.44621 0.11179 0.0
C1105 C 0.59218 0.45461 0.11282 0.0
H1106 H 0.58688 0.52018 0.09853 0.0
H1107 H 0.52002 0.45852 0.10543 0.0
C1108 C 0.41892 0.48945 0.09048 0.0
N1109 N 0.43434 0.50736 0.09779 0.0
C1110 C 0.39429 0.47463 0.0947 0.0
C1111 C 0.40126 0.49818 0.1137 0.0
C1112 C 0.42583 0.51231 0.10914 0.0
C1113 C 0.38564 0.47836 0.10656 0.0
H1114 H 0.42648 0.48579 0.08151 0.0
H1115 H 0.43869 0.52648 0.11476 0.0
O1116 O 0.53702 0.54551 0.08349 0.0
O1117 O 0.47003 0.55555 0.08065 0.0
O1118 O 0.4942 0.49246 0.08453 0.0
O1119 O 0.4968 0.5352 0.10548 0.0
H1120 H 0.50965 0.58431 0.06975 0.0
H1121 H 0.59402 0.55422 0.08174 0.0
H1122 H 0.53446 0.62238 0.05777 0.0
H1123 H 0.61737 0.59289 0.06949 0.0
H1124 H 0.38147 0.58121 0.09594 0.0
H1125 H 0.4389 0.55226 0.06085 0.0
H1126 H 0.43479 0.57243 0.09801 0.0
H1127 H 0.38549 0.56095 0.05943 0.0
H1128 H 0.55051 0.52454 0.03567 0.0
H1129 H 0.45948 0.49833 0.03691 0.0
H1130 H 0.56179 0.64758 0.10537 0.0
H1131 H 0.47337 0.66736 0.09415 0.0
H1132 H 0.46956 0.44098 0.08073 0.0
H1133 H 0.54834 0.49146 0.07588 0.0
H1134 H 0.49364 0.39902 0.07062 0.0
H1135 H 0.57098 0.44871 0.06588 0.0
H1136 H 0.5481 0.53749 0.11646 0.0
H1137 H 0.46148 0.57464 0.1153 0.0
H1138 H 0.56047 0.57163 0.13275 0.0
H1139 H 0.4754 0.60819 0.13158 0.0
H1140 H 0.62336 0.48915 0.10863 0.0
H1141 H 0.55497 0.42542 0.11522 0.0
H1142 H 0.38312 0.45931 0.08894 0.0
H1143 H 0.3951 0.50202 0.12283 0.0
Li1144 Li 0.98489 0.47683 0.59239 0.0
Li1145 Li 0.03909 0.4769 0.59225 0.0
Li1146 Li 0.01246 0.46249 0.57421 0.0
Li1147 Li 0.01303 0.43244 0.59234 0.0
C1148 C 0.00969 0.53002 0.58139 0.0
N1149 N 0.00575 0.59033 0.5793 0.0
C1150 C 0.02008 0.54817 0.59045 0.0
C1151 C -0.00251 0.54262 0.57123 0.0
C1152 C 0.01783 0.57858 0.58924 0.0
C1153 C 0.99564 0.57313 0.57035 0.0
C1154 C 0.00844 0.44561 0.6144 0.0
C1155 C 0.02796 0.41369 0.6295 0.0
N1156 N 0.00028 0.40796 0.63329 0.0
C1157 C 0.98019 0.4395 0.61847 0.0
C1158 C 0.03256 0.43271 0.61998 0.0
C1159 C 0.97652 0.42038 0.62802 0.0
C1160 C 0.92386 0.48471 0.5979 0.0
N1161 N 0.95123 0.49642 0.59859 0.0
C1162 C 0.93303 0.53735 0.60955 0.0
C1163 C 0.95617 0.52194 0.60446 0.0
C1164 C 0.90445 0.52608 0.60885 0.0
C1165 C 0.9 0.49936 0.60292 0.0
H1166 H 0.92052 0.46373 0.59368 0.0
H1167 H 0.97819 0.53012 0.60537 0.0
C1168 C 0.08822 0.51322 0.58903 0.0
N1169 N 0.07203 0.49886 0.5973 0.0
C1170 C 0.111 0.53167 0.59252 0.0
C1171 C 0.10004 0.52005 0.61295 0.0
C1172 C 0.07758 0.5017 0.60906 0.0
C1173 C 0.11686 0.53564 0.60463 0.0
H1174 H 0.08295 0.51083 0.57974 0.0
H1175 H 0.0639 0.49051 0.61543 0.0
C1176 C 0.95419 0.4446 0.57515 0.0
N1177 N 0.90531 0.4498 0.56087 0.0
C1178 C 0.93688 0.42005 0.57273 0.0
C1179 C 0.94665 0.47178 0.57031 0.0
C1180 C 0.91225 0.42313 0.56549 0.0
C1181 C 0.92186 0.47397 0.56311 0.0
C1182 C 0.0759 0.44331 0.58056 0.0
C1183 C 0.08834 0.44988 0.56956 0.0
C1184 C 0.09409 0.43815 0.5903 0.0
C1185 C 0.11879 0.45161 0.56854 0.0
C1186 C 0.12443 0.44014 0.58893 0.0
N1187 N 0.13604 0.44679 0.57817 0.0
C1188 C 0.02804 0.4867 0.55238 0.0
C1189 C -0.00137 0.44407 0.55077 0.0
C1190 C 0.02871 0.48976 0.5401 0.0
N1191 N 0.01296 0.4643 0.55744 0.0
C1192 C -0.00157 0.44646 0.53844 0.0
C1193 C 0.01349 0.46966 0.53293 0.0
H1194 H 0.03964 0.50218 0.55793 0.0
H1195 H 0.98711 0.42624 0.55502 0.0
C1196 C 0.9856 0.38035 0.59932 0.0
N1197 N 0.01218 0.39309 0.59768 0.0
C1198 C 0.98371 0.35078 0.60239 0.0
C1199 C 0.03664 0.34835 0.60244 0.0
C1200 C 0.03748 0.37792 0.59929 0.0
C1201 C 0.00948 0.33431 0.60379 0.0
H1202 H 0.96586 0.39307 0.598 0.0
H1203 H 0.05828 0.38855 0.59785 0.0
O1204 O 0.01226 0.50016 0.58228 0.0
O1205 O 0.01241 0.46365 0.60485 0.0
O1206 O 0.97857 0.44176 0.5821 0.0
O1207 O 0.04611 0.4418 0.58174 0.0
H1208 H 0.02949 0.53893 0.5984 0.0
H1209 H 0.9896 0.52904 0.56405 0.0
H1210 H 0.02567 0.59283 0.59621 0.0
H1211 H 0.98621 0.58314 0.56255 0.0
H1212 H 0.04641 0.40341 0.63385 0.0
H1213 H 0.96128 0.44914 0.61421 0.0
H1214 H 0.05456 0.43705 0.6169 0.0
H1215 H 0.95477 0.41533 0.63122 0.0
H1216 H 0.93754 0.55794 0.61396 0.0
H1217 H 0.87845 0.48955 0.60239 0.0
H1218 H 0.12356 0.54305 0.5858 0.0
H1219 H 0.10338 0.52288 0.62237 0.0
H1220 H 0.94249 0.39882 0.57638 0.0
H1221 H 0.95965 0.49098 0.57215 0.0
H1222 H 0.89866 0.40431 0.56353 0.0
H1223 H 0.91576 0.49489 0.55932 0.0
H1224 H 0.07467 0.45354 0.56189 0.0
H1225 H 0.08488 0.43327 0.5989 0.0
H1226 H 0.12869 0.45678 0.56009 0.0
H1227 H 0.13872 0.43651 0.59643 0.0
H1228 H 0.04116 0.5076 0.53627 0.0
H1229 H 0.98616 0.4306 0.53331 0.0
H1230 H 0.96237 0.34075 0.60343 0.0
H1231 H 0.05698 0.3363 0.60327 0.0
Li1232 Li 0.47003 0.47466 0.90515 0.0
Li1233 Li 0.5228 0.48116 0.90735 0.0
Li1234 Li 0.50035 0.43264 0.9076 0.0
Li1235 Li 0.49395 0.46623 0.92427 0.0
C1236 C 0.51024 0.44404 0.88531 0.0
N1237 N 0.52923 0.40703 0.86752 0.0
C1238 C 0.53925 0.44528 0.8814 0.0
C1239 C 0.49085 0.42406 0.88014 0.0
C1240 C 0.54842 0.42639 0.87239 0.0
C1241 C 0.50089 0.40549 0.87117 0.0
C1242 C 0.50083 0.53125 0.91528 0.0
C1243 C 0.53432 0.56834 0.92226 0.0
N1244 N 0.52266 0.58774 0.91442 0.0
C1245 C 0.48915 0.55158 0.9073 0.0
C1246 C 0.52353 0.53971 0.92285 0.0
C1247 C 0.50049 0.58003 0.907 0.0
C1248 C 0.42056 0.5113 0.90374 0.0
N1249 N 0.43661 0.49118 0.8977 0.0
C1250 C 0.40885 0.49975 0.88012 0.0
C1251 C 0.43087 0.48476 0.88618 0.0
C1252 C 0.39296 0.52194 0.88592 0.0
C1253 C 0.39857 0.5271 0.89799 0.0
H1254 H 0.42585 0.51609 0.91288 0.0
H1255 H 0.44405 0.46876 0.88158 0.0
C1256 C 0.58243 0.49927 0.90665 0.0
N1257 N 0.55515 0.50379 0.90217 0.0
C1258 C 0.60576 0.5169 0.90299 0.0
C1259 C 0.57242 0.54317 0.89013 0.0
C1260 C 0.54992 0.52474 0.89387 0.0
C1261 C 0.6006 0.53931 0.89476 0.0
H1262 H 0.58605 0.48208 0.91308 0.0
H1263 H 0.52813 0.52731 0.89026 0.0
C1264 C 0.43425 0.44184 0.91675 0.0
N1265 N 0.37385 0.44525 0.917 0.0
C1266 C 0.41988 0.45578 0.92612 0.0
C1267 C 0.41792 0.42955 0.90753 0.0
C1268 C 0.38932 0.45727 0.92608 0.0
C1269 C 0.3874 0.43155 0.90781 0.0
C1270 C 0.54498 0.43905 0.92813 0.0
C1271 C 0.54354 0.40947 0.93135 0.0
C1272 C 0.56027 0.45879 0.9353 0.0
C1273 C 0.55728 0.4002 0.94176 0.0
C1274 C 0.57365 0.44866 0.94565 0.0
N1275 N 0.57189 0.41982 0.94864 0.0
C1276 C 0.53421 0.38412 0.90062 0.0
C1277 C 0.48421 0.37346 0.90433 0.0
C1278 C 0.54001 0.35463 0.89832 0.0
N1279 N 0.50672 0.39282 0.90362 0.0
C1280 C 0.489 0.34378 0.90208 0.0
C1281 C 0.51728 0.33399 0.89916 0.0
H1282 H 0.55171 0.40007 0.90023 0.0
H1283 H 0.4627 0.38096 0.90691 0.0
C1284 C 0.48774 0.49595 0.94605 0.0
N1285 N 0.49014 0.46903 0.941 0.0
C1286 C 0.48656 0.49876 0.95834 0.0
C1287 C 0.48929 0.44598 0.96001 0.0
C1288 C 0.49012 0.4442 0.94766 0.0
C1289 C 0.48788 0.4736 0.96551 0.0
H1290 H 0.48679 0.51529 0.94054 0.0
H1291 H 0.49123 0.42302 0.94339 0.0
O1292 O 0.50095 0.46204 0.89425 0.0
O1293 O 0.49033 0.50314 0.91558 0.0
O1294 O 0.46416 0.44078 0.91648 0.0
O1295 O 0.53147 0.44863 0.91802 0.0
H1296 H 0.5546 0.4605 0.88531 0.0
H1297 H 0.46843 0.42249 0.88317 0.0
H1298 H 0.57084 0.42705 0.8693 0.0
H1299 H 0.48619 0.38976 0.86716 0.0
H1300 H 0.55199 0.57511 0.92803 0.0
H1301 H 0.47182 0.54539 0.90127 0.0
H1302 H 0.53291 0.52426 0.92904 0.0
H1303 H 0.49175 0.59595 0.90083 0.0
H1304 H 0.40496 0.49464 0.87089 0.0
H1305 H 0.38724 0.54422 0.9028 0.0
H1306 H 0.62743 0.51338 0.90663 0.0
H1307 H 0.56794 0.56017 0.88368 0.0
H1308 H 0.43218 0.46556 0.93329 0.0
H1309 H 0.42871 0.41902 0.90013 0.0
H1310 H 0.37791 0.46808 0.93326 0.0
H1311 H 0.37448 0.42231 0.9007 0.0
H1312 H 0.53164 0.39389 0.92598 0.0
H1313 H 0.56165 0.48173 0.93295 0.0
H1314 H 0.55621 0.37741 0.94439 0.0
H1315 H 0.58543 0.46374 0.95131 0.0
H1316 H 0.56208 0.348 0.89603 0.0
H1317 H 0.47098 0.32853 0.90304 0.0
H1318 H 0.48461 0.52045 0.96217 0.0
H1319 H 0.49041 0.42598 0.96516 0.0
Li1320 Li 0.00103 0.56053 0.40684 0.0
Li1321 Li 0.00043 0.52621 0.42336 0.0
Li1322 Li 0.02535 0.51456 0.40406 0.0
Li1323 Li 0.97203 0.51397 0.40535 0.0
C1324 C 0.05109 0.56966 0.41835 0.0
N1325 N 0.08182 0.62052 0.4231 0.0
C1326 C 0.0498 0.58236 0.4296 0.0
C1327 C 0.06835 0.5826 0.40956 0.0
C1328 C 0.06543 0.60812 0.43182 0.0
C1329 C 0.08361 0.60839 0.41212 0.0
C1330 C 0.94195 0.55194 0.42303 0.0
C1331 C 0.89879 0.53306 0.43273 0.0
N1332 N 0.89207 0.56059 0.43648 0.0
C1333 C 0.93434 0.58012 0.42683 0.0
C1334 C 0.92381 0.52828 0.42588 0.0
C1335 C 0.90915 0.58401 0.43368 0.0
C1336 C 0.00419 0.61111 0.39208 0.0
N1337 N 0.00168 0.60114 0.40338 0.0
C1338 C 0.00192 0.64999 0.41092 0.0
C1339 C 0.00024 0.61985 0.41272 0.0
C1340 C 0.00505 0.66103 0.39937 0.0
C1341 C 0.00593 0.6412 0.38985 0.0
H1342 H 0.00505 0.59574 0.38481 0.0
H1343 H -0.00189 0.61127 0.4216 0.0
C1344 C 0.02046 0.50115 0.4446 0.0
N1345 N 0.00261 0.52226 0.44011 0.0
C1346 C 0.02279 0.49728 0.45683 0.0
C1347 C 0.9886 0.53718 0.45957 0.0
C1348 C 0.98708 0.54037 0.4473 0.0
C1349 C 0.00662 0.51537 0.46451 0.0
H1350 H 0.03288 0.48732 0.43865 0.0
H1351 H 0.97363 0.55745 0.44356 0.0
C1352 C 0.00755 0.52772 0.38221 0.0
N1353 N 0.0305 0.51425 0.36022 0.0
C1354 C 0.99325 0.50769 0.37484 0.0
C1355 C 0.03328 0.54123 0.37832 0.0
C1356 C 0.00525 0.5011 0.36377 0.0
C1357 C 0.04461 0.53402 0.3672 0.0
C1358 C 0.99162 0.46273 0.41867 0.0
C1359 C 0.00275 0.43654 0.41405 0.0
C1360 C 0.97217 0.46172 0.42822 0.0
C1361 C 0.99363 0.40982 0.41885 0.0
C1362 C 0.96362 0.43458 0.43279 0.0
N1363 N 0.97438 0.40939 0.42803 0.0
C1364 C 0.08484 0.5027 0.39759 0.0
C1365 C 0.04844 0.47135 0.38958 0.0
C1366 C 0.1067 0.4877 0.39137 0.0
N1367 N 0.0564 0.49432 0.39652 0.0
C1368 C 0.06944 0.45589 0.3832 0.0
C1369 C 0.09901 0.46407 0.384 0.0
H1370 H 0.0905 0.5211 0.40317 0.0
H1371 H 0.02562 0.46525 0.38892 0.0
C1372 C 0.91296 0.50939 0.39721 0.0
N1373 N 0.93869 0.495 0.39898 0.0
C1374 C 0.88945 0.49506 0.39178 0.0
C1375 C 0.91961 0.45166 0.39005 0.0
C1376 C 0.94237 0.46674 0.39551 0.0
C1377 C 0.89281 0.46589 0.388 0.0
H1378 H 0.91087 0.53211 0.39984 0.0
H1379 H 0.96332 0.45616 0.39666 0.0
O1380 O 0.03552 0.54473 0.41595 0.0
O1381 O 0.96659 0.54782 0.4163 0.0
O1382 O 0.99646 0.53396 0.39319 0.0
O1383 O 0.00053 0.48911 0.41408 0.0
H1384 H 0.03665 0.57261 0.43653 0.0
H1385 H 0.06978 0.57298 0.40083 0.0
H1386 H 0.06446 0.6183 0.44047 0.0
H1387 H 0.09685 0.61876 0.40537 0.0
H1388 H 0.88462 0.51491 0.435 0.0
H1389 H 0.94776 0.5988 0.42457 0.0
H1390 H 0.92863 0.50652 0.42268 0.0
H1391 H 0.90316 0.60567 0.43675 0.0
H1392 H 0.00059 0.6645 0.41849 0.0
H1393 H 0.00842 0.64883 0.38083 0.0
H1394 H 0.03737 0.48053 0.46023 0.0
H1395 H 0.97553 0.55148 0.46511 0.0
H1396 H 0.97317 0.49723 0.37763 0.0
H1397 H 0.04458 0.55684 0.38388 0.0
H1398 H 0.9945 0.4855 0.358 0.0
H1399 H 0.06466 0.54411 0.36413 0.0
H1400 H 0.01822 0.43677 0.40681 0.0
H1401 H 0.96413 0.48162 0.43223 0.0
H1402 H 0.00192 0.38941 0.41529 0.0
H1403 H 0.94855 0.43355 0.44017 0.0
H1404 H 0.12926 0.49474 0.39219 0.0
H1405 H 0.06261 0.43751 0.37779 0.0
H1406 H 0.86921 0.50686 0.39025 0.0
H1407 H 0.92305 0.4291 0.38738 0.0
H1408 H 0.02795 0.19884 0.61228 0.0
H1409 H 0.96346 0.19493 0.58442 0.0
H1410 H 0.95842 0.24827 0.58484 0.0
H1411 H 0.97532 0.29598 0.59193 0.0
H1412 H 0.04131 0.30062 0.61919 0.0
H1413 H 0.04281 0.24699 0.62027 0.0
C1414 C 0.0125 0.20974 0.60646 0.0
C1415 C 0.99622 0.19319 0.59829 0.0
C1416 C 0.01018 0.24045 0.60658 0.0
C1417 C 0.97643 0.20741 0.59069 0.0
C1418 C 0.97352 0.23782 0.59094 0.0
C1419 C 0.98957 0.28526 0.59829 0.0
C1420 C 0.00815 0.30215 0.60548 0.0
C1421 C 0.9907 0.25458 0.59868 0.0
C1422 C 0.02695 0.28799 0.61351 0.0
C1423 C 0.02779 0.25738 0.61413 0.0
H1424 H 0.95791 0.7789 0.84023 0.0
H1425 H 0.95772 0.69419 0.85729 0.0
H1426 H 0.01118 0.6949 0.85823 0.0
H1427 H 0.05793 0.71881 0.85355 0.0
H1428 H 0.05792 0.80393 0.83682 0.0
H1429 H 0.00446 0.80391 0.83649 0.0
C1430 C 0.96952 0.7608 0.84433 0.0
C1431 C 0.95385 0.73651 0.84866 0.0
C1432 C 0.00019 0.76137 0.84486 0.0
C1433 C 0.96929 0.71299 0.85375 0.0
C1434 C -0.00017 0.71343 0.85434 0.0
C1435 C 0.04622 0.73756 0.85 0.0
C1436 C 0.06188 0.76128 0.84517 0.0
C1437 C 0.0155 0.7374 0.84983 0.0
C1438 C 0.04638 0.78521 0.84044 0.0
C1439 C 0.01583 0.78528 0.84029 0.0
H1440 H 0.48282 0.70284 0.11007 0.0
H1441 H 0.56661 0.6919 0.09295 0.0
H1442 H 0.57365 0.74495 0.09275 0.0
H1443 H 0.55391 0.79444 0.0957 0.0
H1444 H 0.46917 0.80551 0.11199 0.0
H1445 H 0.46467 0.75243 0.11435 0.0
C1446 C 0.50267 0.71211 0.10635 0.0
C1447 C 0.52402 0.69352 0.10144 0.0
C1448 C 0.50633 0.74262 0.10606 0.0
C1449 C 0.54992 0.70573 0.09686 0.0
C1450 C 0.55386 0.73607 0.09665 0.0
C1451 C 0.53452 0.78519 0.09981 0.0
C1452 C 0.51177 0.80378 0.10354 0.0
C1453 C 0.53189 0.75471 0.10096 0.0
C1454 C 0.48703 0.79164 0.10908 0.0
C1455 C 0.48436 0.7613 0.11036 0.0
H1456 H 0.55268 0.28318 0.35279 0.0
H1457 H 0.55899 0.19411 0.34009 0.0
H1458 H 0.50572 0.19026 0.33975 0.0
H1459 H 0.45741 0.21298 0.34205 0.0
H1460 H 0.45096 0.30264 0.354 0.0
H1461 H 0.50424 0.30547 0.35565 0.0
C1462 C 0.54238 0.26295 0.34993 0.0
C1463 C 0.55977 0.23902 0.34644 0.0
C1464 C 0.51174 0.26102 0.34958 0.0
C1465 C 0.54612 0.21276 0.34296 0.0
C1466 C 0.51566 0.2106 0.34266 0.0
C1467 C 0.4677 0.23317 0.34497 0.0
C1468 C 0.45032 0.2576 0.34782 0.0
C1469 C 0.49828 0.23473 0.34579 0.0
C1470 C 0.46387 0.28344 0.35183 0.0
C1471 C 0.49432 0.28513 0.35271 0.0
H1472 H 0.99448 0.79564 0.3871 0.0
H1473 H 0.05025 0.80157 0.41791 0.0
H1474 H 0.05272 0.74832 0.41904 0.0
H1475 H 0.03661 0.70017 0.41213 0.0
H1476 H 0.97846 0.69378 0.38211 0.0
H1477 H 0.97946 0.74709 0.3798 0.0
C1478 C 0.00712 0.78528 0.39408 0.0
C1479 C 0.02207 0.80264 0.40242 0.0
C1480 C 0.00795 0.75456 0.39485 0.0
C1481 C 0.03883 0.78883 0.41127 0.0
C1482 C 0.04006 0.75833 0.41199 0.0
C1483 C 0.02405 0.71045 0.40511 0.0
C1484 C 0.00724 0.69309 0.39739 0.0
C1485 C 0.02431 0.74103 0.40396 0.0
C1486 C 0.99169 0.70665 0.38814 0.0
C1487 C 0.9921 0.73714 0.38686 0.0
H1488 H 0.46436 0.7833 0.65222 0.0
H1489 H 0.45605 0.68932 0.65572 0.0
H1490 H 0.5091 0.68415 0.65496 0.0
H1491 H 0.55789 0.70628 0.65394 0.0
H1492 H 0.56621 0.80058 0.65234 0.0
H1493 H 0.51314 0.8055 0.65168 0.0
C1494 C 0.47409 0.76168 0.65295 0.0
C1495 C 0.45607 0.73678 0.65403 0.0
C1496 C 0.50468 0.75886 0.65282 0.0
C1497 C 0.46921 0.7089 0.65469 0.0
C1498 C 0.49963 0.7059 0.65436 0.0
C1499 C 0.54817 0.72796 0.65357 0.0
C1500 C 0.5662 0.75297 0.65318 0.0
C1501 C 0.51757 0.73074 0.65353 0.0
C1502 C 0.55304 0.78084 0.65244 0.0
C1503 C 0.52262 0.78374 0.65217 0.0
H1504 H 0.48438 0.29366 0.88741 0.0
H1505 H 0.56348 0.30298 0.908 0.0
H1506 H 0.57082 0.24999 0.90758 0.0
H1507 H 0.55224 0.20085 0.90306 0.0
H1508 H 0.4726 0.19122 0.88285 0.0
H1509 H 0.46778 0.2445 0.88157 0.0
C1510 C 0.50326 0.28406 0.89177 0.0
C1511 C 0.52323 0.3022 0.89779 0.0
C1512 C 0.50709 0.25354 0.89167 0.0
C1513 C 0.5479 0.28954 0.90322 0.0
C1514 C 0.552 0.25922 0.90306 0.0
C1515 C 0.53417 0.21039 0.89815 0.0
C1516 C 0.5127 0.19211 0.89313 0.0
C1517 C 0.53143 0.24098 0.89753 0.0
C1518 C 0.48919 0.20484 0.88694 0.0
C1519 C 0.48646 0.23528 0.88618 0.0
H1520 H 0.05834 0.28434 0.15283 0.0
H1521 H 0.06282 0.19081 0.14706 0.0
H1522 H 0.00944 0.18829 0.14648 0.0
H1523 H 0.96159 0.21246 0.14821 0.0
H1524 H 0.95755 0.30643 0.15274 0.0
H1525 H 0.01087 0.30892 0.15305 0.0
C1526 C 0.04777 0.26344 0.15121 0.0
C1527 C 0.06469 0.23781 0.15002 0.0
C1528 C 0.01715 0.26219 0.1507 0.0
C1529 C 0.0504 0.21085 0.1482 0.0
C1530 C 0.01986 0.2094 0.14779 0.0
C1531 C 0.97233 0.23356 0.14906 0.0
C1532 C 0.95553 0.25918 0.15054 0.0
C1533 C 0.00302 0.23491 0.14911 0.0
C1534 C 0.9699 0.28628 0.15181 0.0
C1535 C 0.0004 0.28776 0.15193 0.0
H1536 H 0.97594 0.97184 0.48115 0.0
H1537 H 0.03601 0.04246 0.47348 0.0
H1538 H 0.03869 0.05452 0.49451 0.0
H1539 H 0.02498 0.04426 0.5151 0.0
H1540 H 0.96772 0.97135 0.52282 0.0
H1541 H 0.963 0.961 0.50173 0.0
C1542 C 0.98987 0.98969 0.48407 0.0
C1543 C 0.00577 0.00615 0.47571 0.0
C1544 C 0.99181 0.99615 0.49619 0.0
C1545 C 0.02319 0.02963 0.47967 0.0
C1546 C 0.02493 0.03643 0.49171 0.0
C1547 C 0.01168 0.02592 0.51219 0.0
C1548 C 0.99671 0.00867 0.52057 0.0
C1549 C 0.0095 0.01969 0.50005 0.0
C1550 C 0.97913 0.98533 0.51659 0.0
C1551 C 0.97658 0.97923 0.50452 0.0
H1552 H 0.21693 0.74179 0.76708 0.0
H1553 H 0.30589 0.76805 0.77431 0.0
H1554 H 0.31636 0.76961 0.75309 0.0
H1555 H 0.3001 0.76377 0.73248 0.0
H1556 H 0.21104 0.73778 0.72524 0.0
H1557 H 0.20068 0.73592 0.74647 0.0
C1558 C 0.23866 0.74761 0.76399 0.0
C1559 C 0.26063 0.75473 0.77223 0.0
C1560 C 0.24445 0.74862 0.75179 0.0
C1561 C 0.28857 0.7627 0.76812 0.0
C1562 C 0.29459 0.7635 0.756 0.0
C1563 C 0.27849 0.75749 0.73556 0.0
C1564 C 0.25638 0.75088 0.72732 0.0
C1565 C 0.27269 0.75654 0.74776 0.0
C1566 C 0.22835 0.74324 0.73142 0.0
C1567 C 0.22245 0.74202 0.74355 0.0
H1568 H 0.55828 0.98671 0.01742 0.0
H1569 H 0.46439 0.99633 0.0192 0.0
H1570 H 0.46274 0.00798 0.9981 0.0
H1571 H 0.48793 0.01552 0.97916 0.0
H1572 H 0.58166 0.00517 0.97716 0.0
H1573 H 0.58351 0.99379 0.99835 0.0
C1574 C 0.53751 0.99151 0.01318 0.0
C1575 C 0.5115 0.99068 0.01984 0.0
C1576 C 0.53672 -0.00192 0.00103 0.0
C1577 C 0.48467 0.99654 0.01422 0.0
C1578 C 0.48372 0.00335 0.00218 0.0
C1579 C 0.50878 0.01103 0.98341 0.0
C1580 C 0.53465 0.01138 0.97668 0.0
C1581 C 0.5096 0.00424 0.99552 0.0
C1582 C 0.56147 0.00494 0.98219 0.0
C1583 C 0.56253 -0.00149 0.99429 0.0
H1584 H 0.22902 0.21531 0.23065 0.0
H1585 H 0.29424 0.28183 0.22423 0.0
H1586 H 0.30308 0.28628 0.24551 0.0
H1587 H 0.29117 0.27236 0.26592 0.0
H1588 H 0.22725 0.20439 0.27232 0.0
H1589 H 0.21858 0.1999 0.25109 0.0
C1590 C 0.2451 0.23082 0.23394 0.0
C1591 C 0.26091 0.24826 0.22591 0.0
C1592 C 0.25014 0.23318 0.24617 0.0
C1593 C 0.28197 0.26799 0.23025 0.0
C1594 C 0.28693 0.27065 0.2424 0.0
C1595 C 0.27563 0.25625 0.26269 0.0
C1596 C 0.25977 0.23891 0.27076 0.0
C1597 C 0.27106 0.25342 0.25045 0.0
C1598 C 0.23938 0.21848 0.26636 0.0
C1599 C 0.23454 0.21572 0.2542 0.0
H1600 H 0.73435 0.22291 0.22675 0.0
H1601 H 0.81222 0.27597 0.22996 0.0
H1602 H 0.80775 0.27513 0.2515 0.0
H1603 H 0.78118 0.26023 0.26939 0.0
H1604 H 0.70294 0.20778 0.26623 0.0
H1605 H 0.70775 0.20802 0.24466 0.0
C1606 C 0.75019 0.23453 0.23216 0.0
C1607 C 0.77359 0.24946 0.22674 0.0
C1608 C 0.74736 0.23417 0.24453 0.0
C1609 C 0.79421 0.26399 0.2339 0.0
C1610 C 0.79158 0.26366 0.24621 0.0
C1611 C 0.76537 0.24858 0.26398 0.0
C1612 C 0.74179 0.23396 0.26939 0.0
C1613 C 0.76825 0.24883 0.25162 0.0
C1614 C 0.72115 0.21941 0.26226 0.0
C1615 C 0.72395 0.21944 0.24994 0.0
H1616 H 0.72015 0.7307 0.73292 0.0
H1617 H 0.80419 0.77141 0.72705 0.0
H1618 H 0.81386 0.77097 0.74835 0.0
H1619 H 0.79837 0.75911 0.76861 0.0
H1620 H 0.71465 0.71757 0.7744 0.0
H1621 H 0.70466 0.71886 0.75317 0.0
C1622 C 0.74045 0.73975 0.73632 0.0
C1623 C 0.76141 0.75109 0.72843 0.0
C1624 C 0.74588 0.73937 0.74855 0.0
C1625 C 0.78782 0.7623 0.73294 0.0
C1626 C 0.79332 0.76216 0.74511 0.0
C1627 C 0.77806 0.75009 0.76522 0.0
C1628 C 0.75731 0.73828 0.7731 0.0
C1629 C 0.77256 0.75063 0.75299 0.0
C1630 C 0.73086 0.72714 0.76856 0.0
C1631 C 0.72519 0.7277 0.75641 0.0
H1632 H 0.51633 0.51451 0.97871 0.0
H1633 H 0.4605 0.43851 0.98187 0.0
H1634 H 0.46165 0.44287 0.00342 0.0
H1635 H 0.47817 0.46854 0.02136 0.0
H1636 H 0.53155 0.54628 0.01798 0.0
H1637 H 0.53162 0.54088 0.99651 0.0
C1638 C 0.50406 0.4991 0.98408 0.0
C1639 C 0.48829 0.47628 0.97864 0.0
C1640 C 0.50446 0.50196 0.99645 0.0
C1641 C 0.47312 0.45611 0.9858 0.0
C1642 C 0.47361 0.45868 0.99813 0.0
C1643 C 0.48958 0.48449 0.01593 0.0
C1644 C 0.50491 0.50772 0.02132 0.0
C1645 C 0.48915 0.48157 0.00355 0.0
C1646 C 0.51998 0.52787 0.01412 0.0
C1647 C 0.51987 0.52496 0.00182 0.0
H1648 H 0.01016 0.52055 0.52037 0.0
H1649 H 0.01557 0.42663 0.51596 0.0
H1650 H 0.01359 0.43247 0.49449 0.0
H1651 H 0.0099 0.4642 0.47698 0.0
H1652 H 0.00762 0.55824 0.48147 0.0
H1653 H 0.00897 0.55229 0.50291 0.0
C1654 C 0.01137 0.50133 0.51474 0.0
C1655 C 0.01298 0.47319 0.51983 0.0
C1656 C 0.01069 0.50484 0.5024 0.0
C1657 C 0.01387 0.44855 0.51233 0.0
C1658 C 0.01294 0.45186 0.50004 0.0
C1659 C 0.01011 0.48343 0.48263 0.0
C1660 C 0.00849 0.51162 0.47758 0.0
C1661 C 0.0113 0.4799 0.49498 0.0
C1662 C 0.0083 0.53625 0.48508 0.0
C1663 C 0.00927 0.53289 0.49736 0.0
H1664 H 0.22657 0.91024 0.63505 0.0
H1665 H 0.19091 0.83416 0.6175 0.0
H1666 H 0.15531 0.86485 0.60723 0.0
H1667 H 0.13271 0.91249 0.60406 0.0
H1668 H 0.16908 0.98954 0.62074 0.0
H1669 H 0.20559 0.95915 0.63074 0.0
C1670 C 0.21104 0.90051 0.62894 0.0
C1671 C 0.21139 0.87003 0.627 0.0
C1672 C 0.19061 0.91834 0.62301 0.0
C1673 C 0.19131 0.85762 0.61901 0.0
C1674 C 0.17083 0.87512 0.6132 0.0
C1675 C 0.14898 0.9229 0.60965 0.0
C1676 C 0.14801 0.95337 0.61161 0.0
C1677 C 0.17015 0.90543 0.6152 0.0
C1678 C 0.16893 0.96612 0.61918 0.0
C1679 C 0.18996 0.94877 0.62486 0.0
H1680 H 0.3 0.88291 0.88138 0.0
H1681 H 0.33495 0.89245 0.84605 0.0
H1682 H 0.37048 0.92815 0.85322 0.0
H1683 H 0.3937 0.95425 0.86967 0.0
H1684 H 0.36068 0.94299 0.90519 0.0
H1685 H 0.32221 0.91056 0.89778 0.0
C1686 C 0.31541 0.8928 0.87526 0.0
C1687 C 0.31484 0.88493 0.86321 0.0
C1688 C 0.33617 0.91295 0.87947 0.0
C1689 C 0.33462 0.89834 0.85535 0.0
C1690 C 0.35513 0.9186 0.85945 0.0
C1691 C 0.37812 0.94464 0.8758 0.0
C1692 C 0.38023 0.9508 0.88797 0.0
C1693 C 0.35641 0.92568 0.87152 0.0
C1694 C 0.35945 0.93875 0.89576 0.0
C1695 C 0.33757 0.92004 0.89155 0.0
H1696 H 0.39341 0.08581 0.10232 0.0
H1697 H 0.3624 0.01304 0.12335 0.0
H1698 H 0.32714 0.04522 0.13314 0.0
H1699 H 0.30594 0.09446 0.13606 0.0
H1700 H 0.33594 0.16633 0.11439 0.0
H1701 H 0.37027 0.1338 0.10427 0.0
C1702 C 0.37856 0.07673 0.10886 0.0
C1703 C 0.3807 0.047 0.11209 0.0
C1704 C 0.35813 0.09521 0.11433 0.0
C1705 C 0.36161 0.03592 0.1208 0.0
C1706 C 0.34132 0.05427 0.12637 0.0
C1707 C 0.32 0.10288 0.1291 0.0
C1708 C 0.31852 0.13268 0.12597 0.0
C1709 C 0.33961 0.08402 0.12329 0.0
C1710 C 0.33656 0.14338 0.11687 0.0
C1711 C 0.35627 0.12485 0.11113 0.0
H1712 H 0.14733 0.06528 0.39554 0.0
H1713 H 0.11397 0.04062 0.36118 0.0
H1714 H 0.14891 0.07352 0.35164 0.0
H1715 H 0.18689 0.11118 0.35312 0.0
H1716 H 0.22113 0.1352 0.38741 0.0
H1717 H 0.1879 0.10043 0.39693 0.0
C1718 C 0.14805 0.06669 0.38596 0.0
C1719 C 0.12794 0.05065 0.37909 0.0
C1720 C 0.16819 0.08564 0.38053 0.0
C1721 C 0.12889 0.05308 0.36668 0.0
C1722 C 0.14894 0.07178 0.36122 0.0
C1723 C 0.18753 0.10842 0.36266 0.0
C1724 C 0.20641 0.12584 0.36954 0.0
C1725 C 0.1684 0.08844 0.36806 0.0
C1726 C 0.20652 0.12235 0.38192 0.0
C1727 C 0.18762 0.1024 0.38736 0.0
H1728 H 0.86549 0.06643 0.39575 0.0
H1729 H 0.8714 0.01643 0.36335 0.0
H1730 H 0.8376 0.05033 0.35371 0.0
H1731 H 0.80917 0.09597 0.35411 0.0
H1732 H 0.80113 0.1442 0.38688 0.0
H1733 H 0.83291 0.1089 0.39675 0.0
C1734 C 0.8589 0.06243 0.38667 0.0
C1735 C 0.87125 0.03898 0.38028 0.0
C1736 C 0.8393 0.08186 0.3812 0.0
C1737 C 0.86272 0.0346 0.36844 0.0
C1738 C 0.84328 0.05391 0.36292 0.0
C1739 C 0.81381 0.09849 0.36347 0.0
C1740 C 0.80301 0.12301 0.36967 0.0
C1741 C 0.83186 0.07792 0.36915 0.0
C1742 C 0.80967 0.12598 0.38178 0.0
C1743 C 0.8277 0.10569 0.38748 0.0
H1744 H 0.63788 0.04078 0.12892 0.0
H1745 H 0.65499 0.06831 0.09296 0.0
H1746 H 0.69309 0.1014 0.09995 0.0
H1747 H 0.71886 0.12531 0.11631 0.0
H1748 H 0.69756 0.10194 0.15238 0.0
H1749 H 0.66397 0.06438 0.14527 0.0
C1750 C 0.64976 0.05414 0.12259 0.0
C1751 C 0.6433 0.05211 0.11042 0.0
C1752 C 0.67092 0.07396 0.12669 0.0
C1753 C 0.65961 0.06904 0.10236 0.0
C1754 C 0.68126 0.08824 0.10636 0.0
C1755 C 0.70677 0.11216 0.12264 0.0
C1756 C 0.7107 0.11669 0.13487 0.0
C1757 C 0.68665 0.09131 0.11852 0.0
C1758 C 0.69536 0.0988 0.14292 0.0
C1759 C 0.67588 0.07746 0.13886 0.0
H1760 H 0.67157 0.8436 0.86454 0.0
H1761 H 0.74865 0.89618 0.87033 0.0
H1762 H 0.71829 0.93613 0.87816 0.0
H1763 H 0.66954 0.95569 0.88354 0.0
H1764 H 0.59267 0.90327 0.87689 0.0
H1765 H 0.62315 0.8636 0.86919 0.0
C1766 C 0.68165 0.86379 0.86758 0.0
C1767 C 0.71218 0.86699 0.86701 0.0
C1768 C 0.6641 0.88663 0.87187 0.0
C1769 C 0.72511 0.89336 0.87073 0.0
C1770 C 0.70779 0.9161 0.87521 0.0
C1771 C 0.6596 0.93554 0.88039 0.0
C1772 C 0.629 0.93231 0.88075 0.0
C1773 C 0.67725 0.91293 0.87586 0.0
C1774 C 0.6162 0.90628 0.87657 0.0
C1775 C 0.63358 0.88357 0.87223 0.0
H1776 H 0.80984 0.89477 0.63783 0.0
H1777 H 0.84698 0.81997 0.61984 0.0
H1778 H 0.88296 0.85156 0.61025 0.0
H1779 H 0.90468 0.90008 0.60735 0.0
H1780 H 0.86875 0.97489 0.62569 0.0
H1781 H 0.8314 0.94365 0.63474 0.0
C1782 C 0.82589 0.8854 0.63184 0.0
C1783 C 0.82569 0.85508 0.62954 0.0
C1784 C 0.84672 0.90366 0.62643 0.0
C1785 C 0.84637 0.84329 0.62163 0.0
C1786 C 0.8671 0.8613 0.61621 0.0
C1787 C 0.8888 0.90951 0.6134 0.0
C1788 C 0.88959 0.9397 0.61592 0.0
C1789 C 0.86759 0.89145 0.61861 0.0
C1790 C 0.86848 0.95173 0.62356 0.0
C1791 C 0.84723 0.93387 0.62878 0.0
H1792 H 0.66504 0.3646 0.14338 0.0
H1793 H 0.73231 0.38895 0.11837 0.0
H1794 H 0.6984 0.4227 0.10867 0.0
H1795 H 0.64925 0.44414 0.10695 0.0
H1796 H 0.58314 0.42179 0.13278 0.0
H1797 H 0.61717 0.38845 0.14251 0.0
C1798 C 0.67255 0.37767 0.13596 0.0
C1799 C 0.70122 0.37412 0.13162 0.0
C1800 C 0.65309 0.39725 0.1305 0.0
C1801 C 0.71025 0.39086 0.1218 0.0
C1802 C 0.69092 0.4103 0.11628 0.0
C1803 C 0.64238 0.43235 0.11481 0.0
C1804 C 0.61352 0.43534 0.11903 0.0
C1805 C 0.66221 0.41349 0.1205 0.0
C1806 C 0.60497 0.41949 0.12915 0.0
C1807 C 0.6245 0.40056 0.1348 0.0
H1808 H 0.78156 0.39781 0.36946 0.0
H1809 H 0.84651 0.36315 0.34541 0.0
H1810 H 0.8831 0.39615 0.35358 0.0
H1811 H 0.89779 0.43201 0.36846 0.0
H1812 H 0.83432 0.46491 0.39344 0.0
H1813 H 0.79601 0.43554 0.38397 0.0
C1814 C 0.80371 0.3975 0.366 0.0
C1815 C 0.81118 0.37795 0.35683 0.0
C1816 C 0.82497 0.41609 0.37095 0.0
C1817 C 0.83991 0.37822 0.35232 0.0
C1818 C 0.861 0.3969 0.35707 0.0
C1819 C 0.87558 0.4327 0.37186 0.0
C1820 C 0.86897 0.45024 0.38173 0.0
C1821 C 0.85392 0.41546 0.36652 0.0
C1822 C 0.83994 0.45157 0.38583 0.0
C1823 C 0.81809 0.43466 0.38047 0.0
H1824 H 0.90412 0.55413 0.63006 0.0
H1825 H 0.84896 0.53392 0.60012 0.0
H1826 H 0.80929 0.56288 0.60875 0.0
H1827 H 0.79139 0.59635 0.62425 0.0
H1828 H 0.84858 0.61926 0.65331 0.0
H1829 H 0.88611 0.58664 0.64562 0.0
C1830 C 0.8835 0.5562 0.62537 0.0
C1831 C 0.87967 0.54213 0.61439 0.0
C1832 C 0.86106 0.57333 0.63025 0.0
C1833 C 0.85248 0.54439 0.60861 0.0
C1834 C 0.82984 0.5611 0.6135 0.0
C1835 C 0.81208 0.59428 0.62889 0.0
C1836 C 0.81698 0.61032 0.63937 0.0
C1837 C 0.83406 0.57605 0.62423 0.0
C1838 C 0.8438 0.60687 0.64536 0.0
C1839 C 0.8655 0.58842 0.6409 0.0
H1840 H 0.68705 0.64056 0.8806 0.0
H1841 H 0.72038 0.5728 0.85765 0.0
H1842 H 0.6859 0.53749 0.86622 0.0
H1843 H 0.6443 0.5268 0.87952 0.0
H1844 H 0.60898 0.59559 0.90139 0.0
H1845 H 0.64633 0.62973 0.89409 0.0
C1846 C 0.68701 0.61793 0.87762 0.0
C1847 C 0.70621 0.60911 0.86859 0.0
C1848 C 0.66671 0.59809 0.88237 0.0
C1849 C 0.70568 0.57995 0.8646 0.0
C1850 C 0.68602 0.55983 0.86949 0.0
C1851 C 0.64517 0.5492 0.88273 0.0
C1852 C 0.62436 0.55889 0.89098 0.0
C1853 C 0.66617 0.56877 0.87826 0.0
C1854 C 0.62508 0.58791 0.89506 0.0
C1855 C 0.64631 0.60733 0.89088 0.0
H1856 H 0.34089 0.54562 0.89323 0.0
H1857 H 0.40016 0.54278 0.86342 0.0
H1858 H 0.37012 0.57827 0.85291 0.0
H1859 H 0.3293 0.61289 0.85268 0.0
H1860 H 0.27179 0.61879 0.88291 0.0
H1861 H 0.29878 0.57933 0.8927 0.0
C1862 C 0.34725 0.55276 0.88444 0.0
C1863 C 0.37284 0.54145 0.87917 0.0
C1864 C 0.33027 0.57388 0.87852 0.0
C1865 C 0.38039 0.55063 0.86767 0.0
C1866 C 0.36337 0.57121 0.86166 0.0
C1867 C 0.3227 0.60561 0.86143 0.0
C1868 C 0.29877 0.619 0.8671 0.0
C1869 C 0.33863 0.5834 0.86709 0.0
C1870 C 0.29004 0.60878 0.87831 0.0
C1871 C 0.30559 0.58635 0.88395 0.0
H1872 H 0.15556 0.53054 0.62293 0.0
H1873 H 0.12746 0.58993 0.59538 0.0
H1874 H 0.16088 0.62733 0.60277 0.0
H1875 H 0.19573 0.64432 0.61772 0.0
H1876 H 0.22189 0.58625 0.646 0.0
H1877 H 0.1917 0.54716 0.63762 0.0
C1878 C 0.15672 0.55168 0.61856 0.0
C1879 C 0.13894 0.55739 0.60863 0.0
C1880 C 0.17556 0.57337 0.623 0.0
C1881 C 0.14113 0.58474 0.60294 0.0
C1882 C 0.16007 0.60628 0.60722 0.0
C1883 C 0.19474 0.62315 0.62208 0.0
C1884 C 0.21081 0.61831 0.63253 0.0
C1885 C 0.177 0.60099 0.61734 0.0
C1886 C 0.20987 0.59051 0.63791 0.0
C1887 C 0.19246 0.56821 0.63317 0.0
H1888 H 0.15211 0.44544 0.39193 0.0
H1889 H 0.09619 0.44519 0.36112 0.0
H1890 H 0.13077 0.41354 0.35071 0.0
H1891 H 0.17499 0.38319 0.35088 0.0
H1892 H 0.23129 0.38353 0.38158 0.0
H1893 H 0.1985 0.41804 0.39151 0.0
C1894 C 0.14777 0.43888 0.38287 0.0
C1895 C 0.12151 0.44741 0.37735 0.0
C1896 C 0.16768 0.42054 0.37695 0.0
C1897 C 0.11603 0.43849 0.36563 0.0
C1898 C 0.13582 0.42049 0.35966 0.0
C1899 C 0.18043 0.39128 0.35964 0.0
C1900 C 0.20548 0.38072 0.3655 0.0
C1901 C 0.16144 0.41096 0.36531 0.0
C1902 C 0.21192 0.39103 0.37694 0.0
C1903 C 0.19324 0.41082 0.38261 0.0
H1904 H 0.38637 0.45197 0.12803 0.0
H1905 H 0.33316 0.46199 0.09669 0.0
H1906 H 0.29733 0.42744 0.10476 0.0
H1907 H 0.28236 0.3928 0.12039 0.0
H1908 H 0.33653 0.38281 0.15148 0.0
H1909 H 0.37029 0.41977 0.14398 0.0
C1910 C 0.36664 0.44716 0.12305 0.0
C1911 C 0.36244 0.45959 0.11178 0.0
C1912 C 0.34627 0.42732 0.12771 0.0
C1913 C 0.33705 0.45249 0.10535 0.0
C1914 C 0.31653 0.43283 0.10997 0.0
C1915 C 0.30154 0.39879 0.12552 0.0
C1916 C 0.30689 0.3851 0.13648 0.0
C1917 C 0.32115 0.41978 0.12107 0.0
C1918 C 0.33164 0.39331 0.1431 0.0
C1919 C 0.35111 0.41426 0.13878 0.0
loop_
_geom_bond_atom_site_label_1
_geom_bond_atom_site_label_2
_geom_bond_distance
_geom_bond_site_symmetry_2
_ccdc_geom_bond_type
Li0 N17 1.990 . S
Li0 O60 1.956 . S
Li0 O61 1.970 1_455 S
Li0 O62 1.961 . S
Li1 N25 1.990 . S
Li1 O60 1.970 . S
Li1 O61 1.956 1_455 S
Li1 O63 1.961 . S
Li2 N47 1.990 . S
Li2 O60 1.961 . S
Li2 O62 1.956 . S
Li2 O63 1.970 . S
Li3 N53 1.990 . S
Li3 O61 1.961 . S
Li3 O62 1.970 1_655 S
Li3 O63 1.956 1_655 S
C4 C6 1.348 . S
C4 C7 1.356 . S
C4 O60 1.325 . S
N5 C8 1.314 . S
N5 C9 1.279 . S
C6 C4 1.348 . S
C6 C8 1.353 . S
C6 H64 0.929 . S
C7 C4 1.356 . S
C7 C9 1.358 . S
C7 H65 0.930 . S
C8 N5 1.314 . S
C8 C6 1.353 . S
C8 H66 0.930 . S
C9 N5 1.279 . S
C9 C7 1.358 . S
C9 H67 0.930 . S
C10 C13 1.348 . S
C10 C14 1.356 . S
C10 O61 1.325 . S
C11 N12 1.279 . S
C11 C14 1.358 . S
C11 H68 0.930 . S
N12 C11 1.279 . S
N12 C15 1.314 . S
C13 C10 1.348 . S
C13 C15 1.353 . S
C13 H69 0.929 . S
C14 C10 1.356 . S
C14 C11 1.358 . S
C14 H70 0.930 . S
C15 N12 1.314 . S
C15 C13 1.353 . S
C15 H71 0.930 . S
C16 N17 1.314 1_655 S
C16 C21 1.353 . S
C16 H22 0.930 1_545 S
N17 Li0 1.990 . S
N17 C16 1.314 1_455 S
N17 C19 1.279 . S
C18 C19 1.358 . S
C18 C20 1.356 . S
C18 H72 0.930 . S
C19 N17 1.279 . S
C19 C18 1.358 . S
C19 H23 0.930 . S
C20 C18 1.356 . S
C20 C21 1.348 1_455 S
C21 C16 1.353 . S
C21 C20 1.348 1_655 S
C21 H73 0.929 1_545 S
H22 C16 0.930 1_565 S
H23 C19 0.930 . S
C24 N25 1.314 . S
C24 C26 1.353 . S
C24 H30 0.930 . S
N25 Li1 1.990 . S
N25 C24 1.314 . S
N25 C28 1.279 1_455 S
C26 C24 1.353 . S
C26 C29 1.348 . S
C26 H74 0.929 . S
C27 C28 1.358 . S
C27 C29 1.356 1_655 S
C27 H75 0.930 . S
C28 N25 1.279 1_655 S
C28 C27 1.358 . S
C28 H31 0.930 . S
C29 C26 1.348 . S
C29 C27 1.356 1_455 S
H30 C24 0.930 . S
H31 C28 0.930 . S
C32 C34 1.348 1_455 S
C32 C35 1.356 . S
C32 O62 1.325 1_565 S
N33 C36 1.314 1_455 S
N33 C37 1.279 . S
C34 C32 1.348 1_655 S
C34 C36 1.353 . S
C34 H76 0.929 . S
C35 C32 1.356 . S
C35 C37 1.358 . S
C35 H77 0.930 . S
C36 N33 1.314 1_655 S
C36 C34 1.353 . S
C36 H78 0.930 . S
C37 N33 1.279 . S
C37 C35 1.358 . S
C37 H79 0.930 . S
C38 C39 1.348 . S
C38 C40 1.356 1_455 S
C38 O63 1.325 . S
C39 C38 1.348 . S
C39 C41 1.353 . S
C39 H80 0.929 . S
C40 C38 1.356 1_655 S
C40 C42 1.358 . S
C40 H81 0.930 . S
C41 C39 1.353 . S
C41 N43 1.314 . S
C41 H82 0.930 . S
C42 C40 1.358 . S
C42 N43 1.279 1_655 S
C42 H83 0.930 . S
N43 C41 1.314 . S
N43 C42 1.279 1_455 S
C44 C46 1.353 . S
C44 N47 1.314 . S
C44 H50 0.930 . S
C45 N47 1.279 1_565 S
C45 C48 1.358 . S
C45 H51 0.930 . S
C46 C44 1.353 . S
C46 C49 1.348 1_545 S
C46 H84 0.929 . S
N47 Li2 1.990 . S
N47 C44 1.314 . S
N47 C45 1.279 1_545 S
C48 C45 1.358 . S
C48 C49 1.356 . S
C48 H85 0.930 . S
C49 C46 1.348 1_565 S
C49 C48 1.356 . S
H50 C44 0.930 . S
H51 C45 0.930 . S
C52 N53 1.313 1_565 S
C52 C54 1.354 . S
C52 H58 0.929 1_565 S
N53 Li3 1.990 . S
N53 C52 1.313 1_545 S
N53 C56 1.279 . S
C54 C52 1.354 . S
C54 C57 1.348 . S
C54 H86 0.929 . S
C55 C56 1.358 1_565 S
C55 C57 1.356 . S
C55 H87 0.930 . S
C56 N53 1.279 . S
C56 C55 1.358 1_545 S
C56 H59 0.930 . S
C57 C54 1.348 . S
C57 C55 1.356 . S
H58 C52 0.929 1_545 S
H59 C56 0.930 . S
O60 Li0 1.956 . S
O60 Li1 1.970 . S
O60 Li2 1.961 . S
O60 C4 1.325 . S
O61 Li0 1.970 1_655 S
O61 Li1 1.956 1_655 S
O61 Li3 1.961 . S
O61 C10 1.325 . S
O62 Li0 1.961 . S
O62 Li2 1.956 . S
O62 Li3 1.970 1_455 S
O62 C32 1.325 1_545 S
O63 Li1 1.961 . S
O63 Li2 1.970 . S
O63 Li3 1.956 1_455 S
O63 C38 1.325 . S
H64 C6 0.929 . S
H65 C7 0.930 . S
H66 C8 0.930 . S
H67 C9 0.930 . S
H68 C11 0.930 . S
H69 C13 0.929 . S
H70 C14 0.930 . S
H71 C15 0.930 . S
H72 C18 0.930 . S
H73 C21 0.929 1_565 S
H74 C26 0.929 . S
H75 C27 0.930 . S
H76 C34 0.929 . S
H77 C35 0.930 . S
H78 C36 0.930 . S
H79 C37 0.930 . S
H80 C39 0.929 . S
H81 C40 0.930 . S
H82 C41 0.930 . S
H83 C42 0.930 . S
H84 C46 0.929 . S
H85 C48 0.930 . S
H86 C54 0.929 . S
H87 C55 0.930 . S
Li88 N105 1.990 . S
Li88 O148 1.956 . S
Li88 O149 1.970 . S
Li88 O150 1.961 . S
Li89 N113 1.990 . S
Li89 O148 1.970 . S
Li89 O149 1.956 . S
Li89 O151 1.961 . S
Li90 N135 1.990 . S
Li90 O148 1.961 . S
Li90 O150 1.956 . S
Li90 O151 1.970 . S
Li91 N141 1.990 . S
Li91 O149 1.961 . S
Li91 O150 1.970 . S
Li91 O151 1.956 . S
C92 C94 1.348 . S
C92 C95 1.356 . S
C92 O148 1.325 . S
N93 C96 1.314 . S
N93 C97 1.279 . S
C94 C92 1.348 . S
C94 C96 1.353 . S
C94 H152 0.929 . S
C95 C92 1.356 . S
C95 C97 1.358 . S
C95 H153 0.930 . S
C96 N93 1.314 . S
C96 C94 1.353 . S
C96 H154 0.930 . S
C97 N93 1.279 . S
C97 C95 1.358 . S
C97 H155 0.930 . S
C98 C101 1.348 . S
C98 C102 1.356 . S
C98 O149 1.325 . S
C99 N100 1.279 . S
C99 C102 1.358 . S
C99 H156 0.930 . S
N100 C99 1.279 . S
N100 C103 1.314 . S
C101 C98 1.348 . S
C101 C103 1.353 . S
C101 H157 0.929 . S
C102 C98 1.356 . S
C102 C99 1.358 . S
C102 H158 0.930 . S
C103 N100 1.314 . S
C103 C101 1.353 . S
C103 H159 0.930 . S
C104 N105 1.314 . S
C104 C109 1.353 . S
C104 H110 0.930 . S
N105 Li88 1.990 . S
N105 C104 1.314 . S
N105 C107 1.279 . S
C106 C107 1.358 . S
C106 C108 1.356 . S
C106 H160 0.930 . S
C107 N105 1.279 . S
C107 C106 1.358 . S
C107 H111 0.930 . S
C108 C106 1.356 . S
C108 C109 1.348 . S
C109 C104 1.353 . S
C109 C108 1.348 . S
C109 H161 0.929 . S
H110 C104 0.930 . S
H111 C107 0.930 . S
C112 N113 1.314 . S
C112 C114 1.353 . S
C112 H118 0.930 . S
N113 Li89 1.990 . S
N113 C112 1.314 . S
N113 C116 1.279 . S
C114 C112 1.353 . S
C114 C117 1.348 . S
C114 H162 0.929 . S
C115 C116 1.358 . S
C115 C117 1.356 . S
C115 H163 0.930 . S
C116 N113 1.279 . S
C116 C115 1.358 . S
C116 H119 0.930 . S
C117 C114 1.348 . S
C117 C115 1.356 . S
H118 C112 0.930 . S
H119 C116 0.930 . S
C120 C122 1.348 . S
C120 C123 1.356 . S
C120 O150 1.325 . S
N121 C124 1.314 . S
N121 C125 1.279 . S
C122 C120 1.348 . S
C122 C124 1.353 . S
C122 H164 0.929 . S
C123 C120 1.356 . S
C123 C125 1.358 . S
C123 H165 0.930 . S
C124 N121 1.314 . S
C124 C122 1.353 . S
C124 H166 0.930 . S
C125 N121 1.279 . S
C125 C123 1.358 . S
C125 H167 0.930 . S
C126 C127 1.348 . S
C126 C128 1.356 . S
C126 O151 1.325 . S
C127 C126 1.348 . S
C127 C129 1.353 . S
C127 H168 0.929 . S
C128 C126 1.356 . S
C128 C130 1.358 . S
C128 H169 0.930 . S
C129 C127 1.353 . S
C129 N131 1.314 . S
C129 H170 0.930 . S
C130 C128 1.358 . S
C130 N131 1.279 . S
C130 H171 0.930 . S
N131 C129 1.314 . S
N131 C130 1.279 . S
C132 C134 1.353 . S
C132 N135 1.314 . S
C132 H138 0.930 . S
C133 N135 1.279 . S
C133 C136 1.358 . S
C133 H139 0.930 . S
C134 C132 1.353 . S
C134 C137 1.348 . S
C134 H172 0.929 . S
N135 Li90 1.990 . S
N135 C132 1.314 . S
N135 C133 1.279 . S
C136 C133 1.358 . S
C136 C137 1.356 . S
C136 H173 0.930 . S
C137 C134 1.348 . S
C137 C136 1.356 . S
H138 C132 0.930 . S
H139 C133 0.930 . S
C140 N141 1.314 . S
C140 C142 1.353 . S
C140 H146 0.930 . S
N141 Li91 1.990 . S
N141 C140 1.314 . S
N141 C144 1.279 . S
C142 C140 1.353 . S
C142 C145 1.348 . S
C142 H174 0.929 . S
C143 C144 1.358 . S
C143 C145 1.356 . S
C143 H175 0.930 . S
C144 N141 1.279 . S
C144 C143 1.358 . S
C144 H147 0.930 . S
C145 C142 1.348 . S
C145 C143 1.356 . S
H146 C140 0.930 . S
H147 C144 0.930 . S
O148 Li88 1.956 . S
O148 Li89 1.970 . S
O148 Li90 1.961 . S
O148 C92 1.325 . S
O149 Li88 1.970 . S
O149 Li89 1.956 . S
O149 Li91 1.961 . S
O149 C98 1.325 . S
O150 Li88 1.961 . S
O150 Li90 1.956 . S
O150 Li91 1.970 . S
O150 C120 1.325 . S
O151 Li89 1.961 . S
O151 Li90 1.970 . S
O151 Li91 1.956 . S
O151 C126 1.325 . S
H152 C94 0.929 . S
H153 C95 0.930 . S
H154 C96 0.930 . S
H155 C97 0.930 . S
H156 C99 0.930 . S
H157 C101 0.929 . S
H158 C102 0.930 . S
H159 C103 0.930 . S
H160 C106 0.930 . S
H161 C109 0.929 . S
H162 C114 0.929 . S
H163 C115 0.930 . S
H164 C122 0.929 . S
H165 C123 0.930 . S
H166 C124 0.930 . S
H167 C125 0.930 . S
H168 C127 0.929 . S
H169 C128 0.930 . S
H170 C129 0.930 . S
H171 C130 0.930 . S
H172 C134 0.929 . S
H173 C136 0.930 . S
H174 C142 0.929 . S
H175 C143 0.930 . S
Li176 N193 1.990 . S
Li176 O236 1.956 . S
Li176 O237 1.970 . S
Li176 O238 1.961 . S
Li177 N201 1.990 . S
Li177 O236 1.970 . S
Li177 O237 1.956 . S
Li177 O239 1.961 . S
Li178 N223 1.990 . S
Li178 O236 1.961 . S
Li178 O238 1.956 . S
Li178 O239 1.970 . S
Li179 N229 1.990 . S
Li179 O237 1.961 . S
Li179 O238 1.970 . S
Li179 O239 1.956 . S
C180 C182 1.348 . S
C180 C183 1.356 . S
C180 O236 1.325 . S
N181 C184 1.314 . S
N181 C185 1.279 . S
C182 C180 1.348 . S
C182 C184 1.353 . S
C182 H240 0.929 . S
C183 C180 1.356 . S
C183 C185 1.358 . S
C183 H241 0.930 . S
C184 N181 1.314 . S
C184 C182 1.353 . S
C184 H242 0.930 . S
C185 N181 1.279 . S
C185 C183 1.358 . S
C185 H243 0.930 . S
C186 C189 1.348 . S
C186 C190 1.356 . S
C186 O237 1.325 1_545 S
C187 N188 1.279 . S
C187 C190 1.358 . S
C187 H244 0.930 . S
N188 C187 1.279 . S
N188 C191 1.314 . S
C189 C186 1.348 . S
C189 C191 1.353 . S
C189 H245 0.929 . S
C190 C186 1.356 . S
C190 C187 1.358 . S
C190 H246 0.930 . S
C191 N188 1.314 . S
C191 C189 1.353 . S
C191 H247 0.930 . S
C192 N193 1.314 1_545 S
C192 C197 1.354 . S
C192 H198 0.929 1_545 S
N193 Li176 1.990 . S
N193 C192 1.314 1_565 S
N193 C195 1.279 . S
C194 C195 1.358 1_545 S
C194 C196 1.356 . S
C194 H248 0.930 . S
C195 N193 1.279 . S
C195 C194 1.358 1_565 S
C195 H199 0.930 . S
C196 C194 1.356 . S
C196 C197 1.348 . S
C197 C192 1.354 . S
C197 C196 1.348 . S
C197 H249 0.929 . S
H198 C192 0.929 1_565 S
H199 C195 0.930 . S
C200 N201 1.314 . S
C200 C202 1.353 . S
C200 H206 0.930 . S
N201 Li177 1.990 . S
N201 C200 1.314 . S
N201 C204 1.279 1_565 S
C202 C200 1.353 . S
C202 C205 1.348 1_565 S
C202 H250 0.929 . S
C203 C204 1.358 . S
C203 C205 1.356 . S
C203 H251 0.930 . S
C204 N201 1.279 1_545 S
C204 C203 1.358 . S
C204 H207 0.930 . S
C205 C202 1.348 1_545 S
C205 C203 1.356 . S
H206 C200 0.930 . S
H207 C204 0.930 . S
C208 C210 1.348 . S
C208 C211 1.356 . S
C208 O238 1.325 . S
N209 C212 1.314 . S
N209 C213 1.279 . S
C210 C208 1.348 . S
C210 C212 1.353 . S
C210 H252 0.929 . S
C211 C208 1.356 . S
C211 C213 1.358 . S
C211 H253 0.930 . S
C212 N209 1.314 . S
C212 C210 1.353 . S
C212 H254 0.930 . S
C213 N209 1.279 . S
C213 C211 1.358 . S
C213 H255 0.930 . S
C214 C215 1.348 . S
C214 C216 1.356 . S
C214 O239 1.325 . S
C215 C214 1.348 . S
C215 C217 1.353 . S
C215 H256 0.929 . S
C216 C214 1.356 . S
C216 C218 1.358 . S
C216 H257 0.930 . S
C217 C215 1.353 . S
C217 N219 1.314 . S
C217 H258 0.930 . S
C218 C216 1.358 . S
C218 N219 1.279 . S
C218 H259 0.930 . S
N219 C217 1.314 . S
N219 C218 1.279 . S
C220 C222 1.353 . S
C220 N223 1.314 . S
C220 H226 0.930 . S
C221 N223 1.279 . S
C221 C224 1.358 . S
C221 H227 0.930 . S
C222 C220 1.353 . S
C222 C225 1.348 . S
C222 H260 0.929 . S
N223 Li178 1.990 . S
N223 C220 1.314 . S
N223 C221 1.279 . S
C224 C221 1.358 . S
C224 C225 1.356 . S
C224 H261 0.930 . S
C225 C222 1.348 . S
C225 C224 1.356 . S
H226 C220 0.930 . S
H227 C221 0.930 . S
C228 N229 1.314 . S
C228 C230 1.353 . S
C228 H234 0.930 1_565 S
N229 Li179 1.990 . S
N229 C228 1.314 . S
N229 C232 1.279 . S
C230 C228 1.353 . S
C230 C233 1.348 . S
C230 H262 0.929 1_565 S
C231 C232 1.358 . S
C231 C233 1.356 . S
C231 H263 0.930 . S
C232 N229 1.279 . S
C232 C231 1.358 . S
C232 H235 0.930 . S
C233 C230 1.348 . S
C233 C231 1.356 . S
H234 C228 0.930 1_545 S
H235 C232 0.930 . S
O236 Li176 1.956 . S
O236 Li177 1.970 . S
O236 Li178 1.961 . S
O236 C180 1.325 . S
O237 Li176 1.970 . S
O237 Li177 1.956 . S
O237 Li179 1.961 . S
O237 C186 1.325 1_565 S
O238 Li176 1.961 . S
O238 Li178 1.956 . S
O238 Li179 1.970 . S
O238 C208 1.325 . S
O239 Li177 1.961 . S
O239 Li178 1.970 . S
O239 Li179 1.956 . S
O239 C214 1.325 . S
H240 C182 0.929 . S
H241 C183 0.930 . S
H242 C184 0.930 . S
H243 C185 0.930 . S
H244 C187 0.930 . S
H245 C189 0.929 . S
H246 C190 0.930 . S
H247 C191 0.930 . S
H248 C194 0.930 . S
H249 C197 0.929 . S
H250 C202 0.929 . S
H251 C203 0.930 . S
H252 C210 0.929 . S
H253 C211 0.930 . S
H254 C212 0.930 . S
H255 C213 0.930 . S
H256 C215 0.929 . S
H257 C216 0.930 . S
H258 C217 0.930 . S
H259 C218 0.930 . S
H260 C222 0.929 . S
H261 C224 0.930 . S
H262 C230 0.929 1_545 S
H263 C231 0.930 . S
Li264 N281 1.990 . S
Li264 O324 1.956 . S
Li264 O325 1.970 . S
Li264 O326 1.961 . S
Li265 N289 1.990 . S
Li265 O324 1.970 . S
Li265 O325 1.956 . S
Li265 O327 1.961 . S
Li266 N311 1.990 . S
Li266 O324 1.961 . S
Li266 O326 1.956 . S
Li266 O327 1.970 . S
Li267 N317 1.990 . S
Li267 O325 1.961 . S
Li267 O326 1.970 . S
Li267 O327 1.956 . S
C268 C270 1.348 . S
C268 C271 1.356 . S
C268 O324 1.325 . S
N269 C272 1.314 . S
N269 C273 1.279 . S
C270 C268 1.348 . S
C270 C272 1.353 . S
C270 H328 0.929 . S
C271 C268 1.356 . S
C271 C273 1.358 . S
C271 H329 0.930 . S
C272 N269 1.314 . S
C272 C270 1.353 . S
C272 H330 0.930 . S
C273 N269 1.279 . S
C273 C271 1.358 . S
C273 H331 0.930 . S
C274 C277 1.348 . S
C274 C278 1.356 . S
C274 O325 1.325 . S
C275 N276 1.279 . S
C275 C278 1.358 . S
C275 H332 0.930 . S
N276 C275 1.279 . S
N276 C279 1.314 . S
C277 C274 1.348 . S
C277 C279 1.353 . S
C277 H333 0.929 . S
C278 C274 1.356 . S
C278 C275 1.358 . S
C278 H334 0.930 . S
C279 N276 1.314 . S
C279 C277 1.353 . S
C279 H335 0.930 . S
C280 N281 1.314 . S
C280 C285 1.353 . S
C280 H286 0.930 . S
N281 Li264 1.990 . S
N281 C280 1.314 . S
N281 C283 1.279 . S
C282 C283 1.358 . S
C282 C284 1.356 . S
C282 H336 0.930 . S
C283 N281 1.279 . S
C283 C282 1.358 . S
C283 H287 0.930 . S
C284 C282 1.356 . S
C284 C285 1.348 . S
C285 C280 1.353 . S
C285 C284 1.348 . S
C285 H337 0.929 . S
H286 C280 0.930 . S
H287 C283 0.930 . S
C288 N289 1.314 . S
C288 C290 1.353 . S
C288 H294 0.930 . S
N289 Li265 1.990 . S
N289 C288 1.314 . S
N289 C292 1.279 . S
C290 C288 1.353 . S
C290 C293 1.348 . S
C290 H338 0.929 . S
C291 C292 1.358 . S
C291 C293 1.356 . S
C291 H339 0.930 . S
C292 N289 1.279 . S
C292 C291 1.358 . S
C292 H295 0.930 . S
C293 C290 1.348 . S
C293 C291 1.356 . S
H294 C288 0.930 . S
H295 C292 0.930 . S
C296 C298 1.348 . S
C296 C299 1.356 . S
C296 O326 1.325 . S
N297 C300 1.314 . S
N297 C301 1.279 . S
C298 C296 1.348 . S
C298 C300 1.353 . S
C298 H340 0.929 . S
C299 C296 1.356 . S
C299 C301 1.358 . S
C299 H341 0.930 . S
C300 N297 1.314 . S
C300 C298 1.353 . S
C300 H342 0.930 . S
C301 N297 1.279 . S
C301 C299 1.358 . S
C301 H343 0.930 . S
C302 C303 1.348 . S
C302 C304 1.356 . S
C302 O327 1.325 . S
C303 C302 1.348 . S
C303 C305 1.353 . S
C303 H344 0.929 . S
C304 C302 1.356 . S
C304 C306 1.358 . S
C304 H345 0.930 . S
C305 C303 1.353 . S
C305 N307 1.314 . S
C305 H346 0.930 . S
C306 C304 1.358 . S
C306 N307 1.279 . S
C306 H347 0.930 . S
N307 C305 1.314 . S
N307 C306 1.279 . S
C308 C310 1.353 . S
C308 N311 1.314 . S
C308 H314 0.930 . S
C309 N311 1.279 . S
C309 C312 1.358 . S
C309 H315 0.930 . S
C310 C308 1.353 . S
C310 C313 1.348 . S
C310 H348 0.929 . S
N311 Li266 1.990 . S
N311 C308 1.314 . S
N311 C309 1.279 . S
C312 C309 1.358 . S
C312 C313 1.356 . S
C312 H349 0.930 . S
C313 C310 1.348 . S
C313 C312 1.356 . S
H314 C308 0.930 . S
H315 C309 0.930 . S
C316 N317 1.314 . S
C316 C318 1.353 . S
C316 H322 0.930 . S
N317 Li267 1.990 . S
N317 C316 1.314 . S
N317 C320 1.279 . S
C318 C316 1.353 . S
C318 C321 1.348 . S
C318 H350 0.929 . S
C319 C320 1.358 . S
C319 C321 1.356 . S
C319 H351 0.930 . S
C320 N317 1.279 . S
C320 C319 1.358 . S
C320 H323 0.930 . S
C321 C318 1.348 . S
C321 C319 1.356 . S
H322 C316 0.930 . S
H323 C320 0.930 . S
O324 Li264 1.956 . S
O324 Li265 1.970 . S
O324 Li266 1.961 . S
O324 C268 1.325 . S
O325 Li264 1.970 . S
O325 Li265 1.956 . S
O325 Li267 1.961 . S
O325 C274 1.325 . S
O326 Li264 1.961 . S
O326 Li266 1.956 . S
O326 Li267 1.970 . S
O326 C296 1.325 . S
O327 Li265 1.961 . S
O327 Li266 1.970 . S
O327 Li267 1.956 . S
O327 C302 1.325 . S
H328 C270 0.929 . S
H329 C271 0.930 . S
H330 C272 0.930 . S
H331 C273 0.930 . S
H332 C275 0.930 . S
H333 C277 0.929 . S
H334 C278 0.930 . S
H335 C279 0.930 . S
H336 C282 0.930 . S
H337 C285 0.929 . S
H338 C290 0.929 . S
H339 C291 0.930 . S
H340 C298 0.929 . S
H341 C299 0.930 . S
H342 C300 0.930 . S
H343 C301 0.930 . S
H344 C303 0.929 . S
H345 C304 0.930 . S
H346 C305 0.930 . S
H347 C306 0.930 . S
H348 C310 0.929 . S
H349 C312 0.930 . S
H350 C318 0.929 . S
H351 C319 0.930 . S
Li352 N369 1.990 . S
Li352 O412 1.956 1_655 S
Li352 O413 1.970 1_655 S
Li352 O414 1.961 . S
Li353 N377 1.990 . S
Li353 O412 1.970 . S
Li353 O413 1.956 . S
Li353 O415 1.961 . S
Li354 N399 1.990 . S
Li354 O412 1.961 . S
Li354 O414 1.956 1_455 S
Li354 O415 1.970 . S
Li355 N405 1.990 . S
Li355 O413 1.961 . S
Li355 O414 1.970 1_455 S
Li355 O415 1.956 . S
C356 C358 1.348 . S
C356 C359 1.356 1_455 S
C356 O412 1.325 . S
N357 C360 1.314 . S
N357 C361 1.279 1_455 S
C358 C356 1.348 . S
C358 C360 1.353 . S
C358 H416 0.929 . S
C359 C356 1.356 1_655 S
C359 C361 1.358 . S
C359 H417 0.930 . S
C360 N357 1.314 . S
C360 C358 1.353 . S
C360 H418 0.930 . S
C361 N357 1.279 1_655 S
C361 C359 1.358 . S
C361 H419 0.930 . S
C362 C365 1.348 1_455 S
C362 C366 1.356 . S
C362 O413 1.325 1_545 S
C363 N364 1.279 . S
C363 C366 1.358 . S
C363 H420 0.930 . S
N364 C363 1.279 . S
N364 C367 1.314 1_455 S
C365 C362 1.348 1_655 S
C365 C367 1.353 . S
C365 H421 0.929 . S
C366 C362 1.356 . S
C366 C363 1.358 . S
C366 H422 0.930 . S
C367 N364 1.314 1_655 S
C367 C365 1.353 . S
C367 H423 0.930 . S
C368 N369 1.313 1_545 S
C368 C373 1.354 . S
C368 H374 0.929 1_545 S
N369 Li352 1.990 . S
N369 C368 1.313 1_565 S
N369 C371 1.279 . S
C370 C371 1.358 1_545 S
C370 C372 1.356 . S
C370 H424 0.930 . S
C371 N369 1.279 . S
C371 C370 1.358 1_565 S
C371 H375 0.930 . S
C372 C370 1.356 . S
C372 C373 1.348 . S
C373 C368 1.354 . S
C373 C372 1.348 . S
C373 H425 0.929 . S
H374 C368 0.929 1_565 S
H375 C371 0.930 . S
C376 N377 1.314 . S
C376 C378 1.353 . S
C376 H382 0.930 . S
N377 Li353 1.990 . S
N377 C376 1.314 . S
N377 C380 1.279 1_565 S
C378 C376 1.353 . S
C378 C381 1.348 1_565 S
C378 H426 0.929 . S
C379 C380 1.358 . S
C379 C381 1.356 . S
C379 H427 0.930 . S
C380 N377 1.279 1_545 S
C380 C379 1.358 . S
C380 H383 0.930 . S
C381 C378 1.348 1_545 S
C381 C379 1.356 . S
H382 C376 0.930 . S
H383 C380 0.930 . S
C384 C386 1.348 . S
C384 C387 1.356 . S
C384 O414 1.325 . S
N385 C388 1.314 . S
N385 C389 1.279 . S
C386 C384 1.348 . S
C386 C388 1.353 . S
C386 H428 0.929 . S
C387 C384 1.356 . S
C387 C389 1.358 . S
C387 H429 0.930 . S
C388 N385 1.314 . S
C388 C386 1.353 . S
C388 H430 0.930 . S
C389 N385 1.279 . S
C389 C387 1.358 . S
C389 H431 0.930 . S
C390 C391 1.348 . S
C390 C392 1.356 . S
C390 O415 1.325 . S
C391 C390 1.348 . S
C391 C393 1.353 . S
C391 H432 0.929 . S
C392 C390 1.356 . S
C392 C394 1.358 . S
C392 H433 0.930 . S
C393 C391 1.353 . S
C393 N395 1.314 . S
C393 H434 0.930 . S
C394 C392 1.358 . S
C394 N395 1.279 . S
C394 H435 0.930 . S
N395 C393 1.314 . S
N395 C394 1.279 . S
C396 C398 1.353 . S
C396 N399 1.314 . S
C396 H402 0.930 . S
C397 N399 1.279 1_655 S
C397 C400 1.358 . S
C397 H403 0.930 . S
C398 C396 1.353 . S
C398 C401 1.348 . S
C398 H436 0.929 . S
N399 Li354 1.990 . S
N399 C396 1.314 . S
N399 C397 1.279 1_455 S
C400 C397 1.358 . S
C400 C401 1.356 1_655 S
C400 H437 0.930 . S
C401 C398 1.348 . S
C401 C400 1.356 1_455 S
H402 C396 0.930 . S
H403 C397 0.930 . S
C404 N405 1.314 1_655 S
C404 C406 1.353 . S
C404 H410 0.930 1_565 S
N405 Li355 1.990 . S
N405 C404 1.314 1_455 S
N405 C408 1.279 . S
C406 C404 1.353 . S
C406 C409 1.348 1_655 S
C406 H438 0.929 1_565 S
C407 C408 1.358 . S
C407 C409 1.356 . S
C407 H439 0.930 . S
C408 N405 1.279 . S
C408 C407 1.358 . S
C408 H411 0.930 . S
C409 C406 1.348 1_455 S
C409 C407 1.356 . S
H410 C404 0.930 1_545 S
H411 C408 0.930 . S
O412 Li352 1.956 1_455 S
O412 Li353 1.970 . S
O412 Li354 1.961 . S
O412 C356 1.325 . S
O413 Li352 1.970 1_455 S
O413 Li353 1.956 . S
O413 Li355 1.961 . S
O413 C362 1.325 1_565 S
O414 Li352 1.961 . S
O414 Li354 1.956 1_655 S
O414 Li355 1.970 1_655 S
O414 C384 1.325 . S
O415 Li353 1.961 . S
O415 Li354 1.970 . S
O415 Li355 1.956 . S
O415 C390 1.325 . S
H416 C358 0.929 . S
H417 C359 0.930 . S
H418 C360 0.930 . S
H419 C361 0.930 . S
H420 C363 0.930 . S
H421 C365 0.929 . S
H422 C366 0.930 . S
H423 C367 0.930 . S
H424 C370 0.930 . S
H425 C373 0.929 . S
H426 C378 0.929 . S
H427 C379 0.930 . S
H428 C386 0.929 . S
H429 C387 0.930 . S
H430 C388 0.930 . S
H431 C389 0.930 . S
H432 C391 0.929 . S
H433 C392 0.930 . S
H434 C393 0.930 . S
H435 C394 0.930 . S
H436 C398 0.929 . S
H437 C400 0.930 . S
H438 C406 0.929 1_545 S
H439 C407 0.930 . S
Li440 N457 1.990 . S
Li440 O500 1.956 . S
Li440 O501 1.970 . S
Li440 O502 1.961 . S
Li441 N465 1.990 . S
Li441 O500 1.970 . S
Li441 O501 1.956 . S
Li441 O503 1.961 . S
Li442 N487 1.990 . S
Li442 O500 1.961 . S
Li442 O502 1.956 . S
Li442 O503 1.970 . S
Li443 N493 1.990 . S
Li443 O501 1.961 . S
Li443 O502 1.970 . S
Li443 O503 1.956 . S
C444 C446 1.348 . S
C444 C447 1.356 . S
C444 O500 1.325 . S
N445 C448 1.314 . S
N445 C449 1.279 . S
C446 C444 1.348 . S
C446 C448 1.353 . S
C446 H504 0.929 . S
C447 C444 1.356 . S
C447 C449 1.358 . S
C447 H505 0.930 . S
C448 N445 1.314 . S
C448 C446 1.353 . S
C448 H506 0.930 . S
C449 N445 1.279 . S
C449 C447 1.358 . S
C449 H507 0.930 . S
C450 C453 1.348 . S
C450 C454 1.356 . S
C450 O501 1.325 . S
C451 N452 1.279 . S
C451 C454 1.358 . S
C451 H508 0.930 . S
N452 C451 1.279 . S
N452 C455 1.314 . S
C453 C450 1.348 . S
C453 C455 1.353 . S
C453 H509 0.929 . S
C454 C450 1.356 . S
C454 C451 1.358 . S
C454 H510 0.930 . S
C455 N452 1.314 . S
C455 C453 1.353 . S
C455 H511 0.930 . S
C456 N457 1.314 . S
C456 C461 1.353 . S
C456 H462 0.930 . S
N457 Li440 1.990 . S
N457 C456 1.314 . S
N457 C459 1.279 . S
C458 C459 1.358 . S
C458 C460 1.356 . S
C458 H512 0.930 . S
C459 N457 1.279 . S
C459 C458 1.358 . S
C459 H463 0.930 . S
C460 C458 1.356 . S
C460 C461 1.348 . S
C461 C456 1.353 . S
C461 C460 1.348 . S
C461 H513 0.929 . S
H462 C456 0.930 . S
H463 C459 0.930 . S
C464 N465 1.314 . S
C464 C466 1.353 . S
C464 H470 0.930 . S
N465 Li441 1.990 . S
N465 C464 1.314 . S
N465 C468 1.279 . S
C466 C464 1.353 . S
C466 C469 1.348 . S
C466 H514 0.929 . S
C467 C468 1.358 . S
C467 C469 1.356 . S
C467 H515 0.930 . S
C468 N465 1.279 . S
C468 C467 1.358 . S
C468 H471 0.930 . S
C469 C466 1.348 . S
C469 C467 1.356 . S
H470 C464 0.930 . S
H471 C468 0.930 . S
C472 C474 1.348 . S
C472 C475 1.356 . S
C472 O502 1.325 . S
N473 C476 1.314 . S
N473 C477 1.279 . S
C474 C472 1.348 . S
C474 C476 1.353 . S
C474 H516 0.929 . S
C475 C472 1.356 . S
C475 C477 1.358 . S
C475 H517 0.930 . S
C476 N473 1.314 . S
C476 C474 1.353 . S
C476 H518 0.930 . S
C477 N473 1.279 . S
C477 C475 1.358 . S
C477 H519 0.930 . S
C478 C479 1.348 . S
C478 C480 1.356 . S
C478 O503 1.325 . S
C479 C478 1.348 . S
C479 C481 1.353 . S
C479 H520 0.929 . S
C480 C478 1.356 . S
C480 C482 1.358 . S
C480 H521 0.930 . S
C481 C479 1.353 . S
C481 N483 1.314 . S
C481 H522 0.930 . S
C482 C480 1.358 . S
C482 N483 1.279 . S
C482 H523 0.930 . S
N483 C481 1.314 . S
N483 C482 1.279 . S
C484 C486 1.353 . S
C484 N487 1.314 . S
C484 H490 0.930 . S
C485 N487 1.279 . S
C485 C488 1.358 . S
C485 H491 0.930 . S
C486 C484 1.353 . S
C486 C489 1.348 . S
C486 H524 0.929 . S
N487 Li442 1.990 . S
N487 C484 1.314 . S
N487 C485 1.279 . S
C488 C485 1.358 . S
C488 C489 1.356 . S
C488 H525 0.930 . S
C489 C486 1.348 . S
C489 C488 1.356 . S
H490 C484 0.930 . S
H491 C485 0.930 . S
C492 N493 1.314 . S
C492 C494 1.353 . S
C492 H498 0.930 . S
N493 Li443 1.990 . S
N493 C492 1.314 . S
N493 C496 1.279 . S
C494 C492 1.353 . S
C494 C497 1.348 . S
C494 H526 0.929 . S
C495 C496 1.358 . S
C495 C497 1.356 . S
C495 H527 0.930 . S
C496 N493 1.279 . S
C496 C495 1.358 . S
C496 H499 0.930 . S
C497 C494 1.348 . S
C497 C495 1.356 . S
H498 C492 0.930 . S
H499 C496 0.930 . S
O500 Li440 1.956 . S
O500 Li441 1.970 . S
O500 Li442 1.961 . S
O500 C444 1.325 . S
O501 Li440 1.970 . S
O501 Li441 1.956 . S
O501 Li443 1.961 . S
O501 C450 1.325 . S
O502 Li440 1.961 . S
O502 Li442 1.956 . S
O502 Li443 1.970 . S
O502 C472 1.325 . S
O503 Li441 1.961 . S
O503 Li442 1.970 . S
O503 Li443 1.956 . S
O503 C478 1.325 . S
H504 C446 0.929 . S
H505 C447 0.930 . S
H506 C448 0.930 . S
H507 C449 0.930 . S
H508 C451 0.930 . S
H509 C453 0.929 . S
H510 C454 0.930 . S
H511 C455 0.930 . S
H512 C458 0.930 . S
H513 C461 0.929 . S
H514 C466 0.929 . S
H515 C467 0.930 . S
H516 C474 0.929 . S
H517 C475 0.930 . S
H518 C476 0.930 . S
H519 C477 0.930 . S
H520 C479 0.929 . S
H521 C480 0.930 . S
H522 C481 0.930 . S
H523 C482 0.930 . S
H524 C486 0.929 . S
H525 C488 0.930 . S
H526 C494 0.929 . S
H527 C495 0.930 . S
Li528 N545 1.990 . S
Li528 O588 1.956 . S
Li528 O589 1.970 . S
Li528 O590 1.961 . S
Li529 N553 1.990 . S
Li529 O588 1.970 . S
Li529 O589 1.956 . S
Li529 O591 1.961 . S
Li530 N575 1.990 . S
Li530 O588 1.961 . S
Li530 O590 1.956 . S
Li530 O591 1.970 . S
Li531 N581 1.990 . S
Li531 O589 1.961 . S
Li531 O590 1.970 . S
Li531 O591 1.956 . S
C532 C534 1.348 . S
C532 C535 1.356 . S
C532 O588 1.325 . S
N533 C536 1.314 . S
N533 C537 1.279 . S
C534 C532 1.348 . S
C534 C536 1.353 . S
C534 H592 0.929 . S
C535 C532 1.356 . S
C535 C537 1.358 . S
C535 H593 0.930 . S
C536 N533 1.314 . S
C536 C534 1.353 . S
C536 H594 0.930 . S
C537 N533 1.279 . S
C537 C535 1.358 . S
C537 H595 0.930 . S
C538 C541 1.348 . S
C538 C542 1.356 . S
C538 O589 1.325 . S
C539 N540 1.279 . S
C539 C542 1.358 . S
C539 H596 0.930 . S
N540 C539 1.279 . S
N540 C543 1.314 . S
C541 C538 1.348 . S
C541 C543 1.353 . S
C541 H597 0.929 . S
C542 C538 1.356 . S
C542 C539 1.358 . S
C542 H598 0.930 . S
C543 N540 1.314 . S
C543 C541 1.353 . S
C543 H599 0.930 . S
C544 N545 1.314 . S
C544 C549 1.353 . S
C544 H550 0.930 . S
N545 Li528 1.990 . S
N545 C544 1.314 . S
N545 C547 1.279 . S
C546 C547 1.358 . S
C546 C548 1.356 . S
C546 H600 0.930 . S
C547 N545 1.279 . S
C547 C546 1.358 . S
C547 H551 0.930 . S
C548 C546 1.356 . S
C548 C549 1.348 . S
C549 C544 1.353 . S
C549 C548 1.348 . S
C549 H601 0.929 . S
H550 C544 0.930 . S
H551 C547 0.930 . S
C552 N553 1.314 . S
C552 C554 1.353 . S
C552 H558 0.930 1_545 S
N553 Li529 1.990 . S
N553 C552 1.314 . S
N553 C556 1.279 . S
C554 C552 1.353 . S
C554 C557 1.348 . S
C554 H602 0.929 1_545 S
C555 C556 1.358 . S
C555 C557 1.356 . S
C555 H603 0.930 . S
C556 N553 1.279 . S
C556 C555 1.358 . S
C556 H559 0.930 . S
C557 C554 1.348 . S
C557 C555 1.356 . S
H558 C552 0.930 1_565 S
H559 C556 0.930 . S
C560 C562 1.348 . S
C560 C563 1.356 . S
C560 O590 1.325 . S
N561 C564 1.314 . S
N561 C565 1.279 . S
C562 C560 1.348 . S
C562 C564 1.353 . S
C562 H604 0.929 . S
C563 C560 1.356 . S
C563 C565 1.358 . S
C563 H605 0.930 . S
C564 N561 1.314 . S
C564 C562 1.353 . S
C564 H606 0.930 . S
C565 N561 1.279 . S
C565 C563 1.358 . S
C565 H607 0.930 . S
C566 C567 1.348 . S
C566 C568 1.356 . S
C566 O591 1.325 1_565 S
C567 C566 1.348 . S
C567 C569 1.353 . S
C567 H608 0.929 . S
C568 C566 1.356 . S
C568 C570 1.358 . S
C568 H609 0.930 . S
C569 C567 1.353 . S
C569 N571 1.314 . S
C569 H610 0.930 . S
C570 C568 1.358 . S
C570 N571 1.279 . S
C570 H611 0.930 . S
N571 C569 1.314 . S
N571 C570 1.279 . S
C572 C574 1.354 . S
C572 N575 1.314 1_565 S
C572 H578 0.929 1_565 S
C573 N575 1.279 . S
C573 C576 1.358 1_545 S
C573 H579 0.930 . S
C574 C572 1.354 . S
C574 C577 1.348 . S
C574 H612 0.929 . S
N575 Li530 1.990 . S
N575 C572 1.314 1_545 S
N575 C573 1.279 . S
C576 C573 1.358 1_565 S
C576 C577 1.356 . S
C576 H613 0.930 . S
C577 C574 1.348 . S
C577 C576 1.356 . S
H578 C572 0.929 1_545 S
H579 C573 0.930 . S
C580 N581 1.314 . S
C580 C582 1.353 . S
C580 H586 0.930 . S
N581 Li531 1.990 . S
N581 C580 1.314 . S
N581 C584 1.279 1_545 S
C582 C580 1.353 . S
C582 C585 1.348 1_545 S
C582 H614 0.929 . S
C583 C584 1.358 . S
C583 C585 1.356 . S
C583 H615 0.930 . S
C584 N581 1.279 1_565 S
C584 C583 1.358 . S
C584 H587 0.930 . S
C585 C582 1.348 1_565 S
C585 C583 1.356 . S
H586 C580 0.930 . S
H587 C584 0.930 . S
O588 Li528 1.956 . S
O588 Li529 1.970 . S
O588 Li530 1.961 . S
O588 C532 1.325 . S
O589 Li528 1.970 . S
O589 Li529 1.956 . S
O589 Li531 1.961 . S
O589 C538 1.325 . S
O590 Li528 1.961 . S
O590 Li530 1.956 . S
O590 Li531 1.970 . S
O590 C560 1.325 . S
O591 Li529 1.961 . S
O591 Li530 1.970 . S
O591 Li531 1.956 . S
O591 C566 1.325 1_545 S
H592 C534 0.929 . S
H593 C535 0.930 . S
H594 C536 0.930 . S
H595 C537 0.930 . S
H596 C539 0.930 . S
H597 C541 0.929 . S
H598 C542 0.930 . S
H599 C543 0.930 . S
H600 C546 0.930 . S
H601 C549 0.929 . S
H602 C554 0.929 1_565 S
H603 C555 0.930 . S
H604 C562 0.929 . S
H605 C563 0.930 . S
H606 C564 0.930 . S
H607 C565 0.930 . S
H608 C567 0.929 . S
H609 C568 0.930 . S
H610 C569 0.930 . S
H611 C570 0.930 . S
H612 C574 0.929 . S
H613 C576 0.930 . S
H614 C582 0.929 . S
H615 C583 0.930 . S
Li616 N633 1.990 . S
Li616 O676 1.956 . S
Li616 O677 1.970 . S
Li616 O678 1.961 . S
Li617 N641 1.990 . S
Li617 O676 1.970 . S
Li617 O677 1.956 . S
Li617 O679 1.961 . S
Li618 N663 1.990 . S
Li618 O676 1.961 . S
Li618 O678 1.956 . S
Li618 O679 1.970 . S
Li619 N669 1.990 . S
Li619 O677 1.961 . S
Li619 O678 1.970 . S
Li619 O679 1.956 . S
C620 C622 1.348 . S
C620 C623 1.356 . S
C620 O676 1.325 . S
N621 C624 1.314 . S
N621 C625 1.279 . S
C622 C620 1.348 . S
C622 C624 1.353 . S
C622 H680 0.929 . S
C623 C620 1.356 . S
C623 C625 1.358 . S
C623 H681 0.930 . S
C624 N621 1.314 . S
C624 C622 1.353 . S
C624 H682 0.930 . S
C625 N621 1.279 . S
C625 C623 1.358 . S
C625 H683 0.930 . S
C626 C629 1.348 . S
C626 C630 1.356 . S
C626 O677 1.325 . S
C627 N628 1.279 . S
C627 C630 1.358 . S
C627 H684 0.930 . S
N628 C627 1.279 . S
N628 C631 1.314 . S
C629 C626 1.348 . S
C629 C631 1.353 . S
C629 H685 0.929 . S
C630 C626 1.356 . S
C630 C627 1.358 . S
C630 H686 0.930 . S
C631 N628 1.314 . S
C631 C629 1.353 . S
C631 H687 0.930 . S
C632 N633 1.314 . S
C632 C637 1.353 . S
C632 H638 0.930 . S
N633 Li616 1.990 . S
N633 C632 1.314 . S
N633 C635 1.279 . S
C634 C635 1.358 . S
C634 C636 1.356 . S
C634 H688 0.930 . S
C635 N633 1.279 . S
C635 C634 1.358 . S
C635 H639 0.930 . S
C636 C634 1.356 . S
C636 C637 1.348 . S
C637 C632 1.353 . S
C637 C636 1.348 . S
C637 H689 0.929 . S
H638 C632 0.930 . S
H639 C635 0.930 . S
C640 N641 1.314 . S
C640 C642 1.353 . S
C640 H646 0.930 . S
N641 Li617 1.990 . S
N641 C640 1.314 . S
N641 C644 1.279 . S
C642 C640 1.353 . S
C642 C645 1.348 . S
C642 H690 0.929 . S
C643 C644 1.358 . S
C643 C645 1.356 . S
C643 H691 0.930 . S
C644 N641 1.279 . S
C644 C643 1.358 . S
C644 H647 0.930 . S
C645 C642 1.348 . S
C645 C643 1.356 . S
H646 C640 0.930 . S
H647 C644 0.930 . S
C648 C650 1.348 . S
C648 C651 1.356 . S
C648 O678 1.325 . S
N649 C652 1.314 . S
N649 C653 1.279 . S
C650 C648 1.348 . S
C650 C652 1.353 . S
C650 H692 0.929 . S
C651 C648 1.356 . S
C651 C653 1.358 . S
C651 H693 0.930 . S
C652 N649 1.314 . S
C652 C650 1.353 . S
C652 H694 0.930 . S
C653 N649 1.279 . S
C653 C651 1.358 . S
C653 H695 0.930 . S
C654 C655 1.348 . S
C654 C656 1.356 . S
C654 O679 1.325 . S
C655 C654 1.348 . S
C655 C657 1.353 . S
C655 H696 0.929 . S
C656 C654 1.356 . S
C656 C658 1.358 . S
C656 H697 0.930 . S
C657 C655 1.353 . S
C657 N659 1.314 . S
C657 H698 0.930 . S
C658 C656 1.358 . S
C658 N659 1.279 . S
C658 H699 0.930 . S
N659 C657 1.314 . S
N659 C658 1.279 . S
C660 C662 1.353 . S
C660 N663 1.314 . S
C660 H666 0.930 . S
C661 N663 1.279 . S
C661 C664 1.358 . S
C661 H667 0.930 . S
C662 C660 1.353 . S
C662 C665 1.348 . S
C662 H700 0.929 . S
N663 Li618 1.990 . S
N663 C660 1.314 . S
N663 C661 1.279 . S
C664 C661 1.358 . S
C664 C665 1.356 . S
C664 H701 0.930 . S
C665 C662 1.348 . S
C665 C664 1.356 . S
H666 C660 0.930 . S
H667 C661 0.930 . S
C668 N669 1.314 . S
C668 C670 1.353 . S
C668 H674 0.930 . S
N669 Li619 1.990 . S
N669 C668 1.314 . S
N669 C672 1.279 . S
C670 C668 1.353 . S
C670 C673 1.348 . S
C670 H702 0.929 . S
C671 C672 1.358 . S
C671 C673 1.356 . S
C671 H703 0.930 . S
C672 N669 1.279 . S
C672 C671 1.358 . S
C672 H675 0.930 . S
C673 C670 1.348 . S
C673 C671 1.356 . S
H674 C668 0.930 . S
H675 C672 0.930 . S
O676 Li616 1.956 . S
O676 Li617 1.970 . S
O676 Li618 1.961 . S
O676 C620 1.325 . S
O677 Li616 1.970 . S
O677 Li617 1.956 . S
O677 Li619 1.961 . S
O677 C626 1.325 . S
O678 Li616 1.961 . S
O678 Li618 1.956 . S
O678 Li619 1.970 . S
O678 C648 1.325 . S
O679 Li617 1.961 . S
O679 Li618 1.970 . S
O679 Li619 1.956 . S
O679 C654 1.325 . S
H680 C622 0.929 . S
H681 C623 0.930 . S
H682 C624 0.930 . S
H683 C625 0.930 . S
H684 C627 0.930 . S
H685 C629 0.929 . S
H686 C630 0.930 . S
H687 C631 0.930 . S
H688 C634 0.930 . S
H689 C637 0.929 . S
H690 C642 0.929 . S
H691 C643 0.930 . S
H692 C650 0.929 . S
H693 C651 0.930 . S
H694 C652 0.930 . S
H695 C653 0.930 . S
H696 C655 0.929 . S
H697 C656 0.930 . S
H698 C657 0.930 . S
H699 C658 0.930 . S
H700 C662 0.929 . S
H701 C664 0.930 . S
H702 C670 0.929 . S
H703 C671 0.930 . S
Li704 N721 1.990 . S
Li704 O764 1.956 . S
Li704 O765 1.970 . S
Li704 O766 1.961 . S
Li705 N729 1.990 . S
Li705 O764 1.970 . S
Li705 O765 1.956 . S
Li705 O767 1.961 . S
Li706 N751 1.990 . S
Li706 O764 1.961 . S
Li706 O766 1.956 . S
Li706 O767 1.970 . S
Li707 N757 1.990 . S
Li707 O765 1.961 . S
Li707 O766 1.970 . S
Li707 O767 1.956 . S
C708 C710 1.348 . S
C708 C711 1.356 . S
C708 O764 1.325 . S
N709 C712 1.314 . S
N709 C713 1.279 . S
C710 C708 1.348 . S
C710 C712 1.353 . S
C710 H768 0.929 . S
C711 C708 1.356 . S
C711 C713 1.358 . S
C711 H769 0.930 . S
C712 N709 1.314 . S
C712 C710 1.353 . S
C712 H770 0.930 . S
C713 N709 1.279 . S
C713 C711 1.358 . S
C713 H771 0.930 . S
C714 C717 1.348 . S
C714 C718 1.356 . S
C714 O765 1.325 . S
C715 N716 1.279 . S
C715 C718 1.358 . S
C715 H772 0.930 . S
N716 C715 1.279 . S
N716 C719 1.314 . S
C717 C714 1.348 . S
C717 C719 1.353 . S
C717 H773 0.929 . S
C718 C714 1.356 . S
C718 C715 1.358 . S
C718 H774 0.930 . S
C719 N716 1.314 . S
C719 C717 1.353 . S
C719 H775 0.930 . S
C720 N721 1.314 . S
C720 C725 1.353 . S
C720 H726 0.930 . S
N721 Li704 1.990 . S
N721 C720 1.314 . S
N721 C723 1.279 . S
C722 C723 1.358 . S
C722 C724 1.356 . S
C722 H776 0.930 . S
C723 N721 1.279 . S
C723 C722 1.358 . S
C723 H727 0.930 . S
C724 C722 1.356 . S
C724 C725 1.348 . S
C725 C720 1.353 . S
C725 C724 1.348 . S
C725 H777 0.929 . S
H726 C720 0.930 . S
H727 C723 0.930 . S
C728 N729 1.314 . S
C728 C730 1.353 . S
C728 H734 0.930 . S
N729 Li705 1.990 . S
N729 C728 1.314 . S
N729 C732 1.279 . S
C730 C728 1.353 . S
C730 C733 1.348 . S
C730 H778 0.929 . S
C731 C732 1.358 . S
C731 C733 1.356 . S
C731 H779 0.930 . S
C732 N729 1.279 . S
C732 C731 1.358 . S
C732 H735 0.930 . S
C733 C730 1.348 . S
C733 C731 1.356 . S
H734 C728 0.930 . S
H735 C732 0.930 . S
C736 C738 1.348 . S
C736 C739 1.356 . S
C736 O766 1.325 . S
N737 C740 1.314 . S
N737 C741 1.279 . S
C738 C736 1.348 . S
C738 C740 1.353 . S
C738 H780 0.929 . S
C739 C736 1.356 . S
C739 C741 1.358 . S
C739 H781 0.930 . S
C740 N737 1.314 . S
C740 C738 1.353 . S
C740 H782 0.930 . S
C741 N737 1.279 . S
C741 C739 1.358 . S
C741 H783 0.930 . S
C742 C743 1.348 . S
C742 C744 1.356 . S
C742 O767 1.325 . S
C743 C742 1.348 . S
C743 C745 1.353 . S
C743 H784 0.929 . S
C744 C742 1.356 . S
C744 C746 1.358 . S
C744 H785 0.930 . S
C745 C743 1.353 . S
C745 N747 1.314 . S
C745 H786 0.930 . S
C746 C744 1.358 . S
C746 N747 1.279 . S
C746 H787 0.930 . S
N747 C745 1.314 . S
N747 C746 1.279 . S
C748 C750 1.353 . S
C748 N751 1.314 . S
C748 H754 0.930 . S
C749 N751 1.279 . S
C749 C752 1.358 . S
C749 H755 0.930 . S
C750 C748 1.353 . S
C750 C753 1.348 . S
C750 H788 0.929 . S
N751 Li706 1.990 . S
N751 C748 1.314 . S
N751 C749 1.279 . S
C752 C749 1.358 . S
C752 C753 1.356 . S
C752 H789 0.930 . S
C753 C750 1.348 . S
C753 C752 1.356 . S
H754 C748 0.930 . S
H755 C749 0.930 . S
C756 N757 1.314 . S
C756 C758 1.353 . S
C756 H762 0.930 . S
N757 Li707 1.990 . S
N757 C756 1.314 . S
N757 C760 1.279 . S
C758 C756 1.353 . S
C758 C761 1.348 . S
C758 H790 0.929 . S
C759 C760 1.358 . S
C759 C761 1.356 . S
C759 H791 0.930 . S
C760 N757 1.279 . S
C760 C759 1.358 . S
C760 H763 0.930 . S
C761 C758 1.348 . S
C761 C759 1.356 . S
H762 C756 0.930 . S
H763 C760 0.930 . S
O764 Li704 1.956 . S
O764 Li705 1.970 . S
O764 Li706 1.961 . S
O764 C708 1.325 . S
O765 Li704 1.970 . S
O765 Li705 1.956 . S
O765 Li707 1.961 . S
O765 C714 1.325 . S
O766 Li704 1.961 . S
O766 Li706 1.956 . S
O766 Li707 1.970 . S
O766 C736 1.325 . S
O767 Li705 1.961 . S
O767 Li706 1.970 . S
O767 Li707 1.956 . S
O767 C742 1.325 . S
H768 C710 0.929 . S
H769 C711 0.930 . S
H770 C712 0.930 . S
H771 C713 0.930 . S
H772 C715 0.930 . S
H773 C717 0.929 . S
H774 C718 0.930 . S
H775 C719 0.930 . S
H776 C722 0.930 . S
H777 C725 0.929 . S
H778 C730 0.929 . S
H779 C731 0.930 . S
H780 C738 0.929 . S
H781 C739 0.930 . S
H782 C740 0.930 . S
H783 C741 0.930 . S
H784 C743 0.929 . S
H785 C744 0.930 . S
H786 C745 0.930 . S
H787 C746 0.930 . S
H788 C750 0.929 . S
H789 C752 0.930 . S
H790 C758 0.929 . S
H791 C759 0.930 . S
Li792 N809 1.990 . S
Li792 O852 1.956 . S
Li792 O853 1.970 . S
Li792 O854 1.961 . S
Li793 N817 1.990 . S
Li793 O852 1.970 . S
Li793 O853 1.956 . S
Li793 O855 1.961 . S
Li794 N839 1.990 . S
Li794 O852 1.961 . S
Li794 O854 1.956 . S
Li794 O855 1.970 . S
Li795 N845 1.990 . S
Li795 O853 1.961 . S
Li795 O854 1.970 . S
Li795 O855 1.956 . S
C796 C798 1.348 . S
C796 C799 1.356 . S
C796 O852 1.325 . S
N797 C800 1.314 . S
N797 C801 1.279 . S
C798 C796 1.348 . S
C798 C800 1.353 . S
C798 H856 0.929 . S
C799 C796 1.356 . S
C799 C801 1.358 . S
C799 H857 0.930 . S
C800 N797 1.314 . S
C800 C798 1.353 . S
C800 H858 0.930 . S
C801 N797 1.279 . S
C801 C799 1.358 . S
C801 H859 0.930 . S
C802 C805 1.348 . S
C802 C806 1.356 . S
C802 O853 1.325 . S
C803 N804 1.279 . S
C803 C806 1.358 . S
C803 H860 0.930 . S
N804 C803 1.279 . S
N804 C807 1.314 . S
C805 C802 1.348 . S
C805 C807 1.353 . S
C805 H861 0.929 . S
C806 C802 1.356 . S
C806 C803 1.358 . S
C806 H862 0.930 . S
C807 N804 1.314 . S
C807 C805 1.353 . S
C807 H863 0.930 . S
C808 N809 1.314 . S
C808 C813 1.353 . S
C808 H814 0.930 . S
N809 Li792 1.990 . S
N809 C808 1.314 . S
N809 C811 1.279 . S
C810 C811 1.358 . S
C810 C812 1.356 . S
C810 H864 0.930 . S
C811 N809 1.279 . S
C811 C810 1.358 . S
C811 H815 0.930 . S
C812 C810 1.356 . S
C812 C813 1.348 . S
C813 C808 1.353 . S
C813 C812 1.348 . S
C813 H865 0.929 . S
H814 C808 0.930 . S
H815 C811 0.930 . S
C816 N817 1.314 . S
C816 C818 1.353 . S
C816 H822 0.930 . S
N817 Li793 1.990 . S
N817 C816 1.314 . S
N817 C820 1.279 . S
C818 C816 1.353 . S
C818 C821 1.348 . S
C818 H866 0.929 . S
C819 C820 1.358 . S
C819 C821 1.356 . S
C819 H867 0.930 . S
C820 N817 1.279 . S
C820 C819 1.358 . S
C820 H823 0.930 . S
C821 C818 1.348 . S
C821 C819 1.356 . S
H822 C816 0.930 . S
H823 C820 0.930 . S
C824 C826 1.348 . S
C824 C827 1.356 . S
C824 O854 1.325 . S
N825 C828 1.314 . S
N825 C829 1.279 . S
C826 C824 1.348 . S
C826 C828 1.353 . S
C826 H868 0.929 . S
C827 C824 1.356 . S
C827 C829 1.358 . S
C827 H869 0.930 . S
C828 N825 1.314 . S
C828 C826 1.353 . S
C828 H870 0.930 . S
C829 N825 1.279 . S
C829 C827 1.358 . S
C829 H871 0.930 . S
C830 C831 1.348 . S
C830 C832 1.356 . S
C830 O855 1.325 . S
C831 C830 1.348 . S
C831 C833 1.353 . S
C831 H872 0.929 . S
C832 C830 1.356 . S
C832 C834 1.358 . S
C832 H873 0.930 . S
C833 C831 1.353 . S
C833 N835 1.314 . S
C833 H874 0.930 . S
C834 C832 1.358 . S
C834 N835 1.279 . S
C834 H875 0.930 . S
N835 C833 1.314 . S
N835 C834 1.279 . S
C836 C838 1.353 . S
C836 N839 1.314 . S
C836 H842 0.930 . S
C837 N839 1.279 . S
C837 C840 1.358 . S
C837 H843 0.930 . S
C838 C836 1.353 . S
C838 C841 1.348 . S
C838 H876 0.929 . S
N839 Li794 1.990 . S
N839 C836 1.314 . S
N839 C837 1.279 . S
C840 C837 1.358 . S
C840 C841 1.356 . S
C840 H877 0.930 . S
C841 C838 1.348 . S
C841 C840 1.356 . S
H842 C836 0.930 . S
H843 C837 0.930 . S
C844 N845 1.314 . S
C844 C846 1.353 . S
C844 H850 0.930 . S
N845 Li795 1.990 . S
N845 C844 1.314 . S
N845 C848 1.279 . S
C846 C844 1.353 . S
C846 C849 1.348 . S
C846 H878 0.929 . S
C847 C848 1.358 . S
C847 C849 1.356 . S
C847 H879 0.930 . S
C848 N845 1.279 . S
C848 C847 1.358 . S
C848 H851 0.930 . S
C849 C846 1.348 . S
C849 C847 1.356 . S
H850 C844 0.930 . S
H851 C848 0.930 . S
O852 Li792 1.956 . S
O852 Li793 1.970 . S
O852 Li794 1.961 . S
O852 C796 1.325 . S
O853 Li792 1.970 . S
O853 Li793 1.956 . S
O853 Li795 1.961 . S
O853 C802 1.325 . S
O854 Li792 1.961 . S
O854 Li794 1.956 . S
O854 Li795 1.970 . S
O854 C824 1.325 . S
O855 Li793 1.961 . S
O855 Li794 1.970 . S
O855 Li795 1.956 . S
O855 C830 1.325 . S
H856 C798 0.929 . S
H857 C799 0.930 . S
H858 C800 0.930 . S
H859 C801 0.930 . S
H860 C803 0.930 . S
H861 C805 0.929 . S
H862 C806 0.930 . S
H863 C807 0.930 . S
H864 C810 0.930 . S
H865 C813 0.929 . S
H866 C818 0.929 . S
H867 C819 0.930 . S
H868 C826 0.929 . S
H869 C827 0.930 . S
H870 C828 0.930 . S
H871 C829 0.930 . S
H872 C831 0.929 . S
H873 C832 0.930 . S
H874 C833 0.930 . S
H875 C834 0.930 . S
H876 C838 0.929 . S
H877 C840 0.930 . S
H878 C846 0.929 . S
H879 C847 0.930 . S
Li880 N897 1.990 . S
Li880 O940 1.956 . S
Li880 O941 1.970 . S
Li880 O942 1.961 . S
Li881 N905 1.990 . S
Li881 O940 1.970 . S
Li881 O941 1.956 . S
Li881 O943 1.961 . S
Li882 N927 1.990 . S
Li882 O940 1.961 . S
Li882 O942 1.956 . S
Li882 O943 1.970 . S
Li883 N933 1.990 . S
Li883 O941 1.961 . S
Li883 O942 1.970 . S
Li883 O943 1.956 . S
C884 C886 1.348 . S
C884 C887 1.356 . S
C884 O940 1.325 . S
N885 C888 1.314 . S
N885 C889 1.279 . S
C886 C884 1.348 . S
C886 C888 1.353 . S
C886 H944 0.929 . S
C887 C884 1.356 . S
C887 C889 1.358 . S
C887 H945 0.930 . S
C888 N885 1.314 . S
C888 C886 1.353 . S
C888 H946 0.930 . S
C889 N885 1.279 . S
C889 C887 1.358 . S
C889 H947 0.930 . S
C890 C893 1.348 . S
C890 C894 1.356 . S
C890 O941 1.325 . S
C891 N892 1.279 . S
C891 C894 1.358 . S
C891 H948 0.930 . S
N892 C891 1.279 . S
N892 C895 1.314 . S
C893 C890 1.348 . S
C893 C895 1.353 . S
C893 H949 0.929 . S
C894 C890 1.356 . S
C894 C891 1.358 . S
C894 H950 0.930 . S
C895 N892 1.314 . S
C895 C893 1.353 . S
C895 H951 0.930 . S
C896 N897 1.314 . S
C896 C901 1.353 . S
C896 H902 0.930 . S
N897 Li880 1.990 . S
N897 C896 1.314 . S
N897 C899 1.279 . S
C898 C899 1.358 . S
C898 C900 1.356 . S
C898 H952 0.930 . S
C899 N897 1.279 . S
C899 C898 1.358 . S
C899 H903 0.930 . S
C900 C898 1.356 . S
C900 C901 1.348 . S
C901 C896 1.353 . S
C901 C900 1.348 . S
C901 H953 0.929 . S
H902 C896 0.930 . S
H903 C899 0.930 . S
C904 N905 1.314 . S
C904 C906 1.353 . S
C904 H910 0.930 . S
N905 Li881 1.990 . S
N905 C904 1.314 . S
N905 C908 1.279 . S
C906 C904 1.353 . S
C906 C909 1.348 . S
C906 H954 0.929 . S
C907 C908 1.358 . S
C907 C909 1.356 . S
C907 H955 0.930 . S
C908 N905 1.279 . S
C908 C907 1.358 . S
C908 H911 0.930 . S
C909 C906 1.348 . S
C909 C907 1.356 . S
H910 C904 0.930 . S
H911 C908 0.930 . S
C912 C914 1.348 . S
C912 C915 1.356 . S
C912 O942 1.325 . S
N913 C916 1.314 . S
N913 C917 1.279 . S
C914 C912 1.348 . S
C914 C916 1.353 . S
C914 H956 0.929 . S
C915 C912 1.356 . S
C915 C917 1.358 . S
C915 H957 0.930 . S
C916 N913 1.314 . S
C916 C914 1.353 . S
C916 H958 0.930 . S
C917 N913 1.279 . S
C917 C915 1.358 . S
C917 H959 0.930 . S
C918 C919 1.348 . S
C918 C920 1.356 . S
C918 O943 1.325 . S
C919 C918 1.348 . S
C919 C921 1.353 . S
C919 H960 0.929 . S
C920 C918 1.356 . S
C920 C922 1.358 . S
C920 H961 0.930 . S
C921 C919 1.353 . S
C921 N923 1.314 . S
C921 H962 0.930 . S
C922 C920 1.358 . S
C922 N923 1.279 . S
C922 H963 0.930 . S
N923 C921 1.314 . S
N923 C922 1.279 . S
C924 C926 1.353 . S
C924 N927 1.314 . S
C924 H930 0.930 . S
C925 N927 1.279 . S
C925 C928 1.358 . S
C925 H931 0.930 . S
C926 C924 1.353 . S
C926 C929 1.348 . S
C926 H964 0.929 . S
N927 Li882 1.990 . S
N927 C924 1.314 . S
N927 C925 1.279 . S
C928 C925 1.358 . S
C928 C929 1.356 . S
C928 H965 0.930 . S
C929 C926 1.348 . S
C929 C928 1.356 . S
H930 C924 0.930 . S
H931 C925 0.930 . S
C932 N933 1.314 . S
C932 C934 1.353 . S
C932 H938 0.930 . S
N933 Li883 1.990 . S
N933 C932 1.314 . S
N933 C936 1.279 . S
C934 C932 1.353 . S
C934 C937 1.348 . S
C934 H966 0.929 . S
C935 C936 1.358 . S
C935 C937 1.356 . S
C935 H967 0.930 . S
C936 N933 1.279 . S
C936 C935 1.358 . S
C936 H939 0.930 . S
C937 C934 1.348 . S
C937 C935 1.356 . S
H938 C932 0.930 . S
H939 C936 0.930 . S
O940 Li880 1.956 . S
O940 Li881 1.970 . S
O940 Li882 1.961 . S
O940 C884 1.325 . S
O941 Li880 1.970 . S
O941 Li881 1.956 . S
O941 Li883 1.961 . S
O941 C890 1.325 . S
O942 Li880 1.961 . S
O942 Li882 1.956 . S
O942 Li883 1.970 . S
O942 C912 1.325 . S
O943 Li881 1.961 . S
O943 Li882 1.970 . S
O943 Li883 1.956 . S
O943 C918 1.325 . S
H944 C886 0.929 . S
H945 C887 0.930 . S
H946 C888 0.930 . S
H947 C889 0.930 . S
H948 C891 0.930 . S
H949 C893 0.929 . S
H950 C894 0.930 . S
H951 C895 0.930 . S
H952 C898 0.930 . S
H953 C901 0.929 . S
H954 C906 0.929 . S
H955 C907 0.930 . S
H956 C914 0.929 . S
H957 C915 0.930 . S
H958 C916 0.930 . S
H959 C917 0.930 . S
H960 C919 0.929 . S
H961 C920 0.930 . S
H962 C921 0.930 . S
H963 C922 0.930 . S
H964 C926 0.929 . S
H965 C928 0.930 . S
H966 C934 0.929 . S
H967 C935 0.930 . S
Li968 N985 1.990 . S
Li968 O1028 1.956 . S
Li968 O1029 1.970 . S
Li968 O1030 1.961 . S
Li969 N993 1.990 . S
Li969 O1028 1.970 . S
Li969 O1029 1.956 . S
Li969 O1031 1.961 . S
Li970 N1015 1.990 . S
Li970 O1028 1.961 . S
Li970 O1030 1.956 . S
Li970 O1031 1.970 . S
Li971 N1021 1.990 . S
Li971 O1029 1.961 . S
Li971 O1030 1.970 . S
Li971 O1031 1.956 . S
C972 C974 1.348 . S
C972 C975 1.356 . S
C972 O1028 1.325 . S
N973 C976 1.314 . S
N973 C977 1.279 . S
C974 C972 1.348 . S
C974 C976 1.353 . S
C974 H1032 0.929 . S
C975 C972 1.356 . S
C975 C977 1.358 . S
C975 H1033 0.930 . S
C976 N973 1.314 . S
C976 C974 1.353 . S
C976 H1034 0.930 . S
C977 N973 1.279 . S
C977 C975 1.358 . S
C977 H1035 0.930 . S
C978 C981 1.348 . S
C978 C982 1.356 . S
C978 O1029 1.325 . S
C979 N980 1.279 . S
C979 C982 1.358 . S
C979 H1036 0.930 . S
N980 C979 1.279 . S
N980 C983 1.314 . S
C981 C978 1.348 . S
C981 C983 1.353 . S
C981 H1037 0.929 . S
C982 C978 1.356 . S
C982 C979 1.358 . S
C982 H1038 0.930 . S
C983 N980 1.314 . S
C983 C981 1.353 . S
C983 H1039 0.930 . S
C984 N985 1.314 . S
C984 C989 1.353 . S
C984 H990 0.930 . S
N985 Li968 1.990 . S
N985 C984 1.314 . S
N985 C987 1.279 . S
C986 C987 1.358 . S
C986 C988 1.356 . S
C986 H1040 0.930 . S
C987 N985 1.279 . S
C987 C986 1.358 . S
C987 H991 0.930 . S
C988 C986 1.356 . S
C988 C989 1.348 . S
C989 C984 1.353 . S
C989 C988 1.348 . S
C989 H1041 0.929 . S
H990 C984 0.930 . S
H991 C987 0.930 . S
C992 N993 1.314 . S
C992 C994 1.353 . S
C992 H998 0.930 . S
N993 Li969 1.990 . S
N993 C992 1.314 . S
N993 C996 1.279 . S
C994 C992 1.353 . S
C994 C997 1.348 . S
C994 H1042 0.929 . S
C995 C996 1.358 . S
C995 C997 1.356 . S
C995 H1043 0.930 . S
C996 N993 1.279 . S
C996 C995 1.358 . S
C996 H999 0.930 . S
C997 C994 1.348 . S
C997 C995 1.356 . S
H998 C992 0.930 . S
H999 C996 0.930 . S
C1000 C1002 1.348 . S
C1000 C1003 1.356 . S
C1000 O1030 1.325 . S
N1001 C1004 1.314 . S
N1001 C1005 1.279 . S
C1002 C1000 1.348 . S
C1002 C1004 1.353 . S
C1002 H1044 0.929 . S
C1003 C1000 1.356 . S
C1003 C1005 1.358 . S
C1003 H1045 0.930 . S
C1004 N1001 1.314 . S
C1004 C1002 1.353 . S
C1004 H1046 0.930 . S
C1005 N1001 1.279 . S
C1005 C1003 1.358 . S
C1005 H1047 0.930 . S
C1006 C1007 1.348 . S
C1006 C1008 1.356 . S
C1006 O1031 1.325 . S
C1007 C1006 1.348 . S
C1007 C1009 1.353 . S
C1007 H1048 0.929 . S
C1008 C1006 1.356 . S
C1008 C1010 1.358 . S
C1008 H1049 0.930 . S
C1009 C1007 1.353 . S
C1009 N1011 1.314 . S
C1009 H1050 0.930 . S
C1010 C1008 1.358 . S
C1010 N1011 1.279 . S
C1010 H1051 0.930 . S
N1011 C1009 1.314 . S
N1011 C1010 1.279 . S
C1012 C1014 1.353 . S
C1012 N1015 1.314 . S
C1012 H1018 0.930 . S
C1013 N1015 1.279 . S
C1013 C1016 1.358 . S
C1013 H1019 0.930 . S
C1014 C1012 1.353 . S
C1014 C1017 1.348 . S
C1014 H1052 0.929 . S
N1015 Li970 1.990 . S
N1015 C1012 1.314 . S
N1015 C1013 1.279 . S
C1016 C1013 1.358 . S
C1016 C1017 1.356 . S
C1016 H1053 0.930 . S
C1017 C1014 1.348 . S
C1017 C1016 1.356 . S
H1018 C1012 0.930 . S
H1019 C1013 0.930 . S
C1020 N1021 1.314 . S
C1020 C1022 1.353 . S
C1020 H1026 0.930 . S
N1021 Li971 1.990 . S
N1021 C1020 1.314 . S
N1021 C1024 1.279 . S
C1022 C1020 1.353 . S
C1022 C1025 1.348 . S
C1022 H1054 0.929 . S
C1023 C1024 1.358 . S
C1023 C1025 1.356 . S
C1023 H1055 0.930 . S
C1024 N1021 1.279 . S
C1024 C1023 1.358 . S
C1024 H1027 0.930 . S
C1025 C1022 1.348 . S
C1025 C1023 1.356 . S
H1026 C1020 0.930 . S
H1027 C1024 0.930 . S
O1028 Li968 1.956 . S
O1028 Li969 1.970 . S
O1028 Li970 1.961 . S
O1028 C972 1.325 . S
O1029 Li968 1.970 . S
O1029 Li969 1.956 . S
O1029 Li971 1.961 . S
O1029 C978 1.325 . S
O1030 Li968 1.961 . S
O1030 Li970 1.956 . S
O1030 Li971 1.970 . S
O1030 C1000 1.325 . S
O1031 Li969 1.961 . S
O1031 Li970 1.970 . S
O1031 Li971 1.956 . S
O1031 C1006 1.325 . S
H1032 C974 0.929 . S
H1033 C975 0.930 . S
H1034 C976 0.930 . S
H1035 C977 0.930 . S
H1036 C979 0.930 . S
H1037 C981 0.929 . S
H1038 C982 0.930 . S
H1039 C983 0.930 . S
H1040 C986 0.930 . S
H1041 C989 0.929 . S
H1042 C994 0.929 . S
H1043 C995 0.930 . S
H1044 C1002 0.929 . S
H1045 C1003 0.930 . S
H1046 C1004 0.930 . S
H1047 C1005 0.930 . S
H1048 C1007 0.929 . S
H1049 C1008 0.930 . S
H1050 C1009 0.930 . S
H1051 C1010 0.930 . S
H1052 C1014 0.929 . S
H1053 C1016 0.930 . S
H1054 C1022 0.929 . S
H1055 C1023 0.930 . S
Li1056 N1073 1.990 . S
Li1056 O1116 1.956 . S
Li1056 O1117 1.970 . S
Li1056 O1118 1.961 . S
Li1057 N1081 1.990 . S
Li1057 O1116 1.970 . S
Li1057 O1117 1.956 . S
Li1057 O1119 1.961 . S
Li1058 N1103 1.990 . S
Li1058 O1116 1.961 . S
Li1058 O1118 1.956 . S
Li1058 O1119 1.970 . S
Li1059 N1109 1.990 . S
Li1059 O1117 1.961 . S
Li1059 O1118 1.970 . S
Li1059 O1119 1.956 . S
C1060 C1062 1.348 . S
C1060 C1063 1.356 . S
C1060 O1116 1.325 . S
N1061 C1064 1.314 . S
N1061 C1065 1.279 . S
C1062 C1060 1.348 . S
C1062 C1064 1.353 . S
C1062 H1120 0.929 . S
C1063 C1060 1.356 . S
C1063 C1065 1.358 . S
C1063 H1121 0.930 . S
C1064 N1061 1.314 . S
C1064 C1062 1.353 . S
C1064 H1122 0.930 . S
C1065 N1061 1.279 . S
C1065 C1063 1.358 . S
C1065 H1123 0.930 . S
C1066 C1069 1.348 . S
C1066 C1070 1.356 . S
C1066 O1117 1.325 . S
C1067 N1068 1.279 . S
C1067 C1070 1.358 . S
C1067 H1124 0.930 . S
N1068 C1067 1.279 . S
N1068 C1071 1.314 . S
C1069 C1066 1.348 . S
C1069 C1071 1.353 . S
C1069 H1125 0.929 . S
C1070 C1066 1.356 . S
C1070 C1067 1.358 . S
C1070 H1126 0.930 . S
C1071 N1068 1.314 . S
C1071 C1069 1.353 . S
C1071 H1127 0.930 . S
C1072 N1073 1.314 . S
C1072 C1077 1.353 . S
C1072 H1078 0.930 . S
N1073 Li1056 1.990 . S
N1073 C1072 1.314 . S
N1073 C1075 1.279 . S
C1074 C1075 1.358 . S
C1074 C1076 1.356 . S
C1074 H1128 0.930 . S
C1075 N1073 1.279 . S
C1075 C1074 1.358 . S
C1075 H1079 0.930 . S
C1076 C1074 1.356 . S
C1076 C1077 1.348 . S
C1077 C1072 1.353 . S
C1077 C1076 1.348 . S
C1077 H1129 0.929 . S
H1078 C1072 0.930 . S
H1079 C1075 0.930 . S
C1080 N1081 1.314 . S
C1080 C1082 1.353 . S
C1080 H1086 0.930 . S
N1081 Li1057 1.990 . S
N1081 C1080 1.314 . S
N1081 C1084 1.279 . S
C1082 C1080 1.353 . S
C1082 C1085 1.348 . S
C1082 H1130 0.929 . S
C1083 C1084 1.358 . S
C1083 C1085 1.356 . S
C1083 H1131 0.930 . S
C1084 N1081 1.279 . S
C1084 C1083 1.358 . S
C1084 H1087 0.930 . S
C1085 C1082 1.348 . S
C1085 C1083 1.356 . S
H1086 C1080 0.930 . S
H1087 C1084 0.930 . S
C1088 C1090 1.348 . S
C1088 C1091 1.356 . S
C1088 O1118 1.325 . S
N1089 C1092 1.314 . S
N1089 C1093 1.279 . S
C1090 C1088 1.348 . S
C1090 C1092 1.353 . S
C1090 H1132 0.929 . S
C1091 C1088 1.356 . S
C1091 C1093 1.358 . S
C1091 H1133 0.930 . S
C1092 N1089 1.314 . S
C1092 C1090 1.353 . S
C1092 H1134 0.930 . S
C1093 N1089 1.279 . S
C1093 C1091 1.358 . S
C1093 H1135 0.930 . S
C1094 C1095 1.348 . S
C1094 C1096 1.356 . S
C1094 O1119 1.325 . S
C1095 C1094 1.348 . S
C1095 C1097 1.353 . S
C1095 H1136 0.929 . S
C1096 C1094 1.356 . S
C1096 C1098 1.358 . S
C1096 H1137 0.930 . S
C1097 C1095 1.353 . S
C1097 N1099 1.314 . S
C1097 H1138 0.930 . S
C1098 C1096 1.358 . S
C1098 N1099 1.279 . S
C1098 H1139 0.930 . S
N1099 C1097 1.314 . S
N1099 C1098 1.279 . S
C1100 C1102 1.353 . S
C1100 N1103 1.314 . S
C1100 H1106 0.930 . S
C1101 N1103 1.279 . S
C1101 C1104 1.358 . S
C1101 H1107 0.930 . S
C1102 C1100 1.353 . S
C1102 C1105 1.348 . S
C1102 H1140 0.929 . S
N1103 Li1058 1.990 . S
N1103 C1100 1.314 . S
N1103 C1101 1.279 . S
C1104 C1101 1.358 . S
C1104 C1105 1.356 . S
C1104 H1141 0.930 . S
C1105 C1102 1.348 . S
C1105 C1104 1.356 . S
H1106 C1100 0.930 . S
H1107 C1101 0.930 . S
C1108 N1109 1.314 . S
C1108 C1110 1.353 . S
C1108 H1114 0.930 . S
N1109 Li1059 1.990 . S
N1109 C1108 1.314 . S
N1109 C1112 1.279 . S
C1110 C1108 1.353 . S
C1110 C1113 1.348 . S
C1110 H1142 0.929 . S
C1111 C1112 1.358 . S
C1111 C1113 1.356 . S
C1111 H1143 0.930 . S
C1112 N1109 1.279 . S
C1112 C1111 1.358 . S
C1112 H1115 0.930 . S
C1113 C1110 1.348 . S
C1113 C1111 1.356 . S
H1114 C1108 0.930 . S
H1115 C1112 0.930 . S
O1116 Li1056 1.956 . S
O1116 Li1057 1.970 . S
O1116 Li1058 1.961 . S
O1116 C1060 1.325 . S
O1117 Li1056 1.970 . S
O1117 Li1057 1.956 . S
O1117 Li1059 1.961 . S
O1117 C1066 1.325 . S
O1118 Li1056 1.961 . S
O1118 Li1058 1.956 . S
O1118 Li1059 1.970 . S
O1118 C1088 1.325 . S
O1119 Li1057 1.961 . S
O1119 Li1058 1.970 . S
O1119 Li1059 1.956 . S
O1119 C1094 1.325 . S
H1120 C1062 0.929 . S
H1121 C1063 0.930 . S
H1122 C1064 0.930 . S
H1123 C1065 0.930 . S
H1124 C1067 0.930 . S
H1125 C1069 0.929 . S
H1126 C1070 0.930 . S
H1127 C1071 0.930 . S
H1128 C1074 0.930 . S
H1129 C1077 0.929 . S
H1130 C1082 0.929 . S
H1131 C1083 0.930 . S
H1132 C1090 0.929 . S
H1133 C1091 0.930 . S
H1134 C1092 0.930 . S
H1135 C1093 0.930 . S
H1136 C1095 0.929 . S
H1137 C1096 0.930 . S
H1138 C1097 0.930 . S
H1139 C1098 0.930 . S
H1140 C1102 0.929 . S
H1141 C1104 0.930 . S
H1142 C1110 0.929 . S
H1143 C1111 0.930 . S
Li1144 N1161 1.990 . S
Li1144 O1204 1.956 1_655 S
Li1144 O1205 1.970 1_655 S
Li1144 O1206 1.961 . S
Li1145 N1169 1.990 . S
Li1145 O1204 1.970 . S
Li1145 O1205 1.956 . S
Li1145 O1207 1.961 . S
Li1146 N1191 1.990 . S
Li1146 O1204 1.961 . S
Li1146 O1206 1.956 1_455 S
Li1146 O1207 1.970 . S
Li1147 N1197 1.990 . S
Li1147 O1205 1.961 . S
Li1147 O1206 1.970 1_455 S
Li1147 O1207 1.956 . S
C1148 C1150 1.348 . S
C1148 C1151 1.356 1_455 S
C1148 O1204 1.325 . S
N1149 C1152 1.314 . S
N1149 C1153 1.279 1_455 S
C1150 C1148 1.348 . S
C1150 C1152 1.353 . S
C1150 H1208 0.929 . S
C1151 C1148 1.356 1_655 S
C1151 C1153 1.358 . S
C1151 H1209 0.930 . S
C1152 N1149 1.314 . S
C1152 C1150 1.353 . S
C1152 H1210 0.930 . S
C1153 N1149 1.279 1_655 S
C1153 C1151 1.358 . S
C1153 H1211 0.930 . S
C1154 C1157 1.348 1_455 S
C1154 C1158 1.356 . S
C1154 O1205 1.325 . S
C1155 N1156 1.279 . S
C1155 C1158 1.358 . S
C1155 H1212 0.930 . S
N1156 C1155 1.279 . S
N1156 C1159 1.314 1_455 S
C1157 C1154 1.348 1_655 S
C1157 C1159 1.353 . S
C1157 H1213 0.929 . S
C1158 C1154 1.356 . S
C1158 C1155 1.358 . S
C1158 H1214 0.930 . S
C1159 N1156 1.314 1_655 S
C1159 C1157 1.353 . S
C1159 H1215 0.930 . S
C1160 N1161 1.314 . S
C1160 C1165 1.353 . S
C1160 H1166 0.930 . S
N1161 Li1144 1.990 . S
N1161 C1160 1.314 . S
N1161 C1163 1.279 . S
C1162 C1163 1.358 . S
C1162 C1164 1.356 . S
C1162 H1216 0.930 . S
C1163 N1161 1.279 . S
C1163 C1162 1.358 . S
C1163 H1167 0.930 . S
C1164 C1162 1.356 . S
C1164 C1165 1.348 . S
C1165 C1160 1.353 . S
C1165 C1164 1.348 . S
C1165 H1217 0.929 . S
H1166 C1160 0.930 . S
H1167 C1163 0.930 . S
C1168 N1169 1.314 . S
C1168 C1170 1.353 . S
C1168 H1174 0.930 . S
N1169 Li1145 1.990 . S
N1169 C1168 1.314 . S
N1169 C1172 1.279 . S
C1170 C1168 1.353 . S
C1170 C1173 1.348 . S
C1170 H1218 0.929 . S
C1171 C1172 1.358 . S
C1171 C1173 1.356 . S
C1171 H1219 0.930 . S
C1172 N1169 1.279 . S
C1172 C1171 1.358 . S
C1172 H1175 0.930 . S
C1173 C1170 1.348 . S
C1173 C1171 1.356 . S
H1174 C1168 0.930 . S
H1175 C1172 0.930 . S
C1176 C1178 1.348 . S
C1176 C1179 1.356 . S
C1176 O1206 1.325 . S
N1177 C1180 1.314 . S
N1177 C1181 1.279 . S
C1178 C1176 1.348 . S
C1178 C1180 1.353 . S
C1178 H1220 0.929 . S
C1179 C1176 1.356 . S
C1179 C1181 1.358 . S
C1179 H1221 0.930 . S
C1180 N1177 1.314 . S
C1180 C1178 1.353 . S
C1180 H1222 0.930 . S
C1181 N1177 1.279 . S
C1181 C1179 1.358 . S
C1181 H1223 0.930 . S
C1182 C1183 1.348 . S
C1182 C1184 1.356 . S
C1182 O1207 1.325 . S
C1183 C1182 1.348 . S
C1183 C1185 1.353 . S
C1183 H1224 0.929 . S
C1184 C1182 1.356 . S
C1184 C1186 1.358 . S
C1184 H1225 0.930 . S
C1185 C1183 1.353 . S
C1185 N1187 1.314 . S
C1185 H1226 0.930 . S
C1186 C1184 1.358 . S
C1186 N1187 1.279 . S
C1186 H1227 0.930 . S
N1187 C1185 1.314 . S
N1187 C1186 1.279 . S
C1188 C1190 1.353 . S
C1188 N1191 1.314 . S
C1188 H1194 0.930 . S
C1189 N1191 1.279 1_655 S
C1189 C1192 1.358 . S
C1189 H1195 0.930 . S
C1190 C1188 1.353 . S
C1190 C1193 1.348 . S
C1190 H1228 0.929 . S
N1191 Li1146 1.990 . S
N1191 C1188 1.314 . S
N1191 C1189 1.279 1_455 S
C1192 C1189 1.358 . S
C1192 C1193 1.356 1_655 S
C1192 H1229 0.930 . S
C1193 C1190 1.348 . S
C1193 C1192 1.356 1_455 S
H1194 C1188 0.930 . S
H1195 C1189 0.930 . S
C1196 N1197 1.292 1_655 S
C1196 C1198 1.356 . S
C1196 H1202 0.952 . S
N1197 Li1147 1.990 . S
N1197 C1196 1.292 1_455 S
N1197 C1200 1.279 . S
C1198 C1196 1.356 . S
C1198 C1201 1.348 1_655 S
C1198 H1230 0.929 . S
C1199 C1200 1.358 . S
C1199 C1201 1.356 . S
C1199 H1231 0.930 . S
C1200 N1197 1.279 . S
C1200 C1199 1.358 . S
C1200 H1203 0.930 . S
C1201 C1198 1.348 1_455 S
C1201 C1199 1.356 . S
H1202 C1196 0.952 . S
H1203 C1200 0.930 . S
O1204 Li1144 1.956 1_455 S
O1204 Li1145 1.970 . S
O1204 Li1146 1.961 . S
O1204 C1148 1.325 . S
O1205 Li1144 1.970 1_455 S
O1205 Li1145 1.956 . S
O1205 Li1147 1.961 . S
O1205 C1154 1.325 . S
O1206 Li1144 1.961 . S
O1206 Li1146 1.956 1_655 S
O1206 Li1147 1.970 1_655 S
O1206 C1176 1.325 . S
O1207 Li1145 1.961 . S
O1207 Li1146 1.970 . S
O1207 Li1147 1.956 . S
O1207 C1182 1.325 . S
H1208 C1150 0.929 . S
H1209 C1151 0.930 . S
H1210 C1152 0.930 . S
H1211 C1153 0.930 . S
H1212 C1155 0.930 . S
H1213 C1157 0.929 . S
H1214 C1158 0.930 . S
H1215 C1159 0.930 . S
H1216 C1162 0.930 . S
H1217 C1165 0.929 . S
H1218 C1170 0.929 . S
H1219 C1171 0.930 . S
H1220 C1178 0.929 . S
H1221 C1179 0.930 . S
H1222 C1180 0.930 . S
H1223 C1181 0.930 . S
H1224 C1183 0.929 . S
H1225 C1184 0.930 . S
H1226 C1185 0.930 . S
H1227 C1186 0.930 . S
H1228 C1190 0.929 . S
H1229 C1192 0.930 . S
H1230 C1198 0.929 . S
H1231 C1199 0.930 . S
Li1232 N1249 1.990 . S
Li1232 O1292 1.956 . S
Li1232 O1293 1.970 . S
Li1232 O1294 1.961 . S
Li1233 N1257 1.990 . S
Li1233 O1292 1.970 . S
Li1233 O1293 1.956 . S
Li1233 O1295 1.961 . S
Li1234 N1279 1.990 . S
Li1234 O1292 1.961 . S
Li1234 O1294 1.956 . S
Li1234 O1295 1.970 . S
Li1235 N1285 1.990 . S
Li1235 O1293 1.961 . S
Li1235 O1294 1.970 . S
Li1235 O1295 1.956 . S
C1236 C1238 1.348 . S
C1236 C1239 1.356 . S
C1236 O1292 1.325 . S
N1237 C1240 1.314 . S
N1237 C1241 1.279 . S
C1238 C1236 1.348 . S
C1238 C1240 1.353 . S
C1238 H1296 0.929 . S
C1239 C1236 1.356 . S
C1239 C1241 1.358 . S
C1239 H1297 0.930 . S
C1240 N1237 1.314 . S
C1240 C1238 1.353 . S
C1240 H1298 0.930 . S
C1241 N1237 1.279 . S
C1241 C1239 1.358 . S
C1241 H1299 0.930 . S
C1242 C1245 1.348 . S
C1242 C1246 1.356 . S
C1242 O1293 1.325 . S
C1243 N1244 1.279 . S
C1243 C1246 1.358 . S
C1243 H1300 0.930 . S
N1244 C1243 1.279 . S
N1244 C1247 1.314 . S
C1245 C1242 1.348 . S
C1245 C1247 1.353 . S
C1245 H1301 0.929 . S
C1246 C1242 1.356 . S
C1246 C1243 1.358 . S
C1246 H1302 0.930 . S
C1247 N1244 1.314 . S
C1247 C1245 1.353 . S
C1247 H1303 0.930 . S
C1248 N1249 1.314 . S
C1248 C1253 1.353 . S
C1248 H1254 0.930 . S
N1249 Li1232 1.990 . S
N1249 C1248 1.314 . S
N1249 C1251 1.279 . S
C1250 C1251 1.358 . S
C1250 C1252 1.356 . S
C1250 H1304 0.930 . S
C1251 N1249 1.279 . S
C1251 C1250 1.358 . S
C1251 H1255 0.930 . S
C1252 C1250 1.356 . S
C1252 C1253 1.348 . S
C1253 C1248 1.353 . S
C1253 C1252 1.348 . S
C1253 H1305 0.929 . S
H1254 C1248 0.930 . S
H1255 C1251 0.930 . S
C1256 N1257 1.314 . S
C1256 C1258 1.353 . S
C1256 H1262 0.930 . S
N1257 Li1233 1.990 . S
N1257 C1256 1.314 . S
N1257 C1260 1.279 . S
C1258 C1256 1.353 . S
C1258 C1261 1.348 . S
C1258 H1306 0.929 . S
C1259 C1260 1.358 . S
C1259 C1261 1.356 . S
C1259 H1307 0.930 . S
C1260 N1257 1.279 . S
C1260 C1259 1.358 . S
C1260 H1263 0.930 . S
C1261 C1258 1.348 . S
C1261 C1259 1.356 . S
H1262 C1256 0.930 . S
H1263 C1260 0.930 . S
C1264 C1266 1.348 . S
C1264 C1267 1.356 . S
C1264 O1294 1.325 . S
N1265 C1268 1.314 . S
N1265 C1269 1.279 . S
C1266 C1264 1.348 . S
C1266 C1268 1.353 . S
C1266 H1308 0.929 . S
C1267 C1264 1.356 . S
C1267 C1269 1.358 . S
C1267 H1309 0.930 . S
C1268 N1265 1.314 . S
C1268 C1266 1.353 . S
C1268 H1310 0.930 . S
C1269 N1265 1.279 . S
C1269 C1267 1.358 . S
C1269 H1311 0.930 . S
C1270 C1271 1.348 . S
C1270 C1272 1.356 . S
C1270 O1295 1.325 . S
C1271 C1270 1.348 . S
C1271 C1273 1.353 . S
C1271 H1312 0.929 . S
C1272 C1270 1.356 . S
C1272 C1274 1.358 . S
C1272 H1313 0.930 . S
C1273 C1271 1.353 . S
C1273 N1275 1.314 . S
C1273 H1314 0.930 . S
C1274 C1272 1.358 . S
C1274 N1275 1.279 . S
C1274 H1315 0.930 . S
N1275 C1273 1.314 . S
N1275 C1274 1.279 . S
C1276 C1278 1.353 . S
C1276 N1279 1.314 . S
C1276 H1282 0.930 . S
C1277 N1279 1.279 . S
C1277 C1280 1.358 . S
C1277 H1283 0.930 . S
C1278 C1276 1.353 . S
C1278 C1281 1.348 . S
C1278 H1316 0.929 . S
N1279 Li1234 1.990 . S
N1279 C1276 1.314 . S
N1279 C1277 1.279 . S
C1280 C1277 1.358 . S
C1280 C1281 1.356 . S
C1280 H1317 0.930 . S
C1281 C1278 1.348 . S
C1281 C1280 1.356 . S
H1282 C1276 0.930 . S
H1283 C1277 0.930 . S
C1284 N1285 1.314 . S
C1284 C1286 1.353 . S
C1284 H1290 0.930 . S
N1285 Li1235 1.990 . S
N1285 C1284 1.314 . S
N1285 C1288 1.279 . S
C1286 C1284 1.353 . S
C1286 C1289 1.348 . S
C1286 H1318 0.929 . S
C1287 C1288 1.358 . S
C1287 C1289 1.356 . S
C1287 H1319 0.930 . S
C1288 N1285 1.279 . S
C1288 C1287 1.358 . S
C1288 H1291 0.930 . S
C1289 C1286 1.348 . S
C1289 C1287 1.356 . S
H1290 C1284 0.930 . S
H1291 C1288 0.930 . S
O1292 Li1232 1.956 . S
O1292 Li1233 1.970 . S
O1292 Li1234 1.961 . S
O1292 C1236 1.325 . S
O1293 Li1232 1.970 . S
O1293 Li1233 1.956 . S
O1293 Li1235 1.961 . S
O1293 C1242 1.325 . S
O1294 Li1232 1.961 . S
O1294 Li1234 1.956 . S
O1294 Li1235 1.970 . S
O1294 C1264 1.325 . S
O1295 Li1233 1.961 . S
O1295 Li1234 1.970 . S
O1295 Li1235 1.956 . S
O1295 C1270 1.325 . S
H1296 C1238 0.929 . S
H1297 C1239 0.930 . S
H1298 C1240 0.930 . S
H1299 C1241 0.930 . S
H1300 C1243 0.930 . S
H1301 C1245 0.929 . S
H1302 C1246 0.930 . S
H1303 C1247 0.930 . S
H1304 C1250 0.930 . S
H1305 C1253 0.929 . S
H1306 C1258 0.929 . S
H1307 C1259 0.930 . S
H1308 C1266 0.929 . S
H1309 C1267 0.930 . S
H1310 C1268 0.930 . S
H1311 C1269 0.930 . S
H1312 C1271 0.929 . S
H1313 C1272 0.930 . S
H1314 C1273 0.930 . S
H1315 C1274 0.930 . S
H1316 C1278 0.929 . S
H1317 C1280 0.930 . S
H1318 C1286 0.929 . S
H1319 C1287 0.930 . S
Li1320 N1337 1.990 . S
Li1320 O1380 1.956 . S
Li1320 O1381 1.970 1_455 S
Li1320 O1382 1.961 . S
Li1321 N1345 1.990 . S
Li1321 O1380 1.970 . S
Li1321 O1381 1.956 1_455 S
Li1321 O1383 1.961 . S
Li1322 N1367 1.990 . S
Li1322 O1380 1.961 . S
Li1322 O1382 1.956 . S
Li1322 O1383 1.970 . S
Li1323 N1373 1.990 . S
Li1323 O1381 1.961 . S
Li1323 O1382 1.970 1_655 S
Li1323 O1383 1.956 1_655 S
C1324 C1326 1.348 . S
C1324 C1327 1.356 . S
C1324 O1380 1.325 . S
N1325 C1328 1.314 . S
N1325 C1329 1.279 . S
C1326 C1324 1.348 . S
C1326 C1328 1.353 . S
C1326 H1384 0.929 . S
C1327 C1324 1.356 . S
C1327 C1329 1.358 . S
C1327 H1385 0.930 . S
C1328 N1325 1.314 . S
C1328 C1326 1.353 . S
C1328 H1386 0.930 . S
C1329 N1325 1.279 . S
C1329 C1327 1.358 . S
C1329 H1387 0.930 . S
C1330 C1333 1.348 . S
C1330 C1334 1.356 . S
C1330 O1381 1.325 . S
C1331 N1332 1.279 . S
C1331 C1334 1.358 . S
C1331 H1388 0.930 . S
N1332 C1331 1.279 . S
N1332 C1335 1.314 . S
C1333 C1330 1.348 . S
C1333 C1335 1.353 . S
C1333 H1389 0.929 . S
C1334 C1330 1.356 . S
C1334 C1331 1.358 . S
C1334 H1390 0.930 . S
C1335 N1332 1.314 . S
C1335 C1333 1.353 . S
C1335 H1391 0.930 . S
C1336 N1337 1.292 1_655 S
C1336 C1341 1.356 . S
C1336 H1342 0.952 . S
N1337 Li1320 1.990 . S
N1337 C1336 1.292 1_455 S
N1337 C1339 1.279 . S
C1338 C1339 1.358 . S
C1338 C1340 1.356 . S
C1338 H1392 0.930 . S
C1339 N1337 1.279 . S
C1339 C1338 1.358 . S
C1339 H1343 0.930 . S
C1340 C1338 1.356 . S
C1340 C1341 1.348 1_455 S
C1341 C1336 1.356 . S
C1341 C1340 1.348 1_655 S
C1341 H1393 0.929 . S
H1342 C1336 0.952 . S
H1343 C1339 0.930 . S
C1344 N1345 1.314 . S
C1344 C1346 1.353 . S
C1344 H1350 0.930 . S
N1345 Li1321 1.990 . S
N1345 C1344 1.314 . S
N1345 C1348 1.279 1_455 S
C1346 C1344 1.353 . S
C1346 C1349 1.348 . S
C1346 H1394 0.929 . S
C1347 C1348 1.358 . S
C1347 C1349 1.356 1_655 S
C1347 H1395 0.930 . S
C1348 N1345 1.279 1_655 S
C1348 C1347 1.358 . S
C1348 H1351 0.930 . S
C1349 C1346 1.348 . S
C1349 C1347 1.356 1_455 S
H1350 C1344 0.930 . S
H1351 C1348 0.930 . S
C1352 C1354 1.348 1_455 S
C1352 C1355 1.356 . S
C1352 O1382 1.325 . S
N1353 C1356 1.314 1_455 S
N1353 C1357 1.279 . S
C1354 C1352 1.348 1_655 S
C1354 C1356 1.353 . S
C1354 H1396 0.929 . S
C1355 C1352 1.356 . S
C1355 C1357 1.358 . S
C1355 H1397 0.930 . S
C1356 N1353 1.314 1_655 S
C1356 C1354 1.353 . S
C1356 H1398 0.930 . S
C1357 N1353 1.279 . S
C1357 C1355 1.358 . S
C1357 H1399 0.930 . S
C1358 C1359 1.348 . S
C1358 C1360 1.356 1_455 S
C1358 O1383 1.325 . S
C1359 C1358 1.348 . S
C1359 C1361 1.353 . S
C1359 H1400 0.929 . S
C1360 C1358 1.356 1_655 S
C1360 C1362 1.358 . S
C1360 H1401 0.930 . S
C1361 C1359 1.353 . S
C1361 N1363 1.314 . S
C1361 H1402 0.930 . S
C1362 C1360 1.358 . S
C1362 N1363 1.279 1_655 S
C1362 H1403 0.930 . S
N1363 C1361 1.314 . S
N1363 C1362 1.279 1_455 S
C1364 C1366 1.353 . S
C1364 N1367 1.314 . S
C1364 H1370 0.930 . S
C1365 N1367 1.279 . S
C1365 C1368 1.358 . S
C1365 H1371 0.930 . S
C1366 C1364 1.353 . S
C1366 C1369 1.348 . S
C1366 H1404 0.929 . S
N1367 Li1322 1.990 . S
N1367 C1364 1.314 . S
N1367 C1365 1.279 . S
C1368 C1365 1.358 . S
C1368 C1369 1.356 . S
C1368 H1405 0.930 . S
C1369 C1366 1.348 . S
C1369 C1368 1.356 . S
H1370 C1364 0.930 . S
H1371 C1365 0.930 . S
C1372 N1373 1.314 . S
C1372 C1374 1.353 . S
C1372 H1378 0.930 . S
N1373 Li1323 1.990 . S
N1373 C1372 1.314 . S
N1373 C1376 1.279 . S
C1374 C1372 1.353 . S
C1374 C1377 1.348 . S
C1374 H1406 0.929 . S
C1375 C1376 1.358 . S
C1375 C1377 1.356 . S
C1375 H1407 0.930 . S
C1376 N1373 1.279 . S
C1376 C1375 1.358 . S
C1376 H1379 0.930 . S
C1377 C1374 1.348 . S
C1377 C1375 1.356 . S
H1378 C1372 0.930 . S
H1379 C1376 0.930 . S
O1380 Li1320 1.956 . S
O1380 Li1321 1.970 . S
O1380 Li1322 1.961 . S
O1380 C1324 1.325 . S
O1381 Li1320 1.970 1_655 S
O1381 Li1321 1.956 1_655 S
O1381 Li1323 1.961 . S
O1381 C1330 1.325 . S
O1382 Li1320 1.961 . S
O1382 Li1322 1.956 . S
O1382 Li1323 1.970 1_455 S
O1382 C1352 1.325 . S
O1383 Li1321 1.961 . S
O1383 Li1322 1.970 . S
O1383 Li1323 1.956 1_455 S
O1383 C1358 1.325 . S
H1384 C1326 0.929 . S
H1385 C1327 0.930 . S
H1386 C1328 0.930 . S
H1387 C1329 0.930 . S
H1388 C1331 0.930 . S
H1389 C1333 0.929 . S
H1390 C1334 0.930 . S
H1391 C1335 0.930 . S
H1392 C1338 0.930 . S
H1393 C1341 0.929 . S
H1394 C1346 0.929 . S
H1395 C1347 0.930 . S
H1396 C1354 0.929 . S
H1397 C1355 0.930 . S
H1398 C1356 0.930 . S
H1399 C1357 0.930 . S
H1400 C1359 0.929 . S
H1401 C1360 0.930 . S
H1402 C1361 0.930 . S
H1403 C1362 0.930 . S
H1404 C1366 0.929 . S
H1405 C1368 0.930 . S
H1406 C1374 0.929 . S
H1407 C1375 0.930 . S
H1408 C1414 0.930 . S
H1409 C1417 0.930 . S
H1410 C1418 0.930 . S
H1411 C1419 0.930 . S
H1412 C1422 0.930 . S
H1413 C1423 0.930 . S
C1414 H1408 0.930 . S
C1414 C1415 1.355 . S
C1414 C1416 1.415 . S
C1415 C1414 1.355 . S
C1415 C1417 1.419 1_455 S
C1416 C1414 1.415 . S
C1416 C1421 1.425 1_455 S
C1416 C1423 1.409 . S
C1417 H1409 0.930 . S
C1417 C1415 1.419 1_655 S
C1417 C1418 1.362 . S
C1418 H1410 0.930 . S
C1418 C1417 1.362 . S
C1418 C1421 1.409 . S
C1419 H1411 0.930 . S
C1419 C1420 1.355 1_655 S
C1419 C1421 1.415 . S
C1420 C1419 1.355 1_455 S
C1420 C1422 1.419 . S
C1421 C1416 1.425 1_655 S
C1421 C1418 1.409 . S
C1421 C1419 1.415 . S
C1422 H1412 0.930 . S
C1422 C1420 1.419 . S
C1422 C1423 1.362 . S
C1423 H1413 0.930 . S
C1423 C1416 1.409 . S
C1423 C1422 1.362 . S
H1424 C1430 0.930 . S
H1425 C1433 0.930 . S
H1426 C1434 0.930 1_455 S
H1427 C1435 0.930 . S
H1428 C1438 0.930 . S
H1429 C1439 0.930 . S
C1430 H1424 0.930 . S
C1430 C1431 1.355 . S
C1430 C1432 1.415 1_655 S
C1431 C1430 1.355 . S
C1431 C1433 1.419 . S
C1432 C1430 1.415 1_455 S
C1432 C1437 1.425 . S
C1432 C1439 1.409 . S
C1433 H1425 0.930 . S
C1433 C1431 1.419 . S
C1433 C1434 1.362 . S
C1434 H1426 0.930 1_655 S
C1434 C1433 1.362 . S
C1434 C1437 1.409 1_655 S
C1435 H1427 0.930 . S
C1435 C1436 1.355 . S
C1435 C1437 1.415 . S
C1436 C1435 1.355 . S
C1436 C1438 1.419 . S
C1437 C1432 1.425 . S
C1437 C1434 1.409 1_455 S
C1437 C1435 1.415 . S
C1438 H1428 0.930 . S
C1438 C1436 1.419 . S
C1438 C1439 1.362 . S
C1439 H1429 0.930 . S
C1439 C1432 1.409 . S
C1439 C1438 1.362 . S
H1440 C1446 0.930 . S
H1441 C1449 0.930 . S
H1442 C1450 0.930 . S
H1443 C1451 0.930 . S
H1444 C1454 0.930 . S
H1445 C1455 0.930 . S
C1446 H1440 0.930 . S
C1446 C1447 1.355 . S
C1446 C1448 1.415 . S
C1447 C1446 1.355 . S
C1447 C1449 1.419 . S
C1448 C1446 1.415 . S
C1448 C1453 1.425 . S
C1448 C1455 1.409 . S
C1449 H1441 0.930 . S
C1449 C1447 1.419 . S
C1449 C1450 1.362 . S
C1450 H1442 0.930 . S
C1450 C1449 1.362 . S
C1450 C1453 1.409 . S
C1451 H1443 0.930 . S
C1451 C1452 1.355 . S
C1451 C1453 1.415 . S
C1452 C1451 1.355 . S
C1452 C1454 1.419 . S
C1453 C1448 1.425 . S
C1453 C1450 1.409 . S
C1453 C1451 1.415 . S
C1454 H1444 0.930 . S
C1454 C1452 1.419 . S
C1454 C1455 1.362 . S
C1455 H1445 0.930 . S
C1455 C1448 1.409 . S
C1455 C1454 1.362 . S
H1456 C1462 0.930 . S
H1457 C1465 0.930 . S
H1458 C1466 0.930 . S
H1459 C1467 0.930 . S
H1460 C1470 0.930 . S
H1461 C1471 0.930 . S
C1462 H1456 0.930 . S
C1462 C1463 1.355 . S
C1462 C1464 1.415 . S
C1463 C1462 1.355 . S
C1463 C1465 1.419 . S
C1464 C1462 1.415 . S
C1464 C1469 1.425 . S
C1464 C1471 1.409 . S
C1465 H1457 0.930 . S
C1465 C1463 1.419 . S
C1465 C1466 1.362 . S
C1466 H1458 0.930 . S
C1466 C1465 1.362 . S
C1466 C1469 1.409 . S
C1467 H1459 0.930 . S
C1467 C1468 1.355 . S
C1467 C1469 1.415 . S
C1468 C1467 1.355 . S
C1468 C1470 1.419 . S
C1469 C1464 1.425 . S
C1469 C1466 1.409 . S
C1469 C1467 1.415 . S
C1470 H1460 0.930 . S
C1470 C1468 1.419 . S
C1470 C1471 1.362 . S
C1471 H1461 0.930 . S
C1471 C1464 1.409 . S
C1471 C1470 1.362 . S
H1472 C1478 0.930 . S
H1473 C1481 0.930 . S
H1474 C1482 0.930 . S
H1475 C1483 0.930 . S
H1476 C1486 0.930 . S
H1477 C1487 0.930 . S
C1478 H1472 0.930 . S
C1478 C1479 1.355 1_655 S
C1478 C1480 1.415 . S
C1479 C1478 1.355 1_455 S
C1479 C1481 1.419 . S
C1480 C1478 1.415 . S
C1480 C1485 1.425 1_655 S
C1480 C1487 1.409 . S
C1481 H1473 0.930 . S
C1481 C1479 1.419 . S
C1481 C1482 1.362 . S
C1482 H1474 0.930 . S
C1482 C1481 1.362 . S
C1482 C1485 1.409 . S
C1483 H1475 0.930 . S
C1483 C1484 1.355 . S
C1483 C1485 1.415 . S
C1484 C1483 1.355 . S
C1484 C1486 1.419 1_455 S
C1485 C1480 1.425 1_455 S
C1485 C1482 1.409 . S
C1485 C1483 1.415 . S
C1486 H1476 0.930 . S
C1486 C1484 1.419 1_655 S
C1486 C1487 1.362 . S
C1487 H1477 0.930 . S
C1487 C1480 1.409 . S
C1487 C1486 1.362 . S
H1488 C1494 0.930 . S
H1489 C1497 0.930 . S
H1490 C1498 0.930 . S
H1491 C1499 0.930 . S
H1492 C1502 0.930 . S
H1493 C1503 0.930 . S
C1494 H1488 0.930 . S
C1494 C1495 1.355 . S
C1494 C1496 1.415 . S
C1495 C1494 1.355 . S
C1495 C1497 1.419 . S
C1496 C1494 1.415 . S
C1496 C1501 1.425 . S
C1496 C1503 1.409 . S
C1497 H1489 0.930 . S
C1497 C1495 1.419 . S
C1497 C1498 1.362 . S
C1498 H1490 0.930 . S
C1498 C1497 1.362 . S
C1498 C1501 1.409 . S
C1499 H1491 0.930 . S
C1499 C1500 1.355 . S
C1499 C1501 1.415 . S
C1500 C1499 1.355 . S
C1500 C1502 1.419 . S
C1501 C1496 1.425 . S
C1501 C1498 1.409 . S
C1501 C1499 1.415 . S
C1502 H1492 0.930 . S
C1502 C1500 1.419 . S
C1502 C1503 1.362 . S
C1503 H1493 0.930 . S
C1503 C1496 1.409 . S
C1503 C1502 1.362 . S
H1504 C1510 0.930 . S
H1505 C1513 0.930 . S
H1506 C1514 0.930 . S
H1507 C1515 0.930 . S
H1508 C1518 0.930 . S
H1509 C1519 0.930 . S
C1510 H1504 0.930 . S
C1510 C1511 1.355 . S
C1510 C1512 1.415 . S
C1511 C1510 1.355 . S
C1511 C1513 1.419 . S
C1512 C1510 1.415 . S
C1512 C1517 1.425 . S
C1512 C1519 1.409 . S
C1513 H1505 0.930 . S
C1513 C1511 1.419 . S
C1513 C1514 1.362 . S
C1514 H1506 0.930 . S
C1514 C1513 1.362 . S
C1514 C1517 1.409 . S
C1515 H1507 0.930 . S
C1515 C1516 1.355 . S
C1515 C1517 1.415 . S
C1516 C1515 1.355 . S
C1516 C1518 1.419 . S
C1517 C1512 1.425 . S
C1517 C1514 1.409 . S
C1517 C1515 1.415 . S
C1518 H1508 0.930 . S
C1518 C1516 1.419 . S
C1518 C1519 1.362 . S
C1519 H1509 0.930 . S
C1519 C1512 1.409 . S
C1519 C1518 1.362 . S
H1520 C1526 0.930 . S
H1521 C1529 0.930 . S
H1522 C1530 0.930 . S
H1523 C1531 0.930 . S
H1524 C1534 0.930 . S
H1525 C1535 0.930 1_455 S
C1526 H1520 0.930 . S
C1526 C1527 1.355 . S
C1526 C1528 1.415 . S
C1527 C1526 1.355 . S
C1527 C1529 1.419 . S
C1528 C1526 1.415 . S
C1528 C1533 1.425 . S
C1528 C1535 1.409 1_455 S
C1529 H1521 0.930 . S
C1529 C1527 1.419 . S
C1529 C1530 1.362 . S
C1530 H1522 0.930 . S
C1530 C1529 1.362 . S
C1530 C1533 1.409 . S
C1531 H1523 0.930 . S
C1531 C1532 1.355 . S
C1531 C1533 1.415 1_655 S
C1532 C1531 1.355 . S
C1532 C1534 1.419 . S
C1533 C1528 1.425 . S
C1533 C1530 1.409 . S
C1533 C1531 1.415 1_455 S
C1534 H1524 0.930 . S
C1534 C1532 1.419 . S
C1534 C1535 1.362 . S
C1535 H1525 0.930 1_655 S
C1535 C1528 1.409 1_655 S
C1535 C1534 1.362 . S
H1536 C1542 0.930 . S
H1537 C1545 0.930 . S
H1538 C1546 0.930 . S
H1539 C1547 0.930 . S
H1540 C1550 0.930 . S
H1541 C1551 0.930 . S
C1542 H1536 0.930 . S
C1542 C1543 1.355 1_655 S
C1542 C1544 1.412 1_655 S
C1543 C1542 1.355 1_455 S
C1543 C1545 1.419 1_565 S
C1544 C1542 1.412 1_455 S
C1544 C1549 1.440 1_565 S
C1544 C1551 1.399 1_455 S
C1545 H1537 0.930 . S
C1545 C1543 1.419 1_545 S
C1545 C1546 1.362 . S
C1546 H1538 0.930 . S
C1546 C1545 1.362 . S
C1546 C1549 1.409 . S
C1547 H1539 0.930 . S
C1547 C1548 1.355 . S
C1547 C1549 1.415 . S
C1548 C1547 1.355 . S
C1548 C1550 1.419 1_445 S
C1549 C1544 1.440 1_545 S
C1549 C1546 1.409 . S
C1549 C1547 1.415 . S
C1550 H1540 0.930 . S
C1550 C1548 1.419 1_665 S
C1550 C1551 1.362 . S
C1551 H1541 0.930 . S
C1551 C1544 1.399 1_655 S
C1551 C1550 1.362 . S
H1552 C1558 0.930 . S
H1553 C1561 0.930 . S
H1554 C1562 0.930 . S
H1555 C1563 0.930 . S
H1556 C1566 0.930 . S
H1557 C1567 0.930 . S
C1558 H1552 0.930 . S
C1558 C1559 1.355 . S
C1558 C1560 1.415 . S
C1559 C1558 1.355 . S
C1559 C1561 1.419 . S
C1560 C1558 1.415 . S
C1560 C1565 1.425 . S
C1560 C1567 1.409 . S
C1561 H1553 0.930 . S
C1561 C1559 1.419 . S
C1561 C1562 1.362 . S
C1562 H1554 0.930 . S
C1562 C1561 1.362 . S
C1562 C1565 1.409 . S
C1563 H1555 0.930 . S
C1563 C1564 1.355 . S
C1563 C1565 1.415 . S
C1564 C1563 1.355 . S
C1564 C1566 1.419 . S
C1565 C1560 1.425 . S
C1565 C1562 1.409 . S
C1565 C1563 1.415 . S
C1566 H1556 0.930 . S
C1566 C1564 1.419 . S
C1566 C1567 1.362 . S
C1567 H1557 0.930 . S
C1567 C1560 1.409 . S
C1567 C1566 1.362 . S
H1568 C1574 0.930 . S
H1569 C1577 0.930 . S
H1570 C1578 0.930 . S
H1571 C1579 0.930 . S
H1572 C1582 0.930 . S
H1573 C1583 0.930 . S
C1574 H1568 0.930 . S
C1574 C1575 1.355 . S
C1574 C1576 1.415 . S
C1575 C1574 1.355 . S
C1575 C1577 1.419 1_565 S
C1576 C1574 1.415 . S
C1576 C1581 1.425 1_564 S
C1576 C1583 1.409 1_554 S
C1577 H1569 0.930 . S
C1577 C1575 1.419 1_545 S
C1577 C1578 1.362 . S
C1578 H1570 0.930 . S
C1578 C1577 1.362 . S
C1578 C1581 1.409 1_554 S
C1579 H1571 0.930 . S
C1579 C1580 1.355 . S
C1579 C1581 1.415 . S
C1580 C1579 1.355 . S
C1580 C1582 1.419 1_545 S
C1581 C1576 1.425 1_546 S
C1581 C1578 1.409 1_556 S
C1581 C1579 1.415 . S
C1582 H1572 0.930 . S
C1582 C1580 1.419 1_565 S
C1582 C1583 1.362 . S
C1583 H1573 0.930 . S
C1583 C1576 1.409 1_556 S
C1583 C1582 1.362 . S
H1584 C1590 0.930 . S
H1585 C1593 0.930 . S
H1586 C1594 0.930 . S
H1587 C1595 0.930 . S
H1588 C1598 0.930 . S
H1589 C1599 0.930 . S
C1590 H1584 0.930 . S
C1590 C1591 1.355 . S
C1590 C1592 1.415 . S
C1591 C1590 1.355 . S
C1591 C1593 1.419 . S
C1592 C1590 1.415 . S
C1592 C1597 1.425 . S
C1592 C1599 1.409 . S
C1593 H1585 0.930 . S
C1593 C1591 1.419 . S
C1593 C1594 1.362 . S
C1594 H1586 0.930 . S
C1594 C1593 1.362 . S
C1594 C1597 1.409 . S
C1595 H1587 0.930 . S
C1595 C1596 1.355 . S
C1595 C1597 1.415 . S
C1596 C1595 1.355 . S
C1596 C1598 1.419 . S
C1597 C1592 1.425 . S
C1597 C1594 1.409 . S
C1597 C1595 1.415 . S
C1598 H1588 0.930 . S
C1598 C1596 1.419 . S
C1598 C1599 1.362 . S
C1599 H1589 0.930 . S
C1599 C1592 1.409 . S
C1599 C1598 1.362 . S
H1600 C1606 0.930 . S
H1601 C1609 0.930 . S
H1602 C1610 0.930 . S
H1603 C1611 0.930 . S
H1604 C1614 0.930 . S
H1605 C1615 0.930 . S
C1606 H1600 0.930 . S
C1606 C1607 1.355 . S
C1606 C1608 1.415 . S
C1607 C1606 1.355 . S
C1607 C1609 1.419 . S
C1608 C1606 1.415 . S
C1608 C1613 1.425 . S
C1608 C1615 1.409 . S
C1609 H1601 0.930 . S
C1609 C1607 1.419 . S
C1609 C1610 1.362 . S
C1610 H1602 0.930 . S
C1610 C1609 1.362 . S
C1610 C1613 1.409 . S
C1611 H1603 0.930 . S
C1611 C1612 1.355 . S
C1611 C1613 1.415 . S
C1612 C1611 1.355 . S
C1612 C1614 1.419 . S
C1613 C1608 1.425 . S
C1613 C1610 1.409 . S
C1613 C1611 1.415 . S
C1614 H1604 0.930 . S
C1614 C1612 1.419 . S
C1614 C1615 1.362 . S
C1615 H1605 0.930 . S
C1615 C1608 1.409 . S
C1615 C1614 1.362 . S
H1616 C1622 0.930 . S
H1617 C1625 0.930 . S
H1618 C1626 0.930 . S
H1619 C1627 0.930 . S
H1620 C1630 0.930 . S
H1621 C1631 0.930 . S
C1622 H1616 0.930 . S
C1622 C1623 1.355 . S
C1622 C1624 1.415 . S
C1623 C1622 1.355 . S
C1623 C1625 1.419 . S
C1624 C1622 1.415 . S
C1624 C1629 1.425 . S
C1624 C1631 1.409 . S
C1625 H1617 0.930 . S
C1625 C1623 1.419 . S
C1625 C1626 1.362 . S
C1626 H1618 0.930 . S
C1626 C1625 1.362 . S
C1626 C1629 1.409 . S
C1627 H1619 0.930 . S
C1627 C1628 1.355 . S
C1627 C1629 1.415 . S
C1628 C1627 1.355 . S
C1628 C1630 1.419 . S
C1629 C1624 1.425 . S
C1629 C1626 1.409 . S
C1629 C1627 1.415 . S
C1630 H1620 0.930 . S
C1630 C1628 1.419 . S
C1630 C1631 1.362 . S
C1631 H1621 0.930 . S
C1631 C1624 1.409 . S
C1631 C1630 1.362 . S
H1632 C1638 0.930 . S
H1633 C1641 0.930 . S
H1634 C1642 0.930 1_554 S
H1635 C1643 0.930 . S
H1636 C1646 0.930 . S
H1637 C1647 0.930 1_556 S
C1638 H1632 0.930 . S
C1638 C1639 1.355 . S
C1638 C1640 1.415 . S
C1639 C1638 1.355 . S
C1639 C1641 1.419 . S
C1640 C1638 1.415 . S
C1640 C1645 1.425 1_556 S
C1640 C1647 1.409 1_556 S
C1641 H1633 0.930 . S
C1641 C1639 1.419 . S
C1641 C1642 1.362 . S
C1642 H1634 0.930 1_556 S
C1642 C1641 1.362 . S
C1642 C1645 1.409 1_556 S
C1643 H1635 0.930 . S
C1643 C1644 1.355 . S
C1643 C1645 1.415 . S
C1644 C1643 1.355 . S
C1644 C1646 1.419 . S
C1645 C1640 1.425 1_554 S
C1645 C1642 1.409 1_554 S
C1645 C1643 1.415 . S
C1646 H1636 0.930 . S
C1646 C1644 1.419 . S
C1646 C1647 1.362 . S
C1647 H1637 0.930 1_554 S
C1647 C1640 1.409 1_554 S
C1647 C1646 1.362 . S
H1648 C1654 0.930 . S
H1649 C1657 0.930 . S
H1650 C1658 0.930 . S
H1651 C1659 0.930 . S
H1652 C1662 0.930 . S
H1653 C1663 0.930 . S
C1654 H1648 0.930 . S
C1654 C1655 1.355 . S
C1654 C1656 1.415 . S
C1655 C1654 1.355 . S
C1655 C1657 1.419 . S
C1656 C1654 1.415 . S
C1656 C1661 1.425 . S
C1656 C1663 1.409 . S
C1657 H1649 0.930 . S
C1657 C1655 1.419 . S
C1657 C1658 1.362 . S
C1658 H1650 0.930 . S
C1658 C1657 1.362 . S
C1658 C1661 1.409 . S
C1659 H1651 0.930 . S
C1659 C1660 1.355 . S
C1659 C1661 1.415 . S
C1660 C1659 1.355 . S
C1660 C1662 1.419 . S
C1661 C1656 1.425 . S
C1661 C1658 1.409 . S
C1661 C1659 1.415 . S
C1662 H1652 0.930 . S
C1662 C1660 1.419 . S
C1662 C1663 1.362 . S
C1663 H1653 0.930 . S
C1663 C1656 1.409 . S
C1663 C1662 1.362 . S
H1664 C1670 0.930 . S
H1665 C1673 0.930 . S
H1666 C1674 0.930 . S
H1667 C1675 0.930 . S
H1668 C1678 0.905 1_545 S
H1669 C1679 0.930 . S
C1670 H1664 0.930 . S
C1670 C1671 1.355 . S
C1670 C1672 1.415 . S
C1671 C1670 1.355 . S
C1671 C1673 1.419 . S
C1672 C1670 1.415 . S
C1672 C1677 1.425 . S
C1672 C1679 1.409 . S
C1673 H1665 0.930 . S
C1673 C1671 1.419 . S
C1673 C1674 1.362 . S
C1674 H1666 0.930 . S
C1674 C1673 1.362 . S
C1674 C1677 1.409 . S
C1675 H1667 0.930 . S
C1675 C1676 1.355 . S
C1675 C1677 1.415 . S
C1676 C1675 1.355 . S
C1676 C1678 1.419 . S
C1677 C1672 1.425 . S
C1677 C1674 1.409 . S
C1677 C1675 1.415 . S
C1678 H1668 0.905 1_565 S
C1678 C1676 1.419 . S
C1678 C1679 1.362 . S
C1679 H1669 0.930 . S
C1679 C1672 1.409 . S
C1679 C1678 1.362 . S
H1680 C1686 0.930 . S
H1681 C1689 0.930 . S
H1682 C1690 0.930 . S
H1683 C1691 0.930 . S
H1684 C1694 0.930 . S
H1685 C1695 0.930 . S
C1686 H1680 0.930 . S
C1686 C1687 1.355 . S
C1686 C1688 1.415 . S
C1687 C1686 1.355 . S
C1687 C1689 1.419 . S
C1688 C1686 1.415 . S
C1688 C1693 1.425 . S
C1688 C1695 1.409 . S
C1689 H1681 0.930 . S
C1689 C1687 1.419 . S
C1689 C1690 1.362 . S
C1690 H1682 0.930 . S
C1690 C1689 1.362 . S
C1690 C1693 1.409 . S
C1691 H1683 0.930 . S
C1691 C1692 1.355 . S
C1691 C1693 1.415 . S
C1692 C1691 1.355 . S
C1692 C1694 1.419 . S
C1693 C1688 1.425 . S
C1693 C1690 1.409 . S
C1693 C1691 1.415 . S
C1694 H1684 0.930 . S
C1694 C1692 1.419 . S
C1694 C1695 1.362 . S
C1695 H1685 0.930 . S
C1695 C1688 1.409 . S
C1695 C1694 1.362 . S
H1696 C1702 0.930 . S
H1697 C1705 0.930 1_565 S
H1698 C1706 0.930 . S
H1699 C1707 0.930 . S
H1700 C1710 0.930 . S
H1701 C1711 0.930 . S
C1702 H1696 0.930 . S
C1702 C1703 1.355 . S
C1702 C1704 1.415 . S
C1703 C1702 1.355 . S
C1703 C1705 1.419 . S
C1704 C1702 1.415 . S
C1704 C1709 1.425 . S
C1704 C1711 1.409 . S
C1705 H1697 0.930 1_545 S
C1705 C1703 1.419 . S
C1705 C1706 1.362 . S
C1706 H1698 0.930 . S
C1706 C1705 1.362 . S
C1706 C1709 1.409 . S
C1707 H1699 0.930 . S
C1707 C1708 1.355 . S
C1707 C1709 1.415 . S
C1708 C1707 1.355 . S
C1708 C1710 1.419 . S
C1709 C1704 1.425 . S
C1709 C1706 1.409 . S
C1709 C1707 1.415 . S
C1710 H1700 0.930 . S
C1710 C1708 1.419 . S
C1710 C1711 1.362 . S
C1711 H1701 0.930 . S
C1711 C1704 1.409 . S
C1711 C1710 1.362 . S
H1712 C1718 0.930 . S
H1713 C1721 0.930 . S
H1714 C1722 0.930 . S
H1715 C1723 0.930 . S
H1716 C1726 0.930 . S
H1717 C1727 0.930 . S
C1718 H1712 0.930 . S
C1718 C1719 1.355 . S
C1718 C1720 1.415 . S
C1719 C1718 1.355 . S
C1719 C1721 1.419 . S
C1720 C1718 1.415 . S
C1720 C1725 1.425 . S
C1720 C1727 1.409 . S
C1721 H1713 0.930 . S
C1721 C1719 1.419 . S
C1721 C1722 1.362 . S
C1722 H1714 0.930 . S
C1722 C1721 1.362 . S
C1722 C1725 1.409 . S
C1723 H1715 0.930 . S
C1723 C1724 1.355 . S
C1723 C1725 1.415 . S
C1724 C1723 1.355 . S
C1724 C1726 1.419 . S
C1725 C1720 1.425 . S
C1725 C1722 1.409 . S
C1725 C1723 1.415 . S
C1726 H1716 0.930 . S
C1726 C1724 1.419 . S
C1726 C1727 1.362 . S
C1727 H1717 0.930 . S
C1727 C1720 1.409 . S
C1727 C1726 1.362 . S
H1728 C1734 0.930 . S
H1729 C1737 0.930 . S
H1730 C1738 0.930 . S
H1731 C1739 0.930 . S
H1732 C1742 0.930 . S
H1733 C1743 0.930 . S
C1734 H1728 0.930 . S
C1734 C1735 1.355 . S
C1734 C1736 1.415 . S
C1735 C1734 1.355 . S
C1735 C1737 1.419 . S
C1736 C1734 1.415 . S
C1736 C1741 1.425 . S
C1736 C1743 1.409 . S
C1737 H1729 0.930 . S
C1737 C1735 1.419 . S
C1737 C1738 1.362 . S
C1738 H1730 0.930 . S
C1738 C1737 1.362 . S
C1738 C1741 1.409 . S
C1739 H1731 0.930 . S
C1739 C1740 1.355 . S
C1739 C1741 1.415 . S
C1740 C1739 1.355 . S
C1740 C1742 1.419 . S
C1741 C1736 1.425 . S
C1741 C1738 1.409 . S
C1741 C1739 1.415 . S
C1742 H1732 0.930 . S
C1742 C1740 1.419 . S
C1742 C1743 1.362 . S
C1743 H1733 0.930 . S
C1743 C1736 1.409 . S
C1743 C1742 1.362 . S
H1744 C1750 0.930 . S
H1745 C1753 0.930 . S
H1746 C1754 0.930 . S
H1747 C1755 0.930 . S
H1748 C1758 0.930 . S
H1749 C1759 0.930 . S
C1750 H1744 0.930 . S
C1750 C1751 1.355 . S
C1750 C1752 1.415 . S
C1751 C1750 1.355 . S
C1751 C1753 1.419 . S
C1752 C1750 1.415 . S
C1752 C1757 1.425 . S
C1752 C1759 1.409 . S
C1753 H1745 0.930 . S
C1753 C1751 1.419 . S
C1753 C1754 1.362 . S
C1754 H1746 0.930 . S
C1754 C1753 1.362 . S
C1754 C1757 1.409 . S
C1755 H1747 0.930 . S
C1755 C1756 1.355 . S
C1755 C1757 1.415 . S
C1756 C1755 1.355 . S
C1756 C1758 1.419 . S
C1757 C1752 1.425 . S
C1757 C1754 1.409 . S
C1757 C1755 1.415 . S
C1758 H1748 0.930 . S
C1758 C1756 1.419 . S
C1758 C1759 1.362 . S
C1759 H1749 0.930 . S
C1759 C1752 1.409 . S
C1759 C1758 1.362 . S
H1760 C1766 0.930 . S
H1761 C1769 0.930 . S
H1762 C1770 0.930 . S
H1763 C1771 0.930 . S
H1764 C1774 0.930 . S
H1765 C1775 0.930 . S
C1766 H1760 0.930 . S
C1766 C1767 1.355 . S
C1766 C1768 1.415 . S
C1767 C1766 1.355 . S
C1767 C1769 1.419 . S
C1768 C1766 1.415 . S
C1768 C1773 1.425 . S
C1768 C1775 1.409 . S
C1769 H1761 0.930 . S
C1769 C1767 1.419 . S
C1769 C1770 1.362 . S
C1770 H1762 0.930 . S
C1770 C1769 1.362 . S
C1770 C1773 1.409 . S
C1771 H1763 0.930 . S
C1771 C1772 1.355 . S
C1771 C1773 1.415 . S
C1772 C1771 1.355 . S
C1772 C1774 1.419 . S
C1773 C1768 1.425 . S
C1773 C1770 1.409 . S
C1773 C1771 1.415 . S
C1774 H1764 0.930 . S
C1774 C1772 1.419 . S
C1774 C1775 1.362 . S
C1775 H1765 0.930 . S
C1775 C1768 1.409 . S
C1775 C1774 1.362 . S
H1776 C1782 0.930 . S
H1777 C1785 0.930 . S
H1778 C1786 0.930 . S
H1779 C1787 0.930 . S
H1780 C1790 0.930 . S
H1781 C1791 0.930 . S
C1782 H1776 0.930 . S
C1782 C1783 1.355 . S
C1782 C1784 1.415 . S
C1783 C1782 1.355 . S
C1783 C1785 1.419 . S
C1784 C1782 1.415 . S
C1784 C1789 1.425 . S
C1784 C1791 1.409 . S
C1785 H1777 0.930 . S
C1785 C1783 1.419 . S
C1785 C1786 1.362 . S
C1786 H1778 0.930 . S
C1786 C1785 1.362 . S
C1786 C1789 1.409 . S
C1787 H1779 0.930 . S
C1787 C1788 1.355 . S
C1787 C1789 1.415 . S
C1788 C1787 1.355 . S
C1788 C1790 1.419 . S
C1789 C1784 1.425 . S
C1789 C1786 1.409 . S
C1789 C1787 1.415 . S
C1790 H1780 0.930 . S
C1790 C1788 1.419 . S
C1790 C1791 1.362 . S
C1791 H1781 0.930 . S
C1791 C1784 1.409 . S
C1791 C1790 1.362 . S
H1792 C1798 0.930 . S
H1793 C1801 0.930 . S
H1794 C1802 0.930 . S
H1795 C1803 0.930 . S
H1796 C1806 0.930 . S
H1797 C1807 0.930 . S
C1798 H1792 0.930 . S
C1798 C1799 1.355 . S
C1798 C1800 1.415 . S
C1799 C1798 1.355 . S
C1799 C1801 1.419 . S
C1800 C1798 1.415 . S
C1800 C1805 1.425 . S
C1800 C1807 1.409 . S
C1801 H1793 0.930 . S
C1801 C1799 1.419 . S
C1801 C1802 1.362 . S
C1802 H1794 0.930 . S
C1802 C1801 1.362 . S
C1802 C1805 1.409 . S
C1803 H1795 0.930 . S
C1803 C1804 1.355 . S
C1803 C1805 1.415 . S
C1804 C1803 1.355 . S
C1804 C1806 1.419 . S
C1805 C1800 1.425 . S
C1805 C1802 1.409 . S
C1805 C1803 1.415 . S
C1806 H1796 0.930 . S
C1806 C1804 1.419 . S
C1806 C1807 1.362 . S
C1807 H1797 0.930 . S
C1807 C1800 1.409 . S
C1807 C1806 1.362 . S
H1808 C1814 0.930 . S
H1809 C1817 0.930 . S
H1810 C1818 0.930 . S
H1811 C1819 0.930 . S
H1812 C1822 0.930 . S
H1813 C1823 0.930 . S
C1814 H1808 0.930 . S
C1814 C1815 1.355 . S
C1814 C1816 1.415 . S
C1815 C1814 1.355 . S
C1815 C1817 1.419 . S
C1816 C1814 1.415 . S
C1816 C1821 1.425 . S
C1816 C1823 1.409 . S
C1817 H1809 0.930 . S
C1817 C1815 1.419 . S
C1817 C1818 1.362 . S
C1818 H1810 0.930 . S
C1818 C1817 1.362 . S
C1818 C1821 1.409 . S
C1819 H1811 0.930 . S
C1819 C1820 1.355 . S
C1819 C1821 1.415 . S
C1820 C1819 1.355 . S
C1820 C1822 1.419 . S
C1821 C1816 1.425 . S
C1821 C1818 1.409 . S
C1821 C1819 1.415 . S
C1822 H1812 0.930 . S
C1822 C1820 1.419 . S
C1822 C1823 1.362 . S
C1823 H1813 0.930 . S
C1823 C1816 1.409 . S
C1823 C1822 1.362 . S
H1824 C1830 0.930 . S
H1825 C1833 0.930 . S
H1826 C1834 0.930 . S
H1827 C1835 0.930 . S
H1828 C1838 0.930 . S
H1829 C1839 0.930 . S
C1830 H1824 0.930 . S
C1830 C1831 1.355 . S
C1830 C1832 1.415 . S
C1831 C1830 1.355 . S
C1831 C1833 1.419 . S
C1832 C1830 1.415 . S
C1832 C1837 1.425 . S
C1832 C1839 1.409 . S
C1833 H1825 0.930 . S
C1833 C1831 1.419 . S
C1833 C1834 1.362 . S
C1834 H1826 0.930 . S
C1834 C1833 1.362 . S
C1834 C1837 1.409 . S
C1835 H1827 0.930 . S
C1835 C1836 1.355 . S
C1835 C1837 1.415 . S
C1836 C1835 1.355 . S
C1836 C1838 1.419 . S
C1837 C1832 1.425 . S
C1837 C1834 1.409 . S
C1837 C1835 1.415 . S
C1838 H1828 0.930 . S
C1838 C1836 1.419 . S
C1838 C1839 1.362 . S
C1839 H1829 0.930 . S
C1839 C1832 1.409 . S
C1839 C1838 1.362 . S
H1840 C1846 0.930 . S
H1841 C1849 0.930 . S
H1842 C1850 0.930 . S
H1843 C1851 0.930 . S
H1844 C1854 0.930 . S
H1845 C1855 0.930 . S
C1846 H1840 0.930 . S
C1846 C1847 1.355 . S
C1846 C1848 1.415 . S
C1847 C1846 1.355 . S
C1847 C1849 1.419 . S
C1848 C1846 1.415 . S
C1848 C1853 1.425 . S
C1848 C1855 1.409 . S
C1849 H1841 0.930 . S
C1849 C1847 1.419 . S
C1849 C1850 1.362 . S
C1850 H1842 0.930 . S
C1850 C1849 1.362 . S
C1850 C1853 1.409 . S
C1851 H1843 0.930 . S
C1851 C1852 1.355 . S
C1851 C1853 1.415 . S
C1852 C1851 1.355 . S
C1852 C1854 1.419 . S
C1853 C1848 1.425 . S
C1853 C1850 1.409 . S
C1853 C1851 1.415 . S
C1854 H1844 0.930 . S
C1854 C1852 1.419 . S
C1854 C1855 1.362 . S
C1855 H1845 0.930 . S
C1855 C1848 1.409 . S
C1855 C1854 1.362 . S
H1856 C1862 0.930 . S
H1857 C1865 0.930 . S
H1858 C1866 0.930 . S
H1859 C1867 0.930 . S
H1860 C1870 0.930 . S
H1861 C1871 0.930 . S
C1862 H1856 0.930 . S
C1862 C1863 1.355 . S
C1862 C1864 1.415 . S
C1863 C1862 1.355 . S
C1863 C1865 1.419 . S
C1864 C1862 1.415 . S
C1864 C1869 1.425 . S
C1864 C1871 1.409 . S
C1865 H1857 0.930 . S
C1865 C1863 1.419 . S
C1865 C1866 1.362 . S
C1866 H1858 0.930 . S
C1866 C1865 1.362 . S
C1866 C1869 1.409 . S
C1867 H1859 0.930 . S
C1867 C1868 1.355 . S
C1867 C1869 1.415 . S
C1868 C1867 1.355 . S
C1868 C1870 1.419 . S
C1869 C1864 1.425 . S
C1869 C1866 1.409 . S
C1869 C1867 1.415 . S
C1870 H1860 0.930 . S
C1870 C1868 1.419 . S
C1870 C1871 1.362 . S
C1871 H1861 0.930 . S
C1871 C1864 1.409 . S
C1871 C1870 1.362 . S
H1872 C1878 0.930 . S
H1873 C1881 0.930 . S
H1874 C1882 0.930 . S
H1875 C1883 0.930 . S
H1876 C1886 0.930 . S
H1877 C1887 0.930 . S
C1878 H1872 0.930 . S
C1878 C1879 1.355 . S
C1878 C1880 1.415 . S
C1879 C1878 1.355 . S
C1879 C1881 1.419 . S
C1880 C1878 1.415 . S
C1880 C1885 1.425 . S
C1880 C1887 1.409 . S
C1881 H1873 0.930 . S
C1881 C1879 1.419 . S
C1881 C1882 1.362 . S
C1882 H1874 0.930 . S
C1882 C1881 1.362 . S
C1882 C1885 1.409 . S
C1883 H1875 0.930 . S
C1883 C1884 1.355 . S
C1883 C1885 1.415 . S
C1884 C1883 1.355 . S
C1884 C1886 1.419 . S
C1885 C1880 1.425 . S
C1885 C1882 1.409 . S
C1885 C1883 1.415 . S
C1886 H1876 0.930 . S
C1886 C1884 1.419 . S
C1886 C1887 1.362 . S
C1887 H1877 0.930 . S
C1887 C1880 1.409 . S
C1887 C1886 1.362 . S
H1888 C1894 0.930 . S
H1889 C1897 0.930 . S
H1890 C1898 0.930 . S
H1891 C1899 0.930 . S
H1892 C1902 0.930 . S
H1893 C1903 0.930 . S
C1894 H1888 0.930 . S
C1894 C1895 1.355 . S
C1894 C1896 1.415 . S
C1895 C1894 1.355 . S
C1895 C1897 1.419 . S
C1896 C1894 1.415 . S
C1896 C1901 1.425 . S
C1896 C1903 1.409 . S
C1897 H1889 0.930 . S
C1897 C1895 1.419 . S
C1897 C1898 1.362 . S
C1898 H1890 0.930 . S
C1898 C1897 1.362 . S
C1898 C1901 1.409 . S
C1899 H1891 0.930 . S
C1899 C1900 1.355 . S
C1899 C1901 1.415 . S
C1900 C1899 1.355 . S
C1900 C1902 1.419 . S
C1901 C1896 1.425 . S
C1901 C1898 1.409 . S
C1901 C1899 1.415 . S
C1902 H1892 0.930 . S
C1902 C1900 1.419 . S
C1902 C1903 1.362 . S
C1903 H1893 0.930 . S
C1903 C1896 1.409 . S
C1903 C1902 1.362 . S
H1904 C1910 0.930 . S
H1905 C1913 0.930 . S
H1906 C1914 0.930 . S
H1907 C1915 0.930 . S
H1908 C1918 0.930 . S
H1909 C1919 0.930 . S
C1910 H1904 0.930 . S
C1910 C1911 1.355 . S
C1910 C1912 1.415 . S
C1911 C1910 1.355 . S
C1911 C1913 1.419 . S
C1912 C1910 1.415 . S
C1912 C1917 1.425 . S
C1912 C1919 1.409 . S
C1913 H1905 0.930 . S
C1913 C1911 1.419 . S
C1913 C1914 1.362 . S
C1914 H1906 0.930 . S
C1914 C1913 1.362 . S
C1914 C1917 1.409 . S
C1915 H1907 0.930 . S
C1915 C1916 1.355 . S
C1915 C1917 1.415 . S
C1916 C1915 1.355 . S
C1916 C1918 1.419 . S
C1917 C1912 1.425 . S
C1917 C1914 1.409 . S
C1917 C1915 1.415 . S
C1918 H1908 0.930 . S
C1918 C1916 1.419 . S
C1918 C1919 1.362 . S
C1919 H1909 0.930 . S
C1919 C1912 1.409 . S
C1919 C1918 1.362 . S
C1415 C29 0.779 . S
C1420 C1201 0.790 . S
C1431 C997 0.780 . S
C1436 C117 0.806 . S
C1447 C1085 0.787 . S
C1452 C225 0.786 . S
C1463 C900 0.786 . S
C1468 C293 0.796 . S
C1479 C401 0.774 . S
C1484 C1340 0.799 . S
C1495 C489 0.782 . S
C1500 C849 0.800 . S
C1511 C1281 0.761 . S
C1516 C548 0.809 . S
C1527 C673 0.787 . S
C1532 C761 0.800 . S
C1543 C409 1.664 . S
C1548 C20 1.664 . S
C1559 C137 1.665 . S
C1564 C469 1.666 . S
C1575 C233 1.664 . S
C1580 C557 1.666 . S
C1591 C636 1.666 . S
C1596 C313 1.668 . S
C1607 C724 1.680 . S
C1612 C937 1.677 . S
C1623 C812 1.666 . S
C1628 C1017 1.668 . S
C1639 C1289 1.674 . S
C1644 C1076 1.677 . S
C1655 C1193 1.677 . S
C1660 C1349 1.678 . S
C1671 C460 1.296 . S
C1676 C49 1.330 . S
C1687 C145 1.298 . S
C1692 C585 1.314 . S
C1703 C205 1.340 . S
C1708 C645 1.308 . S
C1719 C381 1.311 . S
C1724 C321 1.341 . S
C1735 C372 1.339 . S
C1740 C909 1.305 . S
C1751 C196 1.293 . S
C1756 C753 1.320 . S
C1767 C988 1.338 . S
C1772 C577 1.306 . S
C1783 C841 1.290 . S
C1788 C57 1.331 . S
C1799 C733 1.342 . S
C1804 C1105 1.303 . S
C1815 C929 1.296 . S
C1820 C1377 1.323 . S
C1831 C1164 1.339 . S
C1836 C821 1.303 . S
C1847 C1025 1.336 . S
C1852 C1261 1.290 . S
C1863 C1252 1.307 . S
C1868 C108 1.338 . S
C1879 C1173 1.304 . S
C1884 C497 1.301 . S
C1895 C1369 1.337 . S
C1900 C284 1.312 . S
C1911 C1113 1.326 . S
C1916 C665 1.289 . S
