# Generated by pormake.
# Topology dft, (4)-cn, num edge types: 1
# Building blocks:
#     Node 0, Type 0, BuildingBlock: ICAMEG_clean_sbu_1, # of connection points: 4
#     Node 1, Type 0, BuildingBlock: ICAMEG_clean_sbu_1, # of connection points: 4
#     Node 2, Type 0, BuildingBlock: ICAMEG_clean_sbu_1, # of connection points: 4
#     Node 3, Type 0, BuildingBlock: ICAMEG_clean_sbu_1, # of connection points: 4
#     Node 4, Type 0, BuildingBlock: ICAMEG_clean_sbu_1, # of connection points: 4
#     Node 5, Type 0, BuildingBlock: ICAMEG_clean_sbu_1, # of connection points: 4
#     Node 6, Type 0, BuildingBlock: ICAMEG_clean_sbu_1, # of connection points: 4
#     Node 7, Type 0, BuildingBlock: ICAMEG_clean_sbu_1, # of connection points: 4
#     Edge 8, Type (0, 0), BuildingBlock: EYOCIG_clean_linker_4, # of connection points: 2
#     Edge 9, Type (0, 0), BuildingBlock: EYOCIG_clean_linker_4, # of connection points: 2
#     Edge 10, Type (0, 0), BuildingBlock: EYOCIG_clean_linker_4, # of connection points: 2
#     Edge 11, Type (0, 0), BuildingBlock: EYOCIG_clean_linker_4, # of connection points: 2
#     Edge 12, Type (0, 0), BuildingBlock: EYOCIG_clean_linker_4, # of connection points: 2
#     Edge 13, Type (0, 0), BuildingBlock: EYOCIG_clean_linker_4, # of connection points: 2
#     Edge 14, Type (0, 0), BuildingBlock: EYOCIG_clean_linker_4, # of connection points: 2
#     Edge 15, Type (0, 0), BuildingBlock: EYOCIG_clean_linker_4, # of connection points: 2
#     Edge 16, Type (0, 0), BuildingBlock: EYOCIG_clean_linker_4, # of connection points: 2
#     Edge 17, Type (0, 0), BuildingBlock: EYOCIG_clean_linker_4, # of connection points: 2
#     Edge 18, Type (0, 0), BuildingBlock: EYOCIG_clean_linker_4, # of connection points: 2
#     Edge 19, Type (0, 0), BuildingBlock: EYOCIG_clean_linker_4, # of connection points: 2
#     Edge 20, Type (0, 0), BuildingBlock: EYOCIG_clean_linker_4, # of connection points: 2
#     Edge 21, Type (0, 0), BuildingBlock: EYOCIG_clean_linker_4, # of connection points: 2
#     Edge 22, Type (0, 0), BuildingBlock: EYOCIG_clean_linker_4, # of connection points: 2
#     Edge 23, Type (0, 0), BuildingBlock: EYOCIG_clean_linker_4, # of connection points: 2
# Relax obj value: 0.222
# Max RMSD: 0.219
# Mean RMSD: 0.219
data_MOF--net-dft--node1-ICAMEG_clean_sbu_1--edge1-EYOCIG_clean_linker_4
_symmetry_space_group_name_H-M    P1
_symmetry_Int_Tables_number       1
_symmetry_cell_setting            triclinic
loop_
_symmetry_equiv_pos_as_xyz
'x, y, z'
_cell_length_a     27.439418
_cell_length_b     27.440449
_cell_length_c     38.120006
_cell_angle_alpha  90.002924
_cell_angle_beta   89.995235
_cell_angle_gamma 89.995218
loop_
_atom_site_label
_atom_site_type_symbol
_atom_site_fract_x
_atom_site_fract_y
_atom_site_fract_z
_atom_type_partial_charge
Co0 Co 0.26948 0.10645 0.15516 0.0
Co1 Co 0.35177 0.06135 0.2135 0.0
O2 O 0.33431 0.07797 0.16467 0.0
C3 C 0.29568 0.04845 0.09044 0.0
O4 O 0.32858 0.02297 0.10729 0.0
C5 C 0.44669 0.0941 0.17982 0.0
O6 O 0.42389 0.12005 0.1561 0.0
O7 O 0.34258 0.13162 0.22618 0.0
O8 O 0.26838 0.13831 0.20237 0.0
H9 H 0.32949 0.06936 0.3442 0.0
H10 H 0.35215 0.126 0.10637 0.0
O11 O 0.26811 0.07826 0.10647 0.0
H12 H 0.29008 0.28778 0.14032 0.0
H13 H 0.1378 0.18518 0.08215 0.0
H14 H 0.17924 0.11545 0.19754 0.0
H15 H 0.25226 0.21326 0.16381 0.0
H16 H 0.22038 0.15365 0.09365 0.0
O17 O 0.42337 0.07221 0.20398 0.0
H18 H 0.30889 0.08657 0.28246 0.0
H19 H 0.43193 0.00534 0.2484 0.0
H20 H 0.0964 0.14695 0.1872 0.0
H21 H 0.39062 0.19956 0.08193 0.0
H22 H 0.07516 0.18208 0.12915 0.0
H23 H 0.35968 0.28129 0.09891 0.0
O24 O 0.23897 0.04669 0.17539 0.0
H25 H 0.41313 0.9244 0.13775 0.0
H26 H 0.31902 0.96616 0.24375 0.0
H27 H 0.32901 0.87996 0.22714 0.0
H28 H 0.37655 0.85855 0.17387 0.0
H29 H 0.4018 0.01014 0.15509 0.0
H30 H 0.45407 0.98768 0.30976 0.0
H31 H 0.40258 0.0196 0.35817 0.0
O32 O 0.28161 0.0467 0.22551 0.0
C33 C 0.30275 0.15476 0.22135 0.0
C34 C 0.35217 0.05517 0.32333 0.0
C35 C 0.42212 0.00938 0.304 0.0
N36 N 0.36898 0.04683 0.26181 0.0
C37 C 0.34063 0.06472 0.28831 0.0
C38 C 0.40946 0.01966 0.26929 0.0
C39 C 0.3932 0.02728 0.33116 0.0
C40 C 0.33805 0.16126 0.11365 0.0
N41 N 0.29965 0.16505 0.13629 0.0
C42 C 0.36019 0.20289 0.09983 0.0
C43 C 0.34286 0.24872 0.10941 0.0
C44 C 0.30385 0.25239 0.13264 0.0
C45 C 0.28264 0.20998 0.14591 0.0
C46 C 0.14662 0.16996 0.10757 0.0
C47 C 0.17046 0.13086 0.17224 0.0
C48 C 0.19331 0.15186 0.11421 0.0
N49 N 0.20481 0.13275 0.1463 0.0
C50 C 0.1234 0.14858 0.16653 0.0
C51 C 0.1115 0.16824 0.13394 0.0
C52 C 0.24518 0.03316 0.20712 0.0
C53 C 0.39242 0.93324 0.16106 0.0
C54 C 0.33949 0.95726 0.22038 0.0
C55 C 0.34515 0.90831 0.21118 0.0
C56 C 0.37185 0.89632 0.18131 0.0
N57 N 0.35992 0.99333 0.20044 0.0
C58 C 0.386 0.98178 0.17108 0.0
Co59 Co 0.02515 0.26944 0.65523 0.0
Co60 Co 0.07021 0.35169 0.71361 0.0
O61 O 0.05359 0.33427 0.66477 0.0
C62 C 0.08297 0.29583 0.59047 0.0
O63 O 0.10825 0.32891 0.60727 0.0
C64 C 0.0372 0.44659 0.68007 0.0
O65 O 0.01089 0.42378 0.65656 0.0
O66 O 0.99993 0.3425 0.72628 0.0
O67 O 0.99327 0.26831 0.70243 0.0
H68 H 0.06218 0.32932 0.8443 0.0
H69 H 0.00552 0.35222 0.60653 0.0
O70 O 0.05334 0.2681 0.60653 0.0
H71 H 0.84379 0.28991 0.64037 0.0
H72 H 0.94651 0.13777 0.58216 0.0
H73 H 0.01616 0.17919 0.69758 0.0
H74 H 0.91835 0.25213 0.66383 0.0
H75 H 0.97799 0.22035 0.59369 0.0
O76 O 0.05937 0.42328 0.7041 0.0
H77 H 0.04498 0.30877 0.78255 0.0
H78 H 0.12622 0.4318 0.74855 0.0
H79 H 0.98472 0.09634 0.68721 0.0
H80 H 0.93192 0.39065 0.58211 0.0
H81 H 0.94963 0.07512 0.62913 0.0
H82 H 0.85023 0.35959 0.59904 0.0
O83 O 0.08492 0.23893 0.67545 0.0
H84 H 0.20715 0.41312 0.63789 0.0
H85 H 0.16541 0.31888 0.74383 0.0
H86 H 0.25161 0.32888 0.72722 0.0
H87 H 0.27301 0.37647 0.67397 0.0
H88 H 0.12141 0.40179 0.65525 0.0
H89 H 0.14389 0.4539 0.80992 0.0
H90 H 0.11196 0.40238 0.85831 0.0
O91 O 0.08486 0.28151 0.7256 0.0
C92 C 0.9768 0.30268 0.72142 0.0
C93 C 0.07638 0.35201 0.82344 0.0
C94 C 0.12218 0.42196 0.80415 0.0
N95 N 0.08473 0.36887 0.76192 0.0
C96 C 0.06683 0.3405 0.78842 0.0
C97 C 0.1119 0.40933 0.76943 0.0
C98 C 0.10428 0.39303 0.83128 0.0
C99 C 0.97028 0.33806 0.61378 0.0
N100 N 0.96652 0.29961 0.63637 0.0
C101 C 0.92863 0.36017 0.59998 0.0
C102 C 0.88281 0.34279 0.60952 0.0
C103 C 0.87917 0.30373 0.63271 0.0
C104 C 0.9216 0.28253 0.64597 0.0
C105 C 0.96172 0.14658 0.60758 0.0
C106 C 1.00077 0.17041 0.67227 0.0
C107 C 0.97979 0.19328 0.61424 0.0
N108 N 0.99888 0.20477 0.64634 0.0
C109 C 0.98309 0.12335 0.66654 0.0
C110 C 0.96344 0.11145 0.63395 0.0
C111 C 0.09843 0.24512 0.70718 0.0
C112 C 0.19831 0.39238 0.66119 0.0
C113 C 0.17431 0.33937 0.72048 0.0
C114 C 0.22325 0.34504 0.71127 0.0
C115 C 0.23523 0.37176 0.68142 0.0
N116 N 0.13823 0.35983 0.70056 0.0
C117 C 0.14977 0.38595 0.67121 0.0
Co118 Co 0.86228 0.02505 0.1552 0.0
Co119 Co 0.77994 0.07003 0.21356 0.0
O120 O 0.79743 0.05348 0.16472 0.0
C121 C 0.83607 0.08308 0.09051 0.0
O122 O 0.80314 0.10851 0.10736 0.0
C123 C 0.68507 0.0372 0.17987 0.0
O124 O 0.70789 0.01117 0.15621 0.0
O125 O 0.78915 0.99975 0.22619 0.0
O126 O 0.86338 0.99314 0.20239 0.0
H127 H 0.80215 0.06187 0.34425 0.0
H128 H 0.77963 0.00549 0.1064 0.0
O129 O 0.86366 0.05328 0.10652 0.0
H130 H 0.84183 0.84371 0.14024 0.0
H131 H 0.99407 0.94649 0.08218 0.0
H132 H 0.95249 0.01606 0.1976 0.0
H133 H 0.87958 0.91824 0.16378 0.0
H134 H 0.91146 0.97794 0.09367 0.0
O135 O 0.70835 0.05916 0.20401 0.0
H136 H 0.8228 0.04476 0.28251 0.0
H137 H 0.69974 0.12597 0.24848 0.0
H138 H 0.03537 0.98463 0.18726 0.0
H139 H 0.74124 0.93192 0.0819 0.0
H140 H 0.05667 0.94959 0.12918 0.0
H141 H 0.77224 0.8502 0.09883 0.0
O142 O 0.89275 0.0848 0.17547 0.0
H143 H 0.71854 0.20704 0.13788 0.0
H144 H 0.81263 0.16521 0.24387 0.0
H145 H 0.80261 0.25142 0.22732 0.0
H146 H 0.75508 0.27287 0.17405 0.0
H147 H 0.72991 0.12129 0.15518 0.0
H148 H 0.67755 0.14355 0.30985 0.0
H149 H 0.72903 0.11159 0.35825 0.0
O150 O 0.85009 0.08471 0.22559 0.0
C151 C 0.82899 0.97664 0.22135 0.0
C152 C 0.77947 0.07608 0.32339 0.0
C153 C 0.70952 0.12187 0.30408 0.0
N154 N 0.76269 0.0845 0.26187 0.0
C155 C 0.79104 0.06659 0.28836 0.0
C156 C 0.7222 0.11164 0.26937 0.0
C157 C 0.73843 0.10395 0.33123 0.0
C158 C 0.79376 0.97023 0.11365 0.0
N159 N 0.83216 0.96645 0.13629 0.0
C160 C 0.77167 0.9286 0.09981 0.0
C161 C 0.78902 0.88277 0.10935 0.0
C162 C 0.82803 0.8791 0.13258 0.0
C163 C 0.84921 0.92152 0.14588 0.0
C164 C 0.98522 0.96167 0.10759 0.0
C165 C 0.96131 1.00068 0.17229 0.0
C166 C 0.93851 0.97973 0.11424 0.0
N167 N 0.92698 0.9988 0.14634 0.0
C168 C 0.00838 0.98301 0.16658 0.0
C169 C 0.02032 0.96339 0.13398 0.0
C170 C 0.88651 0.0983 0.2072 0.0
C171 C 0.73925 0.19818 0.16119 0.0
C172 C 0.79217 0.17413 0.22051 0.0
C173 C 0.78649 0.22308 0.21134 0.0
C174 C 0.7598 0.23509 0.18147 0.0
N175 N 0.77177 0.13807 0.20054 0.0
C176 C 0.74569 0.14963 0.17118 0.0
Co177 Co 0.10666 0.86214 0.6552 0.0
Co178 Co 0.0615 0.77989 0.71354 0.0
O179 O 0.07814 0.79734 0.66471 0.0
C180 C 0.04873 0.83596 0.59046 0.0
O181 O 0.02329 0.80301 0.60727 0.0
C182 C 0.09415 0.68493 0.67985 0.0
O183 O 0.12008 0.70769 0.65611 0.0
O184 O 0.13178 0.78901 0.72622 0.0
O185 O 0.13851 0.86321 0.70241 0.0
H186 H 0.06951 0.80216 0.84424 0.0
H187 H 0.12619 0.77944 0.60642 0.0
O188 O 0.07849 0.86355 0.6065 0.0
H189 H 0.288 0.84141 0.64037 0.0
H190 H 0.18553 0.99376 0.58222 0.0
H191 H 0.11573 0.95236 0.69759 0.0
H192 H 0.21348 0.87929 0.66384 0.0
H193 H 0.15392 0.91122 0.59369 0.0
O194 O 0.07231 0.70828 0.70402 0.0
H195 H 0.08675 0.82275 0.7825 0.0
H196 H 0.00542 0.69979 0.74845 0.0
H197 H 0.14731 0.03517 0.68727 0.0
H198 H 0.19974 0.74092 0.58199 0.0
H199 H 0.18247 0.05638 0.62922 0.0
H200 H 0.28148 0.77181 0.59898 0.0
O201 O 0.04692 0.8927 0.67543 0.0
H202 H 0.9245 0.71869 0.63778 0.0
H203 H 0.96633 0.81272 0.74379 0.0
H204 H 0.88012 0.80283 0.72719 0.0
H205 H 0.85868 0.75534 0.6739 0.0
H206 H 0.01025 0.72993 0.65512 0.0
H207 H 0.98772 0.67767 0.80981 0.0
H208 H 0.01968 0.72913 0.85822 0.0
O209 O 0.0469 0.85006 0.72555 0.0
C210 C 0.15495 0.82881 0.72138 0.0
C211 C 0.05531 0.7795 0.82337 0.0
C212 C 0.00946 0.7096 0.80405 0.0
N213 N 0.04696 0.76269 0.76185 0.0
C214 C 0.06487 0.79103 0.78835 0.0
C215 C 0.01975 0.72224 0.76934 0.0
C216 C 0.02738 0.7385 0.8312 0.0
C217 C 0.16145 0.79352 0.6137 0.0
N218 N 0.16525 0.83193 0.63633 0.0
C219 C 0.20308 0.77136 0.59989 0.0
C220 C 0.24892 0.78865 0.60947 0.0
C221 C 0.25261 0.82766 0.63269 0.0
C222 C 0.21019 0.84891 0.64595 0.0
C223 C 0.17029 0.98495 0.60762 0.0
C224 C 0.13115 0.96113 0.6723 0.0
C225 C 0.15215 0.93828 0.61426 0.0
N226 N 0.13301 0.92679 0.64635 0.0
C227 C 0.14891 0.00817 0.66659 0.0
C228 C 0.1686 0.02007 0.63401 0.0
C229 C 0.03338 0.8865 0.70716 0.0
C230 C 0.93336 0.73938 0.6611 0.0
C231 C 0.95742 0.79227 0.72043 0.0
C232 C 0.90847 0.78667 0.71122 0.0
C233 C 0.89646 0.76 0.68135 0.0
N234 N 0.99347 0.77181 0.70049 0.0
C235 C 0.98191 0.74575 0.67112 0.0
Co236 Co 0.26952 0.025 0.85159 0.0
Co237 Co 0.35178 0.07007 0.79321 0.0
O238 O 0.33435 0.05346 0.84205 0.0
C239 C 0.2959 0.08278 0.91637 0.0
O240 O 0.32905 0.10802 0.8996 0.0
C241 C 0.44669 0.03714 0.82678 0.0
O242 O 0.4239 0.0109 0.85033 0.0
O243 O 0.34261 0.99979 0.78055 0.0
O244 O 0.26841 0.99313 0.80439 0.0
H245 H 0.32944 0.06201 0.66252 0.0
H246 H 0.35231 0.00538 0.90029 0.0
O247 O 0.26816 0.0532 0.90028 0.0
H248 H 0.29001 0.84365 0.86646 0.0
H249 H 0.13783 0.94635 0.92464 0.0
H250 H 0.17928 0.016 0.80922 0.0
H251 H 0.25222 0.91821 0.84299 0.0
H252 H 0.22042 0.97784 0.91312 0.0
O253 O 0.42338 0.05925 0.80272 0.0
H254 H 0.30888 0.04482 0.72427 0.0
H255 H 0.43189 0.1261 0.75827 0.0
H256 H 0.09643 0.98454 0.81958 0.0
H257 H 0.39074 0.93179 0.92471 0.0
H258 H 0.07519 0.94946 0.87765 0.0
H259 H 0.35968 0.8501 0.90779 0.0
O260 O 0.23901 0.08476 0.83137 0.0
H261 H 0.41313 0.20704 0.86893 0.0
H262 H 0.31897 0.16525 0.76297 0.0
H263 H 0.32892 0.25146 0.77958 0.0
H264 H 0.37648 0.27288 0.83283 0.0
H265 H 0.40184 0.12129 0.85158 0.0
H266 H 0.45399 0.14375 0.6969 0.0
H267 H 0.40249 0.1118 0.64851 0.0
O268 O 0.2816 0.08471 0.78122 0.0
C269 C 0.30279 0.97665 0.78541 0.0
C270 C 0.35212 0.07622 0.68338 0.0
C271 C 0.42206 0.12204 0.70267 0.0
N272 N 0.36896 0.08459 0.7449 0.0
C273 C 0.34061 0.06668 0.71841 0.0
C274 C 0.40942 0.11177 0.73739 0.0
C275 C 0.39313 0.10412 0.67554 0.0
C276 C 0.33814 0.97014 0.89304 0.0
N277 N 0.29969 0.96639 0.87045 0.0
C278 C 0.36026 0.9285 0.90685 0.0
C279 C 0.34288 0.88267 0.89731 0.0
C280 C 0.30382 0.87903 0.87412 0.0
C281 C 0.28262 0.92147 0.86086 0.0
C282 C 0.14665 0.96156 0.89922 0.0
C283 C 0.1705 1.00061 0.83453 0.0
C284 C 0.19335 0.97963 0.89256 0.0
N285 N 0.20485 0.99873 0.86047 0.0
C286 C 0.12344 0.98292 0.84025 0.0
C287 C 0.11153 0.96328 0.87285 0.0
C288 C 0.2452 0.09828 0.79963 0.0
C289 C 0.39241 0.19819 0.84563 0.0
C290 C 0.33944 0.17416 0.78633 0.0
C291 C 0.34509 0.22311 0.79553 0.0
C292 C 0.37179 0.2351 0.82539 0.0
N293 N 0.3599 0.1381 0.80626 0.0
C294 C 0.386 0.14965 0.83561 0.0
Co295 Co 0.10651 0.26942 0.35168 0.0
Co296 Co 0.06147 0.35165 0.29327 0.0
O297 O 0.07806 0.33425 0.34212 0.0
C298 C 0.04858 0.2958 0.4164 0.0
O299 O 0.02325 0.32882 0.39958 0.0
C300 C 0.09441 0.44656 0.32682 0.0
O301 O 0.12061 0.42377 0.3504 0.0
O302 O 0.13175 0.34243 0.28062 0.0
O303 O 0.13841 0.26826 0.30449 0.0
H304 H 0.06956 0.3292 0.16259 0.0
H305 H 0.12608 0.3522 0.40039 0.0
O306 O 0.07828 0.26812 0.40037 0.0
H307 H 0.28785 0.28992 0.36659 0.0
H308 H 0.18511 0.13779 0.42481 0.0
H309 H 0.11551 0.17914 0.30936 0.0
H310 H 0.21331 0.25212 0.3431 0.0
H311 H 0.15364 0.22038 0.41324 0.0
O312 O 0.07232 0.42325 0.30276 0.0
H313 H 0.08673 0.30868 0.22435 0.0
H314 H 0.00548 0.43176 0.2583 0.0
H315 H 0.14695 0.09629 0.31977 0.0
H316 H 0.19965 0.39064 0.42483 0.0
H317 H 0.182 0.0751 0.37785 0.0
H318 H 0.28137 0.3596 0.40792 0.0
O319 O 0.04675 0.23891 0.33146 0.0
H320 H 0.92449 0.41314 0.36894 0.0
H321 H 0.96628 0.31886 0.26303 0.0
H322 H 0.88007 0.32888 0.27961 0.0
H323 H 0.85865 0.3765 0.33284 0.0
H324 H 0.01024 0.40178 0.35162 0.0
H325 H 0.98785 0.45382 0.19692 0.0
H326 H 0.0198 0.40227 0.14855 0.0
O327 O 0.04682 0.28147 0.2813 0.0
C328 C 0.15488 0.30261 0.28549 0.0
C329 C 0.05535 0.35191 0.18344 0.0
C330 C 0.00955 0.42188 0.20271 0.0
N331 N 0.04698 0.3688 0.24495 0.0
C332 C 0.06488 0.34041 0.21847 0.0
C333 C 0.01981 0.40927 0.23743 0.0
C334 C 0.02746 0.39292 0.17558 0.0
C335 C 0.16133 0.33804 0.39315 0.0
N336 N 0.16511 0.2996 0.37055 0.0
C337 C 0.20297 0.36017 0.40696 0.0
C338 C 0.2488 0.34279 0.39743 0.0
C339 C 0.25246 0.30374 0.37424 0.0
C340 C 0.21004 0.28253 0.36097 0.0
C341 C 0.16991 0.14659 0.39938 0.0
C342 C 0.13089 0.17038 0.33467 0.0
C343 C 0.15185 0.19328 0.3927 0.0
N344 N 0.13277 0.20475 0.36059 0.0
C345 C 0.14857 0.12332 0.34042 0.0
C346 C 0.1682 0.11144 0.37303 0.0
C347 C 0.03324 0.24508 0.29972 0.0
C348 C 0.93334 0.39239 0.34565 0.0
C349 C 0.95737 0.33936 0.28638 0.0
C350 C 0.90843 0.34504 0.29556 0.0
C351 C 0.89643 0.37178 0.32541 0.0
N352 N 0.99344 0.35982 0.3063 0.0
C353 C 0.98189 0.38595 0.33564 0.0
Co354 Co 0.86224 0.10653 0.85164 0.0
Co355 Co 0.78002 0.06137 0.79329 0.0
O356 O 0.79743 0.07803 0.84212 0.0
C357 C 0.83592 0.04875 0.91644 0.0
O358 O 0.80283 0.02345 0.89966 0.0
C359 C 0.68505 0.0941 0.82691 0.0
O360 O 0.7078 0.12014 0.85059 0.0
O361 O 0.78915 0.13164 0.7806 0.0
O362 O 0.86335 0.13837 0.80443 0.0
H363 H 0.80239 0.0693 0.66259 0.0
H364 H 0.77946 0.12613 0.90036 0.0
O365 O 0.86362 0.07838 0.90035 0.0
H366 H 0.8416 0.28788 0.86643 0.0
H367 H 0.99385 0.18536 0.92466 0.0
H368 H 0.95249 0.11556 0.80928 0.0
H369 H 0.87946 0.21333 0.84299 0.0
H370 H 0.9113 0.15379 0.91316 0.0
O371 O 0.7084 0.07217 0.80278 0.0
H372 H 0.82292 0.08658 0.72433 0.0
H373 H 0.69994 1.00526 0.75837 0.0
H374 H 0.03531 0.1471 0.81962 0.0
H375 H 0.74096 0.19971 0.92475 0.0
H376 H 0.05651 0.18226 0.87768 0.0
H377 H 0.77194 0.28142 0.90778 0.0
O378 O 0.8928 0.04678 0.83144 0.0
H379 H 0.71876 0.92442 0.86907 0.0
H380 H 0.81288 0.96618 0.76307 0.0
H381 H 0.80298 0.87998 0.77971 0.0
H382 H 0.75544 0.85857 0.83298 0.0
H383 H 0.73 0.01015 0.85169 0.0
H384 H 0.67787 0.98753 0.69701 0.0
H385 H 0.72937 0.01946 0.64861 0.0
O386 O 0.85021 0.04676 0.7813 0.0
C387 C 0.82896 0.1548 0.78544 0.0
C388 C 0.77971 0.05511 0.68346 0.0
C389 C 0.70979 0.00927 0.70277 0.0
N390 N 0.76285 0.0468 0.74498 0.0
C391 C 0.79121 0.06469 0.71848 0.0
C392 C 0.72241 0.01959 0.73748 0.0
C393 C 0.73872 0.02717 0.67563 0.0
C394 C 0.79359 0.16137 0.89309 0.0
N395 N 0.83203 0.16514 0.87049 0.0
C396 C 0.77143 0.20302 0.90688 0.0
C397 C 0.78877 0.24884 0.89731 0.0
C398 C 0.82782 0.2525 0.87411 0.0
C399 C 0.84906 0.21007 0.86087 0.0
C400 C 0.98505 0.17012 0.89925 0.0
C401 C 0.96126 0.13098 0.83457 0.0
C402 C 0.93838 0.152 0.8926 0.0
N403 N 0.9269 0.13286 0.86051 0.0
C404 C 0.0083 0.14872 0.84029 0.0
C405 C 0.02018 0.1684 0.87288 0.0
C406 C 0.88662 0.03323 0.79971 0.0
C407 C 0.73947 0.93326 0.84576 0.0
C408 C 0.79241 0.95728 0.78644 0.0
C409 C 0.7868 0.90833 0.79565 0.0
C410 C 0.7601 0.89634 0.82553 0.0
N411 N 0.77193 0.99334 0.80636 0.0
C412 C 0.74584 0.9818 0.83572 0.0
Co413 Co 0.0251 0.86212 0.3516 0.0
Co414 Co 0.07028 0.77985 0.29326 0.0
O415 O 0.05361 0.79731 0.34209 0.0
C416 C 0.08297 0.83591 0.41637 0.0
O417 O 0.10838 0.80291 0.39957 0.0
C418 C 0.03749 0.68493 0.32689 0.0
O419 O 0.0114 0.70771 0.35054 0.0
O420 O 1.00002 0.78899 0.28057 0.0
O421 O 0.99327 0.8632 0.30438 0.0
H422 H 0.06237 0.80213 0.16257 0.0
H423 H 0.00552 0.77941 0.40035 0.0
O424 O 0.05324 0.86352 0.4003 0.0
H425 H 0.84375 0.84147 0.36638 0.0
H426 H 0.94623 0.99378 0.42457 0.0
H427 H 0.01608 0.95234 0.30921 0.0
H428 H 0.91829 0.87932 0.34293 0.0
H429 H 0.97782 0.91122 0.41309 0.0
O430 O 0.05947 0.70825 0.30278 0.0
H431 H 0.04509 0.82271 0.2243 0.0
H432 H 0.12639 0.69974 0.25837 0.0
H433 H 0.98452 0.03516 0.31952 0.0
H434 H 0.93195 0.74092 0.42476 0.0
H435 H 0.94934 0.0564 0.37757 0.0
H436 H 0.85023 0.77186 0.40776 0.0
O437 O 0.08486 0.89266 0.33139 0.0
H438 H 0.20721 0.7186 0.36907 0.0
H439 H 0.16548 0.81267 0.26306 0.0
H440 H 0.25168 0.80275 0.2797 0.0
H441 H 0.27307 0.75524 0.33298 0.0
H442 H 0.12148 0.72986 0.35168 0.0
H443 H 0.14413 0.67762 0.19702 0.0
H444 H 0.11221 0.72909 0.1486 0.0
O445 O 0.0849 0.85003 0.28126 0.0
C446 C 0.97685 0.8288 0.2854 0.0
C447 C 0.07656 0.77946 0.18344 0.0
C448 C 0.12239 0.70955 0.20277 0.0
N449 N 0.08486 0.76265 0.24496 0.0
C450 C 0.06697 0.79099 0.21846 0.0
C451 C 0.11207 0.7222 0.23748 0.0
C452 C 0.10449 0.73846 0.17562 0.0
C453 C 0.97027 0.79352 0.39307 0.0
N454 N 0.96649 0.83193 0.37045 0.0
C455 C 0.92863 0.77137 0.40687 0.0
C456 C 0.8828 0.78868 0.39728 0.0
C457 C 0.87914 0.8277 0.37406 0.0
C458 C 0.92156 0.84893 0.36082 0.0
C459 C 0.96148 0.98496 0.39916 0.0
C460 C 1.00065 0.96112 0.3345 0.0
C461 C 0.97961 0.93828 0.39253 0.0
N462 N 0.99876 0.92678 0.36045 0.0
C463 C 0.9829 0.00817 0.3402 0.0
C464 C 0.9632 0.02007 0.37278 0.0
C465 C 0.09842 0.88645 0.29967 0.0
C466 C 0.19838 0.7393 0.34575 0.0
C467 C 0.17438 0.79222 0.28642 0.0
C468 C 0.22332 0.78659 0.29564 0.0
C469 C 0.2353 0.75991 0.32552 0.0
N470 N 0.13831 0.77176 0.30634 0.0
C471 C 0.14984 0.74568 0.33571 0.0
C472 C 0.29707 0.05986 0.02154 0.0
C473 C 0.29822 0.05286 0.05284 0.0
C474 C 0.29711 0.07125 0.98527 0.0
C475 C 0.29833 0.07826 0.95397 0.0
C476 C 0.07144 0.29713 0.52158 0.0
C477 C 0.07846 0.29831 0.55287 0.0
C478 C 0.06004 0.29714 0.4853 0.0
C479 C 0.05304 0.29831 0.454 0.0
C480 C 0.83468 0.06029 0.98533 0.0
C481 C 0.83348 0.05327 0.95403 0.0
C482 C 0.8347 0.07168 0.02161 0.0
C483 C 0.83354 0.07867 0.05291 0.0
C484 C 0.07152 0.83465 0.48527 0.0
C485 C 0.07851 0.83345 0.45397 0.0
C486 C 0.06015 0.83466 0.52155 0.0
C487 C 0.05316 0.83348 0.55285 0.0
C488 C 0.541 0.07301 0.17548 0.0
C489 C 0.49818 0.08391 0.17619 0.0
C490 C 0.59075 0.05825 0.17549 0.0
C491 C 0.63358 0.04736 0.17622 0.0
C492 C 0.05824 0.54089 0.67562 0.0
C493 C 0.04733 0.49807 0.67638 0.0
C494 C 0.07302 0.59063 0.67558 0.0
C495 C 0.08394 0.63344 0.67626 0.0
C496 C 0.59074 0.07298 0.83121 0.0
C497 C 0.63356 0.0839 0.83051 0.0
C498 C 0.541 0.0582 0.83119 0.0
C499 C 0.49818 0.04729 0.83044 0.0
C500 C 0.07335 0.54088 0.33122 0.0
C501 C 0.08426 0.49805 0.33048 0.0
C502 C 0.05858 0.59062 0.33123 0.0
C503 C 0.04767 0.63344 0.33052 0.0
C504 C 0.23618 0.2714 0.25802 0.0
C505 C 0.19998 0.29255 0.26774 0.0
C506 C 0.27157 0.23603 0.24886 0.0
C507 C 0.29271 0.19985 0.23912 0.0
C508 C 0.89548 0.2715 0.74885 0.0
C509 C 0.93168 0.29264 0.73916 0.0
C510 C 0.8601 0.23611 0.75798 0.0
C511 C 0.83897 0.19991 0.76769 0.0
C512 C 0.89555 0.85993 0.25791 0.0
C513 C 0.93175 0.83881 0.26763 0.0
C514 C 0.86016 0.89532 0.24877 0.0
C515 C 0.83902 0.93152 0.23907 0.0
C516 C 0.23626 0.85994 0.74885 0.0
C517 C 0.20006 0.83881 0.73914 0.0
C518 C 0.27164 0.89533 0.75798 0.0
C519 C 0.29277 0.93153 0.76768 0.0
C520 C 0.95067 0.97997 0.76454 0.0
C521 C 0.92328 1.00413 0.7824 0.0
C522 C 0.98012 0.95052 0.74235 0.0
C523 C 1.00428 0.92314 0.72449 0.0
C524 C 0.18116 0.9799 0.24231 0.0
C525 C 0.20854 1.00406 0.22445 0.0
C526 C 0.1517 0.95046 0.26449 0.0
C527 C 0.12753 0.92309 0.28235 0.0
C528 C 0.15173 0.18108 0.74233 0.0
C529 C 0.12756 0.20848 0.72449 0.0
C530 C 0.18119 0.15161 0.76448 0.0
C531 C 0.20857 0.12742 0.78232 0.0
C532 C 0.97994 0.18106 0.26457 0.0
C533 C 1.00411 0.20845 0.28241 0.0
C534 C 0.95049 0.1516 0.2424 0.0
C535 C 0.92312 0.12743 0.22454 0.0
loop_
_geom_bond_atom_site_label_1
_geom_bond_atom_site_label_2
_geom_bond_distance
_geom_bond_site_symmetry_2
_ccdc_geom_bond_type
Co0 O2 2.143 . S
Co0 O8 2.074 . S
Co0 O11 2.093 . S
Co0 O24 2.097 . S
Co0 N41 2.151 . S
Co0 N49 2.214 . S
Co1 O2 2.160 . S
Co1 O7 2.058 . S
Co1 O17 2.057 . S
Co1 O32 2.037 . S
Co1 N36 2.145 . S
Co1 N57 2.257 1_545 S
O2 Co0 2.143 . S
O2 Co1 2.160 . S
C3 O4 1.278 . S
C3 O11 1.224 . S
O4 C3 1.278 . S
C5 O6 1.245 . S
C5 O17 1.232 . S
O6 C5 1.245 . S
O7 Co1 2.058 . S
O7 C33 1.269 . S
O8 Co0 2.074 . S
O8 C33 1.257 . S
H9 C34 0.930 . S
H10 C40 0.930 . S
O11 Co0 2.093 . S
O11 C3 1.224 . S
H12 C44 0.929 . S
H13 C46 0.930 . S
H14 C47 0.930 . S
H15 C45 0.929 . S
H16 C48 0.928 . S
O17 Co1 2.057 . S
O17 C5 1.232 . S
H18 C37 0.929 . S
H19 C38 0.929 . S
H20 C50 0.931 . S
H21 C42 0.929 . S
H22 C51 0.930 . S
H23 C43 0.931 . S
O24 Co0 2.097 . S
O24 C52 1.214 . S
H25 C53 0.929 . S
H26 C54 0.929 . S
H27 C55 0.930 . S
H28 C56 0.929 . S
H29 C58 0.930 1_545 S
H30 C35 0.930 . S
H31 C39 0.930 . S
O32 Co1 2.037 . S
O32 C52 1.234 . S
C33 O7 1.269 . S
C33 O8 1.257 . S
C34 H9 0.930 . S
C34 C37 1.388 . S
C34 C39 1.418 1_545 S
C35 H30 0.930 . S
C35 C38 1.404 . S
C35 C39 1.353 1_545 S
N36 Co1 2.145 . S
N36 C37 1.397 . S
N36 C38 1.334 . S
C37 H18 0.929 . S
C37 C34 1.388 . S
C37 N36 1.397 . S
C38 H19 0.929 . S
C38 C35 1.404 . S
C38 N36 1.334 . S
C39 H31 0.930 . S
C39 C34 1.418 1_565 S
C39 C35 1.353 1_565 S
C40 H10 0.930 . S
C40 N41 1.330 . S
C40 C42 1.446 . S
N41 Co0 2.151 . S
N41 C40 1.330 . S
N41 C45 1.418 . S
C42 H21 0.929 . S
C42 C40 1.446 . S
C42 C43 1.332 . S
C43 H23 0.931 . S
C43 C42 1.332 . S
C43 C44 1.267 . S
C44 H12 0.929 . S
C44 C43 1.267 . S
C44 C45 1.251 . S
C45 H15 0.929 . S
C45 N41 1.418 . S
C45 C44 1.251 . S
C46 H13 0.930 . S
C46 C48 1.406 . S
C46 C51 1.261 . S
C47 H14 0.930 . S
C47 N49 1.325 . S
C47 C50 1.357 . S
C48 H16 0.928 . S
C48 C46 1.406 . S
C48 N49 1.261 . S
N49 Co0 2.214 . S
N49 C47 1.325 . S
N49 C48 1.261 . S
C50 H20 0.931 . S
C50 C47 1.357 . S
C50 C51 1.312 . S
C51 H22 0.930 . S
C51 C46 1.261 . S
C51 C50 1.312 . S
C52 O24 1.214 . S
C52 O32 1.234 . S
C53 H25 0.929 . S
C53 C56 1.391 . S
C53 C58 1.391 . S
C54 H26 0.929 . S
C54 C55 1.390 . S
C54 N57 1.391 . S
C55 H27 0.930 . S
C55 C54 1.390 . S
C55 C56 1.392 . S
C56 H28 0.929 . S
C56 C53 1.391 . S
C56 C55 1.392 . S
N57 Co1 2.257 1_565 S
N57 C54 1.391 . S
N57 C58 1.388 . S
C58 H29 0.930 1_565 S
C58 C53 1.391 . S
C58 N57 1.388 . S
Co59 O61 2.143 . S
Co59 O67 2.074 1_455 S
Co59 O70 2.093 . S
Co59 O83 2.097 . S
Co59 N100 2.151 1_455 S
Co59 N108 2.214 1_455 S
Co60 O61 2.160 . S
Co60 O66 2.058 1_455 S
Co60 O76 2.057 . S
Co60 O91 2.037 . S
Co60 N95 2.145 . S
Co60 N116 2.257 . S
O61 Co59 2.143 . S
O61 Co60 2.160 . S
C62 O63 1.278 . S
C62 O70 1.224 . S
O63 C62 1.278 . S
C64 O65 1.245 1_455 S
C64 O76 1.232 . S
O65 C64 1.245 1_655 S
O66 Co60 2.058 1_655 S
O66 C92 1.269 . S
O67 Co59 2.074 1_655 S
O67 C92 1.257 . S
H68 C93 0.930 . S
H69 C99 0.930 . S
O70 Co59 2.093 . S
O70 C62 1.224 . S
H71 C103 0.929 . S
H72 C105 0.930 . S
H73 C106 0.934 . S
H74 C104 0.929 . S
H75 C107 0.928 . S
O76 Co60 2.057 . S
O76 C64 1.232 . S
H77 C96 0.929 . S
H78 C97 0.929 . S
H79 C109 0.931 . S
H80 C101 0.929 . S
H81 C110 0.930 . S
H82 C102 0.931 . S
O83 Co59 2.097 . S
O83 C111 1.214 . S
H84 C112 0.929 . S
H85 C113 0.929 . S
H86 C114 0.930 . S
H87 C115 0.929 . S
H88 C117 0.930 . S
H89 C94 0.930 . S
H90 C98 0.930 . S
O91 Co60 2.037 . S
O91 C111 1.234 . S
C92 O66 1.269 . S
C92 O67 1.257 . S
C93 H68 0.930 . S
C93 C96 1.388 . S
C93 C98 1.418 . S
C94 H89 0.930 . S
C94 C97 1.404 . S
C94 C98 1.353 . S
N95 Co60 2.145 . S
N95 C96 1.397 . S
N95 C97 1.334 . S
C96 H77 0.929 . S
C96 C93 1.388 . S
C96 N95 1.397 . S
C97 H78 0.929 . S
C97 C94 1.404 . S
C97 N95 1.334 . S
C98 H90 0.930 . S
C98 C93 1.418 . S
C98 C94 1.353 . S
C99 H69 0.930 . S
C99 N100 1.330 . S
C99 C101 1.446 . S
N100 Co59 2.151 1_655 S
N100 C99 1.330 . S
N100 C104 1.418 . S
C101 H80 0.929 . S
C101 C99 1.446 . S
C101 C102 1.332 . S
C102 H82 0.931 . S
C102 C101 1.332 . S
C102 C103 1.267 . S
C103 H71 0.929 . S
C103 C102 1.267 . S
C103 C104 1.251 . S
C104 H74 0.929 . S
C104 N100 1.418 . S
C104 C103 1.251 . S
C105 H72 0.930 . S
C105 C107 1.406 . S
C105 C110 1.261 . S
C106 H73 0.934 . S
C106 N108 1.324 1_455 S
C106 C109 1.355 1_455 S
C107 H75 0.928 . S
C107 C105 1.406 . S
C107 N108 1.261 . S
N108 Co59 2.214 1_655 S
N108 C106 1.324 1_655 S
N108 C107 1.261 . S
C109 H79 0.931 . S
C109 C106 1.355 1_655 S
C109 C110 1.312 . S
C110 H81 0.930 . S
C110 C105 1.261 . S
C110 C109 1.312 . S
C111 O83 1.214 . S
C111 O91 1.234 . S
C112 H84 0.929 . S
C112 C115 1.391 . S
C112 C117 1.391 . S
C113 H85 0.929 . S
C113 C114 1.390 . S
C113 N116 1.391 . S
C114 H86 0.930 . S
C114 C113 1.390 . S
C114 C115 1.392 . S
C115 H87 0.929 . S
C115 C112 1.391 . S
C115 C114 1.392 . S
N116 Co60 2.257 . S
N116 C113 1.391 . S
N116 C117 1.388 . S
C117 H88 0.930 . S
C117 C112 1.391 . S
C117 N116 1.388 . S
Co118 O120 2.143 . S
Co118 O126 2.074 1_545 S
Co118 O129 2.093 . S
Co118 O142 2.097 . S
Co118 N159 2.151 1_545 S
Co118 N167 2.214 1_545 S
Co119 O120 2.160 . S
Co119 O125 2.058 1_545 S
Co119 O135 2.057 . S
Co119 O150 2.037 . S
Co119 N154 2.145 . S
Co119 N175 2.257 . S
O120 Co118 2.143 . S
O120 Co119 2.160 . S
C121 O122 1.278 . S
C121 O129 1.224 . S
O122 C121 1.278 . S
C123 O124 1.245 1_545 S
C123 O135 1.232 . S
O124 C123 1.245 1_565 S
O125 Co119 2.058 1_565 S
O125 C151 1.269 . S
O126 Co118 2.074 1_565 S
O126 C151 1.257 . S
H127 C152 0.930 . S
H128 C158 0.930 . S
O129 Co118 2.093 . S
O129 C121 1.224 . S
H130 C162 0.929 . S
H131 C164 0.930 1_455 S
H132 C165 0.934 . S
H133 C163 0.929 . S
H134 C166 0.928 . S
O135 Co119 2.057 . S
O135 C123 1.232 . S
H136 C155 0.929 . S
H137 C156 0.929 . S
H138 C168 0.931 . S
H139 C160 0.929 . S
H140 C169 0.930 . S
H141 C161 0.931 . S
O142 Co118 2.097 . S
O142 C170 1.214 . S
H143 C171 0.929 . S
H144 C172 0.929 . S
H145 C173 0.930 . S
H146 C174 0.929 . S
H147 C176 0.930 . S
H148 C153 0.930 . S
H149 C157 0.930 . S
O150 Co119 2.037 . S
O150 C170 1.234 . S
C151 O125 1.269 . S
C151 O126 1.257 . S
C152 H127 0.930 . S
C152 C155 1.388 . S
C152 C157 1.418 . S
C153 H148 0.930 . S
C153 C156 1.404 . S
C153 C157 1.353 . S
N154 Co119 2.145 . S
N154 C155 1.397 . S
N154 C156 1.334 . S
C155 H136 0.929 . S
C155 C152 1.388 . S
C155 N154 1.397 . S
C156 H137 0.929 . S
C156 C153 1.404 . S
C156 N154 1.334 . S
C157 H149 0.930 . S
C157 C152 1.418 . S
C157 C153 1.353 . S
C158 H128 0.930 . S
C158 N159 1.330 . S
C158 C160 1.446 . S
N159 Co118 2.151 1_565 S
N159 C158 1.330 . S
N159 C163 1.418 . S
C160 H139 0.929 . S
C160 C158 1.446 . S
C160 C161 1.332 . S
C161 H141 0.931 . S
C161 C160 1.332 . S
C161 C162 1.267 . S
C162 H130 0.929 . S
C162 C161 1.267 . S
C162 C163 1.251 . S
C163 H133 0.929 . S
C163 N159 1.418 . S
C163 C162 1.251 . S
C164 H131 0.930 1_655 S
C164 C166 1.406 . S
C164 C169 1.261 1_655 S
C165 H132 0.934 . S
C165 N167 1.324 1_545 S
C165 C168 1.355 1_645 S
C166 H134 0.928 . S
C166 C164 1.406 . S
C166 N167 1.261 . S
N167 Co118 2.214 1_565 S
N167 C165 1.324 1_565 S
N167 C166 1.261 . S
C168 H138 0.931 . S
C168 C165 1.355 1_465 S
C168 C169 1.312 . S
C169 H140 0.930 . S
C169 C164 1.261 1_455 S
C169 C168 1.312 . S
C170 O142 1.214 . S
C170 O150 1.234 . S
C171 H143 0.929 . S
C171 C174 1.391 . S
C171 C176 1.391 . S
C172 H144 0.929 . S
C172 C173 1.390 . S
C172 N175 1.391 . S
C173 H145 0.930 . S
C173 C172 1.390 . S
C173 C174 1.392 . S
C174 H146 0.929 . S
C174 C171 1.391 . S
C174 C173 1.392 . S
N175 Co119 2.257 . S
N175 C172 1.391 . S
N175 C176 1.388 . S
C176 H147 0.930 . S
C176 C171 1.391 . S
C176 N175 1.388 . S
Co177 O179 2.143 . S
Co177 O185 2.074 . S
Co177 O188 2.093 . S
Co177 O201 2.097 . S
Co177 N218 2.151 . S
Co177 N226 2.214 . S
Co178 O179 2.160 . S
Co178 O184 2.058 . S
Co178 O194 2.057 . S
Co178 O209 2.037 . S
Co178 N213 2.145 . S
Co178 N234 2.257 1_455 S
O179 Co177 2.143 . S
O179 Co178 2.160 . S
C180 O181 1.278 . S
C180 O188 1.224 . S
O181 C180 1.278 . S
C182 O183 1.245 . S
C182 O194 1.232 . S
O183 C182 1.245 . S
O184 Co178 2.058 . S
O184 C210 1.269 . S
O185 Co177 2.074 . S
O185 C210 1.257 . S
H186 C211 0.930 . S
H187 C217 0.930 . S
O188 Co177 2.093 . S
O188 C180 1.224 . S
H189 C221 0.929 . S
H190 C223 0.930 1_545 S
H191 C224 0.930 . S
H192 C222 0.929 . S
H193 C225 0.928 . S
O194 Co178 2.057 . S
O194 C182 1.232 . S
H195 C214 0.929 . S
H196 C215 0.929 . S
H197 C227 0.931 . S
H198 C219 0.929 . S
H199 C228 0.930 . S
H200 C220 0.931 . S
O201 Co177 2.097 . S
O201 C229 1.214 . S
H202 C230 0.929 . S
H203 C231 0.929 . S
H204 C232 0.930 . S
H205 C233 0.929 . S
H206 C235 0.930 1_455 S
H207 C212 0.930 . S
H208 C216 0.930 . S
O209 Co178 2.037 . S
O209 C229 1.234 . S
C210 O184 1.269 . S
C210 O185 1.257 . S
C211 H186 0.930 . S
C211 C214 1.388 . S
C211 C216 1.418 1_455 S
C212 H207 0.930 . S
C212 C215 1.404 . S
C212 C216 1.353 1_455 S
N213 Co178 2.145 . S
N213 C214 1.397 . S
N213 C215 1.334 . S
C214 H195 0.929 . S
C214 C211 1.388 . S
C214 N213 1.397 . S
C215 H196 0.929 . S
C215 C212 1.404 . S
C215 N213 1.334 . S
C216 H208 0.930 . S
C216 C211 1.418 1_655 S
C216 C212 1.353 1_655 S
C217 H187 0.930 . S
C217 N218 1.330 . S
C217 C219 1.446 . S
N218 Co177 2.151 . S
N218 C217 1.330 . S
N218 C222 1.418 . S
C219 H198 0.929 . S
C219 C217 1.446 . S
C219 C220 1.332 . S
C220 H200 0.931 . S
C220 C219 1.332 . S
C220 C221 1.267 . S
C221 H189 0.929 . S
C221 C220 1.267 . S
C221 C222 1.251 . S
C222 H192 0.929 . S
C222 N218 1.418 . S
C222 C221 1.251 . S
C223 H190 0.930 1_565 S
C223 C225 1.406 . S
C223 C228 1.261 1_565 S
C224 H191 0.930 . S
C224 N226 1.325 . S
C224 C227 1.357 1_565 S
C225 H193 0.928 . S
C225 C223 1.406 . S
C225 N226 1.261 . S
N226 Co177 2.214 . S
N226 C224 1.325 . S
N226 C225 1.261 . S
C227 H197 0.931 . S
C227 C224 1.357 1_545 S
C227 C228 1.312 . S
C228 H199 0.930 . S
C228 C223 1.261 1_545 S
C228 C227 1.312 . S
C229 O201 1.214 . S
C229 O209 1.234 . S
C230 H202 0.929 . S
C230 C233 1.391 . S
C230 C235 1.391 . S
C231 H203 0.929 . S
C231 C232 1.390 . S
C231 N234 1.391 . S
C232 H204 0.930 . S
C232 C231 1.390 . S
C232 C233 1.392 . S
C233 H205 0.929 . S
C233 C230 1.391 . S
C233 C232 1.392 . S
N234 Co178 2.257 1_655 S
N234 C231 1.391 . S
N234 C235 1.388 . S
C235 H206 0.930 1_655 S
C235 C230 1.391 . S
C235 N234 1.388 . S
Co236 O238 2.143 . S
Co236 O244 2.074 1_545 S
Co236 O247 2.093 . S
Co236 O260 2.097 . S
Co236 N277 2.151 1_545 S
Co236 N285 2.214 1_545 S
Co237 O238 2.160 . S
Co237 O243 2.058 1_545 S
Co237 O253 2.057 . S
Co237 O268 2.037 . S
Co237 N272 2.145 . S
Co237 N293 2.257 . S
O238 Co236 2.143 . S
O238 Co237 2.160 . S
C239 O240 1.278 . S
C239 O247 1.224 . S
O240 C239 1.278 . S
C241 O242 1.245 1_545 S
C241 O253 1.232 . S
O242 C241 1.245 1_565 S
O243 Co237 2.058 1_565 S
O243 C269 1.269 . S
O244 Co236 2.074 1_565 S
O244 C269 1.257 . S
H245 C270 0.930 . S
H246 C276 0.930 . S
O247 Co236 2.093 . S
O247 C239 1.224 . S
H248 C280 0.929 . S
H249 C282 0.930 . S
H250 C283 0.934 . S
H251 C281 0.929 . S
H252 C284 0.928 . S
O253 Co237 2.057 . S
O253 C241 1.232 . S
H254 C273 0.929 . S
H255 C274 0.929 . S
H256 C286 0.931 . S
H257 C278 0.929 . S
H258 C287 0.930 . S
H259 C279 0.931 . S
O260 Co236 2.097 . S
O260 C288 1.214 . S
H261 C289 0.929 . S
H262 C290 0.929 . S
H263 C291 0.930 . S
H264 C292 0.929 . S
H265 C294 0.930 . S
H266 C271 0.930 . S
H267 C275 0.930 . S
O268 Co237 2.037 . S
O268 C288 1.234 . S
C269 O243 1.269 . S
C269 O244 1.257 . S
C270 H245 0.930 . S
C270 C273 1.388 . S
C270 C275 1.418 . S
C271 H266 0.930 . S
C271 C274 1.404 . S
C271 C275 1.353 . S
N272 Co237 2.145 . S
N272 C273 1.397 . S
N272 C274 1.334 . S
C273 H254 0.929 . S
C273 C270 1.388 . S
C273 N272 1.397 . S
C274 H255 0.929 . S
C274 C271 1.404 . S
C274 N272 1.334 . S
C275 H267 0.930 . S
C275 C270 1.418 . S
C275 C271 1.353 . S
C276 H246 0.930 . S
C276 N277 1.330 . S
C276 C278 1.446 . S
N277 Co236 2.151 1_565 S
N277 C276 1.330 . S
N277 C281 1.418 . S
C278 H257 0.929 . S
C278 C276 1.446 . S
C278 C279 1.332 . S
C279 H259 0.931 . S
C279 C278 1.332 . S
C279 C280 1.267 . S
C280 H248 0.929 . S
C280 C279 1.267 . S
C280 C281 1.251 . S
C281 H251 0.929 . S
C281 N277 1.418 . S
C281 C280 1.251 . S
C282 H249 0.930 . S
C282 C284 1.406 . S
C282 C287 1.261 . S
C283 H250 0.934 . S
C283 N285 1.324 1_545 S
C283 C286 1.355 1_545 S
C284 H252 0.928 . S
C284 C282 1.406 . S
C284 N285 1.261 . S
N285 Co236 2.214 1_565 S
N285 C283 1.324 1_565 S
N285 C284 1.261 . S
C286 H256 0.931 . S
C286 C283 1.355 1_565 S
C286 C287 1.312 . S
C287 H258 0.930 . S
C287 C282 1.261 . S
C287 C286 1.312 . S
C288 O260 1.214 . S
C288 O268 1.234 . S
C289 H261 0.929 . S
C289 C292 1.391 . S
C289 C294 1.391 . S
C290 H262 0.929 . S
C290 C291 1.390 . S
C290 N293 1.391 . S
C291 H263 0.930 . S
C291 C290 1.390 . S
C291 C292 1.392 . S
C292 H264 0.929 . S
C292 C289 1.391 . S
C292 C291 1.392 . S
N293 Co237 2.257 . S
N293 C290 1.391 . S
N293 C294 1.388 . S
C294 H265 0.930 . S
C294 C289 1.391 . S
C294 N293 1.388 . S
Co295 O297 2.143 . S
Co295 O303 2.074 . S
Co295 O306 2.093 . S
Co295 O319 2.097 . S
Co295 N336 2.151 . S
Co295 N344 2.214 . S
Co296 O297 2.160 . S
Co296 O302 2.058 . S
Co296 O312 2.057 . S
Co296 O327 2.037 . S
Co296 N331 2.145 . S
Co296 N352 2.257 1_455 S
O297 Co295 2.143 . S
O297 Co296 2.160 . S
C298 O299 1.278 . S
C298 O306 1.224 . S
O299 C298 1.278 . S
C300 O301 1.245 . S
C300 O312 1.232 . S
O301 C300 1.245 . S
O302 Co296 2.058 . S
O302 C328 1.269 . S
O303 Co295 2.074 . S
O303 C328 1.257 . S
H304 C329 0.930 . S
H305 C335 0.930 . S
O306 Co295 2.093 . S
O306 C298 1.224 . S
H307 C339 0.929 . S
H308 C341 0.930 . S
H309 C342 0.930 . S
H310 C340 0.929 . S
H311 C343 0.928 . S
O312 Co296 2.057 . S
O312 C300 1.232 . S
H313 C332 0.929 . S
H314 C333 0.929 . S
H315 C345 0.931 . S
H316 C337 0.929 . S
H317 C346 0.930 . S
H318 C338 0.931 . S
O319 Co295 2.097 . S
O319 C347 1.214 . S
H320 C348 0.929 . S
H321 C349 0.929 . S
H322 C350 0.930 . S
H323 C351 0.929 . S
H324 C353 0.930 1_455 S
H325 C330 0.930 . S
H326 C334 0.930 . S
O327 Co296 2.037 . S
O327 C347 1.234 . S
C328 O302 1.269 . S
C328 O303 1.257 . S
C329 H304 0.930 . S
C329 C332 1.388 . S
C329 C334 1.418 1_455 S
C330 H325 0.930 . S
C330 C333 1.404 . S
C330 C334 1.353 1_455 S
N331 Co296 2.145 . S
N331 C332 1.397 . S
N331 C333 1.334 . S
C332 H313 0.929 . S
C332 C329 1.388 . S
C332 N331 1.397 . S
C333 H314 0.929 . S
C333 C330 1.404 . S
C333 N331 1.334 . S
C334 H326 0.930 . S
C334 C329 1.418 1_655 S
C334 C330 1.353 1_655 S
C335 H305 0.930 . S
C335 N336 1.330 . S
C335 C337 1.446 . S
N336 Co295 2.151 . S
N336 C335 1.330 . S
N336 C340 1.418 . S
C337 H316 0.929 . S
C337 C335 1.446 . S
C337 C338 1.332 . S
C338 H318 0.931 . S
C338 C337 1.332 . S
C338 C339 1.267 . S
C339 H307 0.929 . S
C339 C338 1.267 . S
C339 C340 1.251 . S
C340 H310 0.929 . S
C340 N336 1.418 . S
C340 C339 1.251 . S
C341 H308 0.930 . S
C341 C343 1.406 . S
C341 C346 1.261 . S
C342 H309 0.930 . S
C342 N344 1.325 . S
C342 C345 1.357 . S
C343 H311 0.928 . S
C343 C341 1.406 . S
C343 N344 1.261 . S
N344 Co295 2.214 . S
N344 C342 1.325 . S
N344 C343 1.261 . S
C345 H315 0.931 . S
C345 C342 1.357 . S
C345 C346 1.312 . S
C346 H317 0.930 . S
C346 C341 1.261 . S
C346 C345 1.312 . S
C347 O319 1.214 . S
C347 O327 1.234 . S
C348 H320 0.929 . S
C348 C351 1.391 . S
C348 C353 1.391 . S
C349 H321 0.929 . S
C349 C350 1.390 . S
C349 N352 1.391 . S
C350 H322 0.930 . S
C350 C349 1.390 . S
C350 C351 1.392 . S
C351 H323 0.929 . S
C351 C348 1.391 . S
C351 C350 1.392 . S
N352 Co296 2.257 1_655 S
N352 C349 1.391 . S
N352 C353 1.388 . S
C353 H324 0.930 1_655 S
C353 C348 1.391 . S
C353 N352 1.388 . S
Co354 O356 2.143 . S
Co354 O362 2.074 . S
Co354 O365 2.093 . S
Co354 O378 2.097 . S
Co354 N395 2.151 . S
Co354 N403 2.214 . S
Co355 O356 2.160 . S
Co355 O361 2.058 . S
Co355 O371 2.057 . S
Co355 O386 2.037 . S
Co355 N390 2.145 . S
Co355 N411 2.257 1_545 S
O356 Co354 2.143 . S
O356 Co355 2.160 . S
C357 O358 1.278 . S
C357 O365 1.224 . S
O358 C357 1.278 . S
C359 O360 1.245 . S
C359 O371 1.232 . S
O360 C359 1.245 . S
O361 Co355 2.058 . S
O361 C387 1.269 . S
O362 Co354 2.074 . S
O362 C387 1.257 . S
H363 C388 0.930 . S
H364 C394 0.930 . S
O365 Co354 2.093 . S
O365 C357 1.224 . S
H366 C398 0.929 . S
H367 C400 0.930 1_455 S
H368 C401 0.930 . S
H369 C399 0.929 . S
H370 C402 0.928 . S
O371 Co355 2.057 . S
O371 C359 1.232 . S
H372 C391 0.929 . S
H373 C392 0.929 . S
H374 C404 0.931 . S
H375 C396 0.929 . S
H376 C405 0.930 . S
H377 C397 0.931 . S
O378 Co354 2.097 . S
O378 C406 1.214 . S
H379 C407 0.929 . S
H380 C408 0.929 . S
H381 C409 0.930 . S
H382 C410 0.929 . S
H383 C412 0.930 1_545 S
H384 C389 0.930 . S
H385 C393 0.930 . S
O386 Co355 2.037 . S
O386 C406 1.234 . S
C387 O361 1.269 . S
C387 O362 1.257 . S
C388 H363 0.930 . S
C388 C391 1.388 . S
C388 C393 1.418 1_545 S
C389 H384 0.930 . S
C389 C392 1.404 . S
C389 C393 1.353 1_545 S
N390 Co355 2.145 . S
N390 C391 1.397 . S
N390 C392 1.334 . S
C391 H372 0.929 . S
C391 C388 1.388 . S
C391 N390 1.397 . S
C392 H373 0.929 . S
C392 C389 1.404 . S
C392 N390 1.334 . S
C393 H385 0.930 . S
C393 C388 1.418 1_565 S
C393 C389 1.353 1_565 S
C394 H364 0.930 . S
C394 N395 1.330 . S
C394 C396 1.446 . S
N395 Co354 2.151 . S
N395 C394 1.330 . S
N395 C399 1.418 . S
C396 H375 0.929 . S
C396 C394 1.446 . S
C396 C397 1.332 . S
C397 H377 0.931 . S
C397 C396 1.332 . S
C397 C398 1.267 . S
C398 H366 0.929 . S
C398 C397 1.267 . S
C398 C399 1.251 . S
C399 H369 0.929 . S
C399 N395 1.418 . S
C399 C398 1.251 . S
C400 H367 0.930 1_655 S
C400 C402 1.406 . S
C400 C405 1.261 1_655 S
C401 H368 0.930 . S
C401 N403 1.325 . S
C401 C404 1.357 1_655 S
C402 H370 0.928 . S
C402 C400 1.406 . S
C402 N403 1.261 . S
N403 Co354 2.214 . S
N403 C401 1.325 . S
N403 C402 1.261 . S
C404 H374 0.931 . S
C404 C401 1.357 1_455 S
C404 C405 1.312 . S
C405 H376 0.930 . S
C405 C400 1.261 1_455 S
C405 C404 1.312 . S
C406 O378 1.214 . S
C406 O386 1.234 . S
C407 H379 0.929 . S
C407 C410 1.391 . S
C407 C412 1.391 . S
C408 H380 0.929 . S
C408 C409 1.390 . S
C408 N411 1.391 . S
C409 H381 0.930 . S
C409 C408 1.390 . S
C409 C410 1.392 . S
C410 H382 0.929 . S
C410 C407 1.391 . S
C410 C409 1.392 . S
N411 Co355 2.257 1_565 S
N411 C408 1.391 . S
N411 C412 1.388 . S
C412 H383 0.930 1_565 S
C412 C407 1.391 . S
C412 N411 1.388 . S
Co413 O415 2.143 . S
Co413 O421 2.074 1_455 S
Co413 O424 2.093 . S
Co413 O437 2.097 . S
Co413 N454 2.151 1_455 S
Co413 N462 2.214 1_455 S
Co414 O415 2.160 . S
Co414 O420 2.058 1_455 S
Co414 O430 2.057 . S
Co414 O445 2.037 . S
Co414 N449 2.145 . S
Co414 N470 2.257 . S
O415 Co413 2.143 . S
O415 Co414 2.160 . S
C416 O417 1.278 . S
C416 O424 1.224 . S
O417 C416 1.278 . S
C418 O419 1.245 1_455 S
C418 O430 1.232 . S
O419 C418 1.245 1_655 S
O420 Co414 2.058 1_655 S
O420 C446 1.269 . S
O421 Co413 2.074 1_655 S
O421 C446 1.257 . S
H422 C447 0.930 . S
H423 C453 0.930 . S
O424 Co413 2.093 . S
O424 C416 1.224 . S
H425 C457 0.929 . S
H426 C459 0.930 1_545 S
H427 C460 0.934 . S
H428 C458 0.929 . S
H429 C461 0.928 . S
O430 Co414 2.057 . S
O430 C418 1.232 . S
H431 C450 0.929 . S
H432 C451 0.929 . S
H433 C463 0.931 . S
H434 C455 0.929 . S
H435 C464 0.930 . S
H436 C456 0.931 . S
O437 Co413 2.097 . S
O437 C465 1.214 . S
H438 C466 0.929 . S
H439 C467 0.929 . S
H440 C468 0.930 . S
H441 C469 0.929 . S
H442 C471 0.930 . S
H443 C448 0.930 . S
H444 C452 0.930 . S
O445 Co414 2.037 . S
O445 C465 1.234 . S
C446 O420 1.269 . S
C446 O421 1.257 . S
C447 H422 0.930 . S
C447 C450 1.388 . S
C447 C452 1.418 . S
C448 H443 0.930 . S
C448 C451 1.404 . S
C448 C452 1.353 . S
N449 Co414 2.145 . S
N449 C450 1.397 . S
N449 C451 1.334 . S
C450 H431 0.929 . S
C450 C447 1.388 . S
C450 N449 1.397 . S
C451 H432 0.929 . S
C451 C448 1.404 . S
C451 N449 1.334 . S
C452 H444 0.930 . S
C452 C447 1.418 . S
C452 C448 1.353 . S
C453 H423 0.930 . S
C453 N454 1.330 . S
C453 C455 1.446 . S
N454 Co413 2.151 1_655 S
N454 C453 1.330 . S
N454 C458 1.418 . S
C455 H434 0.929 . S
C455 C453 1.446 . S
C455 C456 1.332 . S
C456 H436 0.931 . S
C456 C455 1.332 . S
C456 C457 1.267 . S
C457 H425 0.929 . S
C457 C456 1.267 . S
C457 C458 1.251 . S
C458 H428 0.929 . S
C458 N454 1.418 . S
C458 C457 1.251 . S
C459 H426 0.930 1_565 S
C459 C461 1.406 . S
C459 C464 1.261 1_565 S
C460 H427 0.934 . S
C460 N462 1.324 1_455 S
C460 C463 1.355 1_465 S
C461 H429 0.928 . S
C461 C459 1.406 . S
C461 N462 1.261 . S
N462 Co413 2.214 1_655 S
N462 C460 1.324 1_655 S
N462 C461 1.261 . S
C463 H433 0.931 . S
C463 C460 1.355 1_645 S
C463 C464 1.312 . S
C464 H435 0.930 . S
C464 C459 1.261 1_545 S
C464 C463 1.312 . S
C465 O437 1.214 . S
C465 O445 1.234 . S
C466 H438 0.929 . S
C466 C469 1.391 . S
C466 C471 1.391 . S
C467 H439 0.929 . S
C467 C468 1.390 . S
C467 N470 1.391 . S
C468 H440 0.930 . S
C468 C467 1.390 . S
C468 C469 1.392 . S
C469 H441 0.929 . S
C469 C466 1.391 . S
C469 C468 1.392 . S
N470 Co414 2.257 . S
N470 C467 1.391 . S
N470 C471 1.388 . S
C471 H442 0.930 . S
C471 C466 1.391 . S
C471 N470 1.388 . S
C472 C473 1.170 . S
C472 C474 1.380 1_554 S
C473 C472 1.170 . S
C474 C472 1.380 1_556 S
C474 C475 1.170 . S
C475 C474 1.170 . S
C476 C477 1.170 . S
C476 C478 1.380 . S
C477 C476 1.170 . S
C478 C476 1.380 . S
C478 C479 1.170 . S
C479 C478 1.170 . S
C480 C481 1.170 . S
C480 C482 1.380 1_556 S
C481 C480 1.170 . S
C482 C480 1.380 1_554 S
C482 C483 1.170 . S
C483 C482 1.170 . S
C484 C485 1.170 . S
C484 C486 1.380 . S
C485 C484 1.170 . S
C486 C484 1.380 . S
C486 C487 1.170 . S
C487 C486 1.170 . S
C488 C489 1.170 . S
C488 C490 1.380 . S
C489 C488 1.170 . S
C490 C488 1.380 . S
C490 C491 1.170 . S
C491 C490 1.170 . S
C492 C493 1.170 . S
C492 C494 1.380 . S
C493 C492 1.170 . S
C494 C492 1.380 . S
C494 C495 1.170 . S
C495 C494 1.170 . S
C496 C497 1.170 . S
C496 C498 1.380 . S
C497 C496 1.170 . S
C498 C496 1.380 . S
C498 C499 1.170 . S
C499 C498 1.170 . S
C500 C501 1.170 . S
C500 C502 1.380 . S
C501 C500 1.170 . S
C502 C500 1.380 . S
C502 C503 1.170 . S
C503 C502 1.170 . S
C504 C505 1.170 . S
C504 C506 1.380 . S
C505 C504 1.170 . S
C506 C504 1.380 . S
C506 C507 1.170 . S
C507 C506 1.170 . S
C508 C509 1.170 . S
C508 C510 1.380 . S
C509 C508 1.170 . S
C510 C508 1.380 . S
C510 C511 1.170 . S
C511 C510 1.170 . S
C512 C513 1.170 . S
C512 C514 1.380 . S
C513 C512 1.170 . S
C514 C512 1.380 . S
C514 C515 1.170 . S
C515 C514 1.170 . S
C516 C517 1.170 . S
C516 C518 1.380 . S
C517 C516 1.170 . S
C518 C516 1.380 . S
C518 C519 1.170 . S
C519 C518 1.170 . S
C520 C521 1.170 . S
C520 C522 1.380 . S
C521 C520 1.170 . S
C522 C520 1.380 . S
C522 C523 1.170 . S
C523 C522 1.170 . S
C524 C525 1.170 . S
C524 C526 1.380 . S
C525 C524 1.170 . S
C526 C524 1.380 . S
C526 C527 1.170 . S
C527 C526 1.170 . S
C528 C529 1.170 . S
C528 C530 1.380 . S
C529 C528 1.170 . S
C530 C528 1.380 . S
C530 C531 1.170 . S
C531 C530 1.170 . S
C532 C533 1.170 . S
C532 C534 1.380 . S
C533 C532 1.170 . S
C534 C532 1.380 . S
C534 C535 1.170 . S
C535 C534 1.170 . S
C473 C3 1.579 . S
C475 C239 1.571 . S
C477 C62 1.573 . S
C479 C298 1.579 . S
C481 C357 1.564 . S
C483 C121 1.570 . S
C485 C416 1.565 . S
C487 C180 1.565 . S
C489 C5 1.653 . S
C491 C123 1.685 . S
C493 C64 1.685 . S
C495 C182 1.650 . S
C497 C359 1.650 . S
C499 C241 1.684 . S
C501 C300 1.673 . S
C503 C418 1.658 . S
C505 C328 1.075 . S
C507 C33 1.125 . S
C509 C92 1.095 . S
C511 C387 1.092 . S
C513 C446 1.125 . S
C515 C151 1.077 . S
C517 C210 1.121 . S
C519 C269 1.088 . S
C521 C406 1.733 1_565 S
C523 C229 1.722 1_655 S
C525 C52 1.715 1_565 S
C527 C465 1.725 . S
C529 C111 1.723 . S
C531 C288 1.733 . S
C533 C347 1.729 1_655 S
C535 C170 1.716 . S
