# Generated by pormake.
# Topology wlh, (5)-cn, num edge types: 1
# Building blocks:
#     Node 0, Type 0, BuildingBlock: XOMCOT_clean_sbu_1, # of connection points: 5
#     Node 1, Type 0, BuildingBlock: XOMCOT_clean_sbu_1, # of connection points: 5
#     Node 2, Type 0, BuildingBlock: XOMCOT_clean_sbu_1, # of connection points: 5
#     Node 3, Type 0, BuildingBlock: XOMCOT_clean_sbu_1, # of connection points: 5
#     Node 4, Type 0, BuildingBlock: XOMCOT_clean_sbu_1, # of connection points: 5
#     Node 5, Type 0, BuildingBlock: XOMCOT_clean_sbu_1, # of connection points: 5
#     Node 6, Type 0, BuildingBlock: XOMCOT_clean_sbu_1, # of connection points: 5
#     Node 7, Type 0, BuildingBlock: XOMCOT_clean_sbu_1, # of connection points: 5
#     Node 8, Type 0, BuildingBlock: XOMCOT_clean_sbu_1, # of connection points: 5
#     Node 9, Type 0, BuildingBlock: XOMCOT_clean_sbu_1, # of connection points: 5
#     Node 10, Type 0, BuildingBlock: XOMCOT_clean_sbu_1, # of connection points: 5
#     Node 11, Type 0, BuildingBlock: XOMCOT_clean_sbu_1, # of connection points: 5
#     Node 12, Type 0, BuildingBlock: XOMCOT_clean_sbu_1, # of connection points: 5
#     Node 13, Type 0, BuildingBlock: XOMCOT_clean_sbu_1, # of connection points: 5
#     Node 14, Type 0, BuildingBlock: XOMCOT_clean_sbu_1, # of connection points: 5
#     Node 15, Type 0, BuildingBlock: XOMCOT_clean_sbu_1, # of connection points: 5
#     Node 16, Type 0, BuildingBlock: XOMCOT_clean_sbu_1, # of connection points: 5
#     Node 17, Type 0, BuildingBlock: XOMCOT_clean_sbu_1, # of connection points: 5
#     Node 18, Type 0, BuildingBlock: XOMCOT_clean_sbu_1, # of connection points: 5
#     Node 19, Type 0, BuildingBlock: XOMCOT_clean_sbu_1, # of connection points: 5
#     Node 20, Type 0, BuildingBlock: XOMCOT_clean_sbu_1, # of connection points: 5
#     Node 21, Type 0, BuildingBlock: XOMCOT_clean_sbu_1, # of connection points: 5
#     Node 22, Type 0, BuildingBlock: XOMCOT_clean_sbu_1, # of connection points: 5
#     Node 23, Type 0, BuildingBlock: XOMCOT_clean_sbu_1, # of connection points: 5
#     Node 24, Type 0, BuildingBlock: XOMCOT_clean_sbu_1, # of connection points: 5
#     Node 25, Type 0, BuildingBlock: XOMCOT_clean_sbu_1, # of connection points: 5
#     Node 26, Type 0, BuildingBlock: XOMCOT_clean_sbu_1, # of connection points: 5
#     Node 27, Type 0, BuildingBlock: XOMCOT_clean_sbu_1, # of connection points: 5
#     Node 28, Type 0, BuildingBlock: XOMCOT_clean_sbu_1, # of connection points: 5
#     Node 29, Type 0, BuildingBlock: XOMCOT_clean_sbu_1, # of connection points: 5
#     Node 30, Type 0, BuildingBlock: XOMCOT_clean_sbu_1, # of connection points: 5
#     Node 31, Type 0, BuildingBlock: XOMCOT_clean_sbu_1, # of connection points: 5
#     Node 32, Type 0, BuildingBlock: XOMCOT_clean_sbu_1, # of connection points: 5
#     Node 33, Type 0, BuildingBlock: XOMCOT_clean_sbu_1, # of connection points: 5
#     Node 34, Type 0, BuildingBlock: XOMCOT_clean_sbu_1, # of connection points: 5
#     Node 35, Type 0, BuildingBlock: XOMCOT_clean_sbu_1, # of connection points: 5
#     Edge 36, Type (0, 0), BuildingBlock: XUDNAN_clean_linker_2, # of connection points: 2
#     Edge 37, Type (0, 0), BuildingBlock: XUDNAN_clean_linker_2, # of connection points: 2
#     Edge 38, Type (0, 0), BuildingBlock: XUDNAN_clean_linker_2, # of connection points: 2
#     Edge 39, Type (0, 0), BuildingBlock: XUDNAN_clean_linker_2, # of connection points: 2
#     Edge 40, Type (0, 0), BuildingBlock: XUDNAN_clean_linker_2, # of connection points: 2
#     Edge 41, Type (0, 0), BuildingBlock: XUDNAN_clean_linker_2, # of connection points: 2
#     Edge 42, Type (0, 0), BuildingBlock: XUDNAN_clean_linker_2, # of connection points: 2
#     Edge 43, Type (0, 0), BuildingBlock: XUDNAN_clean_linker_2, # of connection points: 2
#     Edge 44, Type (0, 0), BuildingBlock: XUDNAN_clean_linker_2, # of connection points: 2
#     Edge 45, Type (0, 0), BuildingBlock: XUDNAN_clean_linker_2, # of connection points: 2
#     Edge 46, Type (0, 0), BuildingBlock: XUDNAN_clean_linker_2, # of connection points: 2
#     Edge 47, Type (0, 0), BuildingBlock: XUDNAN_clean_linker_2, # of connection points: 2
#     Edge 48, Type (0, 0), BuildingBlock: XUDNAN_clean_linker_2, # of connection points: 2
#     Edge 49, Type (0, 0), BuildingBlock: XUDNAN_clean_linker_2, # of connection points: 2
#     Edge 50, Type (0, 0), BuildingBlock: XUDNAN_clean_linker_2, # of connection points: 2
#     Edge 51, Type (0, 0), BuildingBlock: XUDNAN_clean_linker_2, # of connection points: 2
#     Edge 52, Type (0, 0), BuildingBlock: XUDNAN_clean_linker_2, # of connection points: 2
#     Edge 53, Type (0, 0), BuildingBlock: XUDNAN_clean_linker_2, # of connection points: 2
#     Edge 54, Type (0, 0), BuildingBlock: XUDNAN_clean_linker_2, # of connection points: 2
#     Edge 55, Type (0, 0), BuildingBlock: XUDNAN_clean_linker_2, # of connection points: 2
#     Edge 56, Type (0, 0), BuildingBlock: XUDNAN_clean_linker_2, # of connection points: 2
#     Edge 57, Type (0, 0), BuildingBlock: XUDNAN_clean_linker_2, # of connection points: 2
#     Edge 58, Type (0, 0), BuildingBlock: XUDNAN_clean_linker_2, # of connection points: 2
#     Edge 59, Type (0, 0), BuildingBlock: XUDNAN_clean_linker_2, # of connection points: 2
#     Edge 60, Type (0, 0), BuildingBlock: XUDNAN_clean_linker_2, # of connection points: 2
#     Edge 61, Type (0, 0), BuildingBlock: XUDNAN_clean_linker_2, # of connection points: 2
#     Edge 62, Type (0, 0), BuildingBlock: XUDNAN_clean_linker_2, # of connection points: 2
#     Edge 63, Type (0, 0), BuildingBlock: XUDNAN_clean_linker_2, # of connection points: 2
#     Edge 64, Type (0, 0), BuildingBlock: XUDNAN_clean_linker_2, # of connection points: 2
#     Edge 65, Type (0, 0), BuildingBlock: XUDNAN_clean_linker_2, # of connection points: 2
#     Edge 66, Type (0, 0), BuildingBlock: XUDNAN_clean_linker_2, # of connection points: 2
#     Edge 67, Type (0, 0), BuildingBlock: XUDNAN_clean_linker_2, # of connection points: 2
#     Edge 68, Type (0, 0), BuildingBlock: XUDNAN_clean_linker_2, # of connection points: 2
#     Edge 69, Type (0, 0), BuildingBlock: XUDNAN_clean_linker_2, # of connection points: 2
#     Edge 70, Type (0, 0), BuildingBlock: XUDNAN_clean_linker_2, # of connection points: 2
#     Edge 71, Type (0, 0), BuildingBlock: XUDNAN_clean_linker_2, # of connection points: 2
#     Edge 72, Type (0, 0), BuildingBlock: XUDNAN_clean_linker_2, # of connection points: 2
#     Edge 73, Type (0, 0), BuildingBlock: XUDNAN_clean_linker_2, # of connection points: 2
#     Edge 74, Type (0, 0), BuildingBlock: XUDNAN_clean_linker_2, # of connection points: 2
#     Edge 75, Type (0, 0), BuildingBlock: XUDNAN_clean_linker_2, # of connection points: 2
#     Edge 76, Type (0, 0), BuildingBlock: XUDNAN_clean_linker_2, # of connection points: 2
#     Edge 77, Type (0, 0), BuildingBlock: XUDNAN_clean_linker_2, # of connection points: 2
#     Edge 78, Type (0, 0), BuildingBlock: XUDNAN_clean_linker_2, # of connection points: 2
#     Edge 79, Type (0, 0), BuildingBlock: XUDNAN_clean_linker_2, # of connection points: 2
#     Edge 80, Type (0, 0), BuildingBlock: XUDNAN_clean_linker_2, # of connection points: 2
#     Edge 81, Type (0, 0), BuildingBlock: XUDNAN_clean_linker_2, # of connection points: 2
#     Edge 82, Type (0, 0), BuildingBlock: XUDNAN_clean_linker_2, # of connection points: 2
#     Edge 83, Type (0, 0), BuildingBlock: XUDNAN_clean_linker_2, # of connection points: 2
#     Edge 84, Type (0, 0), BuildingBlock: XUDNAN_clean_linker_2, # of connection points: 2
#     Edge 85, Type (0, 0), BuildingBlock: XUDNAN_clean_linker_2, # of connection points: 2
#     Edge 86, Type (0, 0), BuildingBlock: XUDNAN_clean_linker_2, # of connection points: 2
#     Edge 87, Type (0, 0), BuildingBlock: XUDNAN_clean_linker_2, # of connection points: 2
#     Edge 88, Type (0, 0), BuildingBlock: XUDNAN_clean_linker_2, # of connection points: 2
#     Edge 89, Type (0, 0), BuildingBlock: XUDNAN_clean_linker_2, # of connection points: 2
#     Edge 90, Type (0, 0), BuildingBlock: XUDNAN_clean_linker_2, # of connection points: 2
#     Edge 91, Type (0, 0), BuildingBlock: XUDNAN_clean_linker_2, # of connection points: 2
#     Edge 92, Type (0, 0), BuildingBlock: XUDNAN_clean_linker_2, # of connection points: 2
#     Edge 93, Type (0, 0), BuildingBlock: XUDNAN_clean_linker_2, # of connection points: 2
#     Edge 94, Type (0, 0), BuildingBlock: XUDNAN_clean_linker_2, # of connection points: 2
#     Edge 95, Type (0, 0), BuildingBlock: XUDNAN_clean_linker_2, # of connection points: 2
#     Edge 96, Type (0, 0), BuildingBlock: XUDNAN_clean_linker_2, # of connection points: 2
#     Edge 97, Type (0, 0), BuildingBlock: XUDNAN_clean_linker_2, # of connection points: 2
#     Edge 98, Type (0, 0), BuildingBlock: XUDNAN_clean_linker_2, # of connection points: 2
#     Edge 99, Type (0, 0), BuildingBlock: XUDNAN_clean_linker_2, # of connection points: 2
#     Edge 100, Type (0, 0), BuildingBlock: XUDNAN_clean_linker_2, # of connection points: 2
#     Edge 101, Type (0, 0), BuildingBlock: XUDNAN_clean_linker_2, # of connection points: 2
#     Edge 102, Type (0, 0), BuildingBlock: XUDNAN_clean_linker_2, # of connection points: 2
#     Edge 103, Type (0, 0), BuildingBlock: XUDNAN_clean_linker_2, # of connection points: 2
#     Edge 104, Type (0, 0), BuildingBlock: XUDNAN_clean_linker_2, # of connection points: 2
#     Edge 105, Type (0, 0), BuildingBlock: XUDNAN_clean_linker_2, # of connection points: 2
#     Edge 106, Type (0, 0), BuildingBlock: XUDNAN_clean_linker_2, # of connection points: 2
#     Edge 107, Type (0, 0), BuildingBlock: XUDNAN_clean_linker_2, # of connection points: 2
#     Edge 108, Type (0, 0), BuildingBlock: XUDNAN_clean_linker_2, # of connection points: 2
#     Edge 109, Type (0, 0), BuildingBlock: XUDNAN_clean_linker_2, # of connection points: 2
#     Edge 110, Type (0, 0), BuildingBlock: XUDNAN_clean_linker_2, # of connection points: 2
#     Edge 111, Type (0, 0), BuildingBlock: XUDNAN_clean_linker_2, # of connection points: 2
#     Edge 112, Type (0, 0), BuildingBlock: XUDNAN_clean_linker_2, # of connection points: 2
#     Edge 113, Type (0, 0), BuildingBlock: XUDNAN_clean_linker_2, # of connection points: 2
#     Edge 114, Type (0, 0), BuildingBlock: XUDNAN_clean_linker_2, # of connection points: 2
#     Edge 115, Type (0, 0), BuildingBlock: XUDNAN_clean_linker_2, # of connection points: 2
#     Edge 116, Type (0, 0), BuildingBlock: XUDNAN_clean_linker_2, # of connection points: 2
#     Edge 117, Type (0, 0), BuildingBlock: XUDNAN_clean_linker_2, # of connection points: 2
#     Edge 118, Type (0, 0), BuildingBlock: XUDNAN_clean_linker_2, # of connection points: 2
#     Edge 119, Type (0, 0), BuildingBlock: XUDNAN_clean_linker_2, # of connection points: 2
#     Edge 120, Type (0, 0), BuildingBlock: XUDNAN_clean_linker_2, # of connection points: 2
#     Edge 121, Type (0, 0), BuildingBlock: XUDNAN_clean_linker_2, # of connection points: 2
#     Edge 122, Type (0, 0), BuildingBlock: XUDNAN_clean_linker_2, # of connection points: 2
#     Edge 123, Type (0, 0), BuildingBlock: XUDNAN_clean_linker_2, # of connection points: 2
#     Edge 124, Type (0, 0), BuildingBlock: XUDNAN_clean_linker_2, # of connection points: 2
#     Edge 125, Type (0, 0), BuildingBlock: XUDNAN_clean_linker_2, # of connection points: 2
# Relax obj value: 0.341
# Max RMSD: 0.231
# Mean RMSD: 0.231
data_MOF--net-wlh--node1-XOMCOT_clean_sbu_1--edge1-XUDNAN_clean_linker_2
_symmetry_space_group_name_H-M    P1
_symmetry_Int_Tables_number       1
_symmetry_cell_setting            triclinic
loop_
_symmetry_equiv_pos_as_xyz
'x, y, z'
_cell_length_a     39.384591
_cell_length_b     39.403352
_cell_length_c     153.03839
_cell_angle_alpha  89.955111
_cell_angle_beta   89.996599
_cell_angle_gamma 119.98055
loop_
_atom_site_label
_atom_site_type_symbol
_atom_site_fract_x
_atom_site_fract_y
_atom_site_fract_z
_atom_type_partial_charge
C0 C 0.1445 0.26424 0.19552 0.0
C1 C 0.15874 0.23853 0.19538 0.0
N2 N 0.13373 0.20665 0.19073 0.0
N3 N 0.11063 0.24852 0.19101 0.0
C4 C 0.10489 0.21355 0.18818 0.0
H5 H 0.15868 0.29314 0.19841 0.0
Co6 Co 0.08276 0.2729 0.18747 0.0
C7 C 1.00039 0.215 0.19028 0.0
O8 O 0.99672 0.24479 0.19289 0.0
N9 N 0.05489 0.29788 0.18319 0.0
C10 C 0.01552 0.3065 0.17408 0.0
C11 C 0.0294 0.28213 0.17646 0.0
C12 C 0.05701 0.33303 0.18449 0.0
N13 N 0.03285 0.33864 0.17913 0.0
O14 O 0.09595 0.26805 0.17569 0.0
H15 H 0.02188 0.25468 0.17332 0.0
H16 H 0.07667 0.35495 0.18901 0.0
O17 O 0.03344 0.22126 0.18725 0.0
C18 C 0.12547 0.30029 0.17329 0.0
O19 O 0.13714 0.33093 0.1784 0.0
N20 N 0.0737 0.27949 0.19945 0.0
C21 C 0.06136 0.28944 0.217 0.0
C22 C 0.05102 0.25234 0.21378 0.0
C23 C 0.05806 0.24809 0.20503 0.0
C24 C 0.08818 0.31628 0.20277 0.0
C25 C 0.08092 0.32189 0.21146 0.0
H26 H 0.05079 0.21928 0.20276 0.0
H27 H 0.10646 0.34148 0.1988 0.0
H28 H 0.08119 0.19456 0.18386 0.0
H29 H 0.18574 0.24331 0.19834 0.0
H30 H 0.99557 0.30166 0.16874 0.0
H31 H 0.03702 0.22669 0.21795 0.0
H32 H 0.09124 0.35128 0.21388 0.0
C33 C 0.74372 0.88646 0.2037 0.0
C34 C 0.76403 0.92565 0.20576 0.0
N35 N 0.79827 0.94268 0.20133 0.0
N36 N 0.76514 0.87875 0.19805 0.0
C37 C 0.798 0.91346 0.19667 0.0
H38 H 0.71484 0.86505 0.20601 0.0
Co39 Co 0.74922 0.83134 0.19259 0.0
C40 C 0.82062 0.82479 0.19297 0.0
O41 O 0.79952 0.78908 0.19609 0.0
N42 N 0.73184 0.78371 0.18657 0.0
C43 C 0.72708 0.73941 0.17685 0.0
C44 C 0.75165 0.77515 0.18056 0.0
C45 C 0.6945 0.75384 0.18585 0.0
N46 N 0.69106 0.72597 0.1802 0.0
O47 O 0.7508 0.85586 0.18172 0.0
H48 H 0.7815 0.79453 0.17851 0.0
H49 H 0.66984 0.75347 0.18903 0.0
O50 O 0.80416 0.84488 0.19111 0.0
C51 C 0.72072 0.85885 0.18007 0.0
O52 O 0.6905 0.84178 0.18538 0.0
N53 N 0.74668 0.80817 0.20375 0.0
C54 C 0.7419 0.77935 0.2207 0.0
C55 C 0.7757 0.81305 0.2179 0.0
C56 C 0.77743 0.82708 0.20945 0.0
C57 C 0.71281 0.77639 0.2066 0.0
C58 C 0.71016 0.76085 0.21496 0.0
H59 H 0.80356 0.85373 0.20754 0.0
H60 H 0.687 0.76359 0.20261 0.0
H61 H 0.82099 0.91719 0.19224 0.0
H62 H 0.75362 0.9405 0.20999 0.0
H63 H 0.73461 0.72556 0.17169 0.0
H64 H 0.80065 0.8285 0.22221 0.0
H65 H 0.68304 0.73546 0.21703 0.0
C66 C 0.13717 0.86512 0.18559 0.0
C67 C 0.09751 0.85103 0.18643 0.0
N68 N 0.09177 0.88172 0.18757 0.0
N69 N 0.15638 0.90455 0.18611 0.0
C70 C 0.12797 0.9136 0.1875 0.0
H71 H 0.15092 0.84765 0.1845 0.0
Co72 Co 0.21007 0.93911 0.18473 0.0
C73 C 0.2121 0.01189 0.17753 0.0
O74 O 0.24297 0.02286 0.17253 0.0
N75 N 0.26455 0.97391 0.18354 0.0
C76 C 0.32408 0.0252 0.18577 0.0
C77 C 0.2846 0.01026 0.187 0.0
C78 C 0.29285 0.96743 0.1803 0.0
N79 N 0.32934 0.99814 0.18159 0.0
O80 O 0.20462 0.92498 0.17262 0.0
H81 H 0.27149 0.02496 0.19037 0.0
H82 H 0.28723 0.94023 0.17736 0.0
O83 O 0.1988 0.981 0.18219 0.0
C84 C 0.20853 0.89516 0.17128 0.0
O85 O 0.22152 0.88256 0.1777 0.0
N86 N 0.21392 0.94898 0.19666 0.0
C87 C 0.21373 0.94906 0.21481 0.0
C88 C 0.20831 0.97665 0.21014 0.0
C89 C 0.20799 0.97583 0.20101 0.0
C90 C 0.22034 0.92278 0.20109 0.0
C91 C 0.22012 0.9221 0.21019 0.0
H92 H 0.20237 0.99632 0.19752 0.0
H93 H 0.22453 0.90152 0.1975 0.0
H94 H 0.13371 0.94311 0.18852 0.0
H95 H 0.07473 0.82064 0.18595 0.0
H96 H 0.3471 0.05376 0.18785 0.0
H97 H 0.20302 0.9977 0.21353 0.0
H98 H 0.22461 0.90053 0.21359 0.0
C99 C 0.2482 0.10323 0.29252 0.0
C100 C 0.23015 0.12518 0.29155 0.0
N101 N 0.20886 0.12104 0.29881 0.0
N102 N 0.23802 0.08483 0.30029 0.0
C103 C 0.21429 0.09634 0.304 0.0
H104 H 0.26759 0.10089 0.28786 0.0
Co105 Co 0.25577 0.05305 0.30499 0.0
C106 C 0.18866 0.00874 0.31723 0.0
O107 O 0.20996 0.02549 0.3242 0.0
N108 N 0.27396 0.02118 0.30972 0.0
C109 C 0.27847 0.96913 0.31353 0.0
C110 C 0.25343 0.98202 0.3109 0.0
C111 C 0.31139 0.03136 0.31161 0.0
N112 N 0.31508 1.00018 0.31394 0.0
O113 O 0.27154 0.08528 0.31519 0.0
H114 H 0.22252 0.9636 0.30955 0.0
H115 H 0.33559 0.06099 0.31105 0.0
O116 O 0.20401 0.01828 0.30966 0.0
C117 C 0.30457 0.11615 0.314 0.0
O118 O 0.32406 0.11902 0.3068 0.0
N119 N 0.24265 0.0241 0.29466 0.0
C120 C 0.22996 0.99069 0.27813 0.0
C121 C 0.19853 0.98739 0.28307 0.0
C122 C 0.20561 0.005 0.29128 0.0
C123 C 0.2735 0.02714 0.28998 0.0
C124 C 0.26781 0.0107 0.28166 0.0
H125 H 0.18165 0.00505 0.29468 0.0
H126 H 0.30285 0.0436 0.29261 0.0
H127 H 0.20209 0.08741 0.31048 0.0
H128 H 0.23253 0.14256 0.28587 0.0
H129 H 0.27044 0.9389 0.31464 0.0
H130 H 0.16907 0.97305 0.28043 0.0
H131 H 0.29279 0.01411 0.27796 0.0
C132 C 0.8907 0.14783 0.29826 0.0
C133 C 0.87323 0.10746 0.29806 0.0
N134 N 0.89161 0.09653 0.3039 0.0
N135 N 0.91995 0.16205 0.30418 0.0
C136 C 0.91947 0.13015 0.30751 0.0
H137 H 0.88232 0.1656 0.29445 0.0
Co138 Co 0.95191 0.21322 0.30804 0.0
C139 C 0.0116 0.1922 0.31475 0.0
O140 O 0.99669 0.18122 0.32261 0.0
N141 N 0.98394 0.26466 0.31208 0.0
C142 C 0.03523 0.3238 0.31452 0.0
C143 C 0.02345 0.28628 0.31181 0.0
C144 C 0.97244 0.28979 0.31495 0.0
N145 N 0.00309 0.32613 0.31646 0.0
O146 O 0.9335 0.19504 0.31969 0.0
H147 H 0.04265 0.27618 0.30941 0.0
H148 H 0.94205 0.28182 0.31565 0.0
O149 O 0.9955 0.20384 0.30921 0.0
C150 C 0.90126 0.19361 0.32154 0.0
O151 O 0.88705 0.20884 0.31601 0.0
N152 N 0.96762 0.23015 0.29646 0.0
C153 C 0.98735 0.25473 0.27906 0.0
C154 C 0.99076 0.2233 0.28241 0.0
C155 C 0.98115 0.21176 0.29111 0.0
C156 C 0.96303 0.25997 0.29331 0.0
C157 C 0.97354 0.27329 0.28473 0.0
H158 H 0.9835 0.18716 0.29347 0.0
H159 H 0.95109 0.27362 0.29746 0.0
H160 H 0.93786 0.13137 0.31286 0.0
H161 H 0.84894 0.08783 0.29394 0.0
H162 H 0.06511 0.34792 0.31463 0.0
H163 H 0.99985 0.20685 0.27833 0.0
H164 H 0.97075 0.29799 0.28262 0.0
C165 C 0.86595 0.7497 0.30297 0.0
C166 C 0.90644 0.7721 0.30325 0.0
N167 N 0.91644 0.79885 0.30968 0.0
N168 N 0.85076 0.76279 0.30912 0.0
C169 C 0.88218 0.79254 0.31306 0.0
H170 H 0.84881 0.72512 0.2987 0.0
Co171 Co 0.7995 0.74449 0.31287 0.0
C172 C 0.79356 0.81667 0.31254 0.0
O173 O 0.75857 0.79689 0.30899 0.0
N174 N 0.74796 0.72629 0.31729 0.0
C175 C 0.70302 0.72244 0.32673 0.0
C176 C 0.74117 0.74417 0.32405 0.0
C177 C 0.71323 0.69251 0.31625 0.0
N178 N 0.68536 0.68972 0.32186 0.0
O179 O 0.8167 0.74206 0.32441 0.0
H180 H 0.76318 0.77064 0.3272 0.0
H181 H 0.70894 0.66878 0.31204 0.0
O182 O 0.8123 0.79902 0.31457 0.0
C183 C 0.80806 0.70779 0.32686 0.0
O184 O 0.7828 0.67765 0.32222 0.0
N185 N 0.78396 0.74472 0.30117 0.0
C186 C 0.76586 0.7393 0.2833 0.0
C187 C 0.79357 0.77512 0.28705 0.0
C188 C 0.80249 0.77711 0.29593 0.0
C189 C 0.75902 0.70928 0.29753 0.0
C190 C 0.74849 0.70608 0.28873 0.0
H191 H 0.82578 0.80443 0.29848 0.0
H192 H 0.74875 0.68292 0.30131 0.0
H193 H 0.87986 0.80899 0.31845 0.0
H194 H 0.92684 0.76823 0.29923 0.0
H195 H 0.68977 0.72963 0.33208 0.0
H196 H 0.80962 0.80127 0.28312 0.0
H197 H 0.72751 0.6775 0.28621 0.0
C198 C 0.88356 0.73917 0.80216 0.0
C199 C 0.86576 0.76161 0.80275 0.0
N200 N 0.88411 0.7888 0.80902 0.0
N201 N 0.91296 0.75223 0.80802 0.0
C202 C 0.91214 0.78204 0.81217 0.0
H203 H 0.87609 0.71536 0.79764 0.0
Co204 Co 0.94773 0.73384 0.80978 0.0
C205 C 0.00574 0.79393 0.82188 0.0
O206 O 0.00752 0.76835 0.82707 0.0
N207 N 0.98302 0.71559 0.81145 0.0
C208 C 0.03831 0.71342 0.81106 0.0
C209 C 0.02171 0.73631 0.80962 0.0
C210 C 0.97677 0.67999 0.81398 0.0
N211 N 0.01007 0.67789 0.81378 0.0
O212 O 0.92308 0.7135 0.82082 0.0
H213 H 0.037 0.76629 0.80733 0.0
H214 H 0.94826 0.65587 0.81575 0.0
O215 O 0.98405 0.78294 0.81513 0.0
C216 C 0.88985 0.68283 0.81971 0.0
O217 O 0.88278 0.66516 0.81209 0.0
N218 N 0.96894 0.75238 0.79869 0.0
C219 C 0.98792 0.77362 0.7812 0.0
C220 C 1.00246 0.80204 0.78784 0.0
C221 C 0.99216 0.79094 0.79652 0.0
C222 C 0.95568 0.72416 0.79242 0.0
C223 C 0.96468 0.7341 0.78362 0.0
H224 H 1.00216 0.8137 0.8014 0.0
H225 H 0.93668 0.69385 0.79425 0.0
H226 H 0.93172 0.79857 0.81743 0.0
H227 H 0.84211 0.75897 0.79867 0.0
H228 H 0.06899 0.7225 0.81026 0.0
H229 H 0.0211 0.83282 0.78635 0.0
H230 H 0.95219 0.71109 0.77877 0.0
C231 C 0.24095 0.11239 0.80225 0.0
C232 C 0.21898 0.07261 0.80378 0.0
N233 N 0.19371 0.06656 0.81035 0.0
N234 N 0.2294 0.13114 0.80781 0.0
C235 C 0.201 0.10257 0.81271 0.0
H236 H 0.26355 0.12672 0.79736 0.0
Co237 Co 0.24846 0.18464 0.80879 0.0
C238 C 0.18763 0.18789 0.81933 0.0
O239 O 0.21428 0.21237 0.82482 0.0
N240 N 0.26757 0.23879 0.80981 0.0
C241 C 0.27113 0.29665 0.80846 0.0
C242 C 0.24818 0.25713 0.80714 0.0
C243 C 0.30246 0.26797 0.81274 0.0
N244 N 0.30539 0.30359 0.81196 0.0
O245 O 0.26496 0.18197 0.82042 0.0
H246 H 0.21911 0.24263 0.80432 0.0
H247 H 0.32553 0.26332 0.81521 0.0
O248 O 0.19773 0.17446 0.81289 0.0
C249 C 0.2969 0.18119 0.8204 0.0
O250 O 0.3168 0.18952 0.81305 0.0
N251 N 0.23365 0.18606 0.7972 0.0
C252 C 0.21487 0.19172 0.77985 0.0
C253 C 0.18625 0.16511 0.78566 0.0
C254 C 0.19618 0.16284 0.79431 0.0
C255 C 0.26233 0.21059 0.79159 0.0
C256 C 0.25349 0.2144 0.78293 0.0
H257 H 0.17375 0.1421 0.79866 0.0
H258 H 0.29214 0.22804 0.7939 0.0
H259 H 0.18618 0.10816 0.81798 0.0
H260 H 0.22083 0.04994 0.80019 0.0
H261 H 0.26295 0.31852 0.80705 0.0
H262 H 0.15636 0.14588 0.78357 0.0
H263 H 0.27667 0.23555 0.77878 0.0
C264 C 0.86688 0.12025 0.79983 0.0
C265 C 0.90724 0.14185 0.79962 0.0
N266 N 0.92123 0.12446 0.80494 0.0
N267 N 0.85574 0.08974 0.80532 0.0
C268 C 0.88952 0.09307 0.80833 0.0
H269 H 0.84692 0.12765 0.79664 0.0
Co270 Co 0.80544 0.05836 0.80956 0.0
C271 C 0.79951 0.982 0.81301 0.0
O272 O 0.76434 0.96545 0.8095 0.0
N273 N 0.75429 0.02794 0.81431 0.0
C274 C 0.70812 0.99437 0.82429 0.0
C275 C 0.74661 0.00866 0.82203 0.0
C276 C 0.7201 0.02655 0.81229 0.0
N277 N 0.69141 0.00573 0.81817 0.0
O278 O 0.82227 0.08641 0.82033 0.0
H279 H 0.76822 0.00681 0.82604 0.0
H280 H 0.71665 0.04247 0.80697 0.0
O281 O 0.81945 0.01941 0.8137 0.0
C282 C 0.8134 0.11317 0.82121 0.0
O283 O 0.79025 0.11574 0.81539 0.0
N284 N 0.7904 0.03349 0.79846 0.0
C285 C 0.77167 0.00175 0.78161 0.0
C286 C 0.80072 0.99997 0.78654 0.0
C287 C 0.81027 0.01678 0.79482 0.0
C288 C 0.76467 0.03864 0.79345 0.0
C289 C 0.75412 0.0222 0.78509 0.0
H290 H 0.83447 0.01707 0.7982 0.0
H291 H 0.75347 0.05699 0.79573 0.0
H292 H 0.89098 0.07493 0.81346 0.0
H293 H 0.92493 0.16917 0.79617 0.0
H294 H 0.69432 0.97919 0.83029 0.0
H295 H 0.8169 0.9867 0.78392 0.0
H296 H 0.73271 0.0258 0.78139 0.0
C297 C 0.73195 0.85571 0.69588 0.0
C298 C 0.75102 0.83449 0.69546 0.0
N299 N 0.7818 0.85289 0.68997 0.0
N300 N 0.7507 0.88754 0.69074 0.0
C301 C 0.78073 0.88491 0.68718 0.0
H302 H 0.7061 0.84852 0.6997 0.0
Co303 Co 0.73575 0.925 0.68884 0.0
C304 C 0.81631 0.98348 0.68154 0.0
O305 O 0.80931 0.97362 0.67327 0.0
N306 N 0.72065 0.96297 0.68687 0.0
C307 C 0.7211 0.01962 0.68746 0.0
C308 C 0.74233 1.00128 0.68898 0.0
C309 C 0.68606 0.95882 0.68409 0.0
N310 N 0.68554 0.99293 0.68443 0.0
O311 O 0.72904 0.9106 0.67677 0.0
H312 H 0.77136 0.01502 0.69178 0.0
H313 H 0.66113 0.93112 0.68222 0.0
O314 O 0.78979 0.96525 0.68726 0.0
C315 C 0.69477 0.88163 0.67544 0.0
O316 O 0.66879 0.87097 0.68175 0.0
N317 N 0.7403 0.93614 0.70086 0.0
C318 C 0.7417 0.94314 0.71896 0.0
C319 C 0.77451 0.94736 0.71446 0.0
C320 C 0.77331 0.94392 0.70539 0.0
C321 C 0.70807 0.93201 0.70515 0.0
C322 C 0.70837 0.93605 0.71423 0.0
H323 H 0.79836 0.94577 0.70205 0.0
H324 H 0.68164 0.92452 0.70154 0.0
H325 H 0.80082 0.90556 0.68245 0.0
H326 H 0.74293 0.80779 0.69902 0.0
H327 H 0.73111 0.05031 0.68858 0.0
H328 H 0.80055 0.95243 0.71796 0.0
H329 H 0.68233 0.93203 0.71756 0.0
C330 C 0.1208 0.88476 0.69653 0.0
C331 C 0.13652 0.92454 0.69546 0.0
N332 N 0.12231 0.93064 0.68799 0.0
N333 N 0.0963 0.86589 0.68983 0.0
C334 C 0.09833 0.89471 0.68468 0.0
H335 H 0.12658 0.87046 0.70189 0.0
Co336 Co 0.06668 0.81169 0.68831 0.0
C337 C 0.00904 0.82383 0.67723 0.0
O338 O 0.02928 0.8351 0.66994 0.0
N339 N 0.03648 0.7571 0.68688 0.0
C340 C 0.98488 0.69715 0.68799 0.0
C341 C 0.99854 0.73617 0.68935 0.0
C342 C 0.04522 0.72986 0.68397 0.0
N343 N 0.01417 0.69298 0.68464 0.0
O344 O 0.08902 0.81817 0.67686 0.0
H345 H 0.98186 0.74847 0.69214 0.0
H346 H 0.07387 0.73677 0.68161 0.0
O347 O 0.02243 0.8155 0.68396 0.0
C348 C 0.12383 0.82381 0.6774 0.0
O349 O 0.13555 0.81783 0.685 0.0
N350 N 0.04803 0.80671 0.69978 0.0
C351 C 0.03118 0.80509 0.71754 0.0
C352 C 0.01645 0.82104 0.71142 0.0
C353 C 0.02569 0.82214 0.70259 0.0
C354 C 0.0618 0.79015 0.70555 0.0
C355 C 0.05377 0.78904 0.71447 0.0
H356 H 0.01586 0.83661 0.69811 0.0
H357 H 0.08028 0.77895 0.70324 0.0
H358 H 0.08223 0.88965 0.67868 0.0
H359 H 0.15694 0.94718 0.69982 0.0
H360 H 0.95541 0.67361 0.6893 0.0
H361 H 0.99844 0.83328 0.71342 0.0
H362 H 0.06642 0.77705 0.71893 0.0
C363 C 0.12773 0.27143 0.69487 0.0
C364 C 0.08749 0.25139 0.69554 0.0
N365 N 0.07338 0.21796 0.6909 0.0
N366 N 0.13892 0.25056 0.6899 0.0
C367 C 0.10514 0.21843 0.68746 0.0
H368 H 0.14772 0.29877 0.69804 0.0
Co369 Co 0.19066 0.26386 0.68787 0.0
C370 C 0.17556 0.19697 0.6764 0.0
O371 O 0.18936 0.21929 0.66943 0.0
N372 N 0.24299 0.27737 0.68583 0.0
C373 C 0.29767 0.27397 0.68586 0.0
C374 C 0.25808 0.25384 0.68744 0.0
C375 C 0.27414 0.31176 0.68326 0.0
N376 N 0.30785 0.31048 0.68325 0.0
O377 O 0.18617 0.28115 0.67652 0.0
H378 H 0.24147 0.22408 0.68984 0.0
H379 H 0.27248 0.33765 0.68169 0.0
O380 O 0.17422 0.21176 0.68369 0.0
C381 C 0.19245 0.31612 0.6763 0.0
O382 O 0.20715 0.33826 0.68325 0.0
N383 N 0.19382 0.24839 0.69932 0.0
C384 C 0.19296 0.23169 0.71703 0.0
C385 C 0.16616 0.20333 0.71128 0.0
C386 C 0.16713 0.2122 0.70244 0.0
C387 C 0.2206 0.27617 0.70479 0.0
C388 C 0.22107 0.26821 0.71369 0.0
H389 H 0.14504 0.19052 0.6982 0.0
H390 H 0.24086 0.30507 0.70229 0.0
H391 H 0.1038 0.19468 0.68365 0.0
H392 H 0.07006 0.26023 0.69935 0.0
H393 H 0.31743 0.26254 0.68658 0.0
H394 H 0.14394 0.17488 0.71366 0.0
H395 H 0.24187 0.29096 0.71798 0.0
C396 C 0.79653 0.60059 0.52918 0.0
C397 C 0.81484 0.57874 0.52816 0.0
N398 N 0.79446 0.55027 0.52225 0.0
N399 N 0.76473 0.58575 0.52398 0.0
C400 C 0.76454 0.55555 0.5198 0.0
H401 H 0.80568 0.62555 0.53345 0.0
Co402 Co 0.72882 0.60256 0.52223 0.0
C403 C 0.66584 0.52241 0.51576 0.0
O404 O 0.6726 0.52924 0.50736 0.0
N405 N 0.69182 0.61882 0.52042 0.0
C406 C 0.63615 0.62003 0.52155 0.0
C407 C 0.65499 0.59984 0.52365 0.0
C408 C 0.69468 0.65076 0.51639 0.0
N409 N 0.6611 0.65223 0.517 0.0
O410 O 0.7409 0.60647 0.51002 0.0
H411 H 0.64265 0.57323 0.52747 0.0
H412 H 0.72104 0.67301 0.51325 0.0
O413 O 0.68674 0.54872 0.52132 0.0
C414 C 0.7707 0.6401 0.50858 0.0
O415 O 0.78257 0.66641 0.51483 0.0
N416 N 0.7206 0.6014 0.53429 0.0
C417 C 0.71449 0.60583 0.55232 0.0
C418 C 0.70418 0.57 0.54831 0.0
C419 C 0.70808 0.56851 0.53927 0.0
C420 C 0.73112 0.63656 0.53808 0.0
C421 C 0.72828 0.63946 0.54711 0.0
H422 H 0.70208 0.54115 0.53634 0.0
H423 H 0.74218 0.66257 0.53407 0.0
H424 H 0.74335 0.53846 0.51484 0.0
H425 H 0.84079 0.58325 0.53159 0.0
H426 H 0.60621 0.61138 0.52322 0.0
H427 H 0.69442 0.54362 0.55215 0.0
H428 H 0.73675 0.66769 0.55 0.0
C429 C 0.40668 0.19828 0.53368 0.0
C430 C 0.42573 0.23809 0.53507 0.0
N431 N 0.45562 0.25541 0.52933 0.0
N432 N 0.42458 0.19045 0.52715 0.0
C433 C 0.45406 0.22582 0.52457 0.0
H434 H 0.3812 0.17637 0.53717 0.0
Co435 Co 0.408 0.14079 0.52271 0.0
C436 C 0.47813 0.17177 0.51094 0.0
O437 O 0.46078 0.17808 0.50432 0.0
N438 N 0.39055 0.09044 0.51831 0.0
C439 C 0.38671 0.0344 0.51431 0.0
C440 C 0.4117 0.07288 0.51655 0.0
C441 C 0.3529 0.06203 0.51715 0.0
N442 N 0.34957 0.02747 0.5147 0.0
O443 O 0.39282 0.15599 0.51227 0.0
H444 H 0.44317 0.08657 0.5172 0.0
H445 H 0.32837 0.06655 0.51826 0.0
O446 O 0.45978 0.15785 0.51809 0.0
C447 C 0.35896 0.15258 0.51232 0.0
O448 O 0.33558 0.1353 0.51899 0.0
N449 N 0.42122 0.12636 0.53327 0.0
C450 C 0.43435 0.10566 0.54978 0.0
C451 C 0.46591 0.1307 0.54445 0.0
C452 C 0.45873 0.14136 0.53626 0.0
C453 C 0.39018 0.10184 0.53837 0.0
C454 C 0.39608 0.09127 0.54671 0.0
H455 H 0.48344 0.16256 0.5325 0.0
H456 H 0.36066 0.09113 0.53601 0.0
H457 H 0.47423 0.22994 0.51936 0.0
H458 H 0.41781 0.25306 0.53988 0.0
H459 H 0.39533 0.01293 0.51283 0.0
H460 H 0.49583 0.14294 0.54672 0.0
H461 H 0.37106 0.07208 0.55072 0.0
C462 C 0.79757 0.24345 0.53039 0.0
C463 C 0.75819 0.23184 0.5302 0.0
N464 N 0.7502 0.24303 0.5225 0.0
N465 N 0.81427 0.26206 0.52285 0.0
C466 C 0.78469 0.26093 0.51818 0.0
H467 H 0.81299 0.23876 0.53567 0.0
Co468 Co 0.86582 0.28455 0.51897 0.0
C469 C 0.88393 0.36395 0.51305 0.0
O470 O 0.92015 0.3794 0.51589 0.0
N471 N 0.9176 0.30702 0.51468 0.0
C472 C 0.9661 0.33442 0.50496 0.0
C473 C 0.92663 0.31866 0.50627 0.0
C474 C 0.95229 0.31493 0.51828 0.0
N475 N 0.98223 0.33214 0.51252 0.0
O476 O 0.84691 0.25427 0.50849 0.0
H477 H 0.90573 0.31628 0.50138 0.0
H478 H 0.95605 0.30854 0.52494 0.0
O479 O 0.86062 0.32704 0.51375 0.0
C480 C 0.84083 0.21966 0.5096 0.0
O481 O 0.85096 0.21109 0.51711 0.0
N482 N 0.88289 0.31115 0.52973 0.0
C483 C 0.90251 0.33958 0.54677 0.0
C484 C 0.88527 0.35443 0.54107 0.0
C485 C 0.87451 0.33893 0.53267 0.0
C486 C 0.89774 0.29501 0.53536 0.0
C487 C 0.90819 0.30906 0.54389 0.0
H488 H 0.85778 0.34814 0.52878 0.0
H489 H 0.90062 0.27036 0.53327 0.0
H490 H 0.78844 0.27243 0.51162 0.0
H491 H 0.73733 0.21677 0.53539 0.0
H492 H 0.98166 0.34589 0.49887 0.0
H493 H 0.87866 0.37669 0.54322 0.0
H494 H 0.92041 0.29608 0.5482 0.0
C495 C 0.92127 0.46883 0.63059 0.0
C496 C 0.89721 0.4846 0.6318 0.0
N497 N 0.87937 0.47233 0.6396 0.0
N498 N 0.91783 0.4462 0.63754 0.0
C499 C 0.89236 0.44929 0.64293 0.0
H500 H 0.93939 0.47299 0.62493 0.0
Co501 Co 0.9397 0.4145 0.63967 0.0
C502 C 0.87019 0.34397 0.64773 0.0
O503 O 0.89031 0.3369 0.65357 0.0
N504 N 0.96129 0.38241 0.64184 0.0
C505 C 0.9728 0.33262 0.64163 0.0
C506 C 0.94706 0.34498 0.63924 0.0
C507 C 0.99592 0.39232 0.64568 0.0
N508 N 0.00365 0.36249 0.64567 0.0
O509 O 0.94886 0.43273 0.65152 0.0
H510 H 0.91998 0.32795 0.63568 0.0
H511 H 0.0152 0.421 0.64839 0.0
O512 O 0.88755 0.37249 0.64242 0.0
C513 C 0.97866 0.46719 0.65177 0.0
O514 O 0.99999 0.48086 0.64465 0.0
N515 N 0.93362 0.40003 0.62792 0.0
C516 C 0.93412 0.39256 0.60985 0.0
C517 C 0.89878 0.37326 0.61453 0.0
C518 C 0.89906 0.3777 0.6236 0.0
C519 C 0.96827 0.41781 0.62351 0.0
C520 C 0.9692 0.41455 0.61446 0.0
H521 H 0.87145 0.36444 0.62705 0.0
H522 H 0.99523 0.43579 0.62704 0.0
H523 H 0.8825 0.43385 0.64909 0.0
H524 H 0.89306 0.50346 0.62731 0.0
H525 H 0.96953 0.3042 0.64026 0.0
H526 H 0.87107 0.35641 0.61116 0.0
H527 H 0.99707 0.4297 0.61108 0.0
C528 C 0.55655 0.45743 0.63182 0.0
C529 C 0.53956 0.41718 0.63225 0.0
N530 N 0.5477 0.40775 0.64012 0.0
N531 N 0.57582 0.47328 0.63936 0.0
C532 C 0.56955 0.44214 0.64428 0.0
H533 H 0.55479 0.47378 0.62634 0.0
Co534 Co 0.60575 0.52566 0.64296 0.0
C535 C 0.66101 0.51352 0.65408 0.0
O536 O 0.65009 0.52333 0.66132 0.0
N537 N 0.63622 0.57785 0.64661 0.0
C538 C 0.68774 0.63677 0.649 0.0
C539 C 0.67573 0.59864 0.64687 0.0
C540 C 0.62488 0.60421 0.64857 0.0
N541 N 0.65581 0.64055 0.65008 0.0
O542 O 0.57987 0.51072 0.65404 0.0
H543 H 0.69496 0.58735 0.64529 0.0
H544 H 0.5945 0.59685 0.64873 0.0
O545 O 0.64543 0.51394 0.64682 0.0
C546 C 0.54536 0.50584 0.65398 0.0
O547 O 0.53369 0.51644 0.64697 0.0
N548 N 0.62877 0.54054 0.63185 0.0
C549 C 0.65695 0.5664 0.61504 0.0
C550 C 0.67778 0.55608 0.62084 0.0
C551 C 0.6631 0.543 0.62922 0.0
C552 C 0.60863 0.55133 0.62635 0.0
C553 C 0.62186 0.56377 0.61784 0.0
H554 H 0.68005 0.53582 0.63356 0.0
H555 H 0.5819 0.54992 0.62858 0.0
H556 H 0.58129 0.44468 0.65079 0.0
H557 H 0.52211 0.39646 0.62722 0.0
H558 H 0.71791 0.66012 0.64937 0.0
H559 H 0.70508 0.55787 0.61889 0.0
H560 H 0.60523 0.5719 0.61354 0.0
C561 C 0.55145 0.07115 0.63885 0.0
C562 C 0.59145 0.09641 0.63886 0.0
N563 N 0.59811 0.13265 0.6407 0.0
N564 N 0.53304 0.09131 0.64077 0.0
C565 C 0.56233 0.12873 0.64181 0.0
H566 H 0.53676 0.03995 0.63765 0.0
Co567 Co 0.47901 0.07018 0.64238 0.0
C568 C 0.48023 0.13628 0.65185 0.0
O569 O 0.46423 0.11388 0.65872 0.0
N570 N 0.42454 0.04926 0.64395 0.0
C571 C 0.36584 0.04377 0.64239 0.0
C572 C 0.40525 0.06727 0.64099 0.0
C573 C 0.39586 0.01454 0.64716 0.0
N574 N 0.35974 0.01047 0.64623 0.0
O575 O 0.48605 0.06093 0.65434 0.0
H576 H 0.4189 0.09554 0.6378 0.0
H577 H 0.40109 0.99218 0.64985 0.0
O578 O 0.48728 0.12216 0.64504 0.0
C579 C 0.48654 0.02898 0.6552 0.0
O580 O 0.47414 0.00426 0.64862 0.0
N581 N 0.47339 0.07633 0.63049 0.0
C582 C 0.46683 0.07622 0.6124 0.0
C583 C 0.48302 0.11148 0.61707 0.0
C584 C 0.48669 0.11099 0.62616 0.0
C585 C 0.45721 0.04182 0.62605 0.0
C586 C 0.45377 0.04107 0.61698 0.0
H587 H 0.50117 0.13843 0.62961 0.0
H588 H 0.44767 0.01476 0.6296 0.0
H589 H 0.55786 0.15277 0.64358 0.0
H590 H 0.61383 0.08878 0.63756 0.0
H591 H 0.34332 0.05071 0.64068 0.0
H592 H 0.49406 0.13922 0.61371 0.0
H593 H 0.44123 0.01332 0.61357 0.0
C594 C 0.54354 0.09238 0.14346 0.0
C595 C 0.52846 0.11615 0.1453 0.0
N596 N 0.55821 0.15347 0.1457 0.0
N597 N 0.58292 0.11416 0.14273 0.0
C598 C 0.59096 0.1514 0.14409 0.0
H599 H 0.52656 0.06099 0.14267 0.0
Co600 Co 0.61703 0.09389 0.14137 0.0
C601 C 0.67951 0.15787 0.14555 0.0
O602 O 0.67848 0.15536 0.13699 0.0
N603 N 0.65115 0.07369 0.14055 0.0
C604 C 0.69576 0.05949 0.13569 0.0
C605 C 0.67576 0.07903 0.13389 0.0
C606 C 0.65702 0.05129 0.14636 0.0
N607 N 0.68382 0.04191 0.14354 0.0
O608 O 0.58595 0.05677 0.15064 0.0
H609 H 0.67836 0.09544 0.12801 0.0
H610 H 0.64208 0.04221 0.15258 0.0
O611 O 0.65141 0.13072 0.14992 0.0
C612 C 0.55617 0.02231 0.15123 0.0
O613 O 0.54392 0.99947 0.14436 0.0
N614 N 0.58641 0.06132 0.13175 0.0
C615 C 0.56817 0.03481 0.11441 0.0
C616 C 0.56346 0.0657 0.11744 0.0
C617 C 0.57475 0.0797 0.12588 0.0
C618 C 0.5865 0.028 0.12919 0.0
C619 C 0.57793 0.01455 0.12054 0.0
H620 H 0.57733 0.10767 0.12728 0.0
H621 H 0.5967 0.01343 0.13354 0.0
H622 H 0.62027 0.17638 0.14395 0.0
H623 H 0.49778 0.10616 0.14641 0.0
H624 H 0.71673 0.05761 0.13144 0.0
H625 H 0.55467 0.08164 0.1131 0.0
H626 H 0.58218 0.99055 0.11858 0.0
C627 C 0.9373 0.46709 0.13343 0.0
C628 C 0.91473 0.42732 0.13492 0.0
N629 N 0.88987 0.42133 0.1416 0.0
N630 N 0.92655 0.4861 0.13909 0.0
C631 C 0.898 0.45762 0.14399 0.0
H632 H 0.95994 0.4812 0.12853 0.0
Co633 Co 0.9462 0.53957 0.1406 0.0
C634 C 0.87417 0.53818 0.14786 0.0
O635 O 0.89246 0.5648 0.15392 0.0
N636 N 0.96605 0.59364 0.1422 0.0
C637 C 0.97501 0.65403 0.14134 0.0
C638 C 0.94947 0.61496 0.1397 0.0
C639 C 1.00195 0.62054 0.14515 0.0
N640 N 0.00815 0.6575 0.14472 0.0
O641 O 0.95396 0.53268 0.1527 0.0
H642 H 0.92111 0.60305 0.1366 0.0
H643 H 0.02355 0.61334 0.14742 0.0
O644 O 0.89322 0.52832 0.14274 0.0
C645 C 0.98638 0.53341 0.15387 0.0
O646 O 0.01092 0.5434 0.14728 0.0
N647 N 0.94082 0.54546 0.12861 0.0
C648 C 0.94092 0.55392 0.11048 0.0
C649 C 0.90558 0.532 0.11507 0.0
C650 C 0.90615 0.52785 0.12414 0.0
C651 C 0.97537 0.56689 0.12428 0.0
C652 C 0.9761 0.57172 0.11524 0.0
H653 H 0.87882 0.50957 0.1275 0.0
H654 H 1.00263 0.57996 0.12789 0.0
H655 H 0.88408 0.46381 0.14934 0.0
H656 H 0.91642 0.4048 0.13124 0.0
H657 H 0.97022 0.67814 0.1398 0.0
H658 H 0.87782 0.51711 0.11165 0.0
H659 H 0.00405 0.58915 0.112 0.0
C660 C 0.55684 0.48848 0.13533 0.0
C661 C 0.59652 0.50251 0.13449 0.0
N662 N 0.60356 0.47337 0.13655 0.0
N663 N 0.5391 0.45084 0.138 0.0
C664 C 0.56831 0.44235 0.13856 0.0
H665 H 0.54223 0.50541 0.13466 0.0
Co666 Co 0.48852 0.42386 0.14251 0.0
C667 C 0.47948 0.35046 0.15003 0.0
O668 O 0.44229 0.33219 0.14779 0.0
N669 N 0.43739 0.39778 0.14742 0.0
C670 C 0.39199 0.37361 0.15791 0.0
C671 C 0.43131 0.39165 0.15613 0.0
C672 C 0.40084 0.38348 0.14406 0.0
N673 N 0.37302 0.36838 0.15032 0.0
O674 O 0.50709 0.45794 0.15234 0.0
H675 H 0.45421 0.39968 0.16094 0.0
H676 H 0.39437 0.38452 0.13725 0.0
O677 O 0.50079 0.38711 0.14846 0.0
C678 C 0.49694 0.48385 0.15293 0.0
O679 O 0.47145 0.48341 0.14733 0.0
N680 N 0.47164 0.39303 0.1323 0.0
C681 C 0.44815 0.35547 0.11618 0.0
C682 C 0.46906 0.34565 0.12205 0.0
C683 C 0.48169 0.36569 0.12996 0.0
C684 C 0.45324 0.40443 0.12643 0.0
C685 C 0.44091 0.38581 0.11833 0.0
H686 H 0.50063 0.35986 0.13398 0.0
H687 H 0.44824 0.4283 0.12805 0.0
H688 H 0.56452 0.41494 0.141 0.0
H689 H 0.61863 0.53221 0.13285 0.0
H690 H 0.37828 0.36532 0.16428 0.0
H691 H 0.47673 0.32358 0.12041 0.0
H692 H 0.42573 0.39486 0.11382 0.0
C693 C 0.39885 0.16844 0.03203 0.0
C694 C 0.41632 0.14588 0.03104 0.0
N695 N 0.44897 0.16625 0.02621 0.0
N696 N 0.42032 0.20265 0.02777 0.0
C697 C 0.45076 0.20049 0.02431 0.0
H698 H 0.37134 0.15981 0.03529 0.0
Co699 Co 0.40562 0.23993 0.02565 0.0
C700 C 0.47926 0.30506 0.01791 0.0
O701 O 0.46091 0.3106 0.01138 0.0
N702 N 0.39045 0.27738 0.02355 0.0
C703 C 0.38773 0.33222 0.02457 0.0
C704 C 0.40974 0.31489 0.02633 0.0
C705 C 0.35655 0.27252 0.02015 0.0
N706 N 0.35411 0.30555 0.02072 0.0
O707 O 0.39783 0.22404 0.01364 0.0
H708 H 0.43759 0.32854 0.0297 0.0
H709 H 0.33336 0.24488 0.01768 0.0
O710 O 0.46003 0.27847 0.02355 0.0
C711 C 0.36569 0.19178 0.01275 0.0
O712 O 0.34099 0.17927 0.01935 0.0
N713 N 0.41071 0.25235 0.03753 0.0
C714 C 0.40924 0.26479 0.0554 0.0
C715 C 0.44499 0.28008 0.05094 0.0
C716 C 0.44517 0.27305 0.04199 0.0
C717 C 0.37572 0.23723 0.04178 0.0
C718 C 0.37428 0.24294 0.05074 0.0
H719 H 0.47305 0.28404 0.03876 0.0
H720 H 0.34876 0.22044 0.03816 0.0
H721 H 0.47252 0.22245 0.02002 0.0
H722 H 0.40546 0.11649 0.03352 0.0
H723 H 0.39574 0.36211 0.0261 0.0
H724 H 0.47258 0.29654 0.05437 0.0
H725 H 0.34611 0.23066 0.05398 0.0
C726 C 0.74546 0.19912 0.0416 0.0
C727 C 0.75439 0.23765 0.04133 0.0
N728 N 0.74859 0.24596 0.03311 0.0
N729 N 0.73452 0.18344 0.03356 0.0
C730 C 0.73654 0.21265 0.02855 0.0
H731 H 0.75 0.18454 0.0471 0.0
Co732 Co 0.73109 0.13705 0.02958 0.0
C733 C 0.65256 0.10171 0.02125 0.0
O734 O 0.64161 0.06873 0.02547 0.0
N735 N 0.73038 0.0915 0.02542 0.0
C736 C 0.75256 0.04957 0.02412 0.0
C737 C 0.75897 0.08399 0.02784 0.0
C738 C 0.70816 0.06209 0.01979 0.0
N739 N 0.72026 0.03559 0.01913 0.0
O740 O 0.77001 0.16685 0.02088 0.0
H741 H 0.78258 0.10206 0.03226 0.0
H742 H 0.68449 0.06034 0.01593 0.0
O743 O 0.68795 0.12996 0.02188 0.0
C744 C 0.8037 0.18559 0.02447 0.0
O745 O 0.80653 0.1808 0.03288 0.0
N746 N 0.69518 0.10869 0.03876 0.0
C747 C 0.64785 0.0713 0.05326 0.0
C748 C 0.64144 0.09711 0.04817 0.0
C749 C 0.66556 0.11572 0.04099 0.0
C750 C 0.70228 0.08437 0.04383 0.0
C751 C 0.6785 0.06477 0.05098 0.0
H752 H 0.66079 0.13638 0.03731 0.0
H753 H 0.72734 0.08102 0.04264 0.0
H754 H 0.73357 0.21088 0.0215 0.0
H755 H 0.76745 0.25888 0.04654 0.0
H756 H 0.76963 0.03533 0.02522 0.0
H757 H 0.61847 0.1035 0.04983 0.0
H758 H 0.68538 0.04627 0.05497 0.0
C759 C 0.78802 0.58932 0.02398 0.0
C760 C 0.74878 0.56439 0.02555 0.0
N761 N 0.74324 0.52829 0.02708 0.0
N762 N 0.80716 0.56898 0.02437 0.0
C763 C 0.7793 0.53223 0.02662 0.0
H764 H 0.80119 0.61962 0.02198 0.0
Co765 Co 0.8576 0.58722 0.01981 0.0
C766 C 0.81816 0.50576 0.01222 0.0
O767 O 0.79071 0.50911 0.0081 0.0
N768 N 0.90798 0.60587 0.01512 0.0
C769 C 0.95737 0.61273 0.00682 0.0
C770 C 0.91846 0.58881 0.00885 0.0
C771 C 0.94105 0.64028 0.01676 0.0
N772 N 0.97169 0.64529 0.01177 0.0
O773 O 0.83921 0.59517 0.0088 0.0
H774 H 0.89885 0.56133 0.00569 0.0
H775 H 0.94228 0.66155 0.02141 0.0
O776 O 0.84394 0.53426 0.01671 0.0
C777 C 0.85011 0.63074 0.007 0.0
O778 O 0.87632 0.65844 0.01203 0.0
N779 N 0.87541 0.58145 0.03077 0.0
C780 C 0.90026 0.57627 0.04758 0.0
C781 C 0.90292 0.55433 0.04065 0.0
C782 C 0.89069 0.55761 0.03228 0.0
C783 C 0.87336 0.60366 0.03734 0.0
C784 C 0.88544 0.6014 0.04581 0.0
H785 H 0.8938 0.54111 0.02703 0.0
H786 H 0.8622 0.62325 0.036 0.0
H787 H 0.7846 0.50792 0.02715 0.0
H788 H 0.72583 0.57181 0.02508 0.0
H789 H 0.97331 0.60733 0.00177 0.0
H790 H 0.914 0.53442 0.04168 0.0
H791 H 0.88365 0.6196 0.05088 0.0
C792 C 0.45649 0.91778 0.86422 0.0
C793 C 0.47198 0.89312 0.86439 0.0
N794 N 0.45228 0.86416 0.85855 0.0
N795 N 0.42718 0.90423 0.85833 0.0
C796 C 0.4256 0.87183 0.85495 0.0
H797 H 0.46637 0.94419 0.86803 0.0
Co798 Co 0.39823 0.92683 0.85452 0.0
C799 C 0.31783 0.859 0.85211 0.0
O800 O 0.30256 0.87942 0.85528 0.0
N801 N 0.36938 0.95002 0.85022 0.0
C802 C 0.33764 0.9649 0.84024 0.0
C803 C 0.35127 0.94006 0.84236 0.0
C804 C 0.36665 0.98167 0.8527 0.0
N805 N 0.34715 0.99086 0.84675 0.0
O806 O 0.42121 0.93206 0.84325 0.0
H807 H 0.34967 0.91712 0.8382 0.0
H808 H 0.38065 0.99933 0.85839 0.0
O809 O 0.35505 0.87482 0.85142 0.0
C810 C 0.44659 0.96625 0.8407 0.0
O811 O 0.45155 0.99674 0.84522 0.0
N812 N 0.37914 0.92319 0.86601 0.0
C813 C 0.36882 0.92295 0.8841 0.0
C814 C 0.35118 0.88789 0.87937 0.0
C815 C 0.35767 0.88852 0.87039 0.0
C816 C 0.3967 0.95755 0.87055 0.0
C817 C 0.39166 0.95817 0.87958 0.0
H818 H 0.34782 0.86081 0.86718 0.0
H819 H 0.41704 0.9844 0.86726 0.0
H820 H 0.40631 0.855 0.84967 0.0
H821 H 0.49577 0.89624 0.86848 0.0
H822 H 0.32341 0.9651 0.8342 0.0
H823 H 0.33488 0.85994 0.88268 0.0
H824 H 0.40674 0.98579 0.88305 0.0
C825 C 0.08147 0.5314 0.86705 0.0
C826 C 0.10471 0.57163 0.86673 0.0
N827 N 0.13176 0.58079 0.8604 0.0
N828 N 0.09405 0.51541 0.86099 0.0
C829 C 0.12435 0.54617 0.85701 0.0
H830 H 0.05694 0.51485 0.8714 0.0
Co831 Co 0.07301 0.46284 0.85808 0.0
C832 C 0.15155 0.47916 0.85069 0.0
O833 O 0.14613 0.48656 0.8426 0.0
N834 N 0.05193 0.41014 0.85508 0.0
C835 C 0.04149 0.34942 0.85412 0.0
C836 C 0.06748 0.38708 0.85671 0.0
C837 C 0.01651 0.3859 0.85152 0.0
N838 N 0.00928 0.34859 0.85086 0.0
O839 O 0.06921 0.47612 0.84624 0.0
H840 H 0.09537 0.39666 0.85987 0.0
H841 H 0.99628 0.39548 0.84956 0.0
O842 O 0.12508 0.47069 0.85643 0.0
C843 C 0.0394 0.48053 0.84542 0.0
O844 O 0.01482 0.47027 0.85202 0.0
N845 N 0.0747 0.45058 0.86983 0.0
C846 C 0.07226 0.43444 0.88764 0.0
C847 C 0.10768 0.46109 0.88358 0.0
C848 C 0.10824 0.46891 0.87468 0.0
C849 C 0.03995 0.42481 0.87365 0.0
C850 C 0.03813 0.41598 0.88253 0.0
H851 H 0.13544 0.49084 0.87176 0.0
H852 H 0.01337 0.4114 0.8698 0.0
H853 H 0.13991 0.54325 0.85152 0.0
H854 H 0.10207 0.59238 0.87089 0.0
H855 H 0.04561 0.32441 0.85487 0.0
H856 H 0.13454 0.4769 0.8873 0.0
H857 H 0.01016 0.39508 0.88537 0.0
C858 C 0.4764 0.53821 0.86554 0.0
C859 C 0.437 0.51965 0.86743 0.0
N860 N 0.41994 0.53458 0.86224 0.0
N861 N 0.48432 0.56493 0.85923 0.0
C862 C 0.44943 0.56194 0.85731 0.0
H863 H 0.49778 0.532 0.86842 0.0
Co864 Co 0.53238 0.59479 0.85373 0.0
C865 C 0.53892 0.67249 0.85134 0.0
O866 O 0.57603 0.68927 0.8536 0.0
N867 N 0.5809 0.62389 0.84777 0.0
C868 C 0.6207 0.65394 0.83649 0.0
C869 C 0.5838 0.64037 0.83985 0.0
C870 C 0.61667 0.62737 0.84898 0.0
N871 N 0.64136 0.64571 0.84225 0.0
O872 O 0.50891 0.56794 0.84311 0.0
H873 H 0.5599 0.64098 0.83651 0.0
H874 H 0.62413 0.61445 0.85431 0.0
O875 O 0.51842 0.63507 0.85098 0.0
C876 C 0.50535 0.53406 0.84257 0.0
O877 O 0.52082 0.52291 0.84876 0.0
N878 N 0.55415 0.61823 0.86463 0.0
C879 C 0.57624 0.63692 0.8822 0.0
C880 C 0.55014 0.64673 0.87823 0.0
C881 C 0.53922 0.63683 0.86951 0.0
C882 C 0.57812 0.60695 0.86849 0.0
C883 C 0.59075 0.61728 0.8771 0.0
H884 H 0.51634 0.6415 0.86696 0.0
H885 H 0.58524 0.58731 0.86512 0.0
H886 H 0.44577 0.57916 0.85229 0.0
H887 H 0.42205 0.49609 0.87209 0.0
H888 H 0.63115 0.66772 0.83019 0.0
H889 H 0.53619 0.65983 0.88191 0.0
H890 H 0.61051 0.6084 0.8798 0.0
C891 C 0.61092 0.81717 0.96607 0.0
C892 C 0.59228 0.83893 0.9666 0.0
N893 N 0.55807 0.81732 0.97084 0.0
N894 N 0.5886 0.78235 0.97004 0.0
C895 C 0.55665 0.78343 0.97287 0.0
H896 H 0.63986 0.82697 0.96344 0.0
Co897 Co 0.60333 0.74593 0.97323 0.0
C898 C 0.5297 0.68465 0.98125 0.0
O899 O 0.54798 0.68368 0.98834 0.0
N900 N 0.61846 0.70939 0.97659 0.0
C901 C 0.62244 0.65513 0.9777 0.0
C902 C 0.59946 0.67044 0.97503 0.0
C903 C 0.65311 0.71709 0.98009 0.0
N904 N 0.65634 0.68459 0.98084 0.0
O905 O 0.6078 0.76414 0.98494 0.0
H906 H 0.5714 0.6544 0.97179 0.0
H907 H 0.67606 0.7462 0.98182 0.0
O908 O 0.54881 0.70736 0.97496 0.0
C909 C 0.64008 0.79553 0.98636 0.0
O910 O 0.66794 0.80722 0.98045 0.0
N911 N 0.60076 0.73058 0.96158 0.0
C912 C 0.60156 0.70749 0.94445 0.0
C913 C 0.56791 0.70612 0.94788 0.0
C914 C 0.56803 0.71771 0.95652 0.0
C915 C 0.63435 0.73409 0.95817 0.0
C916 C 0.63516 0.72192 0.94965 0.0
H917 H 0.54188 0.71636 0.95913 0.0
H918 H 0.66051 0.74575 0.96214 0.0
H919 H 0.53421 0.7613 0.977 0.0
H920 H 0.60355 0.86872 0.96436 0.0
H921 H 0.61554 0.62503 0.97696 0.0
H922 H 0.54155 0.69534 0.94398 0.0
H923 H 0.6618 0.72386 0.94715 0.0
C924 C 0.20505 0.77204 0.96964 0.0
C925 C 0.18934 0.73222 0.97079 0.0
N926 N 0.21298 0.7264 0.9762 0.0
N927 N 0.2384 0.79115 0.9743 0.0
C928 C 0.2423 0.76261 0.97826 0.0
H929 H 0.1928 0.78621 0.96574 0.0
Co930 Co 0.26962 0.84506 0.97563 0.0
C931 C 0.33669 0.85286 0.98581 0.0
O932 O 0.33205 0.87496 0.99156 0.0
N933 N 0.30181 0.90006 0.97694 0.0
C934 C 0.35432 0.95933 0.97543 0.0
C935 C 0.33903 0.92013 0.97392 0.0
C936 C 0.29525 0.92819 0.98029 0.0
N937 N 0.32684 0.96461 0.97939 0.0
O938 O 0.24995 0.83896 0.98732 0.0
H939 H 0.35436 0.90709 0.9708 0.0
H940 H 0.26779 0.92232 0.98317 0.0
O941 O 0.31301 0.8385 0.97941 0.0
C942 C 0.21837 0.8404 0.98772 0.0
O943 O 0.20709 0.8517 0.98077 0.0
N944 N 0.28556 0.84963 0.96393 0.0
C945 C 0.31 0.86604 0.9466 0.0
C946 C 0.32361 0.84667 0.95203 0.0
C947 C 0.31045 0.83804 0.96066 0.0
C948 C 0.27066 0.86683 0.95864 0.0
C949 C 0.28241 0.87522 0.94992 0.0
H950 H 0.32108 0.82291 0.96472 0.0
H951 H 0.25042 0.87515 0.9613 0.0
H952 H 0.26562 0.76824 0.98279 0.0
H953 H 0.16283 0.70941 0.9678 0.0
H954 H 0.38376 0.98216 0.97382 0.0
H955 H 0.34447 0.83858 0.94962 0.0
H956 H 0.27123 0.89013 0.94591 0.0
C957 C 0.22327 0.39883 0.97494 0.0
C958 C 0.2622 0.42702 0.9744 0.0
N959 N 0.26483 0.46236 0.97484 0.0
N960 N 0.20149 0.41631 0.97586 0.0
C961 C 0.22766 0.45512 0.97559 0.0
H962 H 0.2117 0.36753 0.97492 0.0
Co963 Co 0.14791 0.38971 0.9782 0.0
C964 C 0.13389 0.45244 0.98664 0.0
O965 O 0.09575 0.43056 0.98748 0.0
N966 N 0.09356 0.36093 0.98048 0.0
C967 C 0.02951 0.32154 0.97845 0.0
C968 C 0.06539 0.3413 0.97445 0.0
C969 C 0.07393 0.35122 0.98818 0.0
N970 N 0.03474 0.32775 0.98712 0.0
O971 O 0.15903 0.37521 0.98933 0.0
H972 H 0.07033 0.34065 0.96752 0.0
H973 H 0.08828 0.36109 0.99444 0.0
O974 O 0.15379 0.43818 0.98327 0.0
C975 C 0.15897 0.34289 0.98978 0.0
O976 O 0.14544 0.31879 0.9831 0.0
N977 N 0.1384 0.40308 0.96701 0.0
C978 C 0.11794 0.41079 0.94997 0.0
C979 C 0.11198 0.43042 0.95691 0.0
C980 C 0.12217 0.42602 0.96538 0.0
C981 C 0.14575 0.38487 0.96031 0.0
C982 C 0.13581 0.38837 0.95172 0.0
H983 H 0.11512 0.43974 0.97056 0.0
H984 H 0.15795 0.36621 0.96169 0.0
H985 H 0.21992 0.47772 0.97625 0.0
H986 H 0.28672 0.42195 0.97386 0.0
H987 H 1.00173 0.30415 0.97517 0.0
H988 H 0.09875 0.44845 0.95584 0.0
H989 H 0.14059 0.37237 0.94657 0.0
C990 C 0.19141 0.40755 0.47343 0.0
C991 C 0.17442 0.4308 0.47286 0.0
N992 N 0.20241 0.46815 0.47436 0.0
N993 N 0.22981 0.43018 0.47532 0.0
C994 C 0.23548 0.46689 0.47587 0.0
H995 H 0.17656 0.37603 0.47273 0.0
Co996 Co 0.2646 0.41221 0.47784 0.0
C997 C 0.32991 0.49399 0.48245 0.0
O998 O 0.32255 0.49251 0.49085 0.0
N999 N 0.29924 0.39373 0.48053 0.0
C1000 C 0.35131 0.38575 0.48133 0.0
C1001 C 0.33816 0.41097 0.47899 0.0
C1002 C 0.28952 0.35804 0.48375 0.0
N1003 N 0.32055 0.3523 0.48429 0.0
O1004 O 0.25513 0.41556 0.48997 0.0
H1005 H 0.35581 0.43947 0.47603 0.0
H1006 H 0.25997 0.33616 0.48544 0.0
O1007 O 0.30854 0.46491 0.47755 0.0
C1008 C 0.22615 0.38424 0.49293 0.0
O1009 O 0.20912 0.35351 0.48779 0.0
N1010 N 0.27167 0.40757 0.46585 0.0
C1011 C 0.2868 0.40079 0.44838 0.0
C1012 C 0.28933 0.43535 0.45147 0.0
C1013 C 0.28175 0.43822 0.46025 0.0
C1014 C 0.26639 0.37275 0.46278 0.0
C1015 C 0.27471 0.36899 0.45408 0.0
H1016 H 0.28472 0.46545 0.46258 0.0
H1017 H 0.25671 0.34803 0.46715 0.0
H1018 H 0.26297 0.4923 0.47764 0.0
H1019 H 0.14392 0.42103 0.47151 0.0
H1020 H 0.38092 0.39113 0.48058 0.0
H1021 H 0.29856 0.46044 0.44721 0.0
H1022 H 0.2721 0.34171 0.45184 0.0
C1023 C 0.5889 0.80801 0.4586 0.0
C1024 C 0.56667 0.7681 0.45738 0.0
N1025 N 0.53689 0.75351 0.46319 0.0
N1026 N 0.57294 0.81854 0.46509 0.0
C1027 C 0.54147 0.78481 0.46776 0.0
H1028 H 0.61567 0.82783 0.4552 0.0
Co1029 Co 0.59282 0.86701 0.47046 0.0
C1030 C 0.52362 0.8776 0.47233 0.0
O1031 O 0.54489 0.91433 0.46985 0.0
N1032 N 0.613 0.91549 0.47635 0.0
C1033 C 0.62182 0.95417 0.48776 0.0
C1034 C 0.59895 0.91765 0.48427 0.0
C1035 C 0.64491 0.95156 0.4752 0.0
N1036 N 0.65071 0.97545 0.48206 0.0
O1037 O 0.59336 0.84281 0.48126 0.0
H1038 H 0.57435 0.89347 0.48751 0.0
H1039 H 0.6651 0.95979 0.4698 0.0
O1040 O 0.5392 0.85588 0.47276 0.0
C1041 C 0.62305 0.83826 0.482 0.0
O1042 O 0.65004 0.8527 0.47587 0.0
N1043 N 0.59481 0.88956 0.45946 0.0
C1044 C 0.60562 0.90771 0.4416 0.0
C1045 C 0.56784 0.8875 0.44522 0.0
C1046 C 0.56302 0.87811 0.45413 0.0
C1047 C 0.63166 0.90946 0.45604 0.0
C1048 C 0.63778 0.9196 0.44721 0.0
H1049 H 0.53374 0.85868 0.45648 0.0
H1050 H 0.65643 0.91457 0.46001 0.0
H1051 H 0.52286 0.78326 0.47312 0.0
H1052 H 0.57298 0.75107 0.4528 0.0
H1053 H 0.61833 0.96401 0.49412 0.0
H1054 H 0.54209 0.87638 0.44111 0.0
H1055 H 0.6675 0.93487 0.44473 0.0
C1056 C 0.19596 0.80772 0.4687 0.0
C1057 C 0.23626 0.82474 0.4685 0.0
N1058 N 0.24678 0.80474 0.47399 0.0
N1059 N 0.18118 0.77703 0.47423 0.0
C1060 C 0.21279 0.77641 0.47744 0.0
H1061 H 0.17847 0.81648 0.46489 0.0
Co1062 Co 0.12889 0.74168 0.47689 0.0
C1063 C 0.13554 0.67372 0.48375 0.0
O1064 O 0.11245 0.66719 0.4905 0.0
N1065 N 0.07594 0.70608 0.47959 0.0
C1066 C 0.01626 0.65328 0.47952 0.0
C1067 C 0.0551 0.66771 0.47745 0.0
C1068 C 0.04886 0.71438 0.48278 0.0
N1069 N 0.0123 0.68277 0.48282 0.0
O1070 O 0.14075 0.75736 0.48882 0.0
H1071 H 0.06694 0.65163 0.47416 0.0
H1072 H 0.05551 0.74339 0.48474 0.0
O1073 O 0.14254 0.7012 0.47839 0.0
C1074 C 0.13948 0.78841 0.49045 0.0
O1075 O 0.1251 0.80172 0.48448 0.0
N1076 N 0.11839 0.72901 0.46505 0.0
C1077 C 0.10434 0.71778 0.44711 0.0
C1078 C 0.13291 0.71155 0.45111 0.0
C1079 C 0.13937 0.71716 0.46009 0.0
C1080 C 0.09088 0.73567 0.46131 0.0
C1081 C 0.08286 0.72952 0.45239 0.0
H1082 H 0.16234 0.71345 0.46299 0.0
H1083 H 0.07527 0.74617 0.46526 0.0
H1084 H 0.21081 0.75553 0.48229 0.0
H1085 H 0.25602 0.84902 0.4644 0.0
H1086 H 0.99246 0.62394 0.47823 0.0
H1087 H 0.15109 0.70359 0.44732 0.0
H1088 H 0.06014 0.73421 0.44969 0.0
C1089 C 0.07431 0.54853 0.36525 0.0
C1090 C 0.09492 0.52864 0.36497 0.0
N1091 N 0.12167 0.54404 0.35849 0.0
N1092 N 0.08826 0.57633 0.35899 0.0
C1093 C 0.11658 0.57249 0.35496 0.0
H1094 H 0.05101 0.54334 0.36974 0.0
Co1095 Co 0.07344 0.6126 0.35583 0.0
C1096 C 0.14987 0.67543 0.34811 0.0
O1097 O 0.13447 0.68231 0.3412 0.0
N1098 N 0.05829 0.64907 0.35256 0.0
C1099 C 0.05316 0.70277 0.35171 0.0
C1100 C 0.07762 0.6883 0.35375 0.0
C1101 C 0.02208 0.64041 0.34994 0.0
N1102 N 0.01809 0.67247 0.3494 0.0
O1103 O 0.06668 0.5931 0.34416 0.0
H1104 H 0.10677 0.70509 0.35645 0.0
H1105 H 0.99842 0.6109 0.34885 0.0
O1106 O 0.12809 0.65011 0.35375 0.0
C1107 C 0.03336 0.56246 0.3431 0.0
O1108 O 0.00738 0.5517 0.34941 0.0
N1109 N 0.07812 0.62931 0.36742 0.0
C1110 C 0.08007 0.65399 0.38452 0.0
C1111 C 0.11332 0.65551 0.3808 0.0
C1112 C 0.1118 0.6431 0.37219 0.0
C1113 C 0.04499 0.62574 0.37112 0.0
C1114 C 0.04553 0.63865 0.37962 0.0
H1115 H 0.13758 0.64434 0.36939 0.0
H1116 H 0.01808 0.61325 0.3674 0.0
H1117 H 0.13277 0.58999 0.34938 0.0
H1118 H 0.09105 0.50532 0.36933 0.0
H1119 H 0.05986 0.73282 0.35243 0.0
H1120 H 0.14037 0.66686 0.38446 0.0
H1121 H 0.01912 0.6364 0.38237 0.0
C1122 C 0.43282 0.52852 0.3663 0.0
C1123 C 0.44854 0.56847 0.36541 0.0
N1124 N 0.43667 0.57534 0.3577 0.0
N1125 N 0.41065 0.51034 0.35922 0.0
C1126 C 0.41384 0.53976 0.3541 0.0
H1127 H 0.43785 0.51376 0.37168 0.0
Co1128 Co 0.38359 0.45676 0.35641 0.0
C1129 C 0.30164 0.44311 0.35392 0.0
O1130 O 0.28512 0.40928 0.35796 0.0
N1131 N 0.35644 0.40206 0.35342 0.0
C1132 C 0.31854 0.33688 0.354 0.0
C1133 C 0.32812 0.37158 0.35801 0.0
C1134 C 0.36392 0.38434 0.34669 0.0
N1135 N 0.34116 0.34481 0.34688 0.0
O1136 O 0.40507 0.47072 0.34486 0.0
H1137 H 0.31567 0.37371 0.36413 0.0
H1138 H 0.3862 0.3999 0.3418 0.0
O1139 O 0.33884 0.46254 0.35295 0.0
C1140 C 0.44049 0.47824 0.34521 0.0
O1141 O 0.45229 0.46882 0.35237 0.0
N1142 N 0.3668 0.44499 0.36804 0.0
C1143 C 0.35476 0.43076 0.38599 0.0
C1144 C 0.34031 0.4523 0.38156 0.0
C1145 C 0.34668 0.45913 0.37257 0.0
C1146 C 0.38231 0.42544 0.37226 0.0
C1147 C 0.37551 0.41682 0.38112 0.0
H1148 H 0.33711 0.47734 0.36937 0.0
H1149 H 0.39982 0.41607 0.36865 0.0
H1150 H 0.40025 0.53523 0.34773 0.0
H1151 H 0.46841 0.59079 0.3699 0.0
H1152 H 0.29792 0.3079 0.35641 0.0
H1153 H 0.32541 0.46502 0.38502 0.0
H1154 H 0.38678 0.3995 0.38407 0.0
C1155 C 0.47698 0.92588 0.35763 0.0
C1156 C 0.43737 0.90272 0.35912 0.0
N1157 N 0.42737 0.86525 0.35757 0.0
N1158 N 0.49183 0.90317 0.3551 0.0
C1159 C 0.46084 0.86624 0.35519 0.0
H1160 H 0.49331 0.95756 0.35771 0.0
Co1161 Co 0.54066 0.92333 0.34973 0.0
C1162 C 0.54261 0.85106 0.34291 0.0
O1163 O 0.57857 0.87004 0.3399 0.0
N1164 N 0.59001 0.94556 0.3441 0.0
C1165 C 0.63462 0.96738 0.33347 0.0
C1166 C 0.59568 0.94376 0.33544 0.0
C1167 C 0.62605 0.9719 0.34717 0.0
N1168 N 0.65381 0.98527 0.34084 0.0
O1169 O 0.51662 0.92787 0.33923 0.0
H1170 H 0.57271 0.9268 0.33078 0.0
H1171 H 0.63163 0.9822 0.35386 0.0
O1172 O 0.52748 0.86938 0.34667 0.0
C1173 C 0.52387 0.96248 0.33745 0.0
O1174 O 0.55054 0.99189 0.34205 0.0
N1175 N 0.5629 0.92116 0.36044 0.0
C1176 C 0.58742 0.92196 0.37761 0.0
C1177 C 0.58546 0.89419 0.37158 0.0
C1178 C 0.57315 0.89428 0.363 0.0
C1179 C 0.56633 0.94939 0.3661 0.0
C1180 C 0.57829 0.95022 0.37472 0.0
H1181 H 0.57144 0.87232 0.35857 0.0
H1182 H 0.5589 0.971 0.36393 0.0
H1183 H 0.46174 0.84085 0.35282 0.0
H1184 H 0.41714 0.9128 0.36076 0.0
H1185 H 0.64745 0.97265 0.327 0.0
H1186 H 0.59222 0.8718 0.37352 0.0
H1187 H 0.58019 0.97273 0.37908 0.0
H1188 H 0.20181 0.20498 0.18865 0.0
H1189 H 0.07518 0.1326 0.18753 0.0
H1190 H 0.08178 0.0757 0.18332 0.0
H1191 H 0.22257 0.161 0.17019 0.0
H1192 H 0.26571 0.16406 0.17504 0.0
H1193 H 0.25121 0.19936 0.1779 0.0
H1194 H 0.2499 0.18207 0.19428 0.0
H1195 H 0.26464 0.14693 0.19148 0.0
H1196 H 0.22062 0.1318 0.19775 0.0
H1197 H 0.10194 0.02605 0.17967 0.0
H1198 H 0.13464 0.98739 0.1768 0.0
H1199 H 0.24806 0.09149 0.1801 0.0
C1200 C 0.17547 0.17712 0.18758 0.0
C1201 C 0.13791 0.17334 0.18842 0.0
C1202 C 0.10422 0.13639 0.18683 0.0
C1203 C 0.10769 0.10384 0.18446 0.0
C1204 C 0.14509 0.10864 0.18364 0.0
C1205 C 0.17842 0.14434 0.18514 0.0
C1206 C 0.21514 0.14149 0.18383 0.0
C1207 C 0.24013 0.16806 0.17629 0.0
C1208 C 0.23897 0.15114 0.19234 0.0
C1209 C 0.19725 0.09852 0.18147 0.0
C1210 C 0.15676 0.08014 0.1814 0.0
C1211 C 0.1336 0.0402 0.17969 0.0
C1212 C 0.15229 0.0184 0.17813 0.0
C1213 C 0.19359 0.03643 0.17828 0.0
C1214 C 0.21639 0.07714 0.17983 0.0
H1215 H 0.97613 0.14254 0.18256 0.0
H1216 H 0.9574 0.19886 0.20496 0.0
H1217 H 0.90663 0.135 0.21046 0.0
H1218 H 0.87451 0.07216 0.17936 0.0
H1219 H 0.88251 0.0326 0.17625 0.0
H1220 H 0.91993 0.08257 0.17423 0.0
H1221 H 0.96994 0.07126 0.1829 0.0
H1222 H 0.93259 0.02122 0.18496 0.0
H1223 H 0.95872 0.05315 0.19396 0.0
H1224 H 0.85754 0.06673 0.21357 0.0
H1225 H 0.80942 0.99645 0.21375 0.0
H1226 H 0.85542 0.98253 0.18901 0.0
C1227 C 0.96143 0.14117 0.18864 0.0
C1228 C 0.97051 0.17565 0.1933 0.0
C1229 C 0.95056 0.1729 0.20121 0.0
C1230 C 0.92184 0.13672 0.20444 0.0
C1231 C 0.91305 0.10336 0.19968 0.0
C1232 C 0.93189 0.105 0.19193 0.0
C1233 C 0.91479 0.06444 0.18793 0.0
C1234 C 0.89687 0.06286 0.17891 0.0
C1235 C 0.94586 0.05178 0.18741 0.0
C1236 C 0.88331 0.04021 0.19462 0.0
C1237 C 0.88333 0.06336 0.20137 0.0
C1238 C 0.85702 0.04817 0.2083 0.0
C1239 C 0.8295 0.00814 0.2083 0.0
C1240 C 0.82804 0.98362 0.20137 0.0
C1241 C 0.85571 1.00007 0.19447 0.0
H1242 H 0.86244 0.78707 0.19504 0.0
H1243 H 0.87494 0.89944 0.18787 0.0
H1244 H 0.94617 0.92647 0.18587 0.0
H1245 H 0.95211 0.82468 0.2071 0.0
H1246 H 0.96223 0.78723 0.20338 0.0
H1247 H 0.91232 0.77683 0.20424 0.0
H1248 H 0.90061 0.75578 0.18797 0.0
H1249 H 0.95047 0.76607 0.18706 0.0
H1250 H 0.93244 0.78922 0.17971 0.0
H1251 H 0.01583 0.94102 0.18474 0.0
H1252 H 0.07854 0.94208 0.18416 0.0
H1253 H 0.02048 0.82005 0.19217 0.0
C1254 C 0.88007 0.81739 0.19305 0.0
C1255 C 0.86313 0.84119 0.19162 0.0
C1256 C 0.88728 0.88066 0.18899 0.0
C1257 C 0.92775 0.89626 0.18785 0.0
C1258 C 0.94346 0.87196 0.18935 0.0
C1259 C 0.92036 0.83335 0.19187 0.0
C1260 C 0.9444 0.81334 0.193 0.0
C1261 C 0.94266 0.79973 0.20249 0.0
C1262 C 0.93119 0.77908 0.18655 0.0
C1263 C 0.98473 0.84676 0.19073 0.0
C1264 C 0.98354 0.8803 0.18867 0.0
C1265 C 0.01711 0.91494 0.18635 0.0
C1266 C 0.0528 0.91526 0.1861 0.0
C1267 C 0.05487 0.88117 0.18812 0.0
C1268 C 0.02014 0.84654 0.1905 0.0
H1269 H 0.0386 0.14462 0.32129 0.0
H1270 H 0.06234 0.23351 0.30169 0.0
H1271 H 0.11815 0.22793 0.29628 0.0
H1272 H 0.14158 0.17123 0.32538 0.0
H1273 H 0.12985 0.12094 0.32636 0.0
H1274 H 0.09417 0.13471 0.32942 0.0
H1275 H 0.04396 0.08272 0.31875 0.0
H1276 H 0.07953 0.06894 0.31567 0.0
H1277 H 0.05706 0.08396 0.30742 0.0
H1278 H 0.16966 0.21172 0.2926 0.0
H1279 H 0.21169 0.18315 0.29024 0.0
H1280 H 0.15259 0.10107 0.31149 0.0
C1281 C 0.05609 0.16343 0.31598 0.0
C1282 C 0.04644 0.18993 0.312 0.0
C1283 C 0.06933 0.21326 0.3049 0.0
C1284 C 0.10119 0.21039 0.30178 0.0
C1285 C 0.1097 0.18377 0.30577 0.0
C1286 C 0.0878 0.16049 0.31268 0.0
C1287 C 0.10161 0.13218 0.3153 0.0
C1288 C 0.11776 0.14026 0.32467 0.0
C1289 C 0.06858 0.08942 0.31422 0.0
C1290 C 0.13415 0.14283 0.30868 0.0
C1291 C 0.13862 0.17308 0.30336 0.0
C1292 C 0.16638 0.1879 0.29671 0.0
C1293 C 0.19 0.17111 0.29537 0.0
C1294 C 0.18551 0.13929 0.30058 0.0
C1295 C 0.15728 0.12539 0.3074 0.0
H1296 H 0.76487 0.86412 0.30725 0.0
H1297 H 0.86728 0.86719 0.31871 0.0
H1298 H 0.90247 0.9394 0.31817 0.0
H1299 H 0.81576 0.94128 0.29235 0.0
H1300 H 0.7836 0.96128 0.29341 0.0
H1301 H 0.7651 0.9099 0.29532 0.0
H1302 H 0.74143 0.91609 0.31069 0.0
H1303 H 0.75992 0.9676 0.3089 0.0
H1304 H 0.77579 0.95149 0.31828 0.0
H1305 H 0.92818 0.01049 0.31534 0.0
H1306 H 0.94212 0.07631 0.31106 0.0
H1307 H 0.82257 0.02776 0.30174 0.0
C1308 C 0.79448 0.87993 0.30978 0.0
C1309 C 0.81328 0.85992 0.31304 0.0
C1310 C 0.85219 0.8818 0.31621 0.0
C1311 C 0.87245 0.92285 0.31592 0.0
C1312 C 0.85332 0.94158 0.3125 0.0
C1313 C 0.81512 0.92092 0.30955 0.0
C1314 C 0.80188 0.94819 0.30589 0.0
C1315 C 0.79095 0.93964 0.29617 0.0
C1316 C 0.76773 0.94571 0.31126 0.0
C1317 C 0.83888 0.98738 0.3071 0.0
C1318 C 0.86809 0.98283 0.31095 0.0
C1319 C 0.90534 0.0145 0.31245 0.0
C1320 C 0.91289 0.05189 0.31002 0.0
C1321 C 0.88332 0.05753 0.30615 0.0
C1322 C 0.84585 0.02461 0.30466 0.0
H1323 H 0.14205 0.95729 0.30458 0.0
H1324 H 0.1414 0.98791 0.33178 0.0
H1325 H 0.07204 0.93533 0.33296 0.0
H1326 H 0.04587 0.93829 0.2994 0.0
H1327 H 0.03535 0.89817 0.29215 0.0
H1328 H 0.08514 0.93708 0.29362 0.0
H1329 H 0.10551 0.88637 0.29809 0.0
H1330 H 0.05574 0.84723 0.29668 0.0
H1331 H 0.08035 0.85298 0.30697 0.0
H1332 H 1.00221 0.88048 0.33099 0.0
H1333 H 0.9373 0.82862 0.32607 0.0
H1334 H 0.98359 0.83473 0.30002 0.0
C1335 C 0.12741 0.95335 0.31077 0.0
C1336 C 0.14718 0.97714 0.31806 0.0
C1337 C 0.12692 0.97015 0.3261 0.0
C1338 C 0.08753 0.94034 0.32683 0.0
C1339 C 0.06893 0.91769 0.31948 0.0
C1340 C 0.08825 0.92387 0.3116 0.0
C1341 C 0.06156 0.89606 0.30462 0.0
C1342 C 0.05669 0.91876 0.297 0.0
C1343 C 0.0767 0.86906 0.3014 0.0
C1344 C 0.02389 0.87342 0.30977 0.0
C1345 C 0.02884 0.88624 0.31833 0.0
C1346 C 0.99804 0.87032 0.32429 0.0
C1347 C 0.96114 0.84099 0.32141 0.0
C1348 C 0.95515 0.82766 0.31263 0.0
C1349 C 0.98724 0.84392 0.30678 0.0
H1350 H 0.76676 0.9033 0.8104 0.0
H1351 H 0.87401 0.00578 0.81903 0.0
H1352 H 0.90615 0.96568 0.82004 0.0
H1353 H 0.776 0.8302 0.82366 0.0
H1354 H 0.75647 0.79414 0.81507 0.0
H1355 H 0.74084 0.82985 0.81606 0.0
H1356 H 0.76155 0.85128 0.80001 0.0
H1357 H 0.77751 0.81594 0.79898 0.0
H1358 H 0.81111 0.86687 0.79667 0.0
H1359 H 0.92793 0.91546 0.81884 0.0
H1360 H 0.93788 0.85985 0.81555 0.0
H1361 H 0.81615 0.79053 0.80761 0.0
C1362 C 0.79677 0.91728 0.81269 0.0
C1363 C 0.81781 0.9577 0.81468 0.0
C1364 C 0.85721 0.97483 0.81752 0.0
C1365 C 0.87569 0.95227 0.81811 0.0
C1366 C 0.85428 0.91267 0.81588 0.0
C1367 C 0.8156 0.89531 0.81327 0.0
C1368 C 0.79981 0.85301 0.81063 0.0
C1369 C 0.7663 0.82516 0.81672 0.0
C1370 C 0.78674 0.84642 0.80101 0.0
C1371 C 0.8359 0.84941 0.81198 0.0
C1372 C 0.86689 0.88397 0.8151 0.0
C1373 C 0.9037 0.88811 0.81652 0.0
C1374 C 0.90899 0.85621 0.81466 0.0
C1375 C 0.8777 0.82061 0.81136 0.0
C1376 C 0.84066 0.8173 0.81008 0.0
H1377 H 0.19311 0.99705 0.81043 0.0
H1378 H 0.12531 0.0517 0.81796 0.0
H1379 H 0.07285 0.98834 0.82347 0.0
H1380 H 0.11325 0.90959 0.80248 0.0
H1381 H 0.13135 0.8783 0.8063 0.0
H1382 H 0.16522 0.92877 0.80373 0.0
H1383 H 0.19471 0.939 0.8193 0.0
H1384 H 0.1606 0.88854 0.82194 0.0
H1385 H 0.16301 0.92719 0.82867 0.0
H1386 H 0.0249 0.91827 0.82677 0.0
H1387 H 0.98486 0.84595 0.82752 0.0
H1388 H 0.08336 0.83632 0.81811 0.0
C1389 C 0.16737 0.99576 0.81328 0.0
C1390 C 0.16364 0.02958 0.81383 0.0
C1391 C 0.12938 0.02653 0.81763 0.0
C1392 C 0.09927 0.99057 0.82076 0.0
C1393 C 0.10385 0.95784 0.8201 0.0
C1394 C 0.13703 0.96006 0.81647 0.0
C1395 C 0.1336 0.92002 0.81608 0.0
C1396 C 0.13598 0.90851 0.80658 0.0
C1397 C 0.16484 0.91862 0.82184 0.0
C1398 C 0.0929 0.89484 0.81985 0.0
C1399 C 0.07637 0.91732 0.82219 0.0
C1400 C 0.03782 0.90043 0.82516 0.0
C1401 C 0.01535 0.85947 0.82559 0.0
C1402 C 0.03165 0.83608 0.82314 0.0
C1403 C 0.07097 0.8539 0.82035 0.0
H1404 H 0.1197 0.12389 0.81386 0.0
H1405 H 0.16654 0.24111 0.82436 0.0
H1406 H 0.10249 0.23704 0.82202 0.0
H1407 H 0.06215 0.13015 0.79735 0.0
H1408 H 0.02133 0.08111 0.79859 0.0
H1409 H 0.0699 0.09191 0.80162 0.0
H1410 H 0.04568 0.06519 0.81721 0.0
H1411 H 0.99682 0.05371 0.81421 0.0
H1412 H 0.0205 0.08445 0.82354 0.0
H1413 H 0.03665 0.22371 0.8166 0.0
H1414 H 0.96928 0.19748 0.81085 0.0
H1415 H 0.96258 0.08659 0.80535 0.0
C1416 C 0.1161 0.14831 0.81584 0.0
C1417 C 0.14789 0.18277 0.81932 0.0
C1418 C 0.14236 0.21427 0.82179 0.0
C1419 C 0.1062 0.21233 0.82043 0.0
C1420 C 0.07571 0.17833 0.81677 0.0
C1421 C 0.07992 0.14645 0.81474 0.0
C1422 C 0.04249 0.11341 0.81089 0.0
C1423 C 0.0494 0.10359 0.80156 0.0
C1424 C 0.02536 0.07704 0.81682 0.0
C1425 C 0.0169 0.13207 0.81087 0.0
C1426 C 0.03685 0.16974 0.81418 0.0
C1427 C 0.02047 0.19398 0.81418 0.0
C1428 C 0.98245 0.17905 0.81085 0.0
C1429 C 0.96099 0.14007 0.80779 0.0
C1430 C 0.97842 0.11631 0.8078 0.0
H1431 H 0.98883 0.8807 0.67509 0.0
H1432 H 0.94151 0.7578 0.68117 0.0
H1433 H 0.8768 0.75111 0.68416 0.0
H1434 H 0.94009 0.89941 0.692 0.0
H1435 H 0.93091 0.93327 0.68594 0.0
H1436 H 0.97226 0.92765 0.68318 0.0
H1437 H 0.94763 0.911 0.66721 0.0
H1438 H 0.90631 0.91687 0.66992 0.0
H1439 H 0.89848 0.87177 0.66511 0.0
H1440 H 0.81892 0.75848 0.68746 0.0
H1441 H 0.77121 0.77928 0.69101 0.0
H1442 H 0.856 0.89848 0.68343 0.0
C1443 C 0.96442 0.85223 0.6768 0.0
C1444 C 0.96973 0.81953 0.67779 0.0
C1445 C 0.93775 0.78301 0.68035 0.0
C1446 C 0.90093 0.77895 0.68203 0.0
C1447 C 0.89666 0.81183 0.68119 0.0
C1448 C 0.92743 0.8478 0.67863 0.0
C1449 C 0.91558 0.87903 0.67891 0.0
C1450 C 0.94123 0.91176 0.68539 0.0
C1451 C 0.91709 0.89564 0.66974 0.0
C1452 C 0.87364 0.85507 0.68216 0.0
C1453 C 0.86331 0.81634 0.68334 0.0
C1454 C 0.82663 0.78873 0.68654 0.0
C1455 C 0.7998 0.80099 0.68863 0.0
C1456 C 0.80962 0.84064 0.68757 0.0
C1457 C 0.84714 0.86788 0.68423 0.0
H1458 H 0.13625 0.99523 0.69714 0.0
H1459 H 0.12429 0.94954 0.67086 0.0
H1460 H 0.13527 0.01257 0.66484 0.0
H1461 H 0.08668 0.04944 0.69321 0.0
H1462 H 0.11855 0.0895 0.70024 0.0
H1463 H 0.10997 0.0409 0.70242 0.0
H1464 H 0.18484 0.06688 0.702 0.0
H1465 H 0.19355 0.11555 0.69988 0.0
H1466 H 0.2127 0.09344 0.69253 0.0
H1467 H 0.1493 0.08192 0.66176 0.0
H1468 H 0.16388 0.15083 0.66194 0.0
H1469 H 0.16512 0.14927 0.69029 0.0
C1470 C 0.13632 0.99861 0.69012 0.0
C1471 C 0.12956 0.96758 0.68446 0.0
C1472 C 0.12912 0.97288 0.67531 0.0
C1473 C 0.13546 0.00859 0.67184 0.0
C1474 C 0.14188 0.03857 0.67761 0.0
C1475 C 0.14221 0.03384 0.68656 0.0
C1476 C 0.14934 0.07032 0.69138 0.0
C1477 C 0.11403 0.06203 0.69715 0.0
C1478 C 0.18737 0.08756 0.69676 0.0
C1479 C 0.15335 0.09646 0.68375 0.0
C1480 C 0.14903 0.07779 0.67585 0.0
C1481 C 0.15252 0.09674 0.66791 0.0
C1482 C 0.16081 0.13584 0.66807 0.0
C1483 C 0.16527 0.15536 0.67612 0.0
C1484 C 0.16127 0.13512 0.68402 0.0
H1485 H 0.88496 0.02765 0.67207 0.0
H1486 H 0.832 0.01859 0.69752 0.0
H1487 H 0.89118 0.07778 0.70234 0.0
H1488 H 0.98336 0.06122 0.68046 0.0
H1489 H 0.00759 0.09424 0.67148 0.0
H1490 H 0.96068 0.05082 0.66982 0.0
H1491 H 0.93275 0.09353 0.66389 0.0
H1492 H 0.97951 0.1371 0.66558 0.0
H1493 H 0.936 0.13289 0.67051 0.0
H1494 H 0.95419 0.13884 0.70445 0.0
H1495 H 0.02092 0.19598 0.70409 0.0
H1496 H 0.03609 0.16623 0.67764 0.0
C1497 C 0.88591 0.03809 0.67866 0.0
C1498 C 0.8535 0.01831 0.68437 0.0
C1499 C 0.85616 0.0329 0.69297 0.0
C1500 C 0.88972 0.06674 0.6958 0.0
C1501 C 0.92084 0.08571 0.69001 0.0
C1502 C 0.91965 0.07184 0.68166 0.0
C1503 C 0.95795 0.09775 0.67688 0.0
C1504 C 0.97861 0.07462 0.67452 0.0
C1505 C 0.95112 0.11642 0.66874 0.0
C1506 C 0.98045 0.12832 0.68385 0.0
C1507 C 0.9582 0.12083 0.69133 0.0
C1508 C 0.97201 0.14504 0.69864 0.0
C1509 C 0.00984 0.17762 0.69835 0.0
C1510 C 0.03366 0.18565 0.69083 0.0
C1511 C 0.01861 0.16063 0.68348 0.0
H1512 H 0.86386 0.55039 0.5229 0.0
H1513 H 0.74228 0.48067 0.51479 0.0
H1514 H 0.75495 0.42909 0.50962 0.0
H1515 H 0.90604 0.52069 0.50509 0.0
H1516 H 0.94209 0.51918 0.51209 0.0
H1517 H 0.92481 0.55284 0.5144 0.0
H1518 H 0.90447 0.52414 0.53001 0.0
H1519 H 0.92217 0.49085 0.52781 0.0
H1520 H 0.87231 0.47214 0.53137 0.0
H1521 H 0.77874 0.38236 0.50652 0.0
H1522 H 0.8115 0.34292 0.50642 0.0
H1523 H 0.91751 0.44244 0.51653 0.0
C1524 C 0.83988 0.52439 0.52002 0.0
C1525 C 0.80216 0.52009 0.51919 0.0
C1526 C 0.77171 0.48542 0.51534 0.0
C1527 C 0.77856 0.45575 0.51238 0.0
C1528 C 0.81605 0.46106 0.51327 0.0
C1529 C 0.84621 0.49447 0.51701 0.0
C1530 C 0.88313 0.49173 0.51771 0.0
C1531 C 0.91596 0.52297 0.51198 0.0
C1532 C 0.89626 0.49488 0.5273 0.0
C1533 C 0.86852 0.45095 0.5141 0.0
C1534 C 0.8299 0.434 0.51145 0.0
C1535 C 0.80915 0.39548 0.50846 0.0
C1536 C 0.828 0.37329 0.50843 0.0
C1537 C 0.86711 0.38959 0.51143 0.0
C1538 C 0.88785 0.4293 0.51405 0.0
H1539 H 0.4987 0.29515 0.51497 0.0
H1540 H 0.47796 0.30947 0.54224 0.0
H1541 H 0.52764 0.37937 0.54138 0.0
H1542 H 0.60279 0.35867 0.51548 0.0
H1543 H 0.60578 0.37861 0.50472 0.0
H1544 H 0.5671 0.32979 0.50728 0.0
H1545 H 0.51526 0.34835 0.50257 0.0
H1546 H 0.55377 0.39726 0.49999 0.0
H1547 H 0.51556 0.38996 0.50754 0.0
H1548 H 0.58042 0.44638 0.53792 0.0
H1549 H 0.63358 0.5079 0.53202 0.0
H1550 H 0.6227 0.45189 0.50692 0.0
C1551 C 0.50466 0.31292 0.52077 0.0
C1552 C 0.48415 0.29662 0.52868 0.0
C1553 C 0.49264 0.32118 0.53607 0.0
C1554 C 0.52104 0.36096 0.53567 0.0
C1555 C 0.54078 0.37593 0.52782 0.0
C1556 C 0.53302 0.35285 0.52048 0.0
C1557 C 0.55913 0.37649 0.51291 0.0
C1558 C 0.58525 0.3599 0.50993 0.0
C1559 C 0.53446 0.37811 0.5053 0.0
C1560 C 0.58314 0.41635 0.5172 0.0
C1561 C 0.57178 0.41514 0.52579 0.0
C1562 C 0.58964 0.44775 0.5312 0.0
C1563 C 0.62012 0.48261 0.52778 0.0
C1564 C 0.6328 0.48486 0.51902 0.0
C1565 C 0.61372 0.45121 0.51364 0.0
H1566 H 0.67699 0.18952 0.52833 0.0
H1567 H 0.73847 0.2843 0.50971 0.0
H1568 H 0.67541 0.27371 0.50414 0.0
H1569 H 0.5954 0.127 0.51459 0.0
H1570 H 0.55989 0.11138 0.5233 0.0
H1571 H 0.60999 0.1253 0.52568 0.0
H1572 H 0.61409 0.1765 0.53689 0.0
H1573 H 0.56394 0.16256 0.53458 0.0
H1574 H 0.60201 0.213 0.53348 0.0
H1575 H 0.60533 0.25317 0.50057 0.0
H1576 H 0.53365 0.22678 0.50004 0.0
H1577 H 0.51826 0.14703 0.52123 0.0
C1578 C 0.67737 0.20824 0.52312 0.0
C1579 C 0.71304 0.23741 0.51941 0.0
C1580 C 0.71181 0.26108 0.51255 0.0
C1581 C 0.67602 0.25547 0.50935 0.0
C1582 C 0.64154 0.22624 0.5131 0.0
C1583 C 0.64189 0.20324 0.51988 0.0
C1584 C 0.60068 0.17464 0.52294 0.0
C1585 C 0.59093 0.13206 0.52154 0.0
C1586 C 0.59485 0.18214 0.53254 0.0
C1587 C 0.57721 0.18535 0.51684 0.0
C1588 C 0.60125 0.21496 0.51117 0.0
C1589 C 0.58618 0.22993 0.50498 0.0
C1590 C 0.54545 0.21464 0.50469 0.0
C1591 C 0.52044 0.18501 0.51061 0.0
C1592 C 0.53666 0.16993 0.51667 0.0
H1593 H 0.68674 0.48781 0.64038 0.0
H1594 H 0.70983 0.52055 0.66772 0.0
H1595 H 0.76796 0.51199 0.66712 0.0
H1596 H 0.71918 0.41706 0.64 0.0
H1597 H 0.741 0.43184 0.62932 0.0
H1598 H 0.69955 0.43713 0.63222 0.0
H1599 H 0.73929 0.51103 0.62836 0.0
H1600 H 0.78093 0.50606 0.62549 0.0
H1601 H 0.78593 0.54156 0.63356 0.0
H1602 H 0.82453 0.50072 0.66329 0.0
H1603 H 0.87543 0.48972 0.6565 0.0
H1604 H 0.81783 0.47084 0.63142 0.0
C1605 C 0.70404 0.49355 0.64625 0.0
C1606 C 0.69394 0.50543 0.65407 0.0
C1607 C 0.71695 0.51146 0.66165 0.0
C1608 C 0.75007 0.50676 0.66136 0.0
C1609 C 0.75983 0.49627 0.65343 0.0
C1610 C 0.73745 0.48984 0.64602 0.0
C1611 C 0.75496 0.48069 0.63819 0.0
C1612 C 0.72701 0.43922 0.63473 0.0
C1613 C 0.76593 0.51169 0.63098 0.0
C1614 C 0.79101 0.48322 0.64233 0.0
C1615 C 0.79306 0.49166 0.65115 0.0
C1616 C 0.82327 0.49431 0.65639 0.0
C1617 C 0.85196 0.48802 0.6525 0.0
C1618 C 0.85057 0.47993 0.64345 0.0
C1619 C 0.81982 0.47772 0.63832 0.0
H1620 H 0.50324 0.18775 0.63801 0.0
H1621 H 0.47698 0.17857 0.66574 0.0
H1622 H 0.49125 0.24721 0.66576 0.0
H1623 H 0.58283 0.28719 0.63821 0.0
H1624 H 0.56984 0.29921 0.62783 0.0
H1625 H 0.55804 0.24962 0.63008 0.0
H1626 H 0.48501 0.22514 0.62663 0.0
H1627 H 0.4965 0.27465 0.62439 0.0
H1628 H 0.45976 0.24583 0.63242 0.0
H1629 H 0.50951 0.31748 0.66274 0.0
H1630 H 0.52838 0.38306 0.65684 0.0
H1631 H 0.54069 0.34538 0.63102 0.0
C1632 C 0.50055 0.20002 0.64411 0.0
C1633 C 0.48903 0.1776 0.65188 0.0
C1634 C 0.48571 0.19504 0.65969 0.0
C1635 C 0.4938 0.23405 0.65977 0.0
C1636 C 0.50496 0.25521 0.65197 0.0
C1637 C 0.5082 0.23873 0.64428 0.0
C1638 C 0.52025 0.26752 0.63675 0.0
C1639 C 0.56011 0.27641 0.633 0.0
C1640 C 0.48848 0.25237 0.62963 0.0
C1641 C 0.52323 0.30283 0.64141 0.0
C1642 C 0.51458 0.29523 0.65019 0.0
C1643 C 0.51625 0.32369 0.65587 0.0
C1644 C 0.52713 0.36087 0.65247 0.0
C1645 C 0.53588 0.36921 0.64348 0.0
C1646 C 0.53365 0.33963 0.63789 0.0
H1647 H 0.66682 0.14064 0.64677 0.0
H1648 H 0.61386 0.20554 0.63624 0.0
H1649 H 0.67734 0.26698 0.63744 0.0
H1650 H 0.72976 0.21473 0.66241 0.0
H1651 H 0.76998 0.20567 0.66098 0.0
H1652 H 0.72034 0.16663 0.65932 0.0
H1653 H 0.73831 0.15536 0.64373 0.0
H1654 H 0.78801 0.19423 0.64534 0.0
H1655 H 0.76021 0.19582 0.63615 0.0
H1656 H 0.74693 0.32069 0.63905 0.0
H1657 H 0.81783 0.36387 0.64151 0.0
H1658 H 0.8259 0.26533 0.6517 0.0
C1659 C 0.66872 0.16779 0.64468 0.0
C1660 C 0.6354 0.16833 0.64139 0.0
C1661 C 0.63888 0.2045 0.63885 0.0
C1662 C 0.67485 0.23952 0.63948 0.0
C1663 C 0.70706 0.23801 0.64276 0.0
C1664 C 0.70436 0.20317 0.64538 0.0
C1665 C 0.74351 0.20986 0.64874 0.0
C1666 C 0.74072 0.19855 0.65844 0.0
C1667 C 0.75838 0.18749 0.64316 0.0
C1668 C 0.76874 0.25381 0.64749 0.0
C1669 C 0.74707 0.26937 0.64399 0.0
C1670 C 0.76411 0.30892 0.64187 0.0
C1671 C 0.80442 0.33321 0.64328 0.0
C1672 C 0.82727 0.31804 0.64687 0.0
C1673 C 0.80902 0.27786 0.64909 0.0
H1674 H 0.49176 0.15857 0.14537 0.0
H1675 H 0.61704 0.22697 0.15028 0.0
H1676 H 0.61025 0.28484 0.15332 0.0
H1677 H 0.48146 0.23069 0.13469 0.0
H1678 H 0.43424 0.21639 0.1394 0.0
H1679 H 0.44943 0.18064 0.13801 0.0
H1680 H 0.43798 0.1639 0.15454 0.0
H1681 H 0.42297 0.19988 0.15599 0.0
H1682 H 0.46233 0.2024 0.16249 0.0
H1683 H 0.58927 0.33661 0.15488 0.0
H1684 H 0.55656 0.37637 0.15448 0.0
H1685 H 0.44531 0.27111 0.14944 0.0
C1686 C 0.51791 0.18521 0.14725 0.0
C1687 C 0.55495 0.18768 0.1476 0.0
C1688 C 0.58829 0.22402 0.14987 0.0
C1689 C 0.58469 0.25708 0.15169 0.0
C1690 C 0.54754 0.25325 0.15132 0.0
C1691 C 0.5148 0.21806 0.14918 0.0
C1692 C 0.47826 0.22138 0.14889 0.0
C1693 C 0.4598 0.21173 0.1397 0.0
C1694 C 0.44865 0.19535 0.1559 0.0
C1695 C 0.49554 0.26425 0.15101 0.0
C1696 C 0.5355 0.28232 0.15243 0.0
C1697 C 0.55792 0.32259 0.15389 0.0
C1698 C 0.53909 0.34494 0.15365 0.0
C1699 C 0.49834 0.32688 0.15194 0.0
C1700 C 0.47637 0.28588 0.15088 0.0
H1701 H 0.87925 0.34832 0.13839 0.0
H1702 H 0.83087 0.40894 0.15299 0.0
H1703 H 0.77762 0.34588 0.15821 0.0
H1704 H 0.7915 0.27612 0.13046 0.0
H1705 H 0.80359 0.23766 0.13096 0.0
H1706 H 0.84189 0.2877 0.12982 0.0
H1707 H 0.87577 0.28059 0.14368 0.0
H1708 H 0.83709 0.23044 0.14491 0.0
H1709 H 0.84878 0.26459 0.15379 0.0
H1710 H 0.72387 0.27553 0.16023 0.0
H1711 H 0.67359 0.20605 0.15763 0.0
H1712 H 0.75589 0.19204 0.14146 0.0
C1713 C 0.85797 0.34872 0.14277 0.0
C1714 C 0.85998 0.38428 0.14523 0.0
C1715 C 0.83097 0.38268 0.15103 0.0
C1716 C 0.80034 0.34673 0.15408 0.0
C1717 C 0.79891 0.31233 0.15136 0.0
C1718 C 0.82705 0.31312 0.14583 0.0
C1719 C 0.81654 0.27225 0.14299 0.0
C1720 C 0.81315 0.26822 0.13297 0.0
C1721 C 0.84631 0.26133 0.14656 0.0
C1722 C 0.77707 0.24851 0.14741 0.0
C1723 C 0.7678 0.27189 0.15243 0.0
C1724 C 0.7312 0.25679 0.15648 0.0
C1725 C 0.70288 0.21725 0.15505 0.0
C1726 C 0.71132 0.19378 0.1495 0.0
C1727 C 0.74922 0.2093 0.14591 0.0
H1728 H 0.67046 0.53531 0.14284 0.0
H1729 H 0.62114 0.41678 0.13302 0.0
H1730 H 0.68473 0.41976 0.13539 0.0
H1731 H 0.76698 0.57393 0.13366 0.0
H1732 H 0.79172 0.60394 0.14301 0.0
H1733 H 0.74249 0.59248 0.14045 0.0
H1734 H 0.72004 0.56411 0.15601 0.0
H1735 H 0.76918 0.57524 0.15861 0.0
H1736 H 0.72887 0.52591 0.15984 0.0
H1737 H 0.75404 0.43666 0.13817 0.0
H1738 H 0.8242 0.4653 0.14167 0.0
H1739 H 0.82821 0.57177 0.15057 0.0
C1740 C 0.67327 0.5102 0.1411 0.0
C1741 C 0.64108 0.4759 0.13766 0.0
C1742 C 0.64551 0.44326 0.13566 0.0
C1743 C 0.68146 0.44474 0.13697 0.0
C1744 C 0.71256 0.4789 0.14041 0.0
C1745 C 0.70882 0.51098 0.14251 0.0
C1746 C 0.7467 0.54385 0.14626 0.0
C1747 C 0.76293 0.58072 0.1405 0.0
C1748 C 0.74083 0.55279 0.15574 0.0
C1749 C 0.77252 0.52544 0.14583 0.0
C1750 C 0.75219 0.48801 0.1424 0.0
C1751 C 0.77014 0.46575 0.14094 0.0
C1752 C 0.81 0.48228 0.14295 0.0
C1753 C 0.83148 0.52054 0.14648 0.0
C1754 C 0.81229 0.54217 0.14804 0.0
H1755 H 0.65075 0.17024 0.02191 0.0
H1756 H 0.58294 0.04837 0.01417 0.0
H1757 H 0.52417 0.05495 0.01264 0.0
H1758 H 0.58303 0.16914 0.0354 0.0
H1759 H 0.59096 0.21743 0.03306 0.0
H1760 H 0.63003 0.20699 0.03146 0.0
H1761 H 0.63726 0.22919 0.01535 0.0
H1762 H 0.5987 0.24064 0.0169 0.0
H1763 H 0.59501 0.20783 0.00828 0.0
H1764 H 0.47096 0.07003 0.01493 0.0
H1765 H 0.42725 0.09476 0.01967 0.0
H1766 H 0.52837 0.20721 0.02583 0.0
C1767 C 0.62402 0.1456 0.01945 0.0
C1768 C 0.62144 0.10894 0.01801 0.0
C1769 C 0.58556 0.0768 0.01519 0.0
C1770 C 0.55203 0.08027 0.01431 0.0
C1771 C 0.55489 0.11615 0.01626 0.0
C1772 C 0.5901 0.14854 0.01862 0.0
C1773 C 0.58413 0.18217 0.02142 0.0
C1774 C 0.59784 0.19462 0.03089 0.0
C1775 C 0.60501 0.21701 0.01511 0.0
C1776 C 0.53991 0.16297 0.02063 0.0
C1777 C 0.52373 0.12502 0.01756 0.0
C1778 C 0.48328 0.1 0.01713 0.0
C1779 C 0.4587 0.11408 0.01991 0.0
C1780 C 0.47459 0.15282 0.02304 0.0
C1781 C 0.51568 0.17772 0.02328 0.0
H1782 H 0.75165 0.4327 0.01231 0.0
H1783 H 0.87811 0.49209 0.01518 0.0
H1784 H 0.87368 0.43026 0.01992 0.0
H1785 H 0.72879 0.37556 0.03073 0.0
H1786 H 0.68826 0.33149 0.02632 0.0
H1787 H 0.7006 0.37837 0.02176 0.0
H1788 H 0.70791 0.35605 0.00641 0.0
H1789 H 0.69454 0.30847 0.01078 0.0
H1790 H 0.73978 0.33599 0.00482 0.0
H1791 H 0.85578 0.36554 0.02614 0.0
H1792 H 0.82506 0.29887 0.03249 0.0
H1793 H 0.71025 0.27918 0.02536 0.0
C1794 C 0.77845 0.43226 0.01363 0.0
C1795 C 0.8153 0.46714 0.01334 0.0
C1796 C 0.84963 0.46572 0.01537 0.0
C1797 C 0.84742 0.43073 0.01805 0.0
C1798 C 0.81065 0.3972 0.01861 0.0
C1799 C 0.77675 0.39734 0.01632 0.0
C1800 C 0.74082 0.35758 0.01807 0.0
C1801 C 0.713 0.36097 0.02462 0.0
C1802 C 0.71951 0.33839 0.00951 0.0
C1803 C 0.75985 0.33574 0.022 0.0
C1804 C 0.80021 0.35921 0.02217 0.0
C1805 C 0.82429 0.34666 0.02592 0.0
C1806 C 0.80672 0.30905 0.02956 0.0
C1807 C 0.76559 0.28443 0.02939 0.0
C1808 C 0.74183 0.29769 0.02549 0.0
H1809 H 0.67647 0.51278 0.01849 0.0
H1810 H 0.72689 0.46064 0.03525 0.0
H1811 H 0.66531 0.39689 0.03431 0.0
H1812 H 0.57788 0.45939 0.02709 0.0
H1813 H 0.55533 0.45465 0.01657 0.0
H1814 H 0.60305 0.49603 0.01878 0.0
H1815 H 0.6308 0.4789 0.0052 0.0
H1816 H 0.58328 0.43717 0.003 0.0
H1817 H 0.62523 0.43076 0.00429 0.0
H1818 H 0.59807 0.33895 0.03154 0.0
H1819 H 0.52963 0.29155 0.02754 0.0
H1820 H 0.52377 0.38121 0.01221 0.0
C1821 C 0.6744 0.48817 0.02209 0.0
C1822 C 0.70643 0.49183 0.02704 0.0
C1823 C 0.70276 0.45852 0.03144 0.0
C1824 C 0.66792 0.42223 0.03093 0.0
C1825 C 0.63717 0.41957 0.0259 0.0
C1826 C 0.64005 0.45169 0.02157 0.0
C1827 C 0.60286 0.441 0.01654 0.0
C1828 C 0.58365 0.46413 0.01995 0.0
C1829 C 0.61105 0.44733 0.00667 0.0
C1830 C 0.57843 0.39783 0.01875 0.0
C1831 C 0.59878 0.38607 0.02416 0.0
C1832 C 0.58192 0.34782 0.02729 0.0
C1833 C 0.54303 0.32111 0.02497 0.0
C1834 C 0.52143 0.33261 0.01952 0.0
C1835 C 0.53969 0.37137 0.01628 0.0
H1836 H 0.57161 0.75129 0.85441 0.0
H1837 H 0.46235 0.64797 0.84705 0.0
H1838 H 0.42896 0.6869 0.84745 0.0
H1839 H 0.53153 0.78765 0.86959 0.0
H1840 H 0.56341 0.8386 0.86695 0.0
H1841 H 0.57978 0.80388 0.86523 0.0
H1842 H 0.59397 0.82448 0.84895 0.0
H1843 H 0.57798 0.85958 0.85064 0.0
H1844 H 0.55564 0.823 0.84223 0.0
H1845 H 0.40665 0.73616 0.84954 0.0
H1846 H 0.3971 0.7919 0.85311 0.0
H1847 H 0.52075 0.8629 0.85925 0.0
C1848 C 0.54081 0.73692 0.85272 0.0
C1849 C 0.51965 0.69651 0.85067 0.0
C1850 C 0.47925 0.67886 0.84862 0.0
C1851 C 0.46002 0.70076 0.84882 0.0
C1852 C 0.48161 0.74031 0.85105 0.0
C1853 C 0.52118 0.7583 0.85291 0.0
C1854 C 0.53723 0.80071 0.85555 0.0
C1855 C 0.55396 0.80812 0.86489 0.0
C1856 C 0.56803 0.82858 0.84895 0.0
C1857 C 0.50031 0.80352 0.8551 0.0
C1858 C 0.46866 0.76851 0.85238 0.0
C1859 C 0.43131 0.76379 0.85159 0.0
C1860 C 0.4262 0.79568 0.85361 0.0
C1861 C 0.45818 0.8318 0.85645 0.0
C1862 C 0.49569 0.8356 0.85718 0.0
H1863 H 0.24104 0.81284 0.857 0.0
H1864 H 0.33876 0.80784 0.84523 0.0
H1865 H 0.3001 0.73564 0.84539 0.0
H1866 H 0.21387 0.73541 0.87151 0.0
H1867 H 0.16179 0.71629 0.87062 0.0
H1868 H 0.19523 0.76752 0.86871 0.0
H1869 H 0.16504 0.76231 0.85338 0.0
H1870 H 0.13111 0.71108 0.85528 0.0
H1871 H 0.16226 0.7261 0.84577 0.0
H1872 H 0.25313 0.66432 0.84801 0.0
H1873 H 0.20061 0.59893 0.85249 0.0
H1874 H 0.13301 0.65019 0.86241 0.0
C1875 C 0.25405 0.79664 0.85427 0.0
C1876 C 0.29297 0.81607 0.85109 0.0
C1877 C 0.30905 0.79367 0.8477 0.0
C1878 C 0.28727 0.75261 0.84775 0.0
C1879 C 0.2494 0.73441 0.85116 0.0
C1880 C 0.23277 0.75567 0.85428 0.0
C1881 C 0.19236 0.72901 0.85805 0.0
C1882 C 0.19075 0.73758 0.8678 0.0
C1883 C 0.16083 0.73232 0.8528 0.0
C1884 C 0.18922 0.68948 0.85673 0.0
C1885 C 0.2223 0.69323 0.85268 0.0
C1886 C 0.22682 0.66096 0.85106 0.0
C1887 C 0.19668 0.62385 0.8536 0.0
C1888 C 0.16237 0.61918 0.85775 0.0
C1889 C 0.1588 0.65263 0.8593 0.0
H1890 H 0.38033 0.5465 0.84891 0.0
H1891 H 0.36538 0.49629 0.87489 0.0
H1892 H 0.29521 0.47484 0.87434 0.0
H1893 H 0.3137 0.5834 0.85206 0.0
H1894 H 0.29519 0.57295 0.84103 0.0
H1895 H 0.34443 0.58359 0.8433 0.0
H1896 H 0.32915 0.51791 0.83613 0.0
H1897 H 0.27978 0.50696 0.83388 0.0
H1898 H 0.2882 0.47279 0.84002 0.0
H1899 H 0.22712 0.45878 0.87116 0.0
H1900 H 0.16498 0.45117 0.86578 0.0
H1901 H 0.2229 0.51354 0.84199 0.0
C1902 C 0.36253 0.53126 0.85452 0.0
C1903 C 0.37878 0.52287 0.86192 0.0
C1904 C 0.35391 0.5025 0.86907 0.0
C1905 C 0.31389 0.49032 0.86885 0.0
C1906 C 0.29894 0.49883 0.86145 0.0
C1907 C 0.3224 0.51901 0.85443 0.0
C1908 C 0.29876 0.52496 0.84737 0.0
C1909 C 0.31393 0.56883 0.84585 0.0
C1910 C 0.29899 0.50442 0.83885 0.0
C1911 C 0.25837 0.50495 0.85154 0.0
C1912 C 0.25931 0.49002 0.85965 0.0
C1913 C 0.22601 0.47046 0.86484 0.0
C1914 C 0.1908 0.46643 0.86171 0.0
C1915 C 0.18897 0.48201 0.85348 0.0
C1916 C 0.22326 0.50118 0.84829 0.0
H1917 H 0.34901 0.79723 0.97807 0.0
H1918 H 0.40763 0.90572 0.99278 0.0
H1919 H 0.47104 0.90826 0.99061 0.0
H1920 H 0.40982 0.75724 0.98638 0.0
H1921 H 0.40911 0.73487 0.97606 0.0
H1922 H 0.36826 0.74079 0.97919 0.0
H1923 H 0.37556 0.77849 0.9648 0.0
H1924 H 0.41672 0.77315 0.96167 0.0
H1925 H 0.4219 0.82122 0.96222 0.0
H1926 H 0.52898 0.90249 0.98549 0.0
H1927 H 0.57597 0.88389 0.97948 0.0
H1928 H 0.4794 0.77722 0.96902 0.0
C1929 C 0.37513 0.82116 0.98096 0.0
C1930 C 0.37343 0.85128 0.98561 0.0
C1931 C 0.40819 0.88214 0.98928 0.0
C1932 C 0.44439 0.88397 0.98802 0.0
C1933 C 0.44521 0.85434 0.98322 0.0
C1934 C 0.41137 0.82305 0.97991 0.0
C1935 C 0.42026 0.79503 0.97498 0.0
C1936 C 0.4007 0.75459 0.97942 0.0
C1937 C 0.40788 0.7918 0.96535 0.0
C1938 C 0.46446 0.81583 0.97589 0.0
C1939 C 0.47835 0.85021 0.98059 0.0
C1940 C 0.51839 0.87541 0.98189 0.0
C1941 C 0.54485 0.86489 0.97841 0.0
C1942 C 0.53108 0.8293 0.97381 0.0
C1943 C 0.49042 0.8045 0.97256 0.0
H1944 H 0.14486 0.65673 0.97789 0.0
H1945 H 0.27099 0.71185 0.98093 0.0
H1946 H 0.2638 0.64844 0.98541 0.0
H1947 H 0.11882 0.58834 0.99624 0.0
H1948 H 0.07773 0.54934 0.99057 0.0
H1949 H 0.09251 0.59967 0.9882 0.0
H1950 H 0.09953 0.58814 0.9718 0.0
H1951 H 0.08452 0.53777 0.97409 0.0
H1952 H 0.13044 0.56857 0.96862 0.0
H1953 H 0.2434 0.57789 0.9884 0.0
H1954 H 0.21119 0.50578 0.98961 0.0
H1955 H 0.09841 0.49669 0.98477 0.0
C1956 C 0.17096 0.65554 0.97954 0.0
C1957 C 0.20849 0.68946 0.97909 0.0
C1958 C 0.24187 0.68653 0.98135 0.0
C1959 C 0.2381 0.65056 0.98388 0.0
C1960 C 0.20071 0.61772 0.98421 0.0
C1961 C 0.1677 0.61991 0.98213 0.0
C1962 C 0.13104 0.57997 0.98267 0.0
C1963 C 0.1034 0.5793 0.98985 0.0
C1964 C 0.11017 0.56791 0.97377 0.0
C1965 C 0.14869 0.55478 0.98514 0.0
C1966 C 0.1889 0.57716 0.98605 0.0
C1967 C 0.21188 0.56014 0.98779 0.0
C1968 C 0.19337 0.51916 0.98843 0.0
C1969 C 0.15232 0.49561 0.98731 0.0
C1970 C 0.12973 0.51388 0.98584 0.0
H1971 H 0.48628 0.6101 0.98762 0.0
H1972 H 0.47804 0.69782 0.97209 0.0
H1973 H 0.40779 0.65144 0.96948 0.0
H1974 H 0.42732 0.53109 0.97361 0.0
H1975 H 0.40462 0.4955 0.98223 0.0
H1976 H 0.45297 0.53692 0.98375 0.0
H1977 H 0.42966 0.55632 0.99774 0.0
H1978 H 0.38124 0.51477 0.99629 0.0
H1979 H 0.38783 0.56332 0.9972 0.0
H1980 H 0.33857 0.59477 0.9683 0.0
H1981 H 0.2771 0.53055 0.96776 0.0
H1982 H 0.33213 0.47877 0.98308 0.0
C1983 C 0.46942 0.61971 0.98383 0.0
C1984 C 0.48728 0.65765 0.98018 0.0
C1985 C 0.46472 0.66893 0.97501 0.0
C1986 C 0.42482 0.64283 0.9735 0.0
C1987 C 0.40813 0.60537 0.97709 0.0
C1988 C 0.42978 0.5937 0.98208 0.0
C1989 C 0.4057 0.55088 0.98457 0.0
C1990 C 0.42373 0.52722 0.98081 0.0
C1991 C 0.40082 0.54606 0.99454 0.0
C1992 C 0.36727 0.54024 0.98015 0.0
C1993 C 0.36901 0.5722 0.97599 0.0
C1994 C 0.33689 0.56951 0.97152 0.0
C1995 C 0.30216 0.53307 0.97125 0.0
C1996 C 0.30017 0.49981 0.97529 0.0
C1997 C 0.33314 0.50363 0.97982 0.0
H1998 H 0.10368 0.59513 0.48741 0.0
H1999 H 0.20421 0.69446 0.47553 0.0
H2000 H 0.23263 0.65278 0.47202 0.0
H2001 H 0.1529 0.5454 0.49628 0.0
H2002 H 0.11357 0.49737 0.49338 0.0
H2003 H 0.10322 0.53609 0.49569 0.0
H2004 H 0.06938 0.52435 0.48055 0.0
H2005 H 0.08056 0.48617 0.47825 0.0
H2006 H 0.09641 0.52688 0.47083 0.0
H2007 H 0.25113 0.60102 0.47021 0.0
H2008 H 0.25591 0.541 0.46906 0.0
H2009 H 0.13977 0.47327 0.48029 0.0
C2010 C 0.13194 0.60811 0.48419 0.0
C2011 C 0.15238 0.6483 0.48196 0.0
C2012 C 0.18859 0.664 0.47747 0.0
C2013 C 0.20487 0.64051 0.47542 0.0
C2014 C 0.18403 0.60102 0.47768 0.0
C2015 C 0.14808 0.58471 0.48184 0.0
C2016 C 0.13058 0.54082 0.48294 0.0
C2017 C 0.12476 0.52928 0.49266 0.0
C2018 C 0.09195 0.51823 0.47784 0.0
C2019 C 0.16263 0.53527 0.4789 0.0
C2020 C 0.19338 0.57048 0.47601 0.0
C2021 C 0.22711 0.5732 0.47239 0.0
C2022 C 0.22962 0.53903 0.47178 0.0
C2023 C 0.19837 0.50251 0.47464 0.0
C2024 C 0.16418 0.50066 0.47809 0.0
H2025 H 0.49493 0.72011 0.47811 0.0
H2026 H 0.51198 0.69428 0.45141 0.0
H2027 H 0.46246 0.62492 0.45371 0.0
H2028 H 0.48021 0.63059 0.48778 0.0
H2029 H 0.44285 0.62624 0.49525 0.0
H2030 H 0.48036 0.67391 0.49161 0.0
H2031 H 0.42709 0.68903 0.4861 0.0
H2032 H 0.38943 0.64148 0.48976 0.0
H2033 H 0.39039 0.65591 0.47854 0.0
H2034 H 0.41096 0.55897 0.45874 0.0
H2035 H 0.35956 0.50022 0.46607 0.0
H2036 H 0.37392 0.56833 0.4895 0.0
C2037 C 0.48813 0.70009 0.4727 0.0
C2038 C 0.50762 0.71291 0.46455 0.0
C2039 C 0.49802 0.68528 0.45773 0.0
C2040 C 0.46975 0.64579 0.45896 0.0
C2041 C 0.45123 0.63427 0.46706 0.0
C2042 C 0.45989 0.66054 0.47381 0.0
C2043 C 0.43522 0.64048 0.48183 0.0
C2044 C 0.46122 0.64296 0.48958 0.0
C2045 C 0.40898 0.65776 0.48419 0.0
C2046 C 0.41118 0.5988 0.4785 0.0
C2047 C 0.42107 0.59601 0.46997 0.0
C2048 C 0.40289 0.5608 0.46541 0.0
C2049 C 0.37354 0.52756 0.46965 0.0
C2050 C 0.36237 0.52959 0.47836 0.0
C2051 C 0.38181 0.56574 0.48286 0.0
H2052 H 0.31744 0.87072 0.47097 0.0
H2053 H 0.26457 0.75015 0.47987 0.0
H2054 H 0.32975 0.75704 0.4812 0.0
H2055 H 0.3908 0.86987 0.45784 0.0
H2056 H 0.42823 0.91913 0.46051 0.0
H2057 H 0.37738 0.90583 0.46087 0.0
H2058 H 0.38542 0.92909 0.47696 0.0
H2059 H 0.4364 0.9426 0.47664 0.0
H2060 H 0.40457 0.90926 0.48491 0.0
H2061 H 0.40035 0.77507 0.48056 0.0
H2062 H 0.47163 0.80401 0.47837 0.0
H2063 H 0.47924 0.9129 0.46996 0.0
C2064 C 0.31948 0.84577 0.47322 0.0
C2065 C 0.28544 0.80982 0.47528 0.0
C2066 C 0.28979 0.77813 0.47831 0.0
C2067 C 0.32688 0.78168 0.47907 0.0
C2068 C 0.35962 0.81723 0.47685 0.0
C2069 C 0.35637 0.84883 0.47405 0.0
C2070 C 0.39624 0.88343 0.47184 0.0
C2071 C 0.39826 0.89524 0.46219 0.0
C2072 C 0.40625 0.91815 0.47795 0.0
C2073 C 0.42221 0.86594 0.47363 0.0
C2074 C 0.40051 0.82778 0.47656 0.0
C2075 C 0.41774 0.80506 0.47834 0.0
C2076 C 0.45826 0.82174 0.47706 0.0
C2077 C 0.48113 0.86077 0.47402 0.0
C2078 C 0.46271 0.88311 0.47235 0.0
H2079 H 0.22414 0.41467 0.35775 0.0
H2080 H 0.32574 0.51466 0.34625 0.0
H2081 H 0.28818 0.54927 0.34506 0.0
H2082 H 0.14845 0.42396 0.34504 0.0
H2083 H 0.11575 0.40955 0.35427 0.0
H2084 H 0.14863 0.39046 0.35304 0.0
H2085 H 0.17669 0.41601 0.3685 0.0
H2086 H 0.14428 0.43549 0.36975 0.0
H2087 H 0.19641 0.46719 0.37099 0.0
H2088 H 0.24208 0.57534 0.3465 0.0
H2089 H 0.19108 0.59117 0.35033 0.0
H2090 H 0.11947 0.47446 0.36111 0.0
C2091 C 0.23829 0.44346 0.35478 0.0
C2092 C 0.27791 0.46188 0.35206 0.0
C2093 C 0.2954 0.49985 0.34834 0.0
C2094 C 0.27428 0.51973 0.34763 0.0
C2095 C 0.23566 0.50114 0.35061 0.0
C2096 C 0.21771 0.46373 0.35405 0.0
C2097 C 0.17696 0.45149 0.35742 0.0
C2098 C 0.1456 0.41681 0.35212 0.0
C2099 C 0.17341 0.44201 0.36725 0.0
C2100 C 0.17538 0.48845 0.35564 0.0
C2101 C 0.20924 0.51644 0.35158 0.0
C2102 C 0.21522 0.55344 0.34957 0.0
C2103 C 0.18589 0.56212 0.35177 0.0
C2104 C 0.151 0.53407 0.35603 0.0
C2105 C 0.1458 0.49666 0.35793 0.0
H2106 H 0.50121 0.80188 0.35641 0.0
H2107 H 0.54027 0.80331 0.32987 0.0
H2108 H 0.51245 0.73147 0.33044 0.0
H2109 H 0.5281 0.73488 0.36426 0.0
H2110 H 0.48757 0.71022 0.37174 0.0
H2111 H 0.50518 0.76061 0.36885 0.0
H2112 H 0.4356 0.743 0.36372 0.0
H2113 H 0.41762 0.69251 0.36664 0.0
H2114 H 0.4107 0.70498 0.3557 0.0
H2115 H 0.48304 0.66015 0.33409 0.0
H2116 H 0.45845 0.59504 0.3409 0.0
H2117 H 0.44361 0.64041 0.3655 0.0
C2118 C 0.50285 0.78679 0.35065 0.0
C2119 C 0.52208 0.80782 0.34302 0.0
C2120 C 0.52515 0.7875 0.33572 0.0
C2121 C 0.50941 0.74676 0.33599 0.0
C2122 C 0.49126 0.72686 0.34366 0.0
C2123 C 0.48815 0.74619 0.35089 0.0
C2124 C 0.47074 0.71849 0.3586 0.0
C2125 C 0.49963 0.73186 0.36632 0.0
C2126 C 0.43132 0.71451 0.36133 0.0
C2127 C 0.46514 0.68077 0.35462 0.0
C2128 C 0.4764 0.6861 0.34594 0.0
C2129 C 0.47396 0.65559 0.34086 0.0
C2130 C 0.45987 0.61873 0.34477 0.0
C2131 C 0.44917 0.61285 0.3537 0.0
C2132 C 0.45182 0.64431 0.35867 0.0
H2133 H 0.36365 0.86445 0.35069 0.0
H2134 H 0.40335 0.79114 0.3628 0.0
H2135 H 0.33634 0.73374 0.36147 0.0
H2136 H 0.26735 0.8194 0.3599 0.0
H2137 H 0.24438 0.82327 0.35005 0.0
H2138 H 0.295 0.85839 0.35222 0.0
H2139 H 0.3147 0.84237 0.33737 0.0
H2140 H 0.26428 0.80695 0.3351 0.0
H2141 H 0.30109 0.79251 0.33481 0.0
H2142 H 0.26413 0.686 0.35972 0.0
H2143 H 0.19338 0.64933 0.35643 0.0
H2144 H 0.20227 0.75208 0.34384 0.0
C2145 C 0.35808 0.83636 0.35309 0.0
C2146 C 0.38836 0.83213 0.35694 0.0
C2147 C 0.38034 0.7948 0.35988 0.0
C2148 C 0.34248 0.7622 0.35915 0.0
C2149 C 0.31327 0.76738 0.35529 0.0
C2150 C 0.32078 0.80341 0.35219 0.0
C2151 C 0.28467 0.80084 0.34801 0.0
C2152 C 0.27211 0.82702 0.35284 0.0
C2153 C 0.2916 0.81126 0.33824 0.0
C2154 C 0.25537 0.75777 0.34936 0.0
C2155 C 0.27241 0.73916 0.35367 0.0
C2156 C 0.25069 0.70005 0.3562 0.0
C2157 C 0.21054 0.67944 0.35428 0.0
C2158 C 0.19261 0.69758 0.34968 0.0
C2159 C 0.21546 0.73721 0.34714 0.0
H2160 H 0.33428 0.40715 0.15271 0.0
H2161 H 0.31943 0.2932 0.14715 0.0
H2162 H 0.24774 0.2627 0.14962 0.0
H2163 H 0.27548 0.38042 0.17004 0.0
H2164 H 0.25489 0.41169 0.16824 0.0
H2165 H 0.30213 0.42506 0.16382 0.0
H2166 H 0.27811 0.42892 0.14828 0.0
H2167 H 0.2306 0.41576 0.15268 0.0
H2168 H 0.23469 0.3874 0.14393 0.0
H2169 H 0.18117 0.24406 0.15577 0.0
H2170 H 0.127 0.23918 0.16489 0.0
H2171 H 0.18529 0.36594 0.16612 0.0
C2172 C 0.31535 0.3761 0.15157 0.0
C2173 C 0.33161 0.35243 0.14949 0.0
C2174 C 0.30687 0.31163 0.14847 0.0
C2175 C 0.26629 0.29422 0.14988 0.0
C2176 C 0.25108 0.31823 0.15225 0.0
C2177 C 0.27491 0.35848 0.15295 0.0
C2178 C 0.25285 0.37726 0.15676 0.0
C2179 C 0.2725 0.39989 0.16521 0.0
C2180 C 0.24882 0.40391 0.15001 0.0
C2181 C 0.21363 0.34123 0.15861 0.0
C2182 C 0.21272 0.30744 0.1558 0.0
C2183 C 0.18113 0.27038 0.15776 0.0
C2184 C 0.15038 0.26784 0.16293 0.0
C2185 C 0.15177 0.30219 0.16615 0.0
C2186 C 0.1831 0.33916 0.16365 0.0
H2187 H 0.66281 0.87521 0.17601 0.0
H2188 H 0.7807 0.90392 0.16868 0.0
H2189 H 0.78354 0.953 0.15815 0.0
H2190 H 0.63079 0.88676 0.1544 0.0
H2191 H 0.60283 0.90782 0.1587 0.0
H2192 H 0.60942 0.87327 0.16515 0.0
H2193 H 0.63816 0.92387 0.17774 0.0
H2194 H 0.63204 0.9587 0.1713 0.0
H2195 H 0.67962 0.97176 0.17562 0.0
H2196 H 0.7743 1.0014 0.14893 0.0
H2197 H 0.75361 0.04413 0.14167 0.0
H2198 H 0.64193 0.98335 0.1552 0.0
C2199 C 0.68907 0.89134 0.1721 0.0
C2200 C 0.72148 0.88552 0.17314 0.0
C2201 C 0.7554 0.90764 0.16796 0.0
C2202 C 0.7573 0.93565 0.16198 0.0
C2203 C 0.72504 0.94112 0.16125 0.0
C2204 C 0.6915 0.9194 0.16615 0.0
C2205 C 0.66138 0.93178 0.16441 0.0
C2206 C 0.62389 0.89789 0.16043 0.0
C2207 C 0.65229 0.94746 0.17276 0.0
C2208 C 0.68332 0.96418 0.15782 0.0
C2209 C 0.7199 0.96904 0.15604 0.0
C2210 C 0.7456 0.99761 0.15023 0.0
C2211 C 0.73352 0.02168 0.14612 0.0
C2212 C 0.69611 0.01721 0.14785 0.0
C2213 C 0.67085 0.98796 0.15379 0.0
H2214 H 0.13443 0.86993 0.16525 0.0
H2215 H 0.23567 0.85549 0.16193 0.0
H2216 H 0.19585 0.79564 0.15323 0.0
H2217 H 0.07051 0.7749 0.16954 0.0
H2218 H 0.02831 0.77088 0.16397 0.0
H2219 H 0.0656 0.81763 0.168 0.0
H2220 H 0.07567 0.84841 0.15266 0.0
H2221 H 0.03737 0.80218 0.14852 0.0
H2222 H 0.08518 0.82563 0.1435 0.0
H2223 H 0.14344 0.73211 0.14727 0.0
H2224 H 0.08268 0.6713 0.1434 0.0
H2225 H 0.0142 0.72511 0.15092 0.0
C2226 C 0.1486 0.85533 0.16226 0.0
C2227 C 0.18838 0.86785 0.16401 0.0
C2228 C 0.2055 0.84682 0.16044 0.0
C2229 C 0.18303 0.81269 0.15555 0.0
C2230 C 0.14336 0.79984 0.15432 0.0
C2231 C 0.12631 0.82076 0.15746 0.0
C2232 C 0.08219 0.79808 0.15615 0.0
C2233 C 0.0604 0.78988 0.16494 0.0
C2234 C 0.06935 0.81988 0.14983 0.0
C2235 C 0.07703 0.76068 0.15207 0.0
C2236 C 0.11274 0.76251 0.151 0.0
C2237 C 0.11536 0.73059 0.14794 0.0
C2238 C 0.08064 0.69599 0.14584 0.0
C2239 C 0.04366 0.69341 0.14684 0.0
C2240 C 0.04205 0.72641 0.14994 0.0
H2241 H 0.28135 0.2722 0.34282 0.0
H2242 H 0.40538 0.35202 0.33858 0.0
H2243 H 0.40979 0.30063 0.33025 0.0
H2244 H 0.28723 0.18554 0.34598 0.0
H2245 H 0.2423 0.15376 0.34027 0.0
H2246 H 0.24832 0.19705 0.34566 0.0
H2247 H 0.23332 0.22105 0.33117 0.0
H2248 H 0.22672 0.17757 0.32577 0.0
H2249 H 0.26148 0.22519 0.32153 0.0
H2250 H 0.40113 0.24031 0.32277 0.0
H2251 H 0.37904 0.17689 0.31547 0.0
H2252 H 0.26051 0.13551 0.32469 0.0
C2253 C 0.30943 0.27887 0.34013 0.0
C2254 C 0.3431 0.31615 0.34137 0.0
C2255 C 0.37917 0.32391 0.33763 0.0
C2256 C 0.382 0.29477 0.33296 0.0
C2257 C 0.34843 0.25812 0.33204 0.0
C2258 C 0.31269 0.2502 0.33541 0.0
C2259 C 0.28097 0.20851 0.33339 0.0
C2260 C 0.2637 0.18482 0.34183 0.0
C2261 C 0.24874 0.20807 0.32762 0.0
C2262 C 0.30457 0.19408 0.32841 0.0
C2263 C 0.34343 0.22319 0.32773 0.0
C2264 C 0.37082 0.21731 0.32326 0.0
C2265 C 0.358 0.18113 0.31917 0.0
C2266 C 0.31817 0.15118 0.31958 0.0
C2267 C 0.29128 0.15756 0.32441 0.0
H2268 H 0.71464 0.99154 0.33128 0.0
H2269 H 0.68417 0.04999 0.35116 0.0
H2270 H 0.75084 0.10773 0.35018 0.0
H2271 H 0.82164 0.03522 0.33761 0.0
H2272 H 0.83523 0.0377 0.32627 0.0
H2273 H 0.78803 0.99936 0.32999 0.0
H2274 H 0.75542 0.02072 0.31804 0.0
H2275 H 0.80263 0.05966 0.31466 0.0
H2276 H 0.76517 0.07056 0.31793 0.0
H2277 H 0.8156 0.16333 0.34489 0.0
H2278 H 0.87371 0.21016 0.3363 0.0
H2279 H 0.86388 0.11457 0.32057 0.0
C2280 C 0.72238 0.01614 0.33559 0.0
C2281 C 0.69423 0.01623 0.34132 0.0
C2282 C 0.70537 0.04901 0.34682 0.0
C2283 C 0.74318 0.08198 0.34628 0.0
C2284 C 0.76984 0.08142 0.34035 0.0
C2285 C 0.7601 0.04899 0.3352 0.0
C2286 C 0.7927 0.05689 0.32881 0.0
C2287 C 0.81047 0.03075 0.33079 0.0
C2288 C 0.7781 0.05166 0.3193 0.0
C2289 C 0.82152 0.09942 0.33087 0.0
C2290 C 0.80804 0.11302 0.3376 0.0
C2291 C 0.82716 0.15268 0.33985 0.0
C2292 C 0.86022 0.17908 0.33498 0.0
C2293 C 0.87417 0.16564 0.32805 0.0
C2294 C 0.85506 0.12525 0.32613 0.0
H2295 H 0.88691 0.75458 0.32949 0.0
H2296 H 0.78569 0.64575 0.33774 0.0
H2297 H 0.82909 0.62775 0.34566 0.0
H2298 H 0.94427 0.71385 0.32454 0.0
H2299 H 0.99014 0.75497 0.32804 0.0
H2300 H 0.95092 0.7625 0.32446 0.0
H2301 H 0.95389 0.79649 0.33923 0.0
H2302 H 0.99329 0.78892 0.34274 0.0
H2303 H 0.94968 0.77104 0.34932 0.0
H2304 H 0.88304 0.61721 0.35081 0.0
H2305 H 0.94418 0.61623 0.35362 0.0
H2306 H 0.0112 0.73094 0.34165 0.0
C2307 C 0.87384 0.72784 0.3333 0.0
C2308 C 0.8329 0.70188 0.33319 0.0
C2309 C 0.81693 0.66626 0.33789 0.0
C2310 C 0.84136 0.65578 0.34238 0.0
C2311 C 0.88174 0.68116 0.34204 0.0
C2312 C 0.89795 0.71665 0.33769 0.0
C2313 C 0.94236 0.73648 0.33753 0.0
C2314 C 0.95781 0.74228 0.32808 0.0
C2315 C 0.96089 0.77555 0.34251 0.0
C2316 C 0.94849 0.70624 0.34231 0.0
C2317 C 0.91312 0.6747 0.3449 0.0
C2318 C 0.91095 0.64197 0.34893 0.0
C2319 C 0.94582 0.64148 0.3504 0.0
C2320 C 0.98248 0.67346 0.34784 0.0
C2321 C 0.98368 0.70634 0.34379 0.0
H2322 H 0.81524 0.65584 0.81435 0.0
H2323 H 0.88884 0.69643 0.83741 0.0
H2324 H 0.832 0.6889 0.84608 0.0
H2325 H 0.76654 0.70878 0.81864 0.0
H2326 H 0.72048 0.67191 0.81411 0.0
H2327 H 0.76573 0.67688 0.81011 0.0
H2328 H 0.74084 0.60372 0.81361 0.0
H2329 H 0.69537 0.5984 0.81757 0.0
H2330 H 0.72424 0.58556 0.8245 0.0
H2331 H 0.76523 0.67627 0.85208 0.0
H2332 H 0.69804 0.66522 0.8545 0.0
H2333 H 0.67208 0.63828 0.82705 0.0
C2334 C 0.81934 0.66228 0.82128 0.0
C2335 C 0.85618 0.67572 0.82528 0.0
C2336 C 0.86063 0.68543 0.83427 0.0
C2337 C 0.82854 0.68127 0.83922 0.0
C2338 C 0.79258 0.66818 0.83501 0.0
C2339 C 0.78815 0.65928 0.8262 0.0
C2340 C 0.74781 0.64881 0.82297 0.0
C2341 C 0.75031 0.67836 0.81605 0.0
C2342 C 0.72577 0.60662 0.81946 0.0
C2343 C 0.72971 0.6526 0.83135 0.0
C2344 C 0.75568 0.66341 0.83827 0.0
C2345 C 0.74484 0.66798 0.84668 0.0
C2346 C 0.70667 0.66153 0.84802 0.0
C2347 C 0.68009 0.65127 0.84095 0.0
C2348 C 0.69196 0.64672 0.83254 0.0
H2349 H 0.3571 0.16604 0.82078 0.0
H2350 H 0.25671 0.14988 0.83581 0.0
H2351 H 0.26609 0.10639 0.84601 0.0
H2352 H 0.33279 0.07065 0.82102 0.0
H2353 H 0.38212 0.07906 0.8216 0.0
H2354 H 0.37315 0.11541 0.81679 0.0
H2355 H 0.42203 0.16756 0.82761 0.0
H2356 H 0.43141 0.1313 0.83244 0.0
H2357 H 0.41557 0.15826 0.8392 0.0
H2358 H 0.28071 0.05666 0.85321 0.0
H2359 H 0.29742 0.00463 0.85619 0.0
H2360 H 0.38554 0.05178 0.83594 0.0
C2361 C 0.33783 0.15453 0.82639 0.0
C2362 C 0.3064 0.16176 0.82754 0.0
C2363 C 0.28133 0.14523 0.83485 0.0
C2364 C 0.28646 0.12047 0.84068 0.0
C2365 C 0.31686 0.11267 0.83912 0.0
C2366 C 0.34223 0.12949 0.83215 0.0
C2367 C 0.36919 0.11272 0.83112 0.0
C2368 C 0.36396 0.0933 0.8221 0.0
C2369 C 0.41209 0.14435 0.83269 0.0
C2370 C 0.35417 0.0827 0.83838 0.0
C2371 C 0.3246 0.08359 0.84308 0.0
C2372 C 0.30437 0.05634 0.84969 0.0
C2373 C 0.31404 0.02704 0.85138 0.0
C2374 C 0.34317 0.02506 0.84639 0.0
C2375 C 0.36387 0.05361 0.83995 0.0
H2376 H 0.88534 0.13877 0.8288 0.0
H2377 H 0.78823 0.16117 0.82759 0.0
H2378 H 0.82637 0.22167 0.83617 0.0
H2379 H 0.92069 0.1814 0.85119 0.0
H2380 H 0.97129 0.20167 0.84805 0.0
H2381 H 0.93406 0.15697 0.84309 0.0
H2382 H 0.95714 0.18813 0.82791 0.0
H2383 H 0.99387 0.23343 0.83266 0.0
H2384 H 0.95807 0.23324 0.82528 0.0
H2385 H 0.87714 0.28297 0.84345 0.0
H2386 H 0.93641 0.34009 0.84924 0.0
H2387 H 1.00176 0.27943 0.84516 0.0
C2388 C 0.87164 0.15568 0.83062 0.0
C2389 C 0.83365 0.14507 0.82764 0.0
C2390 C 0.81718 0.16865 0.82988 0.0
C2391 C 0.8386 0.20305 0.83476 0.0
C2392 C 0.87649 0.21349 0.83734 0.0
C2393 C 0.8928 0.19036 0.83544 0.0
C2394 C 0.93525 0.21 0.83835 0.0
C2395 C 0.94063 0.18608 0.8456 0.0
C2396 C 0.9627 0.21665 0.83058 0.0
C2397 C 0.94062 0.24834 0.84186 0.0
C2398 C 0.9062 0.24947 0.84135 0.0
C2399 C 0.90421 0.28232 0.84394 0.0
C2400 C 0.93828 0.31489 0.84714 0.0
C2401 C 0.97413 0.31467 0.84767 0.0
C2402 C 0.97495 0.28065 0.845 0.0
H2403 H 0.71614 0.7082 0.65681 0.0
H2404 H 0.59528 0.65528 0.64807 0.0
H2405 H 0.59548 0.71632 0.65171 0.0
H2406 H 0.70858 0.75821 0.6747 0.0
H2407 H 0.75625 0.80093 0.67331 0.0
H2408 H 0.74747 0.75416 0.66947 0.0
H2409 H 0.77068 0.78365 0.65402 0.0
H2410 H 0.77942 0.83052 0.6579 0.0
H2411 H 0.7477 0.80774 0.64866 0.0
H2412 H 0.60681 0.7807 0.65772 0.0
H2413 H 0.62759 0.84151 0.66613 0.0
H2414 H 0.74239 0.85428 0.66985 0.0
C2415 C 0.68984 0.70938 0.65544 0.0
C2416 C 0.65571 0.67647 0.65208 0.0
C2417 C 0.62177 0.6796 0.65069 0.0
C2418 C 0.62172 0.71444 0.65265 0.0
C2419 C 0.65597 0.7462 0.6559 0.0
C2420 C 0.68943 0.74397 0.65726 0.0
C2421 C 0.72171 0.78134 0.66131 0.0
C2422 C 0.73417 0.77308 0.67023 0.0
C2423 C 0.75696 0.80204 0.6551 0.0
C2424 C 0.7008 0.80459 0.66229 0.0
C2425 C 0.66298 0.78394 0.65905 0.0
C2426 C 0.63663 0.79753 0.66008 0.0
C2427 C 0.64872 0.8322 0.66481 0.0
C2428 C 0.6869 0.85311 0.6684 0.0
C2429 C 0.71362 0.83978 0.66686 0.0
H2430 H 0.20262 0.85086 0.67823 0.0
H2431 H 0.11257 0.84564 0.66101 0.0
H2432 H 0.16387 0.88785 0.65038 0.0
H2433 H 0.26872 0.94969 0.67513 0.0
H2434 H 0.31216 0.94542 0.67562 0.0
H2435 H 0.2684 0.91041 0.68124 0.0
H2436 H 0.26942 0.85365 0.67295 0.0
H2437 H 0.3134 0.8885 0.66732 0.0
H2438 H 0.27091 0.85428 0.66117 0.0
H2439 H 0.22532 0.93558 0.64233 0.0
H2440 H 0.29146 0.9858 0.63758 0.0
H2441 H 0.34181 0.9616 0.66027 0.0
C2442 C 0.19343 0.85767 0.67213 0.0
C2443 C 0.15336 0.84446 0.67042 0.0
C2444 C 0.14293 0.85494 0.66243 0.0
C2445 C 0.17192 0.87894 0.65635 0.0
C2446 C 0.21119 0.89219 0.65836 0.0
C2447 C 0.22194 0.8818 0.66605 0.0
C2448 C 0.26623 0.90258 0.66702 0.0
C2449 C 0.27965 0.92856 0.67524 0.0
C2450 C 0.28084 0.87298 0.66712 0.0
C2451 C 0.27887 0.92704 0.65876 0.0
C2452 C 0.24664 0.92025 0.65381 0.0
C2453 C 0.25068 0.94084 0.64612 0.0
C2454 C 0.28842 0.96952 0.64351 0.0
C2455 C 0.32188 0.97775 0.64856 0.0
C2456 C 0.31694 0.95556 0.6562 0.0
H2457 H 0.12234 0.27138 0.66807 0.0
H2458 H 0.22057 0.38977 0.66995 0.0
H2459 H 0.18441 0.41388 0.66111 0.0
H2460 H 0.08819 0.27963 0.6457 0.0
H2461 H 0.03739 0.25062 0.64881 0.0
H2462 H 0.07364 0.24186 0.65387 0.0
H2463 H 0.05115 0.25149 0.6691 0.0
H2464 H 0.01529 0.26089 0.66412 0.0
H2465 H 0.05132 0.2964 0.67146 0.0
H2466 H 0.13499 0.42618 0.65366 0.0
H2467 H 0.07659 0.42571 0.6477 0.0
H2468 H 0.00905 0.29965 0.6513 0.0
C2469 C 0.13682 0.30208 0.66627 0.0
C2470 C 0.17459 0.32869 0.66948 0.0
C2471 C 0.19193 0.36894 0.6674 0.0
C2472 C 0.17157 0.38286 0.66241 0.0
C2473 C 0.13375 0.35616 0.65962 0.0
C2474 C 0.11658 0.31655 0.66142 0.0
C2475 C 0.07415 0.29471 0.65847 0.0
C2476 C 0.06799 0.26495 0.65129 0.0
C2477 C 0.04636 0.27471 0.66625 0.0
C2478 C 0.06996 0.32834 0.65489 0.0
C2479 C 0.10477 0.36344 0.65554 0.0
C2480 C 0.10766 0.39881 0.65304 0.0
C2481 C 0.07417 0.39829 0.64974 0.0
C2482 C 0.03808 0.36268 0.64901 0.0
C2483 C 0.03624 0.3273 0.65161 0.0
H2484 H 0.79889 0.5926 0.50325 0.0
H2485 H 0.80829 0.70544 0.49868 0.0
H2486 H 0.86891 0.72649 0.49018 0.0
H2487 H 0.89565 0.62897 0.50779 0.0
H2488 H 0.90043 0.59008 0.50281 0.0
H2489 H 0.85348 0.58075 0.50672 0.0
H2490 H 0.82328 0.55528 0.49148 0.0
H2491 H 0.87026 0.56456 0.48751 0.0
H2492 H 0.84497 0.58599 0.48202 0.0
H2493 H 0.93372 0.73947 0.48453 0.0
H2494 H 0.99584 0.74156 0.48095 0.0
H2495 H 0.94624 0.62107 0.48955 0.0
C2496 C 0.81259 0.62088 0.50005 0.0
C2497 C 0.79838 0.64707 0.50139 0.0
C2498 C 0.81823 0.68469 0.49752 0.0
C2499 C 0.85282 0.69695 0.49273 0.0
C2500 C 0.86734 0.6713 0.49193 0.0
C2501 C 0.84762 0.6338 0.49537 0.0
C2502 C 0.87194 0.61384 0.49448 0.0
C2503 C 0.88095 0.6028 0.50349 0.0
C2504 C 0.85139 0.57779 0.48851 0.0
C2505 C 0.90871 0.64629 0.49024 0.0
C2506 C 0.90532 0.67908 0.48878 0.0
C2507 C 0.93646 0.71373 0.4855 0.0
C2508 C 0.97183 0.71481 0.48358 0.0
C2509 C 0.97595 0.68149 0.48495 0.0
C2510 C 0.94377 0.64679 0.48829 0.0
H2511 H 0.38201 0.34604 0.49069 0.0
H2512 H 0.25846 0.27795 0.48405 0.0
H2513 H 0.25693 0.21819 0.48925 0.0
H2514 H 0.40677 0.27047 0.48439 0.0
H2515 H 0.44091 0.28229 0.49328 0.0
H2516 H 0.43325 0.31984 0.48855 0.0
H2517 H 0.41587 0.33515 0.50382 0.0
H2518 H 0.42369 0.29783 0.50856 0.0
H2519 H 0.37752 0.29617 0.51012 0.0
H2520 H 0.26662 0.16704 0.49641 0.0
H2521 H 0.28771 0.12759 0.50499 0.0
H2522 H 0.40585 0.2268 0.50612 0.0
C2523 C 0.35479 0.31851 0.49018 0.0
C2524 C 0.32027 0.317 0.487 0.0
C2525 C 0.28514 0.28028 0.48659 0.0
C2526 C 0.28405 0.24596 0.48945 0.0
C2527 C 0.31841 0.24858 0.49262 0.0
C2528 C 0.35323 0.28382 0.49296 0.0
C2529 C 0.38554 0.27864 0.49702 0.0
C2530 C 0.41856 0.28838 0.49041 0.0
C2531 C 0.40157 0.3034 0.50538 0.0
C2532 C 0.36308 0.23516 0.49909 0.0
C2533 C 0.32442 0.21842 0.49646 0.0
C2534 C 0.29699 0.17953 0.49834 0.0
C2535 C 0.30917 0.15735 0.50319 0.0
C2536 C 0.34848 0.17394 0.50599 0.0
C2537 C 0.37594 0.21308 0.50376 0.0
H2538 H 0.69314 0.9992 0.49682 0.0
H2539 H 0.68147 0.03807 0.47113 0.0
H2540 H 0.733 0.10616 0.47486 0.0
H2541 H 0.7047 0.07979 0.50858 0.0
H2542 H 0.74012 0.08053 0.51615 0.0
H2543 H 0.70503 0.03524 0.51109 0.0
H2544 H 0.76146 0.02574 0.50518 0.0
H2545 H 0.79678 0.071 0.51027 0.0
H2546 H 0.79988 0.06393 0.49873 0.0
H2547 H 0.78068 0.17155 0.4824 0.0
H2548 H 0.82325 0.22602 0.49241 0.0
H2549 H 0.80489 0.14141 0.51265 0.0
C2550 C 0.7019 0.02204 0.49195 0.0
C2551 C 0.68349 0.01379 0.48371 0.0
C2552 C 0.69562 0.04409 0.47745 0.0
C2553 C 0.72466 0.08269 0.47954 0.0
C2554 C 0.74166 0.09005 0.48784 0.0
C2555 C 0.73108 0.06025 0.49387 0.0
C2556 C 0.75267 0.07538 0.50241 0.0
C2557 C 0.72391 0.06726 0.51 0.0
C2558 C 0.77928 0.05798 0.50425 0.0
C2559 C 0.77643 0.1186 0.50037 0.0
C2560 C 0.7698 0.12678 0.49197 0.0
C2561 C 0.78661 0.1653 0.48893 0.0
C2562 C 0.81065 0.19605 0.49465 0.0
C2563 C 0.81783 0.18796 0.50326 0.0
C2564 C 0.80071 0.14866 0.50606 0.0
H2565 H 0.03037 0.54577 0.65219 0.0
H2566 H 0.93987 0.45117 0.66756 0.0
H2567 H 0.94545 0.49933 0.67868 0.0
H2568 H 0.08926 0.60941 0.67052 0.0
H2569 H 0.09919 0.65335 0.66475 0.0
H2570 H 0.09238 0.61103 0.65876 0.0
H2571 H 0.03726 0.61184 0.64968 0.0
H2572 H 0.04374 0.65395 0.65565 0.0
H2573 H 0.99617 0.61033 0.65524 0.0
H2574 H 0.95648 0.55831 0.68733 0.0
H2575 H 0.96961 0.62291 0.69255 0.0
H2576 H 0.05102 0.67929 0.67117 0.0
C2577 C 0.01241 0.53489 0.65801 0.0
C2578 C 0.98499 0.49452 0.65906 0.0
C2579 C 0.96139 0.48182 0.66666 0.0
C2580 C 0.96441 0.509 0.67301 0.0
C2581 C 0.99115 0.5487 0.67165 0.0
C2582 C 0.01475 0.56158 0.66433 0.0
C2583 C 0.03819 0.60598 0.66393 0.0
C2584 C 0.08238 0.62081 0.66453 0.0
C2585 C 0.02822 0.62141 0.65564 0.0
C2586 C 0.02345 0.61626 0.67207 0.0
C2587 C 0.99677 0.58278 0.6765 0.0
C2588 C 0.97752 0.58465 0.68394 0.0
C2589 C 0.98501 0.62151 0.68683 0.0
C2590 C 0.01124 0.65618 0.68224 0.0
C2591 C 0.03136 0.65344 0.67488 0.0
H2592 H 0.46798 0.4852 0.65467 0.0
H2593 H 0.55612 0.46981 0.66826 0.0
H2594 H 0.5049 0.42182 0.67814 0.0
H2595 H 0.40553 0.47306 0.67386 0.0
H2596 H 0.36103 0.4466 0.66761 0.0
H2597 H 0.4053 0.48333 0.66239 0.0
H2598 H 0.39929 0.43217 0.65095 0.0
H2599 H 0.35526 0.39526 0.65616 0.0
H2600 H 0.39601 0.38711 0.6546 0.0
H2601 H 0.44319 0.37074 0.68552 0.0
H2602 H 0.37622 0.32135 0.69001 0.0
H2603 H 0.32814 0.36927 0.67143 0.0
C2604 C 0.47678 0.47254 0.65986 0.0
C2605 C 0.51622 0.4816 0.66074 0.0
C2606 C 0.52624 0.46373 0.66752 0.0
C2607 C 0.49731 0.43637 0.67315 0.0
C2608 C 0.45855 0.42736 0.67195 0.0
C2609 C 0.44831 0.44515 0.66551 0.0
C2610 C 0.40428 0.42828 0.66515 0.0
C2611 C 0.3934 0.45969 0.66739 0.0
C2612 C 0.38775 0.4096 0.65618 0.0
C2613 C 0.39117 0.39755 0.67226 0.0
C2614 C 0.42295 0.39772 0.67615 0.0
C2615 C 0.41815 0.37063 0.68258 0.0
C2616 C 0.37995 0.34247 0.68504 0.0
C2617 C 0.34687 0.34137 0.68107 0.0
C2618 C 0.35277 0.36974 0.67468 0.0
H2619 H 0.50767 0.97281 0.65621 0.0
H2620 H 0.52121 0.07604 0.66954 0.0
H2621 H 0.56962 0.0739 0.67951 0.0
H2622 H 0.52201 0.9237 0.67539 0.0
H2623 H 0.54929 0.90687 0.66905 0.0
H2624 H 0.51146 0.913 0.66393 0.0
H2625 H 0.56151 0.95896 0.6524 0.0
H2626 H 0.59955 0.95337 0.6575 0.0
H2627 H 0.606 1.0016 0.65596 0.0
H2628 H 0.62144 0.0644 0.68696 0.0
H2629 H 0.67222 0.04874 0.69134 0.0
H2630 H 0.62668 0.95328 0.67265 0.0
C2631 C 0.51983 0.99435 0.66139 0.0
C2632 C 0.51021 0.02437 0.66215 0.0
C2633 C 0.52771 0.0525 0.66889 0.0
C2634 C 0.55529 0.05153 0.67457 0.0
C2635 C 0.56502 0.02224 0.67343 0.0
C2636 C 0.54763 0.99403 0.66702 0.0
C2637 C 0.56571 0.96793 0.66659 0.0
C2638 C 0.5353 0.92535 0.66888 0.0
C2639 C 0.58429 0.97066 0.65758 0.0
C2640 C 0.59665 0.98631 0.67364 0.0
C2641 C 0.59548 0.01732 0.67756 0.0
C2642 C 0.62239 0.04001 0.68397 0.0
C2643 C 0.65141 0.03106 0.68636 0.0
C2644 C 0.65371 0.99985 0.68232 0.0
C2645 C 0.62546 0.97691 0.67596 0.0
H2646 H 0.34374 0.96133 0.16823 0.0
H2647 H 0.39937 0.04217 0.18973 0.0
H2648 H 0.46337 0.05064 0.18536 0.0
H2649 H 0.40617 0.91566 0.16907 0.0
H2650 H 0.40719 0.91209 0.15734 0.0
H2651 H 0.36507 0.90946 0.16265 0.0
H2652 H 0.37206 0.96705 0.1531 0.0
H2653 H 0.41385 0.96952 0.14774 0.0
H2654 H 0.41814 0.01248 0.15296 0.0
H2655 H 0.52233 0.05568 0.17776 0.0
H2656 H 0.57122 0.05793 0.16729 0.0
H2657 H 0.47705 0.97153 0.15117 0.0
C2658 C 0.3692 0.9801 0.17214 0.0
C2659 C 0.36637 1.00111 0.17932 0.0
C2660 C 0.40071 0.02612 0.18414 0.0
C2661 C 0.43722 0.03083 0.18176 0.0
C2662 C 0.43905 0.01009 0.17459 0.0
C2663 C 0.40593 0.98512 0.16986 0.0
C2664 C 0.41629 0.96846 0.16205 0.0
C2665 C 0.39756 0.92376 0.16283 0.0
C2666 C 0.40439 0.98009 0.15346 0.0
C2667 C 0.46047 0.98869 0.163 0.0
C2668 C 0.47304 0.01236 0.17032 0.0
C2669 C 0.51281 0.03666 0.17211 0.0
C2670 C 0.5404 0.03767 0.16614 0.0
C2671 C 0.52812 0.01448 0.15847 0.0
C2672 C 0.48758 0.98882 0.15707 0.0
H2673 H 0.93951 0.45798 0.15903 0.0
H2674 H 0.04989 0.56276 0.16448 0.0
H2675 H 0.0698 0.52427 0.17376 0.0
H2676 H 0.92867 0.40406 0.18038 0.0
H2677 H 0.91011 0.35808 0.1747 0.0
H2678 H 0.90027 0.39512 0.17053 0.0
H2679 H 0.93008 0.39286 0.15564 0.0
H2680 H 0.94037 0.35623 0.15974 0.0
H2681 H 0.97939 0.40114 0.15523 0.0
H2682 H 0.08243 0.47315 0.18019 0.0
H2683 H 0.08712 0.41408 0.18313 0.0
H2684 H 0.96961 0.3416 0.17289 0.0
C2685 C 0.96685 0.47308 0.16258 0.0
C2686 C 0.99262 0.51355 0.16133 0.0
C2687 C 0.0293 0.53202 0.16562 0.0
C2688 C 0.04086 0.51031 0.17086 0.0
C2689 C 0.0156 0.47 0.17164 0.0
C2690 C 0.97918 0.45155 0.16765 0.0
C2691 C 0.96026 0.40734 0.16831 0.0
C2692 C 0.9226 0.39015 0.17381 0.0
C2693 C 0.95208 0.38831 0.15919 0.0
C2694 C 0.99228 0.40383 0.17301 0.0
C2695 C 0.02359 0.44025 0.17503 0.0
C2696 C 0.05773 0.44445 0.1788 0.0
C2697 C 0.06012 0.41063 0.18047 0.0
C2698 C 0.02876 0.373 0.17827 0.0
C2699 C 0.99419 0.36983 0.17464 0.0
H2700 H 0.57124 0.51446 0.1593 0.0
H2701 H 0.46957 0.52975 0.1596 0.0
H2702 H 0.50709 0.5912 0.16795 0.0
H2703 H 0.61129 0.55843 0.18105 0.0
H2704 H 0.66113 0.58165 0.17716 0.0
H2705 H 0.62449 0.53596 0.17245 0.0
H2706 H 0.64128 0.56765 0.15707 0.0
H2707 H 0.6776 0.61349 0.16171 0.0
H2708 H 0.63878 0.61147 0.15509 0.0
H2709 H 0.55721 0.65373 0.17501 0.0
H2710 H 0.61662 0.71349 0.17997 0.0
H2711 H 0.68609 0.65829 0.17468 0.0
C2712 C 0.55654 0.5301 0.16138 0.0
C2713 C 0.5174 0.51721 0.15895 0.0
C2714 C 0.49948 0.53909 0.16149 0.0
C2715 C 0.52052 0.57393 0.16624 0.0
C2716 C 0.55945 0.58649 0.16834 0.0
C2717 C 0.57731 0.56523 0.166 0.0
C2718 C 0.62049 0.58703 0.16828 0.0
C2719 C 0.62989 0.56442 0.17514 0.0
C2720 C 0.64601 0.5954 0.16005 0.0
C2721 C 0.6243 0.62426 0.17206 0.0
C2722 C 0.58868 0.62314 0.17216 0.0
C2723 C 0.58519 0.65478 0.17507 0.0
C2724 C 0.61908 0.68856 0.1779 0.0
C2725 C 0.65599 0.69056 0.17772 0.0
C2726 C 0.65835 0.65774 0.17483 0.0
H2727 H 0.29259 0.97906 0.99332 0.0
H2728 H 0.3729 0.03514 0.97173 0.0
H2729 H 0.388 0.09991 0.97725 0.0
H2730 H 0.25594 0.0493 0.99439 0.0
H2731 H 0.25332 0.04746 0.00615 0.0
H2732 H 0.24624 0.00525 8e-05 0.0
H2733 H 0.30187 0.0043 0.00895 0.0
H2734 H 0.30908 0.04646 0.01503 0.0
H2735 H 0.34964 0.04772 0.00928 0.0
H2736 H 0.40011 0.15912 0.98603 0.0
H2737 H 0.40536 0.20748 0.99709 0.0
H2738 H 0.31484 0.11301 0.01247 0.0
C2739 C 0.31257 0.0049 0.98964 0.0
C2740 C 0.33171 0.00191 0.98212 0.0
C2741 C 0.35829 0.03661 0.97759 0.0
C2742 C 0.3669 0.07361 0.98063 0.0
C2743 C 0.34842 0.07565 0.9882 0.0
C2744 C 0.32148 0.04221 0.9926 0.0
C2745 C 0.3073 0.05265 0.00082 0.0
C2746 C 0.26307 0.03778 0.00033 0.0
C2747 C 0.3176 0.03685 0.009 0.0
C2748 C 0.33094 0.09702 0.00042 0.0
C2749 C 0.35452 0.10981 0.9931 0.0
C2750 C 0.38119 0.14951 0.99171 0.0
C2751 C 0.38401 0.17679 0.99801 0.0
C2752 C 0.3601 0.16422 0.00556 0.0
C2753 C 0.33291 0.12382 0.00667 0.0
H2754 H 0.82324 0.18365 0.00721 0.0
H2755 H 0.86461 0.25143 0.03109 0.0
H2756 H 0.92741 0.29655 0.02397 0.0
H2757 H 0.91316 0.1894 0.00176 0.0
H2758 H 0.90883 0.19355 0.99013 0.0
H2759 H 0.86542 0.16855 0.99677 0.0
H2760 H 0.8412 0.2146 0.99098 0.0
H2761 H 0.88445 0.23958 0.98427 0.0
H2762 H 0.87257 0.26691 0.9919 0.0
H2763 H 0.98707 0.33222 0.01462 0.0
H2764 H 0.03924 0.35697 0.00348 0.0
H2765 H 0.96072 0.26456 0.98583 0.0
C2766 C 0.84528 0.20847 0.01085 0.0
C2767 C 0.83913 0.21417 0.01968 0.0
C2768 C 0.86886 0.24649 0.02432 0.0
C2769 C 0.9046 0.27235 0.02033 0.0
C2770 C 0.91032 0.26544 0.01169 0.0
C2771 C 0.88152 0.23443 0.00698 0.0
C2772 C 0.89622 0.23255 0.99793 0.0
C2773 C 0.89589 0.19371 0.99658 0.0
C2774 C 0.87218 0.23879 0.99085 0.0
C2775 C 0.93775 0.26698 0.99837 0.0
C2776 C 0.94517 0.28569 0.00634 0.0
C2777 C 0.98161 0.31788 0.00833 0.0
C2778 C 0.01125 0.33153 0.00198 0.0
C2779 C 0.00442 0.3129 0.99373 0.0
C2780 C 0.96704 0.28004 0.99198 0.0
H2781 H 0.77193 0.5882 0.00274 0.0
H2782 H 0.87852 0.69824 0.99777 0.0
H2783 H 0.84045 0.7224 0.98973 0.0
H2784 H 0.72105 0.584 0.98176 0.0
H2785 H 0.67407 0.56423 0.98708 0.0
H2786 H 0.71031 0.55336 0.9913 0.0
H2787 H 0.7054 0.57979 0.00642 0.0
H2788 H 0.66964 0.59134 0.00225 0.0
H2789 H 0.7138 0.62902 0.00731 0.0
H2790 H 0.79074 0.7376 0.98376 0.0
H2791 H 0.73259 0.7415 0.97935 0.0
H2792 H 0.65729 0.62235 0.98841 0.0
C2793 C 0.78736 0.61675 -0.00035 0.0
C2794 C 0.82828 0.64117 0.00072 0.0
C2795 C 0.84728 0.67896 0.99691 0.0
C2796 C 0.82589 0.69296 0.99236 0.0
C2797 C 0.78542 0.66885 0.9917 0.0
C2798 C 0.76629 0.63138 0.99515 0.0
C2799 C 0.7222 0.61279 0.99411 0.0
C2800 C 0.70596 0.57644 0.98821 0.0
C2801 C 0.70157 0.60266 0.00306 0.0
C2802 C 0.71963 0.64595 0.98968 0.0
C2803 C 0.75648 0.67789 0.98833 0.0
C2804 C 0.76172 0.71263 0.9847 0.0
C2805 C 0.72845 0.71472 0.98229 0.0
C2806 C 0.6903 0.68229 0.98353 0.0
C2807 C 0.68603 0.64746 0.98727 0.0
H2808 H 0.62667 0.94592 0.82569 0.0
H2809 H 0.66892 0.0563 0.81202 0.0
H2810 H 0.6051 0.05233 0.81434 0.0
H2811 H 0.52227 0.89996 0.81826 0.0
H2812 H 0.50394 0.87676 0.82871 0.0
H2813 H 0.55068 0.88507 0.8248 0.0
H2814 H 0.5838 0.92289 0.83899 0.0
H2815 H 0.53726 0.91457 0.84292 0.0
H2816 H 0.57813 0.96385 0.84217 0.0
H2817 H 0.54179 0.04244 0.82028 0.0
H2818 H 0.48274 0.026 0.82904 0.0
H2819 H 0.4797 0.9206 0.83833 0.0
C2820 C 0.62222 0.96889 0.82305 0.0
C2821 C 0.65282 1.00134 0.81864 0.0
C2822 C 0.64585 0.03083 0.81528 0.0
C2823 C 0.60965 0.02887 0.81659 0.0
C2824 C 0.58048 0.99695 0.82115 0.0
C2825 C 0.58618 0.96722 0.82425 0.0
C2826 C 0.55125 0.93775 0.82955 0.0
C2827 C 0.53082 0.8975 0.82506 0.0
C2828 C 0.56335 0.93463 0.83896 0.0
C2829 C 0.52585 0.95659 0.8293 0.0
C2830 C 0.54306 0.99051 0.82434 0.0
C2831 C 0.52744 0.01538 0.82397 0.0
C2832 C 0.49395 0.00587 0.82895 0.0
C2833 C 0.47626 0.97161 0.83415 0.0
C2834 C 0.49182 0.94617 0.83413 0.0
H2835 H 0.96816 0.62028 0.82563 0.0
H2836 H 0.06483 0.66205 0.8073 0.0
H2837 H 0.07902 0.61101 0.81235 0.0
H2838 H 0.0144 0.60201 0.84281 0.0
H2839 H 0.97151 0.55838 0.84665 0.0
H2840 H 0.96625 0.59531 0.8409 0.0
H2841 H 0.92047 0.54343 0.82964 0.0
H2842 H 0.9256 0.50626 0.83537 0.0
H2843 H 0.93719 0.51456 0.8239 0.0
H2844 H 0.08736 0.56005 0.82056 0.0
H2845 H 0.08818 0.51303 0.8312 0.0
H2846 H 0.98458 0.50301 0.84368 0.0
C2847 C 0.99162 0.61802 0.82252 0.0
C2848 C 0.01543 0.64533 0.81609 0.0
C2849 C 0.04647 0.64185 0.81232 0.0
C2850 C 0.05459 0.61272 0.81509 0.0
C2851 C 0.03119 0.58688 0.82159 0.0
C2852 C 1.00012 0.58904 0.82521 0.0
C2853 C 0.98116 0.5595 0.83251 0.0
C2854 C 0.9835 0.58004 0.84123 0.0
C2855 C 0.93858 0.52913 0.83022 0.0
C2856 C 0.00704 0.54118 0.83259 0.0
C2857 C 0.03558 0.55709 0.82621 0.0
C2858 C 0.06467 0.54681 0.82548 0.0
C2859 C 0.06491 0.52006 0.83154 0.0
C2860 C 0.03626 0.50398 0.83822 0.0
C2861 C 0.00658 0.5142 0.83858 0.0
H2862 H 0.47733 0.45511 0.84245 0.0
H2863 H 0.47369 0.54794 0.82794 0.0
H2864 H 0.42584 0.49869 0.8177 0.0
H2865 H 0.46553 0.3913 0.82379 0.0
H2866 H 0.43458 0.34724 0.82987 0.0
H2867 H 0.47171 0.39009 0.83543 0.0
H2868 H 0.41894 0.3882 0.84586 0.0
H2869 H 0.38169 0.34548 0.84033 0.0
H2870 H 0.37679 0.38841 0.84134 0.0
H2871 H 0.37534 0.43906 0.80968 0.0
H2872 H 0.32447 0.37376 0.8047 0.0
H2873 H 0.35931 0.3196 0.82481 0.0
C2874 C 0.46718 0.46526 0.83701 0.0
C2875 C 0.47958 0.50547 0.83593 0.0
C2876 C 0.46482 0.51735 0.82885 0.0
C2877 C 0.4377 0.48959 0.823 0.0
C2878 C 0.42563 0.45012 0.82434 0.0
C2879 C 0.43989 0.43797 0.83117 0.0
C2880 C 0.42002 0.39366 0.83159 0.0
C2881 C 0.44974 0.37976 0.83008 0.0
C2882 C 0.39806 0.37804 0.84029 0.0
C2883 C 0.39183 0.38266 0.82399 0.0
C2884 C 0.39586 0.41568 0.81985 0.0
C2885 C 0.37205 0.41304 0.81286 0.0
C2886 C 0.34301 0.37575 0.81012 0.0
C2887 C 0.33765 0.34144 0.81439 0.0
C2888 C 0.36294 0.34513 0.82133 0.0
H2889 H 0.7069 0.8546 0.99342 0.0
H2890 H 0.58036 0.80174 0.99396 0.0
H2891 H 0.58696 0.85738 0.00277 0.0
H2892 H 0.72501 0.89632 0.01575 0.0
H2893 H 0.76953 0.93957 0.01243 0.0
H2894 H 0.75414 0.89363 0.00698 0.0
H2895 H 0.75695 0.92658 0.99213 0.0
H2896 H 0.77158 0.97239 0.99754 0.0
H2897 H 0.72872 0.95073 0.99065 0.0
H2898 H 0.60823 0.92281 0.01008 0.0
H2899 H 0.64195 0.98874 0.0168 0.0
H2900 H 0.75436 0.99769 0.01162 0.0
C2901 C 0.68054 0.85419 0.99561 0.0
C2902 C 0.64313 0.82371 0.9931 0.0
C2903 C 0.60929 0.82443 0.99596 0.0
C2904 C 0.61279 0.85609 0.0009 0.0
C2905 C 0.65028 0.88639 0.00301 0.0
C2906 C 0.68352 0.88526 0.00059 0.0
C2907 C 0.72044 0.92202 0.00339 0.0
C2908 C 0.74364 0.9123 0.01004 0.0
C2909 C 0.7459 0.94423 0.99545 0.0
C2910 C 0.7029 0.94444 0.00762 0.0
C2911 C 0.66241 0.92355 0.0073 0.0
C2912 C 0.6399 0.93918 0.01046 0.0
C2913 C 0.6593 0.97679 0.01417 0.0
C2914 C 0.70075 0.99826 0.01474 0.0
C2915 C 0.72265 0.98177 0.01137 0.0
H2916 H 0.03886 0.64818 0.00619 0.0
H2917 H 0.99197 0.72086 0.01524 0.0
H2918 H 0.0556 0.78 0.01222 0.0
H2919 H 0.1413 0.7124 0.01408 0.0
H2920 H 0.16197 0.70246 0.00458 0.0
H2921 H 0.11473 0.66571 0.00864 0.0
H2922 H 0.08426 0.66164 0.99342 0.0
H2923 H 0.13128 0.69827 0.98934 0.0
H2924 H 0.08978 0.70562 0.98844 0.0
H2925 H 0.11998 0.83098 0.00594 0.0
H2926 H 0.18043 0.86934 0.99723 0.0
H2927 H 0.1874 0.76451 0.99284 0.0
C2928 C 0.0421 0.67649 0.00767 0.0
C2929 C 0.0102 0.67968 0.01098 0.0
C2930 C 0.01591 0.71742 0.01284 0.0
C2931 C 0.05203 0.75127 0.01112 0.0
C2932 C 0.08249 0.74705 0.00766 0.0
C2933 C 0.07803 0.71055 0.00603 0.0
C2934 C 0.11429 0.71404 0.00167 0.0
C2935 C 0.13425 0.69769 0.0076 0.0
C2936 C 0.10428 0.6937 0.99269 0.0
C2937 C 0.13922 0.75819 0.00077 0.0
C2938 C 0.12047 0.77672 0.00433 0.0
C2939 C 0.13551 0.81696 0.00338 0.0
C2940 C 0.16992 0.83858 0.99847 0.0
C2941 C 0.18926 0.82011 0.99469 0.0
C2942 C 0.17421 0.77961 0.99604 0.0
H2943 H 0.18597 0.29092 0.98958 0.0
H2944 H 0.18562 0.38239 0.00529 0.0
H2945 H 0.23143 0.37819 0.0157 0.0
H2946 H 0.19556 0.23387 0.00774 0.0
H2947 H 0.228 0.22318 0.00154 0.0
H2948 H 0.19116 0.22959 0.99601 0.0
H2949 H 0.2449 0.28358 0.9863 0.0
H2950 H 0.28191 0.27761 0.99182 0.0
H2951 H 0.28581 0.32515 0.9914 0.0
H2952 H 0.28178 0.36847 0.02358 0.0
H2953 H 0.33305 0.35426 0.02841 0.0
H2954 H 0.3024 0.27036 0.00734 0.0
C2955 C 0.19459 0.30931 0.99534 0.0
C2956 C 0.18178 0.33669 0.99668 0.0
C2957 C 0.19472 0.36097 0.00417 0.0
C2958 C 0.22074 0.35876 0.01012 0.0
C2959 C 0.23358 0.33217 0.00847 0.0
C2960 C 0.22083 0.30774 0.00128 0.0
C2961 C 0.24159 0.28414 0.00061 0.0
C2962 C 0.21233 0.24008 0.00153 0.0
C2963 C 0.26494 0.29318 0.99203 0.0
C2964 C 0.26862 0.29964 0.00845 0.0
C2965 C 0.26323 0.32705 0.01293 0.0
C2966 C 0.28604 0.34686 0.02015 0.0
C2967 C 0.31535 0.3388 0.0228 0.0
C2968 C 0.32195 0.3113 0.01824 0.0
C2969 C 0.29775 0.29109 0.01104 0.0
H2970 H 0.0446 0.39557 0.50563 0.0
H2971 H 0.01112 0.29384 0.52191 0.0
H2972 H 0.07956 0.30713 0.52164 0.0
H2973 H 0.09801 0.3788 0.49188 0.0
H2974 H 0.1371 0.42788 0.48992 0.0
H2975 H 0.08986 0.41969 0.49323 0.0
H2976 H 0.11779 0.46399 0.50688 0.0
H2977 H 0.16596 0.47624 0.50308 0.0
H2978 H 0.15068 0.45788 0.51402 0.0
H2979 H 0.14508 0.32078 0.51629 0.0
H2980 H 0.20158 0.33485 0.50684 0.0
H2981 H 0.19542 0.43115 0.49497 0.0
C2982 C 0.05212 0.37701 0.5094 0.0
C2983 C 0.0228 0.34378 0.51381 0.0
C2984 C 0.03335 0.31974 0.51859 0.0
C2985 C 0.07216 0.32716 0.51848 0.0
C2986 C 0.10018 0.35933 0.51373 0.0
C2987 C 0.09072 0.38437 0.50943 0.0
C2988 C 0.12423 0.41331 0.50377 0.0
C2989 C 0.11146 0.40967 0.49414 0.0
C2990 C 0.14066 0.45536 0.50714 0.0
C2991 C 0.15331 0.39931 0.5051 0.0
C2992 C 0.13916 0.36842 0.51097 0.0
C2993 C 0.15733 0.346 0.512 0.0
C2994 C 0.18952 0.35426 0.50665 0.0
C2995 C 0.20357 0.38504 0.50048 0.0
C2996 C 0.1864 0.40889 0.49999 0.0
H2997 H 0.67432 0.81076 0.48299 0.0
H2998 H 0.57625 0.80826 0.49653 0.0
H2999 H 0.57817 0.76319 0.50755 0.0
H3000 H 0.64257 0.71038 0.48564 0.0
H3001 H 0.69109 0.71731 0.48703 0.0
H3002 H 0.68415 0.75187 0.4807 0.0
H3003 H 0.73393 0.80849 0.49052 0.0
H3004 H 0.74107 0.77408 0.49689 0.0
H3005 H 0.72649 0.80565 0.50218 0.0
H3006 H 0.58947 0.71662 0.51673 0.0
H3007 H 0.60719 0.67025 0.52312 0.0
H3008 H 0.69617 0.70113 0.50313 0.0
C3009 C 0.65361 0.80131 0.48835 0.0
C3010 C 0.62534 0.81336 0.48896 0.0
C3011 C 0.5983 0.79962 0.49597 0.0
C3012 C 0.59923 0.77408 0.50226 0.0
C3013 C 0.62727 0.7625 0.5014 0.0
C3014 C 0.6539 0.77561 0.49461 0.0
C3015 C 0.67954 0.75701 0.49486 0.0
C3016 C 0.67399 0.7327 0.48657 0.0
C3017 C 0.72282 0.78817 0.4962 0.0
C3018 C 0.66299 0.73106 0.50283 0.0
C3019 C 0.6331 0.73492 0.50655 0.0
C3020 C 0.61279 0.71335 0.51386 0.0
C3021 C 0.62293 0.6868 0.51741 0.0
C3022 C 0.65292 0.68162 0.5136 0.0
C3023 C 0.67345 0.70457 0.50627 0.0
H3024 H 0.21766 0.81875 0.49284 0.0
H3025 H 0.11679 0.82305 0.50262 0.0
H3026 H 0.1605 0.88175 0.51136 0.0
H3027 H 0.28312 0.86068 0.51253 0.0
H3028 H 0.32564 0.8887 0.50575 0.0
H3029 H 0.28635 0.84228 0.50196 0.0
H3030 H 0.28063 0.87587 0.48797 0.0
H3031 H 0.31941 0.92243 0.49173 0.0
H3032 H 0.27241 0.91681 0.48893 0.0
H3033 H 0.21502 0.94437 0.51739 0.0
H3034 H 0.27584 0.00611 0.52039 0.0
H3035 H 0.34168 0.96425 0.50555 0.0
C3036 C 0.2048 0.83091 0.49718 0.0
C3037 C 0.16386 0.81568 0.49735 0.0
C3038 C 0.14803 0.83368 0.50266 0.0
C3039 C 0.17266 0.8671 0.50759 0.0
C3040 C 0.21309 0.88249 0.507 0.0
C3041 C 0.22911 0.8649 0.50195 0.0
C3042 C 0.27339 0.89018 0.50146 0.0
C3043 C 0.2933 0.86921 0.50568 0.0
C3044 C 0.28724 0.90202 0.49196 0.0
C3045 C 0.27967 0.92514 0.50686 0.0
C3046 C 0.2446 0.91981 0.5101 0.0
C3047 C 0.24272 0.94873 0.51495 0.0
C3048 C 0.27754 0.98403 0.51654 0.0
C3049 C 0.31394 0.99053 0.51321 0.0
C3050 C 0.31471 0.96032 0.50834 0.0
H3051 H 0.06123 0.39182 0.32426 0.0
H3052 H 0.94254 0.34016 0.31421 0.0
H3053 H 0.94075 0.39958 0.31838 0.0
H3054 H 0.04794 0.43761 0.34263 0.0
H3055 H 0.09565 0.48088 0.34202 0.0
H3056 H 0.08845 0.43516 0.33781 0.0
H3057 H 0.11549 0.46801 0.32279 0.0
H3058 H 0.12256 0.51382 0.32699 0.0
H3059 H 0.09345 0.49272 0.31731 0.0
H3060 H 0.94951 0.46184 0.32476 0.0
H3061 H 0.96778 0.52167 0.33336 0.0
H3062 H 0.08229 0.53543 0.33829 0.0
C3063 C 0.03506 0.39314 0.32279 0.0
C3064 C 1.002 0.36103 0.31889 0.0
C3065 C 0.96807 0.36391 0.31728 0.0
C3066 C 0.96692 0.39781 0.31954 0.0
C3067 C 1.00004 0.42886 0.32334 0.0
C3068 C 0.0335 0.42687 0.32496 0.0
C3069 C 0.06436 0.46357 0.32953 0.0
C3070 C 0.07466 0.45367 0.33853 0.0
C3071 C 0.10114 0.48585 0.32381 0.0
C3072 C 0.04266 0.48613 0.33039 0.0
C3073 C 0.00566 0.46564 0.32673 0.0
C3074 C 0.9787 0.47861 0.32747 0.0
C3075 C 0.98935 0.51268 0.33231 0.0
C3076 C 0.02676 0.53366 0.33624 0.0
C3077 C 0.0541 0.52081 0.33505 0.0
H3078 H 0.50192 0.54598 0.35042 0.0
H3079 H 0.44701 0.47749 0.32723 0.0
H3080 H 0.50339 0.52606 0.31828 0.0
H3081 H 0.54431 0.64315 0.3399 0.0
H3082 H 0.58687 0.66248 0.34684 0.0
H3083 H 0.54036 0.62388 0.35078 0.0
H3084 H 0.57348 0.5824 0.35424 0.0
H3085 H 0.61944 0.62053 0.35001 0.0
H3086 H 0.5978 0.5717 0.34559 0.0
H3087 H 0.57037 0.58038 0.31231 0.0
H3088 H 0.63729 0.63659 0.30976 0.0
H3089 H 0.64522 0.66766 0.33715 0.0
C3090 C 0.50157 0.54147 0.34343 0.0
C3091 C 0.47057 0.50812 0.33947 0.0
C3092 C 0.47067 0.50311 0.33033 0.0
C3093 C 0.50255 0.53045 0.32524 0.0
C3094 C 0.53339 0.56272 0.32941 0.0
C3095 C 0.53259 0.56851 0.3383 0.0
C3096 C 0.56926 0.60463 0.34138 0.0
C3097 C 0.5596 0.63534 0.34494 0.0
C3098 C 0.59128 0.59416 0.34821 0.0
C3099 C 0.59166 0.61792 0.33289 0.0
C3100 C 0.57071 0.59367 0.32602 0.0
C3101 C 0.58671 0.59974 0.31763 0.0
C3102 C 0.62482 0.63152 0.31625 0.0
C3103 C 0.64643 0.65685 0.32322 0.0
C3104 C 0.62933 0.64959 0.33162 0.0
H3105 H 0.32191 0.94415 0.32302 0.0
H3106 H 0.38976 0.05463 0.30929 0.0
H3107 H 0.45034 0.05366 0.31271 0.0
H3108 H 0.38854 0.9646 0.34007 0.0
H3109 H 0.38179 0.91609 0.34094 0.0
H3110 H 0.34237 0.92263 0.33702 0.0
H3111 H 0.33755 0.8855 0.32278 0.0
H3112 H 0.37594 0.87711 0.32668 0.0
H3113 H 0.38081 0.90039 0.31624 0.0
H3114 H 0.50403 0.04321 0.31852 0.0
H3115 H 0.54669 0.02428 0.32648 0.0
H3116 H 0.4442 0.91875 0.33568 0.0
C3117 C 0.34933 0.96786 0.32059 0.0
C3118 C 0.35072 0.9995 0.31587 0.0
C3119 C 0.38762 0.03029 0.31301 0.0
C3120 C 0.4223 0.02981 0.31484 0.0
C3121 C 0.41975 0.99819 0.31949 0.0
C3122 C 0.38421 0.96771 0.3223 0.0
C3123 C 0.38972 0.93813 0.32755 0.0
C3124 C 0.37468 0.9352 0.33695 0.0
C3125 C 0.36982 0.8979 0.32304 0.0
C3126 C 0.43398 0.95691 0.32731 0.0
C3127 C 0.45072 0.99155 0.32261 0.0
C3128 C 0.49124 0.01579 0.32206 0.0
C3129 C 0.51524 0.00479 0.32658 0.0
C3130 C 0.49871 0.96964 0.33148 0.0
C3131 C 0.45758 0.94504 0.3317 0.0
H3132 H 0.04056 0.24858 0.26821 0.0
H3133 H 0.95549 0.28839 0.26835 0.0
H3134 H 0.97079 0.30796 0.25298 0.0
H3135 H 0.11039 0.31954 0.25306 0.0
H3136 H 0.11928 0.2842 0.2476 0.0
H3137 H 0.10551 0.27773 0.25897 0.0
H3138 H 0.04689 0.20869 0.25563 0.0
H3139 H 0.06062 0.21483 0.24427 0.0
H3140 H 0.01184 0.20329 0.24738 0.0
H3141 H 0.99387 0.32167 0.23733 0.0
H3142 H 0.01763 0.32151 0.22235 0.0
H3143 H 0.08134 0.26591 0.23202 0.0
C3144 C 0.02477 0.26117 0.26508 0.0
C3145 C 0.99706 0.26725 0.2697 0.0
C3146 C 0.97778 0.28438 0.26519 0.0
C3147 C 0.98604 0.29541 0.25638 0.0
C3148 C 0.01321 0.28865 0.25206 0.0
C3149 C 0.03186 0.27141 0.25623 0.0
C3150 C 0.05723 0.26414 0.24993 0.0
C3151 C 0.10068 0.28782 0.25255 0.0
C3152 C 0.0433 0.22013 0.24926 0.0
C3153 C 0.04956 0.27959 0.24154 0.0
C3154 C 0.02474 0.29438 0.24294 0.0
C3155 C 0.01333 0.31019 0.23616 0.0
C3156 C 0.02705 0.31015 0.22769 0.0
C3157 C 0.05123 0.29375 0.22609 0.0
C3158 C 0.06288 0.27865 0.23311 0.0
H3159 H 0.75568 0.81988 0.23598 0.0
H3160 H 0.72323 0.70535 0.22557 0.0
H3161 H 0.72348 0.68148 0.24055 0.0
H3162 H 0.82035 0.82349 0.25242 0.0
H3163 H 0.80564 0.84721 0.26041 0.0
H3164 H 0.80152 0.85467 0.24895 0.0
H3165 H 0.72761 0.83098 0.25092 0.0
H3166 H 0.73156 0.82366 0.26241 0.0
H3167 H 0.69601 0.78382 0.25582 0.0
H3168 H 0.73322 0.67241 0.2565 0.0
H3169 H 0.74647 0.67663 0.27227 0.0
H3170 H 0.76632 0.79559 0.27242 0.0
C3171 C 0.74842 0.78972 0.23689 0.0
C3172 C 0.73961 0.76438 0.22967 0.0
C3173 C 0.7299 0.72504 0.23106 0.0
C3174 C 0.73008 0.71134 0.23952 0.0
C3175 C 0.73936 0.73723 0.2465 0.0
C3176 C 0.74777 0.77543 0.24529 0.0
C3177 C 0.75668 0.79728 0.25388 0.0
C3178 C 0.79853 0.83275 0.25391 0.0
C3179 C 0.72614 0.80965 0.25587 0.0
C3180 C 0.75289 0.7657 0.2601 0.0
C3181 C 0.74304 0.73136 0.25573 0.0
C3182 C 0.74011 0.69888 0.26003 0.0
C3183 C 0.7474 0.70153 0.26905 0.0
C3184 C 0.75702 0.73631 0.27374 0.0
C3185 C 0.75939 0.76859 0.26912 0.0
H3186 H 0.2541 0.00888 0.22638 0.0
H3187 H 0.16805 0.88515 0.22486 0.0
H3188 H 0.16349 0.88173 0.241 0.0
H3189 H 0.30431 1.00138 0.24542 0.0
H3190 H 0.31366 0.04748 0.24994 0.0
H3191 H 0.30973 0.04023 0.23829 0.0
H3192 H 0.25496 0.05845 0.23778 0.0
H3193 H 0.25882 0.06588 0.24942 0.0
H3194 H 0.2122 0.03214 0.24459 0.0
H3195 H 0.16617 0.89267 0.25723 0.0
H3196 H 0.17877 0.91657 0.27252 0.0
H3197 H 0.26579 0.03204 0.26343 0.0
C3198 C 0.23426 0.98117 0.22947 0.0
C3199 C 0.21131 0.94729 0.22444 0.0
C3200 C 0.18596 0.91135 0.22865 0.0
C3201 C 0.18313 0.90917 0.23779 0.0
C3202 C 0.20622 0.9431 0.24258 0.0
C3203 C 0.23155 0.97835 0.23858 0.0
C3204 C 0.25361 0.0103 0.24524 0.0
C3205 C 0.29796 0.02574 0.24469 0.0
C3206 C 0.24432 0.04365 0.24419 0.0
C3207 C 0.23645 0.98763 0.25361 0.0
C3208 C 0.20897 0.94897 0.25194 0.0
C3209 C 0.18794 0.92276 0.25863 0.0
C3210 C 0.19519 0.9365 0.26726 0.0
C3211 C 0.22355 0.97586 0.26909 0.0
C3212 C 0.24452 1.00159 0.26218 0.0
H3213 H 0.9987 0.73449 0.76744 0.0
H3214 H 0.99269 0.83904 0.77361 0.0
H3215 H 0.0044 0.85871 0.75816 0.0
H3216 H 0.07291 0.77658 0.75087 0.0
H3217 H 0.05048 0.73396 0.74393 0.0
H3218 H 0.04325 0.72859 0.75559 0.0
H3219 H 0.96797 0.69204 0.75334 0.0
H3220 H 0.97496 0.69721 0.74168 0.0
H3221 H 0.94619 0.71499 0.74706 0.0
H3222 H 0.01734 0.86764 0.74214 0.0
H3223 H 0.02834 0.86413 0.72643 0.0
H3224 H 0.02006 0.75094 0.73035 0.0
C3225 C 0.99958 0.76141 0.76556 0.0
C3226 C 0.99527 0.7854 0.77183 0.0
C3227 C 0.99697 0.82057 0.76903 0.0
C3228 C 0.00326 0.8319 0.76024 0.0
C3229 C 0.00736 0.80758 0.75427 0.0
C3230 C 0.00534 0.77295 0.75678 0.0
C3231 C 0.00964 0.75168 0.74899 0.0
C3232 C 0.04625 0.74747 0.7499 0.0
C3233 C 0.97247 0.71161 0.74769 0.0
C3234 C 0.01452 0.77989 0.74172 0.0
C3235 C 0.01331 0.81201 0.74493 0.0
C3236 C 0.01789 0.84241 0.73952 0.0
C3237 C 0.02376 0.83992 0.73057 0.0
C3238 C 0.02458 0.807 0.72707 0.0
C3239 C 0.01988 0.77665 0.73278 0.0
H3240 H 0.26038 0.20949 0.7649 0.0
H3241 H 0.14554 0.18461 0.77398 0.0
H3242 H 0.12748 0.19061 0.75893 0.0
H3243 H 0.27235 0.28419 0.74945 0.0
H3244 H 0.29778 0.27108 0.74155 0.0
H3245 H 0.3013 0.26298 0.75302 0.0
H3246 H 0.27671 0.18964 0.74995 0.0
H3247 H 0.273 0.19748 0.73848 0.0
H3248 H 0.23085 0.16067 0.74431 0.0
H3249 H 0.121 0.1978 0.74289 0.0
H3250 H 0.12833 0.21016 0.72697 0.0
H3251 H 0.24894 0.23618 0.72842 0.0
C3252 C 0.23155 0.2057 0.76379 0.0
C3253 C 0.2043 0.19602 0.77071 0.0
C3254 C 0.16672 0.19091 0.76883 0.0
C3255 C 0.15622 0.19462 0.76029 0.0
C3256 C 0.18374 0.20405 0.75367 0.0
C3257 C 0.22077 0.20997 0.75532 0.0
C3258 C 0.24521 0.22105 0.74704 0.0
C3259 C 0.28129 0.26228 0.74782 0.0
C3260 C 0.25713 0.19037 0.74482 0.0
C3261 C 0.21602 0.22028 0.74048 0.0
C3262 C 0.18061 0.21001 0.74445 0.0
C3263 C 0.14864 0.20612 0.73972 0.0
C3264 C 0.15301 0.21305 0.7307 0.0
C3265 C 0.18918 0.22418 0.72653 0.0
C3266 C 0.22112 0.22801 0.7315 0.0
H3267 H 0.75693 0.03131 0.76662 0.0
H3268 H 0.76385 0.93167 0.77656 0.0
H3269 H 0.75337 0.90435 0.76169 0.0
H3270 H 0.68016 0.97553 0.75011 0.0
H3271 H 0.70133 0.01503 0.74229 0.0
H3272 H 0.70677 0.02561 0.75383 0.0
H3273 H 0.7822 0.06553 0.75194 0.0
H3274 H 0.77704 0.05488 0.74043 0.0
H3275 H 0.80725 0.04256 0.74703 0.0
H3276 H 0.74868 0.89097 0.74572 0.0
H3277 H 0.74594 0.89043 0.72956 0.0
H3278 H 0.73816 0.99629 0.72991 0.0
C3279 C 0.75531 0.00329 0.76571 0.0
C3280 C 0.76147 0.98377 0.77277 0.0
C3281 C 0.75985 0.9475 0.77124 0.0
C3282 C 0.75363 0.93158 0.76283 0.0
C3283 C 0.74856 0.95197 0.756 0.0
C3284 C 0.74883 0.98678 0.75734 0.0
C3285 C 0.74401 0.00341 0.74879 0.0
C3286 C 0.70579 0.00497 0.74876 0.0
C3287 C 0.77976 0.04399 0.74694 0.0
C3288 C 0.74192 0.97296 0.74243 0.0
C3289 C 0.74459 0.94353 0.74675 0.0
C3290 C 0.74589 0.91343 0.74227 0.0
C3291 C 0.74447 0.91341 0.73313 0.0
C3292 C 0.74145 0.94306 0.72859 0.0
C3293 C 0.7398 0.97299 0.73329 0.0
H3294 H 0.61863 0.53699 0.59961 0.0
H3295 H 0.72933 0.62587 0.61047 0.0
H3296 H 0.75527 0.64791 0.59553 0.0
H3297 H 0.66034 0.51097 0.582 0.0
H3298 H 0.62212 0.50236 0.57433 0.0
H3299 H 0.61147 0.49554 0.58585 0.0
H3300 H 0.58528 0.54416 0.58522 0.0
H3301 H 0.59583 0.55111 0.57369 0.0
H3302 H 0.61618 0.59277 0.58092 0.0
H3303 H 0.769 0.65984 0.57944 0.0
H3304 H 0.77137 0.65782 0.5633 0.0
H3305 H 0.65278 0.55895 0.56298 0.0
C3306 C 0.64815 0.56139 0.59881 0.0
C3307 C 0.672 0.58007 0.60613 0.0
C3308 C 0.71074 0.61133 0.6049 0.0
C3309 C 0.72559 0.62408 0.59646 0.0
C3310 C 0.70139 0.60493 0.58936 0.0
C3311 C 0.66362 0.57404 0.59044 0.0
C3312 C 0.64449 0.55701 0.58173 0.0
C3313 C 0.634 0.51392 0.58094 0.0
C3314 C 0.6083 0.56155 0.58031 0.0
C3315 C 0.67744 0.58305 0.57557 0.0
C3316 C 0.70983 0.61082 0.5801 0.0
C3317 C 0.74383 0.63824 0.57582 0.0
C3318 C 0.74486 0.63699 0.56667 0.0
C3319 C 0.71229 0.60823 0.56193 0.0
C3320 C 0.67816 0.58107 0.56646 0.0
H3321 H 0.4331 0.10765 0.60194 0.0
H3322 H 0.49678 0.0443 0.60119 0.0
H3323 H 0.49488 0.04424 0.58502 0.0
H3324 H 0.36869 0.0561 0.58383 0.0
H3325 H 0.36813 0.09873 0.57974 0.0
H3326 H 0.3752 0.09446 0.59123 0.0
H3327 H 0.43996 0.16116 0.59084 0.0
H3328 H 0.43305 0.16567 0.57935 0.0
H3329 H 0.47769 0.16842 0.58314 0.0
H3330 H 0.48877 0.05392 0.56899 0.0
H3331 H 0.47481 0.06877 0.55412 0.0
H3332 H 0.41113 0.12162 0.56529 0.0
C3333 C 0.44669 0.0939 0.59834 0.0
C3334 C 0.46523 0.0761 0.60275 0.0
C3335 C 0.48234 0.05794 0.59788 0.0
C3336 C 0.48148 0.05787 0.58873 0.0
C3337 C 0.4629 0.0756 0.58456 0.0
C3338 C 0.44545 0.09293 0.5892 0.0
C3339 C 0.42658 0.10909 0.58312 0.0
C3340 C 0.382 0.08834 0.58457 0.0
C3341 C 0.44546 0.15373 0.58418 0.0
C3342 C 0.4365 0.09851 0.57435 0.0
C3343 C 0.45776 0.0795 0.57532 0.0
C3344 C 0.47176 0.06837 0.56814 0.0
C3345 C 0.46378 0.0769 0.55975 0.0
C3346 C 0.44156 0.09578 0.55863 0.0
C3347 C 0.42761 0.10652 0.56602 0.0
H3348 H 0.89796 0.32873 0.59896 0.0
H3349 H 0.97084 0.45534 0.59896 0.0
H3350 H 0.97146 0.45546 0.58282 0.0
H3351 H 0.94528 0.31191 0.58054 0.0
H3352 H 0.90048 0.27194 0.57625 0.0
H3353 H 0.90544 0.28172 0.58782 0.0
H3354 H 0.84261 0.2873 0.58766 0.0
H3355 H 0.83741 0.27745 0.5761 0.0
H3356 H 0.83946 0.32123 0.58026 0.0
H3357 H 0.96216 0.44223 0.56677 0.0
H3358 H 0.94603 0.41596 0.55172 0.0
H3359 H 0.88164 0.29779 0.56207 0.0
C3360 C 0.91393 0.35641 0.59554 0.0
C3361 C 0.93441 0.39203 0.60018 0.0
C3362 C 0.95529 0.42772 0.59551 0.0
C3363 C 0.95569 0.42809 0.58636 0.0
C3364 C 0.93534 0.39249 0.58197 0.0
C3365 C 0.91507 0.35727 0.58639 0.0
C3366 C 0.8961 0.32315 0.58008 0.0
C3367 C 0.91284 0.29556 0.58124 0.0
C3368 C 0.85123 0.30099 0.58109 0.0
C3369 C 0.90861 0.34476 0.57144 0.0
C3370 C 0.93103 0.38475 0.57268 0.0
C3371 C 0.94489 0.41095 0.5657 0.0
C3372 C 0.93554 0.39584 0.5572 0.0
C3373 C 0.91294 0.35495 0.55577 0.0
C3374 C 0.89951 0.32915 0.56299 0.0
H3375 H 0.63575 0.11124 0.06614 0.0
H3376 H 0.61291 0.9952 0.05912 0.0
H3377 H 0.58277 0.97037 0.07367 0.0
H3378 H 0.66654 0.1094 0.08718 0.0
H3379 H 0.64617 0.13722 0.09191 0.0
H3380 H 0.66002 0.14365 0.08058 0.0
H3381 H 0.58971 0.12714 0.07623 0.0
H3382 H 0.57563 0.12057 0.08758 0.0
H3383 H 0.54829 0.08177 0.07986 0.0
H3384 H 0.55947 0.96008 0.08962 0.0
H3385 H 0.54887 0.96618 0.10535 0.0
H3386 H 0.5929 0.09065 0.10156 0.0
C3387 C 0.62327 0.08033 0.06756 0.0
C3388 C 0.62593 0.05493 0.06149 0.0
C3389 C 0.61074 0.01499 0.0637 0.0
C3390 C 0.59348 1.00066 0.07191 0.0
C3391 C 0.59194 0.02677 0.07783 0.0
C3392 C 0.6066 0.06581 0.07573 0.0
C3393 C 0.60548 0.08899 0.08345 0.0
C3394 C 0.647 0.12171 0.08592 0.0
C3395 C 0.57814 0.10558 0.08167 0.0
C3396 C 0.58854 0.05714 0.09029 0.0
C3397 C 0.5802 0.02126 0.08696 0.0
C3398 C 0.56568 0.98805 0.09227 0.0
C3399 C 0.56001 0.99187 0.10123 0.0
C3400 C 0.56944 0.02878 0.1048 0.0
C3401 C 0.58372 0.06154 0.09914 0.0
H3402 H 0.86639 0.57695 0.06333 0.0
H3403 H 0.96356 0.56872 0.05224 0.0
H3404 H 0.98406 0.56187 0.06704 0.0
H3405 H 0.91982 0.63479 0.08222 0.0
H3406 H 0.8781 0.61088 0.08941 0.0
H3407 H 0.87093 0.61506 0.07792 0.0
H3408 H 0.82555 0.53979 0.07698 0.0
H3409 H 0.83272 0.53536 0.08846 0.0
H3410 H 0.84352 0.50805 0.08058 0.0
H3411 H 0.99376 0.55521 0.08301 0.0
H3412 H 0.99234 0.54979 0.09908 0.0
H3413 H 0.89034 0.56469 0.09989 0.0
C3414 C 0.89225 0.57416 0.06399 0.0
C3415 C 0.91317 0.57315 0.05656 0.0
C3416 C 0.94654 0.56887 0.05778 0.0
C3417 C 0.95863 0.56524 0.06618 0.0
C3418 C 0.93722 0.56614 0.07333 0.0
C3419 C 0.90485 0.57065 0.07234 0.0
C3420 C 0.88704 0.57071 0.08112 0.0
C3421 C 0.88911 0.61021 0.08276 0.0
C3422 C 0.8447 0.53643 0.08182 0.0
C3423 C 0.91424 0.5651 0.0872 0.0
C3424 C 0.94305 0.56267 0.08256 0.0
C3425 C 0.9715 0.55734 0.08672 0.0
C3426 C 0.97057 0.55453 0.09586 0.0
C3427 C 0.9414 0.55706 0.10078 0.0
C3428 C 0.91285 0.56234 0.09634 0.0
H3429 H 0.4469 0.33412 0.06433 0.0
H3430 H 0.36989 0.20918 0.06786 0.0
H3431 H 0.36993 0.21892 0.08384 0.0
H3432 H 0.50524 0.35097 0.0834 0.0
H3433 H 0.50945 0.39764 0.08587 0.0
H3434 H 0.5029 0.38078 0.07474 0.0
H3435 H 0.44159 0.38865 0.07338 0.0
H3436 H 0.44793 0.40551 0.08452 0.0
H3437 H 0.40204 0.36423 0.0811 0.0
H3438 H 0.38187 0.24189 0.09945 0.0
H3439 H 0.40139 0.27714 0.11359 0.0
H3440 H 0.46723 0.38748 0.09982 0.0
C3441 C 0.43006 0.30889 0.06849 0.0
C3442 C 0.40847 0.27089 0.06492 0.0
C3443 C 0.38642 0.23853 0.07051 0.0
C3444 C 0.38638 0.24378 0.07957 0.0
C3445 C 0.40808 0.28164 0.0829 0.0
C3446 C 0.42918 0.3137 0.07753 0.0
C3447 C 0.44975 0.3513 0.08276 0.0
C3448 C 0.49448 0.37134 0.08162 0.0
C3449 C 0.4344 0.37905 0.08029 0.0
C3450 C 0.4374 0.33533 0.09192 0.0
C3451 C 0.41356 0.29505 0.09187 0.0
C3452 C 0.40008 0.27347 0.09957 0.0
C3453 C 0.41131 0.29362 0.10755 0.0
C3454 C 0.43529 0.33488 0.10773 0.0
C3455 C 0.44825 0.35597 0.09982 0.0
H3456 H 0.26948 0.85087 0.93116 0.0
H3457 H 0.3868 0.90959 0.94203 0.0
H3458 H 0.41438 0.93327 0.92729 0.0
H3459 H 0.29505 0.81828 0.91149 0.0
H3460 H 0.26131 0.82468 0.90468 0.0
H3461 H 0.25086 0.8137 0.91612 0.0
H3462 H 0.24463 0.87573 0.91799 0.0
H3463 H 0.25533 0.88704 0.90656 0.0
H3464 H 0.28469 0.92275 0.91471 0.0
H3465 H 0.42897 0.95185 0.91148 0.0
H3466 H 0.43034 0.95823 0.89539 0.0
H3467 H 0.30384 0.88447 0.89461 0.0
C3468 C 0.30095 0.86878 0.9304 0.0
C3469 C 0.32613 0.8786 0.93769 0.0
C3470 C 0.36715 0.90167 0.93649 0.0
C3471 C 0.383 0.91541 0.92817 0.0
C3472 C 0.35742 0.90541 0.92111 0.0
C3473 C 0.31731 0.88216 0.92211 0.0
C3474 C 0.2965 0.87418 0.91338 0.0
C3475 C 0.27465 0.83009 0.9113 0.0
C3476 C 0.26865 0.89093 0.91315 0.0
C3477 C 0.33116 0.89665 0.90732 0.0
C3478 C 0.36597 0.91489 0.91193 0.0
C3479 C 0.40192 0.93766 0.90779 0.0
C3480 C 0.40239 0.94135 0.89867 0.0
C3481 C 0.36721 0.92199 0.89379 0.0
C3482 C 0.33116 0.89955 0.8982 0.0
H3483 H 0.12665 0.42866 0.89788 0.0
H3484 H 0.01487 0.42541 0.89913 0.0
H3485 H 0.01344 0.41652 0.91509 0.0
H3486 H 0.10717 0.35754 0.91499 0.0
H3487 H 0.1564 0.38362 0.91924 0.0
H3488 H 0.14763 0.38743 0.90782 0.0
H3489 H 0.18282 0.46304 0.90919 0.0
H3490 H 0.19168 0.45949 0.9206 0.0
H3491 H 0.16635 0.48485 0.91728 0.0
H3492 H 0.02505 0.41037 0.93091 0.0
H3493 H 0.04881 0.40707 0.9456 0.0
H3494 H 0.15446 0.41718 0.93419 0.0
C3495 C 0.10185 0.42611 0.9015 0.0
C3496 C 0.07073 0.42748 0.89722 0.0
C3497 C 0.03869 0.42367 0.90221 0.0
C3498 C 0.03772 0.41888 0.9113 0.0
C3499 C 0.06903 0.41802 0.9153 0.0
C3500 C 0.10049 0.42149 0.91058 0.0
C3501 C 0.13091 0.42078 0.91652 0.0
C3502 C 0.1358 0.38522 0.91452 0.0
C3503 C 0.17026 0.45934 0.91586 0.0
C3504 C 0.11176 0.41672 0.92533 0.0
C3505 C 0.07602 0.41503 0.92447 0.0
C3506 C 0.05302 0.41173 0.93167 0.0
C3507 C 0.06695 0.4102 0.94 0.0
C3508 C 0.10367 0.41219 0.94107 0.0
C3509 C 0.12617 0.41529 0.9336 0.0
H3510 H 0.58845 0.73382 0.92896 0.0
H3511 H 0.6145 0.64819 0.94007 0.0
H3512 H 0.61301 0.62195 0.92529 0.0
H3513 H 0.5231 0.67361 0.91224 0.0
H3514 H 0.54062 0.71192 0.90414 0.0
H3515 H 0.54393 0.72402 0.91557 0.0
H3516 H 0.61871 0.77115 0.91394 0.0
H3517 H 0.6156 0.75921 0.9025 0.0
H3518 H 0.64896 0.75299 0.90948 0.0
H3519 H 0.60382 0.60224 0.90953 0.0
H3520 H 0.59193 0.59256 0.89377 0.0
H3521 H 0.57935 0.69609 0.89258 0.0
C3522 C 0.59386 0.70958 0.92823 0.0
C3523 C 0.60138 0.69272 0.93558 0.0
C3524 C 0.60874 0.66135 0.93446 0.0
C3525 C 0.60791 0.64631 0.92612 0.0
C3526 C 0.60037 0.66351 0.91898 0.0
C3527 C 0.59397 0.69476 0.91992 0.0
C3528 C 0.58716 0.7082 0.91115 0.0
C3529 C 0.54627 0.70418 0.91076 0.0
C3530 C 0.61954 0.75039 0.90915 0.0
C3531 C 0.5899 0.67908 0.90515 0.0
C3532 C 0.59733 0.65348 0.90981 0.0
C3533 C 0.59884 0.62264 0.90578 0.0
C3534 C 0.59243 0.61768 0.89675 0.0
C3535 C 0.58521 0.64385 0.89175 0.0
C3536 C 0.58446 0.67523 0.8961 0.0
H3537 H 0.29432 0.42405 0.39655 0.0
H3538 H 0.40447 0.42345 0.39758 0.0
H3539 H 0.39522 0.40969 0.41327 0.0
H3540 H 0.31178 0.47737 0.41664 0.0
H3541 H 0.2609 0.45218 0.41983 0.0
H3542 H 0.27392 0.45809 0.40843 0.0
H3543 H 0.23206 0.38295 0.40627 0.0
H3544 H 0.2192 0.37677 0.4177 0.0
H3545 H 0.24161 0.35089 0.41294 0.0
H3546 H 0.37443 0.39553 0.42886 0.0
H3547 H 0.34757 0.39084 0.44372 0.0
H3548 H 0.2557 0.40858 0.43302 0.0
C3549 C 0.31677 0.42134 0.40002 0.0
C3550 C 0.34965 0.42389 0.39563 0.0
C3551 C 0.37808 0.42004 0.40058 0.0
C3552 C 0.37335 0.41254 0.40957 0.0
C3553 C 0.3405 0.4098 0.41362 0.0
C3554 C 0.31309 0.41485 0.40906 0.0
C3555 C 0.28205 0.4135 0.41514 0.0
C3556 C 0.28219 0.45262 0.415 0.0
C3557 C 0.24132 0.37897 0.41288 0.0
C3558 C 0.29649 0.40706 0.42382 0.0
C3559 C 0.32983 0.40423 0.42276 0.0
C3560 C 0.34841 0.39782 0.42979 0.0
C3561 C 0.33292 0.395 0.43817 0.0
C3562 C 0.29971 0.39929 0.43943 0.0
C3563 C 0.28113 0.40515 0.43217 0.0
H3564 H 0.55318 0.93204 0.39228 0.0
H3565 H 0.64519 0.9091 0.38398 0.0
H3566 H 0.66141 0.90556 0.39943 0.0
H3567 H 0.60479 0.99272 0.41108 0.0
H3568 H 0.56114 0.97337 0.41769 0.0
H3569 H 0.55771 0.97548 0.40599 0.0
H3570 H 0.50777 0.901 0.40564 0.0
H3571 H 0.5111 0.89865 0.41733 0.0
H3572 H 0.52079 0.86731 0.41046 0.0
H3573 H 0.66629 0.90258 0.41573 0.0
H3574 H 0.65879 0.89887 0.43173 0.0
H3575 H 0.56442 0.92524 0.42952 0.0
C3576 C 0.57714 0.92685 0.39371 0.0
C3577 C 0.59801 0.92096 0.38691 0.0
C3578 C 0.62859 0.91339 0.38907 0.0
C3579 C 0.63817 0.91156 0.39782 0.0
C3580 C 0.6169 0.91737 0.40435 0.0
C3581 C 0.58701 0.92484 0.40241 0.0
C3582 C 0.56789 0.92873 0.41066 0.0
C3583 C 0.57322 0.97004 0.4114 0.0
C3584 C 0.52431 0.89703 0.41104 0.0
C3585 C 0.59149 0.92196 0.41755 0.0
C3586 C 0.61975 0.91569 0.41377 0.0
C3587 C 0.64456 0.90787 0.41877 0.0
C3588 C 0.64024 0.90616 0.42788 0.0
C3589 C 0.61132 0.91226 0.43194 0.0
C3590 C 0.5868 0.92043 0.42665 0.0
H3591 H 0.11074 0.66567 0.43611 0.0
H3592 H 0.08419 0.76036 0.43614 0.0
H3593 H 0.07336 0.75289 0.42027 0.0
H3594 H 0.16632 0.69544 0.4161 0.0
H3595 H 0.1497 0.64596 0.41257 0.0
H3596 H 0.1531 0.65705 0.42406 0.0
H3597 H 0.08003 0.6043 0.42605 0.0
H3598 H 0.07637 0.59308 0.41457 0.0
H3599 H 0.04328 0.60667 0.41948 0.0
H3600 H 0.06442 0.73466 0.4044 0.0
H3601 H 0.06221 0.70947 0.38947 0.0
H3602 H 0.10044 0.63124 0.39957 0.0
C3603 C 0.10303 0.68519 0.43281 0.0
C3604 C 0.0979 0.71331 0.43748 0.0
C3605 C 0.08728 0.73779 0.43283 0.0
C3606 C 0.08139 0.73406 0.42377 0.0
C3607 C 0.08677 0.70613 0.41941 0.0
C3608 C 0.09774 0.68239 0.42375 0.0
C3609 C 0.103 0.65566 0.41748 0.0
C3610 C 0.14556 0.66405 0.41756 0.0
C3611 C 0.07393 0.61237 0.41952 0.0
C3612 C 0.09318 0.66807 0.40892 0.0
C3613 C 0.08348 0.69693 0.4102 0.0
C3614 C 0.07221 0.71227 0.40331 0.0
C3615 C 0.07094 0.69779 0.39488 0.0
C3616 C 0.08141 0.66874 0.39344 0.0
C3617 C 0.09276 0.65381 0.40054 0.0
loop_
_geom_bond_atom_site_label_1
_geom_bond_atom_site_label_2
_geom_bond_distance
_geom_bond_site_symmetry_2
_ccdc_geom_bond_type
C0 C1 1.351 . S
C0 N3 1.368 . S
C0 H5 0.931 . S
C1 C0 1.351 . S
C1 N2 1.373 . S
C1 H29 0.930 . S
N2 C1 1.373 . S
N2 C4 1.340 . S
N3 C0 1.368 . S
N3 C4 1.321 . S
N3 Co6 2.135 . S
C4 N2 1.340 . S
C4 N3 1.321 . S
C4 H28 0.930 . S
H5 C0 0.931 . S
Co6 N3 2.135 . S
Co6 N9 2.121 . S
Co6 O14 2.055 . S
Co6 O17 2.039 . S
Co6 N20 2.140 . S
C7 O8 1.227 . S
C7 O17 1.265 . S
O8 C7 1.227 . S
N9 Co6 2.121 . S
N9 C11 1.375 . S
N9 C12 1.313 . S
C10 C11 1.338 . S
C10 N13 1.377 . S
C10 H30 0.930 1_455 S
C11 N9 1.375 . S
C11 C10 1.338 . S
C11 H15 0.931 1_455 S
C12 N9 1.313 . S
C12 N13 1.344 . S
C12 H16 0.930 . S
N13 C10 1.377 . S
N13 C12 1.344 . S
O14 Co6 2.055 . S
O14 C18 1.253 . S
H15 C11 0.931 1_655 S
H16 C12 0.930 . S
O17 Co6 2.039 . S
O17 C7 1.265 . S
C18 O14 1.253 . S
C18 O19 1.227 . S
O19 C18 1.227 . S
N20 Co6 2.140 . S
N20 C23 1.346 . S
N20 C24 1.345 . S
C21 C22 1.387 . S
C21 C25 1.391 . S
C22 C21 1.387 . S
C22 C23 1.369 . S
C22 H31 0.929 . S
C23 N20 1.346 . S
C23 C22 1.369 . S
C23 H26 0.928 . S
C24 N20 1.345 . S
C24 C25 1.371 . S
C24 H27 0.931 . S
C25 C21 1.391 . S
C25 C24 1.371 . S
C25 H32 0.930 . S
H26 C23 0.928 . S
H27 C24 0.931 . S
H28 C4 0.930 . S
H29 C1 0.930 . S
H30 C10 0.930 1_655 S
H31 C22 0.929 . S
H32 C25 0.930 . S
C33 C34 1.351 . S
C33 N36 1.368 . S
C33 H38 0.931 . S
C34 C33 1.351 . S
C34 N35 1.373 . S
C34 H62 0.930 . S
N35 C34 1.373 . S
N35 C37 1.340 . S
N36 C33 1.368 . S
N36 C37 1.321 . S
N36 Co39 2.135 . S
C37 N35 1.340 . S
C37 N36 1.321 . S
C37 H61 0.930 . S
H38 C33 0.931 . S
Co39 N36 2.135 . S
Co39 N42 2.121 . S
Co39 O47 2.055 . S
Co39 O50 2.039 . S
Co39 N53 2.140 . S
C40 O41 1.227 . S
C40 O50 1.265 . S
O41 C40 1.227 . S
N42 Co39 2.121 . S
N42 C44 1.375 . S
N42 C45 1.313 . S
C43 C44 1.338 . S
C43 N46 1.377 . S
C43 H63 0.930 . S
C44 N42 1.375 . S
C44 C43 1.338 . S
C44 H48 0.931 . S
C45 N42 1.313 . S
C45 N46 1.344 . S
C45 H49 0.930 . S
N46 C43 1.377 . S
N46 C45 1.344 . S
O47 Co39 2.055 . S
O47 C51 1.253 . S
H48 C44 0.931 . S
H49 C45 0.930 . S
O50 Co39 2.039 . S
O50 C40 1.265 . S
C51 O47 1.253 . S
C51 O52 1.227 . S
O52 C51 1.227 . S
N53 Co39 2.140 . S
N53 C56 1.346 . S
N53 C57 1.345 . S
C54 C55 1.387 . S
C54 C58 1.391 . S
C55 C54 1.387 . S
C55 C56 1.369 . S
C55 H64 0.929 . S
C56 N53 1.346 . S
C56 C55 1.369 . S
C56 H59 0.928 . S
C57 N53 1.345 . S
C57 C58 1.371 . S
C57 H60 0.931 . S
C58 C54 1.391 . S
C58 C57 1.371 . S
C58 H65 0.930 . S
H59 C56 0.928 . S
H60 C57 0.931 . S
H61 C37 0.930 . S
H62 C34 0.930 . S
H63 C43 0.930 . S
H64 C55 0.929 . S
H65 C58 0.930 . S
C66 C67 1.351 . S
C66 N69 1.368 . S
C66 H71 0.931 . S
C67 C66 1.351 . S
C67 N68 1.373 . S
C67 H95 0.930 . S
N68 C67 1.373 . S
N68 C70 1.340 . S
N69 C66 1.368 . S
N69 C70 1.321 . S
N69 Co72 2.135 . S
C70 N68 1.340 . S
C70 N69 1.321 . S
C70 H94 0.930 . S
H71 C66 0.931 . S
Co72 N69 2.135 . S
Co72 N75 2.121 . S
Co72 O80 2.055 . S
Co72 O83 2.039 . S
Co72 N86 2.140 . S
C73 O74 1.227 . S
C73 O83 1.265 . S
O74 C73 1.227 . S
N75 Co72 2.121 . S
N75 C77 1.375 . S
N75 C78 1.313 . S
C76 C77 1.338 . S
C76 N79 1.377 . S
C76 H96 0.930 1_565 S
C77 N75 1.375 . S
C77 C76 1.338 . S
C77 H81 0.910 1_565 S
C78 N75 1.313 . S
C78 N79 1.344 . S
C78 H82 0.930 . S
N79 C76 1.377 . S
N79 C78 1.344 . S
O80 Co72 2.055 . S
O80 C84 1.253 . S
H81 C77 0.910 1_545 S
H82 C78 0.930 . S
O83 Co72 2.039 . S
O83 C73 1.265 . S
C84 O80 1.253 . S
C84 O85 1.227 . S
O85 C84 1.227 . S
N86 Co72 2.140 . S
N86 C89 1.346 . S
N86 C90 1.345 . S
C87 C88 1.387 . S
C87 C91 1.391 . S
C88 C87 1.387 . S
C88 C89 1.369 . S
C88 H97 0.929 . S
C89 N86 1.346 . S
C89 C88 1.369 . S
C89 H92 0.928 . S
C90 N86 1.345 . S
C90 C91 1.371 . S
C90 H93 0.931 . S
C91 C87 1.391 . S
C91 C90 1.371 . S
C91 H98 0.930 . S
H92 C89 0.928 . S
H93 C90 0.931 . S
H94 C70 0.930 . S
H95 C67 0.930 . S
H96 C76 0.930 1_545 S
H97 C88 0.929 . S
H98 C91 0.930 . S
C99 C100 1.351 . S
C99 N102 1.368 . S
C99 H104 0.931 . S
C100 C99 1.351 . S
C100 N101 1.373 . S
C100 H128 0.930 . S
N101 C100 1.373 . S
N101 C103 1.340 . S
N102 C99 1.368 . S
N102 C103 1.321 . S
N102 Co105 2.135 . S
C103 N101 1.340 . S
C103 N102 1.321 . S
C103 H127 0.930 . S
H104 C99 0.931 . S
Co105 N102 2.135 . S
Co105 N108 2.121 . S
Co105 O113 2.055 . S
Co105 O116 2.039 . S
Co105 N119 2.140 . S
C106 O107 1.227 . S
C106 O116 1.265 . S
O107 C106 1.227 . S
N108 Co105 2.121 . S
N108 C110 1.375 . S
N108 C111 1.313 . S
C109 C110 1.338 . S
C109 N112 1.377 . S
C109 H129 0.930 1_545 S
C110 N108 1.375 . S
C110 C109 1.338 . S
C110 H114 0.931 1_545 S
C111 N108 1.313 . S
C111 N112 1.344 . S
C111 H115 0.930 . S
N112 C109 1.377 . S
N112 C111 1.344 . S
O113 Co105 2.055 . S
O113 C117 1.253 . S
H114 C110 0.931 1_565 S
H115 C111 0.930 . S
O116 Co105 2.039 . S
O116 C106 1.265 . S
C117 O113 1.253 . S
C117 O118 1.227 . S
O118 C117 1.227 . S
N119 Co105 2.140 . S
N119 C122 1.346 . S
N119 C123 1.345 . S
C120 C121 1.387 . S
C120 C124 1.391 . S
C121 C120 1.387 . S
C121 C122 1.369 . S
C121 H130 0.929 . S
C122 N119 1.346 . S
C122 C121 1.369 . S
C122 H125 0.928 . S
C123 N119 1.345 . S
C123 C124 1.371 . S
C123 H126 0.931 . S
C124 C120 1.391 . S
C124 C123 1.371 . S
C124 H131 0.930 . S
H125 C122 0.928 . S
H126 C123 0.931 . S
H127 C103 0.930 . S
H128 C100 0.930 . S
H129 C109 0.930 1_565 S
H130 C121 0.929 . S
H131 C124 0.930 . S
C132 C133 1.351 . S
C132 N135 1.368 . S
C132 H137 0.931 . S
C133 C132 1.351 . S
C133 N134 1.373 . S
C133 H161 0.930 . S
N134 C133 1.373 . S
N134 C136 1.340 . S
N135 C132 1.368 . S
N135 C136 1.321 . S
N135 Co138 2.135 . S
C136 N134 1.340 . S
C136 N135 1.321 . S
C136 H160 0.930 . S
H137 C132 0.931 . S
Co138 N135 2.135 . S
Co138 N141 2.121 . S
Co138 O146 2.055 . S
Co138 O149 2.039 . S
Co138 N152 2.140 . S
C139 O140 1.227 . S
C139 O149 1.265 . S
O140 C139 1.227 . S
N141 Co138 2.121 . S
N141 C143 1.375 . S
N141 C144 1.313 . S
C142 C143 1.338 . S
C142 N145 1.377 . S
C142 H162 0.930 1_655 S
C143 N141 1.375 . S
C143 C142 1.338 . S
C143 H147 0.911 1_655 S
C144 N141 1.313 . S
C144 N145 1.344 . S
C144 H148 0.930 . S
N145 C142 1.377 . S
N145 C144 1.344 . S
O146 Co138 2.055 . S
O146 C150 1.253 . S
H147 C143 0.911 1_455 S
H148 C144 0.930 . S
O149 Co138 2.039 . S
O149 C139 1.265 . S
C150 O146 1.253 . S
C150 O151 1.227 . S
O151 C150 1.227 . S
N152 Co138 2.140 . S
N152 C155 1.346 . S
N152 C156 1.345 . S
C153 C154 1.387 . S
C153 C157 1.391 . S
C154 C153 1.387 . S
C154 C155 1.369 . S
C154 H163 0.929 . S
C155 N152 1.346 . S
C155 C154 1.369 . S
C155 H158 0.928 . S
C156 N152 1.345 . S
C156 C157 1.371 . S
C156 H159 0.931 . S
C157 C153 1.391 . S
C157 C156 1.371 . S
C157 H164 0.930 . S
H158 C155 0.928 . S
H159 C156 0.931 . S
H160 C136 0.930 . S
H161 C133 0.930 . S
H162 C142 0.930 1_455 S
H163 C154 0.929 . S
H164 C157 0.930 . S
C165 C166 1.351 . S
C165 N168 1.368 . S
C165 H170 0.931 . S
C166 C165 1.351 . S
C166 N167 1.373 . S
C166 H194 0.930 . S
N167 C166 1.373 . S
N167 C169 1.340 . S
N168 C165 1.368 . S
N168 C169 1.321 . S
N168 Co171 2.135 . S
C169 N167 1.340 . S
C169 N168 1.321 . S
C169 H193 0.930 . S
H170 C165 0.931 . S
Co171 N168 2.135 . S
Co171 N174 2.121 . S
Co171 O179 2.055 . S
Co171 O182 2.039 . S
Co171 N185 2.140 . S
C172 O173 1.227 . S
C172 O182 1.265 . S
O173 C172 1.227 . S
N174 Co171 2.121 . S
N174 C176 1.375 . S
N174 C177 1.313 . S
C175 C176 1.338 . S
C175 N178 1.377 . S
C175 H195 0.930 . S
C176 N174 1.375 . S
C176 C175 1.338 . S
C176 H180 0.931 . S
C177 N174 1.313 . S
C177 N178 1.344 . S
C177 H181 0.930 . S
N178 C175 1.377 . S
N178 C177 1.344 . S
O179 Co171 2.055 . S
O179 C183 1.253 . S
H180 C176 0.931 . S
H181 C177 0.930 . S
O182 Co171 2.039 . S
O182 C172 1.265 . S
C183 O179 1.253 . S
C183 O184 1.227 . S
O184 C183 1.227 . S
N185 Co171 2.140 . S
N185 C188 1.346 . S
N185 C189 1.345 . S
C186 C187 1.387 . S
C186 C190 1.391 . S
C187 C186 1.387 . S
C187 C188 1.369 . S
C187 H196 0.929 . S
C188 N185 1.346 . S
C188 C187 1.369 . S
C188 H191 0.928 . S
C189 N185 1.345 . S
C189 C190 1.371 . S
C189 H192 0.931 . S
C190 C186 1.391 . S
C190 C189 1.371 . S
C190 H197 0.930 . S
H191 C188 0.928 . S
H192 C189 0.931 . S
H193 C169 0.930 . S
H194 C166 0.930 . S
H195 C175 0.930 . S
H196 C187 0.929 . S
H197 C190 0.930 . S
C198 C199 1.351 . S
C198 N201 1.368 . S
C198 H203 0.931 . S
C199 C198 1.351 . S
C199 N200 1.373 . S
C199 H227 0.930 . S
N200 C199 1.373 . S
N200 C202 1.340 . S
N201 C198 1.368 . S
N201 C202 1.321 . S
N201 Co204 2.135 . S
C202 N200 1.340 . S
C202 N201 1.321 . S
C202 H226 0.930 . S
H203 C198 0.931 . S
Co204 N201 2.135 . S
Co204 N207 2.121 . S
Co204 O212 2.055 . S
Co204 O215 2.039 . S
Co204 N218 2.140 . S
C205 O206 1.227 . S
C205 O215 1.265 . S
O206 C205 1.227 . S
N207 Co204 2.121 . S
N207 C209 1.375 . S
N207 C210 1.313 . S
C208 C209 1.338 . S
C208 N211 1.377 . S
C208 H228 0.930 1_655 S
C209 N207 1.375 . S
C209 C208 1.338 . S
C209 H213 0.931 1_655 S
C210 N207 1.313 . S
C210 N211 1.344 . S
C210 H214 0.930 . S
N211 C208 1.377 . S
N211 C210 1.344 . S
O212 Co204 2.055 . S
O212 C216 1.253 . S
H213 C209 0.931 1_455 S
H214 C210 0.930 . S
O215 Co204 2.039 . S
O215 C205 1.265 . S
C216 O212 1.253 . S
C216 O217 1.227 . S
O217 C216 1.227 . S
N218 Co204 2.140 . S
N218 C221 1.346 . S
N218 C222 1.345 . S
C219 C220 1.387 . S
C219 C223 1.391 . S
C220 C219 1.387 . S
C220 C221 1.369 . S
C220 H229 0.929 . S
C221 N218 1.346 . S
C221 C220 1.369 . S
C221 H224 0.928 . S
C222 N218 1.345 . S
C222 C223 1.371 . S
C222 H225 0.931 . S
C223 C219 1.391 . S
C223 C222 1.371 . S
C223 H230 0.930 . S
H224 C221 0.928 . S
H225 C222 0.931 . S
H226 C202 0.930 . S
H227 C199 0.930 . S
H228 C208 0.930 1_455 S
H229 C220 0.929 . S
H230 C223 0.930 . S
C231 C232 1.351 . S
C231 N234 1.368 . S
C231 H236 0.931 . S
C232 C231 1.351 . S
C232 N233 1.373 . S
C232 H260 0.930 . S
N233 C232 1.373 . S
N233 C235 1.340 . S
N234 C231 1.368 . S
N234 C235 1.321 . S
N234 Co237 2.135 . S
C235 N233 1.340 . S
C235 N234 1.321 . S
C235 H259 0.930 . S
H236 C231 0.931 . S
Co237 N234 2.135 . S
Co237 N240 2.121 . S
Co237 O245 2.055 . S
Co237 O248 2.039 . S
Co237 N251 2.140 . S
C238 O239 1.227 . S
C238 O248 1.265 . S
O239 C238 1.227 . S
N240 Co237 2.121 . S
N240 C242 1.375 . S
N240 C243 1.313 . S
C241 C242 1.338 . S
C241 N244 1.377 . S
C241 H261 0.930 . S
C242 N240 1.375 . S
C242 C241 1.338 . S
C242 H246 0.931 . S
C243 N240 1.313 . S
C243 N244 1.344 . S
C243 H247 0.930 . S
N244 C241 1.377 . S
N244 C243 1.344 . S
O245 Co237 2.055 . S
O245 C249 1.253 . S
H246 C242 0.931 . S
H247 C243 0.930 . S
O248 Co237 2.039 . S
O248 C238 1.265 . S
C249 O245 1.253 . S
C249 O250 1.227 . S
O250 C249 1.227 . S
N251 Co237 2.140 . S
N251 C254 1.346 . S
N251 C255 1.345 . S
C252 C253 1.387 . S
C252 C256 1.391 . S
C253 C252 1.387 . S
C253 C254 1.369 . S
C253 H262 0.929 . S
C254 N251 1.346 . S
C254 C253 1.369 . S
C254 H257 0.928 . S
C255 N251 1.345 . S
C255 C256 1.371 . S
C255 H258 0.931 . S
C256 C252 1.391 . S
C256 C255 1.371 . S
C256 H263 0.930 . S
H257 C254 0.928 . S
H258 C255 0.931 . S
H259 C235 0.930 . S
H260 C232 0.930 . S
H261 C241 0.930 . S
H262 C253 0.929 . S
H263 C256 0.930 . S
C264 C265 1.351 . S
C264 N267 1.368 . S
C264 H269 0.931 . S
C265 C264 1.351 . S
C265 N266 1.373 . S
C265 H293 0.930 . S
N266 C265 1.373 . S
N266 C268 1.340 . S
N267 C264 1.368 . S
N267 C268 1.321 . S
N267 Co270 2.135 . S
C268 N266 1.340 . S
C268 N267 1.321 . S
C268 H292 0.930 . S
H269 C264 0.931 . S
Co270 N267 2.135 . S
Co270 N273 2.121 . S
Co270 O278 2.055 . S
Co270 O281 2.039 . S
Co270 N284 2.140 . S
C271 O272 1.227 . S
C271 O281 1.265 . S
O272 C271 1.227 . S
N273 Co270 2.121 . S
N273 C275 1.375 . S
N273 C276 1.313 . S
C274 C275 1.338 . S
C274 N277 1.377 . S
C274 H294 0.930 1_545 S
C275 N273 1.375 . S
C275 C274 1.338 . S
C275 H279 0.910 1_545 S
C276 N273 1.313 . S
C276 N277 1.344 . S
C276 H280 0.930 . S
N277 C274 1.377 . S
N277 C276 1.344 . S
O278 Co270 2.055 . S
O278 C282 1.253 . S
H279 C275 0.910 1_565 S
H280 C276 0.930 . S
O281 Co270 2.039 . S
O281 C271 1.265 . S
C282 O278 1.253 . S
C282 O283 1.227 . S
O283 C282 1.227 . S
N284 Co270 2.140 . S
N284 C287 1.346 . S
N284 C288 1.345 . S
C285 C286 1.387 . S
C285 C289 1.391 . S
C286 C285 1.387 . S
C286 C287 1.369 . S
C286 H295 0.929 . S
C287 N284 1.346 . S
C287 C286 1.369 . S
C287 H290 0.928 . S
C288 N284 1.345 . S
C288 C289 1.371 . S
C288 H291 0.931 . S
C289 C285 1.391 . S
C289 C288 1.371 . S
C289 H296 0.930 . S
H290 C287 0.928 . S
H291 C288 0.931 . S
H292 C268 0.930 . S
H293 C265 0.930 . S
H294 C274 0.930 1_565 S
H295 C286 0.929 . S
H296 C289 0.930 . S
C297 C298 1.351 . S
C297 N300 1.368 . S
C297 H302 0.931 . S
C298 C297 1.351 . S
C298 N299 1.373 . S
C298 H326 0.930 . S
N299 C298 1.373 . S
N299 C301 1.340 . S
N300 C297 1.368 . S
N300 C301 1.321 . S
N300 Co303 2.135 . S
C301 N299 1.340 . S
C301 N300 1.321 . S
C301 H325 0.930 . S
H302 C297 0.931 . S
Co303 N300 2.135 . S
Co303 N306 2.121 . S
Co303 O311 2.055 . S
Co303 O314 2.039 . S
Co303 N317 2.140 . S
C304 O305 1.227 . S
C304 O314 1.265 . S
O305 C304 1.227 . S
N306 Co303 2.121 . S
N306 C308 1.375 . S
N306 C309 1.313 . S
C307 C308 1.338 . S
C307 N310 1.377 . S
C307 H327 0.930 1_565 S
C308 N306 1.375 . S
C308 C307 1.338 . S
C308 H312 0.931 1_565 S
C309 N306 1.313 . S
C309 N310 1.344 . S
C309 H313 0.930 . S
N310 C307 1.377 . S
N310 C309 1.344 . S
O311 Co303 2.055 . S
O311 C315 1.253 . S
H312 C308 0.931 1_545 S
H313 C309 0.930 . S
O314 Co303 2.039 . S
O314 C304 1.265 . S
C315 O311 1.253 . S
C315 O316 1.227 . S
O316 C315 1.227 . S
N317 Co303 2.140 . S
N317 C320 1.346 . S
N317 C321 1.345 . S
C318 C319 1.387 . S
C318 C322 1.391 . S
C319 C318 1.387 . S
C319 C320 1.369 . S
C319 H328 0.929 . S
C320 N317 1.346 . S
C320 C319 1.369 . S
C320 H323 0.928 . S
C321 N317 1.345 . S
C321 C322 1.371 . S
C321 H324 0.931 . S
C322 C318 1.391 . S
C322 C321 1.371 . S
C322 H329 0.930 . S
H323 C320 0.928 . S
H324 C321 0.931 . S
H325 C301 0.930 . S
H326 C298 0.930 . S
H327 C307 0.930 1_545 S
H328 C319 0.929 . S
H329 C322 0.930 . S
C330 C331 1.351 . S
C330 N333 1.368 . S
C330 H335 0.931 . S
C331 C330 1.351 . S
C331 N332 1.373 . S
C331 H359 0.930 . S
N332 C331 1.373 . S
N332 C334 1.340 . S
N333 C330 1.368 . S
N333 C334 1.321 . S
N333 Co336 2.135 . S
C334 N332 1.340 . S
C334 N333 1.321 . S
C334 H358 0.930 . S
H335 C330 0.931 . S
Co336 N333 2.135 . S
Co336 N339 2.121 . S
Co336 O344 2.055 . S
Co336 O347 2.039 . S
Co336 N350 2.140 . S
C337 O338 1.227 . S
C337 O347 1.265 . S
O338 C337 1.227 . S
N339 Co336 2.121 . S
N339 C341 1.375 . S
N339 C342 1.313 . S
C340 C341 1.338 . S
C340 N343 1.377 . S
C340 H360 0.930 1_455 S
C341 N339 1.375 . S
C341 C340 1.338 . S
C341 H345 0.911 1_455 S
C342 N339 1.313 . S
C342 N343 1.344 . S
C342 H346 0.930 . S
N343 C340 1.377 . S
N343 C342 1.344 . S
O344 Co336 2.055 . S
O344 C348 1.253 . S
H345 C341 0.911 1_655 S
H346 C342 0.930 . S
O347 Co336 2.039 . S
O347 C337 1.265 . S
C348 O344 1.253 . S
C348 O349 1.227 . S
O349 C348 1.227 . S
N350 Co336 2.140 . S
N350 C353 1.346 . S
N350 C354 1.345 . S
C351 C352 1.387 . S
C351 C355 1.391 . S
C352 C351 1.387 . S
C352 C353 1.369 . S
C352 H361 0.929 . S
C353 N350 1.346 . S
C353 C352 1.369 . S
C353 H356 0.928 . S
C354 N350 1.345 . S
C354 C355 1.371 . S
C354 H357 0.931 . S
C355 C351 1.391 . S
C355 C354 1.371 . S
C355 H362 0.930 . S
H356 C353 0.928 . S
H357 C354 0.931 . S
H358 C334 0.930 . S
H359 C331 0.930 . S
H360 C340 0.930 1_655 S
H361 C352 0.929 . S
H362 C355 0.930 . S
C363 C364 1.351 . S
C363 N366 1.368 . S
C363 H368 0.931 . S
C364 C363 1.351 . S
C364 N365 1.373 . S
C364 H392 0.930 . S
N365 C364 1.373 . S
N365 C367 1.340 . S
N366 C363 1.368 . S
N366 C367 1.321 . S
N366 Co369 2.135 . S
C367 N365 1.340 . S
C367 N366 1.321 . S
C367 H391 0.930 . S
H368 C363 0.931 . S
Co369 N366 2.135 . S
Co369 N372 2.121 . S
Co369 O377 2.055 . S
Co369 O380 2.039 . S
Co369 N383 2.140 . S
C370 O371 1.227 . S
C370 O380 1.265 . S
O371 C370 1.227 . S
N372 Co369 2.121 . S
N372 C374 1.375 . S
N372 C375 1.313 . S
C373 C374 1.338 . S
C373 N376 1.377 . S
C373 H393 0.930 . S
C374 N372 1.375 . S
C374 C373 1.338 . S
C374 H378 0.931 . S
C375 N372 1.313 . S
C375 N376 1.344 . S
C375 H379 0.930 . S
N376 C373 1.377 . S
N376 C375 1.344 . S
O377 Co369 2.055 . S
O377 C381 1.253 . S
H378 C374 0.931 . S
H379 C375 0.930 . S
O380 Co369 2.039 . S
O380 C370 1.265 . S
C381 O377 1.253 . S
C381 O382 1.227 . S
O382 C381 1.227 . S
N383 Co369 2.140 . S
N383 C386 1.346 . S
N383 C387 1.345 . S
C384 C385 1.387 . S
C384 C388 1.391 . S
C385 C384 1.387 . S
C385 C386 1.369 . S
C385 H394 0.929 . S
C386 N383 1.346 . S
C386 C385 1.369 . S
C386 H389 0.928 . S
C387 N383 1.345 . S
C387 C388 1.371 . S
C387 H390 0.931 . S
C388 C384 1.391 . S
C388 C387 1.371 . S
C388 H395 0.930 . S
H389 C386 0.928 . S
H390 C387 0.931 . S
H391 C367 0.930 . S
H392 C364 0.930 . S
H393 C373 0.930 . S
H394 C385 0.929 . S
H395 C388 0.930 . S
C396 C397 1.351 . S
C396 N399 1.368 . S
C396 H401 0.931 . S
C397 C396 1.351 . S
C397 N398 1.373 . S
C397 H425 0.930 . S
N398 C397 1.373 . S
N398 C400 1.340 . S
N399 C396 1.368 . S
N399 C400 1.321 . S
N399 Co402 2.135 . S
C400 N398 1.340 . S
C400 N399 1.321 . S
C400 H424 0.930 . S
H401 C396 0.931 . S
Co402 N399 2.135 . S
Co402 N405 2.121 . S
Co402 O410 2.055 . S
Co402 O413 2.039 . S
Co402 N416 2.140 . S
C403 O404 1.227 . S
C403 O413 1.265 . S
O404 C403 1.227 . S
N405 Co402 2.121 . S
N405 C407 1.375 . S
N405 C408 1.313 . S
C406 C407 1.338 . S
C406 N409 1.377 . S
C406 H426 0.930 . S
C407 N405 1.375 . S
C407 C406 1.338 . S
C407 H411 0.931 . S
C408 N405 1.313 . S
C408 N409 1.344 . S
C408 H412 0.930 . S
N409 C406 1.377 . S
N409 C408 1.344 . S
O410 Co402 2.055 . S
O410 C414 1.253 . S
H411 C407 0.931 . S
H412 C408 0.930 . S
O413 Co402 2.039 . S
O413 C403 1.265 . S
C414 O410 1.253 . S
C414 O415 1.227 . S
O415 C414 1.227 . S
N416 Co402 2.140 . S
N416 C419 1.346 . S
N416 C420 1.345 . S
C417 C418 1.387 . S
C417 C421 1.391 . S
C418 C417 1.387 . S
C418 C419 1.369 . S
C418 H427 0.929 . S
C419 N416 1.346 . S
C419 C418 1.369 . S
C419 H422 0.928 . S
C420 N416 1.345 . S
C420 C421 1.371 . S
C420 H423 0.931 . S
C421 C417 1.391 . S
C421 C420 1.371 . S
C421 H428 0.930 . S
H422 C419 0.928 . S
H423 C420 0.931 . S
H424 C400 0.930 . S
H425 C397 0.930 . S
H426 C406 0.930 . S
H427 C418 0.929 . S
H428 C421 0.930 . S
C429 C430 1.351 . S
C429 N432 1.368 . S
C429 H434 0.931 . S
C430 C429 1.351 . S
C430 N431 1.373 . S
C430 H458 0.930 . S
N431 C430 1.373 . S
N431 C433 1.340 . S
N432 C429 1.368 . S
N432 C433 1.321 . S
N432 Co435 2.135 . S
C433 N431 1.340 . S
C433 N432 1.321 . S
C433 H457 0.930 . S
H434 C429 0.931 . S
Co435 N432 2.135 . S
Co435 N438 2.121 . S
Co435 O443 2.055 . S
Co435 O446 2.039 . S
Co435 N449 2.140 . S
C436 O437 1.227 . S
C436 O446 1.265 . S
O437 C436 1.227 . S
N438 Co435 2.121 . S
N438 C440 1.375 . S
N438 C441 1.313 . S
C439 C440 1.338 . S
C439 N442 1.377 . S
C439 H459 0.930 . S
C440 N438 1.375 . S
C440 C439 1.338 . S
C440 H444 0.931 . S
C441 N438 1.313 . S
C441 N442 1.344 . S
C441 H445 0.930 . S
N442 C439 1.377 . S
N442 C441 1.344 . S
O443 Co435 2.055 . S
O443 C447 1.253 . S
H444 C440 0.931 . S
H445 C441 0.930 . S
O446 Co435 2.039 . S
O446 C436 1.265 . S
C447 O443 1.253 . S
C447 O448 1.227 . S
O448 C447 1.227 . S
N449 Co435 2.140 . S
N449 C452 1.346 . S
N449 C453 1.345 . S
C450 C451 1.387 . S
C450 C454 1.391 . S
C451 C450 1.387 . S
C451 C452 1.369 . S
C451 H460 0.929 . S
C452 N449 1.346 . S
C452 C451 1.369 . S
C452 H455 0.928 . S
C453 N449 1.345 . S
C453 C454 1.371 . S
C453 H456 0.931 . S
C454 C450 1.391 . S
C454 C453 1.371 . S
C454 H461 0.930 . S
H455 C452 0.928 . S
H456 C453 0.931 . S
H457 C433 0.930 . S
H458 C430 0.930 . S
H459 C439 0.930 . S
H460 C451 0.929 . S
H461 C454 0.930 . S
C462 C463 1.351 . S
C462 N465 1.368 . S
C462 H467 0.931 . S
C463 C462 1.351 . S
C463 N464 1.373 . S
C463 H491 0.930 . S
N464 C463 1.373 . S
N464 C466 1.340 . S
N465 C462 1.368 . S
N465 C466 1.321 . S
N465 Co468 2.135 . S
C466 N464 1.340 . S
C466 N465 1.321 . S
C466 H490 0.930 . S
H467 C462 0.931 . S
Co468 N465 2.135 . S
Co468 N471 2.121 . S
Co468 O476 2.055 . S
Co468 O479 2.039 . S
Co468 N482 2.140 . S
C469 O470 1.227 . S
C469 O479 1.265 . S
O470 C469 1.227 . S
N471 Co468 2.121 . S
N471 C473 1.375 . S
N471 C474 1.313 . S
C472 C473 1.338 . S
C472 N475 1.377 . S
C472 H492 0.930 . S
C473 N471 1.375 . S
C473 C472 1.338 . S
C473 H477 0.931 . S
C474 N471 1.313 . S
C474 N475 1.344 . S
C474 H478 0.930 . S
N475 C472 1.377 . S
N475 C474 1.344 . S
O476 Co468 2.055 . S
O476 C480 1.253 . S
H477 C473 0.931 . S
H478 C474 0.930 . S
O479 Co468 2.039 . S
O479 C469 1.265 . S
C480 O476 1.253 . S
C480 O481 1.227 . S
O481 C480 1.227 . S
N482 Co468 2.140 . S
N482 C485 1.346 . S
N482 C486 1.345 . S
C483 C484 1.387 . S
C483 C487 1.391 . S
C484 C483 1.387 . S
C484 C485 1.369 . S
C484 H493 0.929 . S
C485 N482 1.346 . S
C485 C484 1.369 . S
C485 H488 0.928 . S
C486 N482 1.345 . S
C486 C487 1.371 . S
C486 H489 0.931 . S
C487 C483 1.391 . S
C487 C486 1.371 . S
C487 H494 0.930 . S
H488 C485 0.928 . S
H489 C486 0.931 . S
H490 C466 0.930 . S
H491 C463 0.930 . S
H492 C472 0.930 . S
H493 C484 0.929 . S
H494 C487 0.930 . S
C495 C496 1.351 . S
C495 N498 1.368 . S
C495 H500 0.931 . S
C496 C495 1.351 . S
C496 N497 1.373 . S
C496 H524 0.930 . S
N497 C496 1.373 . S
N497 C499 1.340 . S
N498 C495 1.368 . S
N498 C499 1.321 . S
N498 Co501 2.135 . S
C499 N497 1.340 . S
C499 N498 1.321 . S
C499 H523 0.930 . S
H500 C495 0.931 . S
Co501 N498 2.135 . S
Co501 N504 2.121 . S
Co501 O509 2.055 . S
Co501 O512 2.039 . S
Co501 N515 2.140 . S
C502 O503 1.227 . S
C502 O512 1.265 . S
O503 C502 1.227 . S
N504 Co501 2.121 . S
N504 C506 1.375 . S
N504 C507 1.313 . S
C505 C506 1.338 . S
C505 N508 1.377 . S
C505 H525 0.930 . S
C506 N504 1.375 . S
C506 C505 1.338 . S
C506 H510 0.931 . S
C507 N504 1.313 . S
C507 N508 1.344 . S
C507 H511 0.930 1_655 S
N508 C505 1.377 . S
N508 C507 1.344 . S
O509 Co501 2.055 . S
O509 C513 1.253 . S
H510 C506 0.931 . S
H511 C507 0.930 1_455 S
O512 Co501 2.039 . S
O512 C502 1.265 . S
C513 O509 1.253 . S
C513 O514 1.227 . S
O514 C513 1.227 . S
N515 Co501 2.140 . S
N515 C518 1.346 . S
N515 C519 1.345 . S
C516 C517 1.387 . S
C516 C520 1.391 . S
C517 C516 1.387 . S
C517 C518 1.369 . S
C517 H526 0.929 . S
C518 N515 1.346 . S
C518 C517 1.369 . S
C518 H521 0.928 . S
C519 N515 1.345 . S
C519 C520 1.371 . S
C519 H522 0.931 . S
C520 C516 1.391 . S
C520 C519 1.371 . S
C520 H527 0.930 1_655 S
H521 C518 0.928 . S
H522 C519 0.931 . S
H523 C499 0.930 . S
H524 C496 0.930 . S
H525 C505 0.930 . S
H526 C517 0.929 . S
H527 C520 0.930 1_455 S
C528 C529 1.351 . S
C528 N531 1.368 . S
C528 H533 0.931 . S
C529 C528 1.351 . S
C529 N530 1.373 . S
C529 H557 0.930 . S
N530 C529 1.373 . S
N530 C532 1.340 . S
N531 C528 1.368 . S
N531 C532 1.321 . S
N531 Co534 2.135 . S
C532 N530 1.340 . S
C532 N531 1.321 . S
C532 H556 0.930 . S
H533 C528 0.931 . S
Co534 N531 2.135 . S
Co534 N537 2.121 . S
Co534 O542 2.055 . S
Co534 O545 2.039 . S
Co534 N548 2.140 . S
C535 O536 1.227 . S
C535 O545 1.265 . S
O536 C535 1.227 . S
N537 Co534 2.121 . S
N537 C539 1.375 . S
N537 C540 1.313 . S
C538 C539 1.338 . S
C538 N541 1.377 . S
C538 H558 0.930 . S
C539 N537 1.375 . S
C539 C538 1.338 . S
C539 H543 0.931 . S
C540 N537 1.313 . S
C540 N541 1.344 . S
C540 H544 0.930 . S
N541 C538 1.377 . S
N541 C540 1.344 . S
O542 Co534 2.055 . S
O542 C546 1.253 . S
H543 C539 0.931 . S
H544 C540 0.930 . S
O545 Co534 2.039 . S
O545 C535 1.265 . S
C546 O542 1.253 . S
C546 O547 1.227 . S
O547 C546 1.227 . S
N548 Co534 2.140 . S
N548 C551 1.346 . S
N548 C552 1.345 . S
C549 C550 1.387 . S
C549 C553 1.391 . S
C550 C549 1.387 . S
C550 C551 1.369 . S
C550 H559 0.929 . S
C551 N548 1.346 . S
C551 C550 1.369 . S
C551 H554 0.928 . S
C552 N548 1.345 . S
C552 C553 1.371 . S
C552 H555 0.931 . S
C553 C549 1.391 . S
C553 C552 1.371 . S
C553 H560 0.930 . S
H554 C551 0.928 . S
H555 C552 0.931 . S
H556 C532 0.930 . S
H557 C529 0.930 . S
H558 C538 0.930 . S
H559 C550 0.929 . S
H560 C553 0.930 . S
C561 C562 1.351 . S
C561 N564 1.368 . S
C561 H566 0.931 . S
C562 C561 1.351 . S
C562 N563 1.373 . S
C562 H590 0.930 . S
N563 C562 1.373 . S
N563 C565 1.340 . S
N564 C561 1.368 . S
N564 C565 1.321 . S
N564 Co567 2.135 . S
C565 N563 1.340 . S
C565 N564 1.321 . S
C565 H589 0.930 . S
H566 C561 0.931 . S
Co567 N564 2.135 . S
Co567 N570 2.121 . S
Co567 O575 2.055 . S
Co567 O578 2.039 . S
Co567 N581 2.140 . S
C568 O569 1.227 . S
C568 O578 1.265 . S
O569 C568 1.227 . S
N570 Co567 2.121 . S
N570 C572 1.375 . S
N570 C573 1.313 . S
C571 C572 1.338 . S
C571 N574 1.377 . S
C571 H591 0.930 . S
C572 N570 1.375 . S
C572 C571 1.338 . S
C572 H576 0.931 . S
C573 N570 1.313 . S
C573 N574 1.344 . S
C573 H577 0.927 . S
N574 C571 1.377 . S
N574 C573 1.344 . S
O575 Co567 2.055 . S
O575 C579 1.253 . S
H576 C572 0.931 . S
H577 C573 0.927 . S
O578 Co567 2.039 . S
O578 C568 1.265 . S
C579 O575 1.253 . S
C579 O580 1.227 . S
O580 C579 1.227 . S
N581 Co567 2.140 . S
N581 C584 1.346 . S
N581 C585 1.345 . S
C582 C583 1.387 . S
C582 C586 1.391 . S
C583 C582 1.387 . S
C583 C584 1.369 . S
C583 H592 0.929 . S
C584 N581 1.346 . S
C584 C583 1.369 . S
C584 H587 0.928 . S
C585 N581 1.345 . S
C585 C586 1.371 . S
C585 H588 0.931 . S
C586 C582 1.391 . S
C586 C585 1.371 . S
C586 H593 0.930 1_545 S
H587 C584 0.928 . S
H588 C585 0.931 . S
H589 C565 0.930 . S
H590 C562 0.930 . S
H591 C571 0.930 . S
H592 C583 0.929 . S
H593 C586 0.930 1_565 S
C594 C595 1.351 . S
C594 N597 1.368 . S
C594 H599 0.931 . S
C595 C594 1.351 . S
C595 N596 1.373 . S
C595 H623 0.930 . S
N596 C595 1.373 . S
N596 C598 1.340 . S
N597 C594 1.368 . S
N597 C598 1.321 . S
N597 Co600 2.135 . S
C598 N596 1.340 . S
C598 N597 1.321 . S
C598 H622 0.930 . S
H599 C594 0.931 . S
Co600 N597 2.135 . S
Co600 N603 2.121 . S
Co600 O608 2.055 . S
Co600 O611 2.039 . S
Co600 N614 2.140 . S
C601 O602 1.227 . S
C601 O611 1.265 . S
O602 C601 1.227 . S
N603 Co600 2.121 . S
N603 C605 1.375 . S
N603 C606 1.313 . S
C604 C605 1.338 . S
C604 N607 1.377 . S
C604 H624 0.930 . S
C605 N603 1.375 . S
C605 C604 1.338 . S
C605 H609 0.931 . S
C606 N603 1.313 . S
C606 N607 1.344 . S
C606 H610 0.930 1_545 S
N607 C604 1.377 . S
N607 C606 1.344 . S
O608 Co600 2.055 . S
O608 C612 1.253 . S
H609 C605 0.931 . S
H610 C606 0.930 1_565 S
O611 Co600 2.039 . S
O611 C601 1.265 . S
C612 O608 1.253 . S
C612 O613 1.227 . S
O613 C612 1.227 . S
N614 Co600 2.140 . S
N614 C617 1.346 . S
N614 C618 1.345 . S
C615 C616 1.387 . S
C615 C619 1.391 . S
C616 C615 1.387 . S
C616 C617 1.369 . S
C616 H625 0.929 . S
C617 N614 1.346 . S
C617 C616 1.369 . S
C617 H620 0.928 . S
C618 N614 1.345 . S
C618 C619 1.371 . S
C618 H621 0.931 . S
C619 C615 1.391 . S
C619 C618 1.371 . S
C619 H626 0.930 1_545 S
H620 C617 0.928 . S
H621 C618 0.931 . S
H622 C598 0.930 . S
H623 C595 0.930 . S
H624 C604 0.930 . S
H625 C616 0.929 . S
H626 C619 0.930 1_565 S
C627 C628 1.351 . S
C627 N630 1.368 . S
C627 H632 0.931 . S
C628 C627 1.351 . S
C628 N629 1.373 . S
C628 H656 0.930 . S
N629 C628 1.373 . S
N629 C631 1.340 . S
N630 C627 1.368 . S
N630 C631 1.321 . S
N630 Co633 2.135 . S
C631 N629 1.340 . S
C631 N630 1.321 . S
C631 H655 0.930 . S
H632 C627 0.931 . S
Co633 N630 2.135 . S
Co633 N636 2.121 . S
Co633 O641 2.055 . S
Co633 O644 2.039 . S
Co633 N647 2.140 . S
C634 O635 1.227 . S
C634 O644 1.265 . S
O635 C634 1.227 . S
N636 Co633 2.121 . S
N636 C638 1.375 . S
N636 C639 1.313 . S
C637 C638 1.338 . S
C637 N640 1.377 . S
C637 H657 0.930 . S
C638 N636 1.375 . S
C638 C637 1.338 . S
C638 H642 0.931 . S
C639 N636 1.313 . S
C639 N640 1.344 . S
C639 H643 0.933 1_655 S
N640 C637 1.377 . S
N640 C639 1.344 . S
O641 Co633 2.055 . S
O641 C645 1.253 . S
H642 C638 0.931 . S
H643 C639 0.933 1_455 S
O644 Co633 2.039 . S
O644 C634 1.265 . S
C645 O641 1.253 . S
C645 O646 1.227 . S
O646 C645 1.227 . S
N647 Co633 2.140 . S
N647 C650 1.346 . S
N647 C651 1.345 . S
C648 C649 1.387 . S
C648 C652 1.391 . S
C649 C648 1.387 . S
C649 C650 1.369 . S
C649 H658 0.929 . S
C650 N647 1.346 . S
C650 C649 1.369 . S
C650 H653 0.928 . S
C651 N647 1.345 . S
C651 C652 1.371 . S
C651 H654 0.931 . S
C652 C648 1.391 . S
C652 C651 1.371 . S
C652 H659 0.930 1_655 S
H653 C650 0.928 . S
H654 C651 0.931 . S
H655 C631 0.930 . S
H656 C628 0.930 . S
H657 C637 0.930 . S
H658 C649 0.929 . S
H659 C652 0.930 1_455 S
C660 C661 1.351 . S
C660 N663 1.368 . S
C660 H665 0.931 . S
C661 C660 1.351 . S
C661 N662 1.373 . S
C661 H689 0.930 . S
N662 C661 1.373 . S
N662 C664 1.340 . S
N663 C660 1.368 . S
N663 C664 1.321 . S
N663 Co666 2.135 . S
C664 N662 1.340 . S
C664 N663 1.321 . S
C664 H688 0.930 . S
H665 C660 0.931 . S
Co666 N663 2.135 . S
Co666 N669 2.121 . S
Co666 O674 2.055 . S
Co666 O677 2.039 . S
Co666 N680 2.140 . S
C667 O668 1.227 . S
C667 O677 1.265 . S
O668 C667 1.227 . S
N669 Co666 2.121 . S
N669 C671 1.375 . S
N669 C672 1.313 . S
C670 C671 1.338 . S
C670 N673 1.377 . S
C670 H690 0.930 . S
C671 N669 1.375 . S
C671 C670 1.338 . S
C671 H675 0.931 . S
C672 N669 1.313 . S
C672 N673 1.344 . S
C672 H676 0.930 . S
N673 C670 1.377 . S
N673 C672 1.344 . S
O674 Co666 2.055 . S
O674 C678 1.253 . S
H675 C671 0.931 . S
H676 C672 0.930 . S
O677 Co666 2.039 . S
O677 C667 1.265 . S
C678 O674 1.253 . S
C678 O679 1.227 . S
O679 C678 1.227 . S
N680 Co666 2.140 . S
N680 C683 1.346 . S
N680 C684 1.345 . S
C681 C682 1.387 . S
C681 C685 1.391 . S
C682 C681 1.387 . S
C682 C683 1.369 . S
C682 H691 0.929 . S
C683 N680 1.346 . S
C683 C682 1.369 . S
C683 H686 0.928 . S
C684 N680 1.345 . S
C684 C685 1.371 . S
C684 H687 0.931 . S
C685 C681 1.391 . S
C685 C684 1.371 . S
C685 H692 0.930 . S
H686 C683 0.928 . S
H687 C684 0.931 . S
H688 C664 0.930 . S
H689 C661 0.930 . S
H690 C670 0.930 . S
H691 C682 0.929 . S
H692 C685 0.930 . S
C693 C694 1.351 . S
C693 N696 1.368 . S
C693 H698 0.931 . S
C694 C693 1.351 . S
C694 N695 1.373 . S
C694 H722 0.930 . S
N695 C694 1.373 . S
N695 C697 1.340 . S
N696 C693 1.368 . S
N696 C697 1.321 . S
N696 Co699 2.135 . S
C697 N695 1.340 . S
C697 N696 1.321 . S
C697 H721 0.930 . S
H698 C693 0.931 . S
Co699 N696 2.135 . S
Co699 N702 2.121 . S
Co699 O707 2.055 . S
Co699 O710 2.039 . S
Co699 N713 2.140 . S
C700 O701 1.227 . S
C700 O710 1.265 . S
O701 C700 1.227 . S
N702 Co699 2.121 . S
N702 C704 1.375 . S
N702 C705 1.313 . S
C703 C704 1.338 . S
C703 N706 1.377 . S
C703 H723 0.930 . S
C704 N702 1.375 . S
C704 C703 1.338 . S
C704 H708 0.931 . S
C705 N702 1.313 . S
C705 N706 1.344 . S
C705 H709 0.930 . S
N706 C703 1.377 . S
N706 C705 1.344 . S
O707 Co699 2.055 . S
O707 C711 1.253 . S
H708 C704 0.931 . S
H709 C705 0.930 . S
O710 Co699 2.039 . S
O710 C700 1.265 . S
C711 O707 1.253 . S
C711 O712 1.227 . S
O712 C711 1.227 . S
N713 Co699 2.140 . S
N713 C716 1.346 . S
N713 C717 1.345 . S
C714 C715 1.387 . S
C714 C718 1.391 . S
C715 C714 1.387 . S
C715 C716 1.369 . S
C715 H724 0.929 . S
C716 N713 1.346 . S
C716 C715 1.369 . S
C716 H719 0.928 . S
C717 N713 1.345 . S
C717 C718 1.371 . S
C717 H720 0.931 . S
C718 C714 1.391 . S
C718 C717 1.371 . S
C718 H725 0.930 . S
H719 C716 0.928 . S
H720 C717 0.931 . S
H721 C697 0.930 . S
H722 C694 0.930 . S
H723 C703 0.930 . S
H724 C715 0.929 . S
H725 C718 0.930 . S
C726 C727 1.351 . S
C726 N729 1.368 . S
C726 H731 0.931 . S
C727 C726 1.351 . S
C727 N728 1.373 . S
C727 H755 0.930 . S
N728 C727 1.373 . S
N728 C730 1.340 . S
N729 C726 1.368 . S
N729 C730 1.321 . S
N729 Co732 2.135 . S
C730 N728 1.340 . S
C730 N729 1.321 . S
C730 H754 0.930 . S
H731 C726 0.931 . S
Co732 N729 2.135 . S
Co732 N735 2.121 . S
Co732 O740 2.055 . S
Co732 O743 2.039 . S
Co732 N746 2.140 . S
C733 O734 1.227 . S
C733 O743 1.265 . S
O734 C733 1.227 . S
N735 Co732 2.121 . S
N735 C737 1.375 . S
N735 C738 1.313 . S
C736 C737 1.338 . S
C736 N739 1.377 . S
C736 H756 0.930 . S
C737 N735 1.375 . S
C737 C736 1.338 . S
C737 H741 0.931 . S
C738 N735 1.313 . S
C738 N739 1.344 . S
C738 H742 0.930 . S
N739 C736 1.377 . S
N739 C738 1.344 . S
O740 Co732 2.055 . S
O740 C744 1.253 . S
H741 C737 0.931 . S
H742 C738 0.930 . S
O743 Co732 2.039 . S
O743 C733 1.265 . S
C744 O740 1.253 . S
C744 O745 1.227 . S
O745 C744 1.227 . S
N746 Co732 2.140 . S
N746 C749 1.346 . S
N746 C750 1.345 . S
C747 C748 1.387 . S
C747 C751 1.391 . S
C748 C747 1.387 . S
C748 C749 1.369 . S
C748 H757 0.929 . S
C749 N746 1.346 . S
C749 C748 1.369 . S
C749 H752 0.928 . S
C750 N746 1.345 . S
C750 C751 1.371 . S
C750 H753 0.931 . S
C751 C747 1.391 . S
C751 C750 1.371 . S
C751 H758 0.930 . S
H752 C749 0.928 . S
H753 C750 0.931 . S
H754 C730 0.930 . S
H755 C727 0.930 . S
H756 C736 0.930 . S
H757 C748 0.929 . S
H758 C751 0.930 . S
C759 C760 1.351 . S
C759 N762 1.368 . S
C759 H764 0.931 . S
C760 C759 1.351 . S
C760 N761 1.373 . S
C760 H788 0.930 . S
N761 C760 1.373 . S
N761 C763 1.340 . S
N762 C759 1.368 . S
N762 C763 1.321 . S
N762 Co765 2.135 . S
C763 N761 1.340 . S
C763 N762 1.321 . S
C763 H787 0.930 . S
H764 C759 0.931 . S
Co765 N762 2.135 . S
Co765 N768 2.121 . S
Co765 O773 2.055 . S
Co765 O776 2.039 . S
Co765 N779 2.140 . S
C766 O767 1.227 . S
C766 O776 1.265 . S
O767 C766 1.227 . S
N768 Co765 2.121 . S
N768 C770 1.375 . S
N768 C771 1.313 . S
C769 C770 1.338 . S
C769 N772 1.377 . S
C769 H789 0.930 . S
C770 N768 1.375 . S
C770 C769 1.338 . S
C770 H774 0.931 . S
C771 N768 1.313 . S
C771 N772 1.344 . S
C771 H775 0.930 . S
N772 C769 1.377 . S
N772 C771 1.344 . S
O773 Co765 2.055 . S
O773 C777 1.253 . S
H774 C770 0.931 . S
H775 C771 0.930 . S
O776 Co765 2.039 . S
O776 C766 1.265 . S
C777 O773 1.253 . S
C777 O778 1.227 . S
O778 C777 1.227 . S
N779 Co765 2.140 . S
N779 C782 1.346 . S
N779 C783 1.345 . S
C780 C781 1.387 . S
C780 C784 1.391 . S
C781 C780 1.387 . S
C781 C782 1.369 . S
C781 H790 0.929 . S
C782 N779 1.346 . S
C782 C781 1.369 . S
C782 H785 0.928 . S
C783 N779 1.345 . S
C783 C784 1.371 . S
C783 H786 0.931 . S
C784 C780 1.391 . S
C784 C783 1.371 . S
C784 H791 0.930 . S
H785 C782 0.928 . S
H786 C783 0.931 . S
H787 C763 0.930 . S
H788 C760 0.930 . S
H789 C769 0.930 . S
H790 C781 0.929 . S
H791 C784 0.930 . S
C792 C793 1.351 . S
C792 N795 1.368 . S
C792 H797 0.931 . S
C793 C792 1.351 . S
C793 N794 1.373 . S
C793 H821 0.930 . S
N794 C793 1.373 . S
N794 C796 1.340 . S
N795 C792 1.368 . S
N795 C796 1.321 . S
N795 Co798 2.135 . S
C796 N794 1.340 . S
C796 N795 1.321 . S
C796 H820 0.930 . S
H797 C792 0.931 . S
Co798 N795 2.135 . S
Co798 N801 2.121 . S
Co798 O806 2.055 . S
Co798 O809 2.039 . S
Co798 N812 2.140 . S
C799 O800 1.227 . S
C799 O809 1.265 . S
O800 C799 1.227 . S
N801 Co798 2.121 . S
N801 C803 1.375 . S
N801 C804 1.313 . S
C802 C803 1.338 . S
C802 N805 1.377 . S
C802 H822 0.930 . S
C803 N801 1.375 . S
C803 C802 1.338 . S
C803 H807 0.931 . S
C804 N801 1.313 . S
C804 N805 1.344 . S
C804 H808 0.930 1_565 S
N805 C802 1.377 . S
N805 C804 1.344 . S
O806 Co798 2.055 . S
O806 C810 1.253 . S
H807 C803 0.931 . S
H808 C804 0.930 1_545 S
O809 Co798 2.039 . S
O809 C799 1.265 . S
C810 O806 1.253 . S
C810 O811 1.227 . S
O811 C810 1.227 . S
N812 Co798 2.140 . S
N812 C815 1.346 . S
N812 C816 1.345 . S
C813 C814 1.387 . S
C813 C817 1.391 . S
C814 C813 1.387 . S
C814 C815 1.369 . S
C814 H823 0.929 . S
C815 N812 1.346 . S
C815 C814 1.369 . S
C815 H818 0.928 . S
C816 N812 1.345 . S
C816 C817 1.371 . S
C816 H819 0.931 . S
C817 C813 1.391 . S
C817 C816 1.371 . S
C817 H824 0.930 1_565 S
H818 C815 0.928 . S
H819 C816 0.931 . S
H820 C796 0.930 . S
H821 C793 0.930 . S
H822 C802 0.930 . S
H823 C814 0.929 . S
H824 C817 0.930 1_545 S
C825 C826 1.351 . S
C825 N828 1.368 . S
C825 H830 0.931 . S
C826 C825 1.351 . S
C826 N827 1.373 . S
C826 H854 0.930 . S
N827 C826 1.373 . S
N827 C829 1.340 . S
N828 C825 1.368 . S
N828 C829 1.321 . S
N828 Co831 2.135 . S
C829 N827 1.340 . S
C829 N828 1.321 . S
C829 H853 0.930 . S
H830 C825 0.931 . S
Co831 N828 2.135 . S
Co831 N834 2.121 . S
Co831 O839 2.055 . S
Co831 O842 2.039 . S
Co831 N845 2.140 . S
C832 O833 1.227 . S
C832 O842 1.265 . S
O833 C832 1.227 . S
N834 Co831 2.121 . S
N834 C836 1.375 . S
N834 C837 1.313 . S
C835 C836 1.338 . S
C835 N838 1.377 . S
C835 H855 0.930 . S
C836 N834 1.375 . S
C836 C835 1.338 . S
C836 H840 0.931 . S
C837 N834 1.313 . S
C837 N838 1.344 . S
C837 H841 0.933 1_455 S
N838 C835 1.377 . S
N838 C837 1.344 . S
O839 Co831 2.055 . S
O839 C843 1.253 . S
H840 C836 0.931 . S
H841 C837 0.933 1_655 S
O842 Co831 2.039 . S
O842 C832 1.265 . S
C843 O839 1.253 . S
C843 O844 1.227 . S
O844 C843 1.227 . S
N845 Co831 2.140 . S
N845 C848 1.346 . S
N845 C849 1.345 . S
C846 C847 1.387 . S
C846 C850 1.391 . S
C847 C846 1.387 . S
C847 C848 1.369 . S
C847 H856 0.929 . S
C848 N845 1.346 . S
C848 C847 1.369 . S
C848 H851 0.928 . S
C849 N845 1.345 . S
C849 C850 1.371 . S
C849 H852 0.931 . S
C850 C846 1.391 . S
C850 C849 1.371 . S
C850 H857 0.930 1_455 S
H851 C848 0.928 . S
H852 C849 0.931 . S
H853 C829 0.930 . S
H854 C826 0.930 . S
H855 C835 0.930 . S
H856 C847 0.929 . S
H857 C850 0.930 1_655 S
C858 C859 1.351 . S
C858 N861 1.368 . S
C858 H863 0.931 . S
C859 C858 1.351 . S
C859 N860 1.373 . S
C859 H887 0.930 . S
N860 C859 1.373 . S
N860 C862 1.340 . S
N861 C858 1.368 . S
N861 C862 1.321 . S
N861 Co864 2.135 . S
C862 N860 1.340 . S
C862 N861 1.321 . S
C862 H886 0.930 . S
H863 C858 0.931 . S
Co864 N861 2.135 . S
Co864 N867 2.121 . S
Co864 O872 2.055 . S
Co864 O875 2.039 . S
Co864 N878 2.140 . S
C865 O866 1.227 . S
C865 O875 1.265 . S
O866 C865 1.227 . S
N867 Co864 2.121 . S
N867 C869 1.375 . S
N867 C870 1.313 . S
C868 C869 1.338 . S
C868 N871 1.377 . S
C868 H888 0.930 . S
C869 N867 1.375 . S
C869 C868 1.338 . S
C869 H873 0.931 . S
C870 N867 1.313 . S
C870 N871 1.344 . S
C870 H874 0.930 . S
N871 C868 1.377 . S
N871 C870 1.344 . S
O872 Co864 2.055 . S
O872 C876 1.253 . S
H873 C869 0.931 . S
H874 C870 0.930 . S
O875 Co864 2.039 . S
O875 C865 1.265 . S
C876 O872 1.253 . S
C876 O877 1.227 . S
O877 C876 1.227 . S
N878 Co864 2.140 . S
N878 C881 1.346 . S
N878 C882 1.345 . S
C879 C880 1.387 . S
C879 C883 1.391 . S
C880 C879 1.387 . S
C880 C881 1.369 . S
C880 H889 0.929 . S
C881 N878 1.346 . S
C881 C880 1.369 . S
C881 H884 0.928 . S
C882 N878 1.345 . S
C882 C883 1.371 . S
C882 H885 0.931 . S
C883 C879 1.391 . S
C883 C882 1.371 . S
C883 H890 0.930 . S
H884 C881 0.928 . S
H885 C882 0.931 . S
H886 C862 0.930 . S
H887 C859 0.930 . S
H888 C868 0.930 . S
H889 C880 0.929 . S
H890 C883 0.930 . S
C891 C892 1.351 . S
C891 N894 1.368 . S
C891 H896 0.931 . S
C892 C891 1.351 . S
C892 N893 1.373 . S
C892 H920 0.930 . S
N893 C892 1.373 . S
N893 C895 1.340 . S
N894 C891 1.368 . S
N894 C895 1.321 . S
N894 Co897 2.135 . S
C895 N893 1.340 . S
C895 N894 1.321 . S
C895 H919 0.930 . S
H896 C891 0.931 . S
Co897 N894 2.135 . S
Co897 N900 2.121 . S
Co897 O905 2.055 . S
Co897 O908 2.039 . S
Co897 N911 2.140 . S
C898 O899 1.227 . S
C898 O908 1.265 . S
O899 C898 1.227 . S
N900 Co897 2.121 . S
N900 C902 1.375 . S
N900 C903 1.313 . S
C901 C902 1.338 . S
C901 N904 1.377 . S
C901 H921 0.930 . S
C902 N900 1.375 . S
C902 C901 1.338 . S
C902 H906 0.931 . S
C903 N900 1.313 . S
C903 N904 1.344 . S
C903 H907 0.930 . S
N904 C901 1.377 . S
N904 C903 1.344 . S
O905 Co897 2.055 . S
O905 C909 1.253 . S
H906 C902 0.931 . S
H907 C903 0.930 . S
O908 Co897 2.039 . S
O908 C898 1.265 . S
C909 O905 1.253 . S
C909 O910 1.227 . S
O910 C909 1.227 . S
N911 Co897 2.140 . S
N911 C914 1.346 . S
N911 C915 1.345 . S
C912 C913 1.387 . S
C912 C916 1.391 . S
C913 C912 1.387 . S
C913 C914 1.369 . S
C913 H922 0.929 . S
C914 N911 1.346 . S
C914 C913 1.369 . S
C914 H917 0.928 . S
C915 N911 1.345 . S
C915 C916 1.371 . S
C915 H918 0.931 . S
C916 C912 1.391 . S
C916 C915 1.371 . S
C916 H923 0.930 . S
H917 C914 0.928 . S
H918 C915 0.931 . S
H919 C895 0.930 . S
H920 C892 0.930 . S
H921 C901 0.930 . S
H922 C913 0.929 . S
H923 C916 0.930 . S
C924 C925 1.351 . S
C924 N927 1.368 . S
C924 H929 0.931 . S
C925 C924 1.351 . S
C925 N926 1.373 . S
C925 H953 0.930 . S
N926 C925 1.373 . S
N926 C928 1.340 . S
N927 C924 1.368 . S
N927 C928 1.321 . S
N927 Co930 2.135 . S
C928 N926 1.340 . S
C928 N927 1.321 . S
C928 H952 0.930 . S
H929 C924 0.931 . S
Co930 N927 2.135 . S
Co930 N933 2.121 . S
Co930 O938 2.055 . S
Co930 O941 2.039 . S
Co930 N944 2.140 . S
C931 O932 1.227 . S
C931 O941 1.265 . S
O932 C931 1.227 . S
N933 Co930 2.121 . S
N933 C935 1.375 . S
N933 C936 1.313 . S
C934 C935 1.338 . S
C934 N937 1.377 . S
C934 H954 0.930 . S
C935 N933 1.375 . S
C935 C934 1.338 . S
C935 H939 0.931 . S
C936 N933 1.313 . S
C936 N937 1.344 . S
C936 H940 0.930 . S
N937 C934 1.377 . S
N937 C936 1.344 . S
O938 Co930 2.055 . S
O938 C942 1.253 . S
H939 C935 0.931 . S
H940 C936 0.930 . S
O941 Co930 2.039 . S
O941 C931 1.265 . S
C942 O938 1.253 . S
C942 O943 1.227 . S
O943 C942 1.227 . S
N944 Co930 2.140 . S
N944 C947 1.346 . S
N944 C948 1.345 . S
C945 C946 1.387 . S
C945 C949 1.391 . S
C946 C945 1.387 . S
C946 C947 1.369 . S
C946 H955 0.929 . S
C947 N944 1.346 . S
C947 C946 1.369 . S
C947 H950 0.928 . S
C948 N944 1.345 . S
C948 C949 1.371 . S
C948 H951 0.931 . S
C949 C945 1.391 . S
C949 C948 1.371 . S
C949 H956 0.930 . S
H950 C947 0.928 . S
H951 C948 0.931 . S
H952 C928 0.930 . S
H953 C925 0.930 . S
H954 C934 0.930 . S
H955 C946 0.929 . S
H956 C949 0.930 . S
C957 C958 1.351 . S
C957 N960 1.368 . S
C957 H962 0.931 . S
C958 C957 1.351 . S
C958 N959 1.373 . S
C958 H986 0.930 . S
N959 C958 1.373 . S
N959 C961 1.340 . S
N960 C957 1.368 . S
N960 C961 1.321 . S
N960 Co963 2.135 . S
C961 N959 1.340 . S
C961 N960 1.321 . S
C961 H985 0.930 . S
H962 C957 0.931 . S
Co963 N960 2.135 . S
Co963 N966 2.121 . S
Co963 O971 2.055 . S
Co963 O974 2.039 . S
Co963 N977 2.140 . S
C964 O965 1.227 . S
C964 O974 1.265 . S
O965 C964 1.227 . S
N966 Co963 2.121 . S
N966 C968 1.375 . S
N966 C969 1.313 . S
C967 C968 1.338 . S
C967 N970 1.377 . S
C967 H987 0.930 . S
C968 N966 1.375 . S
C968 C967 1.338 . S
C968 H972 0.931 . S
C969 N966 1.313 . S
C969 N970 1.344 . S
C969 H973 0.930 . S
N970 C967 1.377 . S
N970 C969 1.344 . S
O971 Co963 2.055 . S
O971 C975 1.253 . S
H972 C968 0.931 . S
H973 C969 0.930 . S
O974 Co963 2.039 . S
O974 C964 1.265 . S
C975 O971 1.253 . S
C975 O976 1.227 . S
O976 C975 1.227 . S
N977 Co963 2.140 . S
N977 C980 1.346 . S
N977 C981 1.345 . S
C978 C979 1.387 . S
C978 C982 1.391 . S
C979 C978 1.387 . S
C979 C980 1.369 . S
C979 H988 0.929 . S
C980 N977 1.346 . S
C980 C979 1.369 . S
C980 H983 0.928 . S
C981 N977 1.345 . S
C981 C982 1.371 . S
C981 H984 0.931 . S
C982 C978 1.391 . S
C982 C981 1.371 . S
C982 H989 0.930 . S
H983 C980 0.928 . S
H984 C981 0.931 . S
H985 C961 0.930 . S
H986 C958 0.930 . S
H987 C967 0.930 . S
H988 C979 0.929 . S
H989 C982 0.930 . S
C990 C991 1.351 . S
C990 N993 1.368 . S
C990 H995 0.931 . S
C991 C990 1.351 . S
C991 N992 1.373 . S
C991 H1019 0.930 . S
N992 C991 1.373 . S
N992 C994 1.340 . S
N993 C990 1.368 . S
N993 C994 1.321 . S
N993 Co996 2.135 . S
C994 N992 1.340 . S
C994 N993 1.321 . S
C994 H1018 0.930 . S
H995 C990 0.931 . S
Co996 N993 2.135 . S
Co996 N999 2.121 . S
Co996 O1004 2.055 . S
Co996 O1007 2.039 . S
Co996 N1010 2.140 . S
C997 O998 1.227 . S
C997 O1007 1.265 . S
O998 C997 1.227 . S
N999 Co996 2.121 . S
N999 C1001 1.375 . S
N999 C1002 1.313 . S
C1000 C1001 1.338 . S
C1000 N1003 1.377 . S
C1000 H1020 0.930 . S
C1001 N999 1.375 . S
C1001 C1000 1.338 . S
C1001 H1005 0.931 . S
C1002 N999 1.313 . S
C1002 N1003 1.344 . S
C1002 H1006 0.930 . S
N1003 C1000 1.377 . S
N1003 C1002 1.344 . S
O1004 Co996 2.055 . S
O1004 C1008 1.253 . S
H1005 C1001 0.931 . S
H1006 C1002 0.930 . S
O1007 Co996 2.039 . S
O1007 C997 1.265 . S
C1008 O1004 1.253 . S
C1008 O1009 1.227 . S
O1009 C1008 1.227 . S
N1010 Co996 2.140 . S
N1010 C1013 1.346 . S
N1010 C1014 1.345 . S
C1011 C1012 1.387 . S
C1011 C1015 1.391 . S
C1012 C1011 1.387 . S
C1012 C1013 1.369 . S
C1012 H1021 0.929 . S
C1013 N1010 1.346 . S
C1013 C1012 1.369 . S
C1013 H1016 0.928 . S
C1014 N1010 1.345 . S
C1014 C1015 1.371 . S
C1014 H1017 0.931 . S
C1015 C1011 1.391 . S
C1015 C1014 1.371 . S
C1015 H1022 0.930 . S
H1016 C1013 0.928 . S
H1017 C1014 0.931 . S
H1018 C994 0.930 . S
H1019 C991 0.930 . S
H1020 C1000 0.930 . S
H1021 C1012 0.929 . S
H1022 C1015 0.930 . S
C1023 C1024 1.351 . S
C1023 N1026 1.368 . S
C1023 H1028 0.931 . S
C1024 C1023 1.351 . S
C1024 N1025 1.373 . S
C1024 H1052 0.930 . S
N1025 C1024 1.373 . S
N1025 C1027 1.340 . S
N1026 C1023 1.368 . S
N1026 C1027 1.321 . S
N1026 Co1029 2.135 . S
C1027 N1025 1.340 . S
C1027 N1026 1.321 . S
C1027 H1051 0.930 . S
H1028 C1023 0.931 . S
Co1029 N1026 2.135 . S
Co1029 N1032 2.121 . S
Co1029 O1037 2.055 . S
Co1029 O1040 2.039 . S
Co1029 N1043 2.140 . S
C1030 O1031 1.227 . S
C1030 O1040 1.265 . S
O1031 C1030 1.227 . S
N1032 Co1029 2.121 . S
N1032 C1034 1.375 . S
N1032 C1035 1.313 . S
C1033 C1034 1.338 . S
C1033 N1036 1.377 . S
C1033 H1053 0.930 . S
C1034 N1032 1.375 . S
C1034 C1033 1.338 . S
C1034 H1038 0.931 . S
C1035 N1032 1.313 . S
C1035 N1036 1.344 . S
C1035 H1039 0.930 . S
N1036 C1033 1.377 . S
N1036 C1035 1.344 . S
O1037 Co1029 2.055 . S
O1037 C1041 1.253 . S
H1038 C1034 0.931 . S
H1039 C1035 0.930 . S
O1040 Co1029 2.039 . S
O1040 C1030 1.265 . S
C1041 O1037 1.253 . S
C1041 O1042 1.227 . S
O1042 C1041 1.227 . S
N1043 Co1029 2.140 . S
N1043 C1046 1.346 . S
N1043 C1047 1.345 . S
C1044 C1045 1.387 . S
C1044 C1048 1.391 . S
C1045 C1044 1.387 . S
C1045 C1046 1.369 . S
C1045 H1054 0.929 . S
C1046 N1043 1.346 . S
C1046 C1045 1.369 . S
C1046 H1049 0.928 . S
C1047 N1043 1.345 . S
C1047 C1048 1.371 . S
C1047 H1050 0.931 . S
C1048 C1044 1.391 . S
C1048 C1047 1.371 . S
C1048 H1055 0.930 . S
H1049 C1046 0.928 . S
H1050 C1047 0.931 . S
H1051 C1027 0.930 . S
H1052 C1024 0.930 . S
H1053 C1033 0.930 . S
H1054 C1045 0.929 . S
H1055 C1048 0.930 . S
C1056 C1057 1.351 . S
C1056 N1059 1.368 . S
C1056 H1061 0.931 . S
C1057 C1056 1.351 . S
C1057 N1058 1.373 . S
C1057 H1085 0.930 . S
N1058 C1057 1.373 . S
N1058 C1060 1.340 . S
N1059 C1056 1.368 . S
N1059 C1060 1.321 . S
N1059 Co1062 2.135 . S
C1060 N1058 1.340 . S
C1060 N1059 1.321 . S
C1060 H1084 0.930 . S
H1061 C1056 0.931 . S
Co1062 N1059 2.135 . S
Co1062 N1065 2.121 . S
Co1062 O1070 2.055 . S
Co1062 O1073 2.039 . S
Co1062 N1076 2.140 . S
C1063 O1064 1.227 . S
C1063 O1073 1.265 . S
O1064 C1063 1.227 . S
N1065 Co1062 2.121 . S
N1065 C1067 1.375 . S
N1065 C1068 1.313 . S
C1066 C1067 1.338 . S
C1066 N1069 1.377 . S
C1066 H1086 0.930 . S
C1067 N1065 1.375 . S
C1067 C1066 1.338 . S
C1067 H1071 0.931 . S
C1068 N1065 1.313 . S
C1068 N1069 1.344 . S
C1068 H1072 0.930 . S
N1069 C1066 1.377 . S
N1069 C1068 1.344 . S
O1070 Co1062 2.055 . S
O1070 C1074 1.253 . S
H1071 C1067 0.931 . S
H1072 C1068 0.930 . S
O1073 Co1062 2.039 . S
O1073 C1063 1.265 . S
C1074 O1070 1.253 . S
C1074 O1075 1.227 . S
O1075 C1074 1.227 . S
N1076 Co1062 2.140 . S
N1076 C1079 1.346 . S
N1076 C1080 1.345 . S
C1077 C1078 1.387 . S
C1077 C1081 1.391 . S
C1078 C1077 1.387 . S
C1078 C1079 1.369 . S
C1078 H1087 0.929 . S
C1079 N1076 1.346 . S
C1079 C1078 1.369 . S
C1079 H1082 0.928 . S
C1080 N1076 1.345 . S
C1080 C1081 1.371 . S
C1080 H1083 0.931 . S
C1081 C1077 1.391 . S
C1081 C1080 1.371 . S
C1081 H1088 0.930 . S
H1082 C1079 0.928 . S
H1083 C1080 0.931 . S
H1084 C1060 0.930 . S
H1085 C1057 0.930 . S
H1086 C1066 0.930 . S
H1087 C1078 0.929 . S
H1088 C1081 0.930 . S
C1089 C1090 1.351 . S
C1089 N1092 1.368 . S
C1089 H1094 0.931 . S
C1090 C1089 1.351 . S
C1090 N1091 1.373 . S
C1090 H1118 0.930 . S
N1091 C1090 1.373 . S
N1091 C1093 1.340 . S
N1092 C1089 1.368 . S
N1092 C1093 1.321 . S
N1092 Co1095 2.135 . S
C1093 N1091 1.340 . S
C1093 N1092 1.321 . S
C1093 H1117 0.930 . S
H1094 C1089 0.931 . S
Co1095 N1092 2.135 . S
Co1095 N1098 2.121 . S
Co1095 O1103 2.055 . S
Co1095 O1106 2.039 . S
Co1095 N1109 2.140 . S
C1096 O1097 1.227 . S
C1096 O1106 1.265 . S
O1097 C1096 1.227 . S
N1098 Co1095 2.121 . S
N1098 C1100 1.375 . S
N1098 C1101 1.313 . S
C1099 C1100 1.338 . S
C1099 N1102 1.377 . S
C1099 H1119 0.930 . S
C1100 N1098 1.375 . S
C1100 C1099 1.338 . S
C1100 H1104 0.931 . S
C1101 N1098 1.313 . S
C1101 N1102 1.344 . S
C1101 H1105 0.930 1_455 S
N1102 C1099 1.377 . S
N1102 C1101 1.344 . S
O1103 Co1095 2.055 . S
O1103 C1107 1.253 . S
H1104 C1100 0.931 . S
H1105 C1101 0.930 1_655 S
O1106 Co1095 2.039 . S
O1106 C1096 1.265 . S
C1107 O1103 1.253 . S
C1107 O1108 1.227 . S
O1108 C1107 1.227 . S
N1109 Co1095 2.140 . S
N1109 C1112 1.346 . S
N1109 C1113 1.345 . S
C1110 C1111 1.387 . S
C1110 C1114 1.391 . S
C1111 C1110 1.387 . S
C1111 C1112 1.369 . S
C1111 H1120 0.929 . S
C1112 N1109 1.346 . S
C1112 C1111 1.369 . S
C1112 H1115 0.928 . S
C1113 N1109 1.345 . S
C1113 C1114 1.371 . S
C1113 H1116 0.931 . S
C1114 C1110 1.391 . S
C1114 C1113 1.371 . S
C1114 H1121 0.930 1_455 S
H1115 C1112 0.928 . S
H1116 C1113 0.931 . S
H1117 C1093 0.930 . S
H1118 C1090 0.930 . S
H1119 C1099 0.930 . S
H1120 C1111 0.929 . S
H1121 C1114 0.930 1_655 S
C1122 C1123 1.351 . S
C1122 N1125 1.368 . S
C1122 H1127 0.931 . S
C1123 C1122 1.351 . S
C1123 N1124 1.373 . S
C1123 H1151 0.930 . S
N1124 C1123 1.373 . S
N1124 C1126 1.340 . S
N1125 C1122 1.368 . S
N1125 C1126 1.321 . S
N1125 Co1128 2.135 . S
C1126 N1124 1.340 . S
C1126 N1125 1.321 . S
C1126 H1150 0.930 . S
H1127 C1122 0.931 . S
Co1128 N1125 2.135 . S
Co1128 N1131 2.121 . S
Co1128 O1136 2.055 . S
Co1128 O1139 2.039 . S
Co1128 N1142 2.140 . S
C1129 O1130 1.227 . S
C1129 O1139 1.265 . S
O1130 C1129 1.227 . S
N1131 Co1128 2.121 . S
N1131 C1133 1.375 . S
N1131 C1134 1.313 . S
C1132 C1133 1.338 . S
C1132 N1135 1.377 . S
C1132 H1152 0.930 . S
C1133 N1131 1.375 . S
C1133 C1132 1.338 . S
C1133 H1137 0.931 . S
C1134 N1131 1.313 . S
C1134 N1135 1.344 . S
C1134 H1138 0.930 . S
N1135 C1132 1.377 . S
N1135 C1134 1.344 . S
O1136 Co1128 2.055 . S
O1136 C1140 1.253 . S
H1137 C1133 0.931 . S
H1138 C1134 0.930 . S
O1139 Co1128 2.039 . S
O1139 C1129 1.265 . S
C1140 O1136 1.253 . S
C1140 O1141 1.227 . S
O1141 C1140 1.227 . S
N1142 Co1128 2.140 . S
N1142 C1145 1.346 . S
N1142 C1146 1.345 . S
C1143 C1144 1.387 . S
C1143 C1147 1.391 . S
C1144 C1143 1.387 . S
C1144 C1145 1.369 . S
C1144 H1153 0.929 . S
C1145 N1142 1.346 . S
C1145 C1144 1.369 . S
C1145 H1148 0.928 . S
C1146 N1142 1.345 . S
C1146 C1147 1.371 . S
C1146 H1149 0.931 . S
C1147 C1143 1.391 . S
C1147 C1146 1.371 . S
C1147 H1154 0.930 . S
H1148 C1145 0.928 . S
H1149 C1146 0.931 . S
H1150 C1126 0.930 . S
H1151 C1123 0.930 . S
H1152 C1132 0.930 . S
H1153 C1144 0.929 . S
H1154 C1147 0.930 . S
C1155 C1156 1.351 . S
C1155 N1158 1.368 . S
C1155 H1160 0.931 . S
C1156 C1155 1.351 . S
C1156 N1157 1.373 . S
C1156 H1184 0.930 . S
N1157 C1156 1.373 . S
N1157 C1159 1.340 . S
N1158 C1155 1.368 . S
N1158 C1159 1.321 . S
N1158 Co1161 2.135 . S
C1159 N1157 1.340 . S
C1159 N1158 1.321 . S
C1159 H1183 0.930 . S
H1160 C1155 0.931 . S
Co1161 N1158 2.135 . S
Co1161 N1164 2.121 . S
Co1161 O1169 2.055 . S
Co1161 O1172 2.039 . S
Co1161 N1175 2.140 . S
C1162 O1163 1.227 . S
C1162 O1172 1.265 . S
O1163 C1162 1.227 . S
N1164 Co1161 2.121 . S
N1164 C1166 1.375 . S
N1164 C1167 1.313 . S
C1165 C1166 1.338 . S
C1165 N1168 1.377 . S
C1165 H1185 0.930 . S
C1166 N1164 1.375 . S
C1166 C1165 1.338 . S
C1166 H1170 0.931 . S
C1167 N1164 1.313 . S
C1167 N1168 1.344 . S
C1167 H1171 0.927 . S
N1168 C1165 1.377 . S
N1168 C1167 1.344 . S
O1169 Co1161 2.055 . S
O1169 C1173 1.253 . S
H1170 C1166 0.931 . S
H1171 C1167 0.927 . S
O1172 Co1161 2.039 . S
O1172 C1162 1.265 . S
C1173 O1169 1.253 . S
C1173 O1174 1.227 . S
O1174 C1173 1.227 . S
N1175 Co1161 2.140 . S
N1175 C1178 1.346 . S
N1175 C1179 1.345 . S
C1176 C1177 1.387 . S
C1176 C1180 1.391 . S
C1177 C1176 1.387 . S
C1177 C1178 1.369 . S
C1177 H1186 0.929 . S
C1178 N1175 1.346 . S
C1178 C1177 1.369 . S
C1178 H1181 0.928 . S
C1179 N1175 1.345 . S
C1179 C1180 1.371 . S
C1179 H1182 0.931 . S
C1180 C1176 1.391 . S
C1180 C1179 1.371 . S
C1180 H1187 0.930 1_565 S
H1181 C1178 0.928 . S
H1182 C1179 0.931 . S
H1183 C1159 0.930 . S
H1184 C1156 0.930 . S
H1185 C1165 0.930 . S
H1186 C1177 0.929 . S
H1187 C1180 0.930 1_545 S
H1188 C1200 0.930 . S
H1189 C1202 0.930 . S
H1190 C1203 0.930 . S
H1191 C1207 0.959 . S
H1192 C1207 0.959 . S
H1193 C1207 0.961 . S
H1194 C1208 0.960 . S
H1195 C1208 0.961 . S
H1196 C1208 0.959 . S
H1197 C1211 0.929 . S
H1198 C1212 0.931 . S
H1199 C1214 0.930 . S
C1200 H1188 0.930 . S
C1200 C1201 1.399 . S
C1200 C1205 1.399 . S
C1201 C1200 1.399 . S
C1201 C1202 1.376 . S
C1202 H1189 0.930 . S
C1202 C1201 1.376 . S
C1202 C1203 1.388 . S
C1203 H1190 0.930 . S
C1203 C1202 1.388 . S
C1203 C1204 1.390 . S
C1204 C1203 1.390 . S
C1204 C1205 1.394 . S
C1204 C1210 1.465 . S
C1205 C1200 1.399 . S
C1205 C1204 1.394 . S
C1205 C1206 1.516 . S
C1206 C1205 1.516 . S
C1206 C1207 1.502 . S
C1206 C1208 1.561 . S
C1206 C1209 1.526 . S
C1207 H1191 0.959 . S
C1207 H1192 0.959 . S
C1207 H1193 0.961 . S
C1207 C1206 1.502 . S
C1208 H1194 0.960 . S
C1208 H1195 0.961 . S
C1208 H1196 0.959 . S
C1208 C1206 1.561 . S
C1209 C1206 1.526 . S
C1209 C1210 1.396 . S
C1209 C1214 1.390 . S
C1210 C1204 1.465 . S
C1210 C1209 1.396 . S
C1210 C1211 1.399 . S
C1211 H1197 0.929 . S
C1211 C1210 1.399 . S
C1211 C1212 1.385 . S
C1212 H1198 0.931 . S
C1212 C1211 1.385 . S
C1212 C1213 1.389 . S
C1213 C1212 1.389 . S
C1213 C1214 1.387 . S
C1214 H1199 0.930 . S
C1214 C1209 1.390 . S
C1214 C1213 1.387 . S
H1215 C1227 0.930 . S
H1216 C1229 0.930 1_455 S
H1217 C1230 0.930 . S
H1218 C1234 0.959 . S
H1219 C1234 0.959 . S
H1220 C1234 0.961 . S
H1221 C1235 0.960 . S
H1222 C1235 0.961 . S
H1223 C1235 0.959 . S
H1224 C1238 0.929 . S
H1225 C1239 0.931 . S
H1226 C1241 0.930 . S
C1227 H1215 0.930 . S
C1227 C1228 1.399 . S
C1227 C1232 1.399 . S
C1228 C1227 1.399 . S
C1228 C1229 1.376 . S
C1229 H1216 0.930 1_655 S
C1229 C1228 1.376 . S
C1229 C1230 1.388 . S
C1230 H1217 0.930 . S
C1230 C1229 1.388 . S
C1230 C1231 1.390 . S
C1231 C1230 1.390 . S
C1231 C1232 1.394 . S
C1231 C1237 1.465 . S
C1232 C1227 1.399 . S
C1232 C1231 1.394 . S
C1232 C1233 1.516 . S
C1233 C1232 1.516 . S
C1233 C1234 1.502 . S
C1233 C1235 1.561 . S
C1233 C1236 1.526 . S
C1234 H1218 0.959 . S
C1234 H1219 0.959 . S
C1234 H1220 0.961 . S
C1234 C1233 1.502 . S
C1235 H1221 0.960 . S
C1235 H1222 0.961 . S
C1235 H1223 0.959 . S
C1235 C1233 1.561 . S
C1236 C1233 1.526 . S
C1236 C1237 1.396 . S
C1236 C1241 1.390 1_545 S
C1237 C1231 1.465 . S
C1237 C1236 1.396 . S
C1237 C1238 1.399 . S
C1238 H1224 0.929 . S
C1238 C1237 1.399 . S
C1238 C1239 1.385 1_545 S
C1239 H1225 0.931 . S
C1239 C1238 1.385 1_565 S
C1239 C1240 1.389 . S
C1240 C1239 1.389 . S
C1240 C1241 1.387 . S
C1241 H1226 0.930 . S
C1241 C1236 1.390 1_565 S
C1241 C1240 1.387 . S
H1242 C1254 0.930 . S
H1243 C1256 0.930 . S
H1244 C1257 0.930 . S
H1245 C1261 0.959 . S
H1246 C1261 0.959 . S
H1247 C1261 0.961 . S
H1248 C1262 0.960 . S
H1249 C1262 0.961 . S
H1250 C1262 0.959 . S
H1251 C1265 0.929 . S
H1252 C1266 0.931 . S
H1253 C1268 0.930 . S
C1254 H1242 0.930 . S
C1254 C1255 1.399 . S
C1254 C1259 1.399 . S
C1255 C1254 1.399 . S
C1255 C1256 1.376 . S
C1256 H1243 0.930 . S
C1256 C1255 1.376 . S
C1256 C1257 1.388 . S
C1257 H1244 0.930 . S
C1257 C1256 1.388 . S
C1257 C1258 1.390 . S
C1258 C1257 1.390 . S
C1258 C1259 1.394 . S
C1258 C1264 1.465 . S
C1259 C1254 1.399 . S
C1259 C1258 1.394 . S
C1259 C1260 1.516 . S
C1260 C1259 1.516 . S
C1260 C1261 1.502 . S
C1260 C1262 1.561 . S
C1260 C1263 1.526 . S
C1261 H1245 0.959 . S
C1261 H1246 0.959 . S
C1261 H1247 0.961 . S
C1261 C1260 1.502 . S
C1262 H1248 0.960 . S
C1262 H1249 0.961 . S
C1262 H1250 0.959 . S
C1262 C1260 1.561 . S
C1263 C1260 1.526 . S
C1263 C1264 1.396 . S
C1263 C1268 1.390 . S
C1264 C1258 1.465 . S
C1264 C1263 1.396 . S
C1264 C1265 1.399 . S
C1265 H1251 0.929 . S
C1265 C1264 1.399 . S
C1265 C1266 1.385 1_655 S
C1266 H1252 0.931 . S
C1266 C1265 1.385 1_455 S
C1266 C1267 1.389 . S
C1267 C1266 1.389 . S
C1267 C1268 1.387 1_455 S
C1268 H1253 0.930 . S
C1268 C1263 1.390 . S
C1268 C1267 1.387 1_655 S
H1269 C1281 0.940 . S
H1270 C1283 0.930 . S
H1271 C1284 0.930 . S
H1272 C1288 0.959 . S
H1273 C1288 0.959 . S
H1274 C1288 0.961 . S
H1275 C1289 0.960 . S
H1276 C1289 0.961 . S
H1277 C1289 0.959 . S
H1278 C1292 0.929 . S
H1279 C1293 0.931 . S
H1280 C1295 0.930 . S
C1281 H1269 0.940 . S
C1281 C1282 1.399 . S
C1281 C1286 1.399 . S
C1282 C1281 1.399 . S
C1282 C1283 1.376 . S
C1283 H1270 0.930 . S
C1283 C1282 1.376 . S
C1283 C1284 1.388 . S
C1284 H1271 0.930 . S
C1284 C1283 1.388 . S
C1284 C1285 1.390 . S
C1285 C1284 1.390 . S
C1285 C1286 1.394 . S
C1285 C1291 1.465 . S
C1286 C1281 1.399 . S
C1286 C1285 1.394 . S
C1286 C1287 1.516 . S
C1287 C1286 1.516 . S
C1287 C1288 1.502 . S
C1287 C1289 1.561 . S
C1287 C1290 1.526 . S
C1288 H1272 0.959 . S
C1288 H1273 0.959 . S
C1288 H1274 0.961 . S
C1288 C1287 1.502 . S
C1289 H1275 0.960 . S
C1289 H1276 0.961 . S
C1289 H1277 0.959 . S
C1289 C1287 1.561 . S
C1290 C1287 1.526 . S
C1290 C1291 1.396 . S
C1290 C1295 1.390 . S
C1291 C1285 1.465 . S
C1291 C1290 1.396 . S
C1291 C1292 1.399 . S
C1292 H1278 0.929 . S
C1292 C1291 1.399 . S
C1292 C1293 1.385 . S
C1293 H1279 0.931 . S
C1293 C1292 1.385 . S
C1293 C1294 1.389 . S
C1294 C1293 1.389 . S
C1294 C1295 1.387 . S
C1295 H1280 0.930 . S
C1295 C1290 1.390 . S
C1295 C1294 1.387 . S
H1296 C1308 0.930 . S
H1297 C1310 0.930 . S
H1298 C1311 0.930 . S
H1299 C1315 0.959 . S
H1300 C1315 0.959 . S
H1301 C1315 0.961 . S
H1302 C1316 0.960 . S
H1303 C1316 0.961 . S
H1304 C1316 0.959 . S
H1305 C1319 0.929 . S
H1306 C1320 0.931 . S
H1307 C1322 0.930 . S
C1308 H1296 0.930 . S
C1308 C1309 1.399 . S
C1308 C1313 1.399 . S
C1309 C1308 1.399 . S
C1309 C1310 1.376 . S
C1310 H1297 0.930 . S
C1310 C1309 1.376 . S
C1310 C1311 1.388 . S
C1311 H1298 0.930 . S
C1311 C1310 1.388 . S
C1311 C1312 1.390 . S
C1312 C1311 1.390 . S
C1312 C1313 1.394 . S
C1312 C1318 1.465 . S
C1313 C1308 1.399 . S
C1313 C1312 1.394 . S
C1313 C1314 1.516 . S
C1314 C1313 1.516 . S
C1314 C1315 1.502 . S
C1314 C1316 1.561 . S
C1314 C1317 1.526 . S
C1315 H1299 0.959 . S
C1315 H1300 0.959 . S
C1315 H1301 0.961 . S
C1315 C1314 1.502 . S
C1316 H1302 0.960 . S
C1316 H1303 0.961 . S
C1316 H1304 0.959 . S
C1316 C1314 1.561 . S
C1317 C1314 1.526 . S
C1317 C1318 1.396 . S
C1317 C1322 1.390 1_565 S
C1318 C1312 1.465 . S
C1318 C1317 1.396 . S
C1318 C1319 1.399 . S
C1319 H1305 0.929 . S
C1319 C1318 1.399 . S
C1319 C1320 1.385 1_565 S
C1320 H1306 0.931 . S
C1320 C1319 1.385 1_545 S
C1320 C1321 1.389 . S
C1321 C1320 1.389 . S
C1321 C1322 1.387 . S
C1322 H1307 0.930 . S
C1322 C1317 1.390 1_545 S
C1322 C1321 1.387 . S
H1323 C1335 0.930 1_545 S
H1324 C1337 0.930 . S
H1325 C1338 0.930 . S
H1326 C1342 0.959 . S
H1327 C1342 0.959 . S
H1328 C1342 0.961 . S
H1329 C1343 0.960 . S
H1330 C1343 0.961 . S
H1331 C1343 0.959 . S
H1332 C1346 0.929 . S
H1333 C1347 0.931 . S
H1334 C1349 0.930 . S
C1335 H1323 0.930 1_565 S
C1335 C1336 1.399 . S
C1335 C1340 1.399 . S
C1336 C1335 1.399 . S
C1336 C1337 1.376 . S
C1337 H1324 0.930 . S
C1337 C1336 1.376 . S
C1337 C1338 1.388 . S
C1338 H1325 0.930 . S
C1338 C1337 1.388 . S
C1338 C1339 1.390 . S
C1339 C1338 1.390 . S
C1339 C1340 1.394 . S
C1339 C1345 1.465 . S
C1340 C1335 1.399 . S
C1340 C1339 1.394 . S
C1340 C1341 1.516 . S
C1341 C1340 1.516 . S
C1341 C1342 1.502 . S
C1341 C1343 1.561 . S
C1341 C1344 1.526 . S
C1342 H1326 0.959 . S
C1342 H1327 0.959 . S
C1342 H1328 0.961 . S
C1342 C1341 1.502 . S
C1343 H1329 0.960 . S
C1343 H1330 0.961 . S
C1343 H1331 0.959 . S
C1343 C1341 1.561 . S
C1344 C1341 1.526 . S
C1344 C1345 1.396 . S
C1344 C1349 1.390 1_455 S
C1345 C1339 1.465 . S
C1345 C1344 1.396 . S
C1345 C1346 1.399 . S
C1346 H1332 0.929 . S
C1346 C1345 1.399 . S
C1346 C1347 1.385 1_455 S
C1347 H1333 0.931 . S
C1347 C1346 1.385 1_655 S
C1347 C1348 1.389 . S
C1348 C1347 1.389 . S
C1348 C1349 1.387 . S
C1349 H1334 0.930 . S
C1349 C1344 1.390 1_655 S
C1349 C1348 1.387 . S
H1350 C1362 0.930 . S
H1351 C1364 0.930 1_545 S
H1352 C1365 0.930 . S
H1353 C1369 0.959 . S
H1354 C1369 0.959 . S
H1355 C1369 0.961 . S
H1356 C1370 0.960 . S
H1357 C1370 0.961 . S
H1358 C1370 0.959 . S
H1359 C1373 0.929 . S
H1360 C1374 0.931 . S
H1361 C1376 0.930 . S
C1362 H1350 0.930 . S
C1362 C1363 1.399 . S
C1362 C1367 1.399 . S
C1363 C1362 1.399 . S
C1363 C1364 1.376 . S
C1364 H1351 0.930 1_565 S
C1364 C1363 1.376 . S
C1364 C1365 1.388 . S
C1365 H1352 0.930 . S
C1365 C1364 1.388 . S
C1365 C1366 1.390 . S
C1366 C1365 1.390 . S
C1366 C1367 1.394 . S
C1366 C1372 1.465 . S
C1367 C1362 1.399 . S
C1367 C1366 1.394 . S
C1367 C1368 1.516 . S
C1368 C1367 1.516 . S
C1368 C1369 1.502 . S
C1368 C1370 1.561 . S
C1368 C1371 1.526 . S
C1369 H1353 0.959 . S
C1369 H1354 0.959 . S
C1369 H1355 0.961 . S
C1369 C1368 1.502 . S
C1370 H1356 0.960 . S
C1370 H1357 0.961 . S
C1370 H1358 0.959 . S
C1370 C1368 1.561 . S
C1371 C1368 1.526 . S
C1371 C1372 1.396 . S
C1371 C1376 1.390 . S
C1372 C1366 1.465 . S
C1372 C1371 1.396 . S
C1372 C1373 1.399 . S
C1373 H1359 0.929 . S
C1373 C1372 1.399 . S
C1373 C1374 1.385 . S
C1374 H1360 0.931 . S
C1374 C1373 1.385 . S
C1374 C1375 1.389 . S
C1375 C1374 1.389 . S
C1375 C1376 1.387 . S
C1376 H1361 0.930 . S
C1376 C1371 1.390 . S
C1376 C1375 1.387 . S
H1377 C1389 0.926 1_545 S
H1378 C1391 0.930 . S
H1379 C1392 0.930 . S
H1380 C1396 0.959 . S
H1381 C1396 0.959 . S
H1382 C1396 0.961 . S
H1383 C1397 0.960 . S
H1384 C1397 0.961 . S
H1385 C1397 0.959 . S
H1386 C1400 0.929 . S
H1387 C1401 0.931 . S
H1388 C1403 0.930 . S
C1389 H1377 0.926 1_565 S
C1389 C1390 1.399 1_565 S
C1389 C1394 1.399 . S
C1390 C1389 1.399 1_545 S
C1390 C1391 1.376 . S
C1391 H1378 0.930 . S
C1391 C1390 1.376 . S
C1391 C1392 1.388 1_545 S
C1392 H1379 0.930 . S
C1392 C1391 1.388 1_565 S
C1392 C1393 1.390 . S
C1393 C1392 1.390 . S
C1393 C1394 1.394 . S
C1393 C1399 1.465 . S
C1394 C1389 1.399 . S
C1394 C1393 1.394 . S
C1394 C1395 1.516 . S
C1395 C1394 1.516 . S
C1395 C1396 1.502 . S
C1395 C1397 1.561 . S
C1395 C1398 1.526 . S
C1396 H1380 0.959 . S
C1396 H1381 0.959 . S
C1396 H1382 0.961 . S
C1396 C1395 1.502 . S
C1397 H1383 0.960 . S
C1397 H1384 0.961 . S
C1397 H1385 0.959 . S
C1397 C1395 1.561 . S
C1398 C1395 1.526 . S
C1398 C1399 1.396 . S
C1398 C1403 1.390 . S
C1399 C1393 1.465 . S
C1399 C1398 1.396 . S
C1399 C1400 1.399 . S
C1400 H1386 0.929 . S
C1400 C1399 1.399 . S
C1400 C1401 1.385 . S
C1401 H1387 0.931 . S
C1401 C1400 1.385 . S
C1401 C1402 1.389 . S
C1402 C1401 1.389 . S
C1402 C1403 1.387 . S
C1403 H1388 0.930 . S
C1403 C1398 1.390 . S
C1403 C1402 1.387 . S
H1404 C1416 0.930 . S
H1405 C1418 0.930 . S
H1406 C1419 0.930 . S
H1407 C1423 0.959 . S
H1408 C1423 0.959 . S
H1409 C1423 0.961 . S
H1410 C1424 0.960 . S
H1411 C1424 0.961 . S
H1412 C1424 0.959 . S
H1413 C1427 0.929 . S
H1414 C1428 0.919 1_655 S
H1415 C1430 0.930 . S
C1416 H1404 0.930 . S
C1416 C1417 1.399 . S
C1416 C1421 1.399 . S
C1417 C1416 1.399 . S
C1417 C1418 1.376 . S
C1418 H1405 0.930 . S
C1418 C1417 1.376 . S
C1418 C1419 1.388 . S
C1419 H1406 0.930 . S
C1419 C1418 1.388 . S
C1419 C1420 1.390 . S
C1420 C1419 1.390 . S
C1420 C1421 1.394 . S
C1420 C1426 1.465 . S
C1421 C1416 1.399 . S
C1421 C1420 1.394 . S
C1421 C1422 1.516 . S
C1422 C1421 1.516 . S
C1422 C1423 1.502 . S
C1422 C1424 1.561 . S
C1422 C1425 1.526 . S
C1423 H1407 0.959 . S
C1423 H1408 0.959 . S
C1423 H1409 0.961 . S
C1423 C1422 1.502 . S
C1424 H1410 0.960 . S
C1424 H1411 0.961 . S
C1424 H1412 0.959 . S
C1424 C1422 1.561 . S
C1425 C1422 1.526 . S
C1425 C1426 1.396 . S
C1425 C1430 1.390 1_455 S
C1426 C1420 1.465 . S
C1426 C1425 1.396 . S
C1426 C1427 1.399 . S
C1427 H1413 0.929 . S
C1427 C1426 1.399 . S
C1427 C1428 1.401 . S
C1428 H1414 0.919 1_455 S
C1428 C1427 1.401 . S
C1428 C1429 1.386 1_455 S
C1429 C1428 1.386 1_655 S
C1429 C1430 1.387 . S
C1430 H1415 0.930 . S
C1430 C1425 1.390 1_655 S
C1430 C1429 1.387 . S
H1431 C1443 0.930 . S
H1432 C1445 0.930 . S
H1433 C1446 0.930 . S
H1434 C1450 0.959 . S
H1435 C1450 0.959 . S
H1436 C1450 0.961 . S
H1437 C1451 0.960 . S
H1438 C1451 0.961 . S
H1439 C1451 0.959 . S
H1440 C1454 0.929 . S
H1441 C1455 0.931 . S
H1442 C1457 0.930 . S
C1443 H1431 0.930 . S
C1443 C1444 1.399 . S
C1443 C1448 1.399 . S
C1444 C1443 1.399 . S
C1444 C1445 1.376 . S
C1445 H1432 0.930 . S
C1445 C1444 1.376 . S
C1445 C1446 1.388 . S
C1446 H1433 0.930 . S
C1446 C1445 1.388 . S
C1446 C1447 1.390 . S
C1447 C1446 1.390 . S
C1447 C1448 1.394 . S
C1447 C1453 1.465 . S
C1448 C1443 1.399 . S
C1448 C1447 1.394 . S
C1448 C1449 1.516 . S
C1449 C1448 1.516 . S
C1449 C1450 1.502 . S
C1449 C1451 1.561 . S
C1449 C1452 1.526 . S
C1450 H1434 0.959 . S
C1450 H1435 0.959 . S
C1450 H1436 0.961 . S
C1450 C1449 1.502 . S
C1451 H1437 0.960 . S
C1451 H1438 0.961 . S
C1451 H1439 0.959 . S
C1451 C1449 1.561 . S
C1452 C1449 1.526 . S
C1452 C1453 1.396 . S
C1452 C1457 1.390 . S
C1453 C1447 1.465 . S
C1453 C1452 1.396 . S
C1453 C1454 1.399 . S
C1454 H1440 0.929 . S
C1454 C1453 1.399 . S
C1454 C1455 1.385 . S
C1455 H1441 0.931 . S
C1455 C1454 1.385 . S
C1455 C1456 1.389 . S
C1456 C1455 1.389 . S
C1456 C1457 1.387 . S
C1457 H1442 0.930 . S
C1457 C1452 1.390 . S
C1457 C1456 1.387 . S
H1458 C1470 0.930 . S
H1459 C1472 0.930 . S
H1460 C1473 0.930 . S
H1461 C1477 0.959 . S
H1462 C1477 0.959 . S
H1463 C1477 0.961 . S
H1464 C1478 0.960 . S
H1465 C1478 0.961 . S
H1466 C1478 0.959 . S
H1467 C1481 0.929 . S
H1468 C1482 0.931 . S
H1469 C1484 0.930 . S
C1470 H1458 0.930 . S
C1470 C1471 1.399 1_545 S
C1470 C1475 1.399 . S
C1471 C1470 1.399 1_565 S
C1471 C1472 1.376 . S
C1472 H1459 0.930 . S
C1472 C1471 1.376 . S
C1472 C1473 1.388 1_565 S
C1473 H1460 0.930 . S
C1473 C1472 1.388 1_545 S
C1473 C1474 1.390 . S
C1474 C1473 1.390 . S
C1474 C1475 1.394 . S
C1474 C1480 1.465 . S
C1475 C1470 1.399 . S
C1475 C1474 1.394 . S
C1475 C1476 1.516 . S
C1476 C1475 1.516 . S
C1476 C1477 1.502 . S
C1476 C1478 1.561 . S
C1476 C1479 1.526 . S
C1477 H1461 0.959 . S
C1477 H1462 0.959 . S
C1477 H1463 0.961 . S
C1477 C1476 1.502 . S
C1478 H1464 0.960 . S
C1478 H1465 0.961 . S
C1478 H1466 0.959 . S
C1478 C1476 1.561 . S
C1479 C1476 1.526 . S
C1479 C1480 1.396 . S
C1479 C1484 1.390 . S
C1480 C1474 1.465 . S
C1480 C1479 1.396 . S
C1480 C1481 1.399 . S
C1481 H1467 0.929 . S
C1481 C1480 1.399 . S
C1481 C1482 1.385 . S
C1482 H1468 0.931 . S
C1482 C1481 1.385 . S
C1482 C1483 1.389 . S
C1483 C1482 1.389 . S
C1483 C1484 1.387 . S
C1484 H1469 0.930 . S
C1484 C1479 1.390 . S
C1484 C1483 1.387 . S
H1485 C1497 0.930 . S
H1486 C1499 0.930 . S
H1487 C1500 0.930 . S
H1488 C1504 0.959 . S
H1489 C1504 0.959 . S
H1490 C1504 0.961 . S
H1491 C1505 0.960 . S
H1492 C1505 0.961 . S
H1493 C1505 0.959 . S
H1494 C1508 0.929 . S
H1495 C1509 0.931 . S
H1496 C1511 0.930 . S
C1497 H1485 0.930 . S
C1497 C1498 1.399 . S
C1497 C1502 1.399 . S
C1498 C1497 1.399 . S
C1498 C1499 1.376 . S
C1499 H1486 0.930 . S
C1499 C1498 1.376 . S
C1499 C1500 1.388 . S
C1500 H1487 0.930 . S
C1500 C1499 1.388 . S
C1500 C1501 1.390 . S
C1501 C1500 1.390 . S
C1501 C1502 1.394 . S
C1501 C1507 1.465 . S
C1502 C1497 1.399 . S
C1502 C1501 1.394 . S
C1502 C1503 1.516 . S
C1503 C1502 1.516 . S
C1503 C1504 1.502 . S
C1503 C1505 1.561 . S
C1503 C1506 1.526 . S
C1504 H1488 0.959 . S
C1504 H1489 0.959 . S
C1504 H1490 0.961 . S
C1504 C1503 1.502 . S
C1505 H1491 0.960 . S
C1505 H1492 0.961 . S
C1505 H1493 0.959 . S
C1505 C1503 1.561 . S
C1506 C1503 1.526 . S
C1506 C1507 1.396 . S
C1506 C1511 1.390 1_655 S
C1507 C1501 1.465 . S
C1507 C1506 1.396 . S
C1507 C1508 1.399 . S
C1508 H1494 0.929 . S
C1508 C1507 1.399 . S
C1508 C1509 1.385 1_655 S
C1509 H1495 0.931 . S
C1509 C1508 1.385 1_455 S
C1509 C1510 1.389 . S
C1510 C1509 1.389 . S
C1510 C1511 1.387 . S
C1511 H1496 0.930 . S
C1511 C1506 1.390 1_455 S
C1511 C1510 1.387 . S
H1512 C1524 0.930 . S
H1513 C1526 0.930 . S
H1514 C1527 0.930 . S
H1515 C1531 0.959 . S
H1516 C1531 0.959 . S
H1517 C1531 0.961 . S
H1518 C1532 0.960 . S
H1519 C1532 0.961 . S
H1520 C1532 0.959 . S
H1521 C1535 0.929 . S
H1522 C1536 0.931 . S
H1523 C1538 0.930 . S
C1524 H1512 0.930 . S
C1524 C1525 1.399 . S
C1524 C1529 1.399 . S
C1525 C1524 1.399 . S
C1525 C1526 1.376 . S
C1526 H1513 0.930 . S
C1526 C1525 1.376 . S
C1526 C1527 1.388 . S
C1527 H1514 0.930 . S
C1527 C1526 1.388 . S
C1527 C1528 1.390 . S
C1528 C1527 1.390 . S
C1528 C1529 1.394 . S
C1528 C1534 1.465 . S
C1529 C1524 1.399 . S
C1529 C1528 1.394 . S
C1529 C1530 1.516 . S
C1530 C1529 1.516 . S
C1530 C1531 1.502 . S
C1530 C1532 1.561 . S
C1530 C1533 1.526 . S
C1531 H1515 0.959 . S
C1531 H1516 0.959 . S
C1531 H1517 0.961 . S
C1531 C1530 1.502 . S
C1532 H1518 0.960 . S
C1532 H1519 0.961 . S
C1532 H1520 0.959 . S
C1532 C1530 1.561 . S
C1533 C1530 1.526 . S
C1533 C1534 1.396 . S
C1533 C1538 1.390 . S
C1534 C1528 1.465 . S
C1534 C1533 1.396 . S
C1534 C1535 1.399 . S
C1535 H1521 0.929 . S
C1535 C1534 1.399 . S
C1535 C1536 1.385 . S
C1536 H1522 0.931 . S
C1536 C1535 1.385 . S
C1536 C1537 1.389 . S
C1537 C1536 1.389 . S
C1537 C1538 1.387 . S
C1538 H1523 0.930 . S
C1538 C1533 1.390 . S
C1538 C1537 1.387 . S
H1539 C1551 0.930 . S
H1540 C1553 0.930 . S
H1541 C1554 0.930 . S
H1542 C1558 0.959 . S
H1543 C1558 0.959 . S
H1544 C1558 0.961 . S
H1545 C1559 0.960 . S
H1546 C1559 0.961 . S
H1547 C1559 0.959 . S
H1548 C1562 0.929 . S
H1549 C1563 0.931 . S
H1550 C1565 0.930 . S
C1551 H1539 0.930 . S
C1551 C1552 1.399 . S
C1551 C1556 1.399 . S
C1552 C1551 1.399 . S
C1552 C1553 1.376 . S
C1553 H1540 0.930 . S
C1553 C1552 1.376 . S
C1553 C1554 1.388 . S
C1554 H1541 0.930 . S
C1554 C1553 1.388 . S
C1554 C1555 1.390 . S
C1555 C1554 1.390 . S
C1555 C1556 1.394 . S
C1555 C1561 1.465 . S
C1556 C1551 1.399 . S
C1556 C1555 1.394 . S
C1556 C1557 1.516 . S
C1557 C1556 1.516 . S
C1557 C1558 1.502 . S
C1557 C1559 1.561 . S
C1557 C1560 1.526 . S
C1558 H1542 0.959 . S
C1558 H1543 0.959 . S
C1558 H1544 0.961 . S
C1558 C1557 1.502 . S
C1559 H1545 0.960 . S
C1559 H1546 0.961 . S
C1559 H1547 0.959 . S
C1559 C1557 1.561 . S
C1560 C1557 1.526 . S
C1560 C1561 1.396 . S
C1560 C1565 1.390 . S
C1561 C1555 1.465 . S
C1561 C1560 1.396 . S
C1561 C1562 1.399 . S
C1562 H1548 0.929 . S
C1562 C1561 1.399 . S
C1562 C1563 1.385 . S
C1563 H1549 0.931 . S
C1563 C1562 1.385 . S
C1563 C1564 1.389 . S
C1564 C1563 1.389 . S
C1564 C1565 1.387 . S
C1565 H1550 0.930 . S
C1565 C1560 1.390 . S
C1565 C1564 1.387 . S
H1566 C1578 0.930 . S
H1567 C1580 0.930 . S
H1568 C1581 0.930 . S
H1569 C1585 0.959 . S
H1570 C1585 0.959 . S
H1571 C1585 0.961 . S
H1572 C1586 0.960 . S
H1573 C1586 0.961 . S
H1574 C1586 0.959 . S
H1575 C1589 0.929 . S
H1576 C1590 0.931 . S
H1577 C1592 0.930 . S
C1578 H1566 0.930 . S
C1578 C1579 1.399 . S
C1578 C1583 1.399 . S
C1579 C1578 1.399 . S
C1579 C1580 1.376 . S
C1580 H1567 0.930 . S
C1580 C1579 1.376 . S
C1580 C1581 1.388 . S
C1581 H1568 0.930 . S
C1581 C1580 1.388 . S
C1581 C1582 1.390 . S
C1582 C1581 1.390 . S
C1582 C1583 1.394 . S
C1582 C1588 1.465 . S
C1583 C1578 1.399 . S
C1583 C1582 1.394 . S
C1583 C1584 1.516 . S
C1584 C1583 1.516 . S
C1584 C1585 1.502 . S
C1584 C1586 1.561 . S
C1584 C1587 1.526 . S
C1585 H1569 0.959 . S
C1585 H1570 0.959 . S
C1585 H1571 0.961 . S
C1585 C1584 1.502 . S
C1586 H1572 0.960 . S
C1586 H1573 0.961 . S
C1586 H1574 0.959 . S
C1586 C1584 1.561 . S
C1587 C1584 1.526 . S
C1587 C1588 1.396 . S
C1587 C1592 1.390 . S
C1588 C1582 1.465 . S
C1588 C1587 1.396 . S
C1588 C1589 1.399 . S
C1589 H1575 0.929 . S
C1589 C1588 1.399 . S
C1589 C1590 1.385 . S
C1590 H1576 0.931 . S
C1590 C1589 1.385 . S
C1590 C1591 1.389 . S
C1591 C1590 1.389 . S
C1591 C1592 1.387 . S
C1592 H1577 0.930 . S
C1592 C1587 1.390 . S
C1592 C1591 1.387 . S
H1593 C1605 0.930 . S
H1594 C1607 0.930 . S
H1595 C1608 0.930 . S
H1596 C1612 0.959 . S
H1597 C1612 0.959 . S
H1598 C1612 0.961 . S
H1599 C1613 0.960 . S
H1600 C1613 0.961 . S
H1601 C1613 0.959 . S
H1602 C1616 0.929 . S
H1603 C1617 0.931 . S
H1604 C1619 0.930 . S
C1605 H1593 0.930 . S
C1605 C1606 1.399 . S
C1605 C1610 1.399 . S
C1606 C1605 1.399 . S
C1606 C1607 1.376 . S
C1607 H1594 0.930 . S
C1607 C1606 1.376 . S
C1607 C1608 1.388 . S
C1608 H1595 0.930 . S
C1608 C1607 1.388 . S
C1608 C1609 1.390 . S
C1609 C1608 1.390 . S
C1609 C1610 1.394 . S
C1609 C1615 1.465 . S
C1610 C1605 1.399 . S
C1610 C1609 1.394 . S
C1610 C1611 1.516 . S
C1611 C1610 1.516 . S
C1611 C1612 1.502 . S
C1611 C1613 1.561 . S
C1611 C1614 1.526 . S
C1612 H1596 0.959 . S
C1612 H1597 0.959 . S
C1612 H1598 0.961 . S
C1612 C1611 1.502 . S
C1613 H1599 0.960 . S
C1613 H1600 0.961 . S
C1613 H1601 0.959 . S
C1613 C1611 1.561 . S
C1614 C1611 1.526 . S
C1614 C1615 1.396 . S
C1614 C1619 1.390 . S
C1615 C1609 1.465 . S
C1615 C1614 1.396 . S
C1615 C1616 1.399 . S
C1616 H1602 0.929 . S
C1616 C1615 1.399 . S
C1616 C1617 1.385 . S
C1617 H1603 0.931 . S
C1617 C1616 1.385 . S
C1617 C1618 1.389 . S
C1618 C1617 1.389 . S
C1618 C1619 1.387 . S
C1619 H1604 0.930 . S
C1619 C1614 1.390 . S
C1619 C1618 1.387 . S
H1620 C1632 0.930 . S
H1621 C1634 0.930 . S
H1622 C1635 0.930 . S
H1623 C1639 0.959 . S
H1624 C1639 0.959 . S
H1625 C1639 0.961 . S
H1626 C1640 0.960 . S
H1627 C1640 0.961 . S
H1628 C1640 0.959 . S
H1629 C1643 0.929 . S
H1630 C1644 0.931 . S
H1631 C1646 0.930 . S
C1632 H1620 0.930 . S
C1632 C1633 1.399 . S
C1632 C1637 1.399 . S
C1633 C1632 1.399 . S
C1633 C1634 1.376 . S
C1634 H1621 0.930 . S
C1634 C1633 1.376 . S
C1634 C1635 1.388 . S
C1635 H1622 0.930 . S
C1635 C1634 1.388 . S
C1635 C1636 1.390 . S
C1636 C1635 1.390 . S
C1636 C1637 1.394 . S
C1636 C1642 1.465 . S
C1637 C1632 1.399 . S
C1637 C1636 1.394 . S
C1637 C1638 1.516 . S
C1638 C1637 1.516 . S
C1638 C1639 1.502 . S
C1638 C1640 1.561 . S
C1638 C1641 1.526 . S
C1639 H1623 0.959 . S
C1639 H1624 0.959 . S
C1639 H1625 0.961 . S
C1639 C1638 1.502 . S
C1640 H1626 0.960 . S
C1640 H1627 0.961 . S
C1640 H1628 0.959 . S
C1640 C1638 1.561 . S
C1641 C1638 1.526 . S
C1641 C1642 1.396 . S
C1641 C1646 1.390 . S
C1642 C1636 1.465 . S
C1642 C1641 1.396 . S
C1642 C1643 1.399 . S
C1643 H1629 0.929 . S
C1643 C1642 1.399 . S
C1643 C1644 1.385 . S
C1644 H1630 0.931 . S
C1644 C1643 1.385 . S
C1644 C1645 1.389 . S
C1645 C1644 1.389 . S
C1645 C1646 1.387 . S
C1646 H1631 0.930 . S
C1646 C1641 1.390 . S
C1646 C1645 1.387 . S
H1647 C1659 0.930 . S
H1648 C1661 0.930 . S
H1649 C1662 0.930 . S
H1650 C1666 0.959 . S
H1651 C1666 0.959 . S
H1652 C1666 0.961 . S
H1653 C1667 0.960 . S
H1654 C1667 0.961 . S
H1655 C1667 0.959 . S
H1656 C1670 0.929 . S
H1657 C1671 0.931 . S
H1658 C1673 0.930 . S
C1659 H1647 0.930 . S
C1659 C1660 1.399 . S
C1659 C1664 1.399 . S
C1660 C1659 1.399 . S
C1660 C1661 1.376 . S
C1661 H1648 0.930 . S
C1661 C1660 1.376 . S
C1661 C1662 1.388 . S
C1662 H1649 0.930 . S
C1662 C1661 1.388 . S
C1662 C1663 1.390 . S
C1663 C1662 1.390 . S
C1663 C1664 1.394 . S
C1663 C1669 1.465 . S
C1664 C1659 1.399 . S
C1664 C1663 1.394 . S
C1664 C1665 1.516 . S
C1665 C1664 1.516 . S
C1665 C1666 1.502 . S
C1665 C1667 1.561 . S
C1665 C1668 1.526 . S
C1666 H1650 0.959 . S
C1666 H1651 0.959 . S
C1666 H1652 0.961 . S
C1666 C1665 1.502 . S
C1667 H1653 0.960 . S
C1667 H1654 0.961 . S
C1667 H1655 0.959 . S
C1667 C1665 1.561 . S
C1668 C1665 1.526 . S
C1668 C1669 1.396 . S
C1668 C1673 1.390 . S
C1669 C1663 1.465 . S
C1669 C1668 1.396 . S
C1669 C1670 1.399 . S
C1670 H1656 0.929 . S
C1670 C1669 1.399 . S
C1670 C1671 1.385 . S
C1671 H1657 0.931 . S
C1671 C1670 1.385 . S
C1671 C1672 1.389 . S
C1672 C1671 1.389 . S
C1672 C1673 1.387 . S
C1673 H1658 0.930 . S
C1673 C1668 1.390 . S
C1673 C1672 1.387 . S
H1674 C1686 0.930 . S
H1675 C1688 0.930 . S
H1676 C1689 0.930 . S
H1677 C1693 0.959 . S
H1678 C1693 0.959 . S
H1679 C1693 0.961 . S
H1680 C1694 0.960 . S
H1681 C1694 0.961 . S
H1682 C1694 0.959 . S
H1683 C1697 0.929 . S
H1684 C1698 0.931 . S
H1685 C1700 0.930 . S
C1686 H1674 0.930 . S
C1686 C1687 1.399 . S
C1686 C1691 1.399 . S
C1687 C1686 1.399 . S
C1687 C1688 1.376 . S
C1688 H1675 0.930 . S
C1688 C1687 1.376 . S
C1688 C1689 1.388 . S
C1689 H1676 0.930 . S
C1689 C1688 1.388 . S
C1689 C1690 1.390 . S
C1690 C1689 1.390 . S
C1690 C1691 1.394 . S
C1690 C1696 1.465 . S
C1691 C1686 1.399 . S
C1691 C1690 1.394 . S
C1691 C1692 1.516 . S
C1692 C1691 1.516 . S
C1692 C1693 1.502 . S
C1692 C1694 1.561 . S
C1692 C1695 1.526 . S
C1693 H1677 0.959 . S
C1693 H1678 0.959 . S
C1693 H1679 0.961 . S
C1693 C1692 1.502 . S
C1694 H1680 0.960 . S
C1694 H1681 0.961 . S
C1694 H1682 0.959 . S
C1694 C1692 1.561 . S
C1695 C1692 1.526 . S
C1695 C1696 1.396 . S
C1695 C1700 1.390 . S
C1696 C1690 1.465 . S
C1696 C1695 1.396 . S
C1696 C1697 1.399 . S
C1697 H1683 0.929 . S
C1697 C1696 1.399 . S
C1697 C1698 1.385 . S
C1698 H1684 0.931 . S
C1698 C1697 1.385 . S
C1698 C1699 1.389 . S
C1699 C1698 1.389 . S
C1699 C1700 1.387 . S
C1700 H1685 0.930 . S
C1700 C1695 1.390 . S
C1700 C1699 1.387 . S
H1701 C1713 0.930 . S
H1702 C1715 0.930 . S
H1703 C1716 0.930 . S
H1704 C1720 0.959 . S
H1705 C1720 0.959 . S
H1706 C1720 0.961 . S
H1707 C1721 0.960 . S
H1708 C1721 0.961 . S
H1709 C1721 0.959 . S
H1710 C1724 0.929 . S
H1711 C1725 0.931 . S
H1712 C1727 0.930 . S
C1713 H1701 0.930 . S
C1713 C1714 1.399 . S
C1713 C1718 1.399 . S
C1714 C1713 1.399 . S
C1714 C1715 1.376 . S
C1715 H1702 0.930 . S
C1715 C1714 1.376 . S
C1715 C1716 1.388 . S
C1716 H1703 0.930 . S
C1716 C1715 1.388 . S
C1716 C1717 1.390 . S
C1717 C1716 1.390 . S
C1717 C1718 1.394 . S
C1717 C1723 1.465 . S
C1718 C1713 1.399 . S
C1718 C1717 1.394 . S
C1718 C1719 1.516 . S
C1719 C1718 1.516 . S
C1719 C1720 1.502 . S
C1719 C1721 1.561 . S
C1719 C1722 1.526 . S
C1720 H1704 0.959 . S
C1720 H1705 0.959 . S
C1720 H1706 0.961 . S
C1720 C1719 1.502 . S
C1721 H1707 0.960 . S
C1721 H1708 0.961 . S
C1721 H1709 0.959 . S
C1721 C1719 1.561 . S
C1722 C1719 1.526 . S
C1722 C1723 1.396 . S
C1722 C1727 1.390 . S
C1723 C1717 1.465 . S
C1723 C1722 1.396 . S
C1723 C1724 1.399 . S
C1724 H1710 0.929 . S
C1724 C1723 1.399 . S
C1724 C1725 1.385 . S
C1725 H1711 0.931 . S
C1725 C1724 1.385 . S
C1725 C1726 1.389 . S
C1726 C1725 1.389 . S
C1726 C1727 1.387 . S
C1727 H1712 0.930 . S
C1727 C1722 1.390 . S
C1727 C1726 1.387 . S
H1728 C1740 0.930 . S
H1729 C1742 0.930 . S
H1730 C1743 0.930 . S
H1731 C1747 0.959 . S
H1732 C1747 0.959 . S
H1733 C1747 0.961 . S
H1734 C1748 0.960 . S
H1735 C1748 0.961 . S
H1736 C1748 0.959 . S
H1737 C1751 0.929 . S
H1738 C1752 0.931 . S
H1739 C1754 0.930 . S
C1740 H1728 0.930 . S
C1740 C1741 1.399 . S
C1740 C1745 1.399 . S
C1741 C1740 1.399 . S
C1741 C1742 1.376 . S
C1742 H1729 0.930 . S
C1742 C1741 1.376 . S
C1742 C1743 1.388 . S
C1743 H1730 0.930 . S
C1743 C1742 1.388 . S
C1743 C1744 1.390 . S
C1744 C1743 1.390 . S
C1744 C1745 1.394 . S
C1744 C1750 1.465 . S
C1745 C1740 1.399 . S
C1745 C1744 1.394 . S
C1745 C1746 1.516 . S
C1746 C1745 1.516 . S
C1746 C1747 1.502 . S
C1746 C1748 1.561 . S
C1746 C1749 1.526 . S
C1747 H1731 0.959 . S
C1747 H1732 0.959 . S
C1747 H1733 0.961 . S
C1747 C1746 1.502 . S
C1748 H1734 0.960 . S
C1748 H1735 0.961 . S
C1748 H1736 0.959 . S
C1748 C1746 1.561 . S
C1749 C1746 1.526 . S
C1749 C1750 1.396 . S
C1749 C1754 1.390 . S
C1750 C1744 1.465 . S
C1750 C1749 1.396 . S
C1750 C1751 1.399 . S
C1751 H1737 0.929 . S
C1751 C1750 1.399 . S
C1751 C1752 1.385 . S
C1752 H1738 0.931 . S
C1752 C1751 1.385 . S
C1752 C1753 1.389 . S
C1753 C1752 1.389 . S
C1753 C1754 1.387 . S
C1754 H1739 0.930 . S
C1754 C1749 1.390 . S
C1754 C1753 1.387 . S
H1755 C1767 0.930 . S
H1756 C1769 0.930 . S
H1757 C1770 0.930 . S
H1758 C1774 0.959 . S
H1759 C1774 0.959 . S
H1760 C1774 0.961 . S
H1761 C1775 0.960 . S
H1762 C1775 0.961 . S
H1763 C1775 0.959 . S
H1764 C1778 0.929 . S
H1765 C1779 0.931 . S
H1766 C1781 0.930 . S
C1767 H1755 0.930 . S
C1767 C1768 1.399 . S
C1767 C1772 1.399 . S
C1768 C1767 1.399 . S
C1768 C1769 1.376 . S
C1769 H1756 0.930 . S
C1769 C1768 1.376 . S
C1769 C1770 1.388 . S
C1770 H1757 0.930 . S
C1770 C1769 1.388 . S
C1770 C1771 1.390 . S
C1771 C1770 1.390 . S
C1771 C1772 1.394 . S
C1771 C1777 1.465 . S
C1772 C1767 1.399 . S
C1772 C1771 1.394 . S
C1772 C1773 1.516 . S
C1773 C1772 1.516 . S
C1773 C1774 1.502 . S
C1773 C1775 1.561 . S
C1773 C1776 1.526 . S
C1774 H1758 0.959 . S
C1774 H1759 0.959 . S
C1774 H1760 0.961 . S
C1774 C1773 1.502 . S
C1775 H1761 0.960 . S
C1775 H1762 0.961 . S
C1775 H1763 0.959 . S
C1775 C1773 1.561 . S
C1776 C1773 1.526 . S
C1776 C1777 1.396 . S
C1776 C1781 1.390 . S
C1777 C1771 1.465 . S
C1777 C1776 1.396 . S
C1777 C1778 1.399 . S
C1778 H1764 0.929 . S
C1778 C1777 1.399 . S
C1778 C1779 1.385 . S
C1779 H1765 0.931 . S
C1779 C1778 1.385 . S
C1779 C1780 1.389 . S
C1780 C1779 1.389 . S
C1780 C1781 1.387 . S
C1781 H1766 0.930 . S
C1781 C1776 1.390 . S
C1781 C1780 1.387 . S
H1782 C1794 0.930 . S
H1783 C1796 0.930 . S
H1784 C1797 0.930 . S
H1785 C1801 0.959 . S
H1786 C1801 0.959 . S
H1787 C1801 0.961 . S
H1788 C1802 0.960 . S
H1789 C1802 0.961 . S
H1790 C1802 0.959 . S
H1791 C1805 0.929 . S
H1792 C1806 0.931 . S
H1793 C1808 0.930 . S
C1794 H1782 0.930 . S
C1794 C1795 1.399 . S
C1794 C1799 1.399 . S
C1795 C1794 1.399 . S
C1795 C1796 1.376 . S
C1796 H1783 0.930 . S
C1796 C1795 1.376 . S
C1796 C1797 1.388 . S
C1797 H1784 0.930 . S
C1797 C1796 1.388 . S
C1797 C1798 1.390 . S
C1798 C1797 1.390 . S
C1798 C1799 1.394 . S
C1798 C1804 1.465 . S
C1799 C1794 1.399 . S
C1799 C1798 1.394 . S
C1799 C1800 1.516 . S
C1800 C1799 1.516 . S
C1800 C1801 1.502 . S
C1800 C1802 1.561 . S
C1800 C1803 1.526 . S
C1801 H1785 0.959 . S
C1801 H1786 0.959 . S
C1801 H1787 0.961 . S
C1801 C1800 1.502 . S
C1802 H1788 0.960 . S
C1802 H1789 0.961 . S
C1802 H1790 0.959 . S
C1802 C1800 1.561 . S
C1803 C1800 1.526 . S
C1803 C1804 1.396 . S
C1803 C1808 1.390 . S
C1804 C1798 1.465 . S
C1804 C1803 1.396 . S
C1804 C1805 1.399 . S
C1805 H1791 0.929 . S
C1805 C1804 1.399 . S
C1805 C1806 1.385 . S
C1806 H1792 0.931 . S
C1806 C1805 1.385 . S
C1806 C1807 1.389 . S
C1807 C1806 1.389 . S
C1807 C1808 1.387 . S
C1808 H1793 0.930 . S
C1808 C1803 1.390 . S
C1808 C1807 1.387 . S
H1809 C1821 0.930 . S
H1810 C1823 0.930 . S
H1811 C1824 0.930 . S
H1812 C1828 0.959 . S
H1813 C1828 0.959 . S
H1814 C1828 0.961 . S
H1815 C1829 0.960 . S
H1816 C1829 0.961 . S
H1817 C1829 0.959 . S
H1818 C1832 0.929 . S
H1819 C1833 0.931 . S
H1820 C1835 0.930 . S
C1821 H1809 0.930 . S
C1821 C1822 1.399 . S
C1821 C1826 1.399 . S
C1822 C1821 1.399 . S
C1822 C1823 1.376 . S
C1823 H1810 0.930 . S
C1823 C1822 1.376 . S
C1823 C1824 1.388 . S
C1824 H1811 0.930 . S
C1824 C1823 1.388 . S
C1824 C1825 1.390 . S
C1825 C1824 1.390 . S
C1825 C1826 1.394 . S
C1825 C1831 1.465 . S
C1826 C1821 1.399 . S
C1826 C1825 1.394 . S
C1826 C1827 1.516 . S
C1827 C1826 1.516 . S
C1827 C1828 1.502 . S
C1827 C1829 1.561 . S
C1827 C1830 1.526 . S
C1828 H1812 0.959 . S
C1828 H1813 0.959 . S
C1828 H1814 0.961 . S
C1828 C1827 1.502 . S
C1829 H1815 0.960 . S
C1829 H1816 0.961 . S
C1829 H1817 0.959 . S
C1829 C1827 1.561 . S
C1830 C1827 1.526 . S
C1830 C1831 1.396 . S
C1830 C1835 1.390 . S
C1831 C1825 1.465 . S
C1831 C1830 1.396 . S
C1831 C1832 1.399 . S
C1832 H1818 0.929 . S
C1832 C1831 1.399 . S
C1832 C1833 1.385 . S
C1833 H1819 0.931 . S
C1833 C1832 1.385 . S
C1833 C1834 1.389 . S
C1834 C1833 1.389 . S
C1834 C1835 1.387 . S
C1835 H1820 0.930 . S
C1835 C1830 1.390 . S
C1835 C1834 1.387 . S
H1836 C1848 0.930 . S
H1837 C1850 0.930 . S
H1838 C1851 0.930 . S
H1839 C1855 0.959 . S
H1840 C1855 0.959 . S
H1841 C1855 0.961 . S
H1842 C1856 0.960 . S
H1843 C1856 0.961 . S
H1844 C1856 0.959 . S
H1845 C1859 0.929 . S
H1846 C1860 0.931 . S
H1847 C1862 0.930 . S
C1848 H1836 0.930 . S
C1848 C1849 1.399 . S
C1848 C1853 1.399 . S
C1849 C1848 1.399 . S
C1849 C1850 1.376 . S
C1850 H1837 0.930 . S
C1850 C1849 1.376 . S
C1850 C1851 1.388 . S
C1851 H1838 0.930 . S
C1851 C1850 1.388 . S
C1851 C1852 1.390 . S
C1852 C1851 1.390 . S
C1852 C1853 1.394 . S
C1852 C1858 1.465 . S
C1853 C1848 1.399 . S
C1853 C1852 1.394 . S
C1853 C1854 1.516 . S
C1854 C1853 1.516 . S
C1854 C1855 1.502 . S
C1854 C1856 1.561 . S
C1854 C1857 1.526 . S
C1855 H1839 0.959 . S
C1855 H1840 0.959 . S
C1855 H1841 0.961 . S
C1855 C1854 1.502 . S
C1856 H1842 0.960 . S
C1856 H1843 0.961 . S
C1856 H1844 0.959 . S
C1856 C1854 1.561 . S
C1857 C1854 1.526 . S
C1857 C1858 1.396 . S
C1857 C1862 1.390 . S
C1858 C1852 1.465 . S
C1858 C1857 1.396 . S
C1858 C1859 1.399 . S
C1859 H1845 0.929 . S
C1859 C1858 1.399 . S
C1859 C1860 1.385 . S
C1860 H1846 0.931 . S
C1860 C1859 1.385 . S
C1860 C1861 1.389 . S
C1861 C1860 1.389 . S
C1861 C1862 1.387 . S
C1862 H1847 0.930 . S
C1862 C1857 1.390 . S
C1862 C1861 1.387 . S
H1863 C1875 0.930 . S
H1864 C1877 0.930 . S
H1865 C1878 0.930 . S
H1866 C1882 0.959 . S
H1867 C1882 0.959 . S
H1868 C1882 0.961 . S
H1869 C1883 0.960 . S
H1870 C1883 0.961 . S
H1871 C1883 0.959 . S
H1872 C1886 0.929 . S
H1873 C1887 0.931 . S
H1874 C1889 0.930 . S
C1875 H1863 0.930 . S
C1875 C1876 1.399 . S
C1875 C1880 1.399 . S
C1876 C1875 1.399 . S
C1876 C1877 1.376 . S
C1877 H1864 0.930 . S
C1877 C1876 1.376 . S
C1877 C1878 1.388 . S
C1878 H1865 0.930 . S
C1878 C1877 1.388 . S
C1878 C1879 1.390 . S
C1879 C1878 1.390 . S
C1879 C1880 1.394 . S
C1879 C1885 1.465 . S
C1880 C1875 1.399 . S
C1880 C1879 1.394 . S
C1880 C1881 1.516 . S
C1881 C1880 1.516 . S
C1881 C1882 1.502 . S
C1881 C1883 1.561 . S
C1881 C1884 1.526 . S
C1882 H1866 0.959 . S
C1882 H1867 0.959 . S
C1882 H1868 0.961 . S
C1882 C1881 1.502 . S
C1883 H1869 0.960 . S
C1883 H1870 0.961 . S
C1883 H1871 0.959 . S
C1883 C1881 1.561 . S
C1884 C1881 1.526 . S
C1884 C1885 1.396 . S
C1884 C1889 1.390 . S
C1885 C1879 1.465 . S
C1885 C1884 1.396 . S
C1885 C1886 1.399 . S
C1886 H1872 0.929 . S
C1886 C1885 1.399 . S
C1886 C1887 1.385 . S
C1887 H1873 0.931 . S
C1887 C1886 1.385 . S
C1887 C1888 1.389 . S
C1888 C1887 1.389 . S
C1888 C1889 1.387 . S
C1889 H1874 0.930 . S
C1889 C1884 1.390 . S
C1889 C1888 1.387 . S
H1890 C1902 0.930 . S
H1891 C1904 0.930 . S
H1892 C1905 0.930 . S
H1893 C1909 0.959 . S
H1894 C1909 0.959 . S
H1895 C1909 0.961 . S
H1896 C1910 0.960 . S
H1897 C1910 0.961 . S
H1898 C1910 0.959 . S
H1899 C1913 0.929 . S
H1900 C1914 0.931 . S
H1901 C1916 0.930 . S
C1902 H1890 0.930 . S
C1902 C1903 1.399 . S
C1902 C1907 1.399 . S
C1903 C1902 1.399 . S
C1903 C1904 1.376 . S
C1904 H1891 0.930 . S
C1904 C1903 1.376 . S
C1904 C1905 1.388 . S
C1905 H1892 0.930 . S
C1905 C1904 1.388 . S
C1905 C1906 1.390 . S
C1906 C1905 1.390 . S
C1906 C1907 1.394 . S
C1906 C1912 1.465 . S
C1907 C1902 1.399 . S
C1907 C1906 1.394 . S
C1907 C1908 1.516 . S
C1908 C1907 1.516 . S
C1908 C1909 1.502 . S
C1908 C1910 1.561 . S
C1908 C1911 1.526 . S
C1909 H1893 0.959 . S
C1909 H1894 0.959 . S
C1909 H1895 0.961 . S
C1909 C1908 1.502 . S
C1910 H1896 0.960 . S
C1910 H1897 0.961 . S
C1910 H1898 0.959 . S
C1910 C1908 1.561 . S
C1911 C1908 1.526 . S
C1911 C1912 1.396 . S
C1911 C1916 1.390 . S
C1912 C1906 1.465 . S
C1912 C1911 1.396 . S
C1912 C1913 1.399 . S
C1913 H1899 0.929 . S
C1913 C1912 1.399 . S
C1913 C1914 1.385 . S
C1914 H1900 0.931 . S
C1914 C1913 1.385 . S
C1914 C1915 1.389 . S
C1915 C1914 1.389 . S
C1915 C1916 1.387 . S
C1916 H1901 0.930 . S
C1916 C1911 1.390 . S
C1916 C1915 1.387 . S
H1917 C1929 0.930 . S
H1918 C1931 0.930 . S
H1919 C1932 0.930 . S
H1920 C1936 0.959 . S
H1921 C1936 0.959 . S
H1922 C1936 0.961 . S
H1923 C1937 0.960 . S
H1924 C1937 0.961 . S
H1925 C1937 0.959 . S
H1926 C1940 0.929 . S
H1927 C1941 0.931 . S
H1928 C1943 0.930 . S
C1929 H1917 0.930 . S
C1929 C1930 1.399 . S
C1929 C1934 1.399 . S
C1930 C1929 1.399 . S
C1930 C1931 1.376 . S
C1931 H1918 0.930 . S
C1931 C1930 1.376 . S
C1931 C1932 1.388 . S
C1932 H1919 0.930 . S
C1932 C1931 1.388 . S
C1932 C1933 1.390 . S
C1933 C1932 1.390 . S
C1933 C1934 1.394 . S
C1933 C1939 1.465 . S
C1934 C1929 1.399 . S
C1934 C1933 1.394 . S
C1934 C1935 1.516 . S
C1935 C1934 1.516 . S
C1935 C1936 1.502 . S
C1935 C1937 1.561 . S
C1935 C1938 1.526 . S
C1936 H1920 0.959 . S
C1936 H1921 0.959 . S
C1936 H1922 0.961 . S
C1936 C1935 1.502 . S
C1937 H1923 0.960 . S
C1937 H1924 0.961 . S
C1937 H1925 0.959 . S
C1937 C1935 1.561 . S
C1938 C1935 1.526 . S
C1938 C1939 1.396 . S
C1938 C1943 1.390 . S
C1939 C1933 1.465 . S
C1939 C1938 1.396 . S
C1939 C1940 1.399 . S
C1940 H1926 0.929 . S
C1940 C1939 1.399 . S
C1940 C1941 1.385 . S
C1941 H1927 0.931 . S
C1941 C1940 1.385 . S
C1941 C1942 1.389 . S
C1942 C1941 1.389 . S
C1942 C1943 1.387 . S
C1943 H1928 0.930 . S
C1943 C1938 1.390 . S
C1943 C1942 1.387 . S
H1944 C1956 0.930 . S
H1945 C1958 0.930 . S
H1946 C1959 0.930 . S
H1947 C1963 0.959 . S
H1948 C1963 0.959 . S
H1949 C1963 0.961 . S
H1950 C1964 0.960 . S
H1951 C1964 0.961 . S
H1952 C1964 0.959 . S
H1953 C1967 0.929 . S
H1954 C1968 0.931 . S
H1955 C1970 0.930 . S
C1956 H1944 0.930 . S
C1956 C1957 1.399 . S
C1956 C1961 1.399 . S
C1957 C1956 1.399 . S
C1957 C1958 1.376 . S
C1958 H1945 0.930 . S
C1958 C1957 1.376 . S
C1958 C1959 1.388 . S
C1959 H1946 0.930 . S
C1959 C1958 1.388 . S
C1959 C1960 1.390 . S
C1960 C1959 1.390 . S
C1960 C1961 1.394 . S
C1960 C1966 1.465 . S
C1961 C1956 1.399 . S
C1961 C1960 1.394 . S
C1961 C1962 1.516 . S
C1962 C1961 1.516 . S
C1962 C1963 1.502 . S
C1962 C1964 1.561 . S
C1962 C1965 1.526 . S
C1963 H1947 0.959 . S
C1963 H1948 0.959 . S
C1963 H1949 0.961 . S
C1963 C1962 1.502 . S
C1964 H1950 0.960 . S
C1964 H1951 0.961 . S
C1964 H1952 0.959 . S
C1964 C1962 1.561 . S
C1965 C1962 1.526 . S
C1965 C1966 1.396 . S
C1965 C1970 1.390 . S
C1966 C1960 1.465 . S
C1966 C1965 1.396 . S
C1966 C1967 1.399 . S
C1967 H1953 0.929 . S
C1967 C1966 1.399 . S
C1967 C1968 1.385 . S
C1968 H1954 0.931 . S
C1968 C1967 1.385 . S
C1968 C1969 1.389 . S
C1969 C1968 1.389 . S
C1969 C1970 1.387 . S
C1970 H1955 0.930 . S
C1970 C1965 1.390 . S
C1970 C1969 1.387 . S
H1971 C1983 0.930 . S
H1972 C1985 0.930 . S
H1973 C1986 0.930 . S
H1974 C1990 0.959 . S
H1975 C1990 0.959 . S
H1976 C1990 0.961 . S
H1977 C1991 0.960 . S
H1978 C1991 0.961 . S
H1979 C1991 0.959 . S
H1980 C1994 0.929 . S
H1981 C1995 0.931 . S
H1982 C1997 0.930 . S
C1983 H1971 0.930 . S
C1983 C1984 1.399 . S
C1983 C1988 1.399 . S
C1984 C1983 1.399 . S
C1984 C1985 1.376 . S
C1985 H1972 0.930 . S
C1985 C1984 1.376 . S
C1985 C1986 1.388 . S
C1986 H1973 0.930 . S
C1986 C1985 1.388 . S
C1986 C1987 1.390 . S
C1987 C1986 1.390 . S
C1987 C1988 1.394 . S
C1987 C1993 1.465 . S
C1988 C1983 1.399 . S
C1988 C1987 1.394 . S
C1988 C1989 1.516 . S
C1989 C1988 1.516 . S
C1989 C1990 1.502 . S
C1989 C1991 1.561 . S
C1989 C1992 1.526 . S
C1990 H1974 0.959 . S
C1990 H1975 0.959 . S
C1990 H1976 0.961 . S
C1990 C1989 1.502 . S
C1991 H1977 0.960 . S
C1991 H1978 0.961 . S
C1991 H1979 0.959 . S
C1991 C1989 1.561 . S
C1992 C1989 1.526 . S
C1992 C1993 1.396 . S
C1992 C1997 1.390 . S
C1993 C1987 1.465 . S
C1993 C1992 1.396 . S
C1993 C1994 1.399 . S
C1994 H1980 0.929 . S
C1994 C1993 1.399 . S
C1994 C1995 1.385 . S
C1995 H1981 0.931 . S
C1995 C1994 1.385 . S
C1995 C1996 1.389 . S
C1996 C1995 1.389 . S
C1996 C1997 1.387 . S
C1997 H1982 0.930 . S
C1997 C1992 1.390 . S
C1997 C1996 1.387 . S
H1998 C2010 0.930 . S
H1999 C2012 0.930 . S
H2000 C2013 0.930 . S
H2001 C2017 0.959 . S
H2002 C2017 0.959 . S
H2003 C2017 0.961 . S
H2004 C2018 0.960 . S
H2005 C2018 0.961 . S
H2006 C2018 0.959 . S
H2007 C2021 0.929 . S
H2008 C2022 0.931 . S
H2009 C2024 0.930 . S
C2010 H1998 0.930 . S
C2010 C2011 1.399 . S
C2010 C2015 1.399 . S
C2011 C2010 1.399 . S
C2011 C2012 1.376 . S
C2012 H1999 0.930 . S
C2012 C2011 1.376 . S
C2012 C2013 1.388 . S
C2013 H2000 0.930 . S
C2013 C2012 1.388 . S
C2013 C2014 1.390 . S
C2014 C2013 1.390 . S
C2014 C2015 1.394 . S
C2014 C2020 1.465 . S
C2015 C2010 1.399 . S
C2015 C2014 1.394 . S
C2015 C2016 1.516 . S
C2016 C2015 1.516 . S
C2016 C2017 1.502 . S
C2016 C2018 1.561 . S
C2016 C2019 1.526 . S
C2017 H2001 0.959 . S
C2017 H2002 0.959 . S
C2017 H2003 0.961 . S
C2017 C2016 1.502 . S
C2018 H2004 0.960 . S
C2018 H2005 0.961 . S
C2018 H2006 0.959 . S
C2018 C2016 1.561 . S
C2019 C2016 1.526 . S
C2019 C2020 1.396 . S
C2019 C2024 1.390 . S
C2020 C2014 1.465 . S
C2020 C2019 1.396 . S
C2020 C2021 1.399 . S
C2021 H2007 0.929 . S
C2021 C2020 1.399 . S
C2021 C2022 1.385 . S
C2022 H2008 0.931 . S
C2022 C2021 1.385 . S
C2022 C2023 1.389 . S
C2023 C2022 1.389 . S
C2023 C2024 1.387 . S
C2024 H2009 0.930 . S
C2024 C2019 1.390 . S
C2024 C2023 1.387 . S
H2025 C2037 0.930 . S
H2026 C2039 0.930 . S
H2027 C2040 0.930 . S
H2028 C2044 0.959 . S
H2029 C2044 0.959 . S
H2030 C2044 0.961 . S
H2031 C2045 0.960 . S
H2032 C2045 0.961 . S
H2033 C2045 0.959 . S
H2034 C2048 0.929 . S
H2035 C2049 0.931 . S
H2036 C2051 0.930 . S
C2037 H2025 0.930 . S
C2037 C2038 1.399 . S
C2037 C2042 1.399 . S
C2038 C2037 1.399 . S
C2038 C2039 1.376 . S
C2039 H2026 0.930 . S
C2039 C2038 1.376 . S
C2039 C2040 1.388 . S
C2040 H2027 0.930 . S
C2040 C2039 1.388 . S
C2040 C2041 1.390 . S
C2041 C2040 1.390 . S
C2041 C2042 1.394 . S
C2041 C2047 1.465 . S
C2042 C2037 1.399 . S
C2042 C2041 1.394 . S
C2042 C2043 1.516 . S
C2043 C2042 1.516 . S
C2043 C2044 1.502 . S
C2043 C2045 1.561 . S
C2043 C2046 1.526 . S
C2044 H2028 0.959 . S
C2044 H2029 0.959 . S
C2044 H2030 0.961 . S
C2044 C2043 1.502 . S
C2045 H2031 0.960 . S
C2045 H2032 0.961 . S
C2045 H2033 0.959 . S
C2045 C2043 1.561 . S
C2046 C2043 1.526 . S
C2046 C2047 1.396 . S
C2046 C2051 1.390 . S
C2047 C2041 1.465 . S
C2047 C2046 1.396 . S
C2047 C2048 1.399 . S
C2048 H2034 0.929 . S
C2048 C2047 1.399 . S
C2048 C2049 1.385 . S
C2049 H2035 0.931 . S
C2049 C2048 1.385 . S
C2049 C2050 1.389 . S
C2050 C2049 1.389 . S
C2050 C2051 1.387 . S
C2051 H2036 0.930 . S
C2051 C2046 1.390 . S
C2051 C2050 1.387 . S
H2052 C2064 0.930 . S
H2053 C2066 0.930 . S
H2054 C2067 0.930 . S
H2055 C2071 0.959 . S
H2056 C2071 0.959 . S
H2057 C2071 0.961 . S
H2058 C2072 0.960 . S
H2059 C2072 0.961 . S
H2060 C2072 0.959 . S
H2061 C2075 0.929 . S
H2062 C2076 0.931 . S
H2063 C2078 0.930 . S
C2064 H2052 0.930 . S
C2064 C2065 1.399 . S
C2064 C2069 1.399 . S
C2065 C2064 1.399 . S
C2065 C2066 1.376 . S
C2066 H2053 0.930 . S
C2066 C2065 1.376 . S
C2066 C2067 1.388 . S
C2067 H2054 0.930 . S
C2067 C2066 1.388 . S
C2067 C2068 1.390 . S
C2068 C2067 1.390 . S
C2068 C2069 1.394 . S
C2068 C2074 1.465 . S
C2069 C2064 1.399 . S
C2069 C2068 1.394 . S
C2069 C2070 1.516 . S
C2070 C2069 1.516 . S
C2070 C2071 1.502 . S
C2070 C2072 1.561 . S
C2070 C2073 1.526 . S
C2071 H2055 0.959 . S
C2071 H2056 0.959 . S
C2071 H2057 0.961 . S
C2071 C2070 1.502 . S
C2072 H2058 0.960 . S
C2072 H2059 0.961 . S
C2072 H2060 0.959 . S
C2072 C2070 1.561 . S
C2073 C2070 1.526 . S
C2073 C2074 1.396 . S
C2073 C2078 1.390 . S
C2074 C2068 1.465 . S
C2074 C2073 1.396 . S
C2074 C2075 1.399 . S
C2075 H2061 0.929 . S
C2075 C2074 1.399 . S
C2075 C2076 1.385 . S
C2076 H2062 0.931 . S
C2076 C2075 1.385 . S
C2076 C2077 1.389 . S
C2077 C2076 1.389 . S
C2077 C2078 1.387 . S
C2078 H2063 0.930 . S
C2078 C2073 1.390 . S
C2078 C2077 1.387 . S
H2079 C2091 0.930 . S
H2080 C2093 0.930 . S
H2081 C2094 0.930 . S
H2082 C2098 0.959 . S
H2083 C2098 0.959 . S
H2084 C2098 0.961 . S
H2085 C2099 0.960 . S
H2086 C2099 0.961 . S
H2087 C2099 0.959 . S
H2088 C2102 0.929 . S
H2089 C2103 0.931 . S
H2090 C2105 0.930 . S
C2091 H2079 0.930 . S
C2091 C2092 1.399 . S
C2091 C2096 1.399 . S
C2092 C2091 1.399 . S
C2092 C2093 1.376 . S
C2093 H2080 0.930 . S
C2093 C2092 1.376 . S
C2093 C2094 1.388 . S
C2094 H2081 0.930 . S
C2094 C2093 1.388 . S
C2094 C2095 1.390 . S
C2095 C2094 1.390 . S
C2095 C2096 1.394 . S
C2095 C2101 1.465 . S
C2096 C2091 1.399 . S
C2096 C2095 1.394 . S
C2096 C2097 1.516 . S
C2097 C2096 1.516 . S
C2097 C2098 1.502 . S
C2097 C2099 1.561 . S
C2097 C2100 1.526 . S
C2098 H2082 0.959 . S
C2098 H2083 0.959 . S
C2098 H2084 0.961 . S
C2098 C2097 1.502 . S
C2099 H2085 0.960 . S
C2099 H2086 0.961 . S
C2099 H2087 0.959 . S
C2099 C2097 1.561 . S
C2100 C2097 1.526 . S
C2100 C2101 1.396 . S
C2100 C2105 1.390 . S
C2101 C2095 1.465 . S
C2101 C2100 1.396 . S
C2101 C2102 1.399 . S
C2102 H2088 0.929 . S
C2102 C2101 1.399 . S
C2102 C2103 1.385 . S
C2103 H2089 0.931 . S
C2103 C2102 1.385 . S
C2103 C2104 1.389 . S
C2104 C2103 1.389 . S
C2104 C2105 1.387 . S
C2105 H2090 0.930 . S
C2105 C2100 1.390 . S
C2105 C2104 1.387 . S
H2106 C2118 0.930 . S
H2107 C2120 0.930 . S
H2108 C2121 0.930 . S
H2109 C2125 0.959 . S
H2110 C2125 0.959 . S
H2111 C2125 0.961 . S
H2112 C2126 0.960 . S
H2113 C2126 0.961 . S
H2114 C2126 0.959 . S
H2115 C2129 0.929 . S
H2116 C2130 0.931 . S
H2117 C2132 0.930 . S
C2118 H2106 0.930 . S
C2118 C2119 1.399 . S
C2118 C2123 1.399 . S
C2119 C2118 1.399 . S
C2119 C2120 1.376 . S
C2120 H2107 0.930 . S
C2120 C2119 1.376 . S
C2120 C2121 1.388 . S
C2121 H2108 0.930 . S
C2121 C2120 1.388 . S
C2121 C2122 1.390 . S
C2122 C2121 1.390 . S
C2122 C2123 1.394 . S
C2122 C2128 1.465 . S
C2123 C2118 1.399 . S
C2123 C2122 1.394 . S
C2123 C2124 1.516 . S
C2124 C2123 1.516 . S
C2124 C2125 1.502 . S
C2124 C2126 1.561 . S
C2124 C2127 1.526 . S
C2125 H2109 0.959 . S
C2125 H2110 0.959 . S
C2125 H2111 0.961 . S
C2125 C2124 1.502 . S
C2126 H2112 0.960 . S
C2126 H2113 0.961 . S
C2126 H2114 0.959 . S
C2126 C2124 1.561 . S
C2127 C2124 1.526 . S
C2127 C2128 1.396 . S
C2127 C2132 1.390 . S
C2128 C2122 1.465 . S
C2128 C2127 1.396 . S
C2128 C2129 1.399 . S
C2129 H2115 0.929 . S
C2129 C2128 1.399 . S
C2129 C2130 1.385 . S
C2130 H2116 0.931 . S
C2130 C2129 1.385 . S
C2130 C2131 1.389 . S
C2131 C2130 1.389 . S
C2131 C2132 1.387 . S
C2132 H2117 0.930 . S
C2132 C2127 1.390 . S
C2132 C2131 1.387 . S
H2133 C2145 0.930 . S
H2134 C2147 0.930 . S
H2135 C2148 0.930 . S
H2136 C2152 0.959 . S
H2137 C2152 0.959 . S
H2138 C2152 0.961 . S
H2139 C2153 0.960 . S
H2140 C2153 0.961 . S
H2141 C2153 0.959 . S
H2142 C2156 0.929 . S
H2143 C2157 0.931 . S
H2144 C2159 0.930 . S
C2145 H2133 0.930 . S
C2145 C2146 1.399 . S
C2145 C2150 1.399 . S
C2146 C2145 1.399 . S
C2146 C2147 1.376 . S
C2147 H2134 0.930 . S
C2147 C2146 1.376 . S
C2147 C2148 1.388 . S
C2148 H2135 0.930 . S
C2148 C2147 1.388 . S
C2148 C2149 1.390 . S
C2149 C2148 1.390 . S
C2149 C2150 1.394 . S
C2149 C2155 1.465 . S
C2150 C2145 1.399 . S
C2150 C2149 1.394 . S
C2150 C2151 1.516 . S
C2151 C2150 1.516 . S
C2151 C2152 1.502 . S
C2151 C2153 1.561 . S
C2151 C2154 1.526 . S
C2152 H2136 0.959 . S
C2152 H2137 0.959 . S
C2152 H2138 0.961 . S
C2152 C2151 1.502 . S
C2153 H2139 0.960 . S
C2153 H2140 0.961 . S
C2153 H2141 0.959 . S
C2153 C2151 1.561 . S
C2154 C2151 1.526 . S
C2154 C2155 1.396 . S
C2154 C2159 1.390 . S
C2155 C2149 1.465 . S
C2155 C2154 1.396 . S
C2155 C2156 1.399 . S
C2156 H2142 0.929 . S
C2156 C2155 1.399 . S
C2156 C2157 1.385 . S
C2157 H2143 0.931 . S
C2157 C2156 1.385 . S
C2157 C2158 1.389 . S
C2158 C2157 1.389 . S
C2158 C2159 1.387 . S
C2159 H2144 0.930 . S
C2159 C2154 1.390 . S
C2159 C2158 1.387 . S
H2160 C2172 0.930 . S
H2161 C2174 0.930 . S
H2162 C2175 0.930 . S
H2163 C2179 0.959 . S
H2164 C2179 0.959 . S
H2165 C2179 0.961 . S
H2166 C2180 0.960 . S
H2167 C2180 0.961 . S
H2168 C2180 0.959 . S
H2169 C2183 0.929 . S
H2170 C2184 0.931 . S
H2171 C2186 0.930 . S
C2172 H2160 0.930 . S
C2172 C2173 1.399 . S
C2172 C2177 1.399 . S
C2173 C2172 1.399 . S
C2173 C2174 1.376 . S
C2174 H2161 0.930 . S
C2174 C2173 1.376 . S
C2174 C2175 1.388 . S
C2175 H2162 0.930 . S
C2175 C2174 1.388 . S
C2175 C2176 1.390 . S
C2176 C2175 1.390 . S
C2176 C2177 1.394 . S
C2176 C2182 1.465 . S
C2177 C2172 1.399 . S
C2177 C2176 1.394 . S
C2177 C2178 1.516 . S
C2178 C2177 1.516 . S
C2178 C2179 1.502 . S
C2178 C2180 1.561 . S
C2178 C2181 1.526 . S
C2179 H2163 0.959 . S
C2179 H2164 0.959 . S
C2179 H2165 0.961 . S
C2179 C2178 1.502 . S
C2180 H2166 0.960 . S
C2180 H2167 0.961 . S
C2180 H2168 0.959 . S
C2180 C2178 1.561 . S
C2181 C2178 1.526 . S
C2181 C2182 1.396 . S
C2181 C2186 1.390 . S
C2182 C2176 1.465 . S
C2182 C2181 1.396 . S
C2182 C2183 1.399 . S
C2183 H2169 0.929 . S
C2183 C2182 1.399 . S
C2183 C2184 1.385 . S
C2184 H2170 0.931 . S
C2184 C2183 1.385 . S
C2184 C2185 1.389 . S
C2185 C2184 1.389 . S
C2185 C2186 1.387 . S
C2186 H2171 0.930 . S
C2186 C2181 1.390 . S
C2186 C2185 1.387 . S
H2187 C2199 0.930 . S
H2188 C2201 0.930 . S
H2189 C2202 0.930 . S
H2190 C2206 0.959 . S
H2191 C2206 0.959 . S
H2192 C2206 0.961 . S
H2193 C2207 0.960 . S
H2194 C2207 0.961 1_545 S
H2195 C2207 0.959 . S
H2196 C2210 0.929 . S
H2197 C2211 0.931 . S
H2198 C2213 0.918 1_545 S
C2199 H2187 0.930 . S
C2199 C2200 1.399 . S
C2199 C2204 1.399 . S
C2200 C2199 1.399 . S
C2200 C2201 1.376 . S
C2201 H2188 0.930 . S
C2201 C2200 1.376 . S
C2201 C2202 1.388 . S
C2202 H2189 0.930 . S
C2202 C2201 1.388 . S
C2202 C2203 1.390 . S
C2203 C2202 1.390 . S
C2203 C2204 1.394 . S
C2203 C2209 1.465 . S
C2204 C2199 1.399 . S
C2204 C2203 1.394 . S
C2204 C2205 1.516 . S
C2205 C2204 1.516 . S
C2205 C2206 1.502 . S
C2205 C2207 1.561 . S
C2205 C2208 1.526 . S
C2206 H2190 0.959 . S
C2206 H2191 0.959 . S
C2206 H2192 0.961 . S
C2206 C2205 1.502 . S
C2207 H2193 0.960 . S
C2207 H2194 0.961 1_565 S
C2207 H2195 0.959 . S
C2207 C2205 1.561 . S
C2208 C2205 1.526 . S
C2208 C2209 1.396 . S
C2208 C2213 1.390 . S
C2209 C2203 1.465 . S
C2209 C2208 1.396 . S
C2209 C2210 1.399 . S
C2210 H2196 0.929 . S
C2210 C2209 1.399 . S
C2210 C2211 1.385 . S
C2211 H2197 0.931 . S
C2211 C2210 1.385 . S
C2211 C2212 1.389 . S
C2212 C2211 1.389 . S
C2212 C2213 1.387 . S
C2213 H2198 0.918 1_565 S
C2213 C2208 1.390 . S
C2213 C2212 1.387 . S
H2214 C2226 0.930 . S
H2215 C2228 0.930 . S
H2216 C2229 0.930 . S
H2217 C2233 0.959 . S
H2218 C2233 0.959 . S
H2219 C2233 0.961 . S
H2220 C2234 0.960 . S
H2221 C2234 0.961 . S
H2222 C2234 0.959 . S
H2223 C2237 0.929 . S
H2224 C2238 0.931 . S
H2225 C2240 0.930 . S
C2226 H2214 0.930 . S
C2226 C2227 1.399 . S
C2226 C2231 1.399 . S
C2227 C2226 1.399 . S
C2227 C2228 1.376 . S
C2228 H2215 0.930 . S
C2228 C2227 1.376 . S
C2228 C2229 1.388 . S
C2229 H2216 0.930 . S
C2229 C2228 1.388 . S
C2229 C2230 1.390 . S
C2230 C2229 1.390 . S
C2230 C2231 1.394 . S
C2230 C2236 1.465 . S
C2231 C2226 1.399 . S
C2231 C2230 1.394 . S
C2231 C2232 1.516 . S
C2232 C2231 1.516 . S
C2232 C2233 1.502 . S
C2232 C2234 1.561 . S
C2232 C2235 1.526 . S
C2233 H2217 0.959 . S
C2233 H2218 0.959 . S
C2233 H2219 0.961 . S
C2233 C2232 1.502 . S
C2234 H2220 0.960 . S
C2234 H2221 0.961 . S
C2234 H2222 0.959 . S
C2234 C2232 1.561 . S
C2235 C2232 1.526 . S
C2235 C2236 1.396 . S
C2235 C2240 1.390 . S
C2236 C2230 1.465 . S
C2236 C2235 1.396 . S
C2236 C2237 1.399 . S
C2237 H2223 0.929 . S
C2237 C2236 1.399 . S
C2237 C2238 1.385 . S
C2238 H2224 0.931 . S
C2238 C2237 1.385 . S
C2238 C2239 1.389 . S
C2239 C2238 1.389 . S
C2239 C2240 1.387 . S
C2240 H2225 0.930 . S
C2240 C2235 1.390 . S
C2240 C2239 1.387 . S
H2241 C2253 0.930 . S
H2242 C2255 0.930 . S
H2243 C2256 0.930 . S
H2244 C2260 0.959 . S
H2245 C2260 0.959 . S
H2246 C2260 0.961 . S
H2247 C2261 0.960 . S
H2248 C2261 0.961 . S
H2249 C2261 0.959 . S
H2250 C2264 0.929 . S
H2251 C2265 0.931 . S
H2252 C2267 0.930 . S
C2253 H2241 0.930 . S
C2253 C2254 1.399 . S
C2253 C2258 1.399 . S
C2254 C2253 1.399 . S
C2254 C2255 1.376 . S
C2255 H2242 0.930 . S
C2255 C2254 1.376 . S
C2255 C2256 1.388 . S
C2256 H2243 0.930 . S
C2256 C2255 1.388 . S
C2256 C2257 1.390 . S
C2257 C2256 1.390 . S
C2257 C2258 1.394 . S
C2257 C2263 1.465 . S
C2258 C2253 1.399 . S
C2258 C2257 1.394 . S
C2258 C2259 1.516 . S
C2259 C2258 1.516 . S
C2259 C2260 1.502 . S
C2259 C2261 1.561 . S
C2259 C2262 1.526 . S
C2260 H2244 0.959 . S
C2260 H2245 0.959 . S
C2260 H2246 0.961 . S
C2260 C2259 1.502 . S
C2261 H2247 0.960 . S
C2261 H2248 0.961 . S
C2261 H2249 0.959 . S
C2261 C2259 1.561 . S
C2262 C2259 1.526 . S
C2262 C2263 1.396 . S
C2262 C2267 1.390 . S
C2263 C2257 1.465 . S
C2263 C2262 1.396 . S
C2263 C2264 1.399 . S
C2264 H2250 0.929 . S
C2264 C2263 1.399 . S
C2264 C2265 1.385 . S
C2265 H2251 0.931 . S
C2265 C2264 1.385 . S
C2265 C2266 1.389 . S
C2266 C2265 1.389 . S
C2266 C2267 1.387 . S
C2267 H2252 0.930 . S
C2267 C2262 1.390 . S
C2267 C2266 1.387 . S
H2268 C2280 0.930 1_565 S
H2269 C2282 0.930 . S
H2270 C2283 0.930 . S
H2271 C2287 0.959 . S
H2272 C2287 0.959 . S
H2273 C2287 0.961 1_565 S
H2274 C2288 0.960 . S
H2275 C2288 0.961 . S
H2276 C2288 0.959 . S
H2277 C2291 0.929 . S
H2278 C2292 0.931 . S
H2279 C2294 0.930 . S
C2280 H2268 0.930 1_545 S
C2280 C2281 1.399 . S
C2280 C2285 1.399 . S
C2281 C2280 1.399 . S
C2281 C2282 1.376 . S
C2282 H2269 0.930 . S
C2282 C2281 1.376 . S
C2282 C2283 1.388 . S
C2283 H2270 0.930 . S
C2283 C2282 1.388 . S
C2283 C2284 1.390 . S
C2284 C2283 1.390 . S
C2284 C2285 1.394 . S
C2284 C2290 1.465 . S
C2285 C2280 1.399 . S
C2285 C2284 1.394 . S
C2285 C2286 1.516 . S
C2286 C2285 1.516 . S
C2286 C2287 1.502 . S
C2286 C2288 1.561 . S
C2286 C2289 1.526 . S
C2287 H2271 0.959 . S
C2287 H2272 0.959 . S
C2287 H2273 0.961 1_545 S
C2287 C2286 1.502 . S
C2288 H2274 0.960 . S
C2288 H2275 0.961 . S
C2288 H2276 0.959 . S
C2288 C2286 1.561 . S
C2289 C2286 1.526 . S
C2289 C2290 1.396 . S
C2289 C2294 1.390 . S
C2290 C2284 1.465 . S
C2290 C2289 1.396 . S
C2290 C2291 1.399 . S
C2291 H2277 0.929 . S
C2291 C2290 1.399 . S
C2291 C2292 1.385 . S
C2292 H2278 0.931 . S
C2292 C2291 1.385 . S
C2292 C2293 1.389 . S
C2293 C2292 1.389 . S
C2293 C2294 1.387 . S
C2294 H2279 0.930 . S
C2294 C2289 1.390 . S
C2294 C2293 1.387 . S
H2295 C2307 0.930 . S
H2296 C2309 0.930 . S
H2297 C2310 0.930 . S
H2298 C2314 0.959 . S
H2299 C2314 0.959 . S
H2300 C2314 0.961 . S
H2301 C2315 0.960 . S
H2302 C2315 0.961 . S
H2303 C2315 0.959 . S
H2304 C2318 0.929 . S
H2305 C2319 0.931 . S
H2306 C2321 0.930 . S
C2307 H2295 0.930 . S
C2307 C2308 1.399 . S
C2307 C2312 1.399 . S
C2308 C2307 1.399 . S
C2308 C2309 1.376 . S
C2309 H2296 0.930 . S
C2309 C2308 1.376 . S
C2309 C2310 1.388 . S
C2310 H2297 0.930 . S
C2310 C2309 1.388 . S
C2310 C2311 1.390 . S
C2311 C2310 1.390 . S
C2311 C2312 1.394 . S
C2311 C2317 1.465 . S
C2312 C2307 1.399 . S
C2312 C2311 1.394 . S
C2312 C2313 1.516 . S
C2313 C2312 1.516 . S
C2313 C2314 1.502 . S
C2313 C2315 1.561 . S
C2313 C2316 1.526 . S
C2314 H2298 0.959 . S
C2314 H2299 0.959 . S
C2314 H2300 0.961 . S
C2314 C2313 1.502 . S
C2315 H2301 0.960 . S
C2315 H2302 0.961 . S
C2315 H2303 0.959 . S
C2315 C2313 1.561 . S
C2316 C2313 1.526 . S
C2316 C2317 1.396 . S
C2316 C2321 1.390 . S
C2317 C2311 1.465 . S
C2317 C2316 1.396 . S
C2317 C2318 1.399 . S
C2318 H2304 0.929 . S
C2318 C2317 1.399 . S
C2318 C2319 1.385 . S
C2319 H2305 0.931 . S
C2319 C2318 1.385 . S
C2319 C2320 1.389 . S
C2320 C2319 1.389 . S
C2320 C2321 1.387 . S
C2321 H2306 0.930 . S
C2321 C2316 1.390 . S
C2321 C2320 1.387 . S
H2322 C2334 0.930 . S
H2323 C2336 0.930 . S
H2324 C2337 0.930 . S
H2325 C2341 0.959 . S
H2326 C2341 0.959 . S
H2327 C2341 0.961 . S
H2328 C2342 0.960 . S
H2329 C2342 0.961 . S
H2330 C2342 0.959 . S
H2331 C2345 0.929 . S
H2332 C2346 0.931 . S
H2333 C2348 0.930 . S
C2334 H2322 0.930 . S
C2334 C2335 1.399 . S
C2334 C2339 1.399 . S
C2335 C2334 1.399 . S
C2335 C2336 1.376 . S
C2336 H2323 0.930 . S
C2336 C2335 1.376 . S
C2336 C2337 1.388 . S
C2337 H2324 0.930 . S
C2337 C2336 1.388 . S
C2337 C2338 1.390 . S
C2338 C2337 1.390 . S
C2338 C2339 1.394 . S
C2338 C2344 1.465 . S
C2339 C2334 1.399 . S
C2339 C2338 1.394 . S
C2339 C2340 1.516 . S
C2340 C2339 1.516 . S
C2340 C2341 1.502 . S
C2340 C2342 1.561 . S
C2340 C2343 1.526 . S
C2341 H2325 0.959 . S
C2341 H2326 0.959 . S
C2341 H2327 0.961 . S
C2341 C2340 1.502 . S
C2342 H2328 0.960 . S
C2342 H2329 0.961 . S
C2342 H2330 0.959 . S
C2342 C2340 1.561 . S
C2343 C2340 1.526 . S
C2343 C2344 1.396 . S
C2343 C2348 1.390 . S
C2344 C2338 1.465 . S
C2344 C2343 1.396 . S
C2344 C2345 1.399 . S
C2345 H2331 0.929 . S
C2345 C2344 1.399 . S
C2345 C2346 1.385 . S
C2346 H2332 0.931 . S
C2346 C2345 1.385 . S
C2346 C2347 1.389 . S
C2347 C2346 1.389 . S
C2347 C2348 1.387 . S
C2348 H2333 0.930 . S
C2348 C2343 1.390 . S
C2348 C2347 1.387 . S
H2349 C2361 0.930 . S
H2350 C2363 0.930 . S
H2351 C2364 0.930 . S
H2352 C2368 0.959 . S
H2353 C2368 0.959 . S
H2354 C2368 0.961 . S
H2355 C2369 0.960 . S
H2356 C2369 0.961 . S
H2357 C2369 0.959 . S
H2358 C2372 0.929 . S
H2359 C2373 0.931 . S
H2360 C2375 0.930 . S
C2361 H2349 0.930 . S
C2361 C2362 1.399 . S
C2361 C2366 1.399 . S
C2362 C2361 1.399 . S
C2362 C2363 1.376 . S
C2363 H2350 0.930 . S
C2363 C2362 1.376 . S
C2363 C2364 1.388 . S
C2364 H2351 0.930 . S
C2364 C2363 1.388 . S
C2364 C2365 1.390 . S
C2365 C2364 1.390 . S
C2365 C2366 1.394 . S
C2365 C2371 1.465 . S
C2366 C2361 1.399 . S
C2366 C2365 1.394 . S
C2366 C2367 1.516 . S
C2367 C2366 1.516 . S
C2367 C2368 1.502 . S
C2367 C2369 1.561 . S
C2367 C2370 1.526 . S
C2368 H2352 0.959 . S
C2368 H2353 0.959 . S
C2368 H2354 0.961 . S
C2368 C2367 1.502 . S
C2369 H2355 0.960 . S
C2369 H2356 0.961 . S
C2369 H2357 0.959 . S
C2369 C2367 1.561 . S
C2370 C2367 1.526 . S
C2370 C2371 1.396 . S
C2370 C2375 1.390 . S
C2371 C2365 1.465 . S
C2371 C2370 1.396 . S
C2371 C2372 1.399 . S
C2372 H2358 0.929 . S
C2372 C2371 1.399 . S
C2372 C2373 1.385 . S
C2373 H2359 0.931 . S
C2373 C2372 1.385 . S
C2373 C2374 1.389 . S
C2374 C2373 1.389 . S
C2374 C2375 1.387 . S
C2375 H2360 0.930 . S
C2375 C2370 1.390 . S
C2375 C2374 1.387 . S
H2376 C2388 0.930 . S
H2377 C2390 0.930 . S
H2378 C2391 0.930 . S
H2379 C2395 0.959 . S
H2380 C2395 0.959 1_455 S
H2381 C2395 0.961 . S
H2382 C2396 0.960 . S
H2383 C2396 0.961 . S
H2384 C2396 0.959 . S
H2385 C2399 0.929 . S
H2386 C2400 0.931 . S
H2387 C2402 0.930 1_455 S
C2388 H2376 0.930 . S
C2388 C2389 1.399 . S
C2388 C2393 1.399 . S
C2389 C2388 1.399 . S
C2389 C2390 1.376 . S
C2390 H2377 0.930 . S
C2390 C2389 1.376 . S
C2390 C2391 1.388 . S
C2391 H2378 0.930 . S
C2391 C2390 1.388 . S
C2391 C2392 1.390 . S
C2392 C2391 1.390 . S
C2392 C2393 1.394 . S
C2392 C2398 1.465 . S
C2393 C2388 1.399 . S
C2393 C2392 1.394 . S
C2393 C2394 1.516 . S
C2394 C2393 1.516 . S
C2394 C2395 1.502 . S
C2394 C2396 1.561 . S
C2394 C2397 1.526 . S
C2395 H2379 0.959 . S
C2395 H2380 0.959 1_655 S
C2395 H2381 0.961 . S
C2395 C2394 1.502 . S
C2396 H2382 0.960 . S
C2396 H2383 0.961 . S
C2396 H2384 0.959 . S
C2396 C2394 1.561 . S
C2397 C2394 1.526 . S
C2397 C2398 1.396 . S
C2397 C2402 1.390 . S
C2398 C2392 1.465 . S
C2398 C2397 1.396 . S
C2398 C2399 1.399 . S
C2399 H2385 0.929 . S
C2399 C2398 1.399 . S
C2399 C2400 1.385 . S
C2400 H2386 0.931 . S
C2400 C2399 1.385 . S
C2400 C2401 1.389 . S
C2401 C2400 1.389 . S
C2401 C2402 1.387 . S
C2402 H2387 0.930 1_655 S
C2402 C2397 1.390 . S
C2402 C2401 1.387 . S
H2403 C2415 0.930 . S
H2404 C2417 0.930 . S
H2405 C2418 0.930 . S
H2406 C2422 0.959 . S
H2407 C2422 0.959 . S
H2408 C2422 0.961 . S
H2409 C2423 0.960 . S
H2410 C2423 0.961 . S
H2411 C2423 0.959 . S
H2412 C2426 0.929 . S
H2413 C2427 0.931 . S
H2414 C2429 0.930 . S
C2415 H2403 0.930 . S
C2415 C2416 1.399 . S
C2415 C2420 1.399 . S
C2416 C2415 1.399 . S
C2416 C2417 1.376 . S
C2417 H2404 0.930 . S
C2417 C2416 1.376 . S
C2417 C2418 1.388 . S
C2418 H2405 0.930 . S
C2418 C2417 1.388 . S
C2418 C2419 1.390 . S
C2419 C2418 1.390 . S
C2419 C2420 1.394 . S
C2419 C2425 1.465 . S
C2420 C2415 1.399 . S
C2420 C2419 1.394 . S
C2420 C2421 1.516 . S
C2421 C2420 1.516 . S
C2421 C2422 1.502 . S
C2421 C2423 1.561 . S
C2421 C2424 1.526 . S
C2422 H2406 0.959 . S
C2422 H2407 0.959 . S
C2422 H2408 0.961 . S
C2422 C2421 1.502 . S
C2423 H2409 0.960 . S
C2423 H2410 0.961 . S
C2423 H2411 0.959 . S
C2423 C2421 1.561 . S
C2424 C2421 1.526 . S
C2424 C2425 1.396 . S
C2424 C2429 1.390 . S
C2425 C2419 1.465 . S
C2425 C2424 1.396 . S
C2425 C2426 1.399 . S
C2426 H2412 0.929 . S
C2426 C2425 1.399 . S
C2426 C2427 1.385 . S
C2427 H2413 0.931 . S
C2427 C2426 1.385 . S
C2427 C2428 1.389 . S
C2428 C2427 1.389 . S
C2428 C2429 1.387 . S
C2429 H2414 0.930 . S
C2429 C2424 1.390 . S
C2429 C2428 1.387 . S
H2430 C2442 0.930 . S
H2431 C2444 0.930 . S
H2432 C2445 0.930 . S
H2433 C2449 0.959 . S
H2434 C2449 0.959 . S
H2435 C2449 0.961 . S
H2436 C2450 0.960 . S
H2437 C2450 0.961 . S
H2438 C2450 0.959 . S
H2439 C2453 0.929 . S
H2440 C2454 0.904 1_545 S
H2441 C2456 0.930 . S
C2442 H2430 0.930 . S
C2442 C2443 1.399 . S
C2442 C2447 1.399 . S
C2443 C2442 1.399 . S
C2443 C2444 1.376 . S
C2444 H2431 0.930 . S
C2444 C2443 1.376 . S
C2444 C2445 1.388 . S
C2445 H2432 0.930 . S
C2445 C2444 1.388 . S
C2445 C2446 1.390 . S
C2446 C2445 1.390 . S
C2446 C2447 1.394 . S
C2446 C2452 1.465 . S
C2447 C2442 1.399 . S
C2447 C2446 1.394 . S
C2447 C2448 1.516 . S
C2448 C2447 1.516 . S
C2448 C2449 1.502 . S
C2448 C2450 1.561 . S
C2448 C2451 1.526 . S
C2449 H2433 0.959 . S
C2449 H2434 0.959 . S
C2449 H2435 0.961 . S
C2449 C2448 1.502 . S
C2450 H2436 0.960 . S
C2450 H2437 0.961 . S
C2450 H2438 0.959 . S
C2450 C2448 1.561 . S
C2451 C2448 1.526 . S
C2451 C2452 1.396 . S
C2451 C2456 1.390 . S
C2452 C2446 1.465 . S
C2452 C2451 1.396 . S
C2452 C2453 1.399 . S
C2453 H2439 0.929 . S
C2453 C2452 1.399 . S
C2453 C2454 1.385 . S
C2454 H2440 0.904 1_565 S
C2454 C2453 1.385 . S
C2454 C2455 1.416 . S
C2455 C2454 1.416 . S
C2455 C2456 1.387 . S
C2456 H2441 0.930 . S
C2456 C2451 1.390 . S
C2456 C2455 1.387 . S
H2457 C2469 0.930 . S
H2458 C2471 0.930 . S
H2459 C2472 0.930 . S
H2460 C2476 0.959 . S
H2461 C2476 0.959 . S
H2462 C2476 0.961 . S
H2463 C2477 0.960 . S
H2464 C2477 0.961 1_655 S
H2465 C2477 0.959 . S
H2466 C2480 0.929 . S
H2467 C2481 0.931 . S
H2468 C2483 0.930 . S
C2469 H2457 0.930 . S
C2469 C2470 1.399 . S
C2469 C2474 1.399 . S
C2470 C2469 1.399 . S
C2470 C2471 1.376 . S
C2471 H2458 0.930 . S
C2471 C2470 1.376 . S
C2471 C2472 1.388 . S
C2472 H2459 0.930 . S
C2472 C2471 1.388 . S
C2472 C2473 1.390 . S
C2473 C2472 1.390 . S
C2473 C2474 1.394 . S
C2473 C2479 1.465 . S
C2474 C2469 1.399 . S
C2474 C2473 1.394 . S
C2474 C2475 1.516 . S
C2475 C2474 1.516 . S
C2475 C2476 1.502 . S
C2475 C2477 1.561 . S
C2475 C2478 1.526 . S
C2476 H2460 0.959 . S
C2476 H2461 0.959 . S
C2476 H2462 0.961 . S
C2476 C2475 1.502 . S
C2477 H2463 0.960 . S
C2477 H2464 0.961 1_455 S
C2477 H2465 0.959 . S
C2477 C2475 1.561 . S
C2478 C2475 1.526 . S
C2478 C2479 1.396 . S
C2478 C2483 1.390 . S
C2479 C2473 1.465 . S
C2479 C2478 1.396 . S
C2479 C2480 1.399 . S
C2480 H2466 0.929 . S
C2480 C2479 1.399 . S
C2480 C2481 1.385 . S
C2481 H2467 0.931 . S
C2481 C2480 1.385 . S
C2481 C2482 1.389 . S
C2482 C2481 1.389 . S
C2482 C2483 1.387 . S
C2483 H2468 0.930 . S
C2483 C2478 1.390 . S
C2483 C2482 1.387 . S
H2484 C2496 0.930 . S
H2485 C2498 0.930 . S
H2486 C2499 0.930 . S
H2487 C2503 0.959 . S
H2488 C2503 0.959 . S
H2489 C2503 0.961 . S
H2490 C2504 0.960 . S
H2491 C2504 0.961 . S
H2492 C2504 0.959 . S
H2493 C2507 0.929 . S
H2494 C2508 0.931 . S
H2495 C2510 0.930 . S
C2496 H2484 0.930 . S
C2496 C2497 1.399 . S
C2496 C2501 1.399 . S
C2497 C2496 1.399 . S
C2497 C2498 1.376 . S
C2498 H2485 0.930 . S
C2498 C2497 1.376 . S
C2498 C2499 1.388 . S
C2499 H2486 0.930 . S
C2499 C2498 1.388 . S
C2499 C2500 1.390 . S
C2500 C2499 1.390 . S
C2500 C2501 1.394 . S
C2500 C2506 1.465 . S
C2501 C2496 1.399 . S
C2501 C2500 1.394 . S
C2501 C2502 1.516 . S
C2502 C2501 1.516 . S
C2502 C2503 1.502 . S
C2502 C2504 1.561 . S
C2502 C2505 1.526 . S
C2503 H2487 0.959 . S
C2503 H2488 0.959 . S
C2503 H2489 0.961 . S
C2503 C2502 1.502 . S
C2504 H2490 0.960 . S
C2504 H2491 0.961 . S
C2504 H2492 0.959 . S
C2504 C2502 1.561 . S
C2505 C2502 1.526 . S
C2505 C2506 1.396 . S
C2505 C2510 1.390 . S
C2506 C2500 1.465 . S
C2506 C2505 1.396 . S
C2506 C2507 1.399 . S
C2507 H2493 0.929 . S
C2507 C2506 1.399 . S
C2507 C2508 1.385 1_655 S
C2508 H2494 0.931 . S
C2508 C2507 1.385 1_455 S
C2508 C2509 1.389 . S
C2509 C2508 1.389 . S
C2509 C2510 1.387 1_455 S
C2510 H2495 0.930 . S
C2510 C2505 1.390 . S
C2510 C2509 1.387 1_655 S
H2511 C2523 0.930 . S
H2512 C2525 0.930 . S
H2513 C2526 0.930 . S
H2514 C2530 0.959 . S
H2515 C2530 0.959 . S
H2516 C2530 0.961 . S
H2517 C2531 0.960 . S
H2518 C2531 0.961 . S
H2519 C2531 0.959 . S
H2520 C2534 0.929 . S
H2521 C2535 0.931 . S
H2522 C2537 0.930 . S
C2523 H2511 0.930 . S
C2523 C2524 1.399 . S
C2523 C2528 1.399 . S
C2524 C2523 1.399 . S
C2524 C2525 1.376 . S
C2525 H2512 0.930 . S
C2525 C2524 1.376 . S
C2525 C2526 1.388 . S
C2526 H2513 0.930 . S
C2526 C2525 1.388 . S
C2526 C2527 1.390 . S
C2527 C2526 1.390 . S
C2527 C2528 1.394 . S
C2527 C2533 1.465 . S
C2528 C2523 1.399 . S
C2528 C2527 1.394 . S
C2528 C2529 1.516 . S
C2529 C2528 1.516 . S
C2529 C2530 1.502 . S
C2529 C2531 1.561 . S
C2529 C2532 1.526 . S
C2530 H2514 0.959 . S
C2530 H2515 0.959 . S
C2530 H2516 0.961 . S
C2530 C2529 1.502 . S
C2531 H2517 0.960 . S
C2531 H2518 0.961 . S
C2531 H2519 0.959 . S
C2531 C2529 1.561 . S
C2532 C2529 1.526 . S
C2532 C2533 1.396 . S
C2532 C2537 1.390 . S
C2533 C2527 1.465 . S
C2533 C2532 1.396 . S
C2533 C2534 1.399 . S
C2534 H2520 0.929 . S
C2534 C2533 1.399 . S
C2534 C2535 1.385 . S
C2535 H2521 0.931 . S
C2535 C2534 1.385 . S
C2535 C2536 1.389 . S
C2536 C2535 1.389 . S
C2536 C2537 1.387 . S
C2537 H2522 0.930 . S
C2537 C2532 1.390 . S
C2537 C2536 1.387 . S
H2538 C2550 0.930 . S
H2539 C2552 0.930 . S
H2540 C2553 0.930 . S
H2541 C2557 0.959 . S
H2542 C2557 0.959 . S
H2543 C2557 0.961 . S
H2544 C2558 0.960 1_565 S
H2545 C2558 0.961 . S
H2546 C2558 0.959 . S
H2547 C2561 0.929 . S
H2548 C2562 0.931 . S
H2549 C2564 0.930 . S
C2550 H2538 0.930 . S
C2550 C2551 1.399 . S
C2550 C2555 1.399 1_565 S
C2551 C2550 1.399 . S
C2551 C2552 1.376 1_565 S
C2552 H2539 0.930 . S
C2552 C2551 1.376 1_545 S
C2552 C2553 1.388 . S
C2553 H2540 0.930 . S
C2553 C2552 1.388 . S
C2553 C2554 1.390 . S
C2554 C2553 1.390 . S
C2554 C2555 1.394 . S
C2554 C2560 1.465 . S
C2555 C2550 1.399 1_545 S
C2555 C2554 1.394 . S
C2555 C2556 1.516 . S
C2556 C2555 1.516 . S
C2556 C2557 1.502 . S
C2556 C2558 1.561 . S
C2556 C2559 1.526 . S
C2557 H2541 0.959 . S
C2557 H2542 0.959 . S
C2557 H2543 0.961 . S
C2557 C2556 1.502 . S
C2558 H2544 0.960 1_545 S
C2558 H2545 0.961 . S
C2558 H2546 0.959 . S
C2558 C2556 1.561 . S
C2559 C2556 1.526 . S
C2559 C2560 1.396 . S
C2559 C2564 1.390 . S
C2560 C2554 1.465 . S
C2560 C2559 1.396 . S
C2560 C2561 1.399 . S
C2561 H2547 0.929 . S
C2561 C2560 1.399 . S
C2561 C2562 1.385 . S
C2562 H2548 0.931 . S
C2562 C2561 1.385 . S
C2562 C2563 1.389 . S
C2563 C2562 1.389 . S
C2563 C2564 1.387 . S
C2564 H2549 0.930 . S
C2564 C2559 1.390 . S
C2564 C2563 1.387 . S
H2565 C2577 0.930 . S
H2566 C2579 0.930 . S
H2567 C2580 0.930 . S
H2568 C2584 0.959 . S
H2569 C2584 0.959 . S
H2570 C2584 0.961 . S
H2571 C2585 0.960 . S
H2572 C2585 0.961 . S
H2573 C2585 0.959 . S
H2574 C2588 0.929 . S
H2575 C2589 0.931 . S
H2576 C2591 0.930 . S
C2577 H2565 0.930 . S
C2577 C2578 1.399 1_455 S
C2577 C2582 1.399 . S
C2578 C2577 1.399 1_655 S
C2578 C2579 1.376 . S
C2579 H2566 0.930 . S
C2579 C2578 1.376 . S
C2579 C2580 1.388 . S
C2580 H2567 0.930 . S
C2580 C2579 1.388 . S
C2580 C2581 1.390 1_655 S
C2581 C2580 1.390 1_455 S
C2581 C2582 1.394 . S
C2581 C2587 1.465 . S
C2582 C2577 1.399 . S
C2582 C2581 1.394 . S
C2582 C2583 1.516 . S
C2583 C2582 1.516 . S
C2583 C2584 1.502 . S
C2583 C2585 1.561 1_455 S
C2583 C2586 1.526 . S
C2584 H2568 0.959 . S
C2584 H2569 0.959 . S
C2584 H2570 0.961 . S
C2584 C2583 1.502 . S
C2585 H2571 0.960 . S
C2585 H2572 0.961 . S
C2585 H2573 0.959 . S
C2585 C2583 1.561 1_655 S
C2586 C2583 1.526 . S
C2586 C2587 1.396 . S
C2586 C2591 1.390 . S
C2587 C2581 1.465 . S
C2587 C2586 1.396 . S
C2587 C2588 1.399 . S
C2588 H2574 0.929 . S
C2588 C2587 1.399 . S
C2588 C2589 1.385 . S
C2589 H2575 0.931 . S
C2589 C2588 1.385 . S
C2589 C2590 1.389 . S
C2590 C2589 1.389 . S
C2590 C2591 1.387 . S
C2591 H2576 0.930 . S
C2591 C2586 1.390 . S
C2591 C2590 1.387 . S
H2592 C2604 0.930 . S
H2593 C2606 0.930 . S
H2594 C2607 0.930 . S
H2595 C2611 0.959 . S
H2596 C2611 0.959 . S
H2597 C2611 0.961 . S
H2598 C2612 0.960 . S
H2599 C2612 0.961 . S
H2600 C2612 0.959 . S
H2601 C2615 0.929 . S
H2602 C2616 0.931 . S
H2603 C2618 0.930 . S
C2604 H2592 0.930 . S
C2604 C2605 1.399 . S
C2604 C2609 1.399 . S
C2605 C2604 1.399 . S
C2605 C2606 1.376 . S
C2606 H2593 0.930 . S
C2606 C2605 1.376 . S
C2606 C2607 1.388 . S
C2607 H2594 0.930 . S
C2607 C2606 1.388 . S
C2607 C2608 1.390 . S
C2608 C2607 1.390 . S
C2608 C2609 1.394 . S
C2608 C2614 1.465 . S
C2609 C2604 1.399 . S
C2609 C2608 1.394 . S
C2609 C2610 1.516 . S
C2610 C2609 1.516 . S
C2610 C2611 1.502 . S
C2610 C2612 1.561 . S
C2610 C2613 1.526 . S
C2611 H2595 0.959 . S
C2611 H2596 0.959 . S
C2611 H2597 0.961 . S
C2611 C2610 1.502 . S
C2612 H2598 0.960 . S
C2612 H2599 0.961 . S
C2612 H2600 0.959 . S
C2612 C2610 1.561 . S
C2613 C2610 1.526 . S
C2613 C2614 1.396 . S
C2613 C2618 1.390 . S
C2614 C2608 1.465 . S
C2614 C2613 1.396 . S
C2614 C2615 1.399 . S
C2615 H2601 0.929 . S
C2615 C2614 1.399 . S
C2615 C2616 1.385 . S
C2616 H2602 0.931 . S
C2616 C2615 1.385 . S
C2616 C2617 1.389 . S
C2617 C2616 1.389 . S
C2617 C2618 1.387 . S
C2618 H2603 0.930 . S
C2618 C2613 1.390 . S
C2618 C2617 1.387 . S
H2619 C2631 0.930 . S
H2620 C2633 0.930 . S
H2621 C2634 0.930 . S
H2622 C2638 0.959 . S
H2623 C2638 0.959 . S
H2624 C2638 0.961 . S
H2625 C2639 0.960 . S
H2626 C2639 0.961 . S
H2627 C2639 0.959 . S
H2628 C2642 0.929 . S
H2629 C2643 0.931 . S
H2630 C2645 0.930 . S
C2631 H2619 0.930 . S
C2631 C2632 1.399 1_565 S
C2631 C2636 1.399 . S
C2632 C2631 1.399 1_545 S
C2632 C2633 1.376 . S
C2633 H2620 0.930 . S
C2633 C2632 1.376 . S
C2633 C2634 1.388 . S
C2634 H2621 0.930 . S
C2634 C2633 1.388 . S
C2634 C2635 1.390 . S
C2635 C2634 1.390 . S
C2635 C2636 1.394 1_545 S
C2635 C2641 1.465 1_545 S
C2636 C2631 1.399 . S
C2636 C2635 1.394 1_565 S
C2636 C2637 1.516 . S
C2637 C2636 1.516 . S
C2637 C2638 1.502 . S
C2637 C2639 1.561 . S
C2637 C2640 1.526 . S
C2638 H2622 0.959 . S
C2638 H2623 0.959 . S
C2638 H2624 0.961 . S
C2638 C2637 1.502 . S
C2639 H2625 0.960 . S
C2639 H2626 0.961 . S
C2639 H2627 0.959 . S
C2639 C2637 1.561 . S
C2640 C2637 1.526 . S
C2640 C2641 1.396 . S
C2640 C2645 1.390 . S
C2641 C2635 1.465 1_565 S
C2641 C2640 1.396 . S
C2641 C2642 1.399 1_565 S
C2642 H2628 0.929 . S
C2642 C2641 1.399 1_545 S
C2642 C2643 1.385 . S
C2643 H2629 0.931 . S
C2643 C2642 1.385 . S
C2643 C2644 1.389 1_545 S
C2644 C2643 1.389 1_565 S
C2644 C2645 1.387 . S
C2645 H2630 0.930 . S
C2645 C2640 1.390 . S
C2645 C2644 1.387 . S
H2646 C2658 0.930 . S
H2647 C2660 0.930 . S
H2648 C2661 0.930 . S
H2649 C2665 0.959 . S
H2650 C2665 0.959 . S
H2651 C2665 0.961 . S
H2652 C2666 0.960 . S
H2653 C2666 0.961 . S
H2654 C2666 0.959 . S
H2655 C2669 0.929 . S
H2656 C2670 0.931 . S
H2657 C2672 0.930 . S
C2658 H2646 0.930 . S
C2658 C2659 1.399 . S
C2658 C2663 1.399 . S
C2659 C2658 1.399 . S
C2659 C2660 1.376 1_565 S
C2660 H2647 0.930 . S
C2660 C2659 1.376 1_545 S
C2660 C2661 1.388 . S
C2661 H2648 0.930 . S
C2661 C2660 1.388 . S
C2661 C2662 1.390 1_545 S
C2662 C2661 1.390 1_565 S
C2662 C2663 1.394 . S
C2662 C2668 1.465 1_565 S
C2663 C2658 1.399 . S
C2663 C2662 1.394 . S
C2663 C2664 1.516 . S
C2664 C2663 1.516 . S
C2664 C2665 1.502 . S
C2664 C2666 1.561 . S
C2664 C2667 1.526 . S
C2665 H2649 0.959 . S
C2665 H2650 0.959 . S
C2665 H2651 0.961 . S
C2665 C2664 1.502 . S
C2666 H2652 0.960 . S
C2666 H2653 0.961 . S
C2666 H2654 0.959 . S
C2666 C2664 1.561 . S
C2667 C2664 1.526 . S
C2667 C2668 1.396 1_565 S
C2667 C2672 1.390 . S
C2668 C2662 1.465 1_545 S
C2668 C2667 1.396 1_545 S
C2668 C2669 1.399 . S
C2669 H2655 0.929 . S
C2669 C2668 1.399 . S
C2669 C2670 1.385 . S
C2670 H2656 0.931 . S
C2670 C2669 1.385 . S
C2670 C2671 1.389 . S
C2671 C2670 1.389 . S
C2671 C2672 1.387 1_545 S
C2672 H2657 0.930 . S
C2672 C2667 1.390 . S
C2672 C2671 1.387 1_565 S
H2673 C2685 0.930 . S
H2674 C2687 0.930 . S
H2675 C2688 0.930 . S
H2676 C2692 0.959 . S
H2677 C2692 0.959 . S
H2678 C2692 0.961 . S
H2679 C2693 0.960 . S
H2680 C2693 0.961 . S
H2681 C2693 0.959 . S
H2682 C2696 0.929 . S
H2683 C2697 0.931 . S
H2684 C2699 0.930 . S
C2685 H2673 0.930 . S
C2685 C2686 1.399 . S
C2685 C2690 1.399 1_655 S
C2686 C2685 1.399 . S
C2686 C2687 1.376 1_655 S
C2687 H2674 0.930 . S
C2687 C2686 1.376 1_455 S
C2687 C2688 1.388 . S
C2688 H2675 0.930 . S
C2688 C2687 1.388 . S
C2688 C2689 1.390 . S
C2689 C2688 1.390 . S
C2689 C2690 1.394 . S
C2689 C2695 1.465 . S
C2690 C2685 1.399 1_455 S
C2690 C2689 1.394 . S
C2690 C2691 1.516 1_455 S
C2691 C2690 1.516 1_655 S
C2691 C2692 1.502 . S
C2691 C2693 1.561 1_655 S
C2691 C2694 1.526 1_655 S
C2692 H2676 0.959 . S
C2692 H2677 0.959 . S
C2692 H2678 0.961 . S
C2692 C2691 1.502 . S
C2693 H2679 0.960 . S
C2693 H2680 0.961 . S
C2693 H2681 0.959 . S
C2693 C2691 1.561 1_455 S
C2694 C2691 1.526 1_455 S
C2694 C2695 1.396 . S
C2694 C2699 1.390 . S
C2695 C2689 1.465 . S
C2695 C2694 1.396 . S
C2695 C2696 1.399 . S
C2696 H2682 0.929 . S
C2696 C2695 1.399 . S
C2696 C2697 1.385 . S
C2697 H2683 0.931 . S
C2697 C2696 1.385 . S
C2697 C2698 1.389 . S
C2698 C2697 1.389 . S
C2698 C2699 1.387 . S
C2699 H2684 0.930 . S
C2699 C2694 1.390 . S
C2699 C2698 1.387 . S
H2700 C2712 0.930 . S
H2701 C2714 0.930 . S
H2702 C2715 0.930 . S
H2703 C2719 0.959 . S
H2704 C2719 0.959 . S
H2705 C2719 0.961 . S
H2706 C2720 0.960 . S
H2707 C2720 0.961 . S
H2708 C2720 0.959 . S
H2709 C2723 0.929 . S
H2710 C2724 0.931 . S
H2711 C2726 0.930 . S
C2712 H2700 0.930 . S
C2712 C2713 1.399 . S
C2712 C2717 1.399 . S
C2713 C2712 1.399 . S
C2713 C2714 1.376 . S
C2714 H2701 0.930 . S
C2714 C2713 1.376 . S
C2714 C2715 1.388 . S
C2715 H2702 0.930 . S
C2715 C2714 1.388 . S
C2715 C2716 1.390 . S
C2716 C2715 1.390 . S
C2716 C2717 1.394 . S
C2716 C2722 1.465 . S
C2717 C2712 1.399 . S
C2717 C2716 1.394 . S
C2717 C2718 1.516 . S
C2718 C2717 1.516 . S
C2718 C2719 1.502 . S
C2718 C2720 1.561 . S
C2718 C2721 1.526 . S
C2719 H2703 0.959 . S
C2719 H2704 0.959 . S
C2719 H2705 0.961 . S
C2719 C2718 1.502 . S
C2720 H2706 0.960 . S
C2720 H2707 0.961 . S
C2720 H2708 0.959 . S
C2720 C2718 1.561 . S
C2721 C2718 1.526 . S
C2721 C2722 1.396 . S
C2721 C2726 1.390 . S
C2722 C2716 1.465 . S
C2722 C2721 1.396 . S
C2722 C2723 1.399 . S
C2723 H2709 0.929 . S
C2723 C2722 1.399 . S
C2723 C2724 1.385 . S
C2724 H2710 0.931 . S
C2724 C2723 1.385 . S
C2724 C2725 1.389 . S
C2725 C2724 1.389 . S
C2725 C2726 1.387 . S
C2726 H2711 0.930 . S
C2726 C2721 1.390 . S
C2726 C2725 1.387 . S
H2727 C2739 0.930 . S
H2728 C2741 0.930 . S
H2729 C2742 0.930 . S
H2730 C2746 0.959 1_556 S
H2731 C2746 0.959 . S
H2732 C2746 0.958 . S
H2733 C2747 0.960 1_565 S
H2734 C2747 0.961 . S
H2735 C2747 0.959 . S
H2736 C2750 0.924 1_556 S
H2737 C2751 0.931 . S
H2738 C2753 0.930 . S
C2739 H2727 0.930 . S
C2739 C2740 1.399 . S
C2739 C2744 1.399 1_565 S
C2740 C2739 1.399 . S
C2740 C2741 1.376 1_565 S
C2741 H2728 0.930 . S
C2741 C2740 1.376 1_545 S
C2741 C2742 1.388 . S
C2742 H2729 0.930 . S
C2742 C2741 1.388 . S
C2742 C2743 1.390 . S
C2743 C2742 1.390 . S
C2743 C2744 1.394 . S
C2743 C2749 1.465 1_556 S
C2744 C2739 1.399 1_545 S
C2744 C2743 1.394 . S
C2744 C2745 1.516 1_556 S
C2745 C2744 1.516 1_554 S
C2745 C2746 1.502 . S
C2745 C2747 1.561 . S
C2745 C2748 1.526 . S
C2746 H2730 0.959 1_554 S
C2746 H2731 0.959 . S
C2746 H2732 0.958 . S
C2746 C2745 1.502 . S
C2747 H2733 0.960 1_545 S
C2747 H2734 0.961 . S
C2747 H2735 0.959 . S
C2747 C2745 1.561 . S
C2748 C2745 1.526 . S
C2748 C2749 1.396 . S
C2748 C2753 1.390 . S
C2749 C2743 1.465 1_554 S
C2749 C2748 1.396 . S
C2749 C2750 1.399 . S
C2750 H2736 0.924 1_554 S
C2750 C2749 1.399 . S
C2750 C2751 1.385 . S
C2751 H2737 0.931 . S
C2751 C2750 1.385 . S
C2751 C2752 1.389 . S
C2752 C2751 1.389 . S
C2752 C2753 1.387 . S
C2753 H2738 0.930 . S
C2753 C2748 1.390 . S
C2753 C2752 1.387 . S
H2754 C2766 0.930 . S
H2755 C2768 0.930 . S
H2756 C2769 0.930 . S
H2757 C2773 0.959 . S
H2758 C2773 0.959 . S
H2759 C2773 0.961 . S
H2760 C2774 0.960 . S
H2761 C2774 0.961 . S
H2762 C2774 0.959 . S
H2763 C2777 0.929 . S
H2764 C2778 0.931 . S
H2765 C2780 0.930 . S
C2766 H2754 0.930 . S
C2766 C2767 1.399 . S
C2766 C2771 1.452 . S
C2767 C2766 1.399 . S
C2767 C2768 1.376 . S
C2768 H2755 0.930 . S
C2768 C2767 1.376 . S
C2768 C2769 1.388 . S
C2769 H2756 0.930 . S
C2769 C2768 1.388 . S
C2769 C2770 1.390 . S
C2770 C2769 1.390 . S
C2770 C2771 1.465 . S
C2770 C2776 1.518 . S
C2771 C2766 1.452 . S
C2771 C2770 1.465 . S
C2771 C2772 1.402 1_554 S
C2772 C2771 1.402 1_556 S
C2772 C2773 1.502 . S
C2772 C2774 1.561 . S
C2772 C2775 1.526 . S
C2773 H2757 0.959 . S
C2773 H2758 0.959 . S
C2773 H2759 0.961 . S
C2773 C2772 1.502 . S
C2774 H2760 0.960 . S
C2774 H2761 0.961 . S
C2774 H2762 0.959 . S
C2774 C2772 1.561 . S
C2775 C2772 1.526 . S
C2775 C2776 1.312 1_556 S
C2775 C2780 1.390 . S
C2776 C2770 1.518 . S
C2776 C2775 1.312 1_554 S
C2776 C2777 1.423 . S
C2777 H2763 0.929 . S
C2777 C2776 1.423 . S
C2777 C2778 1.385 1_654 S
C2778 H2764 0.931 . S
C2778 C2777 1.385 1_456 S
C2778 C2779 1.389 . S
C2779 C2778 1.389 . S
C2779 C2780 1.387 1_455 S
C2780 H2765 0.930 . S
C2780 C2775 1.390 . S
C2780 C2779 1.387 1_655 S
H2781 C2793 0.930 . S
H2782 C2795 0.930 . S
H2783 C2796 0.930 . S
H2784 C2800 0.959 . S
H2785 C2800 0.959 . S
H2786 C2800 0.961 . S
H2787 C2801 0.960 . S
H2788 C2801 0.961 . S
H2789 C2801 0.959 . S
H2790 C2804 0.929 . S
H2791 C2805 0.931 . S
H2792 C2807 0.930 . S
C2793 H2781 0.930 . S
C2793 C2794 1.399 . S
C2793 C2798 1.399 . S
C2794 C2793 1.399 . S
C2794 C2795 1.376 . S
C2795 H2782 0.930 . S
C2795 C2794 1.376 . S
C2795 C2796 1.388 . S
C2796 H2783 0.930 . S
C2796 C2795 1.388 . S
C2796 C2797 1.390 . S
C2797 C2796 1.390 . S
C2797 C2798 1.394 . S
C2797 C2803 1.465 1_554 S
C2798 C2793 1.399 . S
C2798 C2797 1.394 . S
C2798 C2799 1.539 . S
C2799 C2798 1.539 . S
C2799 C2800 1.469 1_554 S
C2799 C2801 1.598 . S
C2799 C2802 1.504 1_554 S
C2800 H2784 0.959 . S
C2800 H2785 0.959 . S
C2800 H2786 0.961 . S
C2800 C2799 1.469 1_556 S
C2801 H2787 0.960 . S
C2801 H2788 0.961 . S
C2801 H2789 0.959 . S
C2801 C2799 1.598 . S
C2802 C2799 1.504 1_556 S
C2802 C2803 1.396 . S
C2802 C2807 1.390 . S
C2803 C2797 1.465 1_556 S
C2803 C2802 1.396 . S
C2803 C2804 1.399 . S
C2804 H2790 0.929 . S
C2804 C2803 1.399 . S
C2804 C2805 1.385 . S
C2805 H2791 0.931 . S
C2805 C2804 1.385 . S
C2805 C2806 1.389 . S
C2806 C2805 1.389 . S
C2806 C2807 1.387 . S
C2807 H2792 0.930 . S
C2807 C2802 1.390 . S
C2807 C2806 1.387 . S
H2808 C2820 0.930 1_565 S
H2809 C2822 0.930 . S
H2810 C2823 0.930 . S
H2811 C2827 0.959 . S
H2812 C2827 0.959 . S
H2813 C2827 0.961 . S
H2814 C2828 0.960 . S
H2815 C2828 0.961 . S
H2816 C2828 0.959 . S
H2817 C2831 0.929 . S
H2818 C2832 0.931 . S
H2819 C2834 0.930 . S
C2820 H2808 0.930 1_545 S
C2820 C2821 1.399 . S
C2820 C2825 1.399 . S
C2821 C2820 1.399 . S
C2821 C2822 1.376 . S
C2822 H2809 0.930 . S
C2822 C2821 1.376 . S
C2822 C2823 1.388 . S
C2823 H2810 0.930 . S
C2823 C2822 1.388 . S
C2823 C2824 1.390 . S
C2824 C2823 1.390 . S
C2824 C2825 1.394 . S
C2824 C2830 1.465 . S
C2825 C2820 1.399 . S
C2825 C2824 1.394 . S
C2825 C2826 1.516 1_545 S
C2826 C2825 1.516 1_565 S
C2826 C2827 1.502 . S
C2826 C2828 1.561 . S
C2826 C2829 1.526 . S
C2827 H2811 0.959 . S
C2827 H2812 0.959 . S
C2827 H2813 0.961 . S
C2827 C2826 1.502 . S
C2828 H2814 0.960 . S
C2828 H2815 0.961 . S
C2828 H2816 0.959 . S
C2828 C2826 1.561 . S
C2829 C2826 1.526 . S
C2829 C2830 1.396 1_565 S
C2829 C2834 1.390 . S
C2830 C2824 1.465 . S
C2830 C2829 1.396 1_545 S
C2830 C2831 1.399 . S
C2831 H2817 0.929 . S
C2831 C2830 1.399 . S
C2831 C2832 1.385 . S
C2832 H2818 0.931 . S
C2832 C2831 1.385 . S
C2832 C2833 1.389 1_545 S
C2833 C2832 1.389 1_565 S
C2833 C2834 1.387 . S
C2834 H2819 0.930 . S
C2834 C2829 1.390 . S
C2834 C2833 1.387 . S
H2835 C2847 0.930 . S
H2836 C2849 0.930 . S
H2837 C2850 0.930 . S
H2838 C2854 0.959 . S
H2839 C2854 0.959 . S
H2840 C2854 0.961 . S
H2841 C2855 0.960 . S
H2842 C2855 0.961 . S
H2843 C2855 0.959 1_455 S
H2844 C2858 0.929 . S
H2845 C2859 0.931 . S
H2846 C2861 0.930 . S
C2847 H2835 0.930 . S
C2847 C2848 1.399 . S
C2847 C2852 1.399 . S
C2848 C2847 1.399 . S
C2848 C2849 1.376 . S
C2849 H2836 0.930 . S
C2849 C2848 1.376 . S
C2849 C2850 1.388 1_655 S
C2850 H2837 0.930 . S
C2850 C2849 1.388 1_455 S
C2850 C2851 1.390 1_455 S
C2851 C2850 1.390 1_655 S
C2851 C2852 1.394 . S
C2851 C2857 1.465 1_655 S
C2852 C2847 1.399 . S
C2852 C2851 1.394 . S
C2852 C2853 1.516 . S
C2853 C2852 1.516 . S
C2853 C2854 1.502 . S
C2853 C2855 1.561 . S
C2853 C2856 1.526 . S
C2854 H2838 0.959 . S
C2854 H2839 0.959 . S
C2854 H2840 0.961 . S
C2854 C2853 1.502 . S
C2855 H2841 0.960 . S
C2855 H2842 0.961 . S
C2855 H2843 0.959 1_655 S
C2855 C2853 1.561 . S
C2856 C2853 1.526 . S
C2856 C2857 1.396 1_655 S
C2856 C2861 1.390 . S
C2857 C2851 1.465 1_455 S
C2857 C2856 1.396 1_455 S
C2857 C2858 1.399 . S
C2858 H2844 0.929 . S
C2858 C2857 1.399 . S
C2858 C2859 1.385 . S
C2859 H2845 0.931 . S
C2859 C2858 1.385 . S
C2859 C2860 1.389 . S
C2860 C2859 1.389 . S
C2860 C2861 1.387 1_455 S
C2861 H2846 0.930 . S
C2861 C2856 1.390 . S
C2861 C2860 1.387 1_655 S
H2862 C2874 0.930 . S
H2863 C2876 0.930 . S
H2864 C2877 0.930 . S
H2865 C2881 0.959 . S
H2866 C2881 0.959 . S
H2867 C2881 0.961 . S
H2868 C2882 0.960 . S
H2869 C2882 0.961 . S
H2870 C2882 0.959 . S
H2871 C2885 0.929 . S
H2872 C2886 0.931 . S
H2873 C2888 0.930 . S
C2874 H2862 0.930 . S
C2874 C2875 1.399 . S
C2874 C2879 1.399 . S
C2875 C2874 1.399 . S
C2875 C2876 1.376 . S
C2876 H2863 0.930 . S
C2876 C2875 1.376 . S
C2876 C2877 1.388 . S
C2877 H2864 0.930 . S
C2877 C2876 1.388 . S
C2877 C2878 1.390 . S
C2878 C2877 1.390 . S
C2878 C2879 1.394 . S
C2878 C2884 1.465 . S
C2879 C2874 1.399 . S
C2879 C2878 1.394 . S
C2879 C2880 1.516 . S
C2880 C2879 1.516 . S
C2880 C2881 1.502 . S
C2880 C2882 1.561 . S
C2880 C2883 1.526 . S
C2881 H2865 0.959 . S
C2881 H2866 0.959 . S
C2881 H2867 0.961 . S
C2881 C2880 1.502 . S
C2882 H2868 0.960 . S
C2882 H2869 0.961 . S
C2882 H2870 0.959 . S
C2882 C2880 1.561 . S
C2883 C2880 1.526 . S
C2883 C2884 1.396 . S
C2883 C2888 1.390 . S
C2884 C2878 1.465 . S
C2884 C2883 1.396 . S
C2884 C2885 1.399 . S
C2885 H2871 0.929 . S
C2885 C2884 1.399 . S
C2885 C2886 1.385 . S
C2886 H2872 0.931 . S
C2886 C2885 1.385 . S
C2886 C2887 1.389 . S
C2887 C2886 1.389 . S
C2887 C2888 1.387 . S
C2888 H2873 0.930 . S
C2888 C2883 1.390 . S
C2888 C2887 1.387 . S
H2889 C2901 0.930 . S
H2890 C2903 0.930 . S
H2891 C2904 0.930 . S
H2892 C2908 0.959 . S
H2893 C2908 0.959 . S
H2894 C2908 0.961 . S
H2895 C2909 0.960 . S
H2896 C2909 0.916 1_554 S
H2897 C2909 0.959 . S
H2898 C2912 0.929 1_556 S
H2899 C2913 0.931 . S
H2900 C2915 0.931 1_545 S
C2901 H2889 0.930 . S
C2901 C2902 1.399 . S
C2901 C2906 1.399 . S
C2902 C2901 1.399 . S
C2902 C2903 1.376 . S
C2903 H2890 0.930 . S
C2903 C2902 1.376 . S
C2903 C2904 1.388 . S
C2904 H2891 0.930 . S
C2904 C2903 1.388 . S
C2904 C2905 1.390 . S
C2905 C2904 1.390 . S
C2905 C2906 1.394 . S
C2905 C2911 1.425 1_556 S
C2906 C2901 1.399 . S
C2906 C2905 1.394 . S
C2906 C2907 1.516 1_556 S
C2907 C2906 1.516 1_554 S
C2907 C2908 1.502 . S
C2907 C2909 1.561 1_554 S
C2907 C2910 1.526 . S
C2908 H2892 0.959 . S
C2908 H2893 0.959 . S
C2908 H2894 0.961 . S
C2908 C2907 1.502 . S
C2909 H2895 0.960 . S
C2909 H2896 0.916 1_556 S
C2909 H2897 0.959 . S
C2909 C2907 1.561 1_556 S
C2910 C2907 1.526 . S
C2910 C2911 1.432 . S
C2910 C2915 1.390 . S
C2911 C2905 1.425 1_554 S
C2911 C2910 1.432 . S
C2911 C2912 1.410 . S
C2912 H2898 0.929 1_554 S
C2912 C2911 1.410 . S
C2912 C2913 1.385 1_565 S
C2913 H2899 0.931 . S
C2913 C2912 1.385 1_545 S
C2913 C2914 1.389 . S
C2914 C2913 1.389 . S
C2914 C2915 1.387 1_545 S
C2915 H2900 0.931 1_565 S
C2915 C2910 1.390 . S
C2915 C2914 1.387 1_565 S
H2916 C2928 0.930 . S
H2917 C2930 0.930 . S
H2918 C2931 0.930 . S
H2919 C2935 0.959 1_554 S
H2920 C2935 0.959 . S
H2921 C2935 0.994 . S
H2922 C2936 0.960 . S
H2923 C2936 0.961 . S
H2924 C2936 0.959 . S
H2925 C2939 0.884 1_554 S
H2926 C2940 0.931 . S
H2927 C2942 0.930 . S
C2928 H2916 0.930 . S
C2928 C2929 1.399 1_455 S
C2928 C2933 1.399 . S
C2929 C2928 1.399 1_655 S
C2929 C2930 1.376 . S
C2930 H2917 0.930 . S
C2930 C2929 1.376 . S
C2930 C2931 1.388 1_655 S
C2931 H2918 0.930 . S
C2931 C2930 1.388 1_455 S
C2931 C2932 1.390 . S
C2932 C2931 1.390 . S
C2932 C2933 1.394 . S
C2932 C2938 1.465 1_554 S
C2933 C2928 1.399 . S
C2933 C2932 1.394 . S
C2933 C2934 1.516 1_554 S
C2934 C2933 1.516 1_556 S
C2934 C2935 1.502 . S
C2934 C2936 1.561 . S
C2934 C2937 1.526 . S
C2935 H2919 0.959 1_556 S
C2935 H2920 0.959 . S
C2935 H2921 0.994 . S
C2935 C2934 1.502 . S
C2936 H2922 0.960 . S
C2936 H2923 0.961 . S
C2936 H2924 0.959 . S
C2936 C2934 1.561 . S
C2937 C2934 1.526 . S
C2937 C2938 1.396 . S
C2937 C2942 1.390 . S
C2938 C2932 1.465 1_556 S
C2938 C2937 1.396 . S
C2938 C2939 1.399 . S
C2939 H2925 0.884 1_556 S
C2939 C2938 1.399 . S
C2939 C2940 1.385 . S
C2940 H2926 0.931 . S
C2940 C2939 1.385 . S
C2940 C2941 1.389 . S
C2941 C2940 1.389 . S
C2941 C2942 1.387 . S
C2942 H2927 0.930 . S
C2942 C2937 1.390 . S
C2942 C2941 1.387 . S
H2943 C2955 0.930 . S
H2944 C2957 0.930 . S
H2945 C2958 0.941 . S
H2946 C2962 0.959 1_554 S
H2947 C2962 0.971 . S
H2948 C2962 0.961 . S
H2949 C2963 0.960 . S
H2950 C2963 0.961 . S
H2951 C2963 0.959 . S
H2952 C2966 0.929 . S
H2953 C2967 0.931 . S
H2954 C2969 0.930 . S
C2955 H2943 0.930 . S
C2955 C2956 1.399 . S
C2955 C2960 1.399 . S
C2956 C2955 1.399 . S
C2956 C2957 1.376 . S
C2957 H2944 0.930 . S
C2957 C2956 1.376 . S
C2957 C2958 1.388 . S
C2958 H2945 0.941 . S
C2958 C2957 1.388 . S
C2958 C2959 1.390 . S
C2959 C2958 1.390 . S
C2959 C2960 1.394 . S
C2959 C2965 1.465 1_556 S
C2960 C2955 1.399 . S
C2960 C2959 1.394 . S
C2960 C2961 1.516 . S
C2961 C2960 1.516 . S
C2961 C2962 1.502 . S
C2961 C2963 1.561 . S
C2961 C2964 1.526 1_556 S
C2962 H2946 0.959 1_556 S
C2962 H2947 0.971 . S
C2962 H2948 0.961 . S
C2962 C2961 1.502 . S
C2963 H2949 0.960 . S
C2963 H2950 0.961 . S
C2963 H2951 0.959 . S
C2963 C2961 1.561 . S
C2964 C2961 1.526 1_554 S
C2964 C2965 1.396 . S
C2964 C2969 1.390 . S
C2965 C2959 1.465 1_554 S
C2965 C2964 1.396 . S
C2965 C2966 1.399 . S
C2966 H2952 0.929 . S
C2966 C2965 1.399 . S
C2966 C2967 1.385 . S
C2967 H2953 0.931 . S
C2967 C2966 1.385 . S
C2967 C2968 1.389 . S
C2968 C2967 1.389 . S
C2968 C2969 1.387 . S
C2969 H2954 0.930 . S
C2969 C2964 1.390 . S
C2969 C2968 1.387 . S
H2970 C2982 0.930 1_655 S
H2971 C2984 0.930 . S
H2972 C2985 0.930 . S
H2973 C2989 0.959 . S
H2974 C2989 0.959 . S
H2975 C2989 0.961 . S
H2976 C2990 0.960 . S
H2977 C2990 0.961 . S
H2978 C2990 0.959 . S
H2979 C2993 0.929 . S
H2980 C2994 0.931 . S
H2981 C2996 0.930 . S
C2982 H2970 0.930 1_455 S
C2982 C2983 1.399 1_455 S
C2982 C2987 1.399 . S
C2983 C2982 1.399 1_655 S
C2983 C2984 1.376 1_655 S
C2984 H2971 0.930 . S
C2984 C2983 1.376 1_455 S
C2984 C2985 1.388 . S
C2985 H2972 0.930 . S
C2985 C2984 1.388 . S
C2985 C2986 1.390 . S
C2986 C2985 1.390 . S
C2986 C2987 1.394 . S
C2986 C2992 1.465 . S
C2987 C2982 1.399 . S
C2987 C2986 1.394 . S
C2987 C2988 1.516 . S
C2988 C2987 1.516 . S
C2988 C2989 1.502 . S
C2988 C2990 1.561 . S
C2988 C2991 1.526 . S
C2989 H2973 0.959 . S
C2989 H2974 0.959 . S
C2989 H2975 0.961 . S
C2989 C2988 1.502 . S
C2990 H2976 0.960 . S
C2990 H2977 0.961 . S
C2990 H2978 0.959 . S
C2990 C2988 1.561 . S
C2991 C2988 1.526 . S
C2991 C2992 1.396 . S
C2991 C2996 1.390 . S
C2992 C2986 1.465 . S
C2992 C2991 1.396 . S
C2992 C2993 1.399 . S
C2993 H2979 0.929 . S
C2993 C2992 1.399 . S
C2993 C2994 1.385 . S
C2994 H2980 0.931 . S
C2994 C2993 1.385 . S
C2994 C2995 1.389 . S
C2995 C2994 1.389 . S
C2995 C2996 1.387 . S
C2996 H2981 0.930 . S
C2996 C2991 1.390 . S
C2996 C2995 1.387 . S
H2997 C3009 0.930 . S
H2998 C3011 0.930 . S
H2999 C3012 0.930 . S
H3000 C3016 0.959 . S
H3001 C3016 0.959 . S
H3002 C3016 0.961 . S
H3003 C3017 0.960 . S
H3004 C3017 0.961 . S
H3005 C3017 0.959 . S
H3006 C3020 0.929 . S
H3007 C3021 0.931 . S
H3008 C3023 0.930 . S
C3009 H2997 0.930 . S
C3009 C3010 1.399 . S
C3009 C3014 1.399 . S
C3010 C3009 1.399 . S
C3010 C3011 1.376 . S
C3011 H2998 0.930 . S
C3011 C3010 1.376 . S
C3011 C3012 1.388 . S
C3012 H2999 0.930 . S
C3012 C3011 1.388 . S
C3012 C3013 1.390 . S
C3013 C3012 1.390 . S
C3013 C3014 1.394 . S
C3013 C3019 1.465 . S
C3014 C3009 1.399 . S
C3014 C3013 1.394 . S
C3014 C3015 1.516 . S
C3015 C3014 1.516 . S
C3015 C3016 1.502 . S
C3015 C3017 1.561 . S
C3015 C3018 1.526 . S
C3016 H3000 0.959 . S
C3016 H3001 0.959 . S
C3016 H3002 0.961 . S
C3016 C3015 1.502 . S
C3017 H3003 0.960 . S
C3017 H3004 0.961 . S
C3017 H3005 0.959 . S
C3017 C3015 1.561 . S
C3018 C3015 1.526 . S
C3018 C3019 1.396 . S
C3018 C3023 1.390 . S
C3019 C3013 1.465 . S
C3019 C3018 1.396 . S
C3019 C3020 1.399 . S
C3020 H3006 0.929 . S
C3020 C3019 1.399 . S
C3020 C3021 1.385 . S
C3021 H3007 0.931 . S
C3021 C3020 1.385 . S
C3021 C3022 1.389 . S
C3022 C3021 1.389 . S
C3022 C3023 1.387 . S
C3023 H3008 0.930 . S
C3023 C3018 1.390 . S
C3023 C3022 1.387 . S
H3024 C3036 0.930 . S
H3025 C3038 0.930 . S
H3026 C3039 0.930 . S
H3027 C3043 0.959 . S
H3028 C3043 0.959 . S
H3029 C3043 0.961 . S
H3030 C3044 0.960 . S
H3031 C3044 0.961 . S
H3032 C3044 0.959 . S
H3033 C3047 0.929 . S
H3034 C3048 0.931 . S
H3035 C3050 0.930 . S
C3036 H3024 0.930 . S
C3036 C3037 1.399 . S
C3036 C3041 1.399 . S
C3037 C3036 1.399 . S
C3037 C3038 1.376 . S
C3038 H3025 0.930 . S
C3038 C3037 1.376 . S
C3038 C3039 1.388 . S
C3039 H3026 0.930 . S
C3039 C3038 1.388 . S
C3039 C3040 1.390 . S
C3040 C3039 1.390 . S
C3040 C3041 1.394 . S
C3040 C3046 1.465 . S
C3041 C3036 1.399 . S
C3041 C3040 1.394 . S
C3041 C3042 1.516 . S
C3042 C3041 1.516 . S
C3042 C3043 1.502 . S
C3042 C3044 1.561 . S
C3042 C3045 1.526 . S
C3043 H3027 0.959 . S
C3043 H3028 0.959 . S
C3043 H3029 0.961 . S
C3043 C3042 1.502 . S
C3044 H3030 0.960 . S
C3044 H3031 0.961 . S
C3044 H3032 0.959 . S
C3044 C3042 1.561 . S
C3045 C3042 1.526 . S
C3045 C3046 1.396 . S
C3045 C3050 1.390 . S
C3046 C3040 1.465 . S
C3046 C3045 1.396 . S
C3046 C3047 1.399 . S
C3047 H3033 0.929 . S
C3047 C3046 1.399 . S
C3047 C3048 1.385 1_565 S
C3048 H3034 0.931 . S
C3048 C3047 1.385 1_545 S
C3048 C3049 1.389 . S
C3049 C3048 1.389 . S
C3049 C3050 1.387 1_545 S
C3050 H3035 0.930 . S
C3050 C3045 1.390 . S
C3050 C3049 1.387 1_565 S
H3051 C3063 0.930 . S
H3052 C3065 0.930 . S
H3053 C3066 0.930 . S
H3054 C3070 0.959 . S
H3055 C3070 0.959 . S
H3056 C3070 0.961 1_655 S
H3057 C3071 0.960 . S
H3058 C3071 0.961 . S
H3059 C3071 0.959 . S
H3060 C3074 0.929 . S
H3061 C3075 0.931 . S
H3062 C3077 0.930 . S
C3063 H3051 0.930 . S
C3063 C3064 1.399 . S
C3063 C3068 1.399 . S
C3064 C3063 1.399 . S
C3064 C3065 1.376 . S
C3065 H3052 0.930 . S
C3065 C3064 1.376 . S
C3065 C3066 1.388 . S
C3066 H3053 0.930 . S
C3066 C3065 1.388 . S
C3066 C3067 1.390 . S
C3067 C3066 1.390 . S
C3067 C3068 1.394 . S
C3067 C3073 1.465 . S
C3068 C3063 1.399 . S
C3068 C3067 1.394 . S
C3068 C3069 1.516 . S
C3069 C3068 1.516 . S
C3069 C3070 1.502 1_655 S
C3069 C3071 1.561 . S
C3069 C3072 1.526 . S
C3070 H3054 0.959 . S
C3070 H3055 0.959 . S
C3070 H3056 0.961 1_455 S
C3070 C3069 1.502 1_455 S
C3071 H3057 0.960 . S
C3071 H3058 0.961 . S
C3071 H3059 0.959 . S
C3071 C3069 1.561 . S
C3072 C3069 1.526 . S
C3072 C3073 1.396 . S
C3072 C3077 1.390 . S
C3073 C3067 1.465 . S
C3073 C3072 1.396 . S
C3073 C3074 1.399 . S
C3074 H3060 0.929 . S
C3074 C3073 1.399 . S
C3074 C3075 1.385 1_655 S
C3075 H3061 0.931 . S
C3075 C3074 1.385 1_455 S
C3075 C3076 1.389 . S
C3076 C3075 1.389 . S
C3076 C3077 1.387 1_455 S
C3077 H3062 0.930 . S
C3077 C3072 1.390 . S
C3077 C3076 1.387 1_655 S
H3078 C3090 0.930 . S
H3079 C3092 0.930 . S
H3080 C3093 0.930 . S
H3081 C3097 0.959 . S
H3082 C3097 0.959 . S
H3083 C3097 0.961 . S
H3084 C3098 0.960 . S
H3085 C3098 0.961 . S
H3086 C3098 0.959 . S
H3087 C3101 0.929 . S
H3088 C3102 0.931 . S
H3089 C3104 0.930 . S
C3090 H3078 0.930 . S
C3090 C3091 1.399 . S
C3090 C3095 1.399 . S
C3091 C3090 1.399 . S
C3091 C3092 1.376 . S
C3092 H3079 0.930 . S
C3092 C3091 1.376 . S
C3092 C3093 1.388 . S
C3093 H3080 0.930 . S
C3093 C3092 1.388 . S
C3093 C3094 1.390 . S
C3094 C3093 1.390 . S
C3094 C3095 1.394 . S
C3094 C3100 1.465 . S
C3095 C3090 1.399 . S
C3095 C3094 1.394 . S
C3095 C3096 1.516 . S
C3096 C3095 1.516 . S
C3096 C3097 1.502 . S
C3096 C3098 1.561 . S
C3096 C3099 1.526 . S
C3097 H3081 0.959 . S
C3097 H3082 0.959 . S
C3097 H3083 0.961 . S
C3097 C3096 1.502 . S
C3098 H3084 0.960 . S
C3098 H3085 0.961 . S
C3098 H3086 0.959 . S
C3098 C3096 1.561 . S
C3099 C3096 1.526 . S
C3099 C3100 1.396 . S
C3099 C3104 1.390 . S
C3100 C3094 1.465 . S
C3100 C3099 1.396 . S
C3100 C3101 1.399 . S
C3101 H3087 0.929 . S
C3101 C3100 1.399 . S
C3101 C3102 1.385 . S
C3102 H3088 0.931 . S
C3102 C3101 1.385 . S
C3102 C3103 1.389 . S
C3103 C3102 1.389 . S
C3103 C3104 1.387 . S
C3104 H3089 0.930 . S
C3104 C3099 1.390 . S
C3104 C3103 1.387 . S
H3105 C3117 0.930 1_565 S
H3106 C3119 0.930 . S
H3107 C3120 0.930 . S
H3108 C3124 0.959 . S
H3109 C3124 0.959 . S
H3110 C3124 0.961 . S
H3111 C3125 0.960 . S
H3112 C3125 0.961 . S
H3113 C3125 0.959 . S
H3114 C3128 0.929 . S
H3115 C3129 0.931 . S
H3116 C3131 0.930 . S
C3117 H3105 0.930 1_545 S
C3117 C3118 1.399 . S
C3117 C3122 1.399 . S
C3118 C3117 1.399 . S
C3118 C3119 1.376 . S
C3119 H3106 0.930 . S
C3119 C3118 1.376 . S
C3119 C3120 1.388 . S
C3120 H3107 0.930 . S
C3120 C3119 1.388 . S
C3120 C3121 1.390 . S
C3121 C3120 1.390 . S
C3121 C3122 1.394 . S
C3121 C3127 1.465 . S
C3122 C3117 1.399 . S
C3122 C3121 1.394 . S
C3122 C3123 1.516 1_545 S
C3123 C3122 1.516 1_565 S
C3123 C3124 1.502 . S
C3123 C3125 1.561 . S
C3123 C3126 1.526 . S
C3124 H3108 0.959 . S
C3124 H3109 0.959 . S
C3124 H3110 0.961 . S
C3124 C3123 1.502 . S
C3125 H3111 0.960 . S
C3125 H3112 0.961 . S
C3125 H3113 0.959 . S
C3125 C3123 1.561 . S
C3126 C3123 1.526 . S
C3126 C3127 1.396 1_565 S
C3126 C3131 1.390 . S
C3127 C3121 1.465 . S
C3127 C3126 1.396 1_545 S
C3127 C3128 1.399 . S
C3128 H3114 0.929 . S
C3128 C3127 1.399 . S
C3128 C3129 1.385 . S
C3129 H3115 0.931 . S
C3129 C3128 1.385 . S
C3129 C3130 1.389 1_545 S
C3130 C3129 1.389 1_565 S
C3130 C3131 1.387 . S
C3131 H3116 0.930 . S
C3131 C3126 1.390 . S
C3131 C3130 1.387 . S
H3132 C3144 0.930 . S
H3133 C3146 0.930 . S
H3134 C3147 0.930 . S
H3135 C3151 0.959 1_655 S
H3136 C3151 0.959 . S
H3137 C3151 0.961 1_655 S
H3138 C3152 0.960 . S
H3139 C3152 0.961 . S
H3140 C3152 0.959 . S
H3141 C3155 0.929 . S
H3142 C3156 0.931 . S
H3143 C3158 0.930 . S
C3144 H3132 0.930 . S
C3144 C3145 1.399 . S
C3144 C3149 1.399 . S
C3145 C3144 1.399 . S
C3145 C3146 1.376 . S
C3146 H3133 0.930 . S
C3146 C3145 1.376 . S
C3146 C3147 1.388 . S
C3147 H3134 0.930 . S
C3147 C3146 1.388 . S
C3147 C3148 1.390 . S
C3148 C3147 1.390 . S
C3148 C3149 1.394 . S
C3148 C3154 1.465 1_655 S
C3149 C3144 1.399 . S
C3149 C3148 1.394 . S
C3149 C3150 1.516 1_655 S
C3150 C3149 1.516 1_455 S
C3150 C3151 1.502 . S
C3150 C3152 1.561 . S
C3150 C3153 1.526 . S
C3151 H3135 0.959 1_455 S
C3151 H3136 0.959 . S
C3151 H3137 0.961 1_455 S
C3151 C3150 1.502 . S
C3152 H3138 0.960 . S
C3152 H3139 0.961 . S
C3152 H3140 0.959 . S
C3152 C3150 1.561 . S
C3153 C3150 1.526 . S
C3153 C3154 1.396 . S
C3153 C3158 1.390 . S
C3154 C3148 1.465 1_455 S
C3154 C3153 1.396 . S
C3154 C3155 1.399 . S
C3155 H3141 0.929 . S
C3155 C3154 1.399 . S
C3155 C3156 1.385 . S
C3156 H3142 0.931 . S
C3156 C3155 1.385 . S
C3156 C3157 1.389 . S
C3157 C3156 1.389 . S
C3157 C3158 1.387 . S
C3158 H3143 0.930 . S
C3158 C3153 1.390 . S
C3158 C3157 1.387 . S
H3159 C3171 0.930 . S
H3160 C3173 0.930 . S
H3161 C3174 0.930 . S
H3162 C3178 0.959 . S
H3163 C3178 0.959 . S
H3164 C3178 0.961 . S
H3165 C3179 0.960 . S
H3166 C3179 0.961 . S
H3167 C3179 0.959 . S
H3168 C3182 0.929 . S
H3169 C3183 0.931 . S
H3170 C3185 0.930 . S
C3171 H3159 0.930 . S
C3171 C3172 1.399 . S
C3171 C3176 1.399 . S
C3172 C3171 1.399 . S
C3172 C3173 1.376 . S
C3173 H3160 0.930 . S
C3173 C3172 1.376 . S
C3173 C3174 1.388 . S
C3174 H3161 0.930 . S
C3174 C3173 1.388 . S
C3174 C3175 1.390 . S
C3175 C3174 1.390 . S
C3175 C3176 1.394 . S
C3175 C3181 1.465 . S
C3176 C3171 1.399 . S
C3176 C3175 1.394 . S
C3176 C3177 1.516 . S
C3177 C3176 1.516 . S
C3177 C3178 1.502 . S
C3177 C3179 1.561 . S
C3177 C3180 1.526 . S
C3178 H3162 0.959 . S
C3178 H3163 0.959 . S
C3178 H3164 0.961 . S
C3178 C3177 1.502 . S
C3179 H3165 0.960 . S
C3179 H3166 0.961 . S
C3179 H3167 0.959 . S
C3179 C3177 1.561 . S
C3180 C3177 1.526 . S
C3180 C3181 1.396 . S
C3180 C3185 1.390 . S
C3181 C3175 1.465 . S
C3181 C3180 1.396 . S
C3181 C3182 1.399 . S
C3182 H3168 0.929 . S
C3182 C3181 1.399 . S
C3182 C3183 1.385 . S
C3183 H3169 0.931 . S
C3183 C3182 1.385 . S
C3183 C3184 1.389 . S
C3184 C3183 1.389 . S
C3184 C3185 1.387 . S
C3185 H3170 0.930 . S
C3185 C3180 1.390 . S
C3185 C3184 1.387 . S
H3186 C3198 0.930 . S
H3187 C3200 0.930 . S
H3188 C3201 0.930 . S
H3189 C3205 0.959 . S
H3190 C3205 0.959 . S
H3191 C3205 0.961 . S
H3192 C3206 0.960 . S
H3193 C3206 0.961 . S
H3194 C3206 0.959 . S
H3195 C3209 0.941 . S
H3196 C3210 0.931 . S
H3197 C3212 0.930 . S
C3198 H3186 0.930 . S
C3198 C3199 1.399 . S
C3198 C3203 1.399 . S
C3199 C3198 1.399 . S
C3199 C3200 1.376 . S
C3200 H3187 0.930 . S
C3200 C3199 1.376 . S
C3200 C3201 1.388 . S
C3201 H3188 0.930 . S
C3201 C3200 1.388 . S
C3201 C3202 1.390 . S
C3202 C3201 1.390 . S
C3202 C3203 1.394 . S
C3202 C3208 1.465 1_565 S
C3203 C3198 1.399 . S
C3203 C3202 1.394 . S
C3203 C3204 1.516 1_565 S
C3204 C3203 1.516 1_545 S
C3204 C3205 1.502 . S
C3204 C3206 1.561 . S
C3204 C3207 1.526 . S
C3205 H3189 0.959 . S
C3205 H3190 0.959 . S
C3205 H3191 0.961 . S
C3205 C3204 1.502 . S
C3206 H3192 0.960 . S
C3206 H3193 0.961 . S
C3206 H3194 0.959 . S
C3206 C3204 1.561 . S
C3207 C3204 1.526 . S
C3207 C3208 1.396 . S
C3207 C3212 1.390 . S
C3208 C3202 1.465 1_545 S
C3208 C3207 1.396 . S
C3208 C3209 1.404 1_545 S
C3209 H3195 0.941 . S
C3209 C3208 1.404 1_565 S
C3209 C3210 1.369 1_565 S
C3210 H3196 0.931 . S
C3210 C3209 1.369 1_545 S
C3210 C3211 1.389 . S
C3211 C3210 1.389 . S
C3211 C3212 1.387 . S
C3212 H3197 0.930 . S
C3212 C3207 1.390 . S
C3212 C3211 1.387 . S
H3213 C3225 0.930 . S
H3214 C3227 0.930 . S
H3215 C3228 0.930 . S
H3216 C3232 0.959 . S
H3217 C3232 0.959 . S
H3218 C3232 0.961 . S
H3219 C3233 0.960 . S
H3220 C3233 0.961 . S
H3221 C3233 0.959 . S
H3222 C3236 0.929 . S
H3223 C3237 0.931 . S
H3224 C3239 0.930 . S
C3225 H3213 0.930 . S
C3225 C3226 1.399 . S
C3225 C3230 1.399 . S
C3226 C3225 1.399 . S
C3226 C3227 1.376 . S
C3227 H3214 0.930 . S
C3227 C3226 1.376 . S
C3227 C3228 1.388 . S
C3228 H3215 0.930 . S
C3228 C3227 1.388 . S
C3228 C3229 1.390 . S
C3229 C3228 1.390 . S
C3229 C3230 1.394 . S
C3229 C3235 1.465 1_655 S
C3230 C3225 1.399 . S
C3230 C3229 1.394 . S
C3230 C3231 1.516 . S
C3231 C3230 1.516 . S
C3231 C3232 1.502 1_655 S
C3231 C3233 1.561 . S
C3231 C3234 1.526 1_655 S
C3232 H3216 0.959 . S
C3232 H3217 0.959 . S
C3232 H3218 0.961 . S
C3232 C3231 1.502 1_455 S
C3233 H3219 0.960 . S
C3233 H3220 0.961 . S
C3233 H3221 0.959 . S
C3233 C3231 1.561 . S
C3234 C3231 1.526 1_455 S
C3234 C3235 1.396 . S
C3234 C3239 1.390 . S
C3235 C3229 1.465 1_455 S
C3235 C3234 1.396 . S
C3235 C3236 1.399 . S
C3236 H3222 0.929 . S
C3236 C3235 1.399 . S
C3236 C3237 1.385 . S
C3237 H3223 0.931 . S
C3237 C3236 1.385 . S
C3237 C3238 1.389 . S
C3238 C3237 1.389 . S
C3238 C3239 1.387 . S
C3239 H3224 0.930 . S
C3239 C3234 1.390 . S
C3239 C3238 1.387 . S
H3240 C3252 0.930 . S
H3241 C3254 0.930 . S
H3242 C3255 0.930 . S
H3243 C3259 0.959 . S
H3244 C3259 0.959 . S
H3245 C3259 0.961 . S
H3246 C3260 0.960 . S
H3247 C3260 0.961 . S
H3248 C3260 0.959 . S
H3249 C3263 0.929 . S
H3250 C3264 0.931 . S
H3251 C3266 0.930 . S
C3252 H3240 0.930 . S
C3252 C3253 1.399 . S
C3252 C3257 1.399 . S
C3253 C3252 1.399 . S
C3253 C3254 1.376 . S
C3254 H3241 0.930 . S
C3254 C3253 1.376 . S
C3254 C3255 1.388 . S
C3255 H3242 0.930 . S
C3255 C3254 1.388 . S
C3255 C3256 1.390 . S
C3256 C3255 1.390 . S
C3256 C3257 1.394 . S
C3256 C3262 1.465 . S
C3257 C3252 1.399 . S
C3257 C3256 1.394 . S
C3257 C3258 1.516 . S
C3258 C3257 1.516 . S
C3258 C3259 1.502 . S
C3258 C3260 1.561 . S
C3258 C3261 1.526 . S
C3259 H3243 0.959 . S
C3259 H3244 0.959 . S
C3259 H3245 0.961 . S
C3259 C3258 1.502 . S
C3260 H3246 0.960 . S
C3260 H3247 0.961 . S
C3260 H3248 0.959 . S
C3260 C3258 1.561 . S
C3261 C3258 1.526 . S
C3261 C3262 1.396 . S
C3261 C3266 1.390 . S
C3262 C3256 1.465 . S
C3262 C3261 1.396 . S
C3262 C3263 1.399 . S
C3263 H3249 0.929 . S
C3263 C3262 1.399 . S
C3263 C3264 1.385 . S
C3264 H3250 0.931 . S
C3264 C3263 1.385 . S
C3264 C3265 1.389 . S
C3265 C3264 1.389 . S
C3265 C3266 1.387 . S
C3266 H3251 0.930 . S
C3266 C3261 1.390 . S
C3266 C3265 1.387 . S
H3267 C3279 0.930 . S
H3268 C3281 0.930 . S
H3269 C3282 0.930 1_565 S
H3270 C3286 0.959 1_565 S
H3271 C3286 0.959 . S
H3272 C3286 0.961 . S
H3273 C3287 0.960 . S
H3274 C3287 0.961 . S
H3275 C3287 0.959 . S
H3276 C3290 0.929 . S
H3277 C3291 0.931 . S
H3278 C3293 0.930 . S
C3279 H3267 0.930 . S
C3279 C3280 1.399 . S
C3279 C3284 1.399 . S
C3280 C3279 1.399 . S
C3280 C3281 1.376 . S
C3281 H3268 0.930 . S
C3281 C3280 1.376 . S
C3281 C3282 1.388 . S
C3282 H3269 0.930 1_545 S
C3282 C3281 1.388 . S
C3282 C3283 1.390 . S
C3283 C3282 1.390 . S
C3283 C3284 1.394 . S
C3283 C3289 1.465 1_545 S
C3284 C3279 1.399 . S
C3284 C3283 1.394 . S
C3284 C3285 1.516 . S
C3285 C3284 1.516 . S
C3285 C3286 1.502 . S
C3285 C3287 1.561 . S
C3285 C3288 1.526 1_545 S
C3286 H3270 0.959 1_545 S
C3286 H3271 0.959 . S
C3286 H3272 0.961 . S
C3286 C3285 1.502 . S
C3287 H3273 0.960 . S
C3287 H3274 0.961 . S
C3287 H3275 0.959 . S
C3287 C3285 1.561 . S
C3288 C3285 1.526 1_565 S
C3288 C3289 1.396 . S
C3288 C3293 1.390 . S
C3289 C3283 1.465 1_565 S
C3289 C3288 1.396 . S
C3289 C3290 1.399 . S
C3290 H3276 0.929 . S
C3290 C3289 1.399 . S
C3290 C3291 1.385 . S
C3291 H3277 0.931 . S
C3291 C3290 1.385 . S
C3291 C3292 1.389 . S
C3292 C3291 1.389 . S
C3292 C3293 1.387 . S
C3293 H3278 0.930 . S
C3293 C3288 1.390 . S
C3293 C3292 1.387 . S
H3294 C3306 0.930 . S
H3295 C3308 0.930 . S
H3296 C3309 0.930 . S
H3297 C3313 0.959 . S
H3298 C3313 0.959 . S
H3299 C3313 0.961 . S
H3300 C3314 0.960 . S
H3301 C3314 0.961 . S
H3302 C3314 0.959 . S
H3303 C3317 0.929 . S
H3304 C3318 0.931 . S
H3305 C3320 0.930 . S
C3306 H3294 0.930 . S
C3306 C3307 1.399 . S
C3306 C3311 1.399 . S
C3307 C3306 1.399 . S
C3307 C3308 1.376 . S
C3308 H3295 0.930 . S
C3308 C3307 1.376 . S
C3308 C3309 1.388 . S
C3309 H3296 0.930 . S
C3309 C3308 1.388 . S
C3309 C3310 1.390 . S
C3310 C3309 1.390 . S
C3310 C3311 1.394 . S
C3310 C3316 1.465 . S
C3311 C3306 1.399 . S
C3311 C3310 1.394 . S
C3311 C3312 1.516 . S
C3312 C3311 1.516 . S
C3312 C3313 1.502 . S
C3312 C3314 1.561 . S
C3312 C3315 1.526 . S
C3313 H3297 0.959 . S
C3313 H3298 0.959 . S
C3313 H3299 0.961 . S
C3313 C3312 1.502 . S
C3314 H3300 0.960 . S
C3314 H3301 0.961 . S
C3314 H3302 0.959 . S
C3314 C3312 1.561 . S
C3315 C3312 1.526 . S
C3315 C3316 1.396 . S
C3315 C3320 1.390 . S
C3316 C3310 1.465 . S
C3316 C3315 1.396 . S
C3316 C3317 1.399 . S
C3317 H3303 0.929 . S
C3317 C3316 1.399 . S
C3317 C3318 1.385 . S
C3318 H3304 0.931 . S
C3318 C3317 1.385 . S
C3318 C3319 1.389 . S
C3319 C3318 1.389 . S
C3319 C3320 1.387 . S
C3320 H3305 0.930 . S
C3320 C3315 1.390 . S
C3320 C3319 1.387 . S
H3321 C3333 0.930 . S
H3322 C3335 0.930 . S
H3323 C3336 0.930 . S
H3324 C3340 0.959 . S
H3325 C3340 0.959 . S
H3326 C3340 0.961 . S
H3327 C3341 0.960 . S
H3328 C3341 0.961 . S
H3329 C3341 0.959 . S
H3330 C3344 0.929 . S
H3331 C3345 0.931 . S
H3332 C3347 0.930 . S
C3333 H3321 0.930 . S
C3333 C3334 1.399 . S
C3333 C3338 1.399 . S
C3334 C3333 1.399 . S
C3334 C3335 1.376 . S
C3335 H3322 0.930 . S
C3335 C3334 1.376 . S
C3335 C3336 1.388 . S
C3336 H3323 0.930 . S
C3336 C3335 1.388 . S
C3336 C3337 1.390 . S
C3337 C3336 1.390 . S
C3337 C3338 1.394 . S
C3337 C3343 1.465 . S
C3338 C3333 1.399 . S
C3338 C3337 1.394 . S
C3338 C3339 1.516 . S
C3339 C3338 1.516 . S
C3339 C3340 1.502 . S
C3339 C3341 1.561 . S
C3339 C3342 1.526 . S
C3340 H3324 0.959 . S
C3340 H3325 0.959 . S
C3340 H3326 0.961 . S
C3340 C3339 1.502 . S
C3341 H3327 0.960 . S
C3341 H3328 0.961 . S
C3341 H3329 0.959 . S
C3341 C3339 1.561 . S
C3342 C3339 1.526 . S
C3342 C3343 1.396 . S
C3342 C3347 1.390 . S
C3343 C3337 1.465 . S
C3343 C3342 1.396 . S
C3343 C3344 1.399 . S
C3344 H3330 0.929 . S
C3344 C3343 1.399 . S
C3344 C3345 1.385 . S
C3345 H3331 0.931 . S
C3345 C3344 1.385 . S
C3345 C3346 1.389 . S
C3346 C3345 1.389 . S
C3346 C3347 1.387 . S
C3347 H3332 0.930 . S
C3347 C3342 1.390 . S
C3347 C3346 1.387 . S
H3348 C3360 0.930 . S
H3349 C3362 0.930 . S
H3350 C3363 0.930 . S
H3351 C3367 0.959 . S
H3352 C3367 0.959 . S
H3353 C3367 0.961 . S
H3354 C3368 0.960 . S
H3355 C3368 0.961 . S
H3356 C3368 0.959 . S
H3357 C3371 0.929 . S
H3358 C3372 0.931 . S
H3359 C3374 0.930 . S
C3360 H3348 0.930 . S
C3360 C3361 1.399 . S
C3360 C3365 1.399 . S
C3361 C3360 1.399 . S
C3361 C3362 1.376 . S
C3362 H3349 0.930 . S
C3362 C3361 1.376 . S
C3362 C3363 1.388 . S
C3363 H3350 0.930 . S
C3363 C3362 1.388 . S
C3363 C3364 1.390 . S
C3364 C3363 1.390 . S
C3364 C3365 1.394 . S
C3364 C3370 1.465 . S
C3365 C3360 1.399 . S
C3365 C3364 1.394 . S
C3365 C3366 1.516 . S
C3366 C3365 1.516 . S
C3366 C3367 1.502 . S
C3366 C3368 1.561 . S
C3366 C3369 1.526 . S
C3367 H3351 0.959 . S
C3367 H3352 0.959 . S
C3367 H3353 0.961 . S
C3367 C3366 1.502 . S
C3368 H3354 0.960 . S
C3368 H3355 0.961 . S
C3368 H3356 0.959 . S
C3368 C3366 1.561 . S
C3369 C3366 1.526 . S
C3369 C3370 1.396 . S
C3369 C3374 1.390 . S
C3370 C3364 1.465 . S
C3370 C3369 1.396 . S
C3370 C3371 1.399 . S
C3371 H3357 0.929 . S
C3371 C3370 1.399 . S
C3371 C3372 1.385 . S
C3372 H3358 0.931 . S
C3372 C3371 1.385 . S
C3372 C3373 1.389 . S
C3373 C3372 1.389 . S
C3373 C3374 1.387 . S
C3374 H3359 0.930 . S
C3374 C3369 1.390 . S
C3374 C3373 1.387 . S
H3375 C3387 0.930 . S
H3376 C3389 0.930 . S
H3377 C3390 0.930 . S
H3378 C3394 0.959 . S
H3379 C3394 0.959 . S
H3380 C3394 0.961 . S
H3381 C3395 0.960 . S
H3382 C3395 0.961 . S
H3383 C3395 0.959 . S
H3384 C3398 0.929 1_565 S
H3385 C3399 0.931 1_565 S
H3386 C3401 0.930 . S
C3387 H3375 0.930 . S
C3387 C3388 1.399 . S
C3387 C3392 1.399 . S
C3388 C3387 1.399 . S
C3388 C3389 1.376 . S
C3389 H3376 0.930 . S
C3389 C3388 1.376 . S
C3389 C3390 1.388 . S
C3390 H3377 0.930 . S
C3390 C3389 1.388 . S
C3390 C3391 1.390 . S
C3391 C3390 1.390 . S
C3391 C3392 1.394 . S
C3391 C3397 1.465 . S
C3392 C3387 1.399 . S
C3392 C3391 1.394 . S
C3392 C3393 1.516 . S
C3393 C3392 1.516 . S
C3393 C3394 1.502 . S
C3393 C3395 1.561 . S
C3393 C3396 1.526 . S
C3394 H3378 0.959 . S
C3394 H3379 0.959 . S
C3394 H3380 0.961 . S
C3394 C3393 1.502 . S
C3395 H3381 0.960 . S
C3395 H3382 0.961 . S
C3395 H3383 0.959 . S
C3395 C3393 1.561 . S
C3396 C3393 1.526 . S
C3396 C3397 1.396 . S
C3396 C3401 1.390 . S
C3397 C3391 1.465 . S
C3397 C3396 1.396 . S
C3397 C3398 1.399 . S
C3398 H3384 0.929 1_545 S
C3398 C3397 1.399 . S
C3398 C3399 1.385 . S
C3399 H3385 0.931 1_545 S
C3399 C3398 1.385 . S
C3399 C3400 1.389 . S
C3400 C3399 1.389 . S
C3400 C3401 1.387 . S
C3401 H3386 0.930 . S
C3401 C3396 1.390 . S
C3401 C3400 1.387 . S
H3402 C3414 0.930 . S
H3403 C3416 0.930 . S
H3404 C3417 0.930 . S
H3405 C3421 0.959 . S
H3406 C3421 0.959 . S
H3407 C3421 0.961 . S
H3408 C3422 0.960 . S
H3409 C3422 0.961 . S
H3410 C3422 0.959 . S
H3411 C3425 0.929 . S
H3412 C3426 0.931 . S
H3413 C3428 0.930 . S
C3414 H3402 0.930 . S
C3414 C3415 1.399 . S
C3414 C3419 1.399 . S
C3415 C3414 1.399 . S
C3415 C3416 1.376 . S
C3416 H3403 0.930 . S
C3416 C3415 1.376 . S
C3416 C3417 1.388 . S
C3417 H3404 0.930 . S
C3417 C3416 1.388 . S
C3417 C3418 1.390 . S
C3418 C3417 1.390 . S
C3418 C3419 1.394 . S
C3418 C3424 1.465 . S
C3419 C3414 1.399 . S
C3419 C3418 1.394 . S
C3419 C3420 1.516 . S
C3420 C3419 1.516 . S
C3420 C3421 1.502 . S
C3420 C3422 1.561 . S
C3420 C3423 1.526 . S
C3421 H3405 0.959 . S
C3421 H3406 0.959 . S
C3421 H3407 0.961 . S
C3421 C3420 1.502 . S
C3422 H3408 0.960 . S
C3422 H3409 0.961 . S
C3422 H3410 0.959 . S
C3422 C3420 1.561 . S
C3423 C3420 1.526 . S
C3423 C3424 1.396 . S
C3423 C3428 1.390 . S
C3424 C3418 1.465 . S
C3424 C3423 1.396 . S
C3424 C3425 1.399 . S
C3425 H3411 0.929 . S
C3425 C3424 1.399 . S
C3425 C3426 1.385 . S
C3426 H3412 0.931 . S
C3426 C3425 1.385 . S
C3426 C3427 1.389 . S
C3427 C3426 1.389 . S
C3427 C3428 1.387 . S
C3428 H3413 0.930 . S
C3428 C3423 1.390 . S
C3428 C3427 1.387 . S
H3429 C3441 0.930 . S
H3430 C3443 0.930 . S
H3431 C3444 0.930 . S
H3432 C3448 0.959 . S
H3433 C3448 0.959 . S
H3434 C3448 0.961 . S
H3435 C3449 0.960 . S
H3436 C3449 0.961 . S
H3437 C3449 0.959 . S
H3438 C3452 0.929 . S
H3439 C3453 0.931 . S
H3440 C3455 0.930 . S
C3441 H3429 0.930 . S
C3441 C3442 1.399 . S
C3441 C3446 1.399 . S
C3442 C3441 1.399 . S
C3442 C3443 1.376 . S
C3443 H3430 0.930 . S
C3443 C3442 1.376 . S
C3443 C3444 1.388 . S
C3444 H3431 0.930 . S
C3444 C3443 1.388 . S
C3444 C3445 1.390 . S
C3445 C3444 1.390 . S
C3445 C3446 1.394 . S
C3445 C3451 1.465 . S
C3446 C3441 1.399 . S
C3446 C3445 1.394 . S
C3446 C3447 1.516 . S
C3447 C3446 1.516 . S
C3447 C3448 1.502 . S
C3447 C3449 1.561 . S
C3447 C3450 1.526 . S
C3448 H3432 0.959 . S
C3448 H3433 0.959 . S
C3448 H3434 0.961 . S
C3448 C3447 1.502 . S
C3449 H3435 0.960 . S
C3449 H3436 0.961 . S
C3449 H3437 0.959 . S
C3449 C3447 1.561 . S
C3450 C3447 1.526 . S
C3450 C3451 1.396 . S
C3450 C3455 1.390 . S
C3451 C3445 1.465 . S
C3451 C3450 1.396 . S
C3451 C3452 1.399 . S
C3452 H3438 0.929 . S
C3452 C3451 1.399 . S
C3452 C3453 1.385 . S
C3453 H3439 0.931 . S
C3453 C3452 1.385 . S
C3453 C3454 1.389 . S
C3454 C3453 1.389 . S
C3454 C3455 1.387 . S
C3455 H3440 0.930 . S
C3455 C3450 1.390 . S
C3455 C3454 1.387 . S
H3456 C3468 0.930 . S
H3457 C3470 0.930 . S
H3458 C3471 0.930 . S
H3459 C3475 0.959 . S
H3460 C3475 0.959 . S
H3461 C3475 0.961 . S
H3462 C3476 0.960 . S
H3463 C3476 0.961 . S
H3464 C3476 0.959 . S
H3465 C3479 0.929 1_545 S
H3466 C3480 0.931 1_545 S
H3467 C3482 0.930 . S
C3468 H3456 0.930 . S
C3468 C3469 1.399 . S
C3468 C3473 1.399 . S
C3469 C3468 1.399 . S
C3469 C3470 1.376 . S
C3470 H3457 0.930 . S
C3470 C3469 1.376 . S
C3470 C3471 1.388 . S
C3471 H3458 0.930 . S
C3471 C3470 1.388 . S
C3471 C3472 1.390 . S
C3472 C3471 1.390 . S
C3472 C3473 1.394 . S
C3472 C3478 1.465 . S
C3473 C3468 1.399 . S
C3473 C3472 1.394 . S
C3473 C3474 1.516 . S
C3474 C3473 1.516 . S
C3474 C3475 1.502 . S
C3474 C3476 1.561 . S
C3474 C3477 1.526 . S
C3475 H3459 0.959 . S
C3475 H3460 0.959 . S
C3475 H3461 0.961 . S
C3475 C3474 1.502 . S
C3476 H3462 0.960 . S
C3476 H3463 0.961 . S
C3476 H3464 0.959 . S
C3476 C3474 1.561 . S
C3477 C3474 1.526 . S
C3477 C3478 1.396 . S
C3477 C3482 1.390 . S
C3478 C3472 1.465 . S
C3478 C3477 1.396 . S
C3478 C3479 1.399 . S
C3479 H3465 0.929 1_565 S
C3479 C3478 1.399 . S
C3479 C3480 1.385 . S
C3480 H3466 0.931 1_565 S
C3480 C3479 1.385 . S
C3480 C3481 1.389 . S
C3481 C3480 1.389 . S
C3481 C3482 1.387 . S
C3482 H3467 0.930 . S
C3482 C3477 1.390 . S
C3482 C3481 1.387 . S
H3483 C3495 0.930 . S
H3484 C3497 0.930 . S
H3485 C3498 0.930 . S
H3486 C3502 0.959 . S
H3487 C3502 0.959 . S
H3488 C3502 0.961 . S
H3489 C3503 0.960 . S
H3490 C3503 0.961 . S
H3491 C3503 0.959 . S
H3492 C3506 0.929 . S
H3493 C3507 0.931 . S
H3494 C3509 0.930 . S
C3495 H3483 0.930 . S
C3495 C3496 1.399 . S
C3495 C3500 1.399 . S
C3496 C3495 1.399 . S
C3496 C3497 1.376 . S
C3497 H3484 0.930 . S
C3497 C3496 1.376 . S
C3497 C3498 1.388 . S
C3498 H3485 0.930 . S
C3498 C3497 1.388 . S
C3498 C3499 1.390 . S
C3499 C3498 1.390 . S
C3499 C3500 1.394 . S
C3499 C3505 1.465 . S
C3500 C3495 1.399 . S
C3500 C3499 1.394 . S
C3500 C3501 1.516 . S
C3501 C3500 1.516 . S
C3501 C3502 1.502 . S
C3501 C3503 1.561 . S
C3501 C3504 1.526 . S
C3502 H3486 0.959 . S
C3502 H3487 0.959 . S
C3502 H3488 0.961 . S
C3502 C3501 1.502 . S
C3503 H3489 0.960 . S
C3503 H3490 0.961 . S
C3503 H3491 0.959 . S
C3503 C3501 1.561 . S
C3504 C3501 1.526 . S
C3504 C3505 1.396 . S
C3504 C3509 1.390 . S
C3505 C3499 1.465 . S
C3505 C3504 1.396 . S
C3505 C3506 1.399 . S
C3506 H3492 0.929 . S
C3506 C3505 1.399 . S
C3506 C3507 1.385 . S
C3507 H3493 0.931 . S
C3507 C3506 1.385 . S
C3507 C3508 1.389 . S
C3508 C3507 1.389 . S
C3508 C3509 1.387 . S
C3509 H3494 0.930 . S
C3509 C3504 1.390 . S
C3509 C3508 1.387 . S
H3510 C3522 0.930 . S
H3511 C3524 0.930 . S
H3512 C3525 0.930 . S
H3513 C3529 0.959 . S
H3514 C3529 0.959 . S
H3515 C3529 0.961 . S
H3516 C3530 0.960 . S
H3517 C3530 0.961 . S
H3518 C3530 0.959 . S
H3519 C3533 0.929 . S
H3520 C3534 0.931 . S
H3521 C3536 0.930 . S
C3522 H3510 0.930 . S
C3522 C3523 1.399 . S
C3522 C3527 1.399 . S
C3523 C3522 1.399 . S
C3523 C3524 1.376 . S
C3524 H3511 0.930 . S
C3524 C3523 1.376 . S
C3524 C3525 1.388 . S
C3525 H3512 0.930 . S
C3525 C3524 1.388 . S
C3525 C3526 1.390 . S
C3526 C3525 1.390 . S
C3526 C3527 1.394 . S
C3526 C3532 1.465 . S
C3527 C3522 1.399 . S
C3527 C3526 1.394 . S
C3527 C3528 1.516 . S
C3528 C3527 1.516 . S
C3528 C3529 1.502 . S
C3528 C3530 1.561 . S
C3528 C3531 1.526 . S
C3529 H3513 0.959 . S
C3529 H3514 0.959 . S
C3529 H3515 0.961 . S
C3529 C3528 1.502 . S
C3530 H3516 0.960 . S
C3530 H3517 0.961 . S
C3530 H3518 0.959 . S
C3530 C3528 1.561 . S
C3531 C3528 1.526 . S
C3531 C3532 1.396 . S
C3531 C3536 1.390 . S
C3532 C3526 1.465 . S
C3532 C3531 1.396 . S
C3532 C3533 1.399 . S
C3533 H3519 0.929 . S
C3533 C3532 1.399 . S
C3533 C3534 1.385 . S
C3534 H3520 0.931 . S
C3534 C3533 1.385 . S
C3534 C3535 1.389 . S
C3535 C3534 1.389 . S
C3535 C3536 1.387 . S
C3536 H3521 0.930 . S
C3536 C3531 1.390 . S
C3536 C3535 1.387 . S
H3537 C3549 0.930 . S
H3538 C3551 0.930 . S
H3539 C3552 0.930 . S
H3540 C3556 0.959 . S
H3541 C3556 0.959 . S
H3542 C3556 0.961 . S
H3543 C3557 0.960 . S
H3544 C3557 0.961 . S
H3545 C3557 0.959 . S
H3546 C3560 0.929 . S
H3547 C3561 0.931 . S
H3548 C3563 0.930 . S
C3549 H3537 0.930 . S
C3549 C3550 1.399 . S
C3549 C3554 1.399 . S
C3550 C3549 1.399 . S
C3550 C3551 1.376 . S
C3551 H3538 0.930 . S
C3551 C3550 1.376 . S
C3551 C3552 1.388 . S
C3552 H3539 0.930 . S
C3552 C3551 1.388 . S
C3552 C3553 1.390 . S
C3553 C3552 1.390 . S
C3553 C3554 1.394 . S
C3553 C3559 1.465 . S
C3554 C3549 1.399 . S
C3554 C3553 1.394 . S
C3554 C3555 1.516 . S
C3555 C3554 1.516 . S
C3555 C3556 1.502 . S
C3555 C3557 1.561 . S
C3555 C3558 1.526 . S
C3556 H3540 0.959 . S
C3556 H3541 0.959 . S
C3556 H3542 0.961 . S
C3556 C3555 1.502 . S
C3557 H3543 0.960 . S
C3557 H3544 0.961 . S
C3557 H3545 0.959 . S
C3557 C3555 1.561 . S
C3558 C3555 1.526 . S
C3558 C3559 1.396 . S
C3558 C3563 1.390 . S
C3559 C3553 1.465 . S
C3559 C3558 1.396 . S
C3559 C3560 1.399 . S
C3560 H3546 0.929 . S
C3560 C3559 1.399 . S
C3560 C3561 1.385 . S
C3561 H3547 0.931 . S
C3561 C3560 1.385 . S
C3561 C3562 1.389 . S
C3562 C3561 1.389 . S
C3562 C3563 1.387 . S
C3563 H3548 0.930 . S
C3563 C3558 1.390 . S
C3563 C3562 1.387 . S
H3564 C3576 0.930 . S
H3565 C3578 0.930 1_545 S
H3566 C3579 0.930 . S
H3567 C3583 0.959 . S
H3568 C3583 0.959 . S
H3569 C3583 0.961 . S
H3570 C3584 0.960 . S
H3571 C3584 0.961 . S
H3572 C3584 0.959 . S
H3573 C3587 0.929 . S
H3574 C3588 0.931 . S
H3575 C3590 0.930 . S
C3576 H3564 0.930 . S
C3576 C3577 1.399 . S
C3576 C3581 1.399 . S
C3577 C3576 1.399 . S
C3577 C3578 1.376 . S
C3578 H3565 0.930 1_565 S
C3578 C3577 1.376 . S
C3578 C3579 1.388 . S
C3579 H3566 0.930 . S
C3579 C3578 1.388 . S
C3579 C3580 1.390 . S
C3580 C3579 1.390 . S
C3580 C3581 1.394 . S
C3580 C3586 1.465 . S
C3581 C3576 1.399 . S
C3581 C3580 1.394 . S
C3581 C3582 1.516 . S
C3582 C3581 1.516 . S
C3582 C3583 1.502 . S
C3582 C3584 1.561 . S
C3582 C3585 1.526 . S
C3583 H3567 0.959 . S
C3583 H3568 0.959 . S
C3583 H3569 0.961 . S
C3583 C3582 1.502 . S
C3584 H3570 0.960 . S
C3584 H3571 0.961 . S
C3584 H3572 0.959 . S
C3584 C3582 1.561 . S
C3585 C3582 1.526 . S
C3585 C3586 1.396 . S
C3585 C3590 1.390 . S
C3586 C3580 1.465 . S
C3586 C3585 1.396 . S
C3586 C3587 1.399 . S
C3587 H3573 0.929 . S
C3587 C3586 1.399 . S
C3587 C3588 1.385 . S
C3588 H3574 0.931 . S
C3588 C3587 1.385 . S
C3588 C3589 1.389 . S
C3589 C3588 1.389 . S
C3589 C3590 1.387 . S
C3590 H3575 0.930 . S
C3590 C3585 1.390 . S
C3590 C3589 1.387 . S
H3591 C3603 0.930 . S
H3592 C3605 0.930 . S
H3593 C3606 0.930 . S
H3594 C3610 0.959 . S
H3595 C3610 0.959 . S
H3596 C3610 0.961 . S
H3597 C3611 0.960 . S
H3598 C3611 0.961 . S
H3599 C3611 0.959 . S
H3600 C3614 0.929 . S
H3601 C3615 0.931 . S
H3602 C3617 0.930 . S
C3603 H3591 0.930 . S
C3603 C3604 1.399 . S
C3603 C3608 1.399 . S
C3604 C3603 1.399 . S
C3604 C3605 1.376 . S
C3605 H3592 0.930 . S
C3605 C3604 1.376 . S
C3605 C3606 1.388 . S
C3606 H3593 0.930 . S
C3606 C3605 1.388 . S
C3606 C3607 1.390 . S
C3607 C3606 1.390 . S
C3607 C3608 1.394 . S
C3607 C3613 1.465 . S
C3608 C3603 1.399 . S
C3608 C3607 1.394 . S
C3608 C3609 1.516 . S
C3609 C3608 1.516 . S
C3609 C3610 1.502 . S
C3609 C3611 1.561 . S
C3609 C3612 1.526 . S
C3610 H3594 0.959 . S
C3610 H3595 0.959 . S
C3610 H3596 0.961 . S
C3610 C3609 1.502 . S
C3611 H3597 0.960 . S
C3611 H3598 0.961 . S
C3611 H3599 0.959 . S
C3611 C3609 1.561 . S
C3612 C3609 1.526 . S
C3612 C3613 1.396 . S
C3612 C3617 1.390 . S
C3613 C3607 1.465 . S
C3613 C3612 1.396 . S
C3613 C3614 1.399 . S
C3614 H3600 0.929 . S
C3614 C3613 1.399 . S
C3614 C3615 1.385 . S
C3615 H3601 0.931 . S
C3615 C3614 1.385 . S
C3615 C3616 1.389 . S
C3616 C3615 1.389 . S
C3616 C3617 1.387 . S
C3617 H3602 0.930 . S
C3617 C3612 1.390 . S
C3617 C3616 1.387 . S
C1201 N2 1.026 . S
C1213 C73 1.154 1_545 S
C1228 C7 1.012 1_655 S
C1240 N35 1.155 . S
C1255 C40 1.151 . S
C1267 N68 1.037 . S
C1282 C139 1.043 1_455 S
C1294 N101 1.099 . S
C1309 C172 1.130 . S
C1321 N134 1.022 . S
C1336 C106 1.135 1_565 S
C1348 N167 1.019 . S
C1363 C271 1.102 1_565 S
C1375 N200 1.058 . S
C1390 N233 1.013 . S
C1402 C205 1.155 1_455 S
C1417 C238 1.116 . S
C1429 N266 1.070 . S
C1444 C337 1.085 1_655 S
C1456 N299 1.100 . S
C1471 N332 1.075 . S
C1483 C370 1.085 . S
C1498 C304 1.041 1_545 S
C1510 N365 1.138 . S
C1525 N398 1.014 . S
C1537 C469 1.153 . S
C1552 N431 1.080 . S
C1564 C403 1.062 . S
C1579 N464 1.135 . S
C1591 C436 1.063 . S
C1606 C535 1.090 . S
C1618 N497 1.053 . S
C1633 C568 1.083 . S
C1645 N530 1.060 . S
C1660 N563 1.056 . S
C1672 C502 1.139 . S
C1687 N596 1.157 . S
C1699 C667 1.014 . S
C1714 N629 1.157 . S
C1726 C601 1.013 . S
C1741 N662 1.039 . S
C1753 C634 1.121 . S
C1768 C733 1.129 . S
C1780 N695 1.055 . S
C1795 C766 1.065 . S
C1807 N728 1.119 . S
C1822 N761 1.021 . S
C1834 C700 1.152 . S
C1849 C865 1.014 . S
C1861 N794 1.156 . S
C1876 C799 1.014 . S
C1888 N827 1.155 . S
C1903 N860 1.122 . S
C1915 C832 1.026 . S
C1930 C931 1.048 . S
C1942 N893 1.094 . S
C1957 N926 1.079 . S
C1969 C964 1.122 . S
C1984 C898 1.060 . S
C1996 N959 1.136 . S
C2011 C1063 1.014 . S
C2023 N992 1.155 . S
C2038 N1025 1.157 . S
C2050 C997 1.012 . S
C2065 N1058 1.014 . S
C2077 C1030 1.149 . S
C2092 C1129 1.132 . S
C2104 N1091 1.030 . S
C2119 C1162 1.119 . S
C2131 N1124 1.066 . S
C2146 N1157 1.131 . S
C2158 C1096 1.031 . S
C2173 N673 1.437 . S
C2185 C18 1.430 . S
C2200 C51 1.428 . S
C2212 N607 1.435 1_565 S
C2227 C84 1.428 . S
C2239 N640 1.407 1_455 S
C2254 N1135 1.404 . S
C2266 C117 1.426 . S
C2281 N1168 1.443 1_545 S
C2293 C150 1.445 . S
C2308 C183 1.446 . S
C2320 N1102 1.435 1_655 S
C2335 C216 1.407 . S
C2347 N871 1.395 . S
C2362 C249 1.440 . S
C2374 N805 1.433 1_545 S
C2389 C282 1.447 . S
C2401 N838 1.443 1_655 S
C2416 N541 1.423 . S
C2428 C315 1.426 . S
C2443 C348 1.392 . S
C2455 N574 1.381 1_565 S
C2470 C381 1.437 . S
C2482 N508 1.435 1_455 S
C2497 C414 1.447 . S
C2509 N1069 1.441 . S
C2524 N1003 1.425 . S
C2536 C447 1.441 . S
C2551 N1036 1.442 . S
C2563 C480 1.438 . S
C2578 C513 1.411 . S
C2590 N343 1.418 . S
C2605 C546 1.412 . S
C2617 N376 1.419 . S
C2632 C579 1.394 . S
C2644 N310 1.381 . S
C2659 N79 1.382 . S
C2671 C612 1.395 . S
C2686 C645 1.446 . S
C2698 N13 1.441 . S
C2713 C678 1.441 . S
C2725 N46 1.435 . S
C2740 N937 1.382 . S
C2752 C711 1.395 . S
C2767 C744 1.397 . S
C2779 N970 1.390 . S
C2794 C777 1.440 . S
C2806 N904 1.438 . S
C2821 N277 1.410 . S
C2833 C810 1.431 . S
C2848 N211 1.380 . S
C2860 C843 1.395 . S
C2875 C876 1.400 . S
C2887 N244 1.404 . S
C2902 C909 1.396 . S
C2914 N739 1.381 . S
C2929 N772 1.443 . S
C2941 C942 1.447 . S
C2956 C975 1.391 . S
C2968 N706 1.387 . S
C2983 N475 1.429 . S
C2995 C1008 1.437 . S
C3010 C1041 1.437 . S
C3022 N409 1.428 . S
C3037 C1074 1.396 . S
C3049 N442 1.388 . S
C3064 N145 1.408 . S
C3076 C1107 1.413 . S
C3091 C1140 1.444 . S
C3103 N178 1.439 . S
C3118 N112 1.443 . S
C3130 C1173 1.445 . S
C3145 C153 1.514 . S
C3157 C21 1.506 . S
C3172 C54 1.565 . S
C3184 C186 1.563 . S
C3199 C87 1.534 . S
C3211 C120 1.494 . S
C3226 C219 1.536 . S
C3238 C351 1.509 . S
C3253 C252 1.494 . S
C3265 C384 1.578 . S
C3280 C285 1.509 . S
C3292 C318 1.534 . S
C3307 C549 1.490 . S
C3319 C417 1.550 . S
C3334 C582 1.572 . S
C3346 C450 1.502 . S
C3361 C516 1.557 . S
C3373 C483 1.494 . S
C3388 C747 1.515 . S
C3400 C615 1.578 . S
C3415 C780 1.508 . S
C3427 C648 1.536 . S
C3442 C714 1.581 . S
C3454 C681 1.502 . S
C3469 C945 1.571 . S
C3481 C813 1.557 . S
C3496 C846 1.560 . S
C3508 C978 1.494 . S
C3523 C912 1.548 . S
C3535 C879 1.575 . S
C3550 C1143 1.575 . S
C3562 C1011 1.492 . S
C3577 C1176 1.533 . S
C3589 C1044 1.568 . S
C3604 C1077 1.573 . S
C3616 C1110 1.529 . S
