# Generated by pormake.
# Topology ato, (4)-cn, num edge types: 1
# Building blocks:
#     Node 0, Type 0, BuildingBlock: CEKHIL_clean_sbu_0, # of connection points: 4
#     Node 1, Type 0, BuildingBlock: CEKHIL_clean_sbu_0, # of connection points: 4
#     Node 2, Type 0, BuildingBlock: CEKHIL_clean_sbu_0, # of connection points: 4
#     Node 3, Type 0, BuildingBlock: CEKHIL_clean_sbu_0, # of connection points: 4
#     Node 4, Type 0, BuildingBlock: CEKHIL_clean_sbu_0, # of connection points: 4
#     Node 5, Type 0, BuildingBlock: CEKHIL_clean_sbu_0, # of connection points: 4
#     Node 6, Type 0, BuildingBlock: CEKHIL_clean_sbu_0, # of connection points: 4
#     Node 7, Type 0, BuildingBlock: CEKHIL_clean_sbu_0, # of connection points: 4
#     Node 8, Type 0, BuildingBlock: CEKHIL_clean_sbu_0, # of connection points: 4
#     Node 9, Type 0, BuildingBlock: CEKHIL_clean_sbu_0, # of connection points: 4
#     Node 10, Type 0, BuildingBlock: CEKHIL_clean_sbu_0, # of connection points: 4
#     Node 11, Type 0, BuildingBlock: CEKHIL_clean_sbu_0, # of connection points: 4
#     Node 12, Type 0, BuildingBlock: CEKHIL_clean_sbu_0, # of connection points: 4
#     Node 13, Type 0, BuildingBlock: CEKHIL_clean_sbu_0, # of connection points: 4
#     Node 14, Type 0, BuildingBlock: CEKHIL_clean_sbu_0, # of connection points: 4
#     Node 15, Type 0, BuildingBlock: CEKHIL_clean_sbu_0, # of connection points: 4
#     Node 16, Type 0, BuildingBlock: CEKHIL_clean_sbu_0, # of connection points: 4
#     Node 17, Type 0, BuildingBlock: CEKHIL_clean_sbu_0, # of connection points: 4
#     Node 18, Type 0, BuildingBlock: CEKHIL_clean_sbu_0, # of connection points: 4
#     Node 19, Type 0, BuildingBlock: CEKHIL_clean_sbu_0, # of connection points: 4
#     Node 20, Type 0, BuildingBlock: CEKHIL_clean_sbu_0, # of connection points: 4
#     Node 21, Type 0, BuildingBlock: CEKHIL_clean_sbu_0, # of connection points: 4
#     Node 22, Type 0, BuildingBlock: CEKHIL_clean_sbu_0, # of connection points: 4
#     Node 23, Type 0, BuildingBlock: CEKHIL_clean_sbu_0, # of connection points: 4
#     Node 24, Type 0, BuildingBlock: CEKHIL_clean_sbu_0, # of connection points: 4
#     Node 25, Type 0, BuildingBlock: CEKHIL_clean_sbu_0, # of connection points: 4
#     Node 26, Type 0, BuildingBlock: CEKHIL_clean_sbu_0, # of connection points: 4
#     Node 27, Type 0, BuildingBlock: CEKHIL_clean_sbu_0, # of connection points: 4
#     Node 28, Type 0, BuildingBlock: CEKHIL_clean_sbu_0, # of connection points: 4
#     Node 29, Type 0, BuildingBlock: CEKHIL_clean_sbu_0, # of connection points: 4
#     Node 30, Type 0, BuildingBlock: CEKHIL_clean_sbu_0, # of connection points: 4
#     Node 31, Type 0, BuildingBlock: CEKHIL_clean_sbu_0, # of connection points: 4
#     Node 32, Type 0, BuildingBlock: CEKHIL_clean_sbu_0, # of connection points: 4
#     Node 33, Type 0, BuildingBlock: CEKHIL_clean_sbu_0, # of connection points: 4
#     Node 34, Type 0, BuildingBlock: CEKHIL_clean_sbu_0, # of connection points: 4
#     Node 35, Type 0, BuildingBlock: CEKHIL_clean_sbu_0, # of connection points: 4
#     Edge 36, Type (0, 0), BuildingBlock: XIVTED_clean_linker_0, # of connection points: 2
#     Edge 37, Type (0, 0), BuildingBlock: XIVTED_clean_linker_0, # of connection points: 2
#     Edge 38, Type (0, 0), BuildingBlock: XIVTED_clean_linker_0, # of connection points: 2
#     Edge 39, Type (0, 0), BuildingBlock: XIVTED_clean_linker_0, # of connection points: 2
#     Edge 40, Type (0, 0), BuildingBlock: XIVTED_clean_linker_0, # of connection points: 2
#     Edge 41, Type (0, 0), BuildingBlock: XIVTED_clean_linker_0, # of connection points: 2
#     Edge 42, Type (0, 0), BuildingBlock: XIVTED_clean_linker_0, # of connection points: 2
#     Edge 43, Type (0, 0), BuildingBlock: XIVTED_clean_linker_0, # of connection points: 2
#     Edge 44, Type (0, 0), BuildingBlock: XIVTED_clean_linker_0, # of connection points: 2
#     Edge 45, Type (0, 0), BuildingBlock: XIVTED_clean_linker_0, # of connection points: 2
#     Edge 46, Type (0, 0), BuildingBlock: XIVTED_clean_linker_0, # of connection points: 2
#     Edge 47, Type (0, 0), BuildingBlock: XIVTED_clean_linker_0, # of connection points: 2
#     Edge 48, Type (0, 0), BuildingBlock: XIVTED_clean_linker_0, # of connection points: 2
#     Edge 49, Type (0, 0), BuildingBlock: XIVTED_clean_linker_0, # of connection points: 2
#     Edge 50, Type (0, 0), BuildingBlock: XIVTED_clean_linker_0, # of connection points: 2
#     Edge 51, Type (0, 0), BuildingBlock: XIVTED_clean_linker_0, # of connection points: 2
#     Edge 52, Type (0, 0), BuildingBlock: XIVTED_clean_linker_0, # of connection points: 2
#     Edge 53, Type (0, 0), BuildingBlock: XIVTED_clean_linker_0, # of connection points: 2
#     Edge 54, Type (0, 0), BuildingBlock: XIVTED_clean_linker_0, # of connection points: 2
#     Edge 55, Type (0, 0), BuildingBlock: XIVTED_clean_linker_0, # of connection points: 2
#     Edge 56, Type (0, 0), BuildingBlock: XIVTED_clean_linker_0, # of connection points: 2
#     Edge 57, Type (0, 0), BuildingBlock: XIVTED_clean_linker_0, # of connection points: 2
#     Edge 58, Type (0, 0), BuildingBlock: XIVTED_clean_linker_0, # of connection points: 2
#     Edge 59, Type (0, 0), BuildingBlock: XIVTED_clean_linker_0, # of connection points: 2
#     Edge 60, Type (0, 0), BuildingBlock: XIVTED_clean_linker_0, # of connection points: 2
#     Edge 61, Type (0, 0), BuildingBlock: XIVTED_clean_linker_0, # of connection points: 2
#     Edge 62, Type (0, 0), BuildingBlock: XIVTED_clean_linker_0, # of connection points: 2
#     Edge 63, Type (0, 0), BuildingBlock: XIVTED_clean_linker_0, # of connection points: 2
#     Edge 64, Type (0, 0), BuildingBlock: XIVTED_clean_linker_0, # of connection points: 2
#     Edge 65, Type (0, 0), BuildingBlock: XIVTED_clean_linker_0, # of connection points: 2
#     Edge 66, Type (0, 0), BuildingBlock: XIVTED_clean_linker_0, # of connection points: 2
#     Edge 67, Type (0, 0), BuildingBlock: XIVTED_clean_linker_0, # of connection points: 2
#     Edge 68, Type (0, 0), BuildingBlock: XIVTED_clean_linker_0, # of connection points: 2
#     Edge 69, Type (0, 0), BuildingBlock: XIVTED_clean_linker_0, # of connection points: 2
#     Edge 70, Type (0, 0), BuildingBlock: XIVTED_clean_linker_0, # of connection points: 2
#     Edge 71, Type (0, 0), BuildingBlock: XIVTED_clean_linker_0, # of connection points: 2
#     Edge 72, Type (0, 0), BuildingBlock: XIVTED_clean_linker_0, # of connection points: 2
#     Edge 73, Type (0, 0), BuildingBlock: XIVTED_clean_linker_0, # of connection points: 2
#     Edge 74, Type (0, 0), BuildingBlock: XIVTED_clean_linker_0, # of connection points: 2
#     Edge 75, Type (0, 0), BuildingBlock: XIVTED_clean_linker_0, # of connection points: 2
#     Edge 76, Type (0, 0), BuildingBlock: XIVTED_clean_linker_0, # of connection points: 2
#     Edge 77, Type (0, 0), BuildingBlock: XIVTED_clean_linker_0, # of connection points: 2
#     Edge 78, Type (0, 0), BuildingBlock: XIVTED_clean_linker_0, # of connection points: 2
#     Edge 79, Type (0, 0), BuildingBlock: XIVTED_clean_linker_0, # of connection points: 2
#     Edge 80, Type (0, 0), BuildingBlock: XIVTED_clean_linker_0, # of connection points: 2
#     Edge 81, Type (0, 0), BuildingBlock: XIVTED_clean_linker_0, # of connection points: 2
#     Edge 82, Type (0, 0), BuildingBlock: XIVTED_clean_linker_0, # of connection points: 2
#     Edge 83, Type (0, 0), BuildingBlock: XIVTED_clean_linker_0, # of connection points: 2
#     Edge 84, Type (0, 0), BuildingBlock: XIVTED_clean_linker_0, # of connection points: 2
#     Edge 85, Type (0, 0), BuildingBlock: XIVTED_clean_linker_0, # of connection points: 2
#     Edge 86, Type (0, 0), BuildingBlock: XIVTED_clean_linker_0, # of connection points: 2
#     Edge 87, Type (0, 0), BuildingBlock: XIVTED_clean_linker_0, # of connection points: 2
#     Edge 88, Type (0, 0), BuildingBlock: XIVTED_clean_linker_0, # of connection points: 2
#     Edge 89, Type (0, 0), BuildingBlock: XIVTED_clean_linker_0, # of connection points: 2
#     Edge 90, Type (0, 0), BuildingBlock: XIVTED_clean_linker_0, # of connection points: 2
#     Edge 91, Type (0, 0), BuildingBlock: XIVTED_clean_linker_0, # of connection points: 2
#     Edge 92, Type (0, 0), BuildingBlock: XIVTED_clean_linker_0, # of connection points: 2
#     Edge 93, Type (0, 0), BuildingBlock: XIVTED_clean_linker_0, # of connection points: 2
#     Edge 94, Type (0, 0), BuildingBlock: XIVTED_clean_linker_0, # of connection points: 2
#     Edge 95, Type (0, 0), BuildingBlock: XIVTED_clean_linker_0, # of connection points: 2
#     Edge 96, Type (0, 0), BuildingBlock: XIVTED_clean_linker_0, # of connection points: 2
#     Edge 97, Type (0, 0), BuildingBlock: XIVTED_clean_linker_0, # of connection points: 2
#     Edge 98, Type (0, 0), BuildingBlock: XIVTED_clean_linker_0, # of connection points: 2
#     Edge 99, Type (0, 0), BuildingBlock: XIVTED_clean_linker_0, # of connection points: 2
#     Edge 100, Type (0, 0), BuildingBlock: XIVTED_clean_linker_0, # of connection points: 2
#     Edge 101, Type (0, 0), BuildingBlock: XIVTED_clean_linker_0, # of connection points: 2
#     Edge 102, Type (0, 0), BuildingBlock: XIVTED_clean_linker_0, # of connection points: 2
#     Edge 103, Type (0, 0), BuildingBlock: XIVTED_clean_linker_0, # of connection points: 2
#     Edge 104, Type (0, 0), BuildingBlock: XIVTED_clean_linker_0, # of connection points: 2
#     Edge 105, Type (0, 0), BuildingBlock: XIVTED_clean_linker_0, # of connection points: 2
#     Edge 106, Type (0, 0), BuildingBlock: XIVTED_clean_linker_0, # of connection points: 2
#     Edge 107, Type (0, 0), BuildingBlock: XIVTED_clean_linker_0, # of connection points: 2
# Relax obj value: 0.085
# Max RMSD: 0.096
# Mean RMSD: 0.096
data_MOF--net-ato--node1-CEKHIL_clean_sbu_0--edge1-XIVTED_clean_linker_0
_symmetry_space_group_name_H-M    P1
_symmetry_Int_Tables_number       1
_symmetry_cell_setting            triclinic
loop_
_symmetry_equiv_pos_as_xyz
'x, y, z'
_cell_length_a     102.29239
_cell_length_b     102.33832
_cell_length_c     23.371329
_cell_angle_alpha  89.992555
_cell_angle_beta   90.019883
_cell_angle_gamma 120.02118
loop_
_atom_site_label
_atom_site_type_symbol
_atom_site_fract_x
_atom_site_fract_y
_atom_site_fract_z
_atom_type_partial_charge
Co0 Co 0.25145 0.05517 0.26744 0.0
O1 O 0.23401 0.04028 0.30938 0.0
O2 O 0.2567 0.04277 0.31421 0.0
C3 C 0.24813 0.07499 0.28776 0.0
O4 O 0.27233 0.06943 0.23413 0.0
Co5 Co 0.24884 0.07341 0.16512 0.0
O6 O 0.27116 0.08482 0.16797 0.0
C7 C 0.24258 0.04211 0.14677 0.0
C8 C 0.24282 0.03599 0.33226 0.0
C9 C 0.27861 0.08045 0.19828 0.0
O10 O 0.24624 0.04107 0.19892 0.0
O11 O 0.24196 0.05351 0.12768 0.0
O12 O 0.25463 0.0706 0.32472 0.0
O13 O 0.24293 0.06668 0.24279 0.0
Co14 Co 0.9472 0.19705 0.26603 0.0
O15 O 0.96206 0.19436 0.30772 0.0
O16 O 0.95965 0.2146 0.31299 0.0
C17 C 0.92729 0.17392 0.28585 0.0
O18 O 0.93303 0.20387 0.23359 0.0
Co19 Co 0.92875 0.17663 0.16328 0.0
O20 O 0.91739 0.18756 0.16737 0.0
C21 C 0.96021 0.20143 0.14523 0.0
C22 C 0.96639 0.20744 0.33085 0.0
C23 C 0.92191 0.1993 0.19825 0.0
O24 O 0.96131 0.206 0.19756 0.0
O25 O 0.94869 0.18956 0.1258 0.0
O26 O 0.93177 0.18474 0.32316 0.0
O27 O 0.93555 0.17708 0.2407 0.0
Co28 Co 0.80618 0.75128 0.27188 0.0
O29 O 0.80885 0.76877 0.31384 0.0
O30 O 0.78852 0.74615 0.3181 0.0
C31 C 0.82922 0.75433 0.29251 0.0
O32 O 0.79934 0.73034 0.2391 0.0
Co33 Co 0.82681 0.75331 0.16985 0.0
O34 O 0.8158 0.73101 0.17366 0.0
C35 C 0.80218 0.76017 0.15096 0.0
C36 C 0.79567 0.76 0.33636 0.0
C37 C 0.80397 0.7238 0.20407 0.0
O38 O 0.79747 0.75662 0.20312 0.0
O39 O 0.81407 0.76049 0.13194 0.0
O40 O 0.81829 0.74797 0.32941 0.0
O41 O 0.82623 0.75956 0.24732 0.0
Co42 Co 0.05607 0.25084 0.73473 0.0
O43 O 0.0412 0.23321 0.69348 0.0
O44 O 0.04361 0.25585 0.68744 0.0
C45 C 0.07594 0.24751 0.71517 0.0
O46 O 0.07024 0.27188 0.76676 0.0
Co47 Co 0.07461 0.24903 0.83753 0.0
O48 O 0.08595 0.27133 0.83294 0.0
C49 C 0.04312 0.24231 0.8556 0.0
C50 C 0.03686 0.24192 0.67001 0.0
C51 C 0.08137 0.27849 0.80197 0.0
O52 O 0.042 0.24579 0.80327 0.0
O53 O 0.05465 0.24195 0.8749 0.0
O54 O 0.07151 0.25386 0.67767 0.0
O55 O 0.06769 0.24253 0.76039 0.0
Co56 Co 0.75181 0.80575 0.7401 0.0
O57 O 0.76934 0.8086 0.6981 0.0
O58 O 0.74682 0.78814 0.69359 0.0
C59 C 0.75471 0.82871 0.7193 0.0
O60 O 0.73089 0.79883 0.77359 0.0
Co61 Co 0.75417 0.82655 0.84213 0.0
O62 O 0.73185 0.81534 0.83952 0.0
C63 C 0.76103 0.80192 0.86072 0.0
C64 C 0.76069 0.79544 0.67538 0.0
C65 C 0.72451 0.80347 0.80939 0.0
O66 O 0.75733 0.79714 0.80871 0.0
O67 O 0.76145 0.81386 0.8797 0.0
O68 O 0.74831 0.81774 0.68262 0.0
O69 O 0.76006 0.8258 0.76434 0.0
Co70 Co 0.19796 0.94627 0.73619 0.0
O71 O 0.19537 0.96108 0.69381 0.0
O72 O 0.21556 0.95858 0.6891 0.0
C73 C 0.17474 0.92644 0.71653 0.0
O74 O 0.20464 0.9321 0.76979 0.0
Co75 Co 0.17728 0.92812 0.83898 0.0
O76 O 0.18821 0.91675 0.83631 0.0
C77 C 0.2023 0.95951 0.85653 0.0
C78 C 0.20846 0.96534 0.67086 0.0
C79 C 0.2 0.92113 0.80581 0.0
O80 O 0.20692 0.96051 0.80432 0.0
O81 O 0.19034 0.94809 0.87596 0.0
O82 O 0.18558 0.93071 0.6794 0.0
O83 O 0.17796 0.93482 0.76133 0.0
Co84 Co 0.75197 0.94672 0.74362 0.0
O85 O 0.7695 0.96176 0.70237 0.0
O86 O 0.74684 0.9594 0.69817 0.0
C87 C 0.75537 0.92706 0.72142 0.0
O88 O 0.731 0.93246 0.77614 0.0
Co89 Co 0.75363 0.9274 0.84343 0.0
O90 O 0.73162 0.91462 0.83024 0.0
C91 C 0.76058 0.95888 0.86527 0.0
C92 C 0.76073 0.96619 0.68011 0.0
C93 C 0.72437 0.91999 0.80449 0.0
O94 O 0.75722 0.96043 0.81324 0.0
O95 O 0.76065 0.9471 0.88322 0.0
O96 O 0.74883 0.93156 0.68509 0.0
O97 O 0.76036 0.93504 0.76725 0.0
Co98 Co 0.05634 0.80577 0.74213 0.0
O99 O 0.04155 0.80837 0.69964 0.0
O100 O 0.04357 0.78789 0.69711 0.0
C101 C 0.07639 0.82859 0.71961 0.0
O102 O 0.0704 0.799 0.77626 0.0
Co103 Co 0.07513 0.82709 0.84248 0.0
O104 O 0.08612 0.81575 0.84121 0.0
C105 C 0.04357 0.80279 0.86275 0.0
C106 C 0.03698 0.79508 0.6781 0.0
C107 C 0.08148 0.80374 0.81186 0.0
O108 O 0.0424 0.79757 0.8114 0.0
O109 O 0.05513 0.81489 0.88046 0.0
O110 O 0.07171 0.81743 0.68378 0.0
O111 O 0.06825 0.82593 0.76481 0.0
Co112 Co 0.19695 0.25047 0.73916 0.0
O113 O 0.19443 0.23315 0.6965 0.0
O114 O 0.21484 0.25573 0.69401 0.0
C115 C 0.17404 0.24753 0.7169 0.0
O116 O 0.20363 0.27124 0.7735 0.0
Co117 Co 0.17562 0.24777 0.83973 0.0
O118 O 0.18686 0.27009 0.83859 0.0
C119 C 0.20014 0.24082 0.85974 0.0
C120 C 0.20771 0.24194 0.67494 0.0
C121 C 0.19886 0.27752 0.80923 0.0
O122 O 0.20525 0.24478 0.80823 0.0
O123 O 0.18805 0.24024 0.87774 0.0
O124 O 0.18518 0.2541 0.68101 0.0
O125 O 0.17677 0.24208 0.76202 0.0
Co126 Co 0.94737 0.75108 0.27345 0.0
O127 O 0.96198 0.76863 0.31577 0.0
O128 O 0.95974 0.74606 0.32139 0.0
C129 C 0.9273 0.75415 0.2919 0.0
O130 O 0.93346 0.73011 0.24016 0.0
Co131 Co 0.92928 0.75315 0.1695 0.0
O132 O 0.91804 0.73085 0.17311 0.0
C133 C 0.96081 0.75983 0.1533 0.0
C134 C 0.96634 0.75994 0.3393 0.0
C135 C 0.92252 0.72361 0.20409 0.0
O136 O 0.96179 0.75644 0.20588 0.0
O137 O 0.94931 0.76006 0.13296 0.0
O138 O 0.93165 0.74777 0.32957 0.0
O139 O 0.93575 0.75934 0.24727 0.0
Co140 Co 0.25181 0.19647 0.27069 0.0
O141 O 0.23433 0.19354 0.31331 0.0
O142 O 0.25684 0.21401 0.31777 0.0
C143 C 0.24895 0.17348 0.29053 0.0
O144 O 0.2727 0.20348 0.23658 0.0
Co145 Co 0.24939 0.17584 0.16786 0.0
O146 O 0.27171 0.18711 0.16994 0.0
C147 C 0.24258 0.20055 0.15053 0.0
C148 C 0.24299 0.20668 0.33618 0.0
C149 C 0.27906 0.19895 0.20023 0.0
O150 O 0.24619 0.20518 0.20274 0.0
O151 O 0.24223 0.18871 0.1309 0.0
O152 O 0.25539 0.18438 0.32747 0.0
O153 O 0.24355 0.17647 0.24583 0.0
Co154 Co 0.80619 0.05547 0.27484 0.0
O155 O 0.80923 0.04097 0.31741 0.0
O156 O 0.78879 0.04305 0.32263 0.0
C157 C 0.82925 0.07566 0.29346 0.0
O158 O 0.79907 0.06929 0.24124 0.0
Co159 Co 0.82637 0.07352 0.17092 0.0
O160 O 0.81521 0.08466 0.17405 0.0
C161 C 0.80168 0.04193 0.15491 0.0
C162 C 0.79615 0.03655 0.34079 0.0
C163 C 0.80349 0.0802 0.20502 0.0
O164 O 0.79723 0.04101 0.20734 0.0
O165 O 0.81342 0.05342 0.13464 0.0
O166 O 0.81848 0.07123 0.33099 0.0
O167 O 0.82611 0.0672 0.24891 0.0
Co168 Co 0.9194 0.3894 0.60958 0.0
O169 O 0.90186 0.37477 0.6519 0.0
O170 O 0.92445 0.377 0.65704 0.0
C171 C 0.91635 0.40945 0.62863 0.0
O172 O 0.94036 0.40336 0.57636 0.0
Co173 Co 0.91732 0.40762 0.5062 0.0
O174 O 0.93963 0.4189 0.5099 0.0
C175 C 0.91048 0.37608 0.4893 0.0
C176 C 0.91057 0.3704 0.67514 0.0
C177 C 0.94687 0.41438 0.54067 0.0
O178 O 0.91398 0.37507 0.5417 0.0
O179 O 0.91022 0.3876 0.4694 0.0
O180 O 0.92275 0.40507 0.66607 0.0
O181 O 0.91112 0.40105 0.58389 0.0
Co182 Co 0.61402 0.53081 0.60527 0.0
O183 O 0.6278 0.52752 0.6515 0.0
O184 O 0.62632 0.54834 0.65259 0.0
C185 C 0.59332 0.50808 0.62282 0.0
O186 O 0.60092 0.53816 0.5671 0.0
Co187 Co 0.59718 0.51049 0.50012 0.0
O188 O 0.58663 0.52229 0.49713 0.0
C189 C 0.62971 0.53262 0.49313 0.0
C190 C 0.63242 0.54082 0.67313 0.0
C191 C 0.59067 0.53394 0.52814 0.0
O192 O 0.62922 0.53905 0.54 0.0
O193 O 0.61867 0.52025 0.4745 0.0
O194 O 0.59754 0.51899 0.65967 0.0
O195 O 0.60226 0.51094 0.57998 0.0
Co196 Co 0.47242 0.08468 0.60692 0.0
O197 O 0.47488 0.10201 0.64942 0.0
O198 O 0.45471 0.07928 0.65348 0.0
C199 C 0.4956 0.08808 0.62734 0.0
O200 O 0.46586 0.06388 0.57302 0.0
Co201 Co 0.49336 0.08745 0.50474 0.0
O202 O 0.48246 0.06514 0.50694 0.0
C203 C 0.4683 0.09373 0.4865 0.0
C204 C 0.46175 0.09312 0.67198 0.0
C205 C 0.47062 0.05765 0.53705 0.0
O206 O 0.46357 0.09 0.53855 0.0
O207 O 0.48033 0.09436 0.46743 0.0
O208 O 0.48468 0.08145 0.66409 0.0
O209 O 0.49249 0.0933 0.58247 0.0
Co210 Co 0.72318 0.58481 0.07353 0.0
O211 O 0.70912 0.56747 0.02913 0.0
O212 O 0.71036 0.58965 0.02766 0.0
C213 C 0.74389 0.58302 0.05348 0.0
O214 O 0.73646 0.60548 0.10979 0.0
Co215 Co 0.74114 0.5821 0.17646 0.0
O216 O 0.75159 0.60444 0.17749 0.0
C217 C 0.70864 0.57157 0.18814 0.0
C218 C 0.70423 0.57596 0.00789 0.0
C219 C 0.74712 0.61179 0.14706 0.0
O220 O 0.70856 0.57805 0.14077 0.0
O221 O 0.71996 0.57054 0.20545 0.0
O222 O 0.73921 0.58939 0.01707 0.0
O223 O 0.73535 0.57703 0.09738 0.0
Co224 Co 0.41812 0.13926 0.0755 0.0
O225 O 0.43562 0.14197 0.03357 0.0
O226 O 0.413 0.12166 0.02863 0.0
C227 C 0.4213 0.16236 0.05531 0.0
O228 O 0.3972 0.13247 0.10877 0.0
Co229 Co 0.42052 0.15997 0.17796 0.0
O230 O 0.3982 0.1489 0.1751 0.0
C231 C 0.42702 0.13509 0.19614 0.0
C232 C 0.42689 0.12886 0.01062 0.0
C233 C 0.39084 0.13709 0.14467 0.0
O234 O 0.42342 0.13042 0.14395 0.0
O235 O 0.42751 0.14703 0.21537 0.0
O236 O 0.41485 0.15147 0.0183 0.0
O237 O 0.42652 0.15928 0.1003 0.0
Co238 Co 0.86346 0.28055 0.07799 0.0
O239 O 0.86076 0.29543 0.0366 0.0
O240 O 0.88114 0.29324 0.032 0.0
C241 C 0.84048 0.26057 0.05671 0.0
O242 O 0.8703 0.26641 0.11041 0.0
Co243 Co 0.84269 0.26175 0.17944 0.0
O244 O 0.85382 0.25057 0.17574 0.0
C245 C 0.86719 0.29325 0.19911 0.0
C246 C 0.87394 0.29992 0.01405 0.0
C247 C 0.86567 0.25523 0.14541 0.0
O248 O 0.87208 0.29445 0.14721 0.0
O249 O 0.8552 0.28168 0.21753 0.0
O250 O 0.85145 0.26525 0.01996 0.0
O251 O 0.8434 0.2687 0.10212 0.0
Co252 Co 0.41807 0.28035 0.06965 0.0
O253 O 0.43538 0.295 0.02642 0.0
O254 O 0.41276 0.29271 0.02297 0.0
C255 C 0.42107 0.26032 0.0496 0.0
O256 O 0.39729 0.26636 0.10437 0.0
Co257 Co 0.42088 0.26231 0.17225 0.0
O258 O 0.39855 0.25109 0.17085 0.0
C259 C 0.42744 0.29375 0.18965 0.0
C260 C 0.42656 0.29934 1.00401 0.0
C261 C 0.39107 0.25547 0.14081 0.0
O262 O 0.42372 0.2947 0.13754 0.0
O263 O 0.42793 0.28231 0.20916 0.0
O264 O 0.41449 0.26469 0.01289 0.0
O265 O 0.42653 0.26876 0.09413 0.0
Co266 Co 0.72277 0.13886 0.0761 0.0
O267 O 0.70811 0.14168 0.03363 0.0
O268 O 0.71045 0.1214 0.02849 0.0
C269 C 0.74276 0.16202 0.05725 0.0
O270 O 0.73677 0.13192 0.10948 0.0
Co271 Co 0.74091 0.15914 0.17966 0.0
O272 O 0.75218 0.1481 0.17649 0.0
C273 C 0.70938 0.13432 0.19622 0.0
C274 C 0.7038 0.12862 0.01033 0.0
C275 C 0.74772 0.13638 0.14554 0.0
O276 O 0.7084 0.12984 0.14381 0.0
O277 O 0.72087 0.14611 0.21625 0.0
O278 O 0.73844 0.15126 0.01977 0.0
O279 O 0.73435 0.15878 0.10197 0.0
Co280 Co 0.86489 0.58517 0.06958 0.0
O281 O 0.86138 0.56812 0.02303 0.0
O282 O 0.88232 0.59032 0.02169 0.0
C283 C 0.84224 0.58339 0.05282 0.0
O284 O 0.87241 0.60559 0.10824 0.0
Co285 Co 0.84473 0.58154 0.17546 0.0
O286 O 0.85659 0.60388 0.17863 0.0
C287 C 0.8668 0.57108 0.18112 0.0
C288 C 0.87466 0.57671 1.00111 0.0
C289 C 0.86822 0.61155 0.14756 0.0
O290 O 0.87316 0.57806 0.13426 0.0
O291 O 0.85447 0.56973 0.20029 0.0
O292 O 0.8531 0.59002 0.01576 0.0
O293 O 0.84506 0.57715 0.09527 0.0
Co294 Co 0.61388 0.08546 0.60739 0.0
O295 O 0.6287 0.10307 0.64881 0.0
O296 O 0.62664 0.08056 0.6534 0.0
C297 C 0.59385 0.08837 0.62865 0.0
O298 O 0.59984 0.06445 0.57485 0.0
Co299 Co 0.59496 0.08728 0.50601 0.0
O300 O 0.58394 0.06496 0.50949 0.0
C301 C 0.62654 0.09448 0.48629 0.0
C302 C 0.63327 0.09444 0.67136 0.0
C303 C 0.58869 0.05783 0.53973 0.0
O304 O 0.62779 0.09083 0.5382 0.0
O305 O 0.61492 0.09481 0.46792 0.0
O306 O 0.59853 0.08208 0.66537 0.0
O307 O 0.60196 0.09358 0.58322 0.0
Co308 Co 0.91869 0.53006 0.60136 0.0
O309 O 0.90163 0.52744 0.64586 0.0
O310 O 0.92398 0.5482 0.64496 0.0
C311 C 0.91638 0.50752 0.62502 0.0
O312 O 0.93914 0.53682 0.56397 0.0
Co313 Co 0.91536 0.50812 0.50236 0.0
O314 O 0.93766 0.51816 0.50848 0.0
C315 C 0.90574 0.53078 0.48523 0.0
C316 C 0.91035 0.54094 0.66561 0.0
C317 C 0.94529 0.53092 0.5331 0.0
O318 O 0.91188 0.53745 0.53288 0.0
O319 O 0.9048 0.51837 0.4692 0.0
O320 O 0.92321 0.51894 0.65961 0.0
O321 O 0.91042 0.50985 0.58051 0.0
Co322 Co 0.47285 0.38928 0.60107 0.0
O323 O 0.47567 0.37459 0.6432 0.0
O324 O 0.45512 0.37649 0.64682 0.0
C325 C 0.49569 0.40943 0.62266 0.0
O326 O 0.46591 0.40323 0.56735 0.0
Co327 Co 0.4939 0.408 0.49989 0.0
O328 O 0.48254 0.41896 0.50208 0.0
C329 C 0.46952 0.37644 0.48036 0.0
C330 C 0.46243 0.36996 0.66533 0.0
C331 C 0.47058 0.4143 0.53177 0.0
O332 O 0.4645 0.37526 0.53204 0.0
O333 O 0.48152 0.38801 0.46209 0.0
O334 O 0.48463 0.40473 0.65902 0.0
O335 O 0.49294 0.40123 0.57758 0.0
Co336 Co 0.58531 0.72282 0.93618 0.0
O337 O 0.56794 0.70819 0.97918 0.0
O338 O 0.59045 0.71019 0.98186 0.0
C339 C 0.58263 0.74298 0.9575 0.0
O340 O 0.6061 0.73673 0.90153 0.0
Co341 Co 0.58264 0.74117 0.83457 0.0
O342 O 0.60498 0.75219 0.83562 0.0
C343 C 0.57544 0.70959 0.81612 0.0
C344 C 0.57667 0.70364 1.00093 0.0
C345 C 0.61239 0.74767 0.86538 0.0
O346 O 0.57947 0.70863 0.86772 0.0
O347 O 0.57492 0.72107 0.79742 0.0
O348 O 0.58913 0.73839 0.9937 0.0
O349 O 0.57705 0.73466 0.91271 0.0
Co350 Co 0.28078 0.86291 0.94035 0.0
O351 O 0.29547 0.86014 0.98278 0.0
O352 O 0.29333 0.88054 0.98695 0.0
C353 C 0.2607 0.83993 0.96062 0.0
O354 O 0.26679 0.86979 0.90649 0.0
Co355 Co 0.26251 0.8422 0.83786 0.0
O356 O 0.25136 0.85337 0.84006 0.0
C357 C 0.29406 0.86679 0.8202 0.0
C358 C 0.29995 0.87331 0.00532 0.0
C359 C 0.25583 0.86519 0.87038 0.0
O360 O 0.295 0.87159 0.8721 0.0
O361 O 0.2826 0.85482 0.80101 0.0
O362 O 0.26521 0.85086 0.99747 0.0
O363 O 0.26904 0.84289 0.91582 0.0
Co364 Co 0.13901 0.41717 0.93659 0.0
O365 O 0.14239 0.43433 0.98235 0.0
O366 O 0.1215 0.41208 0.98375 0.0
C367 C 0.16167 0.41907 0.95445 0.0
O368 O 0.13156 0.39663 0.89909 0.0
Co369 Co 0.15925 0.42034 0.83163 0.0
O370 O 0.14744 0.39798 0.82958 0.0
C371 C 0.13728 0.4309 0.8239 0.0
C372 C 0.12908 0.42572 1.00404 0.0
C373 C 0.13578 0.39048 0.86065 0.0
O374 O 0.13084 0.42409 0.87094 0.0
O375 O 0.1496 0.43211 0.80536 0.0
O376 O 0.15077 0.41252 0.99136 0.0
O377 O 0.15889 0.42514 0.91136 0.0
Co378 Co 0.39004 0.9185 0.40851 0.0
O379 O 0.37554 0.90112 0.36513 0.0
O380 O 0.37759 0.92363 0.3616 0.0
C381 C 0.41028 0.91579 0.38903 0.0
O382 O 0.40386 0.9393 0.44332 0.0
Co383 Co 0.40802 0.91586 0.51171 0.0
O384 O 0.41914 0.93818 0.51015 0.0
C385 C 0.37641 0.90884 0.52809 0.0
C386 C 0.37108 0.90984 0.34268 0.0
C387 C 0.41472 0.94559 0.47986 0.0
O388 O 0.37558 0.9127 0.47608 0.0
O389 O 0.38786 0.90841 0.54788 0.0
O390 O 0.40583 0.92224 0.35209 0.0
O391 O 0.40178 0.91023 0.43336 0.0
Co392 Co 0.08563 0.47291 0.40454 0.0
O393 O 0.1029 0.47611 0.35992 0.0
O394 O 0.08066 0.45521 0.35871 0.0
C395 C 0.08758 0.49548 0.3843 0.0
O396 O 0.065 0.46559 0.44117 0.0
Co397 Co 0.08854 0.49366 0.50734 0.0
O398 O 0.06619 0.48173 0.50919 0.0
C399 C 0.09889 0.47155 0.51911 0.0
C400 C 0.09435 0.46273 0.33876 0.0
C401 C 0.05877 0.46991 0.47883 0.0
O402 O 0.09239 0.46502 0.47171 0.0
O403 O 0.09998 0.48392 0.53643 0.0
O404 O 0.08107 0.48439 0.34812 0.0
O405 O 0.09355 0.49291 0.42822 0.0
Co406 Co 0.53078 0.61364 0.40403 0.0
O407 O 0.5278 0.62821 0.36166 0.0
O408 O 0.54817 0.62601 0.35612 0.0
C409 C 0.50764 0.59354 0.38569 0.0
O410 O 0.53786 0.59976 0.4374 0.0
Co411 Co 0.51066 0.59564 0.50812 0.0
O412 O 0.52171 0.58439 0.50452 0.0
C413 C 0.53534 0.62725 0.52384 0.0
C414 C 0.54086 0.63259 0.33822 0.0
C415 C 0.53341 0.58883 0.4735 0.0
O416 O 0.53982 0.62809 0.4715 0.0
O417 O 0.52356 0.61579 0.54412 0.0
O418 O 0.51836 0.59789 0.34798 0.0
O419 O 0.5109 0.60202 0.43024 0.0
Co420 Co 0.08453 0.6134 0.40598 0.0
O421 O 0.10196 0.62848 0.36452 0.0
O422 O 0.07921 0.62586 0.3601 0.0
C423 C 0.08814 0.59383 0.38437 0.0
O424 O 0.06364 0.59898 0.43884 0.0
Co425 Co 0.08664 0.59449 0.50648 0.0
O426 O 0.06472 0.58132 0.49253 0.0
C427 C 0.09291 0.62578 0.52753 0.0
C428 C 0.09309 0.63275 0.34204 0.0
C429 C 0.05725 0.58647 0.46694 0.0
O430 O 0.08966 0.62721 0.47522 0.0
O431 O 0.0931 0.6141 0.54612 0.0
O432 O 0.08152 0.5982 0.34786 0.0
O433 O 0.09314 0.60193 0.42993 0.0
Co434 Co 0.38939 0.47241 0.40716 0.0
O435 O 0.37469 0.47515 0.36471 0.0
O436 O 0.37681 0.45473 0.36085 0.0
C437 C 0.40949 0.49536 0.38654 0.0
O438 O 0.40338 0.46555 0.44109 0.0
Co439 Co 0.40769 0.49321 0.50941 0.0
O440 O 0.41881 0.48201 0.50744 0.0
C441 C 0.37615 0.46864 0.52737 0.0
C442 C 0.37019 0.46195 0.34237 0.0
C443 C 0.41434 0.47016 0.47721 0.0
O444 O 0.3752 0.4638 0.47553 0.0
O445 O 0.38761 0.48062 0.54644 0.0
O446 O 0.40493 0.48439 0.34986 0.0
O447 O 0.40117 0.49246 0.4314 0.0
Co448 Co 0.53201 0.91941 0.40142 0.0
O449 O 0.52858 0.90224 0.35571 0.0
O450 O 0.54945 0.92449 0.35369 0.0
C451 C 0.5093 0.91746 0.38413 0.0
O452 O 0.53945 0.93995 0.43897 0.0
Co453 Co 0.51186 0.91608 0.50695 0.0
O454 O 0.52361 0.93843 0.50894 0.0
C455 C 0.53405 0.90578 0.51401 0.0
C456 C 0.54185 0.91083 0.33363 0.0
C457 C 0.53522 0.94601 0.4777 0.0
O458 O 0.54035 0.91256 0.46675 0.0
O459 O 0.52173 0.90449 0.53299 0.0
O460 O 0.52015 0.924 0.347 0.0
O461 O 0.51215 0.91139 0.42706 0.0
Co462 Co 0.28018 0.41658 0.93912 0.0
O463 O 0.29466 0.43395 0.98247 0.0
O464 O 0.29265 0.41146 0.98597 0.0
C465 C 0.25993 0.41925 0.95873 0.0
O466 O 0.26636 0.39577 0.90429 0.0
Co467 Co 0.26219 0.41924 0.83602 0.0
O468 O 0.25107 0.39693 0.8376 0.0
C469 C 0.2938 0.4263 0.81956 0.0
C470 C 0.29914 0.42525 1.00489 0.0
C471 C 0.25549 0.3895 0.8678 0.0
O472 O 0.29464 0.42241 0.87151 0.0
O473 O 0.28235 0.42673 0.79982 0.0
O474 O 0.26439 0.4128 0.99562 0.0
O475 O 0.26842 0.42482 0.91439 0.0
Co476 Co 0.58568 0.86397 0.93353 0.0
O477 O 0.56865 0.8615 0.97787 0.0
O478 O 0.59119 0.882 0.97823 0.0
C479 C 0.58282 0.84111 0.95587 0.0
O480 O 0.60616 0.8705 0.89662 0.0
Co481 Co 0.58219 0.84226 0.83338 0.0
O482 O 0.60442 0.85176 0.84098 0.0
C483 C 0.57304 0.86533 0.81758 0.0
C484 C 0.57751 0.87488 0.99842 0.0
C485 C 0.61219 0.86442 0.86608 0.0
O486 O 0.57922 0.87183 0.86544 0.0
O487 O 0.57193 0.85288 0.80097 0.0
O488 O 0.58978 0.85236 0.99112 0.0
O489 O 0.57711 0.84381 0.91148 0.0
Co490 Co 0.13913 0.72212 0.93724 0.0
O491 O 0.14185 0.7074 0.97959 0.0
O492 O 0.12158 0.70978 0.98454 0.0
C493 C 0.1623 0.74205 0.95677 0.0
O494 O 0.13236 0.73622 0.9036 0.0
Co495 Co 0.15973 0.74016 0.83415 0.0
O496 O 0.14877 0.7515 0.83683 0.0
C497 C 0.13477 0.70873 0.81712 0.0
C498 C 0.12877 0.70309 1.0027 0.0
C499 C 0.137 0.74716 0.86742 0.0
O500 O 0.13016 0.70782 0.8693 0.0
O501 O 0.14672 0.72012 0.79748 0.0
O502 O 0.15146 0.73771 0.99393 0.0
O503 O 0.15913 0.73365 0.91204 0.0
H504 H 0.23556 0.97671 0.61397 0.0
H505 H 0.21503 0.02186 0.38344 0.0
H506 H 0.1946 0.97901 0.61766 0.0
H507 H 0.25861 0.02489 0.39064 0.0
H508 H 0.20701 0.00505 0.46624 0.0
H509 H 0.24403 0.99358 0.53069 0.0
C510 C 0.22839 0.98084 0.59757 0.0
C511 C 0.21434 0.97643 0.62305 0.0
C512 C 0.21832 0.00934 0.44972 0.0
C513 C 0.2239 0.99562 0.52712 0.0
C514 C 0.2229 0.01891 0.40214 0.0
C515 C 0.23753 0.02482 0.37985 0.0
C516 C 0.22841 0.00556 0.47549 0.0
C517 C 0.24722 0.0206 0.40624 0.0
C518 C 0.23322 0.99044 0.54989 0.0
C519 C 0.20552 0.98211 0.59967 0.0
N520 N 0.24249 0.01125 0.45261 0.0
N521 N 0.21041 0.99132 0.55307 0.0
H522 H 0.0229 0.21409 0.61897 0.0
H523 H 0.97789 0.23454 0.38748 0.0
H524 H 0.02563 0.25751 0.61139 0.0
H525 H 0.97995 0.19347 0.38424 0.0
H526 H 0.99468 0.24296 0.47087 0.0
H527 H 0.00614 0.20597 0.53587 0.0
C528 C 0.01988 0.22189 0.60014 0.0
C529 C 0.02571 0.23652 0.62238 0.0
C530 C 0.99152 0.23213 0.45177 0.0
C531 C 0.00652 0.22729 0.52649 0.0
C532 C 0.98195 0.22733 0.40399 0.0
C533 C 0.9775 0.21327 0.37861 0.0
C534 C 0.99662 0.22277 0.47474 0.0
C535 C 0.9831 0.20441 0.40216 0.0
C536 C 0.01035 0.21727 0.5524 0.0
C537 C 0.02142 0.24613 0.59583 0.0
N538 N 0.99228 0.20926 0.44889 0.0
N539 N 0.01211 0.24136 0.54935 0.0
H540 H 0.76844 0.74428 0.39208 0.0
H541 H 0.7885 0.80943 0.6244 0.0
H542 H 0.80952 0.78747 0.3903 0.0
H543 H 0.74516 0.7686 0.61657 0.0
H544 H 0.7967 0.80092 0.5413 0.0
H545 H 0.75985 0.7525 0.47538 0.0
C546 C 0.77561 0.75553 0.40889 0.0
C547 C 0.78973 0.7652 0.38396 0.0
C548 C 0.7854 0.79378 0.55775 0.0
C549 C 0.78003 0.77463 0.47996 0.0
C550 C 0.78073 0.7986 0.60551 0.0
C551 C 0.7661 0.78972 0.6277 0.0
C552 C 0.77543 0.77991 0.53173 0.0
C553 C 0.75654 0.77582 0.60106 0.0
C554 C 0.77071 0.76021 0.4566 0.0
C555 C 0.79855 0.77963 0.40787 0.0
N556 N 0.76135 0.77136 0.55452 0.0
N557 N 0.79359 0.78386 0.45452 0.0
H558 H 0.74502 0.97772 0.62436 0.0
H559 H 0.81031 0.02298 0.39253 0.0
H560 H 0.78828 0.97998 0.62681 0.0
H561 H 0.76936 0.02527 0.39976 0.0
H562 H 0.80184 0.00636 0.47596 0.0
H563 H 0.75331 0.99461 0.54124 0.0
C564 C 0.7563 0.98186 0.60776 0.0
C565 C 0.76597 0.97742 0.6328 0.0
C566 C 0.79467 0.01045 0.45931 0.0
C567 C 0.77547 0.99663 0.53698 0.0
C568 C 0.79947 0.0199 0.41138 0.0
C569 C 0.79054 0.02554 0.3889 0.0
C570 C 0.78077 0.00651 0.48519 0.0
C571 C 0.77662 0.02118 0.41548 0.0
C572 C 0.76101 0.99147 0.56013 0.0
C573 C 0.78044 0.98311 0.60914 0.0
N574 N 0.77218 0.01195 0.46216 0.0
N575 N 0.78471 0.99233 0.56257 0.0
H576 H 0.02521 0.76769 0.62315 0.0
H577 H 0.98021 0.78778 0.39022 0.0
H578 H 0.02343 0.80893 0.6238 0.0
H579 H 0.97746 0.74436 0.39876 0.0
H580 H 0.99693 0.79598 0.47338 0.0
H581 H 0.00827 0.75903 0.54007 0.0
C582 C 0.02117 0.77488 0.60615 0.0
C583 C 0.02576 0.78906 0.63069 0.0
C584 C 0.99272 0.78466 0.45707 0.0
C585 C 0.00649 0.77929 0.53496 0.0
C586 C 0.9832 0.77999 0.4093 0.0
C587 C 0.9774 0.76535 0.38727 0.0
C588 C 0.99656 0.77467 0.48327 0.0
C589 C 0.98167 0.75576 0.41415 0.0
C590 C 0.01153 0.76994 0.55856 0.0
C591 C 0.0202 0.7979 0.60654 0.0
N592 N 0.99096 0.76057 0.46067 0.0
N593 N 0.01094 0.79291 0.56005 0.0
H594 H 0.21521 0.19266 0.38731 0.0
H595 H 0.23507 0.25775 0.61979 0.0
H596 H 0.25855 0.23348 0.39527 0.0
H597 H 0.19401 0.21454 0.62078 0.0
H598 H 0.24379 0.24956 0.53667 0.0
H599 H 0.207 0.20115 0.4704 0.0
C600 C 0.22298 0.20347 0.40625 0.0
C601 C 0.23761 0.21236 0.38406 0.0
C602 C 0.23291 0.24185 0.55525 0.0
C603 C 0.22827 0.22216 0.48005 0.0
C604 C 0.22793 0.2465 0.60286 0.0
C605 C 0.21378 0.23682 0.62749 0.0
C606 C 0.22363 0.22744 0.53174 0.0
C607 C 0.20501 0.2224 0.60344 0.0
C608 C 0.2183 0.2083 0.45399 0.0
C609 C 0.24717 0.22626 0.41077 0.0
N610 N 0.21003 0.21819 0.55694 0.0
N611 N 0.24235 0.23072 0.45731 0.0
H612 H 0.9261 0.35894 0.73257 0.0
H613 H 0.86014 0.31385 0.96223 0.0
H614 H 0.88299 0.35695 0.72818 0.0
H615 H 0.90097 0.31133 0.95677 0.0
H616 H 0.86897 0.33067 0.87937 0.0
H617 H 0.91759 0.34219 0.81608 0.0
C618 C 0.91481 0.3549 0.74887 0.0
C619 C 0.90525 0.35936 0.72312 0.0
C620 C 0.87604 0.32649 0.89632 0.0
C621 C 0.89548 0.34029 0.81934 0.0
C622 C 0.87103 0.31693 0.94393 0.0
C623 C 0.87982 0.31114 0.96668 0.0
C624 C 0.89 0.33039 0.87103 0.0
C625 C 0.89382 0.31551 0.9408 0.0
C626 C 0.90997 0.34536 0.7967 0.0
C627 C 0.89075 0.3538 0.74639 0.0
N628 N 0.89846 0.32484 0.89441 0.0
N629 N 0.88635 0.34464 0.79315 0.0
H630 H 0.64416 0.56811 0.72873 0.0
H631 H 0.69059 0.54829 0.95592 0.0
H632 H 0.64561 0.5267 0.72772 0.0
H633 H 0.69234 0.59129 0.95158 0.0
H634 H 0.67334 0.53999 0.87443 0.0
H635 H 0.66129 0.57673 0.81122 0.0
C636 C 0.64813 0.56086 0.74562 0.0
C637 C 0.64343 0.54665 0.72112 0.0
C638 C 0.67745 0.55123 0.89129 0.0
C639 C 0.66296 0.55641 0.81595 0.0
C640 C 0.68728 0.55598 0.93807 0.0
C641 C 0.69295 0.57053 0.96077 0.0
C642 C 0.67318 0.56108 0.86672 0.0
C643 C 0.68825 0.57997 0.93559 0.0
C644 C 0.65789 0.56578 0.79283 0.0
C645 C 0.64893 0.53774 0.74502 0.0
N646 N 0.67867 0.5751 0.88992 0.0
N647 N 0.65833 0.54273 0.79104 0.0
H648 H 0.4346 0.07725 0.72848 0.0
H649 H 0.45469 0.14269 0.95957 0.0
H650 H 0.47545 0.12062 0.72542 0.0
H651 H 0.41124 0.10199 0.95203 0.0
H652 H 0.46282 0.13404 0.87672 0.0
H653 H 0.42601 0.08551 0.81175 0.0
C654 C 0.44172 0.08854 0.745 0.0
C655 C 0.45578 0.09825 0.71972 0.0
C656 C 0.45151 0.12696 0.89317 0.0
C657 C 0.44608 0.10773 0.81563 0.0
C658 C 0.44688 0.13187 0.94079 0.0
C659 C 0.43224 0.12306 0.96299 0.0
C660 C 0.4415 0.11308 0.86729 0.0
C661 C 0.42263 0.10915 0.93649 0.0
C662 C 0.43682 0.09324 0.79269 0.0
C663 C 0.46453 0.11274 0.74326 0.0
N664 N 0.42741 0.1046 0.89009 0.0
N665 N 0.45957 0.11699 0.78986 0.0
H666 H 0.47635 0.35614 0.71681 0.0
H667 H 0.41074 0.31064 0.94736 0.0
H668 H 0.4354 0.35844 0.72302 0.0
H669 H 0.45402 0.31297 0.9502 0.0
H670 H 0.41902 0.32744 0.86392 0.0
H671 H 0.46765 0.33929 0.79951 0.0
C672 C 0.46546 0.35301 0.73526 0.0
C673 C 0.4566 0.35874 0.71274 0.0
C674 C 0.42672 0.32432 0.88295 0.0
C675 C 0.44657 0.33944 0.80828 0.0
C676 C 0.42202 0.31476 0.93074 0.0
C677 C 0.4317 0.31038 0.95604 0.0
C678 C 0.4412 0.3295 0.85993 0.0
C679 C 0.44617 0.31604 0.93236 0.0
C680 C 0.46052 0.34343 0.78278 0.0
C681 C 0.4426 0.3543 0.73881 0.0
N682 N 0.45043 0.32523 0.88569 0.0
N683 N 0.43804 0.34494 0.78516 0.0
H684 H 0.69245 0.10164 0.95289 0.0
H685 H 0.64714 0.1222 0.723 0.0
H686 H 0.69029 0.14266 0.95708 0.0
H687 H 0.64478 0.07893 0.7287 0.0
H688 H 0.664 0.13027 0.8058 0.0
H689 H 0.6757 0.09333 0.86932 0.0
C690 C 0.68838 0.10886 0.93653 0.0
C691 C 0.69278 0.12287 0.96226 0.0
C692 C 0.65985 0.11902 0.78892 0.0
C693 C 0.67372 0.11349 0.86596 0.0
C694 C 0.65026 0.11442 0.74134 0.0
C695 C 0.64451 0.09984 0.71868 0.0
C696 C 0.6638 0.10902 0.81426 0.0
C697 C 0.64894 0.09027 0.7446 0.0
C698 C 0.67884 0.10412 0.88866 0.0
C699 C 0.68718 0.13176 0.9389 0.0
N700 N 0.65828 0.09501 0.79096 0.0
N701 N 0.67802 0.12696 0.8921 0.0
H702 H 0.92618 0.56846 0.71984 0.0
H703 H 0.86031 0.54926 0.94796 0.0
H704 H 0.88292 0.52744 0.71915 0.0
H705 H 0.90173 0.59214 0.94351 0.0
H706 H 0.86895 0.54102 0.86554 0.0
H707 H 0.91785 0.57744 0.80185 0.0
C708 C 0.9149 0.56139 0.7366 0.0
C709 C 0.90524 0.54717 0.71245 0.0
C710 C 0.87619 0.55223 0.88251 0.0
C711 C 0.89569 0.55731 0.80672 0.0
C712 C 0.87128 0.55694 0.92984 0.0
C713 C 0.8803 0.57143 0.95285 0.0
C714 C 0.89029 0.56205 0.85769 0.0
C715 C 0.8944 0.58087 0.92727 0.0
C716 C 0.91017 0.5665 0.78355 0.0
C717 C 0.89077 0.53848 0.73619 0.0
N718 N 0.89895 0.57603 0.88108 0.0
N719 N 0.88648 0.54365 0.78196 0.0
H720 H 0.52689 0.64647 0.28741 0.0
H721 H 0.59226 0.69186 0.05595 0.0
H722 H 0.56764 0.64384 0.2792 0.0
H723 H 0.54925 0.69012 0.05507 0.0
H724 H 0.5839 0.67483 0.13868 0.0
H725 H 0.5355 0.66333 0.20471 0.0
C726 C 0.53771 0.64951 0.26849 0.0
C727 C 0.54655 0.6437 0.29047 0.0
C728 C 0.57627 0.67813 0.12023 0.0
C729 C 0.55648 0.66303 0.19503 0.0
C730 C 0.58102 0.68782 0.07284 0.0
C731 C 0.57144 0.69244 0.04834 0.0
C732 C 0.56186 0.67305 0.14364 0.0
C733 C 0.55702 0.68687 0.07233 0.0
C734 C 0.5426 0.65911 0.22099 0.0
C735 C 0.56045 0.64804 0.26383 0.0
N736 N 0.55271 0.67755 0.11862 0.0
N737 N 0.56498 0.65742 0.21757 0.0
H738 H 0.35945 0.9254 0.28636 0.0
H739 H 0.31397 0.85955 0.05662 0.0
H740 H 0.35763 0.88237 0.28895 0.0
H741 H 0.3113 0.90028 0.06316 0.0
H742 H 0.33093 0.86839 0.13903 0.0
H743 H 0.34249 0.91693 0.20336 0.0
C744 C 0.35542 0.91414 0.26977 0.0
C745 C 0.35998 0.90458 0.29487 0.0
C746 C 0.32669 0.87544 0.12245 0.0
C747 C 0.34066 0.89486 0.19928 0.0
C748 C 0.31703 0.87042 0.0751 0.0
C749 C 0.31117 0.87918 0.05275 0.0
C750 C 0.33062 0.88938 0.14791 0.0
C751 C 0.31554 0.89315 0.07883 0.0
C752 C 0.34575 0.90932 0.22224 0.0
C753 C 0.35441 0.89013 0.27124 0.0
N754 N 0.32497 0.89781 0.12498 0.0
N755 N 0.34512 0.88575 0.22483 0.0
H756 H 0.12198 0.47668 0.28649 0.0
H757 H 0.10179 0.41029 0.05972 0.0
H758 H 0.07888 0.4355 0.28257 0.0
H759 H 0.14332 0.45309 0.05829 0.0
H760 H 0.09325 0.41889 0.14212 0.0
H761 H 0.13018 0.46768 0.20493 0.0
C762 C 0.11425 0.46569 0.26872 0.0
C763 C 0.0997 0.45684 0.29156 0.0
C764 C 0.10421 0.42641 0.12366 0.0
C765 C 0.10903 0.44645 0.19743 0.0
C766 C 0.10908 0.42152 0.07649 0.0
C767 C 0.12329 0.43098 0.0519 0.0
C768 C 0.11364 0.44086 0.14666 0.0
C769 C 0.13227 0.4454 0.07566 0.0
C770 C 0.11893 0.46057 0.22189 0.0
C771 C 0.0902 0.4427 0.26647 0.0
N772 N 0.12732 0.44986 0.12165 0.0
N773 N 0.09501 0.43796 0.22076 0.0
H774 H 0.07723 0.64402 0.28552 0.0
H775 H 0.14265 0.68924 0.05421 0.0
H776 H 0.12067 0.6467 0.28914 0.0
H777 H 0.10194 0.69198 0.06151 0.0
H778 H 0.13404 0.67259 0.13746 0.0
H779 H 0.08551 0.66088 0.20221 0.0
C780 C 0.08854 0.64824 0.26914 0.0
C781 C 0.09827 0.64393 0.29456 0.0
C782 C 0.12695 0.67678 0.12087 0.0
C783 C 0.10775 0.66309 0.19859 0.0
C784 C 0.13183 0.68625 0.07303 0.0
C785 C 0.12301 0.69204 0.05063 0.0
C786 C 0.11309 0.67296 0.14678 0.0
C787 C 0.10911 0.68778 0.07719 0.0
C788 C 0.09325 0.65783 0.22143 0.0
C789 C 0.11278 0.64972 0.27119 0.0
N790 N 0.10459 0.67852 0.12381 0.0
N791 N 0.11703 0.65891 0.22454 0.0
H792 H 0.35617 0.47568 0.29083 0.0
H793 H 0.31077 0.40972 0.06142 0.0
H794 H 0.35884 0.43494 0.28485 0.0
H795 H 0.31257 0.45274 0.05845 0.0
H796 H 0.32771 0.41823 0.1445 0.0
H797 H 0.33922 0.46679 0.2084 0.0
C798 C 0.35311 0.4648 0.27247 0.0
C799 C 0.35897 0.45605 0.29498 0.0
C800 C 0.32445 0.42582 0.12552 0.0
C801 C 0.33954 0.4458 0.1998 0.0
C802 C 0.3148 0.42098 0.07794 0.0
C803 C 0.31024 0.43053 0.05272 0.0
C804 C 0.32952 0.44029 0.14839 0.0
C805 C 0.31579 0.44499 0.07625 0.0
C806 C 0.34346 0.45975 0.22512 0.0
C807 C 0.3546 0.44206 0.26906 0.0
N808 N 0.32506 0.44938 0.12271 0.0
N809 N 0.34518 0.43738 0.22288 0.0
H810 H 0.52754 0.8833 0.28092 0.0
H811 H 0.59351 0.90227 0.0535 0.0
H812 H 0.56894 0.92619 0.27619 0.0
H813 H 0.55004 0.86151 0.05164 0.0
H814 H 0.58521 0.91126 0.13559 0.0
H815 H 0.53621 0.87499 0.19877 0.0
C816 C 0.53851 0.89096 0.26281 0.0
C817 C 0.54752 0.90548 0.28565 0.0
C818 C 0.57748 0.90038 0.11702 0.0
C819 C 0.55754 0.89602 0.19079 0.0
C820 C 0.5822 0.89525 0.07003 0.0
C821 C 0.57246 0.8811 0.04549 0.0
C822 C 0.56295 0.89125 0.13988 0.0
C823 C 0.55795 0.87249 0.06897 0.0
C824 C 0.54344 0.88622 0.21563 0.0
C825 C 0.56162 0.9149 0.26008 0.0
N826 N 0.55368 0.87766 0.11478 0.0
N827 N 0.5662 0.91002 0.21405 0.0
H828 H 0.20301 0.95671 0.97184 0.0
H829 H 0.24523 0.04493 0.03112 0.0
H830 H 0.22152 0.99001 0.83732 0.0
H831 H 0.23259 0.01182 0.16551 0.0
H832 H 0.23794 0.02513 0.96013 0.0
H833 H 0.21502 0.97665 0.04273 0.0
C834 C 0.20968 0.96826 0.9571 0.0
C835 C 0.21106 0.97171 0.89835 0.0
C836 C 0.23685 0.02215 1.00504 0.0
C837 C 0.22489 0.99471 0.98005 0.0
C838 C 0.24094 0.03345 0.04584 0.0
C839 C 0.2393 0.03001 0.10462 0.0
C840 C 0.23089 0.00716 0.02273 0.0
C841 C 0.23396 0.01498 0.12078 0.0
C842 C 0.2166 0.97964 0.99781 0.0
C843 C 0.22009 0.98684 0.88204 0.0
N844 N 0.22977 0.00407 0.08 0.0
N845 N 0.22651 0.99782 0.92276 0.0
H846 H 0.95748 0.20202 0.02975 0.0
H847 H 0.04582 0.24485 0.97135 0.0
H848 H 0.99071 0.22068 0.16455 0.0
H849 H 0.01276 0.23205 0.83657 0.0
H850 H 0.02593 0.23729 0.0421 0.0
H851 H 0.97746 0.21409 0.95901 0.0
C852 C 0.96902 0.20873 0.04459 0.0
C853 C 0.97244 0.21015 0.10338 0.0
C854 C 0.02298 0.23622 0.99716 0.0
C855 C 0.99549 0.22404 0.02186 0.0
C856 C 0.03434 0.24047 0.95648 0.0
C857 C 0.03094 0.23887 0.89765 0.0
C858 C 0.00798 0.23015 0.9793 0.0
C859 C 0.01589 0.2334 0.88133 0.0
C860 C 0.98043 0.21568 1.00397 0.0
C861 C 0.98756 0.21922 0.1198 0.0
N862 N 0.00493 0.22906 0.922 0.0
N863 N 0.99856 0.22567 0.07918 0.0
H864 H 0.75863 0.80218 0.97648 0.0
H865 H 0.80217 0.75745 0.03526 0.0
H866 H 0.77151 0.78201 0.8418 0.0
H867 H 0.78261 0.77106 0.16987 0.0
H868 H 0.79013 0.76535 0.96437 0.0
H869 H 0.76635 0.78999 0.0473 0.0
C870 C 0.76307 0.79514 0.96166 0.0
C871 C 0.76463 0.79331 0.90284 0.0
C872 C 0.78835 0.76652 0.00931 0.0
C873 C 0.77354 0.77924 0.98454 0.0
C874 C 0.79528 0.76208 0.05004 0.0
C875 C 0.79359 0.76379 0.10885 0.0
C876 C 0.77971 0.77293 0.02712 0.0
C877 C 0.78429 0.76959 0.12511 0.0
C878 C 0.76741 0.78811 1.00237 0.0
C879 C 0.77018 0.78381 0.88656 0.0
N880 N 0.77785 0.77413 0.08441 0.0
N881 N 0.77461 0.77727 0.92724 0.0
H882 H 0.76042 0.95631 0.98141 0.0
H883 H 0.7996 0.04443 0.04015 0.0
H884 H 0.76926 0.98893 0.84807 0.0
H885 H 0.78383 0.0113 0.17541 0.0
H886 H 0.78763 0.02427 0.96998 0.0
H887 H 0.76806 0.9761 0.05268 0.0
C888 C 0.76395 0.96766 0.96693 0.0
C889 C 0.76436 0.97096 0.90825 0.0
C890 C 0.78665 0.02136 0.01493 0.0
C891 C 0.77316 0.99379 0.99058 0.0
C892 C 0.79354 0.03287 0.05518 0.0
C893 C 0.79289 0.02953 0.11385 0.0
C894 C 0.77915 0.00629 0.03308 0.0
C895 C 0.78465 0.01437 0.13069 0.0
C896 C 0.76824 0.97895 0.00795 0.0
C897 C 0.76882 0.98585 0.89263 0.0
N898 N 0.77826 0.00328 0.09037 0.0
N899 N 0.7732 0.99675 0.93355 0.0
H900 H 0.04597 0.80588 0.97861 0.0
H901 H 0.95819 0.75458 0.03895 0.0
H902 H 0.01373 0.78058 0.84589 0.0
H903 H 0.99151 0.77328 0.17333 0.0
H904 H 0.97831 0.76303 0.96836 0.0
H905 H 0.02632 0.79343 0.05 0.0
C906 C 0.03472 0.79768 0.96426 0.0
C907 C 0.03149 0.79445 0.9057 0.0
C908 C 0.98127 0.76519 0.01322 0.0
C909 C 0.0088 0.78001 0.98831 0.0
C910 C 0.96979 0.76041 0.05369 0.0
C911 C 0.97318 0.76341 0.1122 0.0
C912 C 0.99636 0.77324 0.03102 0.0
C913 C 0.98839 0.77077 0.12873 0.0
C914 C 0.02351 0.79049 0.0054 0.0
C915 C 0.01674 0.78351 0.89035 0.0
N916 N 0.99944 0.77563 0.08822 0.0
N917 N 0.00589 0.77679 0.9314 0.0
H918 H 0.24672 0.20198 0.03552 0.0
H919 H 0.1981 0.24138 0.97569 0.0
H920 H 0.2302 0.21878 0.17011 0.0
H921 H 0.22149 0.23209 0.84219 0.0
H922 H 0.21043 0.23398 0.04698 0.0
H923 H 0.2385 0.2138 0.96477 0.0
C924 C 0.2414 0.20824 0.05028 0.0
C925 C 0.23894 0.20921 0.10896 0.0
C926 C 0.21298 0.23364 1.00222 0.0
C927 C 0.22942 0.22277 0.02753 0.0
C928 C 0.20586 0.23778 0.96119 0.0
C929 C 0.20858 0.23716 0.90249 0.0
C930 C 0.22285 0.22865 0.98485 0.0
C931 C 0.21898 0.23267 0.8868 0.0
C932 C 0.23677 0.21504 0.00969 0.0
C933 C 0.23226 0.21769 0.12541 0.0
N934 N 0.22561 0.22842 0.92776 0.0
N935 N 0.22754 0.22399 0.0848 0.0
H936 H 0.91484 0.37872 0.37438 0.0
H937 H 0.86538 0.29068 0.31514 0.0
H938 H 0.89776 0.34543 0.50912 0.0
H939 H 0.88858 0.3233 0.18126 0.0
H940 H 0.87794 0.31041 0.38626 0.0
H941 H 0.90639 0.35864 0.30375 0.0
C942 C 0.90936 0.36714 0.38921 0.0
C943 C 0.90681 0.36374 0.44789 0.0
C944 C 0.88039 0.31329 0.34145 0.0
C945 C 0.89701 0.34059 0.36657 0.0
C946 C 0.87315 0.30203 0.30051 0.0
C947 C 0.87575 0.30535 0.24174 0.0
C948 C 0.89028 0.32813 0.32394 0.0
C949 C 0.88616 0.32022 0.22591 0.0
C950 C 0.90459 0.35568 0.34868 0.0
C951 C 0.89991 0.34856 0.46442 0.0
N952 N 0.89293 0.33111 0.26679 0.0
N953 N 0.89506 0.33752 0.42386 0.0
H954 H 0.69032 0.58331 0.21577 0.0
H955 H 0.64415 0.51909 0.44828 0.0
H956 H 0.69785 0.54628 0.25204 0.0
H957 H 0.64494 0.56157 0.45092 0.0
H958 H 0.66279 0.52852 0.37166 0.0
H959 H 0.6718 0.57478 0.29462 0.0
C960 C 0.68784 0.57323 0.23948 0.0
C961 C 0.69556 0.56544 0.22737 0.0
C962 C 0.6591 0.53592 0.3893 0.0
C963 C 0.67475 0.55584 0.31756 0.0
C964 C 0.64855 0.53057 0.43338 0.0
C965 C 0.6432 0.53965 0.45632 0.0
C966 C 0.66417 0.55041 0.3669 0.0
C967 C 0.64904 0.55435 0.43492 0.0
C968 C 0.67747 0.56851 0.28488 0.0
C969 C 0.69216 0.55262 0.25999 0.0
N970 N 0.65913 0.55925 0.39078 0.0
N971 N 0.68206 0.54825 0.3034 0.0
H972 H 0.42396 0.13482 0.31167 0.0
H973 H 0.46823 0.09086 0.37095 0.0
H974 H 0.43775 0.1154 0.17718 0.0
H975 H 0.44842 0.10423 0.50538 0.0
H976 H 0.45601 0.09851 0.29997 0.0
H977 H 0.43158 0.12256 0.3826 0.0
C978 C 0.42857 0.12792 0.29693 0.0
C979 C 0.43043 0.12633 0.23816 0.0
C980 C 0.4542 0.09968 0.34488 0.0
C981 C 0.43924 0.1122 0.31993 0.0
C982 C 0.46125 0.09538 0.38566 0.0
C983 C 0.45955 0.09713 0.44444 0.0
C984 C 0.44546 0.10596 0.3626 0.0
C985 C 0.45012 0.10277 0.46064 0.0
C986 C 0.43285 0.12085 0.33768 0.0
C987 C 0.43618 0.117 0.22191 0.0
N988 N 0.44357 0.10717 0.41988 0.0
N989 N 0.44057 0.11044 0.26265 0.0
H990 H 0.42348 0.291 0.30473 0.0
H991 H 0.47122 0.37909 0.36442 0.0
H992 H 0.43947 0.32433 0.17015 0.0
H993 H 0.44851 0.34627 0.49817 0.0
H994 H 0.45895 0.35933 0.2932 0.0
H995 H 0.43157 0.311 0.37553 0.0
C996 C 0.42866 0.30257 0.28997 0.0
C997 C 0.431 0.30601 0.23128 0.0
C998 C 0.45653 0.35642 0.338 0.0
C999 C 0.44038 0.32906 0.31278 0.0
C1000 C 0.46361 0.36769 0.37898 0.0
C1001 C 0.46108 0.36432 0.43773 0.0
C1002 C 0.44688 0.34152 0.35545 0.0
C1003 C 0.45088 0.34938 0.45352 0.0
C1004 C 0.43322 0.31398 0.3306 0.0
C1005 C 0.43751 0.32117 0.21486 0.0
N1006 N 0.44428 0.33849 0.41259 0.0
N1007 N 0.44216 0.33217 0.2555 0.0
H1008 H 0.71202 0.13243 0.31103 0.0
H1009 H 0.62396 0.09386 0.37025 0.0
H1010 H 0.67872 0.11642 0.17625 0.0
H1011 H 0.6566 0.10313 0.50403 0.0
H1012 H 0.64369 0.10109 0.2991 0.0
H1013 H 0.69193 0.12071 0.38159 0.0
C1014 C 0.70043 0.12635 0.29618 0.0
C1015 C 0.69704 0.12558 0.23752 0.0
C1016 C 0.64657 0.10147 0.34389 0.0
C1017 C 0.67387 0.11215 0.31874 0.0
C1018 C 0.63531 0.09742 0.38486 0.0
C1019 C 0.63863 0.09809 0.44361 0.0
C1020 C 0.66141 0.10639 0.36136 0.0
C1021 C 0.65351 0.10253 0.4594 0.0
C1022 C 0.68896 0.11962 0.33667 0.0
C1023 C 0.68185 0.11734 0.22094 0.0
N1024 N 0.66439 0.10667 0.4185 0.0
N1025 N 0.6708 0.1111 0.26146 0.0
H1026 H 0.91675 0.56089 0.46013 0.0
H1027 H 0.85353 0.54285 0.22365 0.0
H1028 H 0.88149 0.51599 0.41599 0.0
H1029 H 0.89565 0.58497 0.2243 0.0
H1030 H 0.86309 0.53346 0.29929 0.0
H1031 H 0.90831 0.57095 0.38121 0.0
C1032 C 0.9071 0.55321 0.43455 0.0
C1033 C 0.89978 0.5376 0.44458 0.0
C1034 C 0.87039 0.54469 0.28253 0.0
C1035 C 0.89025 0.54891 0.35447 0.0
C1036 C 0.86496 0.54999 0.23903 0.0
C1037 C 0.87391 0.56459 0.2173 0.0
C1038 C 0.88479 0.55417 0.3056 0.0
C1039 C 0.88854 0.57353 0.23934 0.0
C1040 C 0.90243 0.55891 0.38917 0.0
C1041 C 0.88748 0.5281 0.40967 0.0
N1042 N 0.8935 0.56824 0.28294 0.0
N1043 N 0.88312 0.53389 0.36641 0.0
H1044 H 0.55392 0.65768 0.50199 0.0
H1045 H 0.56707 0.67973 0.83593 0.0
H1046 H 0.53661 0.62514 0.63932 0.0
H1047 H 0.57536 0.71153 0.69995 0.0
H1048 H 0.5596 0.65977 0.76364 0.0
H1049 H 0.56581 0.67793 0.57359 0.0
C1050 C 0.55277 0.65479 0.547 0.0
C1051 C 0.54407 0.63974 0.56466 0.0
C1052 C 0.56313 0.67116 0.74981 0.0
C1053 C 0.55761 0.66272 0.64662 0.0
C1054 C 0.56741 0.68254 0.79107 0.0
C1055 C 0.57163 0.69728 0.77421 0.0
C1056 C 0.56325 0.67462 0.69138 0.0
C1057 C 0.57193 0.70028 0.71525 0.0
C1058 C 0.55949 0.66633 0.58787 0.0
C1059 C 0.54298 0.63662 0.62369 0.0
N1060 N 0.56776 0.68908 0.67616 0.0
N1061 N 0.54958 0.64798 0.66242 0.0
H1062 H 0.32409 0.88768 0.84067 0.0
H1063 H 0.34606 0.89779 0.50659 0.0
H1064 H 0.29199 0.86566 0.70405 0.0
H1065 H 0.37853 0.91135 0.64386 0.0
H1066 H 0.32586 0.88961 0.57831 0.0
H1067 H 0.34412 0.90014 0.7686 0.0
C1068 C 0.32124 0.88556 0.79571 0.0
C1069 C 0.30639 0.87543 0.77855 0.0
C1070 C 0.33745 0.89448 0.59256 0.0
C1071 C 0.32913 0.88965 0.696 0.0
C1072 C 0.34895 0.89918 0.55162 0.0
C1073 C 0.36396 0.90503 0.56918 0.0
C1074 C 0.34104 0.89581 0.65128 0.0
C1075 C 0.36708 0.90663 0.62826 0.0
C1076 C 0.33265 0.89262 0.75458 0.0
C1077 C 0.30332 0.87315 0.7195 0.0
N1078 N 0.35575 0.902 0.66704 0.0
N1079 N 0.31456 0.88014 0.68053 0.0
H1080 H 0.15098 0.45891 0.77936 0.0
H1081 H 0.08708 0.44143 0.5459 0.0
H1082 H 0.10836 0.41731 0.78108 0.0
H1083 H 0.12406 0.48593 0.58391 0.0
H1084 H 0.09548 0.43126 0.62458 0.0
H1085 H 0.14169 0.46828 0.70281 0.0
C1086 C 0.13951 0.45189 0.76426 0.0
C1087 C 0.13034 0.43743 0.78695 0.0
C1088 C 0.10177 0.44322 0.61527 0.0
C1089 C 0.11974 0.44783 0.6976 0.0
C1090 C 0.09712 0.44898 0.56996 0.0
C1091 C 0.10493 0.46452 0.55838 0.0
C1092 C 0.11439 0.45311 0.64837 0.0
C1093 C 0.1177 0.47387 0.59144 0.0
C1094 C 0.13423 0.45717 0.72023 0.0
C1095 C 0.11565 0.42864 0.76529 0.0
N1096 N 0.122 0.46804 0.63474 0.0
N1097 N 0.11082 0.43392 0.7212 0.0
H1098 H 0.1341 0.71131 0.70169 0.0
H1099 H 0.09079 0.623 0.64353 0.0
H1100 H 0.11538 0.67828 0.83704 0.0
H1101 H 0.10311 0.65609 0.50925 0.0
H1102 H 0.09861 0.6429 0.71459 0.0
H1103 H 0.1218 0.69129 0.63132 0.0
C1104 C 0.12734 0.69981 0.71673 0.0
C1105 C 0.12596 0.69645 0.77556 0.0
C1106 C 0.09951 0.64584 0.66969 0.0
C1107 C 0.11179 0.67335 0.69444 0.0
C1108 C 0.09511 0.63448 0.62885 0.0
C1109 C 0.09648 0.63789 0.57005 0.0
C1110 C 0.10551 0.66084 0.65197 0.0
C1111 C 0.10191 0.65294 0.55396 0.0
C1112 C 0.12025 0.68837 0.67631 0.0
C1113 C 0.11681 0.68137 0.79223 0.0
N1114 N 0.1064 0.66389 0.59473 0.0
N1115 N 0.11022 0.67033 0.75179 0.0
H1116 H 0.32417 0.4375 0.84107 0.0
H1117 H 0.34616 0.4476 0.50701 0.0
H1118 H 0.29168 0.42376 0.7038 0.0
H1119 H 0.3782 0.46994 0.64354 0.0
H1120 H 0.32615 0.4351 0.57911 0.0
H1121 H 0.34439 0.4458 0.76934 0.0
C1122 C 0.32128 0.43609 0.79604 0.0
C1123 C 0.30626 0.43016 0.77847 0.0
C1124 C 0.3376 0.4427 0.5931 0.0
C1125 C 0.3292 0.43951 0.69638 0.0
C1126 C 0.34901 0.44979 0.55196 0.0
C1127 C 0.36383 0.46002 0.56907 0.0
C1128 C 0.34111 0.44573 0.65166 0.0
C1129 C 0.36689 0.46237 0.62811 0.0
C1130 C 0.3328 0.44087 0.7551 0.0
C1131 C 0.30314 0.42854 0.7194 0.0
N1132 N 0.35566 0.45534 0.6671 0.0
N1133 N 0.31448 0.43323 0.68062 0.0
H1134 H 0.58449 0.8955 0.79182 0.0
H1135 H 0.52072 0.87768 0.55754 0.0
H1136 H 0.5484 0.8508 0.75026 0.0
H1137 H 0.56295 0.91969 0.55702 0.0
H1138 H 0.53028 0.86835 0.63334 0.0
H1139 H 0.57601 0.90566 0.71331 0.0
C1140 C 0.57465 0.88789 0.76692 0.0
C1141 C 0.56711 0.8723 0.77751 0.0
C1142 C 0.5376 0.87954 0.61633 0.0
C1143 C 0.55754 0.88371 0.68786 0.0
C1144 C 0.53217 0.88481 0.57273 0.0
C1145 C 0.54116 0.89935 0.55058 0.0
C1146 C 0.55205 0.889 0.63908 0.0
C1147 C 0.55581 0.90828 0.57238 0.0
C1148 C 0.56995 0.89365 0.72176 0.0
C1149 C 0.55457 0.86289 0.74348 0.0
N1150 N 0.56079 0.90302 0.61606 0.0
N1151 N 0.55021 0.86873 0.70042 0.0
H1152 H 0.37505 0.13409 0.2424 0.0
H1153 H 0.29433 0.09339 0.10058 0.0
H1154 H 0.36907 0.1196 0.06622 0.0
H1155 H 0.30045 0.08491 0.27664 0.0
H1156 H 0.32173 0.10635 0.08699 0.0
H1157 H 0.34766 0.11938 0.25597 0.0
C1158 C 0.36796 0.12785 0.20652 0.0
C1159 C 0.37431 0.12809 0.153 0.0
C1160 C 0.31705 0.10159 0.12848 0.0
C1161 C 0.34304 0.11144 0.16821 0.0
C1162 C 0.30146 0.0943 0.13643 0.0
C1163 C 0.29514 0.08812 0.18992 0.0
C1164 C 0.32643 0.10305 0.17469 0.0
C1165 C 0.30488 0.08949 0.23472 0.0
C1166 C 0.35237 0.1194 0.21446 0.0
C1167 C 0.36462 0.11968 0.10816 0.0
N1168 N 0.32009 0.09699 0.22631 0.0
N1169 N 0.34941 0.11183 0.11656 0.0
H1170 H 0.88317 0.25156 0.06544 0.0
H1171 H 0.91784 0.2164 0.27885 0.0
H1172 H 0.86874 0.24185 0.24143 0.0
H1173 H 0.90882 0.20265 0.10198 0.0
H1174 H 0.90463 0.23073 0.26607 0.0
H1175 H 0.89758 0.23844 0.07836 0.0
C1176 C 0.8831 0.24674 0.10679 0.0
C1177 C 0.87468 0.24768 0.15232 0.0
C1178 C 0.90561 0.22458 0.23018 0.0
C1179 C 0.89128 0.23301 0.16754 0.0
C1180 C 0.91316 0.21647 0.23734 0.0
C1181 C 0.91431 0.20826 0.19151 0.0
C1182 C 0.89955 0.22477 0.17646 0.0
C1183 C 0.90803 0.2087 0.13858 0.0
C1184 C 0.89126 0.23924 0.11403 0.0
C1185 C 0.87496 0.24123 0.20505 0.0
N1186 N 0.90101 0.21691 0.13236 0.0
N1187 N 0.88321 0.23426 0.21137 0.0
H1188 H 0.75144 0.63331 0.06794 0.0
H1189 H 0.78634 0.7026 0.28381 0.0
H1190 H 0.7597 0.62778 0.24494 0.0
H1191 H 0.80092 0.7074 0.10799 0.0
H1192 H 0.7717 0.67509 0.2704 0.0
H1193 H 0.7648 0.66078 0.08212 0.0
C1194 C 0.75595 0.63787 0.10983 0.0
C1195 C 0.75456 0.6283 0.15527 0.0
C1196 C 0.77811 0.68223 0.23489 0.0
C1197 C 0.76955 0.65952 0.17184 0.0
C1198 C 0.7864 0.69787 0.24241 0.0
C1199 C 0.79492 0.70725 0.19704 0.0
C1200 C 0.77804 0.67601 0.18127 0.0
C1201 C 0.79463 0.70055 0.14424 0.0
C1202 C 0.76361 0.6535 0.11777 0.0
C1203 C 0.76066 0.63479 0.20866 0.0
N1204 N 0.78624 0.68535 0.13765 0.0
N1205 N 0.76782 0.65001 0.21562 0.0
H1206 H 0.08475 0.29967 0.72233 0.0
H1207 H 0.1189 0.36873 0.93958 0.0
H1208 H 0.09478 0.29493 0.89791 0.0
H1209 H 0.13221 0.37469 0.76201 0.0
H1210 H 0.10499 0.3413 0.92479 0.0
H1211 H 0.09741 0.32717 0.736 0.0
C1212 C 0.08956 0.30441 0.76372 0.0
C1213 C 0.08883 0.29505 0.80895 0.0
C1214 C 0.11093 0.34866 0.88913 0.0
C1215 C 0.10294 0.32627 0.82504 0.0
C1216 C 0.11878 0.36427 0.89743 0.0
C1217 C 0.12678 0.37397 0.85202 0.0
C1218 C 0.11077 0.34275 0.83476 0.0
C1219 C 0.1263 0.36759 0.79828 0.0
C1220 C 0.09679 0.32005 0.77139 0.0
C1221 C 0.09524 0.30176 0.86174 0.0
N1222 N 0.11836 0.35237 0.79101 0.0
N1223 N 0.10193 0.31695 0.86848 0.0
H1224 H 0.70886 0.80032 0.90754 0.0
H1225 H 0.62799 0.76054 0.76729 0.0
H1226 H 0.70265 0.78611 0.73101 0.0
H1227 H 0.63427 0.75168 0.94269 0.0
H1228 H 0.65537 0.77317 0.75292 0.0
H1229 H 0.68148 0.78573 0.92145 0.0
C1230 C 0.70172 0.79415 0.87167 0.0
C1231 C 0.708 0.79445 0.81795 0.0
C1232 C 0.65072 0.7684 0.79442 0.0
C1233 C 0.67673 0.77794 0.83352 0.0
C1234 C 0.63514 0.76129 0.80281 0.0
C1235 C 0.62888 0.7551 0.85636 0.0
C1236 C 0.66013 0.76967 0.84026 0.0
C1237 C 0.63865 0.75627 0.90074 0.0
C1238 C 0.68613 0.78577 0.87978 0.0
C1239 C 0.69824 0.78613 0.77309 0.0
N1240 N 0.65383 0.7636 0.89192 0.0
N1241 N 0.68304 0.77835 0.78167 0.0
H1242 H 0.2175 0.91687 0.72747 0.0
H1243 H 0.25165 0.88277 0.94855 0.0
H1244 H 0.203 0.90837 0.90364 0.0
H1245 H 0.24313 0.86823 0.77242 0.0
H1246 H 0.2386 0.89714 0.93273 0.0
H1247 H 0.23187 0.90381 0.74321 0.0
C1248 C 0.2174 0.91233 0.76943 0.0
C1249 C 0.20897 0.91358 0.8142 0.0
C1250 C 0.23965 0.89081 0.89767 0.0
C1251 C 0.22553 0.89899 0.83264 0.0
C1252 C 0.24712 0.88268 0.90657 0.0
C1253 C 0.24835 0.87422 0.86185 0.0
C1254 C 0.23377 0.89078 0.84332 0.0
C1255 C 0.24227 0.87447 0.80823 0.0
C1256 C 0.22554 0.90486 0.7783 0.0
C1257 C 0.20922 0.90749 0.8678 0.0
N1258 N 0.23532 0.8827 0.80032 0.0
N1259 N 0.21746 0.90055 0.87567 0.0
H1260 H 0.70532 0.93149 0.79373 0.0
H1261 H 0.62996 0.85252 0.83724 0.0
H1262 H 0.70552 0.89021 0.82959 0.0
H1263 H 0.63217 0.89484 0.87564 0.0
H1264 H 0.6572 0.86609 0.82073 0.0
H1265 H 0.67792 0.9181 0.80935 0.0
C1266 C 0.6996 0.91959 0.8044 0.0
C1267 C 0.70772 0.91195 0.81045 0.0
C1268 C 0.65173 0.8724 0.8329 0.0
C1269 C 0.67646 0.89662 0.82807 0.0
C1270 C 0.63617 0.86468 0.84219 0.0
C1271 C 0.62877 0.87256 0.85791 0.0
C1272 C 0.65995 0.88816 0.83835 0.0
C1273 C 0.63744 0.88831 0.86392 0.0
C1274 C 0.684 0.91201 0.8137 0.0
C1275 C 0.69973 0.89657 0.82476 0.0
N1276 N 0.65257 0.89562 0.85368 0.0
N1277 N 0.68454 0.8894 0.8328 0.0
H1278 H 0.09455 0.80115 0.90965 0.0
H1279 H 0.13383 0.75965 0.76922 0.0
H1280 H 0.08529 0.78574 0.73465 0.0
H1281 H 0.11988 0.75191 0.94605 0.0
H1282 H 0.11935 0.77254 0.75542 0.0
H1283 H 0.10717 0.78641 0.92393 0.0
C1284 C 0.09521 0.79469 0.87419 0.0
C1285 C 0.08892 0.79469 0.82079 0.0
C1286 C 0.11943 0.76797 0.79713 0.0
C1287 C 0.10347 0.77801 0.83677 0.0
C1288 C 0.12775 0.76071 0.80519 0.0
C1289 C 0.12808 0.75476 0.85896 0.0
C1290 C 0.11169 0.76963 0.84348 0.0
C1291 C 0.11988 0.75632 0.90393 0.0
C1292 C 0.10231 0.78622 0.88254 0.0
C1293 C 0.08997 0.78601 0.77649 0.0
N1294 N 0.11215 0.76379 0.89538 0.0
N1295 N 0.09729 0.77815 0.78524 0.0
H1296 H 0.20128 0.29305 0.90718 0.0
H1297 H 0.24336 0.37409 0.76885 0.0
H1298 H 0.21704 0.29945 0.73261 0.0
H1299 H 0.25059 0.36747 0.94584 0.0
H1300 H 0.23046 0.34673 0.75424 0.0
H1301 H 0.2161 0.32038 0.9221 0.0
C1302 C 0.20783 0.30022 0.87194 0.0
C1303 C 0.2079 0.294 0.81846 0.0
C1304 C 0.23494 0.35129 0.79615 0.0
C1305 C 0.22468 0.32521 0.83521 0.0
C1306 C 0.2422 0.36686 0.80467 0.0
C1307 C 0.248 0.37302 0.85873 0.0
C1308 C 0.23311 0.34179 0.84234 0.0
C1309 C 0.24631 0.36316 0.9035 0.0
C1310 C 0.21634 0.31577 0.88066 0.0
C1311 C 0.2167 0.30379 0.77448 0.0
N1312 N 0.23883 0.34798 0.89451 0.0
N1313 N 0.2246 0.31896 0.7836 0.0
H1314 H 0.90973 0.70769 0.10665 0.0
H1315 H 0.87149 0.62682 0.24729 0.0
H1316 H 0.91866 0.70199 0.28263 0.0
H1317 H 0.88532 0.63372 0.07026 0.0
H1318 H 0.88566 0.65421 0.26205 0.0
H1319 H 0.8975 0.68036 0.09306 0.0
C1320 C 0.90906 0.70067 0.14251 0.0
C1321 C 0.91517 0.70709 0.19595 0.0
C1322 C 0.88564 0.64969 0.22013 0.0
C1323 C 0.90107 0.67585 0.18069 0.0
C1324 C 0.87752 0.6341 0.21155 0.0
C1325 C 0.87721 0.62801 0.1574 0.0
C1326 C 0.8932 0.65926 0.17391 0.0
C1327 C 0.8853 0.63795 0.1127 0.0
C1328 C 0.90218 0.68511 0.13456 0.0
C1329 C 0.91412 0.69748 0.24075 0.0
N1330 N 0.89282 0.65312 0.12176 0.0
N1331 N 0.90703 0.68229 0.23232 0.0
H1332 H 0.3757 0.24294 0.23954 0.0
H1333 H 0.29453 0.20207 0.1016 0.0
H1334 H 0.36897 0.251 0.06364 0.0
H1335 H 0.30105 0.21663 0.27774 0.0
H1336 H 0.32186 0.21687 0.0867 0.0
H1337 H 0.34835 0.23015 0.25462 0.0
C1338 C 0.36845 0.24198 0.20405 0.0
C1339 C 0.37458 0.24798 0.15014 0.0
C1340 C 0.31729 0.21686 0.1285 0.0
C1341 C 0.34336 0.23324 0.16709 0.0
C1342 C 0.30173 0.20835 0.13719 0.0
C1343 C 0.29554 0.20808 0.1911 0.0
C1344 C 0.32676 0.22486 0.17436 0.0
C1345 C 0.30537 0.21656 0.23553 0.0
C1346 C 0.35289 0.23479 0.21285 0.0
C1347 C 0.36469 0.24655 0.10584 0.0
N1348 N 0.32055 0.22447 0.22639 0.0
N1349 N 0.34952 0.23914 0.11508 0.0
H1350 H 0.75166 0.11886 0.06635 0.0
H1351 H 0.78616 0.08438 0.28438 0.0
H1352 H 0.76057 0.13313 0.24273 0.0
H1353 H 0.80006 0.0928 0.10755 0.0
H1354 H 0.77176 0.09746 0.26987 0.0
H1355 H 0.7646 0.10433 0.08087 0.0
C1356 C 0.75626 0.11887 0.10811 0.0
C1357 C 0.75517 0.1273 0.15328 0.0
C1358 C 0.77796 0.09638 0.23436 0.0
C1359 C 0.76962 0.11055 0.17032 0.0
C1360 C 0.7861 0.0889 0.24252 0.0
C1361 C 0.7944 0.08763 0.19722 0.0
C1362 C 0.77781 0.10225 0.1802 0.0
C1363 C 0.79395 0.09369 0.14379 0.0
C1364 C 0.76366 0.11064 0.11628 0.0
C1365 C 0.76133 0.12692 0.20658 0.0
N1366 N 0.78572 0.10066 0.13663 0.0
N1367 N 0.76821 0.11861 0.21376 0.0
H1368 H 0.03702 0.45234 0.40089 0.0
H1369 H 0.96834 0.41838 0.62005 0.0
H1370 H 0.04304 0.46668 0.57728 0.0
H1371 H 0.96297 0.4272 0.44359 0.0
H1372 H 0.99584 0.43129 0.60554 0.0
H1373 H 0.0096 0.43804 0.41641 0.0
C1374 C 0.03258 0.45238 0.44292 0.0
C1375 C 0.04227 0.46077 0.48778 0.0
C1376 C 0.98857 0.43034 0.57014 0.0
C1377 C 0.01109 0.44432 0.50589 0.0
C1378 C 0.97294 0.42296 0.57829 0.0
C1379 C 0.96341 0.42184 0.53306 0.0
C1380 C 0.99462 0.43625 0.51604 0.0
C1381 C 0.96994 0.42797 0.47976 0.0
C1382 C 0.01697 0.4443 0.45163 0.0
C1383 C 0.03593 0.46048 0.5414 0.0
N1384 N 0.98513 0.43482 0.47259 0.0
N1385 N 0.02073 0.45231 0.54911 0.0
H1386 H 0.57849 0.5372 0.42879 0.0
H1387 H 0.53655 0.57599 0.57076 0.0
H1388 H 0.58579 0.55109 0.60575 0.0
H1389 H 0.55102 0.58485 0.39462 0.0
H1390 H 0.55149 0.56356 0.58388 0.0
H1391 H 0.56539 0.55151 0.4145 0.0
C1392 C 0.57734 0.54326 0.46462 0.0
C1393 C 0.5832 0.54294 0.51861 0.0
C1394 C 0.55142 0.56827 0.54245 0.0
C1395 C 0.56808 0.55909 0.50264 0.0
C1396 C 0.54284 0.57527 0.53477 0.0
C1397 C 0.54252 0.58141 0.48142 0.0
C1398 C 0.55947 0.56708 0.49614 0.0
C1399 C 0.551 0.58029 0.43644 0.0
C1400 C 0.56995 0.55147 0.45631 0.0
C1401 C 0.58148 0.55109 0.56343 0.0
N1402 N 0.559 0.57309 0.44461 0.0
N1403 N 0.5739 0.55868 0.55463 0.0
H1404 H 0.46803 0.04208 0.43911 0.0
H1405 H 0.4271 0.9611 0.57849 0.0
H1406 H 0.45294 0.0357 0.61457 0.0
H1407 H 0.41929 0.96754 0.40197 0.0
H1408 H 0.43986 0.98846 0.59296 0.0
H1409 H 0.45346 0.01472 0.4247 0.0
C1410 C 0.46168 0.03491 0.47467 0.0
C1411 C 0.46172 0.04114 0.52823 0.0
C1412 C 0.43529 0.98385 0.55118 0.0
C1413 C 0.44522 0.0099 0.51205 0.0
C1414 C 0.42811 0.96829 0.54274 0.0
C1415 C 0.42218 0.96207 0.48886 0.0
C1416 C 0.4369 0.99331 0.50508 0.0
C1417 C 0.42367 0.97189 0.44418 0.0
C1418 C 0.45331 0.01934 0.46624 0.0
C1419 C 0.45318 0.03134 0.57262 0.0
N1420 N 0.43106 0.98707 0.45308 0.0
N1421 N 0.4454 0.01616 0.56376 0.0
H1422 H 0.58571 0.03657 0.61821 0.0
H1423 H 0.55182 0.96794 0.39891 0.0
H1424 H 0.57529 0.04156 0.44343 0.0
H1425 H 0.53888 0.96159 0.5769 0.0
H1426 H 0.56554 0.99536 0.41436 0.0
H1427 H 0.57334 0.00913 0.60353 0.0
C1428 C 0.58088 0.0319 0.57678 0.0
C1429 C 0.58141 0.04131 0.53209 0.0
C1430 C 0.55972 0.98792 0.44995 0.0
C1431 C 0.56763 0.01016 0.51483 0.0
C1432 C 0.55198 0.97231 0.44128 0.0
C1433 C 0.54415 0.96251 0.48663 0.0
C1434 C 0.55992 0.9937 0.50462 0.0
C1435 C 0.54467 0.96877 0.54067 0.0
C1436 C 0.57381 0.01629 0.56854 0.0
C1437 C 0.57498 0.03469 0.47921 0.0
N1438 N 0.5525 0.98398 0.54829 0.0
N1439 N 0.56845 0.01953 0.4719 0.0
H1440 H 0.96477 0.56141 0.5439 0.0
H1441 H 0.03898 0.55648 0.48974 0.0
H1442 H 0.9635 0.51974 0.50123 0.0
H1443 H 0.03768 0.5974 0.45914 0.0
H1444 H 0.0117 0.54304 0.50556 0.0
H1445 H 0.99205 0.57511 0.52528 0.0
C1446 C 0.97023 0.55513 0.53094 0.0
C1447 C 0.96184 0.5394 0.52404 0.0
C1448 C 0.01738 0.55495 0.4951 0.0
C1449 C 0.99296 0.55498 0.50304 0.0
C1450 C 0.03294 0.56263 0.48619 0.0
C1451 C 0.04061 0.57809 0.47305 0.0
C1452 C 0.00942 0.56281 0.49194 0.0
C1453 C 0.03219 0.58547 0.46882 0.0
C1454 C 0.98575 0.56297 0.51996 0.0
C1455 C 0.96949 0.53187 0.5068 0.0
N1456 N 0.01705 0.57779 0.47879 0.0
N1457 N 0.98461 0.53971 0.49724 0.0
H1458 H 0.42697 0.46709 0.57529 0.0
H1459 H 0.46771 0.42716 0.43402 0.0
H1460 H 0.41872 0.45275 0.3989 0.0
H1461 H 0.45281 0.41828 0.60966 0.0
H1462 H 0.45301 0.43984 0.42022 0.0
H1463 H 0.43972 0.45246 0.58905 0.0
C1464 C 0.42788 0.46089 0.53942 0.0
C1465 C 0.42184 0.46116 0.48578 0.0
C1466 C 0.45292 0.43505 0.46165 0.0
C1467 C 0.43654 0.44461 0.50119 0.0
C1468 C 0.46137 0.42792 0.46972 0.0
C1469 C 0.4615 0.42172 0.52317 0.0
C1470 C 0.44487 0.43634 0.50772 0.0
C1471 C 0.45297 0.42289 0.56779 0.0
C1472 C 0.43506 0.45249 0.54746 0.0
C1473 C 0.4232 0.45281 0.44093 0.0
N1474 N 0.44513 0.43024 0.55929 0.0
N1475 N 0.4306 0.44501 0.44944 0.0
H1476 H 0.2338 0.08482 0.21754 0.0
H1477 H 0.26233 0.16446 0.37256 0.0
H1478 H 0.26172 0.09764 0.36883 0.0
H1479 H 0.23505 0.14938 0.21968 0.0
H1480 H 0.26196 0.1402 0.37598 0.0
H1481 H 0.23376 0.10845 0.22171 0.0
C1482 C 0.23993 0.09263 0.25185 0.0
C1483 C 0.24782 0.08925 0.29277 0.0
C1484 C 0.25604 0.14225 0.34187 0.0
C1485 C 0.24787 0.11662 0.29786 0.0
C1486 C 0.25624 0.15606 0.33993 0.0
C1487 C 0.24875 0.15896 0.29566 0.0
C1488 C 0.24827 0.13134 0.2993 0.0
C1489 C 0.24104 0.14771 0.25448 0.0
C1490 C 0.23991 0.10618 0.25425 0.0
C1491 C 0.25549 0.09982 0.3364 0.0
N1492 N 0.24103 0.13448 0.25732 0.0
N1493 N 0.25538 0.1131 0.33773 0.0
H1494 H 0.83851 0.09811 0.37533 0.0
H1495 H 0.91701 0.15004 0.21386 0.0
H1496 H 0.85296 0.08605 0.22053 0.0
H1497 H 0.9051 0.16454 0.3689 0.0
H1498 H 0.89346 0.12627 0.21888 0.0
H1499 H 0.86263 0.12218 0.37714 0.0
C1500 C 0.84675 0.10049 0.34194 0.0
C1501 C 0.84371 0.09008 0.29762 0.0
C1502 C 0.89591 0.13458 0.25205 0.0
C1503 C 0.87116 0.11745 0.29939 0.0
C1504 C 0.90942 0.14822 0.24916 0.0
C1505 C 0.91303 0.15934 0.29095 0.0
C1506 C 0.88578 0.13189 0.29705 0.0
C1507 C 0.90274 0.15625 0.33579 0.0
C1508 C 0.86047 0.11421 0.34296 0.0
C1509 C 0.85475 0.09373 0.25543 0.0
N1510 N 0.88951 0.1428 0.33762 0.0
N1511 N 0.8679 0.10706 0.25738 0.0
H1512 H 0.91732 0.76786 0.21915 0.0
H1513 H 0.83812 0.74106 0.37539 0.0
H1514 H 0.90474 0.7412 0.37362 0.0
H1515 H 0.8533 0.76784 0.22137 0.0
H1516 H 0.86223 0.7411 0.37901 0.0
H1517 H 0.89378 0.76811 0.22261 0.0
C1518 C 0.90958 0.76204 0.254 0.0
C1519 C 0.91301 0.75445 0.29608 0.0
C1520 C 0.86024 0.74698 0.34461 0.0
C1521 C 0.88575 0.75467 0.30039 0.0
C1522 C 0.84652 0.74698 0.34256 0.0
C1523 C 0.84368 0.75442 0.29791 0.0
C1524 C 0.87112 0.7545 0.30173 0.0
C1525 C 0.85493 0.7619 0.25648 0.0
C1526 C 0.89608 0.76219 0.25599 0.0
C1527 C 0.90252 0.74718 0.3403 0.0
N1528 N 0.86807 0.76172 0.2594 0.0
N1529 N 0.8893 0.74742 0.34126 0.0
H1530 H 0.08529 0.23269 0.78479 0.0
H1531 H 0.16565 0.26155 0.63518 0.0
H1532 H 0.09885 0.26116 0.63503 0.0
H1533 H 0.14935 0.23297 0.78443 0.0
H1534 H 0.14144 0.2613 0.6302 0.0
H1535 H 0.10877 0.23235 0.78117 0.0
C1536 C 0.09323 0.23889 0.75093 0.0
C1537 C 0.09011 0.24703 0.71029 0.0
C1538 C 0.14321 0.25506 0.66382 0.0
C1539 C 0.11732 0.24673 0.70587 0.0
C1540 C 0.15699 0.25519 0.66664 0.0
C1541 C 0.15954 0.24732 0.71044 0.0
C1542 C 0.13199 0.24698 0.70503 0.0
C1543 C 0.14796 0.23928 0.75009 0.0
C1544 C 0.1067 0.23868 0.74883 0.0
C1545 C 0.10084 0.25475 0.66722 0.0
N1546 N 0.13478 0.23935 0.74645 0.0
N1547 N 0.11405 0.25448 0.66624 0.0
H1548 H 0.74096 0.8374 0.63758 0.0
H1549 H 0.77087 0.91784 0.78775 0.0
H1550 H 0.76912 0.85315 0.78811 0.0
H1551 H 0.74107 0.90409 0.64171 0.0
H1552 H 0.77106 0.89432 0.78304 0.0
H1553 H 0.74141 0.8617 0.63316 0.0
C1554 C 0.74727 0.84596 0.66946 0.0
C1555 C 0.75497 0.84323 0.71341 0.0
C1556 C 0.76447 0.89634 0.75175 0.0
C1557 C 0.75555 0.87089 0.70858 0.0
C1558 C 0.76435 0.90984 0.75444 0.0
C1559 C 0.75587 0.91292 0.71525 0.0
C1560 C 0.75598 0.88564 0.70963 0.0
C1561 C 0.74776 0.90213 0.67279 0.0
C1562 C 0.7475 0.85979 0.66695 0.0
C1563 C 0.76295 0.85468 0.75361 0.0
N1564 N 0.74794 0.88888 0.67123 0.0
N1565 N 0.763 0.86792 0.7502 0.0
H1566 H 0.15053 0.91731 0.78579 0.0
H1567 H 0.09873 0.8368 0.63771 0.0
H1568 H 0.16544 0.90335 0.63714 0.0
H1569 H 0.08671 0.85333 0.78694 0.0
H1570 H 0.12276 0.86093 0.6324 0.0
H1571 H 0.12666 0.89388 0.78251 0.0
C1572 C 0.14877 0.90929 0.75223 0.0
C1573 C 0.16005 0.91229 0.71182 0.0
C1574 C 0.1148 0.85923 0.66609 0.0
C1575 C 0.13248 0.88513 0.70779 0.0
C1576 C 0.1011 0.8455 0.6691 0.0
C1577 C 0.09073 0.84303 0.71297 0.0
C1578 C 0.11803 0.87049 0.70719 0.0
C1579 C 0.09436 0.85465 0.75254 0.0
C1580 C 0.13507 0.89584 0.75034 0.0
C1581 C 0.15703 0.90146 0.66915 0.0
N1582 N 0.10765 0.86779 0.7487 0.0
N1583 N 0.14352 0.88828 0.66835 0.0
H1584 H 0.90175 0.41892 0.55843 0.0
H1585 H 0.93118 0.49965 0.7055 0.0
H1586 H 0.93024 0.43249 0.70822 0.0
H1587 H 0.90144 0.48253 0.55952 0.0
H1588 H 0.93109 0.47552 0.7108 0.0
H1589 H 0.9016 0.44247 0.5615 0.0
C1590 C 0.90799 0.42688 0.59219 0.0
C1591 C 0.91606 0.42372 0.63303 0.0
C1592 C 0.92457 0.4771 0.67784 0.0
C1593 C 0.91598 0.45103 0.63686 0.0
C1594 C 0.92461 0.49083 0.67484 0.0
C1595 C 0.91636 0.49313 0.63186 0.0
C1596 C 0.91621 0.46569 0.63759 0.0
C1597 C 0.90805 0.48136 0.59321 0.0
C1598 C 0.90789 0.4404 0.59398 0.0
C1599 C 0.92386 0.4345 0.67591 0.0
N1600 N 0.90823 0.46825 0.59698 0.0
N1601 N 0.92369 0.44775 0.67663 0.0
H1602 H 0.50398 0.43184 0.70428 0.0
H1603 H 0.58361 0.48426 0.55105 0.0
H1604 H 0.52008 0.42002 0.55333 0.0
H1605 H 0.57031 0.49879 0.70258 0.0
H1606 H 0.56014 0.46046 0.55441 0.0
H1607 H 0.52789 0.45612 0.70792 0.0
C1608 C 0.51253 0.43431 0.67216 0.0
C1609 C 0.51002 0.42391 0.62832 0.0
C1610 C 0.56225 0.46877 0.58715 0.0
C1611 C 0.53722 0.4515 0.63215 0.0
C1612 C 0.57571 0.48245 0.5852 0.0
C1613 C 0.57894 0.49358 0.62653 0.0
C1614 C 0.55175 0.46605 0.63075 0.0
C1615 C 0.56825 0.49049 0.66985 0.0
C1616 C 0.52614 0.44815 0.6742 0.0
C1617 C 0.52145 0.42768 0.58777 0.0
N1618 N 0.55507 0.47698 0.67082 0.0
N1619 N 0.53446 0.4411 0.59068 0.0
H1620 H 0.57149 0.07464 0.71071 0.0
H1621 H 0.51993 0.10305 0.55844 0.0
H1622 H 0.5836 0.10254 0.5596 0.0
H1623 H 0.50475 0.07435 0.70758 0.0
H1624 H 0.54378 0.10346 0.56276 0.0
H1625 H 0.54748 0.07479 0.71486 0.0
C1626 C 0.56914 0.08083 0.67867 0.0
C1627 C 0.57953 0.08854 0.63461 0.0
C1628 C 0.53531 0.09706 0.59479 0.0
C1629 C 0.55226 0.08877 0.63907 0.0
C1630 C 0.52162 0.09682 0.59231 0.0
C1631 C 0.51028 0.08859 0.63256 0.0
C1632 C 0.53782 0.08898 0.63779 0.0
C1633 C 0.51321 0.08083 0.67567 0.0
C1634 C 0.55545 0.0809 0.681 0.0
C1635 C 0.57593 0.09636 0.59418 0.0
N1636 N 0.52672 0.08115 0.67706 0.0
N1637 N 0.56265 0.09625 0.59739 0.0
H1638 H 0.76635 0.59708 0.97191 0.0
H1639 H 0.81863 0.56981 0.12594 0.0
H1640 H 0.7547 0.56974 0.12449 0.0
H1641 H 0.83302 0.59716 0.97317 0.0
H1642 H 0.79501 0.56987 0.12336 0.0
H1643 H 0.79062 0.59744 0.96864 0.0
C1644 C 0.76887 0.59115 1.00454 0.0
C1645 C 0.7585 0.5834 0.04861 0.0
C1646 C 0.80326 0.57589 0.09019 0.0
C1647 C 0.78608 0.58377 0.04518 0.0
C1648 C 0.81683 0.57587 0.09169 0.0
C1649 C 0.82786 0.58352 0.04976 0.0
C1650 C 0.80055 0.58364 0.0464 0.0
C1651 C 0.82479 0.59112 0.00636 0.0
C1652 C 0.7827 0.59137 1.00268 0.0
C1653 C 0.76233 0.57592 0.0898 0.0
N1654 N 0.81139 0.59101 0.00578 0.0
N1655 N 0.77574 0.57631 0.08704 0.0
H1656 H 0.43545 0.18648 0.12579 0.0
H1657 H 0.4074 0.23771 0.96851 0.0
H1658 H 0.40793 0.17146 0.97348 0.0
H1659 H 0.43517 0.25029 0.12015 0.0
H1660 H 0.4076 0.21372 0.96591 0.0
H1661 H 0.43564 0.21022 0.12088 0.0
C1662 C 0.42943 0.18819 0.09111 0.0
C1663 C 0.42162 0.17693 0.05009 0.0
C1664 C 0.41366 0.22179 0.99955 0.0
C1665 C 0.42175 0.20433 0.04412 0.0
C1666 C 0.41357 0.23546 1.00102 0.0
C1667 C 0.42124 0.24599 0.04473 0.0
C1668 C 0.4215 0.21873 0.04207 0.0
C1669 C 0.42904 0.24252 0.08578 0.0
C1670 C 0.42955 0.20181 0.08828 0.0
C1671 C 0.4141 0.17986 0.006 0.0
N1672 N 0.42894 0.22924 0.08344 0.0
N1673 N 0.4143 0.1933 1.00423 0.0
H1674 H 0.75244 0.18587 0.12889 0.0
H1675 H 0.83183 0.23837 0.97408 0.0
H1676 H 0.76541 0.17161 0.97589 0.0
H1677 H 0.8162 0.25002 0.12677 0.0
H1678 H 0.80777 0.21424 0.97015 0.0
H1679 H 0.77586 0.20976 0.12512 0.0
C1680 C 0.76024 0.18777 0.0943 0.0
C1681 C 0.75696 0.17668 0.05274 0.0
C1682 C 0.80965 0.22214 1.00431 0.0
C1683 C 0.78409 0.20427 0.0481 0.0
C1684 C 0.82334 0.23589 0.00652 0.0
C1685 C 0.82604 0.24619 0.05094 0.0
C1686 C 0.79867 0.21878 0.04677 0.0
C1687 C 0.81469 0.24243 0.09188 0.0
C1688 C 0.77368 0.20149 0.09212 0.0
C1689 C 0.76752 0.17987 0.00881 0.0
N1690 N 0.80159 0.22908 0.0888 0.0
N1691 N 0.78068 0.19339 0.00768 0.0
H1692 H 0.59703 0.76561 0.03813 0.0
H1693 H 0.56688 0.81626 0.89072 0.0
H1694 H 0.56807 0.75307 0.88985 0.0
H1695 H 0.5977 0.83262 0.03373 0.0
H1696 H 0.56658 0.79251 0.89524 0.0
H1697 H 0.59694 0.78965 0.04249 0.0
C1698 C 0.59062 0.76787 0.00674 0.0
C1699 C 0.58258 0.75735 0.96344 0.0
C1700 C 0.57343 0.80121 0.92589 0.0
C1701 C 0.58241 0.78464 0.96819 0.0
C1702 C 0.57361 0.81485 0.92331 0.0
C1703 C 0.5824 0.82651 0.96173 0.0
C1704 C 0.58215 0.79904 0.96715 0.0
C1705 C 0.59078 0.82391 1.00325 0.0
C1706 C 0.59059 0.78158 0.00921 0.0
C1707 C 0.57449 0.76084 0.92384 0.0
N1708 N 0.59051 0.81043 1.00477 0.0
N1709 N 0.57464 0.77412 0.9272 0.0
H1710 H 0.18636 0.7518 0.88603 0.0
H1711 H 0.23822 0.83113 0.04218 0.0
H1712 H 0.17163 0.76464 0.03814 0.0
H1713 H 0.25041 0.81575 0.89016 0.0
H1714 H 0.21414 0.80702 0.04521 0.0
H1715 H 0.21021 0.77526 0.8905 0.0
C1716 C 0.18815 0.75958 0.92057 0.0
C1717 C 0.17694 0.75625 0.96166 0.0
C1718 C 0.22214 0.80897 0.01139 0.0
C1719 C 0.20447 0.78342 0.96712 0.0
C1720 C 0.23587 0.82269 0.00968 0.0
C1721 C 0.24631 0.82547 0.96573 0.0
C1722 C 0.21894 0.79803 0.9689 0.0
C1723 C 0.24271 0.81417 0.9247 0.0
C1724 C 0.20184 0.77304 0.92315 0.0
C1725 C 0.17999 0.76678 0.00556 0.0
N1726 N 0.22938 0.80104 0.92729 0.0
N1727 N 0.19348 0.77997 0.00708 0.0
H1728 H 0.18538 0.43247 0.88167 0.0
H1729 H 0.23738 0.40553 0.04004 0.0
H1730 H 0.17085 0.4056 0.03562 0.0
H1731 H 0.24944 0.4327 0.88694 0.0
H1732 H 0.21317 0.4053 0.0422 0.0
H1733 H 0.20904 0.4325 0.88561 0.0
C1734 C 0.18717 0.42654 0.91648 0.0
C1735 C 0.17608 0.41899 0.95834 0.0
C1736 C 0.22117 0.41131 0.0083 0.0
C1737 C 0.20343 0.41898 0.96325 0.0
C1738 C 0.23497 0.41146 0.00709 0.0
C1739 C 0.24543 0.41911 0.96316 0.0
C1740 C 0.21791 0.41888 0.96529 0.0
C1741 C 0.24174 0.4266 0.92153 0.0
C1742 C 0.20075 0.42657 0.91875 0.0
C1743 C 0.17911 0.41156 1.00246 0.0
N1744 N 0.22835 0.42627 0.92364 0.0
N1745 N 0.19253 0.41171 1.00378 0.0
H1746 H 0.42073 0.90232 0.46094 0.0
H1747 H 0.50005 0.93086 0.30305 0.0
H1748 H 0.43285 0.92947 0.30777 0.0
H1749 H 0.48565 0.90415 0.45738 0.0
H1750 H 0.4758 0.93052 0.30094 0.0
H1751 H 0.44464 0.90282 0.4572 0.0
C1752 C 0.42845 0.90841 0.42632 0.0
C1753 C 0.42477 0.9159 0.38467 0.0
C1754 C 0.478 0.92475 0.33513 0.0
C1755 C 0.45245 0.91655 0.38006 0.0
C1756 C 0.49181 0.92493 0.33635 0.0
C1757 C 0.49489 0.91754 0.38051 0.0
C1758 C 0.46726 0.9171 0.37835 0.0
C1759 C 0.48383 0.91004 0.42256 0.0
C1760 C 0.44216 0.90869 0.42418 0.0
C1761 C 0.43525 0.92354 0.34074 0.0
N1762 N 0.47059 0.91003 0.42039 0.0
N1763 N 0.44867 0.9237 0.3396 0.0
H1764 H 0.10337 0.58454 0.45197 0.0
H1765 H 0.07352 0.50395 0.30298 0.0
H1766 H 0.07389 0.57078 0.305 0.0
H1767 H 0.10173 0.5199 0.45334 0.0
H1768 H 0.07384 0.5282 0.2984 0.0
H1769 H 0.1034 0.56093 0.44825 0.0
C1770 C 0.09689 0.57653 0.41866 0.0
C1771 C 0.08855 0.57963 0.37889 0.0
C1772 C 0.07996 0.52633 0.33221 0.0
C1773 C 0.08847 0.55225 0.37439 0.0
C1774 C 0.07978 0.51253 0.33483 0.0
C1775 C 0.08757 0.50989 0.37871 0.0
C1776 C 0.08801 0.53748 0.37368 0.0
C1777 C 0.09551 0.52137 0.41886 0.0
C1778 C 0.09691 0.56297 0.41655 0.0
C1779 C 0.08047 0.56881 0.3365 0.0
N1780 N 0.0955 0.53457 0.41535 0.0
N1781 N 0.08057 0.55552 0.33547 0.0
H1782 H 0.48394 0.58364 0.45831 0.0
H1783 H 0.43167 0.50416 0.3038 0.0
H1784 H 0.49809 0.57086 0.3045 0.0
H1785 H 0.42008 0.5195 0.45738 0.0
H1786 H 0.45572 0.52829 0.29981 0.0
H1787 H 0.4602 0.56006 0.45526 0.0
C1788 C 0.48205 0.57585 0.42369 0.0
C1789 C 0.49307 0.57923 0.38168 0.0
C1790 C 0.44785 0.52633 0.3342 0.0
C1791 C 0.46564 0.55192 0.37787 0.0
C1792 C 0.43415 0.51259 0.33647 0.0
C1793 C 0.42388 0.5098 0.38109 0.0
C1794 C 0.45121 0.53726 0.37683 0.0
C1795 C 0.42764 0.52109 0.4223 0.0
C1796 C 0.46842 0.56232 0.42194 0.0
C1797 C 0.48988 0.56868 0.33776 0.0
N1798 N 0.44094 0.53424 0.41916 0.0
N1799 N 0.47644 0.55543 0.33704 0.0
loop_
_geom_bond_atom_site_label_1
_geom_bond_atom_site_label_2
_geom_bond_distance
_geom_bond_site_symmetry_2
_ccdc_geom_bond_type
Co0 O1 2.216 . S
Co0 O2 2.091 . S
Co0 O4 2.004 . S
Co0 O10 2.021 . S
Co0 O12 2.137 . S
Co0 O13 2.244 . S
O1 Co0 2.216 . S
O1 C8 1.247 . S
O2 Co0 2.091 . S
O2 C8 1.261 . S
C3 O12 1.247 . S
C3 O13 1.272 . S
O4 Co0 2.004 . S
O4 C9 1.259 . S
Co5 O6 2.061 . S
Co5 O11 2.052 . S
Co5 O13 2.135 . S
O6 Co5 2.061 . S
O6 C9 1.235 . S
C7 O10 1.238 . S
C7 O11 1.241 . S
C8 O1 1.247 . S
C8 O2 1.261 . S
C9 O4 1.259 . S
C9 O6 1.235 . S
O10 Co0 2.021 . S
O10 C7 1.238 . S
O11 Co5 2.052 . S
O11 C7 1.241 . S
O12 Co0 2.137 . S
O12 C3 1.247 . S
O13 Co0 2.244 . S
O13 C3 1.272 . S
O13 Co5 2.135 . S
Co14 O15 2.216 . S
Co14 O16 2.091 . S
Co14 O18 2.004 . S
Co14 O24 2.021 . S
Co14 O26 2.137 . S
Co14 O27 2.244 . S
O15 Co14 2.216 . S
O15 C22 1.247 . S
O16 Co14 2.091 . S
O16 C22 1.261 . S
C17 O26 1.247 . S
C17 O27 1.272 . S
O18 Co14 2.004 . S
O18 C23 1.259 . S
Co19 O20 2.061 . S
Co19 O25 2.052 . S
Co19 O27 2.135 . S
O20 Co19 2.061 . S
O20 C23 1.235 . S
C21 O24 1.238 . S
C21 O25 1.241 . S
C22 O15 1.247 . S
C22 O16 1.261 . S
C23 O18 1.259 . S
C23 O20 1.235 . S
O24 Co14 2.021 . S
O24 C21 1.238 . S
O25 Co19 2.052 . S
O25 C21 1.241 . S
O26 Co14 2.137 . S
O26 C17 1.247 . S
O27 Co14 2.244 . S
O27 C17 1.272 . S
O27 Co19 2.135 . S
Co28 O29 2.216 . S
Co28 O30 2.091 . S
Co28 O32 2.004 . S
Co28 O38 2.021 . S
Co28 O40 2.137 . S
Co28 O41 2.244 . S
O29 Co28 2.216 . S
O29 C36 1.247 . S
O30 Co28 2.091 . S
O30 C36 1.261 . S
C31 O40 1.247 . S
C31 O41 1.272 . S
O32 Co28 2.004 . S
O32 C37 1.259 . S
Co33 O34 2.061 . S
Co33 O39 2.052 . S
Co33 O41 2.135 . S
O34 Co33 2.061 . S
O34 C37 1.235 . S
C35 O38 1.238 . S
C35 O39 1.241 . S
C36 O29 1.247 . S
C36 O30 1.261 . S
C37 O32 1.259 . S
C37 O34 1.235 . S
O38 Co28 2.021 . S
O38 C35 1.238 . S
O39 Co33 2.052 . S
O39 C35 1.241 . S
O40 Co28 2.137 . S
O40 C31 1.247 . S
O41 Co28 2.244 . S
O41 C31 1.272 . S
O41 Co33 2.135 . S
Co42 O43 2.216 . S
Co42 O44 2.091 . S
Co42 O46 2.004 . S
Co42 O52 2.021 . S
Co42 O54 2.137 . S
Co42 O55 2.244 . S
O43 Co42 2.216 . S
O43 C50 1.247 . S
O44 Co42 2.091 . S
O44 C50 1.261 . S
C45 O54 1.247 . S
C45 O55 1.272 . S
O46 Co42 2.004 . S
O46 C51 1.259 . S
Co47 O48 2.061 . S
Co47 O53 2.052 . S
Co47 O55 2.135 . S
O48 Co47 2.061 . S
O48 C51 1.235 . S
C49 O52 1.238 . S
C49 O53 1.241 . S
C50 O43 1.247 . S
C50 O44 1.261 . S
C51 O46 1.259 . S
C51 O48 1.235 . S
O52 Co42 2.021 . S
O52 C49 1.238 . S
O53 Co47 2.052 . S
O53 C49 1.241 . S
O54 Co42 2.137 . S
O54 C45 1.247 . S
O55 Co42 2.244 . S
O55 C45 1.272 . S
O55 Co47 2.135 . S
Co56 O57 2.216 . S
Co56 O58 2.091 . S
Co56 O60 2.004 . S
Co56 O66 2.021 . S
Co56 O68 2.137 . S
Co56 O69 2.244 . S
O57 Co56 2.216 . S
O57 C64 1.247 . S
O58 Co56 2.091 . S
O58 C64 1.261 . S
C59 O68 1.247 . S
C59 O69 1.272 . S
O60 Co56 2.004 . S
O60 C65 1.259 . S
Co61 O62 2.061 . S
Co61 O67 2.052 . S
Co61 O69 2.135 . S
O62 Co61 2.061 . S
O62 C65 1.235 . S
C63 O66 1.238 . S
C63 O67 1.241 . S
C64 O57 1.247 . S
C64 O58 1.261 . S
C65 O60 1.259 . S
C65 O62 1.235 . S
O66 Co56 2.021 . S
O66 C63 1.238 . S
O67 Co61 2.052 . S
O67 C63 1.241 . S
O68 Co56 2.137 . S
O68 C59 1.247 . S
O69 Co56 2.244 . S
O69 C59 1.272 . S
O69 Co61 2.135 . S
Co70 O71 2.216 . S
Co70 O72 2.091 . S
Co70 O74 2.004 . S
Co70 O80 2.021 . S
Co70 O82 2.137 . S
Co70 O83 2.244 . S
O71 Co70 2.216 . S
O71 C78 1.247 . S
O72 Co70 2.091 . S
O72 C78 1.261 . S
C73 O82 1.247 . S
C73 O83 1.272 . S
O74 Co70 2.004 . S
O74 C79 1.259 . S
Co75 O76 2.061 . S
Co75 O81 2.052 . S
Co75 O83 2.135 . S
O76 Co75 2.061 . S
O76 C79 1.235 . S
C77 O80 1.238 . S
C77 O81 1.241 . S
C78 O71 1.247 . S
C78 O72 1.261 . S
C79 O74 1.259 . S
C79 O76 1.235 . S
O80 Co70 2.021 . S
O80 C77 1.238 . S
O81 Co75 2.052 . S
O81 C77 1.241 . S
O82 Co70 2.137 . S
O82 C73 1.247 . S
O83 Co70 2.244 . S
O83 C73 1.272 . S
O83 Co75 2.135 . S
Co84 O85 2.216 . S
Co84 O86 2.091 . S
Co84 O88 2.004 . S
Co84 O94 2.021 . S
Co84 O96 2.137 . S
Co84 O97 2.244 . S
O85 Co84 2.216 . S
O85 C92 1.247 . S
O86 Co84 2.091 . S
O86 C92 1.261 . S
C87 O96 1.247 . S
C87 O97 1.272 . S
O88 Co84 2.004 . S
O88 C93 1.259 . S
Co89 O90 2.061 . S
Co89 O95 2.052 . S
Co89 O97 2.135 . S
O90 Co89 2.061 . S
O90 C93 1.235 . S
C91 O94 1.238 . S
C91 O95 1.241 . S
C92 O85 1.247 . S
C92 O86 1.261 . S
C93 O88 1.259 . S
C93 O90 1.235 . S
O94 Co84 2.021 . S
O94 C91 1.238 . S
O95 Co89 2.052 . S
O95 C91 1.241 . S
O96 Co84 2.137 . S
O96 C87 1.247 . S
O97 Co84 2.244 . S
O97 C87 1.272 . S
O97 Co89 2.135 . S
Co98 O99 2.216 . S
Co98 O100 2.091 . S
Co98 O102 2.004 . S
Co98 O108 2.021 . S
Co98 O110 2.137 . S
Co98 O111 2.244 . S
O99 Co98 2.216 . S
O99 C106 1.247 . S
O100 Co98 2.091 . S
O100 C106 1.261 . S
C101 O110 1.247 . S
C101 O111 1.272 . S
O102 Co98 2.004 . S
O102 C107 1.259 . S
Co103 O104 2.061 . S
Co103 O109 2.052 . S
Co103 O111 2.135 . S
O104 Co103 2.061 . S
O104 C107 1.235 . S
C105 O108 1.238 . S
C105 O109 1.241 . S
C106 O99 1.247 . S
C106 O100 1.261 . S
C107 O102 1.259 . S
C107 O104 1.235 . S
O108 Co98 2.021 . S
O108 C105 1.238 . S
O109 Co103 2.052 . S
O109 C105 1.241 . S
O110 Co98 2.137 . S
O110 C101 1.247 . S
O111 Co98 2.244 . S
O111 C101 1.272 . S
O111 Co103 2.135 . S
Co112 O113 2.216 . S
Co112 O114 2.091 . S
Co112 O116 2.004 . S
Co112 O122 2.021 . S
Co112 O124 2.137 . S
Co112 O125 2.244 . S
O113 Co112 2.216 . S
O113 C120 1.247 . S
O114 Co112 2.091 . S
O114 C120 1.261 . S
C115 O124 1.247 . S
C115 O125 1.272 . S
O116 Co112 2.004 . S
O116 C121 1.259 . S
Co117 O118 2.061 . S
Co117 O123 2.052 . S
Co117 O125 2.135 . S
O118 Co117 2.061 . S
O118 C121 1.235 . S
C119 O122 1.238 . S
C119 O123 1.241 . S
C120 O113 1.247 . S
C120 O114 1.261 . S
C121 O116 1.259 . S
C121 O118 1.235 . S
O122 Co112 2.021 . S
O122 C119 1.238 . S
O123 Co117 2.052 . S
O123 C119 1.241 . S
O124 Co112 2.137 . S
O124 C115 1.247 . S
O125 Co112 2.244 . S
O125 C115 1.272 . S
O125 Co117 2.135 . S
Co126 O127 2.216 . S
Co126 O128 2.091 . S
Co126 O130 2.004 . S
Co126 O136 2.021 . S
Co126 O138 2.137 . S
Co126 O139 2.244 . S
O127 Co126 2.216 . S
O127 C134 1.247 . S
O128 Co126 2.091 . S
O128 C134 1.261 . S
C129 O138 1.247 . S
C129 O139 1.272 . S
O130 Co126 2.004 . S
O130 C135 1.259 . S
Co131 O132 2.061 . S
Co131 O137 2.052 . S
Co131 O139 2.135 . S
O132 Co131 2.061 . S
O132 C135 1.235 . S
C133 O136 1.238 . S
C133 O137 1.241 . S
C134 O127 1.247 . S
C134 O128 1.261 . S
C135 O130 1.259 . S
C135 O132 1.235 . S
O136 Co126 2.021 . S
O136 C133 1.238 . S
O137 Co131 2.052 . S
O137 C133 1.241 . S
O138 Co126 2.137 . S
O138 C129 1.247 . S
O139 Co126 2.244 . S
O139 C129 1.272 . S
O139 Co131 2.135 . S
Co140 O141 2.216 . S
Co140 O142 2.091 . S
Co140 O144 2.004 . S
Co140 O150 2.021 . S
Co140 O152 2.137 . S
Co140 O153 2.244 . S
O141 Co140 2.216 . S
O141 C148 1.247 . S
O142 Co140 2.091 . S
O142 C148 1.261 . S
C143 O152 1.247 . S
C143 O153 1.272 . S
O144 Co140 2.004 . S
O144 C149 1.259 . S
Co145 O146 2.061 . S
Co145 O151 2.052 . S
Co145 O153 2.135 . S
O146 Co145 2.061 . S
O146 C149 1.235 . S
C147 O150 1.238 . S
C147 O151 1.241 . S
C148 O141 1.247 . S
C148 O142 1.261 . S
C149 O144 1.259 . S
C149 O146 1.235 . S
O150 Co140 2.021 . S
O150 C147 1.238 . S
O151 Co145 2.052 . S
O151 C147 1.241 . S
O152 Co140 2.137 . S
O152 C143 1.247 . S
O153 Co140 2.244 . S
O153 C143 1.272 . S
O153 Co145 2.135 . S
Co154 O155 2.216 . S
Co154 O156 2.091 . S
Co154 O158 2.004 . S
Co154 O164 2.021 . S
Co154 O166 2.137 . S
Co154 O167 2.244 . S
O155 Co154 2.216 . S
O155 C162 1.247 . S
O156 Co154 2.091 . S
O156 C162 1.261 . S
C157 O166 1.247 . S
C157 O167 1.272 . S
O158 Co154 2.004 . S
O158 C163 1.259 . S
Co159 O160 2.061 . S
Co159 O165 2.052 . S
Co159 O167 2.135 . S
O160 Co159 2.061 . S
O160 C163 1.235 . S
C161 O164 1.238 . S
C161 O165 1.241 . S
C162 O155 1.247 . S
C162 O156 1.261 . S
C163 O158 1.259 . S
C163 O160 1.235 . S
O164 Co154 2.021 . S
O164 C161 1.238 . S
O165 Co159 2.052 . S
O165 C161 1.241 . S
O166 Co154 2.137 . S
O166 C157 1.247 . S
O167 Co154 2.244 . S
O167 C157 1.272 . S
O167 Co159 2.135 . S
Co168 O169 2.216 . S
Co168 O170 2.091 . S
Co168 O172 2.004 . S
Co168 O178 2.021 . S
Co168 O180 2.137 . S
Co168 O181 2.244 . S
O169 Co168 2.216 . S
O169 C176 1.247 . S
O170 Co168 2.091 . S
O170 C176 1.261 . S
C171 O180 1.247 . S
C171 O181 1.272 . S
O172 Co168 2.004 . S
O172 C177 1.259 . S
Co173 O174 2.061 . S
Co173 O179 2.052 . S
Co173 O181 2.135 . S
O174 Co173 2.061 . S
O174 C177 1.235 . S
C175 O178 1.238 . S
C175 O179 1.241 . S
C176 O169 1.247 . S
C176 O170 1.261 . S
C177 O172 1.259 . S
C177 O174 1.235 . S
O178 Co168 2.021 . S
O178 C175 1.238 . S
O179 Co173 2.052 . S
O179 C175 1.241 . S
O180 Co168 2.137 . S
O180 C171 1.247 . S
O181 Co168 2.244 . S
O181 C171 1.272 . S
O181 Co173 2.135 . S
Co182 O183 2.216 . S
Co182 O184 2.091 . S
Co182 O186 2.004 . S
Co182 O192 2.021 . S
Co182 O194 2.137 . S
Co182 O195 2.244 . S
O183 Co182 2.216 . S
O183 C190 1.247 . S
O184 Co182 2.091 . S
O184 C190 1.261 . S
C185 O194 1.247 . S
C185 O195 1.272 . S
O186 Co182 2.004 . S
O186 C191 1.259 . S
Co187 O188 2.061 . S
Co187 O193 2.052 . S
Co187 O195 2.135 . S
O188 Co187 2.061 . S
O188 C191 1.235 . S
C189 O192 1.238 . S
C189 O193 1.241 . S
C190 O183 1.247 . S
C190 O184 1.261 . S
C191 O186 1.259 . S
C191 O188 1.235 . S
O192 Co182 2.021 . S
O192 C189 1.238 . S
O193 Co187 2.052 . S
O193 C189 1.241 . S
O194 Co182 2.137 . S
O194 C185 1.247 . S
O195 Co182 2.244 . S
O195 C185 1.272 . S
O195 Co187 2.135 . S
Co196 O197 2.216 . S
Co196 O198 2.091 . S
Co196 O200 2.004 . S
Co196 O206 2.021 . S
Co196 O208 2.137 . S
Co196 O209 2.244 . S
O197 Co196 2.216 . S
O197 C204 1.247 . S
O198 Co196 2.091 . S
O198 C204 1.261 . S
C199 O208 1.247 . S
C199 O209 1.272 . S
O200 Co196 2.004 . S
O200 C205 1.259 . S
Co201 O202 2.061 . S
Co201 O207 2.052 . S
Co201 O209 2.135 . S
O202 Co201 2.061 . S
O202 C205 1.235 . S
C203 O206 1.238 . S
C203 O207 1.241 . S
C204 O197 1.247 . S
C204 O198 1.261 . S
C205 O200 1.259 . S
C205 O202 1.235 . S
O206 Co196 2.021 . S
O206 C203 1.238 . S
O207 Co201 2.052 . S
O207 C203 1.241 . S
O208 Co196 2.137 . S
O208 C199 1.247 . S
O209 Co196 2.244 . S
O209 C199 1.272 . S
O209 Co201 2.135 . S
Co210 O211 2.216 . S
Co210 O212 2.091 1_554 S
Co210 O214 2.004 . S
Co210 O220 2.021 . S
Co210 O222 2.137 . S
Co210 O223 2.244 . S
O211 Co210 2.216 . S
O211 C218 1.247 1_554 S
O212 Co210 2.091 1_556 S
O212 C218 1.261 . S
C213 O222 1.247 . S
C213 O223 1.272 . S
O214 Co210 2.004 . S
O214 C219 1.259 . S
Co215 O216 2.061 . S
Co215 O221 2.052 . S
Co215 O223 2.135 . S
O216 Co215 2.061 . S
O216 C219 1.235 . S
C217 O220 1.238 . S
C217 O221 1.241 . S
C218 O211 1.247 1_556 S
C218 O212 1.261 . S
C219 O214 1.259 . S
C219 O216 1.235 . S
O220 Co210 2.021 . S
O220 C217 1.238 . S
O221 Co215 2.052 . S
O221 C217 1.241 . S
O222 Co210 2.137 . S
O222 C213 1.247 . S
O223 Co210 2.244 . S
O223 C213 1.272 . S
O223 Co215 2.135 . S
Co224 O225 2.216 . S
Co224 O226 2.091 1_554 S
Co224 O228 2.004 . S
Co224 O234 2.021 . S
Co224 O236 2.137 . S
Co224 O237 2.244 . S
O225 Co224 2.216 . S
O225 C232 1.247 1_554 S
O226 Co224 2.091 1_556 S
O226 C232 1.261 . S
C227 O236 1.247 . S
C227 O237 1.272 . S
O228 Co224 2.004 . S
O228 C233 1.259 . S
Co229 O230 2.061 . S
Co229 O235 2.052 . S
Co229 O237 2.135 . S
O230 Co229 2.061 . S
O230 C233 1.235 . S
C231 O234 1.238 . S
C231 O235 1.241 . S
C232 O225 1.247 1_556 S
C232 O226 1.261 . S
C233 O228 1.259 . S
C233 O230 1.235 . S
O234 Co224 2.021 . S
O234 C231 1.238 . S
O235 Co229 2.052 . S
O235 C231 1.241 . S
O236 Co224 2.137 . S
O236 C227 1.247 . S
O237 Co224 2.244 . S
O237 C227 1.272 . S
O237 Co229 2.135 . S
Co238 O239 2.216 . S
Co238 O240 2.091 1_554 S
Co238 O242 2.004 . S
Co238 O248 2.021 . S
Co238 O250 2.137 . S
Co238 O251 2.244 . S
O239 Co238 2.216 . S
O239 C246 1.247 1_554 S
O240 Co238 2.091 1_556 S
O240 C246 1.261 . S
C241 O250 1.247 . S
C241 O251 1.272 . S
O242 Co238 2.004 . S
O242 C247 1.259 . S
Co243 O244 2.061 . S
Co243 O249 2.052 . S
Co243 O251 2.135 . S
O244 Co243 2.061 . S
O244 C247 1.235 . S
C245 O248 1.238 . S
C245 O249 1.241 . S
C246 O239 1.247 1_556 S
C246 O240 1.261 . S
C247 O242 1.259 . S
C247 O244 1.235 . S
O248 Co238 2.021 . S
O248 C245 1.238 . S
O249 Co243 2.052 . S
O249 C245 1.241 . S
O250 Co238 2.137 . S
O250 C241 1.247 . S
O251 Co238 2.244 . S
O251 C241 1.272 . S
O251 Co243 2.135 . S
Co252 O253 2.216 . S
Co252 O254 2.091 1_554 S
Co252 O256 2.004 . S
Co252 O262 2.021 . S
Co252 O264 2.137 . S
Co252 O265 2.244 . S
O253 Co252 2.216 . S
O253 C260 1.247 1_554 S
O254 Co252 2.091 1_556 S
O254 C260 1.261 . S
C255 O264 1.247 . S
C255 O265 1.272 . S
O256 Co252 2.004 . S
O256 C261 1.259 . S
Co257 O258 2.061 . S
Co257 O263 2.052 . S
Co257 O265 2.135 . S
O258 Co257 2.061 . S
O258 C261 1.235 . S
C259 O262 1.238 . S
C259 O263 1.241 . S
C260 O253 1.247 1_556 S
C260 O254 1.261 . S
C261 O256 1.259 . S
C261 O258 1.235 . S
O262 Co252 2.021 . S
O262 C259 1.238 . S
O263 Co257 2.052 . S
O263 C259 1.241 . S
O264 Co252 2.137 . S
O264 C255 1.247 . S
O265 Co252 2.244 . S
O265 C255 1.272 . S
O265 Co257 2.135 . S
Co266 O267 2.216 . S
Co266 O268 2.091 1_554 S
Co266 O270 2.004 . S
Co266 O276 2.021 . S
Co266 O278 2.137 . S
Co266 O279 2.244 . S
O267 Co266 2.216 . S
O267 C274 1.247 1_554 S
O268 Co266 2.091 1_556 S
O268 C274 1.261 . S
C269 O278 1.247 . S
C269 O279 1.272 . S
O270 Co266 2.004 . S
O270 C275 1.259 . S
Co271 O272 2.061 . S
Co271 O277 2.052 . S
Co271 O279 2.135 . S
O272 Co271 2.061 . S
O272 C275 1.235 . S
C273 O276 1.238 . S
C273 O277 1.241 . S
C274 O267 1.247 1_556 S
C274 O268 1.261 . S
C275 O270 1.259 . S
C275 O272 1.235 . S
O276 Co266 2.021 . S
O276 C273 1.238 . S
O277 Co271 2.052 . S
O277 C273 1.241 . S
O278 Co266 2.137 . S
O278 C269 1.247 . S
O279 Co266 2.244 . S
O279 C269 1.272 . S
O279 Co271 2.135 . S
Co280 O281 2.216 . S
Co280 O282 2.091 1_554 S
Co280 O284 2.004 . S
Co280 O290 2.021 . S
Co280 O292 2.137 . S
Co280 O293 2.244 . S
O281 Co280 2.216 . S
O281 C288 1.247 1_554 S
O282 Co280 2.091 1_556 S
O282 C288 1.261 . S
C283 O292 1.247 . S
C283 O293 1.272 . S
O284 Co280 2.004 . S
O284 C289 1.259 . S
Co285 O286 2.061 . S
Co285 O291 2.052 . S
Co285 O293 2.135 . S
O286 Co285 2.061 . S
O286 C289 1.235 . S
C287 O290 1.238 . S
C287 O291 1.241 . S
C288 O281 1.247 1_556 S
C288 O282 1.261 . S
C289 O284 1.259 . S
C289 O286 1.235 . S
O290 Co280 2.021 . S
O290 C287 1.238 . S
O291 Co285 2.052 . S
O291 C287 1.241 . S
O292 Co280 2.137 . S
O292 C283 1.247 . S
O293 Co280 2.244 . S
O293 C283 1.272 . S
O293 Co285 2.135 . S
Co294 O295 2.216 . S
Co294 O296 2.091 . S
Co294 O298 2.004 . S
Co294 O304 2.021 . S
Co294 O306 2.137 . S
Co294 O307 2.244 . S
O295 Co294 2.216 . S
O295 C302 1.247 . S
O296 Co294 2.091 . S
O296 C302 1.261 . S
C297 O306 1.247 . S
C297 O307 1.272 . S
O298 Co294 2.004 . S
O298 C303 1.259 . S
Co299 O300 2.061 . S
Co299 O305 2.052 . S
Co299 O307 2.135 . S
O300 Co299 2.061 . S
O300 C303 1.235 . S
C301 O304 1.238 . S
C301 O305 1.241 . S
C302 O295 1.247 . S
C302 O296 1.261 . S
C303 O298 1.259 . S
C303 O300 1.235 . S
O304 Co294 2.021 . S
O304 C301 1.238 . S
O305 Co299 2.052 . S
O305 C301 1.241 . S
O306 Co294 2.137 . S
O306 C297 1.247 . S
O307 Co294 2.244 . S
O307 C297 1.272 . S
O307 Co299 2.135 . S
Co308 O309 2.216 . S
Co308 O310 2.091 . S
Co308 O312 2.004 . S
Co308 O318 2.021 . S
Co308 O320 2.137 . S
Co308 O321 2.244 . S
O309 Co308 2.216 . S
O309 C316 1.247 . S
O310 Co308 2.091 . S
O310 C316 1.261 . S
C311 O320 1.247 . S
C311 O321 1.272 . S
O312 Co308 2.004 . S
O312 C317 1.259 . S
Co313 O314 2.061 . S
Co313 O319 2.052 . S
Co313 O321 2.135 . S
O314 Co313 2.061 . S
O314 C317 1.235 . S
C315 O318 1.238 . S
C315 O319 1.241 . S
C316 O309 1.247 . S
C316 O310 1.261 . S
C317 O312 1.259 . S
C317 O314 1.235 . S
O318 Co308 2.021 . S
O318 C315 1.238 . S
O319 Co313 2.052 . S
O319 C315 1.241 . S
O320 Co308 2.137 . S
O320 C311 1.247 . S
O321 Co308 2.244 . S
O321 C311 1.272 . S
O321 Co313 2.135 . S
Co322 O323 2.216 . S
Co322 O324 2.091 . S
Co322 O326 2.004 . S
Co322 O332 2.021 . S
Co322 O334 2.137 . S
Co322 O335 2.244 . S
O323 Co322 2.216 . S
O323 C330 1.247 . S
O324 Co322 2.091 . S
O324 C330 1.261 . S
C325 O334 1.247 . S
C325 O335 1.272 . S
O326 Co322 2.004 . S
O326 C331 1.259 . S
Co327 O328 2.061 . S
Co327 O333 2.052 . S
Co327 O335 2.135 . S
O328 Co327 2.061 . S
O328 C331 1.235 . S
C329 O332 1.238 . S
C329 O333 1.241 . S
C330 O323 1.247 . S
C330 O324 1.261 . S
C331 O326 1.259 . S
C331 O328 1.235 . S
O332 Co322 2.021 . S
O332 C329 1.238 . S
O333 Co327 2.052 . S
O333 C329 1.241 . S
O334 Co322 2.137 . S
O334 C325 1.247 . S
O335 Co322 2.244 . S
O335 C325 1.272 . S
O335 Co327 2.135 . S
Co336 O337 2.216 . S
Co336 O338 2.091 1_556 S
Co336 O340 2.004 . S
Co336 O346 2.021 . S
Co336 O348 2.137 . S
Co336 O349 2.244 . S
O337 Co336 2.216 . S
O337 C344 1.247 1_556 S
O338 Co336 2.091 1_554 S
O338 C344 1.261 . S
C339 O348 1.247 . S
C339 O349 1.272 . S
O340 Co336 2.004 . S
O340 C345 1.259 . S
Co341 O342 2.061 . S
Co341 O347 2.052 . S
Co341 O349 2.135 . S
O342 Co341 2.061 . S
O342 C345 1.235 . S
C343 O346 1.238 . S
C343 O347 1.241 . S
C344 O337 1.247 1_554 S
C344 O338 1.261 . S
C345 O340 1.259 . S
C345 O342 1.235 . S
O346 Co336 2.021 . S
O346 C343 1.238 . S
O347 Co341 2.052 . S
O347 C343 1.241 . S
O348 Co336 2.137 . S
O348 C339 1.247 . S
O349 Co336 2.244 . S
O349 C339 1.272 . S
O349 Co341 2.135 . S
Co350 O351 2.216 . S
Co350 O352 2.091 1_556 S
Co350 O354 2.004 . S
Co350 O360 2.021 . S
Co350 O362 2.137 . S
Co350 O363 2.244 . S
O351 Co350 2.216 . S
O351 C358 1.247 1_556 S
O352 Co350 2.091 1_554 S
O352 C358 1.261 . S
C353 O362 1.247 . S
C353 O363 1.272 . S
O354 Co350 2.004 . S
O354 C359 1.259 . S
Co355 O356 2.061 . S
Co355 O361 2.052 . S
Co355 O363 2.135 . S
O356 Co355 2.061 . S
O356 C359 1.235 . S
C357 O360 1.238 . S
C357 O361 1.241 . S
C358 O351 1.247 1_554 S
C358 O352 1.261 . S
C359 O354 1.259 . S
C359 O356 1.235 . S
O360 Co350 2.021 . S
O360 C357 1.238 . S
O361 Co355 2.052 . S
O361 C357 1.241 . S
O362 Co350 2.137 . S
O362 C353 1.247 . S
O363 Co350 2.244 . S
O363 C353 1.272 . S
O363 Co355 2.135 . S
Co364 O365 2.216 . S
Co364 O366 2.091 1_556 S
Co364 O368 2.004 . S
Co364 O374 2.021 . S
Co364 O376 2.137 . S
Co364 O377 2.244 . S
O365 Co364 2.216 . S
O365 C372 1.247 1_556 S
O366 Co364 2.091 1_554 S
O366 C372 1.261 . S
C367 O376 1.247 . S
C367 O377 1.272 . S
O368 Co364 2.004 . S
O368 C373 1.259 . S
Co369 O370 2.061 . S
Co369 O375 2.052 . S
Co369 O377 2.135 . S
O370 Co369 2.061 . S
O370 C373 1.235 . S
C371 O374 1.238 . S
C371 O375 1.241 . S
C372 O365 1.247 1_554 S
C372 O366 1.261 . S
C373 O368 1.259 . S
C373 O370 1.235 . S
O374 Co364 2.021 . S
O374 C371 1.238 . S
O375 Co369 2.052 . S
O375 C371 1.241 . S
O376 Co364 2.137 . S
O376 C367 1.247 . S
O377 Co364 2.244 . S
O377 C367 1.272 . S
O377 Co369 2.135 . S
Co378 O379 2.216 . S
Co378 O380 2.091 . S
Co378 O382 2.004 . S
Co378 O388 2.021 . S
Co378 O390 2.137 . S
Co378 O391 2.244 . S
O379 Co378 2.216 . S
O379 C386 1.247 . S
O380 Co378 2.091 . S
O380 C386 1.261 . S
C381 O390 1.247 . S
C381 O391 1.272 . S
O382 Co378 2.004 . S
O382 C387 1.259 . S
Co383 O384 2.061 . S
Co383 O389 2.052 . S
Co383 O391 2.135 . S
O384 Co383 2.061 . S
O384 C387 1.235 . S
C385 O388 1.238 . S
C385 O389 1.241 . S
C386 O379 1.247 . S
C386 O380 1.261 . S
C387 O382 1.259 . S
C387 O384 1.235 . S
O388 Co378 2.021 . S
O388 C385 1.238 . S
O389 Co383 2.052 . S
O389 C385 1.241 . S
O390 Co378 2.137 . S
O390 C381 1.247 . S
O391 Co378 2.244 . S
O391 C381 1.272 . S
O391 Co383 2.135 . S
Co392 O393 2.216 . S
Co392 O394 2.091 . S
Co392 O396 2.004 . S
Co392 O402 2.021 . S
Co392 O404 2.137 . S
Co392 O405 2.244 . S
O393 Co392 2.216 . S
O393 C400 1.247 . S
O394 Co392 2.091 . S
O394 C400 1.261 . S
C395 O404 1.247 . S
C395 O405 1.272 . S
O396 Co392 2.004 . S
O396 C401 1.259 . S
Co397 O398 2.061 . S
Co397 O403 2.052 . S
Co397 O405 2.135 . S
O398 Co397 2.061 . S
O398 C401 1.235 . S
C399 O402 1.238 . S
C399 O403 1.241 . S
C400 O393 1.247 . S
C400 O394 1.261 . S
C401 O396 1.259 . S
C401 O398 1.235 . S
O402 Co392 2.021 . S
O402 C399 1.238 . S
O403 Co397 2.052 . S
O403 C399 1.241 . S
O404 Co392 2.137 . S
O404 C395 1.247 . S
O405 Co392 2.244 . S
O405 C395 1.272 . S
O405 Co397 2.135 . S
Co406 O407 2.216 . S
Co406 O408 2.091 . S
Co406 O410 2.004 . S
Co406 O416 2.021 . S
Co406 O418 2.137 . S
Co406 O419 2.244 . S
O407 Co406 2.216 . S
O407 C414 1.247 . S
O408 Co406 2.091 . S
O408 C414 1.261 . S
C409 O418 1.247 . S
C409 O419 1.272 . S
O410 Co406 2.004 . S
O410 C415 1.259 . S
Co411 O412 2.061 . S
Co411 O417 2.052 . S
Co411 O419 2.135 . S
O412 Co411 2.061 . S
O412 C415 1.235 . S
C413 O416 1.238 . S
C413 O417 1.241 . S
C414 O407 1.247 . S
C414 O408 1.261 . S
C415 O410 1.259 . S
C415 O412 1.235 . S
O416 Co406 2.021 . S
O416 C413 1.238 . S
O417 Co411 2.052 . S
O417 C413 1.241 . S
O418 Co406 2.137 . S
O418 C409 1.247 . S
O419 Co406 2.244 . S
O419 C409 1.272 . S
O419 Co411 2.135 . S
Co420 O421 2.216 . S
Co420 O422 2.091 . S
Co420 O424 2.004 . S
Co420 O430 2.021 . S
Co420 O432 2.137 . S
Co420 O433 2.244 . S
O421 Co420 2.216 . S
O421 C428 1.247 . S
O422 Co420 2.091 . S
O422 C428 1.261 . S
C423 O432 1.247 . S
C423 O433 1.272 . S
O424 Co420 2.004 . S
O424 C429 1.259 . S
Co425 O426 2.061 . S
Co425 O431 2.052 . S
Co425 O433 2.135 . S
O426 Co425 2.061 . S
O426 C429 1.235 . S
C427 O430 1.238 . S
C427 O431 1.241 . S
C428 O421 1.247 . S
C428 O422 1.261 . S
C429 O424 1.259 . S
C429 O426 1.235 . S
O430 Co420 2.021 . S
O430 C427 1.238 . S
O431 Co425 2.052 . S
O431 C427 1.241 . S
O432 Co420 2.137 . S
O432 C423 1.247 . S
O433 Co420 2.244 . S
O433 C423 1.272 . S
O433 Co425 2.135 . S
Co434 O435 2.216 . S
Co434 O436 2.091 . S
Co434 O438 2.004 . S
Co434 O444 2.021 . S
Co434 O446 2.137 . S
Co434 O447 2.244 . S
O435 Co434 2.216 . S
O435 C442 1.247 . S
O436 Co434 2.091 . S
O436 C442 1.261 . S
C437 O446 1.247 . S
C437 O447 1.272 . S
O438 Co434 2.004 . S
O438 C443 1.259 . S
Co439 O440 2.061 . S
Co439 O445 2.052 . S
Co439 O447 2.135 . S
O440 Co439 2.061 . S
O440 C443 1.235 . S
C441 O444 1.238 . S
C441 O445 1.241 . S
C442 O435 1.247 . S
C442 O436 1.261 . S
C443 O438 1.259 . S
C443 O440 1.235 . S
O444 Co434 2.021 . S
O444 C441 1.238 . S
O445 Co439 2.052 . S
O445 C441 1.241 . S
O446 Co434 2.137 . S
O446 C437 1.247 . S
O447 Co434 2.244 . S
O447 C437 1.272 . S
O447 Co439 2.135 . S
Co448 O449 2.216 . S
Co448 O450 2.091 . S
Co448 O452 2.004 . S
Co448 O458 2.021 . S
Co448 O460 2.137 . S
Co448 O461 2.244 . S
O449 Co448 2.216 . S
O449 C456 1.247 . S
O450 Co448 2.091 . S
O450 C456 1.261 . S
C451 O460 1.247 . S
C451 O461 1.272 . S
O452 Co448 2.004 . S
O452 C457 1.259 . S
Co453 O454 2.061 . S
Co453 O459 2.052 . S
Co453 O461 2.135 . S
O454 Co453 2.061 . S
O454 C457 1.235 . S
C455 O458 1.238 . S
C455 O459 1.241 . S
C456 O449 1.247 . S
C456 O450 1.261 . S
C457 O452 1.259 . S
C457 O454 1.235 . S
O458 Co448 2.021 . S
O458 C455 1.238 . S
O459 Co453 2.052 . S
O459 C455 1.241 . S
O460 Co448 2.137 . S
O460 C451 1.247 . S
O461 Co448 2.244 . S
O461 C451 1.272 . S
O461 Co453 2.135 . S
Co462 O463 2.216 . S
Co462 O464 2.091 1_556 S
Co462 O466 2.004 . S
Co462 O472 2.021 . S
Co462 O474 2.137 . S
Co462 O475 2.244 . S
O463 Co462 2.216 . S
O463 C470 1.247 1_556 S
O464 Co462 2.091 1_554 S
O464 C470 1.261 . S
C465 O474 1.247 . S
C465 O475 1.272 . S
O466 Co462 2.004 . S
O466 C471 1.259 . S
Co467 O468 2.061 . S
Co467 O473 2.052 . S
Co467 O475 2.135 . S
O468 Co467 2.061 . S
O468 C471 1.235 . S
C469 O472 1.238 . S
C469 O473 1.241 . S
C470 O463 1.247 1_554 S
C470 O464 1.261 . S
C471 O466 1.259 . S
C471 O468 1.235 . S
O472 Co462 2.021 . S
O472 C469 1.238 . S
O473 Co467 2.052 . S
O473 C469 1.241 . S
O474 Co462 2.137 . S
O474 C465 1.247 . S
O475 Co462 2.244 . S
O475 C465 1.272 . S
O475 Co467 2.135 . S
Co476 O477 2.216 . S
Co476 O478 2.091 1_556 S
Co476 O480 2.004 . S
Co476 O486 2.021 . S
Co476 O488 2.137 . S
Co476 O489 2.244 . S
O477 Co476 2.216 . S
O477 C484 1.247 1_556 S
O478 Co476 2.091 1_554 S
O478 C484 1.261 . S
C479 O488 1.247 . S
C479 O489 1.272 . S
O480 Co476 2.004 . S
O480 C485 1.259 . S
Co481 O482 2.061 . S
Co481 O487 2.052 . S
Co481 O489 2.135 . S
O482 Co481 2.061 . S
O482 C485 1.235 . S
C483 O486 1.238 . S
C483 O487 1.241 . S
C484 O477 1.247 1_554 S
C484 O478 1.261 . S
C485 O480 1.259 . S
C485 O482 1.235 . S
O486 Co476 2.021 . S
O486 C483 1.238 . S
O487 Co481 2.052 . S
O487 C483 1.241 . S
O488 Co476 2.137 . S
O488 C479 1.247 . S
O489 Co476 2.244 . S
O489 C479 1.272 . S
O489 Co481 2.135 . S
Co490 O491 2.216 . S
Co490 O492 2.091 1_556 S
Co490 O494 2.004 . S
Co490 O500 2.021 . S
Co490 O502 2.137 . S
Co490 O503 2.244 . S
O491 Co490 2.216 . S
O491 C498 1.247 1_556 S
O492 Co490 2.091 1_554 S
O492 C498 1.261 . S
C493 O502 1.247 . S
C493 O503 1.272 . S
O494 Co490 2.004 . S
O494 C499 1.259 . S
Co495 O496 2.061 . S
Co495 O501 2.052 . S
Co495 O503 2.135 . S
O496 Co495 2.061 . S
O496 C499 1.235 . S
C497 O500 1.238 . S
C497 O501 1.241 . S
C498 O491 1.247 1_554 S
C498 O492 1.261 . S
C499 O494 1.259 . S
C499 O496 1.235 . S
O500 Co490 2.021 . S
O500 C497 1.238 . S
O501 Co495 2.052 . S
O501 C497 1.241 . S
O502 Co490 2.137 . S
O502 C493 1.247 . S
O503 Co490 2.244 . S
O503 C493 1.272 . S
O503 Co495 2.135 . S
H504 C510 0.930 . S
H505 C514 0.930 . S
H506 C519 0.929 . S
H507 C517 0.929 . S
H508 C512 0.949 . S
H509 C518 0.949 . S
C510 H504 0.930 . S
C510 C511 1.367 . S
C510 C518 1.363 1_565 S
C511 C510 1.367 . S
C511 C519 1.433 . S
C512 H508 0.949 . S
C512 C514 1.363 1_565 S
C512 C516 1.344 1_565 S
C513 C516 1.463 1_565 S
C513 C518 1.344 1_565 S
C513 N521 1.427 . S
C514 H505 0.930 . S
C514 C512 1.363 1_545 S
C514 C515 1.367 . S
C515 C514 1.367 . S
C515 C517 1.433 . S
C516 C512 1.344 1_545 S
C516 C513 1.463 1_545 S
C516 N520 1.427 . S
C517 H507 0.929 . S
C517 C515 1.433 . S
C517 N520 1.384 . S
C518 H509 0.949 . S
C518 C510 1.363 1_545 S
C518 C513 1.344 1_545 S
C519 H506 0.929 . S
C519 C511 1.433 . S
C519 N521 1.384 . S
N520 C516 1.427 . S
N520 C517 1.384 . S
N521 C513 1.427 . S
N521 C519 1.384 . S
H522 C528 0.930 . S
H523 C532 0.930 . S
H524 C537 0.929 . S
H525 C535 0.929 . S
H526 C530 0.929 . S
H527 C536 0.929 . S
C528 H522 0.930 . S
C528 C529 1.367 . S
C528 C536 1.378 . S
C529 C528 1.367 . S
C529 C537 1.433 . S
C530 H526 0.929 . S
C530 C532 1.378 . S
C530 C534 1.350 . S
C531 C534 1.463 1_455 S
C531 C536 1.350 . S
C531 N539 1.427 . S
C532 H523 0.930 . S
C532 C530 1.378 . S
C532 C533 1.367 . S
C533 C532 1.367 . S
C533 C535 1.433 . S
C534 C530 1.350 . S
C534 C531 1.463 1_655 S
C534 N538 1.427 . S
C535 H525 0.929 . S
C535 C533 1.433 . S
C535 N538 1.384 . S
C536 H527 0.929 . S
C536 C528 1.378 . S
C536 C531 1.350 . S
C537 H524 0.929 . S
C537 C529 1.433 . S
C537 N539 1.384 . S
N538 C534 1.427 . S
N538 C535 1.384 . S
N539 C531 1.427 . S
N539 C537 1.384 . S
H540 C546 0.930 . S
H541 C550 0.930 . S
H542 C555 0.929 . S
H543 C553 0.929 . S
H544 C548 0.929 . S
H545 C554 0.929 . S
C546 H540 0.930 . S
C546 C547 1.367 . S
C546 C554 1.378 . S
C547 C546 1.367 . S
C547 C555 1.433 . S
C548 H544 0.929 . S
C548 C550 1.378 . S
C548 C552 1.350 . S
C549 C552 1.463 . S
C549 C554 1.350 . S
C549 N557 1.427 . S
C550 H541 0.930 . S
C550 C548 1.378 . S
C550 C551 1.367 . S
C551 C550 1.367 . S
C551 C553 1.433 . S
C552 C548 1.350 . S
C552 C549 1.463 . S
C552 N556 1.427 . S
C553 H543 0.929 . S
C553 C551 1.433 . S
C553 N556 1.384 . S
C554 H545 0.929 . S
C554 C546 1.378 . S
C554 C549 1.350 . S
C555 H542 0.929 . S
C555 C547 1.433 . S
C555 N557 1.384 . S
N556 C552 1.427 . S
N556 C553 1.384 . S
N557 C549 1.427 . S
N557 C555 1.384 . S
H558 C564 0.930 . S
H559 C568 0.930 . S
H560 C573 0.929 . S
H561 C571 0.929 . S
H562 C566 0.869 1_565 S
H563 C572 0.869 1_545 S
C564 H558 0.930 . S
C564 C565 1.367 . S
C564 C572 1.412 . S
C565 C564 1.367 . S
C565 C573 1.433 . S
C566 H562 0.869 1_545 S
C566 C568 1.412 . S
C566 C570 1.377 . S
C567 C570 1.463 1_565 S
C567 C572 1.378 . S
C567 N575 1.427 . S
C568 H559 0.930 . S
C568 C566 1.412 . S
C568 C569 1.367 . S
C569 C568 1.367 . S
C569 C571 1.433 . S
C570 C566 1.377 . S
C570 C567 1.463 1_545 S
C570 N574 1.427 . S
C571 H561 0.929 . S
C571 C569 1.433 . S
C571 N574 1.384 . S
C572 H563 0.869 1_565 S
C572 C564 1.412 . S
C572 C567 1.378 . S
C573 H560 0.929 . S
C573 C565 1.433 . S
C573 N575 1.384 . S
N574 C570 1.427 . S
N574 C571 1.384 . S
N575 C567 1.427 . S
N575 C573 1.384 . S
H576 C582 0.930 . S
H577 C586 0.930 . S
H578 C591 0.929 . S
H579 C589 0.929 . S
H580 C584 0.929 1_455 S
H581 C590 0.929 1_655 S
C582 H576 0.930 . S
C582 C583 1.367 . S
C582 C590 1.378 . S
C583 C582 1.367 . S
C583 C591 1.433 . S
C584 H580 0.929 1_655 S
C584 C586 1.378 . S
C584 C588 1.350 . S
C585 C588 1.463 1_455 S
C585 C590 1.350 . S
C585 N593 1.427 . S
C586 H577 0.930 . S
C586 C584 1.378 . S
C586 C587 1.367 . S
C587 C586 1.367 . S
C587 C589 1.433 . S
C588 C584 1.350 . S
C588 C585 1.463 1_655 S
C588 N592 1.427 . S
C589 H579 0.929 . S
C589 C587 1.433 . S
C589 N592 1.384 . S
C590 H581 0.929 1_455 S
C590 C582 1.378 . S
C590 C585 1.350 . S
C591 H578 0.929 . S
C591 C583 1.433 . S
C591 N593 1.384 . S
N592 C588 1.427 . S
N592 C589 1.384 . S
N593 C585 1.427 . S
N593 C591 1.384 . S
H594 C600 0.930 . S
H595 C604 0.930 . S
H596 C609 0.929 . S
H597 C607 0.929 . S
H598 C602 0.929 . S
H599 C608 0.929 . S
C600 H594 0.930 . S
C600 C601 1.367 . S
C600 C608 1.378 . S
C601 C600 1.367 . S
C601 C609 1.433 . S
C602 H598 0.929 . S
C602 C604 1.378 . S
C602 C606 1.350 . S
C603 C606 1.463 . S
C603 C608 1.350 . S
C603 N611 1.427 . S
C604 H595 0.930 . S
C604 C602 1.378 . S
C604 C605 1.367 . S
C605 C604 1.367 . S
C605 C607 1.433 . S
C606 C602 1.350 . S
C606 C603 1.463 . S
C606 N610 1.427 . S
C607 H597 0.929 . S
C607 C605 1.433 . S
C607 N610 1.384 . S
C608 H599 0.929 . S
C608 C600 1.378 . S
C608 C603 1.350 . S
C609 H596 0.929 . S
C609 C601 1.433 . S
C609 N611 1.384 . S
N610 C606 1.427 . S
N610 C607 1.384 . S
N611 C603 1.427 . S
N611 C609 1.384 . S
H612 C618 0.930 . S
H613 C622 0.930 . S
H614 C627 0.929 . S
H615 C625 0.929 . S
H616 C620 0.929 . S
H617 C626 0.929 . S
C618 H612 0.930 . S
C618 C619 1.367 . S
C618 C626 1.378 . S
C619 C618 1.367 . S
C619 C627 1.433 . S
C620 H616 0.929 . S
C620 C622 1.378 . S
C620 C624 1.350 . S
C621 C624 1.463 . S
C621 C626 1.350 . S
C621 N629 1.427 . S
C622 H613 0.930 . S
C622 C620 1.378 . S
C622 C623 1.367 . S
C623 C622 1.367 . S
C623 C625 1.433 . S
C624 C620 1.350 . S
C624 C621 1.463 . S
C624 N628 1.427 . S
C625 H615 0.929 . S
C625 C623 1.433 . S
C625 N628 1.384 . S
C626 H617 0.929 . S
C626 C618 1.378 . S
C626 C621 1.350 . S
C627 H614 0.929 . S
C627 C619 1.433 . S
C627 N629 1.384 . S
N628 C624 1.427 . S
N628 C625 1.384 . S
N629 C621 1.427 . S
N629 C627 1.384 . S
H630 C636 0.930 . S
H631 C640 0.930 . S
H632 C645 0.929 . S
H633 C643 0.929 . S
H634 C638 0.929 . S
H635 C644 0.929 . S
C636 H630 0.930 . S
C636 C637 1.367 . S
C636 C644 1.378 . S
C637 C636 1.367 . S
C637 C645 1.433 . S
C638 H634 0.929 . S
C638 C640 1.378 . S
C638 C642 1.350 . S
C639 C642 1.463 . S
C639 C644 1.350 . S
C639 N647 1.427 . S
C640 H631 0.930 . S
C640 C638 1.378 . S
C640 C641 1.367 . S
C641 C640 1.367 . S
C641 C643 1.433 . S
C642 C638 1.350 . S
C642 C639 1.463 . S
C642 N646 1.427 . S
C643 H633 0.929 . S
C643 C641 1.433 . S
C643 N646 1.384 . S
C644 H635 0.929 . S
C644 C636 1.378 . S
C644 C639 1.350 . S
C645 H632 0.929 . S
C645 C637 1.433 . S
C645 N647 1.384 . S
N646 C642 1.427 . S
N646 C643 1.384 . S
N647 C639 1.427 . S
N647 C645 1.384 . S
H648 C654 0.930 . S
H649 C658 0.930 . S
H650 C663 0.929 . S
H651 C661 0.929 . S
H652 C656 0.929 . S
H653 C662 0.929 . S
C654 H648 0.930 . S
C654 C655 1.367 . S
C654 C662 1.378 . S
C655 C654 1.367 . S
C655 C663 1.433 . S
C656 H652 0.929 . S
C656 C658 1.378 . S
C656 C660 1.350 . S
C657 C660 1.463 . S
C657 C662 1.350 . S
C657 N665 1.427 . S
C658 H649 0.930 . S
C658 C656 1.378 . S
C658 C659 1.367 . S
C659 C658 1.367 . S
C659 C661 1.433 . S
C660 C656 1.350 . S
C660 C657 1.463 . S
C660 N664 1.427 . S
C661 H651 0.929 . S
C661 C659 1.433 . S
C661 N664 1.384 . S
C662 H653 0.929 . S
C662 C654 1.378 . S
C662 C657 1.350 . S
C663 H650 0.929 . S
C663 C655 1.433 . S
C663 N665 1.384 . S
N664 C660 1.427 . S
N664 C661 1.384 . S
N665 C657 1.427 . S
N665 C663 1.384 . S
H666 C672 0.930 . S
H667 C676 0.930 . S
H668 C681 0.929 . S
H669 C679 0.929 . S
H670 C674 0.929 . S
H671 C680 0.929 . S
C672 H666 0.930 . S
C672 C673 1.367 . S
C672 C680 1.378 . S
C673 C672 1.367 . S
C673 C681 1.433 . S
C674 H670 0.929 . S
C674 C676 1.378 . S
C674 C678 1.350 . S
C675 C678 1.463 . S
C675 C680 1.350 . S
C675 N683 1.427 . S
C676 H667 0.930 . S
C676 C674 1.378 . S
C676 C677 1.367 . S
C677 C676 1.367 . S
C677 C679 1.433 . S
C678 C674 1.350 . S
C678 C675 1.463 . S
C678 N682 1.427 . S
C679 H669 0.929 . S
C679 C677 1.433 . S
C679 N682 1.384 . S
C680 H671 0.929 . S
C680 C672 1.378 . S
C680 C675 1.350 . S
C681 H668 0.929 . S
C681 C673 1.433 . S
C681 N683 1.384 . S
N682 C678 1.427 . S
N682 C679 1.384 . S
N683 C675 1.427 . S
N683 C681 1.384 . S
H684 C690 0.930 . S
H685 C694 0.930 . S
H686 C699 0.929 . S
H687 C697 0.929 . S
H688 C692 0.929 . S
H689 C698 0.929 . S
C690 H684 0.930 . S
C690 C691 1.367 . S
C690 C698 1.378 . S
C691 C690 1.367 . S
C691 C699 1.433 . S
C692 H688 0.929 . S
C692 C694 1.378 . S
C692 C696 1.350 . S
C693 C696 1.463 . S
C693 C698 1.350 . S
C693 N701 1.427 . S
C694 H685 0.930 . S
C694 C692 1.378 . S
C694 C695 1.367 . S
C695 C694 1.367 . S
C695 C697 1.433 . S
C696 C692 1.350 . S
C696 C693 1.463 . S
C696 N700 1.427 . S
C697 H687 0.929 . S
C697 C695 1.433 . S
C697 N700 1.384 . S
C698 H689 0.929 . S
C698 C690 1.378 . S
C698 C693 1.350 . S
C699 H686 0.929 . S
C699 C691 1.433 . S
C699 N701 1.384 . S
N700 C696 1.427 . S
N700 C697 1.384 . S
N701 C693 1.427 . S
N701 C699 1.384 . S
H702 C708 0.930 . S
H703 C712 0.930 . S
H704 C717 0.929 . S
H705 C715 0.929 . S
H706 C710 0.929 . S
H707 C716 0.929 . S
C708 H702 0.930 . S
C708 C709 1.367 . S
C708 C716 1.378 . S
C709 C708 1.367 . S
C709 C717 1.433 . S
C710 H706 0.929 . S
C710 C712 1.378 . S
C710 C714 1.350 . S
C711 C714 1.463 . S
C711 C716 1.350 . S
C711 N719 1.427 . S
C712 H703 0.930 . S
C712 C710 1.378 . S
C712 C713 1.367 . S
C713 C712 1.367 . S
C713 C715 1.433 . S
C714 C710 1.350 . S
C714 C711 1.463 . S
C714 N718 1.427 . S
C715 H705 0.929 . S
C715 C713 1.433 . S
C715 N718 1.384 . S
C716 H707 0.929 . S
C716 C708 1.378 . S
C716 C711 1.350 . S
C717 H704 0.929 . S
C717 C709 1.433 . S
C717 N719 1.384 . S
N718 C714 1.427 . S
N718 C715 1.384 . S
N719 C711 1.427 . S
N719 C717 1.384 . S
H720 C726 0.930 . S
H721 C730 0.930 . S
H722 C735 0.929 . S
H723 C733 0.929 . S
H724 C728 0.929 . S
H725 C734 0.929 . S
C726 H720 0.930 . S
C726 C727 1.367 . S
C726 C734 1.378 . S
C727 C726 1.367 . S
C727 C735 1.433 . S
C728 H724 0.929 . S
C728 C730 1.378 . S
C728 C732 1.350 . S
C729 C732 1.463 . S
C729 C734 1.350 . S
C729 N737 1.427 . S
C730 H721 0.930 . S
C730 C728 1.378 . S
C730 C731 1.367 . S
C731 C730 1.367 . S
C731 C733 1.433 . S
C732 C728 1.350 . S
C732 C729 1.463 . S
C732 N736 1.427 . S
C733 H723 0.929 . S
C733 C731 1.433 . S
C733 N736 1.384 . S
C734 H725 0.929 . S
C734 C726 1.378 . S
C734 C729 1.350 . S
C735 H722 0.929 . S
C735 C727 1.433 . S
C735 N737 1.384 . S
N736 C732 1.427 . S
N736 C733 1.384 . S
N737 C729 1.427 . S
N737 C735 1.384 . S
H738 C744 0.930 . S
H739 C748 0.930 . S
H740 C753 0.929 . S
H741 C751 0.929 . S
H742 C746 0.929 . S
H743 C752 0.929 . S
C744 H738 0.930 . S
C744 C745 1.367 . S
C744 C752 1.378 . S
C745 C744 1.367 . S
C745 C753 1.433 . S
C746 H742 0.929 . S
C746 C748 1.378 . S
C746 C750 1.350 . S
C747 C750 1.463 . S
C747 C752 1.350 . S
C747 N755 1.427 . S
C748 H739 0.930 . S
C748 C746 1.378 . S
C748 C749 1.367 . S
C749 C748 1.367 . S
C749 C751 1.433 . S
C750 C746 1.350 . S
C750 C747 1.463 . S
C750 N754 1.427 . S
C751 H741 0.929 . S
C751 C749 1.433 . S
C751 N754 1.384 . S
C752 H743 0.929 . S
C752 C744 1.378 . S
C752 C747 1.350 . S
C753 H740 0.929 . S
C753 C745 1.433 . S
C753 N755 1.384 . S
N754 C750 1.427 . S
N754 C751 1.384 . S
N755 C747 1.427 . S
N755 C753 1.384 . S
H756 C762 0.930 . S
H757 C766 0.930 . S
H758 C771 0.929 . S
H759 C769 0.929 . S
H760 C764 0.929 . S
H761 C770 0.929 . S
C762 H756 0.930 . S
C762 C763 1.367 . S
C762 C770 1.378 . S
C763 C762 1.367 . S
C763 C771 1.433 . S
C764 H760 0.929 . S
C764 C766 1.378 . S
C764 C768 1.350 . S
C765 C768 1.463 . S
C765 C770 1.350 . S
C765 N773 1.427 . S
C766 H757 0.930 . S
C766 C764 1.378 . S
C766 C767 1.367 . S
C767 C766 1.367 . S
C767 C769 1.433 . S
C768 C764 1.350 . S
C768 C765 1.463 . S
C768 N772 1.427 . S
C769 H759 0.929 . S
C769 C767 1.433 . S
C769 N772 1.384 . S
C770 H761 0.929 . S
C770 C762 1.378 . S
C770 C765 1.350 . S
C771 H758 0.929 . S
C771 C763 1.433 . S
C771 N773 1.384 . S
N772 C768 1.427 . S
N772 C769 1.384 . S
N773 C765 1.427 . S
N773 C771 1.384 . S
H774 C780 0.930 . S
H775 C784 0.930 . S
H776 C789 0.929 . S
H777 C787 0.929 . S
H778 C782 0.929 . S
H779 C788 0.929 . S
C780 H774 0.930 . S
C780 C781 1.367 . S
C780 C788 1.378 . S
C781 C780 1.367 . S
C781 C789 1.433 . S
C782 H778 0.929 . S
C782 C784 1.378 . S
C782 C786 1.350 . S
C783 C786 1.463 . S
C783 C788 1.350 . S
C783 N791 1.427 . S
C784 H775 0.930 . S
C784 C782 1.378 . S
C784 C785 1.367 . S
C785 C784 1.367 . S
C785 C787 1.433 . S
C786 C782 1.350 . S
C786 C783 1.463 . S
C786 N790 1.427 . S
C787 H777 0.929 . S
C787 C785 1.433 . S
C787 N790 1.384 . S
C788 H779 0.929 . S
C788 C780 1.378 . S
C788 C783 1.350 . S
C789 H776 0.929 . S
C789 C781 1.433 . S
C789 N791 1.384 . S
N790 C786 1.427 . S
N790 C787 1.384 . S
N791 C783 1.427 . S
N791 C789 1.384 . S
H792 C798 0.930 . S
H793 C802 0.930 . S
H794 C807 0.929 . S
H795 C805 0.929 . S
H796 C800 0.929 . S
H797 C806 0.929 . S
C798 H792 0.930 . S
C798 C799 1.367 . S
C798 C806 1.378 . S
C799 C798 1.367 . S
C799 C807 1.433 . S
C800 H796 0.929 . S
C800 C802 1.378 . S
C800 C804 1.350 . S
C801 C804 1.463 . S
C801 C806 1.350 . S
C801 N809 1.427 . S
C802 H793 0.930 . S
C802 C800 1.378 . S
C802 C803 1.367 . S
C803 C802 1.367 . S
C803 C805 1.433 . S
C804 C800 1.350 . S
C804 C801 1.463 . S
C804 N808 1.427 . S
C805 H795 0.929 . S
C805 C803 1.433 . S
C805 N808 1.384 . S
C806 H797 0.929 . S
C806 C798 1.378 . S
C806 C801 1.350 . S
C807 H794 0.929 . S
C807 C799 1.433 . S
C807 N809 1.384 . S
N808 C804 1.427 . S
N808 C805 1.384 . S
N809 C801 1.427 . S
N809 C807 1.384 . S
H810 C816 0.930 . S
H811 C820 0.930 . S
H812 C825 0.929 . S
H813 C823 0.929 . S
H814 C818 0.929 . S
H815 C824 0.929 . S
C816 H810 0.930 . S
C816 C817 1.367 . S
C816 C824 1.378 . S
C817 C816 1.367 . S
C817 C825 1.433 . S
C818 H814 0.929 . S
C818 C820 1.378 . S
C818 C822 1.350 . S
C819 C822 1.463 . S
C819 C824 1.350 . S
C819 N827 1.427 . S
C820 H811 0.930 . S
C820 C818 1.378 . S
C820 C821 1.367 . S
C821 C820 1.367 . S
C821 C823 1.433 . S
C822 C818 1.350 . S
C822 C819 1.463 . S
C822 N826 1.427 . S
C823 H813 0.929 . S
C823 C821 1.433 . S
C823 N826 1.384 . S
C824 H815 0.929 . S
C824 C816 1.378 . S
C824 C819 1.350 . S
C825 H812 0.929 . S
C825 C817 1.433 . S
C825 N827 1.384 . S
N826 C822 1.427 . S
N826 C823 1.384 . S
N827 C819 1.427 . S
N827 C825 1.384 . S
H828 C834 0.930 . S
H829 C838 0.930 . S
H830 C843 0.929 . S
H831 C841 0.929 . S
H832 C836 0.929 1_556 S
H833 C842 0.929 1_554 S
C834 H828 0.930 . S
C834 C835 1.367 . S
C834 C842 1.378 . S
C835 C834 1.367 . S
C835 C843 1.433 . S
C836 H832 0.929 1_554 S
C836 C838 1.378 . S
C836 C840 1.350 . S
C837 C840 1.463 1_566 S
C837 C842 1.350 . S
C837 N845 1.427 1_565 S
C838 H829 0.930 . S
C838 C836 1.378 . S
C838 C839 1.367 . S
C839 C838 1.367 . S
C839 C841 1.433 . S
C840 C836 1.350 . S
C840 C837 1.463 1_544 S
C840 N844 1.427 1_545 S
C841 H831 0.929 . S
C841 C839 1.433 . S
C841 N844 1.384 1_545 S
C842 H833 0.929 1_556 S
C842 C834 1.378 . S
C842 C837 1.350 . S
C843 H830 0.929 . S
C843 C835 1.433 . S
C843 N845 1.384 1_565 S
N844 C840 1.427 1_565 S
N844 C841 1.384 1_565 S
N845 C837 1.427 1_545 S
N845 C843 1.384 1_545 S
H846 C852 0.930 . S
H847 C856 0.930 . S
H848 C861 0.929 . S
H849 C859 0.929 . S
H850 C854 0.929 1_554 S
H851 C860 0.929 1_556 S
C852 H846 0.930 . S
C852 C853 1.367 . S
C852 C860 1.378 . S
C853 C852 1.367 . S
C853 C861 1.433 . S
C854 H850 0.929 1_556 S
C854 C856 1.378 . S
C854 C858 1.350 . S
C855 C858 1.463 1_654 S
C855 C860 1.350 . S
C855 N863 1.427 1_655 S
C856 H847 0.930 . S
C856 C854 1.378 . S
C856 C857 1.367 . S
C857 C856 1.367 . S
C857 C859 1.433 . S
C858 C854 1.350 . S
C858 C855 1.463 1_456 S
C858 N862 1.427 1_455 S
C859 H849 0.929 . S
C859 C857 1.433 . S
C859 N862 1.384 1_455 S
C860 H851 0.929 1_554 S
C860 C852 1.378 . S
C860 C855 1.350 . S
C861 H848 0.929 . S
C861 C853 1.433 . S
C861 N863 1.384 1_655 S
N862 C858 1.427 1_655 S
N862 C859 1.384 1_655 S
N863 C855 1.427 1_455 S
N863 C861 1.384 1_455 S
H864 C870 0.930 . S
H865 C874 0.930 . S
H866 C879 0.929 . S
H867 C877 0.929 . S
H868 C872 0.929 1_556 S
H869 C878 0.929 1_554 S
C870 H864 0.930 . S
C870 C871 1.367 . S
C870 C878 1.378 . S
C871 C870 1.367 . S
C871 C879 1.433 . S
C872 H868 0.929 1_554 S
C872 C874 1.378 . S
C872 C876 1.350 . S
C873 C876 1.463 1_556 S
C873 C878 1.350 . S
C873 N881 1.427 . S
C874 H865 0.930 . S
C874 C872 1.378 . S
C874 C875 1.367 . S
C875 C874 1.367 . S
C875 C877 1.433 . S
C876 C872 1.350 . S
C876 C873 1.463 1_554 S
C876 N880 1.427 . S
C877 H867 0.929 . S
C877 C875 1.433 . S
C877 N880 1.384 . S
C878 H869 0.929 1_556 S
C878 C870 1.378 . S
C878 C873 1.350 . S
C879 H866 0.929 . S
C879 C871 1.433 . S
C879 N881 1.384 . S
N880 C876 1.427 . S
N880 C877 1.384 . S
N881 C873 1.427 . S
N881 C879 1.384 . S
H882 C888 0.930 . S
H883 C892 0.930 . S
H884 C897 0.929 . S
H885 C895 0.929 . S
H886 C890 0.929 . S
H887 C896 0.929 . S
C888 H882 0.930 . S
C888 C889 1.367 . S
C888 C896 1.378 . S
C889 C888 1.367 . S
C889 C897 1.433 . S
C890 H886 0.929 . S
C890 C892 1.378 . S
C890 C894 1.350 . S
C891 C894 1.463 1_566 S
C891 C896 1.350 . S
C891 N899 1.427 . S
C892 H883 0.930 . S
C892 C890 1.378 . S
C892 C893 1.367 . S
C893 C892 1.367 . S
C893 C895 1.433 . S
C894 C890 1.350 . S
C894 C891 1.463 1_544 S
C894 N898 1.427 . S
C895 H885 0.929 . S
C895 C893 1.433 . S
C895 N898 1.384 . S
C896 H887 0.929 . S
C896 C888 1.378 . S
C896 C891 1.350 . S
C897 H884 0.929 . S
C897 C889 1.433 . S
C897 N899 1.384 . S
N898 C894 1.427 . S
N898 C895 1.384 . S
N899 C891 1.427 . S
N899 C897 1.384 . S
H900 C906 0.930 . S
H901 C910 0.930 . S
H902 C915 0.929 . S
H903 C913 0.929 . S
H904 C908 0.927 1_556 S
H905 C914 0.925 1_554 S
C906 H900 0.930 . S
C906 C907 1.367 . S
C906 C914 1.378 . S
C907 C906 1.367 . S
C907 C915 1.433 . S
C908 H904 0.927 1_554 S
C908 C910 1.378 . S
C908 C912 1.350 . S
C909 C912 1.463 1_456 S
C909 C914 1.350 . S
C909 N917 1.427 . S
C910 H901 0.930 . S
C910 C908 1.378 . S
C910 C911 1.367 . S
C911 C910 1.367 . S
C911 C913 1.433 . S
C912 C908 1.350 . S
C912 C909 1.463 1_654 S
C912 N916 1.427 . S
C913 H903 0.929 . S
C913 C911 1.433 . S
C913 N916 1.384 . S
C914 H905 0.925 1_556 S
C914 C906 1.378 . S
C914 C909 1.350 . S
C915 H902 0.929 . S
C915 C907 1.433 . S
C915 N917 1.384 . S
N916 C912 1.427 . S
N916 C913 1.384 . S
N917 C909 1.427 . S
N917 C915 1.384 . S
H918 C924 0.930 . S
H919 C928 0.930 . S
H920 C933 0.929 . S
H921 C931 0.929 . S
H922 C926 0.929 1_554 S
H923 C932 0.929 1_556 S
C924 H918 0.930 . S
C924 C925 1.367 . S
C924 C932 1.378 . S
C925 C924 1.367 . S
C925 C933 1.433 . S
C926 H922 0.929 1_556 S
C926 C928 1.378 . S
C926 C930 1.350 . S
C927 C930 1.463 1_554 S
C927 C932 1.350 . S
C927 N935 1.427 . S
C928 H919 0.930 . S
C928 C926 1.378 . S
C928 C929 1.367 . S
C929 C928 1.367 . S
C929 C931 1.433 . S
C930 C926 1.350 . S
C930 C927 1.463 1_556 S
C930 N934 1.427 . S
C931 H921 0.929 . S
C931 C929 1.433 . S
C931 N934 1.384 . S
C932 H923 0.929 1_554 S
C932 C924 1.378 . S
C932 C927 1.350 . S
C933 H920 0.929 . S
C933 C925 1.433 . S
C933 N935 1.384 . S
N934 C930 1.427 . S
N934 C931 1.384 . S
N935 C927 1.427 . S
N935 C933 1.384 . S
H936 C942 0.930 . S
H937 C946 0.930 . S
H938 C951 0.929 . S
H939 C949 0.929 . S
H940 C944 0.929 . S
H941 C950 0.929 . S
C942 H936 0.930 . S
C942 C943 1.367 . S
C942 C950 1.378 . S
C943 C942 1.367 . S
C943 C951 1.433 . S
C944 H940 0.929 . S
C944 C946 1.378 . S
C944 C948 1.350 . S
C945 C948 1.463 . S
C945 C950 1.350 . S
C945 N953 1.427 . S
C946 H937 0.930 . S
C946 C944 1.378 . S
C946 C947 1.367 . S
C947 C946 1.367 . S
C947 C949 1.433 . S
C948 C944 1.350 . S
C948 C945 1.463 . S
C948 N952 1.427 . S
C949 H939 0.929 . S
C949 C947 1.433 . S
C949 N952 1.384 . S
C950 H941 0.929 . S
C950 C942 1.378 . S
C950 C945 1.350 . S
C951 H938 0.929 . S
C951 C943 1.433 . S
C951 N953 1.384 . S
N952 C948 1.427 . S
N952 C949 1.384 . S
N953 C945 1.427 . S
N953 C951 1.384 . S
H954 C960 0.930 . S
H955 C964 0.930 . S
H956 C969 0.929 . S
H957 C967 0.929 . S
H958 C962 0.929 . S
H959 C968 0.929 . S
C960 H954 0.930 . S
C960 C961 1.367 . S
C960 C968 1.378 . S
C961 C960 1.367 . S
C961 C969 1.433 . S
C962 H958 0.929 . S
C962 C964 1.378 . S
C962 C966 1.350 . S
C963 C966 1.463 . S
C963 C968 1.350 . S
C963 N971 1.427 . S
C964 H955 0.930 . S
C964 C962 1.378 . S
C964 C965 1.367 . S
C965 C964 1.367 . S
C965 C967 1.433 . S
C966 C962 1.350 . S
C966 C963 1.463 . S
C966 N970 1.427 . S
C967 H957 0.929 . S
C967 C965 1.433 . S
C967 N970 1.384 . S
C968 H959 0.929 . S
C968 C960 1.378 . S
C968 C963 1.350 . S
C969 H956 0.929 . S
C969 C961 1.433 . S
C969 N971 1.384 . S
N970 C966 1.427 . S
N970 C967 1.384 . S
N971 C963 1.427 . S
N971 C969 1.384 . S
H972 C978 0.930 . S
H973 C982 0.930 . S
H974 C987 0.929 . S
H975 C985 0.929 . S
H976 C980 0.929 . S
H977 C986 0.929 . S
C978 H972 0.930 . S
C978 C979 1.367 . S
C978 C986 1.378 . S
C979 C978 1.367 . S
C979 C987 1.433 . S
C980 H976 0.929 . S
C980 C982 1.378 . S
C980 C984 1.350 . S
C981 C984 1.463 . S
C981 C986 1.350 . S
C981 N989 1.427 . S
C982 H973 0.930 . S
C982 C980 1.378 . S
C982 C983 1.367 . S
C983 C982 1.367 . S
C983 C985 1.433 . S
C984 C980 1.350 . S
C984 C981 1.463 . S
C984 N988 1.427 . S
C985 H975 0.929 . S
C985 C983 1.433 . S
C985 N988 1.384 . S
C986 H977 0.929 . S
C986 C978 1.378 . S
C986 C981 1.350 . S
C987 H974 0.929 . S
C987 C979 1.433 . S
C987 N989 1.384 . S
N988 C984 1.427 . S
N988 C985 1.384 . S
N989 C981 1.427 . S
N989 C987 1.384 . S
H990 C996 0.930 . S
H991 C1000 0.930 . S
H992 C1005 0.929 . S
H993 C1003 0.929 . S
H994 C998 0.929 . S
H995 C1004 0.929 . S
C996 H990 0.930 . S
C996 C997 1.367 . S
C996 C1004 1.378 . S
C997 C996 1.367 . S
C997 C1005 1.433 . S
C998 H994 0.929 . S
C998 C1000 1.378 . S
C998 C1002 1.350 . S
C999 C1002 1.463 . S
C999 C1004 1.350 . S
C999 N1007 1.427 . S
C1000 H991 0.930 . S
C1000 C998 1.378 . S
C1000 C1001 1.367 . S
C1001 C1000 1.367 . S
C1001 C1003 1.433 . S
C1002 C998 1.350 . S
C1002 C999 1.463 . S
C1002 N1006 1.427 . S
C1003 H993 0.929 . S
C1003 C1001 1.433 . S
C1003 N1006 1.384 . S
C1004 H995 0.929 . S
C1004 C996 1.378 . S
C1004 C999 1.350 . S
C1005 H992 0.929 . S
C1005 C997 1.433 . S
C1005 N1007 1.384 . S
N1006 C1002 1.427 . S
N1006 C1003 1.384 . S
N1007 C999 1.427 . S
N1007 C1005 1.384 . S
H1008 C1014 0.930 . S
H1009 C1018 0.930 . S
H1010 C1023 0.929 . S
H1011 C1021 0.929 . S
H1012 C1016 0.929 . S
H1013 C1022 0.929 . S
C1014 H1008 0.930 . S
C1014 C1015 1.367 . S
C1014 C1022 1.378 . S
C1015 C1014 1.367 . S
C1015 C1023 1.433 . S
C1016 H1012 0.929 . S
C1016 C1018 1.378 . S
C1016 C1020 1.350 . S
C1017 C1020 1.463 . S
C1017 C1022 1.350 . S
C1017 N1025 1.427 . S
C1018 H1009 0.930 . S
C1018 C1016 1.378 . S
C1018 C1019 1.367 . S
C1019 C1018 1.367 . S
C1019 C1021 1.433 . S
C1020 C1016 1.350 . S
C1020 C1017 1.463 . S
C1020 N1024 1.427 . S
C1021 H1011 0.929 . S
C1021 C1019 1.433 . S
C1021 N1024 1.384 . S
C1022 H1013 0.929 . S
C1022 C1014 1.378 . S
C1022 C1017 1.350 . S
C1023 H1010 0.929 . S
C1023 C1015 1.433 . S
C1023 N1025 1.384 . S
N1024 C1020 1.427 . S
N1024 C1021 1.384 . S
N1025 C1017 1.427 . S
N1025 C1023 1.384 . S
H1026 C1032 0.930 . S
H1027 C1036 0.930 . S
H1028 C1041 0.929 . S
H1029 C1039 0.929 . S
H1030 C1034 0.929 . S
H1031 C1040 0.929 . S
C1032 H1026 0.930 . S
C1032 C1033 1.367 . S
C1032 C1040 1.378 . S
C1033 C1032 1.367 . S
C1033 C1041 1.433 . S
C1034 H1030 0.929 . S
C1034 C1036 1.378 . S
C1034 C1038 1.350 . S
C1035 C1038 1.463 . S
C1035 C1040 1.350 . S
C1035 N1043 1.427 . S
C1036 H1027 0.930 . S
C1036 C1034 1.378 . S
C1036 C1037 1.367 . S
C1037 C1036 1.367 . S
C1037 C1039 1.433 . S
C1038 C1034 1.350 . S
C1038 C1035 1.463 . S
C1038 N1042 1.427 . S
C1039 H1029 0.929 . S
C1039 C1037 1.433 . S
C1039 N1042 1.384 . S
C1040 H1031 0.929 . S
C1040 C1032 1.378 . S
C1040 C1035 1.350 . S
C1041 H1028 0.929 . S
C1041 C1033 1.433 . S
C1041 N1043 1.384 . S
N1042 C1038 1.427 . S
N1042 C1039 1.384 . S
N1043 C1035 1.427 . S
N1043 C1041 1.384 . S
H1044 C1050 0.930 . S
H1045 C1054 0.930 . S
H1046 C1059 0.929 . S
H1047 C1057 0.929 . S
H1048 C1052 0.929 . S
H1049 C1058 0.929 . S
C1050 H1044 0.930 . S
C1050 C1051 1.367 . S
C1050 C1058 1.378 . S
C1051 C1050 1.367 . S
C1051 C1059 1.433 . S
C1052 H1048 0.929 . S
C1052 C1054 1.378 . S
C1052 C1056 1.350 . S
C1053 C1056 1.463 . S
C1053 C1058 1.350 . S
C1053 N1061 1.427 . S
C1054 H1045 0.930 . S
C1054 C1052 1.378 . S
C1054 C1055 1.367 . S
C1055 C1054 1.367 . S
C1055 C1057 1.433 . S
C1056 C1052 1.350 . S
C1056 C1053 1.463 . S
C1056 N1060 1.427 . S
C1057 H1047 0.929 . S
C1057 C1055 1.433 . S
C1057 N1060 1.384 . S
C1058 H1049 0.929 . S
C1058 C1050 1.378 . S
C1058 C1053 1.350 . S
C1059 H1046 0.929 . S
C1059 C1051 1.433 . S
C1059 N1061 1.384 . S
N1060 C1056 1.427 . S
N1060 C1057 1.384 . S
N1061 C1053 1.427 . S
N1061 C1059 1.384 . S
H1062 C1068 0.930 . S
H1063 C1072 0.930 . S
H1064 C1077 0.929 . S
H1065 C1075 0.929 . S
H1066 C1070 0.929 . S
H1067 C1076 0.929 . S
C1068 H1062 0.930 . S
C1068 C1069 1.367 . S
C1068 C1076 1.378 . S
C1069 C1068 1.367 . S
C1069 C1077 1.433 . S
C1070 H1066 0.929 . S
C1070 C1072 1.378 . S
C1070 C1074 1.350 . S
C1071 C1074 1.463 . S
C1071 C1076 1.350 . S
C1071 N1079 1.427 . S
C1072 H1063 0.930 . S
C1072 C1070 1.378 . S
C1072 C1073 1.367 . S
C1073 C1072 1.367 . S
C1073 C1075 1.433 . S
C1074 C1070 1.350 . S
C1074 C1071 1.463 . S
C1074 N1078 1.427 . S
C1075 H1065 0.929 . S
C1075 C1073 1.433 . S
C1075 N1078 1.384 . S
C1076 H1067 0.929 . S
C1076 C1068 1.378 . S
C1076 C1071 1.350 . S
C1077 H1064 0.929 . S
C1077 C1069 1.433 . S
C1077 N1079 1.384 . S
N1078 C1074 1.427 . S
N1078 C1075 1.384 . S
N1079 C1071 1.427 . S
N1079 C1077 1.384 . S
H1080 C1086 0.930 . S
H1081 C1090 0.930 . S
H1082 C1095 0.929 . S
H1083 C1093 0.929 . S
H1084 C1088 0.929 . S
H1085 C1094 0.929 . S
C1086 H1080 0.930 . S
C1086 C1087 1.367 . S
C1086 C1094 1.378 . S
C1087 C1086 1.367 . S
C1087 C1095 1.433 . S
C1088 H1084 0.929 . S
C1088 C1090 1.378 . S
C1088 C1092 1.350 . S
C1089 C1092 1.463 . S
C1089 C1094 1.350 . S
C1089 N1097 1.427 . S
C1090 H1081 0.930 . S
C1090 C1088 1.378 . S
C1090 C1091 1.367 . S
C1091 C1090 1.367 . S
C1091 C1093 1.433 . S
C1092 C1088 1.350 . S
C1092 C1089 1.463 . S
C1092 N1096 1.427 . S
C1093 H1083 0.929 . S
C1093 C1091 1.433 . S
C1093 N1096 1.384 . S
C1094 H1085 0.929 . S
C1094 C1086 1.378 . S
C1094 C1089 1.350 . S
C1095 H1082 0.929 . S
C1095 C1087 1.433 . S
C1095 N1097 1.384 . S
N1096 C1092 1.427 . S
N1096 C1093 1.384 . S
N1097 C1089 1.427 . S
N1097 C1095 1.384 . S
H1098 C1104 0.930 . S
H1099 C1108 0.930 . S
H1100 C1113 0.929 . S
H1101 C1111 0.929 . S
H1102 C1106 0.929 . S
H1103 C1112 0.929 . S
C1104 H1098 0.930 . S
C1104 C1105 1.367 . S
C1104 C1112 1.378 . S
C1105 C1104 1.367 . S
C1105 C1113 1.433 . S
C1106 H1102 0.929 . S
C1106 C1108 1.378 . S
C1106 C1110 1.350 . S
C1107 C1110 1.463 . S
C1107 C1112 1.350 . S
C1107 N1115 1.427 . S
C1108 H1099 0.930 . S
C1108 C1106 1.378 . S
C1108 C1109 1.367 . S
C1109 C1108 1.367 . S
C1109 C1111 1.433 . S
C1110 C1106 1.350 . S
C1110 C1107 1.463 . S
C1110 N1114 1.427 . S
C1111 H1101 0.929 . S
C1111 C1109 1.433 . S
C1111 N1114 1.384 . S
C1112 H1103 0.929 . S
C1112 C1104 1.378 . S
C1112 C1107 1.350 . S
C1113 H1100 0.929 . S
C1113 C1105 1.433 . S
C1113 N1115 1.384 . S
N1114 C1110 1.427 . S
N1114 C1111 1.384 . S
N1115 C1107 1.427 . S
N1115 C1113 1.384 . S
H1116 C1122 0.930 . S
H1117 C1126 0.930 . S
H1118 C1131 0.929 . S
H1119 C1129 0.929 . S
H1120 C1124 0.929 . S
H1121 C1130 0.929 . S
C1122 H1116 0.930 . S
C1122 C1123 1.367 . S
C1122 C1130 1.378 . S
C1123 C1122 1.367 . S
C1123 C1131 1.433 . S
C1124 H1120 0.929 . S
C1124 C1126 1.378 . S
C1124 C1128 1.350 . S
C1125 C1128 1.463 . S
C1125 C1130 1.350 . S
C1125 N1133 1.427 . S
C1126 H1117 0.930 . S
C1126 C1124 1.378 . S
C1126 C1127 1.367 . S
C1127 C1126 1.367 . S
C1127 C1129 1.433 . S
C1128 C1124 1.350 . S
C1128 C1125 1.463 . S
C1128 N1132 1.427 . S
C1129 H1119 0.929 . S
C1129 C1127 1.433 . S
C1129 N1132 1.384 . S
C1130 H1121 0.929 . S
C1130 C1122 1.378 . S
C1130 C1125 1.350 . S
C1131 H1118 0.929 . S
C1131 C1123 1.433 . S
C1131 N1133 1.384 . S
N1132 C1128 1.427 . S
N1132 C1129 1.384 . S
N1133 C1125 1.427 . S
N1133 C1131 1.384 . S
H1134 C1140 0.930 . S
H1135 C1144 0.930 . S
H1136 C1149 0.929 . S
H1137 C1147 0.929 . S
H1138 C1142 0.929 . S
H1139 C1148 0.929 . S
C1140 H1134 0.930 . S
C1140 C1141 1.367 . S
C1140 C1148 1.378 . S
C1141 C1140 1.367 . S
C1141 C1149 1.433 . S
C1142 H1138 0.929 . S
C1142 C1144 1.378 . S
C1142 C1146 1.350 . S
C1143 C1146 1.463 . S
C1143 C1148 1.350 . S
C1143 N1151 1.427 . S
C1144 H1135 0.930 . S
C1144 C1142 1.378 . S
C1144 C1145 1.367 . S
C1145 C1144 1.367 . S
C1145 C1147 1.433 . S
C1146 C1142 1.350 . S
C1146 C1143 1.463 . S
C1146 N1150 1.427 . S
C1147 H1137 0.929 . S
C1147 C1145 1.433 . S
C1147 N1150 1.384 . S
C1148 H1139 0.929 . S
C1148 C1140 1.378 . S
C1148 C1143 1.350 . S
C1149 H1136 0.929 . S
C1149 C1141 1.433 . S
C1149 N1151 1.384 . S
N1150 C1146 1.427 . S
N1150 C1147 1.384 . S
N1151 C1143 1.427 . S
N1151 C1149 1.384 . S
H1152 C1158 0.930 . S
H1153 C1162 0.930 . S
H1154 C1167 0.929 . S
H1155 C1165 0.929 . S
H1156 C1160 0.929 . S
H1157 C1166 0.929 . S
C1158 H1152 0.930 . S
C1158 C1159 1.367 . S
C1158 C1166 1.378 . S
C1159 C1158 1.367 . S
C1159 C1167 1.433 . S
C1160 H1156 0.929 . S
C1160 C1162 1.378 . S
C1160 C1164 1.350 . S
C1161 C1164 1.463 . S
C1161 C1166 1.350 . S
C1161 N1169 1.427 . S
C1162 H1153 0.930 . S
C1162 C1160 1.378 . S
C1162 C1163 1.367 . S
C1163 C1162 1.367 . S
C1163 C1165 1.433 . S
C1164 C1160 1.350 . S
C1164 C1161 1.463 . S
C1164 N1168 1.427 . S
C1165 H1155 0.929 . S
C1165 C1163 1.433 . S
C1165 N1168 1.384 . S
C1166 H1157 0.929 . S
C1166 C1158 1.378 . S
C1166 C1161 1.350 . S
C1167 H1154 0.929 . S
C1167 C1159 1.433 . S
C1167 N1169 1.384 . S
N1168 C1164 1.427 . S
N1168 C1165 1.384 . S
N1169 C1161 1.427 . S
N1169 C1167 1.384 . S
H1170 C1176 0.930 . S
H1171 C1180 0.930 . S
H1172 C1185 0.929 . S
H1173 C1183 0.929 . S
H1174 C1178 0.929 . S
H1175 C1184 0.929 . S
C1176 H1170 0.930 . S
C1176 C1177 1.367 . S
C1176 C1184 1.378 . S
C1177 C1176 1.367 . S
C1177 C1185 1.433 . S
C1178 H1174 0.929 . S
C1178 C1180 1.378 . S
C1178 C1182 1.350 . S
C1179 C1182 1.463 . S
C1179 C1184 1.350 . S
C1179 N1187 1.427 . S
C1180 H1171 0.930 . S
C1180 C1178 1.378 . S
C1180 C1181 1.367 . S
C1181 C1180 1.367 . S
C1181 C1183 1.433 . S
C1182 C1178 1.350 . S
C1182 C1179 1.463 . S
C1182 N1186 1.427 . S
C1183 H1173 0.929 . S
C1183 C1181 1.433 . S
C1183 N1186 1.384 . S
C1184 H1175 0.929 . S
C1184 C1176 1.378 . S
C1184 C1179 1.350 . S
C1185 H1172 0.929 . S
C1185 C1177 1.433 . S
C1185 N1187 1.384 . S
N1186 C1182 1.427 . S
N1186 C1183 1.384 . S
N1187 C1179 1.427 . S
N1187 C1185 1.384 . S
H1188 C1194 0.930 . S
H1189 C1198 0.930 . S
H1190 C1203 0.929 . S
H1191 C1201 0.929 . S
H1192 C1196 0.929 . S
H1193 C1202 0.929 . S
C1194 H1188 0.930 . S
C1194 C1195 1.367 . S
C1194 C1202 1.378 . S
C1195 C1194 1.367 . S
C1195 C1203 1.433 . S
C1196 H1192 0.929 . S
C1196 C1198 1.378 . S
C1196 C1200 1.350 . S
C1197 C1200 1.463 . S
C1197 C1202 1.350 . S
C1197 N1205 1.427 . S
C1198 H1189 0.930 . S
C1198 C1196 1.378 . S
C1198 C1199 1.367 . S
C1199 C1198 1.367 . S
C1199 C1201 1.433 . S
C1200 C1196 1.350 . S
C1200 C1197 1.463 . S
C1200 N1204 1.427 . S
C1201 H1191 0.929 . S
C1201 C1199 1.433 . S
C1201 N1204 1.384 . S
C1202 H1193 0.929 . S
C1202 C1194 1.378 . S
C1202 C1197 1.350 . S
C1203 H1190 0.929 . S
C1203 C1195 1.433 . S
C1203 N1205 1.384 . S
N1204 C1200 1.427 . S
N1204 C1201 1.384 . S
N1205 C1197 1.427 . S
N1205 C1203 1.384 . S
H1206 C1212 0.930 . S
H1207 C1216 0.930 . S
H1208 C1221 0.929 . S
H1209 C1219 0.929 . S
H1210 C1214 0.929 . S
H1211 C1220 0.929 . S
C1212 H1206 0.930 . S
C1212 C1213 1.367 . S
C1212 C1220 1.378 . S
C1213 C1212 1.367 . S
C1213 C1221 1.433 . S
C1214 H1210 0.929 . S
C1214 C1216 1.378 . S
C1214 C1218 1.350 . S
C1215 C1218 1.463 . S
C1215 C1220 1.350 . S
C1215 N1223 1.427 . S
C1216 H1207 0.930 . S
C1216 C1214 1.378 . S
C1216 C1217 1.367 . S
C1217 C1216 1.367 . S
C1217 C1219 1.433 . S
C1218 C1214 1.350 . S
C1218 C1215 1.463 . S
C1218 N1222 1.427 . S
C1219 H1209 0.929 . S
C1219 C1217 1.433 . S
C1219 N1222 1.384 . S
C1220 H1211 0.929 . S
C1220 C1212 1.378 . S
C1220 C1215 1.350 . S
C1221 H1208 0.929 . S
C1221 C1213 1.433 . S
C1221 N1223 1.384 . S
N1222 C1218 1.427 . S
N1222 C1219 1.384 . S
N1223 C1215 1.427 . S
N1223 C1221 1.384 . S
H1224 C1230 0.930 . S
H1225 C1234 0.930 . S
H1226 C1239 0.929 . S
H1227 C1237 0.929 . S
H1228 C1232 0.929 . S
H1229 C1238 0.929 . S
C1230 H1224 0.930 . S
C1230 C1231 1.367 . S
C1230 C1238 1.378 . S
C1231 C1230 1.367 . S
C1231 C1239 1.433 . S
C1232 H1228 0.929 . S
C1232 C1234 1.378 . S
C1232 C1236 1.350 . S
C1233 C1236 1.463 . S
C1233 C1238 1.350 . S
C1233 N1241 1.427 . S
C1234 H1225 0.930 . S
C1234 C1232 1.378 . S
C1234 C1235 1.367 . S
C1235 C1234 1.367 . S
C1235 C1237 1.433 . S
C1236 C1232 1.350 . S
C1236 C1233 1.463 . S
C1236 N1240 1.427 . S
C1237 H1227 0.929 . S
C1237 C1235 1.433 . S
C1237 N1240 1.384 . S
C1238 H1229 0.929 . S
C1238 C1230 1.378 . S
C1238 C1233 1.350 . S
C1239 H1226 0.929 . S
C1239 C1231 1.433 . S
C1239 N1241 1.384 . S
N1240 C1236 1.427 . S
N1240 C1237 1.384 . S
N1241 C1233 1.427 . S
N1241 C1239 1.384 . S
H1242 C1248 0.930 . S
H1243 C1252 0.930 . S
H1244 C1257 0.929 . S
H1245 C1255 0.929 . S
H1246 C1250 0.929 . S
H1247 C1256 0.929 . S
C1248 H1242 0.930 . S
C1248 C1249 1.367 . S
C1248 C1256 1.378 . S
C1249 C1248 1.367 . S
C1249 C1257 1.433 . S
C1250 H1246 0.929 . S
C1250 C1252 1.378 . S
C1250 C1254 1.350 . S
C1251 C1254 1.463 . S
C1251 C1256 1.350 . S
C1251 N1259 1.427 . S
C1252 H1243 0.930 . S
C1252 C1250 1.378 . S
C1252 C1253 1.367 . S
C1253 C1252 1.367 . S
C1253 C1255 1.433 . S
C1254 C1250 1.350 . S
C1254 C1251 1.463 . S
C1254 N1258 1.427 . S
C1255 H1245 0.929 . S
C1255 C1253 1.433 . S
C1255 N1258 1.384 . S
C1256 H1247 0.929 . S
C1256 C1248 1.378 . S
C1256 C1251 1.350 . S
C1257 H1244 0.929 . S
C1257 C1249 1.433 . S
C1257 N1259 1.384 . S
N1258 C1254 1.427 . S
N1258 C1255 1.384 . S
N1259 C1251 1.427 . S
N1259 C1257 1.384 . S
H1260 C1266 0.930 . S
H1261 C1270 0.930 . S
H1262 C1275 0.929 . S
H1263 C1273 0.929 . S
H1264 C1268 0.929 . S
H1265 C1274 0.929 . S
C1266 H1260 0.930 . S
C1266 C1267 1.367 . S
C1266 C1274 1.378 . S
C1267 C1266 1.367 . S
C1267 C1275 1.433 . S
C1268 H1264 0.929 . S
C1268 C1270 1.378 . S
C1268 C1272 1.350 . S
C1269 C1272 1.463 . S
C1269 C1274 1.350 . S
C1269 N1277 1.427 . S
C1270 H1261 0.930 . S
C1270 C1268 1.378 . S
C1270 C1271 1.367 . S
C1271 C1270 1.367 . S
C1271 C1273 1.433 . S
C1272 C1268 1.350 . S
C1272 C1269 1.463 . S
C1272 N1276 1.427 . S
C1273 H1263 0.929 . S
C1273 C1271 1.433 . S
C1273 N1276 1.384 . S
C1274 H1265 0.929 . S
C1274 C1266 1.378 . S
C1274 C1269 1.350 . S
C1275 H1262 0.929 . S
C1275 C1267 1.433 . S
C1275 N1277 1.384 . S
N1276 C1272 1.427 . S
N1276 C1273 1.384 . S
N1277 C1269 1.427 . S
N1277 C1275 1.384 . S
H1278 C1284 0.930 . S
H1279 C1288 0.930 . S
H1280 C1293 0.929 . S
H1281 C1291 0.929 . S
H1282 C1286 0.929 . S
H1283 C1292 0.929 . S
C1284 H1278 0.930 . S
C1284 C1285 1.367 . S
C1284 C1292 1.378 . S
C1285 C1284 1.367 . S
C1285 C1293 1.433 . S
C1286 H1282 0.929 . S
C1286 C1288 1.378 . S
C1286 C1290 1.350 . S
C1287 C1290 1.463 . S
C1287 C1292 1.350 . S
C1287 N1295 1.427 . S
C1288 H1279 0.930 . S
C1288 C1286 1.378 . S
C1288 C1289 1.367 . S
C1289 C1288 1.367 . S
C1289 C1291 1.433 . S
C1290 C1286 1.350 . S
C1290 C1287 1.463 . S
C1290 N1294 1.427 . S
C1291 H1281 0.929 . S
C1291 C1289 1.433 . S
C1291 N1294 1.384 . S
C1292 H1283 0.929 . S
C1292 C1284 1.378 . S
C1292 C1287 1.350 . S
C1293 H1280 0.929 . S
C1293 C1285 1.433 . S
C1293 N1295 1.384 . S
N1294 C1290 1.427 . S
N1294 C1291 1.384 . S
N1295 C1287 1.427 . S
N1295 C1293 1.384 . S
H1296 C1302 0.930 . S
H1297 C1306 0.930 . S
H1298 C1311 0.929 . S
H1299 C1309 0.929 . S
H1300 C1304 0.929 . S
H1301 C1310 0.929 . S
C1302 H1296 0.930 . S
C1302 C1303 1.367 . S
C1302 C1310 1.378 . S
C1303 C1302 1.367 . S
C1303 C1311 1.433 . S
C1304 H1300 0.929 . S
C1304 C1306 1.378 . S
C1304 C1308 1.350 . S
C1305 C1308 1.463 . S
C1305 C1310 1.350 . S
C1305 N1313 1.427 . S
C1306 H1297 0.930 . S
C1306 C1304 1.378 . S
C1306 C1307 1.367 . S
C1307 C1306 1.367 . S
C1307 C1309 1.433 . S
C1308 C1304 1.350 . S
C1308 C1305 1.463 . S
C1308 N1312 1.427 . S
C1309 H1299 0.929 . S
C1309 C1307 1.433 . S
C1309 N1312 1.384 . S
C1310 H1301 0.929 . S
C1310 C1302 1.378 . S
C1310 C1305 1.350 . S
C1311 H1298 0.929 . S
C1311 C1303 1.433 . S
C1311 N1313 1.384 . S
N1312 C1308 1.427 . S
N1312 C1309 1.384 . S
N1313 C1305 1.427 . S
N1313 C1311 1.384 . S
H1314 C1320 0.930 . S
H1315 C1324 0.930 . S
H1316 C1329 0.929 . S
H1317 C1327 0.929 . S
H1318 C1322 0.929 . S
H1319 C1328 0.929 . S
C1320 H1314 0.930 . S
C1320 C1321 1.367 . S
C1320 C1328 1.378 . S
C1321 C1320 1.367 . S
C1321 C1329 1.433 . S
C1322 H1318 0.929 . S
C1322 C1324 1.378 . S
C1322 C1326 1.350 . S
C1323 C1326 1.463 . S
C1323 C1328 1.350 . S
C1323 N1331 1.427 . S
C1324 H1315 0.930 . S
C1324 C1322 1.378 . S
C1324 C1325 1.367 . S
C1325 C1324 1.367 . S
C1325 C1327 1.433 . S
C1326 C1322 1.350 . S
C1326 C1323 1.463 . S
C1326 N1330 1.427 . S
C1327 H1317 0.929 . S
C1327 C1325 1.433 . S
C1327 N1330 1.384 . S
C1328 H1319 0.929 . S
C1328 C1320 1.378 . S
C1328 C1323 1.350 . S
C1329 H1316 0.929 . S
C1329 C1321 1.433 . S
C1329 N1331 1.384 . S
N1330 C1326 1.427 . S
N1330 C1327 1.384 . S
N1331 C1323 1.427 . S
N1331 C1329 1.384 . S
H1332 C1338 0.930 . S
H1333 C1342 0.930 . S
H1334 C1347 0.929 . S
H1335 C1345 0.929 . S
H1336 C1340 0.929 . S
H1337 C1346 0.929 . S
C1338 H1332 0.930 . S
C1338 C1339 1.367 . S
C1338 C1346 1.378 . S
C1339 C1338 1.367 . S
C1339 C1347 1.433 . S
C1340 H1336 0.929 . S
C1340 C1342 1.378 . S
C1340 C1344 1.350 . S
C1341 C1344 1.463 . S
C1341 C1346 1.350 . S
C1341 N1349 1.427 . S
C1342 H1333 0.930 . S
C1342 C1340 1.378 . S
C1342 C1343 1.367 . S
C1343 C1342 1.367 . S
C1343 C1345 1.433 . S
C1344 C1340 1.350 . S
C1344 C1341 1.463 . S
C1344 N1348 1.427 . S
C1345 H1335 0.929 . S
C1345 C1343 1.433 . S
C1345 N1348 1.384 . S
C1346 H1337 0.929 . S
C1346 C1338 1.378 . S
C1346 C1341 1.350 . S
C1347 H1334 0.929 . S
C1347 C1339 1.433 . S
C1347 N1349 1.384 . S
N1348 C1344 1.427 . S
N1348 C1345 1.384 . S
N1349 C1341 1.427 . S
N1349 C1347 1.384 . S
H1350 C1356 0.930 . S
H1351 C1360 0.930 . S
H1352 C1365 0.929 . S
H1353 C1363 0.929 . S
H1354 C1358 0.929 . S
H1355 C1364 0.929 . S
C1356 H1350 0.930 . S
C1356 C1357 1.367 . S
C1356 C1364 1.378 . S
C1357 C1356 1.367 . S
C1357 C1365 1.433 . S
C1358 H1354 0.929 . S
C1358 C1360 1.378 . S
C1358 C1362 1.350 . S
C1359 C1362 1.463 . S
C1359 C1364 1.350 . S
C1359 N1367 1.427 . S
C1360 H1351 0.930 . S
C1360 C1358 1.378 . S
C1360 C1361 1.367 . S
C1361 C1360 1.367 . S
C1361 C1363 1.433 . S
C1362 C1358 1.350 . S
C1362 C1359 1.463 . S
C1362 N1366 1.427 . S
C1363 H1353 0.929 . S
C1363 C1361 1.433 . S
C1363 N1366 1.384 . S
C1364 H1355 0.929 . S
C1364 C1356 1.378 . S
C1364 C1359 1.350 . S
C1365 H1352 0.929 . S
C1365 C1357 1.433 . S
C1365 N1367 1.384 . S
N1366 C1362 1.427 . S
N1366 C1363 1.384 . S
N1367 C1359 1.427 . S
N1367 C1365 1.384 . S
H1368 C1374 0.930 . S
H1369 C1378 0.930 . S
H1370 C1383 0.929 . S
H1371 C1381 0.929 . S
H1372 C1376 0.929 . S
H1373 C1382 0.929 . S
C1374 H1368 0.930 . S
C1374 C1375 1.367 . S
C1374 C1382 1.378 . S
C1375 C1374 1.367 . S
C1375 C1383 1.433 . S
C1376 H1372 0.929 . S
C1376 C1378 1.378 . S
C1376 C1380 1.350 . S
C1377 C1380 1.463 1_455 S
C1377 C1382 1.350 . S
C1377 N1385 1.427 . S
C1378 H1369 0.930 . S
C1378 C1376 1.378 . S
C1378 C1379 1.367 . S
C1379 C1378 1.367 . S
C1379 C1381 1.433 . S
C1380 C1376 1.350 . S
C1380 C1377 1.463 1_655 S
C1380 N1384 1.427 . S
C1381 H1371 0.929 . S
C1381 C1379 1.433 . S
C1381 N1384 1.384 . S
C1382 H1373 0.929 . S
C1382 C1374 1.378 . S
C1382 C1377 1.350 . S
C1383 H1370 0.929 . S
C1383 C1375 1.433 . S
C1383 N1385 1.384 . S
N1384 C1380 1.427 . S
N1384 C1381 1.384 . S
N1385 C1377 1.427 . S
N1385 C1383 1.384 . S
H1386 C1392 0.930 . S
H1387 C1396 0.930 . S
H1388 C1401 0.929 . S
H1389 C1399 0.929 . S
H1390 C1394 0.929 . S
H1391 C1400 0.929 . S
C1392 H1386 0.930 . S
C1392 C1393 1.367 . S
C1392 C1400 1.378 . S
C1393 C1392 1.367 . S
C1393 C1401 1.433 . S
C1394 H1390 0.929 . S
C1394 C1396 1.378 . S
C1394 C1398 1.350 . S
C1395 C1398 1.463 . S
C1395 C1400 1.350 . S
C1395 N1403 1.427 . S
C1396 H1387 0.930 . S
C1396 C1394 1.378 . S
C1396 C1397 1.367 . S
C1397 C1396 1.367 . S
C1397 C1399 1.433 . S
C1398 C1394 1.350 . S
C1398 C1395 1.463 . S
C1398 N1402 1.427 . S
C1399 H1389 0.929 . S
C1399 C1397 1.433 . S
C1399 N1402 1.384 . S
C1400 H1391 0.929 . S
C1400 C1392 1.378 . S
C1400 C1395 1.350 . S
C1401 H1388 0.929 . S
C1401 C1393 1.433 . S
C1401 N1403 1.384 . S
N1402 C1398 1.427 . S
N1402 C1399 1.384 . S
N1403 C1395 1.427 . S
N1403 C1401 1.384 . S
H1404 C1410 0.930 . S
H1405 C1414 0.930 . S
H1406 C1419 0.929 . S
H1407 C1417 0.929 . S
H1408 C1412 0.929 . S
H1409 C1418 0.929 . S
C1410 H1404 0.930 . S
C1410 C1411 1.367 . S
C1410 C1418 1.378 . S
C1411 C1410 1.367 . S
C1411 C1419 1.433 . S
C1412 H1408 0.929 . S
C1412 C1414 1.378 . S
C1412 C1416 1.350 . S
C1413 C1416 1.463 1_545 S
C1413 C1418 1.350 . S
C1413 N1421 1.427 . S
C1414 H1405 0.930 . S
C1414 C1412 1.378 . S
C1414 C1415 1.367 . S
C1415 C1414 1.367 . S
C1415 C1417 1.433 . S
C1416 C1412 1.350 . S
C1416 C1413 1.463 1_565 S
C1416 N1420 1.427 . S
C1417 H1407 0.929 . S
C1417 C1415 1.433 . S
C1417 N1420 1.384 . S
C1418 H1409 0.929 . S
C1418 C1410 1.378 . S
C1418 C1413 1.350 . S
C1419 H1406 0.929 . S
C1419 C1411 1.433 . S
C1419 N1421 1.384 . S
N1420 C1416 1.427 . S
N1420 C1417 1.384 . S
N1421 C1413 1.427 . S
N1421 C1419 1.384 . S
H1422 C1428 0.930 . S
H1423 C1432 0.930 . S
H1424 C1437 0.929 . S
H1425 C1435 0.929 . S
H1426 C1430 0.929 . S
H1427 C1436 0.929 . S
C1428 H1422 0.930 . S
C1428 C1429 1.367 . S
C1428 C1436 1.378 . S
C1429 C1428 1.367 . S
C1429 C1437 1.433 . S
C1430 H1426 0.929 . S
C1430 C1432 1.378 . S
C1430 C1434 1.350 . S
C1431 C1434 1.463 1_545 S
C1431 C1436 1.350 . S
C1431 N1439 1.427 . S
C1432 H1423 0.930 . S
C1432 C1430 1.378 . S
C1432 C1433 1.367 . S
C1433 C1432 1.367 . S
C1433 C1435 1.433 . S
C1434 C1430 1.350 . S
C1434 C1431 1.463 1_565 S
C1434 N1438 1.427 . S
C1435 H1425 0.929 . S
C1435 C1433 1.433 . S
C1435 N1438 1.384 . S
C1436 H1427 0.929 . S
C1436 C1428 1.378 . S
C1436 C1431 1.350 . S
C1437 H1424 0.929 . S
C1437 C1429 1.433 . S
C1437 N1439 1.384 . S
N1438 C1434 1.427 . S
N1438 C1435 1.384 . S
N1439 C1431 1.427 . S
N1439 C1437 1.384 . S
H1440 C1446 0.930 . S
H1441 C1450 0.930 . S
H1442 C1455 0.929 . S
H1443 C1453 0.929 . S
H1444 C1448 0.929 . S
H1445 C1454 0.929 . S
C1446 H1440 0.930 . S
C1446 C1447 1.367 . S
C1446 C1454 1.378 . S
C1447 C1446 1.367 . S
C1447 C1455 1.433 . S
C1448 H1444 0.929 . S
C1448 C1450 1.378 . S
C1448 C1452 1.350 . S
C1449 C1452 1.463 1_655 S
C1449 C1454 1.350 . S
C1449 N1457 1.427 . S
C1450 H1441 0.930 . S
C1450 C1448 1.378 . S
C1450 C1451 1.367 . S
C1451 C1450 1.367 . S
C1451 C1453 1.433 . S
C1452 C1448 1.350 . S
C1452 C1449 1.463 1_455 S
C1452 N1456 1.427 . S
C1453 H1443 0.929 . S
C1453 C1451 1.433 . S
C1453 N1456 1.384 . S
C1454 H1445 0.929 . S
C1454 C1446 1.378 . S
C1454 C1449 1.350 . S
C1455 H1442 0.929 . S
C1455 C1447 1.433 . S
C1455 N1457 1.384 . S
N1456 C1452 1.427 . S
N1456 C1453 1.384 . S
N1457 C1449 1.427 . S
N1457 C1455 1.384 . S
H1458 C1464 0.930 . S
H1459 C1468 0.930 . S
H1460 C1473 0.929 . S
H1461 C1471 0.929 . S
H1462 C1466 0.929 . S
H1463 C1472 0.929 . S
C1464 H1458 0.930 . S
C1464 C1465 1.367 . S
C1464 C1472 1.378 . S
C1465 C1464 1.367 . S
C1465 C1473 1.433 . S
C1466 H1462 0.929 . S
C1466 C1468 1.378 . S
C1466 C1470 1.350 . S
C1467 C1470 1.463 . S
C1467 C1472 1.350 . S
C1467 N1475 1.427 . S
C1468 H1459 0.930 . S
C1468 C1466 1.378 . S
C1468 C1469 1.367 . S
C1469 C1468 1.367 . S
C1469 C1471 1.433 . S
C1470 C1466 1.350 . S
C1470 C1467 1.463 . S
C1470 N1474 1.427 . S
C1471 H1461 0.929 . S
C1471 C1469 1.433 . S
C1471 N1474 1.384 . S
C1472 H1463 0.929 . S
C1472 C1464 1.378 . S
C1472 C1467 1.350 . S
C1473 H1460 0.929 . S
C1473 C1465 1.433 . S
C1473 N1475 1.384 . S
N1474 C1470 1.427 . S
N1474 C1471 1.384 . S
N1475 C1467 1.427 . S
N1475 C1473 1.384 . S
H1476 C1482 0.930 . S
H1477 C1486 0.930 . S
H1478 C1491 0.929 . S
H1479 C1489 0.929 . S
H1480 C1484 0.929 . S
H1481 C1490 0.929 . S
C1482 H1476 0.930 . S
C1482 C1483 1.367 . S
C1482 C1490 1.378 . S
C1483 C1482 1.367 . S
C1483 C1491 1.433 . S
C1484 H1480 0.929 . S
C1484 C1486 1.378 . S
C1484 C1488 1.350 . S
C1485 C1488 1.463 . S
C1485 C1490 1.350 . S
C1485 N1493 1.427 . S
C1486 H1477 0.930 . S
C1486 C1484 1.378 . S
C1486 C1487 1.367 . S
C1487 C1486 1.367 . S
C1487 C1489 1.433 . S
C1488 C1484 1.350 . S
C1488 C1485 1.463 . S
C1488 N1492 1.427 . S
C1489 H1479 0.929 . S
C1489 C1487 1.433 . S
C1489 N1492 1.384 . S
C1490 H1481 0.929 . S
C1490 C1482 1.378 . S
C1490 C1485 1.350 . S
C1491 H1478 0.929 . S
C1491 C1483 1.433 . S
C1491 N1493 1.384 . S
N1492 C1488 1.427 . S
N1492 C1489 1.384 . S
N1493 C1485 1.427 . S
N1493 C1491 1.384 . S
H1494 C1500 0.930 . S
H1495 C1504 0.930 . S
H1496 C1509 0.929 . S
H1497 C1507 0.929 . S
H1498 C1502 0.929 . S
H1499 C1508 0.929 . S
C1500 H1494 0.930 . S
C1500 C1501 1.367 . S
C1500 C1508 1.378 . S
C1501 C1500 1.367 . S
C1501 C1509 1.433 . S
C1502 H1498 0.929 . S
C1502 C1504 1.378 . S
C1502 C1506 1.350 . S
C1503 C1506 1.463 . S
C1503 C1508 1.350 . S
C1503 N1511 1.427 . S
C1504 H1495 0.930 . S
C1504 C1502 1.378 . S
C1504 C1505 1.367 . S
C1505 C1504 1.367 . S
C1505 C1507 1.433 . S
C1506 C1502 1.350 . S
C1506 C1503 1.463 . S
C1506 N1510 1.427 . S
C1507 H1497 0.929 . S
C1507 C1505 1.433 . S
C1507 N1510 1.384 . S
C1508 H1499 0.929 . S
C1508 C1500 1.378 . S
C1508 C1503 1.350 . S
C1509 H1496 0.929 . S
C1509 C1501 1.433 . S
C1509 N1511 1.384 . S
N1510 C1506 1.427 . S
N1510 C1507 1.384 . S
N1511 C1503 1.427 . S
N1511 C1509 1.384 . S
H1512 C1518 0.930 . S
H1513 C1522 0.930 . S
H1514 C1527 0.929 . S
H1515 C1525 0.929 . S
H1516 C1520 0.929 . S
H1517 C1526 0.929 . S
C1518 H1512 0.930 . S
C1518 C1519 1.367 . S
C1518 C1526 1.378 . S
C1519 C1518 1.367 . S
C1519 C1527 1.433 . S
C1520 H1516 0.929 . S
C1520 C1522 1.378 . S
C1520 C1524 1.350 . S
C1521 C1524 1.463 . S
C1521 C1526 1.350 . S
C1521 N1529 1.427 . S
C1522 H1513 0.930 . S
C1522 C1520 1.378 . S
C1522 C1523 1.367 . S
C1523 C1522 1.367 . S
C1523 C1525 1.433 . S
C1524 C1520 1.350 . S
C1524 C1521 1.463 . S
C1524 N1528 1.427 . S
C1525 H1515 0.929 . S
C1525 C1523 1.433 . S
C1525 N1528 1.384 . S
C1526 H1517 0.929 . S
C1526 C1518 1.378 . S
C1526 C1521 1.350 . S
C1527 H1514 0.929 . S
C1527 C1519 1.433 . S
C1527 N1529 1.384 . S
N1528 C1524 1.427 . S
N1528 C1525 1.384 . S
N1529 C1521 1.427 . S
N1529 C1527 1.384 . S
H1530 C1536 0.930 . S
H1531 C1540 0.930 . S
H1532 C1545 0.929 . S
H1533 C1543 0.929 . S
H1534 C1538 0.929 . S
H1535 C1544 0.929 . S
C1536 H1530 0.930 . S
C1536 C1537 1.367 . S
C1536 C1544 1.378 . S
C1537 C1536 1.367 . S
C1537 C1545 1.433 . S
C1538 H1534 0.929 . S
C1538 C1540 1.378 . S
C1538 C1542 1.350 . S
C1539 C1542 1.463 . S
C1539 C1544 1.350 . S
C1539 N1547 1.427 . S
C1540 H1531 0.930 . S
C1540 C1538 1.378 . S
C1540 C1541 1.367 . S
C1541 C1540 1.367 . S
C1541 C1543 1.433 . S
C1542 C1538 1.350 . S
C1542 C1539 1.463 . S
C1542 N1546 1.427 . S
C1543 H1533 0.929 . S
C1543 C1541 1.433 . S
C1543 N1546 1.384 . S
C1544 H1535 0.929 . S
C1544 C1536 1.378 . S
C1544 C1539 1.350 . S
C1545 H1532 0.929 . S
C1545 C1537 1.433 . S
C1545 N1547 1.384 . S
N1546 C1542 1.427 . S
N1546 C1543 1.384 . S
N1547 C1539 1.427 . S
N1547 C1545 1.384 . S
H1548 C1554 0.930 . S
H1549 C1558 0.930 . S
H1550 C1563 0.929 . S
H1551 C1561 0.929 . S
H1552 C1556 0.929 . S
H1553 C1562 0.929 . S
C1554 H1548 0.930 . S
C1554 C1555 1.367 . S
C1554 C1562 1.378 . S
C1555 C1554 1.367 . S
C1555 C1563 1.433 . S
C1556 H1552 0.929 . S
C1556 C1558 1.378 . S
C1556 C1560 1.350 . S
C1557 C1560 1.463 . S
C1557 C1562 1.350 . S
C1557 N1565 1.427 . S
C1558 H1549 0.930 . S
C1558 C1556 1.378 . S
C1558 C1559 1.367 . S
C1559 C1558 1.367 . S
C1559 C1561 1.433 . S
C1560 C1556 1.350 . S
C1560 C1557 1.463 . S
C1560 N1564 1.427 . S
C1561 H1551 0.929 . S
C1561 C1559 1.433 . S
C1561 N1564 1.384 . S
C1562 H1553 0.929 . S
C1562 C1554 1.378 . S
C1562 C1557 1.350 . S
C1563 H1550 0.929 . S
C1563 C1555 1.433 . S
C1563 N1565 1.384 . S
N1564 C1560 1.427 . S
N1564 C1561 1.384 . S
N1565 C1557 1.427 . S
N1565 C1563 1.384 . S
H1566 C1572 0.930 . S
H1567 C1576 0.930 . S
H1568 C1581 0.929 . S
H1569 C1579 0.929 . S
H1570 C1574 0.929 . S
H1571 C1580 0.929 . S
C1572 H1566 0.930 . S
C1572 C1573 1.367 . S
C1572 C1580 1.378 . S
C1573 C1572 1.367 . S
C1573 C1581 1.433 . S
C1574 H1570 0.929 . S
C1574 C1576 1.378 . S
C1574 C1578 1.350 . S
C1575 C1578 1.463 . S
C1575 C1580 1.350 . S
C1575 N1583 1.427 . S
C1576 H1567 0.930 . S
C1576 C1574 1.378 . S
C1576 C1577 1.367 . S
C1577 C1576 1.367 . S
C1577 C1579 1.433 . S
C1578 C1574 1.350 . S
C1578 C1575 1.463 . S
C1578 N1582 1.427 . S
C1579 H1569 0.929 . S
C1579 C1577 1.433 . S
C1579 N1582 1.384 . S
C1580 H1571 0.929 . S
C1580 C1572 1.378 . S
C1580 C1575 1.350 . S
C1581 H1568 0.929 . S
C1581 C1573 1.433 . S
C1581 N1583 1.384 . S
N1582 C1578 1.427 . S
N1582 C1579 1.384 . S
N1583 C1575 1.427 . S
N1583 C1581 1.384 . S
H1584 C1590 0.930 . S
H1585 C1594 0.930 . S
H1586 C1599 0.929 . S
H1587 C1597 0.929 . S
H1588 C1592 0.929 . S
H1589 C1598 0.929 . S
C1590 H1584 0.930 . S
C1590 C1591 1.367 . S
C1590 C1598 1.378 . S
C1591 C1590 1.367 . S
C1591 C1599 1.433 . S
C1592 H1588 0.929 . S
C1592 C1594 1.378 . S
C1592 C1596 1.350 . S
C1593 C1596 1.463 . S
C1593 C1598 1.350 . S
C1593 N1601 1.427 . S
C1594 H1585 0.930 . S
C1594 C1592 1.378 . S
C1594 C1595 1.367 . S
C1595 C1594 1.367 . S
C1595 C1597 1.433 . S
C1596 C1592 1.350 . S
C1596 C1593 1.463 . S
C1596 N1600 1.427 . S
C1597 H1587 0.929 . S
C1597 C1595 1.433 . S
C1597 N1600 1.384 . S
C1598 H1589 0.929 . S
C1598 C1590 1.378 . S
C1598 C1593 1.350 . S
C1599 H1586 0.929 . S
C1599 C1591 1.433 . S
C1599 N1601 1.384 . S
N1600 C1596 1.427 . S
N1600 C1597 1.384 . S
N1601 C1593 1.427 . S
N1601 C1599 1.384 . S
H1602 C1608 0.930 . S
H1603 C1612 0.930 . S
H1604 C1617 0.929 . S
H1605 C1615 0.929 . S
H1606 C1610 0.929 . S
H1607 C1616 0.929 . S
C1608 H1602 0.930 . S
C1608 C1609 1.367 . S
C1608 C1616 1.378 . S
C1609 C1608 1.367 . S
C1609 C1617 1.433 . S
C1610 H1606 0.929 . S
C1610 C1612 1.378 . S
C1610 C1614 1.350 . S
C1611 C1614 1.463 . S
C1611 C1616 1.350 . S
C1611 N1619 1.427 . S
C1612 H1603 0.930 . S
C1612 C1610 1.378 . S
C1612 C1613 1.367 . S
C1613 C1612 1.367 . S
C1613 C1615 1.433 . S
C1614 C1610 1.350 . S
C1614 C1611 1.463 . S
C1614 N1618 1.427 . S
C1615 H1605 0.929 . S
C1615 C1613 1.433 . S
C1615 N1618 1.384 . S
C1616 H1607 0.929 . S
C1616 C1608 1.378 . S
C1616 C1611 1.350 . S
C1617 H1604 0.929 . S
C1617 C1609 1.433 . S
C1617 N1619 1.384 . S
N1618 C1614 1.427 . S
N1618 C1615 1.384 . S
N1619 C1611 1.427 . S
N1619 C1617 1.384 . S
H1620 C1626 0.930 . S
H1621 C1630 0.930 . S
H1622 C1635 0.929 . S
H1623 C1633 0.929 . S
H1624 C1628 0.929 . S
H1625 C1634 0.929 . S
C1626 H1620 0.930 . S
C1626 C1627 1.367 . S
C1626 C1634 1.378 . S
C1627 C1626 1.367 . S
C1627 C1635 1.433 . S
C1628 H1624 0.929 . S
C1628 C1630 1.378 . S
C1628 C1632 1.350 . S
C1629 C1632 1.463 . S
C1629 C1634 1.350 . S
C1629 N1637 1.427 . S
C1630 H1621 0.930 . S
C1630 C1628 1.378 . S
C1630 C1631 1.367 . S
C1631 C1630 1.367 . S
C1631 C1633 1.433 . S
C1632 C1628 1.350 . S
C1632 C1629 1.463 . S
C1632 N1636 1.427 . S
C1633 H1623 0.929 . S
C1633 C1631 1.433 . S
C1633 N1636 1.384 . S
C1634 H1625 0.929 . S
C1634 C1626 1.378 . S
C1634 C1629 1.350 . S
C1635 H1622 0.929 . S
C1635 C1627 1.433 . S
C1635 N1637 1.384 . S
N1636 C1632 1.427 . S
N1636 C1633 1.384 . S
N1637 C1629 1.427 . S
N1637 C1635 1.384 . S
H1638 C1644 0.930 . S
H1639 C1648 0.930 . S
H1640 C1653 0.929 . S
H1641 C1651 0.929 . S
H1642 C1646 0.929 . S
H1643 C1652 0.929 . S
C1644 H1638 0.930 . S
C1644 C1645 1.367 . S
C1644 C1652 1.378 . S
C1645 C1644 1.367 . S
C1645 C1653 1.433 . S
C1646 H1642 0.929 . S
C1646 C1648 1.378 . S
C1646 C1650 1.350 . S
C1647 C1650 1.463 . S
C1647 C1652 1.350 . S
C1647 N1655 1.427 . S
C1648 H1639 0.930 . S
C1648 C1646 1.378 . S
C1648 C1649 1.367 . S
C1649 C1648 1.367 . S
C1649 C1651 1.433 . S
C1650 C1646 1.350 . S
C1650 C1647 1.463 . S
C1650 N1654 1.427 . S
C1651 H1641 0.929 . S
C1651 C1649 1.433 . S
C1651 N1654 1.384 . S
C1652 H1643 0.929 . S
C1652 C1644 1.378 . S
C1652 C1647 1.350 . S
C1653 H1640 0.929 . S
C1653 C1645 1.433 . S
C1653 N1655 1.384 . S
N1654 C1650 1.427 . S
N1654 C1651 1.384 . S
N1655 C1647 1.427 . S
N1655 C1653 1.384 . S
H1656 C1662 0.930 . S
H1657 C1666 0.930 1_556 S
H1658 C1671 0.929 1_556 S
H1659 C1669 0.929 . S
H1660 C1664 0.929 1_556 S
H1661 C1670 0.929 . S
C1662 H1656 0.930 . S
C1662 C1663 1.367 . S
C1662 C1670 1.378 . S
C1663 C1662 1.367 . S
C1663 C1671 1.433 . S
C1664 H1660 0.929 1_554 S
C1664 C1666 1.378 . S
C1664 C1668 1.350 . S
C1665 C1668 1.463 . S
C1665 C1670 1.350 . S
C1665 N1673 1.427 . S
C1666 H1657 0.930 1_554 S
C1666 C1664 1.378 . S
C1666 C1667 1.367 . S
C1667 C1666 1.367 . S
C1667 C1669 1.433 . S
C1668 C1664 1.350 . S
C1668 C1665 1.463 . S
C1668 N1672 1.427 . S
C1669 H1659 0.929 . S
C1669 C1667 1.433 . S
C1669 N1672 1.384 . S
C1670 H1661 0.929 . S
C1670 C1662 1.378 . S
C1670 C1665 1.350 . S
C1671 H1658 0.929 1_554 S
C1671 C1663 1.433 . S
C1671 N1673 1.384 . S
N1672 C1668 1.427 . S
N1672 C1669 1.384 . S
N1673 C1665 1.427 . S
N1673 C1671 1.384 . S
H1674 C1680 0.930 . S
H1675 C1684 0.926 1_556 S
H1676 C1689 0.915 1_556 S
H1677 C1687 0.929 . S
H1678 C1682 0.925 1_556 S
H1679 C1688 0.929 . S
C1680 H1674 0.930 . S
C1680 C1681 1.367 . S
C1680 C1688 1.378 . S
C1681 C1680 1.367 . S
C1681 C1689 1.433 . S
C1682 H1678 0.925 1_554 S
C1682 C1684 1.378 . S
C1682 C1686 1.350 . S
C1683 C1686 1.463 . S
C1683 C1688 1.350 . S
C1683 N1691 1.427 . S
C1684 H1675 0.926 1_554 S
C1684 C1682 1.378 . S
C1684 C1685 1.367 . S
C1685 C1684 1.367 . S
C1685 C1687 1.433 . S
C1686 C1682 1.350 . S
C1686 C1683 1.463 . S
C1686 N1690 1.427 . S
C1687 H1677 0.929 . S
C1687 C1685 1.433 . S
C1687 N1690 1.384 . S
C1688 H1679 0.929 . S
C1688 C1680 1.378 . S
C1688 C1683 1.350 . S
C1689 H1676 0.915 1_554 S
C1689 C1681 1.433 . S
C1689 N1691 1.384 . S
N1690 C1686 1.427 . S
N1690 C1687 1.384 . S
N1691 C1683 1.427 . S
N1691 C1689 1.384 . S
H1692 C1698 0.930 . S
H1693 C1702 0.930 . S
H1694 C1707 0.929 . S
H1695 C1705 0.929 . S
H1696 C1700 0.929 . S
H1697 C1706 0.929 . S
C1698 H1692 0.930 . S
C1698 C1699 1.367 . S
C1698 C1706 1.378 . S
C1699 C1698 1.367 . S
C1699 C1707 1.433 . S
C1700 H1696 0.929 . S
C1700 C1702 1.378 . S
C1700 C1704 1.350 . S
C1701 C1704 1.463 . S
C1701 C1706 1.350 . S
C1701 N1709 1.427 . S
C1702 H1693 0.930 . S
C1702 C1700 1.378 . S
C1702 C1703 1.367 . S
C1703 C1702 1.367 . S
C1703 C1705 1.433 . S
C1704 C1700 1.350 . S
C1704 C1701 1.463 . S
C1704 N1708 1.427 . S
C1705 H1695 0.929 . S
C1705 C1703 1.433 . S
C1705 N1708 1.384 . S
C1706 H1697 0.929 . S
C1706 C1698 1.378 . S
C1706 C1701 1.350 . S
C1707 H1694 0.929 . S
C1707 C1699 1.433 . S
C1707 N1709 1.384 . S
N1708 C1704 1.427 . S
N1708 C1705 1.384 . S
N1709 C1701 1.427 . S
N1709 C1707 1.384 . S
H1710 C1716 0.930 . S
H1711 C1720 0.930 . S
H1712 C1725 0.929 . S
H1713 C1723 0.929 . S
H1714 C1718 0.929 . S
H1715 C1724 0.929 . S
C1716 H1710 0.930 . S
C1716 C1717 1.367 . S
C1716 C1724 1.378 . S
C1717 C1716 1.367 . S
C1717 C1725 1.433 . S
C1718 H1714 0.929 . S
C1718 C1720 1.378 . S
C1718 C1722 1.350 . S
C1719 C1722 1.463 . S
C1719 C1724 1.350 . S
C1719 N1727 1.427 . S
C1720 H1711 0.930 . S
C1720 C1718 1.378 . S
C1720 C1721 1.367 . S
C1721 C1720 1.367 . S
C1721 C1723 1.433 . S
C1722 C1718 1.350 . S
C1722 C1719 1.463 . S
C1722 N1726 1.427 . S
C1723 H1713 0.929 . S
C1723 C1721 1.433 . S
C1723 N1726 1.384 . S
C1724 H1715 0.929 . S
C1724 C1716 1.378 . S
C1724 C1719 1.350 . S
C1725 H1712 0.929 . S
C1725 C1717 1.433 . S
C1725 N1727 1.384 . S
N1726 C1722 1.427 . S
N1726 C1723 1.384 . S
N1727 C1719 1.427 . S
N1727 C1725 1.384 . S
H1728 C1734 0.930 . S
H1729 C1738 0.930 . S
H1730 C1743 0.929 . S
H1731 C1741 0.929 . S
H1732 C1736 0.929 . S
H1733 C1742 0.929 . S
C1734 H1728 0.930 . S
C1734 C1735 1.367 . S
C1734 C1742 1.378 . S
C1735 C1734 1.367 . S
C1735 C1743 1.433 . S
C1736 H1732 0.929 . S
C1736 C1738 1.378 . S
C1736 C1740 1.350 . S
C1737 C1740 1.463 . S
C1737 C1742 1.350 . S
C1737 N1745 1.427 . S
C1738 H1729 0.930 . S
C1738 C1736 1.378 . S
C1738 C1739 1.367 . S
C1739 C1738 1.367 . S
C1739 C1741 1.433 . S
C1740 C1736 1.350 . S
C1740 C1737 1.463 . S
C1740 N1744 1.427 . S
C1741 H1731 0.929 . S
C1741 C1739 1.433 . S
C1741 N1744 1.384 . S
C1742 H1733 0.929 . S
C1742 C1734 1.378 . S
C1742 C1737 1.350 . S
C1743 H1730 0.929 . S
C1743 C1735 1.433 . S
C1743 N1745 1.384 . S
N1744 C1740 1.427 . S
N1744 C1741 1.384 . S
N1745 C1737 1.427 . S
N1745 C1743 1.384 . S
H1746 C1752 0.930 . S
H1747 C1756 0.930 . S
H1748 C1761 0.929 . S
H1749 C1759 0.929 . S
H1750 C1754 0.929 . S
H1751 C1760 0.929 . S
C1752 H1746 0.930 . S
C1752 C1753 1.367 . S
C1752 C1760 1.378 . S
C1753 C1752 1.367 . S
C1753 C1761 1.433 . S
C1754 H1750 0.929 . S
C1754 C1756 1.378 . S
C1754 C1758 1.350 . S
C1755 C1758 1.463 . S
C1755 C1760 1.350 . S
C1755 N1763 1.427 . S
C1756 H1747 0.930 . S
C1756 C1754 1.378 . S
C1756 C1757 1.367 . S
C1757 C1756 1.367 . S
C1757 C1759 1.433 . S
C1758 C1754 1.350 . S
C1758 C1755 1.463 . S
C1758 N1762 1.427 . S
C1759 H1749 0.929 . S
C1759 C1757 1.433 . S
C1759 N1762 1.384 . S
C1760 H1751 0.929 . S
C1760 C1752 1.378 . S
C1760 C1755 1.350 . S
C1761 H1748 0.929 . S
C1761 C1753 1.433 . S
C1761 N1763 1.384 . S
N1762 C1758 1.427 . S
N1762 C1759 1.384 . S
N1763 C1755 1.427 . S
N1763 C1761 1.384 . S
H1764 C1770 0.930 . S
H1765 C1774 0.930 . S
H1766 C1779 0.929 . S
H1767 C1777 0.929 . S
H1768 C1772 0.929 . S
H1769 C1778 0.929 . S
C1770 H1764 0.930 . S
C1770 C1771 1.367 . S
C1770 C1778 1.378 . S
C1771 C1770 1.367 . S
C1771 C1779 1.433 . S
C1772 H1768 0.929 . S
C1772 C1774 1.378 . S
C1772 C1776 1.350 . S
C1773 C1776 1.463 . S
C1773 C1778 1.350 . S
C1773 N1781 1.427 . S
C1774 H1765 0.930 . S
C1774 C1772 1.378 . S
C1774 C1775 1.367 . S
C1775 C1774 1.367 . S
C1775 C1777 1.433 . S
C1776 C1772 1.350 . S
C1776 C1773 1.463 . S
C1776 N1780 1.427 . S
C1777 H1767 0.929 . S
C1777 C1775 1.433 . S
C1777 N1780 1.384 . S
C1778 H1769 0.929 . S
C1778 C1770 1.378 . S
C1778 C1773 1.350 . S
C1779 H1766 0.929 . S
C1779 C1771 1.433 . S
C1779 N1781 1.384 . S
N1780 C1776 1.427 . S
N1780 C1777 1.384 . S
N1781 C1773 1.427 . S
N1781 C1779 1.384 . S
H1782 C1788 0.930 . S
H1783 C1792 0.930 . S
H1784 C1797 0.929 . S
H1785 C1795 0.929 . S
H1786 C1790 0.929 . S
H1787 C1796 0.929 . S
C1788 H1782 0.930 . S
C1788 C1789 1.367 . S
C1788 C1796 1.378 . S
C1789 C1788 1.367 . S
C1789 C1797 1.433 . S
C1790 H1786 0.929 . S
C1790 C1792 1.378 . S
C1790 C1794 1.350 . S
C1791 C1794 1.463 . S
C1791 C1796 1.350 . S
C1791 N1799 1.427 . S
C1792 H1783 0.930 . S
C1792 C1790 1.378 . S
C1792 C1793 1.367 . S
C1793 C1792 1.367 . S
C1793 C1795 1.433 . S
C1794 C1790 1.350 . S
C1794 C1791 1.463 . S
C1794 N1798 1.427 . S
C1795 H1785 0.929 . S
C1795 C1793 1.433 . S
C1795 N1798 1.384 . S
C1796 H1787 0.929 . S
C1796 C1788 1.378 . S
C1796 C1791 1.350 . S
C1797 H1784 0.929 . S
C1797 C1789 1.433 . S
C1797 N1799 1.384 . S
N1798 C1794 1.427 . S
N1798 C1795 1.384 . S
N1799 C1791 1.427 . S
N1799 C1797 1.384 . S
C511 C78 1.510 . S
C515 C8 1.511 . S
C529 C50 1.513 . S
C533 C22 1.507 . S
C547 C36 1.507 . S
C551 C64 1.514 . S
C565 C92 1.509 . S
C569 C162 1.512 . S
C583 C106 1.508 . S
C587 C134 1.514 . S
C601 C148 1.513 . S
C605 C120 1.508 . S
C619 C176 1.509 . S
C623 C246 1.512 . S
C637 C190 1.507 . S
C641 C218 1.514 . S
C655 C204 1.508 . S
C659 C232 1.513 . S
C673 C330 1.512 . S
C677 C260 1.509 . S
C691 C274 1.510 . S
C695 C302 1.512 . S
C709 C316 1.510 . S
C713 C288 1.511 . S
C727 C414 1.512 . S
C731 C344 1.508 . S
C745 C386 1.507 . S
C749 C358 1.513 . S
C763 C400 1.512 . S
C767 C372 1.508 . S
C781 C428 1.510 . S
C785 C498 1.511 . S
C799 C442 1.511 . S
C803 C470 1.510 . S
C817 C456 1.513 . S
C821 C484 1.507 . S
C835 C77 1.524 . S
C839 C7 1.524 . S
C853 C21 1.524 . S
C857 C49 1.524 . S
C871 C63 1.524 . S
C875 C35 1.523 . S
C889 C91 1.527 . S
C893 C161 1.527 . S
C907 C105 1.526 . S
C911 C133 1.526 . S
C925 C147 1.525 . S
C929 C119 1.525 . S
C943 C175 1.525 . S
C947 C245 1.525 . S
C961 C217 1.531 . S
C965 C189 1.531 . S
C979 C231 1.524 . S
C983 C203 1.524 . S
C997 C259 1.524 . S
C1001 C329 1.525 . S
C1015 C273 1.525 . S
C1019 C301 1.525 . S
C1033 C315 1.531 . S
C1037 C287 1.532 . S
C1051 C413 1.535 . S
C1055 C343 1.535 . S
C1069 C357 1.535 . S
C1073 C385 1.535 . S
C1087 C371 1.528 . S
C1091 C399 1.528 . S
C1105 C497 1.524 . S
C1109 C427 1.524 . S
C1123 C469 1.535 . S
C1127 C441 1.535 . S
C1141 C483 1.532 . S
C1145 C455 1.532 . S
C1159 C233 1.645 . S
C1163 C9 1.646 . S
C1177 C247 1.647 . S
C1181 C23 1.649 . S
C1195 C219 1.649 . S
C1199 C37 1.647 . S
C1213 C51 1.649 . S
C1217 C373 1.647 . S
C1231 C65 1.646 . S
C1235 C345 1.645 . S
C1249 C79 1.649 . S
C1253 C359 1.647 . S
C1267 C93 1.648 . S
C1271 C485 1.645 . S
C1285 C107 1.645 . S
C1289 C499 1.644 . S
C1303 C121 1.645 . S
C1307 C471 1.646 . S
C1321 C135 1.647 . S
C1325 C289 1.644 . S
C1339 C261 1.647 . S
C1343 C149 1.645 . S
C1357 C275 1.648 . S
C1361 C163 1.647 . S
C1375 C401 1.649 . S
C1379 C177 1.646 . S
C1393 C191 1.644 . S
C1397 C415 1.647 . S
C1411 C205 1.645 . S
C1415 C387 1.645 . S
C1429 C303 1.647 . S
C1433 C457 1.649 . S
C1447 C317 1.648 . S
C1451 C429 1.644 . S
C1465 C443 1.646 . S
C1469 C331 1.645 . S
C1483 C3 1.312 . S
C1487 C143 1.308 . S
C1501 C157 1.312 . S
C1505 C17 1.308 . S
C1519 C129 1.312 . S
C1523 C31 1.307 . S
C1537 C45 1.313 . S
C1541 C115 1.307 . S
C1555 C59 1.312 . S
C1559 C87 1.307 . S
C1573 C73 1.311 . S
C1577 C101 1.309 . S
C1591 C171 1.309 . S
C1595 C311 1.310 . S
C1609 C325 1.309 . S
C1613 C185 1.311 . S
C1627 C297 1.307 . S
C1631 C199 1.312 . S
C1645 C213 1.307 . S
C1649 C283 1.313 . S
C1663 C227 1.309 . S
C1667 C255 1.311 . S
C1681 C269 1.308 . S
C1685 C241 1.313 . S
C1699 C339 1.309 . S
C1703 C479 1.311 . S
C1717 C493 1.313 . S
C1721 C353 1.308 . S
C1735 C367 1.307 . S
C1739 C465 1.312 . S
C1753 C381 1.313 . S
C1757 C451 1.307 . S
C1771 C423 1.312 . S
C1775 C395 1.307 . S
C1789 C409 1.310 . S
C1793 C437 1.310 . S
