# Generated by pormake.
# Topology whe, (6)-cn, num edge types: 1
# Building blocks:
#     Node 0, Type 0, BuildingBlock: IZENUY_clean_sbu_0, # of connection points: 6
#     Node 1, Type 0, BuildingBlock: IZENUY_clean_sbu_0, # of connection points: 6
#     Node 2, Type 0, BuildingBlock: IZENUY_clean_sbu_0, # of connection points: 6
#     Node 3, Type 0, BuildingBlock: IZENUY_clean_sbu_0, # of connection points: 6
#     Node 4, Type 0, BuildingBlock: IZENUY_clean_sbu_0, # of connection points: 6
#     Node 5, Type 0, BuildingBlock: IZENUY_clean_sbu_0, # of connection points: 6
#     Node 6, Type 0, BuildingBlock: IZENUY_clean_sbu_0, # of connection points: 6
#     Node 7, Type 0, BuildingBlock: IZENUY_clean_sbu_0, # of connection points: 6
#     Node 8, Type 0, BuildingBlock: IZENUY_clean_sbu_0, # of connection points: 6
#     Node 9, Type 0, BuildingBlock: IZENUY_clean_sbu_0, # of connection points: 6
#     Node 10, Type 0, BuildingBlock: IZENUY_clean_sbu_0, # of connection points: 6
#     Node 11, Type 0, BuildingBlock: IZENUY_clean_sbu_0, # of connection points: 6
#     Node 12, Type 0, BuildingBlock: IZENUY_clean_sbu_0, # of connection points: 6
#     Node 13, Type 0, BuildingBlock: IZENUY_clean_sbu_0, # of connection points: 6
#     Node 14, Type 0, BuildingBlock: IZENUY_clean_sbu_0, # of connection points: 6
#     Node 15, Type 0, BuildingBlock: IZENUY_clean_sbu_0, # of connection points: 6
#     Edge 16, Type (0, 0), BuildingBlock: CIFDUS_clean_linker_0, # of connection points: 2
#     Edge 17, Type (0, 0), BuildingBlock: CIFDUS_clean_linker_0, # of connection points: 2
#     Edge 18, Type (0, 0), BuildingBlock: CIFDUS_clean_linker_0, # of connection points: 2
#     Edge 19, Type (0, 0), BuildingBlock: CIFDUS_clean_linker_0, # of connection points: 2
#     Edge 20, Type (0, 0), BuildingBlock: CIFDUS_clean_linker_0, # of connection points: 2
#     Edge 21, Type (0, 0), BuildingBlock: CIFDUS_clean_linker_0, # of connection points: 2
#     Edge 22, Type (0, 0), BuildingBlock: CIFDUS_clean_linker_0, # of connection points: 2
#     Edge 23, Type (0, 0), BuildingBlock: CIFDUS_clean_linker_0, # of connection points: 2
#     Edge 24, Type (0, 0), BuildingBlock: CIFDUS_clean_linker_0, # of connection points: 2
#     Edge 25, Type (0, 0), BuildingBlock: CIFDUS_clean_linker_0, # of connection points: 2
#     Edge 26, Type (0, 0), BuildingBlock: CIFDUS_clean_linker_0, # of connection points: 2
#     Edge 27, Type (0, 0), BuildingBlock: CIFDUS_clean_linker_0, # of connection points: 2
#     Edge 28, Type (0, 0), BuildingBlock: CIFDUS_clean_linker_0, # of connection points: 2
#     Edge 29, Type (0, 0), BuildingBlock: CIFDUS_clean_linker_0, # of connection points: 2
#     Edge 30, Type (0, 0), BuildingBlock: CIFDUS_clean_linker_0, # of connection points: 2
#     Edge 31, Type (0, 0), BuildingBlock: CIFDUS_clean_linker_0, # of connection points: 2
#     Edge 32, Type (0, 0), BuildingBlock: CIFDUS_clean_linker_0, # of connection points: 2
#     Edge 33, Type (0, 0), BuildingBlock: CIFDUS_clean_linker_0, # of connection points: 2
#     Edge 34, Type (0, 0), BuildingBlock: CIFDUS_clean_linker_0, # of connection points: 2
#     Edge 35, Type (0, 0), BuildingBlock: CIFDUS_clean_linker_0, # of connection points: 2
#     Edge 36, Type (0, 0), BuildingBlock: CIFDUS_clean_linker_0, # of connection points: 2
#     Edge 37, Type (0, 0), BuildingBlock: CIFDUS_clean_linker_0, # of connection points: 2
#     Edge 38, Type (0, 0), BuildingBlock: CIFDUS_clean_linker_0, # of connection points: 2
#     Edge 39, Type (0, 0), BuildingBlock: CIFDUS_clean_linker_0, # of connection points: 2
#     Edge 40, Type (0, 0), BuildingBlock: CIFDUS_clean_linker_0, # of connection points: 2
#     Edge 41, Type (0, 0), BuildingBlock: CIFDUS_clean_linker_0, # of connection points: 2
#     Edge 42, Type (0, 0), BuildingBlock: CIFDUS_clean_linker_0, # of connection points: 2
#     Edge 43, Type (0, 0), BuildingBlock: CIFDUS_clean_linker_0, # of connection points: 2
#     Edge 44, Type (0, 0), BuildingBlock: CIFDUS_clean_linker_0, # of connection points: 2
#     Edge 45, Type (0, 0), BuildingBlock: CIFDUS_clean_linker_0, # of connection points: 2
#     Edge 46, Type (0, 0), BuildingBlock: CIFDUS_clean_linker_0, # of connection points: 2
#     Edge 47, Type (0, 0), BuildingBlock: CIFDUS_clean_linker_0, # of connection points: 2
#     Edge 48, Type (0, 0), BuildingBlock: CIFDUS_clean_linker_0, # of connection points: 2
#     Edge 49, Type (0, 0), BuildingBlock: CIFDUS_clean_linker_0, # of connection points: 2
#     Edge 50, Type (0, 0), BuildingBlock: CIFDUS_clean_linker_0, # of connection points: 2
#     Edge 51, Type (0, 0), BuildingBlock: CIFDUS_clean_linker_0, # of connection points: 2
#     Edge 52, Type (0, 0), BuildingBlock: CIFDUS_clean_linker_0, # of connection points: 2
#     Edge 53, Type (0, 0), BuildingBlock: CIFDUS_clean_linker_0, # of connection points: 2
#     Edge 54, Type (0, 0), BuildingBlock: CIFDUS_clean_linker_0, # of connection points: 2
#     Edge 55, Type (0, 0), BuildingBlock: CIFDUS_clean_linker_0, # of connection points: 2
#     Edge 56, Type (0, 0), BuildingBlock: CIFDUS_clean_linker_0, # of connection points: 2
#     Edge 57, Type (0, 0), BuildingBlock: CIFDUS_clean_linker_0, # of connection points: 2
#     Edge 58, Type (0, 0), BuildingBlock: CIFDUS_clean_linker_0, # of connection points: 2
#     Edge 59, Type (0, 0), BuildingBlock: CIFDUS_clean_linker_0, # of connection points: 2
#     Edge 60, Type (0, 0), BuildingBlock: CIFDUS_clean_linker_0, # of connection points: 2
#     Edge 61, Type (0, 0), BuildingBlock: CIFDUS_clean_linker_0, # of connection points: 2
#     Edge 62, Type (0, 0), BuildingBlock: CIFDUS_clean_linker_0, # of connection points: 2
#     Edge 63, Type (0, 0), BuildingBlock: CIFDUS_clean_linker_0, # of connection points: 2
# Relax obj value: 0.462
# Max RMSD: 0.278
# Mean RMSD: 0.278
data_MOF--net-whe--node1-IZENUY_clean_sbu_0--edge1-CIFDUS_clean_linker_0
_symmetry_space_group_name_H-M    P1
_symmetry_Int_Tables_number       1
_symmetry_cell_setting            triclinic
loop_
_symmetry_equiv_pos_as_xyz
'x, y, z'
_cell_length_a     29.593458
_cell_length_b     29.680339
_cell_length_c     47.559783
_cell_angle_alpha  88.875772
_cell_angle_beta   90.584474
_cell_angle_gamma 89.923256
loop_
_atom_site_label
_atom_site_type_symbol
_atom_site_fract_x
_atom_site_fract_y
_atom_site_fract_z
_atom_type_partial_charge
Fe0 Fe 0.104 0.27157 0.19472 0.0
Fe1 Fe 0.07448 0.34044 0.14917 0.0
O2 O 0.11732 0.31592 0.17103 0.0
Fe3 Fe 0.17262 0.33836 0.16766 0.0
O4 O 0.19241 0.32676 0.20448 0.0
O5 O 0.13473 0.29433 0.2248 0.0
O6 O 0.05354 0.30183 0.20678 0.0
C7 C 0.03844 0.3415 0.20126 0.0
C8 C 0.18278 0.24474 0.16638 0.0
O9 O 0.04832 0.3639 0.17939 0.0
C10 C 0.14032 0.32533 0.11206 0.0
O11 O 0.07252 0.23982 0.16848 0.0
O12 O 0.03408 0.29525 0.15041 0.0
O13 O 0.19472 0.2837 0.15779 0.0
O14 O 0.15242 0.23837 0.18468 0.0
C15 C 0.1196 0.41525 0.16259 0.0
O16 O 0.10039 0.31568 0.11923 0.0
O17 O 0.16634 0.3476 0.12852 0.0
C18 C 0.03899 0.254 0.15465 0.0
O19 O 0.10543 0.39212 0.14288 0.0
O20 O 0.14998 0.39615 0.17807 0.0
C21 C 0.17567 0.30616 0.22564 0.0
Fe22 Fe 0.70317 0.14831 0.17138 0.0
Fe23 Fe 0.77194 0.07788 0.19132 0.0
O24 O 0.72197 0.09188 0.17217 0.0
Fe25 Fe 0.69349 0.04739 0.15506 0.0
O26 O 0.63948 0.06197 0.16711 0.0
O27 O 0.64286 0.13314 0.18008 0.0
O28 O 0.7125 0.15792 0.20972 0.0
C29 C 0.75086 0.15508 0.22159 0.0
C30 C 0.68481 0.11905 0.11555 0.0
O31 O 0.77933 0.12917 0.21143 0.0
C32 C 0.77236 1.00577 0.15443 0.0
O33 O 0.76213 0.16654 0.16199 0.0
O34 O 0.80423 0.1031 0.16363 0.0
O35 O 0.68478 0.07767 0.12204 0.0
O36 O 0.69139 0.14912 0.13357 0.0
C37 C 0.70404 0.02767 0.21246 0.0
O38 O 0.78063 0.02126 0.17812 0.0
O39 O 0.74473 0.02672 0.13938 0.0
C40 C 0.79836 0.14416 0.1559 0.0
O41 O 0.73636 0.05461 0.21789 0.0
O42 O 0.69701 1.01259 0.18777 0.0
C43 C 0.62186 0.09545 0.17798 0.0
Fe44 Fe 0.90837 0.70095 0.15488 0.0
Fe45 Fe 0.94318 0.79754 0.15262 0.0
O46 O 0.95297 0.73913 0.14834 0.0
Fe47 Fe 1.00591 0.72085 0.136 0.0
O48 O 1.01429 0.68115 0.16449 0.0
O49 O 0.94596 0.65273 0.16643 0.0
O50 O 0.90439 0.71919 0.19202 0.0
C51 C 0.89363 0.75952 0.19808 0.0
C52 C 0.9419 0.67344 0.10321 0.0
O53 O 0.8985 0.79064 0.17966 0.0
C54 C 1.00801 0.79998 0.10891 0.0
O55 O 0.86391 0.74201 0.14324 0.0
O56 O 0.90334 0.79674 0.12379 0.0
O57 O 0.98221 0.6784 0.11212 0.0
O58 O 0.90863 0.68272 0.11859 0.0
C59 C 0.02287 0.7831 0.17951 0.0
O60 O 0.98708 0.81833 0.12856 0.0
O61 O 1.00274 0.7587 0.10591 0.0
C62 C 0.86654 0.77567 0.12613 0.0
O63 O 0.98303 0.79808 0.18083 0.0
O64 O 0.03683 0.76064 0.15872 0.0
C65 C 0.98823 0.65022 0.17211 0.0
Fe66 Fe 0.34839 0.87434 0.15106 0.0
Fe67 Fe 0.27653 0.94079 0.17246 0.0
O68 O 0.32504 0.9292 0.15273 0.0
Fe69 Fe 0.35299 0.97374 0.1345 0.0
O70 O 0.40707 0.94511 0.13422 0.0
O71 O 0.40236 0.89647 0.16786 0.0
O72 O 0.32921 0.85348 0.18669 0.0
C73 C 0.31027 0.87278 0.20721 0.0
C74 C 0.35345 0.91132 0.09458 0.0
O75 O 0.29748 0.91311 0.20436 0.0
C76 C 0.26364 1.00452 0.13128 0.0
O77 O 0.29637 0.85269 0.1351 0.0
O78 O 0.24746 0.89021 0.16117 0.0
O79 O 0.3375 0.94908 0.10152 0.0
O80 O 0.368 0.88333 0.11364 0.0
C81 C 0.34227 1.00433 0.18759 0.0
O82 O 0.24865 0.96935 0.14286 0.0
O83 O 0.30536 1.01148 0.13134 0.0
C84 C 0.25616 0.86224 0.14211 0.0
O85 O 0.30078 0.99328 0.18609 0.0
O86 O 0.36868 0.99815 0.16747 0.0
C87 C 0.42427 0.92884 0.15619 0.0
Fe88 Fe 0.13053 0.76496 0.37639 0.0
Fe89 Fe 0.07457 0.67943 0.38296 0.0
O90 O 0.12724 0.70625 0.38006 0.0
Fe91 Fe 0.17786 0.67413 0.38139 0.0
O92 O 0.19133 0.69188 0.34459 0.0
O93 O 0.18245 0.76374 0.35456 0.0
O94 O 0.1003 0.76446 0.34409 0.0
C95 C 0.06352 0.74481 0.33936 0.0
C96 C 0.20076 0.7527 0.41112 0.0
O97 O 0.04641 0.71701 0.35692 0.0
C98 C 0.12934 0.64335 0.4269 0.0
O99 O 0.07854 0.77741 0.39579 0.0
O100 O 0.05723 0.71187 0.41237 0.0
O101 O 0.21312 0.72058 0.39555 0.0
O102 O 0.16078 0.76671 0.40922 0.0
C103 C 0.11342 0.61265 0.3568 0.0
O104 O 0.09579 0.63864 0.41011 0.0
O105 O 0.16657 0.65847 0.41782 0.0
C106 C 0.05433 0.75384 0.41214 0.0
O107 O 0.08751 0.64528 0.35331 0.0
O108 O 0.15091 0.62009 0.3694 0.0
C109 C 0.19684 0.73368 0.33798 0.0
Fe110 Fe 0.35575 0.13875 0.39871 0.0
Fe111 Fe 0.28814 0.06811 0.37539 0.0
O112 O 0.3389 0.08279 0.39229 0.0
Fe113 Fe 0.37694 0.03885 0.40279 0.0
O114 O 0.42474 0.07465 0.40917 0.0
O115 O 0.41236 0.128 0.38047 0.0
O116 O 0.33376 0.16481 0.36481 0.0
C117 C 0.30489 0.1512 0.34666 0.0
C118 C 0.36677 0.08507 0.45061 0.0
O119 O 0.29093 0.11097 0.34754 0.0
C120 C 0.29902 0.99069 0.40688 0.0
O121 O 0.30196 0.15344 0.41538 0.0
O122 O 0.25428 0.10438 0.39631 0.0
O123 O 0.36124 0.04718 0.43878 0.0
O124 O 0.37488 0.12137 0.43577 0.0
C125 C 0.36135 0.02905 0.34698 0.0
O126 O 0.27503 0.02458 0.40178 0.0
O127 O 0.33925 0.99158 0.39982 0.0
C128 C 0.26261 0.13671 0.41238 0.0
O129 O 0.31894 0.0302 0.35199 0.0
O130 O 0.39107 0.03285 0.36615 0.0
C131 C 0.44003 0.09835 0.39008 0.0
Fe132 Fe 0.96384 0.26988 0.37525 0.0
Fe133 Fe 0.98699 0.35428 0.4087 0.0
O134 O 0.94627 0.31875 0.39235 0.0
Fe135 Fe 0.88906 0.33622 0.3939 0.0
O136 O 0.87227 0.32319 0.35747 0.0
O137 O 0.92187 0.27157 0.34661 0.0
O138 O 1.00158 0.30528 0.35354 0.0
C139 C 1.00945 0.34801 0.35332 0.0
C140 C 0.88956 0.24199 0.40748 0.0
O141 O 1.00379 0.37341 0.37423 0.0
C142 C 0.92766 0.33408 0.44951 0.0
O143 O 1.00786 0.25378 0.40092 0.0
O144 O 0.03583 0.31884 0.40889 0.0
O145 O 0.86984 0.28031 0.40639 0.0
O146 O 0.92714 0.23456 0.39588 0.0
C147 C 0.93189 0.41956 0.39232 0.0
O148 O 0.96893 0.33211 0.44214 0.0
O149 O 0.8964 0.34822 0.43237 0.0
C150 C 0.03987 0.27742 0.40937 0.0
O151 O 0.949 0.40111 0.41325 0.0
O152 O 0.90476 0.39426 0.37931 0.0
C153 C 0.88557 0.29254 0.34139 0.0
Fe154 Fe 0.81739 0.93911 0.3746 0.0
Fe155 Fe 0.7351 0.98212 0.4013 0.0
O156 O 0.7605 0.93443 0.38594 0.0
Fe157 Fe 0.73135 0.88285 0.38264 0.0
O158 O 0.74283 0.87884 0.34443 0.0
O159 O 0.81504 0.89342 0.34866 0.0
O160 O 0.79961 0.97806 0.34716 0.0
C161 C 0.77391 1.01122 0.35178 0.0
C162 C 0.81956 0.86085 0.40447 0.0
O163 O 0.76445 0.0207 0.37693 0.0
C164 C 0.70508 0.90993 0.43586 0.0
O165 O 0.83327 0.98534 0.3978 0.0
O166 O 0.77901 0.98473 0.42795 0.0
O167 O 0.78299 0.84888 0.39193 0.0
O168 O 0.8345 0.90054 0.40187 0.0
C169 C 0.66286 0.95259 0.3706 0.0
O170 O 0.7018 0.95053 0.42745 0.0
O171 O 0.71967 0.87994 0.41996 0.0
C172 C 0.81839 0.99602 0.42155 0.0
O173 O 0.68945 0.98371 0.37661 0.0
O174 O 0.6747 0.91103 0.3744 0.0
C175 C 0.78283 0.87623 0.33483 0.0
Fe176 Fe 0.93584 0.77296 0.8719 0.0
Fe177 Fe 0.98319 0.68468 0.88491 0.0
O178 O 0.93329 0.71614 0.88196 0.0
Fe179 Fe 0.88022 0.69223 0.89025 0.0
O180 O 0.85949 0.70261 0.85322 0.0
O181 O 0.87856 0.77412 0.85516 0.0
O182 O 0.95517 0.75927 0.8382 0.0
C183 C 0.98704 0.73252 0.83352 0.0
C184 C 0.87546 0.78261 0.91069 0.0
O185 O 1.00756 0.71073 0.85309 0.0
C186 C 0.93445 0.66416 0.9349 0.0
O187 O 0.99409 0.78299 0.88364 0.0
O188 O 1.00938 0.72356 0.90883 0.0
O189 O 0.85491 0.74776 0.90142 0.0
O190 O 0.91704 0.78536 0.90664 0.0
C191 C 0.93199 0.61716 0.86827 0.0
O192 O 0.96502 0.65406 0.91732 0.0
O193 O 0.8981 0.68325 0.92672 0.0
C194 C 0.02 0.76229 0.90066 0.0
O195 O 0.96102 0.64476 0.86075 0.0
O196 O 0.8983 0.63198 0.88223 0.0
C197 C 0.85669 0.74299 0.84301 0.0
Fe198 Fe 0.33636 0.88528 0.87375 0.0
Fe199 Fe 0.24402 0.93656 0.87267 0.0
O200 O 0.30302 0.93397 0.87949 0.0
Fe201 Fe 0.33007 0.98349 0.89216 0.0
O202 O 0.38673 0.96869 0.88346 0.0
O203 O 0.37905 0.9173 0.85259 0.0
O204 O 0.30801 0.86978 0.83983 0.0
C205 C 0.27163 0.8826 0.8272 0.0
C206 C 0.35599 0.91749 0.9293 0.0
O207 O 0.24723 0.91327 0.83735 0.0
C208 C 0.24541 0.99612 0.91537 0.0
O209 O 0.29897 0.84783 0.8934 0.0
O210 O 0.23273 0.8817 0.88737 0.0
O211 O 0.33767 0.95612 0.92605 0.0
O212 O 0.3663 0.89293 0.90824 0.0
C213 C 0.28452 1.00742 0.84445 0.0
O214 O 0.2315 0.95843 0.90749 0.0
O215 O 0.28061 1.01161 0.90467 0.0
C216 C 0.25687 0.84979 0.89691 0.0
O217 O 0.24969 0.99318 0.85719 0.0
O218 O 0.3223 1.00893 0.85738 0.0
C219 C 0.39925 0.95213 0.86112 0.0
Fe220 Fe 0.1506 0.32765 0.88997 0.0
Fe221 Fe 0.07113 0.26532 0.87375 0.0
O222 O 0.09317 0.31123 0.89236 0.0
Fe223 Fe 0.05708 0.34347 0.91416 0.0
O224 O 0.09262 0.39307 0.91279 0.0
O225 O 0.13147 0.385 0.87555 0.0
O226 O 0.16114 0.30748 0.85348 0.0
C227 C 0.13674 0.28856 0.83496 0.0
C228 C 0.12971 0.33104 0.94804 0.0
O229 O 0.09553 0.28131 0.83994 0.0
C230 C 1.01525 0.25959 0.91922 0.0
O231 O 0.16929 0.27277 0.90393 0.0
O232 O 0.11899 0.22924 0.88239 0.0
O233 O 0.08789 0.32262 0.94485 0.0
O234 O 0.15328 0.34571 0.92735 0.0
C235 C 1.01474 0.34059 0.86298 0.0
O236 O 0.04502 0.24089 0.90497 0.0
O237 O 1.01361 0.30162 0.91984 0.0
C238 C 0.15288 0.23421 0.89857 0.0
O239 O 0.02022 0.29789 0.86337 0.0
O240 O 0.02705 0.36426 0.88343 0.0
C241 C 0.10513 0.40981 0.88994 0.0
Fe242 Fe 0.75283 0.08681 0.87719 0.0
Fe243 Fe 0.66628 0.05896 0.90748 0.0
O244 O 0.70175 0.10204 0.89325 0.0
Fe245 Fe 0.68245 0.1586 0.8949 0.0
O246 O 0.70641 0.17956 0.86069 0.0
O247 O 0.74391 0.12112 0.84549 0.0
O248 O 0.72571 0.04015 0.85855 0.0
C249 C 0.68371 0.03391 0.85397 0.0
C250 C 0.77421 0.16327 0.90975 0.0
O251 O 0.6545 0.04116 0.87235 0.0
C252 C 0.669 0.11747 0.94976 0.0
O253 O 0.77071 0.05112 0.90695 0.0
O254 O 0.70791 1.01492 0.91156 0.0
O255 O 0.73389 0.1769 0.91302 0.0
O256 O 0.78421 0.13131 0.89369 0.0
C257 C 0.60188 0.1126 0.88532 0.0
O258 O 0.67877 0.07786 0.94229 0.0
O259 O 0.65941 0.14865 0.93137 0.0
C260 C 0.7493 0.0176 0.91619 0.0
O261 O 0.61542 0.09282 0.90704 0.0
O262 O 0.62865 0.14235 0.8753 0.0
C263 C 0.73131 0.16158 0.8423 0.0
Fe264 Fe 0.9364 0.28259 0.68867 0.0
Fe265 Fe 0.95999 0.363 0.65118 0.0
O266 O 0.91974 0.33122 0.67017 0.0
Fe267 Fe 0.86478 0.35349 0.66997 0.0
O268 O 0.85264 0.34486 0.70798 0.0
O269 O 0.89781 0.28785 0.71811 0.0
O270 O 0.97857 0.3168 0.70766 0.0
C271 C 0.98479 0.35983 0.70681 0.0
C272 C 0.85648 0.25872 0.66121 0.0
O273 O 0.97833 0.38442 0.68485 0.0
C274 C 0.8966 0.34195 0.61285 0.0
O275 O 0.97559 0.26343 0.66191 0.0
O276 O 1.00811 0.32637 0.65357 0.0
O277 O 0.83913 0.29818 0.6623 0.0
O278 O 0.8955 0.24925 0.67076 0.0
C279 C 0.91337 0.43418 0.66207 0.0
O280 O 0.93855 0.33796 0.61959 0.0
O281 O 0.86735 0.3585 0.6301 0.0
C282 C 1.00866 0.28488 0.65284 0.0
O283 O 0.92201 0.4093 0.64294 0.0
O284 O 0.88878 0.41286 0.67971 0.0
C285 C 0.86409 0.31178 0.72396 0.0
Fe286 Fe 0.75594 0.9497 0.67831 0.0
Fe287 Fe 0.67494 0.9768 0.64149 0.0
O288 O 0.70697 0.93441 0.65953 0.0
Fe289 Fe 0.68598 0.87869 0.65838 0.0
O290 O 0.70406 0.85993 0.69487 0.0
O291 O 0.74301 0.91759 0.71017 0.0
O292 O 0.72633 0.99765 0.69397 0.0
C293 C 0.6838 1.00468 0.69532 0.0
C294 C 0.77934 0.87149 0.64852 0.0
O295 O 0.65725 0.997 0.67505 0.0
C296 C 0.68336 0.91562 0.60131 0.0
O297 O 0.77811 0.9833 0.649 0.0
O298 O 0.71698 0.02046 0.64029 0.0
O299 O 0.73919 0.85759 0.64447 0.0
O300 O 0.78876 0.90383 0.66458 0.0
C301 C 0.60559 0.92802 0.65939 0.0
O302 O 0.69381 0.95527 0.60861 0.0
O303 O 0.66997 0.88595 0.61974 0.0
C304 C 0.75888 0.01776 0.63906 0.0
O305 O 0.62469 0.94265 0.63819 0.0
O306 O 0.62939 0.89928 0.67346 0.0
C307 C 0.7282 0.87813 0.71393 0.0
Fe308 Fe 0.0726 0.7903 0.65174 0.0
Fe309 Fe 0.04316 0.70115 0.62564 0.0
O310 O 0.08583 0.73501 0.64145 0.0
Fe311 Fe 0.14046 0.71154 0.64688 0.0
O312 O 0.15508 0.74272 0.67983 0.0
O313 O 0.09417 0.78256 0.68771 0.0
O314 O 1.01659 0.77409 0.66457 0.0
C315 C 1.00133 0.73537 0.67099 0.0
C316 C 0.15757 0.79772 0.62569 0.0
O317 O 1.01249 0.70052 0.65797 0.0
C318 C 0.11275 0.68513 0.59123 0.0
O319 O 0.05053 0.80546 0.61693 0.0
O320 O 1.00815 0.74686 0.61213 0.0
O321 O 0.16694 0.75598 0.62539 0.0
O322 O 0.12587 0.81321 0.64026 0.0
C323 C 0.08452 0.63943 0.66031 0.0
O324 O 0.07333 0.70119 0.59307 0.0
O325 O 0.13744 0.67875 0.61338 0.0
C326 C 1.01552 0.78775 0.6069 0.0
O327 O 0.06837 0.64766 0.63631 0.0
O328 O 0.11534 0.66541 0.6695 0.0
C329 C 0.13314 0.76931 0.69544 0.0
Fe330 Fe 0.31426 0.04024 0.65111 0.0
Fe331 Fe 0.32297 0.13921 0.66804 0.0
O332 O 0.2893 0.09101 0.66162 0.0
Fe333 Fe 0.23024 0.09482 0.66352 0.0
O334 O 0.22878 0.05299 0.69094 0.0
O335 O 0.27295 1.00414 0.66979 0.0
O336 O 0.34692 0.03681 0.68307 0.0
C337 C 0.37793 0.06387 0.68859 0.0
C338 C 0.24131 0.03526 0.61767 0.0
O339 O 0.37409 0.10516 0.68031 0.0
C340 C 0.24532 0.17484 0.63931 0.0
O341 O 0.35944 0.06814 0.63075 0.0
O342 O 0.34214 0.13988 0.63173 0.0
O343 O 0.21777 0.05168 0.63705 0.0
O344 O 0.2832 0.04022 0.61838 0.0
C345 C 0.26063 0.14969 0.70984 0.0
O346 O 0.27863 0.18039 0.65611 0.0
O347 O 0.23093 0.13573 0.63537 0.0
C348 C 0.35774 0.1067 0.61871 0.0
O349 O 0.30248 0.14279 0.70469 0.0
O350 O 0.23078 0.13811 0.69173 0.0
C351 C 0.24485 1.0138 0.68881 0.0
H352 H 0.14374 0.16311 0.16477 0.0
H353 H 0.26089 0.23693 0.13623 0.0
H354 H 0.29056 0.16842 0.11518 0.0
H355 H 0.28777 0.08663 0.11117 0.0
H356 H 0.17364 1.01238 0.14386 0.0
H357 H 0.13654 0.08304 0.15543 0.0
C358 C 0.17596 0.16431 0.15409 0.0
C359 C 0.2011 0.20452 0.15298 0.0
C360 C 0.19266 0.12509 0.14229 0.0
C361 C 0.24164 0.20601 0.13798 0.0
C362 C 0.25834 0.16702 0.1258 0.0
C363 C 0.25428 0.08584 0.12026 0.0
C364 C 0.23419 0.04432 0.12766 0.0
C365 C 0.23473 0.12618 0.12863 0.0
C366 C 0.19021 0.04386 0.13846 0.0
C367 C 0.16932 0.0842 0.14547 0.0
H368 H 0.95624 0.27998 0.13602 0.0
H369 H 0.03436 0.16167 0.15932 0.0
H370 H 0.966 0.11556 0.15636 0.0
H371 H 0.88388 0.11138 0.15391 0.0
H372 H 0.80497 0.23154 0.13631 0.0
H373 H 0.87461 0.27459 0.12971 0.0
C374 C 0.95867 0.24396 0.14007 0.0
C375 C 1.00031 0.22433 0.14832 0.0
C376 C 0.91915 0.21824 0.13952 0.0
C377 C 1.0027 0.17762 0.15323 0.0
C378 C 0.96363 0.15136 0.1516 0.0
C379 C 0.88158 0.14687 0.14818 0.0
C380 C 0.83908 0.16842 0.14609 0.0
C381 C 0.92154 0.17168 0.1458 0.0
C382 C 0.83713 0.21426 0.13836 0.0
C383 C 0.87693 0.23887 0.13471 0.0
H384 H 0.80493 0.79826 0.16365 0.0
H385 H 0.84263 0.81983 0.07735 0.0
H386 H 0.80935 0.89538 0.0775 0.0
H387 H 0.78799 0.96104 0.10597 0.0
H388 H 0.76537 0.941 0.19484 0.0
H389 H 0.77563 0.86026 0.19045 0.0
C390 C 0.80391 0.81876 0.14453 0.0
C391 C 0.82667 0.80405 0.12073 0.0
C392 C 0.7898 0.86365 0.14586 0.0
C393 C 0.82513 0.83066 0.09595 0.0
C394 C 0.80724 0.87429 0.0963 0.0
C395 C 0.78507 0.93875 0.1242 0.0
C396 C 0.77736 0.95692 0.15075 0.0
C397 C 0.79272 0.89223 0.12175 0.0
C398 C 0.77282 0.92788 0.17429 0.0
C399 C 0.7781 0.8816 0.17177 0.0
H400 H 0.18336 0.90844 0.1249 0.0
H401 H 0.24106 0.77505 0.12525 0.0
H402 H 0.16904 0.74469 0.10761 0.0
H403 H 0.087 0.7552 0.10043 0.0
H404 H 0.02956 0.88878 0.10372 0.0
H405 H 0.10489 0.92048 0.11048 0.0
C406 C 0.18036 0.87275 0.12072 0.0
C407 C 0.21686 0.84369 0.12695 0.0
C408 C 0.13905 0.85583 0.11109 0.0
C409 C 0.21315 0.79783 0.12084 0.0
C410 C 0.17199 0.78061 0.11085 0.0
C411 C 0.09105 0.79144 0.10153 0.0
C412 C 0.05255 0.81966 0.1019 0.0
C413 C 0.13424 0.80912 0.10696 0.0
C414 C 0.05855 0.86645 0.10346 0.0
C415 C 0.10154 0.88447 0.1077 0.0
H416 H 0.3356 0.90797 0.40256 0.0
H417 H 0.21992 0.97795 0.43515 0.0
H418 H 0.1856 0.90573 0.44848 0.0
H419 H 0.18307 0.82447 0.44309 0.0
H420 H 0.29234 0.75611 0.40208 0.0
H421 H 0.33642 0.82566 0.4018 0.0
C422 C 0.30313 0.9075 0.41294 0.0
C423 C 0.27973 0.94805 0.41739 0.0
C424 C 0.28298 0.86609 0.41939 0.0
C425 C 0.23796 0.94703 0.43102 0.0
C426 C 0.21859 0.90585 0.43878 0.0
C427 C 0.21702 0.82445 0.43467 0.0
C428 C 0.23379 0.78569 0.42164 0.0
C429 C 0.24002 0.8653 0.43199 0.0
C430 C 0.27834 0.78566 0.41179 0.0
C431 C 0.3032 0.82564 0.41118 0.0
H432 H 0.24542 0.22598 0.4166 0.0
H433 H 0.18892 0.09453 0.4332 0.0
H434 H 0.11329 0.12688 0.43582 0.0
H435 H 0.06207 0.19079 0.42518 0.0
H436 H 0.11951 0.32222 0.40873 0.0
H437 H 0.19526 0.29177 0.41423 0.0
C438 C 0.2168 0.20481 0.422 0.0
C439 C 0.22253 0.15808 0.42444 0.0
C440 C 0.17316 0.22343 0.42261 0.0
C441 C 0.1851 0.13077 0.43112 0.0
C442 C 0.14177 0.14912 0.43227 0.0
C443 C 0.09119 0.21272 0.42317 0.0
C444 C 0.08502 0.25839 0.41603 0.0
C445 C 0.13512 0.1951 0.42658 0.0
C446 C 0.12314 0.28671 0.41398 0.0
C447 C 0.16668 0.26942 0.41714 0.0
H448 H 0.77259 0.07216 0.43156 0.0
H449 H 0.90564 1.01293 0.43573 0.0
H450 H 0.9394 0.08792 0.43847 0.0
H451 H 0.93147 0.16832 0.42873 0.0
H452 H 0.79913 0.22732 0.4169 0.0
H453 H 0.76429 0.15457 0.42868 0.0
C454 C 0.80885 0.07572 0.4343 0.0
C455 C 0.83683 0.03736 0.43356 0.0
C456 C 0.82798 0.11892 0.43371 0.0
C457 C 0.88371 0.04214 0.43649 0.0
C458 C 0.90291 0.08496 0.43769 0.0
C459 C 0.89492 0.1655 0.42918 0.0
C460 C 0.86782 0.20269 0.42116 0.0
C461 C 0.87547 0.12338 0.43455 0.0
C462 C 0.82064 0.19899 0.42266 0.0
C463 C 0.8008 0.15735 0.42922 0.0
H464 H 0.97138 0.718 0.40911 0.0
H465 H 0.04418 0.83403 0.43853 0.0
H466 H 0.97251 0.87271 0.447 0.0
H467 H 0.89207 0.87858 0.43695 0.0
H468 H 0.82159 0.76881 0.3976 0.0
H469 H 0.88895 0.72134 0.40344 0.0
C470 C 0.97145 0.75125 0.4182 0.0
C471 C 1.01275 0.7734 0.42328 0.0
C472 C 0.93046 0.77422 0.42101 0.0
C473 C 1.01268 0.81664 0.43451 0.0
C474 C 0.9718 0.83863 0.43922 0.0
C475 C 0.89105 0.84394 0.43006 0.0
C476 C 0.85236 0.8276 0.41604 0.0
C477 C 0.93079 0.81855 0.43117 0.0
C478 C 0.85107 0.78234 0.40813 0.0
C479 C 0.88979 0.75545 0.41115 0.0
H480 H 0.80526 0.8161 0.94256 0.0
H481 H 0.8978 0.85065 0.87576 0.0
H482 H 0.87204 0.92739 0.875 0.0
H483 H 0.82322 0.98553 0.89197 0.0
H484 H 0.72503 0.95422 0.95551 0.0
H485 H 0.75391 0.87669 0.95969 0.0
C486 C 0.81912 0.84041 0.9277 0.0
C487 C 0.85318 0.82723 0.90923 0.0
C488 C 0.80417 0.88569 0.92727 0.0
C489 C 0.87124 0.85941 0.89017 0.0
C490 C 0.85696 0.90375 0.88982 0.0
C491 C 0.80905 0.9621 0.90731 0.0
C492 C 0.77295 0.97553 0.92381 0.0
C493 C 0.82384 0.91739 0.90835 0.0
C494 C 0.75364 0.9445 0.94294 0.0
C495 C 0.76967 0.90009 0.94503 0.0
H496 H 0.08407 0.77112 0.94233 0.0
H497 H 0.06456 0.7733 0.8522 0.0
H498 H 0.14486 0.77742 0.84505 0.0
H499 H 0.21851 0.7935 0.86317 0.0
H500 H 0.23563 0.82283 0.95071 0.0
H501 H 0.161 0.7904 0.96094 0.0
C502 C 0.09774 0.77272 0.92127 0.0
C503 C 0.06847 0.77118 0.89788 0.0
C504 C 0.14427 0.77958 0.9171 0.0
C505 C 0.08623 0.77361 0.87059 0.0
C506 C 0.13234 0.77583 0.8664 0.0
C507 C 0.20655 0.79064 0.88468 0.0
C508 C 0.23187 0.81013 0.90612 0.0
C509 C 0.1615 0.77989 0.88941 0.0
C510 C 0.21651 0.80733 0.93394 0.0
C511 C 0.17334 0.79018 0.93957 0.0
H512 H 0.26881 0.07071 0.94285 0.0
H513 H 0.15282 0.99916 0.91117 0.0
H514 H 0.11079 0.06993 0.90698 0.0
H515 H 0.11433 0.15177 0.90106 0.0
H516 H 0.23426 0.22386 0.92645 0.0
H517 H 0.26813 0.15312 0.9437 0.0
C518 C 0.23369 0.07049 0.93602 0.0
C519 C 0.21433 0.03011 0.92649 0.0
C520 C 0.21143 0.11157 0.9312 0.0
C521 C 0.16863 0.02981 0.91837 0.0
C522 C 0.14498 0.07045 0.91536 0.0
C523 C 0.1479 0.15223 0.91043 0.0
C524 C 0.17255 0.19283 0.91148 0.0
C525 C 0.16733 0.11154 0.91968 0.0
C526 C 0.21513 0.19294 0.92472 0.0
C527 C 0.23433 0.15256 0.93472 0.0
H528 H 0.93352 0.29295 0.93349 0.0
H529 H 1.00703 0.16813 0.9251 0.0
H530 H 0.93635 0.12602 0.92814 0.0
H531 H 0.85434 0.12636 0.92347 0.0
H532 H 0.78042 0.25162 0.92568 0.0
H533 H 0.85082 0.29207 0.93559 0.0
C534 C 0.93431 0.25644 0.93302 0.0
C535 C 0.97535 0.23367 0.92841 0.0
C536 C 0.89344 0.23274 0.93333 0.0
C537 C 0.9758 0.1864 0.92817 0.0
C538 C 0.93541 0.16238 0.9298 0.0
C539 C 0.8535 0.16248 0.92661 0.0
C540 C 0.81263 0.18632 0.92309 0.0
C541 C 0.89406 0.18545 0.93082 0.0
C542 C 0.81162 0.23273 0.92802 0.0
C543 C 0.85189 0.2558 0.93343 0.0
H544 H 0.72413 0.10173 0.6334 0.0
H545 H 0.85048 0.02843 0.63382 0.0
H546 H 0.89186 0.09962 0.63573 0.0
H547 H 0.89138 0.17989 0.64471 0.0
H548 H 0.76505 0.2521 0.65058 0.0
H549 H 0.72395 0.18347 0.63825 0.0
C550 C 0.76078 0.10116 0.63341 0.0
C551 C 0.78433 0.05975 0.63399 0.0
C552 C 0.78407 0.1418 0.63601 0.0
C553 C 0.83169 0.05979 0.63369 0.0
C554 C 0.85525 0.10041 0.63492 0.0
C555 C 0.85478 0.1809 0.64321 0.0
C556 C 0.83108 0.22072 0.64935 0.0
C557 C 0.83166 0.14123 0.63737 0.0
C558 C 0.78393 0.22174 0.64632 0.0
C559 C 0.76054 0.18251 0.6394 0.0
H560 H 0.9318 0.75906 0.59203 0.0
H561 H 1.00716 0.87973 0.61037 0.0
H562 H 0.93713 0.91815 0.62214 0.0
H563 H 0.85866 0.91183 0.63699 0.0
H564 H 0.78439 0.78888 0.62346 0.0
H565 H 0.85049 0.75634 0.60069 0.0
C566 C 0.9329 0.79419 0.59788 0.0
C567 C 0.97494 0.81594 0.60138 0.0
C568 C 0.89306 0.8149 0.60664 0.0
C569 C 0.97549 0.86186 0.608 0.0
C570 C 0.9355 0.88361 0.61521 0.0
C571 C 0.85679 0.87783 0.62909 0.0
C572 C 0.81725 0.85205 0.63285 0.0
C573 C 0.89481 0.8594 0.61643 0.0
C574 C 0.81479 0.8089 0.62142 0.0
C575 C 0.85246 0.79047 0.6083 0.0
H576 H 0.12432 0.86851 0.59737 0.0
H577 H 0.25003 0.80409 0.62092 0.0
H578 H 0.2905 0.87487 0.6115 0.0
H579 H 0.28588 0.95738 0.60942 0.0
H580 H 0.15686 0.02257 0.59577 0.0
H581 H 0.12164 0.94933 0.58783 0.0
C582 C 0.16086 0.86971 0.59954 0.0
C583 C 0.18428 0.83176 0.61034 0.0
C584 C 0.18289 0.91103 0.59632 0.0
C585 C 0.23147 0.83302 0.6127 0.0
C586 C 0.25436 0.87366 0.60769 0.0
C587 C 0.25039 0.95574 0.60361 0.0
C588 C 0.22372 0.99523 0.60337 0.0
C589 C 0.22989 0.9134 0.60139 0.0
C590 C 0.17781 0.99259 0.59612 0.0
C591 C 0.15773 0.95073 0.59184 0.0
H592 H 0.16856 0.169 0.60862 0.0
H593 H 0.24452 0.26081 0.66022 0.0
H594 H 0.17629 0.30602 0.6666 0.0
H595 H 0.09331 0.31103 0.66461 0.0
H596 H 1.01655 0.21007 0.62101 0.0
H597 H 0.08689 0.17497 0.60553 0.0
C598 C 0.17057 0.19937 0.62092 0.0
C599 C 0.21143 0.21089 0.63452 0.0
C600 C 0.13068 0.2222 0.62689 0.0
C601 C 0.21357 0.25099 0.64966 0.0
C602 C 0.17437 0.27631 0.65376 0.0
C603 C 0.09215 0.28142 0.65159 0.0
C604 C 0.05021 0.26263 0.64405 0.0
C605 C 0.13247 0.26074 0.64375 0.0
C606 C 0.04866 0.22437 0.62734 0.0
C607 C 0.08872 0.20476 0.61831 0.0
H608 H 0.15356 0.25162 0.27144 0.0
H609 H 0.26841 0.31673 0.23349 0.0
H610 H 0.31895 0.27786 0.26728 0.0
H611 H 0.3319 0.22007 0.30678 0.0
H612 H 0.2148 0.15522 0.34254 0.0
H613 H 0.16542 0.19863 0.31123 0.0
C614 C 0.18954 0.25824 0.2707 0.0
C615 C 0.20628 0.28811 0.24957 0.0
C616 C 0.2189 0.23485 0.29006 0.0
C617 C 0.25361 0.29481 0.24935 0.0
C618 C 0.28291 0.27205 0.26874 0.0
C619 C 0.29562 0.21578 0.30795 0.0
C620 C 0.27776 0.1834 0.32739 0.0
C621 C 0.26625 0.24119 0.2891 0.0
C622 C 0.23025 0.17893 0.32794 0.0
C623 C 0.20156 0.20405 0.3099 0.0
H624 H 0.85479 0.20744 0.33326 0.0
H625 H 0.84779 0.34076 0.29628 0.0
H626 H 0.80146 0.31196 0.2572 0.0
H627 H 0.76627 0.24658 0.23166 0.0
H628 H 0.77217 0.11466 0.27095 0.0
H629 H 0.81378 0.14498 0.31085 0.0
C630 C 0.84303 0.23033 0.31668 0.0
C631 C 0.85561 0.27629 0.31768 0.0
C632 C 0.81526 0.21362 0.29467 0.0
C633 C 0.8391 0.30533 0.29616 0.0
C634 C 0.81244 0.28872 0.27375 0.0
C635 C 0.77521 0.22484 0.24943 0.0
C636 C 0.76451 0.17819 0.2484 0.0
C637 C 0.80039 0.24271 0.27256 0.0
C638 C 0.7784 0.15061 0.27132 0.0
C639 C 0.80298 0.16792 0.29408 0.0
H640 H 0.8075 0.78627 0.21383 0.0
H641 H 0.94202 0.76537 0.24666 0.0
H642 H 0.92034 0.79906 0.29116 0.0
H643 H 0.86426 0.83887 0.32013 0.0
H644 H 0.72745 0.85406 0.28961 0.0
H645 H 0.74857 0.81911 0.2452 0.0
C646 C 0.83186 0.78836 0.23089 0.0
C647 C 0.8766 0.77246 0.22674 0.0
C648 C 0.81871 0.80771 0.25685 0.0
C649 C 0.90744 0.77611 0.24924 0.0
C650 C 0.895 0.79596 0.2747 0.0
C651 C 0.83878 0.83452 0.30387 0.0
C652 C 0.79422 0.85078 0.30831 0.0
C653 C 0.85092 0.81257 0.27867 0.0
C654 C 0.76202 0.84333 0.2869 0.0
C655 C 0.77418 0.82292 0.26142 0.0
H656 H 0.287 0.78194 0.21801 0.0
H657 H 0.3039 0.9095 0.25879 0.0
H658 H 0.27279 0.87784 0.30195 0.0
H659 H 0.23548 0.81631 0.32789 0.0
H660 H 0.21695 0.6877 0.28897 0.0
H661 H 0.25347 0.71701 0.24608 0.0
C662 C 0.28493 0.80252 0.23652 0.0
C663 C 0.29866 0.84849 0.23469 0.0
C664 C 0.26577 0.78397 0.26183 0.0
C665 C 0.29433 0.87429 0.25912 0.0
C666 C 0.27608 0.85617 0.284 0.0
C667 C 0.23955 0.79425 0.31019 0.0
C668 C 0.2229 0.74946 0.31211 0.0
C669 C 0.26078 0.81141 0.28553 0.0
C670 C 0.22926 0.72204 0.28859 0.0
C671 C 0.25016 0.73902 0.26385 0.0
H672 H 0.75054 0.78657 0.72585 0.0
H673 H 0.74087 0.91632 0.76473 0.0
H674 H 0.77654 0.88593 0.80727 0.0
H675 H 0.81657 0.82507 0.83295 0.0
H676 H 0.82799 0.69415 0.79624 0.0
H677 H 0.7863 0.72199 0.75422 0.0
C678 C 0.75505 0.80792 0.74387 0.0
C679 C 0.74185 0.85421 0.74157 0.0
C680 C 0.77694 0.79004 0.7689 0.0
C681 C 0.74966 0.88087 0.76538 0.0
C682 C 0.77062 0.86347 0.78992 0.0
C683 C 0.80961 0.80212 0.81598 0.0
C684 C 0.82586 0.75708 0.81832 0.0
C685 C 0.78537 0.81848 0.79182 0.0
C686 C 0.81589 0.7286 0.79568 0.0
C687 C 0.79208 0.74481 0.77138 0.0
H688 H 0.2235 0.7692 0.71578 0.0
H689 H 0.08981 0.81589 0.73624 0.0
H690 H 0.12029 0.85545 0.7765 0.0
H691 H 0.18446 0.87912 0.80626 0.0
H692 H 0.31834 0.83081 0.78865 0.0
H693 H 0.28862 0.7908 0.74761 0.0
C694 C 0.20083 0.78753 0.72918 0.0
C695 C 0.15377 0.78899 0.72226 0.0
C696 C 0.21887 0.81087 0.75301 0.0
C697 C 0.12583 0.81366 0.74032 0.0
C698 C 0.14338 0.8367 0.76359 0.0
C699 C 0.20752 0.86014 0.79344 0.0
C700 C 0.25419 0.85896 0.80089 0.0
C701 C 0.18985 0.8361 0.77008 0.0
C702 C 0.28257 0.83307 0.78381 0.0
C703 C 0.26536 0.80989 0.76019 0.0
H704 H 0.22451 0.25807 0.82411 0.0
H705 H 0.0932 0.27378 0.78496 0.0
H706 H 0.11919 0.23323 0.74397 0.0
H707 H 0.1777 0.18959 0.71943 0.0
H708 H 0.30948 0.17289 0.75768 0.0
H709 H 0.28496 0.21661 0.79812 0.0
C710 C 0.20177 0.25351 0.80639 0.0
C711 C 0.1566 0.26993 0.80803 0.0
C712 C 0.21692 0.22893 0.78257 0.0
C713 C 0.12794 0.26223 0.78473 0.0
C714 C 0.14282 0.23859 0.76113 0.0
C715 C 0.20131 0.19527 0.73656 0.0
C716 C 0.24571 0.17699 0.7351 0.0
C717 C 0.18696 0.22102 0.7599 0.0
C718 C 0.27527 0.18588 0.75778 0.0
C719 C 0.26113 0.21115 0.78109 0.0
H720 H 0.83562 0.22608 0.73214 0.0
H721 H 0.82393 0.35693 0.76877 0.0
H722 H 0.77941 0.32371 0.80765 0.0
H723 H 0.74677 0.25497 0.83297 0.0
H724 H 0.7576 0.12611 0.79292 0.0
H725 H 0.79818 0.1609 0.75411 0.0
C726 C 0.82329 0.24762 0.74857 0.0
C727 C 0.83398 0.29416 0.74742 0.0
C728 C 0.79699 0.22832 0.77052 0.0
C729 C 0.81666 0.32119 0.76885 0.0
C730 C 0.79112 0.30196 0.79121 0.0
C731 C 0.7571 0.23464 0.81548 0.0
C732 C 0.74862 0.18728 0.81646 0.0
C733 C 0.78125 0.25526 0.79253 0.0
C734 C 0.76325 0.16215 0.79336 0.0
C735 C 0.78688 0.18212 0.77095 0.0
H736 H 0.17858 0.38127 0.07227 0.0
H737 H 0.12625 0.2473 0.08636 0.0
H738 H 0.12321 0.235 0.0359 0.0
H739 H 0.12299 0.26678 0.98808 0.0
H740 H 0.17548 0.40006 0.97261 0.0
H741 H 0.19126 0.40831 1.02304 0.0
C742 C 0.16813 0.34895 0.0642 0.0
C743 C 0.15222 0.31536 0.08284 0.0
C744 C 0.16553 0.34238 0.03492 0.0
C745 C 0.13832 0.27368 0.07226 0.0
C746 C 0.13627 0.26671 0.04343 0.0
C747 C 0.1388 0.2972 0.99579 0.0
C748 C 0.14757 0.33295 0.97699 0.0
C749 C 0.14774 0.30153 0.0246 0.0
C750 C 0.16846 0.37212 0.98689 0.0
C751 C 0.17724 0.3769 1.01571 0.0
H752 H 0.63317 0.07752 0.07682 0.0
H753 H 0.72391 0.18959 0.08683 0.0
H754 H 0.72273 0.20374 0.03581 0.0
H755 H 0.70264 0.17785 0.98763 0.0
H756 H 0.61165 0.06551 0.97912 0.0
H757 H 0.60539 0.05845 0.03004 0.0
C758 C 0.65221 0.10543 0.06785 0.0
C759 C 0.67899 0.13209 0.08548 0.0
C760 C 0.65127 0.11333 0.03866 0.0
C761 C 0.70299 0.16856 0.07366 0.0
C762 C 0.70249 0.17652 0.04446 0.0
C763 C 0.68044 0.15286 0.99704 0.0
C764 C 0.65767 0.12218 0.97974 0.0
C765 C 0.67762 0.14838 0.02662 0.0
C766 C 0.62949 0.08944 0.99209 0.0
C767 C 0.62611 0.08518 1.0212 0.0
H768 H 0.87236 0.66263 0.9773 0.0
H769 H 1.01505 0.64804 0.96218 0.0
H770 H 0.03005 0.64563 1.01283 0.0
H771 H 1.00337 0.65486 0.06163 0.0
H772 H 0.86017 0.66767 0.07624 0.0
H773 H 0.84502 0.663 0.02601 0.0
C774 C 0.90672 0.65826 0.98503 0.0
C775 C 0.94247 0.65582 0.96571 0.0
C776 C 0.9152 0.6568 1.01433 0.0
C777 C 0.98672 0.64988 0.97635 0.0
C778 C 0.99541 0.64875 1.00543 0.0
C779 C 0.96876 0.65573 0.05394 0.0
C780 C 0.93311 0.66192 0.07306 0.0
C781 C 0.96003 0.65315 0.02468 0.0
C782 C 0.88851 0.66297 0.06236 0.0
C783 C 0.87969 0.66055 0.03345 0.0
H784 H 0.33465 0.84789 0.05421 0.0
H785 H 0.40634 0.97182 0.06871 0.0
H786 H 0.41884 0.98201 1.01851 0.0
H787 H 0.39961 0.96216 0.97019 0.0
H788 H 0.32956 0.83825 0.95403 0.0
H789 H 0.32662 0.82119 1.00474 0.0
C790 C 0.35415 0.87626 0.04633 0.0
C791 C 0.3692 0.90928 0.06512 0.0
C792 C 0.361 0.88227 1.01704 0.0
C793 C 0.39415 0.94614 0.05463 0.0
C794 C 0.40119 0.95213 0.02589 0.0
C795 C 0.38495 0.93077 0.97779 0.0
C796 C 0.36494 0.90149 0.95851 0.0
C797 C 0.38331 0.9214 1.00684 0.0
C798 C 0.34574 0.86103 0.96852 0.0
C799 C 0.34364 0.85153 0.99755 0.0
H800 H 0.19097 0.65702 0.4696 0.0
H801 H 0.05237 0.6182 0.45433 0.0
H802 H 0.03651 0.62409 0.50429 0.0
H803 H 0.05924 0.64852 0.55131 0.0
H804 H 0.19728 0.68685 0.56766 0.0
H805 H 0.2162 0.67243 0.51843 0.0
C806 C 0.15752 0.64884 0.47723 0.0
C807 C 0.12285 0.63746 0.4579 0.0
C808 C 0.14836 0.65273 0.50621 0.0
C809 C 0.07977 0.62707 0.46844 0.0
C810 C 0.07054 0.6307 0.49709 0.0
C811 C 0.09369 0.65313 0.54422 0.0
C812 C 0.12675 0.6692 0.5631 0.0
C813 C 0.10415 0.64483 0.51599 0.0
C814 C 0.17127 0.67441 0.55364 0.0
C815 C 0.18196 0.66643 0.52542 0.0
H816 H 0.36811 0.156 0.48809 0.0
H817 H 0.37428 1.01072 0.48463 0.0
H818 H 0.3768 1.00517 0.53541 0.0
H819 H 0.3726 0.03999 0.58132 0.0
H820 H 0.36346 0.18458 0.58651 0.0
H821 H 0.36757 0.19165 0.53523 0.0
C822 C 0.3704 0.12321 0.49845 0.0
C823 C 0.3707 0.08397 0.4821 0.0
C824 C 0.37144 0.11987 0.52828 0.0
C825 C 0.37356 0.04176 0.49622 0.0
C826 C 0.37516 0.03835 0.5255 0.0
C827 C 0.37239 0.07319 0.57138 0.0
C828 C 0.36795 0.11162 0.58803 0.0
C829 C 0.37356 0.07701 0.5418 0.0
C830 C 0.3671 0.15426 0.57443 0.0
C831 C 0.36915 0.15836 0.54497 0.0
H832 H 0.86442 0.37297 0.48332 0.0
H833 H 0.96889 0.27141 0.4821 0.0
H834 H 0.96236 0.25946 0.53263 0.0
H835 H 0.93504 0.28479 0.57757 0.0
H836 H 0.83403 0.38922 0.58075 0.0
H837 H 0.83008 0.39238 0.52914 0.0
C838 C 0.88506 0.34775 0.49416 0.0
C839 C 0.91772 0.32373 0.47922 0.0
C840 C 0.88189 0.34173 0.52354 0.0
C841 C 0.9442 0.29096 0.49335 0.0
C842 C 0.94042 0.28398 0.5222 0.0
C843 C 0.91155 0.3077 0.56695 0.0
C844 C 0.88543 0.3372 0.58277 0.0
C845 C 0.91064 0.31028 0.53758 0.0
C846 C 0.85455 0.3662 0.56891 0.0
C847 C 0.85264 0.36831 0.53943 0.0
H848 H 0.71531 0.85303 0.56452 0.0
H849 H 0.62938 0.9698 0.57018 0.0
H850 H 0.62484 0.97642 0.5191 0.0
H851 H 0.65315 0.95528 0.47297 0.0
H852 H 0.73845 0.83815 0.46633 0.0
H853 H 0.735 0.8252 0.51714 0.0
C854 C 0.69457 0.87895 0.55446 0.0
C855 C 0.67291 0.91099 0.57103 0.0
C856 C 0.69255 0.88304 0.52479 0.0
C857 C 0.6465 0.94484 0.55778 0.0
C858 C 0.64406 0.94884 0.52856 0.0
C859 C 0.67035 0.92649 0.48258 0.0
C860 C 0.69633 0.8981 0.46584 0.0
C861 C 0.66825 0.91917 0.51185 0.0
C862 C 0.71809 0.86063 0.47866 0.0
C863 C 0.71636 0.85327 0.50781 0.0
H864 H 0.0763 0.39858 0.23584 0.0
H865 H 0.95103 0.33209 0.21611 0.0
H866 H 0.9249 0.34248 0.26416 0.0
H867 H 0.94883 0.34743 0.31287 0.0
H868 H 0.08048 0.3986 0.33429 0.0
H869 H 0.0938 0.41827 0.28458 0.0
C870 C 0.04247 0.38851 0.242 0.0
C871 C 1.01544 0.36428 0.22337 0.0
C872 C 0.03002 0.39055 0.27007 0.0
C873 C 0.97187 0.35074 0.23069 0.0
C874 C 0.95739 0.35619 0.25809 0.0
C875 C 0.98001 0.36366 0.30652 0.0
C876 C 1.01473 0.3697 0.32615 0.0
C877 C 0.98789 0.37226 0.27827 0.0
C878 C 0.05427 0.39251 0.31876 0.0
C879 C 0.06165 0.40369 0.29056 0.0
H880 H 0.73374 0.95123 0.31956 0.0
H881 H 0.73536 0.09285 0.33716 0.0
H882 H 0.68562 0.1074 0.29618 0.0
H883 H 0.66516 0.08115 0.24922 0.0
H884 H 0.68276 0.94163 0.2291 0.0
H885 H 0.69463 0.92291 0.27877 0.0
C886 C 0.72278 0.98512 0.31473 0.0
C887 C 0.74008 0.02126 0.32999 0.0
C888 C 0.69565 0.99274 0.29129 0.0
C889 C 0.72385 0.06494 0.32464 0.0
C890 C 0.69508 0.07299 0.30158 0.0
C891 C 0.66937 0.04631 0.25621 0.0
C892 C 0.67677 1.01308 0.23611 0.0
C893 C 0.68383 0.03742 0.28369 0.0
C894 C 0.67907 0.96781 0.24448 0.0
C895 C 0.6873 0.95746 0.27271 0.0
H896 H 0.07949 0.81243 0.30259 0.0
H897 H 1.01037 0.68488 0.31175 0.0
H898 H 1.00039 0.68187 0.26076 0.0
H899 H 1.0122 0.71511 0.21439 0.0
H900 H 0.07772 0.84382 0.20487 0.0
H901 H 0.09146 0.8456 0.25589 0.0
C902 C 0.06167 0.78424 0.29344 0.0
C903 C 0.04574 0.74884 0.31071 0.0
C904 C 0.05766 0.78198 0.26435 0.0
C905 C 0.02234 0.71276 0.2988 0.0
C906 C 1.01761 0.71052 0.26973 0.0
C907 C 0.03142 0.74243 0.22341 0.0
C908 C 0.04582 0.77838 0.20629 0.0
C909 C 0.0361 0.74442 0.25243 0.0
C910 C 0.06811 0.81517 0.21795 0.0
C911 C 0.07484 0.81658 0.24697 0.0
H912 H 0.38804 0.96378 0.31205 0.0
H913 H 0.36649 0.10659 0.31762 0.0
H914 H 0.36199 0.11431 0.2665 0.0
H915 H 0.34944 0.07663 0.22119 0.0
H916 H 0.38235 0.93587 0.21519 0.0
H917 H 0.39878 0.93084 0.2654 0.0
C918 C 0.38399 0.99661 0.30189 0.0
C919 C 0.37495 0.03422 0.31793 0.0
C920 C 0.3831 1.00092 0.27258 0.0
C921 C 0.3709 0.07699 0.30511 0.0
C922 C 0.36874 0.08146 0.27601 0.0
C923 C 0.36138 0.0454 0.23093 0.0
C924 C 0.36279 1.00621 0.21535 0.0
C925 C 0.37213 0.04311 0.25961 0.0
C926 C 0.37959 0.96599 0.22746 0.0
C927 C 0.38917 0.9631 0.25605 0.0
H928 H 0.05728 0.71527 0.71184 0.0
H929 H 0.91706 0.74271 0.69315 0.0
H930 H 0.90008 0.73976 0.74374 0.0
H931 H 0.92725 0.73487 0.79199 0.0
H932 H 0.06884 0.71243 0.81062 0.0
H933 H 0.08411 0.70748 0.76012 0.0
C934 C 0.02311 0.72082 0.71902 0.0
C935 C 0.9882 0.72912 0.69966 0.0
C936 C 1.0144 0.71983 0.74747 0.0
C937 C 0.94384 0.73563 0.70832 0.0
C938 C 0.93443 0.73408 0.73692 0.0
C939 C 0.96153 0.72901 0.78496 0.0
C940 C 0.99735 0.72517 0.8044 0.0
C941 C 0.96975 0.72706 0.7565 0.0
C942 C 0.04123 0.71593 0.79559 0.0
C943 C 0.0498 0.71325 0.76699 0.0
H944 H 0.31214 0.97282 0.71676 0.0
H945 H 0.1679 0.99134 0.7165 0.0
H946 H 0.16793 0.99088 0.76786 0.0
H947 H 0.21112 1.00555 0.8107 0.0
H948 H 0.35677 0.99575 0.81021 0.0
H949 H 0.35452 0.97538 0.76114 0.0
C950 C 0.28059 0.9748 0.72806 0.0
C951 C 0.24041 0.98411 0.71332 0.0
C952 C 0.28167 0.97985 0.75715 0.0
C953 C 0.19934 0.98497 0.72778 0.0
C954 C 0.19957 0.9862 0.75701 0.0
C955 C 0.24246 0.99961 0.7997 0.0
C956 C 0.28412 1.00358 0.81382 0.0
C957 C 0.24094 0.98772 0.77153 0.0
C958 C 0.32434 0.99468 0.79955 0.0
C959 C 0.32306 0.98222 0.77155 0.0
H960 H 0.05709 0.37749 0.73942 0.0
H961 H 0.91272 0.39112 0.73371 0.0
H962 H 0.90691 0.39136 0.78484 0.0
H963 H 0.94318 0.3679 0.8302 0.0
H964 H 0.08822 0.36607 0.83518 0.0
H965 H 0.09424 0.38261 0.78552 0.0
C966 C 0.0248 0.38292 0.74945 0.0
C967 C 0.98522 0.38197 0.7336 0.0
C968 C 0.02193 0.38431 0.77865 0.0
C969 C 0.94336 0.38988 0.7462 0.0
C970 C 0.94001 0.39 0.77533 0.0
C971 C 0.97584 0.37258 0.82041 0.0
C972 C 1.01535 0.36326 0.83562 0.0
C973 C 0.97897 0.3838 0.79175 0.0
C974 C 0.05755 0.37107 0.82336 0.0
C975 C 0.06106 0.38088 0.79495 0.0
H976 H 0.66357 0.96366 0.82074 0.0
H977 H 0.66431 0.10832 0.82395 0.0
H978 H 0.65901 0.11451 0.77282 0.0
H979 H 0.66956 0.07697 0.72751 0.0
H980 H 0.65393 0.93306 0.72418 0.0
H981 H 0.6476 0.92774 0.77524 0.0
C982 C 0.66145 0.99628 0.8101 0.0
C983 C 0.66811 0.0355 0.8251 0.0
C984 C 0.65559 0.9995 0.78097 0.0
C985 C 0.66294 0.07788 0.81193 0.0
C986 C 0.65906 0.08143 0.7829 0.0
C987 C 0.66311 0.04488 0.73805 0.0
C988 C 0.66437 1.00525 0.72301 0.0
C989 C 0.65802 0.0423 0.76715 0.0
C990 C 0.65475 0.96368 0.73612 0.0
C991 C 0.65105 0.96061 0.76516 0.0
H992 H 0.134 0.49567 0.19434 0.0
H993 H 0.03371 0.42626 0.14428 0.0
H994 H 0.98204 0.48679 0.14849 0.0
H995 H 0.96583 0.56406 0.1598 0.0
H996 H 0.06493 0.64112 0.20472 0.0
H997 H 0.11431 0.57486 0.20914 0.0
C998 C 0.10069 0.49347 0.18482 0.0
C999 C 0.08892 0.45473 0.16943 0.0
C1000 C 0.06988 0.53079 0.186 0.0
C1001 C 0.04513 0.45418 0.15681 0.0
C1002 C 1.01464 0.4894 0.15896 0.0
C1003 C 0.99743 0.56602 0.17148 0.0
C1004 C 1.01105 0.60757 0.18208 0.0
C1005 C 0.02677 0.52839 0.17275 0.0
C1006 C 0.0531 0.60944 0.19645 0.0
C1007 C 0.08179 0.57151 0.19873 0.0
H1008 H 0.58885 0.03219 0.21428 0.0
H1009 H 0.54747 0.13342 0.15314 0.0
H1010 H 0.48108 0.0884 0.1415 0.0
H1011 H 0.44508 1.01505 0.14143 0.0
H1012 H 0.48331 0.9115 0.20225 0.0
H1013 H 0.54248 0.96218 0.22053 0.0
C1014 C 0.56393 0.04566 0.19955 0.0
C1015 C 0.57353 0.08674 0.18468 0.0
C1016 C 0.52706 0.0179 0.19172 0.0
C1017 C 0.54101 0.10295 0.16536 0.0
C1018 C 0.50367 0.07629 0.15807 0.0
C1019 C 0.4656 1.003 0.15904 0.0
C1020 C 0.45963 0.95836 0.17001 0.0
C1021 C 0.49809 0.03273 0.16989 0.0
C1022 C 0.487 0.94489 0.19299 0.0
C1023 C 0.52065 0.97419 0.20355 0.0
H1024 H 0.03526 0.58331 0.33058 0.0
H1025 H 0.13716 0.54195 0.39155 0.0
H1026 H 0.08825 0.48135 0.40798 0.0
H1027 H 1.01507 0.44606 0.40908 0.0
H1028 H 0.91392 0.47744 0.34556 0.0
H1029 H 0.96378 0.53737 0.32662 0.0
C1030 C 0.04737 0.56015 0.3469 0.0
C1031 C 0.09027 0.5678 0.35988 0.0
C1032 C 1.01867 0.52478 0.35641 0.0
C1033 C 0.105 0.53722 0.38094 0.0
C1034 C 0.07658 0.50283 0.39069 0.0
C1035 C 1.00325 0.46549 0.3909 0.0
C1036 C 0.95975 0.45709 0.37914 0.0
C1037 C 0.03294 0.49744 0.37928 0.0
C1038 C 0.94655 0.48298 0.35537 0.0
C1039 C 0.97538 0.51705 0.34444 0.0
H1040 H 0.63461 0.03525 0.34985 0.0
H1041 H 0.58297 0.90788 0.38088 0.0
H1042 H 0.50843 0.94233 0.3862 0.0
H1043 H 0.4628 1.00981 0.38984 0.0
H1044 H 0.51146 0.13893 0.35973 0.0
H1045 H 0.58315 0.10237 0.34663 0.0
C1046 C 0.60677 1.0145 0.35704 0.0
C1047 C 0.61503 0.96847 0.36508 0.0
C1048 C 0.56398 0.03516 0.36086 0.0
C1049 C 0.57816 0.94269 0.37426 0.0
C1050 C 0.53555 0.96277 0.37769 0.0
C1051 C 0.48803 0.03048 0.37948 0.0
C1052 C 0.4806 0.07781 0.37565 0.0
C1053 C 0.52872 1.00922 0.37217 0.0
C1054 C 0.51517 0.10286 0.36273 0.0
C1055 C 0.55641 0.08177 0.35545 0.0
H1056 H 0.03172 0.44521 0.91532 0.0
H1057 H 0.11042 0.46279 0.83989 0.0
H1058 H 0.05884 0.52426 0.82457 0.0
H1059 H 0.99366 0.57574 0.83448 0.0
H1060 H 0.91528 0.55324 0.90951 0.0
H1061 H 0.96353 0.48895 0.9223 0.0
C1062 C 0.03827 0.46203 0.89534 0.0
C1063 C 0.07624 0.44904 0.87905 0.0
C1064 C 1.0076 0.49584 0.88632 0.0
C1065 C 0.08249 0.47182 0.85319 0.0
C1066 C 0.05255 0.50681 0.84436 0.0
C1067 C 0.98613 0.55589 0.85323 0.0
C1068 C 0.95006 0.56968 0.87092 0.0
C1069 C 1.0151 0.5193 0.86088 0.0
C1070 C 0.9416 0.5435 0.89518 0.0
C1071 C 0.96997 0.50713 0.90277 0.0
H1072 H 0.58244 0.02353 0.88883 0.0
H1073 H 0.53305 0.1462 0.84903 0.0
H1074 H 0.46623 0.104 0.83224 0.0
H1075 H 0.41861 0.03325 0.83573 0.0
H1076 H 0.47956 0.91086 0.86857 0.0
H1077 H 0.54898 0.95179 0.87864 0.0
C1078 C 0.55959 0.04141 0.87463 0.0
C1079 C 0.56458 0.08853 0.86959 0.0
C1080 C 0.5238 0.0165 0.86337 0.0
C1081 C 0.53116 0.11022 0.85302 0.0
C1082 C 0.4929 0.0859 0.84342 0.0
C1083 C 0.44811 1.01489 0.84333 0.0
C1084 C 0.44378 0.96851 0.85115 0.0
C1085 C 0.48843 0.03905 0.84912 0.0
C1086 C 0.48201 0.94582 0.86174 0.0
C1087 C 0.5214 0.96963 0.86816 0.0
H1088 H 0.92594 0.51176 0.69893 0.0
H1089 H 0.99335 0.43396 0.63505 0.0
H1090 H 0.05513 0.48294 0.63504 0.0
H1091 H 0.08886 0.5534 0.64604 0.0
H1092 H 0.02838 0.63784 0.70705 0.0
H1093 H 0.96827 0.58249 0.71517 0.0
C1094 C 0.95415 0.50519 0.68528 0.0
C1095 C 0.95231 0.46779 0.667 0.0
C1096 C 0.9923 0.53552 0.68441 0.0
C1097 C 0.99078 0.46157 0.64949 0.0
C1098 C 0.0277 0.48986 0.6493 0.0
C1099 C 0.06381 0.55892 0.66215 0.0
C1100 C 0.06378 0.6002 0.67583 0.0
C1101 C 0.02853 0.52754 0.66586 0.0
C1102 C 0.02988 0.60672 0.69606 0.0
C1103 C 0.99477 0.57491 0.70044 0.0
H1104 H 0.53332 0.9167 0.69933 0.0
H1105 H 0.5918 1.01358 0.6408 0.0
H1106 H 0.53432 0.06654 0.64991 0.0
H1107 H 0.4611 0.08501 0.66835 0.0
H1108 H 0.39347 0.98908 0.72173 0.0
H1109 H 0.45901 0.93882 0.72127 0.0
C1110 C 0.53394 0.94951 0.68897 0.0
C1111 C 0.56865 0.95967 0.66958 0.0
C1112 C 0.49812 0.98133 0.69326 0.0
C1113 C 0.56695 1.00302 0.65611 0.0
C1114 C 0.53351 0.03444 0.66119 0.0
C1115 C 0.46135 0.05406 0.68088 0.0
C1116 C 0.42244 0.04179 0.69565 0.0
C1117 C 0.4982 0.02385 0.67903 0.0
C1118 C 0.42327 1.0003 0.71081 0.0
C1119 C 0.4607 0.97091 0.71008 0.0
loop_
_geom_bond_atom_site_label_1
_geom_bond_atom_site_label_2
_geom_bond_distance
_geom_bond_site_symmetry_2
_ccdc_geom_bond_type
Fe0 O2 1.918 . S
Fe0 O5 1.997 . S
Fe0 O6 2.002 . S
Fe0 O11 1.976 . S
Fe0 O14 1.996 . S
Fe1 O2 1.918 . S
Fe1 O9 1.997 . S
Fe1 O12 1.996 1_455 S
Fe1 O16 1.976 . S
Fe1 O19 2.002 . S
O2 Fe0 1.918 . S
O2 Fe1 1.918 . S
O2 Fe3 1.918 . S
Fe3 O2 1.918 . S
Fe3 O4 2.002 . S
Fe3 O13 1.976 . S
Fe3 O17 1.996 . S
Fe3 O20 1.997 . S
O4 Fe3 2.002 . S
O4 C21 1.295 . S
O5 Fe0 1.997 . S
O5 C21 1.235 . S
O6 Fe0 2.002 . S
O6 C7 1.295 . S
C7 O6 1.295 . S
C7 O9 1.235 . S
C8 O13 1.287 . S
C8 O14 1.255 . S
O9 Fe1 1.997 . S
O9 C7 1.235 . S
C10 O16 1.287 . S
C10 O17 1.255 . S
O11 Fe0 1.976 . S
O11 C18 1.287 1_455 S
O12 Fe1 1.996 1_655 S
O12 C18 1.255 . S
O13 Fe3 1.976 . S
O13 C8 1.287 . S
O14 Fe0 1.996 . S
O14 C8 1.255 . S
C15 O19 1.295 . S
C15 O20 1.235 . S
O16 Fe1 1.976 . S
O16 C10 1.287 . S
O17 Fe3 1.996 . S
O17 C10 1.255 . S
C18 O11 1.287 1_655 S
C18 O12 1.255 . S
O19 Fe1 2.002 . S
O19 C15 1.295 . S
O20 Fe3 1.997 . S
O20 C15 1.235 . S
C21 O4 1.295 . S
C21 O5 1.235 . S
Fe22 O24 1.918 . S
Fe22 O27 1.997 . S
Fe22 O28 2.002 . S
Fe22 O33 1.976 . S
Fe22 O36 1.996 . S
Fe23 O24 1.918 . S
Fe23 O31 1.997 . S
Fe23 O34 1.996 . S
Fe23 O38 1.976 . S
Fe23 O41 2.002 . S
O24 Fe22 1.918 . S
O24 Fe23 1.918 . S
O24 Fe25 1.918 . S
Fe25 O24 1.918 . S
Fe25 O26 2.002 . S
Fe25 O35 1.976 . S
Fe25 O39 1.996 1_545 S
Fe25 O42 1.997 . S
O26 Fe25 2.002 . S
O26 C43 1.295 . S
O27 Fe22 1.997 . S
O27 C43 1.235 . S
O28 Fe22 2.002 . S
O28 C29 1.295 . S
C29 O28 1.295 . S
C29 O31 1.235 . S
C30 O35 1.287 . S
C30 O36 1.255 . S
O31 Fe23 1.997 . S
O31 C29 1.235 . S
C32 O38 1.287 1_565 S
C32 O39 1.255 . S
O33 Fe22 1.976 . S
O33 C40 1.287 . S
O34 Fe23 1.996 . S
O34 C40 1.255 . S
O35 Fe25 1.976 . S
O35 C30 1.287 . S
O36 Fe22 1.996 . S
O36 C30 1.255 . S
C37 O41 1.295 . S
C37 O42 1.235 . S
O38 Fe23 1.976 . S
O38 C32 1.287 1_545 S
O39 Fe25 1.996 1_565 S
O39 C32 1.255 . S
C40 O33 1.287 . S
C40 O34 1.255 . S
O41 Fe23 2.002 . S
O41 C37 1.295 . S
O42 Fe25 1.997 . S
O42 C37 1.235 . S
C43 O26 1.295 . S
C43 O27 1.235 . S
Fe44 O46 1.918 . S
Fe44 O49 1.997 . S
Fe44 O50 2.002 . S
Fe44 O55 1.976 . S
Fe44 O58 1.996 . S
Fe45 O46 1.918 . S
Fe45 O53 1.997 . S
Fe45 O56 1.996 . S
Fe45 O60 1.976 . S
Fe45 O63 2.002 . S
O46 Fe44 1.918 . S
O46 Fe45 1.918 . S
O46 Fe47 1.918 . S
Fe47 O46 1.918 . S
Fe47 O48 2.002 . S
Fe47 O57 1.976 . S
Fe47 O61 1.996 1_655 S
Fe47 O64 1.997 . S
O48 Fe47 2.002 . S
O48 C65 1.295 . S
O49 Fe44 1.997 . S
O49 C65 1.235 . S
O50 Fe44 2.002 . S
O50 C51 1.295 . S
C51 O50 1.295 . S
C51 O53 1.235 . S
C52 O57 1.287 . S
C52 O58 1.255 . S
O53 Fe45 1.997 . S
O53 C51 1.235 . S
C54 O60 1.287 1_455 S
C54 O61 1.255 . S
O55 Fe44 1.976 . S
O55 C62 1.287 . S
O56 Fe45 1.996 . S
O56 C62 1.255 . S
O57 Fe47 1.976 . S
O57 C52 1.287 . S
O58 Fe44 1.996 . S
O58 C52 1.255 . S
C59 O63 1.295 . S
C59 O64 1.235 . S
O60 Fe45 1.976 . S
O60 C54 1.287 1_655 S
O61 Fe47 1.996 1_455 S
O61 C54 1.255 . S
C62 O55 1.287 . S
C62 O56 1.255 . S
O63 Fe45 2.002 . S
O63 C59 1.295 . S
O64 Fe47 1.997 . S
O64 C59 1.235 . S
C65 O48 1.295 . S
C65 O49 1.235 . S
Fe66 O68 1.918 . S
Fe66 O71 1.997 . S
Fe66 O72 2.002 . S
Fe66 O77 1.976 . S
Fe66 O80 1.996 . S
Fe67 O68 1.918 . S
Fe67 O75 1.997 . S
Fe67 O78 1.996 . S
Fe67 O82 1.976 . S
Fe67 O85 2.002 . S
O68 Fe66 1.918 . S
O68 Fe67 1.918 . S
O68 Fe69 1.918 . S
Fe69 O68 1.918 . S
Fe69 O70 2.002 . S
Fe69 O79 1.976 . S
Fe69 O83 1.996 1_565 S
Fe69 O86 1.997 . S
O70 Fe69 2.002 . S
O70 C87 1.295 . S
O71 Fe66 1.997 . S
O71 C87 1.235 . S
O72 Fe66 2.002 . S
O72 C73 1.295 . S
C73 O72 1.295 . S
C73 O75 1.235 . S
C74 O79 1.287 . S
C74 O80 1.255 . S
O75 Fe67 1.997 . S
O75 C73 1.235 . S
C76 O82 1.287 1_545 S
C76 O83 1.255 . S
O77 Fe66 1.976 . S
O77 C84 1.287 . S
O78 Fe67 1.996 . S
O78 C84 1.255 . S
O79 Fe69 1.976 . S
O79 C74 1.287 . S
O80 Fe66 1.996 . S
O80 C74 1.255 . S
C81 O85 1.295 . S
C81 O86 1.235 . S
O82 Fe67 1.976 . S
O82 C76 1.287 1_565 S
O83 Fe69 1.996 1_545 S
O83 C76 1.255 . S
C84 O77 1.287 . S
C84 O78 1.255 . S
O85 Fe67 2.002 . S
O85 C81 1.295 . S
O86 Fe69 1.997 . S
O86 C81 1.235 . S
C87 O70 1.295 . S
C87 O71 1.235 . S
Fe88 O90 1.918 . S
Fe88 O93 1.997 . S
Fe88 O94 2.002 . S
Fe88 O99 1.976 . S
Fe88 O102 1.996 . S
Fe89 O90 1.918 . S
Fe89 O97 1.997 . S
Fe89 O100 1.996 1_455 S
Fe89 O104 1.976 . S
Fe89 O107 2.002 . S
O90 Fe88 1.918 . S
O90 Fe89 1.918 . S
O90 Fe91 1.918 . S
Fe91 O90 1.918 . S
Fe91 O92 2.002 . S
Fe91 O101 1.976 . S
Fe91 O105 1.996 . S
Fe91 O108 1.997 . S
O92 Fe91 2.002 . S
O92 C109 1.295 . S
O93 Fe88 1.997 . S
O93 C109 1.235 . S
O94 Fe88 2.002 . S
O94 C95 1.295 . S
C95 O94 1.295 . S
C95 O97 1.235 . S
C96 O101 1.287 . S
C96 O102 1.255 . S
O97 Fe89 1.997 . S
O97 C95 1.235 . S
C98 O104 1.287 . S
C98 O105 1.255 . S
O99 Fe88 1.976 . S
O99 C106 1.287 1_455 S
O100 Fe89 1.996 1_655 S
O100 C106 1.255 . S
O101 Fe91 1.976 . S
O101 C96 1.287 . S
O102 Fe88 1.996 . S
O102 C96 1.255 . S
C103 O107 1.295 . S
C103 O108 1.235 . S
O104 Fe89 1.976 . S
O104 C98 1.287 . S
O105 Fe91 1.996 . S
O105 C98 1.255 . S
C106 O99 1.287 1_655 S
C106 O100 1.255 . S
O107 Fe89 2.002 . S
O107 C103 1.295 . S
O108 Fe91 1.997 . S
O108 C103 1.235 . S
C109 O92 1.295 . S
C109 O93 1.235 . S
Fe110 O112 1.918 . S
Fe110 O115 1.997 . S
Fe110 O116 2.002 . S
Fe110 O121 1.976 . S
Fe110 O124 1.996 . S
Fe111 O112 1.918 . S
Fe111 O119 1.997 . S
Fe111 O122 1.996 . S
Fe111 O126 1.976 . S
Fe111 O129 2.002 . S
O112 Fe110 1.918 . S
O112 Fe111 1.918 . S
O112 Fe113 1.918 . S
Fe113 O112 1.918 . S
Fe113 O114 2.002 . S
Fe113 O123 1.976 . S
Fe113 O127 1.996 1_545 S
Fe113 O130 1.997 . S
O114 Fe113 2.002 . S
O114 C131 1.295 . S
O115 Fe110 1.997 . S
O115 C131 1.235 . S
O116 Fe110 2.002 . S
O116 C117 1.295 . S
C117 O116 1.295 . S
C117 O119 1.235 . S
C118 O123 1.287 . S
C118 O124 1.255 . S
O119 Fe111 1.997 . S
O119 C117 1.235 . S
C120 O126 1.287 1_565 S
C120 O127 1.255 . S
O121 Fe110 1.976 . S
O121 C128 1.287 . S
O122 Fe111 1.996 . S
O122 C128 1.255 . S
O123 Fe113 1.976 . S
O123 C118 1.287 . S
O124 Fe110 1.996 . S
O124 C118 1.255 . S
C125 O129 1.295 . S
C125 O130 1.235 . S
O126 Fe111 1.976 . S
O126 C120 1.287 1_545 S
O127 Fe113 1.996 1_565 S
O127 C120 1.255 . S
C128 O121 1.287 . S
C128 O122 1.255 . S
O129 Fe111 2.002 . S
O129 C125 1.295 . S
O130 Fe113 1.997 . S
O130 C125 1.235 . S
C131 O114 1.295 . S
C131 O115 1.235 . S
Fe132 O134 1.918 . S
Fe132 O137 1.997 . S
Fe132 O138 2.002 . S
Fe132 O143 1.976 . S
Fe132 O146 1.996 . S
Fe133 O134 1.918 . S
Fe133 O141 1.997 . S
Fe133 O144 1.996 1_655 S
Fe133 O148 1.976 . S
Fe133 O151 2.002 . S
O134 Fe132 1.918 . S
O134 Fe133 1.918 . S
O134 Fe135 1.918 . S
Fe135 O134 1.918 . S
Fe135 O136 2.002 . S
Fe135 O145 1.976 . S
Fe135 O149 1.996 . S
Fe135 O152 1.997 . S
O136 Fe135 2.002 . S
O136 C153 1.295 . S
O137 Fe132 1.997 . S
O137 C153 1.235 . S
O138 Fe132 2.002 . S
O138 C139 1.295 . S
C139 O138 1.295 . S
C139 O141 1.235 . S
C140 O145 1.287 . S
C140 O146 1.255 . S
O141 Fe133 1.997 . S
O141 C139 1.235 . S
C142 O148 1.287 . S
C142 O149 1.255 . S
O143 Fe132 1.976 . S
O143 C150 1.287 1_655 S
O144 Fe133 1.996 1_455 S
O144 C150 1.255 . S
O145 Fe135 1.976 . S
O145 C140 1.287 . S
O146 Fe132 1.996 . S
O146 C140 1.255 . S
C147 O151 1.295 . S
C147 O152 1.235 . S
O148 Fe133 1.976 . S
O148 C142 1.287 . S
O149 Fe135 1.996 . S
O149 C142 1.255 . S
C150 O143 1.287 1_455 S
C150 O144 1.255 . S
O151 Fe133 2.002 . S
O151 C147 1.295 . S
O152 Fe135 1.997 . S
O152 C147 1.235 . S
C153 O136 1.295 . S
C153 O137 1.235 . S
Fe154 O156 1.918 . S
Fe154 O159 1.997 . S
Fe154 O160 2.002 . S
Fe154 O165 1.976 . S
Fe154 O168 1.996 . S
Fe155 O156 1.918 . S
Fe155 O163 1.997 . S
Fe155 O166 1.996 1_565 S
Fe155 O170 1.976 . S
Fe155 O173 2.002 . S
O156 Fe154 1.918 . S
O156 Fe155 1.918 . S
O156 Fe157 1.918 . S
Fe157 O156 1.918 . S
Fe157 O158 2.002 . S
Fe157 O167 1.976 . S
Fe157 O171 1.996 . S
Fe157 O174 1.997 . S
O158 Fe157 2.002 . S
O158 C175 1.295 . S
O159 Fe154 1.997 . S
O159 C175 1.235 . S
O160 Fe154 2.002 . S
O160 C161 1.295 . S
C161 O160 1.295 . S
C161 O163 1.235 . S
C162 O167 1.287 . S
C162 O168 1.255 . S
O163 Fe155 1.997 . S
O163 C161 1.235 . S
C164 O170 1.287 . S
C164 O171 1.255 . S
O165 Fe154 1.976 . S
O165 C172 1.287 1_565 S
O166 Fe155 1.996 1_545 S
O166 C172 1.255 . S
O167 Fe157 1.976 . S
O167 C162 1.287 . S
O168 Fe154 1.996 . S
O168 C162 1.255 . S
C169 O173 1.295 . S
C169 O174 1.235 . S
O170 Fe155 1.976 . S
O170 C164 1.287 . S
O171 Fe157 1.996 . S
O171 C164 1.255 . S
C172 O165 1.287 1_545 S
C172 O166 1.255 . S
O173 Fe155 2.002 . S
O173 C169 1.295 . S
O174 Fe157 1.997 . S
O174 C169 1.235 . S
C175 O158 1.295 . S
C175 O159 1.235 . S
Fe176 O178 1.918 . S
Fe176 O181 1.997 . S
Fe176 O182 2.002 . S
Fe176 O187 1.976 . S
Fe176 O190 1.996 . S
Fe177 O178 1.918 . S
Fe177 O185 1.997 . S
Fe177 O188 1.996 1_655 S
Fe177 O192 1.976 . S
Fe177 O195 2.002 . S
O178 Fe176 1.918 . S
O178 Fe177 1.918 . S
O178 Fe179 1.918 . S
Fe179 O178 1.918 . S
Fe179 O180 2.002 . S
Fe179 O189 1.976 . S
Fe179 O193 1.996 . S
Fe179 O196 1.997 . S
O180 Fe179 2.002 . S
O180 C197 1.295 . S
O181 Fe176 1.997 . S
O181 C197 1.235 . S
O182 Fe176 2.002 . S
O182 C183 1.295 . S
C183 O182 1.295 . S
C183 O185 1.235 . S
C184 O189 1.287 . S
C184 O190 1.255 . S
O185 Fe177 1.997 . S
O185 C183 1.235 . S
C186 O192 1.287 . S
C186 O193 1.255 . S
O187 Fe176 1.976 . S
O187 C194 1.287 1_655 S
O188 Fe177 1.996 1_455 S
O188 C194 1.255 . S
O189 Fe179 1.976 . S
O189 C184 1.287 . S
O190 Fe176 1.996 . S
O190 C184 1.255 . S
C191 O195 1.295 . S
C191 O196 1.235 . S
O192 Fe177 1.976 . S
O192 C186 1.287 . S
O193 Fe179 1.996 . S
O193 C186 1.255 . S
C194 O187 1.287 1_455 S
C194 O188 1.255 . S
O195 Fe177 2.002 . S
O195 C191 1.295 . S
O196 Fe179 1.997 . S
O196 C191 1.235 . S
C197 O180 1.295 . S
C197 O181 1.235 . S
Fe198 O200 1.918 . S
Fe198 O203 1.997 . S
Fe198 O204 2.002 . S
Fe198 O209 1.976 . S
Fe198 O212 1.996 . S
Fe199 O200 1.918 . S
Fe199 O207 1.997 . S
Fe199 O210 1.996 . S
Fe199 O214 1.976 . S
Fe199 O217 2.002 . S
O200 Fe198 1.918 . S
O200 Fe199 1.918 . S
O200 Fe201 1.918 . S
Fe201 O200 1.918 . S
Fe201 O202 2.002 . S
Fe201 O211 1.976 . S
Fe201 O215 1.996 1_565 S
Fe201 O218 1.997 . S
O202 Fe201 2.002 . S
O202 C219 1.295 . S
O203 Fe198 1.997 . S
O203 C219 1.235 . S
O204 Fe198 2.002 . S
O204 C205 1.295 . S
C205 O204 1.295 . S
C205 O207 1.235 . S
C206 O211 1.287 . S
C206 O212 1.255 . S
O207 Fe199 1.997 . S
O207 C205 1.235 . S
C208 O214 1.287 1_545 S
C208 O215 1.255 . S
O209 Fe198 1.976 . S
O209 C216 1.287 . S
O210 Fe199 1.996 . S
O210 C216 1.255 . S
O211 Fe201 1.976 . S
O211 C206 1.287 . S
O212 Fe198 1.996 . S
O212 C206 1.255 . S
C213 O217 1.295 . S
C213 O218 1.235 . S
O214 Fe199 1.976 . S
O214 C208 1.287 1_565 S
O215 Fe201 1.996 1_545 S
O215 C208 1.255 . S
C216 O209 1.287 . S
C216 O210 1.255 . S
O217 Fe199 2.002 . S
O217 C213 1.295 . S
O218 Fe201 1.997 . S
O218 C213 1.235 . S
C219 O202 1.295 . S
C219 O203 1.235 . S
Fe220 O222 1.918 . S
Fe220 O225 1.997 . S
Fe220 O226 2.002 . S
Fe220 O231 1.976 . S
Fe220 O234 1.996 . S
Fe221 O222 1.918 . S
Fe221 O229 1.997 . S
Fe221 O232 1.996 . S
Fe221 O236 1.976 . S
Fe221 O239 2.002 . S
O222 Fe220 1.918 . S
O222 Fe221 1.918 . S
O222 Fe223 1.918 . S
Fe223 O222 1.918 . S
Fe223 O224 2.002 . S
Fe223 O233 1.976 . S
Fe223 O237 1.996 1_455 S
Fe223 O240 1.997 . S
O224 Fe223 2.002 . S
O224 C241 1.295 . S
O225 Fe220 1.997 . S
O225 C241 1.235 . S
O226 Fe220 2.002 . S
O226 C227 1.295 . S
C227 O226 1.295 . S
C227 O229 1.235 . S
C228 O233 1.287 . S
C228 O234 1.255 . S
O229 Fe221 1.997 . S
O229 C227 1.235 . S
C230 O236 1.287 1_655 S
C230 O237 1.255 . S
O231 Fe220 1.976 . S
O231 C238 1.287 . S
O232 Fe221 1.996 . S
O232 C238 1.255 . S
O233 Fe223 1.976 . S
O233 C228 1.287 . S
O234 Fe220 1.996 . S
O234 C228 1.255 . S
C235 O239 1.295 . S
C235 O240 1.235 . S
O236 Fe221 1.976 . S
O236 C230 1.287 1_455 S
O237 Fe223 1.996 1_655 S
O237 C230 1.255 . S
C238 O231 1.287 . S
C238 O232 1.255 . S
O239 Fe221 2.002 . S
O239 C235 1.295 . S
O240 Fe223 1.997 . S
O240 C235 1.235 . S
C241 O224 1.295 . S
C241 O225 1.235 . S
Fe242 O244 1.918 . S
Fe242 O247 1.997 . S
Fe242 O248 2.002 . S
Fe242 O253 1.976 . S
Fe242 O256 1.996 . S
Fe243 O244 1.918 . S
Fe243 O251 1.997 . S
Fe243 O254 1.996 1_545 S
Fe243 O258 1.976 . S
Fe243 O261 2.002 . S
O244 Fe242 1.918 . S
O244 Fe243 1.918 . S
O244 Fe245 1.918 . S
Fe245 O244 1.918 . S
Fe245 O246 2.002 . S
Fe245 O255 1.976 . S
Fe245 O259 1.996 . S
Fe245 O262 1.997 . S
O246 Fe245 2.002 . S
O246 C263 1.295 . S
O247 Fe242 1.997 . S
O247 C263 1.235 . S
O248 Fe242 2.002 . S
O248 C249 1.295 . S
C249 O248 1.295 . S
C249 O251 1.235 . S
C250 O255 1.287 . S
C250 O256 1.255 . S
O251 Fe243 1.997 . S
O251 C249 1.235 . S
C252 O258 1.287 . S
C252 O259 1.255 . S
O253 Fe242 1.976 . S
O253 C260 1.287 1_545 S
O254 Fe243 1.996 1_565 S
O254 C260 1.255 . S
O255 Fe245 1.976 . S
O255 C250 1.287 . S
O256 Fe242 1.996 . S
O256 C250 1.255 . S
C257 O261 1.295 . S
C257 O262 1.235 . S
O258 Fe243 1.976 . S
O258 C252 1.287 . S
O259 Fe245 1.996 . S
O259 C252 1.255 . S
C260 O253 1.287 1_565 S
C260 O254 1.255 . S
O261 Fe243 2.002 . S
O261 C257 1.295 . S
O262 Fe245 1.997 . S
O262 C257 1.235 . S
C263 O246 1.295 . S
C263 O247 1.235 . S
Fe264 O266 1.918 . S
Fe264 O269 1.997 . S
Fe264 O270 2.002 . S
Fe264 O275 1.976 . S
Fe264 O278 1.996 . S
Fe265 O266 1.918 . S
Fe265 O273 1.997 . S
Fe265 O276 1.996 1_655 S
Fe265 O280 1.976 . S
Fe265 O283 2.002 . S
O266 Fe264 1.918 . S
O266 Fe265 1.918 . S
O266 Fe267 1.918 . S
Fe267 O266 1.918 . S
Fe267 O268 2.002 . S
Fe267 O277 1.976 . S
Fe267 O281 1.996 . S
Fe267 O284 1.997 . S
O268 Fe267 2.002 . S
O268 C285 1.295 . S
O269 Fe264 1.997 . S
O269 C285 1.235 . S
O270 Fe264 2.002 . S
O270 C271 1.295 . S
C271 O270 1.295 . S
C271 O273 1.235 . S
C272 O277 1.287 . S
C272 O278 1.255 . S
O273 Fe265 1.997 . S
O273 C271 1.235 . S
C274 O280 1.287 . S
C274 O281 1.255 . S
O275 Fe264 1.976 . S
O275 C282 1.287 1_655 S
O276 Fe265 1.996 1_455 S
O276 C282 1.255 . S
O277 Fe267 1.976 . S
O277 C272 1.287 . S
O278 Fe264 1.996 . S
O278 C272 1.255 . S
C279 O283 1.295 . S
C279 O284 1.235 . S
O280 Fe265 1.976 . S
O280 C274 1.287 . S
O281 Fe267 1.996 . S
O281 C274 1.255 . S
C282 O275 1.287 1_455 S
C282 O276 1.255 . S
O283 Fe265 2.002 . S
O283 C279 1.295 . S
O284 Fe267 1.997 . S
O284 C279 1.235 . S
C285 O268 1.295 . S
C285 O269 1.235 . S
Fe286 O288 1.918 . S
Fe286 O291 1.997 . S
Fe286 O292 2.002 . S
Fe286 O297 1.976 . S
Fe286 O300 1.996 . S
Fe287 O288 1.918 . S
Fe287 O295 1.997 . S
Fe287 O298 1.996 1_565 S
Fe287 O302 1.976 . S
Fe287 O305 2.002 . S
O288 Fe286 1.918 . S
O288 Fe287 1.918 . S
O288 Fe289 1.918 . S
Fe289 O288 1.918 . S
Fe289 O290 2.002 . S
Fe289 O299 1.976 . S
Fe289 O303 1.996 . S
Fe289 O306 1.997 . S
O290 Fe289 2.002 . S
O290 C307 1.295 . S
O291 Fe286 1.997 . S
O291 C307 1.235 . S
O292 Fe286 2.002 . S
O292 C293 1.295 . S
C293 O292 1.295 . S
C293 O295 1.235 . S
C294 O299 1.287 . S
C294 O300 1.255 . S
O295 Fe287 1.997 . S
O295 C293 1.235 . S
C296 O302 1.287 . S
C296 O303 1.255 . S
O297 Fe286 1.976 . S
O297 C304 1.287 1_565 S
O298 Fe287 1.996 1_545 S
O298 C304 1.255 . S
O299 Fe289 1.976 . S
O299 C294 1.287 . S
O300 Fe286 1.996 . S
O300 C294 1.255 . S
C301 O305 1.295 . S
C301 O306 1.235 . S
O302 Fe287 1.976 . S
O302 C296 1.287 . S
O303 Fe289 1.996 . S
O303 C296 1.255 . S
C304 O297 1.287 1_545 S
C304 O298 1.255 . S
O305 Fe287 2.002 . S
O305 C301 1.295 . S
O306 Fe289 1.997 . S
O306 C301 1.235 . S
C307 O290 1.295 . S
C307 O291 1.235 . S
Fe308 O310 1.918 . S
Fe308 O313 1.997 . S
Fe308 O314 2.002 . S
Fe308 O319 1.976 . S
Fe308 O322 1.996 . S
Fe309 O310 1.918 . S
Fe309 O317 1.997 . S
Fe309 O320 1.996 1_455 S
Fe309 O324 1.976 . S
Fe309 O327 2.002 . S
O310 Fe308 1.918 . S
O310 Fe309 1.918 . S
O310 Fe311 1.918 . S
Fe311 O310 1.918 . S
Fe311 O312 2.002 . S
Fe311 O321 1.976 . S
Fe311 O325 1.996 . S
Fe311 O328 1.997 . S
O312 Fe311 2.002 . S
O312 C329 1.295 . S
O313 Fe308 1.997 . S
O313 C329 1.235 . S
O314 Fe308 2.002 . S
O314 C315 1.295 . S
C315 O314 1.295 . S
C315 O317 1.235 . S
C316 O321 1.287 . S
C316 O322 1.255 . S
O317 Fe309 1.997 . S
O317 C315 1.235 . S
C318 O324 1.287 . S
C318 O325 1.255 . S
O319 Fe308 1.976 . S
O319 C326 1.287 1_455 S
O320 Fe309 1.996 1_655 S
O320 C326 1.255 . S
O321 Fe311 1.976 . S
O321 C316 1.287 . S
O322 Fe308 1.996 . S
O322 C316 1.255 . S
C323 O327 1.295 . S
C323 O328 1.235 . S
O324 Fe309 1.976 . S
O324 C318 1.287 . S
O325 Fe311 1.996 . S
O325 C318 1.255 . S
C326 O319 1.287 1_655 S
C326 O320 1.255 . S
O327 Fe309 2.002 . S
O327 C323 1.295 . S
O328 Fe311 1.997 . S
O328 C323 1.235 . S
C329 O312 1.295 . S
C329 O313 1.235 . S
Fe330 O332 1.918 . S
Fe330 O335 1.997 . S
Fe330 O336 2.002 . S
Fe330 O341 1.976 . S
Fe330 O344 1.996 1_545 S
Fe331 O332 1.918 . S
Fe331 O339 1.997 . S
Fe331 O342 1.996 . S
Fe331 O346 1.976 . S
Fe331 O349 2.002 . S
O332 Fe330 1.918 . S
O332 Fe331 1.918 . S
O332 Fe333 1.918 . S
Fe333 O332 1.918 . S
Fe333 O334 2.002 . S
Fe333 O343 1.976 . S
Fe333 O347 1.996 . S
Fe333 O350 1.997 . S
O334 Fe333 2.002 . S
O334 C351 1.295 . S
O335 Fe330 1.997 . S
O335 C351 1.235 . S
O336 Fe330 2.002 . S
O336 C337 1.295 . S
C337 O336 1.295 . S
C337 O339 1.235 . S
C338 O343 1.287 1_565 S
C338 O344 1.255 . S
O339 Fe331 1.997 . S
O339 C337 1.235 . S
C340 O346 1.287 . S
C340 O347 1.255 . S
O341 Fe330 1.976 . S
O341 C348 1.287 . S
O342 Fe331 1.996 . S
O342 C348 1.255 . S
O343 Fe333 1.976 . S
O343 C338 1.287 1_545 S
O344 Fe330 1.996 1_565 S
O344 C338 1.255 . S
C345 O349 1.295 . S
C345 O350 1.235 . S
O346 Fe331 1.976 . S
O346 C340 1.287 . S
O347 Fe333 1.996 . S
O347 C340 1.255 . S
C348 O341 1.287 . S
C348 O342 1.255 . S
O349 Fe331 2.002 . S
O349 C345 1.295 . S
O350 Fe333 1.997 . S
O350 C345 1.235 . S
C351 O334 1.295 . S
C351 O335 1.235 . S
H352 C358 0.930 . S
H353 C361 0.930 . S
H354 C362 0.930 . S
H355 C363 0.930 . S
H356 C366 0.930 . S
H357 C367 0.930 . S
C358 H352 0.930 . S
C358 C359 1.355 . S
C358 C360 1.415 . S
C359 C358 1.355 . S
C359 C361 1.419 . S
C360 C358 1.415 . S
C360 C365 1.425 . S
C360 C367 1.409 . S
C361 H353 0.930 . S
C361 C359 1.419 . S
C361 C362 1.362 . S
C362 H354 0.930 . S
C362 C361 1.362 . S
C362 C365 1.409 . S
C363 H355 0.930 . S
C363 C364 1.355 . S
C363 C365 1.415 . S
C364 C363 1.355 . S
C364 C366 1.419 . S
C365 C360 1.425 . S
C365 C362 1.409 . S
C365 C363 1.415 . S
C366 H356 0.930 . S
C366 C364 1.419 . S
C366 C367 1.362 . S
C367 H357 0.930 . S
C367 C360 1.409 . S
C367 C366 1.362 . S
H368 C374 0.930 . S
H369 C377 0.930 . S
H370 C378 0.930 . S
H371 C379 0.930 . S
H372 C382 0.930 . S
H373 C383 0.930 . S
C374 H368 0.930 . S
C374 C375 1.355 . S
C374 C376 1.415 . S
C375 C374 1.355 . S
C375 C377 1.419 . S
C376 C374 1.415 . S
C376 C381 1.425 . S
C376 C383 1.409 . S
C377 H369 0.930 . S
C377 C375 1.419 . S
C377 C378 1.362 . S
C378 H370 0.930 . S
C378 C377 1.362 . S
C378 C381 1.409 . S
C379 H371 0.930 . S
C379 C380 1.355 . S
C379 C381 1.415 . S
C380 C379 1.355 . S
C380 C382 1.419 . S
C381 C376 1.425 . S
C381 C378 1.409 . S
C381 C379 1.415 . S
C382 H372 0.930 . S
C382 C380 1.419 . S
C382 C383 1.362 . S
C383 H373 0.930 . S
C383 C376 1.409 . S
C383 C382 1.362 . S
H384 C390 0.930 . S
H385 C393 0.930 . S
H386 C394 0.930 . S
H387 C395 0.930 . S
H388 C398 0.930 . S
H389 C399 0.930 . S
C390 H384 0.930 . S
C390 C391 1.355 . S
C390 C392 1.415 . S
C391 C390 1.355 . S
C391 C393 1.419 . S
C392 C390 1.415 . S
C392 C397 1.425 . S
C392 C399 1.409 . S
C393 H385 0.930 . S
C393 C391 1.419 . S
C393 C394 1.362 . S
C394 H386 0.930 . S
C394 C393 1.362 . S
C394 C397 1.409 . S
C395 H387 0.930 . S
C395 C396 1.355 . S
C395 C397 1.415 . S
C396 C395 1.355 . S
C396 C398 1.419 . S
C397 C392 1.425 . S
C397 C394 1.409 . S
C397 C395 1.415 . S
C398 H388 0.930 . S
C398 C396 1.419 . S
C398 C399 1.362 . S
C399 H389 0.930 . S
C399 C392 1.409 . S
C399 C398 1.362 . S
H400 C406 0.930 . S
H401 C409 0.930 . S
H402 C410 0.930 . S
H403 C411 0.930 . S
H404 C414 0.930 . S
H405 C415 0.930 . S
C406 H400 0.930 . S
C406 C407 1.355 . S
C406 C408 1.415 . S
C407 C406 1.355 . S
C407 C409 1.419 . S
C408 C406 1.415 . S
C408 C413 1.425 . S
C408 C415 1.409 . S
C409 H401 0.930 . S
C409 C407 1.419 . S
C409 C410 1.362 . S
C410 H402 0.930 . S
C410 C409 1.362 . S
C410 C413 1.409 . S
C411 H403 0.930 . S
C411 C412 1.355 . S
C411 C413 1.415 . S
C412 C411 1.355 . S
C412 C414 1.419 . S
C413 C408 1.425 . S
C413 C410 1.409 . S
C413 C411 1.415 . S
C414 H404 0.930 . S
C414 C412 1.419 . S
C414 C415 1.362 . S
C415 H405 0.930 . S
C415 C408 1.409 . S
C415 C414 1.362 . S
H416 C422 0.930 . S
H417 C425 0.930 . S
H418 C426 0.930 . S
H419 C427 0.930 . S
H420 C430 0.930 . S
H421 C431 0.930 . S
C422 H416 0.930 . S
C422 C423 1.355 . S
C422 C424 1.415 . S
C423 C422 1.355 . S
C423 C425 1.419 . S
C424 C422 1.415 . S
C424 C429 1.425 . S
C424 C431 1.409 . S
C425 H417 0.930 . S
C425 C423 1.419 . S
C425 C426 1.362 . S
C426 H418 0.930 . S
C426 C425 1.362 . S
C426 C429 1.409 . S
C427 H419 0.930 . S
C427 C428 1.355 . S
C427 C429 1.415 . S
C428 C427 1.355 . S
C428 C430 1.419 . S
C429 C424 1.425 . S
C429 C426 1.409 . S
C429 C427 1.415 . S
C430 H420 0.930 . S
C430 C428 1.419 . S
C430 C431 1.362 . S
C431 H421 0.930 . S
C431 C424 1.409 . S
C431 C430 1.362 . S
H432 C438 0.930 . S
H433 C441 0.930 . S
H434 C442 0.930 . S
H435 C443 0.930 . S
H436 C446 0.930 . S
H437 C447 0.930 . S
C438 H432 0.930 . S
C438 C439 1.355 . S
C438 C440 1.415 . S
C439 C438 1.355 . S
C439 C441 1.419 . S
C440 C438 1.415 . S
C440 C445 1.425 . S
C440 C447 1.409 . S
C441 H433 0.930 . S
C441 C439 1.419 . S
C441 C442 1.362 . S
C442 H434 0.930 . S
C442 C441 1.362 . S
C442 C445 1.409 . S
C443 H435 0.930 . S
C443 C444 1.355 . S
C443 C445 1.415 . S
C444 C443 1.355 . S
C444 C446 1.419 . S
C445 C440 1.425 . S
C445 C442 1.409 . S
C445 C443 1.415 . S
C446 H436 0.930 . S
C446 C444 1.419 . S
C446 C447 1.362 . S
C447 H437 0.930 . S
C447 C440 1.409 . S
C447 C446 1.362 . S
H448 C454 0.930 . S
H449 C457 0.925 1_565 S
H450 C458 0.930 . S
H451 C459 0.930 . S
H452 C462 0.930 . S
H453 C463 0.930 . S
C454 H448 0.930 . S
C454 C455 1.355 . S
C454 C456 1.415 . S
C455 C454 1.355 . S
C455 C457 1.419 . S
C456 C454 1.415 . S
C456 C461 1.425 . S
C456 C463 1.409 . S
C457 H449 0.925 1_545 S
C457 C455 1.419 . S
C457 C458 1.362 . S
C458 H450 0.930 . S
C458 C457 1.362 . S
C458 C461 1.409 . S
C459 H451 0.930 . S
C459 C460 1.355 . S
C459 C461 1.415 . S
C460 C459 1.355 . S
C460 C462 1.419 . S
C461 C456 1.425 . S
C461 C458 1.409 . S
C461 C459 1.415 . S
C462 H452 0.930 . S
C462 C460 1.419 . S
C462 C463 1.362 . S
C463 H453 0.930 . S
C463 C456 1.409 . S
C463 C462 1.362 . S
H464 C470 0.930 . S
H465 C473 0.935 . S
H466 C474 0.930 . S
H467 C475 0.930 . S
H468 C478 0.930 . S
H469 C479 0.930 . S
C470 H464 0.930 . S
C470 C471 1.355 . S
C470 C472 1.415 . S
C471 C470 1.355 . S
C471 C473 1.419 . S
C472 C470 1.415 . S
C472 C477 1.425 . S
C472 C479 1.409 . S
C473 H465 0.935 . S
C473 C471 1.419 . S
C473 C474 1.362 . S
C474 H466 0.930 . S
C474 C473 1.362 . S
C474 C477 1.409 . S
C475 H467 0.930 . S
C475 C476 1.355 . S
C475 C477 1.415 . S
C476 C475 1.355 . S
C476 C478 1.419 . S
C477 C472 1.425 . S
C477 C474 1.409 . S
C477 C475 1.415 . S
C478 H468 0.930 . S
C478 C476 1.419 . S
C478 C479 1.362 . S
C479 H469 0.930 . S
C479 C472 1.409 . S
C479 C478 1.362 . S
H480 C486 0.930 . S
H481 C489 0.930 . S
H482 C490 0.930 . S
H483 C491 0.930 . S
H484 C494 0.930 . S
H485 C495 0.930 . S
C486 H480 0.930 . S
C486 C487 1.355 . S
C486 C488 1.415 . S
C487 C486 1.355 . S
C487 C489 1.419 . S
C488 C486 1.415 . S
C488 C493 1.425 . S
C488 C495 1.409 . S
C489 H481 0.930 . S
C489 C487 1.419 . S
C489 C490 1.362 . S
C490 H482 0.930 . S
C490 C489 1.362 . S
C490 C493 1.409 . S
C491 H483 0.930 . S
C491 C492 1.355 . S
C491 C493 1.415 . S
C492 C491 1.355 . S
C492 C494 1.419 . S
C493 C488 1.425 . S
C493 C490 1.409 . S
C493 C491 1.415 . S
C494 H484 0.930 . S
C494 C492 1.419 . S
C494 C495 1.362 . S
C495 H485 0.930 . S
C495 C488 1.409 . S
C495 C494 1.362 . S
H496 C502 0.930 . S
H497 C505 0.930 . S
H498 C506 0.930 . S
H499 C507 0.930 . S
H500 C510 0.930 . S
H501 C511 0.930 . S
C502 H496 0.930 . S
C502 C503 1.355 . S
C502 C504 1.415 . S
C503 C502 1.355 . S
C503 C505 1.419 . S
C504 C502 1.415 . S
C504 C509 1.425 . S
C504 C511 1.409 . S
C505 H497 0.930 . S
C505 C503 1.419 . S
C505 C506 1.362 . S
C506 H498 0.930 . S
C506 C505 1.362 . S
C506 C509 1.409 . S
C507 H499 0.930 . S
C507 C508 1.355 . S
C507 C509 1.415 . S
C508 C507 1.355 . S
C508 C510 1.419 . S
C509 C504 1.425 . S
C509 C506 1.409 . S
C509 C507 1.415 . S
C510 H500 0.930 . S
C510 C508 1.419 . S
C510 C511 1.362 . S
C511 H501 0.930 . S
C511 C504 1.409 . S
C511 C510 1.362 . S
H512 C518 0.930 . S
H513 C521 0.927 1_565 S
H514 C522 0.930 . S
H515 C523 0.930 . S
H516 C526 0.930 . S
H517 C527 0.930 . S
C518 H512 0.930 . S
C518 C519 1.355 . S
C518 C520 1.415 . S
C519 C518 1.355 . S
C519 C521 1.419 . S
C520 C518 1.415 . S
C520 C525 1.425 . S
C520 C527 1.409 . S
C521 H513 0.927 1_545 S
C521 C519 1.419 . S
C521 C522 1.362 . S
C522 H514 0.930 . S
C522 C521 1.362 . S
C522 C525 1.409 . S
C523 H515 0.930 . S
C523 C524 1.355 . S
C523 C525 1.415 . S
C524 C523 1.355 . S
C524 C526 1.419 . S
C525 C520 1.425 . S
C525 C522 1.409 . S
C525 C523 1.415 . S
C526 H516 0.930 . S
C526 C524 1.419 . S
C526 C527 1.362 . S
C527 H517 0.930 . S
C527 C520 1.409 . S
C527 C526 1.362 . S
H528 C534 0.930 . S
H529 C537 0.930 . S
H530 C538 0.930 . S
H531 C539 0.930 . S
H532 C542 0.930 . S
H533 C543 0.930 . S
C534 H528 0.930 . S
C534 C535 1.355 . S
C534 C536 1.415 . S
C535 C534 1.355 . S
C535 C537 1.419 . S
C536 C534 1.415 . S
C536 C541 1.425 . S
C536 C543 1.409 . S
C537 H529 0.930 . S
C537 C535 1.419 . S
C537 C538 1.362 . S
C538 H530 0.930 . S
C538 C537 1.362 . S
C538 C541 1.409 . S
C539 H531 0.930 . S
C539 C540 1.355 . S
C539 C541 1.415 . S
C540 C539 1.355 . S
C540 C542 1.419 . S
C541 C536 1.425 . S
C541 C538 1.409 . S
C541 C539 1.415 . S
C542 H532 0.930 . S
C542 C540 1.419 . S
C542 C543 1.362 . S
C543 H533 0.930 . S
C543 C536 1.409 . S
C543 C542 1.362 . S
H544 C550 0.930 . S
H545 C553 0.950 . S
H546 C554 0.930 . S
H547 C555 0.930 . S
H548 C558 0.930 . S
H549 C559 0.930 . S
C550 H544 0.930 . S
C550 C551 1.355 . S
C550 C552 1.415 . S
C551 C550 1.355 . S
C551 C553 1.419 . S
C552 C550 1.415 . S
C552 C557 1.425 . S
C552 C559 1.409 . S
C553 H545 0.950 . S
C553 C551 1.419 . S
C553 C554 1.362 . S
C554 H546 0.930 . S
C554 C553 1.362 . S
C554 C557 1.409 . S
C555 H547 0.930 . S
C555 C556 1.355 . S
C555 C557 1.415 . S
C556 C555 1.355 . S
C556 C558 1.419 . S
C557 C552 1.425 . S
C557 C554 1.409 . S
C557 C555 1.415 . S
C558 H548 0.930 . S
C558 C556 1.419 . S
C558 C559 1.362 . S
C559 H549 0.930 . S
C559 C552 1.409 . S
C559 C558 1.362 . S
H560 C566 0.930 . S
H561 C569 0.925 1_455 S
H562 C570 0.930 . S
H563 C571 0.930 . S
H564 C574 0.930 . S
H565 C575 0.930 . S
C566 H560 0.930 . S
C566 C567 1.355 . S
C566 C568 1.415 . S
C567 C566 1.355 . S
C567 C569 1.419 . S
C568 C566 1.415 . S
C568 C573 1.425 . S
C568 C575 1.409 . S
C569 H561 0.925 1_655 S
C569 C567 1.419 . S
C569 C570 1.362 . S
C570 H562 0.930 . S
C570 C569 1.362 . S
C570 C573 1.409 . S
C571 H563 0.930 . S
C571 C572 1.355 . S
C571 C573 1.415 . S
C572 C571 1.355 . S
C572 C574 1.419 . S
C573 C568 1.425 . S
C573 C570 1.409 . S
C573 C571 1.415 . S
C574 H564 0.930 . S
C574 C572 1.419 . S
C574 C575 1.362 . S
C575 H565 0.930 . S
C575 C568 1.409 . S
C575 C574 1.362 . S
H576 C582 0.930 . S
H577 C585 0.930 . S
H578 C586 0.930 . S
H579 C587 0.930 . S
H580 C590 0.930 . S
H581 C591 0.930 . S
C582 H576 0.930 . S
C582 C583 1.355 . S
C582 C584 1.415 . S
C583 C582 1.355 . S
C583 C585 1.419 . S
C584 C582 1.415 . S
C584 C589 1.425 . S
C584 C591 1.409 . S
C585 H577 0.930 . S
C585 C583 1.419 . S
C585 C586 1.362 . S
C586 H578 0.930 . S
C586 C585 1.362 . S
C586 C589 1.409 . S
C587 H579 0.930 . S
C587 C588 1.355 . S
C587 C589 1.415 . S
C588 C587 1.355 . S
C588 C590 1.419 . S
C589 C584 1.425 . S
C589 C586 1.409 . S
C589 C587 1.415 . S
C590 H580 0.930 . S
C590 C588 1.419 . S
C590 C591 1.362 . S
C591 H581 0.930 . S
C591 C584 1.409 . S
C591 C590 1.362 . S
H592 C598 0.930 . S
H593 C601 0.930 . S
H594 C602 0.930 . S
H595 C603 0.930 . S
H596 C606 0.930 . S
H597 C607 0.930 . S
C598 H592 0.930 . S
C598 C599 1.355 . S
C598 C600 1.415 . S
C599 C598 1.355 . S
C599 C601 1.419 . S
C600 C598 1.415 . S
C600 C605 1.425 . S
C600 C607 1.409 . S
C601 H593 0.930 . S
C601 C599 1.419 . S
C601 C602 1.362 . S
C602 H594 0.930 . S
C602 C601 1.362 . S
C602 C605 1.409 . S
C603 H595 0.930 . S
C603 C604 1.355 . S
C603 C605 1.415 . S
C604 C603 1.355 . S
C604 C606 1.419 . S
C605 C600 1.425 . S
C605 C602 1.409 . S
C605 C603 1.415 . S
C606 H596 0.930 . S
C606 C604 1.419 . S
C606 C607 1.362 . S
C607 H597 0.930 . S
C607 C600 1.409 . S
C607 C606 1.362 . S
H608 C614 0.930 . S
H609 C617 0.930 . S
H610 C618 0.930 . S
H611 C619 0.930 . S
H612 C622 0.930 . S
H613 C623 0.930 . S
C614 H608 0.930 . S
C614 C615 1.355 . S
C614 C616 1.415 . S
C615 C614 1.355 . S
C615 C617 1.419 . S
C616 C614 1.415 . S
C616 C621 1.425 . S
C616 C623 1.409 . S
C617 H609 0.930 . S
C617 C615 1.419 . S
C617 C618 1.362 . S
C618 H610 0.930 . S
C618 C617 1.362 . S
C618 C621 1.409 . S
C619 H611 0.930 . S
C619 C620 1.355 . S
C619 C621 1.415 . S
C620 C619 1.355 . S
C620 C622 1.419 . S
C621 C616 1.425 . S
C621 C618 1.409 . S
C621 C619 1.415 . S
C622 H612 0.930 . S
C622 C620 1.419 . S
C622 C623 1.362 . S
C623 H613 0.930 . S
C623 C616 1.409 . S
C623 C622 1.362 . S
H624 C630 0.930 . S
H625 C633 0.930 . S
H626 C634 0.930 . S
H627 C635 0.930 . S
H628 C638 0.930 . S
H629 C639 0.930 . S
C630 H624 0.930 . S
C630 C631 1.355 . S
C630 C632 1.415 . S
C631 C630 1.355 . S
C631 C633 1.419 . S
C632 C630 1.415 . S
C632 C637 1.425 . S
C632 C639 1.409 . S
C633 H625 0.930 . S
C633 C631 1.419 . S
C633 C634 1.362 . S
C634 H626 0.930 . S
C634 C633 1.362 . S
C634 C637 1.409 . S
C635 H627 0.930 . S
C635 C636 1.355 . S
C635 C637 1.415 . S
C636 C635 1.355 . S
C636 C638 1.419 . S
C637 C632 1.425 . S
C637 C634 1.409 . S
C637 C635 1.415 . S
C638 H628 0.930 . S
C638 C636 1.419 . S
C638 C639 1.362 . S
C639 H629 0.930 . S
C639 C632 1.409 . S
C639 C638 1.362 . S
H640 C646 0.930 . S
H641 C649 0.930 . S
H642 C650 0.930 . S
H643 C651 0.930 . S
H644 C654 0.930 . S
H645 C655 0.930 . S
C646 H640 0.930 . S
C646 C647 1.355 . S
C646 C648 1.415 . S
C647 C646 1.355 . S
C647 C649 1.419 . S
C648 C646 1.415 . S
C648 C653 1.425 . S
C648 C655 1.409 . S
C649 H641 0.930 . S
C649 C647 1.419 . S
C649 C650 1.362 . S
C650 H642 0.930 . S
C650 C649 1.362 . S
C650 C653 1.409 . S
C651 H643 0.930 . S
C651 C652 1.355 . S
C651 C653 1.415 . S
C652 C651 1.355 . S
C652 C654 1.419 . S
C653 C648 1.425 . S
C653 C650 1.409 . S
C653 C651 1.415 . S
C654 H644 0.930 . S
C654 C652 1.419 . S
C654 C655 1.362 . S
C655 H645 0.930 . S
C655 C648 1.409 . S
C655 C654 1.362 . S
H656 C662 0.930 . S
H657 C665 0.930 . S
H658 C666 0.930 . S
H659 C667 0.930 . S
H660 C670 0.930 . S
H661 C671 0.930 . S
C662 H656 0.930 . S
C662 C663 1.355 . S
C662 C664 1.415 . S
C663 C662 1.355 . S
C663 C665 1.419 . S
C664 C662 1.415 . S
C664 C669 1.425 . S
C664 C671 1.409 . S
C665 H657 0.930 . S
C665 C663 1.419 . S
C665 C666 1.362 . S
C666 H658 0.930 . S
C666 C665 1.362 . S
C666 C669 1.409 . S
C667 H659 0.930 . S
C667 C668 1.355 . S
C667 C669 1.415 . S
C668 C667 1.355 . S
C668 C670 1.419 . S
C669 C664 1.425 . S
C669 C666 1.409 . S
C669 C667 1.415 . S
C670 H660 0.930 . S
C670 C668 1.419 . S
C670 C671 1.362 . S
C671 H661 0.930 . S
C671 C664 1.409 . S
C671 C670 1.362 . S
H672 C678 0.930 . S
H673 C681 0.930 . S
H674 C682 0.930 . S
H675 C683 0.930 . S
H676 C686 0.930 . S
H677 C687 0.930 . S
C678 H672 0.930 . S
C678 C679 1.355 . S
C678 C680 1.415 . S
C679 C678 1.355 . S
C679 C681 1.419 . S
C680 C678 1.415 . S
C680 C685 1.425 . S
C680 C687 1.409 . S
C681 H673 0.930 . S
C681 C679 1.419 . S
C681 C682 1.362 . S
C682 H674 0.930 . S
C682 C681 1.362 . S
C682 C685 1.409 . S
C683 H675 0.930 . S
C683 C684 1.355 . S
C683 C685 1.415 . S
C684 C683 1.355 . S
C684 C686 1.419 . S
C685 C680 1.425 . S
C685 C682 1.409 . S
C685 C683 1.415 . S
C686 H676 0.930 . S
C686 C684 1.419 . S
C686 C687 1.362 . S
C687 H677 0.930 . S
C687 C680 1.409 . S
C687 C686 1.362 . S
H688 C694 0.930 . S
H689 C697 0.930 . S
H690 C698 0.930 . S
H691 C699 0.930 . S
H692 C702 0.930 . S
H693 C703 0.930 . S
C694 H688 0.930 . S
C694 C695 1.355 . S
C694 C696 1.415 . S
C695 C694 1.355 . S
C695 C697 1.419 . S
C696 C694 1.415 . S
C696 C701 1.425 . S
C696 C703 1.409 . S
C697 H689 0.930 . S
C697 C695 1.419 . S
C697 C698 1.362 . S
C698 H690 0.930 . S
C698 C697 1.362 . S
C698 C701 1.409 . S
C699 H691 0.930 . S
C699 C700 1.355 . S
C699 C701 1.415 . S
C700 C699 1.355 . S
C700 C702 1.419 . S
C701 C696 1.425 . S
C701 C698 1.409 . S
C701 C699 1.415 . S
C702 H692 0.930 . S
C702 C700 1.419 . S
C702 C703 1.362 . S
C703 H693 0.930 . S
C703 C696 1.409 . S
C703 C702 1.362 . S
H704 C710 0.930 . S
H705 C713 0.930 . S
H706 C714 0.930 . S
H707 C715 0.930 . S
H708 C718 0.930 . S
H709 C719 0.930 . S
C710 H704 0.930 . S
C710 C711 1.355 . S
C710 C712 1.415 . S
C711 C710 1.355 . S
C711 C713 1.419 . S
C712 C710 1.415 . S
C712 C717 1.425 . S
C712 C719 1.409 . S
C713 H705 0.930 . S
C713 C711 1.419 . S
C713 C714 1.362 . S
C714 H706 0.930 . S
C714 C713 1.362 . S
C714 C717 1.409 . S
C715 H707 0.930 . S
C715 C716 1.355 . S
C715 C717 1.415 . S
C716 C715 1.355 . S
C716 C718 1.419 . S
C717 C712 1.425 . S
C717 C714 1.409 . S
C717 C715 1.415 . S
C718 H708 0.930 . S
C718 C716 1.419 . S
C718 C719 1.362 . S
C719 H709 0.930 . S
C719 C712 1.409 . S
C719 C718 1.362 . S
H720 C726 0.930 . S
H721 C729 0.930 . S
H722 C730 0.930 . S
H723 C731 0.930 . S
H724 C734 0.930 . S
H725 C735 0.930 . S
C726 H720 0.930 . S
C726 C727 1.355 . S
C726 C728 1.415 . S
C727 C726 1.355 . S
C727 C729 1.419 . S
C728 C726 1.415 . S
C728 C733 1.425 . S
C728 C735 1.409 . S
C729 H721 0.930 . S
C729 C727 1.419 . S
C729 C730 1.362 . S
C730 H722 0.930 . S
C730 C729 1.362 . S
C730 C733 1.409 . S
C731 H723 0.930 . S
C731 C732 1.355 . S
C731 C733 1.415 . S
C732 C731 1.355 . S
C732 C734 1.419 . S
C733 C728 1.425 . S
C733 C730 1.409 . S
C733 C731 1.415 . S
C734 H724 0.930 . S
C734 C732 1.419 . S
C734 C735 1.362 . S
C735 H725 0.930 . S
C735 C728 1.409 . S
C735 C734 1.362 . S
H736 C742 0.930 . S
H737 C745 0.930 . S
H738 C746 0.930 . S
H739 C747 0.930 . S
H740 C750 0.930 . S
H741 C751 0.930 . S
C742 H736 0.930 . S
C742 C743 1.355 . S
C742 C744 1.415 . S
C743 C742 1.355 . S
C743 C745 1.419 . S
C744 C742 1.415 . S
C744 C749 1.425 1_554 S
C744 C751 1.409 1_554 S
C745 H737 0.930 . S
C745 C743 1.419 . S
C745 C746 1.362 . S
C746 H738 0.930 . S
C746 C745 1.362 . S
C746 C749 1.409 1_554 S
C747 H739 0.930 . S
C747 C748 1.355 . S
C747 C749 1.415 . S
C748 C747 1.355 . S
C748 C750 1.419 . S
C749 C744 1.425 1_556 S
C749 C746 1.409 1_556 S
C749 C747 1.415 . S
C750 H740 0.930 . S
C750 C748 1.419 . S
C750 C751 1.362 . S
C751 H741 0.930 . S
C751 C744 1.409 1_556 S
C751 C750 1.362 . S
H752 C758 0.930 . S
H753 C761 0.930 . S
H754 C762 0.930 . S
H755 C763 0.930 . S
H756 C766 0.930 . S
H757 C767 0.930 . S
C758 H752 0.930 . S
C758 C759 1.355 . S
C758 C760 1.415 . S
C759 C758 1.355 . S
C759 C761 1.419 . S
C760 C758 1.415 . S
C760 C765 1.425 1_554 S
C760 C767 1.409 1_554 S
C761 H753 0.930 . S
C761 C759 1.419 . S
C761 C762 1.362 . S
C762 H754 0.930 . S
C762 C761 1.362 . S
C762 C765 1.409 1_554 S
C763 H755 0.930 . S
C763 C764 1.355 . S
C763 C765 1.415 . S
C764 C763 1.355 . S
C764 C766 1.419 . S
C765 C760 1.425 1_556 S
C765 C762 1.409 1_556 S
C765 C763 1.415 . S
C766 H756 0.930 . S
C766 C764 1.419 . S
C766 C767 1.362 . S
C767 H757 0.930 . S
C767 C760 1.409 1_556 S
C767 C766 1.362 . S
H768 C774 0.930 . S
H769 C777 0.930 . S
H770 C778 0.930 . S
H771 C779 0.930 . S
H772 C782 0.930 . S
H773 C783 0.930 . S
C774 H768 0.930 . S
C774 C775 1.355 . S
C774 C776 1.415 . S
C775 C774 1.355 . S
C775 C777 1.419 . S
C776 C774 1.415 . S
C776 C781 1.425 1_556 S
C776 C783 1.409 1_556 S
C777 H769 0.930 . S
C777 C775 1.419 . S
C777 C778 1.362 . S
C778 H770 0.930 . S
C778 C777 1.362 . S
C778 C781 1.409 1_556 S
C779 H771 0.930 . S
C779 C780 1.355 . S
C779 C781 1.415 . S
C780 C779 1.355 . S
C780 C782 1.419 . S
C781 C776 1.425 1_554 S
C781 C778 1.409 1_554 S
C781 C779 1.415 . S
C782 H772 0.930 . S
C782 C780 1.419 . S
C782 C783 1.362 . S
C783 H773 0.930 . S
C783 C776 1.409 1_554 S
C783 C782 1.362 . S
H784 C790 0.930 . S
H785 C793 0.930 . S
H786 C794 0.930 1_545 S
H787 C795 0.930 . S
H788 C798 0.930 . S
H789 C799 0.930 . S
C790 H784 0.930 . S
C790 C791 1.355 . S
C790 C792 1.415 . S
C791 C790 1.355 . S
C791 C793 1.419 . S
C792 C790 1.415 . S
C792 C797 1.425 1_554 S
C792 C799 1.409 1_554 S
C793 H785 0.930 . S
C793 C791 1.419 . S
C793 C794 1.362 . S
C794 H786 0.930 1_565 S
C794 C793 1.362 . S
C794 C797 1.409 1_554 S
C795 H787 0.930 . S
C795 C796 1.355 . S
C795 C797 1.415 . S
C796 C795 1.355 . S
C796 C798 1.419 . S
C797 C792 1.425 1_556 S
C797 C794 1.409 1_556 S
C797 C795 1.415 . S
C798 H788 0.930 . S
C798 C796 1.419 . S
C798 C799 1.362 . S
C799 H789 0.930 . S
C799 C792 1.409 1_556 S
C799 C798 1.362 . S
H800 C806 0.930 . S
H801 C809 0.930 . S
H802 C810 0.930 . S
H803 C811 0.930 . S
H804 C814 0.930 . S
H805 C815 0.930 . S
C806 H800 0.930 . S
C806 C807 1.355 . S
C806 C808 1.415 . S
C807 C806 1.355 . S
C807 C809 1.419 . S
C808 C806 1.415 . S
C808 C813 1.425 . S
C808 C815 1.409 . S
C809 H801 0.930 . S
C809 C807 1.419 . S
C809 C810 1.362 . S
C810 H802 0.930 . S
C810 C809 1.362 . S
C810 C813 1.409 . S
C811 H803 0.930 . S
C811 C812 1.355 . S
C811 C813 1.415 . S
C812 C811 1.355 . S
C812 C814 1.419 . S
C813 C808 1.425 . S
C813 C810 1.409 . S
C813 C811 1.415 . S
C814 H804 0.930 . S
C814 C812 1.419 . S
C814 C815 1.362 . S
C815 H805 0.930 . S
C815 C808 1.409 . S
C815 C814 1.362 . S
H816 C822 0.930 . S
H817 C825 0.930 . S
H818 C826 0.930 . S
H819 C827 0.930 . S
H820 C830 0.930 . S
H821 C831 0.930 . S
C822 H816 0.930 . S
C822 C823 1.355 . S
C822 C824 1.415 . S
C823 C822 1.355 . S
C823 C825 1.419 . S
C824 C822 1.415 . S
C824 C829 1.425 . S
C824 C831 1.409 . S
C825 H817 0.930 . S
C825 C823 1.419 . S
C825 C826 1.362 . S
C826 H818 0.930 . S
C826 C825 1.362 . S
C826 C829 1.409 . S
C827 H819 0.930 . S
C827 C828 1.355 . S
C827 C829 1.415 . S
C828 C827 1.355 . S
C828 C830 1.419 . S
C829 C824 1.425 . S
C829 C826 1.409 . S
C829 C827 1.415 . S
C830 H820 0.930 . S
C830 C828 1.419 . S
C830 C831 1.362 . S
C831 H821 0.930 . S
C831 C824 1.409 . S
C831 C830 1.362 . S
H832 C838 0.930 . S
H833 C841 0.930 . S
H834 C842 0.930 . S
H835 C843 0.930 . S
H836 C846 0.930 . S
H837 C847 0.930 . S
C838 H832 0.930 . S
C838 C839 1.355 . S
C838 C840 1.415 . S
C839 C838 1.355 . S
C839 C841 1.419 . S
C840 C838 1.415 . S
C840 C845 1.425 . S
C840 C847 1.409 . S
C841 H833 0.930 . S
C841 C839 1.419 . S
C841 C842 1.362 . S
C842 H834 0.930 . S
C842 C841 1.362 . S
C842 C845 1.409 . S
C843 H835 0.930 . S
C843 C844 1.355 . S
C843 C845 1.415 . S
C844 C843 1.355 . S
C844 C846 1.419 . S
C845 C840 1.425 . S
C845 C842 1.409 . S
C845 C843 1.415 . S
C846 H836 0.930 . S
C846 C844 1.419 . S
C846 C847 1.362 . S
C847 H837 0.930 . S
C847 C840 1.409 . S
C847 C846 1.362 . S
H848 C854 0.930 . S
H849 C857 0.930 . S
H850 C858 0.910 1_545 S
H851 C859 0.930 . S
H852 C862 0.930 . S
H853 C863 0.930 . S
C854 H848 0.930 . S
C854 C855 1.355 . S
C854 C856 1.415 . S
C855 C854 1.355 . S
C855 C857 1.419 . S
C856 C854 1.415 . S
C856 C861 1.425 . S
C856 C863 1.409 . S
C857 H849 0.930 . S
C857 C855 1.419 . S
C857 C858 1.362 . S
C858 H850 0.910 1_565 S
C858 C857 1.362 . S
C858 C861 1.409 . S
C859 H851 0.930 . S
C859 C860 1.355 . S
C859 C861 1.415 . S
C860 C859 1.355 . S
C860 C862 1.419 . S
C861 C856 1.425 . S
C861 C858 1.409 . S
C861 C859 1.415 . S
C862 H852 0.930 . S
C862 C860 1.419 . S
C862 C863 1.362 . S
C863 H853 0.930 . S
C863 C856 1.409 . S
C863 C862 1.362 . S
H864 C870 0.930 . S
H865 C873 0.930 . S
H866 C874 0.930 . S
H867 C875 0.930 . S
H868 C878 0.930 . S
H869 C879 0.930 . S
C870 H864 0.930 . S
C870 C871 1.355 . S
C870 C872 1.415 . S
C871 C870 1.355 . S
C871 C873 1.419 1_455 S
C872 C870 1.415 . S
C872 C877 1.425 1_455 S
C872 C879 1.409 . S
C873 H865 0.930 . S
C873 C871 1.419 1_655 S
C873 C874 1.362 . S
C874 H866 0.930 . S
C874 C873 1.362 . S
C874 C877 1.409 . S
C875 H867 0.930 . S
C875 C876 1.355 . S
C875 C877 1.415 . S
C876 C875 1.355 . S
C876 C878 1.419 1_655 S
C877 C872 1.425 1_655 S
C877 C874 1.409 . S
C877 C875 1.415 . S
C878 H868 0.930 . S
C878 C876 1.419 1_455 S
C878 C879 1.362 . S
C879 H869 0.930 . S
C879 C872 1.409 . S
C879 C878 1.362 . S
H880 C886 0.930 . S
H881 C889 0.930 . S
H882 C890 0.930 . S
H883 C891 0.930 . S
H884 C894 0.930 . S
H885 C895 0.930 . S
C886 H880 0.930 . S
C886 C887 1.355 1_545 S
C886 C888 1.415 . S
C887 C886 1.355 1_565 S
C887 C889 1.419 . S
C888 C886 1.415 . S
C888 C893 1.425 1_545 S
C888 C895 1.409 . S
C889 H881 0.930 . S
C889 C887 1.419 . S
C889 C890 1.362 . S
C890 H882 0.930 . S
C890 C889 1.362 . S
C890 C893 1.409 . S
C891 H883 0.930 . S
C891 C892 1.355 1_565 S
C891 C893 1.415 . S
C892 C891 1.355 1_545 S
C892 C894 1.419 . S
C893 C888 1.425 1_565 S
C893 C890 1.409 . S
C893 C891 1.415 . S
C894 H884 0.930 . S
C894 C892 1.419 . S
C894 C895 1.362 . S
C895 H885 0.930 . S
C895 C888 1.409 . S
C895 C894 1.362 . S
H896 C902 0.930 . S
H897 C905 0.930 . S
H898 C906 0.930 . S
H899 C907 0.930 . S
H900 C910 0.930 . S
H901 C911 0.930 . S
C902 H896 0.930 . S
C902 C903 1.355 . S
C902 C904 1.415 . S
C903 C902 1.355 . S
C903 C905 1.419 1_455 S
C904 C902 1.415 . S
C904 C909 1.425 1_455 S
C904 C911 1.409 . S
C905 H897 0.930 . S
C905 C903 1.419 1_655 S
C905 C906 1.362 . S
C906 H898 0.930 . S
C906 C905 1.362 . S
C906 C909 1.409 . S
C907 H899 0.930 . S
C907 C908 1.355 . S
C907 C909 1.415 . S
C908 C907 1.355 . S
C908 C910 1.419 1_655 S
C909 C904 1.425 1_655 S
C909 C906 1.409 . S
C909 C907 1.415 . S
C910 H900 0.930 . S
C910 C908 1.419 1_455 S
C910 C911 1.362 . S
C911 H901 0.930 . S
C911 C904 1.409 . S
C911 C910 1.362 . S
H912 C918 0.930 . S
H913 C921 0.930 . S
H914 C922 0.930 . S
H915 C923 0.930 . S
H916 C926 0.930 . S
H917 C927 0.930 . S
C918 H912 0.930 . S
C918 C919 1.355 1_565 S
C918 C920 1.415 . S
C919 C918 1.355 1_545 S
C919 C921 1.419 . S
C920 C918 1.415 . S
C920 C925 1.425 1_565 S
C920 C927 1.409 . S
C921 H913 0.930 . S
C921 C919 1.419 . S
C921 C922 1.362 . S
C922 H914 0.930 . S
C922 C921 1.362 . S
C922 C925 1.409 . S
C923 H915 0.930 . S
C923 C924 1.355 1_545 S
C923 C925 1.415 . S
C924 C923 1.355 1_565 S
C924 C926 1.419 . S
C925 C920 1.425 1_545 S
C925 C922 1.409 . S
C925 C923 1.415 . S
C926 H916 0.930 . S
C926 C924 1.419 . S
C926 C927 1.362 . S
C927 H917 0.930 . S
C927 C920 1.409 . S
C927 C926 1.362 . S
H928 C934 0.930 . S
H929 C937 0.930 . S
H930 C938 0.930 . S
H931 C939 0.930 . S
H932 C942 0.930 . S
H933 C943 0.930 . S
C934 H928 0.930 . S
C934 C935 1.355 1_655 S
C934 C936 1.415 . S
C935 C934 1.355 1_455 S
C935 C937 1.419 . S
C936 C934 1.415 . S
C936 C941 1.425 1_655 S
C936 C943 1.409 . S
C937 H929 0.930 . S
C937 C935 1.419 . S
C937 C938 1.362 . S
C938 H930 0.930 . S
C938 C937 1.362 . S
C938 C941 1.409 . S
C939 H931 0.930 . S
C939 C940 1.355 1_455 S
C939 C941 1.415 . S
C940 C939 1.355 1_655 S
C940 C942 1.419 . S
C941 C936 1.425 1_455 S
C941 C938 1.409 . S
C941 C939 1.415 . S
C942 H932 0.930 . S
C942 C940 1.419 . S
C942 C943 1.362 . S
C943 H933 0.930 . S
C943 C936 1.409 . S
C943 C942 1.362 . S
H944 C950 0.930 . S
H945 C953 0.930 . S
H946 C954 0.930 . S
H947 C955 0.930 . S
H948 C958 0.930 . S
H949 C959 0.930 . S
C950 H944 0.930 . S
C950 C951 1.355 1_565 S
C950 C952 1.415 . S
C951 C950 1.355 1_545 S
C951 C953 1.419 . S
C952 C950 1.415 . S
C952 C957 1.425 1_565 S
C952 C959 1.409 . S
C953 H945 0.930 . S
C953 C951 1.419 . S
C953 C954 1.362 . S
C954 H946 0.930 . S
C954 C953 1.362 . S
C954 C957 1.409 . S
C955 H947 0.930 . S
C955 C956 1.355 1_545 S
C955 C957 1.415 . S
C956 C955 1.355 1_565 S
C956 C958 1.419 . S
C957 C952 1.425 1_545 S
C957 C954 1.409 . S
C957 C955 1.415 . S
C958 H948 0.930 . S
C958 C956 1.419 . S
C958 C959 1.362 . S
C959 H949 0.930 . S
C959 C952 1.409 . S
C959 C958 1.362 . S
H960 C966 0.930 . S
H961 C969 0.930 . S
H962 C970 0.930 . S
H963 C971 0.930 . S
H964 C974 0.930 . S
H965 C975 0.930 . S
C966 H960 0.930 . S
C966 C967 1.355 1_455 S
C966 C968 1.415 . S
C967 C966 1.355 1_655 S
C967 C969 1.419 . S
C968 C966 1.415 . S
C968 C973 1.425 1_455 S
C968 C975 1.409 . S
C969 H961 0.930 . S
C969 C967 1.419 . S
C969 C970 1.362 . S
C970 H962 0.930 . S
C970 C969 1.362 . S
C970 C973 1.409 . S
C971 H963 0.930 . S
C971 C972 1.355 1_655 S
C971 C973 1.415 . S
C972 C971 1.355 1_455 S
C972 C974 1.419 . S
C973 C968 1.425 1_655 S
C973 C970 1.409 . S
C973 C971 1.415 . S
C974 H964 0.930 . S
C974 C972 1.419 . S
C974 C975 1.362 . S
C975 H965 0.930 . S
C975 C968 1.409 . S
C975 C974 1.362 . S
H976 C982 0.930 . S
H977 C985 0.930 . S
H978 C986 0.930 . S
H979 C987 0.930 . S
H980 C990 0.930 . S
H981 C991 0.930 . S
C982 H976 0.930 . S
C982 C983 1.355 1_565 S
C982 C984 1.415 . S
C983 C982 1.355 1_545 S
C983 C985 1.419 . S
C984 C982 1.415 . S
C984 C989 1.425 1_565 S
C984 C991 1.409 . S
C985 H977 0.930 . S
C985 C983 1.419 . S
C985 C986 1.362 . S
C986 H978 0.930 . S
C986 C985 1.362 . S
C986 C989 1.409 . S
C987 H979 0.930 . S
C987 C988 1.355 1_545 S
C987 C989 1.415 . S
C988 C987 1.355 1_565 S
C988 C990 1.419 . S
C989 C984 1.425 1_545 S
C989 C986 1.409 . S
C989 C987 1.415 . S
C990 H980 0.930 . S
C990 C988 1.419 . S
C990 C991 1.362 . S
C991 H981 0.930 . S
C991 C984 1.409 . S
C991 C990 1.362 . S
H992 C998 0.930 . S
H993 C1001 0.930 . S
H994 C1002 0.930 . S
H995 C1003 0.930 . S
H996 C1006 0.930 . S
H997 C1007 0.930 . S
C998 H992 0.930 . S
C998 C999 1.355 . S
C998 C1000 1.415 . S
C999 C998 1.355 . S
C999 C1001 1.419 . S
C1000 C998 1.415 . S
C1000 C1005 1.425 1_455 S
C1000 C1007 1.409 . S
C1001 H993 0.930 . S
C1001 C999 1.419 . S
C1001 C1002 1.362 1_455 S
C1002 H994 0.930 . S
C1002 C1001 1.362 1_655 S
C1002 C1005 1.409 . S
C1003 H995 0.930 . S
C1003 C1004 1.355 . S
C1003 C1005 1.415 . S
C1004 C1003 1.355 . S
C1004 C1006 1.419 . S
C1005 C1000 1.425 1_655 S
C1005 C1002 1.409 . S
C1005 C1003 1.415 . S
C1006 H996 0.930 . S
C1006 C1004 1.419 . S
C1006 C1007 1.362 1_655 S
C1007 H997 0.930 . S
C1007 C1000 1.409 . S
C1007 C1006 1.362 1_455 S
H1008 C1014 0.930 . S
H1009 C1017 0.930 . S
H1010 C1018 0.930 . S
H1011 C1019 0.930 . S
H1012 C1022 0.930 . S
H1013 C1023 0.930 . S
C1014 H1008 0.930 . S
C1014 C1015 1.355 . S
C1014 C1016 1.415 . S
C1015 C1014 1.355 . S
C1015 C1017 1.419 . S
C1016 C1014 1.415 . S
C1016 C1021 1.425 1_545 S
C1016 C1023 1.409 1_545 S
C1017 H1009 0.930 . S
C1017 C1015 1.419 . S
C1017 C1018 1.362 . S
C1018 H1010 0.930 . S
C1018 C1017 1.362 . S
C1018 C1021 1.409 1_545 S
C1019 H1011 0.930 . S
C1019 C1020 1.355 . S
C1019 C1021 1.415 . S
C1020 C1019 1.355 . S
C1020 C1022 1.419 . S
C1021 C1016 1.425 1_565 S
C1021 C1018 1.409 1_565 S
C1021 C1019 1.415 . S
C1022 H1012 0.930 . S
C1022 C1020 1.419 . S
C1022 C1023 1.362 . S
C1023 H1013 0.930 . S
C1023 C1016 1.409 1_565 S
C1023 C1022 1.362 . S
H1024 C1030 0.930 . S
H1025 C1033 0.930 . S
H1026 C1034 0.930 . S
H1027 C1035 0.930 . S
H1028 C1038 0.930 . S
H1029 C1039 0.930 . S
C1030 H1024 0.930 . S
C1030 C1031 1.355 . S
C1030 C1032 1.415 . S
C1031 C1030 1.355 . S
C1031 C1033 1.419 . S
C1032 C1030 1.415 . S
C1032 C1037 1.425 1_455 S
C1032 C1039 1.409 . S
C1033 H1025 0.930 . S
C1033 C1031 1.419 . S
C1033 C1034 1.362 1_455 S
C1034 H1026 0.930 . S
C1034 C1033 1.362 1_655 S
C1034 C1037 1.409 . S
C1035 H1027 0.930 . S
C1035 C1036 1.355 . S
C1035 C1037 1.415 . S
C1036 C1035 1.355 . S
C1036 C1038 1.419 . S
C1037 C1032 1.425 1_655 S
C1037 C1034 1.409 . S
C1037 C1035 1.415 . S
C1038 H1028 0.930 . S
C1038 C1036 1.419 . S
C1038 C1039 1.362 1_655 S
C1039 H1029 0.930 . S
C1039 C1032 1.409 . S
C1039 C1038 1.362 1_455 S
H1040 C1046 0.930 . S
H1041 C1049 0.930 . S
H1042 C1050 0.930 . S
H1043 C1051 0.930 . S
H1044 C1054 0.930 . S
H1045 C1055 0.930 . S
C1046 H1040 0.930 . S
C1046 C1047 1.355 . S
C1046 C1048 1.415 . S
C1047 C1046 1.355 . S
C1047 C1049 1.419 . S
C1048 C1046 1.415 . S
C1048 C1053 1.425 1_565 S
C1048 C1055 1.409 . S
C1049 H1041 0.930 . S
C1049 C1047 1.419 . S
C1049 C1050 1.362 1_565 S
C1050 H1042 0.930 . S
C1050 C1049 1.362 1_545 S
C1050 C1053 1.409 . S
C1051 H1043 0.930 . S
C1051 C1052 1.355 . S
C1051 C1053 1.415 . S
C1052 C1051 1.355 . S
C1052 C1054 1.419 . S
C1053 C1048 1.425 1_545 S
C1053 C1050 1.409 . S
C1053 C1051 1.415 . S
C1054 H1044 0.930 . S
C1054 C1052 1.419 . S
C1054 C1055 1.362 1_545 S
C1055 H1045 0.930 . S
C1055 C1048 1.409 . S
C1055 C1054 1.362 1_565 S
H1056 C1062 0.930 . S
H1057 C1065 0.930 . S
H1058 C1066 0.930 . S
H1059 C1067 0.930 . S
H1060 C1070 0.930 . S
H1061 C1071 0.930 . S
C1062 H1056 0.930 . S
C1062 C1063 1.355 . S
C1062 C1064 1.415 . S
C1063 C1062 1.355 . S
C1063 C1065 1.419 . S
C1064 C1062 1.415 . S
C1064 C1069 1.425 1_455 S
C1064 C1071 1.409 . S
C1065 H1057 0.930 . S
C1065 C1063 1.419 . S
C1065 C1066 1.362 1_455 S
C1066 H1058 0.930 . S
C1066 C1065 1.362 1_655 S
C1066 C1069 1.409 . S
C1067 H1059 0.930 . S
C1067 C1068 1.355 . S
C1067 C1069 1.415 . S
C1068 C1067 1.355 . S
C1068 C1070 1.419 . S
C1069 C1064 1.425 1_655 S
C1069 C1066 1.409 . S
C1069 C1067 1.415 . S
C1070 H1060 0.930 . S
C1070 C1068 1.419 . S
C1070 C1071 1.362 1_655 S
C1071 H1061 0.930 . S
C1071 C1064 1.409 . S
C1071 C1070 1.362 1_455 S
H1072 C1078 0.930 . S
H1073 C1081 0.930 . S
H1074 C1082 0.930 . S
H1075 C1083 0.930 . S
H1076 C1086 0.930 . S
H1077 C1087 0.930 . S
C1078 H1072 0.930 . S
C1078 C1079 1.355 . S
C1078 C1080 1.415 1_545 S
C1079 C1078 1.355 . S
C1079 C1081 1.419 . S
C1080 C1078 1.415 1_565 S
C1080 C1085 1.425 1_565 S
C1080 C1087 1.409 . S
C1081 H1073 0.930 . S
C1081 C1079 1.419 . S
C1081 C1082 1.362 . S
C1082 H1074 0.930 . S
C1082 C1081 1.362 . S
C1082 C1085 1.409 . S
C1083 H1075 0.930 . S
C1083 C1084 1.355 . S
C1083 C1085 1.415 1_565 S
C1084 C1083 1.355 . S
C1084 C1086 1.419 . S
C1085 C1080 1.425 1_545 S
C1085 C1082 1.409 . S
C1085 C1083 1.415 1_545 S
C1086 H1076 0.930 . S
C1086 C1084 1.419 . S
C1086 C1087 1.362 . S
C1087 H1077 0.930 . S
C1087 C1080 1.409 . S
C1087 C1086 1.362 . S
H1088 C1094 0.930 . S
H1089 C1097 0.930 . S
H1090 C1098 0.930 . S
H1091 C1099 0.930 . S
H1092 C1102 0.930 . S
H1093 C1103 0.930 . S
C1094 H1088 0.930 . S
C1094 C1095 1.355 . S
C1094 C1096 1.415 . S
C1095 C1094 1.355 . S
C1095 C1097 1.419 . S
C1096 C1094 1.415 . S
C1096 C1101 1.425 1_655 S
C1096 C1103 1.409 . S
C1097 H1089 0.930 . S
C1097 C1095 1.419 . S
C1097 C1098 1.362 1_655 S
C1098 H1090 0.930 . S
C1098 C1097 1.362 1_455 S
C1098 C1101 1.409 . S
C1099 H1091 0.930 . S
C1099 C1100 1.355 . S
C1099 C1101 1.415 . S
C1100 C1099 1.355 . S
C1100 C1102 1.419 . S
C1101 C1096 1.425 1_455 S
C1101 C1098 1.409 . S
C1101 C1099 1.415 . S
C1102 H1092 0.930 . S
C1102 C1100 1.419 . S
C1102 C1103 1.362 1_455 S
C1103 H1093 0.930 . S
C1103 C1096 1.409 . S
C1103 C1102 1.362 1_655 S
H1104 C1110 0.930 . S
H1105 C1113 0.930 . S
H1106 C1114 0.930 . S
H1107 C1115 0.930 . S
H1108 C1118 0.930 . S
H1109 C1119 0.930 . S
C1110 H1104 0.930 . S
C1110 C1111 1.355 . S
C1110 C1112 1.415 . S
C1111 C1110 1.355 . S
C1111 C1113 1.419 . S
C1112 C1110 1.415 . S
C1112 C1117 1.425 1_565 S
C1112 C1119 1.409 . S
C1113 H1105 0.930 . S
C1113 C1111 1.419 . S
C1113 C1114 1.362 1_565 S
C1114 H1106 0.930 . S
C1114 C1113 1.362 1_545 S
C1114 C1117 1.409 . S
C1115 H1107 0.930 . S
C1115 C1116 1.355 . S
C1115 C1117 1.415 . S
C1116 C1115 1.355 . S
C1116 C1118 1.419 . S
C1117 C1112 1.425 1_545 S
C1117 C1114 1.409 . S
C1117 C1115 1.415 . S
C1118 H1108 0.930 . S
C1118 C1116 1.419 . S
C1118 C1119 1.362 1_545 S
C1119 H1109 0.930 . S
C1119 C1112 1.409 . S
C1119 C1118 1.362 1_565 S
C359 C8 1.053 . S
C364 C76 1.024 . S
C375 C18 1.053 . S
C380 C40 1.011 . S
C391 C62 1.025 . S
C396 C32 0.985 . S
C407 C84 1.035 . S
C412 C54 1.046 . S
C423 C120 1.009 . S
C428 C96 1.053 . S
C439 C128 0.989 . S
C444 C150 0.989 . S
C455 C172 1.046 . S
C460 C140 1.034 . S
C471 C106 1.042 . S
C476 C162 1.040 . S
C487 C184 0.966 . S
C492 C260 1.030 . S
C503 C194 0.986 . S
C508 C216 0.996 . S
C519 C208 1.053 . S
C524 C238 1.009 . S
C535 C230 1.025 . S
C540 C250 1.053 . S
C551 C304 1.051 . S
C556 C272 1.019 . S
C567 C326 1.053 . S
C572 C294 1.007 . S
C583 C316 1.053 . S
C588 C338 1.023 . S
C599 C340 1.000 . S
C604 C282 1.052 . S
C615 C21 1.761 . S
C620 C117 1.761 . S
C631 C153 1.812 . S
C636 C29 1.761 . S
C647 C51 1.756 . S
C652 C175 1.812 . S
C663 C73 1.742 . S
C668 C109 1.793 . S
C679 C307 1.763 . S
C684 C197 1.812 . S
C695 C329 1.742 . S
C700 C205 1.794 . S
C711 C227 1.742 . S
C716 C345 1.793 . S
C727 C285 1.762 . S
C732 C263 1.759 . S
C743 C10 1.486 . S
C748 C228 1.478 . S
C759 C30 1.472 . S
C764 C252 1.492 . S
C775 C186 1.492 . S
C780 C52 1.472 . S
C791 C74 1.491 . S
C796 C206 1.472 . S
C807 C98 1.490 . S
C812 C318 1.473 . S
C823 C118 1.483 . S
C828 C348 1.481 . S
C839 C142 1.483 . S
C844 C274 1.480 . S
C855 C296 1.482 . S
C860 C164 1.482 . S
C871 C7 0.591 . S
C876 C139 0.663 . S
C887 C161 0.646 . S
C892 C37 0.514 . S
C903 C95 0.664 . S
C908 C59 0.580 . S
C919 C125 0.566 . S
C924 C81 0.492 . S
C935 C315 0.497 . S
C940 C183 0.627 . S
C951 C351 0.503 . S
C956 C213 0.636 . S
C967 C271 0.513 . S
C972 C235 0.530 . S
C983 C249 0.520 . S
C988 C293 0.522 . S
C999 C15 1.941 . S
C1004 C65 1.935 . S
C1015 C43 2.010 . S
C1020 C87 1.991 . S
C1031 C103 1.942 . S
C1036 C147 1.935 . S
C1047 C169 1.936 . S
C1052 C131 1.945 . S
C1063 C241 1.935 . S
C1068 C191 1.942 . S
C1079 C257 2.023 . S
C1084 C219 2.010 . S
C1095 C279 1.935 . S
C1100 C323 1.940 . S
C1111 C301 1.935 . S
C1116 C337 1.941 . S
