# Generated by pormake.
# Topology wio, (6)-cn, num edge types: 1
# Building blocks:
#     Node 0, Type 0, BuildingBlock: CIFDUS_clean_sbu_1, # of connection points: 6
#     Node 1, Type 0, BuildingBlock: CIFDUS_clean_sbu_1, # of connection points: 6
#     Node 2, Type 0, BuildingBlock: CIFDUS_clean_sbu_1, # of connection points: 6
#     Node 3, Type 0, BuildingBlock: CIFDUS_clean_sbu_1, # of connection points: 6
#     Node 4, Type 0, BuildingBlock: CIFDUS_clean_sbu_1, # of connection points: 6
#     Node 5, Type 0, BuildingBlock: CIFDUS_clean_sbu_1, # of connection points: 6
#     Node 6, Type 0, BuildingBlock: CIFDUS_clean_sbu_1, # of connection points: 6
#     Node 7, Type 0, BuildingBlock: CIFDUS_clean_sbu_1, # of connection points: 6
#     Node 8, Type 0, BuildingBlock: CIFDUS_clean_sbu_1, # of connection points: 6
#     Node 9, Type 0, BuildingBlock: CIFDUS_clean_sbu_1, # of connection points: 6
#     Node 10, Type 0, BuildingBlock: CIFDUS_clean_sbu_1, # of connection points: 6
#     Node 11, Type 0, BuildingBlock: CIFDUS_clean_sbu_1, # of connection points: 6
#     Node 12, Type 0, BuildingBlock: CIFDUS_clean_sbu_1, # of connection points: 6
#     Node 13, Type 0, BuildingBlock: CIFDUS_clean_sbu_1, # of connection points: 6
#     Node 14, Type 0, BuildingBlock: CIFDUS_clean_sbu_1, # of connection points: 6
#     Node 15, Type 0, BuildingBlock: CIFDUS_clean_sbu_1, # of connection points: 6
#     Node 16, Type 0, BuildingBlock: CIFDUS_clean_sbu_1, # of connection points: 6
#     Node 17, Type 0, BuildingBlock: CIFDUS_clean_sbu_1, # of connection points: 6
#     Node 18, Type 0, BuildingBlock: CIFDUS_clean_sbu_1, # of connection points: 6
#     Node 19, Type 0, BuildingBlock: CIFDUS_clean_sbu_1, # of connection points: 6
#     Node 20, Type 0, BuildingBlock: CIFDUS_clean_sbu_1, # of connection points: 6
#     Node 21, Type 0, BuildingBlock: CIFDUS_clean_sbu_1, # of connection points: 6
#     Node 22, Type 0, BuildingBlock: CIFDUS_clean_sbu_1, # of connection points: 6
#     Node 23, Type 0, BuildingBlock: CIFDUS_clean_sbu_1, # of connection points: 6
#     Node 24, Type 0, BuildingBlock: CIFDUS_clean_sbu_1, # of connection points: 6
#     Node 25, Type 0, BuildingBlock: CIFDUS_clean_sbu_1, # of connection points: 6
#     Node 26, Type 0, BuildingBlock: CIFDUS_clean_sbu_1, # of connection points: 6
#     Node 27, Type 0, BuildingBlock: CIFDUS_clean_sbu_1, # of connection points: 6
#     Node 28, Type 0, BuildingBlock: CIFDUS_clean_sbu_1, # of connection points: 6
#     Node 29, Type 0, BuildingBlock: CIFDUS_clean_sbu_1, # of connection points: 6
#     Node 30, Type 0, BuildingBlock: CIFDUS_clean_sbu_1, # of connection points: 6
#     Node 31, Type 0, BuildingBlock: CIFDUS_clean_sbu_1, # of connection points: 6
#     Edge 32, Type (0, 0), None
#     Edge 33, Type (0, 0), None
#     Edge 34, Type (0, 0), None
#     Edge 35, Type (0, 0), None
#     Edge 36, Type (0, 0), None
#     Edge 37, Type (0, 0), None
#     Edge 38, Type (0, 0), None
#     Edge 39, Type (0, 0), None
#     Edge 40, Type (0, 0), None
#     Edge 41, Type (0, 0), None
#     Edge 42, Type (0, 0), None
#     Edge 43, Type (0, 0), None
#     Edge 44, Type (0, 0), None
#     Edge 45, Type (0, 0), None
#     Edge 46, Type (0, 0), None
#     Edge 47, Type (0, 0), None
#     Edge 48, Type (0, 0), None
#     Edge 49, Type (0, 0), None
#     Edge 50, Type (0, 0), None
#     Edge 51, Type (0, 0), None
#     Edge 52, Type (0, 0), None
#     Edge 53, Type (0, 0), None
#     Edge 54, Type (0, 0), None
#     Edge 55, Type (0, 0), None
#     Edge 56, Type (0, 0), None
#     Edge 57, Type (0, 0), None
#     Edge 58, Type (0, 0), None
#     Edge 59, Type (0, 0), None
#     Edge 60, Type (0, 0), None
#     Edge 61, Type (0, 0), None
#     Edge 62, Type (0, 0), None
#     Edge 63, Type (0, 0), None
#     Edge 64, Type (0, 0), None
#     Edge 65, Type (0, 0), None
#     Edge 66, Type (0, 0), None
#     Edge 67, Type (0, 0), None
#     Edge 68, Type (0, 0), None
#     Edge 69, Type (0, 0), None
#     Edge 70, Type (0, 0), None
#     Edge 71, Type (0, 0), None
#     Edge 72, Type (0, 0), None
#     Edge 73, Type (0, 0), None
#     Edge 74, Type (0, 0), None
#     Edge 75, Type (0, 0), None
#     Edge 76, Type (0, 0), None
#     Edge 77, Type (0, 0), None
#     Edge 78, Type (0, 0), None
#     Edge 79, Type (0, 0), None
#     Edge 80, Type (0, 0), None
#     Edge 81, Type (0, 0), None
#     Edge 82, Type (0, 0), None
#     Edge 83, Type (0, 0), None
#     Edge 84, Type (0, 0), None
#     Edge 85, Type (0, 0), None
#     Edge 86, Type (0, 0), None
#     Edge 87, Type (0, 0), None
#     Edge 88, Type (0, 0), None
#     Edge 89, Type (0, 0), None
#     Edge 90, Type (0, 0), None
#     Edge 91, Type (0, 0), None
#     Edge 92, Type (0, 0), None
#     Edge 93, Type (0, 0), None
#     Edge 94, Type (0, 0), None
#     Edge 95, Type (0, 0), None
#     Edge 96, Type (0, 0), None
#     Edge 97, Type (0, 0), None
#     Edge 98, Type (0, 0), None
#     Edge 99, Type (0, 0), None
#     Edge 100, Type (0, 0), None
#     Edge 101, Type (0, 0), None
#     Edge 102, Type (0, 0), None
#     Edge 103, Type (0, 0), None
#     Edge 104, Type (0, 0), None
#     Edge 105, Type (0, 0), None
#     Edge 106, Type (0, 0), None
#     Edge 107, Type (0, 0), None
#     Edge 108, Type (0, 0), None
#     Edge 109, Type (0, 0), None
#     Edge 110, Type (0, 0), None
#     Edge 111, Type (0, 0), None
#     Edge 112, Type (0, 0), None
#     Edge 113, Type (0, 0), None
#     Edge 114, Type (0, 0), None
#     Edge 115, Type (0, 0), None
#     Edge 116, Type (0, 0), None
#     Edge 117, Type (0, 0), None
#     Edge 118, Type (0, 0), None
#     Edge 119, Type (0, 0), None
#     Edge 120, Type (0, 0), None
#     Edge 121, Type (0, 0), None
#     Edge 122, Type (0, 0), None
#     Edge 123, Type (0, 0), None
#     Edge 124, Type (0, 0), None
#     Edge 125, Type (0, 0), None
#     Edge 126, Type (0, 0), None
#     Edge 127, Type (0, 0), None
# Relax obj value: 0.336
# Max RMSD: 0.234
# Mean RMSD: 0.234
data_MOF--net-wio--node1-CIFDUS_clean_sbu_1--edge1-none
_symmetry_space_group_name_H-M    P1
_symmetry_Int_Tables_number       1
_symmetry_cell_setting            triclinic
loop_
_symmetry_equiv_pos_as_xyz
'x, y, z'
_cell_length_a     25.623414
_cell_length_b     25.623225
_cell_length_c     18.41314
_cell_angle_alpha  90.000229
_cell_angle_beta   90.000469
_cell_angle_gamma 89.999989
loop_
_atom_site_label
_atom_site_type_symbol
_atom_site_fract_x
_atom_site_fract_y
_atom_site_fract_z
_atom_type_partial_charge
O0 O 0.09258 0.02722 0.32778 0.0
Mn1 Mn 0.11872 0.09723 0.35692 0.0
O2 O 0.17165 -0.0014 0.34533 0.0
Mn3 Mn 0.19405 0.04586 0.41197 0.0
O4 O 0.1405 0.17134 0.38376 0.0
O5 O 0.09621 0.11999 0.24628 0.0
Mn6 Mn 0.04442 0.14129 0.30349 0.0
O7 O 0.04968 0.10716 0.41929 0.0
O8 O 0.062 0.20137 0.35629 0.0
O9 O 0.19221 0.08826 0.29549 0.0
O10 O 0.25356 0.07859 0.37421 0.0
O11 O 0.01804 0.15982 0.22192 0.0
O12 O -0.00108 0.09004 0.33296 0.0
C13 C 0.15225 0.02338 0.50014 0.0
C14 C 0.12724 -0.00595 0.31747 0.0
C15 C 0.10804 0.2089 0.38002 0.0
C16 C 0.06094 0.13855 0.19963 0.0
C17 C 0.0055 0.09037 0.3992 0.0
C18 C 0.2421 0.08545 0.30801 0.0
O19 O 0.13911 0.06806 0.46571 0.0
O20 O 0.19738 0.00405 0.4858 0.0
O21 O 0.18094 0.84261 0.57778 0.0
Mn22 Mn 0.11092 0.86873 0.60693 0.0
O23 O 0.20954 0.9217 0.59532 0.0
Mn24 Mn 0.1623 0.94409 0.66198 0.0
O25 O 0.03681 0.8905 0.63378 0.0
O26 O 0.08816 0.84621 0.49629 0.0
Mn27 Mn 0.06688 0.79442 0.55349 0.0
O28 O 0.10101 0.79969 0.6693 0.0
O29 O 0.0068 0.81199 0.60631 0.0
O30 O 0.11987 0.94223 0.54548 0.0
O31 O 0.12959 0.00361 0.62424 0.0
O32 O 0.04835 0.76803 0.47193 0.0
O33 O 0.11814 0.74893 0.58297 0.0
C34 C 0.18479 0.90226 0.75012 0.0
C35 C 0.21409 0.87726 0.56746 0.0
C36 C -0.00074 0.85803 0.63005 0.0
C37 C 0.06961 0.81094 0.44963 0.0
C38 C 0.1178 0.75551 0.6492 0.0
C39 C 0.12269 -0.0079 0.55806 0.0
O40 O 0.14009 0.88915 0.7157 0.0
O41 O 0.20414 0.94738 0.7358 0.0
O42 O 0.36556 0.93094 0.82778 0.0
Mn43 Mn 0.33943 0.86092 0.85691 0.0
O44 O 0.28647 0.95954 0.84533 0.0
Mn45 Mn 0.26407 0.91229 0.91198 0.0
O46 O 0.31766 0.78681 0.88374 0.0
O47 O 0.36195 0.83817 0.74627 0.0
Mn48 Mn 0.41374 0.81687 0.80348 0.0
O49 O 0.40847 0.851 0.91929 0.0
O50 O 0.39616 0.75679 0.85628 0.0
O51 O 0.26594 0.86988 0.79546 0.0
O52 O 0.20455 0.87958 0.87421 0.0
O53 O 0.44013 0.79834 0.72191 0.0
O54 O 0.45924 0.86812 0.83297 0.0
C55 C 0.3059 0.93477 1.00013 0.0
C56 C 0.33091 0.96409 0.81747 0.0
C57 C 0.35012 0.74925 0.88001 0.0
C58 C 0.39723 0.81961 0.69962 0.0
C59 C 0.45265 0.86779 0.8992 0.0
C60 C 0.21606 0.87269 0.80803 0.0
O61 O 0.31901 0.89008 0.96569 0.0
O62 O 0.26077 0.95411 0.98582 0.0
O63 O 0.27721 0.11553 0.07777 0.0
Mn64 Mn 0.34723 0.08942 0.10691 0.0
O65 O 0.24863 0.03644 0.09531 0.0
Mn66 Mn 0.29586 0.01404 0.16197 0.0
O67 O 0.42134 0.06765 0.13376 0.0
O68 O 0.36999 0.11194 0.99628 0.0
Mn69 Mn 0.39127 0.16373 0.0535 0.0
O70 O 0.35713 0.15846 0.16929 0.0
O71 O 0.45134 0.14617 0.10632 0.0
O72 O 0.33829 0.01592 0.04547 0.0
O73 O 0.32859 0.95453 0.12421 0.0
O74 O 0.40981 0.19013 0.97194 0.0
O75 O 0.34 0.20922 0.08296 0.0
C76 C 0.27338 0.05587 0.25012 0.0
C77 C 0.24406 0.08086 0.06746 0.0
C78 C 0.45889 0.10013 0.13005 0.0
C79 C 0.38854 0.14723 0.94964 0.0
C80 C 0.34033 0.20264 0.14919 0.0
C81 C 0.33547 0.96604 0.05803 0.0
O82 O 0.31807 0.06899 0.21568 0.0
O83 O 0.25403 0.01075 0.23579 0.0
O84 O 0.04965 0.85099 0.15219 0.0
Mn85 Mn 0.11869 0.86095 0.21455 0.0
O86 O -0.00109 0.86817 0.23851 0.0
Mn87 Mn 0.04441 0.81692 0.268 0.0
O88 O 0.19218 0.86996 0.27598 0.0
O89 O 0.13906 0.89009 0.10574 0.0
Mn90 Mn 0.19403 0.91225 0.15941 0.0
O91 O 0.09255 0.93097 0.24366 0.0
O92 O 0.25351 0.8795 0.19721 0.0
O93 O 0.14049 0.78684 0.18775 0.0
O94 O 0.06199 0.75682 0.21522 0.0
O95 O 0.19743 0.954 0.08551 0.0
O96 O 0.17163 0.95958 0.22595 0.0
C97 C 0.0609 0.81966 0.37185 0.0
C98 C 0.00548 0.86779 0.17227 0.0
C99 C 0.24207 0.87271 0.26343 0.0
C100 C 0.15226 0.93474 0.07125 0.0
C101 C 0.1272 0.96417 0.25378 0.0
C102 C 0.10803 0.74928 0.1915 0.0
O103 O 0.09619 0.83821 0.32522 0.0
O104 O 0.018 0.79839 0.34955 0.0
O105 O 0.27718 0.84258 0.49366 0.0
Mn106 Mn 0.3472 0.86871 0.46455 0.0
O107 O 0.24858 0.92166 0.47596 0.0
Mn108 Mn 0.2959 0.94406 0.40942 0.0
O109 O 0.42131 0.8905 0.43774 0.0
O110 O 0.36995 0.84621 0.57522 0.0
Mn111 Mn 0.39122 0.79442 0.51798 0.0
O112 O 0.35714 0.79967 0.40219 0.0
O113 O 0.45131 0.81199 0.46519 0.0
O114 O 0.3382 0.94221 0.52598 0.0
O115 O 0.32865 0.00354 0.44721 0.0
O116 O 0.40976 0.76801 0.59953 0.0
O117 O 0.33996 0.74893 0.48851 0.0
C118 C 0.27341 0.90229 0.32126 0.0
C119 C 0.24398 0.87724 0.50378 0.0
C120 C 0.45886 0.85803 0.44147 0.0
C121 C 0.3885 0.81091 0.62184 0.0
C122 C 0.34033 0.7555 0.42227 0.0
C123 C 0.33545 -0.00791 0.51343 0.0
O124 O 0.31806 0.88909 0.35574 0.0
O125 O 0.25414 0.94746 0.33553 0.0
O126 O 0.36559 0.02719 0.74368 0.0
Mn127 Mn 0.33945 0.09721 0.71457 0.0
O128 O 0.28651 -0.00141 0.72597 0.0
Mn129 Mn 0.2641 0.04591 0.65943 0.0
O130 O 0.31765 0.17132 0.68777 0.0
O131 O 0.36196 0.11996 0.82523 0.0
Mn132 Mn 0.41374 0.14125 0.76801 0.0
O133 O 0.40849 0.10716 0.6522 0.0
O134 O 0.39616 0.20134 0.71522 0.0
O135 O 0.26595 0.0882 0.776 0.0
O136 O 0.20462 0.07867 0.69723 0.0
O137 O 0.44015 0.15979 0.84955 0.0
O138 O 0.45924 0.09 0.73853 0.0
C139 C 0.30587 0.02343 0.57127 0.0
C140 C 0.33092 -0.00601 0.75379 0.0
C141 C 0.35011 0.20888 0.6915 0.0
C142 C 0.39725 0.13851 0.87186 0.0
C143 C 0.45266 0.09036 0.67229 0.0
C144 C 0.21607 0.08546 0.76345 0.0
O145 O 0.31907 0.06807 0.60576 0.0
O146 O 0.2607 0.00416 0.58553 0.0
O147 O 0.18097 0.11555 0.99366 0.0
Mn148 Mn 0.11094 0.08944 0.96456 0.0
O149 O 0.20955 0.03646 0.97596 0.0
Mn150 Mn 0.16225 0.01406 0.9094 0.0
O151 O 0.03684 0.06766 0.93776 0.0
O152 O 0.08821 0.11196 0.07522 0.0
Mn153 Mn 0.06693 0.16374 1.01799 0.0
O154 O 0.10101 0.15848 0.90219 0.0
O155 O 0.00684 0.14618 0.96521 0.0
O156 O 0.11993 0.01595 1.026 0.0
O157 O 0.12951 0.95457 0.94721 0.0
O158 O 0.0484 0.19016 0.09954 0.0
O159 O 0.1182 0.20923 0.98851 0.0
C160 C 0.18474 0.05586 0.82128 0.0
C161 C 0.21416 0.0809 1.00379 0.0
C162 C -0.00071 0.10013 0.94149 0.0
C163 C 0.06966 0.14726 0.12185 0.0
C164 C 0.11782 0.20265 0.92227 0.0
C165 C 0.12269 0.96607 1.0134 0.0
O166 O 0.14008 0.06904 0.85576 0.0
O167 O 0.20401 0.01069 0.83551 0.0
O168 O 0.86556 0.93094 0.74374 0.0
Mn169 Mn 0.83943 0.86092 0.71459 0.0
O170 O 0.78648 0.95954 0.72619 0.0
Mn171 Mn 0.76409 0.91229 0.65955 0.0
O172 O 0.81765 0.78682 0.68774 0.0
O173 O 0.86194 0.83816 0.82523 0.0
Mn174 Mn 0.91374 0.81685 0.76805 0.0
O175 O 0.90848 0.85102 0.65223 0.0
O176 O 0.89615 0.75678 0.71522 0.0
O177 O 0.76593 0.86989 0.77602 0.0
O178 O 0.70459 0.87955 0.6973 0.0
O179 O 0.94009 0.79829 0.84962 0.0
O180 O 0.95927 0.86808 0.73861 0.0
C181 C 0.80589 0.93478 0.57138 0.0
C182 C 0.8309 0.9641 0.75405 0.0
C183 C 0.85011 0.74926 0.69147 0.0
C184 C 0.8972 0.81958 0.8719 0.0
C185 C 0.95265 0.86776 0.67239 0.0
C186 C 0.71604 0.87269 0.7635 0.0
O187 O 0.81903 0.89009 0.60581 0.0
O188 O 0.76076 0.95411 0.58572 0.0
O189 O 0.7772 0.11555 0.49372 0.0
Mn190 Mn 0.84722 0.08942 0.46458 0.0
O191 O 0.7486 0.03647 0.47619 0.0
Mn192 Mn 0.79583 0.01407 0.40953 0.0
O193 O 0.92133 0.06765 0.43775 0.0
O194 O 0.86998 0.11195 0.57523 0.0
Mn195 Mn 0.89125 0.16374 0.51801 0.0
O196 O 0.85714 0.15846 0.4022 0.0
O197 O 0.95134 0.14617 0.46522 0.0
O198 O 0.83826 0.01593 0.52603 0.0
O199 O 0.82855 0.95455 0.44728 0.0
O200 O 0.90976 0.19014 0.59957 0.0
O201 O 0.83999 0.20922 0.48852 0.0
C202 C 0.77335 0.0559 0.32139 0.0
C203 C 0.74405 0.08091 0.50405 0.0
C204 C 0.95888 0.10012 0.4415 0.0
C205 C 0.88851 0.14724 0.62188 0.0
C206 C 0.84034 0.20263 0.42229 0.0
C207 C 0.83544 0.96606 0.51346 0.0
O208 O 0.81805 0.06901 0.35581 0.0
O209 O 0.754 0.01078 0.33571 0.0
O210 O 0.5926 0.02721 0.24374 0.0
Mn211 Mn 0.61872 0.09724 0.2146 0.0
O212 O 0.67169 -0.00137 0.22619 0.0
Mn213 Mn 0.69408 0.04587 0.15954 0.0
O214 O 0.64048 0.17134 0.18776 0.0
O215 O 0.59619 0.11999 0.32524 0.0
Mn216 Mn 0.54439 0.14131 0.26806 0.0
O217 O 0.54967 0.10713 0.15223 0.0
O218 O 0.56198 0.20137 0.21523 0.0
O219 O 0.69221 0.08829 0.27605 0.0
O220 O 0.7536 0.07859 0.1973 0.0
O221 O 0.51804 0.15986 0.34963 0.0
O222 O 0.49887 0.09007 0.23861 0.0
C223 C 0.65226 0.02338 0.07139 0.0
C224 C 0.62725 -0.00594 0.25405 0.0
C225 C 0.60802 0.2089 0.19149 0.0
C226 C 0.56094 0.13857 0.37191 0.0
C227 C 0.50549 0.09039 0.17239 0.0
C228 C 0.74209 0.08548 0.26348 0.0
O229 O 0.63914 0.06807 0.10583 0.0
O230 O 0.69739 0.00405 0.08571 0.0
O231 O 0.68094 0.84261 0.99373 0.0
Mn232 Mn 0.61092 0.86874 0.9646 0.0
O233 O 0.70953 0.9217 0.9762 0.0
Mn234 Mn 0.6623 0.94411 0.90954 0.0
O235 O 0.53681 0.89051 0.93777 0.0
O236 O 0.58817 0.8462 0.07524 0.0
Mn237 Mn 0.5669 0.79442 1.01801 0.0
O238 O 0.60102 0.79969 0.90221 0.0
O239 O 0.50681 0.81198 0.96521 0.0
O240 O 0.61987 0.94223 1.02605 0.0
O241 O 0.62957 0.00362 0.9473 0.0
O242 O 0.54838 0.76801 0.09956 0.0
O243 O 0.61817 0.74894 0.98853 0.0
C244 C 0.68477 0.90228 0.8214 0.0
C245 C 0.71409 0.87729 1.00405 0.0
C246 C 0.49927 0.85804 0.94151 0.0
C247 C 0.56963 0.81091 0.12187 0.0
C248 C 0.61782 0.75552 0.9223 0.0
C249 C 0.62269 -0.00789 1.01348 0.0
O250 O 0.64008 0.88916 0.85583 0.0
O251 O 0.70412 0.9474 0.83572 0.0
O252 O 0.86558 0.02719 0.82785 0.0
Mn253 Mn 0.83945 0.09721 0.85697 0.0
O254 O 0.78651 -0.00141 0.84556 0.0
Mn255 Mn 0.76412 0.04591 0.9121 0.0
O256 O 0.81767 0.17131 0.88378 0.0
O257 O 0.86196 0.11995 0.7463 0.0
Mn258 Mn 0.91375 0.14126 0.8035 0.0
O259 O 0.9085 0.10714 0.91933 0.0
O260 O 0.89617 0.20134 0.85631 0.0
O261 O 0.76596 0.0882 0.79554 0.0
O262 O 0.70463 0.07866 0.87431 0.0
O263 O 0.94013 0.15981 0.72194 0.0
O264 O 0.95928 0.09002 0.83295 0.0
C265 C 0.80588 0.02341 1.00026 0.0
C266 C 0.83094 -0.00601 0.81773 0.0
C267 C 0.85012 0.20887 0.88004 0.0
C268 C 0.89723 0.13852 0.69966 0.0
C269 C 0.95267 0.09038 0.89917 0.0
C270 C 0.71607 0.08546 0.80809 0.0
O271 O 0.81909 0.06806 0.96578 0.0
O272 O 0.76071 0.00415 0.986 0.0
O273 O 0.68097 0.11558 0.57787 0.0
Mn274 Mn 0.61095 0.08944 0.60697 0.0
O275 O 0.70958 0.03651 0.59557 0.0
Mn276 Mn 0.66226 0.0141 0.66211 0.0
O277 O 0.53684 0.06765 0.63377 0.0
O278 O 0.58821 0.11195 0.4963 0.0
Mn279 Mn 0.56694 0.16373 0.55355 0.0
O280 O 0.601 0.15848 0.66935 0.0
O281 O 0.50684 0.14617 0.60631 0.0
O282 O 0.61996 0.01595 0.54554 0.0
O283 O 0.62951 0.95462 0.6243 0.0
O284 O 0.54843 0.19017 0.472 0.0
O285 O 0.61821 0.20922 0.58304 0.0
C286 C 0.68474 0.05587 0.75026 0.0
C287 C 0.71417 0.08092 0.56774 0.0
C288 C 0.49929 0.10012 0.63001 0.0
C289 C 0.56968 0.14727 0.44969 0.0
C290 C 0.61782 0.20265 0.64927 0.0
C291 C 0.62271 0.96607 0.55808 0.0
O292 O 0.64009 0.06907 0.71578 0.0
O293 O 0.70401 0.01071 0.736 0.0
O294 O 0.59257 0.93096 0.32783 0.0
Mn295 Mn 0.6187 0.86094 0.35695 0.0
O296 O 0.67165 0.95955 0.34554 0.0
Mn297 Mn 0.69405 0.91223 0.41209 0.0
O298 O 0.64049 0.78684 0.38377 0.0
O299 O 0.59619 0.83819 0.24629 0.0
Mn300 Mn 0.5444 0.81688 0.30349 0.0
O301 O 0.54965 0.85102 0.41931 0.0
O302 O 0.56198 0.75681 0.35631 0.0
O303 O 0.6922 0.86994 0.29552 0.0
O304 O 0.75353 0.87947 0.37429 0.0
O305 O 0.51802 0.79832 0.22194 0.0
O306 O 0.49887 0.86812 0.33293 0.0
C307 C 0.65229 0.93473 0.50025 0.0
C308 C 0.62724 0.96416 0.31772 0.0
C309 C 0.60803 0.74928 0.38004 0.0
C310 C 0.56091 0.81961 0.19965 0.0
C311 C 0.50548 0.86777 0.39915 0.0
C312 C 0.74208 0.87268 0.30807 0.0
O313 O 0.63908 0.89008 0.46576 0.0
O314 O 0.69746 0.95399 0.48598 0.0
O315 O 0.77717 0.84259 0.07787 0.0
Mn316 Mn 0.8472 0.86871 0.10696 0.0
O317 O 0.74858 0.92168 0.09556 0.0
Mn318 Mn 0.79588 0.94409 0.16212 0.0
O319 O 0.92131 0.8905 0.13375 0.0
O320 O 0.86993 0.84619 0.9963 0.0
Mn321 Mn 0.8912 0.79441 0.05354 0.0
O322 O 0.85714 0.79967 0.16934 0.0
O323 O 0.95131 0.81198 0.1063 0.0
O324 O 0.83821 0.9422 0.04552 0.0
O325 O 0.82862 0.00358 0.12431 0.0
O326 O 0.90971 0.76797 0.97199 0.0
O327 O 0.83993 0.74893 0.08304 0.0
C328 C 0.77341 0.90228 0.25025 0.0
C329 C 0.74398 0.87724 0.06774 0.0
C330 C 0.95885 0.85803 0.12999 0.0
C331 C 0.88846 0.81088 0.94968 0.0
C332 C 0.84032 0.75551 0.14927 0.0
C333 C 0.83545 -0.00792 0.05811 0.0
O334 O 0.81807 0.88911 0.21576 0.0
O335 O 0.75413 0.94745 0.23602 0.0
O336 O 0.59258 0.52722 0.8278 0.0
Mn337 Mn 0.61873 0.59723 0.85694 0.0
O338 O 0.67165 0.49859 0.84535 0.0
Mn339 Mn 0.69405 0.54585 0.91198 0.0
O340 O 0.64052 0.67134 0.88377 0.0
O341 O 0.59622 0.61999 0.74629 0.0
Mn342 Mn 0.54443 0.64127 0.80351 0.0
O343 O 0.54969 0.60717 0.91932 0.0
O344 O 0.56201 0.70136 0.85629 0.0
O345 O 0.69222 0.58824 0.7955 0.0
O346 O 0.75356 0.57858 0.87423 0.0
O347 O 0.51803 0.65979 0.72196 0.0
O348 O 0.49893 0.59001 0.833 0.0
C349 C 0.65225 0.52337 1.00015 0.0
C350 C 0.62723 0.49405 0.81748 0.0
C351 C 0.60806 0.70889 0.88 0.0
C352 C 0.56093 0.63853 0.69965 0.0
C353 C 0.50551 0.59037 0.89923 0.0
C354 C 0.74211 0.58544 0.80802 0.0
O355 O 0.63912 0.56806 0.96572 0.0
O356 O 0.69737 0.50404 0.98582 0.0
O357 O 0.68094 0.34261 0.0778 0.0
Mn358 Mn 0.61092 0.36873 0.10694 0.0
O359 O 0.70953 0.4217 0.09534 0.0
Mn360 Mn 0.66229 0.44409 0.16199 0.0
O361 O 0.53681 0.39048 0.13377 0.0
O362 O 0.58817 0.3462 0.99629 0.0
Mn363 Mn 0.56686 0.2944 0.05348 0.0
O364 O 0.60103 0.29968 0.16931 0.0
O365 O 0.50679 0.31198 0.1063 0.0
O366 O 0.61986 0.44222 0.04549 0.0
O367 O 0.62957 0.50361 0.12424 0.0
O368 O 0.54832 0.26804 0.9719 0.0
O369 O 0.61811 0.24888 0.08293 0.0
C370 C 0.68479 0.40227 0.25014 0.0
C371 C 0.71409 0.37726 0.06748 0.0
C372 C 0.49926 0.35802 0.13004 0.0
C373 C 0.5696 0.31094 0.94963 0.0
C374 C 0.61777 0.25551 0.14915 0.0
C375 C 0.62268 0.4921 0.05806 0.0
O376 O 0.64009 0.38915 0.21571 0.0
O377 O 0.70413 0.44739 0.23581 0.0
O378 O 0.86556 0.43094 0.3278 0.0
Mn379 Mn 0.83943 0.36092 0.35693 0.0
O380 O 0.78648 0.45955 0.34535 0.0
Mn381 Mn 0.76407 0.4123 0.41199 0.0
O382 O 0.81764 0.28681 0.38375 0.0
O383 O 0.86195 0.33817 0.24628 0.0
Mn384 Mn 0.91373 0.31688 0.3035 0.0
O385 O 0.90846 0.35099 0.41931 0.0
O386 O 0.89615 0.25679 0.35628 0.0
O387 O 0.76594 0.36989 0.29548 0.0
O388 O 0.70455 0.37959 0.37423 0.0
O389 O 0.94014 0.29837 0.22194 0.0
O390 O 0.95922 0.36814 0.333 0.0
C391 C 0.8059 0.43477 0.50014 0.0
C392 C 0.83091 0.4641 0.31748 0.0
C393 C 0.8501 0.24926 0.37999 0.0
C394 C 0.89724 0.31963 0.19964 0.0
C395 C 0.95264 0.36779 0.39923 0.0
C396 C 0.71606 0.3727 0.30804 0.0
O397 O 0.81901 0.39008 0.4657 0.0
O398 O 0.76077 0.45412 0.48583 0.0
O399 O 0.77721 0.61553 0.57779 0.0
Mn400 Mn 0.84723 0.58942 0.60692 0.0
O401 O 0.74863 0.53644 0.59533 0.0
Mn402 Mn 0.79587 0.51404 0.66198 0.0
O403 O 0.92134 0.56767 0.63376 0.0
O404 O 0.86998 0.61196 0.49629 0.0
Mn405 Mn 0.89128 0.66375 0.55348 0.0
O406 O 0.85711 0.65847 0.6693 0.0
O407 O 0.95135 0.64618 0.60631 0.0
O408 O 0.8383 0.51592 0.54547 0.0
O409 O 0.8286 0.45453 0.62422 0.0
O410 O 0.90984 0.69012 0.47192 0.0
O411 O 0.84003 0.70927 0.58292 0.0
C412 C 0.77338 0.55586 0.75013 0.0
C413 C 0.74406 0.58085 0.56748 0.0
C414 C 0.95889 0.60014 0.63003 0.0
C415 C 0.88855 0.64722 0.44963 0.0
C416 C 0.84036 0.70264 0.64914 0.0
C417 C 0.83548 0.46604 0.55804 0.0
O418 O 0.81807 0.56899 0.71569 0.0
O419 O 0.75404 0.51074 0.7358 0.0
O420 O 0.54966 0.35098 0.65218 0.0
Mn421 Mn 0.6187 0.36095 0.71456 0.0
O422 O 0.49892 0.36818 0.73849 0.0
Mn423 Mn 0.54442 0.31692 0.76799 0.0
O424 O 0.69219 0.36998 0.77599 0.0
O425 O 0.63906 0.39009 0.60574 0.0
Mn426 Mn 0.69403 0.41227 0.65942 0.0
O427 O 0.59255 0.43097 0.74366 0.0
O428 O 0.75352 0.37952 0.69722 0.0
O429 O 0.64051 0.28684 0.68777 0.0
O430 O 0.562 0.25682 0.71524 0.0
O431 O 0.69743 0.45401 0.58551 0.0
O432 O 0.67163 0.45959 0.72595 0.0
C433 C 0.56089 0.31968 0.87185 0.0
C434 C 0.50549 0.36779 0.67226 0.0
C435 C 0.74207 0.37272 0.76344 0.0
C436 C 0.65225 0.43474 0.57126 0.0
C437 C 0.62719 0.46417 0.75378 0.0
C438 C 0.60805 0.24928 0.69154 0.0
O439 O 0.5962 0.33821 0.82523 0.0
O440 O 0.51799 0.29842 0.84954 0.0
O441 O 0.77719 0.34258 0.99369 0.0
Mn442 Mn 0.84721 0.36871 0.96457 0.0
O443 O 0.74859 0.42166 0.97599 0.0
Mn444 Mn 0.79591 0.44406 0.90944 0.0
O445 O 0.92132 0.39048 0.93775 0.0
O446 O 0.86995 0.34619 0.07522 0.0
Mn447 Mn 0.89125 0.2944 1.01802 0.0
O448 O 0.85713 0.29966 0.9022 0.0
O449 O 0.95133 0.31198 0.96521 0.0
O450 O 0.83821 0.44221 1.02599 0.0
O451 O 0.82867 0.50354 0.94723 0.0
O452 O 0.90981 0.26802 0.09957 0.0
O453 O 0.84001 0.24888 0.98858 0.0
C454 C 0.77341 0.4023 0.82128 0.0
C455 C 0.74399 0.37725 1.00381 0.0
C456 C 0.95887 0.35802 0.94148 0.0
C457 C 0.88853 0.31091 0.12186 0.0
C458 C 0.84037 0.25549 0.92235 0.0
C459 C 0.83546 0.49209 1.01345 0.0
O460 O 0.81806 0.38909 0.85575 0.0
O461 O 0.75414 0.44746 0.83556 0.0
O462 O 0.86559 0.52719 0.24368 0.0
Mn463 Mn 0.83944 0.59721 0.21457 0.0
O464 O 0.78651 0.49858 0.22597 0.0
Mn465 Mn 0.7641 0.5459 0.15943 0.0
O466 O 0.81764 0.67132 0.18778 0.0
O467 O 0.86195 0.61995 0.32524 0.0
Mn468 Mn 0.91373 0.64124 0.268 0.0
O469 O 0.90848 0.60717 0.1522 0.0
O470 O 0.89615 0.70134 0.21524 0.0
O471 O 0.76595 0.58819 0.27601 0.0
O472 O 0.70462 0.57865 0.19724 0.0
O473 O 0.94016 0.65976 0.34955 0.0
O474 O 0.95923 0.58998 0.23851 0.0
C475 C 0.80587 0.52342 0.07127 0.0
C476 C 0.83093 0.49399 0.2538 0.0
C477 C 0.85009 0.70888 0.19155 0.0
C478 C 0.89726 0.63849 0.37186 0.0
C479 C 0.95265 0.59036 0.17228 0.0
C480 C 0.71607 0.58544 0.26346 0.0
O481 O 0.81907 0.56807 0.10576 0.0
O482 O 0.7607 0.50415 0.08553 0.0
O483 O 0.68097 0.61555 0.49368 0.0
Mn484 Mn 0.61094 0.58944 0.46458 0.0
O485 O 0.70954 0.53646 0.47599 0.0
Mn486 Mn 0.66224 0.51406 0.40942 0.0
O487 O 0.53683 0.56768 0.43777 0.0
O488 O 0.5882 0.61197 0.57523 0.0
Mn489 Mn 0.5669 0.66376 0.51803 0.0
O490 O 0.60103 0.65849 0.40221 0.0
O491 O 0.50682 0.64619 0.46522 0.0
O492 O 0.61991 0.51595 0.52601 0.0
O493 O 0.6295 0.45457 0.44722 0.0
O494 O 0.54835 0.69015 0.59959 0.0
O495 O 0.61815 0.70928 0.48858 0.0
C496 C 0.68474 0.55586 0.32129 0.0
C497 C 0.71415 0.58089 0.50381 0.0
C498 C 0.49928 0.60014 0.4415 0.0
C499 C 0.56964 0.64725 0.62187 0.0
C500 C 0.61779 0.70266 0.42235 0.0
C501 C 0.62267 0.46607 0.51342 0.0
O502 O 0.64008 0.56904 0.35577 0.0
O503 O 0.70401 0.51069 0.33554 0.0
O504 O 0.36556 0.43094 0.24373 0.0
Mn505 Mn 0.33942 0.36093 0.21457 0.0
O506 O 0.28649 0.45955 0.22618 0.0
Mn507 Mn 0.26409 0.4123 0.15954 0.0
O508 O 0.31764 0.28682 0.18773 0.0
O509 O 0.36194 0.33817 0.32522 0.0
Mn510 Mn 0.41373 0.31686 0.26802 0.0
O511 O 0.40847 0.35101 0.15221 0.0
O512 O 0.39614 0.25679 0.21521 0.0
O513 O 0.26593 0.3699 0.27601 0.0
O514 O 0.20458 0.37956 0.19729 0.0
O515 O 0.4401 0.29831 0.34958 0.0
O516 O 0.45926 0.3681 0.23858 0.0
C517 C 0.30589 0.43478 0.07137 0.0
C518 C 0.3309 0.4641 0.25404 0.0
C519 C 0.35009 0.24926 0.19149 0.0
C520 C 0.39721 0.31959 0.37187 0.0
C521 C 0.45264 0.36776 0.17236 0.0
C522 C 0.21604 0.3727 0.26349 0.0
O523 O 0.31903 0.3901 0.1058 0.0
O524 O 0.26077 0.45412 0.08571 0.0
O525 O 0.2772 0.61555 0.99371 0.0
Mn526 Mn 0.34722 0.58943 0.96458 0.0
O527 O 0.24861 0.53647 0.97617 0.0
Mn528 Mn 0.29584 0.51407 0.90952 0.0
O529 O 0.42133 0.56766 0.93775 0.0
O530 O 0.36997 0.61196 0.07522 0.0
Mn531 Mn 0.39127 0.66376 1.01803 0.0
O532 O 0.35713 0.65847 0.9022 0.0
O533 O 0.45135 0.64618 0.96523 0.0
O534 O 0.33827 0.51594 1.02602 0.0
O535 O 0.32856 0.45455 0.94728 0.0
O536 O 0.40979 0.69014 0.0996 0.0
O537 O 0.34002 0.70926 0.98856 0.0
C538 C 0.27336 0.55589 0.82138 0.0
C539 C 0.24405 0.5809 1.00403 0.0
C540 C 0.45889 0.60013 0.94152 0.0
C541 C 0.38852 0.64723 0.12188 0.0
C542 C 0.34037 0.70264 0.92234 0.0
C543 C 0.33545 0.46606 1.01345 0.0
O544 O 0.31806 0.569 0.8558 0.0
O545 O 0.25402 0.51077 0.8357 0.0
O546 O 0.0926 0.52721 0.74372 0.0
Mn547 Mn 0.11872 0.59723 0.71459 0.0
O548 O 0.17168 0.49862 0.72618 0.0
Mn549 Mn 0.19408 0.54586 0.65953 0.0
O550 O 0.1405 0.67134 0.68775 0.0
O551 O 0.09619 0.61999 0.82523 0.0
Mn552 Mn 0.0444 0.64129 0.76803 0.0
O553 O 0.04968 0.60714 0.65221 0.0
O554 O 0.06199 0.70137 0.71522 0.0
O555 O 0.19221 0.58828 0.77604 0.0
O556 O 0.2536 0.57858 0.69729 0.0
O557 O 0.01803 0.65984 0.8496 0.0
O558 O -0.00112 0.59005 0.73858 0.0
C559 C 0.15225 0.52338 0.57138 0.0
C560 C 0.12725 0.49406 0.75404 0.0
C561 C 0.10804 0.70889 0.69151 0.0
C562 C 0.06093 0.63855 0.87188 0.0
C563 C 0.0055 0.59039 0.67236 0.0
C564 C 0.24209 0.58547 0.76347 0.0
O565 O 0.13914 0.56807 0.60582 0.0
O566 O 0.19738 0.50404 0.5857 0.0
O567 O 0.18095 0.34261 0.49372 0.0
Mn568 Mn 0.11092 0.36873 0.46459 0.0
O569 O 0.20953 0.4217 0.47618 0.0
Mn570 Mn 0.16229 0.44411 0.40953 0.0
O571 O 0.03681 0.39049 0.43777 0.0
O572 O 0.08818 0.34619 0.57523 0.0
Mn573 Mn 0.06688 0.2944 0.51803 0.0
O574 O 0.10103 0.29969 0.4022 0.0
O575 O 0.0068 0.31197 0.46522 0.0
O576 O 0.11987 0.44222 0.52604 0.0
O577 O 0.12956 0.50362 0.4473 0.0
O578 O 0.04835 0.26801 0.59958 0.0
O579 O 0.11814 0.24889 0.48857 0.0
C580 C 0.18476 0.40228 0.32138 0.0
C581 C 0.21409 0.37729 0.50404 0.0
C582 C -0.00074 0.35803 0.44152 0.0
C583 C 0.06962 0.31091 0.62188 0.0
C584 C 0.11779 0.25551 0.42235 0.0
C585 C 0.12268 0.49211 0.51348 0.0
O586 O 0.14008 0.38917 0.35582 0.0
O587 O 0.20411 0.44741 0.3357 0.0
O588 O 0.36559 0.52718 0.32785 0.0
Mn589 Mn 0.33945 0.5972 0.35696 0.0
O590 O 0.28651 0.49857 0.34556 0.0
Mn591 Mn 0.26411 0.54589 0.4121 0.0
O592 O 0.31765 0.67131 0.38377 0.0
O593 O 0.36196 0.61995 0.2463 0.0
Mn594 Mn 0.41374 0.64125 0.3035 0.0
O595 O 0.40849 0.60715 0.41933 0.0
O596 O 0.39616 0.70134 0.35629 0.0
O597 O 0.26596 0.58819 0.29554 0.0
O598 O 0.20463 0.57865 0.3743 0.0
O599 O 0.44014 0.65978 0.22195 0.0
O600 O 0.45927 0.59001 0.33297 0.0
C601 C 0.30588 0.52341 0.50025 0.0
C602 C 0.33095 0.49399 0.31773 0.0
C603 C 0.35011 0.70887 0.38 0.0
C604 C 0.39724 0.63851 0.19966 0.0
C605 C 0.45266 0.59039 0.39919 0.0
C606 C 0.21607 0.58544 0.30808 0.0
O607 O 0.31908 0.56806 0.46578 0.0
O608 O 0.26071 0.50414 0.486 0.0
O609 O 0.18097 0.61558 0.07785 0.0
Mn610 Mn 0.11095 0.58945 0.10696 0.0
O611 O 0.20957 0.5365 0.09554 0.0
Mn612 Mn 0.16225 0.5141 0.16208 0.0
O613 O 0.03684 0.56766 0.13376 0.0
O614 O 0.08821 0.61197 0.99629 0.0
Mn615 Mn 0.06691 0.66375 0.05351 0.0
O616 O 0.10101 0.65849 0.16933 0.0
O617 O 0.00682 0.64618 0.1063 0.0
O618 O 0.11995 0.51595 0.04553 0.0
O619 O 0.12949 0.45462 0.12429 0.0
O620 O 0.04838 0.69016 0.97196 0.0
O621 O 0.11816 0.70927 0.08297 0.0
C622 C 0.18474 0.55587 0.25025 0.0
C623 C 0.21416 0.58092 0.06772 0.0
C624 C -0.00072 0.60013 0.12999 0.0
C625 C 0.06965 0.64726 0.94966 0.0
C626 C 0.11779 0.70266 0.14919 0.0
C627 C 0.1227 0.46607 0.05807 0.0
O628 O 0.14009 0.56907 0.21577 0.0
O629 O 0.20401 0.5107 0.23597 0.0
O630 O 0.09257 0.43096 0.82783 0.0
Mn631 Mn 0.11871 0.36095 0.85695 0.0
O632 O 0.17165 0.45957 0.84554 0.0
Mn633 Mn 0.19405 0.41225 0.91208 0.0
O634 O 0.1405 0.28684 0.88375 0.0
O635 O 0.09619 0.3382 0.74629 0.0
Mn636 Mn 0.0444 0.31689 0.8035 0.0
O637 O 0.04966 0.35101 0.91932 0.0
O638 O 0.06199 0.25681 0.85629 0.0
O639 O 0.1922 0.36995 0.79552 0.0
O640 O 0.25353 0.37949 0.87428 0.0
O641 O 0.01801 0.29835 0.72195 0.0
O642 O -0.00112 0.36813 0.83295 0.0
C643 C 0.15228 0.43473 1.00024 0.0
C644 C 0.12723 0.46416 0.81772 0.0
C645 C 0.10805 0.24928 0.87999 0.0
C646 C 0.06091 0.31963 0.69966 0.0
C647 C 0.00549 0.36777 0.89917 0.0
C648 C 0.24209 0.3727 0.80806 0.0
O649 O 0.13908 0.39009 0.96576 0.0
O650 O 0.19745 0.454 0.98598 0.0
O651 O 0.27717 0.34259 0.57785 0.0
Mn652 Mn 0.3472 0.36871 0.60695 0.0
O653 O 0.24859 0.42169 0.59553 0.0
Mn654 Mn 0.29589 0.44409 0.6621 0.0
O655 O 0.42131 0.39048 0.63374 0.0
O656 O 0.36993 0.34617 0.49629 0.0
Mn657 Mn 0.39123 0.29439 0.5535 0.0
O658 O 0.35712 0.29967 0.66933 0.0
O659 O 0.45132 0.31197 0.60628 0.0
O660 O 0.33822 0.4422 0.54551 0.0
O661 O 0.32864 0.50358 0.6243 0.0
O662 O 0.40976 0.26798 0.47195 0.0
O663 O 0.33998 0.24888 0.58297 0.0
C664 C 0.27341 0.40229 0.75023 0.0
C665 C 0.24399 0.37725 0.56771 0.0
C666 C 0.45886 0.35802 0.62998 0.0
C667 C 0.38848 0.31088 0.44965 0.0
C668 C 0.34035 0.2555 0.64919 0.0
C669 C 0.33546 0.49208 0.5581 0.0
O670 O 0.31807 0.38912 0.71575 0.0
O671 O 0.25413 0.44746 0.73599 0.0
loop_
_geom_bond_atom_site_label_1
_geom_bond_atom_site_label_2
_geom_bond_distance
_geom_bond_site_symmetry_2
_ccdc_geom_bond_type
O0 Mn1 2.163 . S
O0 C14 1.244 1_545 S
Mn1 O0 2.163 . S
Mn1 O4 2.160 . S
Mn1 O5 2.221 . S
Mn1 O7 2.163 . S
Mn1 O9 2.160 . S
Mn1 O19 2.221 . S
O2 Mn3 2.087 1_565 S
O2 C14 1.256 . S
Mn3 O2 2.087 1_545 S
Mn3 O10 2.089 . S
Mn3 O19 2.290 . S
Mn3 O20 2.252 . S
O4 Mn1 2.160 . S
O4 C15 1.239 . S
O5 Mn1 2.221 . S
O5 Mn6 2.290 . S
O5 C16 1.278 . S
Mn6 O5 2.290 . S
Mn6 O8 2.089 . S
Mn6 O11 2.251 . S
Mn6 O12 2.087 . S
O7 Mn1 2.163 . S
O7 C17 1.244 . S
O8 Mn6 2.089 . S
O8 C15 1.256 . S
O9 Mn1 2.160 . S
O9 C18 1.239 . S
O10 Mn3 2.089 . S
O10 C18 1.256 . S
O11 Mn6 2.251 . S
O11 C16 1.241 . S
O12 Mn6 2.087 . S
O12 C17 1.256 . S
C13 O19 1.278 . S
C13 O20 1.244 . S
C14 O0 1.244 1_565 S
C14 O2 1.256 . S
C15 O4 1.239 . S
C15 O8 1.256 . S
C16 O5 1.278 . S
C16 O11 1.241 . S
C17 O7 1.244 . S
C17 O12 1.256 . S
C18 O9 1.239 . S
C18 O10 1.256 . S
O19 Mn1 2.221 . S
O19 Mn3 2.290 . S
O19 C13 1.278 . S
O20 Mn3 2.252 . S
O20 C13 1.244 . S
O21 Mn22 2.163 . S
O21 C35 1.244 . S
Mn22 O21 2.163 . S
Mn22 O25 2.160 . S
Mn22 O26 2.221 . S
Mn22 O28 2.163 . S
Mn22 O30 2.160 . S
Mn22 O40 2.221 . S
O23 Mn24 2.087 . S
O23 C35 1.256 . S
Mn24 O23 2.087 . S
Mn24 O31 2.089 1_565 S
Mn24 O40 2.290 . S
Mn24 O41 2.251 . S
O25 Mn22 2.160 . S
O25 C36 1.239 . S
O26 Mn22 2.221 . S
O26 Mn27 2.290 . S
O26 C37 1.278 . S
Mn27 O26 2.290 . S
Mn27 O29 2.093 . S
Mn27 O32 2.251 . S
Mn27 O33 2.087 . S
O28 Mn22 2.163 . S
O28 C38 1.244 . S
O29 Mn27 2.093 . S
O29 C36 1.258 . S
O30 Mn22 2.160 . S
O30 C39 1.239 1_565 S
O31 Mn24 2.089 1_545 S
O31 C39 1.256 . S
O32 Mn27 2.251 . S
O32 C37 1.241 . S
O33 Mn27 2.087 . S
O33 C38 1.256 . S
C34 O40 1.278 . S
C34 O41 1.241 . S
C35 O21 1.244 . S
C35 O23 1.256 . S
C36 O25 1.239 . S
C36 O29 1.258 . S
C37 O26 1.278 . S
C37 O32 1.241 . S
C38 O28 1.244 . S
C38 O33 1.256 . S
C39 O30 1.239 1_545 S
C39 O31 1.256 . S
O40 Mn22 2.221 . S
O40 Mn24 2.290 . S
O40 C34 1.278 . S
O41 Mn24 2.251 . S
O41 C34 1.241 . S
O42 Mn43 2.163 . S
O42 C56 1.244 1_565 S
Mn43 O42 2.163 . S
Mn43 O46 2.160 . S
Mn43 O47 2.221 . S
Mn43 O49 2.163 . S
Mn43 O51 2.160 . S
Mn43 O61 2.221 . S
O44 Mn45 2.087 1_545 S
O44 C56 1.256 . S
Mn45 O44 2.087 1_565 S
Mn45 O52 2.089 . S
Mn45 O61 2.290 . S
Mn45 O62 2.252 . S
O46 Mn43 2.160 . S
O46 C57 1.239 . S
O47 Mn43 2.221 . S
O47 Mn48 2.290 . S
O47 C58 1.278 . S
Mn48 O47 2.290 . S
Mn48 O50 2.089 . S
Mn48 O53 2.251 . S
Mn48 O54 2.087 . S
O49 Mn43 2.163 . S
O49 C59 1.244 . S
O50 Mn48 2.089 . S
O50 C57 1.256 . S
O51 Mn43 2.160 . S
O51 C60 1.239 . S
O52 Mn45 2.089 . S
O52 C60 1.256 . S
O53 Mn48 2.251 . S
O53 C58 1.241 . S
O54 Mn48 2.087 . S
O54 C59 1.256 . S
C55 O61 1.278 . S
C55 O62 1.244 . S
C56 O42 1.244 1_545 S
C56 O44 1.256 . S
C57 O46 1.239 . S
C57 O50 1.256 . S
C58 O47 1.278 . S
C58 O53 1.241 . S
C59 O49 1.244 . S
C59 O54 1.256 . S
C60 O51 1.239 . S
C60 O52 1.256 . S
O61 Mn43 2.221 . S
O61 Mn45 2.290 . S
O61 C55 1.278 . S
O62 Mn45 2.252 . S
O62 C55 1.244 . S
O63 Mn64 2.166 . S
O63 C77 1.244 . S
Mn64 O63 2.166 . S
Mn64 O67 2.160 . S
Mn64 O68 2.221 1_554 S
Mn64 O70 2.163 . S
Mn64 O72 2.160 . S
Mn64 O82 2.221 . S
O65 Mn66 2.087 . S
O65 C77 1.256 . S
Mn66 O65 2.087 . S
Mn66 O73 2.089 1_545 S
Mn66 O82 2.290 . S
Mn66 O83 2.251 . S
O67 Mn64 2.160 . S
O67 C78 1.239 . S
O68 Mn64 2.221 1_556 S
O68 Mn69 2.290 1_556 S
O68 C79 1.278 . S
Mn69 O68 2.290 1_554 S
Mn69 O71 2.089 . S
Mn69 O74 2.251 1_554 S
Mn69 O75 2.087 . S
O70 Mn64 2.163 . S
O70 C80 1.244 . S
O71 Mn69 2.089 . S
O71 C78 1.256 . S
O72 Mn64 2.160 . S
O72 C81 1.239 1_545 S
O73 Mn66 2.089 1_565 S
O73 C81 1.256 . S
O74 Mn69 2.251 1_556 S
O74 C79 1.241 . S
O75 Mn69 2.087 . S
O75 C80 1.256 . S
C76 O82 1.278 . S
C76 O83 1.241 . S
C77 O63 1.244 . S
C77 O65 1.256 . S
C78 O67 1.239 . S
C78 O71 1.256 . S
C79 O68 1.278 . S
C79 O74 1.241 . S
C80 O70 1.244 . S
C80 O75 1.256 . S
C81 O72 1.239 1_565 S
C81 O73 1.256 . S
O82 Mn64 2.221 . S
O82 Mn66 2.290 . S
O82 C76 1.278 . S
O83 Mn66 2.251 . S
O83 C76 1.241 . S
O84 Mn85 2.163 . S
O84 C98 1.244 . S
Mn85 O84 2.163 . S
Mn85 O88 2.160 . S
Mn85 O89 2.221 . S
Mn85 O91 2.163 . S
Mn85 O93 2.160 . S
Mn85 O103 2.221 . S
O86 Mn87 2.087 . S
O86 C98 1.256 . S
Mn87 O86 2.087 . S
Mn87 O94 2.089 . S
Mn87 O103 2.290 . S
Mn87 O104 2.251 . S
O88 Mn85 2.160 . S
O88 C99 1.239 . S
O89 Mn85 2.221 . S
O89 Mn90 2.290 . S
O89 C100 1.278 . S
Mn90 O89 2.290 . S
Mn90 O92 2.089 . S
Mn90 O95 2.252 . S
Mn90 O96 2.087 1_565 S
O91 Mn85 2.163 . S
O91 C101 1.244 1_565 S
O92 Mn90 2.089 . S
O92 C99 1.256 . S
O93 Mn85 2.160 . S
O93 C102 1.239 . S
O94 Mn87 2.089 . S
O94 C102 1.256 . S
O95 Mn90 2.252 . S
O95 C100 1.244 . S
O96 Mn90 2.087 1_545 S
O96 C101 1.256 . S
C97 O103 1.278 . S
C97 O104 1.241 . S
C98 O84 1.244 . S
C98 O86 1.256 . S
C99 O88 1.239 . S
C99 O92 1.256 . S
C100 O89 1.278 . S
C100 O95 1.244 . S
C101 O91 1.244 1_545 S
C101 O96 1.256 . S
C102 O93 1.239 . S
C102 O94 1.256 . S
O103 Mn85 2.221 . S
O103 Mn87 2.290 . S
O103 C97 1.278 . S
O104 Mn87 2.251 . S
O104 C97 1.241 . S
O105 Mn106 2.163 . S
O105 C119 1.244 . S
Mn106 O105 2.163 . S
Mn106 O109 2.160 . S
Mn106 O110 2.221 . S
Mn106 O112 2.163 . S
Mn106 O114 2.160 . S
Mn106 O124 2.221 . S
O107 Mn108 2.087 . S
O107 C119 1.256 . S
Mn108 O107 2.087 . S
Mn108 O115 2.089 1_565 S
Mn108 O124 2.290 . S
Mn108 O125 2.251 . S
O109 Mn106 2.160 . S
O109 C120 1.239 . S
O110 Mn106 2.221 . S
O110 Mn111 2.290 . S
O110 C121 1.278 . S
Mn111 O110 2.290 . S
Mn111 O113 2.089 . S
Mn111 O116 2.251 . S
Mn111 O117 2.087 . S
O112 Mn106 2.163 . S
O112 C122 1.244 . S
O113 Mn111 2.089 . S
O113 C120 1.256 . S
O114 Mn106 2.160 . S
O114 C123 1.239 1_565 S
O115 Mn108 2.089 1_545 S
O115 C123 1.256 . S
O116 Mn111 2.251 . S
O116 C121 1.241 . S
O117 Mn111 2.087 . S
O117 C122 1.256 . S
C118 O124 1.278 . S
C118 O125 1.241 . S
C119 O105 1.244 . S
C119 O107 1.256 . S
C120 O109 1.239 . S
C120 O113 1.256 . S
C121 O110 1.278 . S
C121 O116 1.241 . S
C122 O112 1.244 . S
C122 O117 1.256 . S
C123 O114 1.239 1_545 S
C123 O115 1.256 . S
O124 Mn106 2.221 . S
O124 Mn108 2.290 . S
O124 C118 1.278 . S
O125 Mn108 2.251 . S
O125 C118 1.241 . S
O126 Mn127 2.163 . S
O126 C140 1.244 1_545 S
Mn127 O126 2.163 . S
Mn127 O130 2.160 . S
Mn127 O131 2.221 . S
Mn127 O133 2.163 . S
Mn127 O135 2.160 . S
Mn127 O145 2.221 . S
O128 Mn129 2.087 1_565 S
O128 C140 1.256 . S
Mn129 O128 2.087 1_545 S
Mn129 O136 2.089 . S
Mn129 O145 2.290 . S
Mn129 O146 2.252 . S
O130 Mn127 2.160 . S
O130 C141 1.239 . S
O131 Mn127 2.221 . S
O131 Mn132 2.290 . S
O131 C142 1.278 . S
Mn132 O131 2.290 . S
Mn132 O134 2.089 . S
Mn132 O137 2.251 . S
Mn132 O138 2.087 . S
O133 Mn127 2.163 . S
O133 C143 1.244 . S
O134 Mn132 2.089 . S
O134 C141 1.256 . S
O135 Mn127 2.160 . S
O135 C144 1.239 . S
O136 Mn129 2.089 . S
O136 C144 1.256 . S
O137 Mn132 2.251 . S
O137 C142 1.241 . S
O138 Mn132 2.087 . S
O138 C143 1.256 . S
C139 O145 1.278 . S
C139 O146 1.244 . S
C140 O126 1.244 1_565 S
C140 O128 1.256 . S
C141 O130 1.239 . S
C141 O134 1.256 . S
C142 O131 1.278 . S
C142 O137 1.241 . S
C143 O133 1.244 . S
C143 O138 1.256 . S
C144 O135 1.239 . S
C144 O136 1.256 . S
O145 Mn127 2.221 . S
O145 Mn129 2.290 . S
O145 C139 1.278 . S
O146 Mn129 2.252 . S
O146 C139 1.244 . S
O147 Mn148 2.166 . S
O147 C161 1.244 . S
Mn148 O147 2.166 . S
Mn148 O151 2.160 . S
Mn148 O152 2.221 1_556 S
Mn148 O154 2.163 . S
Mn148 O156 2.160 . S
Mn148 O166 2.221 . S
O149 Mn150 2.087 . S
O149 C161 1.256 . S
Mn150 O149 2.087 . S
Mn150 O157 2.089 1_545 S
Mn150 O166 2.290 . S
Mn150 O167 2.251 . S
O151 Mn148 2.160 . S
O151 C162 1.239 . S
O152 Mn148 2.221 1_554 S
O152 Mn153 2.290 1_554 S
O152 C163 1.278 . S
Mn153 O152 2.290 1_556 S
Mn153 O155 2.093 . S
Mn153 O158 2.251 1_556 S
Mn153 O159 2.087 . S
O154 Mn148 2.163 . S
O154 C164 1.244 . S
O155 Mn153 2.093 . S
O155 C162 1.258 . S
O156 Mn148 2.160 . S
O156 C165 1.239 1_545 S
O157 Mn150 2.089 1_565 S
O157 C165 1.256 . S
O158 Mn153 2.251 1_554 S
O158 C163 1.241 . S
O159 Mn153 2.087 . S
O159 C164 1.256 . S
C160 O166 1.278 . S
C160 O167 1.241 . S
C161 O147 1.244 . S
C161 O149 1.256 . S
C162 O151 1.239 . S
C162 O155 1.258 . S
C163 O152 1.278 . S
C163 O158 1.241 . S
C164 O154 1.244 . S
C164 O159 1.256 . S
C165 O156 1.239 1_565 S
C165 O157 1.256 . S
O166 Mn148 2.221 . S
O166 Mn150 2.290 . S
O166 C160 1.278 . S
O167 Mn150 2.251 . S
O167 C160 1.241 . S
O168 Mn169 2.163 . S
O168 C182 1.244 1_565 S
Mn169 O168 2.163 . S
Mn169 O172 2.160 . S
Mn169 O173 2.221 . S
Mn169 O175 2.163 . S
Mn169 O177 2.160 . S
Mn169 O187 2.221 . S
O170 Mn171 2.087 1_545 S
O170 C182 1.256 . S
Mn171 O170 2.087 1_565 S
Mn171 O178 2.089 . S
Mn171 O187 2.290 . S
Mn171 O188 2.252 . S
O172 Mn169 2.160 . S
O172 C183 1.239 . S
O173 Mn169 2.221 . S
O173 Mn174 2.290 . S
O173 C184 1.278 . S
Mn174 O173 2.290 . S
Mn174 O176 2.089 . S
Mn174 O179 2.251 . S
Mn174 O180 2.087 . S
O175 Mn169 2.163 . S
O175 C185 1.244 . S
O176 Mn174 2.089 . S
O176 C183 1.256 . S
O177 Mn169 2.160 . S
O177 C186 1.239 . S
O178 Mn171 2.089 . S
O178 C186 1.256 . S
O179 Mn174 2.251 . S
O179 C184 1.241 . S
O180 Mn174 2.087 . S
O180 C185 1.256 . S
C181 O187 1.278 . S
C181 O188 1.244 . S
C182 O168 1.244 1_545 S
C182 O170 1.256 . S
C183 O172 1.239 . S
C183 O176 1.256 . S
C184 O173 1.278 . S
C184 O179 1.241 . S
C185 O175 1.244 . S
C185 O180 1.256 . S
C186 O177 1.239 . S
C186 O178 1.256 . S
O187 Mn169 2.221 . S
O187 Mn171 2.290 . S
O187 C181 1.278 . S
O188 Mn171 2.252 . S
O188 C181 1.244 . S
O189 Mn190 2.163 . S
O189 C203 1.244 . S
Mn190 O189 2.163 . S
Mn190 O193 2.160 . S
Mn190 O194 2.221 . S
Mn190 O196 2.163 . S
Mn190 O198 2.160 . S
Mn190 O208 2.221 . S
O191 Mn192 2.087 . S
O191 C203 1.256 . S
Mn192 O191 2.087 . S
Mn192 O199 2.089 1_545 S
Mn192 O208 2.290 . S
Mn192 O209 2.251 . S
O193 Mn190 2.160 . S
O193 C204 1.239 . S
O194 Mn190 2.221 . S
O194 Mn195 2.290 . S
O194 C205 1.278 . S
Mn195 O194 2.290 . S
Mn195 O197 2.093 . S
Mn195 O200 2.251 . S
Mn195 O201 2.087 . S
O196 Mn190 2.163 . S
O196 C206 1.244 . S
O197 Mn195 2.093 . S
O197 C204 1.258 . S
O198 Mn190 2.160 . S
O198 C207 1.239 1_545 S
O199 Mn192 2.089 1_565 S
O199 C207 1.256 . S
O200 Mn195 2.251 . S
O200 C205 1.241 . S
O201 Mn195 2.087 . S
O201 C206 1.256 . S
C202 O208 1.278 . S
C202 O209 1.241 . S
C203 O189 1.244 . S
C203 O191 1.256 . S
C204 O193 1.239 . S
C204 O197 1.258 . S
C205 O194 1.278 . S
C205 O200 1.241 . S
C206 O196 1.244 . S
C206 O201 1.256 . S
C207 O198 1.239 1_565 S
C207 O199 1.256 . S
O208 Mn190 2.221 . S
O208 Mn192 2.290 . S
O208 C202 1.278 . S
O209 Mn192 2.251 . S
O209 C202 1.241 . S
O210 Mn211 2.163 . S
O210 C224 1.244 1_545 S
Mn211 O210 2.163 . S
Mn211 O214 2.160 . S
Mn211 O215 2.221 . S
Mn211 O217 2.163 . S
Mn211 O219 2.160 . S
Mn211 O229 2.221 . S
O212 Mn213 2.087 1_565 S
O212 C224 1.256 . S
Mn213 O212 2.087 1_545 S
Mn213 O220 2.089 . S
Mn213 O229 2.290 . S
Mn213 O230 2.252 . S
O214 Mn211 2.160 . S
O214 C225 1.239 . S
O215 Mn211 2.221 . S
O215 Mn216 2.290 . S
O215 C226 1.278 . S
Mn216 O215 2.290 . S
Mn216 O218 2.089 . S
Mn216 O221 2.251 . S
Mn216 O222 2.087 . S
O217 Mn211 2.163 . S
O217 C227 1.244 . S
O218 Mn216 2.089 . S
O218 C225 1.256 . S
O219 Mn211 2.160 . S
O219 C228 1.239 . S
O220 Mn213 2.089 . S
O220 C228 1.256 . S
O221 Mn216 2.251 . S
O221 C226 1.241 . S
O222 Mn216 2.087 . S
O222 C227 1.256 . S
C223 O229 1.278 . S
C223 O230 1.244 . S
C224 O210 1.244 1_565 S
C224 O212 1.256 . S
C225 O214 1.239 . S
C225 O218 1.256 . S
C226 O215 1.278 . S
C226 O221 1.241 . S
C227 O217 1.244 . S
C227 O222 1.256 . S
C228 O219 1.239 . S
C228 O220 1.256 . S
O229 Mn211 2.221 . S
O229 Mn213 2.290 . S
O229 C223 1.278 . S
O230 Mn213 2.252 . S
O230 C223 1.244 . S
O231 Mn232 2.166 . S
O231 C245 1.244 . S
Mn232 O231 2.166 . S
Mn232 O235 2.160 . S
Mn232 O236 2.221 1_556 S
Mn232 O238 2.163 . S
Mn232 O240 2.160 . S
Mn232 O250 2.221 . S
O233 Mn234 2.087 . S
O233 C245 1.256 . S
Mn234 O233 2.087 . S
Mn234 O241 2.089 1_565 S
Mn234 O250 2.290 . S
Mn234 O251 2.251 . S
O235 Mn232 2.160 . S
O235 C246 1.239 . S
O236 Mn232 2.221 1_554 S
O236 Mn237 2.290 1_554 S
O236 C247 1.278 . S
Mn237 O236 2.290 1_556 S
Mn237 O239 2.089 . S
Mn237 O242 2.251 1_556 S
Mn237 O243 2.087 . S
O238 Mn232 2.163 . S
O238 C248 1.244 . S
O239 Mn237 2.089 . S
O239 C246 1.256 . S
O240 Mn232 2.160 . S
O240 C249 1.239 1_565 S
O241 Mn234 2.089 1_545 S
O241 C249 1.256 . S
O242 Mn237 2.251 1_554 S
O242 C247 1.241 . S
O243 Mn237 2.087 . S
O243 C248 1.256 . S
C244 O250 1.278 . S
C244 O251 1.241 . S
C245 O231 1.244 . S
C245 O233 1.256 . S
C246 O235 1.239 . S
C246 O239 1.256 . S
C247 O236 1.278 . S
C247 O242 1.241 . S
C248 O238 1.244 . S
C248 O243 1.256 . S
C249 O240 1.239 1_545 S
C249 O241 1.256 . S
O250 Mn232 2.221 . S
O250 Mn234 2.290 . S
O250 C244 1.278 . S
O251 Mn234 2.251 . S
O251 C244 1.241 . S
O252 Mn253 2.163 . S
O252 C266 1.244 1_545 S
Mn253 O252 2.163 . S
Mn253 O256 2.160 . S
Mn253 O257 2.221 . S
Mn253 O259 2.163 . S
Mn253 O261 2.160 . S
Mn253 O271 2.221 . S
O254 Mn255 2.087 1_565 S
O254 C266 1.256 . S
Mn255 O254 2.087 1_545 S
Mn255 O262 2.089 . S
Mn255 O271 2.290 . S
Mn255 O272 2.252 . S
O256 Mn253 2.160 . S
O256 C267 1.239 . S
O257 Mn253 2.221 . S
O257 Mn258 2.290 . S
O257 C268 1.278 . S
Mn258 O257 2.290 . S
Mn258 O260 2.089 . S
Mn258 O263 2.251 . S
Mn258 O264 2.087 . S
O259 Mn253 2.163 . S
O259 C269 1.244 . S
O260 Mn258 2.089 . S
O260 C267 1.256 . S
O261 Mn253 2.160 . S
O261 C270 1.239 . S
O262 Mn255 2.089 . S
O262 C270 1.256 . S
O263 Mn258 2.251 . S
O263 C268 1.241 . S
O264 Mn258 2.087 . S
O264 C269 1.256 . S
C265 O271 1.278 . S
C265 O272 1.244 . S
C266 O252 1.244 1_565 S
C266 O254 1.256 . S
C267 O256 1.239 . S
C267 O260 1.256 . S
C268 O257 1.278 . S
C268 O263 1.241 . S
C269 O259 1.244 . S
C269 O264 1.256 . S
C270 O261 1.239 . S
C270 O262 1.256 . S
O271 Mn253 2.221 . S
O271 Mn255 2.290 . S
O271 C265 1.278 . S
O272 Mn255 2.252 . S
O272 C265 1.244 . S
O273 Mn274 2.163 . S
O273 C287 1.244 . S
Mn274 O273 2.163 . S
Mn274 O277 2.160 . S
Mn274 O278 2.221 . S
Mn274 O280 2.163 . S
Mn274 O282 2.160 . S
Mn274 O292 2.221 . S
O275 Mn276 2.087 . S
O275 C287 1.256 . S
Mn276 O275 2.087 . S
Mn276 O283 2.089 1_545 S
Mn276 O292 2.290 . S
Mn276 O293 2.251 . S
O277 Mn274 2.160 . S
O277 C288 1.239 . S
O278 Mn274 2.221 . S
O278 Mn279 2.290 . S
O278 C289 1.278 . S
Mn279 O278 2.290 . S
Mn279 O281 2.089 . S
Mn279 O284 2.251 . S
Mn279 O285 2.087 . S
O280 Mn274 2.163 . S
O280 C290 1.244 . S
O281 Mn279 2.089 . S
O281 C288 1.256 . S
O282 Mn274 2.160 . S
O282 C291 1.239 1_545 S
O283 Mn276 2.089 1_565 S
O283 C291 1.256 . S
O284 Mn279 2.251 . S
O284 C289 1.241 . S
O285 Mn279 2.087 . S
O285 C290 1.256 . S
C286 O292 1.278 . S
C286 O293 1.241 . S
C287 O273 1.244 . S
C287 O275 1.256 . S
C288 O277 1.239 . S
C288 O281 1.256 . S
C289 O278 1.278 . S
C289 O284 1.241 . S
C290 O280 1.244 . S
C290 O285 1.256 . S
C291 O282 1.239 1_565 S
C291 O283 1.256 . S
O292 Mn274 2.221 . S
O292 Mn276 2.290 . S
O292 C286 1.278 . S
O293 Mn276 2.251 . S
O293 C286 1.241 . S
O294 Mn295 2.163 . S
O294 C308 1.244 1_565 S
Mn295 O294 2.163 . S
Mn295 O298 2.160 . S
Mn295 O299 2.221 . S
Mn295 O301 2.163 . S
Mn295 O303 2.160 . S
Mn295 O313 2.221 . S
O296 Mn297 2.087 1_545 S
O296 C308 1.256 . S
Mn297 O296 2.087 1_565 S
Mn297 O304 2.089 . S
Mn297 O313 2.290 . S
Mn297 O314 2.252 . S
O298 Mn295 2.160 . S
O298 C309 1.239 . S
O299 Mn295 2.221 . S
O299 Mn300 2.290 . S
O299 C310 1.278 . S
Mn300 O299 2.290 . S
Mn300 O302 2.089 . S
Mn300 O305 2.251 . S
Mn300 O306 2.087 . S
O301 Mn295 2.163 . S
O301 C311 1.244 . S
O302 Mn300 2.089 . S
O302 C309 1.256 . S
O303 Mn295 2.160 . S
O303 C312 1.239 . S
O304 Mn297 2.089 . S
O304 C312 1.256 . S
O305 Mn300 2.251 . S
O305 C310 1.241 . S
O306 Mn300 2.087 . S
O306 C311 1.256 . S
C307 O313 1.278 . S
C307 O314 1.244 . S
C308 O294 1.244 1_545 S
C308 O296 1.256 . S
C309 O298 1.239 . S
C309 O302 1.256 . S
C310 O299 1.278 . S
C310 O305 1.241 . S
C311 O301 1.244 . S
C311 O306 1.256 . S
C312 O303 1.239 . S
C312 O304 1.256 . S
O313 Mn295 2.221 . S
O313 Mn297 2.290 . S
O313 C307 1.278 . S
O314 Mn297 2.252 . S
O314 C307 1.244 . S
O315 Mn316 2.166 . S
O315 C329 1.244 . S
Mn316 O315 2.166 . S
Mn316 O319 2.160 . S
Mn316 O320 2.221 1_554 S
Mn316 O322 2.163 . S
Mn316 O324 2.160 . S
Mn316 O334 2.221 . S
O317 Mn318 2.087 . S
O317 C329 1.256 . S
Mn318 O317 2.087 . S
Mn318 O325 2.089 1_565 S
Mn318 O334 2.290 . S
Mn318 O335 2.251 . S
O319 Mn316 2.160 . S
O319 C330 1.239 . S
O320 Mn316 2.221 1_556 S
O320 Mn321 2.290 1_556 S
O320 C331 1.278 . S
Mn321 O320 2.290 1_554 S
Mn321 O323 2.093 . S
Mn321 O326 2.251 1_554 S
Mn321 O327 2.087 . S
O322 Mn316 2.163 . S
O322 C332 1.244 . S
O323 Mn321 2.093 . S
O323 C330 1.258 . S
O324 Mn316 2.160 . S
O324 C333 1.239 1_565 S
O325 Mn318 2.089 1_545 S
O325 C333 1.256 . S
O326 Mn321 2.251 1_556 S
O326 C331 1.241 . S
O327 Mn321 2.087 . S
O327 C332 1.256 . S
C328 O334 1.278 . S
C328 O335 1.241 . S
C329 O315 1.244 . S
C329 O317 1.256 . S
C330 O319 1.239 . S
C330 O323 1.258 . S
C331 O320 1.278 . S
C331 O326 1.241 . S
C332 O322 1.244 . S
C332 O327 1.256 . S
C333 O324 1.239 1_545 S
C333 O325 1.256 . S
O334 Mn316 2.221 . S
O334 Mn318 2.290 . S
O334 C328 1.278 . S
O335 Mn318 2.251 . S
O335 C328 1.241 . S
O336 Mn337 2.163 . S
O336 C350 1.244 . S
Mn337 O336 2.163 . S
Mn337 O340 2.160 . S
Mn337 O341 2.221 . S
Mn337 O343 2.163 . S
Mn337 O345 2.160 . S
Mn337 O355 2.221 . S
O338 Mn339 2.087 . S
O338 C350 1.256 . S
Mn339 O338 2.087 . S
Mn339 O346 2.089 . S
Mn339 O355 2.290 . S
Mn339 O356 2.251 . S
O340 Mn337 2.160 . S
O340 C351 1.239 . S
O341 Mn337 2.221 . S
O341 Mn342 2.290 . S
O341 C352 1.278 . S
Mn342 O341 2.290 . S
Mn342 O344 2.089 . S
Mn342 O347 2.251 . S
Mn342 O348 2.087 . S
O343 Mn337 2.163 . S
O343 C353 1.244 . S
O344 Mn342 2.089 . S
O344 C351 1.256 . S
O345 Mn337 2.160 . S
O345 C354 1.239 . S
O346 Mn339 2.089 . S
O346 C354 1.256 . S
O347 Mn342 2.251 . S
O347 C352 1.241 . S
O348 Mn342 2.087 . S
O348 C353 1.256 . S
C349 O355 1.278 . S
C349 O356 1.241 . S
C350 O336 1.244 . S
C350 O338 1.256 . S
C351 O340 1.239 . S
C351 O344 1.256 . S
C352 O341 1.278 . S
C352 O347 1.241 . S
C353 O343 1.244 . S
C353 O348 1.256 . S
C354 O345 1.239 . S
C354 O346 1.256 . S
O355 Mn337 2.221 . S
O355 Mn339 2.290 . S
O355 C349 1.278 . S
O356 Mn339 2.251 . S
O356 C349 1.241 . S
O357 Mn358 2.166 . S
O357 C371 1.244 . S
Mn358 O357 2.166 . S
Mn358 O361 2.160 . S
Mn358 O362 2.221 1_554 S
Mn358 O364 2.163 . S
Mn358 O366 2.160 . S
Mn358 O376 2.221 . S
O359 Mn360 2.087 . S
O359 C371 1.256 . S
Mn360 O359 2.087 . S
Mn360 O367 2.089 . S
Mn360 O376 2.290 . S
Mn360 O377 2.251 . S
O361 Mn358 2.160 . S
O361 C372 1.239 . S
O362 Mn358 2.221 1_556 S
O362 Mn363 2.290 1_556 S
O362 C373 1.278 . S
Mn363 O362 2.290 1_554 S
Mn363 O365 2.089 . S
Mn363 O368 2.251 1_554 S
Mn363 O369 2.087 . S
O364 Mn358 2.163 . S
O364 C374 1.244 . S
O365 Mn363 2.089 . S
O365 C372 1.256 . S
O366 Mn358 2.160 . S
O366 C375 1.239 . S
O367 Mn360 2.089 . S
O367 C375 1.256 . S
O368 Mn363 2.251 1_556 S
O368 C373 1.241 . S
O369 Mn363 2.087 . S
O369 C374 1.256 . S
C370 O376 1.278 . S
C370 O377 1.241 . S
C371 O357 1.244 . S
C371 O359 1.256 . S
C372 O361 1.239 . S
C372 O365 1.256 . S
C373 O362 1.278 . S
C373 O368 1.241 . S
C374 O364 1.244 . S
C374 O369 1.256 . S
C375 O366 1.239 . S
C375 O367 1.256 . S
O376 Mn358 2.221 . S
O376 Mn360 2.290 . S
O376 C370 1.278 . S
O377 Mn360 2.251 . S
O377 C370 1.241 . S
O378 Mn379 2.163 . S
O378 C392 1.244 . S
Mn379 O378 2.163 . S
Mn379 O382 2.160 . S
Mn379 O383 2.221 . S
Mn379 O385 2.163 . S
Mn379 O387 2.160 . S
Mn379 O397 2.221 . S
O380 Mn381 2.087 . S
O380 C392 1.256 . S
Mn381 O380 2.087 . S
Mn381 O388 2.089 . S
Mn381 O397 2.290 . S
Mn381 O398 2.251 . S
O382 Mn379 2.160 . S
O382 C393 1.239 . S
O383 Mn379 2.221 . S
O383 Mn384 2.290 . S
O383 C394 1.278 . S
Mn384 O383 2.290 . S
Mn384 O386 2.089 . S
Mn384 O389 2.251 . S
Mn384 O390 2.087 . S
O385 Mn379 2.163 . S
O385 C395 1.244 . S
O386 Mn384 2.089 . S
O386 C393 1.256 . S
O387 Mn379 2.160 . S
O387 C396 1.239 . S
O388 Mn381 2.089 . S
O388 C396 1.256 . S
O389 Mn384 2.251 . S
O389 C394 1.241 . S
O390 Mn384 2.087 . S
O390 C395 1.256 . S
C391 O397 1.278 . S
C391 O398 1.241 . S
C392 O378 1.244 . S
C392 O380 1.256 . S
C393 O382 1.239 . S
C393 O386 1.256 . S
C394 O383 1.278 . S
C394 O389 1.241 . S
C395 O385 1.244 . S
C395 O390 1.256 . S
C396 O387 1.239 . S
C396 O388 1.256 . S
O397 Mn379 2.221 . S
O397 Mn381 2.290 . S
O397 C391 1.278 . S
O398 Mn381 2.251 . S
O398 C391 1.241 . S
O399 Mn400 2.163 . S
O399 C413 1.244 . S
Mn400 O399 2.163 . S
Mn400 O403 2.160 . S
Mn400 O404 2.221 . S
Mn400 O406 2.163 . S
Mn400 O408 2.160 . S
Mn400 O418 2.221 . S
O401 Mn402 2.087 . S
O401 C413 1.256 . S
Mn402 O401 2.087 . S
Mn402 O409 2.089 . S
Mn402 O418 2.290 . S
Mn402 O419 2.251 . S
O403 Mn400 2.160 . S
O403 C414 1.239 . S
O404 Mn400 2.221 . S
O404 Mn405 2.290 . S
O404 C415 1.278 . S
Mn405 O404 2.290 . S
Mn405 O407 2.093 . S
Mn405 O410 2.251 . S
Mn405 O411 2.087 . S
O406 Mn400 2.163 . S
O406 C416 1.244 . S
O407 Mn405 2.093 . S
O407 C414 1.258 . S
O408 Mn400 2.160 . S
O408 C417 1.239 . S
O409 Mn402 2.089 . S
O409 C417 1.256 . S
O410 Mn405 2.251 . S
O410 C415 1.241 . S
O411 Mn405 2.087 . S
O411 C416 1.256 . S
C412 O418 1.278 . S
C412 O419 1.241 . S
C413 O399 1.244 . S
C413 O401 1.256 . S
C414 O403 1.239 . S
C414 O407 1.258 . S
C415 O404 1.278 . S
C415 O410 1.241 . S
C416 O406 1.244 . S
C416 O411 1.256 . S
C417 O408 1.239 . S
C417 O409 1.256 . S
O418 Mn400 2.221 . S
O418 Mn402 2.290 . S
O418 C412 1.278 . S
O419 Mn402 2.251 . S
O419 C412 1.241 . S
O420 Mn421 2.163 . S
O420 C434 1.244 . S
Mn421 O420 2.163 . S
Mn421 O424 2.160 . S
Mn421 O425 2.221 . S
Mn421 O427 2.163 . S
Mn421 O429 2.160 . S
Mn421 O439 2.221 . S
O422 Mn423 2.087 . S
O422 C434 1.256 . S
Mn423 O422 2.087 . S
Mn423 O430 2.089 . S
Mn423 O439 2.290 . S
Mn423 O440 2.251 . S
O424 Mn421 2.160 . S
O424 C435 1.239 . S
O425 Mn421 2.221 . S
O425 Mn426 2.290 . S
O425 C436 1.278 . S
Mn426 O425 2.290 . S
Mn426 O428 2.089 . S
Mn426 O431 2.251 . S
Mn426 O432 2.087 . S
O427 Mn421 2.163 . S
O427 C437 1.244 . S
O428 Mn426 2.089 . S
O428 C435 1.256 . S
O429 Mn421 2.160 . S
O429 C438 1.239 . S
O430 Mn423 2.089 . S
O430 C438 1.256 . S
O431 Mn426 2.251 . S
O431 C436 1.241 . S
O432 Mn426 2.087 . S
O432 C437 1.256 . S
C433 O439 1.278 . S
C433 O440 1.241 . S
C434 O420 1.244 . S
C434 O422 1.256 . S
C435 O424 1.239 . S
C435 O428 1.256 . S
C436 O425 1.278 . S
C436 O431 1.241 . S
C437 O427 1.244 . S
C437 O432 1.256 . S
C438 O429 1.239 . S
C438 O430 1.256 . S
O439 Mn421 2.221 . S
O439 Mn423 2.290 . S
O439 C433 1.278 . S
O440 Mn423 2.251 . S
O440 C433 1.241 . S
O441 Mn442 2.166 . S
O441 C455 1.244 . S
Mn442 O441 2.166 . S
Mn442 O445 2.160 . S
Mn442 O446 2.221 1_556 S
Mn442 O448 2.163 . S
Mn442 O450 2.160 . S
Mn442 O460 2.221 . S
O443 Mn444 2.087 . S
O443 C455 1.256 . S
Mn444 O443 2.087 . S
Mn444 O451 2.089 . S
Mn444 O460 2.290 . S
Mn444 O461 2.251 . S
O445 Mn442 2.160 . S
O445 C456 1.239 . S
O446 Mn442 2.221 1_554 S
O446 Mn447 2.290 1_554 S
O446 C457 1.278 . S
Mn447 O446 2.290 1_556 S
Mn447 O449 2.093 . S
Mn447 O452 2.251 1_556 S
Mn447 O453 2.087 . S
O448 Mn442 2.163 . S
O448 C458 1.244 . S
O449 Mn447 2.093 . S
O449 C456 1.258 . S
O450 Mn442 2.160 . S
O450 C459 1.239 . S
O451 Mn444 2.089 . S
O451 C459 1.256 . S
O452 Mn447 2.251 1_554 S
O452 C457 1.241 . S
O453 Mn447 2.087 . S
O453 C458 1.256 . S
C454 O460 1.278 . S
C454 O461 1.241 . S
C455 O441 1.244 . S
C455 O443 1.256 . S
C456 O445 1.239 . S
C456 O449 1.258 . S
C457 O446 1.278 . S
C457 O452 1.241 . S
C458 O448 1.244 . S
C458 O453 1.256 . S
C459 O450 1.239 . S
C459 O451 1.256 . S
O460 Mn442 2.221 . S
O460 Mn444 2.290 . S
O460 C454 1.278 . S
O461 Mn444 2.251 . S
O461 C454 1.241 . S
O462 Mn463 2.163 . S
O462 C476 1.244 . S
Mn463 O462 2.163 . S
Mn463 O466 2.160 . S
Mn463 O467 2.221 . S
Mn463 O469 2.163 . S
Mn463 O471 2.160 . S
Mn463 O481 2.221 . S
O464 Mn465 2.087 . S
O464 C476 1.256 . S
Mn465 O464 2.087 . S
Mn465 O472 2.089 . S
Mn465 O481 2.290 . S
Mn465 O482 2.251 . S
O466 Mn463 2.160 . S
O466 C477 1.239 . S
O467 Mn463 2.221 . S
O467 Mn468 2.290 . S
O467 C478 1.278 . S
Mn468 O467 2.290 . S
Mn468 O470 2.089 . S
Mn468 O473 2.251 . S
Mn468 O474 2.087 . S
O469 Mn463 2.163 . S
O469 C479 1.244 . S
O470 Mn468 2.089 . S
O470 C477 1.256 . S
O471 Mn463 2.160 . S
O471 C480 1.239 . S
O472 Mn465 2.089 . S
O472 C480 1.256 . S
O473 Mn468 2.251 . S
O473 C478 1.241 . S
O474 Mn468 2.087 . S
O474 C479 1.256 . S
C475 O481 1.278 . S
C475 O482 1.241 . S
C476 O462 1.244 . S
C476 O464 1.256 . S
C477 O466 1.239 . S
C477 O470 1.256 . S
C478 O467 1.278 . S
C478 O473 1.241 . S
C479 O469 1.244 . S
C479 O474 1.256 . S
C480 O471 1.239 . S
C480 O472 1.256 . S
O481 Mn463 2.221 . S
O481 Mn465 2.290 . S
O481 C475 1.278 . S
O482 Mn465 2.251 . S
O482 C475 1.241 . S
O483 Mn484 2.163 . S
O483 C497 1.244 . S
Mn484 O483 2.163 . S
Mn484 O487 2.160 . S
Mn484 O488 2.221 . S
Mn484 O490 2.163 . S
Mn484 O492 2.160 . S
Mn484 O502 2.221 . S
O485 Mn486 2.087 . S
O485 C497 1.256 . S
Mn486 O485 2.087 . S
Mn486 O493 2.089 . S
Mn486 O502 2.290 . S
Mn486 O503 2.251 . S
O487 Mn484 2.160 . S
O487 C498 1.239 . S
O488 Mn484 2.221 . S
O488 Mn489 2.290 . S
O488 C499 1.278 . S
Mn489 O488 2.290 . S
Mn489 O491 2.089 . S
Mn489 O494 2.251 . S
Mn489 O495 2.087 . S
O490 Mn484 2.163 . S
O490 C500 1.244 . S
O491 Mn489 2.089 . S
O491 C498 1.256 . S
O492 Mn484 2.160 . S
O492 C501 1.239 . S
O493 Mn486 2.089 . S
O493 C501 1.256 . S
O494 Mn489 2.251 . S
O494 C499 1.241 . S
O495 Mn489 2.087 . S
O495 C500 1.256 . S
C496 O502 1.278 . S
C496 O503 1.241 . S
C497 O483 1.244 . S
C497 O485 1.256 . S
C498 O487 1.239 . S
C498 O491 1.256 . S
C499 O488 1.278 . S
C499 O494 1.241 . S
C500 O490 1.244 . S
C500 O495 1.256 . S
C501 O492 1.239 . S
C501 O493 1.256 . S
O502 Mn484 2.221 . S
O502 Mn486 2.290 . S
O502 C496 1.278 . S
O503 Mn486 2.251 . S
O503 C496 1.241 . S
O504 Mn505 2.163 . S
O504 C518 1.244 . S
Mn505 O504 2.163 . S
Mn505 O508 2.160 . S
Mn505 O509 2.221 . S
Mn505 O511 2.163 . S
Mn505 O513 2.160 . S
Mn505 O523 2.221 . S
O506 Mn507 2.087 . S
O506 C518 1.256 . S
Mn507 O506 2.087 . S
Mn507 O514 2.089 . S
Mn507 O523 2.290 . S
Mn507 O524 2.251 . S
O508 Mn505 2.160 . S
O508 C519 1.239 . S
O509 Mn505 2.221 . S
O509 Mn510 2.290 . S
O509 C520 1.278 . S
Mn510 O509 2.290 . S
Mn510 O512 2.089 . S
Mn510 O515 2.251 . S
Mn510 O516 2.087 . S
O511 Mn505 2.163 . S
O511 C521 1.244 . S
O512 Mn510 2.089 . S
O512 C519 1.256 . S
O513 Mn505 2.160 . S
O513 C522 1.239 . S
O514 Mn507 2.089 . S
O514 C522 1.256 . S
O515 Mn510 2.251 . S
O515 C520 1.241 . S
O516 Mn510 2.087 . S
O516 C521 1.256 . S
C517 O523 1.278 . S
C517 O524 1.241 . S
C518 O504 1.244 . S
C518 O506 1.256 . S
C519 O508 1.239 . S
C519 O512 1.256 . S
C520 O509 1.278 . S
C520 O515 1.241 . S
C521 O511 1.244 . S
C521 O516 1.256 . S
C522 O513 1.239 . S
C522 O514 1.256 . S
O523 Mn505 2.221 . S
O523 Mn507 2.290 . S
O523 C517 1.278 . S
O524 Mn507 2.251 . S
O524 C517 1.241 . S
O525 Mn526 2.166 . S
O525 C539 1.244 . S
Mn526 O525 2.166 . S
Mn526 O529 2.160 . S
Mn526 O530 2.221 1_556 S
Mn526 O532 2.163 . S
Mn526 O534 2.160 . S
Mn526 O544 2.221 . S
O527 Mn528 2.087 . S
O527 C539 1.256 . S
Mn528 O527 2.087 . S
Mn528 O535 2.089 . S
Mn528 O544 2.290 . S
Mn528 O545 2.251 . S
O529 Mn526 2.160 . S
O529 C540 1.239 . S
O530 Mn526 2.221 1_554 S
O530 Mn531 2.290 1_554 S
O530 C541 1.278 . S
Mn531 O530 2.290 1_556 S
Mn531 O533 2.089 . S
Mn531 O536 2.251 1_556 S
Mn531 O537 2.087 . S
O532 Mn526 2.163 . S
O532 C542 1.244 . S
O533 Mn531 2.089 . S
O533 C540 1.256 . S
O534 Mn526 2.160 . S
O534 C543 1.239 . S
O535 Mn528 2.089 . S
O535 C543 1.256 . S
O536 Mn531 2.251 1_554 S
O536 C541 1.241 . S
O537 Mn531 2.087 . S
O537 C542 1.256 . S
C538 O544 1.278 . S
C538 O545 1.241 . S
C539 O525 1.244 . S
C539 O527 1.256 . S
C540 O529 1.239 . S
C540 O533 1.256 . S
C541 O530 1.278 . S
C541 O536 1.241 . S
C542 O532 1.244 . S
C542 O537 1.256 . S
C543 O534 1.239 . S
C543 O535 1.256 . S
O544 Mn526 2.221 . S
O544 Mn528 2.290 . S
O544 C538 1.278 . S
O545 Mn528 2.251 . S
O545 C538 1.241 . S
O546 Mn547 2.163 . S
O546 C560 1.244 . S
Mn547 O546 2.163 . S
Mn547 O550 2.160 . S
Mn547 O551 2.221 . S
Mn547 O553 2.163 . S
Mn547 O555 2.160 . S
Mn547 O565 2.221 . S
O548 Mn549 2.087 . S
O548 C560 1.256 . S
Mn549 O548 2.087 . S
Mn549 O556 2.089 . S
Mn549 O565 2.290 . S
Mn549 O566 2.251 . S
O550 Mn547 2.160 . S
O550 C561 1.239 . S
O551 Mn547 2.221 . S
O551 Mn552 2.290 . S
O551 C562 1.278 . S
Mn552 O551 2.290 . S
Mn552 O554 2.089 . S
Mn552 O557 2.251 . S
Mn552 O558 2.087 . S
O553 Mn547 2.163 . S
O553 C563 1.244 . S
O554 Mn552 2.089 . S
O554 C561 1.256 . S
O555 Mn547 2.160 . S
O555 C564 1.239 . S
O556 Mn549 2.089 . S
O556 C564 1.256 . S
O557 Mn552 2.251 . S
O557 C562 1.241 . S
O558 Mn552 2.087 . S
O558 C563 1.256 . S
C559 O565 1.278 . S
C559 O566 1.241 . S
C560 O546 1.244 . S
C560 O548 1.256 . S
C561 O550 1.239 . S
C561 O554 1.256 . S
C562 O551 1.278 . S
C562 O557 1.241 . S
C563 O553 1.244 . S
C563 O558 1.256 . S
C564 O555 1.239 . S
C564 O556 1.256 . S
O565 Mn547 2.221 . S
O565 Mn549 2.290 . S
O565 C559 1.278 . S
O566 Mn549 2.251 . S
O566 C559 1.241 . S
O567 Mn568 2.163 . S
O567 C581 1.244 . S
Mn568 O567 2.163 . S
Mn568 O571 2.160 . S
Mn568 O572 2.221 . S
Mn568 O574 2.163 . S
Mn568 O576 2.160 . S
Mn568 O586 2.221 . S
O569 Mn570 2.087 . S
O569 C581 1.256 . S
Mn570 O569 2.087 . S
Mn570 O577 2.089 . S
Mn570 O586 2.290 . S
Mn570 O587 2.251 . S
O571 Mn568 2.160 . S
O571 C582 1.239 . S
O572 Mn568 2.221 . S
O572 Mn573 2.290 . S
O572 C583 1.278 . S
Mn573 O572 2.290 . S
Mn573 O575 2.093 . S
Mn573 O578 2.251 . S
Mn573 O579 2.087 . S
O574 Mn568 2.163 . S
O574 C584 1.244 . S
O575 Mn573 2.093 . S
O575 C582 1.258 . S
O576 Mn568 2.160 . S
O576 C585 1.239 . S
O577 Mn570 2.089 . S
O577 C585 1.256 . S
O578 Mn573 2.251 . S
O578 C583 1.241 . S
O579 Mn573 2.087 . S
O579 C584 1.256 . S
C580 O586 1.278 . S
C580 O587 1.241 . S
C581 O567 1.244 . S
C581 O569 1.256 . S
C582 O571 1.239 . S
C582 O575 1.258 . S
C583 O572 1.278 . S
C583 O578 1.241 . S
C584 O574 1.244 . S
C584 O579 1.256 . S
C585 O576 1.239 . S
C585 O577 1.256 . S
O586 Mn568 2.221 . S
O586 Mn570 2.290 . S
O586 C580 1.278 . S
O587 Mn570 2.251 . S
O587 C580 1.241 . S
O588 Mn589 2.163 . S
O588 C602 1.244 . S
Mn589 O588 2.163 . S
Mn589 O592 2.160 . S
Mn589 O593 2.221 . S
Mn589 O595 2.163 . S
Mn589 O597 2.160 . S
Mn589 O607 2.221 . S
O590 Mn591 2.087 . S
O590 C602 1.256 . S
Mn591 O590 2.087 . S
Mn591 O598 2.089 . S
Mn591 O607 2.290 . S
Mn591 O608 2.251 . S
O592 Mn589 2.160 . S
O592 C603 1.239 . S
O593 Mn589 2.221 . S
O593 Mn594 2.290 . S
O593 C604 1.278 . S
Mn594 O593 2.290 . S
Mn594 O596 2.089 . S
Mn594 O599 2.251 . S
Mn594 O600 2.087 . S
O595 Mn589 2.163 . S
O595 C605 1.244 . S
O596 Mn594 2.089 . S
O596 C603 1.256 . S
O597 Mn589 2.160 . S
O597 C606 1.239 . S
O598 Mn591 2.089 . S
O598 C606 1.256 . S
O599 Mn594 2.251 . S
O599 C604 1.241 . S
O600 Mn594 2.087 . S
O600 C605 1.256 . S
C601 O607 1.278 . S
C601 O608 1.241 . S
C602 O588 1.244 . S
C602 O590 1.256 . S
C603 O592 1.239 . S
C603 O596 1.256 . S
C604 O593 1.278 . S
C604 O599 1.241 . S
C605 O595 1.244 . S
C605 O600 1.256 . S
C606 O597 1.239 . S
C606 O598 1.256 . S
O607 Mn589 2.221 . S
O607 Mn591 2.290 . S
O607 C601 1.278 . S
O608 Mn591 2.251 . S
O608 C601 1.241 . S
O609 Mn610 2.166 . S
O609 C623 1.244 . S
Mn610 O609 2.166 . S
Mn610 O613 2.160 . S
Mn610 O614 2.221 1_554 S
Mn610 O616 2.163 . S
Mn610 O618 2.160 . S
Mn610 O628 2.221 . S
O611 Mn612 2.087 . S
O611 C623 1.256 . S
Mn612 O611 2.087 . S
Mn612 O619 2.089 . S
Mn612 O628 2.290 . S
Mn612 O629 2.251 . S
O613 Mn610 2.160 . S
O613 C624 1.239 . S
O614 Mn610 2.221 1_556 S
O614 Mn615 2.290 1_556 S
O614 C625 1.278 . S
Mn615 O614 2.290 1_554 S
Mn615 O617 2.093 . S
Mn615 O620 2.251 1_554 S
Mn615 O621 2.087 . S
O616 Mn610 2.163 . S
O616 C626 1.244 . S
O617 Mn615 2.093 . S
O617 C624 1.258 . S
O618 Mn610 2.160 . S
O618 C627 1.239 . S
O619 Mn612 2.089 . S
O619 C627 1.256 . S
O620 Mn615 2.251 1_556 S
O620 C625 1.241 . S
O621 Mn615 2.087 . S
O621 C626 1.256 . S
C622 O628 1.278 . S
C622 O629 1.241 . S
C623 O609 1.244 . S
C623 O611 1.256 . S
C624 O613 1.239 . S
C624 O617 1.258 . S
C625 O614 1.278 . S
C625 O620 1.241 . S
C626 O616 1.244 . S
C626 O621 1.256 . S
C627 O618 1.239 . S
C627 O619 1.256 . S
O628 Mn610 2.221 . S
O628 Mn612 2.290 . S
O628 C622 1.278 . S
O629 Mn612 2.251 . S
O629 C622 1.241 . S
O630 Mn631 2.163 . S
O630 C644 1.244 . S
Mn631 O630 2.163 . S
Mn631 O634 2.160 . S
Mn631 O635 2.221 . S
Mn631 O637 2.163 . S
Mn631 O639 2.160 . S
Mn631 O649 2.221 . S
O632 Mn633 2.087 . S
O632 C644 1.256 . S
Mn633 O632 2.087 . S
Mn633 O640 2.089 . S
Mn633 O649 2.290 . S
Mn633 O650 2.251 . S
O634 Mn631 2.160 . S
O634 C645 1.239 . S
O635 Mn631 2.221 . S
O635 Mn636 2.290 . S
O635 C646 1.278 . S
Mn636 O635 2.290 . S
Mn636 O638 2.089 . S
Mn636 O641 2.251 . S
Mn636 O642 2.087 . S
O637 Mn631 2.163 . S
O637 C647 1.244 . S
O638 Mn636 2.089 . S
O638 C645 1.256 . S
O639 Mn631 2.160 . S
O639 C648 1.239 . S
O640 Mn633 2.089 . S
O640 C648 1.256 . S
O641 Mn636 2.251 . S
O641 C646 1.241 . S
O642 Mn636 2.087 . S
O642 C647 1.256 . S
C643 O649 1.278 . S
C643 O650 1.241 . S
C644 O630 1.244 . S
C644 O632 1.256 . S
C645 O634 1.239 . S
C645 O638 1.256 . S
C646 O635 1.278 . S
C646 O641 1.241 . S
C647 O637 1.244 . S
C647 O642 1.256 . S
C648 O639 1.239 . S
C648 O640 1.256 . S
O649 Mn631 2.221 . S
O649 Mn633 2.290 . S
O649 C643 1.278 . S
O650 Mn633 2.251 . S
O650 C643 1.241 . S
O651 Mn652 2.163 . S
O651 C665 1.244 . S
Mn652 O651 2.163 . S
Mn652 O655 2.160 . S
Mn652 O656 2.221 . S
Mn652 O658 2.163 . S
Mn652 O660 2.160 . S
Mn652 O670 2.221 . S
O653 Mn654 2.087 . S
O653 C665 1.256 . S
Mn654 O653 2.087 . S
Mn654 O661 2.089 . S
Mn654 O670 2.290 . S
Mn654 O671 2.251 . S
O655 Mn652 2.160 . S
O655 C666 1.239 . S
O656 Mn652 2.221 . S
O656 Mn657 2.290 . S
O656 C667 1.278 . S
Mn657 O656 2.290 . S
Mn657 O659 2.089 . S
Mn657 O662 2.251 . S
Mn657 O663 2.087 . S
O658 Mn652 2.163 . S
O658 C668 1.244 . S
O659 Mn657 2.089 . S
O659 C666 1.256 . S
O660 Mn652 2.160 . S
O660 C669 1.239 . S
O661 Mn654 2.089 . S
O661 C669 1.256 . S
O662 Mn657 2.251 . S
O662 C667 1.241 . S
O663 Mn657 2.087 . S
O663 C668 1.256 . S
C664 O670 1.278 . S
C664 O671 1.241 . S
C665 O651 1.244 . S
C665 O653 1.256 . S
C666 O655 1.239 . S
C666 O659 1.256 . S
C667 O656 1.278 . S
C667 O662 1.241 . S
C668 O658 1.244 . S
C668 O663 1.256 . S
C669 O660 1.239 . S
C669 O661 1.256 . S
O670 Mn652 2.221 . S
O670 Mn654 2.290 . S
O670 C664 1.278 . S
O671 Mn654 2.251 . S
O671 C664 1.241 . S
C18 C76 1.489 . S
C13 C39 1.489 . S
C60 C34 1.489 . S
C55 C81 1.489 1_556 S
C118 C99 1.489 . S
C123 C139 1.489 . S
C160 C144 1.489 . S
C100 C165 1.489 1_554 S
C186 C244 1.489 . S
C207 C181 1.489 . S
C228 C202 1.489 . S
C249 C223 1.489 1_556 S
C270 C286 1.489 . S
C291 C307 1.489 . S
C328 C312 1.489 . S
C265 C333 1.489 1_556 S
C354 C412 1.489 . S
C349 C375 1.489 1_556 S
C370 C396 1.489 . S
C417 C391 1.489 . S
C435 C454 1.489 . S
C475 C459 1.489 1_554 S
C480 C496 1.489 . S
C436 C501 1.489 . S
C580 C522 1.489 . S
C517 C543 1.489 1_554 S
C564 C538 1.489 . S
C559 C585 1.489 . S
C622 C606 1.489 . S
C643 C627 1.489 1_556 S
C664 C648 1.489 . S
C669 C601 1.489 . S
C584 C15 1.259 . S
C36 C185 1.259 1_455 S
C57 C542 1.259 . S
C78 C227 1.259 . S
C102 C626 1.259 . S
C311 C120 1.259 . S
C668 C141 1.259 . S
C162 C269 1.259 1_455 S
C183 C416 1.259 . S
C17 C204 1.259 1_455 S
C374 C225 1.259 . S
C59 C246 1.259 . S
C458 C267 1.259 . S
C143 C288 1.259 . S
C309 C500 1.259 . S
C330 C98 1.259 1_655 S
C351 C248 1.259 . S
C372 C521 1.259 . S
C393 C206 1.259 . S
C414 C563 1.259 1_655 S
C438 C290 1.259 . S
C456 C647 1.259 1_655 S
C332 C477 1.259 . S
C498 C605 1.259 . S
C80 C519 1.259 . S
C353 C540 1.259 . S
C38 C561 1.259 . S
C395 C582 1.259 1_655 S
C122 C603 1.259 . S
C624 C479 1.259 1_455 S
C645 C164 1.259 . S
C434 C666 1.259 . S
C14 C101 0.189 1_565 S
C35 C119 0.189 . S
C56 C140 0.189 1_545 S
C161 C77 0.189 1_556 S
C266 C182 0.189 1_565 S
C287 C203 0.189 . S
C224 C308 0.189 1_565 S
C245 C329 0.189 1_556 S
C350 C437 0.189 . S
C455 C371 0.189 1_556 S
C476 C392 0.189 . S
C497 C413 0.189 . S
C602 C518 0.189 . S
C539 C623 0.189 1_556 S
C644 C560 0.189 . S
C581 C665 0.189 . S
C163 C16 1.595 . S
C37 C97 1.595 . S
C58 C121 1.595 . S
C142 C79 1.595 . S
C184 C331 1.595 . S
C268 C205 1.595 . S
C289 C226 1.595 . S
C247 C310 1.595 . S
C352 C499 1.595 . S
C433 C373 1.595 . S
C457 C394 1.595 . S
C478 C415 1.595 . S
C520 C667 1.595 . S
C604 C541 1.595 . S
C562 C625 1.595 . S
C646 C583 1.595 . S
