# Generated by pormake.
# Topology fnq, (5)-cn, num edge types: 1
# Building blocks:
#     Node 0, Type 0, BuildingBlock: BEQFEK_clean_sbu_0, # of connection points: 5
#     Node 1, Type 0, BuildingBlock: BEQFEK_clean_sbu_0, # of connection points: 5
#     Node 2, Type 0, BuildingBlock: BEQFEK_clean_sbu_0, # of connection points: 5
#     Node 3, Type 0, BuildingBlock: BEQFEK_clean_sbu_0, # of connection points: 5
#     Node 4, Type 0, BuildingBlock: BEQFEK_clean_sbu_0, # of connection points: 5
#     Node 5, Type 0, BuildingBlock: BEQFEK_clean_sbu_0, # of connection points: 5
#     Node 6, Type 0, BuildingBlock: BEQFEK_clean_sbu_0, # of connection points: 5
#     Node 7, Type 0, BuildingBlock: BEQFEK_clean_sbu_0, # of connection points: 5
#     Node 8, Type 0, BuildingBlock: BEQFEK_clean_sbu_0, # of connection points: 5
#     Node 9, Type 0, BuildingBlock: BEQFEK_clean_sbu_0, # of connection points: 5
#     Node 10, Type 0, BuildingBlock: BEQFEK_clean_sbu_0, # of connection points: 5
#     Node 11, Type 0, BuildingBlock: BEQFEK_clean_sbu_0, # of connection points: 5
#     Node 12, Type 0, BuildingBlock: BEQFEK_clean_sbu_0, # of connection points: 5
#     Node 13, Type 0, BuildingBlock: BEQFEK_clean_sbu_0, # of connection points: 5
#     Node 14, Type 0, BuildingBlock: BEQFEK_clean_sbu_0, # of connection points: 5
#     Node 15, Type 0, BuildingBlock: BEQFEK_clean_sbu_0, # of connection points: 5
#     Node 16, Type 0, BuildingBlock: BEQFEK_clean_sbu_0, # of connection points: 5
#     Node 17, Type 0, BuildingBlock: BEQFEK_clean_sbu_0, # of connection points: 5
#     Edge 18, Type (0, 0), BuildingBlock: CIFDUS_clean_linker_0, # of connection points: 2
#     Edge 19, Type (0, 0), BuildingBlock: CIFDUS_clean_linker_0, # of connection points: 2
#     Edge 20, Type (0, 0), BuildingBlock: CIFDUS_clean_linker_0, # of connection points: 2
#     Edge 21, Type (0, 0), BuildingBlock: CIFDUS_clean_linker_0, # of connection points: 2
#     Edge 22, Type (0, 0), BuildingBlock: CIFDUS_clean_linker_0, # of connection points: 2
#     Edge 23, Type (0, 0), BuildingBlock: CIFDUS_clean_linker_0, # of connection points: 2
#     Edge 24, Type (0, 0), BuildingBlock: CIFDUS_clean_linker_0, # of connection points: 2
#     Edge 25, Type (0, 0), BuildingBlock: CIFDUS_clean_linker_0, # of connection points: 2
#     Edge 26, Type (0, 0), BuildingBlock: CIFDUS_clean_linker_0, # of connection points: 2
#     Edge 27, Type (0, 0), BuildingBlock: CIFDUS_clean_linker_0, # of connection points: 2
#     Edge 28, Type (0, 0), BuildingBlock: CIFDUS_clean_linker_0, # of connection points: 2
#     Edge 29, Type (0, 0), BuildingBlock: CIFDUS_clean_linker_0, # of connection points: 2
#     Edge 30, Type (0, 0), BuildingBlock: CIFDUS_clean_linker_0, # of connection points: 2
#     Edge 31, Type (0, 0), BuildingBlock: CIFDUS_clean_linker_0, # of connection points: 2
#     Edge 32, Type (0, 0), BuildingBlock: CIFDUS_clean_linker_0, # of connection points: 2
#     Edge 33, Type (0, 0), BuildingBlock: CIFDUS_clean_linker_0, # of connection points: 2
#     Edge 34, Type (0, 0), BuildingBlock: CIFDUS_clean_linker_0, # of connection points: 2
#     Edge 35, Type (0, 0), BuildingBlock: CIFDUS_clean_linker_0, # of connection points: 2
#     Edge 36, Type (0, 0), BuildingBlock: CIFDUS_clean_linker_0, # of connection points: 2
#     Edge 37, Type (0, 0), BuildingBlock: CIFDUS_clean_linker_0, # of connection points: 2
#     Edge 38, Type (0, 0), BuildingBlock: CIFDUS_clean_linker_0, # of connection points: 2
#     Edge 39, Type (0, 0), BuildingBlock: CIFDUS_clean_linker_0, # of connection points: 2
#     Edge 40, Type (0, 0), BuildingBlock: CIFDUS_clean_linker_0, # of connection points: 2
#     Edge 41, Type (0, 0), BuildingBlock: CIFDUS_clean_linker_0, # of connection points: 2
#     Edge 42, Type (0, 0), BuildingBlock: CIFDUS_clean_linker_0, # of connection points: 2
#     Edge 43, Type (0, 0), BuildingBlock: CIFDUS_clean_linker_0, # of connection points: 2
#     Edge 44, Type (0, 0), BuildingBlock: CIFDUS_clean_linker_0, # of connection points: 2
#     Edge 45, Type (0, 0), BuildingBlock: CIFDUS_clean_linker_0, # of connection points: 2
#     Edge 46, Type (0, 0), BuildingBlock: CIFDUS_clean_linker_0, # of connection points: 2
#     Edge 47, Type (0, 0), BuildingBlock: CIFDUS_clean_linker_0, # of connection points: 2
#     Edge 48, Type (0, 0), BuildingBlock: CIFDUS_clean_linker_0, # of connection points: 2
#     Edge 49, Type (0, 0), BuildingBlock: CIFDUS_clean_linker_0, # of connection points: 2
#     Edge 50, Type (0, 0), BuildingBlock: CIFDUS_clean_linker_0, # of connection points: 2
#     Edge 51, Type (0, 0), BuildingBlock: CIFDUS_clean_linker_0, # of connection points: 2
#     Edge 52, Type (0, 0), BuildingBlock: CIFDUS_clean_linker_0, # of connection points: 2
#     Edge 53, Type (0, 0), BuildingBlock: CIFDUS_clean_linker_0, # of connection points: 2
#     Edge 54, Type (0, 0), BuildingBlock: CIFDUS_clean_linker_0, # of connection points: 2
#     Edge 55, Type (0, 0), BuildingBlock: CIFDUS_clean_linker_0, # of connection points: 2
#     Edge 56, Type (0, 0), BuildingBlock: CIFDUS_clean_linker_0, # of connection points: 2
#     Edge 57, Type (0, 0), BuildingBlock: CIFDUS_clean_linker_0, # of connection points: 2
#     Edge 58, Type (0, 0), BuildingBlock: CIFDUS_clean_linker_0, # of connection points: 2
#     Edge 59, Type (0, 0), BuildingBlock: CIFDUS_clean_linker_0, # of connection points: 2
#     Edge 60, Type (0, 0), BuildingBlock: CIFDUS_clean_linker_0, # of connection points: 2
#     Edge 61, Type (0, 0), BuildingBlock: CIFDUS_clean_linker_0, # of connection points: 2
#     Edge 62, Type (0, 0), BuildingBlock: CIFDUS_clean_linker_0, # of connection points: 2
# Relax obj value: 0.402
# Max RMSD: 0.234
# Mean RMSD: 0.217
data_MOF--net-fnq--node1-BEQFEK_clean_sbu_0--edge1-CIFDUS_clean_linker_0
_symmetry_space_group_name_H-M    P1
_symmetry_Int_Tables_number       1
_symmetry_cell_setting            triclinic
loop_
_symmetry_equiv_pos_as_xyz
'x, y, z'
_cell_length_a     45.892618
_cell_length_b     45.919745
_cell_length_c     32.603265
_cell_angle_alpha  90.102896
_cell_angle_beta   90.000341
_cell_angle_gamma 119.97369
loop_
_atom_site_label
_atom_site_type_symbol
_atom_site_fract_x
_atom_site_fract_y
_atom_site_fract_z
_atom_type_partial_charge
Co0 Co 0.21046 0.38598 0.14618 0.0
Co1 Co 0.20512 0.31761 0.14725 0.0
C2 C 0.27408 0.38388 0.14485 0.0
O3 O 0.25883 0.40004 0.13737 0.0
O4 O 0.25679 0.35199 0.14945 0.0
C5 C 0.22828 0.44881 0.1737 0.0
O6 O 0.24602 0.44107 0.19837 0.0
C7 C 0.20789 0.27182 0.09181 0.0
C8 C 0.17805 0.22186 0.12034 0.0
C9 C 0.19299 0.23769 0.08372 0.0
N10 N 0.20078 0.27598 0.13046 0.0
N11 N 0.18355 0.24612 0.14789 0.0
C12 C 0.22738 0.30055 0.06302 0.0
H13 H 0.21002 0.30737 0.04776 0.0
H14 H 0.24041 0.29383 0.03935 0.0
H15 H 0.24623 0.32292 0.08013 0.0
C16 C 0.15167 0.35219 0.08597 0.0
N17 N 0.17731 0.35387 0.10891 0.0
N18 N 0.17444 0.324 0.11028 0.0
C19 C 0.14648 0.30232 0.08854 0.0
C20 C 0.13097 0.31923 0.07168 0.0
C21 C 0.14615 0.38128 0.07952 0.0
H22 H 0.17068 0.40494 0.07724 0.0
H23 H 0.13098 0.37767 0.05147 0.0
H24 H 0.13242 0.38341 0.10633 0.0
O25 O 0.19954 0.36902 0.20384 0.0
O26 O 0.19035 0.31669 0.20503 0.0
H27 H 0.13563 0.25647 0.11856 0.0
H28 H 0.10415 0.25196 0.08215 0.0
C29 C 0.13157 0.26496 0.08846 0.0
H30 H 0.14365 0.25781 0.06411 0.0
H31 H 0.17351 0.24215 0.17742 0.0
O32 O 0.20983 0.42791 0.1464 0.0
C33 C 0.19193 0.34209 0.22335 0.0
Co34 Co 0.66345 0.81945 0.1501 0.0
Co35 Co 0.73194 0.88029 0.1618 0.0
C36 C 0.66771 0.88641 0.15317 0.0
O37 O 0.65121 0.85562 0.14243 0.0
O38 O 0.69892 0.89925 0.16181 0.0
C39 C 0.59948 0.77536 0.17191 0.0
O40 O 0.60684 0.80137 0.19551 0.0
C41 C 0.77919 0.93896 0.1229 0.0
C42 C 0.8267 0.95924 0.15778 0.0
C43 C 0.81184 0.96516 0.12421 0.0
N44 N 0.77438 0.91855 0.15431 0.0
N45 N 0.80275 0.93049 0.17532 0.0
C46 C 0.75302 0.93214 0.09095 0.0
H47 H 0.73399 0.90501 0.08988 0.0
H48 H 0.76478 0.94048 0.06028 0.0
H49 H 0.73997 0.94626 0.09876 0.0
C50 C 0.70131 0.798 0.09065 0.0
N51 N 0.69814 0.82016 0.11548 0.0
N52 N 0.72783 0.84702 0.12032 0.0
C53 C 0.75071 0.8429 0.09819 0.0
C54 C 0.73498 0.81148 0.0784 0.0
C55 C 0.67284 0.76389 0.0801 0.0
H56 H 0.64896 0.76443 0.0784 0.0
H57 H 0.67759 0.75491 0.05058 0.0
H58 H 0.6703 0.74603 0.10461 0.0
O59 O 0.67591 0.82079 0.20918 0.0
O60 O 0.72838 0.862 0.21782 0.0
H61 H 0.8023 0.85645 0.08529 0.0
H62 H 0.79289 0.89015 0.08153 0.0
C63 C 0.7877 0.86733 0.09897 0.0
H64 H 0.79606 0.87493 0.13106 0.0
H65 H 0.80578 0.9191 0.20138 0.0
O66 O 0.62097 0.77734 0.14576 0.0
C67 C 0.70139 0.83762 0.23222 0.0
Co68 Co 0.23282 0.85516 0.15525 0.0
Co69 Co 0.17285 0.86557 0.15655 0.0
C70 C 0.16386 0.79381 0.15576 0.0
O71 O 0.19547 0.80621 0.15155 0.0
O72 O 0.15196 0.81372 0.157 0.0
C73 C 0.27707 0.83549 0.1811 0.0
O74 O 0.25249 0.81959 0.20751 0.0
C75 C 0.11746 0.85726 0.11194 0.0
C76 C 0.09454 0.88191 0.147 0.0
C77 C 0.09073 0.86293 0.11221 0.0
N78 N 0.13627 0.87174 0.14498 0.0
N79 N 0.12289 0.88685 0.16594 0.0
C80 C 0.12493 0.83769 0.081 0.0
H81 H 0.15212 0.84593 0.08084 0.0
H82 H 0.11692 0.84064 0.04988 0.0
H83 H 0.11089 0.81063 0.08917 0.0
C84 C 0.25938 0.91431 0.09473 0.0
N85 N 0.23458 0.88869 0.1167 0.0
N86 N 0.20831 0.89284 0.11743 0.0
C87 C 0.21538 0.9209 0.09563 0.0
C88 C 0.24824 0.93595 0.07998 0.0
C89 C 0.29415 0.91961 0.09087 0.0
H90 H 0.29307 0.89505 0.08744 0.0
H91 H 0.30748 0.93598 0.0643 0.0
H92 H 0.30843 0.93176 0.11928 0.0
O93 O 0.2311 0.86993 0.21245 0.0
O94 O 0.18922 0.88099 0.21307 0.0
H95 H 0.2059 0.96179 0.08267 0.0
H96 H 0.17062 0.91991 0.07559 0.0
C97 C 0.19291 0.93582 0.09496 0.0
H98 H 0.18396 0.93612 0.12647 0.0
H99 H 0.13252 0.8997 0.19352 0.0
O100 O 0.27416 0.85317 0.15319 0.0
C101 C 0.21307 0.87959 0.23131 0.0
Co102 Co 0.39957 0.19821 0.88664 0.0
Co103 Co 0.32858 0.18532 0.86976 0.0
C104 C 0.38744 0.25741 0.8799 0.0
O105 O 0.40678 0.24567 0.88794 0.0
O106 O 0.35606 0.23714 0.87428 0.0
C107 C 0.46754 0.22363 0.87817 0.0
O108 O 0.46254 0.24209 0.85146 0.0
C109 C 0.26885 0.18556 0.89437 0.0
C110 C 0.22783 0.14023 0.86488 0.0
C111 C 0.23422 0.16526 0.8932 0.0
N112 N 0.28241 0.17316 0.86822 0.0
N113 N 0.25781 0.14665 0.84959 0.0
C114 C 0.28912 0.21243 0.92522 0.0
H115 H 0.31022 0.20934 0.93655 0.0
H116 H 0.27366 0.21212 0.95156 0.0
H117 H 0.30007 0.2373 0.91002 0.0
C118 C 0.36117 0.13588 0.94119 0.0
N119 N 0.36379 0.16212 0.91861 0.0
N120 N 0.33357 0.15778 0.9128 0.0
C121 C 0.31106 0.12932 0.93287 0.0
C122 C 0.32728 0.11354 0.95126 0.0
C123 C 0.39006 0.1301 0.94846 0.0
H124 H 0.4074 0.13911 0.92184 0.0
H125 H 0.40421 0.14468 0.97586 0.0
H126 H 0.38128 0.10311 0.95383 0.0
O127 O 0.39304 0.18607 0.82767 0.0
O128 O 0.34107 0.17506 0.8145 0.0
H129 H 0.2621 0.10564 0.90579 0.0
H130 H 0.26199 0.09902 0.96044 0.0
C131 C 0.27429 0.11743 0.93531 0.0
H132 H 0.2708 0.13913 0.94147 0.0
H133 H 0.26155 0.13126 0.82923 0.0
O134 O 0.4431 0.20292 0.90018 0.0
C135 C 0.36891 0.17792 0.80257 0.0
Co136 Co 0.86728 0.22023 0.87824 0.0
Co137 Co 0.87676 0.15964 0.87668 0.0
C138 C 0.80555 0.15218 0.87848 0.0
O139 O 0.81845 0.18374 0.88341 0.0
O140 O 0.82501 0.13979 0.87647 0.0
C141 C 0.84688 0.26356 0.85164 0.0
O142 O 0.8306 0.23836 0.82605 0.0
C143 C 0.86918 0.10621 0.92502 0.0
C144 C 0.89679 0.08441 0.89418 0.0
C145 C 0.87807 0.08154 0.92901 0.0
N146 N 0.88185 0.12256 0.8899 0.0
N147 N 0.8982 0.1095 0.87114 0.0
C148 C 0.85246 0.11757 0.95566 0.0
H149 H 0.85835 0.14362 0.94937 0.0
H150 H 0.86056 0.11634 0.98737 0.0
H151 H 0.82476 0.10141 0.95314 0.0
C152 C 0.92684 0.2469 0.93847 0.0
N153 N 0.9014 0.22231 0.91592 0.0
N154 N 0.90571 0.19615 0.9145 0.0
C155 C 0.93381 0.20314 0.93635 0.0
C156 C 0.9488 0.23591 0.95255 0.0
C157 C 0.93217 0.28169 0.94252 0.0
H158 H 0.92412 0.28888 0.91408 0.0
H159 H 0.91656 0.2822 0.96819 0.0
H160 H 0.95894 0.30025 0.94884 0.0
O161 O 0.88065 0.21695 0.82098 0.0
O162 O 0.89121 0.17473 0.81956 0.0
H163 H 0.95025 0.17067 0.91115 0.0
H164 H 0.96912 0.18872 0.96036 0.0
C165 C 0.94596 0.17857 0.94167 0.0
H166 H 0.92641 0.15602 0.95767 0.0
H167 H 0.9109 0.11816 0.84335 0.0
O168 O 0.86529 0.26153 0.87933 0.0
C169 C 0.88957 0.19854 0.80159 0.0
Co170 Co 0.83322 0.64726 0.88253 0.0
Co171 Co 0.89267 0.71661 0.87319 0.0
C172 C 0.90071 0.65343 0.8817 0.0
O173 O 0.87002 0.63658 0.89243 0.0
O174 O 0.91299 0.68453 0.87297 0.0
C175 C 0.79326 0.58313 0.85832 0.0
O176 O 0.82061 0.59267 0.83648 0.0
C177 C 0.94757 0.76526 0.91735 0.0
C178 C 0.9673 0.81284 0.8829 0.0
C179 C 0.97176 0.79917 0.91876 0.0
N180 N 0.92999 0.75941 0.88275 0.0
N181 N 0.94183 0.78767 0.86182 0.0
C182 C 0.93768 0.73887 0.94992 0.0
H183 H 0.91186 0.71775 0.94472 0.0
H184 H 0.939 0.74958 0.98086 0.0
H185 H 0.95468 0.72823 0.9486 0.0
C186 C 0.80791 0.68228 0.94096 0.0
N187 N 0.83142 0.68071 0.9171 0.0
N188 N 0.8573 0.71109 0.9129 0.0
C189 C 0.8511 0.73299 0.93437 0.0
C190 C 0.81922 0.71572 0.95325 0.0
C191 C 0.77375 0.65268 0.94854 0.0
H192 H 0.76612 0.63467 0.92262 0.0
H193 H 0.77461 0.63964 0.97674 0.0
H194 H 0.75478 0.66068 0.95279 0.0
O195 O 0.83567 0.66043 0.82362 0.0
O196 O 0.87564 0.71361 0.8166 0.0
H197 H 0.88281 0.78067 0.90605 0.0
H198 H 0.8662 0.78368 0.95537 0.0
C199 C 0.8758 0.76986 0.93731 0.0
H200 H 0.89884 0.77355 0.95281 0.0
H201 H 0.93196 0.78997 0.83397 0.0
O202 O 0.79244 0.6034 0.88434 0.0
C203 C 0.85217 0.68637 0.80132 0.0
Co204 Co 0.87685 0.73508 0.47507 0.0
Co205 Co 0.86968 0.66651 0.48643 0.0
C206 C 0.93984 0.73114 0.4784 0.0
O207 O 0.92529 0.74766 0.46889 0.0
O208 O 0.92182 0.69957 0.48543 0.0
C209 C 0.89724 0.80416 0.45443 0.0
O210 O 0.92337 0.80669 0.43478 0.0
C211 C 0.86643 0.61205 0.44235 0.0
C212 C 0.84363 0.5688 0.48472 0.0
C213 C 0.85375 0.57783 0.44445 0.0
N214 N 0.86293 0.62286 0.47908 0.0
N215 N 0.84952 0.59708 0.50462 0.0
C216 C 0.88149 0.63447 0.40588 0.0
H217 H 0.89639 0.66115 0.41558 0.0
H218 H 0.86115 0.63179 0.38512 0.0
H219 H 0.89767 0.62716 0.38851 0.0
C220 C 0.81714 0.69739 0.41783 0.0
N221 N 0.8433 0.70025 0.44061 0.0
N222 N 0.83928 0.67022 0.44655 0.0
C223 C 0.80998 0.64725 0.42804 0.0
C224 C 0.79502 0.66352 0.40813 0.0
C225 C 0.81142 0.72613 0.40944 0.0
H226 H 0.83547 0.74858 0.40042 0.0
H227 H 0.79234 0.71971 0.38495 0.0
H228 H 0.80251 0.73242 0.43794 0.0
O229 O 0.86571 0.72318 0.53419 0.0
O230 O 0.85589 0.6711 0.5425 0.0
H231 H 0.76541 0.59812 0.4315 0.0
H232 H 0.8023 0.59877 0.41234 0.0
C233 C 0.79309 0.61014 0.43517 0.0
H234 H 0.79882 0.6049 0.46639 0.0
H235 H 0.84332 0.59853 0.53506 0.0
O236 O 0.87533 0.7764 0.46987 0.0
C237 C 0.8577 0.69775 0.55701 0.0
Co238 Co 0.33979 0.16674 0.47346 0.0
Co239 Co 0.40987 0.22613 0.48806 0.0
C240 C 0.34687 0.23484 0.47914 0.0
O241 O 0.32822 0.20394 0.46966 0.0
O242 O 0.37825 0.24626 0.48555 0.0
C243 C 0.27482 0.11396 0.4398 0.0
O244 O 0.2783 0.1315 0.40655 0.0
C245 C 0.46456 0.27957 0.44587 0.0
C246 C 0.50723 0.30035 0.48927 0.0
C247 C 0.49842 0.30288 0.44927 0.0
N248 N 0.45393 0.26323 0.48155 0.0
N249 N 0.47941 0.27574 0.50764 0.0
C250 C 0.44203 0.27324 0.40965 0.0
H251 H 0.41529 0.2604 0.41923 0.0
H252 H 0.44515 0.25672 0.38738 0.0
H253 H 0.44866 0.29723 0.39404 0.0
C254 C 0.37794 0.14479 0.41502 0.0
N255 N 0.37524 0.16733 0.43979 0.0
N256 N 0.40552 0.19255 0.44729 0.0
C257 C 0.42833 0.18672 0.42762 0.0
C258 C 0.41195 0.15628 0.40592 0.0
C259 C 0.34851 0.11217 0.40168 0.0
H260 H 0.32977 0.11707 0.38648 0.0
H261 H 0.35614 0.09837 0.38029 0.0
H262 H 0.33629 0.09643 0.42907 0.0
O263 O 0.35046 0.16601 0.5326 0.0
O264 O 0.40284 0.20657 0.54454 0.0
H265 H 0.47798 0.19234 0.42813 0.0
H266 H 0.47608 0.22856 0.41133 0.0
C267 C 0.46561 0.2075 0.43353 0.0
H268 H 0.47147 0.21787 0.46508 0.0
H269 H 0.47798 0.26719 0.53761 0.0
O270 O 0.29784 0.12465 0.46674 0.0
C271 C 0.37505 0.18204 0.55719 0.0
Co272 Co 0.89139 0.18718 0.48291 0.0
Co273 Co 0.83018 0.19599 0.48662 0.0
C274 C 0.82265 0.12497 0.4849 0.0
O275 O 0.85439 0.13809 0.48068 0.0
O276 O 0.80982 0.14413 0.48581 0.0
C277 C 0.94453 0.17362 0.45606 0.0
O278 O 0.928 0.15933 0.42221 0.0
C279 C 0.77692 0.19749 0.44343 0.0
C280 C 0.75896 0.22282 0.48575 0.0
C281 C 0.75497 0.20976 0.44649 0.0
N282 N 0.79397 0.20389 0.47864 0.0
N283 N 0.78311 0.21885 0.5041 0.0
C284 C 0.78123 0.17905 0.40811 0.0
H285 H 0.79354 0.16479 0.41831 0.0
H286 H 0.79739 0.19725 0.38441 0.0
H287 H 0.75649 0.16169 0.39393 0.0
C288 C 0.91567 0.24556 0.42134 0.0
N289 N 0.89178 0.22039 0.4449 0.0
N290 N 0.86543 0.22442 0.44724 0.0
C291 C 0.87192 0.25236 0.42548 0.0
C292 C 0.90397 0.26696 0.40766 0.0
C293 C 0.94974 0.24991 0.41373 0.0
H294 H 0.94694 0.22657 0.39988 0.0
H295 H 0.96491 0.27144 0.39307 0.0
H296 H 0.96304 0.25388 0.44343 0.0
O297 O 0.89063 0.20155 0.54023 0.0
O298 O 0.84749 0.21051 0.54316 0.0
H299 H 0.86489 0.29534 0.41898 0.0
H300 H 0.82986 0.25579 0.40337 0.0
C301 C 0.8502 0.26816 0.42641 0.0
H302 H 0.83884 0.26523 0.45717 0.0
H303 H 0.7926 0.22691 0.5336 0.0
O304 O 0.93354 0.18699 0.48111 0.0
C305 C 0.87222 0.21004 0.56025 0.0
Co306 Co 0.07083 0.52909 0.21462 0.0
Co307 Co 1.00332 0.52509 0.21484 0.0
C308 C 0.06981 0.59392 0.21717 0.0
O309 O 0.08556 0.57795 0.22244 0.0
O310 O 0.03772 0.57718 0.21396 0.0
C311 C 0.13378 0.54652 0.18791 0.0
O312 O 0.12617 0.56407 0.16278 0.0
C313 C 0.95427 0.52798 0.26486 0.0
C314 C 0.9065 0.49875 0.23094 0.0
C315 C 0.91986 0.51414 0.26827 0.0
N316 N 0.96101 0.52002 0.22797 0.0
N317 N 0.93252 0.50301 0.20736 0.0
C318 C 0.98054 0.54721 0.29674 0.0
H319 H 1.00494 0.56449 0.28204 0.0
H320 H 0.98418 0.52947 0.31613 0.0
H321 H 0.97278 0.56175 0.3167 0.0
C322 C 0.03681 0.47018 0.27415 0.0
N323 N 0.03856 0.4963 0.2524 0.0
N324 N 1.0088 0.49376 0.25187 0.0
C325 C 0.98698 0.46541 0.27299 0.0
C326 C 1.0038 0.44912 0.28844 0.0
C327 C 0.06541 0.46338 0.27699 0.0
H328 H 0.07799 0.46777 0.24676 0.0
H329 H 0.08418 0.48118 0.29926 0.0
H330 H 0.05684 0.43724 0.28694 0.0
O331 O 0.05377 0.5169 0.15697 0.0
O332 O 1.00242 0.51016 0.15734 0.0
H333 H 0.93932 0.45311 0.24691 0.0
H334 H 0.93608 0.42832 0.29149 0.0
C335 C 0.95024 0.45346 0.27735 0.0
H336 H 0.94705 0.47097 0.29754 0.0
H337 H 0.93064 0.49285 0.17817 0.0
O338 O 0.11278 0.52847 0.21525 0.0
C339 C 1.02656 0.50982 0.13838 0.0
Co340 Co 0.53047 0.54234 0.2194 0.0
Co341 Co 0.54354 0.48412 0.20701 0.0
C342 C 0.47122 0.47307 0.21478 0.0
O343 O 0.48275 0.5038 0.22429 0.0
O344 O 0.49171 0.46237 0.20831 0.0
C345 C 0.50708 0.5839 0.19865 0.0
O346 O 0.48966 0.5579 0.17452 0.0
C347 C 0.54346 0.43008 0.24961 0.0
C348 C 0.56944 0.4118 0.209 0.0
C349 C 0.55495 0.40747 0.24747 0.0
N350 N 0.55162 0.44782 0.21478 0.0
N351 N 0.56697 0.43674 0.1903 0.0
C352 C 0.52498 0.43501 0.28439 0.0
H353 H 0.54302 0.44994 0.30899 0.0
H354 H 0.50624 0.41036 0.29749 0.0
H355 H 0.51232 0.4489 0.27419 0.0
C356 C 0.59216 0.56856 0.27509 0.0
N357 N 0.5661 0.54395 0.25328 0.0
N358 N 0.57178 0.51893 0.24744 0.0
C359 C 0.60151 0.52675 0.26569 0.0
C360 C 0.61608 0.55877 0.28411 0.0
C361 C 0.59645 0.60275 0.28137 0.0
H362 H 0.59513 0.61327 0.25125 0.0
H363 H 0.57533 0.60052 0.3003 0.0
H364 H 0.6207 0.62015 0.29647 0.0
O365 O 0.54258 0.54276 0.16082 0.0
O366 O 0.556 0.50319 0.15011 0.0
H367 H 0.61865 0.49828 0.23139 0.0
H368 H 0.64155 0.51561 0.27885 0.0
C369 C 0.61664 0.50442 0.26382 0.0
H370 H 0.60008 0.48072 0.28013 0.0
H371 H 0.57615 0.44645 0.16123 0.0
O372 O 0.52708 0.58281 0.22479 0.0
C373 C 0.55201 0.52714 0.13681 0.0
Co374 Co 0.51348 0.99374 0.2123 0.0
Co375 Co 0.57497 0.06379 0.21203 0.0
C376 C 0.5829 1.00095 0.21389 0.0
O377 O 0.55103 0.98272 0.21595 0.0
O378 O 0.59617 0.03298 0.21403 0.0
C379 C 0.46931 0.92896 0.18877 0.0
O380 O 0.49359 0.93698 0.16206 0.0
C381 C 0.63143 0.12035 0.25032 0.0
C382 C 0.64038 0.16333 0.21118 0.0
C383 C 0.65055 0.15487 0.24696 0.0
N384 N 0.61019 0.10871 0.21852 0.0
N385 N 0.61585 0.13438 0.19482 0.0
C386 C 0.63263 0.09873 0.2839 0.0
H387 H 0.61507 0.07176 0.27756 0.0
H388 H 0.62565 0.10537 0.31358 0.0
H389 H 0.65868 0.10332 0.28702 0.0
C390 C 0.48711 0.02711 0.27166 0.0
N391 N 0.5121 0.02622 0.25012 0.0
N392 N 0.53886 0.05634 0.25062 0.0
C393 C 0.53176 0.07719 0.27301 0.0
C394 C 0.49837 0.05968 0.28735 0.0
C395 C 0.45178 0.99827 0.27287 0.0
H396 H 0.4455 0.98411 0.24357 0.0
H397 H 0.44956 0.98097 0.29794 0.0
H398 H 0.43352 1.00701 0.27836 0.0
O399 O 0.5142 1.0085 0.1548 0.0
O400 O 0.55807 0.0602 0.15484 0.0
H401 H 0.56299 0.12738 0.25112 0.0
H402 H 0.54732 0.12521 0.30274 0.0
C403 C 0.55664 0.11348 0.28057 0.0
H404 H 0.57984 0.11562 0.29355 0.0
H405 H 0.60227 0.13228 0.16823 0.0
O406 O 0.47257 0.95019 0.21604 0.0
C407 C 0.53366 0.03578 0.13619 0.0
Co408 Co 0.54207 0.06509 0.81841 0.0
Co409 Co 0.53774 0.99731 0.81434 0.0
C410 C 0.60662 0.06373 0.81432 0.0
O411 O 0.59099 0.07999 0.81053 0.0
O412 O 0.58963 0.03159 0.81584 0.0
C413 C 0.5562 0.13222 0.7985 0.0
O414 O 0.57356 0.13167 0.76678 0.0
C415 C 0.54059 0.94939 0.76167 0.0
C416 C 0.51032 0.90083 0.79341 0.0
C417 C 0.52614 0.915 0.75658 0.0
N418 N 0.53248 0.95529 0.79896 0.0
N419 N 0.51488 0.92631 0.81825 0.0
C420 C 0.56064 0.97652 0.73118 0.0
H421 H 0.5786 1.00005 0.74717 0.0
H422 H 0.5435 0.98184 0.7128 0.0
H423 H 0.57459 0.96879 0.71017 0.0
C424 C 0.48326 0.0328 0.75851 0.0
N425 N 0.50936 0.03386 0.77965 0.0
N426 N 0.50673 1.0041 0.77849 0.0
C427 C 0.4784 0.98296 0.75681 0.0
C428 C 0.46216 1.00024 0.74294 0.0
C429 C 0.47653 0.06149 0.75757 0.0
H430 H 0.47882 0.07172 0.789 0.0
H431 H 0.49581 0.08187 0.73822 0.0
H432 H 0.45113 0.05379 0.74535 0.0
O433 O 0.53024 0.04651 0.87513 0.0
O434 O 0.52294 0.99499 0.87214 0.0
H435 H 0.46585 0.93445 0.78 0.0
H436 H 0.44132 0.9328 0.7358 0.0
C437 C 0.46643 0.94641 0.75029 0.0
H438 H 0.48404 0.94387 0.72951 0.0
H439 H 0.50448 0.92378 0.8474 0.0
O440 O 0.54042 0.10644 0.82099 0.0
C441 C 0.52302 1.01881 0.89241 0.0
Co442 Co 1.00569 0.49823 0.81799 0.0
Co443 Co 0.07608 0.55867 0.81977 0.0
C444 C 1.01355 0.56753 0.81742 0.0
O445 O 0.99487 0.5358 0.81439 0.0
O446 O 0.04553 0.58024 0.81795 0.0
C447 C 0.94073 0.45491 0.84091 0.0
O448 O 0.94886 0.47963 0.86703 0.0
C449 C 0.13181 0.61183 0.77758 0.0
C450 C 0.17327 0.63192 0.82281 0.0
C451 C 0.16533 0.63563 0.78287 0.0
N452 N 0.12052 0.59425 0.81228 0.0
N453 N 0.14532 0.60618 0.83936 0.0
C454 C 0.10988 0.60731 0.74131 0.0
H455 H 0.08293 0.59131 0.74933 0.0
H456 H 0.11583 0.59497 0.71602 0.0
H457 H 0.11466 0.63214 0.73013 0.0
C458 C 0.03823 0.4716 0.75796 0.0
N459 N 0.03787 0.49668 0.77993 0.0
N460 N 0.06848 0.52268 0.78089 0.0
C461 C 0.08924 0.51477 0.7596 0.0
C462 C 0.07094 0.48198 0.74363 0.0
C463 C 1.00821 0.43725 0.75355 0.0
H464 H 0.98525 0.43915 0.74909 0.0
H465 H 1.01126 0.42352 0.72736 0.0
H466 H 1.00502 0.42289 0.78215 0.0
O467 O 1.02047 0.49903 0.87581 0.0
O468 O 0.07274 0.54196 0.87688 0.0
H469 H 0.13887 0.52071 0.75279 0.0
H470 H 0.13489 0.55603 0.73692 0.0
C471 C 0.12681 0.53585 0.76012 0.0
H472 H 0.13555 0.54762 0.79069 0.0
H473 H 0.14308 0.59702 0.86909 0.0
O474 O 0.9621 0.45743 0.81428 0.0
C475 C 0.04773 0.51787 0.89504 0.0
Co476 Co 0.56587 0.51377 0.8069 0.0
Co477 Co 0.50821 0.52656 0.82256 0.0
C478 C 0.49645 0.45449 0.81007 0.0
O479 O 0.52677 0.46763 0.7979 0.0
O480 O 0.48507 0.47382 0.82054 0.0
C481 C 0.60452 0.48587 0.82233 0.0
O482 O 0.57777 0.46749 0.84487 0.0
C483 C 0.44853 0.52455 0.79342 0.0
C484 C 0.45042 0.56927 0.82156 0.0
C485 C 0.43329 0.544 0.79298 0.0
N486 N 0.47353 0.53757 0.8209 0.0
N487 N 0.4741 0.56381 0.83854 0.0
C488 C 0.44349 0.49764 0.76343 0.0
H489 H 0.46825 0.50127 0.75362 0.0
H490 H 0.42889 0.49736 0.73615 0.0
H491 H 0.42963 0.47287 0.77886 0.0
C492 C 0.59184 0.57587 0.7526 0.0
N493 N 0.56791 0.55044 0.77556 0.0
N494 N 0.54233 0.55538 0.78067 0.0
C495 C 0.54903 0.58388 0.75981 0.0
C496 C 0.58104 0.59858 0.74125 0.0
C497 C 0.62604 0.58025 0.74564 0.0
H498 H 0.63289 0.56888 0.77114 0.0
H499 H 0.62576 0.56728 0.71678 0.0
H500 H 0.64533 0.60725 0.74307 0.0
O501 O 0.56725 0.52309 0.86663 0.0
O502 O 0.52889 0.53783 0.87862 0.0
H503 H 0.52502 0.60936 0.78541 0.0
H504 H 0.53084 0.614 0.73041 0.0
C505 C 0.52474 0.59645 0.7565 0.0
H506 H 0.49919 0.57498 0.75149 0.0
H507 H 0.49233 0.57957 0.85961 0.0
O508 O 0.60495 0.5083 0.79904 0.0
C509 C 0.55213 0.53252 0.89135 0.0
Co510 Co 0.74089 0.86557 0.56089 0.0
Co511 Co 0.67195 0.85626 0.54437 0.0
C512 C 0.73477 0.92736 0.55488 0.0
O513 O 0.75128 0.91348 0.56709 0.0
O514 O 0.70374 0.90866 0.54537 0.0
C515 C 0.8076 0.88867 0.54821 0.0
O516 O 0.8022 0.90842 0.52415 0.0
C517 C 0.61604 0.85312 0.58468 0.0
C518 C 0.57396 0.83019 0.54047 0.0
C519 C 0.58202 0.84099 0.58074 0.0
N520 N 0.62774 0.84881 0.54903 0.0
N521 N 0.60265 0.83529 0.52237 0.0
C522 C 0.6374 0.86853 0.62198 0.0
H523 H 0.6645 0.88157 0.61393 0.0
H524 H 0.63235 0.84861 0.6447 0.0
H525 H 0.63099 0.8865 0.63651 0.0
C526 C 0.70198 0.80519 0.61778 0.0
N527 N 0.70522 0.8308 0.5935 0.0
N528 N 0.67521 0.82631 0.58553 0.0
C529 C 0.65196 0.79732 0.60417 0.0
C530 C 0.66784 0.78279 0.62593 0.0
C531 C 0.73093 0.80113 0.63093 0.0
H532 H 0.75318 0.8261 0.63739 0.0
H533 H 0.72437 0.78482 0.65843 0.0
H534 H 0.73753 0.78934 0.60556 0.0
O535 O 0.73147 0.85434 0.50106 0.0
O536 O 0.67906 0.84267 0.48929 0.0
H537 H 0.60274 0.75296 0.60081 0.0
H538 H 0.6035 0.79023 0.61875 0.0
C539 C 0.61489 0.78057 0.59656 0.0
H540 H 0.60985 0.78579 0.56499 0.0
H541 H 0.60486 0.82869 0.49236 0.0
O542 O 0.78367 0.86724 0.57031 0.0
C543 C 0.70666 0.84545 0.47669 0.0
Co544 Co 0.19998 0.88839 0.54947 0.0
Co545 Co 0.208 0.82646 0.54834 0.0
C546 C 0.13748 0.8195 0.54819 0.0
O547 O 0.15086 0.85132 0.55132 0.0
O548 O 0.15637 0.80639 0.5485 0.0
C549 C 0.18242 0.93414 0.52321 0.0
O550 O 0.16602 0.90954 0.49687 0.0
C551 C 0.20823 0.77271 0.59239 0.0
C552 C 0.2339 0.75467 0.55076 0.0
C553 C 0.22004 0.75033 0.58958 0.0
N554 N 0.2156 0.79019 0.55744 0.0
N555 N 0.23081 0.77931 0.53245 0.0
C556 C 0.18912 0.77689 0.62699 0.0
H557 H 0.17499 0.78916 0.61614 0.0
H558 H 0.20693 0.7931 0.65108 0.0
H559 H 0.17152 0.75215 0.64086 0.0
C560 C 0.25797 0.91287 0.61167 0.0
N561 N 0.23262 0.88875 0.58844 0.0
N562 N 0.23613 0.86206 0.58734 0.0
C563 C 0.26386 0.86851 0.60962 0.0
C564 C 0.27888 0.90094 0.62643 0.0
C565 C 0.26331 0.94748 0.61752 0.0
H566 H 0.23871 0.94639 0.62074 0.0
H567 H 0.27923 0.95979 0.64484 0.0
H568 H 0.27606 0.96274 0.58999 0.0
O569 O 0.21522 0.88712 0.49261 0.0
O570 O 0.2229 0.84313 0.49172 0.0
H571 H 0.30616 0.86055 0.6183 0.0
H572 H 0.26587 0.82594 0.63258 0.0
C573 C 0.27912 0.84631 0.60987 0.0
H574 H 0.27675 0.83499 0.57916 0.0
H575 H 0.23949 0.78899 0.5032 0.0
O576 O 0.19918 0.93047 0.55176 0.0
C577 C 0.22333 0.86794 0.47367 0.0
Co578 Co 0.17411 0.32706 0.54148 0.0
Co579 Co 0.23976 0.39329 0.54413 0.0
C580 C 0.23789 0.32459 0.54476 0.0
O581 O 0.20612 0.30939 0.55016 0.0
O582 O 0.25394 0.35666 0.54213 0.0
C583 C 0.11811 0.26043 0.55659 0.0
O584 O 0.13509 0.25769 0.5873 0.0
C585 C 0.29313 0.43711 0.5972 0.0
C586 C 0.31144 0.48767 0.57109 0.0
C587 C 0.31337 0.47108 0.60561 0.0
N588 N 0.27861 0.4338 0.56054 0.0
N589 N 0.29027 0.46401 0.54442 0.0
C590 C 0.2854 0.40795 0.6246 0.0
H591 H 0.28331 0.3867 0.60627 0.0
H592 H 0.26083 0.39937 0.63989 0.0
H593 H 0.30526 0.41479 0.64811 0.0
C594 C 0.15029 0.36342 0.59966 0.0
N595 N 0.17437 0.35992 0.57934 0.0
N596 N 0.2028 0.38859 0.58043 0.0
C597 C 0.19758 0.41119 0.60177 0.0
C598 C 0.16393 0.39642 0.61497 0.0
C599 C 0.11392 0.33697 0.59934 0.0
H600 H 0.10523 0.33039 0.56713 0.0
H601 H 0.11093 0.3139 0.61418 0.0
H602 H 0.09812 0.34541 0.6154 0.0
O603 O 0.1829 0.34509 0.48467 0.0
O604 O 0.22797 0.39608 0.48567 0.0
H605 H 0.23391 0.45944 0.57846 0.0
H606 H 0.21502 0.46135 0.62641 0.0
C607 C 0.22418 0.44705 0.60846 0.0
H608 H 0.24501 0.44769 0.62611 0.0
H609 H 0.28195 0.46862 0.51669 0.0
O610 O 0.12959 0.28776 0.5369 0.0
C611 C 0.20392 0.37183 0.46614 0.0
H612 H 0.20726 0.20503 0.90156 0.0
H613 H 0.21358 0.12414 0.95921 0.0
H614 H 0.19761 0.13751 0.02517 0.0
H615 H 0.19291 0.17949 0.06807 0.0
H616 H 0.18221 0.25749 1.00874 0.0
H617 H 0.18856 0.23798 0.94188 0.0
C618 C 0.20357 0.18945 0.92823 0.0
C619 C 0.21178 0.16399 0.92602 0.0
C620 C 0.19476 0.19752 0.96596 0.0
C621 C 0.20733 0.14395 0.96054 0.0
C622 C 0.19859 0.15184 0.9983 0.0
C623 C 0.1914 0.19179 0.04044 0.0
C624 C 0.18974 0.22142 0.04345 0.0
C625 C 0.19407 0.17977 1.00176 0.0
C626 C 0.18627 0.23627 1.00745 0.0
C627 C 0.18925 0.22475 0.96904 0.0
H628 H 0.86838 0.98809 0.07736 0.0
H629 H 0.78632 1.00488 0.10708 0.0
H630 H 0.79713 0.03871 0.0457 0.0
H631 H 0.82453 0.05635 0.98036 0.0
H632 H 0.91482 0.05268 0.95529 0.0
H633 H 0.90445 1.01771 0.01658 0.0
C634 C 0.8538 1.00023 0.07095 0.0
C635 C 0.82609 0.99352 0.09572 0.0
C636 C 0.86066 1.02043 0.03589 0.0
C637 C 0.80729 1.00929 0.08764 0.0
C638 C 0.81324 0.02833 0.0525 0.0
C639 C 0.84339 0.0501 0.98921 0.0
C640 C 0.87135 0.05878 0.96425 0.0
C641 C 0.8391 0.03306 0.02588 0.0
C642 C 0.89322 0.04672 0.97435 0.0
C643 C 0.88757 0.02713 1.00961 0.0
H644 H 0.06642 0.8928 0.06109 0.0
H645 H 0.05189 0.79681 0.10055 0.0
H646 H 1.01758 0.76967 0.04042 0.0
H647 H 0.99887 0.77499 0.97355 0.0
H648 H 0.99994 0.86606 0.93903 0.0
H649 H 1.03559 0.8948 0.99872 0.0
C650 C 0.05463 0.8658 0.05705 0.0
C651 C 0.06204 0.84674 0.08428 0.0
C652 C 1.03413 0.8501 0.02273 0.0
C653 C 0.04681 0.81183 0.07926 0.0
C654 C 1.02754 0.79641 0.04482 0.0
C655 C 1.00466 0.80037 0.98 0.0
C656 C 0.99505 0.81762 0.95286 0.0
C657 C 1.02202 0.81553 0.01586 0.0
C658 C 1.00661 0.85194 0.95982 0.0
C659 C 1.02658 0.86826 0.99418 0.0
H660 H 0.81288 0.77321 0.94357 0.0
H661 H 0.78296 0.68859 0.02403 0.0
H662 H 0.75304 0.70845 0.06759 0.0
H663 H 0.73609 0.7512 0.08507 0.0
H664 H 0.77087 0.83846 1.00817 0.0
H665 H 0.79837 0.81704 0.96259 0.0
C666 C 0.80061 0.75938 0.97113 0.0
C667 C 0.80099 0.72923 0.9801 0.0
C668 C 0.78402 0.77168 0.99724 0.0
C669 C 0.7833 0.71152 0.01547 0.0
C670 C 0.76618 0.72309 0.04083 0.0
C671 C 0.74955 0.76549 0.05824 0.0
C672 C 0.75098 0.79663 0.05032 0.0
C673 C 0.76636 0.75326 0.03229 0.0
C674 C 0.76908 0.81461 0.01539 0.0
C675 C 0.78494 0.80227 0.98915 0.0
H676 H 0.34542 0.08908 0.02051 0.0
H677 H 0.27154 0.05628 0.9238 0.0
H678 H 0.24085 1.00059 0.95436 0.0
H679 H 0.23331 0.96 1.00956 0.0
H680 H 0.30875 0.99041 0.10374 0.0
H681 H 0.33999 0.04671 0.07338 0.0
C682 C 0.32277 0.06975 1.00583 0.0
C683 C 0.31066 0.07809 0.97004 0.0
C684 C 0.30517 0.03665 0.02335 0.0
C685 C 0.28124 0.05185 0.95191 0.0
C686 C 0.2636 1.0195 0.96931 0.0
C687 C 0.25667 0.97886 0.02344 0.0
C688 C 0.26833 0.97035 0.0593 0.0
C689 C 0.27498 1.0115 1.0053 0.0
C690 C 0.29895 0.99558 0.0762 0.0
C691 C 0.31689 0.0281 0.0588 0.0
H692 H 1.01173 0.24126 0.94099 0.0
H693 H 0.96027 0.27536 0.02123 0.0
H694 H 1.01119 0.30556 0.06318 0.0
H695 H 0.0708 0.32094 0.07956 0.0
H696 H 0.12003 0.28284 1.00165 0.0
H697 H 0.07017 0.25546 0.95778 0.0
C698 C 1.01122 0.25469 0.96808 0.0
C699 C 0.98125 0.25518 0.97777 0.0
C700 C 0.04072 0.27154 0.99301 0.0
C701 C 0.98242 0.27421 1.01241 0.0
C702 C 1.01175 0.29149 0.03676 0.0
C703 C 0.07075 0.30691 0.05279 0.0
C704 C 0.09979 0.30436 0.04418 0.0
C705 C 0.04117 0.29026 0.02769 0.0
C706 C 0.09851 0.28548 1.00941 0.0
C707 C 0.06977 0.26967 0.98413 0.0
H708 H 0.87031 0.52926 0.27329 0.0
H709 H 0.92749 0.49696 0.34574 0.0
H710 H 0.90604 0.50792 0.40874 0.0
H711 H 0.87961 0.53669 0.44258 0.0
H712 H 0.82446 0.57131 0.37012 0.0
H713 H 0.8356 0.54878 0.308 0.0
C714 C 0.87731 0.52389 0.30293 0.0
C715 C 0.90126 0.51359 0.30518 0.0
C716 C 0.86541 0.53094 0.33903 0.0
C717 C 0.90996 0.50614 0.34349 0.0
C718 C 0.8976 0.51224 0.37952 0.0
C719 C 0.86917 0.53822 0.41333 0.0
C720 C 0.85202 0.55614 0.4104 0.0
C721 C 0.87664 0.5262 0.37764 0.0
C722 C 0.83842 0.55813 0.37263 0.0
C723 C 0.84483 0.54535 0.33715 0.0
H724 H 0.57321 0.422 0.32685 0.0
H725 H 0.53032 0.34017 0.24012 0.0
H726 H 0.51363 0.29959 0.29643 0.0
H727 H 0.50355 0.2879 0.37022 0.0
H728 H 0.54221 0.3699 0.45676 0.0
H729 H 0.56889 0.4102 0.40077 0.0
C730 C 0.56038 0.39526 0.3204 0.0
C731 C 0.55197 0.38381 0.2798 0.0
C732 C 0.54996 0.37232 0.35287 0.0
C733 C 0.53668 0.34933 0.27134 0.0
C734 C 0.52695 0.32623 0.30349 0.0
C735 C 0.5179 0.31461 0.37672 0.0
C736 C 0.52005 0.3262 0.41715 0.0
C737 C 0.53214 0.33747 0.34436 0.0
C738 C 0.53997 0.3606 0.42569 0.0
C739 C 0.55499 0.38358 0.39371 0.0
H740 H 0.77007 0.22882 0.36762 0.0
H741 H 0.68832 0.18811 0.45429 0.0
H742 H 0.6478 0.17315 0.39809 0.0
H743 H 0.63584 0.16225 0.32448 0.0
H744 H 0.71744 0.19802 0.23798 0.0
H745 H 0.75823 0.2249 0.29377 0.0
C746 C 0.74337 0.21694 0.37406 0.0
C747 C 0.73182 0.20841 0.41453 0.0
C748 C 0.72044 0.20738 0.34166 0.0
C749 C 0.69749 0.19442 0.42311 0.0
C750 C 0.67442 0.18569 0.39105 0.0
C751 C 0.66258 0.17646 0.318 0.0
C752 C 0.67404 0.17774 0.27781 0.0
C753 C 0.68559 0.19056 0.35023 0.0
C754 C 0.70842 0.19674 0.269 0.0
C755 C 0.7316 0.2118 0.30084 0.0
H756 H 0.49674 0.11975 0.27962 0.0
H757 H 0.45444 0.02911 0.35164 0.0
H758 H 0.42277 0.04881 0.39228 0.0
H759 H 0.4079 0.09316 0.4099 0.0
H760 H 0.45414 0.18548 0.34115 0.0
H761 H 0.48343 0.16439 0.29829 0.0
C762 C 0.48115 0.1044 0.30466 0.0
C763 C 0.4787 0.07272 0.3122 0.0
C764 C 0.46339 0.11644 0.32903 0.0
C765 C 0.45707 0.0533 0.34429 0.0
C766 C 0.43892 0.06475 0.36796 0.0
C767 C 0.42414 0.10857 0.3853 0.0
C768 C 0.42824 0.14106 0.37887 0.0
C769 C 0.44187 0.0964 0.3609 0.0
C770 C 0.45009 0.16052 0.34706 0.0
C771 C 0.46702 0.14839 0.32239 0.0
H772 H 0.94632 0.38579 0.27612 0.0
H773 H 1.0305 0.43794 0.35819 0.0
H774 H 1.00942 0.38726 0.40042 0.0
H775 H 0.96538 0.32761 0.41645 0.0
H776 H 0.87928 0.27755 0.33679 0.0
H777 H 0.90201 0.32726 0.29277 0.0
C778 C 0.95983 0.38655 0.30371 0.0
C779 C 0.99004 0.41667 0.31381 0.0
C780 C 0.94697 0.35712 0.3288 0.0
C781 C 1.00738 0.41571 0.34908 0.0
C782 C 0.99515 0.3865 0.37357 0.0
C783 C 0.95172 0.32741 0.38924 0.0
C784 C 0.92048 0.2981 0.3801 0.0
C785 C 0.96479 0.35692 0.36406 0.0
C786 C 0.90325 0.29919 0.34486 0.0
C787 C 0.91632 0.32787 0.31951 0.0
H788 H 0.77255 0.62938 0.33439 0.0
H789 H 0.73805 0.66099 0.43891 0.0
H790 H 0.6806 0.63247 0.41096 0.0
H791 H 0.6388 0.59638 0.35701 0.0
H792 H 0.67529 0.56993 0.24958 0.0
H793 H 0.73214 0.59805 0.27793 0.0
C794 C 0.75251 0.63025 0.35095 0.0
C795 C 0.76002 0.64749 0.38903 0.0
C796 C 0.71932 0.61423 0.33406 0.0
C797 C 0.7334 0.64819 0.40967 0.0
C798 C 0.70033 0.63171 0.3936 0.0
C799 C 0.65919 0.59698 0.33957 0.0
C800 C 0.65183 0.57967 0.30136 0.0
C801 C 0.69273 0.61437 0.35582 0.0
C802 C 0.67929 0.5816 0.2795 0.0
C803 C 0.71217 0.59805 0.29568 0.0
H804 H 0.54705 0.8736 0.58151 0.0
H805 H 0.5692 0.80846 0.65337 0.0
H806 H 0.54849 0.8222 0.71519 0.0
H807 H 0.53461 0.86114 0.75024 0.0
H808 H 0.51388 0.92747 0.67849 0.0
H809 H 0.52315 0.90489 0.61528 0.0
C810 C 0.54607 0.86155 0.61048 0.0
C811 C 0.55988 0.84053 0.6134 0.0
C812 C 0.53526 0.87053 0.64606 0.0
C813 C 0.55888 0.82504 0.65086 0.0
C814 C 0.54728 0.83306 0.68619 0.0
C815 C 0.53149 0.87008 0.72069 0.0
C816 C 0.52526 0.89694 0.71885 0.0
C817 C 0.53712 0.85714 0.68448 0.0
C818 C 0.52042 0.90792 0.68057 0.0
C819 C 0.52537 0.8948 0.64439 0.0
H820 H 0.1753 0.62623 0.70372 0.0
H821 H 0.20318 0.70284 0.79618 0.0
H822 H 0.22796 0.74659 0.74353 0.0
H823 H 0.23356 0.76188 0.67065 0.0
H824 H 0.20152 0.68479 0.578 0.0
H825 H 0.18699 0.64213 0.6312 0.0
C826 C 0.1871 0.65256 0.7122 0.0
C827 C 0.18676 0.66156 0.75325 0.0
C828 C 0.20019 0.67725 0.68177 0.0
C829 C 0.20308 0.69557 0.76452 0.0
C830 C 0.21694 0.72046 0.73446 0.0
C831 C 0.22335 0.73572 0.66222 0.0
C832 C 0.21731 0.72606 0.62082 0.0
C833 C 0.21426 0.71144 0.69289 0.0
C834 C 0.20582 0.69252 0.60988 0.0
C835 C 0.19738 0.6682 0.64022 0.0
H836 H 0.36663 0.50368 0.78596 0.0
H837 H 0.45318 0.58245 0.72472 0.0
H838 H 0.42212 0.56868 0.65989 0.0
H839 H 0.3733 0.52769 0.61904 0.0
H840 H 0.28583 0.45109 0.68182 0.0
H841 H 0.314 0.47051 0.74759 0.0
C842 C 0.37807 0.51861 0.7587 0.0
C843 C 0.41185 0.54387 0.75965 0.0
C844 C 0.36025 0.51024 0.72165 0.0
C845 C 0.42696 0.56299 0.72437 0.0
C846 C 0.40935 0.55487 0.68729 0.0
C847 C 0.36035 0.51563 0.64722 0.0
C848 C 0.3285 0.48662 0.64546 0.0
C849 C 0.37648 0.52749 0.68522 0.0
C850 C 0.31134 0.472 0.68216 0.0
C851 C 0.3272 0.48341 0.71991 0.0
H852 H 0.11088 0.49605 0.6739 0.0
H853 H 0.06222 0.42037 0.76682 0.0
H854 H 0.08503 0.38714 0.73615 0.0
H855 H 0.12076 0.37968 0.68324 0.0
H856 H 0.16602 0.45394 0.58793 0.0
H857 H 0.14307 0.48676 0.61864 0.0
C858 C 0.10512 0.47222 0.68745 0.0
C859 C 0.08451 0.46107 0.72303 0.0
C860 C 0.11811 0.45269 0.66903 0.0
C861 C 0.07753 0.42983 0.7395 0.0
C862 C 0.09081 0.41072 0.7219 0.0
C863 C 0.12541 0.40288 0.66889 0.0
C864 C 0.14618 0.41434 0.63335 0.0
C865 C 0.11133 0.4218 0.68663 0.0
C866 C 0.15119 0.44454 0.61563 0.0
C867 C 0.13782 0.46345 0.63322 0.0
H868 H 0.67037 0.72307 0.61921 0.0
H869 H 0.62619 0.76962 0.69141 0.0
H870 H 0.59686 0.71891 0.73354 0.0
H871 H 0.58324 0.6606 0.75079 0.0
H872 H 0.62236 0.6116 0.67392 0.0
H873 H 0.65407 0.66319 0.63431 0.0
C874 C 0.65451 0.72224 0.64434 0.0
C875 C 0.6511 0.75088 0.65209 0.0
C876 C 0.63659 0.6921 0.66812 0.0
C877 C 0.62973 0.7485 0.68455 0.0
C878 C 0.61278 0.71925 0.70878 0.0
C879 C 0.59813 0.66072 0.72497 0.0
C880 C 0.59997 0.63127 0.71618 0.0
C881 C 0.61576 0.69067 0.70091 0.0
C882 C 0.6205 0.63334 0.68273 0.0
C883 C 0.63864 0.66309 0.65952 0.0
H884 H 0.33921 0.96247 0.61729 0.0
H885 H 0.28993 0.87673 0.69726 0.0
H886 H 0.34016 0.89946 0.74051 0.0
H887 H 0.3991 0.9433 0.75598 0.0
H888 H 0.45035 0.02746 0.67414 0.0
H889 H 0.39908 1.00655 0.63273 0.0
C890 C 0.33932 0.94891 0.64441 0.0
C891 C 0.31015 0.91768 0.65377 0.0
C892 C 0.3691 0.96199 0.66917 0.0
C893 C 0.31153 0.90063 0.68897 0.0
C894 C 0.34049 0.91369 0.71387 0.0
C895 C 0.39942 0.9569 0.7287 0.0
C896 C 0.42945 0.98697 0.71828 0.0
C897 C 0.36967 0.94419 0.70422 0.0
C898 C 0.42814 1.00441 0.68338 0.0
C899 C 0.39862 0.99228 0.65939 0.0
H900 H 0.17209 0.31846 0.41467 0.0
H901 H 0.23188 0.42677 0.4151 0.0
H902 H 0.23111 0.42697 0.33993 0.0
H903 H 0.21586 0.39618 0.27433 0.0
H904 H 0.15989 0.28768 0.27438 0.0
H905 H 0.15664 0.28777 0.34933 0.0
C906 C 0.18466 0.34222 0.39843 0.0
C907 C 0.20186 0.37264 0.42064 0.0
C908 C 0.18492 0.34204 0.3553 0.0
C909 C 0.21844 0.40305 0.39889 0.0
C910 C 0.21802 0.40314 0.35589 0.0
C911 C 0.2026 0.3725 0.29065 0.0
C912 C 0.18794 0.3419 0.26863 0.0
C913 C 0.20167 0.37276 0.3338 0.0
C914 C 0.17135 0.31153 0.29046 0.0
C915 C 0.16952 0.3116 0.33332 0.0
H916 H 0.6584 0.81262 0.41832 0.0
H917 H 0.76596 0.87097 0.43505 0.0
H918 H 0.77427 0.87208 0.36104 0.0
H919 H 0.75077 0.86058 0.29096 0.0
H920 H 0.64323 0.80009 0.27473 0.0
H921 H 0.63535 0.7955 0.34872 0.0
C922 C 0.68366 0.82524 0.40579 0.0
C923 C 0.71143 0.84197 0.43226 0.0
C924 C 0.68835 0.82559 0.36309 0.0
C925 C 0.74405 0.85787 0.41549 0.0
C926 C 0.74887 0.85868 0.37306 0.0
C927 C 0.72566 0.84604 0.3036 0.0
C928 C 0.69769 0.83109 0.27711 0.0
C929 C 0.72118 0.84324 0.34647 0.0
C930 C 0.66532 0.81201 0.29418 0.0
C931 C 0.66069 0.80945 0.33663 0.0
H932 H 0.24451 0.85857 0.28416 0.0
H933 H 0.19137 0.91394 0.27935 0.0
H934 H 0.19339 0.91845 0.35417 0.0
H935 H 0.20564 0.90224 0.4209 0.0
H936 H 0.25471 0.84295 0.42564 0.0
H937 H 0.25914 0.84467 0.35086 0.0
C938 C 0.23382 0.8721 0.29939 0.0
C939 C 0.21776 0.88587 0.27612 0.0
C940 C 0.23413 0.87366 0.34245 0.0
C941 C 0.20376 0.903 0.29648 0.0
C942 C 0.20486 0.90554 0.33928 0.0
C943 C 0.21781 0.89014 0.40566 0.0
C944 C 0.2298 0.87245 0.42891 0.0
C945 C 0.2193 0.89031 0.3626 0.0
C946 C 0.24517 0.85663 0.40854 0.0
C947 C 0.24766 0.85755 0.36575 0.0
H948 H 0.32298 0.15016 0.74018 0.0
H949 H 0.4297 0.2028 0.76455 0.0
H950 H 0.44142 0.20763 0.69122 0.0
H951 H 0.42151 0.20082 0.61952 0.0
H952 H 0.3147 0.14561 0.59554 0.0
H953 H 0.30318 0.1378 0.6687 0.0
C954 C 0.34878 0.16231 0.72947 0.0
C955 C 0.3753 0.17629 0.75805 0.0
C956 C 0.35549 0.16481 0.68702 0.0
C957 C 0.40864 0.19171 0.74344 0.0
C958 C 0.41546 0.19469 0.70136 0.0
C959 C 0.39575 0.18677 0.63029 0.0
C960 C 0.36912 0.17416 0.60179 0.0
C961 C 0.38911 0.18194 0.67277 0.0
C962 C 0.33585 0.1557 0.6165 0.0
C963 C 0.32912 0.15128 0.65852 0.0
H964 H 0.90613 0.19021 0.61068 0.0
H965 H 0.84966 0.24231 0.61064 0.0
H966 H 0.85336 0.24641 0.68546 0.0
H967 H 0.86842 0.23103 0.75079 0.0
H968 H 0.9209 0.17492 0.75106 0.0
H969 H 0.92323 0.17683 0.67609 0.0
C970 C 0.89506 0.20294 0.62695 0.0
C971 C 0.87763 0.21596 0.60504 0.0
C972 C 0.89638 0.20427 0.67 0.0
C973 C 0.86313 0.23201 0.62672 0.0
C974 C 0.8652 0.23431 0.6695 0.0
C975 C 0.88084 0.21962 0.73455 0.0
C976 C 0.89447 0.20282 0.75658 0.0
C977 C 0.88115 0.21991 0.69148 0.0
C978 C 0.91013 0.18791 0.7349 0.0
C979 C 0.91142 0.18895 0.69203 0.0
H980 H 0.82864 0.64747 0.61368 0.0
H981 H 0.87954 0.75543 0.60133 0.0
H982 H 0.88097 0.76168 0.6757 0.0
H983 H 0.87179 0.73669 0.74467 0.0
H984 H 0.81874 0.62862 0.75675 0.0
H985 H 0.81398 0.62239 0.68249 0.0
C986 C 0.8397 0.67235 0.62724 0.0
C987 C 0.85424 0.70088 0.60186 0.0
C988 C 0.84028 0.67584 0.67017 0.0
C989 C 0.86815 0.73295 0.62002 0.0
C990 C 0.86915 0.73661 0.66265 0.0
C991 C 0.85889 0.71179 0.73105 0.0
C992 C 0.84601 0.68325 0.75638 0.0
C993 C 0.85592 0.70826 0.68809 0.0
C994 C 0.829 0.65113 0.73815 0.0
C995 C 0.82634 0.64746 0.69556 0.0
H996 H 0.07811 0.52681 0.08491 0.0
H997 H 0.97 0.48051 0.09029 0.0
H998 H 0.9669 0.47579 0.01547 0.0
H999 H 0.99519 0.4887 0.94836 0.0
H1000 H 0.10356 0.53903 0.94313 0.0
H1001 H 0.10622 0.53798 0.01799 0.0
C1002 C 0.05379 0.51526 0.06981 0.0
C1003 C 1.0243 0.50401 0.09331 0.0
C1004 C 0.05227 0.51351 0.02671 0.0
C1005 C 0.99309 0.48946 0.07305 0.0
C1006 C 0.99131 0.48678 0.03022 0.0
C1007 C 1.01938 0.49898 0.96355 0.0
C1008 C 0.04916 0.51387 0.94009 0.0
C1009 C 1.02077 0.49927 1.0067 0.0
C1010 C 0.08029 0.52748 0.96039 0.0
C1011 C 0.08182 0.52694 1.00322 0.0
H1012 H 0.53467 0.56101 0.95364 0.0
H1013 H 0.58534 0.50489 0.92979 0.0
H1014 H 0.59127 0.4993 1.00314 0.0
H1015 H 0.5785 0.50677 0.07471 0.0
H1016 H 0.53022 0.56529 0.09814 0.0
H1017 H 0.52731 0.57355 0.02503 0.0
C1018 C 0.54734 0.54788 0.96448 0.0
C1019 C 0.55921 0.5332 0.93602 0.0
C1020 C 0.551 0.54493 1.00695 0.0
C1021 C 0.57587 0.51652 0.95079 0.0
C1022 C 0.57919 0.51313 0.99289 0.0
C1023 C 0.56769 0.52162 0.06384 0.0
C1024 C 0.55435 0.53502 0.09219 0.0
C1025 C 0.5663 0.52669 0.02135 0.0
C1026 C 0.54068 0.55449 0.07732 0.0
C1027 C 0.53885 0.55921 0.03531 0.0
H1028 H 0.54162 0.06942 0.94765 0.0
H1029 H 0.49343 0.96136 0.93875 0.0
H1030 H 0.48957 0.95703 1.01359 0.0
H1031 H 0.50354 0.9842 0.08155 0.0
H1032 H 0.55577 0.09247 0.08992 0.0
H1033 H 0.55415 0.09643 0.01528 0.0
C1034 C 0.52984 0.04485 0.96198 0.0
C1035 C 0.51776 1.01573 0.93752 0.0
C1036 C 0.52861 0.04262 1.005 0.0
C1037 C 0.50298 0.98417 0.95678 0.0
C1038 C 0.5008 0.98169 0.99959 0.0
C1039 C 0.51414 1.00866 0.06708 0.0
C1040 C 0.5297 0.03803 0.09134 0.0
C1041 C 0.51405 1.01078 0.02403 0.0
C1042 C 0.54372 0.06951 0.07201 0.0
C1043 C 0.54283 0.07178 0.02932 0.0
H1044 H 0.31847 0.36187 0.17065 0.0
H1045 H 0.31539 0.45186 0.14059 0.0
H1046 H 0.37363 0.48631 0.16171 0.0
H1047 H 0.42618 0.49227 0.18973 0.0
H1048 H 0.43228 0.4036 0.2161 0.0
H1049 H 0.37306 0.36804 0.19608 0.0
C1050 C 0.33058 0.38898 0.16819 0.0
C1051 C 0.3117 0.40376 0.15364 0.0
C1052 C 0.36499 0.4093 0.18044 0.0
C1053 C 0.32852 0.4392 0.15126 0.0
C1054 C 0.36214 0.45922 0.16366 0.0
C1055 C 0.41457 0.46516 0.19163 0.0
C1056 C 0.43403 0.45094 0.20537 0.0
C1057 C 0.38063 0.44472 0.1787 0.0
C1058 C 0.41825 0.41556 0.20628 0.0
C1059 C 0.38422 0.3951 0.19455 0.0
H1060 H 0.56256 0.93729 0.18462 0.0
H1061 H 0.65167 0.02735 0.22407 0.0
H1062 H 0.68588 1.0013 0.20818 0.0
H1063 H 0.69079 0.95208 0.18283 0.0
H1064 H 0.60086 0.86368 0.14064 0.0
H1065 H 0.56757 0.88987 0.15726 0.0
C1066 C 0.58944 0.95129 0.1902 0.0
C1067 C 0.6041 0.98439 0.20634 0.0
C1068 C 0.60924 0.93636 0.17993 0.0
C1069 C 0.63927 1.0019 0.21219 0.0
C1070 C 0.65899 0.98694 0.20288 0.0
C1071 C 0.66398 0.93861 0.17682 0.0
C1072 C 0.64883 0.90552 0.16012 0.0
C1073 C 0.64437 0.9541 0.18654 0.0
C1074 C 0.61379 0.88894 0.1531 0.0
C1075 C 0.59443 0.90394 0.16287 0.0
H1076 H 0.04973 0.63979 0.1903 0.0
H1077 H 0.13758 0.63479 0.2267 0.0
H1078 H 0.17344 0.69367 0.20932 0.0
H1079 H 0.18138 0.74755 0.1828 0.0
H1080 H 0.09458 0.75489 0.14878 0.0
H1081 H 0.05778 0.69532 0.16564 0.0
C1082 C 0.07666 0.65159 0.19497 0.0
C1083 C 0.09037 0.63191 0.21023 0.0
C1084 C 0.09786 0.68639 0.18469 0.0
C1085 C 0.12565 0.64844 0.21535 0.0
C1086 C 0.14652 0.68248 0.20514 0.0
C1087 C 0.15444 0.73619 0.17861 0.0
C1088 C 0.14122 0.75629 0.16374 0.0
C1089 C 0.13311 0.70178 0.18941 0.0
C1090 C 0.10593 0.74057 0.15967 0.0
C1091 C 0.08469 0.70625 0.16955 0.0
H1092 H 0.44873 0.30019 0.84582 0.0
H1093 H 0.35995 0.29878 0.89119 0.0
H1094 H 0.38425 0.35851 0.87316 0.0
H1095 H 0.432 0.41247 0.84449 0.0
H1096 H 0.51781 0.40992 0.79419 0.0
H1097 H 0.49342 0.35143 0.81346 0.0
C1098 C 0.43469 0.31292 0.85225 0.0
C1099 C 0.40264 0.29468 0.8709 0.0
C1100 C 0.44834 0.34706 0.84028 0.0
C1101 C 0.38475 0.31187 0.87752 0.0
C1102 C 0.3987 0.3462 0.86695 0.0
C1103 C 0.44519 0.39907 0.83717 0.0
C1104 C 0.47719 0.41661 0.81764 0.0
C1105 C 0.43059 0.36429 0.84813 0.0
C1106 C 0.49341 0.39801 0.80894 0.0
C1107 C 0.47948 0.36418 0.82023 0.0
H1108 H 0.65107 0.04165 0.83984 0.0
H1109 H 0.64866 0.1315 0.80721 0.0
H1110 H 0.70761 0.16585 0.82586 0.0
H1111 H 0.76067 0.17177 0.85255 0.0
H1112 H 0.76535 0.08292 0.8829 0.0
H1113 H 0.70575 0.04767 0.86465 0.0
C1114 C 0.66346 0.0687 0.83626 0.0
C1115 C 0.64455 0.08347 0.82173 0.0
C1116 C 0.69821 0.08895 0.84733 0.0
C1117 C 0.66176 0.11885 0.818 0.0
C1118 C 0.69581 0.1388 0.82894 0.0
C1119 C 0.74871 0.1447 0.85567 0.0
C1120 C 0.76802 0.13042 0.86993 0.0
C1121 C 0.71433 0.12432 0.84406 0.0
C1122 C 0.75159 0.09503 0.87257 0.0
C1123 C 0.71729 0.07471 0.86187 0.0
H1124 H 0.96595 0.67629 0.85002 0.0
H1125 H 0.87875 0.58708 0.89566 0.0
H1126 H 0.90442 0.55357 0.87816 0.0
H1127 H 0.95086 0.548 0.84891 0.0
H1128 H 0.04015 0.63628 0.80655 0.0
H1129 H 1.01465 0.67089 0.82326 0.0
C1130 C 0.95267 0.64961 0.85665 0.0
C1131 C 0.92001 0.63474 0.87451 0.0
C1132 C 0.96791 0.62982 0.84649 0.0
C1133 C 0.90367 0.59984 0.88228 0.0
C1134 C 0.91836 0.58032 0.872 0.0
C1135 C 0.96481 0.57478 0.84287 0.0
C1136 C 0.99747 0.58907 0.82561 0.0
C1137 C 0.95028 0.59481 0.85373 0.0
C1138 C 1.01499 0.62415 0.81927 0.0
C1139 C 1.00035 0.6441 0.82905 0.0
H1140 H 0.6568 0.50032 0.77233 0.0
H1141 H 0.62381 0.478 0.89801 0.0
H1142 H 0.68183 0.50155 0.92097 0.0
H1143 H 0.74151 0.54045 0.90606 0.0
H1144 H 0.77457 0.56185 0.78035 0.0
H1145 H 0.71699 0.52605 0.75643 0.0
C1146 C 0.66238 0.49953 0.80452 0.0
C1147 C 0.63655 0.48842 0.83356 0.0
C1148 C 0.69574 0.51341 0.81752 0.0
C1149 C 0.64356 0.48679 0.87517 0.0
C1150 C 0.67672 0.50054 0.88838 0.0
C1151 C 0.7361 0.53624 0.87349 0.0
C1152 C 0.76166 0.55415 0.84495 0.0
C1153 C 0.70301 0.51579 0.86001 0.0
C1154 C 0.75495 0.54835 0.8028 0.0
C1155 C 0.72205 0.52812 0.7891 0.0
H1156 H 0.50462 0.23325 0.8099 0.0
H1157 H 0.49479 0.20233 0.93647 0.0
H1158 H 0.5296 0.17692 0.92346 0.0
H1159 H 0.55049 0.15249 0.8733 0.0
H1160 H 0.55504 0.17772 0.74529 0.0
H1161 H 0.53511 0.21701 0.76154 0.0
C1162 C 0.51115 0.22203 0.83493 0.0
C1163 C 0.49677 0.21898 0.8739 0.0
C1164 C 0.52953 0.20587 0.82665 0.0
C1165 C 0.50534 0.20449 0.90614 0.0
C1166 C 0.525 0.18979 0.89864 0.0
C1167 C 0.5478 0.1672 0.8491 0.0
C1168 C 0.55318 0.16178 0.80814 0.0
C1169 C 0.53527 0.1885 0.85853 0.0
C1170 C 0.5506 0.18139 0.77701 0.0
C1171 C 0.53903 0.20362 0.7863 0.0
H1172 H 0.90447 0.40711 0.78493 0.0
H1173 H 0.91211 0.4288 0.91452 0.0
H1174 H 0.87645 0.36912 0.92959 0.0
H1175 H 0.85493 0.31102 0.90628 0.0
H1176 H 0.84733 0.28929 0.77673 0.0
H1177 H 0.87046 0.34879 0.76105 0.0
C1178 C 0.89734 0.39874 0.81632 0.0
C1179 C 0.91141 0.42183 0.84864 0.0
C1180 C 0.8773 0.36446 0.82473 0.0
C1181 C 0.9017 0.4112 0.8892 0.0
C1182 C 0.88157 0.3771 0.89786 0.0
C1183 C 0.85739 0.31933 0.87468 0.0
C1184 C 0.85042 0.29636 0.84269 0.0
C1185 C 0.87101 0.35348 0.86598 0.0
C1186 C 0.85291 0.30684 0.8018 0.0
C1187 C 0.86635 0.34083 0.79283 0.0
H1188 H 0.56157 0.72387 0.12084 0.0
H1189 H 0.57617 0.75293 0.24833 0.0
H1190 H 0.54243 0.69421 0.26886 0.0
H1191 H 0.51949 0.63483 0.2502 0.0
H1192 H 0.50372 0.60577 0.1227 0.0
H1193 H 0.52645 0.66426 0.10238 0.0
C1194 C 0.55639 0.71727 0.15301 0.0
C1195 C 0.57171 0.74222 0.18308 0.0
C1196 C 0.53714 0.68355 0.16455 0.0
C1197 C 0.56463 0.73387 0.22471 0.0
C1198 C 0.5456 0.70033 0.23648 0.0
C1199 C 0.52011 0.64134 0.2181 0.0
C1200 C 0.51082 0.61651 0.18793 0.0
C1201 C 0.53333 0.67494 0.20667 0.0
C1202 C 0.51103 0.62473 0.14642 0.0
C1203 C 0.52426 0.65815 0.13475 0.0
H1204 H 0.32409 0.84439 0.12529 0.0
H1205 H 0.30411 0.83604 0.25526 0.0
H1206 H 0.36385 0.85914 0.26977 0.0
H1207 H 0.42193 0.89288 0.24511 0.0
H1208 H 0.4419 0.90114 0.11513 0.0
H1209 H 0.38192 0.86606 0.10085 0.0
C1210 C 0.33283 0.84673 0.1567 0.0
C1211 C 0.31024 0.83947 0.18918 0.0
C1212 C 0.36713 0.8603 0.16476 0.0
C1213 C 0.32132 0.84182 0.22981 0.0
C1214 C 0.35546 0.85524 0.23813 0.0
C1215 C 0.41311 0.88604 0.21377 0.0
C1216 C 0.43585 0.90006 0.18118 0.0
C1217 C 0.37868 0.86629 0.20583 0.0
C1218 C 0.42461 0.89073 0.14067 0.0
C1219 C 0.39034 0.87094 0.13247 0.0
H1220 H 0.17055 0.53462 0.24247 0.0
H1221 H 0.15989 0.54685 0.1132 0.0
H1222 H 0.195 0.52231 0.09688 0.0
H1223 H 0.21771 0.48662 0.11947 0.0
H1224 H 0.22847 0.47445 0.24872 0.0
H1225 H 0.20498 0.51048 0.26519 0.0
C1226 C 0.17684 0.53278 0.21083 0.0
C1227 C 0.16222 0.54158 0.17901 0.0
C1228 C 0.19664 0.51836 0.20175 0.0
C1229 C 0.17081 0.53988 0.13812 0.0
C1230 C 0.19062 0.52564 0.12877 0.0
C1231 C 0.21578 0.49277 0.15115 0.0
C1232 C 0.22386 0.47752 0.1829 0.0
C1233 C 0.20201 0.51312 0.16031 0.0
C1234 C 0.22206 0.48588 0.22387 0.0
C1235 C 0.20842 0.50622 0.23329 0.0
H1236 H 0.09444 0.83867 0.51458 0.0
H1237 H 0.09565 0.75108 0.55937 0.0
H1238 H 1.03609 0.71585 0.54094 0.0
H1239 H 0.98245 0.70953 0.51191 0.0
H1240 H 0.98362 0.79777 0.46426 0.0
H1241 H 0.04246 0.83217 0.48331 0.0
C1242 C 0.08171 0.81191 0.52079 0.0
C1243 C 0.10001 0.79798 0.53921 0.0
C1244 C 0.0474 0.79145 0.50897 0.0
C1245 C 0.08266 0.76293 0.54578 0.0
C1246 C 0.04839 0.74261 0.53498 0.0
C1247 C 0.9956 0.73619 0.50514 0.0
C1248 C 0.97771 0.75052 0.48626 0.0
C1249 C 1.03031 0.75646 0.51633 0.0
C1250 C 0.99591 0.78543 0.47843 0.0
C1251 C 1.0299 0.80544 0.4896 0.0
H1252 H 0.28122 0.2153 0.50022 0.0
H1253 H 0.37741 0.30416 0.48043 0.0
H1254 H 0.35352 0.33954 0.49982 0.0
H1255 H 0.30478 0.34576 0.52297 0.0
H1256 H 0.2096 0.25604 0.5456 0.0
H1257 H 0.23354 0.22134 0.52532 0.0
C1258 C 0.297 0.24243 0.49961 0.0
C1259 C 0.33126 0.2567 0.48797 0.0
C1260 C 0.28321 0.26285 0.51202 0.0
C1261 C 0.35105 0.29209 0.48864 0.0
C1262 C 0.33733 0.31248 0.50001 0.0
C1263 C 0.28928 0.31863 0.52396 0.0
C1264 C 0.25505 0.30401 0.53627 0.0
C1265 C 0.3034 0.29825 0.51205 0.0
C1266 C 0.23583 0.26855 0.53672 0.0
C1267 C 0.24955 0.24843 0.52479 0.0
H1268 H 0.71283 0.96966 0.52058 0.0
H1269 H 0.8013 0.97157 0.56916 0.0
H1270 H 0.83548 0.03027 0.55006 0.0
H1271 H 0.84183 0.08203 0.51861 0.0
H1272 H 0.75408 0.08296 0.47358 0.0
H1273 H 0.71897 1.02334 0.49168 0.0
C1274 C 0.73949 0.98293 0.52752 0.0
C1275 C 0.75392 0.96523 0.54672 0.0
C1276 C 0.75966 1.01769 0.51644 0.0
C1277 C 0.78883 0.98365 0.5548 0.0
C1278 C 0.80874 1.0176 0.54359 0.0
C1279 C 0.81506 0.06924 0.51227 0.0
C1280 C 0.80108 0.08748 0.49383 0.0
C1281 C 0.79467 0.03493 0.52403 0.0
C1282 C 0.76599 0.07003 0.48717 0.0
C1283 C 0.74574 0.03571 0.49777 0.0
H1284 H 0.18185 0.95971 0.44877 0.0
H1285 H 0.19639 0.98403 0.57781 0.0
H1286 H 0.21965 0.0435 0.56199 0.0
H1287 H 0.24628 0.08829 0.51181 0.0
H1288 H 0.23839 0.06512 0.38273 0.0
H1289 H 0.20115 1.00528 0.39791 0.0
C1290 C 0.18916 0.97797 0.47341 0.0
C1291 C 0.18798 0.96784 0.51435 0.0
C1292 C 0.20404 1.01222 0.46393 0.0
C1293 C 0.19754 0.99153 0.54609 0.0
C1294 C 0.2109 0.02544 0.53704 0.0
C1295 C 0.2357 0.07016 0.48696 0.0
C1296 C 0.24542 0.08061 0.44639 0.0
C1297 C 0.21592 0.03609 0.4961 0.0
C1298 C 0.23123 0.05736 0.41422 0.0
C1299 C 0.21028 1.02322 0.42298 0.0
H1300 H 0.0976 0.24219 0.47926 0.0
H1301 H 0.06652 0.21615 0.605 0.0
H1302 H 1.00835 0.17917 0.58254 0.0
H1303 H 0.96598 0.1647 0.52854 0.0
H1304 H 0.99695 0.19296 0.40322 0.0
H1305 H 0.05605 0.21797 0.42373 0.0
C1306 C 0.07812 0.22771 0.50157 0.0
C1307 C 0.08572 0.23222 0.54364 0.0
C1308 C 0.04498 0.20718 0.48843 0.0
C1309 C 0.06086 0.21305 0.57249 0.0
C1310 C 1.02772 0.19216 0.55964 0.0
C1311 C 0.98575 0.17536 0.50562 0.0
C1312 C 0.97762 0.17768 0.46468 0.0
C1313 C 1.01936 0.1905 0.51791 0.0
C1314 C 1.00294 0.19103 0.43488 0.0
C1315 C 1.03661 0.20564 0.44672 0.0
H1316 H 0.84362 0.90174 0.47839 0.0
H1317 H 0.83642 0.8657 0.60223 0.0
H1318 H 0.87304 0.84318 0.58462 0.0
H1319 H 0.8945 0.82218 0.5308 0.0
H1320 H 0.89541 0.85135 0.40517 0.0
H1321 H 0.87447 0.88894 0.42647 0.0
C1322 C 0.85107 0.89 0.50183 0.0
C1323 C 0.83701 0.88471 0.54132 0.0
C1324 C 0.87048 0.87548 0.49082 0.0
C1325 C 0.8467 0.86953 0.57151 0.0
C1326 C 0.86745 0.85656 0.5614 0.0
C1327 C 0.89112 0.83771 0.50838 0.0
C1328 C 0.89579 0.83399 0.46664 0.0
C1329 C 0.8776 0.85757 0.52064 0.0
C1330 C 0.89179 0.85407 0.43749 0.0
C1331 C 0.87954 0.87518 0.44967 0.0
loop_
_geom_bond_atom_site_label_1
_geom_bond_atom_site_label_2
_geom_bond_distance
_geom_bond_site_symmetry_2
_ccdc_geom_bond_type
Co0 O3 1.970 . S
Co0 N17 1.989 . S
Co0 O25 1.967 . S
Co0 O32 1.920 . S
Co1 O4 1.966 . S
Co1 N10 2.022 . S
Co1 N18 1.993 . S
Co1 O26 1.941 . S
C2 O3 1.258 . S
C2 O4 1.263 . S
O3 Co0 1.970 . S
O3 C2 1.258 . S
O4 Co1 1.966 . S
O4 C2 1.263 . S
C5 O6 1.235 . S
C5 O32 1.289 . S
O6 C5 1.235 . S
C7 C9 1.400 . S
C7 N10 1.351 . S
C7 C12 1.501 . S
C8 C9 1.387 . S
C8 N11 1.341 . S
C9 C7 1.400 . S
C9 C8 1.387 . S
N10 Co1 2.022 . S
N10 C7 1.351 . S
N10 N11 1.365 . S
N11 C8 1.341 . S
N11 N10 1.365 . S
N11 H31 0.862 . S
C12 C7 1.501 . S
C12 H13 0.961 . S
C12 H14 0.961 . S
C12 H15 0.960 . S
H13 C12 0.961 . S
H14 C12 0.961 . S
H15 C12 0.960 . S
C16 N17 1.342 . S
C16 C20 1.401 . S
C16 C21 1.499 . S
N17 Co0 1.989 . S
N17 C16 1.342 . S
N17 N18 1.388 . S
N18 Co1 1.993 . S
N18 N17 1.388 . S
N18 C19 1.346 . S
C19 N18 1.346 . S
C19 C20 1.396 . S
C19 C29 1.510 . S
C20 C16 1.401 . S
C20 C19 1.396 . S
C21 C16 1.499 . S
C21 H22 0.959 . S
C21 H23 0.960 . S
C21 H24 0.961 . S
H22 C21 0.959 . S
H23 C21 0.960 . S
H24 C21 0.961 . S
O25 Co0 1.967 . S
O25 C33 1.258 . S
O26 Co1 1.941 . S
O26 C33 1.266 . S
H27 C29 0.959 . S
H28 C29 0.961 . S
C29 C19 1.510 . S
C29 H27 0.959 . S
C29 H28 0.961 . S
C29 H30 0.960 . S
H30 C29 0.960 . S
H31 N11 0.862 . S
O32 Co0 1.920 . S
O32 C5 1.289 . S
C33 O25 1.258 . S
C33 O26 1.266 . S
Co34 O37 1.970 . S
Co34 N51 1.989 . S
Co34 O59 1.967 . S
Co34 O66 1.920 . S
Co35 O38 1.966 . S
Co35 N44 2.022 . S
Co35 N52 1.993 . S
Co35 O60 1.941 . S
C36 O37 1.258 . S
C36 O38 1.263 . S
O37 Co34 1.970 . S
O37 C36 1.258 . S
O38 Co35 1.966 . S
O38 C36 1.263 . S
C39 O40 1.235 . S
C39 O66 1.289 . S
O40 C39 1.235 . S
C41 C43 1.400 . S
C41 N44 1.351 . S
C41 C46 1.501 . S
C42 C43 1.387 . S
C42 N45 1.341 . S
C43 C41 1.400 . S
C43 C42 1.387 . S
N44 Co35 2.022 . S
N44 C41 1.351 . S
N44 N45 1.365 . S
N45 C42 1.341 . S
N45 N44 1.365 . S
N45 H65 0.862 . S
C46 C41 1.501 . S
C46 H47 0.961 . S
C46 H48 0.961 . S
C46 H49 0.960 . S
H47 C46 0.961 . S
H48 C46 0.961 . S
H49 C46 0.960 . S
C50 N51 1.342 . S
C50 C54 1.401 . S
C50 C55 1.499 . S
N51 Co34 1.989 . S
N51 C50 1.342 . S
N51 N52 1.388 . S
N52 Co35 1.993 . S
N52 N51 1.388 . S
N52 C53 1.346 . S
C53 N52 1.346 . S
C53 C54 1.396 . S
C53 C63 1.510 . S
C54 C50 1.401 . S
C54 C53 1.396 . S
C55 C50 1.499 . S
C55 H56 0.959 . S
C55 H57 0.960 . S
C55 H58 0.961 . S
H56 C55 0.959 . S
H57 C55 0.960 . S
H58 C55 0.961 . S
O59 Co34 1.967 . S
O59 C67 1.258 . S
O60 Co35 1.941 . S
O60 C67 1.266 . S
H61 C63 0.959 . S
H62 C63 0.961 . S
C63 C53 1.510 . S
C63 H61 0.959 . S
C63 H62 0.961 . S
C63 H64 0.960 . S
H64 C63 0.960 . S
H65 N45 0.862 . S
O66 Co34 1.920 . S
O66 C39 1.289 . S
C67 O59 1.258 . S
C67 O60 1.266 . S
Co68 O71 1.970 . S
Co68 N85 1.989 . S
Co68 O93 1.967 . S
Co68 O100 1.920 . S
Co69 O72 1.966 . S
Co69 N78 2.022 . S
Co69 N86 1.993 . S
Co69 O94 1.941 . S
C70 O71 1.258 . S
C70 O72 1.263 . S
O71 Co68 1.970 . S
O71 C70 1.258 . S
O72 Co69 1.966 . S
O72 C70 1.263 . S
C73 O74 1.235 . S
C73 O100 1.289 . S
O74 C73 1.235 . S
C75 C77 1.400 . S
C75 N78 1.351 . S
C75 C80 1.501 . S
C76 C77 1.387 . S
C76 N79 1.341 . S
C77 C75 1.400 . S
C77 C76 1.387 . S
N78 Co69 2.022 . S
N78 C75 1.351 . S
N78 N79 1.365 . S
N79 C76 1.341 . S
N79 N78 1.365 . S
N79 H99 0.862 . S
C80 C75 1.501 . S
C80 H81 0.961 . S
C80 H82 0.961 . S
C80 H83 0.960 . S
H81 C80 0.961 . S
H82 C80 0.961 . S
H83 C80 0.960 . S
C84 N85 1.342 . S
C84 C88 1.401 . S
C84 C89 1.499 . S
N85 Co68 1.989 . S
N85 C84 1.342 . S
N85 N86 1.388 . S
N86 Co69 1.993 . S
N86 N85 1.388 . S
N86 C87 1.346 . S
C87 N86 1.346 . S
C87 C88 1.396 . S
C87 C97 1.510 . S
C88 C84 1.401 . S
C88 C87 1.396 . S
C89 C84 1.499 . S
C89 H90 0.959 . S
C89 H91 0.960 . S
C89 H92 0.961 . S
H90 C89 0.959 . S
H91 C89 0.960 . S
H92 C89 0.961 . S
O93 Co68 1.967 . S
O93 C101 1.258 . S
O94 Co69 1.941 . S
O94 C101 1.266 . S
H95 C97 0.959 . S
H96 C97 0.961 . S
C97 C87 1.510 . S
C97 H95 0.959 . S
C97 H96 0.961 . S
C97 H98 0.960 . S
H98 C97 0.960 . S
H99 N79 0.862 . S
O100 Co68 1.920 . S
O100 C73 1.289 . S
C101 O93 1.258 . S
C101 O94 1.266 . S
Co102 O105 1.970 . S
Co102 N119 1.989 . S
Co102 O127 1.967 . S
Co102 O134 1.920 . S
Co103 O106 1.966 . S
Co103 N112 2.022 . S
Co103 N120 1.993 . S
Co103 O128 1.941 . S
C104 O105 1.258 . S
C104 O106 1.263 . S
O105 Co102 1.970 . S
O105 C104 1.258 . S
O106 Co103 1.966 . S
O106 C104 1.263 . S
C107 O108 1.235 . S
C107 O134 1.289 . S
O108 C107 1.235 . S
C109 C111 1.400 . S
C109 N112 1.351 . S
C109 C114 1.501 . S
C110 C111 1.387 . S
C110 N113 1.341 . S
C111 C109 1.400 . S
C111 C110 1.387 . S
N112 Co103 2.022 . S
N112 C109 1.351 . S
N112 N113 1.365 . S
N113 C110 1.341 . S
N113 N112 1.365 . S
N113 H133 0.862 . S
C114 C109 1.501 . S
C114 H115 0.961 . S
C114 H116 0.961 . S
C114 H117 0.960 . S
H115 C114 0.961 . S
H116 C114 0.961 . S
H117 C114 0.960 . S
C118 N119 1.342 . S
C118 C122 1.401 . S
C118 C123 1.499 . S
N119 Co102 1.989 . S
N119 C118 1.342 . S
N119 N120 1.388 . S
N120 Co103 1.993 . S
N120 N119 1.388 . S
N120 C121 1.346 . S
C121 N120 1.346 . S
C121 C122 1.396 . S
C121 C131 1.510 . S
C122 C118 1.401 . S
C122 C121 1.396 . S
C123 C118 1.499 . S
C123 H124 0.959 . S
C123 H125 0.960 . S
C123 H126 0.961 . S
H124 C123 0.959 . S
H125 C123 0.960 . S
H126 C123 0.961 . S
O127 Co102 1.967 . S
O127 C135 1.258 . S
O128 Co103 1.941 . S
O128 C135 1.266 . S
H129 C131 0.959 . S
H130 C131 0.961 . S
C131 C121 1.510 . S
C131 H129 0.959 . S
C131 H130 0.961 . S
C131 H132 0.960 . S
H132 C131 0.960 . S
H133 N113 0.862 . S
O134 Co102 1.920 . S
O134 C107 1.289 . S
C135 O127 1.258 . S
C135 O128 1.266 . S
Co136 O139 1.970 . S
Co136 N153 1.989 . S
Co136 O161 1.967 . S
Co136 O168 1.920 . S
Co137 O140 1.966 . S
Co137 N146 2.022 . S
Co137 N154 1.993 . S
Co137 O162 1.941 . S
C138 O139 1.258 . S
C138 O140 1.263 . S
O139 Co136 1.970 . S
O139 C138 1.258 . S
O140 Co137 1.966 . S
O140 C138 1.263 . S
C141 O142 1.235 . S
C141 O168 1.289 . S
O142 C141 1.235 . S
C143 C145 1.400 . S
C143 N146 1.351 . S
C143 C148 1.501 . S
C144 C145 1.387 . S
C144 N147 1.341 . S
C145 C143 1.400 . S
C145 C144 1.387 . S
N146 Co137 2.022 . S
N146 C143 1.351 . S
N146 N147 1.365 . S
N147 C144 1.341 . S
N147 N146 1.365 . S
N147 H167 0.862 . S
C148 C143 1.501 . S
C148 H149 0.961 . S
C148 H150 0.961 . S
C148 H151 0.960 . S
H149 C148 0.961 . S
H150 C148 0.961 . S
H151 C148 0.960 . S
C152 N153 1.342 . S
C152 C156 1.401 . S
C152 C157 1.499 . S
N153 Co136 1.989 . S
N153 C152 1.342 . S
N153 N154 1.388 . S
N154 Co137 1.993 . S
N154 N153 1.388 . S
N154 C155 1.346 . S
C155 N154 1.346 . S
C155 C156 1.396 . S
C155 C165 1.510 . S
C156 C152 1.401 . S
C156 C155 1.396 . S
C157 C152 1.499 . S
C157 H158 0.959 . S
C157 H159 0.960 . S
C157 H160 0.961 . S
H158 C157 0.959 . S
H159 C157 0.960 . S
H160 C157 0.961 . S
O161 Co136 1.967 . S
O161 C169 1.258 . S
O162 Co137 1.941 . S
O162 C169 1.266 . S
H163 C165 0.959 . S
H164 C165 0.961 . S
C165 C155 1.510 . S
C165 H163 0.959 . S
C165 H164 0.961 . S
C165 H166 0.960 . S
H166 C165 0.960 . S
H167 N147 0.862 . S
O168 Co136 1.920 . S
O168 C141 1.289 . S
C169 O161 1.258 . S
C169 O162 1.266 . S
Co170 O173 1.970 . S
Co170 N187 1.989 . S
Co170 O195 1.967 . S
Co170 O202 1.920 . S
Co171 O174 1.966 . S
Co171 N180 2.022 . S
Co171 N188 1.993 . S
Co171 O196 1.941 . S
C172 O173 1.258 . S
C172 O174 1.263 . S
O173 Co170 1.970 . S
O173 C172 1.258 . S
O174 Co171 1.966 . S
O174 C172 1.263 . S
C175 O176 1.235 . S
C175 O202 1.289 . S
O176 C175 1.235 . S
C177 C179 1.400 . S
C177 N180 1.351 . S
C177 C182 1.501 . S
C178 C179 1.387 . S
C178 N181 1.341 . S
C179 C177 1.400 . S
C179 C178 1.387 . S
N180 Co171 2.022 . S
N180 C177 1.351 . S
N180 N181 1.365 . S
N181 C178 1.341 . S
N181 N180 1.365 . S
N181 H201 0.862 . S
C182 C177 1.501 . S
C182 H183 0.961 . S
C182 H184 0.961 . S
C182 H185 0.960 . S
H183 C182 0.961 . S
H184 C182 0.961 . S
H185 C182 0.960 . S
C186 N187 1.342 . S
C186 C190 1.401 . S
C186 C191 1.499 . S
N187 Co170 1.989 . S
N187 C186 1.342 . S
N187 N188 1.388 . S
N188 Co171 1.993 . S
N188 N187 1.388 . S
N188 C189 1.346 . S
C189 N188 1.346 . S
C189 C190 1.396 . S
C189 C199 1.510 . S
C190 C186 1.401 . S
C190 C189 1.396 . S
C191 C186 1.499 . S
C191 H192 0.959 . S
C191 H193 0.960 . S
C191 H194 0.961 . S
H192 C191 0.959 . S
H193 C191 0.960 . S
H194 C191 0.961 . S
O195 Co170 1.967 . S
O195 C203 1.258 . S
O196 Co171 1.941 . S
O196 C203 1.266 . S
H197 C199 0.959 . S
H198 C199 0.961 . S
C199 C189 1.510 . S
C199 H197 0.959 . S
C199 H198 0.961 . S
C199 H200 0.960 . S
H200 C199 0.960 . S
H201 N181 0.862 . S
O202 Co170 1.920 . S
O202 C175 1.289 . S
C203 O195 1.258 . S
C203 O196 1.266 . S
Co204 O207 1.970 . S
Co204 N221 1.989 . S
Co204 O229 1.967 . S
Co204 O236 1.920 . S
Co205 O208 1.966 . S
Co205 N214 2.022 . S
Co205 N222 1.993 . S
Co205 O230 1.941 . S
C206 O207 1.258 . S
C206 O208 1.263 . S
O207 Co204 1.970 . S
O207 C206 1.258 . S
O208 Co205 1.966 . S
O208 C206 1.263 . S
C209 O210 1.235 . S
C209 O236 1.289 . S
O210 C209 1.235 . S
C211 C213 1.400 . S
C211 N214 1.351 . S
C211 C216 1.501 . S
C212 C213 1.387 . S
C212 N215 1.341 . S
C213 C211 1.400 . S
C213 C212 1.387 . S
N214 Co205 2.022 . S
N214 C211 1.351 . S
N214 N215 1.365 . S
N215 C212 1.341 . S
N215 N214 1.365 . S
N215 H235 0.862 . S
C216 C211 1.501 . S
C216 H217 0.961 . S
C216 H218 0.961 . S
C216 H219 0.960 . S
H217 C216 0.961 . S
H218 C216 0.961 . S
H219 C216 0.960 . S
C220 N221 1.342 . S
C220 C224 1.401 . S
C220 C225 1.499 . S
N221 Co204 1.989 . S
N221 C220 1.342 . S
N221 N222 1.388 . S
N222 Co205 1.993 . S
N222 N221 1.388 . S
N222 C223 1.346 . S
C223 N222 1.346 . S
C223 C224 1.396 . S
C223 C233 1.510 . S
C224 C220 1.401 . S
C224 C223 1.396 . S
C225 C220 1.499 . S
C225 H226 0.959 . S
C225 H227 0.960 . S
C225 H228 0.961 . S
H226 C225 0.959 . S
H227 C225 0.960 . S
H228 C225 0.961 . S
O229 Co204 1.967 . S
O229 C237 1.258 . S
O230 Co205 1.941 . S
O230 C237 1.266 . S
H231 C233 0.959 . S
H232 C233 0.961 . S
C233 C223 1.510 . S
C233 H231 0.959 . S
C233 H232 0.961 . S
C233 H234 0.960 . S
H234 C233 0.960 . S
H235 N215 0.862 . S
O236 Co204 1.920 . S
O236 C209 1.289 . S
C237 O229 1.258 . S
C237 O230 1.266 . S
Co238 O241 1.970 . S
Co238 N255 1.989 . S
Co238 O263 1.967 . S
Co238 O270 1.920 . S
Co239 O242 1.966 . S
Co239 N248 2.022 . S
Co239 N256 1.993 . S
Co239 O264 1.941 . S
C240 O241 1.258 . S
C240 O242 1.263 . S
O241 Co238 1.970 . S
O241 C240 1.258 . S
O242 Co239 1.966 . S
O242 C240 1.263 . S
C243 O244 1.235 . S
C243 O270 1.289 . S
O244 C243 1.235 . S
C245 C247 1.400 . S
C245 N248 1.351 . S
C245 C250 1.501 . S
C246 C247 1.387 . S
C246 N249 1.341 . S
C247 C245 1.400 . S
C247 C246 1.387 . S
N248 Co239 2.022 . S
N248 C245 1.351 . S
N248 N249 1.365 . S
N249 C246 1.341 . S
N249 N248 1.365 . S
N249 H269 0.862 . S
C250 C245 1.501 . S
C250 H251 0.961 . S
C250 H252 0.961 . S
C250 H253 0.960 . S
H251 C250 0.961 . S
H252 C250 0.961 . S
H253 C250 0.960 . S
C254 N255 1.342 . S
C254 C258 1.401 . S
C254 C259 1.499 . S
N255 Co238 1.989 . S
N255 C254 1.342 . S
N255 N256 1.388 . S
N256 Co239 1.993 . S
N256 N255 1.388 . S
N256 C257 1.346 . S
C257 N256 1.346 . S
C257 C258 1.396 . S
C257 C267 1.510 . S
C258 C254 1.401 . S
C258 C257 1.396 . S
C259 C254 1.499 . S
C259 H260 0.959 . S
C259 H261 0.960 . S
C259 H262 0.961 . S
H260 C259 0.959 . S
H261 C259 0.960 . S
H262 C259 0.961 . S
O263 Co238 1.967 . S
O263 C271 1.258 . S
O264 Co239 1.941 . S
O264 C271 1.266 . S
H265 C267 0.959 . S
H266 C267 0.961 . S
C267 C257 1.510 . S
C267 H265 0.959 . S
C267 H266 0.961 . S
C267 H268 0.960 . S
H268 C267 0.960 . S
H269 N249 0.862 . S
O270 Co238 1.920 . S
O270 C243 1.289 . S
C271 O263 1.258 . S
C271 O264 1.266 . S
Co272 O275 1.970 . S
Co272 N289 1.989 . S
Co272 O297 1.967 . S
Co272 O304 1.920 . S
Co273 O276 1.966 . S
Co273 N282 2.022 . S
Co273 N290 1.993 . S
Co273 O298 1.941 . S
C274 O275 1.258 . S
C274 O276 1.263 . S
O275 Co272 1.970 . S
O275 C274 1.258 . S
O276 Co273 1.966 . S
O276 C274 1.263 . S
C277 O278 1.235 . S
C277 O304 1.289 . S
O278 C277 1.235 . S
C279 C281 1.400 . S
C279 N282 1.351 . S
C279 C284 1.501 . S
C280 C281 1.387 . S
C280 N283 1.341 . S
C281 C279 1.400 . S
C281 C280 1.387 . S
N282 Co273 2.022 . S
N282 C279 1.351 . S
N282 N283 1.365 . S
N283 C280 1.341 . S
N283 N282 1.365 . S
N283 H303 0.862 . S
C284 C279 1.501 . S
C284 H285 0.961 . S
C284 H286 0.961 . S
C284 H287 0.960 . S
H285 C284 0.961 . S
H286 C284 0.961 . S
H287 C284 0.960 . S
C288 N289 1.342 . S
C288 C292 1.401 . S
C288 C293 1.499 . S
N289 Co272 1.989 . S
N289 C288 1.342 . S
N289 N290 1.388 . S
N290 Co273 1.993 . S
N290 N289 1.388 . S
N290 C291 1.346 . S
C291 N290 1.346 . S
C291 C292 1.396 . S
C291 C301 1.510 . S
C292 C288 1.401 . S
C292 C291 1.396 . S
C293 C288 1.499 . S
C293 H294 0.959 . S
C293 H295 0.960 . S
C293 H296 0.961 . S
H294 C293 0.959 . S
H295 C293 0.960 . S
H296 C293 0.961 . S
O297 Co272 1.967 . S
O297 C305 1.258 . S
O298 Co273 1.941 . S
O298 C305 1.266 . S
H299 C301 0.959 . S
H300 C301 0.961 . S
C301 C291 1.510 . S
C301 H299 0.959 . S
C301 H300 0.961 . S
C301 H302 0.960 . S
H302 C301 0.960 . S
H303 N283 0.862 . S
O304 Co272 1.920 . S
O304 C277 1.289 . S
C305 O297 1.258 . S
C305 O298 1.266 . S
Co306 O309 1.970 . S
Co306 N323 1.989 1_455 S
Co306 O331 1.967 . S
Co306 O338 1.920 . S
Co307 O310 1.966 1_655 S
Co307 N316 2.022 . S
Co307 N324 1.993 . S
Co307 O332 1.941 . S
C308 O309 1.258 . S
C308 O310 1.263 . S
O309 Co306 1.970 . S
O309 C308 1.258 . S
O310 Co307 1.966 1_455 S
O310 C308 1.263 . S
C311 O312 1.235 . S
C311 O338 1.289 . S
O312 C311 1.235 . S
C313 C315 1.400 . S
C313 N316 1.351 . S
C313 C318 1.501 . S
C314 C315 1.387 . S
C314 N317 1.341 . S
C315 C313 1.400 . S
C315 C314 1.387 . S
N316 Co307 2.022 . S
N316 C313 1.351 . S
N316 N317 1.365 . S
N317 C314 1.341 . S
N317 N316 1.365 . S
N317 H337 0.862 . S
C318 C313 1.501 . S
C318 H319 0.961 . S
C318 H320 0.961 . S
C318 H321 0.960 . S
H319 C318 0.961 . S
H320 C318 0.961 . S
H321 C318 0.960 . S
C322 N323 1.342 . S
C322 C326 1.401 . S
C322 C327 1.499 1_655 S
N323 Co306 1.989 1_655 S
N323 C322 1.342 . S
N323 N324 1.388 . S
N324 Co307 1.993 . S
N324 N323 1.388 . S
N324 C325 1.346 . S
C325 N324 1.346 . S
C325 C326 1.396 . S
C325 C335 1.510 . S
C326 C322 1.401 . S
C326 C325 1.396 . S
C327 C322 1.499 1_455 S
C327 H328 0.959 . S
C327 H329 0.960 . S
C327 H330 0.961 1_455 S
H328 C327 0.959 . S
H329 C327 0.960 . S
H330 C327 0.961 1_655 S
O331 Co306 1.967 . S
O331 C339 1.258 1_455 S
O332 Co307 1.941 . S
O332 C339 1.266 . S
H333 C335 0.959 . S
H334 C335 0.961 . S
C335 C325 1.510 . S
C335 H333 0.959 . S
C335 H334 0.961 . S
C335 H336 0.960 . S
H336 C335 0.960 . S
H337 N317 0.862 . S
O338 Co306 1.920 . S
O338 C311 1.289 . S
C339 O331 1.258 1_655 S
C339 O332 1.266 . S
Co340 O343 1.970 . S
Co340 N357 1.989 . S
Co340 O365 1.967 . S
Co340 O372 1.920 . S
Co341 O344 1.966 . S
Co341 N350 2.022 . S
Co341 N358 1.993 . S
Co341 O366 1.941 . S
C342 O343 1.258 . S
C342 O344 1.263 . S
O343 Co340 1.970 . S
O343 C342 1.258 . S
O344 Co341 1.966 . S
O344 C342 1.263 . S
C345 O346 1.235 . S
C345 O372 1.289 . S
O346 C345 1.235 . S
C347 C349 1.400 . S
C347 N350 1.351 . S
C347 C352 1.501 . S
C348 C349 1.387 . S
C348 N351 1.341 . S
C349 C347 1.400 . S
C349 C348 1.387 . S
N350 Co341 2.022 . S
N350 C347 1.351 . S
N350 N351 1.365 . S
N351 C348 1.341 . S
N351 N350 1.365 . S
N351 H371 0.862 . S
C352 C347 1.501 . S
C352 H353 0.961 . S
C352 H354 0.961 . S
C352 H355 0.960 . S
H353 C352 0.961 . S
H354 C352 0.961 . S
H355 C352 0.960 . S
C356 N357 1.342 . S
C356 C360 1.401 . S
C356 C361 1.499 . S
N357 Co340 1.989 . S
N357 C356 1.342 . S
N357 N358 1.388 . S
N358 Co341 1.993 . S
N358 N357 1.388 . S
N358 C359 1.346 . S
C359 N358 1.346 . S
C359 C360 1.396 . S
C359 C369 1.510 . S
C360 C356 1.401 . S
C360 C359 1.396 . S
C361 C356 1.499 . S
C361 H362 0.959 . S
C361 H363 0.960 . S
C361 H364 0.961 . S
H362 C361 0.959 . S
H363 C361 0.960 . S
H364 C361 0.961 . S
O365 Co340 1.967 . S
O365 C373 1.258 . S
O366 Co341 1.941 . S
O366 C373 1.266 . S
H367 C369 0.959 . S
H368 C369 0.961 . S
C369 C359 1.510 . S
C369 H367 0.959 . S
C369 H368 0.961 . S
C369 H370 0.960 . S
H370 C369 0.960 . S
H371 N351 0.862 . S
O372 Co340 1.920 . S
O372 C345 1.289 . S
C373 O365 1.258 . S
C373 O366 1.266 . S
Co374 O377 1.970 . S
Co374 N391 1.989 1_565 S
Co374 O399 1.967 . S
Co374 O406 1.920 . S
Co375 O378 1.966 1_545 S
Co375 N384 2.022 . S
Co375 N392 1.993 . S
Co375 O400 1.941 . S
C376 O377 1.258 . S
C376 O378 1.263 . S
O377 Co374 1.970 . S
O377 C376 1.258 . S
O378 Co375 1.966 1_565 S
O378 C376 1.263 . S
C379 O380 1.235 . S
C379 O406 1.289 . S
O380 C379 1.235 . S
C381 C383 1.400 . S
C381 N384 1.351 . S
C381 C386 1.501 . S
C382 C383 1.387 . S
C382 N385 1.341 . S
C383 C381 1.400 . S
C383 C382 1.387 . S
N384 Co375 2.022 . S
N384 C381 1.351 . S
N384 N385 1.365 . S
N385 C382 1.341 . S
N385 N384 1.365 . S
N385 H405 0.862 . S
C386 C381 1.501 . S
C386 H387 0.961 . S
C386 H388 0.961 . S
C386 H389 0.960 . S
H387 C386 0.961 . S
H388 C386 0.961 . S
H389 C386 0.960 . S
C390 N391 1.342 . S
C390 C394 1.401 . S
C390 C395 1.499 1_545 S
N391 Co374 1.989 1_545 S
N391 C390 1.342 . S
N391 N392 1.388 . S
N392 Co375 1.993 . S
N392 N391 1.388 . S
N392 C393 1.346 . S
C393 N392 1.346 . S
C393 C394 1.396 . S
C393 C403 1.510 . S
C394 C390 1.401 . S
C394 C393 1.396 . S
C395 C390 1.499 1_565 S
C395 H396 0.959 . S
C395 H397 0.960 . S
C395 H398 0.961 1_565 S
H396 C395 0.959 . S
H397 C395 0.960 . S
H398 C395 0.961 1_545 S
O399 Co374 1.967 . S
O399 C407 1.258 1_565 S
O400 Co375 1.941 . S
O400 C407 1.266 . S
H401 C403 0.959 . S
H402 C403 0.961 . S
C403 C393 1.510 . S
C403 H401 0.959 . S
C403 H402 0.961 . S
C403 H404 0.960 . S
H404 C403 0.960 . S
H405 N385 0.862 . S
O406 Co374 1.920 . S
O406 C379 1.289 . S
C407 O399 1.258 1_545 S
C407 O400 1.266 . S
Co408 O411 1.970 . S
Co408 N425 1.989 1_545 S
Co408 O433 1.967 . S
Co408 O440 1.920 . S
Co409 O412 1.966 1_565 S
Co409 N418 2.022 . S
Co409 N426 1.993 . S
Co409 O434 1.941 . S
C410 O411 1.258 . S
C410 O412 1.263 . S
O411 Co408 1.970 . S
O411 C410 1.258 . S
O412 Co409 1.966 1_545 S
O412 C410 1.263 . S
C413 O414 1.235 . S
C413 O440 1.289 . S
O414 C413 1.235 . S
C415 C417 1.400 . S
C415 N418 1.351 . S
C415 C420 1.501 . S
C416 C417 1.387 . S
C416 N419 1.341 . S
C417 C415 1.400 . S
C417 C416 1.387 . S
N418 Co409 2.022 . S
N418 C415 1.351 . S
N418 N419 1.365 . S
N419 C416 1.341 . S
N419 N418 1.365 . S
N419 H439 0.862 . S
C420 C415 1.501 . S
C420 H421 0.961 . S
C420 H422 0.961 . S
C420 H423 0.960 . S
H421 C420 0.961 . S
H422 C420 0.961 . S
H423 C420 0.960 . S
C424 N425 1.342 . S
C424 C428 1.401 . S
C424 C429 1.499 1_565 S
N425 Co408 1.989 1_565 S
N425 C424 1.342 . S
N425 N426 1.388 . S
N426 Co409 1.993 . S
N426 N425 1.388 . S
N426 C427 1.346 . S
C427 N426 1.346 . S
C427 C428 1.396 . S
C427 C437 1.510 . S
C428 C424 1.401 . S
C428 C427 1.396 . S
C429 C424 1.499 1_545 S
C429 H430 0.959 . S
C429 H431 0.960 . S
C429 H432 0.961 1_545 S
H430 C429 0.959 . S
H431 C429 0.960 . S
H432 C429 0.961 1_565 S
O433 Co408 1.967 . S
O433 C441 1.258 1_545 S
O434 Co409 1.941 . S
O434 C441 1.266 . S
H435 C437 0.959 . S
H436 C437 0.961 . S
C437 C427 1.510 . S
C437 H435 0.959 . S
C437 H436 0.961 . S
C437 H438 0.960 . S
H438 C437 0.960 . S
H439 N419 0.862 . S
O440 Co408 1.920 . S
O440 C413 1.289 . S
C441 O433 1.258 1_565 S
C441 O434 1.266 . S
Co442 O445 1.970 . S
Co442 N459 1.989 1_655 S
Co442 O467 1.967 . S
Co442 O474 1.920 . S
Co443 O446 1.966 1_455 S
Co443 N452 2.022 . S
Co443 N460 1.993 . S
Co443 O468 1.941 . S
C444 O445 1.258 . S
C444 O446 1.263 . S
O445 Co442 1.970 . S
O445 C444 1.258 . S
O446 Co443 1.966 1_655 S
O446 C444 1.263 . S
C447 O448 1.235 . S
C447 O474 1.289 . S
O448 C447 1.235 . S
C449 C451 1.400 . S
C449 N452 1.351 . S
C449 C454 1.501 . S
C450 C451 1.387 . S
C450 N453 1.341 . S
C451 C449 1.400 . S
C451 C450 1.387 . S
N452 Co443 2.022 . S
N452 C449 1.351 . S
N452 N453 1.365 . S
N453 C450 1.341 . S
N453 N452 1.365 . S
N453 H473 0.862 . S
C454 C449 1.501 . S
C454 H455 0.961 . S
C454 H456 0.961 . S
C454 H457 0.960 . S
H455 C454 0.961 . S
H456 C454 0.961 . S
H457 C454 0.960 . S
C458 N459 1.342 . S
C458 C462 1.401 . S
C458 C463 1.499 1_455 S
N459 Co442 1.989 1_455 S
N459 C458 1.342 . S
N459 N460 1.388 . S
N460 Co443 1.993 . S
N460 N459 1.388 . S
N460 C461 1.346 . S
C461 N460 1.346 . S
C461 C462 1.396 . S
C461 C471 1.510 . S
C462 C458 1.401 . S
C462 C461 1.396 . S
C463 C458 1.499 1_655 S
C463 H464 0.959 . S
C463 H465 0.960 . S
C463 H466 0.961 1_655 S
H464 C463 0.959 . S
H465 C463 0.960 . S
H466 C463 0.961 1_455 S
O467 Co442 1.967 . S
O467 C475 1.258 1_655 S
O468 Co443 1.941 . S
O468 C475 1.266 . S
H469 C471 0.959 . S
H470 C471 0.961 . S
C471 C461 1.510 . S
C471 H469 0.959 . S
C471 H470 0.961 . S
C471 H472 0.960 . S
H472 C471 0.960 . S
H473 N453 0.862 . S
O474 Co442 1.920 . S
O474 C447 1.289 . S
C475 O467 1.258 1_455 S
C475 O468 1.266 . S
Co476 O479 1.970 . S
Co476 N493 1.989 . S
Co476 O501 1.967 . S
Co476 O508 1.920 . S
Co477 O480 1.966 . S
Co477 N486 2.022 . S
Co477 N494 1.993 . S
Co477 O502 1.941 . S
C478 O479 1.258 . S
C478 O480 1.263 . S
O479 Co476 1.970 . S
O479 C478 1.258 . S
O480 Co477 1.966 . S
O480 C478 1.263 . S
C481 O482 1.235 . S
C481 O508 1.289 . S
O482 C481 1.235 . S
C483 C485 1.400 . S
C483 N486 1.351 . S
C483 C488 1.501 . S
C484 C485 1.387 . S
C484 N487 1.341 . S
C485 C483 1.400 . S
C485 C484 1.387 . S
N486 Co477 2.022 . S
N486 C483 1.351 . S
N486 N487 1.365 . S
N487 C484 1.341 . S
N487 N486 1.365 . S
N487 H507 0.862 . S
C488 C483 1.501 . S
C488 H489 0.961 . S
C488 H490 0.961 . S
C488 H491 0.960 . S
H489 C488 0.961 . S
H490 C488 0.961 . S
H491 C488 0.960 . S
C492 N493 1.342 . S
C492 C496 1.401 . S
C492 C497 1.499 . S
N493 Co476 1.989 . S
N493 C492 1.342 . S
N493 N494 1.388 . S
N494 Co477 1.993 . S
N494 N493 1.388 . S
N494 C495 1.346 . S
C495 N494 1.346 . S
C495 C496 1.396 . S
C495 C505 1.510 . S
C496 C492 1.401 . S
C496 C495 1.396 . S
C497 C492 1.499 . S
C497 H498 0.959 . S
C497 H499 0.960 . S
C497 H500 0.961 . S
H498 C497 0.959 . S
H499 C497 0.960 . S
H500 C497 0.961 . S
O501 Co476 1.967 . S
O501 C509 1.258 . S
O502 Co477 1.941 . S
O502 C509 1.266 . S
H503 C505 0.959 . S
H504 C505 0.961 . S
C505 C495 1.510 . S
C505 H503 0.959 . S
C505 H504 0.961 . S
C505 H506 0.960 . S
H506 C505 0.960 . S
H507 N487 0.862 . S
O508 Co476 1.920 . S
O508 C481 1.289 . S
C509 O501 1.258 . S
C509 O502 1.266 . S
Co510 O513 1.970 . S
Co510 N527 1.989 . S
Co510 O535 1.967 . S
Co510 O542 1.920 . S
Co511 O514 1.966 . S
Co511 N520 2.022 . S
Co511 N528 1.993 . S
Co511 O536 1.941 . S
C512 O513 1.258 . S
C512 O514 1.263 . S
O513 Co510 1.970 . S
O513 C512 1.258 . S
O514 Co511 1.966 . S
O514 C512 1.263 . S
C515 O516 1.235 . S
C515 O542 1.289 . S
O516 C515 1.235 . S
C517 C519 1.400 . S
C517 N520 1.351 . S
C517 C522 1.501 . S
C518 C519 1.387 . S
C518 N521 1.341 . S
C519 C517 1.400 . S
C519 C518 1.387 . S
N520 Co511 2.022 . S
N520 C517 1.351 . S
N520 N521 1.365 . S
N521 C518 1.341 . S
N521 N520 1.365 . S
N521 H541 0.862 . S
C522 C517 1.501 . S
C522 H523 0.961 . S
C522 H524 0.961 . S
C522 H525 0.960 . S
H523 C522 0.961 . S
H524 C522 0.961 . S
H525 C522 0.960 . S
C526 N527 1.342 . S
C526 C530 1.401 . S
C526 C531 1.499 . S
N527 Co510 1.989 . S
N527 C526 1.342 . S
N527 N528 1.388 . S
N528 Co511 1.993 . S
N528 N527 1.388 . S
N528 C529 1.346 . S
C529 N528 1.346 . S
C529 C530 1.396 . S
C529 C539 1.510 . S
C530 C526 1.401 . S
C530 C529 1.396 . S
C531 C526 1.499 . S
C531 H532 0.959 . S
C531 H533 0.960 . S
C531 H534 0.961 . S
H532 C531 0.959 . S
H533 C531 0.960 . S
H534 C531 0.961 . S
O535 Co510 1.967 . S
O535 C543 1.258 . S
O536 Co511 1.941 . S
O536 C543 1.266 . S
H537 C539 0.959 . S
H538 C539 0.961 . S
C539 C529 1.510 . S
C539 H537 0.959 . S
C539 H538 0.961 . S
C539 H540 0.960 . S
H540 C539 0.960 . S
H541 N521 0.862 . S
O542 Co510 1.920 . S
O542 C515 1.289 . S
C543 O535 1.258 . S
C543 O536 1.266 . S
Co544 O547 1.970 . S
Co544 N561 1.989 . S
Co544 O569 1.967 . S
Co544 O576 1.920 . S
Co545 O548 1.966 . S
Co545 N554 2.022 . S
Co545 N562 1.993 . S
Co545 O570 1.941 . S
C546 O547 1.258 . S
C546 O548 1.263 . S
O547 Co544 1.970 . S
O547 C546 1.258 . S
O548 Co545 1.966 . S
O548 C546 1.263 . S
C549 O550 1.235 . S
C549 O576 1.289 . S
O550 C549 1.235 . S
C551 C553 1.400 . S
C551 N554 1.351 . S
C551 C556 1.501 . S
C552 C553 1.387 . S
C552 N555 1.341 . S
C553 C551 1.400 . S
C553 C552 1.387 . S
N554 Co545 2.022 . S
N554 C551 1.351 . S
N554 N555 1.365 . S
N555 C552 1.341 . S
N555 N554 1.365 . S
N555 H575 0.862 . S
C556 C551 1.501 . S
C556 H557 0.961 . S
C556 H558 0.961 . S
C556 H559 0.960 . S
H557 C556 0.961 . S
H558 C556 0.961 . S
H559 C556 0.960 . S
C560 N561 1.342 . S
C560 C564 1.401 . S
C560 C565 1.499 . S
N561 Co544 1.989 . S
N561 C560 1.342 . S
N561 N562 1.388 . S
N562 Co545 1.993 . S
N562 N561 1.388 . S
N562 C563 1.346 . S
C563 N562 1.346 . S
C563 C564 1.396 . S
C563 C573 1.510 . S
C564 C560 1.401 . S
C564 C563 1.396 . S
C565 C560 1.499 . S
C565 H566 0.959 . S
C565 H567 0.960 . S
C565 H568 0.961 . S
H566 C565 0.959 . S
H567 C565 0.960 . S
H568 C565 0.961 . S
O569 Co544 1.967 . S
O569 C577 1.258 . S
O570 Co545 1.941 . S
O570 C577 1.266 . S
H571 C573 0.959 . S
H572 C573 0.961 . S
C573 C563 1.510 . S
C573 H571 0.959 . S
C573 H572 0.961 . S
C573 H574 0.960 . S
H574 C573 0.960 . S
H575 N555 0.862 . S
O576 Co544 1.920 . S
O576 C549 1.289 . S
C577 O569 1.258 . S
C577 O570 1.266 . S
Co578 O581 1.970 . S
Co578 N595 1.989 . S
Co578 O603 1.967 . S
Co578 O610 1.920 . S
Co579 O582 1.966 . S
Co579 N588 2.022 . S
Co579 N596 1.993 . S
Co579 O604 1.941 . S
C580 O581 1.258 . S
C580 O582 1.263 . S
O581 Co578 1.970 . S
O581 C580 1.258 . S
O582 Co579 1.966 . S
O582 C580 1.263 . S
C583 O584 1.235 . S
C583 O610 1.289 . S
O584 C583 1.235 . S
C585 C587 1.400 . S
C585 N588 1.351 . S
C585 C590 1.501 . S
C586 C587 1.387 . S
C586 N589 1.341 . S
C587 C585 1.400 . S
C587 C586 1.387 . S
N588 Co579 2.022 . S
N588 C585 1.351 . S
N588 N589 1.365 . S
N589 C586 1.341 . S
N589 N588 1.365 . S
N589 H609 0.862 . S
C590 C585 1.501 . S
C590 H591 0.961 . S
C590 H592 0.961 . S
C590 H593 0.960 . S
H591 C590 0.961 . S
H592 C590 0.961 . S
H593 C590 0.960 . S
C594 N595 1.342 . S
C594 C598 1.401 . S
C594 C599 1.499 . S
N595 Co578 1.989 . S
N595 C594 1.342 . S
N595 N596 1.388 . S
N596 Co579 1.993 . S
N596 N595 1.388 . S
N596 C597 1.346 . S
C597 N596 1.346 . S
C597 C598 1.396 . S
C597 C607 1.510 . S
C598 C594 1.401 . S
C598 C597 1.396 . S
C599 C594 1.499 . S
C599 H600 0.959 . S
C599 H601 0.960 . S
C599 H602 0.961 . S
H600 C599 0.959 . S
H601 C599 0.960 . S
H602 C599 0.961 . S
O603 Co578 1.967 . S
O603 C611 1.258 . S
O604 Co579 1.941 . S
O604 C611 1.266 . S
H605 C607 0.959 . S
H606 C607 0.961 . S
C607 C597 1.510 . S
C607 H605 0.959 . S
C607 H606 0.961 . S
C607 H608 0.960 . S
H608 C607 0.960 . S
H609 N589 0.862 . S
O610 Co578 1.920 . S
O610 C583 1.289 . S
C611 O603 1.258 . S
C611 O604 1.266 . S
H612 C618 0.930 . S
H613 C621 0.930 1_554 S
H614 C622 0.930 . S
H615 C623 0.930 . S
H616 C626 0.930 1_556 S
H617 C627 0.930 . S
C618 H612 0.930 . S
C618 C619 1.355 . S
C618 C620 1.415 . S
C619 C618 1.355 . S
C619 C621 1.419 . S
C620 C618 1.415 . S
C620 C625 1.425 1_556 S
C620 C627 1.409 . S
C621 H613 0.930 1_556 S
C621 C619 1.419 . S
C621 C622 1.362 1_556 S
C622 H614 0.930 . S
C622 C621 1.362 1_554 S
C622 C625 1.409 . S
C623 H615 0.930 . S
C623 C624 1.355 . S
C623 C625 1.415 . S
C624 C623 1.355 . S
C624 C626 1.419 . S
C625 C620 1.425 1_554 S
C625 C622 1.409 . S
C625 C623 1.415 . S
C626 H616 0.930 1_554 S
C626 C624 1.419 . S
C626 C627 1.362 1_554 S
C627 H617 0.930 . S
C627 C620 1.409 . S
C627 C626 1.362 1_556 S
H628 C634 0.930 . S
H629 C637 0.930 . S
H630 C638 0.930 . S
H631 C639 0.930 . S
H632 C642 0.930 . S
H633 C643 0.943 . S
C634 H628 0.930 . S
C634 C635 1.355 . S
C634 C636 1.415 1_554 S
C635 C634 1.355 . S
C635 C637 1.419 . S
C636 C634 1.415 1_556 S
C636 C641 1.425 1_566 S
C636 C643 1.408 . S
C637 H629 0.930 . S
C637 C635 1.419 . S
C637 C638 1.362 1_565 S
C638 H630 0.930 . S
C638 C637 1.362 1_545 S
C638 C641 1.409 . S
C639 H631 0.930 . S
C639 C640 1.355 . S
C639 C641 1.415 1_556 S
C640 C639 1.355 . S
C640 C642 1.419 . S
C641 C636 1.425 1_544 S
C641 C638 1.409 . S
C641 C639 1.415 1_554 S
C642 H632 0.930 . S
C642 C640 1.419 . S
C642 C643 1.351 1_545 S
C643 H633 0.943 . S
C643 C636 1.408 . S
C643 C642 1.351 1_565 S
H644 C650 0.930 . S
H645 C653 0.930 . S
H646 C654 0.930 1_556 S
H647 C655 0.930 . S
H648 C658 0.930 . S
H649 C659 0.930 1_554 S
C650 H644 0.930 . S
C650 C651 1.355 . S
C650 C652 1.415 . S
C651 C650 1.355 . S
C651 C653 1.419 . S
C652 C650 1.415 . S
C652 C657 1.425 1_454 S
C652 C659 1.409 1_454 S
C653 H645 0.930 . S
C653 C651 1.419 . S
C653 C654 1.362 . S
C654 H646 0.930 1_554 S
C654 C653 1.362 . S
C654 C657 1.409 1_454 S
C655 H647 0.930 . S
C655 C656 1.355 . S
C655 C657 1.415 . S
C656 C655 1.355 . S
C656 C658 1.419 . S
C657 C652 1.425 1_656 S
C657 C654 1.409 1_656 S
C657 C655 1.415 . S
C658 H648 0.930 . S
C658 C656 1.419 . S
C658 C659 1.362 . S
C659 H649 0.930 1_556 S
C659 C652 1.409 1_656 S
C659 C658 1.362 . S
H660 C666 0.930 . S
H661 C669 0.930 . S
H662 C670 0.930 1_554 S
H663 C671 0.930 . S
H664 C674 0.930 . S
H665 C675 0.930 1_556 S
C666 H660 0.930 . S
C666 C667 1.355 . S
C666 C668 1.415 . S
C667 C666 1.355 . S
C667 C669 1.419 . S
C668 C666 1.415 . S
C668 C673 1.425 1_556 S
C668 C675 1.409 1_556 S
C669 H661 0.930 . S
C669 C667 1.419 . S
C669 C670 1.362 . S
C670 H662 0.930 1_556 S
C670 C669 1.362 . S
C670 C673 1.409 1_556 S
C671 H663 0.930 . S
C671 C672 1.355 . S
C671 C673 1.415 . S
C672 C671 1.355 . S
C672 C674 1.419 . S
C673 C668 1.425 1_554 S
C673 C670 1.409 1_554 S
C673 C671 1.415 . S
C674 H664 0.930 . S
C674 C672 1.419 . S
C674 C675 1.362 . S
C675 H665 0.930 1_554 S
C675 C668 1.409 1_554 S
C675 C674 1.362 . S
H676 C682 0.930 . S
H677 C685 0.930 . S
H678 C686 0.930 . S
H679 C687 0.930 . S
H680 C690 0.930 . S
H681 C691 0.930 . S
C682 H676 0.930 . S
C682 C683 1.355 . S
C682 C684 1.415 1_556 S
C683 C682 1.355 . S
C683 C685 1.419 . S
C684 C682 1.415 1_554 S
C684 C689 1.424 1_544 S
C684 C691 1.409 1_545 S
C685 H677 0.930 . S
C685 C683 1.419 . S
C685 C686 1.362 . S
C686 H678 0.930 . S
C686 C685 1.362 . S
C686 C689 1.422 1_545 S
C687 H679 0.930 . S
C687 C688 1.355 . S
C687 C689 1.404 1_554 S
C688 C687 1.355 . S
C688 C690 1.419 . S
C689 C684 1.424 1_566 S
C689 C686 1.422 1_565 S
C689 C687 1.404 1_556 S
C690 H680 0.930 . S
C690 C688 1.419 . S
C690 C691 1.362 . S
C691 H681 0.930 . S
C691 C684 1.409 1_565 S
C691 C690 1.362 . S
H692 C698 0.930 . S
H693 C701 0.930 . S
H694 C702 0.930 . S
H695 C703 0.930 . S
H696 C706 0.930 . S
H697 C707 0.930 . S
C698 H692 0.930 . S
C698 C699 1.355 . S
C698 C700 1.411 1_655 S
C699 C698 1.355 . S
C699 C701 1.419 1_556 S
C700 C698 1.411 1_455 S
C700 C705 1.425 1_456 S
C700 C707 1.413 . S
C701 H693 0.930 . S
C701 C699 1.419 1_554 S
C701 C702 1.362 . S
C702 H694 0.930 . S
C702 C701 1.362 . S
C702 C705 1.409 . S
C703 H695 0.930 . S
C703 C704 1.355 . S
C703 C705 1.415 1_455 S
C704 C703 1.355 . S
C704 C706 1.419 1_554 S
C705 C700 1.425 1_654 S
C705 C702 1.409 . S
C705 C703 1.415 1_655 S
C706 H696 0.930 . S
C706 C704 1.419 1_556 S
C706 C707 1.362 . S
C707 H697 0.930 . S
C707 C700 1.413 . S
C707 C706 1.362 . S
H708 C714 0.930 . S
H709 C717 0.930 . S
H710 C718 0.930 . S
H711 C719 0.930 . S
H712 C722 0.930 . S
H713 C723 0.930 . S
C714 H708 0.930 . S
C714 C715 1.355 . S
C714 C716 1.415 . S
C715 C714 1.355 . S
C715 C717 1.419 . S
C716 C714 1.415 . S
C716 C721 1.425 . S
C716 C723 1.409 . S
C717 H709 0.930 . S
C717 C715 1.419 . S
C717 C718 1.362 . S
C718 H710 0.930 . S
C718 C717 1.362 . S
C718 C721 1.409 . S
C719 H711 0.930 . S
C719 C720 1.355 . S
C719 C721 1.415 . S
C720 C719 1.355 . S
C720 C722 1.419 . S
C721 C716 1.425 . S
C721 C718 1.409 . S
C721 C719 1.415 . S
C722 H712 0.930 . S
C722 C720 1.419 . S
C722 C723 1.362 . S
C723 H713 0.930 . S
C723 C716 1.409 . S
C723 C722 1.362 . S
H724 C730 0.930 . S
H725 C733 0.930 . S
H726 C734 0.930 . S
H727 C735 0.930 . S
H728 C738 0.930 . S
H729 C739 0.930 . S
C730 H724 0.930 . S
C730 C731 1.355 . S
C730 C732 1.415 . S
C731 C730 1.355 . S
C731 C733 1.419 . S
C732 C730 1.415 . S
C732 C737 1.425 . S
C732 C739 1.409 . S
C733 H725 0.930 . S
C733 C731 1.419 . S
C733 C734 1.362 . S
C734 H726 0.930 . S
C734 C733 1.362 . S
C734 C737 1.409 . S
C735 H727 0.930 . S
C735 C736 1.355 . S
C735 C737 1.415 . S
C736 C735 1.355 . S
C736 C738 1.419 . S
C737 C732 1.425 . S
C737 C734 1.409 . S
C737 C735 1.415 . S
C738 H728 0.930 . S
C738 C736 1.419 . S
C738 C739 1.362 . S
C739 H729 0.930 . S
C739 C732 1.409 . S
C739 C738 1.362 . S
H740 C746 0.930 . S
H741 C749 0.930 . S
H742 C750 0.930 . S
H743 C751 0.930 . S
H744 C754 0.930 . S
H745 C755 0.930 . S
C746 H740 0.930 . S
C746 C747 1.355 . S
C746 C748 1.415 . S
C747 C746 1.355 . S
C747 C749 1.419 . S
C748 C746 1.415 . S
C748 C753 1.425 . S
C748 C755 1.409 . S
C749 H741 0.930 . S
C749 C747 1.419 . S
C749 C750 1.362 . S
C750 H742 0.930 . S
C750 C749 1.362 . S
C750 C753 1.409 . S
C751 H743 0.930 . S
C751 C752 1.355 . S
C751 C753 1.415 . S
C752 C751 1.355 . S
C752 C754 1.419 . S
C753 C748 1.425 . S
C753 C750 1.409 . S
C753 C751 1.415 . S
C754 H744 0.930 . S
C754 C752 1.419 . S
C754 C755 1.362 . S
C755 H745 0.930 . S
C755 C748 1.409 . S
C755 C754 1.362 . S
H756 C762 0.930 . S
H757 C765 0.930 . S
H758 C766 0.930 . S
H759 C767 0.930 . S
H760 C770 0.930 . S
H761 C771 0.930 . S
C762 H756 0.930 . S
C762 C763 1.355 . S
C762 C764 1.415 . S
C763 C762 1.355 . S
C763 C765 1.419 . S
C764 C762 1.415 . S
C764 C769 1.425 . S
C764 C771 1.409 . S
C765 H757 0.930 . S
C765 C763 1.419 . S
C765 C766 1.362 . S
C766 H758 0.930 . S
C766 C765 1.362 . S
C766 C769 1.409 . S
C767 H759 0.930 . S
C767 C768 1.355 . S
C767 C769 1.415 . S
C768 C767 1.355 . S
C768 C770 1.419 . S
C769 C764 1.425 . S
C769 C766 1.409 . S
C769 C767 1.415 . S
C770 H760 0.930 . S
C770 C768 1.419 . S
C770 C771 1.362 . S
C771 H761 0.930 . S
C771 C764 1.409 . S
C771 C770 1.362 . S
H772 C778 0.930 . S
H773 C781 0.930 . S
H774 C782 0.930 . S
H775 C783 0.930 . S
H776 C786 0.930 . S
H777 C787 0.930 . S
C778 H772 0.930 . S
C778 C779 1.355 . S
C778 C780 1.415 . S
C779 C778 1.355 . S
C779 C781 1.419 . S
C780 C778 1.415 . S
C780 C785 1.425 . S
C780 C787 1.409 . S
C781 H773 0.930 . S
C781 C779 1.419 . S
C781 C782 1.362 . S
C782 H774 0.930 . S
C782 C781 1.362 . S
C782 C785 1.409 . S
C783 H775 0.930 . S
C783 C784 1.355 . S
C783 C785 1.415 . S
C784 C783 1.355 . S
C784 C786 1.419 . S
C785 C780 1.425 . S
C785 C782 1.409 . S
C785 C783 1.415 . S
C786 H776 0.930 . S
C786 C784 1.419 . S
C786 C787 1.362 . S
C787 H777 0.930 . S
C787 C780 1.409 . S
C787 C786 1.362 . S
H788 C794 0.930 . S
H789 C797 0.930 . S
H790 C798 0.930 . S
H791 C799 0.930 . S
H792 C802 0.930 . S
H793 C803 0.930 . S
C794 H788 0.930 . S
C794 C795 1.355 . S
C794 C796 1.415 . S
C795 C794 1.355 . S
C795 C797 1.419 . S
C796 C794 1.415 . S
C796 C801 1.425 . S
C796 C803 1.409 . S
C797 H789 0.930 . S
C797 C795 1.419 . S
C797 C798 1.362 . S
C798 H790 0.930 . S
C798 C797 1.362 . S
C798 C801 1.409 . S
C799 H791 0.930 . S
C799 C800 1.355 . S
C799 C801 1.415 . S
C800 C799 1.355 . S
C800 C802 1.419 . S
C801 C796 1.425 . S
C801 C798 1.409 . S
C801 C799 1.415 . S
C802 H792 0.930 . S
C802 C800 1.419 . S
C802 C803 1.362 . S
C803 H793 0.930 . S
C803 C796 1.409 . S
C803 C802 1.362 . S
H804 C810 0.930 . S
H805 C813 0.930 . S
H806 C814 0.930 . S
H807 C815 0.930 . S
H808 C818 0.930 . S
H809 C819 0.930 . S
C810 H804 0.930 . S
C810 C811 1.355 . S
C810 C812 1.415 . S
C811 C810 1.355 . S
C811 C813 1.419 . S
C812 C810 1.415 . S
C812 C817 1.425 . S
C812 C819 1.409 . S
C813 H805 0.930 . S
C813 C811 1.419 . S
C813 C814 1.362 . S
C814 H806 0.930 . S
C814 C813 1.362 . S
C814 C817 1.409 . S
C815 H807 0.930 . S
C815 C816 1.355 . S
C815 C817 1.415 . S
C816 C815 1.355 . S
C816 C818 1.419 . S
C817 C812 1.425 . S
C817 C814 1.409 . S
C817 C815 1.415 . S
C818 H808 0.930 . S
C818 C816 1.419 . S
C818 C819 1.362 . S
C819 H809 0.930 . S
C819 C812 1.409 . S
C819 C818 1.362 . S
H820 C826 0.930 . S
H821 C829 0.930 . S
H822 C830 0.930 . S
H823 C831 0.930 . S
H824 C834 0.930 . S
H825 C835 0.930 . S
C826 H820 0.930 . S
C826 C827 1.355 . S
C826 C828 1.415 . S
C827 C826 1.355 . S
C827 C829 1.419 . S
C828 C826 1.415 . S
C828 C833 1.425 . S
C828 C835 1.409 . S
C829 H821 0.930 . S
C829 C827 1.419 . S
C829 C830 1.362 . S
C830 H822 0.930 . S
C830 C829 1.362 . S
C830 C833 1.409 . S
C831 H823 0.930 . S
C831 C832 1.355 . S
C831 C833 1.415 . S
C832 C831 1.355 . S
C832 C834 1.419 . S
C833 C828 1.425 . S
C833 C830 1.409 . S
C833 C831 1.415 . S
C834 H824 0.930 . S
C834 C832 1.419 . S
C834 C835 1.362 . S
C835 H825 0.930 . S
C835 C828 1.409 . S
C835 C834 1.362 . S
H836 C842 0.930 . S
H837 C845 0.930 . S
H838 C846 0.930 . S
H839 C847 0.930 . S
H840 C850 0.930 . S
H841 C851 0.930 . S
C842 H836 0.930 . S
C842 C843 1.355 . S
C842 C844 1.415 . S
C843 C842 1.355 . S
C843 C845 1.419 . S
C844 C842 1.415 . S
C844 C849 1.425 . S
C844 C851 1.409 . S
C845 H837 0.930 . S
C845 C843 1.419 . S
C845 C846 1.362 . S
C846 H838 0.930 . S
C846 C845 1.362 . S
C846 C849 1.409 . S
C847 H839 0.930 . S
C847 C848 1.355 . S
C847 C849 1.415 . S
C848 C847 1.355 . S
C848 C850 1.419 . S
C849 C844 1.425 . S
C849 C846 1.409 . S
C849 C847 1.415 . S
C850 H840 0.930 . S
C850 C848 1.419 . S
C850 C851 1.362 . S
C851 H841 0.930 . S
C851 C844 1.409 . S
C851 C850 1.362 . S
H852 C858 0.930 . S
H853 C861 0.930 . S
H854 C862 0.930 . S
H855 C863 0.930 . S
H856 C866 0.930 . S
H857 C867 0.930 . S
C858 H852 0.930 . S
C858 C859 1.355 . S
C858 C860 1.415 . S
C859 C858 1.355 . S
C859 C861 1.419 . S
C860 C858 1.415 . S
C860 C865 1.425 . S
C860 C867 1.409 . S
C861 H853 0.930 . S
C861 C859 1.419 . S
C861 C862 1.362 . S
C862 H854 0.930 . S
C862 C861 1.362 . S
C862 C865 1.409 . S
C863 H855 0.930 . S
C863 C864 1.355 . S
C863 C865 1.415 . S
C864 C863 1.355 . S
C864 C866 1.419 . S
C865 C860 1.425 . S
C865 C862 1.409 . S
C865 C863 1.415 . S
C866 H856 0.930 . S
C866 C864 1.419 . S
C866 C867 1.362 . S
C867 H857 0.930 . S
C867 C860 1.409 . S
C867 C866 1.362 . S
H868 C874 0.930 . S
H869 C877 0.930 . S
H870 C878 0.930 . S
H871 C879 0.930 . S
H872 C882 0.930 . S
H873 C883 0.930 . S
C874 H868 0.930 . S
C874 C875 1.355 . S
C874 C876 1.415 . S
C875 C874 1.355 . S
C875 C877 1.419 . S
C876 C874 1.415 . S
C876 C881 1.425 . S
C876 C883 1.409 . S
C877 H869 0.930 . S
C877 C875 1.419 . S
C877 C878 1.362 . S
C878 H870 0.930 . S
C878 C877 1.362 . S
C878 C881 1.409 . S
C879 H871 0.930 . S
C879 C880 1.355 . S
C879 C881 1.415 . S
C880 C879 1.355 . S
C880 C882 1.419 . S
C881 C876 1.425 . S
C881 C878 1.409 . S
C881 C879 1.415 . S
C882 H872 0.930 . S
C882 C880 1.419 . S
C882 C883 1.362 . S
C883 H873 0.930 . S
C883 C876 1.409 . S
C883 C882 1.362 . S
H884 C890 0.930 . S
H885 C893 0.930 . S
H886 C894 0.930 . S
H887 C895 0.930 . S
H888 C898 0.930 . S
H889 C899 0.930 . S
C890 H884 0.930 . S
C890 C891 1.355 . S
C890 C892 1.415 . S
C891 C890 1.355 . S
C891 C893 1.419 . S
C892 C890 1.415 . S
C892 C897 1.425 . S
C892 C899 1.409 . S
C893 H885 0.930 . S
C893 C891 1.419 . S
C893 C894 1.362 . S
C894 H886 0.930 . S
C894 C893 1.362 . S
C894 C897 1.409 . S
C895 H887 0.930 . S
C895 C896 1.355 . S
C895 C897 1.415 . S
C896 C895 1.355 . S
C896 C898 1.419 . S
C897 C892 1.425 . S
C897 C894 1.409 . S
C897 C895 1.415 . S
C898 H888 0.930 . S
C898 C896 1.419 . S
C898 C899 1.362 . S
C899 H889 0.930 . S
C899 C892 1.409 . S
C899 C898 1.362 . S
H900 C906 0.930 . S
H901 C909 0.930 . S
H902 C910 0.930 . S
H903 C911 0.930 . S
H904 C914 0.930 . S
H905 C915 0.930 . S
C906 H900 0.930 . S
C906 C907 1.355 . S
C906 C908 1.415 . S
C907 C906 1.355 . S
C907 C909 1.419 . S
C908 C906 1.415 . S
C908 C913 1.425 . S
C908 C915 1.409 . S
C909 H901 0.930 . S
C909 C907 1.419 . S
C909 C910 1.362 . S
C910 H902 0.930 . S
C910 C909 1.362 . S
C910 C913 1.409 . S
C911 H903 0.930 . S
C911 C912 1.355 . S
C911 C913 1.415 . S
C912 C911 1.355 . S
C912 C914 1.419 . S
C913 C908 1.425 . S
C913 C910 1.409 . S
C913 C911 1.415 . S
C914 H904 0.930 . S
C914 C912 1.419 . S
C914 C915 1.362 . S
C915 H905 0.930 . S
C915 C908 1.409 . S
C915 C914 1.362 . S
H916 C922 0.930 . S
H917 C925 0.930 . S
H918 C926 0.930 . S
H919 C927 0.930 . S
H920 C930 0.930 . S
H921 C931 0.930 . S
C922 H916 0.930 . S
C922 C923 1.355 . S
C922 C924 1.415 . S
C923 C922 1.355 . S
C923 C925 1.419 . S
C924 C922 1.415 . S
C924 C929 1.425 . S
C924 C931 1.409 . S
C925 H917 0.930 . S
C925 C923 1.419 . S
C925 C926 1.362 . S
C926 H918 0.930 . S
C926 C925 1.362 . S
C926 C929 1.409 . S
C927 H919 0.930 . S
C927 C928 1.355 . S
C927 C929 1.415 . S
C928 C927 1.355 . S
C928 C930 1.419 . S
C929 C924 1.425 . S
C929 C926 1.409 . S
C929 C927 1.415 . S
C930 H920 0.930 . S
C930 C928 1.419 . S
C930 C931 1.362 . S
C931 H921 0.930 . S
C931 C924 1.409 . S
C931 C930 1.362 . S
H932 C938 0.930 . S
H933 C941 0.930 . S
H934 C942 0.930 . S
H935 C943 0.930 . S
H936 C946 0.930 . S
H937 C947 0.930 . S
C938 H932 0.930 . S
C938 C939 1.355 . S
C938 C940 1.415 . S
C939 C938 1.355 . S
C939 C941 1.419 . S
C940 C938 1.415 . S
C940 C945 1.425 . S
C940 C947 1.409 . S
C941 H933 0.930 . S
C941 C939 1.419 . S
C941 C942 1.362 . S
C942 H934 0.930 . S
C942 C941 1.362 . S
C942 C945 1.409 . S
C943 H935 0.930 . S
C943 C944 1.355 . S
C943 C945 1.415 . S
C944 C943 1.355 . S
C944 C946 1.419 . S
C945 C940 1.425 . S
C945 C942 1.409 . S
C945 C943 1.415 . S
C946 H936 0.930 . S
C946 C944 1.419 . S
C946 C947 1.362 . S
C947 H937 0.930 . S
C947 C940 1.409 . S
C947 C946 1.362 . S
H948 C954 0.930 . S
H949 C957 0.930 . S
H950 C958 0.930 . S
H951 C959 0.930 . S
H952 C962 0.930 . S
H953 C963 0.930 . S
C954 H948 0.930 . S
C954 C955 1.355 . S
C954 C956 1.415 . S
C955 C954 1.355 . S
C955 C957 1.419 . S
C956 C954 1.415 . S
C956 C961 1.425 . S
C956 C963 1.409 . S
C957 H949 0.930 . S
C957 C955 1.419 . S
C957 C958 1.362 . S
C958 H950 0.930 . S
C958 C957 1.362 . S
C958 C961 1.409 . S
C959 H951 0.930 . S
C959 C960 1.355 . S
C959 C961 1.415 . S
C960 C959 1.355 . S
C960 C962 1.419 . S
C961 C956 1.425 . S
C961 C958 1.409 . S
C961 C959 1.415 . S
C962 H952 0.930 . S
C962 C960 1.419 . S
C962 C963 1.362 . S
C963 H953 0.930 . S
C963 C956 1.409 . S
C963 C962 1.362 . S
H964 C970 0.930 . S
H965 C973 0.930 . S
H966 C974 0.930 . S
H967 C975 0.930 . S
H968 C978 0.930 . S
H969 C979 0.930 . S
C970 H964 0.930 . S
C970 C971 1.355 . S
C970 C972 1.415 . S
C971 C970 1.355 . S
C971 C973 1.419 . S
C972 C970 1.415 . S
C972 C977 1.425 . S
C972 C979 1.409 . S
C973 H965 0.930 . S
C973 C971 1.419 . S
C973 C974 1.362 . S
C974 H966 0.930 . S
C974 C973 1.362 . S
C974 C977 1.409 . S
C975 H967 0.930 . S
C975 C976 1.355 . S
C975 C977 1.415 . S
C976 C975 1.355 . S
C976 C978 1.419 . S
C977 C972 1.425 . S
C977 C974 1.409 . S
C977 C975 1.415 . S
C978 H968 0.930 . S
C978 C976 1.419 . S
C978 C979 1.362 . S
C979 H969 0.930 . S
C979 C972 1.409 . S
C979 C978 1.362 . S
H980 C986 0.930 . S
H981 C989 0.930 . S
H982 C990 0.930 . S
H983 C991 0.930 . S
H984 C994 0.930 . S
H985 C995 0.930 . S
C986 H980 0.930 . S
C986 C987 1.355 . S
C986 C988 1.415 . S
C987 C986 1.355 . S
C987 C989 1.419 . S
C988 C986 1.415 . S
C988 C993 1.425 . S
C988 C995 1.409 . S
C989 H981 0.930 . S
C989 C987 1.419 . S
C989 C990 1.362 . S
C990 H982 0.930 . S
C990 C989 1.362 . S
C990 C993 1.409 . S
C991 H983 0.930 . S
C991 C992 1.355 . S
C991 C993 1.415 . S
C992 C991 1.355 . S
C992 C994 1.419 . S
C993 C988 1.425 . S
C993 C990 1.409 . S
C993 C991 1.415 . S
C994 H984 0.930 . S
C994 C992 1.419 . S
C994 C995 1.362 . S
C995 H985 0.930 . S
C995 C988 1.409 . S
C995 C994 1.362 . S
H996 C1002 0.938 . S
H997 C1005 0.930 . S
H998 C1006 0.930 . S
H999 C1007 0.945 . S
H1000 C1010 0.930 . S
H1001 C1011 0.930 . S
C1002 H996 0.938 . S
C1002 C1003 1.346 1_455 S
C1002 C1004 1.415 . S
C1003 C1002 1.346 1_655 S
C1003 C1005 1.419 . S
C1004 C1002 1.415 . S
C1004 C1009 1.425 1_454 S
C1004 C1011 1.409 1_554 S
C1005 H997 0.930 . S
C1005 C1003 1.419 . S
C1005 C1006 1.362 . S
C1006 H998 0.930 . S
C1006 C1005 1.362 . S
C1006 C1009 1.409 1_554 S
C1007 H999 0.945 . S
C1007 C1008 1.339 1_655 S
C1007 C1009 1.416 . S
C1008 C1007 1.339 1_455 S
C1008 C1010 1.419 . S
C1009 C1004 1.425 1_656 S
C1009 C1006 1.409 1_556 S
C1009 C1007 1.416 . S
C1010 H1000 0.930 . S
C1010 C1008 1.419 . S
C1010 C1011 1.362 . S
C1011 H1001 0.930 . S
C1011 C1004 1.409 1_556 S
C1011 C1010 1.362 . S
H1012 C1018 0.930 . S
H1013 C1021 0.930 . S
H1014 C1022 0.930 . S
H1015 C1023 0.930 . S
H1016 C1026 0.930 . S
H1017 C1027 0.930 . S
C1018 H1012 0.930 . S
C1018 C1019 1.355 . S
C1018 C1020 1.415 . S
C1019 C1018 1.355 . S
C1019 C1021 1.419 . S
C1020 C1018 1.415 . S
C1020 C1025 1.425 1_556 S
C1020 C1027 1.409 1_556 S
C1021 H1013 0.930 . S
C1021 C1019 1.419 . S
C1021 C1022 1.362 . S
C1022 H1014 0.930 . S
C1022 C1021 1.362 . S
C1022 C1025 1.409 1_556 S
C1023 H1015 0.930 . S
C1023 C1024 1.355 . S
C1023 C1025 1.415 . S
C1024 C1023 1.355 . S
C1024 C1026 1.419 . S
C1025 C1020 1.425 1_554 S
C1025 C1022 1.409 1_554 S
C1025 C1023 1.415 . S
C1026 H1016 0.930 . S
C1026 C1024 1.419 . S
C1026 C1027 1.362 . S
C1027 H1017 0.930 . S
C1027 C1020 1.409 1_554 S
C1027 C1026 1.362 . S
H1028 C1034 0.930 . S
H1029 C1037 0.930 . S
H1030 C1038 0.930 . S
H1031 C1039 0.930 . S
H1032 C1042 0.930 . S
H1033 C1043 0.930 . S
C1034 H1028 0.930 . S
C1034 C1035 1.355 . S
C1034 C1036 1.415 . S
C1035 C1034 1.355 . S
C1035 C1037 1.419 1_565 S
C1036 C1034 1.415 . S
C1036 C1041 1.425 1_566 S
C1036 C1043 1.409 1_556 S
C1037 H1029 0.930 . S
C1037 C1035 1.419 1_545 S
C1037 C1038 1.362 . S
C1038 H1030 0.930 . S
C1038 C1037 1.362 . S
C1038 C1041 1.409 1_556 S
C1039 H1031 0.930 . S
C1039 C1040 1.355 . S
C1039 C1041 1.415 . S
C1040 C1039 1.355 . S
C1040 C1042 1.419 1_545 S
C1041 C1036 1.425 1_544 S
C1041 C1038 1.409 1_554 S
C1041 C1039 1.415 . S
C1042 H1032 0.930 . S
C1042 C1040 1.419 1_565 S
C1042 C1043 1.362 . S
C1043 H1033 0.930 . S
C1043 C1036 1.409 1_554 S
C1043 C1042 1.362 . S
H1044 C1050 0.930 . S
H1045 C1053 0.930 . S
H1046 C1054 0.930 . S
H1047 C1055 0.930 . S
H1048 C1058 0.930 . S
H1049 C1059 0.930 . S
C1050 H1044 0.930 . S
C1050 C1051 1.355 . S
C1050 C1052 1.415 . S
C1051 C1050 1.355 . S
C1051 C1053 1.419 . S
C1052 C1050 1.415 . S
C1052 C1057 1.425 . S
C1052 C1059 1.409 . S
C1053 H1045 0.930 . S
C1053 C1051 1.419 . S
C1053 C1054 1.362 . S
C1054 H1046 0.930 . S
C1054 C1053 1.362 . S
C1054 C1057 1.409 . S
C1055 H1047 0.930 . S
C1055 C1056 1.355 . S
C1055 C1057 1.415 . S
C1056 C1055 1.355 . S
C1056 C1058 1.419 . S
C1057 C1052 1.425 . S
C1057 C1054 1.409 . S
C1057 C1055 1.415 . S
C1058 H1048 0.930 . S
C1058 C1056 1.419 . S
C1058 C1059 1.362 . S
C1059 H1049 0.930 . S
C1059 C1052 1.409 . S
C1059 C1058 1.362 . S
H1060 C1066 0.930 . S
H1061 C1069 0.930 . S
H1062 C1070 0.930 . S
H1063 C1071 0.930 . S
H1064 C1074 0.930 . S
H1065 C1075 0.930 . S
C1066 H1060 0.930 . S
C1066 C1067 1.355 . S
C1066 C1068 1.415 . S
C1067 C1066 1.355 . S
C1067 C1069 1.419 . S
C1068 C1066 1.415 . S
C1068 C1073 1.425 . S
C1068 C1075 1.409 . S
C1069 H1061 0.930 . S
C1069 C1067 1.419 . S
C1069 C1070 1.362 . S
C1070 H1062 0.930 . S
C1070 C1069 1.362 . S
C1070 C1073 1.409 . S
C1071 H1063 0.930 . S
C1071 C1072 1.355 . S
C1071 C1073 1.415 . S
C1072 C1071 1.355 . S
C1072 C1074 1.419 . S
C1073 C1068 1.425 . S
C1073 C1070 1.409 . S
C1073 C1071 1.415 . S
C1074 H1064 0.930 . S
C1074 C1072 1.419 . S
C1074 C1075 1.362 . S
C1075 H1065 0.930 . S
C1075 C1068 1.409 . S
C1075 C1074 1.362 . S
H1076 C1082 0.930 . S
H1077 C1085 0.930 . S
H1078 C1086 0.930 . S
H1079 C1087 0.930 . S
H1080 C1090 0.930 . S
H1081 C1091 0.930 . S
C1082 H1076 0.930 . S
C1082 C1083 1.355 . S
C1082 C1084 1.415 . S
C1083 C1082 1.355 . S
C1083 C1085 1.419 . S
C1084 C1082 1.415 . S
C1084 C1089 1.425 . S
C1084 C1091 1.409 . S
C1085 H1077 0.930 . S
C1085 C1083 1.419 . S
C1085 C1086 1.362 . S
C1086 H1078 0.930 . S
C1086 C1085 1.362 . S
C1086 C1089 1.409 . S
C1087 H1079 0.930 . S
C1087 C1088 1.355 . S
C1087 C1089 1.415 . S
C1088 C1087 1.355 . S
C1088 C1090 1.419 . S
C1089 C1084 1.425 . S
C1089 C1086 1.409 . S
C1089 C1087 1.415 . S
C1090 H1080 0.930 . S
C1090 C1088 1.419 . S
C1090 C1091 1.362 . S
C1091 H1081 0.930 . S
C1091 C1084 1.409 . S
C1091 C1090 1.362 . S
H1092 C1098 0.930 . S
H1093 C1101 0.930 . S
H1094 C1102 0.930 . S
H1095 C1103 0.930 . S
H1096 C1106 0.930 . S
H1097 C1107 0.930 . S
C1098 H1092 0.930 . S
C1098 C1099 1.355 . S
C1098 C1100 1.415 . S
C1099 C1098 1.355 . S
C1099 C1101 1.419 . S
C1100 C1098 1.415 . S
C1100 C1105 1.425 . S
C1100 C1107 1.409 . S
C1101 H1093 0.930 . S
C1101 C1099 1.419 . S
C1101 C1102 1.362 . S
C1102 H1094 0.930 . S
C1102 C1101 1.362 . S
C1102 C1105 1.409 . S
C1103 H1095 0.930 . S
C1103 C1104 1.355 . S
C1103 C1105 1.415 . S
C1104 C1103 1.355 . S
C1104 C1106 1.419 . S
C1105 C1100 1.425 . S
C1105 C1102 1.409 . S
C1105 C1103 1.415 . S
C1106 H1096 0.930 . S
C1106 C1104 1.419 . S
C1106 C1107 1.362 . S
C1107 H1097 0.930 . S
C1107 C1100 1.409 . S
C1107 C1106 1.362 . S
H1108 C1114 0.930 . S
H1109 C1117 0.930 . S
H1110 C1118 0.930 . S
H1111 C1119 0.930 . S
H1112 C1122 0.930 . S
H1113 C1123 0.930 . S
C1114 H1108 0.930 . S
C1114 C1115 1.355 . S
C1114 C1116 1.415 . S
C1115 C1114 1.355 . S
C1115 C1117 1.419 . S
C1116 C1114 1.415 . S
C1116 C1121 1.425 . S
C1116 C1123 1.409 . S
C1117 H1109 0.930 . S
C1117 C1115 1.419 . S
C1117 C1118 1.362 . S
C1118 H1110 0.930 . S
C1118 C1117 1.362 . S
C1118 C1121 1.409 . S
C1119 H1111 0.930 . S
C1119 C1120 1.355 . S
C1119 C1121 1.415 . S
C1120 C1119 1.355 . S
C1120 C1122 1.419 . S
C1121 C1116 1.425 . S
C1121 C1118 1.409 . S
C1121 C1119 1.415 . S
C1122 H1112 0.930 . S
C1122 C1120 1.419 . S
C1122 C1123 1.362 . S
C1123 H1113 0.930 . S
C1123 C1116 1.409 . S
C1123 C1122 1.362 . S
H1124 C1130 0.930 . S
H1125 C1133 0.930 . S
H1126 C1134 0.930 . S
H1127 C1135 0.930 . S
H1128 C1138 0.930 . S
H1129 C1139 0.930 . S
C1130 H1124 0.930 . S
C1130 C1131 1.355 . S
C1130 C1132 1.415 . S
C1131 C1130 1.355 . S
C1131 C1133 1.419 . S
C1132 C1130 1.415 . S
C1132 C1137 1.425 . S
C1132 C1139 1.409 . S
C1133 H1125 0.930 . S
C1133 C1131 1.419 . S
C1133 C1134 1.362 . S
C1134 H1126 0.930 . S
C1134 C1133 1.362 . S
C1134 C1137 1.409 . S
C1135 H1127 0.930 . S
C1135 C1136 1.355 . S
C1135 C1137 1.415 . S
C1136 C1135 1.355 . S
C1136 C1138 1.419 . S
C1137 C1132 1.425 . S
C1137 C1134 1.409 . S
C1137 C1135 1.415 . S
C1138 H1128 0.930 . S
C1138 C1136 1.419 . S
C1138 C1139 1.362 . S
C1139 H1129 0.930 . S
C1139 C1132 1.409 . S
C1139 C1138 1.362 . S
H1140 C1146 0.930 . S
H1141 C1149 0.930 . S
H1142 C1150 0.930 . S
H1143 C1151 0.930 . S
H1144 C1154 0.930 . S
H1145 C1155 0.930 . S
C1146 H1140 0.930 . S
C1146 C1147 1.355 . S
C1146 C1148 1.415 . S
C1147 C1146 1.355 . S
C1147 C1149 1.419 . S
C1148 C1146 1.415 . S
C1148 C1153 1.425 . S
C1148 C1155 1.409 . S
C1149 H1141 0.930 . S
C1149 C1147 1.419 . S
C1149 C1150 1.362 . S
C1150 H1142 0.930 . S
C1150 C1149 1.362 . S
C1150 C1153 1.409 . S
C1151 H1143 0.930 . S
C1151 C1152 1.355 . S
C1151 C1153 1.415 . S
C1152 C1151 1.355 . S
C1152 C1154 1.419 . S
C1153 C1148 1.425 . S
C1153 C1150 1.409 . S
C1153 C1151 1.415 . S
C1154 H1144 0.930 . S
C1154 C1152 1.419 . S
C1154 C1155 1.362 . S
C1155 H1145 0.930 . S
C1155 C1148 1.409 . S
C1155 C1154 1.362 . S
H1156 C1162 0.930 . S
H1157 C1165 0.930 . S
H1158 C1166 0.930 . S
H1159 C1167 0.930 . S
H1160 C1170 0.930 . S
H1161 C1171 0.930 . S
C1162 H1156 0.930 . S
C1162 C1163 1.355 . S
C1162 C1164 1.415 . S
C1163 C1162 1.355 . S
C1163 C1165 1.419 . S
C1164 C1162 1.415 . S
C1164 C1169 1.425 . S
C1164 C1171 1.409 . S
C1165 H1157 0.930 . S
C1165 C1163 1.419 . S
C1165 C1166 1.362 . S
C1166 H1158 0.930 . S
C1166 C1165 1.362 . S
C1166 C1169 1.409 . S
C1167 H1159 0.930 . S
C1167 C1168 1.355 . S
C1167 C1169 1.415 . S
C1168 C1167 1.355 . S
C1168 C1170 1.419 . S
C1169 C1164 1.425 . S
C1169 C1166 1.409 . S
C1169 C1167 1.415 . S
C1170 H1160 0.930 . S
C1170 C1168 1.419 . S
C1170 C1171 1.362 . S
C1171 H1161 0.930 . S
C1171 C1164 1.409 . S
C1171 C1170 1.362 . S
H1172 C1178 0.930 . S
H1173 C1181 0.930 . S
H1174 C1182 0.930 . S
H1175 C1183 0.930 . S
H1176 C1186 0.930 . S
H1177 C1187 0.930 . S
C1178 H1172 0.930 . S
C1178 C1179 1.355 . S
C1178 C1180 1.415 . S
C1179 C1178 1.355 . S
C1179 C1181 1.419 . S
C1180 C1178 1.415 . S
C1180 C1185 1.425 . S
C1180 C1187 1.409 . S
C1181 H1173 0.930 . S
C1181 C1179 1.419 . S
C1181 C1182 1.362 . S
C1182 H1174 0.930 . S
C1182 C1181 1.362 . S
C1182 C1185 1.409 . S
C1183 H1175 0.930 . S
C1183 C1184 1.355 . S
C1183 C1185 1.415 . S
C1184 C1183 1.355 . S
C1184 C1186 1.419 . S
C1185 C1180 1.425 . S
C1185 C1182 1.409 . S
C1185 C1183 1.415 . S
C1186 H1176 0.930 . S
C1186 C1184 1.419 . S
C1186 C1187 1.362 . S
C1187 H1177 0.930 . S
C1187 C1180 1.409 . S
C1187 C1186 1.362 . S
H1188 C1194 0.930 . S
H1189 C1197 0.930 . S
H1190 C1198 0.930 . S
H1191 C1199 0.930 . S
H1192 C1202 0.930 . S
H1193 C1203 0.930 . S
C1194 H1188 0.930 . S
C1194 C1195 1.355 . S
C1194 C1196 1.415 . S
C1195 C1194 1.355 . S
C1195 C1197 1.419 . S
C1196 C1194 1.415 . S
C1196 C1201 1.425 . S
C1196 C1203 1.409 . S
C1197 H1189 0.930 . S
C1197 C1195 1.419 . S
C1197 C1198 1.362 . S
C1198 H1190 0.930 . S
C1198 C1197 1.362 . S
C1198 C1201 1.409 . S
C1199 H1191 0.930 . S
C1199 C1200 1.355 . S
C1199 C1201 1.415 . S
C1200 C1199 1.355 . S
C1200 C1202 1.419 . S
C1201 C1196 1.425 . S
C1201 C1198 1.409 . S
C1201 C1199 1.415 . S
C1202 H1192 0.930 . S
C1202 C1200 1.419 . S
C1202 C1203 1.362 . S
C1203 H1193 0.930 . S
C1203 C1196 1.409 . S
C1203 C1202 1.362 . S
H1204 C1210 0.930 . S
H1205 C1213 0.930 . S
H1206 C1214 0.930 . S
H1207 C1215 0.930 . S
H1208 C1218 0.930 . S
H1209 C1219 0.930 . S
C1210 H1204 0.930 . S
C1210 C1211 1.355 . S
C1210 C1212 1.415 . S
C1211 C1210 1.355 . S
C1211 C1213 1.419 . S
C1212 C1210 1.415 . S
C1212 C1217 1.425 . S
C1212 C1219 1.409 . S
C1213 H1205 0.930 . S
C1213 C1211 1.419 . S
C1213 C1214 1.362 . S
C1214 H1206 0.930 . S
C1214 C1213 1.362 . S
C1214 C1217 1.409 . S
C1215 H1207 0.930 . S
C1215 C1216 1.355 . S
C1215 C1217 1.415 . S
C1216 C1215 1.355 . S
C1216 C1218 1.419 . S
C1217 C1212 1.425 . S
C1217 C1214 1.409 . S
C1217 C1215 1.415 . S
C1218 H1208 0.930 . S
C1218 C1216 1.419 . S
C1218 C1219 1.362 . S
C1219 H1209 0.930 . S
C1219 C1212 1.409 . S
C1219 C1218 1.362 . S
H1220 C1226 0.930 . S
H1221 C1229 0.930 . S
H1222 C1230 0.930 . S
H1223 C1231 0.930 . S
H1224 C1234 0.930 . S
H1225 C1235 0.930 . S
C1226 H1220 0.930 . S
C1226 C1227 1.355 . S
C1226 C1228 1.415 . S
C1227 C1226 1.355 . S
C1227 C1229 1.419 . S
C1228 C1226 1.415 . S
C1228 C1233 1.425 . S
C1228 C1235 1.409 . S
C1229 H1221 0.930 . S
C1229 C1227 1.419 . S
C1229 C1230 1.362 . S
C1230 H1222 0.930 . S
C1230 C1229 1.362 . S
C1230 C1233 1.409 . S
C1231 H1223 0.930 . S
C1231 C1232 1.355 . S
C1231 C1233 1.415 . S
C1232 C1231 1.355 . S
C1232 C1234 1.419 . S
C1233 C1228 1.425 . S
C1233 C1230 1.409 . S
C1233 C1231 1.415 . S
C1234 H1224 0.930 . S
C1234 C1232 1.419 . S
C1234 C1235 1.362 . S
C1235 H1225 0.930 . S
C1235 C1228 1.409 . S
C1235 C1234 1.362 . S
H1236 C1242 0.930 . S
H1237 C1245 0.930 . S
H1238 C1246 0.930 . S
H1239 C1247 0.930 . S
H1240 C1250 0.930 . S
H1241 C1251 0.930 . S
C1242 H1236 0.930 . S
C1242 C1243 1.355 . S
C1242 C1244 1.415 . S
C1243 C1242 1.355 . S
C1243 C1245 1.419 . S
C1244 C1242 1.415 . S
C1244 C1249 1.425 1_455 S
C1244 C1251 1.409 1_455 S
C1245 H1237 0.930 . S
C1245 C1243 1.419 . S
C1245 C1246 1.362 . S
C1246 H1238 0.930 . S
C1246 C1245 1.362 . S
C1246 C1249 1.409 1_455 S
C1247 H1239 0.930 . S
C1247 C1248 1.355 . S
C1247 C1249 1.415 . S
C1248 C1247 1.355 . S
C1248 C1250 1.419 . S
C1249 C1244 1.425 1_655 S
C1249 C1246 1.409 1_655 S
C1249 C1247 1.415 . S
C1250 H1240 0.930 . S
C1250 C1248 1.419 . S
C1250 C1251 1.362 . S
C1251 H1241 0.930 . S
C1251 C1244 1.409 1_655 S
C1251 C1250 1.362 . S
H1252 C1258 0.930 . S
H1253 C1261 0.930 . S
H1254 C1262 0.930 . S
H1255 C1263 0.930 . S
H1256 C1266 0.930 . S
H1257 C1267 0.930 . S
C1258 H1252 0.930 . S
C1258 C1259 1.355 . S
C1258 C1260 1.415 . S
C1259 C1258 1.355 . S
C1259 C1261 1.419 . S
C1260 C1258 1.415 . S
C1260 C1265 1.425 . S
C1260 C1267 1.409 . S
C1261 H1253 0.930 . S
C1261 C1259 1.419 . S
C1261 C1262 1.362 . S
C1262 H1254 0.930 . S
C1262 C1261 1.362 . S
C1262 C1265 1.409 . S
C1263 H1255 0.930 . S
C1263 C1264 1.355 . S
C1263 C1265 1.415 . S
C1264 C1263 1.355 . S
C1264 C1266 1.419 . S
C1265 C1260 1.425 . S
C1265 C1262 1.409 . S
C1265 C1263 1.415 . S
C1266 H1256 0.930 . S
C1266 C1264 1.419 . S
C1266 C1267 1.362 . S
C1267 H1257 0.930 . S
C1267 C1260 1.409 . S
C1267 C1266 1.362 . S
H1268 C1274 0.930 . S
H1269 C1277 0.930 . S
H1270 C1278 0.930 1_545 S
H1271 C1279 0.930 . S
H1272 C1282 0.930 . S
H1273 C1283 0.930 1_565 S
C1274 H1268 0.930 . S
C1274 C1275 1.355 . S
C1274 C1276 1.415 . S
C1275 C1274 1.355 . S
C1275 C1277 1.419 . S
C1276 C1274 1.415 . S
C1276 C1281 1.425 1_565 S
C1276 C1283 1.409 1_565 S
C1277 H1269 0.930 . S
C1277 C1275 1.419 . S
C1277 C1278 1.362 . S
C1278 H1270 0.930 1_565 S
C1278 C1277 1.362 . S
C1278 C1281 1.409 1_565 S
C1279 H1271 0.930 . S
C1279 C1280 1.355 . S
C1279 C1281 1.415 . S
C1280 C1279 1.355 . S
C1280 C1282 1.419 . S
C1281 C1276 1.425 1_545 S
C1281 C1278 1.409 1_545 S
C1281 C1279 1.415 . S
C1282 H1272 0.930 . S
C1282 C1280 1.419 . S
C1282 C1283 1.362 . S
C1283 H1273 0.930 1_545 S
C1283 C1276 1.409 1_545 S
C1283 C1282 1.362 . S
H1284 C1290 0.930 . S
H1285 C1293 0.930 . S
H1286 C1294 0.930 . S
H1287 C1295 0.930 . S
H1288 C1298 0.930 . S
H1289 C1299 0.930 . S
C1290 H1284 0.930 . S
C1290 C1291 1.355 . S
C1290 C1292 1.415 . S
C1291 C1290 1.355 . S
C1291 C1293 1.419 . S
C1292 C1290 1.415 . S
C1292 C1297 1.425 1_565 S
C1292 C1299 1.409 1_565 S
C1293 H1285 0.930 . S
C1293 C1291 1.419 . S
C1293 C1294 1.362 . S
C1294 H1286 0.930 . S
C1294 C1293 1.362 . S
C1294 C1297 1.409 1_565 S
C1295 H1287 0.930 . S
C1295 C1296 1.355 . S
C1295 C1297 1.415 . S
C1296 C1295 1.355 . S
C1296 C1298 1.419 . S
C1297 C1292 1.425 1_545 S
C1297 C1294 1.409 1_545 S
C1297 C1295 1.415 . S
C1298 H1288 0.930 . S
C1298 C1296 1.419 . S
C1298 C1299 1.362 . S
C1299 H1289 0.930 . S
C1299 C1292 1.409 1_545 S
C1299 C1298 1.362 . S
H1300 C1306 0.930 . S
H1301 C1309 0.930 . S
H1302 C1310 0.956 . S
H1303 C1311 0.930 . S
H1304 C1314 0.930 . S
H1305 C1315 0.931 . S
C1306 H1300 0.930 . S
C1306 C1307 1.355 . S
C1306 C1308 1.415 . S
C1307 C1306 1.355 . S
C1307 C1309 1.419 . S
C1308 C1306 1.415 . S
C1308 C1313 1.425 1_455 S
C1308 C1315 1.409 1_455 S
C1309 H1301 0.930 . S
C1309 C1307 1.419 . S
C1309 C1310 1.362 . S
C1310 H1302 0.956 . S
C1310 C1309 1.362 . S
C1310 C1313 1.409 1_455 S
C1311 H1303 0.930 . S
C1311 C1312 1.355 . S
C1311 C1313 1.415 . S
C1312 C1311 1.355 . S
C1312 C1314 1.419 . S
C1313 C1308 1.425 1_655 S
C1313 C1310 1.409 1_655 S
C1313 C1311 1.415 . S
C1314 H1304 0.930 . S
C1314 C1312 1.419 . S
C1314 C1315 1.362 . S
C1315 H1305 0.931 . S
C1315 C1308 1.409 1_655 S
C1315 C1314 1.362 . S
H1316 C1322 0.930 . S
H1317 C1325 0.930 . S
H1318 C1326 0.930 . S
H1319 C1327 0.930 . S
H1320 C1330 0.930 . S
H1321 C1331 0.930 . S
C1322 H1316 0.930 . S
C1322 C1323 1.355 . S
C1322 C1324 1.415 . S
C1323 C1322 1.355 . S
C1323 C1325 1.419 . S
C1324 C1322 1.415 . S
C1324 C1329 1.425 . S
C1324 C1331 1.409 . S
C1325 H1317 0.930 . S
C1325 C1323 1.419 . S
C1325 C1326 1.362 . S
C1326 H1318 0.930 . S
C1326 C1325 1.362 . S
C1326 C1329 1.409 . S
C1327 H1319 0.930 . S
C1327 C1328 1.355 . S
C1327 C1329 1.415 . S
C1328 C1327 1.355 . S
C1328 C1330 1.419 . S
C1329 C1324 1.425 . S
C1329 C1326 1.409 . S
C1329 C1327 1.415 . S
C1330 H1320 0.930 . S
C1330 C1328 1.419 . S
C1330 C1331 1.362 . S
C1331 H1321 0.930 . S
C1331 C1324 1.409 . S
C1331 C1330 1.362 . S
C619 C111 0.763 . S
C624 C9 0.736 . S
C635 C43 0.635 . S
C640 C145 0.589 . S
C651 C77 0.674 . S
C656 C179 0.597 . S
C667 C190 2.448 . S
C672 C54 2.457 . S
C683 C122 2.357 . S
C688 C88 2.348 . S
C699 C156 2.366 . S
C704 C20 2.362 . S
C715 C315 0.651 . S
C720 C213 0.584 . S
C731 C349 0.608 . S
C736 C247 0.652 . S
C747 C281 0.573 . S
C752 C383 0.624 . S
C763 C394 2.295 . S
C768 C258 2.304 . S
C779 C326 2.277 . S
C784 C292 2.295 . S
C795 C224 2.381 . S
C800 C360 2.391 . S
C811 C519 0.635 . S
C816 C417 0.651 . S
C827 C451 0.622 . S
C832 C553 0.572 . S
C843 C485 0.661 . S
C848 C587 0.703 . S
C859 C462 2.291 . S
C864 C598 2.303 . S
C875 C530 2.397 . S
C880 C496 2.388 . S
C891 C564 2.287 . S
C896 C428 2.267 . S
C907 C611 1.713 . S
C912 C33 1.716 . S
C923 C543 1.704 . S
C928 C67 1.701 . S
C939 C101 1.654 . S
C944 C577 1.658 . S
C955 C135 1.692 . S
C960 C271 1.690 . S
C971 C305 1.663 . S
C976 C169 1.660 . S
C987 C237 1.690 . S
C992 C203 1.692 . S
C1003 C339 1.633 . S
C1008 C475 1.636 . S
C1019 C509 1.752 . S
C1024 C373 1.752 . S
C1035 C441 1.624 . S
C1040 C407 1.622 . S
C1051 C2 1.865 . S
C1056 C342 1.870 . S
C1067 C376 2.029 . S
C1072 C36 2.017 . S
C1083 C308 2.038 . S
C1088 C70 2.006 . S
C1099 C104 1.865 . S
C1104 C478 1.888 . S
C1115 C410 2.031 . S
C1120 C138 1.991 . S
C1131 C172 2.024 . S
C1136 C444 2.017 . S
C1147 C481 0.351 . S
C1152 C175 0.321 . S
C1163 C107 0.138 . S
C1168 C413 0.065 . S
C1179 C447 0.353 . S
C1184 C141 0.404 . S
C1195 C39 0.310 . S
C1200 C345 0.273 . S
C1211 C73 0.221 . S
C1216 C379 0.241 . S
C1227 C311 0.161 . S
C1232 C5 0.127 . S
C1243 C546 1.927 . S
C1248 C206 1.945 . S
C1259 C240 1.808 . S
C1264 C580 1.825 . S
C1275 C512 1.944 . S
C1280 C274 1.935 . S
C1291 C549 0.156 . S
C1296 C243 0.067 . S
C1307 C583 0.118 . S
C1312 C277 0.210 . S
C1323 C515 0.168 . S
C1328 C209 0.201 . S
