# Generated by pormake.
# Topology smc, (6)-cn, num edge types: 1
# Building blocks:
#     Node 0, Type 0, BuildingBlock: JUFBIX_clean_sbu_0, # of connection points: 6
#     Node 1, Type 0, BuildingBlock: JUFBIX_clean_sbu_0, # of connection points: 6
#     Node 2, Type 0, BuildingBlock: JUFBIX_clean_sbu_0, # of connection points: 6
#     Node 3, Type 0, BuildingBlock: JUFBIX_clean_sbu_0, # of connection points: 6
#     Node 4, Type 0, BuildingBlock: JUFBIX_clean_sbu_0, # of connection points: 6
#     Node 5, Type 0, BuildingBlock: JUFBIX_clean_sbu_0, # of connection points: 6
#     Node 6, Type 0, BuildingBlock: JUFBIX_clean_sbu_0, # of connection points: 6
#     Node 7, Type 0, BuildingBlock: JUFBIX_clean_sbu_0, # of connection points: 6
#     Node 8, Type 0, BuildingBlock: JUFBIX_clean_sbu_0, # of connection points: 6
#     Edge 9, Type (0, 0), BuildingBlock: XUDNAN_clean_linker_2, # of connection points: 2
#     Edge 10, Type (0, 0), BuildingBlock: XUDNAN_clean_linker_2, # of connection points: 2
#     Edge 11, Type (0, 0), BuildingBlock: XUDNAN_clean_linker_2, # of connection points: 2
#     Edge 12, Type (0, 0), BuildingBlock: XUDNAN_clean_linker_2, # of connection points: 2
#     Edge 13, Type (0, 0), BuildingBlock: XUDNAN_clean_linker_2, # of connection points: 2
#     Edge 14, Type (0, 0), BuildingBlock: XUDNAN_clean_linker_2, # of connection points: 2
#     Edge 15, Type (0, 0), BuildingBlock: XUDNAN_clean_linker_2, # of connection points: 2
#     Edge 16, Type (0, 0), BuildingBlock: XUDNAN_clean_linker_2, # of connection points: 2
#     Edge 17, Type (0, 0), BuildingBlock: XUDNAN_clean_linker_2, # of connection points: 2
#     Edge 18, Type (0, 0), BuildingBlock: XUDNAN_clean_linker_2, # of connection points: 2
#     Edge 19, Type (0, 0), BuildingBlock: XUDNAN_clean_linker_2, # of connection points: 2
#     Edge 20, Type (0, 0), BuildingBlock: XUDNAN_clean_linker_2, # of connection points: 2
#     Edge 21, Type (0, 0), BuildingBlock: XUDNAN_clean_linker_2, # of connection points: 2
#     Edge 22, Type (0, 0), BuildingBlock: XUDNAN_clean_linker_2, # of connection points: 2
#     Edge 23, Type (0, 0), BuildingBlock: XUDNAN_clean_linker_2, # of connection points: 2
#     Edge 24, Type (0, 0), BuildingBlock: XUDNAN_clean_linker_2, # of connection points: 2
#     Edge 25, Type (0, 0), BuildingBlock: XUDNAN_clean_linker_2, # of connection points: 2
#     Edge 26, Type (0, 0), BuildingBlock: XUDNAN_clean_linker_2, # of connection points: 2
#     Edge 27, Type (0, 0), BuildingBlock: XUDNAN_clean_linker_2, # of connection points: 2
#     Edge 28, Type (0, 0), BuildingBlock: XUDNAN_clean_linker_2, # of connection points: 2
#     Edge 29, Type (0, 0), BuildingBlock: XUDNAN_clean_linker_2, # of connection points: 2
#     Edge 30, Type (0, 0), BuildingBlock: XUDNAN_clean_linker_2, # of connection points: 2
#     Edge 31, Type (0, 0), BuildingBlock: XUDNAN_clean_linker_2, # of connection points: 2
#     Edge 32, Type (0, 0), BuildingBlock: XUDNAN_clean_linker_2, # of connection points: 2
#     Edge 33, Type (0, 0), BuildingBlock: XUDNAN_clean_linker_2, # of connection points: 2
#     Edge 34, Type (0, 0), BuildingBlock: XUDNAN_clean_linker_2, # of connection points: 2
#     Edge 35, Type (0, 0), BuildingBlock: XUDNAN_clean_linker_2, # of connection points: 2
# Relax obj value: 0.471
# Max RMSD: 0.315
# Mean RMSD: 0.306
data_MOF--net-smc--node1-JUFBIX_clean_sbu_0--edge1-XUDNAN_clean_linker_2
_symmetry_space_group_name_H-M    P1
_symmetry_Int_Tables_number       1
_symmetry_cell_setting            triclinic
loop_
_symmetry_equiv_pos_as_xyz
'x, y, z'
_cell_length_a     28.753826
_cell_length_b     33.654862
_cell_length_c     40.087004
_cell_angle_alpha  89.445575
_cell_angle_beta   89.780669
_cell_angle_gamma 119.08083
loop_
_atom_site_label
_atom_site_type_symbol
_atom_site_fract_x
_atom_site_fract_y
_atom_site_fract_z
_atom_type_partial_charge
Co0 Co 0.09831 0.5036 1.03403 0.0
C1 C 0.04128 0.44443 0.98177 0.0
Co2 Co 0.03922 0.43521 0.05081 0.0
C3 C 0.15363 0.60142 1.02633 0.0
C4 C 0.18067 0.56846 0.99208 0.0
N5 N 0.14788 0.56042 1.01842 0.0
N6 N 0.18818 0.63471 1.0056 0.0
C7 C 0.20544 0.61392 0.98417 0.0
H8 H 0.13145 0.60629 0.04622 0.0
H9 H 0.18417 0.54252 0.97832 0.0
C10 C 0.09792 0.48877 0.10319 0.0
N11 N 0.98683 0.37804 0.06499 0.0
C12 C 0.93466 0.36079 0.05813 0.0
C13 C 0.98889 0.34758 0.0862 0.0
N14 N 0.90383 0.32148 0.07461 0.0
C15 C 0.93773 0.31252 0.09204 0.0
C16 C 0.14149 0.44627 1.03782 0.0
O17 O 0.12272 0.5187 0.08031 0.0
O18 O 0.05732 0.45183 0.09538 0.0
O19 O 0.09558 0.41639 0.04903 0.0
O20 O 0.14813 0.48457 1.02857 0.0
O21 O 1.0209 0.4166 1.00594 0.0
H22 H 1.02484 0.35152 0.0977 0.0
H23 H 0.91921 0.37721 0.0417 0.0
O24 O 0.0743 0.48579 0.98825 0.0
O25 O 0.04887 0.52493 0.03943 0.0
O26 O 0.9859 0.45713 0.0528 0.0
C27 C 1.00056 0.499 0.04712 0.0
H28 H 0.23197 0.62977 0.96311 0.0
H29 H 0.92621 0.28386 0.1089 0.0
Co30 Co 0.60633 0.54368 0.07487 0.0
C31 C 0.62895 0.61814 0.11578 0.0
Co32 Co 0.63532 0.60817 0.04742 0.0
C33 C 0.53712 0.45042 0.08935 0.0
C34 C 0.59438 0.48152 0.12798 0.0
N35 N 0.57998 0.48963 0.09778 0.0
N36 N 0.52361 0.41815 0.11319 0.0
C37 C 0.55959 0.43739 0.13759 0.0
H38 H 0.51505 0.4462 0.06663 0.0
H39 H 0.62718 0.5064 0.14239 0.0
C40 C 0.61623 0.53876 1.00529 0.0
N41 N 0.66072 0.66309 1.02455 0.0
C42 C 0.63914 0.6909 1.02363 0.0
C43 C 0.70162 0.68155 1.00257 0.0
N44 N 0.66446 0.72569 1.00163 0.0
C45 C 0.70402 0.71995 0.98847 0.0
C46 C 0.71532 0.58544 0.06621 0.0
O47 O 0.60313 0.51388 1.03175 0.0
O48 O 0.62974 0.58027 1.00765 0.0
O49 O 0.70842 0.61645 0.05191 0.0
O50 O 0.67553 0.55227 0.07999 0.0
O51 O 0.64164 0.63824 0.08765 0.0
H52 H 0.72694 0.66717 0.99636 0.0
H53 H 0.60404 0.68459 1.0378 0.0
O54 O 0.61168 0.5753 0.11688 0.0
O55 O 0.53507 0.5327 0.06968 0.0
O56 O 0.56173 0.59644 0.04208 0.0
C57 C 0.52366 0.55958 0.05402 0.0
H58 H 0.56078 0.42076 0.16056 0.0
H59 H 0.73233 0.74154 0.96963 0.0
Co60 Co 0.4742 0.01954 1.01419 0.0
C61 C 0.45414 0.07411 0.96833 0.0
Co62 Co 0.42332 0.04622 1.03365 0.0
C63 C 0.51925 0.96019 0.99895 0.0
C64 C 0.56443 0.02773 0.97886 0.0
N65 N 0.52059 1.00092 0.99722 0.0
N66 N 0.56031 0.96067 0.98202 0.0
C67 C 0.58874 1.00315 0.96944 0.0
H68 H 0.48827 0.93061 1.01175 0.0
H69 H 0.57783 0.06302 0.97263 0.0
C70 C 0.44124 0.993 0.08006 0.0
N71 N 0.3768 0.06386 0.05067 0.0
C72 C 0.38228 0.10584 0.05069 0.0
C73 C 0.33182 0.03792 0.06842 0.0
N74 N 0.34299 0.10737 0.06811 0.0
C75 C 0.31117 0.06476 0.07948 0.0
C76 C 0.3701 0.96077 1.00351 0.0
O77 O 0.46674 0.98683 0.05632 0.0
O78 O 0.42108 0.01859 0.07508 0.0
O79 O 0.36349 0.99047 1.01903 0.0
O80 O 0.4169 0.96817 0.99744 0.0
O81 O 0.42557 0.07485 0.99227 0.0
H82 H 0.31638 1.0022 0.07419 0.0
H83 H 0.41638 0.13532 0.03998 0.0
O84 O 0.4796 0.05216 0.97227 0.0
O85 O 0.53247 0.0712 1.03136 0.0
O86 O 0.4843 0.10151 0.0484 0.0
C87 C 0.52959 0.10365 0.04515 0.0
H88 H 0.62492 0.01572 0.95473 0.0
H89 H 0.27686 0.05428 0.09568 0.0
Co90 Co 0.76025 0.82617 0.382 0.0
C91 C 0.68845 0.76913 0.33365 0.0
Co92 Co 0.697 0.75987 0.40142 0.0
C93 C 0.81831 0.92464 0.37535 0.0
C94 C 0.83846 0.89276 0.33627 0.0
N95 N 0.80989 0.88351 0.36476 0.0
N96 N 0.85028 0.95919 0.3544 0.0
C97 C 0.86326 0.93895 0.32989 0.0
H98 H 0.79987 0.92881 0.39762 0.0
H99 H 0.83909 0.86732 0.32027 0.0
C100 C 0.76942 0.81367 0.44951 0.0
N101 N 0.6481 0.7049 0.41952 0.0
C102 C 0.59482 0.68638 0.42001 0.0
C103 C 0.65832 0.67568 0.43721 0.0
N104 N 0.57149 0.64687 0.43728 0.0
C105 C 0.61104 0.6396 0.44792 0.0
C106 C 0.78588 0.75835 0.37741 0.0
O107 O 0.79301 0.84179 0.42561 0.0
O108 O 0.7271 0.77704 0.44376 0.0
O109 O 0.74134 0.73552 0.39181 0.0
O110 O 0.8038 0.80034 0.3706 0.0
O111 O 0.66701 0.74195 0.35826 0.0
H112 H 0.69765 0.68063 0.44244 0.0
H113 H 0.57347 0.70139 0.40777 0.0
O114 O 0.72738 0.80874 0.33887 0.0
O115 O 0.71556 0.85052 0.39319 0.0
O116 O 0.65224 0.78459 0.41125 0.0
C117 C 0.66976 0.82668 0.40603 0.0
H118 H 0.88696 0.95579 0.30795 0.0
H119 H 0.60605 0.6107 0.46274 0.0
Co120 Co 0.22669 0.8894 0.35686 0.0
C121 C 0.30361 0.90512 0.30726 0.0
Co122 Co 0.30732 0.924 0.37396 0.0
C123 C 0.12092 0.81615 0.34953 0.0
C124 C 0.1443 0.86483 0.30955 0.0
N125 N 0.15949 0.85761 0.33977 0.0
N126 N 0.08295 0.7966 0.32629 0.0
C127 C 0.09713 0.82753 0.3013 0.0
H128 H 0.12195 0.79977 0.37263 0.0
H129 H 0.1675 0.8942 0.29369 0.0
C130 C 0.23532 0.91445 0.42343 0.0
N131 N 0.37505 0.95565 0.3905 0.0
C132 C 0.41318 0.94353 0.38985 0.0
C133 C 0.3935 0.99157 0.41115 0.0
N134 N 0.45426 0.96999 0.40952 0.0
C135 C 0.44208 1.00002 0.42332 0.0
C136 C 0.26743 0.98151 0.3509 0.0
O137 O 0.20108 0.89942 0.39999 0.0
O138 O 0.28176 0.92122 0.41742 0.0
O139 O 0.30644 0.98231 0.36663 0.0
O140 O 0.23064 0.94346 0.34154 0.0
O141 O 0.33524 0.9284 0.3301 0.0
H142 H 0.37112 1.00807 0.41901 0.0
H143 H 0.4089 0.91339 0.37763 0.0
O144 O 0.25417 0.88213 0.31419 0.0
O145 O 0.2203 0.83364 0.37231 0.0
O146 O 0.30507 0.86369 0.38152 0.0
C147 C 0.25909 0.82809 0.38044 0.0
H148 H 0.07494 0.82373 0.27871 0.0
H149 H 0.46463 0.02378 0.44265 0.0
Co150 Co 0.14593 0.33347 0.37793 0.0
C151 C 0.1483 0.38653 0.32359 0.0
Co152 Co 0.10179 0.37199 0.38814 0.0
C153 C 0.16378 0.25288 0.37081 0.0
C154 C 0.23381 0.31746 0.36505 0.0
N155 N 0.18077 0.29836 0.37061 0.0
N156 N 0.20452 0.24363 0.36659 0.0
C157 C 0.24838 0.28429 0.36297 0.0
H158 H 0.12257 0.22711 0.37426 0.0
H159 H 0.26075 0.35356 0.36245 0.0
C160 C 0.0937 0.31651 0.44161 0.0
N161 N 0.07885 0.41669 0.39422 0.0
C162 C 0.11058 0.46032 0.38304 0.0
C163 C 0.04476 0.42063 0.4154 0.0
N164 N 0.0992 0.49135 0.3967 0.0
C165 C 0.05684 0.46609 0.41675 0.0
C166 C 0.03739 0.28745 0.36152 0.0
O167 O 0.12129 0.30584 0.42214 0.0
O168 O 0.08241 0.34736 0.43246 0.0
O169 O 0.03461 0.32204 0.37273 0.0
O170 O 0.08216 0.28821 0.36026 0.0
O171 O 0.11937 0.39382 0.34372 0.0
H172 H 1.01617 0.39324 0.43112 0.0
H173 H 0.14476 0.46988 0.36694 0.0
O174 O 0.16816 0.36171 0.33332 0.0
O175 O 0.20891 0.37912 0.3965 0.0
O176 O 0.16776 0.41812 0.40389 0.0
C177 C 0.20943 0.41477 0.40644 0.0
H178 H 0.28807 0.28956 0.35809 0.0
H179 H 0.03854 0.4798 0.43335 0.0
Co180 Co 0.41307 0.1668 0.67131 0.0
C181 C 0.35448 0.10147 0.62311 0.0
Co182 Co 0.35788 0.09955 0.6927 0.0
C183 C 0.46827 0.26387 0.66576 0.0
C184 C 0.4956 0.23435 0.62879 0.0
N185 N 0.46053 0.22361 0.65424 0.0
N186 N 0.50676 0.29937 0.64862 0.0
C187 C 0.52435 0.28101 0.62539 0.0
H188 H 0.44685 0.26707 0.68691 0.0
H189 H 0.50031 0.20986 0.61392 0.0
C190 C 0.41536 0.15948 0.74155 0.0
N191 N 0.30847 0.04309 0.71065 0.0
C192 C 0.25497 0.02385 0.70813 0.0
C193 C 0.31619 0.01762 0.73382 0.0
N194 N 0.22882 0.98825 0.72936 0.0
C195 C 0.26736 0.98384 0.74528 0.0
C196 C 0.4617 0.11405 0.6804 0.0
O197 O 0.43796 0.18724 0.71716 0.0
O198 O 0.37679 0.12062 0.73575 0.0
O199 O 0.41672 0.08429 0.6929 0.0
O200 O 0.46521 0.14983 0.66755 0.0
O201 O 0.33827 0.07634 0.64906 0.0
H202 H 0.35464 0.02498 0.74341 0.0
H203 H 0.23543 0.0369 0.6919 0.0
O204 O 0.38718 0.1439 0.62637 0.0
O205 O 0.36224 0.18564 0.67471 0.0
O206 O 0.30264 0.11871 0.69295 0.0
C207 C 0.31504 0.15922 0.68408 0.0
H208 H 0.55555 0.29991 0.60721 0.0
H209 H 0.26093 0.95983 0.76529 0.0
Co210 Co 0.93482 0.20492 0.72706 0.0
C211 C 0.95556 0.28014 0.76659 0.0
Co212 Co 0.95276 0.26551 0.69786 0.0
C213 C 0.87273 0.11121 0.74573 0.0
C214 C 0.93401 0.14837 0.78105 0.0
N215 N 0.91502 0.15231 0.75119 0.0
N216 N 0.86384 0.08207 0.7713 0.0
C217 C 0.90242 0.10512 0.79356 0.0
H218 H 0.8471 0.10362 0.7243 0.0
H219 H 0.96721 0.17577 0.79356 0.0
C220 C 0.93915 0.19719 0.65676 0.0
N221 N 0.97255 0.31779 0.67368 0.0
C222 C 0.95076 0.34508 0.67546 0.0
C223 C 1.01022 0.33624 0.64965 0.0
N224 N 0.9732 0.38022 0.65349 0.0
C225 C 1.01086 0.3747 0.63724 0.0
C226 C 0.04039 0.25137 0.71402 0.0
O227 O 0.93363 0.17479 0.68394 0.0
O228 O 0.94315 0.23599 0.65831 0.0
O229 O 1.02745 0.27745 0.69783 0.0
O230 O 1.00508 0.21928 0.73126 0.0
O231 O 0.96398 0.29815 0.73773 0.0
H232 H 0.03535 0.32246 0.64156 0.0
H233 H 0.91874 0.33867 0.6926 0.0
O234 O 0.93941 0.2375 0.76878 0.0
O235 O 0.8622 0.18818 0.72327 0.0
O236 O 0.87699 0.2505 0.69736 0.0
C237 C 0.84389 0.21196 0.71013 0.0
H238 H 0.9069 0.09188 0.81733 0.0
H239 H 0.03754 0.39683 0.61798 0.0
Co240 Co 0.81344 0.67906 0.72833 0.0
C241 C 0.80086 0.73193 0.6775 0.0
Co242 Co 0.7556 0.70171 0.73902 0.0
C243 C 0.86013 0.62406 0.70726 0.0
C244 C 0.91566 0.69534 0.70747 0.0
N245 N 0.86515 0.6645 0.71603 0.0
N246 N 0.90516 0.6288 0.69308 0.0
C247 C 0.94032 0.67348 0.69341 0.0
H248 H 0.82328 0.59219 0.70917 0.0
H249 H 0.9327 0.73181 0.70937 0.0
C250 C 0.76531 0.64735 0.78955 0.0
N251 N 0.70587 0.71883 0.75045 0.0
C252 C 0.7113 0.7604 0.74544 0.0
C253 C 0.66036 0.69579 0.76832 0.0
N254 N 0.67171 0.76477 0.75988 0.0
C255 C 0.63957 0.72432 0.77458 0.0
C256 C 0.71245 0.61801 0.70803 0.0
O257 O 0.79779 0.64409 0.76945 0.0
O258 O 0.74625 0.6732 0.7816 0.0
O259 O 0.70032 0.64562 0.72196 0.0
O260 O 0.76086 0.62755 0.70677 0.0
O261 O 0.76398 0.72928 0.69638 0.0
H262 H 0.6448 0.66133 0.77759 0.0
H263 H 0.74591 0.7881 0.73353 0.0
O264 O 0.82833 0.71376 0.68719 0.0
O265 O 0.86545 0.7298 0.74985 0.0
O266 O 0.81294 0.75905 0.75571 0.0
C267 C 0.85907 0.76285 0.75832 0.0
H268 H 0.9804 0.68929 0.6833 0.0
H269 H 0.6051 0.7167 0.78994 0.0
H270 H 0.43737 0.52803 0.09723 0.0
H271 H 0.48078 0.55264 0.99248 0.0
H272 H 0.38528 0.51357 0.97757 0.0
H273 H 0.31965 0.4191 0.09111 0.0
H274 H 0.2814 0.43068 0.12139 0.0
H275 H 0.35292 0.45863 0.12419 0.0
H276 H 0.35768 0.5375 0.12276 0.0
H277 H 0.28621 0.50953 0.12096 0.0
H278 H 0.32549 0.55103 0.08945 0.0
H279 H 0.28456 0.46862 0.97397 0.0
H280 H 0.18818 0.43981 0.98148 0.0
H281 H 0.20818 0.45032 0.08854 0.0
C282 C 0.42661 0.52572 0.07118 0.0
C283 C 0.46667 0.54374 0.04595 0.0
C284 C 0.45097 0.53986 1.01219 0.0
C285 C 0.39673 0.51707 1.00351 0.0
C286 C 0.35822 0.49887 1.02889 0.0
C287 C 0.37243 0.50432 0.06209 0.0
C288 C 0.32307 0.4852 0.08448 0.0
C289 C 0.31905 0.44608 0.1066 0.0
C290 C 0.32314 0.52309 0.10565 0.0
C291 C 0.27879 0.46784 0.05874 0.0
C292 C 0.30011 0.47504 1.02684 0.0
C293 C 0.26759 0.46277 0.99885 0.0
C294 C 0.2125 0.44546 1.00339 0.0
C295 C 0.18982 0.44093 1.0356 0.0
C296 C 0.22355 0.45113 0.06369 0.0
H297 H 0.54632 0.89462 1.02722 0.0
H298 H 0.60251 0.94476 0.92691 0.0
H299 H 0.63159 0.88735 0.92038 0.0
H300 H 0.65254 0.87563 0.04931 0.0
H301 H 0.61287 0.82432 0.07325 0.0
H302 H 0.59176 0.86648 0.06927 0.0
H303 H 0.50119 0.80591 0.0459 0.0
H304 H 0.52189 0.76342 0.05001 0.0
H305 H 0.5 0.77324 1.01022 0.0
H306 H 0.65962 0.82843 0.92565 0.0
H307 H 0.6836 0.77009 0.94199 0.0
H308 H 0.61126 0.7581 0.03949 0.0
C309 C 0.56371 0.89275 1.0037 0.0
C310 C 0.57225 0.92414 0.97755 0.0
C311 C 0.59608 0.9213 0.94733 0.0
C312 C 0.61248 0.88868 0.94333 0.0
C313 C 0.60476 0.85899 0.9698 0.0
C314 C 0.58074 0.86045 0.99937 0.0
C315 C 0.57982 0.82596 1.02443 0.0
C316 C 0.61112 0.84952 0.05592 0.0
C317 C 0.5223 0.78999 1.03314 0.0
C318 C 0.60789 0.80559 1.00448 0.0
C319 C 0.62154 0.825 0.97297 0.0
C320 C 0.649 0.81283 0.95022 0.0
C321 C 0.66292 0.77991 0.95989 0.0
C322 C 0.64966 0.75951 0.99211 0.0
C323 C 0.62149 0.77257 1.01457 0.0
H324 H 0.37366 0.89478 0.96746 0.0
H325 H 0.26755 0.92237 1.0281 0.0
H326 H 0.20259 0.84009 1.02984 0.0
H327 H 0.27043 0.79309 0.92242 0.0
H328 H 0.31103 0.76589 0.92494 0.0
H329 H 0.34196 0.82696 0.92176 0.0
H330 H 0.39509 0.83359 0.97547 0.0
H331 H 0.36364 0.77278 0.97933 0.0
H332 H 0.35961 0.80571 1.0133 0.0
H333 H 0.15673 0.75387 1.0325 0.0
H334 H 0.13237 0.67278 1.03377 0.0
H335 H 0.27399 0.70446 0.97532 0.0
C336 C 0.33589 0.88385 0.98006 0.0
C337 C 0.32546 0.9149 0.99751 0.0
C338 C 0.27598 0.89915 1.01417 0.0
C339 C 0.239 0.85246 1.0154 0.0
C340 C 0.25222 0.82241 0.99967 0.0
C341 C 0.29931 0.8377 0.98194 0.0
C342 C 0.30798 0.79898 0.97101 0.0
C343 C 0.30781 0.79606 0.93276 0.0
C344 C 0.3596 0.80303 0.98567 0.0
C345 C 0.2593 0.75942 0.98628 0.0
C346 C 0.22706 0.77329 1.00224 0.0
C347 C 0.18137 0.74262 1.01969 0.0
C348 C 0.16825 0.69661 1.02062 0.0
C349 C 0.20119 0.68185 1.00459 0.0
C350 C 0.24718 0.71403 0.98724 0.0
H351 H 0.37156 0.18183 1.03032 0.0
H352 H 0.31879 0.12533 0.12944 0.0
H353 H 0.34424 0.20178 0.15054 0.0
H354 H 0.48386 0.26793 0.05214 0.0
H355 H 0.48632 0.31008 1.02302 0.0
H356 H 0.44847 0.25094 1.01328 0.0
H357 H 0.36351 0.25824 1.00553 0.0
H358 H 0.40143 0.31802 1.01458 0.0
H359 H 0.34196 0.28203 1.03833 0.0
H360 H 0.39751 0.28385 0.16332 0.0
H361 H 0.46634 0.36484 0.16561 0.0
H362 H 0.48483 0.36778 0.05816 0.0
C363 C 0.36318 0.18556 0.0561 0.0
C364 C 0.34328 0.14814 0.07827 0.0
C365 C 0.33328 0.15369 0.112 0.0
C366 C 0.34774 0.197 0.12417 0.0
C367 C 0.37104 0.23395 0.10207 0.0
C368 C 0.37744 0.22848 0.06848 0.0
C369 C 0.4109 0.27362 0.05093 0.0
C370 C 0.46028 0.27572 1.03389 0.0
C371 C 0.37743 0.28356 1.02587 0.0
C372 C 0.42596 0.305 0.08034 0.0
C373 C 0.40172 0.28177 0.10952 0.0
C374 C 0.41537 0.30271 0.14051 0.0
C375 C 0.45494 0.34844 0.14165 0.0
C376 C 0.48041 0.37245 0.112 0.0
C377 C 0.46482 0.35057 0.08106 0.0
H378 H 0.62099 0.1034 0.06073 0.0
H379 H 0.55181 0.1925 0.05386 0.0
H380 H 0.64051 0.25875 0.06502 0.0
H381 H 0.71735 0.16554 0.12698 0.0
H382 H 0.76694 0.15396 0.10889 0.0
H383 H 0.69728 0.11404 0.10399 0.0
H384 H 0.71038 0.11843 0.0398 0.0
H385 H 0.77985 0.1586 0.04442 0.0
H386 H 0.73862 0.17295 1.01881 0.0
H387 H 0.73932 0.31554 0.07009 0.0
H388 H 0.83757 0.35746 0.07247 0.0
H389 H 0.84041 0.22999 0.0773 0.0
C390 C 0.62416 0.13676 0.06215 0.0
C391 C 0.57961 0.14295 0.05638 0.0
C392 C 0.5854 0.18706 0.05847 0.0
C393 C 0.63562 0.22478 0.06468 0.0
C394 C 0.6791 0.21748 0.06927 0.0
C395 C 0.6735 0.17436 0.06859 0.0
C396 C 0.72639 0.17536 0.07268 0.0
C397 C 0.72701 0.15077 0.10507 0.0
C398 C 0.73956 0.15515 0.04211 0.0
C399 C 0.76327 0.22601 0.0748 0.0
C400 C 0.73532 0.2498 0.07287 0.0
C401 C 0.76135 0.29716 0.0721 0.0
C402 C 0.81717 0.32066 0.0732 0.0
C403 C 0.84649 0.29686 0.07515 0.0
C404 C 0.81894 0.24894 0.0764 0.0
H405 H 0.89371 0.45954 0.06894 0.0
H406 H 1.02354 0.58466 1.02827 0.0
H407 H 0.96694 0.62054 1.02982 0.0
H408 H 0.78789 0.46676 1.02474 0.0
H409 H 0.7413 0.44495 0.05916 0.0
H410 H 0.79183 0.42831 0.0548 0.0
H411 H 0.82443 0.45635 0.11447 0.0
H412 H 0.77414 0.47325 0.11897 0.0
H413 H 0.84315 0.51406 0.12527 0.0
H414 H 0.89515 0.64374 1.0343 0.0
H415 H 0.81415 0.6512 0.0425 0.0
H416 H 0.73143 0.51324 0.08217 0.0
C417 C 0.91019 0.49444 0.06034 0.0
C418 C 0.96359 0.51893 0.04847 0.0
C419 C 0.98313 0.56473 1.03757 0.0
C420 C 0.95114 0.58569 1.03831 0.0
C421 C 0.89908 0.56091 0.05019 0.0
C422 C 0.87864 0.5163 0.06112 0.0
C423 C 0.82125 0.49765 0.07288 0.0
C424 C 0.78333 0.45701 0.05163 0.0
C425 C 0.81542 0.48456 0.11011 0.0
C426 C 0.81292 0.5386 0.06682 0.0
C427 C 0.85824 0.57472 0.05356 0.0
C428 C 0.85954 0.61571 0.04496 0.0
C429 C 0.81333 0.6198 0.0498 0.0
C430 C 0.76629 0.58332 0.06348 0.0
C431 C 0.76675 0.54233 0.07221 0.0
H432 H 0.84559 0.73518 0.41531 0.0
H433 H 0.78735 0.72891 0.31545 0.0
H434 H 0.84298 0.69682 0.29538 0.0
H435 H 0.96296 0.78421 0.40246 0.0
H436 H 0.98808 0.755 0.42864 0.0
H437 H 0.92546 0.7509 0.43826 0.0
H438 H 0.88146 0.66343 0.43649 0.0
H439 H 0.94484 0.66762 0.42611 0.0
H440 H 0.88814 0.63592 0.39987 0.0
H441 H 0.92332 0.69722 0.28218 0.0
H442 H 1.0196 0.74511 0.27619 0.0
H443 H 0.03481 0.75316 0.38341 0.0
C444 C 0.8437 0.72507 0.38957 0.0
C445 C 0.8139 0.73472 0.36659 0.0
C446 C 0.81117 0.72204 0.33305 0.0
C447 C 0.84172 0.70287 0.32175 0.0
C448 C 0.87483 0.69691 0.34434 0.0
C449 C 0.87529 0.70697 0.37795 0.0
C450 C 0.92374 0.71017 0.39504 0.0
C451 C 0.9517 0.75266 0.41726 0.0
C452 C 0.90862 0.66669 0.41557 0.0
C453 C 0.95622 0.71218 0.36457 0.0
C454 C 0.92502 0.69896 0.33614 0.0
C455 C 0.94776 0.70705 0.30426 0.0
C456 C 1.00263 0.73495 0.30099 0.0
C457 C 0.03381 0.75463 0.32945 0.0
C458 C 1.01138 0.73882 0.36137 0.0
H459 H 0.26745 0.21489 0.39739 0.0
H460 H 0.1413 0.17616 0.32554 0.0
H461 H 0.14745 0.10708 0.31232 0.0
H462 H 0.34651 0.17841 0.35264 0.0
H463 H 0.3648 0.15613 0.38829 0.0
H464 H 0.34945 0.20166 0.3934 0.0
H465 H 0.27715 0.15396 0.43758 0.0
H466 H 0.29309 0.1087 0.43305 0.0
H467 H 0.22569 0.09756 0.42735 0.0
H468 H 0.1725 0.04647 0.30352 0.0
H469 H 0.20275 0.98977 0.30585 0.0
H470 H 0.31052 0.06342 0.38611 0.0
C471 C 0.24055 0.19127 0.37933 0.0
C472 C 0.20309 0.20036 0.36273 0.0
C473 C 0.16895 0.16909 0.33907 0.0
C474 C 0.17286 0.1302 0.33113 0.0
C475 C 0.21086 0.12269 0.3474 0.0
C476 C 0.24329 0.15168 0.37161 0.0
C477 C 0.27985 0.13481 0.38582 0.0
C478 C 0.33864 0.16985 0.37966 0.0
C479 C 0.26824 0.12306 0.42317 0.0
C480 C 0.26357 0.09223 0.36536 0.0
C481 C 0.22411 0.08645 0.34313 0.0
C482 C 0.20288 0.05039 0.32109 0.0
C483 C 0.22071 0.01838 0.32255 0.0
C484 C 0.25919 0.02181 0.34615 0.0
C485 C 0.28169 0.05997 0.36746 0.0
H486 H 1.03194 0.22322 0.3192 0.0
H487 H 0.93812 0.24886 0.39182 0.0
H488 H 0.87384 0.16619 0.39464 0.0
H489 H 0.91849 0.12247 0.27782 0.0
H490 H 0.95891 0.0954 0.27304 0.0
H491 H 0.98938 0.15653 0.27164 0.0
H492 H 0.05277 0.16116 0.31857 0.0
H493 H 1.02225 0.10026 0.32098 0.0
H494 H 1.02596 0.13206 0.35777 0.0
H495 H 0.82792 0.07834 0.39563 0.0
H496 H 0.80233 0.99715 0.3921 0.0
H497 H 0.93094 0.03109 0.321 0.0
C498 C 0.99656 0.21175 0.33459 0.0
C499 C 0.98983 0.24268 0.35505 0.0
C500 C 0.94363 0.22608 0.37541 0.0
C501 C 0.90719 0.17901 0.37739 0.0
C502 C 0.91716 0.14912 0.35847 0.0
C503 C 0.9603 0.16519 0.33691 0.0
C504 C 0.96584 0.12659 0.32175 0.0
C505 C 0.95765 0.12516 0.28381 0.0
C506 C 1.01988 0.1302 0.33033 0.0
C507 C 0.9204 0.08609 0.33903 0.0
C508 C 0.89213 0.09947 0.35974 0.0
C509 C 0.84967 0.06773 0.37919 0.0
C510 C 0.83575 0.02144 0.37726 0.0
C511 C 0.8645 1.00695 0.35629 0.0
C512 C 0.90732 0.04023 0.33695 0.0
H513 H 0.16271 0.75246 0.39442 0.0
H514 H 0.32929 0.79296 0.37897 0.0
H515 H 0.30662 0.71164 0.38217 0.0
H516 H 0.13288 0.65905 0.45336 0.0
H517 H 0.06689 0.62412 0.43736 0.0
H518 H 0.09694 0.68518 0.43515 0.0
H519 H 0.08191 0.68119 0.3715 0.0
H520 H 0.05212 0.62018 0.37336 0.0
H521 H 0.10804 0.65272 0.34588 0.0
H522 H 0.26311 0.62368 0.38308 0.0
H523 H 0.20658 0.54055 0.38596 0.0
H524 H 0.06767 0.55667 0.40298 0.0
C525 C 0.19481 0.74453 0.39205 0.0
C526 C 0.2482 0.77982 0.38643 0.0
C527 C 0.2884 0.76719 0.38356 0.0
C528 C 0.27565 0.72083 0.38516 0.0
C529 C 0.22245 0.68706 0.39003 0.0
C530 C 0.18282 0.69859 0.39391 0.0
C531 C 0.12867 0.65612 0.39878 0.0
C532 C 0.10495 0.65613 0.43321 0.0
C533 C 0.09044 0.65235 0.37071 0.0
C534 C 0.14354 0.61846 0.39663 0.0
C535 C 0.19785 0.63709 0.3914 0.0
C536 C 0.22074 0.60912 0.38743 0.0
C537 C 0.18788 0.56146 0.38895 0.0
C538 C 0.13204 0.54107 0.39479 0.0
C539 C 0.10998 0.57057 0.39882 0.0
H540 H 0.30595 0.41895 0.41399 0.0
H541 H 0.22268 0.496 0.42869 0.0
H542 H 0.30669 0.56249 0.44533 0.0
H543 H 0.40219 0.47122 0.48367 0.0
H544 H 0.45508 0.47038 0.45995 0.0
H545 H 0.3871 0.427 0.45377 0.0
H546 H 0.39671 0.44661 0.39053 0.0
H547 H 0.46444 0.49002 0.39649 0.0
H548 H 0.41782 0.50427 0.37721 0.0
H549 H 0.40044 0.62299 0.45173 0.0
H550 H 0.4981 0.67287 0.44986 0.0
H551 H 0.51946 0.55572 0.43353 0.0
C552 C 0.30516 0.44948 0.42144 0.0
C553 C 0.25812 0.45261 0.41978 0.0
C554 C 0.25857 0.49314 0.4295 0.0
C555 C 0.30593 0.53092 0.43924 0.0
C556 C 0.35201 0.52712 0.43974 0.0
C557 C 0.3519 0.48728 0.43152 0.0
C558 C 0.40743 0.49316 0.43142 0.0
C559 C 0.41328 0.46369 0.45885 0.0
C560 C 0.42246 0.48293 0.39686 0.0
C561 C 0.43901 0.54308 0.4394 0.0
C562 C 0.40628 0.56197 0.44445 0.0
C563 C 0.42651 0.60849 0.44868 0.0
C564 C 0.48173 0.63651 0.44734 0.0
C565 C 0.51565 0.61771 0.44192 0.0
C566 C 0.49409 0.57045 0.43862 0.0
H567 H 0.54671 0.98893 0.38032 0.0
H568 H 0.44224 0.91947 0.46387 0.0
H569 H 0.49451 0.88073 0.47699 0.0
H570 H 0.55797 0.90162 0.35141 0.0
H571 H 0.62736 0.93135 0.33959 0.0
H572 H 0.59023 0.96148 0.34116 0.0
H573 H 0.65788 0.0193 0.38244 0.0
H574 H 0.69614 0.98993 0.38045 0.0
H575 H 0.67363 0.99902 0.42022 0.0
H576 H 0.54346 0.83751 0.47247 0.0
H577 H 0.59579 0.80022 0.45604 0.0
H578 H 0.67291 0.90138 0.37751 0.0
C579 C 0.53698 0.96731 0.4023 0.0
C580 C 0.49175 0.95743 0.42165 0.0
C581 C 0.47788 0.92779 0.44952 0.0
C582 C 0.50713 0.90571 0.45697 0.0
C583 C 0.55049 0.91458 0.43656 0.0
C584 C 0.56643 0.94567 0.41034 0.0
C585 C 0.61109 0.94565 0.3903 0.0
C586 C 0.59569 0.93433 0.35346 0.0
C587 C 0.66275 0.99118 0.39356 0.0
C588 C 0.61527 0.90771 0.40801 0.0
C589 C 0.58024 0.8904 0.43473 0.0
C590 C 0.57235 0.85165 0.45233 0.0
C591 C 0.60164 0.83043 0.44261 0.0
C592 C 0.63842 0.84836 0.41578 0.0
C593 C 0.64566 0.88765 0.39854 0.0
H594 H 0.77999 0.23441 0.66982 0.0
H595 H 0.77233 0.14407 0.75026 0.0
H596 H 0.67463 0.10541 0.74907 0.0
H597 H 0.66488 0.24444 0.69699 0.0
H598 H 0.64225 0.24472 0.65517 0.0
H599 H 0.71202 0.26607 0.66283 0.0
H600 H 0.71326 0.21002 0.61944 0.0
H601 H 0.64326 0.18805 0.61209 0.0
H602 H 0.66782 0.15 0.62436 0.0
H603 H 0.57546 0.07593 0.73985 0.0
H604 H 0.48528 0.06234 0.72462 0.0
H605 H 0.55651 0.1685 0.64877 0.0
C606 C 0.75776 0.20687 0.6874 0.0
C607 C 0.78452 0.19263 0.71016 0.0
C608 C 0.75336 0.1559 0.73246 0.0
C609 C 0.69749 0.13344 0.73199 0.0
C610 C 0.67231 0.14753 0.70893 0.0
C611 C 0.70139 0.18356 0.68713 0.0
C612 C 0.66415 0.19175 0.66485 0.0
C613 C 0.67125 0.23957 0.67029 0.0
C614 C 0.67265 0.18452 0.628 0.0
C615 C 0.61009 0.15499 0.67763 0.0
C616 C 0.61546 0.12976 0.70308 0.0
C617 C 0.57082 0.09523 0.71964 0.0
C618 C 0.51952 0.08726 0.7106 0.0
C619 C 0.51314 0.11361 0.68514 0.0
C620 C 0.55943 0.14708 0.66806 0.0
H621 H 0.90693 0.39736 0.69263 0.0
H622 H 1.01141 0.44742 0.60551 0.0
H623 H 0.99687 0.51341 0.6026 0.0
H624 H 0.81285 0.43717 0.66511 0.0
H625 H 0.80439 0.45094 0.70723 0.0
H626 H 0.81723 0.40443 0.69962 0.0
H627 H 0.89858 0.44101 0.73892 0.0
H628 H 0.88636 0.48772 0.74634 0.0
H629 H 0.95038 0.49849 0.73073 0.0
H630 H 0.98123 0.57869 0.61379 0.0
H631 H 0.96238 0.63705 0.63724 0.0
H632 H 0.86607 0.54264 0.71542 0.0
C633 C 0.92599 0.42115 0.6723 0.0
C634 C 0.96085 0.41673 0.6495 0.0
C635 C 0.98509 0.44981 0.62369 0.0
C636 C 0.97669 0.4874 0.62157 0.0
C637 C 0.94321 0.49101 0.64503 0.0
C638 C 0.91766 0.45845 0.66962 0.0
C639 C 0.88696 0.4719 0.69343 0.0
C640 C 0.82679 0.43916 0.69119 0.0
C641 C 0.90679 0.47497 0.72946 0.0
C642 C 0.9013 0.51817 0.67925 0.0
C643 C 0.93326 0.52837 0.65111 0.0
C644 C 0.95542 0.5708 0.6354 0.0
C645 C 0.94499 0.60379 0.64905 0.0
C646 C 0.91281 0.59401 0.67805 0.0
C647 C 0.88994 0.55045 0.69288 0.0
H648 H 0.72785 0.55477 0.67497 0.0
H649 H 0.60387 0.58005 0.71434 0.0
H650 H 0.53622 0.50192 0.69943 0.0
H651 H 0.6507 0.48183 0.60556 0.0
H652 H 0.67999 0.44541 0.61038 0.0
H653 H 0.71756 0.50464 0.62098 0.0
H654 H 0.73282 0.48216 0.68024 0.0
H655 H 0.6951 0.42295 0.67001 0.0
H656 H 0.67626 0.44439 0.70565 0.0
H657 H 0.48358 0.41881 0.68541 0.0
H658 H 0.44943 0.33804 0.67129 0.0
H659 H 0.6082 0.36788 0.64107 0.0
C660 C 0.68639 0.54428 0.67992 0.0
C661 C 0.67107 0.57356 0.69574 0.0
C662 C 0.61645 0.5583 0.70203 0.0
C663 C 0.57779 0.51399 0.69369 0.0
C664 C 0.59449 0.48566 0.67887 0.0
C665 C 0.64747 0.50038 0.67175 0.0
C666 C 0.65552 0.4627 0.65739 0.0
C667 C 0.67721 0.47435 0.62144 0.0
C668 C 0.69206 0.45246 0.67966 0.0
C669 C 0.59884 0.42402 0.65827 0.0
C670 C 0.56419 0.43798 0.67057 0.0
C671 C 0.51023 0.40764 0.67538 0.0
C672 C 0.49128 0.36183 0.66752 0.0
C673 C 0.52615 0.34683 0.65496 0.0
C674 C 0.58048 0.37856 0.65 0.0
H675 H 0.69875 0.83106 0.71425 0.0
H676 H 0.65225 0.79524 0.81758 0.0
H677 H 0.68291 0.8759 0.83006 0.0
H678 H 0.81471 0.91838 0.72813 0.0
H679 H 0.81711 0.95539 0.69457 0.0
H680 H 0.77635 0.89503 0.69092 0.0
H681 H 0.69295 0.90378 0.68059 0.0
H682 H 0.73368 0.96465 0.68325 0.0
H683 H 0.67561 0.93513 0.70966 0.0
H684 H 0.7405 0.95956 0.83415 0.0
H685 H 0.81104 0.03976 0.82819 0.0
H686 H 0.82017 0.02149 0.72205 0.0
C687 C 0.69261 0.84021 0.73906 0.0
C688 C 0.67306 0.80738 0.76492 0.0
C689 C 0.66631 0.82 0.79736 0.0
C690 C 0.68387 0.86575 0.80464 0.0
C691 C 0.70695 0.89798 0.779 0.0
C692 C 0.71 0.88561 0.74657 0.0
C693 C 0.74361 0.92665 0.72464 0.0
C694 C 0.7907 0.92365 0.70868 0.0
C695 C 0.7094 0.93293 0.69796 0.0
C696 C 0.76228 0.96373 0.75027 0.0
C697 C 0.74003 0.94674 0.78136 0.0
C698 C 0.75683 0.97355 0.80976 0.0
C699 C 0.79733 0.01878 0.80625 0.0
C700 C 0.8205 0.03656 0.77461 0.0
C701 C 0.80198 1.00887 0.74631 0.0
H702 H 0.95418 0.77358 0.77846 0.0
H703 H 0.87539 0.85018 0.74923 0.0
H704 H 0.96337 0.91965 0.74341 0.0
H705 H 0.07086 0.86682 0.82181 0.0
H706 H 0.11465 0.84724 0.80563 0.0
H707 H 0.04581 0.80715 0.8143 0.0
H708 H 0.03538 0.77862 0.75356 0.0
H709 H 0.10361 0.81922 0.74436 0.0
H710 H 0.05119 0.81856 0.71944 0.0
H711 H 0.06107 0.9774 0.73216 0.0
H712 H 0.15762 0.01912 0.72058 0.0
H713 H 0.17089 0.90228 0.75456 0.0
C714 C 0.95518 0.80536 0.77216 0.0
C715 C 0.90782 0.80657 0.76467 0.0
C716 C 0.91099 0.84862 0.75579 0.0
C717 C 0.9609 0.88814 0.75211 0.0
C718 C 1.00701 0.88494 0.75767 0.0
C719 C 1.00434 0.84463 0.76807 0.0
C720 C 0.05896 0.84828 0.769 0.0
C721 C 0.07342 0.84202 0.80482 0.0
C722 C 0.06246 0.81416 0.74517 0.0
C723 C 0.09306 0.89669 0.75671 0.0
C724 C 0.06257 0.91749 0.75054 0.0
C725 C 0.0852 0.96148 0.73729 0.0
C726 C 0.14018 0.98476 0.7304 0.0
C727 C 0.17221 0.96401 0.7365 0.0
C728 C 0.14793 0.91941 0.75002 0.0
H729 H 0.2236 0.13327 0.72276 0.0
H730 H 0.32106 0.22713 0.6444 0.0
H731 H 0.26509 0.26384 0.64523 0.0
H732 H 0.09687 0.12136 0.69485 0.0
H733 H 0.07243 0.11964 0.7366 0.0
H734 H 0.11915 0.09953 0.72883 0.0
H735 H 0.18204 0.15509 0.77309 0.0
H736 H 0.13586 0.17587 0.78055 0.0
H737 H 0.20381 0.215 0.76891 0.0
H738 H 0.19788 0.29102 0.65419 0.0
H739 H 0.12253 0.3036 0.66987 0.0
H740 H 0.07209 0.19543 0.74418 0.0
C741 C 0.23262 0.16111 0.70553 0.0
C742 C 0.27675 0.17712 0.68348 0.0
C743 C 0.28758 0.21418 0.66162 0.0
C744 C 0.25604 0.23544 0.66188 0.0
C745 C 0.21368 0.21972 0.68437 0.0
C746 C 0.20175 0.18332 0.70574 0.0
C747 C 0.15436 0.17376 0.72778 0.0
C748 C 0.10796 0.12573 0.72164 0.0
C749 C 0.16998 0.18033 0.76477 0.0
C750 C 0.14166 0.21021 0.71533 0.0
C751 C 0.17619 0.23637 0.69023 0.0
C752 C 0.17082 0.27098 0.67409 0.0
C753 C 0.12817 0.27822 0.68331 0.0
C754 C 0.09153 0.25105 0.70849 0.0
C755 C 0.09956 0.21739 0.72508 0.0
H756 H 0.07143 0.38989 0.28695 0.0
H757 H 0.23786 0.42596 0.28214 0.0
H758 H 0.24624 0.46435 0.22718 0.0
H759 H 0.04523 0.36403 0.19963 0.0
H760 H 0.99816 0.38481 0.19766 0.0
H761 H 1.00758 0.36206 0.23627 0.0
H762 H 1.02838 0.43721 0.26553 0.0
H763 H 1.0203 0.46059 0.22676 0.0
H764 H 0.08143 0.49033 0.2496 0.0
H765 H 0.23494 0.50184 0.17238 0.0
H766 H 0.2026 0.52083 0.12038 0.0
H767 H 0.04271 0.45578 0.16154 0.0
C768 C 0.10973 0.40571 0.27429 0.0
C769 C 0.15412 0.40508 0.28892 0.0
C770 C 0.20327 0.42573 0.27135 0.0
C771 C 0.20839 0.44801 0.24028 0.0
C772 C 0.16382 0.4488 0.22693 0.0
C773 C 0.11516 0.42714 0.24325 0.0
C774 C 0.07228 0.43014 0.22326 0.0
C775 C 1.02823 0.38244 0.21363 0.0
C776 C 0.04926 0.45612 0.24244 0.0
C777 C 0.10407 0.45705 0.19299 0.0
C778 C 0.15703 0.46834 0.19562 0.0
C779 C 0.19353 0.49297 0.17018 0.0
C780 C 0.17499 0.50432 0.1409 0.0
C781 C 0.12025 0.49056 0.13703 0.0
C782 C 0.08493 0.4676 0.16392 0.0
H783 H 0.64598 0.68152 0.31082 0.0
H784 H 0.70043 0.82045 0.27774 0.0
H785 H 0.68592 0.79521 0.21919 0.0
H786 H 0.71091 0.65517 0.2467 0.0
H787 H 0.65935 0.59707 0.24186 0.0
H788 H 0.66796 0.62455 0.28145 0.0
H789 H 0.56958 0.60647 0.28103 0.0
H790 H 0.56046 0.57859 0.24153 0.0
H791 H 0.54495 0.62416 0.24581 0.0
H792 H 0.67054 0.75652 0.16468 0.0
H793 H 0.65687 0.70766 0.11671 0.0
H794 H 0.61502 0.59237 0.18344 0.0
C795 C 0.65342 0.70639 0.29127 0.0
C796 C 0.67337 0.75296 0.29892 0.0
C797 C 0.68451 0.78466 0.27255 0.0
C798 C 0.67643 0.77059 0.23921 0.0
C799 C 0.6577 0.7247 0.2325 0.0
C800 C 0.64635 0.69298 0.2577 0.0
C801 C 0.63031 0.64635 0.24334 0.0
C802 C 0.66947 0.62982 0.25397 0.0
C803 C 0.5729 0.61185 0.25354 0.0
C804 C 0.63469 0.65689 0.20609 0.0
C805 C 0.65021 0.70232 0.20064 0.0
C806 C 0.65817 0.72089 0.16866 0.0
C807 C 0.65034 0.6926 0.14147 0.0
C808 C 0.63484 0.64584 0.14602 0.0
C809 C 0.62662 0.62777 0.17897 0.0
H810 H 0.46215 0.03144 0.14122 0.0
H811 H 0.39062 0.90124 0.09224 0.0
H812 H 0.35044 0.8627 0.14623 0.0
H813 H 0.49015 0.99027 0.22225 0.0
H814 H 0.47592 0.02846 0.2459 0.0
H815 H 0.50345 0.04417 0.20433 0.0
H816 H 0.42476 0.05694 0.18758 0.0
H817 H 0.39638 0.04041 0.22878 0.0
H818 H 0.35754 0.01119 0.19296 0.0
H819 H 0.30528 0.84074 0.20416 0.0
H820 H 0.27173 0.83594 0.26209 0.0
H821 H 0.37975 0.97981 0.27403 0.0
C822 C 0.43989 0.99464 0.14222 0.0
C823 C 0.43046 0.96914 0.11277 0.0
C824 C 0.39964 0.9212 0.1147 0.0
C825 C 0.37618 0.89916 0.14522 0.0
C826 C 0.38482 0.92552 0.17368 0.0
C827 C 0.41732 0.97217 0.17255 0.0
C828 C 0.419 0.99313 0.20617 0.0
C829 C 0.47549 0.01531 0.22051 0.0
C830 C 0.39817 0.02742 0.2037 0.0
C831 C 0.38122 0.95129 0.2263 0.0
C832 C 0.36134 0.91258 0.20712 0.0
C833 C 0.32179 0.87066 0.21958 0.0
C834 C 0.30272 0.86824 0.25243 0.0
C835 C 0.3239 0.90726 0.27273 0.0
C836 C 0.36385 0.94915 0.25939 0.0
H837 H 0.4739 0.0563 0.90394 0.0
H838 H 0.43999 0.14812 0.9611 0.0
H839 H 0.43941 0.18795 0.9092 0.0
H840 H 0.55683 0.13823 0.83773 0.0
H841 H 0.52867 0.09673 0.80521 0.0
H842 H 0.53333 0.07894 0.84706 0.0
H843 H 0.43192 0.02262 0.84783 0.0
H844 H 0.42728 0.03995 0.80594 0.0
H845 H 0.38618 0.04343 0.83859 0.0
H846 H 0.43529 0.21449 0.85005 0.0
H847 H 0.42051 0.21989 0.78944 0.0
H848 H 0.45473 0.11018 0.77092 0.0
C849 C 0.46753 0.08541 0.90554 0.0
C850 C 0.45755 0.0993 0.93673 0.0
C851 C 0.4479 0.13683 0.93759 0.0
C852 C 0.44778 0.15991 0.90819 0.0
C853 C 0.45705 0.1451 0.87778 0.0
C854 C 0.46642 0.10847 0.87624 0.0
C855 C 0.46994 0.09652 0.84023 0.0
C856 C 0.52551 0.103 0.83209 0.0
C857 C 0.42623 0.04776 0.83272 0.0
C858 C 0.4603 0.13155 0.8219 0.0
C859 C 0.45379 0.15984 0.84388 0.0
C860 C 0.44121 0.19299 0.83259 0.0
C861 C 0.43339 0.19625 0.79812 0.0
C862 C 0.43793 0.16636 0.7755 0.0
C863 C 0.45263 0.1344 0.78763 0.0
H864 H 0.99454 0.35572 0.96014 0.0
H865 H 0.06086 0.49481 0.92385 0.0
H866 H 0.04269 0.46694 0.86589 0.0
H867 H 0.0496 0.31829 0.895 0.0
H868 H 0.99282 0.26218 0.89257 0.0
H869 H 1.00807 0.29252 0.93129 0.0
H870 H 0.91335 0.28327 0.93335 0.0
H871 H 0.89775 0.25286 0.89462 0.0
H872 H 0.88994 0.30262 0.89845 0.0
H873 H 1.01782 0.42436 0.81204 0.0
H874 H 0.99304 0.37152 0.76545 0.0
H875 H 0.94566 0.25845 0.83522 0.0
C876 C 1.00475 0.38037 0.94003 0.0
C877 C 1.02873 0.42768 0.94674 0.0
C878 C 0.04228 0.45859 0.91954 0.0
C879 C 1.03201 0.44298 0.88649 0.0
C880 C 1.0086 0.39628 0.88082 0.0
C881 C 0.99541 0.36537 0.9068 0.0
C882 C 0.97273 0.31713 0.89365 0.0
C883 C 1.00791 0.29631 0.90373 0.0
C884 C 0.91501 0.2872 0.90574 0.0
C885 C 0.97524 0.32569 0.85614 0.0
C886 C 0.99568 0.37165 0.84951 0.0
C887 C 1.00193 0.38839 0.81701 0.0
C888 C 0.98755 0.35775 0.79058 0.0
C889 C 0.96729 0.31037 0.79629 0.0
C890 C 0.96087 0.29424 0.82978 0.0
H891 H 0.67755 0.63072 0.82606 0.0
H892 H 0.8068 0.59914 0.82324 0.0
H893 H 0.77128 0.55279 0.87521 0.0
H894 H 0.67508 0.64416 0.91217 0.0
H895 H 0.60378 0.61982 0.91442 0.0
H896 H 0.6387 0.6469 0.87648 0.0
H897 H 0.57814 0.57283 0.84451 0.0
H898 H 0.54418 0.54519 0.88277 0.0
H899 H 0.57487 0.52009 0.85754 0.0
H900 H 0.72588 0.51774 0.93237 0.0
H901 H 0.6803 0.50292 0.98741 0.0
H902 H 0.57695 0.55156 0.94839 0.0
C903 C 0.69847 0.61392 0.83611 0.0
C904 C 0.74534 0.61897 0.82058 0.0
C905 C 0.77095 0.59597 0.83467 0.0
C906 C 0.7508 0.56935 0.8641 0.0
C907 C 0.70431 0.56518 0.87873 0.0
C908 C 0.67851 0.58684 0.86488 0.0
C909 C 0.63105 0.57953 0.88579 0.0
C910 C 0.63758 0.62529 0.89794 0.0
C911 C 0.57898 0.55281 0.86649 0.0
C912 C 0.63463 0.55136 0.91431 0.0
C913 C 0.6769 0.54306 0.90997 0.0
C914 C 0.69179 0.52288 0.93547 0.0
C915 C 0.66497 0.51364 0.96658 0.0
C916 C 0.62377 0.52454 0.97184 0.0
C917 C 0.60667 0.54099 0.94462 0.0
H918 H 0.71303 0.79568 0.50693 0.0
H919 H 0.87242 0.84227 0.46856 0.0
H920 H 0.90122 0.8328 0.52503 0.0
H921 H 0.75305 0.84694 0.59218 0.0
H922 H 0.69658 0.79897 0.61128 0.0
H923 H 0.69192 0.81665 0.56941 0.0
H924 H 0.66274 0.73519 0.54884 0.0
H925 H 0.66827 0.71742 0.59038 0.0
H926 H 0.70493 0.71033 0.55653 0.0
H927 H 0.90702 0.80426 0.58344 0.0
H928 H 0.89265 0.76887 0.63975 0.0
H929 H 0.7303 0.74505 0.63996 0.0
C930 C 0.75453 0.80562 0.51077 0.0
C931 C 0.7908 0.8203 0.48365 0.0
C932 C 0.84445 0.832 0.48925 0.0
C933 C 0.86091 0.82632 0.52117 0.0
C934 C 0.82341 0.80981 0.54718 0.0
C935 C 0.7716 0.8008 0.54241 0.0
C936 C 0.73787 0.78065 0.57355 0.0
C937 C 0.71875 0.81273 0.58743 0.0
C938 C 0.6907 0.7331 0.56691 0.0
C939 C 0.77809 0.77803 0.59636 0.0
C940 C 0.82725 0.79494 0.58082 0.0
C941 C 0.86908 0.79203 0.59608 0.0
C942 C 0.86048 0.77162 0.62796 0.0
C943 C 0.81058 0.75473 0.64438 0.0
C944 C 0.76923 0.75852 0.62836 0.0
H945 H 0.26338 0.90585 0.48689 0.0
H946 H 0.20264 0.97808 0.42725 0.0
H947 H 0.22668 0.03514 0.47183 0.0
H948 H 0.22157 0.92912 0.57027 0.0
H949 H 0.28059 0.93422 0.58976 0.0
H950 H 0.2519 0.89681 0.55494 0.0
H951 H 0.34284 0.93842 0.52417 0.0
H952 H 0.37143 0.977 0.55829 0.0
H953 H 0.37341 0.99888 0.51677 0.0
H954 H 0.27271 0.09189 0.51989 0.0
H955 H 0.31797 0.13319 0.57131 0.0
H956 H 0.34265 0.02074 0.60076 0.0
C957 C 0.25248 0.93229 0.48401 0.0
C958 C 0.22939 0.9365 0.45395 0.0
C959 C 0.21816 0.97295 0.45051 0.0
C960 C 0.23276 1.0061 0.47552 0.0
C961 C 0.25788 1.0021 0.50418 0.0
C962 C 0.26594 0.96514 0.50895 0.0
C963 C 0.29507 0.96914 0.54133 0.0
C964 C 0.2602 0.93 0.56551 0.0
C965 C 0.34886 0.97097 0.53472 0.0
C966 C 0.30296 0.01437 0.55392 0.0
C967 C 0.2821 0.03341 0.53197 0.0
C968 C 0.28812 0.07669 0.53748 0.0
C969 C 0.31444 0.10021 0.56656 0.0
C970 C 0.33374 0.08021 0.59009 0.0
C971 C 0.32801 0.03682 0.58336 0.0
H972 H 0.03864 0.23214 0.63247 0.0
H973 H 0.87373 0.14816 0.60595 0.0
H974 H 0.89855 0.16403 0.54615 0.0
H975 H 0.06231 0.31726 0.57878 0.0
H976 H 0.12996 0.33311 0.56762 0.0
H977 H 0.10304 0.30591 0.6072 0.0
H978 H 0.12537 0.24211 0.59409 0.0
H979 H 0.15404 0.26966 0.5547 0.0
H980 H 0.10242 0.21103 0.55581 0.0
H981 H 0.93844 0.20167 0.49052 0.0
H982 H 0.99071 0.25177 0.44344 0.0
H983 H 0.13063 0.31399 0.50544 0.0
C984 C 1.00841 0.21439 0.61394 0.0
C985 C 0.95446 0.18682 0.62396 0.0
C986 C 0.91543 0.16723 0.59898 0.0
C987 C 0.92925 0.17687 0.56489 0.0
C988 C 0.98234 0.20654 0.55605 0.0
C989 C 1.02157 0.22444 0.5799 0.0
C990 C 0.07426 0.26005 0.56451 0.0
C991 C 0.09347 0.30682 0.58049 0.0
C992 C 0.11653 0.24479 0.56744 0.0
C993 C 0.05843 0.26038 0.52839 0.0
C994 C 1.00523 0.22905 0.52406 0.0
C995 C 0.98028 0.22552 0.4936 0.0
C996 C 1.01021 0.25431 0.46699 0.0
C997 C 0.0647 0.28643 0.47065 0.0
C998 C 0.08922 0.28926 0.50177 0.0
loop_
_geom_bond_atom_site_label_1
_geom_bond_atom_site_label_2
_geom_bond_distance
_geom_bond_site_symmetry_2
_ccdc_geom_bond_type
Co0 N5 2.057 1_554 S
Co0 O17 2.021 . S
Co0 O20 2.062 . S
Co0 O24 2.117 1_554 S
Co0 O25 2.020 1_455 S
C1 O21 1.259 . S
C1 O24 1.258 1_655 S
Co2 N11 2.057 . S
Co2 O18 2.117 . S
Co2 O19 2.020 1_655 S
Co2 O21 2.021 1_554 S
Co2 O26 2.062 . S
C3 N5 1.316 1_554 S
C3 N6 1.347 1_554 S
C3 H8 0.931 . S
C4 N5 1.375 . S
C4 C7 1.350 . S
C4 H9 0.930 . S
N5 Co0 2.057 1_556 S
N5 C3 1.316 1_556 S
N5 C4 1.375 . S
N6 C3 1.347 1_556 S
N6 C7 1.373 . S
C7 C4 1.350 . S
C7 N6 1.373 . S
C7 H28 0.931 . S
H8 C3 0.931 . S
H9 C4 0.930 . S
C10 O17 1.259 . S
C10 O18 1.258 1_455 S
N11 Co2 2.057 . S
N11 C12 1.313 1_554 S
N11 C13 1.375 . S
C12 N11 1.313 1_556 S
C12 N14 1.344 1_556 S
C12 H23 0.936 . S
C13 N11 1.375 . S
C13 C15 1.350 . S
C13 H22 0.930 . S
N14 C12 1.344 1_554 S
N14 C15 1.373 . S
C15 C13 1.350 . S
C15 N14 1.373 . S
C15 H29 0.931 . S
C16 O19 1.256 . S
C16 O20 1.255 . S
O17 Co0 2.021 . S
O17 C10 1.259 . S
O18 Co2 2.117 . S
O18 C10 1.258 1_655 S
O19 Co2 2.020 1_455 S
O19 C16 1.256 . S
O20 Co0 2.062 . S
O20 C16 1.255 . S
O21 C1 1.259 . S
O21 Co2 2.021 1_556 S
H22 C13 0.930 . S
H23 C12 0.936 . S
O24 Co0 2.117 1_556 S
O24 C1 1.258 1_455 S
O25 Co0 2.020 1_655 S
O25 C27 1.256 . S
O26 Co2 2.062 . S
O26 C27 1.255 . S
C27 O25 1.256 . S
C27 O26 1.255 . S
H28 C7 0.931 . S
H29 C15 0.931 . S
Co30 N35 2.057 . S
Co30 O47 2.021 1_554 S
Co30 O50 2.062 . S
Co30 O54 2.117 . S
Co30 O55 2.020 . S
C31 O51 1.259 . S
C31 O54 1.258 . S
Co32 N41 2.057 1_554 S
Co32 O48 2.117 1_554 S
Co32 O49 2.020 . S
Co32 O51 2.021 . S
Co32 O56 2.062 . S
C33 N35 1.316 . S
C33 N36 1.347 . S
C33 H38 0.931 1_554 S
C34 N35 1.375 . S
C34 C37 1.350 . S
C34 H39 0.930 . S
N35 Co30 2.057 . S
N35 C33 1.316 . S
N35 C34 1.375 . S
N36 C33 1.347 . S
N36 C37 1.373 . S
C37 C34 1.350 . S
C37 N36 1.373 . S
C37 H58 0.931 . S
H38 C33 0.931 1_556 S
H39 C34 0.930 . S
C40 O47 1.259 . S
C40 O48 1.258 . S
N41 Co32 2.057 1_556 S
N41 C42 1.316 1_556 S
N41 C43 1.375 . S
C42 N41 1.316 1_554 S
C42 N44 1.347 1_554 S
C42 H53 0.931 . S
C43 N41 1.375 . S
C43 C45 1.350 . S
C43 H52 0.930 . S
N44 C42 1.347 1_556 S
N44 C45 1.373 . S
C45 C43 1.350 . S
C45 N44 1.373 . S
C45 H59 0.931 . S
C46 O49 1.256 . S
C46 O50 1.255 . S
O47 Co30 2.021 1_556 S
O47 C40 1.259 . S
O48 Co32 2.117 1_556 S
O48 C40 1.258 . S
O49 Co32 2.020 . S
O49 C46 1.256 . S
O50 Co30 2.062 . S
O50 C46 1.255 . S
O51 C31 1.259 . S
O51 Co32 2.021 . S
H52 C43 0.930 . S
H53 C42 0.931 . S
O54 Co30 2.117 . S
O54 C31 1.258 . S
O55 Co30 2.020 . S
O55 C57 1.256 . S
O56 Co32 2.062 . S
O56 C57 1.255 . S
C57 O55 1.256 . S
C57 O56 1.255 . S
H58 C37 0.931 . S
H59 C45 0.931 . S
Co60 N65 2.057 1_554 S
Co60 O77 2.021 . S
Co60 O80 2.062 . S
Co60 O84 2.117 1_554 S
Co60 O85 2.020 1_565 S
C61 O81 1.259 . S
C61 O84 1.258 1_545 S
Co62 N71 2.057 . S
Co62 O78 2.117 . S
Co62 O79 2.020 1_545 S
Co62 O81 2.021 1_554 S
Co62 O86 2.062 . S
C63 N65 1.316 1_554 S
C63 N66 1.347 1_554 S
C63 H68 0.931 . S
C64 N65 1.375 . S
C64 C67 1.350 . S
C64 H69 0.930 . S
N65 Co60 2.057 1_556 S
N65 C63 1.316 1_556 S
N65 C64 1.375 . S
N66 C63 1.347 1_556 S
N66 C67 1.373 . S
C67 C64 1.350 . S
C67 N66 1.373 . S
C67 H88 0.931 . S
H68 C63 0.931 . S
H69 C64 0.930 . S
C70 O77 1.259 . S
C70 O78 1.258 1_565 S
N71 Co62 2.057 . S
N71 C72 1.315 1_554 S
N71 C73 1.375 . S
C72 N71 1.315 1_556 S
C72 N74 1.345 1_556 S
C72 H83 0.933 . S
C73 N71 1.375 . S
C73 C75 1.350 . S
C73 H82 0.930 . S
N74 C72 1.345 1_554 S
N74 C75 1.373 . S
C75 C73 1.350 . S
C75 N74 1.373 . S
C75 H89 0.931 . S
C76 O79 1.256 . S
C76 O80 1.255 . S
O77 Co60 2.021 . S
O77 C70 1.259 . S
O78 Co62 2.117 . S
O78 C70 1.258 1_545 S
O79 Co62 2.020 1_565 S
O79 C76 1.256 . S
O80 Co60 2.062 . S
O80 C76 1.255 . S
O81 C61 1.259 . S
O81 Co62 2.021 1_556 S
H82 C73 0.930 . S
H83 C72 0.933 . S
O84 Co60 2.117 1_556 S
O84 C61 1.258 1_565 S
O85 Co60 2.020 1_545 S
O85 C87 1.256 . S
O86 Co62 2.062 . S
O86 C87 1.255 . S
C87 O85 1.256 . S
C87 O86 1.255 . S
H88 C67 0.931 . S
H89 C75 0.931 . S
Co90 N95 2.057 . S
Co90 O107 2.021 . S
Co90 O110 2.062 . S
Co90 O114 2.117 . S
Co90 O115 2.020 . S
C91 O111 1.259 . S
C91 O114 1.258 . S
Co92 N101 2.057 . S
Co92 O108 2.117 . S
Co92 O109 2.020 . S
Co92 O111 2.021 . S
Co92 O116 2.062 . S
C93 N95 1.316 . S
C93 N96 1.347 . S
C93 H98 0.931 . S
C94 N95 1.375 . S
C94 C97 1.350 . S
C94 H99 0.930 . S
N95 Co90 2.057 . S
N95 C93 1.316 . S
N95 C94 1.375 . S
N96 C93 1.347 . S
N96 C97 1.373 . S
C97 C94 1.350 . S
C97 N96 1.373 . S
C97 H118 0.931 . S
H98 C93 0.931 . S
H99 C94 0.930 . S
C100 O107 1.259 . S
C100 O108 1.258 . S
N101 Co92 2.057 . S
N101 C102 1.316 . S
N101 C103 1.375 . S
C102 N101 1.316 . S
C102 N104 1.347 . S
C102 H113 0.931 . S
C103 N101 1.375 . S
C103 C105 1.350 . S
C103 H112 0.930 . S
N104 C102 1.347 . S
N104 C105 1.373 . S
C105 C103 1.350 . S
C105 N104 1.373 . S
C105 H119 0.931 . S
C106 O109 1.256 . S
C106 O110 1.255 . S
O107 Co90 2.021 . S
O107 C100 1.259 . S
O108 Co92 2.117 . S
O108 C100 1.258 . S
O109 Co92 2.020 . S
O109 C106 1.256 . S
O110 Co90 2.062 . S
O110 C106 1.255 . S
O111 C91 1.259 . S
O111 Co92 2.021 . S
H112 C103 0.930 . S
H113 C102 0.931 . S
O114 Co90 2.117 . S
O114 C91 1.258 . S
O115 Co90 2.020 . S
O115 C117 1.256 . S
O116 Co92 2.062 . S
O116 C117 1.255 . S
C117 O115 1.256 . S
C117 O116 1.255 . S
H118 C97 0.931 . S
H119 C105 0.931 . S
Co120 N125 2.057 . S
Co120 O137 2.021 . S
Co120 O140 2.062 . S
Co120 O144 2.117 . S
Co120 O145 2.020 . S
C121 O141 1.259 . S
C121 O144 1.258 . S
Co122 N131 2.057 . S
Co122 O138 2.117 . S
Co122 O139 2.020 . S
Co122 O141 2.021 . S
Co122 O146 2.062 . S
C123 N125 1.316 . S
C123 N126 1.347 . S
C123 H128 0.931 . S
C124 N125 1.375 . S
C124 C127 1.350 . S
C124 H129 0.930 . S
N125 Co120 2.057 . S
N125 C123 1.316 . S
N125 C124 1.375 . S
N126 C123 1.347 . S
N126 C127 1.373 . S
C127 C124 1.350 . S
C127 N126 1.373 . S
C127 H148 0.931 . S
H128 C123 0.931 . S
H129 C124 0.930 . S
C130 O137 1.259 . S
C130 O138 1.258 . S
N131 Co122 2.057 . S
N131 C132 1.316 . S
N131 C133 1.375 . S
C132 N131 1.316 . S
C132 N134 1.347 . S
C132 H143 0.931 . S
C133 N131 1.375 . S
C133 C135 1.350 . S
C133 H142 0.930 . S
N134 C132 1.347 . S
N134 C135 1.373 . S
C135 C133 1.350 . S
C135 N134 1.373 . S
C135 H149 0.931 . S
C136 O139 1.256 . S
C136 O140 1.255 . S
O137 Co120 2.021 . S
O137 C130 1.259 . S
O138 Co122 2.117 . S
O138 C130 1.258 . S
O139 Co122 2.020 . S
O139 C136 1.256 . S
O140 Co120 2.062 . S
O140 C136 1.255 . S
O141 C121 1.259 . S
O141 Co122 2.021 . S
H142 C133 0.930 . S
H143 C132 0.931 . S
O144 Co120 2.117 . S
O144 C121 1.258 . S
O145 Co120 2.020 . S
O145 C147 1.256 . S
O146 Co122 2.062 . S
O146 C147 1.255 . S
C147 O145 1.256 . S
C147 O146 1.255 . S
H148 C127 0.931 . S
H149 C135 0.931 . S
Co150 N155 2.057 . S
Co150 O167 2.021 . S
Co150 O170 2.062 . S
Co150 O174 2.117 . S
Co150 O175 2.020 . S
C151 O171 1.259 . S
C151 O174 1.258 . S
Co152 N161 2.057 . S
Co152 O168 2.117 . S
Co152 O169 2.020 . S
Co152 O171 2.021 . S
Co152 O176 2.062 . S
C153 N155 1.316 . S
C153 N156 1.347 . S
C153 H158 0.931 . S
C154 N155 1.375 . S
C154 C157 1.350 . S
C154 H159 0.930 . S
N155 Co150 2.057 . S
N155 C153 1.316 . S
N155 C154 1.375 . S
N156 C153 1.347 . S
N156 C157 1.373 . S
C157 C154 1.350 . S
C157 N156 1.373 . S
C157 H178 0.931 . S
H158 C153 0.931 . S
H159 C154 0.930 . S
C160 O167 1.259 . S
C160 O168 1.258 . S
N161 Co152 2.057 . S
N161 C162 1.316 . S
N161 C163 1.375 . S
C162 N161 1.316 . S
C162 N164 1.347 . S
C162 H173 0.931 . S
C163 N161 1.375 . S
C163 C165 1.350 . S
C163 H172 0.930 . S
N164 C162 1.347 . S
N164 C165 1.373 . S
C165 C163 1.350 . S
C165 N164 1.373 . S
C165 H179 0.931 . S
C166 O169 1.256 . S
C166 O170 1.255 . S
O167 Co150 2.021 . S
O167 C160 1.259 . S
O168 Co152 2.117 . S
O168 C160 1.258 . S
O169 Co152 2.020 . S
O169 C166 1.256 . S
O170 Co150 2.062 . S
O170 C166 1.255 . S
O171 C151 1.259 . S
O171 Co152 2.021 . S
H172 C163 0.930 . S
H173 C162 0.931 . S
O174 Co150 2.117 . S
O174 C151 1.258 . S
O175 Co150 2.020 . S
O175 C177 1.256 . S
O176 Co152 2.062 . S
O176 C177 1.255 . S
C177 O175 1.256 . S
C177 O176 1.255 . S
H178 C157 0.931 . S
H179 C165 0.931 . S
Co180 N185 2.057 . S
Co180 O197 2.021 . S
Co180 O200 2.062 . S
Co180 O204 2.117 . S
Co180 O205 2.020 . S
C181 O201 1.259 . S
C181 O204 1.258 . S
Co182 N191 2.057 . S
Co182 O198 2.117 . S
Co182 O199 2.020 . S
Co182 O201 2.021 . S
Co182 O206 2.062 . S
C183 N185 1.316 . S
C183 N186 1.347 . S
C183 H188 0.931 . S
C184 N185 1.375 . S
C184 C187 1.350 . S
C184 H189 0.930 . S
N185 Co180 2.057 . S
N185 C183 1.316 . S
N185 C184 1.375 . S
N186 C183 1.347 . S
N186 C187 1.373 . S
C187 C184 1.350 . S
C187 N186 1.373 . S
C187 H208 0.931 . S
H188 C183 0.931 . S
H189 C184 0.930 . S
C190 O197 1.259 . S
C190 O198 1.258 . S
N191 Co182 2.057 . S
N191 C192 1.316 1_545 S
N191 C193 1.375 1_545 S
C192 N191 1.316 1_565 S
C192 N194 1.347 . S
C192 H203 0.931 . S
C193 N191 1.375 1_565 S
C193 C195 1.350 . S
C193 H202 0.930 1_565 S
N194 C192 1.347 . S
N194 C195 1.373 . S
C195 C193 1.350 . S
C195 N194 1.373 . S
C195 H209 0.931 . S
C196 O199 1.256 . S
C196 O200 1.255 . S
O197 Co180 2.021 . S
O197 C190 1.259 . S
O198 Co182 2.117 . S
O198 C190 1.258 . S
O199 Co182 2.020 . S
O199 C196 1.256 . S
O200 Co180 2.062 . S
O200 C196 1.255 . S
O201 C181 1.259 . S
O201 Co182 2.021 . S
H202 C193 0.930 1_545 S
H203 C192 0.931 . S
O204 Co180 2.117 . S
O204 C181 1.258 . S
O205 Co180 2.020 . S
O205 C207 1.256 . S
O206 Co182 2.062 . S
O206 C207 1.255 . S
C207 O205 1.256 . S
C207 O206 1.255 . S
H208 C187 0.931 . S
H209 C195 0.931 . S
Co210 N215 2.057 . S
Co210 O227 2.021 . S
Co210 O230 2.062 . S
Co210 O234 2.117 . S
Co210 O235 2.020 . S
C211 O231 1.259 . S
C211 O234 1.258 . S
Co212 N221 2.057 . S
Co212 O228 2.117 . S
Co212 O229 2.020 . S
Co212 O231 2.021 . S
Co212 O236 2.062 . S
C213 N215 1.316 . S
C213 N216 1.347 . S
C213 H218 0.931 . S
C214 N215 1.375 . S
C214 C217 1.350 . S
C214 H219 0.930 . S
N215 Co210 2.057 . S
N215 C213 1.316 . S
N215 C214 1.375 . S
N216 C213 1.347 . S
N216 C217 1.373 . S
C217 C214 1.350 . S
C217 N216 1.373 . S
C217 H238 0.931 . S
H218 C213 0.931 . S
H219 C214 0.930 . S
C220 O227 1.259 . S
C220 O228 1.258 . S
N221 Co212 2.057 . S
N221 C222 1.316 . S
N221 C223 1.375 . S
C222 N221 1.316 . S
C222 N224 1.347 . S
C222 H233 0.931 . S
C223 N221 1.375 . S
C223 C225 1.350 . S
C223 H232 0.930 . S
N224 C222 1.347 . S
N224 C225 1.373 . S
C225 C223 1.350 . S
C225 N224 1.373 . S
C225 H239 0.931 . S
C226 O229 1.256 . S
C226 O230 1.255 . S
O227 Co210 2.021 . S
O227 C220 1.259 . S
O228 Co212 2.117 . S
O228 C220 1.258 . S
O229 Co212 2.020 . S
O229 C226 1.256 . S
O230 Co210 2.062 . S
O230 C226 1.255 . S
O231 C211 1.259 . S
O231 Co212 2.021 . S
H232 C223 0.930 . S
H233 C222 0.931 . S
O234 Co210 2.117 . S
O234 C211 1.258 . S
O235 Co210 2.020 . S
O235 C237 1.256 . S
O236 Co212 2.062 . S
O236 C237 1.255 . S
C237 O235 1.256 . S
C237 O236 1.255 . S
H238 C217 0.931 . S
H239 C225 0.931 . S
Co240 N245 2.057 . S
Co240 O257 2.021 . S
Co240 O260 2.062 . S
Co240 O264 2.117 . S
Co240 O265 2.020 . S
C241 O261 1.259 . S
C241 O264 1.258 . S
Co242 N251 2.057 . S
Co242 O258 2.117 . S
Co242 O259 2.020 . S
Co242 O261 2.021 . S
Co242 O266 2.062 . S
C243 N245 1.316 . S
C243 N246 1.347 . S
C243 H248 0.931 . S
C244 N245 1.375 . S
C244 C247 1.350 . S
C244 H249 0.930 . S
N245 Co240 2.057 . S
N245 C243 1.316 . S
N245 C244 1.375 . S
N246 C243 1.347 . S
N246 C247 1.373 . S
C247 C244 1.350 . S
C247 N246 1.373 . S
C247 H268 0.931 . S
H248 C243 0.931 . S
H249 C244 0.930 . S
C250 O257 1.259 . S
C250 O258 1.258 . S
N251 Co242 2.057 . S
N251 C252 1.316 . S
N251 C253 1.375 . S
C252 N251 1.316 . S
C252 N254 1.347 . S
C252 H263 0.931 . S
C253 N251 1.375 . S
C253 C255 1.350 . S
C253 H262 0.930 . S
N254 C252 1.347 . S
N254 C255 1.373 . S
C255 C253 1.350 . S
C255 N254 1.373 . S
C255 H269 0.931 . S
C256 O259 1.256 . S
C256 O260 1.255 . S
O257 Co240 2.021 . S
O257 C250 1.259 . S
O258 Co242 2.117 . S
O258 C250 1.258 . S
O259 Co242 2.020 . S
O259 C256 1.256 . S
O260 Co240 2.062 . S
O260 C256 1.255 . S
O261 C241 1.259 . S
O261 Co242 2.021 . S
H262 C253 0.930 . S
H263 C252 0.931 . S
O264 Co240 2.117 . S
O264 C241 1.258 . S
O265 Co240 2.020 . S
O265 C267 1.256 . S
O266 Co242 2.062 . S
O266 C267 1.255 . S
C267 O265 1.256 . S
C267 O266 1.255 . S
H268 C247 0.931 . S
H269 C255 0.931 . S
H270 C282 0.930 . S
H271 C284 0.930 . S
H272 C285 0.930 . S
H273 C289 0.959 . S
H274 C289 0.959 . S
H275 C289 0.961 . S
H276 C290 0.960 . S
H277 C290 0.961 . S
H278 C290 0.959 . S
H279 C293 0.929 . S
H280 C294 0.931 . S
H281 C296 0.930 . S
C282 H270 0.930 . S
C282 C283 1.399 . S
C282 C287 1.399 . S
C283 C282 1.399 . S
C283 C284 1.376 1_554 S
C284 H271 0.930 . S
C284 C283 1.376 1_556 S
C284 C285 1.388 . S
C285 H272 0.930 . S
C285 C284 1.388 . S
C285 C286 1.390 . S
C286 C285 1.390 . S
C286 C287 1.394 1_556 S
C286 C292 1.465 . S
C287 C282 1.399 . S
C287 C286 1.394 1_554 S
C287 C288 1.516 . S
C288 C287 1.516 . S
C288 C289 1.502 . S
C288 C290 1.561 . S
C288 C291 1.526 . S
C289 H273 0.959 . S
C289 H274 0.959 . S
C289 H275 0.961 . S
C289 C288 1.502 . S
C290 H276 0.960 . S
C290 H277 0.961 . S
C290 H278 0.959 . S
C290 C288 1.561 . S
C291 C288 1.526 . S
C291 C292 1.396 1_554 S
C291 C296 1.390 . S
C292 C286 1.465 . S
C292 C291 1.396 1_556 S
C292 C293 1.399 . S
C293 H279 0.929 . S
C293 C292 1.399 . S
C293 C294 1.385 . S
C294 H280 0.931 . S
C294 C293 1.385 . S
C294 C295 1.389 . S
C295 C294 1.389 . S
C295 C296 1.387 1_556 S
C296 H281 0.930 . S
C296 C291 1.390 . S
C296 C295 1.387 1_554 S
H297 C309 0.930 . S
H298 C311 0.930 . S
H299 C312 0.930 . S
H300 C316 0.959 . S
H301 C316 0.959 . S
H302 C316 0.961 . S
H303 C317 0.960 . S
H304 C317 0.961 . S
H305 C317 0.959 . S
H306 C320 0.929 . S
H307 C321 0.931 . S
H308 C323 0.930 . S
C309 H297 0.930 . S
C309 C310 1.399 1_554 S
C309 C314 1.399 . S
C310 C309 1.399 1_556 S
C310 C311 1.376 . S
C311 H298 0.930 . S
C311 C310 1.376 . S
C311 C312 1.388 . S
C312 H299 0.930 . S
C312 C311 1.388 . S
C312 C313 1.390 . S
C313 C312 1.390 . S
C313 C314 1.394 1_556 S
C313 C319 1.465 . S
C314 C309 1.399 . S
C314 C313 1.394 1_554 S
C314 C315 1.516 . S
C315 C314 1.516 . S
C315 C316 1.502 . S
C315 C317 1.561 . S
C315 C318 1.526 . S
C316 H300 0.959 . S
C316 H301 0.959 . S
C316 H302 0.961 . S
C316 C315 1.502 . S
C317 H303 0.960 . S
C317 H304 0.961 . S
C317 H305 0.959 . S
C317 C315 1.561 . S
C318 C315 1.526 . S
C318 C319 1.396 1_554 S
C318 C323 1.390 . S
C319 C313 1.465 . S
C319 C318 1.396 1_556 S
C319 C320 1.399 . S
C320 H306 0.929 . S
C320 C319 1.399 . S
C320 C321 1.385 . S
C321 H307 0.931 . S
C321 C320 1.385 . S
C321 C322 1.389 . S
C322 C321 1.389 . S
C322 C323 1.387 1_556 S
C323 H308 0.930 . S
C323 C318 1.390 . S
C323 C322 1.387 1_554 S
H324 C336 0.930 . S
H325 C338 0.930 . S
H326 C339 0.930 . S
H327 C343 0.959 . S
H328 C343 0.959 . S
H329 C343 0.961 . S
H330 C344 0.960 . S
H331 C344 0.961 . S
H332 C344 0.959 . S
H333 C347 0.929 . S
H334 C348 0.931 . S
H335 C350 0.930 . S
C336 H324 0.930 . S
C336 C337 1.399 1_554 S
C336 C341 1.399 . S
C337 C336 1.399 1_556 S
C337 C338 1.376 . S
C338 H325 0.930 . S
C338 C337 1.376 . S
C338 C339 1.388 . S
C339 H326 0.930 . S
C339 C338 1.388 . S
C339 C340 1.390 . S
C340 C339 1.390 . S
C340 C341 1.394 1_556 S
C340 C346 1.465 . S
C341 C336 1.399 . S
C341 C340 1.394 1_554 S
C341 C342 1.516 . S
C342 C341 1.516 . S
C342 C343 1.502 . S
C342 C344 1.561 . S
C342 C345 1.526 . S
C343 H327 0.959 . S
C343 H328 0.959 . S
C343 H329 0.961 . S
C343 C342 1.502 . S
C344 H330 0.960 . S
C344 H331 0.961 . S
C344 H332 0.959 . S
C344 C342 1.561 . S
C345 C342 1.526 . S
C345 C346 1.396 1_554 S
C345 C350 1.390 . S
C346 C340 1.465 . S
C346 C345 1.396 1_556 S
C346 C347 1.399 . S
C347 H333 0.929 . S
C347 C346 1.399 . S
C347 C348 1.385 . S
C348 H334 0.931 . S
C348 C347 1.385 . S
C348 C349 1.389 . S
C349 C348 1.389 . S
C349 C350 1.387 1_556 S
C350 H335 0.930 . S
C350 C345 1.390 . S
C350 C349 1.387 1_554 S
H351 C363 0.930 . S
H352 C365 0.930 . S
H353 C366 0.930 . S
H354 C370 0.959 . S
H355 C370 0.959 . S
H356 C370 0.961 . S
H357 C371 0.960 . S
H358 C371 0.961 . S
H359 C371 0.959 . S
H360 C374 0.929 . S
H361 C375 0.931 . S
H362 C377 0.930 . S
C363 H351 0.930 . S
C363 C364 1.399 1_556 S
C363 C368 1.399 . S
C364 C363 1.399 1_554 S
C364 C365 1.376 . S
C365 H352 0.930 . S
C365 C364 1.376 . S
C365 C366 1.388 . S
C366 H353 0.930 . S
C366 C365 1.388 . S
C366 C367 1.390 . S
C367 C366 1.390 . S
C367 C368 1.394 1_554 S
C367 C373 1.465 . S
C368 C363 1.399 . S
C368 C367 1.394 1_556 S
C368 C369 1.516 . S
C369 C368 1.516 . S
C369 C370 1.502 . S
C369 C371 1.561 . S
C369 C372 1.549 . S
C370 H354 0.959 . S
C370 H355 0.959 . S
C370 H356 0.961 . S
C370 C369 1.502 . S
C371 H357 0.960 . S
C371 H358 0.961 . S
C371 H359 0.959 . S
C371 C369 1.561 . S
C372 C369 1.549 . S
C372 C373 1.365 1_556 S
C372 C377 1.395 . S
C373 C367 1.465 . S
C373 C372 1.365 1_554 S
C373 C374 1.399 . S
C374 H360 0.929 . S
C374 C373 1.399 . S
C374 C375 1.385 . S
C375 H361 0.931 . S
C375 C374 1.385 . S
C375 C376 1.389 . S
C376 C375 1.389 . S
C376 C377 1.387 1_554 S
C377 H362 0.930 . S
C377 C372 1.395 . S
C377 C376 1.387 1_556 S
H378 C390 0.930 . S
H379 C392 0.930 . S
H380 C393 0.930 . S
H381 C397 0.959 . S
H382 C397 0.959 . S
H383 C397 0.961 . S
H384 C398 0.960 . S
H385 C398 0.961 . S
H386 C398 0.959 . S
H387 C401 0.929 . S
H388 C402 0.931 . S
H389 C404 0.930 . S
C390 H378 0.930 . S
C390 C391 1.399 . S
C390 C395 1.399 . S
C391 C390 1.399 . S
C391 C392 1.376 1_554 S
C392 H379 0.930 . S
C392 C391 1.376 1_556 S
C392 C393 1.388 . S
C393 H380 0.930 . S
C393 C392 1.388 . S
C393 C394 1.390 . S
C394 C393 1.390 . S
C394 C395 1.394 1_556 S
C394 C400 1.465 . S
C395 C390 1.399 . S
C395 C394 1.394 1_554 S
C395 C396 1.516 . S
C396 C395 1.516 . S
C396 C397 1.502 . S
C396 C398 1.561 . S
C396 C399 1.526 . S
C397 H381 0.959 . S
C397 H382 0.959 . S
C397 H383 0.961 . S
C397 C396 1.502 . S
C398 H384 0.960 . S
C398 H385 0.961 . S
C398 H386 0.959 . S
C398 C396 1.561 . S
C399 C396 1.526 . S
C399 C400 1.396 1_554 S
C399 C404 1.390 . S
C400 C394 1.465 . S
C400 C399 1.396 1_556 S
C400 C401 1.399 . S
C401 H387 0.929 . S
C401 C400 1.399 . S
C401 C402 1.385 . S
C402 H388 0.931 . S
C402 C401 1.385 . S
C402 C403 1.389 1_556 S
C403 C402 1.389 1_554 S
C403 C404 1.387 . S
C404 H389 0.930 . S
C404 C399 1.390 . S
C404 C403 1.387 . S
H405 C417 0.930 . S
H406 C419 0.930 . S
H407 C420 0.930 . S
H408 C424 0.959 . S
H409 C424 0.959 . S
H410 C424 0.961 . S
H411 C425 0.960 . S
H412 C425 0.961 . S
H413 C425 0.959 . S
H414 C428 0.929 . S
H415 C429 0.931 . S
H416 C431 0.930 . S
C417 H405 0.930 . S
C417 C418 1.399 . S
C417 C422 1.399 . S
C418 C417 1.399 . S
C418 C419 1.376 1_554 S
C419 H406 0.930 . S
C419 C418 1.376 1_556 S
C419 C420 1.388 . S
C420 H407 0.930 . S
C420 C419 1.388 . S
C420 C421 1.390 . S
C421 C420 1.390 . S
C421 C422 1.394 1_556 S
C421 C427 1.465 . S
C422 C417 1.399 . S
C422 C421 1.394 1_554 S
C422 C423 1.516 . S
C423 C422 1.516 . S
C423 C424 1.502 . S
C423 C425 1.561 . S
C423 C426 1.526 . S
C424 H408 0.959 . S
C424 H409 0.959 . S
C424 H410 0.961 . S
C424 C423 1.502 . S
C425 H411 0.960 . S
C425 H412 0.961 . S
C425 H413 0.959 . S
C425 C423 1.561 . S
C426 C423 1.526 . S
C426 C427 1.396 1_554 S
C426 C431 1.390 . S
C427 C421 1.465 . S
C427 C426 1.396 1_556 S
C427 C428 1.399 . S
C428 H414 0.929 . S
C428 C427 1.399 . S
C428 C429 1.385 . S
C429 H415 0.931 . S
C429 C428 1.385 . S
C429 C430 1.389 1_556 S
C430 C429 1.389 1_554 S
C430 C431 1.387 . S
C431 H416 0.930 . S
C431 C426 1.390 . S
C431 C430 1.387 . S
H432 C444 0.930 . S
H433 C446 0.930 . S
H434 C447 0.930 . S
H435 C451 0.959 . S
H436 C451 0.959 . S
H437 C451 0.961 . S
H438 C452 0.960 . S
H439 C452 0.961 . S
H440 C452 0.959 . S
H441 C455 0.929 . S
H442 C456 0.931 1_455 S
H443 C458 0.930 . S
C444 H432 0.930 . S
C444 C445 1.399 . S
C444 C449 1.399 . S
C445 C444 1.399 . S
C445 C446 1.376 . S
C446 H433 0.930 . S
C446 C445 1.376 . S
C446 C447 1.388 . S
C447 H434 0.930 . S
C447 C446 1.388 . S
C447 C448 1.390 . S
C448 C447 1.390 . S
C448 C449 1.394 . S
C448 C454 1.465 . S
C449 C444 1.399 . S
C449 C448 1.394 . S
C449 C450 1.516 . S
C450 C449 1.516 . S
C450 C451 1.502 . S
C450 C452 1.561 . S
C450 C453 1.526 . S
C451 H435 0.959 . S
C451 H436 0.959 . S
C451 H437 0.961 . S
C451 C450 1.502 . S
C452 H438 0.960 . S
C452 H439 0.961 . S
C452 H440 0.959 . S
C452 C450 1.561 . S
C453 C450 1.526 . S
C453 C454 1.396 . S
C453 C458 1.390 . S
C454 C448 1.465 . S
C454 C453 1.396 . S
C454 C455 1.399 . S
C455 H441 0.929 . S
C455 C454 1.399 . S
C455 C456 1.385 . S
C456 H442 0.931 1_655 S
C456 C455 1.385 . S
C456 C457 1.389 1_655 S
C457 C456 1.389 1_455 S
C457 C458 1.387 1_455 S
C458 H443 0.930 . S
C458 C453 1.390 . S
C458 C457 1.387 1_655 S
H459 C471 0.930 . S
H460 C473 0.930 . S
H461 C474 0.930 . S
H462 C478 0.959 . S
H463 C478 0.959 . S
H464 C478 0.961 . S
H465 C479 0.960 . S
H466 C479 0.961 . S
H467 C479 0.959 . S
H468 C482 0.929 . S
H469 C483 0.931 1_565 S
H470 C485 0.930 . S
C471 H459 0.930 . S
C471 C472 1.399 . S
C471 C476 1.399 . S
C472 C471 1.399 . S
C472 C473 1.376 . S
C473 H460 0.930 . S
C473 C472 1.376 . S
C473 C474 1.388 . S
C474 H461 0.930 . S
C474 C473 1.388 . S
C474 C475 1.390 . S
C475 C474 1.390 . S
C475 C476 1.394 . S
C475 C481 1.465 . S
C476 C471 1.399 . S
C476 C475 1.394 . S
C476 C477 1.516 . S
C477 C476 1.516 . S
C477 C478 1.502 . S
C477 C479 1.561 . S
C477 C480 1.526 . S
C478 H462 0.959 . S
C478 H463 0.959 . S
C478 H464 0.961 . S
C478 C477 1.502 . S
C479 H465 0.960 . S
C479 H466 0.961 . S
C479 H467 0.959 . S
C479 C477 1.561 . S
C480 C477 1.526 . S
C480 C481 1.396 . S
C480 C485 1.390 . S
C481 C475 1.465 . S
C481 C480 1.396 . S
C481 C482 1.399 . S
C482 H468 0.929 . S
C482 C481 1.399 . S
C482 C483 1.385 . S
C483 H469 0.931 1_545 S
C483 C482 1.385 . S
C483 C484 1.389 . S
C484 C483 1.389 . S
C484 C485 1.387 . S
C485 H470 0.930 . S
C485 C480 1.390 . S
C485 C484 1.387 . S
H486 C498 0.930 . S
H487 C500 0.930 . S
H488 C501 0.930 . S
H489 C505 0.959 . S
H490 C505 0.959 . S
H491 C505 0.961 . S
H492 C506 0.960 . S
H493 C506 0.961 . S
H494 C506 0.959 . S
H495 C509 0.929 . S
H496 C510 0.915 1_565 S
H497 C512 0.930 . S
C498 H486 0.930 . S
C498 C499 1.399 . S
C498 C503 1.399 . S
C499 C498 1.399 . S
C499 C500 1.376 1_655 S
C500 H487 0.930 . S
C500 C499 1.376 1_455 S
C500 C501 1.388 1_455 S
C501 H488 0.930 . S
C501 C500 1.388 1_655 S
C501 C502 1.390 . S
C502 C501 1.390 . S
C502 C503 1.394 . S
C502 C508 1.465 . S
C503 C498 1.399 . S
C503 C502 1.394 . S
C503 C504 1.516 . S
C504 C503 1.516 . S
C504 C505 1.502 . S
C504 C506 1.561 . S
C504 C507 1.526 . S
C505 H489 0.959 . S
C505 H490 0.959 . S
C505 H491 0.961 . S
C505 C504 1.502 . S
C506 H492 0.960 . S
C506 H493 0.961 . S
C506 H494 0.959 . S
C506 C504 1.561 . S
C507 C504 1.526 . S
C507 C508 1.396 . S
C507 C512 1.390 . S
C508 C502 1.465 . S
C508 C507 1.396 . S
C508 C509 1.399 . S
C509 H495 0.929 . S
C509 C508 1.399 . S
C509 C510 1.385 . S
C510 H496 0.915 1_545 S
C510 C509 1.385 . S
C510 C511 1.389 . S
C511 C510 1.389 . S
C511 C512 1.387 . S
C512 H497 0.930 . S
C512 C507 1.390 . S
C512 C511 1.387 . S
H513 C525 0.930 . S
H514 C527 0.930 . S
H515 C528 0.930 . S
H516 C532 0.959 . S
H517 C532 0.959 . S
H518 C532 0.961 . S
H519 C533 0.960 . S
H520 C533 0.961 . S
H521 C533 0.959 . S
H522 C536 0.929 . S
H523 C537 0.931 . S
H524 C539 0.930 . S
C525 H513 0.930 . S
C525 C526 1.399 . S
C525 C530 1.399 . S
C526 C525 1.399 . S
C526 C527 1.376 . S
C527 H514 0.930 . S
C527 C526 1.376 . S
C527 C528 1.388 . S
C528 H515 0.930 . S
C528 C527 1.388 . S
C528 C529 1.390 . S
C529 C528 1.390 . S
C529 C530 1.394 . S
C529 C535 1.465 . S
C530 C525 1.399 . S
C530 C529 1.394 . S
C530 C531 1.516 . S
C531 C530 1.516 . S
C531 C532 1.502 . S
C531 C533 1.561 . S
C531 C534 1.526 . S
C532 H516 0.959 . S
C532 H517 0.959 . S
C532 H518 0.961 . S
C532 C531 1.502 . S
C533 H519 0.960 . S
C533 H520 0.961 . S
C533 H521 0.959 . S
C533 C531 1.561 . S
C534 C531 1.526 . S
C534 C535 1.396 . S
C534 C539 1.390 . S
C535 C529 1.465 . S
C535 C534 1.396 . S
C535 C536 1.399 . S
C536 H522 0.929 . S
C536 C535 1.399 . S
C536 C537 1.385 . S
C537 H523 0.931 . S
C537 C536 1.385 . S
C537 C538 1.389 . S
C538 C537 1.389 . S
C538 C539 1.387 . S
C539 H524 0.930 . S
C539 C534 1.390 . S
C539 C538 1.387 . S
H540 C552 0.930 . S
H541 C554 0.930 . S
H542 C555 0.930 . S
H543 C559 0.959 . S
H544 C559 0.959 . S
H545 C559 0.961 . S
H546 C560 0.960 . S
H547 C560 0.961 . S
H548 C560 0.959 . S
H549 C563 0.929 . S
H550 C564 0.931 . S
H551 C566 0.930 . S
C552 H540 0.930 . S
C552 C553 1.399 . S
C552 C557 1.399 . S
C553 C552 1.399 . S
C553 C554 1.376 . S
C554 H541 0.930 . S
C554 C553 1.376 . S
C554 C555 1.388 . S
C555 H542 0.930 . S
C555 C554 1.388 . S
C555 C556 1.390 . S
C556 C555 1.390 . S
C556 C557 1.394 . S
C556 C562 1.465 . S
C557 C552 1.399 . S
C557 C556 1.394 . S
C557 C558 1.516 . S
C558 C557 1.516 . S
C558 C559 1.502 . S
C558 C560 1.561 . S
C558 C561 1.526 . S
C559 H543 0.959 . S
C559 H544 0.959 . S
C559 H545 0.961 . S
C559 C558 1.502 . S
C560 H546 0.960 . S
C560 H547 0.961 . S
C560 H548 0.959 . S
C560 C558 1.561 . S
C561 C558 1.526 . S
C561 C562 1.396 . S
C561 C566 1.390 . S
C562 C556 1.465 . S
C562 C561 1.396 . S
C562 C563 1.399 . S
C563 H549 0.929 . S
C563 C562 1.399 . S
C563 C564 1.385 . S
C564 H550 0.931 . S
C564 C563 1.385 . S
C564 C565 1.389 . S
C565 C564 1.389 . S
C565 C566 1.387 . S
C566 H551 0.930 . S
C566 C561 1.390 . S
C566 C565 1.387 . S
H567 C579 0.930 . S
H568 C581 0.930 . S
H569 C582 0.930 . S
H570 C586 0.959 . S
H571 C586 0.959 . S
H572 C586 0.961 . S
H573 C587 0.960 . S
H574 C587 0.961 . S
H575 C587 0.959 . S
H576 C590 0.929 . S
H577 C591 0.931 . S
H578 C593 0.930 . S
C579 H567 0.930 . S
C579 C580 1.399 . S
C579 C584 1.399 . S
C580 C579 1.399 . S
C580 C581 1.376 . S
C581 H568 0.930 . S
C581 C580 1.376 . S
C581 C582 1.388 . S
C582 H569 0.930 . S
C582 C581 1.388 . S
C582 C583 1.390 . S
C583 C582 1.390 . S
C583 C584 1.394 . S
C583 C589 1.465 . S
C584 C579 1.399 . S
C584 C583 1.394 . S
C584 C585 1.516 . S
C585 C584 1.516 . S
C585 C586 1.502 . S
C585 C587 1.561 . S
C585 C588 1.526 . S
C586 H570 0.959 . S
C586 H571 0.959 . S
C586 H572 0.961 . S
C586 C585 1.502 . S
C587 H573 0.960 . S
C587 H574 0.961 . S
C587 H575 0.959 . S
C587 C585 1.561 . S
C588 C585 1.526 . S
C588 C589 1.396 . S
C588 C593 1.390 . S
C589 C583 1.465 . S
C589 C588 1.396 . S
C589 C590 1.399 . S
C590 H576 0.929 . S
C590 C589 1.399 . S
C590 C591 1.385 . S
C591 H577 0.931 . S
C591 C590 1.385 . S
C591 C592 1.389 . S
C592 C591 1.389 . S
C592 C593 1.387 . S
C593 H578 0.930 . S
C593 C588 1.390 . S
C593 C592 1.387 . S
H594 C606 0.930 . S
H595 C608 0.930 . S
H596 C609 0.930 . S
H597 C613 0.959 . S
H598 C613 0.959 . S
H599 C613 0.961 . S
H600 C614 0.960 . S
H601 C614 0.961 . S
H602 C614 0.959 . S
H603 C617 0.929 . S
H604 C618 0.931 . S
H605 C620 0.930 . S
C606 H594 0.930 . S
C606 C607 1.399 . S
C606 C611 1.399 . S
C607 C606 1.399 . S
C607 C608 1.376 . S
C608 H595 0.930 . S
C608 C607 1.376 . S
C608 C609 1.388 . S
C609 H596 0.930 . S
C609 C608 1.388 . S
C609 C610 1.390 . S
C610 C609 1.390 . S
C610 C611 1.394 . S
C610 C616 1.465 . S
C611 C606 1.399 . S
C611 C610 1.394 . S
C611 C612 1.516 . S
C612 C611 1.516 . S
C612 C613 1.502 . S
C612 C614 1.561 . S
C612 C615 1.526 . S
C613 H597 0.959 . S
C613 H598 0.959 . S
C613 H599 0.961 . S
C613 C612 1.502 . S
C614 H600 0.960 . S
C614 H601 0.961 . S
C614 H602 0.959 . S
C614 C612 1.561 . S
C615 C612 1.526 . S
C615 C616 1.396 . S
C615 C620 1.390 . S
C616 C610 1.465 . S
C616 C615 1.396 . S
C616 C617 1.399 . S
C617 H603 0.929 . S
C617 C616 1.399 . S
C617 C618 1.385 . S
C618 H604 0.931 . S
C618 C617 1.385 . S
C618 C619 1.389 . S
C619 C618 1.389 . S
C619 C620 1.387 . S
C620 H605 0.930 . S
C620 C615 1.390 . S
C620 C619 1.387 . S
H621 C633 0.930 . S
H622 C635 0.930 . S
H623 C636 0.930 . S
H624 C640 0.959 . S
H625 C640 0.959 . S
H626 C640 0.961 . S
H627 C641 0.960 . S
H628 C641 0.961 . S
H629 C641 0.959 . S
H630 C644 0.929 . S
H631 C645 0.931 . S
H632 C647 0.930 . S
C633 H621 0.930 . S
C633 C634 1.399 . S
C633 C638 1.399 . S
C634 C633 1.399 . S
C634 C635 1.376 . S
C635 H622 0.930 . S
C635 C634 1.376 . S
C635 C636 1.388 . S
C636 H623 0.930 . S
C636 C635 1.388 . S
C636 C637 1.390 . S
C637 C636 1.390 . S
C637 C638 1.394 . S
C637 C643 1.465 . S
C638 C633 1.399 . S
C638 C637 1.394 . S
C638 C639 1.516 . S
C639 C638 1.516 . S
C639 C640 1.502 . S
C639 C641 1.561 . S
C639 C642 1.526 . S
C640 H624 0.959 . S
C640 H625 0.959 . S
C640 H626 0.961 . S
C640 C639 1.502 . S
C641 H627 0.960 . S
C641 H628 0.961 . S
C641 H629 0.959 . S
C641 C639 1.561 . S
C642 C639 1.526 . S
C642 C643 1.396 . S
C642 C647 1.390 . S
C643 C637 1.465 . S
C643 C642 1.396 . S
C643 C644 1.399 . S
C644 H630 0.929 . S
C644 C643 1.399 . S
C644 C645 1.385 . S
C645 H631 0.931 . S
C645 C644 1.385 . S
C645 C646 1.389 . S
C646 C645 1.389 . S
C646 C647 1.387 . S
C647 H632 0.930 . S
C647 C642 1.390 . S
C647 C646 1.387 . S
H648 C660 0.930 . S
H649 C662 0.930 . S
H650 C663 0.930 . S
H651 C667 0.959 . S
H652 C667 0.959 . S
H653 C667 0.961 . S
H654 C668 0.960 . S
H655 C668 0.961 . S
H656 C668 0.959 . S
H657 C671 0.929 . S
H658 C672 0.931 . S
H659 C674 0.930 . S
C660 H648 0.930 . S
C660 C661 1.399 . S
C660 C665 1.399 . S
C661 C660 1.399 . S
C661 C662 1.376 . S
C662 H649 0.930 . S
C662 C661 1.376 . S
C662 C663 1.388 . S
C663 H650 0.930 . S
C663 C662 1.388 . S
C663 C664 1.390 . S
C664 C663 1.390 . S
C664 C665 1.394 . S
C664 C670 1.465 . S
C665 C660 1.399 . S
C665 C664 1.394 . S
C665 C666 1.516 . S
C666 C665 1.516 . S
C666 C667 1.502 . S
C666 C668 1.561 . S
C666 C669 1.526 . S
C667 H651 0.959 . S
C667 H652 0.959 . S
C667 H653 0.961 . S
C667 C666 1.502 . S
C668 H654 0.960 . S
C668 H655 0.961 . S
C668 H656 0.959 . S
C668 C666 1.561 . S
C669 C666 1.526 . S
C669 C670 1.396 . S
C669 C674 1.390 . S
C670 C664 1.465 . S
C670 C669 1.396 . S
C670 C671 1.399 . S
C671 H657 0.929 . S
C671 C670 1.399 . S
C671 C672 1.385 . S
C672 H658 0.931 . S
C672 C671 1.385 . S
C672 C673 1.389 . S
C673 C672 1.389 . S
C673 C674 1.387 . S
C674 H659 0.930 . S
C674 C669 1.390 . S
C674 C673 1.387 . S
H675 C687 0.930 . S
H676 C689 0.930 . S
H677 C690 0.930 . S
H678 C694 0.959 . S
H679 C694 0.959 . S
H680 C694 0.961 . S
H681 C695 0.960 . S
H682 C695 0.961 . S
H683 C695 0.959 . S
H684 C698 0.929 . S
H685 C699 0.931 . S
H686 C701 0.930 . S
C687 H675 0.930 . S
C687 C688 1.399 . S
C687 C692 1.399 . S
C688 C687 1.399 . S
C688 C689 1.376 . S
C689 H676 0.930 . S
C689 C688 1.376 . S
C689 C690 1.388 . S
C690 H677 0.930 . S
C690 C689 1.388 . S
C690 C691 1.390 . S
C691 C690 1.390 . S
C691 C692 1.394 . S
C691 C697 1.465 . S
C692 C687 1.399 . S
C692 C691 1.394 . S
C692 C693 1.516 . S
C693 C692 1.516 . S
C693 C694 1.502 . S
C693 C695 1.561 . S
C693 C696 1.526 . S
C694 H678 0.959 . S
C694 H679 0.959 . S
C694 H680 0.961 . S
C694 C693 1.502 . S
C695 H681 0.960 . S
C695 H682 0.961 . S
C695 H683 0.959 . S
C695 C693 1.561 . S
C696 C693 1.526 . S
C696 C697 1.396 . S
C696 C701 1.390 1_565 S
C697 C691 1.465 . S
C697 C696 1.396 . S
C697 C698 1.399 . S
C698 H684 0.929 . S
C698 C697 1.399 . S
C698 C699 1.385 1_565 S
C699 H685 0.931 . S
C699 C698 1.385 1_545 S
C699 C700 1.389 . S
C700 C699 1.389 . S
C700 C701 1.387 . S
C701 H686 0.930 . S
C701 C696 1.390 1_545 S
C701 C700 1.387 . S
H702 C714 0.930 . S
H703 C716 0.930 . S
H704 C717 0.930 . S
H705 C721 0.959 . S
H706 C721 0.959 . S
H707 C721 0.961 . S
H708 C722 0.960 1_655 S
H709 C722 0.961 . S
H710 C722 0.959 . S
H711 C725 0.929 . S
H712 C726 0.931 . S
H713 C728 0.930 . S
C714 H702 0.930 . S
C714 C715 1.399 . S
C714 C719 1.399 . S
C715 C714 1.399 . S
C715 C716 1.376 . S
C716 H703 0.930 . S
C716 C715 1.376 . S
C716 C717 1.388 . S
C717 H704 0.930 . S
C717 C716 1.388 . S
C717 C718 1.390 . S
C718 C717 1.390 . S
C718 C719 1.394 . S
C718 C724 1.465 1_655 S
C719 C714 1.399 . S
C719 C718 1.394 . S
C719 C720 1.516 1_655 S
C720 C719 1.516 1_455 S
C720 C721 1.502 . S
C720 C722 1.561 . S
C720 C723 1.526 . S
C721 H705 0.959 . S
C721 H706 0.959 . S
C721 H707 0.961 . S
C721 C720 1.502 . S
C722 H708 0.960 1_455 S
C722 H709 0.961 . S
C722 H710 0.959 . S
C722 C720 1.561 . S
C723 C720 1.526 . S
C723 C724 1.396 . S
C723 C728 1.390 . S
C724 C718 1.465 1_455 S
C724 C723 1.396 . S
C724 C725 1.399 . S
C725 H711 0.929 . S
C725 C724 1.399 . S
C725 C726 1.385 . S
C726 H712 0.931 . S
C726 C725 1.385 . S
C726 C727 1.389 . S
C727 C726 1.389 . S
C727 C728 1.387 . S
C728 H713 0.930 . S
C728 C723 1.390 . S
C728 C727 1.387 . S
H729 C741 0.930 . S
H730 C743 0.930 . S
H731 C744 0.930 . S
H732 C748 0.959 . S
H733 C748 0.959 . S
H734 C748 0.961 . S
H735 C749 0.960 . S
H736 C749 0.961 . S
H737 C749 0.959 . S
H738 C752 0.929 . S
H739 C753 0.931 . S
H740 C755 0.930 . S
C741 H729 0.930 . S
C741 C742 1.399 . S
C741 C746 1.399 . S
C742 C741 1.399 . S
C742 C743 1.376 . S
C743 H730 0.930 . S
C743 C742 1.376 . S
C743 C744 1.388 . S
C744 H731 0.930 . S
C744 C743 1.388 . S
C744 C745 1.390 . S
C745 C744 1.390 . S
C745 C746 1.394 . S
C745 C751 1.465 . S
C746 C741 1.399 . S
C746 C745 1.394 . S
C746 C747 1.516 . S
C747 C746 1.516 . S
C747 C748 1.502 . S
C747 C749 1.561 . S
C747 C750 1.526 . S
C748 H732 0.959 . S
C748 H733 0.959 . S
C748 H734 0.961 . S
C748 C747 1.502 . S
C749 H735 0.960 . S
C749 H736 0.961 . S
C749 H737 0.959 . S
C749 C747 1.561 . S
C750 C747 1.526 . S
C750 C751 1.396 . S
C750 C755 1.390 . S
C751 C745 1.465 . S
C751 C750 1.396 . S
C751 C752 1.399 . S
C752 H738 0.929 . S
C752 C751 1.399 . S
C752 C753 1.385 . S
C753 H739 0.931 . S
C753 C752 1.385 . S
C753 C754 1.389 . S
C754 C753 1.389 . S
C754 C755 1.387 . S
C755 H740 0.930 . S
C755 C750 1.390 . S
C755 C754 1.387 . S
H756 C768 0.930 . S
H757 C770 0.930 . S
H758 C771 0.930 . S
H759 C775 0.959 . S
H760 C775 0.959 . S
H761 C775 0.961 . S
H762 C776 0.960 . S
H763 C776 0.961 . S
H764 C776 0.959 . S
H765 C779 0.929 . S
H766 C780 0.931 1_655 S
H767 C782 0.930 . S
C768 H756 0.930 . S
C768 C769 1.399 . S
C768 C773 1.399 . S
C769 C768 1.399 . S
C769 C770 1.376 . S
C770 H757 0.930 . S
C770 C769 1.376 . S
C770 C771 1.388 . S
C771 H758 0.930 . S
C771 C770 1.388 . S
C771 C772 1.390 . S
C772 C771 1.390 . S
C772 C773 1.394 . S
C772 C778 1.465 . S
C773 C768 1.399 . S
C773 C772 1.394 . S
C773 C774 1.516 . S
C774 C773 1.516 . S
C774 C775 1.502 . S
C774 C776 1.561 . S
C774 C777 1.526 . S
C775 H759 0.959 . S
C775 H760 0.959 . S
C775 H761 0.961 . S
C775 C774 1.502 . S
C776 H762 0.960 . S
C776 H763 0.961 . S
C776 H764 0.959 . S
C776 C774 1.561 . S
C777 C774 1.526 . S
C777 C778 1.396 . S
C777 C782 1.390 . S
C778 C772 1.465 . S
C778 C777 1.396 . S
C778 C779 1.399 . S
C779 H765 0.929 . S
C779 C778 1.399 . S
C779 C780 1.385 . S
C780 H766 0.931 1_455 S
C780 C779 1.385 . S
C780 C781 1.389 . S
C781 C780 1.389 . S
C781 C782 1.387 . S
C782 H767 0.930 . S
C782 C777 1.390 . S
C782 C781 1.387 . S
H783 C795 0.930 . S
H784 C797 0.930 . S
H785 C798 0.930 . S
H786 C802 0.959 . S
H787 C802 0.959 . S
H788 C802 0.961 . S
H789 C803 0.960 . S
H790 C803 0.961 . S
H791 C803 0.959 . S
H792 C806 0.929 . S
H793 C807 0.931 . S
H794 C809 0.930 . S
C795 H783 0.930 . S
C795 C796 1.399 . S
C795 C800 1.399 . S
C796 C795 1.399 . S
C796 C797 1.376 . S
C797 H784 0.930 . S
C797 C796 1.376 . S
C797 C798 1.388 . S
C798 H785 0.930 . S
C798 C797 1.388 . S
C798 C799 1.390 . S
C799 C798 1.390 . S
C799 C800 1.394 . S
C799 C805 1.465 . S
C800 C795 1.399 . S
C800 C799 1.394 . S
C800 C801 1.516 . S
C801 C800 1.516 . S
C801 C802 1.502 . S
C801 C803 1.561 . S
C801 C804 1.526 . S
C802 H786 0.959 . S
C802 H787 0.959 . S
C802 H788 0.961 . S
C802 C801 1.502 . S
C803 H789 0.960 . S
C803 H790 0.961 . S
C803 H791 0.959 . S
C803 C801 1.561 . S
C804 C801 1.526 . S
C804 C805 1.396 . S
C804 C809 1.390 . S
C805 C799 1.465 . S
C805 C804 1.396 . S
C805 C806 1.399 . S
C806 H792 0.929 . S
C806 C805 1.399 . S
C806 C807 1.385 . S
C807 H793 0.931 . S
C807 C806 1.385 . S
C807 C808 1.389 . S
C808 C807 1.389 . S
C808 C809 1.387 . S
C809 H794 0.930 . S
C809 C804 1.390 . S
C809 C808 1.387 . S
H810 C822 0.930 1_545 S
H811 C824 0.930 . S
H812 C825 0.930 . S
H813 C829 0.959 1_565 S
H814 C829 0.959 . S
H815 C829 0.961 . S
H816 C830 0.960 . S
H817 C830 0.961 . S
H818 C830 0.959 . S
H819 C833 0.929 . S
H820 C834 0.931 . S
H821 C836 0.930 . S
C822 H810 0.930 1_565 S
C822 C823 1.399 . S
C822 C827 1.399 . S
C823 C822 1.399 . S
C823 C824 1.376 . S
C824 H811 0.930 . S
C824 C823 1.376 . S
C824 C825 1.388 . S
C825 H812 0.930 . S
C825 C824 1.388 . S
C825 C826 1.390 . S
C826 C825 1.390 . S
C826 C827 1.394 . S
C826 C832 1.465 . S
C827 C822 1.399 . S
C827 C826 1.394 . S
C827 C828 1.516 . S
C828 C827 1.516 . S
C828 C829 1.502 1_565 S
C828 C830 1.561 1_565 S
C828 C831 1.526 . S
C829 H813 0.959 1_545 S
C829 H814 0.959 . S
C829 H815 0.961 . S
C829 C828 1.502 1_545 S
C830 H816 0.960 . S
C830 H817 0.961 . S
C830 H818 0.959 . S
C830 C828 1.561 1_545 S
C831 C828 1.526 . S
C831 C832 1.396 . S
C831 C836 1.390 . S
C832 C826 1.465 . S
C832 C831 1.396 . S
C832 C833 1.399 . S
C833 H819 0.929 . S
C833 C832 1.399 . S
C833 C834 1.385 . S
C834 H820 0.931 . S
C834 C833 1.385 . S
C834 C835 1.389 . S
C835 C834 1.389 . S
C835 C836 1.387 . S
C836 H821 0.930 . S
C836 C831 1.390 . S
C836 C835 1.387 . S
H837 C849 0.930 . S
H838 C851 0.930 . S
H839 C852 0.930 . S
H840 C856 0.959 . S
H841 C856 0.959 . S
H842 C856 0.961 . S
H843 C857 0.942 1_565 S
H844 C857 0.960 1_565 S
H845 C857 0.963 1_565 S
H846 C860 0.929 . S
H847 C861 0.931 . S
H848 C863 0.930 . S
C849 H837 0.930 . S
C849 C850 1.399 . S
C849 C854 1.399 . S
C850 C849 1.399 . S
C850 C851 1.376 . S
C851 H838 0.930 . S
C851 C850 1.376 . S
C851 C852 1.388 . S
C852 H839 0.930 . S
C852 C851 1.388 . S
C852 C853 1.390 . S
C853 C852 1.390 . S
C853 C854 1.394 . S
C853 C859 1.465 . S
C854 C849 1.399 . S
C854 C853 1.394 . S
C854 C855 1.516 . S
C855 C854 1.516 . S
C855 C856 1.502 . S
C855 C857 1.577 . S
C855 C858 1.526 . S
C856 H840 0.959 . S
C856 H841 0.959 . S
C856 H842 0.961 . S
C856 C855 1.502 . S
C857 H843 0.942 1_545 S
C857 H844 0.960 1_545 S
C857 H845 0.963 1_545 S
C857 C855 1.577 . S
C858 C855 1.526 . S
C858 C859 1.396 . S
C858 C863 1.390 . S
C859 C853 1.465 . S
C859 C858 1.396 . S
C859 C860 1.399 . S
C860 H846 0.929 . S
C860 C859 1.399 . S
C860 C861 1.385 . S
C861 H847 0.931 . S
C861 C860 1.385 . S
C861 C862 1.389 . S
C862 C861 1.389 . S
C862 C863 1.387 . S
C863 H848 0.930 . S
C863 C858 1.390 . S
C863 C862 1.387 . S
H864 C876 0.930 . S
H865 C878 0.930 . S
H866 C879 0.930 1_455 S
H867 C883 0.959 . S
H868 C883 0.959 . S
H869 C883 0.961 . S
H870 C884 0.960 . S
H871 C884 0.961 . S
H872 C884 0.959 . S
H873 C887 0.929 . S
H874 C888 0.931 . S
H875 C890 0.930 . S
C876 H864 0.930 . S
C876 C877 1.399 . S
C876 C881 1.399 . S
C877 C876 1.399 . S
C877 C878 1.376 1_655 S
C878 H865 0.930 . S
C878 C877 1.376 1_455 S
C878 C879 1.388 1_455 S
C879 H866 0.930 1_655 S
C879 C878 1.388 1_655 S
C879 C880 1.390 . S
C880 C879 1.390 . S
C880 C881 1.394 . S
C880 C886 1.465 . S
C881 C876 1.399 . S
C881 C880 1.394 . S
C881 C882 1.516 . S
C882 C881 1.516 . S
C882 C883 1.502 . S
C882 C884 1.561 . S
C882 C885 1.526 . S
C883 H867 0.959 . S
C883 H868 0.959 . S
C883 H869 0.961 . S
C883 C882 1.502 . S
C884 H870 0.960 . S
C884 H871 0.961 . S
C884 H872 0.959 . S
C884 C882 1.561 . S
C885 C882 1.526 . S
C885 C886 1.396 . S
C885 C890 1.390 . S
C886 C880 1.465 . S
C886 C885 1.396 . S
C886 C887 1.399 . S
C887 H873 0.929 . S
C887 C886 1.399 . S
C887 C888 1.385 . S
C888 H874 0.931 . S
C888 C887 1.385 . S
C888 C889 1.389 . S
C889 C888 1.389 . S
C889 C890 1.387 . S
C890 H875 0.930 . S
C890 C885 1.390 . S
C890 C889 1.387 . S
H891 C903 0.930 . S
H892 C905 0.930 . S
H893 C906 0.930 . S
H894 C910 0.959 . S
H895 C910 0.959 . S
H896 C910 0.961 . S
H897 C911 0.960 . S
H898 C911 0.961 . S
H899 C911 0.959 . S
H900 C914 0.929 . S
H901 C915 0.931 . S
H902 C917 0.930 . S
C903 H891 0.930 . S
C903 C904 1.399 . S
C903 C908 1.399 . S
C904 C903 1.399 . S
C904 C905 1.376 . S
C905 H892 0.930 . S
C905 C904 1.376 . S
C905 C906 1.388 . S
C906 H893 0.930 . S
C906 C905 1.388 . S
C906 C907 1.390 . S
C907 C906 1.390 . S
C907 C908 1.394 . S
C907 C913 1.465 . S
C908 C903 1.399 . S
C908 C907 1.394 . S
C908 C909 1.516 . S
C909 C908 1.516 . S
C909 C910 1.502 . S
C909 C911 1.561 . S
C909 C912 1.526 . S
C910 H894 0.959 . S
C910 H895 0.959 . S
C910 H896 0.961 . S
C910 C909 1.502 . S
C911 H897 0.960 . S
C911 H898 0.961 . S
C911 H899 0.959 . S
C911 C909 1.561 . S
C912 C909 1.526 . S
C912 C913 1.396 . S
C912 C917 1.390 . S
C913 C907 1.465 . S
C913 C912 1.396 . S
C913 C914 1.399 . S
C914 H900 0.929 . S
C914 C913 1.399 . S
C914 C915 1.385 . S
C915 H901 0.931 . S
C915 C914 1.385 . S
C915 C916 1.389 . S
C916 C915 1.389 . S
C916 C917 1.387 . S
C917 H902 0.930 . S
C917 C912 1.390 . S
C917 C916 1.387 . S
H918 C930 0.930 . S
H919 C932 0.930 . S
H920 C933 0.930 . S
H921 C937 0.959 . S
H922 C937 0.959 . S
H923 C937 0.961 . S
H924 C938 0.960 . S
H925 C938 0.961 . S
H926 C938 0.959 . S
H927 C941 0.929 . S
H928 C942 0.931 . S
H929 C944 0.930 . S
C930 H918 0.930 . S
C930 C931 1.399 . S
C930 C935 1.399 . S
C931 C930 1.399 . S
C931 C932 1.376 . S
C932 H919 0.930 . S
C932 C931 1.376 . S
C932 C933 1.388 . S
C933 H920 0.930 . S
C933 C932 1.388 . S
C933 C934 1.390 . S
C934 C933 1.390 . S
C934 C935 1.394 . S
C934 C940 1.465 . S
C935 C930 1.399 . S
C935 C934 1.394 . S
C935 C936 1.516 . S
C936 C935 1.516 . S
C936 C937 1.502 . S
C936 C938 1.561 . S
C936 C939 1.526 . S
C937 H921 0.959 . S
C937 H922 0.959 . S
C937 H923 0.961 . S
C937 C936 1.502 . S
C938 H924 0.960 . S
C938 H925 0.961 . S
C938 H926 0.959 . S
C938 C936 1.561 . S
C939 C936 1.526 . S
C939 C940 1.396 . S
C939 C944 1.390 . S
C940 C934 1.465 . S
C940 C939 1.396 . S
C940 C941 1.399 . S
C941 H927 0.929 . S
C941 C940 1.399 . S
C941 C942 1.385 . S
C942 H928 0.931 . S
C942 C941 1.385 . S
C942 C943 1.389 . S
C943 C942 1.389 . S
C943 C944 1.387 . S
C944 H929 0.930 . S
C944 C939 1.390 . S
C944 C943 1.387 . S
H945 C957 0.930 . S
H946 C959 0.930 . S
H947 C960 0.930 . S
H948 C964 0.959 . S
H949 C964 0.959 . S
H950 C964 0.961 . S
H951 C965 0.960 . S
H952 C965 0.961 . S
H953 C965 0.959 . S
H954 C968 0.929 . S
H955 C969 0.931 . S
H956 C971 0.930 . S
C957 H945 0.930 . S
C957 C958 1.399 . S
C957 C962 1.399 . S
C958 C957 1.399 . S
C958 C959 1.376 . S
C959 H946 0.930 . S
C959 C958 1.376 . S
C959 C960 1.388 1_565 S
C960 H947 0.930 . S
C960 C959 1.388 1_545 S
C960 C961 1.390 . S
C961 C960 1.390 . S
C961 C962 1.394 1_545 S
C961 C967 1.465 . S
C962 C957 1.399 . S
C962 C961 1.394 1_565 S
C962 C963 1.516 . S
C963 C962 1.516 . S
C963 C964 1.502 . S
C963 C965 1.561 . S
C963 C966 1.526 1_565 S
C964 H948 0.959 . S
C964 H949 0.959 . S
C964 H950 0.961 . S
C964 C963 1.502 . S
C965 H951 0.960 . S
C965 H952 0.961 . S
C965 H953 0.959 . S
C965 C963 1.561 . S
C966 C963 1.526 1_545 S
C966 C967 1.396 . S
C966 C971 1.390 . S
C967 C961 1.465 . S
C967 C966 1.396 . S
C967 C968 1.399 . S
C968 H954 0.929 . S
C968 C967 1.399 . S
C968 C969 1.385 . S
C969 H955 0.931 . S
C969 C968 1.385 . S
C969 C970 1.389 . S
C970 C969 1.389 . S
C970 C971 1.387 . S
C971 H956 0.930 . S
C971 C966 1.390 . S
C971 C970 1.387 . S
H972 C984 0.930 . S
H973 C986 0.930 . S
H974 C987 0.930 . S
H975 C991 0.959 . S
H976 C991 0.959 . S
H977 C991 0.961 . S
H978 C992 0.960 . S
H979 C992 0.961 . S
H980 C992 0.959 . S
H981 C995 0.929 . S
H982 C996 0.931 . S
H983 C998 0.930 . S
C984 H972 0.930 . S
C984 C985 1.399 . S
C984 C989 1.399 . S
C985 C984 1.399 . S
C985 C986 1.376 . S
C986 H973 0.930 . S
C986 C985 1.376 . S
C986 C987 1.388 . S
C987 H974 0.930 . S
C987 C986 1.388 . S
C987 C988 1.390 . S
C988 C987 1.390 . S
C988 C989 1.394 . S
C988 C994 1.470 . S
C989 C984 1.399 . S
C989 C988 1.394 . S
C989 C990 1.516 1_655 S
C990 C989 1.516 1_455 S
C990 C991 1.502 . S
C990 C992 1.561 . S
C990 C993 1.526 . S
C991 H975 0.959 . S
C991 H976 0.959 . S
C991 H977 0.961 . S
C991 C990 1.502 . S
C992 H978 0.960 . S
C992 H979 0.961 . S
C992 H980 0.959 . S
C992 C990 1.561 . S
C993 C990 1.526 . S
C993 C994 1.384 1_455 S
C993 C998 1.390 . S
C994 C988 1.470 . S
C994 C993 1.384 1_655 S
C994 C995 1.403 . S
C995 H981 0.929 . S
C995 C994 1.403 . S
C995 C996 1.385 1_655 S
C996 H982 0.931 . S
C996 C995 1.385 1_455 S
C996 C997 1.389 . S
C997 C996 1.389 . S
C997 C998 1.387 . S
C998 H983 0.930 . S
C998 C993 1.390 . S
C998 C997 1.387 . S
C283 C57 1.781 . S
C295 C16 1.722 1_556 S
C310 N66 0.478 . S
C322 N44 0.293 . S
C337 C76 1.181 1_556 S
C349 N6 1.103 . S
C364 N74 0.609 . S
C376 N36 0.482 . S
C391 C87 0.933 . S
C403 N14 0.988 . S
C418 C27 1.986 . S
C430 C46 1.941 . S
C445 C106 0.528 . S
C457 N126 0.359 . S
C472 N156 1.368 . S
C484 C136 1.352 1_545 S
C499 C166 1.156 1_655 S
C511 N96 1.262 1_545 S
C526 C147 1.840 . S
C538 N164 1.839 . S
C553 C177 0.825 . S
C565 N104 0.892 . S
C580 N134 0.915 . S
C592 C117 0.905 . S
C607 C237 1.787 . S
C619 C196 1.775 . S
C634 N224 0.380 . S
C646 N246 0.379 . S
C661 C256 1.086 . S
C673 N186 1.187 . S
C688 N254 0.607 . S
C700 N216 0.502 . S
C715 C267 0.955 . S
C727 N194 0.898 . S
C742 C207 1.968 . S
C754 C226 1.930 1_455 S
C769 C151 2.083 . S
C781 C10 2.110 . S
C796 C91 2.176 . S
C808 C31 2.148 . S
C823 C70 1.926 . S
C835 C121 1.914 . S
C850 C61 2.007 . S
C862 C190 2.132 . S
C877 C1 2.213 . S
C889 C211 2.151 . S
C904 C250 1.955 . S
C916 C40 1.912 . S
C931 C100 2.090 . S
C943 C241 2.042 . S
C958 C130 2.250 . S
C970 C181 2.190 . S
C985 C220 1.982 . S
C997 C160 1.941 . S
