# Generated by pormake.
# Topology srs, (3)-cn, num edge types: 1
# Building blocks:
#     Node 0, Type 0, BuildingBlock: WUSLED_clean_sbu_0, # of connection points: 3
#     Node 1, Type 0, BuildingBlock: WUSLED_clean_sbu_0, # of connection points: 3
#     Node 2, Type 0, BuildingBlock: WUSLED_clean_sbu_0, # of connection points: 3
#     Node 3, Type 0, BuildingBlock: WUSLED_clean_sbu_0, # of connection points: 3
#     Node 4, Type 0, BuildingBlock: WUSLED_clean_sbu_0, # of connection points: 3
#     Node 5, Type 0, BuildingBlock: WUSLED_clean_sbu_0, # of connection points: 3
#     Node 6, Type 0, BuildingBlock: WUSLED_clean_sbu_0, # of connection points: 3
#     Node 7, Type 0, BuildingBlock: WUSLED_clean_sbu_0, # of connection points: 3
#     Edge 8, Type (0, 0), BuildingBlock: MIFKUJ_clean_linker_0, # of connection points: 2
#     Edge 9, Type (0, 0), BuildingBlock: MIFKUJ_clean_linker_0, # of connection points: 2
#     Edge 10, Type (0, 0), BuildingBlock: MIFKUJ_clean_linker_0, # of connection points: 2
#     Edge 11, Type (0, 0), BuildingBlock: MIFKUJ_clean_linker_0, # of connection points: 2
#     Edge 12, Type (0, 0), BuildingBlock: MIFKUJ_clean_linker_0, # of connection points: 2
#     Edge 13, Type (0, 0), BuildingBlock: MIFKUJ_clean_linker_0, # of connection points: 2
#     Edge 14, Type (0, 0), BuildingBlock: MIFKUJ_clean_linker_0, # of connection points: 2
#     Edge 15, Type (0, 0), BuildingBlock: MIFKUJ_clean_linker_0, # of connection points: 2
#     Edge 16, Type (0, 0), BuildingBlock: MIFKUJ_clean_linker_0, # of connection points: 2
#     Edge 17, Type (0, 0), BuildingBlock: MIFKUJ_clean_linker_0, # of connection points: 2
#     Edge 18, Type (0, 0), BuildingBlock: MIFKUJ_clean_linker_0, # of connection points: 2
#     Edge 19, Type (0, 0), BuildingBlock: MIFKUJ_clean_linker_0, # of connection points: 2
# Relax obj value: 0.000
# Max RMSD: 0.008
# Mean RMSD: 0.008
data_MOF--net-srs--node1-WUSLED_clean_sbu_0--edge1-MIFKUJ_clean_linker_0
_symmetry_space_group_name_H-M    P1
_symmetry_Int_Tables_number       1
_symmetry_cell_setting            triclinic
loop_
_symmetry_equiv_pos_as_xyz
'x, y, z'
_cell_length_a     77.239417
_cell_length_b     77.237255
_cell_length_c     76.86769
_cell_angle_alpha  90.117795
_cell_angle_beta   90.005904
_cell_angle_gamma 90.300208
loop_
_atom_site_label
_atom_site_type_symbol
_atom_site_fract_x
_atom_site_fract_y
_atom_site_fract_z
_atom_type_partial_charge
C0 C 0.1274 0.1187 0.18807 0.0
C1 C 0.1418 0.10776 0.18677 0.0
C2 C 0.13163 0.09112 0.21176 0.0
C3 C 0.14389 0.09407 0.19851 0.0
C4 C 0.11716 0.10208 0.21283 0.0
C5 C 0.1151 0.11572 0.20111 0.0
U6 U 0.14034 0.14587 0.1483 0.0
O7 O 0.12391 0.15841 0.12872 0.0
O8 O 0.14081 0.17427 0.14538 0.0
C9 C 0.12832 0.17411 0.13376 0.0
C10 C 0.12505 0.13339 0.17615 0.0
C11 C 0.11404 0.18642 0.13681 0.0
C12 C 0.08377 0.19273 0.14292 0.0
C13 C 0.09716 0.18075 0.14074 0.0
C14 C 0.10399 0.21621 0.13769 0.0
C15 C 0.08703 0.21061 0.14138 0.0
C16 C 0.11732 0.20424 0.13538 0.0
C17 C 0.17952 0.13273 0.12043 0.0
C18 C 0.19635 0.15123 0.10112 0.0
C19 C 0.19846 0.12005 0.09866 0.0
C20 C 0.18656 0.11815 0.11223 0.0
C21 C 0.20368 0.13661 0.09302 0.0
C22 C 0.18436 0.1493 0.11466 0.0
C23 C 0.16751 0.13025 0.13516 0.0
O24 O 0.13717 0.14538 0.17672 0.0
O25 O 0.12025 0.12941 0.16023 0.0
O26 O 0.15152 0.12604 0.13103 0.0
O27 O 0.16847 0.14175 0.14777 0.0
H28 H 0.15146 0.1099 0.17676 0.0
H29 H 0.15525 0.08598 0.1974 0.0
H30 H 0.1073 0.10002 0.22264 0.0
H31 H 0.10387 0.124 0.20226 0.0
H32 H 0.07089 0.18801 0.14594 0.0
H33 H 0.09427 0.16707 0.14204 0.0
H34 H 0.1069 0.22987 0.13622 0.0
H35 H 0.13021 0.2089 0.13231 0.0
H36 H 0.20016 0.16417 0.09727 0.0
H37 H 0.20353 0.1085 0.09253 0.0
H38 H 0.18291 0.10525 0.11642 0.0
H39 H 0.17904 0.16076 0.12076 0.0
C40 C 0.13051 0.92171 0.35716 0.0
C41 C 0.13833 0.93722 0.36271 0.0
C42 C 0.13488 0.94954 0.33372 0.0
C43 C 0.14042 0.95104 0.35111 0.0
C44 C 0.12737 0.93383 0.32817 0.0
C45 C 0.12518 0.92008 0.3398 0.0
U46 U 0.14214 0.89516 0.39758 0.0
O47 O 0.12511 0.88374 0.41753 0.0
O48 O 0.14161 0.86698 0.40158 0.0
C49 C 0.12916 0.8678 0.41322 0.0
C50 C 0.1275 0.90722 0.36927 0.0
C51 C 0.11443 0.85587 0.41059 0.0
C52 C 0.09301 0.84193 0.39197 0.0
C53 C 0.1068 0.85359 0.39415 0.0
C54 C 0.09414 0.83496 0.42266 0.0
C55 C 0.08653 0.83245 0.4062 0.0
C56 C 0.10796 0.84654 0.4248 0.0
C57 C 0.18182 0.90841 0.42481 0.0
C58 C 0.19262 0.89192 0.44942 0.0
C59 C 0.20676 0.91873 0.44113 0.0
C60 C 0.19485 0.92078 0.42761 0.0
C61 C 0.20591 0.9042 0.45213 0.0
C62 C 0.18069 0.894 0.43585 0.0
C63 C 0.16984 0.91067 0.41012 0.0
O64 O 0.13918 0.89491 0.36905 0.0
O65 O 0.12255 0.91149 0.38507 0.0
O66 O 0.15399 0.91526 0.41417 0.0
O67 O 0.17042 0.8986 0.39806 0.0
H68 H 0.14268 0.93871 0.37603 0.0
H69 H 0.14643 0.96289 0.35573 0.0
H70 H 0.12279 0.9323 0.31494 0.0
H71 H 0.11913 0.90821 0.33527 0.0
H72 H 0.08731 0.84045 0.37917 0.0
H73 H 0.11154 0.86079 0.38303 0.0
H74 H 0.08962 0.82773 0.43384 0.0
H75 H 0.11369 0.84812 0.43758 0.0
H76 H 0.19167 0.88051 0.45754 0.0
H77 H 0.21661 0.92858 0.44301 0.0
H78 H 0.19587 0.93203 0.41926 0.0
H79 H 0.1707 0.8843 0.43385 0.0
C80 C 0.38105 0.93541 0.67476 0.0
C81 C 0.38734 0.92954 0.69084 0.0
C82 C 0.38516 0.95869 0.70291 0.0
C83 C 0.3893 0.94107 0.70481 0.0
C84 C 0.37917 0.96453 0.68667 0.0
C85 C 0.3771 0.95299 0.67277 0.0
U86 U 0.39306 0.8956 0.64739 0.0
O87 O 0.37636 0.87595 0.6351 0.0
O88 O 0.3931 0.89236 0.6189 0.0
C89 C 0.38067 0.88068 0.61925 0.0
C90 C 0.37826 0.92348 0.65999 0.0
C91 C 0.36626 0.88348 0.607 0.0
C92 C 0.33714 0.89345 0.60041 0.0
C93 C 0.35074 0.8913 0.61228 0.0
C94 C 0.35454 0.88028 0.57781 0.0
C95 C 0.33889 0.88795 0.58303 0.0
C96 C 0.36806 0.87805 0.58969 0.0
C97 C 0.4327 0.86855 0.66033 0.0
C98 C 0.44026 0.84066 0.64774 0.0
C99 C 0.46067 0.85567 0.66644 0.0
C100 C 0.44886 0.86916 0.66859 0.0
C101 C 0.45655 0.84125 0.65599 0.0
C102 C 0.42846 0.85424 0.64984 0.0
C103 C 0.4206 0.88301 0.66285 0.0
O104 O 0.39009 0.92396 0.64772 0.0
O105 O 0.37325 0.90766 0.66391 0.0
O106 O 0.40468 0.87879 0.66725 0.0
O107 O 0.42133 0.89529 0.65107 0.0
H108 H 0.39064 0.91605 0.69265 0.0
H109 H 0.39414 0.9362 0.71708 0.0
H110 H 0.37569 0.97796 0.68482 0.0
H111 H 0.37223 0.95777 0.66048 0.0
H112 H 0.32533 0.89956 0.60479 0.0
H113 H 0.34912 0.8957 0.62557 0.0
H114 H 0.35625 0.87571 0.56459 0.0
H115 H 0.37992 0.87197 0.58537 0.0
H116 H 0.43675 0.82983 0.63947 0.0
H117 H 0.47297 0.85644 0.67318 0.0
H118 H 0.45234 0.88009 0.67675 0.0
H119 H 0.41606 0.85359 0.64328 0.0
C120 C 0.3782 0.10549 0.87194 0.0
C121 C 0.39333 0.10563 0.86183 0.0
C122 C 0.3824 0.0813 0.84465 0.0
C123 C 0.39542 0.09364 0.84829 0.0
C124 C 0.36724 0.08136 0.85481 0.0
C125 C 0.36519 0.09332 0.86831 0.0
U126 U 0.39127 0.14563 0.89856 0.0
O127 O 0.37465 0.16593 0.90974 0.0
O128 O 0.39057 0.1498 0.92684 0.0
C129 C 0.37839 0.16158 0.92582 0.0
C130 C 0.37566 0.11787 0.88627 0.0
C131 C 0.36347 0.15915 0.93754 0.0
C132 C 0.34201 0.14071 0.95154 0.0
C133 C 0.35579 0.1428 0.93988 0.0
C134 C 0.34315 0.17134 0.95831 0.0
C135 C 0.33556 0.15495 0.96095 0.0
C136 C 0.35698 0.17339 0.94674 0.0
C137 C 0.43196 0.17175 0.88627 0.0
C138 C 0.43879 0.20109 0.89571 0.0
C139 C 0.46107 0.18331 0.88271 0.0
C140 C 0.44914 0.16975 0.88081 0.0
C141 C 0.45604 0.19922 0.89005 0.0
C142 C 0.42687 0.18746 0.89387 0.0
C143 C 0.41963 0.15733 0.88369 0.0
O144 O 0.38724 0.11742 0.8988 0.0
O145 O 0.37155 0.13369 0.88162 0.0
O146 O 0.40397 0.16159 0.87858 0.0
O147 O 0.41967 0.14532 0.89578 0.0
H148 H 0.40352 0.11498 0.86445 0.0
H149 H 0.40731 0.09387 0.84083 0.0
H150 H 0.35681 0.07228 0.8522 0.0
H151 H 0.35338 0.09309 0.87592 0.0
H152 H 0.33633 0.12796 0.95313 0.0
H153 H 0.36053 0.13165 0.9328 0.0
H154 H 0.33864 0.18253 0.96548 0.0
H155 H 0.36274 0.18611 0.9451 0.0
H156 H 0.4344 0.21319 0.90128 0.0
H157 H 0.47428 0.18124 0.87852 0.0
H158 H 0.45335 0.15768 0.87502 0.0
H159 H 0.41367 0.18925 0.89824 0.0
C160 C 0.62825 0.42205 0.85752 0.0
C161 C 0.64245 0.43338 0.85885 0.0
C162 C 0.63243 0.44931 0.83339 0.0
C163 C 0.64452 0.44692 0.84689 0.0
C164 C 0.61822 0.43788 0.83222 0.0
C165 C 0.61618 0.4244 0.84416 0.0
U166 U 0.6414 0.39581 0.89773 0.0
O167 O 0.62489 0.38441 0.91814 0.0
O168 O 0.64101 0.36765 0.9018 0.0
C169 C 0.62882 0.36847 0.91371 0.0
C170 C 0.62574 0.40776 0.86991 0.0
C171 C 0.61404 0.35658 0.91127 0.0
C172 C 0.59205 0.34315 0.89294 0.0
C173 C 0.60578 0.35489 0.89508 0.0
C174 C 0.59446 0.33495 0.92324 0.0
C175 C 0.58626 0.33298 0.907 0.0
C176 C 0.60822 0.34661 0.92533 0.0
C177 C 0.6819 0.40878 0.92376 0.0
C178 C 0.69112 0.39423 0.95019 0.0
C179 C 0.70889 0.41701 0.9378 0.0
C180 C 0.69684 0.41911 0.92441 0.0
C181 C 0.70623 0.40451 0.95085 0.0
C182 C 0.67907 0.39632 0.93673 0.0
C183 C 0.66955 0.41118 0.90939 0.0
O184 O 0.63743 0.39546 0.86938 0.0
O185 O 0.62154 0.41233 0.88583 0.0
O186 O 0.65384 0.41587 0.91389 0.0
O187 O 0.66972 0.39913 0.89729 0.0
H188 H 0.65193 0.43173 0.86911 0.0
H189 H 0.65569 0.45537 0.84809 0.0
H190 H 0.60851 0.43949 0.8222 0.0
H191 H 0.60509 0.41581 0.84299 0.0
H192 H 0.58589 0.34211 0.88032 0.0
H193 H 0.61001 0.36258 0.88408 0.0
H194 H 0.59048 0.32719 0.93428 0.0
H195 H 0.61444 0.34774 0.93792 0.0
H196 H 0.68874 0.38438 0.95993 0.0
H197 H 0.72022 0.42533 0.93804 0.0
H198 H 0.69921 0.42882 0.91453 0.0
H199 H 0.6676 0.38819 0.93638 0.0
C200 C 0.87773 0.435 0.17417 0.0
C201 C 0.89199 0.43402 0.18544 0.0
C202 C 0.88089 0.45834 0.20236 0.0
C203 C 0.89358 0.44563 0.19941 0.0
C204 C 0.86667 0.45922 0.19094 0.0
C205 C 0.86513 0.44766 0.177 0.0
U206 U 0.89145 0.3954 0.1473 0.0
O207 O 0.87529 0.37554 0.13462 0.0
O208 O 0.89224 0.39212 0.11884 0.0
C209 C 0.87995 0.38029 0.11888 0.0
C210 C 0.87572 0.42302 0.15939 0.0
C211 C 0.86573 0.38304 0.10643 0.0
C212 C 0.83818 0.39596 0.09853 0.0
C213 C 0.85164 0.39369 0.11053 0.0
C214 C 0.85289 0.37711 0.07817 0.0
C215 C 0.83866 0.3877 0.08219 0.0
C216 C 0.86627 0.3748 0.09019 0.0
C217 C 0.93072 0.3685 0.1613 0.0
C218 C 0.94442 0.34653 0.14332 0.0
C219 C 0.95297 0.34999 0.17346 0.0
C220 C 0.94099 0.36337 0.17537 0.0
C221 C 0.95497 0.34149 0.15737 0.0
C222 C 0.93239 0.35992 0.14528 0.0
C223 C 0.91858 0.38298 0.16359 0.0
O224 O 0.88801 0.42366 0.14758 0.0
O225 O 0.87101 0.40714 0.16335 0.0
O226 O 0.90259 0.37865 0.16754 0.0
O227 O 0.91955 0.39533 0.15189 0.0
H228 H 0.90184 0.42428 0.18346 0.0
H229 H 0.90459 0.44449 0.20804 0.0
H230 H 0.85681 0.46899 0.19263 0.0
H231 H 0.85408 0.44865 0.16838 0.0
H232 H 0.82751 0.40434 0.10196 0.0
H233 H 0.85104 0.40024 0.123 0.0
H234 H 0.85357 0.37038 0.06582 0.0
H235 H 0.87704 0.3665 0.08681 0.0
H236 H 0.9457 0.34039 0.13072 0.0
H237 H 0.96061 0.34626 0.18463 0.0
H238 H 0.9398 0.36978 0.18787 0.0
H239 H 0.92452 0.36369 0.13426 0.0
C240 C 0.87921 0.604 0.37272 0.0
C241 C 0.89016 0.60783 0.35865 0.0
C242 C 0.88244 0.58039 0.34477 0.0
C243 C 0.89175 0.59612 0.34479 0.0
C244 C 0.87176 0.57655 0.35911 0.0
C245 C 0.87016 0.58825 0.37291 0.0
U246 U 0.8922 0.64437 0.39898 0.0
O247 O 0.87566 0.66451 0.41047 0.0
O248 O 0.89201 0.64855 0.4273 0.0
C249 C 0.87985 0.66036 0.42649 0.0
C250 C 0.87678 0.61632 0.38714 0.0
C251 C 0.86529 0.65801 0.43861 0.0
C252 C 0.8401 0.64195 0.44881 0.0
C253 C 0.8537 0.64405 0.43691 0.0
C254 C 0.84953 0.66777 0.46412 0.0
C255 C 0.83791 0.65374 0.46263 0.0
C256 C 0.86307 0.66986 0.45223 0.0
C257 C 0.93224 0.67104 0.38588 0.0
C258 C 0.93855 0.70087 0.39409 0.0
C259 C 0.96146 0.68255 0.38315 0.0
C260 C 0.94967 0.66886 0.38137 0.0
C261 C 0.95605 0.6988 0.38941 0.0
C262 C 0.92676 0.68711 0.39239 0.0
C263 C 0.92008 0.65643 0.38352 0.0
O264 O 0.88865 0.61605 0.39938 0.0
O265 O 0.87225 0.63208 0.38264 0.0
O266 O 0.90427 0.6604 0.37867 0.0
O267 O 0.92053 0.64443 0.39561 0.0
H268 H 0.89729 0.61994 0.3583 0.0
H269 H 0.89997 0.59958 0.33391 0.0
H270 H 0.86464 0.56444 0.35971 0.0
H271 H 0.86173 0.58503 0.38372 0.0
H272 H 0.83151 0.63091 0.44738 0.0
H273 H 0.85525 0.63475 0.42647 0.0
H274 H 0.84808 0.67725 0.47442 0.0
H275 H 0.87186 0.68075 0.4537 0.0
H276 H 0.93386 0.7132 0.3988 0.0
H277 H 0.97487 0.68034 0.37974 0.0
H278 H 0.95418 0.65653 0.37643 0.0
H279 H 0.91337 0.68907 0.39604 0.0
C280 C 0.62945 0.61947 0.68882 0.0
C281 C 0.63817 0.60445 0.68354 0.0
C282 C 0.63383 0.59165 0.71221 0.0
C283 C 0.64028 0.59063 0.69511 0.0
C284 C 0.62534 0.60686 0.71749 0.0
C285 C 0.62316 0.62061 0.70589 0.0
U286 U 0.64174 0.64622 0.64871 0.0
O287 O 0.62514 0.65793 0.62871 0.0
O288 O 0.6417 0.67447 0.645 0.0
C289 C 0.62947 0.67383 0.63313 0.0
C290 C 0.62663 0.634 0.67676 0.0
C291 C 0.61503 0.68594 0.63563 0.0
C292 C 0.5887 0.69484 0.65045 0.0
C293 C 0.60224 0.68301 0.64826 0.0
C294 C 0.60068 0.71261 0.62742 0.0
C295 C 0.58781 0.70984 0.64009 0.0
C296 C 0.61413 0.70078 0.62523 0.0
C297 C 0.68177 0.63339 0.62196 0.0
C298 C 0.68897 0.64408 0.59307 0.0
C299 C 0.71055 0.62897 0.61005 0.0
C300 C 0.69859 0.6269 0.62354 0.0
C301 C 0.7059 0.63758 0.59464 0.0
C302 C 0.67702 0.64207 0.60665 0.0
C303 C 0.6695 0.63094 0.63644 0.0
O304 O 0.6384 0.64634 0.67718 0.0
O305 O 0.62185 0.62978 0.66088 0.0
O306 O 0.65366 0.62629 0.63218 0.0
O307 O 0.67003 0.64284 0.64868 0.0
H308 H 0.64326 0.60337 0.67045 0.0
H309 H 0.64704 0.57918 0.6907 0.0
H310 H 0.62005 0.608 0.73048 0.0
H311 H 0.6164 0.6321 0.71021 0.0
H312 H 0.57911 0.69239 0.66043 0.0
H313 H 0.60277 0.67162 0.65645 0.0
H314 H 0.60026 0.72386 0.61905 0.0
H315 H 0.62388 0.70322 0.61538 0.0
H316 H 0.68504 0.65092 0.58145 0.0
H317 H 0.72338 0.62362 0.6116 0.0
H318 H 0.70249 0.62015 0.63524 0.0
H319 H 0.66411 0.64729 0.60522 0.0
H320 H 0.14537 0.94907 0.29964 0.0
H321 H 0.14642 0.97332 0.27921 0.0
H322 H 0.12907 1.00787 0.31968 0.0
H323 H 0.1277 0.98363 0.3401 0.0
H324 H 0.11094 1.01225 0.28979 0.0
H325 H 0.17066 1.00881 0.3063 0.0
H326 H 0.19878 0.99458 0.31091 0.0
H327 H 0.20168 0.98225 0.2565 0.0
H328 H 0.17343 0.99619 0.2516 0.0
H329 H 0.12536 0.09166 0.24682 0.0
H330 H 0.12736 0.06772 0.2674 0.0
H331 H 0.14499 0.03406 0.2263 0.0
H332 H 0.14289 0.05798 0.20553 0.0
H333 H 0.16326 0.02903 0.25625 0.0
H334 H 0.10356 0.03201 0.23972 0.0
H335 H 0.07541 0.04612 0.23492 0.0
H336 H 0.07238 0.05897 0.2892 0.0
H337 H 0.10066 0.04514 0.29429 0.0
C338 C 0.14177 0.96183 0.30419 0.0
C339 C 0.13644 0.96441 0.3215 0.0
C340 C 0.14252 0.97571 0.29253 0.0
C341 C 0.13793 0.99245 0.29794 0.0
C342 C 0.1327 0.99508 0.31523 0.0
C343 C 0.13205 0.98123 0.32692 0.0
C344 C 0.13796 1.00711 0.28541 0.0
C345 C 0.12245 1.01608 0.28265 0.0
C346 C 0.15285 1.0118 0.27572 0.0
C347 C 0.16983 1.00339 0.27862 0.0
C348 C 0.17721 1.00292 0.29535 0.0
C349 C 0.19319 0.99494 0.29801 0.0
C350 C 0.20199 0.98747 0.28402 0.0
C351 C 0.19484 0.98801 0.26733 0.0
C352 C 0.17885 0.99597 0.2646 0.0
C353 C 0.12957 0.07915 0.2421 0.0
C354 C 0.13378 0.07671 0.22445 0.0
C355 C 0.13076 0.06547 0.25391 0.0
C356 C 0.13608 0.04901 0.24836 0.0
C357 C 0.14083 0.04664 0.23088 0.0
C358 C 0.13966 0.06034 0.21903 0.0
C359 C 0.13626 0.03423 0.26073 0.0
C360 C 0.15177 0.02521 0.26342 0.0
C361 C 0.12135 0.02943 0.27035 0.0
C362 C 0.10431 0.03769 0.26735 0.0
C363 C 0.09696 0.03796 0.25061 0.0
C364 C 0.08097 0.04589 0.24784 0.0
C365 C 0.07214 0.05348 0.26174 0.0
C366 C 0.07925 0.05311 0.27845 0.0
C367 C 0.09525 0.04522 0.28128 0.0
H368 H 0.05976 0.05961 0.25957 0.0
H369 H 0.21436 0.9813 0.2861 0.0
H370 H 0.20079 0.89264 0.48556 0.0
H371 H 0.22249 0.88914 0.50851 0.0
H372 H 0.26226 0.90727 0.47352 0.0
H373 H 0.2408 0.91028 0.45042 0.0
H374 H 0.27301 0.87955 0.49121 0.0
H375 H 0.24516 0.93358 0.50526 0.0
H376 H 0.2203 0.95235 0.51196 0.0
H377 H 0.20829 0.92135 0.55671 0.0
H378 H 0.23296 0.90224 0.55014 0.0
H379 H 0.34091 0.89897 0.54928 0.0
H380 H 0.31752 0.90115 0.52803 0.0
H381 H 0.28085 0.8838 0.56665 0.0
H382 H 0.30425 0.88172 0.58807 0.0
H383 H 0.26749 0.9096 0.54804 0.0
H384 H 0.29576 0.85624 0.5349 0.0
H385 H 0.32047 0.83721 0.52839 0.0
H386 H 0.33136 0.86634 0.48211 0.0
H387 H 0.30684 0.8857 0.48847 0.0
C388 C 0.21418 0.89574 0.48271 0.0
C389 C 0.21902 0.90185 0.46616 0.0
C390 C 0.22655 0.89388 0.49589 0.0
C391 C 0.244 0.89814 0.49282 0.0
C392 C 0.24888 0.90397 0.47624 0.0
C393 C 0.23655 0.90583 0.46308 0.0
C394 C 0.25726 0.89651 0.50677 0.0
C395 C 0.27189 0.88628 0.50356 0.0
C396 C 0.25558 0.90486 0.5231 0.0
C397 C 0.24079 0.91638 0.5271 0.0
C398 C 0.23714 0.93069 0.51645 0.0
C399 C 0.2231 0.9414 0.52024 0.0
C400 C 0.21269 0.93802 0.53473 0.0
C401 C 0.21635 0.92394 0.54548 0.0
C402 C 0.23036 0.91317 0.54174 0.0
C403 C 0.32788 0.89555 0.55325 0.0
C404 C 0.32448 0.89003 0.57034 0.0
C405 C 0.31451 0.89679 0.54107 0.0
C406 C 0.29744 0.89234 0.54562 0.0
C407 C 0.29391 0.88726 0.5628 0.0
C408 C 0.30729 0.88612 0.57504 0.0
C409 C 0.28338 0.89285 0.53238 0.0
C410 C 0.26859 0.90282 0.53572 0.0
C411 C 0.28486 0.8842 0.51618 0.0
C412 C 0.29955 0.87251 0.51224 0.0
C413 C 0.30349 0.85866 0.5234 0.0
C414 C 0.31746 0.84781 0.51972 0.0
C415 C 0.3275 0.85059 0.50487 0.0
C416 C 0.32357 0.86421 0.49362 0.0
C417 C 0.30963 0.87511 0.49724 0.0
H418 H 0.33831 0.84217 0.50205 0.0
H419 H 0.20183 0.94633 0.53764 0.0
H420 H 0.39828 0.99175 0.70298 0.0
H421 H 0.39931 1.01224 0.7273 0.0
H422 H 0.37652 0.97378 0.76097 0.0
H423 H 0.37519 0.95332 0.73664 0.0
H424 H 0.36058 1.00496 0.76408 0.0
H425 H 0.41886 0.98387 0.76445 0.0
H426 H 0.44741 0.97698 0.75194 0.0
H427 H 0.45558 0.03062 0.73968 0.0
H428 H 0.42696 0.0378 0.7519 0.0
H429 H 0.37329 0.04697 0.8447 0.0
H430 H 0.3751 0.02627 0.82074 0.0
H431 H 0.39821 0.06548 0.7882 0.0
H432 H 0.39627 0.0864 0.81211 0.0
H433 H 0.41429 0.03427 0.78424 0.0
H434 H 0.35618 0.05544 0.78343 0.0
H435 H 0.32761 0.06262 0.79571 0.0
H436 H 0.319 1.00913 0.80831 0.0
H437 H 0.34764 1.00166 0.79632 0.0
C438 C 0.39348 0.98766 0.71556 0.0
C439 C 0.38665 0.97089 0.71787 0.0
C440 C 0.39421 0.99934 0.72949 0.0
C441 C 0.3881 0.99452 0.746 0.0
C442 C 0.38135 0.97777 0.74836 0.0
C443 C 0.38071 0.96605 0.73447 0.0
C444 C 0.38817 1.00712 0.76066 0.0
C445 C 0.37236 1.01117 0.76866 0.0
C446 C 0.40347 1.01562 0.7663 0.0
C447 C 0.42068 1.01134 0.75893 0.0
C448 C 0.42667 0.99418 0.75894 0.0
C449 C 0.44288 0.99022 0.75193 0.0
C450 C 0.45328 1.00335 0.74497 0.0
C451 C 0.4475 1.02046 0.74505 0.0
C452 C 0.43129 0.02448 0.75203 0.0
C453 C 0.37866 0.05126 0.83243 0.0
C454 C 0.38446 0.06844 0.8303 0.0
C455 C 0.37975 0.03937 0.81875 0.0
C456 C 0.38657 0.04438 0.80258 0.0
C457 C 0.39288 0.06134 0.80055 0.0
C458 C 0.3918 0.07327 0.81425 0.0
C459 C 0.38671 0.03199 0.78773 0.0
C460 C 0.40251 0.02803 0.77967 0.0
C461 C 0.3714 0.0236 0.78197 0.0
C462 C 0.35413 0.02803 0.78914 0.0
C463 C 0.34826 0.04523 0.78895 0.0
C464 C 0.33204 0.04935 0.79584 0.0
C465 C 0.32152 0.03634 0.80283 0.0
C466 C 0.32717 1.01919 0.80291 0.0
C467 C 0.34339 1.01501 0.79606 0.0
H468 H 0.30896 0.03955 0.80815 0.0
H469 H 0.46583 1.00026 0.73956 0.0
H470 H 0.20475 0.16064 0.06665 0.0
H471 H 0.22673 0.1639 0.044 0.0
H472 H 0.25419 0.11994 0.06449 0.0
H473 H 0.23277 0.1171 0.08763 0.0
H474 H 0.27627 0.14462 0.05694 0.0
H475 H 0.22892 0.11742 0.02691 0.0
H476 H 0.19878 0.11407 1.01685 0.0
H477 H 0.20222 0.16266 0.99 0.0
H478 H 0.23233 0.16642 1.00011 0.0
H479 H 0.33137 0.12902 0.98487 0.0
H480 H 0.30846 0.12595 1.00663 0.0
H481 H 0.28469 0.17282 0.98811 0.0
H482 H 0.30741 0.17582 0.96608 0.0
H483 H 0.26068 0.14711 0.99438 0.0
H484 H 0.30839 0.17384 0.02445 0.0
H485 H 0.33865 0.17659 0.03432 0.0
H486 H 0.33451 0.12792 0.06093 0.0
H487 H 0.30427 0.12476 0.05101 0.0
C488 C 0.21555 0.15175 0.06645 0.0
C489 C 0.2169 0.13855 0.07898 0.0
C490 C 0.22802 0.15351 0.05335 0.0
C491 C 0.24203 0.14201 0.05235 0.0
C492 C 0.24348 0.12893 0.06491 0.0
C493 C 0.23109 0.12722 0.07806 0.0
C494 C 0.25534 0.14372 0.03842 0.0
C495 C 0.27284 0.14492 0.04325 0.0
C496 C 0.25091 0.14452 1.02054 0.0
C497 C 0.23282 0.14228 1.01442 0.0
C498 C 0.22321 0.12746 1.01898 0.0
C499 C 0.20613 0.12547 1.01325 0.0
C500 C 0.19857 0.13817 1.00283 0.0
C501 C 0.20808 0.15285 0.99809 0.0
C502 C 0.22516 0.15491 1.00381 0.0
C503 C 0.32116 0.13857 0.98528 0.0
C504 C 0.32126 0.15271 0.97377 0.0
C505 C 0.30815 0.13687 0.99783 0.0
C506 C 0.29496 0.14926 0.99913 0.0
C507 C 0.29477 0.16315 0.98738 0.0
C508 C 0.30784 0.16491 0.97489 0.0
C509 C 0.28154 0.14788 1.01294 0.0
C510 C 0.26405 0.14679 1.00808 0.0
C511 C 0.28597 0.14708 0.03079 0.0
C512 C 0.30412 0.14899 0.03684 0.0
C513 C 0.31397 0.16366 0.03229 0.0
C514 C 0.33111 0.1653 0.03792 0.0
C515 C 0.33851 0.15242 0.04821 0.0
C516 C 0.32876 0.13788 0.05294 0.0
C517 C 0.31162 0.13616 0.04733 0.0
H518 H 0.35179 0.15372 0.05255 0.0
H519 H 0.18535 0.1366 0.9984 0.0
H520 H 0.95218 0.31092 0.13911 0.0
H521 H 0.97404 0.28834 0.13578 0.0
H522 H 1.00932 0.31779 0.1679 0.0
H523 H 0.98783 0.34068 0.17073 0.0
H524 H 0.02569 0.30523 0.1403 0.0
H525 H 0.98683 0.28214 0.18361 0.0
H526 H 0.95849 0.27296 0.19526 0.0
H527 H 0.95312 0.23587 0.1539 0.0
H528 H 0.98134 0.24499 0.14186 0.0
H529 H 0.08767 0.24122 0.15934 0.0
H530 H 0.06472 0.26277 0.16165 0.0
H531 H 0.03131 0.23064 0.13009 0.0
H532 H 0.0542 0.20891 0.12792 0.0
H533 H 1.01348 0.24415 0.15617 0.0
H534 H 0.0524 0.26655 0.11315 0.0
H535 H 0.08065 0.27561 0.10121 0.0
H536 H 0.08572 0.31398 0.14141 0.0
H537 H 0.0576 0.30499 0.15375 0.0
C538 C 0.96465 0.31268 0.14534 0.0
C539 C 0.96818 0.32762 0.15527 0.0
C540 C 0.97708 0.29965 0.14357 0.0
C541 C 0.99327 0.30123 0.15178 0.0
C542 C 0.9969 0.31622 0.16151 0.0
C543 C 0.98452 0.32924 0.16325 0.0
C544 C 1.00655 0.28741 0.15016 0.0
C545 C 0.02307 0.29192 0.14397 0.0
C546 C 1.00303 0.26992 0.15447 0.0
C547 C 0.98611 0.26437 0.16174 0.0
C548 C 0.97954 0.27212 0.17693 0.0
C549 C 0.96351 0.26691 0.18361 0.0
C550 C 0.95399 0.25387 0.1753 0.0
C551 C 0.9605 0.24598 0.16031 0.0
C552 C 0.97651 0.25116 0.15356 0.0
C553 C 0.07545 0.23877 0.15284 0.0
C554 C 0.0728 0.2234 0.14335 0.0
C555 C 0.06234 0.25111 0.15416 0.0
C556 C 0.04636 0.2485 0.14578 0.0
C557 C 0.04353 0.23298 0.13663 0.0
C558 C 0.05661 0.22055 0.13543 0.0
C559 C 0.03268 0.26202 0.14649 0.0
C560 C 1.01609 0.25746 0.15246 0.0
C561 C 0.0361 0.27947 0.14192 0.0
C562 C 0.05296 0.28499 0.13446 0.0
C563 C 0.0596 0.27685 0.11951 0.0
C564 C 0.07558 0.28198 0.11266 0.0
C565 C 0.085 0.29534 0.12057 0.0
C566 C 0.07842 0.30363 0.13531 0.0
C567 C 0.06246 0.29853 0.14223 0.0
H568 H 0.09737 0.29929 0.11525 0.0
H569 H 0.94158 0.24986 0.1805 0.0
H570 H 0.48109 0.20902 0.86673 0.0
H571 H 0.50254 0.23215 0.86973 0.0
H572 H 0.48114 0.24591 0.91964 0.0
H573 H 0.45976 0.22254 0.91692 0.0
H574 H 0.48814 0.27456 0.89961 0.0
H575 H 0.51792 0.22348 0.91788 0.0
H576 H 0.52837 0.19347 0.91536 0.0
H577 H 0.55703 0.207 0.86945 0.0
H578 H 0.54654 0.23705 0.87155 0.0
H579 H 0.55919 0.32621 0.92908 0.0
H580 H 0.5365 0.30422 0.92587 0.0
H581 H 0.55813 0.28883 0.87651 0.0
H582 H 0.5811 0.31054 0.87983 0.0
H583 H 0.5508 0.26108 0.89652 0.0
H584 H 0.52113 0.31223 0.87828 0.0
H585 H 0.51061 0.34221 0.88073 0.0
H586 H 0.48177 0.32866 0.92652 0.0
H587 H 0.49233 0.29863 0.92449 0.0
C588 C 0.48101 0.21682 0.87845 0.0
C589 C 0.46875 0.21376 0.89166 0.0
C590 C 0.49326 0.23011 0.8801 0.0
C591 C 0.49358 0.24065 0.895 0.0
C592 C 0.48113 0.23794 0.90803 0.0
C593 C 0.46888 0.22459 0.90642 0.0
C594 C 0.50705 0.25434 0.89701 0.0
C595 C 0.50184 0.2716 0.89918 0.0
C596 C 0.52493 0.25052 0.89606 0.0
C597 C 0.5313 0.23247 0.89478 0.0
C598 C 0.52633 0.22002 0.90716 0.0
C599 C 0.53228 0.20301 0.90582 0.0
C600 C 0.54332 0.19832 0.89222 0.0
C601 C 0.54846 0.21064 0.87996 0.0
C602 C 0.54252 0.22767 0.88123 0.0
C603 C 0.55915 0.31812 0.91756 0.0
C604 C 0.57198 0.32014 0.90471 0.0
C605 C 0.54607 0.30565 0.91567 0.0
C606 C 0.54551 0.29495 0.90088 0.0
C607 C 0.55827 0.29696 0.88801 0.0
C608 C 0.57131 0.30948 0.88986 0.0
C609 C 0.53192 0.28134 0.89905 0.0
C610 C 0.5371 0.26407 0.89694 0.0
C611 C 0.51403 0.28517 0.90006 0.0
C612 C 0.50767 0.30322 0.90134 0.0
C613 C 0.51267 0.31567 0.88897 0.0
C614 C 0.50667 0.33267 0.89026 0.0
C615 C 0.49557 0.33735 0.9038 0.0
C616 C 0.4904 0.32502 0.91605 0.0
C617 C 0.49637 0.30801 0.91483 0.0
H618 H 0.49093 0.35052 0.90477 0.0
H619 H 0.54792 0.18514 0.89121 0.0
H620 H 0.08184 0.80891 0.37987 0.0
H621 H 0.05868 0.78741 0.37681 0.0
H622 H 0.03538 0.80577 0.42435 0.0
H623 H 0.05856 0.82724 0.42753 0.0
H624 H 0.03633 0.77158 0.42424 0.0
H625 H 1.01789 0.81492 0.38383 0.0
H626 H 0.02086 0.83496 0.35906 0.0
H627 H 0.0305 0.79211 0.32479 0.0
H628 H 0.02782 0.77182 0.34941 0.0
H629 H 0.95819 0.72355 0.41512 0.0
H630 H 0.97905 0.74732 0.41762 0.0
H631 H 1.00373 0.73071 0.37015 0.0
H632 H 0.98243 0.70745 0.36709 0.0
H633 H 1.0013 0.76476 0.37055 0.0
H634 H 0.0208 0.7216 0.41111 0.0
H635 H 1.01797 0.70152 0.43586 0.0
H636 H 1.00643 0.74412 0.46984 0.0
H637 H 1.00898 0.76443 0.44523 0.0
C638 C 0.07166 0.80852 0.38956 0.0
C639 C 0.07205 0.81981 0.40394 0.0
C640 C 0.05841 0.79621 0.3878 0.0
C641 C 0.04515 0.79505 0.40026 0.0
C642 C 0.04547 0.80637 0.41458 0.0
C643 C 0.05875 0.81862 0.4164 0.0
C644 C 0.03124 0.7817 0.39866 0.0
C645 C 0.02849 0.77028 0.4126 0.0
C646 C 0.02124 0.7797 0.38333 0.0
C647 C 0.0228 0.79187 0.3685 0.0
C648 C 0.02077 0.80978 0.37103 0.0
C649 C 0.02238 0.82118 0.35702 0.0
C650 C 0.02591 0.81482 0.34037 0.0
C651 C 0.02779 0.79702 0.3377 0.0
C652 C 0.02621 0.78557 0.35167 0.0
C653 C 0.96791 0.72506 0.40508 0.0
C654 C 0.96865 0.71345 0.39095 0.0
C655 C 0.97997 0.73857 0.40664 0.0
C656 C 0.99317 0.74067 0.39422 0.0
C657 C 0.99374 0.72932 0.37995 0.0
C658 C 0.98164 0.71588 0.37833 0.0
C659 C 1.00645 0.7546 0.3961 0.0
C660 C 1.0091 0.76612 0.38222 0.0
C661 C 1.01637 0.75669 0.41147 0.0
C662 C 1.01491 0.74451 0.42629 0.0
C663 C 1.01754 0.72666 0.42383 0.0
C664 C 1.01601 0.71524 0.43784 0.0
C665 C 1.01198 0.72153 0.45441 0.0
C666 C 1.00952 0.73926 0.457 0.0
C667 C 1.01103 0.75073 0.44303 0.0
H668 H 1.01079 0.71267 0.46524 0.0
H669 H 0.02715 0.82366 0.32954 0.0
H670 H 0.5532 0.70356 0.64569 0.0
H671 H 0.52999 0.72481 0.64903 0.0
H672 H 0.56707 0.76629 0.64288 0.0
H673 H 0.59034 0.74519 0.64001 0.0
H674 H 0.54507 0.77298 0.6691 0.0
H675 H 0.54039 0.75386 0.60948 0.0
H676 H 0.53706 0.73226 0.58603 0.0
H677 H 0.48806 0.71636 0.60718 0.0
H678 H 0.49121 0.73772 0.63091 0.0
H679 H 0.49147 0.84397 0.6507 0.0
H680 H 0.51259 0.82066 0.64854 0.0
H681 H 0.47168 0.78285 0.65409 0.0
H682 H 0.4504 0.80619 0.65623 0.0
H683 H 0.49431 0.77294 0.62953 0.0
H684 H 0.49813 0.79275 0.68831 0.0
H685 H 0.50122 0.81425 0.71188 0.0
H686 H 0.55156 0.82846 0.6928 0.0
H687 H 0.54867 0.80721 0.66895 0.0
C688 C 0.55643 0.71721 0.64521 0.0
C689 C 0.57364 0.72266 0.64248 0.0
C690 C 0.54313 0.72934 0.64697 0.0
C691 C 0.54674 0.74716 0.646 0.0
C692 C 0.56394 0.75262 0.6436 0.0
C693 C 0.57722 0.74053 0.64182 0.0
C694 C 0.5327 0.76021 0.64746 0.0
C695 C 0.53407 0.77307 0.66032 0.0
C696 C 0.51806 0.76005 0.63636 0.0
C697 C 0.51612 0.74725 0.62207 0.0
C698 C 0.52897 0.74566 0.60921 0.0
C699 C 0.5271 0.73348 0.59585 0.0
C700 C 0.51238 0.72291 0.59514 0.0
C701 C 0.49947 0.72454 0.60777 0.0
C702 C 0.50128 0.73668 0.62116 0.0
C703 C 0.48695 0.8307 0.65156 0.0
C704 C 0.46925 0.82696 0.65381 0.0
C705 C 0.49905 0.81737 0.65031 0.0
C706 C 0.49378 0.79998 0.65147 0.0
C707 C 0.47607 0.79616 0.65322 0.0
C708 C 0.46391 0.80952 0.65439 0.0
C709 C 0.50684 0.78587 0.65099 0.0
C710 C 0.50526 0.77279 0.63836 0.0
C711 C 0.52128 0.78577 0.66236 0.0
C712 C 0.52312 0.79849 0.67675 0.0
C713 C 0.50981 0.80054 0.68907 0.0
C714 C 0.51153 0.81267 0.70249 0.0
C715 C 0.52656 0.82274 0.70381 0.0
C716 C 0.53992 0.82066 0.69175 0.0
C717 C 0.53825 0.80857 0.67828 0.0
H718 H 0.52786 0.83212 0.71421 0.0
H719 H 0.51096 0.71349 0.58479 0.0
H720 H 0.62883 0.55719 0.70529 0.0
H721 H 0.63029 0.53295 0.72566 0.0
H722 H 0.64378 0.56818 0.76715 0.0
H723 H 0.64265 0.59249 0.74676 0.0
H724 H 0.66322 0.53836 0.76813 0.0
H725 H 0.60324 0.55374 0.7639 0.0
H726 H 0.57586 0.55996 0.74871 0.0
H727 H 0.57532 0.50857 0.72728 0.0
H728 H 0.60285 0.50213 0.74216 0.0
H729 H 0.64274 0.48285 0.83962 0.0
H730 H 0.64478 0.50666 0.81877 0.0
H731 H 0.62854 0.4723 0.77752 0.0
H732 H 0.62659 0.44842 0.79823 0.0
H733 H 0.61087 0.50181 0.77638 0.0
H734 H 0.67061 0.48613 0.78096 0.0
H735 H 0.69806 0.4799 0.79601 0.0
H736 H 0.69922 0.53157 0.8167 0.0
H737 H 0.67163 0.53805 0.80195 0.0
C738 C 0.63233 0.55977 0.7187 0.0
C739 C 0.63554 0.5768 0.72441 0.0
C740 C 0.63304 0.54591 0.73036 0.0
C741 C 0.63696 0.54877 0.74798 0.0
C742 C 0.64067 0.56568 0.75363 0.0
C743 C 0.63988 0.57957 0.74199 0.0
C744 C 0.63668 0.5342 0.76059 0.0
C745 C 0.65172 0.53049 0.7701 0.0
C746 C 0.62178 0.5237 0.76291 0.0
C747 C 0.6052 0.52752 0.754 0.0
C748 C 0.59736 0.54381 0.75583 0.0
C749 C 0.5818 0.54737 0.7473 0.0
C750 C 0.57388 0.53468 0.737 0.0
C751 C 0.58148 0.51839 0.73524 0.0
C752 C 0.59706 0.51478 0.74373 0.0
C753 C 0.63985 0.48028 0.82607 0.0
C754 C 0.63445 0.4637 0.82063 0.0
C755 C 0.641 0.49393 0.81416 0.0
C756 C 0.63691 0.49127 0.79653 0.0
C757 C 0.63169 0.4747 0.79105 0.0
C758 C 0.63053 0.46106 0.80294 0.0
C759 C 0.63745 0.50586 0.78391 0.0
C760 C 0.62241 0.50962 0.77441 0.0
C761 C 0.65236 0.51636 0.78161 0.0
C762 C 0.66895 0.51251 0.79049 0.0
C763 C 0.67664 0.49612 0.78884 0.0
C764 C 0.69224 0.49255 0.79729 0.0
C765 C 0.70035 0.50531 0.80734 0.0
C766 C 0.6929 0.52169 0.80893 0.0
C767 C 0.67729 0.52532 0.80051 0.0
H768 H 0.71243 0.50253 0.81387 0.0
H769 H 0.56183 0.53746 0.7304 0.0
H770 H 0.80363 0.388 0.0882 0.0
H771 H 0.78033 0.39126 0.06686 0.0
H772 H 0.81813 0.3956 0.02578 0.0
H773 H 0.84146 0.39276 0.04706 0.0
H774 H 0.79288 0.4195 1.02234 0.0
H775 H 0.79598 0.35802 0.03237 0.0
H776 H 0.7958 0.33154 0.05024 0.0
H777 H 0.74446 0.3432 0.06804 0.0
H778 H 0.74444 0.3699 0.05045 0.0
H779 H 0.74154 0.40457 0.94799 0.0
H780 H 0.76294 0.4021 0.97121 0.0
H781 H 0.72196 0.39678 1.00896 0.0
H782 H 0.7004 0.39928 0.98571 0.0
H783 H 0.74758 0.37422 1.01541 0.0
H784 H 0.74378 0.43496 1.00469 0.0
H785 H 0.74371 0.46155 0.98699 0.0
H786 H 0.79599 0.45169 0.97094 0.0
H787 H 0.79629 0.42489 0.98835 0.0
C788 C 0.80698 0.38981 0.07464 0.0
C789 C 0.82442 0.39004 0.06934 0.0
C790 C 0.79364 0.39152 0.06244 0.0
C791 C 0.79746 0.39348 0.04468 0.0
C792 C 0.81485 0.39404 0.0394 0.0
C793 C 0.82818 0.39228 0.05157 0.0
C794 C 0.7834 0.39491 0.03153 0.0
C795 C 0.78309 0.40951 1.0207 0.0
C796 C 0.77031 0.38212 0.02971 0.0
C797 C 0.77029 0.36605 0.04025 0.0
C798 C 0.78471 0.35502 0.04021 0.0
C799 C 0.78463 0.33995 0.05026 0.0
C800 C 0.77015 0.33572 0.06031 0.0
C801 C 0.75569 0.34652 0.06028 0.0
C802 C 0.75571 0.36161 0.05026 0.0
C803 C 0.73705 0.403 0.96124 0.0
C804 C 0.71923 0.40229 0.96499 0.0
C805 C 0.74931 0.40157 0.97451 0.0
C806 C 0.74408 0.39954 0.99189 0.0
C807 C 0.72631 0.39838 0.99566 0.0
C808 C 0.71401 0.39977 0.98235 0.0
C809 C 0.75719 0.39872 1.00606 0.0
C810 C 0.75732 0.38426 1.0171 0.0
C811 C 0.77008 0.41167 1.00813 0.0
C812 C 0.76999 0.42783 0.99771 0.0
C813 C 0.75522 0.43839 0.99728 0.0
C814 C 0.75515 0.45351 0.98732 0.0
C815 C 0.76983 0.45828 0.97781 0.0
C816 C 0.78462 0.44796 0.97829 0.0
C817 C 0.78476 0.43282 0.98822 0.0
H818 H 0.76975 0.46999 0.97011 0.0
H819 H 0.77011 0.32405 0.06808 0.0
H820 H 0.90991 0.47529 0.21437 0.0
H821 H 0.91185 0.49626 0.23824 0.0
H822 H 0.85712 0.49031 0.24781 0.0
H823 H 0.8551 0.46935 0.22407 0.0
H824 H 0.86608 0.52376 0.24731 0.0
H825 H 0.88784 0.47196 0.27453 0.0
H826 H 0.90726 0.44689 0.27744 0.0
H827 H 0.95125 0.481 0.28025 0.0
H828 H 0.9321 0.50628 0.27711 0.0
H829 H 0.85608 0.56177 0.32982 0.0
H830 H 0.85767 0.54154 0.30549 0.0
H831 H 0.91248 0.5514 0.30082 0.0
H832 H 0.91112 0.57128 0.32567 0.0
H833 H 0.90559 0.51733 0.29775 0.0
H834 H 0.88412 0.56913 0.27209 0.0
H835 H 0.86504 0.59443 0.26905 0.0
H836 H 0.82103 0.56079 0.26282 0.0
H837 H 0.83981 0.53527 0.26608 0.0
C838 C 0.89833 0.47829 0.22169 0.0
C839 C 0.88233 0.47066 0.21726 0.0
C840 C 0.89945 0.49031 0.23533 0.0
C841 C 0.88464 0.49482 0.24491 0.0
C842 C 0.86871 0.48712 0.24057 0.0
C843 C 0.86757 0.47516 0.22695 0.0
C844 C 0.88553 0.50781 0.25922 0.0
C845 C 0.87458 0.52224 0.25843 0.0
C846 C 0.89705 0.50618 0.27346 0.0
C847 C 0.90856 0.491 0.2754 0.0
C848 C 0.90167 0.47411 0.27562 0.0
C849 C 0.91262 0.45986 0.27734 0.0
C850 C 0.93048 0.46235 0.27898 0.0
C851 C 0.93742 0.47909 0.27895 0.0
C852 C 0.92652 0.49338 0.27722 0.0
C853 C 0.86854 0.55954 0.32377 0.0
C854 C 0.88348 0.56818 0.32975 0.0
C855 C 0.86938 0.54808 0.30971 0.0
C856 C 0.88515 0.5451 0.30115 0.0
C857 C 0.90015 0.55355 0.30716 0.0
C858 C 0.89932 0.56503 0.32128 0.0
C859 C 0.88587 0.53309 0.28599 0.0
C860 C 0.89715 0.51889 0.28658 0.0
C861 C 0.87471 0.53496 0.27151 0.0
C862 C 0.86336 0.55028 0.26948 0.0
C863 C 0.87035 0.56712 0.2702 0.0
C864 C 0.85959 0.58151 0.26842 0.0
C865 C 0.84183 0.57922 0.26578 0.0
C866 C 0.83479 0.56254 0.26488 0.0
C867 C 0.84549 0.54811 0.26668 0.0
H868 H 0.83352 0.59038 0.2644 0.0
H869 H 0.93894 0.4513 0.28031 0.0
H870 H 0.83955 0.65831 0.49793 0.0
H871 H 0.81628 0.65508 0.51917 0.0
H872 H 0.78099 0.64022 0.47824 0.0
H873 H 0.80415 0.64394 0.45675 0.0
H874 H 0.76612 0.66302 0.50042 0.0
H875 H 0.79731 0.60996 0.50556 0.0
H876 H 0.82303 0.59157 0.5093 0.0
H877 H 0.83244 0.61429 0.55947 0.0
H878 H 0.8069 0.633 0.55593 0.0
H879 H 0.70079 0.63323 0.55956 0.0
H880 H 0.7223 0.63559 0.53626 0.0
H881 H 0.76148 0.64899 0.57404 0.0
H882 H 0.7401 0.64655 0.59734 0.0
H883 H 0.77348 0.62553 0.55219 0.0
H884 H 0.74301 0.67947 0.54648 0.0
H885 H 0.71736 0.69796 0.54267 0.0
H886 H 0.70658 0.67354 0.49359 0.0
H887 H 0.73205 0.65474 0.49721 0.0
C888 C 0.82681 0.65448 0.49338 0.0
C889 C 0.82374 0.65139 0.4756 0.0
C890 C 0.81355 0.65248 0.50559 0.0
C891 C 0.79692 0.64721 0.50035 0.0
C892 C 0.79373 0.64423 0.4826 0.0
C893 C 0.80703 0.64622 0.47035 0.0
C894 C 0.78288 0.645 0.51344 0.0
C895 C 0.76761 0.65461 0.5116 0.0
C896 C 0.78493 0.63427 0.5282 0.0
C897 C 0.80027 0.62299 0.53041 0.0
C898 C 0.80494 0.61113 0.51733 0.0
C899 C 0.81947 0.60063 0.51943 0.0
C900 C 0.82939 0.60179 0.5346 0.0
C901 C 0.82475 0.61342 0.54772 0.0
C902 C 0.81024 0.62396 0.54568 0.0
C903 C 0.71395 0.63688 0.56287 0.0
C904 C 0.71873 0.63968 0.58032 0.0
C905 C 0.72624 0.63821 0.54954 0.0
C906 C 0.74352 0.64259 0.55335 0.0
C907 C 0.74827 0.64552 0.57075 0.0
C908 C 0.73603 0.64409 0.58407 0.0
C909 C 0.75681 0.64376 0.53935 0.0
C910 C 0.77194 0.6339 0.54098 0.0
C911 C 0.75462 0.65425 0.52442 0.0
C912 C 0.73933 0.66558 0.52221 0.0
C913 C 0.73509 0.67795 0.53494 0.0
C914 C 0.7206 0.68851 0.5328 0.0
C915 C 0.71032 0.68689 0.51792 0.0
C916 C 0.71454 0.67476 0.50512 0.0
C917 C 0.72901 0.66416 0.5072 0.0
H918 H 0.6991 0.69508 0.51629 0.0
H919 H 0.84063 0.59365 0.5362 0.0
loop_
_geom_bond_atom_site_label_1
_geom_bond_atom_site_label_2
_geom_bond_distance
_geom_bond_site_symmetry_2
_ccdc_geom_bond_type
C0 C1 1.264 . S
C0 C5 1.479 . S
C0 C10 1.465 . S
C1 C0 1.264 . S
C1 C3 1.339 . S
C1 H28 0.931 . S
C2 C3 1.395 . S
C2 C4 1.320 . S
C3 C1 1.339 . S
C3 C2 1.395 . S
C3 H29 0.929 . S
C4 C2 1.320 . S
C4 C5 1.405 . S
C4 H30 0.930 . S
C5 C0 1.479 . S
C5 C4 1.405 . S
C5 H31 0.931 . S
U6 O7 2.454 . S
U6 O8 2.458 . S
U6 C9 2.984 . S
U6 C10 2.847 . S
U6 C23 2.882 . S
U6 O24 2.441 . S
U6 O25 2.420 . S
U6 O26 2.455 . S
U6 O27 2.449 . S
O7 U6 2.454 . S
O7 C9 1.353 . S
O8 U6 2.458 . S
O8 C9 1.286 . S
C9 U6 2.984 . S
C9 O7 1.353 . S
C9 O8 1.286 . S
C9 C11 1.363 . S
C10 C0 1.465 . S
C10 U6 2.847 . S
C10 O24 1.249 . S
C10 O25 1.202 . S
C11 C9 1.363 . S
C11 C13 1.408 . S
C11 C16 1.342 . S
C12 C13 1.310 . S
C12 C15 1.461 . S
C12 H32 0.932 . S
C13 C11 1.408 . S
C13 C12 1.310 . S
C13 H33 0.930 . S
C14 C15 1.474 . S
C14 C16 1.285 . S
C14 H34 0.929 . S
C15 C12 1.461 . S
C15 C14 1.474 . S
C16 C11 1.342 . S
C16 C14 1.285 . S
C16 H35 0.930 . S
C17 C20 1.424 . S
C17 C22 1.245 . S
C17 C23 1.428 . S
C18 C21 1.260 . S
C18 C22 1.477 . S
C18 H36 0.932 . S
C19 C20 1.384 . S
C19 C21 1.479 . S
C19 H37 0.929 . S
C20 C17 1.424 . S
C20 C19 1.384 . S
C20 H38 0.928 . S
C21 C18 1.260 . S
C21 C19 1.479 . S
C22 C17 1.245 . S
C22 C18 1.477 . S
C22 H39 0.932 . S
C23 U6 2.882 . S
C23 C17 1.428 . S
C23 O26 1.301 . S
C23 O27 1.282 . S
O24 U6 2.441 . S
O24 C10 1.249 . S
O25 U6 2.420 . S
O25 C10 1.202 . S
O26 U6 2.455 . S
O26 C23 1.301 . S
O27 U6 2.449 . S
O27 C23 1.282 . S
H28 C1 0.931 . S
H29 C3 0.929 . S
H30 C4 0.930 . S
H31 C5 0.931 . S
H32 C12 0.932 . S
H33 C13 0.930 . S
H34 C14 0.929 . S
H35 C16 0.930 . S
H36 C18 0.932 . S
H37 C19 0.929 . S
H38 C20 0.928 . S
H39 C22 0.932 . S
C40 C41 1.264 . S
C40 C45 1.479 . S
C40 C50 1.465 . S
C41 C40 1.264 . S
C41 C43 1.339 . S
C41 H68 0.931 . S
C42 C43 1.395 . S
C42 C44 1.320 . S
C43 C41 1.339 . S
C43 C42 1.395 . S
C43 H69 0.929 . S
C44 C42 1.320 . S
C44 C45 1.405 . S
C44 H70 0.930 . S
C45 C40 1.479 . S
C45 C44 1.405 . S
C45 H71 0.931 . S
U46 O47 2.454 . S
U46 O48 2.458 . S
U46 C49 2.984 . S
U46 C50 2.847 . S
U46 C63 2.882 . S
U46 O64 2.441 . S
U46 O65 2.420 . S
U46 O66 2.455 . S
U46 O67 2.449 . S
O47 U46 2.454 . S
O47 C49 1.353 . S
O48 U46 2.458 . S
O48 C49 1.286 . S
C49 U46 2.984 . S
C49 O47 1.353 . S
C49 O48 1.286 . S
C49 C51 1.363 . S
C50 C40 1.465 . S
C50 U46 2.847 . S
C50 O64 1.249 . S
C50 O65 1.202 . S
C51 C49 1.363 . S
C51 C53 1.408 . S
C51 C56 1.342 . S
C52 C53 1.310 . S
C52 C55 1.461 . S
C52 H72 0.932 . S
C53 C51 1.408 . S
C53 C52 1.310 . S
C53 H73 0.930 . S
C54 C55 1.474 . S
C54 C56 1.285 . S
C54 H74 0.929 . S
C55 C52 1.461 . S
C55 C54 1.474 . S
C56 C51 1.342 . S
C56 C54 1.285 . S
C56 H75 0.930 . S
C57 C60 1.424 . S
C57 C62 1.245 . S
C57 C63 1.428 . S
C58 C61 1.260 . S
C58 C62 1.477 . S
C58 H76 0.932 . S
C59 C60 1.384 . S
C59 C61 1.479 . S
C59 H77 0.929 . S
C60 C57 1.424 . S
C60 C59 1.384 . S
C60 H78 0.928 . S
C61 C58 1.260 . S
C61 C59 1.479 . S
C62 C57 1.245 . S
C62 C58 1.477 . S
C62 H79 0.932 . S
C63 U46 2.882 . S
C63 C57 1.428 . S
C63 O66 1.301 . S
C63 O67 1.282 . S
O64 U46 2.441 . S
O64 C50 1.249 . S
O65 U46 2.420 . S
O65 C50 1.202 . S
O66 U46 2.455 . S
O66 C63 1.301 . S
O67 U46 2.449 . S
O67 C63 1.282 . S
H68 C41 0.931 . S
H69 C43 0.929 . S
H70 C44 0.930 . S
H71 C45 0.931 . S
H72 C52 0.932 . S
H73 C53 0.930 . S
H74 C54 0.929 . S
H75 C56 0.930 . S
H76 C58 0.932 . S
H77 C59 0.929 . S
H78 C60 0.928 . S
H79 C62 0.932 . S
C80 C81 1.264 . S
C80 C85 1.479 . S
C80 C90 1.465 . S
C81 C80 1.264 . S
C81 C83 1.339 . S
C81 H108 0.931 . S
C82 C83 1.395 . S
C82 C84 1.320 . S
C83 C81 1.339 . S
C83 C82 1.395 . S
C83 H109 0.929 . S
C84 C82 1.320 . S
C84 C85 1.405 . S
C84 H110 0.930 . S
C85 C80 1.479 . S
C85 C84 1.405 . S
C85 H111 0.931 . S
U86 O87 2.454 . S
U86 O88 2.458 . S
U86 C89 2.984 . S
U86 C90 2.847 . S
U86 C103 2.882 . S
U86 O104 2.441 . S
U86 O105 2.420 . S
U86 O106 2.455 . S
U86 O107 2.449 . S
O87 U86 2.454 . S
O87 C89 1.353 . S
O88 U86 2.458 . S
O88 C89 1.286 . S
C89 U86 2.984 . S
C89 O87 1.353 . S
C89 O88 1.286 . S
C89 C91 1.363 . S
C90 C80 1.465 . S
C90 U86 2.847 . S
C90 O104 1.249 . S
C90 O105 1.202 . S
C91 C89 1.363 . S
C91 C93 1.408 . S
C91 C96 1.342 . S
C92 C93 1.310 . S
C92 C95 1.461 . S
C92 H112 0.932 . S
C93 C91 1.408 . S
C93 C92 1.310 . S
C93 H113 0.930 . S
C94 C95 1.474 . S
C94 C96 1.285 . S
C94 H114 0.929 . S
C95 C92 1.461 . S
C95 C94 1.474 . S
C96 C91 1.342 . S
C96 C94 1.285 . S
C96 H115 0.930 . S
C97 C100 1.424 . S
C97 C102 1.245 . S
C97 C103 1.428 . S
C98 C101 1.260 . S
C98 C102 1.477 . S
C98 H116 0.932 . S
C99 C100 1.384 . S
C99 C101 1.479 . S
C99 H117 0.929 . S
C100 C97 1.424 . S
C100 C99 1.384 . S
C100 H118 0.928 . S
C101 C98 1.260 . S
C101 C99 1.479 . S
C102 C97 1.245 . S
C102 C98 1.477 . S
C102 H119 0.932 . S
C103 U86 2.882 . S
C103 C97 1.428 . S
C103 O106 1.301 . S
C103 O107 1.282 . S
O104 U86 2.441 . S
O104 C90 1.249 . S
O105 U86 2.420 . S
O105 C90 1.202 . S
O106 U86 2.455 . S
O106 C103 1.301 . S
O107 U86 2.449 . S
O107 C103 1.282 . S
H108 C81 0.931 . S
H109 C83 0.929 . S
H110 C84 0.930 . S
H111 C85 0.931 . S
H112 C92 0.932 . S
H113 C93 0.930 . S
H114 C94 0.929 . S
H115 C96 0.930 . S
H116 C98 0.932 . S
H117 C99 0.929 . S
H118 C100 0.928 . S
H119 C102 0.932 . S
C120 C121 1.264 . S
C120 C125 1.479 . S
C120 C130 1.465 . S
C121 C120 1.264 . S
C121 C123 1.339 . S
C121 H148 0.931 . S
C122 C123 1.395 . S
C122 C124 1.320 . S
C123 C121 1.339 . S
C123 C122 1.395 . S
C123 H149 0.929 . S
C124 C122 1.320 . S
C124 C125 1.405 . S
C124 H150 0.930 . S
C125 C120 1.479 . S
C125 C124 1.405 . S
C125 H151 0.931 . S
U126 O127 2.454 . S
U126 O128 2.458 . S
U126 C129 2.984 . S
U126 C130 2.847 . S
U126 C143 2.882 . S
U126 O144 2.441 . S
U126 O145 2.420 . S
U126 O146 2.455 . S
U126 O147 2.449 . S
O127 U126 2.454 . S
O127 C129 1.353 . S
O128 U126 2.458 . S
O128 C129 1.286 . S
C129 U126 2.984 . S
C129 O127 1.353 . S
C129 O128 1.286 . S
C129 C131 1.363 . S
C130 C120 1.465 . S
C130 U126 2.847 . S
C130 O144 1.249 . S
C130 O145 1.202 . S
C131 C129 1.363 . S
C131 C133 1.408 . S
C131 C136 1.342 . S
C132 C133 1.310 . S
C132 C135 1.461 . S
C132 H152 0.932 . S
C133 C131 1.408 . S
C133 C132 1.310 . S
C133 H153 0.930 . S
C134 C135 1.474 . S
C134 C136 1.285 . S
C134 H154 0.929 . S
C135 C132 1.461 . S
C135 C134 1.474 . S
C136 C131 1.342 . S
C136 C134 1.285 . S
C136 H155 0.930 . S
C137 C140 1.424 . S
C137 C142 1.245 . S
C137 C143 1.428 . S
C138 C141 1.260 . S
C138 C142 1.477 . S
C138 H156 0.932 . S
C139 C140 1.384 . S
C139 C141 1.479 . S
C139 H157 0.929 . S
C140 C137 1.424 . S
C140 C139 1.384 . S
C140 H158 0.928 . S
C141 C138 1.260 . S
C141 C139 1.479 . S
C142 C137 1.245 . S
C142 C138 1.477 . S
C142 H159 0.932 . S
C143 U126 2.882 . S
C143 C137 1.428 . S
C143 O146 1.301 . S
C143 O147 1.282 . S
O144 U126 2.441 . S
O144 C130 1.249 . S
O145 U126 2.420 . S
O145 C130 1.202 . S
O146 U126 2.455 . S
O146 C143 1.301 . S
O147 U126 2.449 . S
O147 C143 1.282 . S
H148 C121 0.931 . S
H149 C123 0.929 . S
H150 C124 0.930 . S
H151 C125 0.931 . S
H152 C132 0.932 . S
H153 C133 0.930 . S
H154 C134 0.929 . S
H155 C136 0.930 . S
H156 C138 0.932 . S
H157 C139 0.929 . S
H158 C140 0.928 . S
H159 C142 0.932 . S
C160 C161 1.264 . S
C160 C165 1.479 . S
C160 C170 1.465 . S
C161 C160 1.264 . S
C161 C163 1.339 . S
C161 H188 0.931 . S
C162 C163 1.395 . S
C162 C164 1.320 . S
C163 C161 1.339 . S
C163 C162 1.395 . S
C163 H189 0.929 . S
C164 C162 1.320 . S
C164 C165 1.405 . S
C164 H190 0.930 . S
C165 C160 1.479 . S
C165 C164 1.405 . S
C165 H191 0.931 . S
U166 O167 2.454 . S
U166 O168 2.458 . S
U166 C169 2.984 . S
U166 C170 2.847 . S
U166 C183 2.882 . S
U166 O184 2.441 . S
U166 O185 2.420 . S
U166 O186 2.455 . S
U166 O187 2.449 . S
O167 U166 2.454 . S
O167 C169 1.353 . S
O168 U166 2.458 . S
O168 C169 1.286 . S
C169 U166 2.984 . S
C169 O167 1.353 . S
C169 O168 1.286 . S
C169 C171 1.363 . S
C170 C160 1.465 . S
C170 U166 2.847 . S
C170 O184 1.249 . S
C170 O185 1.202 . S
C171 C169 1.363 . S
C171 C173 1.408 . S
C171 C176 1.342 . S
C172 C173 1.310 . S
C172 C175 1.461 . S
C172 H192 0.932 . S
C173 C171 1.408 . S
C173 C172 1.310 . S
C173 H193 0.930 . S
C174 C175 1.474 . S
C174 C176 1.285 . S
C174 H194 0.929 . S
C175 C172 1.461 . S
C175 C174 1.474 . S
C176 C171 1.342 . S
C176 C174 1.285 . S
C176 H195 0.930 . S
C177 C180 1.424 . S
C177 C182 1.245 . S
C177 C183 1.428 . S
C178 C181 1.260 . S
C178 C182 1.477 . S
C178 H196 0.932 . S
C179 C180 1.384 . S
C179 C181 1.479 . S
C179 H197 0.929 . S
C180 C177 1.424 . S
C180 C179 1.384 . S
C180 H198 0.928 . S
C181 C178 1.260 . S
C181 C179 1.479 . S
C182 C177 1.245 . S
C182 C178 1.477 . S
C182 H199 0.932 . S
C183 U166 2.882 . S
C183 C177 1.428 . S
C183 O186 1.301 . S
C183 O187 1.282 . S
O184 U166 2.441 . S
O184 C170 1.249 . S
O185 U166 2.420 . S
O185 C170 1.202 . S
O186 U166 2.455 . S
O186 C183 1.301 . S
O187 U166 2.449 . S
O187 C183 1.282 . S
H188 C161 0.931 . S
H189 C163 0.929 . S
H190 C164 0.930 . S
H191 C165 0.931 . S
H192 C172 0.932 . S
H193 C173 0.930 . S
H194 C174 0.929 . S
H195 C176 0.930 . S
H196 C178 0.932 . S
H197 C179 0.929 . S
H198 C180 0.928 . S
H199 C182 0.932 . S
C200 C201 1.264 . S
C200 C205 1.479 . S
C200 C210 1.465 . S
C201 C200 1.264 . S
C201 C203 1.339 . S
C201 H228 0.931 . S
C202 C203 1.395 . S
C202 C204 1.320 . S
C203 C201 1.339 . S
C203 C202 1.395 . S
C203 H229 0.929 . S
C204 C202 1.320 . S
C204 C205 1.405 . S
C204 H230 0.930 . S
C205 C200 1.479 . S
C205 C204 1.405 . S
C205 H231 0.931 . S
U206 O207 2.454 . S
U206 O208 2.458 . S
U206 C209 2.984 . S
U206 C210 2.847 . S
U206 C223 2.882 . S
U206 O224 2.441 . S
U206 O225 2.420 . S
U206 O226 2.455 . S
U206 O227 2.449 . S
O207 U206 2.454 . S
O207 C209 1.353 . S
O208 U206 2.458 . S
O208 C209 1.286 . S
C209 U206 2.984 . S
C209 O207 1.353 . S
C209 O208 1.286 . S
C209 C211 1.363 . S
C210 C200 1.465 . S
C210 U206 2.847 . S
C210 O224 1.249 . S
C210 O225 1.202 . S
C211 C209 1.363 . S
C211 C213 1.408 . S
C211 C216 1.342 . S
C212 C213 1.310 . S
C212 C215 1.461 . S
C212 H232 0.932 . S
C213 C211 1.408 . S
C213 C212 1.310 . S
C213 H233 0.930 . S
C214 C215 1.474 . S
C214 C216 1.285 . S
C214 H234 0.929 . S
C215 C212 1.461 . S
C215 C214 1.474 . S
C216 C211 1.342 . S
C216 C214 1.285 . S
C216 H235 0.930 . S
C217 C220 1.424 . S
C217 C222 1.245 . S
C217 C223 1.428 . S
C218 C221 1.260 . S
C218 C222 1.477 . S
C218 H236 0.932 . S
C219 C220 1.384 . S
C219 C221 1.479 . S
C219 H237 0.929 . S
C220 C217 1.424 . S
C220 C219 1.384 . S
C220 H238 0.928 . S
C221 C218 1.260 . S
C221 C219 1.479 . S
C222 C217 1.245 . S
C222 C218 1.477 . S
C222 H239 0.932 . S
C223 U206 2.882 . S
C223 C217 1.428 . S
C223 O226 1.301 . S
C223 O227 1.282 . S
O224 U206 2.441 . S
O224 C210 1.249 . S
O225 U206 2.420 . S
O225 C210 1.202 . S
O226 U206 2.455 . S
O226 C223 1.301 . S
O227 U206 2.449 . S
O227 C223 1.282 . S
H228 C201 0.931 . S
H229 C203 0.929 . S
H230 C204 0.930 . S
H231 C205 0.931 . S
H232 C212 0.932 . S
H233 C213 0.930 . S
H234 C214 0.929 . S
H235 C216 0.930 . S
H236 C218 0.932 . S
H237 C219 0.929 . S
H238 C220 0.928 . S
H239 C222 0.932 . S
C240 C241 1.264 . S
C240 C245 1.479 . S
C240 C250 1.465 . S
C241 C240 1.264 . S
C241 C243 1.339 . S
C241 H268 0.931 . S
C242 C243 1.395 . S
C242 C244 1.320 . S
C243 C241 1.339 . S
C243 C242 1.395 . S
C243 H269 0.929 . S
C244 C242 1.320 . S
C244 C245 1.405 . S
C244 H270 0.930 . S
C245 C240 1.479 . S
C245 C244 1.405 . S
C245 H271 0.931 . S
U246 O247 2.454 . S
U246 O248 2.458 . S
U246 C249 2.984 . S
U246 C250 2.847 . S
U246 C263 2.882 . S
U246 O264 2.441 . S
U246 O265 2.420 . S
U246 O266 2.455 . S
U246 O267 2.449 . S
O247 U246 2.454 . S
O247 C249 1.353 . S
O248 U246 2.458 . S
O248 C249 1.286 . S
C249 U246 2.984 . S
C249 O247 1.353 . S
C249 O248 1.286 . S
C249 C251 1.363 . S
C250 C240 1.465 . S
C250 U246 2.847 . S
C250 O264 1.249 . S
C250 O265 1.202 . S
C251 C249 1.363 . S
C251 C253 1.408 . S
C251 C256 1.342 . S
C252 C253 1.310 . S
C252 C255 1.461 . S
C252 H272 0.932 . S
C253 C251 1.408 . S
C253 C252 1.310 . S
C253 H273 0.930 . S
C254 C255 1.474 . S
C254 C256 1.285 . S
C254 H274 0.929 . S
C255 C252 1.461 . S
C255 C254 1.474 . S
C256 C251 1.342 . S
C256 C254 1.285 . S
C256 H275 0.930 . S
C257 C260 1.424 . S
C257 C262 1.245 . S
C257 C263 1.428 . S
C258 C261 1.260 . S
C258 C262 1.477 . S
C258 H276 0.932 . S
C259 C260 1.384 . S
C259 C261 1.479 . S
C259 H277 0.929 . S
C260 C257 1.424 . S
C260 C259 1.384 . S
C260 H278 0.928 . S
C261 C258 1.260 . S
C261 C259 1.479 . S
C262 C257 1.245 . S
C262 C258 1.477 . S
C262 H279 0.932 . S
C263 U246 2.882 . S
C263 C257 1.428 . S
C263 O266 1.301 . S
C263 O267 1.282 . S
O264 U246 2.441 . S
O264 C250 1.249 . S
O265 U246 2.420 . S
O265 C250 1.202 . S
O266 U246 2.455 . S
O266 C263 1.301 . S
O267 U246 2.449 . S
O267 C263 1.282 . S
H268 C241 0.931 . S
H269 C243 0.929 . S
H270 C244 0.930 . S
H271 C245 0.931 . S
H272 C252 0.932 . S
H273 C253 0.930 . S
H274 C254 0.929 . S
H275 C256 0.930 . S
H276 C258 0.932 . S
H277 C259 0.929 . S
H278 C260 0.928 . S
H279 C262 0.932 . S
C280 C281 1.264 . S
C280 C285 1.479 . S
C280 C290 1.465 . S
C281 C280 1.264 . S
C281 C283 1.339 . S
C281 H308 0.931 . S
C282 C283 1.395 . S
C282 C284 1.320 . S
C283 C281 1.339 . S
C283 C282 1.395 . S
C283 H309 0.929 . S
C284 C282 1.320 . S
C284 C285 1.405 . S
C284 H310 0.930 . S
C285 C280 1.479 . S
C285 C284 1.405 . S
C285 H311 0.931 . S
U286 O287 2.454 . S
U286 O288 2.458 . S
U286 C289 2.984 . S
U286 C290 2.847 . S
U286 C303 2.882 . S
U286 O304 2.441 . S
U286 O305 2.420 . S
U286 O306 2.455 . S
U286 O307 2.449 . S
O287 U286 2.454 . S
O287 C289 1.353 . S
O288 U286 2.458 . S
O288 C289 1.286 . S
C289 U286 2.984 . S
C289 O287 1.353 . S
C289 O288 1.286 . S
C289 C291 1.363 . S
C290 C280 1.465 . S
C290 U286 2.847 . S
C290 O304 1.249 . S
C290 O305 1.202 . S
C291 C289 1.363 . S
C291 C293 1.408 . S
C291 C296 1.342 . S
C292 C293 1.310 . S
C292 C295 1.461 . S
C292 H312 0.932 . S
C293 C291 1.408 . S
C293 C292 1.310 . S
C293 H313 0.930 . S
C294 C295 1.474 . S
C294 C296 1.285 . S
C294 H314 0.929 . S
C295 C292 1.461 . S
C295 C294 1.474 . S
C296 C291 1.342 . S
C296 C294 1.285 . S
C296 H315 0.930 . S
C297 C300 1.424 . S
C297 C302 1.245 . S
C297 C303 1.428 . S
C298 C301 1.260 . S
C298 C302 1.477 . S
C298 H316 0.932 . S
C299 C300 1.384 . S
C299 C301 1.479 . S
C299 H317 0.929 . S
C300 C297 1.424 . S
C300 C299 1.384 . S
C300 H318 0.928 . S
C301 C298 1.260 . S
C301 C299 1.479 . S
C302 C297 1.245 . S
C302 C298 1.477 . S
C302 H319 0.932 . S
C303 U286 2.882 . S
C303 C297 1.428 . S
C303 O306 1.301 . S
C303 O307 1.282 . S
O304 U286 2.441 . S
O304 C290 1.249 . S
O305 U286 2.420 . S
O305 C290 1.202 . S
O306 U286 2.455 . S
O306 C303 1.301 . S
O307 U286 2.449 . S
O307 C303 1.282 . S
H308 C281 0.931 . S
H309 C283 0.929 . S
H310 C284 0.930 . S
H311 C285 0.931 . S
H312 C292 0.932 . S
H313 C293 0.930 . S
H314 C294 0.929 . S
H315 C296 0.930 . S
H316 C298 0.932 . S
H317 C299 0.929 . S
H318 C300 0.928 . S
H319 C302 0.932 . S
H320 C338 0.951 . S
H321 C340 0.951 . S
H322 C342 0.950 . S
H323 C343 0.950 . S
H324 C345 0.950 . S
H325 C348 0.950 . S
H326 C349 0.950 . S
H327 C351 0.950 . S
H328 C352 0.950 . S
H329 C353 0.951 . S
H330 C355 0.951 . S
H331 C357 0.950 . S
H332 C358 0.950 . S
H333 C360 0.950 . S
H334 C363 0.950 . S
H335 C364 0.950 . S
H336 C366 0.950 . S
H337 C367 0.950 . S
C338 H320 0.951 . S
C338 C339 1.366 . S
C338 C340 1.388 . S
C339 C338 1.366 . S
C339 C343 1.385 . S
C340 H321 0.951 . S
C340 C338 1.388 . S
C340 C341 1.366 . S
C341 C340 1.366 . S
C341 C342 1.414 . S
C341 C344 1.499 . S
C342 H322 0.950 . S
C342 C341 1.414 . S
C342 C343 1.374 . S
C343 H323 0.950 . S
C343 C339 1.385 . S
C343 C342 1.374 . S
C344 C341 1.499 . S
C344 C345 1.373 . S
C344 C346 1.389 . S
C345 H324 0.950 . S
C345 C344 1.373 . S
C345 C361 1.377 1_565 S
C346 C344 1.389 . S
C346 C347 1.524 . S
C346 C360 1.377 1_565 S
C347 C346 1.524 . S
C347 C348 1.397 . S
C347 C352 1.363 . S
C348 H325 0.950 . S
C348 C347 1.397 . S
C348 C349 1.334 . S
C349 H326 0.950 . S
C349 C348 1.334 . S
C349 C350 1.287 . S
C350 C349 1.287 . S
C350 C351 1.524 . S
C350 H369 0.913 . S
C351 H327 0.950 . S
C351 C350 1.524 . S
C351 C352 1.415 . S
C352 H328 0.950 . S
C352 C347 1.363 . S
C352 C351 1.415 . S
C353 H329 0.951 . S
C353 C354 1.366 . S
C353 C355 1.388 . S
C354 C353 1.366 . S
C354 C358 1.385 . S
C355 H330 0.951 . S
C355 C353 1.388 . S
C355 C356 1.366 . S
C356 C355 1.366 . S
C356 C357 1.414 . S
C356 C359 1.499 . S
C357 H331 0.950 . S
C357 C356 1.414 . S
C357 C358 1.374 . S
C358 H332 0.950 . S
C358 C354 1.385 . S
C358 C357 1.374 . S
C359 C356 1.499 . S
C359 C360 1.373 . S
C359 C361 1.389 . S
C360 H333 0.950 . S
C360 C346 1.377 1_545 S
C360 C359 1.373 . S
C361 C345 1.377 1_545 S
C361 C359 1.389 . S
C361 C362 1.524 . S
C362 C361 1.524 . S
C362 C363 1.397 . S
C362 C367 1.363 . S
C363 H334 0.950 . S
C363 C362 1.397 . S
C363 C364 1.334 . S
C364 H335 0.950 . S
C364 C363 1.334 . S
C364 C365 1.287 . S
C365 C364 1.287 . S
C365 C366 1.524 . S
C365 H368 0.999 . S
C366 H336 0.950 . S
C366 C365 1.524 . S
C366 C367 1.415 . S
C367 H337 0.950 . S
C367 C362 1.363 . S
C367 C366 1.415 . S
H368 C365 0.999 . S
H369 C350 0.913 . S
H370 C388 0.951 . S
H371 C390 0.951 . S
H372 C392 0.950 . S
H373 C393 0.950 . S
H374 C395 0.950 . S
H375 C398 0.950 . S
H376 C399 0.950 . S
H377 C401 0.950 . S
H378 C402 0.950 . S
H379 C403 0.951 . S
H380 C405 0.951 . S
H381 C407 0.950 . S
H382 C408 0.950 . S
H383 C410 0.950 . S
H384 C413 0.950 . S
H385 C414 0.950 . S
H386 C416 0.950 . S
H387 C417 0.950 . S
C388 H370 0.951 . S
C388 C389 1.366 . S
C388 C390 1.388 . S
C389 C388 1.366 . S
C389 C393 1.385 . S
C390 H371 0.951 . S
C390 C388 1.388 . S
C390 C391 1.366 . S
C391 C390 1.366 . S
C391 C392 1.414 . S
C391 C394 1.499 . S
C392 H372 0.950 . S
C392 C391 1.414 . S
C392 C393 1.374 . S
C393 H373 0.950 . S
C393 C389 1.385 . S
C393 C392 1.374 . S
C394 C391 1.499 . S
C394 C395 1.373 . S
C394 C396 1.389 . S
C395 H374 0.950 . S
C395 C394 1.373 . S
C395 C411 1.377 . S
C396 C394 1.389 . S
C396 C397 1.524 . S
C396 C410 1.377 . S
C397 C396 1.524 . S
C397 C398 1.397 . S
C397 C402 1.363 . S
C398 H375 0.950 . S
C398 C397 1.397 . S
C398 C399 1.334 . S
C399 H376 0.950 . S
C399 C398 1.334 . S
C399 C400 1.287 . S
C400 C399 1.287 . S
C400 C401 1.524 . S
C400 H419 0.913 . S
C401 H377 0.950 . S
C401 C400 1.524 . S
C401 C402 1.415 . S
C402 H378 0.950 . S
C402 C397 1.363 . S
C402 C401 1.415 . S
C403 H379 0.951 . S
C403 C404 1.366 . S
C403 C405 1.388 . S
C404 C403 1.366 . S
C404 C408 1.385 . S
C405 H380 0.951 . S
C405 C403 1.388 . S
C405 C406 1.366 . S
C406 C405 1.366 . S
C406 C407 1.414 . S
C406 C409 1.499 . S
C407 H381 0.950 . S
C407 C406 1.414 . S
C407 C408 1.374 . S
C408 H382 0.950 . S
C408 C404 1.385 . S
C408 C407 1.374 . S
C409 C406 1.499 . S
C409 C410 1.373 . S
C409 C411 1.389 . S
C410 H383 0.950 . S
C410 C396 1.377 . S
C410 C409 1.373 . S
C411 C395 1.377 . S
C411 C409 1.389 . S
C411 C412 1.524 . S
C412 C411 1.524 . S
C412 C413 1.397 . S
C412 C417 1.363 . S
C413 H384 0.950 . S
C413 C412 1.397 . S
C413 C414 1.334 . S
C414 H385 0.950 . S
C414 C413 1.334 . S
C414 C415 1.287 . S
C415 C414 1.287 . S
C415 C416 1.524 . S
C415 H418 0.999 . S
C416 H386 0.950 . S
C416 C415 1.524 . S
C416 C417 1.415 . S
C417 H387 0.950 . S
C417 C412 1.363 . S
C417 C416 1.415 . S
H418 C415 0.999 . S
H419 C400 0.913 . S
H420 C438 0.951 . S
H421 C440 0.951 . S
H422 C442 0.950 . S
H423 C443 0.950 . S
H424 C445 0.950 . S
H425 C448 0.950 . S
H426 C449 0.950 . S
H427 C451 0.950 1_545 S
H428 C452 0.950 . S
H429 C453 0.951 . S
H430 C455 0.951 . S
H431 C457 0.950 . S
H432 C458 0.950 . S
H433 C460 0.950 . S
H434 C463 0.950 . S
H435 C464 0.950 . S
H436 C466 0.950 1_565 S
H437 C467 0.950 . S
C438 H420 0.951 . S
C438 C439 1.366 . S
C438 C440 1.388 . S
C439 C438 1.366 . S
C439 C443 1.385 . S
C440 H421 0.951 . S
C440 C438 1.388 . S
C440 C441 1.366 . S
C441 C440 1.366 . S
C441 C442 1.414 . S
C441 C444 1.499 . S
C442 H422 0.950 . S
C442 C441 1.414 . S
C442 C443 1.374 . S
C443 H423 0.950 . S
C443 C439 1.385 . S
C443 C442 1.374 . S
C444 C441 1.499 . S
C444 C445 1.373 . S
C444 C446 1.389 . S
C445 H424 0.950 . S
C445 C444 1.373 . S
C445 C461 1.377 1_565 S
C446 C444 1.389 . S
C446 C447 1.524 . S
C446 C460 1.377 1_565 S
C447 C446 1.524 . S
C447 C448 1.397 . S
C447 C452 1.363 1_565 S
C448 H425 0.950 . S
C448 C447 1.397 . S
C448 C449 1.334 . S
C449 H426 0.950 . S
C449 C448 1.334 . S
C449 C450 1.287 . S
C450 C449 1.287 . S
C450 C451 1.524 . S
C450 H469 0.913 . S
C451 H427 0.950 1_565 S
C451 C450 1.524 . S
C451 C452 1.415 1_565 S
C452 H428 0.950 . S
C452 C447 1.363 1_545 S
C452 C451 1.415 1_545 S
C453 H429 0.951 . S
C453 C454 1.366 . S
C453 C455 1.388 . S
C454 C453 1.366 . S
C454 C458 1.385 . S
C455 H430 0.951 . S
C455 C453 1.388 . S
C455 C456 1.366 . S
C456 C455 1.366 . S
C456 C457 1.414 . S
C456 C459 1.499 . S
C457 H431 0.950 . S
C457 C456 1.414 . S
C457 C458 1.374 . S
C458 H432 0.950 . S
C458 C454 1.385 . S
C458 C457 1.374 . S
C459 C456 1.499 . S
C459 C460 1.373 . S
C459 C461 1.389 . S
C460 H433 0.950 . S
C460 C446 1.377 1_545 S
C460 C459 1.373 . S
C461 C445 1.377 1_545 S
C461 C459 1.389 . S
C461 C462 1.524 . S
C462 C461 1.524 . S
C462 C463 1.397 . S
C462 C467 1.363 1_545 S
C463 H434 0.950 . S
C463 C462 1.397 . S
C463 C464 1.334 . S
C464 H435 0.950 . S
C464 C463 1.334 . S
C464 C465 1.287 . S
C465 C464 1.287 . S
C465 C466 1.524 . S
C465 H468 0.999 . S
C466 H436 0.950 1_545 S
C466 C465 1.524 . S
C466 C467 1.415 1_545 S
C467 H437 0.950 . S
C467 C462 1.363 1_565 S
C467 C466 1.415 1_565 S
H468 C465 0.999 . S
H469 C450 0.913 . S
H470 C488 0.951 . S
H471 C490 0.951 . S
H472 C492 0.950 . S
H473 C493 0.950 . S
H474 C495 0.950 . S
H475 C498 0.946 1_554 S
H476 C499 0.950 . S
H477 C501 0.950 . S
H478 C502 0.950 . S
H479 C503 0.951 . S
H480 C505 0.951 . S
H481 C507 0.950 . S
H482 C508 0.950 . S
H483 C510 0.950 . S
H484 C513 0.950 . S
H485 C514 0.950 . S
H486 C516 0.950 . S
H487 C517 0.950 . S
C488 H470 0.951 . S
C488 C489 1.366 . S
C488 C490 1.388 . S
C489 C488 1.366 . S
C489 C493 1.385 . S
C490 H471 0.951 . S
C490 C488 1.388 . S
C490 C491 1.366 . S
C491 C490 1.366 . S
C491 C492 1.414 . S
C491 C494 1.499 . S
C492 H472 0.950 . S
C492 C491 1.414 . S
C492 C493 1.374 . S
C493 H473 0.950 . S
C493 C489 1.385 . S
C493 C492 1.374 . S
C494 C491 1.499 . S
C494 C495 1.373 . S
C494 C496 1.456 . S
C495 H474 0.950 . S
C495 C494 1.373 . S
C495 C511 1.377 . S
C496 C494 1.456 . S
C496 C497 1.502 1_554 S
C496 C510 1.330 1_554 S
C497 C496 1.502 1_556 S
C497 C498 1.398 . S
C497 C502 1.363 . S
C498 H475 0.946 1_556 S
C498 C497 1.398 . S
C498 C499 1.336 . S
C499 H476 0.950 . S
C499 C498 1.336 . S
C499 C500 1.287 . S
C500 C499 1.287 . S
C500 C501 1.524 . S
C500 H519 0.913 . S
C501 H477 0.950 . S
C501 C500 1.524 . S
C501 C502 1.415 . S
C502 H478 0.950 . S
C502 C497 1.363 . S
C502 C501 1.415 . S
C503 H479 0.951 . S
C503 C504 1.366 . S
C503 C505 1.388 . S
C504 C503 1.366 . S
C504 C508 1.385 . S
C505 H480 0.951 . S
C505 C503 1.388 . S
C505 C506 1.366 . S
C506 C505 1.366 . S
C506 C507 1.414 . S
C506 C509 1.499 . S
C507 H481 0.950 . S
C507 C506 1.414 . S
C507 C508 1.374 . S
C508 H482 0.950 . S
C508 C504 1.385 . S
C508 C507 1.374 . S
C509 C506 1.499 . S
C509 C510 1.373 . S
C509 C511 1.389 1_556 S
C510 H483 0.950 . S
C510 C496 1.330 1_556 S
C510 C509 1.373 . S
C511 C495 1.377 . S
C511 C509 1.389 1_554 S
C511 C512 1.524 . S
C512 C511 1.524 . S
C512 C513 1.397 . S
C512 C517 1.363 . S
C513 H484 0.950 . S
C513 C512 1.397 . S
C513 C514 1.334 . S
C514 H485 0.950 . S
C514 C513 1.334 . S
C514 C515 1.287 . S
C515 C514 1.287 . S
C515 C516 1.524 . S
C515 H518 0.999 . S
C516 H486 0.950 . S
C516 C515 1.524 . S
C516 C517 1.415 . S
C517 H487 0.950 . S
C517 C512 1.363 . S
C517 C516 1.415 . S
H518 C515 0.999 . S
H519 C500 0.913 . S
H520 C538 0.951 . S
H521 C540 0.951 . S
H522 C542 0.950 . S
H523 C543 0.950 . S
H524 C545 0.950 . S
H525 C548 0.950 . S
H526 C549 0.950 . S
H527 C551 0.950 . S
H528 C552 0.950 . S
H529 C553 0.951 . S
H530 C555 0.951 . S
H531 C557 0.950 . S
H532 C558 0.950 . S
H533 C560 0.950 . S
H534 C563 0.950 . S
H535 C564 0.950 . S
H536 C566 0.950 . S
H537 C567 0.950 . S
C538 H520 0.951 . S
C538 C539 1.366 . S
C538 C540 1.388 . S
C539 C538 1.366 . S
C539 C543 1.385 . S
C540 H521 0.951 . S
C540 C538 1.388 . S
C540 C541 1.366 . S
C541 C540 1.366 . S
C541 C542 1.414 . S
C541 C544 1.499 . S
C542 H522 0.950 . S
C542 C541 1.414 . S
C542 C543 1.374 . S
C543 H523 0.950 . S
C543 C539 1.385 . S
C543 C542 1.374 . S
C544 C541 1.499 . S
C544 C545 1.373 1_655 S
C544 C546 1.389 . S
C545 H524 0.950 . S
C545 C544 1.373 1_455 S
C545 C561 1.377 . S
C546 C544 1.389 . S
C546 C547 1.524 . S
C546 C560 1.377 . S
C547 C546 1.524 . S
C547 C548 1.397 . S
C547 C552 1.363 . S
C548 H525 0.950 . S
C548 C547 1.397 . S
C548 C549 1.334 . S
C549 H526 0.950 . S
C549 C548 1.334 . S
C549 C550 1.287 . S
C550 C549 1.287 . S
C550 C551 1.524 . S
C550 H569 0.913 . S
C551 H527 0.950 . S
C551 C550 1.524 . S
C551 C552 1.415 . S
C552 H528 0.950 . S
C552 C547 1.363 . S
C552 C551 1.415 . S
C553 H529 0.951 . S
C553 C554 1.366 . S
C553 C555 1.388 . S
C554 C553 1.366 . S
C554 C558 1.385 . S
C555 H530 0.951 . S
C555 C553 1.388 . S
C555 C556 1.366 . S
C556 C555 1.366 . S
C556 C557 1.414 . S
C556 C559 1.499 . S
C557 H531 0.950 . S
C557 C556 1.414 . S
C557 C558 1.374 . S
C558 H532 0.950 . S
C558 C554 1.385 . S
C558 C557 1.374 . S
C559 C556 1.499 . S
C559 C560 1.373 1_455 S
C559 C561 1.389 . S
C560 H533 0.950 . S
C560 C546 1.377 . S
C560 C559 1.373 1_655 S
C561 C545 1.377 . S
C561 C559 1.389 . S
C561 C562 1.524 . S
C562 C561 1.524 . S
C562 C563 1.397 . S
C562 C567 1.363 . S
C563 H534 0.950 . S
C563 C562 1.397 . S
C563 C564 1.334 . S
C564 H535 0.950 . S
C564 C563 1.334 . S
C564 C565 1.287 . S
C565 C564 1.287 . S
C565 C566 1.524 . S
C565 H568 0.999 . S
C566 H536 0.950 . S
C566 C565 1.524 . S
C566 C567 1.415 . S
C567 H537 0.950 . S
C567 C562 1.363 . S
C567 C566 1.415 . S
H568 C565 0.999 . S
H569 C550 0.913 . S
H570 C588 0.951 . S
H571 C590 0.951 . S
H572 C592 0.950 . S
H573 C593 0.950 . S
H574 C595 0.950 . S
H575 C598 0.950 . S
H576 C599 0.950 . S
H577 C601 0.950 . S
H578 C602 0.950 . S
H579 C603 0.951 . S
H580 C605 0.951 . S
H581 C607 0.950 . S
H582 C608 0.950 . S
H583 C610 0.950 . S
H584 C613 0.950 . S
H585 C614 0.950 . S
H586 C616 0.950 . S
H587 C617 0.950 . S
C588 H570 0.951 . S
C588 C589 1.366 . S
C588 C590 1.388 . S
C589 C588 1.366 . S
C589 C593 1.385 . S
C590 H571 0.951 . S
C590 C588 1.388 . S
C590 C591 1.366 . S
C591 C590 1.366 . S
C591 C592 1.414 . S
C591 C594 1.499 . S
C592 H572 0.950 . S
C592 C591 1.414 . S
C592 C593 1.374 . S
C593 H573 0.950 . S
C593 C589 1.385 . S
C593 C592 1.374 . S
C594 C591 1.499 . S
C594 C595 1.373 . S
C594 C596 1.389 . S
C595 H574 0.950 . S
C595 C594 1.373 . S
C595 C611 1.377 . S
C596 C594 1.389 . S
C596 C597 1.524 . S
C596 C610 1.377 . S
C597 C596 1.524 . S
C597 C598 1.397 . S
C597 C602 1.363 . S
C598 H575 0.950 . S
C598 C597 1.397 . S
C598 C599 1.334 . S
C599 H576 0.950 . S
C599 C598 1.334 . S
C599 C600 1.287 . S
C600 C599 1.287 . S
C600 C601 1.524 . S
C600 H619 0.913 . S
C601 H577 0.950 . S
C601 C600 1.524 . S
C601 C602 1.415 . S
C602 H578 0.950 . S
C602 C597 1.363 . S
C602 C601 1.415 . S
C603 H579 0.951 . S
C603 C604 1.366 . S
C603 C605 1.388 . S
C604 C603 1.366 . S
C604 C608 1.385 . S
C605 H580 0.951 . S
C605 C603 1.388 . S
C605 C606 1.366 . S
C606 C605 1.366 . S
C606 C607 1.414 . S
C606 C609 1.499 . S
C607 H581 0.950 . S
C607 C606 1.414 . S
C607 C608 1.374 . S
C608 H582 0.950 . S
C608 C604 1.385 . S
C608 C607 1.374 . S
C609 C606 1.499 . S
C609 C610 1.373 . S
C609 C611 1.389 . S
C610 H583 0.950 . S
C610 C596 1.377 . S
C610 C609 1.373 . S
C611 C595 1.377 . S
C611 C609 1.389 . S
C611 C612 1.524 . S
C612 C611 1.524 . S
C612 C613 1.397 . S
C612 C617 1.363 . S
C613 H584 0.950 . S
C613 C612 1.397 . S
C613 C614 1.334 . S
C614 H585 0.950 . S
C614 C613 1.334 . S
C614 C615 1.287 . S
C615 C614 1.287 . S
C615 C616 1.524 . S
C615 H618 0.999 . S
C616 H586 0.950 . S
C616 C615 1.524 . S
C616 C617 1.415 . S
C617 H587 0.950 . S
C617 C612 1.363 . S
C617 C616 1.415 . S
H618 C615 0.999 . S
H619 C600 0.913 . S
H620 C638 0.951 . S
H621 C640 0.951 . S
H622 C642 0.950 . S
H623 C643 0.950 . S
H624 C645 0.950 . S
H625 C648 0.949 . S
H626 C649 0.950 . S
H627 C651 0.950 . S
H628 C652 0.950 . S
H629 C653 0.951 . S
H630 C655 0.951 . S
H631 C657 0.950 . S
H632 C658 0.950 . S
H633 C660 0.950 . S
H634 C663 0.941 1_455 S
H635 C664 0.946 1_455 S
H636 C666 0.950 . S
H637 C667 0.950 . S
C638 H620 0.951 . S
C638 C639 1.366 . S
C638 C640 1.388 . S
C639 C638 1.366 . S
C639 C643 1.385 . S
C640 H621 0.951 . S
C640 C638 1.388 . S
C640 C641 1.366 . S
C641 C640 1.366 . S
C641 C642 1.414 . S
C641 C644 1.499 . S
C642 H622 0.950 . S
C642 C641 1.414 . S
C642 C643 1.374 . S
C643 H623 0.950 . S
C643 C639 1.385 . S
C643 C642 1.374 . S
C644 C641 1.499 . S
C644 C645 1.373 . S
C644 C646 1.389 . S
C645 H624 0.950 . S
C645 C644 1.373 . S
C645 C661 1.377 1_455 S
C646 C644 1.389 . S
C646 C647 1.524 . S
C646 C660 1.377 1_455 S
C647 C646 1.524 . S
C647 C648 1.398 1_455 S
C647 C652 1.363 . S
C648 H625 0.949 . S
C648 C647 1.398 1_655 S
C648 C649 1.334 . S
C649 H626 0.950 . S
C649 C648 1.334 . S
C649 C650 1.287 1_655 S
C650 C649 1.287 1_455 S
C650 C651 1.524 . S
C650 H669 0.913 . S
C651 H627 0.950 . S
C651 C650 1.524 . S
C651 C652 1.415 . S
C652 H628 0.950 . S
C652 C647 1.363 . S
C652 C651 1.415 . S
C653 H629 0.951 . S
C653 C654 1.366 . S
C653 C655 1.388 . S
C654 C653 1.366 . S
C654 C658 1.385 . S
C655 H630 0.951 . S
C655 C653 1.388 . S
C655 C656 1.366 . S
C656 C655 1.366 . S
C656 C657 1.414 . S
C656 C659 1.499 . S
C657 H631 0.950 . S
C657 C656 1.414 . S
C657 C658 1.374 . S
C658 H632 0.950 . S
C658 C654 1.385 . S
C658 C657 1.374 . S
C659 C656 1.499 . S
C659 C660 1.373 . S
C659 C661 1.389 . S
C660 H633 0.950 . S
C660 C646 1.377 1_655 S
C660 C659 1.373 . S
C661 C645 1.377 1_655 S
C661 C659 1.389 . S
C661 C662 1.524 . S
C662 C661 1.524 . S
C662 C663 1.408 . S
C662 C667 1.363 . S
C663 H634 0.941 1_655 S
C663 C662 1.408 . S
C663 C664 1.334 . S
C664 H635 0.946 1_655 S
C664 C663 1.334 . S
C664 C665 1.294 . S
C665 C664 1.294 . S
C665 C666 1.524 . S
C665 H668 0.999 . S
C666 H636 0.950 . S
C666 C665 1.524 . S
C666 C667 1.415 . S
C667 H637 0.950 . S
C667 C662 1.363 . S
C667 C666 1.415 . S
H668 C665 0.999 . S
H669 C650 0.913 . S
H670 C688 0.951 . S
H671 C690 0.951 . S
H672 C692 0.950 . S
H673 C693 0.950 . S
H674 C695 0.950 . S
H675 C698 0.950 . S
H676 C699 0.950 . S
H677 C701 0.950 . S
H678 C702 0.950 . S
H679 C703 0.951 . S
H680 C705 0.951 . S
H681 C707 0.950 . S
H682 C708 0.950 . S
H683 C710 0.950 . S
H684 C713 0.950 . S
H685 C714 0.950 . S
H686 C716 0.950 . S
H687 C717 0.950 . S
C688 H670 0.951 . S
C688 C689 1.366 . S
C688 C690 1.388 . S
C689 C688 1.366 . S
C689 C693 1.385 . S
C690 H671 0.951 . S
C690 C688 1.388 . S
C690 C691 1.366 . S
C691 C690 1.366 . S
C691 C692 1.414 . S
C691 C694 1.499 . S
C692 H672 0.950 . S
C692 C691 1.414 . S
C692 C693 1.374 . S
C693 H673 0.950 . S
C693 C689 1.385 . S
C693 C692 1.374 . S
C694 C691 1.499 . S
C694 C695 1.373 . S
C694 C696 1.389 . S
C695 H674 0.950 . S
C695 C694 1.373 . S
C695 C711 1.377 . S
C696 C694 1.389 . S
C696 C697 1.524 . S
C696 C710 1.377 . S
C697 C696 1.524 . S
C697 C698 1.397 . S
C697 C702 1.363 . S
C698 H675 0.950 . S
C698 C697 1.397 . S
C698 C699 1.334 . S
C699 H676 0.950 . S
C699 C698 1.334 . S
C699 C700 1.287 . S
C700 C699 1.287 . S
C700 C701 1.524 . S
C700 H719 0.913 . S
C701 H677 0.950 . S
C701 C700 1.524 . S
C701 C702 1.415 . S
C702 H678 0.950 . S
C702 C697 1.363 . S
C702 C701 1.415 . S
C703 H679 0.951 . S
C703 C704 1.366 . S
C703 C705 1.388 . S
C704 C703 1.366 . S
C704 C708 1.385 . S
C705 H680 0.951 . S
C705 C703 1.388 . S
C705 C706 1.366 . S
C706 C705 1.366 . S
C706 C707 1.414 . S
C706 C709 1.499 . S
C707 H681 0.950 . S
C707 C706 1.414 . S
C707 C708 1.374 . S
C708 H682 0.950 . S
C708 C704 1.385 . S
C708 C707 1.374 . S
C709 C706 1.499 . S
C709 C710 1.373 . S
C709 C711 1.389 . S
C710 H683 0.950 . S
C710 C696 1.377 . S
C710 C709 1.373 . S
C711 C695 1.377 . S
C711 C709 1.389 . S
C711 C712 1.524 . S
C712 C711 1.524 . S
C712 C713 1.397 . S
C712 C717 1.363 . S
C713 H684 0.950 . S
C713 C712 1.397 . S
C713 C714 1.334 . S
C714 H685 0.950 . S
C714 C713 1.334 . S
C714 C715 1.287 . S
C715 C714 1.287 . S
C715 C716 1.524 . S
C715 H718 0.999 . S
C716 H686 0.950 . S
C716 C715 1.524 . S
C716 C717 1.415 . S
C717 H687 0.950 . S
C717 C712 1.363 . S
C717 C716 1.415 . S
H718 C715 0.999 . S
H719 C700 0.913 . S
H720 C738 0.951 . S
H721 C740 0.951 . S
H722 C742 0.950 . S
H723 C743 0.950 . S
H724 C745 0.950 . S
H725 C748 0.950 . S
H726 C749 0.950 . S
H727 C751 0.950 . S
H728 C752 0.950 . S
H729 C753 0.951 . S
H730 C755 0.951 . S
H731 C757 0.950 . S
H732 C758 0.950 . S
H733 C760 0.950 . S
H734 C763 0.950 . S
H735 C764 0.950 . S
H736 C766 0.950 . S
H737 C767 0.950 . S
C738 H720 0.951 . S
C738 C739 1.366 . S
C738 C740 1.388 . S
C739 C738 1.366 . S
C739 C743 1.385 . S
C740 H721 0.951 . S
C740 C738 1.388 . S
C740 C741 1.366 . S
C741 C740 1.366 . S
C741 C742 1.414 . S
C741 C744 1.499 . S
C742 H722 0.950 . S
C742 C741 1.414 . S
C742 C743 1.374 . S
C743 H723 0.950 . S
C743 C739 1.385 . S
C743 C742 1.374 . S
C744 C741 1.499 . S
C744 C745 1.373 . S
C744 C746 1.389 . S
C745 H724 0.950 . S
C745 C744 1.373 . S
C745 C761 1.377 . S
C746 C744 1.389 . S
C746 C747 1.524 . S
C746 C760 1.377 . S
C747 C746 1.524 . S
C747 C748 1.397 . S
C747 C752 1.363 . S
C748 H725 0.950 . S
C748 C747 1.397 . S
C748 C749 1.334 . S
C749 H726 0.950 . S
C749 C748 1.334 . S
C749 C750 1.287 . S
C750 C749 1.287 . S
C750 C751 1.524 . S
C750 H769 0.913 . S
C751 H727 0.950 . S
C751 C750 1.524 . S
C751 C752 1.415 . S
C752 H728 0.950 . S
C752 C747 1.363 . S
C752 C751 1.415 . S
C753 H729 0.951 . S
C753 C754 1.366 . S
C753 C755 1.388 . S
C754 C753 1.366 . S
C754 C758 1.385 . S
C755 H730 0.951 . S
C755 C753 1.388 . S
C755 C756 1.366 . S
C756 C755 1.366 . S
C756 C757 1.414 . S
C756 C759 1.499 . S
C757 H731 0.950 . S
C757 C756 1.414 . S
C757 C758 1.374 . S
C758 H732 0.950 . S
C758 C754 1.385 . S
C758 C757 1.374 . S
C759 C756 1.499 . S
C759 C760 1.373 . S
C759 C761 1.389 . S
C760 H733 0.950 . S
C760 C746 1.377 . S
C760 C759 1.373 . S
C761 C745 1.377 . S
C761 C759 1.389 . S
C761 C762 1.524 . S
C762 C761 1.524 . S
C762 C763 1.397 . S
C762 C767 1.363 . S
C763 H734 0.950 . S
C763 C762 1.397 . S
C763 C764 1.334 . S
C764 H735 0.950 . S
C764 C763 1.334 . S
C764 C765 1.287 . S
C765 C764 1.287 . S
C765 C766 1.524 . S
C765 H768 0.999 . S
C766 H736 0.950 . S
C766 C765 1.524 . S
C766 C767 1.415 . S
C767 H737 0.950 . S
C767 C762 1.363 . S
C767 C766 1.415 . S
H768 C765 0.999 . S
H769 C750 0.913 . S
H770 C788 0.951 . S
H771 C790 0.951 . S
H772 C792 0.950 . S
H773 C793 0.950 . S
H774 C795 0.950 . S
H775 C798 0.950 . S
H776 C799 0.950 . S
H777 C801 0.950 . S
H778 C802 0.950 . S
H779 C803 0.951 . S
H780 C805 0.951 . S
H781 C807 0.950 . S
H782 C808 0.950 . S
H783 C810 0.950 . S
H784 C813 0.950 . S
H785 C814 0.950 . S
H786 C816 0.950 . S
H787 C817 0.950 . S
C788 H770 0.951 . S
C788 C789 1.366 . S
C788 C790 1.388 . S
C789 C788 1.366 . S
C789 C793 1.385 . S
C790 H771 0.951 . S
C790 C788 1.388 . S
C790 C791 1.366 . S
C791 C790 1.366 . S
C791 C792 1.414 . S
C791 C794 1.499 . S
C792 H772 0.950 . S
C792 C791 1.414 . S
C792 C793 1.374 . S
C793 H773 0.950 . S
C793 C789 1.385 . S
C793 C792 1.374 . S
C794 C791 1.499 . S
C794 C795 1.373 1_554 S
C794 C796 1.389 . S
C795 H774 0.950 . S
C795 C794 1.373 1_556 S
C795 C811 1.377 . S
C796 C794 1.389 . S
C796 C797 1.524 . S
C796 C810 1.377 1_554 S
C797 C796 1.524 . S
C797 C798 1.397 . S
C797 C802 1.363 . S
C798 H775 0.950 . S
C798 C797 1.397 . S
C798 C799 1.334 . S
C799 H776 0.950 . S
C799 C798 1.334 . S
C799 C800 1.287 . S
C800 C799 1.287 . S
C800 C801 1.524 . S
C800 H819 0.913 . S
C801 H777 0.950 . S
C801 C800 1.524 . S
C801 C802 1.415 . S
C802 H778 0.950 . S
C802 C797 1.363 . S
C802 C801 1.415 . S
C803 H779 0.951 . S
C803 C804 1.366 . S
C803 C805 1.388 . S
C804 C803 1.366 . S
C804 C808 1.385 . S
C805 H780 0.951 . S
C805 C803 1.388 . S
C805 C806 1.366 . S
C806 C805 1.366 . S
C806 C807 1.414 . S
C806 C809 1.499 . S
C807 H781 0.950 . S
C807 C806 1.414 . S
C807 C808 1.374 . S
C808 H782 0.950 . S
C808 C804 1.385 . S
C808 C807 1.374 . S
C809 C806 1.499 . S
C809 C810 1.373 . S
C809 C811 1.389 . S
C810 H783 0.950 . S
C810 C796 1.377 1_556 S
C810 C809 1.373 . S
C811 C795 1.377 . S
C811 C809 1.389 . S
C811 C812 1.524 . S
C812 C811 1.524 . S
C812 C813 1.397 . S
C812 C817 1.363 . S
C813 H784 0.950 . S
C813 C812 1.397 . S
C813 C814 1.334 . S
C814 H785 0.950 . S
C814 C813 1.334 . S
C814 C815 1.287 . S
C815 C814 1.287 . S
C815 C816 1.524 . S
C815 H818 0.999 . S
C816 H786 0.950 . S
C816 C815 1.524 . S
C816 C817 1.415 . S
C817 H787 0.950 . S
C817 C812 1.363 . S
C817 C816 1.415 . S
H818 C815 0.999 . S
H819 C800 0.913 . S
H820 C838 0.951 . S
H821 C840 0.951 . S
H822 C842 0.950 . S
H823 C843 0.950 . S
H824 C845 0.950 . S
H825 C848 0.950 . S
H826 C849 0.950 . S
H827 C851 0.950 . S
H828 C852 0.950 . S
H829 C853 0.951 . S
H830 C855 0.951 . S
H831 C857 0.950 . S
H832 C858 0.950 . S
H833 C860 0.950 . S
H834 C863 0.950 . S
H835 C864 0.950 . S
H836 C866 0.950 . S
H837 C867 0.950 . S
C838 H820 0.951 . S
C838 C839 1.366 . S
C838 C840 1.388 . S
C839 C838 1.366 . S
C839 C843 1.385 . S
C840 H821 0.951 . S
C840 C838 1.388 . S
C840 C841 1.366 . S
C841 C840 1.366 . S
C841 C842 1.414 . S
C841 C844 1.499 . S
C842 H822 0.950 . S
C842 C841 1.414 . S
C842 C843 1.374 . S
C843 H823 0.950 . S
C843 C839 1.385 . S
C843 C842 1.374 . S
C844 C841 1.499 . S
C844 C845 1.373 . S
C844 C846 1.389 . S
C845 H824 0.950 . S
C845 C844 1.373 . S
C845 C861 1.377 . S
C846 C844 1.389 . S
C846 C847 1.524 . S
C846 C860 1.377 . S
C847 C846 1.524 . S
C847 C848 1.397 . S
C847 C852 1.363 . S
C848 H825 0.950 . S
C848 C847 1.397 . S
C848 C849 1.334 . S
C849 H826 0.950 . S
C849 C848 1.334 . S
C849 C850 1.287 . S
C850 C849 1.287 . S
C850 C851 1.524 . S
C850 H869 0.913 . S
C851 H827 0.950 . S
C851 C850 1.524 . S
C851 C852 1.415 . S
C852 H828 0.950 . S
C852 C847 1.363 . S
C852 C851 1.415 . S
C853 H829 0.951 . S
C853 C854 1.366 . S
C853 C855 1.388 . S
C854 C853 1.366 . S
C854 C858 1.385 . S
C855 H830 0.951 . S
C855 C853 1.388 . S
C855 C856 1.366 . S
C856 C855 1.366 . S
C856 C857 1.414 . S
C856 C859 1.499 . S
C857 H831 0.950 . S
C857 C856 1.414 . S
C857 C858 1.374 . S
C858 H832 0.950 . S
C858 C854 1.385 . S
C858 C857 1.374 . S
C859 C856 1.499 . S
C859 C860 1.373 . S
C859 C861 1.389 . S
C860 H833 0.950 . S
C860 C846 1.377 . S
C860 C859 1.373 . S
C861 C845 1.377 . S
C861 C859 1.389 . S
C861 C862 1.524 . S
C862 C861 1.524 . S
C862 C863 1.397 . S
C862 C867 1.363 . S
C863 H834 0.950 . S
C863 C862 1.397 . S
C863 C864 1.334 . S
C864 H835 0.950 . S
C864 C863 1.334 . S
C864 C865 1.287 . S
C865 C864 1.287 . S
C865 C866 1.524 . S
C865 H868 0.999 . S
C866 H836 0.950 . S
C866 C865 1.524 . S
C866 C867 1.415 . S
C867 H837 0.950 . S
C867 C862 1.363 . S
C867 C866 1.415 . S
H868 C865 0.999 . S
H869 C850 0.913 . S
H870 C888 0.951 . S
H871 C890 0.951 . S
H872 C892 0.950 . S
H873 C893 0.950 . S
H874 C895 0.950 . S
H875 C898 0.950 . S
H876 C899 0.950 . S
H877 C901 0.950 . S
H878 C902 0.950 . S
H879 C903 0.951 . S
H880 C905 0.951 . S
H881 C907 0.950 . S
H882 C908 0.950 . S
H883 C910 0.950 . S
H884 C913 0.950 . S
H885 C914 0.950 . S
H886 C916 0.950 . S
H887 C917 0.950 . S
C888 H870 0.951 . S
C888 C889 1.366 . S
C888 C890 1.388 . S
C889 C888 1.366 . S
C889 C893 1.385 . S
C890 H871 0.951 . S
C890 C888 1.388 . S
C890 C891 1.366 . S
C891 C890 1.366 . S
C891 C892 1.414 . S
C891 C894 1.499 . S
C892 H872 0.950 . S
C892 C891 1.414 . S
C892 C893 1.374 . S
C893 H873 0.950 . S
C893 C889 1.385 . S
C893 C892 1.374 . S
C894 C891 1.499 . S
C894 C895 1.373 . S
C894 C896 1.389 . S
C895 H874 0.950 . S
C895 C894 1.373 . S
C895 C911 1.377 . S
C896 C894 1.389 . S
C896 C897 1.524 . S
C896 C910 1.377 . S
C897 C896 1.524 . S
C897 C898 1.397 . S
C897 C902 1.363 . S
C898 H875 0.950 . S
C898 C897 1.397 . S
C898 C899 1.334 . S
C899 H876 0.950 . S
C899 C898 1.334 . S
C899 C900 1.287 . S
C900 C899 1.287 . S
C900 C901 1.524 . S
C900 H919 0.913 . S
C901 H877 0.950 . S
C901 C900 1.524 . S
C901 C902 1.415 . S
C902 H878 0.950 . S
C902 C897 1.363 . S
C902 C901 1.415 . S
C903 H879 0.951 . S
C903 C904 1.366 . S
C903 C905 1.388 . S
C904 C903 1.366 . S
C904 C908 1.385 . S
C905 H880 0.951 . S
C905 C903 1.388 . S
C905 C906 1.366 . S
C906 C905 1.366 . S
C906 C907 1.414 . S
C906 C909 1.499 . S
C907 H881 0.950 . S
C907 C906 1.414 . S
C907 C908 1.374 . S
C908 H882 0.950 . S
C908 C904 1.385 . S
C908 C907 1.374 . S
C909 C906 1.499 . S
C909 C910 1.373 . S
C909 C911 1.389 . S
C910 H883 0.950 . S
C910 C896 1.377 . S
C910 C909 1.373 . S
C911 C895 1.377 . S
C911 C909 1.389 . S
C911 C912 1.524 . S
C912 C911 1.524 . S
C912 C913 1.397 . S
C912 C917 1.363 . S
C913 H884 0.950 . S
C913 C912 1.397 . S
C913 C914 1.334 . S
C914 H885 0.950 . S
C914 C913 1.334 . S
C914 C915 1.287 . S
C915 C914 1.287 . S
C915 C916 1.524 . S
C915 H918 0.999 . S
C916 H886 0.950 . S
C916 C915 1.524 . S
C916 C917 1.415 . S
C917 H887 0.950 . S
C917 C912 1.363 . S
C917 C916 1.415 . S
H918 C915 0.999 . S
H919 C900 0.913 . S
C339 C42 1.487 . S
C354 C2 1.488 . S
C389 C61 1.489 . S
C404 C95 1.502 . S
C439 C82 1.487 . S
C454 C122 1.488 . S
C489 C21 1.489 . S
C504 C135 1.502 . S
C539 C221 1.489 . S
C554 C15 1.502 . S
C589 C141 1.488 . S
C604 C175 1.502 . S
C639 C55 1.502 . S
C654 C261 1.488 . S
C689 C295 1.502 . S
C704 C101 1.489 . S
C739 C282 1.488 . S
C754 C162 1.487 . S
C789 C215 1.502 . S
C804 C181 1.489 . S
C839 C202 1.488 . S
C854 C242 1.488 . S
C889 C255 1.502 . S
C904 C301 1.489 . S
