# Generated by pormake.
# Topology uoy, (4)-cn, num edge types: 1
# Building blocks:
#     Node 0, Type 0, BuildingBlock: QUQFOY_clean_sbu_3, # of connection points: 4
#     Node 1, Type 0, BuildingBlock: QUQFOY_clean_sbu_3, # of connection points: 4
#     Node 2, Type 0, BuildingBlock: QUQFOY_clean_sbu_3, # of connection points: 4
#     Node 3, Type 0, BuildingBlock: QUQFOY_clean_sbu_3, # of connection points: 4
#     Node 4, Type 0, BuildingBlock: QUQFOY_clean_sbu_3, # of connection points: 4
#     Node 5, Type 0, BuildingBlock: QUQFOY_clean_sbu_3, # of connection points: 4
#     Node 6, Type 0, BuildingBlock: QUQFOY_clean_sbu_3, # of connection points: 4
#     Node 7, Type 0, BuildingBlock: QUQFOY_clean_sbu_3, # of connection points: 4
#     Node 8, Type 0, BuildingBlock: QUQFOY_clean_sbu_3, # of connection points: 4
#     Node 9, Type 0, BuildingBlock: QUQFOY_clean_sbu_3, # of connection points: 4
#     Node 10, Type 0, BuildingBlock: QUQFOY_clean_sbu_3, # of connection points: 4
#     Node 11, Type 0, BuildingBlock: QUQFOY_clean_sbu_3, # of connection points: 4
#     Node 12, Type 0, BuildingBlock: QUQFOY_clean_sbu_3, # of connection points: 4
#     Node 13, Type 0, BuildingBlock: QUQFOY_clean_sbu_3, # of connection points: 4
#     Node 14, Type 0, BuildingBlock: QUQFOY_clean_sbu_3, # of connection points: 4
#     Node 15, Type 0, BuildingBlock: QUQFOY_clean_sbu_3, # of connection points: 4
#     Edge 16, Type (0, 0), BuildingBlock: OJICUG_clean_linker_0, # of connection points: 2
#     Edge 17, Type (0, 0), BuildingBlock: OJICUG_clean_linker_0, # of connection points: 2
#     Edge 18, Type (0, 0), BuildingBlock: OJICUG_clean_linker_0, # of connection points: 2
#     Edge 19, Type (0, 0), BuildingBlock: OJICUG_clean_linker_0, # of connection points: 2
#     Edge 20, Type (0, 0), BuildingBlock: OJICUG_clean_linker_0, # of connection points: 2
#     Edge 21, Type (0, 0), BuildingBlock: OJICUG_clean_linker_0, # of connection points: 2
#     Edge 22, Type (0, 0), BuildingBlock: OJICUG_clean_linker_0, # of connection points: 2
#     Edge 23, Type (0, 0), BuildingBlock: OJICUG_clean_linker_0, # of connection points: 2
#     Edge 24, Type (0, 0), BuildingBlock: OJICUG_clean_linker_0, # of connection points: 2
#     Edge 25, Type (0, 0), BuildingBlock: OJICUG_clean_linker_0, # of connection points: 2
#     Edge 26, Type (0, 0), BuildingBlock: OJICUG_clean_linker_0, # of connection points: 2
#     Edge 27, Type (0, 0), BuildingBlock: OJICUG_clean_linker_0, # of connection points: 2
#     Edge 28, Type (0, 0), BuildingBlock: OJICUG_clean_linker_0, # of connection points: 2
#     Edge 29, Type (0, 0), BuildingBlock: OJICUG_clean_linker_0, # of connection points: 2
#     Edge 30, Type (0, 0), BuildingBlock: OJICUG_clean_linker_0, # of connection points: 2
#     Edge 31, Type (0, 0), BuildingBlock: OJICUG_clean_linker_0, # of connection points: 2
#     Edge 32, Type (0, 0), BuildingBlock: OJICUG_clean_linker_0, # of connection points: 2
#     Edge 33, Type (0, 0), BuildingBlock: OJICUG_clean_linker_0, # of connection points: 2
#     Edge 34, Type (0, 0), BuildingBlock: OJICUG_clean_linker_0, # of connection points: 2
#     Edge 35, Type (0, 0), BuildingBlock: OJICUG_clean_linker_0, # of connection points: 2
#     Edge 36, Type (0, 0), BuildingBlock: OJICUG_clean_linker_0, # of connection points: 2
#     Edge 37, Type (0, 0), BuildingBlock: OJICUG_clean_linker_0, # of connection points: 2
#     Edge 38, Type (0, 0), BuildingBlock: OJICUG_clean_linker_0, # of connection points: 2
#     Edge 39, Type (0, 0), BuildingBlock: OJICUG_clean_linker_0, # of connection points: 2
#     Edge 40, Type (0, 0), BuildingBlock: OJICUG_clean_linker_0, # of connection points: 2
#     Edge 41, Type (0, 0), BuildingBlock: OJICUG_clean_linker_0, # of connection points: 2
#     Edge 42, Type (0, 0), BuildingBlock: OJICUG_clean_linker_0, # of connection points: 2
#     Edge 43, Type (0, 0), BuildingBlock: OJICUG_clean_linker_0, # of connection points: 2
#     Edge 44, Type (0, 0), BuildingBlock: OJICUG_clean_linker_0, # of connection points: 2
#     Edge 45, Type (0, 0), BuildingBlock: OJICUG_clean_linker_0, # of connection points: 2
#     Edge 46, Type (0, 0), BuildingBlock: OJICUG_clean_linker_0, # of connection points: 2
#     Edge 47, Type (0, 0), BuildingBlock: OJICUG_clean_linker_0, # of connection points: 2
# Relax obj value: 0.036
# Max RMSD: 0.062
# Mean RMSD: 0.062
data_MOF--net-uoy--node1-QUQFOY_clean_sbu_3--edge1-OJICUG_clean_linker_0
_symmetry_space_group_name_H-M    P1
_symmetry_Int_Tables_number       1
_symmetry_cell_setting            triclinic
loop_
_symmetry_equiv_pos_as_xyz
'x, y, z'
_cell_length_a     21.506041
_cell_length_b     21.480565
_cell_length_c     83.198613
_cell_angle_alpha  89.982693
_cell_angle_beta   90.01789
_cell_angle_gamma 89.941982
loop_
_atom_site_label
_atom_site_type_symbol
_atom_site_fract_x
_atom_site_fract_y
_atom_site_fract_z
_atom_type_partial_charge
C0 C 0.25942 0.19636 0.18986 0.0
O1 O 0.29303 0.23264 0.18153 0.0
Cd2 Cd 0.31363 0.21323 0.15374 0.0
O3 O 0.23341 0.14929 0.18351 0.0
Cd4 Cd 0.21841 0.09687 0.1579 0.0
C5 C 0.37275 0.06394 0.15663 0.0
O6 O 0.21521 0.18976 0.14205 0.0
O7 O 0.2205 0.10345 0.12875 0.0
O8 O 0.10899 0.09562 0.16421 0.0
C9 C 0.21534 0.16228 0.12859 0.0
O10 O 0.38098 0.12174 0.15394 0.0
C11 C 0.10183 0.03742 0.16256 0.0
O12 O 0.31841 0.04215 0.15912 0.0
O13 O 0.14995 0.00562 0.15908 0.0
C14 C 0.76694 0.75947 0.44005 0.0
O15 O 0.73065 0.79333 0.43176 0.0
Cd16 Cd 0.74985 0.81424 0.40398 0.0
O17 O 0.81379 0.73329 0.43364 0.0
Cd18 Cd 0.86555 0.71852 0.40792 0.0
C19 C 0.89896 0.87285 0.40686 0.0
O20 O 0.77259 0.71584 0.39207 0.0
O21 O 0.85879 0.72149 0.37878 0.0
O22 O 0.86713 0.60875 0.41407 0.0
C23 C 0.80005 0.71626 0.37861 0.0
O24 O 0.84125 0.88146 0.4042 0.0
C25 C 0.92527 0.60167 0.41237 0.0
O26 O 0.92054 0.81828 0.40926 0.0
O27 O 0.95684 0.64995 0.40892 0.0
C28 C 0.19803 0.26792 0.69044 0.0
O29 O 0.16431 0.23156 0.68216 0.0
Cd30 Cd 0.14302 0.25088 0.65441 0.0
O31 O 0.22382 0.31499 0.68404 0.0
Cd32 Cd 0.23782 0.36674 0.65826 0.0
C33 C 0.08354 0.39983 0.65725 0.0
O34 O 0.24128 0.27349 0.64248 0.0
O35 O 0.23498 0.35963 0.62912 0.0
O36 O 0.34734 0.36845 0.66448 0.0
C37 C 0.24089 0.30087 0.62901 0.0
O38 O 0.07524 0.34202 0.6546 0.0
C39 C 0.35438 0.42661 0.66267 0.0
O40 O 0.13795 0.4216 0.65964 0.0
O41 O 0.30616 0.45819 0.65915 0.0
C42 C 0.69013 0.69941 0.93961 0.0
O43 O 0.72696 0.6664 0.93126 0.0
Cd44 Cd 0.70899 0.64795 0.90336 0.0
O45 O 0.64312 0.7255 0.93322 0.0
Cd46 Cd 0.59101 0.7414 0.90751 0.0
C47 C 0.5596 0.5879 0.9058 0.0
O48 O 0.687 0.74849 0.89259 0.0
O49 O 0.60227 0.74375 0.8787 0.0
O50 O 0.5778 0.8438 0.91941 0.0
C51 C 0.66078 0.75008 0.87897 0.0
O52 O 0.61747 0.5805 0.9031 0.0
C53 C 0.52739 0.8556 0.91213 0.0
O54 O 0.53707 0.64179 0.90854 0.0
O55 O 0.5048 0.81324 0.90324 0.0
C56 C 0.26209 0.26745 0.00834 0.0
O57 O 0.29556 0.23114 0.01673 0.0
Cd58 Cd 0.3151 0.25012 0.04459 0.0
O59 O 0.23558 0.31433 0.01467 0.0
Cd60 Cd 0.21959 0.36624 0.04033 0.0
C61 C 0.37374 0.39948 0.04193 0.0
O62 O 0.21636 0.27325 0.05616 0.0
O63 O 0.2215 0.35953 0.06947 0.0
O64 O 0.11004 0.36718 0.0341 0.0
C65 C 0.21626 0.30072 0.06961 0.0
O66 O 0.38209 0.34166 0.0446 0.0
C67 C 0.10271 0.42543 0.03564 0.0
O68 O 0.31941 0.42123 0.03935 0.0
O69 O 0.15078 0.45741 0.03899 0.0
C70 C 0.69497 0.76015 0.25814 0.0
O71 O 0.73128 0.79386 0.26644 0.0
Cd72 Cd 0.7121 0.81477 0.29422 0.0
O73 O 0.64807 0.73409 0.26454 0.0
Cd74 Cd 0.59644 0.71945 0.29028 0.0
C75 C 0.56303 0.87379 0.29137 0.0
O76 O 0.68943 0.71638 0.30613 0.0
O77 O 0.60324 0.72239 0.31942 0.0
O78 O 0.59482 0.60974 0.28413 0.0
C79 C 0.66197 0.71685 0.31958 0.0
O80 O 0.62075 0.88223 0.29403 0.0
C81 C 0.53669 0.60277 0.28587 0.0
O82 O 0.54143 0.81929 0.28895 0.0
O83 O 0.50514 0.65111 0.28932 0.0
C84 C 0.2039 0.19542 0.50871 0.0
O85 O 0.17013 0.23175 0.51701 0.0
Cd86 Cd 0.14899 0.21275 0.54478 0.0
O87 O 0.23004 0.14845 0.51512 0.0
Cd88 Cd 0.24497 0.09639 0.54082 0.0
C89 C 0.09064 0.06324 0.54183 0.0
O90 O 0.24714 0.18937 0.55664 0.0
O91 O 0.24193 0.10316 0.56997 0.0
O92 O 0.35464 0.0951 0.53472 0.0
C93 C 0.24661 0.16202 0.57011 0.0
O94 O 0.08212 0.12104 0.54448 0.0
C95 C 0.36184 0.03689 0.53641 0.0
O96 O 0.14513 0.04153 0.53945 0.0
O97 O 0.31367 0.00514 0.53981 0.0
C98 C 0.76469 0.70052 0.75923 0.0
O99 O 0.72853 0.66721 0.76768 0.0
Cd100 Cd 0.74916 0.64763 0.79547 0.0
O101 O 0.81201 0.72641 0.76547 0.0
Cd102 Cd 0.86529 0.74181 0.79094 0.0
C103 C 0.89773 0.58754 0.79244 0.0
O104 O 0.77309 0.74671 0.80687 0.0
O105 O 0.85934 0.74127 0.82016 0.0
O106 O 0.86651 0.85068 0.78412 0.0
C107 C 0.80067 0.74734 0.82031 0.0
O108 O 0.84006 0.57957 0.79524 0.0
C109 C 0.92461 0.85799 0.7858 0.0
O110 O 0.91961 0.64178 0.78981 0.0
O111 O 0.95642 0.81009 0.7895 0.0
C112 C 0.756 0.69512 0.69055 0.0
O113 O 0.78957 0.73156 0.68225 0.0
Cd114 Cd 0.81079 0.71289 0.65446 0.0
O115 O 0.72997 0.64816 0.68415 0.0
Cd116 Cd 0.71523 0.59657 0.65839 0.0
C117 C 0.86958 0.56344 0.65733 0.0
O118 O 0.7128 0.6896 0.64255 0.0
O119 O 0.71848 0.60336 0.62925 0.0
O120 O 0.60555 0.5953 0.66443 0.0
C121 C 0.71356 0.66221 0.62909 0.0
O122 O 0.87794 0.62126 0.65469 0.0
C123 C 0.59847 0.53709 0.66274 0.0
O124 O 0.81516 0.5417 0.65973 0.0
O125 O 0.64672 0.50533 0.65936 0.0
C126 C 0.26912 0.26049 0.93962 0.0
O127 O 0.23212 0.29341 0.93128 0.0
Cd128 Cd 0.24984 0.31193 0.90337 0.0
O129 O 0.3161 0.23448 0.93321 0.0
Cd130 Cd 0.36793 0.21859 0.90748 0.0
C131 C 0.39917 0.37214 0.90578 0.0
O132 O 0.2719 0.21148 0.89257 0.0
O133 O 0.35658 0.21635 0.87867 0.0
O134 O 0.38132 0.11616 0.91937 0.0
C135 C 0.29807 0.21 0.87894 0.0
O136 O 0.34128 0.37952 0.9031 0.0
C137 C 0.43173 0.10443 0.91209 0.0
O138 O 0.42175 0.31825 0.9085 0.0
O139 O 0.45425 0.14689 0.90322 0.0
C140 C 0.70035 0.76774 0.18947 0.0
O141 O 0.66667 0.73158 0.18112 0.0
Cd142 Cd 0.64608 0.75134 0.15334 0.0
O143 O 0.72634 0.81488 0.18314 0.0
Cd144 Cd 0.74124 0.8677 0.15756 0.0
C145 C 0.58685 0.90052 0.15635 0.0
O146 O 0.74477 0.77473 0.14178 0.0
O147 O 0.73976 0.86079 0.12837 0.0
O148 O 0.85045 0.86919 0.1641 0.0
C149 C 0.745 0.80197 0.12829 0.0
O150 O 0.5786 0.84275 0.15363 0.0
C151 C 0.85764 0.92736 0.16236 0.0
O152 O 0.6412 0.92229 0.15882 0.0
O153 O 0.80961 0.95905 0.15873 0.0
C154 C 0.19577 0.20017 0.44004 0.0
O155 O 0.23173 0.16608 0.43173 0.0
Cd156 Cd 0.21207 0.14491 0.40399 0.0
O157 O 0.14874 0.22631 0.43369 0.0
Cd158 Cd 0.09625 0.24065 0.40802 0.0
C159 C 0.06299 0.08625 0.40695 0.0
O160 O 0.18916 0.24348 0.39221 0.0
O161 O 0.10307 0.23808 0.37887 0.0
O162 O 0.09444 0.35036 0.4142 0.0
C163 C 0.16181 0.2433 0.37874 0.0
O164 O 0.12068 0.07769 0.40426 0.0
C165 C 0.0363 0.35738 0.41247 0.0
O166 O 0.04141 0.1408 0.40938 0.0
O167 O 0.00481 0.30907 0.40902 0.0
C168 C 0.76268 0.76703 0.50873 0.0
O169 O 0.79664 0.73083 0.51701 0.0
Cd170 Cd 0.81793 0.75057 0.54474 0.0
O171 O 0.73679 0.81414 0.51511 0.0
Cd172 Cd 0.72284 0.86637 0.54082 0.0
C173 C 0.87707 0.89952 0.5418 0.0
O174 O 0.7196 0.77324 0.55666 0.0
O175 O 0.72566 0.85947 0.56997 0.0
O176 O 0.61327 0.86813 0.53462 0.0
C177 C 0.71987 0.80071 0.57012 0.0
O178 O 0.8855 0.84173 0.54448 0.0
C179 C 0.60614 0.9263 0.53639 0.0
O180 O 0.82261 0.92125 0.53941 0.0
O181 O 0.65434 0.95787 0.53988 0.0
C182 C 0.19259 0.26047 0.75913 0.0
O183 O 0.22906 0.2936 0.76753 0.0
Cd184 Cd 0.20901 0.31288 0.79537 0.0
O185 O 0.14546 0.23453 0.76543 0.0
Cd186 Cd 0.09295 0.21875 0.79098 0.0
C187 C 0.0604 0.37295 0.79247 0.0
O188 O 0.1854 0.21382 0.80684 0.0
O189 O 0.09925 0.21939 0.82017 0.0
O190 O 0.09181 0.10988 0.78415 0.0
C191 C 0.15792 0.21324 0.8203 0.0
O192 O 0.11811 0.38095 0.79522 0.0
C193 C 0.03373 0.10251 0.78585 0.0
O194 O 0.0385 0.31871 0.78988 0.0
O195 O 0.00191 0.15036 0.78959 0.0
C196 C 0.6988 0.69376 0.00834 0.0
O197 O 0.66562 0.73035 0.01672 0.0
Cd198 Cd 0.64655 0.71203 0.04462 0.0
O199 O 0.72536 0.64696 0.01471 0.0
Cd200 Cd 0.74187 0.59554 0.04042 0.0
C201 C 0.58759 0.56278 0.04207 0.0
O202 O 0.74561 0.68902 0.05606 0.0
O203 O 0.74088 0.60316 0.06956 0.0
O204 O 0.85094 0.5936 0.03366 0.0
C205 C 0.74604 0.66198 0.06957 0.0
O206 O 0.57932 0.62061 0.04472 0.0
C207 C 0.85826 0.53554 0.03564 0.0
O208 O 0.64189 0.54095 0.0395 0.0
O209 O 0.81037 0.50413 0.03948 0.0
C210 C 0.2665 0.20192 0.25853 0.0
O211 O 0.2304 0.16797 0.26682 0.0
Cd212 Cd 0.24997 0.14648 0.29456 0.0
O213 O 0.31354 0.22785 0.2649 0.0
Cd214 Cd 0.36601 0.24208 0.29054 0.0
C215 C 0.3991 0.08758 0.29151 0.0
O216 O 0.27318 0.24484 0.30637 0.0
O217 O 0.35929 0.23937 0.3197 0.0
O218 O 0.36764 0.35174 0.28434 0.0
C219 C 0.30053 0.24447 0.31984 0.0
O220 O 0.34141 0.07912 0.2942 0.0
C221 C 0.4258 0.35869 0.28603 0.0
O222 O 0.42071 0.1421 0.28912 0.0
O223 O 0.45736 0.31036 0.2895 0.0
C224 C 0.21433 0.29662 0.09951 0.0
C225 C 0.21467 0.26542 0.0847 0.0
H226 H 0.21411 0.28817 0.12508 0.0
C227 C 0.21417 0.20005 0.0844 0.0
H228 H 0.21456 0.347 0.10006 0.0
C229 C 0.21401 0.16638 0.0987 0.0
C230 C 0.21419 0.19758 0.11351 0.0
H231 H 0.21436 0.17483 0.07313 0.0
H232 H 0.214 0.116 0.09814 0.0
C233 C 0.21401 0.26294 0.1138 0.0
C234 C 0.79604 0.71486 0.34871 0.0
C235 C 0.76483 0.71513 0.36351 0.0
H236 H 0.7877 0.71502 0.32313 0.0
C237 C 0.69954 0.715 0.36379 0.0
H238 H 0.84637 0.71482 0.34817 0.0
C239 C 0.66596 0.71523 0.34948 0.0
C240 C 0.69718 0.71543 0.33468 0.0
H241 H 0.67431 0.71517 0.37506 0.0
H242 H 0.61564 0.71548 0.35003 0.0
C243 C 0.76247 0.71492 0.3344 0.0
C244 C 0.24622 0.16638 0.60001 0.0
C245 C 0.24643 0.19746 0.58518 0.0
H246 H 0.2444 0.17499 0.62557 0.0
C247 C 0.24566 0.26283 0.58484 0.0
H248 H 0.24691 0.116 0.6006 0.0
C249 C 0.24409 0.29659 0.59912 0.0
C250 C 0.24344 0.2655 0.61394 0.0
H251 H 0.24582 0.28797 0.57355 0.0
H252 H 0.24321 0.34697 0.59853 0.0
C253 C 0.24482 0.20015 0.61428 0.0
C254 C 0.70024 0.75313 0.83495 0.0
C255 C 0.76543 0.75052 0.83537 0.0
H256 H 0.616 0.75528 0.84849 0.0
C257 C 0.79625 0.75001 0.85024 0.0
H258 H 0.67529 0.75382 0.82364 0.0
C259 C 0.76222 0.75097 0.8645 0.0
C260 C 0.69697 0.75231 0.86405 0.0
H261 H 0.84653 0.74825 0.85088 0.0
H262 H 0.78699 0.74976 0.87583 0.0
C263 C 0.66629 0.75397 0.84917 0.0
C264 C 0.71589 0.70009 0.5849 0.0
C265 C 0.71719 0.76544 0.5852 0.0
H266 H 0.7137 0.61603 0.59863 0.0
C267 C 0.71629 0.79663 0.60001 0.0
H268 H 0.71649 0.67487 0.57363 0.0
C269 C 0.71454 0.76294 0.61431 0.0
C270 C 0.71386 0.69758 0.614 0.0
H271 H 0.7171 0.847 0.60057 0.0
H272 H 0.7142 0.78814 0.62558 0.0
C273 C 0.71432 0.66641 0.59919 0.0
C274 C 0.29243 0.20636 0.84914 0.0
C275 C 0.26182 0.20791 0.86402 0.0
H276 H 0.28333 0.20672 0.82361 0.0
C277 C 0.19657 0.20927 0.86448 0.0
H278 H 0.34272 0.20504 0.84845 0.0
C279 C 0.16249 0.21036 0.85023 0.0
C280 C 0.19324 0.20995 0.83535 0.0
H281 H 0.17186 0.21041 0.87582 0.0
H282 H 0.11221 0.21214 0.85087 0.0
C283 C 0.25843 0.20732 0.83493 0.0
C284 C 0.74745 0.76311 0.08416 0.0
C285 C 0.74744 0.69775 0.08458 0.0
H286 H 0.74665 0.84754 0.09775 0.0
C287 C 0.74785 0.66695 0.09945 0.0
H288 H 0.7472 0.78802 0.07284 0.0
C289 C 0.74762 0.701 0.11368 0.0
C290 C 0.74683 0.76635 0.11326 0.0
H291 H 0.74802 0.61658 0.10011 0.0
H292 H 0.74755 0.67606 0.125 0.0
C293 C 0.74707 0.79717 0.0984 0.0
C294 C 0.26246 0.24521 0.36401 0.0
C295 C 0.19717 0.24477 0.36367 0.0
H296 H 0.34652 0.24543 0.35032 0.0
C297 C 0.16612 0.24517 0.34884 0.0
H298 H 0.28757 0.24496 0.3753 0.0
C299 C 0.19987 0.24555 0.33457 0.0
C300 C 0.26516 0.24538 0.33491 0.0
H301 H 0.1158 0.24498 0.34825 0.0
H302 H 0.17476 0.24555 0.32328 0.0
C303 C 0.2962 0.24543 0.34973 0.0
C304 C 0.21338 0.16777 0.21633 0.0
C305 C 0.25408 0.20529 0.20734 0.0
H306 H 0.18489 0.13771 0.23967 0.0
C307 C 0.2933 0.2472 0.21535 0.0
H308 H 0.18198 0.13555 0.21047 0.0
C309 C 0.29501 0.24831 0.23208 0.0
C310 C 0.25732 0.20773 0.24107 0.0
H311 H 0.32481 0.27703 0.20873 0.0
H312 H 0.32766 0.27927 0.23794 0.0
C313 C 0.21488 0.16909 0.23306 0.0
C314 C 0.79612 0.71357 0.46651 0.0
C315 C 0.75837 0.75423 0.45754 0.0
H316 H 0.82669 0.68526 0.48983 0.0
C317 C 0.71662 0.79358 0.46558 0.0
H318 H 0.82824 0.68208 0.46063 0.0
C319 C 0.71587 0.79546 0.48231 0.0
C320 C 0.75665 0.7578 0.49128 0.0
H321 H 0.68662 0.82508 0.45899 0.0
H322 H 0.685 0.82819 0.48819 0.0
C323 C 0.79516 0.71523 0.48325 0.0
C324 C 0.16553 0.21609 0.71591 0.0
C325 C 0.20379 0.25891 0.70791 0.0
H326 H 0.13237 0.18274 0.73849 0.0
C327 C 0.24399 0.29696 0.71691 0.0
H328 H 0.13444 0.18582 0.7093 0.0
C329 C 0.24294 0.29514 0.73365 0.0
C330 C 0.20145 0.25547 0.74164 0.0
H331 H 0.27464 0.32992 0.71106 0.0
H332 H 0.27248 0.3269 0.74027 0.0
C333 C 0.16426 0.2145 0.73264 0.0
C334 C 0.66323 0.74371 -0.01713 0.0
C335 C 0.70309 0.70214 -0.00917 0.0
H336 H 0.62809 0.77561 0.96033 0.0
C337 C 0.74364 0.66464 -0.01823 0.0
H338 H 0.63175 0.77346 -0.01046 0.0
C339 C 0.74167 0.66591 0.96504 0.0
C340 C 0.6989 0.70449 0.9571 0.0
H341 H 0.77545 0.63261 -0.01242 0.0
H342 H 0.77177 0.63473 0.95839 0.0
C343 C 0.66103 0.74475 0.96614 0.0
C344 C 0.2971 0.21701 -0.0171 0.0
C345 C 0.25734 0.25864 -0.00915 0.0
H346 H 0.33177 0.18475 0.96036 0.0
C347 C 0.21642 0.2958 -0.0182 0.0
H348 H 0.32885 0.1875 -0.01044 0.0
C349 C 0.21795 0.29418 0.96507 0.0
C350 C 0.26066 0.2556 0.95712 0.0
H351 H 0.18465 0.32785 -0.01239 0.0
H352 H 0.1876 0.32514 0.95842 0.0
C353 C 0.29887 0.21562 0.96617 0.0
C354 C 0.6657 0.71465 0.23165 0.0
C355 C 0.70366 0.7549 0.24066 0.0
H356 H 0.63526 0.68667 0.2083 0.0
C357 C 0.74587 0.79382 0.23266 0.0
H358 H 0.6332 0.6835 0.2375 0.0
C359 C 0.74691 0.79568 0.21593 0.0
C360 C 0.70597 0.75844 0.20692 0.0
H361 H 0.77604 0.82498 0.23928 0.0
H362 H 0.77817 0.82807 0.21008 0.0
C363 C 0.66695 0.71629 0.21492 0.0
C364 C 0.24757 0.16722 0.46549 0.0
C365 C 0.20518 0.20604 0.45749 0.0
H366 H 0.28072 0.13377 0.48808 0.0
C367 C 0.16784 0.24699 0.46648 0.0
H368 H 0.27729 0.13554 0.45888 0.0
C369 C 0.16987 0.24612 0.48321 0.0
C370 C 0.20904 0.20407 0.49122 0.0
H371 H 0.13525 0.2781 0.46063 0.0
H372 H 0.13861 0.27627 0.48982 0.0
C373 C 0.24939 0.16614 0.48222 0.0
C374 C 0.71116 0.66543 0.7171 0.0
C375 C 0.75098 0.70371 0.70805 0.0
H376 H 0.68382 0.63477 0.74049 0.0
C377 C 0.78975 0.74616 0.71601 0.0
H378 H 0.68016 0.63273 0.71128 0.0
C379 C 0.7919 0.74718 0.73274 0.0
C380 C 0.75509 0.70599 0.74178 0.0
H381 H 0.82058 0.77658 0.70936 0.0
H382 H 0.82416 0.77868 0.73855 0.0
C383 C 0.71309 0.66668 0.73384 0.0
C384 C 0.03248 0.94419 0.16399 0.0
C385 C 0.03954 0.00908 0.16376 0.0
H386 H 0.9692 0.8675 0.16395 0.0
C387 C -0.01378 0.04708 0.16393 0.0
H388 H 0.07271 0.9138 0.16391 0.0
C389 C 0.92693 0.02066 0.16377 0.0
C390 C 0.91987 0.95575 0.16366 0.0
H391 H -0.00978 0.09734 0.16374 0.0
H392 H 0.8867 0.05104 0.16353 0.0
C393 C 0.97318 0.91777 0.16405 0.0
C394 C 0.94281 0.42659 0.41372 0.0
C395 C 0.00767 0.41967 0.41361 0.0
H396 H 0.86593 0.48978 0.41364 0.0
C397 C 0.04537 0.47315 0.41388 0.0
H398 H 0.91264 0.38624 0.41356 0.0
C399 C 0.01871 0.53245 0.41374 0.0
C400 C 0.95386 0.53937 0.41355 0.0
H401 H 0.0956 0.46928 0.41378 0.0
H402 H 0.04889 0.5728 0.4136 0.0
C403 C 0.91615 0.4859 0.4138 0.0
C404 C 0.46999 0.41723 0.66418 0.0
C405 C 0.41661 0.45512 0.66383 0.0
H406 H 0.56952 0.41342 0.66402 0.0
C407 C 0.42356 0.52004 0.6639 0.0
H408 H 0.46609 0.36696 0.66412 0.0
C409 C 0.48282 0.54656 0.66402 0.0
C410 C 0.5362 0.50866 0.66386 0.0
H411 H 0.38329 0.55035 0.66368 0.0
H412 H 0.48673 0.59683 0.66383 0.0
C413 C 0.52924 0.44375 0.66409 0.0
C414 C 0.47184 0.01171 0.89787 0.0
C415 C 0.45847 0.04176 0.91242 0.0
H416 H 0.50185 0.92743 0.88649 0.0
C417 C 0.46632 0.00979 0.92699 0.0
H418 H 0.46517 0.03545 0.8865 0.0
C419 C 0.48896 0.94873 0.927 0.0
C420 C 0.50095 0.91836 0.9124 0.0
H421 H 0.45566 0.03228 0.93832 0.0
H422 H 0.49632 0.92498 0.93833 0.0
C423 C 0.49192 0.94999 0.89785 0.0
C424 C -0.01293 0.41566 0.03471 0.0
C425 C 0.04031 0.45365 0.03442 0.0
H426 H 0.88759 0.41177 0.03543 0.0
C427 C 0.0331 0.51848 0.03367 0.0
H428 H -0.00881 0.36545 0.03532 0.0
C429 C 0.97374 0.5449 0.03355 0.0
C430 C 0.92052 0.507 0.03439 0.0
H431 H 0.07327 0.54884 0.03338 0.0
H432 H 0.96966 0.59515 0.03322 0.0
C433 C 0.92773 0.44211 0.03481 0.0
C434 C 0.54586 0.48699 0.2845 0.0
C435 C 0.50812 0.54052 0.28474 0.0
H436 H 0.54942 0.38734 0.28483 0.0
C437 C 0.44327 0.5337 0.28459 0.0
H438 H 0.59608 0.49079 0.28463 0.0
C439 C 0.41664 0.47445 0.28453 0.0
C440 C 0.45437 0.42092 0.28482 0.0
H441 H 0.41307 0.5741 0.28472 0.0
H442 H 0.36642 0.47065 0.28467 0.0
C443 C 0.51923 0.42773 0.28465 0.0
C444 C 0.49053 0.91697 0.53492 0.0
C445 C 0.54386 0.95484 0.53525 0.0
H446 H 0.39101 0.91321 0.53513 0.0
C447 C 0.53679 0.01976 0.53516 0.0
H448 H 0.49452 0.8667 0.535 0.0
C449 C 0.47748 0.04632 0.53506 0.0
C450 C 0.42416 0.00843 0.53525 0.0
H451 H 0.57701 0.05006 0.53536 0.0
H452 H 0.47349 0.09658 0.53524 0.0
C453 C 0.43123 0.94352 0.53503 0.0
C454 C 0.94082 0.03297 0.78427 0.0
C455 C 0.00561 0.04019 0.78448 0.0
H456 H 0.86443 0.96942 0.78429 0.0
C457 C 0.04374 -0.01305 0.78417 0.0
H458 H 0.91036 0.07316 0.78445 0.0
C459 C 0.01754 0.92753 0.78426 0.0
C460 C 0.95275 0.92031 0.78444 0.0
H461 H 0.09394 -0.0089 0.78433 0.0
H462 H 0.048 0.88734 0.78444 0.0
C463 C 0.91462 0.97356 0.78414 0.0
C464 C 0.47158 0.91775 0.1567 0.0
C465 C 0.53217 0.94245 0.15666 0.0
H466 H 0.37381 0.93653 0.15683 0.0
C467 C 0.53979 0.00737 0.15682 0.0
H468 H 0.46402 0.8679 0.15664 0.0
C469 C 0.488 0.04669 0.15682 0.0
C470 C 0.42741 0.02198 0.15682 0.0
H471 H 0.58577 0.02791 0.15678 0.0
H472 H 0.49556 0.09653 0.15685 0.0
C473 C 0.41979 0.95707 0.15685 0.0
C474 C 0.00587 0.91933 0.40725 0.0
C475 C 0.94106 0.92734 0.40715 0.0
H476 H 0.0951 0.96309 0.40718 0.0
C477 C 0.91662 -0.01186 0.4072 0.0
H478 H 0.02622 0.87318 0.4072 0.0
C479 C 0.95609 0.03976 0.4073 0.0
C480 C 0.0209 0.03176 0.4072 0.0
H481 H 0.86686 -0.004 0.40719 0.0
H482 H 0.93574 0.08591 0.40729 0.0
C483 C 0.04534 0.97096 0.4072 0.0
C484 C 0.96828 0.41716 0.65756 0.0
C485 C 0.0289 0.44181 0.65754 0.0
H486 H 0.87053 0.43602 0.65763 0.0
C487 C 0.03657 0.50671 0.65766 0.0
H488 H 0.96068 0.36732 0.65754 0.0
C489 C -0.01519 0.54608 0.65761 0.0
C490 C 0.9242 0.52143 0.65759 0.0
H491 H 0.08256 0.52722 0.65763 0.0
H492 H -0.00757 0.59592 0.65761 0.0
C493 C 0.91652 0.45652 0.65766 0.0
C494 C 0.41487 0.48762 0.90583 0.0
C495 C 0.4403 0.42726 0.90584 0.0
H496 H 0.43245 0.58565 0.90592 0.0
C497 C 0.50523 0.42024 0.9059 0.0
H498 H 0.36499 0.49468 0.90585 0.0
C499 C 0.54388 0.47243 0.90582 0.0
C500 C 0.51844 0.53279 0.90586 0.0
H501 H 0.5263 0.37441 0.90588 0.0
H502 H 0.59375 0.46537 0.90583 0.0
C503 C 0.45352 0.53982 0.90592 0.0
C504 C 0.47234 0.54563 0.04192 0.0
C505 C 0.53297 0.52089 0.0419 0.0
H506 H 0.37459 0.5269 0.04182 0.0
C507 C 0.54068 0.45597 0.04177 0.0
H508 H 0.46471 0.59548 0.04196 0.0
C509 C 0.48895 0.41669 0.0418 0.0
C510 C 0.42832 0.44143 0.04181 0.0
H511 H 0.58669 0.4354 0.04177 0.0
H512 H 0.49659 0.36684 0.04176 0.0
C513 C 0.4206 0.50634 0.04179 0.0
C514 C 0.41669 0.97224 0.29115 0.0
C515 C 0.44116 0.03298 0.29119 0.0
H516 H 0.43578 0.87442 0.29106 0.0
C517 C 0.50597 0.04083 0.29106 0.0
H518 H 0.36693 0.9645 0.29118 0.0
C519 C 0.54542 -0.01088 0.2911 0.0
C520 C 0.52096 0.92837 0.29112 0.0
H521 H 0.52634 0.08693 0.2911 0.0
H522 H 0.59518 -0.00314 0.2911 0.0
C523 C 0.45614 0.92052 0.29104 0.0
C524 C -0.00771 0.9169 0.54151 0.0
C525 C 0.93161 0.94152 0.54151 0.0
H526 H 0.09 0.93581 0.54149 0.0
C527 C 0.92378 0.00643 0.54139 0.0
H528 H 2e-05 0.86707 0.54154 0.0
C529 C 0.97545 0.04582 0.54147 0.0
C530 C 0.03612 0.0212 0.54153 0.0
H531 H 0.87774 0.02692 0.54141 0.0
H532 H 0.96771 0.09565 0.54147 0.0
C533 C 0.04396 0.95629 0.54144 0.0
C534 C 0.91464 0.47215 0.79225 0.0
C535 C 0.93947 0.53274 0.79223 0.0
H536 H 0.9332 0.37425 0.79223 0.0
C537 C 0.00432 0.54025 0.79212 0.0
H538 H 0.86484 0.4647 0.79227 0.0
C539 C 0.04348 0.48834 0.79221 0.0
C540 C 0.01866 0.42775 0.79225 0.0
H541 H 0.02493 0.58624 0.79212 0.0
H542 H 0.09329 0.4958 0.7922 0.0
C543 C 0.95381 0.42024 0.79218 0.0
loop_
_geom_bond_atom_site_label_1
_geom_bond_atom_site_label_2
_geom_bond_distance
_geom_bond_site_symmetry_2
_ccdc_geom_bond_type
C0 O1 1.306 . S
C0 O3 1.160 . S
O1 C0 1.306 . S
O1 Cd2 2.228 . S
Cd2 O1 2.228 . S
Cd2 O6 2.273 . S
Cd2 O10 2.277 . S
O3 C0 1.160 . S
O3 Cd4 2.203 . S
Cd4 O3 2.203 . S
Cd4 O6 2.411 . S
Cd4 O7 2.333 . S
Cd4 O8 2.352 . S
Cd4 O12 2.277 . S
Cd4 O13 2.356 . S
C5 O10 1.209 . S
C5 O12 1.226 . S
O6 Cd2 2.273 . S
O6 Cd4 2.411 . S
O6 C9 1.320 . S
O7 Cd4 2.333 . S
O7 C9 1.214 . S
O8 Cd4 2.352 . S
O8 C11 1.258 . S
C9 O6 1.320 . S
C9 O7 1.214 . S
O10 Cd2 2.277 . S
O10 C5 1.209 . S
C11 O8 1.258 . S
C11 O13 1.282 . S
O12 Cd4 2.277 . S
O12 C5 1.226 . S
O13 Cd4 2.356 . S
O13 C11 1.282 . S
C14 O15 1.306 . S
C14 O17 1.160 . S
O15 C14 1.306 . S
O15 Cd16 2.228 . S
Cd16 O15 2.228 . S
Cd16 O20 2.273 . S
Cd16 O24 2.277 . S
O17 C14 1.160 . S
O17 Cd18 2.203 . S
Cd18 O17 2.203 . S
Cd18 O20 2.411 . S
Cd18 O21 2.333 . S
Cd18 O22 2.352 . S
Cd18 O26 2.277 . S
Cd18 O27 2.356 . S
C19 O24 1.209 . S
C19 O26 1.226 . S
O20 Cd16 2.273 . S
O20 Cd18 2.411 . S
O20 C23 1.320 . S
O21 Cd18 2.333 . S
O21 C23 1.214 . S
O22 Cd18 2.352 . S
O22 C25 1.258 . S
C23 O20 1.320 . S
C23 O21 1.214 . S
O24 Cd16 2.277 . S
O24 C19 1.209 . S
C25 O22 1.258 . S
C25 O27 1.282 . S
O26 Cd18 2.277 . S
O26 C19 1.226 . S
O27 Cd18 2.356 . S
O27 C25 1.282 . S
C28 O29 1.306 . S
C28 O31 1.160 . S
O29 C28 1.306 . S
O29 Cd30 2.228 . S
Cd30 O29 2.228 . S
Cd30 O34 2.273 . S
Cd30 O38 2.277 . S
O31 C28 1.160 . S
O31 Cd32 2.203 . S
Cd32 O31 2.203 . S
Cd32 O34 2.411 . S
Cd32 O35 2.333 . S
Cd32 O36 2.352 . S
Cd32 O40 2.277 . S
Cd32 O41 2.356 . S
C33 O38 1.209 . S
C33 O40 1.226 . S
O34 Cd30 2.273 . S
O34 Cd32 2.411 . S
O34 C37 1.320 . S
O35 Cd32 2.333 . S
O35 C37 1.214 . S
O36 Cd32 2.352 . S
O36 C39 1.258 . S
C37 O34 1.320 . S
C37 O35 1.214 . S
O38 Cd30 2.277 . S
O38 C33 1.209 . S
C39 O36 1.258 . S
C39 O41 1.282 . S
O40 Cd32 2.277 . S
O40 C33 1.226 . S
O41 Cd32 2.356 . S
O41 C39 1.282 . S
C42 O43 1.306 . S
C42 O45 1.160 . S
O43 C42 1.306 . S
O43 Cd44 2.228 . S
Cd44 O43 2.228 . S
Cd44 O48 2.273 . S
Cd44 O52 2.277 . S
O45 C42 1.160 . S
O45 Cd46 2.203 . S
Cd46 O45 2.203 . S
Cd46 O48 2.411 . S
Cd46 O49 2.333 . S
Cd46 O50 2.352 . S
Cd46 O54 2.277 . S
Cd46 O55 2.356 . S
C47 O52 1.209 . S
C47 O54 1.226 . S
O48 Cd44 2.273 . S
O48 Cd46 2.411 . S
O48 C51 1.320 . S
O49 Cd46 2.333 . S
O49 C51 1.214 . S
O50 Cd46 2.352 . S
O50 C53 1.258 . S
C51 O48 1.320 . S
C51 O49 1.214 . S
O52 Cd44 2.277 . S
O52 C47 1.209 . S
C53 O50 1.258 . S
C53 O55 1.282 . S
O54 Cd46 2.277 . S
O54 C47 1.226 . S
O55 Cd46 2.356 . S
O55 C53 1.282 . S
C56 O57 1.306 . S
C56 O59 1.160 . S
O57 C56 1.306 . S
O57 Cd58 2.228 . S
Cd58 O57 2.228 . S
Cd58 O62 2.273 . S
Cd58 O66 2.277 . S
O59 C56 1.160 . S
O59 Cd60 2.203 . S
Cd60 O59 2.203 . S
Cd60 O62 2.411 . S
Cd60 O63 2.333 . S
Cd60 O64 2.352 . S
Cd60 O68 2.277 . S
Cd60 O69 2.356 . S
C61 O66 1.209 . S
C61 O68 1.226 . S
O62 Cd58 2.273 . S
O62 Cd60 2.411 . S
O62 C65 1.320 . S
O63 Cd60 2.333 . S
O63 C65 1.214 . S
O64 Cd60 2.352 . S
O64 C67 1.258 . S
C65 O62 1.320 . S
C65 O63 1.214 . S
O66 Cd58 2.277 . S
O66 C61 1.209 . S
C67 O64 1.258 . S
C67 O69 1.282 . S
O68 Cd60 2.277 . S
O68 C61 1.226 . S
O69 Cd60 2.356 . S
O69 C67 1.282 . S
C70 O71 1.306 . S
C70 O73 1.160 . S
O71 C70 1.306 . S
O71 Cd72 2.228 . S
Cd72 O71 2.228 . S
Cd72 O76 2.273 . S
Cd72 O80 2.277 . S
O73 C70 1.160 . S
O73 Cd74 2.203 . S
Cd74 O73 2.203 . S
Cd74 O76 2.411 . S
Cd74 O77 2.333 . S
Cd74 O78 2.352 . S
Cd74 O82 2.277 . S
Cd74 O83 2.356 . S
C75 O80 1.209 . S
C75 O82 1.226 . S
O76 Cd72 2.273 . S
O76 Cd74 2.411 . S
O76 C79 1.320 . S
O77 Cd74 2.333 . S
O77 C79 1.214 . S
O78 Cd74 2.352 . S
O78 C81 1.258 . S
C79 O76 1.320 . S
C79 O77 1.214 . S
O80 Cd72 2.277 . S
O80 C75 1.209 . S
C81 O78 1.258 . S
C81 O83 1.282 . S
O82 Cd74 2.277 . S
O82 C75 1.226 . S
O83 Cd74 2.356 . S
O83 C81 1.282 . S
C84 O85 1.306 . S
C84 O87 1.160 . S
O85 C84 1.306 . S
O85 Cd86 2.228 . S
Cd86 O85 2.228 . S
Cd86 O90 2.273 . S
Cd86 O94 2.277 . S
O87 C84 1.160 . S
O87 Cd88 2.203 . S
Cd88 O87 2.203 . S
Cd88 O90 2.411 . S
Cd88 O91 2.333 . S
Cd88 O92 2.352 . S
Cd88 O96 2.277 . S
Cd88 O97 2.356 . S
C89 O94 1.209 . S
C89 O96 1.226 . S
O90 Cd86 2.273 . S
O90 Cd88 2.411 . S
O90 C93 1.320 . S
O91 Cd88 2.333 . S
O91 C93 1.214 . S
O92 Cd88 2.352 . S
O92 C95 1.258 . S
C93 O90 1.320 . S
C93 O91 1.214 . S
O94 Cd86 2.277 . S
O94 C89 1.209 . S
C95 O92 1.258 . S
C95 O97 1.282 . S
O96 Cd88 2.277 . S
O96 C89 1.226 . S
O97 Cd88 2.356 . S
O97 C95 1.282 . S
C98 O99 1.306 . S
C98 O101 1.160 . S
O99 C98 1.306 . S
O99 Cd100 2.228 . S
Cd100 O99 2.228 . S
Cd100 O104 2.273 . S
Cd100 O108 2.277 . S
O101 C98 1.160 . S
O101 Cd102 2.203 . S
Cd102 O101 2.203 . S
Cd102 O104 2.411 . S
Cd102 O105 2.333 . S
Cd102 O106 2.352 . S
Cd102 O110 2.277 . S
Cd102 O111 2.356 . S
C103 O108 1.209 . S
C103 O110 1.226 . S
O104 Cd100 2.273 . S
O104 Cd102 2.411 . S
O104 C107 1.320 . S
O105 Cd102 2.333 . S
O105 C107 1.214 . S
O106 Cd102 2.352 . S
O106 C109 1.258 . S
C107 O104 1.320 . S
C107 O105 1.214 . S
O108 Cd100 2.277 . S
O108 C103 1.209 . S
C109 O106 1.258 . S
C109 O111 1.282 . S
O110 Cd102 2.277 . S
O110 C103 1.226 . S
O111 Cd102 2.356 . S
O111 C109 1.282 . S
C112 O113 1.306 . S
C112 O115 1.160 . S
O113 C112 1.306 . S
O113 Cd114 2.228 . S
Cd114 O113 2.228 . S
Cd114 O118 2.273 . S
Cd114 O122 2.277 . S
O115 C112 1.160 . S
O115 Cd116 2.203 . S
Cd116 O115 2.203 . S
Cd116 O118 2.411 . S
Cd116 O119 2.333 . S
Cd116 O120 2.352 . S
Cd116 O124 2.277 . S
Cd116 O125 2.356 . S
C117 O122 1.209 . S
C117 O124 1.226 . S
O118 Cd114 2.273 . S
O118 Cd116 2.411 . S
O118 C121 1.320 . S
O119 Cd116 2.333 . S
O119 C121 1.214 . S
O120 Cd116 2.352 . S
O120 C123 1.258 . S
C121 O118 1.320 . S
C121 O119 1.214 . S
O122 Cd114 2.277 . S
O122 C117 1.209 . S
C123 O120 1.258 . S
C123 O125 1.282 . S
O124 Cd116 2.277 . S
O124 C117 1.226 . S
O125 Cd116 2.356 . S
O125 C123 1.282 . S
C126 O127 1.306 . S
C126 O129 1.160 . S
O127 C126 1.306 . S
O127 Cd128 2.228 . S
Cd128 O127 2.228 . S
Cd128 O132 2.273 . S
Cd128 O136 2.277 . S
O129 C126 1.160 . S
O129 Cd130 2.203 . S
Cd130 O129 2.203 . S
Cd130 O132 2.411 . S
Cd130 O133 2.333 . S
Cd130 O134 2.352 . S
Cd130 O138 2.277 . S
Cd130 O139 2.356 . S
C131 O136 1.209 . S
C131 O138 1.226 . S
O132 Cd128 2.273 . S
O132 Cd130 2.411 . S
O132 C135 1.320 . S
O133 Cd130 2.333 . S
O133 C135 1.214 . S
O134 Cd130 2.352 . S
O134 C137 1.258 . S
C135 O132 1.320 . S
C135 O133 1.214 . S
O136 Cd128 2.277 . S
O136 C131 1.209 . S
C137 O134 1.258 . S
C137 O139 1.282 . S
O138 Cd130 2.277 . S
O138 C131 1.226 . S
O139 Cd130 2.356 . S
O139 C137 1.282 . S
C140 O141 1.306 . S
C140 O143 1.160 . S
O141 C140 1.306 . S
O141 Cd142 2.228 . S
Cd142 O141 2.228 . S
Cd142 O146 2.273 . S
Cd142 O150 2.277 . S
O143 C140 1.160 . S
O143 Cd144 2.203 . S
Cd144 O143 2.203 . S
Cd144 O146 2.411 . S
Cd144 O147 2.333 . S
Cd144 O148 2.352 . S
Cd144 O152 2.277 . S
Cd144 O153 2.356 . S
C145 O150 1.209 . S
C145 O152 1.226 . S
O146 Cd142 2.273 . S
O146 Cd144 2.411 . S
O146 C149 1.320 . S
O147 Cd144 2.333 . S
O147 C149 1.214 . S
O148 Cd144 2.352 . S
O148 C151 1.258 . S
C149 O146 1.320 . S
C149 O147 1.214 . S
O150 Cd142 2.277 . S
O150 C145 1.209 . S
C151 O148 1.258 . S
C151 O153 1.282 . S
O152 Cd144 2.277 . S
O152 C145 1.226 . S
O153 Cd144 2.356 . S
O153 C151 1.282 . S
C154 O155 1.306 . S
C154 O157 1.160 . S
O155 C154 1.306 . S
O155 Cd156 2.228 . S
Cd156 O155 2.228 . S
Cd156 O160 2.273 . S
Cd156 O164 2.277 . S
O157 C154 1.160 . S
O157 Cd158 2.203 . S
Cd158 O157 2.203 . S
Cd158 O160 2.411 . S
Cd158 O161 2.333 . S
Cd158 O162 2.352 . S
Cd158 O166 2.277 . S
Cd158 O167 2.356 . S
C159 O164 1.209 . S
C159 O166 1.226 . S
O160 Cd156 2.273 . S
O160 Cd158 2.411 . S
O160 C163 1.320 . S
O161 Cd158 2.333 . S
O161 C163 1.214 . S
O162 Cd158 2.352 . S
O162 C165 1.258 . S
C163 O160 1.320 . S
C163 O161 1.214 . S
O164 Cd156 2.277 . S
O164 C159 1.209 . S
C165 O162 1.258 . S
C165 O167 1.282 . S
O166 Cd158 2.277 . S
O166 C159 1.226 . S
O167 Cd158 2.356 . S
O167 C165 1.282 . S
C168 O169 1.306 . S
C168 O171 1.160 . S
O169 C168 1.306 . S
O169 Cd170 2.228 . S
Cd170 O169 2.228 . S
Cd170 O174 2.273 . S
Cd170 O178 2.277 . S
O171 C168 1.160 . S
O171 Cd172 2.203 . S
Cd172 O171 2.203 . S
Cd172 O174 2.411 . S
Cd172 O175 2.333 . S
Cd172 O176 2.352 . S
Cd172 O180 2.277 . S
Cd172 O181 2.356 . S
C173 O178 1.209 . S
C173 O180 1.226 . S
O174 Cd170 2.273 . S
O174 Cd172 2.411 . S
O174 C177 1.320 . S
O175 Cd172 2.333 . S
O175 C177 1.214 . S
O176 Cd172 2.352 . S
O176 C179 1.258 . S
C177 O174 1.320 . S
C177 O175 1.214 . S
O178 Cd170 2.277 . S
O178 C173 1.209 . S
C179 O176 1.258 . S
C179 O181 1.282 . S
O180 Cd172 2.277 . S
O180 C173 1.226 . S
O181 Cd172 2.356 . S
O181 C179 1.282 . S
C182 O183 1.306 . S
C182 O185 1.160 . S
O183 C182 1.306 . S
O183 Cd184 2.228 . S
Cd184 O183 2.228 . S
Cd184 O188 2.273 . S
Cd184 O192 2.277 . S
O185 C182 1.160 . S
O185 Cd186 2.203 . S
Cd186 O185 2.203 . S
Cd186 O188 2.411 . S
Cd186 O189 2.333 . S
Cd186 O190 2.352 . S
Cd186 O194 2.277 . S
Cd186 O195 2.356 . S
C187 O192 1.209 . S
C187 O194 1.226 . S
O188 Cd184 2.273 . S
O188 Cd186 2.411 . S
O188 C191 1.320 . S
O189 Cd186 2.333 . S
O189 C191 1.214 . S
O190 Cd186 2.352 . S
O190 C193 1.258 . S
C191 O188 1.320 . S
C191 O189 1.214 . S
O192 Cd184 2.277 . S
O192 C187 1.209 . S
C193 O190 1.258 . S
C193 O195 1.282 . S
O194 Cd186 2.277 . S
O194 C187 1.226 . S
O195 Cd186 2.356 . S
O195 C193 1.282 . S
C196 O197 1.306 . S
C196 O199 1.160 . S
O197 C196 1.306 . S
O197 Cd198 2.228 . S
Cd198 O197 2.228 . S
Cd198 O202 2.273 . S
Cd198 O206 2.277 . S
O199 C196 1.160 . S
O199 Cd200 2.203 . S
Cd200 O199 2.203 . S
Cd200 O202 2.411 . S
Cd200 O203 2.333 . S
Cd200 O204 2.352 . S
Cd200 O208 2.277 . S
Cd200 O209 2.356 . S
C201 O206 1.209 . S
C201 O208 1.226 . S
O202 Cd198 2.273 . S
O202 Cd200 2.411 . S
O202 C205 1.320 . S
O203 Cd200 2.333 . S
O203 C205 1.214 . S
O204 Cd200 2.352 . S
O204 C207 1.258 . S
C205 O202 1.320 . S
C205 O203 1.214 . S
O206 Cd198 2.277 . S
O206 C201 1.209 . S
C207 O204 1.258 . S
C207 O209 1.282 . S
O208 Cd200 2.277 . S
O208 C201 1.226 . S
O209 Cd200 2.356 . S
O209 C207 1.282 . S
C210 O211 1.306 . S
C210 O213 1.160 . S
O211 C210 1.306 . S
O211 Cd212 2.228 . S
Cd212 O211 2.228 . S
Cd212 O216 2.273 . S
Cd212 O220 2.277 . S
O213 C210 1.160 . S
O213 Cd214 2.203 . S
Cd214 O213 2.203 . S
Cd214 O216 2.411 . S
Cd214 O217 2.333 . S
Cd214 O218 2.352 . S
Cd214 O222 2.277 . S
Cd214 O223 2.356 . S
C215 O220 1.209 . S
C215 O222 1.226 . S
O216 Cd212 2.273 . S
O216 Cd214 2.411 . S
O216 C219 1.320 . S
O217 Cd214 2.333 . S
O217 C219 1.214 . S
O218 Cd214 2.352 . S
O218 C221 1.258 . S
C219 O216 1.320 . S
C219 O217 1.214 . S
O220 Cd212 2.277 . S
O220 C215 1.209 . S
C221 O218 1.258 . S
C221 O223 1.282 . S
O222 Cd214 2.277 . S
O222 C215 1.226 . S
O223 Cd214 2.356 . S
O223 C221 1.282 . S
C224 C225 1.387 . S
C224 H228 0.950 . S
C224 C233 1.390 . S
C225 C224 1.387 . S
C225 C227 1.387 . S
H226 C233 0.950 . S
C227 C225 1.387 . S
C227 C229 1.390 . S
C227 H231 0.950 . S
H228 C224 0.950 . S
C229 C227 1.390 . S
C229 C230 1.387 . S
C229 H232 0.950 . S
C230 C229 1.387 . S
C230 C233 1.387 . S
H231 C227 0.950 . S
H232 C229 0.950 . S
C233 C224 1.390 . S
C233 H226 0.950 . S
C233 C230 1.387 . S
C234 C235 1.387 . S
C234 H238 0.950 . S
C234 C243 1.390 . S
C235 C234 1.387 . S
C235 C237 1.387 . S
H236 C243 0.950 . S
C237 C235 1.387 . S
C237 C239 1.390 . S
C237 H241 0.950 . S
H238 C234 0.950 . S
C239 C237 1.390 . S
C239 C240 1.387 . S
C239 H242 0.950 . S
C240 C239 1.387 . S
C240 C243 1.387 . S
H241 C237 0.950 . S
H242 C239 0.950 . S
C243 C234 1.390 . S
C243 H236 0.950 . S
C243 C240 1.387 . S
C244 C245 1.387 . S
C244 H248 0.950 . S
C244 C253 1.390 . S
C245 C244 1.387 . S
C245 C247 1.387 . S
H246 C253 0.950 . S
C247 C245 1.387 . S
C247 C249 1.390 . S
C247 H251 0.950 . S
H248 C244 0.950 . S
C249 C247 1.390 . S
C249 C250 1.387 . S
C249 H252 0.950 . S
C250 C249 1.387 . S
C250 C253 1.387 . S
H251 C247 0.950 . S
H252 C249 0.950 . S
C253 C244 1.390 . S
C253 H246 0.950 . S
C253 C250 1.387 . S
C254 C255 1.387 . S
C254 H258 0.950 . S
C254 C263 1.390 . S
C255 C254 1.387 . S
C255 C257 1.387 . S
H256 C263 0.950 . S
C257 C255 1.387 . S
C257 C259 1.390 . S
C257 H261 0.950 . S
H258 C254 0.950 . S
C259 C257 1.390 . S
C259 C260 1.387 . S
C259 H262 0.950 . S
C260 C259 1.387 . S
C260 C263 1.387 . S
H261 C257 0.950 . S
H262 C259 0.950 . S
C263 C254 1.390 . S
C263 H256 0.950 . S
C263 C260 1.387 . S
C264 C265 1.387 . S
C264 H268 0.950 . S
C264 C273 1.390 . S
C265 C264 1.387 . S
C265 C267 1.387 . S
H266 C273 0.950 . S
C267 C265 1.387 . S
C267 C269 1.390 . S
C267 H271 0.950 . S
H268 C264 0.950 . S
C269 C267 1.390 . S
C269 C270 1.387 . S
C269 H272 0.950 . S
C270 C269 1.387 . S
C270 C273 1.387 . S
H271 C267 0.950 . S
H272 C269 0.950 . S
C273 C264 1.390 . S
C273 H266 0.950 . S
C273 C270 1.387 . S
C274 C275 1.387 . S
C274 H278 0.950 . S
C274 C283 1.390 . S
C275 C274 1.387 . S
C275 C277 1.387 . S
H276 C283 0.950 . S
C277 C275 1.387 . S
C277 C279 1.390 . S
C277 H281 0.950 . S
H278 C274 0.950 . S
C279 C277 1.390 . S
C279 C280 1.387 . S
C279 H282 0.950 . S
C280 C279 1.387 . S
C280 C283 1.387 . S
H281 C277 0.950 . S
H282 C279 0.950 . S
C283 C274 1.390 . S
C283 H276 0.950 . S
C283 C280 1.387 . S
C284 C285 1.387 . S
C284 H288 0.950 . S
C284 C293 1.390 . S
C285 C284 1.387 . S
C285 C287 1.387 . S
H286 C293 0.950 . S
C287 C285 1.387 . S
C287 C289 1.390 . S
C287 H291 0.950 . S
H288 C284 0.950 . S
C289 C287 1.390 . S
C289 C290 1.387 . S
C289 H292 0.950 . S
C290 C289 1.387 . S
C290 C293 1.387 . S
H291 C287 0.950 . S
H292 C289 0.950 . S
C293 C284 1.390 . S
C293 H286 0.950 . S
C293 C290 1.387 . S
C294 C295 1.387 . S
C294 H298 0.950 . S
C294 C303 1.390 . S
C295 C294 1.387 . S
C295 C297 1.387 . S
H296 C303 0.950 . S
C297 C295 1.387 . S
C297 C299 1.390 . S
C297 H301 0.950 . S
H298 C294 0.950 . S
C299 C297 1.390 . S
C299 C300 1.387 . S
C299 H302 0.950 . S
C300 C299 1.387 . S
C300 C303 1.387 . S
H301 C297 0.950 . S
H302 C299 0.950 . S
C303 C294 1.390 . S
C303 H296 0.950 . S
C303 C300 1.387 . S
C304 C305 1.387 . S
C304 H308 0.950 . S
C304 C313 1.390 . S
C305 C304 1.387 . S
C305 C307 1.387 . S
H306 C313 0.950 . S
C307 C305 1.387 . S
C307 C309 1.390 . S
C307 H311 0.950 . S
H308 C304 0.950 . S
C309 C307 1.390 . S
C309 C310 1.387 . S
C309 H312 0.950 . S
C310 C309 1.387 . S
C310 C313 1.387 . S
H311 C307 0.950 . S
H312 C309 0.950 . S
C313 C304 1.390 . S
C313 H306 0.950 . S
C313 C310 1.387 . S
C314 C315 1.387 . S
C314 H318 0.950 . S
C314 C323 1.390 . S
C315 C314 1.387 . S
C315 C317 1.387 . S
H316 C323 0.950 . S
C317 C315 1.387 . S
C317 C319 1.390 . S
C317 H321 0.950 . S
H318 C314 0.950 . S
C319 C317 1.390 . S
C319 C320 1.387 . S
C319 H322 0.950 . S
C320 C319 1.387 . S
C320 C323 1.387 . S
H321 C317 0.950 . S
H322 C319 0.950 . S
C323 C314 1.390 . S
C323 H316 0.950 . S
C323 C320 1.387 . S
C324 C325 1.387 . S
C324 H328 0.950 . S
C324 C333 1.390 . S
C325 C324 1.387 . S
C325 C327 1.387 . S
H326 C333 0.950 . S
C327 C325 1.387 . S
C327 C329 1.390 . S
C327 H331 0.950 . S
H328 C324 0.950 . S
C329 C327 1.390 . S
C329 C330 1.387 . S
C329 H332 0.950 . S
C330 C329 1.387 . S
C330 C333 1.387 . S
H331 C327 0.950 . S
H332 C329 0.950 . S
C333 C324 1.390 . S
C333 H326 0.950 . S
C333 C330 1.387 . S
C334 C335 1.387 . S
C334 H338 0.950 . S
C334 C343 1.390 1_554 S
C335 C334 1.387 . S
C335 C337 1.387 . S
H336 C343 0.950 . S
C337 C335 1.387 . S
C337 C339 1.390 1_554 S
C337 H341 0.950 . S
H338 C334 0.950 . S
C339 C337 1.390 1_556 S
C339 C340 1.387 . S
C339 H342 0.950 . S
C340 C339 1.387 . S
C340 C343 1.387 . S
H341 C337 0.950 . S
H342 C339 0.950 . S
C343 C334 1.390 1_556 S
C343 H336 0.950 . S
C343 C340 1.387 . S
C344 C345 1.387 . S
C344 H348 0.950 . S
C344 C353 1.390 1_554 S
C345 C344 1.387 . S
C345 C347 1.387 . S
H346 C353 0.950 . S
C347 C345 1.387 . S
C347 C349 1.390 1_554 S
C347 H351 0.950 . S
H348 C344 0.950 . S
C349 C347 1.390 1_556 S
C349 C350 1.387 . S
C349 H352 0.950 . S
C350 C349 1.387 . S
C350 C353 1.387 . S
H351 C347 0.950 . S
H352 C349 0.950 . S
C353 C344 1.390 1_556 S
C353 H346 0.950 . S
C353 C350 1.387 . S
C354 C355 1.387 . S
C354 H358 0.950 . S
C354 C363 1.390 . S
C355 C354 1.387 . S
C355 C357 1.387 . S
H356 C363 0.950 . S
C357 C355 1.387 . S
C357 C359 1.390 . S
C357 H361 0.950 . S
H358 C354 0.950 . S
C359 C357 1.390 . S
C359 C360 1.387 . S
C359 H362 0.950 . S
C360 C359 1.387 . S
C360 C363 1.387 . S
H361 C357 0.950 . S
H362 C359 0.950 . S
C363 C354 1.390 . S
C363 H356 0.950 . S
C363 C360 1.387 . S
C364 C365 1.387 . S
C364 H368 0.950 . S
C364 C373 1.390 . S
C365 C364 1.387 . S
C365 C367 1.387 . S
H366 C373 0.950 . S
C367 C365 1.387 . S
C367 C369 1.390 . S
C367 H371 0.950 . S
H368 C364 0.950 . S
C369 C367 1.390 . S
C369 C370 1.387 . S
C369 H372 0.950 . S
C370 C369 1.387 . S
C370 C373 1.387 . S
H371 C367 0.950 . S
H372 C369 0.950 . S
C373 C364 1.390 . S
C373 H366 0.950 . S
C373 C370 1.387 . S
C374 C375 1.387 . S
C374 H378 0.950 . S
C374 C383 1.390 . S
C375 C374 1.387 . S
C375 C377 1.387 . S
H376 C383 0.950 . S
C377 C375 1.387 . S
C377 C379 1.390 . S
C377 H381 0.950 . S
H378 C374 0.950 . S
C379 C377 1.390 . S
C379 C380 1.387 . S
C379 H382 0.950 . S
C380 C379 1.387 . S
C380 C383 1.387 . S
H381 C377 0.950 . S
H382 C379 0.950 . S
C383 C374 1.390 . S
C383 H376 0.950 . S
C383 C380 1.387 . S
C384 C385 1.387 . S
C384 H388 0.950 . S
C384 C393 1.390 1_445 S
C385 C384 1.387 . S
C385 C387 1.387 . S
H386 C393 0.950 . S
C387 C385 1.387 . S
C387 C389 1.390 1_445 S
C387 H391 0.950 . S
H388 C384 0.950 . S
C389 C387 1.390 1_665 S
C389 C390 1.387 . S
C389 H392 0.950 . S
C390 C389 1.387 . S
C390 C393 1.387 . S
H391 C387 0.950 . S
H392 C389 0.950 . S
C393 C384 1.390 1_665 S
C393 H386 0.950 . S
C393 C390 1.387 . S
C394 C395 1.387 . S
C394 H398 0.950 . S
C394 C403 1.390 1_455 S
C395 C394 1.387 . S
C395 C397 1.387 . S
H396 C403 0.950 . S
C397 C395 1.387 . S
C397 C399 1.390 1_455 S
C397 H401 0.950 . S
H398 C394 0.950 . S
C399 C397 1.390 1_655 S
C399 C400 1.387 . S
C399 H402 0.950 . S
C400 C399 1.387 . S
C400 C403 1.387 . S
H401 C397 0.950 . S
H402 C399 0.950 . S
C403 C394 1.390 1_655 S
C403 H396 0.950 . S
C403 C400 1.387 . S
C404 C405 1.387 . S
C404 H408 0.950 . S
C404 C413 1.390 . S
C405 C404 1.387 . S
C405 C407 1.387 . S
H406 C413 0.950 . S
C407 C405 1.387 . S
C407 C409 1.390 . S
C407 H411 0.950 . S
H408 C404 0.950 . S
C409 C407 1.390 . S
C409 C410 1.387 . S
C409 H412 0.950 . S
C410 C409 1.387 . S
C410 C413 1.387 . S
H411 C407 0.950 . S
H412 C409 0.950 . S
C413 C404 1.390 . S
C413 H406 0.950 . S
C413 C410 1.387 . S
C414 C415 1.387 . S
C414 H418 0.950 . S
C414 C423 1.390 1_545 S
C415 C414 1.387 . S
C415 C417 1.387 . S
H416 C423 0.950 . S
C417 C415 1.387 . S
C417 C419 1.390 1_545 S
C417 H421 0.950 . S
H418 C414 0.950 . S
C419 C417 1.390 1_565 S
C419 C420 1.387 . S
C419 H422 0.950 . S
C420 C419 1.387 . S
C420 C423 1.387 . S
H421 C417 0.950 . S
H422 C419 0.950 . S
C423 C414 1.390 1_565 S
C423 H416 0.950 . S
C423 C420 1.387 . S
C424 C425 1.387 . S
C424 H428 0.950 . S
C424 C433 1.390 1_455 S
C425 C424 1.387 . S
C425 C427 1.387 . S
H426 C433 0.950 . S
C427 C425 1.387 . S
C427 C429 1.390 1_455 S
C427 H431 0.950 . S
H428 C424 0.950 . S
C429 C427 1.390 1_655 S
C429 C430 1.387 . S
C429 H432 0.950 . S
C430 C429 1.387 . S
C430 C433 1.387 . S
H431 C427 0.950 . S
H432 C429 0.950 . S
C433 C424 1.390 1_655 S
C433 H426 0.950 . S
C433 C430 1.387 . S
C434 C435 1.387 . S
C434 H438 0.950 . S
C434 C443 1.390 . S
C435 C434 1.387 . S
C435 C437 1.387 . S
H436 C443 0.950 . S
C437 C435 1.387 . S
C437 C439 1.390 . S
C437 H441 0.950 . S
H438 C434 0.950 . S
C439 C437 1.390 . S
C439 C440 1.387 . S
C439 H442 0.950 . S
C440 C439 1.387 . S
C440 C443 1.387 . S
H441 C437 0.950 . S
H442 C439 0.950 . S
C443 C434 1.390 . S
C443 H436 0.950 . S
C443 C440 1.387 . S
C444 C445 1.387 . S
C444 H448 0.950 . S
C444 C453 1.390 1_565 S
C445 C444 1.387 . S
C445 C447 1.387 . S
H446 C453 0.950 . S
C447 C445 1.387 . S
C447 C449 1.390 1_565 S
C447 H451 0.950 . S
H448 C444 0.950 . S
C449 C447 1.390 1_545 S
C449 C450 1.387 . S
C449 H452 0.950 . S
C450 C449 1.387 . S
C450 C453 1.387 . S
H451 C447 0.950 . S
H452 C449 0.950 . S
C453 C444 1.390 1_545 S
C453 H446 0.950 . S
C453 C450 1.387 . S
C454 C455 1.387 . S
C454 H458 0.950 . S
C454 C463 1.390 1_445 S
C455 C454 1.387 . S
C455 C457 1.387 . S
H456 C463 0.950 . S
C457 C455 1.387 . S
C457 C459 1.390 1_445 S
C457 H461 0.950 . S
H458 C454 0.950 . S
C459 C457 1.390 1_665 S
C459 C460 1.387 . S
C459 H462 0.950 . S
C460 C459 1.387 . S
C460 C463 1.387 . S
H461 C457 0.950 . S
H462 C459 0.950 . S
C463 C454 1.390 1_665 S
C463 H456 0.950 . S
C463 C460 1.387 . S
C464 C465 1.387 . S
C464 H468 0.950 . S
C464 C473 1.390 1_565 S
C465 C464 1.387 . S
C465 C467 1.387 . S
H466 C473 0.950 . S
C467 C465 1.387 . S
C467 C469 1.390 1_565 S
C467 H471 0.950 . S
H468 C464 0.950 . S
C469 C467 1.390 1_545 S
C469 C470 1.387 . S
C469 H472 0.950 . S
C470 C469 1.387 . S
C470 C473 1.387 . S
H471 C467 0.950 . S
H472 C469 0.950 . S
C473 C464 1.390 1_545 S
C473 H466 0.950 . S
C473 C470 1.387 . S
C474 C475 1.387 . S
C474 H478 0.950 . S
C474 C483 1.390 1_665 S
C475 C474 1.387 . S
C475 C477 1.387 . S
H476 C483 0.950 . S
C477 C475 1.387 . S
C477 C479 1.390 1_665 S
C477 H481 0.950 . S
H478 C474 0.950 . S
C479 C477 1.390 1_445 S
C479 C480 1.387 . S
C479 H482 0.950 . S
C480 C479 1.387 . S
C480 C483 1.387 . S
H481 C477 0.950 . S
H482 C479 0.950 . S
C483 C474 1.390 1_445 S
C483 H476 0.950 . S
C483 C480 1.387 . S
C484 C485 1.387 . S
C484 H488 0.950 . S
C484 C493 1.390 1_455 S
C485 C484 1.387 . S
C485 C487 1.387 . S
H486 C493 0.950 . S
C487 C485 1.387 . S
C487 C489 1.390 1_455 S
C487 H491 0.950 . S
H488 C484 0.950 . S
C489 C487 1.390 1_655 S
C489 C490 1.387 . S
C489 H492 0.950 . S
C490 C489 1.387 . S
C490 C493 1.387 . S
H491 C487 0.950 . S
H492 C489 0.950 . S
C493 C484 1.390 1_655 S
C493 H486 0.950 . S
C493 C490 1.387 . S
C494 C495 1.387 . S
C494 H498 0.950 . S
C494 C503 1.390 . S
C495 C494 1.387 . S
C495 C497 1.387 . S
H496 C503 0.950 . S
C497 C495 1.387 . S
C497 C499 1.390 . S
C497 H501 0.950 . S
H498 C494 0.950 . S
C499 C497 1.390 . S
C499 C500 1.387 . S
C499 H502 0.950 . S
C500 C499 1.387 . S
C500 C503 1.387 . S
H501 C497 0.950 . S
H502 C499 0.950 . S
C503 C494 1.390 . S
C503 H496 0.950 . S
C503 C500 1.387 . S
C504 C505 1.387 . S
C504 H508 0.950 . S
C504 C513 1.390 . S
C505 C504 1.387 . S
C505 C507 1.387 . S
H506 C513 0.950 . S
C507 C505 1.387 . S
C507 C509 1.390 . S
C507 H511 0.950 . S
H508 C504 0.950 . S
C509 C507 1.390 . S
C509 C510 1.387 . S
C509 H512 0.950 . S
C510 C509 1.387 . S
C510 C513 1.387 . S
H511 C507 0.950 . S
H512 C509 0.950 . S
C513 C504 1.390 . S
C513 H506 0.950 . S
C513 C510 1.387 . S
C514 C515 1.387 . S
C514 H518 0.950 . S
C514 C523 1.390 1_545 S
C515 C514 1.387 . S
C515 C517 1.387 . S
H516 C523 0.950 . S
C517 C515 1.387 . S
C517 C519 1.390 1_545 S
C517 H521 0.950 . S
H518 C514 0.950 . S
C519 C517 1.390 1_565 S
C519 C520 1.387 . S
C519 H522 0.950 . S
C520 C519 1.387 . S
C520 C523 1.387 . S
H521 C517 0.950 . S
H522 C519 0.950 . S
C523 C514 1.390 1_565 S
C523 H516 0.950 . S
C523 C520 1.387 . S
C524 C525 1.387 . S
C524 H528 0.950 . S
C524 C533 1.390 1_665 S
C525 C524 1.387 . S
C525 C527 1.387 . S
H526 C533 0.950 . S
C527 C525 1.387 . S
C527 C529 1.390 1_665 S
C527 H531 0.950 . S
H528 C524 0.950 . S
C529 C527 1.390 1_445 S
C529 C530 1.387 . S
C529 H532 0.950 . S
C530 C529 1.387 . S
C530 C533 1.387 . S
H531 C527 0.950 . S
H532 C529 0.950 . S
C533 C524 1.390 1_445 S
C533 H526 0.950 . S
C533 C530 1.387 . S
C534 C535 1.387 . S
C534 H538 0.950 . S
C534 C543 1.390 1_655 S
C535 C534 1.387 . S
C535 C537 1.387 . S
H536 C543 0.950 . S
C537 C535 1.387 . S
C537 C539 1.390 1_655 S
C537 H541 0.950 . S
H538 C534 0.950 . S
C539 C537 1.390 1_455 S
C539 C540 1.387 . S
C539 H542 0.950 . S
C540 C539 1.387 . S
C540 C543 1.387 . S
H541 C537 0.950 . S
H542 C539 0.950 . S
C543 C534 1.390 1_455 S
C543 H536 0.950 . S
C543 C540 1.387 . S
C225 C65 1.389 . S
C230 C9 1.389 . S
C235 C23 1.388 . S
C240 C79 1.388 . S
C245 C93 1.388 . S
C250 C37 1.388 . S
C255 C107 1.389 . S
C260 C51 1.389 . S
C265 C177 1.388 . S
C270 C121 1.388 . S
C275 C135 1.389 . S
C280 C191 1.389 . S
C285 C205 1.388 . S
C290 C149 1.388 . S
C295 C163 1.389 . S
C300 C219 1.389 . S
C305 C0 1.437 . S
C310 C210 1.436 . S
C315 C14 1.437 . S
C320 C168 1.436 . S
C325 C28 1.436 . S
C330 C182 1.437 . S
C335 C196 1.437 . S
C340 C42 1.438 . S
C345 C56 1.437 . S
C350 C126 1.438 . S
C355 C70 1.438 . S
C360 C140 1.436 . S
C365 C154 1.436 . S
C370 C84 1.437 . S
C375 C112 1.438 . S
C380 C98 1.437 . S
C385 C11 1.566 . S
C390 C151 1.566 . S
C395 C165 1.568 . S
C400 C25 1.568 . S
C405 C39 1.566 . S
C410 C123 1.566 . S
C415 C137 1.568 . S
C420 C53 1.568 . S
C425 C67 1.568 . S
C430 C207 1.568 . S
C435 C81 1.568 . S
C440 C221 1.568 . S
C445 C179 1.566 . S
C450 C95 1.566 . S
C455 C193 1.566 . S
C460 C109 1.566 . S
C465 C145 1.437 . S
C470 C5 1.437 . S
C475 C19 1.437 . S
C480 C159 1.437 . S
C485 C33 1.437 . S
C490 C117 1.437 . S
C495 C131 1.437 . S
C500 C47 1.437 . S
C505 C201 1.437 . S
C510 C61 1.437 . S
C515 C215 1.437 . S
C520 C75 1.437 . S
C525 C173 1.437 . S
C530 C89 1.437 . S
C535 C103 1.437 . S
C540 C187 1.437 . S
