# Generated by pormake.
# Topology kag, (6)-cn, num edge types: 1
# Building blocks:
#     Node 0, Type 0, BuildingBlock: LEVNOQ01_clean_sbu_1, # of connection points: 6
#     Node 1, Type 0, BuildingBlock: LEVNOQ01_clean_sbu_1, # of connection points: 6
#     Node 2, Type 0, BuildingBlock: LEVNOQ01_clean_sbu_1, # of connection points: 6
#     Edge 3, Type (0, 0), BuildingBlock: ZUJKAS_clean_linker_0, # of connection points: 2
#     Edge 4, Type (0, 0), BuildingBlock: ZUJKAS_clean_linker_0, # of connection points: 2
#     Edge 5, Type (0, 0), BuildingBlock: ZUJKAS_clean_linker_0, # of connection points: 2
#     Edge 6, Type (0, 0), BuildingBlock: ZUJKAS_clean_linker_0, # of connection points: 2
#     Edge 7, Type (0, 0), BuildingBlock: ZUJKAS_clean_linker_0, # of connection points: 2
#     Edge 8, Type (0, 0), BuildingBlock: ZUJKAS_clean_linker_0, # of connection points: 2
#     Edge 9, Type (0, 0), BuildingBlock: ZUJKAS_clean_linker_0, # of connection points: 2
#     Edge 10, Type (0, 0), BuildingBlock: ZUJKAS_clean_linker_0, # of connection points: 2
#     Edge 11, Type (0, 0), BuildingBlock: ZUJKAS_clean_linker_0, # of connection points: 2
# Relax obj value: 0.108
# Max RMSD: 0.157
# Mean RMSD: 0.150
data_MOF--net-kag--node1-LEVNOQ01_clean_sbu_1--edge1-ZUJKAS_clean_linker_0
_symmetry_space_group_name_H-M    P1
_symmetry_Int_Tables_number       1
_symmetry_cell_setting            triclinic
loop_
_symmetry_equiv_pos_as_xyz
'x, y, z'
_cell_length_a     39.468443
_cell_length_b     39.238292
_cell_length_c     20.172946
_cell_angle_alpha  90.337355
_cell_angle_beta   100.80801
_cell_angle_gamma 119.84276
loop_
_atom_site_label
_atom_site_type_symbol
_atom_site_fract_x
_atom_site_fract_y
_atom_site_fract_z
_atom_type_partial_charge
O0 O 0.95598 0.39768 0.94621 0.0
Mg1 Mg 0.95212 0.44774 0.92665 0.0
O2 O 0.98141 0.43724 0.04041 0.0
Mg3 Mg 0.01908 0.50058 2e-05 0.0
O4 O -0.00503 0.48742 0.88033 0.0
O5 O 0.93126 0.44481 0.82676 0.0
O6 O 0.05805 0.56337 0.9607 0.0
O7 O 0.06414 0.48097 0.98648 0.0
Mg8 Mg 0.08888 0.55575 0.07963 0.0
O9 O 0.0432 0.51432 0.11841 0.0
O10 O 0.08308 0.60424 0.05329 0.0
O11 O 0.12011 0.53663 0.02874 0.0
O12 O 0.10445 0.55718 0.18108 0.0
C13 C 0.93672 0.49921 0.00657 0.0
C14 C 0.96488 0.40225 0.01004 0.0
C15 C 0.96722 0.47168 0.82474 0.0
C16 C 0.07499 0.59874 0.98947 0.0
C17 C 0.1022 0.50184 -0.00157 0.0
C18 C 0.06798 0.52932 0.17719 0.0
O19 O 0.9195 0.46392 0.97921 0.0
O20 O 0.9745 0.521 0.01461 0.0
O21 O 0.58643 0.96614 0.03823 0.0
Mg22 Mg 0.53417 0.95535 0.96703 0.0
O23 O 0.5383 0.95853 0.08381 0.0
Mg24 Mg 0.52497 0.00353 0.01757 0.0
O25 O 0.53585 -0.00454 0.90367 0.0
O26 O 0.54271 0.94372 0.87701 0.0
O27 O 0.50879 0.04857 0.96193 0.0
O28 O 0.59313 0.05186 0.05006 0.0
Mg29 Mg 0.53782 0.07219 0.12 0.0
O30 O 0.51089 0.0127 0.12076 0.0
O31 O 0.5071 0.08697 0.04088 0.0
O32 O 0.59989 0.09561 0.12939 0.0
O33 O 0.5128 0.0529 0.20198 0.0
C34 C 0.4484 0.91924 0.97579 0.0
C35 C 0.56811 0.95387 0.08541 0.0
C36 C 0.54069 0.97433 0.86002 0.0
C37 C 0.50123 0.07514 0.97913 0.0
C38 C 0.61512 0.08268 0.09331 0.0
C39 C 0.50299 0.01778 0.17851 0.0
O40 O 0.47468 0.90981 0.97366 0.0
O41 O 0.45909 0.95556 0.98561 0.0
O42 O 0.41523 0.45443 0.9321 0.0
Mg43 Mg 0.4632 0.51204 0.93528 0.0
O44 O 0.45343 0.4728 0.03327 0.0
Mg45 Mg 0.51851 0.50256 0.00578 0.0
O46 O 0.50656 0.51505 0.89054 0.0
O47 O 0.46035 0.53036 0.8426 0.0
O48 O 0.58402 0.53205 0.97985 0.0
O49 O 0.50227 0.44001 0.96268 0.0
Mg50 Mg 0.57465 0.49315 0.07897 0.0
O51 O 0.53 0.48981 0.12003 0.0
O52 O 0.62149 0.55135 0.08174 0.0
O53 O 0.56202 0.44821 0.00202 0.0
O54 O 0.57507 0.47394 0.1716 0.0
C55 C 0.51098 0.57807 0.04656 0.0
C56 C 0.41881 0.45147 -0.00534 0.0
C57 C 0.4897 0.52513 0.83863 0.0
C58 C 0.6185 0.55355 0.01898 0.0
C59 C 0.52734 0.42846 0.96412 0.0
C60 C 0.54552 0.47934 0.17302 0.0
O61 O 0.47617 0.55849 0.00904 0.0
O62 O 0.53511 0.56525 0.04906 0.0
H63 H 0.9146 0.45474 0.7039 0.0
H64 H 0.92964 0.46406 0.59117 0.0
H65 H 0.05595 0.52265 0.68133 0.0
H66 H 0.04127 0.51346 0.79489 0.0
H67 H 0.98311 0.53542 0.53164 0.0
H68 H 0.02672 0.42052 0.55594 0.0
H69 H -0.00213 0.42635 0.61004 0.0
H70 H 0.05081 0.46017 0.62432 0.0
C71 C 0.94564 0.47003 0.69992 0.0
C72 C 0.97679 0.48271 0.75811 0.0
C73 C 0.95411 0.47544 0.6355 0.0
C74 C -0.00623 0.49336 0.62827 0.0
C75 C 0.0251 0.50826 0.68627 0.0
H76 H 0.11457 0.54405 0.30369 0.0
H77 H 0.09265 0.52947 0.41057 0.0
C78 C 0.01668 0.50309 0.75094 0.0
C79 C 0.00206 0.49373 0.55996 0.0
H80 H 0.03594 0.45368 0.45722 0.0
C81 C -0.00553 0.51746 0.51506 0.0
C82 C 0.01634 0.46978 0.53869 0.0
C83 C 0.02317 0.44245 0.58439 0.0
C84 C 0.00221 0.51893 0.44976 0.0
C85 C 0.01729 0.4956 0.42901 0.0
C86 C 0.02416 0.47131 0.47348 0.0
C87 C 0.02951 0.49902 0.36357 0.0
C88 C -0.00448 0.54633 0.40407 0.0
C89 C 0.00105 0.48536 0.30183 0.0
C90 C 0.01346 0.49354 0.2404 0.0
C91 C 0.05446 0.51576 0.24032 0.0
C92 C 0.08276 0.52738 0.30218 0.0
C93 C 0.07034 0.51894 0.36327 0.0
H94 H 0.98898 0.56636 0.4312 0.0
H95 H 0.02227 0.56456 0.38275 0.0
H96 H 0.96983 0.52854 0.36087 0.0
H97 H 0.96935 0.46955 0.30137 0.0
H98 H -0.00899 0.48396 0.19342 0.0
H99 H 0.44304 -0.00057 0.24295 0.0
H100 H 0.44168 0.97561 0.35431 0.0
H101 H 0.52942 0.94433 0.33029 0.0
H102 H 0.53092 0.96842 0.21841 0.0
H103 H 0.44031 0.91271 0.43359 0.0
H104 H 0.58995 0.04908 0.46383 0.0
H105 H 0.55152 0.03381 0.38732 0.0
H106 H 0.57966 0.00909 0.40429 0.0
C107 C 0.46028 0.98531 0.2597 0.0
C108 C 0.48758 0.98632 0.22285 0.0
C109 C 0.45957 0.9718 0.32355 0.0
C110 C 0.4864 0.95944 0.35141 0.0
C111 C 0.50891 0.95436 0.30996 0.0
H112 H 0.57953 0.95998 0.7763 0.0
H113 H 0.56706 0.95752 0.65252 0.0
C114 C 0.50946 0.96775 0.24566 0.0
C115 C 0.49759 0.96182 0.42647 0.0
H116 H 0.57167 0.02128 0.56311 0.0
C117 C 0.46914 0.93615 0.46195 0.0
C118 C 0.53494 0.9931 0.46342 0.0
C119 C 0.56576 0.02312 0.4281 0.0
C120 C 0.47732 0.94078 0.53347 0.0
C121 C 0.51456 0.97214 0.57006 0.0
C122 C 0.54309 -0.00255 0.53471 0.0
C123 C 0.52502 0.97809 0.64534 0.0
C124 C 0.44632 0.91214 0.56983 0.0
C125 C 0.5069 0.99231 0.68246 0.0
C126 C 0.51455 0.99447 0.75362 0.0
C127 C 0.54001 0.98192 0.78823 0.0
C128 C 0.55973 0.96981 0.75093 0.0
C129 C 0.5525 0.96818 0.68023 0.0
H130 H 0.42119 0.88646 0.53472 0.0
H131 H 0.46022 0.90111 0.61051 0.0
H132 H 0.43399 0.92763 0.59436 0.0
H133 H 0.48591 0.00053 0.65625 0.0
H134 H 0.49867 0.00352 0.78102 0.0
H135 H 0.54035 0.50342 0.80172 0.0
H136 H 0.55031 0.49743 0.68687 0.0
H137 H 0.47516 0.5456 0.61172 0.0
H138 H 0.46492 0.55162 0.72574 0.0
H139 H 0.45156 0.47043 0.54378 0.0
H140 H 0.61245 0.58035 0.56274 0.0
H141 H 0.60194 0.54823 0.62864 0.0
H142 H 0.5847 0.58293 0.62243 0.0
C143 C 0.52664 0.51351 0.76102 0.0
C144 C 0.50147 0.52753 0.77268 0.0
C145 C 0.53242 0.51014 0.6955 0.0
C146 C 0.51338 0.52102 0.64098 0.0
C147 C 0.48996 0.53692 0.65317 0.0
H148 H 0.49401 0.50151 0.20415 0.0
H149 H 0.48145 0.50772 0.31681 0.0
C150 C 0.48419 0.54032 0.71843 0.0
C151 C 0.51487 0.5126 0.5704 0.0
H152 H 0.57813 0.53515 0.46247 0.0
C153 C 0.47916 0.4847 0.52573 0.0
C154 C 0.55091 0.53133 0.54733 0.0
C155 C 0.58969 0.56265 0.59246 0.0
C156 C 0.47874 0.47439 0.45872 0.0
C157 C 0.51488 0.49279 0.43595 0.0
C158 C 0.5505 0.52095 0.48043 0.0
C159 C 0.51689 0.48337 0.36627 0.0
C160 C 0.43995 0.44328 0.41329 0.0
C161 C 0.5402 0.46684 0.35675 0.0
C162 C 0.54754 0.4634 0.2928 0.0
C163 C 0.53191 0.47673 0.23723 0.0
C164 C 0.50655 0.49109 0.246 0.0
C165 C 0.49924 0.49455 0.31024 0.0
H166 H 0.41645 0.4267 0.44234 0.0
H167 H 0.42889 0.45771 0.37506 0.0
H168 H 0.44467 0.422 0.38557 0.0
H169 H 0.55394 0.45794 0.39943 0.0
H170 H 0.56683 0.45178 0.28765 0.0
H171 H 0.17886 0.54075 0.98184 0.0
H172 H 0.22301 0.51379 0.98328 0.0
H173 H 0.12547 0.3971 0.99331 0.0
H174 H 0.08069 0.42382 0.991 0.0
H175 H 0.20437 0.43143 0.10193 0.0
H176 H 0.22003 0.43431 0.83368 0.0
H177 H 0.22289 0.47758 0.87141 0.0
H178 H 0.17684 0.43097 0.85838 0.0
C179 C 0.16655 0.50921 0.98286 0.0
C180 C 0.12636 0.48436 0.98628 0.0
C181 C 0.1918 0.4939 0.9838 0.0
C182 C 0.1774 0.45357 0.98863 0.0
C183 C 0.13697 0.42832 0.98953 0.0
H184 H 0.34824 0.38451 0.94304 0.0
H185 H 0.28272 0.37265 0.95378 0.0
C186 C 0.11144 0.44356 0.98762 0.0
C187 C 0.20565 0.43886 -0.00345 0.0
H188 H 0.26973 0.43059 0.91517 0.0
C189 C 0.21821 0.43035 0.06091 0.0
C190 C 0.22331 0.43738 0.94285 0.0
C191 C 0.20996 0.44523 0.87243 0.0
C192 C 0.24972 0.42241 0.07382 0.0
C193 C 0.2691 0.42331 0.02101 0.0
C194 C 0.25489 0.42977 0.95578 0.0
C195 C 0.30641 0.4215 0.03226 0.0
C196 C 0.26241 0.41398 0.14405 0.0
C197 C 0.34138 0.45106 0.07641 0.0
C198 C 0.37893 0.45736 0.07125 0.0
C199 C 0.38188 0.43472 0.02084 0.0
C200 C 0.34672 0.40233 0.98235 0.0
C201 C 0.30927 0.39567 0.98821 0.0
H202 H 0.23709 0.40088 0.17033 0.0
H203 H 0.27416 0.39357 0.14234 0.0
H204 H 0.28641 0.44215 0.17471 0.0
H205 H 0.34008 0.4718 0.11001 0.0
H206 H 0.40557 0.48283 0.10096 0.0
H207 H 0.67111 0.12997 0.20426 0.0
H208 H 0.74159 0.17783 0.21008 0.0
H209 H 0.72908 0.13665 0.00347 0.0
H210 H 0.65814 0.08796 -0.00261 0.0
H211 H 0.80859 0.16117 0.10724 0.0
H212 H 0.75767 0.27075 0.08951 0.0
H213 H 0.74299 0.23807 0.15395 0.0
H214 H 0.72351 0.21839 0.06591 0.0
C215 C 0.6835 0.13048 0.16044 0.0
C216 C 0.65898 0.1057 0.09997 0.0
C217 C 0.72381 0.15773 0.16401 0.0
C218 C 0.74029 0.16103 0.107 0.0
C219 C 0.71679 0.13442 0.04804 0.0
H220 H 0.9412 0.32737 0.9621 0.0
H221 H 0.89315 0.26708 0.00021 0.0
C222 C 0.67633 0.10671 0.04461 0.0
C223 C 0.77993 0.19569 0.10625 0.0
H224 H 0.8263 0.29541 0.10142 0.0
C225 C 0.81269 0.19061 0.10629 0.0
C226 C 0.78506 0.23397 0.10532 0.0
C227 C 0.75048 0.24086 0.10317 0.0
C228 C 0.85068 0.22312 0.10535 0.0
C229 C 0.85563 0.26141 0.10309 0.0
C230 C 0.82282 0.26627 0.10423 0.0
C231 C 0.89267 0.29626 0.09118 0.0
C232 C 0.88505 0.21608 0.10706 0.0
C233 C 0.9097 0.333 0.1306 0.0
C234 C 0.93693 0.36794 0.10807 0.0
C235 C 0.94725 0.36653 0.04556 0.0
C236 C 0.93348 0.32943 0.01017 0.0
C237 C 0.90621 0.29471 0.03237 0.0
H238 H 0.88091 0.19021 0.13433 0.0
H239 H 0.88624 0.20948 0.05426 0.0
H240 H 0.91412 0.24236 0.13197 0.0
H241 H 0.8997 0.33491 0.17624 0.0
H242 H 0.94707 0.39606 0.13653 0.0
H243 H 0.51125 0.89181 0.13648 0.0
H244 H 0.51173 0.83132 0.16232 0.0
H245 H 0.63472 0.88618 0.14407 0.0
H246 H 0.63392 0.94624 0.11589 0.0
H247 H 0.58945 0.82186 0.05848 0.0
H248 H 0.55321 0.78489 0.30953 0.0
H249 H 0.51774 0.79464 0.25697 0.0
H250 H 0.56925 0.83361 0.28354 0.0
C251 C 0.53892 0.89159 0.14081 0.0
C252 C 0.57248 0.92368 0.12358 0.0
C253 C 0.53919 0.85689 0.15576 0.0
C254 C 0.5733 0.85407 0.15523 0.0
C255 C 0.60803 0.88757 0.14467 0.0
H256 H 0.58774 0.63934 0.09566 0.0
H257 H 0.60818 0.7077 0.13391 0.0
C258 C 0.60761 0.92198 0.12888 0.0
C259 C 0.57068 0.8149 0.15365 0.0
H260 H 0.53966 0.73039 0.23123 0.0
C261 C 0.57945 0.80226 0.09716 0.0
C262 C 0.55725 0.78907 0.20366 0.0
C263 C 0.54922 0.80143 0.26714 0.0
C264 C 0.5736 0.76412 0.08781 0.0
C265 C 0.55891 0.73789 0.13663 0.0
C266 C 0.55111 0.7507 0.19407 0.0
C267 C 0.54771 0.69593 0.12484 0.0
C268 C 0.58125 0.7515 0.02397 0.0
C269 C 0.50712 0.66654 0.10998 0.0
C270 C 0.4954 0.62769 0.08804 0.0
C271 C 0.52409 0.61742 0.081 0.0
C272 C 0.56494 0.64635 0.10046 0.0
C273 C 0.57666 0.68541 0.122 0.0
H274 H 0.58662 0.77329 0.98651 0.0
H275 H 0.60807 0.74835 0.03724 0.0
H276 H 0.55547 0.72236 -0.00052 0.0
H277 H 0.48436 0.67406 0.11205 0.0
H278 H 0.46371 0.606 0.07411 0.0
H279 H 0.86006 0.45834 0.02275 0.0
H280 H 0.81455 0.48336 0.02288 0.0
H281 H 0.9105 0.60195 0.0184 0.0
H282 H 0.95654 0.57699 0.01794 0.0
H283 H 0.81825 0.54217 0.11138 0.0
H284 H 0.82196 0.58081 0.84649 0.0
H285 H 0.8398 0.54893 0.88159 0.0
H286 H 0.86912 0.60127 0.90676 0.0
C287 C 0.87171 0.48985 0.0228 0.0
C288 C 0.91179 0.51567 0.01973 0.0
C289 C 0.84564 0.50407 0.02277 0.0
C290 C 0.859 0.54433 0.01921 0.0
C291 C 0.89951 0.57065 0.01993 0.0
H292 H 0.69082 0.61839 0.07256 0.0
H293 H 0.75527 0.62593 0.06478 0.0
C294 C 0.92583 0.55642 0.02044 0.0
C295 C 0.82967 0.55782 0.01269 0.0
H296 H 0.7767 0.58765 0.8987 0.0
C297 C 0.80958 0.55277 0.06541 0.0
C298 C 0.81813 0.57099 0.95205 0.0
C299 C 0.83807 0.57567 0.8931 0.0
C300 C 0.77747 0.55951 0.05863 0.0
C301 C 0.76562 0.57243 -0.00219 0.0
C302 C 0.78623 0.57826 0.94546 0.0
C303 C 0.72973 0.57662 0.98662 0.0
C304 C 0.75524 0.55084 0.11544 0.0
C305 C 0.6946 0.54886 0.94058 0.0
C306 C 0.65775 0.54505 0.94388 0.0
C307 C 0.65574 0.56861 0.99402 0.0
C308 C 0.69157 0.59973 0.03371 0.0
C309 C 0.72836 0.60385 0.02974 0.0
H310 H 0.76332 0.53391 0.15271 0.0
H311 H 0.76275 0.57911 0.14298 0.0
H312 H 0.72237 0.53371 0.09494 0.0
H313 H 0.69511 0.52772 0.90658 0.0
H314 H 0.63063 0.52071 0.91285 0.0
H315 H 0.10864 0.60221 0.88098 0.0
H316 H 0.16577 0.66201 0.85621 0.0
H317 H 0.14934 0.73319 -0.00405 0.0
H318 H 0.09248 0.67376 0.02114 0.0
H319 H 0.18747 0.75839 0.84097 0.0
H320 H 0.25478 0.71571 0.0703 0.0
H321 H 0.21114 0.67905 0.00963 0.0
H322 H 0.20691 0.71192 0.06506 0.0
C323 C 0.11582 0.63077 0.90359 0.0
C324 C 0.09657 0.63337 0.95377 0.0
C325 C 0.14855 0.6649 0.88954 0.0
C326 C 0.16185 0.7018 0.92486 0.0
C327 C 0.13939 0.70495 0.96813 0.0
H328 H 0.38439 0.92883 0.97819 0.0
H329 H 0.31391 0.87705 0.96172 0.0
C330 C 0.10693 0.67095 0.98247 0.0
C331 C 0.20325 0.73448 0.92929 0.0
H332 H 0.29757 0.77306 0.02693 0.0
C333 C 0.21165 0.76173 0.8814 0.0
C334 C 0.23451 0.73852 0.98226 0.0
C335 C 0.22675 0.70983 0.0349 0.0
C336 C 0.25098 0.79307 0.88515 0.0
C337 C 0.2822 0.79714 0.93844 0.0
C338 C 0.27356 0.7698 0.98616 0.0
C339 C 0.32441 0.82885 0.94523 0.0
C340 C 0.259 0.82112 0.83157 0.0
C341 C 0.3537 0.81882 0.9429 0.0
C342 C 0.39394 0.84819 0.9529 0.0
C343 C 0.40571 0.88824 0.96567 0.0
C344 C 0.37629 0.89826 0.96814 0.0
C345 C 0.33596 0.86877 0.95818 0.0
H346 H 0.23392 0.80883 0.78605 0.0
H347 H 0.26279 0.84924 0.8529 0.0
H348 H 0.28697 0.82803 0.81557 0.0
H349 H 0.3454 0.78813 0.93353 0.0
H350 H 0.4158 0.83944 0.95073 0.0
H351 H 0.5728 0.41275 0.89857 0.0
H352 H 0.55978 0.34769 0.8577 0.0
H353 H 0.44482 0.29313 0.91259 0.0
H354 H 0.45693 0.35852 0.94964 0.0
H355 H 0.5552 0.2969 0.93958 0.0
H356 H 0.4145 0.22292 0.74361 0.0
H357 H 0.44075 0.27539 0.77053 0.0
H358 H 0.40758 0.24067 0.81908 0.0
C359 C 0.54418 0.38688 0.8996 0.0
C360 C 0.51584 0.39047 0.92716 0.0
C361 C 0.53675 0.34972 0.87635 0.0
C362 C 0.50122 0.31531 0.88161 0.0
C363 C 0.47198 0.31909 0.90607 0.0
H364 H 0.44022 0.08837 0.97374 0.0
H365 H 0.4372 0.14432 0.92753 0.0
C366 C 0.47899 0.35648 0.92771 0.0
C367 C 0.49784 0.27601 0.87189 0.0
H368 H 0.43447 0.17979 0.80253 0.0
C369 C 0.5292 0.27158 0.90811 0.0
C370 C 0.46378 0.24275 0.83146 0.0
C371 C 0.42996 0.24578 0.78847 0.0
C372 C 0.52681 0.23475 0.9076 0.0
C373 C 0.49219 0.2012 0.86911 0.0
C374 C 0.46118 0.20563 0.83132 0.0
C375 C 0.48578 0.16094 0.87629 0.0
C376 C 0.56046 0.23169 0.95159 0.0
C377 C 0.51207 0.14991 0.85841 0.0
C378 C 0.51369 0.11759 0.88469 0.0
C379 C 0.48899 0.0962 0.92892 0.0
C380 C 0.45944 0.10438 0.93951 0.0
C381 C 0.45776 0.13642 0.91324 0.0
H382 H 0.582 0.25922 0.98634 0.0
H383 H 0.54845 0.20673 0.98266 0.0
H384 H 0.57715 0.22603 0.9187 0.0
H385 H 0.53366 0.16831 0.82928 0.0
H386 H 0.53702 0.11215 0.87645 0.0
loop_
_geom_bond_atom_site_label_1
_geom_bond_atom_site_label_2
_geom_bond_distance
_geom_bond_site_symmetry_2
_ccdc_geom_bond_type
O0 Mg1 1.990 . S
O0 C14 1.253 . S
Mg1 O0 1.990 . S
Mg1 O4 2.180 1_655 S
Mg1 O5 2.117 . S
Mg1 O19 2.030 . S
O2 Mg3 2.072 1_655 S
O2 C14 1.260 1_554 S
Mg3 O2 2.072 1_455 S
Mg3 O4 2.099 1_554 S
Mg3 O6 2.079 . S
Mg3 O7 2.072 1_554 S
Mg3 O9 2.099 . S
Mg3 O20 2.079 1_455 S
O4 Mg1 2.180 1_455 S
O4 Mg3 2.099 1_556 S
O4 C15 1.279 . S
O5 Mg1 2.117 . S
O5 C15 1.250 1_655 S
O6 Mg3 2.079 . S
O6 C16 1.264 . S
O7 Mg3 2.072 1_556 S
O7 C17 1.260 1_556 S
Mg8 O9 2.180 . S
Mg8 O10 2.030 . S
Mg8 O11 1.990 . S
Mg8 O12 2.117 . S
O9 Mg3 2.099 . S
O9 Mg8 2.180 . S
O9 C18 1.279 . S
O10 Mg8 2.030 . S
O10 C16 1.248 . S
O11 Mg8 1.990 . S
O11 C17 1.253 . S
O12 Mg8 2.117 . S
O12 C18 1.250 . S
C13 O19 1.248 . S
C13 O20 1.264 1_556 S
C14 O0 1.253 . S
C14 O2 1.260 1_556 S
C15 O4 1.279 . S
C15 O5 1.250 1_455 S
C16 O6 1.264 . S
C16 O10 1.248 . S
C17 O7 1.260 1_554 S
C17 O11 1.253 . S
C18 O9 1.279 . S
C18 O12 1.250 . S
O19 Mg1 2.030 . S
O19 C13 1.248 . S
O20 Mg3 2.079 1_655 S
O20 C13 1.264 1_554 S
O21 Mg22 1.990 . S
O21 C35 1.253 1_556 S
Mg22 O21 1.990 . S
Mg22 O25 2.180 . S
Mg22 O26 2.117 . S
Mg22 O40 2.030 . S
O23 Mg24 2.072 1_565 S
O23 C35 1.260 . S
Mg24 O23 2.072 1_545 S
Mg24 O25 2.099 1_544 S
Mg24 O27 2.079 1_554 S
Mg24 O28 2.072 . S
Mg24 O30 2.099 . S
Mg24 O41 2.079 1_545 S
O25 Mg22 2.180 . S
O25 Mg24 2.099 1_566 S
O25 C36 1.279 . S
O26 Mg22 2.117 . S
O26 C36 1.250 . S
O27 Mg24 2.079 1_556 S
O27 C37 1.264 1_556 S
O28 Mg24 2.072 . S
O28 C38 1.260 . S
Mg29 O30 2.180 . S
Mg29 O31 2.030 . S
Mg29 O32 1.990 . S
Mg29 O33 2.117 . S
O30 Mg24 2.099 . S
O30 Mg29 2.180 . S
O30 C39 1.279 . S
O31 Mg29 2.030 . S
O31 C37 1.248 . S
O32 Mg29 1.990 . S
O32 C38 1.253 . S
O33 Mg29 2.117 . S
O33 C39 1.250 . S
C34 O40 1.248 . S
C34 O41 1.264 1_556 S
C35 O21 1.253 1_554 S
C35 O23 1.260 . S
C36 O25 1.279 . S
C36 O26 1.250 . S
C37 O27 1.264 1_554 S
C37 O31 1.248 . S
C38 O28 1.260 . S
C38 O32 1.253 . S
C39 O30 1.279 . S
C39 O33 1.250 . S
O40 Mg22 2.030 . S
O40 C34 1.248 . S
O41 Mg24 2.079 1_565 S
O41 C34 1.264 1_554 S
O42 Mg43 1.990 . S
O42 C56 1.253 . S
Mg43 O42 1.990 . S
Mg43 O46 2.180 . S
Mg43 O47 2.117 . S
Mg43 O61 2.030 . S
O44 Mg45 2.072 . S
O44 C56 1.260 1_554 S
Mg45 O44 2.072 . S
Mg45 O46 2.099 1_554 S
Mg45 O48 2.079 . S
Mg45 O49 2.072 1_554 S
Mg45 O51 2.099 . S
Mg45 O62 2.079 . S
O46 Mg43 2.180 . S
O46 Mg45 2.099 1_556 S
O46 C57 1.279 . S
O47 Mg43 2.117 . S
O47 C57 1.250 . S
O48 Mg45 2.079 . S
O48 C58 1.264 . S
O49 Mg45 2.072 1_556 S
O49 C59 1.260 1_556 S
Mg50 O51 2.180 . S
Mg50 O52 2.030 . S
Mg50 O53 1.990 . S
Mg50 O54 2.117 . S
O51 Mg45 2.099 . S
O51 Mg50 2.180 . S
O51 C60 1.279 . S
O52 Mg50 2.030 . S
O52 C58 1.248 . S
O53 Mg50 1.990 . S
O53 C59 1.253 . S
O54 Mg50 2.117 . S
O54 C60 1.250 . S
C55 O61 1.248 1_554 S
C55 O62 1.264 . S
C56 O42 1.253 . S
C56 O44 1.260 1_556 S
C57 O46 1.279 . S
C57 O47 1.250 . S
C58 O48 1.264 . S
C58 O52 1.248 . S
C59 O49 1.260 1_554 S
C59 O53 1.253 . S
C60 O51 1.279 . S
C60 O54 1.250 . S
O61 Mg43 2.030 . S
O61 C55 1.248 1_556 S
O62 Mg45 2.079 . S
O62 C55 1.264 . S
H63 C71 0.929 . S
H64 C73 0.930 . S
H65 C75 0.930 . S
H66 C78 0.929 . S
H67 C81 0.930 . S
H68 C83 0.960 . S
H69 C83 0.960 . S
H70 C83 0.960 . S
C71 H63 0.929 . S
C71 C72 1.377 1_655 S
C71 C73 1.384 . S
C72 C71 1.377 1_455 S
C72 C78 1.390 . S
C73 H64 0.930 . S
C73 C71 1.384 . S
C73 C74 1.372 1_655 S
C74 C73 1.372 1_455 S
C74 C75 1.400 . S
C74 C79 1.490 . S
C75 H65 0.930 . S
C75 C74 1.400 . S
C75 C78 1.386 . S
H76 C92 0.930 . S
H77 C93 0.931 . S
C78 H66 0.929 . S
C78 C72 1.390 . S
C78 C75 1.386 . S
C79 C74 1.490 . S
C79 C81 1.395 . S
C79 C82 1.403 . S
H80 C86 0.930 . S
C81 H67 0.930 . S
C81 C79 1.395 . S
C81 C84 1.403 . S
C82 C79 1.403 . S
C82 C83 1.524 . S
C82 C86 1.400 . S
C83 H68 0.960 . S
C83 H69 0.960 . S
C83 H70 0.960 . S
C83 C82 1.524 . S
C84 C81 1.403 . S
C84 C85 1.392 . S
C84 C88 1.495 . S
C85 C84 1.392 . S
C85 C86 1.385 . S
C85 C87 1.478 . S
C86 H80 0.930 . S
C86 C82 1.400 . S
C86 C85 1.385 . S
C87 C85 1.478 . S
C87 C89 1.381 1_455 S
C87 C93 1.383 . S
C88 C84 1.495 . S
C88 H94 0.959 . S
C88 H95 0.961 . S
C88 H96 0.960 1_455 S
C89 C87 1.381 1_655 S
C89 C90 1.394 . S
C89 H97 0.930 . S
C90 C89 1.394 . S
C90 C91 1.383 1_655 S
C90 H98 0.929 . S
C91 C90 1.383 1_455 S
C91 C92 1.377 . S
C92 H76 0.930 . S
C92 C91 1.377 . S
C92 C93 1.379 . S
C93 H77 0.931 . S
C93 C87 1.383 . S
C93 C92 1.379 . S
H94 C88 0.959 . S
H95 C88 0.961 . S
H96 C88 0.960 1_655 S
H97 C89 0.930 . S
H98 C90 0.929 . S
H99 C107 0.929 . S
H100 C109 0.930 . S
H101 C111 0.930 . S
H102 C114 0.929 . S
H103 C117 0.930 . S
H104 C119 0.960 . S
H105 C119 0.960 . S
H106 C119 0.960 . S
C107 H99 0.929 . S
C107 C108 1.377 . S
C107 C109 1.384 . S
C108 C107 1.377 . S
C108 C114 1.390 . S
C109 H100 0.930 . S
C109 C107 1.384 . S
C109 C110 1.372 . S
C110 C109 1.372 . S
C110 C111 1.400 . S
C110 C115 1.490 . S
C111 H101 0.930 . S
C111 C110 1.400 . S
C111 C114 1.386 . S
H112 C128 0.930 . S
H113 C129 0.931 1_565 S
C114 H102 0.929 . S
C114 C108 1.390 . S
C114 C111 1.386 . S
C115 C110 1.490 . S
C115 C117 1.395 1_545 S
C115 C118 1.403 . S
H116 C122 0.930 . S
C117 H103 0.930 . S
C117 C115 1.395 1_565 S
C117 C120 1.403 . S
C118 C115 1.403 . S
C118 C119 1.524 . S
C118 C122 1.400 . S
C119 H104 0.960 . S
C119 H105 0.960 . S
C119 H106 0.960 . S
C119 C118 1.524 . S
C120 C117 1.403 . S
C120 C121 1.392 1_565 S
C120 C124 1.495 . S
C121 C120 1.392 1_545 S
C121 C122 1.385 . S
C121 C123 1.478 . S
C122 H116 0.930 . S
C122 C118 1.400 . S
C122 C121 1.385 . S
C123 C121 1.478 . S
C123 C125 1.381 . S
C123 C129 1.383 . S
C124 C120 1.495 . S
C124 H130 0.959 . S
C124 H131 0.961 . S
C124 H132 0.960 . S
C125 C123 1.381 . S
C125 C126 1.394 . S
C125 H133 0.930 . S
C126 C125 1.394 . S
C126 C127 1.383 . S
C126 H134 0.929 . S
C127 C126 1.383 . S
C127 C128 1.377 . S
C128 H112 0.930 . S
C128 C127 1.377 . S
C128 C129 1.379 . S
C129 H113 0.931 1_545 S
C129 C123 1.383 . S
C129 C128 1.379 . S
H130 C124 0.959 . S
H131 C124 0.961 . S
H132 C124 0.960 . S
H133 C125 0.930 . S
H134 C126 0.929 . S
H135 C143 0.929 . S
H136 C145 0.930 . S
H137 C147 0.930 . S
H138 C150 0.929 . S
H139 C153 0.930 . S
H140 C155 0.960 . S
H141 C155 0.960 . S
H142 C155 0.960 . S
C143 H135 0.929 . S
C143 C144 1.377 . S
C143 C145 1.384 . S
C144 C143 1.377 . S
C144 C150 1.390 . S
C145 H136 0.930 . S
C145 C143 1.384 . S
C145 C146 1.372 . S
C146 C145 1.372 . S
C146 C147 1.400 . S
C146 C151 1.490 . S
C147 H137 0.930 . S
C147 C146 1.400 . S
C147 C150 1.386 . S
H148 C164 0.930 . S
H149 C165 0.931 . S
C150 H138 0.929 . S
C150 C144 1.390 . S
C150 C147 1.386 . S
C151 C146 1.490 . S
C151 C153 1.395 . S
C151 C154 1.403 . S
H152 C158 0.930 . S
C153 H139 0.930 . S
C153 C151 1.395 . S
C153 C156 1.403 . S
C154 C151 1.403 . S
C154 C155 1.524 . S
C154 C158 1.400 . S
C155 H140 0.960 . S
C155 H141 0.960 . S
C155 H142 0.960 . S
C155 C154 1.524 . S
C156 C153 1.403 . S
C156 C157 1.392 . S
C156 C160 1.495 . S
C157 C156 1.392 . S
C157 C158 1.385 . S
C157 C159 1.478 . S
C158 H152 0.930 . S
C158 C154 1.400 . S
C158 C157 1.385 . S
C159 C157 1.478 . S
C159 C161 1.381 . S
C159 C165 1.383 . S
C160 C156 1.495 . S
C160 H166 0.959 . S
C160 H167 0.961 . S
C160 H168 0.960 . S
C161 C159 1.381 . S
C161 C162 1.394 . S
C161 H169 0.930 . S
C162 C161 1.394 . S
C162 C163 1.383 . S
C162 H170 0.929 . S
C163 C162 1.383 . S
C163 C164 1.377 . S
C164 H148 0.930 . S
C164 C163 1.377 . S
C164 C165 1.379 . S
C165 H149 0.931 . S
C165 C159 1.383 . S
C165 C164 1.379 . S
H166 C160 0.959 . S
H167 C160 0.961 . S
H168 C160 0.960 . S
H169 C161 0.930 . S
H170 C162 0.929 . S
H171 C179 0.929 . S
H172 C181 0.930 . S
H173 C183 0.930 1_556 S
H174 C186 0.929 1_556 S
H175 C189 0.930 . S
H176 C191 0.960 . S
H177 C191 0.960 . S
H178 C191 0.960 . S
C179 H171 0.929 . S
C179 C180 1.377 . S
C179 C181 1.384 . S
C180 C179 1.377 . S
C180 C186 1.390 . S
C181 H172 0.930 . S
C181 C179 1.384 . S
C181 C182 1.372 . S
C182 C181 1.372 . S
C182 C183 1.400 . S
C182 C187 1.490 . S
C183 H173 0.930 1_554 S
C183 C182 1.400 . S
C183 C186 1.386 . S
H184 C200 0.930 . S
H185 C201 0.931 . S
C186 H174 0.929 1_554 S
C186 C180 1.390 . S
C186 C183 1.386 . S
C187 C182 1.490 . S
C187 C189 1.395 . S
C187 C190 1.403 1_554 S
H188 C194 0.930 . S
C189 H175 0.930 . S
C189 C187 1.395 . S
C189 C192 1.403 . S
C190 C187 1.403 1_556 S
C190 C191 1.524 . S
C190 C194 1.400 . S
C191 H176 0.960 . S
C191 H177 0.960 . S
C191 H178 0.960 . S
C191 C190 1.524 . S
C192 C189 1.403 . S
C192 C193 1.392 . S
C192 C196 1.495 . S
C193 C192 1.392 . S
C193 C194 1.385 1_554 S
C193 C195 1.478 . S
C194 H188 0.930 . S
C194 C190 1.400 . S
C194 C193 1.385 1_556 S
C195 C193 1.478 . S
C195 C197 1.381 . S
C195 C201 1.383 . S
C196 C192 1.495 . S
C196 H202 0.959 . S
C196 H203 0.961 . S
C196 H204 0.960 . S
C197 C195 1.381 . S
C197 C198 1.394 . S
C197 H205 0.930 . S
C198 C197 1.394 . S
C198 C199 1.383 . S
C198 H206 0.929 . S
C199 C198 1.383 . S
C199 C200 1.377 . S
C200 H184 0.930 . S
C200 C199 1.377 . S
C200 C201 1.379 . S
C201 H185 0.931 . S
C201 C195 1.383 . S
C201 C200 1.379 . S
H202 C196 0.959 . S
H203 C196 0.961 . S
H204 C196 0.960 . S
H205 C197 0.930 . S
H206 C198 0.929 . S
H207 C215 0.929 . S
H208 C217 0.930 . S
H209 C219 0.930 . S
H210 C222 0.929 . S
H211 C225 0.930 . S
H212 C227 0.960 . S
H213 C227 0.960 . S
H214 C227 0.965 . S
C215 H207 0.929 . S
C215 C216 1.377 . S
C215 C217 1.384 . S
C216 C215 1.377 . S
C216 C222 1.390 1_554 S
C217 H208 0.930 . S
C217 C215 1.384 . S
C217 C218 1.372 . S
C218 C217 1.372 . S
C218 C219 1.400 1_554 S
C218 C223 1.490 . S
C219 H209 0.930 . S
C219 C218 1.400 1_556 S
C219 C222 1.386 . S
H220 C236 0.930 . S
H221 C237 0.931 . S
C222 H210 0.929 . S
C222 C216 1.390 1_556 S
C222 C219 1.386 . S
C223 C218 1.490 . S
C223 C225 1.395 . S
C223 C226 1.403 . S
H224 C230 0.930 . S
C225 H211 0.930 . S
C225 C223 1.395 . S
C225 C228 1.403 . S
C226 C223 1.403 . S
C226 C227 1.524 . S
C226 C230 1.400 . S
C227 H212 0.960 . S
C227 H213 0.960 . S
C227 H214 0.965 . S
C227 C226 1.524 . S
C228 C225 1.403 . S
C228 C229 1.392 . S
C228 C232 1.495 . S
C229 C228 1.392 . S
C229 C230 1.385 . S
C229 C231 1.478 . S
C230 H224 0.930 . S
C230 C226 1.400 . S
C230 C229 1.385 . S
C231 C229 1.478 . S
C231 C233 1.381 . S
C231 C237 1.383 1_554 S
C232 C228 1.495 . S
C232 H238 0.959 . S
C232 H239 0.961 1_554 S
C232 H240 0.960 . S
C233 C231 1.381 . S
C233 C234 1.394 . S
C233 H241 0.930 . S
C234 C233 1.394 . S
C234 C235 1.383 . S
C234 H242 0.929 . S
C235 C234 1.383 . S
C235 C236 1.377 1_554 S
C236 H220 0.930 . S
C236 C235 1.377 1_556 S
C236 C237 1.379 . S
C237 H221 0.931 . S
C237 C231 1.383 1_556 S
C237 C236 1.379 . S
H238 C232 0.959 . S
H239 C232 0.961 1_556 S
H240 C232 0.960 . S
H241 C233 0.930 . S
H242 C234 0.929 . S
H243 C251 0.929 . S
H244 C253 0.930 . S
H245 C255 0.930 . S
H246 C258 0.929 . S
H247 C261 0.930 . S
H248 C263 0.960 . S
H249 C263 0.960 . S
H250 C263 0.960 . S
C251 H243 0.929 . S
C251 C252 1.378 1_556 S
C251 C253 1.384 . S
C252 C251 1.378 1_554 S
C252 C258 1.390 . S
C253 H244 0.930 . S
C253 C251 1.384 . S
C253 C254 1.372 1_556 S
C254 C253 1.372 1_554 S
C254 C255 1.400 . S
C254 C259 1.490 . S
C255 H245 0.930 . S
C255 C254 1.400 . S
C255 C258 1.386 . S
H256 C272 0.930 . S
H257 C273 0.931 . S
C258 H246 0.929 . S
C258 C252 1.390 . S
C258 C255 1.386 . S
C259 C254 1.490 . S
C259 C261 1.395 1_554 S
C259 C262 1.403 . S
H260 C266 0.930 . S
C261 H247 0.930 . S
C261 C259 1.395 1_556 S
C261 C264 1.403 . S
C262 C259 1.403 . S
C262 C263 1.524 . S
C262 C266 1.400 . S
C263 H248 0.960 . S
C263 H249 0.960 . S
C263 H250 0.960 . S
C263 C262 1.524 . S
C264 C261 1.403 . S
C264 C265 1.392 1_556 S
C264 C268 1.495 . S
C265 C264 1.392 1_554 S
C265 C266 1.385 . S
C265 C267 1.478 . S
C266 H260 0.930 . S
C266 C262 1.400 . S
C266 C265 1.385 . S
C267 C265 1.478 . S
C267 C269 1.381 1_554 S
C267 C273 1.383 . S
C268 C264 1.495 . S
C268 H274 0.959 . S
C268 H275 0.961 . S
C268 H276 0.960 . S
C269 C267 1.381 1_556 S
C269 C270 1.394 . S
C269 H277 0.930 . S
C270 C269 1.394 . S
C270 C271 1.383 1_556 S
C270 H278 0.929 . S
C271 C270 1.383 1_554 S
C271 C272 1.377 . S
C272 H256 0.930 . S
C272 C271 1.377 . S
C272 C273 1.379 . S
C273 H257 0.931 . S
C273 C267 1.383 . S
C273 C272 1.379 . S
H274 C268 0.959 . S
H275 C268 0.961 . S
H276 C268 0.960 . S
H277 C269 0.930 . S
H278 C270 0.929 . S
H279 C287 0.929 . S
H280 C289 0.930 . S
H281 C291 0.930 . S
H282 C294 0.929 . S
H283 C297 0.930 . S
H284 C299 0.960 . S
H285 C299 0.960 . S
H286 C299 0.960 . S
C287 H279 0.929 . S
C287 C288 1.377 . S
C287 C289 1.384 . S
C288 C287 1.377 . S
C288 C294 1.390 1_554 S
C289 H280 0.930 . S
C289 C287 1.384 . S
C289 C290 1.372 . S
C290 C289 1.372 . S
C290 C291 1.400 1_554 S
C290 C295 1.490 . S
C291 H281 0.930 . S
C291 C290 1.400 1_556 S
C291 C294 1.386 . S
H292 C308 0.930 . S
H293 C309 0.931 . S
C294 H282 0.929 . S
C294 C288 1.390 1_556 S
C294 C291 1.386 . S
C295 C290 1.490 . S
C295 C297 1.395 . S
C295 C298 1.403 1_554 S
H296 C302 0.930 . S
C297 H283 0.930 . S
C297 C295 1.395 . S
C297 C300 1.403 . S
C298 C295 1.403 1_556 S
C298 C299 1.524 . S
C298 C302 1.400 . S
C299 H284 0.960 . S
C299 H285 0.960 . S
C299 H286 0.960 . S
C299 C298 1.524 . S
C300 C297 1.403 . S
C300 C301 1.392 . S
C300 C304 1.495 . S
C301 C300 1.392 . S
C301 C302 1.385 1_554 S
C301 C303 1.478 . S
C302 H296 0.930 . S
C302 C298 1.400 . S
C302 C301 1.385 1_556 S
C303 C301 1.478 . S
C303 C305 1.381 . S
C303 C309 1.383 . S
C304 C300 1.495 . S
C304 H310 0.959 . S
C304 H311 0.961 . S
C304 H312 0.960 . S
C305 C303 1.381 . S
C305 C306 1.394 . S
C305 H313 0.930 . S
C306 C305 1.394 . S
C306 C307 1.383 . S
C306 H314 0.929 . S
C307 C306 1.383 . S
C307 C308 1.377 . S
C308 H292 0.930 . S
C308 C307 1.377 . S
C308 C309 1.379 . S
C309 H293 0.931 . S
C309 C303 1.383 . S
C309 C308 1.379 . S
H310 C304 0.959 . S
H311 C304 0.961 . S
H312 C304 0.960 . S
H313 C305 0.930 . S
H314 C306 0.929 . S
H315 C323 0.929 . S
H316 C325 0.930 . S
H317 C327 0.930 . S
H318 C330 0.929 . S
H319 C333 0.930 . S
H320 C335 0.960 . S
H321 C335 0.960 . S
H322 C335 0.960 . S
C323 H315 0.929 . S
C323 C324 1.377 1_556 S
C323 C325 1.384 . S
C324 C323 1.377 1_554 S
C324 C330 1.390 . S
C325 H316 0.930 . S
C325 C323 1.384 . S
C325 C326 1.372 1_556 S
C326 C325 1.372 1_554 S
C326 C327 1.400 . S
C326 C331 1.490 . S
C327 H317 0.930 . S
C327 C326 1.400 . S
C327 C330 1.386 . S
H328 C344 0.930 . S
H329 C345 0.931 . S
C330 H318 0.929 . S
C330 C324 1.390 . S
C330 C327 1.386 . S
C331 C326 1.490 . S
C331 C333 1.395 1_554 S
C331 C334 1.403 . S
H332 C338 0.930 . S
C333 H319 0.930 . S
C333 C331 1.395 1_556 S
C333 C336 1.403 . S
C334 C331 1.403 . S
C334 C335 1.524 . S
C334 C338 1.400 . S
C335 H320 0.960 . S
C335 H321 0.960 . S
C335 H322 0.960 . S
C335 C334 1.524 . S
C336 C333 1.403 . S
C336 C337 1.392 . S
C336 C340 1.495 . S
C337 C336 1.392 . S
C337 C338 1.385 1_556 S
C337 C339 1.478 . S
C338 H332 0.930 . S
C338 C334 1.400 . S
C338 C337 1.385 1_554 S
C339 C337 1.478 . S
C339 C341 1.381 . S
C339 C345 1.383 1_556 S
C340 C336 1.495 . S
C340 H346 0.959 . S
C340 H347 0.961 . S
C340 H348 0.960 . S
C341 C339 1.381 . S
C341 C342 1.394 . S
C341 H349 0.930 . S
C342 C341 1.394 . S
C342 C343 1.383 1_556 S
C342 H350 0.929 . S
C343 C342 1.383 1_554 S
C343 C344 1.377 . S
C344 H328 0.930 . S
C344 C343 1.377 . S
C344 C345 1.379 . S
C345 H329 0.931 . S
C345 C339 1.383 1_554 S
C345 C344 1.379 . S
H346 C340 0.959 . S
H347 C340 0.961 . S
H348 C340 0.960 . S
H349 C341 0.930 . S
H350 C342 0.929 . S
H351 C359 0.929 . S
H352 C361 0.930 . S
H353 C363 0.930 . S
H354 C366 0.929 . S
H355 C369 0.930 . S
H356 C371 0.960 . S
H357 C371 0.960 . S
H358 C371 0.960 . S
C359 H351 0.929 . S
C359 C360 1.377 . S
C359 C361 1.384 . S
C360 C359 1.377 . S
C360 C366 1.390 1_556 S
C361 H352 0.930 . S
C361 C359 1.384 . S
C361 C362 1.372 . S
C362 C361 1.372 . S
C362 C363 1.400 1_556 S
C362 C367 1.490 . S
C363 H353 0.930 . S
C363 C362 1.400 1_554 S
C363 C366 1.386 . S
H364 C380 0.930 . S
H365 C381 0.931 . S
C366 H354 0.929 . S
C366 C360 1.390 1_554 S
C366 C363 1.386 . S
C367 C362 1.490 . S
C367 C369 1.395 1_556 S
C367 C370 1.403 . S
H368 C374 0.930 . S
C369 H355 0.930 . S
C369 C367 1.395 1_554 S
C369 C372 1.403 . S
C370 C367 1.403 . S
C370 C371 1.524 . S
C370 C374 1.400 . S
C371 H356 0.960 . S
C371 H357 0.960 . S
C371 H358 0.960 . S
C371 C370 1.524 . S
C372 C369 1.403 . S
C372 C373 1.390 1_554 S
C372 C376 1.495 . S
C373 C372 1.390 1_556 S
C373 C374 1.388 . S
C373 C375 1.477 1_556 S
C374 H368 0.930 . S
C374 C370 1.400 . S
C374 C373 1.388 . S
C375 C373 1.477 1_554 S
C375 C377 1.381 1_554 S
C375 C381 1.383 . S
C376 C372 1.495 . S
C376 H382 0.959 . S
C376 H383 0.961 . S
C376 H384 0.960 . S
C377 C375 1.381 1_556 S
C377 C378 1.394 . S
C377 H385 0.930 . S
C378 C377 1.394 . S
C378 C379 1.379 1_556 S
C378 H386 0.929 . S
C379 C378 1.379 1_554 S
C379 C380 1.381 . S
C380 H364 0.930 . S
C380 C379 1.381 . S
C380 C381 1.379 . S
C381 H365 0.931 . S
C381 C375 1.383 . S
C381 C380 1.379 . S
H382 C376 0.959 . S
H383 C376 0.961 . S
H384 C376 0.960 . S
H385 C377 0.930 . S
H386 C378 0.929 . S
C72 C15 1.284 . S
C91 C18 1.295 . S
C108 C39 1.268 . S
C127 C36 1.227 1_545 S
C144 C57 1.287 . S
C163 C60 1.273 . S
C180 C17 1.095 . S
C199 C56 1.116 1_554 S
C216 C38 1.086 . S
C235 C14 1.100 1_554 S
C252 C35 1.067 . S
C271 C55 1.042 . S
C288 C13 1.041 1_554 S
C307 C58 1.023 . S
C324 C16 1.045 . S
C343 C34 1.054 1_554 S
C360 C59 1.077 1_556 S
C379 C37 1.034 . S
