# Generated by pormake.
# Topology unu, (4)-cn, num edge types: 1
# Building blocks:
#     Node 0, Type 0, BuildingBlock: TATPOV_clean_sbu_0, # of connection points: 4
#     Node 1, Type 0, BuildingBlock: TATPOV_clean_sbu_0, # of connection points: 4
#     Node 2, Type 0, BuildingBlock: TATPOV_clean_sbu_0, # of connection points: 4
#     Node 3, Type 0, BuildingBlock: TATPOV_clean_sbu_0, # of connection points: 4
#     Node 4, Type 0, BuildingBlock: TATPOV_clean_sbu_0, # of connection points: 4
#     Node 5, Type 0, BuildingBlock: TATPOV_clean_sbu_0, # of connection points: 4
#     Node 6, Type 0, BuildingBlock: TATPOV_clean_sbu_0, # of connection points: 4
#     Node 7, Type 0, BuildingBlock: TATPOV_clean_sbu_0, # of connection points: 4
#     Node 8, Type 0, BuildingBlock: TATPOV_clean_sbu_0, # of connection points: 4
#     Node 9, Type 0, BuildingBlock: TATPOV_clean_sbu_0, # of connection points: 4
#     Node 10, Type 0, BuildingBlock: TATPOV_clean_sbu_0, # of connection points: 4
#     Node 11, Type 0, BuildingBlock: TATPOV_clean_sbu_0, # of connection points: 4
#     Node 12, Type 0, BuildingBlock: TATPOV_clean_sbu_0, # of connection points: 4
#     Node 13, Type 0, BuildingBlock: TATPOV_clean_sbu_0, # of connection points: 4
#     Node 14, Type 0, BuildingBlock: TATPOV_clean_sbu_0, # of connection points: 4
#     Node 15, Type 0, BuildingBlock: TATPOV_clean_sbu_0, # of connection points: 4
#     Node 16, Type 0, BuildingBlock: TATPOV_clean_sbu_0, # of connection points: 4
#     Node 17, Type 0, BuildingBlock: TATPOV_clean_sbu_0, # of connection points: 4
#     Node 18, Type 0, BuildingBlock: TATPOV_clean_sbu_0, # of connection points: 4
#     Node 19, Type 0, BuildingBlock: TATPOV_clean_sbu_0, # of connection points: 4
#     Node 20, Type 0, BuildingBlock: TATPOV_clean_sbu_0, # of connection points: 4
#     Node 21, Type 0, BuildingBlock: TATPOV_clean_sbu_0, # of connection points: 4
#     Node 22, Type 0, BuildingBlock: TATPOV_clean_sbu_0, # of connection points: 4
#     Node 23, Type 0, BuildingBlock: TATPOV_clean_sbu_0, # of connection points: 4
#     Node 24, Type 0, BuildingBlock: TATPOV_clean_sbu_0, # of connection points: 4
#     Node 25, Type 0, BuildingBlock: TATPOV_clean_sbu_0, # of connection points: 4
#     Node 26, Type 0, BuildingBlock: TATPOV_clean_sbu_0, # of connection points: 4
#     Node 27, Type 0, BuildingBlock: TATPOV_clean_sbu_0, # of connection points: 4
#     Node 28, Type 0, BuildingBlock: TATPOV_clean_sbu_0, # of connection points: 4
#     Node 29, Type 0, BuildingBlock: TATPOV_clean_sbu_0, # of connection points: 4
#     Node 30, Type 0, BuildingBlock: TATPOV_clean_sbu_0, # of connection points: 4
#     Node 31, Type 0, BuildingBlock: TATPOV_clean_sbu_0, # of connection points: 4
#     Node 32, Type 0, BuildingBlock: TATPOV_clean_sbu_0, # of connection points: 4
#     Node 33, Type 0, BuildingBlock: TATPOV_clean_sbu_0, # of connection points: 4
#     Node 34, Type 0, BuildingBlock: TATPOV_clean_sbu_0, # of connection points: 4
#     Node 35, Type 0, BuildingBlock: TATPOV_clean_sbu_0, # of connection points: 4
#     Edge 36, Type (0, 0), None
#     Edge 37, Type (0, 0), None
#     Edge 38, Type (0, 0), None
#     Edge 39, Type (0, 0), None
#     Edge 40, Type (0, 0), None
#     Edge 41, Type (0, 0), None
#     Edge 42, Type (0, 0), None
#     Edge 43, Type (0, 0), None
#     Edge 44, Type (0, 0), None
#     Edge 45, Type (0, 0), None
#     Edge 46, Type (0, 0), None
#     Edge 47, Type (0, 0), None
#     Edge 48, Type (0, 0), None
#     Edge 49, Type (0, 0), None
#     Edge 50, Type (0, 0), None
#     Edge 51, Type (0, 0), None
#     Edge 52, Type (0, 0), None
#     Edge 53, Type (0, 0), None
#     Edge 54, Type (0, 0), None
#     Edge 55, Type (0, 0), None
#     Edge 56, Type (0, 0), None
#     Edge 57, Type (0, 0), None
#     Edge 58, Type (0, 0), None
#     Edge 59, Type (0, 0), None
#     Edge 60, Type (0, 0), None
#     Edge 61, Type (0, 0), None
#     Edge 62, Type (0, 0), None
#     Edge 63, Type (0, 0), None
#     Edge 64, Type (0, 0), None
#     Edge 65, Type (0, 0), None
#     Edge 66, Type (0, 0), None
#     Edge 67, Type (0, 0), None
#     Edge 68, Type (0, 0), None
#     Edge 69, Type (0, 0), None
#     Edge 70, Type (0, 0), None
#     Edge 71, Type (0, 0), None
#     Edge 72, Type (0, 0), None
#     Edge 73, Type (0, 0), None
#     Edge 74, Type (0, 0), None
#     Edge 75, Type (0, 0), None
#     Edge 76, Type (0, 0), None
#     Edge 77, Type (0, 0), None
#     Edge 78, Type (0, 0), None
#     Edge 79, Type (0, 0), None
#     Edge 80, Type (0, 0), None
#     Edge 81, Type (0, 0), None
#     Edge 82, Type (0, 0), None
#     Edge 83, Type (0, 0), None
#     Edge 84, Type (0, 0), None
#     Edge 85, Type (0, 0), None
#     Edge 86, Type (0, 0), None
#     Edge 87, Type (0, 0), None
#     Edge 88, Type (0, 0), None
#     Edge 89, Type (0, 0), None
#     Edge 90, Type (0, 0), None
#     Edge 91, Type (0, 0), None
#     Edge 92, Type (0, 0), None
#     Edge 93, Type (0, 0), None
#     Edge 94, Type (0, 0), None
#     Edge 95, Type (0, 0), None
#     Edge 96, Type (0, 0), None
#     Edge 97, Type (0, 0), None
#     Edge 98, Type (0, 0), None
#     Edge 99, Type (0, 0), None
#     Edge 100, Type (0, 0), None
#     Edge 101, Type (0, 0), None
#     Edge 102, Type (0, 0), None
#     Edge 103, Type (0, 0), None
#     Edge 104, Type (0, 0), None
#     Edge 105, Type (0, 0), None
#     Edge 106, Type (0, 0), None
#     Edge 107, Type (0, 0), None
# Relax obj value: 0.211
# Max RMSD: 0.270
# Mean RMSD: 0.270
data_MOF--net-unu--node1-TATPOV_clean_sbu_0--edge1-none
_symmetry_space_group_name_H-M    P1
_symmetry_Int_Tables_number       1
_symmetry_cell_setting            triclinic
loop_
_symmetry_equiv_pos_as_xyz
'x, y, z'
_cell_length_a     18.133181
_cell_length_b     18.133905
_cell_length_c     60.707433
_cell_angle_alpha  89.995856
_cell_angle_beta   90.005068
_cell_angle_gamma 120.00087
loop_
_atom_site_label
_atom_site_type_symbol
_atom_site_fract_x
_atom_site_fract_y
_atom_site_fract_z
_atom_type_partial_charge
Zn0 Zn 0.14116 0.07713 0.14774 0.0
Zn1 Zn 0.23586 0.07429 0.10016 0.0
O2 O 0.13364 0.95849 0.09637 0.0
O3 O 0.07893 0.96045 0.12933 0.0
O4 O 0.33477 0.06857 0.08577 0.0
O5 O 0.25248 0.11026 0.16598 0.0
O6 O 0.25182 0.07292 0.1324 0.0
C7 C 0.07692 0.92264 0.11122 0.0
C8 C 0.16142 0.17623 0.10885 0.0
O9 O 0.18483 0.15128 0.09194 0.0
O10 O 0.19889 0.18103 0.12665 0.0
C11 C 0.34666 0.06006 0.06553 0.0
O12 O 0.3002 0.07054 0.05062 0.0
C13 C 0.29304 0.1226 0.14808 0.0
Zn14 Zn 0.9174 0.0629 0.14774 0.0
Zn15 Zn 0.92022 0.16044 0.10015 0.0
O16 O 0.03601 0.17399 0.09636 0.0
O17 O 0.03407 0.11732 0.12933 0.0
O18 O 0.926 0.26511 0.08576 0.0
O19 O 0.88429 0.14108 0.16598 0.0
O20 O 0.92161 0.17776 0.13239 0.0
C21 C 0.07186 0.1531 0.11121 0.0
C22 C 0.81827 0.98408 0.10885 0.0
O23 O 0.8432 0.03243 0.09193 0.0
O24 O 0.81348 0.01674 0.12665 0.0
C25 C 0.93443 0.28552 0.06552 0.0
O26 O 0.92382 0.22855 0.05061 0.0
C27 C 0.87195 0.16932 0.14808 0.0
Zn28 Zn 0.9316 0.85339 0.14775 0.0
Zn29 Zn 0.8341 0.75871 0.10015 0.0
O30 O 0.82051 0.86091 0.09636 0.0
O31 O 0.87718 0.91563 0.12932 0.0
O32 O 0.72946 0.65978 0.08576 0.0
O33 O 0.85341 0.74208 0.16598 0.0
O34 O 0.81677 0.74275 0.13239 0.0
C35 C 0.84139 0.91764 0.11121 0.0
C36 C 0.01047 0.83308 0.10887 0.0
O37 O 0.96213 0.80975 0.09195 0.0
O38 O 0.97788 0.79568 0.12668 0.0
C39 C 0.70904 0.64784 0.06552 0.0
O40 O 0.76598 0.69426 0.05062 0.0
C41 C 0.82521 0.70153 0.14807 0.0
Zn42 Zn 0.0761 0.14227 0.31067 0.0
Zn43 Zn 0.07331 0.23697 0.35826 0.0
O44 O 0.95748 0.13478 0.36204 0.0
O45 O 0.95942 0.08006 0.32908 0.0
O46 O 0.06768 0.33592 0.37266 0.0
O47 O 0.10928 0.2536 0.29243 0.0
O48 O 0.07195 0.25294 0.32602 0.0
C49 C 0.92162 0.07807 0.34719 0.0
C50 C 0.1752 0.16248 0.34956 0.0
O51 O 0.15026 0.18589 0.36648 0.0
O52 O 0.18001 0.19995 0.33176 0.0
C53 C 0.05899 0.34761 0.3929 0.0
O54 O 0.06923 0.30093 0.40778 0.0
C55 C 0.12162 0.29416 0.31034 0.0
Zn56 Zn 0.85229 0.93274 0.31066 0.0
Zn57 Zn 0.7576 0.83526 0.35826 0.0
O58 O 0.85976 0.82158 0.36205 0.0
O59 O 0.91448 0.87826 0.32909 0.0
O60 O 0.65861 0.7307 0.37266 0.0
O61 O 0.74094 0.85459 0.29243 0.0
O62 O 0.74162 0.81793 0.32602 0.0
C63 C 0.91647 0.84244 0.3472 0.0
C64 C 0.83205 0.01164 0.34954 0.0
O65 O 0.80871 0.96329 0.36646 0.0
O66 O 0.79463 0.97906 0.33173 0.0
C67 C 0.64692 0.71029 0.3929 0.0
O68 O 0.69363 0.76719 0.40778 0.0
C69 C 0.7004 0.8264 0.31034 0.0
Zn70 Zn 0.06179 0.91847 0.31067 0.0
Zn71 Zn 0.15928 0.92123 0.35826 0.0
O72 O 0.17292 0.03705 0.36205 0.0
O73 O 0.11625 0.03513 0.32909 0.0
O74 O 0.26386 0.92684 0.37266 0.0
O75 O 0.13995 0.8853 0.29243 0.0
O76 O 0.1766 0.9226 0.32602 0.0
C77 C 0.15205 0.07291 0.3472 0.0
C78 C 0.9829 0.81929 0.34955 0.0
O79 O 0.03125 0.84429 0.36646 0.0
O80 O 0.01548 0.81447 0.33173 0.0
C81 C 0.28426 0.93552 0.3929 0.0
O82 O 0.22734 0.92526 0.40778 0.0
C83 C 0.16814 0.87294 0.31034 0.0
Zn84 Zn 0.85226 0.9184 0.81068 0.0
Zn85 Zn 0.75753 0.92114 0.85827 0.0
O86 O 0.85968 0.037 0.86206 0.0
O87 O 0.91441 0.03509 0.8291 0.0
O88 O 0.65852 0.92667 0.87267 0.0
O89 O 0.7409 0.88514 0.79245 0.0
O90 O 0.74155 0.92249 0.82603 0.0
C91 C 0.91639 0.07288 0.84721 0.0
C92 C 0.83212 0.81933 0.84958 0.0
O93 O 0.80869 0.84426 0.86649 0.0
O94 O 0.79463 0.81449 0.83178 0.0
C95 C 0.64697 0.93554 0.89291 0.0
O96 O 0.69383 0.92553 0.90779 0.0
C97 C 0.70035 0.87279 0.81035 0.0
Zn98 Zn 0.07615 0.93284 0.81069 0.0
Zn99 Zn 0.07342 0.83535 0.85828 0.0
O100 O 0.95758 0.82167 0.86207 0.0
O101 O 0.95947 0.87832 0.8291 0.0
O102 O 0.06784 0.73078 0.87268 0.0
O103 O 0.10938 0.85473 0.79245 0.0
O104 O 0.07206 0.81804 0.82604 0.0
C105 C 0.92169 0.84251 0.84722 0.0
C106 C 0.17525 0.01174 0.84958 0.0
O107 O 0.15034 0.96338 0.8665 0.0
O108 O 0.18007 0.97909 0.83178 0.0
C109 C 0.05905 0.71035 0.89292 0.0
O110 O 0.06918 0.76724 0.9078 0.0
C111 C 0.12174 0.82652 0.81036 0.0
Zn112 Zn 0.06174 0.14226 0.81068 0.0
Zn113 Zn 0.15919 0.23698 0.85828 0.0
O114 O 0.17291 0.13485 0.86207 0.0
O115 O 0.11626 0.08011 0.82911 0.0
O116 O 0.26373 0.336 0.87268 0.0
O117 O 0.13986 0.25362 0.79245 0.0
O118 O 0.17651 0.25295 0.82604 0.0
C119 C 0.15207 0.07813 0.84722 0.0
C120 C 0.98279 0.16246 0.84956 0.0
O121 O 0.03114 0.18582 0.86648 0.0
O122 O 0.01537 0.19988 0.83175 0.0
C123 C 0.28417 0.34761 0.89292 0.0
O124 O 0.2273 0.30079 0.9078 0.0
C125 C 0.16803 0.29417 0.81036 0.0
Zn126 Zn 0.91745 0.85338 0.64776 0.0
Zn127 Zn 0.92033 0.75872 0.60017 0.0
O128 O 0.0361 0.86098 0.59639 0.0
O129 O 0.03412 0.91567 0.62935 0.0
O130 O 0.92615 0.65987 0.58578 0.0
O131 O 0.8844 0.7421 0.666 0.0
O132 O 0.92173 0.74277 0.63242 0.0
C133 C 0.07194 0.91771 0.61124 0.0
C134 C 0.81832 0.83306 0.60887 0.0
O135 O 0.84328 0.80967 0.59195 0.0
O136 O 0.81355 0.7956 0.62667 0.0
C137 C 0.93449 0.64783 0.56554 0.0
O138 O 0.92377 0.69411 0.55063 0.0
C139 C 0.87207 0.70154 0.6481 0.0
Zn140 Zn 0.14114 0.06299 0.64776 0.0
Zn141 Zn 0.23579 0.16054 0.60017 0.0
O142 O 0.13355 0.17407 0.59638 0.0
O143 O 0.07887 0.11738 0.62934 0.0
O144 O 0.33468 0.26519 0.58578 0.0
O145 O 0.25244 0.14123 0.666 0.0
O146 O 0.25175 0.17787 0.63241 0.0
C147 C 0.07683 0.15318 0.61123 0.0
C148 C 0.16149 0.98417 0.60888 0.0
O149 O 0.1848 0.03252 0.59197 0.0
O150 O 0.1989 0.01678 0.6267 0.0
C151 C 0.34671 0.28558 0.56554 0.0
O152 O 0.3004 0.2286 0.55063 0.0
C153 C 0.29298 0.16944 0.6481 0.0
Zn154 Zn 0.93156 0.07706 0.64776 0.0
Zn155 Zn 0.83401 0.0742 0.60017 0.0
O156 O 0.8205 0.95844 0.59638 0.0
O157 O 0.87718 0.96041 0.62934 0.0
O158 O 0.72933 0.06841 0.58578 0.0
O159 O 0.85331 0.1101 0.666 0.0
O160 O 0.81667 0.0728 0.63241 0.0
C161 C 0.84141 0.92261 0.61122 0.0
C162 C 0.01037 0.17627 0.60888 0.0
O163 O 0.96202 0.15125 0.59196 0.0
O164 O 0.97776 0.18105 0.62669 0.0
C165 C 0.70895 0.06008 0.56554 0.0
O166 O 0.76594 0.07082 0.55063 0.0
C167 C 0.8251 0.12245 0.6481 0.0
Zn168 Zn 0.80783 0.4104 0.4811 0.0
Zn169 Zn 0.90247 0.40748 0.43351 0.0
O170 O 0.80018 0.29173 0.42973 0.0
O171 O 0.74552 0.29371 0.4627 0.0
O172 O 0.00124 0.40154 0.41911 0.0
O173 O 0.91913 0.44348 0.49934 0.0
O174 O 0.91846 0.40611 0.46576 0.0
C175 C 0.74347 0.2559 0.44458 0.0
C176 C 0.82812 0.50949 0.44221 0.0
O177 O 0.85151 0.48453 0.42529 0.0
O178 O 0.86559 0.51428 0.46 0.0
C179 C 0.01345 0.39342 0.39887 0.0
O180 O 0.96743 0.40444 0.38394 0.0
C181 C 0.95968 0.45581 0.48143 0.0
Zn182 Zn 0.58411 0.39631 0.48109 0.0
Zn183 Zn 0.58699 0.49386 0.43351 0.0
O184 O 0.70273 0.5073 0.42972 0.0
O185 O 0.70079 0.45066 0.46269 0.0
O186 O 0.59295 0.59859 0.41911 0.0
O187 O 0.55106 0.47454 0.49933 0.0
O188 O 0.58839 0.51122 0.46575 0.0
C189 C 0.73857 0.48641 0.44457 0.0
C190 C 0.48497 0.31751 0.44221 0.0
O191 O 0.50991 0.36585 0.42529 0.0
O192 O 0.48021 0.3502 0.46 0.0
C193 C 0.60109 0.61894 0.39887 0.0
O194 O 0.59007 0.56191 0.38393 0.0
C195 C 0.53873 0.50277 0.48143 0.0
Zn196 Zn 0.59816 0.1867 0.48111 0.0
Zn197 Zn 0.50065 0.09206 0.43351 0.0
O198 O 0.48717 0.19433 0.42972 0.0
O199 O 0.54381 0.249 0.46268 0.0
O200 O 0.39596 0.99325 0.41911 0.0
O201 O 0.51993 0.07539 0.49934 0.0
O202 O 0.48329 0.07608 0.46575 0.0
C203 C 0.50805 0.25105 0.44457 0.0
C204 C 0.67701 0.16635 0.44223 0.0
O205 O 0.62867 0.14303 0.42531 0.0
O206 O 0.64439 0.12895 0.46004 0.0
C207 C 0.37561 0.98107 0.39887 0.0
O208 O 0.43263 0.02715 0.38394 0.0
C209 C 0.49174 0.03485 0.48143 0.0
Zn210 Zn 0.7428 0.47557 0.64401 0.0
Zn211 Zn 0.74001 0.57027 0.69161 0.0
O212 O 0.62417 0.4681 0.69538 0.0
O213 O 0.62611 0.41338 0.66242 0.0
O214 O 0.73443 0.66924 0.706 0.0
O215 O 0.77598 0.58689 0.62577 0.0
O216 O 0.73865 0.58623 0.65936 0.0
C217 C 0.5883 0.41139 0.68053 0.0
C218 C 0.84188 0.49574 0.68291 0.0
O219 O 0.81694 0.51916 0.69982 0.0
O220 O 0.8467 0.53322 0.66511 0.0
C221 C 0.72564 0.68086 0.72624 0.0
O222 O 0.73576 0.63407 0.74112 0.0
C223 C 0.78833 0.62741 0.64368 0.0
Zn224 Zn 0.51893 0.26606 0.644 0.0
Zn225 Zn 0.42423 0.16858 0.69159 0.0
O226 O 0.52638 0.15488 0.69538 0.0
O227 O 0.5811 0.21155 0.66242 0.0
O228 O 0.32524 0.06404 0.70599 0.0
O229 O 0.40759 0.18793 0.62576 0.0
O230 O 0.40827 0.15127 0.65936 0.0
C231 C 0.58309 0.17572 0.68053 0.0
C232 C 0.49872 0.34498 0.68288 0.0
O233 O 0.47538 0.29661 0.6998 0.0
O234 O 0.46131 0.31241 0.66507 0.0
C235 C 0.31359 0.04365 0.72623 0.0
O236 O 0.36036 0.10055 0.74111 0.0
C237 C 0.36709 0.15979 0.64367 0.0
Zn238 Zn 0.72846 0.25176 0.644 0.0
Zn239 Zn 0.82589 0.25446 0.6916 0.0
O240 O 0.83958 0.3703 0.6954 0.0
O241 O 0.78293 0.3684 0.66244 0.0
O242 O 0.9304 0.25995 0.70601 0.0
O243 O 0.80661 0.21859 0.62577 0.0
O244 O 0.84324 0.25587 0.65937 0.0
C245 C 0.81872 0.40618 0.68055 0.0
C246 C 0.6495 0.15256 0.68288 0.0
O247 O 0.69784 0.17754 0.6998 0.0
O248 O 0.68208 0.14774 0.66507 0.0
C249 C 0.95081 0.26882 0.72625 0.0
O250 O 0.89393 0.25884 0.74111 0.0
C251 C 0.83474 0.2062 0.64368 0.0
Zn252 Zn 0.51896 0.25183 0.144 0.0
Zn253 Zn 0.42429 0.25467 0.19158 0.0
O254 O 0.52651 0.37048 0.19536 0.0
O255 O 0.5812 0.36852 0.1624 0.0
O256 O 0.32538 0.26038 0.20598 0.0
O257 O 0.40766 0.2187 0.12575 0.0
O258 O 0.40832 0.25605 0.15934 0.0
C259 C 0.58322 0.40633 0.18051 0.0
C260 C 0.49874 0.15275 0.18289 0.0
O261 O 0.47534 0.1777 0.19981 0.0
O262 O 0.46126 0.14793 0.16509 0.0
C263 C 0.31355 0.26894 0.22622 0.0
O264 O 0.36007 0.2585 0.24112 0.0
C265 C 0.36714 0.20635 0.14366 0.0
Zn266 Zn 0.74274 0.26605 0.14399 0.0
Zn267 Zn 0.73996 0.16857 0.19159 0.0
O268 O 0.62417 0.155 0.19538 0.0
O269 O 0.62608 0.21164 0.16241 0.0
O270 O 0.73428 0.06397 0.20599 0.0
O271 O 0.77584 0.18786 0.12575 0.0
O272 O 0.73853 0.1512 0.15935 0.0
C273 C 0.5883 0.17587 0.18053 0.0
C274 C 0.84189 0.34494 0.18288 0.0
O275 O 0.81697 0.29659 0.1998 0.0
O276 O 0.84667 0.31226 0.16508 0.0
C277 C 0.72569 0.04358 0.22623 0.0
O278 O 0.73609 0.10053 0.24112 0.0
C279 C 0.7882 0.15969 0.14366 0.0
Zn280 Zn 0.72855 0.47561 0.14398 0.0
Zn281 Zn 0.82604 0.57029 0.19158 0.0
O282 O 0.83963 0.46809 0.19537 0.0
O283 O 0.78298 0.41338 0.1624 0.0
O284 O 0.93066 0.6692 0.20598 0.0
O285 O 0.80673 0.58693 0.12574 0.0
O286 O 0.84338 0.58625 0.15934 0.0
C287 C 0.81877 0.41137 0.18052 0.0
C288 C 0.64966 0.49589 0.18286 0.0
O289 O 0.69801 0.51923 0.19978 0.0
O290 O 0.68224 0.53329 0.16505 0.0
C291 C 0.95104 0.6811 0.22622 0.0
O292 O 0.89406 0.63467 0.24112 0.0
C293 C 0.83487 0.62743 0.14365 0.0
Zn294 Zn 0.58413 0.18671 -0.0189 0.0
Zn295 Zn 0.58706 0.09209 0.93351 0.0
O296 O 0.7028 0.19439 0.92974 0.0
O297 O 0.70082 0.24904 0.9627 0.0
O298 O 0.59309 0.99336 0.91912 0.0
O299 O 0.55105 0.0754 -0.00066 0.0
O300 O 0.58843 0.07609 0.96576 0.0
C301 C 0.73863 0.2511 0.94459 0.0
C302 C 0.48503 0.1664 0.94221 0.0
O303 O 0.50998 0.14302 0.92529 0.0
O304 O 0.48024 0.12893 0.96001 0.0
C305 C 0.60109 0.98101 0.89888 0.0
O306 O 0.58988 0.02686 0.88393 0.0
C307 C 0.53873 0.03486 -0.01856 0.0
Zn308 Zn 0.80784 0.39639 -0.01889 0.0
Zn309 Zn 0.90246 0.49392 0.93352 0.0
O310 O 0.80018 0.5074 0.92973 0.0
O311 O 0.74553 0.45075 0.9627 0.0
O312 O 0.00125 0.59864 0.91912 0.0
O313 O 0.91916 0.47462 -0.00066 0.0
O314 O 0.91846 0.51128 0.96576 0.0
C315 C 0.74348 0.48652 0.94458 0.0
C316 C 0.82818 0.31757 0.94223 0.0
O317 O 0.85149 0.36591 0.92531 0.0
O318 O 0.86559 0.35017 0.96004 0.0
C319 C 0.01351 0.619 0.89888 0.0
O320 O 0.96754 0.56198 0.88394 0.0
C321 C 0.95969 0.50281 -0.01856 0.0
Zn322 Zn 0.59818 0.4104 -0.01889 0.0
Zn323 Zn 0.50065 0.40751 0.93351 0.0
O324 O 0.4872 0.29178 0.92972 0.0
O325 O 0.54384 0.29373 0.96269 0.0
O326 O 0.3959 0.40154 0.91912 0.0
O327 O 0.51995 0.44346 -0.00066 0.0
O328 O 0.4833 0.40613 0.96575 0.0
C329 C 0.5081 0.25595 0.94457 0.0
C330 C 0.677 0.50959 0.94223 0.0
O331 O 0.62866 0.48458 0.92531 0.0
O332 O 0.64439 0.51438 0.96004 0.0
C333 C 0.37553 0.39346 0.89888 0.0
O334 O 0.43256 0.40457 0.88394 0.0
C335 C 0.49175 0.45581 -0.01857 0.0
Zn336 Zn 0.47448 0.74369 0.81444 0.0
Zn337 Zn 0.56909 0.74073 0.76685 0.0
O338 O 0.46678 0.625 0.76307 0.0
O339 O 0.41213 0.627 0.79604 0.0
O340 O 0.66784 0.73473 0.75245 0.0
O341 O 0.58574 0.77669 0.83269 0.0
O342 O 0.58506 0.73933 0.7991 0.0
C343 C 0.41006 0.58918 0.77792 0.0
C344 C 0.4948 0.84279 0.77554 0.0
O345 O 0.51817 0.81781 0.75863 0.0
O346 O 0.53227 0.84757 0.79334 0.0
C347 C 0.68013 0.72669 0.73222 0.0
O348 O 0.63422 0.73784 0.71728 0.0
C349 C 0.62625 0.78902 0.81478 0.0
Zn350 Zn 0.25082 0.72971 0.81444 0.0
Zn351 Zn 0.25371 0.82724 0.76685 0.0
O352 O 0.36943 0.84064 0.76306 0.0
O353 O 0.36748 0.78401 0.79603 0.0
O354 O 0.25968 0.93197 0.75245 0.0
O355 O 0.21785 0.80799 0.83269 0.0
O356 O 0.25517 0.84464 0.79909 0.0
C357 C 0.40526 0.81974 0.7779 0.0
C358 C 0.15165 0.65091 0.77556 0.0
O359 O 0.17659 0.69924 0.75864 0.0
O360 O 0.1469 0.68361 0.79336 0.0
C361 C 0.26775 0.95231 0.73221 0.0
O362 O 0.25665 0.89525 0.71727 0.0
C363 C 0.2055 0.83616 0.81478 0.0
Zn364 Zn 0.26477 0.52002 0.81445 0.0
Zn365 Zn 0.16723 0.42541 0.76686 0.0
O366 O 0.1538 0.52771 0.76307 0.0
O367 O 0.21045 0.58237 0.79604 0.0
O368 O 0.06248 0.32666 0.75246 0.0
O369 O 0.1865 0.40875 0.8327 0.0
O370 O 0.14986 0.40944 0.7991 0.0
C371 C 0.17471 0.58443 0.77792 0.0
C372 C 0.34358 0.49964 0.77557 0.0
O373 O 0.29523 0.47633 0.75865 0.0
O374 O 0.31097 0.46225 0.79338 0.0
C375 C 0.04215 0.31429 0.73222 0.0
O376 O 0.09923 0.36012 0.71728 0.0
C377 C 0.15835 0.36825 0.81478 0.0
Zn378 Zn 0.40943 0.80895 0.97733 0.0
Zn379 Zn 0.4066 0.9036 0.02492 0.0
O380 O 0.2908 0.80138 0.0287 0.0
O381 O 0.29273 0.7467 -0.00427 0.0
O382 O 0.40077 0.00244 0.03932 0.0
O383 O 0.44262 0.92028 0.95909 0.0
O384 O 0.40524 0.9196 -0.00732 0.0
C385 C 0.25493 0.74468 0.01385 0.0
C386 C 0.5085 0.82913 0.01623 0.0
O387 O 0.48356 0.85255 0.03314 0.0
O388 O 0.51332 0.86661 -0.00157 0.0
C389 C 0.3924 0.01445 0.05956 0.0
O390 O 0.40312 0.96819 0.07448 0.0
C391 C 0.45496 0.96078 0.977 0.0
Zn392 Zn 0.18558 0.59934 0.97732 0.0
Zn393 Zn 0.09093 0.50188 0.02492 0.0
O394 O 0.19312 0.48826 0.02871 0.0
O395 O 0.2478 0.54489 -0.00426 0.0
O396 O 0.99203 0.39725 0.03932 0.0
O397 O 0.07423 0.5212 0.95909 0.0
O398 O 0.07493 0.48453 -0.00732 0.0
C399 C 0.24982 0.5091 0.01385 0.0
C400 C 0.16536 0.67826 0.0162 0.0
O401 O 0.14203 0.62991 0.03312 0.0
O402 O 0.12794 0.64568 -0.00161 0.0
C403 C 0.9801 0.37687 0.05956 0.0
O404 O 0.02648 0.43381 0.07447 0.0
C405 C 0.03375 0.49308 0.977 0.0
Zn406 Zn 0.39516 0.58513 0.97733 0.0
Zn407 Zn 0.49263 0.58791 0.02493 0.0
O408 O 0.50622 0.7037 0.02871 0.0
O409 O 0.44959 0.70179 -0.00425 0.0
O410 O 0.59728 0.59368 0.03932 0.0
O411 O 0.47331 0.55195 0.95909 0.0
O412 O 0.50997 0.58928 -0.00731 0.0
C413 C 0.48536 0.73957 0.01387 0.0
C414 C 0.31625 0.48596 0.01621 0.0
O415 O 0.3646 0.51095 0.03313 0.0
O416 O 0.34883 0.48114 -0.0016 0.0
C417 C 0.61768 0.60212 0.05956 0.0
O418 O 0.56073 0.5915 0.07448 0.0
C419 C 0.50144 0.53958 0.97701 0.0
Zn420 Zn 0.18559 0.58513 0.47733 0.0
Zn421 Zn 0.09092 0.58794 0.52492 0.0
O422 O 0.19312 0.70375 0.5287 0.0
O423 O 0.24782 0.70182 0.49574 0.0
O424 O 0.99204 0.59368 0.53933 0.0
O425 O 0.07426 0.55193 0.45909 0.0
O426 O 0.07493 0.5893 0.49268 0.0
C427 C 0.24982 0.73962 0.51385 0.0
C428 C 0.16542 0.48606 0.51623 0.0
O429 O 0.14201 0.511 0.53314 0.0
O430 O 0.12794 0.48123 0.49843 0.0
C431 C 0.98016 0.60217 0.55957 0.0
O432 O 0.0266 0.59163 0.57447 0.0
C433 C 0.03376 0.53958 0.477 0.0
Zn434 Zn 0.40944 0.59943 0.47734 0.0
Zn435 Zn 0.40666 0.50194 0.52493 0.0
O436 O 0.29086 0.48836 0.52872 0.0
O437 O 0.29276 0.54498 0.49575 0.0
O438 O 0.40091 0.39731 0.53933 0.0
O439 O 0.4426 0.52127 0.4591 0.0
O440 O 0.40527 0.48459 0.49269 0.0
C441 C 0.25499 0.50921 0.51387 0.0
C442 C 0.50855 0.67832 0.51623 0.0
O443 O 0.48364 0.62997 0.53315 0.0
O444 O 0.51336 0.64565 0.49843 0.0
C445 C 0.39241 0.37692 0.55957 0.0
O446 O 0.40294 0.43388 0.57448 0.0
C447 C 0.45496 0.49312 0.47701 0.0
Zn448 Zn 0.39518 0.80895 0.47733 0.0
Zn449 Zn 0.49263 0.90363 0.52493 0.0
O450 O 0.50625 0.80144 0.52872 0.0
O451 O 0.44963 0.74674 0.49575 0.0
O452 O 0.59722 0.00254 0.53933 0.0
O453 O 0.47333 0.92029 0.45909 0.0
O454 O 0.50998 0.91961 0.49269 0.0
C455 C 0.48541 0.74473 0.51387 0.0
C456 C 0.31624 0.82919 0.5162 0.0
O457 O 0.36459 0.85253 0.53312 0.0
O458 O 0.34883 0.8666 0.49839 0.0
C459 C 0.6176 0.01439 0.55957 0.0
O460 O 0.56066 0.96791 0.57447 0.0
C461 C 0.50145 0.96078 0.47701 0.0
Zn462 Zn 0.25076 0.52007 0.31442 0.0
Zn463 Zn 0.25366 0.42543 0.26683 0.0
O464 O 0.36943 0.5277 0.26305 0.0
O465 O 0.36745 0.58237 0.29602 0.0
O466 O 0.25953 0.32662 0.25243 0.0
O467 O 0.21771 0.40879 0.33267 0.0
O468 O 0.25505 0.40946 0.29907 0.0
C469 C 0.40527 0.58441 0.2779 0.0
C470 C 0.15166 0.49979 0.27553 0.0
O471 O 0.17662 0.4764 0.25861 0.0
O472 O 0.14687 0.46232 0.29332 0.0
C473 C 0.26781 0.31454 0.23219 0.0
O474 O 0.25699 0.36072 0.21727 0.0
C475 C 0.20537 0.36827 0.31476 0.0
Zn476 Zn 0.47451 0.7297 0.31444 0.0
Zn477 Zn 0.56915 0.82723 0.26684 0.0
O478 O 0.4669 0.84076 0.26306 0.0
O479 O 0.41223 0.7841 0.29602 0.0
O480 O 0.66798 0.9319 0.25244 0.0
O481 O 0.58581 0.80792 0.33268 0.0
O482 O 0.58512 0.84458 0.29908 0.0
C483 C 0.41019 0.81988 0.27791 0.0
C484 C 0.49482 0.65087 0.27555 0.0
O485 O 0.51814 0.69922 0.25863 0.0
O486 O 0.53223 0.68346 0.29336 0.0
C487 C 0.68009 0.95224 0.2322 0.0
O488 O 0.63392 0.89523 0.21728 0.0
C489 C 0.62631 0.83607 0.31477 0.0
Zn490 Zn 0.26486 0.74376 0.31443 0.0
Zn491 Zn 0.16738 0.74094 0.26683 0.0
O492 O 0.15386 0.62518 0.26304 0.0
O493 O 0.2105 0.62712 0.296 0.0
O494 O 0.06273 0.73517 0.25243 0.0
O495 O 0.18662 0.7768 0.33267 0.0
O496 O 0.15 0.73951 0.29907 0.0
C497 C 0.17475 0.58933 0.27789 0.0
C498 C 0.34374 0.84298 0.27556 0.0
O499 O 0.2954 0.81798 0.25864 0.0
O500 O 0.31113 0.84776 0.29337 0.0
C501 C 0.04238 0.72681 0.23219 0.0
O502 O 0.09937 0.7375 0.21728 0.0
C503 C 0.15848 0.78917 0.31476 0.0
loop_
_geom_bond_atom_site_label_1
_geom_bond_atom_site_label_2
_geom_bond_distance
_geom_bond_site_symmetry_2
_ccdc_geom_bond_type
Zn0 O3 2.031 1_545 S
Zn0 O5 2.049 . S
Zn0 O10 2.067 . S
Zn1 O2 1.962 1_545 S
Zn1 O4 1.986 . S
Zn1 O6 1.996 . S
Zn1 O9 1.943 . S
O2 Zn1 1.962 1_565 S
O2 C7 1.254 . S
O3 Zn0 2.031 1_565 S
O3 C7 1.269 . S
O4 Zn1 1.986 . S
O4 C11 1.262 . S
O5 Zn0 2.049 . S
O5 C13 1.260 . S
O6 Zn1 1.996 . S
O6 C13 1.257 . S
C7 O2 1.254 . S
C7 O3 1.269 . S
C8 O9 1.249 . S
C8 O10 1.270 . S
O9 Zn1 1.943 . S
O9 C8 1.249 . S
O10 Zn0 2.067 . S
O10 C8 1.270 . S
C11 O4 1.262 . S
C11 O12 1.232 1_545 S
O12 C11 1.232 1_565 S
C13 O5 1.260 . S
C13 O6 1.257 . S
Zn14 O17 2.031 1_655 S
Zn14 O19 2.049 . S
Zn14 O24 2.067 1_545 S
Zn15 O16 1.962 1_655 S
Zn15 O18 1.986 . S
Zn15 O20 1.996 . S
Zn15 O23 1.943 . S
O16 Zn15 1.962 1_455 S
O16 C21 1.254 . S
O17 Zn14 2.031 1_455 S
O17 C21 1.269 . S
O18 Zn15 1.986 . S
O18 C25 1.262 . S
O19 Zn14 2.049 . S
O19 C27 1.260 . S
O20 Zn15 1.996 . S
O20 C27 1.257 . S
C21 O16 1.254 . S
C21 O17 1.269 . S
C22 O23 1.249 . S
C22 O24 1.270 1_545 S
O23 Zn15 1.943 . S
O23 C22 1.249 . S
O24 Zn14 2.067 1_565 S
O24 C22 1.270 1_565 S
C25 O18 1.262 . S
C25 O26 1.232 1_655 S
O26 C25 1.232 1_455 S
C27 O19 1.260 . S
C27 O20 1.257 . S
Zn28 O31 2.031 . S
Zn28 O33 2.049 . S
Zn28 O38 2.067 1_655 S
Zn29 O30 1.962 . S
Zn29 O32 1.986 . S
Zn29 O34 1.996 . S
Zn29 O37 1.943 . S
O30 Zn29 1.962 . S
O30 C35 1.254 . S
O31 Zn28 2.031 . S
O31 C35 1.269 . S
O32 Zn29 1.986 . S
O32 C39 1.262 . S
O33 Zn28 2.049 . S
O33 C41 1.260 . S
O34 Zn29 1.996 . S
O34 C41 1.257 . S
C35 O30 1.254 . S
C35 O31 1.269 . S
C36 O37 1.261 . S
C36 O38 1.268 1_655 S
O37 Zn29 1.943 . S
O37 C36 1.261 . S
O38 Zn28 2.067 1_455 S
O38 C36 1.268 1_455 S
C39 O32 1.262 . S
C39 O40 1.232 . S
O40 C39 1.232 . S
C41 O33 1.260 . S
C41 O34 1.257 . S
Zn42 O45 2.031 1_455 S
Zn42 O47 2.049 . S
Zn42 O52 2.067 . S
Zn43 O44 1.962 1_455 S
Zn43 O46 1.986 . S
Zn43 O48 1.996 . S
Zn43 O51 1.943 . S
O44 Zn43 1.962 1_655 S
O44 C49 1.254 . S
O45 Zn42 2.031 1_655 S
O45 C49 1.269 . S
O46 Zn43 1.986 . S
O46 C53 1.262 . S
O47 Zn42 2.049 . S
O47 C55 1.260 . S
O48 Zn43 1.996 . S
O48 C55 1.257 . S
C49 O44 1.254 . S
C49 O45 1.269 . S
C50 O51 1.249 . S
C50 O52 1.270 . S
O51 Zn43 1.943 . S
O51 C50 1.249 . S
O52 Zn42 2.067 . S
O52 C50 1.270 . S
C53 O46 1.262 . S
C53 O54 1.232 1_455 S
O54 C53 1.232 1_655 S
C55 O47 1.260 . S
C55 O48 1.257 . S
Zn56 O59 2.031 . S
Zn56 O61 2.049 . S
Zn56 O66 2.067 1_565 S
Zn57 O58 1.962 . S
Zn57 O60 1.986 . S
Zn57 O62 1.996 . S
Zn57 O65 1.943 . S
O58 Zn57 1.962 . S
O58 C63 1.254 . S
O59 Zn56 2.031 . S
O59 C63 1.269 . S
O60 Zn57 1.986 . S
O60 C67 1.262 . S
O61 Zn56 2.049 . S
O61 C69 1.260 . S
O62 Zn57 1.996 . S
O62 C69 1.257 . S
C63 O58 1.254 . S
C63 O59 1.269 . S
C64 O65 1.261 . S
C64 O66 1.268 1_565 S
O65 Zn57 1.943 . S
O65 C64 1.261 . S
O66 Zn56 2.067 1_545 S
O66 C64 1.268 1_545 S
C67 O60 1.262 . S
C67 O68 1.232 . S
O68 C67 1.232 . S
C69 O61 1.260 . S
C69 O62 1.257 . S
Zn70 O73 2.031 1_565 S
Zn70 O75 2.049 . S
Zn70 O80 2.067 1_455 S
Zn71 O72 1.962 1_565 S
Zn71 O74 1.986 . S
Zn71 O76 1.996 . S
Zn71 O79 1.943 . S
O72 Zn71 1.962 1_545 S
O72 C77 1.254 . S
O73 Zn70 2.031 1_545 S
O73 C77 1.269 . S
O74 Zn71 1.986 . S
O74 C81 1.262 . S
O75 Zn70 2.049 . S
O75 C83 1.260 . S
O76 Zn71 1.996 . S
O76 C83 1.257 . S
C77 O72 1.254 . S
C77 O73 1.269 . S
C78 O79 1.249 . S
C78 O80 1.270 1_455 S
O79 Zn71 1.943 . S
O79 C78 1.249 . S
O80 Zn70 2.067 1_655 S
O80 C78 1.270 1_655 S
C81 O74 1.262 . S
C81 O82 1.232 1_565 S
O82 C81 1.232 1_545 S
C83 O75 1.260 . S
C83 O76 1.257 . S
Zn84 O87 2.031 1_565 S
Zn84 O89 2.049 . S
Zn84 O94 2.067 . S
Zn85 O86 1.962 1_565 S
Zn85 O88 1.986 . S
Zn85 O90 1.996 . S
Zn85 O93 1.943 . S
O86 Zn85 1.962 1_545 S
O86 C91 1.254 . S
O87 Zn84 2.031 1_545 S
O87 C91 1.269 . S
O88 Zn85 1.986 . S
O88 C95 1.262 . S
O89 Zn84 2.049 . S
O89 C97 1.260 . S
O90 Zn85 1.996 . S
O90 C97 1.257 . S
C91 O86 1.254 . S
C91 O87 1.269 . S
C92 O93 1.249 . S
C92 O94 1.270 . S
O93 Zn85 1.943 . S
O93 C92 1.249 . S
O94 Zn84 2.067 . S
O94 C92 1.270 . S
C95 O88 1.262 . S
C95 O96 1.232 1_565 S
O96 C95 1.232 1_545 S
C97 O89 1.260 . S
C97 O90 1.257 . S
Zn98 O101 2.031 1_455 S
Zn98 O103 2.049 . S
Zn98 O108 2.067 1_565 S
Zn99 O100 1.962 1_455 S
Zn99 O102 1.986 . S
Zn99 O104 1.996 . S
Zn99 O107 1.943 . S
O100 Zn99 1.962 1_655 S
O100 C105 1.254 . S
O101 Zn98 2.031 1_655 S
O101 C105 1.269 . S
O102 Zn99 1.986 . S
O102 C109 1.262 . S
O103 Zn98 2.049 . S
O103 C111 1.260 . S
O104 Zn99 1.996 . S
O104 C111 1.257 . S
C105 O100 1.254 . S
C105 O101 1.269 . S
C106 O107 1.249 . S
C106 O108 1.270 1_565 S
O107 Zn99 1.943 . S
O107 C106 1.249 . S
O108 Zn98 2.067 1_545 S
O108 C106 1.270 1_545 S
C109 O102 1.262 . S
C109 O110 1.232 1_455 S
O110 C109 1.232 1_655 S
C111 O103 1.260 . S
C111 O104 1.257 . S
Zn112 O115 2.031 . S
Zn112 O117 2.049 . S
Zn112 O122 2.067 1_455 S
Zn113 O114 1.962 . S
Zn113 O116 1.986 . S
Zn113 O118 1.996 . S
Zn113 O121 1.943 . S
O114 Zn113 1.962 . S
O114 C119 1.254 . S
O115 Zn112 2.031 . S
O115 C119 1.269 . S
O116 Zn113 1.986 . S
O116 C123 1.262 . S
O117 Zn112 2.049 . S
O117 C125 1.260 . S
O118 Zn113 1.996 . S
O118 C125 1.257 . S
C119 O114 1.254 . S
C119 O115 1.269 . S
C120 O121 1.261 . S
C120 O122 1.268 1_455 S
O121 Zn113 1.943 . S
O121 C120 1.261 . S
O122 Zn112 2.067 1_655 S
O122 C120 1.268 1_655 S
C123 O116 1.262 . S
C123 O124 1.232 . S
O124 C123 1.232 . S
C125 O117 1.260 . S
C125 O118 1.257 . S
Zn126 O129 2.031 1_655 S
Zn126 O131 2.049 . S
Zn126 O136 2.067 . S
Zn127 O128 1.962 1_655 S
Zn127 O130 1.986 . S
Zn127 O132 1.996 . S
Zn127 O135 1.943 . S
O128 Zn127 1.962 1_455 S
O128 C133 1.254 . S
O129 Zn126 2.031 1_455 S
O129 C133 1.269 . S
O130 Zn127 1.986 . S
O130 C137 1.262 . S
O131 Zn126 2.049 . S
O131 C139 1.260 . S
O132 Zn127 1.996 . S
O132 C139 1.257 . S
C133 O128 1.254 . S
C133 O129 1.269 . S
C134 O135 1.249 . S
C134 O136 1.270 . S
O135 Zn127 1.943 . S
O135 C134 1.249 . S
O136 Zn126 2.067 . S
O136 C134 1.270 . S
C137 O130 1.262 . S
C137 O138 1.232 1_655 S
O138 C137 1.232 1_455 S
C139 O131 1.260 . S
C139 O132 1.257 . S
Zn140 O143 2.031 . S
Zn140 O145 2.049 . S
Zn140 O150 2.067 1_545 S
Zn141 O142 1.962 . S
Zn141 O144 1.986 . S
Zn141 O146 1.996 . S
Zn141 O149 1.943 . S
O142 Zn141 1.962 . S
O142 C147 1.254 . S
O143 Zn140 2.031 . S
O143 C147 1.269 . S
O144 Zn141 1.986 . S
O144 C151 1.262 . S
O145 Zn140 2.049 . S
O145 C153 1.260 . S
O146 Zn141 1.996 . S
O146 C153 1.257 . S
C147 O142 1.254 . S
C147 O143 1.269 . S
C148 O149 1.261 . S
C148 O150 1.268 1_545 S
O149 Zn141 1.943 . S
O149 C148 1.261 . S
O150 Zn140 2.067 1_565 S
O150 C148 1.268 1_565 S
C151 O144 1.262 . S
C151 O152 1.232 . S
O152 C151 1.232 . S
C153 O145 1.260 . S
C153 O146 1.257 . S
Zn154 O157 2.031 1_545 S
Zn154 O159 2.049 . S
Zn154 O164 2.067 1_655 S
Zn155 O156 1.962 1_545 S
Zn155 O158 1.986 . S
Zn155 O160 1.996 . S
Zn155 O163 1.943 . S
O156 Zn155 1.962 1_565 S
O156 C161 1.254 . S
O157 Zn154 2.031 1_565 S
O157 C161 1.269 . S
O158 Zn155 1.986 . S
O158 C165 1.262 . S
O159 Zn154 2.049 . S
O159 C167 1.260 . S
O160 Zn155 1.996 . S
O160 C167 1.257 . S
C161 O156 1.254 . S
C161 O157 1.269 . S
C162 O163 1.249 . S
C162 O164 1.270 1_655 S
O163 Zn155 1.943 . S
O163 C162 1.249 . S
O164 Zn154 2.067 1_455 S
O164 C162 1.270 1_455 S
C165 O158 1.262 . S
C165 O166 1.232 1_545 S
O166 C165 1.232 1_565 S
C167 O159 1.260 . S
C167 O160 1.257 . S
Zn168 O171 2.031 . S
Zn168 O173 2.049 . S
Zn168 O178 2.067 . S
Zn169 O170 1.962 . S
Zn169 O172 1.986 . S
Zn169 O174 1.996 . S
Zn169 O177 1.943 . S
O170 Zn169 1.962 . S
O170 C175 1.254 . S
O171 Zn168 2.031 . S
O171 C175 1.269 . S
O172 Zn169 1.986 . S
O172 C179 1.262 . S
O173 Zn168 2.049 . S
O173 C181 1.260 . S
O174 Zn169 1.996 . S
O174 C181 1.257 . S
C175 O170 1.254 . S
C175 O171 1.269 . S
C176 O177 1.249 . S
C176 O178 1.270 . S
O177 Zn169 1.943 . S
O177 C176 1.249 . S
O178 Zn168 2.067 . S
O178 C176 1.270 . S
C179 O172 1.262 . S
C179 O180 1.232 . S
O180 C179 1.232 . S
C181 O173 1.260 . S
C181 O174 1.257 . S
Zn182 O185 2.031 . S
Zn182 O187 2.049 . S
Zn182 O192 2.067 . S
Zn183 O184 1.962 . S
Zn183 O186 1.986 . S
Zn183 O188 1.996 . S
Zn183 O191 1.943 . S
O184 Zn183 1.962 . S
O184 C189 1.254 . S
O185 Zn182 2.031 . S
O185 C189 1.269 . S
O186 Zn183 1.986 . S
O186 C193 1.262 . S
O187 Zn182 2.049 . S
O187 C195 1.260 . S
O188 Zn183 1.996 . S
O188 C195 1.257 . S
C189 O184 1.254 . S
C189 O185 1.269 . S
C190 O191 1.249 . S
C190 O192 1.270 . S
O191 Zn183 1.943 . S
O191 C190 1.249 . S
O192 Zn182 2.067 . S
O192 C190 1.270 . S
C193 O186 1.262 . S
C193 O194 1.232 . S
O194 C193 1.232 . S
C195 O187 1.260 . S
C195 O188 1.257 . S
Zn196 O199 2.031 . S
Zn196 O201 2.049 . S
Zn196 O206 2.067 . S
Zn197 O198 1.962 . S
Zn197 O200 1.986 . S
Zn197 O202 1.996 . S
Zn197 O205 1.943 . S
O198 Zn197 1.962 . S
O198 C203 1.254 . S
O199 Zn196 2.031 . S
O199 C203 1.269 . S
O200 Zn197 1.986 . S
O200 C207 1.262 . S
O201 Zn196 2.049 . S
O201 C209 1.260 . S
O202 Zn197 1.996 . S
O202 C209 1.257 . S
C203 O198 1.254 . S
C203 O199 1.269 . S
C204 O205 1.249 . S
C204 O206 1.270 . S
O205 Zn197 1.943 . S
O205 C204 1.249 . S
O206 Zn196 2.067 . S
O206 C204 1.270 . S
C207 O200 1.262 . S
C207 O208 1.232 . S
O208 C207 1.232 . S
C209 O201 1.260 . S
C209 O202 1.257 . S
Zn210 O213 2.031 . S
Zn210 O215 2.049 . S
Zn210 O220 2.067 . S
Zn211 O212 1.962 . S
Zn211 O214 1.986 . S
Zn211 O216 1.996 . S
Zn211 O219 1.943 . S
O212 Zn211 1.962 . S
O212 C217 1.254 . S
O213 Zn210 2.031 . S
O213 C217 1.269 . S
O214 Zn211 1.986 . S
O214 C221 1.262 . S
O215 Zn210 2.049 . S
O215 C223 1.260 . S
O216 Zn211 1.996 . S
O216 C223 1.257 . S
C217 O212 1.254 . S
C217 O213 1.269 . S
C218 O219 1.249 . S
C218 O220 1.270 . S
O219 Zn211 1.943 . S
O219 C218 1.249 . S
O220 Zn210 2.067 . S
O220 C218 1.270 . S
C221 O214 1.262 . S
C221 O222 1.232 . S
O222 C221 1.232 . S
C223 O215 1.260 . S
C223 O216 1.257 . S
Zn224 O227 2.031 . S
Zn224 O229 2.049 . S
Zn224 O234 2.067 . S
Zn225 O226 1.962 . S
Zn225 O228 1.986 . S
Zn225 O230 1.996 . S
Zn225 O233 1.943 . S
O226 Zn225 1.962 . S
O226 C231 1.254 . S
O227 Zn224 2.031 . S
O227 C231 1.269 . S
O228 Zn225 1.986 . S
O228 C235 1.262 . S
O229 Zn224 2.049 . S
O229 C237 1.260 . S
O230 Zn225 1.996 . S
O230 C237 1.257 . S
C231 O226 1.254 . S
C231 O227 1.269 . S
C232 O233 1.249 . S
C232 O234 1.270 . S
O233 Zn225 1.943 . S
O233 C232 1.249 . S
O234 Zn224 2.067 . S
O234 C232 1.270 . S
C235 O228 1.262 . S
C235 O236 1.232 . S
O236 C235 1.232 . S
C237 O229 1.260 . S
C237 O230 1.257 . S
Zn238 O241 2.031 . S
Zn238 O243 2.049 . S
Zn238 O248 2.067 . S
Zn239 O240 1.962 . S
Zn239 O242 1.986 . S
Zn239 O244 1.996 . S
Zn239 O247 1.943 . S
O240 Zn239 1.962 . S
O240 C245 1.254 . S
O241 Zn238 2.031 . S
O241 C245 1.269 . S
O242 Zn239 1.986 . S
O242 C249 1.262 . S
O243 Zn238 2.049 . S
O243 C251 1.260 . S
O244 Zn239 1.996 . S
O244 C251 1.257 . S
C245 O240 1.254 . S
C245 O241 1.269 . S
C246 O247 1.249 . S
C246 O248 1.270 . S
O247 Zn239 1.943 . S
O247 C246 1.249 . S
O248 Zn238 2.067 . S
O248 C246 1.270 . S
C249 O242 1.262 . S
C249 O250 1.232 . S
O250 C249 1.232 . S
C251 O243 1.260 . S
C251 O244 1.257 . S
Zn252 O255 2.031 . S
Zn252 O257 2.049 . S
Zn252 O262 2.067 . S
Zn253 O254 1.962 . S
Zn253 O256 1.986 . S
Zn253 O258 1.996 . S
Zn253 O261 1.943 . S
O254 Zn253 1.962 . S
O254 C259 1.254 . S
O255 Zn252 2.031 . S
O255 C259 1.269 . S
O256 Zn253 1.986 . S
O256 C263 1.262 . S
O257 Zn252 2.049 . S
O257 C265 1.260 . S
O258 Zn253 1.996 . S
O258 C265 1.257 . S
C259 O254 1.254 . S
C259 O255 1.269 . S
C260 O261 1.249 . S
C260 O262 1.270 . S
O261 Zn253 1.943 . S
O261 C260 1.249 . S
O262 Zn252 2.067 . S
O262 C260 1.270 . S
C263 O256 1.262 . S
C263 O264 1.232 . S
O264 C263 1.232 . S
C265 O257 1.260 . S
C265 O258 1.257 . S
Zn266 O269 2.031 . S
Zn266 O271 2.049 . S
Zn266 O276 2.067 . S
Zn267 O268 1.962 . S
Zn267 O270 1.986 . S
Zn267 O272 1.996 . S
Zn267 O275 1.943 . S
O268 Zn267 1.962 . S
O268 C273 1.254 . S
O269 Zn266 2.031 . S
O269 C273 1.269 . S
O270 Zn267 1.986 . S
O270 C277 1.262 . S
O271 Zn266 2.049 . S
O271 C279 1.260 . S
O272 Zn267 1.996 . S
O272 C279 1.257 . S
C273 O268 1.254 . S
C273 O269 1.269 . S
C274 O275 1.249 . S
C274 O276 1.270 . S
O275 Zn267 1.943 . S
O275 C274 1.249 . S
O276 Zn266 2.067 . S
O276 C274 1.270 . S
C277 O270 1.262 . S
C277 O278 1.232 . S
O278 C277 1.232 . S
C279 O271 1.260 . S
C279 O272 1.257 . S
Zn280 O283 2.031 . S
Zn280 O285 2.049 . S
Zn280 O290 2.067 . S
Zn281 O282 1.962 . S
Zn281 O284 1.986 . S
Zn281 O286 1.996 . S
Zn281 O289 1.943 . S
O282 Zn281 1.962 . S
O282 C287 1.254 . S
O283 Zn280 2.031 . S
O283 C287 1.269 . S
O284 Zn281 1.986 . S
O284 C291 1.262 . S
O285 Zn280 2.049 . S
O285 C293 1.260 . S
O286 Zn281 1.996 . S
O286 C293 1.257 . S
C287 O282 1.254 . S
C287 O283 1.269 . S
C288 O289 1.249 . S
C288 O290 1.270 . S
O289 Zn281 1.943 . S
O289 C288 1.249 . S
O290 Zn280 2.067 . S
O290 C288 1.270 . S
C291 O284 1.262 . S
C291 O292 1.232 . S
O292 C291 1.232 . S
C293 O285 1.260 . S
C293 O286 1.257 . S
Zn294 O297 2.031 . S
Zn294 O299 2.049 1_556 S
Zn294 O304 2.067 . S
Zn295 O296 1.962 . S
Zn295 O298 1.986 . S
Zn295 O300 1.996 . S
Zn295 O303 1.943 . S
O296 Zn295 1.962 . S
O296 C301 1.254 . S
O297 Zn294 2.031 . S
O297 C301 1.269 . S
O298 Zn295 1.986 . S
O298 C305 1.262 . S
O299 Zn294 2.049 1_554 S
O299 C307 1.238 1_554 S
O300 Zn295 1.996 . S
O300 C307 1.288 . S
C301 O296 1.254 . S
C301 O297 1.269 . S
C302 O303 1.249 . S
C302 O304 1.270 . S
O303 Zn295 1.943 . S
O303 C302 1.249 . S
O304 Zn294 2.067 . S
O304 C302 1.270 . S
C305 O298 1.262 . S
C305 O306 1.232 . S
O306 C305 1.232 . S
C307 O299 1.238 1_556 S
C307 O300 1.288 . S
Zn308 O311 2.031 . S
Zn308 O313 2.049 1_556 S
Zn308 O318 2.067 . S
Zn309 O310 1.962 . S
Zn309 O312 1.986 . S
Zn309 O314 1.996 . S
Zn309 O317 1.943 . S
O310 Zn309 1.962 . S
O310 C315 1.254 . S
O311 Zn308 2.031 . S
O311 C315 1.269 . S
O312 Zn309 1.986 . S
O312 C319 1.262 . S
O313 Zn308 2.049 1_554 S
O313 C321 1.238 1_554 S
O314 Zn309 1.996 . S
O314 C321 1.288 . S
C315 O310 1.254 . S
C315 O311 1.269 . S
C316 O317 1.249 . S
C316 O318 1.270 . S
O317 Zn309 1.943 . S
O317 C316 1.249 . S
O318 Zn308 2.067 . S
O318 C316 1.270 . S
C319 O312 1.262 . S
C319 O320 1.232 . S
O320 C319 1.232 . S
C321 O313 1.238 1_556 S
C321 O314 1.288 . S
Zn322 O325 2.031 . S
Zn322 O327 2.049 1_556 S
Zn322 O332 2.067 . S
Zn323 O324 1.962 . S
Zn323 O326 1.986 . S
Zn323 O328 1.996 . S
Zn323 O331 1.943 . S
O324 Zn323 1.962 . S
O324 C329 1.254 . S
O325 Zn322 2.031 . S
O325 C329 1.269 . S
O326 Zn323 1.986 . S
O326 C333 1.262 . S
O327 Zn322 2.049 1_554 S
O327 C335 1.238 1_554 S
O328 Zn323 1.996 . S
O328 C335 1.288 . S
C329 O324 1.254 . S
C329 O325 1.269 . S
C330 O331 1.249 . S
C330 O332 1.270 . S
O331 Zn323 1.943 . S
O331 C330 1.249 . S
O332 Zn322 2.067 . S
O332 C330 1.270 . S
C333 O326 1.262 . S
C333 O334 1.232 . S
O334 C333 1.232 . S
C335 O327 1.238 1_556 S
C335 O328 1.288 . S
Zn336 O339 2.031 . S
Zn336 O341 2.049 . S
Zn336 O346 2.067 . S
Zn337 O338 1.962 . S
Zn337 O340 1.986 . S
Zn337 O342 1.996 . S
Zn337 O345 1.943 . S
O338 Zn337 1.962 . S
O338 C343 1.254 . S
O339 Zn336 2.031 . S
O339 C343 1.269 . S
O340 Zn337 1.986 . S
O340 C347 1.262 . S
O341 Zn336 2.049 . S
O341 C349 1.260 . S
O342 Zn337 1.996 . S
O342 C349 1.257 . S
C343 O338 1.254 . S
C343 O339 1.269 . S
C344 O345 1.249 . S
C344 O346 1.270 . S
O345 Zn337 1.943 . S
O345 C344 1.249 . S
O346 Zn336 2.067 . S
O346 C344 1.270 . S
C347 O340 1.262 . S
C347 O348 1.232 . S
O348 C347 1.232 . S
C349 O341 1.260 . S
C349 O342 1.257 . S
Zn350 O353 2.031 . S
Zn350 O355 2.049 . S
Zn350 O360 2.067 . S
Zn351 O352 1.962 . S
Zn351 O354 1.986 . S
Zn351 O356 1.996 . S
Zn351 O359 1.943 . S
O352 Zn351 1.962 . S
O352 C357 1.254 . S
O353 Zn350 2.031 . S
O353 C357 1.269 . S
O354 Zn351 1.986 . S
O354 C361 1.262 . S
O355 Zn350 2.049 . S
O355 C363 1.260 . S
O356 Zn351 1.996 . S
O356 C363 1.257 . S
C357 O352 1.254 . S
C357 O353 1.269 . S
C358 O359 1.249 . S
C358 O360 1.270 . S
O359 Zn351 1.943 . S
O359 C358 1.249 . S
O360 Zn350 2.067 . S
O360 C358 1.270 . S
C361 O354 1.262 . S
C361 O362 1.232 . S
O362 C361 1.232 . S
C363 O355 1.260 . S
C363 O356 1.257 . S
Zn364 O367 2.031 . S
Zn364 O369 2.049 . S
Zn364 O374 2.067 . S
Zn365 O366 1.962 . S
Zn365 O368 1.986 . S
Zn365 O370 1.996 . S
Zn365 O373 1.943 . S
O366 Zn365 1.962 . S
O366 C371 1.254 . S
O367 Zn364 2.031 . S
O367 C371 1.269 . S
O368 Zn365 1.986 . S
O368 C375 1.262 . S
O369 Zn364 2.049 . S
O369 C377 1.260 . S
O370 Zn365 1.996 . S
O370 C377 1.257 . S
C371 O366 1.254 . S
C371 O367 1.269 . S
C372 O373 1.249 . S
C372 O374 1.270 . S
O373 Zn365 1.943 . S
O373 C372 1.249 . S
O374 Zn364 2.067 . S
O374 C372 1.270 . S
C375 O368 1.262 . S
C375 O376 1.232 . S
O376 C375 1.232 . S
C377 O369 1.260 . S
C377 O370 1.257 . S
Zn378 O381 2.031 . S
Zn378 O383 2.049 1_554 S
Zn378 O388 2.067 . S
Zn379 O380 1.962 . S
Zn379 O382 1.986 . S
Zn379 O384 1.996 . S
Zn379 O387 1.943 . S
O380 Zn379 1.962 . S
O380 C385 1.254 . S
O381 Zn378 2.031 . S
O381 C385 1.269 . S
O382 Zn379 1.986 . S
O382 C389 1.262 . S
O383 Zn378 2.049 1_556 S
O383 C391 1.238 1_556 S
O384 Zn379 1.996 . S
O384 C391 1.288 . S
C385 O380 1.254 . S
C385 O381 1.269 . S
C386 O387 1.249 . S
C386 O388 1.270 . S
O387 Zn379 1.943 . S
O387 C386 1.249 . S
O388 Zn378 2.067 . S
O388 C386 1.270 . S
C389 O382 1.262 . S
C389 O390 1.232 . S
O390 C389 1.232 . S
C391 O383 1.238 1_554 S
C391 O384 1.288 . S
Zn392 O395 2.031 . S
Zn392 O397 2.049 1_554 S
Zn392 O402 2.067 . S
Zn393 O394 1.962 . S
Zn393 O396 1.986 . S
Zn393 O398 1.996 . S
Zn393 O401 1.943 . S
O394 Zn393 1.962 . S
O394 C399 1.254 . S
O395 Zn392 2.031 . S
O395 C399 1.269 . S
O396 Zn393 1.986 . S
O396 C403 1.262 . S
O397 Zn392 2.049 1_556 S
O397 C405 1.238 1_556 S
O398 Zn393 1.996 . S
O398 C405 1.288 . S
C399 O394 1.254 . S
C399 O395 1.269 . S
C400 O401 1.249 . S
C400 O402 1.270 . S
O401 Zn393 1.943 . S
O401 C400 1.249 . S
O402 Zn392 2.067 . S
O402 C400 1.270 . S
C403 O396 1.262 . S
C403 O404 1.232 . S
O404 C403 1.232 . S
C405 O397 1.238 1_554 S
C405 O398 1.288 . S
Zn406 O409 2.031 . S
Zn406 O411 2.049 1_554 S
Zn406 O416 2.067 . S
Zn407 O408 1.962 . S
Zn407 O410 1.986 . S
Zn407 O412 1.996 . S
Zn407 O415 1.943 . S
O408 Zn407 1.962 . S
O408 C413 1.254 . S
O409 Zn406 2.031 . S
O409 C413 1.269 . S
O410 Zn407 1.986 . S
O410 C417 1.262 . S
O411 Zn406 2.049 1_556 S
O411 C419 1.238 1_556 S
O412 Zn407 1.996 . S
O412 C419 1.288 . S
C413 O408 1.254 . S
C413 O409 1.269 . S
C414 O415 1.249 . S
C414 O416 1.270 . S
O415 Zn407 1.943 . S
O415 C414 1.249 . S
O416 Zn406 2.067 . S
O416 C414 1.270 . S
C417 O410 1.262 . S
C417 O418 1.232 . S
O418 C417 1.232 . S
C419 O411 1.238 1_554 S
C419 O412 1.288 . S
Zn420 O423 2.031 . S
Zn420 O425 2.049 . S
Zn420 O430 2.067 . S
Zn421 O422 1.962 . S
Zn421 O424 1.986 . S
Zn421 O426 1.996 . S
Zn421 O429 1.943 . S
O422 Zn421 1.962 . S
O422 C427 1.254 . S
O423 Zn420 2.031 . S
O423 C427 1.269 . S
O424 Zn421 1.986 . S
O424 C431 1.262 . S
O425 Zn420 2.049 . S
O425 C433 1.260 . S
O426 Zn421 1.996 . S
O426 C433 1.257 . S
C427 O422 1.254 . S
C427 O423 1.269 . S
C428 O429 1.249 . S
C428 O430 1.270 . S
O429 Zn421 1.943 . S
O429 C428 1.249 . S
O430 Zn420 2.067 . S
O430 C428 1.270 . S
C431 O424 1.262 . S
C431 O432 1.232 . S
O432 C431 1.232 . S
C433 O425 1.260 . S
C433 O426 1.257 . S
Zn434 O437 2.031 . S
Zn434 O439 2.049 . S
Zn434 O444 2.067 . S
Zn435 O436 1.962 . S
Zn435 O438 1.986 . S
Zn435 O440 1.996 . S
Zn435 O443 1.943 . S
O436 Zn435 1.962 . S
O436 C441 1.254 . S
O437 Zn434 2.031 . S
O437 C441 1.269 . S
O438 Zn435 1.986 . S
O438 C445 1.262 . S
O439 Zn434 2.049 . S
O439 C447 1.260 . S
O440 Zn435 1.996 . S
O440 C447 1.257 . S
C441 O436 1.254 . S
C441 O437 1.269 . S
C442 O443 1.249 . S
C442 O444 1.270 . S
O443 Zn435 1.943 . S
O443 C442 1.249 . S
O444 Zn434 2.067 . S
O444 C442 1.270 . S
C445 O438 1.262 . S
C445 O446 1.232 . S
O446 C445 1.232 . S
C447 O439 1.260 . S
C447 O440 1.257 . S
Zn448 O451 2.031 . S
Zn448 O453 2.049 . S
Zn448 O458 2.067 . S
Zn449 O450 1.962 . S
Zn449 O452 1.986 . S
Zn449 O454 1.996 . S
Zn449 O457 1.943 . S
O450 Zn449 1.962 . S
O450 C455 1.254 . S
O451 Zn448 2.031 . S
O451 C455 1.269 . S
O452 Zn449 1.986 . S
O452 C459 1.262 . S
O453 Zn448 2.049 . S
O453 C461 1.260 . S
O454 Zn449 1.996 . S
O454 C461 1.257 . S
C455 O450 1.254 . S
C455 O451 1.269 . S
C456 O457 1.249 . S
C456 O458 1.270 . S
O457 Zn449 1.943 . S
O457 C456 1.249 . S
O458 Zn448 2.067 . S
O458 C456 1.270 . S
C459 O452 1.262 . S
C459 O460 1.232 . S
O460 C459 1.232 . S
C461 O453 1.260 . S
C461 O454 1.257 . S
Zn462 O465 2.031 . S
Zn462 O467 2.049 . S
Zn462 O472 2.067 . S
Zn463 O464 1.962 . S
Zn463 O466 1.986 . S
Zn463 O468 1.996 . S
Zn463 O471 1.943 . S
O464 Zn463 1.962 . S
O464 C469 1.254 . S
O465 Zn462 2.031 . S
O465 C469 1.269 . S
O466 Zn463 1.986 . S
O466 C473 1.262 . S
O467 Zn462 2.049 . S
O467 C475 1.260 . S
O468 Zn463 1.996 . S
O468 C475 1.257 . S
C469 O464 1.254 . S
C469 O465 1.269 . S
C470 O471 1.249 . S
C470 O472 1.270 . S
O471 Zn463 1.943 . S
O471 C470 1.249 . S
O472 Zn462 2.067 . S
O472 C470 1.270 . S
C473 O466 1.262 . S
C473 O474 1.232 . S
O474 C473 1.232 . S
C475 O467 1.260 . S
C475 O468 1.257 . S
Zn476 O479 2.031 . S
Zn476 O481 2.049 . S
Zn476 O486 2.067 . S
Zn477 O478 1.962 . S
Zn477 O480 1.986 . S
Zn477 O482 1.996 . S
Zn477 O485 1.943 . S
O478 Zn477 1.962 . S
O478 C483 1.254 . S
O479 Zn476 2.031 . S
O479 C483 1.269 . S
O480 Zn477 1.986 . S
O480 C487 1.262 . S
O481 Zn476 2.049 . S
O481 C489 1.260 . S
O482 Zn477 1.996 . S
O482 C489 1.257 . S
C483 O478 1.254 . S
C483 O479 1.269 . S
C484 O485 1.249 . S
C484 O486 1.270 . S
O485 Zn477 1.943 . S
O485 C484 1.249 . S
O486 Zn476 2.067 . S
O486 C484 1.270 . S
C487 O480 1.262 . S
C487 O488 1.232 . S
O488 C487 1.232 . S
C489 O481 1.260 . S
C489 O482 1.257 . S
Zn490 O493 2.031 . S
Zn490 O495 2.049 . S
Zn490 O500 2.067 . S
Zn491 O492 1.962 . S
Zn491 O494 1.986 . S
Zn491 O496 1.996 . S
Zn491 O499 1.943 . S
O492 Zn491 1.962 . S
O492 C497 1.254 . S
O493 Zn490 2.031 . S
O493 C497 1.269 . S
O494 Zn491 1.986 . S
O494 C501 1.262 . S
O495 Zn490 2.049 . S
O495 C503 1.260 . S
O496 Zn491 1.996 . S
O496 C503 1.257 . S
C497 O492 1.254 . S
C497 O493 1.269 . S
C498 O499 1.249 . S
C498 O500 1.270 . S
O499 Zn491 1.943 . S
O499 C498 1.249 . S
O500 Zn490 2.067 . S
O500 C498 1.270 . S
C501 O494 1.262 . S
C501 O502 1.232 . S
O502 C501 1.232 . S
C503 O495 1.260 . S
C503 O496 1.257 . S
C13 C265 1.410 . S
C279 C27 1.410 . S
C293 C41 1.410 . S
C55 C475 1.410 . S
C69 C489 1.410 . S
C83 C503 1.409 . S
C349 C97 1.410 . S
C111 C363 1.410 . S
C125 C377 1.410 . S
C223 C139 1.410 . S
C237 C153 1.410 . S
C251 C167 1.409 . S
C433 C181 1.410 1_455 S
C447 C195 1.410 . S
C209 C461 1.410 1_545 S
C391 C307 1.406 1_564 S
C321 C405 1.406 1_656 S
C335 C419 1.406 1_556 S
C11 C389 1.649 1_545 S
C403 C25 1.649 1_455 S
C417 C39 1.649 . S
C179 C53 1.649 1_655 S
C193 C67 1.649 . S
C207 C81 1.649 1_545 S
C95 C305 1.649 1_565 S
C319 C109 1.649 1_655 S
C333 C123 1.649 . S
C137 C431 1.649 1_655 S
C151 C445 1.649 . S
C165 C459 1.649 1_545 S
C221 C347 1.649 . S
C235 C361 1.649 1_545 S
C249 C375 1.649 1_655 S
C263 C473 1.649 . S
C487 C277 1.649 1_565 S
C291 C501 1.649 1_655 S
C21 C8 1.539 . S
C22 C35 1.538 1_545 S
C36 C7 1.535 1_655 S
C50 C77 1.539 . S
C49 C64 1.535 1_545 S
C78 C63 1.538 1_455 S
C92 C105 1.539 . S
C106 C119 1.538 1_565 S
C120 C91 1.535 1_455 S
C161 C134 1.539 . S
C148 C133 1.535 1_545 S
C147 C162 1.538 1_455 S
C189 C176 1.539 . S
C203 C190 1.539 . S
C175 C204 1.539 . S
C218 C245 1.539 . S
C232 C217 1.539 . S
C246 C231 1.539 . S
C273 C260 1.539 . S
C274 C287 1.539 . S
C288 C259 1.539 . S
C302 C329 1.539 . S
C316 C301 1.539 . S
C315 C330 1.538 . S
C357 C344 1.539 . S
C358 C371 1.539 . S
C343 C372 1.539 . S
C386 C413 1.539 . S
C400 C385 1.539 . S
C414 C399 1.538 . S
C428 C441 1.539 . S
C442 C455 1.539 . S
C456 C427 1.539 . S
C470 C497 1.539 . S
C484 C469 1.539 . S
C483 C498 1.539 . S
