# Generated by pormake.
# Topology gsi, (4)-cn, num edge types: 1
# Building blocks:
#     Node 0, Type 0, BuildingBlock: TATPOV_clean_sbu_0, # of connection points: 4
#     Node 1, Type 0, BuildingBlock: TATPOV_clean_sbu_0, # of connection points: 4
#     Node 2, Type 0, BuildingBlock: TATPOV_clean_sbu_0, # of connection points: 4
#     Node 3, Type 0, BuildingBlock: TATPOV_clean_sbu_0, # of connection points: 4
#     Node 4, Type 0, BuildingBlock: TATPOV_clean_sbu_0, # of connection points: 4
#     Node 5, Type 0, BuildingBlock: TATPOV_clean_sbu_0, # of connection points: 4
#     Node 6, Type 0, BuildingBlock: TATPOV_clean_sbu_0, # of connection points: 4
#     Node 7, Type 0, BuildingBlock: TATPOV_clean_sbu_0, # of connection points: 4
#     Node 8, Type 0, BuildingBlock: TATPOV_clean_sbu_0, # of connection points: 4
#     Node 9, Type 0, BuildingBlock: TATPOV_clean_sbu_0, # of connection points: 4
#     Node 10, Type 0, BuildingBlock: TATPOV_clean_sbu_0, # of connection points: 4
#     Node 11, Type 0, BuildingBlock: TATPOV_clean_sbu_0, # of connection points: 4
#     Node 12, Type 0, BuildingBlock: TATPOV_clean_sbu_0, # of connection points: 4
#     Node 13, Type 0, BuildingBlock: TATPOV_clean_sbu_0, # of connection points: 4
#     Node 14, Type 0, BuildingBlock: TATPOV_clean_sbu_0, # of connection points: 4
#     Node 15, Type 0, BuildingBlock: TATPOV_clean_sbu_0, # of connection points: 4
#     Edge 16, Type (0, 0), BuildingBlock: MIFKUJ_clean_linker_0, # of connection points: 2
#     Edge 17, Type (0, 0), BuildingBlock: MIFKUJ_clean_linker_0, # of connection points: 2
#     Edge 18, Type (0, 0), BuildingBlock: MIFKUJ_clean_linker_0, # of connection points: 2
#     Edge 19, Type (0, 0), BuildingBlock: MIFKUJ_clean_linker_0, # of connection points: 2
#     Edge 20, Type (0, 0), BuildingBlock: MIFKUJ_clean_linker_0, # of connection points: 2
#     Edge 21, Type (0, 0), BuildingBlock: MIFKUJ_clean_linker_0, # of connection points: 2
#     Edge 22, Type (0, 0), BuildingBlock: MIFKUJ_clean_linker_0, # of connection points: 2
#     Edge 23, Type (0, 0), BuildingBlock: MIFKUJ_clean_linker_0, # of connection points: 2
#     Edge 24, Type (0, 0), BuildingBlock: MIFKUJ_clean_linker_0, # of connection points: 2
#     Edge 25, Type (0, 0), BuildingBlock: MIFKUJ_clean_linker_0, # of connection points: 2
#     Edge 26, Type (0, 0), BuildingBlock: MIFKUJ_clean_linker_0, # of connection points: 2
#     Edge 27, Type (0, 0), BuildingBlock: MIFKUJ_clean_linker_0, # of connection points: 2
#     Edge 28, Type (0, 0), BuildingBlock: MIFKUJ_clean_linker_0, # of connection points: 2
#     Edge 29, Type (0, 0), BuildingBlock: MIFKUJ_clean_linker_0, # of connection points: 2
#     Edge 30, Type (0, 0), BuildingBlock: MIFKUJ_clean_linker_0, # of connection points: 2
#     Edge 31, Type (0, 0), BuildingBlock: MIFKUJ_clean_linker_0, # of connection points: 2
#     Edge 32, Type (0, 0), BuildingBlock: MIFKUJ_clean_linker_0, # of connection points: 2
#     Edge 33, Type (0, 0), BuildingBlock: MIFKUJ_clean_linker_0, # of connection points: 2
#     Edge 34, Type (0, 0), BuildingBlock: MIFKUJ_clean_linker_0, # of connection points: 2
#     Edge 35, Type (0, 0), BuildingBlock: MIFKUJ_clean_linker_0, # of connection points: 2
#     Edge 36, Type (0, 0), BuildingBlock: MIFKUJ_clean_linker_0, # of connection points: 2
#     Edge 37, Type (0, 0), BuildingBlock: MIFKUJ_clean_linker_0, # of connection points: 2
#     Edge 38, Type (0, 0), BuildingBlock: MIFKUJ_clean_linker_0, # of connection points: 2
#     Edge 39, Type (0, 0), BuildingBlock: MIFKUJ_clean_linker_0, # of connection points: 2
#     Edge 40, Type (0, 0), BuildingBlock: MIFKUJ_clean_linker_0, # of connection points: 2
#     Edge 41, Type (0, 0), BuildingBlock: MIFKUJ_clean_linker_0, # of connection points: 2
#     Edge 42, Type (0, 0), BuildingBlock: MIFKUJ_clean_linker_0, # of connection points: 2
#     Edge 43, Type (0, 0), BuildingBlock: MIFKUJ_clean_linker_0, # of connection points: 2
#     Edge 44, Type (0, 0), BuildingBlock: MIFKUJ_clean_linker_0, # of connection points: 2
#     Edge 45, Type (0, 0), BuildingBlock: MIFKUJ_clean_linker_0, # of connection points: 2
#     Edge 46, Type (0, 0), BuildingBlock: MIFKUJ_clean_linker_0, # of connection points: 2
#     Edge 47, Type (0, 0), BuildingBlock: MIFKUJ_clean_linker_0, # of connection points: 2
# Relax obj value: 0.045
# Max RMSD: 0.070
# Mean RMSD: 0.054
data_MOF--net-gsi--node1-TATPOV_clean_sbu_0--edge1-MIFKUJ_clean_linker_0
_symmetry_space_group_name_H-M    P1
_symmetry_Int_Tables_number       1
_symmetry_cell_setting            triclinic
loop_
_symmetry_equiv_pos_as_xyz
'x, y, z'
_cell_length_a     54.285485
_cell_length_b     54.112961
_cell_length_c     56.32588
_cell_angle_alpha  90.904404
_cell_angle_beta   90.584195
_cell_angle_gamma 92.230471
loop_
_atom_site_label
_atom_site_type_symbol
_atom_site_fract_x
_atom_site_fract_y
_atom_site_fract_z
_atom_type_partial_charge
Zn0 Zn 0.11128 0.15581 0.18862 0.0
Zn1 Zn 0.14375 0.1473 0.15466 0.0
O2 O 0.13602 0.1119 0.16774 0.0
O3 O 0.10949 0.11988 0.1959 0.0
O4 O 0.16934 0.14365 0.12885 0.0
O5 O 0.08772 0.16922 0.16515 0.0
O6 O 0.1153 0.16467 0.13718 0.0
C7 C 0.12199 0.1045 0.18451 0.0
C8 C 0.15746 0.18067 0.19827 0.0
O9 O 0.16289 0.16971 0.17892 0.0
O10 O 0.13584 0.17833 0.20636 0.0
C11 C 0.17371 0.12401 0.1172 0.0
O12 O 0.16087 0.10355 0.12163 0.0
C13 C 0.09422 0.17168 0.1438 0.0
Zn14 Zn 0.90976 0.35908 0.18276 0.0
Zn15 Zn 0.87735 0.36562 0.14653 0.0
O16 O 0.8826 0.40073 0.16158 0.0
O17 O 0.91011 0.3955 0.18999 0.0
O18 O 0.85304 0.36991 0.11935 0.0
O19 O 0.93407 0.34633 0.15946 0.0
O20 O 0.90723 0.34988 0.13014 0.0
C21 C 0.89631 0.40948 0.17851 0.0
C22 C 0.86353 0.33198 0.18831 0.0
O23 O 0.85874 0.34202 0.16858 0.0
O24 O 0.88437 0.336 0.19828 0.0
C25 C 0.82979 0.36855 0.12228 0.0
O26 O 0.82109 0.36514 0.1437 0.0
C27 C 0.92834 0.34379 0.13771 0.0
Zn28 Zn 0.20434 0.87587 0.35317 0.0
Zn29 Zn 0.16101 0.85136 0.35831 0.0
O30 O 0.17518 0.85586 0.39292 0.0
O31 O 0.21002 0.87739 0.3882 0.0
O32 O 0.12732 0.83413 0.36254 0.0
O33 O 0.18825 0.90376 0.33707 0.0
O34 O 0.15281 0.88263 0.33907 0.0
C35 C 0.1946 0.86675 0.40169 0.0
C36 C 0.20178 0.82819 0.32935 0.0
O37 O 0.18009 0.82709 0.33782 0.0
O38 O 0.21589 0.847 0.33353 0.0
C39 C 0.1245 0.81078 0.36442 0.0
O40 O 0.14405 0.79721 0.36411 0.0
C41 C 0.16545 0.90158 0.33232 0.0
Zn42 Zn 0.80169 0.62947 0.36011 0.0
Zn43 Zn 0.84455 0.65244 0.36555 0.0
O44 O 0.83178 0.64708 0.40038 0.0
O45 O 0.79806 0.6237 0.39468 0.0
O46 O 0.87846 0.66956 0.36961 0.0
O47 O 0.81534 0.60366 0.33892 0.0
O48 O 0.85211 0.62125 0.34503 0.0
C49 C 0.81343 0.63455 0.40868 0.0
C50 C 0.80235 0.67716 0.33952 0.0
O51 O 0.82501 0.67707 0.34569 0.0
O52 O 0.78786 0.65932 0.34503 0.0
C53 C 0.88137 0.69289 0.37241 0.0
O54 O 0.8618 0.70638 0.37362 0.0
C55 C 0.83829 0.60428 0.33523 0.0
Zn56 Zn 0.40945 0.85534 0.68067 0.0
Zn57 Zn 0.37638 0.86117 0.64486 0.0
O58 O 0.38225 0.89667 0.6588 0.0
O59 O 0.41002 0.89195 0.68706 0.0
O60 O 0.35126 0.86468 0.61825 0.0
O61 O 0.43313 0.8417 0.65719 0.0
O62 O 0.4056 0.84445 0.62835 0.0
C63 C 0.39614 0.90575 0.67544 0.0
C64 C 0.36296 0.82945 0.68813 0.0
O65 O 0.35784 0.83913 0.66832 0.0
O66 O 0.38421 0.83303 0.69737 0.0
C67 C 0.33736 0.84616 0.61199 0.0
O68 O 0.33995 0.82498 0.62265 0.0
C69 C 0.42683 0.83847 0.63566 0.0
Zn70 Zn 0.88743 0.84752 0.83398 0.0
Zn71 Zn 0.85876 0.85809 0.87016 0.0
O72 O 0.88852 0.84012 0.88508 0.0
O73 O 0.91325 0.83417 0.8549 0.0
O74 O 0.83753 0.86473 0.8991 0.0
O75 O 0.89005 0.88277 0.82498 0.0
O76 O 0.86569 0.89263 0.8544 0.0
C77 C 0.90867 0.83242 0.87676 0.0
C78 C 0.8399 0.82313 0.82975 0.0
O79 O 0.83646 0.83473 0.84924 0.0
O80 O 0.86054 0.82516 0.81956 0.0
C81 C 0.8141 0.86511 0.89791 0.0
O82 O 0.80313 0.86254 0.87707 0.0
C83 C 0.87866 0.89892 0.83647 0.0
Zn84 Zn 0.1139 0.67575 0.79876 0.0
Zn85 Zn 0.14283 0.66012 0.83476 0.0
O86 O 0.11239 0.67385 0.85156 0.0
O87 O 0.08788 0.68475 0.82237 0.0
O88 O 0.16357 0.64875 0.86244 0.0
O89 O 0.11414 0.6416 0.78406 0.0
O90 O 0.13729 0.62885 0.81343 0.0
C91 C 0.09219 0.68248 0.84432 0.0
C92 C 0.16157 0.70103 0.80137 0.0
O93 O 0.16463 0.68668 0.81878 0.0
O94 O 0.14123 0.70044 0.7901 0.0
C95 C 0.18687 0.65215 0.86406 0.0
O96 O 0.19883 0.66293 0.84665 0.0
C97 C 0.12586 0.62461 0.79378 0.0
Zn98 Zn 0.79501 0.09689 0.63905 0.0
Zn99 Zn 0.83501 0.12797 0.63726 0.0
O100 O 0.84595 0.09887 0.65809 0.0
O101 O 0.81419 0.0722 0.65705 0.0
O102 O 0.86649 0.14958 0.63389 0.0
O103 O 0.79219 0.09504 0.6036 0.0
O104 O 0.82362 0.1219 0.60215 0.0
C105 C 0.83581 0.07827 0.66414 0.0
C106 C 0.78868 0.14429 0.66252 0.0
O107 O 0.81077 0.14865 0.65585 0.0
O108 O 0.77775 0.12374 0.6574 0.0
C109 C 0.86873 0.17193 0.64127 0.0
O110 O 0.85003 0.18194 0.65185 0.0
C111 C 0.80676 0.1086 0.59163 0.0
Zn112 Zn 0.12164 0.33767 0.68716 0.0
Zn113 Zn 0.14355 0.34257 0.64798 0.0
O114 O 0.10933 0.32496 0.63851 0.0
O115 O 0.08923 0.32914 0.67196 0.0
O116 O 0.16322 0.3464 0.61742 0.0
O117 O 0.13019 0.37214 0.69775 0.0
O118 O 0.14236 0.37895 0.66119 0.0
C119 C 0.0894 0.32258 0.65034 0.0
C120 C 0.16306 0.30914 0.68729 0.0
O121 O 0.16667 0.32115 0.66824 0.0
O122 O 0.14301 0.31106 0.69826 0.0
C123 C 0.15525 0.34293 0.59624 0.0
O124 O 0.13194 0.33637 0.59264 0.0
C125 C 0.13809 0.38691 0.68217 0.0
Zn126 Zn 0.61956 0.16754 0.2994 0.0
Zn127 Zn 0.6487 0.15621 0.33629 0.0
O128 O 0.61773 0.17031 0.35232 0.0
O129 O 0.59292 0.17673 0.32199 0.0
O130 O 0.67039 0.14736 0.36418 0.0
O131 O 0.62052 0.13266 0.28698 0.0
O132 O 0.64435 0.1232 0.31714 0.0
C133 C 0.59705 0.17697 0.34414 0.0
C134 C 0.66621 0.19469 0.30003 0.0
O135 O 0.66984 0.18176 0.31834 0.0
O136 O 0.64579 0.19267 0.28895 0.0
C137 C 0.68554 0.16305 0.37394 0.0
O138 O 0.68703 0.1857 0.36589 0.0
C139 C 0.63287 0.11699 0.29793 0.0
Zn140 Zn 0.60916 0.64873 0.69189 0.0
Zn141 Zn 0.64333 0.64418 0.65788 0.0
O142 O 0.63732 0.60806 0.66935 0.0
O143 O 0.60778 0.61194 0.69561 0.0
O144 O 0.66959 0.64287 0.63253 0.0
O145 O 0.58645 0.66388 0.66854 0.0
O146 O 0.61444 0.66092 0.64071 0.0
C147 C 0.62227 0.59848 0.68422 0.0
C148 C 0.6547 0.67504 0.70344 0.0
O149 O 0.66067 0.66633 0.68325 0.0
O150 O 0.63338 0.67029 0.71154 0.0
C151 C 0.67232 0.62508 0.6179 0.0
O152 O 0.65736 0.60545 0.61883 0.0
C153 C 0.5932 0.66737 0.64738 0.0
Zn154 Zn 0.70868 0.36829 0.8506 0.0
Zn155 Zn 0.66499 0.34907 0.85967 0.0
O156 O 0.68108 0.35603 0.89348 0.0
O157 O 0.71735 0.37274 0.88466 0.0
O158 O 0.63132 0.33274 0.86661 0.0
O159 O 0.69428 0.39553 0.83238 0.0
O160 O 0.65708 0.37989 0.83936 0.0
C161 C 0.70206 0.36551 0.90008 0.0
C162 C 0.70295 0.32059 0.83023 0.0
O163 O 0.68167 0.32211 0.83944 0.0
O164 O 0.71877 0.3382 0.83299 0.0
C165 C 0.62 0.32 0.85038 0.0
O166 O 0.62998 0.31845 0.82929 0.0
C167 C 0.67116 0.39623 0.82967 0.0
Zn168 Zn 0.30625 0.12684 0.86154 0.0
Zn169 Zn 0.34993 0.14796 0.86608 0.0
O170 O 0.33843 0.14236 0.90133 0.0
O171 O 0.30417 0.11967 0.89598 0.0
O172 O 0.3841 0.16475 0.86839 0.0
O173 O 0.31805 0.10144 0.8389 0.0
O174 O 0.35578 0.11671 0.84484 0.0
C175 C 0.32017 0.12982 0.90978 0.0
C176 C 0.3075 0.17509 0.84281 0.0
O177 O 0.33035 0.17375 0.84783 0.0
O178 O 0.29252 0.1577 0.8484 0.0
C179 C 0.38988 0.18244 0.88279 0.0
O180 O 0.37341 0.18984 0.898 0.0
C181 C 0.34088 0.10081 0.83484 0.0
Zn182 Zn 0.39288 0.34482 0.33345 0.0
Zn183 Zn 0.36373 0.35485 0.36917 0.0
O184 O 0.39467 0.33943 0.38492 0.0
O185 O 0.4197 0.33448 0.35481 0.0
O186 O 0.3413 0.36065 0.39751 0.0
O187 O 0.39282 0.37958 0.32295 0.0
O188 O 0.36857 0.38924 0.35251 0.0
C189 C 0.4154 0.33307 0.37676 0.0
C190 C 0.34728 0.31759 0.3294 0.0
O191 O 0.34307 0.32984 0.34836 0.0
O192 O 0.36802 0.32003 0.31947 0.0
C193 C 0.31792 0.36016 0.39519 0.0
O194 O 0.30816 0.35741 0.37382 0.0
C195 C 0.38074 0.39549 0.33405 0.0
Zn196 Zn 0.28423 0.59678 0.14134 0.0
Zn197 Zn 0.32596 0.62389 0.13519 0.0
O198 O 0.33643 0.59486 0.15629 0.0
O199 O 0.3029 0.57067 0.15811 0.0
O200 O 0.35791 0.64346 0.12912 0.0
O201 O 0.27766 0.5947 0.10629 0.0
O202 O 0.31189 0.61695 0.10108 0.0
C203 C 0.32532 0.57521 0.16352 0.0
C204 C 0.28404 0.64537 0.16359 0.0
O205 O 0.30536 0.64775 0.15447 0.0
O206 O 0.27132 0.6254 0.16061 0.0
C207 C 0.36785 0.65725 0.14533 0.0
O208 O 0.35737 0.65823 0.16623 0.0
C209 C 0.29268 0.60555 0.09253 0.0
Zn210 Zn 0.61228 0.83032 0.18588 0.0
Zn211 Zn 0.63388 0.83885 0.14564 0.0
O212 O 0.59988 0.82073 0.13618 0.0
O213 O 0.58128 0.81771 0.17063 0.0
O214 O 0.65095 0.84495 0.11408 0.0
O215 O 0.61552 0.86568 0.19578 0.0
O216 O 0.63272 0.87402 0.16144 0.0
C217 C 0.58095 0.81444 0.14838 0.0
C218 C 0.65697 0.80535 0.18271 0.0
O219 O 0.65844 0.81704 0.16327 0.0
O220 O 0.63807 0.80691 0.19551 0.0
C221 C 0.67373 0.85157 0.11399 0.0
O222 O 0.68544 0.85484 0.13439 0.0
C223 C 0.62507 0.8812 0.1817 0.0
H224 H 0.15214 0.20571 0.24032 0.0
H225 H 0.18396 0.2284 0.26362 0.0
H226 H 0.23779 0.21181 0.21045 0.0
H227 H 0.2061 0.18871 0.18712 0.0
H228 H 0.25503 0.20361 0.25461 0.0
H229 H 0.21468 0.26918 0.21517 0.0
H230 H 0.17921 0.29324 0.20286 0.0
H231 H 0.16328 0.30933 0.27588 0.0
H232 H 0.19847 0.28505 0.28865 0.0
H233 H 0.35044 0.28957 0.28893 0.0
H234 H 0.31756 0.26552 0.26855 0.0
H235 H 0.26674 0.28493 0.32356 0.0
H236 H 0.29958 0.30954 0.344 0.0
H237 H 0.24712 0.29111 0.28012 0.0
H238 H 0.28844 0.22666 0.31954 0.0
H239 H 0.324 0.20266 0.33173 0.0
H240 H 0.33817 0.18447 0.25879 0.0
H241 H 0.3029 0.20865 0.24612 0.0
C242 C 0.17071 0.20697 0.23347 0.0
C243 C 0.17656 0.19541 0.21181 0.0
C244 C 0.18887 0.22002 0.24681 0.0
C245 C 0.2132 0.22196 0.23868 0.0
C246 C 0.21911 0.21053 0.21704 0.0
C247 C 0.20096 0.19742 0.20369 0.0
C248 C 0.23258 0.2355 0.25299 0.0
C249 C 0.25347 0.22284 0.25994 0.0
C250 C 0.23015 0.26036 0.26051 0.0
C251 C 0.20906 0.27509 0.25287 0.0
C252 C 0.2035 0.27768 0.22861 0.0
C253 C 0.18347 0.29139 0.22155 0.0
C254 C 0.16896 0.30275 0.23858 0.0
C255 C 0.17451 0.30049 0.26271 0.0
C256 C 0.19451 0.28677 0.26987 0.0
C257 C 0.33234 0.28861 0.29687 0.0
C258 C 0.32765 0.3015 0.31813 0.0
C259 C 0.31357 0.27473 0.28521 0.0
C260 C 0.28975 0.27322 0.29465 0.0
C261 C 0.28502 0.28583 0.316 0.0
C262 C 0.30383 0.29979 0.3277 0.0
C263 C 0.26967 0.25927 0.28162 0.0
C264 C 0.24864 0.27184 0.2749 0.0
C265 C 0.27197 0.23432 0.2743 0.0
C266 C 0.29313 0.21965 0.28187 0.0
C267 C 0.29925 0.21769 0.30608 0.0
C268 C 0.31934 0.20403 0.31308 0.0
C269 C 0.33337 0.19209 0.29604 0.0
C270 C 0.3273 0.19374 0.27197 0.0
C271 C 0.30724 0.2074 0.26487 0.0
H272 H 0.34891 0.18153 0.3015 0.0
H273 H 0.15346 0.31335 0.23307 0.0
H274 H 0.86731 0.30686 0.22998 0.0
H275 H 0.83485 0.28272 0.24995 0.0
H276 H 0.78368 0.29874 0.19366 0.0
H277 H 0.81603 0.32236 0.17337 0.0
H278 H 0.79202 0.2964 0.26772 0.0
H279 H 0.74247 0.25137 0.18514 0.0
H280 H 0.7527 0.23618 0.14505 0.0
H281 H 0.82667 0.22357 0.16829 0.0
H282 H 0.8168 0.23837 0.20858 0.0
H283 H 0.66524 0.22337 0.26057 0.0
H284 H 0.6995 0.24712 0.24322 0.0
H285 H 0.74727 0.22588 0.30044 0.0
H286 H 0.71301 0.20222 0.31811 0.0
H287 H 0.74211 0.22939 0.22695 0.0
H288 H 0.79161 0.27256 0.30966 0.0
H289 H 0.78171 0.28734 0.34999 0.0
H290 H 0.7084 0.30285 0.32678 0.0
H291 H 0.71796 0.28848 0.28627 0.0
C292 C 0.8492 0.30507 0.22175 0.0
C293 C 0.8443 0.31649 0.20003 0.0
C294 C 0.83065 0.29135 0.23324 0.0
C295 C 0.80691 0.28873 0.2232 0.0
C296 C 0.80198 0.30013 0.20154 0.0
C297 C 0.8205 0.31373 0.18999 0.0
C298 C 0.78707 0.27458 0.23556 0.0
C299 C 0.78136 0.28147 0.25894 0.0
C300 C 0.77287 0.25542 0.22395 0.0
C301 C 0.77894 0.24621 0.19982 0.0
C302 C 0.76089 0.24526 0.18171 0.0
C303 C 0.76663 0.23674 0.15895 0.0
C304 C 0.79034 0.22899 0.15411 0.0
C305 C 0.80834 0.22967 0.17204 0.0
C306 C 0.80269 0.23816 0.19484 0.0
C307 C 0.68295 0.22395 0.26965 0.0
C308 C 0.68639 0.21083 0.29071 0.0
C309 C 0.70253 0.23747 0.25965 0.0
C310 C 0.72589 0.23829 0.27055 0.0
C311 C 0.72931 0.2257 0.29186 0.0
C312 C 0.70971 0.21214 0.3019 0.0
C313 C 0.74688 0.25141 0.25897 0.0
C314 C 0.75284 0.24426 0.23574 0.0
C315 C 0.76134 0.27023 0.27077 0.0
C316 C 0.75544 0.27917 0.295 0.0
C317 C 0.77341 0.2792 0.31316 0.0
C318 C 0.76785 0.28749 0.33605 0.0
C319 C 0.74441 0.29594 0.34096 0.0
C320 C 0.72651 0.2962 0.32298 0.0
C321 C 0.73198 0.28794 0.30006 0.0
H322 H 0.74015 0.30235 0.3587 0.0
H323 H 0.79475 0.22241 0.13647 0.0
H324 H 0.30801 0.68861 0.17797 0.0
H325 H 0.29335 0.71967 0.20592 0.0
H326 H 0.22437 0.67807 0.21211 0.0
H327 H 0.2387 0.64708 0.18404 0.0
H328 H 0.21751 0.72747 0.20918 0.0
H329 H 0.26806 0.67374 0.25414 0.0
H330 H 0.30581 0.65167 0.26333 0.0
H331 H 0.34683 0.72091 0.27035 0.0
H332 H 0.30937 0.74339 0.26087 0.0
H333 H 0.17606 0.78606 0.31437 0.0
H334 H 0.18961 0.75454 0.28628 0.0
H335 H 0.25994 0.79376 0.28032 0.0
H336 H 0.24677 0.82507 0.30855 0.0
H337 H 0.26567 0.74499 0.28332 0.0
H338 H 0.21553 0.79877 0.23793 0.0
H339 H 0.178 0.82106 0.22843 0.0
H340 H 0.13644 0.75209 0.22197 0.0
H341 H 0.17368 0.72939 0.23176 0.0
C342 C 0.28963 0.68617 0.18509 0.0
C343 C 0.27458 0.66527 0.17889 0.0
C344 C 0.28133 0.70388 0.20114 0.0
C345 C 0.25792 0.70095 0.21132 0.0
C346 C 0.24253 0.68061 0.2045 0.0
C347 C 0.2508 0.66289 0.1885 0.0
C348 C 0.24969 0.7187 0.22959 0.0
C349 C 0.22786 0.7311 0.22553 0.0
C350 C 0.26345 0.72369 0.2507 0.0
C351 C 0.28597 0.71023 0.25656 0.0
C352 C 0.28517 0.68425 0.25747 0.0
C353 C 0.30651 0.67167 0.26276 0.0
C354 C 0.32872 0.68488 0.26736 0.0
C355 C 0.32962 0.7107 0.26675 0.0
C356 C 0.30834 0.72337 0.26144 0.0
C357 C 0.19447 0.78789 0.30722 0.0
C358 C 0.21027 0.80817 0.31361 0.0
C359 C 0.20214 0.76993 0.29108 0.0
C360 C 0.22566 0.77202 0.28098 0.0
C361 C 0.2417 0.79183 0.28787 0.0
C362 C 0.23409 0.80975 0.30398 0.0
C363 C 0.23352 0.75386 0.26289 0.0
C364 C 0.25529 0.74136 0.26699 0.0
C365 C 0.21972 0.74881 0.2418 0.0
C366 C 0.19733 0.76241 0.23582 0.0
C367 C 0.19834 0.78837 0.23467 0.0
C368 C 0.17713 0.80108 0.2292 0.0
C369 C 0.15483 0.788 0.22467 0.0
C370 C 0.15372 0.76219 0.22553 0.0
C371 C 0.17487 0.7494 0.23102 0.0
H372 H 0.13843 0.79787 0.22043 0.0
H373 H 0.34522 0.6751 0.27145 0.0
H374 H 0.75462 0.68536 0.32837 0.0
H375 H 0.73935 0.71057 0.29646 0.0
H376 H 0.81343 0.73723 0.28187 0.0
H377 H 0.82915 0.71169 0.31401 0.0
H378 H 0.77198 0.77405 0.27945 0.0
H379 H 0.79732 0.69729 0.24669 0.0
H380 H 0.80145 0.65207 0.24568 0.0
H381 H 0.7227 0.64139 0.24224 0.0
H382 H 0.71807 0.68654 0.24365 0.0
H383 H 0.70635 0.81437 0.17557 0.0
H384 H 0.74046 0.79496 0.19646 0.0
H385 H 0.68818 0.7457 0.23091 0.0
H386 H 0.65431 0.7651 0.21056 0.0
H387 H 0.7308 0.72246 0.21584 0.0
H388 H 0.70618 0.79716 0.25837 0.0
H389 H 0.70035 0.84208 0.26153 0.0
H390 H 0.77707 0.85635 0.24706 0.0
H391 H 0.78325 0.81147 0.24351 0.0
C392 C 0.76773 0.69687 0.31872 0.0
C393 C 0.79315 0.69624 0.32351 0.0
C394 C 0.75894 0.71126 0.30047 0.0
C395 C 0.77533 0.72536 0.28663 0.0
C396 C 0.80056 0.72632 0.29236 0.0
C397 C 0.80947 0.71178 0.31072 0.0
C398 C 0.76572 0.73719 0.26515 0.0
C399 C 0.76364 0.76292 0.2651 0.0
C400 C 0.75472 0.72254 0.24659 0.0
C401 C 0.75736 0.69533 0.24537 0.0
C402 C 0.78088 0.6853 0.24587 0.0
C403 C 0.78331 0.65968 0.24521 0.0
C404 C 0.76235 0.64387 0.24391 0.0
C405 C 0.73892 0.65366 0.24323 0.0
C406 C 0.73638 0.67927 0.24392 0.0
C407 C 0.70228 0.79902 0.1872 0.0
C408 C 0.67775 0.79127 0.1916 0.0
C409 C 0.72171 0.78807 0.19916 0.0
C410 C 0.71676 0.76904 0.2153 0.0
C411 C 0.69237 0.76034 0.2185 0.0
C412 C 0.67304 0.77148 0.20693 0.0
C413 C 0.73631 0.75922 0.23056 0.0
C414 C 0.74008 0.73376 0.22955 0.0
C415 C 0.74881 0.77413 0.2481 0.0
C416 C 0.7451 0.80103 0.25035 0.0
C417 C 0.72175 0.8099 0.25566 0.0
C418 C 0.71839 0.83533 0.25756 0.0
C419 C 0.73831 0.85206 0.25441 0.0
C420 C 0.76164 0.84338 0.24943 0.0
C421 C 0.76509 0.81795 0.24747 0.0
H422 H 0.73567 0.87175 0.2559 0.0
H423 H 0.76427 0.62403 0.24341 0.0
H424 H 0.31531 0.81951 0.67385 0.0
H425 H 0.2825 0.79863 0.69608 0.0
H426 H 0.33344 0.78646 0.75359 0.0
H427 H 0.36658 0.80721 0.73138 0.0
H428 H 0.30318 0.74552 0.74358 0.0
H429 H 0.29432 0.83211 0.75864 0.0
H430 H 0.29061 0.87581 0.74788 0.0
H431 H 0.22392 0.85723 0.70884 0.0
H432 H 0.22741 0.81334 0.7191 0.0
H433 H 0.20739 0.70844 0.82182 0.0
H434 H 0.24274 0.7318 0.80575 0.0
H435 H 0.19835 0.7526 0.74587 0.0
H436 H 0.16287 0.72981 0.76199 0.0
H437 H 0.22724 0.79052 0.76061 0.0
H438 H 0.23757 0.70408 0.7424 0.0
H439 H 0.24104 0.66005 0.75208 0.0
H440 H 0.30459 0.67802 0.79595 0.0
H441 H 0.30129 0.72223 0.78676 0.0
C442 C 0.31964 0.81229 0.69117 0.0
C443 C 0.34356 0.8152 0.70091 0.0
C444 C 0.30082 0.80045 0.70388 0.0
C445 C 0.30547 0.79138 0.72663 0.0
C446 C 0.32947 0.79346 0.7361 0.0
C447 C 0.34836 0.80535 0.72339 0.0
C448 C 0.2851 0.78007 0.74056 0.0
C449 C 0.28674 0.75546 0.74768 0.0
C450 C 0.26352 0.79297 0.74552 0.0
C451 C 0.26124 0.8194 0.73949 0.0
C452 C 0.27896 0.83731 0.74763 0.0
C453 C 0.27688 0.86212 0.74164 0.0
C454 C 0.25707 0.86928 0.72764 0.0
C455 C 0.23926 0.85165 0.71967 0.0
C456 C 0.24127 0.82681 0.72559 0.0
C457 C 0.20508 0.71819 0.80535 0.0
C458 C 0.18235 0.71707 0.79308 0.0
C459 C 0.22533 0.73144 0.79614 0.0
C460 C 0.22329 0.74358 0.7744 0.0
C461 C 0.20037 0.74332 0.76264 0.0
C462 C 0.1801 0.73022 0.77188 0.0
C463 C 0.24511 0.75582 0.76331 0.0
C464 C 0.24376 0.78063 0.75673 0.0
C465 C 0.2669 0.74306 0.75873 0.0
C466 C 0.26902 0.71647 0.7641 0.0
C467 C 0.25218 0.69866 0.75424 0.0
C468 C 0.25413 0.67367 0.75962 0.0
C469 C 0.27298 0.66625 0.77468 0.0
C470 C 0.28997 0.6838 0.78432 0.0
C471 C 0.28808 0.70882 0.77903 0.0
H472 H 0.27445 0.6469 0.77883 0.0
H473 H 0.25549 0.8885 0.72302 0.0
H474 H 0.64819 0.69693 0.74699 0.0
H475 H 0.67845 0.72165 0.77054 0.0
H476 H 0.73232 0.71275 0.71561 0.0
H477 H 0.70232 0.6878 0.69204 0.0
H478 H 0.75163 0.70491 0.75922 0.0
H479 H 0.70286 0.76642 0.72221 0.0
H480 H 0.66428 0.78655 0.71192 0.0
H481 H 0.65035 0.79972 0.78586 0.0
H482 H 0.68869 0.77932 0.79661 0.0
H483 H 0.841 0.7979 0.78752 0.0
H484 H 0.80813 0.77249 0.76872 0.0
H485 H 0.76042 0.78717 0.82765 0.0
H486 H 0.79327 0.81318 0.84657 0.0
H487 H 0.73649 0.79095 0.7854 0.0
H488 H 0.78677 0.73174 0.82232 0.0
H489 H 0.82566 0.7121 0.83242 0.0
H490 H 0.83682 0.69457 0.7588 0.0
H491 H 0.79818 0.71445 0.7482 0.0
C492 C 0.66646 0.70026 0.73988 0.0
C493 C 0.67282 0.69041 0.71759 0.0
C494 C 0.68371 0.71446 0.75335 0.0
C495 C 0.70757 0.71918 0.74474 0.0
C496 C 0.714 0.7093 0.72258 0.0
C497 C 0.69679 0.69512 0.7091 0.0
C498 C 0.72598 0.73428 0.75886 0.0
C499 C 0.74842 0.7238 0.76476 0.0
C500 C 0.72146 0.75867 0.76667 0.0
C501 C 0.6985 0.7711 0.76022 0.0
C502 C 0.69147 0.77343 0.73628 0.0
C503 C 0.66966 0.78492 0.73036 0.0
C504 C 0.65484 0.79434 0.74822 0.0
C505 C 0.66183 0.79237 0.77204 0.0
C506 C 0.68361 0.78086 0.77806 0.0
C507 C 0.82357 0.79573 0.79659 0.0
C508 C 0.81982 0.80749 0.81864 0.0
C509 C 0.8048 0.7811 0.78582 0.0
C510 C 0.78196 0.77763 0.79695 0.0
C511 C 0.77797 0.78954 0.81882 0.0
C512 C 0.79678 0.80431 0.82963 0.0
C513 C 0.7623 0.76169 0.78544 0.0
C514 C 0.73961 0.77198 0.78006 0.0
C515 C 0.76657 0.7371 0.77811 0.0
C516 C 0.78964 0.72475 0.78445 0.0
C517 C 0.79759 0.72383 0.80827 0.0
C518 C 0.81958 0.71264 0.81408 0.0
C519 C 0.83373 0.70214 0.79626 0.0
C520 C 0.82585 0.70273 0.77259 0.0
C521 C 0.80389 0.71393 0.76667 0.0
H522 H 0.85077 0.69351 0.8008 0.0
H523 H 0.63796 0.80322 0.74361 0.0
H524 H 0.6719 0.28273 0.81334 0.0
H525 H 0.68155 0.251 0.78357 0.0
H526 H 0.75686 0.27938 0.78201 0.0
H527 H 0.74753 0.31089 0.81144 0.0
H528 H 0.73581 0.27474 0.73754 0.0
H529 H 0.74251 0.22608 0.80906 0.0
H530 H 0.72663 0.20757 0.84588 0.0
H531 H 0.66899 0.16861 0.80614 0.0
H532 H 0.68436 0.18716 0.7691 0.0
H533 H 0.80841 0.18732 0.68195 0.0
H534 H 0.78859 0.21604 0.70872 0.0
H535 H 0.72079 0.17186 0.70355 0.0
H536 H 0.74068 0.14264 0.67708 0.0
H537 H 0.73065 0.18391 0.7484 0.0
H538 H 0.72629 0.22812 0.67641 0.0
H539 H 0.74129 0.24647 0.6392 0.0
H540 H 0.79248 0.29404 0.67869 0.0
H541 H 0.77804 0.27575 0.71614 0.0
C542 C 0.69058 0.28194 0.80689 0.0
C543 C 0.7089 0.29944 0.81465 0.0
C544 C 0.69604 0.26385 0.78988 0.0
C545 C 0.71988 0.26301 0.7805 0.0
C546 C 0.7383 0.27989 0.78886 0.0
C547 C 0.73292 0.29784 0.80578 0.0
C548 C 0.72582 0.2453 0.76131 0.0
C549 C 0.73482 0.25487 0.73993 0.0
C550 C 0.72356 0.21942 0.76413 0.0
C551 C 0.71439 0.20824 0.78637 0.0
C552 C 0.72632 0.21374 0.8082 0.0
C553 C 0.71744 0.2032 0.8291 0.0
C554 C 0.69676 0.18699 0.82836 0.0
C555 C 0.68497 0.18121 0.8067 0.0
C556 C 0.69376 0.19172 0.78575 0.0
C557 C 0.78921 0.1838 0.68627 0.0
C558 C 0.77614 0.16269 0.67733 0.0
C559 C 0.77786 0.20031 0.70154 0.0
C560 C 0.75311 0.19626 0.70792 0.0
C561 C 0.7399 0.17536 0.69883 0.0
C562 C 0.75129 0.15873 0.68365 0.0
C563 C 0.74151 0.21338 0.7249 0.0
C564 C 0.73132 0.20375 0.7458 0.0
C565 C 0.74248 0.23926 0.72158 0.0
C566 C 0.75117 0.25043 0.69909 0.0
C567 C 0.74087 0.24238 0.67716 0.0
C568 C 0.74925 0.25279 0.65602 0.0
C569 C 0.76785 0.27138 0.65658 0.0
C570 C 0.77807 0.27964 0.67829 0.0
C571 C 0.76977 0.26928 0.69948 0.0
H572 H 0.77432 0.27941 0.64019 0.0
H573 H 0.68992 0.17885 0.84456 0.0
H574 H 0.213 0.31255 0.67912 0.0
H575 H 0.2455 0.29489 0.70362 0.0
H576 H 0.18998 0.25719 0.7454 0.0
H577 H 0.15773 0.27455 0.7213 0.0
H578 H 0.223 0.28706 0.77228 0.0
H579 H 0.22396 0.22563 0.70769 0.0
H580 H 0.22986 0.21258 0.66605 0.0
H581 H 0.30416 0.24286 0.66854 0.0
H582 H 0.29857 0.25638 0.71014 0.0
H583 H 0.26008 0.18847 0.83794 0.0
H584 H 0.24376 0.21792 0.81032 0.0
H585 H 0.31741 0.23738 0.78721 0.0
H586 H 0.33407 0.20751 0.815 0.0
H587 H 0.28546 0.2267 0.74971 0.0
H588 H 0.28694 0.28 0.81705 0.0
H589 H 0.28125 0.29241 0.85887 0.0
H590 H 0.20312 0.27849 0.85148 0.0
H591 H 0.20835 0.26563 0.80972 0.0
C592 C 0.20781 0.30002 0.69319 0.0
C593 C 0.18282 0.29514 0.69847 0.0
C594 C 0.22636 0.29006 0.7072 0.0
C595 C 0.22007 0.27506 0.72651 0.0
C596 C 0.19519 0.26901 0.73079 0.0
C597 C 0.17678 0.27889 0.71692 0.0
C598 C 0.23885 0.26666 0.74348 0.0
C599 C 0.23671 0.27388 0.76738 0.0
C600 C 0.25745 0.25043 0.73685 0.0
C601 C 0.26074 0.24232 0.71189 0.0
C602 C 0.24147 0.22973 0.69928 0.0
C603 C 0.24478 0.22219 0.67571 0.0
C604 C 0.26734 0.22697 0.66463 0.0
C605 C 0.28667 0.23923 0.67713 0.0
C606 C 0.28345 0.24682 0.7007 0.0
C607 C 0.27291 0.19927 0.8273 0.0
C608 C 0.29837 0.19564 0.82862 0.0
C609 C 0.26355 0.2162 0.81156 0.0
C610 C 0.27939 0.22997 0.79682 0.0
C611 C 0.30491 0.22697 0.79851 0.0
C612 C 0.31438 0.21005 0.81447 0.0
C613 C 0.26861 0.24604 0.77871 0.0
C614 C 0.27229 0.24043 0.7546 0.0
C615 C 0.25141 0.26388 0.7851 0.0
C616 C 0.24807 0.2718 0.81021 0.0
C617 C 0.26855 0.27945 0.82437 0.0
C618 C 0.26541 0.28658 0.84807 0.0
C619 C 0.24184 0.28623 0.85783 0.0
C620 C 0.22136 0.27879 0.84389 0.0
C621 C 0.22441 0.27162 0.82018 0.0
H622 H 0.23944 0.29175 0.87619 0.0
H623 H 0.26987 0.22111 0.64638 0.0
H624 H 0.17496 0.95102 0.33372 0.0
H625 H 0.16313 0.98113 0.30434 0.0
H626 H 0.12204 0.92365 0.26518 0.0
H627 H 0.13278 0.89375 0.29551 0.0
H628 H 0.17583 0.98386 0.26167 0.0
H629 H 0.07965 0.949 0.22843 0.0
H630 H 0.04239 0.92694 0.24329 0.0
H631 H 0.05945 0.95328 0.31411 0.0
H632 H 0.09663 0.9757 0.29962 0.0
H633 H 0.15001 0.06586 0.16919 0.0
H634 H 0.15312 0.02544 0.18798 0.0
H635 H 0.09708 0.04502 0.23795 0.0
H636 H 0.09307 0.08438 0.21881 0.0
H637 H 0.09215 0.99878 0.23031 0.0
H638 H 0.16181 0.05526 0.24882 0.0
H639 H 0.19814 0.08184 0.23902 0.0
H640 H 0.23249 0.01965 0.20687 0.0
H641 H 0.1962 0.99277 0.21627 0.0
C642 C 0.16285 0.945 0.31917 0.0
C643 C 0.15461 0.92017 0.31693 0.0
C644 C 0.15628 0.96214 0.30223 0.0
C645 C 0.14179 0.95475 0.28236 0.0
C646 C 0.13291 0.93 0.28047 0.0
C647 C 0.139 0.91291 0.29783 0.0
C648 C 0.13726 0.97287 0.2633 0.0
C649 C 0.15749 0.987 0.2548 0.0
C650 C 0.11344 0.977 0.25407 0.0
C651 C 0.09106 0.96374 0.26297 0.0
C652 C 0.07541 0.9501 0.24716 0.0
C653 C 0.05431 0.93754 0.25552 0.0
C654 C 0.04862 0.93862 0.27964 0.0
C655 C 0.06394 0.95236 0.29545 0.0
C656 C 0.08504 0.96497 0.28717 0.0
C657 C 0.13798 0.06125 0.18382 0.0
C658 C 0.12162 0.07857 0.19273 0.0
C659 C 0.13985 0.0382 0.19464 0.0
C660 C 0.12574 0.03235 0.21479 0.0
C661 C 0.10824 0.04898 0.22253 0.0
C662 C 0.10612 0.0717 0.2116 0.0
C663 C 0.13057 0.01041 0.22953 0.0
C664 C 0.1105 0.99534 0.23698 0.0
C665 C 0.15441 0.00603 0.23858 0.0
C666 C 0.17622 0.02211 0.23296 0.0
C667 C 0.17706 0.04731 0.23953 0.0
C668 C 0.19764 0.06241 0.23407 0.0
C669 C 0.21758 0.05246 0.22226 0.0
C670 C 0.21701 0.02735 0.21595 0.0
C671 C 0.19645 0.01218 0.22134 0.0
H672 H 0.23349 0.06418 0.21804 0.0
H673 H 0.03229 0.92888 0.28608 0.0
H674 H 0.85543 0.43718 0.17954 0.0
H675 H 0.85067 0.47563 0.20204 0.0
H676 H 0.92853 0.47852 0.21892 0.0
H677 H 0.93296 0.43934 0.19754 0.0
H678 H 0.90583 0.48388 0.25706 0.0
H679 H 0.89886 0.52296 0.18249 0.0
H680 H 0.88396 0.52917 0.1416 0.0
H681 H 0.81025 0.53639 0.16701 0.0
H682 H 0.82462 0.52988 0.20803 0.0
H683 H 0.88677 0.59734 0.32338 0.0
H684 H 0.90193 0.56892 0.29282 0.0
H685 H 0.8273 0.54309 0.27718 0.0
H686 H 0.81209 0.57092 0.30747 0.0
H687 H 0.85456 0.55444 0.23643 0.0
H688 H 0.86243 0.50895 0.30999 0.0
H689 H 0.8782 0.5031 0.35066 0.0
H690 H 0.95259 0.50965 0.32563 0.0
H691 H 0.93722 0.51585 0.28483 0.0
C692 C 0.87162 0.44643 0.18749 0.0
C693 C 0.89453 0.4353 0.1869 0.0
C694 C 0.86893 0.46849 0.20033 0.0
C695 C 0.88927 0.48017 0.2122 0.0
C696 C 0.91251 0.46986 0.21011 0.0
C697 C 0.91507 0.44754 0.19778 0.0
C698 C 0.8858 0.50129 0.22896 0.0
C699 C 0.89514 0.49961 0.25225 0.0
C700 C 0.87156 0.52174 0.223 0.0
C701 C 0.86282 0.52577 0.19835 0.0
C702 C 0.87944 0.52571 0.17935 0.0
C703 C 0.87109 0.52931 0.15615 0.0
C704 C 0.84617 0.53314 0.15171 0.0
C705 C 0.82955 0.53342 0.17048 0.0
C706 C 0.8378 0.52982 0.19372 0.0
C707 C 0.87364 0.58548 0.31352 0.0
C708 C 0.84823 0.58637 0.31796 0.0
C709 C 0.88232 0.56934 0.29604 0.0
C710 C 0.86568 0.55404 0.28268 0.0
C711 C 0.84041 0.55489 0.28716 0.0
C712 C 0.83179 0.57072 0.30466 0.0
C713 C 0.87424 0.53658 0.26428 0.0
C714 C 0.86577 0.53895 0.24083 0.0
C715 C 0.8895 0.51692 0.26996 0.0
C716 C 0.89869 0.51318 0.29445 0.0
C717 C 0.88215 0.50937 0.31321 0.0
C718 C 0.89101 0.50594 0.33626 0.0
C719 C 0.91638 0.50609 0.34074 0.0
C720 C 0.93294 0.50959 0.32215 0.0
C721 C 0.92417 0.51305 0.29906 0.0
H722 H 0.92321 0.50343 0.3586 0.0
H723 H 0.83975 0.53591 0.13373 0.0
H724 H 0.30474 0.08942 0.93376 0.0
H725 H 0.28579 0.0887 0.97286 0.0
H726 H 0.30401 0.16653 0.98247 0.0
H727 H 0.32381 0.16711 0.94334 0.0
H728 H 0.30467 0.14109 0.02545 0.0
H729 H 0.24958 0.14981 0.95933 0.0
H730 H 0.23128 0.13894 0.92012 0.0
H731 H 0.20757 0.06765 0.94568 0.0
H732 H 0.22609 0.07795 0.98496 0.0
H733 H 0.20395 0.16306 0.1039 0.0
H734 H 0.23405 0.16405 0.07189 0.0
H735 H 0.21685 0.08704 0.05599 0.0
H736 H 0.18655 0.08594 0.0878 0.0
H737 H 0.21658 0.11404 0.01663 0.0
H738 H 0.27132 0.10618 0.08351 0.0
H739 H 0.28959 0.11779 0.12256 0.0
H740 H 0.31319 0.18862 0.09583 0.0
H741 H 0.29476 0.17755 0.05669 0.0
C742 C 0.3055 0.10618 0.94457 0.0
C743 C 0.31562 0.12834 0.93553 0.0
C744 C 0.29453 0.10579 0.96685 0.0
C745 C 0.29288 0.1277 0.98031 0.0
C746 C 0.30495 0.14944 0.97231 0.0
C747 C 0.31635 0.14974 0.95002 0.0
C748 C 0.27606 0.12827 1.00101 0.0
C749 C 0.28535 0.13547 0.02352 0.0
C750 C 0.25086 0.12072 0.99854 0.0
C751 C 0.23942 0.11458 0.97502 0.0
C752 C 0.24061 0.13175 0.95654 0.0
C753 C 0.23018 0.1257 0.93431 0.0
C754 C 0.21832 0.1026 0.9304 0.0
C755 C 0.21679 0.08552 0.94873 0.0
C756 C 0.22724 0.09147 0.97099 0.0
C757 C 0.20666 0.14627 0.0937 0.0
C758 C 0.19274 0.12442 0.09841 0.0
C759 C 0.22401 0.14685 0.07547 0.0
C760 C 0.2279 0.12557 0.06162 0.0
C761 C 0.21421 0.10369 0.06644 0.0
C762 C 0.19688 0.10308 0.08467 0.0
C763 C 0.24521 0.12637 0.04128 0.0
C764 C 0.23592 0.1196 0.01868 0.0
C765 C 0.27028 0.13447 0.04374 0.0
C766 C 0.28144 0.14113 0.06723 0.0
C767 C 0.28023 0.12431 0.08601 0.0
C768 C 0.29065 0.13077 0.10815 0.0
C769 C 0.30249 0.15395 0.11169 0.0
C770 C 0.30399 0.17068 0.09307 0.0
C771 C 0.29358 0.16432 0.0709 0.0
H772 H 0.31055 0.15892 0.12885 0.0
H773 H 0.21026 0.09794 0.91317 0.0
H774 H 0.8409 0.38088 0.07657 0.0
H775 H 0.8127 0.38221 0.04255 0.0
H776 H 0.75179 0.36024 0.08708 0.0
H777 H 0.77989 0.35891 0.12131 0.0
H778 H 0.75212 0.33383 0.04409 0.0
H779 H 0.75588 0.4181 0.07052 0.0
H780 H 0.77612 0.45761 0.08371 0.0
H781 H 0.81281 0.46365 0.01676 0.0
H782 H 0.79307 0.42399 0.00328 0.0
H783 H 0.67577 0.35201 0.94013 0.0
H784 H 0.69047 0.35451 0.98164 0.0
H785 H 0.76048 0.3853 0.95835 0.0
H786 H 0.74598 0.38356 0.91763 0.0
H787 H 0.74711 0.40942 0.99588 0.0
H788 H 0.74984 0.32227 0.97261 0.0
H789 H 0.73129 0.28202 0.9592 0.0
H790 H 0.68371 0.28107 0.01965 0.0
H791 H 0.70181 0.32147 0.03326 0.0
C792 C 0.82151 0.37641 0.07919 0.0
C793 C 0.81266 0.36988 0.10169 0.0
C794 C 0.80538 0.37725 0.05973 0.0
C795 C 0.7801 0.37152 0.06233 0.0
C796 C 0.77121 0.36478 0.0847 0.0
C797 C 0.78731 0.36414 0.10425 0.0
C798 C 0.76319 0.37234 0.04149 0.0
C799 C 0.7506 0.35047 0.03376 0.0
C800 C 0.76131 0.394 0.02799 0.0
C801 C 0.77309 0.41798 0.03595 0.0
C802 C 0.76839 0.42777 0.05867 0.0
C803 C 0.77976 0.45021 0.06619 0.0
C804 C 0.79577 0.46311 0.0511 0.0
C805 C 0.8004 0.45363 0.02843 0.0
C806 C 0.7891 0.43119 0.02083 0.0
C807 C 0.6942 0.35948 0.94397 0.0
C808 C 0.70965 0.36753 0.92548 0.0
C809 C 0.70263 0.3608 0.96766 0.0
C810 C 0.72669 0.36997 0.97315 0.0
C811 C 0.74183 0.3783 0.9547 0.0
C812 C 0.73346 0.37716 0.93128 0.0
C813 C 0.73693 0.37061 0.99779 0.0
C814 C 0.7482 0.39285 0.00638 0.0
C815 C 0.73775 0.34924 0.01194 0.0
C816 C 0.72693 0.32499 0.00377 0.0
C817 C 0.73529 0.31355 0.98293 0.0
C818 C 0.72489 0.2907 0.97532 0.0
C819 C 0.70627 0.27904 0.98852 0.0
C820 C 0.69808 0.29016 0.00941 0.0
C821 C 0.70841 0.31301 0.01708 0.0
H822 H 0.69824 0.26135 0.9826 0.0
H823 H 0.80455 0.48048 0.05696 0.0
H824 H 0.30179 0.81162 0.59822 0.0
H825 H 0.27117 0.81447 0.56643 0.0
H826 H 0.29963 0.88785 0.55059 0.0
H827 H 0.32999 0.88536 0.5828 0.0
H828 H 0.25052 0.88615 0.54856 0.0
H829 H 0.31487 0.83633 0.51726 0.0
H830 H 0.34259 0.80129 0.5166 0.0
H831 H 0.28009 0.75014 0.51433 0.0
H832 H 0.25198 0.78491 0.51529 0.0
H833 H 0.22246 0.90032 0.42737 0.0
H834 H 0.23902 0.89593 0.46736 0.0
H835 H 0.19815 0.82645 0.47396 0.0
H836 H 0.18128 0.83086 0.4336 0.0
H837 H 0.24775 0.82296 0.4837 0.0
H838 H 0.18356 0.87415 0.5089 0.0
H839 H 0.15677 0.90988 0.50815 0.0
H840 H 0.2196 0.95922 0.52057 0.0
H841 H 0.24685 0.92381 0.52106 0.0
C842 C 0.30154 0.82841 0.58802 0.0
C843 C 0.3185 0.84821 0.59295 0.0
C844 C 0.28402 0.82998 0.56979 0.0
C845 C 0.28328 0.85123 0.55586 0.0
C846 C 0.29984 0.87124 0.56107 0.0
C847 C 0.31727 0.86976 0.57943 0.0
C848 C 0.26571 0.85243 0.53549 0.0
C849 C 0.25003 0.87243 0.5343 0.0
C850 C 0.26447 0.83411 0.51721 0.0
C851 C 0.28134 0.81321 0.51663 0.0
C852 C 0.30704 0.81761 0.51682 0.0
C853 C 0.32282 0.7978 0.51636 0.0
C854 C 0.31311 0.7735 0.51551 0.0
C855 C 0.28758 0.76897 0.51505 0.0
C856 C 0.27172 0.78872 0.51553 0.0
C857 C 0.21654 0.88435 0.4375 0.0
C858 C 0.20063 0.86588 0.42733 0.0
C859 C 0.22595 0.88192 0.46043 0.0
C860 C 0.21978 0.86091 0.47372 0.0
C861 C 0.20307 0.84286 0.46403 0.0
C862 C 0.19334 0.84546 0.44106 0.0
C863 C 0.23292 0.85694 0.49653 0.0
C864 C 0.24787 0.83645 0.49817 0.0
C865 C 0.2336 0.87489 0.5151 0.0
C866 C 0.21728 0.89629 0.51488 0.0
C867 C 0.1917 0.89262 0.5113 0.0
C868 C 0.17642 0.91282 0.51095 0.0
C869 C 0.18648 0.9368 0.51427 0.0
C870 C 0.21183 0.94063 0.518 0.0
C871 C 0.2272 0.92049 0.51835 0.0
H872 H 0.17461 0.95242 0.514 0.0
H873 H 0.32535 0.75819 0.51514 0.0
H874 H 0.70544 0.66363 0.61026 0.0
H875 H 0.73647 0.66701 0.57918 0.0
H876 H 0.71425 0.59417 0.55283 0.0
H877 H 0.68337 0.59052 0.584 0.0
H878 H 0.76397 0.60068 0.55335 0.0
H879 H 0.69433 0.64615 0.52626 0.0
H880 H 0.66333 0.67815 0.52917 0.0
H881 H 0.72096 0.73472 0.53383 0.0
H882 H 0.75232 0.70299 0.53126 0.0
H883 H 0.79029 0.59711 0.43191 0.0
H884 H 0.77469 0.59763 0.47225 0.0
H885 H 0.80847 0.67031 0.48417 0.0
H886 H 0.82432 0.66984 0.44335 0.0
H887 H 0.75941 0.6683 0.49519 0.0
H888 H 0.82898 0.62237 0.5153 0.0
H889 H 0.85935 0.58991 0.51125 0.0
H890 H 0.80193 0.53386 0.51894 0.0
H891 H 0.77113 0.56596 0.52268 0.0
C892 C 0.7072 0.64827 0.59793 0.0
C893 C 0.69177 0.62684 0.59956 0.0
C894 C 0.72494 0.65026 0.58012 0.0
C895 C 0.72755 0.63094 0.5635 0.0
C896 C 0.71259 0.60932 0.56545 0.0
C897 C 0.69485 0.6073 0.58324 0.0
C898 C 0.74527 0.63344 0.5436 0.0
C899 C 0.76292 0.61539 0.54056 0.0
C900 C 0.74448 0.65311 0.52735 0.0
C901 C 0.72566 0.67219 0.52887 0.0
C902 C 0.70038 0.6654 0.52811 0.0
C903 C 0.68275 0.68349 0.52966 0.0
C904 C 0.69017 0.70845 0.53176 0.0
C905 C 0.71524 0.71538 0.53225 0.0
C906 C 0.73295 0.69735 0.53074 0.0
C907 C 0.79491 0.61301 0.44326 0.0
C908 C 0.8085 0.63347 0.43445 0.0
C909 C 0.78606 0.61323 0.4664 0.0
C910 C 0.79047 0.63395 0.48133 0.0
C911 C 0.80492 0.65408 0.47297 0.0
C912 C 0.81411 0.65373 0.44974 0.0
C913 C 0.77774 0.63518 0.50457 0.0
C914 C 0.76091 0.65388 0.50824 0.0
C915 C 0.77924 0.61606 0.52134 0.0
C916 C 0.7977 0.59662 0.51915 0.0
C917 C 0.82278 0.60312 0.51595 0.0
C918 C 0.84009 0.58478 0.51375 0.0
C919 C 0.83257 0.55984 0.51481 0.0
C920 C 0.80773 0.55319 0.51813 0.0
C921 C 0.79034 0.57146 0.52033 0.0
H922 H 0.846 0.54567 0.5131 0.0
H923 H 0.67649 0.72243 0.53295 0.0
H924 H 0.97605 0.35761 0.13084 0.0
H925 H 0.00796 0.33162 0.11485 0.0
H926 H 0.95235 0.27516 0.09632 0.0
H927 H 0.92036 0.30193 0.111 0.0
H928 H 0.01775 0.29319 0.1365 0.0
H929 H 0.97377 0.23042 0.06074 0.0
H930 H 0.948 0.23476 0.02487 0.0
H931 H 0.9721 0.31101 0.02002 0.0
H932 H 0.9983 0.30707 0.05564 0.0
H933 H 0.0445 0.173 0.14556 0.0
H934 H 0.0189 0.20391 0.12778 0.0
H935 H 0.08131 0.23267 0.0888 0.0
H936 H 0.10728 0.20148 0.10659 0.0
H937 H 0.02008 0.23274 0.06948 0.0
H938 H 0.08504 0.26558 0.12569 0.0
H939 H 0.11088 0.25999 0.16138 0.0
H940 H 0.04592 0.2467 0.2029 0.0
H941 H 0.01976 0.25189 0.16733 0.0
C942 C 0.97063 0.34013 0.1223 0.0
C943 C 0.94588 0.3317 0.12204 0.0
C944 C 0.98885 0.32521 0.11327 0.0
C945 C 0.98272 0.30126 0.10451 0.0
C946 C 0.95767 0.29366 0.10254 0.0
C947 C 0.93933 0.30893 0.11102 0.0
C948 C 0.00233 0.28291 0.10204 0.0
C949 C 0.01857 0.28058 0.12139 0.0
C950 C 0.00347 0.266 0.08259 0.0
C951 C 0.98792 0.26846 0.06099 0.0
C952 C 0.97371 0.24808 0.05195 0.0
C953 C 0.95898 0.25048 0.03167 0.0
C954 C 0.95837 0.27316 0.0202 0.0
C955 C 0.97253 0.29348 0.02896 0.0
C956 C 0.98729 0.29117 0.04923 0.0
C957 C 0.05261 0.18528 0.13251 0.0
C958 C 0.07796 0.18513 0.12774 0.0
C959 C 0.03789 0.20279 0.12222 0.0
C960 C 0.04827 0.22056 0.10709 0.0
C961 C 0.07297 0.21889 0.10028 0.0
C962 C 0.08777 0.20115 0.11051 0.0
C963 C 0.03501 0.2436 0.10373 0.0
C964 C 0.01972 0.24632 0.08381 0.0
C965 C 0.03491 0.26132 0.12236 0.0
C966 C 0.05052 0.25898 0.14389 0.0
C967 C 0.07632 0.26137 0.14243 0.0
C968 C 0.091 0.25828 0.16262 0.0
C969 C 0.08005 0.25295 0.18439 0.0
C970 C 0.05438 0.25081 0.18603 0.0
C971 C 0.03962 0.25386 0.16587 0.0
H972 H 0.09145 0.25053 0.2 0.0
H973 H 0.94695 0.27498 0.00451 0.0
H974 H 0.92597 0.67076 0.3702 0.0
H975 H 0.96711 0.69091 0.36995 0.0
H976 H 0.93484 0.76229 0.37598 0.0
H977 H 0.89367 0.74233 0.37601 0.0
H978 H 0.96984 0.76241 0.34252 0.0
H979 H 0.9633 0.7366 0.42349 0.0
H980 H 0.95594 0.70691 0.45566 0.0
H981 H 0.0157 0.66393 0.431 0.0
H982 H 0.0232 0.6932 0.39847 0.0
H983 H 0.08015 0.8332 0.36783 0.0
H984 H 0.03903 0.81332 0.37026 0.0
H985 H 0.07094 0.74158 0.36722 0.0
H986 H 0.11211 0.7613 0.3653 0.0
H987 H 0.03596 0.74175 0.39944 0.0
H988 H 0.04233 0.76665 0.31831 0.0
H989 H 0.04978 0.79574 0.28566 0.0
H990 H 0.99052 0.83964 0.30989 0.0
H991 H 0.98292 0.81097 0.34289 0.0
C992 C 0.92761 0.69074 0.3716 0.0
C993 C 0.90647 0.7049 0.37317 0.0
C994 C 0.95117 0.70224 0.37153 0.0
C995 C 0.95413 0.72814 0.37314 0.0
C996 C 0.93306 0.7423 0.37472 0.0
C997 C 0.90951 0.73082 0.37482 0.0
C998 C 0.97911 0.74053 0.37269 0.0
C999 C 0.98419 0.75815 0.35518 0.0
C1000 C 0.99807 0.73454 0.38881 0.0
C1001 C 0.99365 0.71696 0.40841 0.0
C1002 C 0.97475 0.72071 0.42481 0.0
C1003 C 0.97057 0.70398 0.44314 0.0
C1004 C 0.9853 0.68352 0.44534 0.0
C1005 C 0.00428 0.67978 0.42926 0.0
C1006 C 0.00852 0.69644 0.41089 0.0
C1007 C 0.07844 0.81319 0.36772 0.0
C1008 C 0.09947 0.79886 0.36629 0.0
C1009 C 0.05487 0.80183 0.369 0.0
C1010 C 0.05178 0.77591 0.3686 0.0
C1011 C 0.07279 0.76159 0.36753 0.0
C1012 C 0.09635 0.77293 0.36637 0.0
C1013 C 0.02671 0.76367 0.36927 0.0
C1014 C 0.02161 0.74606 0.38679 0.0
C1015 C 0.00775 0.76958 0.35309 0.0
C1016 C 0.01222 0.7868 0.33321 0.0
C1017 C 0.03101 0.78261 0.31678 0.0
C1018 C 0.03524 0.799 0.29819 0.0
C1019 C 0.02068 0.81956 0.29574 0.0
C1020 C 0.00181 0.82373 0.31183 0.0
C1021 C 0.99752 0.8074 0.33047 0.0
H1022 H 0.02399 0.83223 0.28133 0.0
H1023 H 0.98204 0.67058 0.45954 0.0
H1024 H 0.60598 0.69539 0.60876 0.0
H1025 H 0.58032 0.72613 0.58984 0.0
H1026 H 0.51851 0.70172 0.63203 0.0
H1027 H 0.54372 0.67118 0.65085 0.0
H1028 H 0.51743 0.72412 0.57235 0.0
H1029 H 0.52319 0.75414 0.66778 0.0
H1030 H 0.55167 0.75345 0.70223 0.0
H1031 H 0.61359 0.76234 0.65586 0.0
H1032 H 0.58542 0.7634 0.62123 0.0
H1033 H 0.41891 0.79432 0.61286 0.0
H1034 H 0.45099 0.76746 0.59864 0.0
H1035 H 0.50542 0.82707 0.60936 0.0
H1036 H 0.47348 0.85327 0.62503 0.0
H1037 H 0.51843 0.79148 0.63317 0.0
H1038 H 0.49321 0.79635 0.55276 0.0
H1039 H 0.46467 0.79615 0.51843 0.0
H1040 H 0.44293 0.72051 0.53155 0.0
H1041 H 0.47105 0.72032 0.56618 0.0
C1042 C 0.58667 0.69596 0.61331 0.0
C1043 C 0.57694 0.6812 0.63157 0.0
C1044 C 0.57204 0.71345 0.60243 0.0
C1045 C 0.5476 0.71615 0.60965 0.0
C1046 C 0.5373 0.69978 0.62616 0.0
C1047 C 0.55182 0.68249 0.63705 0.0
C1048 C 0.53438 0.73882 0.60449 0.0
C1049 C 0.5178 0.73922 0.58526 0.0
C1050 C 0.53526 0.7585 0.62123 0.0
C1051 C 0.55225 0.75868 0.64198 0.0
C1052 C 0.54288 0.75608 0.665 0.0
C1053 C 0.55896 0.7556 0.68453 0.0
C1054 C 0.58443 0.75779 0.68123 0.0
C1055 C 0.59387 0.76058 0.65839 0.0
C1056 C 0.57786 0.7611 0.63882 0.0
C1057 C 0.43757 0.80191 0.61122 0.0
C1058 C 0.44386 0.82574 0.61998 0.0
C1059 C 0.45596 0.78658 0.603 0.0
C1060 C 0.48079 0.79514 0.60291 0.0
C1061 C 0.48649 0.81993 0.60937 0.0
C1062 C 0.46825 0.83496 0.61819 0.0
C1063 C 0.50091 0.77728 0.60084 0.0
C1064 C 0.51852 0.77734 0.61931 0.0
C1065 C 0.50116 0.75845 0.58303 0.0
C1066 C 0.48421 0.75837 0.56217 0.0
C1067 C 0.48223 0.77971 0.54844 0.0
C1068 C 0.46614 0.77966 0.5289 0.0
C1069 C 0.45198 0.75834 0.52283 0.0
C1070 C 0.45392 0.73701 0.53626 0.0
C1071 C 0.46998 0.73696 0.55583 0.0
H1072 H 0.43953 0.75834 0.5077 0.0
H1073 H 0.59685 0.75737 0.69636 0.0
H1074 H 0.86274 0.09355 0.70318 0.0
H1075 H 0.87312 0.06846 0.73741 0.0
H1076 H 0.84508 0.00291 0.69984 0.0
H1077 H 0.83342 0.02818 0.66633 0.0
H1078 H 0.82666 0.00247 0.74051 0.0
H1079 H 0.90957 0.01765 0.71288 0.0
H1080 H 0.94586 0.04318 0.70094 0.0
H1081 H 0.94897 0.07835 0.76984 0.0
H1082 H 0.91251 0.05322 0.7821 0.0
H1083 H 0.91179 0.91908 0.80599 0.0
H1084 H 0.90748 0.95578 0.78246 0.0
H1085 H 0.84252 0.97386 0.82165 0.0
H1086 H 0.84619 0.93609 0.84487 0.0
H1087 H 0.90613 0.00291 0.78469 0.0
H1088 H 0.80045 0.99604 0.78343 0.0
H1089 H 0.76636 0.96579 0.79119 0.0
H1090 H 0.81275 0.90618 0.77243 0.0
H1091 H 0.84698 0.9361 0.76432 0.0
C1092 C 0.85942 0.07369 0.70206 0.0
C1093 C 0.84737 0.06275 0.68211 0.0
C1094 C 0.8653 0.05934 0.72167 0.0
C1095 C 0.85987 0.03369 0.72136 0.0
C1096 C 0.8492 0.02266 0.70074 0.0
C1097 C 0.84277 0.03705 0.68146 0.0
C1098 C 0.86368 0.0184 0.74279 0.0
C1099 C 0.84408 0.0027 0.75016 0.0
C1100 C 0.88626 0.01866 0.75565 0.0
C1101 C 0.90815 0.03377 0.7483 0.0
C1102 C 0.91789 0.03097 0.72542 0.0
C1103 C 0.9385 0.04533 0.71861 0.0
C1104 C 0.94966 0.06243 0.73459 0.0
C1105 C 0.94028 0.06514 0.75746 0.0
C1106 C 0.91965 0.05083 0.76435 0.0
C1107 C 0.89676 0.93102 0.80996 0.0
C1108 C 0.87898 0.92433 0.82695 0.0
C1109 C 0.89444 0.95221 0.79654 0.0
C1110 C 0.87436 0.96737 0.79982 0.0
C1111 C 0.85789 0.96214 0.81843 0.0
C1112 C 0.86009 0.94065 0.83183 0.0
C1113 C 0.86941 0.98645 0.78177 0.0
C1114 C 0.88865 0.00303 0.7752 0.0
C1115 C 0.84681 0.98638 0.769 0.0
C1116 C 0.82631 0.96827 0.7736 0.0
C1117 C 0.80332 0.97648 0.78094 0.0
C1118 C 0.784 0.9594 0.78539 0.0
C1119 C 0.78742 0.93407 0.7824 0.0
C1120 C 0.81015 0.92578 0.77483 0.0
C1121 C 0.82951 0.94279 0.77031 0.0
H1122 H 0.77245 0.92088 0.78589 0.0
H1123 H 0.96562 0.07353 0.72929 0.0
H1124 H 0.14848 0.58295 0.80879 0.0
H1125 H 0.15305 0.54424 0.78648 0.0
H1126 H 0.11245 0.5734 0.72764 0.0
H1127 H 0.10722 0.6117 0.74995 0.0
H1128 H 0.09792 0.52777 0.73402 0.0
H1129 H 0.1762 0.5701 0.72713 0.0
H1130 H 0.2142 0.59235 0.74124 0.0
H1131 H 0.23468 0.5286 0.78019 0.0
H1132 H 0.1966 0.50607 0.76658 0.0
H1133 H 0.12947 0.42831 0.65615 0.0
H1134 H 0.13052 0.47136 0.67125 0.0
H1135 H 0.15727 0.44705 0.73902 0.0
H1136 H 0.15579 0.40437 0.7243 0.0
H1137 H 0.18016 0.49231 0.72379 0.0
H1138 H 0.09899 0.45253 0.73345 0.0
H1139 H 0.06101 0.43069 0.71869 0.0
H1140 H 0.04668 0.49116 0.67271 0.0
H1141 H 0.08481 0.5132 0.68698 0.0
C1142 C 0.14038 0.58105 0.79117 0.0
C1143 C 0.12753 0.60047 0.78117 0.0
C1144 C 0.14318 0.55898 0.77835 0.0
C1145 C 0.13347 0.55606 0.75518 0.0
C1146 C 0.12018 0.57522 0.74542 0.0
C1147 C 0.11722 0.59715 0.75825 0.0
C1148 C 0.13691 0.53298 0.74114 0.0
C1149 C 0.11599 0.52031 0.73144 0.0
C1150 C 0.16043 0.52305 0.73787 0.0
C1151 C 0.18343 0.53647 0.746 0.0
C1152 C 0.18872 0.56088 0.73884 0.0
C1153 C 0.21029 0.57354 0.74673 0.0
C1154 C 0.22682 0.56191 0.76164 0.0
C1155 C 0.22184 0.53758 0.76865 0.0
C1156 C 0.20028 0.52486 0.76084 0.0
C1157 C 0.13605 0.43234 0.67407 0.0
C1158 C 0.14236 0.41311 0.68915 0.0
C1159 C 0.13657 0.45682 0.68269 0.0
C1160 C 0.14384 0.46228 0.7063 0.0
C1161 C 0.15165 0.44323 0.72077 0.0
C1162 C 0.15068 0.41887 0.71236 0.0
C1163 C 0.1412 0.48723 0.71694 0.0
C1164 C 0.16221 0.50013 0.72608 0.0
C1165 C 0.11782 0.49752 0.71953 0.0
C1166 C 0.09488 0.48435 0.71104 0.0
C1167 C 0.08785 0.46106 0.72003 0.0
C1168 C 0.06628 0.44867 0.71179 0.0
C1169 C 0.05148 0.45949 0.69471 0.0
C1170 C 0.05819 0.48277 0.68589 0.0
C1171 C 0.07977 0.49522 0.69405 0.0
H1172 H 0.03479 0.44987 0.68835 0.0
H1173 H 0.2435 0.57174 0.76773 0.0
H1174 H 0.6552 0.8486 0.06838 0.0
H1175 H 0.67803 0.85299 0.03132 0.0
H1176 H 0.7457 0.86558 0.07126 0.0
H1177 H 0.72299 0.8618 0.10827 0.0
H1178 H 0.7447 0.89642 0.03569 0.0
H1179 H 0.72995 0.80888 0.04395 0.0
H1180 H 0.70481 0.77046 0.04927 0.0
H1181 H 0.66474 0.78402 0.98496 0.0
H1182 H 0.68944 0.82271 0.97942 0.0
H1183 H 0.83047 0.87072 0.94406 0.0
H1184 H 0.8057 0.87057 0.98013 0.0
H1185 H 0.73926 0.86237 0.93765 0.0
H1186 H 0.76384 0.86234 0.90154 0.0
H1187 H 0.7387 0.83019 0.97377 0.0
H1188 H 0.75524 0.91727 0.96497 0.0
H1189 H 0.78125 0.95515 0.95986 0.0
H1190 H 0.81902 0.9418 0.02549 0.0
H1191 H 0.79345 0.90363 0.03084 0.0
C1192 C 0.67493 0.85237 0.06927 0.0
C1193 C 0.68725 0.85474 0.09134 0.0
C1194 C 0.688 0.85477 0.04805 0.0
C1195 C 0.7137 0.85929 0.04841 0.0
C1196 C 0.72592 0.86208 0.07044 0.0
C1197 C 0.71287 0.85983 0.09163 0.0
C1198 C 0.72797 0.8609 0.02595 0.0
C1199 C 0.74358 0.88179 0.02228 0.0
C1200 C 0.72621 0.84209 0.00815 0.0
C1201 C 0.71137 0.81882 0.01141 0.0
C1202 C 0.71565 0.80376 0.03104 0.0
C1203 C 0.7015 0.78192 0.03408 0.0
C1204 C 0.68314 0.77484 0.0175 0.0
C1205 C 0.67894 0.78955 0.99781 0.0
C1206 C 0.69302 0.81143 0.9947 0.0
C1207 C 0.81058 0.86908 0.94236 0.0
C1208 C 0.79918 0.86656 0.91985 0.0
C1209 C 0.79642 0.86907 0.96302 0.0
C1210 C 0.77057 0.86661 0.96164 0.0
C1211 C 0.75916 0.86428 0.93919 0.0
C1212 C 0.77327 0.86436 0.91854 0.0
C1213 C 0.75546 0.86566 0.98357 0.0
C1214 C 0.73973 0.84486 0.98714 0.0
C1215 C 0.75723 0.88448 1.00132 0.0
C1216 C 0.77258 0.90746 0.99819 0.0
C1217 C 0.76923 0.9223 0.97822 0.0
C1218 C 0.78386 0.94384 0.9753 0.0
C1219 C 0.80182 0.95084 0.99231 0.0
C1220 C 0.80513 0.93634 0.01231 0.0
C1221 C 0.79055 0.91476 0.01531 0.0
H1222 H 0.81313 0.96753 0.99002 0.0
H1223 H 0.67221 0.75792 0.01989 0.0
H1224 H 0.16953 0.62397 0.90062 0.0
H1225 H 0.19079 0.61476 0.93766 0.0
H1226 H 0.25532 0.65643 0.91458 0.0
H1227 H 0.23441 0.66506 0.87711 0.0
H1228 H 0.26909 0.61674 0.9367 0.0
H1229 H 0.2145 0.68127 0.95427 0.0
H1230 H 0.17505 0.70236 0.95517 0.0
H1231 H 0.14303 0.64387 0.99683 0.0
H1232 H 0.1822 0.62224 0.9959 0.0
H1233 H 0.31702 0.63154 0.05756 0.0
H1234 H 0.30248 0.63796 0.01679 0.0
H1235 H 0.23907 0.58956 0.02908 0.0
H1236 H 0.25334 0.58297 0.06951 0.0
H1237 H 0.22694 0.63533 0.01227 0.0
H1238 H 0.28349 0.57104 0.99356 0.0
H1239 H 0.32414 0.55224 0.993 0.0
H1240 H 0.35411 0.61394 0.95424 0.0
H1241 H 0.31369 0.63328 0.95485 0.0
C1242 C 0.18829 0.63107 0.90335 0.0
C1243 C 0.20019 0.64542 0.88598 0.0
C1244 C 0.20041 0.62588 0.9246 0.0
C1245 C 0.22451 0.63533 0.92915 0.0
C1246 C 0.23671 0.64901 0.91153 0.0
C1247 C 0.22469 0.65398 0.89013 0.0
C1248 C 0.23663 0.63142 0.95254 0.0
C1249 C 0.26001 0.62112 0.95322 0.0
C1250 C 0.22482 0.63705 0.97416 0.0
C1251 C 0.20123 0.65003 0.97483 0.0
C1252 C 0.19899 0.67282 0.96348 0.0
C1253 C 0.17669 0.68488 0.96401 0.0
C1254 C 0.15653 0.67443 0.976 0.0
C1255 C 0.15865 0.65192 0.98753 0.0
C1256 C 0.18091 0.63977 0.98702 0.0
C1257 C 0.30022 0.62191 0.05143 0.0
C1258 C 0.28627 0.60689 0.0669 0.0
C1259 C 0.29195 0.6256 0.02813 0.0
C1260 C 0.26962 0.61432 0.01998 0.0
C1261 C 0.25626 0.59855 0.03507 0.0
C1262 C 0.26453 0.59477 0.0582 0.0
C1263 C 0.25906 0.62014 0.9964 0.0
C1264 C 0.23602 0.631 0.99572 0.0
C1265 C 0.27137 0.61538 0.9749 0.0
C1266 C 0.29564 0.60373 0.97449 0.0
C1267 C 0.2988 0.58071 0.98511 0.0
C1268 C 0.32179 0.56993 0.98473 0.0
C1269 C 0.34171 0.58192 0.97365 0.0
C1270 C 0.33867 0.60469 0.96285 0.0
C1271 C 0.31572 0.61556 0.96319 0.0
H1272 H 0.35949 0.57355 0.97338 0.0
H1273 H 0.13928 0.6838 0.97639 0.0
H1274 H 0.722 0.19105 0.39652 0.0
H1275 H 0.74686 0.17992 0.43088 0.0
H1276 H 0.70945 0.10816 0.43186 0.0
H1277 H 0.6844 0.11916 0.39755 0.0
H1278 H 0.71123 0.13032 0.47542 0.0
H1279 H 0.76837 0.11432 0.41296 0.0
H1280 H 0.79304 0.12436 0.37763 0.0
H1281 H 0.8312 0.18344 0.41634 0.0
H1282 H 0.8065 0.17397 0.45182 0.0
H1283 H 0.7812 0.076 0.56247 0.0
H1284 H 0.76545 0.08358 0.52265 0.0
H1285 H 0.80412 0.15473 0.52291 0.0
H1286 H 0.82048 0.14701 0.56275 0.0
H1287 H 0.80273 0.13321 0.47828 0.0
H1288 H 0.74529 0.15113 0.53964 0.0
H1289 H 0.72062 0.14251 0.57529 0.0
H1290 H 0.68263 0.08185 0.53874 0.0
H1291 H 0.70736 0.08989 0.50296 0.0
C1292 C 0.71912 0.17284 0.40396 0.0
C1293 C 0.70115 0.15601 0.39431 0.0
C1294 C 0.73347 0.16646 0.42352 0.0
C1295 C 0.73017 0.14313 0.43382 0.0
C1296 C 0.71234 0.12625 0.42416 0.0
C1297 C 0.69806 0.13256 0.40453 0.0
C1298 C 0.74438 0.13677 0.4554 0.0
C1299 C 0.73123 0.13055 0.4759 0.0
C1300 C 0.77049 0.1379 0.45627 0.0
C1301 C 0.78541 0.14358 0.43498 0.0
C1302 C 0.78188 0.12958 0.41388 0.0
C1303 C 0.79589 0.13515 0.39384 0.0
C1304 C 0.81363 0.15456 0.39472 0.0
C1305 C 0.81743 0.16842 0.41567 0.0
C1306 C 0.80344 0.16295 0.43576 0.0
C1307 C 0.78683 0.09304 0.55387 0.0
C1308 C 0.80181 0.11106 0.56589 0.0
C1309 C 0.77774 0.09737 0.53112 0.0
C1310 C 0.78309 0.11999 0.52007 0.0
C1311 C 0.79963 0.13722 0.53119 0.0
C1312 C 0.80898 0.13277 0.55395 0.0
C1313 C 0.76952 0.12643 0.49812 0.0
C1314 C 0.78273 0.13283 0.47769 0.0
C1315 C 0.74341 0.12572 0.49729 0.0
C1316 C 0.72835 0.12096 0.5187 0.0
C1317 C 0.7318 0.13585 0.53926 0.0
C1318 C 0.71779 0.13108 0.55948 0.0
C1319 C 0.70011 0.11161 0.5593 0.0
C1320 C 0.69636 0.0969 0.53886 0.0
C1321 C 0.71036 0.10157 0.5186 0.0
H1322 H 0.68928 0.10794 0.57497 0.0
H1323 H 0.82446 0.15884 0.37918 0.0
H1324 H 0.20456 0.35624 0.5973 0.0
H1325 H 0.23254 0.3604 0.56373 0.0
H1326 H 0.17261 0.34071 0.51536 0.0
H1327 H 0.14458 0.33618 0.54885 0.0
H1328 H 0.21261 0.31655 0.50369 0.0
H1329 H 0.19517 0.40086 0.5219 0.0
H1330 H 0.19206 0.4381 0.54731 0.0
H1331 H 0.26985 0.43815 0.56195 0.0
H1332 H 0.27336 0.40068 0.53687 0.0
H1333 H 0.26777 0.3536 0.3962 0.0
H1334 H 0.24118 0.35184 0.43087 0.0
H1335 H 0.30434 0.36591 0.47681 0.0
H1336 H 0.33124 0.36771 0.44208 0.0
H1337 H 0.26388 0.39287 0.49027 0.0
H1338 H 0.28108 0.30869 0.47134 0.0
H1339 H 0.28388 0.27183 0.44536 0.0
H1340 H 0.20594 0.27199 0.43165 0.0
H1341 H 0.20273 0.3091 0.45729 0.0
C1342 C 0.19728 0.35285 0.57952 0.0
C1343 C 0.17225 0.34591 0.57582 0.0
C1344 C 0.21332 0.35535 0.56031 0.0
C1345 C 0.20469 0.35113 0.53693 0.0
C1346 C 0.17974 0.34409 0.5332 0.0
C1347 C 0.1637 0.34158 0.5524 0.0
C1348 C 0.22171 0.35357 0.51639 0.0
C1349 C 0.22355 0.33338 0.50062 0.0
C1350 C 0.23653 0.37528 0.51261 0.0
C1351 C 0.23448 0.3978 0.52771 0.0
C1352 C 0.21157 0.40868 0.5307 0.0
C1353 C 0.20975 0.42986 0.54501 0.0
C1354 C 0.23073 0.44045 0.55629 0.0
C1355 C 0.2536 0.42991 0.55323 0.0
C1356 C 0.25553 0.40871 0.53896 0.0
C1357 C 0.27608 0.35649 0.41364 0.0
C1358 C 0.30171 0.36069 0.41632 0.0
C1359 C 0.26081 0.35537 0.43347 0.0
C1360 C 0.27077 0.35845 0.45648 0.0
C1361 C 0.29625 0.36341 0.45924 0.0
C1362 C 0.3116 0.36438 0.43936 0.0
C1363 C 0.25458 0.35594 0.47757 0.0
C1364 C 0.25294 0.37607 0.49342 0.0
C1365 C 0.23987 0.3342 0.4814 0.0
C1366 C 0.24171 0.31182 0.46606 0.0
C1367 C 0.26457 0.30099 0.46263 0.0
C1368 C 0.26623 0.28003 0.448 0.0
C1369 C 0.24511 0.26961 0.43681 0.0
C1370 C 0.22228 0.2801 0.4403 0.0
C1371 C 0.22053 0.30108 0.4549 0.0
H1372 H 0.24643 0.25338 0.42549 0.0
H1373 H 0.22928 0.45685 0.56736 0.0
H1374 H 0.09551 0.72655 0.86726 0.0
H1375 H 0.06247 0.74707 0.88788 0.0
H1376 H 0.01578 0.6809 0.87984 0.0
H1377 H 0.04861 0.66097 0.85785 0.0
H1378 H 0.9918 0.71572 0.86547 0.0
H1379 H 0.03603 0.70711 0.93686 0.0
H1380 H 0.07161 0.70764 0.96441 0.0
H1381 H 0.08111 0.78628 0.95716 0.0
H1382 H 0.04583 0.78622 0.92926 0.0
H1383 H 0.89843 0.79182 0.90328 0.0
H1384 H 0.92849 0.76112 0.9143 0.0
H1385 H 0.98775 0.81092 0.89275 0.0
H1386 H 0.95781 0.8412 0.88116 0.0
H1387 H 1.00001 0.77687 0.93193 0.0
H1388 H 0.96305 0.77892 0.85104 0.0
H1389 H 0.92654 0.77776 0.82452 0.0
H1390 H 0.90239 0.708 0.85328 0.0
H1391 H 0.9386 0.70901 0.88027 0.0
C1392 C 0.07841 0.71622 0.87058 0.0
C1393 C 0.07451 0.69222 0.86127 0.0
C1394 C 0.05953 0.72788 0.88253 0.0
C1395 C 0.03655 0.71552 0.88581 0.0
C1396 C 0.03327 0.69088 0.87763 0.0
C1397 C 0.05202 0.67943 0.8652 0.0
C1398 C 0.01515 0.72951 0.89443 0.0
C1399 C 0.99345 0.72841 0.88056 0.0
C1400 C 0.01703 0.74637 0.91399 0.0
C1401 C 0.03827 0.74662 0.93086 0.0
C1402 C 0.04578 0.72451 0.94101 0.0
C1403 C 0.0659 0.72473 0.95671 0.0
C1404 C 0.07862 0.74698 0.96252 0.0
C1405 C 0.07122 0.76906 0.95266 0.0
C1406 C 0.05112 0.76895 0.93693 0.0
C1407 C 0.91793 0.79664 0.90208 0.0
C1408 C 0.92593 0.81877 0.8914 0.0
C1409 C 0.93507 0.77909 0.9083 0.0
C1410 C 0.96031 0.78372 0.90416 0.0
C1411 C 0.96839 0.80705 0.89621 0.0
C1412 C 0.9513 0.82433 0.88957 0.0
C1413 C 0.97747 0.76314 0.90265 0.0
C1414 C 0.99829 0.76327 0.91759 0.0
C1415 C 0.97472 0.74502 0.88437 0.0
C1416 C 0.95331 0.74417 0.86781 0.0
C1417 C 0.94986 0.76342 0.85179 0.0
C1418 C 0.92924 0.76279 0.83668 0.0
C1419 C 0.91212 0.74284 0.83726 0.0
C1420 C 0.91563 0.72346 0.8529 0.0
C1421 C 0.93619 0.72405 0.8681 0.0
H1422 H 0.89616 0.74238 0.82556 0.0
H1423 H 0.0942 0.74711 0.97467 0.0
H1424 H 0.08505 0.28473 0.61704 0.0
H1425 H 0.04797 0.25798 0.60939 0.0
H1426 H 0.00589 0.30533 0.65449 0.0
H1427 H 0.04254 0.3317 0.66225 0.0
H1428 H 0.00426 0.25773 0.6691 0.0
H1429 H 0.99474 0.30151 0.59568 0.0
H1430 H 0.00782 0.31665 0.55655 0.0
H1431 H 0.01592 0.24195 0.53189 0.0
H1432 H 0.00321 0.22636 0.57102 0.0
H1433 H 0.88068 0.21792 0.65942 0.0
H1434 H 0.91934 0.24191 0.65553 0.0
H1435 H 0.94871 0.18363 0.61251 0.0
H1436 H 0.90984 0.1593 0.61632 0.0
H1437 H 0.95989 0.23165 0.59491 0.0
H1438 H 0.96731 0.18772 0.66721 0.0
H1439 H 0.9545 0.17221 0.70629 0.0
H1440 H 0.95145 0.24672 0.73313 0.0
H1441 H 0.96389 0.26271 0.69409 0.0
C1442 C 0.06768 0.28981 0.62464 0.0
C1443 C 0.06671 0.31015 0.64041 0.0
C1444 C 0.04654 0.27447 0.62036 0.0
C1445 C 0.02422 0.27949 0.63165 0.0
C1446 C 0.02294 0.30092 0.64582 0.0
C1447 C 0.0439 0.31604 0.65016 0.0
C1448 C 0.00285 0.26142 0.63109 0.0
C1449 C 0.99445 0.25223 0.65286 0.0
C1450 C 0.99063 0.25343 0.60986 0.0
C1451 C 0.99833 0.26278 0.58637 0.0
C1452 C 0.99955 0.28832 0.582 0.0
C1453 C 0.00684 0.29698 0.5598 0.0
C1454 C 0.01278 0.28028 0.54177 0.0
C1455 C 0.01137 0.25487 0.54589 0.0
C1456 C 0.00411 0.24611 0.56807 0.0
C1457 C 0.89527 0.21015 0.64905 0.0
C1458 C 0.89217 0.18658 0.63831 0.0
C1459 C 0.9174 0.22392 0.64686 0.0
C1460 C 0.93699 0.21449 0.63388 0.0
C1461 C 0.93383 0.19125 0.62261 0.0
C1462 C 0.91166 0.17733 0.62492 0.0
C1463 C 0.96091 0.22877 0.63301 0.0
C1464 C 0.96986 0.23704 0.61107 0.0
C1465 C 0.97382 0.23593 0.6541 0.0
C1466 C 0.96633 0.22641 0.67765 0.0
C1467 C 0.96371 0.20081 0.68138 0.0
C1468 C 0.95655 0.19193 0.70354 0.0
C1469 C 0.95211 0.20847 0.72217 0.0
C1470 C 0.95487 0.23393 0.71868 0.0
C1471 C 0.962 0.24291 0.69654 0.0
H1472 H 0.94658 0.20156 0.73932 0.0
H1473 H 0.01841 0.28702 0.52459 0.0
H1474 H 0.60303 0.20945 0.38166 0.0
H1475 H 0.57041 0.23277 0.40048 0.0
H1476 H 0.51548 0.18894 0.36086 0.0
H1477 H 0.54802 0.16667 0.34127 0.0
H1478 H 0.50974 0.23403 0.3523 0.0
H1479 H 0.52038 0.18953 0.42391 0.0
H1480 H 0.54304 0.1723 0.45758 0.0
H1481 H 0.56602 0.24556 0.48104 0.0
H1482 H 0.54378 0.26325 0.44731 0.0
H1483 H 0.40815 0.29451 0.40686 0.0
H1484 H 0.43971 0.26485 0.41652 0.0
H1485 H 0.49567 0.3144 0.38816 0.0
H1486 H 0.46432 0.34369 0.37816 0.0
H1487 H 0.49713 0.26323 0.43513 0.0
H1488 H 0.50711 0.28443 0.33795 0.0
H1489 H 0.48308 0.30182 0.30516 0.0
H1490 H 0.41623 0.2704 0.33409 0.0
H1491 H 0.43995 0.25248 0.36677 0.0
C1492 C 0.58393 0.20437 0.37759 0.0
C1493 C 0.57795 0.18648 0.3599 0.0
C1494 C 0.56527 0.21764 0.38839 0.0
C1495 C 0.54039 0.21274 0.38204 0.0
C1496 C 0.53449 0.19326 0.36593 0.0
C1497 C 0.55307 0.18049 0.35477 0.0
C1498 C 0.52097 0.23013 0.38892 0.0
C1499 C 0.50687 0.23994 0.37053 0.0
C1500 C 0.51715 0.23825 0.41263 0.0
C1501 C 0.53056 0.22771 0.43295 0.0
C1502 C 0.53043 0.20197 0.43613 0.0
C1503 C 0.54317 0.19212 0.45526 0.0
C1504 C 0.556 0.20782 0.47141 0.0
C1505 C 0.55608 0.23342 0.4685 0.0
C1506 C 0.54338 0.24337 0.4494 0.0
C1507 C 0.42736 0.29967 0.40404 0.0
C1508 C 0.43388 0.32121 0.3916 0.0
C1509 C 0.4454 0.28272 0.40959 0.0
C1510 C 0.46996 0.28738 0.40282 0.0
C1511 C 0.47684 0.31052 0.39359 0.0
C1512 C 0.4589 0.32723 0.38782 0.0
C1513 C 0.48632 0.26656 0.39852 0.0
C1514 C 0.49991 0.25659 0.41712 0.0
C1515 C 0.4895 0.25771 0.37507 0.0
C1516 C 0.47526 0.26733 0.35485 0.0
C1517 C 0.48731 0.2811 0.33717 0.0
C1518 C 0.47374 0.29106 0.31864 0.0
C1519 C 0.44813 0.28727 0.31758 0.0
C1520 C 0.43605 0.27336 0.33495 0.0
C1521 C 0.44955 0.2633 0.35347 0.0
H1522 H 0.43765 0.29509 0.30328 0.0
H1523 H 0.56585 0.20016 0.48621 0.0
H1524 H 0.58393 0.56805 0.69709 0.0
H1525 H 0.58633 0.52816 0.71655 0.0
H1526 H 0.66523 0.53072 0.70745 0.0
H1527 H 0.66267 0.5701 0.68687 0.0
H1528 H 0.6489 0.48468 0.70517 0.0
H1529 H 0.63647 0.55351 0.75901 0.0
H1530 H 0.61461 0.58931 0.77467 0.0
H1531 H 0.5502 0.5427 0.78648 0.0
H1532 H 0.57162 0.50667 0.77059 0.0
H1533 H 0.69752 0.43163 0.80613 0.0
H1534 H 0.68288 0.46058 0.77726 0.0
H1535 H 0.60813 0.43331 0.78748 0.0
H1536 H 0.62276 0.40362 0.81666 0.0
H1537 H 0.61544 0.48676 0.78686 0.0
H1538 H 0.63323 0.41612 0.73903 0.0
H1539 H 0.65815 0.3816 0.72545 0.0
H1540 H 0.71573 0.43304 0.70435 0.0
H1541 H 0.69132 0.46788 0.71814 0.0
C1542 C 0.60169 0.55971 0.69864 0.0
C1543 C 0.62316 0.57221 0.69069 0.0
C1544 C 0.60307 0.53702 0.70994 0.0
C1545 C 0.62605 0.5268 0.71419 0.0
C1546 C 0.6473 0.53831 0.70455 0.0
C1547 C 0.64584 0.56079 0.69274 0.0
C1548 C 0.62831 0.50558 0.73046 0.0
C1549 C 0.6416 0.48518 0.72302 0.0
C1550 C 0.61835 0.50589 0.75367 0.0
C1551 C 0.60553 0.52748 0.76336 0.0
C1552 C 0.6176 0.55094 0.76481 0.0
C1553 C 0.6053 0.57126 0.77374 0.0
C1554 C 0.58101 0.56829 0.7815 0.0
C1555 C 0.569 0.54498 0.78041 0.0
C1556 C 0.5812 0.5246 0.77146 0.0
C1557 C 0.67791 0.43169 0.80244 0.0
C1558 C 0.66132 0.41513 0.8137 0.0
C1559 C 0.66961 0.44824 0.78577 0.0
C1560 C 0.64451 0.44877 0.77993 0.0
C1561 C 0.62763 0.43297 0.79164 0.0
C1562 C 0.636 0.41611 0.80832 0.0
C1563 C 0.63643 0.46624 0.76169 0.0
C1564 C 0.62216 0.486 0.7688 0.0
C1565 C 0.64583 0.46552 0.73834 0.0
C1566 C 0.66047 0.44462 0.72974 0.0
C1567 C 0.65127 0.42008 0.73163 0.0
C1568 C 0.6653 0.40045 0.72388 0.0
C1569 C 0.68852 0.40512 0.71407 0.0
C1570 C 0.69773 0.42945 0.71194 0.0
C1571 C 0.68379 0.44915 0.71969 0.0
H1572 H 0.69936 0.3899 0.70808 0.0
H1573 H 0.57151 0.58405 0.7884 0.0
H1574 H 0.31232 0.07013 0.80652 0.0
H1575 H 0.32519 0.04042 0.77698 0.0
H1576 H 0.40148 0.05913 0.79353 0.0
H1577 H 0.3886 0.08989 0.82308 0.0
H1578 H 0.39452 0.05377 0.74621 0.0
H1579 H 0.37451 0.00553 0.8135 0.0
H1580 H 0.34998 0.99055 0.84733 0.0
H1581 H 0.29171 0.96546 0.79967 0.0
H1582 H 0.31574 0.98062 0.76555 0.0
H1583 H 0.43132 0.9354 0.69744 0.0
H1584 H 0.42461 0.97326 0.72044 0.0
H1585 H 0.3486 0.97118 0.69732 0.0
H1586 H 0.35531 0.93355 0.67382 0.0
H1587 H 0.35834 0.96822 0.74841 0.0
H1588 H 0.38071 0.01717 0.68079 0.0
H1589 H 0.40759 0.03083 0.64812 0.0
H1590 H 0.46484 0.05235 0.6983 0.0
H1591 H 0.43842 0.03847 0.73128 0.0
C1592 C 0.33189 0.06798 0.80409 0.0
C1593 C 0.34945 0.08227 0.81742 0.0
C1594 C 0.33922 0.05087 0.78714 0.0
C1595 C 0.36429 0.04717 0.78331 0.0
C1596 C 0.382 0.0616 0.79629 0.0
C1597 C 0.37464 0.07905 0.81324 0.0
C1598 C 0.37153 0.02807 0.76577 0.0
C1599 C 0.38694 0.03495 0.7469 0.0
C1600 C 0.36143 0.00355 0.76649 0.0
C1601 C 0.34686 0.99441 0.78697 0.0
C1602 C 0.35638 0.997 0.81024 0.0
C1603 C 0.34258 0.98845 0.82947 0.0
C1604 C 0.31928 0.97711 0.82566 0.0
C1605 C 0.30975 0.97427 0.8026 0.0
C1606 C 0.32347 0.98281 0.7833 0.0
C1607 C 0.41339 0.94349 0.69662 0.0
C1608 C 0.39379 0.9315 0.68395 0.0
C1609 C 0.40961 0.96512 0.70974 0.0
C1610 C 0.38611 0.97488 0.71063 0.0
C1611 C 0.3669 0.96389 0.69675 0.0
C1612 C 0.37079 0.9425 0.68325 0.0
C1613 C 0.38078 0.99409 0.72864 0.0
C1614 C 0.36588 0.98706 0.74775 0.0
C1615 C 0.39174 0.01821 0.7283 0.0
C1616 C 0.40767 0.02652 0.7085 0.0
C1617 C 0.39912 0.02457 0.68486 0.0
C1618 C 0.41426 0.03241 0.66628 0.0
C1619 C 0.43793 0.04238 0.67112 0.0
C1620 C 0.4465 0.04459 0.69457 0.0
C1621 C 0.43145 0.03676 0.71321 0.0
H1622 H 0.44962 0.04845 0.65672 0.0
H1623 H 0.30863 0.9705 0.84057 0.0
H1624 H 0.42509 0.17743 0.84874 0.0
H1625 H 0.4644 0.20054 0.84547 0.0
H1626 H 0.44983 0.24006 0.91064 0.0
H1627 H 0.41007 0.2175 0.91362 0.0
H1628 H 0.46709 0.27125 0.87982 0.0
H1629 H 0.49297 0.19321 0.9071 0.0
H1630 H 0.49565 0.14783 0.90732 0.0
H1631 H 0.5278 0.14911 0.83799 0.0
H1632 H 0.52501 0.19449 0.83722 0.0
H1633 H 0.59112 0.3224 0.89018 0.0
H1634 H 0.55244 0.29901 0.89773 0.0
H1635 H 0.55692 0.26303 0.82915 0.0
H1636 H 0.59539 0.28625 0.82145 0.0
H1637 H 0.54556 0.2301 0.86447 0.0
H1638 H 0.51775 0.30853 0.83734 0.0
H1639 H 0.5153 0.35395 0.83807 0.0
H1640 H 0.48735 0.35164 0.90908 0.0
H1641 H 0.48995 0.3062 0.90888 0.0
C1642 C 0.4303 0.1909 0.86249 0.0
C1643 C 0.41441 0.19553 0.88149 0.0
C1644 C 0.45289 0.20407 0.86065 0.0
C1645 C 0.46037 0.22188 0.87798 0.0
C1646 C 0.44456 0.22644 0.89704 0.0
C1647 C 0.42184 0.21344 0.89876 0.0
C1648 C 0.48429 0.2362 0.87583 0.0
C1649 C 0.4843 0.26218 0.87688 0.0
C1650 C 0.5068 0.22453 0.8716 0.0
C1651 C 0.50858 0.19724 0.87202 0.0
C1652 C 0.50045 0.1838 0.89183 0.0
C1653 C 0.50201 0.15808 0.89206 0.0
C1654 C 0.51184 0.14559 0.87266 0.0
C1655 C 0.52017 0.15881 0.853 0.0
C1656 C 0.51863 0.18453 0.85266 0.0
C1657 C 0.58384 0.30955 0.87669 0.0
C1658 C 0.59636 0.30628 0.85517 0.0
C1659 C 0.5617 0.29623 0.88101 0.0
C1660 C 0.55171 0.27932 0.86396 0.0
C1661 C 0.56427 0.27593 0.84258 0.0
C1662 C 0.58624 0.28934 0.83817 0.0
C1663 C 0.52823 0.26502 0.86827 0.0
C1664 C 0.52834 0.23908 0.86761 0.0
C1665 C 0.5059 0.27671 0.87306 0.0
C1666 C 0.50431 0.30401 0.87319 0.0
C1667 C 0.51129 0.31773 0.85318 0.0
C1668 C 0.50983 0.34347 0.85349 0.0
C1669 C 0.50125 0.35568 0.87363 0.0
C1670 C 0.49404 0.34216 0.8935 0.0
C1671 C 0.49549 0.31642 0.8933 0.0
H1672 H 0.50012 0.37561 0.87383 0.0
H1673 H 0.51304 0.12568 0.87287 0.0
H1674 H 0.35582 0.58919 0.20048 0.0
H1675 H 0.36777 0.56369 0.2339 0.0
H1676 H 0.33327 0.49945 0.19901 0.0
H1677 H 0.31997 0.52527 0.16648 0.0
H1678 H 0.31956 0.49896 0.24105 0.0
H1679 H 0.39955 0.51156 0.20609 0.0
H1680 H 0.43526 0.53576 0.19081 0.0
H1681 H 0.44623 0.57117 0.25906 0.0
H1682 H 0.41039 0.54738 0.27467 0.0
H1683 H 0.41031 0.41498 0.30007 0.0
H1684 H 0.40344 0.45089 0.2762 0.0
H1685 H 0.34199 0.46943 0.32022 0.0
H1686 H 0.34812 0.43229 0.3438 0.0
H1687 H 0.40272 0.49742 0.27803 0.0
H1688 H 0.29728 0.49297 0.28575 0.0
H1689 H 0.26346 0.46345 0.29631 0.0
H1690 H 0.30682 0.40275 0.27394 0.0
H1691 H 0.34073 0.43194 0.26302 0.0
C1692 C 0.35133 0.56951 0.19976 0.0
C1693 C 0.33711 0.55913 0.18088 0.0
C1694 C 0.35813 0.55491 0.2189 0.0
C1695 C 0.3515 0.52951 0.21911 0.0
C1696 C 0.3384 0.519 0.19953 0.0
C1697 C 0.33102 0.53369 0.18078 0.0
C1698 C 0.35694 0.51397 0.24005 0.0
C1699 C 0.33779 0.49872 0.24909 0.0
C1700 C 0.38062 0.51357 0.25082 0.0
C1701 C 0.40212 0.52792 0.24146 0.0
C1702 C 0.40946 0.52466 0.21778 0.0
C1703 C 0.42974 0.53826 0.20907 0.0
C1704 C 0.44295 0.55505 0.22393 0.0
C1705 C 0.43595 0.5582 0.24756 0.0
C1706 C 0.41566 0.54465 0.25635 0.0
C1707 C 0.39546 0.42679 0.30498 0.0
C1708 C 0.3794 0.4204 0.32357 0.0
C1709 C 0.39167 0.44755 0.29133 0.0
C1710 C 0.37185 0.46269 0.29597 0.0
C1711 C 0.35708 0.45771 0.31591 0.0
C1712 C 0.3607 0.43659 0.32952 0.0
C1713 C 0.3656 0.4818 0.27834 0.0
C1714 C 0.38446 0.49793 0.2701 0.0
C1715 C 0.34193 0.48227 0.26758 0.0
C1716 C 0.3216 0.4646 0.27389 0.0
C1717 C 0.29954 0.47332 0.28307 0.0
C1718 C 0.28037 0.45666 0.28911 0.0
C1719 C 0.28303 0.43124 0.28589 0.0
C1720 C 0.30482 0.42244 0.27651 0.0
C1721 C 0.32401 0.43902 0.2704 0.0
H1722 H 0.26819 0.41837 0.2906 0.0
H1723 H 0.45865 0.56556 0.21715 0.0
H1724 H 0.66864 0.08346 0.3059 0.0
H1725 H 0.67426 0.04442 0.28421 0.0
H1726 H 0.6073 0.05521 0.24438 0.0
H1727 H 0.60208 0.09433 0.26529 0.0
H1728 H 0.65016 0.0026 0.27988 0.0
H1729 H 0.60996 0.03467 0.18901 0.0
H1730 H 0.60917 0.07284 0.16572 0.0
H1731 H 0.67448 0.10115 0.20206 0.0
H1732 H 0.67589 0.06301 0.22532 0.0
H1733 H 0.59948 0.90361 0.21637 0.0
H1734 H 0.60754 0.9443 0.23426 0.0
H1735 H 0.66615 0.95855 0.18457 0.0
H1736 H 0.65785 0.91747 0.16611 0.0
H1737 H 0.64002 -0.00067 0.19216 0.0
H1738 H 0.68112 0.94344 0.24009 0.0
H1739 H 0.68717 0.90547 0.26271 0.0
H1740 H 0.6304 0.9256 0.31104 0.0
H1741 H 0.62371 0.9635 0.28851 0.0
C1742 C 0.65506 0.07737 0.29262 0.0
C1743 C 0.63503 0.09206 0.28716 0.0
C1744 C 0.65833 0.05512 0.28018 0.0
C1745 C 0.64157 0.04718 0.26219 0.0
C1746 C 0.62095 0.0613 0.2576 0.0
C1747 C 0.61786 0.08359 0.26974 0.0
C1748 C 0.64508 0.02395 0.24837 0.0
C1749 C 0.64813 0.00194 0.2607 0.0
C1750 C 0.64347 0.02312 0.22322 0.0
C1751 C 0.64292 0.046 0.20902 0.0
C1752 C 0.62424 0.04896 0.19193 0.0
C1753 C 0.62367 0.07062 0.17876 0.0
C1754 C 0.64173 0.08943 0.18244 0.0
C1755 C 0.66045 0.0866 0.19927 0.0
C1756 C 0.66113 0.06497 0.21247 0.0
C1757 C 0.61399 0.91541 0.20904 0.0
C1758 C 0.62822 0.90722 0.18997 0.0
C1759 C 0.61866 0.93865 0.21941 0.0
C1760 C 0.63788 0.95419 0.21119 0.0
C1761 C 0.65138 0.9467 0.19134 0.0
C1762 C 0.64658 0.92332 0.18076 0.0
C1763 C 0.64365 0.97801 0.22383 0.0
C1764 C 0.64244 0.0001 0.2113 0.0
C1765 C 0.64782 0.979 0.24871 0.0
C1766 C 0.65184 0.95629 0.26251 0.0
C1767 C 0.66981 0.9397 0.25546 0.0
C1768 C 0.67337 0.91819 0.26827 0.0
C1769 C 0.65916 0.91312 0.28828 0.0
C1770 C 0.64139 0.92956 0.29554 0.0
C1771 C 0.63774 0.95109 0.28277 0.0
H1772 H 0.66194 0.89645 0.29818 0.0
H1773 H 0.64123 0.10619 0.17224 0.0
H1774 H 0.53419 0.81735 0.16354 0.0
H1775 H 0.49943 0.7891 0.15386 0.0
H1776 H 0.54241 0.75354 0.10025 0.0
H1777 H 0.57779 0.78202 0.11003 0.0
H1778 H 0.48258 0.76221 0.09345 0.0
H1779 H 0.54567 0.72277 0.13993 0.0
H1780 H 0.57715 0.723 0.17184 0.0
H1781 H 0.52215 0.73944 0.2234 0.0
H1782 H 0.49044 0.73974 0.19171 0.0
H1783 H 0.39609 0.65806 0.10505 0.0
H1784 H 0.43376 0.68325 0.09802 0.0
H1785 H 0.4284 0.71617 0.16795 0.0
H1786 H 0.39125 0.69084 0.17524 0.0
H1787 H 0.47386 0.70398 0.16035 0.0
H1788 H 0.41195 0.74645 0.11605 0.0
H1789 H 0.37939 0.75007 0.08558 0.0
H1790 H 0.43027 0.73059 0.03114 0.0
H1791 H 0.46306 0.72655 0.06136 0.0
C1792 C 0.53611 0.804 0.1492 0.0
C1793 C 0.5588 0.8017 0.13771 0.0
C1794 C 0.51618 0.78791 0.14366 0.0
C1795 C 0.51846 0.76914 0.12653 0.0
C1796 C 0.54034 0.76802 0.11348 0.0
C1797 C 0.56048 0.7843 0.11904 0.0
C1798 C 0.49924 0.74894 0.12537 0.0
C1799 C 0.48092 0.74896 0.10765 0.0
C1800 C 0.49685 0.73217 0.14427 0.0
C1801 C 0.51575 0.73145 0.16344 0.0
C1802 C 0.54034 0.72661 0.15805 0.0
C1803 C 0.55821 0.72662 0.1761 0.0
C1804 C 0.55166 0.73128 0.19963 0.0
C1805 C 0.52721 0.73585 0.20517 0.0
C1806 C 0.50927 0.7359 0.18717 0.0
C1807 C 0.40297 0.67067 0.11892 0.0
C1808 C 0.39065 0.6724 0.14074 0.0
C1809 C 0.42445 0.68514 0.11483 0.0
C1810 C 0.43388 0.70177 0.13239 0.0
C1811 C 0.42158 0.70344 0.15414 0.0
C1812 C 0.40026 0.68895 0.15827 0.0
C1813 C 0.45671 0.71731 0.12858 0.0
C1814 C 0.4757 0.71659 0.14562 0.0
C1815 C 0.45954 0.73347 0.10911 0.0
C1816 C 0.43985 0.73589 0.09098 0.0
C1817 C 0.41613 0.74273 0.0976 0.0
C1818 C 0.39764 0.7449 0.08038 0.0
C1819 C 0.40273 0.74048 0.05645 0.0
C1820 C 0.42634 0.73395 0.04969 0.0
C1821 C 0.44488 0.73173 0.06685 0.0
H1822 H 0.3884 0.74218 0.04314 0.0
H1823 H 0.56553 0.7313 0.21358 0.0
loop_
_geom_bond_atom_site_label_1
_geom_bond_atom_site_label_2
_geom_bond_distance
_geom_bond_site_symmetry_2
_ccdc_geom_bond_type
Zn0 O3 2.031 . S
Zn0 O5 2.049 . S
Zn0 O10 2.067 . S
Zn1 O2 1.962 . S
Zn1 O4 1.986 . S
Zn1 O6 1.996 . S
Zn1 O9 1.943 . S
O2 Zn1 1.962 . S
O2 C7 1.254 . S
O3 Zn0 2.031 . S
O3 C7 1.269 . S
O4 Zn1 1.986 . S
O4 C11 1.262 . S
O5 Zn0 2.049 . S
O5 C13 1.260 . S
O6 Zn1 1.996 . S
O6 C13 1.257 . S
C7 O2 1.254 . S
C7 O3 1.269 . S
C8 O9 1.249 . S
C8 O10 1.270 . S
O9 Zn1 1.943 . S
O9 C8 1.249 . S
O10 Zn0 2.067 . S
O10 C8 1.270 . S
C11 O4 1.262 . S
C11 O12 1.232 . S
O12 C11 1.232 . S
C13 O5 1.260 . S
C13 O6 1.257 . S
Zn14 O17 2.031 . S
Zn14 O19 2.049 . S
Zn14 O24 2.067 . S
Zn15 O16 1.962 . S
Zn15 O18 1.986 . S
Zn15 O20 1.996 . S
Zn15 O23 1.943 . S
O16 Zn15 1.962 . S
O16 C21 1.254 . S
O17 Zn14 2.031 . S
O17 C21 1.269 . S
O18 Zn15 1.986 . S
O18 C25 1.262 . S
O19 Zn14 2.049 . S
O19 C27 1.260 . S
O20 Zn15 1.996 . S
O20 C27 1.257 . S
C21 O16 1.254 . S
C21 O17 1.269 . S
C22 O23 1.249 . S
C22 O24 1.270 . S
O23 Zn15 1.943 . S
O23 C22 1.249 . S
O24 Zn14 2.067 . S
O24 C22 1.270 . S
C25 O18 1.262 . S
C25 O26 1.232 . S
O26 C25 1.232 . S
C27 O19 1.260 . S
C27 O20 1.257 . S
Zn28 O31 2.031 . S
Zn28 O33 2.049 . S
Zn28 O38 2.067 . S
Zn29 O30 1.962 . S
Zn29 O32 1.986 . S
Zn29 O34 1.996 . S
Zn29 O37 1.943 . S
O30 Zn29 1.962 . S
O30 C35 1.254 . S
O31 Zn28 2.031 . S
O31 C35 1.269 . S
O32 Zn29 1.986 . S
O32 C39 1.262 . S
O33 Zn28 2.049 . S
O33 C41 1.260 . S
O34 Zn29 1.996 . S
O34 C41 1.257 . S
C35 O30 1.254 . S
C35 O31 1.269 . S
C36 O37 1.249 . S
C36 O38 1.270 . S
O37 Zn29 1.943 . S
O37 C36 1.249 . S
O38 Zn28 2.067 . S
O38 C36 1.270 . S
C39 O32 1.262 . S
C39 O40 1.232 . S
O40 C39 1.232 . S
C41 O33 1.260 . S
C41 O34 1.257 . S
Zn42 O45 2.031 . S
Zn42 O47 2.049 . S
Zn42 O52 2.067 . S
Zn43 O44 1.962 . S
Zn43 O46 1.986 . S
Zn43 O48 1.996 . S
Zn43 O51 1.943 . S
O44 Zn43 1.962 . S
O44 C49 1.254 . S
O45 Zn42 2.031 . S
O45 C49 1.269 . S
O46 Zn43 1.986 . S
O46 C53 1.262 . S
O47 Zn42 2.049 . S
O47 C55 1.260 . S
O48 Zn43 1.996 . S
O48 C55 1.257 . S
C49 O44 1.254 . S
C49 O45 1.269 . S
C50 O51 1.249 . S
C50 O52 1.270 . S
O51 Zn43 1.943 . S
O51 C50 1.249 . S
O52 Zn42 2.067 . S
O52 C50 1.270 . S
C53 O46 1.262 . S
C53 O54 1.232 . S
O54 C53 1.232 . S
C55 O47 1.260 . S
C55 O48 1.257 . S
Zn56 O59 2.031 . S
Zn56 O61 2.049 . S
Zn56 O66 2.067 . S
Zn57 O58 1.962 . S
Zn57 O60 1.986 . S
Zn57 O62 1.996 . S
Zn57 O65 1.943 . S
O58 Zn57 1.962 . S
O58 C63 1.254 . S
O59 Zn56 2.031 . S
O59 C63 1.269 . S
O60 Zn57 1.986 . S
O60 C67 1.262 . S
O61 Zn56 2.049 . S
O61 C69 1.260 . S
O62 Zn57 1.996 . S
O62 C69 1.257 . S
C63 O58 1.254 . S
C63 O59 1.269 . S
C64 O65 1.249 . S
C64 O66 1.270 . S
O65 Zn57 1.943 . S
O65 C64 1.249 . S
O66 Zn56 2.067 . S
O66 C64 1.270 . S
C67 O60 1.262 . S
C67 O68 1.232 . S
O68 C67 1.232 . S
C69 O61 1.260 . S
C69 O62 1.257 . S
Zn70 O73 2.031 . S
Zn70 O75 2.049 . S
Zn70 O80 2.067 . S
Zn71 O72 1.962 . S
Zn71 O74 1.986 . S
Zn71 O76 1.996 . S
Zn71 O79 1.943 . S
O72 Zn71 1.962 . S
O72 C77 1.254 . S
O73 Zn70 2.031 . S
O73 C77 1.269 . S
O74 Zn71 1.986 . S
O74 C81 1.262 . S
O75 Zn70 2.049 . S
O75 C83 1.260 . S
O76 Zn71 1.996 . S
O76 C83 1.257 . S
C77 O72 1.254 . S
C77 O73 1.269 . S
C78 O79 1.249 . S
C78 O80 1.270 . S
O79 Zn71 1.943 . S
O79 C78 1.249 . S
O80 Zn70 2.067 . S
O80 C78 1.270 . S
C81 O74 1.262 . S
C81 O82 1.232 . S
O82 C81 1.232 . S
C83 O75 1.260 . S
C83 O76 1.257 . S
Zn84 O87 2.031 . S
Zn84 O89 2.049 . S
Zn84 O94 2.067 . S
Zn85 O86 1.962 . S
Zn85 O88 1.986 . S
Zn85 O90 1.996 . S
Zn85 O93 1.943 . S
O86 Zn85 1.962 . S
O86 C91 1.254 . S
O87 Zn84 2.031 . S
O87 C91 1.269 . S
O88 Zn85 1.986 . S
O88 C95 1.262 . S
O89 Zn84 2.049 . S
O89 C97 1.260 . S
O90 Zn85 1.996 . S
O90 C97 1.257 . S
C91 O86 1.254 . S
C91 O87 1.269 . S
C92 O93 1.249 . S
C92 O94 1.270 . S
O93 Zn85 1.943 . S
O93 C92 1.249 . S
O94 Zn84 2.067 . S
O94 C92 1.270 . S
C95 O88 1.262 . S
C95 O96 1.232 . S
O96 C95 1.232 . S
C97 O89 1.260 . S
C97 O90 1.257 . S
Zn98 O101 2.031 . S
Zn98 O103 2.049 . S
Zn98 O108 2.067 . S
Zn99 O100 1.962 . S
Zn99 O102 1.986 . S
Zn99 O104 1.996 . S
Zn99 O107 1.943 . S
O100 Zn99 1.962 . S
O100 C105 1.254 . S
O101 Zn98 2.031 . S
O101 C105 1.269 . S
O102 Zn99 1.986 . S
O102 C109 1.262 . S
O103 Zn98 2.049 . S
O103 C111 1.260 . S
O104 Zn99 1.996 . S
O104 C111 1.257 . S
C105 O100 1.254 . S
C105 O101 1.269 . S
C106 O107 1.249 . S
C106 O108 1.270 . S
O107 Zn99 1.943 . S
O107 C106 1.249 . S
O108 Zn98 2.067 . S
O108 C106 1.270 . S
C109 O102 1.262 . S
C109 O110 1.232 . S
O110 C109 1.232 . S
C111 O103 1.260 . S
C111 O104 1.257 . S
Zn112 O115 2.031 . S
Zn112 O117 2.049 . S
Zn112 O122 2.067 . S
Zn113 O114 1.962 . S
Zn113 O116 1.986 . S
Zn113 O118 1.996 . S
Zn113 O121 1.943 . S
O114 Zn113 1.962 . S
O114 C119 1.254 . S
O115 Zn112 2.031 . S
O115 C119 1.269 . S
O116 Zn113 1.986 . S
O116 C123 1.262 . S
O117 Zn112 2.049 . S
O117 C125 1.260 . S
O118 Zn113 1.996 . S
O118 C125 1.257 . S
C119 O114 1.254 . S
C119 O115 1.269 . S
C120 O121 1.249 . S
C120 O122 1.270 . S
O121 Zn113 1.943 . S
O121 C120 1.249 . S
O122 Zn112 2.067 . S
O122 C120 1.270 . S
C123 O116 1.262 . S
C123 O124 1.232 . S
O124 C123 1.232 . S
C125 O117 1.260 . S
C125 O118 1.257 . S
Zn126 O129 2.031 . S
Zn126 O131 2.049 . S
Zn126 O136 2.067 . S
Zn127 O128 1.962 . S
Zn127 O130 1.986 . S
Zn127 O132 1.996 . S
Zn127 O135 1.943 . S
O128 Zn127 1.962 . S
O128 C133 1.254 . S
O129 Zn126 2.031 . S
O129 C133 1.269 . S
O130 Zn127 1.986 . S
O130 C137 1.262 . S
O131 Zn126 2.049 . S
O131 C139 1.260 . S
O132 Zn127 1.996 . S
O132 C139 1.257 . S
C133 O128 1.254 . S
C133 O129 1.269 . S
C134 O135 1.249 . S
C134 O136 1.270 . S
O135 Zn127 1.943 . S
O135 C134 1.249 . S
O136 Zn126 2.067 . S
O136 C134 1.270 . S
C137 O130 1.262 . S
C137 O138 1.232 . S
O138 C137 1.232 . S
C139 O131 1.260 . S
C139 O132 1.257 . S
Zn140 O143 2.031 . S
Zn140 O145 2.049 . S
Zn140 O150 2.067 . S
Zn141 O142 1.962 . S
Zn141 O144 1.986 . S
Zn141 O146 1.996 . S
Zn141 O149 1.943 . S
O142 Zn141 1.962 . S
O142 C147 1.254 . S
O143 Zn140 2.031 . S
O143 C147 1.269 . S
O144 Zn141 1.986 . S
O144 C151 1.262 . S
O145 Zn140 2.049 . S
O145 C153 1.260 . S
O146 Zn141 1.996 . S
O146 C153 1.257 . S
C147 O142 1.254 . S
C147 O143 1.269 . S
C148 O149 1.249 . S
C148 O150 1.270 . S
O149 Zn141 1.943 . S
O149 C148 1.249 . S
O150 Zn140 2.067 . S
O150 C148 1.270 . S
C151 O144 1.262 . S
C151 O152 1.232 . S
O152 C151 1.232 . S
C153 O145 1.260 . S
C153 O146 1.257 . S
Zn154 O157 2.031 . S
Zn154 O159 2.049 . S
Zn154 O164 2.067 . S
Zn155 O156 1.962 . S
Zn155 O158 1.986 . S
Zn155 O160 1.996 . S
Zn155 O163 1.943 . S
O156 Zn155 1.962 . S
O156 C161 1.254 . S
O157 Zn154 2.031 . S
O157 C161 1.269 . S
O158 Zn155 1.986 . S
O158 C165 1.262 . S
O159 Zn154 2.049 . S
O159 C167 1.260 . S
O160 Zn155 1.996 . S
O160 C167 1.257 . S
C161 O156 1.254 . S
C161 O157 1.269 . S
C162 O163 1.249 . S
C162 O164 1.270 . S
O163 Zn155 1.943 . S
O163 C162 1.249 . S
O164 Zn154 2.067 . S
O164 C162 1.270 . S
C165 O158 1.262 . S
C165 O166 1.232 . S
O166 C165 1.232 . S
C167 O159 1.260 . S
C167 O160 1.257 . S
Zn168 O171 2.031 . S
Zn168 O173 2.049 . S
Zn168 O178 2.067 . S
Zn169 O170 1.962 . S
Zn169 O172 1.986 . S
Zn169 O174 1.996 . S
Zn169 O177 1.943 . S
O170 Zn169 1.962 . S
O170 C175 1.254 . S
O171 Zn168 2.031 . S
O171 C175 1.269 . S
O172 Zn169 1.986 . S
O172 C179 1.262 . S
O173 Zn168 2.049 . S
O173 C181 1.260 . S
O174 Zn169 1.996 . S
O174 C181 1.257 . S
C175 O170 1.254 . S
C175 O171 1.269 . S
C176 O177 1.249 . S
C176 O178 1.270 . S
O177 Zn169 1.943 . S
O177 C176 1.249 . S
O178 Zn168 2.067 . S
O178 C176 1.270 . S
C179 O172 1.262 . S
C179 O180 1.232 . S
O180 C179 1.232 . S
C181 O173 1.260 . S
C181 O174 1.257 . S
Zn182 O185 2.031 . S
Zn182 O187 2.049 . S
Zn182 O192 2.067 . S
Zn183 O184 1.962 . S
Zn183 O186 1.986 . S
Zn183 O188 1.996 . S
Zn183 O191 1.943 . S
O184 Zn183 1.962 . S
O184 C189 1.254 . S
O185 Zn182 2.031 . S
O185 C189 1.269 . S
O186 Zn183 1.986 . S
O186 C193 1.262 . S
O187 Zn182 2.049 . S
O187 C195 1.260 . S
O188 Zn183 1.996 . S
O188 C195 1.257 . S
C189 O184 1.254 . S
C189 O185 1.269 . S
C190 O191 1.249 . S
C190 O192 1.270 . S
O191 Zn183 1.943 . S
O191 C190 1.249 . S
O192 Zn182 2.067 . S
O192 C190 1.270 . S
C193 O186 1.262 . S
C193 O194 1.232 . S
O194 C193 1.232 . S
C195 O187 1.260 . S
C195 O188 1.257 . S
Zn196 O199 2.031 . S
Zn196 O201 2.049 . S
Zn196 O206 2.067 . S
Zn197 O198 1.962 . S
Zn197 O200 1.986 . S
Zn197 O202 1.996 . S
Zn197 O205 1.943 . S
O198 Zn197 1.962 . S
O198 C203 1.254 . S
O199 Zn196 2.031 . S
O199 C203 1.269 . S
O200 Zn197 1.986 . S
O200 C207 1.262 . S
O201 Zn196 2.049 . S
O201 C209 1.260 . S
O202 Zn197 1.996 . S
O202 C209 1.257 . S
C203 O198 1.254 . S
C203 O199 1.269 . S
C204 O205 1.249 . S
C204 O206 1.270 . S
O205 Zn197 1.943 . S
O205 C204 1.249 . S
O206 Zn196 2.067 . S
O206 C204 1.270 . S
C207 O200 1.262 . S
C207 O208 1.232 . S
O208 C207 1.232 . S
C209 O201 1.260 . S
C209 O202 1.257 . S
Zn210 O213 2.031 . S
Zn210 O215 2.049 . S
Zn210 O220 2.067 . S
Zn211 O212 1.962 . S
Zn211 O214 1.986 . S
Zn211 O216 1.996 . S
Zn211 O219 1.943 . S
O212 Zn211 1.962 . S
O212 C217 1.254 . S
O213 Zn210 2.031 . S
O213 C217 1.269 . S
O214 Zn211 1.986 . S
O214 C221 1.262 . S
O215 Zn210 2.049 . S
O215 C223 1.260 . S
O216 Zn211 1.996 . S
O216 C223 1.257 . S
C217 O212 1.254 . S
C217 O213 1.269 . S
C218 O219 1.249 . S
C218 O220 1.270 . S
O219 Zn211 1.943 . S
O219 C218 1.249 . S
O220 Zn210 2.067 . S
O220 C218 1.270 . S
C221 O214 1.262 . S
C221 O222 1.232 . S
O222 C221 1.232 . S
C223 O215 1.260 . S
C223 O216 1.257 . S
H224 C242 0.951 . S
H225 C244 0.951 . S
H226 C246 0.950 . S
H227 C247 0.950 . S
H228 C249 0.950 . S
H229 C252 0.950 . S
H230 C253 0.950 . S
H231 C255 0.950 . S
H232 C256 0.950 . S
H233 C257 0.951 . S
H234 C259 0.951 . S
H235 C261 0.950 . S
H236 C262 0.950 . S
H237 C264 0.950 . S
H238 C267 0.950 . S
H239 C268 0.950 . S
H240 C270 0.950 . S
H241 C271 0.950 . S
C242 H224 0.951 . S
C242 C243 1.366 . S
C242 C244 1.388 . S
C243 C242 1.366 . S
C243 C247 1.385 . S
C244 H225 0.951 . S
C244 C242 1.388 . S
C244 C245 1.366 . S
C245 C244 1.366 . S
C245 C246 1.414 . S
C245 C248 1.499 . S
C246 H226 0.950 . S
C246 C245 1.414 . S
C246 C247 1.374 . S
C247 H227 0.950 . S
C247 C243 1.385 . S
C247 C246 1.374 . S
C248 C245 1.499 . S
C248 C249 1.373 . S
C248 C250 1.389 . S
C249 H228 0.950 . S
C249 C248 1.373 . S
C249 C265 1.377 . S
C250 C248 1.389 . S
C250 C251 1.524 . S
C250 C264 1.377 . S
C251 C250 1.524 . S
C251 C252 1.397 . S
C251 C256 1.363 . S
C252 H229 0.950 . S
C252 C251 1.397 . S
C252 C253 1.334 . S
C253 H230 0.950 . S
C253 C252 1.334 . S
C253 C254 1.287 . S
C254 C253 1.287 . S
C254 C255 1.524 . S
C254 H273 0.913 . S
C255 H231 0.950 . S
C255 C254 1.524 . S
C255 C256 1.415 . S
C256 H232 0.950 . S
C256 C251 1.363 . S
C256 C255 1.415 . S
C257 H233 0.951 . S
C257 C258 1.366 . S
C257 C259 1.388 . S
C258 C257 1.366 . S
C258 C262 1.385 . S
C259 H234 0.951 . S
C259 C257 1.388 . S
C259 C260 1.366 . S
C260 C259 1.366 . S
C260 C261 1.414 . S
C260 C263 1.499 . S
C261 H235 0.950 . S
C261 C260 1.414 . S
C261 C262 1.374 . S
C262 H236 0.950 . S
C262 C258 1.385 . S
C262 C261 1.374 . S
C263 C260 1.499 . S
C263 C264 1.373 . S
C263 C265 1.389 . S
C264 H237 0.950 . S
C264 C250 1.377 . S
C264 C263 1.373 . S
C265 C249 1.377 . S
C265 C263 1.389 . S
C265 C266 1.524 . S
C266 C265 1.524 . S
C266 C267 1.397 . S
C266 C271 1.363 . S
C267 H238 0.950 . S
C267 C266 1.397 . S
C267 C268 1.334 . S
C268 H239 0.950 . S
C268 C267 1.334 . S
C268 C269 1.287 . S
C269 C268 1.287 . S
C269 C270 1.524 . S
C269 H272 0.999 . S
C270 H240 0.950 . S
C270 C269 1.524 . S
C270 C271 1.415 . S
C271 H241 0.950 . S
C271 C266 1.363 . S
C271 C270 1.415 . S
H272 C269 0.999 . S
H273 C254 0.913 . S
H274 C292 0.951 . S
H275 C294 0.951 . S
H276 C296 0.950 . S
H277 C297 0.950 . S
H278 C299 0.950 . S
H279 C302 0.950 . S
H280 C303 0.950 . S
H281 C305 0.950 . S
H282 C306 0.950 . S
H283 C307 0.951 . S
H284 C309 0.951 . S
H285 C311 0.950 . S
H286 C312 0.950 . S
H287 C314 0.950 . S
H288 C317 0.950 . S
H289 C318 0.950 . S
H290 C320 0.950 . S
H291 C321 0.950 . S
C292 H274 0.951 . S
C292 C293 1.366 . S
C292 C294 1.388 . S
C293 C292 1.366 . S
C293 C297 1.385 . S
C294 H275 0.951 . S
C294 C292 1.388 . S
C294 C295 1.366 . S
C295 C294 1.366 . S
C295 C296 1.414 . S
C295 C298 1.499 . S
C296 H276 0.950 . S
C296 C295 1.414 . S
C296 C297 1.374 . S
C297 H277 0.950 . S
C297 C293 1.385 . S
C297 C296 1.374 . S
C298 C295 1.499 . S
C298 C299 1.373 . S
C298 C300 1.389 . S
C299 H278 0.950 . S
C299 C298 1.373 . S
C299 C315 1.377 . S
C300 C298 1.389 . S
C300 C301 1.524 . S
C300 C314 1.377 . S
C301 C300 1.524 . S
C301 C302 1.397 . S
C301 C306 1.363 . S
C302 H279 0.950 . S
C302 C301 1.397 . S
C302 C303 1.334 . S
C303 H280 0.950 . S
C303 C302 1.334 . S
C303 C304 1.287 . S
C304 C303 1.287 . S
C304 C305 1.524 . S
C304 H323 0.913 . S
C305 H281 0.950 . S
C305 C304 1.524 . S
C305 C306 1.415 . S
C306 H282 0.950 . S
C306 C301 1.363 . S
C306 C305 1.415 . S
C307 H283 0.951 . S
C307 C308 1.366 . S
C307 C309 1.388 . S
C308 C307 1.366 . S
C308 C312 1.385 . S
C309 H284 0.951 . S
C309 C307 1.388 . S
C309 C310 1.366 . S
C310 C309 1.366 . S
C310 C311 1.414 . S
C310 C313 1.499 . S
C311 H285 0.950 . S
C311 C310 1.414 . S
C311 C312 1.374 . S
C312 H286 0.950 . S
C312 C308 1.385 . S
C312 C311 1.374 . S
C313 C310 1.499 . S
C313 C314 1.373 . S
C313 C315 1.389 . S
C314 H287 0.950 . S
C314 C300 1.377 . S
C314 C313 1.373 . S
C315 C299 1.377 . S
C315 C313 1.389 . S
C315 C316 1.524 . S
C316 C315 1.524 . S
C316 C317 1.397 . S
C316 C321 1.363 . S
C317 H288 0.950 . S
C317 C316 1.397 . S
C317 C318 1.334 . S
C318 H289 0.950 . S
C318 C317 1.334 . S
C318 C319 1.287 . S
C319 C318 1.287 . S
C319 C320 1.524 . S
C319 H322 0.999 . S
C320 H290 0.950 . S
C320 C319 1.524 . S
C320 C321 1.415 . S
C321 H291 0.950 . S
C321 C316 1.363 . S
C321 C320 1.415 . S
H322 C319 0.999 . S
H323 C304 0.913 . S
H324 C342 0.951 . S
H325 C344 0.951 . S
H326 C346 0.950 . S
H327 C347 0.950 . S
H328 C349 0.950 . S
H329 C352 0.950 . S
H330 C353 0.950 . S
H331 C355 0.950 . S
H332 C356 0.950 . S
H333 C357 0.951 . S
H334 C359 0.951 . S
H335 C361 0.950 . S
H336 C362 0.950 . S
H337 C364 0.950 . S
H338 C367 0.950 . S
H339 C368 0.950 . S
H340 C370 0.950 . S
H341 C371 0.950 . S
C342 H324 0.951 . S
C342 C343 1.366 . S
C342 C344 1.388 . S
C343 C342 1.366 . S
C343 C347 1.385 . S
C344 H325 0.951 . S
C344 C342 1.388 . S
C344 C345 1.366 . S
C345 C344 1.366 . S
C345 C346 1.414 . S
C345 C348 1.499 . S
C346 H326 0.950 . S
C346 C345 1.414 . S
C346 C347 1.374 . S
C347 H327 0.950 . S
C347 C343 1.385 . S
C347 C346 1.374 . S
C348 C345 1.499 . S
C348 C349 1.373 . S
C348 C350 1.389 . S
C349 H328 0.950 . S
C349 C348 1.373 . S
C349 C365 1.377 . S
C350 C348 1.389 . S
C350 C351 1.524 . S
C350 C364 1.377 . S
C351 C350 1.524 . S
C351 C352 1.397 . S
C351 C356 1.363 . S
C352 H329 0.950 . S
C352 C351 1.397 . S
C352 C353 1.334 . S
C353 H330 0.950 . S
C353 C352 1.334 . S
C353 C354 1.287 . S
C354 C353 1.287 . S
C354 C355 1.524 . S
C354 H373 0.913 . S
C355 H331 0.950 . S
C355 C354 1.524 . S
C355 C356 1.415 . S
C356 H332 0.950 . S
C356 C351 1.363 . S
C356 C355 1.415 . S
C357 H333 0.951 . S
C357 C358 1.366 . S
C357 C359 1.388 . S
C358 C357 1.366 . S
C358 C362 1.385 . S
C359 H334 0.951 . S
C359 C357 1.388 . S
C359 C360 1.366 . S
C360 C359 1.366 . S
C360 C361 1.414 . S
C360 C363 1.499 . S
C361 H335 0.950 . S
C361 C360 1.414 . S
C361 C362 1.374 . S
C362 H336 0.950 . S
C362 C358 1.385 . S
C362 C361 1.374 . S
C363 C360 1.499 . S
C363 C364 1.373 . S
C363 C365 1.389 . S
C364 H337 0.950 . S
C364 C350 1.377 . S
C364 C363 1.373 . S
C365 C349 1.377 . S
C365 C363 1.389 . S
C365 C366 1.524 . S
C366 C365 1.524 . S
C366 C367 1.397 . S
C366 C371 1.363 . S
C367 H338 0.950 . S
C367 C366 1.397 . S
C367 C368 1.334 . S
C368 H339 0.950 . S
C368 C367 1.334 . S
C368 C369 1.287 . S
C369 C368 1.287 . S
C369 C370 1.524 . S
C369 H372 0.999 . S
C370 H340 0.950 . S
C370 C369 1.524 . S
C370 C371 1.415 . S
C371 H341 0.950 . S
C371 C366 1.363 . S
C371 C370 1.415 . S
H372 C369 0.999 . S
H373 C354 0.913 . S
H374 C392 0.951 . S
H375 C394 0.951 . S
H376 C396 0.950 . S
H377 C397 0.950 . S
H378 C399 0.950 . S
H379 C402 0.950 . S
H380 C403 0.950 . S
H381 C405 0.950 . S
H382 C406 0.950 . S
H383 C407 0.951 . S
H384 C409 0.951 . S
H385 C411 0.950 . S
H386 C412 0.950 . S
H387 C414 0.950 . S
H388 C417 0.950 . S
H389 C418 0.950 . S
H390 C420 0.950 . S
H391 C421 0.950 . S
C392 H374 0.951 . S
C392 C393 1.366 . S
C392 C394 1.388 . S
C393 C392 1.366 . S
C393 C397 1.385 . S
C394 H375 0.951 . S
C394 C392 1.388 . S
C394 C395 1.366 . S
C395 C394 1.366 . S
C395 C396 1.414 . S
C395 C398 1.499 . S
C396 H376 0.950 . S
C396 C395 1.414 . S
C396 C397 1.374 . S
C397 H377 0.950 . S
C397 C393 1.385 . S
C397 C396 1.374 . S
C398 C395 1.499 . S
C398 C399 1.373 . S
C398 C400 1.389 . S
C399 H378 0.950 . S
C399 C398 1.373 . S
C399 C415 1.377 . S
C400 C398 1.389 . S
C400 C401 1.524 . S
C400 C414 1.377 . S
C401 C400 1.524 . S
C401 C402 1.397 . S
C401 C406 1.363 . S
C402 H379 0.950 . S
C402 C401 1.397 . S
C402 C403 1.334 . S
C403 H380 0.950 . S
C403 C402 1.334 . S
C403 C404 1.287 . S
C404 C403 1.287 . S
C404 C405 1.524 . S
C404 H423 0.913 . S
C405 H381 0.950 . S
C405 C404 1.524 . S
C405 C406 1.415 . S
C406 H382 0.950 . S
C406 C401 1.363 . S
C406 C405 1.415 . S
C407 H383 0.951 . S
C407 C408 1.366 . S
C407 C409 1.388 . S
C408 C407 1.366 . S
C408 C412 1.385 . S
C409 H384 0.951 . S
C409 C407 1.388 . S
C409 C410 1.366 . S
C410 C409 1.366 . S
C410 C411 1.414 . S
C410 C413 1.499 . S
C411 H385 0.950 . S
C411 C410 1.414 . S
C411 C412 1.374 . S
C412 H386 0.950 . S
C412 C408 1.385 . S
C412 C411 1.374 . S
C413 C410 1.499 . S
C413 C414 1.373 . S
C413 C415 1.389 . S
C414 H387 0.950 . S
C414 C400 1.377 . S
C414 C413 1.373 . S
C415 C399 1.377 . S
C415 C413 1.389 . S
C415 C416 1.524 . S
C416 C415 1.524 . S
C416 C417 1.397 . S
C416 C421 1.363 . S
C417 H388 0.950 . S
C417 C416 1.397 . S
C417 C418 1.334 . S
C418 H389 0.950 . S
C418 C417 1.334 . S
C418 C419 1.287 . S
C419 C418 1.287 . S
C419 C420 1.524 . S
C419 H422 0.999 . S
C420 H390 0.950 . S
C420 C419 1.524 . S
C420 C421 1.415 . S
C421 H391 0.950 . S
C421 C416 1.363 . S
C421 C420 1.415 . S
H422 C419 0.999 . S
H423 C404 0.913 . S
H424 C442 0.951 . S
H425 C444 0.951 . S
H426 C446 0.950 . S
H427 C447 0.950 . S
H428 C449 0.950 . S
H429 C452 0.950 . S
H430 C453 0.950 . S
H431 C455 0.950 . S
H432 C456 0.950 . S
H433 C457 0.951 . S
H434 C459 0.951 . S
H435 C461 0.950 . S
H436 C462 0.950 . S
H437 C464 0.950 . S
H438 C467 0.950 . S
H439 C468 0.950 . S
H440 C470 0.950 . S
H441 C471 0.950 . S
C442 H424 0.951 . S
C442 C443 1.366 . S
C442 C444 1.388 . S
C443 C442 1.366 . S
C443 C447 1.385 . S
C444 H425 0.951 . S
C444 C442 1.388 . S
C444 C445 1.366 . S
C445 C444 1.366 . S
C445 C446 1.414 . S
C445 C448 1.499 . S
C446 H426 0.950 . S
C446 C445 1.414 . S
C446 C447 1.374 . S
C447 H427 0.950 . S
C447 C443 1.385 . S
C447 C446 1.374 . S
C448 C445 1.499 . S
C448 C449 1.373 . S
C448 C450 1.389 . S
C449 H428 0.950 . S
C449 C448 1.373 . S
C449 C465 1.377 . S
C450 C448 1.389 . S
C450 C451 1.524 . S
C450 C464 1.377 . S
C451 C450 1.524 . S
C451 C452 1.397 . S
C451 C456 1.363 . S
C452 H429 0.950 . S
C452 C451 1.397 . S
C452 C453 1.334 . S
C453 H430 0.950 . S
C453 C452 1.334 . S
C453 C454 1.287 . S
C454 C453 1.287 . S
C454 C455 1.524 . S
C454 H473 0.913 . S
C455 H431 0.950 . S
C455 C454 1.524 . S
C455 C456 1.415 . S
C456 H432 0.950 . S
C456 C451 1.363 . S
C456 C455 1.415 . S
C457 H433 0.951 . S
C457 C458 1.366 . S
C457 C459 1.388 . S
C458 C457 1.366 . S
C458 C462 1.385 . S
C459 H434 0.951 . S
C459 C457 1.388 . S
C459 C460 1.366 . S
C460 C459 1.366 . S
C460 C461 1.414 . S
C460 C463 1.499 . S
C461 H435 0.950 . S
C461 C460 1.414 . S
C461 C462 1.374 . S
C462 H436 0.950 . S
C462 C458 1.385 . S
C462 C461 1.374 . S
C463 C460 1.499 . S
C463 C464 1.373 . S
C463 C465 1.389 . S
C464 H437 0.950 . S
C464 C450 1.377 . S
C464 C463 1.373 . S
C465 C449 1.377 . S
C465 C463 1.389 . S
C465 C466 1.524 . S
C466 C465 1.524 . S
C466 C467 1.397 . S
C466 C471 1.363 . S
C467 H438 0.950 . S
C467 C466 1.397 . S
C467 C468 1.334 . S
C468 H439 0.950 . S
C468 C467 1.334 . S
C468 C469 1.287 . S
C469 C468 1.287 . S
C469 C470 1.524 . S
C469 H472 0.999 . S
C470 H440 0.950 . S
C470 C469 1.524 . S
C470 C471 1.415 . S
C471 H441 0.950 . S
C471 C466 1.363 . S
C471 C470 1.415 . S
H472 C469 0.999 . S
H473 C454 0.913 . S
H474 C492 0.951 . S
H475 C494 0.951 . S
H476 C496 0.950 . S
H477 C497 0.950 . S
H478 C499 0.950 . S
H479 C502 0.950 . S
H480 C503 0.950 . S
H481 C505 0.950 . S
H482 C506 0.950 . S
H483 C507 0.951 . S
H484 C509 0.951 . S
H485 C511 0.950 . S
H486 C512 0.950 . S
H487 C514 0.950 . S
H488 C517 0.950 . S
H489 C518 0.950 . S
H490 C520 0.950 . S
H491 C521 0.950 . S
C492 H474 0.951 . S
C492 C493 1.366 . S
C492 C494 1.388 . S
C493 C492 1.366 . S
C493 C497 1.385 . S
C494 H475 0.951 . S
C494 C492 1.388 . S
C494 C495 1.366 . S
C495 C494 1.366 . S
C495 C496 1.414 . S
C495 C498 1.499 . S
C496 H476 0.950 . S
C496 C495 1.414 . S
C496 C497 1.374 . S
C497 H477 0.950 . S
C497 C493 1.385 . S
C497 C496 1.374 . S
C498 C495 1.499 . S
C498 C499 1.373 . S
C498 C500 1.389 . S
C499 H478 0.950 . S
C499 C498 1.373 . S
C499 C515 1.377 . S
C500 C498 1.389 . S
C500 C501 1.524 . S
C500 C514 1.377 . S
C501 C500 1.524 . S
C501 C502 1.397 . S
C501 C506 1.363 . S
C502 H479 0.950 . S
C502 C501 1.397 . S
C502 C503 1.334 . S
C503 H480 0.950 . S
C503 C502 1.334 . S
C503 C504 1.287 . S
C504 C503 1.287 . S
C504 C505 1.524 . S
C504 H523 0.913 . S
C505 H481 0.950 . S
C505 C504 1.524 . S
C505 C506 1.415 . S
C506 H482 0.950 . S
C506 C501 1.363 . S
C506 C505 1.415 . S
C507 H483 0.951 . S
C507 C508 1.366 . S
C507 C509 1.388 . S
C508 C507 1.366 . S
C508 C512 1.385 . S
C509 H484 0.951 . S
C509 C507 1.388 . S
C509 C510 1.366 . S
C510 C509 1.366 . S
C510 C511 1.414 . S
C510 C513 1.499 . S
C511 H485 0.950 . S
C511 C510 1.414 . S
C511 C512 1.374 . S
C512 H486 0.950 . S
C512 C508 1.385 . S
C512 C511 1.374 . S
C513 C510 1.499 . S
C513 C514 1.373 . S
C513 C515 1.389 . S
C514 H487 0.950 . S
C514 C500 1.377 . S
C514 C513 1.373 . S
C515 C499 1.377 . S
C515 C513 1.389 . S
C515 C516 1.524 . S
C516 C515 1.524 . S
C516 C517 1.397 . S
C516 C521 1.363 . S
C517 H488 0.950 . S
C517 C516 1.397 . S
C517 C518 1.334 . S
C518 H489 0.950 . S
C518 C517 1.334 . S
C518 C519 1.287 . S
C519 C518 1.287 . S
C519 C520 1.524 . S
C519 H522 0.999 . S
C520 H490 0.950 . S
C520 C519 1.524 . S
C520 C521 1.415 . S
C521 H491 0.950 . S
C521 C516 1.363 . S
C521 C520 1.415 . S
H522 C519 0.999 . S
H523 C504 0.913 . S
H524 C542 0.951 . S
H525 C544 0.951 . S
H526 C546 0.950 . S
H527 C547 0.950 . S
H528 C549 0.950 . S
H529 C552 0.950 . S
H530 C553 0.950 . S
H531 C555 0.950 . S
H532 C556 0.950 . S
H533 C557 0.951 . S
H534 C559 0.951 . S
H535 C561 0.950 . S
H536 C562 0.950 . S
H537 C564 0.950 . S
H538 C567 0.950 . S
H539 C568 0.950 . S
H540 C570 0.950 . S
H541 C571 0.950 . S
C542 H524 0.951 . S
C542 C543 1.366 . S
C542 C544 1.388 . S
C543 C542 1.366 . S
C543 C547 1.385 . S
C544 H525 0.951 . S
C544 C542 1.388 . S
C544 C545 1.366 . S
C545 C544 1.366 . S
C545 C546 1.414 . S
C545 C548 1.499 . S
C546 H526 0.950 . S
C546 C545 1.414 . S
C546 C547 1.374 . S
C547 H527 0.950 . S
C547 C543 1.385 . S
C547 C546 1.374 . S
C548 C545 1.499 . S
C548 C549 1.373 . S
C548 C550 1.389 . S
C549 H528 0.950 . S
C549 C548 1.373 . S
C549 C565 1.377 . S
C550 C548 1.389 . S
C550 C551 1.524 . S
C550 C564 1.377 . S
C551 C550 1.524 . S
C551 C552 1.397 . S
C551 C556 1.363 . S
C552 H529 0.950 . S
C552 C551 1.397 . S
C552 C553 1.334 . S
C553 H530 0.950 . S
C553 C552 1.334 . S
C553 C554 1.287 . S
C554 C553 1.287 . S
C554 C555 1.524 . S
C554 H573 0.913 . S
C555 H531 0.950 . S
C555 C554 1.524 . S
C555 C556 1.415 . S
C556 H532 0.950 . S
C556 C551 1.363 . S
C556 C555 1.415 . S
C557 H533 0.951 . S
C557 C558 1.366 . S
C557 C559 1.388 . S
C558 C557 1.366 . S
C558 C562 1.385 . S
C559 H534 0.951 . S
C559 C557 1.388 . S
C559 C560 1.366 . S
C560 C559 1.366 . S
C560 C561 1.414 . S
C560 C563 1.499 . S
C561 H535 0.950 . S
C561 C560 1.414 . S
C561 C562 1.374 . S
C562 H536 0.950 . S
C562 C558 1.385 . S
C562 C561 1.374 . S
C563 C560 1.499 . S
C563 C564 1.373 . S
C563 C565 1.389 . S
C564 H537 0.950 . S
C564 C550 1.377 . S
C564 C563 1.373 . S
C565 C549 1.377 . S
C565 C563 1.389 . S
C565 C566 1.524 . S
C566 C565 1.524 . S
C566 C567 1.397 . S
C566 C571 1.363 . S
C567 H538 0.950 . S
C567 C566 1.397 . S
C567 C568 1.334 . S
C568 H539 0.950 . S
C568 C567 1.334 . S
C568 C569 1.287 . S
C569 C568 1.287 . S
C569 C570 1.524 . S
C569 H572 0.999 . S
C570 H540 0.950 . S
C570 C569 1.524 . S
C570 C571 1.415 . S
C571 H541 0.950 . S
C571 C566 1.363 . S
C571 C570 1.415 . S
H572 C569 0.999 . S
H573 C554 0.913 . S
H574 C592 0.951 . S
H575 C594 0.951 . S
H576 C596 0.950 . S
H577 C597 0.950 . S
H578 C599 0.950 . S
H579 C602 0.950 . S
H580 C603 0.950 . S
H581 C605 0.950 . S
H582 C606 0.950 . S
H583 C607 0.951 . S
H584 C609 0.951 . S
H585 C611 0.950 . S
H586 C612 0.950 . S
H587 C614 0.950 . S
H588 C617 0.950 . S
H589 C618 0.950 . S
H590 C620 0.950 . S
H591 C621 0.950 . S
C592 H574 0.951 . S
C592 C593 1.366 . S
C592 C594 1.388 . S
C593 C592 1.366 . S
C593 C597 1.385 . S
C594 H575 0.951 . S
C594 C592 1.388 . S
C594 C595 1.366 . S
C595 C594 1.366 . S
C595 C596 1.414 . S
C595 C598 1.499 . S
C596 H576 0.950 . S
C596 C595 1.414 . S
C596 C597 1.374 . S
C597 H577 0.950 . S
C597 C593 1.385 . S
C597 C596 1.374 . S
C598 C595 1.499 . S
C598 C599 1.373 . S
C598 C600 1.389 . S
C599 H578 0.950 . S
C599 C598 1.373 . S
C599 C615 1.377 . S
C600 C598 1.389 . S
C600 C601 1.524 . S
C600 C614 1.377 . S
C601 C600 1.524 . S
C601 C602 1.397 . S
C601 C606 1.363 . S
C602 H579 0.950 . S
C602 C601 1.397 . S
C602 C603 1.334 . S
C603 H580 0.950 . S
C603 C602 1.334 . S
C603 C604 1.287 . S
C604 C603 1.287 . S
C604 C605 1.524 . S
C604 H623 0.913 . S
C605 H581 0.950 . S
C605 C604 1.524 . S
C605 C606 1.415 . S
C606 H582 0.950 . S
C606 C601 1.363 . S
C606 C605 1.415 . S
C607 H583 0.951 . S
C607 C608 1.366 . S
C607 C609 1.388 . S
C608 C607 1.366 . S
C608 C612 1.385 . S
C609 H584 0.951 . S
C609 C607 1.388 . S
C609 C610 1.366 . S
C610 C609 1.366 . S
C610 C611 1.414 . S
C610 C613 1.499 . S
C611 H585 0.950 . S
C611 C610 1.414 . S
C611 C612 1.374 . S
C612 H586 0.950 . S
C612 C608 1.385 . S
C612 C611 1.374 . S
C613 C610 1.499 . S
C613 C614 1.373 . S
C613 C615 1.389 . S
C614 H587 0.950 . S
C614 C600 1.377 . S
C614 C613 1.373 . S
C615 C599 1.377 . S
C615 C613 1.389 . S
C615 C616 1.524 . S
C616 C615 1.524 . S
C616 C617 1.397 . S
C616 C621 1.363 . S
C617 H588 0.950 . S
C617 C616 1.397 . S
C617 C618 1.334 . S
C618 H589 0.950 . S
C618 C617 1.334 . S
C618 C619 1.287 . S
C619 C618 1.287 . S
C619 C620 1.524 . S
C619 H622 0.999 . S
C620 H590 0.950 . S
C620 C619 1.524 . S
C620 C621 1.415 . S
C621 H591 0.950 . S
C621 C616 1.363 . S
C621 C620 1.415 . S
H622 C619 0.999 . S
H623 C604 0.913 . S
H624 C642 0.951 . S
H625 C644 0.951 . S
H626 C646 0.950 . S
H627 C647 0.950 . S
H628 C649 0.950 . S
H629 C652 0.950 . S
H630 C653 0.950 . S
H631 C655 0.950 . S
H632 C656 0.950 1_545 S
H633 C657 0.951 . S
H634 C659 0.951 . S
H635 C661 0.950 . S
H636 C662 0.950 . S
H637 C664 0.950 . S
H638 C667 0.950 . S
H639 C668 0.950 . S
H640 C670 0.950 . S
H641 C671 0.950 1_565 S
C642 H624 0.951 . S
C642 C643 1.366 . S
C642 C644 1.388 . S
C643 C642 1.366 . S
C643 C647 1.385 . S
C644 H625 0.951 . S
C644 C642 1.388 . S
C644 C645 1.366 . S
C645 C644 1.366 . S
C645 C646 1.414 . S
C645 C648 1.499 . S
C646 H626 0.950 . S
C646 C645 1.414 . S
C646 C647 1.374 . S
C647 H627 0.950 . S
C647 C643 1.385 . S
C647 C646 1.374 . S
C648 C645 1.499 . S
C648 C649 1.373 . S
C648 C650 1.389 . S
C649 H628 0.950 . S
C649 C648 1.373 . S
C649 C665 1.377 1_565 S
C650 C648 1.389 . S
C650 C651 1.524 . S
C650 C664 1.377 1_565 S
C651 C650 1.524 . S
C651 C652 1.397 . S
C651 C656 1.363 . S
C652 H629 0.950 . S
C652 C651 1.397 . S
C652 C653 1.334 . S
C653 H630 0.950 . S
C653 C652 1.334 . S
C653 C654 1.287 . S
C654 C653 1.287 . S
C654 C655 1.524 . S
C654 H673 0.913 . S
C655 H631 0.950 . S
C655 C654 1.524 . S
C655 C656 1.415 . S
C656 H632 0.950 1_565 S
C656 C651 1.363 . S
C656 C655 1.415 . S
C657 H633 0.951 . S
C657 C658 1.366 . S
C657 C659 1.388 . S
C658 C657 1.366 . S
C658 C662 1.385 . S
C659 H634 0.951 . S
C659 C657 1.388 . S
C659 C660 1.366 . S
C660 C659 1.366 . S
C660 C661 1.414 . S
C660 C663 1.499 . S
C661 H635 0.950 . S
C661 C660 1.414 . S
C661 C662 1.374 . S
C662 H636 0.950 . S
C662 C658 1.385 . S
C662 C661 1.374 . S
C663 C660 1.499 . S
C663 C664 1.373 . S
C663 C665 1.389 . S
C664 H637 0.950 . S
C664 C650 1.377 1_545 S
C664 C663 1.373 . S
C665 C649 1.377 1_545 S
C665 C663 1.389 . S
C665 C666 1.524 . S
C666 C665 1.524 . S
C666 C667 1.397 . S
C666 C671 1.363 . S
C667 H638 0.950 . S
C667 C666 1.397 . S
C667 C668 1.334 . S
C668 H639 0.950 . S
C668 C667 1.334 . S
C668 C669 1.287 . S
C669 C668 1.287 . S
C669 C670 1.524 . S
C669 H672 0.999 . S
C670 H640 0.950 . S
C670 C669 1.524 . S
C670 C671 1.415 . S
C671 H641 0.950 1_545 S
C671 C666 1.363 . S
C671 C670 1.415 . S
H672 C669 0.999 . S
H673 C654 0.913 . S
H674 C692 0.951 . S
H675 C694 0.951 . S
H676 C696 0.950 . S
H677 C697 0.950 . S
H678 C699 0.950 . S
H679 C702 0.950 . S
H680 C703 0.950 . S
H681 C705 0.950 . S
H682 C706 0.950 . S
H683 C707 0.951 . S
H684 C709 0.951 . S
H685 C711 0.950 . S
H686 C712 0.950 . S
H687 C714 0.950 . S
H688 C717 0.950 . S
H689 C718 0.950 . S
H690 C720 0.950 . S
H691 C721 0.950 . S
C692 H674 0.951 . S
C692 C693 1.366 . S
C692 C694 1.388 . S
C693 C692 1.366 . S
C693 C697 1.385 . S
C694 H675 0.951 . S
C694 C692 1.388 . S
C694 C695 1.366 . S
C695 C694 1.366 . S
C695 C696 1.414 . S
C695 C698 1.499 . S
C696 H676 0.950 . S
C696 C695 1.414 . S
C696 C697 1.374 . S
C697 H677 0.950 . S
C697 C693 1.385 . S
C697 C696 1.374 . S
C698 C695 1.499 . S
C698 C699 1.373 . S
C698 C700 1.389 . S
C699 H678 0.950 . S
C699 C698 1.373 . S
C699 C715 1.377 . S
C700 C698 1.389 . S
C700 C701 1.524 . S
C700 C714 1.377 . S
C701 C700 1.524 . S
C701 C702 1.397 . S
C701 C706 1.363 . S
C702 H679 0.950 . S
C702 C701 1.397 . S
C702 C703 1.334 . S
C703 H680 0.950 . S
C703 C702 1.334 . S
C703 C704 1.287 . S
C704 C703 1.287 . S
C704 C705 1.524 . S
C704 H723 0.913 . S
C705 H681 0.950 . S
C705 C704 1.524 . S
C705 C706 1.415 . S
C706 H682 0.950 . S
C706 C701 1.363 . S
C706 C705 1.415 . S
C707 H683 0.951 . S
C707 C708 1.366 . S
C707 C709 1.388 . S
C708 C707 1.366 . S
C708 C712 1.385 . S
C709 H684 0.951 . S
C709 C707 1.388 . S
C709 C710 1.366 . S
C710 C709 1.366 . S
C710 C711 1.414 . S
C710 C713 1.499 . S
C711 H685 0.950 . S
C711 C710 1.414 . S
C711 C712 1.374 . S
C712 H686 0.950 . S
C712 C708 1.385 . S
C712 C711 1.374 . S
C713 C710 1.499 . S
C713 C714 1.373 . S
C713 C715 1.389 . S
C714 H687 0.950 . S
C714 C700 1.377 . S
C714 C713 1.373 . S
C715 C699 1.377 . S
C715 C713 1.389 . S
C715 C716 1.524 . S
C716 C715 1.524 . S
C716 C717 1.397 . S
C716 C721 1.363 . S
C717 H688 0.950 . S
C717 C716 1.397 . S
C717 C718 1.334 . S
C718 H689 0.950 . S
C718 C717 1.334 . S
C718 C719 1.287 . S
C719 C718 1.287 . S
C719 C720 1.524 . S
C719 H722 0.999 . S
C720 H690 0.950 . S
C720 C719 1.524 . S
C720 C721 1.415 . S
C721 H691 0.950 . S
C721 C716 1.363 . S
C721 C720 1.415 . S
H722 C719 0.999 . S
H723 C704 0.913 . S
H724 C742 0.951 . S
H725 C744 0.951 . S
H726 C746 0.950 . S
H727 C747 0.950 . S
H728 C749 0.950 . S
H729 C752 0.950 . S
H730 C753 0.950 . S
H731 C755 0.950 . S
H732 C756 0.950 . S
H733 C757 0.951 . S
H734 C759 0.951 . S
H735 C761 0.950 . S
H736 C762 0.950 . S
H737 C764 0.950 . S
H738 C767 0.950 . S
H739 C768 0.950 . S
H740 C770 0.950 . S
H741 C771 0.950 . S
C742 H724 0.951 . S
C742 C743 1.366 . S
C742 C744 1.388 . S
C743 C742 1.366 . S
C743 C747 1.385 . S
C744 H725 0.951 . S
C744 C742 1.388 . S
C744 C745 1.366 . S
C745 C744 1.366 . S
C745 C746 1.414 . S
C745 C748 1.499 . S
C746 H726 0.950 . S
C746 C745 1.414 . S
C746 C747 1.374 . S
C747 H727 0.950 . S
C747 C743 1.385 . S
C747 C746 1.374 . S
C748 C745 1.499 . S
C748 C749 1.373 . S
C748 C750 1.389 . S
C749 H728 0.950 . S
C749 C748 1.373 . S
C749 C765 1.377 1_556 S
C750 C748 1.389 . S
C750 C751 1.524 . S
C750 C764 1.377 . S
C751 C750 1.524 . S
C751 C752 1.397 . S
C751 C756 1.363 . S
C752 H729 0.950 . S
C752 C751 1.397 . S
C752 C753 1.334 . S
C753 H730 0.950 . S
C753 C752 1.334 . S
C753 C754 1.287 . S
C754 C753 1.287 . S
C754 C755 1.524 . S
C754 H773 0.913 . S
C755 H731 0.950 . S
C755 C754 1.524 . S
C755 C756 1.415 . S
C756 H732 0.950 . S
C756 C751 1.363 . S
C756 C755 1.415 . S
C757 H733 0.951 . S
C757 C758 1.366 . S
C757 C759 1.388 . S
C758 C757 1.366 . S
C758 C762 1.385 . S
C759 H734 0.951 . S
C759 C757 1.388 . S
C759 C760 1.366 . S
C760 C759 1.366 . S
C760 C761 1.414 . S
C760 C763 1.499 . S
C761 H735 0.950 . S
C761 C760 1.414 . S
C761 C762 1.374 . S
C762 H736 0.950 . S
C762 C758 1.385 . S
C762 C761 1.374 . S
C763 C760 1.499 . S
C763 C764 1.373 1_554 S
C763 C765 1.389 . S
C764 H737 0.950 . S
C764 C750 1.377 . S
C764 C763 1.373 1_556 S
C765 C749 1.377 1_554 S
C765 C763 1.389 . S
C765 C766 1.524 . S
C766 C765 1.524 . S
C766 C767 1.397 . S
C766 C771 1.363 . S
C767 H738 0.950 . S
C767 C766 1.397 . S
C767 C768 1.334 . S
C768 H739 0.950 . S
C768 C767 1.334 . S
C768 C769 1.287 . S
C769 C768 1.287 . S
C769 C770 1.524 . S
C769 H772 0.999 . S
C770 H740 0.950 . S
C770 C769 1.524 . S
C770 C771 1.415 . S
C771 H741 0.950 . S
C771 C766 1.363 . S
C771 C770 1.415 . S
H772 C769 0.999 . S
H773 C754 0.913 . S
H774 C792 0.951 . S
H775 C794 0.951 . S
H776 C796 0.950 . S
H777 C797 0.950 . S
H778 C799 0.950 . S
H779 C802 0.950 . S
H780 C803 0.950 . S
H781 C805 0.950 . S
H782 C806 0.950 . S
H783 C807 0.951 . S
H784 C809 0.951 . S
H785 C811 0.950 . S
H786 C812 0.950 . S
H787 C814 0.950 . S
H788 C817 0.950 . S
H789 C818 0.950 . S
H790 C820 0.950 . S
H791 C821 0.950 . S
C792 H774 0.951 . S
C792 C793 1.366 . S
C792 C794 1.388 . S
C793 C792 1.366 . S
C793 C797 1.385 . S
C794 H775 0.951 . S
C794 C792 1.388 . S
C794 C795 1.366 . S
C795 C794 1.366 . S
C795 C796 1.414 . S
C795 C798 1.499 . S
C796 H776 0.950 . S
C796 C795 1.414 . S
C796 C797 1.374 . S
C797 H777 0.950 . S
C797 C793 1.385 . S
C797 C796 1.374 . S
C798 C795 1.499 . S
C798 C799 1.373 . S
C798 C800 1.389 1_554 S
C799 H778 0.950 . S
C799 C798 1.373 . S
C799 C815 1.377 1_554 S
C800 C798 1.389 1_556 S
C800 C801 1.524 . S
C800 C814 1.377 . S
C801 C800 1.524 . S
C801 C802 1.397 1_556 S
C801 C806 1.363 . S
C802 H779 0.950 . S
C802 C801 1.397 1_554 S
C802 C803 1.334 . S
C803 H780 0.950 . S
C803 C802 1.334 . S
C803 C804 1.287 1_554 S
C804 C803 1.287 1_556 S
C804 C805 1.524 . S
C804 H823 0.913 . S
C805 H781 0.950 . S
C805 C804 1.524 . S
C805 C806 1.415 . S
C806 H782 0.950 . S
C806 C801 1.363 . S
C806 C805 1.415 . S
C807 H783 0.951 . S
C807 C808 1.366 . S
C807 C809 1.388 . S
C808 C807 1.366 . S
C808 C812 1.385 . S
C809 H784 0.951 . S
C809 C807 1.388 . S
C809 C810 1.366 . S
C810 C809 1.366 . S
C810 C811 1.414 . S
C810 C813 1.499 . S
C811 H785 0.950 . S
C811 C810 1.414 . S
C811 C812 1.374 . S
C812 H786 0.950 . S
C812 C808 1.385 . S
C812 C811 1.374 . S
C813 C810 1.499 . S
C813 C814 1.373 . S
C813 C815 1.389 . S
C814 H787 0.950 . S
C814 C800 1.377 . S
C814 C813 1.373 . S
C815 C799 1.377 1_556 S
C815 C813 1.389 . S
C815 C816 1.524 . S
C816 C815 1.524 . S
C816 C817 1.397 . S
C816 C821 1.363 1_556 S
C817 H788 0.950 . S
C817 C816 1.397 . S
C817 C818 1.334 . S
C818 H789 0.950 . S
C818 C817 1.334 . S
C818 C819 1.287 . S
C819 C818 1.287 . S
C819 C820 1.524 1_556 S
C819 H822 0.999 . S
C820 H790 0.950 . S
C820 C819 1.524 1_554 S
C820 C821 1.415 . S
C821 H791 0.950 . S
C821 C816 1.363 1_554 S
C821 C820 1.415 . S
H822 C819 0.999 . S
H823 C804 0.913 . S
H824 C842 0.951 . S
H825 C844 0.951 . S
H826 C846 0.950 . S
H827 C847 0.950 . S
H828 C849 0.950 . S
H829 C852 0.950 . S
H830 C853 0.950 . S
H831 C855 0.950 . S
H832 C856 0.950 . S
H833 C857 0.951 . S
H834 C859 0.951 . S
H835 C861 0.950 . S
H836 C862 0.950 . S
H837 C864 0.950 . S
H838 C867 0.950 . S
H839 C868 0.950 . S
H840 C870 0.950 . S
H841 C871 0.950 . S
C842 H824 0.951 . S
C842 C843 1.366 . S
C842 C844 1.388 . S
C843 C842 1.366 . S
C843 C847 1.385 . S
C844 H825 0.951 . S
C844 C842 1.388 . S
C844 C845 1.366 . S
C845 C844 1.366 . S
C845 C846 1.414 . S
C845 C848 1.499 . S
C846 H826 0.950 . S
C846 C845 1.414 . S
C846 C847 1.374 . S
C847 H827 0.950 . S
C847 C843 1.385 . S
C847 C846 1.374 . S
C848 C845 1.499 . S
C848 C849 1.373 . S
C848 C850 1.389 . S
C849 H828 0.950 . S
C849 C848 1.373 . S
C849 C865 1.377 . S
C850 C848 1.389 . S
C850 C851 1.524 . S
C850 C864 1.377 . S
C851 C850 1.524 . S
C851 C852 1.397 . S
C851 C856 1.363 . S
C852 H829 0.950 . S
C852 C851 1.397 . S
C852 C853 1.334 . S
C853 H830 0.950 . S
C853 C852 1.334 . S
C853 C854 1.287 . S
C854 C853 1.287 . S
C854 C855 1.524 . S
C854 H873 0.913 . S
C855 H831 0.950 . S
C855 C854 1.524 . S
C855 C856 1.415 . S
C856 H832 0.950 . S
C856 C851 1.363 . S
C856 C855 1.415 . S
C857 H833 0.951 . S
C857 C858 1.366 . S
C857 C859 1.388 . S
C858 C857 1.366 . S
C858 C862 1.385 . S
C859 H834 0.951 . S
C859 C857 1.388 . S
C859 C860 1.366 . S
C860 C859 1.366 . S
C860 C861 1.414 . S
C860 C863 1.499 . S
C861 H835 0.950 . S
C861 C860 1.414 . S
C861 C862 1.374 . S
C862 H836 0.950 . S
C862 C858 1.385 . S
C862 C861 1.374 . S
C863 C860 1.499 . S
C863 C864 1.373 . S
C863 C865 1.389 . S
C864 H837 0.950 . S
C864 C850 1.377 . S
C864 C863 1.373 . S
C865 C849 1.377 . S
C865 C863 1.389 . S
C865 C866 1.524 . S
C866 C865 1.524 . S
C866 C867 1.397 . S
C866 C871 1.363 . S
C867 H838 0.950 . S
C867 C866 1.397 . S
C867 C868 1.334 . S
C868 H839 0.950 . S
C868 C867 1.334 . S
C868 C869 1.287 . S
C869 C868 1.287 . S
C869 C870 1.524 . S
C869 H872 0.999 . S
C870 H840 0.950 . S
C870 C869 1.524 . S
C870 C871 1.415 . S
C871 H841 0.950 . S
C871 C866 1.363 . S
C871 C870 1.415 . S
H872 C869 0.999 . S
H873 C854 0.913 . S
H874 C892 0.951 . S
H875 C894 0.951 . S
H876 C896 0.950 . S
H877 C897 0.950 . S
H878 C899 0.950 . S
H879 C902 0.950 . S
H880 C903 0.950 . S
H881 C905 0.950 . S
H882 C906 0.950 . S
H883 C907 0.951 . S
H884 C909 0.951 . S
H885 C911 0.950 . S
H886 C912 0.950 . S
H887 C914 0.950 . S
H888 C917 0.950 . S
H889 C918 0.950 . S
H890 C920 0.950 . S
H891 C921 0.950 . S
C892 H874 0.951 . S
C892 C893 1.366 . S
C892 C894 1.388 . S
C893 C892 1.366 . S
C893 C897 1.385 . S
C894 H875 0.951 . S
C894 C892 1.388 . S
C894 C895 1.366 . S
C895 C894 1.366 . S
C895 C896 1.414 . S
C895 C898 1.499 . S
C896 H876 0.950 . S
C896 C895 1.414 . S
C896 C897 1.374 . S
C897 H877 0.950 . S
C897 C893 1.385 . S
C897 C896 1.374 . S
C898 C895 1.499 . S
C898 C899 1.373 . S
C898 C900 1.389 . S
C899 H878 0.950 . S
C899 C898 1.373 . S
C899 C915 1.377 . S
C900 C898 1.389 . S
C900 C901 1.524 . S
C900 C914 1.377 . S
C901 C900 1.524 . S
C901 C902 1.397 . S
C901 C906 1.363 . S
C902 H879 0.950 . S
C902 C901 1.397 . S
C902 C903 1.334 . S
C903 H880 0.950 . S
C903 C902 1.334 . S
C903 C904 1.287 . S
C904 C903 1.287 . S
C904 C905 1.524 . S
C904 H923 0.913 . S
C905 H881 0.950 . S
C905 C904 1.524 . S
C905 C906 1.415 . S
C906 H882 0.950 . S
C906 C901 1.363 . S
C906 C905 1.415 . S
C907 H883 0.951 . S
C907 C908 1.366 . S
C907 C909 1.388 . S
C908 C907 1.366 . S
C908 C912 1.385 . S
C909 H884 0.951 . S
C909 C907 1.388 . S
C909 C910 1.366 . S
C910 C909 1.366 . S
C910 C911 1.414 . S
C910 C913 1.499 . S
C911 H885 0.950 . S
C911 C910 1.414 . S
C911 C912 1.374 . S
C912 H886 0.950 . S
C912 C908 1.385 . S
C912 C911 1.374 . S
C913 C910 1.499 . S
C913 C914 1.373 . S
C913 C915 1.389 . S
C914 H887 0.950 . S
C914 C900 1.377 . S
C914 C913 1.373 . S
C915 C899 1.377 . S
C915 C913 1.389 . S
C915 C916 1.524 . S
C916 C915 1.524 . S
C916 C917 1.397 . S
C916 C921 1.363 . S
C917 H888 0.950 . S
C917 C916 1.397 . S
C917 C918 1.334 . S
C918 H889 0.950 . S
C918 C917 1.334 . S
C918 C919 1.287 . S
C919 C918 1.287 . S
C919 C920 1.524 . S
C919 H922 0.999 . S
C920 H890 0.950 . S
C920 C919 1.524 . S
C920 C921 1.415 . S
C921 H891 0.950 . S
C921 C916 1.363 . S
C921 C920 1.415 . S
H922 C919 0.999 . S
H923 C904 0.913 . S
H924 C942 0.951 . S
H925 C944 0.951 . S
H926 C946 0.950 . S
H927 C947 0.950 . S
H928 C949 0.950 . S
H929 C952 0.950 . S
H930 C953 0.950 . S
H931 C955 0.944 1_455 S
H932 C956 0.950 1_455 S
H933 C957 0.951 . S
H934 C959 0.951 . S
H935 C961 0.950 . S
H936 C962 0.950 . S
H937 C964 0.950 . S
H938 C967 0.950 . S
H939 C968 0.950 . S
H940 C970 0.950 1_655 S
H941 C971 0.950 . S
C942 H924 0.951 . S
C942 C943 1.366 . S
C942 C944 1.388 . S
C943 C942 1.366 . S
C943 C947 1.385 . S
C944 H925 0.951 . S
C944 C942 1.388 . S
C944 C945 1.366 . S
C945 C944 1.366 . S
C945 C946 1.414 . S
C945 C948 1.499 . S
C946 H926 0.950 . S
C946 C945 1.414 . S
C946 C947 1.374 . S
C947 H927 0.950 . S
C947 C943 1.385 . S
C947 C946 1.374 . S
C948 C945 1.499 . S
C948 C949 1.373 . S
C948 C950 1.389 . S
C949 H928 0.950 . S
C949 C948 1.373 . S
C949 C965 1.377 1_655 S
C950 C948 1.389 . S
C950 C951 1.524 . S
C950 C964 1.377 1_655 S
C951 C950 1.524 . S
C951 C952 1.397 . S
C951 C956 1.363 . S
C952 H929 0.950 . S
C952 C951 1.397 . S
C952 C953 1.334 . S
C953 H930 0.950 . S
C953 C952 1.334 . S
C953 C954 1.287 . S
C954 C953 1.287 . S
C954 C955 1.524 . S
C954 H973 0.913 . S
C955 H931 0.944 1_655 S
C955 C954 1.524 . S
C955 C956 1.415 . S
C956 H932 0.950 1_655 S
C956 C951 1.363 . S
C956 C955 1.415 . S
C957 H933 0.951 . S
C957 C958 1.366 . S
C957 C959 1.388 . S
C958 C957 1.366 . S
C958 C962 1.385 . S
C959 H934 0.951 . S
C959 C957 1.388 . S
C959 C960 1.366 . S
C960 C959 1.366 . S
C960 C961 1.414 . S
C960 C963 1.499 . S
C961 H935 0.950 . S
C961 C960 1.414 . S
C961 C962 1.374 . S
C962 H936 0.950 . S
C962 C958 1.385 . S
C962 C961 1.374 . S
C963 C960 1.499 . S
C963 C964 1.373 . S
C963 C965 1.389 . S
C964 H937 0.950 . S
C964 C950 1.377 1_455 S
C964 C963 1.373 . S
C965 C949 1.377 1_455 S
C965 C963 1.389 . S
C965 C966 1.524 . S
C966 C965 1.524 . S
C966 C967 1.397 . S
C966 C971 1.363 1_455 S
C967 H938 0.950 . S
C967 C966 1.397 . S
C967 C968 1.334 . S
C968 H939 0.950 . S
C968 C967 1.334 . S
C968 C969 1.287 . S
C969 C968 1.287 . S
C969 C970 1.524 . S
C969 H972 0.999 . S
C970 H940 0.950 1_455 S
C970 C969 1.524 . S
C970 C971 1.415 1_455 S
C971 H941 0.950 . S
C971 C966 1.363 1_655 S
C971 C970 1.415 1_655 S
H972 C969 0.999 . S
H973 C954 0.913 . S
H974 C992 0.951 . S
H975 C994 0.951 . S
H976 C996 0.950 . S
H977 C997 0.950 . S
H978 C999 0.950 . S
H979 C1002 0.950 . S
H980 C1003 0.950 . S
H981 C1005 0.950 . S
H982 C1006 0.950 . S
H983 C1007 0.951 . S
H984 C1009 0.951 . S
H985 C1011 0.950 . S
H986 C1012 0.950 . S
H987 C1014 0.950 . S
H988 C1017 0.950 . S
H989 C1018 0.950 . S
H990 C1020 0.950 . S
H991 C1021 0.950 . S
C992 H974 0.951 . S
C992 C993 1.366 . S
C992 C994 1.388 . S
C993 C992 1.366 . S
C993 C997 1.385 . S
C994 H975 0.951 . S
C994 C992 1.388 . S
C994 C995 1.366 . S
C995 C994 1.366 . S
C995 C996 1.414 . S
C995 C998 1.499 . S
C996 H976 0.950 . S
C996 C995 1.414 . S
C996 C997 1.374 . S
C997 H977 0.950 . S
C997 C993 1.385 . S
C997 C996 1.374 . S
C998 C995 1.499 . S
C998 C999 1.373 . S
C998 C1000 1.389 . S
C999 H978 0.950 . S
C999 C998 1.373 . S
C999 C1015 1.377 . S
C1000 C998 1.389 . S
C1000 C1001 1.524 . S
C1000 C1014 1.377 1_655 S
C1001 C1000 1.524 . S
C1001 C1002 1.397 . S
C1001 C1006 1.363 1_655 S
C1002 H979 0.950 . S
C1002 C1001 1.397 . S
C1002 C1003 1.334 . S
C1003 H980 0.950 . S
C1003 C1002 1.334 . S
C1003 C1004 1.287 . S
C1004 C1003 1.287 . S
C1004 C1005 1.524 1_655 S
C1004 H1023 0.913 . S
C1005 H981 0.950 . S
C1005 C1004 1.524 1_455 S
C1005 C1006 1.415 . S
C1006 H982 0.950 . S
C1006 C1001 1.363 1_455 S
C1006 C1005 1.415 . S
C1007 H983 0.951 . S
C1007 C1008 1.366 . S
C1007 C1009 1.388 . S
C1008 C1007 1.366 . S
C1008 C1012 1.385 . S
C1009 H984 0.951 . S
C1009 C1007 1.388 . S
C1009 C1010 1.366 . S
C1010 C1009 1.366 . S
C1010 C1011 1.414 . S
C1010 C1013 1.499 . S
C1011 H985 0.950 . S
C1011 C1010 1.414 . S
C1011 C1012 1.374 . S
C1012 H986 0.950 . S
C1012 C1008 1.385 . S
C1012 C1011 1.374 . S
C1013 C1010 1.499 . S
C1013 C1014 1.373 . S
C1013 C1015 1.389 1_455 S
C1014 H987 0.950 . S
C1014 C1000 1.377 1_455 S
C1014 C1013 1.373 . S
C1015 C999 1.377 . S
C1015 C1013 1.389 1_655 S
C1015 C1016 1.524 . S
C1016 C1015 1.524 . S
C1016 C1017 1.397 1_655 S
C1016 C1021 1.363 . S
C1017 H988 0.950 . S
C1017 C1016 1.397 1_455 S
C1017 C1018 1.334 . S
C1018 H989 0.950 . S
C1018 C1017 1.334 . S
C1018 C1019 1.293 . S
C1019 C1018 1.293 . S
C1019 C1020 1.518 1_455 S
C1019 H1022 0.999 . S
C1020 H990 0.950 . S
C1020 C1019 1.518 1_655 S
C1020 C1021 1.415 . S
C1021 H991 0.950 . S
C1021 C1016 1.363 . S
C1021 C1020 1.415 . S
H1022 C1019 0.999 . S
H1023 C1004 0.913 . S
H1024 C1042 0.951 . S
H1025 C1044 0.951 . S
H1026 C1046 0.950 . S
H1027 C1047 0.950 . S
H1028 C1049 0.950 . S
H1029 C1052 0.950 . S
H1030 C1053 0.950 . S
H1031 C1055 0.950 . S
H1032 C1056 0.950 . S
H1033 C1057 0.951 . S
H1034 C1059 0.951 . S
H1035 C1061 0.950 . S
H1036 C1062 0.950 . S
H1037 C1064 0.950 . S
H1038 C1067 0.950 . S
H1039 C1068 0.950 . S
H1040 C1070 0.950 . S
H1041 C1071 0.950 . S
C1042 H1024 0.951 . S
C1042 C1043 1.366 . S
C1042 C1044 1.388 . S
C1043 C1042 1.366 . S
C1043 C1047 1.385 . S
C1044 H1025 0.951 . S
C1044 C1042 1.388 . S
C1044 C1045 1.366 . S
C1045 C1044 1.366 . S
C1045 C1046 1.414 . S
C1045 C1048 1.499 . S
C1046 H1026 0.950 . S
C1046 C1045 1.414 . S
C1046 C1047 1.374 . S
C1047 H1027 0.950 . S
C1047 C1043 1.385 . S
C1047 C1046 1.374 . S
C1048 C1045 1.499 . S
C1048 C1049 1.373 . S
C1048 C1050 1.389 . S
C1049 H1028 0.950 . S
C1049 C1048 1.373 . S
C1049 C1065 1.377 . S
C1050 C1048 1.389 . S
C1050 C1051 1.524 . S
C1050 C1064 1.377 . S
C1051 C1050 1.524 . S
C1051 C1052 1.397 . S
C1051 C1056 1.363 . S
C1052 H1029 0.950 . S
C1052 C1051 1.397 . S
C1052 C1053 1.334 . S
C1053 H1030 0.950 . S
C1053 C1052 1.334 . S
C1053 C1054 1.287 . S
C1054 C1053 1.287 . S
C1054 C1055 1.524 . S
C1054 H1073 0.913 . S
C1055 H1031 0.950 . S
C1055 C1054 1.524 . S
C1055 C1056 1.415 . S
C1056 H1032 0.950 . S
C1056 C1051 1.363 . S
C1056 C1055 1.415 . S
C1057 H1033 0.951 . S
C1057 C1058 1.366 . S
C1057 C1059 1.388 . S
C1058 C1057 1.366 . S
C1058 C1062 1.385 . S
C1059 H1034 0.951 . S
C1059 C1057 1.388 . S
C1059 C1060 1.366 . S
C1060 C1059 1.366 . S
C1060 C1061 1.414 . S
C1060 C1063 1.499 . S
C1061 H1035 0.950 . S
C1061 C1060 1.414 . S
C1061 C1062 1.374 . S
C1062 H1036 0.950 . S
C1062 C1058 1.385 . S
C1062 C1061 1.374 . S
C1063 C1060 1.499 . S
C1063 C1064 1.373 . S
C1063 C1065 1.389 . S
C1064 H1037 0.950 . S
C1064 C1050 1.377 . S
C1064 C1063 1.373 . S
C1065 C1049 1.377 . S
C1065 C1063 1.389 . S
C1065 C1066 1.524 . S
C1066 C1065 1.524 . S
C1066 C1067 1.397 . S
C1066 C1071 1.363 . S
C1067 H1038 0.950 . S
C1067 C1066 1.397 . S
C1067 C1068 1.334 . S
C1068 H1039 0.950 . S
C1068 C1067 1.334 . S
C1068 C1069 1.287 . S
C1069 C1068 1.287 . S
C1069 C1070 1.524 . S
C1069 H1072 0.999 . S
C1070 H1040 0.950 . S
C1070 C1069 1.524 . S
C1070 C1071 1.415 . S
C1071 H1041 0.950 . S
C1071 C1066 1.363 . S
C1071 C1070 1.415 . S
H1072 C1069 0.999 . S
H1073 C1054 0.913 . S
H1074 C1092 0.951 . S
H1075 C1094 0.951 . S
H1076 C1096 0.950 . S
H1077 C1097 0.950 . S
H1078 C1099 0.950 . S
H1079 C1102 0.950 . S
H1080 C1103 0.950 . S
H1081 C1105 0.950 . S
H1082 C1106 0.950 . S
H1083 C1107 0.951 . S
H1084 C1109 0.951 . S
H1085 C1111 0.950 . S
H1086 C1112 0.950 . S
H1087 C1114 0.950 . S
H1088 C1117 0.950 . S
H1089 C1118 0.950 . S
H1090 C1120 0.950 . S
H1091 C1121 0.950 . S
C1092 H1074 0.951 . S
C1092 C1093 1.366 . S
C1092 C1094 1.388 . S
C1093 C1092 1.366 . S
C1093 C1097 1.385 . S
C1094 H1075 0.951 . S
C1094 C1092 1.388 . S
C1094 C1095 1.366 . S
C1095 C1094 1.366 . S
C1095 C1096 1.414 . S
C1095 C1098 1.499 . S
C1096 H1076 0.950 . S
C1096 C1095 1.414 . S
C1096 C1097 1.374 . S
C1097 H1077 0.950 . S
C1097 C1093 1.385 . S
C1097 C1096 1.374 . S
C1098 C1095 1.499 . S
C1098 C1099 1.373 . S
C1098 C1100 1.389 . S
C1099 H1078 0.950 . S
C1099 C1098 1.373 . S
C1099 C1115 1.377 1_545 S
C1100 C1098 1.389 . S
C1100 C1101 1.524 . S
C1100 C1114 1.377 . S
C1101 C1100 1.524 . S
C1101 C1102 1.397 . S
C1101 C1106 1.363 . S
C1102 H1079 0.950 . S
C1102 C1101 1.397 . S
C1102 C1103 1.334 . S
C1103 H1080 0.950 . S
C1103 C1102 1.334 . S
C1103 C1104 1.287 . S
C1104 C1103 1.287 . S
C1104 C1105 1.524 . S
C1104 H1123 0.913 . S
C1105 H1081 0.950 . S
C1105 C1104 1.524 . S
C1105 C1106 1.415 . S
C1106 H1082 0.950 . S
C1106 C1101 1.363 . S
C1106 C1105 1.415 . S
C1107 H1083 0.951 . S
C1107 C1108 1.366 . S
C1107 C1109 1.388 . S
C1108 C1107 1.366 . S
C1108 C1112 1.385 . S
C1109 H1084 0.951 . S
C1109 C1107 1.388 . S
C1109 C1110 1.366 . S
C1110 C1109 1.366 . S
C1110 C1111 1.414 . S
C1110 C1113 1.499 . S
C1111 H1085 0.950 . S
C1111 C1110 1.414 . S
C1111 C1112 1.374 . S
C1112 H1086 0.950 . S
C1112 C1108 1.385 . S
C1112 C1111 1.374 . S
C1113 C1110 1.499 . S
C1113 C1114 1.373 1_565 S
C1113 C1115 1.389 . S
C1114 H1087 0.950 . S
C1114 C1100 1.377 . S
C1114 C1113 1.373 1_545 S
C1115 C1099 1.377 1_565 S
C1115 C1113 1.389 . S
C1115 C1116 1.524 . S
C1116 C1115 1.524 . S
C1116 C1117 1.397 . S
C1116 C1121 1.363 . S
C1117 H1088 0.950 . S
C1117 C1116 1.397 . S
C1117 C1118 1.334 . S
C1118 H1089 0.950 . S
C1118 C1117 1.334 . S
C1118 C1119 1.287 . S
C1119 C1118 1.287 . S
C1119 C1120 1.524 . S
C1119 H1122 0.999 . S
C1120 H1090 0.950 . S
C1120 C1119 1.524 . S
C1120 C1121 1.415 . S
C1121 H1091 0.950 . S
C1121 C1116 1.363 . S
C1121 C1120 1.415 . S
H1122 C1119 0.999 . S
H1123 C1104 0.913 . S
H1124 C1142 0.951 . S
H1125 C1144 0.951 . S
H1126 C1146 0.950 . S
H1127 C1147 0.950 . S
H1128 C1149 0.950 . S
H1129 C1152 0.950 . S
H1130 C1153 0.950 . S
H1131 C1155 0.950 . S
H1132 C1156 0.950 . S
H1133 C1157 0.951 . S
H1134 C1159 0.951 . S
H1135 C1161 0.950 . S
H1136 C1162 0.950 . S
H1137 C1164 0.950 . S
H1138 C1167 0.950 . S
H1139 C1168 0.950 . S
H1140 C1170 0.950 . S
H1141 C1171 0.950 . S
C1142 H1124 0.951 . S
C1142 C1143 1.366 . S
C1142 C1144 1.388 . S
C1143 C1142 1.366 . S
C1143 C1147 1.385 . S
C1144 H1125 0.951 . S
C1144 C1142 1.388 . S
C1144 C1145 1.366 . S
C1145 C1144 1.366 . S
C1145 C1146 1.414 . S
C1145 C1148 1.499 . S
C1146 H1126 0.950 . S
C1146 C1145 1.414 . S
C1146 C1147 1.374 . S
C1147 H1127 0.950 . S
C1147 C1143 1.385 . S
C1147 C1146 1.374 . S
C1148 C1145 1.499 . S
C1148 C1149 1.373 . S
C1148 C1150 1.389 . S
C1149 H1128 0.950 . S
C1149 C1148 1.373 . S
C1149 C1165 1.377 . S
C1150 C1148 1.389 . S
C1150 C1151 1.524 . S
C1150 C1164 1.377 . S
C1151 C1150 1.524 . S
C1151 C1152 1.397 . S
C1151 C1156 1.363 . S
C1152 H1129 0.950 . S
C1152 C1151 1.397 . S
C1152 C1153 1.334 . S
C1153 H1130 0.950 . S
C1153 C1152 1.334 . S
C1153 C1154 1.287 . S
C1154 C1153 1.287 . S
C1154 C1155 1.524 . S
C1154 H1173 0.913 . S
C1155 H1131 0.950 . S
C1155 C1154 1.524 . S
C1155 C1156 1.415 . S
C1156 H1132 0.950 . S
C1156 C1151 1.363 . S
C1156 C1155 1.415 . S
C1157 H1133 0.951 . S
C1157 C1158 1.366 . S
C1157 C1159 1.388 . S
C1158 C1157 1.366 . S
C1158 C1162 1.385 . S
C1159 H1134 0.951 . S
C1159 C1157 1.388 . S
C1159 C1160 1.366 . S
C1160 C1159 1.366 . S
C1160 C1161 1.414 . S
C1160 C1163 1.499 . S
C1161 H1135 0.950 . S
C1161 C1160 1.414 . S
C1161 C1162 1.374 . S
C1162 H1136 0.950 . S
C1162 C1158 1.385 . S
C1162 C1161 1.374 . S
C1163 C1160 1.499 . S
C1163 C1164 1.373 . S
C1163 C1165 1.389 . S
C1164 H1137 0.950 . S
C1164 C1150 1.377 . S
C1164 C1163 1.373 . S
C1165 C1149 1.377 . S
C1165 C1163 1.389 . S
C1165 C1166 1.524 . S
C1166 C1165 1.524 . S
C1166 C1167 1.397 . S
C1166 C1171 1.363 . S
C1167 H1138 0.950 . S
C1167 C1166 1.397 . S
C1167 C1168 1.334 . S
C1168 H1139 0.950 . S
C1168 C1167 1.334 . S
C1168 C1169 1.287 . S
C1169 C1168 1.287 . S
C1169 C1170 1.524 . S
C1169 H1172 0.999 . S
C1170 H1140 0.950 . S
C1170 C1169 1.524 . S
C1170 C1171 1.415 . S
C1171 H1141 0.950 . S
C1171 C1166 1.363 . S
C1171 C1170 1.415 . S
H1172 C1169 0.999 . S
H1173 C1154 0.913 . S
H1174 C1192 0.951 . S
H1175 C1194 0.951 . S
H1176 C1196 0.950 . S
H1177 C1197 0.950 . S
H1178 C1199 0.950 . S
H1179 C1202 0.950 . S
H1180 C1203 0.950 . S
H1181 C1205 0.950 . S
H1182 C1206 0.950 . S
H1183 C1207 0.951 . S
H1184 C1209 0.951 . S
H1185 C1211 0.950 . S
H1186 C1212 0.950 . S
H1187 C1214 0.950 . S
H1188 C1217 0.950 . S
H1189 C1218 0.950 . S
H1190 C1220 0.950 . S
H1191 C1221 0.950 . S
C1192 H1174 0.951 . S
C1192 C1193 1.366 . S
C1192 C1194 1.388 . S
C1193 C1192 1.366 . S
C1193 C1197 1.385 . S
C1194 H1175 0.951 . S
C1194 C1192 1.388 . S
C1194 C1195 1.366 . S
C1195 C1194 1.366 . S
C1195 C1196 1.414 . S
C1195 C1198 1.499 . S
C1196 H1176 0.950 . S
C1196 C1195 1.414 . S
C1196 C1197 1.374 . S
C1197 H1177 0.950 . S
C1197 C1193 1.385 . S
C1197 C1196 1.374 . S
C1198 C1195 1.499 . S
C1198 C1199 1.373 . S
C1198 C1200 1.389 . S
C1199 H1178 0.950 . S
C1199 C1198 1.373 . S
C1199 C1215 1.377 . S
C1200 C1198 1.389 . S
C1200 C1201 1.524 . S
C1200 C1214 1.377 1_554 S
C1201 C1200 1.524 . S
C1201 C1202 1.397 . S
C1201 C1206 1.363 1_554 S
C1202 H1179 0.950 . S
C1202 C1201 1.397 . S
C1202 C1203 1.334 . S
C1203 H1180 0.950 . S
C1203 C1202 1.334 . S
C1203 C1204 1.287 . S
C1204 C1203 1.287 . S
C1204 C1205 1.524 1_554 S
C1204 H1223 0.913 . S
C1205 H1181 0.950 . S
C1205 C1204 1.524 1_556 S
C1205 C1206 1.415 . S
C1206 H1182 0.950 . S
C1206 C1201 1.363 1_556 S
C1206 C1205 1.415 . S
C1207 H1183 0.951 . S
C1207 C1208 1.366 . S
C1207 C1209 1.388 . S
C1208 C1207 1.366 . S
C1208 C1212 1.385 . S
C1209 H1184 0.951 . S
C1209 C1207 1.388 . S
C1209 C1210 1.366 . S
C1210 C1209 1.366 . S
C1210 C1211 1.414 . S
C1210 C1213 1.499 . S
C1211 H1185 0.950 . S
C1211 C1210 1.414 . S
C1211 C1212 1.374 . S
C1212 H1186 0.950 . S
C1212 C1208 1.385 . S
C1212 C1211 1.374 . S
C1213 C1210 1.499 . S
C1213 C1214 1.373 . S
C1213 C1215 1.389 1_556 S
C1214 H1187 0.950 . S
C1214 C1200 1.377 1_556 S
C1214 C1213 1.373 . S
C1215 C1199 1.377 . S
C1215 C1213 1.389 1_554 S
C1215 C1216 1.524 . S
C1216 C1215 1.524 . S
C1216 C1217 1.397 1_554 S
C1216 C1221 1.363 . S
C1217 H1188 0.950 . S
C1217 C1216 1.397 1_556 S
C1217 C1218 1.334 . S
C1218 H1189 0.950 . S
C1218 C1217 1.334 . S
C1218 C1219 1.287 . S
C1219 C1218 1.287 . S
C1219 C1220 1.524 1_556 S
C1219 H1222 0.999 . S
C1220 H1190 0.950 . S
C1220 C1219 1.524 1_554 S
C1220 C1221 1.415 . S
C1221 H1191 0.950 . S
C1221 C1216 1.363 . S
C1221 C1220 1.415 . S
H1222 C1219 0.999 . S
H1223 C1204 0.913 . S
H1224 C1242 0.951 . S
H1225 C1244 0.951 . S
H1226 C1246 0.950 . S
H1227 C1247 0.950 . S
H1228 C1249 0.950 . S
H1229 C1252 0.950 . S
H1230 C1253 0.950 . S
H1231 C1255 0.950 . S
H1232 C1256 0.950 . S
H1233 C1257 0.951 . S
H1234 C1259 0.951 . S
H1235 C1261 0.950 . S
H1236 C1262 0.950 . S
H1237 C1264 0.950 . S
H1238 C1267 0.950 . S
H1239 C1268 0.950 . S
H1240 C1270 0.950 . S
H1241 C1271 0.950 . S
C1242 H1224 0.951 . S
C1242 C1243 1.366 . S
C1242 C1244 1.388 . S
C1243 C1242 1.366 . S
C1243 C1247 1.385 . S
C1244 H1225 0.951 . S
C1244 C1242 1.388 . S
C1244 C1245 1.366 . S
C1245 C1244 1.366 . S
C1245 C1246 1.414 . S
C1245 C1248 1.499 . S
C1246 H1226 0.950 . S
C1246 C1245 1.414 . S
C1246 C1247 1.374 . S
C1247 H1227 0.950 . S
C1247 C1243 1.385 . S
C1247 C1246 1.374 . S
C1248 C1245 1.499 . S
C1248 C1249 1.373 . S
C1248 C1250 1.389 1_556 S
C1249 H1228 0.950 . S
C1249 C1248 1.373 . S
C1249 C1265 1.377 1_556 S
C1250 C1248 1.389 1_554 S
C1250 C1251 1.524 . S
C1250 C1264 1.377 . S
C1251 C1250 1.524 . S
C1251 C1252 1.397 1_554 S
C1251 C1256 1.363 . S
C1252 H1229 0.950 . S
C1252 C1251 1.397 1_556 S
C1252 C1253 1.334 . S
C1253 H1230 0.950 . S
C1253 C1252 1.334 . S
C1253 C1254 1.287 1_556 S
C1254 C1253 1.287 1_554 S
C1254 C1255 1.524 . S
C1254 H1273 0.913 . S
C1255 H1231 0.950 . S
C1255 C1254 1.524 . S
C1255 C1256 1.415 . S
C1256 H1232 0.950 . S
C1256 C1251 1.363 . S
C1256 C1255 1.415 . S
C1257 H1233 0.951 . S
C1257 C1258 1.366 . S
C1257 C1259 1.388 . S
C1258 C1257 1.366 . S
C1258 C1262 1.385 . S
C1259 H1234 0.951 . S
C1259 C1257 1.388 . S
C1259 C1260 1.366 . S
C1260 C1259 1.366 . S
C1260 C1261 1.414 . S
C1260 C1263 1.499 . S
C1261 H1235 0.950 . S
C1261 C1260 1.414 . S
C1261 C1262 1.374 . S
C1262 H1236 0.950 . S
C1262 C1258 1.385 . S
C1262 C1261 1.374 . S
C1263 C1260 1.499 . S
C1263 C1264 1.373 . S
C1263 C1265 1.389 . S
C1264 H1237 0.950 . S
C1264 C1250 1.377 . S
C1264 C1263 1.373 . S
C1265 C1249 1.377 1_554 S
C1265 C1263 1.389 . S
C1265 C1266 1.524 . S
C1266 C1265 1.524 . S
C1266 C1267 1.397 . S
C1266 C1271 1.363 1_554 S
C1267 H1238 0.950 . S
C1267 C1266 1.397 . S
C1267 C1268 1.334 . S
C1268 H1239 0.950 . S
C1268 C1267 1.334 . S
C1268 C1269 1.287 . S
C1269 C1268 1.287 . S
C1269 C1270 1.524 1_554 S
C1269 H1272 0.999 . S
C1270 H1240 0.950 . S
C1270 C1269 1.524 1_556 S
C1270 C1271 1.415 . S
C1271 H1241 0.950 . S
C1271 C1266 1.363 1_556 S
C1271 C1270 1.415 . S
H1272 C1269 0.999 . S
H1273 C1254 0.913 . S
H1274 C1292 0.951 . S
H1275 C1294 0.951 . S
H1276 C1296 0.950 . S
H1277 C1297 0.950 . S
H1278 C1299 0.950 . S
H1279 C1302 0.950 . S
H1280 C1303 0.950 . S
H1281 C1305 0.950 . S
H1282 C1306 0.950 . S
H1283 C1307 0.951 . S
H1284 C1309 0.951 . S
H1285 C1311 0.950 . S
H1286 C1312 0.950 . S
H1287 C1314 0.950 . S
H1288 C1317 0.950 . S
H1289 C1318 0.950 . S
H1290 C1320 0.950 . S
H1291 C1321 0.950 . S
C1292 H1274 0.951 . S
C1292 C1293 1.366 . S
C1292 C1294 1.388 . S
C1293 C1292 1.366 . S
C1293 C1297 1.385 . S
C1294 H1275 0.951 . S
C1294 C1292 1.388 . S
C1294 C1295 1.366 . S
C1295 C1294 1.366 . S
C1295 C1296 1.414 . S
C1295 C1298 1.499 . S
C1296 H1276 0.950 . S
C1296 C1295 1.414 . S
C1296 C1297 1.374 . S
C1297 H1277 0.950 . S
C1297 C1293 1.385 . S
C1297 C1296 1.374 . S
C1298 C1295 1.499 . S
C1298 C1299 1.373 . S
C1298 C1300 1.389 . S
C1299 H1278 0.950 . S
C1299 C1298 1.373 . S
C1299 C1315 1.377 . S
C1300 C1298 1.389 . S
C1300 C1301 1.524 . S
C1300 C1314 1.377 . S
C1301 C1300 1.524 . S
C1301 C1302 1.397 . S
C1301 C1306 1.363 . S
C1302 H1279 0.950 . S
C1302 C1301 1.397 . S
C1302 C1303 1.334 . S
C1303 H1280 0.950 . S
C1303 C1302 1.334 . S
C1303 C1304 1.287 . S
C1304 C1303 1.287 . S
C1304 C1305 1.524 . S
C1304 H1323 0.913 . S
C1305 H1281 0.950 . S
C1305 C1304 1.524 . S
C1305 C1306 1.415 . S
C1306 H1282 0.950 . S
C1306 C1301 1.363 . S
C1306 C1305 1.415 . S
C1307 H1283 0.951 . S
C1307 C1308 1.366 . S
C1307 C1309 1.388 . S
C1308 C1307 1.366 . S
C1308 C1312 1.385 . S
C1309 H1284 0.951 . S
C1309 C1307 1.388 . S
C1309 C1310 1.366 . S
C1310 C1309 1.366 . S
C1310 C1311 1.414 . S
C1310 C1313 1.499 . S
C1311 H1285 0.950 . S
C1311 C1310 1.414 . S
C1311 C1312 1.374 . S
C1312 H1286 0.950 . S
C1312 C1308 1.385 . S
C1312 C1311 1.374 . S
C1313 C1310 1.499 . S
C1313 C1314 1.373 . S
C1313 C1315 1.389 . S
C1314 H1287 0.950 . S
C1314 C1300 1.377 . S
C1314 C1313 1.373 . S
C1315 C1299 1.377 . S
C1315 C1313 1.389 . S
C1315 C1316 1.524 . S
C1316 C1315 1.524 . S
C1316 C1317 1.397 . S
C1316 C1321 1.363 . S
C1317 H1288 0.950 . S
C1317 C1316 1.397 . S
C1317 C1318 1.334 . S
C1318 H1289 0.950 . S
C1318 C1317 1.334 . S
C1318 C1319 1.287 . S
C1319 C1318 1.287 . S
C1319 C1320 1.524 . S
C1319 H1322 0.999 . S
C1320 H1290 0.950 . S
C1320 C1319 1.524 . S
C1320 C1321 1.415 . S
C1321 H1291 0.950 . S
C1321 C1316 1.363 . S
C1321 C1320 1.415 . S
H1322 C1319 0.999 . S
H1323 C1304 0.913 . S
H1324 C1342 0.951 . S
H1325 C1344 0.951 . S
H1326 C1346 0.950 . S
H1327 C1347 0.950 . S
H1328 C1349 0.950 . S
H1329 C1352 0.950 . S
H1330 C1353 0.950 . S
H1331 C1355 0.950 . S
H1332 C1356 0.950 . S
H1333 C1357 0.951 . S
H1334 C1359 0.951 . S
H1335 C1361 0.950 . S
H1336 C1362 0.950 . S
H1337 C1364 0.950 . S
H1338 C1367 0.950 . S
H1339 C1368 0.950 . S
H1340 C1370 0.950 . S
H1341 C1371 0.950 . S
C1342 H1324 0.951 . S
C1342 C1343 1.366 . S
C1342 C1344 1.388 . S
C1343 C1342 1.366 . S
C1343 C1347 1.385 . S
C1344 H1325 0.951 . S
C1344 C1342 1.388 . S
C1344 C1345 1.366 . S
C1345 C1344 1.366 . S
C1345 C1346 1.414 . S
C1345 C1348 1.499 . S
C1346 H1326 0.950 . S
C1346 C1345 1.414 . S
C1346 C1347 1.374 . S
C1347 H1327 0.950 . S
C1347 C1343 1.385 . S
C1347 C1346 1.374 . S
C1348 C1345 1.499 . S
C1348 C1349 1.373 . S
C1348 C1350 1.389 . S
C1349 H1328 0.950 . S
C1349 C1348 1.373 . S
C1349 C1365 1.377 . S
C1350 C1348 1.389 . S
C1350 C1351 1.524 . S
C1350 C1364 1.377 . S
C1351 C1350 1.524 . S
C1351 C1352 1.397 . S
C1351 C1356 1.363 . S
C1352 H1329 0.950 . S
C1352 C1351 1.397 . S
C1352 C1353 1.334 . S
C1353 H1330 0.950 . S
C1353 C1352 1.334 . S
C1353 C1354 1.287 . S
C1354 C1353 1.287 . S
C1354 C1355 1.524 . S
C1354 H1373 0.913 . S
C1355 H1331 0.950 . S
C1355 C1354 1.524 . S
C1355 C1356 1.415 . S
C1356 H1332 0.950 . S
C1356 C1351 1.363 . S
C1356 C1355 1.415 . S
C1357 H1333 0.951 . S
C1357 C1358 1.366 . S
C1357 C1359 1.388 . S
C1358 C1357 1.366 . S
C1358 C1362 1.385 . S
C1359 H1334 0.951 . S
C1359 C1357 1.388 . S
C1359 C1360 1.366 . S
C1360 C1359 1.366 . S
C1360 C1361 1.414 . S
C1360 C1363 1.499 . S
C1361 H1335 0.950 . S
C1361 C1360 1.414 . S
C1361 C1362 1.374 . S
C1362 H1336 0.950 . S
C1362 C1358 1.385 . S
C1362 C1361 1.374 . S
C1363 C1360 1.499 . S
C1363 C1364 1.373 . S
C1363 C1365 1.389 . S
C1364 H1337 0.950 . S
C1364 C1350 1.377 . S
C1364 C1363 1.373 . S
C1365 C1349 1.377 . S
C1365 C1363 1.389 . S
C1365 C1366 1.524 . S
C1366 C1365 1.524 . S
C1366 C1367 1.397 . S
C1366 C1371 1.363 . S
C1367 H1338 0.950 . S
C1367 C1366 1.397 . S
C1367 C1368 1.334 . S
C1368 H1339 0.950 . S
C1368 C1367 1.334 . S
C1368 C1369 1.287 . S
C1369 C1368 1.287 . S
C1369 C1370 1.524 . S
C1369 H1372 0.999 . S
C1370 H1340 0.950 . S
C1370 C1369 1.524 . S
C1370 C1371 1.415 . S
C1371 H1341 0.950 . S
C1371 C1366 1.363 . S
C1371 C1370 1.415 . S
H1372 C1369 0.999 . S
H1373 C1354 0.913 . S
H1374 C1392 0.951 . S
H1375 C1394 0.951 . S
H1376 C1396 0.950 . S
H1377 C1397 0.950 . S
H1378 C1399 0.950 . S
H1379 C1402 0.950 . S
H1380 C1403 0.950 . S
H1381 C1405 0.950 . S
H1382 C1406 0.950 . S
H1383 C1407 0.951 . S
H1384 C1409 0.951 . S
H1385 C1411 0.950 . S
H1386 C1412 0.950 . S
H1387 C1414 0.950 . S
H1388 C1417 0.950 . S
H1389 C1418 0.950 . S
H1390 C1420 0.950 . S
H1391 C1421 0.950 . S
C1392 H1374 0.951 . S
C1392 C1393 1.366 . S
C1392 C1394 1.388 . S
C1393 C1392 1.366 . S
C1393 C1397 1.385 . S
C1394 H1375 0.951 . S
C1394 C1392 1.388 . S
C1394 C1395 1.366 . S
C1395 C1394 1.366 . S
C1395 C1396 1.414 . S
C1395 C1398 1.499 . S
C1396 H1376 0.950 . S
C1396 C1395 1.414 . S
C1396 C1397 1.374 . S
C1397 H1377 0.950 . S
C1397 C1393 1.385 . S
C1397 C1396 1.374 . S
C1398 C1395 1.499 . S
C1398 C1399 1.373 . S
C1398 C1400 1.389 . S
C1399 H1378 0.950 . S
C1399 C1398 1.373 . S
C1399 C1415 1.377 1_455 S
C1400 C1398 1.389 . S
C1400 C1401 1.524 . S
C1400 C1414 1.377 1_455 S
C1401 C1400 1.524 . S
C1401 C1402 1.397 . S
C1401 C1406 1.363 . S
C1402 H1379 0.950 . S
C1402 C1401 1.397 . S
C1402 C1403 1.334 . S
C1403 H1380 0.950 . S
C1403 C1402 1.334 . S
C1403 C1404 1.287 . S
C1404 C1403 1.287 . S
C1404 C1405 1.524 . S
C1404 H1423 0.913 . S
C1405 H1381 0.950 . S
C1405 C1404 1.524 . S
C1405 C1406 1.415 . S
C1406 H1382 0.950 . S
C1406 C1401 1.363 . S
C1406 C1405 1.415 . S
C1407 H1383 0.951 . S
C1407 C1408 1.366 . S
C1407 C1409 1.388 . S
C1408 C1407 1.366 . S
C1408 C1412 1.385 . S
C1409 H1384 0.951 . S
C1409 C1407 1.388 . S
C1409 C1410 1.366 . S
C1410 C1409 1.366 . S
C1410 C1411 1.414 . S
C1410 C1413 1.499 . S
C1411 H1385 0.950 . S
C1411 C1410 1.414 . S
C1411 C1412 1.374 . S
C1412 H1386 0.950 . S
C1412 C1408 1.385 . S
C1412 C1411 1.374 . S
C1413 C1410 1.499 . S
C1413 C1414 1.373 . S
C1413 C1415 1.389 . S
C1414 H1387 0.950 . S
C1414 C1400 1.377 1_655 S
C1414 C1413 1.373 . S
C1415 C1399 1.377 1_655 S
C1415 C1413 1.389 . S
C1415 C1416 1.524 . S
C1416 C1415 1.524 . S
C1416 C1417 1.397 . S
C1416 C1421 1.363 . S
C1417 H1388 0.950 . S
C1417 C1416 1.397 . S
C1417 C1418 1.334 . S
C1418 H1389 0.950 . S
C1418 C1417 1.334 . S
C1418 C1419 1.287 . S
C1419 C1418 1.287 . S
C1419 C1420 1.524 . S
C1419 H1422 0.999 . S
C1420 H1390 0.950 . S
C1420 C1419 1.524 . S
C1420 C1421 1.415 . S
C1421 H1391 0.950 . S
C1421 C1416 1.363 . S
C1421 C1420 1.415 . S
H1422 C1419 0.999 . S
H1423 C1404 0.913 . S
H1424 C1442 0.951 . S
H1425 C1444 0.951 . S
H1426 C1446 0.950 . S
H1427 C1447 0.950 . S
H1428 C1449 0.950 . S
H1429 C1452 0.950 . S
H1430 C1453 0.950 . S
H1431 C1455 0.950 . S
H1432 C1456 0.950 . S
H1433 C1457 0.951 . S
H1434 C1459 0.951 . S
H1435 C1461 0.950 . S
H1436 C1462 0.950 . S
H1437 C1464 0.950 . S
H1438 C1467 0.950 . S
H1439 C1468 0.950 . S
H1440 C1470 0.950 . S
H1441 C1471 0.950 . S
C1442 H1424 0.951 . S
C1442 C1443 1.366 . S
C1442 C1444 1.388 . S
C1443 C1442 1.366 . S
C1443 C1447 1.385 . S
C1444 H1425 0.951 . S
C1444 C1442 1.388 . S
C1444 C1445 1.366 . S
C1445 C1444 1.366 . S
C1445 C1446 1.414 . S
C1445 C1448 1.499 . S
C1446 H1426 0.950 . S
C1446 C1445 1.414 . S
C1446 C1447 1.374 . S
C1447 H1427 0.950 . S
C1447 C1443 1.385 . S
C1447 C1446 1.374 . S
C1448 C1445 1.499 . S
C1448 C1449 1.373 . S
C1448 C1450 1.389 . S
C1449 H1428 0.950 . S
C1449 C1448 1.373 . S
C1449 C1465 1.377 1_455 S
C1450 C1448 1.389 . S
C1450 C1451 1.524 . S
C1450 C1464 1.377 1_455 S
C1451 C1450 1.524 . S
C1451 C1452 1.397 . S
C1451 C1456 1.363 . S
C1452 H1429 0.950 . S
C1452 C1451 1.397 . S
C1452 C1453 1.334 . S
C1453 H1430 0.950 . S
C1453 C1452 1.334 . S
C1453 C1454 1.287 . S
C1454 C1453 1.287 . S
C1454 C1455 1.524 . S
C1454 H1473 0.913 . S
C1455 H1431 0.950 . S
C1455 C1454 1.524 . S
C1455 C1456 1.415 . S
C1456 H1432 0.950 . S
C1456 C1451 1.363 . S
C1456 C1455 1.415 . S
C1457 H1433 0.951 . S
C1457 C1458 1.366 . S
C1457 C1459 1.388 . S
C1458 C1457 1.366 . S
C1458 C1462 1.385 . S
C1459 H1434 0.951 . S
C1459 C1457 1.388 . S
C1459 C1460 1.366 . S
C1460 C1459 1.366 . S
C1460 C1461 1.414 . S
C1460 C1463 1.499 . S
C1461 H1435 0.950 . S
C1461 C1460 1.414 . S
C1461 C1462 1.374 . S
C1462 H1436 0.950 . S
C1462 C1458 1.385 . S
C1462 C1461 1.374 . S
C1463 C1460 1.499 . S
C1463 C1464 1.373 . S
C1463 C1465 1.389 . S
C1464 H1437 0.950 . S
C1464 C1450 1.377 1_655 S
C1464 C1463 1.373 . S
C1465 C1449 1.377 1_655 S
C1465 C1463 1.389 . S
C1465 C1466 1.524 . S
C1466 C1465 1.524 . S
C1466 C1467 1.397 . S
C1466 C1471 1.363 . S
C1467 H1438 0.950 . S
C1467 C1466 1.397 . S
C1467 C1468 1.334 . S
C1468 H1439 0.950 . S
C1468 C1467 1.334 . S
C1468 C1469 1.287 . S
C1469 C1468 1.287 . S
C1469 C1470 1.524 . S
C1469 H1472 0.999 . S
C1470 H1440 0.950 . S
C1470 C1469 1.524 . S
C1470 C1471 1.415 . S
C1471 H1441 0.950 . S
C1471 C1466 1.363 . S
C1471 C1470 1.415 . S
H1472 C1469 0.999 . S
H1473 C1454 0.913 . S
H1474 C1492 0.951 . S
H1475 C1494 0.951 . S
H1476 C1496 0.950 . S
H1477 C1497 0.950 . S
H1478 C1499 0.950 . S
H1479 C1502 0.950 . S
H1480 C1503 0.950 . S
H1481 C1505 0.950 . S
H1482 C1506 0.950 . S
H1483 C1507 0.951 . S
H1484 C1509 0.951 . S
H1485 C1511 0.950 . S
H1486 C1512 0.950 . S
H1487 C1514 0.950 . S
H1488 C1517 0.950 . S
H1489 C1518 0.950 . S
H1490 C1520 0.950 . S
H1491 C1521 0.950 . S
C1492 H1474 0.951 . S
C1492 C1493 1.366 . S
C1492 C1494 1.388 . S
C1493 C1492 1.366 . S
C1493 C1497 1.385 . S
C1494 H1475 0.951 . S
C1494 C1492 1.388 . S
C1494 C1495 1.366 . S
C1495 C1494 1.366 . S
C1495 C1496 1.414 . S
C1495 C1498 1.499 . S
C1496 H1476 0.950 . S
C1496 C1495 1.414 . S
C1496 C1497 1.374 . S
C1497 H1477 0.950 . S
C1497 C1493 1.385 . S
C1497 C1496 1.374 . S
C1498 C1495 1.499 . S
C1498 C1499 1.373 . S
C1498 C1500 1.389 . S
C1499 H1478 0.950 . S
C1499 C1498 1.373 . S
C1499 C1515 1.377 . S
C1500 C1498 1.389 . S
C1500 C1501 1.524 . S
C1500 C1514 1.377 . S
C1501 C1500 1.524 . S
C1501 C1502 1.397 . S
C1501 C1506 1.363 . S
C1502 H1479 0.950 . S
C1502 C1501 1.397 . S
C1502 C1503 1.334 . S
C1503 H1480 0.950 . S
C1503 C1502 1.334 . S
C1503 C1504 1.287 . S
C1504 C1503 1.287 . S
C1504 C1505 1.524 . S
C1504 H1523 0.913 . S
C1505 H1481 0.950 . S
C1505 C1504 1.524 . S
C1505 C1506 1.415 . S
C1506 H1482 0.950 . S
C1506 C1501 1.363 . S
C1506 C1505 1.415 . S
C1507 H1483 0.951 . S
C1507 C1508 1.366 . S
C1507 C1509 1.388 . S
C1508 C1507 1.366 . S
C1508 C1512 1.385 . S
C1509 H1484 0.951 . S
C1509 C1507 1.388 . S
C1509 C1510 1.366 . S
C1510 C1509 1.366 . S
C1510 C1511 1.414 . S
C1510 C1513 1.499 . S
C1511 H1485 0.950 . S
C1511 C1510 1.414 . S
C1511 C1512 1.374 . S
C1512 H1486 0.950 . S
C1512 C1508 1.385 . S
C1512 C1511 1.374 . S
C1513 C1510 1.499 . S
C1513 C1514 1.373 . S
C1513 C1515 1.389 . S
C1514 H1487 0.950 . S
C1514 C1500 1.377 . S
C1514 C1513 1.373 . S
C1515 C1499 1.377 . S
C1515 C1513 1.389 . S
C1515 C1516 1.524 . S
C1516 C1515 1.524 . S
C1516 C1517 1.397 . S
C1516 C1521 1.363 . S
C1517 H1488 0.950 . S
C1517 C1516 1.397 . S
C1517 C1518 1.334 . S
C1518 H1489 0.950 . S
C1518 C1517 1.334 . S
C1518 C1519 1.287 . S
C1519 C1518 1.287 . S
C1519 C1520 1.524 . S
C1519 H1522 0.999 . S
C1520 H1490 0.950 . S
C1520 C1519 1.524 . S
C1520 C1521 1.415 . S
C1521 H1491 0.950 . S
C1521 C1516 1.363 . S
C1521 C1520 1.415 . S
H1522 C1519 0.999 . S
H1523 C1504 0.913 . S
H1524 C1542 0.951 . S
H1525 C1544 0.951 . S
H1526 C1546 0.950 . S
H1527 C1547 0.950 . S
H1528 C1549 0.950 . S
H1529 C1552 0.950 . S
H1530 C1553 0.950 . S
H1531 C1555 0.950 . S
H1532 C1556 0.950 . S
H1533 C1557 0.951 . S
H1534 C1559 0.951 . S
H1535 C1561 0.950 . S
H1536 C1562 0.950 . S
H1537 C1564 0.950 . S
H1538 C1567 0.950 . S
H1539 C1568 0.950 . S
H1540 C1570 0.950 . S
H1541 C1571 0.950 . S
C1542 H1524 0.951 . S
C1542 C1543 1.366 . S
C1542 C1544 1.388 . S
C1543 C1542 1.366 . S
C1543 C1547 1.385 . S
C1544 H1525 0.951 . S
C1544 C1542 1.388 . S
C1544 C1545 1.366 . S
C1545 C1544 1.366 . S
C1545 C1546 1.414 . S
C1545 C1548 1.499 . S
C1546 H1526 0.950 . S
C1546 C1545 1.414 . S
C1546 C1547 1.374 . S
C1547 H1527 0.950 . S
C1547 C1543 1.385 . S
C1547 C1546 1.374 . S
C1548 C1545 1.499 . S
C1548 C1549 1.373 . S
C1548 C1550 1.389 . S
C1549 H1528 0.950 . S
C1549 C1548 1.373 . S
C1549 C1565 1.377 . S
C1550 C1548 1.389 . S
C1550 C1551 1.524 . S
C1550 C1564 1.377 . S
C1551 C1550 1.524 . S
C1551 C1552 1.397 . S
C1551 C1556 1.363 . S
C1552 H1529 0.950 . S
C1552 C1551 1.397 . S
C1552 C1553 1.334 . S
C1553 H1530 0.950 . S
C1553 C1552 1.334 . S
C1553 C1554 1.287 . S
C1554 C1553 1.287 . S
C1554 C1555 1.524 . S
C1554 H1573 0.913 . S
C1555 H1531 0.950 . S
C1555 C1554 1.524 . S
C1555 C1556 1.415 . S
C1556 H1532 0.950 . S
C1556 C1551 1.363 . S
C1556 C1555 1.415 . S
C1557 H1533 0.951 . S
C1557 C1558 1.366 . S
C1557 C1559 1.388 . S
C1558 C1557 1.366 . S
C1558 C1562 1.385 . S
C1559 H1534 0.951 . S
C1559 C1557 1.388 . S
C1559 C1560 1.366 . S
C1560 C1559 1.366 . S
C1560 C1561 1.414 . S
C1560 C1563 1.499 . S
C1561 H1535 0.950 . S
C1561 C1560 1.414 . S
C1561 C1562 1.374 . S
C1562 H1536 0.950 . S
C1562 C1558 1.385 . S
C1562 C1561 1.374 . S
C1563 C1560 1.499 . S
C1563 C1564 1.373 . S
C1563 C1565 1.389 . S
C1564 H1537 0.950 . S
C1564 C1550 1.377 . S
C1564 C1563 1.373 . S
C1565 C1549 1.377 . S
C1565 C1563 1.389 . S
C1565 C1566 1.524 . S
C1566 C1565 1.524 . S
C1566 C1567 1.397 . S
C1566 C1571 1.363 . S
C1567 H1538 0.950 . S
C1567 C1566 1.397 . S
C1567 C1568 1.334 . S
C1568 H1539 0.950 . S
C1568 C1567 1.334 . S
C1568 C1569 1.287 . S
C1569 C1568 1.287 . S
C1569 C1570 1.524 . S
C1569 H1572 0.999 . S
C1570 H1540 0.950 . S
C1570 C1569 1.524 . S
C1570 C1571 1.415 . S
C1571 H1541 0.950 . S
C1571 C1566 1.363 . S
C1571 C1570 1.415 . S
H1572 C1569 0.999 . S
H1573 C1554 0.913 . S
H1574 C1592 0.951 . S
H1575 C1594 0.951 . S
H1576 C1596 0.950 . S
H1577 C1597 0.950 . S
H1578 C1599 0.950 . S
H1579 C1602 0.950 1_545 S
H1580 C1603 0.950 . S
H1581 C1605 0.950 . S
H1582 C1606 0.950 . S
H1583 C1607 0.951 . S
H1584 C1609 0.951 . S
H1585 C1611 0.950 . S
H1586 C1612 0.950 . S
H1587 C1614 0.950 . S
H1588 C1617 0.970 . S
H1589 C1618 0.950 1_565 S
H1590 C1620 0.950 . S
H1591 C1621 0.950 . S
C1592 H1574 0.951 . S
C1592 C1593 1.366 . S
C1592 C1594 1.388 . S
C1593 C1592 1.366 . S
C1593 C1597 1.385 . S
C1594 H1575 0.951 . S
C1594 C1592 1.388 . S
C1594 C1595 1.366 . S
C1595 C1594 1.366 . S
C1595 C1596 1.414 . S
C1595 C1598 1.499 . S
C1596 H1576 0.950 . S
C1596 C1595 1.414 . S
C1596 C1597 1.374 . S
C1597 H1577 0.950 . S
C1597 C1593 1.385 . S
C1597 C1596 1.374 . S
C1598 C1595 1.499 . S
C1598 C1599 1.373 . S
C1598 C1600 1.389 1_545 S
C1599 H1578 0.950 . S
C1599 C1598 1.373 . S
C1599 C1615 1.377 . S
C1600 C1598 1.389 1_565 S
C1600 C1601 1.524 . S
C1600 C1614 1.377 . S
C1601 C1600 1.524 . S
C1601 C1602 1.397 . S
C1601 C1606 1.363 . S
C1602 H1579 0.950 1_565 S
C1602 C1601 1.397 . S
C1602 C1603 1.334 . S
C1603 H1580 0.950 . S
C1603 C1602 1.334 . S
C1603 C1604 1.287 . S
C1604 C1603 1.287 . S
C1604 C1605 1.524 . S
C1604 H1623 0.913 . S
C1605 H1581 0.950 . S
C1605 C1604 1.524 . S
C1605 C1606 1.415 . S
C1606 H1582 0.950 . S
C1606 C1601 1.363 . S
C1606 C1605 1.415 . S
C1607 H1583 0.951 . S
C1607 C1608 1.366 . S
C1607 C1609 1.388 . S
C1608 C1607 1.366 . S
C1608 C1612 1.385 . S
C1609 H1584 0.951 . S
C1609 C1607 1.388 . S
C1609 C1610 1.366 . S
C1610 C1609 1.366 . S
C1610 C1611 1.414 . S
C1610 C1613 1.499 . S
C1611 H1585 0.950 . S
C1611 C1610 1.414 . S
C1611 C1612 1.374 . S
C1612 H1586 0.950 . S
C1612 C1608 1.385 . S
C1612 C1611 1.374 . S
C1613 C1610 1.499 . S
C1613 C1614 1.373 . S
C1613 C1615 1.389 1_565 S
C1614 H1587 0.950 . S
C1614 C1600 1.377 . S
C1614 C1613 1.373 . S
C1615 C1599 1.377 . S
C1615 C1613 1.389 1_545 S
C1615 C1616 1.525 . S
C1616 C1615 1.525 . S
C1616 C1617 1.387 1_545 S
C1616 C1621 1.363 . S
C1617 H1588 0.970 . S
C1617 C1616 1.387 1_565 S
C1617 C1618 1.326 1_565 S
C1618 H1589 0.950 1_545 S
C1618 C1617 1.326 1_545 S
C1618 C1619 1.287 . S
C1619 C1618 1.287 . S
C1619 C1620 1.524 . S
C1619 H1622 0.999 . S
C1620 H1590 0.950 . S
C1620 C1619 1.524 . S
C1620 C1621 1.415 . S
C1621 H1591 0.950 . S
C1621 C1616 1.363 . S
C1621 C1620 1.415 . S
H1622 C1619 0.999 . S
H1623 C1604 0.913 . S
H1624 C1642 0.951 . S
H1625 C1644 0.951 . S
H1626 C1646 0.950 . S
H1627 C1647 0.950 . S
H1628 C1649 0.950 . S
H1629 C1652 0.950 . S
H1630 C1653 0.950 . S
H1631 C1655 0.950 . S
H1632 C1656 0.950 . S
H1633 C1657 0.951 . S
H1634 C1659 0.951 . S
H1635 C1661 0.950 . S
H1636 C1662 0.950 . S
H1637 C1664 0.950 . S
H1638 C1667 0.950 . S
H1639 C1668 0.950 . S
H1640 C1670 0.950 . S
H1641 C1671 0.950 . S
C1642 H1624 0.951 . S
C1642 C1643 1.366 . S
C1642 C1644 1.388 . S
C1643 C1642 1.366 . S
C1643 C1647 1.385 . S
C1644 H1625 0.951 . S
C1644 C1642 1.388 . S
C1644 C1645 1.366 . S
C1645 C1644 1.366 . S
C1645 C1646 1.414 . S
C1645 C1648 1.499 . S
C1646 H1626 0.950 . S
C1646 C1645 1.414 . S
C1646 C1647 1.374 . S
C1647 H1627 0.950 . S
C1647 C1643 1.385 . S
C1647 C1646 1.374 . S
C1648 C1645 1.499 . S
C1648 C1649 1.373 . S
C1648 C1650 1.389 . S
C1649 H1628 0.950 . S
C1649 C1648 1.373 . S
C1649 C1665 1.377 . S
C1650 C1648 1.389 . S
C1650 C1651 1.524 . S
C1650 C1664 1.377 . S
C1651 C1650 1.524 . S
C1651 C1652 1.397 . S
C1651 C1656 1.363 . S
C1652 H1629 0.950 . S
C1652 C1651 1.397 . S
C1652 C1653 1.334 . S
C1653 H1630 0.950 . S
C1653 C1652 1.334 . S
C1653 C1654 1.287 . S
C1654 C1653 1.287 . S
C1654 C1655 1.524 . S
C1654 H1673 0.913 . S
C1655 H1631 0.950 . S
C1655 C1654 1.524 . S
C1655 C1656 1.415 . S
C1656 H1632 0.950 . S
C1656 C1651 1.363 . S
C1656 C1655 1.415 . S
C1657 H1633 0.951 . S
C1657 C1658 1.366 . S
C1657 C1659 1.388 . S
C1658 C1657 1.366 . S
C1658 C1662 1.385 . S
C1659 H1634 0.951 . S
C1659 C1657 1.388 . S
C1659 C1660 1.366 . S
C1660 C1659 1.366 . S
C1660 C1661 1.414 . S
C1660 C1663 1.499 . S
C1661 H1635 0.950 . S
C1661 C1660 1.414 . S
C1661 C1662 1.374 . S
C1662 H1636 0.950 . S
C1662 C1658 1.385 . S
C1662 C1661 1.374 . S
C1663 C1660 1.499 . S
C1663 C1664 1.373 . S
C1663 C1665 1.389 . S
C1664 H1637 0.950 . S
C1664 C1650 1.377 . S
C1664 C1663 1.373 . S
C1665 C1649 1.377 . S
C1665 C1663 1.389 . S
C1665 C1666 1.524 . S
C1666 C1665 1.524 . S
C1666 C1667 1.397 . S
C1666 C1671 1.363 . S
C1667 H1638 0.950 . S
C1667 C1666 1.397 . S
C1667 C1668 1.334 . S
C1668 H1639 0.950 . S
C1668 C1667 1.334 . S
C1668 C1669 1.287 . S
C1669 C1668 1.287 . S
C1669 C1670 1.524 . S
C1669 H1672 0.999 . S
C1670 H1640 0.950 . S
C1670 C1669 1.524 . S
C1670 C1671 1.415 . S
C1671 H1641 0.950 . S
C1671 C1666 1.363 . S
C1671 C1670 1.415 . S
H1672 C1669 0.999 . S
H1673 C1654 0.913 . S
H1674 C1692 0.951 . S
H1675 C1694 0.951 . S
H1676 C1696 0.950 . S
H1677 C1697 0.950 . S
H1678 C1699 0.950 . S
H1679 C1702 0.950 . S
H1680 C1703 0.950 . S
H1681 C1705 0.950 . S
H1682 C1706 0.950 . S
H1683 C1707 0.951 . S
H1684 C1709 0.951 . S
H1685 C1711 0.950 . S
H1686 C1712 0.950 . S
H1687 C1714 0.950 . S
H1688 C1717 0.950 . S
H1689 C1718 0.950 . S
H1690 C1720 0.950 . S
H1691 C1721 0.950 . S
C1692 H1674 0.951 . S
C1692 C1693 1.366 . S
C1692 C1694 1.388 . S
C1693 C1692 1.366 . S
C1693 C1697 1.385 . S
C1694 H1675 0.951 . S
C1694 C1692 1.388 . S
C1694 C1695 1.366 . S
C1695 C1694 1.366 . S
C1695 C1696 1.414 . S
C1695 C1698 1.499 . S
C1696 H1676 0.950 . S
C1696 C1695 1.414 . S
C1696 C1697 1.374 . S
C1697 H1677 0.950 . S
C1697 C1693 1.385 . S
C1697 C1696 1.374 . S
C1698 C1695 1.499 . S
C1698 C1699 1.373 . S
C1698 C1700 1.389 . S
C1699 H1678 0.950 . S
C1699 C1698 1.373 . S
C1699 C1715 1.377 . S
C1700 C1698 1.389 . S
C1700 C1701 1.524 . S
C1700 C1714 1.377 . S
C1701 C1700 1.524 . S
C1701 C1702 1.397 . S
C1701 C1706 1.363 . S
C1702 H1679 0.950 . S
C1702 C1701 1.397 . S
C1702 C1703 1.334 . S
C1703 H1680 0.950 . S
C1703 C1702 1.334 . S
C1703 C1704 1.287 . S
C1704 C1703 1.287 . S
C1704 C1705 1.524 . S
C1704 H1723 0.913 . S
C1705 H1681 0.950 . S
C1705 C1704 1.524 . S
C1705 C1706 1.415 . S
C1706 H1682 0.950 . S
C1706 C1701 1.363 . S
C1706 C1705 1.415 . S
C1707 H1683 0.951 . S
C1707 C1708 1.366 . S
C1707 C1709 1.388 . S
C1708 C1707 1.366 . S
C1708 C1712 1.385 . S
C1709 H1684 0.951 . S
C1709 C1707 1.388 . S
C1709 C1710 1.366 . S
C1710 C1709 1.366 . S
C1710 C1711 1.414 . S
C1710 C1713 1.499 . S
C1711 H1685 0.950 . S
C1711 C1710 1.414 . S
C1711 C1712 1.374 . S
C1712 H1686 0.950 . S
C1712 C1708 1.385 . S
C1712 C1711 1.374 . S
C1713 C1710 1.499 . S
C1713 C1714 1.373 . S
C1713 C1715 1.389 . S
C1714 H1687 0.950 . S
C1714 C1700 1.377 . S
C1714 C1713 1.373 . S
C1715 C1699 1.377 . S
C1715 C1713 1.389 . S
C1715 C1716 1.524 . S
C1716 C1715 1.524 . S
C1716 C1717 1.397 . S
C1716 C1721 1.363 . S
C1717 H1688 0.950 . S
C1717 C1716 1.397 . S
C1717 C1718 1.334 . S
C1718 H1689 0.950 . S
C1718 C1717 1.334 . S
C1718 C1719 1.287 . S
C1719 C1718 1.287 . S
C1719 C1720 1.524 . S
C1719 H1722 0.999 . S
C1720 H1690 0.950 . S
C1720 C1719 1.524 . S
C1720 C1721 1.415 . S
C1721 H1691 0.950 . S
C1721 C1716 1.363 . S
C1721 C1720 1.415 . S
H1722 C1719 0.999 . S
H1723 C1704 0.913 . S
H1724 C1742 0.951 . S
H1725 C1744 0.951 . S
H1726 C1746 0.950 . S
H1727 C1747 0.950 . S
H1728 C1749 0.950 . S
H1729 C1752 0.950 . S
H1730 C1753 0.950 . S
H1731 C1755 0.950 . S
H1732 C1756 0.950 . S
H1733 C1757 0.951 . S
H1734 C1759 0.951 . S
H1735 C1761 0.950 . S
H1736 C1762 0.950 . S
H1737 C1764 0.950 . S
H1738 C1767 0.950 . S
H1739 C1768 0.950 . S
H1740 C1770 0.950 . S
H1741 C1771 0.950 . S
C1742 H1724 0.951 . S
C1742 C1743 1.366 . S
C1742 C1744 1.388 . S
C1743 C1742 1.366 . S
C1743 C1747 1.385 . S
C1744 H1725 0.951 . S
C1744 C1742 1.388 . S
C1744 C1745 1.366 . S
C1745 C1744 1.366 . S
C1745 C1746 1.414 . S
C1745 C1748 1.499 . S
C1746 H1726 0.950 . S
C1746 C1745 1.414 . S
C1746 C1747 1.374 . S
C1747 H1727 0.950 . S
C1747 C1743 1.385 . S
C1747 C1746 1.374 . S
C1748 C1745 1.499 . S
C1748 C1749 1.373 . S
C1748 C1750 1.389 . S
C1749 H1728 0.950 . S
C1749 C1748 1.373 . S
C1749 C1765 1.377 1_545 S
C1750 C1748 1.389 . S
C1750 C1751 1.524 . S
C1750 C1764 1.377 . S
C1751 C1750 1.524 . S
C1751 C1752 1.397 . S
C1751 C1756 1.363 . S
C1752 H1729 0.950 . S
C1752 C1751 1.397 . S
C1752 C1753 1.334 . S
C1753 H1730 0.950 . S
C1753 C1752 1.334 . S
C1753 C1754 1.287 . S
C1754 C1753 1.287 . S
C1754 C1755 1.524 . S
C1754 H1773 0.913 . S
C1755 H1731 0.950 . S
C1755 C1754 1.524 . S
C1755 C1756 1.415 . S
C1756 H1732 0.950 . S
C1756 C1751 1.363 . S
C1756 C1755 1.415 . S
C1757 H1733 0.951 . S
C1757 C1758 1.366 . S
C1757 C1759 1.388 . S
C1758 C1757 1.366 . S
C1758 C1762 1.385 . S
C1759 H1734 0.951 . S
C1759 C1757 1.388 . S
C1759 C1760 1.366 . S
C1760 C1759 1.366 . S
C1760 C1761 1.414 . S
C1760 C1763 1.499 . S
C1761 H1735 0.950 . S
C1761 C1760 1.414 . S
C1761 C1762 1.374 . S
C1762 H1736 0.950 . S
C1762 C1758 1.385 . S
C1762 C1761 1.374 . S
C1763 C1760 1.499 . S
C1763 C1764 1.373 1_565 S
C1763 C1765 1.389 . S
C1764 H1737 0.950 . S
C1764 C1750 1.377 . S
C1764 C1763 1.373 1_545 S
C1765 C1749 1.377 1_565 S
C1765 C1763 1.389 . S
C1765 C1766 1.524 . S
C1766 C1765 1.524 . S
C1766 C1767 1.397 . S
C1766 C1771 1.363 . S
C1767 H1738 0.950 . S
C1767 C1766 1.397 . S
C1767 C1768 1.334 . S
C1768 H1739 0.950 . S
C1768 C1767 1.334 . S
C1768 C1769 1.287 . S
C1769 C1768 1.287 . S
C1769 C1770 1.524 . S
C1769 H1772 0.999 . S
C1770 H1740 0.950 . S
C1770 C1769 1.524 . S
C1770 C1771 1.415 . S
C1771 H1741 0.950 . S
C1771 C1766 1.363 . S
C1771 C1770 1.415 . S
H1772 C1769 0.999 . S
H1773 C1754 0.913 . S
H1774 C1792 0.951 . S
H1775 C1794 0.951 . S
H1776 C1796 0.950 . S
H1777 C1797 0.950 . S
H1778 C1799 0.950 . S
H1779 C1802 0.950 . S
H1780 C1803 0.950 . S
H1781 C1805 0.950 . S
H1782 C1806 0.950 . S
H1783 C1807 0.951 . S
H1784 C1809 0.951 . S
H1785 C1811 0.950 . S
H1786 C1812 0.950 . S
H1787 C1814 0.950 . S
H1788 C1817 0.950 . S
H1789 C1818 0.950 . S
H1790 C1820 0.950 . S
H1791 C1821 0.950 . S
C1792 H1774 0.951 . S
C1792 C1793 1.366 . S
C1792 C1794 1.388 . S
C1793 C1792 1.366 . S
C1793 C1797 1.385 . S
C1794 H1775 0.951 . S
C1794 C1792 1.388 . S
C1794 C1795 1.366 . S
C1795 C1794 1.366 . S
C1795 C1796 1.414 . S
C1795 C1798 1.499 . S
C1796 H1776 0.950 . S
C1796 C1795 1.414 . S
C1796 C1797 1.374 . S
C1797 H1777 0.950 . S
C1797 C1793 1.385 . S
C1797 C1796 1.374 . S
C1798 C1795 1.499 . S
C1798 C1799 1.373 . S
C1798 C1800 1.389 . S
C1799 H1778 0.950 . S
C1799 C1798 1.373 . S
C1799 C1815 1.377 . S
C1800 C1798 1.389 . S
C1800 C1801 1.524 . S
C1800 C1814 1.377 . S
C1801 C1800 1.524 . S
C1801 C1802 1.397 . S
C1801 C1806 1.363 . S
C1802 H1779 0.950 . S
C1802 C1801 1.397 . S
C1802 C1803 1.334 . S
C1803 H1780 0.950 . S
C1803 C1802 1.334 . S
C1803 C1804 1.287 . S
C1804 C1803 1.287 . S
C1804 C1805 1.524 . S
C1804 H1823 0.913 . S
C1805 H1781 0.950 . S
C1805 C1804 1.524 . S
C1805 C1806 1.415 . S
C1806 H1782 0.950 . S
C1806 C1801 1.363 . S
C1806 C1805 1.415 . S
C1807 H1783 0.951 . S
C1807 C1808 1.366 . S
C1807 C1809 1.388 . S
C1808 C1807 1.366 . S
C1808 C1812 1.385 . S
C1809 H1784 0.951 . S
C1809 C1807 1.388 . S
C1809 C1810 1.366 . S
C1810 C1809 1.366 . S
C1810 C1811 1.414 . S
C1810 C1813 1.499 . S
C1811 H1785 0.950 . S
C1811 C1810 1.414 . S
C1811 C1812 1.374 . S
C1812 H1786 0.950 . S
C1812 C1808 1.385 . S
C1812 C1811 1.374 . S
C1813 C1810 1.499 . S
C1813 C1814 1.373 . S
C1813 C1815 1.389 . S
C1814 H1787 0.950 . S
C1814 C1800 1.377 . S
C1814 C1813 1.373 . S
C1815 C1799 1.377 . S
C1815 C1813 1.389 . S
C1815 C1816 1.524 . S
C1816 C1815 1.524 . S
C1816 C1817 1.397 . S
C1816 C1821 1.363 . S
C1817 H1788 0.950 . S
C1817 C1816 1.397 . S
C1817 C1818 1.334 . S
C1818 H1789 0.950 . S
C1818 C1817 1.334 . S
C1818 C1819 1.287 . S
C1819 C1818 1.287 . S
C1819 C1820 1.524 . S
C1819 H1822 0.999 . S
C1820 H1790 0.950 . S
C1820 C1819 1.524 . S
C1820 C1821 1.415 . S
C1821 H1791 0.950 . S
C1821 C1816 1.363 . S
C1821 C1820 1.415 . S
H1822 C1819 0.999 . S
H1823 C1804 0.913 . S
C243 C8 1.304 . S
C258 C190 1.300 . S
C293 C22 1.092 . S
C308 C134 1.085 . S
C343 C204 0.906 . S
C358 C36 0.907 . S
C393 C50 0.858 . S
C408 C218 0.858 . S
C443 C64 1.092 . S
C458 C92 1.086 . S
C493 C148 1.304 . S
C508 C78 1.300 . S
C543 C162 0.906 . S
C558 C106 0.906 . S
C593 C120 0.857 . S
C608 C176 0.857 . S
C643 C41 1.665 . S
C658 C7 1.772 . S
C693 C21 1.536 . S
C708 C55 1.458 . S
C743 C175 1.466 . S
C758 C11 1.469 . S
C793 C25 1.454 . S
C808 C161 1.450 . S
C843 C67 1.454 . S
C858 C35 1.450 . S
C893 C151 1.468 . S
C908 C49 1.465 . S
C943 C27 1.558 . S
C958 C13 1.563 . S
C993 C53 1.449 . S
C1008 C39 1.448 . S
C1043 C153 1.563 . S
C1058 C69 1.558 . S
C1093 C105 1.478 . S
C1108 C83 1.352 . S
C1143 C97 1.373 . S
C1158 C125 1.371 . S
C1193 C221 1.578 . S
C1208 C81 1.578 . S
C1243 C95 1.669 . S
C1258 C209 1.546 . S
C1293 C137 1.668 . S
C1308 C111 1.546 . S
C1343 C123 1.577 . S
C1358 C193 1.579 . S
C1393 C91 1.835 . S
C1408 C77 1.835 . S
C1443 C119 1.298 . S
C1458 C109 1.301 . S
C1493 C133 1.835 . S
C1508 C189 1.835 . S
C1543 C147 1.772 . S
C1558 C167 1.667 . S
C1593 C181 1.458 . S
C1608 C63 1.536 . S
C1643 C179 1.449 . S
C1658 C165 1.448 . S
C1693 C203 1.478 . S
C1708 C195 1.352 . S
C1743 C139 1.374 . S
C1758 C223 1.370 . S
C1793 C217 1.298 . S
C1808 C207 1.300 . S
