# Generated by pormake.
# Topology ttw, (5)-cn, num edge types: 1
# Building blocks:
#     Node 0, Type 0, BuildingBlock: BEQFEK_clean_sbu_0, # of connection points: 5
#     Node 1, Type 0, BuildingBlock: BEQFEK_clean_sbu_0, # of connection points: 5
#     Node 2, Type 0, BuildingBlock: BEQFEK_clean_sbu_0, # of connection points: 5
#     Node 3, Type 0, BuildingBlock: BEQFEK_clean_sbu_0, # of connection points: 5
#     Node 4, Type 0, BuildingBlock: BEQFEK_clean_sbu_0, # of connection points: 5
#     Node 5, Type 0, BuildingBlock: BEQFEK_clean_sbu_0, # of connection points: 5
#     Edge 6, Type (0, 0), BuildingBlock: OJICUG_clean_linker_0, # of connection points: 2
#     Edge 7, Type (0, 0), BuildingBlock: OJICUG_clean_linker_0, # of connection points: 2
#     Edge 8, Type (0, 0), BuildingBlock: OJICUG_clean_linker_0, # of connection points: 2
#     Edge 9, Type (0, 0), BuildingBlock: OJICUG_clean_linker_0, # of connection points: 2
#     Edge 10, Type (0, 0), BuildingBlock: OJICUG_clean_linker_0, # of connection points: 2
#     Edge 11, Type (0, 0), BuildingBlock: OJICUG_clean_linker_0, # of connection points: 2
#     Edge 12, Type (0, 0), BuildingBlock: OJICUG_clean_linker_0, # of connection points: 2
#     Edge 13, Type (0, 0), BuildingBlock: OJICUG_clean_linker_0, # of connection points: 2
#     Edge 14, Type (0, 0), BuildingBlock: OJICUG_clean_linker_0, # of connection points: 2
#     Edge 15, Type (0, 0), BuildingBlock: OJICUG_clean_linker_0, # of connection points: 2
#     Edge 16, Type (0, 0), BuildingBlock: OJICUG_clean_linker_0, # of connection points: 2
#     Edge 17, Type (0, 0), BuildingBlock: OJICUG_clean_linker_0, # of connection points: 2
#     Edge 18, Type (0, 0), BuildingBlock: OJICUG_clean_linker_0, # of connection points: 2
#     Edge 19, Type (0, 0), BuildingBlock: OJICUG_clean_linker_0, # of connection points: 2
#     Edge 20, Type (0, 0), BuildingBlock: OJICUG_clean_linker_0, # of connection points: 2
# Relax obj value: 0.095
# Max RMSD: 0.173
# Mean RMSD: 0.161
data_MOF--net-ttw--node1-BEQFEK_clean_sbu_0--edge1-OJICUG_clean_linker_0
_symmetry_space_group_name_H-M    P1
_symmetry_Int_Tables_number       1
_symmetry_cell_setting            triclinic
loop_
_symmetry_equiv_pos_as_xyz
'x, y, z'
_cell_length_a     41.45798
_cell_length_b     43.105168
_cell_length_c     15.544668
_cell_angle_alpha  91.150704
_cell_angle_beta   90.07165
_cell_angle_gamma 125.50633
loop_
_atom_site_label
_atom_site_type_symbol
_atom_site_fract_x
_atom_site_fract_y
_atom_site_fract_z
_atom_type_partial_charge
Co0 Co 0.18381 0.52329 -0.0012 0.0
Co1 Co 0.1816 0.52657 0.19942 0.0
C2 C 0.24354 0.52389 0.10856 0.0
O3 O 0.22837 0.52143 0.03514 0.0
O4 O 0.22819 0.52566 0.17778 0.0
C5 C 0.17749 0.49554 0.81985 0.0
O6 O 0.18021 0.4685 0.84729 0.0
C7 C 0.17749 0.51024 0.38617 0.0
C8 C 0.15168 0.54 0.43342 0.0
C9 C 0.16535 0.51908 0.46038 0.0
N10 N 0.17099 0.52521 0.31879 0.0
N11 N 0.15548 0.54281 0.34774 0.0
C12 C 0.19662 0.48967 0.3798 0.0
H13 H 0.21294 0.49598 0.3191 0.0
H14 H 0.17331 0.45852 0.38085 0.0
H15 H 0.2172 0.49767 0.43515 0.0
C16 C 0.0988 0.46263 0.02238 0.0
N17 N 0.13602 0.48696 0.05357 0.0
N18 N 0.13536 0.48743 0.13815 0.0
C19 C 0.09768 0.46284 0.16346 0.0
C20 C 0.0732 0.44659 0.09115 0.0
C21 C 0.08762 0.45979 0.92946 0.0
H22 H 0.10203 0.48881 0.90397 0.0
H23 H 0.09863 0.4455 0.89255 0.0
H24 H 0.05509 0.44339 0.91957 0.0
O25 O 0.19946 0.57537 0.02308 0.0
O26 O 0.19706 0.57741 0.165 0.0
H27 H 0.08572 0.48268 0.27768 0.0
H28 H 0.05384 0.43165 0.2612 0.0
C29 C 0.0846 0.45752 0.25493 0.0
H30 H 0.10468 0.45484 0.29599 0.0
H31 H 0.14783 0.55712 0.30882 0.0
O32 O 0.1778 0.51834 0.87331 0.0
C33 C 0.20365 0.59329 0.09282 0.0
Co34 Co 0.50927 0.17923 0.18153 0.0
Co35 Co 0.494 0.16675 0.97971 0.0
C36 C 0.49722 0.22937 0.0685 0.0
O37 O 0.50316 0.21918 0.13994 0.0
O38 O 0.49188 0.21088 -0.00135 0.0
C39 C 0.47473 0.16156 0.35128 0.0
O40 O 0.44119 0.14282 0.3072 0.0
C41 C 0.48113 0.16557 0.7902 0.0
C42 C 0.47879 0.11495 0.74894 0.0
C43 C 0.47725 0.14394 0.71813 0.0
N44 N 0.48426 0.14969 0.86068 0.0
N45 N 0.48338 0.11976 0.83502 0.0
C46 C 0.48249 0.201 0.79217 0.0
H47 H 0.46028 0.19768 0.83813 0.0
H48 H 0.4765 0.20728 0.72758 0.0
H49 H 0.51217 0.2253 0.81572 0.0
C50 C 0.4566 0.09595 0.16754 0.0
N51 N 0.47126 0.13022 0.13462 0.0
N52 N 0.45913 0.12587 0.05455 0.0
C53 C 0.43219 0.08844 0.03697 0.0
C54 C 0.43016 0.06739 0.10746 0.0
C55 C 0.47506 0.09217 0.24604 0.0
H56 H 0.50366 0.11964 0.26253 0.0
H57 H 0.45504 0.08404 0.30148 0.0
H58 H 0.48102 0.07044 0.23501 0.0
O59 O 0.56098 0.19332 0.14492 0.0
O60 O 0.55041 0.18543 0.00325 0.0
H61 H 0.41809 0.06485 0.90783 0.0
H62 H 0.37574 0.04992 0.97309 0.0
C63 C 0.40633 0.0743 0.95771 0.0
H64 H 0.40556 0.0975 0.93062 0.0
H65 H 0.48685 0.10306 0.87626 0.0
O66 O 0.50731 0.17939 0.311 0.0
C67 C 0.57305 0.19454 0.06897 0.0
Co68 Co 0.47678 0.65275 0.98978 0.0
Co69 Co 0.48916 0.65996 0.18929 0.0
C70 C 0.49222 0.7205 0.09839 0.0
O71 O 0.48547 0.70189 0.0277 0.0
O72 O 0.49576 0.70835 0.16934 0.0
C73 C 0.50094 0.67949 0.81565 0.0
O74 O 0.52445 0.71367 0.85133 0.0
C75 C 0.49952 0.67255 0.37902 0.0
C76 C 0.49679 0.6217 0.41501 0.0
C77 C 0.5 0.65329 0.44929 0.0
N78 N 0.49679 0.65334 0.30678 0.0
N79 N 0.49498 0.62295 0.32902 0.0
C80 C 0.49636 0.70541 0.38014 0.0
H81 H 0.47539 0.70113 0.32895 0.0
H82 H 0.52585 0.73194 0.36688 0.0
H83 H 0.48596 0.70868 0.44311 0.0
C84 C 0.53143 0.63027 0.00604 0.0
N85 N 0.51359 0.64572 0.0384 0.0
N86 N 0.52393 0.65538 0.11929 0.0
C87 C 0.5524 0.65063 0.13912 0.0
C88 C 0.55774 0.63316 0.0685 0.0
C89 C 0.51739 0.6075 0.92308 0.0
H90 H 0.48802 0.6004 0.90379 0.0
H91 H 0.53867 0.62441 0.87148 0.0
H92 H 0.51421 0.58029 0.9297 0.0
O93 O 0.42382 0.611 0.02269 0.0
O94 O 0.43191 0.61724 0.16449 0.0
H95 H 0.56458 0.64385 0.26912 0.0
H96 H 0.60781 0.67839 0.20903 0.0
C97 C 0.57628 0.66649 0.22104 0.0
H98 H 0.57443 0.68938 0.24853 0.0
H99 H 0.49125 0.60235 0.28535 0.0
O100 O 0.47891 0.65103 0.86287 0.0
C101 C 0.41005 0.60051 0.09768 0.0
Co102 Co 0.80334 0.36138 0.15715 0.0
Co103 Co 0.80703 0.36201 0.9568 0.0
C104 C 0.74011 0.29521 0.04681 0.0
O105 O 0.75546 0.31168 0.11943 0.0
O106 O 0.75704 0.31092 0.97639 0.0
C107 C 0.79656 0.33585 0.33237 0.0
O108 O 0.77971 0.30127 0.29976 0.0
C109 C 0.80283 0.34875 0.76784 0.0
C110 C 0.85319 0.40602 0.72892 0.0
C111 C 0.8234 0.37017 0.69663 0.0
N112 N 0.82035 0.37098 0.83879 0.0
N113 N 0.85019 0.40516 0.81489 0.0
C114 C 0.76472 0.30974 0.76876 0.0
H115 H 0.74439 0.30943 0.81546 0.0
H116 H 0.77076 0.2891 0.78984 0.0
H117 H 0.74985 0.30071 0.70467 0.0
C118 C 0.88262 0.37788 0.13931 0.0
N119 N 0.84877 0.37014 0.10533 0.0
N120 N 0.85015 0.36898 0.02092 0.0
C121 C 0.88487 0.37513 -0.0015 0.0
C122 C 0.90671 0.38137 0.07284 0.0
C123 C 0.89145 0.38165 0.23386 0.0
H124 H 0.86916 0.35427 0.26441 0.0
H125 H 0.92133 0.38877 0.24765 0.0
H126 H 0.88899 0.40393 0.26276 0.0
O127 O 0.79536 0.40091 0.13052 0.0
O128 O 0.79669 0.40031 0.98845 0.0
H129 H 0.91124 0.40651 0.88436 0.0
H130 H 0.92079 0.37168 0.90314 0.0
C131 C 0.89801 0.37738 0.90777 0.0
H132 H 0.87242 0.35649 0.86581 0.0
H133 H 0.8681 0.42814 0.85748 0.0
O134 O 0.80845 0.36347 0.28278 0.0
C135 C 0.79251 0.41294 0.05903 0.0
Co136 Co 0.37501 0.81779 0.20489 0.0
Co137 Co 0.37984 0.82188 0.00501 0.0
C138 C 0.43395 0.81169 0.10018 0.0
O139 O 0.41815 0.81206 0.17045 0.0
O140 O 0.42302 0.81656 0.02804 0.0
C141 C 0.40476 0.84081 0.38151 0.0
O142 O 0.44065 0.85957 0.35015 0.0
C143 C 0.39375 0.83136 0.81636 0.0
C144 C 0.3445 0.83482 0.77838 0.0
C145 C 0.37579 0.83522 0.7458 0.0
N146 N 0.37402 0.82918 0.88726 0.0
N147 N 0.34471 0.83129 0.86391 0.0
C148 C 0.42664 0.82646 0.81634 0.0
H149 H 0.42018 0.80434 0.86254 0.0
H150 H 0.45453 0.8537 0.83761 0.0
H151 H 0.43074 0.8181 0.75157 0.0
C152 C 0.37843 0.88809 0.18177 0.0
N153 N 0.37939 0.85906 0.1522 0.0
N154 N 0.38711 0.86311 0.06996 0.0
C155 C 0.39506 0.89657 0.04549 0.0
C156 C 0.38864 0.91351 0.11493 0.0
C157 C 0.36453 0.88892 0.27005 0.0
H158 H 0.34523 0.85964 0.29486 0.0
H159 H 0.39052 0.90607 0.31422 0.0
H160 H 0.34755 0.90147 0.26931 0.0
O161 O 0.32447 0.77032 0.17365 0.0
O162 O 0.32898 0.77207 0.03174 0.0
H163 H 0.39064 0.90724 0.91331 0.0
H164 H 0.43557 0.9451 0.96809 0.0
C165 C 0.41382 0.91373 0.96103 0.0
H166 H 0.42944 0.90156 0.93615 0.0
H167 H 0.32451 0.82988 0.90661 0.0
O168 O 0.37491 0.82269 0.33084 0.0
C169 C 0.31041 0.75518 0.09979 0.0
Co170 Co 0.62915 0.45932 0.15755 0.0
Co171 Co 0.63004 0.45909 0.95768 0.0
C172 C 0.69535 0.46646 0.05238 0.0
O173 O 0.67868 0.46475 0.12289 0.0
O174 O 0.68021 0.46538 0.98007 0.0
C175 C 0.64609 0.45743 0.33435 0.0
O176 O 0.65969 0.43845 0.30433 0.0
C177 C 0.6433 0.46709 0.77018 0.0
C178 C 0.58658 0.45571 0.72557 0.0
C179 C 0.62229 0.4639 0.69687 0.0
N180 N 0.62077 0.46078 0.83889 0.0
N181 N 0.58698 0.45403 0.81173 0.0
C182 C 0.68472 0.47798 0.7759 0.0
H183 H 0.70048 0.49767 0.83191 0.0
H184 H 0.70138 0.49202 0.71662 0.0
H185 H 0.68369 0.452 0.78573 0.0
C186 C 0.61359 0.51707 0.12814 0.0
N187 N 0.62239 0.49318 0.09999 0.0
N188 N 0.62893 0.49718 0.01736 0.0
C189 C 0.62841 0.52644 0.99091 0.0
C190 C 0.61776 0.54006 0.06009 0.0
C191 C 0.59643 0.51346 0.21528 0.0
H192 H 0.5835 0.48463 0.24035 0.0
H193 H 0.6202 0.5347 0.26066 0.0
H194 H 0.57264 0.51788 0.21241 0.0
O195 O 0.58427 0.40661 0.13439 0.0
O196 O 0.58599 0.406 0.99198 0.0
H197 H 0.61559 0.52974 0.85928 0.0
H198 H 0.65747 0.57409 0.90595 0.0
C199 C 0.64168 0.54268 0.90325 0.0
H200 H 0.66197 0.5361 0.87677 0.0
H201 H 0.5641 0.44814 0.85226 0.0
O202 O 0.6322 0.46935 0.28225 0.0
C203 C 0.57094 0.38894 0.06237 0.0
C204 C 0.01575 0.44827 0.1244 0.0
C205 C 0.03027 0.42861 0.0885 0.0
H206 H 0.96499 0.44854 0.14644 0.0
C207 C 0.00395 0.39284 0.04815 0.0
H208 H 0.03572 0.47618 0.15469 0.0
C209 C 0.96339 0.37689 0.04401 0.0
C210 C 0.94902 0.39683 0.07927 0.0
H211 H 0.01478 0.37739 0.01997 0.0
H212 H 0.94331 0.3491 0.01332 0.0
C213 C 0.97546 0.43254 0.11964 0.0
C214 C 0.40151 0.97229 0.19202 0.0
C215 C 0.39273 0.95041 0.11599 0.0
H216 H 0.41288 0.02268 0.25075 0.0
C217 C 0.38933 0.96502 0.03926 0.0
H218 H 0.40443 0.96282 0.25329 0.0
C219 C 0.40062 0.0024 0.0361 0.0
C220 C 0.41182 0.02536 0.11128 0.0
H221 H 0.37932 0.9483 0.98007 0.0
H222 H 0.40165 0.01284 0.97342 0.0
C223 C 0.40851 0.00816 0.19001 0.0
C224 C 0.60882 0.58667 0.13743 0.0
C225 C 0.60899 0.56932 0.06015 0.0
H226 H 0.58909 0.61564 0.20361 0.0
C227 C 0.59859 0.57897 0.98421 0.0
H228 H 0.61976 0.58328 0.19688 0.0
C229 C 0.58687 0.60353 0.98655 0.0
C230 C 0.58017 0.61546 0.06527 0.0
H231 H 0.59792 0.56692 0.92239 0.0
H232 H 0.58179 0.61172 0.92582 0.0
C233 C 0.59264 0.60744 0.1407 0.0
C234 C 0.16493 0.47901 0.57756 0.0
C235 C 0.16907 0.5122 0.55146 0.0
H236 H 0.16454 0.44758 0.68354 0.0
C237 C 0.17575 0.53929 0.61412 0.0
H238 H 0.1584 0.45695 0.53128 0.0
C239 C 0.17853 0.53364 0.7007 0.0
C240 C 0.1747 0.5007 0.72721 0.0
H241 H 0.17911 0.56518 0.59628 0.0
H242 H 0.18385 0.55537 0.74687 0.0
C243 C 0.168 0.47342 0.66486 0.0
C244 C 0.44258 0.12614 0.48592 0.0
C245 C 0.4744 0.15869 0.4462 0.0
H246 H 0.419 0.0959 0.60341 0.0
C247 C 0.50621 0.18753 0.49773 0.0
H248 H 0.41781 0.10331 0.44791 0.0
C249 C 0.50627 0.18368 0.58713 0.0
C250 C 0.47501 0.15056 0.62607 0.0
H251 H 0.5311 0.21293 0.46886 0.0
H252 H 0.53139 0.20592 0.62543 0.0
C253 C 0.44321 0.12186 0.57477 0.0
C254 C 0.47734 0.63638 0.68559 0.0
C255 C 0.50045 0.67355 0.72144 0.0
H256 H 0.45909 0.60116 0.57177 0.0
C257 C 0.52321 0.70445 0.6666 0.0
H258 H 0.45955 0.61189 0.72584 0.0
C259 C 0.52288 0.69819 0.57771 0.0
C260 C 0.49972 0.66097 0.54231 0.0
H261 H 0.54151 0.73341 0.69232 0.0
H262 H 0.5414 0.72238 0.53712 0.0
C263 C 0.47713 0.63019 0.59722 0.0
C264 C 0.80199 0.32374 0.57179 0.0
C265 C 0.81487 0.35995 0.60422 0.0
H266 H 0.78574 0.28741 0.45967 0.0
C267 C 0.82162 0.38778 0.54687 0.0
H268 H 0.79783 0.30215 0.61437 0.0
C269 C 0.81539 0.37965 0.45895 0.0
C270 C 0.80229 0.34345 0.42609 0.0
H271 H 0.83167 0.41597 0.57002 0.0
H272 H 0.82088 0.40189 0.41677 0.0
C273 C 0.79546 0.31544 0.48329 0.0
C274 C 0.35945 0.81841 0.50633 0.0
C275 C 0.39832 0.83972 0.47523 0.0
H276 H 0.32223 0.80014 0.61599 0.0
C277 C 0.43026 0.85945 0.53434 0.0
H278 H 0.33411 0.80282 0.46279 0.0
C279 C 0.4233 0.85782 0.62288 0.0
C280 C 0.38433 0.83631 0.65338 0.0
H281 H 0.46054 0.87633 0.51229 0.0
H282 H 0.44829 0.87397 0.66713 0.0
C283 C 0.35258 0.81685 0.59423 0.0
C284 C 0.65649 0.44702 0.48695 0.0
C285 C 0.64379 0.46226 0.42793 0.0
H286 H 0.65925 0.43517 0.61879 0.0
C287 C 0.62672 0.48042 0.45898 0.0
H288 H 0.66961 0.43273 0.46498 0.0
C289 C 0.62109 0.48202 0.54689 0.0
C290 C 0.63281 0.46593 0.60563 0.0
H291 H 0.61668 0.49254 0.41528 0.0
H292 H 0.6069 0.4953 0.56889 0.0
C293 C 0.65095 0.44876 0.57512 0.0
C294 C 0.30207 0.53315 0.03554 0.0
C295 C 0.28386 0.53286 0.11198 0.0
H296 H 0.35643 0.55441 0.97135 0.0
C297 C 0.30703 0.54831 0.18791 0.0
H298 H 0.28505 0.52097 0.97616 0.0
C299 C 0.3482 0.56772 0.18508 0.0
C300 C 0.3668 0.5719 0.10634 0.0
H301 H 0.29391 0.54826 0.24819 0.0
H302 H 0.36555 0.5819 0.24323 0.0
C303 C 0.34311 0.55249 0.03274 0.0
C304 C 0.63978 0.21843 0.12877 0.0
C305 C 0.6156 0.21157 0.05708 0.0
H306 H 0.69858 0.24958 0.18099 0.0
C307 C 0.63342 0.22595 0.97709 0.0
H308 H 0.62697 0.20707 0.19093 0.0
C309 C 0.67471 0.25042 0.97131 0.0
C310 C 0.6987 0.26083 0.04546 0.0
H311 H 0.61558 0.22081 0.92037 0.0
H312 H 0.68748 0.2636 0.91043 0.0
C313 C 0.68091 0.24275 0.12298 0.0
C314 C 0.48336 0.76621 0.17794 0.0
C315 C 0.48869 0.75286 0.09969 0.0
H316 H 0.46224 0.79588 0.23975 0.0
C317 C 0.48389 0.7662 0.02231 0.0
H318 H 0.48728 0.75697 0.23887 0.0
C319 C 0.46977 0.7888 0.02285 0.0
C320 C 0.45983 0.79828 0.10075 0.0
H321 H 0.48836 0.75701 0.96087 0.0
H322 H 0.46378 0.79625 0.96171 0.0
C323 C 0.46894 0.78859 0.17846 0.0
C324 C 0.76673 0.44607 0.13461 0.0
C325 C 0.77725 0.43666 0.05753 0.0
H326 H 0.73298 0.46356 0.1936 0.0
C327 C 0.76709 0.44471 0.9789 0.0
H328 H 0.77453 0.44077 0.19641 0.0
C329 C 0.7432 0.45784 0.97728 0.0
C330 C 0.72898 0.46313 0.05427 0.0
H331 H 0.77514 0.4383 0.91827 0.0
H332 H 0.73361 0.46115 0.91544 0.0
C333 C 0.74283 0.45917 0.133 0.0
C334 C 0.23027 0.65572 0.16817 0.0
C335 C 0.22247 0.6348 0.09101 0.0
H336 H 0.26374 0.71049 0.23125 0.0
C337 C 0.23801 0.6546 0.01403 0.0
H338 H 0.21829 0.64141 0.22844 0.0
C339 C 0.26423 0.69435 0.01562 0.0
C340 C 0.27532 0.71499 0.09421 0.0
H341 H 0.2322 0.63938 0.95321 0.0
H342 H 0.27787 0.70857 0.95608 0.0
C343 C 0.2564 0.69542 0.16974 0.0
C344 C 0.51074 0.2882 0.14123 0.0
C345 C 0.50475 0.26741 0.06478 0.0
H346 H 0.5357 0.34295 0.20038 0.0
C347 C 0.51337 0.286 0.9859 0.0
H348 H 0.50389 0.27469 0.20304 0.0
C349 C 0.53196 0.32538 0.98433 0.0
C350 C 0.54204 0.34684 0.06158 0.0
H351 H 0.50882 0.27083 0.92564 0.0
H352 H 0.54098 0.33929 0.92293 0.0
C353 C 0.52909 0.32747 0.13964 0.0
loop_
_geom_bond_atom_site_label_1
_geom_bond_atom_site_label_2
_geom_bond_distance
_geom_bond_site_symmetry_2
_ccdc_geom_bond_type
Co0 O3 1.970 1_556 S
Co0 N17 1.989 1_556 S
Co0 O25 1.967 1_556 S
Co0 O32 1.920 . S
Co1 O4 1.966 . S
Co1 N10 2.022 . S
Co1 N18 1.993 . S
Co1 O26 1.941 . S
C2 O3 1.258 . S
C2 O4 1.263 . S
O3 Co0 1.970 1_554 S
O3 C2 1.258 . S
O4 Co1 1.966 . S
O4 C2 1.263 . S
C5 O6 1.235 . S
C5 O32 1.289 . S
O6 C5 1.235 . S
C7 C9 1.400 . S
C7 N10 1.351 . S
C7 C12 1.501 . S
C8 C9 1.387 . S
C8 N11 1.341 . S
C9 C7 1.400 . S
C9 C8 1.387 . S
N10 Co1 2.022 . S
N10 C7 1.351 . S
N10 N11 1.365 . S
N11 C8 1.341 . S
N11 N10 1.365 . S
N11 H31 0.862 . S
C12 C7 1.501 . S
C12 H13 0.961 . S
C12 H14 0.961 . S
C12 H15 0.960 . S
H13 C12 0.961 . S
H14 C12 0.961 . S
H15 C12 0.960 . S
C16 N17 1.342 . S
C16 C20 1.401 . S
C16 C21 1.499 1_554 S
N17 Co0 1.989 1_554 S
N17 C16 1.342 . S
N17 N18 1.388 . S
N18 Co1 1.993 . S
N18 N17 1.388 . S
N18 C19 1.346 . S
C19 N18 1.346 . S
C19 C20 1.396 . S
C19 C29 1.510 . S
C20 C16 1.401 . S
C20 C19 1.396 . S
C21 C16 1.499 1_556 S
C21 H22 0.959 . S
C21 H23 0.960 . S
C21 H24 0.961 . S
H22 C21 0.959 . S
H23 C21 0.960 . S
H24 C21 0.961 . S
O25 Co0 1.967 1_554 S
O25 C33 1.258 . S
O26 Co1 1.941 . S
O26 C33 1.266 . S
H27 C29 0.959 . S
H28 C29 0.961 . S
C29 C19 1.510 . S
C29 H27 0.959 . S
C29 H28 0.961 . S
C29 H30 0.960 . S
H30 C29 0.960 . S
H31 N11 0.862 . S
O32 Co0 1.920 . S
O32 C5 1.289 . S
C33 O25 1.258 . S
C33 O26 1.266 . S
Co34 O37 1.970 . S
Co34 N51 1.989 . S
Co34 O59 1.967 . S
Co34 O66 1.920 . S
Co35 O38 1.966 1_556 S
Co35 N44 2.022 . S
Co35 N52 1.993 1_556 S
Co35 O60 1.941 1_556 S
C36 O37 1.258 . S
C36 O38 1.263 . S
O37 Co34 1.970 . S
O37 C36 1.258 . S
O38 Co35 1.966 1_554 S
O38 C36 1.263 . S
C39 O40 1.235 . S
C39 O66 1.289 . S
O40 C39 1.235 . S
C41 C43 1.400 . S
C41 N44 1.351 . S
C41 C46 1.501 . S
C42 C43 1.387 . S
C42 N45 1.341 . S
C43 C41 1.400 . S
C43 C42 1.387 . S
N44 Co35 2.022 . S
N44 C41 1.351 . S
N44 N45 1.365 . S
N45 C42 1.341 . S
N45 N44 1.365 . S
N45 H65 0.862 . S
C46 C41 1.501 . S
C46 H47 0.961 . S
C46 H48 0.961 . S
C46 H49 0.960 . S
H47 C46 0.961 . S
H48 C46 0.961 . S
H49 C46 0.960 . S
C50 N51 1.342 . S
C50 C54 1.401 . S
C50 C55 1.499 . S
N51 Co34 1.989 . S
N51 C50 1.342 . S
N51 N52 1.388 . S
N52 Co35 1.993 1_554 S
N52 N51 1.388 . S
N52 C53 1.346 . S
C53 N52 1.346 . S
C53 C54 1.396 . S
C53 C63 1.510 1_554 S
C54 C50 1.401 . S
C54 C53 1.396 . S
C55 C50 1.499 . S
C55 H56 0.959 . S
C55 H57 0.960 . S
C55 H58 0.961 . S
H56 C55 0.959 . S
H57 C55 0.960 . S
H58 C55 0.961 . S
O59 Co34 1.967 . S
O59 C67 1.258 . S
O60 Co35 1.941 1_554 S
O60 C67 1.266 . S
H61 C63 0.959 . S
H62 C63 0.961 . S
C63 C53 1.510 1_556 S
C63 H61 0.959 . S
C63 H62 0.961 . S
C63 H64 0.960 . S
H64 C63 0.960 . S
H65 N45 0.862 . S
O66 Co34 1.920 . S
O66 C39 1.289 . S
C67 O59 1.258 . S
C67 O60 1.266 . S
Co68 O71 1.970 1_556 S
Co68 N85 1.989 1_556 S
Co68 O93 1.967 1_556 S
Co68 O100 1.920 . S
Co69 O72 1.966 . S
Co69 N78 2.022 . S
Co69 N86 1.993 . S
Co69 O94 1.941 . S
C70 O71 1.258 . S
C70 O72 1.263 . S
O71 Co68 1.970 1_554 S
O71 C70 1.258 . S
O72 Co69 1.966 . S
O72 C70 1.263 . S
C73 O74 1.235 . S
C73 O100 1.289 . S
O74 C73 1.235 . S
C75 C77 1.400 . S
C75 N78 1.351 . S
C75 C80 1.501 . S
C76 C77 1.387 . S
C76 N79 1.341 . S
C77 C75 1.400 . S
C77 C76 1.387 . S
N78 Co69 2.022 . S
N78 C75 1.351 . S
N78 N79 1.365 . S
N79 C76 1.341 . S
N79 N78 1.365 . S
N79 H99 0.862 . S
C80 C75 1.501 . S
C80 H81 0.961 . S
C80 H82 0.961 . S
C80 H83 0.960 . S
H81 C80 0.961 . S
H82 C80 0.961 . S
H83 C80 0.960 . S
C84 N85 1.342 . S
C84 C88 1.401 . S
C84 C89 1.499 1_554 S
N85 Co68 1.989 1_554 S
N85 C84 1.342 . S
N85 N86 1.388 . S
N86 Co69 1.993 . S
N86 N85 1.388 . S
N86 C87 1.346 . S
C87 N86 1.346 . S
C87 C88 1.396 . S
C87 C97 1.510 . S
C88 C84 1.401 . S
C88 C87 1.396 . S
C89 C84 1.499 1_556 S
C89 H90 0.959 . S
C89 H91 0.960 . S
C89 H92 0.961 . S
H90 C89 0.959 . S
H91 C89 0.960 . S
H92 C89 0.961 . S
O93 Co68 1.967 1_554 S
O93 C101 1.258 . S
O94 Co69 1.941 . S
O94 C101 1.266 . S
H95 C97 0.959 . S
H96 C97 0.961 . S
C97 C87 1.510 . S
C97 H95 0.959 . S
C97 H96 0.961 . S
C97 H98 0.960 . S
H98 C97 0.960 . S
H99 N79 0.862 . S
O100 Co68 1.920 . S
O100 C73 1.289 . S
C101 O93 1.258 . S
C101 O94 1.266 . S
Co102 O105 1.970 . S
Co102 N119 1.989 . S
Co102 O127 1.967 . S
Co102 O134 1.920 . S
Co103 O106 1.966 1_556 S
Co103 N112 2.022 . S
Co103 N120 1.993 1_556 S
Co103 O128 1.941 1_556 S
C104 O105 1.258 . S
C104 O106 1.263 . S
O105 Co102 1.970 . S
O105 C104 1.258 . S
O106 Co103 1.966 1_554 S
O106 C104 1.263 . S
C107 O108 1.235 . S
C107 O134 1.289 . S
O108 C107 1.235 . S
C109 C111 1.400 . S
C109 N112 1.351 . S
C109 C114 1.501 . S
C110 C111 1.387 . S
C110 N113 1.341 . S
C111 C109 1.400 . S
C111 C110 1.387 . S
N112 Co103 2.022 . S
N112 C109 1.351 . S
N112 N113 1.365 . S
N113 C110 1.341 . S
N113 N112 1.365 . S
N113 H133 0.862 . S
C114 C109 1.501 . S
C114 H115 0.961 . S
C114 H116 0.961 . S
C114 H117 0.960 . S
H115 C114 0.961 . S
H116 C114 0.961 . S
H117 C114 0.960 . S
C118 N119 1.342 . S
C118 C122 1.401 . S
C118 C123 1.499 . S
N119 Co102 1.989 . S
N119 C118 1.342 . S
N119 N120 1.388 . S
N120 Co103 1.993 1_554 S
N120 N119 1.388 . S
N120 C121 1.346 . S
C121 N120 1.346 . S
C121 C122 1.396 . S
C121 C131 1.510 1_554 S
C122 C118 1.401 . S
C122 C121 1.396 . S
C123 C118 1.499 . S
C123 H124 0.959 . S
C123 H125 0.960 . S
C123 H126 0.961 . S
H124 C123 0.959 . S
H125 C123 0.960 . S
H126 C123 0.961 . S
O127 Co102 1.967 . S
O127 C135 1.258 . S
O128 Co103 1.941 1_554 S
O128 C135 1.266 . S
H129 C131 0.959 . S
H130 C131 0.961 . S
C131 C121 1.510 1_556 S
C131 H129 0.959 . S
C131 H130 0.961 . S
C131 H132 0.960 . S
H132 C131 0.960 . S
H133 N113 0.862 . S
O134 Co102 1.920 . S
O134 C107 1.289 . S
C135 O127 1.258 . S
C135 O128 1.266 . S
Co136 O139 1.970 . S
Co136 N153 1.989 . S
Co136 O161 1.967 . S
Co136 O168 1.920 . S
Co137 O140 1.966 . S
Co137 N146 2.022 . S
Co137 N154 1.993 1_556 S
Co137 O162 1.941 . S
C138 O139 1.258 . S
C138 O140 1.263 1_554 S
O139 Co136 1.970 . S
O139 C138 1.258 . S
O140 Co137 1.966 . S
O140 C138 1.263 1_556 S
C141 O142 1.235 . S
C141 O168 1.289 . S
O142 C141 1.235 . S
C143 C145 1.400 . S
C143 N146 1.351 . S
C143 C148 1.501 . S
C144 C145 1.387 . S
C144 N147 1.341 . S
C145 C143 1.400 . S
C145 C144 1.387 . S
N146 Co137 2.022 . S
N146 C143 1.351 . S
N146 N147 1.365 . S
N147 C144 1.341 . S
N147 N146 1.365 . S
N147 H167 0.862 . S
C148 C143 1.501 . S
C148 H149 0.961 . S
C148 H150 0.961 . S
C148 H151 0.960 . S
H149 C148 0.961 . S
H150 C148 0.961 . S
H151 C148 0.960 . S
C152 N153 1.342 . S
C152 C156 1.401 . S
C152 C157 1.499 . S
N153 Co136 1.989 . S
N153 C152 1.342 . S
N153 N154 1.388 . S
N154 Co137 1.993 1_554 S
N154 N153 1.388 . S
N154 C155 1.346 1_554 S
C155 N154 1.346 1_556 S
C155 C156 1.396 1_556 S
C155 C165 1.510 . S
C156 C152 1.401 . S
C156 C155 1.396 1_554 S
C157 C152 1.499 . S
C157 H158 0.959 . S
C157 H159 0.960 . S
C157 H160 0.961 . S
H158 C157 0.959 . S
H159 C157 0.960 . S
H160 C157 0.961 . S
O161 Co136 1.967 . S
O161 C169 1.258 . S
O162 Co137 1.941 . S
O162 C169 1.266 1_556 S
H163 C165 0.959 . S
H164 C165 0.961 . S
C165 C155 1.510 . S
C165 H163 0.959 . S
C165 H164 0.961 . S
C165 H166 0.960 . S
H166 C165 0.960 . S
H167 N147 0.862 . S
O168 Co136 1.920 . S
O168 C141 1.289 . S
C169 O161 1.258 . S
C169 O162 1.266 1_554 S
Co170 O173 1.970 . S
Co170 N187 1.989 . S
Co170 O195 1.967 . S
Co170 O202 1.920 . S
Co171 O174 1.966 1_556 S
Co171 N180 2.022 . S
Co171 N188 1.993 1_556 S
Co171 O196 1.941 1_556 S
C172 O173 1.258 . S
C172 O174 1.263 . S
O173 Co170 1.970 . S
O173 C172 1.258 . S
O174 Co171 1.966 1_554 S
O174 C172 1.263 . S
C175 O176 1.235 . S
C175 O202 1.289 . S
O176 C175 1.235 . S
C177 C179 1.400 . S
C177 N180 1.351 . S
C177 C182 1.501 . S
C178 C179 1.387 . S
C178 N181 1.341 . S
C179 C177 1.400 . S
C179 C178 1.387 . S
N180 Co171 2.022 . S
N180 C177 1.351 . S
N180 N181 1.365 . S
N181 C178 1.341 . S
N181 N180 1.365 . S
N181 H201 0.862 . S
C182 C177 1.501 . S
C182 H183 0.961 . S
C182 H184 0.961 . S
C182 H185 0.960 . S
H183 C182 0.961 . S
H184 C182 0.961 . S
H185 C182 0.960 . S
C186 N187 1.342 . S
C186 C190 1.401 . S
C186 C191 1.499 . S
N187 Co170 1.989 . S
N187 C186 1.342 . S
N187 N188 1.388 . S
N188 Co171 1.993 1_554 S
N188 N187 1.388 . S
N188 C189 1.346 . S
C189 N188 1.346 . S
C189 C190 1.396 . S
C189 C199 1.510 1_554 S
C190 C186 1.401 . S
C190 C189 1.396 . S
C191 C186 1.499 . S
C191 H192 0.959 . S
C191 H193 0.960 . S
C191 H194 0.961 . S
H192 C191 0.959 . S
H193 C191 0.960 . S
H194 C191 0.961 . S
O195 Co170 1.967 . S
O195 C203 1.258 . S
O196 Co171 1.941 1_554 S
O196 C203 1.266 . S
H197 C199 0.959 . S
H198 C199 0.961 . S
C199 C189 1.510 1_556 S
C199 H197 0.959 . S
C199 H198 0.961 . S
C199 H200 0.960 . S
H200 C199 0.960 . S
H201 N181 0.862 . S
O202 Co170 1.920 . S
O202 C175 1.289 . S
C203 O195 1.258 . S
C203 O196 1.266 . S
C204 C205 1.387 . S
C204 H208 0.950 . S
C204 C213 1.390 1_455 S
C205 C204 1.387 . S
C205 C207 1.387 . S
H206 C213 0.950 . S
C207 C205 1.387 . S
C207 C209 1.390 1_455 S
C207 H211 0.950 1_554 S
H208 C204 0.950 . S
C209 C207 1.390 1_655 S
C209 C210 1.387 . S
C209 H212 0.950 1_554 S
C210 C209 1.387 . S
C210 C213 1.387 . S
H211 C207 0.950 1_556 S
H212 C209 0.950 1_556 S
C213 C204 1.390 1_655 S
C213 H206 0.950 . S
C213 C210 1.387 . S
C214 C215 1.387 . S
C214 H218 0.950 . S
C214 C223 1.390 1_565 S
C215 C214 1.387 . S
C215 C217 1.387 1_554 S
H216 C223 0.950 . S
C217 C215 1.387 1_556 S
C217 C219 1.390 1_565 S
C217 H221 0.950 . S
H218 C214 0.950 . S
C219 C217 1.390 1_545 S
C219 C220 1.387 1_556 S
C219 H222 0.950 . S
C220 C219 1.387 1_554 S
C220 C223 1.387 . S
H221 C217 0.950 . S
H222 C219 0.950 . S
C223 C214 1.390 1_545 S
C223 H216 0.950 . S
C223 C220 1.387 . S
C224 C225 1.387 . S
C224 H228 0.950 . S
C224 C233 1.390 . S
C225 C224 1.387 . S
C225 C227 1.387 . S
H226 C233 0.950 . S
C227 C225 1.387 . S
C227 C229 1.390 . S
C227 H231 0.950 1_554 S
H228 C224 0.950 . S
C229 C227 1.390 . S
C229 C230 1.387 . S
C229 H232 0.950 1_554 S
C230 C229 1.387 . S
C230 C233 1.387 . S
H231 C227 0.950 1_556 S
H232 C229 0.950 1_556 S
C233 C224 1.390 . S
C233 H226 0.950 . S
C233 C230 1.387 . S
C234 C235 1.387 . S
C234 H238 0.950 . S
C234 C243 1.390 . S
C235 C234 1.387 . S
C235 C237 1.387 . S
H236 C243 0.950 . S
C237 C235 1.387 . S
C237 C239 1.390 . S
C237 H241 0.950 . S
H238 C234 0.950 . S
C239 C237 1.390 . S
C239 C240 1.387 . S
C239 H242 0.950 . S
C240 C239 1.387 . S
C240 C243 1.387 . S
H241 C237 0.950 . S
H242 C239 0.950 . S
C243 C234 1.390 . S
C243 H236 0.950 . S
C243 C240 1.387 . S
C244 C245 1.387 . S
C244 H248 0.950 . S
C244 C253 1.390 . S
C245 C244 1.387 . S
C245 C247 1.387 . S
H246 C253 0.950 . S
C247 C245 1.387 . S
C247 C249 1.390 . S
C247 H251 0.950 . S
H248 C244 0.950 . S
C249 C247 1.390 . S
C249 C250 1.387 . S
C249 H252 0.950 . S
C250 C249 1.387 . S
C250 C253 1.387 . S
H251 C247 0.950 . S
H252 C249 0.950 . S
C253 C244 1.390 . S
C253 H246 0.950 . S
C253 C250 1.387 . S
C254 C255 1.387 . S
C254 H258 0.950 . S
C254 C263 1.390 . S
C255 C254 1.387 . S
C255 C257 1.387 . S
H256 C263 0.950 . S
C257 C255 1.387 . S
C257 C259 1.390 . S
C257 H261 0.950 . S
H258 C254 0.950 . S
C259 C257 1.390 . S
C259 C260 1.387 . S
C259 H262 0.950 . S
C260 C259 1.387 . S
C260 C263 1.387 . S
H261 C257 0.950 . S
H262 C259 0.950 . S
C263 C254 1.390 . S
C263 H256 0.950 . S
C263 C260 1.387 . S
C264 C265 1.387 . S
C264 H268 0.950 . S
C264 C273 1.390 . S
C265 C264 1.387 . S
C265 C267 1.387 . S
H266 C273 0.950 . S
C267 C265 1.387 . S
C267 C269 1.390 . S
C267 H271 0.950 . S
H268 C264 0.950 . S
C269 C267 1.390 . S
C269 C270 1.387 . S
C269 H272 0.950 . S
C270 C269 1.387 . S
C270 C273 1.387 . S
H271 C267 0.950 . S
H272 C269 0.950 . S
C273 C264 1.390 . S
C273 H266 0.950 . S
C273 C270 1.387 . S
C274 C275 1.387 . S
C274 H278 0.950 . S
C274 C283 1.390 . S
C275 C274 1.387 . S
C275 C277 1.387 . S
H276 C283 0.950 . S
C277 C275 1.387 . S
C277 C279 1.390 . S
C277 H281 0.950 . S
H278 C274 0.950 . S
C279 C277 1.390 . S
C279 C280 1.387 . S
C279 H282 0.950 . S
C280 C279 1.387 . S
C280 C283 1.387 . S
H281 C277 0.950 . S
H282 C279 0.950 . S
C283 C274 1.390 . S
C283 H276 0.950 . S
C283 C280 1.387 . S
C284 C285 1.387 . S
C284 H288 0.950 . S
C284 C293 1.390 . S
C285 C284 1.387 . S
C285 C287 1.387 . S
H286 C293 0.950 . S
C287 C285 1.387 . S
C287 C289 1.390 . S
C287 H291 0.950 . S
H288 C284 0.950 . S
C289 C287 1.390 . S
C289 C290 1.387 . S
C289 H292 0.950 . S
C290 C289 1.387 . S
C290 C293 1.387 . S
H291 C287 0.950 . S
H292 C289 0.950 . S
C293 C284 1.390 . S
C293 H286 0.950 . S
C293 C290 1.387 . S
C294 C295 1.387 . S
C294 H298 0.950 1_554 S
C294 C303 1.390 . S
C295 C294 1.387 . S
C295 C297 1.387 . S
H296 C303 0.950 1_556 S
C297 C295 1.387 . S
C297 C299 1.390 . S
C297 H301 0.950 . S
H298 C294 0.950 1_556 S
C299 C297 1.390 . S
C299 C300 1.387 . S
C299 H302 0.950 . S
C300 C299 1.387 . S
C300 C303 1.387 . S
H301 C297 0.950 . S
H302 C299 0.950 . S
C303 C294 1.390 . S
C303 H296 0.950 1_554 S
C303 C300 1.387 . S
C304 C305 1.387 . S
C304 H308 0.950 . S
C304 C313 1.390 . S
C305 C304 1.387 . S
C305 C307 1.387 . S
H306 C313 0.950 . S
C307 C305 1.387 . S
C307 C309 1.390 . S
C307 H311 0.950 1_554 S
H308 C304 0.950 . S
C309 C307 1.390 . S
C309 C310 1.387 . S
C309 H312 0.950 1_554 S
C310 C309 1.387 . S
C310 C313 1.387 . S
H311 C307 0.950 1_556 S
H312 C309 0.950 1_556 S
C313 C304 1.390 . S
C313 H306 0.950 . S
C313 C310 1.387 . S
C314 C315 1.387 . S
C314 H318 0.950 . S
C314 C323 1.390 . S
C315 C314 1.387 . S
C315 C317 1.387 . S
H316 C323 0.950 . S
C317 C315 1.387 . S
C317 C319 1.390 . S
C317 H321 0.950 . S
H318 C314 0.950 . S
C319 C317 1.390 . S
C319 C320 1.387 . S
C319 H322 0.950 . S
C320 C319 1.387 . S
C320 C323 1.387 . S
H321 C317 0.950 . S
H322 C319 0.950 . S
C323 C314 1.390 . S
C323 H316 0.950 . S
C323 C320 1.387 . S
C324 C325 1.387 . S
C324 H328 0.950 . S
C324 C333 1.390 . S
C325 C324 1.387 . S
C325 C327 1.387 . S
H326 C333 0.950 . S
C327 C325 1.387 . S
C327 C329 1.390 . S
C327 H331 0.950 1_554 S
H328 C324 0.950 . S
C329 C327 1.390 . S
C329 C330 1.387 . S
C329 H332 0.950 1_554 S
C330 C329 1.387 . S
C330 C333 1.387 . S
H331 C327 0.950 1_556 S
H332 C329 0.950 1_556 S
C333 C324 1.390 . S
C333 H326 0.950 . S
C333 C330 1.387 . S
C334 C335 1.387 . S
C334 H338 0.950 . S
C334 C343 1.390 . S
C335 C334 1.387 . S
C335 C337 1.387 1_554 S
H336 C343 0.950 . S
C337 C335 1.387 1_556 S
C337 C339 1.390 . S
C337 H341 0.950 . S
H338 C334 0.950 . S
C339 C337 1.390 . S
C339 C340 1.387 1_556 S
C339 H342 0.950 . S
C340 C339 1.387 1_554 S
C340 C343 1.387 . S
H341 C337 0.950 . S
H342 C339 0.950 . S
C343 C334 1.390 . S
C343 H336 0.950 . S
C343 C340 1.387 . S
C344 C345 1.387 . S
C344 H348 0.950 . S
C344 C353 1.390 . S
C345 C344 1.387 . S
C345 C347 1.387 . S
H346 C353 0.950 . S
C347 C345 1.387 . S
C347 C349 1.390 . S
C347 H351 0.950 1_554 S
H348 C344 0.950 . S
C349 C347 1.390 . S
C349 C350 1.387 . S
C349 H352 0.950 1_554 S
C350 C349 1.387 . S
C350 C353 1.387 . S
H351 C347 0.950 1_556 S
H352 C349 0.950 1_556 S
C353 C344 1.390 . S
C353 H346 0.950 . S
C353 C350 1.387 . S
C205 C20 1.368 . S
C210 C122 1.367 . S
C215 C156 1.517 . S
C220 C54 1.492 . S
C225 C190 1.386 . S
C230 C88 1.385 . S
C235 C9 1.426 . S
C240 C5 1.507 . S
C245 C39 1.514 . S
C250 C43 1.402 . S
C255 C73 1.521 . S
C260 C77 1.393 . S
C265 C111 1.409 . S
C270 C107 1.516 . S
C275 C141 1.501 . S
C280 C145 1.405 . S
C285 C175 1.517 . S
C290 C179 1.410 . S
C295 C2 1.189 . S
C300 C101 1.212 . S
C305 C67 1.265 . S
C310 C104 1.228 . S
C315 C70 1.209 . S
C320 C138 1.231 . S
C325 C135 1.100 . S
C330 C172 1.090 . S
C335 C33 1.076 . S
C340 C169 1.057 . S
C345 C36 1.346 . S
C350 C203 1.439 . S
