# Generated by pormake.
# Topology uot, (4)-cn, num edge types: 1
# Building blocks:
#     Node 0, Type 0, BuildingBlock: NAHDIM_clean_sbu_0, # of connection points: 4
#     Node 1, Type 0, BuildingBlock: NAHDIM_clean_sbu_0, # of connection points: 4
#     Node 2, Type 0, BuildingBlock: NAHDIM_clean_sbu_0, # of connection points: 4
#     Node 3, Type 0, BuildingBlock: NAHDIM_clean_sbu_0, # of connection points: 4
#     Node 4, Type 0, BuildingBlock: NAHDIM_clean_sbu_0, # of connection points: 4
#     Node 5, Type 0, BuildingBlock: NAHDIM_clean_sbu_0, # of connection points: 4
#     Node 6, Type 0, BuildingBlock: NAHDIM_clean_sbu_0, # of connection points: 4
#     Node 7, Type 0, BuildingBlock: NAHDIM_clean_sbu_0, # of connection points: 4
#     Node 8, Type 0, BuildingBlock: NAHDIM_clean_sbu_0, # of connection points: 4
#     Node 9, Type 0, BuildingBlock: NAHDIM_clean_sbu_0, # of connection points: 4
#     Node 10, Type 0, BuildingBlock: NAHDIM_clean_sbu_0, # of connection points: 4
#     Node 11, Type 0, BuildingBlock: NAHDIM_clean_sbu_0, # of connection points: 4
#     Node 12, Type 0, BuildingBlock: NAHDIM_clean_sbu_0, # of connection points: 4
#     Node 13, Type 0, BuildingBlock: NAHDIM_clean_sbu_0, # of connection points: 4
#     Node 14, Type 0, BuildingBlock: NAHDIM_clean_sbu_0, # of connection points: 4
#     Node 15, Type 0, BuildingBlock: NAHDIM_clean_sbu_0, # of connection points: 4
#     Edge 16, Type (0, 0), BuildingBlock: EZIPEK_clean_linker_0, # of connection points: 2
#     Edge 17, Type (0, 0), BuildingBlock: EZIPEK_clean_linker_0, # of connection points: 2
#     Edge 18, Type (0, 0), BuildingBlock: EZIPEK_clean_linker_0, # of connection points: 2
#     Edge 19, Type (0, 0), BuildingBlock: EZIPEK_clean_linker_0, # of connection points: 2
#     Edge 20, Type (0, 0), BuildingBlock: EZIPEK_clean_linker_0, # of connection points: 2
#     Edge 21, Type (0, 0), BuildingBlock: EZIPEK_clean_linker_0, # of connection points: 2
#     Edge 22, Type (0, 0), BuildingBlock: EZIPEK_clean_linker_0, # of connection points: 2
#     Edge 23, Type (0, 0), BuildingBlock: EZIPEK_clean_linker_0, # of connection points: 2
#     Edge 24, Type (0, 0), BuildingBlock: EZIPEK_clean_linker_0, # of connection points: 2
#     Edge 25, Type (0, 0), BuildingBlock: EZIPEK_clean_linker_0, # of connection points: 2
#     Edge 26, Type (0, 0), BuildingBlock: EZIPEK_clean_linker_0, # of connection points: 2
#     Edge 27, Type (0, 0), BuildingBlock: EZIPEK_clean_linker_0, # of connection points: 2
#     Edge 28, Type (0, 0), BuildingBlock: EZIPEK_clean_linker_0, # of connection points: 2
#     Edge 29, Type (0, 0), BuildingBlock: EZIPEK_clean_linker_0, # of connection points: 2
#     Edge 30, Type (0, 0), BuildingBlock: EZIPEK_clean_linker_0, # of connection points: 2
#     Edge 31, Type (0, 0), BuildingBlock: EZIPEK_clean_linker_0, # of connection points: 2
#     Edge 32, Type (0, 0), BuildingBlock: EZIPEK_clean_linker_0, # of connection points: 2
#     Edge 33, Type (0, 0), BuildingBlock: EZIPEK_clean_linker_0, # of connection points: 2
#     Edge 34, Type (0, 0), BuildingBlock: EZIPEK_clean_linker_0, # of connection points: 2
#     Edge 35, Type (0, 0), BuildingBlock: EZIPEK_clean_linker_0, # of connection points: 2
#     Edge 36, Type (0, 0), BuildingBlock: EZIPEK_clean_linker_0, # of connection points: 2
#     Edge 37, Type (0, 0), BuildingBlock: EZIPEK_clean_linker_0, # of connection points: 2
#     Edge 38, Type (0, 0), BuildingBlock: EZIPEK_clean_linker_0, # of connection points: 2
#     Edge 39, Type (0, 0), BuildingBlock: EZIPEK_clean_linker_0, # of connection points: 2
#     Edge 40, Type (0, 0), BuildingBlock: EZIPEK_clean_linker_0, # of connection points: 2
#     Edge 41, Type (0, 0), BuildingBlock: EZIPEK_clean_linker_0, # of connection points: 2
#     Edge 42, Type (0, 0), BuildingBlock: EZIPEK_clean_linker_0, # of connection points: 2
#     Edge 43, Type (0, 0), BuildingBlock: EZIPEK_clean_linker_0, # of connection points: 2
#     Edge 44, Type (0, 0), BuildingBlock: EZIPEK_clean_linker_0, # of connection points: 2
#     Edge 45, Type (0, 0), BuildingBlock: EZIPEK_clean_linker_0, # of connection points: 2
#     Edge 46, Type (0, 0), BuildingBlock: EZIPEK_clean_linker_0, # of connection points: 2
#     Edge 47, Type (0, 0), BuildingBlock: EZIPEK_clean_linker_0, # of connection points: 2
# Relax obj value: 0.174
# Max RMSD: 0.208
# Mean RMSD: 0.208
data_MOF--net-uot--node1-NAHDIM_clean_sbu_0--edge1-EZIPEK_clean_linker_0
_symmetry_space_group_name_H-M    P1
_symmetry_Int_Tables_number       1
_symmetry_cell_setting            triclinic
loop_
_symmetry_equiv_pos_as_xyz
'x, y, z'
_cell_length_a     32.586774
_cell_length_b     32.598846
_cell_length_c     28.590304
_cell_angle_alpha  90.030119
_cell_angle_beta   89.920826
_cell_angle_gamma 90.087785
loop_
_atom_site_label
_atom_site_type_symbol
_atom_site_fract_x
_atom_site_fract_y
_atom_site_fract_z
_atom_type_partial_charge
C0 C 0.29655 0.42592 0.30771 0.0
O1 O 0.28065 0.42161 0.34962 0.0
O2 O 0.18159 0.43775 0.28452 0.0
Zn3 Zn 0.22772 0.47667 0.3012 0.0
O4 O 0.23138 0.48824 0.37087 0.0
C5 C 0.17889 0.54208 0.27621 0.0
O6 O 0.15583 0.5222 0.30628 0.0
O7 O 0.28022 0.4507 0.27899 0.0
C8 C 0.20216 0.48121 0.3992 0.0
O9 O 0.1676 0.46566 0.38399 0.0
C10 C 0.17387 0.40307 0.30276 0.0
O11 O 0.19671 0.3893 0.33711 0.0
O12 O 0.21477 0.52902 0.26731 0.0
C13 C 0.40309 0.7139 0.70875 0.0
O14 O 0.3844 0.74807 0.72027 0.0
O15 O 0.43123 0.81676 0.70007 0.0
Zn16 Zn 0.46658 0.76928 0.67982 0.0
O17 O 0.47443 0.77219 0.61025 0.0
C18 C 0.53937 0.80857 0.70187 0.0
O19 O 0.52468 0.83219 0.66877 0.0
O20 O 0.43982 0.71508 0.69396 0.0
C21 C 0.49912 0.74833 0.58931 0.0
O22 O 0.52121 0.72229 0.61364 0.0
C23 C 0.40563 0.8342 0.67318 0.0
O24 O 0.40043 0.82062 0.63034 0.0
O25 O 0.52018 0.77612 0.71308 0.0
C26 C 0.72743 0.59299 0.2783 0.0
O27 O 0.76122 0.60677 0.25876 0.0
O28 O 0.82838 0.57126 0.30698 0.0
Zn29 Zn 0.78117 0.53198 0.31769 0.0
O30 O 0.77634 0.51842 0.38612 0.0
C31 C 0.82817 0.46807 0.27914 0.0
O32 O 0.85681 0.48942 0.30036 0.0
O33 O 0.72807 0.55947 0.30088 0.0
C34 C 0.80662 0.5114 0.41279 0.0
O35 O 0.84406 0.51156 0.3959 0.0
C36 C 0.83479 0.60328 0.33131 0.0
O37 O 0.81008 0.61223 0.36616 0.0
O38 O 0.79121 0.48041 0.2805 0.0
C39 C 0.57896 0.29097 0.73755 0.0
O40 O 0.57586 0.26281 0.77019 0.0
O41 O 0.56738 0.1899 0.70985 0.0
Zn42 Zn 0.52919 0.23415 0.68791 0.0
O43 O 0.52133 0.22771 0.61849 0.0
C44 C 0.45965 0.19172 0.71908 0.0
O45 O 0.47585 0.16519 0.68991 0.0
O46 O 0.55817 0.28732 0.70022 0.0
C47 C 0.48815 0.23597 0.59736 0.0
O48 O 0.45656 0.25022 0.62077 0.0
C49 C 0.57403 0.15711 0.68712 0.0
O50 O 0.55636 0.15138 0.64637 0.0
O51 O 0.47611 0.22689 0.7237 0.0
C52 C 0.28263 0.58858 0.69198 0.0
O53 O 0.25622 0.60242 0.66114 0.0
O54 O 0.17944 0.5762 0.71198 0.0
Zn55 Zn 0.22056 0.53297 0.69282 0.0
O56 O 0.22348 0.52649 0.62238 0.0
C57 C 0.16831 0.46974 0.7265 0.0
O58 O 0.14094 0.49409 0.70774 0.0
O59 O 0.27524 0.55498 0.71286 0.0
C60 C 0.19959 0.50414 0.59827 0.0
O61 O 0.17051 0.48296 0.61887 0.0
C62 C 0.14808 0.58637 0.68838 0.0
O63 O 0.14112 0.56898 0.64774 0.0
O64 O 0.20614 0.47922 0.72469 0.0
C65 C 0.6039 0.71713 0.29525 0.0
O66 O 0.61722 0.74615 0.3233 0.0
O67 O 0.57878 0.81949 0.27891 0.0
Zn68 Zn 0.54161 0.77285 0.29719 0.0
O69 O 0.53558 0.77124 0.36713 0.0
C70 C 0.46962 0.81578 0.27935 0.0
O71 O 0.48637 0.83835 0.31224 0.0
O72 O 0.56851 0.72045 0.27713 0.0
C73 C 0.50603 0.75283 0.38708 0.0
O74 O 0.47778 0.73466 0.36168 0.0
C75 C 0.59144 0.84623 0.30786 0.0
O76 O 0.58066 0.84388 0.35205 0.0
O77 O 0.48722 0.78294 0.26638 0.0
C78 C 0.72159 0.39622 0.74137 0.0
O79 O 0.75187 0.38534 0.76891 0.0
O80 O 0.82746 0.40784 0.71786 0.0
Zn81 Zn 0.78343 0.44766 0.69937 0.0
O82 O 0.79024 0.45694 0.6304 0.0
C83 C 0.82755 0.51723 0.72393 0.0
O84 O 0.85116 0.50028 0.69213 0.0
O85 O 0.72739 0.42367 0.71057 0.0
C86 C 0.77594 0.48825 0.60983 0.0
O87 O 0.75543 0.51591 0.63366 0.0
C88 C 0.83493 0.37633 0.69315 0.0
O89 O 0.81293 0.36879 0.65569 0.0
O90 O 0.79361 0.50034 0.73445 0.0
C91 C 0.40968 0.2966 0.30323 0.0
O92 O 0.39866 0.2761 0.34068 0.0
O93 O 0.42112 0.185 0.28621 0.0
Zn94 Zn 0.46177 0.22971 0.30079 0.0
O95 O 0.47062 0.23471 0.37078 0.0
C96 C 0.54558 0.20122 0.28414 0.0
O97 O 0.55012 0.20434 0.32954 0.0
O98 O 0.43865 0.28313 0.2778 0.0
C99 C 0.47805 0.2051 0.39837 0.0
O100 O 0.48248 0.16788 0.38155 0.0
C101 C 0.39156 0.17234 0.31129 0.0
O102 O 0.38408 0.1891 0.35214 0.0
O103 O 0.51245 0.21297 0.26513 0.0
C104 C 0.79151 0.91842 0.80312 0.0
O105 O 0.76822 0.90545 0.83756 0.0
O106 O 0.68385 0.92067 0.77119 0.0
Zn107 Zn 0.72191 0.96475 0.79403 0.0
O108 O 0.71638 0.97025 0.86382 0.0
C109 C 0.6656 0.02269 0.76607 0.0
O110 O 0.64271 0.99513 0.78722 0.0
O111 O 0.77913 0.94759 0.7774 0.0
C112 C 0.72132 0.00433 0.88453 0.0
O113 O 0.73033 0.03738 0.86037 0.0
C114 C 0.66813 0.89348 0.79746 0.0
O115 O 0.67757 0.89214 0.84207 0.0
O116 O 0.70417 0.01734 0.76395 0.0
C117 C 0.92253 0.20052 0.18308 0.0
O118 O 0.91879 0.21784 0.14189 0.0
O119 O 0.93095 0.31543 0.21774 0.0
Zn120 Zn 0.96995 0.27152 0.19689 0.0
O121 O 0.9775 0.27677 0.12748 0.0
C122 C 0.0363 0.31897 0.22019 0.0
O123 O 0.01515 0.34259 0.1919 0.0
O124 O 0.94574 0.21673 0.21359 0.0
C125 C 0.00732 0.26002 0.1063 0.0
O126 O 0.03462 0.2389 0.1299 0.0
C127 C 0.8977 0.32396 0.19685 0.0
O128 O 0.88683 0.30343 0.15934 0.0
O129 O 0.0233 0.28305 0.229 0.0
C130 C 0.21007 0.0738 0.80924 0.0
O131 O 0.22662 0.08448 0.84927 0.0
O132 O 0.32453 0.07291 0.79279 0.0
Zn133 Zn 0.28274 0.02932 0.80889 0.0
O134 O 0.27769 0.02149 0.87855 0.0
C135 C 0.32051 0.97774 0.74102 0.0
O136 O 0.32641 0.01313 0.72015 0.0
O137 O 0.22806 0.04749 0.78372 0.0
C138 C 0.30788 0.0207 0.90654 0.0
O139 O 0.34545 0.02457 0.89041 0.0
C140 C 0.33159 0.10618 0.81453 0.0
O141 O 0.3107 0.11542 0.85236 0.0
O142 O 0.30111 0.97641 0.77954 0.0
C143 C 0.07583 0.79686 0.18531 0.0
O144 O 0.08495 0.77195 0.15077 0.0
O145 O 0.06495 0.69026 0.21792 0.0
Zn146 Zn 0.023 0.73209 0.19893 0.0
O147 O 0.01319 0.72676 0.12998 0.0
C148 C 0.9725 0.70343 0.27383 0.0
O149 O 0.00777 0.70287 0.29602 0.0
O150 O 0.0468 0.78759 0.21312 0.0
C151 C 0.97868 0.73344 0.11101 0.0
O152 O 0.94729 0.74497 0.13667 0.0
C153 C 0.08728 0.6709 0.189 0.0
O154 O 0.08394 0.67787 0.14394 0.0
O155 O 0.97075 0.71814 0.23279 0.0
C156 C 0.79151 0.08912 0.18375 0.0
O157 O 0.76442 0.10978 0.15936 0.0
O158 O 0.68797 0.08318 0.20328 0.0
Zn159 Zn 0.72534 0.03882 0.17939 0.0
O160 O 0.72418 0.03753 0.10904 0.0
C161 C 0.68743 0.98442 0.24462 0.0
O162 O 0.68381 0.01837 0.26897 0.0
O163 O 0.7824 0.05366 0.19887 0.0
C164 C 0.70846 0.00819 0.08592 0.0
O165 O 0.69096 0.97744 0.10793 0.0
C166 C 0.65234 0.08882 0.18671 0.0
O167 O 0.6392 0.06585 0.15206 0.0
O168 O 0.70631 0.98489 0.20573 0.0
C169 C 0.09026 0.19316 0.8027 0.0
O170 O 0.10915 0.21934 0.83018 0.0
O171 O 0.08085 0.29781 0.79314 0.0
Zn172 Zn 0.03737 0.25683 0.81124 0.0
O173 O 0.03459 0.25328 0.88121 0.0
C174 C 0.97892 0.28343 0.74255 0.0
O175 O 0.00932 0.27628 0.71347 0.0
O176 O 0.05482 0.20178 0.78725 0.0
C177 C 0.01116 0.276 0.9054 0.0
O178 O 0.98753 0.30306 0.88473 0.0
C179 C 0.07439 0.33597 0.79791 0.0
O180 O 0.03971 0.34851 0.81645 0.0
O181 O 0.98314 0.27547 0.78571 0.0
C182 C 0.20683 0.9107 0.18245 0.0
O183 O 0.23195 0.89684 0.15023 0.0
O184 O 0.31548 0.9247 0.21988 0.0
Zn185 Zn 0.27351 0.96408 0.19454 0.0
O186 O 0.28334 0.97068 0.12547 0.0
C187 C 0.3191 0.03128 0.22496 0.0
O188 O 0.34703 0.00971 0.20278 0.0
O189 O 0.21711 0.94158 0.20683 0.0
C190 C 0.27056 0.00171 0.10306 0.0
O191 O 0.24947 0.03023 0.12482 0.0
C192 C 0.33238 0.89758 0.19443 0.0
O193 O 0.32142 0.89349 0.15049 0.0
O194 O 0.28242 0.01815 0.22678 0.0
C195 C 0.90795 0.79431 0.80698 0.0
O196 O 0.89085 0.77087 0.83888 0.0
O197 O 0.91577 0.68681 0.79931 0.0
Zn198 Zn 0.9596 0.72919 0.81419 0.0
O199 O 0.9635 0.73636 0.88387 0.0
C200 C 0.01735 0.69133 0.75163 0.0
O201 O 0.98443 0.68577 0.72597 0.0
O202 O 0.94138 0.78312 0.78811 0.0
C203 C 0.96951 0.70675 0.91181 0.0
O204 O 0.97403 0.6694 0.89553 0.0
C205 C 0.92304 0.64854 0.7976 0.0
O206 O 0.95988 0.63495 0.80756 0.0
O207 O 0.01476 0.71204 0.78912 0.0
C208 C 0.3687 0.40381 0.31896 0.0
C209 C 0.33138 0.39957 0.29415 0.0
C210 C 0.35522 0.33468 0.26055 0.0
C211 C 0.38846 0.3353 0.29236 0.0
N212 N 0.42964 0.37051 0.34952 0.0
N213 N 0.28862 0.36234 0.23983 0.0
C214 C 0.39644 0.37029 0.32032 0.0
C215 C 0.3249 0.36591 0.26347 0.0
N216 N 0.37727 0.43999 0.3411 0.0
N217 N 0.35235 0.30371 0.22847 0.0
H218 H 0.26609 0.38499 0.24023 0.0
H219 H 0.27976 0.33618 0.22157 0.0
H220 H 0.37387 0.28012 0.22633 0.0
H221 H 0.33086 0.30308 0.20158 0.0
H222 H 0.40523 0.44655 0.357 0.0
H223 H 0.35735 0.46503 0.33996 0.0
H224 H 0.43477 0.39276 0.37497 0.0
H225 H 0.45163 0.34726 0.34926 0.0
C226 C 0.35882 0.66168 0.74805 0.0
C227 C 0.37926 0.67532 0.70709 0.0
C228 C 0.34658 0.62039 0.66216 0.0
C229 C 0.32047 0.61229 0.70063 0.0
N230 N 0.30019 0.62569 0.78039 0.0
N231 N 0.38971 0.67012 0.62333 0.0
C232 C 0.32659 0.63247 0.74402 0.0
C233 C 0.37306 0.65489 0.66371 0.0
N234 N 0.3705 0.67651 0.79073 0.0
N235 N 0.34579 0.59505 0.62407 0.0
H236 H 0.40825 0.69614 0.62202 0.0
H237 H 0.38223 0.65904 0.59024 0.0
H238 H 0.32674 0.56932 0.6223 0.0
H239 H 0.36683 0.59704 0.59669 0.0
H240 H 0.3594 0.66503 0.8223 0.0
H241 H 0.39434 0.69765 0.79466 0.0
H242 H 0.30006 0.64322 0.81085 0.0
H243 H 0.27658 0.60411 0.77907 0.0
C244 C 0.6416 0.65823 0.32904 0.0
C245 C 0.6291 0.67995 0.28872 0.0
C246 C 0.67363 0.63668 0.24039 0.0
C247 C 0.69123 0.6202 0.28166 0.0
N248 N 0.69646 0.62116 0.3663 0.0
N249 N 0.63491 0.69235 0.20575 0.0
C250 C 0.67616 0.63209 0.32636 0.0
C251 C 0.64512 0.66956 0.2441 0.0
N252 N 0.62022 0.66246 0.36994 0.0
N253 N 0.6837 0.62049 0.1978 0.0
H254 H 0.61393 0.71644 0.20697 0.0
H255 H 0.64934 0.68924 0.17342 0.0
H256 H 0.70417 0.59612 0.19405 0.0
H257 H 0.66897 0.62855 0.16684 0.0
H258 H 0.6256 0.64432 0.3993 0.0
H259 H 0.59421 0.68096 0.37281 0.0
H260 H 0.68904 0.63291 0.39914 0.0
H261 H 0.72332 0.60392 0.36656 0.0
C262 C 0.61708 0.35082 0.77204 0.0
C263 C 0.61452 0.31917 0.73812 0.0
C264 C 0.6797 0.34132 0.70357 0.0
C265 C 0.68397 0.37089 0.73969 0.0
N266 N 0.65967 0.40152 0.81123 0.0
N267 N 0.64747 0.27827 0.67836 0.0
C268 C 0.65351 0.37495 0.7749 0.0
C269 C 0.64681 0.31288 0.70552 0.0
N270 N 0.58424 0.35849 0.80052 0.0
N271 N 0.7071 0.34026 0.66731 0.0
H272 H 0.62475 0.25574 0.67949 0.0
H273 H 0.67255 0.26967 0.65801 0.0
H274 H 0.73296 0.35897 0.66551 0.0
H275 H 0.70253 0.32296 0.63711 0.0
H276 H 0.58236 0.38367 0.8228 0.0
H277 H 0.55731 0.34116 0.79938 0.0
H278 H 0.64091 0.4028 0.84069 0.0
H279 H 0.68519 0.42081 0.81328 0.0
C280 C 0.83089 0.86676 0.7568 0.0
C281 C 0.82993 0.89634 0.79321 0.0
C282 C 0.89031 0.86577 0.82967 0.0
C283 C 0.88881 0.83399 0.7959 0.0
N284 N 0.86694 0.80971 0.72055 0.0
N285 N 0.86404 0.93177 0.85572 0.0
C286 C 0.86239 0.83665 0.75681 0.0
C287 C 0.86177 0.89852 0.82668 0.0
N288 N 0.80004 0.86566 0.72446 0.0
N289 N 0.91785 0.86338 0.8656 0.0
H290 H 0.84335 0.95612 0.85351 0.0
H291 H 0.88793 0.93698 0.87909 0.0
H292 H 0.94046 0.84075 0.86703 0.0
H293 H 0.9178 0.88284 0.89444 0.0
H294 H 0.79594 0.84191 0.70058 0.0
H295 H 0.77719 0.88795 0.72269 0.0
H296 H 0.85088 0.81182 0.68921 0.0
H297 H 0.88956 0.78709 0.72033 0.0
C298 C 0.86508 0.10209 0.16454 0.0
C299 C 0.83112 0.1086 0.19453 0.0
C300 C 0.86282 0.17042 0.22656 0.0
C301 C 0.89584 0.16534 0.19458 0.0
N302 N 0.93466 0.12158 0.14332 0.0
N303 N 0.80258 0.14026 0.26307 0.0
C304 C 0.89907 0.12934 0.16703 0.0
C305 C 0.8319 0.1398 0.22885 0.0
N306 N 0.86374 0.07126 0.13216 0.0
N307 N 0.8592 0.2058 0.25196 0.0
H308 H 0.77953 0.11804 0.26508 0.0
H309 H 0.80333 0.16 0.2917 0.0
H310 H 0.88118 0.22902 0.25177 0.0
H311 H 0.83314 0.21342 0.27118 0.0
H312 H 0.88522 0.06776 0.10548 0.0
H313 H 0.83986 0.04992 0.1309 0.0
H314 H 0.94038 0.09443 0.12529 0.0
H315 H 0.96008 0.14102 0.14536 0.0
C316 C 0.13877 0.15162 0.75555 0.0
C317 C 0.11013 0.15363 0.79265 0.0
C318 C 0.13728 0.09015 0.82555 0.0
C319 C 0.17131 0.09356 0.79498 0.0
N320 N 0.20346 0.12422 0.72742 0.0
N321 N 0.078 0.12359 0.8602 0.0
C322 C 0.17122 0.12259 0.75797 0.0
C323 C 0.10752 0.12189 0.82625 0.0
N324 N 0.13517 0.17817 0.71882 0.0
N325 N 0.13407 0.05667 0.85406 0.0
H326 H 0.05479 0.14564 0.86003 0.0
H327 H 0.07707 0.10419 0.88908 0.0
H328 H 0.15559 0.03297 0.85334 0.0
H329 H 0.10872 0.05055 0.87513 0.0
H330 H 0.15311 0.17672 0.68873 0.0
H331 H 0.11152 0.19967 0.71692 0.0
H332 H 0.20797 0.14777 0.70341 0.0
H333 H 0.22673 0.10236 0.72694 0.0
C334 C 0.1358 0.89219 0.15747 0.0
C335 C 0.16775 0.88902 0.19086 0.0
C336 C 0.13332 0.83085 0.22831 0.0
C337 C 0.10239 0.8328 0.1935 0.0
N338 N 0.06782 0.87022 0.13291 0.0
N339 N 0.19283 0.86276 0.26424 0.0
C340 C 0.10157 0.86528 0.16068 0.0
C341 C 0.1649 0.86099 0.22864 0.0
N342 N 0.13899 0.92011 0.12196 0.0
N343 N 0.13403 0.79863 0.25893 0.0
H344 H 0.21707 0.88366 0.26478 0.0
H345 H 0.19026 0.84587 0.29498 0.0
H346 H 0.11082 0.77662 0.26061 0.0
H347 H 0.15853 0.79231 0.28108 0.0
H348 H 0.11941 0.92093 0.09326 0.0
H349 H 0.16248 0.94187 0.1204 0.0
H350 H 0.06355 0.89497 0.11049 0.0
H351 H 0.04218 0.8511 0.13544 0.0
C352 C 0.17106 0.61664 0.25673 0.0
C353 C 0.16032 0.57516 0.24825 0.0
C354 C 0.10306 0.59646 0.19863 0.0
C355 C 0.11427 0.63797 0.2062 0.0
N356 N 0.16272 0.68805 0.23444 0.0
N357 N 0.12286 0.52495 0.20339 0.0
C358 C 0.14955 0.64822 0.23279 0.0
C359 C 0.12843 0.5649 0.21665 0.0
N360 N 0.20049 0.62581 0.28915 0.0
N361 N 0.06706 0.58718 0.17642 0.0
H362 H 0.14111 0.50104 0.21582 0.0
H363 H 0.10285 0.51594 0.17694 0.0
H364 H 0.04762 0.60939 0.16244 0.0
H365 H 0.05479 0.5577 0.17492 0.0
H366 H 0.20648 0.65541 0.30099 0.0
H367 H 0.21746 0.60335 0.30645 0.0
H368 H 0.19033 0.69713 0.24953 0.0
H369 H 0.14755 0.71181 0.21722 0.0
C370 C 0.61429 0.81906 0.71646 0.0
C371 C 0.57309 0.82409 0.73123 0.0
C372 C 0.59455 0.87199 0.79246 0.0
C373 C 0.63593 0.86648 0.77826 0.0
N374 N 0.68653 0.82927 0.73386 0.0
N375 N 0.52413 0.84821 0.78825 0.0
C376 C 0.64622 0.83821 0.74239 0.0
C377 C 0.56334 0.84807 0.7711 0.0
N378 N 0.62264 0.797 0.6769 0.0
N379 N 0.58473 0.90199 0.82404 0.0
H380 H 0.50011 0.83209 0.77261 0.0
H381 H 0.51599 0.8615 0.82005 0.0
H382 H 0.60655 0.9204 0.84052 0.0
H383 H 0.55476 0.91094 0.83141 0.0
H384 H 0.6514 0.79606 0.66106 0.0
H385 H 0.60005 0.78118 0.65833 0.0
H386 H 0.69617 0.80627 0.71112 0.0
H387 H 0.71053 0.84261 0.75265 0.0
C388 C 0.88945 0.4 0.19833 0.0
C389 C 0.87466 0.36072 0.21137 0.0
C390 C 0.82526 0.39187 0.26529 0.0
C391 C 0.84002 0.43124 0.25215 0.0
N392 N 0.87797 0.47345 0.19805 0.0
N393 N 0.82299 0.31888 0.24818 0.0
C394 C 0.86965 0.43549 0.21609 0.0
C395 C 0.84054 0.35657 0.24174 0.0
N396 N 0.92311 0.40332 0.16994 0.0
N397 N 0.79872 0.38797 0.30212 0.0
H398 H 0.83394 0.29248 0.23176 0.0
H399 H 0.79565 0.31431 0.26634 0.0
H400 H 0.78691 0.41298 0.32041 0.0
H401 H 0.7906 0.35989 0.31681 0.0
H402 H 0.93861 0.4308 0.16406 0.0
H403 H 0.93704 0.37807 0.15409 0.0
H404 H 0.89639 0.47828 0.16878 0.0
H405 H 0.86322 0.5 0.20959 0.0
C406 C 0.43003 0.16688 0.79472 0.0
C407 C 0.42392 0.17902 0.74757 0.0
C408 C 0.35318 0.15357 0.75064 0.0
C409 C 0.36158 0.13551 0.79467 0.0
N410 N 0.40786 0.12331 0.85883 0.0
N411 N 0.38028 0.18445 0.67993 0.0
C412 C 0.39972 0.14233 0.81725 0.0
C413 C 0.38548 0.17284 0.72546 0.0
N414 N 0.46501 0.17836 0.81763 0.0
N415 N 0.31402 0.15299 0.73355 0.0
H416 H 0.40233 0.20113 0.66156 0.0
H417 H 0.35503 0.17611 0.65976 0.0
H418 H 0.28963 0.13981 0.75186 0.0
H419 H 0.30486 0.16871 0.70367 0.0
H420 H 0.46967 0.17388 0.85326 0.0
H421 H 0.48821 0.19553 0.80184 0.0
H422 H 0.4367 0.12287 0.87441 0.0
H423 H 0.38625 0.10554 0.87657 0.0
C424 C 0.14749 0.3967 0.71991 0.0
C425 C 0.15413 0.4314 0.74856 0.0
C426 C 0.11848 0.39747 0.81321 0.0
C427 C 0.10516 0.3664 0.78186 0.0
N428 N 0.10399 0.33843 0.70335 0.0
N429 N 0.14594 0.46622 0.82223 0.0
C430 C 0.11938 0.36605 0.73478 0.0
C431 C 0.13996 0.43205 0.79537 0.0
N432 N 0.16797 0.39326 0.67838 0.0
N433 N 0.11159 0.39329 0.86013 0.0
H434 H 0.16346 0.49116 0.81094 0.0
H435 H 0.1319 0.47067 0.85458 0.0
H436 H 0.09728 0.36754 0.87443 0.0
H437 H 0.12366 0.41311 0.88517 0.0
H438 H 0.16727 0.36696 0.65769 0.0
H439 H 0.18923 0.41515 0.66726 0.0
H440 H 0.10976 0.33997 0.66755 0.0
H441 H 0.08251 0.31603 0.71202 0.0
C442 C 0.35991 0.84749 0.25288 0.0
C443 C 0.36665 0.87305 0.21344 0.0
C444 C 0.43903 0.85281 0.21159 0.0
C445 C 0.43335 0.83151 0.25433 0.0
N446 N 0.38977 0.81052 0.31814 0.0
N447 N 0.41365 0.90525 0.15924 0.0
C448 C 0.39412 0.8293 0.27567 0.0
C449 C 0.4064 0.8768 0.19345 0.0
N450 N 0.32073 0.83964 0.26759 0.0
N451 N 0.47573 0.85038 0.18849 0.0
H452 H 0.39094 0.92431 0.14568 0.0
H453 H 0.44288 0.91272 0.1472 0.0
H454 H 0.50081 0.83409 0.20132 0.0
H455 H 0.48028 0.86158 0.15477 0.0
H456 H 0.31347 0.81814 0.29322 0.0
H457 H 0.29496 0.85204 0.25126 0.0
H458 H 0.36312 0.81209 0.33818 0.0
H459 H 0.41378 0.79519 0.33471 0.0
C460 C 0.84304 0.59191 0.72479 0.0
C461 C 0.84241 0.55404 0.7488 0.0
C462 C 0.88328 0.58415 0.81181 0.0
C463 C 0.89087 0.61895 0.78322 0.0
N464 N 0.88001 0.65487 0.71008 0.0
N465 N 0.86203 0.5129 0.81508 0.0
C466 C 0.87074 0.62302 0.73936 0.0
C467 C 0.86207 0.54994 0.7927 0.0
N468 N 0.81687 0.59809 0.68822 0.0
N469 N 0.8957 0.58423 0.85745 0.0
H470 H 0.84561 0.48759 0.80285 0.0
H471 H 0.88006 0.50663 0.84425 0.0
H472 H 0.9103 0.60937 0.8728 0.0
H473 H 0.8879 0.56132 0.88124 0.0
H474 H 0.81323 0.62632 0.6717 0.0
H475 H 0.79551 0.57599 0.678 0.0
H476 H 0.86982 0.65642 0.67561 0.0
H477 H 0.90052 0.67821 0.71854 0.0
C478 C 0.63415 0.16054 0.21079 0.0
C479 C 0.62438 0.11807 0.21006 0.0
C480 C 0.56119 0.13123 0.25398 0.0
C481 C 0.5726 0.17314 0.2579 0.0
N482 N 0.6216 0.2274 0.24556 0.0
N483 N 0.58319 0.06169 0.23844 0.0
C484 C 0.60964 0.18775 0.23793 0.0
C485 C 0.589 0.10303 0.23343 0.0
N486 N 0.666 0.17497 0.18426 0.0
N487 N 0.52366 0.11833 0.26978 0.0
H488 H 0.60331 0.03993 0.22486 0.0
H489 H 0.56062 0.04886 0.25971 0.0
H490 H 0.50305 0.13739 0.28727 0.0
H491 H 0.51159 0.0894 0.26263 0.0
H492 H 0.67225 0.20601 0.17951 0.0
H493 H 0.68439 0.15592 0.16374 0.0
H494 H 0.65035 0.23882 0.23638 0.0
H495 H 0.60366 0.24835 0.2641 0.0
C496 C 0.65197 0.07117 0.69919 0.0
C497 C 0.64604 0.05988 0.74669 0.0
C498 C 0.5912 0.11051 0.75406 0.0
C499 C 0.59954 0.12439 0.70796 0.0
N500 N 0.64477 0.12454 0.64096 0.0
N501 N 0.61834 0.07688 0.82261 0.0
C502 C 0.63204 0.10673 0.68175 0.0
C503 C 0.61824 0.0821 0.77518 0.0
N504 N 0.67471 0.04698 0.66998 0.0
N505 N 0.55629 0.12245 0.77686 0.0
H506 H 0.63902 0.05759 0.83961 0.0
H507 H 0.60119 0.09513 0.84529 0.0
H508 H 0.53421 0.14135 0.7618 0.0
H509 H 0.54704 0.10991 0.8087 0.0
H510 H 0.67618 0.05163 0.63396 0.0
H511 H 0.68902 0.02005 0.68079 0.0
H512 H 0.67095 0.11517 0.62293 0.0
H513 H 0.63176 0.15133 0.62771 0.0
C514 C 0.14493 0.34071 0.26278 0.0
C515 C 0.13837 0.3789 0.28567 0.0
C516 C 0.06419 0.37158 0.27438 0.0
C517 C 0.07124 0.33663 0.24613 0.0
N518 N 0.11799 0.28917 0.20964 0.0
N519 N 0.09191 0.43299 0.30927 0.0
C520 C 0.11147 0.32111 0.23976 0.0
C521 C 0.09804 0.39499 0.29034 0.0
N522 N 0.18315 0.32347 0.26233 0.0
N523 N 0.02501 0.38155 0.28738 0.0
H524 H 0.11527 0.45049 0.32384 0.0
H525 H 0.06399 0.44844 0.30766 0.0
H526 H -0.00058 0.36443 0.2773 0.0
H527 H 0.01814 0.40409 0.31198 0.0
H528 H 0.18891 0.29368 0.25099 0.0
H529 H 0.20899 0.33785 0.27617 0.0
H530 H 0.14698 0.27952 0.19902 0.0
H531 H 0.09423 0.27392 0.19247 0.0
C532 C 0.31901 0.90768 0.70471 0.0
C533 C 0.34182 0.94081 0.72364 0.0
C534 C 0.40611 0.90587 0.7046 0.0
C535 C 0.38341 0.87109 0.68957 0.0
N536 N 0.31848 0.83601 0.68197 0.0
N537 N 0.40649 0.96847 0.75013 0.0
C538 C 0.33986 0.8712 0.69127 0.0
C539 C 0.38523 0.93909 0.72601 0.0
N540 N 0.27761 0.91153 0.69844 0.0
N541 N 0.44743 0.908 0.69654 0.0
H542 H 0.39233 0.99328 0.7666 0.0
H543 H 0.43769 0.96626 0.75754 0.0
H544 H 0.46371 0.88491 0.67951 0.0
H545 H 0.46485 0.93432 0.70241 0.0
H546 H 0.25995 0.89033 0.68006 0.0
H547 H 0.26133 0.93764 0.70846 0.0
H548 H 0.28704 0.83295 0.68753 0.0
H549 H 0.33262 0.80858 0.67239 0.0
C550 C 0.86435 0.6723 0.30973 0.0
C551 C 0.8703 0.63008 0.3201 0.0
C552 C 0.94258 0.63582 0.29746 0.0
C553 C 0.93763 0.67874 0.29144 0.0
N554 N 0.89574 0.73921 0.29899 0.0
N555 N 0.91722 0.57423 0.33443 0.0
C556 C 0.89905 0.69743 0.29977 0.0
C557 C 0.91007 0.61261 0.31712 0.0
N558 N 0.82554 0.68798 0.3069 0.0
N559 N 0.97742 0.61668 0.28209 0.0
H560 H 0.8945 0.55666 0.35044 0.0
H561 H 0.94649 0.56169 0.33744 0.0
H562 H 0.00164 0.63208 0.26591 0.0
H563 H 0.98052 0.58488 0.28097 0.0
H564 H 0.81923 0.71732 0.29447 0.0
H565 H 0.79921 0.67058 0.31295 0.0
H566 H 0.86946 0.75483 0.3096 0.0
H567 H 0.92054 0.75845 0.29164 0.0
C568 C 0.6784 0.9238 0.29746 0.0
C569 C 0.66441 0.94755 0.25917 0.0
C570 C 0.60123 0.90697 0.25551 0.0
C571 C 0.61667 0.88104 0.29122 0.0
N572 N 0.67292 0.8599 0.3404 0.0
N573 N 0.61605 0.9578 0.19623 0.0
C574 C 0.65607 0.88814 0.31077 0.0
C575 C 0.62703 0.93774 0.2363 0.0
N576 N 0.71288 0.93543 0.32123 0.0
N577 N 0.56112 0.90386 0.24186 0.0
H578 H 0.63311 0.98174 0.18186 0.0
H579 H 0.59165 0.9486 0.17517 0.0
H580 H 0.54066 0.8828 0.25632 0.0
H581 H 0.54692 0.92481 0.21969 0.0
H582 H 0.72194 0.92223 0.35272 0.0
H583 H 0.73115 0.96017 0.311 0.0
H584 H 0.70318 0.8612 0.35195 0.0
H585 H 0.65786 0.83299 0.35023 0.0
C586 C 0.86721 0.31112 0.72125 0.0
C587 C 0.8716 0.35137 0.70318 0.0
C588 C 0.94627 0.34714 0.71102 0.0
C589 C 0.94217 0.306 0.7267 0.0
N590 N 0.9 0.24628 0.7397 0.0
N591 N 0.91475 0.40485 0.67172 0.0
C592 C 0.90293 0.28722 0.72982 0.0
C593 C 0.911 0.36855 0.69535 0.0
N594 N 0.82899 0.29632 0.73169 0.0
N595 N 0.98348 0.36652 0.71324 0.0
H596 H 0.88959 0.42149 0.65961 0.0
H597 H 0.94276 0.41666 0.66038 0.0
H598 H 0.01025 0.35215 0.72441 0.0
H599 H 0.9873 0.39787 0.70775 0.0
H600 H 0.82387 0.26909 0.74979 0.0
H601 H 0.80216 0.31277 0.72512 0.0
H602 H 0.8727 0.22974 0.73786 0.0
H603 H 0.92559 0.22792 0.74602 0.0
C604 C 0.3782 0.09682 0.31057 0.0
C605 C 0.36753 0.13671 0.29505 0.0
C606 C 0.321 0.10765 0.23645 0.0
C607 C 0.33179 0.06777 0.25197 0.0
N608 N 0.36231 0.02412 0.31028 0.0
N609 N 0.32339 0.18115 0.25066 0.0
C610 C 0.35781 0.0623 0.29115 0.0
C611 C 0.33705 0.14243 0.26035 0.0
N612 N 0.40911 0.09186 0.34232 0.0
N613 N 0.29705 0.11219 0.19759 0.0
H614 H 0.33486 0.20716 0.2675 0.0
H615 H 0.29857 0.18735 0.22893 0.0
H616 H 0.28391 0.08741 0.18008 0.0
H617 H 0.292 0.14017 0.18107 0.0
H618 H 0.42197 0.06357 0.35058 0.0
H619 H 0.4238 0.11646 0.35848 0.0
H620 H 0.37755 0.01863 0.34162 0.0
H621 H 0.34751 0.99819 0.29703 0.0
C622 C 0.09989 0.60966 0.7518 0.0
C623 C 0.11844 0.61648 0.70748 0.0
C624 C 0.07379 0.67591 0.6946 0.0
C625 C 0.05571 0.66943 0.73921 0.0
N626 N 0.05888 0.63637 0.81515 0.0
N627 N 0.13057 0.66154 0.64209 0.0
C628 C 0.07133 0.63859 0.76951 0.0
C629 C 0.10756 0.65124 0.68039 0.0
N630 N 0.10724 0.57414 0.77583 0.0
N631 N 0.05854 0.70561 0.66571 0.0
H632 H 0.15621 0.6448 0.63148 0.0
H633 H 0.1268 0.68868 0.62343 0.0
H634 H 0.03636 0.72668 0.67639 0.0
H635 H 0.06658 0.70831 0.63058 0.0
H636 H 0.09017 0.56485 0.80478 0.0
H637 H 0.12796 0.5519 0.76491 0.0
H638 H 0.07336 0.61803 0.83994 0.0
H639 H 0.03665 0.65515 0.8299 0.0
C640 C 0.2148 0.46038 0.52889 0.0
C641 C 0.20592 0.49976 0.54733 0.0
C642 C 0.20457 0.52846 0.46804 0.0
C643 C 0.20753 0.48813 0.44979 0.0
N644 N 0.21449 0.41523 0.46157 0.0
N645 N 0.1903 0.57138 0.53542 0.0
C646 C 0.21253 0.45394 0.47987 0.0
C647 C 0.20086 0.53404 0.51722 0.0
N648 N 0.22696 0.42958 0.55823 0.0
N649 N 0.20506 0.56131 0.4383 0.0
H650 H 0.18788 0.57694 0.57119 0.0
H651 H 0.1813 0.59631 0.51519 0.0
H652 H 0.20626 0.55823 0.402 0.0
H653 H 0.20742 0.59162 0.44946 0.0
H654 H 0.23772 0.40128 0.54671 0.0
H655 H 0.23013 0.43364 0.59424 0.0
H656 H 0.21272 0.38868 0.48169 0.0
H657 H 0.21581 0.40949 0.42572 0.0
C658 C 0.50104 0.71328 0.46228 0.0
C659 C 0.50398 0.75153 0.43882 0.0
C660 C 0.50978 0.78671 0.51425 0.0
C661 C 0.50179 0.74914 0.5376 0.0
N662 N 0.481 0.67802 0.53313 0.0
N663 N 0.50263 0.82556 0.44272 0.0
C664 C 0.495 0.71272 0.51147 0.0
C665 C 0.50601 0.78856 0.46485 0.0
N666 N 0.50579 0.67742 0.43807 0.0
N667 N 0.52254 0.82027 0.53896 0.0
H668 H 0.49841 0.82831 0.40673 0.0
H669 H 0.49974 0.85328 0.46058 0.0
H670 H 0.52704 0.81981 0.57504 0.0
H671 H 0.53277 0.8472 0.52312 0.0
H672 H 0.50815 0.64894 0.45437 0.0
H673 H 0.51164 0.67638 0.40223 0.0
H674 H 0.47147 0.65204 0.51485 0.0
H675 H 0.47492 0.67651 0.56889 0.0
C676 C 0.77646 0.47052 0.47849 0.0
C677 C 0.79962 0.50492 0.46328 0.0
C678 C 0.81038 0.52606 0.54454 0.0
C679 C 0.78386 0.4941 0.55943 0.0
N680 N 0.73708 0.43905 0.54095 0.0
N681 N 0.8333 0.56916 0.48073 0.0
C682 C 0.76565 0.4671 0.52651 0.0
C683 C 0.81521 0.53372 0.49599 0.0
N684 N 0.76612 0.4404 0.44733 0.0
N685 N 0.83229 0.54801 0.57674 0.0
H686 H 0.8377 0.57593 0.44546 0.0
H687 H 0.84085 0.59342 0.50282 0.0
H688 H 0.83009 0.54278 0.61259 0.0
H689 H 0.85542 0.56868 0.56786 0.0
H690 H 0.75311 0.4125 0.45713 0.0
H691 H 0.77384 0.44168 0.41193 0.0
H692 H 0.71943 0.42157 0.51804 0.0
H693 H 0.72849 0.43554 0.57589 0.0
C694 C 0.45523 0.19057 0.48084 0.0
C695 C 0.48092 0.21269 0.44948 0.0
C696 C 0.50787 0.25315 0.51507 0.0
C697 C 0.48506 0.22845 0.54654 0.0
N698 N 0.44275 0.169 0.56068 0.0
N699 N 0.5371 0.26007 0.43762 0.0
C700 C 0.46032 0.19584 0.52981 0.0
C701 C 0.50868 0.24274 0.4668 0.0
N702 N 0.42463 0.16596 0.46399 0.0
N703 N 0.52785 0.28728 0.53113 0.0
H704 H 0.53931 0.2529 0.40221 0.0
H705 H 0.56098 0.27869 0.44929 0.0
H706 H 0.52814 0.29575 0.56633 0.0
H707 H 0.54112 0.30909 0.5092 0.0
H708 H 0.40212 0.15282 0.48514 0.0
H709 H 0.41922 0.16164 0.42847 0.0
H710 H 0.42832 0.14192 0.55045 0.0
H711 H 0.44574 0.17184 0.59684 0.0
C712 C 0.67546 0.00734 0.0068 0.0
C713 C 0.71166 0.00777 0.03432 0.0
C714 C 0.75397 0.01015 0.96334 0.0
C715 C 0.7179 0.00633 0.93596 0.0
N716 N 0.64469 0.99622 0.93064 0.0
N717 N 0.78541 0.00264 0.03964 0.0
C718 C 0.67873 0.00329 0.95743 0.0
C719 C 0.75099 0.00757 0.01286 0.0
N720 N 0.63806 0.01271 0.0277 0.0
N721 N 0.79112 0.01605 0.94201 0.0
H722 H 0.78457 -0.00028 0.07594 0.0
H723 H 0.81457 0.99778 0.02582 0.0
H724 H 0.79499 0.01566 0.90579 0.0
H725 H 0.81773 0.024 0.95998 0.0
H726 H 0.61093 0.01719 0.00921 0.0
H727 H 0.63444 0.01628 0.06372 0.0
H728 H 0.61607 0.98882 0.94454 0.0
H729 H 0.64549 0.99502 0.8942 0.0
C730 C 0.02389 0.30507 0.98514 0.0
C731 C 0.01064 0.27184 0.95685 0.0
C732 C 0.00031 0.22926 0.02658 0.0
C733 C 0.01031 0.26356 0.05495 0.0
N734 N 0.02804 0.33512 0.06257 0.0
N735 N 0.98063 0.20443 0.94982 0.0
C736 C 0.02096 0.30181 0.03459 0.0
C737 C 0.99759 0.23435 0.97731 0.0
N738 N 0.04103 0.33898 0.96475 0.0
N739 N 0.9933 0.19185 0.04677 0.0
H740 H 0.97758 0.20723 0.91365 0.0
H741 H 0.9664 0.17826 0.96297 0.0
H742 H 0.99287 0.18732 0.08285 0.0
H743 H 0.99061 0.16468 0.02789 0.0
H744 H 0.05556 0.36225 0.9834 0.0
H745 H 0.04374 0.34249 0.92864 0.0
H746 H 0.03074 0.36496 0.04999 0.0
H747 H 0.02899 0.33334 0.09896 0.0
C748 C 0.31242 0.04584 0.98953 0.0
C749 C 0.30027 0.01505 0.95722 0.0
C750 C 0.26588 0.97719 0.02017 0.0
C751 C 0.28077 0.00628 0.05293 0.0
N752 N 0.32504 0.06363 0.07054 0.0
N753 N 0.27283 0.94739 0.94295 0.0
C754 C 0.30599 0.03933 0.03813 0.0
C755 C 0.27907 0.97954 0.97287 0.0
N756 N 0.32843 0.08207 0.97376 0.0
N757 N 0.23792 0.94825 0.03383 0.0
H758 H 0.28281 0.94759 0.90826 0.0
H759 H 0.26139 0.91905 0.95362 0.0
H760 H 0.22722 0.94577 0.0681 0.0
H761 H 0.22255 0.92912 0.01049 0.0
H762 H 0.33344 0.10737 0.99528 0.0
H763 H 0.33341 0.08824 0.93847 0.0
H764 H 0.34726 0.08536 0.06193 0.0
H765 H 0.32154 0.05953 0.1065 0.0
C766 C 0.00078 0.74166 0.98122 0.0
C767 C 0.97097 0.71439 0.9627 0.0
C768 C 0.94688 0.69842 0.04182 0.0
C769 C 0.97437 0.72822 0.05994 0.0
N770 N 0.02139 0.78425 0.04651 0.0
N771 N 0.91011 0.67323 0.97406 0.0
C772 C -0.00042 0.75164 0.02951 0.0
C773 C 0.94239 0.69455 0.99262 0.0
N774 N 0.03134 0.75663 0.95316 0.0
N775 N 0.92642 0.67255 0.07143 0.0
H776 H 0.90533 0.67025 0.93815 0.0
H777 H 0.88597 0.66181 0.99413 0.0
H778 H 0.92912 0.67404 0.10773 0.0
H779 H 0.90961 0.64729 0.05994 0.0
H780 H 0.0564 0.77304 0.9659 0.0
H781 H 0.03384 0.74945 0.91772 0.0
H782 H 0.03697 0.805 0.02521 0.0
H783 H 0.02063 0.793 0.08159 0.0
loop_
_geom_bond_atom_site_label_1
_geom_bond_atom_site_label_2
_geom_bond_distance
_geom_bond_site_symmetry_2
_ccdc_geom_bond_type
C0 O1 1.160 . S
C0 O7 1.185 . S
O1 C0 1.160 . S
O2 Zn3 1.899 . S
O2 C10 1.284 . S
Zn3 O2 1.899 . S
Zn3 O4 2.032 . S
Zn3 O7 2.086 . S
Zn3 O12 1.977 . S
O4 Zn3 2.032 . S
O4 C8 1.278 . S
C5 O6 1.203 . S
C5 O12 1.267 . S
O6 C5 1.203 . S
O7 C0 1.185 . S
O7 Zn3 2.086 . S
C8 O4 1.278 . S
C8 O9 1.211 . S
O9 C8 1.211 . S
C10 O2 1.284 . S
C10 O11 1.273 . S
O11 C10 1.273 . S
O12 Zn3 1.977 . S
O12 C5 1.267 . S
C13 O14 1.160 . S
C13 O20 1.185 . S
O14 C13 1.160 . S
O15 Zn16 1.899 . S
O15 C23 1.284 . S
Zn16 O15 1.899 . S
Zn16 O17 2.032 . S
Zn16 O20 2.086 . S
Zn16 O25 1.977 . S
O17 Zn16 2.032 . S
O17 C21 1.278 . S
C18 O19 1.203 . S
C18 O25 1.267 . S
O19 C18 1.203 . S
O20 C13 1.185 . S
O20 Zn16 2.086 . S
C21 O17 1.278 . S
C21 O22 1.211 . S
O22 C21 1.211 . S
C23 O15 1.284 . S
C23 O24 1.273 . S
O24 C23 1.273 . S
O25 Zn16 1.977 . S
O25 C18 1.267 . S
C26 O27 1.160 . S
C26 O33 1.185 . S
O27 C26 1.160 . S
O28 Zn29 1.899 . S
O28 C36 1.284 . S
Zn29 O28 1.899 . S
Zn29 O30 2.032 . S
Zn29 O33 2.086 . S
Zn29 O38 1.977 . S
O30 Zn29 2.032 . S
O30 C34 1.278 . S
C31 O32 1.203 . S
C31 O38 1.267 . S
O32 C31 1.203 . S
O33 C26 1.185 . S
O33 Zn29 2.086 . S
C34 O30 1.278 . S
C34 O35 1.211 . S
O35 C34 1.211 . S
C36 O28 1.284 . S
C36 O37 1.273 . S
O37 C36 1.273 . S
O38 Zn29 1.977 . S
O38 C31 1.267 . S
C39 O40 1.160 . S
C39 O46 1.185 . S
O40 C39 1.160 . S
O41 Zn42 1.899 . S
O41 C49 1.284 . S
Zn42 O41 1.899 . S
Zn42 O43 2.032 . S
Zn42 O46 2.086 . S
Zn42 O51 1.977 . S
O43 Zn42 2.032 . S
O43 C47 1.278 . S
C44 O45 1.203 . S
C44 O51 1.267 . S
O45 C44 1.203 . S
O46 C39 1.185 . S
O46 Zn42 2.086 . S
C47 O43 1.278 . S
C47 O48 1.211 . S
O48 C47 1.211 . S
C49 O41 1.284 . S
C49 O50 1.273 . S
O50 C49 1.273 . S
O51 Zn42 1.977 . S
O51 C44 1.267 . S
C52 O53 1.160 . S
C52 O59 1.185 . S
O53 C52 1.160 . S
O54 Zn55 1.899 . S
O54 C62 1.284 . S
Zn55 O54 1.899 . S
Zn55 O56 2.032 . S
Zn55 O59 2.086 . S
Zn55 O64 1.977 . S
O56 Zn55 2.032 . S
O56 C60 1.278 . S
C57 O58 1.203 . S
C57 O64 1.267 . S
O58 C57 1.203 . S
O59 C52 1.185 . S
O59 Zn55 2.086 . S
C60 O56 1.278 . S
C60 O61 1.211 . S
O61 C60 1.211 . S
C62 O54 1.284 . S
C62 O63 1.273 . S
O63 C62 1.273 . S
O64 Zn55 1.977 . S
O64 C57 1.267 . S
C65 O66 1.160 . S
C65 O72 1.185 . S
O66 C65 1.160 . S
O67 Zn68 1.899 . S
O67 C75 1.284 . S
Zn68 O67 1.899 . S
Zn68 O69 2.032 . S
Zn68 O72 2.086 . S
Zn68 O77 1.977 . S
O69 Zn68 2.032 . S
O69 C73 1.278 . S
C70 O71 1.203 . S
C70 O77 1.267 . S
O71 C70 1.203 . S
O72 C65 1.185 . S
O72 Zn68 2.086 . S
C73 O69 1.278 . S
C73 O74 1.211 . S
O74 C73 1.211 . S
C75 O67 1.284 . S
C75 O76 1.273 . S
O76 C75 1.273 . S
O77 Zn68 1.977 . S
O77 C70 1.267 . S
C78 O79 1.160 . S
C78 O85 1.185 . S
O79 C78 1.160 . S
O80 Zn81 1.899 . S
O80 C88 1.284 . S
Zn81 O80 1.899 . S
Zn81 O82 2.032 . S
Zn81 O85 2.086 . S
Zn81 O90 1.977 . S
O82 Zn81 2.032 . S
O82 C86 1.278 . S
C83 O84 1.203 . S
C83 O90 1.267 . S
O84 C83 1.203 . S
O85 C78 1.185 . S
O85 Zn81 2.086 . S
C86 O82 1.278 . S
C86 O87 1.211 . S
O87 C86 1.211 . S
C88 O80 1.284 . S
C88 O89 1.273 . S
O89 C88 1.273 . S
O90 Zn81 1.977 . S
O90 C83 1.267 . S
C91 O92 1.160 . S
C91 O98 1.185 . S
O92 C91 1.160 . S
O93 Zn94 1.899 . S
O93 C101 1.284 . S
Zn94 O93 1.899 . S
Zn94 O95 2.032 . S
Zn94 O98 2.086 . S
Zn94 O103 1.977 . S
O95 Zn94 2.032 . S
O95 C99 1.278 . S
C96 O97 1.203 . S
C96 O103 1.267 . S
O97 C96 1.203 . S
O98 C91 1.185 . S
O98 Zn94 2.086 . S
C99 O95 1.278 . S
C99 O100 1.211 . S
O100 C99 1.211 . S
C101 O93 1.284 . S
C101 O102 1.273 . S
O102 C101 1.273 . S
O103 Zn94 1.977 . S
O103 C96 1.267 . S
C104 O105 1.160 . S
C104 O111 1.185 . S
O105 C104 1.160 . S
O106 Zn107 1.899 . S
O106 C114 1.284 . S
Zn107 O106 1.899 . S
Zn107 O108 2.032 . S
Zn107 O111 2.086 . S
Zn107 O116 1.975 1_565 S
O108 Zn107 2.032 . S
O108 C112 1.278 . S
C109 O110 1.203 . S
C109 O116 1.268 . S
O110 C109 1.203 . S
O111 C104 1.185 . S
O111 Zn107 2.086 . S
C112 O108 1.278 . S
C112 O113 1.195 1_565 S
O113 C112 1.195 1_545 S
C114 O106 1.284 . S
C114 O115 1.273 . S
O115 C114 1.273 . S
O116 Zn107 1.975 1_545 S
O116 C109 1.268 . S
C117 O118 1.160 . S
C117 O124 1.185 . S
O118 C117 1.160 . S
O119 Zn120 1.899 . S
O119 C127 1.284 . S
Zn120 O119 1.899 . S
Zn120 O121 2.032 . S
Zn120 O124 2.086 . S
Zn120 O129 1.975 1_655 S
O121 Zn120 2.032 . S
O121 C125 1.278 . S
C122 O123 1.203 . S
C122 O129 1.268 . S
O123 C122 1.203 . S
O124 C117 1.185 . S
O124 Zn120 2.086 . S
C125 O121 1.278 . S
C125 O126 1.195 1_655 S
O126 C125 1.195 1_455 S
C127 O119 1.284 . S
C127 O128 1.273 . S
O128 C127 1.273 . S
O129 Zn120 1.975 1_455 S
O129 C122 1.268 . S
C130 O131 1.160 . S
C130 O137 1.185 . S
O131 C130 1.160 . S
O132 Zn133 1.899 . S
O132 C140 1.284 . S
Zn133 O132 1.899 . S
Zn133 O134 2.032 . S
Zn133 O137 2.086 . S
Zn133 O142 1.975 1_545 S
O134 Zn133 2.032 . S
O134 C138 1.278 . S
C135 O136 1.203 . S
C135 O142 1.268 . S
O136 C135 1.203 . S
O137 C130 1.185 . S
O137 Zn133 2.086 . S
C138 O134 1.278 . S
C138 O139 1.195 1_545 S
O139 C138 1.195 1_565 S
C140 O132 1.284 . S
C140 O141 1.273 . S
O141 C140 1.273 . S
O142 Zn133 1.975 1_565 S
O142 C135 1.268 . S
C143 O144 1.160 . S
C143 O150 1.185 . S
O144 C143 1.160 . S
O145 Zn146 1.899 . S
O145 C153 1.284 . S
Zn146 O145 1.899 . S
Zn146 O147 2.032 . S
Zn146 O150 2.086 . S
Zn146 O155 1.975 1_455 S
O147 Zn146 2.032 . S
O147 C151 1.278 . S
C148 O149 1.203 . S
C148 O155 1.268 . S
O149 C148 1.203 . S
O150 C143 1.185 . S
O150 Zn146 2.086 . S
C151 O147 1.278 . S
C151 O152 1.195 1_455 S
O152 C151 1.195 1_655 S
C153 O145 1.284 . S
C153 O154 1.273 . S
O154 C153 1.273 . S
O155 Zn146 1.975 1_655 S
O155 C148 1.268 . S
C156 O157 1.160 . S
C156 O163 1.185 . S
O157 C156 1.160 . S
O158 Zn159 1.899 . S
O158 C166 1.284 . S
Zn159 O158 1.899 . S
Zn159 O160 2.032 . S
Zn159 O163 2.086 . S
Zn159 O168 1.975 1_545 S
O160 Zn159 2.032 . S
O160 C164 1.278 . S
C161 O162 1.203 . S
C161 O168 1.268 . S
O162 C161 1.203 . S
O163 C156 1.185 . S
O163 Zn159 2.086 . S
C164 O160 1.278 . S
C164 O165 1.195 1_545 S
O165 C164 1.195 1_565 S
C166 O158 1.284 . S
C166 O167 1.273 . S
O167 C166 1.273 . S
O168 Zn159 1.975 1_565 S
O168 C161 1.268 . S
C169 O170 1.160 . S
C169 O176 1.185 . S
O170 C169 1.160 . S
O171 Zn172 1.899 . S
O171 C179 1.284 . S
Zn172 O171 1.899 . S
Zn172 O173 2.032 . S
Zn172 O176 2.086 . S
Zn172 O181 1.975 1_455 S
O173 Zn172 2.032 . S
O173 C177 1.278 . S
C174 O175 1.203 . S
C174 O181 1.268 . S
O175 C174 1.203 . S
O176 C169 1.185 . S
O176 Zn172 2.086 . S
C177 O173 1.278 . S
C177 O178 1.195 1_455 S
O178 C177 1.195 1_655 S
C179 O171 1.284 . S
C179 O180 1.273 . S
O180 C179 1.273 . S
O181 Zn172 1.975 1_655 S
O181 C174 1.268 . S
C182 O183 1.160 . S
C182 O189 1.185 . S
O183 C182 1.160 . S
O184 Zn185 1.899 . S
O184 C192 1.284 . S
Zn185 O184 1.899 . S
Zn185 O186 2.032 . S
Zn185 O189 2.086 . S
Zn185 O194 1.975 1_565 S
O186 Zn185 2.032 . S
O186 C190 1.278 . S
C187 O188 1.203 . S
C187 O194 1.268 . S
O188 C187 1.203 . S
O189 C182 1.185 . S
O189 Zn185 2.086 . S
C190 O186 1.278 . S
C190 O191 1.195 1_565 S
O191 C190 1.195 1_545 S
C192 O184 1.284 . S
C192 O193 1.273 . S
O193 C192 1.273 . S
O194 Zn185 1.975 1_545 S
O194 C187 1.268 . S
C195 O196 1.160 . S
C195 O202 1.185 . S
O196 C195 1.160 . S
O197 Zn198 1.899 . S
O197 C205 1.284 . S
Zn198 O197 1.899 . S
Zn198 O199 2.032 . S
Zn198 O202 2.086 . S
Zn198 O207 1.975 1_655 S
O199 Zn198 2.032 . S
O199 C203 1.278 . S
C200 O201 1.203 . S
C200 O207 1.268 . S
O201 C200 1.203 . S
O202 C195 1.185 . S
O202 Zn198 2.086 . S
C203 O199 1.278 . S
C203 O204 1.195 1_655 S
O204 C203 1.195 1_455 S
C205 O197 1.284 . S
C205 O206 1.273 . S
O206 C205 1.273 . S
O207 Zn198 1.975 1_455 S
O207 C200 1.268 . S
C208 C209 1.363 . S
C208 C214 1.379 . S
C208 N216 1.356 . S
C209 C208 1.363 . S
C209 C215 1.363 . S
C210 C211 1.363 . S
C210 C215 1.379 . S
C210 N217 1.356 . S
C211 C210 1.363 . S
C211 C214 1.363 . S
N212 C214 1.356 . S
N212 H224 0.984 . S
N212 H225 0.985 . S
N213 C215 1.356 . S
N213 H218 0.984 . S
N213 H219 0.985 . S
C214 C208 1.379 . S
C214 C211 1.363 . S
C214 N212 1.356 . S
C215 C209 1.363 . S
C215 C210 1.379 . S
C215 N213 1.356 . S
N216 C208 1.356 . S
N216 H222 0.984 . S
N216 H223 0.984 . S
N217 C210 1.356 . S
N217 H220 0.984 . S
N217 H221 0.985 . S
H218 N213 0.984 . S
H219 N213 0.985 . S
H220 N217 0.984 . S
H221 N217 0.985 . S
H222 N216 0.984 . S
H223 N216 0.984 . S
H224 N212 0.984 . S
H225 N212 0.985 . S
C226 C227 1.363 . S
C226 C232 1.379 . S
C226 N234 1.356 . S
C227 C226 1.363 . S
C227 C233 1.363 . S
C228 C229 1.363 . S
C228 C233 1.379 . S
C228 N235 1.356 . S
C229 C228 1.363 . S
C229 C232 1.363 . S
N230 C232 1.356 . S
N230 H242 0.984 . S
N230 H243 0.985 . S
N231 C233 1.356 . S
N231 H236 0.984 . S
N231 H237 0.985 . S
C232 C226 1.379 . S
C232 C229 1.363 . S
C232 N230 1.356 . S
C233 C227 1.363 . S
C233 C228 1.379 . S
C233 N231 1.356 . S
N234 C226 1.356 . S
N234 H240 0.984 . S
N234 H241 0.984 . S
N235 C228 1.356 . S
N235 H238 0.984 . S
N235 H239 0.985 . S
H236 N231 0.984 . S
H237 N231 0.985 . S
H238 N235 0.984 . S
H239 N235 0.985 . S
H240 N234 0.984 . S
H241 N234 0.984 . S
H242 N230 0.984 . S
H243 N230 0.985 . S
C244 C245 1.363 . S
C244 C250 1.379 . S
C244 N252 1.356 . S
C245 C244 1.363 . S
C245 C251 1.363 . S
C246 C247 1.363 . S
C246 C251 1.379 . S
C246 N253 1.356 . S
C247 C246 1.363 . S
C247 C250 1.363 . S
N248 C250 1.356 . S
N248 H260 0.984 . S
N248 H261 0.985 . S
N249 C251 1.356 . S
N249 H254 0.984 . S
N249 H255 0.985 . S
C250 C244 1.379 . S
C250 C247 1.363 . S
C250 N248 1.356 . S
C251 C245 1.363 . S
C251 C246 1.379 . S
C251 N249 1.356 . S
N252 C244 1.356 . S
N252 H258 0.984 . S
N252 H259 0.984 . S
N253 C246 1.356 . S
N253 H256 0.984 . S
N253 H257 0.985 . S
H254 N249 0.984 . S
H255 N249 0.985 . S
H256 N253 0.984 . S
H257 N253 0.985 . S
H258 N252 0.984 . S
H259 N252 0.984 . S
H260 N248 0.984 . S
H261 N248 0.985 . S
C262 C263 1.363 . S
C262 C268 1.379 . S
C262 N270 1.356 . S
C263 C262 1.363 . S
C263 C269 1.363 . S
C264 C265 1.363 . S
C264 C269 1.379 . S
C264 N271 1.356 . S
C265 C264 1.363 . S
C265 C268 1.363 . S
N266 C268 1.356 . S
N266 H278 0.984 . S
N266 H279 0.985 . S
N267 C269 1.356 . S
N267 H272 0.984 . S
N267 H273 0.985 . S
C268 C262 1.379 . S
C268 C265 1.363 . S
C268 N266 1.356 . S
C269 C263 1.363 . S
C269 C264 1.379 . S
C269 N267 1.356 . S
N270 C262 1.356 . S
N270 H276 0.984 . S
N270 H277 0.984 . S
N271 C264 1.356 . S
N271 H274 0.984 . S
N271 H275 0.985 . S
H272 N267 0.984 . S
H273 N267 0.985 . S
H274 N271 0.984 . S
H275 N271 0.985 . S
H276 N270 0.984 . S
H277 N270 0.984 . S
H278 N266 0.984 . S
H279 N266 0.985 . S
C280 C281 1.363 . S
C280 C286 1.379 . S
C280 N288 1.356 . S
C281 C280 1.363 . S
C281 C287 1.363 . S
C282 C283 1.363 . S
C282 C287 1.379 . S
C282 N289 1.356 . S
C283 C282 1.363 . S
C283 C286 1.363 . S
N284 C286 1.356 . S
N284 H296 0.984 . S
N284 H297 0.985 . S
N285 C287 1.356 . S
N285 H290 0.984 . S
N285 H291 0.985 . S
C286 C280 1.379 . S
C286 C283 1.363 . S
C286 N284 1.356 . S
C287 C281 1.363 . S
C287 C282 1.379 . S
C287 N285 1.356 . S
N288 C280 1.356 . S
N288 H294 0.984 . S
N288 H295 0.984 . S
N289 C282 1.356 . S
N289 H292 0.984 . S
N289 H293 0.985 . S
H290 N285 0.984 . S
H291 N285 0.985 . S
H292 N289 0.984 . S
H293 N289 0.985 . S
H294 N288 0.984 . S
H295 N288 0.984 . S
H296 N284 0.984 . S
H297 N284 0.985 . S
C298 C299 1.363 . S
C298 C304 1.379 . S
C298 N306 1.356 . S
C299 C298 1.363 . S
C299 C305 1.363 . S
C300 C301 1.363 . S
C300 C305 1.379 . S
C300 N307 1.356 . S
C301 C300 1.363 . S
C301 C304 1.363 . S
N302 C304 1.356 . S
N302 H314 0.984 . S
N302 H315 0.985 . S
N303 C305 1.356 . S
N303 H308 0.984 . S
N303 H309 0.985 . S
C304 C298 1.379 . S
C304 C301 1.363 . S
C304 N302 1.356 . S
C305 C299 1.363 . S
C305 C300 1.379 . S
C305 N303 1.356 . S
N306 C298 1.356 . S
N306 H312 0.984 . S
N306 H313 0.984 . S
N307 C300 1.356 . S
N307 H310 0.984 . S
N307 H311 0.985 . S
H308 N303 0.984 . S
H309 N303 0.985 . S
H310 N307 0.984 . S
H311 N307 0.985 . S
H312 N306 0.984 . S
H313 N306 0.984 . S
H314 N302 0.984 . S
H315 N302 0.985 . S
C316 C317 1.363 . S
C316 C322 1.379 . S
C316 N324 1.356 . S
C317 C316 1.363 . S
C317 C323 1.363 . S
C318 C319 1.363 . S
C318 C323 1.379 . S
C318 N325 1.356 . S
C319 C318 1.363 . S
C319 C322 1.363 . S
N320 C322 1.356 . S
N320 H332 0.984 . S
N320 H333 0.985 . S
N321 C323 1.356 . S
N321 H326 0.984 . S
N321 H327 0.985 . S
C322 C316 1.379 . S
C322 C319 1.363 . S
C322 N320 1.356 . S
C323 C317 1.363 . S
C323 C318 1.379 . S
C323 N321 1.356 . S
N324 C316 1.356 . S
N324 H330 0.984 . S
N324 H331 0.984 . S
N325 C318 1.356 . S
N325 H328 0.984 . S
N325 H329 0.985 . S
H326 N321 0.984 . S
H327 N321 0.985 . S
H328 N325 0.984 . S
H329 N325 0.985 . S
H330 N324 0.984 . S
H331 N324 0.984 . S
H332 N320 0.984 . S
H333 N320 0.985 . S
C334 C335 1.363 . S
C334 C340 1.379 . S
C334 N342 1.356 . S
C335 C334 1.363 . S
C335 C341 1.363 . S
C336 C337 1.363 . S
C336 C341 1.379 . S
C336 N343 1.356 . S
C337 C336 1.363 . S
C337 C340 1.363 . S
N338 C340 1.356 . S
N338 H350 0.984 . S
N338 H351 0.985 . S
N339 C341 1.356 . S
N339 H344 0.984 . S
N339 H345 0.985 . S
C340 C334 1.379 . S
C340 C337 1.363 . S
C340 N338 1.356 . S
C341 C335 1.363 . S
C341 C336 1.379 . S
C341 N339 1.356 . S
N342 C334 1.356 . S
N342 H348 0.984 . S
N342 H349 0.984 . S
N343 C336 1.356 . S
N343 H346 0.984 . S
N343 H347 0.985 . S
H344 N339 0.984 . S
H345 N339 0.985 . S
H346 N343 0.984 . S
H347 N343 0.985 . S
H348 N342 0.984 . S
H349 N342 0.984 . S
H350 N338 0.984 . S
H351 N338 0.985 . S
C352 C353 1.363 . S
C352 C358 1.379 . S
C352 N360 1.356 . S
C353 C352 1.363 . S
C353 C359 1.363 . S
C354 C355 1.363 . S
C354 C359 1.379 . S
C354 N361 1.356 . S
C355 C354 1.363 . S
C355 C358 1.363 . S
N356 C358 1.356 . S
N356 H368 0.984 . S
N356 H369 0.985 . S
N357 C359 1.356 . S
N357 H362 0.984 . S
N357 H363 0.985 . S
C358 C352 1.379 . S
C358 C355 1.363 . S
C358 N356 1.356 . S
C359 C353 1.363 . S
C359 C354 1.379 . S
C359 N357 1.356 . S
N360 C352 1.356 . S
N360 H366 0.984 . S
N360 H367 0.984 . S
N361 C354 1.356 . S
N361 H364 0.984 . S
N361 H365 0.985 . S
H362 N357 0.984 . S
H363 N357 0.985 . S
H364 N361 0.984 . S
H365 N361 0.985 . S
H366 N360 0.984 . S
H367 N360 0.984 . S
H368 N356 0.984 . S
H369 N356 0.985 . S
C370 C371 1.363 . S
C370 C376 1.379 . S
C370 N378 1.356 . S
C371 C370 1.363 . S
C371 C377 1.363 . S
C372 C373 1.363 . S
C372 C377 1.379 . S
C372 N379 1.356 . S
C373 C372 1.363 . S
C373 C376 1.363 . S
N374 C376 1.356 . S
N374 H386 0.984 . S
N374 H387 0.985 . S
N375 C377 1.356 . S
N375 H380 0.984 . S
N375 H381 0.985 . S
C376 C370 1.379 . S
C376 C373 1.363 . S
C376 N374 1.356 . S
C377 C371 1.363 . S
C377 C372 1.379 . S
C377 N375 1.356 . S
N378 C370 1.356 . S
N378 H384 0.984 . S
N378 H385 0.984 . S
N379 C372 1.356 . S
N379 H382 0.984 . S
N379 H383 0.985 . S
H380 N375 0.984 . S
H381 N375 0.985 . S
H382 N379 0.984 . S
H383 N379 0.985 . S
H384 N378 0.984 . S
H385 N378 0.984 . S
H386 N374 0.984 . S
H387 N374 0.985 . S
C388 C389 1.363 . S
C388 C394 1.379 . S
C388 N396 1.356 . S
C389 C388 1.363 . S
C389 C395 1.363 . S
C390 C391 1.363 . S
C390 C395 1.379 . S
C390 N397 1.356 . S
C391 C390 1.363 . S
C391 C394 1.363 . S
N392 C394 1.356 . S
N392 H404 0.984 . S
N392 H405 0.985 . S
N393 C395 1.356 . S
N393 H398 0.984 . S
N393 H399 0.985 . S
C394 C388 1.379 . S
C394 C391 1.363 . S
C394 N392 1.356 . S
C395 C389 1.363 . S
C395 C390 1.379 . S
C395 N393 1.356 . S
N396 C388 1.356 . S
N396 H402 0.984 . S
N396 H403 0.984 . S
N397 C390 1.356 . S
N397 H400 0.984 . S
N397 H401 0.985 . S
H398 N393 0.984 . S
H399 N393 0.985 . S
H400 N397 0.984 . S
H401 N397 0.985 . S
H402 N396 0.984 . S
H403 N396 0.984 . S
H404 N392 0.984 . S
H405 N392 0.985 . S
C406 C407 1.363 . S
C406 C412 1.379 . S
C406 N414 1.356 . S
C407 C406 1.363 . S
C407 C413 1.363 . S
C408 C409 1.363 . S
C408 C413 1.379 . S
C408 N415 1.356 . S
C409 C408 1.363 . S
C409 C412 1.363 . S
N410 C412 1.356 . S
N410 H422 0.984 . S
N410 H423 0.985 . S
N411 C413 1.356 . S
N411 H416 0.984 . S
N411 H417 0.985 . S
C412 C406 1.379 . S
C412 C409 1.363 . S
C412 N410 1.356 . S
C413 C407 1.363 . S
C413 C408 1.379 . S
C413 N411 1.356 . S
N414 C406 1.356 . S
N414 H420 0.984 . S
N414 H421 0.984 . S
N415 C408 1.356 . S
N415 H418 0.984 . S
N415 H419 0.985 . S
H416 N411 0.984 . S
H417 N411 0.985 . S
H418 N415 0.984 . S
H419 N415 0.985 . S
H420 N414 0.984 . S
H421 N414 0.984 . S
H422 N410 0.984 . S
H423 N410 0.985 . S
C424 C425 1.363 . S
C424 C430 1.379 . S
C424 N432 1.356 . S
C425 C424 1.363 . S
C425 C431 1.363 . S
C426 C427 1.363 . S
C426 C431 1.379 . S
C426 N433 1.356 . S
C427 C426 1.363 . S
C427 C430 1.363 . S
N428 C430 1.356 . S
N428 H440 0.984 . S
N428 H441 0.985 . S
N429 C431 1.356 . S
N429 H434 0.984 . S
N429 H435 0.985 . S
C430 C424 1.379 . S
C430 C427 1.363 . S
C430 N428 1.356 . S
C431 C425 1.363 . S
C431 C426 1.379 . S
C431 N429 1.356 . S
N432 C424 1.356 . S
N432 H438 0.984 . S
N432 H439 0.984 . S
N433 C426 1.356 . S
N433 H436 0.984 . S
N433 H437 0.985 . S
H434 N429 0.984 . S
H435 N429 0.985 . S
H436 N433 0.984 . S
H437 N433 0.985 . S
H438 N432 0.984 . S
H439 N432 0.984 . S
H440 N428 0.984 . S
H441 N428 0.985 . S
C442 C443 1.363 . S
C442 C448 1.379 . S
C442 N450 1.356 . S
C443 C442 1.363 . S
C443 C449 1.363 . S
C444 C445 1.363 . S
C444 C449 1.379 . S
C444 N451 1.356 . S
C445 C444 1.363 . S
C445 C448 1.363 . S
N446 C448 1.356 . S
N446 H458 0.984 . S
N446 H459 0.985 . S
N447 C449 1.356 . S
N447 H452 0.984 . S
N447 H453 0.985 . S
C448 C442 1.379 . S
C448 C445 1.363 . S
C448 N446 1.356 . S
C449 C443 1.363 . S
C449 C444 1.379 . S
C449 N447 1.356 . S
N450 C442 1.356 . S
N450 H456 0.984 . S
N450 H457 0.984 . S
N451 C444 1.356 . S
N451 H454 0.984 . S
N451 H455 0.985 . S
H452 N447 0.984 . S
H453 N447 0.985 . S
H454 N451 0.984 . S
H455 N451 0.985 . S
H456 N450 0.984 . S
H457 N450 0.984 . S
H458 N446 0.984 . S
H459 N446 0.985 . S
C460 C461 1.363 . S
C460 C466 1.379 . S
C460 N468 1.356 . S
C461 C460 1.363 . S
C461 C467 1.363 . S
C462 C463 1.363 . S
C462 C467 1.379 . S
C462 N469 1.356 . S
C463 C462 1.363 . S
C463 C466 1.363 . S
N464 C466 1.356 . S
N464 H476 0.984 . S
N464 H477 0.985 . S
N465 C467 1.356 . S
N465 H470 0.984 . S
N465 H471 0.985 . S
C466 C460 1.379 . S
C466 C463 1.363 . S
C466 N464 1.356 . S
C467 C461 1.363 . S
C467 C462 1.379 . S
C467 N465 1.356 . S
N468 C460 1.356 . S
N468 H474 0.984 . S
N468 H475 0.984 . S
N469 C462 1.356 . S
N469 H472 0.984 . S
N469 H473 0.985 . S
H470 N465 0.984 . S
H471 N465 0.985 . S
H472 N469 0.984 . S
H473 N469 0.985 . S
H474 N468 0.984 . S
H475 N468 0.984 . S
H476 N464 0.984 . S
H477 N464 0.985 . S
C478 C479 1.363 . S
C478 C484 1.379 . S
C478 N486 1.356 . S
C479 C478 1.363 . S
C479 C485 1.363 . S
C480 C481 1.363 . S
C480 C485 1.379 . S
C480 N487 1.356 . S
C481 C480 1.363 . S
C481 C484 1.363 . S
N482 C484 1.356 . S
N482 H494 0.984 . S
N482 H495 0.985 . S
N483 C485 1.356 . S
N483 H488 0.984 . S
N483 H489 0.985 . S
C484 C478 1.379 . S
C484 C481 1.363 . S
C484 N482 1.356 . S
C485 C479 1.363 . S
C485 C480 1.379 . S
C485 N483 1.356 . S
N486 C478 1.356 . S
N486 H492 0.984 . S
N486 H493 0.984 . S
N487 C480 1.356 . S
N487 H490 0.984 . S
N487 H491 0.985 . S
H488 N483 0.984 . S
H489 N483 0.985 . S
H490 N487 0.984 . S
H491 N487 0.985 . S
H492 N486 0.984 . S
H493 N486 0.984 . S
H494 N482 0.984 . S
H495 N482 0.985 . S
C496 C497 1.363 . S
C496 C502 1.379 . S
C496 N504 1.356 . S
C497 C496 1.363 . S
C497 C503 1.363 . S
C498 C499 1.363 . S
C498 C503 1.379 . S
C498 N505 1.356 . S
C499 C498 1.363 . S
C499 C502 1.363 . S
N500 C502 1.356 . S
N500 H512 0.984 . S
N500 H513 0.985 . S
N501 C503 1.356 . S
N501 H506 0.984 . S
N501 H507 0.985 . S
C502 C496 1.379 . S
C502 C499 1.363 . S
C502 N500 1.356 . S
C503 C497 1.363 . S
C503 C498 1.379 . S
C503 N501 1.356 . S
N504 C496 1.356 . S
N504 H510 0.984 . S
N504 H511 0.984 . S
N505 C498 1.356 . S
N505 H508 0.984 . S
N505 H509 0.985 . S
H506 N501 0.984 . S
H507 N501 0.985 . S
H508 N505 0.984 . S
H509 N505 0.985 . S
H510 N504 0.984 . S
H511 N504 0.984 . S
H512 N500 0.984 . S
H513 N500 0.985 . S
C514 C515 1.363 . S
C514 C520 1.379 . S
C514 N522 1.356 . S
C515 C514 1.363 . S
C515 C521 1.363 . S
C516 C517 1.363 . S
C516 C521 1.379 . S
C516 N523 1.356 . S
C517 C516 1.363 . S
C517 C520 1.363 . S
N518 C520 1.356 . S
N518 H530 0.984 . S
N518 H531 0.985 . S
N519 C521 1.356 . S
N519 H524 0.984 . S
N519 H525 0.985 . S
C520 C514 1.379 . S
C520 C517 1.363 . S
C520 N518 1.356 . S
C521 C515 1.363 . S
C521 C516 1.379 . S
C521 N519 1.356 . S
N522 C514 1.356 . S
N522 H528 0.984 . S
N522 H529 0.984 . S
N523 C516 1.356 . S
N523 H526 0.984 1_455 S
N523 H527 0.985 1_455 S
H524 N519 0.984 . S
H525 N519 0.985 . S
H526 N523 0.984 1_655 S
H527 N523 0.985 1_655 S
H528 N522 0.984 . S
H529 N522 0.984 . S
H530 N518 0.984 . S
H531 N518 0.985 . S
C532 C533 1.363 . S
C532 C538 1.379 . S
C532 N540 1.356 . S
C533 C532 1.363 . S
C533 C539 1.363 . S
C534 C535 1.363 . S
C534 C539 1.379 . S
C534 N541 1.356 . S
C535 C534 1.363 . S
C535 C538 1.363 . S
N536 C538 1.356 . S
N536 H548 0.984 . S
N536 H549 0.985 . S
N537 C539 1.356 . S
N537 H542 0.984 . S
N537 H543 0.985 . S
C538 C532 1.379 . S
C538 C535 1.363 . S
C538 N536 1.356 . S
C539 C533 1.363 . S
C539 C534 1.379 . S
C539 N537 1.356 . S
N540 C532 1.356 . S
N540 H546 0.984 . S
N540 H547 0.984 . S
N541 C534 1.356 . S
N541 H544 0.984 . S
N541 H545 0.985 . S
H542 N537 0.984 . S
H543 N537 0.985 . S
H544 N541 0.984 . S
H545 N541 0.985 . S
H546 N540 0.984 . S
H547 N540 0.984 . S
H548 N536 0.984 . S
H549 N536 0.985 . S
C550 C551 1.363 . S
C550 C556 1.379 . S
C550 N558 1.356 . S
C551 C550 1.363 . S
C551 C557 1.363 . S
C552 C553 1.363 . S
C552 C557 1.379 . S
C552 N559 1.356 . S
C553 C552 1.363 . S
C553 C556 1.363 . S
N554 C556 1.356 . S
N554 H566 0.984 . S
N554 H567 0.985 . S
N555 C557 1.356 . S
N555 H560 0.984 . S
N555 H561 0.985 . S
C556 C550 1.379 . S
C556 C553 1.363 . S
C556 N554 1.356 . S
C557 C551 1.363 . S
C557 C552 1.379 . S
C557 N555 1.356 . S
N558 C550 1.356 . S
N558 H564 0.984 . S
N558 H565 0.984 . S
N559 C552 1.356 . S
N559 H562 0.984 . S
N559 H563 0.985 . S
H560 N555 0.984 . S
H561 N555 0.985 . S
H562 N559 0.984 . S
H563 N559 0.985 . S
H564 N558 0.984 . S
H565 N558 0.984 . S
H566 N554 0.984 . S
H567 N554 0.985 . S
C568 C569 1.363 . S
C568 C574 1.379 . S
C568 N576 1.356 . S
C569 C568 1.363 . S
C569 C575 1.363 . S
C570 C571 1.363 . S
C570 C575 1.379 . S
C570 N577 1.356 . S
C571 C570 1.363 . S
C571 C574 1.363 . S
N572 C574 1.356 . S
N572 H584 0.984 . S
N572 H585 0.985 . S
N573 C575 1.356 . S
N573 H578 0.984 . S
N573 H579 0.985 . S
C574 C568 1.379 . S
C574 C571 1.363 . S
C574 N572 1.356 . S
C575 C569 1.363 . S
C575 C570 1.379 . S
C575 N573 1.356 . S
N576 C568 1.356 . S
N576 H582 0.984 . S
N576 H583 0.984 . S
N577 C570 1.356 . S
N577 H580 0.984 . S
N577 H581 0.985 . S
H578 N573 0.984 . S
H579 N573 0.985 . S
H580 N577 0.984 . S
H581 N577 0.985 . S
H582 N576 0.984 . S
H583 N576 0.984 . S
H584 N572 0.984 . S
H585 N572 0.985 . S
C586 C587 1.363 . S
C586 C592 1.379 . S
C586 N594 1.356 . S
C587 C586 1.363 . S
C587 C593 1.363 . S
C588 C589 1.363 . S
C588 C593 1.379 . S
C588 N595 1.356 . S
C589 C588 1.363 . S
C589 C592 1.363 . S
N590 C592 1.356 . S
N590 H602 0.984 . S
N590 H603 0.985 . S
N591 C593 1.356 . S
N591 H596 0.984 . S
N591 H597 0.985 . S
C592 C586 1.379 . S
C592 C589 1.363 . S
C592 N590 1.356 . S
C593 C587 1.363 . S
C593 C588 1.379 . S
C593 N591 1.356 . S
N594 C586 1.356 . S
N594 H600 0.984 . S
N594 H601 0.984 . S
N595 C588 1.356 . S
N595 H598 0.984 1_655 S
N595 H599 0.985 . S
H596 N591 0.984 . S
H597 N591 0.985 . S
H598 N595 0.984 1_455 S
H599 N595 0.985 . S
H600 N594 0.984 . S
H601 N594 0.984 . S
H602 N590 0.984 . S
H603 N590 0.985 . S
C604 C605 1.363 . S
C604 C610 1.379 . S
C604 N612 1.356 . S
C605 C604 1.363 . S
C605 C611 1.363 . S
C606 C607 1.363 . S
C606 C611 1.379 . S
C606 N613 1.356 . S
C607 C606 1.363 . S
C607 C610 1.363 . S
N608 C610 1.356 . S
N608 H620 0.984 1_545 S
N608 H621 0.985 1_545 S
N609 C611 1.356 . S
N609 H614 0.984 . S
N609 H615 0.985 . S
C610 C604 1.379 . S
C610 C607 1.363 . S
C610 N608 1.356 . S
C611 C605 1.363 . S
C611 C606 1.379 . S
C611 N609 1.356 . S
N612 C604 1.356 . S
N612 H618 0.984 . S
N612 H619 0.984 . S
N613 C606 1.356 . S
N613 H616 0.984 . S
N613 H617 0.985 . S
H614 N609 0.984 . S
H615 N609 0.985 . S
H616 N613 0.984 . S
H617 N613 0.985 . S
H618 N612 0.984 . S
H619 N612 0.984 . S
H620 N608 0.984 1_565 S
H621 N608 0.985 1_565 S
C622 C623 1.363 . S
C622 C628 1.379 . S
C622 N630 1.356 . S
C623 C622 1.363 . S
C623 C629 1.363 . S
C624 C625 1.363 . S
C624 C629 1.379 . S
C624 N631 1.356 . S
C625 C624 1.363 . S
C625 C628 1.363 . S
N626 C628 1.356 . S
N626 H638 0.984 . S
N626 H639 0.985 . S
N627 C629 1.356 . S
N627 H632 0.984 . S
N627 H633 0.985 . S
C628 C622 1.379 . S
C628 C625 1.363 . S
C628 N626 1.356 . S
C629 C623 1.363 . S
C629 C624 1.379 . S
C629 N627 1.356 . S
N630 C622 1.356 . S
N630 H636 0.984 . S
N630 H637 0.984 . S
N631 C624 1.356 . S
N631 H634 0.984 . S
N631 H635 0.985 . S
H632 N627 0.984 . S
H633 N627 0.985 . S
H634 N631 0.984 . S
H635 N631 0.985 . S
H636 N630 0.984 . S
H637 N630 0.984 . S
H638 N626 0.984 . S
H639 N626 0.985 . S
C640 C641 1.363 . S
C640 C646 1.379 . S
C640 N648 1.356 . S
C641 C640 1.363 . S
C641 C647 1.363 . S
C642 C643 1.363 . S
C642 C647 1.379 . S
C642 N649 1.356 . S
C643 C642 1.363 . S
C643 C646 1.363 . S
N644 C646 1.356 . S
N644 H656 0.984 . S
N644 H657 0.985 . S
N645 C647 1.356 . S
N645 H650 0.984 . S
N645 H651 0.985 . S
C646 C640 1.379 . S
C646 C643 1.363 . S
C646 N644 1.356 . S
C647 C641 1.363 . S
C647 C642 1.379 . S
C647 N645 1.356 . S
N648 C640 1.356 . S
N648 H654 0.984 . S
N648 H655 0.984 . S
N649 C642 1.356 . S
N649 H652 0.984 . S
N649 H653 0.985 . S
H650 N645 0.984 . S
H651 N645 0.985 . S
H652 N649 0.984 . S
H653 N649 0.985 . S
H654 N648 0.984 . S
H655 N648 0.984 . S
H656 N644 0.984 . S
H657 N644 0.985 . S
C658 C659 1.363 . S
C658 C664 1.379 . S
C658 N666 1.356 . S
C659 C658 1.363 . S
C659 C665 1.363 . S
C660 C661 1.363 . S
C660 C665 1.379 . S
C660 N667 1.356 . S
C661 C660 1.363 . S
C661 C664 1.363 . S
N662 C664 1.356 . S
N662 H674 0.984 . S
N662 H675 0.985 . S
N663 C665 1.356 . S
N663 H668 0.984 . S
N663 H669 0.985 . S
C664 C658 1.379 . S
C664 C661 1.363 . S
C664 N662 1.356 . S
C665 C659 1.363 . S
C665 C660 1.379 . S
C665 N663 1.356 . S
N666 C658 1.356 . S
N666 H672 0.984 . S
N666 H673 0.984 . S
N667 C660 1.356 . S
N667 H670 0.984 . S
N667 H671 0.985 . S
H668 N663 0.984 . S
H669 N663 0.985 . S
H670 N667 0.984 . S
H671 N667 0.985 . S
H672 N666 0.984 . S
H673 N666 0.984 . S
H674 N662 0.984 . S
H675 N662 0.985 . S
C676 C677 1.363 . S
C676 C682 1.379 . S
C676 N684 1.356 . S
C677 C676 1.363 . S
C677 C683 1.363 . S
C678 C679 1.363 . S
C678 C683 1.379 . S
C678 N685 1.356 . S
C679 C678 1.363 . S
C679 C682 1.363 . S
N680 C682 1.356 . S
N680 H692 0.984 . S
N680 H693 0.985 . S
N681 C683 1.356 . S
N681 H686 0.984 . S
N681 H687 0.985 . S
C682 C676 1.379 . S
C682 C679 1.363 . S
C682 N680 1.356 . S
C683 C677 1.363 . S
C683 C678 1.379 . S
C683 N681 1.356 . S
N684 C676 1.356 . S
N684 H690 0.984 . S
N684 H691 0.984 . S
N685 C678 1.356 . S
N685 H688 0.984 . S
N685 H689 0.985 . S
H686 N681 0.984 . S
H687 N681 0.985 . S
H688 N685 0.984 . S
H689 N685 0.985 . S
H690 N684 0.984 . S
H691 N684 0.984 . S
H692 N680 0.984 . S
H693 N680 0.985 . S
C694 C695 1.363 . S
C694 C700 1.379 . S
C694 N702 1.356 . S
C695 C694 1.363 . S
C695 C701 1.363 . S
C696 C697 1.363 . S
C696 C701 1.379 . S
C696 N703 1.356 . S
C697 C696 1.363 . S
C697 C700 1.363 . S
N698 C700 1.356 . S
N698 H710 0.984 . S
N698 H711 0.985 . S
N699 C701 1.356 . S
N699 H704 0.984 . S
N699 H705 0.985 . S
C700 C694 1.379 . S
C700 C697 1.363 . S
C700 N698 1.356 . S
C701 C695 1.363 . S
C701 C696 1.379 . S
C701 N699 1.356 . S
N702 C694 1.356 . S
N702 H708 0.984 . S
N702 H709 0.984 . S
N703 C696 1.356 . S
N703 H706 0.984 . S
N703 H707 0.985 . S
H704 N699 0.984 . S
H705 N699 0.985 . S
H706 N703 0.984 . S
H707 N703 0.985 . S
H708 N702 0.984 . S
H709 N702 0.984 . S
H710 N698 0.984 . S
H711 N698 0.985 . S
C712 C713 1.363 . S
C712 C718 1.379 1_554 S
C712 N720 1.356 . S
C713 C712 1.363 . S
C713 C719 1.363 1_545 S
C714 C715 1.363 . S
C714 C719 1.379 1_556 S
C714 N721 1.356 . S
C715 C714 1.363 . S
C715 C718 1.363 1_565 S
N716 C718 1.356 . S
N716 H728 0.984 . S
N716 H729 0.975 1_545 S
N717 C719 1.356 . S
N717 H722 0.975 1_565 S
N717 H723 0.985 . S
C718 C712 1.379 1_556 S
C718 C715 1.363 1_545 S
C718 N716 1.356 . S
C719 C713 1.363 1_565 S
C719 C714 1.379 1_554 S
C719 N717 1.356 . S
N720 C712 1.356 . S
N720 H726 0.984 . S
N720 H727 0.984 . S
N721 C714 1.356 . S
N721 H724 0.984 . S
N721 H725 0.985 . S
H722 N717 0.975 1_545 S
H723 N717 0.985 . S
H724 N721 0.984 . S
H725 N721 0.985 . S
H726 N720 0.984 . S
H727 N720 0.984 . S
H728 N716 0.984 . S
H729 N716 0.975 1_565 S
C730 C731 1.363 . S
C730 C736 1.379 1_556 S
C730 N738 1.356 . S
C731 C730 1.363 . S
C731 C737 1.363 1_455 S
C732 C733 1.363 . S
C732 C737 1.379 1_554 S
C732 N739 1.356 . S
C733 C732 1.363 . S
C733 C736 1.363 1_655 S
N734 C736 1.356 . S
N734 H746 0.984 . S
N734 H747 0.985 1_455 S
N735 C737 1.356 . S
N735 H740 0.984 1_655 S
N735 H741 0.985 . S
C736 C730 1.379 1_554 S
C736 C733 1.363 1_455 S
C736 N734 1.356 . S
C737 C731 1.363 1_655 S
C737 C732 1.379 1_556 S
C737 N735 1.356 . S
N738 C730 1.356 . S
N738 H744 0.984 . S
N738 H745 0.984 . S
N739 C732 1.356 . S
N739 H742 0.984 . S
N739 H743 0.985 . S
H740 N735 0.984 1_455 S
H741 N735 0.985 . S
H742 N739 0.984 . S
H743 N739 0.985 . S
H744 N738 0.984 . S
H745 N738 0.984 . S
H746 N734 0.984 . S
H747 N734 0.985 1_655 S
C748 C749 1.363 . S
C748 C754 1.379 1_556 S
C748 N756 1.356 . S
C749 C748 1.363 . S
C749 C755 1.363 1_545 S
C750 C751 1.363 . S
C750 C755 1.379 1_554 S
C750 N757 1.356 . S
C751 C750 1.363 . S
C751 C754 1.363 1_565 S
N752 C754 1.356 . S
N752 H764 0.984 . S
N752 H765 0.985 . S
N753 C755 1.356 . S
N753 H758 0.984 . S
N753 H759 0.985 . S
C754 C748 1.379 1_554 S
C754 C751 1.363 1_545 S
C754 N752 1.356 . S
C755 C749 1.363 1_565 S
C755 C750 1.379 1_556 S
C755 N753 1.356 . S
N756 C748 1.356 . S
N756 H762 0.984 . S
N756 H763 0.984 . S
N757 C750 1.356 . S
N757 H760 0.984 . S
N757 H761 0.985 . S
H758 N753 0.984 . S
H759 N753 0.985 . S
H760 N757 0.984 . S
H761 N757 0.985 . S
H762 N756 0.984 . S
H763 N756 0.984 . S
H764 N752 0.984 . S
H765 N752 0.985 . S
C766 C767 1.363 1_455 S
C766 C772 1.379 1_556 S
C766 N774 1.356 . S
C767 C766 1.363 1_655 S
C767 C773 1.363 . S
C768 C769 1.363 1_655 S
C768 C773 1.379 1_554 S
C768 N775 1.356 . S
C769 C768 1.363 1_455 S
C769 C772 1.363 . S
N770 C772 1.356 . S
N770 H782 0.984 . S
N770 H783 0.985 . S
N771 C773 1.356 . S
N771 H776 0.984 . S
N771 H777 0.985 . S
C772 C766 1.379 1_554 S
C772 C769 1.363 . S
C772 N770 1.356 . S
C773 C767 1.363 . S
C773 C768 1.379 1_556 S
C773 N771 1.356 . S
N774 C766 1.356 . S
N774 H780 0.984 . S
N774 H781 0.984 1_455 S
N775 C768 1.356 . S
N775 H778 0.984 1_655 S
N775 H779 0.985 . S
H776 N771 0.984 . S
H777 N771 0.985 . S
H778 N775 0.984 1_455 S
H779 N775 0.985 . S
H780 N774 0.984 . S
H781 N774 0.984 1_655 S
H782 N770 0.984 . S
H783 N770 0.985 . S
C209 C0 1.262 . S
C211 C91 1.262 . S
C227 C13 1.262 . S
C229 C52 1.262 . S
C245 C65 1.262 . S
C247 C26 1.262 . S
C263 C39 1.262 . S
C265 C78 1.262 . S
C281 C104 1.262 . S
C283 C195 1.262 . S
C299 C156 1.262 . S
C301 C117 1.262 . S
C317 C169 1.262 . S
C319 C130 1.262 . S
C335 C182 1.262 . S
C337 C143 1.262 . S
C353 C5 1.197 . S
C355 C153 1.343 . S
C371 C18 1.197 . S
C373 C114 1.343 . S
C389 C127 1.343 . S
C391 C31 1.197 . S
C407 C44 1.197 . S
C409 C140 1.343 . S
C425 C57 1.197 . S
C427 C179 1.343 . S
C443 C192 1.343 . S
C445 C70 1.197 . S
C461 C83 1.197 . S
C463 C205 1.343 . S
C479 C166 1.343 . S
C481 C96 1.197 . S
C497 C109 1.197 . S
C499 C49 1.343 . S
C515 C10 1.343 . S
C517 C122 1.197 . S
C533 C135 1.197 . S
C535 C23 1.343 . S
C551 C36 1.343 . S
C553 C148 1.197 . S
C569 C161 1.197 . S
C571 C75 1.343 . S
C587 C88 1.343 . S
C589 C174 1.197 . S
C605 C101 1.343 . S
C607 C187 1.197 . S
C623 C62 1.343 . S
C625 C200 1.197 . S
C641 C60 1.510 . S
C643 C8 1.510 . S
C659 C73 1.509 . S
C661 C21 1.509 . S
C677 C34 1.509 . S
C679 C86 1.509 . S
C695 C99 1.510 . S
C697 C47 1.510 . S
C713 C164 1.509 . S
C715 C112 1.509 . S
C731 C177 1.509 . S
C733 C125 1.509 . S
C749 C138 1.509 . S
C751 C190 1.509 . S
C767 C203 1.509 . S
C769 C151 1.509 . S
