# Generated by pormake.
# Topology wje, (4)-cn, num edge types: 1
# Building blocks:
#     Node 0, Type 0, BuildingBlock: AZAVOO_clean_sbu_0, # of connection points: 4
#     Node 1, Type 0, BuildingBlock: AZAVOO_clean_sbu_0, # of connection points: 4
#     Node 2, Type 0, BuildingBlock: AZAVOO_clean_sbu_0, # of connection points: 4
#     Node 3, Type 0, BuildingBlock: AZAVOO_clean_sbu_0, # of connection points: 4
#     Node 4, Type 0, BuildingBlock: AZAVOO_clean_sbu_0, # of connection points: 4
#     Node 5, Type 0, BuildingBlock: AZAVOO_clean_sbu_0, # of connection points: 4
#     Node 6, Type 0, BuildingBlock: AZAVOO_clean_sbu_0, # of connection points: 4
#     Node 7, Type 0, BuildingBlock: AZAVOO_clean_sbu_0, # of connection points: 4
#     Node 8, Type 0, BuildingBlock: AZAVOO_clean_sbu_0, # of connection points: 4
#     Node 9, Type 0, BuildingBlock: AZAVOO_clean_sbu_0, # of connection points: 4
#     Node 10, Type 0, BuildingBlock: AZAVOO_clean_sbu_0, # of connection points: 4
#     Node 11, Type 0, BuildingBlock: AZAVOO_clean_sbu_0, # of connection points: 4
#     Edge 12, Type (0, 0), BuildingBlock: XUDNAN_clean_linker_2, # of connection points: 2
#     Edge 13, Type (0, 0), BuildingBlock: XUDNAN_clean_linker_2, # of connection points: 2
#     Edge 14, Type (0, 0), BuildingBlock: XUDNAN_clean_linker_2, # of connection points: 2
#     Edge 15, Type (0, 0), BuildingBlock: XUDNAN_clean_linker_2, # of connection points: 2
#     Edge 16, Type (0, 0), BuildingBlock: XUDNAN_clean_linker_2, # of connection points: 2
#     Edge 17, Type (0, 0), BuildingBlock: XUDNAN_clean_linker_2, # of connection points: 2
#     Edge 18, Type (0, 0), BuildingBlock: XUDNAN_clean_linker_2, # of connection points: 2
#     Edge 19, Type (0, 0), BuildingBlock: XUDNAN_clean_linker_2, # of connection points: 2
#     Edge 20, Type (0, 0), BuildingBlock: XUDNAN_clean_linker_2, # of connection points: 2
#     Edge 21, Type (0, 0), BuildingBlock: XUDNAN_clean_linker_2, # of connection points: 2
#     Edge 22, Type (0, 0), BuildingBlock: XUDNAN_clean_linker_2, # of connection points: 2
#     Edge 23, Type (0, 0), BuildingBlock: XUDNAN_clean_linker_2, # of connection points: 2
#     Edge 24, Type (0, 0), BuildingBlock: XUDNAN_clean_linker_2, # of connection points: 2
#     Edge 25, Type (0, 0), BuildingBlock: XUDNAN_clean_linker_2, # of connection points: 2
#     Edge 26, Type (0, 0), BuildingBlock: XUDNAN_clean_linker_2, # of connection points: 2
#     Edge 27, Type (0, 0), BuildingBlock: XUDNAN_clean_linker_2, # of connection points: 2
#     Edge 28, Type (0, 0), BuildingBlock: XUDNAN_clean_linker_2, # of connection points: 2
#     Edge 29, Type (0, 0), BuildingBlock: XUDNAN_clean_linker_2, # of connection points: 2
#     Edge 30, Type (0, 0), BuildingBlock: XUDNAN_clean_linker_2, # of connection points: 2
#     Edge 31, Type (0, 0), BuildingBlock: XUDNAN_clean_linker_2, # of connection points: 2
#     Edge 32, Type (0, 0), BuildingBlock: XUDNAN_clean_linker_2, # of connection points: 2
#     Edge 33, Type (0, 0), BuildingBlock: XUDNAN_clean_linker_2, # of connection points: 2
#     Edge 34, Type (0, 0), BuildingBlock: XUDNAN_clean_linker_2, # of connection points: 2
#     Edge 35, Type (0, 0), BuildingBlock: XUDNAN_clean_linker_2, # of connection points: 2
# Relax obj value: 0.161
# Max RMSD: 0.140
# Mean RMSD: 0.139
data_MOF--net-wje--node1-AZAVOO_clean_sbu_0--edge1-XUDNAN_clean_linker_2
_symmetry_space_group_name_H-M    P1
_symmetry_Int_Tables_number       1
_symmetry_cell_setting            triclinic
loop_
_symmetry_equiv_pos_as_xyz
'x, y, z'
_cell_length_a     43.799764
_cell_length_b     43.855232
_cell_length_c     29.741679
_cell_angle_alpha  90.181396
_cell_angle_beta   89.838422
_cell_angle_gamma 119.91317
loop_
_atom_site_label
_atom_site_type_symbol
_atom_site_fract_x
_atom_site_fract_y
_atom_site_fract_z
_atom_type_partial_charge
Mg0 Mg 0.33742 0.03103 0.21276 0.0
O1 O 0.32094 0.0109 0.28503 0.0
O2 O 0.35778 0.05382 0.33156 0.0
Mg3 Mg 0.40033 0.09861 0.28965 0.0
C4 C 0.3313 0.02334 0.32453 0.0
C5 C 0.25521 0.96356 0.19214 0.0
O6 O 0.22913 0.95141 0.16319 0.0
O7 O 0.31796 0.07065 0.22028 0.0
O8 O 0.36029 0.11296 0.26186 0.0
O9 O 0.37318 0.0076 0.20962 0.0
O10 O 0.3894 0.06085 0.23441 0.0
C11 C 0.3321 0.10102 0.23867 0.0
C12 C 0.39747 0.03684 0.22688 0.0
O13 O 0.28377 0.99141 0.1821 0.0
Mg14 Mg 0.36096 0.33103 0.58955 0.0
O15 O 0.35887 0.33964 0.66501 0.0
O16 O 0.37028 0.39445 0.67832 0.0
Mg17 Mg 0.383 0.42208 0.60967 0.0
C18 C 0.36253 0.36386 0.692 0.0
C19 C 0.3434 0.2604 0.63274 0.0
O20 O 0.37213 0.28268 0.65436 0.0
O21 O 0.30913 0.33005 0.57862 0.0
O22 O 0.32569 0.38691 0.58597 0.0
O23 O 0.41777 0.3478 0.59511 0.0
O24 O 0.39815 0.38455 0.58186 0.0
C25 C 0.30238 0.35514 0.57696 0.0
C26 C 0.42447 0.37982 0.58946 0.0
O27 O 0.33179 0.27189 0.60191 0.0
Mg28 Mg 0.97972 0.28788 0.88285 0.0
O29 O 0.99016 0.28363 0.95782 0.0
O30 O 0.94918 0.28917 0.99619 0.0
Mg31 Mg 0.91342 0.29719 0.9477 0.0
C32 C 0.97605 0.28503 0.99492 0.0
C33 C 0.03982 0.26128 0.87035 0.0
O34 O 0.04722 0.24051 0.84652 0.0
O35 O 0.93134 0.23299 0.88271 0.0
O36 O 0.89137 0.24145 0.91867 0.0
O37 O 0.01455 0.34653 0.88759 0.0
O38 O 0.95726 0.3188 0.89952 0.0
C39 C 0.90004 0.22166 0.89707 0.0
C40 C 0.98682 0.34775 0.89996 0.0
O41 O 0.01274 0.26325 0.85963 0.0
Mg42 Mg 0.68626 0.05207 0.21986 0.0
O43 O 0.67685 0.03831 0.29405 0.0
O44 O 0.62415 0.99077 0.30454 0.0
Mg45 Mg 0.59835 0.97523 0.23456 0.0
C46 C 0.65331 0.01547 0.31977 0.0
C47 C 0.76168 0.08173 0.26398 0.0
O48 O 0.74686 0.04985 0.28087 0.0
O49 O 0.69508 0.00554 0.20567 0.0
O50 O 0.63951 0.96098 0.20907 0.0
O51 O 0.66225 0.08584 0.22946 0.0
O52 O 0.63135 0.02976 0.21061 0.0
C53 C 0.67225 0.97299 0.20111 0.0
C54 C 0.6318 0.05829 0.22244 0.0
O55 O 0.74443 0.08942 0.23633 0.0
Mg56 Mg 0.70287 0.66436 0.57862 0.0
O57 O 0.7029 0.65783 0.65483 0.0
O58 O 0.70727 0.61045 0.67069 0.0
Mg59 Mg 0.7084 0.58549 0.60346 0.0
C60 C 0.70474 0.63698 0.68304 0.0
C61 C 0.68819 0.72659 0.59244 0.0
O62 O 0.65651 0.70159 0.58107 0.0
O63 O 0.76229 0.68364 0.57381 0.0
O64 O 0.76195 0.63332 0.58637 0.0
O65 O 0.64408 0.63014 0.57909 0.0
O66 O 0.68067 0.60976 0.57021 0.0
C67 C 0.77834 0.66611 0.57702 0.0
C68 C 0.6488 0.60338 0.57518 0.0
O69 O 0.7134 0.72005 0.59214 0.0
Mg70 Mg 0.96221 0.61189 0.93893 0.0
O71 O 0.99272 0.63064 0.00459 0.0
O72 O 0.04451 0.63255 0.99722 0.0
Mg73 Mg 0.04494 0.60987 0.92766 0.0
C74 C 0.02256 0.6374 0.02009 0.0
C75 C 0.8943 0.61381 0.97104 0.0
O76 O 0.8796 0.58002 0.96221 0.0
O77 O 0.0004 0.66481 0.90492 0.0
O78 O 0.04709 0.65768 0.8951 0.0
O79 O 0.93692 0.55532 0.96285 0.0
O80 O 0.98721 0.58288 0.9259 0.0
C81 C 0.03127 0.67515 0.8893 0.0
C82 C 0.96454 0.55539 0.94714 0.0
O83 O 0.92708 0.63351 0.96381 0.0
Mg84 Mg 0.08038 0.71477 0.44123 0.0
O85 O 0.06281 0.70401 0.36803 0.0
O86 O 0.0172 0.64945 0.36125 0.0
Mg87 Mg 0.00507 0.62479 0.43143 0.0
C88 C 0.03974 0.6789 0.34419 0.0
C89 C 0.14875 0.78486 0.42367 0.0
O90 O 0.16038 0.76531 0.44178 0.0
O91 O 0.03288 0.72158 0.46067 0.0
O92 O 0.99075 0.66499 0.4579 0.0
O93 O 0.11471 0.69173 0.42626 0.0
O94 O 0.06011 0.66024 0.45076 0.0
C95 C 0.00095 0.6972 0.4666 0.0
C96 C 0.08784 0.66115 0.43461 0.0
O97 O 0.11563 0.77274 0.4218 0.0
Mg98 Mg 0.28294 0.95929 0.72826 0.0
O99 O 0.27828 0.94774 0.65267 0.0
O100 O 0.28746 0.90275 0.64002 0.0
Mg101 Mg 0.29733 0.88507 0.70807 0.0
C102 C 0.28089 0.92634 0.62592 0.0
C103 C 0.27828 0.02538 0.73661 0.0
O104 O 0.30237 0.02941 0.766 0.0
O105 O 0.22858 0.9118 0.74103 0.0
O106 O 0.24093 0.86862 0.73079 0.0
O107 O 0.34023 0.99482 0.7192 0.0
O108 O 0.31663 0.93833 0.7351 0.0
C109 C 0.21935 0.87921 0.74097 0.0
C110 C 0.34414 0.96772 0.7246 0.0
O111 O 0.2614 0.99611 0.71624 0.0
Mg112 Mg 0.30607 0.36838 0.10756 0.0
O113 O 0.32448 0.36186 0.03764 0.0
O114 O 0.37843 0.36872 0.04514 0.0
Mg115 Mg 0.39625 0.38404 0.11804 0.0
C116 C 0.35167 0.36227 0.02129 0.0
C117 C 0.23598 0.36412 0.08069 0.0
O118 O 0.25375 0.39584 0.09806 0.0
O119 O 0.29836 0.31451 0.12932 0.0
O120 O 0.35445 0.32884 0.1405 0.0
O121 O 0.32868 0.42555 0.0941 0.0
O122 O 0.35877 0.40322 0.12537 0.0
C123 C 0.32148 0.30675 0.14229 0.0
C124 C 0.35846 0.43017 0.10877 0.0
O125 O 0.2497 0.34446 0.08101 0.0
Mg126 Mg 0.03975 0.36363 0.39481 0.0
O127 O 0.04862 0.35739 0.32092 0.0
O128 O 0.10139 0.39964 0.29797 0.0
Mg129 Mg 0.12479 0.43769 0.35793 0.0
C130 C 0.07217 0.3716 0.29067 0.0
C131 C 0.97051 0.30014 0.36278 0.0
O132 O 0.973 0.32616 0.33826 0.0
O133 O 0.07999 0.347 0.41587 0.0
O134 O 0.12977 0.39637 0.39826 0.0
O135 O 0.01588 0.39771 0.37891 0.0
O136 O 0.07262 0.41808 0.38922 0.0
C137 C 0.11361 0.36593 0.41629 0.0
C138 C 0.04763 0.42423 0.37978 0.0
O139 O 0.99396 0.30676 0.39242 0.0
Mg140 Mg 0.6186 0.95581 0.7353 0.0
O141 O 0.6327 0.9816 0.66583 0.0
O142 O 0.63387 0.03317 0.67052 0.0
Mg143 Mg 0.61489 0.0377 0.74093 0.0
C144 C 0.63786 0.01036 0.64843 0.0
C145 C 0.66714 0.92031 0.72584 0.0
O146 O 0.68737 0.94444 0.75505 0.0
O147 O 0.67285 0.99745 0.76245 0.0
O148 O 0.66573 0.0442 0.7708 0.0
O149 O 0.56124 0.92743 0.71628 0.0
O150 O 0.58908 0.98028 0.74725 0.0
C151 C 0.6839 0.029 0.77562 0.0
C152 C 0.56107 0.95565 0.72872 0.0
O153 O 0.63862 0.91864 0.71314 0.0
Mg154 Mg 0.65985 0.6877 0.10012 0.0
O155 O 0.66427 0.6823 0.02485 0.0
O156 O 0.62449 0.68878 0.9863 0.0
Mg157 Mg 0.59125 0.6965 0.04035 0.0
C158 C 0.65045 0.6833 0.98777 0.0
C159 C 0.71355 0.66388 0.08752 0.0
O160 O 0.68311 0.63686 0.07597 0.0
O161 O 0.68331 0.74799 0.09545 0.0
O162 O 0.63756 0.74883 0.06374 0.0
O163 O 0.62025 0.62986 0.10535 0.0
O164 O 0.60567 0.67045 0.09331 0.0
C165 C 0.66803 0.76472 0.08191 0.0
C166 C 0.59595 0.63769 0.09763 0.0
O167 O 0.714 0.69114 0.10336 0.0
H168 H 0.3618 0.1704 0.26125 0.0
H169 H 0.27184 0.0866 0.19194 0.0
H170 H 0.25438 0.12952 0.16683 0.0
H171 H 0.32072 0.22348 0.29417 0.0
H172 H 0.36109 0.26405 0.28386 0.0
H173 H 0.36255 0.22571 0.30243 0.0
H174 H 0.40097 0.23075 0.23328 0.0
H175 H 0.39945 0.26883 0.21436 0.0
H176 H 0.38507 0.23138 0.17763 0.0
H177 H 0.25074 0.18384 0.14266 0.0
H178 H 0.26295 0.24337 0.11994 0.0
H179 H 0.35664 0.28996 0.20309 0.0
C180 C 0.33782 0.16068 0.24186 0.0
C181 C 0.31809 0.12497 0.2289 0.0
C182 C 0.2873 0.11376 0.20263 0.0
C183 C 0.27714 0.13797 0.18826 0.0
C184 C 0.29797 0.17325 0.20051 0.0
C185 C 0.32762 0.18442 0.22692 0.0
C186 C 0.34781 0.22399 0.23177 0.0
C187 C 0.34804 0.23494 0.28098 0.0
C188 C 0.38553 0.23963 0.21313 0.0
C189 C 0.32563 0.23361 0.20281 0.0
C190 C 0.29654 0.20413 0.18568 0.0
C191 C 0.27324 0.20703 0.15634 0.0
C192 C 0.2803 0.24089 0.14366 0.0
C193 C 0.31078 0.2712 0.15966 0.0
C194 C 0.33316 0.26727 0.19022 0.0
H195 H 0.28462 0.40348 0.54975 0.0
H196 H 0.24224 0.29094 0.56327 0.0
H197 H 0.187 0.28028 0.52662 0.0
H198 H 0.20258 0.40448 0.56663 0.0
H199 H 0.21428 0.43843 0.52515 0.0
H200 H 0.24822 0.43646 0.55686 0.0
H201 H 0.2781 0.43428 0.48242 0.0
H202 H 0.24408 0.43582 0.45052 0.0
H203 H 0.25303 0.40034 0.44174 0.0
H204 H 0.13668 0.28282 0.48447 0.0
H205 H 0.09842 0.29862 0.44019 0.0
H206 H 0.17746 0.40895 0.45264 0.0
C207 C 0.26355 0.37653 0.54599 0.0
C208 C 0.26771 0.34808 0.55977 0.0
C209 C 0.23959 0.31322 0.55321 0.0
C210 C 0.20811 0.3069 0.53244 0.0
C211 C 0.20531 0.33571 0.51828 0.0
C212 C 0.23241 0.36981 0.52494 0.0
C213 C 0.22438 0.39634 0.50416 0.0
C214 C 0.22222 0.42033 0.54036 0.0
C215 C 0.2515 0.41794 0.46754 0.0
C216 C 0.1887 0.37196 0.48416 0.0
C217 C 0.17765 0.33707 0.49295 0.0
C218 C 0.14518 0.31011 0.47744 0.0
C219 C 0.12365 0.31924 0.45231 0.0
C220 C 0.13517 0.35493 0.44241 0.0
C221 C 0.16805 0.38134 0.45887 0.0
H222 H 0.70395 0.08257 0.83509 0.0
H223 H 0.74262 0.02191 0.7644 0.0
H224 H 0.8024 0.06125 0.7951 0.0
H225 H 0.77493 0.16457 0.8151 0.0
H226 H 0.77414 0.18277 0.86923 0.0
H227 H 0.73426 0.14734 0.84619 0.0
H228 H 0.72553 0.11027 0.91784 0.0
H229 H 0.76547 0.14572 0.94121 0.0
H230 H 0.76025 0.10242 0.93593 0.0
H231 H 0.85944 0.11265 0.82598 0.0
H232 H 0.90721 0.16913 0.85574 0.0
H233 H 0.82912 0.19347 0.90789 0.0
C234 C 0.72484 0.07715 0.82657 0.0
C235 C 0.71877 0.04934 0.79723 0.0
C236 C 0.74673 0.04302 0.78705 0.0
C237 C 0.78072 0.06522 0.80431 0.0
C238 C 0.78594 0.09304 0.83236 0.0
C239 C 0.75851 0.09862 0.84387 0.0
C240 C 0.77092 0.13126 0.87236 0.0
C241 C 0.76311 0.15805 0.84932 0.0
C242 C 0.75457 0.12184 0.91964 0.0
C243 C 0.80994 0.14416 0.87374 0.0
C244 C 0.81823 0.12174 0.85087 0.0
C245 C 0.85312 0.12999 0.84469 0.0
C246 C 0.88009 0.16218 0.86166 0.0
C247 C 0.87199 0.18573 0.88448 0.0
C248 C 0.83635 0.17596 0.89131 0.0
H249 H 0.63824 0.80491 0.06391 0.0
H250 H 0.72879 0.80935 0.12942 0.0
H251 H 0.74433 0.86767 0.16131 0.0
H252 H 0.67548 0.90019 0.04279 0.0
H253 H 0.63392 0.89738 0.05569 0.0
H254 H 0.63482 0.86022 0.03115 0.0
H255 H 0.59688 0.82121 0.09724 0.0
H256 H 0.59628 0.85821 0.12235 0.0
H257 H 0.61215 0.83401 0.15413 0.0
H258 H 0.74579 0.92372 0.19234 0.0
H259 H 0.73151 0.96862 0.22078 0.0
H260 H 0.6369 0.92197 0.13959 0.0
C261 C 0.66202 0.8184 0.08382 0.0
C262 C 0.68241 0.80245 0.09379 0.0
C263 C 0.71293 0.82109 0.12078 0.0
C264 C 0.7219 0.85424 0.13913 0.0
C265 C 0.70006 0.86829 0.13024 0.0
C266 C 0.67079 0.8508 0.10297 0.0
C267 C 0.64893 0.86869 0.1025 0.0
C268 C 0.64827 0.88244 0.05522 0.0
C269 C 0.61137 0.84406 0.12012 0.0
C270 C 0.66977 0.89856 0.13478 0.0
C271 C 0.69968 0.89866 0.14976 0.0
C272 C 0.7225 0.92385 0.18056 0.0
C273 C 0.71424 0.9492 0.19657 0.0
C274 C 0.68295 0.94839 0.18266 0.0
C275 C 0.66082 0.92294 0.15111 0.0
H276 H 0.94862 0.65516 0.52296 0.0
H277 H 0.99325 0.75581 0.45538 0.0
H278 H 0.94352 0.76291 0.48346 0.0
H279 H 0.86195 0.62555 0.49769 0.0
H280 H 0.84478 0.60379 0.55069 0.0
H281 H 0.88583 0.60949 0.52987 0.0
H282 H 0.91692 0.64152 0.60362 0.0
H283 H 0.87581 0.63582 0.62481 0.0
H284 H 0.914 0.67918 0.62209 0.0
H285 H 0.88357 0.75411 0.5123 0.0
H286 H 0.82234 0.73149 0.53929 0.0
H287 H 0.82056 0.63768 0.5889 0.0
C288 C 0.94831 0.67903 0.51456 0.0
C289 C 0.97458 0.70486 0.48681 0.0
C290 C 0.97339 0.73579 0.47682 0.0
C291 C 0.94524 0.73995 0.4926 0.0
C292 C 0.91913 0.71329 0.51901 0.0
C293 C 0.92095 0.68369 0.53035 0.0
C294 C 0.88913 0.65771 0.55685 0.0
C295 C 0.86926 0.62206 0.53229 0.0
C296 C 0.8996 0.65332 0.60468 0.0
C297 C 0.86816 0.67648 0.55738 0.0
C298 C 0.88577 0.70866 0.5359 0.0
C299 C 0.86992 0.72922 0.52981 0.0
C300 C 0.83513 0.71618 0.5453 0.0
C301 C 0.81653 0.68279 0.56632 0.0
C302 C 0.83389 0.66337 0.57322 0.0
H303 H 0.19065 0.80806 0.74043 0.0
H304 H 0.16776 0.89019 0.77853 0.0
H305 H 0.11205 0.8454 0.81395 0.0
H306 H 0.09911 0.73744 0.72003 0.0
H307 H 0.10784 0.70474 0.74364 0.0
H308 H 0.1425 0.74259 0.71552 0.0
H309 H 0.1815 0.75749 0.78673 0.0
H310 H 0.147 0.71996 0.8151 0.0
H311 H 0.16492 0.76309 0.83982 0.0
H312 H 0.06172 0.79113 0.85325 0.0
H313 H 0.02375 0.73427 0.89205 0.0
H314 H 0.08223 0.69037 0.82762 0.0
C315 C 0.17366 0.81674 0.75524 0.0
C316 C 0.18363 0.85269 0.75658 0.0
C317 C 0.16061 0.86275 0.77679 0.0
C318 C 0.12889 0.83748 0.79699 0.0
C319 C 0.12051 0.80231 0.79632 0.0
C320 C 0.14227 0.79208 0.77554 0.0
C321 C 0.12959 0.75355 0.78266 0.0
C322 C 0.11913 0.7334 0.73779 0.0
C323 C 0.1574 0.74824 0.80756 0.0
C324 C 0.09778 0.74371 0.81179 0.0
C325 C 0.09241 0.77182 0.81901 0.0
C326 C 0.06549 0.76888 0.84727 0.0
C327 C 0.04403 0.73655 0.86913 0.0
C328 C 0.05017 0.70802 0.86301 0.0
C329 C 0.07691 0.7117 0.83319 0.0
H330 H 0.42587 0.99475 0.20542 0.0
H331 H 0.45132 0.09434 0.26773 0.0
H332 H 0.51258 0.10833 0.27736 0.0
H333 H 0.48598 0.97763 0.27445 0.0
H334 H 0.49807 0.95946 0.22783 0.0
H335 H 0.45501 0.9553 0.22966 0.0
H336 H 0.46598 0.9847 0.15139 0.0
H337 H 0.5091 0.98914 0.14942 0.0
H338 H 0.50428 0.02737 0.14278 0.0
H339 H 0.57187 0.11429 0.27498 0.0
H340 H 0.62577 0.11108 0.26229 0.0
H341 H 0.56352 0.008 0.20114 0.0
C342 C 0.44417 0.01916 0.22193 0.0
C343 C 0.43347 0.04323 0.23632 0.0
C344 C 0.45849 0.0752 0.25693 0.0
C345 C 0.49353 0.08348 0.2625 0.0
C346 C 0.50335 0.05958 0.24727 0.0
C347 C 0.47948 0.02798 0.22761 0.0
C348 C 0.49763 0.00796 0.21203 0.0
C349 C 0.48332 0.97301 0.23752 0.0
C350 C 0.49403 0.00195 0.16087 0.0
C351 C 0.53544 0.03363 0.22524 0.0
C352 C 0.53799 0.06311 0.24576 0.0
C353 C 0.5702 0.09118 0.25938 0.0
C354 C 0.60072 0.08915 0.25186 0.0
C355 C 0.59893 0.05925 0.23088 0.0
C356 C 0.56573 0.03105 0.21767 0.0
H357 H 0.57808 0.5813 0.58214 0.0
H358 H 0.65179 0.54242 0.57527 0.0
H359 H 0.60277 0.48179 0.58279 0.0
H360 H 0.51662 0.51701 0.66124 0.0
H361 H 0.47819 0.51264 0.63324 0.0
H362 H 0.51931 0.55354 0.63027 0.0
H363 H 0.51655 0.55086 0.54323 0.0
H364 H 0.47539 0.51005 0.54596 0.0
H365 H 0.51182 0.5124 0.51471 0.0
H366 H 0.54607 0.4253 0.59092 0.0
H367 H 0.4848 0.37621 0.59282 0.0
H368 H 0.44711 0.4509 0.58943 0.0
C369 C 0.58395 0.56006 0.58258 0.0
C370 C 0.61902 0.56684 0.57913 0.0
C371 C 0.62541 0.53819 0.57893 0.0
C372 C 0.59765 0.50351 0.58304 0.0
C373 C 0.56351 0.49778 0.58671 0.0
C374 C 0.55644 0.52516 0.58599 0.0
C375 C 0.51711 0.51151 0.58795 0.0
C376 C 0.50724 0.52445 0.63073 0.0
C377 C 0.50449 0.52182 0.54543 0.0
C378 C 0.50326 0.47221 0.58967 0.0
C379 C 0.53053 0.46494 0.5895 0.0
C380 C 0.52446 0.43063 0.59101 0.0
C381 C 0.48954 0.40292 0.59218 0.0
C382 C 0.46108 0.40963 0.59131 0.0
C383 C 0.46819 0.44482 0.59027 0.0
H384 H 0.91946 0.48491 0.93389 0.0
H385 H 0.02547 0.56021 0.97628 0.0
H386 H 0.04163 0.51386 0.97432 0.0
H387 H 0.91403 0.4075 0.99599 0.0
H388 H 0.88936 0.3775 0.95124 0.0
H389 H 0.88476 0.41551 0.96195 0.0
H390 H 0.90117 0.43483 0.87904 0.0
H391 H 0.90625 0.39723 0.86822 0.0
H392 H 0.94212 0.44085 0.85668 0.0
H393 H 0.04883 0.46215 0.95697 0.0
H394 H 0.04495 0.40652 0.93182 0.0
H395 H 0.93374 0.36339 0.90377 0.0
C396 C 0.94567 0.49121 0.94419 0.0
C397 C 0.9714 0.52614 0.95473 0.0
C398 C 0.00566 0.53376 0.96711 0.0
C399 C 0.01498 0.50753 0.96651 0.0
C400 C 0.98958 0.47364 0.95393 0.0
C401 C 0.95541 0.46518 0.94376 0.0
C402 C 0.93396 0.42724 0.92832 0.0
C403 C 0.90374 0.40566 0.96136 0.0
C404 C 0.92008 0.42493 0.88021 0.0
C405 C 0.96171 0.41622 0.92995 0.0
C406 C 0.99357 0.44335 0.94501 0.0
C407 C 0.02385 0.44043 0.94603 0.0
C408 C 0.02148 0.40887 0.9314 0.0
C409 C 0.98903 0.38064 0.91625 0.0
C410 C 0.95876 0.38436 0.91596 0.0
H411 H 0.03675 0.59279 0.45129 0.0
H412 H 0.1374 0.65568 0.38447 0.0
H413 H 0.135 0.60141 0.35671 0.0
H414 H 0.05121 0.52407 0.48676 0.0
H415 H 0.00644 0.48965 0.47744 0.0
H416 H 0.01567 0.53353 0.49047 0.0
H417 H 0.9834 0.53401 0.41779 0.0
H418 H 0.97438 0.49019 0.40429 0.0
H419 H 0.99714 0.52532 0.36438 0.0
H420 H 0.12296 0.54055 0.339 0.0
H421 H 0.1037 0.47725 0.33612 0.0
H422 H 0.0099 0.45375 0.41207 0.0
C423 C 0.05811 0.59524 0.43039 0.0
C424 C 0.08713 0.62855 0.41974 0.0
C425 C 0.11489 0.63047 0.3931 0.0
C426 C 0.11365 0.5998 0.37689 0.0
C427 C 0.08439 0.56743 0.38743 0.0
C428 C 0.05717 0.56492 0.41369 0.0
C429 C 0.02938 0.52686 0.42158 0.0
C430 C 0.02547 0.51802 0.47205 0.0
C431 C 0.99398 0.51862 0.40076 0.0
C432 C 0.04557 0.5083 0.3964 0.0
C433 C 0.07718 0.53224 0.37667 0.0
C434 C 0.09813 0.52156 0.35397 0.0
C435 C 0.08704 0.48558 0.35262 0.0
C436 C 0.0553 0.46072 0.37369 0.0
C437 C 0.03386 0.47218 0.39475 0.0
H438 H 0.49063 0.91013 0.7421 0.0
H439 H 0.56485 0.0138 0.6914 0.0
H440 H 0.51655 0.0264 0.68024 0.0
H441 H 0.41634 0.89448 0.6674 0.0
H442 H 0.38383 0.8726 0.7108 0.0
H443 H 0.42374 0.87019 0.71068 0.0
H444 H 0.43702 0.89473 0.79201 0.0
H445 H 0.39729 0.89734 0.79231 0.0
H446 H 0.43903 0.93599 0.80423 0.0
H447 H 0.4618 0.02982 0.68011 0.0
H448 H 0.40322 0.02377 0.69043 0.0
H449 H 0.36337 0.91787 0.74148 0.0
C450 C 0.49643 0.93515 0.72785 0.0
C451 C 0.53142 0.96122 0.71806 0.0
C452 C 0.53832 0.99385 0.70006 0.0
C453 C 0.511 0.00109 0.69314 0.0
C454 C 0.47688 0.97533 0.70431 0.0
C455 C 0.46936 0.94293 0.72108 0.0
C456 C 0.43063 0.92088 0.73301 0.0
C457 C 0.41257 0.88756 0.70371 0.0
C458 C 0.42572 0.91171 0.78338 0.0
C459 C 0.41787 0.94628 0.72124 0.0
C460 C 0.44498 0.97737 0.70432 0.0
C461 C 0.44022 0.00547 0.69285 0.0
C462 C 0.40686 0.0018 0.699 0.0
C463 C 0.37868 0.97031 0.71659 0.0
C464 C 0.38428 0.94211 0.72749 0.0
H465 H 0.42689 0.44693 0.12694 0.0
H466 H 0.36402 0.49147 0.07874 0.0
H467 H 0.41805 0.54887 0.06906 0.0
H468 H 0.49034 0.522 0.18773 0.0
H469 H 0.52705 0.51638 0.17225 0.0
H470 H 0.48342 0.47871 0.17552 0.0
H471 H 0.48886 0.46217 0.09335 0.0
H472 H 0.53253 0.49983 0.08979 0.0
H473 H 0.4995 0.49414 0.04936 0.0
H474 H 0.47817 0.60173 0.06761 0.0
H475 H 0.54085 0.64647 0.0719 0.0
H476 H 0.56563 0.56702 0.11608 0.0
C477 C 0.42438 0.46856 0.11401 0.0
C478 C 0.39111 0.46453 0.10339 0.0
C479 C 0.38917 0.49383 0.08702 0.0
C480 C 0.41972 0.52655 0.08136 0.0
C481 C 0.45206 0.52951 0.09181 0.0
C482 C 0.45467 0.50131 0.10753 0.0
C483 C 0.49274 0.51158 0.11599 0.0
C484 C 0.49873 0.50689 0.16584 0.0
C485 C 0.50407 0.49069 0.08528 0.0
C486 C 0.51107 0.5501 0.10304 0.0
C487 C 0.48703 0.55985 0.08936 0.0
C488 C 0.49732 0.59432 0.07762 0.0
C489 C 0.53313 0.61959 0.08 0.0
C490 C 0.55841 0.61025 0.09344 0.0
C491 C 0.54709 0.57492 0.10492 0.0
H492 H 0.13451 0.83235 0.3818 0.0
H493 H 0.21884 0.81 0.40802 0.0
H494 H 0.25777 0.8578 0.35675 0.0
H495 H 0.1491 0.84838 0.26841 0.0
H496 H 0.14007 0.8842 0.26625 0.0
H497 H 0.12015 0.85127 0.30926 0.0
H498 H 0.14646 0.89961 0.37084 0.0
H499 H 0.16632 0.93281 0.3279 0.0
H500 H 0.19323 0.93003 0.37165 0.0
H501 H 0.28405 0.90105 0.29312 0.0
H502 H 0.29878 0.94306 0.23008 0.0
H503 H 0.19814 0.93807 0.24674 0.0
C504 C 0.16142 0.83807 0.37764 0.0
C505 C 0.17349 0.81725 0.39885 0.0
C506 C 0.20889 0.82552 0.39225 0.0
C507 C 0.23128 0.85265 0.3631 0.0
C508 C 0.21817 0.87181 0.34143 0.0
C509 C 0.18432 0.86542 0.34911 0.0
C510 C 0.17622 0.88883 0.32013 0.0
C511 C 0.14452 0.86685 0.28919 0.0
C512 C 0.17021 0.91433 0.34939 0.0
C513 C 0.21019 0.90825 0.29363 0.0
C514 C 0.23413 0.89817 0.30646 0.0
C515 C 0.2661 0.91021 0.28392 0.0
C516 C 0.27436 0.93412 0.24835 0.0
C517 C 0.25004 0.94448 0.23466 0.0
C518 C 0.21765 0.93138 0.25765 0.0
H519 H 0.35796 0.22975 0.70287 0.0
H520 H 0.28694 0.20583 0.58994 0.0
H521 H 0.25754 0.14264 0.60945 0.0
H522 H 0.3706 0.1577 0.69074 0.0
H523 H 0.37211 0.15075 0.7502 0.0
H524 H 0.38502 0.19399 0.72951 0.0
H525 H 0.33936 0.19699 0.78232 0.0
H526 H 0.32615 0.15355 0.80302 0.0
H527 H 0.29379 0.16288 0.77955 0.0
H528 H 0.23952 0.08153 0.63773 0.0
H529 H 0.2355 0.02806 0.67106 0.0
H530 H 0.3176 0.09303 0.76619 0.0
C531 C 0.33601 0.21133 0.68242 0.0
C532 C 0.32478 0.2227 0.64483 0.0
C533 C 0.29596 0.19769 0.61895 0.0
C534 C 0.27902 0.16178 0.62987 0.0
C535 C 0.29098 0.15145 0.66703 0.0
C536 C 0.31875 0.17557 0.69297 0.0
C537 C 0.32793 0.15773 0.72963 0.0
C538 C 0.36616 0.1655 0.72469 0.0
C539 C 0.32141 0.16843 0.7764 0.0
C540 C 0.30175 0.11965 0.71944 0.0
C541 C 0.28036 0.11648 0.68357 0.0
C542 C 0.25577 0.08371 0.66626 0.0
C543 C 0.25364 0.05348 0.68545 0.0
C544 C 0.27611 0.05633 0.72138 0.0
C545 C 0.29974 0.08986 0.73915 0.0
H546 H 0.18942 0.29884 0.04676 0.0
H547 H 0.20704 0.40503 0.05975 0.0
H548 H 0.15483 0.38891 0.01268 0.0
H549 H 0.16517 0.28614 0.9349 0.0
H550 H 0.13141 0.24066 0.94025 0.0
H551 H 0.16766 0.25939 0.97906 0.0
H552 H 0.12399 0.24093 0.04611 0.0
H553 H 0.08752 0.2219 0.00738 0.0
H554 H 0.09142 0.25463 0.04737 0.0
H555 H 0.10531 0.36323 0.95571 0.0
H556 H 0.06022 0.3284 0.8982 0.0
H557 H 0.07382 0.23902 0.92538 0.0
C558 C 0.18195 0.31854 0.0404 0.0
C559 C 0.20242 0.35321 0.05683 0.0
C560 C 0.19176 0.37824 0.04762 0.0
C561 C 0.16211 0.36936 0.02089 0.0
C562 C 0.14306 0.33519 0.00419 0.0
C563 C 0.15223 0.31002 0.01422 0.0
C564 C 0.1283 0.27561 0.99066 0.0
C565 C 0.1494 0.26485 0.95936 0.0
C566 C 0.10652 0.24655 0.02493 0.0
C567 C 0.10525 0.28578 0.96431 0.0
C568 C 0.11392 0.32017 0.97271 0.0
C569 C 0.09773 0.33601 0.9497 0.0
C570 C 0.07188 0.31602 0.9175 0.0
C571 C 0.06289 0.28088 0.90841 0.0
C572 C 0.0797 0.26566 0.93238 0.0
H573 H 0.91623 0.27889 0.30295 0.0
H574 H 0.95997 0.23891 0.40208 0.0
H575 H 0.91273 0.17821 0.3852 0.0
H576 H 0.82569 0.21854 0.32777 0.0
H577 H 0.81171 0.21454 0.27006 0.0
H578 H 0.84946 0.2545 0.28925 0.0
H579 H 0.88745 0.24873 0.22647 0.0
H580 H 0.84977 0.20871 0.20723 0.0
H581 H 0.88964 0.20879 0.22222 0.0
H582 H 0.86003 0.12173 0.35763 0.0
H583 H 0.80503 0.07454 0.32415 0.0
H584 H 0.79617 0.15214 0.24356 0.0
C585 C 0.91597 0.25744 0.32121 0.0
C586 C 0.94184 0.2637 0.35393 0.0
C587 C 0.94041 0.23479 0.37698 0.0
C588 C 0.91374 0.20021 0.3675 0.0
C589 C 0.88873 0.19502 0.33492 0.0
C590 C 0.88956 0.22288 0.31229 0.0
C591 C 0.8591 0.21042 0.27973 0.0
C592 C 0.83507 0.22538 0.29249 0.0
C593 C 0.87231 0.21973 0.23103 0.0
C594 C 0.84094 0.17113 0.28749 0.0
C595 C 0.85847 0.16271 0.31931 0.0
C596 C 0.84618 0.12805 0.33258 0.0
C597 C 0.81494 0.1014 0.31328 0.0
C598 C 0.79628 0.10955 0.28108 0.0
C599 C 0.80986 0.14492 0.2678 0.0
H600 H 0.6405 0.74977 0.59464 0.0
H601 H 0.74766 0.77961 0.63179 0.0
H602 H 0.75455 0.8334 0.66809 0.0
H603 H 0.6576 0.83899 0.57156 0.0
H604 H 0.61575 0.83015 0.5942 0.0
H605 H 0.62012 0.79514 0.56884 0.0
H606 H 0.59661 0.75864 0.64197 0.0
H607 H 0.59244 0.7936 0.66768 0.0
H608 H 0.61834 0.77736 0.69459 0.0
H609 H 0.74828 0.88172 0.70501 0.0
H610 H 0.73045 0.92278 0.73617 0.0
H611 H 0.62778 0.86184 0.67359 0.0
C612 C 0.6656 0.76783 0.60986 0.0
C613 C 0.69356 0.76047 0.6103 0.0
C614 C 0.72591 0.78474 0.6308 0.0
C615 C 0.73006 0.81534 0.65161 0.0
C616 C 0.70174 0.82143 0.65128 0.0
C617 C 0.67026 0.79856 0.63053 0.0
C618 C 0.64364 0.81078 0.63583 0.0
C619 C 0.6337 0.81928 0.58987 0.0
C620 C 0.61083 0.78347 0.66156 0.0
C621 C 0.66485 0.8438 0.66348 0.0
C622 C 0.6983 0.8495 0.67202 0.0
C623 C 0.72227 0.87772 0.69817 0.0
C624 C 0.71184 0.90082 0.71586 0.0
C625 C 0.67776 0.89562 0.70723 0.0
C626 C 0.6541 0.86671 0.68057 0.0
H627 H 0.71871 0.60903 0.05285 0.0
H628 H 0.78248 0.7174 0.09682 0.0
H629 H 0.83625 0.71658 0.07237 0.0
H630 H 0.7789 0.57917 0.08551 0.0
H631 H 0.76861 0.55078 0.0372 0.0
H632 H 0.7359 0.55994 0.06008 0.0
H633 H 0.72904 0.58192 0.98198 0.0
H634 H 0.76194 0.57316 0.9589 0.0
H635 H 0.76726 0.61652 0.95432 0.0
H636 H 0.88285 0.70403 0.03944 0.0
H637 H 0.91809 0.68041 0.00445 0.0
H638 H 0.82271 0.58034 0.98277 0.0
C639 C 0.74396 0.63257 0.05792 0.0
C640 C 0.74637 0.66328 0.07696 0.0
C641 C 0.77999 0.6935 0.08258 0.0
C642 C 0.81064 0.6933 0.06865 0.0
C643 C 0.80714 0.66266 0.04928 0.0
C644 C 0.77459 0.63281 0.04424 0.0
C645 C 0.77757 0.60342 0.02168 0.0
C646 C 0.76448 0.57145 0.053 0.0
C647 C 0.75779 0.59317 0.97655 0.0
C648 C 0.81697 0.62129 0.0147 0.0
C649 C 0.83365 0.65548 0.03066 0.0
C650 C 0.87002 0.67724 0.02707 0.0
C651 C 0.88981 0.66361 0.00701 0.0
C652 C 0.87321 0.62847 0.99091 0.0
C653 C 0.83628 0.60723 0.99486 0.0
H654 H 0.31175 0.03927 0.40492 0.0
H655 H 0.31952 0.95736 0.33375 0.0
H656 H 0.29723 0.91897 0.40049 0.0
H657 H 0.34638 0.02953 0.50411 0.0
H658 H 0.31925 0.03854 0.54132 0.0
H659 H 0.32855 0.05657 0.48549 0.0
H660 H 0.26166 0.0276 0.46942 0.0
H661 H 0.25214 0.00947 0.5254 0.0
H662 H 0.23372 0.98089 0.47735 0.0
H663 H 0.28184 0.89285 0.47694 0.0
H664 H 0.27724 0.88176 0.55859 0.0
H665 H 0.28171 0.98172 0.58201 0.0
C666 C 0.30754 0.01277 0.40318 0.0
C667 C 0.31513 0.00013 0.36348 0.0
C668 C 0.31112 0.96614 0.36281 0.0
C669 C 0.29903 0.94448 0.40078 0.0
C670 C 0.2915 0.9575 0.43945 0.0
C671 C 0.29568 0.99091 0.44105 0.0
C672 C 0.28994 0.00015 0.48827 0.0
C673 C 0.323 0.03313 0.50581 0.0
C674 C 0.25743 0.00479 0.49021 0.0
C675 C 0.28348 0.96739 0.51325 0.0
C676 C 0.28382 0.94286 0.48432 0.0
C677 C 0.28101 0.91162 0.4999 0.0
C678 C 0.27851 0.90561 0.54638 0.0
C679 C 0.27902 0.9308 0.5768 0.0
C680 C 0.28074 0.96169 0.55971 0.0
H681 H 0.33259 0.38974 0.95171 0.0
H682 H 0.37395 0.32066 0.98234 0.0
H683 H 0.37743 0.31057 0.90101 0.0
H684 H 0.28203 0.34418 0.8516 0.0
H685 H 0.29389 0.38436 0.8219 0.0
H686 H 0.29125 0.38333 0.8824 0.0
H687 H 0.35543 0.4352 0.88687 0.0
H688 H 0.35827 0.43637 0.82645 0.0
H689 H 0.3901 0.43145 0.85923 0.0
H690 H 0.37638 0.30806 0.81695 0.0
H691 H 0.3773 0.31817 0.73532 0.0
H692 H 0.34199 0.39341 0.75883 0.0
C693 C 0.34183 0.37207 0.94111 0.0
C694 C 0.35253 0.35548 0.97295 0.0
C695 C 0.36547 0.33336 0.95821 0.0
C696 C 0.36739 0.3274 0.91222 0.0
C697 C 0.35689 0.34434 0.88154 0.0
C698 C 0.34483 0.36661 0.89528 0.0
C699 C 0.3381 0.38388 0.85537 0.0
C700 C 0.29899 0.37329 0.85267 0.0
C701 C 0.3619 0.42411 0.8571 0.0
C702 C 0.34842 0.36794 0.81708 0.0
C703 C 0.35849 0.34468 0.83295 0.0
C704 C 0.36867 0.32629 0.80411 0.0
C705 C 0.36899 0.33213 0.75779 0.0
C706 C 0.35986 0.35667 0.7408 0.0
C707 C 0.34934 0.37469 0.77093 0.0
H708 H 0.00771 0.33243 0.2525 0.0
H709 H 0.1191 0.37442 0.22681 0.0
H710 H 0.105 0.34718 0.15096 0.0
H711 H 0.97441 0.24991 0.18763 0.0
H712 H 0.93704 0.2524 0.16717 0.0
H713 H 0.95544 0.27035 0.22162 0.0
H714 H 0.96361 0.3308 0.19815 0.0
H715 H 0.94484 0.31301 0.14413 0.0
H716 H 0.98791 0.35161 0.14765 0.0
H717 H 0.07826 0.31707 0.07656 0.0
H718 H 0.04311 0.29685 0.00686 0.0
H719 H 0.95043 0.27975 0.08043 0.0
C720 C 0.02914 0.33533 0.23129 0.0
C721 C 0.06447 0.35514 0.24562 0.0
C722 C 0.09183 0.35921 0.21643 0.0
C723 C 0.08404 0.34355 0.17355 0.0
C724 C 0.0488 0.32422 0.16041 0.0
C725 C 0.02188 0.32055 0.18831 0.0
C726 C 0.98667 0.30232 0.16466 0.0
C727 C 0.96193 0.26663 0.1866 0.0
C728 C 0.9698 0.32586 0.16356 0.0
C729 C 0.99806 0.29757 0.11838 0.0
C730 C 0.03376 0.30914 0.11697 0.0
C731 C 0.05033 0.30812 0.07737 0.0
C732 C 0.03021 0.29668 0.03785 0.0
C733 C 0.99434 0.28765 0.03786 0.0
C734 C 0.97787 0.28674 0.07914 0.0
H735 H 0.61945 0.96623 0.38642 0.0
H736 H 0.70024 0.07496 0.36432 0.0
H737 H 0.70699 0.08466 0.44611 0.0
H738 H 0.57873 0.98062 0.47967 0.0
H739 H 0.57078 0.94178 0.50994 0.0
H740 H 0.57342 0.94254 0.44952 0.0
H741 H 0.6228 0.92642 0.45316 0.0
H742 H 0.6202 0.92544 0.51367 0.0
H743 H 0.66169 0.95324 0.48612 0.0
H744 H 0.70022 0.08466 0.52953 0.0
H745 H 0.68481 0.07283 0.61018 0.0
H746 H 0.61233 0.96324 0.57914 0.0
C747 C 0.63883 0.99195 0.39882 0.0
C748 C 0.65919 0.01985 0.36892 0.0
C749 C 0.68439 0.05311 0.38649 0.0
C750 C 0.6884 0.05895 0.43295 0.0
C751 C 0.66753 0.03111 0.46148 0.0
C752 C 0.6437 0.99809 0.44522 0.0
C753 C 0.6244 0.97281 0.48334 0.0
C754 C 0.58447 0.95862 0.48043 0.0
C755 C 0.63279 0.9427 0.48411 0.0
C756 C 0.64044 0.99708 0.5234 0.0
C757 C 0.6651 0.03065 0.50999 0.0
C758 C 0.6815 0.05832 0.54059 0.0
C759 C 0.67251 0.05144 0.58618 0.0
C760 C 0.64786 0.0171 0.60066 0.0
C761 C 0.63188 0.98956 0.56891 0.0
H762 H 0.63951 0.69615 0.90017 0.0
H763 H 0.69245 0.6539 0.9806 0.0
H764 H 0.7135 0.63916 0.91164 0.0
H765 H 0.61118 0.63281 0.81223 0.0
H766 H 0.61908 0.66376 0.76779 0.0
H767 H 0.60877 0.67197 0.82358 0.0
H768 H 0.66616 0.73256 0.82448 0.0
H769 H 0.67661 0.72452 0.76862 0.0
H770 H 0.70777 0.73484 0.81362 0.0
H771 H 0.72534 0.62504 0.83423 0.0
H772 H 0.73059 0.61634 0.75301 0.0
H773 H 0.67316 0.6707 0.72254 0.0
C774 C 0.65566 0.68396 0.90325 0.0
C775 C 0.66418 0.67611 0.94587 0.0
C776 C 0.68558 0.66029 0.94842 0.0
C777 C 0.69767 0.65174 0.9094 0.0
C778 C 0.68859 0.65956 0.86798 0.0
C779 C 0.66844 0.67569 0.86456 0.0
C780 C 0.66252 0.68122 0.81579 0.0
C781 C 0.62305 0.66124 0.80418 0.0
C782 C 0.67927 0.72063 0.80501 0.0
C783 C 0.68196 0.66514 0.79246 0.0
C784 C 0.69666 0.65265 0.82319 0.0
C785 C 0.71435 0.6351 0.80978 0.0
C786 C 0.7171 0.63018 0.76364 0.0
C787 C 0.7026 0.64313 0.73154 0.0
C788 C 0.68504 0.66104 0.7463 0.0
H789 H 0.98799 0.6415 0.28204 0.0
H790 H 0.09732 0.7237 0.29466 0.0
H791 H 0.10429 0.72393 0.21236 0.0
H792 H 0.99937 0.59351 0.19706 0.0
H793 H 0.9596 0.58271 0.16687 0.0
H794 H 0.96208 0.5909 0.22643 0.0
H795 H 0.94578 0.63953 0.21413 0.0
H796 H 0.94281 0.6312 0.15448 0.0
H797 H 0.97144 0.67497 0.17565 0.0
H798 H 0.10164 0.7093 0.13024 0.0
H799 H 0.08696 0.68661 0.05224 0.0
H800 H 0.97846 0.61765 0.09225 0.0
C801 C 0.01319 0.66002 0.26739 0.0
C802 C 0.0421 0.68253 0.29474 0.0
C803 C 0.0747 0.70638 0.27435 0.0
C804 C 0.07899 0.70661 0.22763 0.0
C805 C 0.05025 0.68338 0.20173 0.0
C806 C 0.01775 0.66111 0.22073 0.0
C807 C 0.99128 0.63836 0.18538 0.0
C808 C 0.97728 0.59905 0.19449 0.0
C809 C 0.96104 0.64652 0.18222 0.0
C810 C 0.01428 0.65056 0.14379 0.0
C811 C 0.04828 0.67637 0.15395 0.0
C812 C 0.07493 0.68968 0.12163 0.0
C813 C 0.06647 0.67652 0.07762 0.0
C814 C 0.03157 0.65082 0.0664 0.0
C815 C 0.0052 0.63785 0.09988 0.0
loop_
_geom_bond_atom_site_label_1
_geom_bond_atom_site_label_2
_geom_bond_distance
_geom_bond_site_symmetry_2
_ccdc_geom_bond_type
Mg0 O1 2.028 . S
Mg0 O7 1.986 1_565 S
Mg0 O9 2.114 . S
Mg0 O10 2.251 1_565 S
Mg0 O13 2.010 . S
O1 Mg0 2.028 . S
O1 C4 1.250 1_565 S
O2 Mg3 2.028 . S
O2 C4 1.248 . S
Mg3 O2 2.028 . S
Mg3 O8 2.032 . S
Mg3 O10 2.079 . S
C4 O1 1.250 1_545 S
C4 O2 1.248 . S
C5 O6 1.264 . S
C5 O13 1.249 . S
O6 C5 1.264 . S
O7 Mg0 1.986 1_545 S
O7 C11 1.246 . S
O8 Mg3 2.032 . S
O8 C11 1.259 . S
O9 Mg0 2.114 . S
O9 C12 1.252 . S
O10 Mg0 2.251 1_545 S
O10 Mg3 2.079 . S
O10 C12 1.273 1_545 S
C11 O7 1.246 . S
C11 O8 1.259 . S
C12 O9 1.252 . S
C12 O10 1.273 1_565 S
O13 Mg0 2.010 . S
O13 C5 1.249 . S
Mg14 O15 2.028 . S
Mg14 O21 1.986 . S
Mg14 O23 2.114 . S
Mg14 O24 2.251 . S
Mg14 O27 2.010 . S
O15 Mg14 2.028 . S
O15 C18 1.250 . S
O16 Mg17 2.028 . S
O16 C18 1.248 . S
Mg17 O16 2.028 . S
Mg17 O22 2.032 . S
Mg17 O24 2.079 . S
C18 O15 1.250 . S
C18 O16 1.248 . S
C19 O20 1.264 . S
C19 O27 1.249 . S
O20 C19 1.264 . S
O21 Mg14 1.986 . S
O21 C25 1.246 . S
O22 Mg17 2.032 . S
O22 C25 1.259 . S
O23 Mg14 2.114 . S
O23 C26 1.252 . S
O24 Mg14 2.251 . S
O24 Mg17 2.079 . S
O24 C26 1.273 . S
C25 O21 1.246 . S
C25 O22 1.259 . S
C26 O23 1.252 . S
C26 O24 1.273 . S
O27 Mg14 2.010 . S
O27 C19 1.249 . S
Mg28 O29 2.028 . S
Mg28 O35 1.986 1_455 S
Mg28 O37 2.114 . S
Mg28 O38 2.251 1_455 S
Mg28 O41 2.010 . S
O29 Mg28 2.028 . S
O29 C32 1.250 1_456 S
O30 Mg31 2.028 1_554 S
O30 C32 1.248 . S
Mg31 O30 2.028 1_556 S
Mg31 O36 2.032 . S
Mg31 O38 2.079 . S
C32 O29 1.250 1_654 S
C32 O30 1.248 . S
C33 O34 1.264 . S
C33 O41 1.249 . S
O34 C33 1.264 . S
O35 Mg28 1.986 1_655 S
O35 C39 1.246 . S
O36 Mg31 2.032 . S
O36 C39 1.259 . S
O37 Mg28 2.114 . S
O37 C40 1.252 . S
O38 Mg28 2.251 1_655 S
O38 Mg31 2.079 . S
O38 C40 1.273 1_655 S
C39 O35 1.246 . S
C39 O36 1.259 . S
C40 O37 1.252 . S
C40 O38 1.273 1_455 S
O41 Mg28 2.010 . S
O41 C33 1.249 . S
Mg42 O43 2.028 . S
Mg42 O49 1.986 1_545 S
Mg42 O51 2.114 . S
Mg42 O52 2.251 1_545 S
Mg42 O55 2.010 . S
O43 Mg42 2.028 . S
O43 C46 1.250 1_545 S
O44 Mg45 2.028 . S
O44 C46 1.248 . S
Mg45 O44 2.028 . S
Mg45 O50 2.032 . S
Mg45 O52 2.079 . S
C46 O43 1.250 1_565 S
C46 O44 1.248 . S
C47 O48 1.264 . S
C47 O55 1.249 . S
O48 C47 1.264 . S
O49 Mg42 1.986 1_565 S
O49 C53 1.246 . S
O50 Mg45 2.032 . S
O50 C53 1.259 . S
O51 Mg42 2.114 . S
O51 C54 1.252 . S
O52 Mg42 2.251 1_565 S
O52 Mg45 2.079 . S
O52 C54 1.273 1_565 S
C53 O49 1.246 . S
C53 O50 1.259 . S
C54 O51 1.252 . S
C54 O52 1.273 1_545 S
O55 Mg42 2.010 . S
O55 C47 1.249 . S
Mg56 O57 2.028 . S
Mg56 O63 1.986 . S
Mg56 O65 2.114 . S
Mg56 O66 2.251 . S
Mg56 O69 2.010 . S
O57 Mg56 2.028 . S
O57 C60 1.250 . S
O58 Mg59 2.028 . S
O58 C60 1.248 . S
Mg59 O58 2.028 . S
Mg59 O64 2.032 . S
Mg59 O66 2.079 . S
C60 O57 1.250 . S
C60 O58 1.248 . S
C61 O62 1.264 . S
C61 O69 1.249 . S
O62 C61 1.264 . S
O63 Mg56 1.986 . S
O63 C67 1.246 . S
O64 Mg59 2.032 . S
O64 C67 1.259 . S
O65 Mg56 2.114 . S
O65 C68 1.252 . S
O66 Mg56 2.251 . S
O66 Mg59 2.079 . S
O66 C68 1.273 . S
C67 O63 1.246 . S
C67 O64 1.259 . S
C68 O65 1.252 . S
C68 O66 1.273 . S
O69 Mg56 2.010 . S
O69 C61 1.249 . S
Mg70 O71 2.028 . S
Mg70 O77 1.986 1_655 S
Mg70 O79 2.114 . S
Mg70 O80 2.251 1_655 S
Mg70 O83 2.010 . S
O71 Mg70 2.028 . S
O71 C74 1.250 1_656 S
O72 Mg73 2.028 1_554 S
O72 C74 1.248 . S
Mg73 O72 2.028 1_556 S
Mg73 O78 2.032 . S
Mg73 O80 2.079 . S
C74 O71 1.250 1_454 S
C74 O72 1.248 . S
C75 O76 1.264 . S
C75 O83 1.249 . S
O76 C75 1.264 . S
O77 Mg70 1.986 1_455 S
O77 C81 1.246 . S
O78 Mg73 2.032 . S
O78 C81 1.259 . S
O79 Mg70 2.114 . S
O79 C82 1.252 . S
O80 Mg70 2.251 1_455 S
O80 Mg73 2.079 . S
O80 C82 1.273 1_455 S
C81 O77 1.246 . S
C81 O78 1.259 . S
C82 O79 1.252 . S
C82 O80 1.273 1_655 S
O83 Mg70 2.010 . S
O83 C75 1.249 . S
Mg84 O85 2.028 . S
Mg84 O91 1.986 1_455 S
Mg84 O93 2.114 . S
Mg84 O94 2.251 1_455 S
Mg84 O97 2.010 . S
O85 Mg84 2.028 . S
O85 C88 1.250 1_455 S
O86 Mg87 2.028 . S
O86 C88 1.248 . S
Mg87 O86 2.028 . S
Mg87 O92 2.032 . S
Mg87 O94 2.079 . S
C88 O85 1.250 1_655 S
C88 O86 1.248 . S
C89 O90 1.264 . S
C89 O97 1.249 . S
O90 C89 1.264 . S
O91 Mg84 1.986 1_655 S
O91 C95 1.246 . S
O92 Mg87 2.032 . S
O92 C95 1.259 . S
O93 Mg84 2.114 . S
O93 C96 1.252 . S
O94 Mg84 2.251 1_655 S
O94 Mg87 2.079 . S
O94 C96 1.273 1_655 S
C95 O91 1.246 . S
C95 O92 1.259 . S
C96 O93 1.252 . S
C96 O94 1.273 1_455 S
O97 Mg84 2.010 . S
O97 C89 1.249 . S
Mg98 O99 2.028 . S
Mg98 O105 1.986 1_545 S
Mg98 O107 2.114 . S
Mg98 O108 2.251 1_545 S
Mg98 O111 2.010 . S
O99 Mg98 2.028 . S
O99 C102 1.250 1_545 S
O100 Mg101 2.028 . S
O100 C102 1.248 . S
Mg101 O100 2.028 . S
Mg101 O106 2.032 . S
Mg101 O108 2.079 . S
C102 O99 1.250 1_565 S
C102 O100 1.248 . S
C103 O104 1.264 . S
C103 O111 1.249 . S
O104 C103 1.264 . S
O105 Mg98 1.986 1_565 S
O105 C109 1.246 . S
O106 Mg101 2.032 . S
O106 C109 1.259 . S
O107 Mg98 2.114 . S
O107 C110 1.252 . S
O108 Mg98 2.251 1_565 S
O108 Mg101 2.079 . S
O108 C110 1.273 1_565 S
C109 O105 1.246 . S
C109 O106 1.259 . S
C110 O107 1.252 . S
C110 O108 1.273 1_545 S
O111 Mg98 2.010 . S
O111 C103 1.249 . S
Mg112 O113 2.028 . S
Mg112 O119 1.986 . S
Mg112 O121 2.114 . S
Mg112 O122 2.251 . S
Mg112 O125 2.010 . S
O113 Mg112 2.028 . S
O113 C116 1.250 1_554 S
O114 Mg115 2.028 1_556 S
O114 C116 1.248 . S
Mg115 O114 2.028 1_554 S
Mg115 O120 2.032 . S
Mg115 O122 2.079 . S
C116 O113 1.250 1_556 S
C116 O114 1.248 . S
C117 O118 1.264 . S
C117 O125 1.249 . S
O118 C117 1.264 . S
O119 Mg112 1.986 . S
O119 C123 1.246 . S
O120 Mg115 2.032 . S
O120 C123 1.259 . S
O121 Mg112 2.114 . S
O121 C124 1.252 . S
O122 Mg112 2.251 . S
O122 Mg115 2.079 . S
O122 C124 1.273 . S
C123 O119 1.246 . S
C123 O120 1.259 . S
C124 O121 1.252 . S
C124 O122 1.273 . S
O125 Mg112 2.010 . S
O125 C117 1.249 . S
Mg126 O127 2.028 . S
Mg126 O133 1.986 1_655 S
Mg126 O135 2.114 . S
Mg126 O136 2.251 1_655 S
Mg126 O139 2.010 . S
O127 Mg126 2.028 . S
O127 C130 1.250 1_655 S
O128 Mg129 2.028 . S
O128 C130 1.248 . S
Mg129 O128 2.028 . S
Mg129 O134 2.032 . S
Mg129 O136 2.079 . S
C130 O127 1.250 1_455 S
C130 O128 1.248 . S
C131 O132 1.264 . S
C131 O139 1.249 . S
O132 C131 1.264 . S
O133 Mg126 1.986 1_455 S
O133 C137 1.246 . S
O134 Mg129 2.032 . S
O134 C137 1.259 . S
O135 Mg126 2.114 . S
O135 C138 1.252 . S
O136 Mg126 2.251 1_455 S
O136 Mg129 2.079 . S
O136 C138 1.273 1_455 S
C137 O133 1.246 . S
C137 O134 1.259 . S
C138 O135 1.252 . S
C138 O136 1.273 1_655 S
O139 Mg126 2.010 . S
O139 C131 1.249 . S
Mg140 O141 2.028 . S
Mg140 O147 1.986 1_565 S
Mg140 O149 2.114 . S
Mg140 O150 2.251 1_565 S
Mg140 O153 2.010 . S
O141 Mg140 2.028 . S
O141 C144 1.250 1_565 S
O142 Mg143 2.028 . S
O142 C144 1.248 . S
Mg143 O142 2.028 . S
Mg143 O148 2.032 . S
Mg143 O150 2.079 . S
C144 O141 1.250 1_545 S
C144 O142 1.248 . S
C145 O146 1.264 . S
C145 O153 1.249 . S
O146 C145 1.264 . S
O147 Mg140 1.986 1_545 S
O147 C151 1.246 . S
O148 Mg143 2.032 . S
O148 C151 1.259 . S
O149 Mg140 2.114 . S
O149 C152 1.252 . S
O150 Mg140 2.251 1_545 S
O150 Mg143 2.079 . S
O150 C152 1.273 1_545 S
C151 O147 1.246 . S
C151 O148 1.259 . S
C152 O149 1.252 . S
C152 O150 1.273 1_565 S
O153 Mg140 2.010 . S
O153 C145 1.249 . S
Mg154 O155 2.028 . S
Mg154 O161 1.986 . S
Mg154 O163 2.114 . S
Mg154 O164 2.251 . S
Mg154 O167 2.010 . S
O155 Mg154 2.028 . S
O155 C158 1.250 1_554 S
O156 Mg157 2.028 1_556 S
O156 C158 1.248 . S
Mg157 O156 2.028 1_554 S
Mg157 O162 2.032 . S
Mg157 O164 2.079 . S
C158 O155 1.250 1_556 S
C158 O156 1.248 . S
C159 O160 1.264 . S
C159 O167 1.249 . S
O160 C159 1.264 . S
O161 Mg154 1.986 . S
O161 C165 1.246 . S
O162 Mg157 2.032 . S
O162 C165 1.259 . S
O163 Mg154 2.114 . S
O163 C166 1.252 . S
O164 Mg154 2.251 . S
O164 Mg157 2.079 . S
O164 C166 1.273 . S
C165 O161 1.246 . S
C165 O162 1.259 . S
C166 O163 1.252 . S
C166 O164 1.273 . S
O167 Mg154 2.010 . S
O167 C159 1.249 . S
H168 C180 0.930 . S
H169 C182 0.930 . S
H170 C183 0.930 . S
H171 C187 0.959 . S
H172 C187 0.959 . S
H173 C187 0.961 . S
H174 C188 0.960 . S
H175 C188 0.961 . S
H176 C188 0.959 . S
H177 C191 0.929 . S
H178 C192 0.931 . S
H179 C194 0.930 . S
C180 H168 0.930 . S
C180 C181 1.399 . S
C180 C185 1.399 . S
C181 C180 1.399 . S
C181 C182 1.376 . S
C182 H169 0.930 . S
C182 C181 1.376 . S
C182 C183 1.388 . S
C183 H170 0.930 . S
C183 C182 1.388 . S
C183 C184 1.390 . S
C184 C183 1.390 . S
C184 C185 1.394 . S
C184 C190 1.465 . S
C185 C180 1.399 . S
C185 C184 1.394 . S
C185 C186 1.516 . S
C186 C185 1.516 . S
C186 C187 1.502 . S
C186 C188 1.561 . S
C186 C189 1.526 . S
C187 H171 0.959 . S
C187 H172 0.959 . S
C187 H173 0.961 . S
C187 C186 1.502 . S
C188 H174 0.960 . S
C188 H175 0.961 . S
C188 H176 0.959 . S
C188 C186 1.561 . S
C189 C186 1.526 . S
C189 C190 1.396 . S
C189 C194 1.390 . S
C190 C184 1.465 . S
C190 C189 1.396 . S
C190 C191 1.399 . S
C191 H177 0.929 . S
C191 C190 1.399 . S
C191 C192 1.385 . S
C192 H178 0.931 . S
C192 C191 1.385 . S
C192 C193 1.389 . S
C193 C192 1.389 . S
C193 C194 1.387 . S
C194 H179 0.930 . S
C194 C189 1.390 . S
C194 C193 1.387 . S
H195 C207 0.930 . S
H196 C209 0.930 . S
H197 C210 0.930 . S
H198 C214 0.959 . S
H199 C214 0.959 . S
H200 C214 0.961 . S
H201 C215 0.960 . S
H202 C215 0.961 . S
H203 C215 0.959 . S
H204 C218 0.929 . S
H205 C219 0.931 . S
H206 C221 0.930 . S
C207 H195 0.930 . S
C207 C208 1.399 . S
C207 C212 1.399 . S
C208 C207 1.399 . S
C208 C209 1.376 . S
C209 H196 0.930 . S
C209 C208 1.376 . S
C209 C210 1.388 . S
C210 H197 0.930 . S
C210 C209 1.388 . S
C210 C211 1.390 . S
C211 C210 1.390 . S
C211 C212 1.394 . S
C211 C217 1.465 . S
C212 C207 1.399 . S
C212 C211 1.394 . S
C212 C213 1.516 . S
C213 C212 1.516 . S
C213 C214 1.502 . S
C213 C215 1.561 . S
C213 C216 1.526 . S
C214 H198 0.959 . S
C214 H199 0.959 . S
C214 H200 0.961 . S
C214 C213 1.502 . S
C215 H201 0.960 . S
C215 H202 0.961 . S
C215 H203 0.959 . S
C215 C213 1.561 . S
C216 C213 1.526 . S
C216 C217 1.396 . S
C216 C221 1.390 . S
C217 C211 1.465 . S
C217 C216 1.396 . S
C217 C218 1.399 . S
C218 H204 0.929 . S
C218 C217 1.399 . S
C218 C219 1.385 . S
C219 H205 0.931 . S
C219 C218 1.385 . S
C219 C220 1.389 . S
C220 C219 1.389 . S
C220 C221 1.387 . S
C221 H206 0.930 . S
C221 C216 1.390 . S
C221 C220 1.387 . S
H222 C234 0.930 . S
H223 C236 0.930 . S
H224 C237 0.930 . S
H225 C241 0.959 . S
H226 C241 0.959 . S
H227 C241 0.961 . S
H228 C242 0.960 . S
H229 C242 0.961 . S
H230 C242 0.959 . S
H231 C245 0.929 . S
H232 C246 0.931 . S
H233 C248 0.930 . S
C234 H222 0.930 . S
C234 C235 1.399 . S
C234 C239 1.399 . S
C235 C234 1.399 . S
C235 C236 1.376 . S
C236 H223 0.930 . S
C236 C235 1.376 . S
C236 C237 1.388 . S
C237 H224 0.930 . S
C237 C236 1.388 . S
C237 C238 1.390 . S
C238 C237 1.390 . S
C238 C239 1.394 . S
C238 C244 1.465 . S
C239 C234 1.399 . S
C239 C238 1.394 . S
C239 C240 1.516 . S
C240 C239 1.516 . S
C240 C241 1.502 . S
C240 C242 1.561 . S
C240 C243 1.526 . S
C241 H225 0.959 . S
C241 H226 0.959 . S
C241 H227 0.961 . S
C241 C240 1.502 . S
C242 H228 0.960 . S
C242 H229 0.961 . S
C242 H230 0.959 . S
C242 C240 1.561 . S
C243 C240 1.526 . S
C243 C244 1.396 . S
C243 C248 1.390 . S
C244 C238 1.465 . S
C244 C243 1.396 . S
C244 C245 1.399 . S
C245 H231 0.929 . S
C245 C244 1.399 . S
C245 C246 1.385 . S
C246 H232 0.931 . S
C246 C245 1.385 . S
C246 C247 1.389 . S
C247 C246 1.389 . S
C247 C248 1.387 . S
C248 H233 0.930 . S
C248 C243 1.390 . S
C248 C247 1.387 . S
H249 C261 0.930 . S
H250 C263 0.930 . S
H251 C264 0.930 . S
H252 C268 0.959 . S
H253 C268 0.959 . S
H254 C268 0.961 . S
H255 C269 0.960 . S
H256 C269 0.961 . S
H257 C269 0.959 . S
H258 C272 0.929 . S
H259 C273 0.931 . S
H260 C275 0.930 . S
C261 H249 0.930 . S
C261 C262 1.399 . S
C261 C266 1.399 . S
C262 C261 1.399 . S
C262 C263 1.376 . S
C263 H250 0.930 . S
C263 C262 1.376 . S
C263 C264 1.388 . S
C264 H251 0.930 . S
C264 C263 1.388 . S
C264 C265 1.390 . S
C265 C264 1.390 . S
C265 C266 1.394 . S
C265 C271 1.465 . S
C266 C261 1.399 . S
C266 C265 1.394 . S
C266 C267 1.516 . S
C267 C266 1.516 . S
C267 C268 1.502 . S
C267 C269 1.561 . S
C267 C270 1.526 . S
C268 H252 0.959 . S
C268 H253 0.959 . S
C268 H254 0.961 . S
C268 C267 1.502 . S
C269 H255 0.960 . S
C269 H256 0.961 . S
C269 H257 0.959 . S
C269 C267 1.561 . S
C270 C267 1.526 . S
C270 C271 1.396 . S
C270 C275 1.390 . S
C271 C265 1.465 . S
C271 C270 1.396 . S
C271 C272 1.399 . S
C272 H258 0.929 . S
C272 C271 1.399 . S
C272 C273 1.385 . S
C273 H259 0.931 . S
C273 C272 1.385 . S
C273 C274 1.389 . S
C274 C273 1.389 . S
C274 C275 1.387 . S
C275 H260 0.930 . S
C275 C270 1.390 . S
C275 C274 1.387 . S
H276 C288 0.930 . S
H277 C290 0.930 . S
H278 C291 0.930 . S
H279 C295 0.959 . S
H280 C295 0.959 . S
H281 C295 0.961 . S
H282 C296 0.960 . S
H283 C296 0.961 . S
H284 C296 0.959 . S
H285 C299 0.929 . S
H286 C300 0.931 . S
H287 C302 0.930 . S
C288 H276 0.930 . S
C288 C289 1.399 . S
C288 C293 1.399 . S
C289 C288 1.399 . S
C289 C290 1.376 . S
C290 H277 0.930 . S
C290 C289 1.376 . S
C290 C291 1.388 . S
C291 H278 0.930 . S
C291 C290 1.388 . S
C291 C292 1.390 . S
C292 C291 1.390 . S
C292 C293 1.394 . S
C292 C298 1.465 . S
C293 C288 1.399 . S
C293 C292 1.394 . S
C293 C294 1.516 . S
C294 C293 1.516 . S
C294 C295 1.502 . S
C294 C296 1.561 . S
C294 C297 1.526 . S
C295 H279 0.959 . S
C295 H280 0.959 . S
C295 H281 0.961 . S
C295 C294 1.502 . S
C296 H282 0.960 . S
C296 H283 0.961 . S
C296 H284 0.959 . S
C296 C294 1.561 . S
C297 C294 1.526 . S
C297 C298 1.396 . S
C297 C302 1.390 . S
C298 C292 1.465 . S
C298 C297 1.396 . S
C298 C299 1.399 . S
C299 H285 0.929 . S
C299 C298 1.399 . S
C299 C300 1.385 . S
C300 H286 0.931 . S
C300 C299 1.385 . S
C300 C301 1.389 . S
C301 C300 1.389 . S
C301 C302 1.387 . S
C302 H287 0.930 . S
C302 C297 1.390 . S
C302 C301 1.387 . S
H303 C315 0.930 . S
H304 C317 0.930 . S
H305 C318 0.930 . S
H306 C322 0.959 . S
H307 C322 0.959 . S
H308 C322 0.961 . S
H309 C323 0.960 . S
H310 C323 0.961 . S
H311 C323 0.959 . S
H312 C326 0.929 . S
H313 C327 0.931 . S
H314 C329 0.930 . S
C315 H303 0.930 . S
C315 C316 1.399 . S
C315 C320 1.399 . S
C316 C315 1.399 . S
C316 C317 1.376 . S
C317 H304 0.930 . S
C317 C316 1.376 . S
C317 C318 1.388 . S
C318 H305 0.930 . S
C318 C317 1.388 . S
C318 C319 1.390 . S
C319 C318 1.390 . S
C319 C320 1.394 . S
C319 C325 1.465 . S
C320 C315 1.399 . S
C320 C319 1.394 . S
C320 C321 1.516 . S
C321 C320 1.516 . S
C321 C322 1.502 . S
C321 C323 1.561 . S
C321 C324 1.526 . S
C322 H306 0.959 . S
C322 H307 0.959 . S
C322 H308 0.961 . S
C322 C321 1.502 . S
C323 H309 0.960 . S
C323 H310 0.961 . S
C323 H311 0.959 . S
C323 C321 1.561 . S
C324 C321 1.526 . S
C324 C325 1.396 . S
C324 C329 1.390 . S
C325 C319 1.465 . S
C325 C324 1.396 . S
C325 C326 1.399 . S
C326 H312 0.929 . S
C326 C325 1.399 . S
C326 C327 1.385 . S
C327 H313 0.931 . S
C327 C326 1.385 . S
C327 C328 1.389 . S
C328 C327 1.389 . S
C328 C329 1.387 . S
C329 H314 0.930 . S
C329 C324 1.390 . S
C329 C328 1.387 . S
H330 C342 0.930 . S
H331 C344 0.930 . S
H332 C345 0.930 . S
H333 C349 0.959 . S
H334 C349 0.959 . S
H335 C349 0.961 . S
H336 C350 0.960 . S
H337 C350 0.961 . S
H338 C350 0.959 . S
H339 C353 0.929 . S
H340 C354 0.931 . S
H341 C356 0.930 . S
C342 H330 0.930 . S
C342 C343 1.399 1_565 S
C342 C347 1.399 . S
C343 C342 1.399 1_545 S
C343 C344 1.376 . S
C344 H331 0.930 . S
C344 C343 1.376 . S
C344 C345 1.388 . S
C345 H332 0.930 . S
C345 C344 1.388 . S
C345 C346 1.390 . S
C346 C345 1.390 . S
C346 C347 1.394 1_545 S
C346 C352 1.465 . S
C347 C342 1.399 . S
C347 C346 1.394 1_565 S
C347 C348 1.516 . S
C348 C347 1.516 . S
C348 C349 1.502 . S
C348 C350 1.561 1_565 S
C348 C351 1.526 . S
C349 H333 0.959 . S
C349 H334 0.959 . S
C349 H335 0.961 . S
C349 C348 1.502 . S
C350 H336 0.960 . S
C350 H337 0.961 . S
C350 H338 0.959 . S
C350 C348 1.561 1_545 S
C351 C348 1.526 . S
C351 C352 1.396 1_565 S
C351 C356 1.390 . S
C352 C346 1.465 . S
C352 C351 1.396 1_545 S
C352 C353 1.399 . S
C353 H339 0.929 . S
C353 C352 1.399 . S
C353 C354 1.385 . S
C354 H340 0.931 . S
C354 C353 1.385 . S
C354 C355 1.389 . S
C355 C354 1.389 . S
C355 C356 1.387 1_545 S
C356 H341 0.930 . S
C356 C351 1.390 . S
C356 C355 1.387 1_565 S
H357 C369 0.930 . S
H358 C371 0.930 . S
H359 C372 0.930 . S
H360 C376 0.959 . S
H361 C376 0.959 . S
H362 C376 0.961 . S
H363 C377 0.960 . S
H364 C377 0.961 . S
H365 C377 0.959 . S
H366 C380 0.929 . S
H367 C381 0.931 . S
H368 C383 0.930 . S
C369 H357 0.930 . S
C369 C370 1.399 . S
C369 C374 1.399 . S
C370 C369 1.399 . S
C370 C371 1.376 . S
C371 H358 0.930 . S
C371 C370 1.376 . S
C371 C372 1.388 . S
C372 H359 0.930 . S
C372 C371 1.388 . S
C372 C373 1.390 . S
C373 C372 1.390 . S
C373 C374 1.394 . S
C373 C379 1.465 . S
C374 C369 1.399 . S
C374 C373 1.394 . S
C374 C375 1.516 . S
C375 C374 1.516 . S
C375 C376 1.502 . S
C375 C377 1.561 . S
C375 C378 1.526 . S
C376 H360 0.959 . S
C376 H361 0.959 . S
C376 H362 0.961 . S
C376 C375 1.502 . S
C377 H363 0.960 . S
C377 H364 0.961 . S
C377 H365 0.959 . S
C377 C375 1.561 . S
C378 C375 1.526 . S
C378 C379 1.396 . S
C378 C383 1.390 . S
C379 C373 1.465 . S
C379 C378 1.396 . S
C379 C380 1.399 . S
C380 H366 0.929 . S
C380 C379 1.399 . S
C380 C381 1.385 . S
C381 H367 0.931 . S
C381 C380 1.385 . S
C381 C382 1.389 . S
C382 C381 1.389 . S
C382 C383 1.387 . S
C383 H368 0.930 . S
C383 C378 1.390 . S
C383 C382 1.387 . S
H384 C396 0.930 . S
H385 C398 0.930 . S
H386 C399 0.930 1_554 S
H387 C403 0.959 . S
H388 C403 0.959 . S
H389 C403 0.961 . S
H390 C404 0.960 . S
H391 C404 0.961 . S
H392 C404 0.959 . S
H393 C407 0.929 1_554 S
H394 C408 0.931 . S
H395 C410 0.930 . S
C396 H384 0.930 . S
C396 C397 1.399 1_655 S
C396 C401 1.399 . S
C397 C396 1.399 1_455 S
C397 C398 1.376 . S
C398 H385 0.930 . S
C398 C397 1.376 . S
C398 C399 1.388 . S
C399 H386 0.930 1_556 S
C399 C398 1.388 . S
C399 C400 1.390 . S
C400 C399 1.390 . S
C400 C401 1.394 1_455 S
C400 C406 1.465 . S
C401 C396 1.399 . S
C401 C400 1.394 1_655 S
C401 C402 1.516 . S
C402 C401 1.516 . S
C402 C403 1.502 . S
C402 C404 1.561 1_655 S
C402 C405 1.526 . S
C403 H387 0.959 . S
C403 H388 0.959 . S
C403 H389 0.961 . S
C403 C402 1.502 . S
C404 H390 0.960 . S
C404 H391 0.961 . S
C404 H392 0.959 . S
C404 C402 1.561 1_455 S
C405 C402 1.526 . S
C405 C406 1.396 1_655 S
C405 C410 1.390 . S
C406 C400 1.465 . S
C406 C405 1.396 1_455 S
C406 C407 1.399 . S
C407 H393 0.929 1_556 S
C407 C406 1.399 . S
C407 C408 1.385 . S
C408 H394 0.931 . S
C408 C407 1.385 . S
C408 C409 1.389 . S
C409 C408 1.389 . S
C409 C410 1.387 1_455 S
C410 H395 0.930 . S
C410 C405 1.390 . S
C410 C409 1.387 1_655 S
H411 C423 0.930 1_655 S
H412 C425 0.930 . S
H413 C426 0.930 . S
H414 C430 0.959 . S
H415 C430 0.959 . S
H416 C430 0.961 . S
H417 C431 0.960 . S
H418 C431 0.961 . S
H419 C431 0.959 . S
H420 C434 0.929 . S
H421 C435 0.931 . S
H422 C437 0.930 . S
C423 H411 0.930 1_455 S
C423 C424 1.400 . S
C423 C428 1.397 . S
C424 C423 1.400 . S
C424 C425 1.376 . S
C425 H412 0.930 . S
C425 C424 1.376 . S
C425 C426 1.388 . S
C426 H413 0.930 . S
C426 C425 1.388 . S
C426 C427 1.390 . S
C427 C426 1.390 . S
C427 C428 1.394 . S
C427 C433 1.465 . S
C428 C423 1.397 . S
C428 C427 1.394 . S
C428 C429 1.516 . S
C429 C428 1.516 . S
C429 C430 1.502 1_455 S
C429 C431 1.561 . S
C429 C432 1.511 . S
C430 H414 0.959 . S
C430 H415 0.959 . S
C430 H416 0.961 . S
C430 C429 1.502 1_655 S
C431 H417 0.960 . S
C431 H418 0.961 . S
C431 H419 0.959 . S
C431 C429 1.561 . S
C432 C429 1.511 . S
C432 C433 1.394 . S
C432 C437 1.407 1_455 S
C433 C427 1.465 . S
C433 C432 1.394 . S
C433 C434 1.399 . S
C434 H420 0.929 . S
C434 C433 1.399 . S
C434 C435 1.385 . S
C435 H421 0.931 . S
C435 C434 1.385 . S
C435 C436 1.391 1_455 S
C436 C435 1.391 1_655 S
C436 C437 1.392 . S
C437 H422 0.930 . S
C437 C432 1.407 1_655 S
C437 C436 1.392 . S
H438 C450 0.930 . S
H439 C452 0.930 . S
H440 C453 0.930 . S
H441 C457 0.959 . S
H442 C457 0.959 . S
H443 C457 0.961 . S
H444 C458 0.960 . S
H445 C458 0.961 . S
H446 C458 0.959 . S
H447 C461 0.929 . S
H448 C462 0.931 . S
H449 C464 0.930 . S
C450 H438 0.930 . S
C450 C451 1.399 1_565 S
C450 C455 1.399 . S
C451 C450 1.399 1_545 S
C451 C452 1.376 . S
C452 H439 0.930 . S
C452 C451 1.376 . S
C452 C453 1.388 . S
C453 H440 0.930 . S
C453 C452 1.388 . S
C453 C454 1.390 . S
C454 C453 1.390 . S
C454 C455 1.394 1_545 S
C454 C460 1.465 . S
C455 C450 1.399 . S
C455 C454 1.394 1_565 S
C455 C456 1.516 . S
C456 C455 1.516 . S
C456 C457 1.502 . S
C456 C458 1.561 . S
C456 C459 1.526 . S
C457 H441 0.959 . S
C457 H442 0.959 . S
C457 H443 0.961 . S
C457 C456 1.502 . S
C458 H444 0.960 . S
C458 H445 0.961 . S
C458 H446 0.959 . S
C458 C456 1.561 . S
C459 C456 1.526 . S
C459 C460 1.396 1_565 S
C459 C464 1.390 . S
C460 C454 1.465 . S
C460 C459 1.396 1_545 S
C460 C461 1.399 . S
C461 H447 0.929 . S
C461 C460 1.399 . S
C461 C462 1.385 . S
C462 H448 0.931 . S
C462 C461 1.385 . S
C462 C463 1.389 . S
C463 C462 1.389 . S
C463 C464 1.387 1_545 S
C464 H449 0.930 . S
C464 C459 1.390 . S
C464 C463 1.387 1_565 S
H465 C477 0.930 . S
H466 C479 0.930 . S
H467 C480 0.930 . S
H468 C484 0.959 1_554 S
H469 C484 0.959 . S
H470 C484 0.961 . S
H471 C485 0.960 . S
H472 C485 0.961 . S
H473 C485 0.959 1_554 S
H474 C488 0.929 . S
H475 C489 0.931 . S
H476 C491 0.930 . S
C477 H465 0.930 . S
C477 C478 1.399 . S
C477 C482 1.399 . S
C478 C477 1.399 . S
C478 C479 1.376 . S
C479 H466 0.930 . S
C479 C478 1.376 . S
C479 C480 1.388 . S
C480 H467 0.930 . S
C480 C479 1.388 . S
C480 C481 1.390 . S
C481 C480 1.390 . S
C481 C482 1.394 . S
C481 C487 1.465 . S
C482 C477 1.399 . S
C482 C481 1.394 . S
C482 C483 1.516 . S
C483 C482 1.516 . S
C483 C484 1.502 1_554 S
C483 C485 1.561 1_554 S
C483 C486 1.526 . S
C484 H468 0.959 1_556 S
C484 H469 0.959 . S
C484 H470 0.961 . S
C484 C483 1.502 1_556 S
C485 H471 0.960 . S
C485 H472 0.961 . S
C485 H473 0.959 1_556 S
C485 C483 1.561 1_556 S
C486 C483 1.526 . S
C486 C487 1.396 . S
C486 C491 1.390 . S
C487 C481 1.465 . S
C487 C486 1.396 . S
C487 C488 1.399 . S
C488 H474 0.929 . S
C488 C487 1.399 . S
C488 C489 1.385 . S
C489 H475 0.931 . S
C489 C488 1.385 . S
C489 C490 1.389 . S
C490 C489 1.389 . S
C490 C491 1.387 . S
C491 H476 0.930 . S
C491 C486 1.390 . S
C491 C490 1.387 . S
H492 C504 0.930 . S
H493 C506 0.930 . S
H494 C507 0.930 . S
H495 C511 0.959 . S
H496 C511 0.959 . S
H497 C511 0.961 . S
H498 C512 0.960 . S
H499 C512 0.961 . S
H500 C512 0.959 . S
H501 C515 0.929 . S
H502 C516 0.931 . S
H503 C518 0.930 . S
C504 H492 0.930 . S
C504 C505 1.399 . S
C504 C509 1.399 . S
C505 C504 1.399 . S
C505 C506 1.376 . S
C506 H493 0.930 . S
C506 C505 1.376 . S
C506 C507 1.388 . S
C507 H494 0.930 . S
C507 C506 1.388 . S
C507 C508 1.390 . S
C508 C507 1.390 . S
C508 C509 1.394 . S
C508 C514 1.465 . S
C509 C504 1.399 . S
C509 C508 1.394 . S
C509 C510 1.516 . S
C510 C509 1.516 . S
C510 C511 1.502 . S
C510 C512 1.561 . S
C510 C513 1.526 . S
C511 H495 0.959 . S
C511 H496 0.959 . S
C511 H497 0.961 . S
C511 C510 1.502 . S
C512 H498 0.960 . S
C512 H499 0.961 . S
C512 H500 0.959 . S
C512 C510 1.561 . S
C513 C510 1.526 . S
C513 C514 1.396 . S
C513 C518 1.390 . S
C514 C508 1.465 . S
C514 C513 1.396 . S
C514 C515 1.399 . S
C515 H501 0.929 . S
C515 C514 1.399 . S
C515 C516 1.385 . S
C516 H502 0.931 . S
C516 C515 1.385 . S
C516 C517 1.389 . S
C517 C516 1.389 . S
C517 C518 1.387 . S
C518 H503 0.930 . S
C518 C513 1.390 . S
C518 C517 1.387 . S
H519 C531 0.930 . S
H520 C533 0.930 . S
H521 C534 0.930 . S
H522 C538 0.959 . S
H523 C538 0.959 . S
H524 C538 0.961 . S
H525 C539 0.960 . S
H526 C539 0.961 . S
H527 C539 0.959 . S
H528 C542 0.929 . S
H529 C543 0.931 . S
H530 C545 0.930 . S
C531 H519 0.930 . S
C531 C532 1.399 . S
C531 C536 1.399 . S
C532 C531 1.399 . S
C532 C533 1.376 . S
C533 H520 0.930 . S
C533 C532 1.376 . S
C533 C534 1.388 . S
C534 H521 0.930 . S
C534 C533 1.388 . S
C534 C535 1.390 . S
C535 C534 1.390 . S
C535 C536 1.394 . S
C535 C541 1.465 . S
C536 C531 1.399 . S
C536 C535 1.394 . S
C536 C537 1.516 . S
C537 C536 1.516 . S
C537 C538 1.502 . S
C537 C539 1.561 . S
C537 C540 1.526 . S
C538 H522 0.959 . S
C538 H523 0.959 . S
C538 H524 0.961 . S
C538 C537 1.502 . S
C539 H525 0.960 . S
C539 H526 0.961 . S
C539 H527 0.959 . S
C539 C537 1.561 . S
C540 C537 1.526 . S
C540 C541 1.396 . S
C540 C545 1.390 . S
C541 C535 1.465 . S
C541 C540 1.396 . S
C541 C542 1.399 . S
C542 H528 0.929 . S
C542 C541 1.399 . S
C542 C543 1.385 . S
C543 H529 0.931 . S
C543 C542 1.385 . S
C543 C544 1.389 . S
C544 C543 1.389 . S
C544 C545 1.387 . S
C545 H530 0.930 . S
C545 C540 1.390 . S
C545 C544 1.387 . S
H546 C558 0.930 . S
H547 C560 0.930 . S
H548 C561 0.930 . S
H549 C565 0.959 . S
H550 C565 0.959 . S
H551 C565 0.961 . S
H552 C566 0.960 . S
H553 C566 0.961 1_556 S
H554 C566 0.959 . S
H555 C569 0.929 . S
H556 C570 0.931 . S
H557 C572 0.930 . S
C558 H546 0.930 . S
C558 C559 1.399 . S
C558 C563 1.399 . S
C559 C558 1.399 . S
C559 C560 1.376 . S
C560 H547 0.930 . S
C560 C559 1.376 . S
C560 C561 1.388 . S
C561 H548 0.930 . S
C561 C560 1.388 . S
C561 C562 1.390 . S
C562 C561 1.390 . S
C562 C563 1.394 . S
C562 C568 1.465 . S
C563 C558 1.399 . S
C563 C562 1.394 . S
C563 C564 1.516 1_554 S
C564 C563 1.516 1_556 S
C564 C565 1.502 . S
C564 C566 1.561 1_556 S
C564 C567 1.526 . S
C565 H549 0.959 . S
C565 H550 0.959 . S
C565 H551 0.961 . S
C565 C564 1.502 . S
C566 H552 0.960 . S
C566 H553 0.961 1_554 S
C566 H554 0.959 . S
C566 C564 1.561 1_554 S
C567 C564 1.526 . S
C567 C568 1.396 1_556 S
C567 C572 1.390 . S
C568 C562 1.465 . S
C568 C567 1.396 1_554 S
C568 C569 1.399 . S
C569 H555 0.929 . S
C569 C568 1.399 . S
C569 C570 1.385 1_554 S
C570 H556 0.931 . S
C570 C569 1.385 1_556 S
C570 C571 1.389 . S
C571 C570 1.389 . S
C571 C572 1.387 . S
C572 H557 0.930 . S
C572 C567 1.390 . S
C572 C571 1.387 . S
H573 C585 0.930 . S
H574 C587 0.930 . S
H575 C588 0.930 . S
H576 C592 0.959 . S
H577 C592 0.959 . S
H578 C592 0.961 . S
H579 C593 0.960 . S
H580 C593 0.961 . S
H581 C593 0.959 . S
H582 C596 0.929 . S
H583 C597 0.931 . S
H584 C599 0.930 . S
C585 H573 0.930 . S
C585 C586 1.399 . S
C585 C590 1.399 . S
C586 C585 1.399 . S
C586 C587 1.376 . S
C587 H574 0.930 . S
C587 C586 1.376 . S
C587 C588 1.388 . S
C588 H575 0.930 . S
C588 C587 1.388 . S
C588 C589 1.390 . S
C589 C588 1.390 . S
C589 C590 1.394 . S
C589 C595 1.465 . S
C590 C585 1.399 . S
C590 C589 1.394 . S
C590 C591 1.516 . S
C591 C590 1.516 . S
C591 C592 1.502 . S
C591 C593 1.561 . S
C591 C594 1.526 . S
C592 H576 0.959 . S
C592 H577 0.959 . S
C592 H578 0.961 . S
C592 C591 1.502 . S
C593 H579 0.960 . S
C593 H580 0.961 . S
C593 H581 0.959 . S
C593 C591 1.561 . S
C594 C591 1.526 . S
C594 C595 1.396 . S
C594 C599 1.390 . S
C595 C589 1.465 . S
C595 C594 1.396 . S
C595 C596 1.399 . S
C596 H582 0.929 . S
C596 C595 1.399 . S
C596 C597 1.385 . S
C597 H583 0.931 . S
C597 C596 1.385 . S
C597 C598 1.389 . S
C598 C597 1.389 . S
C598 C599 1.387 . S
C599 H584 0.930 . S
C599 C594 1.390 . S
C599 C598 1.387 . S
H600 C612 0.930 . S
H601 C614 0.930 . S
H602 C615 0.930 . S
H603 C619 0.959 . S
H604 C619 0.959 . S
H605 C619 0.961 . S
H606 C620 0.960 . S
H607 C620 0.961 . S
H608 C620 0.959 . S
H609 C623 0.929 . S
H610 C624 0.931 . S
H611 C626 0.930 . S
C612 H600 0.930 . S
C612 C613 1.399 . S
C612 C617 1.399 . S
C613 C612 1.399 . S
C613 C614 1.376 . S
C614 H601 0.930 . S
C614 C613 1.376 . S
C614 C615 1.388 . S
C615 H602 0.930 . S
C615 C614 1.388 . S
C615 C616 1.390 . S
C616 C615 1.390 . S
C616 C617 1.394 . S
C616 C622 1.465 . S
C617 C612 1.399 . S
C617 C616 1.394 . S
C617 C618 1.516 . S
C618 C617 1.516 . S
C618 C619 1.502 . S
C618 C620 1.561 . S
C618 C621 1.526 . S
C619 H603 0.959 . S
C619 H604 0.959 . S
C619 H605 0.961 . S
C619 C618 1.502 . S
C620 H606 0.960 . S
C620 H607 0.961 . S
C620 H608 0.959 . S
C620 C618 1.561 . S
C621 C618 1.526 . S
C621 C622 1.396 . S
C621 C626 1.390 . S
C622 C616 1.465 . S
C622 C621 1.396 . S
C622 C623 1.399 . S
C623 H609 0.929 . S
C623 C622 1.399 . S
C623 C624 1.385 . S
C624 H610 0.931 . S
C624 C623 1.385 . S
C624 C625 1.389 . S
C625 C624 1.389 . S
C625 C626 1.387 . S
C626 H611 0.930 . S
C626 C621 1.390 . S
C626 C625 1.387 . S
H627 C639 0.930 . S
H628 C641 0.930 . S
H629 C642 0.930 1_556 S
H630 C646 0.959 . S
H631 C646 0.959 . S
H632 C646 0.961 . S
H633 C647 0.960 . S
H634 C647 0.961 . S
H635 C647 0.959 . S
H636 C650 0.929 . S
H637 C651 0.931 . S
H638 C653 0.930 . S
C639 H627 0.930 . S
C639 C640 1.399 . S
C639 C644 1.399 . S
C640 C639 1.399 . S
C640 C641 1.376 . S
C641 H628 0.930 . S
C641 C640 1.376 . S
C641 C642 1.388 . S
C642 H629 0.930 1_554 S
C642 C641 1.388 . S
C642 C643 1.390 . S
C643 C642 1.390 . S
C643 C644 1.394 . S
C643 C649 1.465 1_554 S
C644 C639 1.399 . S
C644 C643 1.394 . S
C644 C645 1.516 . S
C645 C644 1.516 . S
C645 C646 1.502 . S
C645 C647 1.561 1_554 S
C645 C648 1.526 1_554 S
C646 H630 0.959 . S
C646 H631 0.959 . S
C646 H632 0.961 . S
C646 C645 1.502 . S
C647 H633 0.960 . S
C647 H634 0.961 . S
C647 H635 0.959 . S
C647 C645 1.561 1_556 S
C648 C645 1.526 1_556 S
C648 C649 1.396 . S
C648 C653 1.390 . S
C649 C643 1.465 1_556 S
C649 C648 1.396 . S
C649 C650 1.399 . S
C650 H636 0.929 . S
C650 C649 1.399 . S
C650 C651 1.385 . S
C651 H637 0.931 . S
C651 C650 1.385 . S
C651 C652 1.389 . S
C652 C651 1.389 . S
C652 C653 1.387 . S
C653 H638 0.930 . S
C653 C648 1.390 . S
C653 C652 1.387 . S
H654 C666 0.930 . S
H655 C668 0.930 . S
H656 C669 0.930 . S
H657 C673 0.959 . S
H658 C673 0.959 . S
H659 C673 0.961 . S
H660 C674 0.960 . S
H661 C674 0.961 . S
H662 C674 0.959 . S
H663 C677 0.929 . S
H664 C678 0.931 . S
H665 C680 0.930 . S
C666 H654 0.930 . S
C666 C667 1.399 . S
C666 C671 1.399 . S
C667 C666 1.399 . S
C667 C668 1.376 1_545 S
C668 H655 0.930 . S
C668 C667 1.376 1_565 S
C668 C669 1.388 . S
C669 H656 0.930 . S
C669 C668 1.388 . S
C669 C670 1.390 . S
C670 C669 1.390 . S
C670 C671 1.394 1_565 S
C670 C676 1.465 . S
C671 C666 1.399 . S
C671 C670 1.394 1_545 S
C671 C672 1.516 . S
C672 C671 1.516 . S
C672 C673 1.502 . S
C672 C674 1.561 . S
C672 C675 1.526 . S
C673 H657 0.959 . S
C673 H658 0.959 . S
C673 H659 0.961 . S
C673 C672 1.502 . S
C674 H660 0.960 . S
C674 H661 0.961 . S
C674 H662 0.959 . S
C674 C672 1.561 . S
C675 C672 1.526 . S
C675 C676 1.396 1_545 S
C675 C680 1.390 . S
C676 C670 1.465 . S
C676 C675 1.396 1_565 S
C676 C677 1.399 . S
C677 H663 0.929 . S
C677 C676 1.399 . S
C677 C678 1.385 . S
C678 H664 0.931 . S
C678 C677 1.385 . S
C678 C679 1.389 . S
C679 C678 1.389 . S
C679 C680 1.387 1_565 S
C680 H665 0.930 . S
C680 C675 1.390 . S
C680 C679 1.387 1_545 S
H681 C693 0.930 . S
H682 C695 0.930 . S
H683 C696 0.930 . S
H684 C700 0.959 . S
H685 C700 0.959 . S
H686 C700 0.961 . S
H687 C701 0.960 . S
H688 C701 0.961 . S
H689 C701 0.959 . S
H690 C704 0.929 . S
H691 C705 0.931 . S
H692 C707 0.930 . S
C693 H681 0.930 . S
C693 C694 1.399 . S
C693 C698 1.399 . S
C694 C693 1.399 . S
C694 C695 1.376 . S
C695 H682 0.930 . S
C695 C694 1.376 . S
C695 C696 1.388 . S
C696 H683 0.930 . S
C696 C695 1.388 . S
C696 C697 1.390 . S
C697 C696 1.390 . S
C697 C698 1.394 . S
C697 C703 1.465 . S
C698 C693 1.399 . S
C698 C697 1.394 . S
C698 C699 1.516 . S
C699 C698 1.516 . S
C699 C700 1.502 . S
C699 C701 1.561 . S
C699 C702 1.526 . S
C700 H684 0.959 . S
C700 H685 0.959 . S
C700 H686 0.961 . S
C700 C699 1.502 . S
C701 H687 0.960 . S
C701 H688 0.961 . S
C701 H689 0.959 . S
C701 C699 1.561 . S
C702 C699 1.526 . S
C702 C703 1.396 . S
C702 C707 1.390 . S
C703 C697 1.465 . S
C703 C702 1.396 . S
C703 C704 1.399 . S
C704 H690 0.929 . S
C704 C703 1.399 . S
C704 C705 1.385 . S
C705 H691 0.931 . S
C705 C704 1.385 . S
C705 C706 1.389 . S
C706 C705 1.389 . S
C706 C707 1.387 . S
C707 H692 0.930 . S
C707 C702 1.390 . S
C707 C706 1.387 . S
H708 C720 0.930 . S
H709 C722 0.930 . S
H710 C723 0.930 . S
H711 C727 0.959 . S
H712 C727 0.959 1_455 S
H713 C727 0.961 1_455 S
H714 C728 0.960 . S
H715 C728 0.961 . S
H716 C728 0.959 . S
H717 C731 0.929 . S
H718 C732 0.931 . S
H719 C734 0.930 1_455 S
C720 H708 0.930 . S
C720 C721 1.399 . S
C720 C725 1.399 . S
C721 C720 1.399 . S
C721 C722 1.376 . S
C722 H709 0.930 . S
C722 C721 1.376 . S
C722 C723 1.388 1_455 S
C723 H710 0.930 . S
C723 C722 1.388 1_655 S
C723 C724 1.390 1_655 S
C724 C723 1.390 1_455 S
C724 C725 1.394 . S
C724 C730 1.465 1_455 S
C725 C720 1.399 . S
C725 C724 1.394 . S
C725 C726 1.516 . S
C726 C725 1.516 . S
C726 C727 1.502 1_455 S
C726 C728 1.561 . S
C726 C729 1.526 . S
C727 H711 0.959 . S
C727 H712 0.959 1_655 S
C727 H713 0.961 1_655 S
C727 C726 1.502 1_655 S
C728 H714 0.960 . S
C728 H715 0.961 . S
C728 H716 0.959 . S
C728 C726 1.561 . S
C729 C726 1.526 . S
C729 C730 1.396 1_455 S
C729 C734 1.390 1_455 S
C730 C724 1.465 1_655 S
C730 C729 1.396 1_655 S
C730 C731 1.399 . S
C731 H717 0.929 . S
C731 C730 1.399 . S
C731 C732 1.385 . S
C732 H718 0.931 . S
C732 C731 1.385 . S
C732 C733 1.389 . S
C733 C732 1.389 . S
C733 C734 1.387 . S
C734 H719 0.930 1_655 S
C734 C729 1.390 1_655 S
C734 C733 1.387 . S
H735 C747 0.930 . S
H736 C749 0.930 . S
H737 C750 0.930 . S
H738 C754 0.959 . S
H739 C754 0.959 . S
H740 C754 0.961 . S
H741 C755 0.960 . S
H742 C755 0.961 . S
H743 C755 0.959 . S
H744 C758 0.929 . S
H745 C759 0.931 . S
H746 C761 0.930 . S
C747 H735 0.930 . S
C747 C748 1.399 . S
C747 C752 1.399 . S
C748 C747 1.399 . S
C748 C749 1.376 1_565 S
C749 H736 0.930 . S
C749 C748 1.376 1_545 S
C749 C750 1.388 . S
C750 H737 0.930 . S
C750 C749 1.388 . S
C750 C751 1.390 . S
C751 C750 1.390 . S
C751 C752 1.394 1_545 S
C751 C757 1.465 . S
C752 C747 1.399 . S
C752 C751 1.394 1_565 S
C752 C753 1.516 . S
C753 C752 1.516 . S
C753 C754 1.502 . S
C753 C755 1.561 . S
C753 C756 1.526 . S
C754 H738 0.959 . S
C754 H739 0.959 . S
C754 H740 0.961 . S
C754 C753 1.502 . S
C755 H741 0.960 . S
C755 H742 0.961 . S
C755 H743 0.959 . S
C755 C753 1.561 . S
C756 C753 1.526 . S
C756 C757 1.396 1_565 S
C756 C761 1.390 . S
C757 C751 1.465 . S
C757 C756 1.396 1_545 S
C757 C758 1.399 . S
C758 H744 0.929 . S
C758 C757 1.399 . S
C758 C759 1.385 . S
C759 H745 0.931 . S
C759 C758 1.385 . S
C759 C760 1.389 . S
C760 C759 1.389 . S
C760 C761 1.387 1_545 S
C761 H746 0.930 . S
C761 C756 1.390 . S
C761 C760 1.387 1_565 S
H762 C774 0.930 . S
H763 C776 0.930 . S
H764 C777 0.930 . S
H765 C781 0.959 . S
H766 C781 0.959 . S
H767 C781 0.961 . S
H768 C782 0.960 . S
H769 C782 0.961 . S
H770 C782 0.959 . S
H771 C785 0.929 . S
H772 C786 0.931 . S
H773 C788 0.930 . S
C774 H762 0.930 . S
C774 C775 1.399 . S
C774 C779 1.399 . S
C775 C774 1.399 . S
C775 C776 1.376 . S
C776 H763 0.930 . S
C776 C775 1.376 . S
C776 C777 1.388 . S
C777 H764 0.930 . S
C777 C776 1.388 . S
C777 C778 1.390 . S
C778 C777 1.390 . S
C778 C779 1.394 . S
C778 C784 1.465 . S
C779 C774 1.399 . S
C779 C778 1.394 . S
C779 C780 1.516 . S
C780 C779 1.516 . S
C780 C781 1.502 . S
C780 C782 1.561 . S
C780 C783 1.526 . S
C781 H765 0.959 . S
C781 H766 0.959 . S
C781 H767 0.961 . S
C781 C780 1.502 . S
C782 H768 0.960 . S
C782 H769 0.961 . S
C782 H770 0.959 . S
C782 C780 1.561 . S
C783 C780 1.526 . S
C783 C784 1.396 . S
C783 C788 1.390 . S
C784 C778 1.465 . S
C784 C783 1.396 . S
C784 C785 1.399 . S
C785 H771 0.929 . S
C785 C784 1.399 . S
C785 C786 1.385 . S
C786 H772 0.931 . S
C786 C785 1.385 . S
C786 C787 1.389 . S
C787 C786 1.389 . S
C787 C788 1.387 . S
C788 H773 0.930 . S
C788 C783 1.390 . S
C788 C787 1.387 . S
H789 C801 0.930 . S
H790 C803 0.930 . S
H791 C804 0.931 1_455 S
H792 C808 0.959 . S
H793 C808 0.959 . S
H794 C808 0.961 . S
H795 C809 0.960 . S
H796 C809 0.961 . S
H797 C809 0.959 . S
H798 C812 0.929 . S
H799 C813 0.931 . S
H800 C815 0.930 . S
C801 H789 0.930 . S
C801 C802 1.399 . S
C801 C806 1.399 . S
C802 C801 1.399 . S
C802 C803 1.376 . S
C803 H790 0.930 . S
C803 C802 1.376 . S
C803 C804 1.388 . S
C804 H791 0.931 1_655 S
C804 C803 1.388 . S
C804 C805 1.390 . S
C805 C804 1.390 . S
C805 C806 1.394 . S
C805 C811 1.465 1_655 S
C806 C801 1.399 . S
C806 C805 1.394 . S
C806 C807 1.516 . S
C807 C806 1.516 . S
C807 C808 1.502 1_655 S
C807 C809 1.561 . S
C807 C810 1.525 . S
C808 H792 0.959 . S
C808 H793 0.959 . S
C808 H794 0.961 . S
C808 C807 1.502 1_455 S
C809 H795 0.960 . S
C809 H796 0.961 . S
C809 H797 0.959 . S
C809 C807 1.561 . S
C810 C807 1.525 . S
C810 C811 1.402 1_655 S
C810 C815 1.386 1_655 S
C811 C805 1.465 1_455 S
C811 C810 1.402 1_455 S
C811 C812 1.399 . S
C812 H798 0.929 . S
C812 C811 1.399 . S
C812 C813 1.385 . S
C813 H799 0.931 . S
C813 C812 1.385 . S
C813 C814 1.389 . S
C814 C813 1.389 . S
C814 C815 1.387 . S
C815 H800 0.930 . S
C815 C810 1.386 1_455 S
C815 C814 1.387 . S
C181 C11 1.759 . S
C193 C123 1.776 . S
C208 C25 1.741 . S
C220 C137 1.764 . S
C235 C151 1.718 . S
C247 C39 1.738 . S
C262 C165 1.744 . S
C274 C53 1.739 . S
C289 C95 1.742 . S
C301 C67 1.749 . S
C316 C109 1.726 . S
C328 C81 1.742 . S
C343 C12 1.425 1_545 S
C355 C54 1.429 . S
C370 C68 1.408 . S
C382 C26 1.410 . S
C397 C82 1.382 1_455 S
C409 C40 1.376 . S
C424 C96 1.451 . S
C436 C138 1.449 . S
C451 C152 1.407 1_545 S
C463 C110 1.401 . S
C478 C124 1.434 . S
C490 C166 1.433 . S
C505 C89 1.196 . S
C517 C5 1.174 . S
C532 C19 1.147 . S
C544 C103 1.220 . S
C559 C117 1.125 . S
C571 C33 1.191 . S
C586 C131 1.237 . S
C598 C47 1.159 . S
C613 C61 1.183 . S
C625 C145 1.130 . S
C640 C159 1.212 . S
C652 C75 1.168 . S
C667 C4 0.886 . S
C679 C102 0.869 . S
C694 C116 0.882 . S
C706 C18 0.908 . S
C721 C130 0.898 . S
C733 C32 0.899 . S
C748 C46 0.888 . S
C760 C144 0.872 . S
C775 C158 0.889 . S
C787 C60 0.864 . S
C802 C88 0.896 . S
C814 C74 0.900 . S
