# Generated by pormake.
# Topology unh, (4)-cn, num edge types: 1
# Building blocks:
#     Node 0, Type 0, BuildingBlock: ICAMEG_clean_sbu_1, # of connection points: 4
#     Node 1, Type 0, BuildingBlock: ICAMEG_clean_sbu_1, # of connection points: 4
#     Node 2, Type 0, BuildingBlock: ICAMEG_clean_sbu_1, # of connection points: 4
#     Node 3, Type 0, BuildingBlock: ICAMEG_clean_sbu_1, # of connection points: 4
#     Node 4, Type 0, BuildingBlock: ICAMEG_clean_sbu_1, # of connection points: 4
#     Node 5, Type 0, BuildingBlock: ICAMEG_clean_sbu_1, # of connection points: 4
#     Edge 6, Type (0, 0), BuildingBlock: UVAHIK_clean_linker_0, # of connection points: 2
#     Edge 7, Type (0, 0), BuildingBlock: UVAHIK_clean_linker_0, # of connection points: 2
#     Edge 8, Type (0, 0), BuildingBlock: UVAHIK_clean_linker_0, # of connection points: 2
#     Edge 9, Type (0, 0), BuildingBlock: UVAHIK_clean_linker_0, # of connection points: 2
#     Edge 10, Type (0, 0), BuildingBlock: UVAHIK_clean_linker_0, # of connection points: 2
#     Edge 11, Type (0, 0), BuildingBlock: UVAHIK_clean_linker_0, # of connection points: 2
#     Edge 12, Type (0, 0), BuildingBlock: UVAHIK_clean_linker_0, # of connection points: 2
#     Edge 13, Type (0, 0), BuildingBlock: UVAHIK_clean_linker_0, # of connection points: 2
#     Edge 14, Type (0, 0), BuildingBlock: UVAHIK_clean_linker_0, # of connection points: 2
#     Edge 15, Type (0, 0), BuildingBlock: UVAHIK_clean_linker_0, # of connection points: 2
#     Edge 16, Type (0, 0), BuildingBlock: UVAHIK_clean_linker_0, # of connection points: 2
#     Edge 17, Type (0, 0), BuildingBlock: UVAHIK_clean_linker_0, # of connection points: 2
# Relax obj value: 0.018
# Max RMSD: 0.106
# Mean RMSD: 0.106
data_MOF--net-unh--node1-ICAMEG_clean_sbu_1--edge1-UVAHIK_clean_linker_0
_symmetry_space_group_name_H-M    P1
_symmetry_Int_Tables_number       1
_symmetry_cell_setting            triclinic
loop_
_symmetry_equiv_pos_as_xyz
'x, y, z'
_cell_length_a     56.719561
_cell_length_b     56.700503
_cell_length_c     31.404558
_cell_angle_alpha  89.996828
_cell_angle_beta   89.979904
_cell_angle_gamma 120.01303
loop_
_atom_site_label
_atom_site_type_symbol
_atom_site_fract_x
_atom_site_fract_y
_atom_site_fract_z
_atom_type_partial_charge
Co0 Co 0.14007 0.54725 0.04188 0.0
Co1 Co 0.13901 0.59107 0.11737 0.0
O2 O 0.12103 0.55958 0.07959 0.0
C3 C 0.10355 0.55606 0.98622 0.0
O4 O 0.11171 0.57904 0.00668 0.0
C5 C 0.10368 0.54499 0.17276 0.0
O6 O 0.11286 0.53105 0.15229 0.0
O7 O 0.16348 0.5784 0.13965 0.0
O8 O 0.16773 0.55395 0.08687 0.0
H9 H 0.21912 0.67067 0.18663 0.0
H10 H 0.08069 0.51196 0.05559 0.0
O11 O 0.11292 0.54052 0.99605 0.0
H12 H 0.12171 0.45791 0.10469 0.0
H13 H 0.14495 0.4858 0.93088 0.0
H14 H 0.19792 0.56666 0.02119 0.0
H15 H 0.15049 0.50401 0.07521 0.0
H16 H 0.12171 0.50153 0.98 0.0
O17 O 0.11211 0.56978 0.16313 0.0
H18 H 0.19636 0.63129 0.13815 0.0
H19 H 0.1189 0.61683 0.17928 0.0
H20 H 0.22202 0.55151 0.9728 0.0
H21 H 0.05114 0.46585 0.08453 0.0
H22 H 0.19547 0.5108 0.92722 0.0
H23 H 0.07165 0.43854 0.10947 0.0
O24 O 0.16336 0.58463 0.01963 0.0
H25 H 0.04853 0.5796 0.07446 0.0
H26 H 0.14725 0.64397 0.08413 0.0
H27 H 0.1171 0.65957 0.05456 0.0
H28 H 0.06736 0.62728 0.04961 0.0
H29 H 0.07945 0.56479 0.1035 0.0
H30 H 0.1408 0.6559 0.22849 0.0
H31 H 0.19127 0.68319 0.23223 0.0
O32 O 0.16639 0.61287 0.0724 0.0
C33 C 0.17396 0.56513 0.12354 0.0
C34 C 0.19711 0.65901 0.18515 0.0
C35 C 0.15316 0.6507 0.20869 0.0
N36 N 0.15636 0.62199 0.15556 0.0
C37 C 0.18412 0.63676 0.15766 0.0
C38 C 0.14087 0.62858 0.18082 0.0
C39 C 0.18147 0.66601 0.21077 0.0
C40 C 0.08973 0.50007 0.06594 0.0
N41 N 0.11726 0.5106 0.06352 0.0
C42 C 0.07291 0.47403 0.08247 0.0
C43 C 0.08444 0.45874 0.09653 0.0
C44 C 0.11253 0.4696 0.09389 0.0
C45 C 0.12873 0.49574 0.07726 0.0
C46 C 0.15674 0.50352 0.95067 0.0
C47 C 0.18626 0.54881 0.00169 0.0
C48 C 0.1437 0.51254 0.97849 0.0
N49 N 0.15848 0.53481 0.00374 0.0
C50 C 0.2 0.54038 0.97424 0.0
C51 C 0.18509 0.51755 0.94864 0.0
C52 C 0.17297 0.60832 0.03571 0.0
C53 C 0.07016 0.59389 0.07659 0.0
C54 C 0.12563 0.62979 0.08201 0.0
C55 C 0.10866 0.63875 0.06532 0.0
C56 C 0.08074 0.62063 0.06258 0.0
N57 N 0.11509 0.60353 0.0957 0.0
C58 C 0.08774 0.58565 0.09319 0.0
Co59 Co 0.592 0.14013 0.20805 0.0
Co60 Co 0.54797 0.14016 0.2838 0.0
O61 O 0.56077 0.12164 0.24603 0.0
C62 C 0.54623 0.10392 0.15312 0.0
O63 O 0.5321 0.11301 0.17325 0.0
C64 C 0.55733 0.10412 0.33997 0.0
O65 O 0.58151 0.11443 0.32243 0.0
O66 O 0.58525 0.16375 0.30637 0.0
O67 O 0.61335 0.16797 0.25261 0.0
H68 H 0.55079 0.22104 0.35445 0.0
H69 H 0.5672 0.08079 0.22316 0.0
O70 O 0.57109 0.11273 0.16271 0.0
H71 H 0.66246 0.12111 0.27094 0.0
H72 H 0.65738 0.14336 0.09667 0.0
H73 H 0.63096 0.19773 0.18647 0.0
H74 H 0.64558 0.1501 0.24083 0.0
H75 H 0.61859 0.12083 0.14631 0.0
O76 O 0.54119 0.11249 0.32874 0.0
H77 H 0.5666 0.19774 0.3056 0.0
H78 H 0.50194 0.12077 0.34529 0.0
H79 H 0.67005 0.22112 0.13755 0.0
H80 H 0.58328 0.05103 0.25281 0.0
H81 H 0.68347 0.19387 0.09222 0.0
H82 H 0.6312 0.0712 0.27706 0.0
O83 O 0.57831 0.16371 0.18558 0.0
H84 H 0.46727 0.05109 0.23966 0.0
H85 H 0.50453 0.15028 0.25056 0.0
H86 H 0.45862 0.12137 0.22064 0.0
H87 H 0.4397 0.07139 0.21508 0.0
H88 H 0.51319 0.08077 0.269 0.0
H89 H 0.48554 0.14321 0.39484 0.0
H90 H 0.50998 0.19371 0.3995 0.0
O91 O 0.55458 0.16815 0.23934 0.0
C92 C 0.60885 0.17418 0.28962 0.0
C93 C 0.53991 0.19903 0.35258 0.0
C94 C 0.50331 0.15534 0.37529 0.0
N95 N 0.53503 0.15796 0.32228 0.0
C96 C 0.54871 0.18573 0.32487 0.0
C97 C 0.5127 0.14275 0.34723 0.0
C98 C 0.51702 0.18368 0.37788 0.0
C99 C 0.58816 0.08967 0.23325 0.0
N100 N 0.60547 0.11711 0.23004 0.0
C101 C 0.59711 0.07274 0.25018 0.0
C102 C 0.624 0.08407 0.26384 0.0
C103 C 0.64154 0.11208 0.26044 0.0
C104 C 0.63186 0.12839 0.24343 0.0
C105 C 0.65178 0.15546 0.11635 0.0
C106 C 0.63684 0.18576 0.16708 0.0
C107 C 0.62982 0.14282 0.14446 0.0
N108 N 0.62273 0.15799 0.16956 0.0
C109 C 0.65891 0.19911 0.13934 0.0
C110 C 0.66642 0.1838 0.11388 0.0
C111 C 0.56522 0.17422 0.20227 0.0
C112 C 0.47526 0.07283 0.24205 0.0
C113 C 0.49647 0.12855 0.24815 0.0
C114 C 0.47043 0.11228 0.23127 0.0
C115 C 0.45982 0.08424 0.22819 0.0
N116 N 0.51149 0.11721 0.26168 0.0
C117 C 0.5012 0.08972 0.25883 0.0
Co118 Co 0.40426 0.54782 0.44935 0.0
Co119 Co 0.4494 0.59326 0.37621 0.0
O120 O 0.43606 0.56125 0.41253 0.0
C121 C 0.44868 0.55566 0.5064 0.0
O122 O 0.46286 0.58016 0.49003 0.0
C123 C 0.44115 0.54911 0.31814 0.0
O124 O 0.41685 0.53477 0.33512 0.0
O125 O 0.4125 0.57983 0.35214 0.0
O126 O 0.38375 0.55567 0.40508 0.0
H127 H 0.44738 0.67245 0.30825 0.0
H128 H 0.42874 0.51316 0.43249 0.0
O129 O 0.42433 0.5398 0.49412 0.0
H130 H 0.33416 0.46024 0.38085 0.0
H131 H 0.33691 0.48317 0.55649 0.0
H132 H 0.36535 0.56636 0.47173 0.0
H133 H 0.35102 0.50541 0.41361 0.0
H134 H 0.37643 0.50041 0.50814 0.0
O135 O 0.4571 0.5734 0.33063 0.0
H136 H 0.43087 0.63238 0.35526 0.0
H137 H 0.49654 0.62136 0.31702 0.0
H138 H 0.32558 0.54972 0.5194 0.0
H139 H 0.41265 0.46798 0.40023 0.0
H140 H 0.31113 0.50783 0.5622 0.0
H141 H 0.36507 0.44124 0.37402 0.0
O142 O 0.41788 0.58463 0.474 0.0
H143 H 0.52922 0.58427 0.42322 0.0
H144 H 0.49208 0.64627 0.41228 0.0
H145 H 0.53734 0.6628 0.44444 0.0
H146 H 0.55619 0.63171 0.45005 0.0
H147 H 0.48396 0.56851 0.39157 0.0
H148 H 0.51365 0.66117 0.26931 0.0
H149 H 0.48906 0.68707 0.26485 0.0
O150 O 0.44184 0.61359 0.42119 0.0
C151 C 0.38872 0.56673 0.36829 0.0
C152 C 0.45833 0.6614 0.31004 0.0
C153 C 0.49551 0.65505 0.28814 0.0
N154 N 0.4629 0.62476 0.3392 0.0
C155 C 0.44914 0.63876 0.33671 0.0
C156 C 0.48571 0.63251 0.31516 0.0
C157 C 0.48171 0.66957 0.28567 0.0
C158 C 0.40793 0.50153 0.42156 0.0
N159 N 0.39081 0.51185 0.42513 0.0
C160 C 0.39897 0.47601 0.40315 0.0
C161 C 0.37228 0.46103 0.38839 0.0
C162 C 0.35493 0.47169 0.39218 0.0
C163 C 0.36461 0.4973 0.41069 0.0
C164 C 0.34296 0.5014 0.53792 0.0
C165 C 0.35905 0.54801 0.49002 0.0
C166 C 0.36534 0.51128 0.51055 0.0
N167 N 0.37299 0.53421 0.48684 0.0
C168 C 0.33658 0.53873 0.51706 0.0
C169 C 0.3285 0.51524 0.5411 0.0
C170 C 0.43094 0.60848 0.45809 0.0
C171 C 0.52126 0.59804 0.42083 0.0
C172 C 0.50013 0.63261 0.41465 0.0
C173 C 0.52579 0.6421 0.43283 0.0
C174 C 0.53636 0.62464 0.43594 0.0
N175 N 0.48545 0.60649 0.39987 0.0
C176 C 0.49569 0.58927 0.40277 0.0
Co177 Co 0.85636 0.45111 0.5389 0.0
Co178 Co 0.85454 0.40641 0.61537 0.0
O179 O 0.87399 0.43772 0.57762 0.0
C180 C 0.89227 0.44041 0.48492 0.0
O181 O 0.88294 0.41731 0.50555 0.0
C182 C 0.89096 0.45174 0.67128 0.0
O183 O 0.88326 0.46679 0.65041 0.0
O184 O 0.83122 0.4207 0.63668 0.0
O185 O 0.82849 0.4455 0.58298 0.0
H186 H 0.77183 0.32907 0.68358 0.0
H187 H 0.91577 0.48458 0.55415 0.0
O188 O 0.88374 0.45676 0.49398 0.0
H189 H 0.87745 0.54158 0.60054 0.0
H190 H 0.8556 0.51399 0.42644 0.0
H191 H 0.79922 0.43382 0.5164 0.0
H192 H 0.84767 0.49573 0.57095 0.0
H193 H 0.87704 0.49694 0.47678 0.0
O194 O 0.88136 0.42678 0.66158 0.0
H195 H 0.79647 0.36821 0.63514 0.0
H196 H 0.87219 0.37896 0.67824 0.0
H197 H 0.77691 0.4503 0.46677 0.0
H198 H 0.94633 0.5304 0.58323 0.0
H199 H 0.80518 0.49067 0.42135 0.0
H200 H 0.92717 0.5592 0.6068 0.0
O201 O 0.83219 0.41393 0.51649 0.0
H202 H 0.94358 0.41346 0.57505 0.0
H203 H 0.84411 0.35259 0.58276 0.0
H204 H 0.87292 0.33503 0.5544 0.0
H205 H 0.92304 0.36555 0.55044 0.0
H206 H 0.91399 0.43025 0.60287 0.0
H207 H 0.8484 0.34008 0.72742 0.0
H208 H 0.79785 0.31478 0.73016 0.0
O209 O 0.82722 0.38544 0.57002 0.0
C210 C 0.82164 0.43458 0.6198 0.0
C211 C 0.79386 0.33986 0.68255 0.0
C212 C 0.83683 0.34606 0.7072 0.0
N213 N 0.83571 0.37563 0.65355 0.0
C214 C 0.80791 0.36197 0.65509 0.0
C215 C 0.85019 0.36807 0.67934 0.0
C216 C 0.80847 0.33187 0.70871 0.0
C217 C 0.90733 0.49711 0.5639 0.0
N218 N 0.88 0.48755 0.56067 0.0
C219 C 0.92471 0.52299 0.58052 0.0
C220 C 0.91394 0.53912 0.59381 0.0
C221 C 0.88604 0.52924 0.59034 0.0
C222 C 0.86927 0.50323 0.57365 0.0
C223 C 0.84307 0.49643 0.44615 0.0
C224 C 0.81163 0.45152 0.49697 0.0
C225 C 0.85509 0.48667 0.47466 0.0
N226 N 0.83937 0.46459 0.49981 0.0
C227 C 0.7989 0.46071 0.46883 0.0
C228 C 0.81477 0.48334 0.44332 0.0
C229 C 0.82144 0.39024 0.53291 0.0
C230 C 0.92178 0.39994 0.57676 0.0
C231 C 0.8659 0.36601 0.58107 0.0
C232 C 0.88211 0.35594 0.56506 0.0
C233 C 0.91024 0.37307 0.56288 0.0
N234 N 0.87738 0.39239 0.59464 0.0
C235 C 0.90493 0.40929 0.59267 0.0
Co236 Co 0.40461 0.8567 0.71077 0.0
Co237 Co 0.44821 0.85554 0.78631 0.0
O238 O 0.43601 0.87463 0.74852 0.0
C239 C 0.4502 0.89202 0.65422 0.0
O240 O 0.46407 0.882 0.67264 0.0
C241 C 0.43908 0.89187 0.84167 0.0
O242 O 0.41599 0.8832 0.8213 0.0
O243 O 0.41079 0.83216 0.80853 0.0
O244 O 0.38287 0.82899 0.75526 0.0
H245 H 0.44396 0.77359 0.85547 0.0
H246 H 0.43044 0.91619 0.72548 0.0
O247 O 0.42577 0.88402 0.66556 0.0
H248 H 0.33554 0.8776 0.77422 0.0
H249 H 0.33966 0.85508 0.60006 0.0
H250 H 0.3648 0.79938 0.68903 0.0
H251 H 0.35152 0.84786 0.74419 0.0
H252 H 0.3786 0.8769 0.64949 0.0
O253 O 0.45488 0.88276 0.83205 0.0
H254 H 0.42885 0.79766 0.80695 0.0
H255 H 0.49379 0.87394 0.84838 0.0
H256 H 0.32556 0.77668 0.64031 0.0
H257 H 0.41525 0.9467 0.75495 0.0
H258 H 0.31277 0.8046 0.5954 0.0
H259 H 0.36751 0.92741 0.77972 0.0
O260 O 0.41756 0.83252 0.68813 0.0
H261 H 0.52953 0.94441 0.74316 0.0
H262 H 0.49147 0.84507 0.75332 0.0
H263 H 0.53755 0.87379 0.72377 0.0
H264 H 0.55687 0.92384 0.71857 0.0
H265 H 0.48345 0.91491 0.77221 0.0
H266 H 0.50948 0.85073 0.89764 0.0
H267 H 0.48455 0.80018 0.90126 0.0
O268 O 0.44153 0.82787 0.7413 0.0
C269 C 0.38721 0.82236 0.79203 0.0
C270 C 0.45506 0.79562 0.85406 0.0
C271 C 0.49181 0.83891 0.87777 0.0
N272 N 0.46061 0.83714 0.82453 0.0
C273 C 0.44666 0.80935 0.82654 0.0
C274 C 0.48281 0.85194 0.84988 0.0
C275 C 0.47782 0.81055 0.87977 0.0
C276 C 0.40956 0.90768 0.73574 0.0
N277 N 0.39186 0.8803 0.73292 0.0
C278 C 0.40111 0.92504 0.75258 0.0
C279 C 0.37433 0.9142 0.76655 0.0
C280 C 0.35639 0.88625 0.76351 0.0
C281 C 0.36557 0.8695 0.74656 0.0
C282 C 0.34498 0.84269 0.61956 0.0
C283 C 0.35922 0.81164 0.66982 0.0
C284 C 0.36703 0.85493 0.64755 0.0
N285 N 0.37376 0.8394 0.67242 0.0
C286 C 0.33704 0.79869 0.64219 0.0
C287 C 0.3299 0.81437 0.61696 0.0
C288 C 0.43063 0.82187 0.7044 0.0
C289 C 0.52136 0.92263 0.74538 0.0
C290 C 0.49972 0.86683 0.7511 0.0
C291 C 0.52584 0.88299 0.73441 0.0
C292 C 0.53668 0.91108 0.73153 0.0
N293 N 0.48485 0.87833 0.76467 0.0
C294 C 0.49534 0.90584 0.76197 0.0
Co295 Co 0.59235 0.44939 0.94941 0.0
Co296 Co 0.54629 0.40397 0.87718 0.0
O297 O 0.56017 0.43601 0.91352 0.0
C298 C 0.54844 0.44137 0.00779 0.0
O299 O 0.53417 0.4169 0.99138 0.0
C300 C 0.55449 0.44822 0.81942 0.0
O301 O 0.57886 0.46244 0.8362 0.0
O302 O 0.58292 0.41713 0.85221 0.0
O303 O 0.61242 0.44168 0.9041 0.0
H304 H 0.54696 0.32434 0.8083 0.0
H305 H 0.56764 0.48402 0.93432 0.0
O306 O 0.57271 0.45727 0.99513 0.0
H307 H 0.66166 0.53714 0.88026 0.0
H308 H 0.66076 0.51384 0.05548 0.0
H309 H 0.6316 0.43092 0.9697 0.0
H310 H 0.64519 0.49192 0.91262 0.0
H311 H 0.62072 0.49663 0.00831 0.0
O312 O 0.53845 0.42397 0.83202 0.0
H313 H 0.56419 0.36448 0.85527 0.0
H314 H 0.49861 0.37614 0.81901 0.0
H315 H 0.67189 0.44752 0.01617 0.0
H316 H 0.58334 0.52925 0.9025 0.0
H317 H 0.6867 0.48928 0.05947 0.0
H318 H 0.63064 0.55609 0.87507 0.0
O319 O 0.57904 0.41254 0.97375 0.0
H320 H 0.46738 0.41381 0.92661 0.0
H321 H 0.50362 0.35113 0.91385 0.0
H322 H 0.45872 0.33499 0.94715 0.0
H323 H 0.44032 0.36643 0.95368 0.0
H324 H 0.51227 0.42917 0.8938 0.0
H325 H 0.48078 0.33626 0.77135 0.0
H326 H 0.50497 0.31 0.76593 0.0
O327 O 0.554 0.38351 0.92171 0.0
C328 C 0.60694 0.43044 0.86744 0.0
C329 C 0.53618 0.33555 0.81052 0.0
C330 C 0.49906 0.34226 0.78974 0.0
N331 N 0.53224 0.37243 0.8402 0.0
C332 C 0.54579 0.35823 0.83717 0.0
C333 C 0.50926 0.36484 0.81671 0.0
C334 C 0.51263 0.32753 0.78672 0.0
C335 C 0.58834 0.4957 0.92286 0.0
N336 N 0.60552 0.4854 0.92553 0.0
C337 C 0.59707 0.52125 0.9047 0.0
C338 C 0.6236 0.53628 0.88926 0.0
C339 C 0.64101 0.52565 0.89214 0.0
C340 C 0.63156 0.50001 0.91042 0.0
C341 C 0.65455 0.49567 0.03668 0.0
C342 C 0.63806 0.44921 0.98822 0.0
C343 C 0.63188 0.48581 0.00998 0.0
N344 N 0.62402 0.46296 0.98599 0.0
C345 C 0.66082 0.45847 0.01458 0.0
C346 C 0.6691 0.48188 0.0389 0.0
C347 C 0.5655 0.38864 0.95814 0.0
C348 C 0.47514 0.39989 0.92382 0.0
C349 C 0.49576 0.36494 0.91661 0.0
C350 C 0.47031 0.35567 0.93543 0.0
C351 C 0.45999 0.37332 0.93907 0.0
N352 N 0.51049 0.39103 0.9017 0.0
C353 C 0.50049 0.40844 0.9051 0.0
C354 C 0.06408 0.55697 0.95273 0.0
C355 C 0.08277 0.54762 0.95263 0.0
C356 C 0.04344 0.54768 0.92215 0.0
C357 C 0.00844 0.53471 0.84321 0.0
H358 H 0.97865 0.46067 0.80261 0.0
C359 C 0.93098 0.49173 0.70463 0.0
C360 C 0.91162 0.46385 0.70507 0.0
C361 C 0.95166 0.50272 0.73519 0.0
C362 C 0.98635 0.48126 0.81398 0.0
H363 H 0.09543 0.52222 0.91969 0.0
H364 H 0.06047 0.50711 0.86511 0.0
H365 H 0.01441 0.47813 0.85538 0.0
H366 H 0.8978 0.42577 0.73864 0.0
H367 H 0.93283 0.44503 0.79316 0.0
H368 H 0.97917 0.53721 0.80349 0.0
C369 C 0.06082 0.52067 0.88967 0.0
C370 C 0.00738 0.49153 0.84377 0.0
C371 C 0.08104 0.52949 0.92076 0.0
C372 C 0.91271 0.4473 0.73731 0.0
C373 C 0.93297 0.45835 0.76835 0.0
C374 C 0.987 0.52424 0.81394 0.0
C375 C 0.04142 0.52925 0.89033 0.0
C376 C 0.01887 0.51845 0.85864 0.0
C377 C 0.95306 0.48611 0.76729 0.0
C378 C 0.9757 0.49737 0.79885 0.0
H379 H 0.06488 0.57083 0.97719 0.0
H380 H 0.0287 0.55445 0.9242 0.0
H381 H 0.01695 0.55564 0.85342 0.0
H382 H 0.93067 0.50489 0.67987 0.0
H383 H 0.96693 0.52406 0.73286 0.0
C384 C 0.43717 0.93106 0.87416 0.0
C385 C 0.44725 0.91292 0.87476 0.0
C386 C 0.4459 0.9518 0.90448 0.0
C387 C 0.47116 0.97073 0.01152 0.0
H388 H 0.50935 0.04577 0.97256 0.0
C389 C 0.50483 0.06494 0.12087 0.0
C390 C 0.53312 0.08278 0.12021 0.0
C391 C 0.49259 0.04416 0.09067 0.0
C392 C 0.49855 0.02489 0.98371 0.0
H393 H 0.4737 0.90165 0.90793 0.0
H394 H 0.48825 0.93745 0.96185 0.0
H395 H 0.49021 0.00855 0.92036 0.0
H396 H 0.57071 0.09344 0.08708 0.0
H397 H 0.54906 0.05757 0.03335 0.0
H398 H 0.47934 0.98707 0.07487 0.0
C399 C 0.47391 0.93577 0.93758 0.0
C400 C 0.48757 0.00372 0.95403 0.0
C401 C 0.4657 0.91544 0.90671 0.0
C402 C 0.54887 0.07989 0.08834 0.0
C403 C 0.53654 0.05953 0.05758 0.0
C404 C 0.4816 0.99191 0.04121 0.0
C405 C 0.46429 0.95424 0.9364 0.0
C406 C 0.47415 0.97652 0.96776 0.0
C407 C 0.50837 0.04137 0.05881 0.0
C408 C 0.4957 0.01911 0.02747 0.0
H409 H 0.42304 0.92963 0.84971 0.0
H410 H 0.43826 0.96588 0.90311 0.0
H411 H 0.46083 0.94985 0.02267 0.0
H412 H 0.49226 0.06666 0.14527 0.0
H413 H 0.47081 0.03032 0.09206 0.0
C414 C 0.4335 0.51001 0.27152 0.0
C415 C 0.45036 0.53703 0.285 0.0
C416 C 0.44248 0.49866 0.24042 0.0
C417 C 0.49316 0.51788 0.15408 0.0
H418 H 0.4809 0.44464 0.16843 0.0
C419 C 0.55095 0.47768 0.05585 0.0
C420 C 0.53606 0.45106 0.03966 0.0
C421 C 0.53911 0.48725 0.08495 0.0
C422 C 0.48418 0.465 0.16374 0.0
H423 H 0.48991 0.57329 0.27659 0.0
H424 H 0.5056 0.55344 0.22287 0.0
H425 H 0.46249 0.4631 0.22065 0.0
H426 H 0.49708 0.41354 0.04154 0.0
H427 H 0.47641 0.43036 0.09256 0.0
H428 H 0.51514 0.51995 0.09755 0.0
C429 C 0.48529 0.54113 0.23576 0.0
C430 C 0.47362 0.47556 0.1936 0.0
C431 C 0.47634 0.55245 0.26678 0.0
C432 C 0.50913 0.43413 0.05353 0.0
C433 C 0.49731 0.44371 0.08283 0.0
C434 C 0.50375 0.50737 0.12436 0.0
C435 C 0.46847 0.51413 0.22216 0.0
C436 C 0.47829 0.50224 0.18934 0.0
C437 C 0.51214 0.47044 0.0986 0.0
C438 C 0.49966 0.48095 0.12913 0.0
H439 H 0.41338 0.49758 0.28499 0.0
H440 H 0.42897 0.47788 0.23034 0.0
H441 H 0.49663 0.53831 0.14943 0.0
H442 H 0.57175 0.49125 0.0459 0.0
H443 H 0.55119 0.50781 0.09704 0.0
C444 C 0.91621 0.46626 0.41949 0.0
C445 C 0.9133 0.44793 0.45192 0.0
C446 C 0.93649 0.47388 0.38868 0.0
C447 C 0.004 0.48633 0.37277 0.0
H448 H 0.98741 0.47779 0.25193 0.0
C449 C 0.08001 0.54742 0.23815 0.0
C450 C 0.08281 0.53174 0.20605 0.0
C451 C 0.05979 0.535 0.26912 0.0
C452 C 0.99223 0.48011 0.28559 0.0
H453 H 0.92927 0.42328 0.47786 0.0
H454 H 0.96549 0.43747 0.42453 0.0
H455 H 0.95019 0.45972 0.30413 0.0
H456 H 0.06671 0.49091 0.18089 0.0
H457 H 0.03061 0.46931 0.23449 0.0
H458 H 0.04605 0.50781 0.35422 0.0
C459 C 0.95172 0.44548 0.42276 0.0
C460 C 0.97106 0.46992 0.31528 0.0
C461 C 0.93101 0.43734 0.45304 0.0
C462 C 0.06506 0.50342 0.20546 0.0
C463 C 0.04442 0.4911 0.23589 0.0
C464 C 0.02518 0.49706 0.34307 0.0
C465 C 0.95455 0.46376 0.39037 0.0
C466 C 0.97681 0.47307 0.35905 0.0
C467 C 0.04169 0.50682 0.26792 0.0
C468 C 0.01942 0.49412 0.2993 0.0
H469 H 0.90276 0.47465 0.41786 0.0
H470 H 0.93848 0.48815 0.36406 0.0
H471 H 0.00883 0.4891 0.40643 0.0
H472 H 0.09348 0.56928 0.23936 0.0
H473 H 0.05788 0.54749 0.29345 0.0
C474 C 0.56567 0.07256 0.38527 0.0
C475 C 0.54819 0.08191 0.37154 0.0
C476 C 0.55658 0.05111 0.41444 0.0
C477 C 0.49369 0.99271 0.45555 0.0
H478 H 0.53731 0.99781 0.55394 0.0
C479 C 0.44763 0.92298 0.60024 0.0
C480 C 0.46281 0.91278 0.62039 0.0
C481 C 0.45931 0.9426 0.56834 0.0
C482 C 0.52507 0.9959 0.52628 0.0
H483 H 0.50751 0.07617 0.37779 0.0
H484 H 0.4918 0.03895 0.42856 0.0
H485 H 0.55567 0.03416 0.50071 0.0
H486 H 0.50223 0.91528 0.62296 0.0
H487 H 0.5226 0.94954 0.56676 0.0
H488 H 0.46303 0.95466 0.48105 0.0
C489 C 0.51242 0.04799 0.41653 0.0
C490 C 0.53557 0.01671 0.49586 0.0
C491 C 0.52151 0.06946 0.38764 0.0
C492 C 0.48999 0.92271 0.60799 0.0
C493 C 0.5017 0.94242 0.57598 0.0
C494 C 0.48325 0.97192 0.4858 0.0
C495 C 0.52979 0.0385 0.4301 0.0
C496 C 0.51976 0.01554 0.46062 0.0
C497 C 0.48643 0.9525 0.55574 0.0
C498 C 0.4986 0.97352 0.52193 0.0
H499 H 0.58633 0.08169 0.37335 0.0
H500 H 0.57035 0.04409 0.42421 0.0
H501 H 0.48126 0.991 0.42824 0.0
H502 H 0.42669 0.91589 0.60916 0.0
H503 H 0.44714 0.95031 0.55395 0.0
C504 C 0.56247 0.48728 0.77243 0.0
C505 C 0.54543 0.46033 0.78613 0.0
C506 C 0.55372 0.49861 0.74096 0.0
C507 C 0.50355 0.4793 0.65399 0.0
H508 H 0.51604 0.5527 0.66707 0.0
C509 C 0.44625 0.51936 0.55436 0.0
C510 C 0.46114 0.54596 0.53809 0.0
C511 C 0.45805 0.50983 0.58357 0.0
C512 C 0.51271 0.5323 0.66273 0.0
H513 H 0.50578 0.42421 0.77779 0.0
H514 H 0.49049 0.44403 0.72341 0.0
H515 H 0.53406 0.53432 0.72007 0.0
H516 H 0.50012 0.58347 0.53983 0.0
H517 H 0.52075 0.56672 0.59105 0.0
H518 H 0.48192 0.47712 0.59701 0.0
C519 C 0.51076 0.45629 0.73643 0.0
C520 C 0.52303 0.52178 0.69304 0.0
C521 C 0.51948 0.44499 0.76782 0.0
C522 C 0.48807 0.5629 0.55189 0.0
C523 C 0.49987 0.55336 0.5813 0.0
C524 C 0.49321 0.48977 0.6238 0.0
C525 C 0.52779 0.48319 0.72256 0.0
C526 C 0.51826 0.49503 0.68925 0.0
C527 C 0.485 0.52667 0.59724 0.0
C528 C 0.49737 0.51625 0.62812 0.0
H529 H 0.58258 0.49965 0.78596 0.0
H530 H 0.56738 0.51932 0.73069 0.0
H531 H 0.50001 0.45882 0.64971 0.0
H532 H 0.42544 0.50578 0.54446 0.0
H533 H 0.44595 0.4893 0.59578 0.0
C534 C 0.21396 0.55795 0.1289 0.0
C535 C 0.19457 0.5627 0.14886 0.0
C536 C 0.23421 0.55694 0.15283 0.0
C537 C 0.26813 0.577 0.25868 0.0
H538 H 0.29686 0.53038 0.22535 0.0
C539 C 0.34131 0.5589 0.36338 0.0
C540 C 0.36563 0.56432 0.34313 0.0
C541 C 0.31981 0.55755 0.33978 0.0
C542 C 0.28901 0.54352 0.23485 0.0
H543 H 0.18044 0.569 0.20967 0.0
H544 H 0.21488 0.56606 0.25157 0.0
H545 H 0.25976 0.5294 0.1845 0.0
H546 H 0.38619 0.5718 0.28215 0.0
H547 H 0.34823 0.56878 0.24083 0.0
H548 H 0.29699 0.59043 0.30979 0.0
C549 C 0.21525 0.56417 0.2173 0.0
C550 C 0.26789 0.54313 0.21137 0.0
C551 C 0.19535 0.56567 0.19331 0.0
C552 C 0.36777 0.56775 0.29868 0.0
C553 C 0.34605 0.56588 0.275 0.0
C554 C 0.28888 0.577 0.28254 0.0
C555 C 0.23521 0.56018 0.19736 0.0
C556 C 0.25726 0.55999 0.22284 0.0
C557 C 0.32203 0.56105 0.29544 0.0
C558 C 0.29959 0.5604 0.27068 0.0
H559 H 0.21396 0.55571 0.09464 0.0
H560 H 0.24943 0.55427 0.13619 0.0
H561 H 0.26099 0.59073 0.26801 0.0
H562 H 0.33905 0.5562 0.39757 0.0
H563 H 0.30139 0.55367 0.35614 0.0
C564 C 0.65641 0.21365 0.29359 0.0
C565 C 0.63223 0.19486 0.31431 0.0
C566 C 0.67801 0.23405 0.31673 0.0
C567 C 0.70911 0.25215 0.42158 0.0
H568 H 0.73593 0.32695 0.38686 0.0
C569 C 0.78184 0.34282 0.52735 0.0
C570 C 0.80116 0.36705 0.50744 0.0
C571 C 0.76209 0.32128 0.50327 0.0
C572 C 0.72914 0.30621 0.39662 0.0
H573 H 0.61208 0.18214 0.37566 0.0
H574 H 0.65019 0.2175 0.41614 0.0
H575 H 0.70051 0.28995 0.34528 0.0
H576 H 0.8156 0.38737 0.44661 0.0
H577 H 0.78197 0.34948 0.40447 0.0
H578 H 0.73808 0.26813 0.47226 0.0
C579 C 0.6522 0.21651 0.38197 0.0
C580 C 0.70873 0.28505 0.37286 0.0
C581 C 0.63039 0.19642 0.35877 0.0
C582 C 0.80074 0.36907 0.46292 0.0
C583 C 0.78132 0.34736 0.43878 0.0
C584 C 0.72988 0.27329 0.44497 0.0
C585 C 0.67603 0.23568 0.36106 0.0
C586 C 0.69841 0.25789 0.38533 0.0
C587 C 0.7615 0.32328 0.45864 0.0
C588 C 0.74002 0.30063 0.43301 0.0
H589 H 0.65844 0.213 0.25938 0.0
H590 H 0.69628 0.24857 0.30001 0.0
H591 H 0.70157 0.23129 0.43156 0.0
H592 H 0.78156 0.34072 0.56166 0.0
H593 H 0.74693 0.3033 0.51984 0.0
C594 C 0.43777 0.78183 0.69898 0.0
C595 C 0.43321 0.80136 0.67902 0.0
C596 C 0.43899 0.76172 0.67497 0.0
C597 C 0.41996 0.72843 0.56856 0.0
H598 H 0.46629 0.69954 0.60266 0.0
C599 C 0.43894 0.65595 0.46366 0.0
C600 C 0.43336 0.63148 0.48359 0.0
C601 C 0.44015 0.67731 0.4875 0.0
C602 C 0.45323 0.70743 0.59295 0.0
H603 H 0.42748 0.81587 0.61817 0.0
H604 H 0.43079 0.78164 0.57616 0.0
H605 H 0.46685 0.73638 0.64374 0.0
H606 H 0.4255 0.61053 0.54428 0.0
H607 H 0.42826 0.64826 0.58603 0.0
H608 H 0.40703 0.69989 0.51704 0.0
C609 C 0.43237 0.78107 0.61045 0.0
C610 C 0.45338 0.7284 0.61655 0.0
C611 C 0.43065 0.80084 0.63451 0.0
C612 C 0.42968 0.62908 0.52799 0.0
C613 C 0.4314 0.65066 0.55191 0.0
C614 C 0.4202 0.70783 0.5446 0.0
C615 C 0.43618 0.76099 0.63038 0.0
C616 C 0.43662 0.73909 0.6048 0.0
C617 C 0.43633 0.6748 0.53177 0.0
C618 C 0.43671 0.69707 0.55672 0.0
H619 H 0.43969 0.78163 0.73327 0.0
H620 H 0.44151 0.74639 0.69159 0.0
H621 H 0.4063 0.73561 0.559 0.0
H622 H 0.44184 0.65843 0.42952 0.0
H623 H 0.44412 0.69583 0.47136 0.0
C624 C 0.62697 0.43043 0.79652 0.0
C625 C 0.62972 0.43326 0.84095 0.0
C626 C 0.64847 0.43304 0.77142 0.0
C627 C 0.72302 0.45748 0.77481 0.0
H628 H 0.70619 0.41114 0.67545 0.0
C629 C 0.79964 0.43475 0.68868 0.0
C630 C 0.80117 0.43782 0.64417 0.0
C631 C 0.77965 0.43672 0.7117 0.0
C632 C 0.71113 0.42438 0.70289 0.0
H633 H 0.65707 0.44088 0.89401 0.0
H634 H 0.69411 0.44419 0.85059 0.0
H635 H 0.66926 0.40902 0.71798 0.0
H636 H 0.78312 0.44563 0.58893 0.0
H637 H 0.74761 0.44831 0.6293 0.0
H638 H 0.76501 0.47175 0.76043 0.0
C639 C 0.67574 0.44086 0.83478 0.0
C640 C 0.69 0.4233 0.72722 0.0
C641 C 0.6544 0.43875 0.8598 0.0
C642 C 0.78247 0.44321 0.62319 0.0
C643 C 0.76213 0.44465 0.64618 0.0
C644 C 0.74412 0.45817 0.75088 0.0
C645 C 0.67308 0.43804 0.79022 0.0
C646 C 0.69565 0.43978 0.76362 0.0
C647 C 0.76052 0.44132 0.69058 0.0
C648 C 0.73833 0.44157 0.71481 0.0
H649 H 0.60829 0.42652 0.78102 0.0
H650 H 0.64581 0.43132 0.73721 0.0
H651 H 0.72824 0.47091 0.80201 0.0
H652 H 0.81386 0.43073 0.70576 0.0
H653 H 0.77868 0.43393 0.74592 0.0
C654 C 0.33923 0.78367 0.79619 0.0
C655 C 0.36362 0.80202 0.8168 0.0
C656 C 0.31738 0.76364 0.81943 0.0
C657 C 0.28615 0.74617 0.92422 0.0
H658 H 0.25817 0.67111 0.89003 0.0
C659 C 0.21218 0.65597 0.0302 0.0
C660 C 0.19296 0.63172 0.01029 0.0
C661 C 0.23201 0.6775 0.00611 0.0
C662 C 0.26527 0.69193 0.89963 0.0
H663 H 0.38392 0.81438 0.87805 0.0
H664 H 0.34537 0.77967 0.91872 0.0
H665 H 0.29402 0.70765 0.84837 0.0
H666 H 0.17858 0.61139 0.94949 0.0
H667 H 0.21225 0.64925 0.90734 0.0
H668 H 0.25705 0.73073 0.97481 0.0
C669 C 0.34339 0.78071 0.88456 0.0
C670 C 0.28593 0.71283 0.87583 0.0
C671 C 0.36544 0.80041 0.86125 0.0
C672 C 0.19339 0.62972 0.96577 0.0
C673 C 0.21285 0.6514 0.94164 0.0
C674 C 0.26509 0.72529 0.94764 0.0
C675 C 0.31932 0.76197 0.86376 0.0
C676 C 0.29667 0.74007 0.88811 0.0
C677 C 0.23273 0.67543 0.9615 0.0
C678 C 0.25451 0.69785 0.93585 0.0
H679 H 0.33721 0.78438 0.76198 0.0
H680 H 0.29893 0.74943 0.8028 0.0
H681 H 0.29405 0.76711 0.93406 0.0
H682 H 0.21241 0.65804 0.06451 0.0
H683 H 0.24717 0.69546 0.02269 0.0
C684 C 0.56734 0.36811 0.02778 0.0
C685 C 0.5631 0.3656 0.9835 0.0
C686 C 0.56552 0.34645 0.05158 0.0
C687 C 0.57549 0.28855 0.04349 0.0
H688 H 0.52969 0.26073 0.14371 0.0
C689 C 0.56453 0.19514 0.13265 0.0
C690 C 0.56244 0.19473 0.17723 0.0
C691 C 0.56281 0.21502 0.10889 0.0
C692 C 0.54292 0.26849 0.11621 0.0
H693 H 0.55356 0.33839 0.92951 0.0
H694 H 0.55114 0.30084 0.97112 0.0
H695 H 0.53051 0.29782 0.10299 0.0
H696 H 0.55676 0.21469 0.23192 0.0
H697 H 0.55497 0.25012 0.19071 0.0
H698 H 0.58891 0.26032 0.05721 0.0
C699 C 0.5556 0.31951 0.98727 0.0
C700 C 0.54322 0.28962 0.09281 0.0
C701 C 0.55691 0.34096 0.96356 0.0
C702 C 0.55831 0.21442 0.19756 0.0
C703 C 0.55711 0.23465 0.17383 0.0
C704 C 0.57559 0.26781 0.06724 0.0
C705 C 0.55994 0.3221 0.03142 0.0
C706 C 0.55943 0.29971 0.0562 0.0
C707 C 0.55951 0.23532 0.12916 0.0
C708 C 0.55922 0.25739 0.10385 0.0
H709 H 0.572 0.38679 0.04407 0.0
H710 H 0.56907 0.34892 0.0856 0.0
H711 H 0.58842 0.29629 0.01562 0.0
H712 H 0.56735 0.17998 0.11604 0.0
H713 H 0.56403 0.21438 0.07454 0.0
loop_
_geom_bond_atom_site_label_1
_geom_bond_atom_site_label_2
_geom_bond_distance
_geom_bond_site_symmetry_2
_ccdc_geom_bond_type
Co0 O2 2.143 . S
Co0 O8 2.074 . S
Co0 O11 2.093 1_554 S
Co0 O24 2.097 . S
Co0 N41 2.151 . S
Co0 N49 2.214 1_554 S
Co1 O2 2.160 . S
Co1 O7 2.058 . S
Co1 O17 2.057 . S
Co1 O32 2.037 . S
Co1 N36 2.145 . S
Co1 N57 2.257 . S
O2 Co0 2.143 . S
O2 Co1 2.160 . S
C3 O4 1.278 1_556 S
C3 O11 1.224 . S
O4 C3 1.278 1_554 S
C5 O6 1.245 . S
C5 O17 1.232 . S
O6 C5 1.245 . S
O7 Co1 2.058 . S
O7 C33 1.269 . S
O8 Co0 2.074 . S
O8 C33 1.257 . S
H9 C34 0.930 . S
H10 C40 0.930 . S
O11 Co0 2.093 1_556 S
O11 C3 1.224 . S
H12 C44 0.929 . S
H13 C46 0.930 . S
H14 C47 0.930 1_554 S
H15 C45 0.929 . S
H16 C48 0.928 . S
O17 Co1 2.057 . S
O17 C5 1.232 . S
H18 C37 0.929 . S
H19 C38 0.929 . S
H20 C50 0.931 . S
H21 C42 0.929 . S
H22 C51 0.930 . S
H23 C43 0.931 . S
O24 Co0 2.097 . S
O24 C52 1.214 . S
H25 C53 0.929 . S
H26 C54 0.929 . S
H27 C55 0.930 . S
H28 C56 0.929 . S
H29 C58 0.930 . S
H30 C35 0.930 . S
H31 C39 0.930 . S
O32 Co1 2.037 . S
O32 C52 1.234 . S
C33 O7 1.269 . S
C33 O8 1.257 . S
C34 H9 0.930 . S
C34 C37 1.388 . S
C34 C39 1.418 . S
C35 H30 0.930 . S
C35 C38 1.404 . S
C35 C39 1.353 . S
N36 Co1 2.145 . S
N36 C37 1.397 . S
N36 C38 1.334 . S
C37 H18 0.929 . S
C37 C34 1.388 . S
C37 N36 1.397 . S
C38 H19 0.929 . S
C38 C35 1.404 . S
C38 N36 1.334 . S
C39 H31 0.930 . S
C39 C34 1.418 . S
C39 C35 1.353 . S
C40 H10 0.930 . S
C40 N41 1.330 . S
C40 C42 1.446 . S
N41 Co0 2.151 . S
N41 C40 1.330 . S
N41 C45 1.418 . S
C42 H21 0.929 . S
C42 C40 1.446 . S
C42 C43 1.332 . S
C43 H23 0.931 . S
C43 C42 1.332 . S
C43 C44 1.267 . S
C44 H12 0.929 . S
C44 C43 1.267 . S
C44 C45 1.251 . S
C45 H15 0.929 . S
C45 N41 1.418 . S
C45 C44 1.251 . S
C46 H13 0.930 . S
C46 C48 1.406 . S
C46 C51 1.261 . S
C47 H14 0.930 1_556 S
C47 N49 1.325 . S
C47 C50 1.357 . S
C48 H16 0.928 . S
C48 C46 1.406 . S
C48 N49 1.261 . S
N49 Co0 2.214 1_556 S
N49 C47 1.325 . S
N49 C48 1.261 . S
C50 H20 0.931 . S
C50 C47 1.357 . S
C50 C51 1.312 . S
C51 H22 0.930 . S
C51 C46 1.261 . S
C51 C50 1.312 . S
C52 O24 1.214 . S
C52 O32 1.234 . S
C53 H25 0.929 . S
C53 C56 1.391 . S
C53 C58 1.391 . S
C54 H26 0.929 . S
C54 C55 1.390 . S
C54 N57 1.391 . S
C55 H27 0.930 . S
C55 C54 1.390 . S
C55 C56 1.392 . S
C56 H28 0.929 . S
C56 C53 1.391 . S
C56 C55 1.392 . S
N57 Co1 2.257 . S
N57 C54 1.391 . S
N57 C58 1.388 . S
C58 H29 0.930 . S
C58 C53 1.391 . S
C58 N57 1.388 . S
Co59 O61 2.143 . S
Co59 O67 2.074 . S
Co59 O70 2.093 . S
Co59 O83 2.097 . S
Co59 N100 2.151 . S
Co59 N108 2.214 . S
Co60 O61 2.160 . S
Co60 O66 2.058 . S
Co60 O76 2.057 . S
Co60 O91 2.037 . S
Co60 N95 2.145 . S
Co60 N116 2.257 . S
O61 Co59 2.143 . S
O61 Co60 2.160 . S
C62 O63 1.278 . S
C62 O70 1.224 . S
O63 C62 1.278 . S
C64 O65 1.245 . S
C64 O76 1.232 . S
O65 C64 1.245 . S
O66 Co60 2.058 . S
O66 C92 1.269 . S
O67 Co59 2.074 . S
O67 C92 1.257 . S
H68 C93 0.930 . S
H69 C99 0.930 . S
O70 Co59 2.093 . S
O70 C62 1.224 . S
H71 C103 0.929 . S
H72 C105 0.930 . S
H73 C106 0.930 . S
H74 C104 0.929 . S
H75 C107 0.928 . S
O76 Co60 2.057 . S
O76 C64 1.232 . S
H77 C96 0.929 . S
H78 C97 0.929 . S
H79 C109 0.931 . S
H80 C101 0.929 . S
H81 C110 0.930 . S
H82 C102 0.931 . S
O83 Co59 2.097 . S
O83 C111 1.214 . S
H84 C112 0.929 . S
H85 C113 0.929 . S
H86 C114 0.930 . S
H87 C115 0.929 . S
H88 C117 0.930 . S
H89 C94 0.930 . S
H90 C98 0.930 . S
O91 Co60 2.037 . S
O91 C111 1.234 . S
C92 O66 1.269 . S
C92 O67 1.257 . S
C93 H68 0.930 . S
C93 C96 1.388 . S
C93 C98 1.418 . S
C94 H89 0.930 . S
C94 C97 1.404 . S
C94 C98 1.353 . S
N95 Co60 2.145 . S
N95 C96 1.397 . S
N95 C97 1.334 . S
C96 H77 0.929 . S
C96 C93 1.388 . S
C96 N95 1.397 . S
C97 H78 0.929 . S
C97 C94 1.404 . S
C97 N95 1.334 . S
C98 H90 0.930 . S
C98 C93 1.418 . S
C98 C94 1.353 . S
C99 H69 0.930 . S
C99 N100 1.330 . S
C99 C101 1.446 . S
N100 Co59 2.151 . S
N100 C99 1.330 . S
N100 C104 1.418 . S
C101 H80 0.929 . S
C101 C99 1.446 . S
C101 C102 1.332 . S
C102 H82 0.931 . S
C102 C101 1.332 . S
C102 C103 1.267 . S
C103 H71 0.929 . S
C103 C102 1.267 . S
C103 C104 1.251 . S
C104 H74 0.929 . S
C104 N100 1.418 . S
C104 C103 1.251 . S
C105 H72 0.930 . S
C105 C107 1.406 . S
C105 C110 1.261 . S
C106 H73 0.930 . S
C106 N108 1.325 . S
C106 C109 1.357 . S
C107 H75 0.928 . S
C107 C105 1.406 . S
C107 N108 1.261 . S
N108 Co59 2.214 . S
N108 C106 1.325 . S
N108 C107 1.261 . S
C109 H79 0.931 . S
C109 C106 1.357 . S
C109 C110 1.312 . S
C110 H81 0.930 . S
C110 C105 1.261 . S
C110 C109 1.312 . S
C111 O83 1.214 . S
C111 O91 1.234 . S
C112 H84 0.929 . S
C112 C115 1.391 . S
C112 C117 1.391 . S
C113 H85 0.929 . S
C113 C114 1.390 . S
C113 N116 1.391 . S
C114 H86 0.930 . S
C114 C113 1.390 . S
C114 C115 1.392 . S
C115 H87 0.929 . S
C115 C112 1.391 . S
C115 C114 1.392 . S
N116 Co60 2.257 . S
N116 C113 1.391 . S
N116 C117 1.388 . S
C117 H88 0.930 . S
C117 C112 1.391 . S
C117 N116 1.388 . S
Co118 O120 2.143 . S
Co118 O126 2.074 . S
Co118 O129 2.093 . S
Co118 O142 2.097 . S
Co118 N159 2.151 . S
Co118 N167 2.214 . S
Co119 O120 2.160 . S
Co119 O125 2.058 . S
Co119 O135 2.057 . S
Co119 O150 2.037 . S
Co119 N154 2.145 . S
Co119 N175 2.257 . S
O120 Co118 2.143 . S
O120 Co119 2.160 . S
C121 O122 1.278 . S
C121 O129 1.224 . S
O122 C121 1.278 . S
C123 O124 1.245 . S
C123 O135 1.232 . S
O124 C123 1.245 . S
O125 Co119 2.058 . S
O125 C151 1.269 . S
O126 Co118 2.074 . S
O126 C151 1.257 . S
H127 C152 0.930 . S
H128 C158 0.930 . S
O129 Co118 2.093 . S
O129 C121 1.224 . S
H130 C162 0.929 . S
H131 C164 0.930 . S
H132 C165 0.930 . S
H133 C163 0.929 . S
H134 C166 0.928 . S
O135 Co119 2.057 . S
O135 C123 1.232 . S
H136 C155 0.929 . S
H137 C156 0.929 . S
H138 C168 0.931 . S
H139 C160 0.929 . S
H140 C169 0.930 . S
H141 C161 0.931 . S
O142 Co118 2.097 . S
O142 C170 1.214 . S
H143 C171 0.929 . S
H144 C172 0.929 . S
H145 C173 0.930 . S
H146 C174 0.929 . S
H147 C176 0.930 . S
H148 C153 0.930 . S
H149 C157 0.930 . S
O150 Co119 2.037 . S
O150 C170 1.234 . S
C151 O125 1.269 . S
C151 O126 1.257 . S
C152 H127 0.930 . S
C152 C155 1.388 . S
C152 C157 1.418 . S
C153 H148 0.930 . S
C153 C156 1.404 . S
C153 C157 1.353 . S
N154 Co119 2.145 . S
N154 C155 1.397 . S
N154 C156 1.334 . S
C155 H136 0.929 . S
C155 C152 1.388 . S
C155 N154 1.397 . S
C156 H137 0.929 . S
C156 C153 1.404 . S
C156 N154 1.334 . S
C157 H149 0.930 . S
C157 C152 1.418 . S
C157 C153 1.353 . S
C158 H128 0.930 . S
C158 N159 1.330 . S
C158 C160 1.446 . S
N159 Co118 2.151 . S
N159 C158 1.330 . S
N159 C163 1.418 . S
C160 H139 0.929 . S
C160 C158 1.446 . S
C160 C161 1.332 . S
C161 H141 0.931 . S
C161 C160 1.332 . S
C161 C162 1.267 . S
C162 H130 0.929 . S
C162 C161 1.267 . S
C162 C163 1.251 . S
C163 H133 0.929 . S
C163 N159 1.418 . S
C163 C162 1.251 . S
C164 H131 0.930 . S
C164 C166 1.406 . S
C164 C169 1.261 . S
C165 H132 0.930 . S
C165 N167 1.325 . S
C165 C168 1.357 . S
C166 H134 0.928 . S
C166 C164 1.406 . S
C166 N167 1.261 . S
N167 Co118 2.214 . S
N167 C165 1.325 . S
N167 C166 1.261 . S
C168 H138 0.931 . S
C168 C165 1.357 . S
C168 C169 1.312 . S
C169 H140 0.930 . S
C169 C164 1.261 . S
C169 C168 1.312 . S
C170 O142 1.214 . S
C170 O150 1.234 . S
C171 H143 0.929 . S
C171 C174 1.391 . S
C171 C176 1.391 . S
C172 H144 0.929 . S
C172 C173 1.390 . S
C172 N175 1.391 . S
C173 H145 0.930 . S
C173 C172 1.390 . S
C173 C174 1.392 . S
C174 H146 0.929 . S
C174 C171 1.391 . S
C174 C173 1.392 . S
N175 Co119 2.257 . S
N175 C172 1.391 . S
N175 C176 1.388 . S
C176 H147 0.930 . S
C176 C171 1.391 . S
C176 N175 1.388 . S
Co177 O179 2.143 . S
Co177 O185 2.074 . S
Co177 O188 2.093 . S
Co177 O201 2.097 . S
Co177 N218 2.151 . S
Co177 N226 2.214 . S
Co178 O179 2.160 . S
Co178 O184 2.058 . S
Co178 O194 2.057 . S
Co178 O209 2.037 . S
Co178 N213 2.145 . S
Co178 N234 2.257 . S
O179 Co177 2.143 . S
O179 Co178 2.160 . S
C180 O181 1.278 . S
C180 O188 1.224 . S
O181 C180 1.278 . S
C182 O183 1.245 . S
C182 O194 1.232 . S
O183 C182 1.245 . S
O184 Co178 2.058 . S
O184 C210 1.269 . S
O185 Co177 2.074 . S
O185 C210 1.257 . S
H186 C211 0.930 . S
H187 C217 0.930 . S
O188 Co177 2.093 . S
O188 C180 1.224 . S
H189 C221 0.929 . S
H190 C223 0.930 . S
H191 C224 0.930 . S
H192 C222 0.929 . S
H193 C225 0.928 . S
O194 Co178 2.057 . S
O194 C182 1.232 . S
H195 C214 0.929 . S
H196 C215 0.929 . S
H197 C227 0.931 . S
H198 C219 0.929 . S
H199 C228 0.930 . S
H200 C220 0.931 . S
O201 Co177 2.097 . S
O201 C229 1.214 . S
H202 C230 0.929 . S
H203 C231 0.929 . S
H204 C232 0.930 . S
H205 C233 0.929 . S
H206 C235 0.930 . S
H207 C212 0.930 . S
H208 C216 0.930 . S
O209 Co178 2.037 . S
O209 C229 1.234 . S
C210 O184 1.269 . S
C210 O185 1.257 . S
C211 H186 0.930 . S
C211 C214 1.388 . S
C211 C216 1.418 . S
C212 H207 0.930 . S
C212 C215 1.404 . S
C212 C216 1.353 . S
N213 Co178 2.145 . S
N213 C214 1.397 . S
N213 C215 1.334 . S
C214 H195 0.929 . S
C214 C211 1.388 . S
C214 N213 1.397 . S
C215 H196 0.929 . S
C215 C212 1.404 . S
C215 N213 1.334 . S
C216 H208 0.930 . S
C216 C211 1.418 . S
C216 C212 1.353 . S
C217 H187 0.930 . S
C217 N218 1.330 . S
C217 C219 1.446 . S
N218 Co177 2.151 . S
N218 C217 1.330 . S
N218 C222 1.418 . S
C219 H198 0.929 . S
C219 C217 1.446 . S
C219 C220 1.332 . S
C220 H200 0.931 . S
C220 C219 1.332 . S
C220 C221 1.267 . S
C221 H189 0.929 . S
C221 C220 1.267 . S
C221 C222 1.251 . S
C222 H192 0.929 . S
C222 N218 1.418 . S
C222 C221 1.251 . S
C223 H190 0.930 . S
C223 C225 1.406 . S
C223 C228 1.261 . S
C224 H191 0.930 . S
C224 N226 1.325 . S
C224 C227 1.357 . S
C225 H193 0.928 . S
C225 C223 1.406 . S
C225 N226 1.261 . S
N226 Co177 2.214 . S
N226 C224 1.325 . S
N226 C225 1.261 . S
C227 H197 0.931 . S
C227 C224 1.357 . S
C227 C228 1.312 . S
C228 H199 0.930 . S
C228 C223 1.261 . S
C228 C227 1.312 . S
C229 O201 1.214 . S
C229 O209 1.234 . S
C230 H202 0.929 . S
C230 C233 1.391 . S
C230 C235 1.391 . S
C231 H203 0.929 . S
C231 C232 1.390 . S
C231 N234 1.391 . S
C232 H204 0.930 . S
C232 C231 1.390 . S
C232 C233 1.392 . S
C233 H205 0.929 . S
C233 C230 1.391 . S
C233 C232 1.392 . S
N234 Co178 2.257 . S
N234 C231 1.391 . S
N234 C235 1.388 . S
C235 H206 0.930 . S
C235 C230 1.391 . S
C235 N234 1.388 . S
Co236 O238 2.143 . S
Co236 O244 2.074 . S
Co236 O247 2.093 . S
Co236 O260 2.097 . S
Co236 N277 2.151 . S
Co236 N285 2.214 . S
Co237 O238 2.160 . S
Co237 O243 2.058 . S
Co237 O253 2.057 . S
Co237 O268 2.037 . S
Co237 N272 2.145 . S
Co237 N293 2.257 . S
O238 Co236 2.143 . S
O238 Co237 2.160 . S
C239 O240 1.278 . S
C239 O247 1.224 . S
O240 C239 1.278 . S
C241 O242 1.245 . S
C241 O253 1.232 . S
O242 C241 1.245 . S
O243 Co237 2.058 . S
O243 C269 1.269 . S
O244 Co236 2.074 . S
O244 C269 1.257 . S
H245 C270 0.930 . S
H246 C276 0.930 . S
O247 Co236 2.093 . S
O247 C239 1.224 . S
H248 C280 0.929 . S
H249 C282 0.930 . S
H250 C283 0.930 . S
H251 C281 0.929 . S
H252 C284 0.928 . S
O253 Co237 2.057 . S
O253 C241 1.232 . S
H254 C273 0.929 . S
H255 C274 0.929 . S
H256 C286 0.931 . S
H257 C278 0.929 . S
H258 C287 0.930 . S
H259 C279 0.931 . S
O260 Co236 2.097 . S
O260 C288 1.214 . S
H261 C289 0.929 . S
H262 C290 0.929 . S
H263 C291 0.930 . S
H264 C292 0.929 . S
H265 C294 0.930 . S
H266 C271 0.930 . S
H267 C275 0.930 . S
O268 Co237 2.037 . S
O268 C288 1.234 . S
C269 O243 1.269 . S
C269 O244 1.257 . S
C270 H245 0.930 . S
C270 C273 1.388 . S
C270 C275 1.418 . S
C271 H266 0.930 . S
C271 C274 1.404 . S
C271 C275 1.353 . S
N272 Co237 2.145 . S
N272 C273 1.397 . S
N272 C274 1.334 . S
C273 H254 0.929 . S
C273 C270 1.388 . S
C273 N272 1.397 . S
C274 H255 0.929 . S
C274 C271 1.404 . S
C274 N272 1.334 . S
C275 H267 0.930 . S
C275 C270 1.418 . S
C275 C271 1.353 . S
C276 H246 0.930 . S
C276 N277 1.330 . S
C276 C278 1.446 . S
N277 Co236 2.151 . S
N277 C276 1.330 . S
N277 C281 1.418 . S
C278 H257 0.929 . S
C278 C276 1.446 . S
C278 C279 1.332 . S
C279 H259 0.931 . S
C279 C278 1.332 . S
C279 C280 1.267 . S
C280 H248 0.929 . S
C280 C279 1.267 . S
C280 C281 1.251 . S
C281 H251 0.929 . S
C281 N277 1.418 . S
C281 C280 1.251 . S
C282 H249 0.930 . S
C282 C284 1.406 . S
C282 C287 1.261 . S
C283 H250 0.930 . S
C283 N285 1.325 . S
C283 C286 1.357 . S
C284 H252 0.928 . S
C284 C282 1.406 . S
C284 N285 1.261 . S
N285 Co236 2.214 . S
N285 C283 1.325 . S
N285 C284 1.261 . S
C286 H256 0.931 . S
C286 C283 1.357 . S
C286 C287 1.312 . S
C287 H258 0.930 . S
C287 C282 1.261 . S
C287 C286 1.312 . S
C288 O260 1.214 . S
C288 O268 1.234 . S
C289 H261 0.929 . S
C289 C292 1.391 . S
C289 C294 1.391 . S
C290 H262 0.929 . S
C290 C291 1.390 . S
C290 N293 1.391 . S
C291 H263 0.930 . S
C291 C290 1.390 . S
C291 C292 1.392 . S
C292 H264 0.929 . S
C292 C289 1.391 . S
C292 C291 1.392 . S
N293 Co237 2.257 . S
N293 C290 1.391 . S
N293 C294 1.388 . S
C294 H265 0.930 . S
C294 C289 1.391 . S
C294 N293 1.388 . S
Co295 O297 2.143 . S
Co295 O303 2.074 . S
Co295 O306 2.093 1_556 S
Co295 O319 2.097 . S
Co295 N336 2.151 . S
Co295 N344 2.214 1_556 S
Co296 O297 2.160 . S
Co296 O302 2.058 . S
Co296 O312 2.057 . S
Co296 O327 2.037 . S
Co296 N331 2.145 . S
Co296 N352 2.257 . S
O297 Co295 2.143 . S
O297 Co296 2.160 . S
C298 O299 1.278 1_554 S
C298 O306 1.224 . S
O299 C298 1.278 1_556 S
C300 O301 1.245 . S
C300 O312 1.232 . S
O301 C300 1.245 . S
O302 Co296 2.058 . S
O302 C328 1.269 . S
O303 Co295 2.074 . S
O303 C328 1.257 . S
H304 C329 0.930 . S
H305 C335 0.930 . S
O306 Co295 2.093 1_554 S
O306 C298 1.224 . S
H307 C339 0.929 . S
H308 C341 0.930 . S
H309 C342 0.930 1_556 S
H310 C340 0.929 . S
H311 C343 0.928 . S
O312 Co296 2.057 . S
O312 C300 1.232 . S
H313 C332 0.929 . S
H314 C333 0.929 . S
H315 C345 0.931 . S
H316 C337 0.929 . S
H317 C346 0.930 . S
H318 C338 0.931 . S
O319 Co295 2.097 . S
O319 C347 1.214 . S
H320 C348 0.929 . S
H321 C349 0.929 . S
H322 C350 0.930 . S
H323 C351 0.929 . S
H324 C353 0.930 . S
H325 C330 0.930 . S
H326 C334 0.930 . S
O327 Co296 2.037 . S
O327 C347 1.234 . S
C328 O302 1.269 . S
C328 O303 1.257 . S
C329 H304 0.930 . S
C329 C332 1.388 . S
C329 C334 1.418 . S
C330 H325 0.930 . S
C330 C333 1.404 . S
C330 C334 1.353 . S
N331 Co296 2.145 . S
N331 C332 1.397 . S
N331 C333 1.334 . S
C332 H313 0.929 . S
C332 C329 1.388 . S
C332 N331 1.397 . S
C333 H314 0.929 . S
C333 C330 1.404 . S
C333 N331 1.334 . S
C334 H326 0.930 . S
C334 C329 1.418 . S
C334 C330 1.353 . S
C335 H305 0.930 . S
C335 N336 1.330 . S
C335 C337 1.446 . S
N336 Co295 2.151 . S
N336 C335 1.330 . S
N336 C340 1.418 . S
C337 H316 0.929 . S
C337 C335 1.446 . S
C337 C338 1.332 . S
C338 H318 0.931 . S
C338 C337 1.332 . S
C338 C339 1.267 . S
C339 H307 0.929 . S
C339 C338 1.267 . S
C339 C340 1.251 . S
C340 H310 0.929 . S
C340 N336 1.418 . S
C340 C339 1.251 . S
C341 H308 0.930 . S
C341 C343 1.406 . S
C341 C346 1.261 . S
C342 H309 0.930 1_554 S
C342 N344 1.325 . S
C342 C345 1.357 . S
C343 H311 0.928 . S
C343 C341 1.406 . S
C343 N344 1.261 . S
N344 Co295 2.214 1_554 S
N344 C342 1.325 . S
N344 C343 1.261 . S
C345 H315 0.931 . S
C345 C342 1.357 . S
C345 C346 1.312 . S
C346 H317 0.930 . S
C346 C341 1.261 . S
C346 C345 1.312 . S
C347 O319 1.214 . S
C347 O327 1.234 . S
C348 H320 0.929 . S
C348 C351 1.391 . S
C348 C353 1.391 . S
C349 H321 0.929 . S
C349 C350 1.390 . S
C349 N352 1.391 . S
C350 H322 0.930 . S
C350 C349 1.390 . S
C350 C351 1.392 . S
C351 H323 0.929 . S
C351 C348 1.391 . S
C351 C350 1.392 . S
N352 Co296 2.257 . S
N352 C349 1.391 . S
N352 C353 1.388 . S
C353 H324 0.930 . S
C353 C348 1.391 . S
C353 N352 1.388 . S
C354 C355 1.349 . S
C354 C356 1.327 . S
C354 H379 0.950 1_556 S
C355 C354 1.349 . S
C355 C371 1.349 . S
C356 C354 1.327 . S
C356 C375 1.429 . S
C356 H380 0.950 . S
C357 C374 1.574 . S
C357 C376 1.368 . S
C357 H381 0.949 . S
H358 C362 0.949 . S
C359 C360 1.349 . S
C359 C361 1.327 . S
C359 H382 0.950 . S
C360 C359 1.349 . S
C360 C372 1.349 . S
C361 C359 1.327 . S
C361 C377 1.429 . S
C361 H383 0.950 . S
C362 H358 0.949 . S
C362 C370 1.574 . S
C362 C378 1.368 . S
H363 C371 0.950 . S
H364 C369 0.950 . S
H365 C370 0.949 . S
H366 C372 0.950 . S
H367 C373 0.950 . S
H368 C374 0.949 . S
C369 H364 0.950 . S
C369 C371 1.327 . S
C369 C375 1.429 . S
C370 C362 1.574 . S
C370 H365 0.949 . S
C370 C376 1.368 1_655 S
C371 C355 1.349 . S
C371 H363 0.950 . S
C371 C369 1.327 . S
C372 C360 1.349 . S
C372 H366 0.950 . S
C372 C373 1.327 . S
C373 H367 0.950 . S
C373 C372 1.327 . S
C373 C377 1.429 . S
C374 C357 1.574 . S
C374 H368 0.949 . S
C374 C378 1.368 1_455 S
C375 C356 1.429 . S
C375 C369 1.429 . S
C375 C376 1.523 . S
C376 C357 1.368 . S
C376 C370 1.368 1_455 S
C376 C375 1.523 . S
C377 C361 1.429 . S
C377 C373 1.429 . S
C377 C378 1.523 . S
C378 C362 1.368 . S
C378 C374 1.368 1_655 S
C378 C377 1.523 . S
H379 C354 0.950 1_554 S
H380 C356 0.950 . S
H381 C357 0.949 . S
H382 C359 0.950 . S
H383 C361 0.950 . S
C384 C385 1.349 . S
C384 C386 1.327 . S
C384 H409 0.950 . S
C385 C384 1.349 . S
C385 C401 1.349 . S
C386 C384 1.327 . S
C386 C405 1.429 . S
C386 H410 0.950 . S
C387 C404 1.574 . S
C387 C406 1.368 1_554 S
C387 H411 0.949 . S
H388 C392 0.949 . S
C389 C390 1.349 . S
C389 C391 1.327 . S
C389 H412 0.950 . S
C390 C389 1.349 . S
C390 C402 1.349 . S
C391 C389 1.327 . S
C391 C407 1.429 . S
C391 H413 0.950 . S
C392 H388 0.949 . S
C392 C400 1.574 . S
C392 C408 1.368 1_556 S
H393 C401 0.950 . S
H394 C399 0.950 . S
H395 C400 0.949 . S
H396 C402 0.950 . S
H397 C403 0.950 . S
H398 C404 0.949 . S
C399 H394 0.950 . S
C399 C401 1.327 . S
C399 C405 1.429 . S
C400 C392 1.574 . S
C400 H395 0.949 . S
C400 C406 1.368 1_545 S
C401 C385 1.349 . S
C401 H393 0.950 . S
C401 C399 1.327 . S
C402 C390 1.349 . S
C402 H396 0.950 . S
C402 C403 1.327 . S
C403 H397 0.950 . S
C403 C402 1.327 . S
C403 C407 1.429 . S
C404 C387 1.574 . S
C404 H398 0.949 . S
C404 C408 1.368 1_565 S
C405 C386 1.429 . S
C405 C399 1.429 . S
C405 C406 1.523 . S
C406 C387 1.368 1_556 S
C406 C400 1.368 1_565 S
C406 C405 1.523 . S
C407 C391 1.429 . S
C407 C403 1.429 . S
C407 C408 1.523 . S
C408 C392 1.368 1_554 S
C408 C404 1.368 1_545 S
C408 C407 1.523 . S
H409 C384 0.950 . S
H410 C386 0.950 . S
H411 C387 0.949 . S
H412 C389 0.950 . S
H413 C391 0.950 . S
C414 C415 1.349 . S
C414 C416 1.327 . S
C414 H439 0.950 . S
C415 C414 1.349 . S
C415 C431 1.349 . S
C416 C414 1.327 . S
C416 C435 1.429 . S
C416 H440 0.950 . S
C417 C434 1.574 . S
C417 C436 1.368 . S
C417 H441 0.949 . S
H418 C422 0.949 . S
C419 C420 1.349 . S
C419 C421 1.327 . S
C419 H442 0.950 . S
C420 C419 1.349 . S
C420 C432 1.349 . S
C421 C419 1.327 . S
C421 C437 1.429 . S
C421 H443 0.950 . S
C422 H418 0.949 . S
C422 C430 1.574 . S
C422 C438 1.368 . S
H423 C431 0.950 . S
H424 C429 0.950 . S
H425 C430 0.949 . S
H426 C432 0.950 . S
H427 C433 0.950 . S
H428 C434 0.949 . S
C429 H424 0.950 . S
C429 C431 1.327 . S
C429 C435 1.429 . S
C430 C422 1.574 . S
C430 H425 0.949 . S
C430 C436 1.368 . S
C431 C415 1.349 . S
C431 H423 0.950 . S
C431 C429 1.327 . S
C432 C420 1.349 . S
C432 H426 0.950 . S
C432 C433 1.327 . S
C433 H427 0.950 . S
C433 C432 1.327 . S
C433 C437 1.429 . S
C434 C417 1.574 . S
C434 H428 0.949 . S
C434 C438 1.368 . S
C435 C416 1.429 . S
C435 C429 1.429 . S
C435 C436 1.523 . S
C436 C417 1.368 . S
C436 C430 1.368 . S
C436 C435 1.523 . S
C437 C421 1.429 . S
C437 C433 1.429 . S
C437 C438 1.523 . S
C438 C422 1.368 . S
C438 C434 1.368 . S
C438 C437 1.523 . S
H439 C414 0.950 . S
H440 C416 0.950 . S
H441 C417 0.949 . S
H442 C419 0.950 . S
H443 C421 0.950 . S
C444 C445 1.349 . S
C444 C446 1.327 . S
C444 H469 0.950 . S
C445 C444 1.349 . S
C445 C461 1.349 . S
C446 C444 1.327 . S
C446 C465 1.429 . S
C446 H470 0.950 . S
C447 C464 1.574 . S
C447 C466 1.368 1_455 S
C447 H471 0.949 . S
H448 C452 0.949 . S
C449 C450 1.349 . S
C449 C451 1.327 . S
C449 H472 0.950 . S
C450 C449 1.349 . S
C450 C462 1.349 . S
C451 C449 1.327 . S
C451 C467 1.429 . S
C451 H473 0.950 . S
C452 H448 0.949 . S
C452 C460 1.574 . S
C452 C468 1.368 1_655 S
H453 C461 0.950 . S
H454 C459 0.950 . S
H455 C460 0.949 . S
H456 C462 0.950 . S
H457 C463 0.950 . S
H458 C464 0.949 . S
C459 H454 0.950 . S
C459 C461 1.327 . S
C459 C465 1.429 . S
C460 C452 1.574 . S
C460 H455 0.949 . S
C460 C466 1.368 . S
C461 C445 1.349 . S
C461 H453 0.950 . S
C461 C459 1.327 . S
C462 C450 1.349 . S
C462 H456 0.950 . S
C462 C463 1.327 . S
C463 H457 0.950 . S
C463 C462 1.327 . S
C463 C467 1.429 . S
C464 C447 1.574 . S
C464 H458 0.949 . S
C464 C468 1.368 . S
C465 C446 1.429 . S
C465 C459 1.429 . S
C465 C466 1.523 . S
C466 C447 1.368 1_655 S
C466 C460 1.368 . S
C466 C465 1.523 . S
C467 C451 1.429 . S
C467 C463 1.429 . S
C467 C468 1.523 . S
C468 C452 1.368 1_455 S
C468 C464 1.368 . S
C468 C467 1.523 . S
H469 C444 0.950 . S
H470 C446 0.950 . S
H471 C447 0.949 . S
H472 C449 0.950 . S
H473 C451 0.950 . S
C474 C475 1.349 . S
C474 C476 1.327 . S
C474 H499 0.950 . S
C475 C474 1.349 . S
C475 C491 1.349 . S
C476 C474 1.327 . S
C476 C495 1.429 . S
C476 H500 0.950 . S
C477 C494 1.574 . S
C477 C496 1.368 1_565 S
C477 H501 0.949 . S
H478 C482 0.949 . S
C479 C480 1.349 . S
C479 C481 1.327 . S
C479 H502 0.950 . S
C480 C479 1.349 . S
C480 C492 1.349 . S
C481 C479 1.327 . S
C481 C497 1.429 . S
C481 H503 0.950 . S
C482 H478 0.949 . S
C482 C490 1.574 . S
C482 C498 1.368 1_545 S
H483 C491 0.950 . S
H484 C489 0.950 . S
H485 C490 0.949 . S
H486 C492 0.950 . S
H487 C493 0.950 . S
H488 C494 0.949 . S
C489 H484 0.950 . S
C489 C491 1.327 . S
C489 C495 1.429 . S
C490 C482 1.574 . S
C490 H485 0.949 . S
C490 C496 1.368 . S
C491 C475 1.349 . S
C491 H483 0.950 . S
C491 C489 1.327 . S
C492 C480 1.349 . S
C492 H486 0.950 . S
C492 C493 1.327 . S
C493 H487 0.950 . S
C493 C492 1.327 . S
C493 C497 1.429 . S
C494 C477 1.574 . S
C494 H488 0.949 . S
C494 C498 1.368 . S
C495 C476 1.429 . S
C495 C489 1.429 . S
C495 C496 1.523 . S
C496 C477 1.368 1_545 S
C496 C490 1.368 . S
C496 C495 1.523 . S
C497 C481 1.429 . S
C497 C493 1.429 . S
C497 C498 1.523 . S
C498 C482 1.368 1_565 S
C498 C494 1.368 . S
C498 C497 1.523 . S
H499 C474 0.950 . S
H500 C476 0.950 . S
H501 C477 0.949 . S
H502 C479 0.950 . S
H503 C481 0.950 . S
C504 C505 1.349 . S
C504 C506 1.327 . S
C504 H529 0.950 . S
C505 C504 1.349 . S
C505 C521 1.349 . S
C506 C504 1.327 . S
C506 C525 1.429 . S
C506 H530 0.950 . S
C507 C524 1.574 . S
C507 C526 1.368 . S
C507 H531 0.949 . S
H508 C512 0.949 . S
C509 C510 1.349 . S
C509 C511 1.327 . S
C509 H532 0.950 . S
C510 C509 1.349 . S
C510 C522 1.349 . S
C511 C509 1.327 . S
C511 C527 1.429 . S
C511 H533 0.950 . S
C512 H508 0.949 . S
C512 C520 1.574 . S
C512 C528 1.368 . S
H513 C521 0.950 . S
H514 C519 0.950 . S
H515 C520 0.949 . S
H516 C522 0.950 . S
H517 C523 0.950 . S
H518 C524 0.949 . S
C519 H514 0.950 . S
C519 C521 1.327 . S
C519 C525 1.429 . S
C520 C512 1.574 . S
C520 H515 0.949 . S
C520 C526 1.368 . S
C521 C505 1.349 . S
C521 H513 0.950 . S
C521 C519 1.327 . S
C522 C510 1.349 . S
C522 H516 0.950 . S
C522 C523 1.327 . S
C523 H517 0.950 . S
C523 C522 1.327 . S
C523 C527 1.429 . S
C524 C507 1.574 . S
C524 H518 0.949 . S
C524 C528 1.368 . S
C525 C506 1.429 . S
C525 C519 1.429 . S
C525 C526 1.523 . S
C526 C507 1.368 . S
C526 C520 1.368 . S
C526 C525 1.523 . S
C527 C511 1.429 . S
C527 C523 1.429 . S
C527 C528 1.523 . S
C528 C512 1.368 . S
C528 C524 1.368 . S
C528 C527 1.523 . S
H529 C504 0.950 . S
H530 C506 0.950 . S
H531 C507 0.949 . S
H532 C509 0.950 . S
H533 C511 0.950 . S
C534 C535 1.349 . S
C534 C536 1.327 . S
C534 H559 0.950 . S
C535 C534 1.349 . S
C535 C551 1.349 . S
C536 C534 1.327 . S
C536 C555 1.429 . S
C536 H560 0.950 . S
C537 C554 1.574 . S
C537 C556 1.368 . S
C537 H561 0.949 . S
H538 C542 0.949 . S
C539 C540 1.349 . S
C539 C541 1.327 . S
C539 H562 0.950 . S
C540 C539 1.349 . S
C540 C552 1.349 . S
C541 C539 1.327 . S
C541 C557 1.429 . S
C541 H563 0.950 . S
C542 H538 0.949 . S
C542 C550 1.574 . S
C542 C558 1.368 . S
H543 C551 0.950 . S
H544 C549 0.950 . S
H545 C550 0.949 . S
H546 C552 0.950 . S
H547 C553 0.950 . S
H548 C554 0.949 . S
C549 H544 0.950 . S
C549 C551 1.327 . S
C549 C555 1.429 . S
C550 C542 1.574 . S
C550 H545 0.949 . S
C550 C556 1.368 . S
C551 C535 1.349 . S
C551 H543 0.950 . S
C551 C549 1.327 . S
C552 C540 1.349 . S
C552 H546 0.950 . S
C552 C553 1.327 . S
C553 H547 0.950 . S
C553 C552 1.327 . S
C553 C557 1.429 . S
C554 C537 1.574 . S
C554 H548 0.949 . S
C554 C558 1.368 . S
C555 C536 1.429 . S
C555 C549 1.429 . S
C555 C556 1.523 . S
C556 C537 1.368 . S
C556 C550 1.368 . S
C556 C555 1.523 . S
C557 C541 1.429 . S
C557 C553 1.429 . S
C557 C558 1.523 . S
C558 C542 1.368 . S
C558 C554 1.368 . S
C558 C557 1.523 . S
H559 C534 0.950 . S
H560 C536 0.950 . S
H561 C537 0.949 . S
H562 C539 0.950 . S
H563 C541 0.950 . S
C564 C565 1.349 . S
C564 C566 1.327 . S
C564 H589 0.950 . S
C565 C564 1.349 . S
C565 C581 1.349 . S
C566 C564 1.327 . S
C566 C585 1.429 . S
C566 H590 0.950 . S
C567 C584 1.574 . S
C567 C586 1.368 . S
C567 H591 0.949 . S
H568 C572 0.949 . S
C569 C570 1.349 . S
C569 C571 1.327 . S
C569 H592 0.950 . S
C570 C569 1.349 . S
C570 C582 1.349 . S
C571 C569 1.327 . S
C571 C587 1.429 . S
C571 H593 0.950 . S
C572 H568 0.949 . S
C572 C580 1.574 . S
C572 C588 1.368 . S
H573 C581 0.950 . S
H574 C579 0.950 . S
H575 C580 0.949 . S
H576 C582 0.950 . S
H577 C583 0.950 . S
H578 C584 0.949 . S
C579 H574 0.950 . S
C579 C581 1.327 . S
C579 C585 1.429 . S
C580 C572 1.574 . S
C580 H575 0.949 . S
C580 C586 1.368 . S
C581 C565 1.349 . S
C581 H573 0.950 . S
C581 C579 1.327 . S
C582 C570 1.349 . S
C582 H576 0.950 . S
C582 C583 1.327 . S
C583 H577 0.950 . S
C583 C582 1.327 . S
C583 C587 1.429 . S
C584 C567 1.574 . S
C584 H578 0.949 . S
C584 C588 1.368 . S
C585 C566 1.429 . S
C585 C579 1.429 . S
C585 C586 1.523 . S
C586 C567 1.368 . S
C586 C580 1.368 . S
C586 C585 1.523 . S
C587 C571 1.429 . S
C587 C583 1.429 . S
C587 C588 1.523 . S
C588 C572 1.368 . S
C588 C584 1.368 . S
C588 C587 1.523 . S
H589 C564 0.950 . S
H590 C566 0.950 . S
H591 C567 0.949 . S
H592 C569 0.950 . S
H593 C571 0.950 . S
C594 C595 1.349 . S
C594 C596 1.327 . S
C594 H619 0.950 . S
C595 C594 1.349 . S
C595 C611 1.349 . S
C596 C594 1.327 . S
C596 C615 1.429 . S
C596 H620 0.950 . S
C597 C614 1.574 . S
C597 C616 1.368 . S
C597 H621 0.949 . S
H598 C602 0.949 . S
C599 C600 1.349 . S
C599 C601 1.327 . S
C599 H622 0.950 . S
C600 C599 1.349 . S
C600 C612 1.349 . S
C601 C599 1.327 . S
C601 C617 1.429 . S
C601 H623 0.950 . S
C602 H598 0.949 . S
C602 C610 1.574 . S
C602 C618 1.368 . S
H603 C611 0.950 . S
H604 C609 0.950 . S
H605 C610 0.949 . S
H606 C612 0.950 . S
H607 C613 0.950 . S
H608 C614 0.949 . S
C609 H604 0.950 . S
C609 C611 1.327 . S
C609 C615 1.429 . S
C610 C602 1.574 . S
C610 H605 0.949 . S
C610 C616 1.368 . S
C611 C595 1.349 . S
C611 H603 0.950 . S
C611 C609 1.327 . S
C612 C600 1.349 . S
C612 H606 0.950 . S
C612 C613 1.327 . S
C613 H607 0.950 . S
C613 C612 1.327 . S
C613 C617 1.429 . S
C614 C597 1.574 . S
C614 H608 0.949 . S
C614 C618 1.368 . S
C615 C596 1.429 . S
C615 C609 1.429 . S
C615 C616 1.523 . S
C616 C597 1.368 . S
C616 C610 1.368 . S
C616 C615 1.523 . S
C617 C601 1.429 . S
C617 C613 1.429 . S
C617 C618 1.523 . S
C618 C602 1.368 . S
C618 C614 1.368 . S
C618 C617 1.523 . S
H619 C594 0.950 . S
H620 C596 0.950 . S
H621 C597 0.949 . S
H622 C599 0.950 . S
H623 C601 0.950 . S
C624 C625 1.349 . S
C624 C626 1.327 . S
C624 H649 0.950 . S
C625 C624 1.349 . S
C625 C641 1.349 . S
C626 C624 1.327 . S
C626 C645 1.429 . S
C626 H650 0.950 . S
C627 C644 1.574 . S
C627 C646 1.368 . S
C627 H651 0.949 . S
H628 C632 0.949 . S
C629 C630 1.349 . S
C629 C631 1.327 . S
C629 H652 0.950 . S
C630 C629 1.349 . S
C630 C642 1.349 . S
C631 C629 1.327 . S
C631 C647 1.429 . S
C631 H653 0.950 . S
C632 H628 0.949 . S
C632 C640 1.574 . S
C632 C648 1.368 . S
H633 C641 0.950 . S
H634 C639 0.950 . S
H635 C640 0.949 . S
H636 C642 0.950 . S
H637 C643 0.950 . S
H638 C644 0.949 . S
C639 H634 0.950 . S
C639 C641 1.327 . S
C639 C645 1.429 . S
C640 C632 1.574 . S
C640 H635 0.949 . S
C640 C646 1.368 . S
C641 C625 1.349 . S
C641 H633 0.950 . S
C641 C639 1.327 . S
C642 C630 1.349 . S
C642 H636 0.950 . S
C642 C643 1.327 . S
C643 H637 0.950 . S
C643 C642 1.327 . S
C643 C647 1.429 . S
C644 C627 1.574 . S
C644 H638 0.949 . S
C644 C648 1.368 . S
C645 C626 1.429 . S
C645 C639 1.429 . S
C645 C646 1.523 . S
C646 C627 1.368 . S
C646 C640 1.368 . S
C646 C645 1.523 . S
C647 C631 1.429 . S
C647 C643 1.429 . S
C647 C648 1.523 . S
C648 C632 1.368 . S
C648 C644 1.368 . S
C648 C647 1.523 . S
H649 C624 0.950 . S
H650 C626 0.950 . S
H651 C627 0.949 . S
H652 C629 0.950 . S
H653 C631 0.950 . S
C654 C655 1.349 . S
C654 C656 1.327 . S
C654 H679 0.950 . S
C655 C654 1.349 . S
C655 C671 1.349 . S
C656 C654 1.327 . S
C656 C675 1.429 . S
C656 H680 0.950 . S
C657 C674 1.574 . S
C657 C676 1.368 . S
C657 H681 0.949 . S
H658 C662 0.949 . S
C659 C660 1.349 . S
C659 C661 1.327 . S
C659 H682 0.950 . S
C660 C659 1.349 . S
C660 C672 1.349 1_554 S
C661 C659 1.327 . S
C661 C677 1.429 1_554 S
C661 H683 0.950 . S
C662 H658 0.949 . S
C662 C670 1.574 . S
C662 C678 1.368 . S
H663 C671 0.950 . S
H664 C669 0.950 . S
H665 C670 0.949 . S
H666 C672 0.950 . S
H667 C673 0.950 . S
H668 C674 0.949 . S
C669 H664 0.950 . S
C669 C671 1.327 . S
C669 C675 1.429 . S
C670 C662 1.574 . S
C670 H665 0.949 . S
C670 C676 1.368 . S
C671 C655 1.349 . S
C671 H663 0.950 . S
C671 C669 1.327 . S
C672 C660 1.349 1_556 S
C672 H666 0.950 . S
C672 C673 1.327 . S
C673 H667 0.950 . S
C673 C672 1.327 . S
C673 C677 1.429 . S
C674 C657 1.574 . S
C674 H668 0.949 . S
C674 C678 1.368 . S
C675 C656 1.429 . S
C675 C669 1.429 . S
C675 C676 1.523 . S
C676 C657 1.368 . S
C676 C670 1.368 . S
C676 C675 1.523 . S
C677 C661 1.429 1_556 S
C677 C673 1.429 . S
C677 C678 1.523 . S
C678 C662 1.368 . S
C678 C674 1.368 . S
C678 C677 1.523 . S
H679 C654 0.950 . S
H680 C656 0.950 . S
H681 C657 0.949 . S
H682 C659 0.950 . S
H683 C661 0.950 . S
C684 C685 1.349 1_554 S
C684 C686 1.327 . S
C684 H709 0.950 . S
C685 C684 1.349 1_556 S
C685 C701 1.349 . S
C686 C684 1.327 . S
C686 C705 1.429 . S
C686 H710 0.950 . S
C687 C704 1.574 . S
C687 C706 1.368 . S
C687 H711 0.949 . S
H688 C692 0.949 . S
C689 C690 1.349 . S
C689 C691 1.327 . S
C689 H712 0.950 . S
C690 C689 1.349 . S
C690 C702 1.349 . S
C691 C689 1.327 . S
C691 C707 1.429 . S
C691 H713 0.950 . S
C692 H688 0.949 . S
C692 C700 1.574 . S
C692 C708 1.368 . S
H693 C701 0.950 . S
H694 C699 0.950 . S
H695 C700 0.949 . S
H696 C702 0.950 . S
H697 C703 0.950 . S
H698 C704 0.949 . S
C699 H694 0.950 . S
C699 C701 1.327 . S
C699 C705 1.429 1_556 S
C700 C692 1.574 . S
C700 H695 0.949 . S
C700 C706 1.368 . S
C701 C685 1.349 . S
C701 H693 0.950 . S
C701 C699 1.327 . S
C702 C690 1.349 . S
C702 H696 0.950 . S
C702 C703 1.327 . S
C703 H697 0.950 . S
C703 C702 1.327 . S
C703 C707 1.429 . S
C704 C687 1.574 . S
C704 H698 0.949 . S
C704 C708 1.368 . S
C705 C686 1.429 . S
C705 C699 1.429 1_554 S
C705 C706 1.523 . S
C706 C687 1.368 . S
C706 C700 1.368 . S
C706 C705 1.523 . S
C707 C691 1.429 . S
C707 C703 1.429 . S
C707 C708 1.523 . S
C708 C692 1.368 . S
C708 C704 1.368 . S
C708 C707 1.523 . S
H709 C684 0.950 . S
H710 C686 0.950 . S
H711 C687 0.949 . S
H712 C689 0.950 . S
H713 C691 0.950 . S
C355 C3 1.235 . S
C360 C182 1.240 . S
C385 C241 1.241 . S
C390 C62 1.236 . S
C415 C123 1.240 . S
C420 C298 1.235 . S
C445 C180 1.235 . S
C450 C5 1.240 . S
C475 C64 1.241 . S
C480 C239 1.236 . S
C505 C300 1.240 . S
C510 C121 1.235 . S
C535 C33 1.493 . S
C540 C151 1.493 . S
C565 C92 1.495 . S
C570 C229 1.496 . S
C595 C288 1.498 . S
C600 C170 1.498 . S
C625 C328 1.493 . S
C630 C210 1.493 . S
C655 C269 1.495 . S
C660 C52 1.496 . S
C685 C347 1.498 . S
C690 C111 1.498 . S
