# Generated by pormake.
# Topology lhb, (8)-cn, num edge types: 1
# Building blocks:
#     Node 0, Type 0, BuildingBlock: GIZVER_clean_sbu_0, # of connection points: 8
#     Node 1, Type 0, BuildingBlock: GIZVER_clean_sbu_0, # of connection points: 8
#     Node 2, Type 0, BuildingBlock: GIZVER_clean_sbu_0, # of connection points: 8
#     Node 3, Type 0, BuildingBlock: GIZVER_clean_sbu_0, # of connection points: 8
#     Node 4, Type 0, BuildingBlock: GIZVER_clean_sbu_0, # of connection points: 8
#     Node 5, Type 0, BuildingBlock: GIZVER_clean_sbu_0, # of connection points: 8
#     Node 6, Type 0, BuildingBlock: GIZVER_clean_sbu_0, # of connection points: 8
#     Node 7, Type 0, BuildingBlock: GIZVER_clean_sbu_0, # of connection points: 8
#     Edge 8, Type (0, 0), BuildingBlock: CIFDUS_clean_linker_0, # of connection points: 2
#     Edge 9, Type (0, 0), BuildingBlock: CIFDUS_clean_linker_0, # of connection points: 2
#     Edge 10, Type (0, 0), BuildingBlock: CIFDUS_clean_linker_0, # of connection points: 2
#     Edge 11, Type (0, 0), BuildingBlock: CIFDUS_clean_linker_0, # of connection points: 2
#     Edge 12, Type (0, 0), BuildingBlock: CIFDUS_clean_linker_0, # of connection points: 2
#     Edge 13, Type (0, 0), BuildingBlock: CIFDUS_clean_linker_0, # of connection points: 2
#     Edge 14, Type (0, 0), BuildingBlock: CIFDUS_clean_linker_0, # of connection points: 2
#     Edge 15, Type (0, 0), BuildingBlock: CIFDUS_clean_linker_0, # of connection points: 2
#     Edge 16, Type (0, 0), BuildingBlock: CIFDUS_clean_linker_0, # of connection points: 2
#     Edge 17, Type (0, 0), BuildingBlock: CIFDUS_clean_linker_0, # of connection points: 2
#     Edge 18, Type (0, 0), BuildingBlock: CIFDUS_clean_linker_0, # of connection points: 2
#     Edge 19, Type (0, 0), BuildingBlock: CIFDUS_clean_linker_0, # of connection points: 2
#     Edge 20, Type (0, 0), BuildingBlock: CIFDUS_clean_linker_0, # of connection points: 2
#     Edge 21, Type (0, 0), BuildingBlock: CIFDUS_clean_linker_0, # of connection points: 2
#     Edge 22, Type (0, 0), BuildingBlock: CIFDUS_clean_linker_0, # of connection points: 2
#     Edge 23, Type (0, 0), BuildingBlock: CIFDUS_clean_linker_0, # of connection points: 2
#     Edge 24, Type (0, 0), BuildingBlock: CIFDUS_clean_linker_0, # of connection points: 2
#     Edge 25, Type (0, 0), BuildingBlock: CIFDUS_clean_linker_0, # of connection points: 2
#     Edge 26, Type (0, 0), BuildingBlock: CIFDUS_clean_linker_0, # of connection points: 2
#     Edge 27, Type (0, 0), BuildingBlock: CIFDUS_clean_linker_0, # of connection points: 2
#     Edge 28, Type (0, 0), BuildingBlock: CIFDUS_clean_linker_0, # of connection points: 2
#     Edge 29, Type (0, 0), BuildingBlock: CIFDUS_clean_linker_0, # of connection points: 2
#     Edge 30, Type (0, 0), BuildingBlock: CIFDUS_clean_linker_0, # of connection points: 2
#     Edge 31, Type (0, 0), BuildingBlock: CIFDUS_clean_linker_0, # of connection points: 2
#     Edge 32, Type (0, 0), BuildingBlock: CIFDUS_clean_linker_0, # of connection points: 2
#     Edge 33, Type (0, 0), BuildingBlock: CIFDUS_clean_linker_0, # of connection points: 2
#     Edge 34, Type (0, 0), BuildingBlock: CIFDUS_clean_linker_0, # of connection points: 2
#     Edge 35, Type (0, 0), BuildingBlock: CIFDUS_clean_linker_0, # of connection points: 2
#     Edge 36, Type (0, 0), BuildingBlock: CIFDUS_clean_linker_0, # of connection points: 2
#     Edge 37, Type (0, 0), BuildingBlock: CIFDUS_clean_linker_0, # of connection points: 2
#     Edge 38, Type (0, 0), BuildingBlock: CIFDUS_clean_linker_0, # of connection points: 2
#     Edge 39, Type (0, 0), BuildingBlock: CIFDUS_clean_linker_0, # of connection points: 2
# Relax obj value: 0.090
# Max RMSD: 0.175
# Mean RMSD: 0.175
data_MOF--net-lhb--node1-GIZVER_clean_sbu_0--edge1-CIFDUS_clean_linker_0
_symmetry_space_group_name_H-M    P1
_symmetry_Int_Tables_number       1
_symmetry_cell_setting            triclinic
loop_
_symmetry_equiv_pos_as_xyz
'x, y, z'
_cell_length_a     22.002703
_cell_length_b     13.24022
_cell_length_c     67.720468
_cell_angle_alpha  97.250585
_cell_angle_beta   89.904153
_cell_angle_gamma 90.094352
loop_
_atom_site_label
_atom_site_type_symbol
_atom_site_fract_x
_atom_site_fract_y
_atom_site_fract_z
_atom_type_partial_charge
Co0 Co 0.03833 0.03387 1.00165 0.0
Co1 Co 0.92824 0.08445 1.011 0.0
Co2 Co -0.00223 0.02451 0.0501 0.0
O3 O 0.9807 0.99258 1.0206 0.0
H4 H 0.96635 0.92363 1.01703 0.0
O5 O 0.01345 0.05629 0.07962 0.0
Co6 Co 0.96485 0.99482 0.09937 0.0
Co7 Co 0.07528 0.96719 0.08504 0.0
H8 H 0.02454 0.12637 0.08371 0.0
O9 O 0.88035 0.05629 0.98873 0.0
O10 O 0.97581 0.12162 0.99011 0.0
O11 O 0.91077 0.20513 1.02861 0.0
O12 O 0.97978 0.17644 0.05132 0.0
O13 O 0.91259 0.9898 0.0561 0.0
O14 O 0.92149 0.94223 0.11758 0.0
O15 O 0.97483 0.08785 0.12219 0.0
O16 O 0.94149 0.89177 0.07876 0.0
O17 O 0.01562 0.87271 0.04849 0.0
O18 O 0.09548 0.84858 0.0671 0.0
O19 O 0.04144 0.92639 0.10759 0.0
O20 O 0.1289 1.01441 0.10337 0.0
C21 C 0.07055 0.97732 0.97376 0.0
C22 C 0.09764 0.12729 1.03415 0.0
C23 C 0.94437 0.23638 0.04328 0.0
C24 C 0.92468 0.10091 0.98054 0.0
C25 C 0.93905 0.02137 0.12933 0.0
C26 C 0.90193 0.91699 0.06639 0.0
C27 C 0.05576 0.81423 0.05457 0.0
C28 C 0.09039 0.97542 0.1149 0.0
O29 O 0.09107 0.06137 0.98342 0.0
O30 O 0.02615 0.92909 0.98148 0.0
O31 O 0.0844 0.05758 0.04481 0.0
O32 O 0.0625 0.14519 1.02011 0.0
Co33 Co 0.296 0.26627 0.34545 0.0
Co34 Co 0.18755 0.22575 0.33311 0.0
Co35 Co 0.26141 0.29407 0.29742 0.0
O36 O 0.24283 0.32056 0.32658 0.0
H37 H 0.22913 0.38913 0.33085 0.0
O38 O 0.28182 0.26564 0.2684 0.0
Co39 Co 0.22433 0.29984 0.24926 0.0
Co40 Co 0.3318 0.36166 0.25941 0.0
H41 H 0.2987 0.19839 0.26488 0.0
O42 O 0.1337 0.26559 0.35193 0.0
O43 O 0.22455 0.18727 0.35547 0.0
O44 O 0.17074 0.10792 0.31481 0.0
O45 O 0.24508 0.14408 0.29465 0.0
O46 O 0.17572 0.32096 0.29135 0.0
O47 O 0.17195 0.32119 0.23051 0.0
O48 O 0.24014 0.19407 0.23002 0.0
O49 O 0.19698 0.41146 0.267 0.0
O50 O 0.27711 0.44429 0.29982 0.0
O51 O 0.34117 0.48533 0.27658 0.0
O52 O 0.28554 0.3893 0.23779 0.0
O53 O 0.38344 0.33481 0.23821 0.0
C54 C 0.32438 0.30297 0.3743 0.0
C55 C 0.35842 0.18943 0.31199 0.0
C56 C 0.20711 0.08202 0.30062 0.0
C57 C 0.17268 0.22519 0.36303 0.0
C58 C 0.19522 0.23736 0.22165 0.0
C59 C 0.16275 0.39235 0.2812 0.0
C60 C 0.30897 0.50915 0.29197 0.0
C61 C 0.33801 0.37029 0.229 0.0
O62 O 0.34372 0.22355 0.36298 0.0
O63 O 0.28401 0.36223 0.36734 0.0
O64 O 0.34626 0.26774 0.30372 0.0
O65 O 0.32256 0.16104 0.32518 0.0
Co66 Co 0.79265 0.73251 0.34995 0.0
Co67 Co 0.68105 0.70177 0.3361 0.0
Co68 Co 0.7569 0.75704 0.30073 0.0
O69 O 0.74258 0.79193 0.33035 0.0
H70 H 0.73118 0.86203 0.33431 0.0
O71 O 0.77234 0.72652 0.27115 0.0
Co72 Co 0.71379 0.76631 0.25209 0.0
Co73 Co 0.82405 0.82073 0.2616 0.0
H74 H 0.78747 0.65825 0.26749 0.0
O75 O 0.62531 0.74957 0.35367 0.0
O76 O 0.71487 0.67027 0.3592 0.0
O77 O 0.66363 0.57972 0.31887 0.0
O78 O 0.74191 0.60466 0.29946 0.0
O79 O 0.6703 0.77902 0.29593 0.0
O80 O 0.66151 0.79044 0.23337 0.0
O81 O 0.73256 0.66753 0.23161 0.0
O82 O 0.68148 0.87192 0.27127 0.0
O83 O 0.77123 0.90915 0.30132 0.0
O84 O 0.84571 0.93562 0.28026 0.0
O85 O 0.77402 0.86445 0.24187 0.0
O86 O 0.86919 0.79957 0.23844 0.0
C87 C 0.82157 0.75834 0.37963 0.0
C88 C 0.85358 0.65828 0.31746 0.0
C89 C 0.70232 0.54608 0.30591 0.0
C90 C 0.66564 0.72126 0.36584 0.0
C91 C 0.68693 0.71074 0.22359 0.0
C92 C 0.65216 0.84951 0.2864 0.0
C93 C 0.80927 0.96803 0.2941 0.0
C94 C 0.82422 0.84767 0.23146 0.0
O95 O 0.83695 0.67849 0.36778 0.0
O96 O 0.78666 0.82642 0.37275 0.0
O97 O 0.8422 0.72884 0.30669 0.0
O98 O 0.81328 0.62989 0.32933 0.0
Co99 Co 0.03824 0.47231 0.50092 0.0
Co100 Co 0.9344 0.55143 0.51064 0.0
Co101 Co -0.00286 0.49298 0.55109 0.0
O102 O 0.98046 0.45664 0.5218 0.0
H103 H 0.96021 0.39143 0.51939 0.0
O104 O 0.0111 0.53254 0.58056 0.0
Co105 Co 0.95919 0.4773 0.60034 0.0
Co106 Co 0.07136 0.44329 0.58722 0.0
H107 H 0.02276 0.60288 0.58413 0.0
O108 O 0.88858 0.52863 0.48774 0.0
O109 O 0.98671 0.58057 0.49021 0.0
O110 O 0.91642 0.67233 0.52786 0.0
O111 O 0.98547 0.64468 0.55063 0.0
O112 O 0.9112 0.46992 0.55716 0.0
O113 O 0.91361 0.42753 0.61823 0.0
O114 O 0.96558 0.57422 0.6227 0.0
O115 O 0.93716 0.37194 0.58018 0.0
O116 O 0.0105 0.34133 0.55097 0.0
O117 O 0.0893 0.3201 0.57037 0.0
O118 O 0.0358 0.41461 0.61035 0.0
O119 O 0.126 0.49308 0.60503 0.0
C120 C 0.05281 0.39821 0.47266 0.0
C121 C 0.10655 0.56826 0.5346 0.0
C122 C 0.95003 0.70386 0.54248 0.0
C123 C 0.93545 0.57033 0.48028 0.0
C124 C 0.92942 0.50815 0.62978 0.0
C125 C 0.89816 0.39995 0.56788 0.0
C126 C 0.05055 0.28454 0.55759 0.0
C127 C 0.08494 0.46574 0.61713 0.0
O128 O 0.08925 0.4707 0.48015 0.0
O129 O 0.00543 0.3753 0.48284 0.0
O130 O 0.08434 0.50975 0.54616 0.0
O131 O 0.08276 0.57597 0.51767 0.0
Co132 Co 0.30444 0.77726 0.84868 0.0
Co133 Co 0.19136 0.75218 0.83542 0.0
Co134 Co 0.26678 0.80743 0.80029 0.0
O135 O 0.25363 0.84134 0.82978 0.0
H136 H 0.2435 0.91191 0.83395 0.0
O137 O 0.28313 0.76949 0.77115 0.0
Co138 Co 0.22269 0.78183 0.75148 0.0
Co139 Co 0.32739 0.86188 0.75901 0.0
H140 H 0.30335 0.70439 0.76877 0.0
O141 O 0.14151 0.79308 0.85567 0.0
O142 O 0.2291 0.70205 0.85647 0.0
O143 O 0.1674 0.63833 0.8165 0.0
O144 O 0.25258 0.65613 0.80001 0.0
O145 O 0.17899 0.8293 0.79562 0.0
O146 O 0.16816 0.77971 0.73196 0.0
O147 O 0.24646 0.67262 0.73441 0.0
O148 O 0.18775 0.8954 0.76728 0.0
O149 O 0.2798 0.95964 0.80012 0.0
O150 O 0.33907 0.98943 0.77461 0.0
O151 O 0.27501 0.87719 0.73797 0.0
O152 O 0.37452 0.8328 0.73649 0.0
C153 C 0.32648 0.79543 0.87853 0.0
C154 C 0.36835 0.71082 0.81472 0.0
C155 C 0.20936 0.60057 0.80514 0.0
C156 C 0.18131 0.74716 0.86553 0.0
C157 C 0.19812 0.69809 0.72503 0.0
C158 C 0.15983 0.88792 0.78349 0.0
C159 C 0.31033 0.01988 0.79045 0.0
C160 C 0.32601 0.86339 0.7281 0.0
O161 O 0.34767 0.72208 0.86607 0.0
O162 O 0.29231 0.8652 0.87193 0.0
O163 O 0.35335 0.78513 0.80553 0.0
O164 O 0.33172 0.67884 0.82735 0.0
Co165 Co 0.77555 0.21229 0.84886 0.0
Co166 Co 0.66802 0.1695 0.83487 0.0
Co167 Co 0.74397 0.23457 0.79981 0.0
O168 O 0.72493 0.26435 0.829 0.0
H169 H 0.7106 0.33277 0.83294 0.0
O170 O 0.76407 0.20793 0.77067 0.0
Co171 Co 0.70545 0.23579 0.75103 0.0
Co172 Co 0.81112 0.30569 0.76081 0.0
H173 H 0.78296 0.14202 0.76734 0.0
O174 O 0.61107 0.21363 0.85206 0.0
O175 O 0.70165 0.1393 0.85814 0.0
O176 O 0.6539 0.049 0.81717 0.0
O177 O 0.729 0.08456 0.79725 0.0
O178 O 0.65753 0.25657 0.79402 0.0
O179 O 0.65306 0.24758 0.73154 0.0
O180 O 0.72862 0.13342 0.73227 0.0
O181 O 0.66991 0.34466 0.76873 0.0
O182 O 0.75827 0.38484 0.80182 0.0
O183 O 0.82215 0.42662 0.77853 0.0
O184 O 0.76168 0.33536 0.73983 0.0
O185 O 0.86018 0.2853 0.73858 0.0
C186 C 0.80175 0.24901 0.87825 0.0
C187 C 0.84086 0.1352 0.8169 0.0
C188 C 0.69068 0.02286 0.80313 0.0
C189 C 0.65062 0.18498 0.8645 0.0
C190 C 0.68184 0.16734 0.72327 0.0
C191 C 0.63984 0.32504 0.78389 0.0
C192 C 0.79007 0.44983 0.79398 0.0
C193 C 0.81367 0.32362 0.73037 0.0
O194 O 0.82097 0.16857 0.86723 0.0
O195 O 0.76333 0.30967 0.87071 0.0
O196 O 0.82911 0.20701 0.80653 0.0
O197 O 0.80124 0.10709 0.829 0.0
Co198 Co 0.52254 0.0386 0.49903 0.0
Co199 Co 0.4205 0.12327 0.50688 0.0
Co200 Co 0.47967 0.05744 0.5476 0.0
O201 O 0.46151 0.0267 0.5185 0.0
H202 H 0.43987 0.96292 0.51572 0.0
O203 O 0.49467 0.08598 0.57696 0.0
Co204 Co 0.44271 0.02398 0.59552 0.0
Co205 Co 0.55468 0.99448 0.58273 0.0
H206 H 0.50605 0.15561 0.58143 0.0
O207 O 0.37091 0.10008 0.485 0.0
O208 O 0.472 0.13494 0.4855 0.0
O209 O 0.41596 0.25025 0.52262 0.0
O210 O 0.46375 0.20768 0.54943 0.0
O211 O 0.3944 0.02752 0.55324 0.0
O212 O 0.39726 0.97067 0.61271 0.0
O213 O 0.44994 0.11659 0.61826 0.0
O214 O 0.42025 0.92055 0.57448 0.0
O215 O 0.4973 0.90825 0.54504 0.0
O216 O 0.57358 0.87681 0.5647 0.0
O217 O 0.51842 0.95608 0.60493 0.0
O218 O 0.60834 0.03875 0.60123 0.0
C219 C 0.5471 0.95479 0.47275 0.0
C220 C 0.58496 0.14514 0.53096 0.0
C221 C 0.43997 0.27348 0.53956 0.0
C222 C 0.41984 0.12728 0.47627 0.0
C223 C 0.41385 0.04895 0.62483 0.0
C224 C 0.3834 0.94822 0.56149 0.0
C225 C 0.53722 0.84886 0.55067 0.0
C226 C 0.5675 1.00412 0.61255 0.0
O227 O 0.57755 0.03588 0.47972 0.0
O228 O 0.49827 0.92994 0.482 0.0
O229 O 0.56645 0.08466 0.54279 0.0
O230 O 0.5576 0.15225 0.51471 0.0
Co231 Co 0.52812 0.52564 0.99872 0.0
Co232 Co 0.42458 0.58991 1.01142 0.0
Co233 Co 0.50122 0.52266 0.04839 0.0
O234 O 0.47641 0.49586 1.01986 0.0
H235 H 0.45817 0.42925 1.01697 0.0
O236 O 0.52406 0.54941 0.0773 0.0
Co237 Co 0.47411 0.49071 0.09654 0.0
Co238 Co 0.58364 0.45833 0.08324 0.0
H239 H 0.5359 0.61915 0.08152 0.0
O240 O 0.36992 0.55513 0.99131 0.0
O241 O 0.46512 0.61793 0.98865 0.0
O242 O 0.41814 0.71524 1.02822 0.0
O243 O 0.48163 0.6724 0.05142 0.0
O244 O 0.41787 0.48461 0.05596 0.0
O245 O 0.42971 0.4422 0.11414 0.0
O246 O 0.48246 0.58873 0.11839 0.0
O247 O 0.45267 0.38298 0.07682 0.0
O248 O 0.52234 0.37364 0.0449 0.0
O249 O 0.59528 0.336 0.06551 0.0
O250 O 0.54815 0.42122 0.10598 0.0
O251 O 0.63789 0.50251 0.10247 0.0
C252 C 0.54591 0.45777 0.97056 0.0
C253 C 0.59695 0.62631 1.02994 0.0
C254 C 0.45061 0.7383 0.04356 0.0
C255 C 0.41155 0.59468 0.98101 0.0
C256 C 0.44569 0.52373 0.12546 0.0
C257 C 0.41079 0.40748 0.0653 0.0
C258 C 0.55917 0.31064 0.05119 0.0
C259 C 0.59754 0.46618 0.11371 0.0
O260 O 0.57447 0.54032 0.97777 0.0
O261 O 0.50371 0.41984 0.981 0.0
O262 O 0.58516 0.55796 0.04104 0.0
O263 O 0.56328 0.6383 1.01512 0.0
H264 H 0.10691 0.16235 0.13292 0.0
H265 H 0.09833 0.85069 0.14469 0.0
H266 H 0.13313 0.90282 0.17912 0.0
H267 H 0.17136 0.03954 0.20531 0.0
H268 H 0.16781 0.3514 0.19296 0.0
H269 H 0.13324 0.29692 0.15921 0.0
C270 C 0.112 0.10589 0.14312 0.0
C271 C 0.1001 1.00314 0.13644 0.0
C272 C 0.13097 0.13659 0.16264 0.0
C273 C 0.10647 0.9305 0.14969 0.0
C274 C 0.12695 0.96033 0.16925 0.0
C275 C 0.16305 0.09497 0.19514 0.0
C276 C 0.17344 0.19921 0.20143 0.0
C277 C 0.14036 0.06329 0.17581 0.0
C278 C 0.1607 0.27082 0.18838 0.0
C279 C 0.14093 0.23983 0.16909 0.0
H280 H 0.83157 0.96362 0.14376 0.0
H281 H 0.00574 0.08615 0.16314 0.0
H282 H 0.98678 0.04097 0.19661 0.0
H283 H 0.92364 0.94926 0.21944 0.0
H284 H 0.74431 0.84902 0.20097 0.0
H285 H 0.76148 0.90257 0.16815 0.0
C286 C 0.86487 0.98286 0.15544 0.0
C287 C 0.9211 0.02565 0.15071 0.0
C288 C 0.8527 0.95879 0.17475 0.0
C289 C 0.96299 0.05144 0.16614 0.0
C290 C 0.95201 0.02512 0.18532 0.0
C291 C 0.8882 0.93995 0.20825 0.0
C292 C 0.83302 0.89181 0.21242 0.0
C293 C 0.89779 0.97548 0.18962 0.0
C294 C 0.78715 0.88334 0.19799 0.0
C295 C 0.79709 0.91453 0.17924 0.0
H296 H 0.15399 0.29868 0.45688 0.0
H297 H 0.97256 0.38669 0.44233 0.0
H298 H 0.99245 0.3338 0.407 0.0
H299 H 0.06436 0.27937 0.38035 0.0
H300 H 0.24178 0.16952 0.39421 0.0
H301 H 0.21843 0.20609 0.42993 0.0
C302 C 0.11863 0.30453 0.44594 0.0
C303 C 0.06241 0.34925 0.45203 0.0
C304 C 0.12956 0.26976 0.42566 0.0
C305 C 0.0164 0.35418 0.4379 0.0
C306 C 0.02779 0.32393 0.41772 0.0
C307 C 0.09844 0.26328 0.39107 0.0
C308 C 0.15636 0.2271 0.3845 0.0
C309 C 0.0848 0.28451 0.41142 0.0
C310 C 0.19803 0.20175 0.39877 0.0
C311 C 0.18479 0.22325 0.4192 0.0
H312 H 0.92987 0.7007 0.39351 0.0
H313 H 0.75468 0.81571 0.41368 0.0
H314 H 0.77419 0.76666 0.44665 0.0
H315 H 0.83711 0.6727 0.46868 0.0
H316 H 0.01724 0.5757 0.44985 0.0
H317 H 7e-05 0.63521 0.41747 0.0
C318 C 0.89659 0.71778 0.40529 0.0
C319 C 0.84017 0.76086 0.4009 0.0
C320 C 0.90874 0.69011 0.42436 0.0
C321 C 0.79801 0.78272 0.41642 0.0
C322 C 0.80914 0.75356 0.43532 0.0
C323 C 0.87275 0.66515 0.45751 0.0
C324 C 0.92768 0.61618 0.46141 0.0
C325 C 0.86348 0.70388 0.43924 0.0
C326 C 0.97412 0.61049 0.44707 0.0
C327 C 0.96434 0.64506 0.42858 0.0
H328 H 0.12327 0.38321 0.6502 0.0
H329 H 0.07015 0.66359 0.62908 0.0
H330 H 0.09697 0.75943 0.66093 0.0
H331 H 0.14004 0.76592 0.69421 0.0
H332 H 0.20968 0.49226 0.71413 0.0
H333 H 0.17212 0.39149 0.68363 0.0
C334 C 0.11566 0.46466 0.65295 0.0
C335 C 0.09056 0.51541 0.63783 0.0
C336 C 0.13519 0.52074 0.67101 0.0
C337 C 0.08559 0.62214 0.64094 0.0
C338 C 0.102 0.67733 0.65903 0.0
C339 C 0.14686 0.68411 0.69191 0.0
C340 C 0.17741 0.6366 0.70641 0.0
C341 C 0.12727 0.62767 0.67411 0.0
C342 C 0.18661 0.53073 0.7031 0.0
C343 C 0.16485 0.47308 0.68571 0.0
H344 H 0.91012 0.4337 0.71936 0.0
H345 H 0.73624 0.31324 0.69882 0.0
H346 H 0.7533 0.37299 0.66649 0.0
H347 H 0.82206 0.44513 0.64316 0.0
H348 H 0.99242 0.5774 0.66419 0.0
H349 H 0.97201 0.53072 0.69735 0.0
C350 C 0.87591 0.42098 0.7078 0.0
C351 C 0.82249 0.36653 0.71129 0.0
C352 C 0.88537 0.45864 0.68943 0.0
C353 C 0.77788 0.35332 0.69641 0.0
C354 C 0.78766 0.38787 0.67795 0.0
C355 C 0.85411 0.46631 0.65514 0.0
C356 C 0.9096 0.51325 0.65097 0.0
C357 C 0.84171 0.43896 0.67417 0.0
C358 C 0.95 0.54081 0.66675 0.0
C359 C 0.93835 0.51306 0.68575 0.0
H360 H 0.18627 0.92589 0.88805 0.0
H361 H 0.15485 0.60793 0.89149 0.0
H362 H 0.1158 0.64956 0.92571 0.0
H363 H 0.0823 0.78144 0.95369 0.0
H364 H 0.11986 0.0978 0.94892 0.0
H365 H 0.16444 0.05196 0.91629 0.0
C366 C 0.17299 0.8652 0.89655 0.0
C367 C 0.17468 0.76395 0.88746 0.0
C368 C 0.15014 0.89 0.91587 0.0
C369 C 0.15545 0.68631 0.89838 0.0
C370 C 0.13225 0.71047 0.91783 0.0
C371 C 0.10018 0.83996 0.94544 0.0
C372 C 0.09662 0.94331 0.9537 0.0
C373 C 0.12772 0.81271 0.92656 0.0
C374 C 0.1214 1.01793 0.94298 0.0
C375 C 0.14718 0.99188 0.92427 0.0
H376 H 0.91062 0.19964 0.8921 0.0
H377 H 0.73712 0.32383 0.91199 0.0
H378 H 0.75942 0.28723 0.94596 0.0
H379 H 0.82455 0.2003 0.96892 0.0
H380 H 0.00125 0.09123 0.94893 0.0
H381 H 0.98184 0.14121 0.91601 0.0
C382 C 0.87817 0.22108 0.90398 0.0
C383 C 0.82129 0.26125 0.89942 0.0
C384 C 0.89172 0.20057 0.92333 0.0
C385 C 0.78049 0.29076 0.91502 0.0
C386 C 0.79325 0.26919 0.93441 0.0
C387 C 0.85883 0.18813 0.95734 0.0
C388 C 0.91396 0.13952 0.96117 0.0
C389 C 0.84781 0.22032 0.93855 0.0
C390 C 0.95853 0.12694 0.94627 0.0
C391 C 0.94734 0.15583 0.92746 0.0
H392 H 0.6265 0.25665 0.69463 0.0
H393 H 0.6909 0.96568 0.70792 0.0
H394 H 0.65225 0.88417 0.67575 0.0
H395 H 0.60361 0.89846 0.64288 0.0
H396 H 0.55563 0.1964 0.6288 0.0
H397 H 0.58408 0.27237 0.66207 0.0
C398 C 0.6321 0.17532 0.69051 0.0
C399 C 0.66139 0.11729 0.70361 0.0
C400 C 0.61181 0.1301 0.67186 0.0
C401 C 0.66885 1.01214 0.69798 0.0
C402 C 0.64642 0.96549 0.67965 0.0
C403 C 0.59744 0.97925 0.64747 0.0
C404 C 0.57355 0.04096 0.63391 0.0
C405 C 0.61779 0.02382 0.66639 0.0
C406 C 0.57038 0.14672 0.6394 0.0
C407 C 0.58769 0.19056 0.65831 0.0
H408 H 0.321 0.94524 0.63873 0.0
H409 H 0.46445 0.15445 0.65895 0.0
H410 H 0.45209 0.11158 0.69293 0.0
H411 H 0.40535 1.00155 0.71622 0.0
H412 H 0.25661 0.80403 0.69574 0.0
H413 H 0.26583 0.85496 0.66241 0.0
C414 C 0.34925 0.98282 0.65057 0.0
C415 C 0.39603 0.04933 0.64606 0.0
C416 C 0.34106 0.9586 0.66997 0.0
C417 C 0.4303 0.0997 0.66178 0.0
C418 C 0.42293 0.07524 0.68124 0.0
C419 C 0.37508 0.96998 0.70439 0.0
C420 C 0.33101 0.89739 0.70821 0.0
C421 C 0.3798 1.002 0.68535 0.0
C422 C 0.29096 0.859 0.69304 0.0
C423 C 0.29626 0.88837 0.67402 0.0
H424 H 0.59926 0.27517 0.95746 0.0
H425 H 0.52219 0.54473 0.93788 0.0
H426 H 0.54877 0.48287 0.90345 0.0
H427 H 0.59571 0.35667 0.8793 0.0
H428 H 0.67713 0.08726 0.89745 0.0
H429 H 0.64804 0.1448 0.93228 0.0
C430 C 0.58786 0.31916 0.94552 0.0
C431 C 0.5583 0.41371 0.94995 0.0
C432 C 0.60466 0.28385 0.92573 0.0
C433 C 0.54458 0.47162 0.93463 0.0
C434 C 0.55996 0.43647 0.91503 0.0
C435 C 0.60696 0.30986 0.89083 0.0
C436 C 0.63813 0.21749 0.88584 0.0
C437 C 0.59038 0.34346 0.91047 0.0
C438 C 0.6532 0.15868 0.90098 0.0
C439 C 0.63621 0.19139 0.92081 0.0
H440 H 0.41759 0.77984 0.96688 0.0
H441 H 0.36541 0.46615 0.95092 0.0
H442 H 0.32897 0.50481 0.91867 0.0
H443 H 0.31324 0.6253 0.89495 0.0
H444 H 0.36231 0.94074 0.90969 0.0
H445 H 0.39641 0.90556 0.94288 0.0
C446 C 0.39887 0.72018 0.95617 0.0
C447 C 0.39514 0.61965 0.96103 0.0
C448 C 0.37624 0.74387 0.93775 0.0
C449 C 0.36931 0.54343 0.94736 0.0
C450 C 0.34813 0.5657 0.92901 0.0
C451 C 0.33087 0.68686 0.9055 0.0
C452 C 0.33558 0.78539 0.89989 0.0
C453 C 0.35124 0.66538 0.9241 0.0
C454 C 0.35775 0.86454 0.91375 0.0
C455 C 0.37796 0.8439 0.93258 0.0
H456 H 0.59137 0.64844 0.13519 0.0
H457 H 0.62895 0.3341 0.14022 0.0
H458 H 0.66306 0.38112 0.17483 0.0
H459 H 0.68689 0.5161 0.20318 0.0
H460 H 0.63469 0.82606 0.1982 0.0
H461 H 0.60147 0.77671 0.16418 0.0
C462 C 0.60551 0.58989 0.14406 0.0
C463 C 0.60657 0.48799 0.13542 0.0
C464 C 0.62348 0.61732 0.16387 0.0
C465 C 0.62634 0.41288 0.14682 0.0
C466 C 0.64639 0.44004 0.1665 0.0
C467 C 0.66829 0.5725 0.19459 0.0
C468 C 0.66522 0.67538 0.20308 0.0
C469 C 0.64607 0.5426 0.17512 0.0
C470 C 0.63892 0.74689 0.19198 0.0
C471 C 0.61967 0.71881 0.17249 0.0
H472 H 0.41707 0.51177 0.21785 0.0
H473 H 0.2832 0.28973 0.19538 0.0
H474 H 0.29624 0.33465 0.16186 0.0
H475 H 0.35117 0.42533 0.13882 0.0
H476 H 0.49174 0.64019 0.15934 0.0
H477 H 0.4704 0.61214 0.19393 0.0
C478 C 0.39079 0.47403 0.20553 0.0
C479 C 0.34776 0.39909 0.20897 0.0
C480 C 0.40011 0.49898 0.18611 0.0
C481 C 0.3142 0.35013 0.19308 0.0
C482 C 0.3224 0.3751 0.17392 0.0
C483 C 0.37715 0.46705 0.15081 0.0
C484 C 0.4248 0.53184 0.14644 0.0
C485 C 0.36564 0.44837 0.17028 0.0
C486 C 0.45621 0.58762 0.16224 0.0
C487 C 0.44399 0.57124 0.18199 0.0
H488 H 0.60862 0.02133 0.4425 0.0
H489 H 0.5327 0.74966 0.46164 0.0
H490 H 0.57124 0.64816 0.43135 0.0
H491 H 0.62291 0.63903 0.39835 0.0
H492 H 0.68367 0.91789 0.3781 0.0
H493 H 0.65568 1.01389 0.4098 0.0
C494 C 0.60067 0.9398 0.44008 0.0
C495 C 0.56801 0.893 0.45425 0.0
C496 C 0.62126 0.88298 0.42247 0.0
C497 C 0.55736 0.78752 0.45082 0.0
C498 C 0.57972 0.72944 0.43357 0.0
C499 C 0.63188 0.72009 0.40128 0.0
C500 C 0.65947 0.77032 0.38649 0.0
C501 C 0.61166 0.7764 0.4192 0.0
C502 C 0.6664 0.87671 0.38978 0.0
C503 C 0.64926 0.93204 0.40776 0.0
H504 H 0.33656 0.26025 0.46494 0.0
H505 H 0.49405 0.0837 0.44448 0.0
H506 H 0.48485 0.14062 0.41166 0.0
H507 H 0.42584 0.22462 0.38814 0.0
H508 H 0.26873 0.4042 0.40785 0.0
H509 H 0.28678 0.36899 0.44214 0.0
C510 C 0.36875 0.23457 0.45323 0.0
C511 C 0.41486 0.16525 0.45679 0.0
C512 C 0.36403 0.27003 0.43454 0.0
C513 C 0.45767 0.13525 0.44188 0.0
C514 C 0.45256 0.16829 0.42319 0.0
C515 C 0.39584 0.25754 0.39996 0.0
C516 C 0.34458 0.31379 0.39535 0.0
C517 C 0.40509 0.23355 0.41926 0.0
C518 C 0.308 0.35958 0.41095 0.0
C519 C 0.31785 0.33805 0.4305 0.0
H520 H 0.95119 0.71206 0.04381 0.0
H521 H 0.13866 0.66467 0.05884 0.0
H522 H 0.11892 0.48293 0.05891 0.0
H523 H 0.04805 0.33778 0.05515 0.0
H524 H 0.86099 0.38535 0.03979 0.0
H525 H 0.88036 0.56755 0.04025 0.0
C526 C 0.98804 0.66192 0.0468 0.0
C527 C 0.04652 0.7022 0.05114 0.0
C528 C 0.97598 0.55797 0.04737 0.0
C529 C 0.09337 0.6358 0.05528 0.0
C530 C 0.08197 0.53196 0.05553 0.0
C531 C 0.01124 0.3883 0.0523 0.0
C532 C 0.95295 0.34805 0.04767 0.0
C533 C 0.02325 0.49244 0.05188 0.0
C534 C 0.90607 0.41449 0.04361 0.0
C535 C 0.9173 0.51849 0.04364 0.0
H536 H 0.31695 0.65946 0.26881 0.0
H537 H 0.26479 0.59755 0.32761 0.0
H538 H 0.22039 0.76747 0.33449 0.0
H539 H 0.19577 0.93161 0.32356 0.0
H540 H 0.24876 0.99332 0.26487 0.0
H541 H 0.2916 0.82233 0.2578 0.0
C542 C 0.29718 0.68387 0.28332 0.0
C543 C 0.29487 0.61693 0.29781 0.0
C544 C 0.27008 0.77964 0.28688 0.0
C545 C 0.26773 0.64863 0.31634 0.0
C546 C 0.24166 0.74495 0.32017 0.0
C547 C 0.21516 0.90653 0.30903 0.0
C548 C 0.21845 0.97373 0.29461 0.0
C549 C 0.24172 0.81024 0.30541 0.0
C550 C 0.24515 0.94176 0.27604 0.0
C551 C 0.27035 0.84492 0.27213 0.0
H552 H 0.70478 0.06954 0.30431 0.0
H553 H 0.89436 0.116 0.29167 0.0
H554 H 0.87667 0.2988 0.29248 0.0
H555 H 0.80688 0.44416 0.29588 0.0
H556 H 0.61729 0.39793 0.30856 0.0
H557 H 0.63502 0.21518 0.30785 0.0
C558 C 0.74248 0.11989 0.30214 0.0
C559 C 0.80099 0.07946 0.29819 0.0
C560 C 0.7316 0.22428 0.30201 0.0
C561 C 0.84906 0.1455 0.29493 0.0
C562 C 0.83884 0.24977 0.29519 0.0
C563 C 0.76921 0.39399 0.29817 0.0
C564 C 0.7107 0.4345 0.30208 0.0
C565 C 0.78012 0.28968 0.29837 0.0
C566 C 0.66264 0.36848 0.30536 0.0
C567 C 0.67287 0.26422 0.30517 0.0
H568 H 0.05279 0.80694 0.55404 0.0
H569 H 0.86386 0.84889 0.5402 0.0
H570 H 0.87954 0.03282 0.54237 0.0
H571 H 0.94748 0.18012 0.54708 0.0
H572 H 0.13667 0.13913 0.5608 0.0
H573 H 0.12079 0.95532 0.55915 0.0
C574 C 0.01482 0.85664 0.55192 0.0
C575 C 0.95709 0.81489 0.54721 0.0
C576 C 0.02461 0.96174 0.55258 0.0
C577 C 0.90858 0.87972 0.544 0.0
C578 C 0.91764 0.98456 0.54505 0.0
C579 C 0.98549 0.13091 0.54941 0.0
C580 C 0.04333 0.17296 0.55384 0.0
C581 C 0.97568 0.02608 0.54896 0.0
C582 C 0.09182 0.10833 0.55722 0.0
C583 C 0.08265 1.00348 0.55645 0.0
H584 H 0.20901 0.12268 0.8038 0.0
H585 H 0.3954 0.1649 0.7867 0.0
H586 H 0.37899 0.34821 0.78836 0.0
H587 H 0.31126 0.49474 0.79352 0.0
H588 H 0.12434 0.45466 0.81046 0.0
H589 H 0.14096 0.27138 0.80944 0.0
C590 C 0.24636 0.17252 0.80096 0.0
C591 C 0.30356 0.13086 0.79543 0.0
C592 C 0.23612 0.27751 0.80139 0.0
C593 C 0.35118 0.19566 0.79121 0.0
C594 C 0.3417 0.3002 0.79199 0.0
C595 C 0.27386 0.44609 0.79681 0.0
C596 C 0.21651 0.48851 0.80195 0.0
C597 C 0.28411 0.3416 0.79671 0.0
C598 C 0.16885 0.42398 0.80635 0.0
C599 C 0.17846 0.31933 0.80596 0.0
H600 H 0.79796 0.60006 0.77089 0.0
H601 H 0.74637 0.53768 0.82973 0.0
H602 H 0.70257 0.70799 0.83677 0.0
H603 H 0.67868 0.87264 0.82599 0.0
H604 H 0.73109 0.9345 0.76725 0.0
H605 H 0.7729 0.76291 0.75998 0.0
C606 C 0.77842 0.6244 0.78544 0.0
C607 C 0.77609 0.55737 0.7999 0.0
C608 C 0.75168 0.72026 0.78909 0.0
C609 C 0.74927 0.58892 0.81849 0.0
C610 C 0.72356 0.68542 0.8224 0.0
C611 C 0.69775 0.84745 0.81141 0.0
C612 C 0.70135 0.91474 0.79704 0.0
C613 C 0.72372 0.75089 0.80768 0.0
C614 C 0.72744 0.88277 0.77839 0.0
C615 C 0.75202 0.78563 0.77436 0.0
H616 H 0.54607 0.69891 0.5737 0.0
H617 H 0.50374 0.76 0.51415 0.0
H618 H 0.46365 0.58751 0.5061 0.0
H619 H 0.43681 0.42467 0.51651 0.0
H620 H 0.47812 0.362 0.57613 0.0
H621 H 0.52056 0.53306 0.58399 0.0
C622 C 0.52974 0.67318 0.55879 0.0
C623 C 0.52854 0.74046 0.54438 0.0
C624 C 0.50463 0.57595 0.55459 0.0
C625 C 0.50571 0.70812 0.5253 0.0
C626 C 0.48206 0.61049 0.52083 0.0
C627 C 0.45402 0.44866 0.53137 0.0
C628 C 0.4538 0.38121 0.54579 0.0
C629 C 0.48 0.54496 0.53552 0.0
C630 C 0.47727 0.41314 0.56485 0.0
C631 C 0.50221 0.5102 0.56925 0.0
H632 H 0.44415 0.88881 1.02027 0.0
H633 H 0.49658 0.82732 0.079 0.0
H634 H 0.54244 0.9966 0.08557 0.0
H635 H 0.56851 0.16021 0.07438 0.0
H636 H 0.51582 0.22088 1.01567 0.0
H637 H 0.47101 0.05094 1.00899 0.0
C638 C 0.46431 0.91312 1.0347 0.0
C639 C 0.46609 0.84627 0.04927 0.0
C640 C 0.49235 1.00859 1.03808 0.0
C641 C 0.49388 0.87809 0.06767 0.0
C642 C 0.5208 0.97415 0.07132 0.0
C643 C 0.54876 0.13517 0.05992 0.0
C644 C 0.54632 0.20205 0.04538 0.0
C645 C 0.52117 0.03921 0.0565 0.0
C646 C 0.51897 0.16985 1.02694 0.0
C647 C 0.49263 0.07349 1.02324 0.0
H648 H 0.31492 0.43955 0.04183 0.0
H649 H 0.38257 0.23254 0.08105 0.0
H650 H 0.29087 0.12857 0.07529 0.0
H651 H 0.19171 0.09589 0.05882 0.0
H652 H 0.12611 0.30297 1.01925 0.0
H653 H 0.21669 0.4077 1.0256 0.0
C654 C 0.30974 0.37173 0.04915 0.0
C655 C 0.35554 0.34401 0.06187 0.0
C656 C 0.25718 0.31231 0.04574 0.0
C657 C 0.34796 0.25578 0.07121 0.0
C658 C 0.29554 0.19625 0.06792 0.0
C659 C 0.19721 0.16406 0.05164 0.0
C660 C 0.15227 0.19123 1.03853 0.0
C661 C 0.24985 0.22377 0.0552 0.0
C662 C 0.16016 0.27972 1.02929 0.0
C663 C 0.21194 0.33986 1.03292 0.0
H664 H 0.81125 0.945 0.04041 0.0
H665 H 0.86978 0.74571 0.08252 0.0
H666 H 0.7802 0.6393 0.075 0.0
H667 H 0.68616 0.60214 0.05641 0.0
H668 H 0.62738 0.79987 1.01409 0.0
H669 H 0.71647 0.90806 1.02187 0.0
C670 C 0.80444 0.87839 0.04798 0.0
C671 C 0.84719 0.85347 0.06202 0.0
C672 C 0.75291 0.81735 0.04357 0.0
C673 C 0.83755 0.76689 0.07169 0.0
C674 C 0.78637 0.70588 0.06739 0.0
C675 C 0.69265 0.66898 0.04888 0.0
C676 C 0.65032 0.69266 1.03463 0.0
C677 C 0.74388 0.73037 0.05335 0.0
C678 C 0.65954 0.77951 1.02502 0.0
C679 C 0.71037 0.84149 1.02948 0.0
H680 H 0.07327 0.35547 0.30659 0.0
H681 H 0.13444 0.57381 0.2685 0.0
H682 H 0.04463 0.67789 0.27723 0.0
H683 H 0.94794 0.70309 0.29465 0.0
H684 H 0.88563 0.48341 0.33228 0.0
H685 H 0.97767 0.3832 0.32476 0.0
C686 C 0.06709 0.42604 0.30025 0.0
C687 C 0.1099 0.45671 0.28682 0.0
C688 C 0.01545 0.48482 0.3052 0.0
C689 C 0.10156 0.54824 0.27873 0.0
C690 C 0.05043 0.6078 0.28373 0.0
C691 C 0.95446 0.6334 0.30126 0.0
C692 C 0.91004 0.60023 0.31388 0.0
C693 C 0.0069 0.57612 0.29678 0.0
C694 C 0.91931 0.5104 0.32249 0.0
C695 C 0.97175 0.45303 0.31818 0.0
H696 H 0.32907 0.79691 0.57848 0.0
H697 H 0.32667 0.94939 0.52579 0.0
H698 H 0.24215 0.84345 0.51242 0.0
H699 H 0.16643 0.71086 0.5161 0.0
H700 H 0.16748 0.56216 0.56935 0.0
H701 H 0.25422 0.66344 0.58201 0.0
C702 C 0.31025 0.8063 0.56403 0.0
C703 C 0.33399 0.88072 0.55321 0.0
C704 C 0.26096 0.74626 0.55652 0.0
C705 C 0.30898 0.8928 0.53452 0.0
C706 C 0.2606 0.83227 0.52682 0.0
C707 C 0.18586 0.70028 0.5304 0.0
C708 C 0.16043 0.62887 0.54166 0.0
C709 C 0.23582 0.75934 0.53776 0.0
C710 C 0.18603 0.61654 0.56027 0.0
C711 C 0.2358 0.67441 0.5676 0.0
H712 H 0.81097 0.43593 0.54165 0.0
H713 H 0.85729 0.23652 0.58516 0.0
H714 H 0.76298 0.14149 0.57782 0.0
H715 H 0.66888 0.114 0.55866 0.0
H716 H 0.62442 0.31139 0.51462 0.0
H717 H 0.71724 0.40911 0.52268 0.0
C718 C 0.80057 0.37178 0.54959 0.0
C719 C 0.84104 0.3432 0.56392 0.0
C720 C 0.74686 0.31739 0.5452 0.0
C721 C 0.82678 0.26002 0.57407 0.0
C722 C 0.77298 0.20569 0.56987 0.0
C723 C 0.67937 0.17866 0.55087 0.0
C724 C 0.64012 0.2054 0.53602 0.0
C725 C 0.73289 0.23363 0.55542 0.0
C726 C 0.65429 0.28897 0.52599 0.0
C727 C 0.70718 0.3449 0.53062 0.0
H728 H 0.93011 0.17096 0.79116 0.0
H729 H 0.88209 0.97597 0.83534 0.0
H730 H 0.97812 0.88452 0.82938 0.0
H731 H 0.07431 0.8579 0.81106 0.0
H732 H 0.12044 0.05161 0.76647 0.0
H733 H 0.02623 0.14642 0.77333 0.0
C734 C 0.94051 0.10857 0.79954 0.0
C735 C 0.89892 0.0801 0.81363 0.0
C736 C -0.00464 0.05624 0.79599 0.0
C737 C 0.91328 0.99919 0.82436 0.0
C738 C 0.96815 0.94694 0.82098 0.0
C739 C 0.06386 0.92115 0.80291 0.0
C740 C 0.10401 0.94733 0.78819 0.0
C741 C 0.00934 0.97457 0.80675 0.0
C742 C 0.08991 0.02933 0.77773 0.0
C743 C 0.03615 0.08367 0.78166 0.0
H744 H 0.60583 0.5113 0.7748 0.0
H745 H 0.55256 0.2716 0.809 0.0
H746 H 0.4647 0.3702 0.82195 0.0
H747 H 0.40275 0.52449 0.82369 0.0
H748 H 0.45622 0.76507 0.7897 0.0
H749 H 0.54409 0.66651 0.77674 0.0
C750 C 0.57469 0.4805 0.78495 0.0
C751 C 0.58557 0.38437 0.79085 0.0
C752 C 0.52439 0.53794 0.79254 0.0
C753 C 0.54527 0.34577 0.80424 0.0
C754 C 0.495 0.40202 0.8117 0.0
C755 C 0.43376 0.55553 0.81353 0.0
C756 C 0.42276 0.65173 0.80767 0.0
C757 C 0.48419 0.49836 0.80601 0.0
C758 C 0.46338 0.69077 0.79442 0.0
C759 C 0.51371 0.63453 0.78695 0.0
H760 H 0.58479 0.97956 0.26746 0.0
H761 H 0.59838 0.8487 0.32251 0.0
H762 H 0.50674 0.9374 0.33499 0.0
H763 H 0.42253 0.05362 0.33043 0.0
H764 H 0.41028 0.18655 0.27555 0.0
H765 H 0.50055 0.09468 0.26282 0.0
C766 C 0.56776 0.97089 0.28219 0.0
C767 C 0.59814 0.90749 0.29396 0.0
C768 C 0.51478 0.02176 0.28929 0.0
C769 C 0.57552 0.89664 0.31305 0.0
C770 C 0.52304 0.94724 0.32024 0.0
C771 C 0.4394 0.0614 0.31563 0.0
C772 C 0.40995 0.12653 0.30401 0.0
C773 C 0.4921 1.00969 0.30846 0.0
C774 C 0.4324 0.13698 0.28488 0.0
C775 C 0.48414 0.08472 0.27756 0.0
loop_
_geom_bond_atom_site_label_1
_geom_bond_atom_site_label_2
_geom_bond_distance
_geom_bond_site_symmetry_2
_ccdc_geom_bond_type
Co0 O3 2.044 1_455 S
Co0 O10 2.264 1_455 S
Co0 O29 2.286 . S
Co0 O30 2.069 1_545 S
Co0 O32 2.015 . S
Co1 O3 2.129 . S
Co1 O9 2.073 . S
Co1 O10 2.327 . S
Co1 O11 1.976 . S
Co2 O3 2.087 1_454 S
Co2 O5 2.087 . S
Co2 O12 2.118 1_455 S
Co2 O13 2.141 1_445 S
Co2 O17 2.105 1_545 S
Co2 O31 2.146 . S
O3 Co0 2.044 1_655 S
O3 Co1 2.129 . S
O3 Co2 2.087 1_656 S
O3 H4 0.972 1_545 S
H4 O3 0.972 1_565 S
O5 Co2 2.087 . S
O5 Co6 2.041 1_445 S
O5 Co7 2.119 1_545 S
O5 H8 0.984 . S
Co6 O5 2.041 1_665 S
Co6 O14 2.286 . S
Co6 O15 2.069 1_565 S
Co6 O16 2.015 . S
Co6 O19 2.264 1_655 S
Co7 O5 2.119 1_565 S
Co7 O18 1.976 . S
Co7 O19 2.327 . S
Co7 O20 2.073 . S
H8 O5 0.984 . S
O9 Co1 2.073 . S
O9 C24 1.245 . S
O10 Co0 2.264 1_655 S
O10 Co1 2.327 . S
O10 C24 1.257 . S
O11 Co1 1.976 . S
O11 C23 1.251 1_556 S
O12 Co2 2.118 1_655 S
O12 C23 1.274 . S
O13 Co2 2.141 1_665 S
O13 C26 1.246 . S
O14 Co6 2.286 . S
O14 C25 1.259 1_565 S
O15 Co6 2.069 1_545 S
O15 C25 1.289 . S
O16 Co6 2.015 . S
O16 C26 1.257 . S
O17 Co2 2.105 1_565 S
O17 C27 1.274 . S
O18 Co7 1.976 . S
O18 C27 1.251 . S
O19 Co6 2.264 1_455 S
O19 Co7 2.327 . S
O19 C28 1.257 . S
O20 Co7 2.073 . S
O20 C28 1.245 . S
C21 O29 1.259 1_565 S
C21 O30 1.289 . S
C22 O31 1.246 1_556 S
C22 O32 1.257 . S
C23 O11 1.251 1_554 S
C23 O12 1.274 . S
C24 O9 1.245 . S
C24 O10 1.257 . S
C25 O14 1.259 1_545 S
C25 O15 1.289 . S
C26 O13 1.246 . S
C26 O16 1.257 . S
C27 O17 1.274 . S
C27 O18 1.251 . S
C28 O19 1.257 . S
C28 O20 1.245 . S
O29 Co0 2.286 . S
O29 C21 1.259 1_545 S
O30 Co0 2.069 1_565 S
O30 C21 1.289 . S
O31 Co2 2.146 . S
O31 C22 1.246 1_554 S
O32 Co0 2.015 . S
O32 C22 1.257 . S
Co33 O36 2.042 . S
Co33 O43 2.264 . S
Co33 O62 2.286 . S
Co33 O63 2.069 . S
Co33 O65 2.015 . S
Co34 O36 2.122 . S
Co34 O42 2.073 . S
Co34 O43 2.327 . S
Co34 O44 1.976 . S
Co35 O36 2.087 . S
Co35 O38 2.087 . S
Co35 O45 2.111 . S
Co35 O46 2.143 . S
Co35 O50 2.111 . S
Co35 O64 2.143 . S
O36 Co33 2.042 . S
O36 Co34 2.122 . S
O36 Co35 2.087 . S
O36 H37 0.980 . S
H37 O36 0.980 . S
O38 Co35 2.087 . S
O38 Co39 2.042 . S
O38 Co40 2.122 . S
O38 H41 0.980 . S
Co39 O38 2.042 . S
Co39 O47 2.286 . S
Co39 O48 2.069 . S
Co39 O49 2.015 . S
Co39 O52 2.264 . S
Co40 O38 2.122 . S
Co40 O51 1.976 . S
Co40 O52 2.327 . S
Co40 O53 2.073 . S
H41 O38 0.980 . S
O42 Co34 2.073 . S
O42 C57 1.245 . S
O43 Co33 2.264 . S
O43 Co34 2.327 . S
O43 C57 1.257 . S
O44 Co34 1.976 . S
O44 C56 1.251 . S
O45 Co35 2.111 . S
O45 C56 1.274 . S
O46 Co35 2.143 . S
O46 C59 1.246 . S
O47 Co39 2.286 . S
O47 C58 1.259 . S
O48 Co39 2.069 . S
O48 C58 1.289 . S
O49 Co39 2.015 . S
O49 C59 1.257 . S
O50 Co35 2.111 . S
O50 C60 1.274 . S
O51 Co40 1.976 . S
O51 C60 1.251 . S
O52 Co39 2.264 . S
O52 Co40 2.327 . S
O52 C61 1.257 . S
O53 Co40 2.073 . S
O53 C61 1.245 . S
C54 O62 1.259 . S
C54 O63 1.289 . S
C55 O64 1.246 . S
C55 O65 1.257 . S
C56 O44 1.251 . S
C56 O45 1.274 . S
C57 O42 1.245 . S
C57 O43 1.257 . S
C58 O47 1.259 . S
C58 O48 1.289 . S
C59 O46 1.246 . S
C59 O49 1.257 . S
C60 O50 1.274 . S
C60 O51 1.251 . S
C61 O52 1.257 . S
C61 O53 1.245 . S
O62 Co33 2.286 . S
O62 C54 1.259 . S
O63 Co33 2.069 . S
O63 C54 1.289 . S
O64 Co35 2.143 . S
O64 C55 1.246 . S
O65 Co33 2.015 . S
O65 C55 1.257 . S
Co66 O69 2.042 . S
Co66 O76 2.264 . S
Co66 O95 2.286 . S
Co66 O96 2.069 . S
Co66 O98 2.015 . S
Co67 O69 2.122 . S
Co67 O75 2.073 . S
Co67 O76 2.327 . S
Co67 O77 1.976 . S
Co68 O69 2.087 . S
Co68 O71 2.087 . S
Co68 O78 2.111 . S
Co68 O79 2.143 . S
Co68 O83 2.111 . S
Co68 O97 2.143 . S
O69 Co66 2.042 . S
O69 Co67 2.122 . S
O69 Co68 2.087 . S
O69 H70 0.980 . S
H70 O69 0.980 . S
O71 Co68 2.087 . S
O71 Co72 2.042 . S
O71 Co73 2.122 . S
O71 H74 0.980 . S
Co72 O71 2.042 . S
Co72 O80 2.286 . S
Co72 O81 2.069 . S
Co72 O82 2.015 . S
Co72 O85 2.264 . S
Co73 O71 2.122 . S
Co73 O84 1.976 . S
Co73 O85 2.327 . S
Co73 O86 2.073 . S
H74 O71 0.980 . S
O75 Co67 2.073 . S
O75 C90 1.245 . S
O76 Co66 2.264 . S
O76 Co67 2.327 . S
O76 C90 1.257 . S
O77 Co67 1.976 . S
O77 C89 1.251 . S
O78 Co68 2.111 . S
O78 C89 1.274 . S
O79 Co68 2.143 . S
O79 C92 1.246 . S
O80 Co72 2.286 . S
O80 C91 1.259 . S
O81 Co72 2.069 . S
O81 C91 1.289 . S
O82 Co72 2.015 . S
O82 C92 1.257 . S
O83 Co68 2.111 . S
O83 C93 1.274 . S
O84 Co73 1.976 . S
O84 C93 1.251 . S
O85 Co72 2.264 . S
O85 Co73 2.327 . S
O85 C94 1.257 . S
O86 Co73 2.073 . S
O86 C94 1.245 . S
C87 O95 1.259 . S
C87 O96 1.289 . S
C88 O97 1.246 . S
C88 O98 1.257 . S
C89 O77 1.251 . S
C89 O78 1.274 . S
C90 O75 1.245 . S
C90 O76 1.257 . S
C91 O80 1.259 . S
C91 O81 1.289 . S
C92 O79 1.246 . S
C92 O82 1.257 . S
C93 O83 1.274 . S
C93 O84 1.251 . S
C94 O85 1.257 . S
C94 O86 1.245 . S
O95 Co66 2.286 . S
O95 C87 1.259 . S
O96 Co66 2.069 . S
O96 C87 1.289 . S
O97 Co68 2.143 . S
O97 C88 1.246 . S
O98 Co66 2.015 . S
O98 C88 1.257 . S
Co99 O102 2.042 1_455 S
Co99 O109 2.264 1_455 S
Co99 O128 2.286 . S
Co99 O129 2.069 . S
Co99 O131 2.015 . S
Co100 O102 2.122 . S
Co100 O108 2.073 . S
Co100 O109 2.327 . S
Co100 O110 1.976 . S
Co101 O102 2.087 1_455 S
Co101 O104 2.087 . S
Co101 O111 2.111 1_455 S
Co101 O112 2.143 1_455 S
Co101 O116 2.111 . S
Co101 O130 2.143 . S
O102 Co99 2.042 1_655 S
O102 Co100 2.122 . S
O102 Co101 2.087 1_655 S
O102 H103 0.980 . S
H103 O102 0.980 . S
O104 Co101 2.087 . S
O104 Co105 2.042 1_455 S
O104 Co106 2.122 . S
O104 H107 0.980 . S
Co105 O104 2.042 1_655 S
Co105 O113 2.286 . S
Co105 O114 2.069 . S
Co105 O115 2.015 . S
Co105 O118 2.264 1_655 S
Co106 O104 2.122 . S
Co106 O117 1.976 . S
Co106 O118 2.327 . S
Co106 O119 2.073 . S
H107 O104 0.980 . S
O108 Co100 2.073 . S
O108 C123 1.245 . S
O109 Co99 2.264 1_655 S
O109 Co100 2.327 . S
O109 C123 1.257 . S
O110 Co100 1.976 . S
O110 C122 1.251 . S
O111 Co101 2.111 1_655 S
O111 C122 1.274 . S
O112 Co101 2.143 1_655 S
O112 C125 1.246 . S
O113 Co105 2.286 . S
O113 C124 1.259 . S
O114 Co105 2.069 . S
O114 C124 1.289 . S
O115 Co105 2.015 . S
O115 C125 1.257 . S
O116 Co101 2.111 . S
O116 C126 1.274 . S
O117 Co106 1.976 . S
O117 C126 1.251 . S
O118 Co105 2.264 1_455 S
O118 Co106 2.327 . S
O118 C127 1.257 . S
O119 Co106 2.073 . S
O119 C127 1.245 . S
C120 O128 1.259 . S
C120 O129 1.289 . S
C121 O130 1.246 . S
C121 O131 1.257 . S
C122 O110 1.251 . S
C122 O111 1.274 . S
C123 O108 1.245 . S
C123 O109 1.257 . S
C124 O113 1.259 . S
C124 O114 1.289 . S
C125 O112 1.246 . S
C125 O115 1.257 . S
C126 O116 1.274 . S
C126 O117 1.251 . S
C127 O118 1.257 . S
C127 O119 1.245 . S
O128 Co99 2.286 . S
O128 C120 1.259 . S
O129 Co99 2.069 . S
O129 C120 1.289 . S
O130 Co101 2.143 . S
O130 C121 1.246 . S
O131 Co99 2.015 . S
O131 C121 1.257 . S
Co132 O135 2.042 . S
Co132 O142 2.264 . S
Co132 O161 2.286 . S
Co132 O162 2.069 . S
Co132 O164 2.015 . S
Co133 O135 2.122 . S
Co133 O141 2.073 . S
Co133 O142 2.327 . S
Co133 O143 1.976 . S
Co134 O135 2.087 . S
Co134 O137 2.087 . S
Co134 O144 2.111 . S
Co134 O145 2.143 . S
Co134 O149 2.111 . S
Co134 O163 2.143 . S
O135 Co132 2.042 . S
O135 Co133 2.122 . S
O135 Co134 2.087 . S
O135 H136 0.980 . S
H136 O135 0.980 . S
O137 Co134 2.087 . S
O137 Co138 2.042 . S
O137 Co139 2.122 . S
O137 H140 0.980 . S
Co138 O137 2.042 . S
Co138 O146 2.286 . S
Co138 O147 2.069 . S
Co138 O148 2.015 . S
Co138 O151 2.264 . S
Co139 O137 2.122 . S
Co139 O150 1.976 . S
Co139 O151 2.327 . S
Co139 O152 2.073 . S
H140 O137 0.980 . S
O141 Co133 2.073 . S
O141 C156 1.245 . S
O142 Co132 2.264 . S
O142 Co133 2.327 . S
O142 C156 1.257 . S
O143 Co133 1.976 . S
O143 C155 1.251 . S
O144 Co134 2.111 . S
O144 C155 1.274 . S
O145 Co134 2.143 . S
O145 C158 1.246 . S
O146 Co138 2.286 . S
O146 C157 1.259 . S
O147 Co138 2.069 . S
O147 C157 1.289 . S
O148 Co138 2.015 . S
O148 C158 1.257 . S
O149 Co134 2.111 . S
O149 C159 1.274 . S
O150 Co139 1.976 . S
O150 C159 1.251 . S
O151 Co138 2.264 . S
O151 Co139 2.327 . S
O151 C160 1.257 . S
O152 Co139 2.073 . S
O152 C160 1.245 . S
C153 O161 1.259 . S
C153 O162 1.289 . S
C154 O163 1.246 . S
C154 O164 1.257 . S
C155 O143 1.251 . S
C155 O144 1.274 . S
C156 O141 1.245 . S
C156 O142 1.257 . S
C157 O146 1.259 . S
C157 O147 1.289 . S
C158 O145 1.246 . S
C158 O148 1.257 . S
C159 O149 1.274 . S
C159 O150 1.251 . S
C160 O151 1.257 . S
C160 O152 1.245 . S
O161 Co132 2.286 . S
O161 C153 1.259 . S
O162 Co132 2.069 . S
O162 C153 1.289 . S
O163 Co134 2.143 . S
O163 C154 1.246 . S
O164 Co132 2.015 . S
O164 C154 1.257 . S
Co165 O168 2.042 . S
Co165 O175 2.264 . S
Co165 O194 2.286 . S
Co165 O195 2.069 . S
Co165 O197 2.015 . S
Co166 O168 2.122 . S
Co166 O174 2.073 . S
Co166 O175 2.327 . S
Co166 O176 1.976 . S
Co167 O168 2.087 . S
Co167 O170 2.087 . S
Co167 O177 2.111 . S
Co167 O178 2.143 . S
Co167 O182 2.111 . S
Co167 O196 2.143 . S
O168 Co165 2.042 . S
O168 Co166 2.122 . S
O168 Co167 2.087 . S
O168 H169 0.980 . S
H169 O168 0.980 . S
O170 Co167 2.087 . S
O170 Co171 2.042 . S
O170 Co172 2.122 . S
O170 H173 0.980 . S
Co171 O170 2.042 . S
Co171 O179 2.286 . S
Co171 O180 2.069 . S
Co171 O181 2.015 . S
Co171 O184 2.264 . S
Co172 O170 2.122 . S
Co172 O183 1.976 . S
Co172 O184 2.327 . S
Co172 O185 2.073 . S
H173 O170 0.980 . S
O174 Co166 2.073 . S
O174 C189 1.245 . S
O175 Co165 2.264 . S
O175 Co166 2.327 . S
O175 C189 1.257 . S
O176 Co166 1.976 . S
O176 C188 1.251 . S
O177 Co167 2.111 . S
O177 C188 1.274 . S
O178 Co167 2.143 . S
O178 C191 1.246 . S
O179 Co171 2.286 . S
O179 C190 1.259 . S
O180 Co171 2.069 . S
O180 C190 1.289 . S
O181 Co171 2.015 . S
O181 C191 1.257 . S
O182 Co167 2.111 . S
O182 C192 1.274 . S
O183 Co172 1.976 . S
O183 C192 1.251 . S
O184 Co171 2.264 . S
O184 Co172 2.327 . S
O184 C193 1.257 . S
O185 Co172 2.073 . S
O185 C193 1.245 . S
C186 O194 1.259 . S
C186 O195 1.289 . S
C187 O196 1.246 . S
C187 O197 1.257 . S
C188 O176 1.251 . S
C188 O177 1.274 . S
C189 O174 1.245 . S
C189 O175 1.257 . S
C190 O179 1.259 . S
C190 O180 1.289 . S
C191 O178 1.246 . S
C191 O181 1.257 . S
C192 O182 1.274 . S
C192 O183 1.251 . S
C193 O184 1.257 . S
C193 O185 1.245 . S
O194 Co165 2.286 . S
O194 C186 1.259 . S
O195 Co165 2.069 . S
O195 C186 1.289 . S
O196 Co167 2.143 . S
O196 C187 1.246 . S
O197 Co165 2.015 . S
O197 C187 1.257 . S
Co198 O201 2.044 . S
Co198 O208 2.264 . S
Co198 O227 2.286 . S
Co198 O228 2.069 1_545 S
Co198 O230 2.015 . S
Co199 O201 2.128 . S
Co199 O207 2.073 . S
Co199 O208 2.327 . S
Co199 O209 1.976 . S
Co200 O201 2.087 . S
Co200 O203 2.087 . S
Co200 O210 2.116 . S
Co200 O211 2.141 1_545 S
Co200 O215 2.106 1_545 S
Co200 O229 2.146 . S
O201 Co198 2.044 . S
O201 Co199 2.128 . S
O201 Co200 2.087 . S
O201 H202 0.974 1_545 S
H202 O201 0.974 1_565 S
O203 Co200 2.087 . S
O203 Co204 2.042 1_545 S
O203 Co205 2.120 1_545 S
O203 H206 0.982 . S
Co204 O203 2.042 1_565 S
Co204 O212 2.286 . S
Co204 O213 2.069 1_565 S
Co204 O214 2.015 . S
Co204 O217 2.264 . S
Co205 O203 2.120 1_565 S
Co205 O216 1.976 . S
Co205 O217 2.327 . S
Co205 O218 2.073 . S
H206 O203 0.982 . S
O207 Co199 2.073 . S
O207 C222 1.245 . S
O208 Co198 2.264 . S
O208 Co199 2.327 . S
O208 C222 1.257 . S
O209 Co199 1.976 . S
O209 C221 1.251 . S
O210 Co200 2.116 . S
O210 C221 1.274 . S
O211 Co200 2.141 1_565 S
O211 C224 1.246 . S
O212 Co204 2.286 . S
O212 C223 1.259 1_565 S
O213 Co204 2.069 1_545 S
O213 C223 1.289 . S
O214 Co204 2.015 . S
O214 C224 1.257 . S
O215 Co200 2.106 1_565 S
O215 C225 1.274 . S
O216 Co205 1.976 . S
O216 C225 1.251 . S
O217 Co204 2.264 . S
O217 Co205 2.327 . S
O217 C226 1.257 . S
O218 Co205 2.073 . S
O218 C226 1.245 . S
C219 O227 1.259 1_565 S
C219 O228 1.289 . S
C220 O229 1.246 . S
C220 O230 1.257 . S
C221 O209 1.251 . S
C221 O210 1.274 . S
C222 O207 1.245 . S
C222 O208 1.257 . S
C223 O212 1.259 1_545 S
C223 O213 1.289 . S
C224 O211 1.246 . S
C224 O214 1.257 . S
C225 O215 1.274 . S
C225 O216 1.251 . S
C226 O217 1.257 . S
C226 O218 1.245 . S
O227 Co198 2.286 . S
O227 C219 1.259 1_545 S
O228 Co198 2.069 1_565 S
O228 C219 1.289 . S
O229 Co200 2.146 . S
O229 C220 1.246 . S
O230 Co198 2.015 . S
O230 C220 1.257 . S
Co231 O234 2.042 . S
Co231 O241 2.264 . S
Co231 O260 2.286 . S
Co231 O261 2.069 . S
Co231 O263 2.015 . S
Co232 O234 2.122 . S
Co232 O240 2.073 . S
Co232 O241 2.327 . S
Co232 O242 1.976 . S
Co233 O234 2.087 1_554 S
Co233 O236 2.087 . S
Co233 O243 2.111 . S
Co233 O244 2.143 . S
Co233 O248 2.111 . S
Co233 O262 2.143 . S
O234 Co231 2.042 . S
O234 Co232 2.122 . S
O234 Co233 2.087 1_556 S
O234 H235 0.980 . S
H235 O234 0.980 . S
O236 Co233 2.087 . S
O236 Co237 2.042 . S
O236 Co238 2.122 . S
O236 H239 0.980 . S
Co237 O236 2.042 . S
Co237 O245 2.286 . S
Co237 O246 2.069 . S
Co237 O247 2.015 . S
Co237 O250 2.264 . S
Co238 O236 2.122 . S
Co238 O249 1.976 . S
Co238 O250 2.327 . S
Co238 O251 2.073 . S
H239 O236 0.980 . S
O240 Co232 2.073 . S
O240 C255 1.245 . S
O241 Co231 2.264 . S
O241 Co232 2.327 . S
O241 C255 1.257 . S
O242 Co232 1.976 . S
O242 C254 1.251 1_556 S
O243 Co233 2.111 . S
O243 C254 1.274 . S
O244 Co233 2.143 . S
O244 C257 1.246 . S
O245 Co237 2.286 . S
O245 C256 1.259 . S
O246 Co237 2.069 . S
O246 C256 1.289 . S
O247 Co237 2.015 . S
O247 C257 1.257 . S
O248 Co233 2.111 . S
O248 C258 1.274 . S
O249 Co238 1.976 . S
O249 C258 1.251 . S
O250 Co237 2.264 . S
O250 Co238 2.327 . S
O250 C259 1.257 . S
O251 Co238 2.073 . S
O251 C259 1.245 . S
C252 O260 1.259 . S
C252 O261 1.289 . S
C253 O262 1.246 1_556 S
C253 O263 1.257 . S
C254 O242 1.251 1_554 S
C254 O243 1.274 . S
C255 O240 1.245 . S
C255 O241 1.257 . S
C256 O245 1.259 . S
C256 O246 1.289 . S
C257 O244 1.246 . S
C257 O247 1.257 . S
C258 O248 1.274 . S
C258 O249 1.251 . S
C259 O250 1.257 . S
C259 O251 1.245 . S
O260 Co231 2.286 . S
O260 C252 1.259 . S
O261 Co231 2.069 . S
O261 C252 1.289 . S
O262 Co233 2.143 . S
O262 C253 1.246 1_554 S
O263 Co231 2.015 . S
O263 C253 1.257 . S
H264 C270 0.930 . S
H265 C273 0.930 . S
H266 C274 0.930 . S
H267 C275 0.930 . S
H268 C278 0.930 . S
H269 C279 0.930 . S
C270 H264 0.930 . S
C270 C271 1.355 1_545 S
C270 C272 1.415 . S
C271 C270 1.355 1_565 S
C271 C273 1.419 . S
C272 C270 1.415 . S
C272 C277 1.425 . S
C272 C279 1.409 . S
C273 H265 0.930 . S
C273 C271 1.419 . S
C273 C274 1.362 . S
C274 H266 0.930 . S
C274 C273 1.362 . S
C274 C277 1.409 1_565 S
C275 H267 0.930 . S
C275 C276 1.355 . S
C275 C277 1.415 . S
C276 C275 1.355 . S
C276 C278 1.419 . S
C277 C272 1.425 . S
C277 C274 1.409 1_545 S
C277 C275 1.415 . S
C278 H268 0.930 . S
C278 C276 1.419 . S
C278 C279 1.362 . S
C279 H269 0.930 . S
C279 C272 1.409 . S
C279 C278 1.362 . S
H280 C286 0.930 . S
H281 C289 0.930 . S
H282 C290 0.930 . S
H283 C291 0.930 . S
H284 C294 0.930 . S
H285 C295 0.930 1_545 S
C286 H280 0.930 . S
C286 C287 1.355 . S
C286 C288 1.415 1_545 S
C287 C286 1.355 . S
C287 C289 1.419 1_545 S
C288 C286 1.415 1_565 S
C288 C293 1.425 . S
C288 C295 1.409 . S
C289 H281 0.930 . S
C289 C287 1.419 1_565 S
C289 C290 1.362 . S
C290 H282 0.930 . S
C290 C289 1.362 . S
C290 C293 1.409 . S
C291 H283 0.930 . S
C291 C292 1.355 . S
C291 C293 1.415 . S
C292 C291 1.355 . S
C292 C294 1.419 . S
C293 C288 1.425 . S
C293 C290 1.409 . S
C293 C291 1.415 . S
C294 H284 0.930 . S
C294 C292 1.419 . S
C294 C295 1.362 . S
C295 H285 0.930 1_565 S
C295 C288 1.409 . S
C295 C294 1.362 . S
H296 C302 0.930 . S
H297 C305 0.930 . S
H298 C306 0.930 . S
H299 C307 0.930 . S
H300 C310 0.930 . S
H301 C311 0.930 . S
C302 H296 0.930 . S
C302 C303 1.355 . S
C302 C304 1.415 . S
C303 C302 1.355 . S
C303 C305 1.419 . S
C304 C302 1.415 . S
C304 C309 1.425 . S
C304 C311 1.409 . S
C305 H297 0.930 . S
C305 C303 1.419 . S
C305 C306 1.362 . S
C306 H298 0.930 . S
C306 C305 1.362 . S
C306 C309 1.409 . S
C307 H299 0.930 . S
C307 C308 1.355 . S
C307 C309 1.415 . S
C308 C307 1.355 . S
C308 C310 1.419 . S
C309 C304 1.425 . S
C309 C306 1.409 . S
C309 C307 1.415 . S
C310 H300 0.930 . S
C310 C308 1.419 . S
C310 C311 1.362 . S
C311 H301 0.930 . S
C311 C304 1.409 . S
C311 C310 1.362 . S
H312 C318 0.930 . S
H313 C321 0.930 . S
H314 C322 0.930 . S
H315 C323 0.930 . S
H316 C326 0.930 1_455 S
H317 C327 0.930 1_455 S
C318 H312 0.930 . S
C318 C319 1.355 . S
C318 C320 1.415 . S
C319 C318 1.355 . S
C319 C321 1.419 . S
C320 C318 1.415 . S
C320 C325 1.425 . S
C320 C327 1.409 . S
C321 H313 0.930 . S
C321 C319 1.419 . S
C321 C322 1.362 . S
C322 H314 0.930 . S
C322 C321 1.362 . S
C322 C325 1.409 . S
C323 H315 0.930 . S
C323 C324 1.355 . S
C323 C325 1.415 . S
C324 C323 1.355 . S
C324 C326 1.419 . S
C325 C320 1.425 . S
C325 C322 1.409 . S
C325 C323 1.415 . S
C326 H316 0.930 1_655 S
C326 C324 1.419 . S
C326 C327 1.362 . S
C327 H317 0.930 1_655 S
C327 C320 1.409 . S
C327 C326 1.362 . S
H328 C334 0.930 . S
H329 C337 0.930 1_655 S
H330 C338 0.930 . S
H331 C339 0.930 . S
H332 C342 0.930 . S
H333 C343 0.930 . S
C334 H328 0.930 . S
C334 C335 1.355 . S
C334 C336 1.415 . S
C335 C334 1.355 . S
C335 C337 1.419 . S
C336 C334 1.415 . S
C336 C341 1.425 . S
C336 C343 1.409 . S
C337 H329 0.930 1_455 S
C337 C335 1.419 . S
C337 C338 1.362 . S
C338 H330 0.930 . S
C338 C337 1.362 . S
C338 C341 1.409 . S
C339 H331 0.930 . S
C339 C340 1.355 . S
C339 C341 1.415 . S
C340 C339 1.355 . S
C340 C342 1.419 . S
C341 C336 1.425 . S
C341 C338 1.409 . S
C341 C339 1.415 . S
C342 H332 0.930 . S
C342 C340 1.419 . S
C342 C343 1.362 . S
C343 H333 0.930 . S
C343 C336 1.409 . S
C343 C342 1.362 . S
H344 C350 0.930 . S
H345 C353 0.930 . S
H346 C354 0.930 . S
H347 C355 0.930 . S
H348 C358 0.930 . S
H349 C359 0.930 . S
C350 H344 0.930 . S
C350 C351 1.355 . S
C350 C352 1.415 . S
C351 C350 1.355 . S
C351 C353 1.419 . S
C352 C350 1.415 . S
C352 C357 1.425 . S
C352 C359 1.409 . S
C353 H345 0.930 . S
C353 C351 1.419 . S
C353 C354 1.362 . S
C354 H346 0.930 . S
C354 C353 1.362 . S
C354 C357 1.409 . S
C355 H347 0.930 . S
C355 C356 1.355 . S
C355 C357 1.415 . S
C356 C355 1.355 . S
C356 C358 1.419 . S
C357 C352 1.425 . S
C357 C354 1.409 . S
C357 C355 1.415 . S
C358 H348 0.930 . S
C358 C356 1.419 . S
C358 C359 1.362 . S
C359 H349 0.930 . S
C359 C352 1.409 . S
C359 C358 1.362 . S
H360 C366 0.930 . S
H361 C369 0.930 . S
H362 C370 0.930 . S
H363 C371 0.930 . S
H364 C374 0.930 1_545 S
H365 C375 0.930 . S
C366 H360 0.930 . S
C366 C367 1.355 . S
C366 C368 1.415 . S
C367 C366 1.355 . S
C367 C369 1.419 . S
C368 C366 1.415 . S
C368 C373 1.425 . S
C368 C375 1.409 . S
C369 H361 0.930 . S
C369 C367 1.419 . S
C369 C370 1.362 . S
C370 H362 0.930 . S
C370 C369 1.362 . S
C370 C373 1.409 . S
C371 H363 0.930 . S
C371 C372 1.355 . S
C371 C373 1.415 . S
C372 C371 1.355 . S
C372 C374 1.419 . S
C373 C368 1.425 . S
C373 C370 1.409 . S
C373 C371 1.415 . S
C374 H364 0.930 1_565 S
C374 C372 1.419 . S
C374 C375 1.362 . S
C375 H365 0.930 . S
C375 C368 1.409 . S
C375 C374 1.362 . S
H376 C382 0.930 . S
H377 C385 0.930 . S
H378 C386 0.930 1_455 S
H379 C387 0.930 1_455 S
H380 C390 0.930 . S
H381 C391 0.930 . S
C382 H376 0.930 . S
C382 C383 1.355 . S
C382 C384 1.415 . S
C383 C382 1.355 . S
C383 C385 1.419 . S
C384 C382 1.415 . S
C384 C389 1.425 . S
C384 C391 1.409 . S
C385 H377 0.930 . S
C385 C383 1.419 . S
C385 C386 1.362 . S
C386 H378 0.930 1_655 S
C386 C385 1.362 . S
C386 C389 1.409 . S
C387 H379 0.930 1_655 S
C387 C388 1.355 . S
C387 C389 1.415 . S
C388 C387 1.355 . S
C388 C390 1.419 . S
C389 C384 1.425 . S
C389 C386 1.409 . S
C389 C387 1.415 . S
C390 H380 0.930 . S
C390 C388 1.419 . S
C390 C391 1.362 . S
C391 H381 0.930 . S
C391 C384 1.409 . S
C391 C390 1.362 . S
H392 C398 0.930 . S
H393 C401 0.930 . S
H394 C402 0.930 1_565 S
H395 C403 0.930 . S
H396 C406 0.930 . S
H397 C407 0.930 . S
C398 H392 0.930 . S
C398 C399 1.355 . S
C398 C400 1.415 . S
C399 C398 1.355 . S
C399 C401 1.419 . S
C400 C398 1.415 . S
C400 C405 1.425 . S
C400 C407 1.409 . S
C401 H393 0.930 . S
C401 C399 1.419 . S
C401 C402 1.362 . S
C402 H394 0.930 1_545 S
C402 C401 1.362 . S
C402 C405 1.409 . S
C403 H395 0.930 . S
C403 C404 1.355 . S
C403 C405 1.415 1_565 S
C404 C403 1.355 . S
C404 C406 1.419 1_565 S
C405 C400 1.425 . S
C405 C402 1.409 . S
C405 C403 1.415 1_545 S
C406 H396 0.930 . S
C406 C404 1.419 1_545 S
C406 C407 1.362 . S
C407 H397 0.930 . S
C407 C400 1.409 . S
C407 C406 1.362 . S
H408 C414 0.930 . S
H409 C417 0.930 . S
H410 C418 0.930 . S
H411 C419 0.930 . S
H412 C422 0.930 . S
H413 C423 0.930 . S
C414 H408 0.930 . S
C414 C415 1.355 1_565 S
C414 C416 1.415 . S
C415 C414 1.355 1_545 S
C415 C417 1.419 . S
C416 C414 1.415 . S
C416 C421 1.425 . S
C416 C423 1.409 . S
C417 H409 0.930 . S
C417 C415 1.419 . S
C417 C418 1.362 1_545 S
C418 H410 0.930 . S
C418 C417 1.362 1_565 S
C418 C421 1.409 . S
C419 H411 0.930 . S
C419 C420 1.355 . S
C419 C421 1.415 . S
C420 C419 1.355 . S
C420 C422 1.419 . S
C421 C416 1.425 . S
C421 C418 1.409 . S
C421 C419 1.415 . S
C422 H412 0.930 . S
C422 C420 1.419 . S
C422 C423 1.362 . S
C423 H413 0.930 . S
C423 C416 1.409 . S
C423 C422 1.362 . S
H424 C430 0.930 . S
H425 C433 0.930 . S
H426 C434 0.930 . S
H427 C435 0.930 . S
H428 C438 0.930 . S
H429 C439 0.930 . S
C430 H424 0.930 . S
C430 C431 1.355 . S
C430 C432 1.415 . S
C431 C430 1.355 . S
C431 C433 1.419 . S
C432 C430 1.415 . S
C432 C437 1.425 . S
C432 C439 1.409 . S
C433 H425 0.930 . S
C433 C431 1.419 . S
C433 C434 1.362 . S
C434 H426 0.930 . S
C434 C433 1.362 . S
C434 C437 1.409 . S
C435 H427 0.930 . S
C435 C436 1.355 . S
C435 C437 1.415 . S
C436 C435 1.355 . S
C436 C438 1.419 . S
C437 C432 1.425 . S
C437 C434 1.409 . S
C437 C435 1.415 . S
C438 H428 0.930 . S
C438 C436 1.419 . S
C438 C439 1.362 . S
C439 H429 0.930 . S
C439 C432 1.409 . S
C439 C438 1.362 . S
H440 C446 0.930 . S
H441 C449 0.930 . S
H442 C450 0.930 . S
H443 C451 0.930 . S
H444 C454 0.930 . S
H445 C455 0.930 . S
C446 H440 0.930 . S
C446 C447 1.355 . S
C446 C448 1.415 . S
C447 C446 1.355 . S
C447 C449 1.419 . S
C448 C446 1.415 . S
C448 C453 1.425 . S
C448 C455 1.409 . S
C449 H441 0.930 . S
C449 C447 1.419 . S
C449 C450 1.362 . S
C450 H442 0.930 . S
C450 C449 1.362 . S
C450 C453 1.409 . S
C451 H443 0.930 . S
C451 C452 1.355 . S
C451 C453 1.415 . S
C452 C451 1.355 . S
C452 C454 1.419 . S
C453 C448 1.425 . S
C453 C450 1.409 . S
C453 C451 1.415 . S
C454 H444 0.930 . S
C454 C452 1.419 . S
C454 C455 1.362 . S
C455 H445 0.930 . S
C455 C448 1.409 . S
C455 C454 1.362 . S
H456 C462 0.930 . S
H457 C465 0.930 . S
H458 C466 0.930 . S
H459 C467 0.930 . S
H460 C470 0.930 . S
H461 C471 0.930 . S
C462 H456 0.930 . S
C462 C463 1.355 . S
C462 C464 1.415 . S
C463 C462 1.355 . S
C463 C465 1.419 . S
C464 C462 1.415 . S
C464 C469 1.425 . S
C464 C471 1.409 . S
C465 H457 0.930 . S
C465 C463 1.419 . S
C465 C466 1.362 . S
C466 H458 0.930 . S
C466 C465 1.362 . S
C466 C469 1.409 . S
C467 H459 0.930 . S
C467 C468 1.355 . S
C467 C469 1.415 . S
C468 C467 1.355 . S
C468 C470 1.419 . S
C469 C464 1.425 . S
C469 C466 1.409 . S
C469 C467 1.415 . S
C470 H460 0.930 . S
C470 C468 1.419 . S
C470 C471 1.362 . S
C471 H461 0.930 . S
C471 C464 1.409 . S
C471 C470 1.362 . S
H472 C478 0.930 . S
H473 C481 0.930 . S
H474 C482 0.930 . S
H475 C483 0.930 . S
H476 C486 0.930 . S
H477 C487 0.930 . S
C478 H472 0.930 . S
C478 C479 1.355 . S
C478 C480 1.415 . S
C479 C478 1.355 . S
C479 C481 1.419 . S
C480 C478 1.415 . S
C480 C485 1.425 . S
C480 C487 1.409 . S
C481 H473 0.930 . S
C481 C479 1.419 . S
C481 C482 1.362 . S
C482 H474 0.930 . S
C482 C481 1.362 . S
C482 C485 1.409 . S
C483 H475 0.930 . S
C483 C484 1.355 . S
C483 C485 1.415 . S
C484 C483 1.355 . S
C484 C486 1.419 . S
C485 C480 1.425 . S
C485 C482 1.409 . S
C485 C483 1.415 . S
C486 H476 0.930 . S
C486 C484 1.419 . S
C486 C487 1.362 . S
C487 H477 0.930 . S
C487 C480 1.409 . S
C487 C486 1.362 . S
H488 C494 0.930 . S
H489 C497 0.930 . S
H490 C498 0.930 . S
H491 C499 0.930 . S
H492 C502 0.930 . S
H493 C503 0.930 . S
C494 H488 0.930 . S
C494 C495 1.355 . S
C494 C496 1.415 . S
C495 C494 1.355 . S
C495 C497 1.419 . S
C496 C494 1.415 . S
C496 C501 1.425 . S
C496 C503 1.409 . S
C497 H489 0.930 . S
C497 C495 1.419 . S
C497 C498 1.362 . S
C498 H490 0.930 . S
C498 C497 1.362 . S
C498 C501 1.409 . S
C499 H491 0.930 . S
C499 C500 1.355 . S
C499 C501 1.415 . S
C500 C499 1.355 . S
C500 C502 1.419 . S
C501 C496 1.425 . S
C501 C498 1.409 . S
C501 C499 1.415 . S
C502 H492 0.930 . S
C502 C500 1.419 . S
C502 C503 1.362 . S
C503 H493 0.930 . S
C503 C496 1.409 . S
C503 C502 1.362 . S
H504 C510 0.930 . S
H505 C513 0.930 1_565 S
H506 C514 0.930 1_565 S
H507 C515 0.930 . S
H508 C518 0.930 . S
H509 C519 0.930 . S
C510 H504 0.930 . S
C510 C511 1.355 . S
C510 C512 1.415 . S
C511 C510 1.355 . S
C511 C513 1.419 . S
C512 C510 1.415 . S
C512 C517 1.425 . S
C512 C519 1.409 . S
C513 H505 0.930 1_545 S
C513 C511 1.419 . S
C513 C514 1.362 . S
C514 H506 0.930 1_545 S
C514 C513 1.362 . S
C514 C517 1.409 . S
C515 H507 0.930 . S
C515 C516 1.355 . S
C515 C517 1.415 . S
C516 C515 1.355 . S
C516 C518 1.419 . S
C517 C512 1.425 . S
C517 C514 1.409 . S
C517 C515 1.415 . S
C518 H508 0.930 . S
C518 C516 1.419 . S
C518 C519 1.362 . S
C519 H509 0.930 . S
C519 C512 1.409 . S
C519 C518 1.362 . S
H520 C526 0.931 1_556 S
H521 C529 0.930 . S
H522 C530 0.930 . S
H523 C531 0.930 . S
H524 C534 0.916 1_556 S
H525 C535 0.930 . S
C526 H520 0.931 1_554 S
C526 C527 1.354 1_455 S
C526 C528 1.414 . S
C527 C526 1.354 1_655 S
C527 C529 1.419 . S
C528 C526 1.414 . S
C528 C533 1.425 1_455 S
C528 C535 1.409 1_554 S
C529 H521 0.930 . S
C529 C527 1.419 . S
C529 C530 1.362 . S
C530 H522 0.930 . S
C530 C529 1.362 . S
C530 C533 1.409 . S
C531 H523 0.930 . S
C531 C532 1.355 1_655 S
C531 C533 1.415 . S
C532 C531 1.355 1_455 S
C532 C534 1.457 . S
C533 C528 1.425 1_655 S
C533 C530 1.409 . S
C533 C531 1.415 . S
C534 H524 0.916 1_554 S
C534 C532 1.457 . S
C534 C535 1.342 1_554 S
C535 H525 0.930 . S
C535 C528 1.409 1_556 S
C535 C534 1.342 1_556 S
H536 C542 0.930 . S
H537 C545 0.930 . S
H538 C546 0.930 . S
H539 C547 0.930 . S
H540 C550 0.930 . S
H541 C551 0.930 . S
C542 H536 0.930 . S
C542 C543 1.355 . S
C542 C544 1.415 . S
C543 C542 1.355 . S
C543 C545 1.419 . S
C544 C542 1.415 . S
C544 C549 1.425 . S
C544 C551 1.409 . S
C545 H537 0.930 . S
C545 C543 1.419 . S
C545 C546 1.362 . S
C546 H538 0.930 . S
C546 C545 1.362 . S
C546 C549 1.409 . S
C547 H539 0.930 . S
C547 C548 1.355 . S
C547 C549 1.415 . S
C548 C547 1.355 . S
C548 C550 1.419 . S
C549 C544 1.425 . S
C549 C546 1.409 . S
C549 C547 1.415 . S
C550 H540 0.930 . S
C550 C548 1.419 . S
C550 C551 1.362 . S
C551 H541 0.930 . S
C551 C544 1.409 . S
C551 C550 1.362 . S
H552 C558 0.930 . S
H553 C561 0.930 . S
H554 C562 0.930 . S
H555 C563 0.930 . S
H556 C566 0.930 . S
H557 C567 0.930 . S
C558 H552 0.930 . S
C558 C559 1.355 . S
C558 C560 1.415 . S
C559 C558 1.355 . S
C559 C561 1.419 . S
C560 C558 1.415 . S
C560 C565 1.425 . S
C560 C567 1.409 . S
C561 H553 0.930 . S
C561 C559 1.419 . S
C561 C562 1.362 . S
C562 H554 0.930 . S
C562 C561 1.362 . S
C562 C565 1.409 . S
C563 H555 0.930 . S
C563 C564 1.355 . S
C563 C565 1.415 . S
C564 C563 1.355 . S
C564 C566 1.419 . S
C565 C560 1.425 . S
C565 C562 1.409 . S
C565 C563 1.415 . S
C566 H556 0.930 . S
C566 C564 1.419 . S
C566 C567 1.362 . S
C567 H557 0.930 . S
C567 C560 1.409 . S
C567 C566 1.362 . S
H568 C574 0.930 . S
H569 C577 0.930 . S
H570 C578 0.930 . S
H571 C579 0.930 . S
H572 C582 0.930 . S
H573 C583 0.930 . S
C574 H568 0.930 . S
C574 C575 1.355 1_455 S
C574 C576 1.415 . S
C575 C574 1.355 1_655 S
C575 C577 1.419 . S
C576 C574 1.415 . S
C576 C581 1.425 1_465 S
C576 C583 1.409 1_565 S
C577 H569 0.930 . S
C577 C575 1.419 . S
C577 C578 1.362 . S
C578 H570 0.930 . S
C578 C577 1.362 . S
C578 C581 1.409 1_565 S
C579 H571 0.930 . S
C579 C580 1.355 1_655 S
C579 C581 1.415 . S
C580 C579 1.355 1_455 S
C580 C582 1.419 . S
C581 C576 1.425 1_645 S
C581 C578 1.409 1_545 S
C581 C579 1.415 . S
C582 H572 0.930 . S
C582 C580 1.419 . S
C582 C583 1.362 . S
C583 H573 0.930 . S
C583 C576 1.409 1_545 S
C583 C582 1.362 . S
H584 C590 0.930 . S
H585 C593 0.930 . S
H586 C594 0.930 . S
H587 C595 0.930 . S
H588 C598 0.930 . S
H589 C599 0.930 . S
C590 H584 0.930 . S
C590 C591 1.355 . S
C590 C592 1.415 . S
C591 C590 1.355 . S
C591 C593 1.419 . S
C592 C590 1.415 . S
C592 C597 1.425 . S
C592 C599 1.409 . S
C593 H585 0.930 . S
C593 C591 1.419 . S
C593 C594 1.362 . S
C594 H586 0.930 . S
C594 C593 1.362 . S
C594 C597 1.409 . S
C595 H587 0.930 . S
C595 C596 1.355 . S
C595 C597 1.415 . S
C596 C595 1.355 . S
C596 C598 1.419 . S
C597 C592 1.425 . S
C597 C594 1.409 . S
C597 C595 1.415 . S
C598 H588 0.930 . S
C598 C596 1.419 . S
C598 C599 1.362 . S
C599 H589 0.930 . S
C599 C592 1.409 . S
C599 C598 1.362 . S
H600 C606 0.930 . S
H601 C609 0.930 . S
H602 C610 0.930 . S
H603 C611 0.930 . S
H604 C614 0.930 . S
H605 C615 0.930 . S
C606 H600 0.930 . S
C606 C607 1.355 . S
C606 C608 1.415 . S
C607 C606 1.355 . S
C607 C609 1.419 . S
C608 C606 1.415 . S
C608 C613 1.425 . S
C608 C615 1.409 . S
C609 H601 0.930 . S
C609 C607 1.419 . S
C609 C610 1.362 . S
C610 H602 0.930 . S
C610 C609 1.362 . S
C610 C613 1.409 . S
C611 H603 0.930 . S
C611 C612 1.355 . S
C611 C613 1.415 . S
C612 C611 1.355 . S
C612 C614 1.419 . S
C613 C608 1.425 . S
C613 C610 1.409 . S
C613 C611 1.415 . S
C614 H604 0.930 . S
C614 C612 1.419 . S
C614 C615 1.362 . S
C615 H605 0.930 . S
C615 C608 1.409 . S
C615 C614 1.362 . S
H616 C622 0.930 . S
H617 C625 0.930 . S
H618 C626 0.930 . S
H619 C627 0.930 . S
H620 C630 0.930 . S
H621 C631 0.930 . S
C622 H616 0.930 . S
C622 C623 1.355 . S
C622 C624 1.415 . S
C623 C622 1.355 . S
C623 C625 1.419 . S
C624 C622 1.415 . S
C624 C629 1.425 . S
C624 C631 1.409 . S
C625 H617 0.930 . S
C625 C623 1.419 . S
C625 C626 1.362 . S
C626 H618 0.930 . S
C626 C625 1.362 . S
C626 C629 1.409 . S
C627 H619 0.930 . S
C627 C628 1.355 . S
C627 C629 1.415 . S
C628 C627 1.355 . S
C628 C630 1.419 . S
C629 C624 1.425 . S
C629 C626 1.409 . S
C629 C627 1.415 . S
C630 H620 0.930 . S
C630 C628 1.419 . S
C630 C631 1.362 . S
C631 H621 0.930 . S
C631 C624 1.409 . S
C631 C630 1.362 . S
H632 C638 0.930 1_556 S
H633 C641 0.930 . S
H634 C642 0.930 . S
H635 C643 0.930 . S
H636 C646 0.930 . S
H637 C647 0.930 . S
C638 H632 0.930 1_554 S
C638 C639 1.355 . S
C638 C640 1.415 . S
C639 C638 1.355 . S
C639 C641 1.419 . S
C640 C638 1.415 . S
C640 C645 1.425 1_565 S
C640 C647 1.409 1_564 S
C641 H633 0.930 . S
C641 C639 1.419 . S
C641 C642 1.362 . S
C642 H634 0.930 . S
C642 C641 1.362 . S
C642 C645 1.409 1_565 S
C643 H635 0.930 . S
C643 C644 1.355 . S
C643 C645 1.415 . S
C644 C643 1.355 . S
C644 C646 1.419 1_554 S
C645 C640 1.425 1_545 S
C645 C642 1.409 1_545 S
C645 C643 1.415 . S
C646 H636 0.930 . S
C646 C644 1.419 1_556 S
C646 C647 1.362 . S
C647 H637 0.930 . S
C647 C640 1.409 1_546 S
C647 C646 1.362 . S
H648 C654 0.930 . S
H649 C657 0.930 . S
H650 C658 0.930 . S
H651 C659 0.930 . S
H652 C662 0.946 . S
H653 C663 0.930 . S
C654 H648 0.930 . S
C654 C655 1.355 . S
C654 C656 1.415 . S
C655 C654 1.355 . S
C655 C657 1.419 . S
C656 C654 1.415 . S
C656 C661 1.425 . S
C656 C663 1.409 . S
C657 H649 0.930 . S
C657 C655 1.419 . S
C657 C658 1.362 . S
C658 H650 0.930 . S
C658 C657 1.362 . S
C658 C661 1.409 . S
C659 H651 0.930 . S
C659 C660 1.355 . S
C659 C661 1.415 . S
C660 C659 1.355 . S
C660 C662 1.419 . S
C661 C656 1.425 . S
C661 C658 1.409 . S
C661 C659 1.415 . S
C662 H652 0.946 . S
C662 C660 1.419 . S
C662 C663 1.362 . S
C663 H653 0.930 . S
C663 C656 1.409 . S
C663 C662 1.362 . S
H664 C670 0.930 . S
H665 C673 0.930 . S
H666 C674 0.930 . S
H667 C675 0.930 . S
H668 C678 0.930 . S
H669 C679 0.921 1_556 S
C670 H664 0.930 . S
C670 C671 1.355 . S
C670 C672 1.415 . S
C671 C670 1.355 . S
C671 C673 1.419 . S
C672 C670 1.415 . S
C672 C677 1.425 . S
C672 C679 1.419 . S
C673 H665 0.930 . S
C673 C671 1.419 . S
C673 C674 1.362 . S
C674 H666 0.930 . S
C674 C673 1.362 . S
C674 C677 1.409 . S
C675 H667 0.930 . S
C675 C676 1.355 . S
C675 C677 1.415 . S
C676 C675 1.355 . S
C676 C678 1.419 1_554 S
C677 C672 1.425 . S
C677 C674 1.409 . S
C677 C675 1.415 . S
C678 H668 0.930 . S
C678 C676 1.419 1_556 S
C678 C679 1.362 1_556 S
C679 H669 0.921 1_554 S
C679 C672 1.419 . S
C679 C678 1.362 1_554 S
H680 C686 0.930 . S
H681 C689 0.930 . S
H682 C690 0.930 . S
H683 C691 0.930 . S
H684 C694 0.930 . S
H685 C695 0.930 . S
C686 H680 0.930 . S
C686 C687 1.355 . S
C686 C688 1.415 . S
C687 C686 1.355 . S
C687 C689 1.419 . S
C688 C686 1.415 . S
C688 C693 1.425 . S
C688 C695 1.409 1_455 S
C689 H681 0.930 . S
C689 C687 1.419 . S
C689 C690 1.362 . S
C690 H682 0.930 . S
C690 C689 1.362 . S
C690 C693 1.409 . S
C691 H683 0.930 . S
C691 C692 1.355 . S
C691 C693 1.415 1_655 S
C692 C691 1.355 . S
C692 C694 1.419 . S
C693 C688 1.425 . S
C693 C690 1.409 . S
C693 C691 1.415 1_455 S
C694 H684 0.930 . S
C694 C692 1.419 . S
C694 C695 1.362 . S
C695 H685 0.930 . S
C695 C688 1.409 1_655 S
C695 C694 1.362 . S
H696 C702 0.930 . S
H697 C705 0.930 . S
H698 C706 0.930 . S
H699 C707 0.930 . S
H700 C710 0.930 . S
H701 C711 0.930 . S
C702 H696 0.930 . S
C702 C703 1.355 . S
C702 C704 1.415 . S
C703 C702 1.355 . S
C703 C705 1.419 . S
C704 C702 1.415 . S
C704 C709 1.425 . S
C704 C711 1.409 . S
C705 H697 0.930 . S
C705 C703 1.419 . S
C705 C706 1.362 . S
C706 H698 0.930 . S
C706 C705 1.362 . S
C706 C709 1.409 . S
C707 H699 0.930 . S
C707 C708 1.355 . S
C707 C709 1.415 . S
C708 C707 1.355 . S
C708 C710 1.419 . S
C709 C704 1.425 . S
C709 C706 1.409 . S
C709 C707 1.415 . S
C710 H700 0.930 . S
C710 C708 1.419 . S
C710 C711 1.362 . S
C711 H701 0.930 . S
C711 C704 1.409 . S
C711 C710 1.362 . S
H712 C718 0.930 . S
H713 C721 0.930 . S
H714 C722 0.930 . S
H715 C723 0.930 . S
H716 C726 0.930 . S
H717 C727 0.930 . S
C718 H712 0.930 . S
C718 C719 1.355 . S
C718 C720 1.415 . S
C719 C718 1.355 . S
C719 C721 1.419 . S
C720 C718 1.415 . S
C720 C725 1.425 . S
C720 C727 1.409 . S
C721 H713 0.930 . S
C721 C719 1.419 . S
C721 C722 1.362 . S
C722 H714 0.930 . S
C722 C721 1.362 . S
C722 C725 1.409 . S
C723 H715 0.930 . S
C723 C724 1.355 . S
C723 C725 1.415 . S
C724 C723 1.355 . S
C724 C726 1.419 . S
C725 C720 1.425 . S
C725 C722 1.409 . S
C725 C723 1.415 . S
C726 H716 0.930 . S
C726 C724 1.419 . S
C726 C727 1.362 . S
C727 H717 0.930 . S
C727 C720 1.409 . S
C727 C726 1.362 . S
H728 C734 0.930 . S
H729 C737 0.930 . S
H730 C738 0.930 . S
H731 C739 0.930 . S
H732 C742 0.930 . S
H733 C743 0.930 1_655 S
C734 H728 0.930 . S
C734 C735 1.355 1_565 S
C734 C736 1.415 . S
C735 C734 1.355 1_545 S
C735 C737 1.419 . S
C736 C734 1.415 . S
C736 C741 1.425 1_665 S
C736 C743 1.409 1_655 S
C737 H729 0.930 . S
C737 C735 1.419 . S
C737 C738 1.362 1_655 S
C738 H730 0.930 . S
C738 C737 1.362 1_455 S
C738 C741 1.409 . S
C739 H731 0.930 . S
C739 C740 1.355 1_545 S
C739 C741 1.415 . S
C740 C739 1.355 1_565 S
C740 C742 1.419 . S
C741 C736 1.425 1_445 S
C741 C738 1.409 . S
C741 C739 1.415 . S
C742 H732 0.930 . S
C742 C740 1.419 . S
C742 C743 1.362 . S
C743 H733 0.930 1_455 S
C743 C736 1.409 1_455 S
C743 C742 1.362 . S
H744 C750 0.930 . S
H745 C753 0.930 . S
H746 C754 0.930 . S
H747 C755 0.930 . S
H748 C758 0.930 . S
H749 C759 0.930 . S
C750 H744 0.930 . S
C750 C751 1.355 . S
C750 C752 1.415 . S
C751 C750 1.355 . S
C751 C753 1.419 . S
C752 C750 1.415 . S
C752 C757 1.425 . S
C752 C759 1.409 . S
C753 H745 0.930 . S
C753 C751 1.419 . S
C753 C754 1.362 . S
C754 H746 0.930 . S
C754 C753 1.362 . S
C754 C757 1.409 . S
C755 H747 0.930 . S
C755 C756 1.355 . S
C755 C757 1.415 . S
C756 C755 1.355 . S
C756 C758 1.419 . S
C757 C752 1.425 . S
C757 C754 1.409 . S
C757 C755 1.415 . S
C758 H748 0.930 . S
C758 C756 1.419 . S
C758 C759 1.362 . S
C759 H749 0.930 . S
C759 C752 1.409 . S
C759 C758 1.362 . S
H760 C766 0.930 . S
H761 C769 0.930 . S
H762 C770 0.930 . S
H763 C771 0.930 . S
H764 C774 0.930 . S
H765 C775 0.930 . S
C766 H760 0.930 . S
C766 C767 1.355 . S
C766 C768 1.415 . S
C767 C766 1.355 . S
C767 C769 1.419 . S
C768 C766 1.415 . S
C768 C773 1.425 1_565 S
C768 C775 1.409 1_565 S
C769 H761 0.930 . S
C769 C767 1.419 . S
C769 C770 1.362 . S
C770 H762 0.930 . S
C770 C769 1.362 . S
C770 C773 1.409 1_565 S
C771 H763 0.930 . S
C771 C772 1.355 . S
C771 C773 1.415 . S
C772 C771 1.355 . S
C772 C774 1.419 . S
C773 C768 1.425 1_545 S
C773 C770 1.409 1_545 S
C773 C771 1.415 . S
C774 H764 0.930 . S
C774 C772 1.419 . S
C774 C775 1.362 . S
C775 H765 0.930 . S
C775 C768 1.409 1_545 S
C775 C774 1.362 . S
C271 C28 1.660 . S
C276 C58 1.693 . S
C287 C25 1.970 . S
C292 C94 2.000 . S
C303 C120 1.689 . S
C308 C57 1.651 . S
C319 C87 1.968 . S
C324 C123 1.998 . S
C335 C127 1.672 . S
C340 C157 1.701 . S
C351 C193 1.965 . S
C356 C124 1.940 . S
C367 C156 1.653 . S
C372 C21 1.690 . S
C383 C186 1.990 . S
C388 C24 1.995 . S
C399 C190 1.694 . S
C404 C226 1.659 . S
C415 C223 1.961 . S
C420 C160 1.969 . S
C431 C252 1.677 . S
C436 C189 1.627 . S
C447 C255 1.957 . S
C452 C153 1.939 . S
C463 C259 1.630 . S
C468 C91 1.679 . S
C479 C61 1.981 . S
C484 C256 1.975 . S
C495 C219 1.704 . S
C500 C90 1.680 . S
C511 C222 2.009 . S
C516 C54 2.002 . S
C527 C27 1.176 1_655 S
C532 C23 1.176 1_455 S
C543 C60 1.202 . S
C548 C56 1.202 1_565 S
C559 C93 1.113 1_545 S
C564 C89 1.114 . S
C575 C122 1.087 . S
C580 C126 1.087 . S
C591 C159 1.190 1_545 S
C596 C155 1.190 . S
C607 C192 1.137 . S
C612 C188 1.137 1_565 S
C623 C225 1.104 . S
C628 C221 1.104 . S
C639 C254 1.199 . S
C644 C258 1.199 . S
C655 C257 0.955 . S
C660 C22 0.955 1_554 S
C671 C26 0.944 . S
C676 C253 0.944 1_554 S
C687 C59 0.928 . S
C692 C88 0.928 . S
C703 C224 0.976 . S
C708 C121 0.976 . S
C719 C125 0.921 . S
C724 C220 0.921 . S
C735 C187 0.898 . S
C740 C158 0.898 . S
C751 C191 0.983 . S
C756 C154 0.983 . S
C767 C92 0.981 . S
C772 C55 0.981 . S
