# Generated by pormake.
# Topology ukt, (4)-cn, num edge types: 1
# Building blocks:
#     Node 0, Type 0, BuildingBlock: GALJAG_clean_sbu_0, # of connection points: 4
#     Node 1, Type 0, BuildingBlock: GALJAG_clean_sbu_0, # of connection points: 4
#     Node 2, Type 0, BuildingBlock: GALJAG_clean_sbu_0, # of connection points: 4
#     Node 3, Type 0, BuildingBlock: GALJAG_clean_sbu_0, # of connection points: 4
#     Node 4, Type 0, BuildingBlock: GALJAG_clean_sbu_0, # of connection points: 4
#     Node 5, Type 0, BuildingBlock: GALJAG_clean_sbu_0, # of connection points: 4
#     Node 6, Type 0, BuildingBlock: GALJAG_clean_sbu_0, # of connection points: 4
#     Node 7, Type 0, BuildingBlock: GALJAG_clean_sbu_0, # of connection points: 4
#     Node 8, Type 0, BuildingBlock: GALJAG_clean_sbu_0, # of connection points: 4
#     Node 9, Type 0, BuildingBlock: GALJAG_clean_sbu_0, # of connection points: 4
#     Node 10, Type 0, BuildingBlock: GALJAG_clean_sbu_0, # of connection points: 4
#     Node 11, Type 0, BuildingBlock: GALJAG_clean_sbu_0, # of connection points: 4
#     Node 12, Type 0, BuildingBlock: GALJAG_clean_sbu_0, # of connection points: 4
#     Node 13, Type 0, BuildingBlock: GALJAG_clean_sbu_0, # of connection points: 4
#     Node 14, Type 0, BuildingBlock: GALJAG_clean_sbu_0, # of connection points: 4
#     Node 15, Type 0, BuildingBlock: GALJAG_clean_sbu_0, # of connection points: 4
#     Edge 16, Type (0, 0), BuildingBlock: OJICUG_clean_linker_0, # of connection points: 2
#     Edge 17, Type (0, 0), BuildingBlock: OJICUG_clean_linker_0, # of connection points: 2
#     Edge 18, Type (0, 0), BuildingBlock: OJICUG_clean_linker_0, # of connection points: 2
#     Edge 19, Type (0, 0), BuildingBlock: OJICUG_clean_linker_0, # of connection points: 2
#     Edge 20, Type (0, 0), BuildingBlock: OJICUG_clean_linker_0, # of connection points: 2
#     Edge 21, Type (0, 0), BuildingBlock: OJICUG_clean_linker_0, # of connection points: 2
#     Edge 22, Type (0, 0), BuildingBlock: OJICUG_clean_linker_0, # of connection points: 2
#     Edge 23, Type (0, 0), BuildingBlock: OJICUG_clean_linker_0, # of connection points: 2
#     Edge 24, Type (0, 0), BuildingBlock: OJICUG_clean_linker_0, # of connection points: 2
#     Edge 25, Type (0, 0), BuildingBlock: OJICUG_clean_linker_0, # of connection points: 2
#     Edge 26, Type (0, 0), BuildingBlock: OJICUG_clean_linker_0, # of connection points: 2
#     Edge 27, Type (0, 0), BuildingBlock: OJICUG_clean_linker_0, # of connection points: 2
#     Edge 28, Type (0, 0), BuildingBlock: OJICUG_clean_linker_0, # of connection points: 2
#     Edge 29, Type (0, 0), BuildingBlock: OJICUG_clean_linker_0, # of connection points: 2
#     Edge 30, Type (0, 0), BuildingBlock: OJICUG_clean_linker_0, # of connection points: 2
#     Edge 31, Type (0, 0), BuildingBlock: OJICUG_clean_linker_0, # of connection points: 2
#     Edge 32, Type (0, 0), BuildingBlock: OJICUG_clean_linker_0, # of connection points: 2
#     Edge 33, Type (0, 0), BuildingBlock: OJICUG_clean_linker_0, # of connection points: 2
#     Edge 34, Type (0, 0), BuildingBlock: OJICUG_clean_linker_0, # of connection points: 2
#     Edge 35, Type (0, 0), BuildingBlock: OJICUG_clean_linker_0, # of connection points: 2
#     Edge 36, Type (0, 0), BuildingBlock: OJICUG_clean_linker_0, # of connection points: 2
#     Edge 37, Type (0, 0), BuildingBlock: OJICUG_clean_linker_0, # of connection points: 2
#     Edge 38, Type (0, 0), BuildingBlock: OJICUG_clean_linker_0, # of connection points: 2
#     Edge 39, Type (0, 0), BuildingBlock: OJICUG_clean_linker_0, # of connection points: 2
#     Edge 40, Type (0, 0), BuildingBlock: OJICUG_clean_linker_0, # of connection points: 2
#     Edge 41, Type (0, 0), BuildingBlock: OJICUG_clean_linker_0, # of connection points: 2
#     Edge 42, Type (0, 0), BuildingBlock: OJICUG_clean_linker_0, # of connection points: 2
#     Edge 43, Type (0, 0), BuildingBlock: OJICUG_clean_linker_0, # of connection points: 2
#     Edge 44, Type (0, 0), BuildingBlock: OJICUG_clean_linker_0, # of connection points: 2
#     Edge 45, Type (0, 0), BuildingBlock: OJICUG_clean_linker_0, # of connection points: 2
#     Edge 46, Type (0, 0), BuildingBlock: OJICUG_clean_linker_0, # of connection points: 2
#     Edge 47, Type (0, 0), BuildingBlock: OJICUG_clean_linker_0, # of connection points: 2
# Relax obj value: 0.210
# Max RMSD: 0.110
# Mean RMSD: 0.110
data_MOF--net-ukt--node1-GALJAG_clean_sbu_0--edge1-OJICUG_clean_linker_0
_symmetry_space_group_name_H-M    P1
_symmetry_Int_Tables_number       1
_symmetry_cell_setting            triclinic
loop_
_symmetry_equiv_pos_as_xyz
'x, y, z'
_cell_length_a     31.489939
_cell_length_b     31.584336
_cell_length_c     25.181755
_cell_angle_alpha  89.600313
_cell_angle_beta   89.948997
_cell_angle_gamma 90.021961
loop_
_atom_site_label
_atom_site_type_symbol
_atom_site_fract_x
_atom_site_fract_y
_atom_site_fract_z
_atom_type_partial_charge
In0 In 0.5552 0.13096 0.10527 0.0
O1 O 0.62616 0.12672 0.1193 0.0
O2 O 0.5917 0.06901 0.11404 0.0
C3 C 0.53316 0.17312 0.19426 0.0
C4 C 0.5067 0.0718 0.05934 0.0
C5 C 0.57142 0.19238 0.0336 0.0
O6 O 0.56139 0.14491 0.19335 0.0
O7 O 0.51317 0.17747 0.15129 0.0
O8 O 0.53448 0.18518 0.05091 0.0
O9 O 0.59977 0.16818 0.0518 0.0
C10 C 0.62741 0.08675 0.11837 0.0
O11 O 0.53012 0.09692 0.03363 0.0
O12 O 0.50515 0.07839 0.10883 0.0
In13 In 0.35541 0.56001 0.12665 0.0
O14 O 0.39748 0.61878 0.12697 0.0
O15 O 0.33118 0.62754 0.11702 0.0
C16 C 0.32816 0.53637 0.22436 0.0
C17 C 0.42589 0.52264 0.08841 0.0
C18 C 0.29082 0.54816 0.05879 0.0
O19 O 0.34085 0.57332 0.21349 0.0
O20 O 0.33158 0.51042 0.18673 0.0
O21 O 0.32303 0.57001 0.047 0.0
O22 O 0.29184 0.53118 0.10428 0.0
C23 C 0.36751 0.64429 0.11794 0.0
O24 O 0.39073 0.52161 0.0648 0.0
O25 O 0.42477 0.53928 0.13376 0.0
In26 In 0.9311 0.32813 0.08269 0.0
O27 O 0.86459 0.334 0.11831 0.0
O28 O 0.8936 0.38932 0.08684 0.0
C29 C 0.96622 0.28025 0.16118 0.0
C30 C 0.97981 0.38813 0.03755 0.0
C31 C 0.89809 0.27743 0.00816 0.0
O32 O 0.95027 0.31616 0.16943 0.0
O33 O 0.96646 0.26953 0.1132 0.0
O34 O 0.93758 0.28421 0.01146 0.0
O35 O 0.8758 0.29595 0.04248 0.0
C36 C 0.861 0.37293 0.10734 0.0
O37 O 0.96266 0.35914 0.01098 0.0
O38 O 0.9759 0.38422 0.08726 0.0
In39 In 0.12455 0.9311 0.01301 0.0
O40 O 0.08667 0.9794 0.96579 0.0
O41 O 0.06406 0.96222 0.04253 0.0
C42 C 0.17791 0.9263 0.92998 0.0
C43 C 0.08148 0.85825 0.02402 0.0
C44 C 0.18254 0.94026 0.09118 0.0
O45 O 0.17359 0.95982 0.95656 0.0
O46 O 0.15371 0.89641 0.94382 0.0
O47 O 0.17825 0.90728 0.06395 0.0
O48 O 0.15645 0.96954 0.08011 0.0
C49 C 0.057 0.9815 0.99935 0.0
O50 O 0.10345 0.87334 0.06126 0.0
O51 O 0.08143 0.87985 0.98177 0.0
In52 In 0.55994 0.36117 0.427 0.0
O53 O 0.61797 0.38803 0.38238 0.0
O54 O 0.60729 0.40612 0.4624 0.0
C55 C 0.54662 0.30678 0.34697 0.0
C56 C 0.50641 0.42299 0.45291 0.0
C57 C 0.56692 0.30117 0.50244 0.0
O58 O 0.58087 0.30938 0.37245 0.0
O59 O 0.51901 0.33428 0.35886 0.0
O60 O 0.53188 0.31032 0.48091 0.0
O61 O 0.59779 0.32387 0.48777 0.0
C62 C 0.63021 0.40947 0.42166 0.0
O63 O 0.51469 0.39219 0.48329 0.0
O64 O 0.52135 0.42015 0.40638 0.0
In65 In 0.15217 0.52909 0.47459 0.0
O66 O 0.1355 0.58685 0.42322 0.0
O67 O 0.09906 0.57492 0.49263 0.0
C68 C 0.21464 0.51979 0.40173 0.0
C69 C 0.08946 0.47301 0.48899 0.0
C70 C 0.1968 0.54305 0.56358 0.0
O71 O 0.21196 0.55033 0.43331 0.0
O72 O 0.18528 0.49257 0.40647 0.0
O73 O 0.1988 0.50833 0.53897 0.0
O74 O 0.17081 0.56939 0.5445 0.0
C75 C 0.10545 0.59839 0.45288 0.0
O76 O 0.11826 0.47865 0.52303 0.0
O77 O 0.09576 0.49138 0.44493 0.0
In78 In 0.92494 0.12076 0.41508 0.0
O79 O 0.95319 0.08566 0.48589 0.0
O80 O 0.96091 0.05866 0.40945 0.0
C81 C 0.90259 0.1761 0.49049 0.0
C82 C 0.84781 0.08877 0.39221 0.0
C83 C 0.96348 0.16338 0.33435 0.0
O84 O 0.94094 0.16605 0.48263 0.0
O85 O 0.87616 0.15806 0.46068 0.0
O86 O 0.96661 0.17415 0.38215 0.0
O87 O 0.94304 0.1296 0.32736 0.0
C88 C 0.96547 0.05451 0.45901 0.0
O89 O 0.85779 0.1267 0.38192 0.0
O90 O 0.87752 0.06674 0.41124 0.0
In91 In 0.33366 0.92381 0.3634 0.0
O92 O 0.3808 0.86907 0.36614 0.0
O93 O 0.3156 0.85524 0.37912 0.0
C94 C 0.30067 0.93827 0.26578 0.0
C95 C 0.40173 0.96838 0.39532 0.0
C96 C 0.2716 0.93279 0.43569 0.0
O97 O 0.31622 0.9032 0.27995 0.0
O98 O 0.30416 0.96725 0.29976 0.0
O99 O 0.30542 0.91282 0.4451 0.0
O100 O 0.26967 0.94963 0.39012 0.0
C101 C 0.35324 0.84165 0.37832 0.0
O102 O 0.36676 0.96875 0.41946 0.0
O103 O 0.40131 0.94888 0.35176 0.0
In104 In 0.41559 0.84891 0.91719 0.0
O105 O 0.3717 0.9017 0.8896 0.0
O106 O 0.34923 0.83859 0.88357 0.0
C107 C 0.45727 0.80676 0.83954 0.0
C108 C 0.45058 0.91602 0.96554 0.0
C109 C 0.39971 0.79373 0.9964 0.0
O110 O 0.43963 0.84205 0.83171 0.0
O111 O 0.45589 0.79403 0.88694 0.0
O112 O 0.43682 0.80653 0.98568 0.0
O113 O 0.3708 0.80889 0.96718 0.0
C114 C 0.34145 0.87753 0.87752 0.0
O115 O 0.42117 0.89434 0.9858 0.0
O116 O 0.46407 0.90275 0.9214 0.0
In117 In 0.64695 0.43232 0.9468 0.0
O118 O 0.59462 0.38276 0.9491 0.0
O119 O 0.65846 0.36143 0.94221 0.0
C120 C 0.68284 0.4487 0.85072 0.0
C121 C 0.58204 0.48006 0.98244 0.0
C122 C 0.7063 0.42822 0.02331 0.0
O123 O 0.65461 0.42113 0.8583 0.0
O124 O 0.69139 0.47044 0.89111 0.0
O125 O 0.67708 0.40126 0.01862 0.0
O126 O 0.70543 0.45798 0.98948 0.0
C127 C 0.61968 0.35169 0.94629 0.0
O128 O 0.61515 0.4733 0.00898 0.0
O129 O 0.58321 0.46613 0.93566 0.0
In130 In 0.06202 0.61948 0.92322 0.0
O131 O 0.12961 0.59628 0.90701 0.0
O132 O 0.1044 0.59117 0.98551 0.0
C133 C 0.06108 0.6604 0.8291 0.0
C134 C 0.0167 0.5492 0.94076 0.0
C135 C 0.04786 0.68774 0.98383 0.0
O136 O 0.09443 0.65498 0.85602 0.0
O137 O 0.02842 0.64231 0.84769 0.0
O138 O 0.02018 0.67358 0.95245 0.0
O139 O 0.08173 0.66665 0.98571 0.0
C140 C 0.13516 0.5845 0.95464 0.0
O141 O 0.01162 0.58273 0.96684 0.0
O142 O 0.04095 0.55267 0.90099 0.0
In143 In 0.81003 0.05106 0.91147 0.0
O144 O 0.85483 0.00932 0.95926 0.0
O145 O 0.87857 0.03758 0.88832 0.0
C146 C 0.76857 0.03867 0.00358 0.0
C147 C 0.82906 0.13413 0.90617 0.0
C148 C 0.75901 0.03065 0.82882 0.0
O149 O 0.76446 0.01357 0.96495 0.0
O150 O 0.79476 0.06829 0.99597 0.0
O151 O 0.7531 0.06186 0.85859 0.0
O152 O 0.79169 0.00913 0.83975 0.0
C153 C 0.88654 0.01657 0.92994 0.0
O154 O 0.85237 0.10622 0.88571 0.0
O155 O 0.79501 0.12026 0.92598 0.0
In156 In 0.42001 0.64831 0.58927 0.0
O157 O 0.4311 0.60644 0.51784 0.0
O158 O 0.46869 0.59478 0.58639 0.0
C159 C 0.39903 0.7015 0.51025 0.0
C160 C 0.34837 0.61294 0.62791 0.0
C161 C 0.45948 0.69352 0.66612 0.0
O162 O 0.43715 0.69143 0.51991 0.0
O163 O 0.37171 0.68495 0.54083 0.0
O164 O 0.4431 0.65776 0.67463 0.0
O165 O 0.4579 0.70548 0.61845 0.0
C166 C 0.45848 0.5835 0.54008 0.0
O167 O 0.35206 0.65237 0.6206 0.0
O168 O 0.38134 0.59197 0.61773 0.0
In169 In 0.83948 0.41462 0.58174 0.0
O170 O 0.88779 0.4407 0.52362 0.0
O171 O 0.90757 0.43289 0.6038 0.0
C172 C 0.78942 0.43961 0.50123 0.0
C173 C 0.85358 0.33076 0.58386 0.0
C174 C 0.79206 0.43213 0.66844 0.0
O175 O 0.79547 0.46248 0.54159 0.0
O176 O 0.8103 0.40555 0.50082 0.0
O177 O 0.78806 0.39932 0.6409 0.0
O178 O 0.82182 0.45652 0.65383 0.0
C179 C 0.91787 0.44185 0.55649 0.0
O180 O 0.87868 0.35663 0.60526 0.0
O181 O 0.82091 0.34715 0.56352 0.0
In182 In 0.05687 0.82863 0.5674 0.0
O183 O 0.00224 0.86031 0.52566 0.0
O184 O 0.02736 0.89089 0.59377 0.0
C185 C 0.05661 0.76342 0.49937 0.0
C186 C 0.1237 0.8765 0.54087 0.0
C187 C 0.05653 0.78385 0.65892 0.0
O188 O 0.02417 0.7735 0.52582 0.0
O189 O 0.08847 0.78675 0.50652 0.0
O190 O 0.09017 0.79645 0.63664 0.0
O191 O 0.02267 0.79642 0.63706 0.0
C192 C 0.00314 0.89313 0.55387 0.0
O193 O 0.12061 0.85981 0.58657 0.0
O194 O 0.09382 0.86816 0.50935 0.0
In195 In 0.62361 0.05058 0.54809 0.0
O196 O 0.5751 0.1037 0.55165 0.0
O197 O 0.63975 0.11926 0.56588 0.0
C198 C 0.65494 0.02292 0.64255 0.0
C199 C 0.55726 0.01104 0.50218 0.0
C200 C 0.68584 0.05397 0.47546 0.0
O201 O 0.62451 0.04854 0.63844 0.0
O202 O 0.66795 0.00868 0.59886 0.0
O203 O 0.66235 0.08519 0.48592 0.0
O204 O 0.67788 0.02063 0.50178 0.0
C205 C 0.60193 0.13211 0.56197 0.0
O206 O 0.58921 0.02357 0.47667 0.0
O207 O 0.5599 0.01557 0.5518 0.0
C208 C 0.55096 0.26044 0.98985 0.0
C209 C 0.58182 0.22945 0.00036 0.0
H210 H 0.53885 0.32384 0.96354 0.0
C211 C 0.62397 0.23661 0.98441 0.0
H212 H 0.51816 0.25557 0.00138 0.0
C213 C 0.63579 0.27557 0.96263 0.0
C214 C 0.60563 0.30797 0.95662 0.0
H215 H 0.64833 0.21304 0.99154 0.0
H216 H 0.66899 0.28116 0.95369 0.0
C217 C 0.5628 0.29949 0.96816 0.0
C218 C 0.214 0.57769 0.95024 0.0
C219 C 0.17535 0.56734 0.9748 0.0
H220 H 0.2817 0.57946 0.95807 0.0
C221 C 0.17548 0.54444 0.02276 0.0
H222 H 0.21457 0.59524 0.91313 0.0
C223 C 0.21363 0.5349 0.048 0.0
C224 C 0.2522 0.54874 0.02604 0.0
H225 H 0.14596 0.53566 0.04208 0.0
H226 H 0.21265 0.51927 0.08642 0.0
C227 C 0.25228 0.56869 0.97596 0.0
C228 C 0.88824 0.18614 0.91349 0.0
C229 C 0.84474 0.17686 0.91832 0.0
H230 H 0.93956 0.22575 0.93864 0.0
C231 C 0.81813 0.20535 0.94494 0.0
H232 H 0.90947 0.16472 0.89308 0.0
C233 C 0.83536 0.24008 0.9711 0.0
C234 C 0.87945 0.24681 0.97106 0.0
H235 H 0.78444 0.19913 0.94893 0.0
H236 H 0.8144 0.26003 0.99415 0.0
C237 C 0.90552 0.2209 0.93983 0.0
C238 C 0.26419 0.86497 0.86471 0.0
C239 C 0.29796 0.89359 0.87012 0.0
H240 H 0.19818 0.85366 0.87819 0.0
C241 C 0.28907 0.93638 0.88032 0.0
H242 H 0.27009 0.83196 0.85591 0.0
C243 C 0.24787 0.94881 0.89344 0.0
C244 C 0.21526 0.91858 0.89617 0.0
H245 H 0.31449 0.95932 0.88383 0.0
H246 H 0.24265 0.98091 0.90685 0.0
C247 C 0.22297 0.87746 0.87746 0.0
C248 C 0.61436 0.24996 0.5488 0.0
C249 C 0.5733 0.26163 0.53261 0.0
H250 H 0.65566 0.19925 0.57148 0.0
C251 C 0.54023 0.23193 0.53644 0.0
H252 H 0.6404 0.27235 0.54667 0.0
C253 C 0.54902 0.19004 0.55045 0.0
C254 C 0.59094 0.17738 0.56094 0.0
H255 H 0.50821 0.24016 0.52456 0.0
H256 H 0.52349 0.16705 0.54935 0.0
C257 C 0.62313 0.20808 0.56289 0.0
C258 C 0.26963 0.61677 0.63347 0.0
C259 C 0.30673 0.5922 0.63373 0.0
H260 H 0.20407 0.6195 0.61212 0.0
C261 C 0.30353 0.5482 0.62664 0.0
H262 H 0.27106 0.65063 0.63985 0.0
C263 C 0.26519 0.53036 0.61036 0.0
C264 C 0.22978 0.55638 0.60137 0.0
H265 H 0.33155 0.52832 0.62769 0.0
H266 H 0.26471 0.49731 0.59916 0.0
C267 C 0.23123 0.59887 0.61756 0.0
C268 C 0.90767 0.27366 0.57528 0.0
C269 C 0.86495 0.28644 0.57387 0.0
H270 H 0.95341 0.22796 0.5495 0.0
C271 C 0.83419 0.25884 0.55358 0.0
H272 H 0.93198 0.29443 0.59083 0.0
C273 C 0.84639 0.22094 0.53019 0.0
C274 C 0.88956 0.21024 0.5264 0.0
H275 H 0.80099 0.26781 0.55254 0.0
H276 H 0.82219 0.20149 0.51192 0.0
C277 C 0.91995 0.23575 0.55146 0.0
C278 C 0.15777 0.92595 0.4771 0.0
C279 C 0.16105 0.90026 0.52262 0.0
H280 H 0.19081 0.95772 0.41434 0.0
C281 C 0.20102 0.89287 0.5453 0.0
H282 H 0.1271 0.93261 0.45941 0.0
C283 C 0.23759 0.90702 0.51924 0.0
C284 C 0.23438 0.92901 0.47065 0.0
H285 H 0.20422 0.87332 0.58059 0.0
H286 H 0.2683 0.89808 0.53511 0.0
C287 C 0.1942 0.9405 0.45146 0.0
C288 C 0.42472 0.739 0.06132 0.0
C289 C 0.3911 0.76058 0.0365 0.0
H290 H 0.44348 0.68518 0.10779 0.0
C291 C 0.34919 0.74755 0.04658 0.0
H292 H 0.45733 0.7486 0.05462 0.0
C293 C 0.34124 0.7115 0.07738 0.0
C294 C 0.37508 0.68774 0.09834 0.0
H295 H 0.32261 0.76392 0.02847 0.0
H296 H 0.30875 0.70073 0.08176 0.0
C297 C 0.41678 0.7028 0.09196 0.0
C298 C 0.77817 0.44742 0.0568 0.0
C299 C 0.7423 0.42117 0.05953 0.0
H300 H 0.84467 0.45298 0.07202 0.0
C301 C 0.74383 0.3841 0.09068 0.0
H302 H 0.77764 0.47652 0.03377 0.0
C303 C 0.7822 0.37057 0.1126 0.0
C304 C 0.81941 0.394 0.10359 0.0
H305 H 0.71635 0.36363 0.09425 0.0
H306 H 0.78341 0.33988 0.132 0.0
C307 C 0.81652 0.43397 0.07891 0.0
C308 C 0.02245 0.76188 0.98008 0.0
C309 C 0.04556 0.73026 0.00666 0.0
H310 H 0.01623 0.82833 0.96485 0.0
C311 C 0.07365 0.74158 0.04745 0.0
H312 H 0.00063 0.75391 0.94843 0.0
C313 C 0.08203 0.78415 0.05744 0.0
C314 C 0.06307 0.81563 0.02589 0.0
H315 H 0.09164 0.7176 0.06861 0.0
H316 H 0.10634 0.79213 0.0861 0.0
C317 C 0.03155 0.80441 0.98922 0.0
C318 C 0.70605 0.08544 0.11422 0.0
C319 C 0.66732 0.06424 0.10747 0.0
H320 H 0.76987 0.09265 0.08711 0.0
C321 C 0.66637 0.02674 0.07772 0.0
H322 H 0.70773 0.11406 0.13759 0.0
C323 C 0.70184 0.01476 0.04804 0.0
C324 C 0.73857 0.03995 0.04847 0.0
H325 H 0.63693 0.00956 0.07224 0.0
H326 H 0.69888 -0.01139 0.02067 0.0
C327 C 0.74159 0.07317 0.08513 0.0
C328 C 0.34442 0.74137 0.45864 0.0
C329 C 0.38734 0.73243 0.4687 0.0
H330 H 0.29986 0.78259 0.42058 0.0
C331 C 0.41883 0.75548 0.44155 0.0
H332 H 0.31946 0.72371 0.4785 0.0
C333 C 0.40761 0.78921 0.40823 0.0
C334 C 0.36473 0.80023 0.40145 0.0
H335 H 0.45218 0.74895 0.44819 0.0
H336 H 0.43258 0.80815 0.39039 0.0
C337 C 0.3332 0.7749 0.42515 0.0
C338 C 0.74778 0.41843 0.4219 0.0
C339 C 0.75302 0.44567 0.46536 0.0
H340 H 0.70329 0.38614 0.37221 0.0
C341 C 0.71851 0.47019 0.48232 0.0
H342 H 0.7741 0.39956 0.40763 0.0
C343 C 0.67801 0.46207 0.46253 0.0
C344 C 0.67189 0.43004 0.42491 0.0
H345 H 0.72171 0.49174 0.51537 0.0
H346 H 0.65103 0.47766 0.48063 0.0
C347 C 0.70729 0.41082 0.40146 0.0
C348 C 0.1077 0.67418 0.42671 0.0
C349 C 0.08505 0.63997 0.44844 0.0
H350 H 0.11593 0.74143 0.42607 0.0
C351 C 0.047 0.64748 0.47587 0.0
H352 H 0.13709 0.6691 0.40527 0.0
C353 C 0.03451 0.68881 0.48701 0.0
C354 C 0.06048 0.72286 0.47173 0.0
H355 H 0.02884 0.62142 0.49251 0.0
H356 H 0.00709 0.6937 0.51226 0.0
C357 C 0.09566 0.71551 0.43874 0.0
C358 C 0.75407 0.0263 0.43936 0.0
C359 C 0.72309 0.05819 0.4405 0.0
H360 H 0.81854 0.01081 0.4213 0.0
C361 C 0.73075 0.09662 0.41375 0.0
H362 H 0.74873 -0.00385 0.45903 0.0
C363 C 0.77059 0.10494 0.3918 0.0
C364 C 0.8033 0.07499 0.39666 0.0
H365 H 0.70707 0.1215 0.41322 0.0
H366 H 0.77677 0.13617 0.37551 0.0
C367 C 0.79397 0.03466 0.41753 0.0
C368 C 0.48937 0.98467 0.9602 0.0
C369 C 0.46496 0.9558 0.98969 0.0
H370 H 0.52058 0.04468 0.95874 0.0
C371 C 0.4522 0.96635 0.04148 0.0
H372 H 0.49914 0.97757 0.91997 0.0
C373 C 0.46445 0.00482 0.06381 0.0
C374 C 0.48919 0.03354 0.03443 0.0
H375 H 0.43304 0.94471 0.06494 0.0
H376 H 0.45513 0.01177 0.10424 0.0
C377 C 0.50115 0.0233 0.98224 0.0
C378 C 0.50492 0.51563 0.0879 0.0
C379 C 0.46588 0.51109 0.06171 0.0
H380 H 0.57254 0.51031 0.08277 0.0
C381 C 0.46557 0.49899 0.00809 0.0
H382 H 0.50614 0.52549 0.12898 0.0
C383 C 0.50358 0.49106 0.98134 0.0
C384 C 0.54259 0.49487 0.00779 0.0
H385 H 0.43595 0.49579 0.98665 0.0
H386 H 0.5023 0.48083 0.9404 0.0
C387 C 0.54292 0.50751 0.06122 0.0
C388 C -0.00441 0.50493 0.01792 0.0
C389 C 0.0047 0.50779 0.96339 0.0
H390 H 0.98266 0.4647 0.08437 0.0
C391 C 0.00785 0.47051 0.93358 0.0
H392 H -0.00628 0.53305 0.04222 0.0
C393 C 0.00124 0.43106 0.95793 0.0
C394 C -0.00736 0.4284 0.01265 0.0
H395 H 0.01551 0.47187 0.89166 0.0
H396 H 0.00263 0.40271 0.93403 0.0
C397 C -0.00986 0.46569 0.04237 0.0
C398 C 0.00651 0.01216 0.93309 0.0
C399 C 0.01402 -0.00448 0.98413 0.0
H400 H 0.96015 0.0311 0.87545 0.0
C401 C 0.97927 0.98587 0.01705 0.0
H402 H 0.03267 0.01946 0.9066 0.0
C403 C 0.93782 -0.00838 0.99879 0.0
C404 C 0.93029 0.00741 0.94737 0.0
H405 H 0.98401 0.97249 0.05633 0.0
H406 H 0.91168 0.98377 0.02506 0.0
C407 C 0.96501 0.01818 0.91493 0.0
C408 C 0.48424 0.50975 0.5504 0.0
C409 C 0.47183 0.54309 0.51693 0.0
H410 H 0.50299 0.44505 0.55635 0.0
C411 C 0.46815 0.53607 0.46205 0.0
H412 H 0.4865 0.51413 0.59294 0.0
C413 C 0.47793 0.49644 0.44083 0.0
C414 C 0.4903 0.46307 0.47446 0.0
H415 H 0.45806 0.56129 0.43557 0.0
H416 H 0.47622 0.49201 0.39826 0.0
C417 C 0.49289 0.47 0.52946 0.0
C418 C 0.03789 0.44864 0.55814 0.0
C419 C 0.04689 0.45775 0.50453 0.0
H420 H -0.01016 0.43744 0.61696 0.0
C421 C 0.01324 0.46014 0.46811 0.0
H422 H 0.06312 0.44702 0.58729 0.0
C423 C 0.97136 0.45536 0.48527 0.0
C424 C 0.96223 0.44805 0.53921 0.0
H425 H 0.01909 0.46751 0.42666 0.0
H426 H 0.94608 0.45798 0.45629 0.0
C427 C -0.00409 0.44388 0.57534 0.0
C428 C 0.97651 0.93694 0.47892 0.0
C429 C -0.01193 0.93402 0.5327 0.0
H430 H 0.96214 0.97743 0.4131 0.0
C431 C -0.00765 0.9713 0.56234 0.0
H432 H 0.9735 0.90885 0.45476 0.0
C433 C 0.98575 0.0108 0.53826 0.0
C434 C 0.97572 0.01356 0.48398 0.0
H435 H 0.00179 0.96998 0.60367 0.0
H436 H -0.01107 0.03916 0.56189 0.0
C437 C 0.97086 0.97628 0.4547 0.0
C438 C 0.47908 -0.00084 0.50253 0.0
C439 C 0.51786 -0.00159 0.47514 0.0
H440 H 0.41176 -0.00827 0.49812 0.0
C441 C 0.51806 -0.01033 0.42047 0.0
H442 H 0.47794 0.00647 0.54447 0.0
C443 C 0.48011 0.98125 0.39379 0.0
C444 C 0.44131 0.98211 0.42121 0.0
H445 H 0.54756 -0.01065 0.39831 0.0
H446 H 0.48119 0.97368 0.35192 0.0
C447 C 0.44115 -0.00861 0.47574 0.0
C448 C 0.50791 0.27316 0.27043 0.0
C449 C 0.53919 0.27143 0.31008 0.0
H450 H 0.48112 0.24278 0.20212 0.0
C451 C 0.56436 0.2349 0.31498 0.0
H452 H 0.48781 0.30079 0.26624 0.0
C453 C 0.55991 0.20158 0.27956 0.0
C454 C 0.5306 0.20418 0.23776 0.0
H455 H 0.58813 0.23224 0.34591 0.0
H456 H 0.58095 0.17461 0.28353 0.0
C457 C 0.50388 0.23985 0.23415 0.0
C458 C 0.24784 0.48872 0.31958 0.0
C459 C 0.248 0.51892 0.36028 0.0
H460 H 0.27398 0.47014 0.24447 0.0
C461 C 0.27875 0.55124 0.35906 0.0
H462 H 0.22464 0.46339 0.3196 0.0
C463 C 0.30668 0.55519 0.31632 0.0
C464 C 0.30484 0.5267 0.27396 0.0
H465 H 0.28011 0.57478 0.39011 0.0
H466 H 0.32852 0.5817 0.3154 0.0
C467 C 0.2762 0.49251 0.27677 0.0
C468 C 0.97966 0.2646 0.25712 0.0
C469 C 0.97607 0.25025 0.20469 0.0
H470 H 0.97985 0.24787 0.33962 0.0
C471 C 0.97556 0.20644 0.19516 0.0
H472 H 0.98025 0.29818 0.26555 0.0
C473 C 0.9745 0.17764 0.23756 0.0
C474 C 0.97488 0.19215 0.29011 0.0
H475 H 0.97277 0.19447 0.1551 0.0
H476 H 0.97105 0.14421 0.22923 0.0
C477 C 0.97954 0.23574 0.29948 0.0
C478 C 0.24761 0.97742 0.20923 0.0
C479 C 0.27486 0.9426 0.21698 0.0
H480 H 0.19654 0.0041 0.16324 0.0
C481 C 0.27351 0.90906 0.18081 0.0
H482 H 0.24782 0.00365 0.2367 0.0
C483 C 0.24425 0.90924 0.13932 0.0
C484 C 0.2155 0.94294 0.13291 0.0
H485 H 0.29411 0.88183 0.18559 0.0
H486 H 0.24349 0.88225 0.11301 0.0
C487 C 0.2181 0.97758 0.16746 0.0
C488 C 0.47387 0.73502 0.80457 0.0
C489 C 0.47 0.77883 0.79557 0.0
H490 H 0.47365 0.67324 0.77002 0.0
C491 C 0.47111 0.79434 0.74321 0.0
H492 H 0.47327 0.72213 0.84455 0.0
C493 C 0.47201 0.7663 0.70052 0.0
C494 C 0.47108 0.72235 0.70963 0.0
H495 H 0.46843 0.82797 0.73516 0.0
H496 H 0.46988 0.77906 0.66057 0.0
C497 C 0.47403 0.70697 0.76192 0.0
C498 C 0.77203 0.47056 0.75247 0.0
C499 C 0.76271 0.44074 0.71298 0.0
H500 H 0.75368 0.49679 0.82766 0.0
C501 C 0.72482 0.41742 0.71666 0.0
H502 H 0.8009 0.48914 0.75038 0.0
C503 C 0.69775 0.42218 0.75994 0.0
C504 C 0.70799 0.45014 0.80105 0.0
H505 H 0.71635 0.39467 0.68645 0.0
H506 H 0.66953 0.40261 0.7621 0.0
C507 C 0.74492 0.47507 0.79643 0.0
C508 C 0.09605 0.74043 0.72571 0.0
C509 C 0.05716 0.7531 0.70342 0.0
H510 H 0.12776 0.70075 0.78224 0.0
C511 C 0.01951 0.73381 0.72139 0.0
H512 H 0.12564 0.75443 0.71239 0.0
C513 C 0.02078 0.70254 0.76106 0.0
C514 C 0.05971 0.69014 0.78356 0.0
H515 H -0.01088 0.7426 0.70452 0.0
H516 H -0.00874 0.68859 0.77466 0.0
C517 C 0.0973 0.70938 0.7654 0.0
C518 C 0.7173 -0.00441 0.69486 0.0
C519 C 0.67809 0.01695 0.69313 0.0
H520 H 0.77399 0.98284 0.7398 0.0
C521 C 0.66397 0.03819 0.73862 0.0
H522 H 0.72904 0.97902 0.66031 0.0
C523 C 0.68975 0.04081 0.7834 0.0
C524 C 0.7301 0.02189 0.78405 0.0
H525 H 0.63388 0.05482 0.7387 0.0
H526 H 0.67864 0.05904 0.81695 0.0
C527 C 0.74308 -0.00213 0.7402 0.0
loop_
_geom_bond_atom_site_label_1
_geom_bond_atom_site_label_2
_geom_bond_distance
_geom_bond_site_symmetry_2
_ccdc_geom_bond_type
In0 O1 2.294 . S
In0 O2 2.326 1_554 S
In0 O6 2.266 . S
In0 O7 2.326 . S
In0 O8 2.266 . S
In0 O9 2.326 . S
In0 O11 2.294 . S
In0 O12 2.326 . S
O1 In0 2.294 . S
O1 C10 1.240 . S
O2 In0 2.326 1_556 S
O2 C10 1.252 1_556 S
C3 O6 1.252 . S
C3 O7 1.260 . S
C4 O11 1.240 . S
C4 O12 1.252 . S
C5 O8 1.252 . S
C5 O9 1.260 . S
O6 In0 2.266 . S
O6 C3 1.252 . S
O7 In0 2.326 . S
O7 C3 1.260 . S
O8 In0 2.266 . S
O8 C5 1.252 . S
O9 In0 2.326 . S
O9 C5 1.260 . S
C10 O1 1.240 . S
C10 O2 1.252 1_554 S
O11 In0 2.294 . S
O11 C4 1.240 . S
O12 In0 2.326 . S
O12 C4 1.252 . S
In13 O14 2.294 . S
In13 O15 2.326 1_554 S
In13 O19 2.266 . S
In13 O20 2.326 . S
In13 O21 2.266 . S
In13 O22 2.326 . S
In13 O24 2.294 . S
In13 O25 2.326 . S
O14 In13 2.294 . S
O14 C23 1.240 . S
O15 In13 2.326 1_556 S
O15 C23 1.252 1_556 S
C16 O19 1.252 . S
C16 O20 1.260 . S
C17 O24 1.240 . S
C17 O25 1.252 . S
C18 O21 1.252 . S
C18 O22 1.260 . S
O19 In13 2.266 . S
O19 C16 1.252 . S
O20 In13 2.326 . S
O20 C16 1.260 . S
O21 In13 2.266 . S
O21 C18 1.252 . S
O22 In13 2.326 . S
O22 C18 1.260 . S
C23 O14 1.240 . S
C23 O15 1.252 1_554 S
O24 In13 2.294 . S
O24 C17 1.240 . S
O25 In13 2.326 . S
O25 C17 1.252 . S
In26 O27 2.294 . S
In26 O28 2.326 1_554 S
In26 O32 2.266 . S
In26 O33 2.326 1_655 S
In26 O34 2.266 . S
In26 O35 2.326 . S
In26 O37 2.294 1_655 S
In26 O38 2.326 . S
O27 In26 2.294 . S
O27 C36 1.240 . S
O28 In26 2.326 1_556 S
O28 C36 1.252 1_556 S
C29 O32 1.252 . S
C29 O33 1.260 1_655 S
C30 O37 1.240 . S
C30 O38 1.252 1_455 S
C31 O34 1.252 . S
C31 O35 1.260 . S
O32 In26 2.266 . S
O32 C29 1.252 . S
O33 In26 2.326 1_455 S
O33 C29 1.260 1_455 S
O34 In26 2.266 . S
O34 C31 1.252 . S
O35 In26 2.326 . S
O35 C31 1.260 . S
C36 O27 1.240 . S
C36 O28 1.252 1_554 S
O37 In26 2.294 1_455 S
O37 C30 1.240 . S
O38 In26 2.326 . S
O38 C30 1.252 1_655 S
In39 O40 2.294 1_565 S
In39 O41 2.326 . S
In39 O45 2.266 . S
In39 O46 2.326 . S
In39 O47 2.266 . S
In39 O48 2.326 1_565 S
In39 O50 2.294 . S
In39 O51 2.326 1_554 S
O40 In39 2.294 1_545 S
O40 C49 1.240 . S
O41 In39 2.326 . S
O41 C49 1.252 1_565 S
C42 O45 1.252 . S
C42 O46 1.260 . S
C43 O50 1.240 . S
C43 O51 1.252 1_554 S
C44 O47 1.252 . S
C44 O48 1.260 1_565 S
O45 In39 2.266 . S
O45 C42 1.252 . S
O46 In39 2.326 . S
O46 C42 1.260 . S
O47 In39 2.266 . S
O47 C44 1.252 . S
O48 In39 2.326 1_545 S
O48 C44 1.260 1_545 S
C49 O40 1.240 . S
C49 O41 1.252 1_545 S
O50 In39 2.294 . S
O50 C43 1.240 . S
O51 In39 2.326 1_556 S
O51 C43 1.252 1_556 S
In52 O53 2.294 . S
In52 O54 2.326 . S
In52 O58 2.266 . S
In52 O59 2.326 . S
In52 O60 2.266 . S
In52 O61 2.326 . S
In52 O63 2.294 . S
In52 O64 2.326 . S
O53 In52 2.294 . S
O53 C62 1.240 . S
O54 In52 2.326 . S
O54 C62 1.252 . S
C55 O58 1.252 . S
C55 O59 1.260 . S
C56 O63 1.240 . S
C56 O64 1.252 . S
C57 O60 1.252 . S
C57 O61 1.260 . S
O58 In52 2.266 . S
O58 C55 1.252 . S
O59 In52 2.326 . S
O59 C55 1.260 . S
O60 In52 2.266 . S
O60 C57 1.252 . S
O61 In52 2.326 . S
O61 C57 1.260 . S
C62 O53 1.240 . S
C62 O54 1.252 . S
O63 In52 2.294 . S
O63 C56 1.240 . S
O64 In52 2.326 . S
O64 C56 1.252 . S
In65 O66 2.294 . S
In65 O67 2.326 . S
In65 O71 2.266 . S
In65 O72 2.326 . S
In65 O73 2.266 . S
In65 O74 2.326 . S
In65 O76 2.294 . S
In65 O77 2.326 . S
O66 In65 2.294 . S
O66 C75 1.240 . S
O67 In65 2.326 . S
O67 C75 1.252 . S
C68 O71 1.252 . S
C68 O72 1.260 . S
C69 O76 1.240 . S
C69 O77 1.252 . S
C70 O73 1.252 . S
C70 O74 1.260 . S
O71 In65 2.266 . S
O71 C68 1.252 . S
O72 In65 2.326 . S
O72 C68 1.260 . S
O73 In65 2.266 . S
O73 C70 1.252 . S
O74 In65 2.326 . S
O74 C70 1.260 . S
C75 O66 1.240 . S
C75 O67 1.252 . S
O76 In65 2.294 . S
O76 C69 1.240 . S
O77 In65 2.326 . S
O77 C69 1.252 . S
In78 O79 2.294 1_655 S
In78 O80 2.326 . S
In78 O84 2.266 . S
In78 O85 2.326 . S
In78 O86 2.266 . S
In78 O87 2.326 1_655 S
In78 O89 2.294 . S
In78 O90 2.326 . S
O79 In78 2.294 1_455 S
O79 C88 1.240 . S
O80 In78 2.326 . S
O80 C88 1.252 1_655 S
C81 O84 1.252 . S
C81 O85 1.260 . S
C82 O89 1.240 . S
C82 O90 1.252 . S
C83 O86 1.252 . S
C83 O87 1.260 1_655 S
O84 In78 2.266 . S
O84 C81 1.252 . S
O85 In78 2.326 . S
O85 C81 1.260 . S
O86 In78 2.266 . S
O86 C83 1.252 . S
O87 In78 2.326 1_455 S
O87 C83 1.260 1_455 S
C88 O79 1.240 . S
C88 O80 1.252 1_455 S
O89 In78 2.294 . S
O89 C82 1.240 . S
O90 In78 2.326 . S
O90 C82 1.252 . S
In91 O92 2.294 . S
In91 O93 2.326 . S
In91 O97 2.266 . S
In91 O98 2.326 1_565 S
In91 O99 2.266 . S
In91 O100 2.326 . S
In91 O102 2.294 1_565 S
In91 O103 2.326 . S
O92 In91 2.294 . S
O92 C101 1.240 . S
O93 In91 2.326 . S
O93 C101 1.252 . S
C94 O97 1.252 . S
C94 O98 1.260 1_565 S
C95 O102 1.240 . S
C95 O103 1.252 1_545 S
C96 O99 1.252 . S
C96 O100 1.260 . S
O97 In91 2.266 . S
O97 C94 1.252 . S
O98 In91 2.326 1_545 S
O98 C94 1.260 1_545 S
O99 In91 2.266 . S
O99 C96 1.252 . S
O100 In91 2.326 . S
O100 C96 1.260 . S
C101 O92 1.240 . S
C101 O93 1.252 . S
O102 In91 2.294 1_545 S
O102 C95 1.240 . S
O103 In91 2.326 . S
O103 C95 1.252 1_565 S
In104 O105 2.294 . S
In104 O106 2.326 1_556 S
In104 O110 2.266 . S
In104 O111 2.326 . S
In104 O112 2.266 . S
In104 O113 2.326 . S
In104 O115 2.294 . S
In104 O116 2.326 . S
O105 In104 2.294 . S
O105 C114 1.240 . S
O106 In104 2.326 1_554 S
O106 C114 1.252 1_554 S
C107 O110 1.252 . S
C107 O111 1.260 . S
C108 O115 1.240 . S
C108 O116 1.252 . S
C109 O112 1.252 . S
C109 O113 1.260 . S
O110 In104 2.266 . S
O110 C107 1.252 . S
O111 In104 2.326 . S
O111 C107 1.260 . S
O112 In104 2.266 . S
O112 C109 1.252 . S
O113 In104 2.326 . S
O113 C109 1.260 . S
C114 O105 1.240 . S
C114 O106 1.252 1_556 S
O115 In104 2.294 . S
O115 C108 1.240 . S
O116 In104 2.326 . S
O116 C108 1.252 . S
In117 O118 2.294 . S
In117 O119 2.326 1_556 S
In117 O123 2.266 . S
In117 O124 2.326 . S
In117 O125 2.266 . S
In117 O126 2.326 . S
In117 O128 2.294 . S
In117 O129 2.326 . S
O118 In117 2.294 . S
O118 C127 1.240 . S
O119 In117 2.326 1_554 S
O119 C127 1.252 1_554 S
C120 O123 1.252 . S
C120 O124 1.260 . S
C121 O128 1.240 . S
C121 O129 1.252 . S
C122 O125 1.252 . S
C122 O126 1.260 . S
O123 In117 2.266 . S
O123 C120 1.252 . S
O124 In117 2.326 . S
O124 C120 1.260 . S
O125 In117 2.266 . S
O125 C122 1.252 . S
O126 In117 2.326 . S
O126 C122 1.260 . S
C127 O118 1.240 . S
C127 O119 1.252 1_556 S
O128 In117 2.294 . S
O128 C121 1.240 . S
O129 In117 2.326 . S
O129 C121 1.252 . S
In130 O131 2.294 . S
In130 O132 2.326 1_556 S
In130 O136 2.266 . S
In130 O137 2.326 1_455 S
In130 O138 2.266 . S
In130 O139 2.326 . S
In130 O141 2.294 1_455 S
In130 O142 2.326 . S
O131 In130 2.294 . S
O131 C140 1.240 . S
O132 In130 2.326 1_554 S
O132 C140 1.252 1_554 S
C133 O136 1.252 . S
C133 O137 1.260 1_455 S
C134 O141 1.240 . S
C134 O142 1.252 1_655 S
C135 O138 1.252 . S
C135 O139 1.260 . S
O136 In130 2.266 . S
O136 C133 1.252 . S
O137 In130 2.326 1_655 S
O137 C133 1.260 1_655 S
O138 In130 2.266 . S
O138 C135 1.252 . S
O139 In130 2.326 . S
O139 C135 1.260 . S
C140 O131 1.240 . S
C140 O132 1.252 1_556 S
O141 In130 2.294 1_655 S
O141 C134 1.240 . S
O142 In130 2.326 . S
O142 C134 1.252 1_455 S
In143 O144 2.294 1_545 S
In143 O145 2.326 . S
In143 O149 2.266 . S
In143 O150 2.326 . S
In143 O151 2.266 . S
In143 O152 2.326 1_545 S
In143 O154 2.294 . S
In143 O155 2.326 1_556 S
O144 In143 2.294 1_565 S
O144 C153 1.240 . S
O145 In143 2.326 . S
O145 C153 1.252 1_545 S
C146 O149 1.252 . S
C146 O150 1.260 . S
C147 O154 1.240 . S
C147 O155 1.252 1_556 S
C148 O151 1.252 . S
C148 O152 1.260 1_545 S
O149 In143 2.266 . S
O149 C146 1.252 . S
O150 In143 2.326 . S
O150 C146 1.260 . S
O151 In143 2.266 . S
O151 C148 1.252 . S
O152 In143 2.326 1_565 S
O152 C148 1.260 1_565 S
C153 O144 1.240 . S
C153 O145 1.252 1_565 S
O154 In143 2.294 . S
O154 C147 1.240 . S
O155 In143 2.326 1_554 S
O155 C147 1.252 1_554 S
In156 O157 2.294 . S
In156 O158 2.326 . S
In156 O162 2.266 . S
In156 O163 2.326 . S
In156 O164 2.266 . S
In156 O165 2.326 . S
In156 O167 2.294 . S
In156 O168 2.326 . S
O157 In156 2.294 . S
O157 C166 1.240 . S
O158 In156 2.326 . S
O158 C166 1.252 . S
C159 O162 1.252 . S
C159 O163 1.260 . S
C160 O167 1.240 . S
C160 O168 1.252 . S
C161 O164 1.252 . S
C161 O165 1.260 . S
O162 In156 2.266 . S
O162 C159 1.252 . S
O163 In156 2.326 . S
O163 C159 1.260 . S
O164 In156 2.266 . S
O164 C161 1.252 . S
O165 In156 2.326 . S
O165 C161 1.260 . S
C166 O157 1.240 . S
C166 O158 1.252 . S
O167 In156 2.294 . S
O167 C160 1.240 . S
O168 In156 2.326 . S
O168 C160 1.252 . S
In169 O170 2.294 . S
In169 O171 2.326 . S
In169 O175 2.266 . S
In169 O176 2.326 . S
In169 O177 2.266 . S
In169 O178 2.326 . S
In169 O180 2.294 . S
In169 O181 2.326 . S
O170 In169 2.294 . S
O170 C179 1.240 . S
O171 In169 2.326 . S
O171 C179 1.252 . S
C172 O175 1.252 . S
C172 O176 1.260 . S
C173 O180 1.240 . S
C173 O181 1.252 . S
C174 O177 1.252 . S
C174 O178 1.260 . S
O175 In169 2.266 . S
O175 C172 1.252 . S
O176 In169 2.326 . S
O176 C172 1.260 . S
O177 In169 2.266 . S
O177 C174 1.252 . S
O178 In169 2.326 . S
O178 C174 1.260 . S
C179 O170 1.240 . S
C179 O171 1.252 . S
O180 In169 2.294 . S
O180 C173 1.240 . S
O181 In169 2.326 . S
O181 C173 1.252 . S
In182 O183 2.294 1_455 S
In182 O184 2.326 . S
In182 O188 2.266 . S
In182 O189 2.326 . S
In182 O190 2.266 . S
In182 O191 2.326 1_455 S
In182 O193 2.294 . S
In182 O194 2.326 . S
O183 In182 2.294 1_655 S
O183 C192 1.240 . S
O184 In182 2.326 . S
O184 C192 1.252 1_455 S
C185 O188 1.252 . S
C185 O189 1.260 . S
C186 O193 1.240 . S
C186 O194 1.252 . S
C187 O190 1.252 . S
C187 O191 1.260 1_455 S
O188 In182 2.266 . S
O188 C185 1.252 . S
O189 In182 2.326 . S
O189 C185 1.260 . S
O190 In182 2.266 . S
O190 C187 1.252 . S
O191 In182 2.326 1_655 S
O191 C187 1.260 1_655 S
C192 O183 1.240 . S
C192 O184 1.252 1_655 S
O193 In182 2.294 . S
O193 C186 1.240 . S
O194 In182 2.326 . S
O194 C186 1.252 . S
In195 O196 2.294 . S
In195 O197 2.326 . S
In195 O201 2.266 . S
In195 O202 2.326 1_545 S
In195 O203 2.266 . S
In195 O204 2.326 . S
In195 O206 2.294 1_545 S
In195 O207 2.326 . S
O196 In195 2.294 . S
O196 C205 1.240 . S
O197 In195 2.326 . S
O197 C205 1.252 . S
C198 O201 1.252 . S
C198 O202 1.260 1_545 S
C199 O206 1.240 . S
C199 O207 1.252 1_565 S
C200 O203 1.252 . S
C200 O204 1.260 . S
O201 In195 2.266 . S
O201 C198 1.252 . S
O202 In195 2.326 1_565 S
O202 C198 1.260 1_565 S
O203 In195 2.266 . S
O203 C200 1.252 . S
O204 In195 2.326 . S
O204 C200 1.260 . S
C205 O196 1.240 . S
C205 O197 1.252 . S
O206 In195 2.294 1_565 S
O206 C199 1.240 . S
O207 In195 2.326 . S
O207 C199 1.252 1_545 S
C208 C209 1.387 1_556 S
C208 H212 0.950 . S
C208 C217 1.390 . S
C209 C208 1.387 1_554 S
C209 C211 1.387 . S
H210 C217 0.950 . S
C211 C209 1.387 . S
C211 C213 1.390 . S
C211 H215 0.950 . S
H212 C208 0.950 . S
C213 C211 1.390 . S
C213 C214 1.387 1_554 S
C213 H216 0.950 . S
C214 C213 1.387 1_556 S
C214 C217 1.387 . S
H215 C211 0.950 . S
H216 C213 0.950 . S
C217 C208 1.390 . S
C217 H210 0.950 . S
C217 C214 1.387 . S
C218 C219 1.387 . S
C218 H222 0.950 . S
C218 C227 1.390 . S
C219 C218 1.387 . S
C219 C221 1.387 1_556 S
H220 C227 0.950 . S
C221 C219 1.387 1_554 S
C221 C223 1.390 . S
C221 H225 0.950 . S
H222 C218 0.950 . S
C223 C221 1.390 . S
C223 C224 1.387 . S
C223 H226 0.950 . S
C224 C223 1.387 . S
C224 C227 1.387 1_554 S
H225 C221 0.950 . S
H226 C223 0.950 . S
C227 C218 1.390 . S
C227 H220 0.950 . S
C227 C224 1.387 1_556 S
C228 C229 1.387 . S
C228 H232 0.950 . S
C228 C237 1.390 . S
C229 C228 1.387 . S
C229 C231 1.387 1_556 S
H230 C237 0.950 . S
C231 C229 1.387 1_554 S
C231 C233 1.390 . S
C231 H235 0.950 . S
H232 C228 0.950 . S
C233 C231 1.390 . S
C233 C234 1.387 . S
C233 H236 0.950 . S
C234 C233 1.387 . S
C234 C237 1.387 1_554 S
H235 C231 0.950 . S
H236 C233 0.950 . S
C237 C228 1.390 . S
C237 H230 0.950 . S
C237 C234 1.387 1_556 S
C238 C239 1.387 1_554 S
C238 H242 0.950 . S
C238 C247 1.390 . S
C239 C238 1.387 1_556 S
C239 C241 1.387 . S
H240 C247 0.950 . S
C241 C239 1.387 . S
C241 C243 1.390 . S
C241 H245 0.950 . S
H242 C238 0.950 . S
C243 C241 1.390 . S
C243 C244 1.387 1_556 S
C243 H246 0.950 . S
C244 C243 1.387 1_554 S
C244 C247 1.387 . S
H245 C241 0.950 . S
H246 C243 0.950 . S
C247 C238 1.390 . S
C247 H240 0.950 . S
C247 C244 1.387 . S
C248 C249 1.387 . S
C248 H252 0.950 . S
C248 C257 1.390 . S
C249 C248 1.387 . S
C249 C251 1.387 . S
H250 C257 0.950 . S
C251 C249 1.387 . S
C251 C253 1.390 . S
C251 H255 0.950 . S
H252 C248 0.950 . S
C253 C251 1.390 . S
C253 C254 1.387 . S
C253 H256 0.950 . S
C254 C253 1.387 . S
C254 C257 1.387 . S
H255 C251 0.950 . S
H256 C253 0.950 . S
C257 C248 1.390 . S
C257 H250 0.950 . S
C257 C254 1.387 . S
C258 C259 1.387 . S
C258 H262 0.950 . S
C258 C267 1.390 . S
C259 C258 1.387 . S
C259 C261 1.387 . S
H260 C267 0.950 . S
C261 C259 1.387 . S
C261 C263 1.390 . S
C261 H265 0.950 . S
H262 C258 0.950 . S
C263 C261 1.390 . S
C263 C264 1.387 . S
C263 H266 0.950 . S
C264 C263 1.387 . S
C264 C267 1.387 . S
H265 C261 0.950 . S
H266 C263 0.950 . S
C267 C258 1.390 . S
C267 H260 0.950 . S
C267 C264 1.387 . S
C268 C269 1.387 . S
C268 H272 0.950 . S
C268 C277 1.390 . S
C269 C268 1.387 . S
C269 C271 1.387 . S
H270 C277 0.950 . S
C271 C269 1.387 . S
C271 C273 1.390 . S
C271 H275 0.950 . S
H272 C268 0.950 . S
C273 C271 1.390 . S
C273 C274 1.387 . S
C273 H276 0.950 . S
C274 C273 1.387 . S
C274 C277 1.387 . S
H275 C271 0.950 . S
H276 C273 0.950 . S
C277 C268 1.390 . S
C277 H270 0.950 . S
C277 C274 1.387 . S
C278 C279 1.387 . S
C278 H282 0.950 . S
C278 C287 1.390 . S
C279 C278 1.387 . S
C279 C281 1.387 . S
H280 C287 0.950 . S
C281 C279 1.387 . S
C281 C283 1.390 . S
C281 H285 0.950 . S
H282 C278 0.950 . S
C283 C281 1.390 . S
C283 C284 1.387 . S
C283 H286 0.950 . S
C284 C283 1.387 . S
C284 C287 1.387 . S
H285 C281 0.950 . S
H286 C283 0.950 . S
C287 C278 1.390 . S
C287 H280 0.950 . S
C287 C284 1.387 . S
C288 C289 1.387 1_554 S
C288 H292 0.950 . S
C288 C297 1.390 . S
C289 C288 1.387 1_556 S
C289 C291 1.387 . S
H290 C297 0.950 . S
C291 C289 1.387 . S
C291 C293 1.390 . S
C291 H295 0.950 . S
H292 C288 0.950 . S
C293 C291 1.390 . S
C293 C294 1.387 1_556 S
C293 H296 0.950 . S
C294 C293 1.387 1_554 S
C294 C297 1.387 . S
H295 C291 0.950 . S
H296 C293 0.950 . S
C297 C288 1.390 . S
C297 H290 0.950 . S
C297 C294 1.387 . S
C298 C299 1.387 . S
C298 H302 0.950 . S
C298 C307 1.390 . S
C299 C298 1.387 . S
C299 C301 1.387 1_556 S
H300 C307 0.950 . S
C301 C299 1.387 1_554 S
C301 C303 1.390 . S
C301 H305 0.950 . S
H302 C298 0.950 . S
C303 C301 1.390 . S
C303 C304 1.387 . S
C303 H306 0.950 . S
C304 C303 1.387 . S
C304 C307 1.387 1_554 S
H305 C301 0.950 . S
H306 C303 0.950 . S
C307 C298 1.390 . S
C307 H300 0.950 . S
C307 C304 1.387 1_556 S
C308 C309 1.387 . S
C308 H312 0.950 . S
C308 C317 1.390 . S
C309 C308 1.387 . S
C309 C311 1.387 1_556 S
H310 C317 0.950 . S
C311 C309 1.387 1_554 S
C311 C313 1.390 . S
C311 H315 0.950 . S
H312 C308 0.950 . S
C313 C311 1.390 . S
C313 C314 1.387 . S
C313 H316 0.950 . S
C314 C313 1.387 . S
C314 C317 1.387 1_554 S
H315 C311 0.950 . S
H316 C313 0.950 . S
C317 C308 1.390 . S
C317 H310 0.950 . S
C317 C314 1.387 1_556 S
C318 C319 1.387 . S
C318 H322 0.950 . S
C318 C327 1.390 . S
C319 C318 1.387 . S
C319 C321 1.387 1_554 S
H320 C327 0.950 . S
C321 C319 1.387 1_556 S
C321 C323 1.390 . S
C321 H325 0.950 . S
H322 C318 0.950 . S
C323 C321 1.390 . S
C323 C324 1.387 . S
C323 H326 0.950 . S
C324 C323 1.387 . S
C324 C327 1.387 1_556 S
H325 C321 0.950 . S
H326 C323 0.950 . S
C327 C318 1.390 . S
C327 H320 0.950 . S
C327 C324 1.387 1_554 S
C328 C329 1.387 . S
C328 H332 0.950 . S
C328 C337 1.390 . S
C329 C328 1.387 . S
C329 C331 1.387 . S
H330 C337 0.950 . S
C331 C329 1.387 . S
C331 C333 1.390 . S
C331 H335 0.950 . S
H332 C328 0.950 . S
C333 C331 1.390 . S
C333 C334 1.387 . S
C333 H336 0.950 . S
C334 C333 1.387 . S
C334 C337 1.387 . S
H335 C331 0.950 . S
H336 C333 0.950 . S
C337 C328 1.390 . S
C337 H330 0.950 . S
C337 C334 1.387 . S
C338 C339 1.387 . S
C338 H342 0.950 . S
C338 C347 1.390 . S
C339 C338 1.387 . S
C339 C341 1.387 . S
H340 C347 0.950 . S
C341 C339 1.387 . S
C341 C343 1.390 . S
C341 H345 0.950 . S
H342 C338 0.950 . S
C343 C341 1.390 . S
C343 C344 1.387 . S
C343 H346 0.950 . S
C344 C343 1.387 . S
C344 C347 1.387 . S
H345 C341 0.950 . S
H346 C343 0.950 . S
C347 C338 1.390 . S
C347 H340 0.950 . S
C347 C344 1.387 . S
C348 C349 1.387 . S
C348 H352 0.950 . S
C348 C357 1.390 . S
C349 C348 1.387 . S
C349 C351 1.387 . S
H350 C357 0.950 . S
C351 C349 1.387 . S
C351 C353 1.390 . S
C351 H355 0.950 . S
H352 C348 0.950 . S
C353 C351 1.390 . S
C353 C354 1.387 . S
C353 H356 0.950 . S
C354 C353 1.387 . S
C354 C357 1.387 . S
H355 C351 0.950 . S
H356 C353 0.950 . S
C357 C348 1.390 . S
C357 H350 0.950 . S
C357 C354 1.387 . S
C358 C359 1.387 . S
C358 H362 0.950 . S
C358 C367 1.390 . S
C359 C358 1.387 . S
C359 C361 1.387 . S
H360 C367 0.950 . S
C361 C359 1.387 . S
C361 C363 1.390 . S
C361 H365 0.950 . S
H362 C358 0.950 . S
C363 C361 1.390 . S
C363 C364 1.387 . S
C363 H366 0.950 . S
C364 C363 1.387 . S
C364 C367 1.387 . S
H365 C361 0.950 . S
H366 C363 0.950 . S
C367 C358 1.390 . S
C367 H360 0.950 . S
C367 C364 1.387 . S
C368 C369 1.387 . S
C368 H372 0.950 . S
C368 C377 1.390 1_565 S
C369 C368 1.387 . S
C369 C371 1.387 1_556 S
H370 C377 0.950 . S
C371 C369 1.387 1_554 S
C371 C373 1.390 1_565 S
C371 H375 0.950 . S
H372 C368 0.950 . S
C373 C371 1.390 1_545 S
C373 C374 1.387 . S
C373 H376 0.950 . S
C374 C373 1.387 . S
C374 C377 1.387 1_554 S
H375 C371 0.950 . S
H376 C373 0.950 . S
C377 C368 1.390 1_545 S
C377 H370 0.950 . S
C377 C374 1.387 1_556 S
C378 C379 1.387 . S
C378 H382 0.950 . S
C378 C387 1.390 . S
C379 C378 1.387 . S
C379 C381 1.387 1_554 S
H380 C387 0.950 . S
C381 C379 1.387 1_556 S
C381 C383 1.390 . S
C381 H385 0.950 . S
H382 C378 0.950 . S
C383 C381 1.390 . S
C383 C384 1.387 . S
C383 H386 0.950 . S
C384 C383 1.387 . S
C384 C387 1.387 1_556 S
H385 C381 0.950 . S
H386 C383 0.950 . S
C387 C378 1.390 . S
C387 H380 0.950 . S
C387 C384 1.387 1_554 S
C388 C389 1.389 1_554 S
C388 H392 0.950 . S
C388 C397 1.388 1_655 S
C389 C388 1.389 1_556 S
C389 C391 1.387 . S
H390 C397 0.950 . S
C391 C389 1.387 . S
C391 C393 1.388 1_655 S
C391 H395 0.950 . S
H392 C388 0.950 . S
C393 C391 1.388 1_455 S
C393 C394 1.389 1_556 S
C393 H396 0.950 . S
C394 C393 1.389 1_554 S
C394 C397 1.387 . S
H395 C391 0.950 . S
H396 C393 0.950 . S
C397 C388 1.388 1_455 S
C397 H390 0.950 . S
C397 C394 1.387 . S
C398 C399 1.387 1_556 S
C398 H402 0.950 . S
C398 C407 1.390 1_455 S
C399 C398 1.387 1_554 S
C399 C401 1.387 1_545 S
H400 C407 0.950 . S
C401 C399 1.387 1_565 S
C401 C403 1.390 1_455 S
C401 H405 0.950 . S
H402 C398 0.950 . S
C403 C401 1.390 1_655 S
C403 C404 1.387 1_554 S
C403 H406 0.950 . S
C404 C403 1.387 1_556 S
C404 C407 1.387 1_565 S
H405 C401 0.950 . S
H406 C403 0.950 . S
C407 C398 1.390 1_655 S
C407 H400 0.950 . S
C407 C404 1.387 1_545 S
C408 C409 1.387 . S
C408 H412 0.950 . S
C408 C417 1.390 . S
C409 C408 1.387 . S
C409 C411 1.387 . S
H410 C417 0.950 . S
C411 C409 1.387 . S
C411 C413 1.390 . S
C411 H415 0.950 . S
H412 C408 0.950 . S
C413 C411 1.390 . S
C413 C414 1.387 . S
C413 H416 0.950 . S
C414 C413 1.387 . S
C414 C417 1.387 . S
H415 C411 0.950 . S
H416 C413 0.950 . S
C417 C408 1.390 . S
C417 H410 0.950 . S
C417 C414 1.387 . S
C418 C419 1.387 . S
C418 H422 0.950 . S
C418 C427 1.390 1_455 S
C419 C418 1.387 . S
C419 C421 1.387 . S
H420 C427 0.950 . S
C421 C419 1.387 . S
C421 C423 1.390 1_455 S
C421 H425 0.950 . S
H422 C418 0.950 . S
C423 C421 1.390 1_655 S
C423 C424 1.387 . S
C423 H426 0.950 . S
C424 C423 1.387 . S
C424 C427 1.387 . S
H425 C421 0.950 . S
H426 C423 0.950 . S
C427 C418 1.390 1_655 S
C427 H420 0.950 . S
C427 C424 1.387 . S
C428 C429 1.387 . S
C428 H432 0.950 . S
C428 C437 1.390 1_665 S
C429 C428 1.387 . S
C429 C431 1.387 . S
H430 C437 0.950 . S
C431 C429 1.387 . S
C431 C433 1.390 1_665 S
C431 H435 0.950 . S
H432 C428 0.950 . S
C433 C431 1.390 1_445 S
C433 C434 1.387 . S
C433 H436 0.950 . S
C434 C433 1.387 . S
C434 C437 1.387 . S
H435 C431 0.950 . S
H436 C433 0.950 . S
C437 C428 1.390 1_445 S
C437 H430 0.950 . S
C437 C434 1.387 . S
C438 C439 1.387 1_545 S
C438 H442 0.950 . S
C438 C447 1.390 . S
C439 C438 1.387 1_565 S
C439 C441 1.387 . S
H440 C447 0.950 . S
C441 C439 1.387 . S
C441 C443 1.390 . S
C441 H445 0.950 . S
H442 C438 0.950 . S
C443 C441 1.390 . S
C443 C444 1.387 1_565 S
C443 H446 0.950 . S
C444 C443 1.387 1_545 S
C444 C447 1.387 . S
H445 C441 0.950 . S
H446 C443 0.950 . S
C447 C438 1.390 . S
C447 H440 0.950 . S
C447 C444 1.387 . S
C448 C449 1.387 . S
C448 H452 0.950 . S
C448 C457 1.390 . S
C449 C448 1.387 . S
C449 C451 1.387 . S
H450 C457 0.950 . S
C451 C449 1.387 . S
C451 C453 1.390 . S
C451 H455 0.950 . S
H452 C448 0.950 . S
C453 C451 1.390 . S
C453 C454 1.387 . S
C453 H456 0.950 . S
C454 C453 1.387 . S
C454 C457 1.387 . S
H455 C451 0.950 . S
H456 C453 0.950 . S
C457 C448 1.390 . S
C457 H450 0.950 . S
C457 C454 1.387 . S
C458 C459 1.387 . S
C458 H462 0.950 . S
C458 C467 1.390 . S
C459 C458 1.387 . S
C459 C461 1.387 . S
H460 C467 0.950 . S
C461 C459 1.387 . S
C461 C463 1.390 . S
C461 H465 0.950 . S
H462 C458 0.950 . S
C463 C461 1.390 . S
C463 C464 1.387 . S
C463 H466 0.950 . S
C464 C463 1.387 . S
C464 C467 1.387 . S
H465 C461 0.950 . S
H466 C463 0.950 . S
C467 C458 1.390 . S
C467 H460 0.950 . S
C467 C464 1.387 . S
C468 C469 1.387 1_655 S
C468 H472 0.950 . S
C468 C477 1.390 . S
C469 C468 1.387 1_455 S
C469 C471 1.387 . S
H470 C477 0.950 . S
C471 C469 1.387 . S
C471 C473 1.390 . S
C471 H475 0.950 . S
H472 C468 0.950 . S
C473 C471 1.390 . S
C473 C474 1.387 . S
C473 H476 0.950 . S
C474 C473 1.387 . S
C474 C477 1.387 1_455 S
H475 C471 0.950 . S
H476 C473 0.950 . S
C477 C468 1.390 . S
C477 H470 0.950 . S
C477 C474 1.387 1_655 S
C478 C479 1.387 . S
C478 H482 0.950 . S
C478 C487 1.390 . S
C479 C478 1.387 . S
C479 C481 1.387 1_545 S
H480 C487 0.950 . S
C481 C479 1.387 1_565 S
C481 C483 1.390 . S
C481 H485 0.950 . S
H482 C478 0.950 . S
C483 C481 1.390 . S
C483 C484 1.387 1_565 S
C483 H486 0.950 . S
C484 C483 1.387 1_545 S
C484 C487 1.387 . S
H485 C481 0.950 . S
H486 C483 0.950 . S
C487 C478 1.390 . S
C487 H480 0.950 . S
C487 C484 1.387 . S
C488 C489 1.387 . S
C488 H492 0.950 . S
C488 C497 1.390 . S
C489 C488 1.387 . S
C489 C491 1.387 . S
H490 C497 0.950 . S
C491 C489 1.387 . S
C491 C493 1.390 . S
C491 H495 0.950 . S
H492 C488 0.950 . S
C493 C491 1.390 . S
C493 C494 1.387 . S
C493 H496 0.950 . S
C494 C493 1.387 . S
C494 C497 1.387 . S
H495 C491 0.950 . S
H496 C493 0.950 . S
C497 C488 1.390 . S
C497 H490 0.950 . S
C497 C494 1.387 . S
C498 C499 1.387 . S
C498 H502 0.950 . S
C498 C507 1.390 . S
C499 C498 1.387 . S
C499 C501 1.387 . S
H500 C507 0.950 . S
C501 C499 1.387 . S
C501 C503 1.390 . S
C501 H505 0.950 . S
H502 C498 0.950 . S
C503 C501 1.390 . S
C503 C504 1.387 . S
C503 H506 0.950 . S
C504 C503 1.387 . S
C504 C507 1.387 . S
H505 C501 0.950 . S
H506 C503 0.950 . S
C507 C498 1.390 . S
C507 H500 0.950 . S
C507 C504 1.387 . S
C508 C509 1.387 1_455 S
C508 H512 0.950 . S
C508 C517 1.390 . S
C509 C508 1.387 1_655 S
C509 C511 1.387 . S
H510 C517 0.950 . S
C511 C509 1.387 . S
C511 C513 1.390 . S
C511 H515 0.950 . S
H512 C508 0.950 . S
C513 C511 1.390 . S
C513 C514 1.387 . S
C513 H516 0.950 . S
C514 C513 1.387 . S
C514 C517 1.387 1_655 S
H515 C511 0.950 . S
H516 C513 0.950 . S
C517 C508 1.390 . S
C517 H510 0.950 . S
C517 C514 1.387 1_455 S
C518 C519 1.387 . S
C518 H522 0.950 . S
C518 C527 1.390 . S
C519 C518 1.387 . S
C519 C521 1.387 1_565 S
H520 C527 0.950 . S
C521 C519 1.387 1_545 S
C521 C523 1.390 . S
C521 H525 0.950 . S
H522 C518 0.950 . S
C523 C521 1.390 . S
C523 C524 1.387 1_545 S
C523 H526 0.950 . S
C524 C523 1.387 1_565 S
C524 C527 1.387 . S
H525 C521 0.950 . S
H526 C523 0.950 . S
C527 C518 1.390 . S
C527 H520 0.950 . S
C527 C524 1.387 . S
C209 C5 1.314 . S
C214 C127 1.373 . S
C219 C140 1.373 . S
C224 C18 1.314 . S
C229 C147 1.373 . S
C234 C31 1.314 . S
C239 C114 1.374 . S
C244 C42 1.318 . S
C249 C57 1.318 . S
C254 C205 1.374 . S
C259 C160 1.373 . S
C264 C70 1.315 . S
C269 C173 1.373 . S
C274 C81 1.314 . S
C279 C186 1.374 . S
C284 C96 1.318 . S
C289 C109 1.318 . S
C294 C23 1.374 . S
C299 C122 1.315 . S
C304 C36 1.373 . S
C309 C135 1.314 . S
C314 C43 1.373 . S
C319 C10 1.374 . S
C324 C146 1.318 . S
C329 C159 1.314 . S
C334 C101 1.373 . S
C339 C172 1.318 . S
C344 C62 1.374 . S
C349 C75 1.374 . S
C354 C185 1.318 . S
C359 C200 1.315 . S
C364 C82 1.373 . S
C369 C108 1.765 . S
C374 C4 1.765 . S
C379 C17 1.762 . S
C384 C121 1.762 . S
C389 C134 1.761 . S
C394 C30 1.761 . S
C399 C49 1.765 . S
C404 C153 1.765 . S
C409 C166 1.764 . S
C414 C56 1.764 . S
C419 C69 1.765 . S
C424 C179 1.765 . S
C429 C192 1.761 . S
C434 C88 1.761 . S
C439 C199 1.764 . S
C444 C95 1.764 . S
C449 C55 1.707 . S
C454 C3 1.707 . S
C459 C68 1.707 . S
C464 C16 1.707 . S
C469 C29 1.708 1_455 S
C474 C83 1.708 1_455 S
C479 C94 1.707 1_545 S
C484 C44 1.707 1_545 S
C489 C107 1.708 . S
C494 C161 1.708 . S
C499 C174 1.708 . S
C504 C120 1.708 . S
C509 C187 1.707 1_655 S
C514 C133 1.707 1_655 S
C519 C198 1.708 1_565 S
C524 C148 1.708 1_565 S
