# Generated by pormake.
# Topology crb, (4)-cn, num edge types: 1
# Building blocks:
#     Node 0, Type 0, BuildingBlock: KUFVIS_clean_sbu_0, # of connection points: 4
#     Node 1, Type 0, BuildingBlock: KUFVIS_clean_sbu_0, # of connection points: 4
#     Node 2, Type 0, BuildingBlock: KUFVIS_clean_sbu_0, # of connection points: 4
#     Node 3, Type 0, BuildingBlock: KUFVIS_clean_sbu_0, # of connection points: 4
#     Node 4, Type 0, BuildingBlock: KUFVIS_clean_sbu_0, # of connection points: 4
#     Node 5, Type 0, BuildingBlock: KUFVIS_clean_sbu_0, # of connection points: 4
#     Node 6, Type 0, BuildingBlock: KUFVIS_clean_sbu_0, # of connection points: 4
#     Node 7, Type 0, BuildingBlock: KUFVIS_clean_sbu_0, # of connection points: 4
#     Edge 8, Type (0, 0), BuildingBlock: OJICUG_clean_linker_0, # of connection points: 2
#     Edge 9, Type (0, 0), BuildingBlock: OJICUG_clean_linker_0, # of connection points: 2
#     Edge 10, Type (0, 0), BuildingBlock: OJICUG_clean_linker_0, # of connection points: 2
#     Edge 11, Type (0, 0), BuildingBlock: OJICUG_clean_linker_0, # of connection points: 2
#     Edge 12, Type (0, 0), BuildingBlock: OJICUG_clean_linker_0, # of connection points: 2
#     Edge 13, Type (0, 0), BuildingBlock: OJICUG_clean_linker_0, # of connection points: 2
#     Edge 14, Type (0, 0), BuildingBlock: OJICUG_clean_linker_0, # of connection points: 2
#     Edge 15, Type (0, 0), BuildingBlock: OJICUG_clean_linker_0, # of connection points: 2
#     Edge 16, Type (0, 0), BuildingBlock: OJICUG_clean_linker_0, # of connection points: 2
#     Edge 17, Type (0, 0), BuildingBlock: OJICUG_clean_linker_0, # of connection points: 2
#     Edge 18, Type (0, 0), BuildingBlock: OJICUG_clean_linker_0, # of connection points: 2
#     Edge 19, Type (0, 0), BuildingBlock: OJICUG_clean_linker_0, # of connection points: 2
#     Edge 20, Type (0, 0), BuildingBlock: OJICUG_clean_linker_0, # of connection points: 2
#     Edge 21, Type (0, 0), BuildingBlock: OJICUG_clean_linker_0, # of connection points: 2
#     Edge 22, Type (0, 0), BuildingBlock: OJICUG_clean_linker_0, # of connection points: 2
#     Edge 23, Type (0, 0), BuildingBlock: OJICUG_clean_linker_0, # of connection points: 2
# Relax obj value: 0.084
# Max RMSD: 0.128
# Mean RMSD: 0.128
data_MOF--net-crb--node1-KUFVIS_clean_sbu_0--edge1-OJICUG_clean_linker_0
_symmetry_space_group_name_H-M    P1
_symmetry_Int_Tables_number       1
_symmetry_cell_setting            triclinic
loop_
_symmetry_equiv_pos_as_xyz
'x, y, z'
_cell_length_a     31.180549
_cell_length_b     31.044518
_cell_length_c     16.315918
_cell_angle_alpha  90.008688
_cell_angle_beta   89.984335
_cell_angle_gamma 89.949419
loop_
_atom_site_label
_atom_site_type_symbol
_atom_site_fract_x
_atom_site_fract_y
_atom_site_fract_z
_atom_type_partial_charge
Mn0 Mn 0.32254 0.37546 0.09864 0.0
Mn1 Mn 0.35045 0.27053 0.094 0.0
C2 C 0.39462 0.3562 0.10109 0.0
C3 C 0.30907 0.44644 0.05649 0.0
C4 C 0.3082 0.31235 0.24016 0.0
O5 O 0.27155 0.34745 0.03966 0.0
O6 O 0.2926 0.27726 0.04221 0.0
C7 C 0.34971 0.23288 0.92692 0.0
N8 N 0.37299 0.24466 0.99401 0.0
C9 C 0.42949 0.18607 0.94672 0.0
C10 C 0.40186 0.17718 0.88209 0.0
C11 C 0.3636 0.20054 0.87207 0.0
C12 C 0.41064 0.22531 1.01015 0.0
H13 H 0.31902 0.24761 0.91529 0.0
C14 C 0.26631 0.30745 1.02115 0.0
O15 O 0.29168 0.43009 0.1209 0.0
O16 O 0.33192 0.42058 1.01118 0.0
N17 N 0.40642 0.2658 0.14207 0.0
C18 C 0.41905 0.27928 0.21762 0.0
C19 C 0.46168 0.27554 0.24381 0.0
C20 C 0.49381 0.25606 0.19664 0.0
C21 C 0.48376 0.23478 0.12044 0.0
C22 C 0.43364 0.2468 0.09066 0.0
H23 H 0.39667 0.29525 0.25788 0.0
O24 O 0.38084 0.38999 0.14029 0.0
O25 O 0.36534 0.33176 0.06693 0.0
O26 O 0.3047 0.34924 0.2085 0.0
O27 O 0.32584 0.28177 0.20225 0.0
C28 C 0.51591 0.17453 1.02323 0.0
C29 C 0.47861 0.16149 0.94969 0.0
H30 H 0.41057 0.15308 0.83712 0.0
H31 H 0.34335 0.19287 0.8202 0.0
H32 H 0.47024 0.28891 0.30288 0.0
H33 H 0.52515 0.2564 0.22475 0.0
H34 H 0.54651 0.15727 1.02308 0.0
H35 H 0.48664 0.13752 0.90407 0.0
Mn36 Mn 0.64722 0.37588 1.0091 0.0
Mn37 Mn 0.61963 0.27092 1.01375 0.0
C38 C 0.57519 0.35651 1.00681 0.0
C39 C 0.66056 0.44687 0.05123 0.0
C40 C 0.66166 0.31279 0.86752 0.0
O41 O 0.69833 0.34794 0.06796 0.0
O42 O 0.67748 0.27773 0.06543 0.0
C43 C 0.62058 0.2333 0.18084 0.0
N44 N 0.59723 0.24502 0.11378 0.0
C45 C 0.54101 0.18624 0.16104 0.0
C46 C 0.5687 0.17743 0.22564 0.0
C47 C 0.60686 0.20091 0.23566 0.0
C48 C 0.55965 0.22557 0.09767 0.0
H49 H 0.65121 0.24811 0.19245 0.0
C50 C 0.70369 0.30794 0.08645 0.0
O51 O 0.67792 0.43053 0.98675 0.0
O52 O 0.63779 0.42102 0.09659 0.0
N53 N 0.56365 0.26608 0.96578 0.0
C54 C 0.55095 0.27954 0.89026 0.0
C55 C 0.50834 0.27568 0.86409 0.0
C56 C 0.47632 0.25607 0.91124 0.0
C57 C 0.48648 0.23481 0.9874 0.0
C58 C 0.53654 0.247 1.0172 0.0
H59 H 0.57324 0.29558 0.85 0.0
O60 O 0.58883 0.39033 0.96761 0.0
O61 O 0.60457 0.33213 0.04089 0.0
O62 O 0.66506 0.34968 0.89919 0.0
O63 O 0.64415 0.28218 0.90547 0.0
C64 C 0.45466 0.17441 0.08452 0.0
C65 C 0.49202 0.16149 0.15804 0.0
H66 H 0.56012 0.15329 0.27058 0.0
H67 H 0.62715 0.19329 0.28751 0.0
H68 H 0.49969 0.28904 0.80505 0.0
H69 H 0.44497 0.25631 0.88314 0.0
H70 H 0.42415 0.15704 0.08464 0.0
H71 H 0.48413 0.13748 0.20362 0.0
Mn72 Mn 0.64711 0.70338 0.0982 0.0
Mn73 Mn 0.61918 0.8083 0.09366 0.0
C74 C 0.57503 0.72263 0.10077 0.0
C75 C 0.66058 0.6324 0.05601 0.0
C76 C 0.66144 0.76649 0.23972 0.0
O77 O 0.69808 0.73139 0.03916 0.0
O78 O 0.67703 0.80159 0.04181 0.0
C79 C 0.61991 0.84593 0.92656 0.0
N80 N 0.59665 0.83417 0.9937 0.0
C81 C 0.54014 0.89276 0.94649 0.0
C82 C 0.56777 0.90163 0.88181 0.0
C83 C 0.60603 0.87826 0.87174 0.0
C84 C 0.559 0.85352 1.00989 0.0
H85 H 0.6506 0.83119 0.91488 0.0
C86 C 0.70331 0.77141 1.0207 0.0
O87 O 0.67798 0.64876 0.12039 0.0
O88 O 0.63772 0.65825 1.01074 0.0
N89 N 0.56321 0.81304 0.14179 0.0
C90 C 0.55059 0.79956 0.21735 0.0
C91 C 0.50796 0.80331 0.24359 0.0
C92 C 0.47584 0.8228 0.19647 0.0
C93 C 0.48588 0.84407 0.12027 0.0
C94 C 0.536 0.83205 0.09042 0.0
H95 H 0.57296 0.78359 0.25757 0.0
O96 O 0.58881 0.68885 0.13993 0.0
O97 O 0.6043 0.74707 0.06657 0.0
O98 O 0.66496 0.72961 0.20803 0.0
O99 O 0.64379 0.79707 0.20186 0.0
C100 C 0.45373 0.9043 1.02309 0.0
C101 C 0.49102 0.91734 0.94951 0.0
H102 H 0.55906 0.92573 0.83685 0.0
H103 H 0.62626 0.88592 0.81983 0.0
H104 H 0.4994 0.78994 0.30266 0.0
H105 H 0.44449 0.82246 0.22462 0.0
H106 H 0.42313 0.92156 1.02298 0.0
H107 H 0.483 0.9413 0.9039 0.0
Mn108 Mn 0.32242 0.70294 1.00921 0.0
Mn109 Mn 0.35002 0.80791 1.01376 0.0
C110 C 0.39445 0.7223 1.00678 0.0
C111 C 0.30909 0.63197 0.05145 0.0
C112 C 0.30798 0.766 0.86762 0.0
O113 O 0.27132 0.73091 0.0681 0.0
O114 O 0.29218 0.80112 0.0655 0.0
C115 C 0.34908 0.84554 0.18086 0.0
N116 N 0.37242 0.83382 0.11376 0.0
C117 C 0.42863 0.89261 0.16094 0.0
C118 C 0.40095 0.90143 0.22558 0.0
C119 C 0.36281 0.87794 0.23566 0.0
C120 C 0.40999 0.85328 0.09759 0.0
H121 H 0.31846 0.83072 0.19252 0.0
C122 C 0.26597 0.77091 0.08656 0.0
O123 O 0.29172 0.64828 0.98697 0.0
O124 O 0.33186 0.65785 0.09674 0.0
N125 N 0.40599 0.81273 0.96572 0.0
C126 C 0.41869 0.79926 0.89018 0.0
C127 C 0.4613 0.80312 0.86396 0.0
C128 C 0.49332 0.82274 0.91106 0.0
C129 C 0.48315 0.84403 0.98723 0.0
C130 C 0.4331 0.83184 1.01709 0.0
H131 H 0.3964 0.78319 0.84997 0.0
O132 O 0.3808 0.68847 0.96764 0.0
O133 O 0.36507 0.7467 0.04089 0.0
O134 O 0.30457 0.72911 0.8993 0.0
O135 O 0.32551 0.79661 0.90553 0.0
C136 C 0.51498 0.90443 0.08431 0.0
C137 C 0.47762 0.91737 0.15788 0.0
H138 H 0.40954 0.92558 0.27052 0.0
H139 H 0.34252 0.88556 0.28755 0.0
H140 H 0.46994 0.78975 0.80491 0.0
H141 H 0.52467 0.8225 0.88292 0.0
H142 H 0.5455 0.9218 0.0844 0.0
H143 H 0.48552 0.94139 0.20346 0.0
Mn144 Mn 0.82234 0.87589 0.5981 0.0
Mn145 Mn 0.85008 0.77091 0.59359 0.0
C146 C 0.89439 0.8565 0.60066 0.0
C147 C 0.80899 0.94687 0.55586 0.0
C148 C 0.80788 0.81284 0.73966 0.0
O149 O 0.77132 0.84795 0.5391 0.0
O150 O 0.79226 0.77773 0.54176 0.0
C151 C 0.84931 0.73326 0.42651 0.0
N152 N 0.87259 0.74498 0.49363 0.0
C153 C 0.92896 0.68622 0.44648 0.0
C154 C 0.90133 0.6774 0.38181 0.0
C155 C 0.86314 0.70087 0.37171 0.0
C156 C 0.91019 0.72554 0.50984 0.0
H157 H 0.81867 0.74807 0.41482 0.0
C158 C 0.76603 0.80794 0.52065 0.0
O159 O 0.79156 0.93057 0.62028 0.0
O160 O 0.83182 0.92097 0.5106 0.0
N161 N 0.90603 0.76608 0.64171 0.0
C162 C 0.91866 0.77954 0.71727 0.0
C163 C 0.96126 0.7757 0.74353 0.0
C164 C -0.00665 0.7561 0.69644 0.0
C165 C 0.98328 0.73482 0.62026 0.0
C166 C 0.93321 0.74698 0.59037 0.0
H167 H 0.89631 0.7956 0.75747 0.0
O168 O 0.88066 0.89033 0.6398 0.0
O169 O 0.86507 0.83211 0.56648 0.0
O170 O 0.80443 0.84973 0.70797 0.0
O171 O 0.82548 0.78223 0.70178 0.0
C172 C 0.0153 0.67446 0.52315 0.0
C173 C 0.97801 0.6615 0.44956 0.0
H174 H 0.90999 0.65326 0.33687 0.0
H175 H 0.8429 0.69324 0.3198 0.0
H176 H 0.96984 0.78907 0.80259 0.0
H177 H 0.02469 0.75636 0.72461 0.0
H178 H 0.04586 0.65711 0.52307 0.0
H179 H -0.01402 0.6375 0.40397 0.0
Mn180 Mn 0.14707 0.87552 0.50926 0.0
Mn181 Mn 0.11928 0.7706 0.51386 0.0
C182 C 0.07501 0.8563 0.50681 0.0
C183 C 0.16051 0.94647 0.55146 0.0
C184 C 0.16145 0.8124 0.36771 0.0
O185 O 0.1981 0.84747 0.56816 0.0
O186 O 0.17711 0.7773 0.56566 0.0
C187 C 0.12004 0.73299 0.68095 0.0
N188 N 0.09676 0.74475 0.61383 0.0
C189 C 0.04037 0.68613 0.661 0.0
C190 C 0.06799 0.67726 0.72567 0.0
C191 C 0.1062 0.70065 0.73577 0.0
C192 C 0.05915 0.72539 0.59763 0.0
H193 H 0.15069 0.74774 0.69263 0.0
C194 C 0.20337 0.80746 0.58667 0.0
O195 O 0.17788 0.93012 0.487 0.0
O196 O 0.13768 0.92065 0.59677 0.0
N197 N 0.06333 0.76589 0.46574 0.0
C198 C 0.0507 0.77936 0.39019 0.0
C199 C 0.00809 0.7756 0.36393 0.0
C200 C 0.976 0.75608 0.41103 0.0
C201 C -0.01393 0.7348 0.48721 0.0
C202 C 0.03614 0.74686 0.5171 0.0
H203 H 0.07305 0.79536 0.34998 0.0
O204 O 0.08874 0.8901 0.46767 0.0
O205 O 0.10432 0.83185 0.54095 0.0
O206 O 0.16489 0.8493 0.39935 0.0
O207 O 0.14388 0.78182 0.40565 0.0
C208 C 0.95402 0.67453 0.58434 0.0
C209 C -0.00869 0.66151 0.65793 0.0
H210 H 0.05932 0.65315 0.77062 0.0
H211 H 0.12644 0.69299 0.78767 0.0
H212 H -0.00048 0.78898 0.30486 0.0
H213 H 0.94466 0.7564 0.38286 0.0
H214 H 0.92346 0.65725 0.58442 0.0
H215 H 0.98333 0.63754 0.70353 0.0
Mn216 Mn 0.14726 0.20301 0.59862 0.0
Mn217 Mn 0.11953 0.30799 0.59412 0.0
C218 C 0.07521 0.22241 0.60106 0.0
C219 C 0.16063 0.13201 0.55642 0.0
C220 C 0.16166 0.26607 0.74023 0.0
O221 O 0.19831 0.23093 0.53965 0.0
O222 O 0.1774 0.30117 0.54239 0.0
C223 C 0.12045 0.34565 0.42707 0.0
N224 N 0.09711 0.33392 0.49413 0.0
C225 C 0.04078 0.39267 0.44689 0.0
C226 C 0.06847 0.40151 0.3823 0.0
C227 C 0.10667 0.37805 0.37227 0.0
C228 C 0.05949 0.35335 0.51026 0.0
H229 H 0.15111 0.33084 0.41543 0.0
C230 C 0.20363 0.27094 0.52124 0.0
O231 O 0.17803 0.14833 0.62085 0.0
O232 O 0.13783 0.1579 0.51113 0.0
N233 N 0.06354 0.31282 0.64212 0.0
C234 C 0.05084 0.29935 0.71763 0.0
C235 C 0.0082 0.30319 0.74379 0.0
C236 C 0.97615 0.32277 0.69663 0.0
C237 C -0.0137 0.34405 0.62048 0.0
C238 C 0.0364 0.3319 0.59071 0.0
H239 H 0.07315 0.28331 0.75788 0.0
O240 O 0.08891 0.18859 0.64025 0.0
O241 O 0.10456 0.24679 0.56694 0.0
O242 O 0.16514 0.22919 0.70849 0.0
O243 O 0.14405 0.29668 0.70238 0.0
C244 C 0.95436 0.40443 0.52336 0.0
C245 C -0.00827 0.41739 0.44988 0.0
H246 H 0.05985 0.42565 0.33736 0.0
H247 H 0.12696 0.38568 0.32042 0.0
H248 H -0.00043 0.28981 0.80282 0.0
H249 H 0.94479 0.32251 0.72471 0.0
H250 H 0.92381 0.42178 0.52323 0.0
H251 H 0.98379 0.4414 0.40429 0.0
Mn252 Mn 0.82263 0.20337 0.50894 0.0
Mn253 Mn 0.85038 0.30829 0.5137 0.0
C254 C 0.89469 0.22261 0.50664 0.0
C255 C 0.80917 0.1324 0.551 0.0
C256 C 0.8083 0.26652 0.36744 0.0
O257 O 0.77156 0.23139 0.56784 0.0
O258 O 0.79251 0.30157 0.5654 0.0
C259 C 0.84947 0.34589 0.68083 0.0
N260 N 0.87281 0.33413 0.61376 0.0
C261 C 0.92916 0.39274 0.66114 0.0
C262 C 0.90148 0.4016 0.72575 0.0
C263 C 0.86326 0.37822 0.73572 0.0
C264 C 0.91044 0.35349 0.59768 0.0
H265 H 0.8188 0.33114 0.69242 0.0
C266 C 0.76626 0.27139 0.58638 0.0
O267 O 0.79184 0.14878 0.48655 0.0
O268 O 0.83197 0.15822 0.59638 0.0
N269 N 0.90639 0.31303 0.46572 0.0
C270 C 0.91908 0.29956 0.39018 0.0
C271 C 0.96172 0.30332 0.36404 0.0
C272 C -0.00623 0.32282 0.41124 0.0
C273 C 0.98363 0.34409 0.48743 0.0
C274 C 0.93353 0.33203 0.51718 0.0
H275 H 0.89676 0.28359 0.3499 0.0
O276 O 0.88099 0.18883 0.4674 0.0
O277 O 0.86534 0.24705 0.54076 0.0
O278 O 0.80485 0.22962 0.39907 0.0
O279 O 0.82586 0.2971 0.40541 0.0
C280 C 0.01558 0.40435 0.5847 0.0
C281 C 0.97822 0.41736 0.65821 0.0
H282 H 0.91011 0.42571 0.77074 0.0
H283 H 0.84297 0.38588 0.78757 0.0
H284 H 0.97035 0.28996 0.30497 0.0
H285 H 0.02513 0.3225 0.38316 0.0
H286 H 0.04615 0.42163 0.58487 0.0
H287 H -0.01384 0.44133 0.70385 0.0
C288 C 0.27016 0.51671 0.05223 0.0
C289 C 0.30891 0.49376 0.04691 0.0
H290 H 0.23986 0.57887 0.05762 0.0
C291 C 0.34774 0.51666 0.04942 0.0
H292 H 0.23983 0.49969 0.05264 0.0
C293 C 0.34778 0.56169 0.05734 0.0
C294 C 0.30897 0.58466 0.06115 0.0
H295 H 0.37807 0.4996 0.04806 0.0
H296 H 0.37811 0.57869 0.05769 0.0
C297 C 0.27018 0.5618 0.05708 0.0
C298 C 0.4528 0.35446 0.99424 0.0
C299 C 0.44087 0.35395 0.07732 0.0
H300 H 0.50435 0.36051 0.90728 0.0
C301 C 0.47354 0.35691 0.13644 0.0
H302 H 0.42844 0.35495 0.94693 0.0
C303 C 0.51702 0.3545 0.11364 0.0
C304 C 0.52895 0.35412 1.03057 0.0
H305 H 0.46544 0.36031 0.20062 0.0
H306 H 0.54137 0.35502 0.16096 0.0
C307 C 0.49627 0.35704 0.97145 0.0
C308 C 0.69947 0.51705 0.05649 0.0
C309 C 0.66068 0.49419 0.06084 0.0
H310 H 0.72982 0.57914 0.05175 0.0
C311 C 0.62187 0.51716 0.05725 0.0
H312 H 0.72979 0.49997 0.05687 0.0
C313 C 0.6219 0.56219 0.04925 0.0
C314 C 0.66073 0.58508 0.04644 0.0
H315 H 0.59154 0.50016 0.05782 0.0
H316 H 0.59157 0.57925 0.04806 0.0
C317 C 0.69949 0.56213 0.05155 0.0
C318 C 0.47336 0.72177 0.9713 0.0
C319 C 0.44069 0.72469 1.03047 0.0
H320 H 0.54118 0.72386 0.94665 0.0
C321 C 0.45264 0.72432 0.11353 0.0
H322 H 0.46527 0.71829 0.90714 0.0
C323 C 0.49612 0.72192 0.13625 0.0
C324 C 0.52878 0.72488 0.07707 0.0
H325 H 0.42829 0.72381 0.16088 0.0
H326 H 0.50423 0.71853 0.20041 0.0
C327 C 0.51683 0.72436 0.99401 0.0
C328 C 0.77015 1.01716 0.5508 0.0
C329 C 0.80891 0.99419 0.54624 0.0
H330 H 0.73988 0.07935 0.55566 0.0
C331 C 0.84775 1.01705 0.54959 0.0
H332 H 0.73981 1.00017 0.55059 0.0
C333 C 0.84778 0.06208 0.55756 0.0
C334 C 0.80898 0.08508 0.56059 0.0
H335 H 0.87806 0.99997 0.54884 0.0
H336 H 0.87813 0.07905 0.55856 0.0
C337 C 0.77019 0.06225 0.55571 0.0
C338 C -0.00388 0.85699 0.47127 0.0
C339 C 0.02876 0.85402 0.53047 0.0
H340 H 0.92831 0.85507 0.44658 0.0
C341 C 0.01677 0.85449 0.61352 0.0
H342 H 0.00426 0.86041 0.40712 0.0
C343 C 0.97328 0.85704 0.6362 0.0
C344 C 0.94064 0.85413 0.57701 0.0
H345 H 0.04109 0.85498 0.66089 0.0
H346 H 0.96514 0.8605 0.70036 0.0
C347 C 0.95263 0.85454 0.49396 0.0
C348 C 0.1995 0.06173 0.55156 0.0
C349 C 0.16074 0.08469 0.54681 0.0
H350 H 0.22978 0.99955 0.55655 0.0
C351 C 0.12191 0.06182 0.54993 0.0
H352 H 0.22983 0.07873 0.55153 0.0
C353 C 0.12187 1.01678 0.55788 0.0
C354 C 0.16068 0.99379 0.5611 0.0
H355 H 0.09159 0.07889 0.54903 0.0
H356 H 0.09153 0.9998 0.5587 0.0
C357 C 0.19947 1.01664 0.55645 0.0
C358 C 0.95281 0.2244 0.61353 0.0
C359 C 0.94092 0.22488 0.53045 0.0
H360 H 0.00433 0.21839 0.70053 0.0
C361 C 0.97363 0.22192 0.47135 0.0
H362 H 0.92843 0.2239 0.66083 0.0
C363 C 0.01708 0.22436 0.49418 0.0
C364 C 0.02898 0.22477 0.57727 0.0
H365 H 0.96556 0.21851 0.40717 0.0
H366 H 0.04146 0.22385 0.44688 0.0
C367 C -0.00373 0.22185 0.63636 0.0
C368 C 0.26141 0.25051 0.42036 0.0
C369 C 0.23804 0.28267 0.46156 0.0
H370 H 0.30201 0.2346 0.3191 0.0
C371 C 0.24304 0.32574 0.43565 0.0
H372 H 0.25869 0.21704 0.43837 0.0
C373 C 0.26748 0.33581 0.36615 0.0
C374 C 0.2881 0.30317 0.32128 0.0
H375 H 0.22607 0.35162 0.46622 0.0
H376 H 0.26865 0.36897 0.34568 0.0
C377 C 0.28618 0.26064 0.35134 0.0
C378 C 0.76143 0.32838 0.18728 0.0
C379 C 0.73812 0.29622 0.14609 0.0
H380 H 0.802 0.34429 0.28852 0.0
C381 C 0.7432 0.25314 0.17198 0.0
H382 H 0.75864 0.36184 0.16928 0.0
C383 C 0.76766 0.24307 0.24145 0.0
C384 C 0.78821 0.27571 0.28633 0.0
H385 H 0.72628 0.22727 0.14143 0.0
H386 H 0.76889 0.20991 0.26191 0.0
C387 C 0.78622 0.31825 0.25628 0.0
C388 C 0.70823 0.82835 0.41988 0.0
C389 C 0.73163 0.7962 0.461 0.0
H390 H 0.66758 0.84425 0.31872 0.0
C391 C 0.72666 0.75313 0.43505 0.0
H392 H 0.71093 0.86182 0.43793 0.0
C393 C 0.70221 0.74305 0.3656 0.0
C394 C 0.68155 0.77568 0.3208 0.0
H395 H 0.74366 0.72726 0.46556 0.0
H396 H 0.70106 0.70989 0.34509 0.0
C397 C 0.68345 0.81821 0.3509 0.0
C398 C 0.18347 0.76067 0.25649 0.0
C399 C 0.18152 0.8032 0.28657 0.0
H400 H 0.21098 0.71705 0.16941 0.0
C401 C 0.20209 0.83583 0.24168 0.0
H402 H 0.16767 0.73464 0.28873 0.0
C403 C 0.22651 0.82574 0.17215 0.0
C404 C 0.23155 0.78266 0.14623 0.0
H405 H 0.20088 0.869 0.26217 0.0
H406 H 0.24345 0.8516 0.14159 0.0
C407 C 0.20822 0.75052 0.18743 0.0
C408 C 0.26123 0.8278 0.68731 0.0
C409 C 0.23778 0.79567 0.64631 0.0
H410 H 0.30191 0.84368 0.78838 0.0
C411 C 0.24273 0.75261 0.67235 0.0
H412 H 0.25855 0.86125 0.66917 0.0
C413 C 0.26719 0.74253 0.74181 0.0
C414 C 0.28788 0.77515 0.78651 0.0
H415 H 0.2257 0.72676 0.64194 0.0
H416 H 0.26831 0.70938 0.76241 0.0
C417 C 0.28602 0.81766 0.75629 0.0
C418 C 0.20842 0.32784 0.92054 0.0
C419 C 0.23191 0.29569 0.9615 0.0
H420 H 0.1677 0.34375 0.81951 0.0
C421 C 0.227 0.25263 0.93542 0.0
H422 H 0.21107 0.36129 0.93869 0.0
C423 C 0.20253 0.24258 0.86598 0.0
C424 C 0.18178 0.27521 0.82133 0.0
H425 H 0.24406 0.22677 0.9658 0.0
H426 H 0.20142 0.20943 0.84536 0.0
C427 C 0.18362 0.31772 0.85157 0.0
C428 C 0.68366 0.26112 0.75616 0.0
C429 C 0.68175 0.30363 0.78637 0.0
H430 H 0.71116 0.21754 0.669 0.0
C431 C 0.70238 0.33627 0.74161 0.0
H432 H 0.66781 0.23509 0.7883 0.0
C433 C 0.72683 0.32621 0.67209 0.0
C434 C 0.73183 0.28315 0.64605 0.0
H435 H 0.70121 0.36942 0.76219 0.0
H436 H 0.74381 0.35207 0.64163 0.0
C437 C 0.70844 0.251 0.68711 0.0
C438 C 0.74258 0.82624 0.93497 0.0
C439 C 0.7377 0.78318 0.96102 0.0
H440 H 0.76811 0.86946 0.84489 0.0
C441 C 0.76119 0.75105 0.91999 0.0
H442 H 0.72552 0.8521 0.96542 0.0
C443 C 0.78596 0.76118 0.85099 0.0
C444 C 0.78777 0.80369 0.82077 0.0
H445 H 0.75857 0.71759 0.93812 0.0
H446 H 0.8019 0.73516 0.81888 0.0
C447 C 0.76703 0.83632 0.86549 0.0
loop_
_geom_bond_atom_site_label_1
_geom_bond_atom_site_label_2
_geom_bond_distance
_geom_bond_site_symmetry_2
_ccdc_geom_bond_type
Mn0 O5 2.095 1_554 S
Mn0 O15 2.162 . S
Mn0 O16 2.297 1_554 S
Mn0 O24 2.385 . S
Mn0 O25 2.209 . S
Mn0 O26 2.094 . S
Mn1 O6 2.121 1_554 S
Mn1 N8 2.257 1_554 S
Mn1 N17 2.282 . S
Mn1 O25 2.215 . S
Mn1 O27 2.117 . S
C2 O24 1.234 . S
C2 O25 1.283 . S
C3 O15 1.281 . S
C3 O16 1.236 1_554 S
C4 O26 1.240 . S
C4 O27 1.264 . S
O5 Mn0 2.095 1_556 S
O5 C14 1.250 . S
O6 Mn1 2.121 1_556 S
O6 C14 1.258 . S
C7 N8 1.326 . S
C7 C11 1.460 . S
C7 H13 0.929 . S
N8 Mn1 2.257 1_556 S
N8 C7 1.326 . S
N8 C12 1.362 . S
C9 C10 1.258 . S
C9 C12 1.431 . S
C9 C29 1.449 . S
C10 C9 1.258 . S
C10 C11 1.477 . S
C10 H30 0.931 . S
C11 C7 1.460 . S
C11 C10 1.477 . S
C11 H31 0.930 . S
C12 N8 1.362 . S
C12 C9 1.431 . S
C12 C22 1.476 1_556 S
H13 C7 0.929 . S
C14 O5 1.250 . S
C14 O6 1.258 . S
O15 Mn0 2.162 . S
O15 C3 1.281 . S
O16 Mn0 2.297 1_556 S
O16 C3 1.236 1_556 S
N17 Mn1 2.282 . S
N17 C18 1.328 . S
N17 C22 1.318 . S
C18 N17 1.328 . S
C18 C19 1.457 . S
C18 H23 0.929 . S
C19 C18 1.457 . S
C19 C20 1.291 . S
C19 H32 0.931 . S
C20 C19 1.291 . S
C20 C21 1.373 . S
C20 H33 0.929 . S
C21 C20 1.373 . S
C21 C22 1.396 . S
C21 C28 1.403 . S
C22 C12 1.476 1_554 S
C22 N17 1.318 . S
C22 C21 1.396 . S
H23 C18 0.929 . S
O24 Mn0 2.385 . S
O24 C2 1.234 . S
O25 Mn0 2.209 . S
O25 Mn1 2.215 . S
O25 C2 1.283 . S
O26 Mn0 2.094 . S
O26 C4 1.240 . S
O27 Mn1 2.117 . S
O27 C4 1.264 . S
C28 C21 1.403 . S
C28 C29 1.399 1_554 S
C28 H34 0.929 . S
C29 C9 1.449 . S
C29 C28 1.399 1_556 S
C29 H35 0.930 . S
H30 C10 0.931 . S
H31 C11 0.930 . S
H32 C19 0.931 . S
H33 C20 0.929 . S
H34 C28 0.929 . S
H35 C29 0.930 . S
Mn36 O41 2.095 1_556 S
Mn36 O51 2.162 . S
Mn36 O52 2.297 1_556 S
Mn36 O60 2.385 . S
Mn36 O61 2.209 1_556 S
Mn36 O62 2.094 . S
Mn37 O42 2.121 . S
Mn37 N44 2.257 . S
Mn37 N53 2.282 1_554 S
Mn37 O61 2.215 . S
Mn37 O63 2.117 1_554 S
C38 O60 1.234 . S
C38 O61 1.283 1_556 S
C39 O51 1.281 1_554 S
C39 O52 1.236 . S
C40 O62 1.240 . S
C40 O63 1.264 . S
O41 Mn36 2.095 1_554 S
O41 C50 1.250 . S
O42 Mn37 2.121 . S
O42 C50 1.258 . S
C43 N44 1.326 . S
C43 C47 1.460 . S
C43 H49 0.929 . S
N44 Mn37 2.257 . S
N44 C43 1.326 . S
N44 C48 1.362 . S
C45 C46 1.258 . S
C45 C48 1.431 . S
C45 C65 1.449 . S
C46 C45 1.258 . S
C46 C47 1.477 . S
C46 H66 0.931 . S
C47 C43 1.460 . S
C47 C46 1.477 . S
C47 H67 0.930 . S
C48 N44 1.362 . S
C48 C45 1.431 . S
C48 C58 1.476 1_554 S
H49 C43 0.929 . S
C50 O41 1.250 . S
C50 O42 1.258 . S
O51 Mn36 2.162 . S
O51 C39 1.281 1_556 S
O52 Mn36 2.297 1_554 S
O52 C39 1.236 . S
N53 Mn37 2.282 1_556 S
N53 C54 1.328 . S
N53 C58 1.318 . S
C54 N53 1.328 . S
C54 C55 1.457 . S
C54 H59 0.929 . S
C55 C54 1.457 . S
C55 C56 1.291 . S
C55 H68 0.931 . S
C56 C55 1.291 . S
C56 C57 1.373 . S
C56 H69 0.929 . S
C57 C56 1.373 . S
C57 C58 1.396 . S
C57 C64 1.403 . S
C58 C48 1.476 1_556 S
C58 N53 1.318 . S
C58 C57 1.396 . S
H59 C54 0.929 . S
O60 Mn36 2.385 . S
O60 C38 1.234 . S
O61 Mn36 2.209 1_554 S
O61 Mn37 2.215 . S
O61 C38 1.283 1_554 S
O62 Mn36 2.094 . S
O62 C40 1.240 . S
O63 Mn37 2.117 1_556 S
O63 C40 1.264 . S
C64 C57 1.403 . S
C64 C65 1.399 1_556 S
C64 H70 0.929 . S
C65 C45 1.449 . S
C65 C64 1.399 1_554 S
C65 H71 0.930 . S
H66 C46 0.931 . S
H67 C47 0.930 . S
H68 C55 0.931 . S
H69 C56 0.929 . S
H70 C64 0.929 . S
H71 C65 0.930 . S
Mn72 O77 2.095 1_554 S
Mn72 O87 2.162 . S
Mn72 O88 2.297 1_554 S
Mn72 O96 2.385 . S
Mn72 O97 2.209 . S
Mn72 O98 2.094 . S
Mn73 O78 2.121 1_554 S
Mn73 N80 2.257 1_554 S
Mn73 N89 2.282 . S
Mn73 O97 2.215 . S
Mn73 O99 2.117 . S
C74 O96 1.234 . S
C74 O97 1.283 . S
C75 O87 1.281 . S
C75 O88 1.236 1_554 S
C76 O98 1.240 . S
C76 O99 1.264 . S
O77 Mn72 2.095 1_556 S
O77 C86 1.250 . S
O78 Mn73 2.121 1_556 S
O78 C86 1.258 . S
C79 N80 1.326 . S
C79 C83 1.460 . S
C79 H85 0.929 . S
N80 Mn73 2.257 1_556 S
N80 C79 1.326 . S
N80 C84 1.362 . S
C81 C82 1.258 . S
C81 C84 1.431 . S
C81 C101 1.449 . S
C82 C81 1.258 . S
C82 C83 1.477 . S
C82 H102 0.931 . S
C83 C79 1.460 . S
C83 C82 1.477 . S
C83 H103 0.930 . S
C84 N80 1.362 . S
C84 C81 1.431 . S
C84 C94 1.476 1_556 S
H85 C79 0.929 . S
C86 O77 1.250 . S
C86 O78 1.258 . S
O87 Mn72 2.162 . S
O87 C75 1.281 . S
O88 Mn72 2.297 1_556 S
O88 C75 1.236 1_556 S
N89 Mn73 2.282 . S
N89 C90 1.328 . S
N89 C94 1.318 . S
C90 N89 1.328 . S
C90 C91 1.457 . S
C90 H95 0.929 . S
C91 C90 1.457 . S
C91 C92 1.291 . S
C91 H104 0.931 . S
C92 C91 1.291 . S
C92 C93 1.373 . S
C92 H105 0.929 . S
C93 C92 1.373 . S
C93 C94 1.396 . S
C93 C100 1.403 . S
C94 C84 1.476 1_554 S
C94 N89 1.318 . S
C94 C93 1.396 . S
H95 C90 0.929 . S
O96 Mn72 2.385 . S
O96 C74 1.234 . S
O97 Mn72 2.209 . S
O97 Mn73 2.215 . S
O97 C74 1.283 . S
O98 Mn72 2.094 . S
O98 C76 1.240 . S
O99 Mn73 2.117 . S
O99 C76 1.264 . S
C100 C93 1.403 . S
C100 C101 1.399 1_554 S
C100 H106 0.929 . S
C101 C81 1.449 . S
C101 C100 1.399 1_556 S
C101 H107 0.930 . S
H102 C82 0.931 . S
H103 C83 0.930 . S
H104 C91 0.931 . S
H105 C92 0.929 . S
H106 C100 0.929 . S
H107 C101 0.930 . S
Mn108 O113 2.095 1_556 S
Mn108 O123 2.162 . S
Mn108 O124 2.297 1_556 S
Mn108 O132 2.385 . S
Mn108 O133 2.209 1_556 S
Mn108 O134 2.094 . S
Mn109 O114 2.121 . S
Mn109 N116 2.257 . S
Mn109 N125 2.282 1_554 S
Mn109 O133 2.215 . S
Mn109 O135 2.117 1_554 S
C110 O132 1.234 . S
C110 O133 1.283 1_556 S
C111 O123 1.281 1_554 S
C111 O124 1.236 . S
C112 O134 1.240 . S
C112 O135 1.264 . S
O113 Mn108 2.095 1_554 S
O113 C122 1.250 . S
O114 Mn109 2.121 . S
O114 C122 1.258 . S
C115 N116 1.326 . S
C115 C119 1.460 . S
C115 H121 0.929 . S
N116 Mn109 2.257 . S
N116 C115 1.326 . S
N116 C120 1.362 . S
C117 C118 1.258 . S
C117 C120 1.431 . S
C117 C137 1.449 . S
C118 C117 1.258 . S
C118 C119 1.477 . S
C118 H138 0.931 . S
C119 C115 1.460 . S
C119 C118 1.477 . S
C119 H139 0.930 . S
C120 N116 1.362 . S
C120 C117 1.431 . S
C120 C130 1.476 1_554 S
H121 C115 0.929 . S
C122 O113 1.250 . S
C122 O114 1.258 . S
O123 Mn108 2.162 . S
O123 C111 1.281 1_556 S
O124 Mn108 2.297 1_554 S
O124 C111 1.236 . S
N125 Mn109 2.282 1_556 S
N125 C126 1.328 . S
N125 C130 1.318 . S
C126 N125 1.328 . S
C126 C127 1.457 . S
C126 H131 0.929 . S
C127 C126 1.457 . S
C127 C128 1.291 . S
C127 H140 0.931 . S
C128 C127 1.291 . S
C128 C129 1.373 . S
C128 H141 0.929 . S
C129 C128 1.373 . S
C129 C130 1.396 . S
C129 C136 1.403 . S
C130 C120 1.476 1_556 S
C130 N125 1.318 . S
C130 C129 1.396 . S
H131 C126 0.929 . S
O132 Mn108 2.385 . S
O132 C110 1.234 . S
O133 Mn108 2.209 1_554 S
O133 Mn109 2.215 . S
O133 C110 1.283 1_554 S
O134 Mn108 2.094 . S
O134 C112 1.240 . S
O135 Mn109 2.117 1_556 S
O135 C112 1.264 . S
C136 C129 1.403 . S
C136 C137 1.399 1_556 S
C136 H142 0.929 . S
C137 C117 1.449 . S
C137 C136 1.399 1_554 S
C137 H143 0.930 . S
H138 C118 0.931 . S
H139 C119 0.930 . S
H140 C127 0.931 . S
H141 C128 0.929 . S
H142 C136 0.929 . S
H143 C137 0.930 . S
Mn144 O149 2.095 . S
Mn144 O159 2.162 . S
Mn144 O160 2.297 . S
Mn144 O168 2.385 . S
Mn144 O169 2.209 . S
Mn144 O170 2.094 . S
Mn145 O150 2.121 . S
Mn145 N152 2.257 . S
Mn145 N161 2.282 . S
Mn145 O169 2.215 . S
Mn145 O171 2.117 . S
C146 O168 1.234 . S
C146 O169 1.283 . S
C147 O159 1.281 . S
C147 O160 1.236 . S
C148 O170 1.240 . S
C148 O171 1.264 . S
O149 Mn144 2.095 . S
O149 C158 1.250 . S
O150 Mn145 2.121 . S
O150 C158 1.258 . S
C151 N152 1.326 . S
C151 C155 1.460 . S
C151 H157 0.929 . S
N152 Mn145 2.257 . S
N152 C151 1.326 . S
N152 C156 1.362 . S
C153 C154 1.258 . S
C153 C156 1.431 . S
C153 C173 1.449 1_655 S
C154 C153 1.258 . S
C154 C155 1.477 . S
C154 H174 0.931 1_655 S
C155 C151 1.460 . S
C155 C154 1.477 . S
C155 H175 0.930 . S
C156 N152 1.362 . S
C156 C153 1.431 . S
C156 C166 1.476 . S
H157 C151 0.929 . S
C158 O149 1.250 . S
C158 O150 1.258 . S
O159 Mn144 2.162 . S
O159 C147 1.281 . S
O160 Mn144 2.297 . S
O160 C147 1.236 . S
N161 Mn145 2.282 . S
N161 C162 1.328 . S
N161 C166 1.318 . S
C162 N161 1.328 . S
C162 C163 1.457 . S
C162 H167 0.929 . S
C163 C162 1.457 . S
C163 C164 1.291 . S
C163 H176 0.931 . S
C164 C163 1.291 . S
C164 C165 1.373 . S
C164 H177 0.929 1_655 S
C165 C164 1.373 . S
C165 C166 1.396 . S
C165 C172 1.403 1_655 S
C166 C156 1.476 . S
C166 N161 1.318 . S
C166 C165 1.396 . S
H167 C162 0.929 . S
O168 Mn144 2.385 . S
O168 C146 1.234 . S
O169 Mn144 2.209 . S
O169 Mn145 2.215 . S
O169 C146 1.283 . S
O170 Mn144 2.094 . S
O170 C148 1.240 . S
O171 Mn145 2.117 . S
O171 C148 1.264 . S
C172 C165 1.403 1_455 S
C172 C173 1.399 . S
C172 H178 0.929 . S
C173 C153 1.449 1_455 S
C173 C172 1.399 . S
C173 H179 0.930 . S
H174 C154 0.931 1_455 S
H175 C155 0.930 . S
H176 C163 0.931 . S
H177 C164 0.929 1_455 S
H178 C172 0.929 . S
H179 C173 0.930 . S
Mn180 O185 2.095 . S
Mn180 O195 2.162 . S
Mn180 O196 2.297 . S
Mn180 O204 2.385 . S
Mn180 O205 2.209 . S
Mn180 O206 2.094 . S
Mn181 O186 2.121 . S
Mn181 N188 2.257 . S
Mn181 N197 2.282 . S
Mn181 O205 2.215 . S
Mn181 O207 2.117 . S
C182 O204 1.234 . S
C182 O205 1.283 . S
C183 O195 1.281 . S
C183 O196 1.236 . S
C184 O206 1.240 . S
C184 O207 1.264 . S
O185 Mn180 2.095 . S
O185 C194 1.250 . S
O186 Mn181 2.121 . S
O186 C194 1.258 . S
C187 N188 1.326 . S
C187 C191 1.460 . S
C187 H193 0.929 . S
N188 Mn181 2.257 . S
N188 C187 1.326 . S
N188 C192 1.362 . S
C189 C190 1.258 . S
C189 C192 1.431 . S
C189 C209 1.449 1_455 S
C190 C189 1.258 . S
C190 C191 1.477 . S
C190 H210 0.931 1_455 S
C191 C187 1.460 . S
C191 C190 1.477 . S
C191 H211 0.930 . S
C192 N188 1.362 . S
C192 C189 1.431 . S
C192 C202 1.476 . S
H193 C187 0.929 . S
C194 O185 1.250 . S
C194 O186 1.258 . S
O195 Mn180 2.162 . S
O195 C183 1.281 . S
O196 Mn180 2.297 . S
O196 C183 1.236 . S
N197 Mn181 2.282 . S
N197 C198 1.328 . S
N197 C202 1.318 . S
C198 N197 1.328 . S
C198 C199 1.457 . S
C198 H203 0.929 . S
C199 C198 1.457 . S
C199 C200 1.291 . S
C199 H212 0.931 . S
C200 C199 1.291 . S
C200 C201 1.373 . S
C200 H213 0.929 1_455 S
C201 C200 1.373 . S
C201 C202 1.396 . S
C201 C208 1.403 1_455 S
C202 C192 1.476 . S
C202 N197 1.318 . S
C202 C201 1.396 . S
H203 C198 0.929 . S
O204 Mn180 2.385 . S
O204 C182 1.234 . S
O205 Mn180 2.209 . S
O205 Mn181 2.215 . S
O205 C182 1.283 . S
O206 Mn180 2.094 . S
O206 C184 1.240 . S
O207 Mn181 2.117 . S
O207 C184 1.264 . S
C208 C201 1.403 1_655 S
C208 C209 1.399 . S
C208 H214 0.929 . S
C209 C189 1.449 1_655 S
C209 C208 1.399 . S
C209 H215 0.930 . S
H210 C190 0.931 1_655 S
H211 C191 0.930 . S
H212 C199 0.931 . S
H213 C200 0.929 1_655 S
H214 C208 0.929 . S
H215 C209 0.930 . S
Mn216 O221 2.095 . S
Mn216 O231 2.162 . S
Mn216 O232 2.297 . S
Mn216 O240 2.385 . S
Mn216 O241 2.209 . S
Mn216 O242 2.094 . S
Mn217 O222 2.121 . S
Mn217 N224 2.257 . S
Mn217 N233 2.282 . S
Mn217 O241 2.215 . S
Mn217 O243 2.117 . S
C218 O240 1.234 . S
C218 O241 1.283 . S
C219 O231 1.281 . S
C219 O232 1.236 . S
C220 O242 1.240 . S
C220 O243 1.264 . S
O221 Mn216 2.095 . S
O221 C230 1.250 . S
O222 Mn217 2.121 . S
O222 C230 1.258 . S
C223 N224 1.326 . S
C223 C227 1.460 . S
C223 H229 0.929 . S
N224 Mn217 2.257 . S
N224 C223 1.326 . S
N224 C228 1.362 . S
C225 C226 1.258 . S
C225 C228 1.431 . S
C225 C245 1.449 1_455 S
C226 C225 1.258 . S
C226 C227 1.477 . S
C226 H246 0.931 1_455 S
C227 C223 1.460 . S
C227 C226 1.477 . S
C227 H247 0.930 . S
C228 N224 1.362 . S
C228 C225 1.431 . S
C228 C238 1.476 . S
H229 C223 0.929 . S
C230 O221 1.250 . S
C230 O222 1.258 . S
O231 Mn216 2.162 . S
O231 C219 1.281 . S
O232 Mn216 2.297 . S
O232 C219 1.236 . S
N233 Mn217 2.282 . S
N233 C234 1.328 . S
N233 C238 1.318 . S
C234 N233 1.328 . S
C234 C235 1.457 . S
C234 H239 0.929 . S
C235 C234 1.457 . S
C235 C236 1.291 . S
C235 H248 0.931 . S
C236 C235 1.291 . S
C236 C237 1.373 . S
C236 H249 0.929 1_455 S
C237 C236 1.373 . S
C237 C238 1.396 . S
C237 C244 1.403 1_455 S
C238 C228 1.476 . S
C238 N233 1.318 . S
C238 C237 1.396 . S
H239 C234 0.929 . S
O240 Mn216 2.385 . S
O240 C218 1.234 . S
O241 Mn216 2.209 . S
O241 Mn217 2.215 . S
O241 C218 1.283 . S
O242 Mn216 2.094 . S
O242 C220 1.240 . S
O243 Mn217 2.117 . S
O243 C220 1.264 . S
C244 C237 1.403 1_655 S
C244 C245 1.399 . S
C244 H250 0.929 . S
C245 C225 1.449 1_655 S
C245 C244 1.399 . S
C245 H251 0.930 . S
H246 C226 0.931 1_655 S
H247 C227 0.930 . S
H248 C235 0.931 . S
H249 C236 0.929 1_655 S
H250 C244 0.929 . S
H251 C245 0.930 . S
Mn252 O257 2.095 . S
Mn252 O267 2.162 . S
Mn252 O268 2.297 . S
Mn252 O276 2.385 . S
Mn252 O277 2.209 . S
Mn252 O278 2.094 . S
Mn253 O258 2.121 . S
Mn253 N260 2.257 . S
Mn253 N269 2.282 . S
Mn253 O277 2.215 . S
Mn253 O279 2.117 . S
C254 O276 1.234 . S
C254 O277 1.283 . S
C255 O267 1.281 . S
C255 O268 1.236 . S
C256 O278 1.240 . S
C256 O279 1.264 . S
O257 Mn252 2.095 . S
O257 C266 1.250 . S
O258 Mn253 2.121 . S
O258 C266 1.258 . S
C259 N260 1.326 . S
C259 C263 1.460 . S
C259 H265 0.929 . S
N260 Mn253 2.257 . S
N260 C259 1.326 . S
N260 C264 1.362 . S
C261 C262 1.258 . S
C261 C264 1.431 . S
C261 C281 1.449 1_655 S
C262 C261 1.258 . S
C262 C263 1.477 . S
C262 H282 0.931 1_655 S
C263 C259 1.460 . S
C263 C262 1.477 . S
C263 H283 0.930 . S
C264 N260 1.362 . S
C264 C261 1.431 . S
C264 C274 1.476 . S
H265 C259 0.929 . S
C266 O257 1.250 . S
C266 O258 1.258 . S
O267 Mn252 2.162 . S
O267 C255 1.281 . S
O268 Mn252 2.297 . S
O268 C255 1.236 . S
N269 Mn253 2.282 . S
N269 C270 1.328 . S
N269 C274 1.318 . S
C270 N269 1.328 . S
C270 C271 1.457 . S
C270 H275 0.929 . S
C271 C270 1.457 . S
C271 C272 1.291 . S
C271 H284 0.931 . S
C272 C271 1.291 . S
C272 C273 1.373 . S
C272 H285 0.929 1_655 S
C273 C272 1.373 . S
C273 C274 1.396 . S
C273 C280 1.403 1_655 S
C274 C264 1.476 . S
C274 N269 1.318 . S
C274 C273 1.396 . S
H275 C270 0.929 . S
O276 Mn252 2.385 . S
O276 C254 1.234 . S
O277 Mn252 2.209 . S
O277 Mn253 2.215 . S
O277 C254 1.283 . S
O278 Mn252 2.094 . S
O278 C256 1.240 . S
O279 Mn253 2.117 . S
O279 C256 1.264 . S
C280 C273 1.403 1_455 S
C280 C281 1.399 . S
C280 H286 0.929 . S
C281 C261 1.449 1_455 S
C281 C280 1.399 . S
C281 H287 0.930 . S
H282 C262 0.931 1_455 S
H283 C263 0.930 . S
H284 C271 0.931 . S
H285 C272 0.929 1_455 S
H286 C280 0.929 . S
H287 C281 0.930 . S
C288 C289 1.387 . S
C288 H292 0.950 . S
C288 C297 1.390 . S
C289 C288 1.387 . S
C289 C291 1.387 . S
H290 C297 0.950 . S
C291 C289 1.387 . S
C291 C293 1.390 . S
C291 H295 0.950 . S
H292 C288 0.950 . S
C293 C291 1.390 . S
C293 C294 1.387 . S
C293 H296 0.950 . S
C294 C293 1.387 . S
C294 C297 1.387 . S
H295 C291 0.950 . S
H296 C293 0.950 . S
C297 C288 1.390 . S
C297 H290 0.950 . S
C297 C294 1.387 . S
C298 C299 1.387 . S
C298 H302 0.950 . S
C298 C307 1.390 . S
C299 C298 1.387 . S
C299 C301 1.387 . S
H300 C307 0.950 . S
C301 C299 1.387 . S
C301 C303 1.390 . S
C301 H305 0.950 . S
H302 C298 0.950 . S
C303 C301 1.390 . S
C303 C304 1.387 . S
C303 H306 0.950 . S
C304 C303 1.387 . S
C304 C307 1.387 . S
H305 C301 0.950 . S
H306 C303 0.950 . S
C307 C298 1.390 . S
C307 H300 0.950 . S
C307 C304 1.387 . S
C308 C309 1.387 . S
C308 H312 0.950 . S
C308 C317 1.390 . S
C309 C308 1.387 . S
C309 C311 1.387 . S
H310 C317 0.950 . S
C311 C309 1.387 . S
C311 C313 1.390 . S
C311 H315 0.950 . S
H312 C308 0.950 . S
C313 C311 1.390 . S
C313 C314 1.387 . S
C313 H316 0.950 . S
C314 C313 1.387 . S
C314 C317 1.387 . S
H315 C311 0.950 . S
H316 C313 0.950 . S
C317 C308 1.390 . S
C317 H310 0.950 . S
C317 C314 1.387 . S
C318 C319 1.388 . S
C318 H322 0.950 . S
C318 C327 1.390 . S
C319 C318 1.388 . S
C319 C321 1.388 . S
H320 C327 0.950 . S
C321 C319 1.388 . S
C321 C323 1.390 . S
C321 H325 0.950 . S
H322 C318 0.950 . S
C323 C321 1.390 . S
C323 C324 1.387 . S
C323 H326 0.950 . S
C324 C323 1.387 . S
C324 C327 1.387 . S
H325 C321 0.950 . S
H326 C323 0.950 . S
C327 C318 1.390 . S
C327 H320 0.950 . S
C327 C324 1.387 . S
C328 C329 1.387 . S
C328 H332 0.950 . S
C328 C337 1.390 1_565 S
C329 C328 1.387 . S
C329 C331 1.387 . S
H330 C337 0.950 . S
C331 C329 1.387 . S
C331 C333 1.390 1_565 S
C331 H335 0.950 . S
H332 C328 0.950 . S
C333 C331 1.390 1_545 S
C333 C334 1.387 . S
C333 H336 0.950 . S
C334 C333 1.387 . S
C334 C337 1.387 . S
H335 C331 0.950 . S
H336 C333 0.950 . S
C337 C328 1.390 1_545 S
C337 H330 0.950 . S
C337 C334 1.387 . S
C338 C339 1.387 . S
C338 H342 0.950 . S
C338 C347 1.390 1_455 S
C339 C338 1.387 . S
C339 C341 1.387 . S
H340 C347 0.950 . S
C341 C339 1.387 . S
C341 C343 1.390 1_455 S
C341 H345 0.950 . S
H342 C338 0.950 . S
C343 C341 1.390 1_655 S
C343 C344 1.387 . S
C343 H346 0.950 . S
C344 C343 1.387 . S
C344 C347 1.387 . S
H345 C341 0.950 . S
H346 C343 0.950 . S
C347 C338 1.390 1_655 S
C347 H340 0.950 . S
C347 C344 1.387 . S
C348 C349 1.387 . S
C348 H352 0.950 . S
C348 C357 1.390 1_545 S
C349 C348 1.387 . S
C349 C351 1.387 . S
H350 C357 0.950 . S
C351 C349 1.387 . S
C351 C353 1.390 1_545 S
C351 H355 0.950 . S
H352 C348 0.950 . S
C353 C351 1.390 1_565 S
C353 C354 1.387 . S
C353 H356 0.950 . S
C354 C353 1.387 . S
C354 C357 1.387 . S
H355 C351 0.950 . S
H356 C353 0.950 . S
C357 C348 1.390 1_565 S
C357 H350 0.950 . S
C357 C354 1.387 . S
C358 C359 1.387 . S
C358 H362 0.950 . S
C358 C367 1.390 1_655 S
C359 C358 1.387 . S
C359 C361 1.387 . S
H360 C367 0.950 . S
C361 C359 1.387 . S
C361 C363 1.390 1_655 S
C361 H365 0.950 . S
H362 C358 0.950 . S
C363 C361 1.390 1_455 S
C363 C364 1.387 . S
C363 H366 0.950 . S
C364 C363 1.387 . S
C364 C367 1.387 . S
H365 C361 0.950 . S
H366 C363 0.950 . S
C367 C358 1.390 1_455 S
C367 H360 0.950 . S
C367 C364 1.387 . S
C368 C369 1.387 . S
C368 H372 0.950 . S
C368 C377 1.390 . S
C369 C368 1.387 . S
C369 C371 1.387 . S
H370 C377 0.950 . S
C371 C369 1.387 . S
C371 C373 1.390 . S
C371 H375 0.950 . S
H372 C368 0.950 . S
C373 C371 1.390 . S
C373 C374 1.387 . S
C373 H376 0.950 . S
C374 C373 1.387 . S
C374 C377 1.387 . S
H375 C371 0.950 . S
H376 C373 0.950 . S
C377 C368 1.390 . S
C377 H370 0.950 . S
C377 C374 1.387 . S
C378 C379 1.387 . S
C378 H382 0.950 . S
C378 C387 1.390 . S
C379 C378 1.387 . S
C379 C381 1.387 . S
H380 C387 0.950 . S
C381 C379 1.387 . S
C381 C383 1.390 . S
C381 H385 0.950 . S
H382 C378 0.950 . S
C383 C381 1.390 . S
C383 C384 1.387 . S
C383 H386 0.950 . S
C384 C383 1.387 . S
C384 C387 1.387 . S
H385 C381 0.950 . S
H386 C383 0.950 . S
C387 C378 1.390 . S
C387 H380 0.950 . S
C387 C384 1.387 . S
C388 C389 1.387 . S
C388 H392 0.950 . S
C388 C397 1.390 . S
C389 C388 1.387 . S
C389 C391 1.387 . S
H390 C397 0.950 . S
C391 C389 1.387 . S
C391 C393 1.390 . S
C391 H395 0.950 . S
H392 C388 0.950 . S
C393 C391 1.390 . S
C393 C394 1.387 . S
C393 H396 0.950 . S
C394 C393 1.387 . S
C394 C397 1.387 . S
H395 C391 0.950 . S
H396 C393 0.950 . S
C397 C388 1.390 . S
C397 H390 0.950 . S
C397 C394 1.387 . S
C398 C399 1.387 . S
C398 H402 0.950 . S
C398 C407 1.390 . S
C399 C398 1.387 . S
C399 C401 1.387 . S
H400 C407 0.950 . S
C401 C399 1.387 . S
C401 C403 1.390 . S
C401 H405 0.950 . S
H402 C398 0.950 . S
C403 C401 1.390 . S
C403 C404 1.387 . S
C403 H406 0.950 . S
C404 C403 1.387 . S
C404 C407 1.387 . S
H405 C401 0.950 . S
H406 C403 0.950 . S
C407 C398 1.390 . S
C407 H400 0.950 . S
C407 C404 1.387 . S
C408 C409 1.387 . S
C408 H412 0.950 . S
C408 C417 1.390 . S
C409 C408 1.387 . S
C409 C411 1.387 . S
H410 C417 0.950 . S
C411 C409 1.387 . S
C411 C413 1.390 . S
C411 H415 0.950 . S
H412 C408 0.950 . S
C413 C411 1.390 . S
C413 C414 1.387 . S
C413 H416 0.950 . S
C414 C413 1.387 . S
C414 C417 1.387 . S
H415 C411 0.950 . S
H416 C413 0.950 . S
C417 C408 1.390 . S
C417 H410 0.950 . S
C417 C414 1.387 . S
C418 C419 1.387 . S
C418 H422 0.950 . S
C418 C427 1.390 . S
C419 C418 1.387 . S
C419 C421 1.387 . S
H420 C427 0.950 . S
C421 C419 1.387 . S
C421 C423 1.390 . S
C421 H425 0.950 . S
H422 C418 0.950 . S
C423 C421 1.390 . S
C423 C424 1.387 . S
C423 H426 0.950 . S
C424 C423 1.387 . S
C424 C427 1.387 . S
H425 C421 0.950 . S
H426 C423 0.950 . S
C427 C418 1.390 . S
C427 H420 0.950 . S
C427 C424 1.387 . S
C428 C429 1.387 . S
C428 H432 0.950 . S
C428 C437 1.390 . S
C429 C428 1.387 . S
C429 C431 1.387 . S
H430 C437 0.950 . S
C431 C429 1.387 . S
C431 C433 1.390 . S
C431 H435 0.950 . S
H432 C428 0.950 . S
C433 C431 1.390 . S
C433 C434 1.387 . S
C433 H436 0.950 . S
C434 C433 1.387 . S
C434 C437 1.387 . S
H435 C431 0.950 . S
H436 C433 0.950 . S
C437 C428 1.390 . S
C437 H430 0.950 . S
C437 C434 1.387 . S
C438 C439 1.387 . S
C438 H442 0.950 . S
C438 C447 1.390 . S
C439 C438 1.387 . S
C439 C441 1.387 . S
H440 C447 0.950 . S
C441 C439 1.387 . S
C441 C443 1.390 . S
C441 H445 0.950 . S
H442 C438 0.950 . S
C443 C441 1.390 . S
C443 C444 1.387 . S
C443 H446 0.950 . S
C444 C443 1.387 . S
C444 C447 1.387 . S
H445 C441 0.950 . S
H446 C443 0.950 . S
C447 C438 1.390 . S
C447 H440 0.950 . S
C447 C444 1.387 . S
C289 C3 1.533 . S
C294 C111 1.533 . S
C299 C2 1.535 . S
C304 C38 1.535 1_554 S
C309 C39 1.533 . S
C314 C75 1.533 . S
C319 C110 1.535 1_554 S
C324 C74 1.536 . S
C329 C147 1.533 . S
C334 C255 1.533 . S
C339 C182 1.535 . S
C344 C146 1.535 . S
C349 C219 1.533 . S
C354 C183 1.533 . S
C359 C254 1.535 . S
C364 C218 1.535 . S
C369 C230 1.427 . S
C374 C4 1.488 . S
C379 C50 1.426 . S
C384 C256 1.488 . S
C389 C158 1.427 . S
C394 C76 1.488 . S
C399 C184 1.488 . S
C404 C122 1.427 . S
C409 C194 1.428 . S
C414 C112 1.488 . S
C419 C14 1.425 . S
C424 C220 1.488 . S
C429 C40 1.488 . S
C434 C266 1.428 . S
C439 C86 1.425 . S
C444 C148 1.488 . S
