# Generated by pormake.
# Topology why, (6)-cn, num edge types: 1
# Building blocks:
#     Node 0, Type 0, BuildingBlock: KUMBUR_clean_sbu_0, # of connection points: 6
#     Node 1, Type 0, BuildingBlock: KUMBUR_clean_sbu_0, # of connection points: 6
#     Node 2, Type 0, BuildingBlock: KUMBUR_clean_sbu_0, # of connection points: 6
#     Node 3, Type 0, BuildingBlock: KUMBUR_clean_sbu_0, # of connection points: 6
#     Node 4, Type 0, BuildingBlock: KUMBUR_clean_sbu_0, # of connection points: 6
#     Node 5, Type 0, BuildingBlock: KUMBUR_clean_sbu_0, # of connection points: 6
#     Node 6, Type 0, BuildingBlock: KUMBUR_clean_sbu_0, # of connection points: 6
#     Node 7, Type 0, BuildingBlock: KUMBUR_clean_sbu_0, # of connection points: 6
#     Node 8, Type 0, BuildingBlock: KUMBUR_clean_sbu_0, # of connection points: 6
#     Node 9, Type 0, BuildingBlock: KUMBUR_clean_sbu_0, # of connection points: 6
#     Node 10, Type 0, BuildingBlock: KUMBUR_clean_sbu_0, # of connection points: 6
#     Node 11, Type 0, BuildingBlock: KUMBUR_clean_sbu_0, # of connection points: 6
#     Node 12, Type 0, BuildingBlock: KUMBUR_clean_sbu_0, # of connection points: 6
#     Node 13, Type 0, BuildingBlock: KUMBUR_clean_sbu_0, # of connection points: 6
#     Node 14, Type 0, BuildingBlock: KUMBUR_clean_sbu_0, # of connection points: 6
#     Node 15, Type 0, BuildingBlock: KUMBUR_clean_sbu_0, # of connection points: 6
#     Edge 16, Type (0, 0), BuildingBlock: XIVTED_clean_linker_0, # of connection points: 2
#     Edge 17, Type (0, 0), BuildingBlock: XIVTED_clean_linker_0, # of connection points: 2
#     Edge 18, Type (0, 0), BuildingBlock: XIVTED_clean_linker_0, # of connection points: 2
#     Edge 19, Type (0, 0), BuildingBlock: XIVTED_clean_linker_0, # of connection points: 2
#     Edge 20, Type (0, 0), BuildingBlock: XIVTED_clean_linker_0, # of connection points: 2
#     Edge 21, Type (0, 0), BuildingBlock: XIVTED_clean_linker_0, # of connection points: 2
#     Edge 22, Type (0, 0), BuildingBlock: XIVTED_clean_linker_0, # of connection points: 2
#     Edge 23, Type (0, 0), BuildingBlock: XIVTED_clean_linker_0, # of connection points: 2
#     Edge 24, Type (0, 0), BuildingBlock: XIVTED_clean_linker_0, # of connection points: 2
#     Edge 25, Type (0, 0), BuildingBlock: XIVTED_clean_linker_0, # of connection points: 2
#     Edge 26, Type (0, 0), BuildingBlock: XIVTED_clean_linker_0, # of connection points: 2
#     Edge 27, Type (0, 0), BuildingBlock: XIVTED_clean_linker_0, # of connection points: 2
#     Edge 28, Type (0, 0), BuildingBlock: XIVTED_clean_linker_0, # of connection points: 2
#     Edge 29, Type (0, 0), BuildingBlock: XIVTED_clean_linker_0, # of connection points: 2
#     Edge 30, Type (0, 0), BuildingBlock: XIVTED_clean_linker_0, # of connection points: 2
#     Edge 31, Type (0, 0), BuildingBlock: XIVTED_clean_linker_0, # of connection points: 2
#     Edge 32, Type (0, 0), BuildingBlock: XIVTED_clean_linker_0, # of connection points: 2
#     Edge 33, Type (0, 0), BuildingBlock: XIVTED_clean_linker_0, # of connection points: 2
#     Edge 34, Type (0, 0), BuildingBlock: XIVTED_clean_linker_0, # of connection points: 2
#     Edge 35, Type (0, 0), BuildingBlock: XIVTED_clean_linker_0, # of connection points: 2
#     Edge 36, Type (0, 0), BuildingBlock: XIVTED_clean_linker_0, # of connection points: 2
#     Edge 37, Type (0, 0), BuildingBlock: XIVTED_clean_linker_0, # of connection points: 2
#     Edge 38, Type (0, 0), BuildingBlock: XIVTED_clean_linker_0, # of connection points: 2
#     Edge 39, Type (0, 0), BuildingBlock: XIVTED_clean_linker_0, # of connection points: 2
#     Edge 40, Type (0, 0), BuildingBlock: XIVTED_clean_linker_0, # of connection points: 2
#     Edge 41, Type (0, 0), BuildingBlock: XIVTED_clean_linker_0, # of connection points: 2
#     Edge 42, Type (0, 0), BuildingBlock: XIVTED_clean_linker_0, # of connection points: 2
#     Edge 43, Type (0, 0), BuildingBlock: XIVTED_clean_linker_0, # of connection points: 2
#     Edge 44, Type (0, 0), BuildingBlock: XIVTED_clean_linker_0, # of connection points: 2
#     Edge 45, Type (0, 0), BuildingBlock: XIVTED_clean_linker_0, # of connection points: 2
#     Edge 46, Type (0, 0), BuildingBlock: XIVTED_clean_linker_0, # of connection points: 2
#     Edge 47, Type (0, 0), BuildingBlock: XIVTED_clean_linker_0, # of connection points: 2
#     Edge 48, Type (0, 0), BuildingBlock: XIVTED_clean_linker_0, # of connection points: 2
#     Edge 49, Type (0, 0), BuildingBlock: XIVTED_clean_linker_0, # of connection points: 2
#     Edge 50, Type (0, 0), BuildingBlock: XIVTED_clean_linker_0, # of connection points: 2
#     Edge 51, Type (0, 0), BuildingBlock: XIVTED_clean_linker_0, # of connection points: 2
#     Edge 52, Type (0, 0), BuildingBlock: XIVTED_clean_linker_0, # of connection points: 2
#     Edge 53, Type (0, 0), BuildingBlock: XIVTED_clean_linker_0, # of connection points: 2
#     Edge 54, Type (0, 0), BuildingBlock: XIVTED_clean_linker_0, # of connection points: 2
#     Edge 55, Type (0, 0), BuildingBlock: XIVTED_clean_linker_0, # of connection points: 2
#     Edge 56, Type (0, 0), BuildingBlock: XIVTED_clean_linker_0, # of connection points: 2
#     Edge 57, Type (0, 0), BuildingBlock: XIVTED_clean_linker_0, # of connection points: 2
#     Edge 58, Type (0, 0), BuildingBlock: XIVTED_clean_linker_0, # of connection points: 2
#     Edge 59, Type (0, 0), BuildingBlock: XIVTED_clean_linker_0, # of connection points: 2
#     Edge 60, Type (0, 0), BuildingBlock: XIVTED_clean_linker_0, # of connection points: 2
#     Edge 61, Type (0, 0), BuildingBlock: XIVTED_clean_linker_0, # of connection points: 2
#     Edge 62, Type (0, 0), BuildingBlock: XIVTED_clean_linker_0, # of connection points: 2
#     Edge 63, Type (0, 0), BuildingBlock: XIVTED_clean_linker_0, # of connection points: 2
# Relax obj value: 0.277
# Max RMSD: 0.229
# Mean RMSD: 0.229
data_MOF--net-why--node1-KUMBUR_clean_sbu_0--edge1-XIVTED_clean_linker_0
_symmetry_space_group_name_H-M    P1
_symmetry_Int_Tables_number       1
_symmetry_cell_setting            triclinic
loop_
_symmetry_equiv_pos_as_xyz
'x, y, z'
_cell_length_a     49.303388
_cell_length_b     49.52362
_cell_length_c     40.704528
_cell_angle_alpha  90.300703
_cell_angle_beta   89.882706
_cell_angle_gamma 90.005936
loop_
_atom_site_label
_atom_site_type_symbol
_atom_site_fract_x
_atom_site_fract_y
_atom_site_fract_z
_atom_type_partial_charge
Tb0 Tb 0.43761 0.17535 0.04397 0.0
C1 C 0.42309 0.2676 0.12243 0.0
C2 C 0.46485 0.26085 0.15272 0.0
C3 C 0.44723 0.30624 0.14502 0.0
C4 C 0.4428 0.25037 0.13471 0.0
C5 C 0.42464 0.29561 0.12842 0.0
C6 C 0.46732 0.28891 0.15706 0.0
C7 C 0.37999 0.30012 0.10453 0.0
N8 N 0.40147 0.25671 0.10654 0.0
C9 C 0.37934 0.2722 0.09924 0.0
C10 C 0.40296 0.31195 0.11862 0.0
Tb11 Tb 0.4028 0.21114 0.09928 0.0
N12 N 0.4397 0.22328 0.13022 0.0
C13 C 0.45692 0.20554 0.14527 0.0
C14 C 0.48345 0.2428 0.16641 0.0
C15 C 0.47927 0.21504 0.16301 0.0
H16 H 0.36149 0.26301 0.0886 0.0
H17 H 0.49327 0.20094 0.17404 0.0
H18 H 0.48431 0.29735 0.17047 0.0
H19 H 0.36276 0.31246 0.09789 0.0
H20 H 0.45416 0.18408 0.14256 0.0
H21 H 0.46725 0.20408 0.92071 0.0
H22 H 0.50074 0.25007 0.18027 0.0
H23 H 0.39249 0.12717 0.06959 0.0
H24 H 0.47245 0.20102 0.98064 0.0
H25 H 0.35755 0.09911 0.04504 0.0
H26 H 0.44898 0.32776 0.14947 0.0
H27 H 0.42886 0.18125 0.89317 0.0
H28 H 0.38842 0.15077 0.89729 0.0
H29 H 0.40335 0.33356 0.12286 0.0
H30 H 0.35914 0.12178 0.93099 0.0
N31 N 0.43656 0.17756 0.98762 0.0
C32 C 0.45544 0.1911 0.96911 0.0
C33 C 0.43093 0.17994 0.91961 0.0
C34 C 0.41273 0.16471 0.93831 0.0
C35 C 0.45263 0.19284 0.93504 0.0
C36 C 0.41625 0.16368 0.97268 0.0
H37 H 0.34801 0.10189 0.98567 0.0
N38 N 0.40445 0.14618 0.02472 0.0
C39 C 0.36935 0.11253 0.02972 0.0
C40 C 0.39991 0.14724 0.99174 0.0
C41 C 0.38974 0.12851 0.04357 0.0
C42 C 0.36396 0.1142 0.99624 0.0
C43 C 0.37939 0.13153 0.97675 0.0
O44 O 0.47292 0.15865 0.06464 0.0
O45 O 0.44586 0.20788 0.0809 0.0
O46 O 0.40702 0.24018 0.05847 0.0
O47 O 0.42593 0.21213 0.01808 0.0
O48 O 0.46726 0.20969 0.03906 0.0
O49 O 0.46065 0.14797 0.0157 0.0
O50 O 0.36241 0.20541 0.11581 0.0
O51 O 0.39458 0.18234 0.05823 0.0
O52 O 0.43435 0.1455 0.08741 0.0
O53 O 0.40786 0.16891 0.12401 0.0
O54 O 0.36989 0.21519 0.06167 0.0
O55 O 0.39289 0.21843 0.14919 0.0
C56 C 0.46443 0.22353 0.06586 0.0
C57 C 0.50771 0.15427 0.02438 0.0
C58 C 0.53873 0.16332 0.9786 0.0
C59 C 0.51344 0.15431 0.99031 0.0
C60 C 0.55863 0.17137 1.00132 0.0
C61 C 0.52815 0.16208 0.0465 0.0
C62 C 0.55341 0.17051 0.03499 0.0
C63 C 0.41574 0.23548 0.02809 0.0
C64 C 0.48026 0.14748 0.03691 0.0
C65 C 0.37502 0.13342 0.94276 0.0
C66 C 0.39165 0.14998 0.92359 0.0
C67 C 0.37367 0.19416 0.04309 0.0
C68 C 0.34744 0.23282 0.16127 0.0
C69 C 0.31965 0.23003 0.15477 0.0
C70 C 0.3019 0.24822 0.16972 0.0
C71 C 0.30674 0.26155 0.19894 0.0
C72 C 0.35513 0.25133 0.18636 0.0
C73 C 0.33522 0.265 0.20559 0.0
C74 C 0.42145 0.14592 0.11662 0.0
C75 C 0.36726 0.21386 0.14543 0.0
H76 H 0.498 0.14828 0.97283 0.0
H77 H 0.57834 0.1782 0.99301 0.0
H78 H 0.52449 0.16207 0.07275 0.0
H79 H 0.56892 0.1767 0.05223 0.0
H80 H 0.31198 0.21456 0.13833 0.0
H81 H 0.26957 0.26512 0.22414 0.0
H82 H 0.3763 0.25367 0.19282 0.0
H83 H 0.34222 0.27625 0.22678 0.0
Tb84 Tb 0.67922 0.69761 0.28702 0.0
C85 C 0.58796 0.67781 0.37201 0.0
C86 C 0.59687 0.71304 0.41221 0.0
C87 C 0.55157 0.69409 0.40739 0.0
C88 C 0.60583 0.69608 0.38635 0.0
C89 C 0.56076 0.67643 0.38268 0.0
C90 C 0.56962 0.7122 0.42228 0.0
C91 C 0.55452 0.63777 0.34704 0.0
N92 N 0.59788 0.6598 0.34968 0.0
C93 C 0.58183 0.63934 0.33799 0.0
C94 C 0.54387 0.65651 0.3693 0.0
Tb95 Tb 0.64333 0.66295 0.33897 0.0
N96 N 0.63213 0.69654 0.37588 0.0
C97 C 0.65018 0.71418 0.38996 0.0
C98 C 0.61543 0.73073 0.42682 0.0
C99 C 0.6421 0.73148 0.41539 0.0
H100 H 0.5901 0.62413 0.3217 0.0
H101 H 0.6565 0.7454 0.42621 0.0
H102 H 0.56234 0.72536 0.44173 0.0
H103 H 0.54184 0.62179 0.33734 0.0
H104 H 0.67077 0.71555 0.38131 0.0
H105 H 0.65526 0.73486 0.16555 0.0
H106 H 0.60929 0.74416 0.44657 0.0
H107 H 0.72499 0.64934 0.31064 0.0
H108 H 0.65725 0.73702 0.22581 0.0
H109 H 0.75169 0.61412 0.28413 0.0
H110 H 0.53072 0.69338 0.41581 0.0
H111 H 0.67652 0.69671 0.13574 0.0
H112 H 0.70449 0.6545 0.1376 0.0
H113 H 0.52284 0.65487 0.37682 0.0
H114 H 0.73106 0.62208 0.1698 0.0
N115 N 0.67869 0.69977 0.2307 0.0
C116 C 0.66649 0.72008 0.21333 0.0
C117 C 0.67738 0.69746 0.16233 0.0
C118 C 0.69116 0.67759 0.18002 0.0
C119 C 0.66537 0.71902 0.17905 0.0
C120 C 0.69167 0.67943 0.21463 0.0
H121 H 0.74925 0.60733 0.2241 0.0
N122 N 0.70732 0.66413 0.26616 0.0
C123 C 0.73915 0.62727 0.26939 0.0
C124 C 0.70667 0.66122 0.23286 0.0
C125 C 0.72408 0.64785 0.28434 0.0
C126 C 0.73764 0.62343 0.23554 0.0
C127 C 0.72152 0.64063 0.21677 0.0
O128 O 0.69562 0.73153 0.31135 0.0
O129 O 0.64609 0.70659 0.32374 0.0
O130 O 0.61479 0.66728 0.29718 0.0
O131 O 0.64296 0.68804 0.2587 0.0
O132 O 0.64476 0.72689 0.28143 0.0
O133 O 0.70916 0.72021 0.26295 0.0
O134 O 0.66549 0.62899 0.35523 0.0
O135 O 0.67117 0.65427 0.29757 0.0
O136 O 0.70963 0.69167 0.32957 0.0
O137 O 0.68371 0.66982 0.36747 0.0
O138 O 0.63702 0.63137 0.30008 0.0
O139 O 0.62939 0.64178 0.38017 0.0
C140 C 0.63068 0.72514 0.30822 0.0
C141 C 0.70577 0.76692 0.27427 0.0
C142 C 0.69918 0.79898 0.22966 0.0
C143 C 0.70559 0.77295 0.24051 0.0
C144 C 0.69436 0.8195 0.25292 0.0
C145 C 0.70129 0.78777 0.29717 0.0
C146 C 0.69578 0.81395 0.28647 0.0
C147 C 0.61956 0.6772 0.26744 0.0
C148 C 0.70946 0.73884 0.28555 0.0
C149 C 0.72009 0.638 0.18246 0.0
C150 C 0.70493 0.65643 0.16412 0.0
C151 C 0.65838 0.63422 0.28179 0.0
C152 C 0.63717 0.5954 0.37966 0.0
C153 C 0.62102 0.58871 0.40676 0.0
C154 C 0.60895 0.56315 0.40931 0.0
C155 C 0.61399 0.54381 0.38464 0.0
C156 C 0.64183 0.57602 0.355 0.0
C157 C 0.63037 0.55028 0.35767 0.0
C158 C 0.70795 0.68065 0.3596 0.0
C159 C 0.64764 0.62317 0.37769 0.0
H160 H 0.70927 0.7572 0.22249 0.0
H161 H 0.68947 0.8398 0.24512 0.0
H162 H 0.70166 0.78376 0.3233 0.0
H163 H 0.69212 0.82988 0.30424 0.0
H164 H 0.61773 0.60365 0.42594 0.0
H165 H 0.60489 0.52394 0.38588 0.0
H166 H 0.65407 0.58077 0.3337 0.0
H167 H 0.63395 0.53539 0.33859 0.0
Tb168 Tb 0.15139 0.93153 0.53972 0.0
C169 C 0.16941 0.83948 0.61899 0.0
C170 C 0.13264 0.84693 0.65769 0.0
C171 C 0.15017 0.8016 0.64891 0.0
C172 C 0.15094 0.85691 0.63394 0.0
C173 C 0.16953 0.81177 0.62688 0.0
C174 C 0.13191 0.81916 0.66446 0.0
C175 C 0.21049 0.8068 0.59471 0.0
N176 N 0.18892 0.85015 0.59928 0.0
C177 C 0.21002 0.83449 0.58832 0.0
C178 C 0.18997 0.79531 0.61373 0.0
Tb179 Tb 0.18653 0.89575 0.59151 0.0
N180 N 0.15211 0.88378 0.62682 0.0
C181 C 0.13545 0.90159 0.64302 0.0
C182 C 0.11588 0.86519 0.67444 0.0
C183 C 0.11722 0.89259 0.66692 0.0
H184 H 0.2264 0.84336 0.57438 0.0
H185 H 0.10409 0.90683 0.67946 0.0
H186 H 0.11769 0.81114 0.68223 0.0
H187 H 0.2269 0.79441 0.58539 0.0
H188 H 0.13554 0.92275 0.63728 0.0
H189 H 0.11453 0.9083 0.41752 0.0
H190 H 0.10169 0.85831 0.69295 0.0
H191 H 0.19946 0.97739 0.56466 0.0
H192 H 0.11241 0.9095 0.47786 0.0
H193 H 0.23449 1.00465 0.53898 0.0
H194 H 0.14984 0.78034 0.65507 0.0
H195 H 0.15252 0.93037 0.3884 0.0
H196 H 0.19459 0.9587 0.39115 0.0
H197 H 0.1907 0.77393 0.61918 0.0
H198 H 0.22681 0.9852 0.42415 0.0
N199 N 0.14944 0.93141 0.48339 0.0
C200 C 0.12924 0.91913 0.46563 0.0
C201 C 0.15177 0.9309 0.41501 0.0
C202 C 0.17154 0.94468 0.43313 0.0
C203 C 0.1303 0.91844 0.43133 0.0
C204 C 0.16967 0.94481 0.46774 0.0
H205 H 0.24135 1.00293 0.47894 0.0
N206 N 0.18474 0.96012 0.51971 0.0
C207 C 0.22143 0.99217 0.52387 0.0
C208 C 0.18772 0.95981 0.48642 0.0
C209 C 0.20093 0.97678 0.53836 0.0
C210 C 0.22532 0.99107 0.49002 0.0
C211 C 0.20825 0.975 0.47079 0.0
O212 O 0.11677 0.94687 0.56388 0.0
O213 O 0.14282 0.89876 0.57641 0.0
O214 O 0.18273 0.86781 0.54873 0.0
O215 O 0.16153 0.8958 0.5107 0.0
O216 O 0.12292 0.89634 0.53356 0.0
O217 O 0.12815 0.96105 0.516 0.0
O218 O 0.22141 0.91571 0.60955 0.0
O219 O 0.19493 0.92393 0.55075 0.0
O220 O 0.1568 0.96172 0.58264 0.0
O221 O 0.17989 0.93634 0.61992 0.0
O222 O 0.21859 0.89036 0.55292 0.0
O223 O 0.20578 0.8807 0.6336 0.0
C224 C 0.12475 0.88292 0.56069 0.0
C225 C 0.08124 0.95621 0.52646 0.0
C226 C 1.0496 0.94853 0.48121 0.0
C227 C 0.07549 0.95561 0.4926 0.0
C228 C 1.02887 0.94358 0.50419 0.0
C229 C 0.06018 0.95144 0.54898 0.0
C230 C 1.03412 0.94534 0.53783 0.0
C231 C 0.1728 0.87261 0.51897 0.0
C232 C 0.10924 0.96064 0.53825 0.0
C233 C 0.21094 0.97396 0.43646 0.0
C234 C 0.19263 0.95883 0.41767 0.0
C235 C 0.21536 0.91166 0.53498 0.0
C236 C 0.25283 0.88547 0.63464 0.0
C237 C 0.25835 0.86913 0.66187 0.0
C238 C 0.28337 0.85582 0.66498 0.0
C239 C 0.30322 0.85957 0.64057 0.0
C240 C 0.27279 0.88886 0.61036 0.0
C241 C 0.29791 0.87602 0.61348 0.0
C242 C 0.16829 0.96024 0.61249 0.0
C243 C 0.22566 0.89762 0.63199 0.0
H244 H 0.09142 0.95959 0.47494 0.0
H245 H 1.00859 0.9384 0.49613 0.0
H246 H 0.06397 0.95208 0.57518 0.0
H247 H 1.01803 0.94154 0.55533 0.0
H248 H 0.24298 0.86678 0.68074 0.0
H249 H 0.32264 0.84946 0.64211 0.0
H250 H 0.26899 0.90119 0.58896 0.0
H251 H 0.31322 0.87861 0.59467 0.0
Tb252 Tb 0.91403 0.40191 0.78498 0.0
C253 C 1.00774 0.41716 0.85925 0.0
C254 C 1.00092 0.37715 0.89241 0.0
C255 C 1.04661 0.39343 0.88179 0.0
C256 C 0.9903 0.39849 0.8735 0.0
C257 C 1.03599 0.41521 0.86402 0.0
C258 C 1.02912 0.37444 0.89591 0.0
C259 C 1.04106 0.45785 0.83599 0.0
N260 N 0.99688 0.43818 0.84244 0.0
C261 C 1.01293 0.45903 0.83204 0.0
C262 C 0.05268 0.43565 0.8516 0.0
Tb263 Tb 0.95092 0.43712 0.8362 0.0
N264 N 0.96302 0.40153 0.86938 0.0
C265 C 0.94536 0.38464 0.88536 0.0
C266 C 0.9829 0.35929 0.90754 0.0
C267 C 0.95504 0.36321 0.90423 0.0
H268 H 1.00399 0.47636 0.82019 0.0
H269 H 0.94095 0.34958 0.91605 0.0
H270 H 1.03761 0.35799 0.91002 0.0
H271 H 0.05374 0.47408 0.82707 0.0
H272 H 0.92378 0.38658 0.88246 0.0
H273 H 0.93243 0.35959 0.66409 0.0
H274 H 0.99028 0.34262 0.92214 0.0
H275 H 0.86952 0.45133 0.8096 0.0
H276 H 0.9348 0.36105 0.72436 0.0
H277 H 0.84062 0.48461 0.78344 0.0
H278 H 0.06828 0.3914 0.88535 0.0
H279 H 0.90838 0.39558 0.634 0.0
H280 H 0.88006 0.43757 0.63578 0.0
H281 H 0.07448 0.43485 0.85476 0.0
H282 H 0.85496 0.47129 0.66827 0.0
N283 N 0.91242 0.39781 0.7289 0.0
C284 C 0.92423 0.37697 0.71174 0.0
C285 C 0.90933 0.39635 0.66058 0.0
C286 C 0.89644 0.41702 0.67822 0.0
C287 C 0.9229 0.376 0.67746 0.0
C288 C 0.89811 0.41706 0.71284 0.0
H289 H 0.8396 0.48844 0.72304 0.0
N290 N 0.88487 0.43447 0.76465 0.0
C291 C 0.8526 0.47098 0.76844 0.0
C292 C 0.88383 0.43591 0.73126 0.0
C293 C 0.8689 0.45145 0.78323 0.0
C294 C 0.85219 0.47318 0.73438 0.0
C295 C 0.86769 0.45542 0.71531 0.0
O296 O 0.89945 0.36842 0.81137 0.0
O297 O 0.94753 0.3942 0.82067 0.0
O298 O 0.97765 0.434 0.79178 0.0
O299 O 0.94873 0.41267 0.75457 0.0
O300 O 0.94955 0.37332 0.77866 0.0
O301 O 0.8846 0.37703 0.76295 0.0
O302 O 0.96818 0.45601 0.87746 0.0
O303 O 0.92197 0.44565 0.79602 0.0
O304 O 0.88378 0.40855 0.82779 0.0
O305 O 0.91038 0.43066 0.86511 0.0
O306 O 0.95563 0.4694 0.79835 0.0
O307 O 0.93097 0.47077 0.85719 0.0
C308 C 0.96359 0.37635 0.80525 0.0
C309 C 0.89178 0.33102 0.77594 0.0
C310 C 0.90158 0.2981 0.73249 0.0
C311 C 0.89193 0.32355 0.74245 0.0
C312 C 0.90917 0.27932 0.75656 0.0
C313 C 0.89916 0.31179 0.79955 0.0
C314 C 0.90756 0.28604 0.78986 0.0
C315 C 0.97207 0.42447 0.7618 0.0
C316 C 0.88592 0.35919 0.78619 0.0
C317 C 0.86702 0.45626 0.68085 0.0
C318 C 0.88133 0.43709 0.66235 0.0
C319 C 0.93394 0.46643 0.78072 0.0
C320 C 0.96148 0.50259 0.88114 0.0
C321 C 0.97828 0.50835 0.908 0.0
C322 C 0.99059 0.53375 0.91154 0.0
C323 C 0.98532 0.55377 0.88804 0.0
C324 C 0.95659 0.52267 0.85766 0.0
C325 C 0.9684 0.54819 0.86128 0.0
C326 C 0.88593 0.41976 0.85784 0.0
C327 C 0.95033 0.47514 0.8782 0.0
H328 H 0.88587 0.33794 0.72393 0.0
H329 H 0.91641 0.25945 0.7496 0.0
H330 H 0.89896 0.31684 0.82548 0.0
H331 H 0.91345 0.27143 0.80819 0.0
H332 H 0.98174 0.49286 0.92626 0.0
H333 H 0.99461 0.57352 0.89004 0.0
H334 H 0.94384 0.51866 0.83655 0.0
H335 H 0.96463 0.56363 0.84313 0.0
Tb336 Tb 0.69172 0.89255 0.9353 0.0
C337 C 0.6941 0.95666 0.0403 0.0
C338 C 0.67832 0.94174 0.09375 0.0
C339 C 0.71768 0.971 0.08999 0.0
C340 C 0.67616 0.94174 0.05917 0.0
C341 C 0.71474 0.97191 0.05572 0.0
C342 C 0.69952 0.95594 0.10896 0.0
C343 C 0.72751 0.98894 1.00256 0.0
N344 N 0.69087 0.95688 1.00705 0.0
C345 C 0.70693 0.97347 0.98828 0.0
C346 C 0.73163 0.98797 0.03635 0.0
Tb347 Tb 0.65705 0.92861 0.9874 0.0
N348 N 0.65572 0.92839 0.04377 0.0
C349 C 0.63568 0.91616 0.06181 0.0
C350 C 0.65869 0.92803 0.11211 0.0
C351 C 0.63707 0.91553 0.09607 0.0
H352 H 0.70526 0.97399 0.96201 0.0
H353 H 0.62142 0.90543 0.11008 0.0
H354 H 0.70168 0.95592 0.13545 0.0
H355 H 0.74044 1.00139 0.98736 0.0
H356 H 0.61873 0.90651 0.04979 0.0
H357 H 0.60986 0.90412 0.84721 0.0
H358 H 0.65967 0.92758 0.13869 0.0
H359 H 0.73155 0.84015 0.95202 0.0
H360 H 0.63984 0.91934 0.89138 0.0
H361 H 0.73325 0.79161 0.93853 0.0
H362 H 0.73362 0.98231 0.10213 0.0
H363 H 0.60985 0.85629 0.82969 0.0
H364 H 0.62727 0.8093 0.83746 0.0
H365 H 0.74772 0.99989 0.04728 0.0
H366 H 0.65925 0.77834 0.86411 0.0
N367 N 0.65798 0.88069 0.89895 0.0
C368 C 0.64078 0.8985 0.8839 0.0
C369 C 0.62341 0.86287 0.84906 0.0
C370 C 0.64054 0.84454 0.86482 0.0
C371 C 0.62338 0.88988 0.85887 0.0
C372 C 0.65788 0.85414 0.88989 0.0
H373 H 0.69879 0.77155 0.90173 0.0
N374 N 0.69495 0.84714 0.92558 0.0
C375 C 0.71701 0.80399 0.92902 0.0
C376 C 0.67632 0.83668 0.90446 0.0
C377 C 0.71583 0.83148 0.93684 0.0
C378 C 0.69748 0.79275 0.9083 0.0
C379 C 0.67727 0.80923 0.89502 0.0
O380 O 0.71209 0.8787 0.89319 0.0
O381 O 0.70064 0.9205 0.97662 0.0
O382 O 0.66234 0.95857 0.94468 0.0
O383 O 0.68483 0.9328 0.90692 0.0
O384 O 0.72304 0.88606 0.97431 0.0
O385 O 0.72653 0.9136 0.91907 0.0
O386 O 0.62283 0.94505 0.96393 0.0
O387 O 0.64797 0.89587 0.95053 0.0
O388 O 0.68686 0.86409 0.97688 0.0
O389 O 0.66634 0.89245 0.01549 0.0
O390 O 0.62757 0.89422 0.99299 0.0
O391 O 0.6345 0.95825 0.01227 0.0
C392 C 0.72048 0.90751 0.99241 0.0
C393 C 0.75892 0.88458 0.89324 0.0
C394 C 0.79014 0.8563 0.86172 0.0
C395 C 0.76528 0.86984 0.86481 0.0
C396 C 0.80901 0.85806 0.88748 0.0
C397 C 0.77797 0.88634 0.91876 0.0
C398 C 0.80297 0.87319 0.91571 0.0
C399 C 0.67352 0.95684 0.91465 0.0
C400 C 0.73152 0.89608 0.89593 0.0
C401 C 0.65893 0.79939 0.8715 0.0
C402 C 0.64079 0.81705 0.85623 0.0
C403 C 0.62934 0.88045 0.9659 0.0
C404 C 0.5876 0.95421 1.00197 0.0
C405 C 0.58203 0.95276 0.03585 0.0
C406 C 0.55621 0.94543 0.04712 0.0
C407 C 0.53533 0.94126 0.02411 0.0
C408 C 0.56645 0.95016 0.97943 0.0
C409 C 0.54042 0.9439 0.99054 0.0
C410 C 0.67689 0.86898 1.00668 0.0
C411 C 0.61557 0.95852 0.99012 0.0
H412 H 0.75023 0.86802 0.84551 0.0
H413 H 0.82838 0.84784 0.88574 0.0
H414 H 0.77345 0.89745 0.94109 0.0
H415 H 0.81759 0.87446 0.93547 0.0
H416 H 0.598 0.95632 0.05355 0.0
H417 H 0.51502 0.9361 0.03209 0.0
H418 H 0.57014 0.95146 0.95324 0.0
H419 H 0.52421 0.9407 0.97304 0.0
Tb420 Tb 0.45836 0.43419 0.68362 0.0
C421 C 0.39302 0.43874 0.78655 0.0
C422 C 0.4083 0.42587 0.84095 0.0
C423 C 0.37832 0.46438 0.83466 0.0
C424 C 0.40834 0.42208 0.80656 0.0
C425 C 0.37745 0.45981 0.80061 0.0
C426 C 0.39371 0.44746 0.85478 0.0
C427 C 0.36052 0.46997 0.74659 0.0
N428 N 0.39294 0.43402 0.75352 0.0
C429 C 0.37627 0.44899 0.73366 0.0
C430 C 0.36129 0.47558 0.78012 0.0
Tb431 Tb 0.42193 0.39999 0.73617 0.0
N432 N 0.42218 0.40131 0.79249 0.0
C433 C 0.43463 0.38234 0.81173 0.0
C434 C 0.42236 0.40745 0.86052 0.0
C435 C 0.43522 0.38535 0.84587 0.0
H436 H 0.37586 0.44611 0.70754 0.0
H437 H 0.44559 0.37062 0.86085 0.0
H438 H 0.39372 0.4509 0.88109 0.0
H439 H 0.34799 0.48204 0.73053 0.0
H440 H 0.44461 0.36514 0.80067 0.0
H441 H 0.45157 0.34486 0.60523 0.0
H442 H 0.42281 0.4097 0.88701 0.0
H443 H 0.50923 0.47678 0.69716 0.0
H444 H 0.43323 0.38087 0.64006 0.0
H445 H 0.5585 0.4783 0.68635 0.0
H446 H 0.36679 0.48069 0.84574 0.0
H447 H 0.5009 0.34163 0.59536 0.0
H448 H 0.54732 0.36092 0.60351 0.0
H449 H 0.34915 0.49198 0.78997 0.0
H450 H 0.57642 0.39689 0.62579 0.0
N451 N 0.47175 0.39879 0.65037 0.0
C452 C 0.45473 0.38047 0.63562 0.0
C453 C 0.49298 0.35779 0.61064 0.0
C454 C 0.51024 0.37711 0.62447 0.0
C455 C 0.46511 0.35961 0.61605 0.0
C456 C 0.49895 0.39768 0.64437 0.0
H457 H 0.58075 0.44079 0.65636 0.0
N458 N 0.50392 0.43807 0.67498 0.0
C459 C 0.5467 0.46107 0.67831 0.0
C460 C 0.51553 0.41783 0.65723 0.0
C461 C 0.51884 0.46007 0.68454 0.0
C462 C 0.55918 0.43985 0.66138 0.0
C463 C 0.54354 0.4181 0.65013 0.0
O464 O 0.43665 0.46749 0.66503 0.0
O465 O 0.43012 0.44325 0.72485 0.0
O466 O 0.39278 0.40343 0.69177 0.0
O467 O 0.4187 0.42608 0.65442 0.0
O468 O 0.4638 0.46666 0.72177 0.0
O469 O 0.47279 0.45327 0.6411 0.0
O470 O 0.40549 0.36462 0.71513 0.0
O471 O 0.45496 0.39116 0.69993 0.0
O472 O 0.48667 0.43096 0.72545 0.0
O473 O 0.45856 0.4099 0.76379 0.0
O474 O 0.4563 0.37035 0.74185 0.0
O475 O 0.39263 0.37836 0.76275 0.0
C476 C 0.44256 0.46375 0.74024 0.0
C477 C 0.4657 0.49985 0.63984 0.0
C478 C 0.49415 0.53136 0.60936 0.0
C479 C 0.48178 0.50598 0.61247 0.0
C480 C 0.48964 0.55101 0.63383 0.0
C481 C 0.46153 0.51957 0.66425 0.0
C482 C 0.47339 0.54508 0.66108 0.0
C483 C 0.39479 0.41429 0.6616 0.0
C484 C 0.45481 0.47229 0.64257 0.0
C485 C 0.55491 0.39715 0.63126 0.0
C486 C 0.53831 0.37669 0.61852 0.0
C487 C 0.47063 0.37291 0.71531 0.0
C488 C 0.39818 0.33132 0.75602 0.0
C489 C 0.3972 0.32719 0.79026 0.0
C490 C 0.40575 0.30263 0.80383 0.0
C491 C 0.414 0.28161 0.78277 0.0
C492 C 0.4061 0.30987 0.7354 0.0
C493 C 0.41383 0.28514 0.74877 0.0
C494 C 0.48191 0.42091 0.75506 0.0
C495 C 0.39267 0.35833 0.74208 0.0
H496 H 0.48471 0.49077 0.59352 0.0
H497 H 0.49902 0.57073 0.63219 0.0
H498 H 0.44938 0.51528 0.68578 0.0
H499 H 0.4702 0.56022 0.67997 0.0
H500 H 0.39099 0.34342 0.80656 0.0
H501 H 0.42053 0.26241 0.79264 0.0
H502 H 0.40682 0.31236 0.70899 0.0
H503 H 0.42016 0.26881 0.73274 0.0
Tb504 Tb 0.91511 0.19964 0.43674 0.0
C505 C 0.91402 0.13493 0.54217 0.0
C506 C 0.93045 0.15007 0.59535 0.0
C507 C 0.8909 0.12099 0.5923 0.0
C508 C 0.93222 0.14986 0.56073 0.0
C509 C 0.89347 0.11986 0.55797 0.0
C510 C 0.90934 0.13607 0.61095 0.0
C511 C 0.88003 0.10262 0.50504 0.0
N512 N 0.91688 0.13454 0.50887 0.0
C513 C 0.90054 0.1179 0.4904 0.0
C514 C 0.87626 0.10382 0.5389 0.0
Tb515 Tb 0.95018 0.16306 0.48853 0.0
N516 N 0.95242 0.16318 0.54493 0.0
C517 C 0.97273 0.17544 0.56258 0.0
C518 C 0.95032 0.16383 0.61333 0.0
C519 C 0.97178 0.17619 0.59688 0.0
H520 H 0.90189 0.11715 0.46413 0.0
H521 H 0.9876 0.18636 0.61058 0.0
H522 H 0.90744 0.13629 0.63748 0.0
H523 H 0.86688 0.09015 0.49005 0.0
H524 H 0.98942 0.18518 0.5502 0.0
H525 H 1.00129 0.1805 0.35569 0.0
H526 H 0.94963 0.16445 0.63994 0.0
H527 H 0.88429 0.25799 0.4575 0.0
H528 H 0.96489 0.16806 0.39303 0.0
H529 H 0.89093 0.30656 0.44799 0.0
H530 H 0.87501 0.10986 0.60472 0.0
H531 H 1.01032 0.22845 0.34369 0.0
H532 H 0.99832 0.27691 0.35242 0.0
H533 H 0.86022 0.09206 0.5501 0.0
H534 H 0.96878 0.31107 0.37787 0.0
N535 N 0.95153 0.20846 0.40227 0.0
C536 C 0.96744 0.18903 0.38765 0.0
C537 C 0.99372 0.2231 0.35989 0.0
C538 C 0.97739 0.24294 0.37427 0.0
C539 C 0.98866 0.19604 0.36656 0.0
C540 C 0.95603 0.23494 0.3953 0.0
H541 H 0.92887 0.32228 0.41329 0.0
N542 N 0.91886 0.24581 0.42926 0.0
C543 C 0.90482 0.2921 0.43717 0.0
C544 C 0.93941 0.25419 0.40958 0.0
C545 C 0.90128 0.26451 0.44263 0.0
C546 C 0.92621 0.30087 0.41757 0.0
C547 C 0.9437 0.28191 0.40332 0.0
O548 O 0.88515 0.22065 0.41047 0.0
O549 O 0.90647 0.17097 0.47729 0.0
O550 O 0.94438 0.13297 0.44541 0.0
O551 O 0.91905 0.15798 0.40974 0.0
O552 O 0.88111 0.20265 0.47336 0.0
O553 O 0.89186 0.17873 0.40139 0.0
O554 O 0.98452 0.1476 0.46397 0.0
O555 O 0.95836 0.19601 0.45207 0.0
O556 O 0.91747 0.22545 0.48145 0.0
O557 O 0.94048 0.19818 0.51833 0.0
O558 O 0.97917 0.19839 0.4939 0.0
O559 O 0.97378 0.1337 0.51214 0.0
C560 C 0.88501 0.18217 0.49228 0.0
C561 C 0.88147 0.20655 0.35608 0.0
C562 C 0.86378 0.23044 0.30874 0.0
C563 C 0.86125 0.2225 0.3416 0.0
C564 C 0.88658 0.22252 0.29043 0.0
C565 C 0.90419 0.1987 0.33743 0.0
C566 C 0.90669 0.20671 0.30476 0.0
C567 C 0.9315 0.13425 0.41636 0.0
C568 C 0.87985 0.20052 0.39132 0.0
C569 C 0.96514 0.2899 0.38283 0.0
C570 C 0.98192 0.27046 0.36831 0.0
C571 C 0.97651 0.21201 0.46701 0.0
C572 C 1.02044 0.14031 0.50145 0.0
C573 C 1.02629 0.14099 0.53531 0.0
C574 C 0.05107 0.15126 0.54667 0.0
C575 C 0.07098 0.1589 0.52379 0.0
C576 C 1.04077 0.14764 0.47895 0.0
C577 C 0.06597 0.15663 0.49014 0.0
C578 C 0.92808 0.22081 0.51074 0.0
C579 C 0.99263 0.13444 0.48981 0.0
H580 H 0.84395 0.22918 0.356 0.0
H581 H 0.88899 0.229 0.2652 0.0
H582 H 0.92019 0.18673 0.34817 0.0
H583 H 0.92442 0.20096 0.29066 0.0
H584 H 1.01101 0.13506 0.55302 0.0
H585 H 0.09035 0.16674 0.53196 0.0
H586 H 1.03695 0.14707 0.45276 0.0
H587 H 0.08142 0.16255 0.47267 0.0
Tb588 Tb 0.14856 0.65582 0.18595 0.0
C589 C 0.21167 0.65305 0.29226 0.0
C590 C 0.19513 0.66777 0.34564 0.0
C591 C 0.22534 0.62918 0.34175 0.0
C592 C 0.19592 0.67036 0.31113 0.0
C593 C 0.22708 0.63265 0.3076 0.0
C594 C 0.20938 0.64669 0.36073 0.0
C595 C 0.24597 0.6213 0.25468 0.0
N596 N 0.21268 0.65681 0.25914 0.0
C597 C 0.23023 0.64156 0.24045 0.0
C598 C 0.24418 0.6166 0.2883 0.0
Tb599 Tb 0.18412 0.69012 0.23947 0.0
N600 N 0.18262 0.69073 0.29585 0.0
C601 C 0.16984 0.71042 0.31401 0.0
C602 C 0.1807 0.68691 0.36407 0.0
C603 C 0.16837 0.70856 0.34821 0.0
H604 H 0.23146 0.64373 0.21428 0.0
H605 H 0.15776 0.72387 0.3623 0.0
H606 H 0.20876 0.64418 0.38715 0.0
H607 H 0.25924 0.60903 0.23953 0.0
H608 H 0.16033 0.72737 0.30212 0.0
H609 H 0.15857 0.74517 0.10916 0.0
H610 H 0.17962 0.68558 0.3906 0.0
H611 H 0.09622 0.61473 0.19813 0.0
H612 H 0.17571 0.70788 0.14233 0.0
H613 H 1.04674 0.61556 0.1885 0.0
H614 H 0.23674 0.61339 0.35381 0.0
H615 H 0.10929 0.75098 0.10107 0.0
H616 H 0.0621 0.73394 0.11025 0.0
H617 H 0.2563 0.60074 0.29916 0.0
H618 H 1.03166 0.69904 0.13214 0.0
N619 N 0.13653 0.69175 0.1533 0.0
C620 C 0.15419 0.70937 0.13856 0.0
C621 C 0.11668 0.73422 0.11553 0.0
C622 C 0.09871 0.71557 0.12928 0.0
C623 C 0.14451 0.73095 0.11995 0.0
C624 C 0.10932 0.69418 0.1481 0.0
H625 H 1.02577 0.65473 0.16092 0.0
N626 N 0.10288 0.65362 0.17752 0.0
C627 C 0.05919 0.63241 0.18087 0.0
C628 C 0.09198 0.67467 0.16083 0.0
C629 C 0.08716 0.63203 0.18638 0.0
C630 C 1.04744 0.65457 0.16532 0.0
C631 C 0.06389 0.67582 0.15453 0.0
O632 O 0.16892 0.62189 0.16626 0.0
O633 O 0.17685 0.64661 0.22691 0.0
O634 O 0.2145 0.68539 0.19636 0.0
O635 O 0.18913 0.66303 0.15803 0.0
O636 O 0.14283 0.62349 0.22367 0.0
O637 O 0.1334 0.63768 0.14299 0.0
O638 O 0.20137 0.72417 0.21675 0.0
O639 O 0.15159 0.69875 0.20279 0.0
O640 O 0.12 0.6587 0.22795 0.0
O641 O 0.14739 0.6801 0.26677 0.0
O642 O 0.14948 0.71985 0.24449 0.0
O643 O 0.21248 0.71326 0.26591 0.0
C644 C 0.16431 0.62598 0.24176 0.0
C645 C 0.13867 0.59086 0.14043 0.0
C646 C 0.10899 0.56061 0.1095 0.0
C647 C 0.12207 0.58561 0.11324 0.0
C648 C 0.11323 0.54049 0.13318 0.0
C649 C 0.14256 0.57065 0.16405 0.0
C650 C 0.12994 0.54554 0.16027 0.0
C651 C 0.21308 0.67438 0.1661 0.0
C652 C 0.15059 0.61798 0.1438 0.0
C653 C 0.05324 0.69764 0.13687 0.0
C654 C 0.07059 0.71748 0.12433 0.0
C655 C 0.13551 0.71701 0.21778 0.0
C656 C 0.20841 0.75995 0.25476 0.0
C657 C 0.20669 0.76645 0.2885 0.0
C658 C 0.1992 0.79254 0.29876 0.0
C659 C 0.19468 0.81251 0.27497 0.0
C660 C 0.20413 0.78035 0.23149 0.0
C661 C 0.19742 0.80648 0.24161 0.0
C662 C 0.12426 0.66889 0.25771 0.0
C663 C 0.21352 0.73189 0.24363 0.0
H664 H 0.11934 0.60117 0.09488 0.0
H665 H 0.1033 0.52105 0.13106 0.0
H666 H 0.15511 0.57425 0.18544 0.0
H667 H 0.13291 0.53003 0.17854 0.0
H668 H 0.21015 0.75107 0.30684 0.0
H669 H 0.18907 0.83284 0.28223 0.0
H670 H 0.2056 0.77602 0.20543 0.0
H671 H 0.19395 0.82202 0.2235 0.0
Tb672 Tb 0.94448 0.66716 0.53737 0.0
C673 C 0.92446 0.75857 0.62052 0.0
C674 C 0.96007 0.75037 0.66029 0.0
C675 C 0.94169 0.79557 0.65405 0.0
C676 C 0.9428 0.74097 0.63505 0.0
C677 C 0.92348 0.78594 0.63026 0.0
C678 C 0.95977 0.7778 0.66922 0.0
C679 C 0.88399 0.7915 0.5959 0.0
N680 N 0.90594 0.7483 0.59911 0.0
C681 C 0.88519 0.76408 0.58777 0.0
C682 C 0.90337 0.80255 0.61698 0.0
Tb683 Tb 0.90911 0.70295 0.58904 0.0
N684 N 0.9427 0.71446 0.62575 0.0
C685 C 0.9598 0.69653 0.64073 0.0
C686 C 0.97724 0.73195 0.67582 0.0
C687 C 0.97725 0.705 0.66577 0.0
H688 H 0.86958 0.75553 0.57232 0.0
H689 H 0.99075 0.69068 0.67732 0.0
H690 H 0.97321 0.7854 0.68816 0.0
H691 H 0.86783 0.80399 0.58637 0.0
H692 H 0.96067 0.67572 0.63311 0.0
H693 H 0.98161 0.69068 0.41545 0.0
H694 H 0.99079 0.7384 0.69526 0.0
H695 H 0.89627 0.62133 0.56163 0.0
H696 H 0.98358 0.68936 0.47575 0.0
H697 H 0.86148 0.59394 0.53554 0.0
H698 H 0.94132 0.81656 0.6617 0.0
H699 H 0.94369 0.66866 0.38605 0.0
H700 H 0.90168 0.64024 0.38841 0.0
H701 H 0.90203 0.82369 0.62379 0.0
H702 H 0.86943 0.61362 0.42103 0.0
N703 N 0.9465 0.66749 0.48102 0.0
C704 C 0.96677 0.67977 0.4634 0.0
C705 C 0.94436 0.6681 0.41264 0.0
C706 C 0.92453 0.6543 0.43058 0.0
C707 C 0.96579 0.68053 0.42912 0.0
C708 C 0.92629 0.65415 0.46519 0.0
H709 H 0.85481 0.59572 0.47553 0.0
N710 N 0.91112 0.63869 0.51695 0.0
C711 C 0.87453 0.6065 0.52063 0.0
C712 C 0.9082 0.63909 0.48367 0.0
C713 C 0.8949 0.62197 0.53535 0.0
C714 C 0.87075 0.60764 0.48679 0.0
C715 C 0.88778 0.62385 0.46782 0.0
O716 O 0.9786 0.65094 0.56129 0.0
O717 O 0.95306 0.70001 0.57443 0.0
O718 O 0.91401 0.73147 0.54757 0.0
O719 O 0.93509 0.7033 0.50923 0.0
O720 O 0.97355 0.70179 0.53204 0.0
O721 O 0.96808 0.63826 0.51241 0.0
O722 O 0.88836 0.71683 0.63089 0.0
O723 O 0.90065 0.67502 0.54762 0.0
O724 O 0.93879 0.63695 0.57998 0.0
O725 O 0.91546 0.66259 0.61716 0.0
O726 O 0.87811 0.70938 0.54969 0.0
O727 O 0.87422 0.68185 0.60496 0.0
C728 C 0.97167 0.7155 0.55912 0.0
C729 C 1.01476 0.64406 0.5236 0.0
C730 C 1.04655 0.6535 0.47896 0.0
C731 C 1.02118 0.64426 0.48982 0.0
C732 C 0.06618 0.66103 0.50224 0.0
C733 C 1.03486 0.65123 0.54646 0.0
C734 C 0.06046 0.65949 0.53577 0.0
C735 C 0.92428 0.72669 0.51792 0.0
C736 C 0.98677 0.63832 0.53485 0.0
C737 C 0.8852 0.62492 0.4335 0.0
C738 C 0.90354 0.64011 0.41493 0.0
C739 C 0.88085 0.68792 0.53161 0.0
C740 C 0.84156 0.71077 0.63043 0.0
C741 C 0.83492 0.7254 0.65886 0.0
C742 C 0.80997 0.73879 0.66176 0.0
C743 C 0.79129 0.73701 0.63579 0.0
C744 C 0.8227 0.70899 0.60471 0.0
C745 C 0.7976 0.722 0.60755 0.0
C746 C 0.92695 0.63861 0.6097 0.0
C747 C 0.86902 0.69939 0.62801 0.0
H748 H 1.00607 0.63853 0.47179 0.0
H749 H 0.08596 0.66811 0.49445 0.0
H750 H 1.03063 0.65099 0.57259 0.0
H751 H 0.07573 0.66527 0.55354 0.0
H752 H 0.84982 0.72723 0.67832 0.0
H753 H 0.77186 0.74713 0.63738 0.0
H754 H 0.82743 0.69797 0.58238 0.0
H755 H 0.78313 0.72071 0.58765 0.0
Tb756 Tb 0.17883 0.19696 0.78834 0.0
C757 C 0.08649 0.17859 0.87057 0.0
C758 C 0.09239 0.21919 0.9034 0.0
C759 C 1.0478 0.19859 0.89877 0.0
C760 C 0.10326 0.19886 0.88278 0.0
C761 C 0.05874 0.17796 0.87902 0.0
C762 C 0.06457 0.21915 0.91088 0.0
C763 C 0.05499 0.13545 0.84993 0.0
N764 N 0.09769 0.15869 0.85187 0.0
C765 C 0.08261 0.1368 0.84233 0.0
C766 C 1.04293 0.15624 0.86806 0.0
Tb767 Tb 0.14298 0.16284 0.84156 0.0
N768 N 0.13021 0.19822 0.87527 0.0
C769 C 0.14743 0.21692 0.88894 0.0
C770 C 0.10983 0.23877 0.91634 0.0
C771 C 0.13746 0.23752 0.90921 0.0
H772 H 0.09191 0.1204 0.82883 0.0
H773 H 0.15113 0.25253 0.91924 0.0
H774 H 0.05589 0.23471 0.9265 0.0
H775 H 1.04306 0.11826 0.84201 0.0
H776 H 0.16871 0.21704 0.88313 0.0
H777 H 0.15348 0.22605 0.66402 0.0
H778 H 0.10223 0.25473 0.93216 0.0
H779 H 0.22561 0.15125 0.81614 0.0
H780 H 0.15513 0.23157 0.72413 0.0
H781 H 0.25369 0.11571 0.79264 0.0
H782 H 1.02649 0.19854 0.90532 0.0
H783 H 0.17611 0.18705 0.63751 0.0
H784 H 0.20557 0.14607 0.64295 0.0
H785 H 1.02155 0.15502 0.87411 0.0
H786 H 0.23326 0.11661 0.67783 0.0
N787 N 0.17772 0.19544 0.73202 0.0
C788 C 0.16501 0.21437 0.71296 0.0
C789 C 0.17682 0.1893 0.66399 0.0
C790 C 0.1912 0.17095 0.68334 0.0
C791 C 0.16404 0.21134 0.67884 0.0
C792 C 0.19151 0.17474 0.71772 0.0
H793 H 0.25188 0.10568 0.73324 0.0
N794 N 0.20776 0.16308 0.77047 0.0
C795 C 0.24077 0.12758 0.77682 0.0
C796 C 0.20726 0.15827 0.73747 0.0
C797 C 0.22487 0.14833 0.79003 0.0
C798 C 0.23963 0.12191 0.74331 0.0
C799 C 0.22292 0.13739 0.72314 0.0
O800 O 0.19524 0.23271 0.80849 0.0
O801 O 0.1459 0.20575 0.82479 0.0
O802 O 0.1141 0.16598 0.80025 0.0
O803 O 0.14187 0.18679 0.76135 0.0
O804 O 0.14458 0.22675 0.78298 0.0
O805 O 0.20797 0.2183 0.76113 0.0
O806 O 0.12929 0.14277 0.88376 0.0
O807 O 0.17096 0.15373 0.80017 0.0
O808 O 0.20841 0.19348 0.83251 0.0
O809 O 0.18264 0.17133 0.87048 0.0
O810 O 0.13708 0.13063 0.80321 0.0
O811 O 0.16587 0.13009 0.85949 0.0
C812 C 0.13031 0.22415 0.80953 0.0
C813 C 0.20191 0.26538 0.7666 0.0
C814 C 0.1935 0.29308 0.71804 0.0
C815 C 0.20264 0.26894 0.73221 0.0
C816 C 0.185 0.31431 0.73866 0.0
C817 C 0.19371 0.28706 0.7867 0.0
C818 C 0.18547 0.31139 0.77275 0.0
C819 C 0.11855 0.17593 0.7705 0.0
C820 C 0.20783 0.23869 0.78125 0.0
C821 C 0.22166 0.13277 0.68911 0.0
C822 C 0.20584 0.1495 0.66926 0.0
C823 C 0.15836 0.13337 0.78477 0.0
C824 C 0.138 0.09641 0.88407 0.0
C825 C 0.12143 0.0896 0.91075 0.0
C826 C 0.11005 0.06373 0.91338 0.0
C827 C 0.11612 1.04427 0.8892 0.0
C828 C 0.14373 0.07686 0.85991 0.0
C829 C 0.1329 0.05086 0.86265 0.0
C830 C 0.20659 0.18282 0.86286 0.0
C831 C 0.1479 0.12437 0.88186 0.0
H832 H 0.20907 0.25254 0.71629 0.0
H833 H 0.17805 0.33322 0.72838 0.0
H834 H 0.19317 0.28503 0.81318 0.0
H835 H 0.17893 0.32789 0.78841 0.0
H836 H 0.11732 0.10466 0.92955 0.0
H837 H 0.10756 1.02416 0.89052 0.0
H838 H 0.15633 0.08164 0.83891 0.0
H839 H 0.13729 1.03585 0.84396 0.0
Tb840 Tb 0.64897 0.43284 0.03676 0.0
C841 C 0.66618 0.34157 0.11711 0.0
C842 C 0.6264 0.34888 0.1512 0.0
C843 C 0.64499 0.30368 0.14498 0.0
C844 C 0.64686 0.35902 0.1303 0.0
C845 C 0.6658 0.31387 0.12499 0.0
C846 C 0.62532 0.32112 0.15798 0.0
C847 C 0.70795 0.30866 0.09517 0.0
N848 N 0.68633 0.35205 0.09825 0.0
C849 C 0.70761 0.33624 0.08816 0.0
C850 C 0.6868 0.29735 0.11334 0.0
Tb851 Tb 0.68386 0.39738 0.08894 0.0
N852 N 0.64863 0.38591 0.12354 0.0
C853 C 0.63102 0.40372 0.13827 0.0
C854 C 0.60785 0.36697 0.16515 0.0
C855 C 0.61029 0.39448 0.1588 0.0
H856 H 0.72428 0.34497 0.0746 0.0
H857 H 0.5961 0.40864 0.16965 0.0
H858 H 0.60964 0.31301 0.1738 0.0
H859 H 0.72462 0.29618 0.08678 0.0
H860 H 0.63182 0.42498 0.13311 0.0
H861 H 0.61068 0.40799 0.91568 0.0
H862 H 0.5918 0.35993 0.18119 0.0
H863 H 0.69749 0.47873 0.05989 0.0
H864 H 0.60912 0.41029 0.97601 0.0
H865 H 0.73274 0.50503 0.03306 0.0
H866 H 0.64424 0.28242 0.15108 0.0
H867 H 0.64885 0.4288 0.88553 0.0
H868 H 0.69144 0.45645 0.88702 0.0
H869 H 0.68724 0.27599 0.11896 0.0
H870 H 0.72425 0.48315 0.91892 0.0
N871 N 0.64653 0.43169 0.98049 0.0
C872 C 0.62598 0.41944 0.96332 0.0
C873 C 0.64832 0.42986 0.91212 0.0
C874 C 0.66846 0.44364 0.92963 0.0
C875 C 0.62674 0.4181 0.92903 0.0
C876 C 0.66685 0.44446 0.96424 0.0
H877 H 0.73931 0.50189 0.97304 0.0
N878 N 0.68244 0.46064 0.01558 0.0
C879 C 0.71948 0.49237 0.01846 0.0
C880 C 0.68523 0.45958 0.9823 0.0
C881 C 0.69887 0.47753 0.03359 0.0
C882 C 0.7232 0.49047 0.98462 0.0
C883 C 0.70585 0.47418 0.96603 0.0
O884 O 0.61518 0.44944 0.06136 0.0
O885 O 0.64043 0.40065 0.07383 0.0
O886 O 0.67992 0.36893 0.04702 0.0
O887 O 0.65827 0.39628 1.00865 0.0
O888 O 0.61901 0.39856 0.03236 0.0
O889 O 0.62579 0.46218 0.01262 0.0
O890 O 0.71788 0.41854 0.10699 0.0
O891 O 0.69265 0.42491 0.04743 0.0
O892 O 0.65533 0.46347 0.07921 0.0
O893 O 0.677 0.43766 0.11732 0.0
O894 O 0.71566 0.39107 0.05006 0.0
O895 O 0.7039 0.3825 0.13056 0.0
C896 C 0.62189 0.38481 0.05909 0.0
C897 C 0.57913 0.457 0.02413 0.0
C898 C 0.54771 0.44732 0.97931 0.0
C899 C 0.57298 0.45652 0.99039 0.0
C900 C 0.52776 0.44023 1.00242 0.0
C901 C 0.55879 0.45025 0.04689 0.0
C902 C 0.5332 0.44211 0.03601 0.0
C903 C 0.66956 0.37319 0.01739 0.0
C904 C 0.60717 0.46232 0.03526 0.0
C905 C 0.70831 0.47238 0.93171 0.0
C906 C 0.68966 0.45714 0.91355 0.0
C907 C 0.71288 0.4122 0.0317 0.0
C908 C 0.75078 0.38799 0.12781 0.0
C909 C 0.75778 0.36971 0.15257 0.0
C910 C 0.78297 0.35667 0.1521 0.0
C911 C 0.80135 0.36208 0.12655 0.0
C912 C 0.76928 0.39314 0.10227 0.0
C913 C 0.79444 0.38018 0.10172 0.0
C914 C 0.66628 0.46179 0.10937 0.0
C915 C 0.72343 0.39983 0.12827 0.0
H916 H 0.58835 0.46186 0.9725 0.0
H917 H 0.50803 0.43318 0.99447 0.0
H918 H 0.56287 0.45065 0.07303 0.0
H919 H 0.51773 0.43662 0.05367 0.0
H920 H 0.74355 0.36566 0.17231 0.0
H921 H 0.82088 0.35208 0.12562 0.0
H922 H 0.76426 0.40688 0.0826 0.0
H923 H 0.80857 0.38407 0.08191 0.0
Tb924 Tb 0.41412 0.90546 0.28728 0.0
C925 C 0.50761 0.92173 0.36385 0.0
C926 C 0.50054 0.88433 0.40116 0.0
C927 C 0.54615 0.90098 0.39114 0.0
C928 C 0.49016 0.90341 0.37879 0.0
C929 C 0.53569 0.92101 0.37045 0.0
C930 C 0.52861 0.88281 0.40662 0.0
C931 C 0.54066 0.96226 0.33956 0.0
N932 N 0.49676 0.94175 0.34529 0.0
C933 C 0.51266 0.96257 0.33436 0.0
C934 C 0.55229 0.9412 0.35732 0.0
Tb935 Tb 0.45077 0.94008 0.33854 0.0
N936 N 0.46299 0.90527 0.37285 0.0
C937 C 0.44526 0.88874 0.38922 0.0
C938 C 0.48239 0.8676 0.4179 0.0
C939 C 0.45467 0.86979 0.41183 0.0
H940 H 0.50372 0.97926 0.32126 0.0
H941 H 0.4405 0.85672 0.42441 0.0
H942 H 0.53691 0.868 0.42333 0.0
H943 H 0.55322 0.97844 0.33024 0.0
H944 H 0.42385 0.88934 0.38447 0.0
H945 H 0.43657 0.86922 0.16421 0.0
H946 H 0.48958 0.85281 0.43538 0.0
H947 H 0.36784 0.95271 0.31357 0.0
H948 H 0.43723 0.86766 0.22445 0.0
H949 H 0.33719 0.98496 0.28861 0.0
H950 H 0.56768 0.89998 0.39627 0.0
H951 H 0.41147 0.9054 0.13583 0.0
H952 H 0.38088 0.94564 0.13944 0.0
H953 H 0.57395 0.94128 0.36179 0.0
H954 H 0.35355 0.97664 0.17322 0.0
N955 N 0.41333 0.90333 0.23085 0.0
C956 C 0.42631 0.88377 0.21264 0.0
C957 C 0.41177 0.90494 0.16243 0.0
C958 C 0.39746 0.92407 0.18099 0.0
C959 C 0.42594 0.88449 0.17834 0.0
C960 C 0.39849 0.92266 0.21561 0.0
H961 H 0.33642 0.99068 0.22846 0.0
N962 N 0.3841 0.93774 0.2681 0.0
C963 C 0.34997 0.97243 0.27315 0.0
C964 C 0.38323 0.94021 0.23478 0.0
C965 C 0.36732 0.95347 0.28725 0.0
C966 C 0.34968 0.97571 0.23923 0.0
C967 C 0.36634 0.95951 0.21957 0.0
O968 O 0.39943 0.87084 0.31137 0.0
O969 O 0.4476 0.89674 0.32321 0.0
O970 O 0.47797 0.93684 0.29479 0.0
O971 O 0.44836 0.91718 0.25738 0.0
O972 O 0.45013 0.87797 0.27974 0.0
O973 O 0.38549 0.88097 0.26306 0.0
O974 O 0.46754 0.9594 0.37984 0.0
O975 O 0.42136 0.94937 0.29881 0.0
O976 O 0.38423 0.91063 0.33053 0.0
O977 O 0.41052 0.93334 0.36755 0.0
O978 O 0.45562 0.97228 0.30061 0.0
O979 O 0.43048 0.97379 0.359 0.0
C980 C 0.46366 0.87931 0.30688 0.0
C981 C 0.39298 0.83461 0.27381 0.0
C982 C 0.40409 0.80311 0.22927 0.0
C983 C 0.39414 0.82825 0.23997 0.0
C984 C 0.41114 0.78362 0.25272 0.0
C985 C 0.39975 0.81463 0.29676 0.0
C986 C 0.40857 0.78925 0.28621 0.0
C987 C 0.47188 0.92822 0.26471 0.0
C988 C 0.38656 0.86234 0.28533 0.0
C989 C 0.36612 0.96171 0.1852 0.0
C990 C 0.38169 0.94407 0.16596 0.0
C991 C 0.43357 0.97006 0.2835 0.0
C992 C 0.46058 1.00588 0.38317 0.0
C993 C 0.47586 1.01224 0.41114 0.0
C994 C 0.48854 1.03748 0.41443 0.0
C995 C 0.48547 0.0566 0.3893 0.0
C996 C 0.45757 1.02517 0.3583 0.0
C997 C 0.46993 0.05047 0.3615 0.0
C998 C 0.38634 0.92195 0.36046 0.0
C999 C 0.44958 0.97838 0.38028 0.0
H1000 H 0.38857 0.84318 0.22186 0.0
H1001 H 0.41869 0.76402 0.2451 0.0
H1002 H 0.39874 0.8188 0.32289 0.0
H1003 H 0.41402 0.77408 0.30407 0.0
H1004 H 0.47862 0.99704 0.42993 0.0
H1005 H 0.49496 0.07627 0.39121 0.0
H1006 H 0.44602 1.02066 0.33635 0.0
H1007 H 0.46766 0.06529 0.34226 0.0
Tb1008 Tb 0.19868 0.38534 0.42527 0.0
C1009 C 0.20719 0.45431 0.52255 0.0
C1010 C 0.20861 0.4347 0.57697 0.0
C1011 C 0.23962 0.47093 0.56313 0.0
C1012 C 0.19762 0.43564 0.54493 0.0
C1013 C 0.22777 0.47274 0.53193 0.0
C1014 C 0.23014 0.45187 0.58556 0.0
C1015 C 0.22165 0.49542 0.48053 0.0
N1016 N 0.19564 0.45522 0.4922 0.0
C1017 C 0.20133 0.47692 0.47245 0.0
C1018 C 0.23546 0.49292 0.51003 0.0
Tb1019 Tb 0.16373 0.42182 0.48098 0.0
N1020 N 0.17669 0.41937 0.53591 0.0
C1021 C 0.16412 0.40372 0.5594 0.0
C1022 C 0.1973 0.41697 0.59979 0.0
C1023 C 0.17464 0.40178 0.59113 0.0
H1024 H 0.18992 0.48161 0.45104 0.0
H1025 H 0.16515 0.38863 0.60893 0.0
H1026 H 0.2391 0.45108 0.60982 0.0
H1027 H 0.22616 0.51205 0.46425 0.0
H1028 H 0.14621 0.39212 0.55322 0.0
H1029 H 0.10815 0.39501 0.3509 0.0
H1030 H 0.20535 0.41555 0.62447 0.0
H1031 H 0.24108 0.33458 0.43653 0.0
H1032 H 0.14438 0.41146 0.38719 0.0
H1033 H 0.2439 0.28635 0.42091 0.0
H1034 H 0.25574 0.48458 0.57038 0.0
H1035 H 0.10605 0.34671 0.33548 0.0
H1036 H 0.12664 0.30044 0.33833 0.0
H1037 H 0.25109 0.50743 0.51633 0.0
H1038 H 0.16326 0.27082 0.35771 0.0
N1039 N 0.16262 0.37286 0.39322 0.0
C1040 C 0.14392 0.39041 0.38071 0.0
C1041 C 0.12202 0.35381 0.35159 0.0
C1042 C 0.1418 0.3361 0.36337 0.0
C1043 C 0.12318 0.38109 0.3602 0.0
C1044 C 0.16208 0.34633 0.38443 0.0
H1045 H 0.20708 0.26538 0.38838 0.0
N1046 N 0.20225 0.34026 0.41487 0.0
C1047 C 0.22639 0.29817 0.41395 0.0
C1048 C 0.18254 0.32952 0.39562 0.0
C1049 C 0.22466 0.32541 0.42292 0.0
C1050 C 0.20557 0.28643 0.39557 0.0
C1051 C 0.18351 0.30221 0.38569 0.0
O1052 O 0.23993 0.38824 0.41136 0.0
O1053 O 0.20688 0.41457 0.46666 0.0
O1054 O 0.16201 0.44795 0.43391 0.0
O1055 O 0.19385 0.42765 0.40122 0.0
O1056 O 0.23048 0.38077 0.4639 0.0
O1057 O 0.20932 0.38343 0.37479 0.0
O1058 O 0.13146 0.44847 0.46749 0.0
O1059 O 0.1564 0.38758 0.44648 0.0
O1060 O 0.1933 0.3548 0.46361 0.0
O1061 O 0.17231 0.38223 0.50282 0.0
O1062 O 0.12867 0.39259 0.48041 0.0
O1063 O 0.14011 0.43846 0.51845 0.0
C1064 C 0.22722 0.40205 0.48209 0.0
C1065 C 0.25353 0.36517 0.3622 0.0
C1066 C 0.29826 0.3488 0.35082 0.0
C1067 C 0.28159 0.36713 0.36716 0.0
C1068 C 0.29196 0.33555 0.32215 0.0
C1069 C 0.24435 0.34718 0.3373 0.0
C1070 C 0.26319 0.33304 0.31688 0.0
C1071 C 0.17742 0.44902 0.4065 0.0
C1072 C 0.2352 0.38423 0.38036 0.0
C1073 C 0.16295 0.29179 0.36544 0.0
C1074 C 0.14213 0.30867 0.35435 0.0
C1075 C 0.13309 0.37567 0.45654 0.0
C1076 C 0.10173 0.46756 0.51084 0.0
C1077 C 0.09131 0.4627 0.54257 0.0
C1078 C 0.06874 0.47713 0.55442 0.0
C1079 C 0.05706 0.49702 0.53435 0.0
C1080 C 0.08969 0.48739 0.49123 0.0
C1081 C 0.06757 0.50215 0.50308 0.0
C1082 C 0.18295 0.35897 0.49322 0.0
C1083 C 0.12471 0.45143 0.49834 0.0
H1084 H 0.29027 0.38213 0.38351 0.0
H1085 H 0.32828 0.33083 0.29578 0.0
H1086 H 0.22289 0.34544 0.3321 0.0
H1087 H 0.25519 0.32207 0.296 0.0
H1088 H 0.10012 0.44696 0.55759 0.0
H1089 H 1.0397 0.50855 0.54282 0.0
H1090 H 0.09738 0.49147 0.4668 0.0
H1091 H 0.05836 0.51746 0.48785 0.0
Tb1092 Tb 0.95722 0.93265 0.18572 0.0
C1093 C 0.89383 0.9346 0.2926 0.0
C1094 C 0.90949 0.91825 0.34537 0.0
C1095 C 0.88051 0.95782 0.34304 0.0
C1096 C 0.90891 0.91644 0.31076 0.0
C1097 C 0.87897 0.95516 0.30874 0.0
C1098 C 0.89575 0.93941 0.36132 0.0
C1099 C 0.86101 0.96831 0.2562 0.0
N1100 N 0.89304 0.93163 0.25933 0.0
C1101 C 0.87612 0.94778 0.24121 0.0
C1102 C 0.86266 0.97224 0.29003 0.0
Tb1103 Tb 0.92121 0.89828 0.23834 0.0
N1104 N 0.92186 0.89614 0.29462 0.0
C1105 C 0.93407 0.87579 0.31191 0.0
C1106 C 0.92326 0.89834 0.36299 0.0
C1107 C 0.93522 0.87679 0.3462 0.0
H1108 H 0.87508 0.94622 0.21492 0.0
H1109 H 0.94531 0.8609 0.35963 0.0
H1110 H 0.89624 0.94133 0.38784 0.0
H1111 H 0.84832 0.98136 0.24151 0.0
H1112 H 0.94331 0.85889 0.29935 0.0
H1113 H 0.94576 0.84345 0.10783 0.0
H1114 H 0.92415 0.89904 0.38958 0.0
H1115 H 1.01027 0.97255 0.19922 0.0
H1116 H 0.92927 0.88055 0.14227 0.0
H1117 H 0.05967 0.97125 0.18875 0.0
H1118 H 0.86954 0.97371 0.35574 0.0
H1119 H 0.99487 0.83755 0.09823 0.0
H1120 H 1.04225 0.85429 0.10658 0.0
H1121 H 0.85103 0.98829 0.30151 0.0
H1122 H 0.07322 0.88869 0.12879 0.0
N1123 N 0.96865 0.89661 0.1524 0.0
C1124 C 0.95072 0.87908 0.13783 0.0
C1125 C 0.98778 0.85424 0.11325 0.0
C1126 C 1.00602 0.87272 0.12695 0.0
C1127 C 0.96003 0.85757 0.11851 0.0
C1128 C 0.99578 0.89405 0.14651 0.0
H1129 H 0.07988 0.93243 0.15909 0.0
N1130 N 1.0029 0.93424 0.17695 0.0
C1131 C 1.04693 0.95474 0.18061 0.0
C1132 C 1.01342 0.9133 0.15938 0.0
C1133 C 1.01902 0.95536 0.1866 0.0
C1134 C 0.05825 0.93277 0.16387 0.0
C1135 C 1.04145 0.91193 0.15256 0.0
O1136 O 0.97321 0.95187 0.14408 0.0
O1137 O 0.92904 0.94163 0.22693 0.0
O1138 O 0.89084 0.90425 0.19567 0.0
O1139 O 0.91679 0.92584 0.15747 0.0
O1140 O 0.96266 0.96522 0.22372 0.0
O1141 O 0.93603 0.96573 0.16581 0.0
O1142 O 0.9048 0.86463 0.21356 0.0
O1143 O 0.95427 0.88969 0.20202 0.0
O1144 O 0.98511 0.92993 0.22817 0.0
O1145 O 0.9575 0.90821 0.26649 0.0
O1146 O 0.95577 0.86858 0.24344 0.0
O1147 O 0.89159 0.8752 0.26234 0.0
C1148 C 0.94138 0.96227 0.24215 0.0
C1149 C 0.96539 0.99833 0.14167 0.0
C1150 C 0.99332 1.03035 0.11131 0.0
C1151 C 0.98167 1.00465 0.11456 0.0
C1152 C 0.98791 0.05008 0.13541 0.0
C1153 C 0.96034 1.01813 0.16574 0.0
C1154 C 0.9715 1.04393 0.16245 0.0
C1155 C 0.89255 0.91511 0.16551 0.0
C1156 C 0.95493 0.97061 0.1443 0.0
C1157 C 0.05171 0.89024 0.134 0.0
C1158 C 1.03406 0.87067 0.12129 0.0
C1159 C 0.97018 0.87147 0.21707 0.0
C1160 C 0.89605 0.82871 0.25029 0.0
C1161 C 0.89641 0.82235 0.28395 0.0
C1162 C 0.90442 0.79668 0.29446 0.0
C1163 C 0.91058 0.77671 0.27096 0.0
C1164 C 0.90184 0.80836 0.22712 0.0
C1165 C 0.90889 0.78246 0.23748 0.0
C1166 C 0.98062 0.9197 0.25778 0.0
C1167 C 0.89142 0.85677 0.23949 0.0
H1168 H 0.98526 0.98937 0.09586 0.0
H1169 H 0.99671 0.07006 0.13364 0.0
H1170 H 0.94797 1.01369 0.18706 0.0
H1171 H 0.96762 0.05915 0.18105 0.0
H1172 H 0.8918 0.8377 0.30218 0.0
H1173 H 0.91676 0.75669 0.27853 0.0
H1174 H 0.90145 0.81262 0.20105 0.0
H1175 H 0.91362 0.76697 0.21952 0.0
Tb1176 Tb 0.4142 0.70051 0.93603 0.0
C1177 C 0.41264 0.63631 0.04071 0.0
C1178 C 0.42866 0.6515 0.09405 0.0
C1179 C 0.38933 0.62216 0.0906 0.0
C1180 C 0.43064 0.65134 0.05945 0.0
C1181 C 0.39213 0.62105 0.05629 0.0
C1182 C 0.40754 0.63736 0.10944 0.0
C1183 C 0.37929 0.60362 1.00321 0.0
N1184 N 0.41574 0.63594 1.00743 0.0
C1185 C 0.39971 0.61914 0.98876 0.0
C1186 C 0.37526 0.60479 0.03704 0.0
Tb1187 Tb 0.44921 0.66441 0.9875 0.0
N1188 N 0.45096 0.66464 0.04386 0.0
C1189 C 0.47113 0.67691 0.06171 0.0
C1190 C 0.44838 0.66528 0.11224 0.0
C1191 C 0.46994 0.67767 0.096 0.0
H1192 H 0.40129 0.61846 0.96247 0.0
H1193 H 0.48568 0.68781 0.10987 0.0
H1194 H 0.4055 0.63752 0.13595 0.0
H1195 H 0.36638 0.591 0.98809 0.0
H1196 H 0.48801 0.68649 0.04953 0.0
H1197 H 0.49692 0.68939 0.84839 0.0
H1198 H 0.44755 0.66586 0.13884 0.0
H1199 H 0.37435 0.75288 0.95318 0.0
H1200 H 0.46556 0.67355 0.89069 0.0
H1201 H 0.37359 0.80174 0.94173 0.0
H1202 H 0.37347 0.61087 0.10287 0.0
H1203 H 0.49891 0.7378 0.83428 0.0
H1204 H 0.48249 0.78491 0.84437 0.0
H1205 H 0.35928 0.59285 0.04808 0.0
H1206 H 0.4502 0.8157 0.8713 0.0
N1207 N 0.44859 0.71246 0.90061 0.0
C1208 C 0.46545 0.69466 0.88467 0.0
C1209 C 0.48475 0.73096 0.85286 0.0
C1210 C 0.46784 0.74922 0.86937 0.0
C1211 C 0.48365 0.70362 0.86072 0.0
C1212 C 0.4496 0.73928 0.89324 0.0
H1213 H 0.40949 0.82215 0.90742 0.0
N1214 N 0.4117 0.74607 0.928 0.0
C1215 C 0.39 0.78937 0.93239 0.0
C1216 C 0.43108 0.75671 0.90808 0.0
C1217 C 0.39062 0.76172 0.93904 0.0
C1218 C 0.41034 0.80081 0.91307 0.0
C1219 C 0.4308 0.78437 0.89993 0.0
O1220 O 0.37925 0.68043 0.91836 0.0
O1221 O 0.40551 0.67211 0.97671 0.0
O1222 O 0.44369 0.63431 0.94432 0.0
O1223 O 0.42096 0.66014 0.9072 0.0
O1224 O 0.38257 0.70624 0.97504 0.0
O1225 O 0.39468 0.71542 0.89405 0.0
O1226 O 0.48338 0.64822 0.9632 0.0
O1227 O 0.45782 0.69727 0.95106 0.0
O1228 O 0.41826 0.72849 0.97866 0.0
O1229 O 0.4395 0.70039 0.01649 0.0
O1230 O 0.47817 0.69929 0.9934 0.0
O1231 O 0.47253 0.63519 1.01175 0.0
C1232 C 0.38536 0.68472 0.99268 0.0
C1233 C 0.34763 0.7105 0.89333 0.0
C1234 C 0.31693 0.74003 0.86306 0.0
C1235 C 0.342 0.72682 0.86611 0.0
C1236 C 0.29712 0.73616 0.88749 0.0
C1237 C 0.32772 0.70701 0.91764 0.0
C1238 C 0.30254 0.71973 0.91456 0.0
C1239 C 0.43234 0.63608 0.9144 0.0
C1240 C 0.37486 0.69845 0.89587 0.0
C1241 C 0.45001 0.79449 0.87768 0.0
C1242 C 0.46835 0.77693 0.86227 0.0
C1243 C 0.47622 0.71294 0.96646 0.0
C1244 C 0.51943 0.63827 0.99969 0.0
C1245 C 0.52602 0.64069 0.03325 0.0
C1246 C 0.55268 0.64644 0.04314 0.0
C1247 C 0.57314 0.64818 0.01912 0.0
C1248 C 0.54023 0.63988 0.97618 0.0
C1249 C 0.56694 0.64462 0.98593 0.0
C1250 C 0.42833 0.72367 1.00834 0.0
C1251 C 0.491 0.63468 0.98897 0.0
H1252 H 0.35734 0.72924 0.84721 0.0
H1253 H 0.27765 0.74619 0.88598 0.0
H1254 H 0.33161 0.69468 0.93902 0.0
H1255 H 0.28725 0.71705 0.93339 0.0
H1256 H 0.51033 0.63901 0.05172 0.0
H1257 H 0.59396 0.65226 0.02603 0.0
H1258 H 0.53577 0.63771 0.95025 0.0
H1259 H 0.58285 0.64594 0.96764 0.0
Tb1260 Tb 0.64781 0.15792 0.6875 0.0
C1261 C 0.71191 0.15621 0.79349 0.0
C1262 C 0.69625 0.17237 0.84665 0.0
C1263 C 0.72569 0.13316 0.84352 0.0
C1264 C 0.69669 0.1742 0.81205 0.0
C1265 C 0.72705 0.1358 0.80923 0.0
C1266 C 0.71033 0.1514 0.86219 0.0
C1267 C 0.74487 0.12272 0.75636 0.0
N1268 N 0.71258 0.15919 0.76024 0.0
C1269 C 0.72947 0.14306 0.74175 0.0
C1270 C 0.74345 0.11887 0.79017 0.0
Tb1271 Tb 0.68435 0.19256 0.73995 0.0
N1272 N 0.68345 0.19437 0.79633 0.0
C1273 C 0.67099 0.21453 0.81405 0.0
C1274 C 0.68228 0.19209 0.86468 0.0
C1275 C 0.66995 0.21348 0.84832 0.0
H1276 H 0.73033 0.14451 0.71547 0.0
H1277 H 0.65965 0.2292 0.86207 0.0
H1278 H 0.70997 0.14948 0.88869 0.0
H1279 H 0.75757 0.10974 0.74137 0.0
H1280 H 0.66145 0.23127 0.80177 0.0
H1281 H 0.65848 0.24593 0.60856 0.0
H1282 H 0.6815 0.19136 0.89127 0.0
H1283 H 0.5948 0.11806 0.70149 0.0
H1284 H 0.67537 0.20868 0.64194 0.0
H1285 H 0.54514 0.12007 0.69346 0.0
H1286 H 0.7369 0.1174 0.8559 0.0
H1287 H 0.60921 0.25286 0.60181 0.0
H1288 H 0.56179 0.23721 0.61287 0.0
H1289 H 0.7553 0.10295 0.80133 0.0
H1290 H 0.53096 0.20339 0.63638 0.0
N1291 N 0.63603 0.19356 0.65425 0.0
C1292 C 0.65382 0.2106 0.63873 0.0
C1293 C 0.61647 0.23608 0.61632 0.0
C1294 C 0.59833 0.21804 0.63092 0.0
C1295 C 0.6443 0.23217 0.61999 0.0
C1296 C 0.60879 0.19658 0.64975 0.0
H1297 H 0.52457 0.15952 0.66604 0.0
N1298 N 0.60198 0.15655 0.68008 0.0
C1299 C 0.55785 0.13651 0.68515 0.0
C1300 C 0.59126 0.17768 0.66337 0.0
C1301 C 0.58592 0.13545 0.68973 0.0
C1302 C 0.54632 0.15883 0.66969 0.0
C1303 C 0.56307 0.17952 0.65802 0.0
O1304 O 0.63175 0.13931 0.64531 0.0
O1305 O 0.67629 0.14913 0.72828 0.0
O1306 O 0.71466 0.18644 0.69693 0.0
O1307 O 0.68844 0.1644 0.65915 0.0
O1308 O 0.64205 0.12623 0.72596 0.0
O1309 O 0.66758 0.12359 0.66799 0.0
O1310 O 0.70115 0.22623 0.71591 0.0
O1311 O 0.65175 0.20084 0.70336 0.0
O1312 O 0.61978 0.16184 0.73014 0.0
O1313 O 0.64781 0.18337 0.76822 0.0
O1314 O 0.64986 0.2225 0.74474 0.0
O1315 O 0.71346 0.21587 0.76486 0.0
C1316 C 0.66361 0.12901 0.74384 0.0
C1317 C 0.63698 0.09248 0.643 0.0
C1318 C 0.60807 0.06169 0.61177 0.0
C1319 C 0.62143 0.08659 0.61508 0.0
C1320 C 0.61072 1.04244 0.63683 0.0
C1321 C 0.63951 0.07304 0.6678 0.0
C1322 C 0.62647 1.0481 0.66458 0.0
C1323 C 0.71277 0.17526 0.6668 0.0
C1324 C 0.64895 0.11959 0.64593 0.0
C1325 C 0.55259 0.20145 0.64039 0.0
C1326 C 0.57016 0.22067 0.62692 0.0
C1327 C 0.63591 0.21936 0.71808 0.0
C1328 C 0.70902 0.26241 0.75308 0.0
C1329 C 0.70729 0.26904 0.78674 0.0
C1330 C 0.69992 0.29518 0.79696 0.0
C1331 C 0.69565 0.31513 0.77306 0.0
C1332 C 0.70486 0.28274 0.7297 0.0
C1333 C 0.69835 0.30895 0.73971 0.0
C1334 C 0.62445 0.17229 0.75974 0.0
C1335 C 0.71394 0.23425 0.74222 0.0
H1336 H 0.61905 0.10189 0.59634 0.0
H1337 H 0.60074 1.02301 0.63489 0.0
H1338 H 0.65125 0.07716 0.68972 0.0
H1339 H 0.62841 1.03318 0.68376 0.0
H1340 H 0.71071 0.25367 0.80507 0.0
H1341 H 0.69033 0.33557 0.78015 0.0
H1342 H 0.7063 0.27829 0.70367 0.0
H1343 H 0.69505 0.32447 0.72152 0.0
H1344 H 0.52167 0.22267 0.08258 0.0
H1345 H 0.56346 0.3864 0.06025 0.0
H1346 H 0.46207 0.28314 0.0624 0.0
H1347 H 0.62404 0.32566 0.07394 0.0
H1348 H 0.52789 0.35122 0.06424 0.0
H1349 H 0.55716 0.25824 0.08348 0.0
C1350 C 0.51518 0.24337 0.0794 0.0
C1351 C 0.48654 0.24808 0.07442 0.0
C1352 C 0.5488 0.34509 0.06728 0.0
C1353 C 0.53097 0.29246 0.07354 0.0
C1354 C 0.56999 0.36598 0.06535 0.0
C1355 C 0.59882 0.36141 0.06886 0.0
C1356 C 0.55447 0.31697 0.07219 0.0
C1357 C 0.60329 0.3326 0.07318 0.0
C1358 C 0.53638 0.26439 0.07944 0.0
C1359 C 0.48244 0.27668 0.06829 0.0
N1360 N 0.58239 0.31278 0.07487 0.0
N1361 N 0.5033 0.29654 0.06831 0.0
H1362 H 0.59795 0.74827 0.366 0.0
H1363 H 0.50679 0.86391 0.26391 0.0
H1364 H 0.60258 0.75808 0.26206 0.0
H1365 H 0.4816 0.84033 0.36011 0.0
H1366 H 0.54302 0.82945 0.26559 0.0
H1367 H 0.56037 0.78162 0.36785 0.0
C1368 C 0.59103 0.75602 0.34305 0.0
C1369 C 0.6047 0.74684 0.31357 0.0
C1370 C 0.53028 0.83181 0.2871 0.0
C1371 C 0.55921 0.79057 0.31561 0.0
C1372 C 0.50884 0.85243 0.28634 0.0
C1373 C 0.48999 0.8584 0.31266 0.0
C1374 C 0.53507 0.81454 0.31466 0.0
C1375 C 0.49537 0.83989 0.33955 0.0
C1376 C 0.56903 0.77648 0.34418 0.0
C1377 C 0.59383 0.76203 0.28598 0.0
N1378 N 0.51648 0.82014 0.33978 0.0
N1379 N 0.57314 0.78188 0.28778 0.0
H1380 H 0.09023 0.8622 0.61685 0.0
H1381 H 0.99948 0.74745 0.51236 0.0
H1382 H 0.10445 0.84305 0.51592 0.0
H1383 H 0.99936 0.74452 0.61712 0.0
H1384 H 1.03353 0.78367 0.5144 0.0
H1385 H 0.05698 0.82444 0.61964 0.0
C1386 C 0.08802 0.84969 0.59537 0.0
C1387 C 0.10387 0.85665 0.5667 0.0
C1388 C 1.02592 0.77596 0.53748 0.0
C1389 C 0.06014 0.81142 0.56865 0.0
C1390 C 1.00539 0.75452 0.53645 0.0
C1391 C 0.9929 0.74173 0.56456 0.0
C1392 C 1.03646 0.78708 0.56734 0.0
C1393 C 1.00489 0.75332 0.59409 0.0
C1394 C 0.06756 0.82775 0.5967 0.0
C1395 C 0.09515 0.83955 0.53955 0.0
N1396 N 1.02471 0.77437 0.59449 0.0
N1397 N 0.0751 0.8191 0.54127 0.0
H1398 H 1.02259 0.38072 0.79891 0.0
H1399 H 0.07157 0.21939 0.82801 0.0
H1400 H 0.96555 0.31971 0.82657 0.0
H1401 H 0.12755 0.28193 0.80255 0.0
H1402 H 1.03475 0.25362 0.8305 0.0
H1403 H 0.05955 0.34677 0.80238 0.0
C1404 C 1.01723 0.36057 0.80682 0.0
C1405 C 0.98903 0.35537 0.8141 0.0
C1406 C 0.05507 0.26048 0.82493 0.0
C1407 C 1.03479 0.31246 0.8166 0.0
C1408 C 0.07716 0.24023 0.82431 0.0
C1409 C 0.10531 0.24611 0.81736 0.0
C1410 C 0.05902 0.28866 0.81751 0.0
C1411 C 0.10772 0.27469 0.80974 0.0
C1412 C 1.03916 0.34036 0.80839 0.0
C1413 C 0.98591 0.32691 0.82193 0.0
N1414 N 0.08614 0.29365 0.81022 0.0
N1415 N 1.0074 0.30777 0.82303 0.0
H1416 H 0.60132 0.85326 0.90778 0.0
H1417 H 0.49597 0.75188 0.01202 0.0
H1418 H 0.6014 0.8473 0.01224 0.0
H1419 H 0.51056 0.73554 0.91041 0.0
H1420 H 0.53016 0.78812 1.01035 0.0
H1421 H 0.56822 0.81542 0.90515 0.0
C1422 C 0.59607 0.84367 0.93043 0.0
C1423 C 0.60803 0.85432 0.96019 0.0
C1424 C 0.5258 0.77742 0.98772 0.0
C1425 C 0.56432 0.80897 0.95777 0.0
C1426 C 0.50526 0.75595 0.9885 0.0
C1427 C 0.49681 0.73953 0.96088 0.0
C1428 C 0.54047 0.78476 0.95872 0.0
C1429 C 0.51282 0.74742 0.93241 0.0
C1430 C 0.57564 0.82167 0.929 0.0
C1431 C 0.59543 0.84077 0.98797 0.0
N1432 N 0.53256 0.76853 0.93219 0.0
N1433 N 0.57553 0.82018 0.98601 0.0
H1434 H 0.4705 0.31492 0.71711 0.0
H1435 H 0.63597 0.27574 0.69804 0.0
H1436 H 0.53035 0.37604 0.70114 0.0
H1437 H 0.57617 0.21648 0.72255 0.0
H1438 H 0.59961 0.31037 0.69496 0.0
H1439 H 0.50665 0.28023 0.71549 0.0
C1440 C 0.49093 0.3217 0.71196 0.0
C1441 C 0.49493 0.35032 0.707 0.0
C1442 C 0.5938 0.28981 0.70047 0.0
C1443 C 0.54057 0.30713 0.7066 0.0
C1444 C 0.61529 0.26912 0.70185 0.0
C1445 C 0.61102 0.24084 0.70883 0.0
C1446 C 0.56566 0.28422 0.70682 0.0
C1447 C 0.58234 0.23656 0.71533 0.0
C1448 C 0.5124 0.30104 0.71144 0.0
C1449 C 0.52382 0.35528 0.70285 0.0
N1450 N 0.56203 0.25692 0.71394 0.0
N1451 N 0.54422 0.33489 0.70251 0.0
H1452 H 1.02742 0.21408 0.42821 0.0
H1453 H 0.07863 0.37137 0.47654 0.0
H1454 H 0.98095 0.26803 0.4885 0.0
H1455 H 0.13425 0.31648 0.43053 0.0
H1456 H 1.04389 0.33577 0.47689 0.0
H1457 H 0.06343 0.24923 0.4239 0.0
C1458 C 1.02372 0.23337 0.44 0.0
C1459 C 0.99839 0.23662 0.45763 0.0
C1460 C 0.06338 0.33101 0.46605 0.0
C1461 C 1.04375 0.2801 0.4537 0.0
C1462 C 0.0842 0.35217 0.46565 0.0
C1463 C 0.11136 0.34968 0.45234 0.0
C1464 C 0.06751 0.30448 0.45297 0.0
C1465 C 0.1146 0.32222 0.43984 0.0
C1466 C 1.04534 0.25406 0.43782 0.0
C1467 C 0.99827 0.26307 0.47325 0.0
N1468 N 0.09388 0.30199 0.44038 0.0
N1469 N 1.01929 0.28257 0.47068 0.0
H1470 H 0.13621 0.77499 0.20738 0.0
H1471 H 0.9696 0.8132 0.21089 0.0
H1472 H 0.07531 0.71367 0.21376 0.0
H1473 H 1.0304 0.87483 0.20951 0.0
H1474 H 1.00579 0.77845 0.20868 0.0
H1475 H 0.1 0.80972 0.20478 0.0
C1476 C 0.1154 0.768 0.20713 0.0
C1477 C 0.11097 0.73915 0.20877 0.0
C1478 C 1.01181 0.79945 0.20809 0.0
C1479 C 0.06545 0.78265 0.20742 0.0
C1480 C 0.99034 0.82019 0.20893 0.0
C1481 C 0.99468 0.84909 0.20825 0.0
C1482 C 1.04028 0.80564 0.20734 0.0
C1483 C 1.02379 0.85405 0.20799 0.0
C1484 C 0.09393 0.78875 0.20605 0.0
C1485 C 0.08188 0.73432 0.21054 0.0
N1486 N 1.04414 0.8336 0.20732 0.0
N1487 N 0.06155 0.75477 0.20961 0.0
H1488 H 0.26041 0.20718 0.85989 0.0
H1489 H 0.3244 0.16182 0.04231 0.0
H1490 H 0.21454 0.16028 0.9287 0.0
H1491 H 0.36773 0.21318 0.97611 0.0
H1492 H 0.28675 0.15901 1.00193 0.0
H1493 H 0.29877 0.20808 0.89931 0.0
C1494 C 0.25777 0.19689 0.88307 0.0
C1495 C 0.23224 0.18366 0.88905 0.0
C1496 C 0.30451 0.17069 0.99548 0.0
C1497 C 0.27962 0.18451 0.93773 0.0
C1498 C 0.32695 0.17205 0.01908 0.0
C1499 C 0.35172 0.18684 0.01392 0.0
C1500 C 0.30476 0.18465 0.96468 0.0
C1501 C 0.35071 0.2005 0.98259 0.0
C1502 C 0.28049 0.19745 0.9063 0.0
C1503 C 0.23254 0.17106 0.92107 0.0
N1504 N 0.32877 0.19892 0.96033 0.0
N1505 N 0.25483 0.17181 0.94295 0.0
H1506 H 0.68678 0.46877 0.17604 0.0
H1507 H 0.64452 0.63 0.21303 0.0
H1508 H 0.64646 0.51734 0.10415 0.0
H1509 H 0.68477 0.58156 0.2849 0.0
H1510 H 0.64625 0.59137 0.17402 0.0
H1511 H 0.68708 0.50815 0.21406 0.0
C1512 C 0.67784 0.48742 0.16755 0.0
C1513 C 0.66654 0.4878 0.13497 0.0
C1514 C 0.65522 0.58884 0.19805 0.0
C1515 C 0.66688 0.53643 0.18171 0.0
C1516 C 0.65453 0.61173 0.221 0.0
C1517 C 0.66557 0.61134 0.25369 0.0
C1518 C 0.66655 0.56312 0.20633 0.0
C1519 C 0.6767 0.58496 0.26058 0.0
C1520 C 0.67806 0.51064 0.19006 0.0
C1521 C 0.65561 0.51427 0.12797 0.0
N1522 N 0.67692 0.56311 0.23806 0.0
N1523 N 0.6561 0.53633 0.15018 0.0
H1524 H 0.37976 0.94295 0.42722 0.0
H1525 H 0.21931 0.89717 0.46635 0.0
H1526 H 0.3311 0.90088 0.35627 0.0
H1527 H 0.26771 0.93887 0.53765 0.0
H1528 H 0.25766 0.89959 0.4269 0.0
H1529 H 0.34064 0.94265 0.46579 0.0
C1530 C 0.36115 0.9335 0.41905 0.0
C1531 C 0.36064 0.9219 0.38656 0.0
C1532 C 0.2602 0.9088 0.45086 0.0
C1533 C 0.31236 0.92152 0.43393 0.0
C1534 C 0.23746 0.90774 0.47404 0.0
C1535 C 0.23789 0.91907 0.50665 0.0
C1536 C 0.28584 0.92077 0.45884 0.0
C1537 C 0.26422 0.93073 0.51331 0.0
C1538 C 0.33808 0.93337 0.44187 0.0
C1539 C 0.33425 0.9103 0.37999 0.0
N1540 N 0.28594 0.9313 0.49057 0.0
N1541 N 0.31235 0.91047 0.40248 0.0
H1542 H 0.89936 0.62912 0.67222 0.0
H1543 H 0.95893 0.47593 0.71831 0.0
H1544 H 0.95323 0.58565 0.60819 0.0
H1545 H 0.89759 0.5136 0.77726 0.0
H1546 H 0.95711 0.51426 0.67986 0.0
H1547 H 0.89861 0.58963 0.70966 0.0
C1548 C 0.91129 0.61162 0.6654 0.0
C1549 C 0.92644 0.61267 0.63514 0.0
C1550 C 0.94339 0.51436 0.70065 0.0
C1551 C 0.92572 0.56398 0.68129 0.0
C1552 C 0.9441 0.49146 0.72318 0.0
C1553 C 0.92723 0.4886 0.75185 0.0
C1554 C 0.92615 0.53725 0.70556 0.0
C1555 C 0.91031 0.51233 0.75562 0.0
C1556 C 0.91076 0.58831 0.68754 0.0
C1557 C 0.94094 0.58758 0.63013 0.0
N1558 N 0.91027 0.53446 0.73367 0.0
N1559 N 0.94025 0.56552 0.65204 0.0
H1560 H 0.77012 0.93964 0.99105 0.0
H1561 H 0.83857 0.89178 0.17004 0.0
H1562 H 0.72855 0.8878 0.05835 0.0
H1563 H 0.8835 0.93851 0.10016 0.0
H1564 H 0.79926 0.8918 0.13209 0.0
H1565 H 0.80904 0.94173 0.02977 0.0
C1566 C 0.76822 0.9292 0.01424 0.0
C1567 C 0.74355 0.91451 0.02034 0.0
C1568 C 0.81752 0.90222 0.12455 0.0
C1569 C 0.79197 0.9158 0.06739 0.0
C1570 C 0.84079 0.90224 0.14691 0.0
C1571 C 0.86637 0.91511 0.14015 0.0
C1572 C 0.81782 0.9154 0.09329 0.0
C1573 C 0.8655 0.92798 0.10831 0.0
C1574 C 0.7914 0.93012 0.03682 0.0
C1575 C 0.74543 0.90048 0.05133 0.0
N1576 N 0.84267 0.92776 0.08726 0.0
N1577 N 0.76803 0.90165 0.07259 0.0
H1578 H 0.41114 0.62875 0.84777 0.0
H1579 H 0.45733 0.46853 0.80886 0.0
H1580 H 0.45369 0.58095 0.9185 0.0
H1581 H 0.4153 0.51615 0.73772 0.0
H1582 H 0.45501 0.50703 0.84806 0.0
H1583 H 0.41148 0.58953 0.80943 0.0
C1584 C 0.42072 0.61032 0.85597 0.0
C1585 C 0.43242 0.61017 0.88838 0.0
C1586 C 0.44572 0.5094 0.82418 0.0
C1587 C 0.43287 0.56159 0.84111 0.0
C1588 C 0.44676 0.48655 0.8011 0.0
C1589 C 0.43535 0.48664 0.76855 0.0
C1590 C 0.43365 0.5349 0.81625 0.0
C1591 C 0.42359 0.51285 0.76195 0.0
C1592 C 0.42087 0.58716 0.83324 0.0
C1593 C 0.44416 0.58391 0.89488 0.0
N1594 N 0.42303 0.53467 0.7846 0.0
N1595 N 0.44401 0.56192 0.87248 0.0
H1596 H 0.71951 0.15462 0.59982 0.0
H1597 H 0.882 0.1951 0.56202 0.0
H1598 H 0.76883 0.19481 0.67164 0.0
H1599 H 0.83169 0.15724 0.48956 0.0
H1600 H 0.84352 0.19359 0.60146 0.0
H1601 H 0.75884 0.15413 0.5616 0.0
C1602 C 0.73831 0.16351 0.60829 0.0
C1603 C 0.73883 0.17484 0.64095 0.0
C1604 C 0.84056 0.185 0.57723 0.0
C1605 C 0.78758 0.17422 0.59384 0.0
C1606 C 0.86341 0.1855 0.55401 0.0
C1607 C 0.86252 0.17494 0.52098 0.0
C1608 C 0.81433 0.17437 0.56898 0.0
C1609 C 0.8356 0.16466 0.51414 0.0
C1610 C 0.76154 0.16318 0.58563 0.0
C1611 C 0.76556 0.18565 0.6478 0.0
N1612 N 0.81386 0.16456 0.53692 0.0
N1613 N 0.78763 0.18502 0.62546 0.0
H1614 H 0.20742 0.46277 0.34666 0.0
H1615 H 0.14065 0.61447 0.30458 0.0
H1616 H 0.146 0.49929 0.40696 0.0
H1617 H 0.20081 0.57862 0.24215 0.0
H1618 H 0.14347 0.57488 0.34132 0.0
H1619 H 0.20645 0.50306 0.31051 0.0
C1620 C 0.19345 0.47886 0.35291 0.0
C1621 C 0.17671 0.47552 0.38169 0.0
C1622 C 0.15664 0.57539 0.32003 0.0
C1623 C 0.17551 0.52544 0.33719 0.0
C1624 C 0.15524 0.59893 0.29843 0.0
C1625 C 0.17136 0.60261 0.26925 0.0
C1626 C 0.17408 0.55281 0.31383 0.0
C1627 C 0.18848 0.57917 0.26414 0.0
C1628 C 0.19296 0.50268 0.33151 0.0
C1629 C 0.15962 0.49906 0.3861 0.0
N1630 N 0.18933 0.55654 0.28535 0.0
N1631 N 0.15958 0.52175 0.36506 0.0
H1632 H 0.76176 0.70429 0.35513 0.0
H1633 H 0.83157 0.65511 0.53284 0.0
H1634 H 0.7174 0.6567 0.42467 0.0
H1635 H 0.87217 0.7082 0.46614 0.0
H1636 H 0.79243 0.65307 0.49442 0.0
H1637 H 0.80123 0.70415 0.39281 0.0
C1638 C 0.75969 0.69363 0.37814 0.0
C1639 C 0.73421 0.68056 0.38488 0.0
C1640 C 0.80991 0.66495 0.48742 0.0
C1641 C 0.78299 0.68011 0.43142 0.0
C1642 C 0.83323 0.66582 0.50982 0.0
C1643 C 0.85772 0.68085 0.50377 0.0
C1644 C 0.809 0.67963 0.45711 0.0
C1645 C 0.85548 0.69523 0.47305 0.0
C1646 C 0.78306 0.69358 0.40034 0.0
C1647 C 0.7353 0.66741 0.41654 0.0
N1648 N 0.83276 0.69409 0.45197 0.0
N1649 N 0.75824 0.66756 0.43744 0.0
H1650 H 0.19152 0.08449 0.78639 0.0
H1651 H 0.14361 1.01332 0.6082 0.0
H1652 H 0.1384 0.12409 0.71888 0.0
H1653 H 0.19235 0.97039 0.67772 0.0
H1654 H 0.1431 0.0528 0.64592 0.0
H1655 H 0.19419 1.04533 0.748 0.0
C1656 C 0.18087 0.08591 0.76324 0.0
C1657 C 0.16563 0.11014 0.757 0.0
C1658 C 0.15407 1.03496 0.65345 0.0
C1659 C 0.16765 0.06136 0.7103 0.0
C1660 C 0.15441 1.01157 0.63122 0.0
C1661 C 0.16802 0.98647 0.6379 0.0
C1662 C 0.16763 1.0353 0.68456 0.0
C1663 C 0.18126 0.98797 0.6696 0.0
C1664 C 0.18214 0.06258 0.74083 0.0
C1665 C 0.15145 0.10761 0.72604 0.0
N1666 N 0.1807 1.01092 0.69055 0.0
N1667 N 0.15296 0.08487 0.70496 0.0
H1668 H 0.71823 0.3952 0.96395 0.0
H1669 H 0.87863 0.44197 0.92421 0.0
H1670 H 0.76497 0.44074 0.03337 0.0
H1671 H 0.83057 0.39843 0.85403 0.0
H1672 H 0.83926 0.44226 0.96245 0.0
H1673 H 0.75687 0.39698 0.92487 0.0
C1674 C 0.73606 0.40644 0.97131 0.0
C1675 C 0.73582 0.419 1.00332 0.0
C1676 C 0.83686 0.43252 0.93878 0.0
C1677 C 0.78435 0.41998 0.95583 0.0
C1678 C 0.86012 0.4323 0.91611 0.0
C1679 C 0.85995 0.42013 0.88386 0.0
C1680 C 0.81117 0.42041 0.93104 0.0
C1681 C 0.83357 0.40831 0.8775 0.0
C1682 C 0.75901 0.40715 0.94831 0.0
C1683 C 0.76188 0.43153 1.00952 0.0
N1684 N 0.81151 0.40878 0.89985 0.0
N1685 N 0.78384 0.43169 0.98698 0.0
H1686 H 0.39105 1.0122 0.27787 0.0
H1687 H 0.4532 0.09647 0.11572 0.0
H1688 H 0.46325 0.98802 0.22724 0.0
H1689 H 0.39109 0.13113 0.17659 0.0
H1690 H 0.45436 0.0566 0.15228 0.0
H1691 H 0.38751 0.05171 0.24052 0.0
C1692 C 0.40573 1.01385 0.25822 0.0
C1693 C 0.42655 0.99349 0.25598 0.0
C1694 C 0.44025 0.07267 0.15811 0.0
C1695 C 0.42338 1.0432 0.2111 0.0
C1696 C 0.4395 0.09629 0.13653 0.0
C1697 C 0.42202 0.1193 0.14123 0.0
C1698 C 0.42305 0.06975 0.18633 0.0
C1699 C 0.40531 0.11533 0.17017 0.0
C1700 C 0.40397 1.03759 0.23662 0.0
C1701 C 0.44562 1.0007 0.23035 0.0
N1702 N 0.40621 0.0921 0.19038 0.0
N1703 N 0.44341 1.02353 0.20988 0.0
H1704 H 0.27278 0.44014 0.48676 0.0
H1705 H 0.34294 0.38625 0.66221 0.0
H1706 H 0.23798 0.37665 0.54417 0.0
H1707 H 0.38526 0.44015 0.59784 0.0
H1708 H 0.30472 0.3849 0.62267 0.0
H1709 H 0.31071 0.44322 0.5269 0.0
C1710 C 0.27215 0.42711 0.50801 0.0
C1711 C 0.24962 0.40879 0.511 0.0
C1712 C 0.32217 0.3972 0.6167 0.0
C1713 C 0.29683 0.41162 0.55974 0.0
C1714 C 0.34479 0.39804 0.64 0.0
C1715 C 0.3693 0.41332 0.63526 0.0
C1716 C 0.32203 0.41204 0.58656 0.0
C1717 C 0.36807 0.42772 0.60443 0.0
C1718 C 0.29475 0.42871 0.53144 0.0
C1719 C 0.25312 0.39199 0.53964 0.0
N1720 N 0.34581 0.42676 0.58252 0.0
N1721 N 0.27501 0.394 0.56184 0.0
H1722 H 0.90771 0.12608 0.35122 0.0
H1723 H 0.95833 0.96769 0.30982 0.0
H1724 H 0.95499 0.08001 0.41921 0.0
H1725 H 0.91204 1.0136 0.2409 0.0
H1726 H 0.95608 1.00616 0.34901 0.0
H1727 H 0.90795 0.08685 0.31288 0.0
C1728 C 0.91828 0.10801 0.35881 0.0
C1729 C 0.93131 0.10831 0.39047 0.0
C1730 C 0.94583 1.00814 0.32566 0.0
C1731 C 0.9317 0.05979 0.34322 0.0
C1732 C 0.94684 0.9853 0.3026 0.0
C1733 C 0.93425 0.98492 0.27071 0.0
C1734 C 0.93253 1.03314 0.31835 0.0
C1735 C 0.92129 1.01066 0.26468 0.0
C1736 C 0.9184 0.08486 0.33609 0.0
C1737 C 0.94434 0.08256 0.39622 0.0
N1738 N 0.92076 1.03248 0.28732 0.0
N1739 N 0.94412 0.06057 0.37385 0.0
H1740 H 0.26651 0.69899 0.1706 0.0
H1741 H 0.33649 0.65138 0.9914 0.0
H1742 H 0.22282 0.65081 0.10064 0.0
H1743 H 0.37658 0.70489 0.05855 0.0
H1744 H 0.29755 0.64869 0.03019 0.0
H1745 H 0.30589 0.69962 0.13256 0.0
C1746 C 0.26458 0.68834 0.14744 0.0
C1747 C 0.23932 0.67485 0.14069 0.0
C1748 C 0.31488 0.66079 0.03721 0.0
C1749 C 0.28796 0.67536 0.09372 0.0
C1750 C 0.33809 0.66206 0.01458 0.0
C1751 C 0.36239 0.67739 0.02063 0.0
C1752 C 0.31388 0.67537 0.06777 0.0
C1753 C 0.36006 0.69169 0.0516 0.0
C1754 C 0.28789 0.68875 0.12502 0.0
C1755 C 0.24055 0.66181 0.10879 0.0
N1756 N 0.33745 0.69016 0.0729 0.0
N1757 N 0.26342 0.6624 0.08771 0.0
H1758 H 0.69684 0.08024 0.74164 0.0
H1759 H 0.64907 1.00995 0.91959 0.0
H1760 H 0.6436 0.12005 0.8096 0.0
H1761 H 0.69737 0.96653 0.84927 0.0
H1762 H 0.64858 0.04927 0.88214 0.0
H1763 H 0.69952 1.04123 0.77975 0.0
C1764 C 0.68623 0.08175 0.76488 0.0
C1765 C 0.67098 0.10598 0.77139 0.0
C1766 C 0.65945 1.03135 0.87439 0.0
C1767 C 0.67295 0.05742 0.81766 0.0
C1768 C 0.65977 1.00807 0.89645 0.0
C1769 C 0.67325 0.9829 0.88942 0.0
C1770 C 0.67291 1.0315 0.84317 0.0
C1771 C 0.68638 0.98419 0.85761 0.0
C1772 C 0.68748 0.05851 0.7871 0.0
C1773 C 0.65674 0.10357 0.80234 0.0
N1774 N 0.68585 1.00704 0.83685 0.0
N1775 N 0.65824 0.08093 0.82324 0.0
H1776 H 0.5314 0.12483 0.93023 0.0
H1777 H 0.60941 0.21459 0.79719 0.0
H1778 H 0.55915 0.20645 0.94564 0.0
H1779 H 0.59241 0.13023 0.78119 0.0
H1780 H 0.58269 0.21351 0.84747 0.0
H1781 H 0.54593 0.12772 0.87239 0.0
C1782 C 0.5402 0.14345 0.92131 0.0
C1783 C 0.54448 0.16531 0.94282 0.0
C1784 C 0.58438 0.19523 0.83291 0.0
C1785 C 0.56096 0.16881 0.87696 0.0
C1786 C 0.59956 0.1959 0.80409 0.0
C1787 C 0.60322 0.17242 0.78527 0.0
C1788 C 0.57302 0.17075 0.84347 0.0
C1789 C 0.58991 0.14877 0.79509 0.0
C1790 C 0.54855 0.14506 0.88839 0.0
C1791 C 0.55595 0.18895 0.93006 0.0
N1792 N 0.5757 0.14838 0.82393 0.0
N1793 N 0.56388 0.19 0.89815 0.0
H1794 H 0.73315 0.78531 0.1785 0.0
H1795 H 0.63657 0.85669 0.04825 0.0
H1796 H 0.65661 0.82367 0.20017 0.0
H1797 H 0.71948 0.83657 0.02529 0.0
H1798 H 0.64064 0.83351 0.10025 0.0
H1799 H 0.72621 0.79483 0.1198 0.0
C1800 C 0.71488 0.79564 0.17084 0.0
C1801 C 0.69561 0.80419 0.19416 0.0
C1802 C 0.6579 0.83361 0.08374 0.0
C1803 C 0.68739 0.81459 0.12749 0.0
C1804 C 0.65543 0.84656 0.05379 0.0
C1805 C 0.67768 0.84846 0.03253 0.0
C1806 C 0.68306 0.82293 0.093 0.0
C1807 C 0.70182 0.83531 0.04107 0.0
C1808 C 0.71095 0.801 0.13746 0.0
C1809 C 0.67224 0.8173 0.18309 0.0
N1810 N 0.7041 0.82348 0.07113 0.0
N1811 N 0.66883 0.82212 0.15062 0.0
H1812 H 1.01186 0.96388 0.27228 0.0
H1813 H 0.06694 0.98034 0.42996 0.0
H1814 H 0.99396 0.88278 0.30343 0.0
H1815 H 1.02206 0.90764 0.45106 0.0
H1816 H 0.05862 0.9732 0.37138 0.0
H1817 H 1.03455 0.97222 0.32479 0.0
C1818 C 1.01368 0.94755 0.28975 0.0
C1819 C 1.00086 0.92275 0.2839 0.0
C1820 C 1.0503 0.95896 0.38873 0.0
C1821 C 1.02652 0.93193 0.34396 0.0
C1822 C 0.05524 0.96292 0.42224 0.0
C1823 C 1.04469 0.94484 0.44551 0.0
C1824 C 1.03469 0.93671 0.37851 0.0
C1825 C 1.02991 0.92252 0.43413 0.0
C1826 C 1.02652 0.9523 0.31989 0.0
C1827 C 1.00328 0.90233 0.30736 0.0
N1828 N 1.02533 0.91917 0.40154 0.0
N1829 N 1.01545 0.9075 0.33651 0.0
H1830 H 0.96763 0.23587 0.55247 0.0
H1831 H 0.86651 0.30631 0.68079 0.0
H1832 H 0.88349 0.25025 0.53014 0.0
H1833 H 0.94632 0.2762 0.7036 0.0
H1834 H 0.87394 0.29399 0.62281 0.0
H1835 H 0.96206 0.25987 0.60437 0.0
C1836 C 0.94804 0.2446 0.55835 0.0
C1837 C 0.92591 0.24093 0.53731 0.0
C1838 C 0.88982 0.29023 0.64055 0.0
C1839 C 0.91912 0.26794 0.59712 0.0
C1840 C 0.88561 0.29725 0.67356 0.0
C1841 C 0.90565 0.29177 0.69711 0.0
C1842 C 0.91437 0.27802 0.63108 0.0
C1843 C 0.93007 0.28017 0.68644 0.0
C1844 C 0.94481 0.25818 0.58806 0.0
C1845 C 0.90104 0.25282 0.54579 0.0
N1846 N 0.93368 0.27364 0.65433 0.0
N1847 N 0.89814 0.26547 0.57544 0.0
H1848 H 0.57376 0.97636 0.0996 0.0
H1849 H 0.45539 0.93762 0.20325 0.0
H1850 H 0.5278 0.90469 0.0758 0.0
H1851 H 0.5285 0.93136 0.26098 0.0
H1852 H 0.4823 0.93977 0.15383 0.0
H1853 H 0.55991 0.97156 0.15747 0.0
C1854 C 0.56126 0.95934 0.10659 0.0
C1855 C 0.55117 0.94133 0.08269 0.0
C1856 C 0.4925 0.93795 0.17729 0.0
C1857 C 0.53582 0.93578 0.14827 0.0
C1858 C 0.47721 0.93651 0.2056 0.0
C1859 C 0.48969 0.93339 0.23628 0.0
C1860 C 0.52067 0.93663 0.1793 0.0
C1861 C 0.51817 0.93349 0.23769 0.0
C1862 C 0.55364 0.95657 0.13957 0.0
C1863 C 0.5352 0.9196 0.09314 0.0
N1864 N 0.53297 0.93491 0.20926 0.0
N1865 N 0.52754 0.91778 0.12501 0.0
H1866 H 0.36699 0.31411 0.85054 0.0
H1867 H 0.4586 0.25418 0.99448 0.0
H1868 H 0.44865 0.28427 0.83918 0.0
H1869 H 0.37205 0.26319 1.00391 0.0
H1870 H 0.45702 0.2774 0.9419 0.0
H1871 H 0.37008 0.30607 0.91005 0.0
C1872 C 0.38561 0.30609 0.86064 0.0
C1873 C 0.40745 0.29936 0.83995 0.0
C1874 C 0.43838 0.27488 0.95566 0.0
C1875 C 0.41124 0.29058 0.90763 0.0
C1876 C 0.43934 0.2619 0.98583 0.0
C1877 C 0.4154 0.25682 1.00328 0.0
C1878 C 0.41322 0.28249 0.94258 0.0
C1879 C 0.39092 0.26699 0.9911 0.0
C1880 C 0.38735 0.30152 0.89449 0.0
C1881 C 0.43115 0.28917 0.85419 0.0
N1882 N 0.39033 0.27896 0.96102 0.0
N1883 N 0.43237 0.28502 0.88706 0.0
H1884 H 0.08824 0.13196 0.75222 0.0
H1885 H 0.06839 0.19745 0.57614 0.0
H1886 H 0.10318 0.21555 0.72964 0.0
H1887 H 1.04237 0.11637 0.59797 0.0
H1888 H 0.0765 0.2053 0.6344 0.0
H1889 H 0.06529 0.12671 0.69891 0.0
C1890 C 0.08577 0.14939 0.73653 0.0
C1891 C 0.09776 0.17412 0.74488 0.0
C1892 C 0.06888 0.18578 0.62664 0.0
C1893 C 0.0724 0.16826 0.6841 0.0
C1894 C 0.06453 0.18124 0.5933 0.0
C1895 C 0.05529 0.15606 0.58223 0.0
C1896 C 0.06433 0.16486 0.64921 0.0
C1897 C 1.0498 0.13599 0.60558 0.0
C1898 C 0.073 0.14636 0.70601 0.0
C1899 C 0.09445 0.19606 0.72372 0.0
N1900 N 0.05478 0.14068 0.63801 0.0
N1901 N 0.08245 0.19252 0.69413 0.0
H1902 H 0.13392 0.86078 0.47501 0.0
H1903 H 0.2322 0.78143 0.3516 0.0
H1904 H 0.21562 0.83946 0.50185 0.0
H1905 H 0.15544 0.81731 0.32611 0.0
H1906 H 0.22448 0.7946 0.40934 0.0
H1907 H 0.13895 0.83579 0.42404 0.0
C1908 C 0.15279 0.85024 0.47043 0.0
C1909 C 0.17438 0.85218 0.49261 0.0
C1910 C 0.20931 0.79939 0.39108 0.0
C1911 C 0.18078 0.82417 0.43336 0.0
C1912 C 0.21366 0.79187 0.35823 0.0
C1913 C 0.19461 0.79873 0.33403 0.0
C1914 C 0.18556 0.81347 0.39967 0.0
C1915 C 0.17091 0.81214 0.34384 0.0
C1916 C 0.15577 0.83613 0.44111 0.0
C1917 C 0.19844 0.83823 0.48539 0.0
N1918 N 0.16714 0.81911 0.37578 0.0
N1919 N 0.20122 0.82512 0.45597 0.0
H1920 H 0.06527 0.69843 0.44849 0.0
H1921 H 0.09256 0.62592 0.27645 0.0
H1922 H 1.03965 0.61672 0.4288 0.0
H1923 H 0.10895 0.70971 0.29736 0.0
H1924 H 0.06741 0.62287 0.32872 0.0
H1925 H 0.07659 0.70376 0.39061 0.0
C1926 C 0.06209 0.68158 0.43185 0.0
C1927 C 0.05203 0.65696 0.44344 0.0
C1928 C 0.07602 0.64206 0.32147 0.0
C1929 C 0.06494 0.66279 0.37692 0.0
C1930 C 0.09009 0.64383 0.29157 0.0
C1931 C 0.10305 0.66799 0.28307 0.0
C1932 C 0.07501 0.66467 0.34258 0.0
C1933 C 0.09957 0.6906 0.30343 0.0
C1934 C 0.06836 0.68464 0.39873 0.0
C1935 C 1.04762 0.63596 0.42075 0.0
N1936 N 0.08621 0.68831 0.33238 0.0
N1937 N 0.05449 0.6392 0.38857 0.0
H1938 H 0.23205 0.28149 0.67104 0.0
H1939 H 0.13983 0.34147 0.52759 0.0
H1940 H 0.15007 0.31032 0.68273 0.0
H1941 H 0.22594 0.32982 0.51669 0.0
H1942 H 0.14138 0.31849 0.58037 0.0
H1943 H 0.22855 0.28912 0.61148 0.0
C1944 C 0.21326 0.28918 0.661 0.0
C1945 C 0.19147 0.29577 0.68183 0.0
C1946 C 0.15991 0.32038 0.56625 0.0
C1947 C 0.18721 0.30415 0.61403 0.0
C1948 C 0.15895 0.33321 0.53595 0.0
C1949 C 0.18281 0.33754 0.51802 0.0
C1950 C 0.18501 0.31214 0.57899 0.0
C1951 C 0.20711 0.32667 0.52987 0.0
C1952 C 0.21128 0.29353 0.6271 0.0
C1953 C 0.16755 0.30554 0.66764 0.0
N1954 N 0.20774 0.31489 0.56007 0.0
N1955 N 0.16612 0.30953 0.63473 0.0
H1956 H 0.49769 0.38077 0.79483 0.0
H1957 H 0.55871 0.48215 0.92871 0.0
H1958 H 0.51082 0.46517 0.77519 0.0
H1959 H 0.52705 0.40276 0.94903 0.0
H1960 H 0.55077 0.47432 0.86985 0.0
H1961 H 0.51977 0.38617 0.84795 0.0
C1962 C 0.506 0.40032 0.80146 0.0
C1963 C 0.50238 0.42262 0.78097 0.0
C1964 C 0.5457 0.45862 0.88723 0.0
C1965 C 0.52681 0.42924 0.84205 0.0
C1966 C 0.55016 0.46307 0.92073 0.0
C1967 C 0.54303 0.44324 0.94373 0.0
C1968 C 0.53438 0.43404 0.87677 0.0
C1969 C 0.53221 0.41883 0.93219 0.0
C1970 C 0.51835 0.40347 0.83187 0.0
C1971 C 0.51344 0.44751 0.79044 0.0
N1972 N 0.52816 0.41496 0.89956 0.0
N1973 N 0.52476 0.45033 0.82075 0.0
H1974 H 0.38589 0.75776 0.02392 0.0
H1975 H 0.45065 0.78531 0.201 0.0
H1976 H 0.46636 0.73473 0.0539 0.0
H1977 H 0.36893 0.80895 0.17715 0.0
H1978 H 0.45824 0.77293 0.14378 0.0
H1979 H 0.38067 0.78304 0.07598 0.0
C1980 C 0.4027 0.75871 0.04098 0.0
C1981 C 0.42654 0.74405 0.0348 0.0
C1982 C 0.43861 0.7809 0.15082 0.0
C1983 C 0.4207 0.77239 0.09411 0.0
C1984 C 0.43428 0.78785 0.18358 0.0
C1985 C 0.40898 0.79762 0.19388 0.0
C1986 C 0.41739 0.78334 0.128 0.0
C1987 C 0.38866 0.80121 0.17015 0.0
C1988 C 0.39965 0.77288 0.07076 0.0
C1989 C 0.44757 0.74556 0.05781 0.0
N1990 N 0.39315 0.79369 0.13831 0.0
N1991 N 0.44409 0.7592 0.08642 0.0
H1992 H 1.01521 0.46933 0.56737 0.0
H1993 H 1.02392 0.44744 0.76074 0.0
H1994 H 0.09353 0.46862 0.6144 0.0
H1995 H 0.96168 0.41516 0.69734 0.0
H1996 H 1.04977 0.46067 0.71114 0.0
H1997 H 0.99428 0.45634 0.61911 0.0
C1998 C 1.028 0.4667 0.58873 0.0
C1999 C 0.05614 0.47014 0.58654 0.0
C2000 C 1.03053 0.45037 0.70847 0.0
C2001 C 1.03226 0.45491 0.64617 0.0
C2002 C 1.01581 0.44279 0.73669 0.0
C2003 C 0.99045 0.43 0.73349 0.0
C2004 C 1.01943 0.44554 0.67713 0.0
C2005 C 0.98105 0.42454 0.70156 0.0
C2006 C 1.01607 0.45905 0.61825 0.0
C2007 C 0.07174 0.466 0.61504 0.0
N2008 N 0.99528 0.43255 0.67493 0.0
N2009 N 0.05958 0.45869 0.64383 0.0
H2010 H 0.94909 0.7758 0.32357 0.0
H2011 H 0.88164 0.75927 0.50007 0.0
H2012 H 0.86928 0.80661 0.34563 0.0
H2013 H 0.96422 0.7389 0.47566 0.0
H2014 H 0.87754 0.7823 0.44674 0.0
H2015 H 0.95585 0.76654 0.38161 0.0
C2016 C 0.93291 0.78045 0.34075 0.0
C2017 C 0.90842 0.79144 0.32984 0.0
C2018 C 0.89677 0.7734 0.45354 0.0
C2019 C 0.91594 0.78107 0.39658 0.0
C2020 C 0.89917 0.76057 0.48405 0.0
C2021 C 0.92329 0.74717 0.49202 0.0
C2022 C 0.9187 0.77266 0.43133 0.0
C2023 C 0.94529 0.74895 0.47036 0.0
C2024 C 0.93683 0.77543 0.37398 0.0
C2025 C 0.88837 0.79784 0.35319 0.0
N2026 N 0.94238 0.7611 0.44092 0.0
N2027 N 0.89241 0.79221 0.38552 0.0
H2028 H 0.58389 0.68715 0.06769 0.0
H2029 H 0.60258 0.71747 0.2286 0.0
H2030 H 0.53519 0.61935 0.09831 0.0
H2031 H 0.59242 0.6323 0.24551 0.0
H2032 H 0.58103 0.71244 0.17519 0.0
H2033 H 0.59422 0.69688 0.12484 0.0
C2034 C 0.57529 0.67433 0.08652 0.0
C2035 C 0.55878 0.65232 0.07817 0.0
C2036 C 0.58336 0.69478 0.19049 0.0
C2037 C 0.56952 0.66409 0.14419 0.0
C2038 C 0.59509 0.69779 0.22129 0.0
C2039 C 0.59922 0.67527 0.24129 0.0
C2040 C 0.57646 0.66886 0.17914 0.0
C2041 C 0.58937 0.65015 0.23072 0.0
C2042 C 0.58074 0.68023 0.1193 0.0
C2043 C 0.5479 0.63663 0.10371 0.0
N2044 N 0.57883 0.64747 0.19993 0.0
N2045 N 0.5537 0.64264 0.13563 0.0
H2046 H 0.713 0.34015 1.00487 0.0
H2047 H 0.73052 0.27932 0.85011 0.0
H2048 H 0.63332 0.36094 0.96986 0.0
H2049 H 0.65877 0.32439 0.82462 0.0
H2050 H 0.7229 0.29065 0.90788 0.0
H2051 H 0.72149 0.31565 0.95353 0.0
C2052 C 0.69698 0.33873 0.98676 0.0
C2053 C 0.67257 0.35275 0.9913 0.0
C2054 C 0.70895 0.29834 0.88975 0.0
C2055 C 0.68194 0.32493 0.93243 0.0
C2056 C 0.71317 0.29165 0.85668 0.0
C2057 C 0.69555 0.30137 0.83236 0.0
C2058 C 0.6869 0.31492 0.89851 0.0
C2059 C 0.67332 0.31707 0.84234 0.0
C2060 C 0.70183 0.32482 0.95727 0.0
C2061 C 0.6526 0.35073 0.967 0.0
N2062 N 0.66973 0.32339 0.87452 0.0
N2063 N 0.65785 0.33743 0.93851 0.0
H2064 H 0.28656 0.20712 0.22829 0.0
H2065 H 0.3135 0.3893 0.29154 0.0
H2066 H 0.26349 0.29287 0.15935 0.0
H2067 H 0.33562 0.30347 0.36065 0.0
H2068 H 0.29346 0.35112 0.2419 0.0
H2069 H 0.30403 0.24545 0.27892 0.0
C2070 C 0.28382 0.22868 0.22575 0.0
C2071 C 0.27723 0.24582 0.18484 0.0
C2072 C 0.30133 0.34393 0.26505 0.0
C2073 C 0.29468 0.28856 0.24735 0.0
C2074 C 0.31531 0.36767 0.29438 0.0
C2075 C 0.32268 0.35072 0.33519 0.0
C2076 C 0.30213 0.30788 0.27373 0.0
C2077 C 0.32981 0.3132 0.338 0.0
C2078 C 0.29629 0.25258 0.2557 0.0
C2079 C 0.2688 0.2831 0.18216 0.0
N2080 N 0.3158 0.29598 0.30778 0.0
N2081 N 0.28154 0.30037 0.21304 0.0
H2082 H 0.60696 0.51715 0.44662 0.0
H2083 H 0.49633 0.57719 0.57186 0.0
H2084 H 0.57019 0.59577 0.43666 0.0
H2085 H 0.53209 0.49807 0.58132 0.0
H2086 H 0.52386 0.58467 0.52269 0.0
H2087 H 0.5792 0.50939 0.49562 0.0
C2088 C 0.59289 0.53266 0.45458 0.0
C2089 C 0.59105 0.55721 0.43771 0.0
C2090 C 0.52568 0.56566 0.53552 0.0
C2091 C 0.55952 0.54867 0.49391 0.0
C2092 C 0.51011 0.56149 0.56373 0.0
C2093 C 0.51176 0.53692 0.58058 0.0
C2094 C 0.54307 0.54514 0.52411 0.0
C2095 C 0.52981 0.51715 0.56876 0.0
C2096 C 0.5772 0.52833 0.48268 0.0
C2097 C 0.57264 0.57673 0.44928 0.0
N2098 N 0.5447 0.52167 0.54124 0.0
N2099 N 0.55768 0.57208 0.47669 0.0
H2100 H 0.24848 0.81951 0.69305 0.0
H2101 H 0.35168 0.77651 0.83511 0.0
H2102 H 0.32962 0.8514 0.7021 0.0
H2103 H 0.27066 0.74435 0.82592 0.0
H2104 H 0.34391 0.80414 0.78657 0.0
H2105 H 0.2562 0.79188 0.74163 0.0
C2106 C 0.26791 0.82078 0.70534 0.0
C2107 C 0.28838 0.83798 0.69359 0.0
C2108 C 0.3278 0.79107 0.79514 0.0
C2109 C 0.29745 0.80613 0.74916 0.0
C2110 C 0.33226 0.77518 0.8228 0.0
C2111 C 0.31185 0.7579 0.8345 0.0
C2112 C 0.30272 0.78976 0.77895 0.0
C2113 C 0.2869 0.75749 0.81793 0.0
C2114 C 0.27234 0.8049 0.73301 0.0
C2115 C 0.31333 0.83832 0.71013 0.0
N2116 N 0.28308 0.77311 0.79095 0.0
N2117 N 0.31713 0.82271 0.73712 0.0
H2118 H 0.10542 0.51544 0.07045 0.0
H2119 H 0.99354 0.57892 0.95082 0.0
H2120 H 0.07151 0.59514 0.0834 0.0
H2121 H 1.02939 0.50021 0.93657 0.0
H2122 H 1.02222 0.58554 0.99921 0.0
H2123 H 0.077 0.50917 0.02183 0.0
C2124 C 0.09186 0.53153 0.0632 0.0
C2125 C 0.09096 0.55589 0.08089 0.0
C2126 C 1.02382 0.56683 0.98546 0.0
C2127 C 0.05861 0.54903 0.02508 0.0
C2128 C 1.00759 0.56314 0.95771 0.0
C2129 C 1.00892 0.53891 0.93977 0.0
C2130 C 1.04153 0.54616 0.9953 0.0
C2131 C 1.02733 0.51902 0.95001 0.0
C2132 C 0.07578 0.52804 0.03531 0.0
C2133 C 0.07319 0.57619 0.07017 0.0
N2134 N 1.04284 0.52306 0.97711 0.0
N2135 N 0.05776 0.57232 0.04296 0.0
H2136 H 0.81121 0.80515 0.85885 0.0
H2137 H 0.78865 0.78984 0.66462 0.0
H2138 H 0.78022 0.86882 0.79748 0.0
H2139 H 0.81951 0.72613 0.72603 0.0
H2140 H 0.78447 0.81885 0.71322 0.0
H2141 H 0.81513 0.77606 0.8103 0.0
C2142 C 0.80559 0.81312 0.83509 0.0
C2143 C 0.79532 0.8394 0.83219 0.0
C2144 C 0.79205 0.79848 0.71609 0.0
C2145 C 0.79925 0.80614 0.77665 0.0
C2146 C 0.79417 0.78184 0.6884 0.0
C2147 C 0.80451 0.75559 0.6913 0.0
C2148 C 0.8003 0.78876 0.74689 0.0
C2149 C 0.81175 0.74638 0.72265 0.0
C2150 C 0.80757 0.79644 0.80743 0.0
C2151 C 0.78794 0.84857 0.80086 0.0
N2152 N 0.8096 0.76296 0.74919 0.0
N2153 N 0.78997 0.83194 0.77435 0.0
H2154 H 0.75332 0.31406 0.17543 0.0
H2155 H 0.82206 0.21673 0.26839 0.0
H2156 H 0.82853 0.35704 0.18949 0.0
H2157 H 0.86167 0.2849 0.31359 0.0
H2158 H 0.79615 0.24773 0.23361 0.0
H2159 H 0.76613 0.28309 0.21977 0.0
C2160 C 0.77251 0.31692 0.18792 0.0
C2161 C 0.79016 0.3378 0.17865 0.0
C2162 C 0.80981 0.25598 0.25186 0.0
C2163 C 0.80481 0.30277 0.229 0.0
C2164 C 0.82458 0.23832 0.27157 0.0
C2165 C 0.84383 0.2485 0.29362 0.0
C2166 C 0.81493 0.28386 0.25397 0.0
C2167 C 0.84688 0.27647 0.29677 0.0
C2168 C 0.77983 0.29922 0.21301 0.0
C2169 C 0.81465 0.34086 0.19558 0.0
N2170 N 0.83297 0.29322 0.27661 0.0
N2171 N 0.82122 0.32357 0.22002 0.0
H2172 H 0.1088 1.01806 0.95126 0.0
H2173 H 0.99436 0.07577 0.073 0.0
H2174 H 0.06984 0.09542 0.93925 0.0
H2175 H 1.03266 0.99803 0.08457 0.0
H2176 H 1.02227 0.08359 0.02421 0.0
H2177 H 0.08045 1.00989 0.99963 0.0
C2178 C 0.09413 1.03321 0.95864 0.0
C2179 C 0.09184 0.05754 0.94138 0.0
C2180 C 1.02457 0.06482 0.03743 0.0
C2181 C 0.05961 0.04854 0.99688 0.0
C2182 C 1.00879 0.06045 0.06542 0.0
C2183 C 1.01107 1.03616 0.08275 0.0
C2184 C 1.04281 1.04478 0.02675 0.0
C2185 C 1.02991 1.01687 0.07162 0.0
C2186 C 0.07809 1.02865 0.98638 0.0
C2187 C 0.07263 0.07658 0.9522 0.0
N2188 N 1.045 1.02158 0.04432 0.0
N2189 N 0.05735 0.07172 0.97929 0.0
H2190 H 0.55754 1.03864 0.60989 0.0
H2191 H 0.5387 0.06132 0.4164 0.0
H2192 H 0.61897 0.07343 0.54741 0.0
H2193 H 0.47758 1.0259 0.47878 0.0
H2194 H 0.56808 0.06687 0.46432 0.0
H2195 H 0.52806 1.0334 0.56203 0.0
C2196 C 0.56493 1.0449 0.58604 0.0
C2197 C 0.59072 0.05655 0.58265 0.0
C2198 C 0.54821 0.05796 0.46755 0.0
C2199 C 0.55696 0.05104 0.52785 0.0
C2200 C 0.53135 0.05501 0.44024 0.0
C2201 C 0.5057 1.04306 0.44359 0.0
C2202 C 0.53933 0.04894 0.49845 0.0
C2203 C 0.49735 1.03489 0.47502 0.0
C2204 C 0.54802 1.04213 0.55877 0.0
C2205 C 0.59909 0.06468 0.55122 0.0
N2206 N 0.51413 1.03792 0.50119 0.0
N2207 N 0.58225 0.06182 0.52507 0.0
loop_
_geom_bond_atom_site_label_1
_geom_bond_atom_site_label_2
_geom_bond_distance
_geom_bond_site_symmetry_2
_ccdc_geom_bond_type
Tb0 N31 2.660 1_554 S
Tb0 N38 2.606 . S
Tb0 O44 2.546 1_554 S
Tb0 O45 2.610 . S
Tb0 O47 2.320 1_554 S
Tb0 O48 2.552 . S
Tb0 O49 2.413 1_554 S
Tb0 O51 2.362 . S
Tb0 O52 2.421 . S
Tb0 C64 2.833 1_554 S
C1 C4 1.432 . S
C1 C5 1.414 . S
C1 N8 1.359 . S
C2 C4 1.417 . S
C2 C6 1.432 . S
C2 C14 1.410 . S
C3 C5 1.444 . S
C3 C6 1.317 . S
C3 H26 0.929 . S
C4 C1 1.432 . S
C4 C2 1.417 . S
C4 N12 1.360 . S
C5 C1 1.414 . S
C5 C3 1.444 . S
C5 C10 1.385 . S
C6 C2 1.432 . S
C6 C3 1.317 . S
C6 H18 0.930 . S
C7 C9 1.392 . S
C7 C10 1.370 . S
C7 H19 0.931 . S
N8 C1 1.359 . S
N8 C9 1.327 . S
N8 Tb11 2.600 . S
C9 C7 1.392 . S
C9 N8 1.327 . S
C9 H16 0.930 . S
C10 C5 1.385 . S
C10 C7 1.370 . S
C10 H29 0.930 . S
Tb11 N8 2.600 . S
Tb11 N12 2.660 . S
Tb11 O45 2.362 . S
Tb11 O46 2.421 . S
Tb11 O50 2.546 . S
Tb11 O51 2.610 . S
Tb11 O53 2.320 . S
Tb11 O54 2.552 . S
Tb11 O55 2.413 . S
Tb11 C75 2.833 . S
N12 C4 1.360 . S
N12 Tb11 2.660 . S
N12 C13 1.305 . S
C13 N12 1.305 . S
C13 C15 1.407 . S
C13 H20 0.930 . S
C14 C2 1.410 . S
C14 C15 1.345 . S
C14 H22 0.930 . S
C15 C13 1.407 . S
C15 C14 1.345 . S
C15 H17 0.930 . S
H16 C9 0.930 . S
H17 C15 0.930 . S
H18 C6 0.930 . S
H19 C7 0.931 . S
H20 C13 0.930 . S
H21 C35 0.930 . S
H22 C14 0.930 . S
H23 C41 0.930 . S
H24 C32 0.930 . S
H25 C39 0.931 . S
H26 C3 0.929 . S
H27 C33 0.930 . S
H28 C66 0.930 . S
H29 C10 0.930 . S
H30 C65 0.929 . S
N31 Tb0 2.660 1_556 S
N31 C32 1.305 . S
N31 C36 1.360 . S
C32 H24 0.930 . S
C32 N31 1.305 . S
C32 C35 1.407 . S
C33 H27 0.930 . S
C33 C34 1.410 . S
C33 C35 1.345 . S
C34 C33 1.410 . S
C34 C36 1.417 . S
C34 C66 1.432 . S
C35 H21 0.930 . S
C35 C32 1.407 . S
C35 C33 1.345 . S
C36 N31 1.360 . S
C36 C34 1.417 . S
C36 C40 1.432 . S
H37 C42 0.930 . S
N38 Tb0 2.606 . S
N38 C40 1.332 1_554 S
N38 C41 1.347 . S
C39 H25 0.931 . S
C39 C41 1.392 . S
C39 C42 1.370 1_554 S
C40 C36 1.432 . S
C40 N38 1.332 1_556 S
C40 C43 1.414 . S
C41 H23 0.930 . S
C41 N38 1.347 . S
C41 C39 1.392 . S
C42 H37 0.930 . S
C42 C39 1.370 1_556 S
C42 C43 1.385 . S
C43 C40 1.414 . S
C43 C42 1.385 . S
C43 C65 1.444 . S
O44 Tb0 2.546 1_556 S
O44 C64 1.251 . S
O45 Tb0 2.610 . S
O45 Tb11 2.362 . S
O45 C56 1.283 . S
O46 Tb11 2.421 . S
O46 C63 1.262 1_554 S
O47 Tb0 2.320 1_556 S
O47 C63 1.260 . S
O48 Tb0 2.552 . S
O48 C56 1.243 . S
O49 Tb0 2.413 1_556 S
O49 C64 1.256 . S
O50 Tb11 2.546 . S
O50 C75 1.251 . S
O51 Tb0 2.362 . S
O51 Tb11 2.610 . S
O51 C67 1.283 . S
O52 Tb0 2.421 . S
O52 C74 1.262 . S
O53 Tb11 2.320 . S
O53 C74 1.260 . S
O54 Tb11 2.552 . S
O54 C67 1.243 . S
O55 Tb11 2.413 . S
O55 C75 1.256 . S
C56 O45 1.283 . S
C56 O48 1.243 . S
C57 C59 1.382 . S
C57 C61 1.393 . S
C57 C64 1.500 . S
C58 C59 1.400 . S
C58 C60 1.384 . S
C59 C57 1.382 . S
C59 C58 1.400 . S
C59 H76 0.930 . S
C60 C58 1.384 . S
C60 C62 1.392 . S
C60 H77 0.931 . S
C61 C57 1.393 . S
C61 C62 1.401 . S
C61 H78 0.930 . S
C62 C60 1.392 . S
C62 C61 1.401 . S
C62 H79 0.930 . S
C63 O46 1.262 1_556 S
C63 O47 1.260 . S
C64 Tb0 2.833 1_556 S
C64 O44 1.251 . S
C64 O49 1.256 . S
C64 C57 1.500 . S
C65 H30 0.929 . S
C65 C43 1.444 . S
C65 C66 1.317 . S
C66 H28 0.930 . S
C66 C34 1.432 . S
C66 C65 1.317 . S
C67 O51 1.283 . S
C67 O54 1.243 . S
C68 C69 1.382 . S
C68 C72 1.393 . S
C68 C75 1.500 . S
C69 C68 1.382 . S
C69 C70 1.400 . S
C69 H80 0.930 . S
C70 C69 1.400 . S
C70 C71 1.384 . S
C71 C70 1.384 . S
C71 C73 1.392 . S
C71 H81 0.931 . S
C72 C68 1.393 . S
C72 C73 1.401 . S
C72 H82 0.930 . S
C73 C71 1.392 . S
C73 C72 1.401 . S
C73 H83 0.930 . S
C74 O52 1.262 . S
C74 O53 1.260 . S
C75 Tb11 2.833 . S
C75 O50 1.251 . S
C75 O55 1.256 . S
C75 C68 1.500 . S
H76 C59 0.930 . S
H77 C60 0.931 . S
H78 C61 0.930 . S
H79 C62 0.930 . S
H80 C69 0.930 . S
H81 C71 0.931 . S
H82 C72 0.930 . S
H83 C73 0.930 . S
Tb84 N115 2.660 . S
Tb84 N122 2.600 . S
Tb84 O128 2.546 . S
Tb84 O129 2.610 . S
Tb84 O131 2.320 . S
Tb84 O132 2.552 . S
Tb84 O133 2.413 . S
Tb84 O135 2.362 . S
Tb84 O136 2.421 . S
Tb84 C148 2.833 . S
C85 C88 1.432 . S
C85 C89 1.414 . S
C85 N92 1.359 . S
C86 C88 1.417 . S
C86 C90 1.432 . S
C86 C98 1.410 . S
C87 C89 1.444 . S
C87 C90 1.317 . S
C87 H110 0.929 . S
C88 C85 1.432 . S
C88 C86 1.417 . S
C88 N96 1.360 . S
C89 C85 1.414 . S
C89 C87 1.444 . S
C89 C94 1.385 . S
C90 C86 1.432 . S
C90 C87 1.317 . S
C90 H102 0.930 . S
C91 C93 1.392 . S
C91 C94 1.370 . S
C91 H103 0.931 . S
N92 C85 1.359 . S
N92 C93 1.327 . S
N92 Tb95 2.600 . S
C93 C91 1.392 . S
C93 N92 1.327 . S
C93 H100 0.930 . S
C94 C89 1.385 . S
C94 C91 1.370 . S
C94 H113 0.930 . S
Tb95 N92 2.600 . S
Tb95 N96 2.660 . S
Tb95 O129 2.362 . S
Tb95 O130 2.421 . S
Tb95 O134 2.546 . S
Tb95 O135 2.610 . S
Tb95 O137 2.320 . S
Tb95 O138 2.552 . S
Tb95 O139 2.413 . S
Tb95 C159 2.833 . S
N96 C88 1.360 . S
N96 Tb95 2.660 . S
N96 C97 1.305 . S
C97 N96 1.305 . S
C97 C99 1.407 . S
C97 H104 0.930 . S
C98 C86 1.410 . S
C98 C99 1.345 . S
C98 H106 0.930 . S
C99 C97 1.407 . S
C99 C98 1.345 . S
C99 H101 0.930 . S
H100 C93 0.930 . S
H101 C99 0.930 . S
H102 C90 0.930 . S
H103 C91 0.931 . S
H104 C97 0.930 . S
H105 C119 0.930 . S
H106 C98 0.930 . S
H107 C125 0.930 . S
H108 C116 0.930 . S
H109 C123 0.931 . S
H110 C87 0.929 . S
H111 C117 0.930 . S
H112 C150 0.930 . S
H113 C94 0.930 . S
H114 C149 0.929 . S
N115 Tb84 2.660 . S
N115 C116 1.305 . S
N115 C120 1.360 . S
C116 H108 0.930 . S
C116 N115 1.305 . S
C116 C119 1.407 . S
C117 H111 0.930 . S
C117 C118 1.410 . S
C117 C119 1.345 . S
C118 C117 1.410 . S
C118 C120 1.417 . S
C118 C150 1.432 . S
C119 H105 0.930 . S
C119 C116 1.407 . S
C119 C117 1.345 . S
C120 N115 1.360 . S
C120 C118 1.417 . S
C120 C124 1.432 . S
H121 C126 0.930 . S
N122 Tb84 2.600 . S
N122 C124 1.359 . S
N122 C125 1.327 . S
C123 H109 0.931 . S
C123 C125 1.392 . S
C123 C126 1.370 . S
C124 C120 1.432 . S
C124 N122 1.359 . S
C124 C127 1.414 . S
C125 H107 0.930 . S
C125 N122 1.327 . S
C125 C123 1.392 . S
C126 H121 0.930 . S
C126 C123 1.370 . S
C126 C127 1.385 . S
C127 C124 1.414 . S
C127 C126 1.385 . S
C127 C149 1.444 . S
O128 Tb84 2.546 . S
O128 C148 1.251 . S
O129 Tb84 2.610 . S
O129 Tb95 2.362 . S
O129 C140 1.283 . S
O130 Tb95 2.421 . S
O130 C147 1.262 . S
O131 Tb84 2.320 . S
O131 C147 1.260 . S
O132 Tb84 2.552 . S
O132 C140 1.243 . S
O133 Tb84 2.413 . S
O133 C148 1.256 . S
O134 Tb95 2.546 . S
O134 C159 1.251 . S
O135 Tb84 2.362 . S
O135 Tb95 2.610 . S
O135 C151 1.283 . S
O136 Tb84 2.421 . S
O136 C158 1.262 . S
O137 Tb95 2.320 . S
O137 C158 1.260 . S
O138 Tb95 2.552 . S
O138 C151 1.243 . S
O139 Tb95 2.413 . S
O139 C159 1.256 . S
C140 O129 1.283 . S
C140 O132 1.243 . S
C141 C143 1.382 . S
C141 C145 1.393 . S
C141 C148 1.500 . S
C142 C143 1.400 . S
C142 C144 1.384 . S
C143 C141 1.382 . S
C143 C142 1.400 . S
C143 H160 0.930 . S
C144 C142 1.384 . S
C144 C146 1.392 . S
C144 H161 0.931 . S
C145 C141 1.393 . S
C145 C146 1.401 . S
C145 H162 0.930 . S
C146 C144 1.392 . S
C146 C145 1.401 . S
C146 H163 0.930 . S
C147 O130 1.262 . S
C147 O131 1.260 . S
C148 Tb84 2.833 . S
C148 O128 1.251 . S
C148 O133 1.256 . S
C148 C141 1.500 . S
C149 H114 0.929 . S
C149 C127 1.444 . S
C149 C150 1.317 . S
C150 H112 0.930 . S
C150 C118 1.432 . S
C150 C149 1.317 . S
C151 O135 1.283 . S
C151 O138 1.243 . S
C152 C153 1.382 . S
C152 C156 1.393 . S
C152 C159 1.500 . S
C153 C152 1.382 . S
C153 C154 1.400 . S
C153 H164 0.930 . S
C154 C153 1.400 . S
C154 C155 1.384 . S
C155 C154 1.384 . S
C155 C157 1.392 . S
C155 H165 0.931 . S
C156 C152 1.393 . S
C156 C157 1.401 . S
C156 H166 0.930 . S
C157 C155 1.392 . S
C157 C156 1.401 . S
C157 H167 0.930 . S
C158 O136 1.262 . S
C158 O137 1.260 . S
C159 Tb95 2.833 . S
C159 O134 1.251 . S
C159 O139 1.256 . S
C159 C152 1.500 . S
H160 C143 0.930 . S
H161 C144 0.931 . S
H162 C145 0.930 . S
H163 C146 0.930 . S
H164 C153 0.930 . S
H165 C155 0.931 . S
H166 C156 0.930 . S
H167 C157 0.930 . S
Tb168 N199 2.660 . S
Tb168 N206 2.600 . S
Tb168 O212 2.546 . S
Tb168 O213 2.610 . S
Tb168 O215 2.320 . S
Tb168 O216 2.552 . S
Tb168 O217 2.413 . S
Tb168 O219 2.362 . S
Tb168 O220 2.421 . S
Tb168 C232 2.833 . S
C169 C172 1.432 . S
C169 C173 1.414 . S
C169 N176 1.359 . S
C170 C172 1.417 . S
C170 C174 1.432 . S
C170 C182 1.410 . S
C171 C173 1.444 . S
C171 C174 1.317 . S
C171 H194 0.929 . S
C172 C169 1.432 . S
C172 C170 1.417 . S
C172 N180 1.360 . S
C173 C169 1.414 . S
C173 C171 1.444 . S
C173 C178 1.385 . S
C174 C170 1.432 . S
C174 C171 1.317 . S
C174 H186 0.930 . S
C175 C177 1.392 . S
C175 C178 1.370 . S
C175 H187 0.931 . S
N176 C169 1.359 . S
N176 C177 1.327 . S
N176 Tb179 2.600 . S
C177 C175 1.392 . S
C177 N176 1.327 . S
C177 H184 0.930 . S
C178 C173 1.385 . S
C178 C175 1.370 . S
C178 H197 0.930 . S
Tb179 N176 2.600 . S
Tb179 N180 2.660 . S
Tb179 O213 2.362 . S
Tb179 O214 2.421 . S
Tb179 O218 2.546 . S
Tb179 O219 2.610 . S
Tb179 O221 2.320 . S
Tb179 O222 2.552 . S
Tb179 O223 2.413 . S
Tb179 C243 2.833 . S
N180 C172 1.360 . S
N180 Tb179 2.660 . S
N180 C181 1.305 . S
C181 N180 1.305 . S
C181 C183 1.407 . S
C181 H188 0.930 . S
C182 C170 1.410 . S
C182 C183 1.345 . S
C182 H190 0.930 . S
C183 C181 1.407 . S
C183 C182 1.345 . S
C183 H185 0.930 . S
H184 C177 0.930 . S
H185 C183 0.930 . S
H186 C174 0.930 . S
H187 C175 0.931 . S
H188 C181 0.930 . S
H189 C203 0.930 . S
H190 C182 0.930 . S
H191 C209 0.930 . S
H192 C200 0.930 . S
H193 C207 0.931 . S
H194 C171 0.929 . S
H195 C201 0.930 . S
H196 C234 0.930 . S
H197 C178 0.930 . S
H198 C233 0.929 . S
N199 Tb168 2.660 . S
N199 C200 1.305 . S
N199 C204 1.360 . S
C200 H192 0.930 . S
C200 N199 1.305 . S
C200 C203 1.407 . S
C201 H195 0.930 . S
C201 C202 1.410 . S
C201 C203 1.345 . S
C202 C201 1.410 . S
C202 C204 1.417 . S
C202 C234 1.432 . S
C203 H189 0.930 . S
C203 C200 1.407 . S
C203 C201 1.345 . S
C204 N199 1.360 . S
C204 C202 1.417 . S
C204 C208 1.432 . S
H205 C210 0.930 . S
N206 Tb168 2.600 . S
N206 C208 1.359 . S
N206 C209 1.327 . S
C207 H193 0.931 . S
C207 C209 1.392 . S
C207 C210 1.370 . S
C208 C204 1.432 . S
C208 N206 1.359 . S
C208 C211 1.414 . S
C209 H191 0.930 . S
C209 N206 1.327 . S
C209 C207 1.392 . S
C210 H205 0.930 . S
C210 C207 1.370 . S
C210 C211 1.385 . S
C211 C208 1.414 . S
C211 C210 1.385 . S
C211 C233 1.444 . S
O212 Tb168 2.546 . S
O212 C232 1.251 . S
O213 Tb168 2.610 . S
O213 Tb179 2.362 . S
O213 C224 1.283 . S
O214 Tb179 2.421 . S
O214 C231 1.262 . S
O215 Tb168 2.320 . S
O215 C231 1.260 . S
O216 Tb168 2.552 . S
O216 C224 1.243 . S
O217 Tb168 2.413 . S
O217 C232 1.256 . S
O218 Tb179 2.546 . S
O218 C243 1.251 . S
O219 Tb168 2.362 . S
O219 Tb179 2.610 . S
O219 C235 1.283 . S
O220 Tb168 2.421 . S
O220 C242 1.262 . S
O221 Tb179 2.320 . S
O221 C242 1.260 . S
O222 Tb179 2.552 . S
O222 C235 1.243 . S
O223 Tb179 2.413 . S
O223 C243 1.256 . S
C224 O213 1.283 . S
C224 O216 1.243 . S
C225 C227 1.382 . S
C225 C229 1.393 . S
C225 C232 1.500 . S
C226 C227 1.400 . S
C226 C228 1.384 . S
C227 C225 1.382 . S
C227 C226 1.400 . S
C227 H244 0.930 . S
C228 C226 1.384 . S
C228 C230 1.392 . S
C228 H245 0.911 1_455 S
C229 C225 1.393 . S
C229 C230 1.401 . S
C229 H246 0.930 . S
C230 C228 1.392 . S
C230 C229 1.401 . S
C230 H247 0.930 . S
C231 O214 1.262 . S
C231 O215 1.260 . S
C232 Tb168 2.833 . S
C232 O212 1.251 . S
C232 O217 1.256 . S
C232 C225 1.500 . S
C233 H198 0.929 . S
C233 C211 1.444 . S
C233 C234 1.317 . S
C234 H196 0.930 . S
C234 C202 1.432 . S
C234 C233 1.317 . S
C235 O219 1.283 . S
C235 O222 1.243 . S
C236 C237 1.382 . S
C236 C240 1.393 . S
C236 C243 1.500 . S
C237 C236 1.382 . S
C237 C238 1.400 . S
C237 H248 0.930 . S
C238 C237 1.400 . S
C238 C239 1.384 . S
C239 C238 1.384 . S
C239 C241 1.392 . S
C239 H249 0.931 . S
C240 C236 1.393 . S
C240 C241 1.401 . S
C240 H250 0.930 . S
C241 C239 1.392 . S
C241 C240 1.401 . S
C241 H251 0.930 . S
C242 O220 1.262 . S
C242 O221 1.260 . S
C243 Tb179 2.833 . S
C243 O218 1.251 . S
C243 O223 1.256 . S
C243 C236 1.500 . S
H244 C227 0.930 . S
H245 C228 0.911 1_655 S
H246 C229 0.930 . S
H247 C230 0.930 . S
H248 C237 0.930 . S
H249 C239 0.931 . S
H250 C240 0.930 . S
H251 C241 0.930 . S
Tb252 N283 2.660 . S
Tb252 N290 2.600 . S
Tb252 O296 2.546 . S
Tb252 O297 2.610 . S
Tb252 O299 2.320 . S
Tb252 O300 2.552 . S
Tb252 O301 2.413 . S
Tb252 O303 2.362 . S
Tb252 O304 2.421 . S
Tb252 C316 2.833 . S
C253 C256 1.432 . S
C253 C257 1.414 1_655 S
C253 N260 1.359 . S
C254 C256 1.417 . S
C254 C258 1.406 1_655 S
C254 C266 1.410 . S
C255 C257 1.444 . S
C255 C258 1.338 . S
C255 H278 0.929 . S
C256 C253 1.432 . S
C256 C254 1.417 . S
C256 N264 1.360 . S
C257 C253 1.414 1_455 S
C257 C255 1.444 . S
C257 C262 1.385 . S
C258 C254 1.406 1_455 S
C258 C255 1.338 . S
C258 H270 0.936 . S
C259 C261 1.392 . S
C259 C262 1.370 . S
C259 H271 0.931 . S
N260 C253 1.359 . S
N260 C261 1.327 1_655 S
N260 Tb263 2.600 . S
C261 C259 1.392 . S
C261 N260 1.327 1_455 S
C261 H268 0.930 1_455 S
C262 C257 1.385 . S
C262 C259 1.370 . S
C262 H281 0.930 . S
Tb263 N260 2.600 . S
Tb263 N264 2.660 . S
Tb263 O297 2.362 . S
Tb263 O298 2.421 . S
Tb263 O302 2.546 . S
Tb263 O303 2.610 . S
Tb263 O305 2.320 . S
Tb263 O306 2.552 . S
Tb263 O307 2.413 . S
Tb263 C327 2.833 . S
N264 C256 1.360 . S
N264 Tb263 2.660 . S
N264 C265 1.305 . S
C265 N264 1.305 . S
C265 C267 1.407 . S
C265 H272 0.930 . S
C266 C254 1.410 . S
C266 C267 1.345 . S
C266 H274 0.930 . S
C267 C265 1.407 . S
C267 C266 1.345 . S
C267 H269 0.930 . S
H268 C261 0.930 1_655 S
H269 C267 0.930 . S
H270 C258 0.936 . S
H271 C259 0.931 . S
H272 C265 0.930 . S
H273 C287 0.930 . S
H274 C266 0.930 . S
H275 C293 0.930 . S
H276 C284 0.930 . S
H277 C291 0.931 . S
H278 C255 0.929 . S
H279 C285 0.930 . S
H280 C318 0.930 . S
H281 C262 0.930 . S
H282 C317 0.929 . S
N283 Tb252 2.660 . S
N283 C284 1.305 . S
N283 C288 1.360 . S
C284 H276 0.930 . S
C284 N283 1.305 . S
C284 C287 1.407 . S
C285 H279 0.930 . S
C285 C286 1.410 . S
C285 C287 1.345 . S
C286 C285 1.410 . S
C286 C288 1.417 . S
C286 C318 1.432 . S
C287 H273 0.930 . S
C287 C284 1.407 . S
C287 C285 1.345 . S
C288 N283 1.360 . S
C288 C286 1.417 . S
C288 C292 1.432 . S
H289 C294 0.930 . S
N290 Tb252 2.600 . S
N290 C292 1.359 . S
N290 C293 1.327 . S
C291 H277 0.931 . S
C291 C293 1.392 . S
C291 C294 1.370 . S
C292 C288 1.432 . S
C292 N290 1.359 . S
C292 C295 1.414 . S
C293 H275 0.930 . S
C293 N290 1.327 . S
C293 C291 1.392 . S
C294 H289 0.930 . S
C294 C291 1.370 . S
C294 C295 1.385 . S
C295 C292 1.414 . S
C295 C294 1.385 . S
C295 C317 1.444 . S
O296 Tb252 2.546 . S
O296 C316 1.251 . S
O297 Tb252 2.610 . S
O297 Tb263 2.362 . S
O297 C308 1.283 . S
O298 Tb263 2.421 . S
O298 C315 1.262 . S
O299 Tb252 2.320 . S
O299 C315 1.260 . S
O300 Tb252 2.552 . S
O300 C308 1.243 . S
O301 Tb252 2.413 . S
O301 C316 1.256 . S
O302 Tb263 2.546 . S
O302 C327 1.251 . S
O303 Tb252 2.362 . S
O303 Tb263 2.610 . S
O303 C319 1.283 . S
O304 Tb252 2.421 . S
O304 C326 1.262 . S
O305 Tb263 2.320 . S
O305 C326 1.260 . S
O306 Tb263 2.552 . S
O306 C319 1.243 . S
O307 Tb263 2.413 . S
O307 C327 1.256 . S
C308 O297 1.283 . S
C308 O300 1.243 . S
C309 C311 1.382 . S
C309 C313 1.393 . S
C309 C316 1.500 . S
C310 C311 1.400 . S
C310 C312 1.384 . S
C311 C309 1.382 . S
C311 C310 1.400 . S
C311 H328 0.930 . S
C312 C310 1.384 . S
C312 C314 1.392 . S
C312 H329 0.931 . S
C313 C309 1.393 . S
C313 C314 1.401 . S
C313 H330 0.930 . S
C314 C312 1.392 . S
C314 C313 1.401 . S
C314 H331 0.930 . S
C315 O298 1.262 . S
C315 O299 1.260 . S
C316 Tb252 2.833 . S
C316 O296 1.251 . S
C316 O301 1.256 . S
C316 C309 1.500 . S
C317 H282 0.929 . S
C317 C295 1.444 . S
C317 C318 1.317 . S
C318 H280 0.930 . S
C318 C286 1.432 . S
C318 C317 1.317 . S
C319 O303 1.283 . S
C319 O306 1.243 . S
C320 C321 1.382 . S
C320 C324 1.393 . S
C320 C327 1.500 . S
C321 C320 1.382 . S
C321 C322 1.400 . S
C321 H332 0.930 . S
C322 C321 1.400 . S
C322 C323 1.384 . S
C323 C322 1.384 . S
C323 C325 1.392 . S
C323 H333 0.931 . S
C324 C320 1.393 . S
C324 C325 1.401 . S
C324 H334 0.930 . S
C325 C323 1.392 . S
C325 C324 1.401 . S
C325 H335 0.930 1_655 S
C326 O304 1.262 . S
C326 O305 1.260 . S
C327 Tb263 2.833 . S
C327 O302 1.251 . S
C327 O307 1.256 . S
C327 C320 1.500 . S
H328 C311 0.930 . S
H329 C312 0.931 . S
H330 C313 0.930 . S
H331 C314 0.930 . S
H332 C321 0.930 . S
H333 C323 0.931 . S
H334 C324 0.930 . S
H335 C325 0.930 1_455 S
Tb336 N367 2.660 . S
Tb336 N374 2.600 . S
Tb336 O380 2.546 . S
Tb336 O381 2.610 . S
Tb336 O383 2.320 . S
Tb336 O384 2.552 . S
Tb336 O385 2.413 . S
Tb336 O387 2.362 . S
Tb336 O388 2.421 . S
Tb336 C400 2.833 . S
C337 C340 1.432 . S
C337 C341 1.414 . S
C337 N344 1.332 1_554 S
C338 C340 1.417 . S
C338 C342 1.432 . S
C338 C350 1.410 . S
C339 C341 1.444 . S
C339 C342 1.317 . S
C339 H362 0.929 . S
C340 C337 1.432 . S
C340 C338 1.417 . S
C340 N348 1.360 . S
C341 C337 1.414 . S
C341 C339 1.444 . S
C341 C346 1.385 . S
C342 C338 1.432 . S
C342 C339 1.317 . S
C342 H354 0.930 . S
C343 C345 1.392 . S
C343 C346 1.370 1_556 S
C343 H355 0.931 . S
N344 C337 1.332 1_556 S
N344 C345 1.347 . S
N344 Tb347 2.606 . S
C345 C343 1.392 . S
C345 N344 1.347 . S
C345 H352 0.930 . S
C346 C341 1.385 . S
C346 C343 1.370 1_554 S
C346 H365 0.930 . S
Tb347 N344 2.606 . S
Tb347 N348 2.660 1_556 S
Tb347 O381 2.362 . S
Tb347 O382 2.421 . S
Tb347 O386 2.546 1_556 S
Tb347 O387 2.610 . S
Tb347 O389 2.320 1_556 S
Tb347 O390 2.552 . S
Tb347 O391 2.413 1_556 S
Tb347 C411 2.833 1_556 S
N348 C340 1.360 . S
N348 Tb347 2.660 1_554 S
N348 C349 1.305 . S
C349 N348 1.305 . S
C349 C351 1.407 . S
C349 H356 0.930 . S
C350 C338 1.410 . S
C350 C351 1.345 . S
C350 H358 0.930 . S
C351 C349 1.407 . S
C351 C350 1.345 . S
C351 H353 0.930 . S
H352 C345 0.930 . S
H353 C351 0.930 . S
H354 C342 0.930 . S
H355 C343 0.931 . S
H356 C349 0.930 . S
H357 C371 0.930 . S
H358 C350 0.930 . S
H359 C377 0.930 . S
H360 C368 0.930 . S
H361 C375 0.931 . S
H362 C339 0.929 . S
H363 C369 0.930 . S
H364 C402 0.930 . S
H365 C346 0.930 . S
H366 C401 0.929 . S
N367 Tb336 2.660 . S
N367 C368 1.305 . S
N367 C372 1.360 . S
C368 H360 0.930 . S
C368 N367 1.305 . S
C368 C371 1.407 . S
C369 H363 0.930 . S
C369 C370 1.410 . S
C369 C371 1.345 . S
C370 C369 1.410 . S
C370 C372 1.417 . S
C370 C402 1.432 . S
C371 H357 0.930 . S
C371 C368 1.407 . S
C371 C369 1.345 . S
C372 N367 1.360 . S
C372 C370 1.417 . S
C372 C376 1.432 . S
H373 C378 0.930 . S
N374 Tb336 2.600 . S
N374 C376 1.359 . S
N374 C377 1.327 . S
C375 H361 0.931 . S
C375 C377 1.392 . S
C375 C378 1.370 . S
C376 C372 1.432 . S
C376 N374 1.359 . S
C376 C379 1.414 . S
C377 H359 0.930 . S
C377 N374 1.327 . S
C377 C375 1.392 . S
C378 H373 0.930 . S
C378 C375 1.370 . S
C378 C379 1.385 . S
C379 C376 1.414 . S
C379 C378 1.385 . S
C379 C401 1.444 . S
O380 Tb336 2.546 . S
O380 C400 1.251 . S
O381 Tb336 2.610 . S
O381 Tb347 2.362 . S
O381 C392 1.283 . S
O382 Tb347 2.421 . S
O382 C399 1.262 . S
O383 Tb336 2.320 . S
O383 C399 1.260 . S
O384 Tb336 2.552 . S
O384 C392 1.243 . S
O385 Tb336 2.413 . S
O385 C400 1.256 . S
O386 Tb347 2.546 1_554 S
O386 C411 1.251 . S
O387 Tb336 2.362 . S
O387 Tb347 2.610 . S
O387 C403 1.283 . S
O388 Tb336 2.421 . S
O388 C410 1.262 1_556 S
O389 Tb347 2.320 1_554 S
O389 C410 1.260 . S
O390 Tb347 2.552 . S
O390 C403 1.243 . S
O391 Tb347 2.413 1_554 S
O391 C411 1.256 . S
C392 O381 1.283 . S
C392 O384 1.243 . S
C393 C395 1.382 . S
C393 C397 1.393 . S
C393 C400 1.500 . S
C394 C395 1.400 . S
C394 C396 1.384 . S
C395 C393 1.382 . S
C395 C394 1.400 . S
C395 H412 0.930 . S
C396 C394 1.384 . S
C396 C398 1.392 . S
C396 H413 0.931 . S
C397 C393 1.393 . S
C397 C398 1.401 . S
C397 H414 0.930 . S
C398 C396 1.392 . S
C398 C397 1.401 . S
C398 H415 0.930 . S
C399 O382 1.262 . S
C399 O383 1.260 . S
C400 Tb336 2.833 . S
C400 O380 1.251 . S
C400 O385 1.256 . S
C400 C393 1.500 . S
C401 H366 0.929 . S
C401 C379 1.444 . S
C401 C402 1.317 . S
C402 H364 0.930 . S
C402 C370 1.432 . S
C402 C401 1.317 . S
C403 O387 1.283 . S
C403 O390 1.243 . S
C404 C405 1.382 . S
C404 C408 1.393 . S
C404 C411 1.500 . S
C405 C404 1.382 . S
C405 C406 1.400 . S
C405 H416 0.930 . S
C406 C405 1.400 . S
C406 C407 1.384 . S
C407 C406 1.384 . S
C407 C409 1.392 . S
C407 H417 0.931 . S
C408 C404 1.393 . S
C408 C409 1.401 . S
C408 H418 0.930 . S
C409 C407 1.392 . S
C409 C408 1.401 . S
C409 H419 0.930 . S
C410 O388 1.262 1_554 S
C410 O389 1.260 . S
C411 Tb347 2.833 1_554 S
C411 O386 1.251 . S
C411 O391 1.256 . S
C411 C404 1.500 . S
H412 C395 0.930 . S
H413 C396 0.931 . S
H414 C397 0.930 . S
H415 C398 0.930 . S
H416 C405 0.930 . S
H417 C407 0.931 . S
H418 C408 0.930 . S
H419 C409 0.930 . S
Tb420 N451 2.660 . S
Tb420 N458 2.600 . S
Tb420 O464 2.546 . S
Tb420 O465 2.610 . S
Tb420 O467 2.320 . S
Tb420 O468 2.552 . S
Tb420 O469 2.413 . S
Tb420 O471 2.362 . S
Tb420 O472 2.421 . S
Tb420 C484 2.833 . S
C421 C424 1.432 . S
C421 C425 1.414 . S
C421 N428 1.359 . S
C422 C424 1.417 . S
C422 C426 1.432 . S
C422 C434 1.410 . S
C423 C425 1.444 . S
C423 C426 1.317 . S
C423 H446 0.929 . S
C424 C421 1.432 . S
C424 C422 1.417 . S
C424 N432 1.360 . S
C425 C421 1.414 . S
C425 C423 1.444 . S
C425 C430 1.385 . S
C426 C422 1.432 . S
C426 C423 1.317 . S
C426 H438 0.930 . S
C427 C429 1.392 . S
C427 C430 1.370 . S
C427 H439 0.931 . S
N428 C421 1.359 . S
N428 C429 1.327 . S
N428 Tb431 2.600 . S
C429 C427 1.392 . S
C429 N428 1.327 . S
C429 H436 0.930 . S
C430 C425 1.385 . S
C430 C427 1.370 . S
C430 H449 0.930 . S
Tb431 N428 2.600 . S
Tb431 N432 2.660 . S
Tb431 O465 2.362 . S
Tb431 O466 2.421 . S
Tb431 O470 2.546 . S
Tb431 O471 2.610 . S
Tb431 O473 2.320 . S
Tb431 O474 2.552 . S
Tb431 O475 2.413 . S
Tb431 C495 2.833 . S
N432 C424 1.360 . S
N432 Tb431 2.660 . S
N432 C433 1.305 . S
C433 N432 1.305 . S
C433 C435 1.407 . S
C433 H440 0.930 . S
C434 C422 1.410 . S
C434 C435 1.345 . S
C434 H442 0.930 . S
C435 C433 1.407 . S
C435 C434 1.345 . S
C435 H437 0.930 . S
H436 C429 0.930 . S
H437 C435 0.930 . S
H438 C426 0.930 . S
H439 C427 0.931 . S
H440 C433 0.930 . S
H441 C455 0.930 . S
H442 C434 0.930 . S
H443 C461 0.930 . S
H444 C452 0.930 . S
H445 C459 0.931 . S
H446 C423 0.929 . S
H447 C453 0.930 . S
H448 C486 0.930 . S
H449 C430 0.930 . S
H450 C485 0.929 . S
N451 Tb420 2.660 . S
N451 C452 1.305 . S
N451 C456 1.360 . S
C452 H444 0.930 . S
C452 N451 1.305 . S
C452 C455 1.407 . S
C453 H447 0.930 . S
C453 C454 1.410 . S
C453 C455 1.345 . S
C454 C453 1.410 . S
C454 C456 1.417 . S
C454 C486 1.432 . S
C455 H441 0.930 . S
C455 C452 1.407 . S
C455 C453 1.345 . S
C456 N451 1.360 . S
C456 C454 1.417 . S
C456 C460 1.432 . S
H457 C462 0.930 . S
N458 Tb420 2.600 . S
N458 C460 1.359 . S
N458 C461 1.327 . S
C459 H445 0.931 . S
C459 C461 1.392 . S
C459 C462 1.370 . S
C460 C456 1.432 . S
C460 N458 1.359 . S
C460 C463 1.414 . S
C461 H443 0.930 . S
C461 N458 1.327 . S
C461 C459 1.392 . S
C462 H457 0.930 . S
C462 C459 1.370 . S
C462 C463 1.385 . S
C463 C460 1.414 . S
C463 C462 1.385 . S
C463 C485 1.444 . S
O464 Tb420 2.546 . S
O464 C484 1.251 . S
O465 Tb420 2.610 . S
O465 Tb431 2.362 . S
O465 C476 1.283 . S
O466 Tb431 2.421 . S
O466 C483 1.262 . S
O467 Tb420 2.320 . S
O467 C483 1.260 . S
O468 Tb420 2.552 . S
O468 C476 1.243 . S
O469 Tb420 2.413 . S
O469 C484 1.256 . S
O470 Tb431 2.546 . S
O470 C495 1.251 . S
O471 Tb420 2.362 . S
O471 Tb431 2.610 . S
O471 C487 1.283 . S
O472 Tb420 2.421 . S
O472 C494 1.262 . S
O473 Tb431 2.320 . S
O473 C494 1.260 . S
O474 Tb431 2.552 . S
O474 C487 1.243 . S
O475 Tb431 2.413 . S
O475 C495 1.256 . S
C476 O465 1.283 . S
C476 O468 1.243 . S
C477 C479 1.382 . S
C477 C481 1.393 . S
C477 C484 1.500 . S
C478 C479 1.400 . S
C478 C480 1.384 . S
C479 C477 1.382 . S
C479 C478 1.400 . S
C479 H496 0.930 . S
C480 C478 1.384 . S
C480 C482 1.392 . S
C480 H497 0.931 . S
C481 C477 1.393 . S
C481 C482 1.401 . S
C481 H498 0.930 . S
C482 C480 1.392 . S
C482 C481 1.401 . S
C482 H499 0.930 . S
C483 O466 1.262 . S
C483 O467 1.260 . S
C484 Tb420 2.833 . S
C484 O464 1.251 . S
C484 O469 1.256 . S
C484 C477 1.500 . S
C485 H450 0.929 . S
C485 C463 1.444 . S
C485 C486 1.317 . S
C486 H448 0.930 . S
C486 C454 1.432 . S
C486 C485 1.317 . S
C487 O471 1.283 . S
C487 O474 1.243 . S
C488 C489 1.382 . S
C488 C492 1.393 . S
C488 C495 1.500 . S
C489 C488 1.382 . S
C489 C490 1.400 . S
C489 H500 0.930 . S
C490 C489 1.400 . S
C490 C491 1.384 . S
C491 C490 1.384 . S
C491 C493 1.392 . S
C491 H501 0.931 . S
C492 C488 1.393 . S
C492 C493 1.401 . S
C492 H502 0.930 . S
C493 C491 1.392 . S
C493 C492 1.401 . S
C493 H503 0.930 . S
C494 O472 1.262 . S
C494 O473 1.260 . S
C495 Tb431 2.833 . S
C495 O470 1.251 . S
C495 O475 1.256 . S
C495 C488 1.500 . S
H496 C479 0.930 . S
H497 C480 0.931 . S
H498 C481 0.930 . S
H499 C482 0.930 . S
H500 C489 0.930 . S
H501 C491 0.931 . S
H502 C492 0.930 . S
H503 C493 0.930 . S
Tb504 N535 2.660 . S
Tb504 N542 2.600 . S
Tb504 O548 2.546 . S
Tb504 O549 2.610 . S
Tb504 O551 2.320 . S
Tb504 O552 2.552 . S
Tb504 O553 2.413 . S
Tb504 O555 2.362 . S
Tb504 O556 2.421 . S
Tb504 C568 2.833 . S
C505 C508 1.432 . S
C505 C509 1.414 . S
C505 N512 1.359 . S
C506 C508 1.417 . S
C506 C510 1.432 . S
C506 C518 1.410 . S
C507 C509 1.444 . S
C507 C510 1.317 . S
C507 H530 0.929 . S
C508 C505 1.432 . S
C508 C506 1.417 . S
C508 N516 1.360 . S
C509 C505 1.414 . S
C509 C507 1.444 . S
C509 C514 1.385 . S
C510 C506 1.432 . S
C510 C507 1.317 . S
C510 H522 0.930 . S
C511 C513 1.392 . S
C511 C514 1.370 . S
C511 H523 0.931 . S
N512 C505 1.359 . S
N512 C513 1.327 . S
N512 Tb515 2.600 . S
C513 C511 1.392 . S
C513 N512 1.327 . S
C513 H520 0.930 . S
C514 C509 1.385 . S
C514 C511 1.370 . S
C514 H533 0.930 . S
Tb515 N512 2.600 . S
Tb515 N516 2.660 . S
Tb515 O549 2.362 . S
Tb515 O550 2.421 . S
Tb515 O554 2.546 . S
Tb515 O555 2.610 . S
Tb515 O557 2.320 . S
Tb515 O558 2.552 . S
Tb515 O559 2.413 . S
Tb515 C579 2.833 . S
N516 C508 1.360 . S
N516 Tb515 2.660 . S
N516 C517 1.305 . S
C517 N516 1.305 . S
C517 C519 1.407 . S
C517 H524 0.930 . S
C518 C506 1.410 . S
C518 C519 1.345 . S
C518 H526 0.930 . S
C519 C517 1.407 . S
C519 C518 1.345 . S
C519 H521 0.930 . S
H520 C513 0.930 . S
H521 C519 0.930 . S
H522 C510 0.930 . S
H523 C511 0.931 . S
H524 C517 0.930 . S
H525 C539 0.930 . S
H526 C518 0.930 . S
H527 C545 0.930 . S
H528 C536 0.930 . S
H529 C543 0.931 . S
H530 C507 0.929 . S
H531 C537 0.930 . S
H532 C570 0.930 . S
H533 C514 0.930 . S
H534 C569 0.929 . S
N535 Tb504 2.660 . S
N535 C536 1.305 . S
N535 C540 1.360 . S
C536 H528 0.930 . S
C536 N535 1.305 . S
C536 C539 1.407 . S
C537 H531 0.930 . S
C537 C538 1.410 . S
C537 C539 1.345 . S
C538 C537 1.410 . S
C538 C540 1.417 . S
C538 C570 1.432 . S
C539 H525 0.930 . S
C539 C536 1.407 . S
C539 C537 1.345 . S
C540 N535 1.360 . S
C540 C538 1.417 . S
C540 C544 1.432 . S
H541 C546 0.930 . S
N542 Tb504 2.600 . S
N542 C544 1.359 . S
N542 C545 1.327 . S
C543 H529 0.931 . S
C543 C545 1.392 . S
C543 C546 1.370 . S
C544 C540 1.432 . S
C544 N542 1.359 . S
C544 C547 1.414 . S
C545 H527 0.930 . S
C545 N542 1.327 . S
C545 C543 1.392 . S
C546 H541 0.930 . S
C546 C543 1.370 . S
C546 C547 1.385 . S
C547 C544 1.414 . S
C547 C546 1.385 . S
C547 C569 1.444 . S
O548 Tb504 2.546 . S
O548 C568 1.251 . S
O549 Tb504 2.610 . S
O549 Tb515 2.362 . S
O549 C560 1.283 . S
O550 Tb515 2.421 . S
O550 C567 1.262 . S
O551 Tb504 2.320 . S
O551 C567 1.260 . S
O552 Tb504 2.552 . S
O552 C560 1.243 . S
O553 Tb504 2.413 . S
O553 C568 1.256 . S
O554 Tb515 2.546 . S
O554 C579 1.251 . S
O555 Tb504 2.362 . S
O555 Tb515 2.610 . S
O555 C571 1.283 . S
O556 Tb504 2.421 . S
O556 C578 1.262 . S
O557 Tb515 2.320 . S
O557 C578 1.260 . S
O558 Tb515 2.552 . S
O558 C571 1.243 . S
O559 Tb515 2.413 . S
O559 C579 1.256 . S
C560 O549 1.283 . S
C560 O552 1.243 . S
C561 C563 1.382 . S
C561 C565 1.393 . S
C561 C568 1.500 . S
C562 C563 1.400 . S
C562 C564 1.384 . S
C563 C561 1.382 . S
C563 C562 1.400 . S
C563 H580 0.930 . S
C564 C562 1.384 . S
C564 C566 1.392 . S
C564 H581 0.931 . S
C565 C561 1.393 . S
C565 C566 1.401 . S
C565 H582 0.930 . S
C566 C564 1.392 . S
C566 C565 1.401 . S
C566 H583 0.930 . S
C567 O550 1.262 . S
C567 O551 1.260 . S
C568 Tb504 2.833 . S
C568 O548 1.251 . S
C568 O553 1.256 . S
C568 C561 1.500 . S
C569 H534 0.929 . S
C569 C547 1.444 . S
C569 C570 1.317 . S
C570 H532 0.930 . S
C570 C538 1.432 . S
C570 C569 1.317 . S
C571 O555 1.283 . S
C571 O558 1.243 . S
C572 C573 1.382 . S
C572 C576 1.393 . S
C572 C579 1.500 . S
C573 C572 1.382 . S
C573 C574 1.400 . S
C573 H584 0.930 . S
C574 C573 1.400 . S
C574 C575 1.384 . S
C575 C574 1.384 . S
C575 C577 1.392 . S
C575 H585 0.911 1_655 S
C576 C572 1.393 . S
C576 C577 1.401 . S
C576 H586 0.930 . S
C577 C575 1.392 . S
C577 C576 1.401 . S
C577 H587 0.930 . S
C578 O556 1.262 . S
C578 O557 1.260 . S
C579 Tb515 2.833 . S
C579 O554 1.251 . S
C579 O559 1.256 . S
C579 C572 1.500 . S
H580 C563 0.930 . S
H581 C564 0.931 . S
H582 C565 0.930 . S
H583 C566 0.930 . S
H584 C573 0.930 . S
H585 C575 0.911 1_455 S
H586 C576 0.930 . S
H587 C577 0.930 . S
Tb588 N619 2.660 . S
Tb588 N626 2.600 . S
Tb588 O632 2.546 . S
Tb588 O633 2.610 . S
Tb588 O635 2.320 . S
Tb588 O636 2.552 . S
Tb588 O637 2.413 . S
Tb588 O639 2.362 . S
Tb588 O640 2.421 . S
Tb588 C652 2.833 . S
C589 C592 1.432 . S
C589 C593 1.414 . S
C589 N596 1.359 . S
C590 C592 1.417 . S
C590 C594 1.432 . S
C590 C602 1.410 . S
C591 C593 1.444 . S
C591 C594 1.317 . S
C591 H614 0.929 . S
C592 C589 1.432 . S
C592 C590 1.417 . S
C592 N600 1.360 . S
C593 C589 1.414 . S
C593 C591 1.444 . S
C593 C598 1.385 . S
C594 C590 1.432 . S
C594 C591 1.317 . S
C594 H606 0.930 . S
C595 C597 1.392 . S
C595 C598 1.370 . S
C595 H607 0.931 . S
N596 C589 1.359 . S
N596 C597 1.327 . S
N596 Tb599 2.600 . S
C597 C595 1.392 . S
C597 N596 1.327 . S
C597 H604 0.930 . S
C598 C593 1.385 . S
C598 C595 1.370 . S
C598 H617 0.930 . S
Tb599 N596 2.600 . S
Tb599 N600 2.660 . S
Tb599 O633 2.362 . S
Tb599 O634 2.421 . S
Tb599 O638 2.546 . S
Tb599 O639 2.610 . S
Tb599 O641 2.320 . S
Tb599 O642 2.552 . S
Tb599 O643 2.413 . S
Tb599 C663 2.833 . S
N600 C592 1.360 . S
N600 Tb599 2.660 . S
N600 C601 1.305 . S
C601 N600 1.305 . S
C601 C603 1.407 . S
C601 H608 0.930 . S
C602 C590 1.410 . S
C602 C603 1.345 . S
C602 H610 0.930 . S
C603 C601 1.407 . S
C603 C602 1.345 . S
C603 H605 0.930 . S
H604 C597 0.930 . S
H605 C603 0.930 . S
H606 C594 0.930 . S
H607 C595 0.931 . S
H608 C601 0.930 . S
H609 C623 0.930 . S
H610 C602 0.930 . S
H611 C629 0.930 1_455 S
H612 C620 0.930 . S
H613 C627 0.931 . S
H614 C591 0.929 . S
H615 C621 0.930 . S
H616 C654 0.936 . S
H617 C598 0.930 . S
H618 C653 0.929 . S
N619 Tb588 2.660 . S
N619 C620 1.305 . S
N619 C624 1.360 . S
C620 H612 0.930 . S
C620 N619 1.305 . S
C620 C623 1.407 . S
C621 H615 0.930 . S
C621 C622 1.410 . S
C621 C623 1.345 . S
C622 C621 1.410 . S
C622 C624 1.417 . S
C622 C654 1.406 1_455 S
C623 H609 0.930 . S
C623 C620 1.407 . S
C623 C621 1.345 . S
C624 N619 1.360 . S
C624 C622 1.417 . S
C624 C628 1.432 . S
H625 C630 0.930 . S
N626 Tb588 2.600 . S
N626 C628 1.359 . S
N626 C629 1.327 1_455 S
C627 H613 0.931 . S
C627 C629 1.392 . S
C627 C630 1.370 . S
C628 C624 1.432 . S
C628 N626 1.359 . S
C628 C631 1.414 1_455 S
C629 H611 0.930 1_655 S
C629 N626 1.327 1_655 S
C629 C627 1.392 . S
C630 H625 0.930 . S
C630 C627 1.370 . S
C630 C631 1.385 . S
C631 C628 1.414 1_655 S
C631 C630 1.385 . S
C631 C653 1.444 . S
O632 Tb588 2.546 . S
O632 C652 1.251 . S
O633 Tb588 2.610 . S
O633 Tb599 2.362 . S
O633 C644 1.283 . S
O634 Tb599 2.421 . S
O634 C651 1.262 . S
O635 Tb588 2.320 . S
O635 C651 1.260 . S
O636 Tb588 2.552 . S
O636 C644 1.243 . S
O637 Tb588 2.413 . S
O637 C652 1.256 . S
O638 Tb599 2.546 . S
O638 C663 1.251 . S
O639 Tb588 2.362 . S
O639 Tb599 2.610 . S
O639 C655 1.283 . S
O640 Tb588 2.421 . S
O640 C662 1.262 . S
O641 Tb599 2.320 . S
O641 C662 1.260 . S
O642 Tb599 2.552 . S
O642 C655 1.243 . S
O643 Tb599 2.413 . S
O643 C663 1.256 . S
C644 O633 1.283 . S
C644 O636 1.243 . S
C645 C647 1.382 . S
C645 C649 1.393 . S
C645 C652 1.500 . S
C646 C647 1.400 . S
C646 C648 1.384 . S
C647 C645 1.382 . S
C647 C646 1.400 . S
C647 H664 0.930 . S
C648 C646 1.384 . S
C648 C650 1.392 . S
C648 H665 0.931 . S
C649 C645 1.393 . S
C649 C650 1.401 . S
C649 H666 0.930 . S
C650 C648 1.392 . S
C650 C649 1.401 . S
C650 H667 0.930 1_455 S
C651 O634 1.262 . S
C651 O635 1.260 . S
C652 Tb588 2.833 . S
C652 O632 1.251 . S
C652 O637 1.256 . S
C652 C645 1.500 . S
C653 H618 0.929 . S
C653 C631 1.444 . S
C653 C654 1.338 . S
C654 H616 0.936 . S
C654 C622 1.406 1_655 S
C654 C653 1.338 . S
C655 O639 1.283 . S
C655 O642 1.243 . S
C656 C657 1.382 . S
C656 C660 1.393 . S
C656 C663 1.500 . S
C657 C656 1.382 . S
C657 C658 1.400 . S
C657 H668 0.930 . S
C658 C657 1.400 . S
C658 C659 1.384 . S
C659 C658 1.384 . S
C659 C661 1.392 . S
C659 H669 0.931 . S
C660 C656 1.393 . S
C660 C661 1.401 . S
C660 H670 0.930 . S
C661 C659 1.392 . S
C661 C660 1.401 . S
C661 H671 0.930 . S
C662 O640 1.262 . S
C662 O641 1.260 . S
C663 Tb599 2.833 . S
C663 O638 1.251 . S
C663 O643 1.256 . S
C663 C656 1.500 . S
H664 C647 0.930 . S
H665 C648 0.931 . S
H666 C649 0.930 . S
H667 C650 0.930 1_655 S
H668 C657 0.930 . S
H669 C659 0.931 . S
H670 C660 0.930 . S
H671 C661 0.930 . S
Tb672 N703 2.660 . S
Tb672 N710 2.600 . S
Tb672 O716 2.546 . S
Tb672 O717 2.610 . S
Tb672 O719 2.320 . S
Tb672 O720 2.552 . S
Tb672 O721 2.413 . S
Tb672 O723 2.362 . S
Tb672 O724 2.421 . S
Tb672 C736 2.833 . S
C673 C676 1.432 . S
C673 C677 1.414 . S
C673 N680 1.359 . S
C674 C676 1.417 . S
C674 C678 1.432 . S
C674 C686 1.410 . S
C675 C677 1.444 . S
C675 C678 1.317 . S
C675 H698 0.929 . S
C676 C673 1.432 . S
C676 C674 1.417 . S
C676 N684 1.360 . S
C677 C673 1.414 . S
C677 C675 1.444 . S
C677 C682 1.385 . S
C678 C674 1.432 . S
C678 C675 1.317 . S
C678 H690 0.930 . S
C679 C681 1.392 . S
C679 C682 1.370 . S
C679 H691 0.931 . S
N680 C673 1.359 . S
N680 C681 1.327 . S
N680 Tb683 2.600 . S
C681 C679 1.392 . S
C681 N680 1.327 . S
C681 H688 0.930 . S
C682 C677 1.385 . S
C682 C679 1.370 . S
C682 H701 0.930 . S
Tb683 N680 2.600 . S
Tb683 N684 2.660 . S
Tb683 O717 2.362 . S
Tb683 O718 2.421 . S
Tb683 O722 2.546 . S
Tb683 O723 2.610 . S
Tb683 O725 2.320 . S
Tb683 O726 2.552 . S
Tb683 O727 2.413 . S
Tb683 C747 2.833 . S
N684 C676 1.360 . S
N684 Tb683 2.660 . S
N684 C685 1.305 . S
C685 N684 1.305 . S
C685 C687 1.407 . S
C685 H692 0.930 . S
C686 C674 1.410 . S
C686 C687 1.345 . S
C686 H694 0.930 . S
C687 C685 1.407 . S
C687 C686 1.345 . S
C687 H689 0.930 . S
H688 C681 0.930 . S
H689 C687 0.930 . S
H690 C678 0.930 . S
H691 C679 0.931 . S
H692 C685 0.930 . S
H693 C707 0.930 . S
H694 C686 0.930 . S
H695 C713 0.930 . S
H696 C704 0.930 . S
H697 C711 0.931 . S
H698 C675 0.929 . S
H699 C705 0.930 . S
H700 C738 0.930 . S
H701 C682 0.930 . S
H702 C737 0.929 . S
N703 Tb672 2.660 . S
N703 C704 1.305 . S
N703 C708 1.360 . S
C704 H696 0.930 . S
C704 N703 1.305 . S
C704 C707 1.407 . S
C705 H699 0.930 . S
C705 C706 1.410 . S
C705 C707 1.345 . S
C706 C705 1.410 . S
C706 C708 1.417 . S
C706 C738 1.432 . S
C707 H693 0.930 . S
C707 C704 1.407 . S
C707 C705 1.345 . S
C708 N703 1.360 . S
C708 C706 1.417 . S
C708 C712 1.432 . S
H709 C714 0.930 . S
N710 Tb672 2.600 . S
N710 C712 1.359 . S
N710 C713 1.327 . S
C711 H697 0.931 . S
C711 C713 1.392 . S
C711 C714 1.370 . S
C712 C708 1.432 . S
C712 N710 1.359 . S
C712 C715 1.414 . S
C713 H695 0.930 . S
C713 N710 1.327 . S
C713 C711 1.392 . S
C714 H709 0.930 . S
C714 C711 1.370 . S
C714 C715 1.385 . S
C715 C712 1.414 . S
C715 C714 1.385 . S
C715 C737 1.444 . S
O716 Tb672 2.546 . S
O716 C736 1.251 . S
O717 Tb672 2.610 . S
O717 Tb683 2.362 . S
O717 C728 1.283 . S
O718 Tb683 2.421 . S
O718 C735 1.262 . S
O719 Tb672 2.320 . S
O719 C735 1.260 . S
O720 Tb672 2.552 . S
O720 C728 1.243 . S
O721 Tb672 2.413 . S
O721 C736 1.256 . S
O722 Tb683 2.546 . S
O722 C747 1.251 . S
O723 Tb672 2.362 . S
O723 Tb683 2.610 . S
O723 C739 1.283 . S
O724 Tb672 2.421 . S
O724 C746 1.262 . S
O725 Tb683 2.320 . S
O725 C746 1.260 . S
O726 Tb683 2.552 . S
O726 C739 1.243 . S
O727 Tb683 2.413 . S
O727 C747 1.256 . S
C728 O717 1.283 . S
C728 O720 1.243 . S
C729 C731 1.382 . S
C729 C733 1.393 . S
C729 C736 1.500 . S
C730 C731 1.400 . S
C730 C732 1.384 . S
C731 C729 1.382 . S
C731 C730 1.400 . S
C731 H748 0.930 . S
C732 C730 1.384 . S
C732 C734 1.392 . S
C732 H749 0.911 1_655 S
C733 C729 1.393 . S
C733 C734 1.401 . S
C733 H750 0.930 . S
C734 C732 1.392 . S
C734 C733 1.401 . S
C734 H751 0.930 . S
C735 O718 1.262 . S
C735 O719 1.260 . S
C736 Tb672 2.833 . S
C736 O716 1.251 . S
C736 O721 1.256 . S
C736 C729 1.500 . S
C737 H702 0.929 . S
C737 C715 1.444 . S
C737 C738 1.317 . S
C738 H700 0.930 . S
C738 C706 1.432 . S
C738 C737 1.317 . S
C739 O723 1.283 . S
C739 O726 1.243 . S
C740 C741 1.382 . S
C740 C744 1.393 . S
C740 C747 1.500 . S
C741 C740 1.382 . S
C741 C742 1.400 . S
C741 H752 0.930 . S
C742 C741 1.400 . S
C742 C743 1.384 . S
C743 C742 1.384 . S
C743 C745 1.392 . S
C743 H753 0.931 . S
C744 C740 1.393 . S
C744 C745 1.401 . S
C744 H754 0.930 . S
C745 C743 1.392 . S
C745 C744 1.401 . S
C745 H755 0.930 . S
C746 O724 1.262 . S
C746 O725 1.260 . S
C747 Tb683 2.833 . S
C747 O722 1.251 . S
C747 O727 1.256 . S
C747 C740 1.500 . S
H748 C731 0.930 . S
H749 C732 0.911 1_455 S
H750 C733 0.930 . S
H751 C734 0.930 . S
H752 C741 0.930 . S
H753 C743 0.931 . S
H754 C744 0.930 . S
H755 C745 0.930 . S
Tb756 N787 2.660 . S
Tb756 N794 2.600 . S
Tb756 O800 2.546 . S
Tb756 O801 2.610 . S
Tb756 O803 2.320 . S
Tb756 O804 2.552 . S
Tb756 O805 2.413 . S
Tb756 O807 2.362 . S
Tb756 O808 2.421 . S
Tb756 C820 2.833 . S
C757 C760 1.432 . S
C757 C761 1.414 1_455 S
C757 N764 1.359 . S
C758 C760 1.417 . S
C758 C762 1.406 1_455 S
C758 C770 1.410 . S
C759 C761 1.444 . S
C759 C762 1.338 . S
C759 H782 0.929 . S
C760 C757 1.432 . S
C760 C758 1.417 . S
C760 N768 1.360 . S
C761 C757 1.414 1_655 S
C761 C759 1.444 . S
C761 C766 1.385 . S
C762 C758 1.406 1_655 S
C762 C759 1.338 . S
C762 H774 0.936 . S
C763 C765 1.392 . S
C763 C766 1.370 . S
C763 H775 0.931 . S
N764 C757 1.359 . S
N764 C765 1.327 1_455 S
N764 Tb767 2.600 . S
C765 C763 1.392 . S
C765 N764 1.327 1_655 S
C765 H772 0.930 1_655 S
C766 C761 1.385 . S
C766 C763 1.370 . S
C766 H785 0.930 . S
Tb767 N764 2.600 . S
Tb767 N768 2.660 . S
Tb767 O801 2.362 . S
Tb767 O802 2.421 . S
Tb767 O806 2.546 . S
Tb767 O807 2.610 . S
Tb767 O809 2.320 . S
Tb767 O810 2.552 . S
Tb767 O811 2.413 . S
Tb767 C831 2.833 . S
N768 C760 1.360 . S
N768 Tb767 2.660 . S
N768 C769 1.305 . S
C769 N768 1.305 . S
C769 C771 1.407 . S
C769 H776 0.930 . S
C770 C758 1.410 . S
C770 C771 1.345 . S
C770 H778 0.930 . S
C771 C769 1.407 . S
C771 C770 1.345 . S
C771 H773 0.930 . S
H772 C765 0.930 1_455 S
H773 C771 0.930 . S
H774 C762 0.936 . S
H775 C763 0.931 . S
H776 C769 0.930 . S
H777 C791 0.930 . S
H778 C770 0.930 . S
H779 C797 0.930 . S
H780 C788 0.930 . S
H781 C795 0.931 . S
H782 C759 0.929 . S
H783 C789 0.930 . S
H784 C822 0.930 . S
H785 C766 0.930 . S
H786 C821 0.929 . S
N787 Tb756 2.660 . S
N787 C788 1.305 . S
N787 C792 1.360 . S
C788 H780 0.930 . S
C788 N787 1.305 . S
C788 C791 1.407 . S
C789 H783 0.930 . S
C789 C790 1.410 . S
C789 C791 1.345 . S
C790 C789 1.410 . S
C790 C792 1.417 . S
C790 C822 1.432 . S
C791 H777 0.930 . S
C791 C788 1.407 . S
C791 C789 1.345 . S
C792 N787 1.360 . S
C792 C790 1.417 . S
C792 C796 1.432 . S
H793 C798 0.930 . S
N794 Tb756 2.600 . S
N794 C796 1.359 . S
N794 C797 1.327 . S
C795 H781 0.931 . S
C795 C797 1.392 . S
C795 C798 1.370 . S
C796 C792 1.432 . S
C796 N794 1.359 . S
C796 C799 1.414 . S
C797 H779 0.930 . S
C797 N794 1.327 . S
C797 C795 1.392 . S
C798 H793 0.930 . S
C798 C795 1.370 . S
C798 C799 1.385 . S
C799 C796 1.414 . S
C799 C798 1.385 . S
C799 C821 1.444 . S
O800 Tb756 2.546 . S
O800 C820 1.251 . S
O801 Tb756 2.610 . S
O801 Tb767 2.362 . S
O801 C812 1.283 . S
O802 Tb767 2.421 . S
O802 C819 1.262 . S
O803 Tb756 2.320 . S
O803 C819 1.260 . S
O804 Tb756 2.552 . S
O804 C812 1.243 . S
O805 Tb756 2.413 . S
O805 C820 1.256 . S
O806 Tb767 2.546 . S
O806 C831 1.251 . S
O807 Tb756 2.362 . S
O807 Tb767 2.610 . S
O807 C823 1.283 . S
O808 Tb756 2.421 . S
O808 C830 1.262 . S
O809 Tb767 2.320 . S
O809 C830 1.260 . S
O810 Tb767 2.552 . S
O810 C823 1.243 . S
O811 Tb767 2.413 . S
O811 C831 1.256 . S
C812 O801 1.283 . S
C812 O804 1.243 . S
C813 C815 1.382 . S
C813 C817 1.393 . S
C813 C820 1.500 . S
C814 C815 1.400 . S
C814 C816 1.384 . S
C815 C813 1.382 . S
C815 C814 1.400 . S
C815 H832 0.930 . S
C816 C814 1.384 . S
C816 C818 1.392 . S
C816 H833 0.931 . S
C817 C813 1.393 . S
C817 C818 1.401 . S
C817 H834 0.930 . S
C818 C816 1.392 . S
C818 C817 1.401 . S
C818 H835 0.930 . S
C819 O802 1.262 . S
C819 O803 1.260 . S
C820 Tb756 2.833 . S
C820 O800 1.251 . S
C820 O805 1.256 . S
C820 C813 1.500 . S
C821 H786 0.929 . S
C821 C799 1.444 . S
C821 C822 1.317 . S
C822 H784 0.930 . S
C822 C790 1.432 . S
C822 C821 1.317 . S
C823 O807 1.283 . S
C823 O810 1.243 . S
C824 C825 1.382 . S
C824 C828 1.393 . S
C824 C831 1.500 . S
C825 C824 1.382 . S
C825 C826 1.400 . S
C825 H836 0.930 . S
C826 C825 1.400 . S
C826 C827 1.384 . S
C827 C826 1.384 . S
C827 C829 1.392 . S
C827 H837 0.931 . S
C828 C824 1.393 . S
C828 C829 1.401 . S
C828 H838 0.930 . S
C829 C827 1.392 . S
C829 C828 1.401 . S
C829 H839 0.930 1_455 S
C830 O808 1.262 . S
C830 O809 1.260 . S
C831 Tb767 2.833 . S
C831 O806 1.251 . S
C831 O811 1.256 . S
C831 C824 1.500 . S
H832 C815 0.930 . S
H833 C816 0.931 . S
H834 C817 0.930 . S
H835 C818 0.930 . S
H836 C825 0.930 . S
H837 C827 0.931 . S
H838 C828 0.930 . S
H839 C829 0.930 1_655 S
Tb840 N871 2.660 1_554 S
Tb840 N878 2.606 . S
Tb840 O884 2.546 1_554 S
Tb840 O885 2.610 . S
Tb840 O887 2.320 1_554 S
Tb840 O888 2.552 . S
Tb840 O889 2.413 1_554 S
Tb840 O891 2.362 . S
Tb840 O892 2.421 . S
Tb840 C904 2.833 1_554 S
C841 C844 1.432 . S
C841 C845 1.414 . S
C841 N848 1.359 . S
C842 C844 1.417 . S
C842 C846 1.432 . S
C842 C854 1.410 . S
C843 C845 1.444 . S
C843 C846 1.317 . S
C843 H866 0.929 . S
C844 C841 1.432 . S
C844 C842 1.417 . S
C844 N852 1.360 . S
C845 C841 1.414 . S
C845 C843 1.444 . S
C845 C850 1.385 . S
C846 C842 1.432 . S
C846 C843 1.317 . S
C846 H858 0.930 . S
C847 C849 1.392 . S
C847 C850 1.370 . S
C847 H859 0.931 . S
N848 C841 1.359 . S
N848 C849 1.327 . S
N848 Tb851 2.600 . S
C849 C847 1.392 . S
C849 N848 1.327 . S
C849 H856 0.930 . S
C850 C845 1.385 . S
C850 C847 1.370 . S
C850 H869 0.930 . S
Tb851 N848 2.600 . S
Tb851 N852 2.660 . S
Tb851 O885 2.362 . S
Tb851 O886 2.421 . S
Tb851 O890 2.546 . S
Tb851 O891 2.610 . S
Tb851 O893 2.320 . S
Tb851 O894 2.552 . S
Tb851 O895 2.413 . S
Tb851 C915 2.833 . S
N852 C844 1.360 . S
N852 Tb851 2.660 . S
N852 C853 1.305 . S
C853 N852 1.305 . S
C853 C855 1.407 . S
C853 H860 0.930 . S
C854 C842 1.410 . S
C854 C855 1.345 . S
C854 H862 0.930 . S
C855 C853 1.407 . S
C855 C854 1.345 . S
C855 H857 0.930 . S
H856 C849 0.930 . S
H857 C855 0.930 . S
H858 C846 0.930 . S
H859 C847 0.931 . S
H860 C853 0.930 . S
H861 C875 0.930 . S
H862 C854 0.930 . S
H863 C881 0.930 . S
H864 C872 0.930 . S
H865 C879 0.931 . S
H866 C843 0.929 . S
H867 C873 0.930 . S
H868 C906 0.930 . S
H869 C850 0.930 . S
H870 C905 0.929 . S
N871 Tb840 2.660 1_556 S
N871 C872 1.305 . S
N871 C876 1.360 . S
C872 H864 0.930 . S
C872 N871 1.305 . S
C872 C875 1.407 . S
C873 H867 0.930 . S
C873 C874 1.410 . S
C873 C875 1.345 . S
C874 C873 1.410 . S
C874 C876 1.417 . S
C874 C906 1.432 . S
C875 H861 0.930 . S
C875 C872 1.407 . S
C875 C873 1.345 . S
C876 N871 1.360 . S
C876 C874 1.417 . S
C876 C880 1.432 . S
H877 C882 0.930 . S
N878 Tb840 2.606 . S
N878 C880 1.332 1_554 S
N878 C881 1.347 . S
C879 H865 0.931 . S
C879 C881 1.392 . S
C879 C882 1.370 1_554 S
C880 C876 1.432 . S
C880 N878 1.332 1_556 S
C880 C883 1.414 . S
C881 H863 0.930 . S
C881 N878 1.347 . S
C881 C879 1.392 . S
C882 H877 0.930 . S
C882 C879 1.370 1_556 S
C882 C883 1.385 . S
C883 C880 1.414 . S
C883 C882 1.385 . S
C883 C905 1.444 . S
O884 Tb840 2.546 1_556 S
O884 C904 1.251 . S
O885 Tb840 2.610 . S
O885 Tb851 2.362 . S
O885 C896 1.283 . S
O886 Tb851 2.421 . S
O886 C903 1.262 1_554 S
O887 Tb840 2.320 1_556 S
O887 C903 1.260 . S
O888 Tb840 2.552 . S
O888 C896 1.243 . S
O889 Tb840 2.413 1_556 S
O889 C904 1.256 . S
O890 Tb851 2.546 . S
O890 C915 1.251 . S
O891 Tb840 2.362 . S
O891 Tb851 2.610 . S
O891 C907 1.283 . S
O892 Tb840 2.421 . S
O892 C914 1.262 . S
O893 Tb851 2.320 . S
O893 C914 1.260 . S
O894 Tb851 2.552 . S
O894 C907 1.243 . S
O895 Tb851 2.413 . S
O895 C915 1.256 . S
C896 O885 1.283 . S
C896 O888 1.243 . S
C897 C899 1.382 . S
C897 C901 1.393 . S
C897 C904 1.500 . S
C898 C899 1.400 . S
C898 C900 1.384 . S
C899 C897 1.382 . S
C899 C898 1.400 . S
C899 H916 0.930 . S
C900 C898 1.384 . S
C900 C902 1.392 . S
C900 H917 0.931 . S
C901 C897 1.393 . S
C901 C902 1.401 . S
C901 H918 0.930 . S
C902 C900 1.392 . S
C902 C901 1.401 . S
C902 H919 0.930 . S
C903 O886 1.262 1_556 S
C903 O887 1.260 . S
C904 Tb840 2.833 1_556 S
C904 O884 1.251 . S
C904 O889 1.256 . S
C904 C897 1.500 . S
C905 H870 0.929 . S
C905 C883 1.444 . S
C905 C906 1.317 . S
C906 H868 0.930 . S
C906 C874 1.432 . S
C906 C905 1.317 . S
C907 O891 1.283 . S
C907 O894 1.243 . S
C908 C909 1.382 . S
C908 C912 1.393 . S
C908 C915 1.500 . S
C909 C908 1.382 . S
C909 C910 1.400 . S
C909 H920 0.930 . S
C910 C909 1.400 . S
C910 C911 1.384 . S
C911 C910 1.384 . S
C911 C913 1.392 . S
C911 H921 0.931 . S
C912 C908 1.393 . S
C912 C913 1.401 . S
C912 H922 0.930 . S
C913 C911 1.392 . S
C913 C912 1.401 . S
C913 H923 0.930 . S
C914 O892 1.262 . S
C914 O893 1.260 . S
C915 Tb851 2.833 . S
C915 O890 1.251 . S
C915 O895 1.256 . S
C915 C908 1.500 . S
H916 C899 0.930 . S
H917 C900 0.931 . S
H918 C901 0.930 . S
H919 C902 0.930 . S
H920 C909 0.930 . S
H921 C911 0.931 . S
H922 C912 0.930 . S
H923 C913 0.930 . S
Tb924 N955 2.660 . S
Tb924 N962 2.600 . S
Tb924 O968 2.546 . S
Tb924 O969 2.610 . S
Tb924 O971 2.320 . S
Tb924 O972 2.552 . S
Tb924 O973 2.413 . S
Tb924 O975 2.362 . S
Tb924 O976 2.421 . S
Tb924 C988 2.833 . S
C925 C928 1.432 . S
C925 C929 1.414 . S
C925 N932 1.359 . S
C926 C928 1.417 . S
C926 C930 1.432 . S
C926 C938 1.410 . S
C927 C929 1.444 . S
C927 C930 1.317 . S
C927 H950 0.929 . S
C928 C925 1.432 . S
C928 C926 1.417 . S
C928 N936 1.360 . S
C929 C925 1.414 . S
C929 C927 1.444 . S
C929 C934 1.385 . S
C930 C926 1.432 . S
C930 C927 1.317 . S
C930 H942 0.930 . S
C931 C933 1.392 . S
C931 C934 1.370 . S
C931 H943 0.931 . S
N932 C925 1.359 . S
N932 C933 1.327 . S
N932 Tb935 2.600 . S
C933 C931 1.392 . S
C933 N932 1.327 . S
C933 H940 0.930 . S
C934 C929 1.385 . S
C934 C931 1.370 . S
C934 H953 0.930 . S
Tb935 N932 2.600 . S
Tb935 N936 2.660 . S
Tb935 O969 2.362 . S
Tb935 O970 2.421 . S
Tb935 O974 2.546 . S
Tb935 O975 2.610 . S
Tb935 O977 2.320 . S
Tb935 O978 2.552 . S
Tb935 O979 2.413 . S
Tb935 C999 2.833 . S
N936 C928 1.360 . S
N936 Tb935 2.660 . S
N936 C937 1.305 . S
C937 N936 1.305 . S
C937 C939 1.407 . S
C937 H944 0.930 . S
C938 C926 1.410 . S
C938 C939 1.345 . S
C938 H946 0.930 . S
C939 C937 1.407 . S
C939 C938 1.345 . S
C939 H941 0.930 . S
H940 C933 0.930 . S
H941 C939 0.930 . S
H942 C930 0.930 . S
H943 C931 0.931 . S
H944 C937 0.930 . S
H945 C959 0.930 . S
H946 C938 0.930 . S
H947 C965 0.930 . S
H948 C956 0.930 . S
H949 C963 0.931 . S
H950 C927 0.929 . S
H951 C957 0.930 . S
H952 C990 0.930 . S
H953 C934 0.930 . S
H954 C989 0.929 . S
N955 Tb924 2.660 . S
N955 C956 1.305 . S
N955 C960 1.360 . S
C956 H948 0.930 . S
C956 N955 1.305 . S
C956 C959 1.407 . S
C957 H951 0.930 . S
C957 C958 1.410 . S
C957 C959 1.345 . S
C958 C957 1.410 . S
C958 C960 1.417 . S
C958 C990 1.432 . S
C959 H945 0.930 . S
C959 C956 1.407 . S
C959 C957 1.345 . S
C960 N955 1.360 . S
C960 C958 1.417 . S
C960 C964 1.432 . S
H961 C966 0.930 . S
N962 Tb924 2.600 . S
N962 C964 1.359 . S
N962 C965 1.327 . S
C963 H949 0.931 . S
C963 C965 1.392 . S
C963 C966 1.370 . S
C964 C960 1.432 . S
C964 N962 1.359 . S
C964 C967 1.414 . S
C965 H947 0.930 . S
C965 N962 1.327 . S
C965 C963 1.392 . S
C966 H961 0.930 . S
C966 C963 1.370 . S
C966 C967 1.385 . S
C967 C964 1.414 . S
C967 C966 1.385 . S
C967 C989 1.444 . S
O968 Tb924 2.546 . S
O968 C988 1.251 . S
O969 Tb924 2.610 . S
O969 Tb935 2.362 . S
O969 C980 1.283 . S
O970 Tb935 2.421 . S
O970 C987 1.262 . S
O971 Tb924 2.320 . S
O971 C987 1.260 . S
O972 Tb924 2.552 . S
O972 C980 1.243 . S
O973 Tb924 2.413 . S
O973 C988 1.256 . S
O974 Tb935 2.546 . S
O974 C999 1.251 . S
O975 Tb924 2.362 . S
O975 Tb935 2.610 . S
O975 C991 1.283 . S
O976 Tb924 2.421 . S
O976 C998 1.262 . S
O977 Tb935 2.320 . S
O977 C998 1.260 . S
O978 Tb935 2.552 . S
O978 C991 1.243 . S
O979 Tb935 2.413 . S
O979 C999 1.256 . S
C980 O969 1.283 . S
C980 O972 1.243 . S
C981 C983 1.382 . S
C981 C985 1.393 . S
C981 C988 1.500 . S
C982 C983 1.400 . S
C982 C984 1.384 . S
C983 C981 1.382 . S
C983 C982 1.400 . S
C983 H1000 0.930 . S
C984 C982 1.384 . S
C984 C986 1.392 . S
C984 H1001 0.931 . S
C985 C981 1.393 . S
C985 C986 1.401 . S
C985 H1002 0.930 . S
C986 C984 1.392 . S
C986 C985 1.401 . S
C986 H1003 0.930 . S
C987 O970 1.262 . S
C987 O971 1.260 . S
C988 Tb924 2.833 . S
C988 O968 1.251 . S
C988 O973 1.256 . S
C988 C981 1.500 . S
C989 H954 0.929 . S
C989 C967 1.444 . S
C989 C990 1.317 . S
C990 H952 0.930 . S
C990 C958 1.432 . S
C990 C989 1.317 . S
C991 O975 1.283 . S
C991 O978 1.243 . S
C992 C993 1.382 . S
C992 C996 1.393 . S
C992 C999 1.500 . S
C993 C992 1.382 . S
C993 C994 1.400 . S
C993 H1004 0.930 . S
C994 C993 1.400 . S
C994 C995 1.384 . S
C995 C994 1.384 . S
C995 C997 1.392 . S
C995 H1005 0.931 . S
C996 C992 1.393 . S
C996 C997 1.401 . S
C996 H1006 0.930 . S
C997 C995 1.392 . S
C997 C996 1.401 . S
C997 H1007 0.930 . S
C998 O976 1.262 . S
C998 O977 1.260 . S
C999 Tb935 2.833 . S
C999 O974 1.251 . S
C999 O979 1.256 . S
C999 C992 1.500 . S
H1000 C983 0.930 . S
H1001 C984 0.931 . S
H1002 C985 0.930 . S
H1003 C986 0.930 . S
H1004 C993 0.930 . S
H1005 C995 0.931 . S
H1006 C996 0.930 . S
H1007 C997 0.930 . S
Tb1008 N1039 2.660 . S
Tb1008 N1046 2.600 . S
Tb1008 O1052 2.546 . S
Tb1008 O1053 2.610 . S
Tb1008 O1055 2.320 . S
Tb1008 O1056 2.552 . S
Tb1008 O1057 2.413 . S
Tb1008 O1059 2.362 . S
Tb1008 O1060 2.421 . S
Tb1008 C1072 2.833 . S
C1009 C1012 1.432 . S
C1009 C1013 1.414 . S
C1009 N1016 1.359 . S
C1010 C1012 1.417 . S
C1010 C1014 1.432 . S
C1010 C1022 1.410 . S
C1011 C1013 1.444 . S
C1011 C1014 1.317 . S
C1011 H1034 0.929 . S
C1012 C1009 1.432 . S
C1012 C1010 1.417 . S
C1012 N1020 1.360 . S
C1013 C1009 1.414 . S
C1013 C1011 1.444 . S
C1013 C1018 1.385 . S
C1014 C1010 1.432 . S
C1014 C1011 1.317 . S
C1014 H1026 0.930 . S
C1015 C1017 1.392 . S
C1015 C1018 1.370 . S
C1015 H1027 0.931 . S
N1016 C1009 1.359 . S
N1016 C1017 1.327 . S
N1016 Tb1019 2.600 . S
C1017 C1015 1.392 . S
C1017 N1016 1.327 . S
C1017 H1024 0.930 . S
C1018 C1013 1.385 . S
C1018 C1015 1.370 . S
C1018 H1037 0.930 . S
Tb1019 N1016 2.600 . S
Tb1019 N1020 2.660 . S
Tb1019 O1053 2.362 . S
Tb1019 O1054 2.421 . S
Tb1019 O1058 2.546 . S
Tb1019 O1059 2.610 . S
Tb1019 O1061 2.320 . S
Tb1019 O1062 2.552 . S
Tb1019 O1063 2.413 . S
Tb1019 C1083 2.833 . S
N1020 C1012 1.360 . S
N1020 Tb1019 2.660 . S
N1020 C1021 1.305 . S
C1021 N1020 1.305 . S
C1021 C1023 1.407 . S
C1021 H1028 0.930 . S
C1022 C1010 1.410 . S
C1022 C1023 1.345 . S
C1022 H1030 0.930 . S
C1023 C1021 1.407 . S
C1023 C1022 1.345 . S
C1023 H1025 0.930 . S
H1024 C1017 0.930 . S
H1025 C1023 0.930 . S
H1026 C1014 0.930 . S
H1027 C1015 0.931 . S
H1028 C1021 0.930 . S
H1029 C1043 0.930 . S
H1030 C1022 0.930 . S
H1031 C1049 0.930 . S
H1032 C1040 0.930 . S
H1033 C1047 0.931 . S
H1034 C1011 0.929 . S
H1035 C1041 0.930 . S
H1036 C1074 0.930 . S
H1037 C1018 0.930 . S
H1038 C1073 0.929 . S
N1039 Tb1008 2.660 . S
N1039 C1040 1.305 . S
N1039 C1044 1.360 . S
C1040 H1032 0.930 . S
C1040 N1039 1.305 . S
C1040 C1043 1.407 . S
C1041 H1035 0.930 . S
C1041 C1042 1.410 . S
C1041 C1043 1.345 . S
C1042 C1041 1.410 . S
C1042 C1044 1.417 . S
C1042 C1074 1.432 . S
C1043 H1029 0.930 . S
C1043 C1040 1.407 . S
C1043 C1041 1.345 . S
C1044 N1039 1.360 . S
C1044 C1042 1.417 . S
C1044 C1048 1.432 . S
H1045 C1050 0.930 . S
N1046 Tb1008 2.600 . S
N1046 C1048 1.359 . S
N1046 C1049 1.327 . S
C1047 H1033 0.931 . S
C1047 C1049 1.392 . S
C1047 C1050 1.370 . S
C1048 C1044 1.432 . S
C1048 N1046 1.359 . S
C1048 C1051 1.414 . S
C1049 H1031 0.930 . S
C1049 N1046 1.327 . S
C1049 C1047 1.392 . S
C1050 H1045 0.930 . S
C1050 C1047 1.370 . S
C1050 C1051 1.385 . S
C1051 C1048 1.414 . S
C1051 C1050 1.385 . S
C1051 C1073 1.444 . S
O1052 Tb1008 2.546 . S
O1052 C1072 1.251 . S
O1053 Tb1008 2.610 . S
O1053 Tb1019 2.362 . S
O1053 C1064 1.283 . S
O1054 Tb1019 2.421 . S
O1054 C1071 1.262 . S
O1055 Tb1008 2.320 . S
O1055 C1071 1.260 . S
O1056 Tb1008 2.552 . S
O1056 C1064 1.243 . S
O1057 Tb1008 2.413 . S
O1057 C1072 1.256 . S
O1058 Tb1019 2.546 . S
O1058 C1083 1.251 . S
O1059 Tb1008 2.362 . S
O1059 Tb1019 2.610 . S
O1059 C1075 1.283 . S
O1060 Tb1008 2.421 . S
O1060 C1082 1.262 . S
O1061 Tb1019 2.320 . S
O1061 C1082 1.260 . S
O1062 Tb1019 2.552 . S
O1062 C1075 1.243 . S
O1063 Tb1019 2.413 . S
O1063 C1083 1.256 . S
C1064 O1053 1.283 . S
C1064 O1056 1.243 . S
C1065 C1067 1.382 . S
C1065 C1069 1.393 . S
C1065 C1072 1.500 . S
C1066 C1067 1.400 . S
C1066 C1068 1.384 . S
C1067 C1065 1.382 . S
C1067 C1066 1.400 . S
C1067 H1084 0.930 . S
C1068 C1066 1.384 . S
C1068 C1070 1.392 . S
C1068 H1085 0.931 . S
C1069 C1065 1.393 . S
C1069 C1070 1.401 . S
C1069 H1086 0.930 . S
C1070 C1068 1.392 . S
C1070 C1069 1.401 . S
C1070 H1087 0.930 . S
C1071 O1054 1.262 . S
C1071 O1055 1.260 . S
C1072 Tb1008 2.833 . S
C1072 O1052 1.251 . S
C1072 O1057 1.256 . S
C1072 C1065 1.500 . S
C1073 H1038 0.929 . S
C1073 C1051 1.444 . S
C1073 C1074 1.317 . S
C1074 H1036 0.930 . S
C1074 C1042 1.432 . S
C1074 C1073 1.317 . S
C1075 O1059 1.283 . S
C1075 O1062 1.243 . S
C1076 C1077 1.382 . S
C1076 C1080 1.393 . S
C1076 C1083 1.500 . S
C1077 C1076 1.382 . S
C1077 C1078 1.400 . S
C1077 H1088 0.930 . S
C1078 C1077 1.400 . S
C1078 C1079 1.384 . S
C1079 C1078 1.384 . S
C1079 C1081 1.392 . S
C1079 H1089 0.911 1_455 S
C1080 C1076 1.393 . S
C1080 C1081 1.401 . S
C1080 H1090 0.930 . S
C1081 C1079 1.392 . S
C1081 C1080 1.401 . S
C1081 H1091 0.930 . S
C1082 O1060 1.262 . S
C1082 O1061 1.260 . S
C1083 Tb1019 2.833 . S
C1083 O1058 1.251 . S
C1083 O1063 1.256 . S
C1083 C1076 1.500 . S
H1084 C1067 0.930 . S
H1085 C1068 0.931 . S
H1086 C1069 0.930 . S
H1087 C1070 0.930 . S
H1088 C1077 0.930 . S
H1089 C1079 0.911 1_655 S
H1090 C1080 0.930 . S
H1091 C1081 0.930 . S
Tb1092 N1123 2.660 . S
Tb1092 N1130 2.600 . S
Tb1092 O1136 2.546 . S
Tb1092 O1137 2.610 . S
Tb1092 O1139 2.320 . S
Tb1092 O1140 2.552 . S
Tb1092 O1141 2.413 . S
Tb1092 O1143 2.362 . S
Tb1092 O1144 2.421 . S
Tb1092 C1156 2.833 . S
C1093 C1096 1.432 . S
C1093 C1097 1.414 . S
C1093 N1100 1.359 . S
C1094 C1096 1.417 . S
C1094 C1098 1.432 . S
C1094 C1106 1.410 . S
C1095 C1097 1.444 . S
C1095 C1098 1.317 . S
C1095 H1118 0.929 . S
C1096 C1093 1.432 . S
C1096 C1094 1.417 . S
C1096 N1104 1.360 . S
C1097 C1093 1.414 . S
C1097 C1095 1.444 . S
C1097 C1102 1.385 . S
C1098 C1094 1.432 . S
C1098 C1095 1.317 . S
C1098 H1110 0.930 . S
C1099 C1101 1.392 . S
C1099 C1102 1.370 . S
C1099 H1111 0.931 . S
N1100 C1093 1.359 . S
N1100 C1101 1.327 . S
N1100 Tb1103 2.600 . S
C1101 C1099 1.392 . S
C1101 N1100 1.327 . S
C1101 H1108 0.930 . S
C1102 C1097 1.385 . S
C1102 C1099 1.370 . S
C1102 H1121 0.930 . S
Tb1103 N1100 2.600 . S
Tb1103 N1104 2.660 . S
Tb1103 O1137 2.362 . S
Tb1103 O1138 2.421 . S
Tb1103 O1142 2.546 . S
Tb1103 O1143 2.610 . S
Tb1103 O1145 2.320 . S
Tb1103 O1146 2.552 . S
Tb1103 O1147 2.413 . S
Tb1103 C1167 2.833 . S
N1104 C1096 1.360 . S
N1104 Tb1103 2.660 . S
N1104 C1105 1.305 . S
C1105 N1104 1.305 . S
C1105 C1107 1.407 . S
C1105 H1112 0.930 . S
C1106 C1094 1.410 . S
C1106 C1107 1.345 . S
C1106 H1114 0.930 . S
C1107 C1105 1.407 . S
C1107 C1106 1.345 . S
C1107 H1109 0.930 . S
H1108 C1101 0.930 . S
H1109 C1107 0.930 . S
H1110 C1098 0.930 . S
H1111 C1099 0.931 . S
H1112 C1105 0.930 . S
H1113 C1127 0.930 . S
H1114 C1106 0.930 . S
H1115 C1133 0.930 1_655 S
H1116 C1124 0.930 . S
H1117 C1131 0.931 . S
H1118 C1095 0.929 . S
H1119 C1125 0.930 . S
H1120 C1158 0.936 . S
H1121 C1102 0.930 . S
H1122 C1157 0.929 . S
N1123 Tb1092 2.660 . S
N1123 C1124 1.305 . S
N1123 C1128 1.360 . S
C1124 H1116 0.930 . S
C1124 N1123 1.305 . S
C1124 C1127 1.407 . S
C1125 H1119 0.930 . S
C1125 C1126 1.410 . S
C1125 C1127 1.345 . S
C1126 C1125 1.410 . S
C1126 C1128 1.417 . S
C1126 C1158 1.406 1_655 S
C1127 H1113 0.930 . S
C1127 C1124 1.407 . S
C1127 C1125 1.345 . S
C1128 N1123 1.360 . S
C1128 C1126 1.417 . S
C1128 C1132 1.432 . S
H1129 C1134 0.930 . S
N1130 Tb1092 2.600 . S
N1130 C1132 1.359 . S
N1130 C1133 1.327 1_655 S
C1131 H1117 0.931 . S
C1131 C1133 1.392 . S
C1131 C1134 1.370 . S
C1132 C1128 1.432 . S
C1132 N1130 1.359 . S
C1132 C1135 1.414 1_655 S
C1133 H1115 0.930 1_455 S
C1133 N1130 1.327 1_455 S
C1133 C1131 1.392 . S
C1134 H1129 0.930 . S
C1134 C1131 1.370 . S
C1134 C1135 1.385 . S
C1135 C1132 1.414 1_455 S
C1135 C1134 1.385 . S
C1135 C1157 1.444 . S
O1136 Tb1092 2.546 . S
O1136 C1156 1.251 . S
O1137 Tb1092 2.610 . S
O1137 Tb1103 2.362 . S
O1137 C1148 1.283 . S
O1138 Tb1103 2.421 . S
O1138 C1155 1.262 . S
O1139 Tb1092 2.320 . S
O1139 C1155 1.260 . S
O1140 Tb1092 2.552 . S
O1140 C1148 1.243 . S
O1141 Tb1092 2.413 . S
O1141 C1156 1.256 . S
O1142 Tb1103 2.546 . S
O1142 C1167 1.251 . S
O1143 Tb1092 2.362 . S
O1143 Tb1103 2.610 . S
O1143 C1159 1.283 . S
O1144 Tb1092 2.421 . S
O1144 C1166 1.262 . S
O1145 Tb1103 2.320 . S
O1145 C1166 1.260 . S
O1146 Tb1103 2.552 . S
O1146 C1159 1.243 . S
O1147 Tb1103 2.413 . S
O1147 C1167 1.256 . S
C1148 O1137 1.283 . S
C1148 O1140 1.243 . S
C1149 C1151 1.382 . S
C1149 C1153 1.393 . S
C1149 C1156 1.500 . S
C1150 C1151 1.400 . S
C1150 C1152 1.384 . S
C1151 C1149 1.382 . S
C1151 C1150 1.400 . S
C1151 H1168 0.930 . S
C1152 C1150 1.384 . S
C1152 C1154 1.392 . S
C1152 H1169 0.931 . S
C1153 C1149 1.393 . S
C1153 C1154 1.401 . S
C1153 H1170 0.930 . S
C1154 C1152 1.392 . S
C1154 C1153 1.401 . S
C1154 H1171 0.930 1_655 S
C1155 O1138 1.262 . S
C1155 O1139 1.260 . S
C1156 Tb1092 2.833 . S
C1156 O1136 1.251 . S
C1156 O1141 1.256 . S
C1156 C1149 1.500 . S
C1157 H1122 0.929 . S
C1157 C1135 1.444 . S
C1157 C1158 1.338 . S
C1158 H1120 0.936 . S
C1158 C1126 1.406 1_455 S
C1158 C1157 1.338 . S
C1159 O1143 1.283 . S
C1159 O1146 1.243 . S
C1160 C1161 1.382 . S
C1160 C1164 1.393 . S
C1160 C1167 1.500 . S
C1161 C1160 1.382 . S
C1161 C1162 1.400 . S
C1161 H1172 0.930 . S
C1162 C1161 1.400 . S
C1162 C1163 1.384 . S
C1163 C1162 1.384 . S
C1163 C1165 1.392 . S
C1163 H1173 0.931 . S
C1164 C1160 1.393 . S
C1164 C1165 1.401 . S
C1164 H1174 0.930 . S
C1165 C1163 1.392 . S
C1165 C1164 1.401 . S
C1165 H1175 0.930 . S
C1166 O1144 1.262 . S
C1166 O1145 1.260 . S
C1167 Tb1103 2.833 . S
C1167 O1142 1.251 . S
C1167 O1147 1.256 . S
C1167 C1160 1.500 . S
H1168 C1151 0.930 . S
H1169 C1152 0.931 . S
H1170 C1153 0.930 . S
H1171 C1154 0.930 1_455 S
H1172 C1161 0.930 . S
H1173 C1163 0.931 . S
H1174 C1164 0.930 . S
H1175 C1165 0.930 . S
Tb1176 N1207 2.660 . S
Tb1176 N1214 2.600 . S
Tb1176 O1220 2.546 . S
Tb1176 O1221 2.610 . S
Tb1176 O1223 2.320 . S
Tb1176 O1224 2.552 . S
Tb1176 O1225 2.413 . S
Tb1176 O1227 2.362 . S
Tb1176 O1228 2.421 . S
Tb1176 C1240 2.833 . S
C1177 C1180 1.432 . S
C1177 C1181 1.414 . S
C1177 N1184 1.332 1_554 S
C1178 C1180 1.417 . S
C1178 C1182 1.432 . S
C1178 C1190 1.410 . S
C1179 C1181 1.444 . S
C1179 C1182 1.317 . S
C1179 H1202 0.929 . S
C1180 C1177 1.432 . S
C1180 C1178 1.417 . S
C1180 N1188 1.360 . S
C1181 C1177 1.414 . S
C1181 C1179 1.444 . S
C1181 C1186 1.385 . S
C1182 C1178 1.432 . S
C1182 C1179 1.317 . S
C1182 H1194 0.930 . S
C1183 C1185 1.392 . S
C1183 C1186 1.370 1_556 S
C1183 H1195 0.931 . S
N1184 C1177 1.332 1_556 S
N1184 C1185 1.347 . S
N1184 Tb1187 2.606 . S
C1185 C1183 1.392 . S
C1185 N1184 1.347 . S
C1185 H1192 0.930 . S
C1186 C1181 1.385 . S
C1186 C1183 1.370 1_554 S
C1186 H1205 0.930 . S
Tb1187 N1184 2.606 . S
Tb1187 N1188 2.660 1_556 S
Tb1187 O1221 2.362 . S
Tb1187 O1222 2.421 . S
Tb1187 O1226 2.546 1_556 S
Tb1187 O1227 2.610 . S
Tb1187 O1229 2.320 1_556 S
Tb1187 O1230 2.552 . S
Tb1187 O1231 2.413 1_556 S
Tb1187 C1251 2.833 1_556 S
N1188 C1180 1.360 . S
N1188 Tb1187 2.660 1_554 S
N1188 C1189 1.305 . S
C1189 N1188 1.305 . S
C1189 C1191 1.407 . S
C1189 H1196 0.930 . S
C1190 C1178 1.410 . S
C1190 C1191 1.345 . S
C1190 H1198 0.930 . S
C1191 C1189 1.407 . S
C1191 C1190 1.345 . S
C1191 H1193 0.930 . S
H1192 C1185 0.930 . S
H1193 C1191 0.930 . S
H1194 C1182 0.930 . S
H1195 C1183 0.931 . S
H1196 C1189 0.930 . S
H1197 C1211 0.930 . S
H1198 C1190 0.930 . S
H1199 C1217 0.930 . S
H1200 C1208 0.930 . S
H1201 C1215 0.931 . S
H1202 C1179 0.929 . S
H1203 C1209 0.930 . S
H1204 C1242 0.930 . S
H1205 C1186 0.930 . S
H1206 C1241 0.929 . S
N1207 Tb1176 2.660 . S
N1207 C1208 1.305 . S
N1207 C1212 1.360 . S
C1208 H1200 0.930 . S
C1208 N1207 1.305 . S
C1208 C1211 1.407 . S
C1209 H1203 0.930 . S
C1209 C1210 1.410 . S
C1209 C1211 1.345 . S
C1210 C1209 1.410 . S
C1210 C1212 1.417 . S
C1210 C1242 1.432 . S
C1211 H1197 0.930 . S
C1211 C1208 1.407 . S
C1211 C1209 1.345 . S
C1212 N1207 1.360 . S
C1212 C1210 1.417 . S
C1212 C1216 1.432 . S
H1213 C1218 0.930 . S
N1214 Tb1176 2.600 . S
N1214 C1216 1.359 . S
N1214 C1217 1.327 . S
C1215 H1201 0.931 . S
C1215 C1217 1.392 . S
C1215 C1218 1.370 . S
C1216 C1212 1.432 . S
C1216 N1214 1.359 . S
C1216 C1219 1.414 . S
C1217 H1199 0.930 . S
C1217 N1214 1.327 . S
C1217 C1215 1.392 . S
C1218 H1213 0.930 . S
C1218 C1215 1.370 . S
C1218 C1219 1.385 . S
C1219 C1216 1.414 . S
C1219 C1218 1.385 . S
C1219 C1241 1.444 . S
O1220 Tb1176 2.546 . S
O1220 C1240 1.251 . S
O1221 Tb1176 2.610 . S
O1221 Tb1187 2.362 . S
O1221 C1232 1.283 . S
O1222 Tb1187 2.421 . S
O1222 C1239 1.262 . S
O1223 Tb1176 2.320 . S
O1223 C1239 1.260 . S
O1224 Tb1176 2.552 . S
O1224 C1232 1.243 . S
O1225 Tb1176 2.413 . S
O1225 C1240 1.256 . S
O1226 Tb1187 2.546 1_554 S
O1226 C1251 1.251 . S
O1227 Tb1176 2.362 . S
O1227 Tb1187 2.610 . S
O1227 C1243 1.283 . S
O1228 Tb1176 2.421 . S
O1228 C1250 1.262 1_556 S
O1229 Tb1187 2.320 1_554 S
O1229 C1250 1.260 . S
O1230 Tb1187 2.552 . S
O1230 C1243 1.243 . S
O1231 Tb1187 2.413 1_554 S
O1231 C1251 1.256 . S
C1232 O1221 1.283 . S
C1232 O1224 1.243 . S
C1233 C1235 1.382 . S
C1233 C1237 1.393 . S
C1233 C1240 1.500 . S
C1234 C1235 1.400 . S
C1234 C1236 1.384 . S
C1235 C1233 1.382 . S
C1235 C1234 1.400 . S
C1235 H1252 0.930 . S
C1236 C1234 1.384 . S
C1236 C1238 1.392 . S
C1236 H1253 0.931 . S
C1237 C1233 1.393 . S
C1237 C1238 1.401 . S
C1237 H1254 0.930 . S
C1238 C1236 1.392 . S
C1238 C1237 1.401 . S
C1238 H1255 0.930 . S
C1239 O1222 1.262 . S
C1239 O1223 1.260 . S
C1240 Tb1176 2.833 . S
C1240 O1220 1.251 . S
C1240 O1225 1.256 . S
C1240 C1233 1.500 . S
C1241 H1206 0.929 . S
C1241 C1219 1.444 . S
C1241 C1242 1.317 . S
C1242 H1204 0.930 . S
C1242 C1210 1.432 . S
C1242 C1241 1.317 . S
C1243 O1227 1.283 . S
C1243 O1230 1.243 . S
C1244 C1245 1.382 . S
C1244 C1248 1.393 . S
C1244 C1251 1.500 . S
C1245 C1244 1.382 . S
C1245 C1246 1.400 . S
C1245 H1256 0.930 . S
C1246 C1245 1.400 . S
C1246 C1247 1.384 . S
C1247 C1246 1.384 . S
C1247 C1249 1.392 . S
C1247 H1257 0.931 . S
C1248 C1244 1.393 . S
C1248 C1249 1.401 . S
C1248 H1258 0.930 . S
C1249 C1247 1.392 . S
C1249 C1248 1.401 . S
C1249 H1259 0.930 . S
C1250 O1228 1.262 1_554 S
C1250 O1229 1.260 . S
C1251 Tb1187 2.833 1_554 S
C1251 O1226 1.251 . S
C1251 O1231 1.256 . S
C1251 C1244 1.500 . S
H1252 C1235 0.930 . S
H1253 C1236 0.931 . S
H1254 C1237 0.930 . S
H1255 C1238 0.930 . S
H1256 C1245 0.930 . S
H1257 C1247 0.931 . S
H1258 C1248 0.930 . S
H1259 C1249 0.930 . S
Tb1260 N1291 2.660 . S
Tb1260 N1298 2.600 . S
Tb1260 O1304 2.546 . S
Tb1260 O1305 2.610 . S
Tb1260 O1307 2.320 . S
Tb1260 O1308 2.552 . S
Tb1260 O1309 2.413 . S
Tb1260 O1311 2.362 . S
Tb1260 O1312 2.421 . S
Tb1260 C1324 2.833 . S
C1261 C1264 1.432 . S
C1261 C1265 1.414 . S
C1261 N1268 1.359 . S
C1262 C1264 1.417 . S
C1262 C1266 1.432 . S
C1262 C1274 1.410 . S
C1263 C1265 1.444 . S
C1263 C1266 1.317 . S
C1263 H1286 0.929 . S
C1264 C1261 1.432 . S
C1264 C1262 1.417 . S
C1264 N1272 1.360 . S
C1265 C1261 1.414 . S
C1265 C1263 1.444 . S
C1265 C1270 1.385 . S
C1266 C1262 1.432 . S
C1266 C1263 1.317 . S
C1266 H1278 0.930 . S
C1267 C1269 1.392 . S
C1267 C1270 1.370 . S
C1267 H1279 0.931 . S
N1268 C1261 1.359 . S
N1268 C1269 1.327 . S
N1268 Tb1271 2.600 . S
C1269 C1267 1.392 . S
C1269 N1268 1.327 . S
C1269 H1276 0.930 . S
C1270 C1265 1.385 . S
C1270 C1267 1.370 . S
C1270 H1289 0.930 . S
Tb1271 N1268 2.600 . S
Tb1271 N1272 2.660 . S
Tb1271 O1305 2.362 . S
Tb1271 O1306 2.421 . S
Tb1271 O1310 2.546 . S
Tb1271 O1311 2.610 . S
Tb1271 O1313 2.320 . S
Tb1271 O1314 2.552 . S
Tb1271 O1315 2.413 . S
Tb1271 C1335 2.833 . S
N1272 C1264 1.360 . S
N1272 Tb1271 2.660 . S
N1272 C1273 1.305 . S
C1273 N1272 1.305 . S
C1273 C1275 1.407 . S
C1273 H1280 0.930 . S
C1274 C1262 1.410 . S
C1274 C1275 1.345 . S
C1274 H1282 0.930 . S
C1275 C1273 1.407 . S
C1275 C1274 1.345 . S
C1275 H1277 0.930 . S
H1276 C1269 0.930 . S
H1277 C1275 0.930 . S
H1278 C1266 0.930 . S
H1279 C1267 0.931 . S
H1280 C1273 0.930 . S
H1281 C1295 0.930 . S
H1282 C1274 0.930 . S
H1283 C1301 0.930 . S
H1284 C1292 0.930 . S
H1285 C1299 0.931 . S
H1286 C1263 0.929 . S
H1287 C1293 0.930 . S
H1288 C1326 0.930 . S
H1289 C1270 0.930 . S
H1290 C1325 0.929 . S
N1291 Tb1260 2.660 . S
N1291 C1292 1.305 . S
N1291 C1296 1.360 . S
C1292 H1284 0.930 . S
C1292 N1291 1.305 . S
C1292 C1295 1.407 . S
C1293 H1287 0.930 . S
C1293 C1294 1.410 . S
C1293 C1295 1.345 . S
C1294 C1293 1.410 . S
C1294 C1296 1.417 . S
C1294 C1326 1.432 . S
C1295 H1281 0.930 . S
C1295 C1292 1.407 . S
C1295 C1293 1.345 . S
C1296 N1291 1.360 . S
C1296 C1294 1.417 . S
C1296 C1300 1.432 . S
H1297 C1302 0.930 . S
N1298 Tb1260 2.600 . S
N1298 C1300 1.359 . S
N1298 C1301 1.327 . S
C1299 H1285 0.931 . S
C1299 C1301 1.392 . S
C1299 C1302 1.370 . S
C1300 C1296 1.432 . S
C1300 N1298 1.359 . S
C1300 C1303 1.414 . S
C1301 H1283 0.930 . S
C1301 N1298 1.327 . S
C1301 C1299 1.392 . S
C1302 H1297 0.930 . S
C1302 C1299 1.370 . S
C1302 C1303 1.385 . S
C1303 C1300 1.414 . S
C1303 C1302 1.385 . S
C1303 C1325 1.444 . S
O1304 Tb1260 2.546 . S
O1304 C1324 1.251 . S
O1305 Tb1260 2.610 . S
O1305 Tb1271 2.362 . S
O1305 C1316 1.283 . S
O1306 Tb1271 2.421 . S
O1306 C1323 1.262 . S
O1307 Tb1260 2.320 . S
O1307 C1323 1.260 . S
O1308 Tb1260 2.552 . S
O1308 C1316 1.243 . S
O1309 Tb1260 2.413 . S
O1309 C1324 1.256 . S
O1310 Tb1271 2.546 . S
O1310 C1335 1.251 . S
O1311 Tb1260 2.362 . S
O1311 Tb1271 2.610 . S
O1311 C1327 1.283 . S
O1312 Tb1260 2.421 . S
O1312 C1334 1.262 . S
O1313 Tb1271 2.320 . S
O1313 C1334 1.260 . S
O1314 Tb1271 2.552 . S
O1314 C1327 1.243 . S
O1315 Tb1271 2.413 . S
O1315 C1335 1.256 . S
C1316 O1305 1.283 . S
C1316 O1308 1.243 . S
C1317 C1319 1.382 . S
C1317 C1321 1.393 . S
C1317 C1324 1.500 . S
C1318 C1319 1.400 . S
C1318 C1320 1.384 . S
C1319 C1317 1.382 . S
C1319 C1318 1.400 . S
C1319 H1336 0.930 . S
C1320 C1318 1.384 . S
C1320 C1322 1.392 . S
C1320 H1337 0.931 . S
C1321 C1317 1.393 . S
C1321 C1322 1.401 . S
C1321 H1338 0.930 . S
C1322 C1320 1.392 . S
C1322 C1321 1.401 . S
C1322 H1339 0.930 . S
C1323 O1306 1.262 . S
C1323 O1307 1.260 . S
C1324 Tb1260 2.833 . S
C1324 O1304 1.251 . S
C1324 O1309 1.256 . S
C1324 C1317 1.500 . S
C1325 H1290 0.929 . S
C1325 C1303 1.444 . S
C1325 C1326 1.317 . S
C1326 H1288 0.930 . S
C1326 C1294 1.432 . S
C1326 C1325 1.317 . S
C1327 O1311 1.283 . S
C1327 O1314 1.243 . S
C1328 C1329 1.382 . S
C1328 C1332 1.393 . S
C1328 C1335 1.500 . S
C1329 C1328 1.382 . S
C1329 C1330 1.400 . S
C1329 H1340 0.930 . S
C1330 C1329 1.400 . S
C1330 C1331 1.384 . S
C1331 C1330 1.384 . S
C1331 C1333 1.392 . S
C1331 H1341 0.931 . S
C1332 C1328 1.393 . S
C1332 C1333 1.401 . S
C1332 H1342 0.930 . S
C1333 C1331 1.392 . S
C1333 C1332 1.401 . S
C1333 H1343 0.930 . S
C1334 O1312 1.262 . S
C1334 O1313 1.260 . S
C1335 Tb1271 2.833 . S
C1335 O1310 1.251 . S
C1335 O1315 1.256 . S
C1335 C1328 1.500 . S
H1336 C1319 0.930 . S
H1337 C1320 0.931 . S
H1338 C1321 0.930 . S
H1339 C1322 0.930 . S
H1340 C1329 0.930 . S
H1341 C1331 0.931 . S
H1342 C1332 0.930 . S
H1343 C1333 0.930 . S
H1344 C1350 0.930 . S
H1345 C1354 0.930 . S
H1346 C1359 0.929 . S
H1347 C1357 0.929 . S
H1348 C1352 0.929 . S
H1349 C1358 0.929 . S
C1350 H1344 0.930 . S
C1350 C1351 1.367 . S
C1350 C1358 1.378 . S
C1351 C1350 1.367 . S
C1351 C1359 1.433 . S
C1352 H1348 0.929 . S
C1352 C1354 1.378 . S
C1352 C1356 1.350 . S
C1353 C1356 1.463 . S
C1353 C1358 1.350 . S
C1353 N1361 1.427 . S
C1354 H1345 0.930 . S
C1354 C1352 1.378 . S
C1354 C1355 1.367 . S
C1355 C1354 1.367 . S
C1355 C1357 1.433 . S
C1356 C1352 1.350 . S
C1356 C1353 1.463 . S
C1356 N1360 1.427 . S
C1357 H1347 0.929 . S
C1357 C1355 1.433 . S
C1357 N1360 1.384 . S
C1358 H1349 0.929 . S
C1358 C1350 1.378 . S
C1358 C1353 1.350 . S
C1359 H1346 0.929 . S
C1359 C1351 1.433 . S
C1359 N1361 1.384 . S
N1360 C1356 1.427 . S
N1360 C1357 1.384 . S
N1361 C1353 1.427 . S
N1361 C1359 1.384 . S
H1362 C1368 0.930 . S
H1363 C1372 0.930 . S
H1364 C1377 0.929 . S
H1365 C1375 0.929 . S
H1366 C1370 0.929 . S
H1367 C1376 0.929 . S
C1368 H1362 0.930 . S
C1368 C1369 1.367 . S
C1368 C1376 1.378 . S
C1369 C1368 1.367 . S
C1369 C1377 1.433 . S
C1370 H1366 0.929 . S
C1370 C1372 1.378 . S
C1370 C1374 1.350 . S
C1371 C1374 1.463 . S
C1371 C1376 1.350 . S
C1371 N1379 1.427 . S
C1372 H1363 0.930 . S
C1372 C1370 1.378 . S
C1372 C1373 1.367 . S
C1373 C1372 1.367 . S
C1373 C1375 1.433 . S
C1374 C1370 1.350 . S
C1374 C1371 1.463 . S
C1374 N1378 1.427 . S
C1375 H1365 0.929 . S
C1375 C1373 1.433 . S
C1375 N1378 1.384 . S
C1376 H1367 0.929 . S
C1376 C1368 1.378 . S
C1376 C1371 1.350 . S
C1377 H1364 0.929 . S
C1377 C1369 1.433 . S
C1377 N1379 1.384 . S
N1378 C1374 1.427 . S
N1378 C1375 1.384 . S
N1379 C1371 1.427 . S
N1379 C1377 1.384 . S
H1380 C1386 0.930 . S
H1381 C1390 0.930 . S
H1382 C1395 0.929 . S
H1383 C1393 0.929 . S
H1384 C1388 0.929 . S
H1385 C1394 0.929 . S
C1386 H1380 0.930 . S
C1386 C1387 1.367 . S
C1386 C1394 1.378 . S
C1387 C1386 1.367 . S
C1387 C1395 1.433 . S
C1388 H1384 0.929 . S
C1388 C1390 1.378 . S
C1388 C1392 1.350 . S
C1389 C1392 1.463 1_455 S
C1389 C1394 1.350 . S
C1389 N1397 1.427 . S
C1390 H1381 0.930 . S
C1390 C1388 1.378 . S
C1390 C1391 1.367 . S
C1391 C1390 1.367 . S
C1391 C1393 1.433 . S
C1392 C1388 1.350 . S
C1392 C1389 1.463 1_655 S
C1392 N1396 1.427 . S
C1393 H1383 0.929 . S
C1393 C1391 1.433 . S
C1393 N1396 1.384 . S
C1394 H1385 0.929 . S
C1394 C1386 1.378 . S
C1394 C1389 1.350 . S
C1395 H1382 0.929 . S
C1395 C1387 1.433 . S
C1395 N1397 1.384 . S
N1396 C1392 1.427 . S
N1396 C1393 1.384 . S
N1397 C1389 1.427 . S
N1397 C1395 1.384 . S
H1398 C1404 0.930 . S
H1399 C1408 0.930 . S
H1400 C1413 0.929 . S
H1401 C1411 0.929 . S
H1402 C1406 0.929 1_655 S
H1403 C1412 0.929 1_455 S
C1404 H1398 0.930 . S
C1404 C1405 1.367 . S
C1404 C1412 1.378 . S
C1405 C1404 1.367 . S
C1405 C1413 1.433 . S
C1406 H1402 0.929 1_455 S
C1406 C1408 1.378 . S
C1406 C1410 1.350 . S
C1407 C1410 1.463 1_655 S
C1407 C1412 1.350 . S
C1407 N1415 1.427 . S
C1408 H1399 0.930 . S
C1408 C1406 1.378 . S
C1408 C1409 1.367 . S
C1409 C1408 1.367 . S
C1409 C1411 1.433 . S
C1410 C1406 1.350 . S
C1410 C1407 1.463 1_455 S
C1410 N1414 1.427 . S
C1411 H1401 0.929 . S
C1411 C1409 1.433 . S
C1411 N1414 1.384 . S
C1412 H1403 0.929 1_655 S
C1412 C1404 1.378 . S
C1412 C1407 1.350 . S
C1413 H1400 0.929 . S
C1413 C1405 1.433 . S
C1413 N1415 1.384 . S
N1414 C1410 1.427 . S
N1414 C1411 1.384 . S
N1415 C1407 1.427 . S
N1415 C1413 1.384 . S
H1416 C1422 0.930 . S
H1417 C1426 0.930 . S
H1418 C1431 0.929 . S
H1419 C1429 0.929 . S
H1420 C1424 0.929 . S
H1421 C1430 0.929 . S
C1422 H1416 0.930 . S
C1422 C1423 1.367 . S
C1422 C1430 1.378 . S
C1423 C1422 1.367 . S
C1423 C1431 1.433 . S
C1424 H1420 0.929 . S
C1424 C1426 1.378 . S
C1424 C1428 1.350 . S
C1425 C1428 1.463 . S
C1425 C1430 1.350 . S
C1425 N1433 1.427 . S
C1426 H1417 0.930 . S
C1426 C1424 1.378 . S
C1426 C1427 1.367 . S
C1427 C1426 1.367 . S
C1427 C1429 1.433 . S
C1428 C1424 1.350 . S
C1428 C1425 1.463 . S
C1428 N1432 1.427 . S
C1429 H1419 0.929 . S
C1429 C1427 1.433 . S
C1429 N1432 1.384 . S
C1430 H1421 0.929 . S
C1430 C1422 1.378 . S
C1430 C1425 1.350 . S
C1431 H1418 0.929 . S
C1431 C1423 1.433 . S
C1431 N1433 1.384 . S
N1432 C1428 1.427 . S
N1432 C1429 1.384 . S
N1433 C1425 1.427 . S
N1433 C1431 1.384 . S
H1434 C1440 0.930 . S
H1435 C1444 0.930 . S
H1436 C1449 0.929 . S
H1437 C1447 0.929 . S
H1438 C1442 0.929 . S
H1439 C1448 0.929 . S
C1440 H1434 0.930 . S
C1440 C1441 1.367 . S
C1440 C1448 1.378 . S
C1441 C1440 1.367 . S
C1441 C1449 1.433 . S
C1442 H1438 0.929 . S
C1442 C1444 1.378 . S
C1442 C1446 1.350 . S
C1443 C1446 1.463 . S
C1443 C1448 1.350 . S
C1443 N1451 1.427 . S
C1444 H1435 0.930 . S
C1444 C1442 1.378 . S
C1444 C1445 1.367 . S
C1445 C1444 1.367 . S
C1445 C1447 1.433 . S
C1446 C1442 1.350 . S
C1446 C1443 1.463 . S
C1446 N1450 1.427 . S
C1447 H1437 0.929 . S
C1447 C1445 1.433 . S
C1447 N1450 1.384 . S
C1448 H1439 0.929 . S
C1448 C1440 1.378 . S
C1448 C1443 1.350 . S
C1449 H1436 0.929 . S
C1449 C1441 1.433 . S
C1449 N1451 1.384 . S
N1450 C1446 1.427 . S
N1450 C1447 1.384 . S
N1451 C1443 1.427 . S
N1451 C1449 1.384 . S
H1452 C1458 0.930 . S
H1453 C1462 0.930 . S
H1454 C1467 0.929 . S
H1455 C1465 0.929 . S
H1456 C1460 0.929 . S
H1457 C1466 0.929 . S
C1458 H1452 0.930 . S
C1458 C1459 1.367 . S
C1458 C1466 1.378 . S
C1459 C1458 1.367 . S
C1459 C1467 1.433 . S
C1460 H1456 0.929 . S
C1460 C1462 1.378 . S
C1460 C1464 1.350 . S
C1461 C1464 1.463 1_655 S
C1461 C1466 1.350 . S
C1461 N1469 1.427 . S
C1462 H1453 0.930 . S
C1462 C1460 1.378 . S
C1462 C1463 1.367 . S
C1463 C1462 1.367 . S
C1463 C1465 1.433 . S
C1464 C1460 1.350 . S
C1464 C1461 1.463 1_455 S
C1464 N1468 1.427 . S
C1465 H1455 0.929 . S
C1465 C1463 1.433 . S
C1465 N1468 1.384 . S
C1466 H1457 0.929 . S
C1466 C1458 1.378 . S
C1466 C1461 1.350 . S
C1467 H1454 0.929 . S
C1467 C1459 1.433 . S
C1467 N1469 1.384 . S
N1468 C1464 1.427 . S
N1468 C1465 1.384 . S
N1469 C1461 1.427 . S
N1469 C1467 1.384 . S
H1470 C1476 0.930 . S
H1471 C1480 0.930 . S
H1472 C1485 0.929 . S
H1473 C1483 0.929 . S
H1474 C1478 0.929 . S
H1475 C1484 0.929 . S
C1476 H1470 0.930 . S
C1476 C1477 1.367 . S
C1476 C1484 1.378 . S
C1477 C1476 1.367 . S
C1477 C1485 1.433 . S
C1478 H1474 0.929 . S
C1478 C1480 1.378 . S
C1478 C1482 1.350 . S
C1479 C1482 1.463 1_455 S
C1479 C1484 1.350 . S
C1479 N1487 1.427 . S
C1480 H1471 0.930 . S
C1480 C1478 1.378 . S
C1480 C1481 1.367 . S
C1481 C1480 1.367 . S
C1481 C1483 1.433 . S
C1482 C1478 1.350 . S
C1482 C1479 1.463 1_655 S
C1482 N1486 1.427 . S
C1483 H1473 0.929 . S
C1483 C1481 1.433 . S
C1483 N1486 1.384 . S
C1484 H1475 0.929 . S
C1484 C1476 1.378 . S
C1484 C1479 1.350 . S
C1485 H1472 0.929 . S
C1485 C1477 1.433 . S
C1485 N1487 1.384 . S
N1486 C1482 1.427 . S
N1486 C1483 1.384 . S
N1487 C1479 1.427 . S
N1487 C1485 1.384 . S
H1488 C1494 0.930 . S
H1489 C1498 0.930 . S
H1490 C1503 0.929 . S
H1491 C1501 0.929 1_554 S
H1492 C1496 0.929 . S
H1493 C1502 0.929 . S
C1494 H1488 0.930 . S
C1494 C1495 1.367 . S
C1494 C1502 1.378 . S
C1495 C1494 1.367 . S
C1495 C1503 1.433 . S
C1496 H1492 0.929 . S
C1496 C1498 1.378 . S
C1496 C1500 1.350 . S
C1497 C1500 1.463 . S
C1497 C1502 1.350 . S
C1497 N1505 1.427 . S
C1498 H1489 0.930 . S
C1498 C1496 1.378 . S
C1498 C1499 1.367 . S
C1499 C1498 1.367 . S
C1499 C1501 1.433 . S
C1500 C1496 1.350 . S
C1500 C1497 1.463 . S
C1500 N1504 1.427 . S
C1501 H1491 0.929 1_556 S
C1501 C1499 1.433 . S
C1501 N1504 1.384 . S
C1502 H1493 0.929 . S
C1502 C1494 1.378 . S
C1502 C1497 1.350 . S
C1503 H1490 0.929 . S
C1503 C1495 1.433 . S
C1503 N1505 1.384 . S
N1504 C1500 1.427 . S
N1504 C1501 1.384 . S
N1505 C1497 1.427 . S
N1505 C1503 1.384 . S
H1506 C1512 0.930 . S
H1507 C1516 0.930 . S
H1508 C1521 0.929 . S
H1509 C1519 0.929 . S
H1510 C1514 0.929 . S
H1511 C1520 0.929 . S
C1512 H1506 0.930 . S
C1512 C1513 1.367 . S
C1512 C1520 1.378 . S
C1513 C1512 1.367 . S
C1513 C1521 1.433 . S
C1514 H1510 0.929 . S
C1514 C1516 1.378 . S
C1514 C1518 1.350 . S
C1515 C1518 1.463 . S
C1515 C1520 1.350 . S
C1515 N1523 1.427 . S
C1516 H1507 0.930 . S
C1516 C1514 1.378 . S
C1516 C1517 1.367 . S
C1517 C1516 1.367 . S
C1517 C1519 1.433 . S
C1518 C1514 1.350 . S
C1518 C1515 1.463 . S
C1518 N1522 1.427 . S
C1519 H1509 0.929 . S
C1519 C1517 1.433 . S
C1519 N1522 1.384 . S
C1520 H1511 0.929 . S
C1520 C1512 1.378 . S
C1520 C1515 1.350 . S
C1521 H1508 0.929 . S
C1521 C1513 1.433 . S
C1521 N1523 1.384 . S
N1522 C1518 1.427 . S
N1522 C1519 1.384 . S
N1523 C1515 1.427 . S
N1523 C1521 1.384 . S
H1524 C1530 0.930 . S
H1525 C1534 0.930 . S
H1526 C1539 0.929 . S
H1527 C1537 0.929 . S
H1528 C1532 0.929 . S
H1529 C1538 0.929 . S
C1530 H1524 0.930 . S
C1530 C1531 1.367 . S
C1530 C1538 1.378 . S
C1531 C1530 1.367 . S
C1531 C1539 1.433 . S
C1532 H1528 0.929 . S
C1532 C1534 1.378 . S
C1532 C1536 1.350 . S
C1533 C1536 1.463 . S
C1533 C1538 1.350 . S
C1533 N1541 1.427 . S
C1534 H1525 0.930 . S
C1534 C1532 1.378 . S
C1534 C1535 1.367 . S
C1535 C1534 1.367 . S
C1535 C1537 1.433 . S
C1536 C1532 1.350 . S
C1536 C1533 1.463 . S
C1536 N1540 1.427 . S
C1537 H1527 0.929 . S
C1537 C1535 1.433 . S
C1537 N1540 1.384 . S
C1538 H1529 0.929 . S
C1538 C1530 1.378 . S
C1538 C1533 1.350 . S
C1539 H1526 0.929 . S
C1539 C1531 1.433 . S
C1539 N1541 1.384 . S
N1540 C1536 1.427 . S
N1540 C1537 1.384 . S
N1541 C1533 1.427 . S
N1541 C1539 1.384 . S
H1542 C1548 0.930 . S
H1543 C1552 0.930 . S
H1544 C1557 0.929 . S
H1545 C1555 0.929 . S
H1546 C1550 0.929 . S
H1547 C1556 0.929 . S
C1548 H1542 0.930 . S
C1548 C1549 1.367 . S
C1548 C1556 1.378 . S
C1549 C1548 1.367 . S
C1549 C1557 1.433 . S
C1550 H1546 0.929 . S
C1550 C1552 1.378 . S
C1550 C1554 1.350 . S
C1551 C1554 1.463 . S
C1551 C1556 1.350 . S
C1551 N1559 1.427 . S
C1552 H1543 0.930 . S
C1552 C1550 1.378 . S
C1552 C1553 1.367 . S
C1553 C1552 1.367 . S
C1553 C1555 1.433 . S
C1554 C1550 1.350 . S
C1554 C1551 1.463 . S
C1554 N1558 1.427 . S
C1555 H1545 0.929 . S
C1555 C1553 1.433 . S
C1555 N1558 1.384 . S
C1556 H1547 0.929 . S
C1556 C1548 1.378 . S
C1556 C1551 1.350 . S
C1557 H1544 0.929 . S
C1557 C1549 1.433 . S
C1557 N1559 1.384 . S
N1558 C1554 1.427 . S
N1558 C1555 1.384 . S
N1559 C1551 1.427 . S
N1559 C1557 1.384 . S
H1560 C1566 0.930 . S
H1561 C1570 0.930 . S
H1562 C1575 0.929 . S
H1563 C1573 0.929 . S
H1564 C1568 0.929 . S
H1565 C1574 0.929 . S
C1566 H1560 0.930 . S
C1566 C1567 1.367 1_556 S
C1566 C1574 1.378 1_556 S
C1567 C1566 1.367 1_554 S
C1567 C1575 1.433 . S
C1568 H1564 0.929 . S
C1568 C1570 1.378 . S
C1568 C1572 1.350 . S
C1569 C1572 1.463 . S
C1569 C1574 1.350 . S
C1569 N1577 1.427 . S
C1570 H1561 0.930 . S
C1570 C1568 1.378 . S
C1570 C1571 1.367 . S
C1571 C1570 1.367 . S
C1571 C1573 1.433 . S
C1572 C1568 1.350 . S
C1572 C1569 1.463 . S
C1572 N1576 1.427 . S
C1573 H1563 0.929 . S
C1573 C1571 1.433 . S
C1573 N1576 1.384 . S
C1574 H1565 0.929 . S
C1574 C1566 1.378 1_554 S
C1574 C1569 1.350 . S
C1575 H1562 0.929 . S
C1575 C1567 1.433 . S
C1575 N1577 1.384 . S
N1576 C1572 1.427 . S
N1576 C1573 1.384 . S
N1577 C1569 1.427 . S
N1577 C1575 1.384 . S
H1578 C1584 0.930 . S
H1579 C1588 0.930 . S
H1580 C1593 0.929 . S
H1581 C1591 0.929 . S
H1582 C1586 0.929 . S
H1583 C1592 0.929 . S
C1584 H1578 0.930 . S
C1584 C1585 1.367 . S
C1584 C1592 1.378 . S
C1585 C1584 1.367 . S
C1585 C1593 1.433 . S
C1586 H1582 0.929 . S
C1586 C1588 1.378 . S
C1586 C1590 1.350 . S
C1587 C1590 1.463 . S
C1587 C1592 1.350 . S
C1587 N1595 1.427 . S
C1588 H1579 0.930 . S
C1588 C1586 1.378 . S
C1588 C1589 1.367 . S
C1589 C1588 1.367 . S
C1589 C1591 1.433 . S
C1590 C1586 1.350 . S
C1590 C1587 1.463 . S
C1590 N1594 1.427 . S
C1591 H1581 0.929 . S
C1591 C1589 1.433 . S
C1591 N1594 1.384 . S
C1592 H1583 0.929 . S
C1592 C1584 1.378 . S
C1592 C1587 1.350 . S
C1593 H1580 0.929 . S
C1593 C1585 1.433 . S
C1593 N1595 1.384 . S
N1594 C1590 1.427 . S
N1594 C1591 1.384 . S
N1595 C1587 1.427 . S
N1595 C1593 1.384 . S
H1596 C1602 0.930 . S
H1597 C1606 0.930 . S
H1598 C1611 0.929 . S
H1599 C1609 0.929 . S
H1600 C1604 0.929 . S
H1601 C1610 0.929 . S
C1602 H1596 0.930 . S
C1602 C1603 1.367 . S
C1602 C1610 1.378 . S
C1603 C1602 1.367 . S
C1603 C1611 1.433 . S
C1604 H1600 0.929 . S
C1604 C1606 1.378 . S
C1604 C1608 1.350 . S
C1605 C1608 1.463 . S
C1605 C1610 1.350 . S
C1605 N1613 1.427 . S
C1606 H1597 0.930 . S
C1606 C1604 1.378 . S
C1606 C1607 1.367 . S
C1607 C1606 1.367 . S
C1607 C1609 1.433 . S
C1608 C1604 1.350 . S
C1608 C1605 1.463 . S
C1608 N1612 1.427 . S
C1609 H1599 0.929 . S
C1609 C1607 1.433 . S
C1609 N1612 1.384 . S
C1610 H1601 0.929 . S
C1610 C1602 1.378 . S
C1610 C1605 1.350 . S
C1611 H1598 0.929 . S
C1611 C1603 1.433 . S
C1611 N1613 1.384 . S
N1612 C1608 1.427 . S
N1612 C1609 1.384 . S
N1613 C1605 1.427 . S
N1613 C1611 1.384 . S
H1614 C1620 0.930 . S
H1615 C1624 0.930 . S
H1616 C1629 0.929 . S
H1617 C1627 0.929 . S
H1618 C1622 0.929 . S
H1619 C1628 0.929 . S
C1620 H1614 0.930 . S
C1620 C1621 1.367 . S
C1620 C1628 1.378 . S
C1621 C1620 1.367 . S
C1621 C1629 1.433 . S
C1622 H1618 0.929 . S
C1622 C1624 1.378 . S
C1622 C1626 1.350 . S
C1623 C1626 1.463 . S
C1623 C1628 1.350 . S
C1623 N1631 1.427 . S
C1624 H1615 0.930 . S
C1624 C1622 1.378 . S
C1624 C1625 1.367 . S
C1625 C1624 1.367 . S
C1625 C1627 1.433 . S
C1626 C1622 1.350 . S
C1626 C1623 1.463 . S
C1626 N1630 1.427 . S
C1627 H1617 0.929 . S
C1627 C1625 1.433 . S
C1627 N1630 1.384 . S
C1628 H1619 0.929 . S
C1628 C1620 1.378 . S
C1628 C1623 1.350 . S
C1629 H1616 0.929 . S
C1629 C1621 1.433 . S
C1629 N1631 1.384 . S
N1630 C1626 1.427 . S
N1630 C1627 1.384 . S
N1631 C1623 1.427 . S
N1631 C1629 1.384 . S
H1632 C1638 0.930 . S
H1633 C1642 0.930 . S
H1634 C1647 0.929 . S
H1635 C1645 0.929 . S
H1636 C1640 0.929 . S
H1637 C1646 0.929 . S
C1638 H1632 0.930 . S
C1638 C1639 1.367 . S
C1638 C1646 1.378 . S
C1639 C1638 1.367 . S
C1639 C1647 1.433 . S
C1640 H1636 0.929 . S
C1640 C1642 1.378 . S
C1640 C1644 1.350 . S
C1641 C1644 1.463 . S
C1641 C1646 1.350 . S
C1641 N1649 1.427 . S
C1642 H1633 0.930 . S
C1642 C1640 1.378 . S
C1642 C1643 1.367 . S
C1643 C1642 1.367 . S
C1643 C1645 1.433 . S
C1644 C1640 1.350 . S
C1644 C1641 1.463 . S
C1644 N1648 1.427 . S
C1645 H1635 0.929 . S
C1645 C1643 1.433 . S
C1645 N1648 1.384 . S
C1646 H1637 0.929 . S
C1646 C1638 1.378 . S
C1646 C1641 1.350 . S
C1647 H1634 0.929 . S
C1647 C1639 1.433 . S
C1647 N1649 1.384 . S
N1648 C1644 1.427 . S
N1648 C1645 1.384 . S
N1649 C1641 1.427 . S
N1649 C1647 1.384 . S
H1650 C1656 0.930 . S
H1651 C1660 0.930 . S
H1652 C1665 0.929 . S
H1653 C1663 0.929 . S
H1654 C1658 0.929 . S
H1655 C1664 0.929 . S
C1656 H1650 0.930 . S
C1656 C1657 1.367 . S
C1656 C1664 1.378 . S
C1657 C1656 1.367 . S
C1657 C1665 1.433 . S
C1658 H1654 0.929 . S
C1658 C1660 1.378 . S
C1658 C1662 1.350 . S
C1659 C1662 1.463 . S
C1659 C1664 1.350 1_565 S
C1659 N1667 1.427 . S
C1660 H1651 0.930 . S
C1660 C1658 1.378 . S
C1660 C1661 1.367 . S
C1661 C1660 1.367 . S
C1661 C1663 1.433 . S
C1662 C1658 1.350 . S
C1662 C1659 1.463 . S
C1662 N1666 1.427 . S
C1663 H1653 0.929 . S
C1663 C1661 1.433 . S
C1663 N1666 1.384 . S
C1664 H1655 0.929 . S
C1664 C1656 1.378 . S
C1664 C1659 1.350 1_545 S
C1665 H1652 0.929 . S
C1665 C1657 1.433 . S
C1665 N1667 1.384 1_545 S
N1666 C1662 1.427 . S
N1666 C1663 1.384 . S
N1667 C1659 1.427 . S
N1667 C1665 1.384 1_565 S
H1668 C1674 0.930 . S
H1669 C1678 0.930 . S
H1670 C1683 0.929 1_554 S
H1671 C1681 0.929 . S
H1672 C1676 0.929 . S
H1673 C1682 0.929 . S
C1674 H1668 0.930 . S
C1674 C1675 1.367 . S
C1674 C1682 1.378 . S
C1675 C1674 1.367 . S
C1675 C1683 1.433 . S
C1676 H1672 0.929 . S
C1676 C1678 1.378 . S
C1676 C1680 1.350 . S
C1677 C1680 1.463 . S
C1677 C1682 1.350 . S
C1677 N1685 1.427 . S
C1678 H1669 0.930 . S
C1678 C1676 1.378 . S
C1678 C1679 1.367 . S
C1679 C1678 1.367 . S
C1679 C1681 1.433 . S
C1680 C1676 1.350 . S
C1680 C1677 1.463 . S
C1680 N1684 1.427 . S
C1681 H1671 0.929 . S
C1681 C1679 1.433 . S
C1681 N1684 1.384 . S
C1682 H1673 0.929 . S
C1682 C1674 1.378 . S
C1682 C1677 1.350 . S
C1683 H1670 0.929 1_556 S
C1683 C1675 1.433 . S
C1683 N1685 1.384 . S
N1684 C1680 1.427 . S
N1684 C1681 1.384 . S
N1685 C1677 1.427 . S
N1685 C1683 1.384 . S
H1686 C1692 0.930 . S
H1687 C1696 0.930 . S
H1688 C1701 0.929 . S
H1689 C1699 0.929 . S
H1690 C1694 0.929 . S
H1691 C1700 0.929 . S
C1692 H1686 0.930 . S
C1692 C1693 1.367 . S
C1692 C1700 1.378 . S
C1693 C1692 1.367 . S
C1693 C1701 1.433 . S
C1694 H1690 0.929 . S
C1694 C1696 1.378 . S
C1694 C1698 1.350 . S
C1695 C1698 1.463 . S
C1695 C1700 1.350 1_545 S
C1695 N1703 1.427 . S
C1696 H1687 0.930 . S
C1696 C1694 1.378 . S
C1696 C1697 1.367 . S
C1697 C1696 1.367 . S
C1697 C1699 1.433 . S
C1698 C1694 1.350 . S
C1698 C1695 1.463 . S
C1698 N1702 1.427 . S
C1699 H1689 0.929 . S
C1699 C1697 1.433 . S
C1699 N1702 1.384 . S
C1700 H1691 0.929 . S
C1700 C1692 1.378 . S
C1700 C1695 1.350 1_565 S
C1701 H1688 0.929 . S
C1701 C1693 1.433 . S
C1701 N1703 1.384 1_565 S
N1702 C1698 1.427 . S
N1702 C1699 1.384 . S
N1703 C1695 1.427 . S
N1703 C1701 1.384 1_545 S
H1704 C1710 0.930 . S
H1705 C1714 0.930 . S
H1706 C1719 0.929 . S
H1707 C1717 0.929 . S
H1708 C1712 0.929 . S
H1709 C1718 0.929 . S
C1710 H1704 0.930 . S
C1710 C1711 1.367 . S
C1710 C1718 1.378 . S
C1711 C1710 1.367 . S
C1711 C1719 1.433 . S
C1712 H1708 0.929 . S
C1712 C1714 1.378 . S
C1712 C1716 1.350 . S
C1713 C1716 1.463 . S
C1713 C1718 1.350 . S
C1713 N1721 1.427 . S
C1714 H1705 0.930 . S
C1714 C1712 1.378 . S
C1714 C1715 1.367 . S
C1715 C1714 1.367 . S
C1715 C1717 1.433 . S
C1716 C1712 1.350 . S
C1716 C1713 1.463 . S
C1716 N1720 1.427 . S
C1717 H1707 0.929 . S
C1717 C1715 1.433 . S
C1717 N1720 1.384 . S
C1718 H1709 0.929 . S
C1718 C1710 1.378 . S
C1718 C1713 1.350 . S
C1719 H1706 0.929 . S
C1719 C1711 1.433 . S
C1719 N1721 1.384 . S
N1720 C1716 1.427 . S
N1720 C1717 1.384 . S
N1721 C1713 1.427 . S
N1721 C1719 1.384 . S
H1722 C1728 0.930 . S
H1723 C1732 0.930 . S
H1724 C1737 0.929 . S
H1725 C1735 0.929 . S
H1726 C1730 0.929 . S
H1727 C1736 0.929 . S
C1728 H1722 0.930 . S
C1728 C1729 1.367 . S
C1728 C1736 1.378 . S
C1729 C1728 1.367 . S
C1729 C1737 1.433 . S
C1730 H1726 0.929 . S
C1730 C1732 1.378 . S
C1730 C1734 1.350 1_565 S
C1731 C1734 1.463 . S
C1731 C1736 1.350 . S
C1731 N1739 1.427 . S
C1732 H1723 0.930 . S
C1732 C1730 1.378 . S
C1732 C1733 1.367 . S
C1733 C1732 1.367 . S
C1733 C1735 1.433 . S
C1734 C1730 1.350 1_545 S
C1734 C1731 1.463 . S
C1734 N1738 1.427 . S
C1735 H1725 0.929 . S
C1735 C1733 1.433 . S
C1735 N1738 1.384 1_565 S
C1736 H1727 0.929 . S
C1736 C1728 1.378 . S
C1736 C1731 1.350 . S
C1737 H1724 0.929 . S
C1737 C1729 1.433 . S
C1737 N1739 1.384 . S
N1738 C1734 1.427 . S
N1738 C1735 1.384 1_545 S
N1739 C1731 1.427 . S
N1739 C1737 1.384 . S
H1740 C1746 0.930 . S
H1741 C1750 0.930 . S
H1742 C1755 0.929 . S
H1743 C1753 0.929 . S
H1744 C1748 0.929 . S
H1745 C1754 0.929 . S
C1746 H1740 0.930 . S
C1746 C1747 1.367 . S
C1746 C1754 1.378 . S
C1747 C1746 1.367 . S
C1747 C1755 1.433 . S
C1748 H1744 0.929 . S
C1748 C1750 1.378 . S
C1748 C1752 1.350 . S
C1749 C1752 1.463 . S
C1749 C1754 1.350 . S
C1749 N1757 1.427 . S
C1750 H1741 0.930 . S
C1750 C1748 1.378 . S
C1750 C1751 1.367 . S
C1751 C1750 1.367 . S
C1751 C1753 1.433 . S
C1752 C1748 1.350 . S
C1752 C1749 1.463 . S
C1752 N1756 1.427 . S
C1753 H1743 0.929 . S
C1753 C1751 1.433 . S
C1753 N1756 1.384 . S
C1754 H1745 0.929 . S
C1754 C1746 1.378 . S
C1754 C1749 1.350 . S
C1755 H1742 0.929 . S
C1755 C1747 1.433 . S
C1755 N1757 1.384 . S
N1756 C1752 1.427 . S
N1756 C1753 1.384 . S
N1757 C1749 1.427 . S
N1757 C1755 1.384 . S
H1758 C1764 0.930 . S
H1759 C1768 0.930 . S
H1760 C1773 0.929 . S
H1761 C1771 0.929 . S
H1762 C1766 0.929 . S
H1763 C1772 0.929 . S
C1764 H1758 0.930 . S
C1764 C1765 1.367 . S
C1764 C1772 1.378 1_545 S
C1765 C1764 1.367 . S
C1765 C1773 1.433 . S
C1766 H1762 0.929 . S
C1766 C1768 1.378 . S
C1766 C1770 1.350 . S
C1767 C1770 1.463 . S
C1767 C1772 1.350 . S
C1767 N1775 1.427 1_565 S
C1768 H1759 0.930 . S
C1768 C1766 1.378 . S
C1768 C1769 1.367 . S
C1769 C1768 1.367 . S
C1769 C1771 1.433 . S
C1770 C1766 1.350 . S
C1770 C1767 1.463 . S
C1770 N1774 1.427 . S
C1771 H1761 0.929 . S
C1771 C1769 1.433 . S
C1771 N1774 1.384 . S
C1772 H1763 0.929 . S
C1772 C1764 1.378 1_565 S
C1772 C1767 1.350 . S
C1773 H1760 0.929 . S
C1773 C1765 1.433 . S
C1773 N1775 1.384 . S
N1774 C1770 1.427 . S
N1774 C1771 1.384 . S
N1775 C1767 1.427 1_545 S
N1775 C1773 1.384 . S
H1776 C1782 0.930 . S
H1777 C1786 0.930 . S
H1778 C1791 0.929 . S
H1779 C1789 0.929 . S
H1780 C1784 0.929 . S
H1781 C1790 0.929 . S
C1782 H1776 0.930 . S
C1782 C1783 1.367 . S
C1782 C1790 1.378 . S
C1783 C1782 1.367 . S
C1783 C1791 1.433 . S
C1784 H1780 0.929 . S
C1784 C1786 1.378 . S
C1784 C1788 1.350 . S
C1785 C1788 1.463 . S
C1785 C1790 1.350 . S
C1785 N1793 1.427 . S
C1786 H1777 0.930 . S
C1786 C1784 1.378 . S
C1786 C1787 1.367 . S
C1787 C1786 1.367 . S
C1787 C1789 1.433 . S
C1788 C1784 1.350 . S
C1788 C1785 1.463 . S
C1788 N1792 1.427 . S
C1789 H1779 0.929 . S
C1789 C1787 1.433 . S
C1789 N1792 1.384 . S
C1790 H1781 0.929 . S
C1790 C1782 1.378 . S
C1790 C1785 1.350 . S
C1791 H1778 0.929 . S
C1791 C1783 1.433 . S
C1791 N1793 1.384 . S
N1792 C1788 1.427 . S
N1792 C1789 1.384 . S
N1793 C1785 1.427 . S
N1793 C1791 1.384 . S
H1794 C1800 0.930 . S
H1795 C1804 0.930 . S
H1796 C1809 0.929 . S
H1797 C1807 0.929 1_556 S
H1798 C1802 0.929 . S
H1799 C1808 0.929 . S
C1800 H1794 0.930 . S
C1800 C1801 1.367 . S
C1800 C1808 1.378 . S
C1801 C1800 1.367 . S
C1801 C1809 1.433 . S
C1802 H1798 0.929 . S
C1802 C1804 1.378 . S
C1802 C1806 1.350 . S
C1803 C1806 1.463 . S
C1803 C1808 1.350 . S
C1803 N1811 1.427 . S
C1804 H1795 0.930 . S
C1804 C1802 1.378 . S
C1804 C1805 1.367 . S
C1805 C1804 1.367 . S
C1805 C1807 1.433 . S
C1806 C1802 1.350 . S
C1806 C1803 1.463 . S
C1806 N1810 1.427 . S
C1807 H1797 0.929 1_554 S
C1807 C1805 1.433 . S
C1807 N1810 1.384 . S
C1808 H1799 0.929 . S
C1808 C1800 1.378 . S
C1808 C1803 1.350 . S
C1809 H1796 0.929 . S
C1809 C1801 1.433 . S
C1809 N1811 1.384 . S
N1810 C1806 1.427 . S
N1810 C1807 1.384 . S
N1811 C1803 1.427 . S
N1811 C1809 1.384 . S
H1812 C1818 0.930 . S
H1813 C1822 0.930 . S
H1814 C1827 0.929 . S
H1815 C1825 0.929 . S
H1816 C1820 0.929 . S
H1817 C1826 0.929 . S
C1818 H1812 0.930 . S
C1818 C1819 1.367 . S
C1818 C1826 1.378 . S
C1819 C1818 1.367 . S
C1819 C1827 1.433 . S
C1820 H1816 0.929 . S
C1820 C1822 1.378 . S
C1820 C1824 1.350 1_455 S
C1821 C1824 1.463 . S
C1821 C1826 1.350 . S
C1821 N1829 1.427 . S
C1822 H1813 0.930 . S
C1822 C1820 1.378 . S
C1822 C1823 1.367 . S
C1823 C1822 1.367 . S
C1823 C1825 1.433 1_455 S
C1824 C1820 1.350 1_655 S
C1824 C1821 1.463 . S
C1824 N1828 1.427 . S
C1825 H1815 0.929 . S
C1825 C1823 1.433 1_655 S
C1825 N1828 1.384 . S
C1826 H1817 0.929 . S
C1826 C1818 1.378 . S
C1826 C1821 1.350 . S
C1827 H1814 0.929 . S
C1827 C1819 1.433 . S
C1827 N1829 1.384 . S
N1828 C1824 1.427 . S
N1828 C1825 1.384 . S
N1829 C1821 1.427 . S
N1829 C1827 1.384 . S
H1830 C1836 0.930 . S
H1831 C1840 0.930 . S
H1832 C1845 0.929 . S
H1833 C1843 0.929 . S
H1834 C1838 0.929 . S
H1835 C1844 0.929 . S
C1836 H1830 0.930 . S
C1836 C1837 1.367 . S
C1836 C1844 1.378 . S
C1837 C1836 1.367 . S
C1837 C1845 1.433 . S
C1838 H1834 0.929 . S
C1838 C1840 1.378 . S
C1838 C1842 1.350 . S
C1839 C1842 1.463 . S
C1839 C1844 1.350 . S
C1839 N1847 1.427 . S
C1840 H1831 0.930 . S
C1840 C1838 1.378 . S
C1840 C1841 1.367 . S
C1841 C1840 1.367 . S
C1841 C1843 1.433 . S
C1842 C1838 1.350 . S
C1842 C1839 1.463 . S
C1842 N1846 1.427 . S
C1843 H1833 0.929 . S
C1843 C1841 1.433 . S
C1843 N1846 1.384 . S
C1844 H1835 0.929 . S
C1844 C1836 1.378 . S
C1844 C1839 1.350 . S
C1845 H1832 0.929 . S
C1845 C1837 1.433 . S
C1845 N1847 1.384 . S
N1846 C1842 1.427 . S
N1846 C1843 1.384 . S
N1847 C1839 1.427 . S
N1847 C1845 1.384 . S
H1848 C1854 0.930 . S
H1849 C1858 0.930 . S
H1850 C1863 0.929 . S
H1851 C1861 0.929 . S
H1852 C1856 0.929 . S
H1853 C1862 0.929 . S
C1854 H1848 0.930 . S
C1854 C1855 1.367 . S
C1854 C1862 1.378 . S
C1855 C1854 1.367 . S
C1855 C1863 1.433 . S
C1856 H1852 0.929 . S
C1856 C1858 1.378 . S
C1856 C1860 1.350 . S
C1857 C1860 1.463 . S
C1857 C1862 1.350 . S
C1857 N1865 1.427 . S
C1858 H1849 0.930 . S
C1858 C1856 1.378 . S
C1858 C1859 1.367 . S
C1859 C1858 1.367 . S
C1859 C1861 1.433 . S
C1860 C1856 1.350 . S
C1860 C1857 1.463 . S
C1860 N1864 1.427 . S
C1861 H1851 0.929 . S
C1861 C1859 1.433 . S
C1861 N1864 1.384 . S
C1862 H1853 0.929 . S
C1862 C1854 1.378 . S
C1862 C1857 1.350 . S
C1863 H1850 0.929 . S
C1863 C1855 1.433 . S
C1863 N1865 1.384 . S
N1864 C1860 1.427 . S
N1864 C1861 1.384 . S
N1865 C1857 1.427 . S
N1865 C1863 1.384 . S
H1866 C1872 0.930 . S
H1867 C1876 0.930 . S
H1868 C1881 0.929 . S
H1869 C1879 0.929 1_554 S
H1870 C1874 0.929 . S
H1871 C1880 0.929 . S
C1872 H1866 0.930 . S
C1872 C1873 1.367 . S
C1872 C1880 1.378 . S
C1873 C1872 1.367 . S
C1873 C1881 1.433 . S
C1874 H1870 0.929 . S
C1874 C1876 1.378 . S
C1874 C1878 1.350 . S
C1875 C1878 1.463 . S
C1875 C1880 1.350 . S
C1875 N1883 1.427 . S
C1876 H1867 0.930 . S
C1876 C1874 1.378 . S
C1876 C1877 1.367 . S
C1877 C1876 1.367 . S
C1877 C1879 1.433 . S
C1878 C1874 1.350 . S
C1878 C1875 1.463 . S
C1878 N1882 1.427 . S
C1879 H1869 0.929 1_556 S
C1879 C1877 1.433 . S
C1879 N1882 1.384 . S
C1880 H1871 0.929 . S
C1880 C1872 1.378 . S
C1880 C1875 1.350 . S
C1881 H1868 0.929 . S
C1881 C1873 1.433 . S
C1881 N1883 1.384 . S
N1882 C1878 1.427 . S
N1882 C1879 1.384 . S
N1883 C1875 1.427 . S
N1883 C1881 1.384 . S
H1884 C1890 0.930 . S
H1885 C1894 0.930 . S
H1886 C1899 0.929 . S
H1887 C1897 0.929 . S
H1888 C1892 0.929 . S
H1889 C1898 0.929 1_655 S
C1890 H1884 0.930 . S
C1890 C1891 1.367 . S
C1890 C1898 1.378 . S
C1891 C1890 1.367 . S
C1891 C1899 1.433 . S
C1892 H1888 0.929 . S
C1892 C1894 1.378 . S
C1892 C1896 1.350 . S
C1893 C1896 1.463 . S
C1893 C1898 1.350 . S
C1893 N1901 1.427 . S
C1894 H1885 0.930 . S
C1894 C1892 1.378 . S
C1894 C1895 1.367 1_455 S
C1895 C1894 1.367 1_655 S
C1895 C1897 1.433 . S
C1896 C1892 1.350 . S
C1896 C1893 1.463 . S
C1896 N1900 1.427 1_455 S
C1897 H1887 0.929 . S
C1897 C1895 1.433 . S
C1897 N1900 1.384 . S
C1898 H1889 0.929 1_455 S
C1898 C1890 1.378 . S
C1898 C1893 1.350 . S
C1899 H1886 0.929 . S
C1899 C1891 1.433 . S
C1899 N1901 1.384 . S
N1900 C1896 1.427 1_655 S
N1900 C1897 1.384 . S
N1901 C1893 1.427 . S
N1901 C1899 1.384 . S
H1902 C1908 0.930 . S
H1903 C1912 0.930 . S
H1904 C1917 0.929 . S
H1905 C1915 0.929 . S
H1906 C1910 0.929 . S
H1907 C1916 0.929 . S
C1908 H1902 0.930 . S
C1908 C1909 1.367 . S
C1908 C1916 1.378 . S
C1909 C1908 1.367 . S
C1909 C1917 1.433 . S
C1910 H1906 0.929 . S
C1910 C1912 1.378 . S
C1910 C1914 1.350 . S
C1911 C1914 1.463 . S
C1911 C1916 1.350 . S
C1911 N1919 1.427 . S
C1912 H1903 0.930 . S
C1912 C1910 1.378 . S
C1912 C1913 1.367 . S
C1913 C1912 1.367 . S
C1913 C1915 1.433 . S
C1914 C1910 1.350 . S
C1914 C1911 1.463 . S
C1914 N1918 1.427 . S
C1915 H1905 0.929 . S
C1915 C1913 1.433 . S
C1915 N1918 1.384 . S
C1916 H1907 0.929 . S
C1916 C1908 1.378 . S
C1916 C1911 1.350 . S
C1917 H1904 0.929 . S
C1917 C1909 1.433 . S
C1917 N1919 1.384 . S
N1918 C1914 1.427 . S
N1918 C1915 1.384 . S
N1919 C1911 1.427 . S
N1919 C1917 1.384 . S
H1920 C1926 0.930 . S
H1921 C1930 0.930 . S
H1922 C1935 0.929 . S
H1923 C1933 0.929 . S
H1924 C1928 0.943 . S
H1925 C1934 0.929 . S
C1926 H1920 0.930 . S
C1926 C1927 1.367 1_455 S
C1926 C1934 1.378 . S
C1927 C1926 1.367 1_655 S
C1927 C1935 1.433 . S
C1928 H1924 0.943 . S
C1928 C1930 1.378 . S
C1928 C1932 1.350 . S
C1929 C1932 1.463 . S
C1929 C1934 1.350 . S
C1929 N1937 1.427 1_455 S
C1930 H1921 0.930 . S
C1930 C1928 1.378 . S
C1930 C1931 1.367 . S
C1931 C1930 1.367 . S
C1931 C1933 1.433 . S
C1932 C1928 1.350 . S
C1932 C1929 1.463 . S
C1932 N1936 1.427 . S
C1933 H1923 0.929 . S
C1933 C1931 1.433 . S
C1933 N1936 1.384 . S
C1934 H1925 0.929 . S
C1934 C1926 1.378 . S
C1934 C1929 1.350 . S
C1935 H1922 0.929 . S
C1935 C1927 1.433 . S
C1935 N1937 1.384 . S
N1936 C1932 1.427 . S
N1936 C1933 1.384 . S
N1937 C1929 1.427 1_655 S
N1937 C1935 1.384 . S
H1938 C1944 0.930 . S
H1939 C1948 0.930 . S
H1940 C1953 0.929 . S
H1941 C1951 0.929 . S
H1942 C1946 0.929 . S
H1943 C1952 0.929 . S
C1944 H1938 0.930 . S
C1944 C1945 1.367 . S
C1944 C1952 1.378 . S
C1945 C1944 1.367 . S
C1945 C1953 1.433 . S
C1946 H1942 0.929 . S
C1946 C1948 1.378 . S
C1946 C1950 1.350 . S
C1947 C1950 1.463 . S
C1947 C1952 1.350 . S
C1947 N1955 1.427 . S
C1948 H1939 0.930 . S
C1948 C1946 1.378 . S
C1948 C1949 1.367 . S
C1949 C1948 1.367 . S
C1949 C1951 1.433 . S
C1950 C1946 1.350 . S
C1950 C1947 1.463 . S
C1950 N1954 1.427 . S
C1951 H1941 0.929 . S
C1951 C1949 1.433 . S
C1951 N1954 1.384 . S
C1952 H1943 0.929 . S
C1952 C1944 1.378 . S
C1952 C1947 1.350 . S
C1953 H1940 0.929 . S
C1953 C1945 1.433 . S
C1953 N1955 1.384 . S
N1954 C1950 1.427 . S
N1954 C1951 1.384 . S
N1955 C1947 1.427 . S
N1955 C1953 1.384 . S
H1956 C1962 0.930 . S
H1957 C1966 0.930 . S
H1958 C1971 0.929 . S
H1959 C1969 0.929 . S
H1960 C1964 0.929 . S
H1961 C1970 0.929 . S
C1962 H1956 0.930 . S
C1962 C1963 1.367 . S
C1962 C1970 1.378 . S
C1963 C1962 1.367 . S
C1963 C1971 1.433 . S
C1964 H1960 0.929 . S
C1964 C1966 1.378 . S
C1964 C1968 1.350 . S
C1965 C1968 1.463 . S
C1965 C1970 1.350 . S
C1965 N1973 1.427 . S
C1966 H1957 0.930 . S
C1966 C1964 1.378 . S
C1966 C1967 1.367 . S
C1967 C1966 1.367 . S
C1967 C1969 1.433 . S
C1968 C1964 1.350 . S
C1968 C1965 1.463 . S
C1968 N1972 1.427 . S
C1969 H1959 0.929 . S
C1969 C1967 1.433 . S
C1969 N1972 1.384 . S
C1970 H1961 0.929 . S
C1970 C1962 1.378 . S
C1970 C1965 1.350 . S
C1971 H1958 0.929 . S
C1971 C1963 1.433 . S
C1971 N1973 1.384 . S
N1972 C1968 1.427 . S
N1972 C1969 1.384 . S
N1973 C1965 1.427 . S
N1973 C1971 1.384 . S
H1974 C1980 0.930 . S
H1975 C1984 0.930 . S
H1976 C1989 0.929 . S
H1977 C1987 0.929 . S
H1978 C1982 0.929 . S
H1979 C1988 0.929 . S
C1980 H1974 0.930 . S
C1980 C1981 1.367 . S
C1980 C1988 1.378 . S
C1981 C1980 1.367 . S
C1981 C1989 1.433 . S
C1982 H1978 0.929 . S
C1982 C1984 1.378 . S
C1982 C1986 1.350 . S
C1983 C1986 1.463 . S
C1983 C1988 1.350 . S
C1983 N1991 1.427 . S
C1984 H1975 0.930 . S
C1984 C1982 1.378 . S
C1984 C1985 1.367 . S
C1985 C1984 1.367 . S
C1985 C1987 1.433 . S
C1986 C1982 1.350 . S
C1986 C1983 1.463 . S
C1986 N1990 1.427 . S
C1987 H1977 0.929 . S
C1987 C1985 1.433 . S
C1987 N1990 1.384 . S
C1988 H1979 0.929 . S
C1988 C1980 1.378 . S
C1988 C1983 1.350 . S
C1989 H1976 0.929 . S
C1989 C1981 1.433 . S
C1989 N1991 1.384 . S
N1990 C1986 1.427 . S
N1990 C1987 1.384 . S
N1991 C1983 1.427 . S
N1991 C1989 1.384 . S
H1992 C1998 0.930 . S
H1993 C2002 0.930 . S
H1994 C2007 0.929 . S
H1995 C2005 0.929 . S
H1996 C2000 0.961 . S
H1997 C2006 0.929 . S
C1998 H1992 0.930 . S
C1998 C1999 1.367 1_655 S
C1998 C2006 1.378 . S
C1999 C1998 1.367 1_455 S
C1999 C2007 1.433 . S
C2000 H1996 0.961 . S
C2000 C2002 1.378 . S
C2000 C2004 1.350 . S
C2001 C2004 1.463 . S
C2001 C2006 1.350 . S
C2001 N2009 1.427 1_655 S
C2002 H1993 0.930 . S
C2002 C2000 1.378 . S
C2002 C2003 1.367 . S
C2003 C2002 1.367 . S
C2003 C2005 1.433 . S
C2004 C2000 1.350 . S
C2004 C2001 1.463 . S
C2004 N2008 1.427 . S
C2005 H1995 0.929 . S
C2005 C2003 1.433 . S
C2005 N2008 1.384 . S
C2006 H1997 0.929 . S
C2006 C1998 1.378 . S
C2006 C2001 1.350 . S
C2007 H1994 0.929 . S
C2007 C1999 1.433 . S
C2007 N2009 1.384 . S
N2008 C2004 1.427 . S
N2008 C2005 1.384 . S
N2009 C2001 1.427 1_455 S
N2009 C2007 1.384 . S
H2010 C2016 0.930 . S
H2011 C2020 0.930 . S
H2012 C2025 0.929 . S
H2013 C2023 0.929 . S
H2014 C2018 0.929 . S
H2015 C2024 0.929 . S
C2016 H2010 0.930 . S
C2016 C2017 1.367 . S
C2016 C2024 1.378 . S
C2017 C2016 1.367 . S
C2017 C2025 1.433 . S
C2018 H2014 0.929 . S
C2018 C2020 1.378 . S
C2018 C2022 1.350 . S
C2019 C2022 1.463 . S
C2019 C2024 1.350 . S
C2019 N2027 1.427 . S
C2020 H2011 0.930 . S
C2020 C2018 1.378 . S
C2020 C2021 1.367 . S
C2021 C2020 1.367 . S
C2021 C2023 1.433 . S
C2022 C2018 1.350 . S
C2022 C2019 1.463 . S
C2022 N2026 1.427 . S
C2023 H2013 0.929 . S
C2023 C2021 1.433 . S
C2023 N2026 1.384 . S
C2024 H2015 0.929 . S
C2024 C2016 1.378 . S
C2024 C2019 1.350 . S
C2025 H2012 0.929 . S
C2025 C2017 1.433 . S
C2025 N2027 1.384 . S
N2026 C2022 1.427 . S
N2026 C2023 1.384 . S
N2027 C2019 1.427 . S
N2027 C2025 1.384 . S
H2028 C2034 0.930 . S
H2029 C2038 0.930 . S
H2030 C2043 0.929 . S
H2031 C2041 0.929 . S
H2032 C2036 0.929 . S
H2033 C2042 0.929 . S
C2034 H2028 0.930 . S
C2034 C2035 1.367 . S
C2034 C2042 1.378 . S
C2035 C2034 1.367 . S
C2035 C2043 1.433 . S
C2036 H2032 0.929 . S
C2036 C2038 1.378 . S
C2036 C2040 1.350 . S
C2037 C2040 1.463 . S
C2037 C2042 1.350 . S
C2037 N2045 1.427 . S
C2038 H2029 0.930 . S
C2038 C2036 1.378 . S
C2038 C2039 1.367 . S
C2039 C2038 1.367 . S
C2039 C2041 1.433 . S
C2040 C2036 1.350 . S
C2040 C2037 1.463 . S
C2040 N2044 1.427 . S
C2041 H2031 0.929 . S
C2041 C2039 1.433 . S
C2041 N2044 1.384 . S
C2042 H2033 0.929 . S
C2042 C2034 1.378 . S
C2042 C2037 1.350 . S
C2043 H2030 0.929 . S
C2043 C2035 1.433 . S
C2043 N2045 1.384 . S
N2044 C2040 1.427 . S
N2044 C2041 1.384 . S
N2045 C2037 1.427 . S
N2045 C2043 1.384 . S
H2046 C2052 0.930 . S
H2047 C2056 0.930 . S
H2048 C2061 0.929 1_554 S
H2049 C2059 0.929 . S
H2050 C2054 0.929 . S
H2051 C2060 0.929 . S
C2052 H2046 0.930 . S
C2052 C2053 1.367 . S
C2052 C2060 1.378 . S
C2053 C2052 1.367 . S
C2053 C2061 1.433 . S
C2054 H2050 0.929 . S
C2054 C2056 1.378 . S
C2054 C2058 1.350 . S
C2055 C2058 1.463 . S
C2055 C2060 1.350 . S
C2055 N2063 1.427 . S
C2056 H2047 0.930 . S
C2056 C2054 1.378 . S
C2056 C2057 1.367 . S
C2057 C2056 1.367 . S
C2057 C2059 1.433 . S
C2058 C2054 1.350 . S
C2058 C2055 1.463 . S
C2058 N2062 1.427 . S
C2059 H2049 0.929 . S
C2059 C2057 1.433 . S
C2059 N2062 1.384 . S
C2060 H2051 0.929 . S
C2060 C2052 1.378 . S
C2060 C2055 1.350 . S
C2061 H2048 0.929 1_556 S
C2061 C2053 1.433 . S
C2061 N2063 1.384 . S
N2062 C2058 1.427 . S
N2062 C2059 1.384 . S
N2063 C2055 1.427 . S
N2063 C2061 1.384 . S
H2064 C2070 0.930 . S
H2065 C2074 0.930 . S
H2066 C2079 0.929 . S
H2067 C2077 0.929 . S
H2068 C2072 0.929 . S
H2069 C2078 0.929 . S
C2070 H2064 0.930 . S
C2070 C2071 1.367 . S
C2070 C2078 1.378 . S
C2071 C2070 1.367 . S
C2071 C2079 1.433 . S
C2072 H2068 0.929 . S
C2072 C2074 1.378 . S
C2072 C2076 1.350 . S
C2073 C2076 1.463 . S
C2073 C2078 1.350 . S
C2073 N2081 1.427 . S
C2074 H2065 0.930 . S
C2074 C2072 1.378 . S
C2074 C2075 1.367 . S
C2075 C2074 1.367 . S
C2075 C2077 1.433 . S
C2076 C2072 1.350 . S
C2076 C2073 1.463 . S
C2076 N2080 1.427 . S
C2077 H2067 0.929 . S
C2077 C2075 1.433 . S
C2077 N2080 1.384 . S
C2078 H2069 0.929 . S
C2078 C2070 1.378 . S
C2078 C2073 1.350 . S
C2079 H2066 0.929 . S
C2079 C2071 1.433 . S
C2079 N2081 1.384 . S
N2080 C2076 1.427 . S
N2080 C2077 1.384 . S
N2081 C2073 1.427 . S
N2081 C2079 1.384 . S
H2082 C2088 0.930 . S
H2083 C2092 0.930 . S
H2084 C2097 0.929 . S
H2085 C2095 0.929 . S
H2086 C2090 0.929 . S
H2087 C2096 0.929 . S
C2088 H2082 0.930 . S
C2088 C2089 1.367 . S
C2088 C2096 1.378 . S
C2089 C2088 1.367 . S
C2089 C2097 1.433 . S
C2090 H2086 0.929 . S
C2090 C2092 1.378 . S
C2090 C2094 1.350 . S
C2091 C2094 1.463 . S
C2091 C2096 1.350 . S
C2091 N2099 1.427 . S
C2092 H2083 0.930 . S
C2092 C2090 1.378 . S
C2092 C2093 1.367 . S
C2093 C2092 1.367 . S
C2093 C2095 1.433 . S
C2094 C2090 1.350 . S
C2094 C2091 1.463 . S
C2094 N2098 1.427 . S
C2095 H2085 0.929 . S
C2095 C2093 1.433 . S
C2095 N2098 1.384 . S
C2096 H2087 0.929 . S
C2096 C2088 1.378 . S
C2096 C2091 1.350 . S
C2097 H2084 0.929 . S
C2097 C2089 1.433 . S
C2097 N2099 1.384 . S
N2098 C2094 1.427 . S
N2098 C2095 1.384 . S
N2099 C2091 1.427 . S
N2099 C2097 1.384 . S
H2100 C2106 0.930 . S
H2101 C2110 0.930 . S
H2102 C2115 0.929 . S
H2103 C2113 0.929 . S
H2104 C2108 0.929 . S
H2105 C2114 0.929 . S
C2106 H2100 0.930 . S
C2106 C2107 1.367 . S
C2106 C2114 1.378 . S
C2107 C2106 1.367 . S
C2107 C2115 1.433 . S
C2108 H2104 0.929 . S
C2108 C2110 1.378 . S
C2108 C2112 1.350 . S
C2109 C2112 1.463 . S
C2109 C2114 1.350 . S
C2109 N2117 1.427 . S
C2110 H2101 0.930 . S
C2110 C2108 1.378 . S
C2110 C2111 1.367 . S
C2111 C2110 1.367 . S
C2111 C2113 1.433 . S
C2112 C2108 1.350 . S
C2112 C2109 1.463 . S
C2112 N2116 1.427 . S
C2113 H2103 0.929 . S
C2113 C2111 1.433 . S
C2113 N2116 1.384 . S
C2114 H2105 0.929 . S
C2114 C2106 1.378 . S
C2114 C2109 1.350 . S
C2115 H2102 0.929 . S
C2115 C2107 1.433 . S
C2115 N2117 1.384 . S
N2116 C2112 1.427 . S
N2116 C2113 1.384 . S
N2117 C2109 1.427 . S
N2117 C2115 1.384 . S
H2118 C2124 0.930 . S
H2119 C2128 0.930 . S
H2120 C2133 0.929 . S
H2121 C2131 0.929 . S
H2122 C2126 0.929 . S
H2123 C2132 0.929 . S
C2124 H2118 0.930 . S
C2124 C2125 1.367 . S
C2124 C2132 1.378 . S
C2125 C2124 1.367 . S
C2125 C2133 1.433 . S
C2126 H2122 0.929 . S
C2126 C2128 1.378 . S
C2126 C2130 1.350 . S
C2127 C2130 1.463 1_454 S
C2127 C2132 1.350 . S
C2127 N2135 1.427 . S
C2128 H2119 0.930 . S
C2128 C2126 1.378 . S
C2128 C2129 1.367 . S
C2129 C2128 1.367 . S
C2129 C2131 1.433 . S
C2130 C2126 1.350 . S
C2130 C2127 1.463 1_656 S
C2130 N2134 1.427 . S
C2131 H2121 0.929 . S
C2131 C2129 1.433 . S
C2131 N2134 1.384 . S
C2132 H2123 0.929 . S
C2132 C2124 1.378 . S
C2132 C2127 1.350 . S
C2133 H2120 0.929 . S
C2133 C2125 1.433 . S
C2133 N2135 1.384 . S
N2134 C2130 1.427 . S
N2134 C2131 1.384 . S
N2135 C2127 1.427 . S
N2135 C2133 1.384 . S
H2136 C2142 0.930 . S
H2137 C2146 0.930 . S
H2138 C2151 0.929 . S
H2139 C2149 0.929 . S
H2140 C2144 0.929 . S
H2141 C2150 0.929 . S
C2142 H2136 0.930 . S
C2142 C2143 1.367 . S
C2142 C2150 1.378 . S
C2143 C2142 1.367 . S
C2143 C2151 1.433 . S
C2144 H2140 0.929 . S
C2144 C2146 1.378 . S
C2144 C2148 1.350 . S
C2145 C2148 1.463 . S
C2145 C2150 1.350 . S
C2145 N2153 1.427 . S
C2146 H2137 0.930 . S
C2146 C2144 1.378 . S
C2146 C2147 1.367 . S
C2147 C2146 1.367 . S
C2147 C2149 1.433 . S
C2148 C2144 1.350 . S
C2148 C2145 1.463 . S
C2148 N2152 1.427 . S
C2149 H2139 0.929 . S
C2149 C2147 1.433 . S
C2149 N2152 1.384 . S
C2150 H2141 0.929 . S
C2150 C2142 1.378 . S
C2150 C2145 1.350 . S
C2151 H2138 0.929 . S
C2151 C2143 1.433 . S
C2151 N2153 1.384 . S
N2152 C2148 1.427 . S
N2152 C2149 1.384 . S
N2153 C2145 1.427 . S
N2153 C2151 1.384 . S
H2154 C2160 0.930 . S
H2155 C2164 0.930 . S
H2156 C2169 0.929 . S
H2157 C2167 0.929 . S
H2158 C2162 0.929 . S
H2159 C2168 0.929 . S
C2160 H2154 0.930 . S
C2160 C2161 1.367 . S
C2160 C2168 1.378 . S
C2161 C2160 1.367 . S
C2161 C2169 1.433 . S
C2162 H2158 0.929 . S
C2162 C2164 1.378 . S
C2162 C2166 1.350 . S
C2163 C2166 1.463 . S
C2163 C2168 1.350 . S
C2163 N2171 1.427 . S
C2164 H2155 0.930 . S
C2164 C2162 1.378 . S
C2164 C2165 1.367 . S
C2165 C2164 1.367 . S
C2165 C2167 1.433 . S
C2166 C2162 1.350 . S
C2166 C2163 1.463 . S
C2166 N2170 1.427 . S
C2167 H2157 0.929 . S
C2167 C2165 1.433 . S
C2167 N2170 1.384 . S
C2168 H2159 0.929 . S
C2168 C2160 1.378 . S
C2168 C2163 1.350 . S
C2169 H2156 0.929 . S
C2169 C2161 1.433 . S
C2169 N2171 1.384 . S
N2170 C2166 1.427 . S
N2170 C2167 1.384 . S
N2171 C2163 1.427 . S
N2171 C2169 1.384 . S
H2172 C2178 0.930 . S
H2173 C2182 0.930 . S
H2174 C2187 0.929 . S
H2175 C2185 0.929 . S
H2176 C2180 0.956 . S
H2177 C2186 0.956 . S
C2178 H2172 0.930 . S
C2178 C2179 1.367 . S
C2178 C2186 1.360 1_556 S
C2179 C2178 1.367 . S
C2179 C2187 1.433 . S
C2180 H2176 0.956 . S
C2180 C2182 1.360 1_556 S
C2180 C2184 1.341 1_556 S
C2181 C2184 1.463 1_446 S
C2181 C2186 1.341 1_556 S
C2181 N2189 1.427 . S
C2182 H2173 0.930 . S
C2182 C2180 1.360 1_554 S
C2182 C2183 1.367 . S
C2183 C2182 1.367 . S
C2183 C2185 1.433 . S
C2184 C2180 1.341 1_554 S
C2184 C2181 1.463 1_664 S
C2184 N2188 1.427 . S
C2185 H2175 0.929 . S
C2185 C2183 1.433 . S
C2185 N2188 1.384 . S
C2186 H2177 0.956 . S
C2186 C2178 1.360 1_554 S
C2186 C2181 1.341 1_554 S
C2187 H2174 0.929 . S
C2187 C2179 1.433 . S
C2187 N2189 1.384 . S
N2188 C2184 1.427 . S
N2188 C2185 1.384 . S
N2189 C2181 1.427 . S
N2189 C2187 1.384 . S
H2190 C2196 0.930 . S
H2191 C2200 0.930 . S
H2192 C2205 0.929 . S
H2193 C2203 0.929 . S
H2194 C2198 0.929 . S
H2195 C2204 0.929 . S
C2196 H2190 0.930 . S
C2196 C2197 1.367 . S
C2196 C2204 1.378 . S
C2197 C2196 1.367 . S
C2197 C2205 1.433 . S
C2198 H2194 0.929 . S
C2198 C2200 1.378 . S
C2198 C2202 1.350 . S
C2199 C2202 1.463 1_545 S
C2199 C2204 1.350 . S
C2199 N2207 1.427 . S
C2200 H2191 0.930 . S
C2200 C2198 1.378 . S
C2200 C2201 1.367 . S
C2201 C2200 1.367 . S
C2201 C2203 1.433 . S
C2202 C2198 1.350 . S
C2202 C2199 1.463 1_565 S
C2202 N2206 1.427 . S
C2203 H2193 0.929 . S
C2203 C2201 1.433 . S
C2203 N2206 1.384 . S
C2204 H2195 0.929 . S
C2204 C2196 1.378 . S
C2204 C2199 1.350 . S
C2205 H2192 0.929 . S
C2205 C2197 1.433 . S
C2205 N2207 1.384 . S
N2206 C2202 1.427 . S
N2206 C2203 1.384 . S
N2207 C2199 1.427 . S
N2207 C2205 1.384 . S
C1351 C56 2.449 . S
C1355 C896 2.443 . S
C1369 C140 2.450 . S
C1373 C980 2.444 . S
C1387 C224 2.449 . S
C1391 C728 2.443 . S
C1405 C308 2.446 . S
C1409 C812 2.450 . S
C1423 C403 2.450 . S
C1427 C1243 2.443 . S
C1441 C487 2.444 . S
C1445 C1327 2.448 . S
C1459 C571 2.450 . S
C1463 C1075 2.444 . S
C1477 C655 2.448 . S
C1481 C1159 2.444 . S
C1495 C830 3.666 . S
C1499 C67 3.623 1_556 S
C1513 C914 3.671 . S
C1517 C151 3.617 . S
C1531 C998 3.671 . S
C1535 C235 3.617 . S
C1549 C746 3.670 . S
C1553 C319 3.618 . S
C1567 C392 3.621 1_554 S
C1571 C1155 3.668 . S
C1585 C1239 3.669 . S
C1589 C476 3.620 . S
C1603 C1323 3.671 . S
C1607 C560 3.617 . S
C1621 C1071 3.671 . S
C1625 C644 3.617 . S
C1639 C158 3.666 . S
C1643 C739 3.623 . S
C1657 C823 3.622 . S
C1661 C242 3.667 . S
C1675 C907 3.617 1_556 S
C1679 C326 3.671 . S
C1693 C991 3.623 . S
C1697 C74 3.666 . S
C1711 C1064 3.624 . S
C1715 C483 3.665 . S
C1729 C567 3.669 . S
C1733 C1148 3.619 . S
C1747 C651 3.665 . S
C1751 C1232 3.624 1_554 S
C1765 C1316 3.622 . S
C1769 C399 3.667 . S
C1783 C58 0.598 . S
C1787 C1334 0.556 . S
C1801 C142 0.623 . S
C1805 C410 0.538 . S
C1819 C1166 0.536 . S
C1823 C226 0.629 . S
C1837 C578 0.542 . S
C1841 C310 0.615 . S
C1855 C406 0.632 . S
C1859 C987 0.535 . S
C1873 C490 0.599 . S
C1877 C63 0.556 . S
C1891 C819 0.559 . S
C1895 C574 0.637 . S
C1909 C231 0.539 . S
C1913 C658 0.621 . S
C1927 C730 0.641 . S
C1931 C662 0.552 . S
C1945 C814 0.624 . S
C1949 C1082 0.537 . S
C1963 C494 0.538 . S
C1967 C898 0.622 . S
C1981 C1250 0.548 . S
C1985 C982 0.643 . S
C1999 C1078 0.602 . S
C2003 C315 0.579 . S
C2017 C1162 0.630 . S
C2021 C735 0.566 . S
C2035 C1246 0.593 . S
C2039 C147 0.576 . S
C2053 C903 0.535 . S
C2057 C1330 0.633 . S
C2071 C70 1.140 . S
C2075 C1066 1.140 . S
C2089 C154 1.139 . S
C2093 C478 1.139 . S
C2107 C238 1.116 . S
C2111 C1234 1.116 . S
C2125 C646 1.142 . S
C2129 C322 1.142 . S
C2143 C394 1.111 . S
C2147 C742 1.111 . S
C2161 C910 1.133 . S
C2165 C562 1.133 . S
C2179 C826 1.144 . S
C2183 C1150 1.144 . S
C2197 C1318 1.110 . S
C2201 C994 1.110 . S
