# Generated by pormake.
# Topology cdt, (3)-cn, num edge types: 1
# Building blocks:
#     Node 0, Type 0, BuildingBlock: WUSLED_clean_sbu_0, # of connection points: 3
#     Node 1, Type 0, BuildingBlock: WUSLED_clean_sbu_0, # of connection points: 3
#     Node 2, Type 0, BuildingBlock: WUSLED_clean_sbu_0, # of connection points: 3
#     Node 3, Type 0, BuildingBlock: WUSLED_clean_sbu_0, # of connection points: 3
#     Node 4, Type 0, BuildingBlock: WUSLED_clean_sbu_0, # of connection points: 3
#     Node 5, Type 0, BuildingBlock: WUSLED_clean_sbu_0, # of connection points: 3
#     Node 6, Type 0, BuildingBlock: WUSLED_clean_sbu_0, # of connection points: 3
#     Node 7, Type 0, BuildingBlock: WUSLED_clean_sbu_0, # of connection points: 3
#     Edge 8, Type (0, 0), None
#     Edge 9, Type (0, 0), None
#     Edge 10, Type (0, 0), None
#     Edge 11, Type (0, 0), None
#     Edge 12, Type (0, 0), None
#     Edge 13, Type (0, 0), None
#     Edge 14, Type (0, 0), None
#     Edge 15, Type (0, 0), None
#     Edge 16, Type (0, 0), None
#     Edge 17, Type (0, 0), None
#     Edge 18, Type (0, 0), None
#     Edge 19, Type (0, 0), None
# Relax obj value: 0.074
# Max RMSD: 0.069
# Mean RMSD: 0.069
data_MOF--net-cdt--node1-WUSLED_clean_sbu_0--edge1-none
_symmetry_space_group_name_H-M    P1
_symmetry_Int_Tables_number       1
_symmetry_cell_setting            triclinic
loop_
_symmetry_equiv_pos_as_xyz
'x, y, z'
_cell_length_a     30.221681
_cell_length_b     19.600366
_cell_length_c     47.452963
_cell_angle_alpha  90.000187
_cell_angle_beta   89.999728
_cell_angle_gamma 89.998777
loop_
_atom_site_label
_atom_site_type_symbol
_atom_site_fract_x
_atom_site_fract_y
_atom_site_fract_z
_atom_type_partial_charge
C0 C 0.33483 0.16992 0.06974 0.0
C1 C 0.3293 0.129 0.09375 0.0
C2 C 0.27337 0.06118 0.06948 0.0
C3 C 0.29899 0.07508 0.0936 0.0
C4 C 0.27913 0.1025 0.04546 0.0
C5 C 0.30959 0.15637 0.04562 0.0
U6 U 0.40989 0.28812 0.11075 0.0
O7 O 0.4762 0.32899 0.1012 0.0
O8 O 0.42047 0.39893 0.10783 0.0
C9 C 0.46203 0.39234 0.10003 0.0
C10 C 0.36611 0.2275 0.07005 0.0
C11 C 0.47557 0.43157 0.07488 0.0
C12 C 0.46144 0.47487 0.02764 0.0
C13 C 0.44816 0.43647 0.05108 0.0
C14 C 0.52997 0.5032 0.05131 0.0
C15 C 0.50254 0.50891 0.02743 0.0
C16 C 0.51658 0.46502 0.07475 0.0
C17 C 0.41076 0.25202 0.19173 0.0
C18 C 0.43345 0.3261 0.2302 0.0
C19 C 0.4075 0.21169 0.24012 0.0
C20 C 0.40176 0.20031 0.21129 0.0
C21 C 0.42248 0.27526 0.25007 0.0
C22 C 0.42753 0.31463 0.20126 0.0
C23 C 0.39844 0.24068 0.16208 0.0
O24 O 0.35174 0.28259 0.08289 0.0
O25 O 0.40708 0.21186 0.07677 0.0
O26 O 0.42952 0.21832 0.14506 0.0
O27 O 0.37286 0.28718 0.15056 0.0
H28 H 0.34845 0.13884 0.11263 0.0
H29 H 0.29596 0.04387 0.11233 0.0
H30 H 0.25959 0.09398 0.02666 0.0
H31 H 0.3132 0.18776 0.02697 0.0
H32 H 0.43915 0.47866 1.00984 0.0
H33 H 0.41636 0.41094 0.05068 0.0
H34 H 0.56211 0.52759 0.0518 0.0
H35 H 0.53834 0.46158 0.09285 0.0
H36 H 0.44567 0.37532 0.23704 0.0
H37 H 0.39805 0.17165 0.25464 0.0
H38 H 0.38856 0.15173 0.20432 0.0
H39 H 0.43476 0.35518 0.18644 0.0
C40 C 0.17924 0.89538 0.06974 0.0
C41 C 0.18476 0.9363 0.09375 0.0
C42 C 0.24069 1.00412 0.06948 0.0
C43 C 0.21507 0.99022 0.0936 0.0
C44 C 0.23493 0.96279 0.04546 0.0
C45 C 0.20448 0.90893 0.04562 0.0
U46 U 0.10418 0.77717 0.11075 0.0
O47 O 0.03787 0.73629 0.10121 0.0
O48 O 0.0936 0.66636 0.10783 0.0
C49 C 0.05204 0.67295 0.10004 0.0
C50 C 0.14795 0.8378 0.07005 0.0
C51 C 0.0385 0.63371 0.07489 0.0
C52 C 0.05261 0.59049 0.02763 0.0
C53 C 0.06589 0.6289 0.05107 0.0
C54 C 0.98412 0.56201 0.05133 0.0
C55 C 0.01153 0.55638 0.02743 0.0
C56 C 0.99752 0.6002 0.07477 0.0
C57 C 0.10331 0.81328 0.19173 0.0
C58 C 0.08062 0.7392 0.2302 0.0
C59 C 0.10657 0.8536 0.24012 0.0
C60 C 0.11232 0.86498 0.21129 0.0
C61 C 0.09159 0.79003 0.25007 0.0
C62 C 0.08654 0.75066 0.20126 0.0
C63 C 0.11563 0.82461 0.16208 0.0
O64 O 0.16233 0.7827 0.08289 0.0
O65 O 0.10699 0.85343 0.07677 0.0
O66 O 0.08455 0.84697 0.14506 0.0
O67 O 0.14121 0.77812 0.15055 0.0
H68 H 0.16561 0.92646 0.11262 0.0
H69 H 0.2181 1.02143 0.11233 0.0
H70 H 0.25448 0.97131 0.02666 0.0
H71 H 0.20086 0.87754 0.02697 0.0
H72 H 0.07487 0.58676 1.00982 0.0
H73 H 0.09766 0.65449 0.05065 0.0
H74 H 0.95201 0.53757 0.05183 0.0
H75 H 0.97577 0.60358 0.09287 0.0
H76 H 0.06839 0.68998 0.23703 0.0
H77 H 0.11602 0.89364 0.25464 0.0
H78 H 0.12551 0.91356 0.20432 0.0
H79 H 0.07931 0.71012 0.18644 0.0
C80 C 0.33482 0.39536 0.46128 0.0
C81 C 0.32931 0.43629 0.43728 0.0
C82 C 0.27337 0.5041 0.46155 0.0
C83 C 0.29899 0.49022 0.43743 0.0
C84 C 0.27912 0.46276 0.48556 0.0
C85 C 0.30957 0.4089 0.4854 0.0
U86 U 0.40989 0.27715 0.42028 0.0
O87 O 0.4762 0.23628 0.42983 0.0
O88 O 0.42047 0.16635 0.4232 0.0
C89 C 0.46202 0.17293 0.43099 0.0
C90 C 0.3661 0.33778 0.46098 0.0
C91 C 0.47556 0.1337 0.45615 0.0
C92 C 0.46141 0.09035 0.50338 0.0
C93 C 0.44812 0.12875 0.47994 0.0
C94 C 0.52998 0.06213 0.47973 0.0
C95 C 0.50253 0.05636 0.5036 0.0
C96 C 0.51659 0.10031 0.45629 0.0
C97 C 0.41076 0.31326 0.33929 0.0
C98 C 0.43345 0.23918 0.30083 0.0
C99 C 0.40749 0.35358 0.2909 0.0
C100 C 0.40175 0.36497 0.31974 0.0
C101 C 0.42247 0.29002 0.28096 0.0
C102 C 0.42753 0.25065 0.32976 0.0
C103 C 0.39843 0.3246 0.36894 0.0
O104 O 0.35173 0.28269 0.44813 0.0
O105 O 0.40707 0.35341 0.45426 0.0
O106 O 0.42952 0.34695 0.38597 0.0
O107 O 0.37286 0.2781 0.38047 0.0
H108 H 0.34846 0.42646 0.41841 0.0
H109 H 0.29597 0.52143 0.4187 0.0
H110 H 0.25956 0.47128 0.50436 0.0
H111 H 0.31318 0.3775 0.50405 0.0
H112 H 0.43911 0.08651 0.52117 0.0
H113 H 0.41632 0.15424 0.48033 0.0
H114 H 0.56214 0.03779 0.47925 0.0
H115 H 0.53837 0.1038 0.43821 0.0
H116 H 0.44568 0.18997 0.29399 0.0
H117 H 0.39804 0.39362 0.27638 0.0
H118 H 0.38855 0.41354 0.32671 0.0
H119 H 0.43476 0.21011 0.34458 0.0
C120 C 0.17923 0.66991 0.46128 0.0
C121 C 0.18476 0.62901 0.43728 0.0
C122 C 0.24068 0.56117 0.46155 0.0
C123 C 0.21507 0.57508 0.43742 0.0
C124 C 0.23491 0.60248 0.48557 0.0
C125 C 0.20446 0.65635 0.48541 0.0
U126 U 0.10417 0.78812 0.42028 0.0
O127 O 0.03786 0.82901 0.42982 0.0
O128 O 0.0936 0.89893 0.4232 0.0
C129 C 0.05204 0.89235 0.43099 0.0
C130 C 0.14795 0.7275 0.46098 0.0
C131 C 0.0385 0.93158 0.45614 0.0
C132 C 0.05262 0.97485 0.50339 0.0
C133 C 0.0659 0.93644 0.47995 0.0
C134 C 0.98411 1.00324 0.47971 0.0
C135 C 0.01153 1.00892 0.5036 0.0
C136 C 0.9975 0.96506 0.45627 0.0
C137 C 0.10331 0.75202 0.33929 0.0
C138 C 0.08062 0.8261 0.30083 0.0
C139 C 0.10658 0.7117 0.2909 0.0
C140 C 0.11232 0.70031 0.31973 0.0
C141 C 0.0916 0.77527 0.28096 0.0
C142 C 0.08654 0.81463 0.32976 0.0
C143 C 0.11563 0.74068 0.36894 0.0
O144 O 0.16232 0.78259 0.44814 0.0
O145 O 0.10698 0.71186 0.45426 0.0
O146 O 0.08454 0.71833 0.38597 0.0
O147 O 0.1412 0.78718 0.38047 0.0
H148 H 0.16562 0.63885 0.4184 0.0
H149 H 0.21811 0.54388 0.41869 0.0
H150 H 0.25445 0.59395 0.50437 0.0
H151 H 0.20084 0.68773 0.50406 0.0
H152 H 0.0749 0.97861 0.52119 0.0
H153 H 0.09769 0.91089 0.48036 0.0
H154 H 0.95197 1.02764 0.47922 0.0
H155 H 0.97574 0.96164 0.43817 0.0
H156 H 0.06839 0.87532 0.29399 0.0
H157 H 0.11603 0.67166 0.27638 0.0
H158 H 0.12552 0.65174 0.3267 0.0
H159 H 0.0793 0.85518 0.34458 0.0
C160 C 0.68025 0.89405 0.96183 0.0
C161 C 0.68545 0.93524 0.93788 0.0
C162 C 0.74086 1.0039 0.96223 0.0
C163 C 0.71534 0.98971 0.93809 0.0
C164 C 0.73536 0.9624 0.98622 0.0
C165 C 0.70533 0.90796 0.98599 0.0
U166 U 0.60731 0.77425 0.92023 0.0
O167 O 0.59856 0.66283 0.92285 0.0
O168 O 0.54167 0.73064 0.92907 0.0
C169 C 0.55672 0.66774 0.93015 0.0
C170 C 0.64973 0.83552 0.96134 0.0
C171 C 0.54344 0.62778 0.9551 0.0
C172 C 0.54004 0.61182 1.00591 0.0
C173 C 0.55329 0.65025 0.98247 0.0
C174 C 0.50724 0.52779 0.97489 0.0
C175 C 0.51677 0.55002 1.00246 0.0
C176 C 0.52043 0.56633 0.95149 0.0
C177 C 0.60692 0.81214 0.83939 0.0
C178 C 0.5845 0.7386 0.80069 0.0
C179 C 0.6105 0.85315 0.79112 0.0
C180 C 0.61608 0.86411 0.81999 0.0
C181 C 0.59555 0.78975 0.78098 0.0
C182 C 0.59025 0.74964 0.82967 0.0
C183 C 0.61876 0.82322 0.86914 0.0
O184 O 0.60861 0.84989 0.9545 0.0
O185 O 0.66498 0.7811 0.94842 0.0
O186 O 0.64483 0.7773 0.88061 0.0
O187 O 0.58716 0.84413 0.88608 0.0
H188 H 0.66644 0.9251 0.91897 0.0
H189 H 0.71815 1.02105 0.91939 0.0
H190 H 0.75484 0.97118 1.00502 0.0
H191 H 0.70198 0.87635 1.0046 0.0
H192 H 0.54751 0.6311 0.02676 0.0
H193 H 0.57104 0.69765 0.98568 0.0
H194 H 0.49006 0.4801 0.97131 0.0
H195 H 0.51267 0.54801 0.93052 0.0
H196 H 0.5723 0.68949 0.79371 0.0
H197 H 0.62001 0.89341 0.77671 0.0
H198 H 0.62919 0.91261 0.82711 0.0
H199 H 0.5829 0.70891 0.84438 0.0
C200 C 0.83384 0.17123 0.96183 0.0
C201 C 0.82864 0.13003 0.93788 0.0
C202 C 0.77323 0.06138 0.96223 0.0
C203 C 0.79876 0.07556 0.93809 0.0
C204 C 0.77873 0.10287 0.98622 0.0
C205 C 0.80876 0.15731 0.98599 0.0
U206 U 0.90677 0.29103 0.92023 0.0
O207 O 0.91552 0.40245 0.92285 0.0
O208 O 0.97241 0.33465 0.92907 0.0
C209 C 0.95736 0.39755 0.93015 0.0
C210 C 0.86436 0.22976 0.96134 0.0
C211 C 0.97064 0.43751 0.9551 0.0
C212 C 0.97408 0.45343 1.00591 0.0
C213 C 0.96083 0.415 0.98247 0.0
C214 C 1.00678 0.53754 0.97489 0.0
C215 C 0.99731 0.51527 1.00246 0.0
C216 C 0.9936 0.49901 0.9515 0.0
C217 C 0.90716 0.25315 0.83939 0.0
C218 C 0.92958 0.32669 0.80069 0.0
C219 C 0.90358 0.21214 0.79111 0.0
C220 C 0.89801 0.20117 0.81999 0.0
C221 C 0.91853 0.27554 0.78098 0.0
C222 C 0.92384 0.31564 0.82967 0.0
C223 C 0.89532 0.24206 0.86913 0.0
O224 O 0.90548 0.21539 0.95449 0.0
O225 O 0.84911 0.28418 0.94842 0.0
O226 O 0.86925 0.28798 0.88061 0.0
O227 O 0.92693 0.22115 0.88608 0.0
H228 H 0.84765 0.14017 0.91897 0.0
H229 H 0.79594 0.04422 0.91939 0.0
H230 H 0.75925 0.09409 1.00502 0.0
H231 H 0.81211 0.18892 1.0046 0.0
H232 H 0.96665 0.4341 0.02676 0.0
H233 H 0.94312 0.36756 0.98569 0.0
H234 H 0.02392 0.58527 0.97131 0.0
H235 H 1.00131 0.51736 0.93052 0.0
H236 H 0.94178 0.3758 0.79371 0.0
H237 H 0.89408 0.17188 0.77671 0.0
H238 H 0.8849 0.15268 0.82711 0.0
H239 H 0.93119 0.35638 0.84438 0.0
C240 C 0.68024 0.67124 0.56919 0.0
C241 C 0.68544 0.63005 0.59315 0.0
C242 C 0.74085 0.56139 0.5688 0.0
C243 C 0.71533 0.57557 0.59294 0.0
C244 C 0.73535 0.60288 0.54481 0.0
C245 C 0.70532 0.65732 0.54504 0.0
U246 U 0.6073 0.79103 0.61081 0.0
O247 O 0.59855 0.90245 0.60818 0.0
O248 O 0.54166 0.83464 0.60196 0.0
C249 C 0.5567 0.89754 0.60089 0.0
C250 C 0.64972 0.72977 0.56969 0.0
C251 C 0.54343 0.9375 0.57593 0.0
C252 C 0.54007 0.95349 0.52512 0.0
C253 C 0.55332 0.91507 0.54857 0.0
C254 C 0.50719 0.03745 0.55614 0.0
C255 C 0.51675 1.01526 0.52857 0.0
C256 C 0.52037 0.99892 0.57954 0.0
C257 C 0.60692 0.75314 0.69164 0.0
C258 C 0.58449 0.82668 0.73034 0.0
C259 C 0.61051 0.71214 0.73992 0.0
C260 C 0.61608 0.70117 0.71104 0.0
C261 C 0.59555 0.77553 0.75005 0.0
C262 C 0.59024 0.81563 0.70136 0.0
C263 C 0.61876 0.74206 0.6619 0.0
O264 O 0.6086 0.71539 0.57654 0.0
O265 O 0.66497 0.78419 0.58261 0.0
O266 O 0.64482 0.78798 0.65042 0.0
O267 O 0.58715 0.72115 0.64495 0.0
H268 H 0.66644 0.64018 0.61206 0.0
H269 H 0.71815 0.54424 0.61164 0.0
H270 H 0.75483 0.5941 0.526 0.0
H271 H 0.70197 0.68894 0.52643 0.0
H272 H 0.54758 0.93423 0.50428 0.0
H273 H 0.5711 0.8677 0.54535 0.0
H274 H 0.48997 0.08512 0.55972 0.0
H275 H 0.51258 1.01721 0.60051 0.0
H276 H 0.57228 0.87579 0.73732 0.0
H277 H 0.62002 0.67188 0.75432 0.0
H278 H 0.6292 0.65268 0.70392 0.0
H279 H 0.58288 0.85636 0.68665 0.0
C280 C 0.83383 0.39406 0.5692 0.0
C281 C 0.82864 0.43525 0.59315 0.0
C282 C 0.77323 0.50391 0.5688 0.0
C283 C 0.79875 0.48973 0.59294 0.0
C284 C 0.77873 0.46242 0.54481 0.0
C285 C 0.80876 0.40798 0.54504 0.0
U286 U 0.90677 0.27426 0.61081 0.0
O287 O 0.91552 0.16284 0.60818 0.0
O288 O 0.97241 0.23064 0.60196 0.0
C289 C 0.95736 0.16774 0.60089 0.0
C290 C 0.86436 0.33553 0.56969 0.0
C291 C 0.97064 0.12778 0.57593 0.0
C292 C 0.97405 0.11184 0.52512 0.0
C293 C 0.9608 0.15027 0.54857 0.0
C294 C 1.00681 1.02778 0.55614 0.0
C295 C 0.99731 0.05002 0.52857 0.0
C296 C 0.99363 0.06631 0.57953 0.0
C297 C 0.90716 0.31215 0.69164 0.0
C298 C 0.92959 0.23861 0.73034 0.0
C299 C 0.90357 0.35315 0.73992 0.0
C300 C 0.898 0.36412 0.71104 0.0
C301 C 0.91853 0.28976 0.75005 0.0
C302 C 0.92384 0.24966 0.70136 0.0
C303 C 0.89532 0.32323 0.6619 0.0
O304 O 0.90547 0.3499 0.57654 0.0
O305 O 0.84911 0.28111 0.58261 0.0
O306 O 0.86925 0.27732 0.65042 0.0
O307 O 0.92693 0.34414 0.64495 0.0
H308 H 0.84764 0.42512 0.61206 0.0
H309 H 0.79593 0.52107 0.61164 0.0
H310 H 0.75925 0.47119 0.52601 0.0
H311 H 0.81211 0.37636 0.52643 0.0
H312 H 0.96659 0.13114 0.50428 0.0
H313 H 0.94307 0.19768 0.54535 0.0
H314 H 0.02398 0.98007 0.55972 0.0
H315 H 1.00137 0.04797 0.60051 0.0
H316 H 0.9418 0.18951 0.73732 0.0
H317 H 0.89406 0.39341 0.75432 0.0
H318 H 0.88488 0.41261 0.70392 0.0
H319 H 0.9312 0.20893 0.68665 0.0
loop_
_geom_bond_atom_site_label_1
_geom_bond_atom_site_label_2
_geom_bond_distance
_geom_bond_site_symmetry_2
_ccdc_geom_bond_type
C0 C1 1.264 1_545 S
C0 C5 1.479 . S
C0 C10 1.465 . S
C1 C0 1.264 1_565 S
C1 C3 1.339 . S
C1 H28 0.931 . S
C2 C3 1.395 . S
C2 C4 1.320 . S
C3 C1 1.339 . S
C3 C2 1.395 . S
C3 H29 0.929 . S
C4 C2 1.320 . S
C4 C5 1.405 1_565 S
C4 H30 0.930 . S
C5 C0 1.479 . S
C5 C4 1.405 1_545 S
C5 H31 0.931 . S
U6 O7 2.454 . S
U6 O8 2.458 . S
U6 C9 2.984 . S
U6 C10 2.847 . S
U6 C23 2.882 . S
U6 O24 2.441 . S
U6 O25 2.420 . S
U6 O26 2.455 . S
U6 O27 2.449 . S
O7 U6 2.454 . S
O7 C9 1.353 . S
O8 U6 2.458 . S
O8 C9 1.286 . S
C9 U6 2.984 . S
C9 O7 1.353 . S
C9 O8 1.286 . S
C9 C11 1.363 . S
C10 C0 1.465 . S
C10 U6 2.847 . S
C10 O24 1.249 . S
C10 O25 1.202 . S
C11 C9 1.363 . S
C11 C13 1.408 . S
C11 C16 1.342 . S
C12 C13 1.310 1_556 S
C12 C15 1.461 . S
C12 H32 0.932 . S
C13 C11 1.408 . S
C13 C12 1.310 1_554 S
C13 H33 0.930 1_554 S
C14 C15 1.474 1_554 S
C14 C16 1.285 . S
C14 H34 0.929 . S
C15 C12 1.461 . S
C15 C14 1.474 1_556 S
C16 C11 1.342 . S
C16 C14 1.285 . S
C16 H35 0.930 . S
C17 C20 1.424 . S
C17 C22 1.245 . S
C17 C23 1.428 . S
C18 C21 1.260 . S
C18 C22 1.477 . S
C18 H36 0.932 . S
C19 C20 1.384 . S
C19 C21 1.479 . S
C19 H37 0.929 . S
C20 C17 1.424 . S
C20 C19 1.384 . S
C20 H38 0.928 . S
C21 C18 1.260 . S
C21 C19 1.479 . S
C22 C17 1.245 . S
C22 C18 1.477 . S
C22 H39 0.932 . S
C23 U6 2.882 . S
C23 C17 1.428 . S
C23 O26 1.301 . S
C23 O27 1.282 . S
O24 U6 2.441 . S
O24 C10 1.249 . S
O25 U6 2.420 . S
O25 C10 1.202 . S
O26 U6 2.455 . S
O26 C23 1.301 . S
O27 U6 2.449 . S
O27 C23 1.282 . S
H28 C1 0.931 . S
H29 C3 0.929 . S
H30 C4 0.930 . S
H31 C5 0.931 . S
H32 C12 0.932 . S
H33 C13 0.930 1_556 S
H34 C14 0.929 . S
H35 C16 0.930 . S
H36 C18 0.932 . S
H37 C19 0.929 . S
H38 C20 0.928 . S
H39 C22 0.932 . S
C40 C41 1.264 1_565 S
C40 C45 1.479 . S
C40 C50 1.465 . S
C41 C40 1.264 1_545 S
C41 C43 1.339 . S
C41 H68 0.931 . S
C42 C43 1.395 . S
C42 C44 1.320 . S
C43 C41 1.339 . S
C43 C42 1.395 . S
C43 H69 0.929 . S
C44 C42 1.320 . S
C44 C45 1.405 1_545 S
C44 H70 0.930 . S
C45 C40 1.479 . S
C45 C44 1.405 1_565 S
C45 H71 0.931 . S
U46 O47 2.454 . S
U46 O48 2.458 1_455 S
U46 C49 2.984 1_455 S
U46 C50 2.847 . S
U46 C63 2.882 1_455 S
U46 O64 2.441 . S
U46 O65 2.420 . S
U46 O66 2.455 1_455 S
U46 O67 2.449 . S
O47 U46 2.454 . S
O47 C49 1.353 1_455 S
O48 U46 2.458 1_655 S
O48 C49 1.286 . S
C49 U46 2.984 1_655 S
C49 O47 1.353 1_655 S
C49 O48 1.286 . S
C49 C51 1.363 . S
C50 C40 1.465 . S
C50 U46 2.847 . S
C50 O64 1.249 . S
C50 O65 1.202 . S
C51 C49 1.363 . S
C51 C53 1.408 . S
C51 C56 1.342 . S
C52 C53 1.310 1_556 S
C52 C55 1.461 . S
C52 H72 0.932 . S
C53 C51 1.408 . S
C53 C52 1.310 1_554 S
C53 H73 0.930 1_654 S
C54 C55 1.474 1_554 S
C54 C56 1.285 . S
C54 H74 0.929 . S
C55 C52 1.461 . S
C55 C54 1.474 1_556 S
C56 C51 1.342 . S
C56 C54 1.285 . S
C56 H75 0.930 . S
C57 C60 1.424 . S
C57 C62 1.245 . S
C57 C63 1.428 . S
C58 C61 1.260 . S
C58 C62 1.477 . S
C58 H76 0.932 . S
C59 C60 1.384 . S
C59 C61 1.479 . S
C59 H77 0.929 . S
C60 C57 1.424 . S
C60 C59 1.384 . S
C60 H78 0.928 1_655 S
C61 C58 1.260 . S
C61 C59 1.479 . S
C62 C57 1.245 . S
C62 C58 1.477 . S
C62 H79 0.932 . S
C63 U46 2.882 1_655 S
C63 C57 1.428 . S
C63 O66 1.301 . S
C63 O67 1.282 1_655 S
O64 U46 2.441 . S
O64 C50 1.249 . S
O65 U46 2.420 . S
O65 C50 1.202 . S
O66 U46 2.455 1_655 S
O66 C63 1.301 . S
O67 U46 2.449 . S
O67 C63 1.282 1_455 S
H68 C41 0.931 . S
H69 C43 0.929 . S
H70 C44 0.930 . S
H71 C45 0.931 . S
H72 C52 0.932 . S
H73 C53 0.930 1_456 S
H74 C54 0.929 . S
H75 C56 0.930 . S
H76 C58 0.932 . S
H77 C59 0.929 . S
H78 C60 0.928 1_455 S
H79 C62 0.932 . S
C80 C81 1.264 . S
C80 C85 1.479 . S
C80 C90 1.465 . S
C81 C80 1.264 . S
C81 C83 1.339 . S
C81 H108 0.931 . S
C82 C83 1.395 . S
C82 C84 1.320 . S
C83 C81 1.339 . S
C83 C82 1.395 . S
C83 H109 0.929 . S
C84 C82 1.320 . S
C84 C85 1.405 . S
C84 H110 0.930 . S
C85 C80 1.479 . S
C85 C84 1.405 . S
C85 H111 0.931 . S
U86 O87 2.454 . S
U86 O88 2.458 . S
U86 C89 2.984 . S
U86 C90 2.847 . S
U86 C103 2.882 . S
U86 O104 2.441 . S
U86 O105 2.420 . S
U86 O106 2.455 . S
U86 O107 2.449 . S
O87 U86 2.454 . S
O87 C89 1.353 . S
O88 U86 2.458 . S
O88 C89 1.286 . S
C89 U86 2.984 . S
C89 O87 1.353 . S
C89 O88 1.286 . S
C89 C91 1.363 . S
C90 C80 1.465 . S
C90 U86 2.847 . S
C90 O104 1.249 . S
C90 O105 1.202 . S
C91 C89 1.363 . S
C91 C93 1.408 . S
C91 C96 1.342 . S
C92 C93 1.310 . S
C92 C95 1.461 . S
C92 H112 0.932 . S
C93 C91 1.408 . S
C93 C92 1.310 . S
C93 H113 0.930 . S
C94 C95 1.474 . S
C94 C96 1.285 . S
C94 H114 0.929 . S
C95 C92 1.461 . S
C95 C94 1.474 . S
C96 C91 1.342 . S
C96 C94 1.285 . S
C96 H115 0.930 . S
C97 C100 1.424 . S
C97 C102 1.245 . S
C97 C103 1.428 . S
C98 C101 1.260 . S
C98 C102 1.477 . S
C98 H116 0.932 . S
C99 C100 1.384 . S
C99 C101 1.479 . S
C99 H117 0.929 . S
C100 C97 1.424 . S
C100 C99 1.384 . S
C100 H118 0.928 . S
C101 C98 1.260 . S
C101 C99 1.479 . S
C102 C97 1.245 . S
C102 C98 1.477 . S
C102 H119 0.932 . S
C103 U86 2.882 . S
C103 C97 1.428 . S
C103 O106 1.301 . S
C103 O107 1.282 . S
O104 U86 2.441 . S
O104 C90 1.249 . S
O105 U86 2.420 . S
O105 C90 1.202 . S
O106 U86 2.455 . S
O106 C103 1.301 . S
O107 U86 2.449 . S
O107 C103 1.282 . S
H108 C81 0.931 . S
H109 C83 0.929 . S
H110 C84 0.930 . S
H111 C85 0.931 . S
H112 C92 0.932 . S
H113 C93 0.930 . S
H114 C94 0.929 . S
H115 C96 0.930 . S
H116 C98 0.932 . S
H117 C99 0.929 . S
H118 C100 0.928 . S
H119 C102 0.932 . S
C120 C121 1.264 . S
C120 C125 1.479 . S
C120 C130 1.465 . S
C121 C120 1.264 . S
C121 C123 1.339 . S
C121 H148 0.931 . S
C122 C123 1.395 . S
C122 C124 1.320 . S
C123 C121 1.339 . S
C123 C122 1.395 . S
C123 H149 0.929 . S
C124 C122 1.320 . S
C124 C125 1.405 . S
C124 H150 0.930 . S
C125 C120 1.479 . S
C125 C124 1.405 . S
C125 H151 0.931 . S
U126 O127 2.454 . S
U126 O128 2.458 1_455 S
U126 C129 2.984 1_455 S
U126 C130 2.847 . S
U126 C143 2.882 1_455 S
U126 O144 2.441 . S
U126 O145 2.420 . S
U126 O146 2.455 1_455 S
U126 O147 2.449 . S
O127 U126 2.454 . S
O127 C129 1.353 1_455 S
O128 U126 2.458 1_655 S
O128 C129 1.286 . S
C129 U126 2.984 1_655 S
C129 O127 1.353 1_655 S
C129 O128 1.286 . S
C129 C131 1.363 . S
C130 C120 1.465 . S
C130 U126 2.847 . S
C130 O144 1.249 . S
C130 O145 1.202 . S
C131 C129 1.363 . S
C131 C133 1.408 . S
C131 C136 1.342 . S
C132 C133 1.310 . S
C132 C135 1.461 . S
C132 H152 0.932 . S
C133 C131 1.408 . S
C133 C132 1.310 . S
C133 H153 0.930 1_655 S
C134 C135 1.474 . S
C134 C136 1.285 . S
C134 H154 0.929 . S
C135 C132 1.461 . S
C135 C134 1.474 . S
C136 C131 1.342 . S
C136 C134 1.285 . S
C136 H155 0.930 . S
C137 C140 1.424 . S
C137 C142 1.245 . S
C137 C143 1.428 . S
C138 C141 1.260 . S
C138 C142 1.477 . S
C138 H156 0.932 . S
C139 C140 1.384 . S
C139 C141 1.479 . S
C139 H157 0.929 . S
C140 C137 1.424 . S
C140 C139 1.384 . S
C140 H158 0.928 1_655 S
C141 C138 1.260 . S
C141 C139 1.479 . S
C142 C137 1.245 . S
C142 C138 1.477 . S
C142 H159 0.932 . S
C143 U126 2.882 1_655 S
C143 C137 1.428 . S
C143 O146 1.301 . S
C143 O147 1.282 1_655 S
O144 U126 2.441 . S
O144 C130 1.249 . S
O145 U126 2.420 . S
O145 C130 1.202 . S
O146 U126 2.455 1_655 S
O146 C143 1.301 . S
O147 U126 2.449 . S
O147 C143 1.282 1_455 S
H148 C121 0.931 . S
H149 C123 0.929 . S
H150 C124 0.930 . S
H151 C125 0.931 . S
H152 C132 0.932 . S
H153 C133 0.930 1_455 S
H154 C134 0.929 . S
H155 C136 0.930 . S
H156 C138 0.932 . S
H157 C139 0.929 . S
H158 C140 0.928 1_455 S
H159 C142 0.932 . S
C160 C161 1.264 . S
C160 C165 1.479 . S
C160 C170 1.465 . S
C161 C160 1.264 . S
C161 C163 1.339 1_565 S
C161 H188 0.931 . S
C162 C163 1.395 . S
C162 C164 1.320 . S
C163 C161 1.339 1_545 S
C163 C162 1.395 . S
C163 H189 0.929 . S
C164 C162 1.320 . S
C164 C165 1.405 1_545 S
C164 H190 0.930 . S
C165 C160 1.479 . S
C165 C164 1.405 1_565 S
C165 H191 0.931 . S
U166 O167 2.454 . S
U166 O168 2.458 . S
U166 C169 2.984 . S
U166 C170 2.847 . S
U166 C183 2.882 . S
U166 O184 2.441 . S
U166 O185 2.420 . S
U166 O186 2.455 . S
U166 O187 2.449 . S
O167 U166 2.454 . S
O167 C169 1.353 . S
O168 U166 2.458 . S
O168 C169 1.286 . S
C169 U166 2.984 . S
C169 O167 1.353 . S
C169 O168 1.286 . S
C169 C171 1.363 . S
C170 C160 1.465 . S
C170 U166 2.847 . S
C170 O184 1.249 . S
C170 O185 1.202 . S
C171 C169 1.363 . S
C171 C173 1.408 . S
C171 C176 1.342 . S
C172 C173 1.310 1_554 S
C172 C175 1.461 . S
C172 H192 0.932 . S
C173 C171 1.408 . S
C173 C172 1.310 1_556 S
C173 H193 0.938 . S
C174 C175 1.474 1_556 S
C174 C176 1.285 . S
C174 H194 0.929 . S
C175 C172 1.461 . S
C175 C174 1.474 1_554 S
C176 C171 1.342 . S
C176 C174 1.285 . S
C176 H195 0.930 . S
C177 C180 1.424 . S
C177 C182 1.245 . S
C177 C183 1.428 . S
C178 C181 1.260 . S
C178 C182 1.477 . S
C178 H196 0.932 . S
C179 C180 1.384 . S
C179 C181 1.479 . S
C179 H197 0.929 . S
C180 C177 1.424 . S
C180 C179 1.384 . S
C180 H198 0.928 . S
C181 C178 1.260 . S
C181 C179 1.479 . S
C182 C177 1.245 . S
C182 C178 1.477 . S
C182 H199 0.932 . S
C183 U166 2.882 . S
C183 C177 1.428 . S
C183 O186 1.301 . S
C183 O187 1.282 . S
O184 U166 2.441 . S
O184 C170 1.249 . S
O185 U166 2.420 . S
O185 C170 1.202 . S
O186 U166 2.455 . S
O186 C183 1.301 . S
O187 U166 2.449 . S
O187 C183 1.282 . S
H188 C161 0.931 . S
H189 C163 0.929 . S
H190 C164 0.930 . S
H191 C165 0.931 . S
H192 C172 0.932 . S
H193 C173 0.938 . S
H194 C174 0.929 . S
H195 C176 0.930 . S
H196 C178 0.932 . S
H197 C179 0.929 . S
H198 C180 0.928 . S
H199 C182 0.932 . S
C200 C201 1.264 . S
C200 C205 1.479 . S
C200 C210 1.465 . S
C201 C200 1.264 . S
C201 C203 1.339 1_545 S
C201 H228 0.931 . S
C202 C203 1.395 . S
C202 C204 1.320 . S
C203 C201 1.339 1_565 S
C203 C202 1.395 . S
C203 H229 0.929 . S
C204 C202 1.320 . S
C204 C205 1.405 1_565 S
C204 H230 0.930 . S
C205 C200 1.479 . S
C205 C204 1.405 1_545 S
C205 H231 0.931 . S
U206 O207 2.454 . S
U206 O208 2.458 1_655 S
U206 C209 2.984 . S
U206 C210 2.847 . S
U206 C223 2.882 . S
U206 O224 2.441 . S
U206 O225 2.420 . S
U206 O226 2.455 . S
U206 O227 2.449 . S
O207 U206 2.454 . S
O207 C209 1.353 . S
O208 U206 2.458 1_455 S
O208 C209 1.286 1_455 S
C209 U206 2.984 . S
C209 O207 1.353 . S
C209 O208 1.286 1_655 S
C209 C211 1.363 1_655 S
C210 C200 1.465 . S
C210 U206 2.847 . S
C210 O224 1.249 . S
C210 O225 1.202 . S
C211 C209 1.363 1_455 S
C211 C213 1.408 1_455 S
C211 C216 1.342 . S
C212 C213 1.310 1_454 S
C212 C215 1.461 . S
C212 H232 0.932 . S
C213 C211 1.408 1_655 S
C213 C212 1.310 1_656 S
C213 H233 0.938 . S
C214 C215 1.474 1_556 S
C214 C216 1.285 . S
C214 H234 0.929 . S
C215 C212 1.461 . S
C215 C214 1.474 1_554 S
C216 C211 1.342 . S
C216 C214 1.285 . S
C216 H235 0.930 . S
C217 C220 1.424 . S
C217 C222 1.245 1_655 S
C217 C223 1.428 . S
C218 C221 1.260 . S
C218 C222 1.477 . S
C218 H236 0.932 . S
C219 C220 1.384 1_455 S
C219 C221 1.479 . S
C219 H237 0.929 1_455 S
C220 C217 1.424 . S
C220 C219 1.384 1_655 S
C220 H238 0.928 . S
C221 C218 1.260 . S
C221 C219 1.479 . S
C222 C217 1.245 1_455 S
C222 C218 1.477 . S
C222 H239 0.932 . S
C223 U206 2.882 . S
C223 C217 1.428 . S
C223 O226 1.301 . S
C223 O227 1.282 . S
O224 U206 2.441 . S
O224 C210 1.249 . S
O225 U206 2.420 . S
O225 C210 1.202 . S
O226 U206 2.455 . S
O226 C223 1.301 . S
O227 U206 2.449 . S
O227 C223 1.282 . S
H228 C201 0.931 . S
H229 C203 0.929 . S
H230 C204 0.930 . S
H231 C205 0.931 . S
H232 C212 0.932 . S
H233 C213 0.938 . S
H234 C214 0.929 . S
H235 C216 0.930 . S
H236 C218 0.932 . S
H237 C219 0.929 1_655 S
H238 C220 0.928 . S
H239 C222 0.932 . S
C240 C241 1.264 . S
C240 C245 1.479 . S
C240 C250 1.465 . S
C241 C240 1.264 . S
C241 C243 1.339 . S
C241 H268 0.931 . S
C242 C243 1.395 . S
C242 C244 1.320 . S
C243 C241 1.339 . S
C243 C242 1.395 . S
C243 H269 0.929 . S
C244 C242 1.320 . S
C244 C245 1.405 . S
C244 H270 0.930 . S
C245 C240 1.479 . S
C245 C244 1.405 . S
C245 H271 0.931 . S
U246 O247 2.454 . S
U246 O248 2.458 . S
U246 C249 2.984 . S
U246 C250 2.847 . S
U246 C263 2.882 . S
U246 O264 2.441 . S
U246 O265 2.420 . S
U246 O266 2.455 . S
U246 O267 2.449 . S
O247 U246 2.454 . S
O247 C249 1.353 . S
O248 U246 2.458 . S
O248 C249 1.286 . S
C249 U246 2.984 . S
C249 O247 1.353 . S
C249 O248 1.286 . S
C249 C251 1.363 . S
C250 C240 1.465 . S
C250 U246 2.847 . S
C250 O264 1.249 . S
C250 O265 1.202 . S
C251 C249 1.363 . S
C251 C253 1.408 . S
C251 C256 1.342 . S
C252 C253 1.310 . S
C252 C255 1.461 . S
C252 H272 0.932 . S
C253 C251 1.408 . S
C253 C252 1.310 . S
C253 H273 0.930 . S
C254 C255 1.474 . S
C254 C256 1.285 . S
C254 H274 0.929 . S
C255 C252 1.461 . S
C255 C254 1.474 . S
C256 C251 1.342 . S
C256 C254 1.285 . S
C256 H275 0.930 . S
C257 C260 1.424 . S
C257 C262 1.245 . S
C257 C263 1.428 . S
C258 C261 1.260 . S
C258 C262 1.477 . S
C258 H276 0.932 . S
C259 C260 1.384 . S
C259 C261 1.479 . S
C259 H277 0.929 . S
C260 C257 1.424 . S
C260 C259 1.384 . S
C260 H278 0.928 . S
C261 C258 1.260 . S
C261 C259 1.479 . S
C262 C257 1.245 . S
C262 C258 1.477 . S
C262 H279 0.932 . S
C263 U246 2.882 . S
C263 C257 1.428 . S
C263 O266 1.301 . S
C263 O267 1.282 . S
O264 U246 2.441 . S
O264 C250 1.249 . S
O265 U246 2.420 . S
O265 C250 1.202 . S
O266 U246 2.455 . S
O266 C263 1.301 . S
O267 U246 2.449 . S
O267 C263 1.282 . S
H268 C241 0.931 . S
H269 C243 0.929 . S
H270 C244 0.930 . S
H271 C245 0.931 . S
H272 C252 0.932 . S
H273 C253 0.930 . S
H274 C254 0.929 . S
H275 C256 0.930 . S
H276 C258 0.932 . S
H277 C259 0.929 . S
H278 C260 0.928 . S
H279 C262 0.932 . S
C280 C281 1.264 . S
C280 C285 1.479 . S
C280 C290 1.465 . S
C281 C280 1.264 . S
C281 C283 1.339 . S
C281 H308 0.931 . S
C282 C283 1.395 . S
C282 C284 1.320 . S
C283 C281 1.339 . S
C283 C282 1.395 . S
C283 H309 0.929 . S
C284 C282 1.320 . S
C284 C285 1.405 . S
C284 H310 0.930 . S
C285 C280 1.479 . S
C285 C284 1.405 . S
C285 H311 0.931 . S
U286 O287 2.454 . S
U286 O288 2.458 1_655 S
U286 C289 2.984 . S
U286 C290 2.847 . S
U286 C303 2.882 . S
U286 O304 2.441 . S
U286 O305 2.420 . S
U286 O306 2.455 . S
U286 O307 2.449 . S
O287 U286 2.454 . S
O287 C289 1.353 . S
O288 U286 2.458 1_455 S
O288 C289 1.286 1_455 S
C289 U286 2.984 . S
C289 O287 1.353 . S
C289 O288 1.286 1_655 S
C289 C291 1.363 1_655 S
C290 C280 1.465 . S
C290 U286 2.847 . S
C290 O304 1.249 . S
C290 O305 1.202 . S
C291 C289 1.363 1_455 S
C291 C293 1.408 1_455 S
C291 C296 1.342 . S
C292 C293 1.310 1_455 S
C292 C295 1.461 . S
C292 H312 0.932 . S
C293 C291 1.408 1_655 S
C293 C292 1.310 1_655 S
C293 H313 0.930 . S
C294 C295 1.474 . S
C294 C296 1.285 . S
C294 H314 0.929 . S
C295 C292 1.461 . S
C295 C294 1.474 . S
C296 C291 1.342 . S
C296 C294 1.285 . S
C296 H315 0.930 . S
C297 C300 1.424 . S
C297 C302 1.245 1_655 S
C297 C303 1.428 . S
C298 C301 1.260 . S
C298 C302 1.477 . S
C298 H316 0.932 . S
C299 C300 1.384 1_455 S
C299 C301 1.479 . S
C299 H317 0.929 1_455 S
C300 C297 1.424 . S
C300 C299 1.384 1_655 S
C300 H318 0.928 . S
C301 C298 1.260 . S
C301 C299 1.479 . S
C302 C297 1.245 1_455 S
C302 C298 1.477 . S
C302 H319 0.932 . S
C303 U286 2.882 . S
C303 C297 1.428 . S
C303 O306 1.301 . S
C303 O307 1.282 . S
O304 U286 2.441 . S
O304 C290 1.249 . S
O305 U286 2.420 . S
O305 C290 1.202 . S
O306 U286 2.455 . S
O306 C303 1.301 . S
O307 U286 2.449 . S
O307 C303 1.282 . S
H308 C281 0.931 . S
H309 C283 0.929 . S
H310 C284 0.930 . S
H311 C285 0.931 . S
H312 C292 0.932 . S
H313 C293 0.930 . S
H314 C294 0.929 . S
H315 C296 0.930 . S
H316 C298 0.932 . S
H317 C299 0.929 1_655 S
H318 C300 0.928 . S
H319 C302 0.932 . S
C2 C42 4.748 1_565 S
C82 C122 4.748 . S
C202 C162 4.107 1_565 S
C242 C282 4.106 . S
C15 C175 5.032 1_556 S
C215 C55 5.033 1_454 S
C95 C255 5.032 1_545 S
C295 C135 5.033 1_445 S
C101 C21 2.984 . S
C141 C61 2.985 . S
C261 C181 2.568 . S
C301 C221 2.568 . S
