# Generated by pormake.
# Topology wje, (4)-cn, num edge types: 1
# Building blocks:
#     Node 0, Type 0, BuildingBlock: UXUYUI_clean_sbu_0, # of connection points: 4
#     Node 1, Type 0, BuildingBlock: UXUYUI_clean_sbu_0, # of connection points: 4
#     Node 2, Type 0, BuildingBlock: UXUYUI_clean_sbu_0, # of connection points: 4
#     Node 3, Type 0, BuildingBlock: UXUYUI_clean_sbu_0, # of connection points: 4
#     Node 4, Type 0, BuildingBlock: UXUYUI_clean_sbu_0, # of connection points: 4
#     Node 5, Type 0, BuildingBlock: UXUYUI_clean_sbu_0, # of connection points: 4
#     Node 6, Type 0, BuildingBlock: UXUYUI_clean_sbu_0, # of connection points: 4
#     Node 7, Type 0, BuildingBlock: UXUYUI_clean_sbu_0, # of connection points: 4
#     Node 8, Type 0, BuildingBlock: UXUYUI_clean_sbu_0, # of connection points: 4
#     Node 9, Type 0, BuildingBlock: UXUYUI_clean_sbu_0, # of connection points: 4
#     Node 10, Type 0, BuildingBlock: UXUYUI_clean_sbu_0, # of connection points: 4
#     Node 11, Type 0, BuildingBlock: UXUYUI_clean_sbu_0, # of connection points: 4
#     Edge 12, Type (0, 0), BuildingBlock: KIFKEQ_clean_linker_1, # of connection points: 2
#     Edge 13, Type (0, 0), BuildingBlock: KIFKEQ_clean_linker_1, # of connection points: 2
#     Edge 14, Type (0, 0), BuildingBlock: KIFKEQ_clean_linker_1, # of connection points: 2
#     Edge 15, Type (0, 0), BuildingBlock: KIFKEQ_clean_linker_1, # of connection points: 2
#     Edge 16, Type (0, 0), BuildingBlock: KIFKEQ_clean_linker_1, # of connection points: 2
#     Edge 17, Type (0, 0), BuildingBlock: KIFKEQ_clean_linker_1, # of connection points: 2
#     Edge 18, Type (0, 0), BuildingBlock: KIFKEQ_clean_linker_1, # of connection points: 2
#     Edge 19, Type (0, 0), BuildingBlock: KIFKEQ_clean_linker_1, # of connection points: 2
#     Edge 20, Type (0, 0), BuildingBlock: KIFKEQ_clean_linker_1, # of connection points: 2
#     Edge 21, Type (0, 0), BuildingBlock: KIFKEQ_clean_linker_1, # of connection points: 2
#     Edge 22, Type (0, 0), BuildingBlock: KIFKEQ_clean_linker_1, # of connection points: 2
#     Edge 23, Type (0, 0), BuildingBlock: KIFKEQ_clean_linker_1, # of connection points: 2
#     Edge 24, Type (0, 0), BuildingBlock: KIFKEQ_clean_linker_1, # of connection points: 2
#     Edge 25, Type (0, 0), BuildingBlock: KIFKEQ_clean_linker_1, # of connection points: 2
#     Edge 26, Type (0, 0), BuildingBlock: KIFKEQ_clean_linker_1, # of connection points: 2
#     Edge 27, Type (0, 0), BuildingBlock: KIFKEQ_clean_linker_1, # of connection points: 2
#     Edge 28, Type (0, 0), BuildingBlock: KIFKEQ_clean_linker_1, # of connection points: 2
#     Edge 29, Type (0, 0), BuildingBlock: KIFKEQ_clean_linker_1, # of connection points: 2
#     Edge 30, Type (0, 0), BuildingBlock: KIFKEQ_clean_linker_1, # of connection points: 2
#     Edge 31, Type (0, 0), BuildingBlock: KIFKEQ_clean_linker_1, # of connection points: 2
#     Edge 32, Type (0, 0), BuildingBlock: KIFKEQ_clean_linker_1, # of connection points: 2
#     Edge 33, Type (0, 0), BuildingBlock: KIFKEQ_clean_linker_1, # of connection points: 2
#     Edge 34, Type (0, 0), BuildingBlock: KIFKEQ_clean_linker_1, # of connection points: 2
#     Edge 35, Type (0, 0), BuildingBlock: KIFKEQ_clean_linker_1, # of connection points: 2
# Relax obj value: 0.245
# Max RMSD: 0.179
# Mean RMSD: 0.178
data_MOF--net-wje--node1-UXUYUI_clean_sbu_0--edge1-KIFKEQ_clean_linker_1
_symmetry_space_group_name_H-M    P1
_symmetry_Int_Tables_number       1
_symmetry_cell_setting            triclinic
loop_
_symmetry_equiv_pos_as_xyz
'x, y, z'
_cell_length_a     63.005515
_cell_length_b     62.999158
_cell_length_c     49.17932
_cell_angle_alpha  89.994735
_cell_angle_beta   90.009104
_cell_angle_gamma 119.99432
loop_
_atom_site_label
_atom_site_type_symbol
_atom_site_fract_x
_atom_site_fract_y
_atom_site_fract_z
_atom_type_partial_charge
Li0 Li 0.35324 0.00644 0.26319 0.0
Li1 Li 0.34049 0.02033 0.30491 0.0
Li2 Li 0.31007 0.98993 0.27521 0.0
Li3 Li 0.33228 0.03174 0.26108 0.0
C4 C 0.32483 0.96449 0.3047 0.0
N5 N 0.29961 0.91636 0.322 0.0
C6 C 0.31394 0.95874 0.33042 0.0
C7 C 0.3231 0.94582 0.28787 0.0
C8 C 0.3012 0.93427 0.33876 0.0
C9 C 0.31023 0.92158 0.29697 0.0
C10 C 0.38414 0.0569 0.29239 0.0
C11 C 0.40182 0.09074 0.32392 0.0
N12 N 0.42241 0.08892 0.32526 0.0
C13 C 0.40553 0.05545 0.29395 0.0
C14 C 0.38229 0.07477 0.30736 0.0
C15 C 0.42466 0.07178 0.31072 0.0
C16 C 0.38955 0.01096 0.22544 0.0
N17 N 0.37846 0.00127 0.24961 0.0
C18 C 0.40703 0.98783 0.25912 0.0
C19 C 0.3866 0.98966 0.26629 0.0
C20 C 0.41934 0.99816 0.23459 0.0
C21 C 0.41013 0.00957 0.21745 0.0
H22 H 0.38281 0.02036 0.21277 0.0
H23 H 0.37777 0.98265 0.28568 0.0
C24 C 0.32843 0.0259 0.35773 0.0
N25 N 0.34683 0.02676 0.34252 0.0
C26 C 0.32918 0.02492 0.386 0.0
C27 C 0.36845 0.027 0.38253 0.0
C28 C 0.36673 0.02751 0.35425 0.0
C29 C 0.34914 0.02493 0.39884 0.0
H30 H 0.31241 0.02441 0.34785 0.0
H31 H 0.38068 0.02729 0.34167 0.0
C32 C 0.31146 0.9838 0.22149 0.0
N33 N 0.28239 0.94656 0.18587 0.0
C34 C 0.28884 0.98063 0.21321 0.0
C35 C 0.31936 0.96811 0.2116 0.0
C36 C 0.27438 0.96166 0.19522 0.0
C37 C 0.30438 0.94937 0.19361 0.0
C38 C 0.29633 0.02918 0.29046 0.0
C39 C 0.27372 0.01756 0.27711 0.0
C40 C 0.30506 0.05253 0.30149 0.0
C41 C 0.26031 0.02966 0.27477 0.0
C42 C 0.29114 0.06405 0.29866 0.0
N43 N 0.26924 0.05247 0.28546 0.0
C44 C 0.26706 0.96159 0.30251 0.0
C45 C 0.26997 0.93949 0.26515 0.0
C46 C 0.24565 0.94109 0.31135 0.0
N47 N 0.27881 0.96057 0.2798 0.0
C48 C 0.2483 0.91849 0.27312 0.0
C49 C 0.2359 0.91905 0.29669 0.0
H50 H 0.27492 0.97816 0.31453 0.0
H51 H 0.28006 0.93858 0.24793 0.0
C52 C 0.3512 0.08064 0.24329 0.0
N53 N 0.33145 0.05767 0.24162 0.0
C54 C 0.35096 0.10028 0.23041 0.0
C55 C 0.3101 0.0723 0.21414 0.0
C56 C 0.31126 0.05315 0.22706 0.0
C57 C 0.33011 0.09626 0.21581 0.0
H58 H 0.36713 0.08377 0.25477 0.0
H59 H 0.29591 0.03473 0.22572 0.0
O60 O 0.33668 0.98822 0.29581 0.0
O61 O 0.36512 0.04095 0.27625 0.0
O62 O 0.32608 0.0025 0.2387 0.0
O63 O 0.3099 0.01779 0.29264 0.0
H64 H 0.31504 0.97299 0.34364 0.0
H65 H 0.33131 0.94998 0.26783 0.0
H66 H 0.2925 0.92952 0.35852 0.0
H67 H 0.30858 0.90691 0.28409 0.0
H68 H 0.40058 0.10457 0.33573 0.0
H69 H 0.40734 0.04183 0.28241 0.0
H70 H 0.36589 0.07616 0.30634 0.0
H71 H 0.44129 0.07082 0.3122 0.0
H72 H 0.41372 0.97933 0.27325 0.0
H73 H 0.41896 0.01765 0.1983 0.0
H74 H 0.31356 0.02275 0.39747 0.0
H75 H 0.38435 0.02738 0.39142 0.0
H76 H 0.28239 0.99251 0.22079 0.0
H77 H 0.33683 0.97033 0.21776 0.0
H78 H 0.25677 0.95891 0.18873 0.0
H79 H 0.31022 0.93706 0.18583 0.0
H80 H 0.26674 0.99953 0.26832 0.0
H81 H 0.32247 0.06171 0.312 0.0
H82 H 0.24285 0.02096 0.26434 0.0
H83 H 0.29774 0.08219 0.30695 0.0
H84 H 0.23735 0.94236 0.3301 0.0
H85 H 0.24154 0.90195 0.26112 0.0
H86 H 0.36673 0.1185 0.2323 0.0
H87 H 0.2938 0.06837 0.20279 0.0
Li88 Li 0.34625 0.34787 0.59559 0.0
Li89 Li 0.31821 0.33398 0.63598 0.0
Li90 Li 0.31748 0.30426 0.60459 0.0
Li91 Li 0.30035 0.3288 0.59179 0.0
C92 C 0.35592 0.31566 0.63641 0.0
N93 N 0.37572 0.28785 0.65476 0.0
C94 C 0.34794 0.30286 0.66094 0.0
C95 C 0.37409 0.31449 0.6213 0.0
C96 C 0.35814 0.28884 0.66983 0.0
C97 C 0.38386 0.3003 0.63092 0.0
C98 C 0.32775 0.37859 0.62688 0.0
C99 C 0.31191 0.39495 0.66049 0.0
N100 N 0.33473 0.4147 0.66364 0.0
C101 C 0.351 0.39913 0.63031 0.0
C102 C 0.308 0.37655 0.64195 0.0
C103 C 0.35416 0.41716 0.64903 0.0
C104 C 0.38153 0.38689 0.56228 0.0
N105 N 0.37779 0.37317 0.58503 0.0
C106 C 0.41854 0.40026 0.60033 0.0
C107 C 0.39584 0.37917 0.60364 0.0
C108 C 0.42268 0.41548 0.57774 0.0
C109 C 0.40412 0.40823 0.55809 0.0
H110 H 0.36664 0.3819 0.54809 0.0
H111 H 0.39219 0.36827 0.62184 0.0
C112 C 0.29886 0.32397 0.68911 0.0
N113 N 0.31841 0.33954 0.67373 0.0
C114 C 0.30076 0.32458 0.71741 0.0
C115 C 0.34258 0.35782 0.71339 0.0
C116 C 0.33992 0.35645 0.68519 0.0
C117 C 0.32306 0.34129 0.72988 0.0
H118 H 0.28227 0.31016 0.67939 0.0
H119 H 0.35537 0.36808 0.67237 0.0
C120 C 0.32801 0.30858 0.55165 0.0
N121 N 0.33757 0.28079 0.51556 0.0
C122 C 0.30887 0.28638 0.54188 0.0
C123 C 0.352 0.31669 0.543 0.0
C124 C 0.31409 0.27258 0.52368 0.0
C125 C 0.35646 0.30237 0.52475 0.0
C126 C 0.26484 0.29256 0.61786 0.0
C127 C 0.25368 0.27123 0.60213 0.0
C128 C 0.25059 0.30167 0.62905 0.0
C129 C 0.22841 0.25946 0.59766 0.0
C130 C 0.22539 0.2894 0.62405 0.0
N131 N 0.21492 0.26873 0.60859 0.0
C132 C 0.29919 0.25867 0.6277 0.0
C133 C 0.32816 0.26476 0.59353 0.0
C134 C 0.29776 0.23678 0.63556 0.0
N135 N 0.31427 0.27229 0.60713 0.0
C136 C 0.32715 0.24275 0.60061 0.0
C137 C 0.31203 0.22858 0.62219 0.0
H138 H 0.28914 0.26545 0.63907 0.0
H139 H 0.34092 0.27629 0.57813 0.0
C140 C 0.27093 0.34911 0.57625 0.0
N141 N 0.27495 0.33012 0.57183 0.0
C142 C 0.25163 0.34987 0.5632 0.0
C143 C 0.24113 0.31166 0.54098 0.0
C144 C 0.26078 0.31178 0.55426 0.0
C145 C 0.2362 0.33083 0.54547 0.0
H146 H 0.28263 0.36364 0.59003 0.0
H147 H 0.26439 0.29693 0.551 0.0
O148 O 0.34561 0.32885 0.62693 0.0
O149 O 0.32434 0.36051 0.60898 0.0
O150 O 0.32327 0.32255 0.56914 0.0
O151 O 0.28962 0.30461 0.62205 0.0
H152 H 0.33377 0.30346 0.67279 0.0
H153 H 0.3803 0.32414 0.60215 0.0
H154 H 0.35201 0.27867 0.68867 0.0
H155 H 0.39781 0.29907 0.61935 0.0
H156 H 0.29683 0.39351 0.67243 0.0
H157 H 0.36647 0.40115 0.61873 0.0
H158 H 0.2899 0.36077 0.63959 0.0
H159 H 0.37208 0.4331 0.65197 0.0
H160 H 0.43245 0.40508 0.6158 0.0
H161 H 0.40657 0.41959 0.54051 0.0
H162 H 0.28537 0.31122 0.72925 0.0
H163 H 0.35999 0.37117 0.72212 0.0
H164 H 0.29024 0.27975 0.54849 0.0
H165 H 0.36702 0.33383 0.55033 0.0
H166 H 0.29948 0.25531 0.51605 0.0
H167 H 0.37493 0.30839 0.51792 0.0
H168 H 0.26445 0.26402 0.59314 0.0
H169 H 0.25891 0.31812 0.64131 0.0
H170 H 0.21956 0.24302 0.58539 0.0
H171 H 0.21416 0.29633 0.63244 0.0
H172 H 0.28639 0.227 0.65282 0.0
H173 H 0.33848 0.23719 0.58967 0.0
H174 H 0.24893 0.3653 0.5669 0.0
H175 H 0.22963 0.29641 0.5278 0.0
Li176 Li 0.99392 0.34483 0.93538 0.0
Li177 Li 0.97896 0.31429 0.97405 0.0
Li178 Li 0.01054 0.31759 0.94359 0.0
Li179 Li 0.9693 0.2988 0.92805 0.0
C180 C 0.03429 0.3551 0.97807 0.0
N181 N 0.08144 0.37775 0.99847 0.0
C182 C 0.03956 0.34603 0.00149 0.0
C183 C 0.05294 0.37579 0.96512 0.0
C184 C 0.06354 0.35769 0.01144 0.0
C185 C 0.07667 0.38698 0.97576 0.0
C186 C 0.94171 0.32152 0.9621 0.0
C187 C 0.90517 0.30138 0.98959 0.0
N188 N 0.90653 0.32335 0.99396 0.0
C189 C 0.94262 0.34386 0.96666 0.0
C190 C 0.92272 0.30007 0.97345 0.0
C191 C 0.92471 0.34441 0.98289 0.0
C192 C 0.99274 0.38129 0.90149 0.0
N193 N 0.99914 0.37629 0.92608 0.0
C194 C 0.0088 0.4156 0.94304 0.0
C195 C 0.0074 0.39301 0.94654 0.0
C196 C 0.00153 0.42107 0.91825 0.0
C197 C 0.99396 0.40384 0.89704 0.0
H198 H 0.98593 0.36749 0.88571 0.0
H199 H 0.01198 0.38837 0.966 0.0
C200 C 0.97495 0.29426 0.0253 0.0
N201 N 0.97177 0.31123 0.01166 0.0
C202 C 0.97709 0.29532 0.05354 0.0
C203 C 0.97093 0.33026 0.05335 0.0
C204 C 0.96938 0.32883 0.02501 0.0
C205 C 0.97575 0.31391 0.06773 0.0
H206 H 0.97778 0.28111 0.01414 0.0
H207 H 0.96808 0.34281 0.01365 0.0
C208 C 0.01831 0.32882 0.89159 0.0
N209 N 0.05729 0.33811 0.85825 0.0
C210 C 0.02191 0.30964 0.88331 0.0
C211 C 0.03441 0.35271 0.88281 0.0
C212 C 0.04179 0.31473 0.86651 0.0
C213 C 0.05403 0.35703 0.86596 0.0
C214 C 0.96977 0.26286 0.95611 0.0
C215 C 0.97976 0.25064 0.942 0.0
C216 C 0.94674 0.24937 0.96827 0.0
C217 C 0.96631 0.22512 0.93987 0.0
C218 C 0.93385 0.22387 0.96565 0.0
N219 N 0.9438 0.21238 0.9516 0.0
C220 C 0.03894 0.29925 0.96461 0.0
C221 C 0.06242 0.33382 0.93659 0.0
C222 C 0.05996 0.29905 0.97294 0.0
N223 N 0.04043 0.31649 0.94685 0.0
C224 C 0.08403 0.33443 0.94458 0.0
C225 C 0.08295 0.31704 0.96329 0.0
H226 H 0.02153 0.28639 0.97356 0.0
H227 H 0.06341 0.348 0.92343 0.0
C228 C 0.92178 0.27223 0.90556 0.0
N229 N 0.94411 0.27381 0.9061 0.0
C230 C 0.90233 0.25328 0.89137 0.0
C231 C 0.92924 0.23801 0.87828 0.0
C232 C 0.94831 0.2576 0.89219 0.0
C233 C 0.90594 0.23571 0.87798 0.0
H234 H 0.91897 0.28554 0.91639 0.0
H235 H 0.96635 0.25959 0.89225 0.0
O236 O 0.01109 0.34352 0.96756 0.0
O237 O 0.95917 0.32061 0.9464 0.0
O238 O 0.99893 0.32423 0.9079 0.0
O239 O 0.98258 0.28787 0.95823 0.0
H240 H 0.02537 0.32995 0.01166 0.0
H241 H 0.0492 0.38289 0.94682 0.0
H242 H 0.06793 0.35075 0.02941 0.0
H243 H 0.09132 0.4029 0.96586 0.0
H244 H 0.89043 0.28493 0.9986 0.0
H245 H 0.95699 0.36061 0.95782 0.0
H246 H 0.92151 0.28259 0.96979 0.0
H247 H 0.92526 0.3616 0.98669 0.0
H248 H 0.01502 0.42848 0.9598 0.0
H249 H 0.98804 0.40732 0.8777 0.0
H250 H 0.98099 0.28254 0.06406 0.0
H251 H 0.97023 0.34508 0.0637 0.0
H252 H 0.00964 0.29108 0.89 0.0
H253 H 0.03185 0.36775 0.88905 0.0
H254 H 0.0449 0.30009 0.86006 0.0
H255 H 0.06669 0.37542 0.85906 0.0
H256 H 0.99756 0.26079 0.93242 0.0
H257 H 0.93895 0.25847 0.9797 0.0
H258 H 0.97372 0.21545 0.9288 0.0
H259 H 0.91595 0.21322 0.97485 0.0
H260 H 0.05831 0.28566 0.98785 0.0
H261 H 0.10143 0.34866 0.93669 0.0
H262 H 0.88453 0.25199 0.8914 0.0
H263 H 0.9326 0.22482 0.86789 0.0
Li264 Li 0.64805 0.99701 0.26204 0.0
Li265 Li 0.6607 0.98277 0.30348 0.0
Li266 Li 0.69126 0.013 0.27385 0.0
Li267 Li 0.66848 0.97133 0.25966 0.0
C268 C 0.67704 0.03864 0.30393 0.0
N269 N 0.70276 0.08647 0.32214 0.0
C270 C 0.68824 0.0439 0.32949 0.0
C271 C 0.67874 0.05765 0.28771 0.0
C272 C 0.70122 0.06823 0.3383 0.0
C273 C 0.69185 0.08172 0.29728 0.0
C274 C 0.61693 0.947 0.29169 0.0
C275 C 0.5994 0.91388 0.32416 0.0
N276 N 0.57912 0.91622 0.32583 0.0
C277 C 0.59586 0.949 0.29362 0.0
C278 C 0.61868 0.92921 0.30695 0.0
C279 C 0.57696 0.93329 0.31103 0.0
C280 C 0.61169 0.99271 0.22462 0.0
N281 N 0.62299 0.00252 0.24867 0.0
C282 C 0.59464 0.01621 0.25833 0.0
C283 C 0.61508 0.01432 0.26535 0.0
C284 C 0.5821 0.00573 0.23395 0.0
C285 C 0.59111 0.99417 0.21678 0.0
H286 H 0.61824 0.98315 0.21195 0.0
H287 H 0.62405 0.0214 0.28467 0.0
C288 C 0.6717 0.97538 0.35631 0.0
N289 N 0.65433 0.97651 0.34107 0.0
C290 C 0.67128 0.9769 0.38456 0.0
C291 C 0.63431 0.97939 0.38096 0.0
C292 C 0.63565 0.97816 0.35271 0.0
C293 C 0.65276 0.9796 0.39728 0.0
H294 H 0.68683 0.97497 0.34647 0.0
H295 H 0.62256 0.97987 0.34004 0.0
C296 C 0.6896 0.01966 0.22039 0.0
N297 N 0.71857 0.05738 0.18522 0.0
C298 C 0.71223 0.023 0.21189 0.0
C299 C 0.68165 0.03546 0.21095 0.0
C300 C 0.72663 0.0422 0.19413 0.0
C301 C 0.69657 0.05443 0.19318 0.0
C302 C 0.70427 0.97314 0.28793 0.0
C303 C 0.72652 0.98454 0.27386 0.0
C304 C 0.6954 0.94961 0.2985 0.0
C305 C 0.73946 0.97206 0.27039 0.0
C306 C 0.70885 0.93772 0.29454 0.0
N307 N 0.73041 0.94909 0.28068 0.0
C308 C 0.73479 0.04082 0.30065 0.0
C309 C 0.73131 0.06348 0.26426 0.0
C310 C 0.75628 0.06123 0.30953 0.0
N311 N 0.72271 0.04217 0.27842 0.0
C312 C 0.75304 0.08439 0.27226 0.0
C313 C 0.76575 0.08351 0.29539 0.0
H314 H 0.72713 0.02407 0.31233 0.0
H315 H 0.72095 0.06464 0.24744 0.0
C316 C 0.64944 0.92224 0.24259 0.0
N317 N 0.6688 0.94533 0.23982 0.0
C318 C 0.6493 0.90259 0.22927 0.0
C319 C 0.68899 0.93081 0.21032 0.0
C320 C 0.68824 0.94995 0.2238 0.0
C321 C 0.66934 0.90673 0.21302 0.0
H322 H 0.63412 0.91903 0.25527 0.0
H323 H 0.70331 0.96845 0.2217 0.0
O324 O 0.66493 0.01506 0.29457 0.0
O325 O 0.63575 0.96238 0.27499 0.0
O326 O 0.67504 0.00075 0.23739 0.0
O327 O 0.69111 0.98487 0.29113 0.0
H328 H 0.68719 0.0294 0.34222 0.0
H329 H 0.6703 0.05386 0.2678 0.0
H330 H 0.71014 0.0726 0.35794 0.0
H331 H 0.69348 0.09665 0.28488 0.0
H332 H 0.60057 0.90013 0.3362 0.0
H333 H 0.59412 0.96255 0.28187 0.0
H334 H 0.63485 0.92743 0.30572 0.0
H335 H 0.56059 0.93469 0.31279 0.0
H336 H 0.58811 0.02484 0.27248 0.0
H337 H 0.58212 0.98598 0.19773 0.0
H338 H 0.6862 0.97749 0.3961 0.0
H339 H 0.61953 0.98114 0.38981 0.0
H340 H 0.71874 0.01106 0.21913 0.0
H341 H 0.66418 0.03314 0.21729 0.0
H342 H 0.74424 0.04507 0.18749 0.0
H343 H 0.69068 0.06682 0.18575 0.0
H344 H 0.73358 0.0027 0.2654 0.0
H345 H 0.67825 0.94056 0.30949 0.0
H346 H 0.75663 0.9806 0.25941 0.0
H347 H 0.70214 0.91944 0.30247 0.0
H348 H 0.76484 0.05969 0.32794 0.0
H349 H 0.75958 0.10112 0.26066 0.0
H350 H 0.63386 0.88429 0.23205 0.0
H351 H 0.70466 0.93484 0.19772 0.0
Li352 Li 0.68343 0.66358 0.63991 0.0
Li353 Li 0.65465 0.64813 0.59985 0.0
Li354 Li 0.7007 0.66991 0.59499 0.0
Li355 Li 0.68122 0.69204 0.60879 0.0
C356 C 0.67685 0.61949 0.6291 0.0
N357 N 0.67336 0.58275 0.66276 0.0
C358 C 0.65488 0.59718 0.63081 0.0
C359 C 0.69711 0.62302 0.64429 0.0
C360 C 0.65346 0.57885 0.648 0.0
C361 C 0.69496 0.60425 0.66126 0.0
C362 C 0.6421 0.67778 0.64034 0.0
C363 C 0.61121 0.68917 0.63353 0.0
N364 N 0.61822 0.7022 0.6571 0.0
C365 C 0.64888 0.69111 0.66461 0.0
C366 C 0.62305 0.67667 0.62471 0.0
C367 C 0.63662 0.7034 0.67269 0.0
C368 C 0.70168 0.67873 0.69217 0.0
N369 N 0.68494 0.65906 0.67776 0.0
C370 C 0.66506 0.63803 0.7186 0.0
C371 C 0.66696 0.63883 0.6903 0.0
C372 C 0.68127 0.65862 0.73409 0.0
C373 C 0.70015 0.67895 0.72045 0.0
H374 H 0.71523 0.69492 0.6816 0.0
H375 H 0.65333 0.6238 0.67832 0.0
C376 C 0.6197 0.60992 0.56524 0.0
N377 N 0.62373 0.6216 0.58957 0.0
C378 C 0.5976 0.58819 0.56048 0.0
C379 C 0.58432 0.59141 0.60567 0.0
C380 C 0.60647 0.61303 0.60945 0.0
C381 C 0.57988 0.5784 0.58118 0.0
H382 H 0.63396 0.617 0.54996 0.0
H383 H 0.61036 0.62247 0.62876 0.0
C384 C 0.73517 0.70711 0.62125 0.0
N385 N 0.78512 0.73344 0.61234 0.0
C386 C 0.74529 0.72822 0.60516 0.0
C387 C 0.75045 0.69954 0.63306 0.0
C388 C 0.77059 0.74126 0.60086 0.0
C389 C 0.77566 0.71304 0.62822 0.0
C390 C 0.67031 0.68768 0.55608 0.0
C391 C 0.68866 0.71042 0.54651 0.0
C392 C 0.64609 0.67858 0.54768 0.0
C393 C 0.68243 0.72375 0.52876 0.0
C394 C 0.6406 0.69245 0.52987 0.0
N395 N 0.65873 0.71456 0.52087 0.0
C396 C 0.73214 0.65229 0.57899 0.0
C397 C 0.73992 0.68874 0.55655 0.0
C398 C 0.75175 0.65249 0.56555 0.0
N399 N 0.72677 0.67037 0.57452 0.0
C400 C 0.7598 0.68977 0.54277 0.0
C401 C 0.76607 0.67153 0.54731 0.0
H402 H 0.72125 0.6377 0.59307 0.0
H403 H 0.73526 0.70287 0.55326 0.0
C404 C 0.6974 0.73714 0.63223 0.0
N405 N 0.68234 0.72306 0.61188 0.0
C406 C 0.6978 0.75851 0.64029 0.0
C407 C 0.66734 0.751 0.60609 0.0
C408 C 0.66737 0.72952 0.5988 0.0
C409 C 0.68255 0.76571 0.62734 0.0
H410 H 0.70833 0.73118 0.64321 0.0
H411 H 0.65468 0.7176 0.58358 0.0
O412 O 0.67855 0.63772 0.6125 0.0
O413 O 0.6544 0.6663 0.63163 0.0
O414 O 0.71039 0.69383 0.62527 0.0
O415 O 0.67607 0.67417 0.57314 0.0
H416 H 0.63909 0.59398 0.619 0.0
H417 H 0.71426 0.64014 0.64318 0.0
H418 H 0.63655 0.56152 0.64958 0.0
H419 H 0.71045 0.6068 0.67326 0.0
H420 H 0.59655 0.68863 0.62155 0.0
H421 H 0.66366 0.69221 0.67687 0.0
H422 H 0.6177 0.66655 0.60578 0.0
H423 H 0.64181 0.71396 0.6913 0.0
H424 H 0.65046 0.62177 0.7281 0.0
H425 H 0.71278 0.69548 0.73124 0.0
H426 H 0.59487 0.57857 0.54141 0.0
H427 H 0.57102 0.58459 0.62202 0.0
H428 H 0.7337 0.73431 0.59583 0.0
H429 H 0.74292 0.68335 0.64573 0.0
H430 H 0.77866 0.75754 0.5883 0.0
H431 H 0.7877 0.70731 0.63709 0.0
H432 H 0.70747 0.71781 0.55292 0.0
H433 H 0.63166 0.66103 0.55488 0.0
H434 H 0.69642 0.74142 0.52129 0.0
H435 H 0.62193 0.68566 0.52324 0.0
H436 H 0.75552 0.63776 0.5693 0.0
H437 H 0.77042 0.70494 0.52913 0.0
H438 H 0.70929 0.76871 0.65731 0.0
H439 H 0.65525 0.75577 0.59548 0.0
Li440 Li 0.00281 0.65451 0.93211 0.0
Li441 Li 0.01617 0.68408 0.97162 0.0
Li442 Li 0.98621 0.68107 0.94054 0.0
Li443 Li 0.02761 0.70094 0.925 0.0
C444 C 0.95993 0.64169 0.96983 0.0
N445 N 0.91019 0.6167 0.98034 0.0
C446 C 0.95096 0.64584 0.99404 0.0
C447 C 0.94363 0.62471 0.95104 0.0
C448 C 0.92574 0.63308 0.99893 0.0
C449 C 0.91855 0.61225 0.95674 0.0
C450 C 0.05498 0.67485 0.95321 0.0
C451 C 0.09785 0.68812 0.95917 0.0
N452 N 0.09165 0.66589 0.96999 0.0
C453 C 0.04905 0.65212 0.96433 0.0
C454 C 0.07958 0.69298 0.95052 0.0
C455 C 0.06784 0.64795 0.97271 0.0
C456 C 0.00956 0.62053 0.89956 0.0
N457 N 0.99885 0.62357 0.92211 0.0
C458 C 0.98664 0.58308 0.93725 0.0
C459 C 0.98714 0.60526 0.94053 0.0
C460 C 0.99838 0.57965 0.91483 0.0
C461 C 0.0094 0.59844 0.89539 0.0
H462 H 0.01907 0.63558 0.88546 0.0
H463 H 0.97923 0.60831 0.95856 0.0
C464 C 0.01117 0.69734 0.02295 0.0
N465 N 0.02334 0.68788 0.00941 0.0
C466 C 0.011 0.69767 0.05123 0.0
C467 C 0.03694 0.67955 0.05134 0.0
C468 C 0.03652 0.67949 0.0229 0.0
C469 C 0.02355 0.6882 0.06587 0.0
H470 H 0.00053 0.70353 0.0117 0.0
H471 H 0.04598 0.67196 0.0118 0.0
C472 C 0.98226 0.67551 0.88651 0.0
N473 N 0.94982 0.67589 0.84907 0.0
C474 C 0.98282 0.69743 0.88034 0.0
C475 C 0.96541 0.65383 0.87351 0.0
C476 C 0.96618 0.69722 0.8614 0.0
C477 C 0.94912 0.6544 0.85465 0.0
C478 C 0.03185 0.73348 0.96513 0.0
C479 C 0.0273 0.75286 0.96865 0.0
C480 C 0.05478 0.73665 0.972 0.0
C481 C 0.04587 0.7752 0.97879 0.0
C482 C 0.07287 0.75926 0.98208 0.0
N483 N 0.06809 0.77791 0.98523 0.0
C484 C 0.95746 0.69715 0.96396 0.0
C485 C 0.93571 0.66948 0.9283 0.0
C486 C 0.93658 0.69777 0.97189 0.0
N487 N 0.9567 0.68295 0.94277 0.0
C488 C 0.91432 0.66975 0.93539 0.0
C489 C 0.91447 0.68375 0.95779 0.0
H490 H 0.97405 0.70707 0.97574 0.0
H491 H 0.93514 0.65764 0.91214 0.0
C492 C 0.06831 0.72085 0.88952 0.0
N493 N 0.05268 0.72597 0.90329 0.0
C494 C 0.08782 0.73921 0.87476 0.0
C495 C 0.07464 0.76767 0.88845 0.0
C496 C 0.05511 0.74866 0.90243 0.0
C497 C 0.09135 0.76304 0.87458 0.0
H498 H 0.06582 0.70258 0.89039 0.0
H499 H 0.04207 0.75213 0.91287 0.0
O500 O 0.98449 0.65449 0.96427 0.0
O501 O 0.03689 0.67916 0.94433 0.0
O502 O 0.99844 0.67534 0.90484 0.0
O503 O 0.01378 0.71157 0.95507 0.0
H504 H 0.96329 0.65892 0.00879 0.0
H505 H 0.95025 0.62148 0.93206 0.0
H506 H 0.91852 0.63625 0.01749 0.0
H507 H 0.90571 0.59918 0.94231 0.0
H508 H 0.11695 0.70201 0.95725 0.0
H509 H 0.03016 0.638 0.96693 0.0
H510 H 0.08455 0.71065 0.94182 0.0
H511 H 0.0635 0.63048 0.98147 0.0
H512 H 0.97774 0.56896 0.95256 0.0
H513 H 0.01876 0.59652 0.87791 0.0
H514 H 1.00007 0.70413 0.06144 0.0
H515 H 0.04712 0.67235 0.06181 0.0
H516 H 0.99587 0.71437 0.89021 0.0
H517 H 0.96489 0.63675 0.87804 0.0
H518 H 0.96628 0.71401 0.85651 0.0
H519 H 0.9359 0.63775 0.84448 0.0
H520 H 0.00963 0.75071 0.96343 0.0
H521 H 0.05857 0.72185 0.96969 0.0
H522 H 0.04263 0.79038 0.98152 0.0
H523 H 0.09071 0.76196 0.98744 0.0
H524 H 0.93761 0.70833 0.98971 0.0
H525 H 0.89776 0.65872 0.92379 0.0
H526 H 0.10041 0.73504 0.86425 0.0
H527 H 0.07665 0.78578 0.8884 0.0
Li528 Li 0.01493 0.69431 0.39081 0.0
Li529 Li 0.97314 0.6714 0.40435 0.0
Li530 Li 0.99822 0.65056 0.40026 0.0
Li531 Li 0.98478 0.66537 0.35999 0.0
C532 C 0.02125 0.69032 0.44376 0.0
N533 N 0.05922 0.71744 0.47944 0.0
C534 C 0.02511 0.71283 0.45349 0.0
C535 C 0.03667 0.68158 0.45221 0.0
C536 C 0.04443 0.72628 0.47149 0.0
C537 C 0.05577 0.69557 0.47026 0.0
C538 C 0.97573 0.70861 0.37893 0.0
C539 C 0.94057 0.71393 0.37426 0.0
N540 N 0.95215 0.73475 0.38941 0.0
C541 C 0.98733 0.7301 0.39436 0.0
C542 C 0.95222 0.7005 0.36867 0.0
C543 C 0.97509 0.74305 0.39944 0.0
C544 C 0.04323 0.73887 0.36627 0.0
N545 N 0.04441 0.72569 0.3875 0.0
C546 C 0.08686 0.75515 0.39402 0.0
C547 C 0.06573 0.73331 0.40134 0.0
C548 C 0.08613 0.76898 0.37193 0.0
C549 C 0.06383 0.76051 0.35812 0.0
H550 H 0.02647 0.73199 0.35474 0.0
H551 H 0.06673 0.7221 0.41729 0.0
C552 C 0.92384 0.65313 0.42001 0.0
N553 N 0.9472 0.67136 0.42464 0.0
C554 C 0.90425 0.65311 0.43332 0.0
C555 C 0.93312 0.69046 0.45624 0.0
C556 C 0.95215 0.68966 0.4426 0.0
C557 C 0.90872 0.67207 0.45159 0.0
H558 H 0.92037 0.63863 0.40587 0.0
H559 H 0.97086 0.70393 0.44595 0.0
C560 C 0.0404 0.6808 0.35937 0.0
N561 N 0.08838 0.70661 0.34169 0.0
C562 C 0.04604 0.69331 0.33459 0.0
C563 C 0.05909 0.68123 0.37508 0.0
C564 C 0.07043 0.70632 0.32604 0.0
C565 C 0.08326 0.69442 0.36579 0.0
C566 C 0.94894 0.62147 0.36902 0.0
C567 C 0.95111 0.60063 0.3654 0.0
C568 C 0.9316 0.62413 0.35396 0.0
C569 C 0.93601 0.58288 0.34653 0.0
C570 C 0.91687 0.60599 0.33527 0.0
N571 N 0.91937 0.58592 0.33196 0.0
C572 C 0.99289 0.6129 0.43601 0.0
C573 C 0.01474 0.6169 0.3953 0.0
C574 C 0.99383 0.5919 0.44317 0.0
N575 N 0.00306 0.62471 0.41231 0.0
C576 C 0.0161 0.59603 0.40162 0.0
C577 C 0.00524 0.58298 0.42564 0.0
H578 H 0.98347 0.61942 0.44897 0.0
H579 H 0.02214 0.62634 0.37628 0.0
C580 C 0.97695 0.67852 0.30839 0.0
N581 N 0.97903 0.66095 0.32215 0.0
C582 C 0.9792 0.67999 0.28017 0.0
C583 C 0.98436 0.64443 0.28069 0.0
C584 C 0.98224 0.64378 0.30898 0.0
C585 C 0.98371 0.66326 0.2661 0.0
H586 H 0.97518 0.69238 0.31944 0.0
H587 H 0.98474 0.6306 0.32056 0.0
O588 O 0.00221 0.67668 0.42648 0.0
O589 O 0.9872 0.69539 0.37419 0.0
O590 O 0.01674 0.66861 0.3685 0.0
O591 O 0.96378 0.63922 0.38713 0.0
H592 H 0.01349 0.71996 0.44702 0.0
H593 H 0.03397 0.66422 0.44489 0.0
H594 H 0.04769 0.74378 0.4791 0.0
H595 H 0.06786 0.68905 0.47693 0.0
H596 H 0.92231 0.70778 0.36661 0.0
H597 H 0.00545 0.73656 0.40262 0.0
H598 H 0.94298 0.68389 0.35672 0.0
H599 H 0.98378 0.75964 0.41148 0.0
H600 H 0.10361 0.76089 0.40531 0.0
H601 H 0.0624 0.76997 0.34044 0.0
H602 H 0.88582 0.63828 0.42946 0.0
H603 H 0.93748 0.7056 0.46987 0.0
H604 H 0.03178 0.69326 0.32227 0.0
H605 H 0.05502 0.67177 0.3944 0.0
H606 H 0.07511 0.71625 0.30701 0.0
H607 H 0.09795 0.69507 0.37781 0.0
H608 H 0.96431 0.59817 0.37695 0.0
H609 H 0.92973 0.64018 0.35643 0.0
H610 H 0.93755 0.5667 0.34346 0.0
H611 H 0.90349 0.6079 0.32335 0.0
H612 H 0.9854 0.58255 0.46198 0.0
H613 H 0.02465 0.58962 0.38723 0.0
H614 H 0.97849 0.6947 0.26957 0.0
H615 H 0.98813 0.63141 0.27055 0.0
Li616 Li 0.31901 0.01065 0.72132 0.0
Li617 Li 0.30039 0.96877 0.7355 0.0
Li618 Li 0.34667 0.99531 0.73316 0.0
Li619 Li 0.31997 0.98078 0.69139 0.0
C620 C 0.32559 0.01611 0.7754 0.0
N621 N 0.33086 0.0517 0.81196 0.0
C622 C 0.30511 0.01747 0.78376 0.0
C623 C 0.34874 0.03274 0.7857 0.0
C624 C 0.30816 0.03564 0.80222 0.0
C625 C 0.35102 0.05062 0.80417 0.0
C626 C 0.26645 0.97027 0.70415 0.0
C627 C 0.22757 0.93468 0.69343 0.0
N628 N 0.21584 0.94577 0.70457 0.0
C629 C 0.25403 0.98139 0.71532 0.0
C630 C 0.25316 0.94681 0.69293 0.0
C631 C 0.22843 0.96867 0.71538 0.0
C632 C 0.30406 0.03823 0.69329 0.0
N633 N 0.31591 0.03932 0.71679 0.0
C634 C 0.32522 0.08067 0.72405 0.0
C635 C 0.32653 0.06005 0.73218 0.0
C636 C 0.31325 0.08007 0.69964 0.0
C637 C 0.30253 0.05837 0.68431 0.0
H638 H 0.29663 0.02196 0.6808 0.0
H639 H 0.33681 0.06104 0.75013 0.0
C640 C 0.27416 0.92092 0.75737 0.0
N641 N 0.27424 0.94248 0.7551 0.0
C642 C 0.2549 0.90096 0.77063 0.0
C643 C 0.23611 0.92571 0.77889 0.0
C644 C 0.25601 0.94535 0.76607 0.0
C645 C 0.23544 0.9032 0.7812 0.0
H646 H 0.289 0.91918 0.74877 0.0
H647 H 0.25676 0.9628 0.76467 0.0
C648 C 0.3587 0.03703 0.69148 0.0
N649 N 0.37977 0.08496 0.6738 0.0
C650 C 0.35407 0.04216 0.66521 0.0
C651 C 0.37419 0.05624 0.7087 0.0
C652 C 0.36486 0.06653 0.65667 0.0
C653 C 0.38464 0.08036 0.69939 0.0
C654 C 0.32806 0.94462 0.70441 0.0
C655 C 0.35142 0.94747 0.70151 0.0
C656 C 0.30808 0.92523 0.69134 0.0
C657 C 0.35442 0.93094 0.6853 0.0
C658 C 0.31185 0.90912 0.67528 0.0
N659 N 0.33475 0.91229 0.67261 0.0
C660 C 0.37875 0.98951 0.76921 0.0
C661 C 0.39751 0.01588 0.73158 0.0
C662 C 0.40116 0.99169 0.77685 0.0
N663 N 0.37737 0.00135 0.74676 0.0
C664 C 0.42023 0.01872 0.73855 0.0
C665 C 0.42223 0.00625 0.76122 0.0
H666 H 0.36231 0.97776 0.78064 0.0
H667 H 0.39577 0.02453 0.7134 0.0
C668 C 0.30278 0.97662 0.63879 0.0
N669 N 0.31989 0.97467 0.65369 0.0
C670 C 0.30521 0.97935 0.61066 0.0
C671 C 0.34194 0.97633 0.61346 0.0
C672 C 0.33907 0.97414 0.64169 0.0
C673 C 0.32532 0.97984 0.59787 0.0
H674 H 0.28826 0.97794 0.6489 0.0
H675 H 0.35304 0.97377 0.65407 0.0
O676 O 0.32296 0.99824 0.75771 0.0
O677 O 0.29151 0.98235 0.70402 0.0
O678 O 0.34769 0.01335 0.70053 0.0
O679 O 0.32475 0.96067 0.72005 0.0
H680 H 0.28709 0.00475 0.77591 0.0
H681 H 0.36475 0.03184 0.7795 0.0
H682 H 0.2925 0.037 0.80879 0.0
H683 H 0.36882 0.06365 0.81228 0.0
H684 H 0.21704 0.91646 0.68495 0.0
H685 H 0.26403 0.9995 0.72421 0.0
H686 H 0.26251 0.93806 0.68398 0.0
H687 H 0.21856 0.97698 0.72412 0.0
H688 H 0.33376 0.09698 0.73658 0.0
H689 H 0.29378 0.05713 0.66496 0.0
H690 H 0.25495 0.88383 0.77213 0.0
H691 H 0.22152 0.92812 0.78716 0.0
H692 H 0.34206 0.02751 0.65166 0.0
H693 H 0.3778 0.05256 0.72917 0.0
H694 H 0.36131 0.07078 0.63646 0.0
H695 H 0.39652 0.09542 0.71256 0.0
H696 H 0.36708 0.96233 0.71154 0.0
H697 H 0.28988 0.92268 0.69356 0.0
H698 H 0.3724 0.93297 0.68278 0.0
H699 H 0.29657 0.89408 0.66496 0.0
H700 H 0.40192 0.9818 0.79449 0.0
H701 H 0.43584 0.02969 0.72557 0.0
H702 H 0.29221 0.98225 0.59915 0.0
H703 H 0.35788 0.97708 0.60415 0.0
Li704 Li 0.30833 0.32516 0.05777 0.0
Li705 Li 0.32815 0.30154 0.07129 0.0
Li706 Li 0.35249 0.34635 0.06589 0.0
Li707 Li 0.3355 0.32017 0.02573 0.0
C708 C 0.30846 0.31703 0.11329 0.0
N709 N 0.27388 0.29569 0.154 0.0
C710 C 0.28848 0.29341 0.1099 0.0
C711 C 0.31085 0.3298 0.13737 0.0
C712 C 0.2712 0.28294 0.13072 0.0
C713 C 0.29317 0.3187 0.15772 0.0
C714 C 0.28707 0.27337 0.03117 0.0
C715 C 0.275 0.23838 0.00202 0.0
N716 N 0.25119 0.22978 0.009 0.0
C717 C 0.26247 0.26427 0.03794 0.0
C718 C 0.2934 0.26041 0.01295 0.0
C719 C 0.2446 0.24217 0.02655 0.0
C720 C 0.27467 0.32821 0.02767 0.0
N721 N 0.27909 0.32672 0.05441 0.0
C722 C 0.24135 0.32471 0.06659 0.0
C723 C 0.26319 0.32534 0.074 0.0
C724 C 0.23604 0.32533 0.03889 0.0
C725 C 0.25328 0.32756 0.01942 0.0
H726 H 0.28775 0.32951 0.01262 0.0
H727 H 0.26712 0.32424 0.09518 0.0
C728 C 0.33878 0.27975 0.1151 0.0
N729 N 0.32557 0.2745 0.09174 0.0
C730 C 0.33865 0.26098 0.13041 0.0
C731 C 0.31116 0.23173 0.09742 0.0
C732 C 0.31171 0.25103 0.08288 0.0
C733 C 0.32489 0.23655 0.12148 0.0
H734 H 0.34959 0.29859 0.12172 0.0
H735 H 0.30142 0.24724 0.06426 0.0
C736 C 0.33557 0.37229 0.03643 0.0
N737 N 0.33676 0.41665 0.03942 0.0
C738 C 0.3403 0.38668 0.01315 0.0
C739 C 0.33141 0.38042 0.06124 0.0
C740 C 0.34083 0.40906 0.01508 0.0
C741 C 0.3321 0.40291 0.06233 0.0
C742 C 0.37404 0.31302 0.0403 0.0
C743 C 0.39867 0.32938 0.0345 0.0
C744 C 0.36393 0.28823 0.03386 0.0
C745 C 0.41277 0.32065 0.02209 0.0
C746 C 0.37863 0.28021 0.02147 0.0
N747 N 0.40253 0.29645 0.01588 0.0
C748 C 0.38642 0.38309 0.10294 0.0
C749 C 0.39563 0.389 0.05585 0.0
C750 C 0.40832 0.4046 0.10912 0.0
N751 N 0.38072 0.37575 0.07665 0.0
C752 C 0.41758 0.41049 0.06105 0.0
C753 C 0.42436 0.41844 0.08799 0.0
H754 H 0.37417 0.37209 0.11907 0.0
H755 H 0.3905 0.38265 0.03515 0.0
C756 C 0.31674 0.31155 0.97458 0.0
N757 N 0.33808 0.31779 0.9876 0.0
C758 C 0.31613 0.31321 0.94645 0.0
C759 C 0.35947 0.32696 0.9452 0.0
C760 C 0.35927 0.32515 0.97361 0.0
C761 C 0.33779 0.3216 0.93147 0.0
H762 H 0.30029 0.30623 0.98619 0.0
H763 H 0.37617 0.33074 0.98444 0.0
O764 O 0.32564 0.32779 0.09322 0.0
O765 O 0.30476 0.2952 0.04178 0.0
O766 O 0.33501 0.35035 0.0348 0.0
O767 O 0.36 0.32131 0.05232 0.0
H768 H 0.28628 0.28323 0.09145 0.0
H769 H 0.32621 0.34812 0.14028 0.0
H770 H 0.25565 0.26467 0.12835 0.0
H771 H 0.29479 0.32838 0.17647 0.0
H772 H 0.27965 0.22814 0.98794 0.0
H773 H 0.2572 0.27416 0.05181 0.0
H774 H 0.31231 0.26733 0.00721 0.0
H775 H 0.2255 0.23489 0.03163 0.0
H776 H 0.22848 0.32301 0.08221 0.0
H777 H 0.25019 0.32862 0.99792 0.0
H778 H 0.34921 0.2656 0.14903 0.0
H779 H 0.30057 0.2133 0.08946 0.0
H780 H 0.34353 0.38058 0.9938 0.0
H781 H 0.32768 0.36951 0.07947 0.0
H782 H 0.34448 0.42041 0.99722 0.0
H783 H 0.32893 0.40945 0.08139 0.0
H784 H 0.40677 0.34864 0.03943 0.0
H785 H 0.34496 0.27533 0.03832 0.0
H786 H 0.43183 0.33312 0.01739 0.0
H787 H 0.37103 0.26107 0.01632 0.0
H788 H 0.41291 0.41001 0.13016 0.0
H789 H 0.42911 0.42079 0.0441 0.0
H790 H 0.299 0.30867 0.93657 0.0
H791 H 0.37657 0.33368 0.93427 0.0
Li792 Li 0.028 0.33053 0.40571 0.0
Li793 Li 0.98629 0.30779 0.39146 0.0
Li794 Li 0.01679 0.33705 0.36099 0.0
Li795 Li 0.00275 0.35136 0.40135 0.0
C796 C 0.02575 0.29365 0.37867 0.0
N797 N 0.04936 0.26715 0.38642 0.0
C798 C 0.01424 0.27161 0.39314 0.0
C799 C 0.04915 0.3021 0.36792 0.0
C800 C 0.0265 0.25849 0.39686 0.0
C801 C 0.06083 0.28848 0.37215 0.0
C802 C 0.97986 0.31103 0.44468 0.0
C803 C 0.94521 0.30478 0.47161 0.0
N804 N 0.9423 0.28302 0.48044 0.0
C805 C 0.97659 0.28865 0.45408 0.0
C806 C 0.9641 0.31922 0.45353 0.0
C807 C 0.95746 0.27473 0.47212 0.0
C808 C 0.07678 0.35038 0.42397 0.0
N809 N 0.05388 0.33061 0.42619 0.0
C810 C 0.06865 0.31068 0.45572 0.0
C811 C 0.04945 0.31112 0.44202 0.0
C812 C 0.09255 0.33071 0.4535 0.0
C813 C 0.09646 0.35086 0.43758 0.0
H814 H 0.07983 0.36575 0.41149 0.0
H815 H 0.03106 0.29576 0.44377 0.0
C816 C 0.95815 0.26363 0.36609 0.0
N817 N 0.95693 0.27638 0.38775 0.0
C818 C 0.93763 0.242 0.35772 0.0
C819 C 0.91462 0.24649 0.3943 0.0
C820 C 0.93566 0.26832 0.40183 0.0
C821 C 0.91537 0.2331 0.37176 0.0
H822 H 0.97488 0.27086 0.35444 0.0
H823 H 0.93462 0.27917 0.41817 0.0
C824 C 0.05326 0.38121 0.37202 0.0
N825 N 0.08536 0.41835 0.338 0.0
C826 C 0.05182 0.40253 0.36919 0.0
C827 C 0.07117 0.37887 0.35774 0.0
C828 C 0.06819 0.42108 0.35185 0.0
C829 C 0.08718 0.39782 0.34058 0.0
C830 C 0.96097 0.32149 0.36016 0.0
C831 C 0.95525 0.30941 0.3351 0.0
C832 C 0.9423 0.32066 0.37627 0.0
C833 C 0.93081 0.29641 0.32671 0.0
C834 C 0.91809 0.30749 0.36712 0.0
N835 N 0.91289 0.29571 0.34276 0.0
C836 C 0.02217 0.32274 0.30929 0.0
C837 C 0.02427 0.36135 0.31024 0.0
C838 C 0.02104 0.32226 0.28098 0.0
N839 N 0.02331 0.34187 0.32326 0.0
C840 C 0.02364 0.36185 0.28187 0.0
C841 C 0.02118 0.34173 0.26682 0.0
H842 H 0.02053 0.30708 0.32018 0.0
H843 H 0.02427 0.37591 0.32185 0.0
C844 C 0.00745 0.38874 0.43727 0.0
N845 N 0.99773 0.37708 0.41336 0.0
C846 C 0.00639 0.40971 0.44427 0.0
C847 C 0.9849 0.40583 0.40218 0.0
C848 C 0.98638 0.385 0.39601 0.0
C849 C 0.99531 0.41873 0.4264 0.0
H850 H 0.01663 0.38214 0.4505 0.0
H851 H 0.97934 0.37569 0.37685 0.0
O852 O 0.01421 0.30696 0.37514 0.0
O853 O 0.99869 0.32512 0.42737 0.0
O854 O 0.03729 0.36276 0.38875 0.0
O855 O 0.98467 0.33364 0.36914 0.0
H856 H 0.99617 0.26486 0.4017 0.0
H857 H 0.05824 0.31906 0.35655 0.0
H858 H 0.01789 0.24148 0.40816 0.0
H859 H 0.079 0.29488 0.36409 0.0
H860 H 0.93284 0.31086 0.47859 0.0
H861 H 0.98853 0.28199 0.44733 0.0
H862 H 0.96639 0.33651 0.44649 0.0
H863 H 0.95464 0.25732 0.47946 0.0
H864 H 0.06482 0.29492 0.46807 0.0
H865 H 0.11464 0.36661 0.43523 0.0
H866 H 0.93907 0.23291 0.33973 0.0
H867 H 0.89791 0.24039 0.4058 0.0
H868 H 0.0382 0.40474 0.38019 0.0
H869 H 0.07256 0.36252 0.35975 0.0
H870 H 0.06724 0.43765 0.34938 0.0
H871 H 0.10103 0.39619 0.32928 0.0
H872 H 0.9695 0.30981 0.32245 0.0
H873 H 0.94644 0.3298 0.39579 0.0
H874 H 0.92608 0.2868 0.30747 0.0
H875 H 0.90342 0.30653 0.37946 0.0
H876 H 0.0186 0.30607 0.27053 0.0
H877 H 0.02416 0.37744 0.27193 0.0
H878 H 0.01449 0.41896 0.46323 0.0
H879 H 0.97663 0.41234 0.38753 0.0
Li880 Li 0.6986 0.02798 0.73615 0.0
Li881 Li 0.6767 0.98591 0.72058 0.0
Li882 Li 0.68021 0.01762 0.69024 0.0
Li883 Li 0.65203 0.00467 0.73102 0.0
C884 C 0.73062 0.02329 0.69895 0.0
N885 N 0.77965 0.04365 0.68606 0.0
C886 C 0.74339 0.01129 0.70625 0.0
C887 C 0.74268 0.04547 0.68482 0.0
C888 C 0.76819 0.02193 0.69962 0.0
C889 C 0.76751 0.05551 0.67857 0.0
C890 C 0.67474 0.98337 0.77506 0.0
C891 C 0.65623 0.95116 0.80845 0.0
N892 N 0.67817 0.95228 0.81206 0.0
C893 C 0.69714 0.98432 0.77917 0.0
C894 C 0.65411 0.96675 0.78982 0.0
C895 C 0.69848 0.96838 0.79793 0.0
C896 C 0.72102 0.07017 0.76886 0.0
N897 N 0.72485 0.05288 0.75703 0.0
C898 C 0.76615 0.07294 0.77326 0.0
C899 C 0.74671 0.05365 0.75948 0.0
C900 C 0.76298 0.09142 0.78535 0.0
C901 C 0.73982 0.08957 0.7833 0.0
H902 H 0.70335 0.06897 0.76691 0.0
H903 H 0.74924 0.03945 0.75058 0.0
C904 C 0.68788 0.95591 0.69229 0.0
N905 N 0.67723 0.95591 0.71629 0.0
C906 C 0.68874 0.93532 0.68379 0.0
C907 C 0.66759 0.91464 0.72493 0.0
C908 C 0.6669 0.93573 0.73255 0.0
C909 C 0.67867 0.91428 0.70018 0.0
H910 H 0.69514 0.97182 0.67924 0.0
H911 H 0.65773 0.93571 0.75108 0.0
C912 C 0.68092 0.06006 0.70727 0.0
N913 N 0.68903 0.10354 0.68439 0.0
C914 C 0.66116 0.06349 0.70125 0.0
C915 C 0.70481 0.07884 0.70201 0.0
C916 C 0.66564 0.08557 0.68958 0.0
C917 C 0.70853 0.10066 0.69034 0.0
C918 C 0.63581 0.96205 0.69223 0.0
C919 C 0.63768 0.95316 0.66684 0.0
C920 C 0.61956 0.94593 0.71164 0.0
C921 C 0.62335 0.92811 0.66139 0.0
C922 C 0.60553 0.92102 0.70539 0.0
N923 N 0.60773 0.9127 0.68062 0.0
C924 C 0.69436 0.01526 0.63813 0.0
C925 C 0.6701 0.03429 0.64003 0.0
C926 C 0.69328 0.01461 0.60987 0.0
N927 N 0.68263 0.02468 0.65258 0.0
C928 C 0.66869 0.03419 0.61163 0.0
C929 C 0.67988 0.02368 0.59618 0.0
H930 H 0.7034 0.0069 0.64861 0.0
H931 H 0.6602 0.04088 0.65196 0.0
C932 C 0.61697 0.00446 0.76861 0.0
N933 N 0.62201 0.00175 0.74238 0.0
C934 C 0.59538 0.00465 0.77492 0.0
C935 C 0.58468 0.99881 0.7272 0.0
C936 C 0.60627 0.99859 0.72187 0.0
C937 C 0.57919 0.00232 0.75392 0.0
H938 H 0.62999 0.00714 0.78447 0.0
H939 H 0.6109 0.99661 0.7012 0.0
O940 O 0.7063 0.01305 0.7052 0.0
O941 O 0.67306 0.99884 0.75688 0.0
O942 O 0.67687 0.03857 0.7187 0.0
O943 O 0.65029 0.98632 0.69833 0.0
H944 H 0.73429 0.99408 0.71718 0.0
H945 H 0.73295 0.05472 0.67853 0.0
H946 H 0.77835 0.01295 0.70529 0.0
H947 H 0.7771 0.0727 0.66768 0.0
H948 H 0.64042 0.93815 0.81999 0.0
H949 H 0.71324 0.9971 0.76784 0.0
H950 H 0.63666 0.96587 0.78683 0.0
H951 H 0.71566 0.9688 0.80125 0.0
H952 H 0.7836 0.07352 0.77389 0.0
H953 H 0.73614 0.1029 0.79277 0.0
H954 H 0.69673 0.93578 0.66416 0.0
H955 H 0.65954 0.89884 0.73825 0.0
H956 H 0.64256 0.04919 0.70539 0.0
H957 H 0.72032 0.07666 0.70704 0.0
H958 H 0.65052 0.08844 0.68466 0.0
H959 H 0.72693 0.11533 0.68609 0.0
H960 H 0.65027 0.96543 0.65165 0.0
H961 H 0.61805 0.95257 0.73145 0.0
H962 H 0.62471 0.92092 0.6419 0.0
H963 H 0.59298 0.90829 0.72027 0.0
H964 H 0.7017 0.00576 0.59903 0.0
H965 H 0.65828 0.04152 0.60198 0.0
H966 H 0.59185 0.00752 0.79576 0.0
H967 H 0.57253 0.99659 0.71048 0.0
Li968 Li 0.67009 0.69932 0.07195 0.0
Li969 Li 0.69272 0.68008 0.05808 0.0
Li970 Li 0.66309 0.68077 0.02759 0.0
Li971 Li 0.6492 0.65314 0.06857 0.0
C972 C 0.70708 0.73334 0.04432 0.0
N973 N 0.7345 0.78348 0.05137 0.0
C974 C 0.72936 0.74365 0.05831 0.0
C975 C 0.69884 0.74851 0.0337 0.0
C976 C 0.74294 0.76905 0.06168 0.0
C977 C 0.71293 0.77382 0.03757 0.0
C978 C 0.68956 0.67112 0.11182 0.0
C979 C 0.69544 0.64285 0.13945 0.0
N980 N 0.71699 0.66177 0.14864 0.0
C981 C 0.71172 0.6903 0.12159 0.0
C982 C 0.68129 0.6472 0.12084 0.0
C983 C 0.72534 0.68519 0.14017 0.0
C984 C 0.65046 0.72855 0.08996 0.0
N985 N 0.67029 0.7255 0.09197 0.0
C986 C 0.69051 0.76053 0.12102 0.0
C987 C 0.68999 0.74082 0.1074 0.0
C988 C 0.67037 0.76427 0.1191 0.0
C989 C 0.65009 0.74787 0.10346 0.0
H990 H 0.63494 0.71605 0.07778 0.0
H991 H 0.70543 0.73789 0.10895 0.0
C992 C 0.73539 0.69385 0.03083 0.0
N993 N 0.72399 0.68193 0.0541 0.0
C994 C 0.7561 0.69357 0.02153 0.0
C995 C 0.75398 0.66968 0.06094 0.0
C996 C 0.73289 0.67001 0.06928 0.0
C997 C 0.76542 0.68111 0.03644 0.0
H998 H 0.72762 0.70256 0.01865 0.0
H999 H 0.72305 0.65967 0.08697 0.0
C1000 C 0.61905 0.67328 0.03896 0.0
N1001 N 0.58153 0.66763 0.00518 0.0
C1002 C 0.59783 0.6504 0.03642 0.0
C1003 C 0.62113 0.69332 0.02447 0.0
C1004 C 0.57908 0.64792 0.01921 0.0
C1005 C 0.60198 0.69008 0.00744 0.0
C1006 C 0.67899 0.64101 0.02675 0.0
C1007 C 0.68913 0.64627 0.00065 0.0
C1008 C 0.68204 0.62469 0.04331 0.0
C1009 C 0.70241 0.6353 0.99165 0.0
C1010 C 0.6954 0.61406 0.03354 0.0
N1011 N 0.70526 0.61958 0.00815 0.0
C1012 C 0.67683 0.69962 0.97541 0.0
C1013 C 0.63817 0.66323 0.97728 0.0
C1014 C 0.67701 0.69839 0.94711 0.0
N1015 N 0.65785 0.68193 0.98983 0.0
C1016 C 0.63733 0.66156 0.94894 0.0
C1017 C 0.65734 0.67882 0.93344 0.0
H1018 H 0.69264 0.7138 0.98594 0.0
H1019 H 0.62373 0.64891 0.98924 0.0
C1020 C 0.60959 0.62132 0.10281 0.0
N1021 N 0.62371 0.62247 0.08133 0.0
C1022 C 0.5891 0.59897 0.1101 0.0
C1023 C 0.59863 0.57949 0.07349 0.0
C1024 C 0.61868 0.60217 0.06675 0.0
C1025 C 0.58334 0.57773 0.09518 0.0
H1026 H 0.61384 0.63787 0.11376 0.0
H1027 H 0.62975 0.60371 0.04929 0.0
O1028 O 0.69334 0.70849 0.04113 0.0
O1029 O 0.67571 0.67578 0.09404 0.0
O1030 O 0.63769 0.67606 0.05556 0.0
O1031 O 0.66666 0.65221 0.03629 0.0
H1032 H 0.73595 0.73214 0.06676 0.0
H1033 H 0.68168 0.7408 0.02275 0.0
H1034 H 0.76015 0.77728 0.0726 0.0
H1035 H 0.70671 0.78579 0.02961 0.0
H1036 H 0.68929 0.62443 0.14657 0.0
H1037 H 0.71845 0.70888 0.11471 0.0
H1038 H 0.66414 0.63216 0.11355 0.0
H1039 H 0.74258 0.69983 0.14782 0.0
H1040 H 0.70639 0.77258 0.13314 0.0
H1041 H 0.63425 0.75018 0.10128 0.0
H1042 H 0.7645 0.7026 0.00254 0.0
H1043 H 0.76057 0.65964 0.07275 0.0
H1044 H 0.59589 0.6347 0.0475 0.0
H1045 H 0.63743 0.71114 0.0262 0.0
H1046 H 0.56258 0.6303 0.01698 0.0
H1047 H 0.60339 0.7054 0.99599 0.0
H1048 H 0.68705 0.65894 0.98761 0.0
H1049 H 0.67452 0.62061 0.06367 0.0
H1050 H 0.71053 0.63937 0.97159 0.0
H1051 H 0.69807 0.60155 0.04622 0.0
H1052 H 0.69311 0.71187 0.93631 0.0
H1053 H 0.62158 0.64635 0.93942 0.0
H1054 H 0.57775 0.59836 0.12695 0.0
H1055 H 0.59455 0.56368 0.06111 0.0
H1056 H 0.36552 0.13285 0.1849 0.0
H1057 H 0.29271 0.10638 0.21672 0.0
H1058 H 0.36404 0.16671 0.16278 0.0
H1059 H 0.29137 0.1406 0.19525 0.0
H1060 H 0.28698 0.18967 0.12984 0.0
H1061 H 0.28834 0.15598 0.15229 0.0
H1062 H 0.3648 0.2041 0.17143 0.0
H1063 H 0.36383 0.23737 0.14749 0.0
C1064 C 0.34929 0.13445 0.18738 0.0
C1065 C 0.32922 0.11695 0.20249 0.0
C1066 C 0.34845 0.15392 0.17479 0.0
C1067 C 0.3276 0.1565 0.17723 0.0
C1068 C 0.30757 0.13901 0.19251 0.0
C1069 C 0.30833 0.11941 0.20488 0.0
C1070 C 0.30417 0.19303 0.13858 0.0
C1071 C 0.32532 0.21629 0.13667 0.0
C1072 C 0.30486 0.17375 0.15182 0.0
C1073 C 0.32669 0.17722 0.16369 0.0
C1074 C 0.34774 0.20059 0.16219 0.0
C1075 C 0.34709 0.21983 0.14879 0.0
H1076 H 0.2056 0.34592 0.56661 0.0
H1077 H 0.21859 0.31566 0.49377 0.0
H1078 H 0.17102 0.34602 0.54452 0.0
H1079 H 0.18354 0.31517 0.47208 0.0
H1080 H 0.10299 0.29355 0.45523 0.0
H1081 H 0.13759 0.29347 0.47768 0.0
H1082 H 0.16379 0.36752 0.5054 0.0
H1083 H 0.12908 0.36752 0.48317 0.0
C1084 C 0.20126 0.33947 0.54584 0.0
C1085 C 0.21501 0.33084 0.53199 0.0
C1086 C 0.18136 0.33946 0.53323 0.0
C1087 C 0.17457 0.33057 0.5066 0.0
C1088 C 0.18817 0.32183 0.49276 0.0
C1089 C 0.20822 0.32206 0.50525 0.0
C1090 C 0.11605 0.30973 0.4663 0.0
C1091 C 0.11334 0.33054 0.46747 0.0
C1092 C 0.13596 0.30976 0.47892 0.0
C1093 C 0.1534 0.3305 0.49325 0.0
C1094 C 0.15054 0.35122 0.49466 0.0
C1095 C 0.1308 0.35129 0.48177 0.0
H1096 H 0.77287 0.13915 0.78851 0.0
H1097 H 0.80052 0.09195 0.81465 0.0
H1098 H 0.80638 0.17334 0.81181 0.0
H1099 H 0.83535 0.12667 0.83553 0.0
H1100 H 0.88376 0.18802 0.89313 0.0
H1101 H 0.84861 0.15322 0.87186 0.0
H1102 H 0.84766 0.20155 0.80986 0.0
H1103 H 0.88176 0.23638 0.83254 0.0
C1104 C 0.78604 0.13596 0.7992 0.0
C1105 C 0.78374 0.11256 0.79961 0.0
C1106 C 0.80566 0.15582 0.81218 0.0
C1107 C 0.82388 0.15303 0.82554 0.0
C1108 C 0.82161 0.12964 0.82588 0.0
C1109 C 0.80173 0.10968 0.81337 0.0
C1110 C 0.87587 0.19102 0.87496 0.0
C1111 C 0.88528 0.21468 0.86437 0.0
C1112 C 0.85585 0.1711 0.86258 0.0
C1113 C 0.84513 0.17436 0.83895 0.0
C1114 C 0.85494 0.19823 0.82828 0.0
C1115 C 0.87463 0.21821 0.84105 0.0
H1116 H 0.63342 0.7639 0.14855 0.0
H1117 H 0.70763 0.81186 0.1215 0.0
H1118 H 0.63342 0.79822 0.1714 0.0
H1119 H 0.70755 0.84639 0.14384 0.0
H1120 H 0.63219 0.86906 0.18492 0.0
H1121 H 0.63269 0.83494 0.16219 0.0
H1122 H 0.70784 0.86326 0.18738 0.0
H1123 H 0.7074 0.89765 0.2096 0.0
C1124 C 0.64967 0.78185 0.1473 0.0
C1125 C 0.67051 0.78518 0.13322 0.0
C1126 C 0.64966 0.80157 0.16033 0.0
C1127 C 0.67046 0.82517 0.15942 0.0
C1128 C 0.69134 0.82844 0.14536 0.0
C1129 C 0.69139 0.80867 0.1325 0.0
C1130 C 0.64877 0.86791 0.18568 0.0
C1131 C 0.66975 0.88604 0.19905 0.0
C1132 C 0.64906 0.84831 0.17272 0.0
C1133 C 0.67028 0.84624 0.17299 0.0
C1134 C 0.69129 0.86443 0.18636 0.0
C1135 C 0.69104 0.88414 0.19915 0.0
H1136 H 0.86371 0.65995 0.43071 0.0
H1137 H 0.90692 0.68563 0.50417 0.0
H1138 H 0.82955 0.65988 0.45388 0.0
H1139 H 0.87323 0.68685 0.5269 0.0
H1140 H 0.79925 0.65979 0.56809 0.0
H1141 H 0.83337 0.65991 0.54485 0.0
H1142 H 0.81633 0.68664 0.47187 0.0
H1143 H 0.78134 0.68523 0.49469 0.0
C1144 C 0.86595 0.66558 0.45181 0.0
C1145 C 0.88807 0.67267 0.46558 0.0
C1146 C 0.84645 0.66588 0.465 0.0
C1147 C 0.84859 0.67338 0.49228 0.0
C1148 C 0.87079 0.68067 0.50599 0.0
C1149 C 0.89026 0.68028 0.49283 0.0
C1150 C 0.80257 0.66542 0.54699 0.0
C1151 C 0.7874 0.67236 0.53325 0.0
C1152 C 0.82239 0.66582 0.53375 0.0
C1153 C 0.82767 0.67331 0.50646 0.0
C1154 C 0.81264 0.68047 0.49279 0.0
C1155 C 0.79274 0.67997 0.506 0.0
H1156 H 0.18724 0.88232 0.76777 0.0
H1157 H 0.23652 0.87682 0.8245 0.0
H1158 H 0.15229 0.84745 0.78997 0.0
H1159 H 0.2015 0.8424 0.84719 0.0
H1160 H 0.12606 0.8062 0.89637 0.0
H1161 H 0.16151 0.83977 0.87337 0.0
H1162 H 0.1397 0.79903 0.79819 0.0
H1163 H 0.10455 0.76511 0.8214 0.0
C1164 C 0.19051 0.87365 0.78503 0.0
C1165 C 0.21445 0.88213 0.79451 0.0
C1166 C 0.17061 0.85372 0.79759 0.0
C1167 C 0.17432 0.84236 0.82021 0.0
C1168 C 0.19825 0.85095 0.8298 0.0
C1169 C 0.2182 0.8705 0.81683 0.0
C1170 C 0.12892 0.80446 0.87495 0.0
C1171 C 0.11268 0.78318 0.86058 0.0
C1172 C 0.14918 0.82354 0.86188 0.0
C1173 C 0.15321 0.82187 0.83409 0.0
C1174 C 0.13687 0.80069 0.81964 0.0
C1175 C 0.11691 0.78134 0.83287 0.0
H1176 H 0.42985 0.96131 0.2421 0.0
H1177 H 0.46145 0.03566 0.21274 0.0
H1178 H 0.46938 0.9636 0.23739 0.0
H1179 H 0.50079 0.03757 0.20682 0.0
H1180 H 0.57166 0.04263 0.24149 0.0
H1181 H 0.5321 0.04033 0.23708 0.0
H1182 H 0.50045 0.96621 0.20691 0.0
H1183 H 0.53981 0.96814 0.21253 0.0
C1184 C 0.44516 0.97804 0.23429 0.0
C1185 C 0.44251 0.99838 0.22808 0.0
C1186 C 0.4678 0.97926 0.23127 0.0
C1187 C 0.48835 0.00084 0.22187 0.0
C1188 C 0.48543 0.0208 0.21447 0.0
C1189 C 0.46278 0.01959 0.21755 0.0
C1190 C 0.55628 0.02586 0.23383 0.0
C1191 C 0.55888 0.00549 0.22765 0.0
C1192 C 0.53363 0.02464 0.23098 0.0
C1193 C 0.513 0.00302 0.22178 0.0
C1194 C 0.51587 0.98302 0.21441 0.0
C1195 C 0.53853 0.98424 0.21732 0.0
H1196 H 0.54772 0.56048 0.53821 0.0
H1197 H 0.56195 0.54113 0.61762 0.0
H1198 H 0.50948 0.52097 0.53559 0.0
H1199 H 0.52437 0.50179 0.61489 0.0
H1200 H 0.44353 0.44885 0.61822 0.0
H1201 H 0.48144 0.48792 0.61714 0.0
H1202 H 0.49153 0.47621 0.53266 0.0
H1203 H 0.45295 0.43691 0.53371 0.0
C1204 C 0.54278 0.54767 0.55494 0.0
C1205 C 0.55753 0.55402 0.57833 0.0
C1206 C 0.52096 0.52506 0.55343 0.0
C1207 C 0.51366 0.50838 0.57523 0.0
C1208 C 0.52905 0.51445 0.59806 0.0
C1209 C 0.55063 0.53699 0.59963 0.0
C1210 C 0.4539 0.45451 0.59944 0.0
C1211 C 0.4455 0.43963 0.57618 0.0
C1212 C 0.47568 0.47691 0.59882 0.0
C1213 C 0.48978 0.48503 0.57494 0.0
C1214 C 0.48106 0.47051 0.55136 0.0
C1215 C 0.45905 0.44801 0.55195 0.0
H1216 H 0.01161 0.55922 0.95511 0.0
H1217 H 0.99009 0.5497 0.87066 0.0
H1218 H 0.01272 0.52124 0.95405 0.0
H1219 H 0.99079 0.5111 0.86962 0.0
H1220 H 0.01721 0.45363 0.87553 0.0
H1221 H 0.01722 0.49253 0.87285 0.0
H1222 H 0.98274 0.47836 0.95184 0.0
H1223 H 0.98305 0.44004 0.95459 0.0
C1224 C 0.00694 0.54886 0.93633 0.0
C1225 C 0.00035 0.55719 0.91309 0.0
C1226 C 0.00753 0.52705 0.93571 0.0
C1227 C 0.0014 0.51287 0.91189 0.0
C1228 C 0.99566 0.52162 0.88828 0.0
C1229 C 0.9952 0.54366 0.88886 0.0
C1230 C 0.00953 0.45886 0.89219 0.0
C1231 C 0.00053 0.44402 0.91548 0.0
C1232 C 0.00949 0.48107 0.89064 0.0
C1233 C 0.00035 0.48875 0.91233 0.0
C1234 C 0.99056 0.47338 0.9351 0.0
C1235 C 0.9907 0.45137 0.93668 0.0
H1236 H 0.04163 0.57187 0.41756 0.0
H1237 H 0.96709 0.54061 0.44616 0.0
H1238 H 0.03877 0.53201 0.42163 0.0
H1239 H 0.9646 0.50097 0.45143 0.0
H1240 H 0.95904 0.42983 0.41741 0.0
H1241 H 0.96185 0.46969 0.42108 0.0
H1242 H 0.03557 0.50071 0.4523 0.0
H1243 H 0.03314 0.46105 0.44745 0.0
C1244 C 0.02472 0.55655 0.42502 0.0
C1245 C 0.00453 0.55943 0.4313 0.0
C1246 C 0.02317 0.53373 0.42767 0.0
C1247 C 0.0014 0.51322 0.43674 0.0
C1248 C 0.98153 0.51631 0.44404 0.0
C1249 C 0.98307 0.53913 0.44134 0.0
C1250 C 0.97584 0.44514 0.4251 0.0
C1251 C 0.99593 0.44226 0.43189 0.0
C1252 C 0.97736 0.46796 0.42753 0.0
C1253 C 0.999 0.48848 0.43687 0.0
C1254 C 0.01875 0.48537 0.44469 0.0
C1255 C 0.01724 0.46254 0.44223 0.0
H1256 H 0.56363 0.02888 0.72524 0.0
H1257 H 0.54523 0.981 0.79479 0.0
H1258 H 0.52645 0.03092 0.73174 0.0
H1259 H 0.50797 0.98346 0.80175 0.0
H1260 H 0.4295 0.96826 0.77504 0.0
H1261 H 0.46842 0.96874 0.77759 0.0
H1262 H 0.50726 0.04673 0.76258 0.0
H1263 H 0.46836 0.04625 0.75999 0.0
C1264 C 0.55164 0.01885 0.74201 0.0
C1265 C 0.55721 0.00456 0.75933 0.0
C1266 C 0.53047 0.02026 0.74596 0.0
C1267 C 0.51427 0.00741 0.76732 0.0
C1268 C 0.52003 0.99346 0.78502 0.0
C1269 C 0.54141 0.99218 0.78116 0.0
C1270 C 0.44636 0.9856 0.77295 0.0
C1271 C 0.44583 0.00717 0.76699 0.0
C1272 C 0.46868 0.98587 0.77441 0.0
C1273 C 0.49091 0.00771 0.76992 0.0
C1274 C 0.49041 0.02952 0.76556 0.0
C1275 C 0.46814 0.02924 0.7641 0.0
H1276 H 0.43438 0.4552 0.12468 0.0
H1277 H 0.46845 0.4323 0.06413 0.0
H1278 H 0.4734 0.49305 0.1317 0.0
H1279 H 0.5069 0.47028 0.07026 0.0
H1280 H 0.57825 0.53212 0.09799 0.0
H1281 H 0.54028 0.49285 0.10094 0.0
H1282 H 0.49914 0.53071 0.10692 0.0
H1283 H 0.53721 0.56996 0.10446 0.0
C1284 C 0.45022 0.45815 0.11304 0.0
C1285 C 0.44825 0.44084 0.09367 0.0
C1286 C 0.47251 0.47993 0.11687 0.0
C1287 C 0.4933 0.48476 0.10152 0.0
C1288 C 0.49141 0.46709 0.08272 0.0
C1289 C 0.46922 0.44541 0.0789 0.0
C1290 C 0.56109 0.53201 0.10024 0.0
C1291 C 0.56068 0.5541 0.10074 0.0
C1292 C 0.53933 0.50953 0.10184 0.0
C1293 C 0.51659 0.50859 0.10378 0.0
C1294 C 0.5163 0.53073 0.10569 0.0
C1295 C 0.53813 0.55325 0.10425 0.0
H1296 H 0.13372 0.77829 0.37063 0.0
H1297 H 0.08932 0.81086 0.35118 0.0
H1298 H 0.16973 0.81448 0.35304 0.0
H1299 H 0.1247 0.84591 0.33156 0.0
H1300 H 0.19584 0.91656 0.3217 0.0
H1301 H 0.16104 0.88114 0.3416 0.0
H1302 H 0.18903 0.83502 0.31268 0.0
H1303 H 0.22507 0.87097 0.29476 0.0
C1304 C 0.1316 0.79316 0.36272 0.0
C1305 C 0.1085 0.79153 0.36235 0.0
C1306 C 0.15223 0.81379 0.35213 0.0
C1307 C 0.15025 0.8332 0.34063 0.0
C1308 C 0.12716 0.83159 0.34052 0.0
C1309 C 0.10668 0.8112 0.35145 0.0
C1310 C 0.19483 0.89895 0.31986 0.0
C1311 C 0.21349 0.89679 0.30674 0.0
C1312 C 0.17456 0.87846 0.33097 0.0
C1313 C 0.17205 0.85505 0.32882 0.0
C1314 C 0.19046 0.85276 0.31518 0.0
C1315 C 0.21098 0.87338 0.30441 0.0
H1316 H 0.27311 0.18612 0.64149 0.0
H1317 H 0.35078 0.22019 0.62538 0.0
H1318 H 0.27357 0.15125 0.66164 0.0
H1319 H 0.35086 0.18432 0.6436 0.0
H1320 H 0.34919 0.12852 0.70324 0.0
H1321 H 0.3486 0.16404 0.68467 0.0
H1322 H 0.27616 0.11653 0.6521 0.0
H1323 H 0.27597 0.08144 0.67248 0.0
C1324 C 0.29029 0.18612 0.64204 0.0
C1325 C 0.31194 0.20614 0.63192 0.0
C1326 C 0.29049 0.16588 0.6533 0.0
C1327 C 0.31227 0.16485 0.65436 0.0
C1328 C 0.33382 0.18459 0.6436 0.0
C1329 C 0.33368 0.20503 0.63265 0.0
C1330 C 0.33292 0.12571 0.69262 0.0
C1331 C 0.31264 0.10202 0.68939 0.0
C1332 C 0.33276 0.14608 0.68151 0.0
C1333 C 0.31241 0.14326 0.66664 0.0
C1334 C 0.29207 0.11958 0.66366 0.0
C1335 C 0.2921 0.09931 0.67506 0.0
H1336 H 0.20653 0.29657 0.99814 0.0
H1337 H 0.21253 0.34888 0.05875 0.0
H1338 H 0.16984 0.29493 0.98001 0.0
H1339 H 0.17514 0.34676 0.04096 0.0
H1340 H 0.12534 0.35763 0.97977 0.0
H1341 H 0.16176 0.35917 -0.00061 0.0
H1342 H 0.12739 0.28049 0.9919 0.0
H1343 H 0.09142 0.27906 0.97159 0.0
C1344 C 0.1999 0.30765 0.00767 0.0
C1345 C 0.21252 0.32302 0.02973 0.0
C1346 C 0.17874 0.30655 0.99742 0.0
C1347 C 0.1696 0.32076 0.00897 0.0
C1348 C 0.18191 0.3358 0.03142 0.0
C1349 C 0.20313 0.33682 0.0418 0.0
C1350 C 0.12574 0.34073 0.98198 0.0
C1351 C 0.10557 0.31823 0.97399 0.0
C1352 C 0.14644 0.34157 0.99358 0.0
C1353 C 0.14743 0.31995 0.9973 0.0
C1354 C 0.1273 0.2975 0.98913 0.0
C1355 C 0.10662 0.29665 0.97764 0.0
H1356 H 0.91247 0.19178 0.34965 0.0
H1357 H 0.86761 0.2233 0.37139 0.0
H1358 H 0.87712 0.15684 0.3298 0.0
H1359 H 0.83167 0.1872 0.35356 0.0
H1360 H 0.77615 0.13147 0.2949 0.0
H1361 H 0.81216 0.16728 0.31307 0.0
H1362 H 0.84104 0.12121 0.3395 0.0
H1363 H 0.80623 0.08596 0.31932 0.0
C1364 C 0.89503 0.19123 0.35038 0.0
C1365 C 0.89307 0.21059 0.36199 0.0
C1366 C 0.87457 0.1709 0.33931 0.0
C1367 C 0.85137 0.16903 0.33998 0.0
C1368 C 0.84926 0.18811 0.3522 0.0
C1369 C 0.86986 0.20867 0.36293 0.0
C1370 C 0.79043 0.12905 0.30405 0.0
C1371 C 0.78815 0.1057 0.30559 0.0
C1372 C 0.81094 0.14958 0.31497 0.0
C1373 C 0.82959 0.14727 0.32799 0.0
C1374 C 0.82732 0.12392 0.32935 0.0
C1375 C 0.80706 0.10351 0.31809 0.0
H1376 H 0.72093 0.80903 0.64555 0.0
H1377 H 0.64282 0.77256 0.63133 0.0
H1378 H 0.71969 0.84369 0.66501 0.0
H1379 H 0.6419 0.80825 0.64886 0.0
H1380 H 0.64353 0.86569 0.70631 0.0
H1381 H 0.64455 0.8299 0.68917 0.0
H1382 H 0.71585 0.87735 0.65393 0.0
H1383 H 0.71566 0.91271 0.67282 0.0
C1384 C 0.70347 0.80843 0.64641 0.0
C1385 C 0.68196 0.78783 0.63697 0.0
C1386 C 0.70281 0.82855 0.65726 0.0
C1387 C 0.68069 0.82892 0.65855 0.0
C1388 C 0.65922 0.80852 0.64862 0.0
C1389 C 0.65982 0.78819 0.63808 0.0
C1390 C 0.65963 0.86843 0.69538 0.0
C1391 C 0.67946 0.89217 0.6909 0.0
C1392 C 0.66004 0.8479 0.68512 0.0
C1393 C 0.68022 0.85062 0.66996 0.0
C1394 C 0.70011 0.87437 0.66577 0.0
C1395 C 0.69983 0.89479 0.6763 0.0
H1396 H 0.80905 0.69461 0.0613 0.0
H1397 H 0.76877 0.6638 0.98704 0.0
H1398 H 0.84485 0.69462 0.04153 0.0
H1399 H 0.80434 0.66343 0.96744 0.0
H1400 H 0.86753 0.64432 0.95839 0.0
H1401 H 0.83082 0.64246 0.97747 0.0
H1402 H 0.87312 0.71872 -7e-05 0.0
H1403 H 0.90957 0.72111 0.97979 0.0
C1404 C 0.80783 0.68758 0.04091 0.0
C1405 C 0.78634 0.67933 0.02559 0.0
C1406 C 0.82826 0.68771 0.02956 0.0
C1407 C 0.82731 0.67912 0.00294 0.0
C1408 C 0.80549 0.67007 0.98801 0.0
C1409 C 0.78526 0.67038 0.99915 0.0
C1410 C 0.86897 0.66086 0.96684 0.0
C1411 C 0.89165 0.68286 0.9676 0.0
C1412 C 0.84797 0.6597 0.97797 0.0
C1413 C 0.84929 0.68037 0.99046 0.0
C1414 C 0.87175 0.70241 0.99086 0.0
C1415 C 0.89262 0.70371 0.97935 0.0
H1416 H 0.33012 0.04085 0.43901 0.0
H1417 H 0.36678 0.9991 0.42663 0.0
H1418 H 0.32477 0.02972 0.48666 0.0
H1419 H 0.36351 0.98991 0.47484 0.0
H1420 H 0.32802 0.95329 0.55553 0.0
H1421 H 0.33523 0.96527 0.50762 0.0
H1422 H 0.34331 0.0357 0.52858 0.0
H1423 H 0.33455 0.02285 0.57589 0.0
C1424 C 0.3373 0.02952 0.44645 0.0
C1425 C 0.3487 0.02075 0.42872 0.0
C1426 C 0.33458 0.02342 0.47401 0.0
C1427 C 0.34363 0.00879 0.4848 0.0
C1428 C 0.35586 0.00079 0.46727 0.0
C1429 C 0.35818 0.00652 0.43959 0.0
C1430 C 0.33129 0.97126 0.54964 0.0
C1431 C 0.33047 0.98708 0.56907 0.0
C1432 C 0.33565 0.97828 0.5223 0.0
C1433 C 0.33979 0.00149 0.51403 0.0
C1434 C 0.3396 0.01748 0.53389 0.0
C1435 C 0.33474 0.01024 0.56104 0.0
H1436 H 0.31821 0.34626 0.90653 0.0
H1437 H 0.35731 0.30766 0.89009 0.0
H1438 H 0.31594 0.35255 0.85806 0.0
H1439 H 0.35454 0.31337 0.84124 0.0
H1440 H 0.3634 0.34628 0.75667 0.0
H1441 H 0.36851 0.34327 0.80532 0.0
H1442 H 0.2948 0.32915 0.81897 0.0
H1443 H 0.29019 0.33353 0.77052 0.0
C1444 C 0.32618 0.33898 0.89244 0.0
C1445 C 0.3377 0.32624 0.90198 0.0
C1446 C 0.32482 0.3425 0.86466 0.0
C1447 C 0.33479 0.33322 0.84571 0.0
C1448 C 0.34686 0.32096 0.8553 0.0
C1449 C 0.34841 0.31761 0.88322 0.0
C1450 C 0.34845 0.34303 0.7701 0.0
C1451 C 0.32642 0.3403 0.75967 0.0
C1452 C 0.35126 0.34092 0.79797 0.0
C1453 C 0.33208 0.33592 0.81608 0.0
C1454 C 0.3101 0.33333 0.80566 0.0
C1455 C 0.30733 0.33556 0.77782 0.0
H1456 H 0.99548 0.35858 0.23747 0.0
H1457 H 0.03615 0.32043 0.22823 0.0
H1458 H 0.98581 0.35334 0.18939 0.0
H1459 H 0.02448 0.31313 0.18075 0.0
H1460 H 0.01793 0.32127 0.09058 0.0
H1461 H 0.03049 0.33016 0.13792 0.0
H1462 H 0.96071 0.32406 0.15777 0.0
H1463 H 0.94898 0.31665 0.10984 0.0
C1464 C 0.00255 0.34922 0.22523 0.0
C1465 C 0.01666 0.33995 0.23694 0.0
C1466 C 0.99652 0.34575 0.19763 0.0
C1467 C 0.00405 0.33253 0.18105 0.0
C1468 C 0.01851 0.32363 0.19266 0.0
C1469 C 0.02493 0.32751 0.22014 0.0
C1470 C 0.0053 0.32175 0.10519 0.0
C1471 C 0.98244 0.3181 0.09678 0.0
C1472 C 0.01242 0.32674 0.13237 0.0
C1473 C 0.99662 0.32775 0.1519 0.0
C1474 C 0.9736 0.32391 0.14334 0.0
C1475 C 0.96671 0.31941 0.11597 0.0
H1476 H 0.66827 0.96098 0.43832 0.0
H1477 H 0.6408 0.01065 0.42359 0.0
H1478 H 0.67502 0.97345 0.48593 0.0
H1479 H 0.6466 0.02214 0.47149 0.0
H1480 H 0.63813 0.01184 0.56722 0.0
H1481 H 0.63042 0.0013 0.51908 0.0
H1482 H 0.70439 0.01529 0.50959 0.0
H1483 H 0.71261 0.02685 0.55736 0.0
C1484 C 0.66356 0.97445 0.44516 0.0
C1485 C 0.65412 0.98489 0.42694 0.0
C1486 C 0.6674 0.98153 0.47244 0.0
C1487 C 0.66152 0.99889 0.48222 0.0
C1488 C 0.65118 0.00863 0.46442 0.0
C1489 C 0.64769 0.00185 0.43702 0.0
C1490 C 0.65299 0.01332 0.55479 0.0
C1491 C 0.67598 0.02006 0.5663 0.0
C1492 C 0.64846 0.00708 0.52727 0.0
C1493 C 0.6667 0.00714 0.51083 0.0
C1494 C 0.68988 0.01465 0.52201 0.0
C1495 C 0.69454 0.02123 0.54938 0.0
H1496 H 0.63963 0.63553 0.90529 0.0
H1497 H 0.67876 0.71419 0.89376 0.0
H1498 H 0.64455 0.62995 0.85716 0.0
H1499 H 0.68484 0.70831 0.84596 0.0
H1500 H 0.71592 0.68209 0.77408 0.0
H1501 H 0.70892 0.68723 0.82182 0.0
H1502 H 0.63095 0.64232 0.80983 0.0
H1503 H 0.63753 0.63826 0.76178 0.0
C1504 C 0.64896 0.65165 0.89258 0.0
C1505 C 0.65878 0.67537 0.90364 0.0
C1506 C 0.65196 0.64838 0.86504 0.0
C1507 C 0.66526 0.6687 0.84809 0.0
C1508 C 0.6748 0.69237 0.85883 0.0
C1509 C 0.67137 0.69568 0.88623 0.0
C1510 C 0.69724 0.67349 0.78141 0.0
C1511 C 0.67732 0.65981 0.76382 0.0
C1512 C 0.69329 0.67639 0.80878 0.0
C1513 C 0.66942 0.66524 0.81929 0.0
C1514 C 0.64954 0.65096 0.80213 0.0
C1515 C 0.65341 0.64847 0.77464 0.0
H1516 H 0.01623 0.70575 0.24126 0.0
H1517 H 0.96635 0.62912 0.22532 0.0
H1518 H 0.02822 0.71222 0.19363 0.0
H1519 H 0.97772 0.63564 0.17725 0.0
H1520 H 0.01821 0.65002 0.09751 0.0
H1521 H 0.01014 0.64433 0.14615 0.0
H1522 H 0.013 0.71425 0.15044 0.0
H1523 H 0.02258 0.7206 0.10226 0.0
C1524 C 0.00756 0.69036 0.2274 0.0
C1525 C 0.99017 0.66698 0.23687 0.0
C1526 C 0.01442 0.69405 0.20009 0.0
C1527 C 0.00389 0.67449 0.18151 0.0
C1528 C 0.9865 0.65105 0.19105 0.0
C1529 C 0.97983 0.64731 0.21851 0.0
C1530 C 0.01772 0.66445 0.10895 0.0
C1531 C 0.02099 0.68576 0.09592 0.0
C1532 C 0.01267 0.66099 0.13679 0.0
C1533 C 0.01064 0.67869 0.15222 0.0
C1534 C 0.01461 0.7003 0.13931 0.0
C1535 C 0.01985 0.70383 0.11156 0.0
loop_
_geom_bond_atom_site_label_1
_geom_bond_atom_site_label_2
_geom_bond_distance
_geom_bond_site_symmetry_2
_ccdc_geom_bond_type
Li0 N17 1.990 . S
Li0 O60 1.956 . S
Li0 O61 1.970 1_565 S
Li0 O62 1.961 . S
Li1 N25 1.990 . S
Li1 O60 1.970 1_545 S
Li1 O61 1.956 . S
Li1 O63 1.961 . S
Li2 N47 1.990 . S
Li2 O60 1.961 . S
Li2 O62 1.956 . S
Li2 O63 1.970 1_565 S
Li3 N53 1.990 . S
Li3 O61 1.961 . S
Li3 O62 1.970 1_545 S
Li3 O63 1.956 . S
C4 C6 1.348 . S
C4 C7 1.356 . S
C4 O60 1.325 . S
N5 C8 1.314 . S
N5 C9 1.279 . S
C6 C4 1.348 . S
C6 C8 1.353 . S
C6 H64 0.929 . S
C7 C4 1.356 . S
C7 C9 1.358 . S
C7 H65 0.930 . S
C8 N5 1.314 . S
C8 C6 1.353 . S
C8 H66 0.930 . S
C9 N5 1.279 . S
C9 C7 1.358 . S
C9 H67 0.930 . S
C10 C13 1.348 . S
C10 C14 1.356 . S
C10 O61 1.325 . S
C11 N12 1.279 . S
C11 C14 1.358 . S
C11 H68 0.930 . S
N12 C11 1.279 . S
N12 C15 1.314 . S
C13 C10 1.348 . S
C13 C15 1.353 . S
C13 H69 0.929 . S
C14 C10 1.356 . S
C14 C11 1.358 . S
C14 H70 0.930 . S
C15 N12 1.314 . S
C15 C13 1.353 . S
C15 H71 0.930 . S
C16 N17 1.314 1_545 S
C16 C21 1.353 . S
C16 H22 0.930 . S
N17 Li0 1.990 . S
N17 C16 1.314 1_565 S
N17 C19 1.279 . S
C18 C19 1.358 . S
C18 C20 1.356 . S
C18 H72 0.930 . S
C19 N17 1.279 . S
C19 C18 1.358 . S
C19 H23 0.930 . S
C20 C18 1.356 . S
C20 C21 1.348 1_565 S
C21 C16 1.353 . S
C21 C20 1.348 1_545 S
C21 H73 0.929 . S
H22 C16 0.930 . S
H23 C19 0.930 . S
C24 N25 1.314 . S
C24 C26 1.353 . S
C24 H30 0.930 1_545 S
N25 Li1 1.990 . S
N25 C24 1.314 . S
N25 C28 1.279 . S
C26 C24 1.353 . S
C26 C29 1.348 . S
C26 H74 0.929 . S
C27 C28 1.358 . S
C27 C29 1.356 . S
C27 H75 0.930 . S
C28 N25 1.279 . S
C28 C27 1.358 . S
C28 H31 0.930 . S
C29 C26 1.348 . S
C29 C27 1.356 . S
H30 C24 0.930 1_565 S
H31 C28 0.930 . S
C32 C34 1.348 . S
C32 C35 1.356 . S
C32 O62 1.325 . S
N33 C36 1.314 . S
N33 C37 1.279 . S
C34 C32 1.348 . S
C34 C36 1.353 . S
C34 H76 0.929 1_565 S
C35 C32 1.356 . S
C35 C37 1.358 . S
C35 H77 0.930 . S
C36 N33 1.314 . S
C36 C34 1.353 . S
C36 H78 0.930 . S
C37 N33 1.279 . S
C37 C35 1.358 . S
C37 H79 0.930 . S
C38 C39 1.348 1_545 S
C38 C40 1.356 . S
C38 O63 1.325 . S
C39 C38 1.348 1_565 S
C39 C41 1.353 . S
C39 H80 0.929 . S
C40 C38 1.356 . S
C40 C42 1.358 . S
C40 H81 0.930 . S
C41 C39 1.353 . S
C41 N43 1.314 1_565 S
C41 H82 0.930 . S
C42 C40 1.358 . S
C42 N43 1.279 . S
C42 H83 0.930 . S
N43 C41 1.314 1_545 S
N43 C42 1.279 . S
C44 C46 1.353 . S
C44 N47 1.314 . S
C44 H50 0.930 . S
C45 N47 1.279 . S
C45 C48 1.358 . S
C45 H51 0.930 . S
C46 C44 1.353 . S
C46 C49 1.348 . S
C46 H84 0.929 . S
N47 Li2 1.990 . S
N47 C44 1.314 . S
N47 C45 1.279 . S
C48 C45 1.358 . S
C48 C49 1.356 . S
C48 H85 0.930 . S
C49 C46 1.348 . S
C49 C48 1.356 . S
H50 C44 0.930 . S
H51 C45 0.930 . S
C52 N53 1.314 . S
C52 C54 1.353 . S
C52 H58 0.930 . S
N53 Li3 1.990 . S
N53 C52 1.314 . S
N53 C56 1.279 . S
C54 C52 1.353 . S
C54 C57 1.348 . S
C54 H86 0.929 . S
C55 C56 1.358 . S
C55 C57 1.356 . S
C55 H87 0.930 . S
C56 N53 1.279 . S
C56 C55 1.358 . S
C56 H59 0.930 . S
C57 C54 1.348 . S
C57 C55 1.356 . S
H58 C52 0.930 . S
H59 C56 0.930 . S
O60 Li0 1.956 . S
O60 Li1 1.970 1_565 S
O60 Li2 1.961 . S
O60 C4 1.325 . S
O61 Li0 1.970 1_545 S
O61 Li1 1.956 . S
O61 Li3 1.961 . S
O61 C10 1.325 . S
O62 Li0 1.961 . S
O62 Li2 1.956 . S
O62 Li3 1.970 1_565 S
O62 C32 1.325 . S
O63 Li1 1.961 . S
O63 Li2 1.970 1_545 S
O63 Li3 1.956 . S
O63 C38 1.325 . S
H64 C6 0.929 . S
H65 C7 0.930 . S
H66 C8 0.930 . S
H67 C9 0.930 . S
H68 C11 0.930 . S
H69 C13 0.929 . S
H70 C14 0.930 . S
H71 C15 0.930 . S
H72 C18 0.930 . S
H73 C21 0.929 . S
H74 C26 0.929 . S
H75 C27 0.930 . S
H76 C34 0.929 1_545 S
H77 C35 0.930 . S
H78 C36 0.930 . S
H79 C37 0.930 . S
H80 C39 0.929 . S
H81 C40 0.930 . S
H82 C41 0.930 . S
H83 C42 0.930 . S
H84 C46 0.929 . S
H85 C48 0.930 . S
H86 C54 0.929 . S
H87 C55 0.930 . S
Li88 N105 1.990 . S
Li88 O148 1.956 . S
Li88 O149 1.970 . S
Li88 O150 1.961 . S
Li89 N113 1.990 . S
Li89 O148 1.970 . S
Li89 O149 1.956 . S
Li89 O151 1.961 . S
Li90 N135 1.990 . S
Li90 O148 1.961 . S
Li90 O150 1.956 . S
Li90 O151 1.970 . S
Li91 N141 1.990 . S
Li91 O149 1.961 . S
Li91 O150 1.970 . S
Li91 O151 1.956 . S
C92 C94 1.348 . S
C92 C95 1.356 . S
C92 O148 1.325 . S
N93 C96 1.314 . S
N93 C97 1.279 . S
C94 C92 1.348 . S
C94 C96 1.353 . S
C94 H152 0.929 . S
C95 C92 1.356 . S
C95 C97 1.358 . S
C95 H153 0.930 . S
C96 N93 1.314 . S
C96 C94 1.353 . S
C96 H154 0.930 . S
C97 N93 1.279 . S
C97 C95 1.358 . S
C97 H155 0.930 . S
C98 C101 1.348 . S
C98 C102 1.356 . S
C98 O149 1.325 . S
C99 N100 1.279 . S
C99 C102 1.358 . S
C99 H156 0.930 . S
N100 C99 1.279 . S
N100 C103 1.314 . S
C101 C98 1.348 . S
C101 C103 1.353 . S
C101 H157 0.929 . S
C102 C98 1.356 . S
C102 C99 1.358 . S
C102 H158 0.930 . S
C103 N100 1.314 . S
C103 C101 1.353 . S
C103 H159 0.930 . S
C104 N105 1.314 . S
C104 C109 1.353 . S
C104 H110 0.930 . S
N105 Li88 1.990 . S
N105 C104 1.314 . S
N105 C107 1.279 . S
C106 C107 1.358 . S
C106 C108 1.356 . S
C106 H160 0.930 . S
C107 N105 1.279 . S
C107 C106 1.358 . S
C107 H111 0.930 . S
C108 C106 1.356 . S
C108 C109 1.348 . S
C109 C104 1.353 . S
C109 C108 1.348 . S
C109 H161 0.929 . S
H110 C104 0.930 . S
H111 C107 0.930 . S
C112 N113 1.314 . S
C112 C114 1.353 . S
C112 H118 0.930 . S
N113 Li89 1.990 . S
N113 C112 1.314 . S
N113 C116 1.279 . S
C114 C112 1.353 . S
C114 C117 1.348 . S
C114 H162 0.929 . S
C115 C116 1.358 . S
C115 C117 1.356 . S
C115 H163 0.930 . S
C116 N113 1.279 . S
C116 C115 1.358 . S
C116 H119 0.930 . S
C117 C114 1.348 . S
C117 C115 1.356 . S
H118 C112 0.930 . S
H119 C116 0.930 . S
C120 C122 1.348 . S
C120 C123 1.356 . S
C120 O150 1.325 . S
N121 C124 1.314 . S
N121 C125 1.279 . S
C122 C120 1.348 . S
C122 C124 1.353 . S
C122 H164 0.929 . S
C123 C120 1.356 . S
C123 C125 1.358 . S
C123 H165 0.930 . S
C124 N121 1.314 . S
C124 C122 1.353 . S
C124 H166 0.930 . S
C125 N121 1.279 . S
C125 C123 1.358 . S
C125 H167 0.930 . S
C126 C127 1.348 . S
C126 C128 1.356 . S
C126 O151 1.325 . S
C127 C126 1.348 . S
C127 C129 1.353 . S
C127 H168 0.929 . S
C128 C126 1.356 . S
C128 C130 1.358 . S
C128 H169 0.930 . S
C129 C127 1.353 . S
C129 N131 1.314 . S
C129 H170 0.930 . S
C130 C128 1.358 . S
C130 N131 1.279 . S
C130 H171 0.930 . S
N131 C129 1.314 . S
N131 C130 1.279 . S
C132 C134 1.353 . S
C132 N135 1.314 . S
C132 H138 0.930 . S
C133 N135 1.279 . S
C133 C136 1.358 . S
C133 H139 0.930 . S
C134 C132 1.353 . S
C134 C137 1.348 . S
C134 H172 0.929 . S
N135 Li90 1.990 . S
N135 C132 1.314 . S
N135 C133 1.279 . S
C136 C133 1.358 . S
C136 C137 1.356 . S
C136 H173 0.930 . S
C137 C134 1.348 . S
C137 C136 1.356 . S
H138 C132 0.930 . S
H139 C133 0.930 . S
C140 N141 1.314 . S
C140 C142 1.353 . S
C140 H146 0.930 . S
N141 Li91 1.990 . S
N141 C140 1.314 . S
N141 C144 1.279 . S
C142 C140 1.353 . S
C142 C145 1.348 . S
C142 H174 0.929 . S
C143 C144 1.358 . S
C143 C145 1.356 . S
C143 H175 0.930 . S
C144 N141 1.279 . S
C144 C143 1.358 . S
C144 H147 0.930 . S
C145 C142 1.348 . S
C145 C143 1.356 . S
H146 C140 0.930 . S
H147 C144 0.930 . S
O148 Li88 1.956 . S
O148 Li89 1.970 . S
O148 Li90 1.961 . S
O148 C92 1.325 . S
O149 Li88 1.970 . S
O149 Li89 1.956 . S
O149 Li91 1.961 . S
O149 C98 1.325 . S
O150 Li88 1.961 . S
O150 Li90 1.956 . S
O150 Li91 1.970 . S
O150 C120 1.325 . S
O151 Li89 1.961 . S
O151 Li90 1.970 . S
O151 Li91 1.956 . S
O151 C126 1.325 . S
H152 C94 0.929 . S
H153 C95 0.930 . S
H154 C96 0.930 . S
H155 C97 0.930 . S
H156 C99 0.930 . S
H157 C101 0.929 . S
H158 C102 0.930 . S
H159 C103 0.930 . S
H160 C106 0.930 . S
H161 C109 0.929 . S
H162 C114 0.929 . S
H163 C115 0.930 . S
H164 C122 0.929 . S
H165 C123 0.930 . S
H166 C124 0.930 . S
H167 C125 0.930 . S
H168 C127 0.929 . S
H169 C128 0.930 . S
H170 C129 0.930 . S
H171 C130 0.930 . S
H172 C134 0.929 . S
H173 C136 0.930 . S
H174 C142 0.929 . S
H175 C143 0.930 . S
Li176 N193 1.990 . S
Li176 O236 1.956 . S
Li176 O237 1.970 1_455 S
Li176 O238 1.961 . S
Li177 N201 1.990 1_556 S
Li177 O236 1.970 1_655 S
Li177 O237 1.956 . S
Li177 O239 1.961 . S
Li178 N223 1.990 . S
Li178 O236 1.961 . S
Li178 O238 1.956 . S
Li178 O239 1.970 1_455 S
Li179 N229 1.990 . S
Li179 O237 1.961 . S
Li179 O238 1.970 1_655 S
Li179 O239 1.956 . S
C180 C182 1.348 1_556 S
C180 C183 1.356 . S
C180 O236 1.325 . S
N181 C184 1.314 . S
N181 C185 1.279 1_554 S
C182 C180 1.348 1_554 S
C182 C184 1.353 . S
C182 H240 0.929 . S
C183 C180 1.356 . S
C183 C185 1.358 . S
C183 H241 0.930 . S
C184 N181 1.314 . S
C184 C182 1.353 . S
C184 H242 0.930 . S
C185 N181 1.279 1_556 S
C185 C183 1.358 . S
C185 H243 0.930 . S
C186 C189 1.348 . S
C186 C190 1.356 . S
C186 O237 1.325 . S
C187 N188 1.279 . S
C187 C190 1.358 . S
C187 H244 0.930 . S
N188 C187 1.279 . S
N188 C191 1.314 . S
C189 C186 1.348 . S
C189 C191 1.353 . S
C189 H245 0.929 . S
C190 C186 1.356 . S
C190 C187 1.358 . S
C190 H246 0.930 . S
C191 N188 1.314 . S
C191 C189 1.353 . S
C191 H247 0.930 . S
C192 N193 1.314 1_655 S
C192 C197 1.353 . S
C192 H198 0.930 . S
N193 Li176 1.990 . S
N193 C192 1.314 1_455 S
N193 C195 1.279 . S
C194 C195 1.358 . S
C194 C196 1.356 . S
C194 H248 0.930 . S
C195 N193 1.279 . S
C195 C194 1.358 . S
C195 H199 0.930 . S
C196 C194 1.356 . S
C196 C197 1.348 1_455 S
C197 C192 1.353 . S
C197 C196 1.348 1_655 S
C197 H249 0.929 . S
H198 C192 0.930 . S
H199 C195 0.930 . S
C200 N201 1.314 . S
C200 C202 1.353 . S
C200 H206 0.930 1_655 S
N201 Li177 1.990 1_554 S
N201 C200 1.314 . S
N201 C204 1.279 . S
C202 C200 1.353 . S
C202 C205 1.348 . S
C202 H250 0.929 . S
C203 C204 1.358 . S
C203 C205 1.356 . S
C203 H251 0.930 . S
C204 N201 1.279 . S
C204 C203 1.358 . S
C204 H207 0.930 . S
C205 C202 1.348 . S
C205 C203 1.356 . S
H206 C200 0.930 1_455 S
H207 C204 0.930 . S
C208 C210 1.348 . S
C208 C211 1.356 . S
C208 O238 1.325 . S
N209 C212 1.314 . S
N209 C213 1.279 . S
C210 C208 1.348 . S
C210 C212 1.353 . S
C210 H252 0.929 1_455 S
C211 C208 1.356 . S
C211 C213 1.358 . S
C211 H253 0.930 . S
C212 N209 1.314 . S
C212 C210 1.353 . S
C212 H254 0.930 . S
C213 N209 1.279 . S
C213 C211 1.358 . S
C213 H255 0.930 . S
C214 C215 1.348 1_655 S
C214 C216 1.356 . S
C214 O239 1.325 . S
C215 C214 1.348 1_455 S
C215 C217 1.353 . S
C215 H256 0.929 . S
C216 C214 1.356 . S
C216 C218 1.358 . S
C216 H257 0.930 . S
C217 C215 1.353 . S
C217 N219 1.314 1_455 S
C217 H258 0.930 . S
C218 C216 1.358 . S
C218 N219 1.279 . S
C218 H259 0.930 1_556 S
N219 C217 1.314 1_655 S
N219 C218 1.279 . S
C220 C222 1.353 . S
C220 N223 1.314 . S
C220 H226 0.930 . S
C221 N223 1.279 . S
C221 C224 1.358 . S
C221 H227 0.930 . S
C222 C220 1.353 . S
C222 C225 1.348 . S
C222 H260 0.929 . S
N223 Li178 1.990 . S
N223 C220 1.314 . S
N223 C221 1.279 . S
C224 C221 1.358 . S
C224 C225 1.356 . S
C224 H261 0.930 . S
C225 C222 1.348 . S
C225 C224 1.356 . S
H226 C220 0.930 . S
H227 C221 0.930 . S
C228 N229 1.314 . S
C228 C230 1.353 . S
C228 H234 0.930 . S
N229 Li179 1.990 . S
N229 C228 1.314 . S
N229 C232 1.279 . S
C230 C228 1.353 . S
C230 C233 1.348 . S
C230 H262 0.929 . S
C231 C232 1.358 . S
C231 C233 1.356 . S
C231 H263 0.930 . S
C232 N229 1.279 . S
C232 C231 1.358 . S
C232 H235 0.930 . S
C233 C230 1.348 . S
C233 C231 1.356 . S
H234 C228 0.930 . S
H235 C232 0.930 . S
O236 Li176 1.956 . S
O236 Li177 1.970 1_455 S
O236 Li178 1.961 . S
O236 C180 1.325 . S
O237 Li176 1.970 1_655 S
O237 Li177 1.956 . S
O237 Li179 1.961 . S
O237 C186 1.325 . S
O238 Li176 1.961 . S
O238 Li178 1.956 . S
O238 Li179 1.970 1_455 S
O238 C208 1.325 . S
O239 Li177 1.961 . S
O239 Li178 1.970 1_655 S
O239 Li179 1.956 . S
O239 C214 1.325 . S
H240 C182 0.929 . S
H241 C183 0.930 . S
H242 C184 0.930 . S
H243 C185 0.930 . S
H244 C187 0.930 . S
H245 C189 0.929 . S
H246 C190 0.930 . S
H247 C191 0.930 . S
H248 C194 0.930 . S
H249 C197 0.929 . S
H250 C202 0.929 . S
H251 C203 0.930 . S
H252 C210 0.929 1_655 S
H253 C211 0.930 . S
H254 C212 0.930 . S
H255 C213 0.930 . S
H256 C215 0.929 . S
H257 C216 0.930 . S
H258 C217 0.930 . S
H259 C218 0.930 1_554 S
H260 C222 0.929 . S
H261 C224 0.930 . S
H262 C230 0.929 . S
H263 C231 0.930 . S
Li264 N281 1.990 . S
Li264 O324 1.956 . S
Li264 O325 1.970 1_545 S
Li264 O326 1.961 . S
Li265 N289 1.990 . S
Li265 O324 1.970 1_565 S
Li265 O325 1.956 . S
Li265 O327 1.961 . S
Li266 N311 1.990 . S
Li266 O324 1.961 . S
Li266 O326 1.956 . S
Li266 O327 1.970 1_545 S
Li267 N317 1.990 . S
Li267 O325 1.961 . S
Li267 O326 1.970 1_565 S
Li267 O327 1.956 . S
C268 C270 1.348 . S
C268 C271 1.356 . S
C268 O324 1.325 . S
N269 C272 1.314 . S
N269 C273 1.279 . S
C270 C268 1.348 . S
C270 C272 1.353 . S
C270 H328 0.929 . S
C271 C268 1.356 . S
C271 C273 1.358 . S
C271 H329 0.930 . S
C272 N269 1.314 . S
C272 C270 1.353 . S
C272 H330 0.930 . S
C273 N269 1.279 . S
C273 C271 1.358 . S
C273 H331 0.930 . S
C274 C277 1.348 . S
C274 C278 1.356 . S
C274 O325 1.325 . S
C275 N276 1.279 . S
C275 C278 1.358 . S
C275 H332 0.930 . S
N276 C275 1.279 . S
N276 C279 1.314 . S
C277 C274 1.348 . S
C277 C279 1.353 . S
C277 H333 0.929 . S
C278 C274 1.356 . S
C278 C275 1.358 . S
C278 H334 0.930 . S
C279 N276 1.314 . S
C279 C277 1.353 . S
C279 H335 0.930 . S
C280 N281 1.314 1_565 S
C280 C285 1.353 . S
C280 H286 0.930 . S
N281 Li264 1.990 . S
N281 C280 1.314 1_545 S
N281 C283 1.279 . S
C282 C283 1.358 . S
C282 C284 1.356 . S
C282 H336 0.930 . S
C283 N281 1.279 . S
C283 C282 1.358 . S
C283 H287 0.930 . S
C284 C282 1.356 . S
C284 C285 1.348 1_545 S
C285 C280 1.353 . S
C285 C284 1.348 1_565 S
C285 H337 0.929 . S
H286 C280 0.930 . S
H287 C283 0.930 . S
C288 N289 1.314 . S
C288 C290 1.353 . S
C288 H294 0.930 1_565 S
N289 Li265 1.990 . S
N289 C288 1.314 . S
N289 C292 1.279 . S
C290 C288 1.353 . S
C290 C293 1.348 . S
C290 H338 0.929 . S
C291 C292 1.358 . S
C291 C293 1.356 . S
C291 H339 0.930 . S
C292 N289 1.279 . S
C292 C291 1.358 . S
C292 H295 0.930 . S
C293 C290 1.348 . S
C293 C291 1.356 . S
H294 C288 0.930 1_545 S
H295 C292 0.930 . S
C296 C298 1.348 . S
C296 C299 1.356 . S
C296 O326 1.325 . S
N297 C300 1.314 . S
N297 C301 1.279 . S
C298 C296 1.348 . S
C298 C300 1.353 . S
C298 H340 0.929 1_545 S
C299 C296 1.356 . S
C299 C301 1.358 . S
C299 H341 0.930 . S
C300 N297 1.314 . S
C300 C298 1.353 . S
C300 H342 0.930 . S
C301 N297 1.279 . S
C301 C299 1.358 . S
C301 H343 0.930 . S
C302 C303 1.348 1_565 S
C302 C304 1.356 . S
C302 O327 1.325 . S
C303 C302 1.348 1_545 S
C303 C305 1.353 . S
C303 H344 0.929 . S
C304 C302 1.356 . S
C304 C306 1.358 . S
C304 H345 0.930 . S
C305 C303 1.353 . S
C305 N307 1.314 1_545 S
C305 H346 0.930 . S
C306 C304 1.358 . S
C306 N307 1.279 . S
C306 H347 0.930 . S
N307 C305 1.314 1_565 S
N307 C306 1.279 . S
C308 C310 1.353 . S
C308 N311 1.314 . S
C308 H314 0.930 . S
C309 N311 1.279 . S
C309 C312 1.358 . S
C309 H315 0.930 . S
C310 C308 1.353 . S
C310 C313 1.348 . S
C310 H348 0.929 . S
N311 Li266 1.990 . S
N311 C308 1.314 . S
N311 C309 1.279 . S
C312 C309 1.358 . S
C312 C313 1.356 . S
C312 H349 0.930 . S
C313 C310 1.348 . S
C313 C312 1.356 . S
H314 C308 0.930 . S
H315 C309 0.930 . S
C316 N317 1.314 . S
C316 C318 1.353 . S
C316 H322 0.930 . S
N317 Li267 1.990 . S
N317 C316 1.314 . S
N317 C320 1.279 . S
C318 C316 1.353 . S
C318 C321 1.348 . S
C318 H350 0.929 . S
C319 C320 1.358 . S
C319 C321 1.356 . S
C319 H351 0.930 . S
C320 N317 1.279 . S
C320 C319 1.358 . S
C320 H323 0.930 . S
C321 C318 1.348 . S
C321 C319 1.356 . S
H322 C316 0.930 . S
H323 C320 0.930 . S
O324 Li264 1.956 . S
O324 Li265 1.970 1_545 S
O324 Li266 1.961 . S
O324 C268 1.325 . S
O325 Li264 1.970 1_565 S
O325 Li265 1.956 . S
O325 Li267 1.961 . S
O325 C274 1.325 . S
O326 Li264 1.961 . S
O326 Li266 1.956 . S
O326 Li267 1.970 1_545 S
O326 C296 1.325 . S
O327 Li265 1.961 . S
O327 Li266 1.970 1_565 S
O327 Li267 1.956 . S
O327 C302 1.325 . S
H328 C270 0.929 . S
H329 C271 0.930 . S
H330 C272 0.930 . S
H331 C273 0.930 . S
H332 C275 0.930 . S
H333 C277 0.929 . S
H334 C278 0.930 . S
H335 C279 0.930 . S
H336 C282 0.930 . S
H337 C285 0.929 . S
H338 C290 0.929 . S
H339 C291 0.930 . S
H340 C298 0.929 1_565 S
H341 C299 0.930 . S
H342 C300 0.930 . S
H343 C301 0.930 . S
H344 C303 0.929 . S
H345 C304 0.930 . S
H346 C305 0.930 . S
H347 C306 0.930 . S
H348 C310 0.929 . S
H349 C312 0.930 . S
H350 C318 0.929 . S
H351 C319 0.930 . S
Li352 N369 1.990 . S
Li352 O412 1.956 . S
Li352 O413 1.970 . S
Li352 O414 1.961 . S
Li353 N377 1.990 . S
Li353 O412 1.970 . S
Li353 O413 1.956 . S
Li353 O415 1.961 . S
Li354 N399 1.990 . S
Li354 O412 1.961 . S
Li354 O414 1.956 . S
Li354 O415 1.970 . S
Li355 N405 1.990 . S
Li355 O413 1.961 . S
Li355 O414 1.970 . S
Li355 O415 1.956 . S
C356 C358 1.348 . S
C356 C359 1.356 . S
C356 O412 1.325 . S
N357 C360 1.314 . S
N357 C361 1.279 . S
C358 C356 1.348 . S
C358 C360 1.353 . S
C358 H416 0.929 . S
C359 C356 1.356 . S
C359 C361 1.358 . S
C359 H417 0.930 . S
C360 N357 1.314 . S
C360 C358 1.353 . S
C360 H418 0.930 . S
C361 N357 1.279 . S
C361 C359 1.358 . S
C361 H419 0.930 . S
C362 C365 1.348 . S
C362 C366 1.356 . S
C362 O413 1.325 . S
C363 N364 1.279 . S
C363 C366 1.358 . S
C363 H420 0.930 . S
N364 C363 1.279 . S
N364 C367 1.314 . S
C365 C362 1.348 . S
C365 C367 1.353 . S
C365 H421 0.929 . S
C366 C362 1.356 . S
C366 C363 1.358 . S
C366 H422 0.930 . S
C367 N364 1.314 . S
C367 C365 1.353 . S
C367 H423 0.930 . S
C368 N369 1.314 . S
C368 C373 1.353 . S
C368 H374 0.930 . S
N369 Li352 1.990 . S
N369 C368 1.314 . S
N369 C371 1.279 . S
C370 C371 1.358 . S
C370 C372 1.356 . S
C370 H424 0.930 . S
C371 N369 1.279 . S
C371 C370 1.358 . S
C371 H375 0.930 . S
C372 C370 1.356 . S
C372 C373 1.348 . S
C373 C368 1.353 . S
C373 C372 1.348 . S
C373 H425 0.929 . S
H374 C368 0.930 . S
H375 C371 0.930 . S
C376 N377 1.314 . S
C376 C378 1.353 . S
C376 H382 0.930 . S
N377 Li353 1.990 . S
N377 C376 1.314 . S
N377 C380 1.279 . S
C378 C376 1.353 . S
C378 C381 1.348 . S
C378 H426 0.929 . S
C379 C380 1.358 . S
C379 C381 1.356 . S
C379 H427 0.930 . S
C380 N377 1.279 . S
C380 C379 1.358 . S
C380 H383 0.930 . S
C381 C378 1.348 . S
C381 C379 1.356 . S
H382 C376 0.930 . S
H383 C380 0.930 . S
C384 C386 1.348 . S
C384 C387 1.356 . S
C384 O414 1.325 . S
N385 C388 1.314 . S
N385 C389 1.279 . S
C386 C384 1.348 . S
C386 C388 1.353 . S
C386 H428 0.929 . S
C387 C384 1.356 . S
C387 C389 1.358 . S
C387 H429 0.930 . S
C388 N385 1.314 . S
C388 C386 1.353 . S
C388 H430 0.930 . S
C389 N385 1.279 . S
C389 C387 1.358 . S
C389 H431 0.930 . S
C390 C391 1.348 . S
C390 C392 1.356 . S
C390 O415 1.325 . S
C391 C390 1.348 . S
C391 C393 1.353 . S
C391 H432 0.929 . S
C392 C390 1.356 . S
C392 C394 1.358 . S
C392 H433 0.930 . S
C393 C391 1.353 . S
C393 N395 1.314 . S
C393 H434 0.930 . S
C394 C392 1.358 . S
C394 N395 1.279 . S
C394 H435 0.930 . S
N395 C393 1.314 . S
N395 C394 1.279 . S
C396 C398 1.353 . S
C396 N399 1.314 . S
C396 H402 0.930 . S
C397 N399 1.279 . S
C397 C400 1.358 . S
C397 H403 0.930 . S
C398 C396 1.353 . S
C398 C401 1.348 . S
C398 H436 0.929 . S
N399 Li354 1.990 . S
N399 C396 1.314 . S
N399 C397 1.279 . S
C400 C397 1.358 . S
C400 C401 1.356 . S
C400 H437 0.930 . S
C401 C398 1.348 . S
C401 C400 1.356 . S
H402 C396 0.930 . S
H403 C397 0.930 . S
C404 N405 1.314 . S
C404 C406 1.353 . S
C404 H410 0.930 . S
N405 Li355 1.990 . S
N405 C404 1.314 . S
N405 C408 1.279 . S
C406 C404 1.353 . S
C406 C409 1.348 . S
C406 H438 0.929 . S
C407 C408 1.358 . S
C407 C409 1.356 . S
C407 H439 0.930 . S
C408 N405 1.279 . S
C408 C407 1.358 . S
C408 H411 0.930 . S
C409 C406 1.348 . S
C409 C407 1.356 . S
H410 C404 0.930 . S
H411 C408 0.930 . S
O412 Li352 1.956 . S
O412 Li353 1.970 . S
O412 Li354 1.961 . S
O412 C356 1.325 . S
O413 Li352 1.970 . S
O413 Li353 1.956 . S
O413 Li355 1.961 . S
O413 C362 1.325 . S
O414 Li352 1.961 . S
O414 Li354 1.956 . S
O414 Li355 1.970 . S
O414 C384 1.325 . S
O415 Li353 1.961 . S
O415 Li354 1.970 . S
O415 Li355 1.956 . S
O415 C390 1.325 . S
H416 C358 0.929 . S
H417 C359 0.930 . S
H418 C360 0.930 . S
H419 C361 0.930 . S
H420 C363 0.930 . S
H421 C365 0.929 . S
H422 C366 0.930 . S
H423 C367 0.930 . S
H424 C370 0.930 . S
H425 C373 0.929 . S
H426 C378 0.929 . S
H427 C379 0.930 . S
H428 C386 0.929 . S
H429 C387 0.930 . S
H430 C388 0.930 . S
H431 C389 0.930 . S
H432 C391 0.929 . S
H433 C392 0.930 . S
H434 C393 0.930 . S
H435 C394 0.930 . S
H436 C398 0.929 . S
H437 C400 0.930 . S
H438 C406 0.929 . S
H439 C407 0.930 . S
Li440 N457 1.990 . S
Li440 O500 1.956 . S
Li440 O501 1.970 1_655 S
Li440 O502 1.961 . S
Li441 N465 1.990 1_556 S
Li441 O500 1.970 1_455 S
Li441 O501 1.956 . S
Li441 O503 1.961 . S
Li442 N487 1.990 . S
Li442 O500 1.961 . S
Li442 O502 1.956 . S
Li442 O503 1.970 1_655 S
Li443 N493 1.990 . S
Li443 O501 1.961 . S
Li443 O502 1.970 1_455 S
Li443 O503 1.956 . S
C444 C446 1.348 1_556 S
C444 C447 1.356 . S
C444 O500 1.325 . S
N445 C448 1.314 . S
N445 C449 1.279 1_554 S
C446 C444 1.348 1_554 S
C446 C448 1.353 . S
C446 H504 0.929 . S
C447 C444 1.356 . S
C447 C449 1.358 . S
C447 H505 0.930 . S
C448 N445 1.314 . S
C448 C446 1.353 . S
C448 H506 0.930 . S
C449 N445 1.279 1_556 S
C449 C447 1.358 . S
C449 H507 0.930 . S
C450 C453 1.348 . S
C450 C454 1.356 . S
C450 O501 1.325 . S
C451 N452 1.279 . S
C451 C454 1.358 . S
C451 H508 0.930 . S
N452 C451 1.279 . S
N452 C455 1.314 . S
C453 C450 1.348 . S
C453 C455 1.353 . S
C453 H509 0.929 . S
C454 C450 1.356 . S
C454 C451 1.358 . S
C454 H510 0.930 . S
C455 N452 1.314 . S
C455 C453 1.353 . S
C455 H511 0.930 . S
C456 N457 1.314 1_455 S
C456 C461 1.353 . S
C456 H462 0.930 . S
N457 Li440 1.990 . S
N457 C456 1.314 1_655 S
N457 C459 1.279 . S
C458 C459 1.358 . S
C458 C460 1.356 . S
C458 H512 0.930 . S
C459 N457 1.279 . S
C459 C458 1.358 . S
C459 H463 0.930 . S
C460 C458 1.356 . S
C460 C461 1.348 1_655 S
C461 C456 1.353 . S
C461 C460 1.348 1_455 S
C461 H513 0.929 . S
H462 C456 0.930 . S
H463 C459 0.930 . S
C464 N465 1.314 . S
C464 C466 1.353 . S
C464 H470 0.930 1_455 S
N465 Li441 1.990 1_554 S
N465 C464 1.314 . S
N465 C468 1.279 . S
C466 C464 1.353 . S
C466 C469 1.348 . S
C466 H514 0.929 . S
C467 C468 1.358 . S
C467 C469 1.356 . S
C467 H515 0.930 . S
C468 N465 1.279 . S
C468 C467 1.358 . S
C468 H471 0.930 . S
C469 C466 1.348 . S
C469 C467 1.356 . S
H470 C464 0.930 1_655 S
H471 C468 0.930 . S
C472 C474 1.348 . S
C472 C475 1.356 . S
C472 O502 1.325 . S
N473 C476 1.314 . S
N473 C477 1.279 . S
C474 C472 1.348 . S
C474 C476 1.353 . S
C474 H516 0.929 1_655 S
C475 C472 1.356 . S
C475 C477 1.358 . S
C475 H517 0.930 . S
C476 N473 1.314 . S
C476 C474 1.353 . S
C476 H518 0.930 . S
C477 N473 1.279 . S
C477 C475 1.358 . S
C477 H519 0.930 . S
C478 C479 1.348 1_455 S
C478 C480 1.356 . S
C478 O503 1.325 . S
C479 C478 1.348 1_655 S
C479 C481 1.353 . S
C479 H520 0.929 . S
C480 C478 1.356 . S
C480 C482 1.358 . S
C480 H521 0.930 . S
C481 C479 1.353 . S
C481 N483 1.314 1_655 S
C481 H522 0.930 . S
C482 C480 1.358 . S
C482 N483 1.279 . S
C482 H523 0.930 1_556 S
N483 C481 1.314 1_455 S
N483 C482 1.279 . S
C484 C486 1.353 . S
C484 N487 1.314 . S
C484 H490 0.930 . S
C485 N487 1.279 . S
C485 C488 1.358 . S
C485 H491 0.930 . S
C486 C484 1.353 . S
C486 C489 1.348 . S
C486 H524 0.929 . S
N487 Li442 1.990 . S
N487 C484 1.314 . S
N487 C485 1.279 . S
C488 C485 1.358 . S
C488 C489 1.356 . S
C488 H525 0.930 . S
C489 C486 1.348 . S
C489 C488 1.356 . S
H490 C484 0.930 . S
H491 C485 0.930 . S
C492 N493 1.314 . S
C492 C494 1.353 . S
C492 H498 0.930 . S
N493 Li443 1.990 . S
N493 C492 1.314 . S
N493 C496 1.279 . S
C494 C492 1.353 . S
C494 C497 1.348 . S
C494 H526 0.929 . S
C495 C496 1.358 . S
C495 C497 1.356 . S
C495 H527 0.930 . S
C496 N493 1.279 . S
C496 C495 1.358 . S
C496 H499 0.930 . S
C497 C494 1.348 . S
C497 C495 1.356 . S
H498 C492 0.930 . S
H499 C496 0.930 . S
O500 Li440 1.956 . S
O500 Li441 1.970 1_655 S
O500 Li442 1.961 . S
O500 C444 1.325 . S
O501 Li440 1.970 1_455 S
O501 Li441 1.956 . S
O501 Li443 1.961 . S
O501 C450 1.325 . S
O502 Li440 1.961 . S
O502 Li442 1.956 . S
O502 Li443 1.970 1_655 S
O502 C472 1.325 . S
O503 Li441 1.961 . S
O503 Li442 1.970 1_455 S
O503 Li443 1.956 . S
O503 C478 1.325 . S
H504 C446 0.929 . S
H505 C447 0.930 . S
H506 C448 0.930 . S
H507 C449 0.930 . S
H508 C451 0.930 . S
H509 C453 0.929 . S
H510 C454 0.930 . S
H511 C455 0.930 . S
H512 C458 0.930 . S
H513 C461 0.929 . S
H514 C466 0.929 . S
H515 C467 0.930 . S
H516 C474 0.929 1_455 S
H517 C475 0.930 . S
H518 C476 0.930 . S
H519 C477 0.930 . S
H520 C479 0.929 . S
H521 C480 0.930 . S
H522 C481 0.930 . S
H523 C482 0.930 1_554 S
H524 C486 0.929 . S
H525 C488 0.930 . S
H526 C494 0.929 . S
H527 C495 0.930 . S
Li528 N545 1.990 . S
Li528 O588 1.956 . S
Li528 O589 1.970 1_455 S
Li528 O590 1.961 . S
Li529 N553 1.990 . S
Li529 O588 1.970 1_655 S
Li529 O589 1.956 . S
Li529 O591 1.961 . S
Li530 N575 1.990 . S
Li530 O588 1.961 . S
Li530 O590 1.956 . S
Li530 O591 1.970 1_455 S
Li531 N581 1.990 . S
Li531 O589 1.961 . S
Li531 O590 1.970 1_655 S
Li531 O591 1.956 . S
C532 C534 1.348 . S
C532 C535 1.356 . S
C532 O588 1.325 . S
N533 C536 1.314 . S
N533 C537 1.279 . S
C534 C532 1.348 . S
C534 C536 1.353 . S
C534 H592 0.929 1_455 S
C535 C532 1.356 . S
C535 C537 1.358 . S
C535 H593 0.930 . S
C536 N533 1.314 . S
C536 C534 1.353 . S
C536 H594 0.930 . S
C537 N533 1.279 . S
C537 C535 1.358 . S
C537 H595 0.930 . S
C538 C541 1.348 1_655 S
C538 C542 1.356 . S
C538 O589 1.325 . S
C539 N540 1.279 . S
C539 C542 1.358 . S
C539 H596 0.930 . S
N540 C539 1.279 . S
N540 C543 1.314 1_655 S
C541 C538 1.348 1_455 S
C541 C543 1.353 . S
C541 H597 0.929 . S
C542 C538 1.356 . S
C542 C539 1.358 . S
C542 H598 0.930 . S
C543 N540 1.314 1_455 S
C543 C541 1.353 . S
C543 H599 0.930 . S
C544 N545 1.314 . S
C544 C549 1.353 . S
C544 H550 0.930 . S
N545 Li528 1.990 . S
N545 C544 1.314 . S
N545 C547 1.279 . S
C546 C547 1.358 . S
C546 C548 1.356 . S
C546 H600 0.930 . S
C547 N545 1.279 . S
C547 C546 1.358 . S
C547 H551 0.930 . S
C548 C546 1.356 . S
C548 C549 1.348 . S
C549 C544 1.353 . S
C549 C548 1.348 . S
C549 H601 0.929 . S
H550 C544 0.930 . S
H551 C547 0.930 . S
C552 N553 1.314 . S
C552 C554 1.353 . S
C552 H558 0.930 . S
N553 Li529 1.990 . S
N553 C552 1.314 . S
N553 C556 1.279 . S
C554 C552 1.353 . S
C554 C557 1.348 . S
C554 H602 0.929 . S
C555 C556 1.358 . S
C555 C557 1.356 . S
C555 H603 0.930 . S
C556 N553 1.279 . S
C556 C555 1.358 . S
C556 H559 0.930 . S
C557 C554 1.348 . S
C557 C555 1.356 . S
H558 C552 0.930 . S
H559 C556 0.930 . S
C560 C562 1.348 . S
C560 C563 1.356 . S
C560 O590 1.325 . S
N561 C564 1.314 . S
N561 C565 1.279 . S
C562 C560 1.348 . S
C562 C564 1.353 . S
C562 H604 0.929 . S
C563 C560 1.356 . S
C563 C565 1.358 . S
C563 H605 0.930 . S
C564 N561 1.314 . S
C564 C562 1.353 . S
C564 H606 0.930 . S
C565 N561 1.279 . S
C565 C563 1.358 . S
C565 H607 0.930 . S
C566 C567 1.348 . S
C566 C568 1.356 . S
C566 O591 1.325 . S
C567 C566 1.348 . S
C567 C569 1.353 . S
C567 H608 0.929 . S
C568 C566 1.356 . S
C568 C570 1.358 . S
C568 H609 0.930 . S
C569 C567 1.353 . S
C569 N571 1.314 . S
C569 H610 0.930 . S
C570 C568 1.358 . S
C570 N571 1.279 . S
C570 H611 0.930 . S
N571 C569 1.314 . S
N571 C570 1.279 . S
C572 C574 1.353 . S
C572 N575 1.314 1_655 S
C572 H578 0.930 . S
C573 N575 1.279 . S
C573 C576 1.358 . S
C573 H579 0.930 . S
C574 C572 1.353 . S
C574 C577 1.348 1_655 S
C574 H612 0.929 . S
N575 Li530 1.990 . S
N575 C572 1.314 1_455 S
N575 C573 1.279 . S
C576 C573 1.358 . S
C576 C577 1.356 . S
C576 H613 0.930 . S
C577 C574 1.348 1_455 S
C577 C576 1.356 . S
H578 C572 0.930 . S
H579 C573 0.930 . S
C580 N581 1.314 . S
C580 C582 1.353 . S
C580 H586 0.930 1_655 S
N581 Li531 1.990 . S
N581 C580 1.314 . S
N581 C584 1.279 . S
C582 C580 1.353 . S
C582 C585 1.348 . S
C582 H614 0.929 . S
C583 C584 1.358 . S
C583 C585 1.356 . S
C583 H615 0.930 . S
C584 N581 1.279 . S
C584 C583 1.358 . S
C584 H587 0.930 . S
C585 C582 1.348 . S
C585 C583 1.356 . S
H586 C580 0.930 1_455 S
H587 C584 0.930 . S
O588 Li528 1.956 . S
O588 Li529 1.970 1_455 S
O588 Li530 1.961 . S
O588 C532 1.325 . S
O589 Li528 1.970 1_655 S
O589 Li529 1.956 . S
O589 Li531 1.961 . S
O589 C538 1.325 . S
O590 Li528 1.961 . S
O590 Li530 1.956 . S
O590 Li531 1.970 1_455 S
O590 C560 1.325 . S
O591 Li529 1.961 . S
O591 Li530 1.970 1_655 S
O591 Li531 1.956 . S
O591 C566 1.325 . S
H592 C534 0.929 1_655 S
H593 C535 0.930 . S
H594 C536 0.930 . S
H595 C537 0.930 . S
H596 C539 0.930 . S
H597 C541 0.929 . S
H598 C542 0.930 . S
H599 C543 0.930 . S
H600 C546 0.930 . S
H601 C549 0.929 . S
H602 C554 0.929 . S
H603 C555 0.930 . S
H604 C562 0.929 . S
H605 C563 0.930 . S
H606 C564 0.930 . S
H607 C565 0.930 . S
H608 C567 0.929 . S
H609 C568 0.930 . S
H610 C569 0.930 . S
H611 C570 0.930 . S
H612 C574 0.929 . S
H613 C576 0.930 . S
H614 C582 0.929 . S
H615 C583 0.930 . S
Li616 N633 1.990 . S
Li616 O676 1.956 . S
Li616 O677 1.970 1_545 S
Li616 O678 1.961 . S
Li617 N641 1.990 . S
Li617 O676 1.970 1_565 S
Li617 O677 1.956 . S
Li617 O679 1.961 . S
Li618 N663 1.990 . S
Li618 O676 1.961 . S
Li618 O678 1.956 . S
Li618 O679 1.970 1_545 S
Li619 N669 1.990 . S
Li619 O677 1.961 . S
Li619 O678 1.970 1_565 S
Li619 O679 1.956 . S
C620 C622 1.348 . S
C620 C623 1.356 . S
C620 O676 1.325 . S
N621 C624 1.314 . S
N621 C625 1.279 . S
C622 C620 1.348 . S
C622 C624 1.353 . S
C622 H680 0.929 1_545 S
C623 C620 1.356 . S
C623 C625 1.358 . S
C623 H681 0.930 . S
C624 N621 1.314 . S
C624 C622 1.353 . S
C624 H682 0.930 . S
C625 N621 1.279 . S
C625 C623 1.358 . S
C625 H683 0.930 . S
C626 C629 1.348 1_565 S
C626 C630 1.356 . S
C626 O677 1.325 . S
C627 N628 1.279 . S
C627 C630 1.358 . S
C627 H684 0.930 . S
N628 C627 1.279 . S
N628 C631 1.314 1_565 S
C629 C626 1.348 1_545 S
C629 C631 1.353 . S
C629 H685 0.929 . S
C630 C626 1.356 . S
C630 C627 1.358 . S
C630 H686 0.930 . S
C631 N628 1.314 1_545 S
C631 C629 1.353 . S
C631 H687 0.930 . S
C632 N633 1.314 . S
C632 C637 1.353 . S
C632 H638 0.930 . S
N633 Li616 1.990 . S
N633 C632 1.314 . S
N633 C635 1.279 . S
C634 C635 1.358 . S
C634 C636 1.356 . S
C634 H688 0.930 . S
C635 N633 1.279 . S
C635 C634 1.358 . S
C635 H639 0.930 . S
C636 C634 1.356 . S
C636 C637 1.348 . S
C637 C632 1.353 . S
C637 C636 1.348 . S
C637 H689 0.929 . S
H638 C632 0.930 . S
H639 C635 0.930 . S
C640 N641 1.314 . S
C640 C642 1.353 . S
C640 H646 0.930 . S
N641 Li617 1.990 . S
N641 C640 1.314 . S
N641 C644 1.279 . S
C642 C640 1.353 . S
C642 C645 1.348 . S
C642 H690 0.929 . S
C643 C644 1.358 . S
C643 C645 1.356 . S
C643 H691 0.930 . S
C644 N641 1.279 . S
C644 C643 1.358 . S
C644 H647 0.930 . S
C645 C642 1.348 . S
C645 C643 1.356 . S
H646 C640 0.930 . S
H647 C644 0.930 . S
C648 C650 1.348 . S
C648 C651 1.356 . S
C648 O678 1.325 . S
N649 C652 1.314 . S
N649 C653 1.279 . S
C650 C648 1.348 . S
C650 C652 1.353 . S
C650 H692 0.929 . S
C651 C648 1.356 . S
C651 C653 1.358 . S
C651 H693 0.930 . S
C652 N649 1.314 . S
C652 C650 1.353 . S
C652 H694 0.930 . S
C653 N649 1.279 . S
C653 C651 1.358 . S
C653 H695 0.930 . S
C654 C655 1.348 . S
C654 C656 1.356 . S
C654 O679 1.325 . S
C655 C654 1.348 . S
C655 C657 1.353 . S
C655 H696 0.929 . S
C656 C654 1.356 . S
C656 C658 1.358 . S
C656 H697 0.930 . S
C657 C655 1.353 . S
C657 N659 1.314 . S
C657 H698 0.930 . S
C658 C656 1.358 . S
C658 N659 1.279 . S
C658 H699 0.930 . S
N659 C657 1.314 . S
N659 C658 1.279 . S
C660 C662 1.353 . S
C660 N663 1.314 1_565 S
C660 H666 0.930 . S
C661 N663 1.279 . S
C661 C664 1.358 . S
C661 H667 0.930 . S
C662 C660 1.353 . S
C662 C665 1.348 1_565 S
C662 H700 0.929 . S
N663 Li618 1.990 . S
N663 C660 1.314 1_545 S
N663 C661 1.279 . S
C664 C661 1.358 . S
C664 C665 1.356 . S
C664 H701 0.930 . S
C665 C662 1.348 1_545 S
C665 C664 1.356 . S
H666 C660 0.930 . S
H667 C661 0.930 . S
C668 N669 1.314 . S
C668 C670 1.353 . S
C668 H674 0.930 1_565 S
N669 Li619 1.990 . S
N669 C668 1.314 . S
N669 C672 1.279 . S
C670 C668 1.353 . S
C670 C673 1.348 . S
C670 H702 0.929 . S
C671 C672 1.358 . S
C671 C673 1.356 . S
C671 H703 0.930 . S
C672 N669 1.279 . S
C672 C671 1.358 . S
C672 H675 0.930 . S
C673 C670 1.348 . S
C673 C671 1.356 . S
H674 C668 0.930 1_545 S
H675 C672 0.930 . S
O676 Li616 1.956 . S
O676 Li617 1.970 1_545 S
O676 Li618 1.961 . S
O676 C620 1.325 . S
O677 Li616 1.970 1_565 S
O677 Li617 1.956 . S
O677 Li619 1.961 . S
O677 C626 1.325 . S
O678 Li616 1.961 . S
O678 Li618 1.956 . S
O678 Li619 1.970 1_545 S
O678 C648 1.325 . S
O679 Li617 1.961 . S
O679 Li618 1.970 1_565 S
O679 Li619 1.956 . S
O679 C654 1.325 . S
H680 C622 0.929 1_565 S
H681 C623 0.930 . S
H682 C624 0.930 . S
H683 C625 0.930 . S
H684 C627 0.930 . S
H685 C629 0.929 . S
H686 C630 0.930 . S
H687 C631 0.930 . S
H688 C634 0.930 . S
H689 C637 0.929 . S
H690 C642 0.929 . S
H691 C643 0.930 . S
H692 C650 0.929 . S
H693 C651 0.930 . S
H694 C652 0.930 . S
H695 C653 0.930 . S
H696 C655 0.929 . S
H697 C656 0.930 . S
H698 C657 0.930 . S
H699 C658 0.930 . S
H700 C662 0.929 . S
H701 C664 0.930 . S
H702 C670 0.929 . S
H703 C671 0.930 . S
Li704 N721 1.990 . S
Li704 O764 1.956 . S
Li704 O765 1.970 . S
Li704 O766 1.961 . S
Li705 N729 1.990 . S
Li705 O764 1.970 . S
Li705 O765 1.956 . S
Li705 O767 1.961 . S
Li706 N751 1.990 . S
Li706 O764 1.961 . S
Li706 O766 1.956 . S
Li706 O767 1.970 . S
Li707 N757 1.990 1_554 S
Li707 O765 1.961 . S
Li707 O766 1.970 . S
Li707 O767 1.956 . S
C708 C710 1.348 . S
C708 C711 1.356 . S
C708 O764 1.325 . S
N709 C712 1.314 . S
N709 C713 1.279 . S
C710 C708 1.348 . S
C710 C712 1.353 . S
C710 H768 0.929 . S
C711 C708 1.356 . S
C711 C713 1.358 . S
C711 H769 0.930 . S
C712 N709 1.314 . S
C712 C710 1.353 . S
C712 H770 0.930 . S
C713 N709 1.279 . S
C713 C711 1.358 . S
C713 H771 0.930 . S
C714 C717 1.348 . S
C714 C718 1.356 . S
C714 O765 1.325 . S
C715 N716 1.279 . S
C715 C718 1.358 . S
C715 H772 0.930 1_554 S
N716 C715 1.279 . S
N716 C719 1.314 . S
C717 C714 1.348 . S
C717 C719 1.353 . S
C717 H773 0.929 . S
C718 C714 1.356 . S
C718 C715 1.358 . S
C718 H774 0.930 . S
C719 N716 1.314 . S
C719 C717 1.353 . S
C719 H775 0.930 . S
C720 N721 1.314 . S
C720 C725 1.353 . S
C720 H726 0.930 . S
N721 Li704 1.990 . S
N721 C720 1.314 . S
N721 C723 1.279 . S
C722 C723 1.358 . S
C722 C724 1.356 . S
C722 H776 0.930 . S
C723 N721 1.279 . S
C723 C722 1.358 . S
C723 H727 0.930 . S
C724 C722 1.356 . S
C724 C725 1.348 . S
C725 C720 1.353 . S
C725 C724 1.348 . S
C725 H777 0.929 . S
H726 C720 0.930 . S
H727 C723 0.930 . S
C728 N729 1.314 . S
C728 C730 1.353 . S
C728 H734 0.930 . S
N729 Li705 1.990 . S
N729 C728 1.314 . S
N729 C732 1.279 . S
C730 C728 1.353 . S
C730 C733 1.348 . S
C730 H778 0.929 . S
C731 C732 1.358 . S
C731 C733 1.356 . S
C731 H779 0.930 . S
C732 N729 1.279 . S
C732 C731 1.358 . S
C732 H735 0.930 . S
C733 C730 1.348 . S
C733 C731 1.356 . S
H734 C728 0.930 . S
H735 C732 0.930 . S
C736 C738 1.348 1_554 S
C736 C739 1.356 . S
C736 O766 1.325 . S
N737 C740 1.314 . S
N737 C741 1.279 1_556 S
C738 C736 1.348 1_556 S
C738 C740 1.353 . S
C738 H780 0.929 . S
C739 C736 1.356 . S
C739 C741 1.358 . S
C739 H781 0.930 . S
C740 N737 1.314 . S
C740 C738 1.353 . S
C740 H782 0.930 . S
C741 N737 1.279 1_554 S
C741 C739 1.358 . S
C741 H783 0.930 . S
C742 C743 1.348 . S
C742 C744 1.356 . S
C742 O767 1.325 . S
C743 C742 1.348 . S
C743 C745 1.353 . S
C743 H784 0.929 . S
C744 C742 1.356 . S
C744 C746 1.358 . S
C744 H785 0.930 . S
C745 C743 1.353 . S
C745 N747 1.314 . S
C745 H786 0.930 . S
C746 C744 1.358 . S
C746 N747 1.279 . S
C746 H787 0.930 . S
N747 C745 1.314 . S
N747 C746 1.279 . S
C748 C750 1.353 . S
C748 N751 1.314 . S
C748 H754 0.930 . S
C749 N751 1.279 . S
C749 C752 1.358 . S
C749 H755 0.930 . S
C750 C748 1.353 . S
C750 C753 1.348 . S
C750 H788 0.929 . S
N751 Li706 1.990 . S
N751 C748 1.314 . S
N751 C749 1.279 . S
C752 C749 1.358 . S
C752 C753 1.356 . S
C752 H789 0.930 . S
C753 C750 1.348 . S
C753 C752 1.356 . S
H754 C748 0.930 . S
H755 C749 0.930 . S
C756 N757 1.314 . S
C756 C758 1.353 . S
C756 H762 0.930 . S
N757 Li707 1.990 1_556 S
N757 C756 1.314 . S
N757 C760 1.279 . S
C758 C756 1.353 . S
C758 C761 1.348 . S
C758 H790 0.929 . S
C759 C760 1.358 . S
C759 C761 1.356 . S
C759 H791 0.930 . S
C760 N757 1.279 . S
C760 C759 1.358 . S
C760 H763 0.930 . S
C761 C758 1.348 . S
C761 C759 1.356 . S
H762 C756 0.930 . S
H763 C760 0.930 . S
O764 Li704 1.956 . S
O764 Li705 1.970 . S
O764 Li706 1.961 . S
O764 C708 1.325 . S
O765 Li704 1.970 . S
O765 Li705 1.956 . S
O765 Li707 1.961 . S
O765 C714 1.325 . S
O766 Li704 1.961 . S
O766 Li706 1.956 . S
O766 Li707 1.970 . S
O766 C736 1.325 . S
O767 Li705 1.961 . S
O767 Li706 1.970 . S
O767 Li707 1.956 . S
O767 C742 1.325 . S
H768 C710 0.929 . S
H769 C711 0.930 . S
H770 C712 0.930 . S
H771 C713 0.930 . S
H772 C715 0.930 1_556 S
H773 C717 0.929 . S
H774 C718 0.930 . S
H775 C719 0.930 . S
H776 C722 0.930 . S
H777 C725 0.929 . S
H778 C730 0.929 . S
H779 C731 0.930 . S
H780 C738 0.929 . S
H781 C739 0.930 . S
H782 C740 0.930 . S
H783 C741 0.930 . S
H784 C743 0.929 . S
H785 C744 0.930 . S
H786 C745 0.930 . S
H787 C746 0.930 . S
H788 C750 0.929 . S
H789 C752 0.930 . S
H790 C758 0.929 . S
H791 C759 0.930 . S
Li792 N809 1.990 . S
Li792 O852 1.956 . S
Li792 O853 1.970 1_455 S
Li792 O854 1.961 . S
Li793 N817 1.990 . S
Li793 O852 1.970 1_655 S
Li793 O853 1.956 . S
Li793 O855 1.961 . S
Li794 N839 1.990 . S
Li794 O852 1.961 . S
Li794 O854 1.956 . S
Li794 O855 1.970 1_455 S
Li795 N845 1.990 . S
Li795 O853 1.961 . S
Li795 O854 1.970 1_655 S
Li795 O855 1.956 . S
C796 C798 1.348 1_455 S
C796 C799 1.356 . S
C796 O852 1.325 . S
N797 C800 1.314 1_455 S
N797 C801 1.279 . S
C798 C796 1.348 1_655 S
C798 C800 1.353 . S
C798 H856 0.929 . S
C799 C796 1.356 . S
C799 C801 1.358 . S
C799 H857 0.930 . S
C800 N797 1.314 1_655 S
C800 C798 1.353 . S
C800 H858 0.930 . S
C801 N797 1.279 . S
C801 C799 1.358 . S
C801 H859 0.930 . S
C802 C805 1.348 . S
C802 C806 1.356 . S
C802 O853 1.325 . S
C803 N804 1.279 . S
C803 C806 1.358 . S
C803 H860 0.930 . S
N804 C803 1.279 . S
N804 C807 1.314 . S
C805 C802 1.348 . S
C805 C807 1.353 . S
C805 H861 0.929 1_655 S
C806 C802 1.356 . S
C806 C803 1.358 . S
C806 H862 0.930 . S
C807 N804 1.314 . S
C807 C805 1.353 . S
C807 H863 0.930 . S
C808 N809 1.314 . S
C808 C813 1.353 . S
C808 H814 0.930 . S
N809 Li792 1.990 . S
N809 C808 1.314 . S
N809 C811 1.279 . S
C810 C811 1.358 . S
C810 C812 1.356 . S
C810 H864 0.930 . S
C811 N809 1.279 . S
C811 C810 1.358 . S
C811 H815 0.930 . S
C812 C810 1.356 . S
C812 C813 1.348 . S
C813 C808 1.353 . S
C813 C812 1.348 . S
C813 H865 0.929 . S
H814 C808 0.930 . S
H815 C811 0.930 . S
C816 N817 1.314 . S
C816 C818 1.353 . S
C816 H822 0.930 . S
N817 Li793 1.990 . S
N817 C816 1.314 . S
N817 C820 1.279 . S
C818 C816 1.353 . S
C818 C821 1.348 . S
C818 H866 0.929 . S
C819 C820 1.358 . S
C819 C821 1.356 . S
C819 H867 0.930 . S
C820 N817 1.279 . S
C820 C819 1.358 . S
C820 H823 0.930 . S
C821 C818 1.348 . S
C821 C819 1.356 . S
H822 C816 0.930 . S
H823 C820 0.930 . S
C824 C826 1.348 . S
C824 C827 1.356 . S
C824 O854 1.325 . S
N825 C828 1.314 . S
N825 C829 1.279 . S
C826 C824 1.348 . S
C826 C828 1.353 . S
C826 H868 0.929 . S
C827 C824 1.356 . S
C827 C829 1.358 . S
C827 H869 0.930 . S
C828 N825 1.314 . S
C828 C826 1.353 . S
C828 H870 0.930 . S
C829 N825 1.279 . S
C829 C827 1.358 . S
C829 H871 0.930 . S
C830 C831 1.348 . S
C830 C832 1.356 . S
C830 O855 1.325 . S
C831 C830 1.348 . S
C831 C833 1.353 . S
C831 H872 0.929 . S
C832 C830 1.356 . S
C832 C834 1.358 . S
C832 H873 0.930 . S
C833 C831 1.353 . S
C833 N835 1.314 . S
C833 H874 0.930 . S
C834 C832 1.358 . S
C834 N835 1.279 . S
C834 H875 0.930 . S
N835 C833 1.314 . S
N835 C834 1.279 . S
C836 C838 1.353 . S
C836 N839 1.314 . S
C836 H842 0.930 1_455 S
C837 N839 1.279 . S
C837 C840 1.358 . S
C837 H843 0.930 . S
C838 C836 1.353 . S
C838 C841 1.348 . S
C838 H876 0.929 . S
N839 Li794 1.990 . S
N839 C836 1.314 . S
N839 C837 1.279 . S
C840 C837 1.358 . S
C840 C841 1.356 . S
C840 H877 0.930 . S
C841 C838 1.348 . S
C841 C840 1.356 . S
H842 C836 0.930 1_655 S
H843 C837 0.930 . S
C844 N845 1.314 1_455 S
C844 C846 1.353 . S
C844 H850 0.930 . S
N845 Li795 1.990 . S
N845 C844 1.314 1_655 S
N845 C848 1.279 . S
C846 C844 1.353 . S
C846 C849 1.348 1_455 S
C846 H878 0.929 . S
C847 C848 1.358 . S
C847 C849 1.356 . S
C847 H879 0.930 . S
C848 N845 1.279 . S
C848 C847 1.358 . S
C848 H851 0.930 . S
C849 C846 1.348 1_655 S
C849 C847 1.356 . S
H850 C844 0.930 . S
H851 C848 0.930 . S
O852 Li792 1.956 . S
O852 Li793 1.970 1_455 S
O852 Li794 1.961 . S
O852 C796 1.325 . S
O853 Li792 1.970 1_655 S
O853 Li793 1.956 . S
O853 Li795 1.961 . S
O853 C802 1.325 . S
O854 Li792 1.961 . S
O854 Li794 1.956 . S
O854 Li795 1.970 1_455 S
O854 C824 1.325 . S
O855 Li793 1.961 . S
O855 Li794 1.970 1_655 S
O855 Li795 1.956 . S
O855 C830 1.325 . S
H856 C798 0.929 . S
H857 C799 0.930 . S
H858 C800 0.930 . S
H859 C801 0.930 . S
H860 C803 0.930 . S
H861 C805 0.929 1_455 S
H862 C806 0.930 . S
H863 C807 0.930 . S
H864 C810 0.930 . S
H865 C813 0.929 . S
H866 C818 0.929 . S
H867 C819 0.930 . S
H868 C826 0.929 . S
H869 C827 0.930 . S
H870 C828 0.930 . S
H871 C829 0.930 . S
H872 C831 0.929 . S
H873 C832 0.930 . S
H874 C833 0.930 . S
H875 C834 0.930 . S
H876 C838 0.929 . S
H877 C840 0.930 . S
H878 C846 0.929 . S
H879 C847 0.930 . S
Li880 N897 1.990 . S
Li880 O940 1.956 . S
Li880 O941 1.970 1_545 S
Li880 O942 1.961 . S
Li881 N905 1.990 . S
Li881 O940 1.970 1_565 S
Li881 O941 1.956 . S
Li881 O943 1.961 . S
Li882 N927 1.990 . S
Li882 O940 1.961 . S
Li882 O942 1.956 . S
Li882 O943 1.970 1_545 S
Li883 N933 1.990 . S
Li883 O941 1.961 . S
Li883 O942 1.970 1_565 S
Li883 O943 1.956 . S
C884 C886 1.348 1_545 S
C884 C887 1.356 . S
C884 O940 1.325 . S
N885 C888 1.314 1_545 S
N885 C889 1.279 . S
C886 C884 1.348 1_565 S
C886 C888 1.353 . S
C886 H944 0.929 . S
C887 C884 1.356 . S
C887 C889 1.358 . S
C887 H945 0.930 . S
C888 N885 1.314 1_565 S
C888 C886 1.353 . S
C888 H946 0.930 . S
C889 N885 1.279 . S
C889 C887 1.358 . S
C889 H947 0.930 . S
C890 C893 1.348 . S
C890 C894 1.356 . S
C890 O941 1.325 . S
C891 N892 1.279 . S
C891 C894 1.358 . S
C891 H948 0.930 . S
N892 C891 1.279 . S
N892 C895 1.314 . S
C893 C890 1.348 . S
C893 C895 1.353 . S
C893 H949 0.929 1_565 S
C894 C890 1.356 . S
C894 C891 1.358 . S
C894 H950 0.930 . S
C895 N892 1.314 . S
C895 C893 1.353 . S
C895 H951 0.930 . S
C896 N897 1.314 . S
C896 C901 1.353 . S
C896 H902 0.930 . S
N897 Li880 1.990 . S
N897 C896 1.314 . S
N897 C899 1.279 . S
C898 C899 1.358 . S
C898 C900 1.356 . S
C898 H952 0.930 . S
C899 N897 1.279 . S
C899 C898 1.358 . S
C899 H903 0.930 . S
C900 C898 1.356 . S
C900 C901 1.348 . S
C901 C896 1.353 . S
C901 C900 1.348 . S
C901 H953 0.929 . S
H902 C896 0.930 . S
H903 C899 0.930 . S
C904 N905 1.314 . S
C904 C906 1.353 . S
C904 H910 0.930 . S
N905 Li881 1.990 . S
N905 C904 1.314 . S
N905 C908 1.279 . S
C906 C904 1.353 . S
C906 C909 1.348 . S
C906 H954 0.929 . S
C907 C908 1.358 . S
C907 C909 1.356 . S
C907 H955 0.930 . S
C908 N905 1.279 . S
C908 C907 1.358 . S
C908 H911 0.930 . S
C909 C906 1.348 . S
C909 C907 1.356 . S
H910 C904 0.930 . S
H911 C908 0.930 . S
C912 C914 1.348 . S
C912 C915 1.356 . S
C912 O942 1.325 . S
N913 C916 1.314 . S
N913 C917 1.279 . S
C914 C912 1.348 . S
C914 C916 1.353 . S
C914 H956 0.929 . S
C915 C912 1.356 . S
C915 C917 1.358 . S
C915 H957 0.930 . S
C916 N913 1.314 . S
C916 C914 1.353 . S
C916 H958 0.930 . S
C917 N913 1.279 . S
C917 C915 1.358 . S
C917 H959 0.930 . S
C918 C919 1.348 . S
C918 C920 1.356 . S
C918 O943 1.325 . S
C919 C918 1.348 . S
C919 C921 1.353 . S
C919 H960 0.929 . S
C920 C918 1.356 . S
C920 C922 1.358 . S
C920 H961 0.930 . S
C921 C919 1.353 . S
C921 N923 1.314 . S
C921 H962 0.930 . S
C922 C920 1.358 . S
C922 N923 1.279 . S
C922 H963 0.930 . S
N923 C921 1.314 . S
N923 C922 1.279 . S
C924 C926 1.353 . S
C924 N927 1.314 . S
C924 H930 0.930 1_545 S
C925 N927 1.279 . S
C925 C928 1.358 . S
C925 H931 0.930 . S
C926 C924 1.353 . S
C926 C929 1.348 . S
C926 H964 0.929 . S
N927 Li882 1.990 . S
N927 C924 1.314 . S
N927 C925 1.279 . S
C928 C925 1.358 . S
C928 C929 1.356 . S
C928 H965 0.930 . S
C929 C926 1.348 . S
C929 C928 1.356 . S
H930 C924 0.930 1_565 S
H931 C925 0.930 . S
C932 N933 1.314 1_545 S
C932 C934 1.353 . S
C932 H938 0.930 . S
N933 Li883 1.990 . S
N933 C932 1.314 1_565 S
N933 C936 1.279 . S
C934 C932 1.353 . S
C934 C937 1.348 1_545 S
C934 H966 0.929 . S
C935 C936 1.358 . S
C935 C937 1.356 . S
C935 H967 0.930 . S
C936 N933 1.279 . S
C936 C935 1.358 . S
C936 H939 0.930 . S
C937 C934 1.348 1_565 S
C937 C935 1.356 . S
H938 C932 0.930 . S
H939 C936 0.930 . S
O940 Li880 1.956 . S
O940 Li881 1.970 1_545 S
O940 Li882 1.961 . S
O940 C884 1.325 . S
O941 Li880 1.970 1_565 S
O941 Li881 1.956 . S
O941 Li883 1.961 . S
O941 C890 1.325 . S
O942 Li880 1.961 . S
O942 Li882 1.956 . S
O942 Li883 1.970 1_545 S
O942 C912 1.325 . S
O943 Li881 1.961 . S
O943 Li882 1.970 1_565 S
O943 Li883 1.956 . S
O943 C918 1.325 . S
H944 C886 0.929 . S
H945 C887 0.930 . S
H946 C888 0.930 . S
H947 C889 0.930 . S
H948 C891 0.930 . S
H949 C893 0.929 1_545 S
H950 C894 0.930 . S
H951 C895 0.930 . S
H952 C898 0.930 . S
H953 C901 0.929 . S
H954 C906 0.929 . S
H955 C907 0.930 . S
H956 C914 0.929 . S
H957 C915 0.930 . S
H958 C916 0.930 . S
H959 C917 0.930 . S
H960 C919 0.929 . S
H961 C920 0.930 . S
H962 C921 0.930 . S
H963 C922 0.930 . S
H964 C926 0.929 . S
H965 C928 0.930 . S
H966 C934 0.929 . S
H967 C935 0.930 . S
Li968 N985 1.990 . S
Li968 O1028 1.956 . S
Li968 O1029 1.970 . S
Li968 O1030 1.961 . S
Li969 N993 1.990 . S
Li969 O1028 1.970 . S
Li969 O1029 1.956 . S
Li969 O1031 1.961 . S
Li970 N1015 1.990 1_554 S
Li970 O1028 1.961 . S
Li970 O1030 1.956 . S
Li970 O1031 1.970 . S
Li971 N1021 1.990 . S
Li971 O1029 1.961 . S
Li971 O1030 1.970 . S
Li971 O1031 1.956 . S
C972 C974 1.348 . S
C972 C975 1.356 . S
C972 O1028 1.325 . S
N973 C976 1.314 . S
N973 C977 1.279 . S
C974 C972 1.348 . S
C974 C976 1.353 . S
C974 H1032 0.929 . S
C975 C972 1.356 . S
C975 C977 1.358 . S
C975 H1033 0.930 . S
C976 N973 1.314 . S
C976 C974 1.353 . S
C976 H1034 0.930 . S
C977 N973 1.279 . S
C977 C975 1.358 . S
C977 H1035 0.930 1_554 S
C978 C981 1.348 . S
C978 C982 1.356 . S
C978 O1029 1.325 . S
C979 N980 1.279 . S
C979 C982 1.358 . S
C979 H1036 0.930 . S
N980 C979 1.279 . S
N980 C983 1.314 . S
C981 C978 1.348 . S
C981 C983 1.353 . S
C981 H1037 0.929 . S
C982 C978 1.356 . S
C982 C979 1.358 . S
C982 H1038 0.930 . S
C983 N980 1.314 . S
C983 C981 1.353 . S
C983 H1039 0.930 . S
C984 N985 1.314 . S
C984 C989 1.353 . S
C984 H990 0.930 . S
N985 Li968 1.990 . S
N985 C984 1.314 . S
N985 C987 1.279 . S
C986 C987 1.358 . S
C986 C988 1.356 . S
C986 H1040 0.930 . S
C987 N985 1.279 . S
C987 C986 1.358 . S
C987 H991 0.930 . S
C988 C986 1.356 . S
C988 C989 1.348 . S
C989 C984 1.353 . S
C989 C988 1.348 . S
C989 H1041 0.929 . S
H990 C984 0.930 . S
H991 C987 0.930 . S
C992 N993 1.314 . S
C992 C994 1.353 . S
C992 H998 0.930 . S
N993 Li969 1.990 . S
N993 C992 1.314 . S
N993 C996 1.279 . S
C994 C992 1.353 . S
C994 C997 1.348 . S
C994 H1042 0.929 . S
C995 C996 1.358 . S
C995 C997 1.356 . S
C995 H1043 0.930 . S
C996 N993 1.279 . S
C996 C995 1.358 . S
C996 H999 0.930 . S
C997 C994 1.348 . S
C997 C995 1.356 . S
H998 C992 0.930 . S
H999 C996 0.930 . S
C1000 C1002 1.348 . S
C1000 C1003 1.356 . S
C1000 O1030 1.325 . S
N1001 C1004 1.314 . S
N1001 C1005 1.279 . S
C1002 C1000 1.348 . S
C1002 C1004 1.353 . S
C1002 H1044 0.929 . S
C1003 C1000 1.356 . S
C1003 C1005 1.358 . S
C1003 H1045 0.930 . S
C1004 N1001 1.314 . S
C1004 C1002 1.353 . S
C1004 H1046 0.930 . S
C1005 N1001 1.279 . S
C1005 C1003 1.358 . S
C1005 H1047 0.930 . S
C1006 C1007 1.348 1_554 S
C1006 C1008 1.356 . S
C1006 O1031 1.325 . S
C1007 C1006 1.348 1_556 S
C1007 C1009 1.353 . S
C1007 H1048 0.929 . S
C1008 C1006 1.356 . S
C1008 C1010 1.358 . S
C1008 H1049 0.930 . S
C1009 C1007 1.353 . S
C1009 N1011 1.314 . S
C1009 H1050 0.930 . S
C1010 C1008 1.358 . S
C1010 N1011 1.279 1_554 S
C1010 H1051 0.930 . S
N1011 C1009 1.314 . S
N1011 C1010 1.279 1_556 S
C1012 C1014 1.353 . S
C1012 N1015 1.314 . S
C1012 H1018 0.930 . S
C1013 N1015 1.279 . S
C1013 C1016 1.358 . S
C1013 H1019 0.930 . S
C1014 C1012 1.353 . S
C1014 C1017 1.348 . S
C1014 H1052 0.929 . S
N1015 Li970 1.990 1_556 S
N1015 C1012 1.314 . S
N1015 C1013 1.279 . S
C1016 C1013 1.358 . S
C1016 C1017 1.356 . S
C1016 H1053 0.930 . S
C1017 C1014 1.348 . S
C1017 C1016 1.356 . S
H1018 C1012 0.930 . S
H1019 C1013 0.930 . S
C1020 N1021 1.314 . S
C1020 C1022 1.353 . S
C1020 H1026 0.930 . S
N1021 Li971 1.990 . S
N1021 C1020 1.314 . S
N1021 C1024 1.279 . S
C1022 C1020 1.353 . S
C1022 C1025 1.348 . S
C1022 H1054 0.929 . S
C1023 C1024 1.358 . S
C1023 C1025 1.356 . S
C1023 H1055 0.930 . S
C1024 N1021 1.279 . S
C1024 C1023 1.358 . S
C1024 H1027 0.930 . S
C1025 C1022 1.348 . S
C1025 C1023 1.356 . S
H1026 C1020 0.930 . S
H1027 C1024 0.930 . S
O1028 Li968 1.956 . S
O1028 Li969 1.970 . S
O1028 Li970 1.961 . S
O1028 C972 1.325 . S
O1029 Li968 1.970 . S
O1029 Li969 1.956 . S
O1029 Li971 1.961 . S
O1029 C978 1.325 . S
O1030 Li968 1.961 . S
O1030 Li970 1.956 . S
O1030 Li971 1.970 . S
O1030 C1000 1.325 . S
O1031 Li969 1.961 . S
O1031 Li970 1.970 . S
O1031 Li971 1.956 . S
O1031 C1006 1.325 . S
H1032 C974 0.929 . S
H1033 C975 0.930 . S
H1034 C976 0.930 . S
H1035 C977 0.930 1_556 S
H1036 C979 0.930 . S
H1037 C981 0.929 . S
H1038 C982 0.930 . S
H1039 C983 0.930 . S
H1040 C986 0.930 . S
H1041 C989 0.929 . S
H1042 C994 0.929 . S
H1043 C995 0.930 . S
H1044 C1002 0.929 . S
H1045 C1003 0.930 . S
H1046 C1004 0.930 . S
H1047 C1005 0.930 . S
H1048 C1007 0.929 . S
H1049 C1008 0.930 . S
H1050 C1009 0.930 . S
H1051 C1010 0.930 . S
H1052 C1014 0.929 . S
H1053 C1016 0.930 . S
H1054 C1022 0.929 . S
H1055 C1023 0.930 . S
H1056 C1064 0.950 . S
H1057 C1069 0.950 . S
H1058 C1066 0.950 . S
H1059 C1068 0.950 . S
H1060 C1070 0.950 . S
H1061 C1072 0.950 . S
H1062 C1074 0.950 . S
H1063 C1075 0.950 . S
C1064 H1056 0.950 . S
C1064 C1065 1.386 . S
C1064 C1066 1.391 . S
C1065 C1064 1.386 . S
C1065 C1069 1.393 . S
C1066 H1058 0.950 . S
C1066 C1064 1.391 . S
C1066 C1067 1.400 . S
C1067 C1066 1.400 . S
C1067 C1068 1.398 . S
C1067 C1073 1.491 . S
C1068 H1059 0.950 . S
C1068 C1067 1.398 . S
C1068 C1069 1.391 . S
C1069 H1057 0.950 . S
C1069 C1065 1.393 . S
C1069 C1068 1.391 . S
C1070 H1060 0.950 . S
C1070 C1071 1.386 . S
C1070 C1072 1.391 . S
C1071 C1070 1.386 . S
C1071 C1075 1.393 . S
C1072 H1061 0.950 . S
C1072 C1070 1.391 . S
C1072 C1073 1.400 . S
C1073 C1067 1.491 . S
C1073 C1072 1.400 . S
C1073 C1074 1.398 . S
C1074 H1062 0.950 . S
C1074 C1073 1.398 . S
C1074 C1075 1.391 . S
C1075 H1063 0.950 . S
C1075 C1071 1.393 . S
C1075 C1074 1.391 . S
H1076 C1084 0.950 . S
H1077 C1089 0.950 . S
H1078 C1086 0.950 . S
H1079 C1088 0.950 . S
H1080 C1090 0.950 . S
H1081 C1092 0.950 . S
H1082 C1094 0.950 . S
H1083 C1095 0.950 . S
C1084 H1076 0.950 . S
C1084 C1085 1.386 . S
C1084 C1086 1.391 . S
C1085 C1084 1.386 . S
C1085 C1089 1.393 . S
C1086 H1078 0.950 . S
C1086 C1084 1.391 . S
C1086 C1087 1.400 . S
C1087 C1086 1.400 . S
C1087 C1088 1.398 . S
C1087 C1093 1.491 . S
C1088 H1079 0.950 . S
C1088 C1087 1.398 . S
C1088 C1089 1.391 . S
C1089 H1077 0.950 . S
C1089 C1085 1.393 . S
C1089 C1088 1.391 . S
C1090 H1080 0.950 . S
C1090 C1091 1.386 . S
C1090 C1092 1.391 . S
C1091 C1090 1.386 . S
C1091 C1095 1.393 . S
C1092 H1081 0.950 . S
C1092 C1090 1.391 . S
C1092 C1093 1.400 . S
C1093 C1087 1.491 . S
C1093 C1092 1.400 . S
C1093 C1094 1.398 . S
C1094 H1082 0.950 . S
C1094 C1093 1.398 . S
C1094 C1095 1.391 . S
C1095 H1083 0.950 . S
C1095 C1091 1.393 . S
C1095 C1094 1.391 . S
H1096 C1104 0.950 . S
H1097 C1109 0.950 . S
H1098 C1106 0.950 . S
H1099 C1108 0.950 . S
H1100 C1110 0.950 . S
H1101 C1112 0.950 . S
H1102 C1114 0.950 . S
H1103 C1115 0.950 . S
C1104 H1096 0.950 . S
C1104 C1105 1.386 . S
C1104 C1106 1.391 . S
C1105 C1104 1.386 . S
C1105 C1109 1.393 . S
C1106 H1098 0.950 . S
C1106 C1104 1.391 . S
C1106 C1107 1.400 . S
C1107 C1106 1.400 . S
C1107 C1108 1.398 . S
C1107 C1113 1.491 . S
C1108 H1099 0.950 . S
C1108 C1107 1.398 . S
C1108 C1109 1.391 . S
C1109 H1097 0.950 . S
C1109 C1105 1.393 . S
C1109 C1108 1.391 . S
C1110 H1100 0.950 . S
C1110 C1111 1.386 . S
C1110 C1112 1.391 . S
C1111 C1110 1.386 . S
C1111 C1115 1.393 . S
C1112 H1101 0.950 . S
C1112 C1110 1.391 . S
C1112 C1113 1.400 . S
C1113 C1107 1.491 . S
C1113 C1112 1.400 . S
C1113 C1114 1.398 . S
C1114 H1102 0.950 . S
C1114 C1113 1.398 . S
C1114 C1115 1.391 . S
C1115 H1103 0.950 . S
C1115 C1111 1.393 . S
C1115 C1114 1.391 . S
H1116 C1124 0.950 . S
H1117 C1129 0.950 . S
H1118 C1126 0.950 . S
H1119 C1128 0.950 . S
H1120 C1130 0.950 . S
H1121 C1132 0.950 . S
H1122 C1134 0.950 . S
H1123 C1135 0.950 . S
C1124 H1116 0.950 . S
C1124 C1125 1.386 . S
C1124 C1126 1.391 . S
C1125 C1124 1.386 . S
C1125 C1129 1.393 . S
C1126 H1118 0.950 . S
C1126 C1124 1.391 . S
C1126 C1127 1.400 . S
C1127 C1126 1.400 . S
C1127 C1128 1.398 . S
C1127 C1133 1.491 . S
C1128 H1119 0.950 . S
C1128 C1127 1.398 . S
C1128 C1129 1.391 . S
C1129 H1117 0.950 . S
C1129 C1125 1.393 . S
C1129 C1128 1.391 . S
C1130 H1120 0.950 . S
C1130 C1131 1.386 . S
C1130 C1132 1.391 . S
C1131 C1130 1.386 . S
C1131 C1135 1.393 . S
C1132 H1121 0.950 . S
C1132 C1130 1.391 . S
C1132 C1133 1.400 . S
C1133 C1127 1.491 . S
C1133 C1132 1.400 . S
C1133 C1134 1.398 . S
C1134 H1122 0.950 . S
C1134 C1133 1.398 . S
C1134 C1135 1.391 . S
C1135 H1123 0.950 . S
C1135 C1131 1.393 . S
C1135 C1134 1.391 . S
H1136 C1144 0.950 . S
H1137 C1149 0.950 . S
H1138 C1146 0.950 . S
H1139 C1148 0.950 . S
H1140 C1150 0.950 . S
H1141 C1152 0.950 . S
H1142 C1154 0.950 . S
H1143 C1155 0.950 . S
C1144 H1136 0.950 . S
C1144 C1145 1.386 . S
C1144 C1146 1.391 . S
C1145 C1144 1.386 . S
C1145 C1149 1.393 . S
C1146 H1138 0.950 . S
C1146 C1144 1.391 . S
C1146 C1147 1.400 . S
C1147 C1146 1.400 . S
C1147 C1148 1.398 . S
C1147 C1153 1.491 . S
C1148 H1139 0.950 . S
C1148 C1147 1.398 . S
C1148 C1149 1.391 . S
C1149 H1137 0.950 . S
C1149 C1145 1.393 . S
C1149 C1148 1.391 . S
C1150 H1140 0.950 . S
C1150 C1151 1.386 . S
C1150 C1152 1.391 . S
C1151 C1150 1.386 . S
C1151 C1155 1.393 . S
C1152 H1141 0.950 . S
C1152 C1150 1.391 . S
C1152 C1153 1.400 . S
C1153 C1147 1.491 . S
C1153 C1152 1.400 . S
C1153 C1154 1.398 . S
C1154 H1142 0.950 . S
C1154 C1153 1.398 . S
C1154 C1155 1.391 . S
C1155 H1143 0.950 . S
C1155 C1151 1.393 . S
C1155 C1154 1.391 . S
H1156 C1164 0.950 . S
H1157 C1169 0.950 . S
H1158 C1166 0.950 . S
H1159 C1168 0.950 . S
H1160 C1170 0.950 . S
H1161 C1172 0.950 . S
H1162 C1174 0.950 . S
H1163 C1175 0.950 . S
C1164 H1156 0.950 . S
C1164 C1165 1.386 . S
C1164 C1166 1.391 . S
C1165 C1164 1.386 . S
C1165 C1169 1.393 . S
C1166 H1158 0.950 . S
C1166 C1164 1.391 . S
C1166 C1167 1.400 . S
C1167 C1166 1.400 . S
C1167 C1168 1.398 . S
C1167 C1173 1.491 . S
C1168 H1159 0.950 . S
C1168 C1167 1.398 . S
C1168 C1169 1.391 . S
C1169 H1157 0.950 . S
C1169 C1165 1.393 . S
C1169 C1168 1.391 . S
C1170 H1160 0.950 . S
C1170 C1171 1.386 . S
C1170 C1172 1.391 . S
C1171 C1170 1.386 . S
C1171 C1175 1.393 . S
C1172 H1161 0.950 . S
C1172 C1170 1.391 . S
C1172 C1173 1.400 . S
C1173 C1167 1.491 . S
C1173 C1172 1.400 . S
C1173 C1174 1.398 . S
C1174 H1162 0.950 . S
C1174 C1173 1.398 . S
C1174 C1175 1.391 . S
C1175 H1163 0.950 . S
C1175 C1171 1.393 . S
C1175 C1174 1.391 . S
H1176 C1184 0.950 . S
H1177 C1189 0.950 . S
H1178 C1186 0.950 . S
H1179 C1188 0.950 . S
H1180 C1190 0.950 . S
H1181 C1192 0.950 . S
H1182 C1194 0.950 . S
H1183 C1195 0.950 . S
C1184 H1176 0.950 . S
C1184 C1185 1.386 . S
C1184 C1186 1.391 . S
C1185 C1184 1.386 . S
C1185 C1189 1.393 1_565 S
C1186 H1178 0.950 . S
C1186 C1184 1.391 . S
C1186 C1187 1.400 . S
C1187 C1186 1.400 . S
C1187 C1188 1.398 1_565 S
C1187 C1193 1.491 1_565 S
C1188 H1179 0.950 . S
C1188 C1187 1.398 1_545 S
C1188 C1189 1.391 . S
C1189 H1177 0.950 . S
C1189 C1185 1.393 1_545 S
C1189 C1188 1.391 . S
C1190 H1180 0.950 . S
C1190 C1191 1.386 . S
C1190 C1192 1.391 . S
C1191 C1190 1.386 . S
C1191 C1195 1.393 1_545 S
C1192 H1181 0.950 . S
C1192 C1190 1.391 . S
C1192 C1193 1.400 . S
C1193 C1187 1.491 1_545 S
C1193 C1192 1.400 . S
C1193 C1194 1.398 1_545 S
C1194 H1182 0.950 . S
C1194 C1193 1.398 1_565 S
C1194 C1195 1.391 . S
C1195 H1183 0.950 . S
C1195 C1191 1.393 1_565 S
C1195 C1194 1.391 . S
H1196 C1204 0.950 . S
H1197 C1209 0.950 . S
H1198 C1206 0.950 . S
H1199 C1208 0.950 . S
H1200 C1210 0.950 . S
H1201 C1212 0.950 . S
H1202 C1214 0.950 . S
H1203 C1215 0.950 . S
C1204 H1196 0.950 . S
C1204 C1205 1.386 . S
C1204 C1206 1.391 . S
C1205 C1204 1.386 . S
C1205 C1209 1.393 . S
C1206 H1198 0.950 . S
C1206 C1204 1.391 . S
C1206 C1207 1.400 . S
C1207 C1206 1.400 . S
C1207 C1208 1.398 . S
C1207 C1213 1.491 . S
C1208 H1199 0.950 . S
C1208 C1207 1.398 . S
C1208 C1209 1.391 . S
C1209 H1197 0.950 . S
C1209 C1205 1.393 . S
C1209 C1208 1.391 . S
C1210 H1200 0.950 . S
C1210 C1211 1.386 . S
C1210 C1212 1.391 . S
C1211 C1210 1.386 . S
C1211 C1215 1.393 . S
C1212 H1201 0.950 . S
C1212 C1210 1.391 . S
C1212 C1213 1.400 . S
C1213 C1207 1.491 . S
C1213 C1212 1.400 . S
C1213 C1214 1.398 . S
C1214 H1202 0.950 . S
C1214 C1213 1.398 . S
C1214 C1215 1.391 . S
C1215 H1203 0.950 . S
C1215 C1211 1.393 . S
C1215 C1214 1.391 . S
H1216 C1224 0.950 . S
H1217 C1229 0.950 . S
H1218 C1226 0.950 . S
H1219 C1228 0.950 . S
H1220 C1230 0.950 . S
H1221 C1232 0.950 . S
H1222 C1234 0.950 . S
H1223 C1235 0.950 . S
C1224 H1216 0.950 . S
C1224 C1225 1.386 . S
C1224 C1226 1.391 . S
C1225 C1224 1.386 . S
C1225 C1229 1.393 1_655 S
C1226 H1218 0.950 . S
C1226 C1224 1.391 . S
C1226 C1227 1.400 . S
C1227 C1226 1.400 . S
C1227 C1228 1.398 1_655 S
C1227 C1233 1.491 1_655 S
C1228 H1219 0.950 . S
C1228 C1227 1.398 1_455 S
C1228 C1229 1.391 . S
C1229 H1217 0.950 . S
C1229 C1225 1.393 1_455 S
C1229 C1228 1.391 . S
C1230 H1220 0.950 . S
C1230 C1231 1.386 . S
C1230 C1232 1.391 . S
C1231 C1230 1.386 . S
C1231 C1235 1.393 1_455 S
C1232 H1221 0.950 . S
C1232 C1230 1.391 . S
C1232 C1233 1.400 . S
C1233 C1227 1.491 1_455 S
C1233 C1232 1.400 . S
C1233 C1234 1.398 1_455 S
C1234 H1222 0.950 . S
C1234 C1233 1.398 1_655 S
C1234 C1235 1.391 . S
C1235 H1223 0.950 . S
C1235 C1231 1.393 1_655 S
C1235 C1234 1.391 . S
H1236 C1244 0.950 . S
H1237 C1249 0.950 . S
H1238 C1246 0.950 . S
H1239 C1248 0.950 . S
H1240 C1250 0.950 . S
H1241 C1252 0.950 . S
H1242 C1254 0.950 . S
H1243 C1255 0.950 . S
C1244 H1236 0.950 . S
C1244 C1245 1.386 . S
C1244 C1246 1.391 . S
C1245 C1244 1.386 . S
C1245 C1249 1.393 1_455 S
C1246 H1238 0.950 . S
C1246 C1244 1.391 . S
C1246 C1247 1.400 . S
C1247 C1246 1.400 . S
C1247 C1248 1.398 1_455 S
C1247 C1253 1.491 1_455 S
C1248 H1239 0.950 . S
C1248 C1247 1.398 1_655 S
C1248 C1249 1.391 . S
C1249 H1237 0.950 . S
C1249 C1245 1.393 1_655 S
C1249 C1248 1.391 . S
C1250 H1240 0.950 . S
C1250 C1251 1.386 . S
C1250 C1252 1.391 . S
C1251 C1250 1.386 . S
C1251 C1255 1.393 1_655 S
C1252 H1241 0.950 . S
C1252 C1250 1.391 . S
C1252 C1253 1.400 . S
C1253 C1247 1.491 1_655 S
C1253 C1252 1.400 . S
C1253 C1254 1.398 1_655 S
C1254 H1242 0.950 . S
C1254 C1253 1.398 1_455 S
C1254 C1255 1.391 . S
C1255 H1243 0.950 . S
C1255 C1251 1.393 1_455 S
C1255 C1254 1.391 . S
H1256 C1264 0.950 . S
H1257 C1269 0.950 . S
H1258 C1266 0.950 . S
H1259 C1268 0.950 . S
H1260 C1270 0.950 . S
H1261 C1272 0.950 . S
H1262 C1274 0.950 . S
H1263 C1275 0.950 . S
C1264 H1256 0.950 . S
C1264 C1265 1.386 1_545 S
C1264 C1266 1.391 . S
C1265 C1264 1.386 1_565 S
C1265 C1269 1.393 . S
C1266 H1258 0.950 . S
C1266 C1264 1.391 . S
C1266 C1267 1.400 1_545 S
C1267 C1266 1.400 1_565 S
C1267 C1268 1.398 . S
C1267 C1273 1.491 1_565 S
C1268 H1259 0.950 . S
C1268 C1267 1.398 . S
C1268 C1269 1.391 . S
C1269 H1257 0.950 . S
C1269 C1265 1.393 . S
C1269 C1268 1.391 . S
C1270 H1260 0.950 . S
C1270 C1271 1.386 1_565 S
C1270 C1272 1.391 . S
C1271 C1270 1.386 1_545 S
C1271 C1275 1.393 . S
C1272 H1261 0.950 . S
C1272 C1270 1.391 . S
C1272 C1273 1.400 1_565 S
C1273 C1267 1.491 1_545 S
C1273 C1272 1.400 1_545 S
C1273 C1274 1.398 . S
C1274 H1262 0.950 . S
C1274 C1273 1.398 . S
C1274 C1275 1.391 . S
C1275 H1263 0.950 . S
C1275 C1271 1.393 . S
C1275 C1274 1.391 . S
H1276 C1284 0.950 . S
H1277 C1289 0.950 . S
H1278 C1286 0.950 . S
H1279 C1288 0.950 . S
H1280 C1290 0.950 . S
H1281 C1292 0.950 . S
H1282 C1294 0.950 . S
H1283 C1295 0.950 . S
C1284 H1276 0.950 . S
C1284 C1285 1.386 . S
C1284 C1286 1.391 . S
C1285 C1284 1.386 . S
C1285 C1289 1.393 . S
C1286 H1278 0.950 . S
C1286 C1284 1.391 . S
C1286 C1287 1.400 . S
C1287 C1286 1.400 . S
C1287 C1288 1.398 . S
C1287 C1293 1.491 . S
C1288 H1279 0.950 . S
C1288 C1287 1.398 . S
C1288 C1289 1.391 . S
C1289 H1277 0.950 . S
C1289 C1285 1.393 . S
C1289 C1288 1.391 . S
C1290 H1280 0.950 . S
C1290 C1291 1.386 . S
C1290 C1292 1.391 . S
C1291 C1290 1.386 . S
C1291 C1295 1.393 . S
C1292 H1281 0.950 . S
C1292 C1290 1.391 . S
C1292 C1293 1.400 . S
C1293 C1287 1.491 . S
C1293 C1292 1.400 . S
C1293 C1294 1.398 . S
C1294 H1282 0.950 . S
C1294 C1293 1.398 . S
C1294 C1295 1.391 . S
C1295 H1283 0.950 . S
C1295 C1291 1.393 . S
C1295 C1294 1.391 . S
H1296 C1304 0.950 . S
H1297 C1309 0.950 . S
H1298 C1306 0.950 . S
H1299 C1308 0.950 . S
H1300 C1310 0.950 . S
H1301 C1312 0.950 . S
H1302 C1314 0.950 . S
H1303 C1315 0.950 . S
C1304 H1296 0.950 . S
C1304 C1305 1.386 . S
C1304 C1306 1.391 . S
C1305 C1304 1.386 . S
C1305 C1309 1.393 . S
C1306 H1298 0.950 . S
C1306 C1304 1.391 . S
C1306 C1307 1.400 . S
C1307 C1306 1.400 . S
C1307 C1308 1.398 . S
C1307 C1313 1.491 . S
C1308 H1299 0.950 . S
C1308 C1307 1.398 . S
C1308 C1309 1.391 . S
C1309 H1297 0.950 . S
C1309 C1305 1.393 . S
C1309 C1308 1.391 . S
C1310 H1300 0.950 . S
C1310 C1311 1.386 . S
C1310 C1312 1.391 . S
C1311 C1310 1.386 . S
C1311 C1315 1.393 . S
C1312 H1301 0.950 . S
C1312 C1310 1.391 . S
C1312 C1313 1.400 . S
C1313 C1307 1.491 . S
C1313 C1312 1.400 . S
C1313 C1314 1.398 . S
C1314 H1302 0.950 . S
C1314 C1313 1.398 . S
C1314 C1315 1.391 . S
C1315 H1303 0.950 . S
C1315 C1311 1.393 . S
C1315 C1314 1.391 . S
H1316 C1324 0.950 . S
H1317 C1329 0.950 . S
H1318 C1326 0.950 . S
H1319 C1328 0.950 . S
H1320 C1330 0.950 . S
H1321 C1332 0.950 . S
H1322 C1334 0.950 . S
H1323 C1335 0.950 . S
C1324 H1316 0.950 . S
C1324 C1325 1.386 . S
C1324 C1326 1.391 . S
C1325 C1324 1.386 . S
C1325 C1329 1.393 . S
C1326 H1318 0.950 . S
C1326 C1324 1.391 . S
C1326 C1327 1.400 . S
C1327 C1326 1.400 . S
C1327 C1328 1.398 . S
C1327 C1333 1.491 . S
C1328 H1319 0.950 . S
C1328 C1327 1.398 . S
C1328 C1329 1.391 . S
C1329 H1317 0.950 . S
C1329 C1325 1.393 . S
C1329 C1328 1.391 . S
C1330 H1320 0.950 . S
C1330 C1331 1.386 . S
C1330 C1332 1.391 . S
C1331 C1330 1.386 . S
C1331 C1335 1.393 . S
C1332 H1321 0.950 . S
C1332 C1330 1.391 . S
C1332 C1333 1.400 . S
C1333 C1327 1.491 . S
C1333 C1332 1.400 . S
C1333 C1334 1.398 . S
C1334 H1322 0.950 . S
C1334 C1333 1.398 . S
C1334 C1335 1.391 . S
C1335 H1323 0.950 . S
C1335 C1331 1.393 . S
C1335 C1334 1.391 . S
H1336 C1344 0.950 . S
H1337 C1349 0.950 . S
H1338 C1346 0.950 1_556 S
H1339 C1348 0.950 . S
H1340 C1350 0.950 . S
H1341 C1352 0.950 1_554 S
H1342 C1354 0.950 . S
H1343 C1355 0.950 . S
C1344 H1336 0.950 . S
C1344 C1345 1.386 . S
C1344 C1346 1.391 . S
C1345 C1344 1.386 . S
C1345 C1349 1.393 . S
C1346 H1338 0.950 1_554 S
C1346 C1344 1.391 . S
C1346 C1347 1.400 . S
C1347 C1346 1.400 . S
C1347 C1348 1.398 . S
C1347 C1353 1.491 1_554 S
C1348 H1339 0.950 . S
C1348 C1347 1.398 . S
C1348 C1349 1.391 . S
C1349 H1337 0.950 . S
C1349 C1345 1.393 . S
C1349 C1348 1.391 . S
C1350 H1340 0.950 . S
C1350 C1351 1.386 . S
C1350 C1352 1.391 . S
C1351 C1350 1.386 . S
C1351 C1355 1.393 . S
C1352 H1341 0.950 1_556 S
C1352 C1350 1.391 . S
C1352 C1353 1.400 . S
C1353 C1347 1.491 1_556 S
C1353 C1352 1.400 . S
C1353 C1354 1.398 . S
C1354 H1342 0.950 . S
C1354 C1353 1.398 . S
C1354 C1355 1.391 . S
C1355 H1343 0.950 . S
C1355 C1351 1.393 . S
C1355 C1354 1.391 . S
H1356 C1364 0.950 . S
H1357 C1369 0.950 . S
H1358 C1366 0.950 . S
H1359 C1368 0.950 . S
H1360 C1370 0.950 . S
H1361 C1372 0.950 . S
H1362 C1374 0.950 . S
H1363 C1375 0.950 . S
C1364 H1356 0.950 . S
C1364 C1365 1.386 . S
C1364 C1366 1.391 . S
C1365 C1364 1.386 . S
C1365 C1369 1.393 . S
C1366 H1358 0.950 . S
C1366 C1364 1.391 . S
C1366 C1367 1.400 . S
C1367 C1366 1.400 . S
C1367 C1368 1.398 . S
C1367 C1373 1.491 . S
C1368 H1359 0.950 . S
C1368 C1367 1.398 . S
C1368 C1369 1.391 . S
C1369 H1357 0.950 . S
C1369 C1365 1.393 . S
C1369 C1368 1.391 . S
C1370 H1360 0.950 . S
C1370 C1371 1.386 . S
C1370 C1372 1.391 . S
C1371 C1370 1.386 . S
C1371 C1375 1.393 . S
C1372 H1361 0.950 . S
C1372 C1370 1.391 . S
C1372 C1373 1.400 . S
C1373 C1367 1.491 . S
C1373 C1372 1.400 . S
C1373 C1374 1.398 . S
C1374 H1362 0.950 . S
C1374 C1373 1.398 . S
C1374 C1375 1.391 . S
C1375 H1363 0.950 . S
C1375 C1371 1.393 . S
C1375 C1374 1.391 . S
H1376 C1384 0.950 . S
H1377 C1389 0.950 . S
H1378 C1386 0.950 . S
H1379 C1388 0.950 . S
H1380 C1390 0.950 . S
H1381 C1392 0.950 . S
H1382 C1394 0.950 . S
H1383 C1395 0.950 . S
C1384 H1376 0.950 . S
C1384 C1385 1.386 . S
C1384 C1386 1.391 . S
C1385 C1384 1.386 . S
C1385 C1389 1.393 . S
C1386 H1378 0.950 . S
C1386 C1384 1.391 . S
C1386 C1387 1.400 . S
C1387 C1386 1.400 . S
C1387 C1388 1.398 . S
C1387 C1393 1.491 . S
C1388 H1379 0.950 . S
C1388 C1387 1.398 . S
C1388 C1389 1.391 . S
C1389 H1377 0.950 . S
C1389 C1385 1.393 . S
C1389 C1388 1.391 . S
C1390 H1380 0.950 . S
C1390 C1391 1.386 . S
C1390 C1392 1.391 . S
C1391 C1390 1.386 . S
C1391 C1395 1.393 . S
C1392 H1381 0.950 . S
C1392 C1390 1.391 . S
C1392 C1393 1.400 . S
C1393 C1387 1.491 . S
C1393 C1392 1.400 . S
C1393 C1394 1.398 . S
C1394 H1382 0.950 . S
C1394 C1393 1.398 . S
C1394 C1395 1.391 . S
C1395 H1383 0.950 . S
C1395 C1391 1.393 . S
C1395 C1394 1.391 . S
H1396 C1404 0.950 . S
H1397 C1409 0.950 . S
H1398 C1406 0.950 . S
H1399 C1408 0.950 . S
H1400 C1410 0.950 . S
H1401 C1412 0.950 . S
H1402 C1414 0.950 . S
H1403 C1415 0.950 . S
C1404 H1396 0.950 . S
C1404 C1405 1.386 . S
C1404 C1406 1.391 . S
C1405 C1404 1.386 . S
C1405 C1409 1.393 . S
C1406 H1398 0.950 . S
C1406 C1404 1.391 . S
C1406 C1407 1.400 . S
C1407 C1406 1.400 . S
C1407 C1408 1.398 . S
C1407 C1413 1.491 1_554 S
C1408 H1399 0.950 . S
C1408 C1407 1.398 . S
C1408 C1409 1.391 . S
C1409 H1397 0.950 . S
C1409 C1405 1.393 . S
C1409 C1408 1.391 . S
C1410 H1400 0.950 . S
C1410 C1411 1.386 . S
C1410 C1412 1.391 . S
C1411 C1410 1.386 . S
C1411 C1415 1.393 . S
C1412 H1401 0.950 . S
C1412 C1410 1.391 . S
C1412 C1413 1.400 . S
C1413 C1407 1.491 1_556 S
C1413 C1412 1.400 . S
C1413 C1414 1.398 . S
C1414 H1402 0.950 . S
C1414 C1413 1.398 . S
C1414 C1415 1.391 . S
C1415 H1403 0.950 . S
C1415 C1411 1.393 . S
C1415 C1414 1.391 . S
H1416 C1424 0.950 . S
H1417 C1429 0.950 1_565 S
H1418 C1426 0.950 . S
H1419 C1428 0.950 . S
H1420 C1430 0.950 . S
H1421 C1432 0.950 . S
H1422 C1434 0.950 . S
H1423 C1435 0.950 1_545 S
C1424 H1416 0.950 . S
C1424 C1425 1.386 . S
C1424 C1426 1.391 . S
C1425 C1424 1.386 . S
C1425 C1429 1.393 . S
C1426 H1418 0.950 . S
C1426 C1424 1.391 . S
C1426 C1427 1.400 . S
C1427 C1426 1.400 . S
C1427 C1428 1.398 1_545 S
C1427 C1433 1.491 1_545 S
C1428 H1419 0.950 . S
C1428 C1427 1.398 1_565 S
C1428 C1429 1.391 1_565 S
C1429 H1417 0.950 1_545 S
C1429 C1425 1.393 . S
C1429 C1428 1.391 1_545 S
C1430 H1420 0.950 . S
C1430 C1431 1.386 . S
C1430 C1432 1.391 . S
C1431 C1430 1.386 . S
C1431 C1435 1.393 . S
C1432 H1421 0.950 . S
C1432 C1430 1.391 . S
C1432 C1433 1.400 . S
C1433 C1427 1.491 1_565 S
C1433 C1432 1.400 . S
C1433 C1434 1.398 1_565 S
C1434 H1422 0.950 . S
C1434 C1433 1.398 1_545 S
C1434 C1435 1.391 1_545 S
C1435 H1423 0.950 1_565 S
C1435 C1431 1.393 . S
C1435 C1434 1.391 1_565 S
H1436 C1444 0.950 . S
H1437 C1449 0.950 . S
H1438 C1446 0.950 . S
H1439 C1448 0.950 . S
H1440 C1450 0.950 . S
H1441 C1452 0.950 . S
H1442 C1454 0.950 . S
H1443 C1455 0.950 . S
C1444 H1436 0.950 . S
C1444 C1445 1.386 . S
C1444 C1446 1.391 . S
C1445 C1444 1.386 . S
C1445 C1449 1.393 . S
C1446 H1438 0.950 . S
C1446 C1444 1.391 . S
C1446 C1447 1.400 . S
C1447 C1446 1.400 . S
C1447 C1448 1.398 . S
C1447 C1453 1.491 . S
C1448 H1439 0.950 . S
C1448 C1447 1.398 . S
C1448 C1449 1.391 . S
C1449 H1437 0.950 . S
C1449 C1445 1.393 . S
C1449 C1448 1.391 . S
C1450 H1440 0.950 . S
C1450 C1451 1.386 . S
C1450 C1452 1.391 . S
C1451 C1450 1.386 . S
C1451 C1455 1.393 . S
C1452 H1441 0.950 . S
C1452 C1450 1.391 . S
C1452 C1453 1.400 . S
C1453 C1447 1.491 . S
C1453 C1452 1.400 . S
C1453 C1454 1.398 . S
C1454 H1442 0.950 . S
C1454 C1453 1.398 . S
C1454 C1455 1.391 . S
C1455 H1443 0.950 . S
C1455 C1451 1.393 . S
C1455 C1454 1.391 . S
H1456 C1464 0.950 1_655 S
H1457 C1469 0.950 . S
H1458 C1466 0.950 . S
H1459 C1468 0.950 . S
H1460 C1470 0.950 1_455 S
H1461 C1472 0.950 . S
H1462 C1474 0.950 . S
H1463 C1475 0.950 . S
C1464 H1456 0.950 1_455 S
C1464 C1465 1.386 . S
C1464 C1466 1.391 1_455 S
C1465 C1464 1.386 . S
C1465 C1469 1.393 . S
C1466 H1458 0.950 . S
C1466 C1464 1.391 1_655 S
C1466 C1467 1.400 1_655 S
C1467 C1466 1.400 1_455 S
C1467 C1468 1.398 . S
C1467 C1473 1.491 1_455 S
C1468 H1459 0.950 . S
C1468 C1467 1.398 . S
C1468 C1469 1.391 . S
C1469 H1457 0.950 . S
C1469 C1465 1.393 . S
C1469 C1468 1.391 . S
C1470 H1460 0.950 1_655 S
C1470 C1471 1.386 . S
C1470 C1472 1.391 1_655 S
C1471 C1470 1.386 . S
C1471 C1475 1.393 . S
C1472 H1461 0.950 . S
C1472 C1470 1.391 1_455 S
C1472 C1473 1.400 1_455 S
C1473 C1467 1.491 1_655 S
C1473 C1472 1.400 1_655 S
C1473 C1474 1.398 . S
C1474 H1462 0.950 . S
C1474 C1473 1.398 . S
C1474 C1475 1.391 . S
C1475 H1463 0.950 . S
C1475 C1471 1.393 . S
C1475 C1474 1.391 . S
H1476 C1484 0.950 . S
H1477 C1489 0.950 . S
H1478 C1486 0.950 . S
H1479 C1488 0.993 . S
H1480 C1490 0.950 . S
H1481 C1492 0.950 . S
H1482 C1494 0.950 . S
H1483 C1495 0.950 . S
C1484 H1476 0.950 . S
C1484 C1485 1.386 . S
C1484 C1486 1.391 . S
C1485 C1484 1.386 . S
C1485 C1489 1.393 . S
C1486 H1478 0.950 . S
C1486 C1484 1.391 . S
C1486 C1487 1.400 . S
C1487 C1486 1.400 . S
C1487 C1488 1.398 . S
C1487 C1493 1.491 1_565 S
C1488 H1479 0.993 . S
C1488 C1487 1.398 . S
C1488 C1489 1.391 . S
C1489 H1477 0.950 . S
C1489 C1485 1.393 . S
C1489 C1488 1.391 . S
C1490 H1480 0.950 . S
C1490 C1491 1.386 . S
C1490 C1492 1.391 . S
C1491 C1490 1.386 . S
C1491 C1495 1.393 . S
C1492 H1481 0.950 . S
C1492 C1490 1.391 . S
C1492 C1493 1.400 . S
C1493 C1487 1.491 1_545 S
C1493 C1492 1.400 . S
C1493 C1494 1.398 . S
C1494 H1482 0.950 . S
C1494 C1493 1.398 . S
C1494 C1495 1.391 . S
C1495 H1483 0.950 . S
C1495 C1491 1.393 . S
C1495 C1494 1.391 . S
H1496 C1504 0.950 . S
H1497 C1509 0.950 . S
H1498 C1506 0.950 . S
H1499 C1508 0.950 . S
H1500 C1510 0.950 . S
H1501 C1512 0.950 . S
H1502 C1514 0.950 . S
H1503 C1515 0.950 . S
C1504 H1496 0.950 . S
C1504 C1505 1.386 . S
C1504 C1506 1.391 . S
C1505 C1504 1.386 . S
C1505 C1509 1.393 . S
C1506 H1498 0.950 . S
C1506 C1504 1.391 . S
C1506 C1507 1.400 . S
C1507 C1506 1.400 . S
C1507 C1508 1.398 . S
C1507 C1513 1.491 . S
C1508 H1499 0.950 . S
C1508 C1507 1.398 . S
C1508 C1509 1.391 . S
C1509 H1497 0.950 . S
C1509 C1505 1.393 . S
C1509 C1508 1.391 . S
C1510 H1500 0.950 . S
C1510 C1511 1.386 . S
C1510 C1512 1.391 . S
C1511 C1510 1.386 . S
C1511 C1515 1.393 . S
C1512 H1501 0.950 . S
C1512 C1510 1.391 . S
C1512 C1513 1.400 . S
C1513 C1507 1.491 . S
C1513 C1512 1.400 . S
C1513 C1514 1.398 . S
C1514 H1502 0.950 . S
C1514 C1513 1.398 . S
C1514 C1515 1.391 . S
C1515 H1503 0.950 . S
C1515 C1511 1.393 . S
C1515 C1514 1.391 . S
H1516 C1524 0.950 1_455 S
H1517 C1529 0.950 . S
H1518 C1526 0.950 . S
H1519 C1528 0.950 . S
H1520 C1530 0.950 1_655 S
H1521 C1532 0.950 . S
H1522 C1534 0.950 . S
H1523 C1535 0.950 . S
C1524 H1516 0.950 1_655 S
C1524 C1525 1.386 . S
C1524 C1526 1.391 1_655 S
C1525 C1524 1.386 . S
C1525 C1529 1.393 . S
C1526 H1518 0.950 . S
C1526 C1524 1.391 1_455 S
C1526 C1527 1.400 1_455 S
C1527 C1526 1.400 1_655 S
C1527 C1528 1.398 . S
C1527 C1533 1.491 1_655 S
C1528 H1519 0.950 . S
C1528 C1527 1.398 . S
C1528 C1529 1.391 . S
C1529 H1517 0.950 . S
C1529 C1525 1.393 . S
C1529 C1528 1.391 . S
C1530 H1520 0.950 1_455 S
C1530 C1531 1.386 . S
C1530 C1532 1.391 1_455 S
C1531 C1530 1.386 . S
C1531 C1535 1.393 . S
C1532 H1521 0.950 . S
C1532 C1530 1.391 1_655 S
C1532 C1533 1.400 1_655 S
C1533 C1527 1.491 1_455 S
C1533 C1532 1.400 1_455 S
C1533 C1534 1.398 . S
C1534 H1522 0.950 . S
C1534 C1533 1.398 . S
C1534 C1535 1.391 . S
C1535 H1523 0.950 . S
C1535 C1531 1.393 . S
C1535 C1534 1.391 . S
C1065 C57 1.940 . S
C1071 C733 1.933 . S
C1085 C145 1.938 . S
C1091 C812 1.934 . S
C1105 C900 1.883 . S
C1111 C233 1.878 . S
C1125 C988 1.937 . S
C1131 C321 1.932 . S
C1145 C557 1.939 . S
C1151 C401 1.934 . S
C1165 C645 1.880 . S
C1171 C497 1.875 . S
C1185 C20 1.538 . S
C1191 C284 1.531 . S
C1205 C381 1.520 . S
C1211 C108 1.516 . S
C1225 C460 1.481 . S
C1231 C196 1.468 . S
C1245 C577 1.538 . S
C1251 C849 1.532 . S
C1265 C937 1.472 . S
C1271 C665 1.476 . S
C1285 C753 1.523 . S
C1291 C1025 1.514 . S
C1305 C548 1.417 . S
C1311 C49 1.423 . S
C1325 C137 1.402 . S
C1331 C636 1.406 . S
C1345 C724 1.408 . S
C1351 C225 1.414 . S
C1365 C821 1.459 . S
C1371 C313 1.464 . S
C1385 C409 1.408 . S
C1391 C909 1.412 . S
C1405 C997 1.420 . S
C1411 C489 1.425 . S
C1425 C29 0.780 . S
C1431 C673 0.773 . S
C1445 C761 0.769 . S
C1451 C117 0.775 . S
C1465 C841 0.792 . S
C1471 C205 0.797 . S
C1485 C293 0.758 . S
C1491 C929 0.757 . S
C1505 C1017 0.793 . S
C1511 C372 0.793 . S
C1525 C585 0.782 . S
C1531 C469 0.788 . S
