# Generated by pormake.
# Topology bcu-i, (5)-cn, num edge types: 1
# Building blocks:
#     Node 0, Type 0, BuildingBlock: XOMCOT_clean_sbu_0, # of connection points: 5
#     Node 1, Type 0, BuildingBlock: XOMCOT_clean_sbu_0, # of connection points: 5
#     Node 2, Type 0, BuildingBlock: XOMCOT_clean_sbu_0, # of connection points: 5
#     Node 3, Type 0, BuildingBlock: XOMCOT_clean_sbu_0, # of connection points: 5
#     Node 4, Type 0, BuildingBlock: XOMCOT_clean_sbu_0, # of connection points: 5
#     Node 5, Type 0, BuildingBlock: XOMCOT_clean_sbu_0, # of connection points: 5
#     Node 6, Type 0, BuildingBlock: XOMCOT_clean_sbu_0, # of connection points: 5
#     Node 7, Type 0, BuildingBlock: XOMCOT_clean_sbu_0, # of connection points: 5
#     Node 8, Type 0, BuildingBlock: XOMCOT_clean_sbu_0, # of connection points: 5
#     Node 9, Type 0, BuildingBlock: XOMCOT_clean_sbu_0, # of connection points: 5
#     Node 10, Type 0, BuildingBlock: XOMCOT_clean_sbu_0, # of connection points: 5
#     Node 11, Type 0, BuildingBlock: XOMCOT_clean_sbu_0, # of connection points: 5
#     Node 12, Type 0, BuildingBlock: XOMCOT_clean_sbu_0, # of connection points: 5
#     Node 13, Type 0, BuildingBlock: XOMCOT_clean_sbu_0, # of connection points: 5
#     Node 14, Type 0, BuildingBlock: XOMCOT_clean_sbu_0, # of connection points: 5
#     Node 15, Type 0, BuildingBlock: XOMCOT_clean_sbu_0, # of connection points: 5
#     Edge 16, Type (0, 0), BuildingBlock: OJICUG_clean_linker_0, # of connection points: 2
#     Edge 17, Type (0, 0), BuildingBlock: OJICUG_clean_linker_0, # of connection points: 2
#     Edge 18, Type (0, 0), BuildingBlock: OJICUG_clean_linker_0, # of connection points: 2
#     Edge 19, Type (0, 0), BuildingBlock: OJICUG_clean_linker_0, # of connection points: 2
#     Edge 20, Type (0, 0), BuildingBlock: OJICUG_clean_linker_0, # of connection points: 2
#     Edge 21, Type (0, 0), BuildingBlock: OJICUG_clean_linker_0, # of connection points: 2
#     Edge 22, Type (0, 0), BuildingBlock: OJICUG_clean_linker_0, # of connection points: 2
#     Edge 23, Type (0, 0), BuildingBlock: OJICUG_clean_linker_0, # of connection points: 2
#     Edge 24, Type (0, 0), BuildingBlock: OJICUG_clean_linker_0, # of connection points: 2
#     Edge 25, Type (0, 0), BuildingBlock: OJICUG_clean_linker_0, # of connection points: 2
#     Edge 26, Type (0, 0), BuildingBlock: OJICUG_clean_linker_0, # of connection points: 2
#     Edge 27, Type (0, 0), BuildingBlock: OJICUG_clean_linker_0, # of connection points: 2
#     Edge 28, Type (0, 0), BuildingBlock: OJICUG_clean_linker_0, # of connection points: 2
#     Edge 29, Type (0, 0), BuildingBlock: OJICUG_clean_linker_0, # of connection points: 2
#     Edge 30, Type (0, 0), BuildingBlock: OJICUG_clean_linker_0, # of connection points: 2
#     Edge 31, Type (0, 0), BuildingBlock: OJICUG_clean_linker_0, # of connection points: 2
#     Edge 32, Type (0, 0), BuildingBlock: OJICUG_clean_linker_0, # of connection points: 2
#     Edge 33, Type (0, 0), BuildingBlock: OJICUG_clean_linker_0, # of connection points: 2
#     Edge 34, Type (0, 0), BuildingBlock: OJICUG_clean_linker_0, # of connection points: 2
#     Edge 35, Type (0, 0), BuildingBlock: OJICUG_clean_linker_0, # of connection points: 2
#     Edge 36, Type (0, 0), BuildingBlock: OJICUG_clean_linker_0, # of connection points: 2
#     Edge 37, Type (0, 0), BuildingBlock: OJICUG_clean_linker_0, # of connection points: 2
#     Edge 38, Type (0, 0), BuildingBlock: OJICUG_clean_linker_0, # of connection points: 2
#     Edge 39, Type (0, 0), BuildingBlock: OJICUG_clean_linker_0, # of connection points: 2
#     Edge 40, Type (0, 0), BuildingBlock: OJICUG_clean_linker_0, # of connection points: 2
#     Edge 41, Type (0, 0), BuildingBlock: OJICUG_clean_linker_0, # of connection points: 2
#     Edge 42, Type (0, 0), BuildingBlock: OJICUG_clean_linker_0, # of connection points: 2
#     Edge 43, Type (0, 0), BuildingBlock: OJICUG_clean_linker_0, # of connection points: 2
#     Edge 44, Type (0, 0), BuildingBlock: OJICUG_clean_linker_0, # of connection points: 2
#     Edge 45, Type (0, 0), BuildingBlock: OJICUG_clean_linker_0, # of connection points: 2
#     Edge 46, Type (0, 0), BuildingBlock: OJICUG_clean_linker_0, # of connection points: 2
#     Edge 47, Type (0, 0), BuildingBlock: OJICUG_clean_linker_0, # of connection points: 2
#     Edge 48, Type (0, 0), BuildingBlock: OJICUG_clean_linker_0, # of connection points: 2
#     Edge 49, Type (0, 0), BuildingBlock: OJICUG_clean_linker_0, # of connection points: 2
#     Edge 50, Type (0, 0), BuildingBlock: OJICUG_clean_linker_0, # of connection points: 2
#     Edge 51, Type (0, 0), BuildingBlock: OJICUG_clean_linker_0, # of connection points: 2
#     Edge 52, Type (0, 0), BuildingBlock: OJICUG_clean_linker_0, # of connection points: 2
#     Edge 53, Type (0, 0), BuildingBlock: OJICUG_clean_linker_0, # of connection points: 2
#     Edge 54, Type (0, 0), BuildingBlock: OJICUG_clean_linker_0, # of connection points: 2
#     Edge 55, Type (0, 0), BuildingBlock: OJICUG_clean_linker_0, # of connection points: 2
# Relax obj value: 0.534
# Max RMSD: 0.256
# Mean RMSD: 0.256
data_MOF--net-bcu-i--node1-XOMCOT_clean_sbu_0--edge1-OJICUG_clean_linker_0
_symmetry_space_group_name_H-M    P1
_symmetry_Int_Tables_number       1
_symmetry_cell_setting            triclinic
loop_
_symmetry_equiv_pos_as_xyz
'x, y, z'
_cell_length_a     34.162077
_cell_length_b     34.115697
_cell_length_c     39.703729
_cell_angle_alpha  90.045223
_cell_angle_beta   89.418609
_cell_angle_gamma 89.931856
loop_
_atom_site_label
_atom_site_type_symbol
_atom_site_fract_x
_atom_site_fract_y
_atom_site_fract_z
_atom_type_partial_charge
Co0 Co 0.17226 0.12772 0.38481 0.0
C1 C 0.09883 0.17177 0.3735 0.0
C2 C 0.09636 0.11389 0.35241 0.0
C3 C 0.06122 0.13223 0.3468 0.0
N4 N 0.12007 0.13876 0.36889 0.0
N5 N 0.06276 0.16848 0.36019 0.0
H6 H 0.10905 0.19721 0.38711 0.0
H7 H 0.10321 0.08389 0.34616 0.0
C8 C 0.18332 0.04673 0.36438 0.0
O9 O 0.19312 0.04187 0.39595 0.0
N10 N 0.2251 0.11665 0.40026 0.0
C11 C 0.25721 0.11355 0.38035 0.0
C12 C 0.28606 0.09427 0.39769 0.0
C13 C 0.23541 0.09997 0.42969 0.0
N14 N 0.27195 0.08485 0.42848 0.0
C15 C 0.21519 0.19379 0.36129 0.0
C16 C 0.20385 0.18015 0.29338 0.0
C17 C 0.22827 0.21102 0.30329 0.0
C18 C 0.23334 0.21817 0.33772 0.0
C19 C 0.18653 0.15625 0.31777 0.0
N20 N 0.19329 0.16265 0.3511 0.0
H21 H 0.21988 0.19888 0.38781 0.0
H22 H 0.16821 0.13223 0.30985 0.0
H23 H 0.25839 0.12086 0.35387 0.0
H24 H 0.21482 0.09352 0.44976 0.0
O25 O 0.16495 0.16453 0.42142 0.0
O26 O 0.14918 0.10141 0.42302 0.0
O27 O 0.17562 0.08117 0.35365 0.0
C28 C 0.15004 0.1352 0.43812 0.0
H29 H 0.03559 0.11902 0.33569 0.0
H30 H 0.31365 0.08433 0.38711 0.0
H31 H 0.19929 0.17363 0.267 0.0
H32 H 0.2516 0.24203 0.34633 0.0
Co33 Co 0.85191 0.22486 0.43999 0.0
C34 C 0.80253 0.16912 0.40192 0.0
C35 C 0.86245 0.16521 0.38647 0.0
C36 C 0.84231 0.13507 0.37178 0.0
N37 N 0.83747 0.18744 0.40494 0.0
N38 N 0.80471 0.13704 0.38199 0.0
H39 H 0.77696 0.17628 0.41698 0.0
H40 H 0.89393 0.16692 0.38698 0.0
C41 C 0.91622 0.2388 0.38893 0.0
O42 O 0.8898 0.24505 0.3657 0.0
N43 N 0.86639 0.26071 0.4751 0.0
C44 C 0.84276 0.28419 0.49359 0.0
C45 C 0.86517 0.30317 0.51728 0.0
C46 C 0.90251 0.26584 0.48729 0.0
N47 N 0.90268 0.29181 0.51282 0.0
C48 C 0.7945 0.26746 0.40235 0.0
C49 C 0.84119 0.33235 0.39049 0.0
C50 C 0.80483 0.32976 0.37476 0.0
C51 C 0.78067 0.29755 0.3819 0.0
C52 C 0.85381 0.30167 0.41073 0.0
N53 N 0.8315 0.26875 0.41476 0.0
H54 H 0.77575 0.24283 0.40759 0.0
H55 H 0.88236 0.30368 0.42206 0.0
H56 H 0.8114 0.28645 0.49066 0.0
H57 H 0.92785 0.24925 0.47898 0.0
O58 O 0.80585 0.2109 0.46614 0.0
O59 O 0.86367 0.18125 0.4689 0.0
O60 O 0.90564 0.23108 0.41915 0.0
C61 C 0.82754 0.18358 0.47935 0.0
H62 H 0.85552 0.1104 0.35875 0.0
H63 H 0.85467 0.3227 0.53689 0.0
H64 H 0.8603 0.35721 0.38621 0.0
H65 H 0.75218 0.2946 0.37046 0.0
Co66 Co 0.73578 0.90153 0.38855 0.0
C67 C 0.81173 0.87404 0.35843 0.0
C68 C 0.78776 0.92355 0.33259 0.0
C69 C 0.82165 0.9124 0.31631 0.0
N70 N 0.78161 0.89977 0.3592 0.0
N71 N 0.83674 0.88119 0.33251 0.0
H72 H 0.81491 0.84997 0.37582 0.0
H73 H 0.76846 0.94697 0.32496 0.0
C74 C 0.7493 0.98508 0.40039 0.0
O75 O 0.76665 0.97352 0.42797 0.0
N76 N 0.68969 0.90372 0.41723 0.0
C77 C 0.66551 0.87371 0.42491 0.0
C78 C 0.64254 0.88431 0.45229 0.0
C79 C 0.68037 0.93227 0.43932 0.0
N80 N 0.65187 0.92131 0.46093 0.0
C81 C 0.71191 0.8584 0.33204 0.0
C82 C 0.66067 0.91348 0.30633 0.0
C83 C 0.67159 0.88106 0.28667 0.0
C84 C 0.69643 0.85272 0.30024 0.0
C85 C 0.67728 0.91828 0.3382 0.0
N86 N 0.70371 0.89159 0.34984 0.0
H87 H 0.73273 0.83735 0.34151 0.0
H88 H 0.67023 0.94412 0.35282 0.0
H89 H 0.66673 0.84505 0.41327 0.0
H90 H 0.69649 0.95913 0.44214 0.0
O91 O 0.74474 0.84766 0.40332 0.0
O92 O 0.76868 0.90059 0.42759 0.0
O93 O 0.73342 0.96008 0.38083 0.0
C94 C 0.76575 0.86279 0.42715 0.0
H95 H 0.83429 0.92658 0.29441 0.0
H96 H 0.62268 0.8655 0.46621 0.0
H97 H 0.64117 0.93567 0.29652 0.0
H98 H 0.70501 0.82711 0.28577 0.0
Co99 Co 0.06608 0.80052 0.34043 0.0
C100 C 0.10758 0.87536 0.32466 0.0
C101 C 0.04575 0.88379 0.32912 0.0
C102 C 0.0629 0.91959 0.32377 0.0
N103 N 0.07349 0.85554 0.3284 0.0
N104 N 0.10181 0.9143 0.32109 0.0
H105 H 0.1362 0.86229 0.32726 0.0
H106 H 0.0155 0.87975 0.33628 0.0
C107 C 0.98953 0.81819 0.30625 0.0
O108 O 0.00856 0.82981 0.27912 0.0
N109 N 0.05813 0.74675 0.35343 0.0
C110 C 0.08463 0.71745 0.35388 0.0
C111 C 0.06894 0.68653 0.37196 0.0
C112 C 0.02679 0.73331 0.37055 0.0
N113 N 0.03249 0.69665 0.38199 0.0
C114 C 0.11285 0.79368 0.2808 0.0
C115 C 0.06241 0.74598 0.24542 0.0
C116 C 0.09758 0.75793 0.23007 0.0
C117 C 0.12306 0.78178 0.2484 0.0
C118 C 0.05334 0.75863 0.27809 0.0
N119 N 0.07779 0.78346 0.29482 0.0
H120 H 0.13392 0.80994 0.295 0.0
H121 H 0.0267 0.74835 0.29001 0.0
H122 H 0.11416 0.71951 0.34396 0.0
H123 H 0.00183 0.75132 0.37738 0.0
O124 O 0.11833 0.79844 0.35913 0.0
O125 O 0.06441 0.81563 0.38707 0.0
O126 O 0.00827 0.80508 0.33152 0.0
C127 C 0.10205 0.8097 0.38733 0.0
H128 H 0.0483 0.94773 0.32541 0.0
H129 H 0.08393 0.65985 0.37902 0.0
H130 H 0.04228 0.7268 0.23249 0.0
H131 H 0.1515 0.78995 0.23837 0.0
Co132 Co 0.22125 0.8634 0.55411 0.0
C133 C 0.14607 0.82675 0.57572 0.0
C134 C 0.19098 0.81314 0.61094 0.0
C135 C 0.15688 0.79553 0.62162 0.0
N136 N 0.18446 0.8329 0.58194 0.0
N137 N 0.12879 0.80394 0.5993 0.0
H138 H 0.13054 0.83908 0.55467 0.0
H139 H 0.21815 0.81215 0.6245 0.0
C140 C 0.20669 0.9158 0.61452 0.0
O141 O 0.21177 0.88684 0.63571 0.0
N142 N 0.25712 0.89322 0.52672 0.0
C143 C 0.28987 0.88012 0.51125 0.0
C144 C 0.30713 0.91103 0.49446 0.0
C145 C 0.25474 0.93157 0.51931 0.0
N146 N 0.28503 0.94333 0.49974 0.0
C147 C 0.27453 0.80677 0.58132 0.0
C148 C 0.3195 0.86039 0.61599 0.0
C149 C 0.32605 0.82025 0.62135 0.0
C150 C 0.30397 0.79328 0.6026 0.0
C151 C 0.28905 0.87245 0.59539 0.0
N152 N 0.26552 0.84566 0.58012 0.0
H153 H 0.25696 0.78585 0.56769 0.0
H154 H 0.28412 0.90347 0.59199 0.0
H155 H 0.30032 0.85019 0.51205 0.0
H156 H 0.23061 0.95014 0.52715 0.0
O157 O 0.21952 0.82326 0.51906 0.0
O158 O 0.18047 0.87511 0.52312 0.0
O159 O 0.21216 0.91096 0.583 0.0
C160 C 0.19049 0.84361 0.50687 0.0
H161 H 0.15315 0.77766 0.64393 0.0
H162 H 0.33365 0.90976 0.47935 0.0
H163 H 0.33709 0.8825 0.62821 0.0
H164 H 0.30781 0.76198 0.60546 0.0
Co165 Co 0.07435 0.16297 0.62752 0.0
C166 C 0.11754 0.08783 0.63593 0.0
C167 C 0.05783 0.082 0.65172 0.0
C168 C 0.07584 0.04616 0.65489 0.0
N169 N 0.08429 0.10876 0.64093 0.0
N170 N 0.11338 0.04994 0.64492 0.0
H171 H 0.14396 0.09954 0.62463 0.0
H172 H 0.02683 0.08682 0.65482 0.0
C173 C 0.00985 0.15485 0.67945 0.0
O174 O 0.03572 0.14657 0.70268 0.0
N175 N 0.06401 0.21589 0.61329 0.0
C176 C 0.08997 0.24442 0.60578 0.0
C177 C 0.06979 0.27593 0.59269 0.0
C178 C 0.02879 0.23029 0.6052 0.0
N179 N 0.03139 0.26691 0.59287 0.0
C180 C 0.13582 0.1721 0.67461 0.0
C181 C 0.10331 0.2357 0.70793 0.0
C182 C 0.14184 0.22465 0.71433 0.0
C183 C 0.15779 0.19188 0.69834 0.0
C184 C 0.0819 0.21444 0.68448 0.0
N185 N 0.09851 0.18348 0.66767 0.0
H186 H 0.15019 0.14978 0.66004 0.0
H187 H 0.05284 0.22445 0.67822 0.0
H188 H 0.12137 0.24179 0.60817 0.0
H189 H 0.00208 0.21327 0.60582 0.0
O190 O 0.11984 0.16257 0.59855 0.0
O191 O 0.06 0.1444 0.58347 0.0
O192 O 0.02093 0.16145 0.6492 0.0
C193 C 0.09651 0.15025 0.57513 0.0
H194 H 0.0617 0.01885 0.66164 0.0
H195 H 0.08238 0.30249 0.58236 0.0
H196 H 0.09067 0.26155 0.71962 0.0
H197 H 0.18802 0.1835 0.70227 0.0
Co198 Co 0.7604 0.04575 0.63264 0.0
C199 C 0.82868 0.08787 0.66158 0.0
C200 C 0.83983 0.02654 0.65367 0.0
C201 C 0.87213 0.04279 0.66816 0.0
N202 N 0.81231 0.05454 0.64994 0.0
N203 N 0.86517 0.08119 0.67316 0.0
H204 H 0.81455 0.11628 0.66124 0.0
H205 H 0.83734 0.9964 0.64566 0.0
C206 C 0.74556 0.96003 0.65173 0.0
O207 O 0.70756 0.96385 0.65573 0.0
N208 N 0.70899 0.03536 0.61442 0.0
C209 C 0.67649 0.05798 0.61367 0.0
C210 C 0.65001 0.04136 0.59183 0.0
C211 C 0.70186 0.00588 0.59274 0.0
N212 N 0.66604 0.00839 0.57913 0.0
C213 C 0.72193 0.09359 0.68124 0.0
C214 C 0.7448 0.05182 0.73733 0.0
C215 C 0.72841 0.08918 0.74159 0.0
C216 C 0.71568 0.10943 0.71311 0.0
C217 C 0.75046 0.03684 0.70478 0.0
N218 N 0.73944 0.05793 0.67711 0.0
H219 H 0.71542 0.11177 0.65989 0.0
H220 H 0.76664 0.00987 0.70206 0.0
H221 H 0.67276 0.08588 0.62596 0.0
H222 H 0.72365 0.98443 0.58519 0.0
O223 O 0.7595 0.09774 0.61343 0.0
O224 O 0.78199 0.04473 0.58736 0.0
O225 O 0.76722 0.98883 0.64335 0.0
C226 C 0.77531 0.08229 0.58666 0.0
H227 H 0.89959 0.028 0.67295 0.0
H228 H 0.62207 0.05354 0.58455 0.0
H229 H 0.75551 0.03546 0.75872 0.0
H230 H 0.7026 0.13828 0.71528 0.0
Co231 Co 0.89296 0.74686 0.56251 0.0
C232 C 0.84672 0.80329 0.60507 0.0
C233 C 0.90493 0.82339 0.5945 0.0
C234 C 0.88576 0.8517 0.61284 0.0
N235 N 0.88112 0.7922 0.59066 0.0
N236 N 0.84919 0.83903 0.61949 0.0
H237 H 0.81978 0.78702 0.60349 0.0
H238 H 0.93367 0.82642 0.58319 0.0
C239 C 0.9672 0.75825 0.60171 0.0
O240 O 0.9467 0.76089 0.62983 0.0
N241 N 0.9051 0.703 0.53383 0.0
C242 C 0.88107 0.67397 0.52397 0.0
C243 C 0.89911 0.65372 0.49795 0.0
C244 C 0.93733 0.6998 0.51434 0.0
N245 N 0.93455 0.66994 0.49233 0.0
C246 C 0.8462 0.70938 0.61313 0.0
C247 C 0.90651 0.66787 0.64238 0.0
C248 C 0.87082 0.67174 0.65977 0.0
C249 C 0.83969 0.69064 0.64376 0.0
C250 C 0.91157 0.68702 0.61154 0.0
N251 N 0.88281 0.71083 0.59935 0.0
H252 H 0.82204 0.72365 0.601 0.0
H253 H 0.93935 0.68445 0.5985 0.0
H254 H 0.85155 0.66964 0.53335 0.0
H255 H 0.96073 0.72118 0.514 0.0
O256 O 0.84109 0.74998 0.54322 0.0
O257 O 0.89397 0.78105 0.52425 0.0
O258 O 0.95021 0.75141 0.5738 0.0
C259 C 0.85673 0.77415 0.52156 0.0
H260 H 0.89695 0.88053 0.61882 0.0
H261 H 0.8863 0.63062 0.48297 0.0
H262 H 0.93087 0.65215 0.65323 0.0
H263 H 0.81087 0.69203 0.65534 0.0
Co264 Co 0.75797 0.58924 0.8869 0.0
C265 C 0.69619 0.63203 0.84936 0.0
C266 C 0.70831 0.5758 0.82755 0.0
C267 C 0.67834 0.59293 0.81003 0.0
N268 N 0.71944 0.60017 0.85244 0.0
N269 N 0.67052 0.6282 0.8239 0.0
H270 H 0.69721 0.65721 0.86582 0.0
H271 H 0.72003 0.5469 0.8229 0.0
C272 C 0.77682 0.5027 0.88104 0.0
O273 O 0.81337 0.50867 0.88957 0.0
N274 N 0.79579 0.57829 0.92141 0.0
C275 C 0.83175 0.59323 0.92694 0.0
C276 C 0.84642 0.57662 0.95596 0.0
C277 C 0.78891 0.55368 0.94713 0.0
N278 N 0.81944 0.55144 0.96813 0.0
C279 C 0.81639 0.63295 0.85165 0.0
C280 C 0.82518 0.58149 0.79832 0.0
C281 C 0.84079 0.61924 0.79548 0.0
C282 C 0.83787 0.64445 0.82329 0.0
C283 C 0.80416 0.57106 0.82718 0.0
N284 N 0.79883 0.59707 0.85307 0.0
H285 H 0.81204 0.65396 0.87167 0.0
H286 H 0.78951 0.54326 0.82676 0.0
H287 H 0.84644 0.61477 0.91151 0.0
H288 H 0.76178 0.53769 0.95038 0.0
O289 O 0.75299 0.64222 0.90471 0.0
O290 O 0.71727 0.59137 0.92089 0.0
O291 O 0.75303 0.53131 0.87721 0.0
C292 C 0.72534 0.62835 0.92412 0.0
H293 H 0.66207 0.57934 0.78991 0.0
H294 H 0.87462 0.58241 0.9671 0.0
H295 H 0.82606 0.56125 0.77729 0.0
H296 H 0.84996 0.67377 0.82235 0.0
Co297 Co 0.44673 0.71401 0.84201 0.0
C298 C 0.41359 0.63531 0.82219 0.0
C299 C 0.47387 0.63327 0.83598 0.0
C300 C 0.46185 0.59586 0.8294 0.0
N301 N 0.44424 0.65855 0.83024 0.0
N302 N 0.42393 0.597 0.82064 0.0
H303 H 0.38387 0.64543 0.81984 0.0
H304 H 0.50181 0.64098 0.84662 0.0
C305 C 0.52191 0.69977 0.80495 0.0
O306 O 0.50124 0.68699 0.77946 0.0
N307 N 0.45115 0.76809 0.85542 0.0
C308 C 0.42297 0.7956 0.85832 0.0
C309 C 0.43807 0.82718 0.8758 0.0
C310 C 0.48275 0.78326 0.87048 0.0
N311 N 0.47577 0.81927 0.88303 0.0
C312 C 0.39883 0.71962 0.78342 0.0
C313 C 0.4449 0.77329 0.74919 0.0
C314 C 0.41028 0.76001 0.73461 0.0
C315 C 0.38712 0.73292 0.75197 0.0
C316 C 0.45602 0.75848 0.7805 0.0
N317 N 0.4336 0.73103 0.79679 0.0
H318 H 0.37877 0.70191 0.7977 0.0
H319 H 0.48221 0.76977 0.79205 0.0
H320 H 0.39296 0.79184 0.85053 0.0
H321 H 0.50915 0.76668 0.87529 0.0
O322 O 0.39451 0.71199 0.86123 0.0
O323 O 0.4491 0.69861 0.88877 0.0
O324 O 0.50456 0.7133 0.83116 0.0
C325 C 0.41107 0.70171 0.88923 0.0
H326 H 0.47896 0.56958 0.83338 0.0
H327 H 0.42197 0.85268 0.88445 0.0
H328 H 0.46265 0.79543 0.73686 0.0
H329 H 0.35915 0.7237 0.74207 0.0
Co330 Co 0.34229 0.37568 0.85663 0.0
C331 C 0.41382 0.32666 0.85327 0.0
C332 C 0.4097 0.36443 0.81039 0.0
C333 C 0.44445 0.34395 0.8083 0.0
N334 N 0.39081 0.35399 0.83895 0.0
N335 N 0.44711 0.32034 0.83548 0.0
H336 H 0.40663 0.31189 0.87651 0.0
H337 H 0.39951 0.38609 0.79265 0.0
C338 C 0.33352 0.45711 0.82664 0.0
O339 O 0.29611 0.45855 0.83439 0.0
N340 N 0.29366 0.39627 0.87481 0.0
C341 C 0.25663 0.38341 0.87032 0.0
C342 C 0.23154 0.40574 0.88995 0.0
C343 C 0.29075 0.42473 0.89813 0.0
N344 N 0.2534 0.43125 0.9074 0.0
C345 C 0.31404 0.31109 0.82051 0.0
C346 C 0.26578 0.35212 0.77761 0.0
C347 C 0.26153 0.31141 0.78052 0.0
C348 C 0.28763 0.29064 0.80083 0.0
C349 C 0.29315 0.37138 0.79739 0.0
N350 N 0.31484 0.35099 0.82012 0.0
H351 H 0.33247 0.29494 0.83756 0.0
H352 H 0.29441 0.40269 0.79597 0.0
H353 H 0.24821 0.35907 0.85457 0.0
H354 H 0.31541 0.44117 0.90757 0.0
O355 O 0.33785 0.33442 0.88989 0.0
O356 O 0.36883 0.39096 0.8971 0.0
O357 O 0.35333 0.42553 0.83052 0.0
C358 C 0.35744 0.35762 0.90958 0.0
H359 H 0.46671 0.34764 0.78899 0.0
H360 H 0.20004 0.40292 0.8919 0.0
H361 H 0.24656 0.36931 0.76189 0.0
H362 H 0.28658 0.25898 0.80263 0.0
Co363 Co 0.64577 0.26516 0.94026 0.0
C364 C 0.69477 0.32754 0.9065 0.0
C365 C 0.63366 0.33222 0.89609 0.0
C366 C 0.65214 0.36374 0.88206 0.0
N367 N 0.66027 0.30829 0.91035 0.0
N368 N 0.69063 0.36106 0.88852 0.0
H369 H 0.72163 0.31898 0.9186 0.0
H370 H 0.60229 0.32935 0.89841 0.0
C371 C 0.59052 0.25564 0.88269 0.0
O372 O 0.6209 0.25443 0.86212 0.0
N373 N 0.62947 0.22427 0.97073 0.0
C374 C 0.65159 0.2015 -0.00926 0.0
C375 C 0.627 0.18113 0.01235 0.0
C376 C 0.59221 0.2173 0.97999 0.0
N377 N 0.58976 0.19096 0.00512 0.0
C378 C 0.70934 0.23073 0.90108 0.0
C379 C 0.66677 0.16602 0.88089 0.0
C380 C 0.70351 0.17274 0.86609 0.0
C381 C 0.72559 0.20475 0.87748 0.0
C382 C 0.65172 0.19265 0.90422 0.0
N383 N 0.67184 0.2259 0.91236 0.0
H384 H 0.72665 0.25498 0.90969 0.0
H385 H 0.6226 0.18768 0.91419 0.0
H386 H 0.68325 0.20138 -0.00912 0.0
H387 H 0.56746 0.23356 0.97044 0.0
O388 O 0.6876 0.2789 0.97081 0.0
O389 O 0.62738 0.30351 0.97209 0.0
O390 O 0.59562 0.25833 0.91449 0.0
C391 C 0.66214 0.30232 0.98507 0.0
H392 H 0.63766 0.38866 0.8708 0.0
H393 H 0.63577 0.16215 0.03278 0.0
H394 H 0.64857 0.14177 0.87306 0.0
H395 H 0.75473 0.21026 0.8676 0.0
Co396 Co 0.70366 0.43363 0.14933 0.0
C397 C 0.63579 0.38245 0.16598 0.0
C398 C 0.63086 0.43843 0.19013 0.0
C399 C 0.59812 0.41677 0.19806 0.0
N400 N 0.65447 0.41703 0.16977 0.0
N401 N 0.60114 0.38166 0.18268 0.0
H402 H 0.64667 0.35852 0.1507 0.0
H403 H 0.63619 0.46821 0.19805 0.0
C404 C 0.70917 0.52131 0.16007 0.0
O405 O 0.74748 0.51994 0.16124 0.0
N406 N 0.75313 0.4499 0.129 0.0
C407 C 0.7896 0.45088 0.14214 0.0
C408 C 0.8154 0.46515 0.1182 0.0
C409 C 0.75759 0.46329 0.09732 0.0
N410 N 0.79503 0.47234 0.09012 0.0
C411 C 0.75035 0.3936 0.19679 0.0
C412 C 0.73511 0.44218 0.25122 0.0
C413 C 0.75818 0.40874 0.25559 0.0
C414 C 0.76611 0.38453 0.22792 0.0
C415 C 0.7205 0.45071 0.21934 0.0
N416 N 0.72822 0.42651 0.19261 0.0
H417 H 0.75625 0.37422 0.17587 0.0
H418 H 0.70195 0.47603 0.21677 0.0
H419 H 0.79732 0.44338 0.16759 0.0
H420 H 0.73383 0.46742 0.07988 0.0
O421 O 0.71185 0.38185 0.12967 0.0
O422 O 0.68002 0.43068 0.10552 0.0
O423 O 0.68886 0.48996 0.15823 0.0
C424 C 0.6929 0.39493 0.10367 0.0
H425 H 0.57299 0.42703 0.21237 0.0
H426 H 0.8465 0.46996 0.12114 0.0
H427 H 0.72805 0.46119 0.27229 0.0
H428 H 0.78327 0.35799 0.23059 0.0
Co429 Co 0.60231 0.75419 0.05962 0.0
C430 C 0.63325 0.68948 0.1043 0.0
C431 C 0.57458 0.68057 0.08754 0.0
C432 C 0.58553 0.64848 0.10578 0.0
N433 N 0.60383 0.70711 0.08735 0.0
N434 N 0.62242 0.65395 0.11643 0.0
H435 H 0.66249 0.70097 0.10625 0.0
H436 H 0.54763 0.68333 0.0737 0.0
C437 C 0.52694 0.75607 0.09841 0.0
O438 O 0.54716 0.75158 0.12614 0.0
N439 N 0.59896 0.79948 0.03093 0.0
C440 C 0.62761 0.82395 0.02064 0.0
C441 C 0.61302 0.84743 -0.00473 0.0
C442 C 0.5676 0.80858 0.01236 0.0
N443 N 0.57517 0.8378 -0.0095 0.0
C444 C 0.65128 0.78372 0.11197 0.0
C445 C 0.60037 0.84126 0.13468 0.0
C446 C 0.63458 0.83385 0.15277 0.0
C447 C 0.66084 0.80554 0.14037 0.0
C448 C 0.59214 0.8188 0.10618 0.0
N449 N 0.616 0.78836 0.09685 0.0
H450 H 0.67238 0.76316 0.10212 0.0
H451 H 0.56601 0.82527 0.09213 0.0
H452 H 0.65749 0.82304 0.02934 0.0
H453 H 0.5408 0.79167 0.01253 0.0
O454 O 0.65422 0.74294 0.04207 0.0
O455 O 0.59881 0.72057 0.02066 0.0
O456 O 0.54458 0.75909 0.06999 0.0
C457 C 0.63688 0.72185 0.01934 0.0
H458 H 0.56852 0.62197 0.10891 0.0
H459 H 0.62947 0.86821 0.98018 0.0
H460 H 0.58007 0.86396 0.14259 0.0
H461 H 0.68811 0.79937 0.15301 0.0
Co462 Co 0.28365 0.64016 0.05213 0.0
C463 C 0.34514 0.69534 0.07538 0.0
C464 C 0.32491 0.65782 0.11507 0.0
C465 C 0.35595 0.67934 0.12669 0.0
N466 N 0.3183 0.66748 0.0827 0.0
N467 N 0.36903 0.70266 0.10158 0.0
H468 H 0.34836 0.70887 0.05098 0.0
H469 H 0.31008 0.6349 0.12888 0.0
C470 C 0.26883 0.56052 0.08355 0.0
O471 O 0.23288 0.55952 0.07218 0.0
N472 N 0.24954 0.61263 0.02172 0.0
C473 C 0.21231 0.62006 0.01253 0.0
C474 C 0.19992 0.59017 -0.00825 0.0
C475 C 0.25948 0.57926 0.00587 0.0
N476 N 0.22959 0.56439 0.98816 0.0
C477 C 0.21997 0.69218 0.06786 0.0
C478 C 0.19863 0.65777 0.12822 0.0
C479 C 0.17848 0.69121 0.11766 0.0
C480 C 0.18937 0.70847 0.08694 0.0
C481 C 0.22891 0.6426 0.10857 0.0
N482 N 0.23907 0.65928 0.07846 0.0
H483 H 0.22832 0.70614 0.04449 0.0
H484 H 0.24492 0.61853 0.11896 0.0
H485 H 0.19484 0.64475 0.02057 0.0
H486 H 0.2879 0.56554 0.00818 0.0
O487 O 0.28889 0.68159 0.01848 0.0
O488 O 0.32722 0.62946 0.02242 0.0
O489 O 0.29017 0.59103 0.07986 0.0
C490 C 0.31841 0.66141 0.00656 0.0
H491 H 0.36966 0.67559 0.15092 0.0
H492 H 0.17111 0.58707 0.98098 0.0
H493 H 0.19249 0.64442 0.15245 0.0
H494 H 0.17483 0.73463 0.07798 0.0
Co495 Co 0.39989 0.31382 0.10345 0.0
C496 C 0.35566 0.3885 0.11095 0.0
C497 C 0.41769 0.39585 0.11671 0.0
C498 C 0.40017 0.43188 0.11937 0.0
N499 N 0.38986 0.36866 0.11164 0.0
N500 N 0.36118 0.42741 0.11574 0.0
H501 H 0.32765 0.37485 0.10632 0.0
H502 H 0.44882 0.39022 0.11712 0.0
C503 C 0.46337 0.29807 0.1545 0.0
O504 O 0.44561 0.26695 0.16665 0.0
N505 N 0.41182 0.25904 0.09447 0.0
C506 C 0.38881 0.23092 0.0811 0.0
C507 C 0.41209 0.2005 0.06973 0.0
C508 C 0.44858 0.2454 0.09025 0.0
N509 N 0.44966 0.20976 0.07573 0.0
C510 C 0.33465 0.27883 0.13719 0.0
C511 C 0.35083 0.30692 0.20082 0.0
C512 C 0.31863 0.28201 0.1965 0.0
C513 C 0.31031 0.26852 0.16403 0.0
C514 C 0.3745 0.31648 0.17312 0.0
N515 N 0.36741 0.30072 0.14214 0.0
H516 H 0.32662 0.26965 0.11232 0.0
H517 H 0.39841 0.33672 0.17661 0.0
H518 H 0.358 0.23376 0.07601 0.0
H519 H 0.47432 0.26332 0.09345 0.0
O520 O 0.36044 0.31316 0.06896 0.0
O521 O 0.42333 0.32728 0.06083 0.0
O522 O 0.4485 0.31847 0.13102 0.0
C523 C 0.38855 0.32311 0.0483 0.0
H524 H 0.41537 0.45952 0.12191 0.0
H525 H 0.40245 0.1754 0.05533 0.0
H526 H 0.35753 0.31913 0.22528 0.0
H527 H 0.28552 0.2496 0.15933 0.0
C528 C 0.14489 0.01451 0.31871 0.0
C529 C 0.17184 0.01164 0.34506 0.0
H530 H 0.10075 0.9848 0.29041 0.0
C531 C 0.18159 0.97432 0.3575 0.0
H532 H 0.13751 0.04267 0.30795 0.0
C533 C 0.16102 0.94125 0.34709 0.0
C534 C 0.13027 0.94503 0.32416 0.0
H535 H 0.20283 0.97104 0.37739 0.0
H536 H 0.16669 0.91355 0.3594 0.0
C537 C 0.12388 0.98145 0.30864 0.0
C538 C 0.00145 0.19745 0.33973 0.0
C539 C 0.02979 0.19415 0.36495 0.0
H540 H 0.94335 0.21537 0.32726 0.0
C541 C 0.02276 0.21177 0.3964 0.0
H542 H 0.00645 0.18429 0.31523 0.0
C543 C 0.98654 0.22918 0.40347 0.0
C544 C 0.95703 0.22976 0.37903 0.0
H545 H 0.04406 0.20943 0.4163 0.0
H546 H 0.98086 0.24018 0.42866 0.0
C547 C 0.96549 0.21544 0.34659 0.0
C548 C 0.76346 0.03938 0.36017 0.0
C549 C 0.75092 0.02698 0.39215 0.0
H550 H 0.79075 0.08558 0.33179 0.0
C551 C 0.74833 0.05429 0.41852 0.0
H552 H 0.76585 0.01872 0.33953 0.0
C553 C 0.76203 0.09238 0.41404 0.0
C554 C 0.77915 0.10359 0.38321 0.0
H555 H 0.73863 0.04527 0.44341 0.0
H556 H 0.76292 0.11156 0.43575 0.0
C557 C 0.77779 0.07748 0.3558 0.0
C558 C 0.89018 0.86426 0.29231 0.0
C559 C 0.8729 0.86106 0.32455 0.0
H560 H 0.94032 0.85283 0.261 0.0
C561 C 0.89262 0.83953 0.34935 0.0
H562 H 0.8755 0.8797 0.27228 0.0
C563 C 0.92952 0.82351 0.34266 0.0
C564 C 0.9478 0.82888 0.31108 0.0
H565 H 0.88049 0.83645 0.37447 0.0
H566 H 0.94442 0.80847 0.36285 0.0
C567 C 0.92725 0.84846 0.28568 0.0
C568 C 0.16698 0.01889 0.61241 0.0
C569 C 0.14113 0.01864 0.64014 0.0
H570 H 0.20845 0.9865 0.58278 0.0
C571 C 0.14088 0.98609 0.66181 0.0
H572 H 0.16768 0.04344 0.59517 0.0
C573 C 0.16452 0.95352 0.65491 0.0
C574 C 0.18838 0.95277 0.6259 0.0
H575 H 0.12156 0.98544 0.68359 0.0
H576 H 0.16237 0.92815 0.6712 0.0
C577 C 0.19022 0.9862 0.60527 0.0
C578 C 0.90344 0.14015 0.66044 0.0
C579 C 0.89475 0.10891 0.68213 0.0
H580 H 0.94747 0.17993 0.64283 0.0
C581 C 0.92089 0.09962 0.70801 0.0
H582 H 0.88374 0.14761 0.64022 0.0
C583 C 0.95725 0.11808 0.7097 0.0
C584 C 0.96811 0.14565 0.68514 0.0
H585 H 0.91449 0.07563 0.72503 0.0
H586 H 0.97811 0.10785 0.72809 0.0
C587 C 0.94002 0.15832 0.66181 0.0
C588 C 0.78065 0.86281 0.62023 0.0
C589 C 0.81834 0.86235 0.63421 0.0
H590 H 0.72665 0.89474 0.61567 0.0
C591 C 0.82725 0.88909 0.65986 0.0
H592 H 0.77313 0.84258 0.6003 0.0
C593 C 0.80074 0.91844 0.66877 0.0
C594 C 0.76478 0.92155 0.65225 0.0
H595 H 0.85585 0.88889 0.67136 0.0
H596 H 0.80974 0.94077 0.68651 0.0
C597 C 0.75395 0.8924 0.62919 0.0
C598 C 0.02956 0.77249 0.5706 0.0
C599 C 0.00948 0.76754 0.60141 0.0
H600 H 0.08326 0.78798 0.54586 0.0
C601 C 0.02972 0.77364 0.6316 0.0
H602 H 0.01491 0.76803 0.54684 0.0
C603 C 0.06904 0.78505 0.63094 0.0
C604 C 0.08872 0.79098 0.60011 0.0
H605 H 0.01509 0.77011 0.65573 0.0
H606 H 0.08376 0.79021 0.65455 0.0
C607 C 0.06866 0.78427 0.56997 0.0
C608 C 0.77089 0.43414 0.90279 0.0
C609 C 0.76135 0.46256 0.87861 0.0
H610 H 0.75525 0.37919 0.92541 0.0
C611 C 0.73267 0.45412 0.85475 0.0
H612 H 0.79297 0.44011 0.92149 0.0
C613 C 0.7119 0.41906 0.85641 0.0
C614 C 0.71846 0.39215 0.8826 0.0
H615 H 0.72521 0.47532 0.83556 0.0
H616 H 0.68917 0.41397 0.83814 0.0
C617 C 0.74937 0.39922 0.90496 0.0
C618 C 0.58394 0.69403 0.83756 0.0
C619 C 0.56379 0.689 0.80715 0.0
H620 H 0.63342 0.67829 0.86696 0.0
C621 C 0.58224 0.66854 0.78069 0.0
H622 H 0.57069 0.70983 0.85844 0.0
C623 C 0.61856 0.65064 0.78551 0.0
C624 C 0.63712 0.6527 0.81691 0.0
H625 H 0.56776 0.66453 0.75679 0.0
H626 H 0.63132 0.63381 0.76506 0.0
C627 C 0.62014 0.67598 0.84243 0.0
C628 C 0.33695 0.5303 0.82577 0.0
C629 C 0.35437 0.49385 0.81845 0.0
H630 H 0.3455 0.59181 0.8327 0.0
C631 C 0.39352 0.49283 0.80746 0.0
H632 H 0.30679 0.5321 0.83433 0.0
C633 C 0.41557 0.52719 0.80616 0.0
C634 C 0.39915 0.56324 0.81623 0.0
H635 H 0.40765 0.46528 0.80122 0.0
H636 H 0.446 0.52526 0.79848 0.0
C637 C 0.35917 0.56467 0.82479 0.0
C638 C 0.51123 0.28875 0.82335 0.0
C639 C 0.48073 0.29793 0.84612 0.0
H640 H 0.56984 0.26751 0.81688 0.0
C641 C 0.48503 0.2874 0.88019 0.0
H642 H 0.50873 0.29547 0.79684 0.0
C643 C 0.51975 0.27078 0.89153 0.0
C644 C 0.5513 0.26455 0.86924 0.0
H645 H 0.4626 0.29382 0.89876 0.0
H646 H 0.52254 0.26489 0.91821 0.0
C647 C 0.54619 0.27229 0.8348 0.0
C648 C 0.62785 0.59508 0.15206 0.0
C649 C 0.64602 0.62471 0.1329 0.0
H650 H 0.63368 0.53923 0.17591 0.0
C651 C 0.68674 0.6228 0.12749 0.0
H652 H 0.59678 0.5962 0.15757 0.0
C653 C 0.70813 0.59035 0.13872 0.0
C654 C 0.68907 0.5592 0.15524 0.0
H655 H 0.7017 0.64502 0.11284 0.0
H656 H 0.739 0.58846 0.13241 0.0
C657 C 0.64903 0.56255 0.16284 0.0
C658 C 0.464 0.74587 0.12997 0.0
C659 C 0.48413 0.74998 0.09918 0.0
H660 H 0.41095 0.72891 0.15488 0.0
C661 C 0.46384 0.74376 0.06906 0.0
H662 H 0.47867 0.75105 0.15362 0.0
C663 C 0.42526 0.73042 0.06976 0.0
C664 C 0.40591 0.72332 0.10063 0.0
H665 H 0.47841 0.7469 0.04485 0.0
H666 H 0.41175 0.72349 0.04599 0.0
C667 C 0.42522 0.73291 0.13068 0.0
C668 C 0.27651 0.48762 0.08546 0.0
C669 C 0.287 0.5249 0.09742 0.0
H670 H 0.29241 0.42703 0.08153 0.0
C671 C 0.31876 0.52836 0.1193 0.0
H672 H 0.25219 0.48422 0.06842 0.0
C673 C 0.34133 0.49566 0.12723 0.0
C674 C 0.33317 0.45888 0.11291 0.0
H675 H 0.32716 0.55669 0.12923 0.0
H676 H 0.36624 0.4996 0.14349 0.0
C677 C 0.29956 0.45485 0.093 0.0
C678 C 0.50678 0.32794 0.19724 0.0
C679 C 0.50227 0.30962 0.16594 0.0
H680 H 0.54271 0.36532 0.22739 0.0
C681 C 0.53299 0.3107 0.1423 0.0
H682 H 0.48303 0.32796 0.21553 0.0
C683 C 0.56682 0.33202 0.14886 0.0
C684 C 0.57029 0.35323 0.17904 0.0
H685 H 0.52978 0.29721 0.11778 0.0
H686 H 0.58877 0.33428 0.12913 0.0
C687 C 0.54062 0.34968 0.20375 0.0
C688 C 0.10608 0.11497 0.48535 0.0
C689 C 0.13603 0.13936 0.47301 0.0
H690 H 0.06946 0.09983 0.52758 0.0
C691 C 0.15309 0.167 0.49447 0.0
H692 H 0.0925 0.09346 0.46914 0.0
C693 C 0.14073 0.16982 0.528 0.0
C694 C 0.11041 0.14581 0.54024 0.0
H695 H 0.17641 0.18591 0.48551 0.0
H696 H 0.15439 0.1913 0.5442 0.0
C697 C 0.09292 0.11859 0.51863 0.0
C698 C 0.82953 0.11959 0.5097 0.0
C699 C 0.81222 0.15658 0.50524 0.0
H700 H 0.83071 0.06657 0.53863 0.0
C701 C 0.78122 0.16802 0.52651 0.0
H702 H 0.85332 0.10998 0.49342 0.0
C703 C 0.76882 0.14353 0.55274 0.0
C704 C 0.78657 0.1068 0.55757 0.0
H705 H 0.76743 0.19641 0.52359 0.0
H706 H 0.74554 0.15347 0.56941 0.0
C707 C 0.81649 0.0947 0.53541 0.0
C708 C 0.79746 0.78059 0.485 0.0
C709 C 0.83323 0.79542 0.49664 0.0
H710 H 0.74801 0.79016 0.45283 0.0
C711 C 0.84653 0.83185 0.48489 0.0
H712 H 0.78669 0.75249 0.49373 0.0
C713 C 0.82422 0.85352 0.46245 0.0
C714 C 0.78858 0.83884 0.45064 0.0
H715 H 0.87388 0.84409 0.4936 0.0
H716 H 0.83511 0.88175 0.4541 0.0
C717 C 0.77549 0.80197 0.46166 0.0
C718 C 0.10799 0.83732 0.44497 0.0
C719 C 0.12494 0.81633 0.41818 0.0
H720 H 0.11555 0.86224 0.49372 0.0
C721 C 0.16355 0.80236 0.42128 0.0
H722 H 0.07834 0.84842 0.44342 0.0
C723 C 0.18489 0.80977 0.45067 0.0
C724 C 0.16809 0.83188 0.47692 0.0
H725 H 0.17724 0.78588 0.40102 0.0
H726 H 0.21475 0.79929 0.45242 0.0
C727 C 0.12939 0.84527 0.47382 0.0
C728 C 0.71921 0.68716 0.96177 0.0
C729 C 0.70271 0.65333 0.94764 0.0
H730 H 0.71141 0.73517 -0.00377 0.0
C731 C 0.66421 0.64293 0.95653 0.0
H732 H 0.74888 0.69574 0.95533 0.0
C733 C 0.64257 0.66583 0.97919 0.0
C734 C 0.65933 0.69907 -0.00594 0.0
H735 H 0.65069 0.61712 0.94581 0.0
H736 H 0.61299 0.65697 0.98566 0.0
C737 C 0.69786 0.70958 0.98518 0.0
C738 C 0.4039 0.67123 0.94609 0.0
C739 C 0.3877 0.69334 0.91992 0.0
H740 H 0.39443 0.64369 -0.00614 0.0
C741 C 0.34881 0.70662 0.9231 0.0
H742 H 0.43376 0.66063 0.94438 0.0
C743 C 0.32641 0.69751 0.95183 0.0
C744 C 0.34232 0.67424 0.97741 0.0
H745 H 0.33566 0.72396 0.90335 0.0
H746 H 0.2964 0.70764 0.95356 0.0
C747 C 0.38133 0.66145 0.97436 0.0
C748 C 0.34151 0.32174 0.96264 0.0
C749 C 0.36634 0.34694 0.94448 0.0
H750 H 0.32878 0.29492 0.01034 0.0
C751 C 0.39903 0.36324 0.96032 0.0
H752 H 0.31601 0.309 0.9509 0.0
C753 C 0.40672 0.35465 -0.00607 0.0
C754 C 0.38129 0.33039 0.01244 0.0
H755 H 0.41867 0.38264 0.94672 0.0
H756 H 0.43203 0.36778 0.00565 0.0
C757 C 0.34867 0.31389 -0.00343 0.0
C758 C 0.70192 0.31576 0.03673 0.0
C759 C 0.6714 0.32618 0.01499 0.0
H760 H 0.73225 0.32901 0.08252 0.0
C761 C 0.64832 0.35912 0.0227 0.0
H762 H 0.71996 0.29032 0.03145 0.0
C763 C 0.65561 0.38136 0.05144 0.0
C764 C 0.68567 0.37075 0.0735 0.0
H765 H 0.62463 0.36788 0.0064 0.0
H766 H 0.63732 0.40667 0.05657 0.0
C767 C 0.70874 0.33768 0.066 0.0
C768 C 0.29056 0.2405 0.28168 0.0
C769 C 0.25029 0.23383 0.27775 0.0
H770 H 0.34382 0.26063 0.25891 0.0
C771 C 0.23197 0.24653 0.24821 0.0
H772 H 0.3055 0.23063 0.30408 0.0
C773 C 0.25384 0.264 0.22245 0.0
C774 C 0.29454 0.26878 0.22559 0.0
H775 H 0.20084 0.24228 0.24479 0.0
H776 H 0.239 0.27299 0.19975 0.0
C777 C 0.3125 0.25774 0.25583 0.0
C778 C 0.81082 0.38574 0.29344 0.0
C779 C 0.77168 0.39679 0.2891 0.0
H780 H 0.852 0.35596 0.32431 0.0
C781 C 0.74452 0.39086 0.31535 0.0
H782 H 0.8322 0.39019 0.27345 0.0
C783 C 0.75575 0.37112 0.3445 0.0
C784 C 0.79435 0.3575 0.3478 0.0
H785 H 0.71409 0.39904 0.31237 0.0
H786 H 0.73391 0.3649 0.36373 0.0
C787 C 0.82212 0.36639 0.32261 0.0
C788 C 0.68944 0.87622 0.22625 0.0
C789 C 0.66011 0.87728 0.25121 0.0
H790 H 0.7041 0.86292 0.17508 0.0
C791 C 0.62125 0.86939 0.24254 0.0
H792 H 0.7196 0.8825 0.23252 0.0
C793 C 0.61237 0.8576 0.20971 0.0
C794 C 0.64229 0.85372 0.18526 0.0
H795 H 0.59832 0.86987 0.26158 0.0
H796 H 0.5826 0.8491 0.20413 0.0
C797 C 0.6806 0.86478 0.19353 0.0
C798 C 0.13162 0.76672 0.17441 0.0
C799 C 0.11016 0.74273 0.19669 0.0
H800 H 0.17021 0.76919 0.13178 0.0
C801 C 0.10543 0.7029 0.18879 0.0
H802 H 0.13503 0.79774 0.17944 0.0
C803 C 0.12495 0.68669 0.16105 0.0
C804 C 0.14981 0.70992 0.14089 0.0
H805 H 0.08906 0.6836 0.20535 0.0
H806 H 0.12253 0.65545 0.15663 0.0
C807 C 0.15138 0.75046 0.14682 0.0
C808 C 0.37822 0.81501 0.70516 0.0
C809 C 0.39518 0.77772 0.70363 0.0
H810 H 0.34219 0.85713 0.68107 0.0
C811 C 0.39262 0.75566 0.67396 0.0
H812 H 0.37939 0.8321 0.72815 0.0
C813 C 0.37217 0.77033 0.64635 0.0
C814 C 0.353 0.80688 0.64835 0.0
H815 H 0.40545 0.72664 0.67254 0.0
H816 H 0.37053 0.75249 0.62386 0.0
C817 C 0.35707 0.82933 0.67796 0.0
C818 C 0.21627 0.30182 0.73199 0.0
C819 C 0.22869 0.2909 0.76427 0.0
H820 H 0.17771 0.2893 0.69116 0.0
C821 C 0.20926 0.26024 0.78128 0.0
H822 H 0.23079 0.32507 0.71817 0.0
C823 C 0.17932 0.23968 0.76565 0.0
C824 C 0.16788 0.25011 0.7332 0.0
H825 H 0.21744 0.25182 0.80654 0.0
H826 H 0.1658 0.21507 0.77847 0.0
C827 C 0.18593 0.28158 0.71661 0.0
C828 C 0.70759 0.10897 0.83409 0.0
C829 C 0.71612 0.14928 0.83634 0.0
H830 H 0.70468 0.05821 0.80222 0.0
C831 C 0.73238 0.1683 0.80815 0.0
H832 H 0.69552 0.09333 0.85552 0.0
C833 C 0.73773 0.1482 0.77789 0.0
C834 C 0.72685 0.10862 0.77499 0.0
H835 H 0.73902 0.19932 0.80883 0.0
H836 H 0.7494 0.16402 0.75638 0.0
C837 C 0.71299 0.08879 0.80368 0.0
C838 C 0.87432 0.61006 0.73921 0.0
C839 C 0.85364 0.6341 0.76209 0.0
H840 H 0.89582 0.60292 0.68859 0.0
C841 C 0.84091 0.67119 0.75144 0.0
H842 H 0.88466 0.58139 0.74677 0.0
C843 C 0.84729 0.68337 0.71843 0.0
C844 C 0.86639 0.65875 0.69514 0.0
H845 H 0.82436 0.69025 0.76814 0.0
H846 H 0.83668 0.712 0.71098 0.0
C847 C 0.88077 0.62236 0.706 0.0
C848 C 0.30352 0.02013 0.43456 0.0
C849 C 0.28467 0.05274 0.44922 0.0
H850 H 0.31809 0.95947 0.43916 0.0
C851 C 0.27186 0.05023 0.48289 0.0
H852 H 0.31349 0.02077 0.40862 0.0
C853 C 0.27413 0.01479 0.50029 0.0
C854 C 0.28958 0.98126 0.48445 0.0
H855 H 0.25782 0.07505 0.49501 0.0
H856 H 0.2622 0.01316 0.52562 0.0
C857 C 0.30599 0.98476 0.45204 0.0
C858 C 0.93015 0.29306 0.56956 0.0
C859 C 0.93505 0.29814 0.53474 0.0
H860 H 0.95838 0.27894 0.61595 0.0
C861 C 0.97294 0.30166 0.52108 0.0
H862 H 0.90116 0.28998 0.58051 0.0
C863 C 0.00554 0.29603 0.54138 0.0
C864 C 0.00043 0.28612 0.57539 0.0
H865 H 0.97715 0.30567 0.49423 0.0
H866 H 0.03438 0.29531 0.52982 0.0
C867 C 0.96272 0.28671 0.58973 0.0
C868 C 0.65351 0.9222 0.52263 0.0
C869 C 0.64421 0.94086 0.49227 0.0
H870 H 0.66818 0.92987 0.57464 0.0
C871 C 0.63593 0.98118 0.49238 0.0
H872 H 0.66073 0.89128 0.52291 0.0
C873 C 0.6396 0.00307 0.52194 0.0
C874 C 0.65255 0.98501 0.55155 0.0
H875 H 0.62927 0.99606 0.46905 0.0
H876 H 0.63564 0.03454 0.52098 0.0
C877 C 0.65807 0.94422 0.552 0.0
C878 C 0.94365 0.66883 0.43099 0.0
C879 C 0.95942 0.66529 0.46333 0.0
H880 H 0.9555 0.68208 0.37905 0.0
C881 C 0.00021 0.66507 0.46718 0.0
H882 H 0.91224 0.66972 0.42763 0.0
C883 C 0.02485 0.67124 0.4394 0.0
C884 C 0.00887 0.67865 0.40764 0.0
H885 H 0.01276 0.66276 0.49204 0.0
H886 H 0.05607 0.67387 0.44326 0.0
C887 C 0.96824 0.67597 0.40336 0.0
C888 C 0.83806 0.54172 0.02749 0.0
C889 C 0.82083 0.52769 -0.00214 0.0
H890 H 0.84316 0.53431 0.08104 0.0
C891 C 0.80068 0.49187 -0.00148 0.0
H892 H 0.85371 0.56929 0.02753 0.0
C893 C 0.79453 0.47234 0.02875 0.0
C894 C 0.80877 0.488 0.05881 0.0
H895 H 0.78798 0.47997 0.97584 0.0
H896 H 0.77699 0.4459 0.02899 0.0
C897 C 0.83208 0.52184 0.05794 0.0
C898 C 0.48493 0.84588 0.93982 0.0
C899 C 0.50013 0.83768 0.90763 0.0
H900 H 0.49793 0.85256 -0.00778 0.0
C901 C 0.54084 0.83882 0.90233 0.0
H902 H 0.45368 0.84474 0.94455 0.0
C903 C 0.56609 0.84372 0.92947 0.0
C904 C 0.55086 0.84689 0.9623 0.0
H905 H 0.55305 0.83241 0.87765 0.0
H906 H 0.59732 0.84077 0.92524 0.0
C907 C 0.51017 0.85015 0.96703 0.0
C908 C 0.20806 0.52264 0.94094 0.0
C909 C 0.22994 0.52774 0.97041 0.0
H910 H 0.19841 0.48657 0.89738 0.0
C911 C 0.25474 0.49745 0.98115 0.0
H912 H 0.18868 0.54552 0.9322 0.0
C913 C 0.26037 0.46437 0.96131 0.0
C914 C 0.24083 0.46063 0.9307 0.0
H915 H 0.27099 0.49994 0.00431 0.0
H916 H 0.28134 0.44238 0.96905 0.0
C917 C 0.21344 0.48907 0.92117 0.0
C918 C 0.51913 0.17872 0.0083 0.0
C919 C 0.555 0.18384 0.02469 0.0
H920 H 0.45671 0.18222 0.01223 0.0
C921 C 0.55519 0.18971 0.05965 0.0
H922 H 0.5185 0.17423 0.9813 0.0
C923 C 0.51993 0.19471 0.07726 0.0
C924 C 0.4841 0.19329 0.06024 0.0
H925 H 0.58251 0.19414 0.0727 0.0
H926 H 0.52064 0.20263 0.10367 0.0
C927 C 0.48389 0.18309 0.026 0.0
loop_
_geom_bond_atom_site_label_1
_geom_bond_atom_site_label_2
_geom_bond_distance
_geom_bond_site_symmetry_2
_ccdc_geom_bond_type
Co0 N4 2.148 . S
Co0 N10 2.128 . S
Co0 N20 2.194 . S
Co0 O25 2.351 . S
Co0 O26 2.155 . S
Co0 O27 2.096 . S
C1 N4 1.301 . S
C1 N5 1.328 . S
C1 H6 0.930 . S
C2 C3 1.333 . S
C2 N4 1.317 . S
C2 H7 0.930 . S
C3 C2 1.333 . S
C3 N5 1.350 . S
C3 H29 0.931 . S
N4 Co0 2.148 . S
N4 C1 1.301 . S
N4 C2 1.317 . S
N5 C1 1.328 . S
N5 C3 1.350 . S
H6 C1 0.930 . S
H7 C2 0.930 . S
C8 O9 1.224 . S
C8 O27 1.247 . S
O9 C8 1.224 . S
N10 Co0 2.128 . S
N10 C11 1.355 . S
N10 C13 1.311 . S
C11 N10 1.355 . S
C11 C12 1.363 . S
C11 H23 0.929 . S
C12 C11 1.363 . S
C12 N14 1.375 . S
C12 H30 0.931 . S
C13 N10 1.311 . S
C13 N14 1.347 . S
C13 H24 0.929 . S
N14 C12 1.375 . S
N14 C13 1.347 . S
C15 C18 1.365 . S
C15 N20 1.328 . S
C15 H21 0.929 . S
C16 C17 1.362 . S
C16 C19 1.378 . S
C16 H31 0.929 . S
C17 C16 1.362 . S
C17 C18 1.366 . S
C18 C15 1.365 . S
C18 C17 1.366 . S
C18 H32 0.930 . S
C19 C16 1.378 . S
C19 N20 1.315 . S
C19 H22 0.930 . S
N20 Co0 2.194 . S
N20 C15 1.328 . S
N20 C19 1.315 . S
H21 C15 0.929 . S
H22 C19 0.930 . S
H23 C11 0.929 . S
H24 C13 0.929 . S
O25 Co0 2.351 . S
O25 C28 1.244 . S
O26 Co0 2.155 . S
O26 C28 1.240 . S
O27 Co0 2.096 . S
O27 C8 1.247 . S
C28 O25 1.244 . S
C28 O26 1.240 . S
H29 C3 0.931 . S
H30 C12 0.931 . S
H31 C16 0.929 . S
H32 C18 0.930 . S
Co33 N37 2.148 . S
Co33 N43 2.128 . S
Co33 N53 2.194 . S
Co33 O58 2.351 . S
Co33 O59 2.155 . S
Co33 O60 2.096 . S
C34 N37 1.301 . S
C34 N38 1.328 . S
C34 H39 0.930 . S
C35 C36 1.333 . S
C35 N37 1.317 . S
C35 H40 0.930 . S
C36 C35 1.333 . S
C36 N38 1.350 . S
C36 H62 0.931 . S
N37 Co33 2.148 . S
N37 C34 1.301 . S
N37 C35 1.317 . S
N38 C34 1.328 . S
N38 C36 1.350 . S
H39 C34 0.930 . S
H40 C35 0.930 . S
C41 O42 1.224 . S
C41 O60 1.247 . S
O42 C41 1.224 . S
N43 Co33 2.128 . S
N43 C44 1.355 . S
N43 C46 1.311 . S
C44 N43 1.355 . S
C44 C45 1.363 . S
C44 H56 0.929 . S
C45 C44 1.363 . S
C45 N47 1.375 . S
C45 H63 0.931 . S
C46 N43 1.311 . S
C46 N47 1.347 . S
C46 H57 0.929 . S
N47 C45 1.375 . S
N47 C46 1.347 . S
C48 C51 1.365 . S
C48 N53 1.328 . S
C48 H54 0.929 . S
C49 C50 1.362 . S
C49 C52 1.378 . S
C49 H64 0.929 . S
C50 C49 1.362 . S
C50 C51 1.366 . S
C51 C48 1.365 . S
C51 C50 1.366 . S
C51 H65 0.930 . S
C52 C49 1.378 . S
C52 N53 1.315 . S
C52 H55 0.930 . S
N53 Co33 2.194 . S
N53 C48 1.328 . S
N53 C52 1.315 . S
H54 C48 0.929 . S
H55 C52 0.930 . S
H56 C44 0.929 . S
H57 C46 0.929 . S
O58 Co33 2.351 . S
O58 C61 1.244 . S
O59 Co33 2.155 . S
O59 C61 1.240 . S
O60 Co33 2.096 . S
O60 C41 1.247 . S
C61 O58 1.244 . S
C61 O59 1.240 . S
H62 C36 0.931 . S
H63 C45 0.931 . S
H64 C49 0.929 . S
H65 C51 0.930 . S
Co66 N70 2.148 . S
Co66 N76 2.128 . S
Co66 N86 2.194 . S
Co66 O91 2.351 . S
Co66 O92 2.155 . S
Co66 O93 2.096 . S
C67 N70 1.301 . S
C67 N71 1.328 . S
C67 H72 0.930 . S
C68 C69 1.333 . S
C68 N70 1.317 . S
C68 H73 0.930 . S
C69 C68 1.333 . S
C69 N71 1.350 . S
C69 H95 0.931 . S
N70 Co66 2.148 . S
N70 C67 1.301 . S
N70 C68 1.317 . S
N71 C67 1.328 . S
N71 C69 1.350 . S
H72 C67 0.930 . S
H73 C68 0.930 . S
C74 O75 1.224 . S
C74 O93 1.247 . S
O75 C74 1.224 . S
N76 Co66 2.128 . S
N76 C77 1.355 . S
N76 C79 1.311 . S
C77 N76 1.355 . S
C77 C78 1.363 . S
C77 H89 0.929 . S
C78 C77 1.363 . S
C78 N80 1.375 . S
C78 H96 0.931 . S
C79 N76 1.311 . S
C79 N80 1.347 . S
C79 H90 0.929 . S
N80 C78 1.375 . S
N80 C79 1.347 . S
C81 C84 1.365 . S
C81 N86 1.328 . S
C81 H87 0.929 . S
C82 C83 1.362 . S
C82 C85 1.378 . S
C82 H97 0.929 . S
C83 C82 1.362 . S
C83 C84 1.366 . S
C84 C81 1.365 . S
C84 C83 1.366 . S
C84 H98 0.930 . S
C85 C82 1.378 . S
C85 N86 1.315 . S
C85 H88 0.930 . S
N86 Co66 2.194 . S
N86 C81 1.328 . S
N86 C85 1.315 . S
H87 C81 0.929 . S
H88 C85 0.930 . S
H89 C77 0.929 . S
H90 C79 0.929 . S
O91 Co66 2.351 . S
O91 C94 1.244 . S
O92 Co66 2.155 . S
O92 C94 1.240 . S
O93 Co66 2.096 . S
O93 C74 1.247 . S
C94 O91 1.244 . S
C94 O92 1.240 . S
H95 C69 0.931 . S
H96 C78 0.931 . S
H97 C82 0.929 . S
H98 C84 0.930 . S
Co99 N103 2.148 . S
Co99 N109 2.128 . S
Co99 N119 2.194 . S
Co99 O124 2.351 . S
Co99 O125 2.155 . S
Co99 O126 2.096 . S
C100 N103 1.301 . S
C100 N104 1.328 . S
C100 H105 0.930 . S
C101 C102 1.333 . S
C101 N103 1.317 . S
C101 H106 0.930 . S
C102 C101 1.333 . S
C102 N104 1.350 . S
C102 H128 0.931 . S
N103 Co99 2.148 . S
N103 C100 1.301 . S
N103 C101 1.317 . S
N104 C100 1.328 . S
N104 C102 1.350 . S
H105 C100 0.930 . S
H106 C101 0.930 . S
C107 O108 1.224 . S
C107 O126 1.247 . S
O108 C107 1.224 . S
N109 Co99 2.128 . S
N109 C110 1.355 . S
N109 C112 1.311 . S
C110 N109 1.355 . S
C110 C111 1.363 . S
C110 H122 0.929 . S
C111 C110 1.363 . S
C111 N113 1.375 . S
C111 H129 0.931 . S
C112 N109 1.311 . S
C112 N113 1.347 . S
C112 H123 0.929 . S
N113 C111 1.375 . S
N113 C112 1.347 . S
C114 C117 1.365 . S
C114 N119 1.328 . S
C114 H120 0.929 . S
C115 C116 1.362 . S
C115 C118 1.378 . S
C115 H130 0.929 . S
C116 C115 1.362 . S
C116 C117 1.366 . S
C117 C114 1.365 . S
C117 C116 1.366 . S
C117 H131 0.930 . S
C118 C115 1.378 . S
C118 N119 1.315 . S
C118 H121 0.930 . S
N119 Co99 2.194 . S
N119 C114 1.328 . S
N119 C118 1.315 . S
H120 C114 0.929 . S
H121 C118 0.930 . S
H122 C110 0.929 . S
H123 C112 0.929 . S
O124 Co99 2.351 . S
O124 C127 1.244 . S
O125 Co99 2.155 . S
O125 C127 1.240 . S
O126 Co99 2.096 . S
O126 C107 1.247 . S
C127 O124 1.244 . S
C127 O125 1.240 . S
H128 C102 0.931 . S
H129 C111 0.931 . S
H130 C115 0.929 . S
H131 C117 0.930 . S
Co132 N136 2.148 . S
Co132 N142 2.128 . S
Co132 N152 2.194 . S
Co132 O157 2.351 . S
Co132 O158 2.155 . S
Co132 O159 2.096 . S
C133 N136 1.301 . S
C133 N137 1.328 . S
C133 H138 0.930 . S
C134 C135 1.333 . S
C134 N136 1.317 . S
C134 H139 0.930 . S
C135 C134 1.333 . S
C135 N137 1.350 . S
C135 H161 0.931 . S
N136 Co132 2.148 . S
N136 C133 1.301 . S
N136 C134 1.317 . S
N137 C133 1.328 . S
N137 C135 1.350 . S
H138 C133 0.930 . S
H139 C134 0.930 . S
C140 O141 1.224 . S
C140 O159 1.247 . S
O141 C140 1.224 . S
N142 Co132 2.128 . S
N142 C143 1.355 . S
N142 C145 1.311 . S
C143 N142 1.355 . S
C143 C144 1.363 . S
C143 H155 0.929 . S
C144 C143 1.363 . S
C144 N146 1.375 . S
C144 H162 0.931 . S
C145 N142 1.311 . S
C145 N146 1.347 . S
C145 H156 0.929 . S
N146 C144 1.375 . S
N146 C145 1.347 . S
C147 C150 1.365 . S
C147 N152 1.328 . S
C147 H153 0.929 . S
C148 C149 1.362 . S
C148 C151 1.378 . S
C148 H163 0.929 . S
C149 C148 1.362 . S
C149 C150 1.366 . S
C150 C147 1.365 . S
C150 C149 1.366 . S
C150 H164 0.930 . S
C151 C148 1.378 . S
C151 N152 1.315 . S
C151 H154 0.930 . S
N152 Co132 2.194 . S
N152 C147 1.328 . S
N152 C151 1.315 . S
H153 C147 0.929 . S
H154 C151 0.930 . S
H155 C143 0.929 . S
H156 C145 0.929 . S
O157 Co132 2.351 . S
O157 C160 1.244 . S
O158 Co132 2.155 . S
O158 C160 1.240 . S
O159 Co132 2.096 . S
O159 C140 1.247 . S
C160 O157 1.244 . S
C160 O158 1.240 . S
H161 C135 0.931 . S
H162 C144 0.931 . S
H163 C148 0.929 . S
H164 C150 0.930 . S
Co165 N169 2.148 . S
Co165 N175 2.128 . S
Co165 N185 2.194 . S
Co165 O190 2.351 . S
Co165 O191 2.155 . S
Co165 O192 2.096 . S
C166 N169 1.301 . S
C166 N170 1.328 . S
C166 H171 0.930 . S
C167 C168 1.333 . S
C167 N169 1.317 . S
C167 H172 0.930 . S
C168 C167 1.333 . S
C168 N170 1.350 . S
C168 H194 0.931 . S
N169 Co165 2.148 . S
N169 C166 1.301 . S
N169 C167 1.317 . S
N170 C166 1.328 . S
N170 C168 1.350 . S
H171 C166 0.930 . S
H172 C167 0.930 . S
C173 O174 1.224 . S
C173 O192 1.247 . S
O174 C173 1.224 . S
N175 Co165 2.128 . S
N175 C176 1.355 . S
N175 C178 1.311 . S
C176 N175 1.355 . S
C176 C177 1.363 . S
C176 H188 0.929 . S
C177 C176 1.363 . S
C177 N179 1.375 . S
C177 H195 0.931 . S
C178 N175 1.311 . S
C178 N179 1.347 . S
C178 H189 0.929 . S
N179 C177 1.375 . S
N179 C178 1.347 . S
C180 C183 1.365 . S
C180 N185 1.328 . S
C180 H186 0.929 . S
C181 C182 1.362 . S
C181 C184 1.378 . S
C181 H196 0.929 . S
C182 C181 1.362 . S
C182 C183 1.366 . S
C183 C180 1.365 . S
C183 C182 1.366 . S
C183 H197 0.930 . S
C184 C181 1.378 . S
C184 N185 1.315 . S
C184 H187 0.930 . S
N185 Co165 2.194 . S
N185 C180 1.328 . S
N185 C184 1.315 . S
H186 C180 0.929 . S
H187 C184 0.930 . S
H188 C176 0.929 . S
H189 C178 0.929 . S
O190 Co165 2.351 . S
O190 C193 1.244 . S
O191 Co165 2.155 . S
O191 C193 1.240 . S
O192 Co165 2.096 . S
O192 C173 1.247 . S
C193 O190 1.244 . S
C193 O191 1.240 . S
H194 C168 0.931 . S
H195 C177 0.931 . S
H196 C181 0.929 . S
H197 C183 0.930 . S
Co198 N202 2.148 . S
Co198 N208 2.128 . S
Co198 N218 2.194 . S
Co198 O223 2.351 . S
Co198 O224 2.155 . S
Co198 O225 2.096 . S
C199 N202 1.301 . S
C199 N203 1.328 . S
C199 H204 0.930 . S
C200 C201 1.333 . S
C200 N202 1.317 . S
C200 H205 0.930 . S
C201 C200 1.333 . S
C201 N203 1.350 . S
C201 H227 0.931 . S
N202 Co198 2.148 . S
N202 C199 1.301 . S
N202 C200 1.317 . S
N203 C199 1.328 . S
N203 C201 1.350 . S
H204 C199 0.930 . S
H205 C200 0.930 . S
C206 O207 1.224 . S
C206 O225 1.247 . S
O207 C206 1.224 . S
N208 Co198 2.128 . S
N208 C209 1.355 . S
N208 C211 1.311 . S
C209 N208 1.355 . S
C209 C210 1.363 . S
C209 H221 0.929 . S
C210 C209 1.363 . S
C210 N212 1.375 . S
C210 H228 0.931 . S
C211 N208 1.311 . S
C211 N212 1.347 . S
C211 H222 0.929 . S
N212 C210 1.375 . S
N212 C211 1.347 . S
C213 C216 1.365 . S
C213 N218 1.328 . S
C213 H219 0.929 . S
C214 C215 1.362 . S
C214 C217 1.378 . S
C214 H229 0.929 . S
C215 C214 1.362 . S
C215 C216 1.366 . S
C216 C213 1.365 . S
C216 C215 1.366 . S
C216 H230 0.930 . S
C217 C214 1.378 . S
C217 N218 1.315 . S
C217 H220 0.930 . S
N218 Co198 2.194 . S
N218 C213 1.328 . S
N218 C217 1.315 . S
H219 C213 0.929 . S
H220 C217 0.930 . S
H221 C209 0.929 . S
H222 C211 0.929 . S
O223 Co198 2.351 . S
O223 C226 1.244 . S
O224 Co198 2.155 . S
O224 C226 1.240 . S
O225 Co198 2.096 . S
O225 C206 1.247 . S
C226 O223 1.244 . S
C226 O224 1.240 . S
H227 C201 0.931 . S
H228 C210 0.931 . S
H229 C214 0.929 . S
H230 C216 0.930 . S
Co231 N235 2.148 . S
Co231 N241 2.128 . S
Co231 N251 2.194 . S
Co231 O256 2.351 . S
Co231 O257 2.155 . S
Co231 O258 2.096 . S
C232 N235 1.301 . S
C232 N236 1.328 . S
C232 H237 0.930 . S
C233 C234 1.333 . S
C233 N235 1.317 . S
C233 H238 0.930 . S
C234 C233 1.333 . S
C234 N236 1.350 . S
C234 H260 0.931 . S
N235 Co231 2.148 . S
N235 C232 1.301 . S
N235 C233 1.317 . S
N236 C232 1.328 . S
N236 C234 1.350 . S
H237 C232 0.930 . S
H238 C233 0.930 . S
C239 O240 1.224 . S
C239 O258 1.247 . S
O240 C239 1.224 . S
N241 Co231 2.128 . S
N241 C242 1.355 . S
N241 C244 1.311 . S
C242 N241 1.355 . S
C242 C243 1.363 . S
C242 H254 0.929 . S
C243 C242 1.363 . S
C243 N245 1.375 . S
C243 H261 0.931 . S
C244 N241 1.311 . S
C244 N245 1.347 . S
C244 H255 0.929 . S
N245 C243 1.375 . S
N245 C244 1.347 . S
C246 C249 1.365 . S
C246 N251 1.328 . S
C246 H252 0.929 . S
C247 C248 1.362 . S
C247 C250 1.378 . S
C247 H262 0.929 . S
C248 C247 1.362 . S
C248 C249 1.366 . S
C249 C246 1.365 . S
C249 C248 1.366 . S
C249 H263 0.930 . S
C250 C247 1.378 . S
C250 N251 1.315 . S
C250 H253 0.930 . S
N251 Co231 2.194 . S
N251 C246 1.328 . S
N251 C250 1.315 . S
H252 C246 0.929 . S
H253 C250 0.930 . S
H254 C242 0.929 . S
H255 C244 0.929 . S
O256 Co231 2.351 . S
O256 C259 1.244 . S
O257 Co231 2.155 . S
O257 C259 1.240 . S
O258 Co231 2.096 . S
O258 C239 1.247 . S
C259 O256 1.244 . S
C259 O257 1.240 . S
H260 C234 0.931 . S
H261 C243 0.931 . S
H262 C247 0.929 . S
H263 C249 0.930 . S
Co264 N268 2.148 . S
Co264 N274 2.128 . S
Co264 N284 2.194 . S
Co264 O289 2.351 . S
Co264 O290 2.155 . S
Co264 O291 2.096 . S
C265 N268 1.301 . S
C265 N269 1.328 . S
C265 H270 0.930 . S
C266 C267 1.333 . S
C266 N268 1.317 . S
C266 H271 0.930 . S
C267 C266 1.333 . S
C267 N269 1.350 . S
C267 H293 0.931 . S
N268 Co264 2.148 . S
N268 C265 1.301 . S
N268 C266 1.317 . S
N269 C265 1.328 . S
N269 C267 1.350 . S
H270 C265 0.930 . S
H271 C266 0.930 . S
C272 O273 1.224 . S
C272 O291 1.247 . S
O273 C272 1.224 . S
N274 Co264 2.128 . S
N274 C275 1.355 . S
N274 C277 1.311 . S
C275 N274 1.355 . S
C275 C276 1.363 . S
C275 H287 0.929 . S
C276 C275 1.363 . S
C276 N278 1.375 . S
C276 H294 0.931 . S
C277 N274 1.311 . S
C277 N278 1.347 . S
C277 H288 0.929 . S
N278 C276 1.375 . S
N278 C277 1.347 . S
C279 C282 1.365 . S
C279 N284 1.328 . S
C279 H285 0.929 . S
C280 C281 1.362 . S
C280 C283 1.378 . S
C280 H295 0.929 . S
C281 C280 1.362 . S
C281 C282 1.366 . S
C282 C279 1.365 . S
C282 C281 1.366 . S
C282 H296 0.930 . S
C283 C280 1.378 . S
C283 N284 1.315 . S
C283 H286 0.930 . S
N284 Co264 2.194 . S
N284 C279 1.328 . S
N284 C283 1.315 . S
H285 C279 0.929 . S
H286 C283 0.930 . S
H287 C275 0.929 . S
H288 C277 0.929 . S
O289 Co264 2.351 . S
O289 C292 1.244 . S
O290 Co264 2.155 . S
O290 C292 1.240 . S
O291 Co264 2.096 . S
O291 C272 1.247 . S
C292 O289 1.244 . S
C292 O290 1.240 . S
H293 C267 0.931 . S
H294 C276 0.931 . S
H295 C280 0.929 . S
H296 C282 0.930 . S
Co297 N301 2.148 . S
Co297 N307 2.128 . S
Co297 N317 2.194 . S
Co297 O322 2.351 . S
Co297 O323 2.155 . S
Co297 O324 2.096 . S
C298 N301 1.301 . S
C298 N302 1.328 . S
C298 H303 0.930 . S
C299 C300 1.333 . S
C299 N301 1.317 . S
C299 H304 0.930 . S
C300 C299 1.333 . S
C300 N302 1.350 . S
C300 H326 0.931 . S
N301 Co297 2.148 . S
N301 C298 1.301 . S
N301 C299 1.317 . S
N302 C298 1.328 . S
N302 C300 1.350 . S
H303 C298 0.930 . S
H304 C299 0.930 . S
C305 O306 1.224 . S
C305 O324 1.247 . S
O306 C305 1.224 . S
N307 Co297 2.128 . S
N307 C308 1.355 . S
N307 C310 1.311 . S
C308 N307 1.355 . S
C308 C309 1.363 . S
C308 H320 0.929 . S
C309 C308 1.363 . S
C309 N311 1.375 . S
C309 H327 0.931 . S
C310 N307 1.311 . S
C310 N311 1.347 . S
C310 H321 0.929 . S
N311 C309 1.375 . S
N311 C310 1.347 . S
C312 C315 1.365 . S
C312 N317 1.328 . S
C312 H318 0.929 . S
C313 C314 1.362 . S
C313 C316 1.378 . S
C313 H328 0.929 . S
C314 C313 1.362 . S
C314 C315 1.366 . S
C315 C312 1.365 . S
C315 C314 1.366 . S
C315 H329 0.930 . S
C316 C313 1.378 . S
C316 N317 1.315 . S
C316 H319 0.930 . S
N317 Co297 2.194 . S
N317 C312 1.328 . S
N317 C316 1.315 . S
H318 C312 0.929 . S
H319 C316 0.930 . S
H320 C308 0.929 . S
H321 C310 0.929 . S
O322 Co297 2.351 . S
O322 C325 1.244 . S
O323 Co297 2.155 . S
O323 C325 1.240 . S
O324 Co297 2.096 . S
O324 C305 1.247 . S
C325 O322 1.244 . S
C325 O323 1.240 . S
H326 C300 0.931 . S
H327 C309 0.931 . S
H328 C313 0.929 . S
H329 C315 0.930 . S
Co330 N334 2.148 . S
Co330 N340 2.128 . S
Co330 N350 2.194 . S
Co330 O355 2.351 . S
Co330 O356 2.155 . S
Co330 O357 2.096 . S
C331 N334 1.301 . S
C331 N335 1.328 . S
C331 H336 0.930 . S
C332 C333 1.333 . S
C332 N334 1.317 . S
C332 H337 0.930 . S
C333 C332 1.333 . S
C333 N335 1.350 . S
C333 H359 0.931 . S
N334 Co330 2.148 . S
N334 C331 1.301 . S
N334 C332 1.317 . S
N335 C331 1.328 . S
N335 C333 1.350 . S
H336 C331 0.930 . S
H337 C332 0.930 . S
C338 O339 1.224 . S
C338 O357 1.247 . S
O339 C338 1.224 . S
N340 Co330 2.128 . S
N340 C341 1.355 . S
N340 C343 1.311 . S
C341 N340 1.355 . S
C341 C342 1.363 . S
C341 H353 0.929 . S
C342 C341 1.363 . S
C342 N344 1.375 . S
C342 H360 0.931 . S
C343 N340 1.311 . S
C343 N344 1.347 . S
C343 H354 0.929 . S
N344 C342 1.375 . S
N344 C343 1.347 . S
C345 C348 1.365 . S
C345 N350 1.328 . S
C345 H351 0.929 . S
C346 C347 1.362 . S
C346 C349 1.378 . S
C346 H361 0.929 . S
C347 C346 1.362 . S
C347 C348 1.366 . S
C348 C345 1.365 . S
C348 C347 1.366 . S
C348 H362 0.930 . S
C349 C346 1.378 . S
C349 N350 1.315 . S
C349 H352 0.930 . S
N350 Co330 2.194 . S
N350 C345 1.328 . S
N350 C349 1.315 . S
H351 C345 0.929 . S
H352 C349 0.930 . S
H353 C341 0.929 . S
H354 C343 0.929 . S
O355 Co330 2.351 . S
O355 C358 1.244 . S
O356 Co330 2.155 . S
O356 C358 1.240 . S
O357 Co330 2.096 . S
O357 C338 1.247 . S
C358 O355 1.244 . S
C358 O356 1.240 . S
H359 C333 0.931 . S
H360 C342 0.931 . S
H361 C346 0.929 . S
H362 C348 0.930 . S
Co363 N367 2.148 . S
Co363 N373 2.128 . S
Co363 N383 2.194 . S
Co363 O388 2.351 . S
Co363 O389 2.155 . S
Co363 O390 2.096 . S
C364 N367 1.301 . S
C364 N368 1.328 . S
C364 H369 0.930 . S
C365 C366 1.333 . S
C365 N367 1.317 . S
C365 H370 0.930 . S
C366 C365 1.333 . S
C366 N368 1.350 . S
C366 H392 0.931 . S
N367 Co363 2.148 . S
N367 C364 1.301 . S
N367 C365 1.317 . S
N368 C364 1.328 . S
N368 C366 1.350 . S
H369 C364 0.930 . S
H370 C365 0.930 . S
C371 O372 1.224 . S
C371 O390 1.247 . S
O372 C371 1.224 . S
N373 Co363 2.128 . S
N373 C374 1.355 . S
N373 C376 1.311 . S
C374 N373 1.355 . S
C374 C375 1.363 . S
C374 H386 0.929 . S
C375 C374 1.363 . S
C375 N377 1.375 . S
C375 H393 0.931 . S
C376 N373 1.311 . S
C376 N377 1.347 . S
C376 H387 0.929 . S
N377 C375 1.375 . S
N377 C376 1.347 . S
C378 C381 1.365 . S
C378 N383 1.328 . S
C378 H384 0.929 . S
C379 C380 1.362 . S
C379 C382 1.378 . S
C379 H394 0.929 . S
C380 C379 1.362 . S
C380 C381 1.366 . S
C381 C378 1.365 . S
C381 C380 1.366 . S
C381 H395 0.930 . S
C382 C379 1.378 . S
C382 N383 1.315 . S
C382 H385 0.930 . S
N383 Co363 2.194 . S
N383 C378 1.328 . S
N383 C382 1.315 . S
H384 C378 0.929 . S
H385 C382 0.930 . S
H386 C374 0.929 . S
H387 C376 0.929 . S
O388 Co363 2.351 . S
O388 C391 1.244 . S
O389 Co363 2.155 . S
O389 C391 1.240 . S
O390 Co363 2.096 . S
O390 C371 1.247 . S
C391 O388 1.244 . S
C391 O389 1.240 . S
H392 C366 0.931 . S
H393 C375 0.931 . S
H394 C379 0.929 . S
H395 C381 0.930 . S
Co396 N400 2.148 . S
Co396 N406 2.128 . S
Co396 N416 2.194 . S
Co396 O421 2.351 . S
Co396 O422 2.155 . S
Co396 O423 2.096 . S
C397 N400 1.301 . S
C397 N401 1.328 . S
C397 H402 0.930 . S
C398 C399 1.333 . S
C398 N400 1.317 . S
C398 H403 0.930 . S
C399 C398 1.333 . S
C399 N401 1.350 . S
C399 H425 0.931 . S
N400 Co396 2.148 . S
N400 C397 1.301 . S
N400 C398 1.317 . S
N401 C397 1.328 . S
N401 C399 1.350 . S
H402 C397 0.930 . S
H403 C398 0.930 . S
C404 O405 1.224 . S
C404 O423 1.247 . S
O405 C404 1.224 . S
N406 Co396 2.128 . S
N406 C407 1.355 . S
N406 C409 1.311 . S
C407 N406 1.355 . S
C407 C408 1.363 . S
C407 H419 0.929 . S
C408 C407 1.363 . S
C408 N410 1.375 . S
C408 H426 0.931 . S
C409 N406 1.311 . S
C409 N410 1.347 . S
C409 H420 0.929 . S
N410 C408 1.375 . S
N410 C409 1.347 . S
C411 C414 1.365 . S
C411 N416 1.328 . S
C411 H417 0.929 . S
C412 C413 1.362 . S
C412 C415 1.378 . S
C412 H427 0.929 . S
C413 C412 1.362 . S
C413 C414 1.366 . S
C414 C411 1.365 . S
C414 C413 1.366 . S
C414 H428 0.930 . S
C415 C412 1.378 . S
C415 N416 1.315 . S
C415 H418 0.930 . S
N416 Co396 2.194 . S
N416 C411 1.328 . S
N416 C415 1.315 . S
H417 C411 0.929 . S
H418 C415 0.930 . S
H419 C407 0.929 . S
H420 C409 0.929 . S
O421 Co396 2.351 . S
O421 C424 1.244 . S
O422 Co396 2.155 . S
O422 C424 1.240 . S
O423 Co396 2.096 . S
O423 C404 1.247 . S
C424 O421 1.244 . S
C424 O422 1.240 . S
H425 C399 0.931 . S
H426 C408 0.931 . S
H427 C412 0.929 . S
H428 C414 0.930 . S
Co429 N433 2.148 . S
Co429 N439 2.128 . S
Co429 N449 2.194 . S
Co429 O454 2.351 . S
Co429 O455 2.155 . S
Co429 O456 2.096 . S
C430 N433 1.301 . S
C430 N434 1.328 . S
C430 H435 0.930 . S
C431 C432 1.333 . S
C431 N433 1.317 . S
C431 H436 0.930 . S
C432 C431 1.333 . S
C432 N434 1.350 . S
C432 H458 0.931 . S
N433 Co429 2.148 . S
N433 C430 1.301 . S
N433 C431 1.317 . S
N434 C430 1.328 . S
N434 C432 1.350 . S
H435 C430 0.930 . S
H436 C431 0.930 . S
C437 O438 1.224 . S
C437 O456 1.247 . S
O438 C437 1.224 . S
N439 Co429 2.128 . S
N439 C440 1.355 . S
N439 C442 1.311 . S
C440 N439 1.355 . S
C440 C441 1.363 . S
C440 H452 0.929 . S
C441 C440 1.363 . S
C441 N443 1.375 . S
C441 H459 0.931 . S
C442 N439 1.311 . S
C442 N443 1.347 . S
C442 H453 0.929 . S
N443 C441 1.375 . S
N443 C442 1.347 . S
C444 C447 1.365 . S
C444 N449 1.328 . S
C444 H450 0.929 . S
C445 C446 1.362 . S
C445 C448 1.378 . S
C445 H460 0.929 . S
C446 C445 1.362 . S
C446 C447 1.366 . S
C447 C444 1.365 . S
C447 C446 1.366 . S
C447 H461 0.930 . S
C448 C445 1.378 . S
C448 N449 1.315 . S
C448 H451 0.930 . S
N449 Co429 2.194 . S
N449 C444 1.328 . S
N449 C448 1.315 . S
H450 C444 0.929 . S
H451 C448 0.930 . S
H452 C440 0.929 . S
H453 C442 0.929 . S
O454 Co429 2.351 . S
O454 C457 1.244 . S
O455 Co429 2.155 . S
O455 C457 1.240 . S
O456 Co429 2.096 . S
O456 C437 1.247 . S
C457 O454 1.244 . S
C457 O455 1.240 . S
H458 C432 0.931 . S
H459 C441 0.931 . S
H460 C445 0.929 . S
H461 C447 0.930 . S
Co462 N466 2.148 . S
Co462 N472 2.128 . S
Co462 N482 2.194 . S
Co462 O487 2.351 . S
Co462 O488 2.155 . S
Co462 O489 2.096 . S
C463 N466 1.301 . S
C463 N467 1.328 . S
C463 H468 0.930 . S
C464 C465 1.333 . S
C464 N466 1.317 . S
C464 H469 0.930 . S
C465 C464 1.333 . S
C465 N467 1.350 . S
C465 H491 0.931 . S
N466 Co462 2.148 . S
N466 C463 1.301 . S
N466 C464 1.317 . S
N467 C463 1.328 . S
N467 C465 1.350 . S
H468 C463 0.930 . S
H469 C464 0.930 . S
C470 O471 1.224 . S
C470 O489 1.247 . S
O471 C470 1.224 . S
N472 Co462 2.128 . S
N472 C473 1.355 . S
N472 C475 1.311 . S
C473 N472 1.355 . S
C473 C474 1.363 . S
C473 H485 0.929 . S
C474 C473 1.363 . S
C474 N476 1.375 . S
C474 H492 0.931 . S
C475 N472 1.311 . S
C475 N476 1.347 . S
C475 H486 0.929 . S
N476 C474 1.375 . S
N476 C475 1.347 . S
C477 C480 1.365 . S
C477 N482 1.328 . S
C477 H483 0.929 . S
C478 C479 1.362 . S
C478 C481 1.378 . S
C478 H493 0.929 . S
C479 C478 1.362 . S
C479 C480 1.366 . S
C480 C477 1.365 . S
C480 C479 1.366 . S
C480 H494 0.930 . S
C481 C478 1.378 . S
C481 N482 1.315 . S
C481 H484 0.930 . S
N482 Co462 2.194 . S
N482 C477 1.328 . S
N482 C481 1.315 . S
H483 C477 0.929 . S
H484 C481 0.930 . S
H485 C473 0.929 . S
H486 C475 0.929 . S
O487 Co462 2.351 . S
O487 C490 1.244 . S
O488 Co462 2.155 . S
O488 C490 1.240 . S
O489 Co462 2.096 . S
O489 C470 1.247 . S
C490 O487 1.244 . S
C490 O488 1.240 . S
H491 C465 0.931 . S
H492 C474 0.931 . S
H493 C478 0.929 . S
H494 C480 0.930 . S
Co495 N499 2.148 . S
Co495 N505 2.128 . S
Co495 N515 2.194 . S
Co495 O520 2.351 . S
Co495 O521 2.155 . S
Co495 O522 2.096 . S
C496 N499 1.301 . S
C496 N500 1.328 . S
C496 H501 0.930 . S
C497 C498 1.333 . S
C497 N499 1.317 . S
C497 H502 0.930 . S
C498 C497 1.333 . S
C498 N500 1.350 . S
C498 H524 0.931 . S
N499 Co495 2.148 . S
N499 C496 1.301 . S
N499 C497 1.317 . S
N500 C496 1.328 . S
N500 C498 1.350 . S
H501 C496 0.930 . S
H502 C497 0.930 . S
C503 O504 1.224 . S
C503 O522 1.247 . S
O504 C503 1.224 . S
N505 Co495 2.128 . S
N505 C506 1.355 . S
N505 C508 1.311 . S
C506 N505 1.355 . S
C506 C507 1.363 . S
C506 H518 0.929 . S
C507 C506 1.363 . S
C507 N509 1.375 . S
C507 H525 0.931 . S
C508 N505 1.311 . S
C508 N509 1.347 . S
C508 H519 0.929 . S
N509 C507 1.375 . S
N509 C508 1.347 . S
C510 C513 1.365 . S
C510 N515 1.328 . S
C510 H516 0.929 . S
C511 C512 1.362 . S
C511 C514 1.378 . S
C511 H526 0.929 . S
C512 C511 1.362 . S
C512 C513 1.366 . S
C513 C510 1.365 . S
C513 C512 1.366 . S
C513 H527 0.930 . S
C514 C511 1.378 . S
C514 N515 1.315 . S
C514 H517 0.930 . S
N515 Co495 2.194 . S
N515 C510 1.328 . S
N515 C514 1.315 . S
H516 C510 0.929 . S
H517 C514 0.930 . S
H518 C506 0.929 . S
H519 C508 0.929 . S
O520 Co495 2.351 . S
O520 C523 1.244 . S
O521 Co495 2.155 . S
O521 C523 1.240 . S
O522 Co495 2.096 . S
O522 C503 1.247 . S
C523 O520 1.244 . S
C523 O521 1.240 . S
H524 C498 0.931 . S
H525 C507 0.931 . S
H526 C511 0.929 . S
H527 C513 0.930 . S
C528 C529 1.387 . S
C528 H532 0.950 . S
C528 C537 1.390 . S
C529 C528 1.387 . S
C529 C531 1.387 . S
H530 C537 0.950 . S
C531 C529 1.387 . S
C531 C533 1.390 . S
C531 H535 0.950 . S
H532 C528 0.950 . S
C533 C531 1.390 . S
C533 C534 1.387 . S
C533 H536 0.950 . S
C534 C533 1.387 . S
C534 C537 1.387 . S
H535 C531 0.950 . S
H536 C533 0.950 . S
C537 C528 1.390 . S
C537 H530 0.950 . S
C537 C534 1.387 . S
C538 C539 1.387 . S
C538 H542 0.950 . S
C538 C547 1.390 . S
C539 C538 1.387 . S
C539 C541 1.387 . S
H540 C547 0.950 . S
C541 C539 1.387 . S
C541 C543 1.390 . S
C541 H545 0.950 . S
H542 C538 0.950 . S
C543 C541 1.390 . S
C543 C544 1.387 . S
C543 H546 0.950 . S
C544 C543 1.387 . S
C544 C547 1.387 . S
H545 C541 0.950 . S
H546 C543 0.950 . S
C547 C538 1.390 . S
C547 H540 0.950 . S
C547 C544 1.387 . S
C548 C549 1.387 . S
C548 H552 0.950 . S
C548 C557 1.390 . S
C549 C548 1.387 . S
C549 C551 1.387 . S
H550 C557 0.950 . S
C551 C549 1.387 . S
C551 C553 1.390 . S
C551 H555 0.950 . S
H552 C548 0.950 . S
C553 C551 1.390 . S
C553 C554 1.387 . S
C553 H556 0.950 . S
C554 C553 1.387 . S
C554 C557 1.387 . S
H555 C551 0.950 . S
H556 C553 0.950 . S
C557 C548 1.390 . S
C557 H550 0.950 . S
C557 C554 1.387 . S
C558 C559 1.387 . S
C558 H562 0.950 . S
C558 C567 1.390 . S
C559 C558 1.387 . S
C559 C561 1.387 . S
H560 C567 0.950 . S
C561 C559 1.387 . S
C561 C563 1.390 . S
C561 H565 0.950 . S
H562 C558 0.950 . S
C563 C561 1.390 . S
C563 C564 1.387 . S
C563 H566 0.950 . S
C564 C563 1.387 . S
C564 C567 1.387 . S
H565 C561 0.950 . S
H566 C563 0.950 . S
C567 C558 1.390 . S
C567 H560 0.950 . S
C567 C564 1.387 . S
C568 C569 1.387 . S
C568 H572 0.950 . S
C568 C577 1.390 . S
C569 C568 1.387 . S
C569 C571 1.387 . S
H570 C577 0.950 . S
C571 C569 1.387 . S
C571 C573 1.390 . S
C571 H575 0.950 . S
H572 C568 0.950 . S
C573 C571 1.390 . S
C573 C574 1.387 . S
C573 H576 0.950 . S
C574 C573 1.387 . S
C574 C577 1.387 . S
H575 C571 0.950 . S
H576 C573 0.950 . S
C577 C568 1.390 . S
C577 H570 0.950 . S
C577 C574 1.387 . S
C578 C579 1.387 . S
C578 H582 0.950 . S
C578 C587 1.390 . S
C579 C578 1.387 . S
C579 C581 1.387 . S
H580 C587 0.950 . S
C581 C579 1.387 . S
C581 C583 1.390 . S
C581 H585 0.950 . S
H582 C578 0.950 . S
C583 C581 1.390 . S
C583 C584 1.387 . S
C583 H586 0.950 . S
C584 C583 1.387 . S
C584 C587 1.387 . S
H585 C581 0.950 . S
H586 C583 0.950 . S
C587 C578 1.390 . S
C587 H580 0.950 . S
C587 C584 1.387 . S
C588 C589 1.387 . S
C588 H592 0.950 . S
C588 C597 1.390 . S
C589 C588 1.387 . S
C589 C591 1.387 . S
H590 C597 0.950 . S
C591 C589 1.387 . S
C591 C593 1.390 . S
C591 H595 0.950 . S
H592 C588 0.950 . S
C593 C591 1.390 . S
C593 C594 1.387 . S
C593 H596 0.950 . S
C594 C593 1.387 . S
C594 C597 1.387 . S
H595 C591 0.950 . S
H596 C593 0.950 . S
C597 C588 1.390 . S
C597 H590 0.950 . S
C597 C594 1.387 . S
C598 C599 1.387 . S
C598 H602 0.950 . S
C598 C607 1.390 . S
C599 C598 1.387 . S
C599 C601 1.387 . S
H600 C607 0.950 . S
C601 C599 1.387 . S
C601 C603 1.390 . S
C601 H605 0.950 . S
H602 C598 0.950 . S
C603 C601 1.390 . S
C603 C604 1.387 . S
C603 H606 0.950 . S
C604 C603 1.387 . S
C604 C607 1.387 . S
H605 C601 0.950 . S
H606 C603 0.950 . S
C607 C598 1.390 . S
C607 H600 0.950 . S
C607 C604 1.387 . S
C608 C609 1.387 . S
C608 H612 0.950 . S
C608 C617 1.390 . S
C609 C608 1.387 . S
C609 C611 1.387 . S
H610 C617 0.950 . S
C611 C609 1.387 . S
C611 C613 1.390 . S
C611 H615 0.950 . S
H612 C608 0.950 . S
C613 C611 1.390 . S
C613 C614 1.387 . S
C613 H616 0.950 . S
C614 C613 1.387 . S
C614 C617 1.387 . S
H615 C611 0.950 . S
H616 C613 0.950 . S
C617 C608 1.390 . S
C617 H610 0.950 . S
C617 C614 1.387 . S
C618 C619 1.387 . S
C618 H622 0.950 . S
C618 C627 1.390 . S
C619 C618 1.387 . S
C619 C621 1.387 . S
H620 C627 0.950 . S
C621 C619 1.387 . S
C621 C623 1.390 . S
C621 H625 0.950 . S
H622 C618 0.950 . S
C623 C621 1.390 . S
C623 C624 1.387 . S
C623 H626 0.950 . S
C624 C623 1.387 . S
C624 C627 1.387 . S
H625 C621 0.950 . S
H626 C623 0.950 . S
C627 C618 1.390 . S
C627 H620 0.950 . S
C627 C624 1.387 . S
C628 C629 1.387 . S
C628 H632 0.950 . S
C628 C637 1.390 . S
C629 C628 1.387 . S
C629 C631 1.387 . S
H630 C637 0.950 . S
C631 C629 1.387 . S
C631 C633 1.390 . S
C631 H635 0.950 . S
H632 C628 0.950 . S
C633 C631 1.390 . S
C633 C634 1.387 . S
C633 H636 0.950 . S
C634 C633 1.387 . S
C634 C637 1.387 . S
H635 C631 0.950 . S
H636 C633 0.950 . S
C637 C628 1.390 . S
C637 H630 0.950 . S
C637 C634 1.387 . S
C638 C639 1.387 . S
C638 H642 0.950 . S
C638 C647 1.390 . S
C639 C638 1.387 . S
C639 C641 1.387 . S
H640 C647 0.950 . S
C641 C639 1.387 . S
C641 C643 1.390 . S
C641 H645 0.950 . S
H642 C638 0.950 . S
C643 C641 1.390 . S
C643 C644 1.387 . S
C643 H646 0.950 . S
C644 C643 1.387 . S
C644 C647 1.387 . S
H645 C641 0.950 . S
H646 C643 0.950 . S
C647 C638 1.390 . S
C647 H640 0.950 . S
C647 C644 1.387 . S
C648 C649 1.387 . S
C648 H652 0.950 . S
C648 C657 1.390 . S
C649 C648 1.387 . S
C649 C651 1.387 . S
H650 C657 0.950 . S
C651 C649 1.387 . S
C651 C653 1.390 . S
C651 H655 0.950 . S
H652 C648 0.950 . S
C653 C651 1.390 . S
C653 C654 1.387 . S
C653 H656 0.950 . S
C654 C653 1.387 . S
C654 C657 1.387 . S
H655 C651 0.950 . S
H656 C653 0.950 . S
C657 C648 1.390 . S
C657 H650 0.950 . S
C657 C654 1.387 . S
C658 C659 1.387 . S
C658 H662 0.950 . S
C658 C667 1.390 . S
C659 C658 1.387 . S
C659 C661 1.387 . S
H660 C667 0.950 . S
C661 C659 1.387 . S
C661 C663 1.390 . S
C661 H665 0.950 . S
H662 C658 0.950 . S
C663 C661 1.390 . S
C663 C664 1.387 . S
C663 H666 0.950 . S
C664 C663 1.387 . S
C664 C667 1.387 . S
H665 C661 0.950 . S
H666 C663 0.950 . S
C667 C658 1.390 . S
C667 H660 0.950 . S
C667 C664 1.387 . S
C668 C669 1.387 . S
C668 H672 0.950 . S
C668 C677 1.390 . S
C669 C668 1.387 . S
C669 C671 1.387 . S
H670 C677 0.950 . S
C671 C669 1.387 . S
C671 C673 1.390 . S
C671 H675 0.950 . S
H672 C668 0.950 . S
C673 C671 1.390 . S
C673 C674 1.387 . S
C673 H676 0.950 . S
C674 C673 1.387 . S
C674 C677 1.387 . S
H675 C671 0.950 . S
H676 C673 0.950 . S
C677 C668 1.390 . S
C677 H670 0.950 . S
C677 C674 1.387 . S
C678 C679 1.387 . S
C678 H682 0.950 . S
C678 C687 1.390 . S
C679 C678 1.387 . S
C679 C681 1.387 . S
H680 C687 0.950 . S
C681 C679 1.387 . S
C681 C683 1.390 . S
C681 H685 0.950 . S
H682 C678 0.950 . S
C683 C681 1.390 . S
C683 C684 1.387 . S
C683 H686 0.950 . S
C684 C683 1.387 . S
C684 C687 1.387 . S
H685 C681 0.950 . S
H686 C683 0.950 . S
C687 C678 1.390 . S
C687 H680 0.950 . S
C687 C684 1.387 . S
C688 C689 1.387 . S
C688 H692 0.950 . S
C688 C697 1.390 . S
C689 C688 1.387 . S
C689 C691 1.387 . S
H690 C697 0.950 . S
C691 C689 1.387 . S
C691 C693 1.390 . S
C691 H695 0.950 . S
H692 C688 0.950 . S
C693 C691 1.390 . S
C693 C694 1.387 . S
C693 H696 0.950 . S
C694 C693 1.387 . S
C694 C697 1.387 . S
H695 C691 0.950 . S
H696 C693 0.950 . S
C697 C688 1.390 . S
C697 H690 0.950 . S
C697 C694 1.387 . S
C698 C699 1.387 . S
C698 H702 0.950 . S
C698 C707 1.390 . S
C699 C698 1.387 . S
C699 C701 1.387 . S
H700 C707 0.950 . S
C701 C699 1.387 . S
C701 C703 1.390 . S
C701 H705 0.950 . S
H702 C698 0.950 . S
C703 C701 1.390 . S
C703 C704 1.387 . S
C703 H706 0.950 . S
C704 C703 1.387 . S
C704 C707 1.387 . S
H705 C701 0.950 . S
H706 C703 0.950 . S
C707 C698 1.390 . S
C707 H700 0.950 . S
C707 C704 1.387 . S
C708 C709 1.387 . S
C708 H712 0.950 . S
C708 C717 1.390 . S
C709 C708 1.387 . S
C709 C711 1.387 . S
H710 C717 0.950 . S
C711 C709 1.387 . S
C711 C713 1.390 . S
C711 H715 0.950 . S
H712 C708 0.950 . S
C713 C711 1.390 . S
C713 C714 1.387 . S
C713 H716 0.950 . S
C714 C713 1.387 . S
C714 C717 1.387 . S
H715 C711 0.950 . S
H716 C713 0.950 . S
C717 C708 1.390 . S
C717 H710 0.950 . S
C717 C714 1.387 . S
C718 C719 1.387 . S
C718 H722 0.950 . S
C718 C727 1.390 . S
C719 C718 1.387 . S
C719 C721 1.387 . S
H720 C727 0.950 . S
C721 C719 1.387 . S
C721 C723 1.390 . S
C721 H725 0.950 . S
H722 C718 0.950 . S
C723 C721 1.390 . S
C723 C724 1.387 . S
C723 H726 0.950 . S
C724 C723 1.387 . S
C724 C727 1.387 . S
H725 C721 0.950 . S
H726 C723 0.950 . S
C727 C718 1.390 . S
C727 H720 0.950 . S
C727 C724 1.387 . S
C728 C729 1.387 . S
C728 H732 0.950 . S
C728 C737 1.390 1_556 S
C729 C728 1.387 . S
C729 C731 1.387 . S
H730 C737 0.950 . S
C731 C729 1.387 . S
C731 C733 1.390 1_556 S
C731 H735 0.950 . S
H732 C728 0.950 . S
C733 C731 1.390 1_554 S
C733 C734 1.387 . S
C733 H736 0.950 . S
C734 C733 1.387 . S
C734 C737 1.387 . S
H735 C731 0.950 . S
H736 C733 0.950 . S
C737 C728 1.390 1_554 S
C737 H730 0.950 . S
C737 C734 1.387 . S
C738 C739 1.387 . S
C738 H742 0.950 . S
C738 C747 1.390 . S
C739 C738 1.387 . S
C739 C741 1.387 1_556 S
H740 C747 0.950 . S
C741 C739 1.387 1_554 S
C741 C743 1.390 . S
C741 H745 0.950 . S
H742 C738 0.950 . S
C743 C741 1.390 . S
C743 C744 1.387 . S
C743 H746 0.950 . S
C744 C743 1.387 . S
C744 C747 1.387 1_554 S
H745 C741 0.950 . S
H746 C743 0.950 . S
C747 C738 1.390 . S
C747 H740 0.950 . S
C747 C744 1.387 1_556 S
C748 C749 1.387 1_554 S
C748 H752 0.950 . S
C748 C757 1.390 . S
C749 C748 1.387 1_556 S
C749 C751 1.387 . S
H750 C757 0.950 . S
C751 C749 1.387 . S
C751 C753 1.390 . S
C751 H755 0.950 . S
H752 C748 0.950 . S
C753 C751 1.390 . S
C753 C754 1.387 1_556 S
C753 H756 0.950 . S
C754 C753 1.387 1_554 S
C754 C757 1.387 . S
H755 C751 0.950 . S
H756 C753 0.950 . S
C757 C748 1.390 . S
C757 H750 0.950 . S
C757 C754 1.387 . S
C758 C759 1.387 . S
C758 H762 0.950 . S
C758 C767 1.390 1_556 S
C759 C758 1.387 . S
C759 C761 1.387 . S
H760 C767 0.950 . S
C761 C759 1.387 . S
C761 C763 1.390 1_556 S
C761 H765 0.950 . S
H762 C758 0.950 . S
C763 C761 1.390 1_554 S
C763 C764 1.387 . S
C763 H766 0.950 . S
C764 C763 1.387 . S
C764 C767 1.387 . S
H765 C761 0.950 . S
H766 C763 0.950 . S
C767 C758 1.390 1_554 S
C767 H760 0.950 . S
C767 C764 1.387 . S
C768 C769 1.387 . S
C768 H772 0.950 . S
C768 C777 1.390 . S
C769 C768 1.387 . S
C769 C771 1.387 . S
H770 C777 0.950 . S
C771 C769 1.387 . S
C771 C773 1.390 . S
C771 H775 0.950 . S
H772 C768 0.950 . S
C773 C771 1.390 . S
C773 C774 1.387 . S
C773 H776 0.950 . S
C774 C773 1.387 . S
C774 C777 1.387 . S
H775 C771 0.950 . S
H776 C773 0.950 . S
C777 C768 1.390 . S
C777 H770 0.950 . S
C777 C774 1.387 . S
C778 C779 1.387 . S
C778 H782 0.950 . S
C778 C787 1.390 . S
C779 C778 1.387 . S
C779 C781 1.387 . S
H780 C787 0.950 . S
C781 C779 1.387 . S
C781 C783 1.390 . S
C781 H785 0.950 . S
H782 C778 0.950 . S
C783 C781 1.390 . S
C783 C784 1.387 . S
C783 H786 0.950 . S
C784 C783 1.387 . S
C784 C787 1.387 . S
H785 C781 0.950 . S
H786 C783 0.950 . S
C787 C778 1.390 . S
C787 H780 0.950 . S
C787 C784 1.387 . S
C788 C789 1.387 . S
C788 H792 0.950 . S
C788 C797 1.390 . S
C789 C788 1.387 . S
C789 C791 1.387 . S
H790 C797 0.950 . S
C791 C789 1.387 . S
C791 C793 1.390 . S
C791 H795 0.950 . S
H792 C788 0.950 . S
C793 C791 1.390 . S
C793 C794 1.387 . S
C793 H796 0.950 . S
C794 C793 1.387 . S
C794 C797 1.387 . S
H795 C791 0.950 . S
H796 C793 0.950 . S
C797 C788 1.390 . S
C797 H790 0.950 . S
C797 C794 1.387 . S
C798 C799 1.387 . S
C798 H802 0.950 . S
C798 C807 1.390 . S
C799 C798 1.387 . S
C799 C801 1.387 . S
H800 C807 0.950 . S
C801 C799 1.387 . S
C801 C803 1.390 . S
C801 H805 0.950 . S
H802 C798 0.950 . S
C803 C801 1.390 . S
C803 C804 1.387 . S
C803 H806 0.950 . S
C804 C803 1.387 . S
C804 C807 1.387 . S
H805 C801 0.950 . S
H806 C803 0.950 . S
C807 C798 1.390 . S
C807 H800 0.950 . S
C807 C804 1.387 . S
C808 C809 1.387 . S
C808 H812 0.950 . S
C808 C817 1.390 . S
C809 C808 1.387 . S
C809 C811 1.387 . S
H810 C817 0.950 . S
C811 C809 1.387 . S
C811 C813 1.390 . S
C811 H815 0.950 . S
H812 C808 0.950 . S
C813 C811 1.390 . S
C813 C814 1.387 . S
C813 H816 0.950 . S
C814 C813 1.387 . S
C814 C817 1.387 . S
H815 C811 0.950 . S
H816 C813 0.950 . S
C817 C808 1.390 . S
C817 H810 0.950 . S
C817 C814 1.387 . S
C818 C819 1.387 . S
C818 H822 0.950 . S
C818 C827 1.390 . S
C819 C818 1.387 . S
C819 C821 1.387 . S
H820 C827 0.950 . S
C821 C819 1.387 . S
C821 C823 1.390 . S
C821 H825 0.950 . S
H822 C818 0.950 . S
C823 C821 1.390 . S
C823 C824 1.387 . S
C823 H826 0.950 . S
C824 C823 1.387 . S
C824 C827 1.387 . S
H825 C821 0.950 . S
H826 C823 0.950 . S
C827 C818 1.390 . S
C827 H820 0.950 . S
C827 C824 1.387 . S
C828 C829 1.387 . S
C828 H832 0.950 . S
C828 C837 1.390 . S
C829 C828 1.387 . S
C829 C831 1.387 . S
H830 C837 0.950 . S
C831 C829 1.387 . S
C831 C833 1.390 . S
C831 H835 0.950 . S
H832 C828 0.950 . S
C833 C831 1.390 . S
C833 C834 1.387 . S
C833 H836 0.950 . S
C834 C833 1.387 . S
C834 C837 1.387 . S
H835 C831 0.950 . S
H836 C833 0.950 . S
C837 C828 1.390 . S
C837 H830 0.950 . S
C837 C834 1.387 . S
C838 C839 1.387 . S
C838 H842 0.950 . S
C838 C847 1.390 . S
C839 C838 1.387 . S
C839 C841 1.387 . S
H840 C847 0.950 . S
C841 C839 1.387 . S
C841 C843 1.390 . S
C841 H845 0.950 . S
H842 C838 0.950 . S
C843 C841 1.390 . S
C843 C844 1.387 . S
C843 H846 0.950 . S
C844 C843 1.387 . S
C844 C847 1.387 . S
H845 C841 0.950 . S
H846 C843 0.950 . S
C847 C838 1.390 . S
C847 H840 0.950 . S
C847 C844 1.387 . S
C848 C849 1.387 . S
C848 H852 0.950 . S
C848 C857 1.390 1_545 S
C849 C848 1.387 . S
C849 C851 1.387 . S
H850 C857 0.950 . S
C851 C849 1.387 . S
C851 C853 1.390 1_545 S
C851 H855 0.950 . S
H852 C848 0.950 . S
C853 C851 1.390 1_565 S
C853 C854 1.387 . S
C853 H856 0.950 . S
C854 C853 1.387 . S
C854 C857 1.387 . S
H855 C851 0.950 . S
H856 C853 0.950 . S
C857 C848 1.390 1_565 S
C857 H850 0.950 . S
C857 C854 1.387 . S
C858 C859 1.387 . S
C858 H862 0.950 . S
C858 C867 1.390 1_655 S
C859 C858 1.387 . S
C859 C861 1.387 . S
H860 C867 0.950 . S
C861 C859 1.387 . S
C861 C863 1.390 1_655 S
C861 H865 0.950 . S
H862 C858 0.950 . S
C863 C861 1.390 1_455 S
C863 C864 1.387 . S
C863 H866 0.950 . S
C864 C863 1.387 . S
C864 C867 1.387 . S
H865 C861 0.950 . S
H866 C863 0.950 . S
C867 C858 1.390 1_455 S
C867 H860 0.950 . S
C867 C864 1.387 . S
C868 C869 1.387 . S
C868 H872 0.950 . S
C868 C877 1.390 1_565 S
C869 C868 1.387 . S
C869 C871 1.387 . S
H870 C877 0.950 . S
C871 C869 1.387 . S
C871 C873 1.390 1_565 S
C871 H875 0.950 . S
H872 C868 0.950 . S
C873 C871 1.390 1_545 S
C873 C874 1.387 . S
C873 H876 0.950 . S
C874 C873 1.387 . S
C874 C877 1.387 . S
H875 C871 0.950 . S
H876 C873 0.950 . S
C877 C868 1.390 1_545 S
C877 H870 0.950 . S
C877 C874 1.387 . S
C878 C879 1.387 . S
C878 H882 0.950 . S
C878 C887 1.390 1_655 S
C879 C878 1.387 . S
C879 C881 1.387 . S
H880 C887 0.950 . S
C881 C879 1.387 . S
C881 C883 1.390 1_655 S
C881 H885 0.950 . S
H882 C878 0.950 . S
C883 C881 1.390 1_455 S
C883 C884 1.387 . S
C883 H886 0.950 . S
C884 C883 1.387 . S
C884 C887 1.387 . S
H885 C881 0.950 . S
H886 C883 0.950 . S
C887 C878 1.390 1_455 S
C887 H880 0.950 . S
C887 C884 1.387 . S
C888 C889 1.387 . S
C888 H892 0.950 . S
C888 C897 1.390 1_556 S
C889 C888 1.387 . S
C889 C891 1.387 . S
H890 C897 0.950 . S
C891 C889 1.387 . S
C891 C893 1.390 1_556 S
C891 H895 0.950 . S
H892 C888 0.950 . S
C893 C891 1.390 1_554 S
C893 C894 1.387 . S
C893 H896 0.950 . S
C894 C893 1.387 . S
C894 C897 1.387 . S
H895 C891 0.950 . S
H896 C893 0.950 . S
C897 C888 1.390 1_554 S
C897 H890 0.950 . S
C897 C894 1.387 . S
C898 C899 1.387 . S
C898 H902 0.950 . S
C898 C907 1.390 1_556 S
C899 C898 1.387 . S
C899 C901 1.387 . S
H900 C907 0.950 . S
C901 C899 1.387 . S
C901 C903 1.390 1_556 S
C901 H905 0.950 . S
H902 C898 0.950 . S
C903 C901 1.390 1_554 S
C903 C904 1.387 . S
C903 H906 0.950 . S
C904 C903 1.387 . S
C904 C907 1.387 . S
H905 C901 0.950 . S
H906 C903 0.950 . S
C907 C898 1.390 1_554 S
C907 H900 0.950 . S
C907 C904 1.387 . S
C908 C909 1.387 . S
C908 H912 0.950 . S
C908 C917 1.390 1_554 S
C909 C908 1.387 . S
C909 C911 1.387 . S
H910 C917 0.950 . S
C911 C909 1.387 . S
C911 C913 1.390 1_554 S
C911 H915 0.950 . S
H912 C908 0.950 . S
C913 C911 1.390 1_556 S
C913 C914 1.387 . S
C913 H916 0.950 . S
C914 C913 1.387 . S
C914 C917 1.387 . S
H915 C911 0.950 . S
H916 C913 0.950 . S
C917 C908 1.390 1_556 S
C917 H910 0.950 . S
C917 C914 1.387 . S
C918 C919 1.387 . S
C918 H922 0.950 . S
C918 C927 1.390 1_556 S
C919 C918 1.387 . S
C919 C921 1.387 . S
H920 C927 0.950 . S
C921 C919 1.387 . S
C921 C923 1.390 1_556 S
C921 H925 0.950 . S
H922 C918 0.950 . S
C923 C921 1.390 1_554 S
C923 C924 1.387 . S
C923 H926 0.950 . S
C924 C923 1.387 . S
C924 C927 1.387 . S
H925 C921 0.950 . S
H926 C923 0.950 . S
C927 C918 1.390 1_554 S
C927 H920 0.950 . S
C927 C924 1.387 . S
C529 C8 2.019 1_565 S
C534 N104 1.811 . S
C539 N5 1.809 . S
C544 C41 2.018 1_455 S
C549 C74 2.019 1_545 S
C554 N38 1.811 . S
C559 N71 1.809 . S
C564 C107 2.018 1_655 S
C569 N170 1.808 . S
C574 C140 2.018 1_545 S
C579 N203 1.810 . S
C584 C173 2.019 1_655 S
C589 N236 1.807 . S
C594 C206 2.018 1_565 S
C599 C239 2.019 1_455 S
C604 N137 1.810 . S
C609 C272 2.018 . S
C614 N368 1.807 . S
C619 C305 2.018 . S
C624 N269 1.808 . S
C629 C338 2.018 . S
C634 N302 1.807 . S
C639 N335 1.809 . S
C644 C371 2.018 . S
C649 N434 1.808 . S
C654 C404 2.018 . S
C659 C437 2.019 . S
C664 N467 1.810 . S
C669 C470 2.018 . S
C674 N500 1.807 . S
C679 C503 2.019 . S
C684 N401 1.811 . S
C689 C28 0.899 . S
C694 C193 0.896 . S
C699 C61 0.899 . S
C704 C226 0.896 . S
C709 C259 0.900 . S
C714 C94 0.897 . S
C719 C127 0.899 . S
C724 C160 0.896 . S
C729 C292 0.900 . S
C734 C457 0.899 . S
C739 C325 0.899 . S
C744 C490 0.896 . S
C749 C358 0.898 . S
C754 C523 0.900 . S
C759 C391 0.899 . S
C764 C424 0.899 . S
C769 C17 1.299 . S
C774 C512 1.299 . S
C779 C413 1.295 . S
C784 C50 1.297 . S
C789 C83 1.299 . S
C794 C446 1.297 . S
C799 C116 1.296 . S
C804 C479 1.294 . S
C809 C314 1.298 . S
C814 C149 1.299 . S
C819 C347 1.299 . S
C824 C182 1.297 . S
C829 C380 1.299 . S
C834 C215 1.299 . S
C839 C281 1.299 . S
C844 C248 1.299 . S
C849 N14 1.207 . S
C854 N146 1.207 . S
C859 N47 1.203 . S
C864 N179 1.203 . S
C869 N80 1.203 . S
C874 N212 1.203 . S
C879 N245 1.207 . S
C884 N113 1.207 . S
C889 N278 1.207 . S
C894 N410 1.207 . S
C899 N311 1.207 . S
C904 N443 1.207 . S
C909 N476 1.203 . S
C914 N344 1.203 . S
C919 N377 1.203 . S
C924 N509 1.203 . S
