# Generated by pormake.
# Topology bcs, (6)-cn, num edge types: 1
# Building blocks:
#     Node 0, Type 0, BuildingBlock: CUKXOW_clean_sbu_0, # of connection points: 6
#     Node 1, Type 0, BuildingBlock: CUKXOW_clean_sbu_0, # of connection points: 6
#     Node 2, Type 0, BuildingBlock: CUKXOW_clean_sbu_0, # of connection points: 6
#     Node 3, Type 0, BuildingBlock: CUKXOW_clean_sbu_0, # of connection points: 6
#     Node 4, Type 0, BuildingBlock: CUKXOW_clean_sbu_0, # of connection points: 6
#     Node 5, Type 0, BuildingBlock: CUKXOW_clean_sbu_0, # of connection points: 6
#     Node 6, Type 0, BuildingBlock: CUKXOW_clean_sbu_0, # of connection points: 6
#     Node 7, Type 0, BuildingBlock: CUKXOW_clean_sbu_0, # of connection points: 6
#     Node 8, Type 0, BuildingBlock: CUKXOW_clean_sbu_0, # of connection points: 6
#     Node 9, Type 0, BuildingBlock: CUKXOW_clean_sbu_0, # of connection points: 6
#     Node 10, Type 0, BuildingBlock: CUKXOW_clean_sbu_0, # of connection points: 6
#     Node 11, Type 0, BuildingBlock: CUKXOW_clean_sbu_0, # of connection points: 6
#     Node 12, Type 0, BuildingBlock: CUKXOW_clean_sbu_0, # of connection points: 6
#     Node 13, Type 0, BuildingBlock: CUKXOW_clean_sbu_0, # of connection points: 6
#     Node 14, Type 0, BuildingBlock: CUKXOW_clean_sbu_0, # of connection points: 6
#     Node 15, Type 0, BuildingBlock: CUKXOW_clean_sbu_0, # of connection points: 6
#     Edge 16, Type (0, 0), BuildingBlock: EZIPEK_clean_linker_0, # of connection points: 2
#     Edge 17, Type (0, 0), BuildingBlock: EZIPEK_clean_linker_0, # of connection points: 2
#     Edge 18, Type (0, 0), BuildingBlock: EZIPEK_clean_linker_0, # of connection points: 2
#     Edge 19, Type (0, 0), BuildingBlock: EZIPEK_clean_linker_0, # of connection points: 2
#     Edge 20, Type (0, 0), BuildingBlock: EZIPEK_clean_linker_0, # of connection points: 2
#     Edge 21, Type (0, 0), BuildingBlock: EZIPEK_clean_linker_0, # of connection points: 2
#     Edge 22, Type (0, 0), BuildingBlock: EZIPEK_clean_linker_0, # of connection points: 2
#     Edge 23, Type (0, 0), BuildingBlock: EZIPEK_clean_linker_0, # of connection points: 2
#     Edge 24, Type (0, 0), BuildingBlock: EZIPEK_clean_linker_0, # of connection points: 2
#     Edge 25, Type (0, 0), BuildingBlock: EZIPEK_clean_linker_0, # of connection points: 2
#     Edge 26, Type (0, 0), BuildingBlock: EZIPEK_clean_linker_0, # of connection points: 2
#     Edge 27, Type (0, 0), BuildingBlock: EZIPEK_clean_linker_0, # of connection points: 2
#     Edge 28, Type (0, 0), BuildingBlock: EZIPEK_clean_linker_0, # of connection points: 2
#     Edge 29, Type (0, 0), BuildingBlock: EZIPEK_clean_linker_0, # of connection points: 2
#     Edge 30, Type (0, 0), BuildingBlock: EZIPEK_clean_linker_0, # of connection points: 2
#     Edge 31, Type (0, 0), BuildingBlock: EZIPEK_clean_linker_0, # of connection points: 2
#     Edge 32, Type (0, 0), BuildingBlock: EZIPEK_clean_linker_0, # of connection points: 2
#     Edge 33, Type (0, 0), BuildingBlock: EZIPEK_clean_linker_0, # of connection points: 2
#     Edge 34, Type (0, 0), BuildingBlock: EZIPEK_clean_linker_0, # of connection points: 2
#     Edge 35, Type (0, 0), BuildingBlock: EZIPEK_clean_linker_0, # of connection points: 2
#     Edge 36, Type (0, 0), BuildingBlock: EZIPEK_clean_linker_0, # of connection points: 2
#     Edge 37, Type (0, 0), BuildingBlock: EZIPEK_clean_linker_0, # of connection points: 2
#     Edge 38, Type (0, 0), BuildingBlock: EZIPEK_clean_linker_0, # of connection points: 2
#     Edge 39, Type (0, 0), BuildingBlock: EZIPEK_clean_linker_0, # of connection points: 2
#     Edge 40, Type (0, 0), BuildingBlock: EZIPEK_clean_linker_0, # of connection points: 2
#     Edge 41, Type (0, 0), BuildingBlock: EZIPEK_clean_linker_0, # of connection points: 2
#     Edge 42, Type (0, 0), BuildingBlock: EZIPEK_clean_linker_0, # of connection points: 2
#     Edge 43, Type (0, 0), BuildingBlock: EZIPEK_clean_linker_0, # of connection points: 2
#     Edge 44, Type (0, 0), BuildingBlock: EZIPEK_clean_linker_0, # of connection points: 2
#     Edge 45, Type (0, 0), BuildingBlock: EZIPEK_clean_linker_0, # of connection points: 2
#     Edge 46, Type (0, 0), BuildingBlock: EZIPEK_clean_linker_0, # of connection points: 2
#     Edge 47, Type (0, 0), BuildingBlock: EZIPEK_clean_linker_0, # of connection points: 2
#     Edge 48, Type (0, 0), BuildingBlock: EZIPEK_clean_linker_0, # of connection points: 2
#     Edge 49, Type (0, 0), BuildingBlock: EZIPEK_clean_linker_0, # of connection points: 2
#     Edge 50, Type (0, 0), BuildingBlock: EZIPEK_clean_linker_0, # of connection points: 2
#     Edge 51, Type (0, 0), BuildingBlock: EZIPEK_clean_linker_0, # of connection points: 2
#     Edge 52, Type (0, 0), BuildingBlock: EZIPEK_clean_linker_0, # of connection points: 2
#     Edge 53, Type (0, 0), BuildingBlock: EZIPEK_clean_linker_0, # of connection points: 2
#     Edge 54, Type (0, 0), BuildingBlock: EZIPEK_clean_linker_0, # of connection points: 2
#     Edge 55, Type (0, 0), BuildingBlock: EZIPEK_clean_linker_0, # of connection points: 2
#     Edge 56, Type (0, 0), BuildingBlock: EZIPEK_clean_linker_0, # of connection points: 2
#     Edge 57, Type (0, 0), BuildingBlock: EZIPEK_clean_linker_0, # of connection points: 2
#     Edge 58, Type (0, 0), BuildingBlock: EZIPEK_clean_linker_0, # of connection points: 2
#     Edge 59, Type (0, 0), BuildingBlock: EZIPEK_clean_linker_0, # of connection points: 2
#     Edge 60, Type (0, 0), BuildingBlock: EZIPEK_clean_linker_0, # of connection points: 2
#     Edge 61, Type (0, 0), BuildingBlock: EZIPEK_clean_linker_0, # of connection points: 2
#     Edge 62, Type (0, 0), BuildingBlock: EZIPEK_clean_linker_0, # of connection points: 2
#     Edge 63, Type (0, 0), BuildingBlock: EZIPEK_clean_linker_0, # of connection points: 2
# Relax obj value: 0.178
# Max RMSD: 0.224
# Mean RMSD: 0.179
data_MOF--net-bcs--node1-CUKXOW_clean_sbu_0--edge1-EZIPEK_clean_linker_0
_symmetry_space_group_name_H-M    P1
_symmetry_Int_Tables_number       1
_symmetry_cell_setting            triclinic
loop_
_symmetry_equiv_pos_as_xyz
'x, y, z'
_cell_length_a     25.233587
_cell_length_b     28.398867
_cell_length_c     27.143385
_cell_angle_alpha  95.543074
_cell_angle_beta   95.476563
_cell_angle_gamma 87.240315
loop_
_atom_site_label
_atom_site_type_symbol
_atom_site_fract_x
_atom_site_fract_y
_atom_site_fract_z
_atom_type_partial_charge
Tb0 Tb 0.99484 0.97964 0.96357 0.0
C1 C 0.0799 0.05585 0.97063 0.0
Tb2 Tb 0.99677 0.03419 0.03869 0.0
O3 O 0.92147 0.00683 0.92258 0.0
O4 O 0.96977 0.05477 0.96417 0.0
O5 O 0.07121 0.01132 0.95531 0.0
C6 C 0.95738 0.10003 0.10138 0.0
O7 O 0.04948 0.07674 0.00338 0.0
C8 C 0.06975 0.96525 0.06569 0.0
C9 C 0.91348 0.95521 0.03459 0.0
O10 O 0.00787 0.09072 0.0988 0.0
O11 O 0.92977 0.07185 0.06986 0.0
O12 O 0.07158 0.01046 0.07863 0.0
O13 O 0.02551 0.96016 0.03793 0.0
O14 O 0.93422 0.99192 0.06148 0.0
O15 O 0.92886 0.94447 0.98982 0.0
C16 C 0.02388 0.91085 0.89558 0.0
O17 O 0.00648 0.90478 0.93742 0.0
O18 O 0.02393 0.95576 0.89177 0.0
C19 C 0.92641 0.05187 0.93505 0.0
Tb20 Tb 0.20574 0.76115 0.26976 0.0
C21 C 0.20581 0.68949 0.17698 0.0
Tb22 Tb 0.28444 0.7561 0.23117 0.0
O23 O 0.17371 0.83159 0.25064 0.0
O24 O 0.21036 0.78813 0.19725 0.0
O25 O 0.18776 0.69722 0.22081 0.0
C26 C 0.36285 0.79274 0.19309 0.0
O27 O 0.24547 0.71435 0.168 0.0
C28 C 0.30433 0.68529 0.2921 0.0
C29 C 0.28502 0.82747 0.32563 0.0
O30 O 0.3542 0.74785 0.18844 0.0
O31 O 0.32716 0.81617 0.21717 0.0
O32 O 0.3187 0.68627 0.24759 0.0
O33 O 0.27905 0.72536 0.30173 0.0
O34 O 0.31233 0.81011 0.28906 0.0
O35 O 0.23729 0.81273 0.32775 0.0
C36 C 0.12598 0.73575 0.31787 0.0
O37 O 0.16889 0.75485 0.33798 0.0
O38 O 0.12685 0.73384 0.27033 0.0
C39 C 0.18652 0.82876 0.20537 0.0
Tb40 Tb 0.49265 0.02918 0.46578 0.0
C41 C 0.41315 0.94994 0.46556 0.0
Tb42 Tb 0.50565 0.98383 0.53779 0.0
O43 O 0.56418 1.00664 0.42784 0.0
O44 O 0.52984 0.95684 0.46351 0.0
O45 O 0.41968 0.99065 0.44871 0.0
C46 C 0.54834 0.9279 0.60597 0.0
O47 O 0.44535 0.93705 0.50281 0.0
C48 C 0.43365 0.05318 0.5681 0.0
C49 C 0.58781 0.06057 0.53586 0.0
O50 O 0.51094 0.91685 0.57177 0.0
O51 O 0.56102 0.97073 0.60246 0.0
O52 O 0.43524 0.00909 0.57682 0.0
O53 O 0.47261 0.05695 0.5413 0.0
O54 O 0.57893 0.02152 0.55522 0.0
O55 O 0.5574 0.07261 0.49703 0.0
C56 C 0.4491 0.08819 0.40043 0.0
O57 O 0.47196 0.10026 0.44394 0.0
O58 O 0.45106 0.04256 0.39315 0.0
C59 C 0.56958 0.96285 0.43807 0.0
Tb60 Tb 0.25319 0.29299 0.71781 0.0
C61 C 0.33928 0.29105 0.8091 0.0
Tb62 Tb 0.25185 0.2162 0.79289 0.0
O63 O 0.19588 0.34631 0.75344 0.0
O64 O 0.21575 0.28576 0.7851 0.0
O65 O 0.33016 0.29667 0.7613 0.0
C66 C 0.21279 0.16486 0.86002 0.0
O67 O 0.31081 0.26321 0.83203 0.0
C68 C 0.3176 0.18324 0.72009 0.0
C69 C 0.16977 0.21515 0.69671 0.0
O70 O 0.22887 0.20803 0.86865 0.0
O71 O 0.22107 0.15064 0.81445 0.0
O72 O 0.30992 0.1632 0.76002 0.0
O73 O 0.29003 0.22285 0.72554 0.0
O74 O 0.17853 0.20738 0.74416 0.0
O75 O 0.19668 0.24564 0.67585 0.0
C76 C 0.29172 0.34697 0.65303 0.0
O77 O 0.26357 0.30956 0.64088 0.0
O78 O 0.29594 0.3543 0.70109 0.0
C79 C 0.18851 0.32499 0.79256 0.0
Tb80 Tb 0.96416 0.99253 0.552 0.0
C81 C 0.95271 0.93883 0.44566 0.0
Tb82 Tb 0.0227 0.02919 0.46552 0.0
O83 O 0.88651 0.0144 0.51378 0.0
O84 O 0.95604 0.04604 0.50401 0.0
O85 O 0.9605 0.93442 0.49387 0.0
C86 C 0.0625 0.08153 0.40224 0.0
O87 O 0.96795 0.97676 0.42572 0.0
C88 C 0.06805 0.95759 0.50765 0.0
C89 C 0.03358 0.08237 0.57732 0.0
O90 O 0.012 0.07538 0.40454 0.0
O91 O 0.09028 0.05815 0.43516 0.0
O92 O 0.0748 0.96558 0.46239 0.0
O93 O 0.0418 0.99154 0.52784 0.0
O94 O 0.04243 0.08172 0.52939 0.0
O95 O 0.00538 0.05054 0.5955 0.0
C96 C 0.93325 0.94297 0.62235 0.0
O97 O 0.97527 0.93338 0.59837 0.0
O98 O 0.91065 0.98253 0.60902 0.0
C99 C 0.90814 0.0437 0.48867 0.0
Tb100 Tb 0.23641 0.79867 0.71224 0.0
C101 C 0.17387 0.70343 0.70576 0.0
Tb102 Tb 0.26039 0.73067 0.78864 0.0
O103 O 0.31499 0.78326 0.68567 0.0
O104 O 0.27469 0.73154 0.71403 0.0
O105 O 0.17332 0.74775 0.69408 0.0
C106 C 0.3133 0.67272 0.84536 0.0
O107 O 0.2078 0.68669 0.74031 0.0
C108 C 0.17835 0.78803 0.8028 0.0
C109 C 0.3235 0.82386 0.79616 0.0
O110 O 0.31523 0.67096 0.79784 0.0
O111 O 0.28057 0.70601 0.86122 0.0
O112 O 0.18277 0.74551 0.81711 0.0
O113 O 0.22124 0.79751 0.78668 0.0
O114 O 0.3249 0.77905 0.80525 0.0
O115 O 0.28862 0.84197 0.76302 0.0
C116 C 0.18903 0.85643 0.65097 0.0
O117 O 0.18063 0.85746 0.69737 0.0
O118 O 0.22393 0.82354 0.63909 0.0
C119 C 0.31818 0.74031 0.69875 0.0
Tb120 Tb 0.49556 0.04863 0.95853 0.0
C121 C 0.56018 0.07451 0.06343 0.0
Tb122 Tb 0.49669 0.98267 0.04506 0.0
O123 O 0.43198 0.09931 0.98312 0.0
O124 O 0.45273 0.03863 0.01622 0.0
O125 O 0.55547 0.07865 0.01485 0.0
C126 C 0.46914 0.92986 0.11142 0.0
O127 O 0.53523 0.04304 0.08477 0.0
C128 C 0.57716 0.97226 0.99048 0.0
C129 C 0.43528 0.95434 0.93785 0.0
O130 O 0.45238 0.97352 0.10804 0.0
O131 O 0.50143 0.91654 0.07811 0.0
O132 O 0.58005 0.9623 0.03648 0.0
O133 O 0.52961 0.98311 0.97735 0.0
O134 O 0.44406 0.94648 0.98571 0.0
O135 O 0.45353 0.9908 0.91854 0.0
C136 C 0.52432 0.09095 0.88566 0.0
O137 O 0.47507 0.08536 0.89297 0.0
O138 O 0.55693 0.07119 0.91811 0.0
C139 C 0.42288 0.0748 0.01905 0.0
Tb140 Tb 0.26317 0.21606 0.22266 0.0
C141 C 0.31853 0.31424 0.22158 0.0
Tb142 Tb 0.23797 0.30067 0.30305 0.0
O143 O 0.19612 0.23279 0.16722 0.0
O144 O 0.21137 0.27338 0.23243 0.0
O145 O 0.31866 0.26818 0.20606 0.0
C146 C 0.19049 0.37989 0.33875 0.0
O147 O 0.29037 0.33396 0.25771 0.0
C148 C 0.30685 0.23605 0.33223 0.0
C149 C 0.17459 0.20383 0.29399 0.0
O150 O 0.2412 0.36946 0.34715 0.0
O151 O 0.16739 0.34449 0.31308 0.0
O152 O 0.27991 0.26349 0.36316 0.0
O153 O 0.29863 0.2498 0.28946 0.0
O154 O 0.17722 0.24942 0.31127 0.0
O155 O 0.21088 0.18251 0.26633 0.0
C156 C 0.30615 0.14076 0.17598 0.0
O157 O 0.30948 0.14932 0.22404 0.0
O158 O 0.27984 0.1749 0.15501 0.0
C159 C 0.18037 0.27051 0.19372 0.0
Tb160 Tb 0.45724 0.49138 0.04316 0.0
C161 C 0.45841 0.42915 0.93853 0.0
Tb162 Tb 0.53068 0.51722 0.96068 0.0
O163 O 0.38704 0.52326 0.00313 0.0
O164 O 0.46332 0.54452 0.99535 0.0
O165 O 0.45102 0.43121 0.98645 0.0
C166 C 0.56939 0.56535 0.8939 0.0
O167 O 0.48355 0.46183 0.91852 0.0
C168 C 0.57057 0.44467 0.00675 0.0
C169 C 0.53669 0.57592 0.06919 0.0
O170 O 0.51982 0.55381 0.89261 0.0
O171 O 0.59678 0.54874 0.93175 0.0
O172 O 0.59337 0.46301 0.97243 0.0
O173 O 0.5285 0.46892 0.01325 0.0
O174 O 0.55458 0.56709 0.02444 0.0
O175 O 0.49816 0.55163 0.08441 0.0
C176 C 0.41495 0.44981 0.11381 0.0
O177 O 0.4645 0.46113 0.11518 0.0
O178 O 0.38913 0.46486 0.07435 0.0
C179 C 0.41565 0.5474 0.97817 0.0
Tb180 Tb 0.74633 0.29622 0.21303 0.0
C181 C 0.68704 0.19829 0.20172 0.0
Tb182 Tb 0.77226 0.22342 0.2894 0.0
O183 O 0.82653 0.28681 0.18885 0.0
O184 O 0.79123 0.23224 0.21711 0.0
O185 O 0.69102 0.24099 0.18664 0.0
C186 C 0.82103 0.15642 0.33787 0.0
O187 O 0.71433 0.18311 0.24165 0.0
C188 C 0.69173 0.27862 0.31511 0.0
C189 C 0.83162 0.32129 0.29783 0.0
O190 O 0.80831 0.15225 0.2903 0.0
O191 O 0.80706 0.19793 0.35754 0.0
O192 O 0.71064 0.24398 0.34014 0.0
O193 O 0.71786 0.2792 0.2782 0.0
O194 O 0.83277 0.27646 0.30804 0.0
O195 O 0.79341 0.33907 0.26768 0.0
C196 C 0.69679 0.35334 0.15275 0.0
O197 O 0.70106 0.36168 0.20078 0.0
O198 O 0.72149 0.31397 0.13906 0.0
C199 C 0.83405 0.24435 0.20302 0.0
Tb200 Tb 0.00471 0.53876 0.46582 0.0
C201 C 0.05797 0.56611 0.57539 0.0
Tb202 Tb 0.99574 0.47421 0.54712 0.0
O203 O 0.95103 0.59387 0.49588 0.0
O204 O 0.94575 0.52325 0.51002 0.0
O205 O 0.04976 0.57661 0.52849 0.0
C206 C 0.9689 0.42699 0.61755 0.0
O207 O 0.04161 0.52724 0.59106 0.0
C208 C 0.0706 0.45027 0.48899 0.0
C209 C 0.93611 0.4499 0.44316 0.0
O210 O 0.95514 0.47123 0.61362 0.0
O211 O 5e-05 0.41113 0.58418 0.0
O212 O 0.04709 0.41984 0.51105 0.0
O213 O 0.05521 0.49128 0.50393 0.0
O214 O 0.93275 0.45051 0.49146 0.0
O215 O 0.968 0.47783 0.42436 0.0
C216 C 0.03712 0.58187 0.39439 0.0
O217 O 0.98781 0.58095 0.40377 0.0
O218 O 0.0675 0.55609 0.42318 0.0
C219 C 0.93062 0.56513 0.52244 0.0
Tb220 Tb 0.75141 0.79 0.2203 0.0
C221 C 0.8336 0.79782 0.3161 0.0
Tb222 Tb 0.75092 0.72074 0.28399 0.0
O223 O 0.68118 0.83214 0.24611 0.0
O224 O 0.72883 0.79648 0.2969 0.0
O225 O 0.81793 0.81381 0.27287 0.0
C226 C 0.70838 0.66853 0.34851 0.0
O227 O 0.81189 0.76048 0.33005 0.0
C228 C 0.81537 0.68776 0.21121 0.0
C229 C 0.66562 0.7143 0.19087 0.0
O230 O 0.7572 0.66437 0.33632 0.0
O231 O 0.68473 0.70206 0.32473 0.0
O232 O 0.82304 0.68241 0.25851 0.0
O233 O 0.77158 0.71338 0.20653 0.0
O234 O 0.68343 0.69761 0.23321 0.0
O235 O 0.68798 0.75097 0.17598 0.0
C236 C 0.79722 0.84154 0.15644 0.0
O237 O 0.74636 0.83991 0.16106 0.0
O238 O 0.82112 0.81461 0.1882 0.0
C239 C 0.68521 0.82215 0.29226 0.0
Tb240 Tb 0.70889 0.25752 0.76433 0.0
C241 C 0.71384 0.1871 0.67017 0.0
Tb242 Tb 0.78406 0.25745 0.72833 0.0
O243 O 0.6799 0.33145 0.75185 0.0
O244 O 0.71081 0.29009 0.69436 0.0
O245 O 0.68663 0.19952 0.70849 0.0
C246 C 0.85793 0.28746 0.68009 0.0
O247 O 0.758 0.20798 0.6667 0.0
C248 C 0.81612 0.19959 0.80174 0.0
C249 C 0.78737 0.32019 0.82172 0.0
O250 O 0.84653 0.24325 0.67754 0.0
O251 O 0.82833 0.31339 0.70855 0.0
O252 O 0.84387 0.23048 0.78476 0.0
O253 O 0.77019 0.20105 0.7764 0.0
O254 O 0.79047 0.32393 0.77492 0.0
O255 O 0.75836 0.28597 0.82968 0.0
C256 C 0.62713 0.23635 0.8117 0.0
O257 O 0.67155 0.25207 0.83236 0.0
O258 O 0.62774 0.23574 0.76427 0.0
C259 C 0.6883 0.33062 0.70535 0.0
Tb260 Tb 0.75789 0.717 0.7116 0.0
C261 C 0.81878 0.81315 0.72136 0.0
Tb262 Tb 0.72747 0.79529 0.78881 0.0
O263 O 0.71489 0.75245 0.65091 0.0
O264 O 0.69173 0.7629 0.72255 0.0
O265 O 0.82102 0.76679 0.70792 0.0
C266 C 0.68536 0.87156 0.83611 0.0
O267 O 0.7787 0.83245 0.74574 0.0
C268 C 0.79971 0.73532 0.82263 0.0
C269 C 0.67552 0.69436 0.78619 0.0
O270 O 0.66395 0.84952 0.79555 0.0
O271 O 0.73069 0.85106 0.84922 0.0
O272 O 0.76921 0.76193 0.85059 0.0
O273 O 0.79404 0.74858 0.77925 0.0
O274 O 0.67551 0.73946 0.80537 0.0
O275 O 0.70325 0.67858 0.74855 0.0
C276 C 0.79593 0.63884 0.66492 0.0
O277 O 0.79531 0.64638 0.71272 0.0
O278 O 0.77543 0.67536 0.6439 0.0
C279 C 0.68445 0.77753 0.68014 0.0
Tb280 Tb 0.49727 0.4802 0.46443 0.0
C281 C 0.57857 0.56095 0.4629 0.0
Tb282 Tb 0.49799 0.53893 0.53509 0.0
O283 O 0.42183 0.50276 0.42359 0.0
O284 O 0.47144 0.55419 0.45818 0.0
O285 O 0.56034 0.52125 0.43972 0.0
C286 C 0.44716 0.60991 0.58456 0.0
O287 O 0.55896 0.57701 0.50474 0.0
C288 C 0.5684 0.46986 0.56849 0.0
C289 C 0.41915 0.45751 0.53918 0.0
O290 O 0.49806 0.59992 0.59168 0.0
O291 O 0.4262 0.57749 0.55338 0.0
O292 O 0.5707 0.51541 0.58003 0.0
O293 O 0.52453 0.46499 0.54039 0.0
O294 O 0.43361 0.49944 0.55957 0.0
O295 O 0.44161 0.43954 0.49937 0.0
C296 C 0.54896 0.41145 0.41246 0.0
O297 O 0.49745 0.41861 0.40848 0.0
O298 O 0.56942 0.44545 0.44186 0.0
C299 C 0.42724 0.54837 0.4306 0.0
Tb300 Tb 0.99016 0.53014 0.9599 0.0
C301 C 0.91572 0.44825 0.95808 0.0
Tb302 Tb 0.00698 0.47471 0.03797 0.0
O303 O 0.04068 0.49546 0.90218 0.0
O304 O 0.03947 0.46483 0.96709 0.0
O305 O 0.91644 0.49278 0.94945 0.0
C306 C 0.04888 0.40469 0.08958 0.0
O307 O 0.952 0.43077 0.98989 0.0
C308 C 0.93761 0.54246 0.07574 0.0
C309 C 0.0781 0.55969 0.04163 0.0
O310 O 0.01154 0.4005 0.05363 0.0
O311 O 0.05986 0.44897 0.09818 0.0
O312 O 0.95837 0.50578 0.09645 0.0
O313 O 0.9557 0.54006 0.03212 0.0
O314 O 0.07924 0.51451 0.04859 0.0
O315 O 0.04092 0.57669 0.01017 0.0
C316 C 0.9481 0.59317 0.89898 0.0
O317 O 0.98946 0.59968 0.93074 0.0
O318 O 0.93148 0.55126 0.90135 0.0
C319 C 0.05883 0.45902 0.92469 0.0
C320 C 0.12926 0.12181 0.86785 0.0
C321 C 0.17791 0.14019 0.89094 0.0
C322 C 0.15972 0.10762 0.96899 0.0
C323 C 0.11465 0.08449 0.94363 0.0
N324 N 0.0583 0.06753 0.86734 0.0
N325 N 0.23923 0.15233 0.96419 0.0
C326 C 0.10034 0.09074 0.89257 0.0
C327 C 0.19279 0.13402 0.942 0.0
N328 N 0.10801 0.13732 0.82369 0.0
N329 N 0.17117 0.10364 0.01874 0.0
H330 H 0.26388 0.17162 0.94565 0.0
H331 H 0.25492 0.14723 1.00018 0.0
H332 H 0.14965 0.08269 0.03858 0.0
H333 H 0.20056 0.122 0.04112 0.0
H334 H 0.07011 0.12933 0.80731 0.0
H335 H 0.12508 0.16315 0.80624 0.0
H336 H 0.0514 0.06448 0.82873 0.0
H337 H 0.0315 0.04921 0.88437 0.0
C338 C 0.15049 0.93961 0.12864 0.0
C339 C 0.10314 0.927 0.09671 0.0
C340 C 0.11217 0.84828 0.13428 0.0
C341 C 0.15914 0.86114 0.16563 0.0
N342 N 0.22696 0.9178 0.18587 0.0
N343 N 0.05251 0.86032 0.06001 0.0
C344 C 0.17886 0.90662 0.16093 0.0
C345 C 0.08791 0.87877 0.09714 0.0
N346 N 0.16987 0.98349 0.12788 0.0
N347 N 0.08932 0.80695 0.14068 0.0
H348 H 0.03832 0.87865 0.02986 0.0
H349 H 0.04304 0.82479 0.05524 0.0
H350 H 0.10618 0.78351 0.16566 0.0
H351 H 0.05174 0.7978 0.12433 0.0
H352 H 0.19454 0.99953 0.15698 0.0
H353 H 0.16191 1.00368 0.09782 0.0
H354 H 0.24801 0.94717 0.18029 0.0
H355 H 0.24819 0.89556 0.20982 0.0
C356 C 0.32394 0.93229 0.41914 0.0
C357 C 0.37584 0.91611 0.43688 0.0
C358 C 0.35945 0.83836 0.39199 0.0
C359 C 0.3122 0.85709 0.3675 0.0
N360 N 0.25077 0.92331 0.35443 0.0
N361 N 0.44633 0.8549 0.4315 0.0
C362 C 0.29433 0.90436 0.38049 0.0
C363 C 0.39426 0.86922 0.42172 0.0
N364 N 0.30265 0.97383 0.43991 0.0
N365 N 0.37155 0.79084 0.3867 0.0
H366 H 0.47499 0.87639 0.45035 0.0
H367 H 0.46271 0.82316 0.41589 0.0
H368 H 0.34826 0.76702 0.36371 0.0
H369 H 0.40185 0.7746 0.40875 0.0
H370 H 0.26341 0.9856 0.43142 0.0
H371 H 0.32264 0.99408 0.46943 0.0
H372 H 0.23944 0.95914 0.35842 0.0
H373 H 0.22819 0.9038 0.32608 0.0
C374 C 0.33808 0.15645 0.6259 0.0
C375 C 0.35295 0.15854 0.67854 0.0
C376 C 0.42441 0.09556 0.65816 0.0
C377 C 0.40955 0.09325 0.6056 0.0
N378 N 0.35829 0.13073 0.54029 0.0
N379 N 0.42257 0.13832 0.74065 0.0
C380 C 0.36835 0.12676 0.59002 0.0
C381 C 0.39952 0.13016 0.69312 0.0
N382 N 0.29339 0.18143 0.60979 0.0
N383 N 0.46305 0.06438 0.67544 0.0
H384 H 0.40843 0.16478 0.76602 0.0
H385 H 0.4591 0.12314 0.75328 0.0
H386 H 0.48663 0.04297 0.65215 0.0
H387 H 0.47015 0.05824 0.71275 0.0
H388 H 0.2756 0.17765 0.57351 0.0
H389 H 0.27251 0.20442 0.63382 0.0
H390 H 0.33319 0.15692 0.52534 0.0
H391 H 0.37908 0.11003 0.51408 0.0
C392 C 0.15 0.94966 0.56401 0.0
C393 C 0.10488 0.92843 0.53726 0.0
C394 C 0.11298 0.86221 0.58787 0.0
C395 C 0.158 0.8832 0.61482 0.0
N396 N 0.21896 0.94655 0.63283 0.0
N397 N 0.05257 0.8602 0.51296 0.0
C398 C 0.17677 0.92681 0.60393 0.0
C399 C 0.08898 0.88334 0.54599 0.0
N400 N 0.16706 0.99119 0.55044 0.0
N401 N 0.09222 0.82315 0.60346 0.0
H402 H 0.03774 0.87392 0.47987 0.0
H403 H 0.04187 0.82557 0.51523 0.0
H404 H 0.10885 0.80677 0.63442 0.0
H405 H 0.05599 0.80947 0.58851 0.0
H406 H 0.20038 0.00855 0.56712 0.0
H407 H 0.14863 0.00795 0.52044 0.0
H408 H 0.23393 0.97924 0.62872 0.0
H409 H 0.23845 0.93068 0.66301 0.0
C410 C 0.39695 0.87904 0.81871 0.0
C411 C 0.35314 0.85595 0.83235 0.0
C412 C 0.36079 0.89894 0.9145 0.0
C413 C 0.40814 0.91858 0.90284 0.0
N414 N 0.47956 0.91539 0.84842 0.0
N415 N 0.29917 0.83631 0.89641 0.0
C416 C 0.42873 0.90532 0.85618 0.0
C417 C 0.33721 0.8631 0.88134 0.0
N418 N 0.40823 0.87609 0.77025 0.0
N419 N 0.33599 0.91647 0.95531 0.0
H420 H 0.27706 0.81194 0.8729 0.0
H421 H 0.29198 0.8361 0.93358 0.0
H422 H 0.35065 0.94378 0.98011 0.0
H423 H 0.29796 0.90722 0.96183 0.0
H424 H 0.43632 0.89688 0.75794 0.0
H425 H 0.38626 0.85624 0.74176 0.0
H426 H 0.49761 0.90242 0.81659 0.0
H427 H 0.50595 0.93178 0.87587 0.0
C428 C 0.40582 0.13025 0.09206 0.0
C429 C 0.39079 0.0902 0.06 0.0
C430 C 0.32361 0.07424 0.11448 0.0
C431 C 0.34382 0.11122 0.1486 0.0
N432 N 0.41411 0.16447 0.17683 0.0
N433 N 0.33266 0.02557 0.03694 0.0
C434 C 0.38931 0.13487 0.14009 0.0
C435 C 0.34939 0.06184 0.07057 0.0
N436 N 0.43078 0.16635 0.07546 0.0
N437 N 0.27818 0.05339 0.12309 0.0
H438 H 0.34605 0.0208 1.00156 0.0
H439 H 0.30574 1.00085 0.04373 0.0
H440 H 0.26039 0.06135 0.15625 0.0
H441 H 0.25773 0.02958 0.09746 0.0
H442 H 0.43778 0.19822 0.09709 0.0
H443 H 0.43709 0.16748 0.03831 0.0
H444 H 0.44943 0.18066 0.17253 0.0
H445 H 0.4023 0.16844 0.21284 0.0
C446 C 0.11339 0.09327 0.32939 0.0
C447 C 0.08514 0.11301 0.3697 0.0
C448 C 0.09843 0.19283 0.34676 0.0
C449 C 0.13387 0.17353 0.31181 0.0
N450 N 0.14722 0.10659 0.25167 0.0
N451 N 0.05636 0.1818 0.42099 0.0
C452 C 0.13368 0.12389 0.29773 0.0
C453 C 0.07861 0.16284 0.37921 0.0
N454 N 0.12192 0.04532 0.32192 0.0
N455 N 0.07942 0.23859 0.34569 0.0
H456 H 0.042 0.16114 0.4462 0.0
H457 H 0.05626 0.21785 0.43272 0.0
H458 H 0.08606 0.25903 0.31712 0.0
H459 H 0.05031 0.25345 0.36786 0.0
H460 H 0.14803 0.0293 0.29726 0.0
H461 H 0.1058 0.02162 0.34293 0.0
H462 H 0.14447 0.07119 0.23788 0.0
H463 H 0.1528 0.12871 0.22424 0.0
C464 C 0.91202 0.18628 0.20476 0.0
C465 C 0.86897 0.2092 0.17765 0.0
C466 C 0.89473 0.16862 0.10019 0.0
C467 C 0.93369 0.14176 0.12764 0.0
N468 N 0.97918 0.12224 0.20572 0.0
N469 N 0.81114 0.21293 0.10151 0.0
C470 C 0.94312 0.1503 0.17984 0.0
C471 C 0.85801 0.19796 0.12584 0.0
N472 N 0.92228 0.19819 0.25443 0.0
N473 N 0.89367 0.16688 0.04955 0.0
H474 H 0.78176 0.23333 0.11907 0.0
H475 H 0.7989 0.20082 0.06491 0.0
H476 H 0.922 0.14748 0.02948 0.0
H477 H 0.86867 0.18887 0.02818 0.0
H478 H 0.95714 0.18827 0.27523 0.0
H479 H 0.89575 0.21926 0.27449 0.0
H480 H 0.9838 0.12324 0.24432 0.0
H481 H 0.00306 0.09579 0.18862 0.0
C482 C 0.09377 0.61276 0.33758 0.0
C483 C 0.0581 0.62168 0.3744 0.0
C484 C 0.06845 0.70685 0.3769 0.0
C485 C 0.1045 0.69746 0.34042 0.0
N486 N 0.17043 0.64192 0.30663 0.0
N487 N 0.02861 0.67477 0.44296 0.0
C488 C 0.12278 0.65052 0.32633 0.0
C489 C 0.04992 0.66808 0.39823 0.0
N490 N 0.10055 0.56846 0.31393 0.0
N491 N 0.05271 0.75234 0.39157 0.0
H492 H 0.01811 0.64702 0.462 0.0
H493 H 0.0272 0.70742 0.464 0.0
H494 H 0.06772 0.7816 0.37784 0.0
H495 H 0.02255 0.76076 0.41501 0.0
H496 H 0.12325 0.5617 0.28368 0.0
H497 H 0.08007 0.53943 0.32188 0.0
H498 H 0.1877 0.60799 0.30078 0.0
H499 H 0.19617 0.66881 0.30371 0.0
C500 C 0.63464 0.88269 0.61098 0.0
C501 C 0.58408 0.89265 0.62904 0.0
C502 C 0.59921 0.82876 0.68344 0.0
C503 C 0.65066 0.8193 0.66602 0.0
N504 N 0.72277 0.84814 0.62563 0.0
N505 N 0.51511 0.8746 0.67861 0.0
C506 C 0.66995 0.84939 0.63343 0.0
C507 C 0.56578 0.86603 0.66489 0.0
N508 N 0.64776 0.90238 0.56986 0.0
N509 N 0.58235 0.80228 0.71773 0.0
H510 H 0.49052 0.90279 0.667 0.0
H511 H 0.49608 0.85305 0.69965 0.0
H512 H 0.60188 0.77103 0.72658 0.0
H513 H 0.54998 0.81141 0.73821 0.0
H514 H 0.6813 0.89145 0.55151 0.0
H515 H 0.62273 0.92589 0.55048 0.0
H516 H 0.73967 0.87341 0.60721 0.0
H517 H 0.75119 0.82556 0.64215 0.0
C518 C 0.45833 0.35451 0.87912 0.0
C519 C 0.43029 0.392 0.90547 0.0
C520 C 0.34865 0.36953 0.85646 0.0
C521 C 0.37305 0.32623 0.83912 0.0
N522 N 0.45273 0.2776 0.83067 0.0
N523 N 0.34468 0.42671 0.92675 0.0
C524 C 0.42865 0.31858 0.84942 0.0
C525 C 0.37418 0.39663 0.89688 0.0
N526 N 0.51259 0.35356 0.88198 0.0
N527 N 0.30296 0.38667 0.83239 0.0
H528 H 0.36056 0.44557 0.95901 0.0
H529 H 0.30347 0.43063 0.92082 0.0
H530 H 0.28466 0.36901 0.80043 0.0
H531 H 0.28698 0.42067 0.84127 0.0
H532 H 0.53443 0.33152 0.8578 0.0
H533 H 0.53523 0.37761 0.90568 0.0
H534 H 0.49289 0.26902 0.8385 0.0
H535 H 0.43169 0.25144 0.80839 0.0
C536 C 0.91658 0.84446 0.33793 0.0
C537 C 0.86826 0.82838 0.35226 0.0
C538 C 0.87721 0.8819 0.4292 0.0
C539 C 0.92485 0.89949 0.41415 0.0
N540 N 0.99604 0.88997 0.3603 0.0
N541 N 0.80552 0.8276 0.41436 0.0
C542 C 0.94615 0.87878 0.37001 0.0
C543 C 0.85003 0.84533 0.39894 0.0
N544 N 0.9344 0.82631 0.29366 0.0
N545 N 0.8549 0.90249 0.47054 0.0
H546 H 0.77666 0.80965 0.39096 0.0
H547 H 0.79759 0.82953 0.45147 0.0
H548 H 0.87171 0.92886 0.49529 0.0
H549 H 0.81644 0.89681 0.4788 0.0
H550 H 0.9653 0.83997 0.2774 0.0
H551 H 0.91714 0.79766 0.27207 0.0
H552 H 0.01602 0.87412 0.33087 0.0
H553 H 0.02003 0.91265 0.38422 0.0
C554 C 0.44028 0.68654 0.64061 0.0
C555 C 0.41567 0.64818 0.61079 0.0
C556 C 0.33578 0.66208 0.65306 0.0
C557 C 0.35624 0.70373 0.67884 0.0
N558 N 0.4299 0.75423 0.70203 0.0
N559 N 0.33048 0.6194 0.57287 0.0
C560 C 0.40939 0.71562 0.67406 0.0
C561 C 0.36048 0.642 0.61182 0.0
N562 N 0.49166 0.69649 0.63499 0.0
N563 N 0.29437 0.64024 0.66859 0.0
H564 H 0.34389 0.61187 0.53775 0.0
H565 H 0.28948 0.61621 0.57309 0.0
H566 H 0.28246 0.64834 0.70403 0.0
H567 H 0.27969 0.60874 0.65054 0.0
H568 H 0.51398 0.72077 0.65841 0.0
H569 H 0.51167 0.68151 0.60509 0.0
H570 H 0.46669 0.76777 0.69835 0.0
H571 H 0.40961 0.77254 0.73018 0.0
C572 C 0.56798 0.12058 0.82018 0.0
C573 C 0.54088 0.13071 0.86289 0.0
C574 C 0.57372 0.21089 0.87605 0.0
C575 C 0.60072 0.20003 0.83305 0.0
N576 N 0.64538 0.13881 0.78234 0.0
N577 N 0.52144 0.18185 0.93622 0.0
C578 C 0.60386 0.15333 0.80962 0.0
C579 C 0.54426 0.17509 0.89218 0.0
N580 N 0.56096 0.07898 0.79097 0.0
N581 N 0.57735 0.25473 0.90155 0.0
H582 H 0.49783 0.15703 0.94838 0.0
H583 H 0.5269 0.21123 0.96188 0.0
H584 H 0.60215 0.28021 0.89227 0.0
H585 H 0.55501 0.26675 0.93084 0.0
H586 H 0.57706 0.07189 0.75693 0.0
H587 H 0.53481 0.05378 0.79857 0.0
H588 H 0.65163 0.10402 0.76734 0.0
H589 H 0.67813 0.15967 0.78213 0.0
C590 C 0.13286 0.37708 0.13302 0.0
C591 C 0.081 0.36606 0.11234 0.0
C592 C 0.09184 0.29003 0.14918 0.0
C593 C 0.13993 0.30587 0.17574 0.0
N594 N 0.1928 0.37304 0.20566 0.0
N595 N 0.0114 0.30883 0.09708 0.0
C596 C 0.1562 0.35205 0.17179 0.0
C597 C 0.0603 0.32142 0.11905 0.0
N598 N 0.16139 0.40967 0.11402 0.0
N599 N 0.07656 0.24512 0.15323 0.0
H600 H 0.98897 0.32796 0.07123 0.0
H601 H 0.99202 0.27927 0.10486 0.0
H602 H 0.09602 0.2236 0.17894 0.0
H603 H 0.04567 0.22872 0.13089 0.0
H604 H 0.201 0.41605 0.12669 0.0
H605 H 0.14841 0.42473 0.08118 0.0
H606 H 0.2037 0.40795 0.2051 0.0
H607 H 0.20398 0.35842 0.2385 0.0
C608 C 0.56857 0.64095 0.8523 0.0
C609 C 0.59194 0.59564 0.86027 0.0
C610 C 0.67029 0.61446 0.82007 0.0
C611 C 0.64546 0.65903 0.80912 0.0
N612 N 0.56328 0.70602 0.8013 0.0
N613 N 0.65795 0.53455 0.83993 0.0
C614 C 0.59233 0.66974 0.82128 0.0
C615 C 0.64056 0.58093 0.84035 0.0
N616 N 0.52527 0.65789 0.87617 0.0
N617 N 0.72301 0.60467 0.81403 0.0
H618 H 0.63659 0.5088 0.8535 0.0
H619 H 0.69027 0.52067 0.82128 0.0
H620 H 0.74793 0.62806 0.80138 0.0
H621 H 0.74397 0.57519 0.82713 0.0
H622 H 0.51058 0.6928 0.87566 0.0
H623 H 0.50697 0.63881 0.90026 0.0
H624 H 0.52265 0.71219 0.80459 0.0
H625 H 0.57833 0.72602 0.7764 0.0
C626 C 0.60795 0.38578 0.12203 0.0
C627 C 0.66349 0.37967 0.11747 0.0
C628 C 0.65006 0.39609 0.0309 0.0
C629 C 0.59674 0.40906 0.03782 0.0
N630 N 0.5218 0.38614 0.07589 0.0
N631 N 0.73891 0.38556 0.07024 0.0
C632 C 0.57415 0.39633 0.07978 0.0
C633 C 0.68502 0.38648 0.07251 0.0
N634 N 0.58704 0.3811 0.16587 0.0
N635 N 0.66597 0.3899 0.98398 0.0
H636 H 0.76609 0.38003 0.10081 0.0
H637 H 0.75626 0.39575 0.03986 0.0
H638 H 0.63867 0.38959 0.95253 0.0
H639 H 0.70441 0.37937 0.97622 0.0
H640 H 0.54756 0.39077 0.17165 0.0
H641 H 0.60929 0.37123 0.19772 0.0
H642 H 0.50386 0.37106 0.1033 0.0
H643 H 0.49916 0.38546 0.04192 0.0
C644 C 0.91127 0.36799 0.41179 0.0
C645 C 0.90413 0.41743 0.40852 0.0
C646 C 0.8631 0.40357 0.32346 0.0
C647 C 0.86848 0.35425 0.32803 0.0
N648 N 0.92666 0.29436 0.36331 0.0
N649 N 0.86331 0.48251 0.36613 0.0
C650 C 0.90071 0.3375 0.36849 0.0
C651 C 0.87729 0.43536 0.36556 0.0
N652 N 0.9287 0.3496 0.45544 0.0
N653 N 0.84963 0.41971 0.27794 0.0
H654 H 0.87131 0.50624 0.39752 0.0
H655 H 0.83905 0.49708 0.33779 0.0
H656 H 0.84718 0.39694 0.24532 0.0
H657 H 0.84862 0.45532 0.27156 0.0
H658 H 0.92927 0.31337 0.45923 0.0
H659 H 0.93784 0.36981 0.48888 0.0
H660 H 0.95428 0.2819 0.39058 0.0
H661 H 0.9275 0.27533 0.32867 0.0
C662 C 0.65941 0.56581 0.41416 0.0
C663 C 0.61665 0.58922 0.43874 0.0
C664 C 0.64651 0.66498 0.41575 0.0
C665 C 0.68205 0.64075 0.38346 0.0
N666 N 0.71666 0.56577 0.34728 0.0
N667 N 0.56372 0.66208 0.45293 0.0
C668 C 0.68734 0.5905 0.38163 0.0
C669 C 0.60884 0.63917 0.43724 0.0
N670 N 0.67471 0.52037 0.42301 0.0
N671 N 0.64937 0.71279 0.42698 0.0
H672 H 0.53253 0.64489 0.46501 0.0
H673 H 0.55432 0.69759 0.44814 0.0
H674 H 0.67795 0.7326 0.41393 0.0
H675 H 0.62771 0.73156 0.45383 0.0
H676 H 0.70843 0.50296 0.40952 0.0
H677 H 0.6575 0.50213 0.44857 0.0
H678 H 0.71686 0.52899 0.34073 0.0
H679 H 0.73694 0.5819 0.32222 0.0
C680 C 0.81615 0.35213 0.91286 0.0
C681 C 0.82232 0.34812 0.86075 0.0
C682 C 0.88609 0.41097 0.87328 0.0
C683 C 0.88095 0.41552 0.92518 0.0
N684 N 0.85073 0.38317 0.99602 0.0
N685 N 0.88955 0.35257 0.80402 0.0
C686 C 0.84938 0.38338 0.94557 0.0
C687 C 0.86449 0.37173 0.84417 0.0
N688 N 0.77904 0.327 0.93152 0.0
N689 N 0.91526 0.44119 0.8516 0.0
H690 H 0.88437 0.31756 0.78966 0.0
H691 H 0.92198 0.36756 0.79124 0.0
H692 H 0.9405 0.46561 0.87113 0.0
H693 H 0.91367 0.44169 0.81308 0.0
H694 H 0.77374 0.32793 0.96908 0.0
H695 H 0.75128 0.30613 0.91025 0.0
H696 H 0.83694 0.35571 0.01346 0.0
H697 H 0.86886 0.40915 0.02091 0.0
C698 C 0.86682 0.84891 0.09472 0.0
C699 C 0.82426 0.86982 0.12171 0.0
C700 C 0.83474 0.94483 0.08402 0.0
C701 C 0.87772 0.92399 0.05809 0.0
N702 N 0.92364 0.85143 0.02829 0.0
N703 N 0.77583 0.94136 0.14922 0.0
C704 C 0.89026 0.87472 0.06016 0.0
C705 C 0.80979 0.9186 0.11759 0.0
N706 N 0.88792 0.8051 0.10404 0.0
N707 N 0.81579 0.98925 0.07441 0.0
H708 H 0.75811 0.92455 0.17552 0.0
H709 H 0.76956 0.97795 0.15332 0.0
H710 H 0.83188 0.00862 0.04906 0.0
H711 H 0.78089 1.00488 0.08717 0.0
H712 H 0.92393 0.79133 0.09192 0.0
H713 H 0.87293 0.7838 0.12778 0.0
H714 H 0.92727 0.81466 0.02256 0.0
H715 H 0.94417 0.8676 0.0037 0.0
C716 C 0.88621 0.17359 0.87326 0.0
C717 C 0.84142 0.16202 0.83798 0.0
C718 C 0.84629 0.08345 0.87509 0.0
C719 C 0.89684 0.09172 0.90346 0.0
N720 N 0.96801 0.14741 0.91883 0.0
N721 N 0.78628 0.09812 0.80174 0.0
C722 C 0.91751 0.13753 0.89939 0.0
C723 C 0.82371 0.11473 0.83803 0.0
N724 N 0.89799 0.22006 0.88458 0.0
N725 N 0.81732 0.04676 0.88508 0.0
H726 H 0.76978 0.11807 0.77356 0.0
H727 H 0.77599 0.06275 0.7966 0.0
H728 H 0.82857 0.02577 0.91402 0.0
H729 H 0.77864 0.04152 0.86921 0.0
H730 H 0.92633 0.23133 0.91324 0.0
H731 H 0.8748 0.24781 0.87031 0.0
H732 H 0.98703 0.17741 0.91144 0.0
H733 H 0.99313 0.12407 0.93781 0.0
C734 C 0.7047 0.10715 0.62237 0.0
C735 C 0.68982 0.15589 0.62841 0.0
C736 C 0.60988 0.14299 0.57222 0.0
C737 C 0.62569 0.09428 0.56329 0.0
N738 N 0.69493 0.03289 0.57073 0.0
N739 N 0.63953 0.22215 0.59618 0.0
C740 C 0.67539 0.07719 0.58551 0.0
C741 C 0.64639 0.17442 0.59866 0.0
N742 N 0.74558 0.08935 0.65269 0.0
N743 N 0.5587 0.15899 0.56022 0.0
H744 H 0.66645 0.24611 0.6145 0.0
H745 H 0.61083 0.23715 0.57149 0.0
H746 H 0.52781 0.13724 0.54608 0.0
H747 H 0.54507 0.19343 0.57059 0.0
H748 H 0.75426 0.05323 0.65398 0.0
H749 H 0.76891 0.11088 0.67867 0.0
H750 H 0.73273 0.01995 0.58298 0.0
H751 H 0.67553 0.01094 0.54228 0.0
C752 C 0.59825 0.87419 0.40301 0.0
C753 C 0.60445 0.92444 0.4063 0.0
C754 C 0.6719 0.906 0.34227 0.0
C755 C 0.66031 0.85668 0.33453 0.0
N756 N 0.60389 0.79696 0.35495 0.0
N757 N 0.66778 0.98171 0.3931 0.0
C758 C 0.62134 0.8419 0.36456 0.0
C759 C 0.64673 0.93847 0.37928 0.0
N760 N 0.57513 0.85607 0.44001 0.0
N761 N 0.70704 0.92265 0.31346 0.0
H762 H 0.65656 1.00369 0.42362 0.0
H763 H 0.70175 0.99297 0.37963 0.0
H764 H 0.73014 0.90048 0.29039 0.0
H765 H 0.71119 0.9585 0.31028 0.0
H766 H 0.5735 0.81989 0.44306 0.0
H767 H 0.56485 0.87715 0.4715 0.0
H768 H 0.57164 0.78509 0.37093 0.0
H769 H 0.61857 0.77307 0.32745 0.0
C770 C 0.89095 0.13846 0.40145 0.0
C771 C 0.84965 0.1214 0.36691 0.0
C772 C 0.8485 0.04945 0.40872 0.0
C773 C 0.88337 0.07059 0.44814 0.0
N774 N 0.92639 0.14087 0.48669 0.0
N775 N 0.78578 0.06219 0.33756 0.0
C776 C 0.90176 0.11665 0.44566 0.0
C777 C 0.82782 0.07699 0.36993 0.0
N778 N 0.91865 0.17638 0.39232 0.0
N779 N 0.83609 1.00316 0.40738 0.0
H780 H 0.77034 0.08068 0.30777 0.0
H781 H 0.76436 0.03266 0.34167 0.0
H782 H 0.84834 0.98246 0.43594 0.0
H783 H 0.81669 0.98447 0.37649 0.0
H784 H 0.95096 0.18925 0.41553 0.0
H785 H 0.91222 0.19203 0.35893 0.0
H786 H 0.93745 0.17586 0.48781 0.0
H787 H 0.92871 0.12799 0.52139 0.0
C788 C 0.67571 0.11934 0.15271 0.0
C789 C 0.65424 0.16491 0.16863 0.0
C790 C 0.58004 0.15451 0.10505 0.0
C791 C 0.59567 0.10629 0.09586 0.0
N792 N 0.6576 0.0412 0.1134 0.0
N793 N 0.57939 0.22149 0.16642 0.0
C794 C 0.64295 0.088 0.12095 0.0
C795 C 0.60433 0.18116 0.14685 0.0
N796 N 0.72829 0.10724 0.16414 0.0
N797 N 0.54391 0.17571 0.07285 0.0
H798 H 0.59525 0.24175 0.19794 0.0
H799 H 0.54052 0.23186 0.15419 0.0
H800 H 0.52748 0.158 0.04005 0.0
H801 H 0.5352 0.21209 0.07599 0.0
H802 H 0.74659 0.07612 0.14921 0.0
H803 H 0.75548 0.1303 0.18351 0.0
H804 H 0.68785 0.02511 0.13556 0.0
H805 H 0.63775 0.01812 0.08663 0.0
C806 C 0.61917 0.87386 0.89782 0.0
C807 C 0.65452 0.89842 0.87273 0.0
C808 C 0.64649 0.96831 0.93153 0.0
C809 C 0.60858 0.94506 0.95449 0.0
N810 N 0.55291 0.87824 0.95661 0.0
N811 N 0.69457 0.97049 0.85879 0.0
C812 C 0.59337 0.89845 0.93699 0.0
C813 C 0.66627 0.94608 0.88765 0.0
N814 N 0.61179 0.82654 0.88567 0.0
N815 N 0.66439 0.01102 0.9524 0.0
H816 H 0.71006 0.95485 0.82653 0.0
H817 H 0.69757 0.00708 0.86398 0.0
H818 H 0.65077 0.0278 0.98503 0.0
H819 H 0.69581 0.02768 0.93994 0.0
H820 H 0.59209 0.80555 0.9069 0.0
H821 H 0.62821 0.80693 0.85613 0.0
H822 H 0.53412 0.84813 0.93991 0.0
H823 H 0.53548 0.89301 0.98805 0.0
C824 C 0.90833 0.86053 0.63559 0.0
C825 C 0.90928 0.9095 0.65235 0.0
C826 C 0.86173 0.89368 0.72396 0.0
C827 C 0.85956 0.84485 0.70552 0.0
N828 N 0.91056 0.78212 0.66233 0.0
N829 N 0.89687 0.97128 0.71807 0.0
C830 C 0.89192 0.82812 0.66703 0.0
C831 C 0.88857 0.92582 0.69815 0.0
N832 N 0.92019 0.84463 0.5886 0.0
N833 N 0.84075 0.90882 0.76755 0.0
H834 H 0.91803 0.99493 0.70119 0.0
H835 H 0.88639 0.98501 0.75287 0.0
H836 H 0.8336 0.88554 0.79341 0.0
H837 H 0.8323 0.94418 0.77904 0.0
H838 H 0.91548 0.80957 0.57405 0.0
H839 H 0.92807 0.86694 0.56213 0.0
H840 H 0.93689 0.76954 0.63626 0.0
H841 H 0.90784 0.75923 0.68967 0.0
C842 C 0.08262 0.80946 0.81402 0.0
C843 C 0.13655 0.82316 0.81847 0.0
C844 C 0.11612 0.88792 0.87956 0.0
C845 C 0.06174 0.87747 0.87193 0.0
N846 N 0.99125 0.82894 0.83345 0.0
N847 N 0.1976 0.88698 0.84141 0.0
C848 C 0.04423 0.83821 0.83962 0.0
C849 C 0.15132 0.86593 0.84672 0.0
N850 N 0.06834 0.76959 0.78446 0.0
N851 N 0.13481 0.91709 0.91983 0.0
H852 H 0.22131 0.87635 0.81307 0.0
H853 H 0.20765 0.91977 0.85969 0.0
H854 H 0.11082 0.9299 0.94772 0.0
H855 H 0.17523 0.92268 0.92906 0.0
H856 H 0.03154 0.7544 0.78315 0.0
H857 H 0.09401 0.7516 0.76061 0.0
H858 H 0.97468 0.80328 0.80743 0.0
H859 H 0.9631 0.84842 0.85366 0.0
C860 C 0.88728 0.38235 0.60967 0.0
C861 C 0.93679 0.39368 0.63686 0.0
C862 C 0.94299 0.31779 0.67171 0.0
C863 C 0.89132 0.30934 0.64978 0.0
N864 N 0.81332 0.32991 0.59733 0.0
N865 N 0.01032 0.37589 0.69575 0.0
C866 C 0.86378 0.34005 0.61741 0.0
C867 C 0.9643 0.3623 0.66853 0.0
N868 N 0.86377 0.41091 0.5753 0.0
N869 N 0.97021 0.28343 0.69676 0.0
H870 H 0.02489 0.4097 0.69577 0.0
H871 H 0.03238 0.35516 0.72026 0.0
H872 H 0.95393 0.25066 0.69904 0.0
H873 H 0.00987 0.28542 0.71075 0.0
H874 H 0.83204 0.40096 0.54963 0.0
H875 H 0.87671 0.44429 0.57087 0.0
H876 H 0.78725 0.35383 0.57966 0.0
H877 H 0.79683 0.29741 0.60054 0.0
C878 C 0.43011 0.15354 0.34587 0.0
C879 C 0.4108 0.11984 0.37416 0.0
C880 C 0.32238 0.15939 0.37025 0.0
C881 C 0.34259 0.1956 0.34556 0.0
N882 N 0.41397 0.22691 0.30663 0.0
N883 N 0.3404 0.09061 0.41581 0.0
C884 C 0.39589 0.19234 0.33187 0.0
C885 C 0.35718 0.1222 0.38617 0.0
N886 N 0.48201 0.14923 0.33469 0.0
N887 N 0.26941 0.1597 0.37735 0.0
H888 H 0.36362 0.06159 0.42677 0.0
H889 H 0.30469 0.09444 0.43233 0.0
H890 H 0.24303 0.18802 0.37065 0.0
H891 H 0.25048 0.13068 0.38719 0.0
H892 H 0.50103 0.17372 0.31721 0.0
H893 H 0.50695 0.12016 0.34318 0.0
H894 H 0.45004 0.22487 0.29092 0.0
H895 H 0.39268 0.2585 0.3008 0.0
C896 C 0.56621 0.61914 0.15441 0.0
C897 C 0.56054 0.61698 0.10156 0.0
C898 C 0.62216 0.68176 0.10583 0.0
C899 C 0.62403 0.68678 0.15863 0.0
N900 N 0.57753 0.67222 0.22939 0.0
N901 N 0.56441 0.66338 0.03136 0.0
C902 C 0.58917 0.65955 0.1817 0.0
C903 C 0.5822 0.65394 0.07863 0.0
N904 N 0.55368 0.58215 0.17918 0.0
N905 N 0.65985 0.69989 0.08089 0.0
H906 H 0.53189 0.64696 0.01147 0.0
H907 H 0.57743 0.69199 0.01497 0.0
H908 H 0.69378 0.71601 0.09795 0.0
H909 H 0.66071 0.69313 0.04249 0.0
H910 H 0.56145 0.58205 0.21762 0.0
H911 H 0.54227 0.54953 0.16176 0.0
H912 H 0.54976 0.65474 0.24634 0.0
H913 H 0.59018 0.70366 0.24917 0.0
C914 C 0.08524 0.19864 0.64145 0.0
C915 C 0.13406 0.18216 0.6653 0.0
C916 C 0.11202 0.09979 0.63813 0.0
C917 C 0.06414 0.11624 0.61282 0.0
N918 N 0.99759 0.17858 0.60262 0.0
N919 N 0.19896 0.11816 0.67816 0.0
C920 C 0.04877 0.16508 0.61736 0.0
C921 C 0.14856 0.13297 0.66183 0.0
N922 N 0.07416 0.24619 0.64131 0.0
N923 N 0.12185 0.05228 0.64098 0.0
H924 H 0.22735 0.14127 0.69487 0.0
H925 H 0.21455 0.08386 0.67087 0.0
H926 H 0.09652 0.02658 0.62362 0.0
H927 H 0.15255 0.03822 0.66422 0.0
H928 H 0.04243 0.2607 0.61959 0.0
H929 H 0.09873 0.27154 0.66073 0.0
H930 H 0.98196 0.21313 0.60729 0.0
H931 H 0.9689 0.15364 0.59168 0.0
C932 C 0.59774 0.30467 0.32822 0.0
C933 C 0.65271 0.31445 0.33327 0.0
C934 C 0.63803 0.37372 0.40117 0.0
C935 C 0.58208 0.37234 0.38908 0.0
N936 N 0.50774 0.33148 0.34323 0.0
N937 N 0.72374 0.36418 0.36988 0.0
C938 C 0.56133 0.33655 0.35293 0.0
C939 C 0.67207 0.35158 0.36742 0.0
N940 N 0.58088 0.26363 0.30229 0.0
N941 N 0.65911 0.39145 0.44716 0.0
H942 H 0.75101 0.34656 0.34778 0.0
H943 H 0.73774 0.39444 0.39108 0.0
H944 H 0.63617 0.39872 0.47717 0.0
H945 H 0.69994 0.39087 0.45781 0.0
H946 H 0.54248 0.25173 0.30201 0.0
H947 H 0.60662 0.23954 0.28408 0.0
H948 H 0.49098 0.3109 0.31234 0.0
H949 H 0.47973 0.34736 0.36584 0.0
C950 C 0.46978 0.87197 0.17381 0.0
C951 C 0.442 0.89537 0.13478 0.0
C952 C 0.37362 0.83693 0.1236 0.0
C953 C 0.39801 0.81675 0.1659 0.0
N954 N 0.46668 0.81386 0.23337 0.0
N955 N 0.36401 0.90517 0.0768 0.0
C956 C 0.44584 0.83355 0.19137 0.0
C957 C 0.39285 0.87936 0.11082 0.0
N958 N 0.51861 0.88677 0.19394 0.0
N959 N 0.33162 0.81545 0.09619 0.0
H960 H 0.37691 0.93632 0.06555 0.0
H961 H 0.32508 0.89806 0.06275 0.0
H962 H 0.31696 0.78389 0.10513 0.0
H963 H 0.31472 0.82611 0.06234 0.0
H964 H 0.54326 0.8685 0.21922 0.0
H965 H 0.53551 0.91685 0.18382 0.0
H966 H 0.49806 0.82771 0.2572 0.0
H967 H 0.45099 0.78393 0.24515 0.0
C968 C 0.86383 0.64122 0.90206 0.0
C969 C 0.91271 0.63152 0.88064 0.0
C970 C 0.89095 0.69369 0.82483 0.0
C971 C 0.83907 0.69938 0.84189 0.0
N972 N 0.77378 0.67341 0.89279 0.0
N973 N 0.97286 0.64512 0.82041 0.0
C974 C 0.82495 0.67194 0.87962 0.0
C975 C 0.92626 0.65666 0.84145 0.0
N976 N 0.85499 0.62179 0.94471 0.0
N977 N 0.9078 0.72539 0.79547 0.0
H978 H 0.00042 0.61957 0.83342 0.0
H979 H 0.98297 0.65849 0.78834 0.0
H980 H 0.88665 0.75669 0.78837 0.0
H981 H 0.94526 0.72366 0.7824 0.0
H982 H 0.82269 0.63131 0.9652 0.0
H983 H 0.88255 0.59945 0.963 0.0
H984 H 0.76018 0.65086 0.91642 0.0
H985 H 0.74237 0.69271 0.87585 0.0
C986 C 0.40349 0.41577 0.19512 0.0
C987 C 0.39488 0.41323 0.14248 0.0
C988 C 0.33775 0.34586 0.14211 0.0
C989 C 0.34785 0.34648 0.19452 0.0
N990 N 0.39689 0.37698 0.27059 0.0
N991 N 0.37152 0.36402 0.06639 0.0
C992 C 0.38297 0.37994 0.221 0.0
C993 C 0.36729 0.3748 0.11609 0.0
N994 N 0.43068 0.45259 0.22013 0.0
N995 N 0.29778 0.31984 0.11699 0.0
H996 H 0.396 0.38183 0.04622 0.0
H997 H 0.35633 0.33348 0.04675 0.0
H998 H 0.27259 0.29998 0.13428 0.0
H999 H 0.28572 0.3223 0.07947 0.0
H1000 H 0.43913 0.45692 0.25842 0.0
H1001 H 0.44374 0.48036 0.20253 0.0
H1002 H 0.42389 0.39857 0.29225 0.0
H1003 H 0.38426 0.35013 0.28982 0.0
C1004 C 0.40016 0.6291 0.95204 0.0
C1005 C 0.39426 0.57967 0.94161 0.0
C1006 C 0.33524 0.59195 0.86729 0.0
C1007 C 0.3433 0.64081 0.87657 0.0
N1008 N 0.39441 0.70508 0.91818 0.0
N1009 N 0.37053 0.51442 0.88122 0.0
C1010 C 0.37929 0.65928 0.91598 0.0
C1011 C 0.36594 0.56115 0.89686 0.0
N1012 N 0.42283 0.64745 0.9971 0.0
N1013 N 0.29711 0.57493 0.83157 0.0
H1014 H 0.39524 0.49192 0.90118 0.0
H1015 H 0.35554 0.49963 0.84633 0.0
H1016 H 0.27308 0.5964 0.80882 0.0
H1017 H 0.286 0.53979 0.82747 0.0
H1018 H 0.42324 0.68365 0.00793 0.0
H1019 H 0.43713 0.62663 0.02543 0.0
H1020 H 0.42492 0.7187 0.94334 0.0
H1021 H 0.38024 0.728 0.89163 0.0
C1022 C 0.07496 0.60965 0.66065 0.0
C1023 C 0.08911 0.5987 0.61107 0.0
C1024 C 0.15533 0.65936 0.62333 0.0
C1025 C 0.14274 0.66907 0.67322 0.0
N1026 N 0.10069 0.64623 0.74319 0.0
N1027 N 0.15604 0.60073 0.55324 0.0
C1028 C 0.10602 0.64166 0.69323 0.0
C1029 C 0.13293 0.62014 0.59452 0.0
N1030 N 0.03073 0.59166 0.67628 0.0
N1031 N 0.18999 0.68634 0.60357 0.0
H1032 H 0.14407 0.56929 0.53329 0.0
H1033 H 0.19131 0.61229 0.54233 0.0
H1034 H 0.21288 0.71219 0.62407 0.0
H1035 H 0.19407 0.68456 0.56558 0.0
H1036 H 0.01728 0.60098 0.71108 0.0
H1037 H 0.0037 0.57096 0.65362 0.0
H1038 H 0.08031 0.62261 0.76077 0.0
H1039 H 0.12014 0.67138 0.76808 0.0
C1040 C 0.30161 0.38948 0.57535 0.0
C1041 C 0.32435 0.3713 0.61999 0.0
C1042 C 0.40757 0.41093 0.61232 0.0
C1043 C 0.38611 0.42748 0.56639 0.0
N1044 N 0.31594 0.42469 0.49961 0.0
N1045 N 0.40501 0.3515 0.6701 0.0
C1046 C 0.3342 0.41405 0.54635 0.0
C1047 C 0.37903 0.37833 0.63538 0.0
N1048 N 0.24842 0.38523 0.56171 0.0
N1049 N 0.45531 0.42629 0.63455 0.0
H1050 H 0.3868 0.32482 0.68534 0.0
H1051 H 0.44611 0.35139 0.67898 0.0
H1052 H 0.47898 0.44863 0.61882 0.0
H1053 H 0.46957 0.4197 0.67065 0.0
H1054 H 0.22814 0.40174 0.53247 0.0
H1055 H 0.22359 0.36776 0.58189 0.0
H1056 H 0.28153 0.41089 0.48052 0.0
H1057 H 0.33741 0.44443 0.47845 0.0
C1058 C 0.1659 0.61076 0.1542 0.0
C1059 C 0.17962 0.65453 0.13906 0.0
C1060 C 0.13558 0.63183 0.05603 0.0
C1061 C 0.11423 0.59213 0.07431 0.0
N1062 N 0.09632 0.55522 0.14775 0.0
N1063 N 0.16689 0.7111 0.07721 0.0
C1064 C 0.12604 0.58442 0.12528 0.0
C1065 C 0.16182 0.66638 0.09029 0.0
N1066 N 0.19091 0.59405 0.19619 0.0
N1067 N 0.13224 0.63619 0.00616 0.0
H1068 H 0.18387 0.73815 0.10136 0.0
H1069 H 0.14924 0.72253 0.04391 0.0
H1070 H 0.11608 0.61049 0.97969 0.0
H1071 H 0.15097 0.66263 0.99103 0.0
H1072 H 0.18498 0.56031 0.2063 0.0
H1073 H 0.22173 0.61172 0.21747 0.0
H1074 H 0.10173 0.55152 0.18577 0.0
H1075 H 0.06149 0.54056 0.13052 0.0
C1076 C 0.60778 0.3547 0.64178 0.0
C1077 C 0.6587 0.36463 0.66784 0.0
C1078 C 0.65219 0.4414 0.627 0.0
C1079 C 0.60127 0.43123 0.59978 0.0
N1080 N 0.54283 0.36698 0.57134 0.0
N1081 N 0.73248 0.41571 0.67754 0.0
C1082 C 0.58268 0.38469 0.60448 0.0
C1083 C 0.68132 0.40768 0.65825 0.0
N1084 N 0.58205 0.31661 0.65337 0.0
N1085 N 0.67427 0.48348 0.62242 0.0
H1086 H 0.75414 0.39309 0.70079 0.0
H1087 H 0.75511 0.44245 0.66775 0.0
H1088 H 0.66245 0.50435 0.59356 0.0
H1089 H 0.70443 0.49777 0.64745 0.0
H1090 H 0.54241 0.31026 0.64117 0.0
H1091 H 0.59904 0.29354 0.67868 0.0
H1092 H 0.53094 0.3322 0.56957 0.0
H1093 H 0.52643 0.38438 0.54124 0.0
C1094 C 0.84698 0.60035 0.17932 0.0
C1095 C 0.83869 0.64953 0.1708 0.0
C1096 C 0.89064 0.62919 0.09521 0.0
C1097 C 0.89896 0.58006 0.10389 0.0
N1098 N 0.86238 0.51897 0.14484 0.0
N1099 N 0.83599 0.7024 0.10675 0.0
C1100 C 0.87097 0.566 0.14359 0.0
C1101 C 0.85556 0.66126 0.12453 0.0
N1102 N 0.82943 0.58485 0.22073 0.0
N1103 N 0.91738 0.64646 0.05998 0.0
H1104 H 0.80958 0.7252 0.12571 0.0
H1105 H 0.84126 0.711 0.07111 0.0
H1106 H 0.94275 0.6253 0.03832 0.0
H1107 H 0.91744 0.68242 0.05511 0.0
H1108 H 0.84267 0.55275 0.23415 0.0
H1109 H 0.8017 0.60383 0.24167 0.0
H1110 H 0.83874 0.50605 0.16954 0.0
H1111 H 0.87185 0.49339 0.11655 0.0
C1112 C 0.91438 0.61397 0.60108 0.0
C1113 C 0.89647 0.57966 0.56221 0.0
C1114 C 0.81303 0.57483 0.59989 0.0
C1115 C 0.83319 0.60637 0.63993 0.0
N1116 N 0.90781 0.64444 0.68651 0.0
N1117 N 0.82993 0.52488 0.52525 0.0
C1118 C 0.88589 0.62136 0.64338 0.0
C1119 C 0.84655 0.55846 0.56231 0.0
N1120 N 0.95694 0.64106 0.59733 0.0
N1121 N 0.76078 0.56333 0.59638 0.0
H1122 H 0.84976 0.51634 0.49345 0.0
H1123 H 0.79709 0.50437 0.52671 0.0
H1124 H 0.73627 0.57374 0.62471 0.0
H1125 H 0.74127 0.54562 0.56495 0.0
H1126 H 0.96665 0.67032 0.62218 0.0
H1127 H 0.98023 0.63778 0.56763 0.0
H1128 H 0.94678 0.65559 0.69162 0.0
H1129 H 0.88884 0.64802 0.71915 0.0
C1130 C 0.38221 0.57119 0.34341 0.0
C1131 C 0.39739 0.58473 0.39506 0.0
C1132 C 0.3414 0.66004 0.38238 0.0
C1133 C 0.33184 0.64924 0.32944 0.0
N1134 N 0.34324 0.58915 0.26148 0.0
N1135 N 0.39763 0.64943 0.45926 0.0
C1136 C 0.35228 0.60325 0.31101 0.0
C1137 C 0.37891 0.63139 0.41286 0.0
N1138 N 0.39611 0.5267 0.32411 0.0
N1139 N 0.31201 0.69588 0.40509 0.0
H1140 H 0.42488 0.63076 0.48197 0.0
H1141 H 0.39063 0.68454 0.47285 0.0
H1142 H 0.28148 0.71466 0.38611 0.0
H1143 H 0.31306 0.70277 0.44356 0.0
H1144 H 0.37561 0.50993 0.29266 0.0
H1145 H 0.42743 0.50627 0.33983 0.0
H1146 H 0.36492 0.56171 0.24334 0.0
H1147 H 0.31395 0.60477 0.23807 0.0
C1148 C 0.09816 0.34801 0.83274 0.0
C1149 C 0.15509 0.34764 0.83619 0.0
C1150 C 0.14923 0.41221 0.90644 0.0
C1151 C 0.09233 0.41593 0.90001 0.0
N1152 N 0.01508 0.37252 0.87027 0.0
N1153 N 0.22887 0.36107 0.89699 0.0
C1154 C 0.06758 0.37929 0.86682 0.0
C1155 C 0.17905 0.37477 0.87892 0.0
N1156 N 0.07318 0.31675 0.79799 0.0
N1157 N 0.17554 0.44457 0.939 0.0
H1158 H 0.24901 0.33174 0.88021 0.0
H1159 H 0.24584 0.37397 0.93189 0.0
H1160 H 0.15557 0.47079 0.96065 0.0
H1161 H 0.21685 0.44647 0.94243 0.0
H1162 H 0.03203 0.31498 0.79173 0.0
H1163 H 0.09432 0.29258 0.775 0.0
H1164 H 0.99436 0.3443 0.8518 0.0
H1165 H 0.99431 0.39211 0.89718 0.0
C1166 C 0.10474 0.41386 0.35907 0.0
C1167 C 0.15995 0.41851 0.36443 0.0
C1168 C 0.15446 0.45692 0.44797 0.0
C1169 C 0.10236 0.43914 0.44653 0.0
N1170 N 0.03409 0.38982 0.40188 0.0
N1171 N 0.23364 0.46195 0.40342 0.0
C1172 C 0.07857 0.41518 0.40226 0.0
C1173 C 0.18386 0.44607 0.40572 0.0
N1174 N 0.07854 0.40476 0.31306 0.0
N1175 N 0.17671 0.4806 0.49059 0.0
H1176 H 0.25306 0.45573 0.37097 0.0
H1177 H 0.25376 0.48384 0.43122 0.0
H1178 H 0.15749 0.48559 0.52315 0.0
H1179 H 0.21484 0.49359 0.49479 0.0
H1180 H 0.03715 0.40313 0.30736 0.0
H1181 H 0.09834 0.40419 0.28088 0.0
H1182 H 0.01859 0.36902 0.37053 0.0
H1183 H 0.01735 0.38415 0.43407 0.0
loop_
_geom_bond_atom_site_label_1
_geom_bond_atom_site_label_2
_geom_bond_distance
_geom_bond_site_symmetry_2
_ccdc_geom_bond_type
Tb0 O3 2.453 1_565 S
Tb0 O4 2.596 1_565 S
Tb0 O5 2.374 1_665 S
Tb0 O13 2.343 1_656 S
Tb0 O15 2.353 . S
Tb0 O17 2.427 1_655 S
Tb0 O18 2.513 1_655 S
C1 O5 1.251 . S
C1 O7 1.263 1_556 S
Tb2 O4 2.343 1_454 S
Tb2 O7 2.353 . S
Tb2 O10 2.427 1_455 S
Tb2 O11 2.513 1_455 S
Tb2 O12 2.439 1_545 S
Tb2 O13 2.596 1_545 S
Tb2 O14 2.374 1_445 S
O3 Tb0 2.453 1_545 S
O3 C19 1.245 . S
O4 Tb0 2.596 1_545 S
O4 Tb2 2.343 1_656 S
O4 C19 1.259 . S
O5 Tb0 2.374 1_445 S
O5 C1 1.251 . S
C6 O10 1.275 . S
C6 O11 1.246 . S
O7 C1 1.263 1_554 S
O7 Tb2 2.353 . S
C8 O12 1.258 . S
C8 O13 1.259 . S
C9 O14 1.250 . S
C9 O15 1.263 1_554 S
O10 Tb2 2.427 1_655 S
O10 C6 1.275 . S
O11 Tb2 2.513 1_655 S
O11 C6 1.246 . S
O12 Tb2 2.439 1_565 S
O12 C8 1.258 . S
O13 Tb0 2.343 1_454 S
O13 Tb2 2.596 1_565 S
O13 C8 1.259 . S
O14 Tb2 2.374 1_665 S
O14 C9 1.250 . S
O15 Tb0 2.353 . S
O15 C9 1.263 1_556 S
C16 O17 1.275 . S
C16 O18 1.246 . S
O17 Tb0 2.427 1_455 S
O17 C16 1.275 . S
O18 Tb0 2.513 1_455 S
O18 C16 1.246 . S
C19 O3 1.245 . S
C19 O4 1.259 . S
Tb20 O23 2.453 . S
Tb20 O24 2.596 . S
Tb20 O25 2.374 . S
Tb20 O33 2.343 . S
Tb20 O35 2.353 . S
Tb20 O37 2.427 . S
Tb20 O38 2.513 . S
C21 O25 1.251 . S
C21 O27 1.263 . S
Tb22 O24 2.343 . S
Tb22 O27 2.353 . S
Tb22 O30 2.427 . S
Tb22 O31 2.513 . S
Tb22 O32 2.453 . S
Tb22 O33 2.596 . S
Tb22 O34 2.374 . S
O23 Tb20 2.453 . S
O23 C39 1.245 . S
O24 Tb20 2.596 . S
O24 Tb22 2.343 . S
O24 C39 1.259 . S
O25 Tb20 2.374 . S
O25 C21 1.251 . S
C26 O30 1.275 . S
C26 O31 1.246 . S
O27 C21 1.263 . S
O27 Tb22 2.353 . S
C28 O32 1.245 . S
C28 O33 1.259 . S
C29 O34 1.250 . S
C29 O35 1.263 . S
O30 Tb22 2.427 . S
O30 C26 1.275 . S
O31 Tb22 2.513 . S
O31 C26 1.246 . S
O32 Tb22 2.453 . S
O32 C28 1.245 . S
O33 Tb20 2.343 . S
O33 Tb22 2.596 . S
O33 C28 1.259 . S
O34 Tb22 2.374 . S
O34 C29 1.250 . S
O35 Tb20 2.353 . S
O35 C29 1.263 . S
C36 O37 1.275 . S
C36 O38 1.246 . S
O37 Tb20 2.427 . S
O37 C36 1.275 . S
O38 Tb20 2.513 . S
O38 C36 1.246 . S
C39 O23 1.245 . S
C39 O24 1.259 . S
Tb40 O43 2.453 1_545 S
Tb40 O44 2.596 1_545 S
Tb40 O45 2.374 1_545 S
Tb40 O53 2.343 . S
Tb40 O55 2.353 . S
Tb40 O57 2.427 . S
Tb40 O58 2.513 . S
C41 O45 1.251 . S
C41 O47 1.263 . S
Tb42 O44 2.343 . S
Tb42 O47 2.353 . S
Tb42 O50 2.427 . S
Tb42 O51 2.513 . S
Tb42 O52 2.453 1_565 S
Tb42 O53 2.596 1_565 S
Tb42 O54 2.374 1_565 S
O43 Tb40 2.453 1_565 S
O43 C59 1.245 . S
O44 Tb40 2.596 1_565 S
O44 Tb42 2.343 . S
O44 C59 1.259 . S
O45 Tb40 2.374 1_565 S
O45 C41 1.251 . S
C46 O50 1.275 . S
C46 O51 1.246 . S
O47 C41 1.263 . S
O47 Tb42 2.353 . S
C48 O52 1.245 . S
C48 O53 1.259 . S
C49 O54 1.250 . S
C49 O55 1.263 . S
O50 Tb42 2.427 . S
O50 C46 1.275 . S
O51 Tb42 2.513 . S
O51 C46 1.246 . S
O52 Tb42 2.453 1_545 S
O52 C48 1.245 . S
O53 Tb40 2.343 . S
O53 Tb42 2.596 1_545 S
O53 C48 1.259 . S
O54 Tb42 2.374 1_545 S
O54 C49 1.250 . S
O55 Tb40 2.353 . S
O55 C49 1.263 . S
C56 O57 1.275 . S
C56 O58 1.246 . S
O57 Tb40 2.427 . S
O57 C56 1.275 . S
O58 Tb40 2.513 . S
O58 C56 1.246 . S
C59 O43 1.245 . S
C59 O44 1.259 . S
Tb60 O63 2.453 . S
Tb60 O64 2.596 . S
Tb60 O65 2.374 . S
Tb60 O73 2.343 . S
Tb60 O75 2.353 . S
Tb60 O77 2.427 . S
Tb60 O78 2.513 . S
C61 O65 1.251 . S
C61 O67 1.263 . S
Tb62 O64 2.343 . S
Tb62 O67 2.353 . S
Tb62 O70 2.427 . S
Tb62 O71 2.513 . S
Tb62 O72 2.453 . S
Tb62 O73 2.596 . S
Tb62 O74 2.374 . S
O63 Tb60 2.453 . S
O63 C79 1.245 . S
O64 Tb60 2.596 . S
O64 Tb62 2.343 . S
O64 C79 1.259 . S
O65 Tb60 2.374 . S
O65 C61 1.251 . S
C66 O70 1.275 . S
C66 O71 1.246 . S
O67 C61 1.263 . S
O67 Tb62 2.353 . S
C68 O72 1.245 . S
C68 O73 1.259 . S
C69 O74 1.250 . S
C69 O75 1.263 . S
O70 Tb62 2.427 . S
O70 C66 1.275 . S
O71 Tb62 2.513 . S
O71 C66 1.246 . S
O72 Tb62 2.453 . S
O72 C68 1.245 . S
O73 Tb60 2.343 . S
O73 Tb62 2.596 . S
O73 C68 1.259 . S
O74 Tb62 2.374 . S
O74 C69 1.250 . S
O75 Tb60 2.353 . S
O75 C69 1.263 . S
C76 O77 1.275 . S
C76 O78 1.246 . S
O77 Tb60 2.427 . S
O77 C76 1.275 . S
O78 Tb60 2.513 . S
O78 C76 1.246 . S
C79 O63 1.245 . S
C79 O64 1.259 . S
Tb80 O83 2.453 1_565 S
Tb80 O84 2.596 1_565 S
Tb80 O85 2.374 . S
Tb80 O93 2.343 1_655 S
Tb80 O95 2.353 1_665 S
Tb80 O97 2.427 . S
Tb80 O98 2.513 . S
C81 O85 1.251 . S
C81 O87 1.263 . S
Tb82 O84 2.343 1_455 S
Tb82 O87 2.353 1_445 S
Tb82 O90 2.427 . S
Tb82 O91 2.513 . S
Tb82 O92 2.453 1_545 S
Tb82 O93 2.596 1_545 S
Tb82 O94 2.374 . S
O83 Tb80 2.453 1_545 S
O83 C99 1.245 . S
O84 Tb80 2.596 1_545 S
O84 Tb82 2.343 1_655 S
O84 C99 1.259 . S
O85 Tb80 2.374 . S
O85 C81 1.251 . S
C86 O90 1.275 . S
C86 O91 1.246 . S
O87 C81 1.263 . S
O87 Tb82 2.353 1_665 S
C88 O92 1.245 . S
C88 O93 1.259 . S
C89 O94 1.250 . S
C89 O95 1.263 . S
O90 Tb82 2.427 . S
O90 C86 1.275 . S
O91 Tb82 2.513 . S
O91 C86 1.246 . S
O92 Tb82 2.453 1_565 S
O92 C88 1.245 . S
O93 Tb80 2.343 1_455 S
O93 Tb82 2.596 1_565 S
O93 C88 1.259 . S
O94 Tb82 2.374 . S
O94 C89 1.250 . S
O95 Tb80 2.353 1_445 S
O95 C89 1.263 . S
C96 O97 1.275 . S
C96 O98 1.246 . S
O97 Tb80 2.427 . S
O97 C96 1.275 . S
O98 Tb80 2.513 . S
O98 C96 1.246 . S
C99 O83 1.245 . S
C99 O84 1.259 . S
Tb100 O103 2.453 . S
Tb100 O104 2.596 . S
Tb100 O105 2.374 . S
Tb100 O113 2.343 . S
Tb100 O115 2.353 . S
Tb100 O117 2.427 . S
Tb100 O118 2.513 . S
C101 O105 1.251 . S
C101 O107 1.263 . S
Tb102 O104 2.343 . S
Tb102 O107 2.353 . S
Tb102 O110 2.427 . S
Tb102 O111 2.513 . S
Tb102 O112 2.453 . S
Tb102 O113 2.596 . S
Tb102 O114 2.374 . S
O103 Tb100 2.453 . S
O103 C119 1.245 . S
O104 Tb100 2.596 . S
O104 Tb102 2.343 . S
O104 C119 1.259 . S
O105 Tb100 2.374 . S
O105 C101 1.251 . S
C106 O110 1.275 . S
C106 O111 1.246 . S
O107 C101 1.263 . S
O107 Tb102 2.353 . S
C108 O112 1.245 . S
C108 O113 1.259 . S
C109 O114 1.250 . S
C109 O115 1.263 . S
O110 Tb102 2.427 . S
O110 C106 1.275 . S
O111 Tb102 2.513 . S
O111 C106 1.246 . S
O112 Tb102 2.453 . S
O112 C108 1.245 . S
O113 Tb100 2.343 . S
O113 Tb102 2.596 . S
O113 C108 1.259 . S
O114 Tb102 2.374 . S
O114 C109 1.250 . S
O115 Tb100 2.353 . S
O115 C109 1.263 . S
C116 O117 1.275 . S
C116 O118 1.246 . S
O117 Tb100 2.427 . S
O117 C116 1.275 . S
O118 Tb100 2.513 . S
O118 C116 1.246 . S
C119 O103 1.245 . S
C119 O104 1.259 . S
Tb120 O123 2.453 1_556 S
Tb120 O124 2.596 1_556 S
Tb120 O125 2.374 1_556 S
Tb120 O133 2.343 1_545 S
Tb120 O135 2.353 1_545 S
Tb120 O137 2.427 . S
Tb120 O138 2.513 . S
C121 O125 1.251 . S
C121 O127 1.263 . S
Tb122 O124 2.343 1_565 S
Tb122 O127 2.353 1_565 S
Tb122 O130 2.427 . S
Tb122 O131 2.513 . S
Tb122 O132 2.453 1_554 S
Tb122 O133 2.596 1_554 S
Tb122 O134 2.374 1_554 S
O123 Tb120 2.453 1_554 S
O123 C139 1.245 . S
O124 Tb120 2.596 1_554 S
O124 Tb122 2.343 1_545 S
O124 C139 1.259 . S
O125 Tb120 2.374 1_554 S
O125 C121 1.251 . S
C126 O130 1.275 . S
C126 O131 1.246 . S
O127 C121 1.263 . S
O127 Tb122 2.353 1_545 S
C128 O132 1.245 . S
C128 O133 1.259 . S
C129 O134 1.250 . S
C129 O135 1.263 . S
O130 Tb122 2.427 . S
O130 C126 1.275 . S
O131 Tb122 2.513 . S
O131 C126 1.246 . S
O132 Tb122 2.453 1_556 S
O132 C128 1.245 . S
O133 Tb120 2.343 1_565 S
O133 Tb122 2.596 1_556 S
O133 C128 1.259 . S
O134 Tb122 2.374 1_556 S
O134 C129 1.250 . S
O135 Tb120 2.353 1_565 S
O135 C129 1.263 . S
C136 O137 1.275 . S
C136 O138 1.246 . S
O137 Tb120 2.427 . S
O137 C136 1.275 . S
O138 Tb120 2.513 . S
O138 C136 1.246 . S
C139 O123 1.245 . S
C139 O124 1.259 . S
Tb140 O143 2.453 . S
Tb140 O144 2.596 . S
Tb140 O145 2.374 . S
Tb140 O153 2.343 . S
Tb140 O155 2.353 . S
Tb140 O157 2.427 . S
Tb140 O158 2.513 . S
C141 O145 1.251 . S
C141 O147 1.263 . S
Tb142 O144 2.343 . S
Tb142 O147 2.353 . S
Tb142 O150 2.427 . S
Tb142 O151 2.513 . S
Tb142 O152 2.453 . S
Tb142 O153 2.596 . S
Tb142 O154 2.374 . S
O143 Tb140 2.453 . S
O143 C159 1.245 . S
O144 Tb140 2.596 . S
O144 Tb142 2.343 . S
O144 C159 1.259 . S
O145 Tb140 2.374 . S
O145 C141 1.251 . S
C146 O150 1.275 . S
C146 O151 1.246 . S
O147 C141 1.263 . S
O147 Tb142 2.353 . S
C148 O152 1.245 . S
C148 O153 1.259 . S
C149 O154 1.250 . S
C149 O155 1.263 . S
O150 Tb142 2.427 . S
O150 C146 1.275 . S
O151 Tb142 2.513 . S
O151 C146 1.246 . S
O152 Tb142 2.453 . S
O152 C148 1.245 . S
O153 Tb140 2.343 . S
O153 Tb142 2.596 . S
O153 C148 1.259 . S
O154 Tb142 2.374 . S
O154 C149 1.250 . S
O155 Tb140 2.353 . S
O155 C149 1.263 . S
C156 O157 1.275 . S
C156 O158 1.246 . S
O157 Tb140 2.427 . S
O157 C156 1.275 . S
O158 Tb140 2.513 . S
O158 C156 1.246 . S
C159 O143 1.245 . S
C159 O144 1.259 . S
Tb160 O163 2.453 1_554 S
Tb160 O164 2.596 1_554 S
Tb160 O165 2.374 1_554 S
Tb160 O173 2.343 . S
Tb160 O175 2.353 . S
Tb160 O177 2.427 . S
Tb160 O178 2.513 . S
C161 O165 1.251 . S
C161 O167 1.263 . S
Tb162 O164 2.343 . S
Tb162 O167 2.353 . S
Tb162 O170 2.427 . S
Tb162 O171 2.513 . S
Tb162 O172 2.453 1_556 S
Tb162 O173 2.596 1_556 S
Tb162 O174 2.374 1_556 S
O163 Tb160 2.453 1_556 S
O163 C179 1.245 . S
O164 Tb160 2.596 1_556 S
O164 Tb162 2.343 . S
O164 C179 1.259 . S
O165 Tb160 2.374 1_556 S
O165 C161 1.251 . S
C166 O170 1.275 . S
C166 O171 1.246 . S
O167 C161 1.263 . S
O167 Tb162 2.353 . S
C168 O172 1.245 . S
C168 O173 1.259 . S
C169 O174 1.250 . S
C169 O175 1.263 . S
O170 Tb162 2.427 . S
O170 C166 1.275 . S
O171 Tb162 2.513 . S
O171 C166 1.246 . S
O172 Tb162 2.453 1_554 S
O172 C168 1.245 . S
O173 Tb160 2.343 . S
O173 Tb162 2.596 1_554 S
O173 C168 1.259 . S
O174 Tb162 2.374 1_554 S
O174 C169 1.250 . S
O175 Tb160 2.353 . S
O175 C169 1.263 . S
C176 O177 1.275 . S
C176 O178 1.246 . S
O177 Tb160 2.427 . S
O177 C176 1.275 . S
O178 Tb160 2.513 . S
O178 C176 1.246 . S
C179 O163 1.245 . S
C179 O164 1.259 . S
Tb180 O183 2.453 . S
Tb180 O184 2.596 . S
Tb180 O185 2.374 . S
Tb180 O193 2.343 . S
Tb180 O195 2.353 . S
Tb180 O197 2.427 . S
Tb180 O198 2.513 . S
C181 O185 1.251 . S
C181 O187 1.263 . S
Tb182 O184 2.343 . S
Tb182 O187 2.353 . S
Tb182 O190 2.427 . S
Tb182 O191 2.513 . S
Tb182 O192 2.453 . S
Tb182 O193 2.596 . S
Tb182 O194 2.374 . S
O183 Tb180 2.453 . S
O183 C199 1.245 . S
O184 Tb180 2.596 . S
O184 Tb182 2.343 . S
O184 C199 1.259 . S
O185 Tb180 2.374 . S
O185 C181 1.251 . S
C186 O190 1.275 . S
C186 O191 1.246 . S
O187 C181 1.263 . S
O187 Tb182 2.353 . S
C188 O192 1.245 . S
C188 O193 1.259 . S
C189 O194 1.250 . S
C189 O195 1.263 . S
O190 Tb182 2.427 . S
O190 C186 1.275 . S
O191 Tb182 2.513 . S
O191 C186 1.246 . S
O192 Tb182 2.453 . S
O192 C188 1.245 . S
O193 Tb180 2.343 . S
O193 Tb182 2.596 . S
O193 C188 1.259 . S
O194 Tb182 2.374 . S
O194 C189 1.250 . S
O195 Tb180 2.353 . S
O195 C189 1.263 . S
C196 O197 1.275 . S
C196 O198 1.246 . S
O197 Tb180 2.427 . S
O197 C196 1.275 . S
O198 Tb180 2.513 . S
O198 C196 1.246 . S
C199 O183 1.245 . S
C199 O184 1.259 . S
Tb200 O203 2.453 . S
Tb200 O204 2.596 . S
Tb200 O205 2.374 1_655 S
Tb200 O213 2.343 1_655 S
Tb200 O215 2.353 . S
Tb200 O217 2.427 1_655 S
Tb200 O218 2.513 1_655 S
C201 O205 1.251 . S
C201 O207 1.263 . S
Tb202 O204 2.343 1_455 S
Tb202 O207 2.353 . S
Tb202 O210 2.427 1_455 S
Tb202 O211 2.513 1_455 S
Tb202 O212 2.453 . S
Tb202 O213 2.596 . S
Tb202 O214 2.374 1_455 S
O203 Tb200 2.453 . S
O203 C219 1.245 . S
O204 Tb200 2.596 . S
O204 Tb202 2.343 1_655 S
O204 C219 1.259 . S
O205 Tb200 2.374 1_455 S
O205 C201 1.251 . S
C206 O210 1.275 . S
C206 O211 1.246 . S
O207 C201 1.263 . S
O207 Tb202 2.353 . S
C208 O212 1.245 . S
C208 O213 1.259 . S
C209 O214 1.250 . S
C209 O215 1.263 . S
O210 Tb202 2.427 1_655 S
O210 C206 1.275 . S
O211 Tb202 2.513 1_655 S
O211 C206 1.246 . S
O212 Tb202 2.453 . S
O212 C208 1.245 . S
O213 Tb200 2.343 1_455 S
O213 Tb202 2.596 . S
O213 C208 1.259 . S
O214 Tb202 2.374 1_655 S
O214 C209 1.250 . S
O215 Tb200 2.353 . S
O215 C209 1.263 . S
C216 O217 1.275 . S
C216 O218 1.246 . S
O217 Tb200 2.427 1_455 S
O217 C216 1.275 . S
O218 Tb200 2.513 1_455 S
O218 C216 1.246 . S
C219 O203 1.245 . S
C219 O204 1.259 . S
Tb220 O223 2.453 . S
Tb220 O224 2.596 . S
Tb220 O225 2.374 . S
Tb220 O233 2.343 . S
Tb220 O235 2.353 . S
Tb220 O237 2.427 . S
Tb220 O238 2.513 . S
C221 O225 1.251 . S
C221 O227 1.263 . S
Tb222 O224 2.343 . S
Tb222 O227 2.353 . S
Tb222 O230 2.427 . S
Tb222 O231 2.513 . S
Tb222 O232 2.453 . S
Tb222 O233 2.596 . S
Tb222 O234 2.374 . S
O223 Tb220 2.453 . S
O223 C239 1.245 . S
O224 Tb220 2.596 . S
O224 Tb222 2.343 . S
O224 C239 1.259 . S
O225 Tb220 2.374 . S
O225 C221 1.251 . S
C226 O230 1.275 . S
C226 O231 1.246 . S
O227 C221 1.263 . S
O227 Tb222 2.353 . S
C228 O232 1.245 . S
C228 O233 1.259 . S
C229 O234 1.250 . S
C229 O235 1.263 . S
O230 Tb222 2.427 . S
O230 C226 1.275 . S
O231 Tb222 2.513 . S
O231 C226 1.246 . S
O232 Tb222 2.453 . S
O232 C228 1.245 . S
O233 Tb220 2.343 . S
O233 Tb222 2.596 . S
O233 C228 1.259 . S
O234 Tb222 2.374 . S
O234 C229 1.250 . S
O235 Tb220 2.353 . S
O235 C229 1.263 . S
C236 O237 1.275 . S
C236 O238 1.246 . S
O237 Tb220 2.427 . S
O237 C236 1.275 . S
O238 Tb220 2.513 . S
O238 C236 1.246 . S
C239 O223 1.245 . S
C239 O224 1.259 . S
Tb240 O243 2.453 . S
Tb240 O244 2.596 . S
Tb240 O245 2.374 . S
Tb240 O253 2.343 . S
Tb240 O255 2.353 . S
Tb240 O257 2.427 . S
Tb240 O258 2.513 . S
C241 O245 1.251 . S
C241 O247 1.263 . S
Tb242 O244 2.343 . S
Tb242 O247 2.353 . S
Tb242 O250 2.427 . S
Tb242 O251 2.513 . S
Tb242 O252 2.453 . S
Tb242 O253 2.596 . S
Tb242 O254 2.374 . S
O243 Tb240 2.453 . S
O243 C259 1.245 . S
O244 Tb240 2.596 . S
O244 Tb242 2.343 . S
O244 C259 1.259 . S
O245 Tb240 2.374 . S
O245 C241 1.251 . S
C246 O250 1.275 . S
C246 O251 1.246 . S
O247 C241 1.263 . S
O247 Tb242 2.353 . S
C248 O252 1.245 . S
C248 O253 1.259 . S
C249 O254 1.250 . S
C249 O255 1.263 . S
O250 Tb242 2.427 . S
O250 C246 1.275 . S
O251 Tb242 2.513 . S
O251 C246 1.246 . S
O252 Tb242 2.453 . S
O252 C248 1.245 . S
O253 Tb240 2.343 . S
O253 Tb242 2.596 . S
O253 C248 1.259 . S
O254 Tb242 2.374 . S
O254 C249 1.250 . S
O255 Tb240 2.353 . S
O255 C249 1.263 . S
C256 O257 1.275 . S
C256 O258 1.246 . S
O257 Tb240 2.427 . S
O257 C256 1.275 . S
O258 Tb240 2.513 . S
O258 C256 1.246 . S
C259 O243 1.245 . S
C259 O244 1.259 . S
Tb260 O263 2.453 . S
Tb260 O264 2.596 . S
Tb260 O265 2.374 . S
Tb260 O273 2.343 . S
Tb260 O275 2.353 . S
Tb260 O277 2.427 . S
Tb260 O278 2.513 . S
C261 O265 1.251 . S
C261 O267 1.263 . S
Tb262 O264 2.343 . S
Tb262 O267 2.353 . S
Tb262 O270 2.427 . S
Tb262 O271 2.513 . S
Tb262 O272 2.453 . S
Tb262 O273 2.596 . S
Tb262 O274 2.374 . S
O263 Tb260 2.453 . S
O263 C279 1.245 . S
O264 Tb260 2.596 . S
O264 Tb262 2.343 . S
O264 C279 1.259 . S
O265 Tb260 2.374 . S
O265 C261 1.251 . S
C266 O270 1.275 . S
C266 O271 1.246 . S
O267 C261 1.263 . S
O267 Tb262 2.353 . S
C268 O272 1.245 . S
C268 O273 1.259 . S
C269 O274 1.250 . S
C269 O275 1.263 . S
O270 Tb262 2.427 . S
O270 C266 1.275 . S
O271 Tb262 2.513 . S
O271 C266 1.246 . S
O272 Tb262 2.453 . S
O272 C268 1.245 . S
O273 Tb260 2.343 . S
O273 Tb262 2.596 . S
O273 C268 1.259 . S
O274 Tb262 2.374 . S
O274 C269 1.250 . S
O275 Tb260 2.353 . S
O275 C269 1.263 . S
C276 O277 1.275 . S
C276 O278 1.246 . S
O277 Tb260 2.427 . S
O277 C276 1.275 . S
O278 Tb260 2.513 . S
O278 C276 1.246 . S
C279 O263 1.245 . S
C279 O264 1.259 . S
Tb280 O283 2.453 . S
Tb280 O284 2.596 . S
Tb280 O285 2.374 . S
Tb280 O293 2.343 . S
Tb280 O295 2.353 . S
Tb280 O297 2.427 . S
Tb280 O298 2.513 . S
C281 O285 1.251 . S
C281 O287 1.263 . S
Tb282 O284 2.343 . S
Tb282 O287 2.353 . S
Tb282 O290 2.427 . S
Tb282 O291 2.513 . S
Tb282 O292 2.453 . S
Tb282 O293 2.596 . S
Tb282 O294 2.374 . S
O283 Tb280 2.453 . S
O283 C299 1.245 . S
O284 Tb280 2.596 . S
O284 Tb282 2.343 . S
O284 C299 1.259 . S
O285 Tb280 2.374 . S
O285 C281 1.251 . S
C286 O290 1.275 . S
C286 O291 1.246 . S
O287 C281 1.263 . S
O287 Tb282 2.353 . S
C288 O292 1.245 . S
C288 O293 1.259 . S
C289 O294 1.250 . S
C289 O295 1.263 . S
O290 Tb282 2.427 . S
O290 C286 1.275 . S
O291 Tb282 2.513 . S
O291 C286 1.246 . S
O292 Tb282 2.453 . S
O292 C288 1.245 . S
O293 Tb280 2.343 . S
O293 Tb282 2.596 . S
O293 C288 1.259 . S
O294 Tb282 2.374 . S
O294 C289 1.250 . S
O295 Tb280 2.353 . S
O295 C289 1.263 . S
C296 O297 1.275 . S
C296 O298 1.246 . S
O297 Tb280 2.427 . S
O297 C296 1.275 . S
O298 Tb280 2.513 . S
O298 C296 1.246 . S
C299 O283 1.245 . S
C299 O284 1.259 . S
Tb300 O303 2.453 . S
Tb300 O304 2.596 . S
Tb300 O305 2.374 1_455 S
Tb300 O313 2.343 1_456 S
Tb300 O315 2.353 1_556 S
Tb300 O317 2.427 1_455 S
Tb300 O318 2.513 1_455 S
C301 O305 1.251 . S
C301 O307 1.263 . S
Tb302 O304 2.343 1_654 S
Tb302 O307 2.353 1_554 S
Tb302 O310 2.427 1_655 S
Tb302 O311 2.513 1_655 S
Tb302 O312 2.453 . S
Tb302 O313 2.596 . S
Tb302 O314 2.374 1_655 S
O303 Tb300 2.453 . S
O303 C319 1.245 . S
O304 Tb300 2.596 . S
O304 Tb302 2.343 1_456 S
O304 C319 1.259 . S
O305 Tb300 2.374 1_655 S
O305 C301 1.251 . S
C306 O310 1.275 . S
C306 O311 1.246 . S
O307 C301 1.263 . S
O307 Tb302 2.353 1_556 S
C308 O312 1.245 . S
C308 O313 1.259 . S
C309 O314 1.250 . S
C309 O315 1.263 . S
O310 Tb302 2.427 1_455 S
O310 C306 1.275 . S
O311 Tb302 2.513 1_455 S
O311 C306 1.246 . S
O312 Tb302 2.453 . S
O312 C308 1.245 . S
O313 Tb300 2.343 1_654 S
O313 Tb302 2.596 . S
O313 C308 1.259 . S
O314 Tb302 2.374 1_455 S
O314 C309 1.250 . S
O315 Tb300 2.353 1_554 S
O315 C309 1.263 . S
C316 O317 1.275 . S
C316 O318 1.246 . S
O317 Tb300 2.427 1_655 S
O317 C316 1.275 . S
O318 Tb300 2.513 1_655 S
O318 C316 1.246 . S
C319 O303 1.245 . S
C319 O304 1.259 . S
C320 C321 1.363 . S
C320 C326 1.379 . S
C320 N328 1.356 . S
C321 C320 1.363 . S
C321 C327 1.363 . S
C322 C323 1.363 . S
C322 C327 1.379 . S
C322 N329 1.356 1_556 S
C323 C322 1.363 . S
C323 C326 1.363 . S
N324 C326 1.356 . S
N324 H336 0.984 . S
N324 H337 0.985 . S
N325 C327 1.356 . S
N325 H330 0.984 . S
N325 H331 0.985 . S
C326 C320 1.379 . S
C326 C323 1.363 . S
C326 N324 1.356 . S
C327 C321 1.363 . S
C327 C322 1.379 . S
C327 N325 1.356 . S
N328 C320 1.356 . S
N328 H334 0.984 . S
N328 H335 0.984 . S
N329 C322 1.356 1_554 S
N329 H332 0.984 . S
N329 H333 0.985 . S
H330 N325 0.984 . S
H331 N325 0.985 . S
H332 N329 0.984 . S
H333 N329 0.985 . S
H334 N328 0.984 . S
H335 N328 0.984 . S
H336 N324 0.984 . S
H337 N324 0.985 . S
C338 C339 1.363 . S
C338 C344 1.379 . S
C338 N346 1.356 . S
C339 C338 1.363 . S
C339 C345 1.363 . S
C340 C341 1.363 . S
C340 C345 1.379 . S
C340 N347 1.356 . S
C341 C340 1.363 . S
C341 C344 1.363 . S
N342 C344 1.356 . S
N342 H354 0.984 . S
N342 H355 0.985 . S
N343 C345 1.356 . S
N343 H348 0.984 . S
N343 H349 0.985 . S
C344 C338 1.379 . S
C344 C341 1.363 . S
C344 N342 1.356 . S
C345 C339 1.363 . S
C345 C340 1.379 . S
C345 N343 1.356 . S
N346 C338 1.356 . S
N346 H352 0.984 . S
N346 H353 0.984 . S
N347 C340 1.356 . S
N347 H350 0.984 . S
N347 H351 0.985 . S
H348 N343 0.984 . S
H349 N343 0.985 . S
H350 N347 0.984 . S
H351 N347 0.985 . S
H352 N346 0.984 . S
H353 N346 0.984 . S
H354 N342 0.984 . S
H355 N342 0.985 . S
C356 C357 1.363 . S
C356 C362 1.379 . S
C356 N364 1.356 . S
C357 C356 1.363 . S
C357 C363 1.363 . S
C358 C359 1.363 . S
C358 C363 1.379 . S
C358 N365 1.356 . S
C359 C358 1.363 . S
C359 C362 1.363 . S
N360 C362 1.356 . S
N360 H372 0.984 . S
N360 H373 0.985 . S
N361 C363 1.356 . S
N361 H366 0.984 . S
N361 H367 0.985 . S
C362 C356 1.379 . S
C362 C359 1.363 . S
C362 N360 1.356 . S
C363 C357 1.363 . S
C363 C358 1.379 . S
C363 N361 1.356 . S
N364 C356 1.356 . S
N364 H370 0.984 . S
N364 H371 0.984 . S
N365 C358 1.356 . S
N365 H368 0.984 . S
N365 H369 0.985 . S
H366 N361 0.984 . S
H367 N361 0.985 . S
H368 N365 0.984 . S
H369 N365 0.985 . S
H370 N364 0.984 . S
H371 N364 0.984 . S
H372 N360 0.984 . S
H373 N360 0.985 . S
C374 C375 1.363 . S
C374 C380 1.379 . S
C374 N382 1.356 . S
C375 C374 1.363 . S
C375 C381 1.363 . S
C376 C377 1.363 . S
C376 C381 1.379 . S
C376 N383 1.356 . S
C377 C376 1.363 . S
C377 C380 1.363 . S
N378 C380 1.356 . S
N378 H390 0.984 . S
N378 H391 0.985 . S
N379 C381 1.356 . S
N379 H384 0.984 . S
N379 H385 0.985 . S
C380 C374 1.379 . S
C380 C377 1.363 . S
C380 N378 1.356 . S
C381 C375 1.363 . S
C381 C376 1.379 . S
C381 N379 1.356 . S
N382 C374 1.356 . S
N382 H388 0.984 . S
N382 H389 0.984 . S
N383 C376 1.356 . S
N383 H386 0.984 . S
N383 H387 0.985 . S
H384 N379 0.984 . S
H385 N379 0.985 . S
H386 N383 0.984 . S
H387 N383 0.985 . S
H388 N382 0.984 . S
H389 N382 0.984 . S
H390 N378 0.984 . S
H391 N378 0.985 . S
C392 C393 1.363 . S
C392 C398 1.379 . S
C392 N400 1.356 . S
C393 C392 1.363 . S
C393 C399 1.363 . S
C394 C395 1.363 . S
C394 C399 1.379 . S
C394 N401 1.356 . S
C395 C394 1.363 . S
C395 C398 1.363 . S
N396 C398 1.356 . S
N396 H408 0.984 . S
N396 H409 0.985 . S
N397 C399 1.356 . S
N397 H402 0.984 . S
N397 H403 0.985 . S
C398 C392 1.379 . S
C398 C395 1.363 . S
C398 N396 1.356 . S
C399 C393 1.363 . S
C399 C394 1.379 . S
C399 N397 1.356 . S
N400 C392 1.356 . S
N400 H406 0.984 1_565 S
N400 H407 0.984 . S
N401 C394 1.356 . S
N401 H404 0.984 . S
N401 H405 0.985 . S
H402 N397 0.984 . S
H403 N397 0.985 . S
H404 N401 0.984 . S
H405 N401 0.985 . S
H406 N400 0.984 1_545 S
H407 N400 0.984 . S
H408 N396 0.984 . S
H409 N396 0.985 . S
C410 C411 1.363 . S
C410 C416 1.379 . S
C410 N418 1.356 . S
C411 C410 1.363 . S
C411 C417 1.363 . S
C412 C413 1.363 . S
C412 C417 1.379 . S
C412 N419 1.356 . S
C413 C412 1.363 . S
C413 C416 1.363 . S
N414 C416 1.356 . S
N414 H426 0.984 . S
N414 H427 0.985 . S
N415 C417 1.356 . S
N415 H420 0.984 . S
N415 H421 0.985 . S
C416 C410 1.379 . S
C416 C413 1.363 . S
C416 N414 1.356 . S
C417 C411 1.363 . S
C417 C412 1.379 . S
C417 N415 1.356 . S
N418 C410 1.356 . S
N418 H424 0.984 . S
N418 H425 0.984 . S
N419 C412 1.356 . S
N419 H422 0.984 . S
N419 H423 0.985 . S
H420 N415 0.984 . S
H421 N415 0.985 . S
H422 N419 0.984 . S
H423 N419 0.985 . S
H424 N418 0.984 . S
H425 N418 0.984 . S
H426 N414 0.984 . S
H427 N414 0.985 . S
C428 C429 1.363 . S
C428 C434 1.379 . S
C428 N436 1.356 . S
C429 C428 1.363 . S
C429 C435 1.363 . S
C430 C431 1.363 . S
C430 C435 1.379 . S
C430 N437 1.356 . S
C431 C430 1.363 . S
C431 C434 1.363 . S
N432 C434 1.356 . S
N432 H444 0.984 . S
N432 H445 0.985 . S
N433 C435 1.356 . S
N433 H438 0.984 1_545 S
N433 H439 0.985 1_545 S
C434 C428 1.379 . S
C434 C431 1.363 . S
C434 N432 1.356 . S
C435 C429 1.363 . S
C435 C430 1.379 . S
C435 N433 1.356 . S
N436 C428 1.356 . S
N436 H442 0.984 . S
N436 H443 0.984 . S
N437 C430 1.356 . S
N437 H440 0.984 . S
N437 H441 0.985 . S
H438 N433 0.984 1_565 S
H439 N433 0.985 1_565 S
H440 N437 0.984 . S
H441 N437 0.985 . S
H442 N436 0.984 . S
H443 N436 0.984 . S
H444 N432 0.984 . S
H445 N432 0.985 . S
C446 C447 1.363 . S
C446 C452 1.379 . S
C446 N454 1.356 . S
C447 C446 1.363 . S
C447 C453 1.363 . S
C448 C449 1.363 . S
C448 C453 1.379 . S
C448 N455 1.356 . S
C449 C448 1.363 . S
C449 C452 1.363 . S
N450 C452 1.356 . S
N450 H462 0.984 . S
N450 H463 0.985 . S
N451 C453 1.356 . S
N451 H456 0.984 . S
N451 H457 0.985 . S
C452 C446 1.379 . S
C452 C449 1.363 . S
C452 N450 1.356 . S
C453 C447 1.363 . S
C453 C448 1.379 . S
C453 N451 1.356 . S
N454 C446 1.356 . S
N454 H460 0.984 . S
N454 H461 0.984 . S
N455 C448 1.356 . S
N455 H458 0.984 . S
N455 H459 0.985 . S
H456 N451 0.984 . S
H457 N451 0.985 . S
H458 N455 0.984 . S
H459 N455 0.985 . S
H460 N454 0.984 . S
H461 N454 0.984 . S
H462 N450 0.984 . S
H463 N450 0.985 . S
C464 C465 1.363 . S
C464 C470 1.379 . S
C464 N472 1.356 . S
C465 C464 1.363 . S
C465 C471 1.363 . S
C466 C467 1.363 . S
C466 C471 1.379 . S
C466 N473 1.356 . S
C467 C466 1.363 . S
C467 C470 1.363 . S
N468 C470 1.356 . S
N468 H480 0.984 . S
N468 H481 0.985 . S
N469 C471 1.356 . S
N469 H474 0.984 . S
N469 H475 0.985 . S
C470 C464 1.379 . S
C470 C467 1.363 . S
C470 N468 1.356 . S
C471 C465 1.363 . S
C471 C466 1.379 . S
C471 N469 1.356 . S
N472 C464 1.356 . S
N472 H478 0.984 . S
N472 H479 0.984 . S
N473 C466 1.356 . S
N473 H476 0.984 . S
N473 H477 0.985 . S
H474 N469 0.984 . S
H475 N469 0.985 . S
H476 N473 0.984 . S
H477 N473 0.985 . S
H478 N472 0.984 . S
H479 N472 0.984 . S
H480 N468 0.984 . S
H481 N468 0.985 . S
C482 C483 1.363 . S
C482 C488 1.379 . S
C482 N490 1.356 . S
C483 C482 1.363 . S
C483 C489 1.363 . S
C484 C485 1.363 . S
C484 C489 1.379 . S
C484 N491 1.356 . S
C485 C484 1.363 . S
C485 C488 1.363 . S
N486 C488 1.356 . S
N486 H498 0.984 . S
N486 H499 0.985 . S
N487 C489 1.356 . S
N487 H492 0.984 . S
N487 H493 0.985 . S
C488 C482 1.379 . S
C488 C485 1.363 . S
C488 N486 1.356 . S
C489 C483 1.363 . S
C489 C484 1.379 . S
C489 N487 1.356 . S
N490 C482 1.356 . S
N490 H496 0.984 . S
N490 H497 0.984 . S
N491 C484 1.356 . S
N491 H494 0.984 . S
N491 H495 0.985 . S
H492 N487 0.984 . S
H493 N487 0.985 . S
H494 N491 0.984 . S
H495 N491 0.985 . S
H496 N490 0.984 . S
H497 N490 0.984 . S
H498 N486 0.984 . S
H499 N486 0.985 . S
C500 C501 1.363 . S
C500 C506 1.379 . S
C500 N508 1.356 . S
C501 C500 1.363 . S
C501 C507 1.363 . S
C502 C503 1.363 . S
C502 C507 1.379 . S
C502 N509 1.356 . S
C503 C502 1.363 . S
C503 C506 1.363 . S
N504 C506 1.356 . S
N504 H516 0.984 . S
N504 H517 0.985 . S
N505 C507 1.356 . S
N505 H510 0.984 . S
N505 H511 0.985 . S
C506 C500 1.379 . S
C506 C503 1.363 . S
C506 N504 1.356 . S
C507 C501 1.363 . S
C507 C502 1.379 . S
C507 N505 1.356 . S
N508 C500 1.356 . S
N508 H514 0.984 . S
N508 H515 0.984 . S
N509 C502 1.356 . S
N509 H512 0.984 . S
N509 H513 0.985 . S
H510 N505 0.984 . S
H511 N505 0.985 . S
H512 N509 0.984 . S
H513 N509 0.985 . S
H514 N508 0.984 . S
H515 N508 0.984 . S
H516 N504 0.984 . S
H517 N504 0.985 . S
C518 C519 1.363 . S
C518 C524 1.379 . S
C518 N526 1.356 . S
C519 C518 1.363 . S
C519 C525 1.363 . S
C520 C521 1.363 . S
C520 C525 1.379 . S
C520 N527 1.356 . S
C521 C520 1.363 . S
C521 C524 1.363 . S
N522 C524 1.356 . S
N522 H534 0.984 . S
N522 H535 0.985 . S
N523 C525 1.356 . S
N523 H528 0.984 . S
N523 H529 0.985 . S
C524 C518 1.379 . S
C524 C521 1.363 . S
C524 N522 1.356 . S
C525 C519 1.363 . S
C525 C520 1.379 . S
C525 N523 1.356 . S
N526 C518 1.356 . S
N526 H532 0.984 . S
N526 H533 0.984 . S
N527 C520 1.356 . S
N527 H530 0.984 . S
N527 H531 0.985 . S
H528 N523 0.984 . S
H529 N523 0.985 . S
H530 N527 0.984 . S
H531 N527 0.985 . S
H532 N526 0.984 . S
H533 N526 0.984 . S
H534 N522 0.984 . S
H535 N522 0.985 . S
C536 C537 1.363 . S
C536 C542 1.379 . S
C536 N544 1.356 . S
C537 C536 1.363 . S
C537 C543 1.363 . S
C538 C539 1.363 . S
C538 C543 1.379 . S
C538 N545 1.356 . S
C539 C538 1.363 . S
C539 C542 1.363 . S
N540 C542 1.356 . S
N540 H552 0.984 . S
N540 H553 0.985 . S
N541 C543 1.356 . S
N541 H546 0.984 . S
N541 H547 0.985 . S
C542 C536 1.379 . S
C542 C539 1.363 . S
C542 N540 1.356 . S
C543 C537 1.363 . S
C543 C538 1.379 . S
C543 N541 1.356 . S
N544 C536 1.356 . S
N544 H550 0.984 . S
N544 H551 0.984 . S
N545 C538 1.356 . S
N545 H548 0.984 . S
N545 H549 0.985 . S
H546 N541 0.984 . S
H547 N541 0.985 . S
H548 N545 0.984 . S
H549 N545 0.985 . S
H550 N544 0.984 . S
H551 N544 0.984 . S
H552 N540 0.984 . S
H553 N540 0.985 . S
C554 C555 1.363 . S
C554 C560 1.379 . S
C554 N562 1.356 . S
C555 C554 1.363 . S
C555 C561 1.363 . S
C556 C557 1.363 . S
C556 C561 1.379 . S
C556 N563 1.356 . S
C557 C556 1.363 . S
C557 C560 1.363 . S
N558 C560 1.356 . S
N558 H570 0.984 . S
N558 H571 0.985 . S
N559 C561 1.356 . S
N559 H564 0.984 . S
N559 H565 0.985 . S
C560 C554 1.379 . S
C560 C557 1.363 . S
C560 N558 1.356 . S
C561 C555 1.363 . S
C561 C556 1.379 . S
C561 N559 1.356 . S
N562 C554 1.356 . S
N562 H568 0.984 . S
N562 H569 0.984 . S
N563 C556 1.356 . S
N563 H566 0.984 . S
N563 H567 0.985 . S
H564 N559 0.984 . S
H565 N559 0.985 . S
H566 N563 0.984 . S
H567 N563 0.985 . S
H568 N562 0.984 . S
H569 N562 0.984 . S
H570 N558 0.984 . S
H571 N558 0.985 . S
C572 C573 1.363 . S
C572 C578 1.379 . S
C572 N580 1.356 . S
C573 C572 1.363 . S
C573 C579 1.363 . S
C574 C575 1.363 . S
C574 C579 1.379 . S
C574 N581 1.356 . S
C575 C574 1.363 . S
C575 C578 1.363 . S
N576 C578 1.356 . S
N576 H588 0.984 . S
N576 H589 0.985 . S
N577 C579 1.356 . S
N577 H582 0.984 . S
N577 H583 0.985 . S
C578 C572 1.379 . S
C578 C575 1.363 . S
C578 N576 1.356 . S
C579 C573 1.363 . S
C579 C574 1.379 . S
C579 N577 1.356 . S
N580 C572 1.356 . S
N580 H586 0.984 . S
N580 H587 0.984 . S
N581 C574 1.356 . S
N581 H584 0.984 . S
N581 H585 0.985 . S
H582 N577 0.984 . S
H583 N577 0.985 . S
H584 N581 0.984 . S
H585 N581 0.985 . S
H586 N580 0.984 . S
H587 N580 0.984 . S
H588 N576 0.984 . S
H589 N576 0.985 . S
C590 C591 1.363 . S
C590 C596 1.379 . S
C590 N598 1.356 . S
C591 C590 1.363 . S
C591 C597 1.363 . S
C592 C593 1.363 . S
C592 C597 1.379 . S
C592 N599 1.356 . S
C593 C592 1.363 . S
C593 C596 1.363 . S
N594 C596 1.356 . S
N594 H606 0.984 . S
N594 H607 0.985 . S
N595 C597 1.356 . S
N595 H600 0.984 . S
N595 H601 0.985 . S
C596 C590 1.379 . S
C596 C593 1.363 . S
C596 N594 1.356 . S
C597 C591 1.363 . S
C597 C592 1.379 . S
C597 N595 1.356 . S
N598 C590 1.356 . S
N598 H604 0.984 . S
N598 H605 0.984 . S
N599 C592 1.356 . S
N599 H602 0.984 . S
N599 H603 0.985 . S
H600 N595 0.984 . S
H601 N595 0.985 . S
H602 N599 0.984 . S
H603 N599 0.985 . S
H604 N598 0.984 . S
H605 N598 0.984 . S
H606 N594 0.984 . S
H607 N594 0.985 . S
C608 C609 1.363 . S
C608 C614 1.379 . S
C608 N616 1.356 . S
C609 C608 1.363 . S
C609 C615 1.363 . S
C610 C611 1.363 . S
C610 C615 1.379 . S
C610 N617 1.356 . S
C611 C610 1.363 . S
C611 C614 1.363 . S
N612 C614 1.356 . S
N612 H624 0.984 . S
N612 H625 0.985 . S
N613 C615 1.356 . S
N613 H618 0.984 . S
N613 H619 0.985 . S
C614 C608 1.379 . S
C614 C611 1.363 . S
C614 N612 1.356 . S
C615 C609 1.363 . S
C615 C610 1.379 . S
C615 N613 1.356 . S
N616 C608 1.356 . S
N616 H622 0.984 . S
N616 H623 0.984 . S
N617 C610 1.356 . S
N617 H620 0.984 . S
N617 H621 0.985 . S
H618 N613 0.984 . S
H619 N613 0.985 . S
H620 N617 0.984 . S
H621 N617 0.985 . S
H622 N616 0.984 . S
H623 N616 0.984 . S
H624 N612 0.984 . S
H625 N612 0.985 . S
C626 C627 1.363 . S
C626 C632 1.379 . S
C626 N634 1.356 . S
C627 C626 1.363 . S
C627 C633 1.363 . S
C628 C629 1.363 . S
C628 C633 1.379 . S
C628 N635 1.356 . S
C629 C628 1.363 . S
C629 C632 1.363 . S
N630 C632 1.356 . S
N630 H642 0.984 . S
N630 H643 0.985 . S
N631 C633 1.356 . S
N631 H636 0.984 . S
N631 H637 0.985 . S
C632 C626 1.379 . S
C632 C629 1.363 . S
C632 N630 1.356 . S
C633 C627 1.363 . S
C633 C628 1.379 . S
C633 N631 1.356 . S
N634 C626 1.356 . S
N634 H640 0.984 . S
N634 H641 0.984 . S
N635 C628 1.356 . S
N635 H638 0.984 . S
N635 H639 0.985 . S
H636 N631 0.984 . S
H637 N631 0.985 . S
H638 N635 0.984 . S
H639 N635 0.985 . S
H640 N634 0.984 . S
H641 N634 0.984 . S
H642 N630 0.984 . S
H643 N630 0.985 . S
C644 C645 1.363 . S
C644 C650 1.379 . S
C644 N652 1.356 . S
C645 C644 1.363 . S
C645 C651 1.363 . S
C646 C647 1.363 . S
C646 C651 1.379 . S
C646 N653 1.356 . S
C647 C646 1.363 . S
C647 C650 1.363 . S
N648 C650 1.356 . S
N648 H660 0.984 . S
N648 H661 0.985 . S
N649 C651 1.356 . S
N649 H654 0.984 . S
N649 H655 0.985 . S
C650 C644 1.379 . S
C650 C647 1.363 . S
C650 N648 1.356 . S
C651 C645 1.363 . S
C651 C646 1.379 . S
C651 N649 1.356 . S
N652 C644 1.356 . S
N652 H658 0.984 . S
N652 H659 0.984 . S
N653 C646 1.356 . S
N653 H656 0.984 . S
N653 H657 0.985 . S
H654 N649 0.984 . S
H655 N649 0.985 . S
H656 N653 0.984 . S
H657 N653 0.985 . S
H658 N652 0.984 . S
H659 N652 0.984 . S
H660 N648 0.984 . S
H661 N648 0.985 . S
C662 C663 1.363 . S
C662 C668 1.379 . S
C662 N670 1.356 . S
C663 C662 1.363 . S
C663 C669 1.363 . S
C664 C665 1.363 . S
C664 C669 1.379 . S
C664 N671 1.356 . S
C665 C664 1.363 . S
C665 C668 1.363 . S
N666 C668 1.356 . S
N666 H678 0.984 . S
N666 H679 0.985 . S
N667 C669 1.356 . S
N667 H672 0.984 . S
N667 H673 0.985 . S
C668 C662 1.379 . S
C668 C665 1.363 . S
C668 N666 1.356 . S
C669 C663 1.363 . S
C669 C664 1.379 . S
C669 N667 1.356 . S
N670 C662 1.356 . S
N670 H676 0.984 . S
N670 H677 0.984 . S
N671 C664 1.356 . S
N671 H674 0.984 . S
N671 H675 0.985 . S
H672 N667 0.984 . S
H673 N667 0.985 . S
H674 N671 0.984 . S
H675 N671 0.985 . S
H676 N670 0.984 . S
H677 N670 0.984 . S
H678 N666 0.984 . S
H679 N666 0.985 . S
C680 C681 1.363 . S
C680 C686 1.379 . S
C680 N688 1.356 . S
C681 C680 1.363 . S
C681 C687 1.363 . S
C682 C683 1.363 . S
C682 C687 1.379 . S
C682 N689 1.356 . S
C683 C682 1.363 . S
C683 C686 1.363 . S
N684 C686 1.356 . S
N684 H696 0.984 1_556 S
N684 H697 0.985 . S
N685 C687 1.356 . S
N685 H690 0.984 . S
N685 H691 0.985 . S
C686 C680 1.379 . S
C686 C683 1.363 . S
C686 N684 1.356 . S
C687 C681 1.363 . S
C687 C682 1.379 . S
C687 N685 1.356 . S
N688 C680 1.356 . S
N688 H694 0.984 . S
N688 H695 0.984 . S
N689 C682 1.356 . S
N689 H692 0.984 . S
N689 H693 0.985 . S
H690 N685 0.984 . S
H691 N685 0.985 . S
H692 N689 0.984 . S
H693 N689 0.985 . S
H694 N688 0.984 . S
H695 N688 0.984 . S
H696 N684 0.984 1_554 S
H697 N684 0.985 . S
C698 C699 1.363 . S
C698 C704 1.379 . S
C698 N706 1.356 . S
C699 C698 1.363 . S
C699 C705 1.363 . S
C700 C701 1.363 . S
C700 C705 1.379 . S
C700 N707 1.356 . S
C701 C700 1.363 . S
C701 C704 1.363 . S
N702 C704 1.356 . S
N702 H714 0.984 . S
N702 H715 0.985 . S
N703 C705 1.356 . S
N703 H708 0.984 . S
N703 H709 0.985 . S
C704 C698 1.379 . S
C704 C701 1.363 . S
C704 N702 1.356 . S
C705 C699 1.363 . S
C705 C700 1.379 . S
C705 N703 1.356 . S
N706 C698 1.356 . S
N706 H712 0.984 . S
N706 H713 0.984 . S
N707 C700 1.356 . S
N707 H710 0.984 . S
N707 H711 0.985 . S
H708 N703 0.984 . S
H709 N703 0.985 . S
H710 N707 0.984 . S
H711 N707 0.985 . S
H712 N706 0.984 . S
H713 N706 0.984 . S
H714 N702 0.984 . S
H715 N702 0.985 . S
C716 C717 1.363 . S
C716 C722 1.379 . S
C716 N724 1.356 . S
C717 C716 1.363 . S
C717 C723 1.363 . S
C718 C719 1.363 . S
C718 C723 1.379 . S
C718 N725 1.356 . S
C719 C718 1.363 . S
C719 C722 1.363 . S
N720 C722 1.356 . S
N720 H732 0.984 . S
N720 H733 0.985 . S
N721 C723 1.356 . S
N721 H726 0.984 . S
N721 H727 0.985 . S
C722 C716 1.379 . S
C722 C719 1.363 . S
C722 N720 1.356 . S
C723 C717 1.363 . S
C723 C718 1.379 . S
C723 N721 1.356 . S
N724 C716 1.356 . S
N724 H730 0.984 . S
N724 H731 0.984 . S
N725 C718 1.356 . S
N725 H728 0.984 . S
N725 H729 0.985 . S
H726 N721 0.984 . S
H727 N721 0.985 . S
H728 N725 0.984 . S
H729 N725 0.985 . S
H730 N724 0.984 . S
H731 N724 0.984 . S
H732 N720 0.984 . S
H733 N720 0.985 . S
C734 C735 1.363 . S
C734 C740 1.379 . S
C734 N742 1.356 . S
C735 C734 1.363 . S
C735 C741 1.363 . S
C736 C737 1.363 . S
C736 C741 1.379 . S
C736 N743 1.356 . S
C737 C736 1.363 . S
C737 C740 1.363 . S
N738 C740 1.356 . S
N738 H750 0.984 . S
N738 H751 0.985 . S
N739 C741 1.356 . S
N739 H744 0.984 . S
N739 H745 0.985 . S
C740 C734 1.379 . S
C740 C737 1.363 . S
C740 N738 1.356 . S
C741 C735 1.363 . S
C741 C736 1.379 . S
C741 N739 1.356 . S
N742 C734 1.356 . S
N742 H748 0.984 . S
N742 H749 0.984 . S
N743 C736 1.356 . S
N743 H746 0.984 . S
N743 H747 0.985 . S
H744 N739 0.984 . S
H745 N739 0.985 . S
H746 N743 0.984 . S
H747 N743 0.985 . S
H748 N742 0.984 . S
H749 N742 0.984 . S
H750 N738 0.984 . S
H751 N738 0.985 . S
C752 C753 1.363 . S
C752 C758 1.379 . S
C752 N760 1.356 . S
C753 C752 1.363 . S
C753 C759 1.363 . S
C754 C755 1.363 . S
C754 C759 1.379 . S
C754 N761 1.356 . S
C755 C754 1.363 . S
C755 C758 1.363 . S
N756 C758 1.356 . S
N756 H768 0.984 . S
N756 H769 0.985 . S
N757 C759 1.356 . S
N757 H762 0.984 . S
N757 H763 0.985 . S
C758 C752 1.379 . S
C758 C755 1.363 . S
C758 N756 1.356 . S
C759 C753 1.363 . S
C759 C754 1.379 . S
C759 N757 1.356 . S
N760 C752 1.356 . S
N760 H766 0.984 . S
N760 H767 0.984 . S
N761 C754 1.356 . S
N761 H764 0.984 . S
N761 H765 0.985 . S
H762 N757 0.984 . S
H763 N757 0.985 . S
H764 N761 0.984 . S
H765 N761 0.985 . S
H766 N760 0.984 . S
H767 N760 0.984 . S
H768 N756 0.984 . S
H769 N756 0.985 . S
C770 C771 1.363 . S
C770 C776 1.379 . S
C770 N778 1.356 . S
C771 C770 1.363 . S
C771 C777 1.363 . S
C772 C773 1.363 . S
C772 C777 1.379 . S
C772 N779 1.356 . S
C773 C772 1.363 . S
C773 C776 1.363 . S
N774 C776 1.356 . S
N774 H786 0.984 1_655 S
N774 H787 0.985 . S
N775 C777 1.356 . S
N775 H780 0.984 . S
N775 H781 0.985 . S
C776 C770 1.379 . S
C776 C773 1.363 . S
C776 N774 1.356 . S
C777 C771 1.363 . S
C777 C772 1.379 . S
C777 N775 1.356 . S
N778 C770 1.356 . S
N778 H784 0.984 . S
N778 H785 0.984 . S
N779 C772 1.356 . S
N779 H782 0.984 . S
N779 H783 0.985 1_545 S
H780 N775 0.984 . S
H781 N775 0.985 . S
H782 N779 0.984 . S
H783 N779 0.985 1_565 S
H784 N778 0.984 . S
H785 N778 0.984 . S
H786 N774 0.984 1_455 S
H787 N774 0.985 . S
C788 C789 1.363 . S
C788 C794 1.379 . S
C788 N796 1.356 . S
C789 C788 1.363 . S
C789 C795 1.363 . S
C790 C791 1.363 . S
C790 C795 1.379 . S
C790 N797 1.356 . S
C791 C790 1.363 . S
C791 C794 1.363 . S
N792 C794 1.356 . S
N792 H804 0.984 . S
N792 H805 0.985 . S
N793 C795 1.356 . S
N793 H798 0.984 . S
N793 H799 0.985 . S
C794 C788 1.379 . S
C794 C791 1.363 . S
C794 N792 1.356 . S
C795 C789 1.363 . S
C795 C790 1.379 . S
C795 N793 1.356 . S
N796 C788 1.356 . S
N796 H802 0.984 . S
N796 H803 0.984 . S
N797 C790 1.356 . S
N797 H800 0.984 . S
N797 H801 0.985 . S
H798 N793 0.984 . S
H799 N793 0.985 . S
H800 N797 0.984 . S
H801 N797 0.985 . S
H802 N796 0.984 . S
H803 N796 0.984 . S
H804 N792 0.984 . S
H805 N792 0.985 . S
C806 C807 1.363 . S
C806 C812 1.379 . S
C806 N814 1.356 . S
C807 C806 1.363 . S
C807 C813 1.363 . S
C808 C809 1.363 . S
C808 C813 1.379 . S
C808 N815 1.356 1_565 S
C809 C808 1.363 . S
C809 C812 1.363 . S
N810 C812 1.356 . S
N810 H822 0.984 . S
N810 H823 0.985 . S
N811 C813 1.356 . S
N811 H816 0.984 . S
N811 H817 0.985 . S
C812 C806 1.379 . S
C812 C809 1.363 . S
C812 N810 1.356 . S
C813 C807 1.363 . S
C813 C808 1.379 . S
C813 N811 1.356 . S
N814 C806 1.356 . S
N814 H820 0.984 . S
N814 H821 0.984 . S
N815 C808 1.356 1_545 S
N815 H818 0.984 . S
N815 H819 0.985 . S
H816 N811 0.984 . S
H817 N811 0.985 . S
H818 N815 0.984 . S
H819 N815 0.985 . S
H820 N814 0.984 . S
H821 N814 0.984 . S
H822 N810 0.984 . S
H823 N810 0.985 . S
C824 C825 1.363 . S
C824 C830 1.379 . S
C824 N832 1.356 . S
C825 C824 1.363 . S
C825 C831 1.363 . S
C826 C827 1.363 . S
C826 C831 1.379 . S
C826 N833 1.356 . S
C827 C826 1.363 . S
C827 C830 1.363 . S
N828 C830 1.356 . S
N828 H840 0.984 . S
N828 H841 0.985 . S
N829 C831 1.356 . S
N829 H834 0.984 . S
N829 H835 0.985 . S
C830 C824 1.379 . S
C830 C827 1.363 . S
C830 N828 1.356 . S
C831 C825 1.363 . S
C831 C826 1.379 . S
C831 N829 1.356 . S
N832 C824 1.356 . S
N832 H838 0.984 . S
N832 H839 0.984 . S
N833 C826 1.356 . S
N833 H836 0.984 . S
N833 H837 0.985 . S
H834 N829 0.984 . S
H835 N829 0.985 . S
H836 N833 0.984 . S
H837 N833 0.985 . S
H838 N832 0.984 . S
H839 N832 0.984 . S
H840 N828 0.984 . S
H841 N828 0.985 . S
C842 C843 1.363 . S
C842 C848 1.379 . S
C842 N850 1.356 . S
C843 C842 1.363 . S
C843 C849 1.363 . S
C844 C845 1.363 . S
C844 C849 1.379 . S
C844 N851 1.356 . S
C845 C844 1.363 . S
C845 C848 1.363 . S
N846 C848 1.356 . S
N846 H858 0.984 . S
N846 H859 0.985 . S
N847 C849 1.356 . S
N847 H852 0.984 . S
N847 H853 0.985 . S
C848 C842 1.379 . S
C848 C845 1.363 . S
C848 N846 1.356 . S
C849 C843 1.363 . S
C849 C844 1.379 . S
C849 N847 1.356 . S
N850 C842 1.356 . S
N850 H856 0.984 . S
N850 H857 0.984 . S
N851 C844 1.356 . S
N851 H854 0.984 . S
N851 H855 0.985 . S
H852 N847 0.984 . S
H853 N847 0.985 . S
H854 N851 0.984 . S
H855 N851 0.985 . S
H856 N850 0.984 . S
H857 N850 0.984 . S
H858 N846 0.984 . S
H859 N846 0.985 . S
C860 C861 1.363 . S
C860 C866 1.379 . S
C860 N868 1.356 . S
C861 C860 1.363 . S
C861 C867 1.363 . S
C862 C863 1.363 . S
C862 C867 1.379 . S
C862 N869 1.356 . S
C863 C862 1.363 . S
C863 C866 1.363 . S
N864 C866 1.356 . S
N864 H876 0.984 . S
N864 H877 0.985 . S
N865 C867 1.356 . S
N865 H870 0.984 . S
N865 H871 0.985 . S
C866 C860 1.379 . S
C866 C863 1.363 . S
C866 N864 1.356 . S
C867 C861 1.363 . S
C867 C862 1.379 . S
C867 N865 1.356 . S
N868 C860 1.356 . S
N868 H874 0.984 . S
N868 H875 0.984 . S
N869 C862 1.356 . S
N869 H872 0.984 . S
N869 H873 0.985 . S
H870 N865 0.984 . S
H871 N865 0.985 . S
H872 N869 0.984 . S
H873 N869 0.985 . S
H874 N868 0.984 . S
H875 N868 0.984 . S
H876 N864 0.984 . S
H877 N864 0.985 . S
C878 C879 1.363 . S
C878 C884 1.379 . S
C878 N886 1.356 . S
C879 C878 1.363 . S
C879 C885 1.363 . S
C880 C881 1.363 . S
C880 C885 1.379 . S
C880 N887 1.356 . S
C881 C880 1.363 . S
C881 C884 1.363 . S
N882 C884 1.356 . S
N882 H894 0.984 . S
N882 H895 0.985 . S
N883 C885 1.356 . S
N883 H888 0.984 . S
N883 H889 0.985 . S
C884 C878 1.379 . S
C884 C881 1.363 . S
C884 N882 1.356 . S
C885 C879 1.363 . S
C885 C880 1.379 . S
C885 N883 1.356 . S
N886 C878 1.356 . S
N886 H892 0.984 . S
N886 H893 0.984 . S
N887 C880 1.356 . S
N887 H890 0.984 . S
N887 H891 0.985 . S
H888 N883 0.984 . S
H889 N883 0.985 . S
H890 N887 0.984 . S
H891 N887 0.985 . S
H892 N886 0.984 . S
H893 N886 0.984 . S
H894 N882 0.984 . S
H895 N882 0.985 . S
C896 C897 1.363 . S
C896 C902 1.379 . S
C896 N904 1.356 . S
C897 C896 1.363 . S
C897 C903 1.363 . S
C898 C899 1.363 . S
C898 C903 1.379 . S
C898 N905 1.356 . S
C899 C898 1.363 . S
C899 C902 1.363 . S
N900 C902 1.356 . S
N900 H912 0.984 . S
N900 H913 0.985 . S
N901 C903 1.356 . S
N901 H906 0.984 . S
N901 H907 0.985 . S
C902 C896 1.379 . S
C902 C899 1.363 . S
C902 N900 1.356 . S
C903 C897 1.363 . S
C903 C898 1.379 . S
C903 N901 1.356 . S
N904 C896 1.356 . S
N904 H910 0.984 . S
N904 H911 0.984 . S
N905 C898 1.356 . S
N905 H908 0.984 . S
N905 H909 0.985 . S
H906 N901 0.984 . S
H907 N901 0.985 . S
H908 N905 0.984 . S
H909 N905 0.985 . S
H910 N904 0.984 . S
H911 N904 0.984 . S
H912 N900 0.984 . S
H913 N900 0.985 . S
C914 C915 1.363 . S
C914 C920 1.379 . S
C914 N922 1.356 . S
C915 C914 1.363 . S
C915 C921 1.363 . S
C916 C917 1.363 . S
C916 C921 1.379 . S
C916 N923 1.356 . S
C917 C916 1.363 . S
C917 C920 1.363 . S
N918 C920 1.356 . S
N918 H930 0.984 1_455 S
N918 H931 0.985 . S
N919 C921 1.356 . S
N919 H924 0.984 . S
N919 H925 0.985 . S
C920 C914 1.379 . S
C920 C917 1.363 . S
C920 N918 1.356 . S
C921 C915 1.363 . S
C921 C916 1.379 . S
C921 N919 1.356 . S
N922 C914 1.356 . S
N922 H928 0.984 . S
N922 H929 0.984 . S
N923 C916 1.356 . S
N923 H926 0.984 . S
N923 H927 0.985 . S
H924 N919 0.984 . S
H925 N919 0.985 . S
H926 N923 0.984 . S
H927 N923 0.985 . S
H928 N922 0.984 . S
H929 N922 0.984 . S
H930 N918 0.984 1_655 S
H931 N918 0.985 . S
C932 C933 1.363 . S
C932 C938 1.379 . S
C932 N940 1.356 . S
C933 C932 1.363 . S
C933 C939 1.363 . S
C934 C935 1.363 . S
C934 C939 1.379 . S
C934 N941 1.356 . S
C935 C934 1.363 . S
C935 C938 1.363 . S
N936 C938 1.356 . S
N936 H948 0.984 . S
N936 H949 0.985 . S
N937 C939 1.356 . S
N937 H942 0.984 . S
N937 H943 0.985 . S
C938 C932 1.379 . S
C938 C935 1.363 . S
C938 N936 1.356 . S
C939 C933 1.363 . S
C939 C934 1.379 . S
C939 N937 1.356 . S
N940 C932 1.356 . S
N940 H946 0.984 . S
N940 H947 0.984 . S
N941 C934 1.356 . S
N941 H944 0.984 . S
N941 H945 0.985 . S
H942 N937 0.984 . S
H943 N937 0.985 . S
H944 N941 0.984 . S
H945 N941 0.985 . S
H946 N940 0.984 . S
H947 N940 0.984 . S
H948 N936 0.984 . S
H949 N936 0.985 . S
C950 C951 1.363 . S
C950 C956 1.379 . S
C950 N958 1.356 . S
C951 C950 1.363 . S
C951 C957 1.363 . S
C952 C953 1.363 . S
C952 C957 1.379 . S
C952 N959 1.356 . S
C953 C952 1.363 . S
C953 C956 1.363 . S
N954 C956 1.356 . S
N954 H966 0.984 . S
N954 H967 0.985 . S
N955 C957 1.356 . S
N955 H960 0.984 . S
N955 H961 0.985 . S
C956 C950 1.379 . S
C956 C953 1.363 . S
C956 N954 1.356 . S
C957 C951 1.363 . S
C957 C952 1.379 . S
C957 N955 1.356 . S
N958 C950 1.356 . S
N958 H964 0.984 . S
N958 H965 0.984 . S
N959 C952 1.356 . S
N959 H962 0.984 . S
N959 H963 0.985 . S
H960 N955 0.984 . S
H961 N955 0.985 . S
H962 N959 0.984 . S
H963 N959 0.985 . S
H964 N958 0.984 . S
H965 N958 0.984 . S
H966 N954 0.984 . S
H967 N954 0.985 . S
C968 C969 1.363 . S
C968 C974 1.379 . S
C968 N976 1.356 . S
C969 C968 1.363 . S
C969 C975 1.363 . S
C970 C971 1.363 . S
C970 C975 1.379 . S
C970 N977 1.356 . S
C971 C970 1.363 . S
C971 C974 1.363 . S
N972 C974 1.356 . S
N972 H984 0.984 . S
N972 H985 0.985 . S
N973 C975 1.356 . S
N973 H978 0.984 . S
N973 H979 0.985 1_655 S
C974 C968 1.379 . S
C974 C971 1.363 . S
C974 N972 1.356 . S
C975 C969 1.363 . S
C975 C970 1.379 . S
C975 N973 1.356 . S
N976 C968 1.356 . S
N976 H982 0.984 . S
N976 H983 0.984 . S
N977 C970 1.356 . S
N977 H980 0.984 . S
N977 H981 0.985 . S
H978 N973 0.984 . S
H979 N973 0.985 1_455 S
H980 N977 0.984 . S
H981 N977 0.985 . S
H982 N976 0.984 . S
H983 N976 0.984 . S
H984 N972 0.984 . S
H985 N972 0.985 . S
C986 C987 1.363 . S
C986 C992 1.379 . S
C986 N994 1.356 . S
C987 C986 1.363 . S
C987 C993 1.363 . S
C988 C989 1.363 . S
C988 C993 1.379 . S
C988 N995 1.356 . S
C989 C988 1.363 . S
C989 C992 1.363 . S
N990 C992 1.356 . S
N990 H1002 0.984 . S
N990 H1003 0.985 . S
N991 C993 1.356 . S
N991 H996 0.984 . S
N991 H997 0.985 . S
C992 C986 1.379 . S
C992 C989 1.363 . S
C992 N990 1.356 . S
C993 C987 1.363 . S
C993 C988 1.379 . S
C993 N991 1.356 . S
N994 C986 1.356 . S
N994 H1000 0.984 . S
N994 H1001 0.984 . S
N995 C988 1.356 . S
N995 H998 0.984 . S
N995 H999 0.985 . S
H996 N991 0.984 . S
H997 N991 0.985 . S
H998 N995 0.984 . S
H999 N995 0.985 . S
H1000 N994 0.984 . S
H1001 N994 0.984 . S
H1002 N990 0.984 . S
H1003 N990 0.985 . S
C1004 C1005 1.363 . S
C1004 C1010 1.379 . S
C1004 N1012 1.356 . S
C1005 C1004 1.363 . S
C1005 C1011 1.363 . S
C1006 C1007 1.363 . S
C1006 C1011 1.379 . S
C1006 N1013 1.356 . S
C1007 C1006 1.363 . S
C1007 C1010 1.363 . S
N1008 C1010 1.356 . S
N1008 H1020 0.984 . S
N1008 H1021 0.985 . S
N1009 C1011 1.356 . S
N1009 H1014 0.984 . S
N1009 H1015 0.985 . S
C1010 C1004 1.379 . S
C1010 C1007 1.363 . S
C1010 N1008 1.356 . S
C1011 C1005 1.363 . S
C1011 C1006 1.379 . S
C1011 N1009 1.356 . S
N1012 C1004 1.356 . S
N1012 H1018 0.984 . S
N1012 H1019 0.984 . S
N1013 C1006 1.356 . S
N1013 H1016 0.984 . S
N1013 H1017 0.985 . S
H1014 N1009 0.984 . S
H1015 N1009 0.985 . S
H1016 N1013 0.984 . S
H1017 N1013 0.985 . S
H1018 N1012 0.984 . S
H1019 N1012 0.984 . S
H1020 N1008 0.984 . S
H1021 N1008 0.985 . S
C1022 C1023 1.363 . S
C1022 C1028 1.379 . S
C1022 N1030 1.356 . S
C1023 C1022 1.363 . S
C1023 C1029 1.363 . S
C1024 C1025 1.363 . S
C1024 C1029 1.379 . S
C1024 N1031 1.356 . S
C1025 C1024 1.363 . S
C1025 C1028 1.363 . S
N1026 C1028 1.356 . S
N1026 H1038 0.984 . S
N1026 H1039 0.985 . S
N1027 C1029 1.356 . S
N1027 H1032 0.984 . S
N1027 H1033 0.985 . S
C1028 C1022 1.379 . S
C1028 C1025 1.363 . S
C1028 N1026 1.356 . S
C1029 C1023 1.363 . S
C1029 C1024 1.379 . S
C1029 N1027 1.356 . S
N1030 C1022 1.356 . S
N1030 H1036 0.984 . S
N1030 H1037 0.984 . S
N1031 C1024 1.356 . S
N1031 H1034 0.984 . S
N1031 H1035 0.985 . S
H1032 N1027 0.984 . S
H1033 N1027 0.985 . S
H1034 N1031 0.984 . S
H1035 N1031 0.985 . S
H1036 N1030 0.984 . S
H1037 N1030 0.984 . S
H1038 N1026 0.984 . S
H1039 N1026 0.985 . S
C1040 C1041 1.363 . S
C1040 C1046 1.379 . S
C1040 N1048 1.356 . S
C1041 C1040 1.363 . S
C1041 C1047 1.363 . S
C1042 C1043 1.363 . S
C1042 C1047 1.379 . S
C1042 N1049 1.356 . S
C1043 C1042 1.363 . S
C1043 C1046 1.363 . S
N1044 C1046 1.356 . S
N1044 H1056 0.984 . S
N1044 H1057 0.985 . S
N1045 C1047 1.356 . S
N1045 H1050 0.984 . S
N1045 H1051 0.985 . S
C1046 C1040 1.379 . S
C1046 C1043 1.363 . S
C1046 N1044 1.356 . S
C1047 C1041 1.363 . S
C1047 C1042 1.379 . S
C1047 N1045 1.356 . S
N1048 C1040 1.356 . S
N1048 H1054 0.984 . S
N1048 H1055 0.984 . S
N1049 C1042 1.356 . S
N1049 H1052 0.984 . S
N1049 H1053 0.985 . S
H1050 N1045 0.984 . S
H1051 N1045 0.985 . S
H1052 N1049 0.984 . S
H1053 N1049 0.985 . S
H1054 N1048 0.984 . S
H1055 N1048 0.984 . S
H1056 N1044 0.984 . S
H1057 N1044 0.985 . S
C1058 C1059 1.363 . S
C1058 C1064 1.379 . S
C1058 N1066 1.356 . S
C1059 C1058 1.363 . S
C1059 C1065 1.363 . S
C1060 C1061 1.363 . S
C1060 C1065 1.379 . S
C1060 N1067 1.356 . S
C1061 C1060 1.363 . S
C1061 C1064 1.363 . S
N1062 C1064 1.356 . S
N1062 H1074 0.984 . S
N1062 H1075 0.985 . S
N1063 C1065 1.356 . S
N1063 H1068 0.984 . S
N1063 H1069 0.985 . S
C1064 C1058 1.379 . S
C1064 C1061 1.363 . S
C1064 N1062 1.356 . S
C1065 C1059 1.363 . S
C1065 C1060 1.379 . S
C1065 N1063 1.356 . S
N1066 C1058 1.356 . S
N1066 H1072 0.984 . S
N1066 H1073 0.984 . S
N1067 C1060 1.356 . S
N1067 H1070 0.984 . S
N1067 H1071 0.985 . S
H1068 N1063 0.984 . S
H1069 N1063 0.985 . S
H1070 N1067 0.984 . S
H1071 N1067 0.985 . S
H1072 N1066 0.984 . S
H1073 N1066 0.984 . S
H1074 N1062 0.984 . S
H1075 N1062 0.985 . S
C1076 C1077 1.363 . S
C1076 C1082 1.379 . S
C1076 N1084 1.356 . S
C1077 C1076 1.363 . S
C1077 C1083 1.363 . S
C1078 C1079 1.363 . S
C1078 C1083 1.379 . S
C1078 N1085 1.356 . S
C1079 C1078 1.363 . S
C1079 C1082 1.363 . S
N1080 C1082 1.356 . S
N1080 H1092 0.984 . S
N1080 H1093 0.985 . S
N1081 C1083 1.356 . S
N1081 H1086 0.984 . S
N1081 H1087 0.985 . S
C1082 C1076 1.379 . S
C1082 C1079 1.363 . S
C1082 N1080 1.356 . S
C1083 C1077 1.363 . S
C1083 C1078 1.379 . S
C1083 N1081 1.356 . S
N1084 C1076 1.356 . S
N1084 H1090 0.984 . S
N1084 H1091 0.984 . S
N1085 C1078 1.356 . S
N1085 H1088 0.984 . S
N1085 H1089 0.985 . S
H1086 N1081 0.984 . S
H1087 N1081 0.985 . S
H1088 N1085 0.984 . S
H1089 N1085 0.985 . S
H1090 N1084 0.984 . S
H1091 N1084 0.984 . S
H1092 N1080 0.984 . S
H1093 N1080 0.985 . S
C1094 C1095 1.363 . S
C1094 C1100 1.379 . S
C1094 N1102 1.356 . S
C1095 C1094 1.363 . S
C1095 C1101 1.363 . S
C1096 C1097 1.363 . S
C1096 C1101 1.379 . S
C1096 N1103 1.356 . S
C1097 C1096 1.363 . S
C1097 C1100 1.363 . S
N1098 C1100 1.356 . S
N1098 H1110 0.984 . S
N1098 H1111 0.985 . S
N1099 C1101 1.356 . S
N1099 H1104 0.984 . S
N1099 H1105 0.985 . S
C1100 C1094 1.379 . S
C1100 C1097 1.363 . S
C1100 N1098 1.356 . S
C1101 C1095 1.363 . S
C1101 C1096 1.379 . S
C1101 N1099 1.356 . S
N1102 C1094 1.356 . S
N1102 H1108 0.984 . S
N1102 H1109 0.984 . S
N1103 C1096 1.356 . S
N1103 H1106 0.984 . S
N1103 H1107 0.985 . S
H1104 N1099 0.984 . S
H1105 N1099 0.985 . S
H1106 N1103 0.984 . S
H1107 N1103 0.985 . S
H1108 N1102 0.984 . S
H1109 N1102 0.984 . S
H1110 N1098 0.984 . S
H1111 N1098 0.985 . S
C1112 C1113 1.363 . S
C1112 C1118 1.379 . S
C1112 N1120 1.356 . S
C1113 C1112 1.363 . S
C1113 C1119 1.363 . S
C1114 C1115 1.363 . S
C1114 C1119 1.379 . S
C1114 N1121 1.356 . S
C1115 C1114 1.363 . S
C1115 C1118 1.363 . S
N1116 C1118 1.356 . S
N1116 H1128 0.984 . S
N1116 H1129 0.985 . S
N1117 C1119 1.356 . S
N1117 H1122 0.984 . S
N1117 H1123 0.985 . S
C1118 C1112 1.379 . S
C1118 C1115 1.363 . S
C1118 N1116 1.356 . S
C1119 C1113 1.363 . S
C1119 C1114 1.379 . S
C1119 N1117 1.356 . S
N1120 C1112 1.356 . S
N1120 H1126 0.984 1_655 S
N1120 H1127 0.984 . S
N1121 C1114 1.356 . S
N1121 H1124 0.984 . S
N1121 H1125 0.985 . S
H1122 N1117 0.984 . S
H1123 N1117 0.985 . S
H1124 N1121 0.984 . S
H1125 N1121 0.985 . S
H1126 N1120 0.984 1_455 S
H1127 N1120 0.984 . S
H1128 N1116 0.984 . S
H1129 N1116 0.985 . S
C1130 C1131 1.363 . S
C1130 C1136 1.379 . S
C1130 N1138 1.356 . S
C1131 C1130 1.363 . S
C1131 C1137 1.363 . S
C1132 C1133 1.363 . S
C1132 C1137 1.379 . S
C1132 N1139 1.356 . S
C1133 C1132 1.363 . S
C1133 C1136 1.363 . S
N1134 C1136 1.356 . S
N1134 H1146 0.984 . S
N1134 H1147 0.985 . S
N1135 C1137 1.356 . S
N1135 H1140 0.984 . S
N1135 H1141 0.985 . S
C1136 C1130 1.379 . S
C1136 C1133 1.363 . S
C1136 N1134 1.356 . S
C1137 C1131 1.363 . S
C1137 C1132 1.379 . S
C1137 N1135 1.356 . S
N1138 C1130 1.356 . S
N1138 H1144 0.984 . S
N1138 H1145 0.984 . S
N1139 C1132 1.356 . S
N1139 H1142 0.984 . S
N1139 H1143 0.985 . S
H1140 N1135 0.984 . S
H1141 N1135 0.985 . S
H1142 N1139 0.984 . S
H1143 N1139 0.985 . S
H1144 N1138 0.984 . S
H1145 N1138 0.984 . S
H1146 N1134 0.984 . S
H1147 N1134 0.985 . S
C1148 C1149 1.363 . S
C1148 C1154 1.379 . S
C1148 N1156 1.356 . S
C1149 C1148 1.363 . S
C1149 C1155 1.363 . S
C1150 C1151 1.363 . S
C1150 C1155 1.379 . S
C1150 N1157 1.356 . S
C1151 C1150 1.363 . S
C1151 C1154 1.363 . S
N1152 C1154 1.356 . S
N1152 H1164 0.984 1_455 S
N1152 H1165 0.985 . S
N1153 C1155 1.356 . S
N1153 H1158 0.984 . S
N1153 H1159 0.985 . S
C1154 C1148 1.379 . S
C1154 C1151 1.363 . S
C1154 N1152 1.356 . S
C1155 C1149 1.363 . S
C1155 C1150 1.379 . S
C1155 N1153 1.356 . S
N1156 C1148 1.356 . S
N1156 H1162 0.984 . S
N1156 H1163 0.984 . S
N1157 C1150 1.356 . S
N1157 H1160 0.984 . S
N1157 H1161 0.985 . S
H1158 N1153 0.984 . S
H1159 N1153 0.985 . S
H1160 N1157 0.984 . S
H1161 N1157 0.985 . S
H1162 N1156 0.984 . S
H1163 N1156 0.984 . S
H1164 N1152 0.984 1_655 S
H1165 N1152 0.985 . S
C1166 C1167 1.363 . S
C1166 C1172 1.379 . S
C1166 N1174 1.356 . S
C1167 C1166 1.363 . S
C1167 C1173 1.363 . S
C1168 C1169 1.363 . S
C1168 C1173 1.379 . S
C1168 N1175 1.356 . S
C1169 C1168 1.363 . S
C1169 C1172 1.363 . S
N1170 C1172 1.356 . S
N1170 H1182 0.984 . S
N1170 H1183 0.985 . S
N1171 C1173 1.356 . S
N1171 H1176 0.984 . S
N1171 H1177 0.985 . S
C1172 C1166 1.379 . S
C1172 C1169 1.363 . S
C1172 N1170 1.356 . S
C1173 C1167 1.363 . S
C1173 C1168 1.379 . S
C1173 N1171 1.356 . S
N1174 C1166 1.356 . S
N1174 H1180 0.984 . S
N1174 H1181 0.984 . S
N1175 C1168 1.356 . S
N1175 H1178 0.984 . S
N1175 H1179 0.985 . S
H1176 N1171 0.984 . S
H1177 N1171 0.985 . S
H1178 N1175 0.984 . S
H1179 N1175 0.985 . S
H1180 N1174 0.984 . S
H1181 N1174 0.984 . S
H1182 N1170 0.984 . S
H1183 N1170 0.985 . S
C321 C66 1.403 . S
C323 C1 1.466 . S
C339 C8 2.281 . S
C341 C39 2.296 . S
C357 C41 1.010 . S
C359 C29 1.003 . S
C375 C68 2.258 . S
C377 C48 2.272 . S
C393 C88 1.519 . S
C395 C116 1.483 . S
C411 C109 1.006 . S
C413 C129 1.004 . S
C429 C139 1.570 . S
C431 C156 1.507 . S
C447 C86 1.391 . S
C449 C149 1.416 . S
C465 C199 1.500 . S
C467 C6 1.530 . S
C483 C216 0.957 . S
C485 C36 0.988 . S
C501 C46 1.506 . S
C503 C279 1.497 . S
C519 C161 1.054 . S
C521 C61 1.071 . S
C537 C221 1.069 . S
C539 C81 1.055 . S
C555 C286 1.530 . S
C557 C119 1.500 . S
C573 C136 0.957 . S
C575 C256 0.989 . S
C591 C306 1.506 . S
C593 C159 1.493 . S
C609 C166 1.391 . S
C611 C269 1.420 . S
C627 C196 1.483 . S
C629 C168 1.518 . S
C645 C209 1.002 . S
C647 C189 1.006 . S
C663 C281 1.467 . S
C665 C226 1.403 . S
C681 C249 1.002 . S
C683 C301 1.011 . S
C699 C236 1.402 . S
C701 C9 1.468 . S
C717 C248 2.297 . S
C719 C19 2.282 . S
C735 C241 1.002 . S
C737 C49 1.009 . S
C753 C59 2.273 . S
C755 C239 2.259 . S
C771 C186 1.483 . S
C773 C99 1.519 . S
C789 C181 1.006 . S
C791 C121 0.999 . S
C807 C266 1.509 . S
C809 C128 1.573 . S
C825 C96 1.391 . S
C827 C261 1.420 . S
C843 C108 1.500 . S
C845 C16 1.531 . S
C861 C206 0.957 . S
C863 C246 0.989 . S
C879 C56 1.506 . S
C881 C148 1.494 . S
C897 C169 1.054 . S
C899 C229 1.068 . S
C915 C69 1.069 . S
C917 C89 1.052 . S
C933 C188 1.500 . S
C935 C296 1.531 . S
C951 C126 0.956 . S
C953 C26 0.989 . S
C969 C316 1.506 . S
C971 C268 1.498 . S
C987 C176 1.391 . S
C989 C141 1.417 . S
C1005 C179 1.520 . S
C1007 C106 1.484 . S
C1023 C201 1.002 . S
C1025 C101 1.005 . S
C1041 C76 1.403 . S
C1043 C289 1.467 . S
C1059 C21 1.002 . S
C1061 C309 1.008 . S
C1077 C259 2.297 . S
C1079 C288 2.281 . S
C1095 C228 2.258 . S
C1097 C308 2.273 . S
C1113 C219 1.570 . S
C1115 C276 1.510 . S
C1131 C299 2.281 . S
C1133 C28 2.297 . S
C1149 C79 2.258 . S
C1151 C319 2.272 . S
C1167 C146 1.509 . S
C1169 C208 1.569 . S
